# Generated by pormake.
# Topology ctn, (3,4)-cn, num edge types: 1
# Building blocks:
#     Node 0, Type 0, BuildingBlock: WUSLED_clean_sbu_0, # of connection points: 3
#     Node 1, Type 0, BuildingBlock: WUSLED_clean_sbu_0, # of connection points: 3
#     Node 2, Type 0, BuildingBlock: WUSLED_clean_sbu_0, # of connection points: 3
#     Node 3, Type 0, BuildingBlock: WUSLED_clean_sbu_0, # of connection points: 3
#     Node 4, Type 0, BuildingBlock: WUSLED_clean_sbu_0, # of connection points: 3
#     Node 5, Type 0, BuildingBlock: WUSLED_clean_sbu_0, # of connection points: 3
#     Node 6, Type 0, BuildingBlock: WUSLED_clean_sbu_0, # of connection points: 3
#     Node 7, Type 0, BuildingBlock: WUSLED_clean_sbu_0, # of connection points: 3
#     Node 8, Type 0, BuildingBlock: WUSLED_clean_sbu_0, # of connection points: 3
#     Node 9, Type 0, BuildingBlock: WUSLED_clean_sbu_0, # of connection points: 3
#     Node 10, Type 0, BuildingBlock: WUSLED_clean_sbu_0, # of connection points: 3
#     Node 11, Type 0, BuildingBlock: WUSLED_clean_sbu_0, # of connection points: 3
#     Node 12, Type 0, BuildingBlock: WUSLED_clean_sbu_0, # of connection points: 3
#     Node 13, Type 0, BuildingBlock: WUSLED_clean_sbu_0, # of connection points: 3
#     Node 14, Type 0, BuildingBlock: WUSLED_clean_sbu_0, # of connection points: 3
#     Node 15, Type 0, BuildingBlock: WUSLED_clean_sbu_0, # of connection points: 3
#     Node 16, Type 1, BuildingBlock: TATPOV_clean_sbu_0, # of connection points: 4
#     Node 17, Type 1, BuildingBlock: TATPOV_clean_sbu_0, # of connection points: 4
#     Node 18, Type 1, BuildingBlock: TATPOV_clean_sbu_0, # of connection points: 4
#     Node 19, Type 1, BuildingBlock: TATPOV_clean_sbu_0, # of connection points: 4
#     Node 20, Type 1, BuildingBlock: TATPOV_clean_sbu_0, # of connection points: 4
#     Node 21, Type 1, BuildingBlock: TATPOV_clean_sbu_0, # of connection points: 4
#     Node 22, Type 1, BuildingBlock: TATPOV_clean_sbu_0, # of connection points: 4
#     Node 23, Type 1, BuildingBlock: TATPOV_clean_sbu_0, # of connection points: 4
#     Node 24, Type 1, BuildingBlock: TATPOV_clean_sbu_0, # of connection points: 4
#     Node 25, Type 1, BuildingBlock: TATPOV_clean_sbu_0, # of connection points: 4
#     Node 26, Type 1, BuildingBlock: TATPOV_clean_sbu_0, # of connection points: 4
#     Node 27, Type 1, BuildingBlock: TATPOV_clean_sbu_0, # of connection points: 4
#     Edge 28, Type (0, 1), BuildingBlock: KIFKEQ_clean_linker_1, # of connection points: 2
#     Edge 29, Type (0, 1), BuildingBlock: KIFKEQ_clean_linker_1, # of connection points: 2
#     Edge 30, Type (0, 1), BuildingBlock: KIFKEQ_clean_linker_1, # of connection points: 2
#     Edge 31, Type (0, 1), BuildingBlock: KIFKEQ_clean_linker_1, # of connection points: 2
#     Edge 32, Type (0, 1), BuildingBlock: KIFKEQ_clean_linker_1, # of connection points: 2
#     Edge 33, Type (0, 1), BuildingBlock: KIFKEQ_clean_linker_1, # of connection points: 2
#     Edge 34, Type (0, 1), BuildingBlock: KIFKEQ_clean_linker_1, # of connection points: 2
#     Edge 35, Type (0, 1), BuildingBlock: KIFKEQ_clean_linker_1, # of connection points: 2
#     Edge 36, Type (0, 1), BuildingBlock: KIFKEQ_clean_linker_1, # of connection points: 2
#     Edge 37, Type (0, 1), BuildingBlock: KIFKEQ_clean_linker_1, # of connection points: 2
#     Edge 38, Type (0, 1), BuildingBlock: KIFKEQ_clean_linker_1, # of connection points: 2
#     Edge 39, Type (0, 1), BuildingBlock: KIFKEQ_clean_linker_1, # of connection points: 2
#     Edge 40, Type (0, 1), BuildingBlock: KIFKEQ_clean_linker_1, # of connection points: 2
#     Edge 41, Type (0, 1), BuildingBlock: KIFKEQ_clean_linker_1, # of connection points: 2
#     Edge 42, Type (0, 1), BuildingBlock: KIFKEQ_clean_linker_1, # of connection points: 2
#     Edge 43, Type (0, 1), BuildingBlock: KIFKEQ_clean_linker_1, # of connection points: 2
#     Edge 44, Type (0, 1), BuildingBlock: KIFKEQ_clean_linker_1, # of connection points: 2
#     Edge 45, Type (0, 1), BuildingBlock: KIFKEQ_clean_linker_1, # of connection points: 2
#     Edge 46, Type (0, 1), BuildingBlock: KIFKEQ_clean_linker_1, # of connection points: 2
#     Edge 47, Type (0, 1), BuildingBlock: KIFKEQ_clean_linker_1, # of connection points: 2
#     Edge 48, Type (0, 1), BuildingBlock: KIFKEQ_clean_linker_1, # of connection points: 2
#     Edge 49, Type (0, 1), BuildingBlock: KIFKEQ_clean_linker_1, # of connection points: 2
#     Edge 50, Type (0, 1), BuildingBlock: KIFKEQ_clean_linker_1, # of connection points: 2
#     Edge 51, Type (0, 1), BuildingBlock: KIFKEQ_clean_linker_1, # of connection points: 2
#     Edge 52, Type (0, 1), BuildingBlock: KIFKEQ_clean_linker_1, # of connection points: 2
#     Edge 53, Type (0, 1), BuildingBlock: KIFKEQ_clean_linker_1, # of connection points: 2
#     Edge 54, Type (0, 1), BuildingBlock: KIFKEQ_clean_linker_1, # of connection points: 2
#     Edge 55, Type (0, 1), BuildingBlock: KIFKEQ_clean_linker_1, # of connection points: 2
#     Edge 56, Type (0, 1), BuildingBlock: KIFKEQ_clean_linker_1, # of connection points: 2
#     Edge 57, Type (0, 1), BuildingBlock: KIFKEQ_clean_linker_1, # of connection points: 2
#     Edge 58, Type (0, 1), BuildingBlock: KIFKEQ_clean_linker_1, # of connection points: 2
#     Edge 59, Type (0, 1), BuildingBlock: KIFKEQ_clean_linker_1, # of connection points: 2
#     Edge 60, Type (0, 1), BuildingBlock: KIFKEQ_clean_linker_1, # of connection points: 2
#     Edge 61, Type (0, 1), BuildingBlock: KIFKEQ_clean_linker_1, # of connection points: 2
#     Edge 62, Type (0, 1), BuildingBlock: KIFKEQ_clean_linker_1, # of connection points: 2
#     Edge 63, Type (0, 1), BuildingBlock: KIFKEQ_clean_linker_1, # of connection points: 2
#     Edge 64, Type (0, 1), BuildingBlock: KIFKEQ_clean_linker_1, # of connection points: 2
#     Edge 65, Type (0, 1), BuildingBlock: KIFKEQ_clean_linker_1, # of connection points: 2
#     Edge 66, Type (0, 1), BuildingBlock: KIFKEQ_clean_linker_1, # of connection points: 2
#     Edge 67, Type (0, 1), BuildingBlock: KIFKEQ_clean_linker_1, # of connection points: 2
#     Edge 68, Type (0, 1), BuildingBlock: KIFKEQ_clean_linker_1, # of connection points: 2
#     Edge 69, Type (0, 1), BuildingBlock: KIFKEQ_clean_linker_1, # of connection points: 2
#     Edge 70, Type (0, 1), BuildingBlock: KIFKEQ_clean_linker_1, # of connection points: 2
#     Edge 71, Type (0, 1), BuildingBlock: KIFKEQ_clean_linker_1, # of connection points: 2
#     Edge 72, Type (0, 1), BuildingBlock: KIFKEQ_clean_linker_1, # of connection points: 2
#     Edge 73, Type (0, 1), BuildingBlock: KIFKEQ_clean_linker_1, # of connection points: 2
#     Edge 74, Type (0, 1), BuildingBlock: KIFKEQ_clean_linker_1, # of connection points: 2
#     Edge 75, Type (0, 1), BuildingBlock: KIFKEQ_clean_linker_1, # of connection points: 2
# Relax obj value: 0.004
# Max RMSD: 0.049
# Mean RMSD: 0.024
data_MOF--net-ctn--node1-WUSLED_clean_sbu_0--node2-TATPOV_clean_sbu_0--edge1-KIFKEQ_clean_linker_1
_symmetry_space_group_name_H-M    P1
_symmetry_Int_Tables_number       1
_symmetry_cell_setting            triclinic
loop_
_symmetry_equiv_pos_as_xyz
'x, y, z'
_cell_length_a     71.646253
_cell_length_b     72.111902
_cell_length_c     71.936624
_cell_angle_alpha  91.52366
_cell_angle_beta   90.769165
_cell_angle_gamma 90.818071
loop_
_atom_site_label
_atom_site_type_symbol
_atom_site_fract_x
_atom_site_fract_y
_atom_site_fract_z
_atom_type_partial_charge
C0 C 1.00863 0.05214 0.08663 0.0
C1 C 0.99446 0.03839 0.0859 0.0
C2 C 0.98737 0.04415 0.11869 0.0
C3 C 0.98403 0.03442 0.10171 0.0
C4 C 1.00174 0.05769 0.11947 0.0
C5 C 0.01215 0.06168 0.10366 0.0
U6 U 0.04709 0.0489 0.04878 0.0
O7 O 0.04437 0.05237 0.01847 0.0
O8 O 0.06221 0.07153 0.03521 0.0
C9 C 0.05478 0.06755 0.01873 0.0
C10 C 0.0183 0.05793 0.06942 0.0
C11 C 0.04804 0.08323 1.00749 0.0
C12 C 0.04442 0.11641 1.00256 0.0
C13 C 0.04873 0.10173 0.01428 0.0
C14 C 0.03824 0.09441 0.97721 0.0
C15 C 0.03942 0.11297 0.98375 0.0
C16 C 0.04255 0.07979 0.98889 0.0
C17 C 0.08482 0.01051 0.05245 0.0
C18 C 0.10249 0.99327 0.02911 0.0
C19 C 0.11281 0.99385 0.06128 0.0
C20 C 0.09777 1.00515 0.06601 0.0
C21 C 0.11529 0.98754 0.0428 0.0
C22 C 0.08743 1.00464 0.03387 0.0
C23 C 0.06814 0.02096 0.05842 0.0
O24 O 0.03494 0.06571 0.0715 0.0
O25 O 0.01707 0.04662 0.05478 0.0
O26 O 0.05295 0.01901 0.04804 0.0
O27 O 0.07099 0.03807 0.06468 0.0
H28 H 0.99115 0.0309 0.073 0.0
H29 H 0.97325 0.02376 0.10058 0.0
H30 H 1.00457 0.0657 0.13217 0.0
H31 H 0.02267 0.07261 0.10469 0.0
H32 H 0.04565 0.13049 1.0081 0.0
H33 H 0.05306 0.10495 0.02849 0.0
H34 H 0.03413 0.09113 0.96295 0.0
H35 H 0.04201 0.06572 0.98319 0.0
H36 H 0.10406 0.98892 0.0147 0.0
H37 H 0.12216 0.98957 0.07226 0.0
H38 H 0.09599 1.00935 0.08045 0.0
H39 H 0.07768 1.00858 0.02309 0.0
C40 C 0.26557 0.74483 0.18591 0.0
C41 C 0.2822 0.75333 0.1802 0.0
C42 C 0.26483 0.77195 0.15815 0.0
C43 C 0.28183 0.76672 0.16644 0.0
C44 C 0.24816 0.76376 0.16435 0.0
C45 C 0.24856 0.75031 0.17805 0.0
U46 U 0.28855 0.71735 0.22507 0.0
O47 O 0.27592 0.7047 0.24953 0.0
O48 O 0.28956 0.68715 0.22854 0.0
C49 C 0.2798 0.68773 0.24386 0.0
C50 C 0.26572 0.72975 0.19941 0.0
C51 C 0.2646 0.67384 0.245 0.0
C52 C 0.2343 0.66102 0.23526 0.0
C53 C 0.24837 0.67466 0.23392 0.0
C54 C 0.25261 0.64571 0.2587 0.0
C55 C 0.23624 0.64638 0.24771 0.0
C56 C 0.2666 0.65929 0.25735 0.0
C57 C 0.33724 0.73225 0.24413 0.0
C58 C 0.35204 0.72186 0.27265 0.0
C59 C 0.37017 0.73868 0.25029 0.0
C60 C 0.35436 0.73994 0.23882 0.0
C61 C 0.36926 0.72967 0.26739 0.0
C62 C 0.33618 0.72308 0.26109 0.0
C63 C 0.32076 0.73432 0.23184 0.0
O64 O 0.27785 0.71656 0.19627 0.0
O65 O 0.26488 0.73484 0.21706 0.0
O66 O 0.30515 0.73907 0.23998 0.0
O67 O 0.31832 0.72144 0.21873 0.0
H68 H 0.29548 0.7494 0.18617 0.0
H69 H 0.29491 0.77293 0.16221 0.0
H70 H 0.23485 0.76731 0.15819 0.0
H71 H 0.23556 0.74391 0.18226 0.0
H72 H 0.22183 0.66207 0.2267 0.0
H73 H 0.2466 0.68581 0.22429 0.0
H74 H 0.25478 0.6345 0.26818 0.0
H75 H 0.27909 0.65836 0.26592 0.0
H76 H 0.35085 0.71471 0.28564 0.0
H77 H 0.38306 0.74514 0.2459 0.0
H78 H 0.35546 0.74712 0.22583 0.0
H79 H 0.32309 0.71696 0.26541 0.0
C80 C 0.97057 0.4295 0.00996 0.0
C81 C 0.98678 0.41975 0.01442 0.0
C82 C 0.98091 0.39819 0.98816 0.0
C83 C 0.9919 0.40419 1.00363 0.0
C84 C 0.96448 0.40786 0.98408 0.0
C85 C 0.95939 0.42334 0.99486 0.0
U86 U 0.97768 0.46489 0.05027 0.0
O87 O 0.97483 0.4953 0.05076 0.0
O88 O 0.957 0.47826 0.06832 0.0
C89 C 0.96061 0.49491 0.0621 0.0
C90 C 0.96522 0.44628 0.02062 0.0
C91 C 0.94436 0.506 0.05667 0.0
C92 C 0.9127 0.50855 0.04445 0.0
C93 C 0.92797 0.49766 0.04924 0.0
C94 C 0.93004 0.53624 0.05428 0.0
C95 C 0.91354 0.52801 0.04685 0.0
C96 C 0.94524 0.52534 0.05916 0.0
C97 C 0.01799 0.45893 0.08526 0.0
C98 C 0.03189 0.48238 0.10638 0.0
C99 C 0.03432 0.4498 0.11327 0.0
C100 C 0.02443 0.4451 0.09694 0.0
C101 C 0.03808 0.46849 0.11826 0.0
C102 C 0.02181 0.47765 0.09005 0.0
C103 C 1.00716 0.45333 0.06839 0.0
O104 O 0.95898 0.44354 0.03744 0.0
O105 O 0.97689 0.46046 0.01989 0.0
O106 O 1.00818 0.46438 0.05417 0.0
O107 O 0.99017 0.44706 0.07131 0.0
H108 H 0.99558 0.42431 0.02608 0.0
H109 H 1.0047 0.39719 1.00708 0.0
H110 H 0.95552 0.40347 0.97248 0.0
H111 H 0.94677 0.43063 0.99128 0.0
H112 H 0.90017 0.50167 0.039 0.0
H113 H 0.92694 0.48274 0.04718 0.0
H114 H 0.93137 0.55117 0.05603 0.0
H115 H 0.95778 0.53205 0.06483 0.0
H116 H 0.03448 0.49689 0.10994 0.0
H117 H 0.03912 0.43877 0.12199 0.0
H118 H 0.02169 0.43058 0.09347 0.0
H119 H 0.01689 0.4886 0.08129 0.0
C120 C 0.7216 0.74644 0.18411 0.0
C121 C 0.73264 0.75419 0.17024 0.0
C122 C 0.73229 0.72461 0.15288 0.0
C123 C 0.7379 0.74339 0.15473 0.0
C124 C 0.72131 0.71696 0.16691 0.0
C125 C 0.71602 0.72777 0.18234 0.0
U126 U 0.72496 0.78927 0.21707 0.0
O127 O 0.70247 0.80534 0.23014 0.0
O128 O 0.72273 0.79096 0.24755 0.0
C129 C 0.70735 0.80067 0.24704 0.0
C130 C 0.71563 0.7575 0.20044 0.0
C131 C 0.69208 0.79455 0.25913 0.0
C132 C 0.67136 0.77074 0.27117 0.0
C133 C 0.68568 0.77604 0.25915 0.0
C134 C 0.66966 0.80239 0.28304 0.0
C135 C 0.66324 0.78385 0.28337 0.0
C136 C 0.6839 0.80764 0.27109 0.0
C137 C 0.76145 0.82766 0.20826 0.0
C138 C 0.76415 0.85636 0.22668 0.0
C139 C 0.78645 0.84987 0.20245 0.0
C140 C 0.77723 0.83299 0.19827 0.0
C141 C 0.78008 0.86178 0.21675 0.0
C142 C 0.75494 0.83945 0.22249 0.0
C143 C 0.75205 0.80977 0.20363 0.0
O144 O 0.72772 0.75894 0.21433 0.0
O145 O 0.70741 0.77323 0.19692 0.0
O146 O 0.73457 0.81069 0.19801 0.0
O147 O 0.75487 0.79646 0.21543 0.0
H148 H 0.73716 0.76858 0.17141 0.0
H149 H 0.74652 0.74967 0.1443 0.0
H150 H 0.71651 0.70265 0.16584 0.0
H151 H 0.70747 0.72155 0.19288 0.0
H152 H 0.66685 0.75634 0.27108 0.0
H153 H 0.6918 0.76571 0.24998 0.0
H154 H 0.66351 0.81298 0.29187 0.0
H155 H 0.68857 0.822 0.27121 0.0
H156 H 0.75866 0.86526 0.2376 0.0
H157 H 0.79877 0.85343 0.19467 0.0
H158 H 0.78248 0.82404 0.18726 0.0
H159 H 0.74274 0.83559 0.23033 0.0
C160 C 0.01085 0.97087 0.42547 0.0
C161 C 0.01921 0.97784 0.40946 0.0
C162 C 0.98859 0.98112 0.39472 0.0
C163 C 1.00817 0.98283 0.39417 0.0
C164 C 0.98036 0.97412 0.4108 0.0
C165 C 0.99137 0.96904 0.42596 0.0
U166 U 0.05173 0.9773 0.46042 0.0
O167 O 0.05216 0.97431 0.49082 0.0
O168 O 0.06968 0.95654 0.47325 0.0
C169 C 0.06357 0.96021 0.4901 0.0
C170 C 0.02194 0.96531 0.44182 0.0
C171 C 0.05826 0.94418 0.5013 0.0
C172 C 0.04502 0.91317 0.50433 0.0
C173 C 0.04979 0.92817 0.49326 0.0
C174 C 0.05701 0.93005 0.5316 0.0
C175 C 0.04851 0.91394 0.52368 0.0
C176 C 0.06185 0.94497 0.52051 0.0
C177 C 0.08643 0.01751 0.45648 0.0
C178 C 0.11477 0.01986 0.47541 0.0
C179 C 0.10673 0.04467 0.45482 0.0
C180 C 0.09053 0.0349 0.44919 0.0
C181 C 0.11917 0.03717 0.46783 0.0
C182 C 0.09851 0.01014 0.46981 0.0
C183 C 0.06978 1.00706 0.4498 0.0
O184 O 0.03883 0.95914 0.43864 0.0
O185 O 0.02117 0.97648 0.45652 0.0
O186 O 0.05532 1.00769 0.46083 0.0
O187 O 0.0729 0.99032 0.44297 0.0
H188 H 0.03423 0.97947 0.40878 0.0
H189 H 0.01491 0.98828 0.38205 0.0
H190 H 0.96536 0.97235 0.41159 0.0
H191 H 0.98463 0.96362 0.43812 0.0
H192 H 0.0387 0.90093 0.4977 0.0
H193 H 0.04688 0.92725 0.47845 0.0
H194 H 0.05962 0.93132 0.54644 0.0
H195 H 0.06832 0.95723 0.52699 0.0
H196 H 0.12394 0.0138 0.4856 0.0
H197 H 0.1098 0.05783 0.44855 0.0
H198 H 0.08134 0.04079 0.43889 0.0
H199 H 0.09549 0.99676 0.47569 0.0
C200 C 0.21057 0.76832 0.82535 0.0
C201 C 0.22355 0.76103 0.83786 0.0
C202 C 0.21771 0.78638 0.8602 0.0
C203 C 0.22708 0.76997 0.85513 0.0
C204 C 0.20484 0.79365 0.84747 0.0
C205 C 0.20131 0.78469 0.83025 0.0
U206 U 0.21813 0.73077 0.78697 0.0
O207 O 0.19701 0.71422 0.77119 0.0
O208 O 0.2157 0.73306 0.75653 0.0
C209 C 0.20112 0.7218 0.75531 0.0
C210 C 0.20611 0.75891 0.80734 0.0
C211 C 0.18517 0.72821 0.74412 0.0
C212 C 0.15528 0.7436 0.74126 0.0
C213 C 0.1706 0.73834 0.75215 0.0
C214 C 0.16911 0.72898 0.71417 0.0
C215 C 0.15432 0.73893 0.72212 0.0
C216 C 0.18434 0.72367 0.72506 0.0
C217 C 0.25708 0.69448 0.79212 0.0
C218 C 0.27625 0.67741 0.76985 0.0
C219 C 0.26898 0.66404 0.79943 0.0
C220 C 0.25881 0.67977 0.80437 0.0
C221 C 0.27782 0.6626 0.78211 0.0
C222 C 0.26592 0.69318 0.77477 0.0
C223 C 0.24658 0.7111 0.79823 0.0
O224 O 0.21857 0.76068 0.79423 0.0
O225 O 0.19926 0.74196 0.80823 0.0
O226 O 0.22932 0.70805 0.80348 0.0
O227 O 0.24845 0.72617 0.78846 0.0
H228 H 0.23088 0.74841 0.83431 0.0
H229 H 0.23728 0.76411 0.86444 0.0
H230 H 0.19721 0.8061 0.85094 0.0
H231 H 0.19118 0.79049 0.82079 0.0
H232 H 0.14425 0.75143 0.74779 0.0
H233 H 0.17101 0.74205 0.76685 0.0
H234 H 0.16875 0.72492 0.69956 0.0
H235 H 0.19542 0.71582 0.71862 0.0
H236 H 0.28282 0.67671 0.75638 0.0
H237 H 0.27016 0.65308 0.80937 0.0
H238 H 0.25235 0.68049 0.8179 0.0
H239 H 0.2649 0.70431 0.76502 0.0
C240 C 0.95823 0.59125 0.51566 0.0
C241 C 0.95836 0.60808 0.50622 0.0
C242 C 0.96934 0.62473 0.53427 0.0
C243 C 0.96379 0.62462 0.51545 0.0
C244 C 0.96974 0.60784 0.54357 0.0
C245 C 0.96413 0.59128 0.53437 0.0
U246 U 0.9605 0.55317 0.4775 0.0
O247 O 0.9565 0.52291 0.47916 0.0
O248 O 0.93796 0.53898 0.46138 0.0
C249 C 0.94132 0.5228 0.46865 0.0
C250 C 0.95135 0.57377 0.50651 0.0
C251 C 0.92506 0.51205 0.47544 0.0
C252 C 0.91267 0.48299 0.48697 0.0
C253 C 0.92783 0.49416 0.48207 0.0
C254 C 0.89147 0.50746 0.47905 0.0
C255 C 0.89426 0.48934 0.48521 0.0
C256 C 0.9067 0.51869 0.47417 0.0
C257 C 0.99982 0.55663 0.44112 0.0
C258 C 0.02256 0.53609 0.42682 0.0
C259 C 0.01006 0.56143 0.40939 0.0
C260 C 0.99919 0.56665 0.42464 0.0
C261 C 0.02195 0.54611 0.41029 0.0
C262 C 0.01165 0.54126 0.44202 0.0
C263 C 0.98928 0.56322 0.45759 0.0
O264 O 0.94342 0.57514 0.49001 0.0
O265 O 0.96241 0.55944 0.50765 0.0
O266 O 0.99071 0.55344 0.4727 0.0
O267 O 0.97224 0.56909 0.45452 0.0
H268 H 0.95402 0.60857 0.49176 0.0
H269 H 0.96355 0.6374 0.50786 0.0
H270 H 0.97382 0.60752 0.55811 0.0
H271 H 0.9641 0.57852 0.54198 0.0
H272 H 0.91539 0.46925 0.49199 0.0
H273 H 0.94178 0.48862 0.48313 0.0
H274 H 0.87749 0.51276 0.47741 0.0
H275 H 0.90402 0.53238 0.46902 0.0
H276 H 0.03177 0.52441 0.42818 0.0
H277 H 1.00903 0.56934 0.39684 0.0
H278 H 0.99039 0.57869 0.4236 0.0
H279 H 0.01274 0.53335 0.45457 0.0
C280 C 0.79577 0.79415 0.85848 0.0
C281 C 0.8049 0.77731 0.85525 0.0
C282 C 0.79508 0.76635 0.88546 0.0
C283 C 0.8045 0.76353 0.86856 0.0
C284 C 0.78621 0.78341 0.88871 0.0
C285 C 0.78654 0.79715 0.87533 0.0
U286 U 0.81595 0.81655 0.8155 0.0
O287 O 0.80171 0.82687 0.79062 0.0
O288 O 0.81867 0.84595 0.80838 0.0
C289 C 0.807 0.84414 0.79414 0.0
C290 C 0.79548 0.8085 0.8443 0.0
C291 C 0.7921 0.85794 0.79302 0.0
C292 C 0.77271 0.87746 0.77394 0.0
C293 C 0.78722 0.86485 0.77562 0.0
C294 C 0.76791 0.87672 0.80719 0.0
C295 C 0.76281 0.88347 0.78969 0.0
C296 C 0.78239 0.86397 0.80883 0.0
C297 C 0.8592 0.79633 0.79262 0.0
C298 C 0.87607 0.81183 0.76824 0.0
C299 C 0.88142 0.77933 0.77374 0.0
C300 C 0.86851 0.77988 0.78816 0.0
C301 C 0.88531 0.79528 0.76351 0.0
C302 C 0.86308 0.81233 0.78259 0.0
C303 C 0.84515 0.79643 0.80737 0.0
O304 O 0.80936 0.82063 0.84517 0.0
O305 O 0.79157 0.80251 0.82725 0.0
O306 O 0.82809 0.79192 0.80186 0.0
O307 O 0.84582 0.81075 0.81908 0.0
H308 H 0.81214 0.77474 0.84233 0.0
H309 H 0.81124 0.7505 0.86541 0.0
H310 H 0.77907 0.7862 0.90163 0.0
H311 H 0.77949 0.81011 0.8781 0.0
H312 H 0.76924 0.88254 0.76031 0.0
H313 H 0.79456 0.86035 0.76326 0.0
H314 H 0.76041 0.88093 0.81954 0.0
H315 H 0.78585 0.85869 0.82239 0.0
H316 H 0.87887 0.82444 0.76085 0.0
H317 H 0.88799 0.76628 0.77033 0.0
H318 H 0.86559 0.76736 0.79567 0.0
H319 H 0.85599 0.82517 0.78579 0.0
C320 C 0.29731 0.29454 0.36095 0.0
C321 C 0.30627 0.27769 0.35731 0.0
C322 C 0.29621 0.26605 0.38717 0.0
C323 C 0.30567 0.26356 0.37026 0.0
C324 C 0.28752 0.28313 0.39084 0.0
C325 C 0.28806 0.29722 0.37783 0.0
U326 U 0.31733 0.31821 0.31844 0.0
O327 O 0.30295 0.32955 0.29419 0.0
O328 O 0.31995 0.34797 0.31256 0.0
C329 C 0.30807 0.34673 0.29849 0.0
C330 C 0.29712 0.30927 0.34716 0.0
C331 C 0.29291 0.3603 0.29873 0.0
C332 C 0.26167 0.36936 0.30761 0.0
C333 C 0.27633 0.35678 0.30827 0.0
C334 C 0.28019 0.38939 0.28834 0.0
C335 C 0.26335 0.38573 0.29748 0.0
C336 C 0.29481 0.37674 0.28892 0.0
C337 C 0.36038 0.2986 0.29448 0.0
C338 C 0.36956 0.30636 0.26319 0.0
C339 C 0.39074 0.28956 0.28291 0.0
C340 C 0.37761 0.29005 0.29714 0.0
C341 C 0.38684 0.29759 0.26567 0.0
C342 C 0.3565 0.30692 0.27747 0.0
C343 C 0.34648 0.29839 0.30937 0.0
O344 O 0.31111 0.32126 0.34829 0.0
O345 O 0.29306 0.30379 0.32998 0.0
O346 O 0.32931 0.29401 0.30404 0.0
O347 O 0.34736 0.31247 0.32136 0.0
H348 H 0.31352 0.27537 0.34435 0.0
H349 H 0.31229 0.25054 0.3668 0.0
H350 H 0.28036 0.28567 0.4038 0.0
H351 H 0.28113 0.31018 0.38091 0.0
H352 H 0.24898 0.36626 0.31502 0.0
H353 H 0.27466 0.34421 0.31604 0.0
H354 H 0.28187 0.40179 0.28031 0.0
H355 H 0.30752 0.37967 0.28148 0.0
H356 H 0.36592 0.31245 0.25006 0.0
H357 H 0.40397 0.28295 0.28545 0.0
H358 H 0.38088 0.28363 0.31022 0.0
H359 H 0.34326 0.31363 0.27515 0.0
C360 C 0.46727 0.92507 0.51233 0.0
C361 C 0.48041 0.91259 0.51916 0.0
C362 C 0.47447 0.89164 0.49239 0.0
C363 C 0.48401 0.896 0.50925 0.0
C364 C 0.46149 0.90439 0.48562 0.0
C365 C 0.45794 0.92088 0.49549 0.0
U366 U 0.475 0.96202 0.55162 0.0
O367 O 0.47283 0.99243 0.55053 0.0
O368 O 0.4541 0.97668 0.56838 0.0
C369 C 0.45831 0.99291 0.5615 0.0
C370 C 0.46279 0.94241 0.52249 0.0
C371 C 0.44261 1.00454 0.55544 0.0
C372 C 0.43139 0.03506 0.54743 0.0
C373 C 0.44597 0.02344 0.55244 0.0
C374 C 0.40964 1.00912 0.54847 0.0
C375 C 0.41303 0.02806 0.54541 0.0
C376 C 0.42428 0.99745 0.55339 0.0
C377 C 0.51399 0.9586 0.5883 0.0
C378 C 0.54134 0.97394 0.60267 0.0
C379 C 0.51648 0.96263 0.62197 0.0
C380 C 0.50664 0.95622 0.60612 0.0
C381 C 0.53395 0.97159 0.62049 0.0
C382 C 0.5315 0.96747 0.58677 0.0
C383 C 0.50382 0.95144 0.5714 0.0
O384 O 0.45617 0.94055 0.53931 0.0
O385 O 0.47505 0.95606 0.52142 0.0
O386 O 0.50544 0.96132 0.55638 0.0
O387 O 0.48671 0.94515 0.5738 0.0
H388 H 0.48776 0.91561 0.53217 0.0
H389 H 0.49402 0.88649 0.51491 0.0
H390 H 0.45418 0.90175 0.47252 0.0
H391 H 0.44783 0.93039 0.48995 0.0
H392 H 0.43446 0.04961 0.54539 0.0
H393 H 0.45993 0.02929 0.55413 0.0
H394 H 0.39569 1.00325 0.5468 0.0
H395 H 0.42122 0.98294 0.55562 0.0
H396 H 0.5547 0.98086 0.60097 0.0
H397 H 0.51051 0.96018 0.63546 0.0
H398 H 0.49332 0.94924 0.60791 0.0
H399 H 0.53763 0.96937 0.57326 0.0
C400 C 0.22793 0.24777 0.68132 0.0
C401 C 0.23512 0.25709 0.66602 0.0
C402 C 0.2393 0.22756 0.64923 0.0
C403 C 0.2407 0.24709 0.65011 0.0
C404 C 0.23236 0.21835 0.66477 0.0
C405 C 0.22671 0.22835 0.68059 0.0
U406 U 0.22996 0.28864 0.71691 0.0
O407 O 0.2072 0.30406 0.73009 0.0
O408 O 0.22634 0.28816 0.74735 0.0
C409 C 0.21086 0.2977 0.7467 0.0
C410 C 0.22137 0.2579 0.69805 0.0
C411 C 0.19478 0.29017 0.75702 0.0
C412 C 0.16271 0.27853 0.75795 0.0
C413 C 0.17826 0.28415 0.74781 0.0
C414 C 0.1801 0.28406 0.78668 0.0
C415 C 0.16334 0.27865 0.77753 0.0
C416 C 0.19561 0.28984 0.77653 0.0
C417 C 0.26717 0.3274 0.71066 0.0
C418 C 0.27002 0.35586 0.72944 0.0
C419 C 0.29244 0.34945 0.7053 0.0
C420 C 0.28309 0.3327 0.70088 0.0
C421 C 0.28604 0.36128 0.71965 0.0
C422 C 0.26067 0.33907 0.72499 0.0
C423 C 0.25755 0.30977 0.70546 0.0
O424 O 0.23292 0.25847 0.71241 0.0
O425 O 0.21314 0.27379 0.69531 0.0
O426 O 0.24024 0.31109 0.69944 0.0
O427 O 0.25991 0.29602 0.71686 0.0
H428 H 0.23625 0.27209 0.66628 0.0
H429 H 0.24579 0.25469 0.63839 0.0
H430 H 0.23141 0.20335 0.66479 0.0
H431 H 0.22131 0.22089 0.69229 0.0
H432 H 0.15011 0.2742 0.75046 0.0
H433 H 0.17722 0.28408 0.73277 0.0
H434 H 0.18103 0.28446 0.80173 0.0
H435 H 0.20817 0.29444 0.78395 0.0
H436 H 0.26454 0.3647 0.74041 0.0
H437 H 0.30483 0.35299 0.69763 0.0
H438 H 0.28833 0.32384 0.68978 0.0
H439 H 0.24835 0.33524 0.73266 0.0
C440 C 0.76603 0.2406 0.6876 0.0
C441 C 0.77579 0.25748 0.69042 0.0
C442 C 0.76403 0.26853 0.66067 0.0
C443 C 0.77477 0.27132 0.67711 0.0
C444 C 0.75426 0.25155 0.65801 0.0
C445 C 0.75525 0.23779 0.67133 0.0
U446 U 0.78939 0.21436 0.72766 0.0
O447 O 0.77653 0.20181 0.75204 0.0
O448 O 0.79094 0.18426 0.7316 0.0
C449 C 0.78078 0.18484 0.74667 0.0
C450 C 0.76677 0.22571 0.7013 0.0
C451 C 0.76569 0.17082 0.74751 0.0
C452 C 0.73555 0.15796 0.73734 0.0
C453 C 0.74961 0.17162 0.73622 0.0
C454 C 0.75357 0.14264 0.761 0.0
C455 C 0.73734 0.14331 0.74981 0.0
C456 C 0.76756 0.15625 0.75985 0.0
C457 C 0.83725 0.23081 0.74785 0.0
C458 C 0.85086 0.22626 0.77863 0.0
C459 C 0.87053 0.23577 0.7534 0.0
C460 C 0.85504 0.23543 0.74137 0.0
C461 C 0.86862 0.23158 0.7723 0.0
C462 C 0.83531 0.22587 0.76652 0.0
C463 C 0.82102 0.23215 0.73505 0.0
O464 O 0.77953 0.21306 0.69848 0.0
O465 O 0.76537 0.23088 0.71889 0.0
O466 O 0.80504 0.23676 0.74255 0.0
O467 O 0.81927 0.21902 0.72209 0.0
H468 H 0.7842 0.25995 0.70289 0.0
H469 H 0.78234 0.28424 0.67977 0.0
H470 H 0.74615 0.24869 0.64543 0.0
H471 H 0.74765 0.22484 0.66885 0.0
H472 H 0.72318 0.15901 0.72863 0.0
H473 H 0.74794 0.18279 0.72658 0.0
H474 H 0.75562 0.13143 0.7705 0.0
H475 H 0.77993 0.15535 0.76861 0.0
H476 H 0.84883 0.22305 0.79309 0.0
H477 H 0.88402 0.23958 0.74793 0.0
H478 H 0.8569 0.23917 0.72701 0.0
H479 H 0.82174 0.22215 0.77185 0.0
C480 C 0.51012 0.55391 0.58862 0.0
C481 C 0.50198 0.53618 0.59046 0.0
C482 C 0.48672 0.54626 0.61918 0.0
C483 C 0.49045 0.53239 0.6056 0.0
C484 C 0.49541 0.56376 0.61756 0.0
C485 C 0.5069 0.56752 0.60248 0.0
U486 U 0.54875 0.54991 0.55062 0.0
O487 O 0.546 0.55532 0.52068 0.0
O488 O 0.56478 0.57268 0.53827 0.0
C489 C 0.55696 0.57011 0.52174 0.0
C490 C 0.52042 0.55929 0.57172 0.0
C491 C 0.55067 0.58695 0.51191 0.0
C492 C 0.53415 0.60082 0.4859 0.0
C493 C 0.53837 0.58534 0.49651 0.0
C494 C 0.55426 0.62 0.5059 0.0
C495 C 0.54221 0.61835 0.4903 0.0
C496 C 0.55849 0.60452 0.51649 0.0
C497 C 0.58568 0.51054 0.55147 0.0
C498 C 0.61886 0.50344 0.55411 0.0
C499 C 0.5988 0.48446 0.53388 0.0
C500 C 0.58352 0.49544 0.53879 0.0
C501 C 0.61667 0.48816 0.54164 0.0
C502 C 0.6036 0.51442 0.559 0.0
C503 C 0.56912 0.52087 0.55838 0.0
O504 O 0.5374 0.56612 0.57426 0.0
O505 O 0.51875 0.54836 0.55684 0.0
O506 O 0.55376 0.51985 0.54815 0.0
O507 O 0.57218 0.53752 0.56582 0.0
H508 H 0.50409 0.52539 0.57997 0.0
H509 H 0.48393 0.5188 0.60629 0.0
H510 H 0.49318 0.57469 0.62787 0.0
H511 H 0.51291 0.58132 0.60139 0.0
H512 H 0.52464 0.59901 0.47414 0.0
H513 H 0.53228 0.57201 0.49236 0.0
H514 H 0.56099 0.63315 0.50959 0.0
H515 H 0.56831 0.60628 0.528 0.0
H516 H 0.63241 0.5069 0.56021 0.0
H517 H 0.59645 0.47269 0.52444 0.0
H518 H 0.56991 0.49177 0.53296 0.0
H519 H 0.6058 0.52575 0.56901 0.0
C520 C 0.51395 0.4733 0.92982 0.0
C521 C 0.52241 0.47585 0.9125 0.0
C522 C 0.49248 0.48424 0.89873 0.0
C523 C 0.51175 0.48119 0.89708 0.0
C524 C 0.48413 0.4817 0.91608 0.0
C525 C 0.49472 0.47625 0.93139 0.0
U526 U 0.55421 0.4783 0.96572 0.0
O527 O 0.55389 0.47523 0.99606 0.0
O528 O 0.5713 0.457 0.97888 0.0
C529 C 0.56475 0.46068 0.99555 0.0
C530 C 0.52458 0.46722 0.94633 0.0
C531 C 0.55873 0.44476 1.00681 0.0
C532 C 0.54706 0.43343 0.03614 0.0
C533 C 0.55206 0.44813 0.02484 0.0
C534 C 0.55561 0.41153 0.01175 0.0
C535 C 0.54875 0.41494 0.02975 0.0
C536 C 0.56054 0.42627 1.0004 0.0
C537 C 0.58956 0.51831 0.96253 0.0
C538 C 0.61766 0.52089 0.98178 0.0
C539 C 0.60965 0.54564 0.96112 0.0
C540 C 0.5936 0.53574 0.95529 0.0
C541 C 0.622 0.53826 0.97428 0.0
C542 C 0.60155 0.51103 0.97598 0.0
C543 C 0.57299 0.50784 0.95565 0.0
O544 O 0.54136 0.46061 0.9435 0.0
O545 O 0.52374 0.47816 0.9612 0.0
O546 O 0.55831 0.50863 0.96637 0.0
O547 O 0.57612 0.49104 0.94895 0.0
H548 H 0.53723 0.4737 0.91083 0.0
H549 H 0.51862 0.48312 0.88394 0.0
H550 H 0.46928 0.48362 0.91778 0.0
H551 H 0.48783 0.47423 0.94452 0.0
H552 H 0.5421 0.43657 0.05001 0.0
H553 H 0.55084 0.4622 0.03031 0.0
H554 H 0.55692 0.39746 1.00634 0.0
H555 H 0.56581 0.42315 0.98665 0.0
H556 H 0.62676 0.51491 0.99208 0.0
H557 H 0.61268 0.55883 0.95487 0.0
H558 H 0.58448 0.54157 0.9449 0.0
H559 H 0.59856 0.49763 0.98182 0.0
C560 C 0.70927 0.26602 0.32762 0.0
C561 C 0.72481 0.26103 0.33833 0.0
C562 C 0.71705 0.28432 0.36223 0.0
C563 C 0.72867 0.27009 0.35547 0.0
C564 C 0.70154 0.28927 0.35132 0.0
C565 C 0.6977 0.28019 0.33422 0.0
U566 U 0.71811 0.22981 0.28833 0.0
O567 O 0.69761 0.21216 0.27274 0.0
O568 O 0.71465 0.23247 0.2581 0.0
C569 C 0.70082 0.22031 0.25695 0.0
C570 C 0.70471 0.25655 0.30968 0.0
C571 C 0.68421 0.2259 0.24628 0.0
C572 C 0.66067 0.24848 0.23833 0.0
C573 C 0.67601 0.24329 0.24922 0.0
C574 C 0.66135 0.21885 0.22173 0.0
C575 C 0.65323 0.23638 0.22432 0.0
C576 C 0.67667 0.2137 0.23258 0.0
C577 C 0.76046 0.19727 0.29091 0.0
C578 C 0.76437 0.16618 0.27751 0.0
C579 C 0.79144 0.18414 0.28809 0.0
C580 C 0.77988 0.19883 0.29328 0.0
C581 C 0.78383 0.16745 0.28049 0.0
C582 C 0.7528 0.18094 0.28265 0.0
C583 C 0.74859 0.21243 0.29809 0.0
O584 O 0.71637 0.25949 0.29608 0.0
O585 O 0.69932 0.2391 0.31056 0.0
O586 O 0.73181 0.20769 0.30365 0.0
O587 O 0.74883 0.22786 0.28876 0.0
H588 H 0.73394 0.25014 0.33344 0.0
H589 H 0.74089 0.26608 0.36334 0.0
H590 H 0.69216 0.29996 0.35614 0.0
H591 H 0.68559 0.28419 0.32617 0.0
H592 H 0.65489 0.26214 0.24062 0.0
H593 H 0.68162 0.25291 0.25976 0.0
H594 H 0.65582 0.20902 0.21135 0.0
H595 H 0.68274 0.20018 0.23017 0.0
H596 H 0.75796 0.15352 0.27185 0.0
H597 H 0.80636 0.18579 0.29029 0.0
H598 H 0.78612 0.21132 0.29952 0.0
H599 H 0.73785 0.17939 0.28059 0.0
C600 C 0.46237 0.08679 0.0209 0.0
C601 C 0.47641 0.09799 0.01341 0.0
C602 C 0.47474 0.11942 0.04012 0.0
C603 C 0.48252 0.11419 0.02293 0.0
C604 C 0.461 0.10784 0.04775 0.0
C605 C 0.45487 0.09169 0.03819 0.0
U606 U 0.46454 0.05183 0.98029 0.0
O607 O 0.45993 0.02154 0.97953 0.0
O608 O 0.44196 0.03931 0.96288 0.0
C609 C 0.44489 0.02253 0.96896 0.0
C610 C 0.45509 0.07027 0.01061 0.0
C611 C 0.42838 0.01182 0.9751 0.0
C612 C 0.39553 1.00936 0.98334 0.0
C613 C 0.41098 0.02012 0.97814 0.0
C614 C 0.41466 0.98197 0.98274 0.0
C615 C 0.39721 0.99015 0.98574 0.0
C616 C 0.43002 0.99266 0.97744 0.0
C617 C 0.50463 0.05698 0.94532 0.0
C618 C 0.50619 0.04517 0.91338 0.0
C619 C 0.53466 0.05333 0.93038 0.0
C620 C 0.52416 0.05849 0.94587 0.0
C621 C 0.52584 0.0466 0.9139 0.0
C622 C 0.49569 0.05024 0.92896 0.0
C623 C 0.49404 0.06271 0.96192 0.0
O624 O 0.44787 0.07337 0.99411 0.0
O625 O 0.46588 0.05569 0.01075 0.0
O626 O 0.49493 0.05152 0.97601 0.0
O627 O 0.47722 0.06922 0.95904 0.0
H628 H 0.48244 0.09433 1.0001 0.0
H629 H 0.49326 0.12268 0.01677 0.0
H630 H 0.45453 0.11157 0.06082 0.0
H631 H 0.44402 0.08319 0.04416 0.0
H632 H 0.38231 0.0161 0.98565 0.0
H633 H 0.40926 0.03487 0.97646 0.0
H634 H 0.4164 0.96717 0.98415 0.0
H635 H 0.44321 0.9859 0.97502 0.0
H636 H 0.49888 0.04026 0.90089 0.0
H637 H 0.54973 0.05433 0.93145 0.0
H638 H 0.53133 0.06361 0.95838 0.0
H639 H 0.48062 0.04893 0.92818 0.0
Zn640 Zn 0.28369 0.8576 0.01019 0.0
Zn641 Zn 0.25567 0.87943 0.01449 0.0
O642 O 0.25631 0.86431 0.03937 0.0
O643 O 0.2818 0.84798 0.03577 0.0
O644 O 0.2343 0.89781 0.01816 0.0
O645 O 0.30175 0.87815 1.00569 0.0
O646 O 0.27878 0.89741 0.01081 0.0
C647 C 0.26814 0.8528 0.04564 0.0
C648 C 0.25592 0.8497 0.98242 0.0
O649 O 0.24805 0.86352 0.99046 0.0
O650 O 0.27132 0.84401 0.9887 0.0
C651 C 0.21712 0.89314 0.01904 0.0
O652 O 0.21247 0.87547 0.01751 0.0
C653 C 0.29596 0.89459 1.00722 0.0
Zn654 Zn 0.11245 0.47266 0.27776 0.0
Zn655 Zn 0.1307 0.50363 0.2723 0.0
O656 O 0.1127 0.51065 0.29408 0.0
O657 O 0.09611 0.48494 0.29657 0.0
O658 O 0.14654 0.52701 0.26908 0.0
O659 O 0.13526 0.45926 0.28588 0.0
O660 O 0.15119 0.48424 0.27852 0.0
C661 C 0.09945 0.5016 0.30162 0.0
C662 C 0.10766 0.48472 0.24048 0.0
O663 O 0.11715 0.49878 0.24664 0.0
O664 O 0.10439 0.47132 0.25102 0.0
C665 C 0.14284 0.54017 0.25822 0.0
O666 O 0.12742 0.53928 0.24814 0.0
C667 C 0.15078 0.46756 0.28407 0.0
Zn668 Zn 0.78166 0.61556 0.97122 0.0
Zn669 Zn 0.77491 0.63392 1.00269 0.0
O670 O 0.79816 0.61797 1.0094 0.0
O671 O 0.80408 0.6039 0.98263 0.0
O672 O 0.77008 0.64928 0.02628 0.0
O673 O 0.78485 0.63898 0.95717 0.0
O674 O 0.77943 0.65449 0.98324 0.0
C675 C 0.80812 0.60696 0.99962 0.0
C676 C 0.74563 0.60639 0.98562 0.0
O677 O 0.75047 0.61831 0.9983 0.0
O678 O 0.75663 0.60272 0.97244 0.0
C679 C 0.76156 0.64295 0.04023 0.0
O680 O 0.75575 0.62558 0.03969 0.0
C681 C 0.7832 0.6543 0.96593 0.0
Zn682 Zn 0.85483 1.0093 0.28358 0.0
Zn683 Zn 0.87599 0.01358 0.25554 0.0
O684 O 0.86202 0.03927 0.25824 0.0
O685 O 0.8458 0.03519 0.28359 0.0
O686 O 0.89248 0.01663 0.23263 0.0
O687 O 0.87609 1.00308 0.30025 0.0
O688 O 0.8952 1.00857 0.27732 0.0
C689 C 0.85086 0.04552 0.2706 0.0
C690 C 0.84489 0.98268 0.25594 0.0
O691 O 0.85887 0.9903 0.24808 0.0
O692 O 0.83962 0.98893 0.27156 0.0
C693 C 0.90638 0.02786 0.23255 0.0
O694 O 0.91023 0.03791 0.24765 0.0
C695 C 0.89255 1.00421 0.29423 0.0
Zn696 Zn 0.2801 0.11302 0.46863 0.0
Zn697 Zn 0.27253 0.13075 0.50033 0.0
O698 O 0.29574 0.1149 0.50736 0.0
O699 O 0.302 0.10093 0.48063 0.0
O700 O 0.26598 0.14492 0.52415 0.0
O701 O 0.28393 0.13701 0.45562 0.0
O702 O 0.27772 0.15196 0.48182 0.0
C703 C 0.3058 0.10389 0.49769 0.0
C704 C 0.24369 0.10367 0.48143 0.0
O705 O 0.24837 0.11514 0.49456 0.0
O706 O 0.25496 0.10026 0.46842 0.0
C707 C 0.27811 0.15323 0.53457 0.0
O708 O 0.2958 0.15241 0.53007 0.0
C709 C 0.28208 0.15214 0.46467 0.0
Zn710 Zn 0.35881 0.50953 0.78701 0.0
Zn711 Zn 0.37973 0.51462 0.75924 0.0
O712 O 0.36435 0.53967 0.76123 0.0
O713 O 0.34782 0.5345 0.78614 0.0
O714 O 0.3976 0.51823 0.73742 0.0
O715 O 0.37959 0.50534 0.80482 0.0
O716 O 0.39851 0.51061 0.78171 0.0
C717 C 0.35241 0.54513 0.77323 0.0
C718 C 0.3503 0.48228 0.75944 0.0
O719 O 0.36366 0.49068 0.75132 0.0
O720 O 0.34515 0.48807 0.77527 0.0
C721 C 0.39309 0.52583 0.72225 0.0
O722 O 0.37596 0.53177 0.72011 0.0
C723 C 0.39601 0.50694 0.79882 0.0
Zn724 Zn 0.78364 0.35612 0.51238 0.0
Zn725 Zn 0.75487 0.37633 0.51752 0.0
O726 O 0.75682 0.36015 0.54175 0.0
O727 O 0.78154 0.34325 0.53627 0.0
O728 O 0.73201 0.39253 0.5226 0.0
O729 O 0.80099 0.37773 0.51098 0.0
O730 O 0.77681 0.39591 0.51436 0.0
C731 C 0.76832 0.34775 0.54685 0.0
C732 C 0.75701 0.34881 0.48356 0.0
O733 O 0.74792 0.36104 0.49281 0.0
O734 O 0.77304 0.34423 0.4892 0.0
C735 C 0.72649 0.40484 0.51145 0.0
O736 O 0.73562 0.40712 0.49594 0.0
C737 C 0.79437 0.39387 0.51212 0.0
Zn738 Zn 0.61015 0.97097 0.77816 0.0
Zn739 Zn 0.62962 1.00182 0.77302 0.0
O740 O 0.61349 1.00824 0.79631 0.0
O741 O 0.59946 0.98159 0.80167 0.0
O742 O 0.64598 0.02489 0.77002 0.0
O743 O 0.63326 0.9556 0.77908 0.0
O744 O 0.64962 0.98146 0.77675 0.0
C745 C 0.60261 0.99844 0.80616 0.0
C746 C 0.60129 0.98732 0.74326 0.0
O747 O 0.61424 0.99882 0.74825 0.0
O748 O 0.59659 0.97441 0.75391 0.0
C749 C 0.64253 0.03823 0.75931 0.0
O750 O 0.62708 0.03774 0.74925 0.0
C751 C 0.64893 0.96389 0.77857 0.0
Zn752 Zn 0.0126 0.28334 0.85921 0.0
Zn753 Zn 0.01577 0.25561 0.88027 0.0
O754 O 0.04042 0.25532 0.8643 0.0
O755 O 0.03429 0.27642 0.84359 0.0
O756 O 0.01906 0.23408 0.89817 0.0
O757 O 0.01558 0.30213 0.87995 0.0
O758 O 0.01333 0.27866 0.8987 0.0
C759 C 0.04488 0.26404 0.84969 0.0
C760 C 0.98103 0.25957 0.8547 0.0
O761 O 0.99086 0.24923 0.86508 0.0
O762 O 0.98696 0.27561 0.85093 0.0
C763 C 0.0176 0.21702 0.8932 0.0
O764 O 0.01372 0.21273 0.8757 0.0
C765 C 0.01427 0.29615 0.89625 0.0
Zn766 Zn 0.50906 0.78319 0.35955 0.0
Zn767 Zn 0.51282 0.75384 0.379 0.0
O768 O 0.53881 0.75677 0.36572 0.0
O769 O 0.536 0.78397 0.35285 0.0
O770 O 0.51576 0.73062 0.3947 0.0
O771 O 0.50016 0.79835 0.38119 0.0
O772 O 0.50681 0.77486 0.39889 0.0
C773 C 0.54581 0.77005 0.35649 0.0
C774 C 0.48376 0.75514 0.34657 0.0
O775 O 0.49024 0.74698 0.36082 0.0
O776 O 0.49041 0.77077 0.34228 0.0
C777 C 0.526 0.73088 0.40935 0.0
O778 O 0.53493 0.74633 0.41422 0.0
C779 C 0.50134 0.79154 0.39717 0.0
Zn780 Zn 0.97375 0.78335 0.61122 0.0
Zn781 Zn 1.00449 0.77705 0.6301 0.0
O782 O 0.01138 0.80021 0.61436 0.0
O783 O 0.98441 0.8068 0.6013 0.0
O784 O 0.02782 0.77276 0.64583 0.0
O785 O 0.95828 0.78416 0.63422 0.0
O786 O 0.98428 0.78123 0.65039 0.0
C787 C 1.00152 0.81059 0.6041 0.0
C788 C 0.98929 0.74824 0.60115 0.0
O789 O 1.00079 0.7525 0.61435 0.0
O790 O 0.97672 0.7595 0.59663 0.0
C791 C 0.04251 0.7654 0.6394 0.0
O792 O 0.0429 0.76042 0.6217 0.0
C793 C 0.96661 0.78338 0.64979 0.0
Zn794 Zn 0.47284 0.28086 0.11307 0.0
Zn795 Zn 0.50424 0.27483 0.13156 0.0
O796 O 0.5112 0.29773 0.11551 0.0
O797 O 0.48471 0.30245 0.10065 0.0
O798 O 0.52746 0.26984 0.14715 0.0
O799 O 0.45852 0.28505 0.13656 0.0
O800 O 0.48449 0.27982 0.15208 0.0
C801 C 0.5016 0.30695 0.10394 0.0
C802 C 0.48724 0.24485 0.10456 0.0
O803 O 0.49999 0.25018 0.11617 0.0
O804 O 0.4739 0.25553 0.10087 0.0
C805 C 0.54408 0.27052 0.14115 0.0
O806 O 0.54685 0.27483 0.12377 0.0
C807 C 0.46715 0.28371 0.15191 0.0
H808 H 0.22247 0.77034 0.89402 0.0
H809 H 0.2208 0.82379 0.8684 0.0
H810 H 0.22926 0.78553 0.92405 0.0
H811 H 0.22761 0.83901 0.89851 0.0
H812 H 0.22729 0.86111 0.95936 0.0
H813 H 0.21611 0.84584 0.93027 0.0
H814 H 0.25561 0.80194 0.9381 0.0
H815 H 0.26644 0.81682 0.96688 0.0
C816 C 0.22364 0.78533 0.89475 0.0
C817 C 0.22126 0.79579 0.87869 0.0
C818 C 0.22748 0.79407 0.91201 0.0
C819 C 0.2291 0.81352 0.91373 0.0
C820 C 0.22624 0.82403 0.89777 0.0
C821 C 0.22239 0.81528 0.88048 0.0
C822 C 0.23339 0.84809 0.95492 0.0
C823 C 0.24779 0.84025 0.96547 0.0
C824 C 0.22709 0.83941 0.9382 0.0
C825 C 0.23494 0.82262 0.93182 0.0
C826 C 0.24902 0.81468 0.94264 0.0
C827 C 0.25535 0.82334 0.95916 0.0
H828 H 0.02975 0.51093 0.39776 0.0
H829 H 0.04067 0.56851 0.38608 0.0
H830 H 0.0489 0.50155 0.37169 0.0
H831 H 0.05913 0.55905 0.35922 0.0
H832 H 0.10671 0.53293 0.32362 0.0
H833 H 0.08822 0.54451 0.34984 0.0
H834 H 0.04722 0.50097 0.3387 0.0
H835 H 0.06574 0.48924 0.31318 0.0
C836 C 0.03625 0.52163 0.38966 0.0
C837 C 0.0336 0.5405 0.39409 0.0
C838 C 0.04707 0.51623 0.37449 0.0
C839 C 0.05544 0.52953 0.36317 0.0
C840 C 0.05298 0.54843 0.36767 0.0
C841 C 0.04218 0.55385 0.38294 0.0
C842 C 0.09368 0.52596 0.32676 0.0
C843 C 0.08784 0.51002 0.31646 0.0
C844 C 0.08306 0.5326 0.34174 0.0
C845 C 0.06636 0.52349 0.34661 0.0
C846 C 0.06024 0.50804 0.33575 0.0
C847 C 0.07085 0.50137 0.32099 0.0
H848 H 0.82261 0.74224 0.89518 0.0
H849 H 0.76557 0.75644 0.90735 0.0
H850 H 0.82042 0.71624 0.91604 0.0
H851 H 0.7636 0.73063 0.92855 0.0
H852 H 0.77339 0.68979 0.97664 0.0
H853 H 0.77695 0.71812 0.95874 0.0
H854 H 0.80237 0.68635 0.91437 0.0
H855 H 0.79884 0.65829 0.93201 0.0
C856 C 0.8096 0.73985 0.90228 0.0
C857 C 0.79421 0.75137 0.89937 0.0
C858 C 0.80838 0.72499 0.91431 0.0
C859 C 0.7918 0.72133 0.92386 0.0
C860 C 0.77663 0.73321 0.92153 0.0
C861 C 0.77779 0.74802 0.90937 0.0
C862 C 0.77982 0.68892 0.96311 0.0
C863 C 0.78579 0.67177 0.95575 0.0
C864 C 0.78178 0.7051 0.95285 0.0
C865 C 0.79001 0.70446 0.93519 0.0
C866 C 0.79619 0.68736 0.92802 0.0
C867 C 0.79404 0.67123 0.93811 0.0
H868 H 0.95651 1.00092 0.39602 0.0
H869 H 0.99349 0.97386 0.35732 0.0
H870 H 0.93496 1.00729 0.37065 0.0
H871 H 0.97171 0.9802 0.33172 0.0
H872 H 0.93068 1.00925 0.28944 0.0
H873 H 0.95558 1.00499 0.31282 0.0
H874 H 0.91439 0.98677 0.35188 0.0
H875 H 0.88992 0.99108 0.32908 0.0
C876 C 0.96005 0.99633 0.38206 0.0
C877 C 0.97657 0.98659 0.37876 0.0
C878 C 0.9477 1.0 0.3675 0.0
C879 C 0.95145 0.99397 0.34918 0.0
C880 C 0.96843 0.98506 0.34565 0.0
C881 C 0.98088 0.98141 0.36032 0.0
C882 C 0.92703 1.00427 0.30301 0.0
C883 C 0.90824 1.00073 0.3074 0.0
C884 C 0.94127 1.0018 0.31637 0.0
C885 C 0.93692 0.99587 0.33434 0.0
C886 C 0.91822 0.99183 0.33838 0.0
C887 C 0.90414 0.99422 0.32518 0.0
H888 H 0.22238 0.19647 0.63343 0.0
H889 H 0.26893 0.23424 0.62629 0.0
H890 H 0.23194 0.17841 0.60625 0.0
H891 H 0.2779 0.21673 0.59847 0.0
H892 H 0.30058 0.17023 0.56119 0.0
H893 H 0.29122 0.188 0.5887 0.0
H894 H 0.23324 0.17903 0.57323 0.0
H895 H 0.24262 0.16078 0.54602 0.0
C896 C 0.23468 0.20095 0.62609 0.0
C897 C 0.24492 0.21682 0.6322 0.0
C898 C 0.24002 0.1907 0.61029 0.0
C899 C 0.25571 0.19607 0.60006 0.0
C900 C 0.26588 0.21201 0.60609 0.0
C901 C 0.26058 0.22222 0.62194 0.0
C902 C 0.28582 0.17201 0.56366 0.0
C903 C 0.27236 0.16402 0.55138 0.0
C904 C 0.28045 0.18234 0.57941 0.0
C905 C 0.26145 0.18504 0.58325 0.0
C906 C 0.24799 0.17704 0.57092 0.0
C907 C 0.25337 0.16663 0.55523 0.0
H908 H 0.48223 0.51489 0.63993 0.0
H909 H 0.46045 0.56988 0.63324 0.0
H910 H 0.45976 0.50946 0.6646 0.0
H911 H 0.43854 0.5647 0.65817 0.0
H912 H 0.38808 0.54272 0.68896 0.0
H913 H 0.41058 0.54702 0.66433 0.0
H914 H 0.45227 0.51891 0.69658 0.0
H915 H 0.42958 0.51435 0.72122 0.0
C916 C 0.47268 0.52583 0.6437 0.0
C917 C 0.47326 0.54285 0.63455 0.0
C918 C 0.45991 0.52278 0.65799 0.0
C919 C 0.44725 0.53662 0.66343 0.0
C920 C 0.44787 0.55362 0.65427 0.0
C921 C 0.46066 0.55668 0.64008 0.0
C922 C 0.40202 0.53741 0.69085 0.0
C923 C 0.40697 0.52822 0.70717 0.0
C924 C 0.41501 0.53999 0.67672 0.0
C925 C 0.43334 0.53342 0.67843 0.0
C926 C 0.43825 0.52402 0.69467 0.0
C927 C 0.42525 0.5215 0.70887 0.0
H928 H 0.73435 0.27857 0.63849 0.0
H929 H 0.79272 0.29099 0.64936 0.0
H930 H 0.73468 0.2995 0.61235 0.0
H931 H 0.79278 0.31248 0.62389 0.0
H932 H 0.79372 0.32501 0.56228 0.0
H933 H 0.79177 0.30813 0.59072 0.0
H934 H 0.73785 0.3318 0.60162 0.0
H935 H 0.73967 0.34879 0.57247 0.0
C936 C 0.74722 0.28585 0.63543 0.0
C937 C 0.76358 0.28283 0.64596 0.0
C938 C 0.74733 0.29807 0.62058 0.0
C939 C 0.7638 0.30756 0.61585 0.0
C940 C 0.7799 0.30518 0.62692 0.0
C941 C 0.77982 0.29297 0.64171 0.0
C942 C 0.7814 0.32678 0.57067 0.0
C943 C 0.76681 0.3383 0.56496 0.0
C944 C 0.78038 0.31715 0.58717 0.0
C945 C 0.76474 0.31867 0.59862 0.0
C946 C 0.75009 0.33026 0.59308 0.0
C947 C 0.75116 0.34007 0.57644 0.0
H948 H 0.5717 0.96973 0.62754 0.0
H949 H 0.52016 0.98783 0.65221 0.0
H950 H 0.58829 0.97706 0.65678 0.0
H951 H 0.53671 0.99475 0.68145 0.0
H952 H 0.56692 0.97352 0.73408 0.0
H953 H 0.55124 0.97299 0.70394 0.0
H954 H 0.59759 1.00303 0.68074 0.0
H955 H 0.61345 1.0037 0.71131 0.0
C956 C 0.56395 0.97559 0.63905 0.0
C957 C 0.54451 0.97791 0.63757 0.0
C958 C 0.57349 0.9798 0.6558 0.0
C959 C 0.56376 0.98631 0.67145 0.0
C960 C 0.54452 0.98948 0.6697 0.0
C961 C 0.53503 0.9854 0.65297 0.0
C962 C 0.57377 0.98018 0.72263 0.0
C963 C 0.59148 0.98859 0.72507 0.0
C964 C 0.56469 0.97998 0.70537 0.0
C965 C 0.57316 0.988 0.68998 0.0
C966 C 0.59078 0.99669 0.69238 0.0
C967 C 0.59979 0.99716 0.70985 0.0
H968 H 0.87916 0.20947 0.80137 0.0
H969 H 0.89485 0.25938 0.77317 0.0
H970 H 0.90535 0.21466 0.82338 0.0
H971 H 0.92102 0.26415 0.79454 0.0
H972 H 0.95215 0.28133 0.84567 0.0
H973 H 0.9245 0.27317 0.82726 0.0
H974 H 0.94098 0.2158 0.82543 0.0
H975 H 0.9689 0.22404 0.84443 0.0
C976 C 0.88818 0.2215 0.79982 0.0
C977 C 0.88486 0.234 0.78545 0.0
C978 C 0.90327 0.22436 0.81233 0.0
C979 C 0.91519 0.23991 0.81085 0.0
C980 C 0.91197 0.25218 0.79631 0.0
C981 C 0.89704 0.24931 0.78386 0.0
C982 C 0.94982 0.2669 0.84158 0.0
C983 C 0.96287 0.25337 0.8463 0.0
C984 C 0.93399 0.26224 0.83091 0.0
C985 C 0.93075 0.24392 0.82444 0.0
C986 C 0.94312 0.23006 0.83014 0.0
C987 C 0.95908 0.23476 0.84103 0.0
H988 H 0.50799 0.87439 0.48617 0.0
H989 H 0.44887 0.86891 0.47427 0.0
H990 H 0.51377 0.84758 0.46553 0.0
H991 H 0.45472 0.84245 0.45353 0.0
H992 H 0.47724 0.82004 0.39739 0.0
H993 H 0.47047 0.84177 0.42265 0.0
H994 H 0.50735 0.81236 0.45914 0.0
H995 H 0.51412 0.79019 0.43353 0.0
C996 C 0.4962 0.8673 0.47945 0.0
C997 C 0.47799 0.87406 0.48164 0.0
C998 C 0.49952 0.85192 0.46764 0.0
C999 C 0.48472 0.84305 0.45774 0.0
C1000 C 0.46645 0.84919 0.46073 0.0
C1001 C 0.46313 0.86444 0.47254 0.0
C1002 C 0.4838 0.81803 0.41083 0.0
C1003 C 0.49625 0.8034 0.41344 0.0
C1004 C 0.47982 0.83045 0.42536 0.0
C1005 C 0.48833 0.82878 0.44292 0.0
C1006 C 0.50063 0.81401 0.44572 0.0
C1007 C 0.5044 0.80127 0.43114 0.0
H1008 H 0.12788 0.29036 0.77126 0.0
H1009 H 0.16023 0.25705 0.80841 0.0
H1010 H 0.10003 0.28399 0.78891 0.0
H1011 H 0.13205 0.25011 0.82598 0.0
H1012 H 0.08036 0.26089 0.86419 0.0
H1013 H 0.10957 0.26269 0.84685 0.0
H1014 H 0.0779 0.26119 0.79523 0.0
H1015 H 0.04905 0.26044 0.81259 0.0
C1016 C 0.12897 0.28137 0.78304 0.0
C1017 C 0.14628 0.27411 0.7883 0.0
C1018 C 0.11293 0.27762 0.79319 0.0
C1019 C 0.11358 0.26627 0.80883 0.0
C1020 C 0.13095 0.259 0.81414 0.0
C1021 C 0.14711 0.26294 0.80404 0.0
C1022 C 0.07978 0.26053 0.84913 0.0
C1023 C 0.06249 0.26063 0.83972 0.0
C1024 C 0.0965 0.2616 0.83915 0.0
C1025 C 0.09619 0.26255 0.81956 0.0
C1026 C 0.07879 0.26116 0.81026 0.0
C1027 C 0.06221 0.26046 0.8202 0.0
H1028 H 0.53729 0.65478 0.50127 0.0
H1029 H 0.53904 0.61912 0.45215 0.0
H1030 H 0.53278 0.68153 0.48179 0.0
H1031 H 0.5345 0.64589 0.43267 0.0
H1032 H 0.50958 0.69635 0.40384 0.0
H1033 H 0.51251 0.66924 0.42333 0.0
H1034 H 0.54975 0.7004 0.46055 0.0
H1035 H 0.54655 0.72746 0.44135 0.0
C1036 C 0.53681 0.65262 0.48631 0.0
C1037 C 0.5386 0.63469 0.47836 0.0
C1038 C 0.53422 0.66801 0.4751 0.0
C1039 C 0.53335 0.66598 0.45558 0.0
C1040 C 0.53484 0.64802 0.44763 0.0
C1041 C 0.53744 0.63261 0.45885 0.0
C1042 C 0.51837 0.69741 0.41619 0.0
C1043 C 0.5278 0.71415 0.42098 0.0
C1044 C 0.52014 0.68182 0.42734 0.0
C1045 C 0.53133 0.68256 0.44362 0.0
C1046 C 0.54076 0.69932 0.44834 0.0
C1047 C 0.53902 0.71486 0.4372 0.0
H1048 H 0.88199 0.81228 0.73005 0.0
H1049 H 0.91828 0.77631 0.76066 0.0
H1050 H 0.90259 0.8102 0.70357 0.0
H1051 H 0.93843 0.77344 0.73368 0.0
H1052 H 0.97925 0.78604 0.68616 0.0
H1053 H 0.96046 0.78969 0.71419 0.0
H1054 H 0.9102 0.78754 0.68028 0.0
H1055 H 0.92879 0.78442 0.65253 0.0
C1056 C 0.89442 0.80402 0.73122 0.0
C1057 C 0.89839 0.79444 0.74755 0.0
C1058 C 0.90614 0.80261 0.71589 0.0
C1059 C 0.9221 0.79148 0.71638 0.0
C1060 C 0.92633 0.78221 0.73283 0.0
C1061 C 0.91462 0.78368 0.74823 0.0
C1062 C 0.96418 0.78636 0.68474 0.0
C1063 C 0.95556 0.78506 0.66707 0.0
C1064 C 0.95341 0.78837 0.7008 0.0
C1065 C 0.9338 0.7891 0.69951 0.0
C1066 C 0.92526 0.78749 0.68183 0.0
C1067 C 0.93596 0.78556 0.66586 0.0
H1068 H 0.01692 0.89215 0.52061 0.0
H1069 H 0.0671 0.9002 0.55401 0.0
H1070 H 1.00701 0.86734 0.54056 0.0
H1071 H 0.05664 0.87592 0.57464 0.0
H1072 H 0.0385 0.81793 0.59648 0.0
H1073 H 0.05082 0.84268 0.57715 0.0
H1074 H 0.99523 0.8644 0.57115 0.0
H1075 H 0.98301 0.83964 0.58982 0.0
C1076 C 0.02592 0.88859 0.53215 0.0
C1077 C 0.04281 0.89829 0.53566 0.0
C1078 C 0.02009 0.8745 0.5438 0.0
C1079 C 0.03089 0.86976 0.55941 0.0
C1080 C 0.04799 0.87915 0.56274 0.0
C1081 C 0.05387 0.89324 0.55101 0.0
C1082 C 0.02901 0.82813 0.59116 0.0
C1083 C 1.00976 0.82668 0.59451 0.0
C1084 C 0.03604 0.84232 0.5801 0.0
C1085 C 0.02396 0.85536 0.57227 0.0
C1086 C 1.00488 0.85432 0.57644 0.0
C1087 C 0.99788 0.84016 0.58731 0.0
H1088 H 0.11721 0.73743 0.73108 0.0
H1089 H 0.15419 0.75205 0.6867 0.0
H1090 H 0.09033 0.74436 0.7114 0.0
H1091 H 0.12737 0.75908 0.66708 0.0
H1092 H 0.07551 0.7491 0.63023 0.0
H1093 H 0.10223 0.74337 0.65043 0.0
H1094 H 0.07366 0.76904 0.69671 0.0
H1095 H 0.04671 0.77442 0.67655 0.0
C1096 C 0.11963 0.74236 0.71721 0.0
C1097 C 0.13789 0.74408 0.71046 0.0
C1098 C 0.10419 0.74634 0.70591 0.0
C1099 C 0.10662 0.75219 0.68757 0.0
C1100 C 0.12492 0.75425 0.68097 0.0
C1101 C 0.14033 0.75024 0.69225 0.0
C1102 C 0.0749 0.75356 0.64471 0.0
C1103 C 0.05892 0.76222 0.65173 0.0
C1104 C 0.09031 0.75037 0.65629 0.0
C1105 C 0.09019 0.75578 0.67523 0.0
C1106 C 0.07419 0.76448 0.68226 0.0
C1107 C 0.05876 0.76767 0.67066 0.0
H1108 H 0.99899 0.63313 0.55782 0.0
H1109 H 0.94943 0.65647 0.53367 0.0
H1110 H 1.00618 0.66289 0.57375 0.0
H1111 H 0.95614 0.68581 0.54985 0.0
H1112 H 0.97938 0.74118 0.56526 0.0
H1113 H 0.97661 0.71135 0.549 0.0
H1114 H 0.99688 0.68423 0.59805 0.0
H1115 H 1.00051 0.71454 0.61409 0.0
C1116 C 0.98959 0.64459 0.55603 0.0
C1117 C 0.97377 0.64256 0.54432 0.0
C1118 C 0.99366 0.66162 0.56518 0.0
C1119 C 0.9819 0.6769 0.56293 0.0
C1120 C 0.96587 0.6746 0.55152 0.0
C1121 C 0.96194 0.65773 0.54226 0.0
C1122 C 0.98345 0.72887 0.57252 0.0
C1123 C 0.98996 0.73015 0.59101 0.0
C1124 C 0.98171 0.7117 0.56325 0.0
C1125 C 0.98605 0.69524 0.57233 0.0
C1126 C 0.99343 0.69659 0.59059 0.0
C1127 C 0.99548 0.71393 0.59981 0.0
H1128 H 0.79592 0.88668 0.19294 0.0
H1129 H 0.78725 0.87734 0.25129 0.0
H1130 H 0.81184 0.91612 0.20091 0.0
H1131 H 0.80296 0.90667 0.25916 0.0
H1132 H 0.81171 0.9681 0.26666 0.0
H1133 H 0.79656 0.93939 0.25619 0.0
H1134 H 0.84031 0.93012 0.21646 0.0
H1135 H 0.8556 0.95938 0.22689 0.0
C1136 C 0.79752 0.8908 0.20747 0.0
C1137 C 0.7901 0.87965 0.22146 0.0
C1138 C 0.80666 0.90769 0.21202 0.0
C1139 C 0.80853 0.91388 0.23066 0.0
C1140 C 0.80142 0.90255 0.24463 0.0
C1141 C 0.79235 0.88571 0.2401 0.0
C1142 C 0.81815 0.96007 0.25561 0.0
C1143 C 0.83503 0.96601 0.24776 0.0
C1144 C 0.80947 0.94349 0.24968 0.0
C1145 C 0.81737 0.93223 0.23573 0.0
C1146 C 0.83385 0.93847 0.22725 0.0
C1147 C 0.84262 0.95522 0.23322 0.0
H1148 H 0.78198 0.14171 0.25135 0.0
H1149 H 0.81325 0.15587 0.30164 0.0
H1150 H 0.80026 0.11344 0.24746 0.0
H1151 H 0.83175 0.12815 0.29738 0.0
H1152 H 0.8377 0.06514 0.30004 0.0
H1153 H 0.8234 0.09534 0.30067 0.0
H1154 H 0.83275 0.10012 0.24181 0.0
H1155 H 0.84728 0.06933 0.24113 0.0
C1156 C 0.79284 0.13892 0.26147 0.0
C1157 C 0.796 0.15108 0.27689 0.0
C1158 C 0.80346 0.12283 0.2591 0.0
C1159 C 0.8174 0.11847 0.27216 0.0
C1160 C 0.82101 0.13099 0.28715 0.0
C1161 C 0.81047 0.14702 0.28949 0.0
C1162 C 0.83688 0.07259 0.28717 0.0
C1163 C 0.84362 0.06474 0.2705 0.0
C1164 C 0.82876 0.09004 0.28759 0.0
C1165 C 0.82698 0.10023 0.27132 0.0
C1166 C 0.83387 0.09256 0.25457 0.0
C1167 C 0.84229 0.07502 0.2542 0.0
H1168 H 0.3965 0.96275 0.01119 0.0
H1169 H 0.36103 0.99109 0.97249 0.0
H1170 H 0.37099 0.94134 0.01772 0.0
H1171 H 0.33537 0.9695 0.97901 0.0
H1172 H 0.28968 0.93242 1.00657 0.0
H1173 H 0.31309 0.9573 1.00294 0.0
H1174 H 0.35633 0.91634 0.99907 0.0
H1175 H 0.33341 0.89186 1.00281 0.0
C1176 C 0.38323 0.96443 1.00409 0.0
C1177 C 0.38092 0.97845 0.99109 0.0
C1178 C 0.36858 0.95217 1.00784 0.0
C1179 C 0.3512 0.95352 0.99867 0.0
C1180 C 0.34854 0.96813 0.98637 0.0
C1181 C 0.36326 0.98047 0.98262 0.0
C1182 C 0.3042 0.9288 1.005 0.0
C1183 C 0.30961 0.91011 1.00504 0.0
C1184 C 0.31759 0.94303 1.00285 0.0
C1185 C 0.33662 0.93882 1.00093 0.0
C1186 C 0.34189 0.92014 1.00091 0.0
C1187 C 0.32863 0.90605 1.00291 0.0
H1188 H 0.26388 0.42382 0.30014 0.0
H1189 H 0.22671 0.3767 0.29114 0.0
H1190 H 0.23737 0.4447 0.29788 0.0
H1191 H 0.20038 0.39739 0.28857 0.0
H1192 H 0.15435 0.4359 0.3034 0.0
H1193 H 0.18193 0.41724 0.30742 0.0
H1194 H 0.21426 0.45672 0.27659 0.0
H1195 H 0.18653 0.47585 0.27306 0.0
C1196 C 0.25007 0.41794 0.29756 0.0
C1197 C 0.24737 0.39859 0.296 0.0
C1198 C 0.23488 0.42989 0.29622 0.0
C1199 C 0.21667 0.42276 0.29321 0.0
C1200 C 0.2141 0.40341 0.29136 0.0
C1201 C 0.22922 0.3915 0.29281 0.0
C1202 C 0.16736 0.44072 0.29757 0.0
C1203 C 0.16819 0.4573 0.28776 0.0
C1204 C 0.18319 0.42991 0.29977 0.0
C1205 C 0.2003 0.43525 0.29205 0.0
C1206 C 0.20134 0.4522 0.28279 0.0
C1207 C 0.18545 0.46316 0.28072 0.0
H1208 H 0.15369 0.02197 0.47136 0.0
H1209 H 0.12533 0.07438 0.47501 0.0
H1210 H 0.18352 0.03798 0.47679 0.0
H1211 H 0.15535 0.09047 0.48004 0.0
H1212 H 0.21326 0.11055 0.50352 0.0
H1213 H 0.18288 0.09438 0.50232 0.0
H1214 H 0.20224 0.05893 0.4575 0.0
H1215 H 0.23232 0.07482 0.45868 0.0
C1216 C 0.15378 0.03689 0.47357 0.0
C1217 C 0.13712 0.04689 0.47266 0.0
C1218 C 0.17091 0.04608 0.47651 0.0
C1219 C 0.17181 0.06551 0.47868 0.0
C1220 C 0.1551 0.07549 0.47849 0.0
C1221 C 0.13794 0.06629 0.47543 0.0
C1222 C 0.21102 0.09926 0.49347 0.0
C1223 C 0.22524 0.094 0.4812 0.0
C1224 C 0.19361 0.09007 0.49274 0.0
C1225 C 0.19021 0.0753 0.47989 0.0
C1226 C 0.20449 0.07004 0.46774 0.0
C1227 C 0.22173 0.07928 0.46835 0.0
H1228 H 0.71674 0.12627 0.72153 0.0
H1229 H 0.72426 0.12714 0.78123 0.0
H1230 H 0.69352 0.10135 0.72382 0.0
H1231 H 0.70114 0.10225 0.7835 0.0
H1232 H 0.67557 0.04375 0.77839 0.0
H1233 H 0.69785 0.06938 0.77592 0.0
H1234 H 0.66222 0.09432 0.73493 0.0
H1235 H 0.64004 0.0685 0.73717 0.0
C1236 C 0.7133 0.12131 0.73516 0.0
C1237 C 0.7225 0.12867 0.75118 0.0
C1238 C 0.69998 0.107 0.73648 0.0
C1239 C 0.69552 0.09967 0.75384 0.0
C1240 C 0.70448 0.10727 0.76986 0.0
C1241 C 0.71776 0.12157 0.76855 0.0
C1242 C 0.67245 0.0547 0.76886 0.0
C1243 C 0.65598 0.05403 0.75799 0.0
C1244 C 0.68519 0.06947 0.76752 0.0
C1245 C 0.68184 0.08398 0.75526 0.0
C1246 C 0.66537 0.08331 0.74437 0.0
C1247 C 0.65259 0.06853 0.74574 0.0
H1248 H 0.41362 0.05433 0.51875 0.0
H1249 H 0.37754 0.02986 0.5593 0.0
H1250 H 0.38831 0.07415 0.50882 0.0
H1251 H 0.35198 0.04951 0.54903 0.0
H1252 H 0.31539 0.1004 0.53477 0.0
H1253 H 0.34168 0.08306 0.54757 0.0
H1254 H 0.35867 0.06811 0.49187 0.0
H1255 H 0.33284 0.08527 0.47919 0.0
C1256 C 0.40033 0.05328 0.52566 0.0
C1257 C 0.3976 0.04045 0.53977 0.0
C1258 C 0.38577 0.06456 0.51988 0.0
C1259 C 0.36811 0.06335 0.52808 0.0
C1260 C 0.36546 0.05086 0.54252 0.0
C1261 C 0.38003 0.03946 0.54824 0.0
C1262 C 0.32484 0.0935 0.52531 0.0
C1263 C 0.32197 0.09423 0.50596 0.0
C1264 C 0.3398 0.08349 0.53263 0.0
C1265 C 0.3523 0.07428 0.52072 0.0
C1266 C 0.34949 0.07525 0.50143 0.0
C1267 C 0.33455 0.08503 0.49416 0.0
H1268 H 0.64439 0.47639 0.56517 0.0
H1269 H 0.62555 0.47183 0.50793 0.0
H1270 H 0.67064 0.45645 0.55792 0.0
H1271 H 0.65142 0.45132 0.50084 0.0
H1272 H 0.71107 0.43177 0.49022 0.0
H1273 H 0.68483 0.45166 0.4975 0.0
H1274 H 0.67832 0.4247 0.54996 0.0
H1275 H 0.70486 0.40496 0.54279 0.0
C1276 C 0.64585 0.4712 0.55101 0.0
C1277 C 0.63279 0.47586 0.53714 0.0
C1278 C 0.66082 0.45953 0.54689 0.0
C1279 C 0.66323 0.45217 0.52878 0.0
C1280 C 0.65018 0.45683 0.51491 0.0
C1281 C 0.63518 0.46847 0.51903 0.0
C1282 C 0.70406 0.43003 0.50332 0.0
C1283 C 0.71016 0.41671 0.51591 0.0
C1284 C 0.68889 0.44141 0.50745 0.0
C1285 C 0.67935 0.43985 0.52433 0.0
C1286 C 0.68543 0.42649 0.53693 0.0
C1287 C 0.70061 0.41507 0.53276 0.0
H1288 H 0.71394 0.32141 0.37161 0.0
H1289 H 0.72901 0.26886 0.39458 0.0
H1290 H 0.72163 0.33701 0.40138 0.0
H1291 H 0.73669 0.28442 0.4242 0.0
H1292 H 0.77236 0.32035 0.46389 0.0
H1293 H 0.7613 0.30526 0.43537 0.0
H1294 H 0.71324 0.3407 0.43485 0.0
H1295 H 0.72459 0.35628 0.46375 0.0
C1296 C 0.71868 0.31313 0.38305 0.0
C1297 C 0.72105 0.29386 0.38058 0.0
C1298 C 0.72304 0.3221 0.40014 0.0
C1299 C 0.72993 0.31202 0.41517 0.0
C1300 C 0.73177 0.29269 0.41283 0.0
C1301 C 0.72742 0.28375 0.3958 0.0
C1302 C 0.75938 0.32502 0.45785 0.0
C1303 C 0.74937 0.3396 0.46623 0.0
C1304 C 0.75296 0.31619 0.44147 0.0
C1305 C 0.73629 0.32161 0.43284 0.0
C1306 C 0.72619 0.33624 0.44111 0.0
C1307 C 0.73263 0.3451 0.4577 0.0
H1308 H 0.55797 0.06272 0.90076 0.0
H1309 H 0.51939 0.01698 0.88989 0.0
H1310 H 0.57736 0.05175 0.87521 0.0
H1311 H 0.53814 1.00668 0.86383 0.0
H1312 H 0.58522 0.97969 0.8334 0.0
H1313 H 0.56727 0.99208 0.85907 0.0
H1314 H 0.57935 0.04783 0.8417 0.0
H1315 H 0.59795 0.0353 0.81604 0.0
C1316 C 0.55357 0.05036 0.89291 0.0
C1317 C 0.53713 0.04067 0.89754 0.0
C1318 C 0.56459 0.04421 0.87809 0.0
C1319 C 0.55945 0.02823 0.86751 0.0
C1320 C 0.54277 0.01884 0.87186 0.0
C1321 C 0.53182 0.02493 0.88669 0.0
C1322 C 0.58416 0.99462 0.83504 0.0
C1323 C 0.59293 1.0065 0.82254 0.0
C1324 C 0.57371 1.00173 0.84973 0.0
C1325 C 0.57154 0.02096 0.85232 0.0
C1326 C 0.58077 0.03294 0.84017 0.0
C1327 C 0.5914 0.02577 0.82544 0.0
H1328 H 0.26639 0.25588 0.4085 0.0
H1329 H 0.32339 0.2414 0.39649 0.0
H1330 H 0.26394 0.22958 0.42903 0.0
H1331 H 0.32073 0.21493 0.41671 0.0
H1332 H 0.2985 0.15681 0.43122 0.0
H1333 H 0.30261 0.18525 0.41433 0.0
H1334 H 0.27662 0.21621 0.45892 0.0
H1335 H 0.27243 0.18749 0.47604 0.0
C1336 C 0.27849 0.24729 0.41043 0.0
C1337 C 0.29505 0.25072 0.40066 0.0
C1338 C 0.27706 0.2322 0.42221 0.0
C1339 C 0.29209 0.22011 0.42439 0.0
C1340 C 0.30881 0.22384 0.41508 0.0
C1341 C 0.31029 0.23897 0.40342 0.0
C1342 C 0.2937 0.16966 0.43753 0.0
C1343 C 0.28508 0.16984 0.45499 0.0
C1344 C 0.29619 0.186 0.42787 0.0
C1345 C 0.29001 0.203 0.43531 0.0
C1346 C 0.28145 0.20329 0.45281 0.0
C1347 C 0.27913 0.18688 0.46264 0.0
H1348 H 0.46569 0.51073 0.8981 0.0
H1349 H 0.49308 0.47058 0.86265 0.0
H1350 H 0.44425 0.5177 0.87278 0.0
H1351 H 0.47143 0.47754 0.83718 0.0
H1352 H 0.434 0.50549 0.79198 0.0
H1353 H 0.45932 0.50164 0.81498 0.0
H1354 H 0.41865 0.49936 0.85863 0.0
H1355 H 0.39379 0.5033 0.83616 0.0
C1356 C 0.46717 0.50342 0.88486 0.0
C1357 C 0.4809 0.48987 0.88251 0.0
C1358 C 0.45489 0.50743 0.87033 0.0
C1359 C 0.45593 0.49796 0.85303 0.0
C1360 C 0.4703 0.48512 0.8503 0.0
C1361 C 0.48268 0.48112 0.8649 0.0
C1362 C 0.43055 0.50423 0.80651 0.0
C1363 C 0.41183 0.50475 0.81217 0.0
C1364 C 0.44503 0.50196 0.81965 0.0
C1365 C 0.44102 0.50041 0.83868 0.0
C1366 C 0.42231 0.5009 0.84419 0.0
C1367 C 0.40799 0.50302 0.83118 0.0
H1368 H 0.73301 0.73436 0.11625 0.0
H1369 H 0.7438 0.68852 0.15209 0.0
H1370 H 0.74056 0.71491 0.08918 0.0
H1371 H 0.75144 0.66912 0.1251 0.0
H1372 H 0.74291 0.63398 0.07177 0.0
H1373 H 0.7364 0.65388 0.0987 0.0
H1374 H 0.76572 0.69929 0.07342 0.0
H1375 H 0.77189 0.67945 0.04624 0.0
C1376 C 0.73721 0.7202 0.11838 0.0
C1377 C 0.73769 0.713 0.13637 0.0
C1378 C 0.74155 0.70903 0.10285 0.0
C1379 C 0.74653 0.69037 0.10489 0.0
C1380 C 0.74731 0.68329 0.12292 0.0
C1381 C 0.74294 0.69444 0.13843 0.0
C1382 C 0.74801 0.6482 0.07193 0.0
C1383 C 0.75793 0.65508 0.0568 0.0
C1384 C 0.74436 0.65961 0.08746 0.0
C1385 C 0.75057 0.67823 0.08832 0.0
C1386 C 0.76053 0.68511 0.07318 0.0
C1387 C 0.76417 0.67368 0.05762 0.0
H1388 H 0.9984 0.04296 0.15541 0.0
H1389 H 0.9495 0.0375 0.11983 0.0
H1390 H 0.97905 0.03843 0.18258 0.0
H1391 H 0.93014 0.03301 0.147 0.0
H1392 H 0.90293 1.00907 0.19882 0.0
H1393 H 0.92256 0.01209 0.17151 0.0
H1394 H 0.95601 0.05404 0.20081 0.0
H1395 H 0.93669 0.05075 0.22813 0.0
C1396 C 0.98351 0.04089 0.15336 0.0
C1397 C 0.97559 0.04065 0.13534 0.0
C1398 C 0.97237 0.0383 0.16898 0.0
C1399 C 0.95294 0.03541 0.16709 0.0
C1400 C 0.94505 0.03492 0.14905 0.0
C1401 C 0.9562 0.0375 0.13342 0.0
C1402 C 0.91449 0.01892 0.19944 0.0
C1403 C 0.91819 0.02965 0.21574 0.0
C1404 C 0.92572 0.02073 0.18372 0.0
C1405 C 0.94097 0.0333 0.18387 0.0
C1406 C 0.94462 0.044 0.2002 0.0
C1407 C 0.93341 0.0422 0.21588 0.0
H1408 H 0.28847 0.77325 0.12878 0.0
H1409 H 0.24042 0.80043 0.1519 0.0
H1410 H 0.28824 0.79433 0.10305 0.0
H1411 H 0.24031 0.82191 0.12609 0.0
H1412 H 0.23628 0.84319 0.06463 0.0
H1413 H 0.23476 0.82456 0.09273 0.0
H1414 H 0.29501 0.82563 0.09658 0.0
H1415 H 0.29643 0.84341 0.06848 0.0
C1416 C 0.278 0.78393 0.12853 0.0
C1417 C 0.2646 0.78523 0.14256 0.0
C1418 C 0.27786 0.7961 0.11373 0.0
C1419 C 0.26439 0.81008 0.11253 0.0
C1420 C 0.25082 0.81128 0.12646 0.0
C1421 C 0.25091 0.79898 0.14129 0.0
C1422 C 0.24912 0.83965 0.07172 0.0
C1423 C 0.26646 0.84454 0.06423 0.0
C1424 C 0.24829 0.82897 0.08781 0.0
C1425 C 0.26479 0.82317 0.09674 0.0
C1426 C 0.28202 0.82925 0.08981 0.0
C1427 C 0.28284 0.83961 0.07375 0.0
H1428 H 0.03154 0.45431 0.15222 0.0
H1429 H 0.06707 0.49343 0.12452 0.0
H1430 H 0.04917 0.45978 0.18098 0.0
H1431 H 0.08507 0.4988 0.1535 0.0
H1432 H 0.10107 0.51329 0.21647 0.0
H1433 H 0.08426 0.51104 0.18644 0.0
H1434 H 0.08007 0.45157 0.19141 0.0
H1435 H 0.09626 0.45381 0.22115 0.0
C1436 C 0.0432 0.46405 0.15228 0.0
C1437 C 0.0481 0.4732 0.13603 0.0
C1438 C 0.05334 0.46718 0.16876 0.0
C1439 C 0.06879 0.47945 0.16946 0.0
C1440 C 0.07325 0.48926 0.15342 0.0
C1441 C 0.06297 0.48618 0.13685 0.0
C1442 C 0.0967 0.49976 0.21098 0.0
C1443 C 0.09974 0.48377 0.22133 0.0
C1444 C 0.08709 0.49846 0.19381 0.0
C1445 C 0.08045 0.48116 0.18674 0.0
C1446 C 0.08446 0.46517 0.19669 0.0
C1447 C 0.09387 0.46646 0.21374 0.0
H1448 H 0.37158 0.73456 0.30545 0.0
H1449 H 0.40535 0.72317 0.2573 0.0
H1450 H 0.39983 0.73701 0.3249 0.0
H1451 H 0.43346 0.72571 0.27668 0.0
H1452 H 0.47602 0.76211 0.31051 0.0
H1453 H 0.44873 0.75268 0.29211 0.0
H1454 H 0.4282 0.72101 0.33787 0.0
H1455 H 0.45589 0.73061 0.35655 0.0
C1456 C 0.38498 0.73222 0.29906 0.0
C1457 C 0.38617 0.72897 0.27972 0.0
C1458 C 0.40117 0.73359 0.31023 0.0
C1459 C 0.41893 0.73177 0.30232 0.0
C1460 C 0.42003 0.72754 0.28317 0.0
C1461 C 0.4039 0.72615 0.27204 0.0
C1462 C 0.46584 0.75293 0.31665 0.0
C1463 C 0.46812 0.74715 0.33504 0.0
C1464 C 0.45021 0.74742 0.30601 0.0
C1465 C 0.43625 0.73607 0.31348 0.0
C1466 C 0.43867 0.72985 0.33176 0.0
C1467 C 0.45457 0.73521 0.34239 0.0
H1468 H 0.99599 0.36481 0.99803 0.0
H1469 H 0.97937 0.39598 0.95026 0.0
H1470 H 1.00597 0.33938 0.97731 0.0
H1471 H 0.98871 0.37057 0.92978 0.0
H1472 H 0.02413 0.33263 0.8964 0.0
H1473 H 0.01745 0.35648 0.91969 0.0
H1474 H 0.99322 0.31512 0.95478 0.0
H1475 H 1.00028 0.29093 0.93135 0.0
C1476 C 0.99448 0.36625 0.98314 0.0
C1477 C 0.98685 0.38246 0.97582 0.0
C1478 C 1.00004 0.35162 0.97129 0.0
C1479 C 0.99827 0.35297 0.95187 0.0
C1480 C 0.99056 0.36914 0.94464 0.0
C1481 C 0.98496 0.38366 0.95642 0.0
C1482 C 0.01756 0.32851 0.90915 0.0
C1483 C 0.01253 0.30987 0.91189 0.0
C1484 C 0.01363 0.34224 0.92249 0.0
C1485 C 1.00443 0.3378 0.93894 0.0
C1486 C 1.00031 0.31901 0.94224 0.0
C1487 C 1.00435 0.30516 0.92883 0.0
H1488 H 0.65831 0.79595 0.31938 0.0
H1489 H 0.6336 0.75962 0.27683 0.0
H1490 H 0.63171 0.79031 0.33929 0.0
H1491 H 0.60706 0.75374 0.29701 0.0
H1492 H 0.566 0.73989 0.34424 0.0
H1493 H 0.59609 0.74069 0.32809 0.0
H1494 H 0.5987 0.80023 0.33609 0.0
H1495 H 0.56894 0.79943 0.35187 0.0
C1496 C 0.64725 0.7867 0.31427 0.0
C1497 C 0.648 0.77853 0.2963 0.0
C1498 C 0.63203 0.78338 0.32575 0.0
C1499 C 0.61717 0.77171 0.31969 0.0
C1500 C 0.61835 0.76269 0.30216 0.0
C1501 C 0.63358 0.7661 0.29058 0.0
C1502 C 0.57325 0.75305 0.34283 0.0
C1503 C 0.56512 0.7696 0.34931 0.0
C1504 C 0.59036 0.75354 0.33346 0.0
C1505 C 0.59979 0.77053 0.3308 0.0
C1506 C 0.59195 0.78689 0.33805 0.0
C1507 C 0.57483 0.78644 0.34704 0.0
H1508 H 0.02152 0.14604 0.99069 0.0
H1509 H 0.05003 0.11552 0.9474 0.0
H1510 H 0.01611 0.17125 0.96931 0.0
H1511 H 0.04464 0.1406 0.92613 0.0
H1512 H 0.01529 0.17946 0.88688 0.0
H1513 H 0.02013 0.15486 0.90887 0.0
H1514 H 0.0315 0.19584 0.95258 0.0
H1515 H 0.02629 0.22055 0.93056 0.0
C1516 C 0.02675 0.14473 0.97667 0.0
C1517 C 0.03609 0.12859 0.9708 0.0
C1518 C 0.02366 0.15922 0.96438 0.0
C1519 C 0.02982 0.158 0.94588 0.0
C1520 C 0.03931 0.14194 0.94011 0.0
C1521 C 0.0424 0.12749 0.95236 0.0
C1522 C 0.0188 0.18328 0.90117 0.0
C1523 C 0.02043 0.20206 0.90687 0.0
C1524 C 0.0217 0.16912 0.91381 0.0
C1525 C 0.02633 0.17326 0.93256 0.0
C1526 C 0.02778 0.19206 0.93833 0.0
C1527 C 0.02489 0.20627 0.92565 0.0
H1528 H 0.39533 0.32417 0.24039 0.0
H1529 H 0.40935 0.26848 0.2558 0.0
H1530 H 0.41597 0.32155 0.21382 0.0
H1531 H 0.43031 0.2661 0.22941 0.0
H1532 H 0.47801 0.27534 0.18754 0.0
H1533 H 0.46 0.27948 0.21608 0.0
H1534 H 0.41496 0.3028 0.18427 0.0
H1535 H 0.43276 0.29874 0.15598 0.0
C1536 C 0.40278 0.31136 0.23814 0.0
C1537 C 0.40048 0.29648 0.2502 0.0
C1538 C 0.41468 0.3099 0.22294 0.0
C1539 C 0.4247 0.29359 0.21947 0.0
C1540 C 0.42293 0.27892 0.23183 0.0
C1541 C 0.41091 0.28032 0.24698 0.0
C1542 C 0.46431 0.28144 0.1867 0.0
C1543 C 0.45682 0.28667 0.16947 0.0
C1544 C 0.45397 0.28372 0.20301 0.0
C1545 C 0.43608 0.29152 0.20242 0.0
C1546 C 0.42878 0.29697 0.18524 0.0
C1547 C 0.43897 0.29451 0.16898 0.0
H1548 H 0.51794 0.41272 0.05158 0.0
H1549 H 0.56652 0.38188 0.03508 0.0
H1550 H 0.50801 0.38722 0.07077 0.0
H1551 H 0.55622 0.356 0.05399 0.0
H1552 H 0.53813 0.31999 0.10407 0.0
H1553 H 0.55063 0.3464 0.087 0.0
H1554 H 0.49569 0.35602 0.06413 0.0
H1555 H 0.48329 0.33018 0.08107 0.0
C1556 C 0.52659 0.40054 0.05214 0.0
C1557 C 0.54301 0.39935 0.04173 0.0
C1558 C 0.5208 0.38584 0.06304 0.0
C1559 C 0.53126 0.36951 0.06383 0.0
C1560 C 0.54791 0.36843 0.05377 0.0
C1561 C 0.55369 0.38316 0.04276 0.0
C1562 C 0.52876 0.32782 0.09545 0.0
C1563 C 0.50969 0.32296 0.09404 0.0
C1564 C 0.53592 0.34287 0.0856 0.0
C1565 C 0.52411 0.3534 0.07432 0.0
C1566 C 0.50512 0.34845 0.07294 0.0
C1567 C 0.49803 0.33348 0.08262 0.0
H1568 H 0.62207 0.25595 0.23428 0.0
H1569 H 0.6482 0.22961 0.18689 0.0
H1570 H 0.59606 0.26501 0.21439 0.0
H1571 H 0.62189 0.23793 0.16725 0.0
H1572 H 0.58132 0.27152 0.13307 0.0
H1573 H 0.6076 0.26411 0.15326 0.0
H1574 H 0.56948 0.25189 0.19747 0.0
H1575 H 0.54321 0.25972 0.17741 0.0
C1576 C 0.62231 0.25211 0.21963 0.0
C1577 C 0.63727 0.242 0.21224 0.0
C1578 C 0.60727 0.25713 0.20825 0.0
C1579 C 0.60681 0.25219 0.18918 0.0
C1580 C 0.62182 0.24217 0.1818 0.0
C1581 C 0.63683 0.23717 0.19315 0.0
C1582 C 0.57852 0.2673 0.14711 0.0
C1583 C 0.56011 0.2662 0.15357 0.0
C1584 C 0.59361 0.26293 0.15868 0.0
C1585 C 0.59072 0.25732 0.17702 0.0
C1586 C 0.5723 0.25637 0.18353 0.0
C1587 C 0.5572 0.26076 0.17196 0.0
H1588 H 0.48018 0.15298 0.02415 0.0
H1589 H 0.48099 0.12668 0.07741 0.0
H1590 H 0.48591 0.18303 0.03961 0.0
H1591 H 0.48627 0.15695 0.09294 0.0
H1592 H 0.50927 0.21496 0.1127 0.0
H1593 H 0.50883 0.18428 0.09701 0.0
H1594 H 0.46572 0.20247 0.05945 0.0
H1595 H 0.46614 0.23278 0.07486 0.0
C1596 C 0.48187 0.15356 0.03914 0.0
C1597 C 0.48001 0.13742 0.04954 0.0
C1598 C 0.48498 0.17081 0.04802 0.0
C1599 C 0.48636 0.17238 0.06751 0.0
C1600 C 0.48534 0.15618 0.0779 0.0
C1601 C 0.48213 0.13888 0.06901 0.0
C1602 C 0.4998 0.21239 0.10103 0.0
C1603 C 0.48773 0.22633 0.09507 0.0
C1604 C 0.49949 0.19483 0.0921 0.0
C1605 C 0.48732 0.191 0.07691 0.0
C1606 C 0.47546 0.20504 0.07091 0.0
C1607 C 0.47562 0.22241 0.07988 0.0
H1608 H 0.29328 0.37657 0.75428 0.0
H1609 H 0.30195 0.38627 0.69601 0.0
H1610 H 0.30911 0.4058 0.76233 0.0
H1611 H 0.31793 0.41564 0.70414 0.0
H1612 H 0.36132 0.45922 0.73025 0.0
H1613 H 0.34632 0.42982 0.71969 0.0
H1614 H 0.30255 0.43843 0.75956 0.0
H1615 H 0.31741 0.4672 0.77014 0.0
C1616 C 0.29842 0.385 0.74315 0.0
C1617 C 0.29613 0.37908 0.72448 0.0
C1618 C 0.30755 0.40179 0.74777 0.0
C1619 C 0.31466 0.4132 0.73387 0.0
C1620 C 0.31276 0.40714 0.7152 0.0
C1621 C 0.30358 0.39029 0.71055 0.0
C1622 C 0.34841 0.45486 0.73659 0.0
C1623 C 0.34074 0.46548 0.75121 0.0
C1624 C 0.33981 0.43804 0.73056 0.0
C1625 C 0.3234 0.43157 0.73904 0.0
C1626 C 0.31542 0.44267 0.75306 0.0
C1627 C 0.32394 0.4593 0.75906 0.0
H1628 H 0.26781 0.62656 0.78755 0.0
H1629 H 0.3122 0.66015 0.76539 0.0
H1630 H 0.28656 0.59899 0.78316 0.0
H1631 H 0.33112 0.63226 0.76094 0.0
H1632 H 0.35145 0.57062 0.74479 0.0
H1633 H 0.33351 0.59958 0.74431 0.0
H1634 H 0.31524 0.58993 0.8002 0.0
H1635 H 0.33271 0.5616 0.80073 0.0
C1636 C 0.28157 0.62807 0.78168 0.0
C1637 C 0.28862 0.64564 0.77718 0.0
C1638 C 0.29233 0.61224 0.77912 0.0
C1639 C 0.31048 0.61347 0.772 0.0
C1640 C 0.31719 0.63086 0.76644 0.0
C1641 C 0.30635 0.64681 0.76901 0.0
C1642 C 0.34371 0.57483 0.75697 0.0
C1643 C 0.34333 0.56357 0.77267 0.0
C1644 C 0.33345 0.59138 0.75671 0.0
C1645 C 0.32262 0.59683 0.77209 0.0
C1646 C 0.32298 0.58592 0.78793 0.0
C1647 C 0.33313 0.56963 0.78823 0.0
H1648 H 0.89056 0.45259 0.47576 0.0
H1649 H 0.86126 0.49744 0.50296 0.0
H1650 H 0.8654 0.43126 0.48314 0.0
H1651 H 0.83577 0.47585 0.51031 0.0
H1652 H 0.787 0.43003 0.50241 0.0
H1653 H 0.81018 0.45454 0.49603 0.0
H1654 H 0.85443 0.41796 0.51205 0.0
H1655 H 0.8317 0.39379 0.51808 0.0
C1656 C 0.87881 0.4579 0.48346 0.0
C1657 C 0.87816 0.4767 0.48907 0.0
C1658 C 0.86432 0.44565 0.48766 0.0
C1659 C 0.84869 0.45177 0.49759 0.0
C1660 C 0.84761 0.47071 0.50262 0.0
C1661 C 0.86222 0.48305 0.49842 0.0
C1662 C 0.80167 0.4274 0.50476 0.0
C1663 C 0.8075 0.40985 0.51045 0.0
C1664 C 0.81493 0.4414 0.50112 0.0
C1665 C 0.83418 0.43804 0.50314 0.0
C1666 C 0.83978 0.42085 0.50983 0.0
C1667 C 0.82668 0.40699 0.51337 0.0
H1668 H 0.75443 0.91406 0.81137 0.0
H1669 H 0.73494 0.88161 0.76346 0.0
H1670 H 0.72745 0.93434 0.80836 0.0
H1671 H 0.70825 0.90195 0.76032 0.0
H1672 H 0.65184 0.92629 0.77649 0.0
H1673 H 0.6798 0.9078 0.77897 0.0
H1674 H 0.71335 0.95772 0.78633 0.0
H1675 H 0.68515 0.97646 0.78384 0.0
C1676 C 0.74441 0.91128 0.8002 0.0
C1677 C 0.7468 0.89621 0.78768 0.0
C1678 C 0.72908 0.92299 0.79837 0.0
C1679 C 0.71572 0.9197 0.78413 0.0
C1680 C 0.71823 0.90475 0.77153 0.0
C1681 C 0.7336 0.89318 0.77324 0.0
C1682 C 0.66514 0.93341 0.77862 0.0
C1683 C 0.66623 0.9529 0.77995 0.0
C1684 C 0.6812 0.92277 0.77994 0.0
C1685 C 0.69878 0.93129 0.78276 0.0
C1686 C 0.69995 0.95077 0.78424 0.0
C1687 C 0.68383 0.96149 0.78272 0.0
H1688 H 0.62775 0.57557 0.98124 0.0
H1689 H 0.65663 0.52341 0.97845 0.0
H1690 H 0.6576 0.59201 0.98608 0.0
H1691 H 0.68629 0.53977 0.98375 0.0
H1692 H 0.73435 0.57671 0.96401 0.0
H1693 H 0.70453 0.56038 0.9638 0.0
H1694 H 0.68536 0.59682 1.00792 0.0
H1695 H 0.71552 0.61344 1.00814 0.0
C1696 C 0.64044 0.5676 0.98184 0.0
C1697 C 0.63981 0.54818 0.9793 0.0
C1698 C 0.6575 0.57701 0.98481 0.0
C1699 C 0.67431 0.56721 0.98515 0.0
C1700 C 0.67359 0.54774 0.98334 0.0
C1701 C 0.65657 0.53834 0.98047 0.0
C1702 C 0.72386 0.5813 0.97375 0.0
C1703 C 0.72736 0.59645 0.98608 0.0
C1704 C 0.70678 0.5718 0.97371 0.0
C1705 C 0.69262 0.57721 0.98592 0.0
C1706 C 0.69601 0.59238 0.9983 0.0
C1707 C 0.71328 0.60184 0.99847 0.0
H1708 H 0.21535 0.62928 0.21967 0.0
H1709 H 0.22357 0.63017 0.27928 0.0
H1710 H 0.19239 0.60414 0.22222 0.0
H1711 H 0.20072 0.60509 0.28181 0.0
H1712 H 0.17595 0.54628 0.27702 0.0
H1713 H 0.19778 0.57224 0.27432 0.0
H1714 H 0.16137 0.59656 0.23361 0.0
H1715 H 0.13963 0.57038 0.23607 0.0
C1716 C 0.21211 0.62429 0.23334 0.0
C1717 C 0.22145 0.6317 0.24925 0.0
C1718 C 0.19894 0.60985 0.2348 0.0
C1719 C 0.19478 0.60245 0.25221 0.0
C1720 C 0.20384 0.61015 0.26814 0.0
C1721 C 0.21696 0.62457 0.26668 0.0
C1722 C 0.17255 0.55716 0.2675 0.0
C1723 C 0.156 0.5562 0.25677 0.0
C1724 C 0.18504 0.57213 0.26603 0.0
C1725 C 0.18134 0.58657 0.25378 0.0
C1726 C 0.16478 0.58561 0.24303 0.0
C1727 C 0.15225 0.57063 0.24453 0.0
H1728 H 0.90037 0.55966 0.06417 0.0
H1729 H 0.89035 0.52298 0.01649 0.0
H1730 H 0.87537 0.57967 0.0536 0.0
H1731 H 0.86484 0.54232 1.00656 0.0
H1732 H 0.83618 0.59025 0.98091 0.0
H1733 H 0.86131 0.57188 0.99317 0.0
H1734 H 0.84173 0.58223 0.04899 0.0
H1735 H 0.81657 0.60128 0.03659 0.0
C1736 C 0.89282 0.55581 0.05147 0.0
C1737 C 0.89753 0.53972 0.04113 0.0
C1738 C 0.87832 0.56718 0.04554 0.0
C1739 C 0.86816 0.56274 0.02913 0.0
C1740 C 0.87257 0.54641 0.01908 0.0
C1741 C 0.88708 0.53511 0.02494 0.0
C1742 C 0.83721 0.58872 0.99583 0.0
C1743 C 0.82423 0.59712 1.00776 0.0
C1744 C 0.85159 0.57803 1.00286 0.0
C1745 C 0.85338 0.57522 0.02205 0.0
C1746 C 0.84079 0.58413 0.03412 0.0
C1747 C 0.82636 0.59502 0.02704 0.0
H1748 H 0.11433 0.95738 0.01857 0.0
H1749 H 0.1514 0.988 0.0564 0.0
H1750 H 0.13904 0.93537 0.01196 0.0
H1751 H 0.17587 0.96557 0.05035 0.0
H1752 H 0.22156 0.93102 0.02275 0.0
H1753 H 0.19743 0.95421 0.02741 0.0
H1754 H 0.15533 0.91071 0.0267 0.0
H1755 H 0.17936 0.88764 0.02169 0.0
C1756 C 0.12778 0.95953 0.02539 0.0
C1757 C 0.13077 0.97453 0.03807 0.0
C1758 C 0.14192 0.94673 0.02178 0.0
C1759 C 0.1595 0.94854 0.0307 0.0
C1760 C 0.16261 0.96375 0.04309 0.0
C1761 C 0.14846 0.97653 0.04672 0.0
C1762 C 0.20715 0.9264 0.02355 0.0
C1763 C 0.20246 0.90741 0.02183 0.0
C1764 C 0.19329 0.93972 0.02632 0.0
C1765 C 0.17434 0.93442 0.02743 0.0
C1766 C 0.16969 0.91541 0.02565 0.0
C1767 C 0.18353 0.90211 0.02289 0.0
loop_
_geom_bond_atom_site_label_1
_geom_bond_atom_site_label_2
_geom_bond_distance
_geom_bond_site_symmetry_2
_ccdc_geom_bond_type
C0 C1 1.269 . S
C0 C5 1.460 1_455 S
C0 C10 1.477 . S
C1 C0 1.269 . S
C1 C3 1.339 1_455 S
C1 H28 0.931 . S
C2 C3 1.395 . S
C2 C4 1.320 . S
C3 C1 1.339 1_655 S
C3 C2 1.395 . S
C3 H29 0.961 . S
C4 C2 1.320 . S
C4 C5 1.405 . S
C4 H30 0.930 . S
C5 C0 1.460 1_655 S
C5 C4 1.405 . S
C5 H31 0.931 . S
U6 O7 2.454 . S
U6 O8 2.458 . S
U6 C9 2.984 . S
U6 C10 2.847 . S
U6 C23 2.882 . S
U6 O24 2.441 . S
U6 O25 2.420 . S
U6 O26 2.455 . S
U6 O27 2.449 . S
O7 U6 2.454 . S
O7 C9 1.353 . S
O8 U6 2.458 . S
O8 C9 1.286 . S
C9 U6 2.984 . S
C9 O7 1.353 . S
C9 O8 1.286 . S
C9 C11 1.363 . S
C10 C0 1.477 . S
C10 U6 2.847 . S
C10 O24 1.249 . S
C10 O25 1.202 . S
C11 C9 1.363 . S
C11 C13 1.408 . S
C11 C16 1.342 1_554 S
C12 C13 1.310 1_556 S
C12 C15 1.461 . S
C12 H32 0.932 . S
C13 C11 1.408 . S
C13 C12 1.310 1_554 S
C13 H33 0.930 . S
C14 C15 1.474 . S
C14 C16 1.285 . S
C14 H34 0.929 . S
C15 C12 1.461 . S
C15 C14 1.474 . S
C16 C11 1.342 1_556 S
C16 C14 1.285 . S
C16 H35 0.930 . S
C17 C20 1.424 1_545 S
C17 C22 1.245 . S
C17 C23 1.428 . S
C18 C21 1.260 . S
C18 C22 1.477 1_565 S
C18 H36 0.932 . S
C19 C20 1.384 . S
C19 C21 1.479 . S
C19 H37 0.929 . S
C20 C17 1.424 1_565 S
C20 C19 1.384 . S
C20 H38 0.928 . S
C21 C18 1.260 . S
C21 C19 1.479 . S
C22 C17 1.245 . S
C22 C18 1.477 1_545 S
C22 H39 0.932 . S
C23 U6 2.882 . S
C23 C17 1.428 . S
C23 O26 1.301 . S
C23 O27 1.282 . S
O24 U6 2.441 . S
O24 C10 1.249 . S
O25 U6 2.420 . S
O25 C10 1.202 . S
O26 U6 2.455 . S
O26 C23 1.301 . S
O27 U6 2.449 . S
O27 C23 1.282 . S
H28 C1 0.931 . S
H29 C3 0.961 . S
H30 C4 0.930 . S
H31 C5 0.931 . S
H32 C12 0.932 . S
H33 C13 0.930 . S
H34 C14 0.929 . S
H35 C16 0.930 . S
H36 C18 0.932 . S
H37 C19 0.929 . S
H38 C20 0.928 . S
H39 C22 0.932 . S
C40 C41 1.264 . S
C40 C45 1.479 . S
C40 C50 1.465 . S
C41 C40 1.264 . S
C41 C43 1.339 . S
C41 H68 0.931 . S
C42 C43 1.395 . S
C42 C44 1.320 . S
C43 C41 1.339 . S
C43 C42 1.395 . S
C43 H69 0.929 . S
C44 C42 1.320 . S
C44 C45 1.405 . S
C44 H70 0.930 . S
C45 C40 1.479 . S
C45 C44 1.405 . S
C45 H71 0.931 . S
U46 O47 2.454 . S
U46 O48 2.458 . S
U46 C49 2.984 . S
U46 C50 2.847 . S
U46 C63 2.882 . S
U46 O64 2.441 . S
U46 O65 2.420 . S
U46 O66 2.455 . S
U46 O67 2.449 . S
O47 U46 2.454 . S
O47 C49 1.353 . S
O48 U46 2.458 . S
O48 C49 1.286 . S
C49 U46 2.984 . S
C49 O47 1.353 . S
C49 O48 1.286 . S
C49 C51 1.363 . S
C50 C40 1.465 . S
C50 U46 2.847 . S
C50 O64 1.249 . S
C50 O65 1.202 . S
C51 C49 1.363 . S
C51 C53 1.408 . S
C51 C56 1.342 . S
C52 C53 1.310 . S
C52 C55 1.461 . S
C52 H72 0.932 . S
C53 C51 1.408 . S
C53 C52 1.310 . S
C53 H73 0.930 . S
C54 C55 1.474 . S
C54 C56 1.285 . S
C54 H74 0.929 . S
C55 C52 1.461 . S
C55 C54 1.474 . S
C56 C51 1.342 . S
C56 C54 1.285 . S
C56 H75 0.930 . S
C57 C60 1.424 . S
C57 C62 1.245 . S
C57 C63 1.428 . S
C58 C61 1.260 . S
C58 C62 1.477 . S
C58 H76 0.932 . S
C59 C60 1.384 . S
C59 C61 1.479 . S
C59 H77 0.929 . S
C60 C57 1.424 . S
C60 C59 1.384 . S
C60 H78 0.928 . S
C61 C58 1.260 . S
C61 C59 1.479 . S
C62 C57 1.245 . S
C62 C58 1.477 . S
C62 H79 0.932 . S
C63 U46 2.882 . S
C63 C57 1.428 . S
C63 O66 1.301 . S
C63 O67 1.282 . S
O64 U46 2.441 . S
O64 C50 1.249 . S
O65 U46 2.420 . S
O65 C50 1.202 . S
O66 U46 2.455 . S
O66 C63 1.301 . S
O67 U46 2.449 . S
O67 C63 1.282 . S
H68 C41 0.931 . S
H69 C43 0.929 . S
H70 C44 0.930 . S
H71 C45 0.931 . S
H72 C52 0.932 . S
H73 C53 0.930 . S
H74 C54 0.929 . S
H75 C56 0.930 . S
H76 C58 0.932 . S
H77 C59 0.929 . S
H78 C60 0.928 . S
H79 C62 0.932 . S
C80 C81 1.264 . S
C80 C85 1.479 1_554 S
C80 C90 1.465 . S
C81 C80 1.264 . S
C81 C83 1.339 . S
C81 H108 0.931 . S
C82 C83 1.395 1_556 S
C82 C84 1.320 . S
C83 C81 1.339 . S
C83 C82 1.395 1_554 S
C83 H109 0.929 . S
C84 C82 1.320 . S
C84 C85 1.405 . S
C84 H110 0.930 . S
C85 C80 1.479 1_556 S
C85 C84 1.405 . S
C85 H111 0.931 . S
U86 O87 2.454 . S
U86 O88 2.458 . S
U86 C89 2.984 . S
U86 C90 2.847 . S
U86 C103 2.882 . S
U86 O104 2.441 . S
U86 O105 2.420 . S
U86 O106 2.455 . S
U86 O107 2.449 . S
O87 U86 2.454 . S
O87 C89 1.353 . S
O88 U86 2.458 . S
O88 C89 1.286 . S
C89 U86 2.984 . S
C89 O87 1.353 . S
C89 O88 1.286 . S
C89 C91 1.363 . S
C90 C80 1.465 . S
C90 U86 2.847 . S
C90 O104 1.249 . S
C90 O105 1.202 . S
C91 C89 1.363 . S
C91 C93 1.408 . S
C91 C96 1.342 . S
C92 C93 1.310 . S
C92 C95 1.461 . S
C92 H112 0.932 . S
C93 C91 1.408 . S
C93 C92 1.310 . S
C93 H113 0.930 . S
C94 C95 1.474 . S
C94 C96 1.285 . S
C94 H114 0.929 . S
C95 C92 1.461 . S
C95 C94 1.474 . S
C96 C91 1.342 . S
C96 C94 1.285 . S
C96 H115 0.930 . S
C97 C100 1.424 1_655 S
C97 C102 1.245 . S
C97 C103 1.428 . S
C98 C101 1.260 1_655 S
C98 C102 1.477 . S
C98 H116 0.932 . S
C99 C100 1.384 . S
C99 C101 1.479 . S
C99 H117 0.929 . S
C100 C97 1.424 1_455 S
C100 C99 1.384 . S
C100 H118 0.928 . S
C101 C98 1.260 1_455 S
C101 C99 1.479 . S
C102 C97 1.245 . S
C102 C98 1.477 . S
C102 H119 0.932 . S
C103 U86 2.882 . S
C103 C97 1.428 . S
C103 O106 1.301 . S
C103 O107 1.282 . S
O104 U86 2.441 . S
O104 C90 1.249 . S
O105 U86 2.420 . S
O105 C90 1.202 . S
O106 U86 2.455 . S
O106 C103 1.301 . S
O107 U86 2.449 . S
O107 C103 1.282 . S
H108 C81 0.931 . S
H109 C83 0.929 . S
H110 C84 0.930 . S
H111 C85 0.931 . S
H112 C92 0.932 . S
H113 C93 0.930 . S
H114 C94 0.929 . S
H115 C96 0.930 . S
H116 C98 0.932 . S
H117 C99 0.929 . S
H118 C100 0.928 . S
H119 C102 0.932 . S
C120 C121 1.264 . S
C120 C125 1.479 . S
C120 C130 1.465 . S
C121 C120 1.264 . S
C121 C123 1.339 . S
C121 H148 0.931 . S
C122 C123 1.395 . S
C122 C124 1.320 . S
C123 C121 1.339 . S
C123 C122 1.395 . S
C123 H149 0.929 . S
C124 C122 1.320 . S
C124 C125 1.405 . S
C124 H150 0.930 . S
C125 C120 1.479 . S
C125 C124 1.405 . S
C125 H151 0.931 . S
U126 O127 2.454 . S
U126 O128 2.458 . S
U126 C129 2.984 . S
U126 C130 2.847 . S
U126 C143 2.882 . S
U126 O144 2.441 . S
U126 O145 2.420 . S
U126 O146 2.455 . S
U126 O147 2.449 . S
O127 U126 2.454 . S
O127 C129 1.353 . S
O128 U126 2.458 . S
O128 C129 1.286 . S
C129 U126 2.984 . S
C129 O127 1.353 . S
C129 O128 1.286 . S
C129 C131 1.363 . S
C130 C120 1.465 . S
C130 U126 2.847 . S
C130 O144 1.249 . S
C130 O145 1.202 . S
C131 C129 1.363 . S
C131 C133 1.408 . S
C131 C136 1.342 . S
C132 C133 1.310 . S
C132 C135 1.461 . S
C132 H152 0.932 . S
C133 C131 1.408 . S
C133 C132 1.310 . S
C133 H153 0.930 . S
C134 C135 1.474 . S
C134 C136 1.285 . S
C134 H154 0.929 . S
C135 C132 1.461 . S
C135 C134 1.474 . S
C136 C131 1.342 . S
C136 C134 1.285 . S
C136 H155 0.930 . S
C137 C140 1.424 . S
C137 C142 1.245 . S
C137 C143 1.428 . S
C138 C141 1.260 . S
C138 C142 1.477 . S
C138 H156 0.932 . S
C139 C140 1.384 . S
C139 C141 1.479 . S
C139 H157 0.929 . S
C140 C137 1.424 . S
C140 C139 1.384 . S
C140 H158 0.928 . S
C141 C138 1.260 . S
C141 C139 1.479 . S
C142 C137 1.245 . S
C142 C138 1.477 . S
C142 H159 0.932 . S
C143 U126 2.882 . S
C143 C137 1.428 . S
C143 O146 1.301 . S
C143 O147 1.282 . S
O144 U126 2.441 . S
O144 C130 1.249 . S
O145 U126 2.420 . S
O145 C130 1.202 . S
O146 U126 2.455 . S
O146 C143 1.301 . S
O147 U126 2.449 . S
O147 C143 1.282 . S
H148 C121 0.931 . S
H149 C123 0.929 . S
H150 C124 0.930 . S
H151 C125 0.931 . S
H152 C132 0.932 . S
H153 C133 0.930 . S
H154 C134 0.929 . S
H155 C136 0.930 . S
H156 C138 0.932 . S
H157 C139 0.929 . S
H158 C140 0.928 . S
H159 C142 0.932 . S
C160 C161 1.264 . S
C160 C165 1.479 1_455 S
C160 C170 1.465 . S
C161 C160 1.264 . S
C161 C163 1.339 . S
C161 H188 0.931 . S
C162 C163 1.395 1_655 S
C162 C164 1.320 . S
C163 C161 1.339 . S
C163 C162 1.395 1_455 S
C163 H189 0.929 . S
C164 C162 1.320 . S
C164 C165 1.405 . S
C164 H190 0.930 . S
C165 C160 1.479 1_655 S
C165 C164 1.405 . S
C165 H191 0.931 . S
U166 O167 2.454 . S
U166 O168 2.458 . S
U166 C169 2.984 . S
U166 C170 2.847 . S
U166 C183 2.882 . S
U166 O184 2.441 . S
U166 O185 2.420 . S
U166 O186 2.455 . S
U166 O187 2.449 . S
O167 U166 2.454 . S
O167 C169 1.353 . S
O168 U166 2.458 . S
O168 C169 1.286 . S
C169 U166 2.984 . S
C169 O167 1.353 . S
C169 O168 1.286 . S
C169 C171 1.363 . S
C170 C160 1.465 . S
C170 U166 2.847 . S
C170 O184 1.249 . S
C170 O185 1.202 . S
C171 C169 1.363 . S
C171 C173 1.408 . S
C171 C176 1.342 . S
C172 C173 1.310 . S
C172 C175 1.461 . S
C172 H192 0.932 . S
C173 C171 1.408 . S
C173 C172 1.310 . S
C173 H193 0.930 . S
C174 C175 1.474 . S
C174 C176 1.285 . S
C174 H194 0.929 . S
C175 C172 1.461 . S
C175 C174 1.474 . S
C176 C171 1.342 . S
C176 C174 1.285 . S
C176 H195 0.930 . S
C177 C180 1.424 1_565 S
C177 C182 1.245 . S
C177 C183 1.428 . S
C178 C181 1.217 1_565 S
C178 C182 1.517 . S
C178 H196 0.940 . S
C179 C180 1.384 . S
C179 C181 1.479 . S
C179 H197 0.929 . S
C180 C177 1.424 1_545 S
C180 C179 1.384 . S
C180 H198 0.928 . S
C181 C178 1.217 1_545 S
C181 C179 1.479 . S
C182 C177 1.245 . S
C182 C178 1.517 . S
C182 H199 0.932 . S
C183 U166 2.882 . S
C183 C177 1.428 . S
C183 O186 1.301 . S
C183 O187 1.282 . S
O184 U166 2.441 . S
O184 C170 1.249 . S
O185 U166 2.420 . S
O185 C170 1.202 . S
O186 U166 2.455 . S
O186 C183 1.301 . S
O187 U166 2.449 . S
O187 C183 1.282 . S
H188 C161 0.931 . S
H189 C163 0.929 . S
H190 C164 0.930 . S
H191 C165 0.931 . S
H192 C172 0.932 . S
H193 C173 0.930 . S
H194 C174 0.929 . S
H195 C176 0.930 . S
H196 C178 0.940 . S
H197 C179 0.929 . S
H198 C180 0.928 . S
H199 C182 0.932 . S
C200 C201 1.264 . S
C200 C205 1.479 . S
C200 C210 1.465 . S
C201 C200 1.264 . S
C201 C203 1.339 . S
C201 H228 0.931 . S
C202 C203 1.395 . S
C202 C204 1.320 . S
C203 C201 1.339 . S
C203 C202 1.395 . S
C203 H229 0.929 . S
C204 C202 1.320 . S
C204 C205 1.405 . S
C204 H230 0.930 . S
C205 C200 1.479 . S
C205 C204 1.405 . S
C205 H231 0.931 . S
U206 O207 2.454 . S
U206 O208 2.458 . S
U206 C209 2.984 . S
U206 C210 2.847 . S
U206 C223 2.882 . S
U206 O224 2.441 . S
U206 O225 2.420 . S
U206 O226 2.455 . S
U206 O227 2.449 . S
O207 U206 2.454 . S
O207 C209 1.353 . S
O208 U206 2.458 . S
O208 C209 1.286 . S
C209 U206 2.984 . S
C209 O207 1.353 . S
C209 O208 1.286 . S
C209 C211 1.363 . S
C210 C200 1.465 . S
C210 U206 2.847 . S
C210 O224 1.249 . S
C210 O225 1.202 . S
C211 C209 1.363 . S
C211 C213 1.408 . S
C211 C216 1.342 . S
C212 C213 1.310 . S
C212 C215 1.461 . S
C212 H232 0.932 . S
C213 C211 1.408 . S
C213 C212 1.310 . S
C213 H233 0.930 . S
C214 C215 1.474 . S
C214 C216 1.285 . S
C214 H234 0.929 . S
C215 C212 1.461 . S
C215 C214 1.474 . S
C216 C211 1.342 . S
C216 C214 1.285 . S
C216 H235 0.930 . S
C217 C220 1.424 . S
C217 C222 1.245 . S
C217 C223 1.428 . S
C218 C221 1.260 . S
C218 C222 1.477 . S
C218 H236 0.932 . S
C219 C220 1.384 . S
C219 C221 1.479 . S
C219 H237 0.929 . S
C220 C217 1.424 . S
C220 C219 1.384 . S
C220 H238 0.928 . S
C221 C218 1.260 . S
C221 C219 1.479 . S
C222 C217 1.245 . S
C222 C218 1.477 . S
C222 H239 0.932 . S
C223 U206 2.882 . S
C223 C217 1.428 . S
C223 O226 1.301 . S
C223 O227 1.282 . S
O224 U206 2.441 . S
O224 C210 1.249 . S
O225 U206 2.420 . S
O225 C210 1.202 . S
O226 U206 2.455 . S
O226 C223 1.301 . S
O227 U206 2.449 . S
O227 C223 1.282 . S
H228 C201 0.931 . S
H229 C203 0.929 . S
H230 C204 0.930 . S
H231 C205 0.931 . S
H232 C212 0.932 . S
H233 C213 0.930 . S
H234 C214 0.929 . S
H235 C216 0.930 . S
H236 C218 0.932 . S
H237 C219 0.929 . S
H238 C220 0.928 . S
H239 C222 0.932 . S
C240 C241 1.264 . S
C240 C245 1.479 . S
C240 C250 1.465 . S
C241 C240 1.264 . S
C241 C243 1.339 . S
C241 H268 0.931 . S
C242 C243 1.395 . S
C242 C244 1.320 . S
C243 C241 1.339 . S
C243 C242 1.395 . S
C243 H269 0.929 . S
C244 C242 1.320 . S
C244 C245 1.405 . S
C244 H270 0.930 . S
C245 C240 1.479 . S
C245 C244 1.405 . S
C245 H271 0.931 . S
U246 O247 2.454 . S
U246 O248 2.458 . S
U246 C249 2.984 . S
U246 C250 2.847 . S
U246 C263 2.882 . S
U246 O264 2.441 . S
U246 O265 2.420 . S
U246 O266 2.455 . S
U246 O267 2.449 . S
O247 U246 2.454 . S
O247 C249 1.353 . S
O248 U246 2.458 . S
O248 C249 1.286 . S
C249 U246 2.984 . S
C249 O247 1.353 . S
C249 O248 1.286 . S
C249 C251 1.363 . S
C250 C240 1.465 . S
C250 U246 2.847 . S
C250 O264 1.249 . S
C250 O265 1.202 . S
C251 C249 1.363 . S
C251 C253 1.408 . S
C251 C256 1.342 . S
C252 C253 1.310 . S
C252 C255 1.461 . S
C252 H272 0.932 . S
C253 C251 1.408 . S
C253 C252 1.310 . S
C253 H273 0.930 . S
C254 C255 1.474 . S
C254 C256 1.285 . S
C254 H274 0.929 . S
C255 C252 1.461 . S
C255 C254 1.474 . S
C256 C251 1.342 . S
C256 C254 1.285 . S
C256 H275 0.930 . S
C257 C260 1.424 1_655 S
C257 C262 1.245 . S
C257 C263 1.428 . S
C258 C261 1.260 . S
C258 C262 1.477 1_455 S
C258 H276 0.932 . S
C259 C260 1.384 . S
C259 C261 1.479 . S
C259 H277 0.929 . S
C260 C257 1.424 1_455 S
C260 C259 1.384 . S
C260 H278 0.928 . S
C261 C258 1.260 . S
C261 C259 1.479 . S
C262 C257 1.245 . S
C262 C258 1.477 1_655 S
C262 H279 0.932 . S
C263 U246 2.882 . S
C263 C257 1.428 . S
C263 O266 1.301 . S
C263 O267 1.282 . S
O264 U246 2.441 . S
O264 C250 1.249 . S
O265 U246 2.420 . S
O265 C250 1.202 . S
O266 U246 2.455 . S
O266 C263 1.301 . S
O267 U246 2.449 . S
O267 C263 1.282 . S
H268 C241 0.931 . S
H269 C243 0.929 . S
H270 C244 0.930 . S
H271 C245 0.931 . S
H272 C252 0.932 . S
H273 C253 0.930 . S
H274 C254 0.929 . S
H275 C256 0.930 . S
H276 C258 0.932 . S
H277 C259 0.929 . S
H278 C260 0.928 . S
H279 C262 0.932 . S
C280 C281 1.264 . S
C280 C285 1.479 . S
C280 C290 1.465 . S
C281 C280 1.264 . S
C281 C283 1.339 . S
C281 H308 0.931 . S
C282 C283 1.395 . S
C282 C284 1.320 . S
C283 C281 1.339 . S
C283 C282 1.395 . S
C283 H309 0.929 . S
C284 C282 1.320 . S
C284 C285 1.405 . S
C284 H310 0.930 . S
C285 C280 1.479 . S
C285 C284 1.405 . S
C285 H311 0.931 . S
U286 O287 2.454 . S
U286 O288 2.458 . S
U286 C289 2.984 . S
U286 C290 2.847 . S
U286 C303 2.882 . S
U286 O304 2.441 . S
U286 O305 2.420 . S
U286 O306 2.455 . S
U286 O307 2.449 . S
O287 U286 2.454 . S
O287 C289 1.353 . S
O288 U286 2.458 . S
O288 C289 1.286 . S
C289 U286 2.984 . S
C289 O287 1.353 . S
C289 O288 1.286 . S
C289 C291 1.363 . S
C290 C280 1.465 . S
C290 U286 2.847 . S
C290 O304 1.249 . S
C290 O305 1.202 . S
C291 C289 1.363 . S
C291 C293 1.408 . S
C291 C296 1.342 . S
C292 C293 1.310 . S
C292 C295 1.461 . S
C292 H312 0.932 . S
C293 C291 1.408 . S
C293 C292 1.310 . S
C293 H313 0.930 . S
C294 C295 1.474 . S
C294 C296 1.285 . S
C294 H314 0.929 . S
C295 C292 1.461 . S
C295 C294 1.474 . S
C296 C291 1.342 . S
C296 C294 1.285 . S
C296 H315 0.930 . S
C297 C300 1.424 . S
C297 C302 1.245 . S
C297 C303 1.428 . S
C298 C301 1.260 . S
C298 C302 1.477 . S
C298 H316 0.932 . S
C299 C300 1.384 . S
C299 C301 1.479 . S
C299 H317 0.929 . S
C300 C297 1.424 . S
C300 C299 1.384 . S
C300 H318 0.928 . S
C301 C298 1.260 . S
C301 C299 1.479 . S
C302 C297 1.245 . S
C302 C298 1.477 . S
C302 H319 0.932 . S
C303 U286 2.882 . S
C303 C297 1.428 . S
C303 O306 1.301 . S
C303 O307 1.282 . S
O304 U286 2.441 . S
O304 C290 1.249 . S
O305 U286 2.420 . S
O305 C290 1.202 . S
O306 U286 2.455 . S
O306 C303 1.301 . S
O307 U286 2.449 . S
O307 C303 1.282 . S
H308 C281 0.931 . S
H309 C283 0.929 . S
H310 C284 0.930 . S
H311 C285 0.931 . S
H312 C292 0.932 . S
H313 C293 0.930 . S
H314 C294 0.929 . S
H315 C296 0.930 . S
H316 C298 0.932 . S
H317 C299 0.929 . S
H318 C300 0.928 . S
H319 C302 0.932 . S
C320 C321 1.264 . S
C320 C325 1.479 . S
C320 C330 1.465 . S
C321 C320 1.264 . S
C321 C323 1.339 . S
C321 H348 0.931 . S
C322 C323 1.395 . S
C322 C324 1.320 . S
C323 C321 1.339 . S
C323 C322 1.395 . S
C323 H349 0.929 . S
C324 C322 1.320 . S
C324 C325 1.405 . S
C324 H350 0.930 . S
C325 C320 1.479 . S
C325 C324 1.405 . S
C325 H351 0.931 . S
U326 O327 2.454 . S
U326 O328 2.458 . S
U326 C329 2.984 . S
U326 C330 2.847 . S
U326 C343 2.882 . S
U326 O344 2.441 . S
U326 O345 2.420 . S
U326 O346 2.455 . S
U326 O347 2.449 . S
O327 U326 2.454 . S
O327 C329 1.353 . S
O328 U326 2.458 . S
O328 C329 1.286 . S
C329 U326 2.984 . S
C329 O327 1.353 . S
C329 O328 1.286 . S
C329 C331 1.363 . S
C330 C320 1.465 . S
C330 U326 2.847 . S
C330 O344 1.249 . S
C330 O345 1.202 . S
C331 C329 1.363 . S
C331 C333 1.408 . S
C331 C336 1.342 . S
C332 C333 1.310 . S
C332 C335 1.461 . S
C332 H352 0.932 . S
C333 C331 1.408 . S
C333 C332 1.310 . S
C333 H353 0.930 . S
C334 C335 1.474 . S
C334 C336 1.285 . S
C334 H354 0.929 . S
C335 C332 1.461 . S
C335 C334 1.474 . S
C336 C331 1.342 . S
C336 C334 1.285 . S
C336 H355 0.930 . S
C337 C340 1.424 . S
C337 C342 1.245 . S
C337 C343 1.428 . S
C338 C341 1.260 . S
C338 C342 1.477 . S
C338 H356 0.932 . S
C339 C340 1.384 . S
C339 C341 1.479 . S
C339 H357 0.929 . S
C340 C337 1.424 . S
C340 C339 1.384 . S
C340 H358 0.928 . S
C341 C338 1.260 . S
C341 C339 1.479 . S
C342 C337 1.245 . S
C342 C338 1.477 . S
C342 H359 0.932 . S
C343 U326 2.882 . S
C343 C337 1.428 . S
C343 O346 1.301 . S
C343 O347 1.282 . S
O344 U326 2.441 . S
O344 C330 1.249 . S
O345 U326 2.420 . S
O345 C330 1.202 . S
O346 U326 2.455 . S
O346 C343 1.301 . S
O347 U326 2.449 . S
O347 C343 1.282 . S
H348 C321 0.931 . S
H349 C323 0.929 . S
H350 C324 0.930 . S
H351 C325 0.931 . S
H352 C332 0.932 . S
H353 C333 0.930 . S
H354 C334 0.929 . S
H355 C336 0.930 . S
H356 C338 0.932 . S
H357 C339 0.929 . S
H358 C340 0.928 . S
H359 C342 0.932 . S
C360 C361 1.264 . S
C360 C365 1.479 . S
C360 C370 1.465 . S
C361 C360 1.264 . S
C361 C363 1.339 . S
C361 H388 0.931 . S
C362 C363 1.395 . S
C362 C364 1.320 . S
C363 C361 1.339 . S
C363 C362 1.395 . S
C363 H389 0.929 . S
C364 C362 1.320 . S
C364 C365 1.405 . S
C364 H390 0.930 . S
C365 C360 1.479 . S
C365 C364 1.405 . S
C365 H391 0.931 . S
U366 O367 2.454 . S
U366 O368 2.458 . S
U366 C369 2.984 . S
U366 C370 2.847 . S
U366 C383 2.882 . S
U366 O384 2.441 . S
U366 O385 2.420 . S
U366 O386 2.455 . S
U366 O387 2.449 . S
O367 U366 2.454 . S
O367 C369 1.353 . S
O368 U366 2.458 . S
O368 C369 1.286 . S
C369 U366 2.984 . S
C369 O367 1.353 . S
C369 O368 1.286 . S
C369 C371 1.363 . S
C370 C360 1.465 . S
C370 U366 2.847 . S
C370 O384 1.249 . S
C370 O385 1.202 . S
C371 C369 1.363 . S
C371 C373 1.408 . S
C371 C376 1.342 1_565 S
C372 C373 1.310 1_545 S
C372 C375 1.461 . S
C372 H392 0.931 . S
C373 C371 1.408 . S
C373 C372 1.310 1_565 S
C373 H393 0.930 . S
C374 C375 1.474 . S
C374 C376 1.285 . S
C374 H394 0.929 . S
C375 C372 1.461 . S
C375 C374 1.474 . S
C376 C371 1.342 1_545 S
C376 C374 1.285 . S
C376 H395 0.930 . S
C377 C380 1.424 . S
C377 C382 1.245 . S
C377 C383 1.428 . S
C378 C381 1.260 . S
C378 C382 1.477 . S
C378 H396 0.932 . S
C379 C380 1.384 . S
C379 C381 1.479 . S
C379 H397 0.929 . S
C380 C377 1.424 . S
C380 C379 1.384 . S
C380 H398 0.928 . S
C381 C378 1.260 . S
C381 C379 1.479 . S
C382 C377 1.245 . S
C382 C378 1.477 . S
C382 H399 0.932 . S
C383 U366 2.882 . S
C383 C377 1.428 . S
C383 O386 1.301 . S
C383 O387 1.282 . S
O384 U366 2.441 . S
O384 C370 1.249 . S
O385 U366 2.420 . S
O385 C370 1.202 . S
O386 U366 2.455 . S
O386 C383 1.301 . S
O387 U366 2.449 . S
O387 C383 1.282 . S
H388 C361 0.931 . S
H389 C363 0.929 . S
H390 C364 0.930 . S
H391 C365 0.931 . S
H392 C372 0.931 . S
H393 C373 0.930 . S
H394 C374 0.929 . S
H395 C376 0.930 . S
H396 C378 0.932 . S
H397 C379 0.929 . S
H398 C380 0.928 . S
H399 C382 0.932 . S
C400 C401 1.264 . S
C400 C405 1.479 . S
C400 C410 1.465 . S
C401 C400 1.264 . S
C401 C403 1.339 . S
C401 H428 0.931 . S
C402 C403 1.395 . S
C402 C404 1.320 . S
C403 C401 1.339 . S
C403 C402 1.395 . S
C403 H429 0.929 . S
C404 C402 1.320 . S
C404 C405 1.405 . S
C404 H430 0.930 . S
C405 C400 1.479 . S
C405 C404 1.405 . S
C405 H431 0.931 . S
U406 O407 2.454 . S
U406 O408 2.458 . S
U406 C409 2.984 . S
U406 C410 2.847 . S
U406 C423 2.882 . S
U406 O424 2.441 . S
U406 O425 2.420 . S
U406 O426 2.455 . S
U406 O427 2.449 . S
O407 U406 2.454 . S
O407 C409 1.353 . S
O408 U406 2.458 . S
O408 C409 1.286 . S
C409 U406 2.984 . S
C409 O407 1.353 . S
C409 O408 1.286 . S
C409 C411 1.363 . S
C410 C400 1.465 . S
C410 U406 2.847 . S
C410 O424 1.249 . S
C410 O425 1.202 . S
C411 C409 1.363 . S
C411 C413 1.408 . S
C411 C416 1.342 . S
C412 C413 1.310 . S
C412 C415 1.461 . S
C412 H432 0.932 . S
C413 C411 1.408 . S
C413 C412 1.310 . S
C413 H433 0.930 . S
C414 C415 1.474 . S
C414 C416 1.285 . S
C414 H434 0.929 . S
C415 C412 1.461 . S
C415 C414 1.474 . S
C416 C411 1.342 . S
C416 C414 1.285 . S
C416 H435 0.930 . S
C417 C420 1.424 . S
C417 C422 1.245 . S
C417 C423 1.428 . S
C418 C421 1.260 . S
C418 C422 1.477 . S
C418 H436 0.932 . S
C419 C420 1.384 . S
C419 C421 1.479 . S
C419 H437 0.929 . S
C420 C417 1.424 . S
C420 C419 1.384 . S
C420 H438 0.928 . S
C421 C418 1.260 . S
C421 C419 1.479 . S
C422 C417 1.245 . S
C422 C418 1.477 . S
C422 H439 0.932 . S
C423 U406 2.882 . S
C423 C417 1.428 . S
C423 O426 1.301 . S
C423 O427 1.282 . S
O424 U406 2.441 . S
O424 C410 1.249 . S
O425 U406 2.420 . S
O425 C410 1.202 . S
O426 U406 2.455 . S
O426 C423 1.301 . S
O427 U406 2.449 . S
O427 C423 1.282 . S
H428 C401 0.931 . S
H429 C403 0.929 . S
H430 C404 0.930 . S
H431 C405 0.931 . S
H432 C412 0.932 . S
H433 C413 0.930 . S
H434 C414 0.929 . S
H435 C416 0.930 . S
H436 C418 0.932 . S
H437 C419 0.929 . S
H438 C420 0.928 . S
H439 C422 0.932 . S
C440 C441 1.264 . S
C440 C445 1.479 . S
C440 C450 1.465 . S
C441 C440 1.264 . S
C441 C443 1.339 . S
C441 H468 0.931 . S
C442 C443 1.395 . S
C442 C444 1.320 . S
C443 C441 1.339 . S
C443 C442 1.395 . S
C443 H469 0.929 . S
C444 C442 1.320 . S
C444 C445 1.405 . S
C444 H470 0.930 . S
C445 C440 1.479 . S
C445 C444 1.405 . S
C445 H471 0.931 . S
U446 O447 2.454 . S
U446 O448 2.458 . S
U446 C449 2.984 . S
U446 C450 2.847 . S
U446 C463 2.882 . S
U446 O464 2.441 . S
U446 O465 2.420 . S
U446 O466 2.455 . S
U446 O467 2.449 . S
O447 U446 2.454 . S
O447 C449 1.353 . S
O448 U446 2.458 . S
O448 C449 1.286 . S
C449 U446 2.984 . S
C449 O447 1.353 . S
C449 O448 1.286 . S
C449 C451 1.363 . S
C450 C440 1.465 . S
C450 U446 2.847 . S
C450 O464 1.249 . S
C450 O465 1.202 . S
C451 C449 1.363 . S
C451 C453 1.408 . S
C451 C456 1.342 . S
C452 C453 1.310 . S
C452 C455 1.461 . S
C452 H472 0.932 . S
C453 C451 1.408 . S
C453 C452 1.310 . S
C453 H473 0.930 . S
C454 C455 1.474 . S
C454 C456 1.285 . S
C454 H474 0.929 . S
C455 C452 1.461 . S
C455 C454 1.474 . S
C456 C451 1.342 . S
C456 C454 1.285 . S
C456 H475 0.930 . S
C457 C460 1.424 . S
C457 C462 1.245 . S
C457 C463 1.428 . S
C458 C461 1.260 . S
C458 C462 1.477 . S
C458 H476 0.932 . S
C459 C460 1.384 . S
C459 C461 1.479 . S
C459 H477 0.929 . S
C460 C457 1.424 . S
C460 C459 1.384 . S
C460 H478 0.928 . S
C461 C458 1.260 . S
C461 C459 1.479 . S
C462 C457 1.245 . S
C462 C458 1.477 . S
C462 H479 0.932 . S
C463 U446 2.882 . S
C463 C457 1.428 . S
C463 O466 1.301 . S
C463 O467 1.282 . S
O464 U446 2.441 . S
O464 C450 1.249 . S
O465 U446 2.420 . S
O465 C450 1.202 . S
O466 U446 2.455 . S
O466 C463 1.301 . S
O467 U446 2.449 . S
O467 C463 1.282 . S
H468 C441 0.931 . S
H469 C443 0.929 . S
H470 C444 0.930 . S
H471 C445 0.931 . S
H472 C452 0.932 . S
H473 C453 0.930 . S
H474 C454 0.929 . S
H475 C456 0.930 . S
H476 C458 0.932 . S
H477 C459 0.929 . S
H478 C460 0.928 . S
H479 C462 0.932 . S
C480 C481 1.264 . S
C480 C485 1.479 . S
C480 C490 1.465 . S
C481 C480 1.264 . S
C481 C483 1.339 . S
C481 H508 0.931 . S
C482 C483 1.395 . S
C482 C484 1.320 . S
C483 C481 1.339 . S
C483 C482 1.395 . S
C483 H509 0.929 . S
C484 C482 1.320 . S
C484 C485 1.405 . S
C484 H510 0.930 . S
C485 C480 1.479 . S
C485 C484 1.405 . S
C485 H511 0.931 . S
U486 O487 2.454 . S
U486 O488 2.458 . S
U486 C489 2.984 . S
U486 C490 2.847 . S
U486 C503 2.882 . S
U486 O504 2.441 . S
U486 O505 2.420 . S
U486 O506 2.455 . S
U486 O507 2.449 . S
O487 U486 2.454 . S
O487 C489 1.353 . S
O488 U486 2.458 . S
O488 C489 1.286 . S
C489 U486 2.984 . S
C489 O487 1.353 . S
C489 O488 1.286 . S
C489 C491 1.363 . S
C490 C480 1.465 . S
C490 U486 2.847 . S
C490 O504 1.249 . S
C490 O505 1.202 . S
C491 C489 1.363 . S
C491 C493 1.408 . S
C491 C496 1.342 . S
C492 C493 1.310 . S
C492 C495 1.461 . S
C492 H512 0.932 . S
C493 C491 1.408 . S
C493 C492 1.310 . S
C493 H513 0.930 . S
C494 C495 1.474 . S
C494 C496 1.285 . S
C494 H514 0.929 . S
C495 C492 1.461 . S
C495 C494 1.474 . S
C496 C491 1.342 . S
C496 C494 1.285 . S
C496 H515 0.930 . S
C497 C500 1.424 . S
C497 C502 1.245 . S
C497 C503 1.428 . S
C498 C501 1.260 . S
C498 C502 1.477 . S
C498 H516 0.932 . S
C499 C500 1.384 . S
C499 C501 1.479 . S
C499 H517 0.929 . S
C500 C497 1.424 . S
C500 C499 1.384 . S
C500 H518 0.928 . S
C501 C498 1.260 . S
C501 C499 1.479 . S
C502 C497 1.245 . S
C502 C498 1.477 . S
C502 H519 0.932 . S
C503 U486 2.882 . S
C503 C497 1.428 . S
C503 O506 1.301 . S
C503 O507 1.282 . S
O504 U486 2.441 . S
O504 C490 1.249 . S
O505 U486 2.420 . S
O505 C490 1.202 . S
O506 U486 2.455 . S
O506 C503 1.301 . S
O507 U486 2.449 . S
O507 C503 1.282 . S
H508 C481 0.931 . S
H509 C483 0.929 . S
H510 C484 0.930 . S
H511 C485 0.931 . S
H512 C492 0.932 . S
H513 C493 0.930 . S
H514 C494 0.929 . S
H515 C496 0.930 . S
H516 C498 0.932 . S
H517 C499 0.929 . S
H518 C500 0.928 . S
H519 C502 0.932 . S
C520 C521 1.264 . S
C520 C525 1.479 . S
C520 C530 1.465 . S
C521 C520 1.264 . S
C521 C523 1.339 . S
C521 H548 0.931 . S
C522 C523 1.395 . S
C522 C524 1.320 . S
C523 C521 1.339 . S
C523 C522 1.395 . S
C523 H549 0.929 . S
C524 C522 1.320 . S
C524 C525 1.405 . S
C524 H550 0.930 . S
C525 C520 1.479 . S
C525 C524 1.405 . S
C525 H551 0.931 . S
U526 O527 2.454 . S
U526 O528 2.458 . S
U526 C529 2.984 . S
U526 C530 2.847 . S
U526 C543 2.882 . S
U526 O544 2.441 . S
U526 O545 2.420 . S
U526 O546 2.455 . S
U526 O547 2.449 . S
O527 U526 2.454 . S
O527 C529 1.353 . S
O528 U526 2.458 . S
O528 C529 1.286 . S
C529 U526 2.984 . S
C529 O527 1.353 . S
C529 O528 1.286 . S
C529 C531 1.363 . S
C530 C520 1.465 . S
C530 U526 2.847 . S
C530 O544 1.249 . S
C530 O545 1.202 . S
C531 C529 1.363 . S
C531 C533 1.408 . S
C531 C536 1.342 1_556 S
C532 C533 1.275 1_554 S
C532 C535 1.506 . S
C532 H552 0.926 1_554 S
C533 C531 1.408 . S
C533 C532 1.275 1_556 S
C533 H553 0.930 . S
C534 C535 1.474 . S
C534 C536 1.285 . S
C534 H554 0.929 . S
C535 C532 1.506 . S
C535 C534 1.474 . S
C536 C531 1.342 1_554 S
C536 C534 1.285 . S
C536 H555 0.930 . S
C537 C540 1.424 . S
C537 C542 1.245 . S
C537 C543 1.428 . S
C538 C541 1.260 . S
C538 C542 1.477 . S
C538 H556 0.932 . S
C539 C540 1.384 . S
C539 C541 1.479 . S
C539 H557 0.929 . S
C540 C537 1.424 . S
C540 C539 1.384 . S
C540 H558 0.928 . S
C541 C538 1.260 . S
C541 C539 1.479 . S
C542 C537 1.245 . S
C542 C538 1.477 . S
C542 H559 0.932 . S
C543 U526 2.882 . S
C543 C537 1.428 . S
C543 O546 1.301 . S
C543 O547 1.282 . S
O544 U526 2.441 . S
O544 C530 1.249 . S
O545 U526 2.420 . S
O545 C530 1.202 . S
O546 U526 2.455 . S
O546 C543 1.301 . S
O547 U526 2.449 . S
O547 C543 1.282 . S
H548 C521 0.931 . S
H549 C523 0.929 . S
H550 C524 0.930 . S
H551 C525 0.931 . S
H552 C532 0.926 1_556 S
H553 C533 0.930 . S
H554 C534 0.929 . S
H555 C536 0.930 . S
H556 C538 0.932 . S
H557 C539 0.929 . S
H558 C540 0.928 . S
H559 C542 0.932 . S
C560 C561 1.264 . S
C560 C565 1.479 . S
C560 C570 1.465 . S
C561 C560 1.264 . S
C561 C563 1.339 . S
C561 H588 0.931 . S
C562 C563 1.395 . S
C562 C564 1.320 . S
C563 C561 1.339 . S
C563 C562 1.395 . S
C563 H589 0.929 . S
C564 C562 1.320 . S
C564 C565 1.405 . S
C564 H590 0.930 . S
C565 C560 1.479 . S
C565 C564 1.405 . S
C565 H591 0.931 . S
U566 O567 2.454 . S
U566 O568 2.458 . S
U566 C569 2.984 . S
U566 C570 2.847 . S
U566 C583 2.882 . S
U566 O584 2.441 . S
U566 O585 2.420 . S
U566 O586 2.455 . S
U566 O587 2.449 . S
O567 U566 2.454 . S
O567 C569 1.353 . S
O568 U566 2.458 . S
O568 C569 1.286 . S
C569 U566 2.984 . S
C569 O567 1.353 . S
C569 O568 1.286 . S
C569 C571 1.363 . S
C570 C560 1.465 . S
C570 U566 2.847 . S
C570 O584 1.249 . S
C570 O585 1.202 . S
C571 C569 1.363 . S
C571 C573 1.408 . S
C571 C576 1.342 . S
C572 C573 1.310 . S
C572 C575 1.461 . S
C572 H592 0.932 . S
C573 C571 1.408 . S
C573 C572 1.310 . S
C573 H593 0.930 . S
C574 C575 1.474 . S
C574 C576 1.285 . S
C574 H594 0.929 . S
C575 C572 1.461 . S
C575 C574 1.474 . S
C576 C571 1.342 . S
C576 C574 1.285 . S
C576 H595 0.930 . S
C577 C580 1.424 . S
C577 C582 1.245 . S
C577 C583 1.428 . S
C578 C581 1.260 . S
C578 C582 1.477 . S
C578 H596 0.932 . S
C579 C580 1.384 . S
C579 C581 1.479 . S
C579 H597 0.929 . S
C580 C577 1.424 . S
C580 C579 1.384 . S
C580 H598 0.928 . S
C581 C578 1.260 . S
C581 C579 1.479 . S
C582 C577 1.245 . S
C582 C578 1.477 . S
C582 H599 0.932 . S
C583 U566 2.882 . S
C583 C577 1.428 . S
C583 O586 1.301 . S
C583 O587 1.282 . S
O584 U566 2.441 . S
O584 C570 1.249 . S
O585 U566 2.420 . S
O585 C570 1.202 . S
O586 U566 2.455 . S
O586 C583 1.301 . S
O587 U566 2.449 . S
O587 C583 1.282 . S
H588 C561 0.931 . S
H589 C563 0.929 . S
H590 C564 0.930 . S
H591 C565 0.931 . S
H592 C572 0.932 . S
H593 C573 0.930 . S
H594 C574 0.929 . S
H595 C576 0.930 . S
H596 C578 0.932 . S
H597 C579 0.929 . S
H598 C580 0.928 . S
H599 C582 0.932 . S
C600 C601 1.264 . S
C600 C605 1.479 1_556 S
C600 C610 1.465 . S
C601 C600 1.264 . S
C601 C603 1.339 . S
C601 H628 0.931 . S
C602 C603 1.395 1_554 S
C602 C604 1.320 . S
C603 C601 1.339 . S
C603 C602 1.395 1_556 S
C603 H629 0.929 . S
C604 C602 1.320 . S
C604 C605 1.405 . S
C604 H630 0.930 . S
C605 C600 1.479 1_554 S
C605 C604 1.405 . S
C605 H631 0.931 . S
U606 O607 2.454 . S
U606 O608 2.458 . S
U606 C609 2.984 . S
U606 C610 2.847 . S
U606 C623 2.882 . S
U606 O624 2.441 . S
U606 O625 2.420 . S
U606 O626 2.455 . S
U606 O627 2.449 . S
O607 U606 2.454 . S
O607 C609 1.353 . S
O608 U606 2.458 . S
O608 C609 1.286 . S
C609 U606 2.984 . S
C609 O607 1.353 . S
C609 O608 1.286 . S
C609 C611 1.363 . S
C610 C600 1.465 . S
C610 U606 2.847 . S
C610 O624 1.249 . S
C610 O625 1.202 . S
C611 C609 1.363 . S
C611 C613 1.408 . S
C611 C616 1.355 . S
C612 C613 1.310 . S
C612 C615 1.461 1_545 S
C612 H632 0.932 . S
C613 C611 1.408 . S
C613 C612 1.310 . S
C613 H633 0.930 . S
C614 C615 1.474 . S
C614 C616 1.274 1_565 S
C614 H634 0.929 . S
C615 C612 1.461 1_565 S
C615 C614 1.474 . S
C616 C611 1.355 . S
C616 C614 1.274 1_545 S
C616 H635 0.929 1_545 S
C617 C620 1.424 . S
C617 C622 1.245 . S
C617 C623 1.428 . S
C618 C621 1.260 . S
C618 C622 1.477 . S
C618 H636 0.932 . S
C619 C620 1.384 . S
C619 C621 1.479 . S
C619 H637 0.929 . S
C620 C617 1.424 . S
C620 C619 1.384 . S
C620 H638 0.928 . S
C621 C618 1.260 . S
C621 C619 1.479 . S
C622 C617 1.245 . S
C622 C618 1.477 . S
C622 H639 0.932 . S
C623 U606 2.882 . S
C623 C617 1.428 . S
C623 O626 1.301 . S
C623 O627 1.282 . S
O624 U606 2.441 . S
O624 C610 1.249 . S
O625 U606 2.420 . S
O625 C610 1.202 . S
O626 U606 2.455 . S
O626 C623 1.301 . S
O627 U606 2.449 . S
O627 C623 1.282 . S
H628 C601 0.931 . S
H629 C603 0.929 . S
H630 C604 0.930 . S
H631 C605 0.931 . S
H632 C612 0.932 . S
H633 C613 0.930 . S
H634 C614 0.929 . S
H635 C616 0.929 1_565 S
H636 C618 0.932 . S
H637 C619 0.929 . S
H638 C620 0.928 . S
H639 C622 0.932 . S
Zn640 O643 2.031 . S
Zn640 O645 2.049 1_554 S
Zn640 O650 2.067 1_554 S
Zn641 O642 1.962 . S
Zn641 O644 1.986 . S
Zn641 O646 1.996 . S
Zn641 O649 1.943 1_554 S
O642 Zn641 1.962 . S
O642 C647 1.254 . S
O643 Zn640 2.031 . S
O643 C647 1.269 . S
O644 Zn641 1.986 . S
O644 C651 1.262 . S
O645 Zn640 2.049 1_556 S
O645 C653 1.260 . S
O646 Zn641 1.996 . S
O646 C653 1.257 1_554 S
C647 O642 1.254 . S
C647 O643 1.269 . S
C648 O649 1.249 . S
C648 O650 1.270 . S
O649 Zn641 1.943 1_556 S
O649 C648 1.249 . S
O650 Zn640 2.067 1_556 S
O650 C648 1.270 . S
C651 O644 1.262 . S
C651 O652 1.232 . S
O652 C651 1.232 . S
C653 O645 1.260 . S
C653 O646 1.257 1_556 S
Zn654 O657 2.031 . S
Zn654 O659 2.049 . S
Zn654 O664 2.067 . S
Zn655 O656 1.962 . S
Zn655 O658 1.986 . S
Zn655 O660 1.996 . S
Zn655 O663 1.943 . S
O656 Zn655 1.962 . S
O656 C661 1.254 . S
O657 Zn654 2.031 . S
O657 C661 1.269 . S
O658 Zn655 1.986 . S
O658 C665 1.262 . S
O659 Zn654 2.049 . S
O659 C667 1.260 . S
O660 Zn655 1.996 . S
O660 C667 1.257 . S
C661 O656 1.254 . S
C661 O657 1.269 . S
C662 O663 1.249 . S
C662 O664 1.270 . S
O663 Zn655 1.943 . S
O663 C662 1.249 . S
O664 Zn654 2.067 . S
O664 C662 1.270 . S
C665 O658 1.262 . S
C665 O666 1.232 . S
O666 C665 1.232 . S
C667 O659 1.260 . S
C667 O660 1.257 . S
Zn668 O671 2.031 . S
Zn668 O673 2.049 . S
Zn668 O678 2.067 . S
Zn669 O670 1.962 . S
Zn669 O672 1.986 . S
Zn669 O674 1.996 1_554 S
Zn669 O677 1.943 . S
O670 Zn669 1.962 . S
O670 C675 1.254 . S
O671 Zn668 2.031 . S
O671 C675 1.269 1_556 S
O672 Zn669 1.986 . S
O672 C679 1.262 . S
O673 Zn668 2.049 . S
O673 C681 1.260 . S
O674 Zn669 1.996 1_556 S
O674 C681 1.257 . S
C675 O670 1.254 . S
C675 O671 1.269 1_554 S
C676 O677 1.249 1_556 S
C676 O678 1.270 . S
O677 Zn669 1.943 . S
O677 C676 1.249 1_554 S
O678 Zn668 2.067 . S
O678 C676 1.270 . S
C679 O672 1.262 . S
C679 O680 1.232 . S
O680 C679 1.232 . S
C681 O673 1.260 . S
C681 O674 1.257 . S
Zn682 O685 2.027 1_565 S
Zn682 O687 2.053 . S
Zn682 O692 2.073 . S
Zn683 O684 1.962 . S
Zn683 O686 1.986 . S
Zn683 O688 1.996 . S
Zn683 O691 1.943 1_545 S
O684 Zn683 1.962 . S
O684 C689 1.254 . S
O685 Zn682 2.027 1_545 S
O685 C689 1.269 . S
O686 Zn683 1.986 . S
O686 C693 1.262 . S
O687 Zn682 2.053 . S
O687 C695 1.260 . S
O688 Zn683 1.996 . S
O688 C695 1.257 1_545 S
C689 O684 1.254 . S
C689 O685 1.269 . S
C690 O691 1.249 . S
C690 O692 1.270 . S
O691 Zn683 1.943 1_565 S
O691 C690 1.249 . S
O692 Zn682 2.073 . S
O692 C690 1.270 . S
C693 O686 1.262 . S
C693 O694 1.232 . S
O694 C693 1.232 . S
C695 O687 1.260 . S
C695 O688 1.257 1_565 S
Zn696 O699 2.031 . S
Zn696 O701 2.049 . S
Zn696 O706 2.067 . S
Zn697 O698 1.962 . S
Zn697 O700 1.986 . S
Zn697 O702 1.996 . S
Zn697 O705 1.943 . S
O698 Zn697 1.962 . S
O698 C703 1.254 . S
O699 Zn696 2.031 . S
O699 C703 1.269 . S
O700 Zn697 1.986 . S
O700 C707 1.262 . S
O701 Zn696 2.049 . S
O701 C709 1.260 . S
O702 Zn697 1.996 . S
O702 C709 1.257 . S
C703 O698 1.254 . S
C703 O699 1.269 . S
C704 O705 1.249 . S
C704 O706 1.270 . S
O705 Zn697 1.943 . S
O705 C704 1.249 . S
O706 Zn696 2.067 . S
O706 C704 1.270 . S
C707 O700 1.262 . S
C707 O708 1.232 . S
O708 C707 1.232 . S
C709 O701 1.260 . S
C709 O702 1.257 . S
Zn710 O713 2.031 . S
Zn710 O715 2.049 . S
Zn710 O720 2.067 . S
Zn711 O712 1.962 . S
Zn711 O714 1.986 . S
Zn711 O716 1.996 . S
Zn711 O719 1.943 . S
O712 Zn711 1.962 . S
O712 C717 1.254 . S
O713 Zn710 2.031 . S
O713 C717 1.269 . S
O714 Zn711 1.986 . S
O714 C721 1.262 . S
O715 Zn710 2.049 . S
O715 C723 1.260 . S
O716 Zn711 1.996 . S
O716 C723 1.257 . S
C717 O712 1.254 . S
C717 O713 1.269 . S
C718 O719 1.249 . S
C718 O720 1.270 . S
O719 Zn711 1.943 . S
O719 C718 1.249 . S
O720 Zn710 2.067 . S
O720 C718 1.270 . S
C721 O714 1.262 . S
C721 O722 1.232 . S
O722 C721 1.232 . S
C723 O715 1.260 . S
C723 O716 1.257 . S
Zn724 O727 2.031 . S
Zn724 O729 2.049 . S
Zn724 O734 2.067 . S
Zn725 O726 1.962 . S
Zn725 O728 1.986 . S
Zn725 O730 1.996 . S
Zn725 O733 1.943 . S
O726 Zn725 1.962 . S
O726 C731 1.254 . S
O727 Zn724 2.031 . S
O727 C731 1.269 . S
O728 Zn725 1.986 . S
O728 C735 1.262 . S
O729 Zn724 2.049 . S
O729 C737 1.260 . S
O730 Zn725 1.996 . S
O730 C737 1.257 . S
C731 O726 1.254 . S
C731 O727 1.269 . S
C732 O733 1.249 . S
C732 O734 1.270 . S
O733 Zn725 1.943 . S
O733 C732 1.249 . S
O734 Zn724 2.067 . S
O734 C732 1.270 . S
C735 O728 1.262 . S
C735 O736 1.232 . S
O736 C735 1.232 . S
C737 O729 1.260 . S
C737 O730 1.257 . S
Zn738 O741 2.031 . S
Zn738 O743 2.049 . S
Zn738 O748 2.067 . S
Zn739 O740 1.962 . S
Zn739 O742 1.986 . S
Zn739 O744 1.996 1_545 S
Zn739 O747 1.943 . S
O740 Zn739 1.962 . S
O740 C745 1.254 . S
O741 Zn738 2.031 . S
O741 C745 1.269 1_565 S
O742 Zn739 1.986 . S
O742 C749 1.262 . S
O743 Zn738 2.049 . S
O743 C751 1.260 . S
O744 Zn739 1.996 1_565 S
O744 C751 1.257 . S
C745 O740 1.254 . S
C745 O741 1.269 1_545 S
C746 O747 1.249 1_565 S
C746 O748 1.270 . S
O747 Zn739 1.943 . S
O747 C746 1.249 1_545 S
O748 Zn738 2.067 . S
O748 C746 1.270 . S
C749 O742 1.262 . S
C749 O750 1.232 . S
O750 C749 1.232 . S
C751 O743 1.260 . S
C751 O744 1.257 . S
Zn752 O755 2.052 . S
Zn752 O757 2.035 1_455 S
Zn752 O762 2.039 1_455 S
Zn753 O754 1.962 . S
Zn753 O756 1.986 . S
Zn753 O758 1.996 . S
Zn753 O761 1.943 1_455 S
O754 Zn753 1.962 . S
O754 C759 1.254 . S
O755 Zn752 2.052 . S
O755 C759 1.269 . S
O756 Zn753 1.986 . S
O756 C763 1.262 . S
O757 Zn752 2.035 1_655 S
O757 C765 1.260 . S
O758 Zn753 1.996 . S
O758 C765 1.257 1_455 S
C759 O754 1.254 . S
C759 O755 1.269 . S
C760 O761 1.249 . S
C760 O762 1.270 . S
O761 Zn753 1.943 1_655 S
O761 C760 1.249 . S
O762 Zn752 2.039 1_655 S
O762 C760 1.270 . S
C763 O756 1.262 . S
C763 O764 1.232 . S
O764 C763 1.232 . S
C765 O757 1.260 . S
C765 O758 1.257 1_655 S
Zn766 O769 2.031 . S
Zn766 O771 2.049 . S
Zn766 O776 2.067 . S
Zn767 O768 1.962 . S
Zn767 O770 1.986 . S
Zn767 O772 1.996 . S
Zn767 O775 1.943 . S
O768 Zn767 1.962 . S
O768 C773 1.254 . S
O769 Zn766 2.031 . S
O769 C773 1.269 . S
O770 Zn767 1.986 . S
O770 C777 1.262 . S
O771 Zn766 2.049 . S
O771 C779 1.260 . S
O772 Zn767 1.996 . S
O772 C779 1.257 . S
C773 O768 1.254 . S
C773 O769 1.269 . S
C774 O775 1.249 . S
C774 O776 1.270 . S
O775 Zn767 1.943 . S
O775 C774 1.249 . S
O776 Zn766 2.067 . S
O776 C774 1.270 . S
C777 O770 1.262 . S
C777 O778 1.232 . S
O778 C777 1.232 . S
C779 O771 1.260 . S
C779 O772 1.257 . S
Zn780 O783 2.031 . S
Zn780 O785 2.049 . S
Zn780 O790 2.067 . S
Zn781 O782 1.962 . S
Zn781 O784 1.986 . S
Zn781 O786 1.996 1_455 S
Zn781 O789 1.943 . S
O782 Zn781 1.962 . S
O782 C787 1.254 . S
O783 Zn780 2.031 . S
O783 C787 1.269 1_655 S
O784 Zn781 1.986 . S
O784 C791 1.262 . S
O785 Zn780 2.049 . S
O785 C793 1.260 . S
O786 Zn781 1.996 1_655 S
O786 C793 1.257 . S
C787 O782 1.254 . S
C787 O783 1.269 1_455 S
C788 O789 1.249 1_655 S
C788 O790 1.270 . S
O789 Zn781 1.943 . S
O789 C788 1.249 1_455 S
O790 Zn780 2.067 . S
O790 C788 1.270 . S
C791 O784 1.262 . S
C791 O792 1.232 . S
O792 C791 1.232 . S
C793 O785 1.260 . S
C793 O786 1.257 . S
Zn794 O797 2.031 . S
Zn794 O799 2.049 . S
Zn794 O804 2.067 . S
Zn795 O796 1.962 . S
Zn795 O798 1.986 . S
Zn795 O800 1.996 . S
Zn795 O803 1.943 . S
O796 Zn795 1.962 . S
O796 C801 1.254 . S
O797 Zn794 2.031 . S
O797 C801 1.269 . S
O798 Zn795 1.986 . S
O798 C805 1.262 . S
O799 Zn794 2.049 . S
O799 C807 1.260 . S
O800 Zn795 1.996 . S
O800 C807 1.257 . S
C801 O796 1.254 . S
C801 O797 1.269 . S
C802 O803 1.249 . S
C802 O804 1.270 . S
O803 Zn795 1.943 . S
O803 C802 1.249 . S
O804 Zn794 2.067 . S
O804 C802 1.270 . S
C805 O798 1.262 . S
C805 O806 1.232 . S
O806 C805 1.232 . S
C807 O799 1.260 . S
C807 O800 1.257 . S
H808 C816 0.950 . S
H809 C821 0.950 . S
H810 C818 0.950 . S
H811 C820 0.950 . S
H812 C822 0.950 . S
H813 C824 0.950 . S
H814 C826 0.950 . S
H815 C827 0.950 . S
C816 H808 0.950 . S
C816 C817 1.386 . S
C816 C818 1.391 . S
C817 C816 1.386 . S
C817 C821 1.393 . S
C818 H810 0.950 . S
C818 C816 1.391 . S
C818 C819 1.400 . S
C819 C818 1.400 . S
C819 C820 1.398 . S
C819 C825 1.491 . S
C820 H811 0.950 . S
C820 C819 1.398 . S
C820 C821 1.391 . S
C821 H809 0.950 . S
C821 C817 1.393 . S
C821 C820 1.391 . S
C822 H812 0.950 . S
C822 C823 1.386 . S
C822 C824 1.391 . S
C823 C822 1.386 . S
C823 C827 1.393 . S
C824 H813 0.950 . S
C824 C822 1.391 . S
C824 C825 1.400 . S
C825 C819 1.491 . S
C825 C824 1.400 . S
C825 C826 1.398 . S
C826 H814 0.950 . S
C826 C825 1.398 . S
C826 C827 1.391 . S
C827 H815 0.950 . S
C827 C823 1.393 . S
C827 C826 1.391 . S
H828 C836 0.950 . S
H829 C841 0.950 . S
H830 C838 0.950 . S
H831 C840 0.950 . S
H832 C842 0.950 . S
H833 C844 0.950 . S
H834 C846 0.950 . S
H835 C847 0.950 . S
C836 H828 0.950 . S
C836 C837 1.386 . S
C836 C838 1.391 . S
C837 C836 1.386 . S
C837 C841 1.393 . S
C838 H830 0.950 . S
C838 C836 1.391 . S
C838 C839 1.400 . S
C839 C838 1.400 . S
C839 C840 1.398 . S
C839 C845 1.491 . S
C840 H831 0.950 . S
C840 C839 1.398 . S
C840 C841 1.391 . S
C841 H829 0.950 . S
C841 C837 1.393 . S
C841 C840 1.391 . S
C842 H832 0.950 . S
C842 C843 1.386 . S
C842 C844 1.391 . S
C843 C842 1.386 . S
C843 C847 1.393 . S
C844 H833 0.950 . S
C844 C842 1.391 . S
C844 C845 1.400 . S
C845 C839 1.491 . S
C845 C844 1.400 . S
C845 C846 1.398 . S
C846 H834 0.950 . S
C846 C845 1.398 . S
C846 C847 1.391 . S
C847 H835 0.950 . S
C847 C843 1.393 . S
C847 C846 1.391 . S
H848 C856 0.950 . S
H849 C861 0.950 . S
H850 C858 0.950 . S
H851 C860 0.950 . S
H852 C862 0.950 . S
H853 C864 0.950 . S
H854 C866 0.950 . S
H855 C867 0.950 . S
C856 H848 0.950 . S
C856 C857 1.386 . S
C856 C858 1.391 . S
C857 C856 1.386 . S
C857 C861 1.393 . S
C858 H850 0.950 . S
C858 C856 1.391 . S
C858 C859 1.400 . S
C859 C858 1.400 . S
C859 C860 1.398 . S
C859 C865 1.491 . S
C860 H851 0.950 . S
C860 C859 1.398 . S
C860 C861 1.391 . S
C861 H849 0.950 . S
C861 C857 1.393 . S
C861 C860 1.391 . S
C862 H852 0.950 . S
C862 C863 1.386 . S
C862 C864 1.391 . S
C863 C862 1.386 . S
C863 C867 1.393 . S
C864 H853 0.950 . S
C864 C862 1.391 . S
C864 C865 1.400 . S
C865 C859 1.491 . S
C865 C864 1.400 . S
C865 C866 1.398 . S
C866 H854 0.950 . S
C866 C865 1.398 . S
C866 C867 1.391 . S
C867 H855 0.950 . S
C867 C863 1.393 . S
C867 C866 1.391 . S
H868 C876 0.950 . S
H869 C881 0.950 . S
H870 C878 0.950 . S
H871 C880 0.950 . S
H872 C882 0.915 1_545 S
H873 C884 0.950 1_545 S
H874 C886 0.950 . S
H875 C887 0.950 . S
C876 H868 0.950 . S
C876 C877 1.386 . S
C876 C878 1.391 . S
C877 C876 1.386 . S
C877 C881 1.393 . S
C878 H870 0.950 . S
C878 C876 1.391 . S
C878 C879 1.400 . S
C879 C878 1.400 . S
C879 C880 1.398 . S
C879 C885 1.491 . S
C880 H871 0.950 . S
C880 C879 1.398 . S
C880 C881 1.391 . S
C881 H869 0.950 . S
C881 C877 1.393 . S
C881 C880 1.391 . S
C882 H872 0.915 1_565 S
C882 C883 1.410 . S
C882 C884 1.403 . S
C883 C882 1.410 . S
C883 C887 1.393 . S
C884 H873 0.950 1_565 S
C884 C882 1.403 . S
C884 C885 1.400 . S
C885 C879 1.491 . S
C885 C884 1.400 . S
C885 C886 1.398 . S
C886 H874 0.950 . S
C886 C885 1.398 . S
C886 C887 1.391 . S
C887 H875 0.950 . S
C887 C883 1.393 . S
C887 C886 1.391 . S
H888 C896 0.950 . S
H889 C901 0.950 . S
H890 C898 0.950 . S
H891 C900 0.950 . S
H892 C902 0.950 . S
H893 C904 0.950 . S
H894 C906 0.950 . S
H895 C907 0.950 . S
C896 H888 0.950 . S
C896 C897 1.386 . S
C896 C898 1.391 . S
C897 C896 1.386 . S
C897 C901 1.393 . S
C898 H890 0.950 . S
C898 C896 1.391 . S
C898 C899 1.400 . S
C899 C898 1.400 . S
C899 C900 1.398 . S
C899 C905 1.491 . S
C900 H891 0.950 . S
C900 C899 1.398 . S
C900 C901 1.391 . S
C901 H889 0.950 . S
C901 C897 1.393 . S
C901 C900 1.391 . S
C902 H892 0.950 . S
C902 C903 1.386 . S
C902 C904 1.391 . S
C903 C902 1.386 . S
C903 C907 1.393 . S
C904 H893 0.950 . S
C904 C902 1.391 . S
C904 C905 1.400 . S
C905 C899 1.491 . S
C905 C904 1.400 . S
C905 C906 1.398 . S
C906 H894 0.950 . S
C906 C905 1.398 . S
C906 C907 1.391 . S
C907 H895 0.950 . S
C907 C903 1.393 . S
C907 C906 1.391 . S
H908 C916 0.950 . S
H909 C921 0.950 . S
H910 C918 0.950 . S
H911 C920 0.950 . S
H912 C922 0.950 . S
H913 C924 0.950 . S
H914 C926 0.950 . S
H915 C927 0.950 . S
C916 H908 0.950 . S
C916 C917 1.386 . S
C916 C918 1.391 . S
C917 C916 1.386 . S
C917 C921 1.393 . S
C918 H910 0.950 . S
C918 C916 1.391 . S
C918 C919 1.400 . S
C919 C918 1.400 . S
C919 C920 1.398 . S
C919 C925 1.491 . S
C920 H911 0.950 . S
C920 C919 1.398 . S
C920 C921 1.391 . S
C921 H909 0.950 . S
C921 C917 1.393 . S
C921 C920 1.391 . S
C922 H912 0.950 . S
C922 C923 1.386 . S
C922 C924 1.391 . S
C923 C922 1.386 . S
C923 C927 1.393 . S
C924 H913 0.950 . S
C924 C922 1.391 . S
C924 C925 1.400 . S
C925 C919 1.491 . S
C925 C924 1.400 . S
C925 C926 1.398 . S
C926 H914 0.950 . S
C926 C925 1.398 . S
C926 C927 1.391 . S
C927 H915 0.950 . S
C927 C923 1.393 . S
C927 C926 1.391 . S
H928 C936 0.950 . S
H929 C941 0.950 . S
H930 C938 0.950 . S
H931 C940 0.950 . S
H932 C942 0.950 . S
H933 C944 0.950 . S
H934 C946 0.950 . S
H935 C947 0.950 . S
C936 H928 0.950 . S
C936 C937 1.386 . S
C936 C938 1.391 . S
C937 C936 1.386 . S
C937 C941 1.393 . S
C938 H930 0.950 . S
C938 C936 1.391 . S
C938 C939 1.400 . S
C939 C938 1.400 . S
C939 C940 1.398 . S
C939 C945 1.491 . S
C940 H931 0.950 . S
C940 C939 1.398 . S
C940 C941 1.391 . S
C941 H929 0.950 . S
C941 C937 1.393 . S
C941 C940 1.391 . S
C942 H932 0.950 . S
C942 C943 1.386 . S
C942 C944 1.391 . S
C943 C942 1.386 . S
C943 C947 1.393 . S
C944 H933 0.950 . S
C944 C942 1.391 . S
C944 C945 1.400 . S
C945 C939 1.491 . S
C945 C944 1.400 . S
C945 C946 1.398 . S
C946 H934 0.950 . S
C946 C945 1.398 . S
C946 C947 1.391 . S
C947 H935 0.950 . S
C947 C943 1.393 . S
C947 C946 1.391 . S
H948 C956 0.950 1_545 S
H949 C961 0.950 . S
H950 C958 0.950 1_545 S
H951 C960 0.950 . S
H952 C962 0.950 . S
H953 C964 0.950 . S
H954 C966 0.950 . S
H955 C967 0.950 . S
C956 H948 0.950 1_565 S
C956 C957 1.386 . S
C956 C958 1.391 . S
C957 C956 1.386 . S
C957 C961 1.393 . S
C958 H950 0.950 1_565 S
C958 C956 1.391 . S
C958 C959 1.400 . S
C959 C958 1.400 . S
C959 C960 1.398 . S
C959 C965 1.491 . S
C960 H951 0.950 . S
C960 C959 1.398 . S
C960 C961 1.391 . S
C961 H949 0.950 . S
C961 C957 1.393 . S
C961 C960 1.391 . S
C962 H952 0.950 . S
C962 C963 1.386 . S
C962 C964 1.391 . S
C963 C962 1.386 . S
C963 C967 1.393 1_565 S
C964 H953 0.950 . S
C964 C962 1.391 . S
C964 C965 1.400 . S
C965 C959 1.491 . S
C965 C964 1.400 . S
C965 C966 1.398 1_565 S
C966 H954 0.950 . S
C966 C965 1.398 1_545 S
C966 C967 1.391 . S
C967 H955 0.950 . S
C967 C963 1.393 1_545 S
C967 C966 1.391 . S
H968 C976 0.950 . S
H969 C981 0.950 . S
H970 C978 0.950 . S
H971 C980 0.950 . S
H972 C982 0.950 . S
H973 C984 0.950 . S
H974 C986 0.950 . S
H975 C987 0.950 . S
C976 H968 0.950 . S
C976 C977 1.386 . S
C976 C978 1.391 . S
C977 C976 1.386 . S
C977 C981 1.393 . S
C978 H970 0.950 . S
C978 C976 1.391 . S
C978 C979 1.400 . S
C979 C978 1.400 . S
C979 C980 1.398 . S
C979 C985 1.491 . S
C980 H971 0.950 . S
C980 C979 1.398 . S
C980 C981 1.391 . S
C981 H969 0.950 . S
C981 C977 1.393 . S
C981 C980 1.391 . S
C982 H972 0.950 . S
C982 C983 1.386 . S
C982 C984 1.391 . S
C983 C982 1.386 . S
C983 C987 1.393 . S
C984 H973 0.950 . S
C984 C982 1.391 . S
C984 C985 1.400 . S
C985 C979 1.491 . S
C985 C984 1.400 . S
C985 C986 1.398 . S
C986 H974 0.950 . S
C986 C985 1.398 . S
C986 C987 1.391 . S
C987 H975 0.950 . S
C987 C983 1.393 . S
C987 C986 1.391 . S
H988 C996 0.950 . S
H989 C1001 0.950 . S
H990 C998 0.950 . S
H991 C1000 0.950 . S
H992 C1002 0.950 . S
H993 C1004 0.950 . S
H994 C1006 0.950 . S
H995 C1007 0.950 . S
C996 H988 0.950 . S
C996 C997 1.386 . S
C996 C998 1.391 . S
C997 C996 1.386 . S
C997 C1001 1.393 . S
C998 H990 0.950 . S
C998 C996 1.391 . S
C998 C999 1.400 . S
C999 C998 1.400 . S
C999 C1000 1.398 . S
C999 C1005 1.491 . S
C1000 H991 0.950 . S
C1000 C999 1.398 . S
C1000 C1001 1.391 . S
C1001 H989 0.950 . S
C1001 C997 1.393 . S
C1001 C1000 1.391 . S
C1002 H992 0.950 . S
C1002 C1003 1.386 . S
C1002 C1004 1.391 . S
C1003 C1002 1.386 . S
C1003 C1007 1.393 . S
C1004 H993 0.950 . S
C1004 C1002 1.391 . S
C1004 C1005 1.400 . S
C1005 C999 1.491 . S
C1005 C1004 1.400 . S
C1005 C1006 1.398 . S
C1006 H994 0.950 . S
C1006 C1005 1.398 . S
C1006 C1007 1.391 . S
C1007 H995 0.950 . S
C1007 C1003 1.393 . S
C1007 C1006 1.391 . S
H1008 C1016 0.950 . S
H1009 C1021 0.950 . S
H1010 C1018 0.950 . S
H1011 C1020 0.950 . S
H1012 C1022 0.950 . S
H1013 C1024 0.950 . S
H1014 C1026 0.950 . S
H1015 C1027 0.950 . S
C1016 H1008 0.950 . S
C1016 C1017 1.386 . S
C1016 C1018 1.391 . S
C1017 C1016 1.386 . S
C1017 C1021 1.393 . S
C1018 H1010 0.950 . S
C1018 C1016 1.391 . S
C1018 C1019 1.400 . S
C1019 C1018 1.400 . S
C1019 C1020 1.398 . S
C1019 C1025 1.491 . S
C1020 H1011 0.950 . S
C1020 C1019 1.398 . S
C1020 C1021 1.391 . S
C1021 H1009 0.950 . S
C1021 C1017 1.393 . S
C1021 C1020 1.391 . S
C1022 H1012 0.950 . S
C1022 C1023 1.386 . S
C1022 C1024 1.391 . S
C1023 C1022 1.386 . S
C1023 C1027 1.393 . S
C1024 H1013 0.950 . S
C1024 C1022 1.391 . S
C1024 C1025 1.400 . S
C1025 C1019 1.491 . S
C1025 C1024 1.400 . S
C1025 C1026 1.398 . S
C1026 H1014 0.950 . S
C1026 C1025 1.398 . S
C1026 C1027 1.391 . S
C1027 H1015 0.950 . S
C1027 C1023 1.393 . S
C1027 C1026 1.391 . S
H1028 C1036 0.950 . S
H1029 C1041 0.950 . S
H1030 C1038 0.950 . S
H1031 C1040 0.950 . S
H1032 C1042 0.950 . S
H1033 C1044 0.950 . S
H1034 C1046 0.950 . S
H1035 C1047 0.950 . S
C1036 H1028 0.950 . S
C1036 C1037 1.386 . S
C1036 C1038 1.391 . S
C1037 C1036 1.386 . S
C1037 C1041 1.393 . S
C1038 H1030 0.950 . S
C1038 C1036 1.391 . S
C1038 C1039 1.400 . S
C1039 C1038 1.400 . S
C1039 C1040 1.398 . S
C1039 C1045 1.491 . S
C1040 H1031 0.950 . S
C1040 C1039 1.398 . S
C1040 C1041 1.391 . S
C1041 H1029 0.950 . S
C1041 C1037 1.393 . S
C1041 C1040 1.391 . S
C1042 H1032 0.950 . S
C1042 C1043 1.386 . S
C1042 C1044 1.391 . S
C1043 C1042 1.386 . S
C1043 C1047 1.393 . S
C1044 H1033 0.950 . S
C1044 C1042 1.391 . S
C1044 C1045 1.400 . S
C1045 C1039 1.491 . S
C1045 C1044 1.400 . S
C1045 C1046 1.398 . S
C1046 H1034 0.950 . S
C1046 C1045 1.398 . S
C1046 C1047 1.391 . S
C1047 H1035 0.950 . S
C1047 C1043 1.393 . S
C1047 C1046 1.391 . S
H1048 C1056 0.950 . S
H1049 C1061 0.950 . S
H1050 C1058 0.950 . S
H1051 C1060 0.950 . S
H1052 C1062 0.950 . S
H1053 C1064 0.950 . S
H1054 C1066 0.950 . S
H1055 C1067 0.950 . S
C1056 H1048 0.950 . S
C1056 C1057 1.386 . S
C1056 C1058 1.391 . S
C1057 C1056 1.386 . S
C1057 C1061 1.393 . S
C1058 H1050 0.950 . S
C1058 C1056 1.391 . S
C1058 C1059 1.400 . S
C1059 C1058 1.400 . S
C1059 C1060 1.398 . S
C1059 C1065 1.491 . S
C1060 H1051 0.950 . S
C1060 C1059 1.398 . S
C1060 C1061 1.391 . S
C1061 H1049 0.950 . S
C1061 C1057 1.393 . S
C1061 C1060 1.391 . S
C1062 H1052 0.950 . S
C1062 C1063 1.386 . S
C1062 C1064 1.391 . S
C1063 C1062 1.386 . S
C1063 C1067 1.393 . S
C1064 H1053 0.950 . S
C1064 C1062 1.391 . S
C1064 C1065 1.400 . S
C1065 C1059 1.491 . S
C1065 C1064 1.400 . S
C1065 C1066 1.398 . S
C1066 H1054 0.950 . S
C1066 C1065 1.398 . S
C1066 C1067 1.391 . S
C1067 H1055 0.950 . S
C1067 C1063 1.393 . S
C1067 C1066 1.391 . S
H1068 C1076 0.950 . S
H1069 C1081 0.950 . S
H1070 C1078 0.950 . S
H1071 C1080 0.950 . S
H1072 C1082 0.950 . S
H1073 C1084 0.950 . S
H1074 C1086 0.950 1_655 S
H1075 C1087 0.950 1_655 S
C1076 H1068 0.950 . S
C1076 C1077 1.386 . S
C1076 C1078 1.391 . S
C1077 C1076 1.386 . S
C1077 C1081 1.393 . S
C1078 H1070 0.950 . S
C1078 C1076 1.391 . S
C1078 C1079 1.400 . S
C1079 C1078 1.400 . S
C1079 C1080 1.398 . S
C1079 C1085 1.491 . S
C1080 H1071 0.950 . S
C1080 C1079 1.398 . S
C1080 C1081 1.391 . S
C1081 H1069 0.950 . S
C1081 C1077 1.393 . S
C1081 C1080 1.391 . S
C1082 H1072 0.950 . S
C1082 C1083 1.386 . S
C1082 C1084 1.391 . S
C1083 C1082 1.386 . S
C1083 C1087 1.393 . S
C1084 H1073 0.950 . S
C1084 C1082 1.391 . S
C1084 C1085 1.400 . S
C1085 C1079 1.491 . S
C1085 C1084 1.400 . S
C1085 C1086 1.398 . S
C1086 H1074 0.950 1_455 S
C1086 C1085 1.398 . S
C1086 C1087 1.391 . S
C1087 H1075 0.950 1_455 S
C1087 C1083 1.393 . S
C1087 C1086 1.391 . S
H1088 C1096 0.950 . S
H1089 C1101 0.950 . S
H1090 C1098 0.950 . S
H1091 C1100 0.950 . S
H1092 C1102 0.950 . S
H1093 C1104 0.950 . S
H1094 C1106 0.950 . S
H1095 C1107 0.950 . S
C1096 H1088 0.950 . S
C1096 C1097 1.386 . S
C1096 C1098 1.391 . S
C1097 C1096 1.386 . S
C1097 C1101 1.393 . S
C1098 H1090 0.950 . S
C1098 C1096 1.391 . S
C1098 C1099 1.400 . S
C1099 C1098 1.400 . S
C1099 C1100 1.398 . S
C1099 C1105 1.491 . S
C1100 H1091 0.950 . S
C1100 C1099 1.398 . S
C1100 C1101 1.391 . S
C1101 H1089 0.950 . S
C1101 C1097 1.393 . S
C1101 C1100 1.391 . S
C1102 H1092 0.950 . S
C1102 C1103 1.386 . S
C1102 C1104 1.391 . S
C1103 C1102 1.386 . S
C1103 C1107 1.393 . S
C1104 H1093 0.950 . S
C1104 C1102 1.391 . S
C1104 C1105 1.400 . S
C1105 C1099 1.491 . S
C1105 C1104 1.400 . S
C1105 C1106 1.398 . S
C1106 H1094 0.950 . S
C1106 C1105 1.398 . S
C1106 C1107 1.391 . S
C1107 H1095 0.950 . S
C1107 C1103 1.393 . S
C1107 C1106 1.391 . S
H1108 C1116 0.950 . S
H1109 C1121 0.950 . S
H1110 C1118 0.950 . S
H1111 C1120 0.954 . S
H1112 C1122 0.981 . S
H1113 C1124 0.950 1_455 S
H1114 C1126 0.950 . S
H1115 C1127 0.950 . S
C1116 H1108 0.950 . S
C1116 C1117 1.386 . S
C1116 C1118 1.391 . S
C1117 C1116 1.386 . S
C1117 C1121 1.393 . S
C1118 H1110 0.950 . S
C1118 C1116 1.391 . S
C1118 C1119 1.400 . S
C1119 C1118 1.400 . S
C1119 C1120 1.398 . S
C1119 C1125 1.491 . S
C1120 H1111 0.954 . S
C1120 C1119 1.398 . S
C1120 C1121 1.391 . S
C1121 H1109 0.950 . S
C1121 C1117 1.393 . S
C1121 C1120 1.391 . S
C1122 H1112 0.981 . S
C1122 C1123 1.365 1_455 S
C1122 C1124 1.385 1_455 S
C1123 C1122 1.365 1_655 S
C1123 C1127 1.393 . S
C1124 H1113 0.950 1_655 S
C1124 C1122 1.385 1_655 S
C1124 C1125 1.400 . S
C1125 C1119 1.491 . S
C1125 C1124 1.400 . S
C1125 C1126 1.398 . S
C1126 H1114 0.950 . S
C1126 C1125 1.398 . S
C1126 C1127 1.391 . S
C1127 H1115 0.950 . S
C1127 C1123 1.393 . S
C1127 C1126 1.391 . S
H1128 C1136 0.950 . S
H1129 C1141 0.950 . S
H1130 C1138 0.950 . S
H1131 C1140 0.950 . S
H1132 C1142 0.950 . S
H1133 C1144 0.950 . S
H1134 C1146 0.950 . S
H1135 C1147 0.950 . S
C1136 H1128 0.950 . S
C1136 C1137 1.386 . S
C1136 C1138 1.391 . S
C1137 C1136 1.386 . S
C1137 C1141 1.393 . S
C1138 H1130 0.950 . S
C1138 C1136 1.391 . S
C1138 C1139 1.400 . S
C1139 C1138 1.400 . S
C1139 C1140 1.398 . S
C1139 C1145 1.491 . S
C1140 H1131 0.950 . S
C1140 C1139 1.398 . S
C1140 C1141 1.391 . S
C1141 H1129 0.950 . S
C1141 C1137 1.393 . S
C1141 C1140 1.391 . S
C1142 H1132 0.950 . S
C1142 C1143 1.386 . S
C1142 C1144 1.391 . S
C1143 C1142 1.386 . S
C1143 C1147 1.393 . S
C1144 H1133 0.950 . S
C1144 C1142 1.391 . S
C1144 C1145 1.400 . S
C1145 C1139 1.491 . S
C1145 C1144 1.400 . S
C1145 C1146 1.398 . S
C1146 H1134 0.950 . S
C1146 C1145 1.398 . S
C1146 C1147 1.391 . S
C1147 H1135 0.950 . S
C1147 C1143 1.393 . S
C1147 C1146 1.391 . S
H1148 C1156 0.950 . S
H1149 C1161 0.950 . S
H1150 C1158 0.950 . S
H1151 C1160 0.950 . S
H1152 C1162 0.950 . S
H1153 C1164 0.950 . S
H1154 C1166 0.950 . S
H1155 C1167 0.950 . S
C1156 H1148 0.950 . S
C1156 C1157 1.386 . S
C1156 C1158 1.391 . S
C1157 C1156 1.386 . S
C1157 C1161 1.393 . S
C1158 H1150 0.950 . S
C1158 C1156 1.391 . S
C1158 C1159 1.400 . S
C1159 C1158 1.400 . S
C1159 C1160 1.398 . S
C1159 C1165 1.491 . S
C1160 H1151 0.950 . S
C1160 C1159 1.398 . S
C1160 C1161 1.391 . S
C1161 H1149 0.950 . S
C1161 C1157 1.393 . S
C1161 C1160 1.391 . S
C1162 H1152 0.950 . S
C1162 C1163 1.386 . S
C1162 C1164 1.391 . S
C1163 C1162 1.386 . S
C1163 C1167 1.393 . S
C1164 H1153 0.950 . S
C1164 C1162 1.391 . S
C1164 C1165 1.400 . S
C1165 C1159 1.491 . S
C1165 C1164 1.400 . S
C1165 C1166 1.398 . S
C1166 H1154 0.950 . S
C1166 C1165 1.398 . S
C1166 C1167 1.391 . S
C1167 H1155 0.950 . S
C1167 C1163 1.393 . S
C1167 C1166 1.391 . S
H1168 C1176 0.950 . S
H1169 C1181 0.950 . S
H1170 C1178 0.950 . S
H1171 C1180 0.950 . S
H1172 C1182 0.950 . S
H1173 C1184 0.950 . S
H1174 C1186 0.950 . S
H1175 C1187 0.950 . S
C1176 H1168 0.950 . S
C1176 C1177 1.386 . S
C1176 C1178 1.391 . S
C1177 C1176 1.386 . S
C1177 C1181 1.393 . S
C1178 H1170 0.950 . S
C1178 C1176 1.391 . S
C1178 C1179 1.400 . S
C1179 C1178 1.400 . S
C1179 C1180 1.398 . S
C1179 C1185 1.491 . S
C1180 H1171 0.950 . S
C1180 C1179 1.398 . S
C1180 C1181 1.391 . S
C1181 H1169 0.950 . S
C1181 C1177 1.393 . S
C1181 C1180 1.391 . S
C1182 H1172 0.950 . S
C1182 C1183 1.386 . S
C1182 C1184 1.391 . S
C1183 C1182 1.386 . S
C1183 C1187 1.393 . S
C1184 H1173 0.950 . S
C1184 C1182 1.391 . S
C1184 C1185 1.400 . S
C1185 C1179 1.491 . S
C1185 C1184 1.400 . S
C1185 C1186 1.398 . S
C1186 H1174 0.950 . S
C1186 C1185 1.398 . S
C1186 C1187 1.391 . S
C1187 H1175 0.950 . S
C1187 C1183 1.393 . S
C1187 C1186 1.391 . S
H1188 C1196 0.950 . S
H1189 C1201 0.950 . S
H1190 C1198 0.950 . S
H1191 C1200 0.950 . S
H1192 C1202 0.950 . S
H1193 C1204 0.950 . S
H1194 C1206 0.950 . S
H1195 C1207 0.950 . S
C1196 H1188 0.950 . S
C1196 C1197 1.386 . S
C1196 C1198 1.391 . S
C1197 C1196 1.386 . S
C1197 C1201 1.393 . S
C1198 H1190 0.950 . S
C1198 C1196 1.391 . S
C1198 C1199 1.400 . S
C1199 C1198 1.400 . S
C1199 C1200 1.398 . S
C1199 C1205 1.491 . S
C1200 H1191 0.950 . S
C1200 C1199 1.398 . S
C1200 C1201 1.391 . S
C1201 H1189 0.950 . S
C1201 C1197 1.393 . S
C1201 C1200 1.391 . S
C1202 H1192 0.950 . S
C1202 C1203 1.386 . S
C1202 C1204 1.391 . S
C1203 C1202 1.386 . S
C1203 C1207 1.393 . S
C1204 H1193 0.950 . S
C1204 C1202 1.391 . S
C1204 C1205 1.400 . S
C1205 C1199 1.491 . S
C1205 C1204 1.400 . S
C1205 C1206 1.398 . S
C1206 H1194 0.950 . S
C1206 C1205 1.398 . S
C1206 C1207 1.391 . S
C1207 H1195 0.950 . S
C1207 C1203 1.393 . S
C1207 C1206 1.391 . S
H1208 C1216 0.950 . S
H1209 C1221 0.950 . S
H1210 C1218 0.950 . S
H1211 C1220 0.950 . S
H1212 C1222 0.950 . S
H1213 C1224 0.950 . S
H1214 C1226 0.950 . S
H1215 C1227 0.950 . S
C1216 H1208 0.950 . S
C1216 C1217 1.386 . S
C1216 C1218 1.391 . S
C1217 C1216 1.386 . S
C1217 C1221 1.393 . S
C1218 H1210 0.950 . S
C1218 C1216 1.391 . S
C1218 C1219 1.400 . S
C1219 C1218 1.400 . S
C1219 C1220 1.398 . S
C1219 C1225 1.491 . S
C1220 H1211 0.950 . S
C1220 C1219 1.398 . S
C1220 C1221 1.391 . S
C1221 H1209 0.950 . S
C1221 C1217 1.393 . S
C1221 C1220 1.391 . S
C1222 H1212 0.950 . S
C1222 C1223 1.386 . S
C1222 C1224 1.391 . S
C1223 C1222 1.386 . S
C1223 C1227 1.393 . S
C1224 H1213 0.950 . S
C1224 C1222 1.391 . S
C1224 C1225 1.400 . S
C1225 C1219 1.491 . S
C1225 C1224 1.400 . S
C1225 C1226 1.398 . S
C1226 H1214 0.950 . S
C1226 C1225 1.398 . S
C1226 C1227 1.391 . S
C1227 H1215 0.950 . S
C1227 C1223 1.393 . S
C1227 C1226 1.391 . S
H1228 C1236 0.950 . S
H1229 C1241 0.950 . S
H1230 C1238 0.950 . S
H1231 C1240 0.950 . S
H1232 C1242 0.950 . S
H1233 C1244 0.950 . S
H1234 C1246 0.950 . S
H1235 C1247 0.950 . S
C1236 H1228 0.950 . S
C1236 C1237 1.386 . S
C1236 C1238 1.391 . S
C1237 C1236 1.386 . S
C1237 C1241 1.393 . S
C1238 H1230 0.950 . S
C1238 C1236 1.391 . S
C1238 C1239 1.400 . S
C1239 C1238 1.400 . S
C1239 C1240 1.398 . S
C1239 C1245 1.491 . S
C1240 H1231 0.950 . S
C1240 C1239 1.398 . S
C1240 C1241 1.391 . S
C1241 H1229 0.950 . S
C1241 C1237 1.393 . S
C1241 C1240 1.391 . S
C1242 H1232 0.950 . S
C1242 C1243 1.386 . S
C1242 C1244 1.391 . S
C1243 C1242 1.386 . S
C1243 C1247 1.393 . S
C1244 H1233 0.950 . S
C1244 C1242 1.391 . S
C1244 C1245 1.400 . S
C1245 C1239 1.491 . S
C1245 C1244 1.400 . S
C1245 C1246 1.398 . S
C1246 H1234 0.950 . S
C1246 C1245 1.398 . S
C1246 C1247 1.391 . S
C1247 H1235 0.950 . S
C1247 C1243 1.393 . S
C1247 C1246 1.391 . S
H1248 C1256 0.950 . S
H1249 C1261 0.950 . S
H1250 C1258 0.950 . S
H1251 C1260 0.950 . S
H1252 C1262 0.950 . S
H1253 C1264 0.950 . S
H1254 C1266 0.950 . S
H1255 C1267 0.950 . S
C1256 H1248 0.950 . S
C1256 C1257 1.386 . S
C1256 C1258 1.391 . S
C1257 C1256 1.386 . S
C1257 C1261 1.393 . S
C1258 H1250 0.950 . S
C1258 C1256 1.391 . S
C1258 C1259 1.400 . S
C1259 C1258 1.400 . S
C1259 C1260 1.398 . S
C1259 C1265 1.491 . S
C1260 H1251 0.950 . S
C1260 C1259 1.398 . S
C1260 C1261 1.391 . S
C1261 H1249 0.950 . S
C1261 C1257 1.393 . S
C1261 C1260 1.391 . S
C1262 H1252 0.950 . S
C1262 C1263 1.386 . S
C1262 C1264 1.391 . S
C1263 C1262 1.386 . S
C1263 C1267 1.393 . S
C1264 H1253 0.950 . S
C1264 C1262 1.391 . S
C1264 C1265 1.400 . S
C1265 C1259 1.491 . S
C1265 C1264 1.400 . S
C1265 C1266 1.398 . S
C1266 H1254 0.950 . S
C1266 C1265 1.398 . S
C1266 C1267 1.391 . S
C1267 H1255 0.950 . S
C1267 C1263 1.393 . S
C1267 C1266 1.391 . S
H1268 C1276 0.950 . S
H1269 C1281 0.950 . S
H1270 C1278 0.950 . S
H1271 C1280 0.950 . S
H1272 C1282 0.950 . S
H1273 C1284 0.950 . S
H1274 C1286 0.950 . S
H1275 C1287 0.950 . S
C1276 H1268 0.950 . S
C1276 C1277 1.386 . S
C1276 C1278 1.391 . S
C1277 C1276 1.386 . S
C1277 C1281 1.393 . S
C1278 H1270 0.950 . S
C1278 C1276 1.391 . S
C1278 C1279 1.400 . S
C1279 C1278 1.400 . S
C1279 C1280 1.398 . S
C1279 C1285 1.491 . S
C1280 H1271 0.950 . S
C1280 C1279 1.398 . S
C1280 C1281 1.391 . S
C1281 H1269 0.950 . S
C1281 C1277 1.393 . S
C1281 C1280 1.391 . S
C1282 H1272 0.950 . S
C1282 C1283 1.386 . S
C1282 C1284 1.391 . S
C1283 C1282 1.386 . S
C1283 C1287 1.393 . S
C1284 H1273 0.950 . S
C1284 C1282 1.391 . S
C1284 C1285 1.400 . S
C1285 C1279 1.491 . S
C1285 C1284 1.400 . S
C1285 C1286 1.398 . S
C1286 H1274 0.950 . S
C1286 C1285 1.398 . S
C1286 C1287 1.391 . S
C1287 H1275 0.950 . S
C1287 C1283 1.393 . S
C1287 C1286 1.391 . S
H1288 C1296 0.950 . S
H1289 C1301 0.950 . S
H1290 C1298 0.950 . S
H1291 C1300 0.950 . S
H1292 C1302 0.950 . S
H1293 C1304 0.950 . S
H1294 C1306 0.950 . S
H1295 C1307 0.950 . S
C1296 H1288 0.950 . S
C1296 C1297 1.386 . S
C1296 C1298 1.391 . S
C1297 C1296 1.386 . S
C1297 C1301 1.393 . S
C1298 H1290 0.950 . S
C1298 C1296 1.391 . S
C1298 C1299 1.400 . S
C1299 C1298 1.400 . S
C1299 C1300 1.398 . S
C1299 C1305 1.491 . S
C1300 H1291 0.950 . S
C1300 C1299 1.398 . S
C1300 C1301 1.391 . S
C1301 H1289 0.950 . S
C1301 C1297 1.393 . S
C1301 C1300 1.391 . S
C1302 H1292 0.950 . S
C1302 C1303 1.386 . S
C1302 C1304 1.391 . S
C1303 C1302 1.386 . S
C1303 C1307 1.393 . S
C1304 H1293 0.950 . S
C1304 C1302 1.391 . S
C1304 C1305 1.400 . S
C1305 C1299 1.491 . S
C1305 C1304 1.400 . S
C1305 C1306 1.398 . S
C1306 H1294 0.950 . S
C1306 C1305 1.398 . S
C1306 C1307 1.391 . S
C1307 H1295 0.950 . S
C1307 C1303 1.393 . S
C1307 C1306 1.391 . S
H1308 C1316 0.950 . S
H1309 C1321 0.950 . S
H1310 C1318 0.950 . S
H1311 C1320 0.950 . S
H1312 C1322 0.950 1_565 S
H1313 C1324 0.950 . S
H1314 C1326 0.950 . S
H1315 C1327 0.950 . S
C1316 H1308 0.950 . S
C1316 C1317 1.386 . S
C1316 C1318 1.391 . S
C1317 C1316 1.386 . S
C1317 C1321 1.393 . S
C1318 H1310 0.950 . S
C1318 C1316 1.391 . S
C1318 C1319 1.400 . S
C1319 C1318 1.400 . S
C1319 C1320 1.398 . S
C1319 C1325 1.491 . S
C1320 H1311 0.950 . S
C1320 C1319 1.398 . S
C1320 C1321 1.391 . S
C1321 H1309 0.950 . S
C1321 C1317 1.393 . S
C1321 C1320 1.391 . S
C1322 H1312 0.950 1_545 S
C1322 C1323 1.386 . S
C1322 C1324 1.391 . S
C1323 C1322 1.386 . S
C1323 C1327 1.393 . S
C1324 H1313 0.950 . S
C1324 C1322 1.391 . S
C1324 C1325 1.400 . S
C1325 C1319 1.491 . S
C1325 C1324 1.400 . S
C1325 C1326 1.398 . S
C1326 H1314 0.950 . S
C1326 C1325 1.398 . S
C1326 C1327 1.391 . S
C1327 H1315 0.950 . S
C1327 C1323 1.393 . S
C1327 C1326 1.391 . S
H1328 C1336 0.950 . S
H1329 C1341 0.950 . S
H1330 C1338 0.950 . S
H1331 C1340 0.950 . S
H1332 C1342 0.950 . S
H1333 C1344 0.950 . S
H1334 C1346 0.950 . S
H1335 C1347 0.950 . S
C1336 H1328 0.950 . S
C1336 C1337 1.386 . S
C1336 C1338 1.391 . S
C1337 C1336 1.386 . S
C1337 C1341 1.393 . S
C1338 H1330 0.950 . S
C1338 C1336 1.391 . S
C1338 C1339 1.400 . S
C1339 C1338 1.400 . S
C1339 C1340 1.398 . S
C1339 C1345 1.491 . S
C1340 H1331 0.950 . S
C1340 C1339 1.398 . S
C1340 C1341 1.391 . S
C1341 H1329 0.950 . S
C1341 C1337 1.393 . S
C1341 C1340 1.391 . S
C1342 H1332 0.950 . S
C1342 C1343 1.386 . S
C1342 C1344 1.391 . S
C1343 C1342 1.386 . S
C1343 C1347 1.393 . S
C1344 H1333 0.950 . S
C1344 C1342 1.391 . S
C1344 C1345 1.400 . S
C1345 C1339 1.491 . S
C1345 C1344 1.400 . S
C1345 C1346 1.398 . S
C1346 H1334 0.950 . S
C1346 C1345 1.398 . S
C1346 C1347 1.391 . S
C1347 H1335 0.950 . S
C1347 C1343 1.393 . S
C1347 C1346 1.391 . S
H1348 C1356 0.950 . S
H1349 C1361 0.950 . S
H1350 C1358 0.950 . S
H1351 C1360 0.950 . S
H1352 C1362 0.950 . S
H1353 C1364 0.950 . S
H1354 C1366 0.950 . S
H1355 C1367 0.950 . S
C1356 H1348 0.950 . S
C1356 C1357 1.386 . S
C1356 C1358 1.391 . S
C1357 C1356 1.386 . S
C1357 C1361 1.393 . S
C1358 H1350 0.950 . S
C1358 C1356 1.391 . S
C1358 C1359 1.400 . S
C1359 C1358 1.400 . S
C1359 C1360 1.398 . S
C1359 C1365 1.491 . S
C1360 H1351 0.950 . S
C1360 C1359 1.398 . S
C1360 C1361 1.391 . S
C1361 H1349 0.950 . S
C1361 C1357 1.393 . S
C1361 C1360 1.391 . S
C1362 H1352 0.950 . S
C1362 C1363 1.386 . S
C1362 C1364 1.391 . S
C1363 C1362 1.386 . S
C1363 C1367 1.393 . S
C1364 H1353 0.950 . S
C1364 C1362 1.391 . S
C1364 C1365 1.400 . S
C1365 C1359 1.491 . S
C1365 C1364 1.400 . S
C1365 C1366 1.398 . S
C1366 H1354 0.950 . S
C1366 C1365 1.398 . S
C1366 C1367 1.391 . S
C1367 H1355 0.950 . S
C1367 C1363 1.393 . S
C1367 C1366 1.391 . S
H1368 C1376 0.950 . S
H1369 C1381 0.950 . S
H1370 C1378 0.950 . S
H1371 C1380 0.950 . S
H1372 C1382 0.950 . S
H1373 C1384 0.950 . S
H1374 C1386 0.950 . S
H1375 C1387 0.950 . S
C1376 H1368 0.950 . S
C1376 C1377 1.386 . S
C1376 C1378 1.391 . S
C1377 C1376 1.386 . S
C1377 C1381 1.393 . S
C1378 H1370 0.950 . S
C1378 C1376 1.391 . S
C1378 C1379 1.400 . S
C1379 C1378 1.400 . S
C1379 C1380 1.398 . S
C1379 C1385 1.491 . S
C1380 H1371 0.950 . S
C1380 C1379 1.398 . S
C1380 C1381 1.391 . S
C1381 H1369 0.950 . S
C1381 C1377 1.393 . S
C1381 C1380 1.391 . S
C1382 H1372 0.950 . S
C1382 C1383 1.386 . S
C1382 C1384 1.391 . S
C1383 C1382 1.386 . S
C1383 C1387 1.393 . S
C1384 H1373 0.950 . S
C1384 C1382 1.391 . S
C1384 C1385 1.400 . S
C1385 C1379 1.491 . S
C1385 C1384 1.400 . S
C1385 C1386 1.398 . S
C1386 H1374 0.950 . S
C1386 C1385 1.398 . S
C1386 C1387 1.391 . S
C1387 H1375 0.950 . S
C1387 C1383 1.393 . S
C1387 C1386 1.391 . S
H1388 C1396 0.950 . S
H1389 C1401 0.950 1_565 S
H1390 C1398 0.950 . S
H1391 C1400 0.950 1_565 S
H1392 C1402 0.950 . S
H1393 C1404 0.950 . S
H1394 C1406 0.950 . S
H1395 C1407 0.950 . S
C1396 H1388 0.950 . S
C1396 C1397 1.386 . S
C1396 C1398 1.391 . S
C1397 C1396 1.386 . S
C1397 C1401 1.393 . S
C1398 H1390 0.950 . S
C1398 C1396 1.391 . S
C1398 C1399 1.400 . S
C1399 C1398 1.400 . S
C1399 C1400 1.398 . S
C1399 C1405 1.491 . S
C1400 H1391 0.950 1_545 S
C1400 C1399 1.398 . S
C1400 C1401 1.391 . S
C1401 H1389 0.950 1_545 S
C1401 C1397 1.393 . S
C1401 C1400 1.391 . S
C1402 H1392 0.950 . S
C1402 C1403 1.386 1_565 S
C1402 C1404 1.391 . S
C1403 C1402 1.386 1_545 S
C1403 C1407 1.393 . S
C1404 H1393 0.950 . S
C1404 C1402 1.391 . S
C1404 C1405 1.400 1_565 S
C1405 C1399 1.491 . S
C1405 C1404 1.400 1_545 S
C1405 C1406 1.398 . S
C1406 H1394 0.950 . S
C1406 C1405 1.398 . S
C1406 C1407 1.391 . S
C1407 H1395 0.950 . S
C1407 C1403 1.393 . S
C1407 C1406 1.391 . S
H1408 C1416 0.950 . S
H1409 C1421 0.950 . S
H1410 C1418 0.950 . S
H1411 C1420 0.950 . S
H1412 C1422 0.950 . S
H1413 C1424 0.950 . S
H1414 C1426 0.950 . S
H1415 C1427 0.950 . S
C1416 H1408 0.950 . S
C1416 C1417 1.386 . S
C1416 C1418 1.391 . S
C1417 C1416 1.386 . S
C1417 C1421 1.393 . S
C1418 H1410 0.950 . S
C1418 C1416 1.391 . S
C1418 C1419 1.400 . S
C1419 C1418 1.400 . S
C1419 C1420 1.398 . S
C1419 C1425 1.491 . S
C1420 H1411 0.950 . S
C1420 C1419 1.398 . S
C1420 C1421 1.391 . S
C1421 H1409 0.950 . S
C1421 C1417 1.393 . S
C1421 C1420 1.391 . S
C1422 H1412 0.950 . S
C1422 C1423 1.386 . S
C1422 C1424 1.391 . S
C1423 C1422 1.386 . S
C1423 C1427 1.393 . S
C1424 H1413 0.950 . S
C1424 C1422 1.391 . S
C1424 C1425 1.400 . S
C1425 C1419 1.491 . S
C1425 C1424 1.400 . S
C1425 C1426 1.398 . S
C1426 H1414 0.950 . S
C1426 C1425 1.398 . S
C1426 C1427 1.391 . S
C1427 H1415 0.950 . S
C1427 C1423 1.393 . S
C1427 C1426 1.391 . S
H1428 C1436 0.950 . S
H1429 C1441 0.950 . S
H1430 C1438 0.950 . S
H1431 C1440 0.950 . S
H1432 C1442 0.950 . S
H1433 C1444 0.950 . S
H1434 C1446 0.950 . S
H1435 C1447 0.950 . S
C1436 H1428 0.950 . S
C1436 C1437 1.386 . S
C1436 C1438 1.391 . S
C1437 C1436 1.386 . S
C1437 C1441 1.393 . S
C1438 H1430 0.950 . S
C1438 C1436 1.391 . S
C1438 C1439 1.400 . S
C1439 C1438 1.400 . S
C1439 C1440 1.398 . S
C1439 C1445 1.491 . S
C1440 H1431 0.950 . S
C1440 C1439 1.398 . S
C1440 C1441 1.391 . S
C1441 H1429 0.950 . S
C1441 C1437 1.393 . S
C1441 C1440 1.391 . S
C1442 H1432 0.950 . S
C1442 C1443 1.386 . S
C1442 C1444 1.391 . S
C1443 C1442 1.386 . S
C1443 C1447 1.393 . S
C1444 H1433 0.950 . S
C1444 C1442 1.391 . S
C1444 C1445 1.400 . S
C1445 C1439 1.491 . S
C1445 C1444 1.400 . S
C1445 C1446 1.398 . S
C1446 H1434 0.950 . S
C1446 C1445 1.398 . S
C1446 C1447 1.391 . S
C1447 H1435 0.950 . S
C1447 C1443 1.393 . S
C1447 C1446 1.391 . S
H1448 C1456 0.950 . S
H1449 C1461 0.950 . S
H1450 C1458 0.950 . S
H1451 C1460 0.950 . S
H1452 C1462 0.950 . S
H1453 C1464 0.950 . S
H1454 C1466 0.950 . S
H1455 C1467 0.950 . S
C1456 H1448 0.950 . S
C1456 C1457 1.386 . S
C1456 C1458 1.391 . S
C1457 C1456 1.386 . S
C1457 C1461 1.393 . S
C1458 H1450 0.950 . S
C1458 C1456 1.391 . S
C1458 C1459 1.400 . S
C1459 C1458 1.400 . S
C1459 C1460 1.398 . S
C1459 C1465 1.491 . S
C1460 H1451 0.950 . S
C1460 C1459 1.398 . S
C1460 C1461 1.391 . S
C1461 H1449 0.950 . S
C1461 C1457 1.393 . S
C1461 C1460 1.391 . S
C1462 H1452 0.950 . S
C1462 C1463 1.386 . S
C1462 C1464 1.391 . S
C1463 C1462 1.386 . S
C1463 C1467 1.393 . S
C1464 H1453 0.950 . S
C1464 C1462 1.391 . S
C1464 C1465 1.400 . S
C1465 C1459 1.491 . S
C1465 C1464 1.400 . S
C1465 C1466 1.398 . S
C1466 H1454 0.950 . S
C1466 C1465 1.398 . S
C1466 C1467 1.391 . S
C1467 H1455 0.950 . S
C1467 C1463 1.393 . S
C1467 C1466 1.391 . S
H1468 C1476 1.002 . S
H1469 C1481 0.950 . S
H1470 C1478 0.950 . S
H1471 C1480 0.950 . S
H1472 C1482 0.950 . S
H1473 C1484 0.950 . S
H1474 C1486 0.950 . S
H1475 C1487 0.950 . S
C1476 H1468 1.002 . S
C1476 C1477 1.386 . S
C1476 C1478 1.391 . S
C1477 C1476 1.386 . S
C1477 C1481 1.393 . S
C1478 H1470 0.950 . S
C1478 C1476 1.391 . S
C1478 C1479 1.400 . S
C1479 C1478 1.400 . S
C1479 C1480 1.398 . S
C1479 C1485 1.491 . S
C1480 H1471 0.950 . S
C1480 C1479 1.398 . S
C1480 C1481 1.391 . S
C1481 H1469 0.950 . S
C1481 C1477 1.393 . S
C1481 C1480 1.391 . S
C1482 H1472 0.950 . S
C1482 C1483 1.386 . S
C1482 C1484 1.391 . S
C1483 C1482 1.386 . S
C1483 C1487 1.393 . S
C1484 H1473 0.950 . S
C1484 C1482 1.391 . S
C1484 C1485 1.400 . S
C1485 C1479 1.491 . S
C1485 C1484 1.400 . S
C1485 C1486 1.398 . S
C1486 H1474 0.950 . S
C1486 C1485 1.398 . S
C1486 C1487 1.391 . S
C1487 H1475 0.950 . S
C1487 C1483 1.393 . S
C1487 C1486 1.391 . S
H1488 C1496 0.950 . S
H1489 C1501 0.950 . S
H1490 C1498 0.950 . S
H1491 C1500 0.950 . S
H1492 C1502 0.950 . S
H1493 C1504 0.950 . S
H1494 C1506 0.950 . S
H1495 C1507 0.950 . S
C1496 H1488 0.950 . S
C1496 C1497 1.386 . S
C1496 C1498 1.391 . S
C1497 C1496 1.386 . S
C1497 C1501 1.393 . S
C1498 H1490 0.950 . S
C1498 C1496 1.391 . S
C1498 C1499 1.400 . S
C1499 C1498 1.400 . S
C1499 C1500 1.398 . S
C1499 C1505 1.491 . S
C1500 H1491 0.950 . S
C1500 C1499 1.398 . S
C1500 C1501 1.391 . S
C1501 H1489 0.950 . S
C1501 C1497 1.393 . S
C1501 C1500 1.391 . S
C1502 H1492 0.950 . S
C1502 C1503 1.386 . S
C1502 C1504 1.391 . S
C1503 C1502 1.386 . S
C1503 C1507 1.393 . S
C1504 H1493 0.950 . S
C1504 C1502 1.391 . S
C1504 C1505 1.400 . S
C1505 C1499 1.491 . S
C1505 C1504 1.400 . S
C1505 C1506 1.398 . S
C1506 H1494 0.950 . S
C1506 C1505 1.398 . S
C1506 C1507 1.391 . S
C1507 H1495 0.950 . S
C1507 C1503 1.393 . S
C1507 C1506 1.391 . S
H1508 C1516 0.951 1_655 S
H1509 C1521 0.950 . S
H1510 C1518 0.950 1_655 S
H1511 C1520 0.950 . S
H1512 C1522 0.950 . S
H1513 C1524 0.950 . S
H1514 C1526 0.950 1_655 S
H1515 C1527 1.005 . S
C1516 H1508 0.951 1_455 S
C1516 C1517 1.386 . S
C1516 C1518 1.391 . S
C1517 C1516 1.386 . S
C1517 C1521 1.393 . S
C1518 H1510 0.950 1_455 S
C1518 C1516 1.391 . S
C1518 C1519 1.400 . S
C1519 C1518 1.400 . S
C1519 C1520 1.398 . S
C1519 C1525 1.491 . S
C1520 H1511 0.950 . S
C1520 C1519 1.398 . S
C1520 C1521 1.391 . S
C1521 H1509 0.950 . S
C1521 C1517 1.393 . S
C1521 C1520 1.391 . S
C1522 H1512 0.950 . S
C1522 C1523 1.386 . S
C1522 C1524 1.391 . S
C1523 C1522 1.386 . S
C1523 C1527 1.347 1_455 S
C1524 H1513 0.950 . S
C1524 C1522 1.391 . S
C1524 C1525 1.400 . S
C1525 C1519 1.491 . S
C1525 C1524 1.400 . S
C1525 C1526 1.398 . S
C1526 H1514 0.950 1_455 S
C1526 C1525 1.398 . S
C1526 C1527 1.384 1_455 S
C1527 H1515 1.005 . S
C1527 C1523 1.347 1_655 S
C1527 C1526 1.384 1_655 S
H1528 C1536 0.950 . S
H1529 C1541 0.950 . S
H1530 C1538 0.950 . S
H1531 C1540 0.950 . S
H1532 C1542 0.950 . S
H1533 C1544 0.950 . S
H1534 C1546 0.950 . S
H1535 C1547 0.950 . S
C1536 H1528 0.950 . S
C1536 C1537 1.386 . S
C1536 C1538 1.391 . S
C1537 C1536 1.386 . S
C1537 C1541 1.393 . S
C1538 H1530 0.950 . S
C1538 C1536 1.391 . S
C1538 C1539 1.400 . S
C1539 C1538 1.400 . S
C1539 C1540 1.398 . S
C1539 C1545 1.491 . S
C1540 H1531 0.950 . S
C1540 C1539 1.398 . S
C1540 C1541 1.391 . S
C1541 H1529 0.950 . S
C1541 C1537 1.393 . S
C1541 C1540 1.391 . S
C1542 H1532 0.950 . S
C1542 C1543 1.386 . S
C1542 C1544 1.391 . S
C1543 C1542 1.386 . S
C1543 C1547 1.393 . S
C1544 H1533 0.950 . S
C1544 C1542 1.391 . S
C1544 C1545 1.400 . S
C1545 C1539 1.491 . S
C1545 C1544 1.400 . S
C1545 C1546 1.398 . S
C1546 H1534 0.950 . S
C1546 C1545 1.398 . S
C1546 C1547 1.391 . S
C1547 H1535 0.950 . S
C1547 C1543 1.393 . S
C1547 C1546 1.391 . S
H1548 C1556 0.950 . S
H1549 C1561 0.950 . S
H1550 C1558 0.950 . S
H1551 C1560 0.950 . S
H1552 C1562 0.950 . S
H1553 C1564 0.950 . S
H1554 C1566 0.950 . S
H1555 C1567 0.950 . S
C1556 H1548 0.950 . S
C1556 C1557 1.386 . S
C1556 C1558 1.391 . S
C1557 C1556 1.386 . S
C1557 C1561 1.393 . S
C1558 H1550 0.950 . S
C1558 C1556 1.391 . S
C1558 C1559 1.400 . S
C1559 C1558 1.400 . S
C1559 C1560 1.398 . S
C1559 C1565 1.491 . S
C1560 H1551 0.950 . S
C1560 C1559 1.398 . S
C1560 C1561 1.391 . S
C1561 H1549 0.950 . S
C1561 C1557 1.393 . S
C1561 C1560 1.391 . S
C1562 H1552 0.950 . S
C1562 C1563 1.386 . S
C1562 C1564 1.391 . S
C1563 C1562 1.386 . S
C1563 C1567 1.393 . S
C1564 H1553 0.950 . S
C1564 C1562 1.391 . S
C1564 C1565 1.400 . S
C1565 C1559 1.491 . S
C1565 C1564 1.400 . S
C1565 C1566 1.398 . S
C1566 H1554 0.950 . S
C1566 C1565 1.398 . S
C1566 C1567 1.391 . S
C1567 H1555 0.950 . S
C1567 C1563 1.393 . S
C1567 C1566 1.391 . S
H1568 C1576 0.950 . S
H1569 C1581 0.950 . S
H1570 C1578 0.950 . S
H1571 C1580 0.950 . S
H1572 C1582 0.950 . S
H1573 C1584 0.950 . S
H1574 C1586 0.950 . S
H1575 C1587 0.950 . S
C1576 H1568 0.950 . S
C1576 C1577 1.386 . S
C1576 C1578 1.391 . S
C1577 C1576 1.386 . S
C1577 C1581 1.393 . S
C1578 H1570 0.950 . S
C1578 C1576 1.391 . S
C1578 C1579 1.400 . S
C1579 C1578 1.400 . S
C1579 C1580 1.398 . S
C1579 C1585 1.491 . S
C1580 H1571 0.950 . S
C1580 C1579 1.398 . S
C1580 C1581 1.391 . S
C1581 H1569 0.950 . S
C1581 C1577 1.393 . S
C1581 C1580 1.391 . S
C1582 H1572 0.950 . S
C1582 C1583 1.386 . S
C1582 C1584 1.391 . S
C1583 C1582 1.386 . S
C1583 C1587 1.393 . S
C1584 H1573 0.950 . S
C1584 C1582 1.391 . S
C1584 C1585 1.400 . S
C1585 C1579 1.491 . S
C1585 C1584 1.400 . S
C1585 C1586 1.398 . S
C1586 H1574 0.950 . S
C1586 C1585 1.398 . S
C1586 C1587 1.391 . S
C1587 H1575 0.950 . S
C1587 C1583 1.393 . S
C1587 C1586 1.391 . S
H1588 C1596 0.950 . S
H1589 C1601 0.950 . S
H1590 C1598 0.950 . S
H1591 C1600 0.950 . S
H1592 C1602 0.950 . S
H1593 C1604 0.950 . S
H1594 C1606 0.950 . S
H1595 C1607 0.950 . S
C1596 H1588 0.950 . S
C1596 C1597 1.386 . S
C1596 C1598 1.391 . S
C1597 C1596 1.386 . S
C1597 C1601 1.393 . S
C1598 H1590 0.950 . S
C1598 C1596 1.391 . S
C1598 C1599 1.400 . S
C1599 C1598 1.400 . S
C1599 C1600 1.398 . S
C1599 C1605 1.491 . S
C1600 H1591 0.950 . S
C1600 C1599 1.398 . S
C1600 C1601 1.391 . S
C1601 H1589 0.950 . S
C1601 C1597 1.393 . S
C1601 C1600 1.391 . S
C1602 H1592 0.950 . S
C1602 C1603 1.386 . S
C1602 C1604 1.391 . S
C1603 C1602 1.386 . S
C1603 C1607 1.393 . S
C1604 H1593 0.950 . S
C1604 C1602 1.391 . S
C1604 C1605 1.400 . S
C1605 C1599 1.491 . S
C1605 C1604 1.400 . S
C1605 C1606 1.398 . S
C1606 H1594 0.950 . S
C1606 C1605 1.398 . S
C1606 C1607 1.391 . S
C1607 H1595 0.950 . S
C1607 C1603 1.393 . S
C1607 C1606 1.391 . S
H1608 C1616 0.950 . S
H1609 C1621 0.950 . S
H1610 C1618 0.950 . S
H1611 C1620 0.950 . S
H1612 C1622 0.950 . S
H1613 C1624 0.950 . S
H1614 C1626 0.950 . S
H1615 C1627 0.950 . S
C1616 H1608 0.950 . S
C1616 C1617 1.386 . S
C1616 C1618 1.391 . S
C1617 C1616 1.386 . S
C1617 C1621 1.393 . S
C1618 H1610 0.950 . S
C1618 C1616 1.391 . S
C1618 C1619 1.400 . S
C1619 C1618 1.400 . S
C1619 C1620 1.398 . S
C1619 C1625 1.491 . S
C1620 H1611 0.950 . S
C1620 C1619 1.398 . S
C1620 C1621 1.391 . S
C1621 H1609 0.950 . S
C1621 C1617 1.393 . S
C1621 C1620 1.391 . S
C1622 H1612 0.950 . S
C1622 C1623 1.386 . S
C1622 C1624 1.391 . S
C1623 C1622 1.386 . S
C1623 C1627 1.393 . S
C1624 H1613 0.950 . S
C1624 C1622 1.391 . S
C1624 C1625 1.400 . S
C1625 C1619 1.491 . S
C1625 C1624 1.400 . S
C1625 C1626 1.398 . S
C1626 H1614 0.950 . S
C1626 C1625 1.398 . S
C1626 C1627 1.391 . S
C1627 H1615 0.950 . S
C1627 C1623 1.393 . S
C1627 C1626 1.391 . S
H1628 C1636 0.950 . S
H1629 C1641 0.950 . S
H1630 C1638 0.950 . S
H1631 C1640 0.950 . S
H1632 C1642 0.950 . S
H1633 C1644 0.950 . S
H1634 C1646 0.950 . S
H1635 C1647 0.950 . S
C1636 H1628 0.950 . S
C1636 C1637 1.386 . S
C1636 C1638 1.391 . S
C1637 C1636 1.386 . S
C1637 C1641 1.393 . S
C1638 H1630 0.950 . S
C1638 C1636 1.391 . S
C1638 C1639 1.400 . S
C1639 C1638 1.400 . S
C1639 C1640 1.398 . S
C1639 C1645 1.491 . S
C1640 H1631 0.950 . S
C1640 C1639 1.398 . S
C1640 C1641 1.391 . S
C1641 H1629 0.950 . S
C1641 C1637 1.393 . S
C1641 C1640 1.391 . S
C1642 H1632 0.950 . S
C1642 C1643 1.386 . S
C1642 C1644 1.391 . S
C1643 C1642 1.386 . S
C1643 C1647 1.393 . S
C1644 H1633 0.950 . S
C1644 C1642 1.391 . S
C1644 C1645 1.400 . S
C1645 C1639 1.491 . S
C1645 C1644 1.400 . S
C1645 C1646 1.398 . S
C1646 H1634 0.950 . S
C1646 C1645 1.398 . S
C1646 C1647 1.391 . S
C1647 H1635 0.950 . S
C1647 C1643 1.393 . S
C1647 C1646 1.391 . S
H1648 C1656 0.950 . S
H1649 C1661 0.950 . S
H1650 C1658 0.950 . S
H1651 C1660 0.950 . S
H1652 C1662 0.950 . S
H1653 C1664 0.950 . S
H1654 C1666 0.950 . S
H1655 C1667 0.950 . S
C1656 H1648 0.950 . S
C1656 C1657 1.386 . S
C1656 C1658 1.391 . S
C1657 C1656 1.386 . S
C1657 C1661 1.393 . S
C1658 H1650 0.950 . S
C1658 C1656 1.391 . S
C1658 C1659 1.400 . S
C1659 C1658 1.400 . S
C1659 C1660 1.398 . S
C1659 C1665 1.491 . S
C1660 H1651 0.950 . S
C1660 C1659 1.398 . S
C1660 C1661 1.391 . S
C1661 H1649 0.950 . S
C1661 C1657 1.393 . S
C1661 C1660 1.391 . S
C1662 H1652 0.950 . S
C1662 C1663 1.386 . S
C1662 C1664 1.391 . S
C1663 C1662 1.386 . S
C1663 C1667 1.393 . S
C1664 H1653 0.950 . S
C1664 C1662 1.391 . S
C1664 C1665 1.400 . S
C1665 C1659 1.491 . S
C1665 C1664 1.400 . S
C1665 C1666 1.398 . S
C1666 H1654 0.950 . S
C1666 C1665 1.398 . S
C1666 C1667 1.391 . S
C1667 H1655 0.950 . S
C1667 C1663 1.393 . S
C1667 C1666 1.391 . S
H1668 C1676 0.950 . S
H1669 C1681 0.950 . S
H1670 C1678 0.950 . S
H1671 C1680 0.950 . S
H1672 C1682 0.950 . S
H1673 C1684 0.950 . S
H1674 C1686 0.950 . S
H1675 C1687 0.950 . S
C1676 H1668 0.950 . S
C1676 C1677 1.386 . S
C1676 C1678 1.391 . S
C1677 C1676 1.386 . S
C1677 C1681 1.393 . S
C1678 H1670 0.950 . S
C1678 C1676 1.391 . S
C1678 C1679 1.400 . S
C1679 C1678 1.400 . S
C1679 C1680 1.398 . S
C1679 C1685 1.491 . S
C1680 H1671 0.950 . S
C1680 C1679 1.398 . S
C1680 C1681 1.391 . S
C1681 H1669 0.950 . S
C1681 C1677 1.393 . S
C1681 C1680 1.391 . S
C1682 H1672 0.950 . S
C1682 C1683 1.386 . S
C1682 C1684 1.391 . S
C1683 C1682 1.386 . S
C1683 C1687 1.393 . S
C1684 H1673 0.950 . S
C1684 C1682 1.391 . S
C1684 C1685 1.400 . S
C1685 C1679 1.491 . S
C1685 C1684 1.400 . S
C1685 C1686 1.398 . S
C1686 H1674 0.950 . S
C1686 C1685 1.398 . S
C1686 C1687 1.391 . S
C1687 H1675 0.950 . S
C1687 C1683 1.393 . S
C1687 C1686 1.391 . S
H1688 C1696 0.950 . S
H1689 C1701 0.950 . S
H1690 C1698 0.950 . S
H1691 C1700 0.950 . S
H1692 C1702 0.950 . S
H1693 C1704 0.950 . S
H1694 C1706 0.950 . S
H1695 C1707 0.950 . S
C1696 H1688 0.950 . S
C1696 C1697 1.386 . S
C1696 C1698 1.391 . S
C1697 C1696 1.386 . S
C1697 C1701 1.393 . S
C1698 H1690 0.950 . S
C1698 C1696 1.391 . S
C1698 C1699 1.400 . S
C1699 C1698 1.400 . S
C1699 C1700 1.398 . S
C1699 C1705 1.491 . S
C1700 H1691 0.950 . S
C1700 C1699 1.398 . S
C1700 C1701 1.391 . S
C1701 H1689 0.950 . S
C1701 C1697 1.393 . S
C1701 C1700 1.391 . S
C1702 H1692 0.950 . S
C1702 C1703 1.386 . S
C1702 C1704 1.391 . S
C1703 C1702 1.386 . S
C1703 C1707 1.393 . S
C1704 H1693 0.950 . S
C1704 C1702 1.391 . S
C1704 C1705 1.400 . S
C1705 C1699 1.491 . S
C1705 C1704 1.400 . S
C1705 C1706 1.398 . S
C1706 H1694 0.950 . S
C1706 C1705 1.398 . S
C1706 C1707 1.391 . S
C1707 H1695 0.950 . S
C1707 C1703 1.393 . S
C1707 C1706 1.391 . S
H1708 C1716 0.950 . S
H1709 C1721 0.950 . S
H1710 C1718 0.950 . S
H1711 C1720 0.950 . S
H1712 C1722 0.950 . S
H1713 C1724 0.950 . S
H1714 C1726 0.950 . S
H1715 C1727 0.950 . S
C1716 H1708 0.950 . S
C1716 C1717 1.386 . S
C1716 C1718 1.391 . S
C1717 C1716 1.386 . S
C1717 C1721 1.393 . S
C1718 H1710 0.950 . S
C1718 C1716 1.391 . S
C1718 C1719 1.400 . S
C1719 C1718 1.400 . S
C1719 C1720 1.398 . S
C1719 C1725 1.491 . S
C1720 H1711 0.950 . S
C1720 C1719 1.398 . S
C1720 C1721 1.391 . S
C1721 H1709 0.950 . S
C1721 C1717 1.393 . S
C1721 C1720 1.391 . S
C1722 H1712 0.950 . S
C1722 C1723 1.386 . S
C1722 C1724 1.391 . S
C1723 C1722 1.386 . S
C1723 C1727 1.393 . S
C1724 H1713 0.950 . S
C1724 C1722 1.391 . S
C1724 C1725 1.400 . S
C1725 C1719 1.491 . S
C1725 C1724 1.400 . S
C1725 C1726 1.398 . S
C1726 H1714 0.950 . S
C1726 C1725 1.398 . S
C1726 C1727 1.391 . S
C1727 H1715 0.950 . S
C1727 C1723 1.393 . S
C1727 C1726 1.391 . S
H1728 C1736 0.950 . S
H1729 C1741 0.950 . S
H1730 C1738 0.950 . S
H1731 C1740 0.950 . S
H1732 C1742 0.950 1_556 S
H1733 C1744 0.950 . S
H1734 C1746 0.950 . S
H1735 C1747 0.950 . S
C1736 H1728 0.950 . S
C1736 C1737 1.386 . S
C1736 C1738 1.391 . S
C1737 C1736 1.386 . S
C1737 C1741 1.393 . S
C1738 H1730 0.950 . S
C1738 C1736 1.391 . S
C1738 C1739 1.400 . S
C1739 C1738 1.400 . S
C1739 C1740 1.398 . S
C1739 C1745 1.491 . S
C1740 H1731 0.950 . S
C1740 C1739 1.398 . S
C1740 C1741 1.391 . S
C1741 H1729 0.950 . S
C1741 C1737 1.393 . S
C1741 C1740 1.391 . S
C1742 H1732 0.950 1_554 S
C1742 C1743 1.386 . S
C1742 C1744 1.391 . S
C1743 C1742 1.386 . S
C1743 C1747 1.393 . S
C1744 H1733 0.950 . S
C1744 C1742 1.391 . S
C1744 C1745 1.400 . S
C1745 C1739 1.491 . S
C1745 C1744 1.400 . S
C1745 C1746 1.398 . S
C1746 H1734 0.950 . S
C1746 C1745 1.398 . S
C1746 C1747 1.391 . S
C1747 H1735 0.950 . S
C1747 C1743 1.393 . S
C1747 C1746 1.391 . S
H1748 C1756 0.950 . S
H1749 C1761 0.950 . S
H1750 C1758 0.950 . S
H1751 C1760 0.950 . S
H1752 C1762 0.950 . S
H1753 C1764 0.950 . S
H1754 C1766 0.950 . S
H1755 C1767 0.950 . S
C1756 H1748 0.950 . S
C1756 C1757 1.386 . S
C1756 C1758 1.391 . S
C1757 C1756 1.386 . S
C1757 C1761 1.393 . S
C1758 H1750 0.950 . S
C1758 C1756 1.391 . S
C1758 C1759 1.400 . S
C1759 C1758 1.400 . S
C1759 C1760 1.398 . S
C1759 C1765 1.491 . S
C1760 H1751 0.950 . S
C1760 C1759 1.398 . S
C1760 C1761 1.391 . S
C1761 H1749 0.950 . S
C1761 C1757 1.393 . S
C1761 C1760 1.391 . S
C1762 H1752 0.950 . S
C1762 C1763 1.386 . S
C1762 C1764 1.391 . S
C1763 C1762 1.386 . S
C1763 C1767 1.393 . S
C1764 H1753 0.950 . S
C1764 C1762 1.391 . S
C1764 C1765 1.400 . S
C1765 C1759 1.491 . S
C1765 C1764 1.400 . S
C1765 C1766 1.398 . S
C1766 H1754 0.950 . S
C1766 C1765 1.398 . S
C1766 C1767 1.391 . S
C1767 H1755 0.950 . S
C1767 C1763 1.393 . S
C1767 C1766 1.391 . S
C823 C648 1.490 . S
C817 C202 1.502 . S
C843 C661 1.489 . S
C837 C261 1.484 . S
C857 C282 1.681 . S
C863 C681 1.547 . S
C883 C695 1.382 . S
C877 C162 1.411 . S
C903 C707 1.499 . S
C897 C402 1.495 . S
C923 C721 1.424 . S
C917 C482 1.415 . S
C937 C442 1.479 . S
C943 C731 1.488 . S
C963 C746 1.531 . S
C957 C381 1.546 . S
C977 C461 1.553 . S
C983 C760 1.535 . S
C1003 C779 1.329 . S
C997 C362 1.399 . S
C1017 C415 1.450 . S
C1023 C759 1.433 . S
C1043 C777 1.438 . S
C1037 C495 1.441 . S
C1057 C301 1.725 . S
C1063 C793 1.597 . S
C1077 C175 1.507 . S
C1083 C787 1.503 . S
C1097 C215 1.484 . S
C1103 C791 1.484 . S
C1117 C242 1.492 . S
C1123 C788 1.483 . S
C1137 C141 1.545 . S
C1143 C690 1.525 . S
C1157 C581 1.522 . S
C1163 C689 1.525 . S
C1183 C653 1.331 . S
C1177 C615 1.391 . S
C1203 C667 1.545 . S
C1197 C335 1.664 . S
C1217 C181 1.584 . S
C1223 C704 1.580 . S
C1243 C749 1.497 . S
C1237 C455 1.506 . S
C1263 C703 1.428 . S
C1257 C375 1.437 . S
C1283 C735 1.474 . S
C1277 C501 1.467 . S
C1303 C732 1.471 . S
C1297 C562 1.489 . S
C1317 C621 1.476 . S
C1323 C745 1.490 . S
C1337 C322 1.685 . S
C1343 C709 1.574 . S
C1363 C723 1.371 . S
C1357 C522 1.417 . S
C1377 C122 1.500 . S
C1383 C679 1.505 . S
C1403 C693 1.425 . S
C1397 C2 1.409 . S
C1423 C647 1.490 . S
C1417 C42 1.485 . S
C1443 C662 1.523 . S
C1437 C101 1.530 . S
C1457 C61 1.556 . S
C1463 C774 1.524 . S
C1477 C82 1.392 . S
C1483 C765 1.343 . S
C1497 C135 1.452 . S
C1503 C773 1.446 . S
C1517 C15 1.439 . S
C1523 C763 1.436 . S
C1543 C807 1.585 . S
C1537 C341 1.725 . S
C1563 C801 1.497 . S
C1557 C535 1.508 . S
C1583 C805 1.482 . S
C1577 C575 1.483 . S
C1597 C602 1.503 . S
C1603 C802 1.500 . S
C1617 C421 1.552 . S
C1623 C718 1.534 . S
C1643 C717 1.523 . S
C1637 C221 1.517 . S
C1663 C737 1.319 . S
C1657 C255 1.393 . S
C1683 C751 1.558 . S
C1677 C295 1.664 . S
C1697 C541 1.580 . S
C1703 C676 1.561 . S
C1723 C665 1.497 . S
C1717 C55 1.506 . S
C1737 C95 1.435 . S
C1743 C675 1.429 . S
C1763 C651 1.469 . S
C1757 C21 1.469 . S
