# Generated by pormake.
# Topology pyr, (3,6)-cn, num edge types: 1
# Building blocks:
#     Node 0, Type 0, BuildingBlock: OLANEW_clean_sbu_2, # of connection points: 3
#     Node 1, Type 0, BuildingBlock: OLANEW_clean_sbu_2, # of connection points: 3
#     Node 2, Type 0, BuildingBlock: OLANEW_clean_sbu_2, # of connection points: 3
#     Node 3, Type 0, BuildingBlock: OLANEW_clean_sbu_2, # of connection points: 3
#     Node 4, Type 0, BuildingBlock: OLANEW_clean_sbu_2, # of connection points: 3
#     Node 5, Type 0, BuildingBlock: OLANEW_clean_sbu_2, # of connection points: 3
#     Node 6, Type 0, BuildingBlock: OLANEW_clean_sbu_2, # of connection points: 3
#     Node 7, Type 0, BuildingBlock: OLANEW_clean_sbu_2, # of connection points: 3
#     Node 8, Type 1, BuildingBlock: PAMTUU_clean_sbu_0, # of connection points: 6
#     Node 9, Type 1, BuildingBlock: PAMTUU_clean_sbu_0, # of connection points: 6
#     Node 10, Type 1, BuildingBlock: PAMTUU_clean_sbu_0, # of connection points: 6
#     Node 11, Type 1, BuildingBlock: PAMTUU_clean_sbu_0, # of connection points: 6
#     Edge 12, Type (0, 1), BuildingBlock: EZIPEK_clean_linker_0, # of connection points: 2
#     Edge 13, Type (0, 1), BuildingBlock: EZIPEK_clean_linker_0, # of connection points: 2
#     Edge 14, Type (0, 1), BuildingBlock: EZIPEK_clean_linker_0, # of connection points: 2
#     Edge 15, Type (0, 1), BuildingBlock: EZIPEK_clean_linker_0, # of connection points: 2
#     Edge 16, Type (0, 1), BuildingBlock: EZIPEK_clean_linker_0, # of connection points: 2
#     Edge 17, Type (0, 1), BuildingBlock: EZIPEK_clean_linker_0, # of connection points: 2
#     Edge 18, Type (0, 1), BuildingBlock: EZIPEK_clean_linker_0, # of connection points: 2
#     Edge 19, Type (0, 1), BuildingBlock: EZIPEK_clean_linker_0, # of connection points: 2
#     Edge 20, Type (0, 1), BuildingBlock: EZIPEK_clean_linker_0, # of connection points: 2
#     Edge 21, Type (0, 1), BuildingBlock: EZIPEK_clean_linker_0, # of connection points: 2
#     Edge 22, Type (0, 1), BuildingBlock: EZIPEK_clean_linker_0, # of connection points: 2
#     Edge 23, Type (0, 1), BuildingBlock: EZIPEK_clean_linker_0, # of connection points: 2
#     Edge 24, Type (0, 1), BuildingBlock: EZIPEK_clean_linker_0, # of connection points: 2
#     Edge 25, Type (0, 1), BuildingBlock: EZIPEK_clean_linker_0, # of connection points: 2
#     Edge 26, Type (0, 1), BuildingBlock: EZIPEK_clean_linker_0, # of connection points: 2
#     Edge 27, Type (0, 1), BuildingBlock: EZIPEK_clean_linker_0, # of connection points: 2
#     Edge 28, Type (0, 1), BuildingBlock: EZIPEK_clean_linker_0, # of connection points: 2
#     Edge 29, Type (0, 1), BuildingBlock: EZIPEK_clean_linker_0, # of connection points: 2
#     Edge 30, Type (0, 1), BuildingBlock: EZIPEK_clean_linker_0, # of connection points: 2
#     Edge 31, Type (0, 1), BuildingBlock: EZIPEK_clean_linker_0, # of connection points: 2
#     Edge 32, Type (0, 1), BuildingBlock: EZIPEK_clean_linker_0, # of connection points: 2
#     Edge 33, Type (0, 1), BuildingBlock: EZIPEK_clean_linker_0, # of connection points: 2
#     Edge 34, Type (0, 1), BuildingBlock: EZIPEK_clean_linker_0, # of connection points: 2
#     Edge 35, Type (0, 1), BuildingBlock: EZIPEK_clean_linker_0, # of connection points: 2
# Relax obj value: 0.187
# Max RMSD: 0.196
# Mean RMSD: 0.125
data_MOF--net-pyr--node1-OLANEW_clean_sbu_2--node2-PAMTUU_clean_sbu_0--edge1-EZIPEK_clean_linker_0
_symmetry_space_group_name_H-M    P1
_symmetry_Int_Tables_number       1
_symmetry_cell_setting            triclinic
loop_
_symmetry_equiv_pos_as_xyz
'x, y, z'
_cell_length_a     30.404694
_cell_length_b     32.475737
_cell_length_c     30.5228
_cell_angle_alpha  94.375518
_cell_angle_beta   89.050435
_cell_angle_gamma 105.01864
loop_
_atom_site_label
_atom_site_type_symbol
_atom_site_fract_x
_atom_site_fract_y
_atom_site_fract_z
_atom_type_partial_charge
O0 O 0.44048 0.30485 0.16857 0.0
Cd1 Cd 0.42295 0.37494 0.17258 0.0
O2 O 0.43266 0.30537 0.23998 0.0
Cd3 Cd 0.42702 0.27366 0.30056 0.0
O4 O 0.39279 0.23468 0.35166 0.0
C5 C 0.39322 0.24889 0.39159 0.0
O6 O 0.4163 0.28815 0.40349 0.0
C7 C 0.44165 0.28696 0.20403 0.0
C8 C 0.33276 0.37713 0.15858 0.0
O9 O 0.36094 0.37953 0.12659 0.0
O10 O 0.34643 0.37206 0.19683 0.0
O11 O 0.17839 0.84487 0.83666 0.0
Cd12 Cd 0.14527 0.79714 0.77377 0.0
O13 O 0.12634 0.82022 0.88596 0.0
Cd14 Cd 0.07988 0.79377 0.83136 0.0
O15 O 0.05589 0.81844 0.77441 0.0
C16 C 0.05541 0.85753 0.77972 0.0
O17 O 0.06583 0.87822 0.81838 0.0
C18 C 0.16519 0.8436 0.87635 0.0
C19 C 0.21979 0.77415 0.73557 0.0
O20 O 0.19671 0.75278 0.76567 0.0
O21 O 0.20601 0.80486 0.72147 0.0
O22 O 0.75218 0.46281 0.88734 0.0
Cd23 Cd 0.68444 0.43736 0.83771 0.0
O24 O 0.72221 0.40757 0.92511 0.0
Cd25 Cd 0.71254 0.36028 0.97511 0.0
O26 O 0.67679 0.30775 1.01526 0.0
C27 C 0.6699 0.26873 1.00087 0.0
O28 O 0.68584 0.25951 0.96211 0.0
C29 C 0.75507 0.4401 0.91902 0.0
C30 C 0.65154 0.487 0.78045 0.0
O31 O 0.63593 0.48237 0.81957 0.0
O32 O 0.68452 0.47067 0.76903 0.0
O33 O 0.95225 0.77704 0.37344 0.0
Cd34 Cd 0.89929 0.71394 0.33501 0.0
O35 O 0.90166 0.78002 0.42573 0.0
Cd36 Cd 0.84609 0.72461 0.40663 0.0
O37 O 0.77979 0.69035 0.43085 0.0
C38 C 0.77592 0.68961 0.47235 0.0
O39 O 0.81144 0.70729 0.49751 0.0
C40 C 0.94028 0.79507 0.40857 0.0
C41 C 0.9304 0.66765 0.26457 0.0
O42 O 0.91994 0.70273 0.25914 0.0
O43 O 0.92797 0.6551 0.30357 0.0
O44 O 0.70146 0.79253 0.77001 0.0
Cd45 Cd 0.6656 0.71873 0.78484 0.0
O46 O 0.67624 0.8178 0.83156 0.0
Cd47 Cd 0.67189 0.86952 0.88052 0.0
O48 O 0.65441 0.91678 0.93274 0.0
C49 C 0.62659 0.90235 0.96319 0.0
O50 O 0.65519 0.91899 0.93293 0.0
C51 C 0.69974 0.82401 0.79672 0.0
C52 C 0.73513 0.68751 0.81553 0.0
O53 O 0.72576 0.6839 0.77442 0.0
O54 O 0.71034 0.70394 0.84229 0.0
O55 O 0.94227 0.25943 0.33404 0.0
Cd56 Cd 0.01976 0.27505 0.36205 0.0
O57 O 0.92565 0.31324 0.37306 0.0
Cd58 Cd 0.87406 0.34617 0.39486 0.0
O59 O 0.81522 0.369 0.41656 0.0
C60 C 0.77819 0.35682 0.39492 0.0
O61 O 0.77565 0.33097 0.35928 0.0
C62 C 0.91364 0.28024 0.34649 0.0
C63 C 0.02913 0.20571 0.40589 0.0
O64 O 0.01608 0.23643 0.42625 0.0
O65 O 0.03871 0.20791 0.36496 0.0
O66 O 0.41939 0.80581 0.28283 0.0
Cd67 Cd 0.38136 0.73437 0.31018 0.0
O68 O 0.3731 0.79973 0.22578 0.0
Cd69 Cd 0.326 0.73587 0.22609 0.0
O70 O 0.26503 0.69225 0.19459 0.0
C71 C 0.26718 0.67325 0.15685 0.0
O72 O 0.30679 0.67772 0.13736 0.0
C73 C 0.40639 0.82136 0.24955 0.0
C74 C 0.41862 0.69868 0.37826 0.0
O75 O 0.42663 0.6898 0.33774 0.0
O76 O 0.39496 0.7257 0.38707 0.0
O77 O 0.16208 0.44182 0.80171 0.0
Cd78 Cd 0.1942 0.40436 0.74096 0.0
O79 O 0.10919 0.38425 0.81838 0.0
Cd80 Cd 0.12603 0.33653 0.77035 0.0
O81 O 0.12201 0.27592 0.73072 0.0
C82 C 0.08615 0.24559 0.73361 0.0
O83 O 0.05306 0.25148 0.75953 0.0
C84 C 0.12837 0.42402 0.82507 0.0
C85 C 0.2717 0.45274 0.69961 0.0
O86 O 0.27537 0.43144 0.73242 0.0
O87 O 0.23161 0.45215 0.68674 0.0
Tb88 Tb 0.09145 1.01932 0.56729 0.0
Tb89 Tb 0.98159 1.00856 0.58355 0.0
C90 C 0.01755 0.94781 0.51764 0.0
C91 C 0.21152 0.06443 0.53859 0.0
C92 C 0.27481 0.13017 0.49965 0.0
C93 C 0.277 0.08765 0.49167 0.0
C94 C 0.24547 0.05492 0.51108 0.0
C95 C 0.21031 0.10721 0.54772 0.0
C96 C 0.24192 0.13993 0.52843 0.0
C97 C 0.17555 0.0294 0.55459 0.0
O98 O 0.07001 0.04983 0.51336 0.0
O99 O 1.00157 0.05996 0.53972 0.0
O100 O 0.01871 0.05221 0.63631 0.0
O101 O 0.08358 0.07964 0.59788 0.0
O102 O 0.91494 0.96928 0.57795 0.0
O103 O 0.9277 0.034 0.60647 0.0
O104 O 0.9991 0.96115 0.62167 0.0
O105 O 0.0765 0.98941 0.62877 0.0
O106 O 0.05502 0.95573 0.54099 0.0
O107 O 0.99015 0.97311 0.52194 0.0
C108 C 0.03647 0.06847 0.5128 0.0
O109 O 0.15793 0.03714 0.5926 0.0
O110 O 0.14439 1.01019 0.52574 0.0
C111 C 0.05505 0.08329 0.62969 0.0
C112 C 0.86944 0.98227 0.6378 0.0
C113 C 0.81577 0.95451 0.71263 0.0
C114 C 0.80101 0.97815 0.68124 0.0
C115 C 0.82791 0.99248 0.64498 0.0
C116 C 0.88346 0.95689 0.66683 0.0
C117 C 0.85686 0.9427 0.70308 0.0
C118 C 0.89765 0.99742 0.59972 0.0
C119 C 0.03828 0.96317 0.64025 0.0
H120 H 0.30216 0.07973 0.46934 0.0
H121 H 0.2467 1.02208 0.50355 0.0
H122 H 0.18424 0.11522 0.56877 0.0
H123 H 0.23977 0.17265 0.53466 0.0
H124 H 0.7683 0.98504 0.68277 0.0
H125 H 0.8158 1.01099 0.62204 0.0
H126 H 0.91468 0.94723 0.66101 0.0
H127 H 0.8685 0.92113 0.7225 0.0
Tb128 Tb 0.56288 0.07181 0.17875 0.0
Tb129 Tb 0.47487 0.0543 0.11232 0.0
C130 C 0.55647 1.01014 0.0918 0.0
C131 C 0.66232 0.12161 0.25375 0.0
C132 C 0.73757 0.18689 0.2844 0.0
C133 C 0.73513 0.14417 0.29119 0.0
C134 C 0.69777 0.11175 0.27591 0.0
C135 C 0.66409 0.16446 0.24764 0.0
C136 C 0.70165 0.19708 0.26302 0.0
C137 C 0.6251 0.08632 0.23594 0.0
O138 O 0.58908 0.11094 0.12449 0.0
O139 O 0.52098 0.11501 0.09531 0.0
O140 O 0.46268 0.08859 0.17336 0.0
O141 O 0.53459 0.12728 0.1864 0.0
O142 O 0.4448 0.05426 0.05081 0.0
O143 O 0.40385 0.04323 0.10948 0.0
O144 O 0.46505 0.99386 0.14162 0.0
O145 O 0.51107 1.0176 0.20217 0.0
O146 O 0.57571 1.02386 0.13031 0.0
O147 O 0.51974 1.02004 0.07826 0.0
C148 C 0.56575 0.12792 0.09831 0.0
O149 O 0.58369 0.08905 0.24434 0.0
O150 O 0.62976 0.07271 0.19532 0.0
C151 C 0.49099 0.12482 0.18645 0.0
C152 C 0.36853 1.0113 0.043 0.0
C153 C 0.29923 0.95208 0.99478 0.0
C154 C 0.28841 0.98239 1.02528 0.0
C155 C 0.32286 1.01186 0.04912 0.0
C156 C 0.37933 0.98004 1.01347 0.0
C157 C 0.34475 0.9506 0.98936 0.0
C158 C 0.4037 0.04465 0.06697 0.0
C159 C 0.48054 0.98749 0.1797 0.0
H160 H 0.76259 0.13589 0.30772 0.0
H161 H 0.69687 0.07884 0.28083 0.0
H162 H 0.63681 0.17251 0.23067 0.0
H163 H 0.70312 0.23001 0.25768 0.0
H164 H 0.25342 0.98394 1.02967 0.0
H165 H 0.31393 0.03571 0.07182 0.0
H166 H 0.41435 0.97887 1.00845 0.0
H167 H 0.35352 0.92736 0.96578 0.0
Tb168 Tb 0.51622 0.53887 0.55088 0.0
Tb169 Tb 0.51814 0.62637 0.61427 0.0
C170 C 0.4806 0.61426 0.51879 0.0
C171 C 0.55263 0.45164 0.48906 0.0
C172 C 0.62425 0.41726 0.45862 0.0
C173 C 0.58135 0.4036 0.43825 0.0
C174 C 0.54568 0.42074 0.45343 0.0
C175 C 0.59542 0.4649 0.50976 0.0
C176 C 0.63101 0.4477 0.49468 0.0
C177 C 0.51627 0.47204 0.50265 0.0
O178 O 0.58623 0.5746 0.54799 0.0
O179 O 0.57998 0.64155 0.57418 0.0
O180 O 0.56461 0.59915 0.64826 0.0
O181 O 0.54395 0.53063 0.61486 0.0
O182 O 0.52599 0.69277 0.61992 0.0
O183 O 0.50712 0.65554 0.67592 0.0
O184 O 0.46346 0.57502 0.63735 0.0
O185 O 0.44681 0.53219 0.57351 0.0
O186 O 0.5048 0.58677 0.50878 0.0
O187 O 0.47172 0.62402 0.55988 0.0
C188 C 0.60265 0.61608 0.55387 0.0
O189 O 0.50581 0.4721 0.5442 0.0
O190 O 0.52016 0.50932 0.48786 0.0
C191 C 0.56517 0.55876 0.64627 0.0
C192 C 0.47029 0.70952 0.66768 0.0
C193 C 0.38947 0.73435 0.68584 0.0
C194 C 0.42273 0.73967 0.71865 0.0
C195 C 0.46293 0.72735 0.70959 0.0
C196 C 0.4373 0.70494 0.63464 0.0
C197 C 0.39729 0.71749 0.64362 0.0
C198 C 0.51013 0.69215 0.65983 0.0
C199 C 0.43607 0.5439 0.61344 0.0
H200 H 0.57574 0.38019 0.41031 0.0
H201 H 0.51297 0.41046 0.43691 0.0
H202 H 0.60148 0.48904 0.53708 0.0
H203 H 0.66401 0.45862 0.51059 0.0
H204 H 0.41711 0.75256 0.75144 0.0
H205 H 0.48774 0.73071 0.73558 0.0
H206 H 0.44192 0.69078 0.60217 0.0
H207 H 0.37192 0.71312 0.61798 0.0
Tb208 Tb 1.01235 0.58253 1.01301 0.0
Tb209 Tb 0.01635 0.49835 0.06604 0.0
C210 C 0.04948 0.50916 0.96831 0.0
C211 C 0.96864 0.65009 0.94307 0.0
C212 C 0.89382 0.65651 0.89378 0.0
C213 C 0.92063 0.69262 0.91781 0.0
C214 C 0.95784 0.68941 0.94229 0.0
C215 C 0.94259 0.61415 0.91809 0.0
C216 C 0.90559 0.61745 0.89324 0.0
C217 C 1.00287 0.64566 0.97446 0.0
O218 O 0.94404 0.54023 1.00585 0.0
O219 O 0.9508 0.47711 0.03193 0.0
O220 O 0.97379 0.53148 0.10563 0.0
O221 O 1.00687 0.59813 0.08309 0.0
O222 O 0.01504 0.43322 0.06356 0.0
O223 O 0.02801 0.47243 0.12457 0.0
O224 O 0.07473 0.54956 0.08884 0.0
O225 O 0.08326 0.59552 0.03346 0.0
O226 O 0.02379 0.5352 0.96314 0.0
O227 O 0.05886 0.49973 1.00758 0.0
C228 C 0.92789 0.49927 1.01144 0.0
O229 O 0.98674 0.6365 1.01329 0.0
O230 O 0.03029 0.62244 0.96086 0.0
C231 C 0.98277 0.57336 0.11147 0.0
C232 C 0.0714 0.42255 0.11065 0.0
C233 C 0.15436 0.40276 0.12678 0.0
C234 C 0.11847 0.39339 0.15702 0.0
C235 C 0.07722 0.40321 0.14896 0.0
C236 C 0.10723 0.43141 0.08019 0.0
C237 C 0.14833 0.42148 0.08816 0.0
C238 C 0.02938 0.43612 0.10402 0.0
C239 C 0.09842 0.58239 0.06859 0.0
H240 H 0.91203 0.72301 0.91845 0.0
H241 H 0.97719 0.71726 0.96185 0.0
H242 H 0.94996 0.58331 0.91893 0.0
H243 H 0.88527 0.58933 0.87479 0.0
H244 H 0.12272 0.37918 0.18712 0.0
H245 H 0.0502 0.39649 0.17303 0.0
H246 H 0.10378 0.44672 0.0506 0.0
H247 H 0.17581 0.42923 0.06468 0.0
C248 C 0.3813 0.20679 0.45837 0.0
C249 C 0.36287 0.22279 0.42295 0.0
C250 C 0.28666 0.17889 0.4385 0.0
C251 C 0.30471 0.16395 0.47491 0.0
N252 N 0.36662 0.16931 0.52509 0.0
N253 N 0.29731 0.23285 0.38601 0.0
C254 C 0.35132 0.17973 0.48664 0.0
C255 C 0.31527 0.2115 0.41508 0.0
N256 N 0.42746 0.21584 0.46376 0.0
N257 N 0.24273 0.16068 0.42514 0.0
H258 H 0.31725 0.25752 0.36876 0.0
H259 H 0.26249 0.22911 0.38224 0.0
H260 H 0.22038 0.13676 0.44146 0.0
H261 H 0.22942 0.16681 0.39583 0.0
H262 H 0.44318 0.2012 0.48579 0.0
H263 H 0.45041 0.23596 0.44399 0.0
H264 H 0.39913 0.18314 0.53773 0.0
H265 H 0.34548 0.14933 0.54633 0.0
C266 C 0.20821 0.91589 0.90635 0.0
C267 C 0.19514 0.87118 0.91045 0.0
C268 C 0.24585 0.8803 0.97405 0.0
C269 C 0.26301 0.92405 0.96619 0.0
N270 N 0.26553 0.98256 0.92109 0.0
N271 N 0.20474 0.80952 0.94479 0.0
C272 C 0.24546 0.94167 0.93137 0.0
C273 C 0.2145 0.85295 0.94365 0.0
N274 N 0.18413 0.93383 0.87931 0.0
N275 N 0.25892 0.86514 1.01094 0.0
H276 H 0.18182 0.78842 0.92324 0.0
H277 H 0.22179 0.79425 0.96496 0.0
H278 H 0.28224 0.88424 0.0336 0.0
H279 H 0.244 0.83472 1.02093 0.0
H280 H 0.18913 0.96671 0.87829 0.0
H281 H 0.15596 0.91594 0.8611 0.0
H282 H 0.25745 0.99541 0.89299 0.0
H283 H 0.29313 1.00258 0.93847 0.0
C284 C 0.65274 0.54665 0.73144 0.0
C285 C 0.62924 0.50728 0.74796 0.0
C286 C 0.56181 0.50714 0.70456 0.0
C287 C 0.58715 0.54312 0.68314 0.0
N288 N 0.65806 0.59716 0.67573 0.0
N289 N 0.56348 0.44661 0.74549 0.0
C290 C 0.63293 0.56315 0.69669 0.0
C291 C 0.58432 0.48664 0.73327 0.0
N292 N 0.69342 0.56893 0.74998 0.0
N293 N 0.51556 0.49395 0.69954 0.0
H294 H 0.57853 0.43029 0.76647 0.0
H295 H 0.53297 0.42804 0.7317 0.0
H296 H 0.49734 0.50992 0.68138 0.0
H297 H 0.49473 0.47054 0.71759 0.0
H298 H 0.71037 0.59983 0.74284 0.0
H299 H 0.70868 0.55777 0.77536 0.0
H300 H 0.69302 0.60949 0.67999 0.0
H301 H 0.64479 0.61177 0.65184 0.0
C302 C 0.98211 0.62539 0.22769 0.0
C303 C 0.94282 0.64139 0.22626 0.0
C304 C 0.93089 0.61387 0.14895 0.0
C305 C 0.9672 0.5942 0.15173 0.0
N306 N 0.0236 0.57594 0.19562 0.0
N307 N 0.87315 0.64035 0.1886 0.0
C308 C 0.99136 0.598 0.19185 0.0
C309 C 0.9153 0.63268 0.18773 0.0
N310 N 1.01222 0.63845 0.26186 0.0
N311 N 0.91178 0.61556 0.10913 0.0
H312 H 0.85913 0.65183 0.21688 0.0
H313 H 0.85 0.63068 0.16267 0.0
H314 H 0.9221 0.60219 0.07989 0.0
H315 H 0.88858 0.63353 0.10466 0.0
H316 H 0.04374 0.63146 0.26244 0.0
H317 H 1.00796 0.65994 0.28771 0.0
H318 H 0.03887 0.57378 0.22535 0.0
H319 H 0.03248 0.55692 0.16966 0.0
C320 C 0.48644 0.23724 0.22952 0.0
C321 C 0.45141 0.24422 0.203 0.0
C322 C 0.44299 0.1737 0.16465 0.0
C323 C 0.47488 0.16469 0.19392 0.0
N324 N 0.51804 0.18501 0.26138 0.0
N325 N 0.38733 0.21357 0.15483 0.0
C326 C 0.49389 0.19561 0.2286 0.0
C327 C 0.42677 0.21065 0.17369 0.0
N328 N 0.51417 0.2706 0.25399 0.0
N329 N 0.43056 0.14926 0.12627 0.0
H330 H 0.37353 0.23961 0.16159 0.0
H331 H 0.36584 0.18805 0.13652 0.0
H332 H 0.44429 0.12424 0.11557 0.0
H333 H 0.41095 0.15735 0.10225 0.0
H334 H 0.54315 0.26804 0.27017 0.0
H335 H 0.51082 0.30179 0.25483 0.0
H336 H 0.52906 0.20511 0.2895 0.0
H337 H 0.52265 0.15442 0.26285 0.0
C338 C 0.07778 0.88432 0.70543 0.0
C339 C 0.04807 0.88121 0.74208 0.0
C340 C 1.01305 0.93355 0.71303 0.0
C341 C 0.04006 0.93378 0.67461 0.0
N342 N 0.09046 0.90161 0.6299 0.0
N343 N 0.98108 0.89571 0.77636 0.0
C344 C 0.07007 0.90676 0.66946 0.0
C345 C 0.01368 0.90363 0.74451 0.0
N346 N 0.11504 0.86815 0.70588 0.0
N347 N 0.98882 0.96341 0.72079 0.0
H348 H 0.98024 0.8736 0.79964 0.0
H349 H 0.95252 0.90785 0.77701 0.0
H350 H 0.98882 0.98697 0.69942 0.0
H351 H 0.97215 0.96737 0.75029 0.0
H352 H 0.14049 0.87383 0.68214 0.0
H353 H 0.12312 0.85273 0.73212 0.0
H354 H 0.10858 0.8787 0.62308 0.0
H355 H 0.0856 0.91714 0.60246 0.0
C356 C 0.82799 0.42551 0.94418 0.0
C357 C 0.79659 0.4513 0.94752 0.0
C358 C 0.8458 0.49939 1.0032 0.0
C359 C 0.88076 0.47825 0.99416 0.0
N360 N 0.90543 0.42091 0.95432 0.0
N361 N 0.77647 0.51439 0.97882 0.0
C362 C 0.87171 0.44075 0.96476 0.0
C363 C 0.80579 0.48874 0.97664 0.0
N364 N 0.8163 0.38654 0.92094 0.0
N365 N 0.84995 0.52823 0.03885 0.0
H366 H 0.7455 0.50649 0.96195 0.0
H367 H 0.78418 0.54472 0.99526 0.0
H368 H 0.87707 0.53376 0.06088 0.0
H369 H 0.82424 0.5424 0.04958 0.0
H370 H 0.8351 0.36398 0.92168 0.0
H371 H 0.78589 0.3752 0.90341 0.0
H372 H 0.90294 0.39738 0.92866 0.0
H373 H 0.93735 0.42961 0.96917 0.0
C374 C 0.69461 0.68884 0.48825 0.0
C375 C 0.73153 0.67031 0.49257 0.0
C376 C 0.68543 0.61821 0.54015 0.0
C377 C 0.64733 0.63489 0.53325 0.0
N378 N 0.61296 0.67766 0.48993 0.0
N379 N 0.76016 0.6128 0.51559 0.0
C380 C 0.65115 0.66801 0.50442 0.0
C381 C 0.72645 0.63374 0.51664 0.0
N382 N 0.70119 0.72698 0.46972 0.0
N383 N 0.68302 0.58828 0.56987 0.0
H384 H 0.79063 0.62316 0.49864 0.0
H385 H 0.75642 0.58315 0.52812 0.0
H386 H 0.65348 0.5746 0.58672 0.0
H387 H 0.71128 0.57915 0.58037 0.0
H388 H 0.67664 0.74422 0.47023 0.0
H389 H 0.73253 0.74336 0.4574 0.0
H390 H 0.61351 0.69864 0.46563 0.0
H391 H 0.58015 0.66096 0.49814 0.0
C392 C 0.25373 0.35089 0.12652 0.0
C393 C 0.28633 0.38262 0.15191 0.0
C394 C 0.2325 0.42766 0.16032 0.0
C395 C 0.19932 0.39517 0.13653 0.0
N396 N 0.17521 0.32395 0.10162 0.0
N397 N 0.30605 0.44927 0.1969 0.0
C398 C 0.20908 0.35621 0.1209 0.0
C399 C 0.27537 0.42035 0.17016 0.0
N400 N 0.26568 0.31585 0.10748 0.0
N401 N 0.22351 0.46617 0.17213 0.0
H402 H 0.33902 0.44692 0.20239 0.0
H403 H 0.2983 0.47453 0.21572 0.0
H404 H 0.19215 0.47237 0.16657 0.0
H405 H 0.24773 0.49305 0.18494 0.0
H406 H 0.24571 0.29399 0.08442 0.0
H407 H 0.29698 0.30956 0.11305 0.0
H408 H 0.17826 0.29311 0.09355 0.0
H409 H 0.14249 0.32714 0.09623 0.0
C410 C 0.65362 0.23017 0.07056 0.0
C411 C 0.64209 0.23379 1.02644 0.0
C412 C 0.5818 0.16675 1.02828 0.0
C413 C 0.59073 0.16511 0.07368 0.0
N414 N 0.62681 0.20309 0.14034 0.0
N415 N 0.5875 0.21123 0.9672 0.0
C416 C 0.62431 0.19904 0.09551 0.0
C417 C 0.60395 0.2037 1.0064 0.0
N418 N 0.69342 0.25528 0.08837 0.0
N419 N 0.55362 0.13255 1.00528 0.0
H420 H 0.6016 0.23858 0.95078 0.0
H421 H 0.55696 0.19272 0.9534 0.0
H422 H 0.53661 0.10462 1.01931 0.0
H423 H 0.55042 0.1303 0.97119 0.0
H424 H 0.7057 0.25068 0.11881 0.0
H425 H 0.71641 0.27784 0.07105 0.0
H426 H 0.6478 0.22943 0.15794 0.0
H427 H 0.60408 0.18294 0.16012 0.0
C428 C 0.98542 0.8304 0.47454 0.0
C429 C 0.97072 0.83367 0.43148 0.0
C430 C 0.99737 0.91189 0.44199 0.0
C431 C 1.00468 0.90853 0.48729 0.0
N432 N 1.00038 0.86409 0.54808 0.0
N433 N 0.96057 0.87726 0.37397 0.0
C434 C 0.99799 0.86765 0.50389 0.0
C435 C 0.97669 0.87437 0.41484 0.0
N436 N 0.98714 0.79141 0.48731 0.0
N437 N 1.01101 0.95083 0.4248 0.0
H438 H 0.94661 0.85049 0.35275 0.0
H439 H 0.95868 0.90597 0.36208 0.0
H440 H 0.02681 0.97878 0.44365 0.0
H441 H 1.01054 0.95489 0.39132 0.0
H442 H 1.00162 0.78735 0.51684 0.0
H443 H 0.97829 0.76366 0.46623 0.0
H444 H 0.99102 0.83501 0.56244 0.0
H445 H 1.00753 0.89032 0.57107 0.0
C446 C 0.26277 0.72224 0.70496 0.0
C447 C 0.26267 0.76477 0.71937 0.0
C448 C 0.34463 0.7882 0.70482 0.0
C449 C 0.3456 0.74495 0.69622 0.0
N450 N 0.30684 0.66998 0.69579 0.0
N451 N 0.30549 0.83713 0.74117 0.0
C452 C 0.30497 0.71167 0.69828 0.0
C453 C 0.30408 0.79763 0.72126 0.0
N454 N 0.22257 0.6922 0.69635 0.0
N455 N 0.3822 0.82032 0.69662 0.0
H456 H 0.27718 0.8452 0.7554 0.0
H457 H 0.33574 0.86062 0.74755 0.0
H458 H 0.41252 0.8146 0.68448 0.0
H459 H 0.38187 0.85239 0.69793 0.0
H460 H 0.22078 0.66178 0.68164 0.0
H461 H 0.19096 0.69908 0.69961 0.0
H462 H 0.27884 0.64474 0.70168 0.0
H463 H 0.33727 0.66094 0.69209 0.0
C464 C 0.70962 0.89633 0.76817 0.0
C465 C 0.72832 0.86688 0.78851 0.0
C466 C 0.80418 0.9153 0.78293 0.0
C467 C 0.78674 0.93688 0.7515 0.0
N468 N 0.72447 0.96967 0.74986 0.0
N469 N 0.79309 0.85096 0.82153 0.0
C470 C 0.73951 0.93413 0.75388 0.0
C471 C 0.77549 0.8776 0.79869 0.0
N472 N 0.6638 0.88785 0.76143 0.0
N473 N 0.84669 0.93291 0.79989 0.0
H474 H 0.77271 0.82389 0.83497 0.0
H475 H 0.82795 0.85479 0.82533 0.0
H476 H 0.86617 0.96253 0.79082 0.0
H477 H 0.8602 0.92067 0.82559 0.0
H478 H 0.6493 0.90645 0.74264 0.0
H479 H 0.64082 0.86109 0.77289 0.0
H480 H 0.69064 0.97032 0.75476 0.0
H481 H 0.74737 0.99971 0.74855 0.0
C482 C 0.8301 0.25068 0.36098 0.0
C483 C 0.86599 0.26471 0.3308 0.0
C484 C 0.81459 0.2344 0.26892 0.0
C485 C 0.77895 0.22015 0.29913 0.0
N486 N 0.74865 0.22494 0.37205 0.0
N487 N 0.8896 0.2808 0.25693 0.0
C488 C 0.78539 0.23193 0.34462 0.0
C489 C 0.85725 0.26011 0.28496 0.0
N490 N 0.8391 0.25246 0.40492 0.0
N491 N 0.80843 0.22159 0.22524 0.0
H492 H 0.92097 0.30037 0.26789 0.0
H493 H 0.88377 0.28198 0.22359 0.0
H494 H 0.7773 0.20368 0.21207 0.0
H495 H 0.8348 0.22651 0.20246 0.0
H496 H 0.81517 0.23827 0.42772 0.0
H497 H 0.87143 0.26526 0.41845 0.0
H498 H 0.75041 0.2366 0.4049 0.0
H499 H 0.71551 0.21112 0.3607 0.0
C500 C 0.46826 0.70099 0.44441 0.0
C501 C 0.43479 0.67702 0.41401 0.0
C502 C 0.43293 0.61146 0.4508 0.0
C503 C 0.46438 0.63589 0.4829 0.0
N504 N 0.50945 0.70465 0.51255 0.0
N505 N 0.38028 0.61084 0.39151 0.0
C506 C 0.48105 0.68092 0.48046 0.0
C507 C 0.416 0.63254 0.41791 0.0
N508 N 0.48954 0.74256 0.43749 0.0
N509 N 0.41905 0.56797 0.45179 0.0
H510 H 0.36689 0.62503 0.36721 0.0
H511 H 0.36142 0.57973 0.39569 0.0
H512 H 0.42751 0.55163 0.47715 0.0
H513 H 0.4011 0.54768 0.42639 0.0
H514 H 0.51788 0.76066 0.45514 0.0
H515 H 0.48115 0.75826 0.41154 0.0
H516 H 0.51773 0.73789 0.51639 0.0
H517 H 0.52338 0.69108 0.53685 0.0
C518 C 0.13654 0.4699 0.89664 0.0
C519 C 0.10973 0.44971 0.8596 0.0
C520 C 0.04317 0.46957 0.89275 0.0
C521 C 0.07049 0.49138 0.92908 0.0
N522 N 0.14588 0.52269 0.95861 0.0
N523 N 0.04096 0.43947 0.81737 0.0
C524 C 0.11802 0.49457 0.92899 0.0
C525 C 0.06405 0.45232 0.85617 0.0
N526 N 0.17906 0.46419 0.90196 0.0
N527 N 0.99699 0.46348 0.89376 0.0
H528 H 0.05529 0.42723 0.78968 0.0
H529 H 1.00939 0.44485 0.81121 0.0
H530 H 0.98001 0.47604 0.91913 0.0
H531 H 0.97499 0.44313 0.87096 0.0
H532 H 0.198 0.47404 0.93077 0.0
H533 H 0.19391 0.44641 0.8791 0.0
H534 H 0.18127 0.52924 0.95768 0.0
H535 H 0.13396 0.54316 0.98098 0.0
C536 C 0.60868 0.9217 0.04122 0.0
C537 C 0.60983 0.93065 0.99632 0.0
C538 C 0.58589 0.99578 1.01674 0.0
C539 C 0.57841 0.98399 0.06057 0.0
N540 N 0.58021 0.93344 0.11447 0.0
N541 N 0.58706 0.97028 0.94063 0.0
C542 C 0.58943 0.94645 0.07299 0.0
C543 C 0.59507 0.96609 0.98377 0.0
N544 N 0.62712 0.89018 0.05371 0.0
N545 N 0.58634 0.03619 1.00687 0.0
H546 H 0.58957 0.94744 0.91548 0.0
H547 H 0.5724 0.99371 0.93059 0.0
H548 H 0.5836 0.05989 0.03099 0.0
H549 H 0.59538 0.04749 0.97605 0.0
H550 H 0.63243 0.88545 0.08636 0.0
H551 H 0.6405 0.87069 0.0314 0.0
H552 H 0.58195 0.90365 0.12356 0.0
H553 H 0.56737 0.95078 0.13928 0.0
C554 C 1.0019 0.12862 0.42218 0.0
C555 C 0.03388 0.16898 0.42962 0.0
C556 C 0.07306 0.14043 0.48506 0.0
C557 C 0.03818 0.10143 0.48117 0.0
N558 N 0.97007 0.05718 0.4459 0.0
N559 N 0.09898 0.2147 0.46829 0.0
C560 C 1.0029 0.09513 0.44946 0.0
C561 C 0.06938 0.17515 0.4609 0.0
N562 N 0.97066 0.12243 0.38896 0.0
N563 N 0.10992 0.14434 0.51164 0.0
H564 H 0.09946 0.24015 0.44924 0.0
H565 H 0.12162 0.22326 0.49464 0.0
H566 H 0.1132 0.12097 0.53181 0.0
H567 H 0.13914 0.16955 0.5116 0.0
H568 H 0.94932 0.09287 0.37853 0.0
H569 H 0.96753 0.14672 0.36974 0.0
H570 H 0.9403 0.05186 0.42762 0.0
H571 H 0.97183 0.03078 0.46255 0.0
C572 C 0.21596 0.60559 0.1214 0.0
C573 C 0.2248 0.65016 0.13281 0.0
C574 C 0.15076 0.65052 0.10224 0.0
C575 C 0.14311 0.60649 0.08809 0.0
N576 N 0.17194 0.54389 0.07714 0.0
N577 N 0.20563 0.71686 0.12522 0.0
C578 C 0.17678 0.58451 0.09565 0.0
C579 C 0.19365 0.67315 0.12064 0.0
N580 N 0.24414 0.5831 0.13651 0.0
N581 N 0.11638 0.67039 0.10039 0.0
H582 H 0.23686 0.73477 0.13819 0.0
H583 H 0.1865 0.73546 0.11228 0.0
H584 H 0.08426 0.65534 0.08756 0.0
H585 H 0.11839 0.7008 0.11521 0.0
H586 H 0.237 0.54989 0.13334 0.0
H587 H 0.27309 0.59743 0.15543 0.0
H588 H 0.19728 0.52765 0.07763 0.0
H589 H 0.14405 0.52763 0.05772 0.0
C590 C 0.34307 0.45307 0.65668 0.0
C591 C 0.31285 0.476 0.67604 0.0
C592 C 0.35997 0.54211 0.64797 0.0
C593 C 0.39279 0.52011 0.63324 0.0
N594 N 0.41908 0.45584 0.6299 0.0
N595 N 0.29587 0.54355 0.6958 0.0
C596 C 0.38525 0.47585 0.63916 0.0
C597 C 0.32206 0.52085 0.67305 0.0
N598 N 0.33074 0.40935 0.65348 0.0
N599 N 0.36416 0.58289 0.63673 0.0
H600 H 0.26809 0.52933 0.71487 0.0
H601 H 0.30415 0.57681 0.69899 0.0
H602 H 0.3913 0.59946 0.61828 0.0
H603 H 0.33854 0.59865 0.64191 0.0
H604 H 0.34908 0.39092 0.63545 0.0
H605 H 0.29983 0.39138 0.66516 0.0
H606 H 0.41749 0.42506 0.63849 0.0
H607 H 0.45059 0.4712 0.61725 0.0
C608 C 0.76969 0.64521 0.86384 0.0
C609 C 0.77536 0.67551 0.83177 0.0
C610 C 0.85795 0.68504 0.83361 0.0
C611 C 0.85268 0.65988 0.87023 0.0
N612 N 0.80375 0.61985 0.92404 0.0
N613 N 0.82543 0.72932 0.79052 0.0
C614 C 0.80856 0.64067 0.88626 0.0
C615 C 0.81962 0.69655 0.81744 0.0
N616 N 0.72726 0.6201 0.8721 0.0
N617 N 0.89952 0.69747 0.81394 0.0
H618 H 0.79852 0.73969 0.7786 0.0
H619 H 0.85724 0.7489 0.78321 0.0
H620 H 0.9283 0.6893 0.8248 0.0
H621 H 0.90444 0.7122 0.78446 0.0
H622 H 0.72154 0.59447 0.89187 0.0
H623 H 0.69817 0.6222 0.8557 0.0
H624 H 0.77264 0.60936 0.9398 0.0
H625 H 0.83126 0.61607 0.94178 0.0
C626 C 0.42853 0.9024 0.26057 0.0
C627 C 0.43096 0.8644 0.23542 0.0
C628 C 0.4644 0.90642 0.17369 0.0
C629 C 0.46249 0.94492 0.19863 0.0
N630 N 0.43621 0.97912 0.2631 0.0
N631 N 0.4613 0.83099 0.1733 0.0
C632 C 0.44347 0.94285 0.24174 0.0
C633 C 0.45164 0.86673 0.19344 0.0
N634 N 0.41183 0.89965 0.30242 0.0
N635 N 0.47686 0.90714 0.13045 0.0
H636 H 0.45338 0.80159 0.18721 0.0
H637 H 0.48134 0.83128 0.14527 0.0
H638 H 0.48928 0.93492 0.11452 0.0
H639 H 0.47224 0.87977 0.10911 0.0
H640 H 0.41281 0.92579 0.32461 0.0
H641 H 0.39905 0.87061 0.31633 0.0
H642 H 0.41948 0.98005 0.29297 0.0
H643 H 0.44379 1.00855 0.24937 0.0
C644 C 0.10717 0.17642 0.71315 0.0
C645 C 0.0799 0.20478 0.70594 0.0
C646 C 0.03416 0.15203 0.65155 0.0
C647 C 0.06295 0.12454 0.6569 0.0
N648 N 0.13012 0.11217 0.68854 0.0
N649 N 0.02335 0.22351 0.66276 0.0
C650 C 0.1006 0.13736 0.6863 0.0
C651 C 0.04489 0.19357 0.67372 0.0
N652 N 0.13788 0.1859 0.74703 0.0
N653 N 0.99645 0.13848 0.62525 0.0
H654 H 0.03078 0.2545 0.67772 0.0
H655 H 1.00118 0.21917 0.63619 0.0
H656 H 0.98886 0.1096 0.60616 0.0
H657 H 0.97099 0.15454 0.62441 0.0
H658 H 0.15516 0.16457 0.75735 0.0
H659 H 0.14378 0.21422 0.76718 0.0
H660 H 0.1612 0.12197 0.70505 0.0
H661 H 0.12484 0.08211 0.6717 0.0
C662 C 0.72505 0.40348 0.38858 0.0
C663 C 0.73787 0.37123 0.41026 0.0
C664 C 0.67328 0.36606 0.4607 0.0
C665 C 0.66275 0.4007 0.44132 0.0
N666 N 0.6807 0.4559 0.39045 0.0
N667 N 0.72726 0.32353 0.46858 0.0
C668 C 0.68911 0.42029 0.40609 0.0
C669 C 0.71284 0.353 0.44685 0.0
N670 N 0.74706 0.41777 0.35103 0.0
N671 N 0.64468 0.34501 0.49153 0.0
H672 H 0.75461 0.3115 0.458 0.0
H673 H 0.71392 0.31264 0.49843 0.0
H674 H 0.61585 0.3542 0.50292 0.0
H675 H 0.64745 0.3167 0.50366 0.0
H676 H 0.7361 0.43754 0.33078 0.0
H677 H 0.77485 0.40762 0.33829 0.0
H678 H 0.70181 0.47471 0.36841 0.0
H679 H 0.65407 0.46861 0.4018 0.0
loop_
_geom_bond_atom_site_label_1
_geom_bond_atom_site_label_2
_geom_bond_distance
_geom_bond_site_symmetry_2
_ccdc_geom_bond_type
O0 Cd1 2.300 . S
O0 C7 1.275 . S
Cd1 O0 2.300 . S
Cd1 O9 2.381 . S
Cd1 O10 2.378 . S
O2 Cd3 2.385 . S
O2 C7 1.255 . S
Cd3 O2 2.385 . S
Cd3 O4 2.317 . S
O4 Cd3 2.317 . S
O4 C5 1.232 . S
C5 O4 1.232 . S
C5 O6 1.218 . S
O6 C5 1.218 . S
C7 O0 1.275 . S
C7 O2 1.255 . S
C8 O9 1.258 . S
C8 O10 1.256 . S
O9 Cd1 2.381 . S
O9 C8 1.258 . S
O10 Cd1 2.378 . S
O10 C8 1.256 . S
O11 Cd12 2.300 . S
O11 C18 1.275 . S
Cd12 O11 2.300 . S
Cd12 O20 2.381 . S
Cd12 O21 2.378 . S
O13 Cd14 2.385 . S
O13 C18 1.255 . S
Cd14 O13 2.385 . S
Cd14 O15 2.317 . S
O15 Cd14 2.317 . S
O15 C16 1.232 . S
C16 O15 1.232 . S
C16 O17 1.218 . S
O17 C16 1.218 . S
C18 O11 1.275 . S
C18 O13 1.255 . S
C19 O20 1.258 . S
C19 O21 1.256 . S
O20 Cd12 2.381 . S
O20 C19 1.258 . S
O21 Cd12 2.378 . S
O21 C19 1.256 . S
O22 Cd23 2.300 . S
O22 C29 1.275 . S
Cd23 O22 2.300 . S
Cd23 O31 2.381 . S
Cd23 O32 2.378 . S
O24 Cd25 2.385 . S
O24 C29 1.255 . S
Cd25 O24 2.385 . S
Cd25 O26 2.317 . S
O26 Cd25 2.317 . S
O26 C27 1.232 . S
C27 O26 1.232 . S
C27 O28 1.218 . S
O28 C27 1.218 . S
C29 O22 1.275 . S
C29 O24 1.255 . S
C30 O31 1.258 . S
C30 O32 1.256 . S
O31 Cd23 2.381 . S
O31 C30 1.258 . S
O32 Cd23 2.378 . S
O32 C30 1.256 . S
O33 Cd34 2.300 . S
O33 C40 1.275 . S
Cd34 O33 2.300 . S
Cd34 O42 2.381 . S
Cd34 O43 2.378 . S
O35 Cd36 2.385 . S
O35 C40 1.255 . S
Cd36 O35 2.385 . S
Cd36 O37 2.317 . S
O37 Cd36 2.317 . S
O37 C38 1.232 . S
C38 O37 1.232 . S
C38 O39 1.218 . S
O39 C38 1.218 . S
C40 O33 1.275 . S
C40 O35 1.255 . S
C41 O42 1.258 . S
C41 O43 1.256 . S
O42 Cd34 2.381 . S
O42 C41 1.258 . S
O43 Cd34 2.378 . S
O43 C41 1.256 . S
O44 Cd45 2.300 . S
O44 C51 1.275 . S
Cd45 O44 2.300 . S
Cd45 O53 2.381 . S
Cd45 O54 2.378 . S
O46 Cd47 2.385 . S
O46 C51 1.255 . S
Cd47 O46 2.385 . S
Cd47 O48 2.317 . S
O48 Cd47 2.317 . S
O48 C49 1.232 . S
C49 O48 1.232 . S
C49 O50 1.218 . S
O50 C49 1.218 . S
C51 O44 1.275 . S
C51 O46 1.255 . S
C52 O53 1.258 . S
C52 O54 1.256 . S
O53 Cd45 2.381 . S
O53 C52 1.258 . S
O54 Cd45 2.378 . S
O54 C52 1.256 . S
O55 Cd56 2.300 . S
O55 C62 1.275 . S
Cd56 O55 2.300 . S
Cd56 O64 2.381 . S
Cd56 O65 2.378 1_655 S
O57 Cd58 2.385 . S
O57 C62 1.255 . S
Cd58 O57 2.385 . S
Cd58 O59 2.317 . S
O59 Cd58 2.317 . S
O59 C60 1.232 . S
C60 O59 1.232 . S
C60 O61 1.218 . S
O61 C60 1.218 . S
C62 O55 1.275 . S
C62 O57 1.255 . S
C63 O64 1.258 . S
C63 O65 1.256 1_655 S
O64 Cd56 2.381 . S
O64 C63 1.258 . S
O65 Cd56 2.378 1_455 S
O65 C63 1.256 1_455 S
O66 Cd67 2.300 . S
O66 C73 1.275 . S
Cd67 O66 2.300 . S
Cd67 O75 2.381 . S
Cd67 O76 2.378 . S
O68 Cd69 2.385 . S
O68 C73 1.255 . S
Cd69 O68 2.385 . S
Cd69 O70 2.317 . S
O70 Cd69 2.317 . S
O70 C71 1.232 . S
C71 O70 1.232 . S
C71 O72 1.218 . S
O72 C71 1.218 . S
C73 O66 1.275 . S
C73 O68 1.255 . S
C74 O75 1.258 . S
C74 O76 1.256 . S
O75 Cd67 2.381 . S
O75 C74 1.258 . S
O76 Cd67 2.378 . S
O76 C74 1.256 . S
O77 Cd78 2.300 . S
O77 C84 1.275 . S
Cd78 O77 2.300 . S
Cd78 O86 2.381 . S
Cd78 O87 2.378 . S
O79 Cd80 2.385 . S
O79 C84 1.255 . S
Cd80 O79 2.385 . S
Cd80 O81 2.317 . S
O81 Cd80 2.317 . S
O81 C82 1.232 . S
C82 O81 1.232 . S
C82 O83 1.218 . S
O83 C82 1.218 . S
C84 O77 1.275 . S
C84 O79 1.255 . S
C85 O86 1.258 . S
C85 O87 1.256 . S
O86 Cd78 2.381 . S
O86 C85 1.258 . S
O87 Cd78 2.378 . S
O87 C85 1.256 . S
Tb88 C97 2.764 . S
Tb88 O98 2.325 . S
Tb88 O101 2.303 . S
Tb88 O105 2.322 1_545 S
Tb88 O106 2.349 1_545 S
Tb88 O109 2.415 . S
Tb88 O110 2.399 . S
Tb89 O99 2.322 . S
Tb89 O100 2.349 . S
Tb89 O102 2.415 1_545 S
Tb89 O103 2.401 . S
Tb89 O104 2.325 1_645 S
Tb89 O107 2.303 1_545 S
Tb89 C118 2.764 1_545 S
C90 O106 1.261 1_655 S
C90 O107 1.257 . S
C91 C94 1.358 . S
C91 C95 1.332 . S
C91 C97 1.504 . S
C92 C93 1.373 . S
C92 C96 1.308 . S
C93 C92 1.373 . S
C93 C94 1.429 . S
C93 H120 0.932 . S
C94 C91 1.358 . S
C94 C93 1.429 . S
C94 H121 0.930 . S
C95 C91 1.332 . S
C95 C96 1.394 . S
C95 H122 0.932 . S
C96 C92 1.308 . S
C96 C95 1.394 . S
C96 H123 0.929 . S
C97 Tb88 2.764 . S
C97 C91 1.504 . S
C97 O109 1.239 . S
C97 O110 1.263 . S
O98 Tb88 2.325 . S
O98 C108 1.236 1_455 S
O99 Tb89 2.322 . S
O99 C108 1.257 . S
O100 Tb89 2.349 . S
O100 C111 1.261 1_655 S
O101 Tb88 2.303 . S
O101 C111 1.257 . S
O102 Tb89 2.415 1_565 S
O102 C118 1.239 . S
O103 Tb89 2.401 . S
O103 C118 1.247 1_545 S
O104 Tb89 2.325 1_465 S
O104 C119 1.236 . S
O105 Tb88 2.322 1_565 S
O105 C119 1.257 . S
O106 Tb88 2.349 1_565 S
O106 C90 1.261 1_455 S
O107 Tb89 2.303 1_565 S
O107 C90 1.257 . S
C108 O98 1.236 1_655 S
C108 O99 1.257 . S
O109 Tb88 2.415 . S
O109 C97 1.239 . S
O110 Tb88 2.399 . S
O110 C97 1.263 . S
C111 O100 1.261 1_455 S
C111 O101 1.257 . S
C112 C115 1.358 . S
C112 C116 1.332 . S
C112 C118 1.504 . S
C113 C114 1.373 . S
C113 C117 1.308 . S
C114 C113 1.373 . S
C114 C115 1.429 . S
C114 H124 0.932 . S
C115 C112 1.358 . S
C115 C114 1.429 . S
C115 H125 0.930 . S
C116 C112 1.332 . S
C116 C117 1.394 . S
C116 H126 0.932 . S
C117 C113 1.308 . S
C117 C116 1.394 . S
C117 H127 0.929 . S
C118 Tb89 2.764 1_565 S
C118 O102 1.239 . S
C118 O103 1.247 1_565 S
C118 C112 1.504 . S
C119 O104 1.236 . S
C119 O105 1.257 . S
H120 C93 0.932 . S
H121 C94 0.930 . S
H122 C95 0.932 . S
H123 C96 0.929 . S
H124 C114 0.932 . S
H125 C115 0.930 . S
H126 C116 0.932 . S
H127 C117 0.929 . S
Tb128 C137 2.764 . S
Tb128 O138 2.325 . S
Tb128 O141 2.303 . S
Tb128 O145 2.322 1_545 S
Tb128 O146 2.349 . S
Tb128 O149 2.415 . S
Tb128 O150 2.399 . S
Tb129 O139 2.322 . S
Tb129 O140 2.349 . S
Tb129 O142 2.415 1_544 S
Tb129 O143 2.399 1_545 S
Tb129 O144 2.325 1_545 S
Tb129 O147 2.303 . S
Tb129 C158 2.764 1_544 S
C130 O146 1.261 1_565 S
C130 O147 1.257 1_565 S
C131 C134 1.358 . S
C131 C135 1.332 . S
C131 C137 1.504 . S
C132 C133 1.373 . S
C132 C136 1.308 . S
C133 C132 1.373 . S
C133 C134 1.429 . S
C133 H160 0.932 . S
C134 C131 1.358 . S
C134 C133 1.429 . S
C134 H161 0.930 . S
C135 C131 1.332 . S
C135 C136 1.394 . S
C135 H162 0.932 . S
C136 C132 1.308 . S
C136 C135 1.394 . S
C136 H163 0.929 . S
C137 Tb128 2.764 . S
C137 C131 1.504 . S
C137 O149 1.239 . S
C137 O150 1.263 . S
O138 Tb128 2.325 . S
O138 C148 1.236 . S
O139 Tb129 2.322 . S
O139 C148 1.257 . S
O140 Tb129 2.349 . S
O140 C151 1.261 . S
O141 Tb128 2.303 . S
O141 C151 1.257 . S
O142 Tb129 2.415 1_566 S
O142 C158 1.239 . S
O143 Tb129 2.399 1_565 S
O143 C158 1.263 1_554 S
O144 Tb129 2.325 1_565 S
O144 C159 1.236 . S
O145 Tb128 2.322 1_565 S
O145 C159 1.257 . S
O146 Tb128 2.349 . S
O146 C130 1.261 1_545 S
O147 Tb129 2.303 . S
O147 C130 1.257 1_545 S
C148 O138 1.236 . S
C148 O139 1.257 . S
O149 Tb128 2.415 . S
O149 C137 1.239 . S
O150 Tb128 2.399 . S
O150 C137 1.263 . S
C151 O140 1.261 . S
C151 O141 1.257 . S
C152 C155 1.358 . S
C152 C156 1.332 . S
C152 C158 1.504 . S
C153 C154 1.373 . S
C153 C157 1.308 . S
C154 C153 1.373 . S
C154 C155 1.429 . S
C154 H164 0.932 . S
C155 C152 1.358 . S
C155 C154 1.429 . S
C155 H165 0.930 . S
C156 C152 1.332 . S
C156 C157 1.394 . S
C156 H166 0.932 . S
C157 C153 1.308 . S
C157 C156 1.394 . S
C157 H167 0.929 . S
C158 Tb129 2.764 1_566 S
C158 O142 1.239 . S
C158 O143 1.263 1_556 S
C158 C152 1.504 . S
C159 O144 1.236 . S
C159 O145 1.257 . S
H160 C133 0.932 . S
H161 C134 0.930 . S
H162 C135 0.932 . S
H163 C136 0.929 . S
H164 C154 0.932 . S
H165 C155 0.930 . S
H166 C156 0.932 . S
H167 C157 0.929 . S
Tb168 C177 2.764 . S
Tb168 O178 2.325 . S
Tb168 O181 2.303 . S
Tb168 O185 2.322 . S
Tb168 O186 2.349 . S
Tb168 O189 2.415 . S
Tb168 O190 2.399 . S
Tb169 O179 2.322 . S
Tb169 O180 2.349 . S
Tb169 O182 2.415 . S
Tb169 O183 2.399 . S
Tb169 O184 2.325 . S
Tb169 O187 2.303 . S
Tb169 C198 2.764 . S
C170 O186 1.261 . S
C170 O187 1.257 . S
C171 C174 1.358 . S
C171 C175 1.332 . S
C171 C177 1.504 . S
C172 C173 1.373 . S
C172 C176 1.308 . S
C173 C172 1.373 . S
C173 C174 1.429 . S
C173 H200 0.932 . S
C174 C171 1.358 . S
C174 C173 1.429 . S
C174 H201 0.930 . S
C175 C171 1.332 . S
C175 C176 1.394 . S
C175 H202 0.932 . S
C176 C172 1.308 . S
C176 C175 1.394 . S
C176 H203 0.929 . S
C177 Tb168 2.764 . S
C177 C171 1.504 . S
C177 O189 1.239 . S
C177 O190 1.263 . S
O178 Tb168 2.325 . S
O178 C188 1.236 . S
O179 Tb169 2.322 . S
O179 C188 1.257 . S
O180 Tb169 2.349 . S
O180 C191 1.261 . S
O181 Tb168 2.303 . S
O181 C191 1.257 . S
O182 Tb169 2.415 . S
O182 C198 1.239 . S
O183 Tb169 2.399 . S
O183 C198 1.263 . S
O184 Tb169 2.325 . S
O184 C199 1.236 . S
O185 Tb168 2.322 . S
O185 C199 1.257 . S
O186 Tb168 2.349 . S
O186 C170 1.261 . S
O187 Tb169 2.303 . S
O187 C170 1.257 . S
C188 O178 1.236 . S
C188 O179 1.257 . S
O189 Tb168 2.415 . S
O189 C177 1.239 . S
O190 Tb168 2.399 . S
O190 C177 1.263 . S
C191 O180 1.261 . S
C191 O181 1.257 . S
C192 C195 1.358 . S
C192 C196 1.332 . S
C192 C198 1.504 . S
C193 C194 1.373 . S
C193 C197 1.308 . S
C194 C193 1.373 . S
C194 C195 1.429 . S
C194 H204 0.932 . S
C195 C192 1.358 . S
C195 C194 1.429 . S
C195 H205 0.930 . S
C196 C192 1.332 . S
C196 C197 1.394 . S
C196 H206 0.932 . S
C197 C193 1.308 . S
C197 C196 1.394 . S
C197 H207 0.929 . S
C198 Tb169 2.764 . S
C198 O182 1.239 . S
C198 O183 1.263 . S
C198 C192 1.504 . S
C199 O184 1.236 . S
C199 O185 1.257 . S
H200 C173 0.932 . S
H201 C174 0.930 . S
H202 C175 0.932 . S
H203 C176 0.929 . S
H204 C194 0.932 . S
H205 C195 0.930 . S
H206 C196 0.932 . S
H207 C197 0.929 . S
Tb208 C217 2.764 1_455 S
Tb208 O218 2.325 1_455 S
Tb208 O221 2.303 1_556 S
Tb208 O225 2.322 1_556 S
Tb208 O226 2.349 . S
Tb208 O229 2.415 1_455 S
Tb208 O230 2.399 1_455 S
Tb209 O219 2.322 1_455 S
Tb209 O220 2.349 1_455 S
Tb209 O222 2.415 . S
Tb209 O223 2.399 . S
Tb209 O224 2.325 . S
Tb209 O227 2.303 1_554 S
Tb209 C238 2.764 . S
C210 O226 1.261 . S
C210 O227 1.257 . S
C211 C214 1.358 . S
C211 C215 1.332 . S
C211 C217 1.504 . S
C212 C213 1.373 . S
C212 C216 1.308 . S
C213 C212 1.373 . S
C213 C214 1.429 . S
C213 H240 0.932 . S
C214 C211 1.358 . S
C214 C213 1.429 . S
C214 H241 0.930 . S
C215 C211 1.332 . S
C215 C216 1.394 . S
C215 H242 0.932 . S
C216 C212 1.308 . S
C216 C215 1.394 . S
C216 H243 0.929 . S
C217 Tb208 2.764 1_655 S
C217 C211 1.504 . S
C217 O229 1.239 . S
C217 O230 1.263 . S
O218 Tb208 2.325 1_655 S
O218 C228 1.236 . S
O219 Tb209 2.322 1_655 S
O219 C228 1.257 1_554 S
O220 Tb209 2.349 1_655 S
O220 C231 1.261 . S
O221 Tb208 2.303 1_554 S
O221 C231 1.257 1_455 S
O222 Tb209 2.415 . S
O222 C238 1.239 . S
O223 Tb209 2.399 . S
O223 C238 1.263 . S
O224 Tb209 2.325 . S
O224 C239 1.236 . S
O225 Tb208 2.322 1_554 S
O225 C239 1.257 . S
O226 Tb208 2.349 . S
O226 C210 1.261 . S
O227 Tb209 2.303 1_556 S
O227 C210 1.257 . S
C228 O218 1.236 . S
C228 O219 1.257 1_556 S
O229 Tb208 2.415 1_655 S
O229 C217 1.239 . S
O230 Tb208 2.399 1_655 S
O230 C217 1.263 . S
C231 O220 1.261 . S
C231 O221 1.257 1_655 S
C232 C235 1.358 . S
C232 C236 1.332 . S
C232 C238 1.504 . S
C233 C234 1.373 . S
C233 C237 1.308 . S
C234 C233 1.373 . S
C234 C235 1.429 . S
C234 H244 0.932 . S
C235 C232 1.358 . S
C235 C234 1.429 . S
C235 H245 0.930 . S
C236 C232 1.332 . S
C236 C237 1.394 . S
C236 H246 0.932 . S
C237 C233 1.308 . S
C237 C236 1.394 . S
C237 H247 0.929 . S
C238 Tb209 2.764 . S
C238 O222 1.239 . S
C238 O223 1.263 . S
C238 C232 1.504 . S
C239 O224 1.236 . S
C239 O225 1.257 . S
H240 C213 0.932 . S
H241 C214 0.930 . S
H242 C215 0.932 . S
H243 C216 0.929 . S
H244 C234 0.932 . S
H245 C235 0.930 . S
H246 C236 0.932 . S
H247 C237 0.929 . S
C248 C249 1.363 . S
C248 C254 1.379 . S
C248 N256 1.356 . S
C249 C248 1.363 . S
C249 C255 1.363 . S
C250 C251 1.363 . S
C250 C255 1.379 . S
C250 N257 1.356 . S
C251 C250 1.363 . S
C251 C254 1.363 . S
N252 C254 1.356 . S
N252 H264 0.984 . S
N252 H265 0.985 . S
N253 C255 1.356 . S
N253 H258 0.984 . S
N253 H259 0.985 . S
C254 C248 1.379 . S
C254 C251 1.363 . S
C254 N252 1.356 . S
C255 C249 1.363 . S
C255 C250 1.379 . S
C255 N253 1.356 . S
N256 C248 1.356 . S
N256 H262 0.984 . S
N256 H263 0.984 . S
N257 C250 1.356 . S
N257 H260 0.984 . S
N257 H261 0.985 . S
H258 N253 0.984 . S
H259 N253 0.985 . S
H260 N257 0.984 . S
H261 N257 0.985 . S
H262 N256 0.984 . S
H263 N256 0.984 . S
H264 N252 0.984 . S
H265 N252 0.985 . S
C266 C267 1.363 . S
C266 C272 1.379 . S
C266 N274 1.356 . S
C267 C266 1.363 . S
C267 C273 1.363 . S
C268 C269 1.363 . S
C268 C273 1.379 . S
C268 N275 1.356 . S
C269 C268 1.363 . S
C269 C272 1.363 . S
N270 C272 1.356 . S
N270 H282 0.984 . S
N270 H283 0.985 . S
N271 C273 1.356 . S
N271 H276 0.984 . S
N271 H277 0.985 . S
C272 C266 1.379 . S
C272 C269 1.363 . S
C272 N270 1.356 . S
C273 C267 1.363 . S
C273 C268 1.379 . S
C273 N271 1.356 . S
N274 C266 1.356 . S
N274 H280 0.984 . S
N274 H281 0.984 . S
N275 C268 1.356 . S
N275 H278 0.984 . S
N275 H279 0.985 . S
H276 N271 0.984 . S
H277 N271 0.985 . S
H278 N275 0.984 . S
H279 N275 0.985 . S
H280 N274 0.984 . S
H281 N274 0.984 . S
H282 N270 0.984 . S
H283 N270 0.985 . S
C284 C285 1.363 . S
C284 C290 1.379 . S
C284 N292 1.356 . S
C285 C284 1.363 . S
C285 C291 1.363 . S
C286 C287 1.363 . S
C286 C291 1.379 . S
C286 N293 1.356 . S
C287 C286 1.363 . S
C287 C290 1.363 . S
N288 C290 1.356 . S
N288 H300 0.984 . S
N288 H301 0.985 . S
N289 C291 1.356 . S
N289 H294 0.984 . S
N289 H295 0.985 . S
C290 C284 1.379 . S
C290 C287 1.363 . S
C290 N288 1.356 . S
C291 C285 1.363 . S
C291 C286 1.379 . S
C291 N289 1.356 . S
N292 C284 1.356 . S
N292 H298 0.984 . S
N292 H299 0.984 . S
N293 C286 1.356 . S
N293 H296 0.984 . S
N293 H297 0.985 . S
H294 N289 0.984 . S
H295 N289 0.985 . S
H296 N293 0.984 . S
H297 N293 0.985 . S
H298 N292 0.984 . S
H299 N292 0.984 . S
H300 N288 0.984 . S
H301 N288 0.985 . S
C302 C303 1.363 . S
C302 C308 1.379 . S
C302 N310 1.356 . S
C303 C302 1.363 . S
C303 C309 1.363 . S
C304 C305 1.363 . S
C304 C309 1.379 . S
C304 N311 1.356 . S
C305 C304 1.363 . S
C305 C308 1.363 . S
N306 C308 1.356 1_455 S
N306 H318 0.984 . S
N306 H319 0.985 . S
N307 C309 1.356 . S
N307 H312 0.984 . S
N307 H313 0.985 . S
C308 C302 1.379 . S
C308 C305 1.363 . S
C308 N306 1.356 1_655 S
C309 C303 1.363 . S
C309 C304 1.379 . S
C309 N307 1.356 . S
N310 C302 1.356 . S
N310 H316 0.984 1_655 S
N310 H317 0.984 . S
N311 C304 1.356 . S
N311 H314 0.984 . S
N311 H315 0.985 . S
H312 N307 0.984 . S
H313 N307 0.985 . S
H314 N311 0.984 . S
H315 N311 0.985 . S
H316 N310 0.984 1_455 S
H317 N310 0.984 . S
H318 N306 0.984 . S
H319 N306 0.985 . S
C320 C321 1.363 . S
C320 C326 1.379 . S
C320 N328 1.356 . S
C321 C320 1.363 . S
C321 C327 1.363 . S
C322 C323 1.363 . S
C322 C327 1.379 . S
C322 N329 1.356 . S
C323 C322 1.363 . S
C323 C326 1.363 . S
N324 C326 1.356 . S
N324 H336 0.984 . S
N324 H337 0.985 . S
N325 C327 1.356 . S
N325 H330 0.984 . S
N325 H331 0.985 . S
C326 C320 1.379 . S
C326 C323 1.363 . S
C326 N324 1.356 . S
C327 C321 1.363 . S
C327 C322 1.379 . S
C327 N325 1.356 . S
N328 C320 1.356 . S
N328 H334 0.984 . S
N328 H335 0.984 . S
N329 C322 1.356 . S
N329 H332 0.984 . S
N329 H333 0.985 . S
H330 N325 0.984 . S
H331 N325 0.985 . S
H332 N329 0.984 . S
H333 N329 0.985 . S
H334 N328 0.984 . S
H335 N328 0.984 . S
H336 N324 0.984 . S
H337 N324 0.985 . S
C338 C339 1.363 . S
C338 C344 1.379 . S
C338 N346 1.356 . S
C339 C338 1.363 . S
C339 C345 1.363 . S
C340 C341 1.363 . S
C340 C345 1.379 . S
C340 N347 1.350 1_455 S
C341 C340 1.363 . S
C341 C344 1.363 . S
N342 C344 1.356 . S
N342 H354 0.984 . S
N342 H355 0.985 . S
N343 C345 1.356 1_655 S
N343 H348 0.984 1_655 S
N343 H349 0.985 . S
C344 C338 1.379 . S
C344 C341 1.363 . S
C344 N342 1.356 . S
C345 C339 1.363 . S
C345 C340 1.379 . S
C345 N343 1.356 1_455 S
N346 C338 1.356 . S
N346 H352 0.984 . S
N346 H353 0.984 . S
N347 C340 1.350 1_655 S
N347 H350 0.985 1_655 S
N347 H351 0.991 . S
H348 N343 0.984 1_455 S
H349 N343 0.985 . S
H350 N347 0.985 1_455 S
H351 N347 0.991 . S
H352 N346 0.984 . S
H353 N346 0.984 . S
H354 N342 0.984 . S
H355 N342 0.985 . S
C356 C357 1.363 . S
C356 C362 1.379 . S
C356 N364 1.356 . S
C357 C356 1.363 . S
C357 C363 1.363 . S
C358 C359 1.363 . S
C358 C363 1.379 . S
C358 N365 1.356 . S
C359 C358 1.363 . S
C359 C362 1.363 . S
N360 C362 1.356 . S
N360 H372 0.984 . S
N360 H373 0.985 . S
N361 C363 1.356 . S
N361 H366 0.984 . S
N361 H367 0.985 . S
C362 C356 1.379 . S
C362 C359 1.363 . S
C362 N360 1.356 . S
C363 C357 1.363 . S
C363 C358 1.379 . S
C363 N361 1.356 . S
N364 C356 1.356 . S
N364 H370 0.984 . S
N364 H371 0.984 . S
N365 C358 1.356 . S
N365 H368 0.984 . S
N365 H369 0.985 . S
H366 N361 0.984 . S
H367 N361 0.985 . S
H368 N365 0.984 . S
H369 N365 0.985 . S
H370 N364 0.984 . S
H371 N364 0.984 . S
H372 N360 0.984 . S
H373 N360 0.985 . S
C374 C375 1.363 . S
C374 C380 1.379 . S
C374 N382 1.356 . S
C375 C374 1.363 . S
C375 C381 1.363 . S
C376 C377 1.363 . S
C376 C381 1.379 . S
C376 N383 1.356 . S
C377 C376 1.363 . S
C377 C380 1.363 . S
N378 C380 1.356 . S
N378 H390 0.984 . S
N378 H391 0.985 . S
N379 C381 1.356 . S
N379 H384 0.984 . S
N379 H385 0.985 . S
C380 C374 1.379 . S
C380 C377 1.363 . S
C380 N378 1.356 . S
C381 C375 1.363 . S
C381 C376 1.379 . S
C381 N379 1.356 . S
N382 C374 1.356 . S
N382 H388 0.984 . S
N382 H389 0.984 . S
N383 C376 1.356 . S
N383 H386 0.984 . S
N383 H387 0.985 . S
H384 N379 0.984 . S
H385 N379 0.985 . S
H386 N383 0.984 . S
H387 N383 0.985 . S
H388 N382 0.984 . S
H389 N382 0.984 . S
H390 N378 0.984 . S
H391 N378 0.985 . S
C392 C393 1.363 . S
C392 C398 1.379 . S
C392 N400 1.356 . S
C393 C392 1.363 . S
C393 C399 1.363 . S
C394 C395 1.363 . S
C394 C399 1.379 . S
C394 N401 1.356 . S
C395 C394 1.363 . S
C395 C398 1.363 . S
N396 C398 1.356 . S
N396 H408 0.984 . S
N396 H409 0.985 . S
N397 C399 1.356 . S
N397 H402 0.984 . S
N397 H403 0.985 . S
C398 C392 1.379 . S
C398 C395 1.363 . S
C398 N396 1.356 . S
C399 C393 1.363 . S
C399 C394 1.379 . S
C399 N397 1.356 . S
N400 C392 1.356 . S
N400 H406 0.984 . S
N400 H407 0.984 . S
N401 C394 1.356 . S
N401 H404 0.984 . S
N401 H405 0.985 . S
H402 N397 0.984 . S
H403 N397 0.985 . S
H404 N401 0.984 . S
H405 N401 0.985 . S
H406 N400 0.984 . S
H407 N400 0.984 . S
H408 N396 0.984 . S
H409 N396 0.985 . S
C410 C411 1.363 1_554 S
C410 C416 1.379 . S
C410 N418 1.356 . S
C411 C410 1.363 1_556 S
C411 C417 1.363 . S
C412 C413 1.363 1_556 S
C412 C417 1.379 . S
C412 N419 1.356 . S
C413 C412 1.363 1_554 S
C413 C416 1.363 . S
N414 C416 1.356 . S
N414 H426 0.984 . S
N414 H427 0.985 . S
N415 C417 1.356 . S
N415 H420 0.984 . S
N415 H421 0.985 . S
C416 C410 1.379 . S
C416 C413 1.363 . S
C416 N414 1.356 . S
C417 C411 1.363 . S
C417 C412 1.379 . S
C417 N415 1.356 . S
N418 C410 1.356 . S
N418 H424 0.984 . S
N418 H425 0.984 . S
N419 C412 1.356 . S
N419 H422 0.984 . S
N419 H423 0.985 . S
H420 N415 0.984 . S
H421 N415 0.985 . S
H422 N419 0.984 . S
H423 N419 0.985 . S
H424 N418 0.984 . S
H425 N418 0.984 . S
H426 N414 0.984 . S
H427 N414 0.985 . S
C428 C429 1.363 . S
C428 C434 1.379 . S
C428 N436 1.356 . S
C429 C428 1.363 . S
C429 C435 1.363 . S
C430 C431 1.363 . S
C430 C435 1.379 . S
C430 N437 1.356 . S
C431 C430 1.363 . S
C431 C434 1.363 . S
N432 C434 1.356 . S
N432 H444 0.984 . S
N432 H445 0.985 . S
N433 C435 1.356 . S
N433 H438 0.984 . S
N433 H439 0.985 . S
C434 C428 1.379 . S
C434 C431 1.363 . S
C434 N432 1.356 . S
C435 C429 1.363 . S
C435 C430 1.379 . S
C435 N433 1.356 . S
N436 C428 1.356 . S
N436 H442 0.984 . S
N436 H443 0.984 . S
N437 C430 1.356 . S
N437 H440 0.984 . S
N437 H441 0.985 . S
H438 N433 0.984 . S
H439 N433 0.985 . S
H440 N437 0.984 . S
H441 N437 0.985 . S
H442 N436 0.984 . S
H443 N436 0.984 . S
H444 N432 0.984 . S
H445 N432 0.985 . S
C446 C447 1.363 . S
C446 C452 1.379 . S
C446 N454 1.356 . S
C447 C446 1.363 . S
C447 C453 1.363 . S
C448 C449 1.363 . S
C448 C453 1.379 . S
C448 N455 1.356 . S
C449 C448 1.363 . S
C449 C452 1.363 . S
N450 C452 1.356 . S
N450 H462 0.984 . S
N450 H463 0.985 . S
N451 C453 1.356 . S
N451 H456 0.984 . S
N451 H457 0.985 . S
C452 C446 1.379 . S
C452 C449 1.363 . S
C452 N450 1.356 . S
C453 C447 1.363 . S
C453 C448 1.379 . S
C453 N451 1.356 . S
N454 C446 1.356 . S
N454 H460 0.984 . S
N454 H461 0.984 . S
N455 C448 1.356 . S
N455 H458 0.984 . S
N455 H459 0.985 . S
H456 N451 0.984 . S
H457 N451 0.985 . S
H458 N455 0.984 . S
H459 N455 0.985 . S
H460 N454 0.984 . S
H461 N454 0.984 . S
H462 N450 0.984 . S
H463 N450 0.985 . S
C464 C465 1.363 . S
C464 C470 1.379 . S
C464 N472 1.356 . S
C465 C464 1.363 . S
C465 C471 1.363 . S
C466 C467 1.363 . S
C466 C471 1.379 . S
C466 N473 1.356 . S
C467 C466 1.363 . S
C467 C470 1.363 . S
N468 C470 1.356 . S
N468 H480 0.984 . S
N468 H481 0.985 . S
N469 C471 1.356 . S
N469 H474 0.984 . S
N469 H475 0.985 . S
C470 C464 1.379 . S
C470 C467 1.363 . S
C470 N468 1.356 . S
C471 C465 1.363 . S
C471 C466 1.379 . S
C471 N469 1.356 . S
N472 C464 1.356 . S
N472 H478 0.984 . S
N472 H479 0.984 . S
N473 C466 1.356 . S
N473 H476 0.984 . S
N473 H477 0.985 . S
H474 N469 0.984 . S
H475 N469 0.985 . S
H476 N473 0.984 . S
H477 N473 0.985 . S
H478 N472 0.984 . S
H479 N472 0.984 . S
H480 N468 0.984 . S
H481 N468 0.985 . S
C482 C483 1.363 . S
C482 C488 1.379 . S
C482 N490 1.356 . S
C483 C482 1.363 . S
C483 C489 1.363 . S
C484 C485 1.363 . S
C484 C489 1.379 . S
C484 N491 1.356 . S
C485 C484 1.363 . S
C485 C488 1.363 . S
N486 C488 1.356 . S
N486 H498 0.984 . S
N486 H499 0.985 . S
N487 C489 1.356 . S
N487 H492 0.984 . S
N487 H493 0.985 . S
C488 C482 1.379 . S
C488 C485 1.363 . S
C488 N486 1.356 . S
C489 C483 1.363 . S
C489 C484 1.379 . S
C489 N487 1.356 . S
N490 C482 1.356 . S
N490 H496 0.984 . S
N490 H497 0.984 . S
N491 C484 1.356 . S
N491 H494 0.984 . S
N491 H495 0.985 . S
H492 N487 0.984 . S
H493 N487 0.985 . S
H494 N491 0.984 . S
H495 N491 0.985 . S
H496 N490 0.984 . S
H497 N490 0.984 . S
H498 N486 0.984 . S
H499 N486 0.985 . S
C500 C501 1.363 . S
C500 C506 1.379 . S
C500 N508 1.356 . S
C501 C500 1.363 . S
C501 C507 1.363 . S
C502 C503 1.363 . S
C502 C507 1.379 . S
C502 N509 1.356 . S
C503 C502 1.363 . S
C503 C506 1.363 . S
N504 C506 1.356 . S
N504 H516 0.984 . S
N504 H517 0.985 . S
N505 C507 1.356 . S
N505 H510 0.984 . S
N505 H511 0.985 . S
C506 C500 1.379 . S
C506 C503 1.363 . S
C506 N504 1.356 . S
C507 C501 1.363 . S
C507 C502 1.379 . S
C507 N505 1.356 . S
N508 C500 1.356 . S
N508 H514 0.984 . S
N508 H515 0.984 . S
N509 C502 1.356 . S
N509 H512 0.984 . S
N509 H513 0.985 . S
H510 N505 0.984 . S
H511 N505 0.985 . S
H512 N509 0.984 . S
H513 N509 0.985 . S
H514 N508 0.984 . S
H515 N508 0.984 . S
H516 N504 0.984 . S
H517 N504 0.985 . S
C518 C519 1.363 . S
C518 C524 1.379 . S
C518 N526 1.356 . S
C519 C518 1.363 . S
C519 C525 1.363 . S
C520 C521 1.363 . S
C520 C525 1.379 . S
C520 N527 1.356 . S
C521 C520 1.363 . S
C521 C524 1.363 . S
N522 C524 1.356 . S
N522 H534 0.984 . S
N522 H535 0.985 . S
N523 C525 1.356 . S
N523 H528 0.984 . S
N523 H529 0.985 1_455 S
C524 C518 1.379 . S
C524 C521 1.363 . S
C524 N522 1.356 . S
C525 C519 1.363 . S
C525 C520 1.379 . S
C525 N523 1.356 . S
N526 C518 1.356 . S
N526 H532 0.984 . S
N526 H533 0.984 . S
N527 C520 1.356 . S
N527 H530 0.984 . S
N527 H531 0.985 1_455 S
H528 N523 0.984 . S
H529 N523 0.985 1_655 S
H530 N527 0.984 . S
H531 N527 0.985 1_655 S
H532 N526 0.984 . S
H533 N526 0.984 . S
H534 N522 0.984 . S
H535 N522 0.985 . S
C536 C537 1.363 . S
C536 C542 1.379 1_556 S
C536 N544 1.356 . S
C537 C536 1.363 . S
C537 C543 1.363 . S
C538 C539 1.363 . S
C538 C543 1.379 . S
C538 N545 1.356 1_565 S
C539 C538 1.363 . S
C539 C542 1.363 1_556 S
N540 C542 1.356 . S
N540 H552 0.984 . S
N540 H553 0.985 . S
N541 C543 1.356 . S
N541 H546 0.984 . S
N541 H547 0.985 . S
C542 C536 1.379 1_554 S
C542 C539 1.363 1_554 S
C542 N540 1.356 . S
C543 C537 1.363 . S
C543 C538 1.379 . S
C543 N541 1.356 . S
N544 C536 1.356 . S
N544 H550 0.984 1_556 S
N544 H551 0.984 . S
N545 C538 1.356 1_545 S
N545 H548 0.984 . S
N545 H549 0.985 . S
H546 N541 0.984 . S
H547 N541 0.985 . S
H548 N545 0.984 . S
H549 N545 0.985 . S
H550 N544 0.984 1_554 S
H551 N544 0.984 . S
H552 N540 0.984 . S
H553 N540 0.985 . S
C554 C555 1.363 . S
C554 C560 1.379 . S
C554 N562 1.356 . S
C555 C554 1.363 . S
C555 C561 1.363 1_655 S
C556 C557 1.363 1_455 S
C556 C561 1.379 . S
C556 N563 1.356 . S
C557 C556 1.363 1_655 S
C557 C560 1.363 . S
N558 C560 1.356 . S
N558 H570 0.984 . S
N558 H571 0.985 . S
N559 C561 1.356 . S
N559 H564 0.984 . S
N559 H565 0.985 . S
C560 C554 1.379 . S
C560 C557 1.363 . S
C560 N558 1.356 . S
C561 C555 1.363 1_455 S
C561 C556 1.379 . S
C561 N559 1.356 . S
N562 C554 1.356 . S
N562 H568 0.984 . S
N562 H569 0.984 . S
N563 C556 1.356 . S
N563 H566 0.984 . S
N563 H567 0.985 . S
H564 N559 0.984 . S
H565 N559 0.985 . S
H566 N563 0.984 . S
H567 N563 0.985 . S
H568 N562 0.984 . S
H569 N562 0.984 . S
H570 N558 0.984 . S
H571 N558 0.985 . S
C572 C573 1.363 . S
C572 C578 1.379 . S
C572 N580 1.356 . S
C573 C572 1.363 . S
C573 C579 1.363 . S
C574 C575 1.363 . S
C574 C579 1.379 . S
C574 N581 1.356 . S
C575 C574 1.363 . S
C575 C578 1.363 . S
N576 C578 1.356 . S
N576 H588 0.984 . S
N576 H589 0.985 . S
N577 C579 1.356 . S
N577 H582 0.984 . S
N577 H583 0.985 . S
C578 C572 1.379 . S
C578 C575 1.363 . S
C578 N576 1.356 . S
C579 C573 1.363 . S
C579 C574 1.379 . S
C579 N577 1.356 . S
N580 C572 1.356 . S
N580 H586 0.984 . S
N580 H587 0.984 . S
N581 C574 1.356 . S
N581 H584 0.984 . S
N581 H585 0.985 . S
H582 N577 0.984 . S
H583 N577 0.985 . S
H584 N581 0.984 . S
H585 N581 0.985 . S
H586 N580 0.984 . S
H587 N580 0.984 . S
H588 N576 0.984 . S
H589 N576 0.985 . S
C590 C591 1.363 . S
C590 C596 1.379 . S
C590 N598 1.356 . S
C591 C590 1.363 . S
C591 C597 1.363 . S
C592 C593 1.363 . S
C592 C597 1.379 . S
C592 N599 1.356 . S
C593 C592 1.363 . S
C593 C596 1.363 . S
N594 C596 1.356 . S
N594 H606 0.984 . S
N594 H607 0.985 . S
N595 C597 1.356 . S
N595 H600 0.984 . S
N595 H601 0.985 . S
C596 C590 1.379 . S
C596 C593 1.363 . S
C596 N594 1.356 . S
C597 C591 1.363 . S
C597 C592 1.379 . S
C597 N595 1.356 . S
N598 C590 1.356 . S
N598 H604 0.984 . S
N598 H605 0.984 . S
N599 C592 1.356 . S
N599 H602 0.984 . S
N599 H603 0.985 . S
H600 N595 0.984 . S
H601 N595 0.985 . S
H602 N599 0.984 . S
H603 N599 0.985 . S
H604 N598 0.984 . S
H605 N598 0.984 . S
H606 N594 0.984 . S
H607 N594 0.985 . S
C608 C609 1.363 . S
C608 C614 1.379 . S
C608 N616 1.356 . S
C609 C608 1.363 . S
C609 C615 1.363 . S
C610 C611 1.363 . S
C610 C615 1.379 . S
C610 N617 1.356 . S
C611 C610 1.363 . S
C611 C614 1.363 . S
N612 C614 1.356 . S
N612 H624 0.984 1_556 S
N612 H625 0.985 . S
N613 C615 1.356 . S
N613 H618 0.984 . S
N613 H619 0.985 . S
C614 C608 1.379 . S
C614 C611 1.363 . S
C614 N612 1.356 . S
C615 C609 1.363 . S
C615 C610 1.379 . S
C615 N613 1.356 . S
N616 C608 1.356 . S
N616 H622 0.984 1_556 S
N616 H623 0.984 . S
N617 C610 1.356 . S
N617 H620 0.984 . S
N617 H621 0.985 . S
H618 N613 0.984 . S
H619 N613 0.985 . S
H620 N617 0.984 . S
H621 N617 0.985 . S
H622 N616 0.984 1_554 S
H623 N616 0.984 . S
H624 N612 0.984 1_554 S
H625 N612 0.985 . S
C626 C627 1.363 . S
C626 C632 1.379 . S
C626 N634 1.356 . S
C627 C626 1.363 . S
C627 C633 1.363 . S
C628 C629 1.363 . S
C628 C633 1.379 . S
C628 N635 1.356 . S
C629 C628 1.363 . S
C629 C632 1.363 . S
N630 C632 1.356 . S
N630 H642 0.984 . S
N630 H643 0.985 . S
N631 C633 1.356 . S
N631 H636 0.984 . S
N631 H637 0.985 . S
C632 C626 1.379 . S
C632 C629 1.363 . S
C632 N630 1.356 . S
C633 C627 1.363 . S
C633 C628 1.379 . S
C633 N631 1.356 . S
N634 C626 1.356 . S
N634 H640 0.984 . S
N634 H641 0.984 . S
N635 C628 1.356 . S
N635 H638 0.984 . S
N635 H639 0.985 . S
H636 N631 0.984 . S
H637 N631 0.985 . S
H638 N635 0.984 . S
H639 N635 0.985 . S
H640 N634 0.984 . S
H641 N634 0.984 . S
H642 N630 0.984 . S
H643 N630 0.985 . S
C644 C645 1.363 . S
C644 C650 1.379 . S
C644 N652 1.356 . S
C645 C644 1.363 . S
C645 C651 1.363 . S
C646 C647 1.363 . S
C646 C651 1.379 . S
C646 N653 1.356 . S
C647 C646 1.363 . S
C647 C650 1.363 . S
N648 C650 1.356 . S
N648 H660 0.984 . S
N648 H661 0.985 . S
N649 C651 1.356 . S
N649 H654 0.984 . S
N649 H655 0.985 . S
C650 C644 1.379 . S
C650 C647 1.363 . S
C650 N648 1.356 . S
C651 C645 1.363 . S
C651 C646 1.379 . S
C651 N649 1.356 . S
N652 C644 1.356 . S
N652 H658 0.984 . S
N652 H659 0.984 . S
N653 C646 1.356 . S
N653 H656 0.984 . S
N653 H657 0.997 . S
H654 N649 0.984 . S
H655 N649 0.985 . S
H656 N653 0.984 . S
H657 N653 0.997 . S
H658 N652 0.984 . S
H659 N652 0.984 . S
H660 N648 0.984 . S
H661 N648 0.985 . S
C662 C663 1.363 . S
C662 C668 1.379 . S
C662 N670 1.356 . S
C663 C662 1.363 . S
C663 C669 1.363 . S
C664 C665 1.363 . S
C664 C669 1.379 . S
C664 N671 1.356 . S
C665 C664 1.363 . S
C665 C668 1.363 . S
N666 C668 1.356 . S
N666 H678 0.984 . S
N666 H679 0.985 . S
N667 C669 1.356 . S
N667 H672 0.984 . S
N667 H673 0.985 . S
C668 C662 1.379 . S
C668 C665 1.363 . S
C668 N666 1.356 . S
C669 C663 1.363 . S
C669 C664 1.379 . S
C669 N667 1.356 . S
N670 C662 1.356 . S
N670 H676 0.984 . S
N670 H677 0.984 . S
N671 C664 1.356 . S
N671 H674 0.984 . S
N671 H675 0.985 . S
H672 N667 0.984 . S
H673 N667 0.985 . S
H674 N671 0.984 . S
H675 N671 0.985 . S
H676 N670 0.984 . S
H677 N670 0.984 . S
H678 N666 0.984 . S
H679 N666 0.985 . S
C249 C5 0.897 . S
C251 C92 1.068 . S
C267 C18 1.097 . S
C269 C153 1.177 . S
C287 C191 2.405 . S
C285 C30 2.434 . S
C303 C41 2.233 . S
C305 C231 2.183 . S
C323 C151 1.382 . S
C321 C7 1.252 . S
C341 C119 2.074 . S
C339 C16 2.069 . S
C359 C228 1.887 . S
C357 C29 1.832 . S
C377 C188 1.619 . S
C375 C38 1.451 . S
C393 C8 1.203 . S
C395 C233 1.281 . S
C413 C148 2.547 . S
C411 C27 2.249 . S
C429 C40 2.355 . S
C431 C90 2.309 . S
C447 C19 1.495 . S
C449 C193 1.504 . S
C467 C113 1.113 . S
C465 C51 0.928 . S
C483 C62 1.463 . S
C485 C132 1.422 . S
C501 C74 2.528 . S
C503 C170 2.512 . S
C519 C84 2.172 . S
C521 C210 2.285 . S
C537 C49 1.185 . S
C539 C130 1.707 1_556 S
C557 C108 2.163 . S
C555 C63 2.095 . S
C575 C239 1.703 . S
C573 C71 1.508 . S
C593 C199 1.741 . S
C591 C85 1.756 . S
C609 C52 1.365 . S
C611 C212 1.444 . S
C629 C159 2.740 . S
C627 C73 2.673 . S
C647 C111 2.000 . S
C645 C82 1.765 . S
C663 C60 1.445 . S
C665 C172 1.494 . S
