# Generated by pormake.
# Topology iac, (4,6)-cn, num edge types: 1
# Building blocks:
#     Node 0, Type 0, BuildingBlock: QUQFOY_clean_sbu_1, # of connection points: 4
#     Node 1, Type 0, BuildingBlock: QUQFOY_clean_sbu_1, # of connection points: 4
#     Node 2, Type 0, BuildingBlock: QUQFOY_clean_sbu_1, # of connection points: 4
#     Node 3, Type 0, BuildingBlock: QUQFOY_clean_sbu_1, # of connection points: 4
#     Node 4, Type 0, BuildingBlock: QUQFOY_clean_sbu_1, # of connection points: 4
#     Node 5, Type 0, BuildingBlock: QUQFOY_clean_sbu_1, # of connection points: 4
#     Node 6, Type 0, BuildingBlock: QUQFOY_clean_sbu_1, # of connection points: 4
#     Node 7, Type 0, BuildingBlock: QUQFOY_clean_sbu_1, # of connection points: 4
#     Node 8, Type 0, BuildingBlock: QUQFOY_clean_sbu_1, # of connection points: 4
#     Node 9, Type 0, BuildingBlock: QUQFOY_clean_sbu_1, # of connection points: 4
#     Node 10, Type 0, BuildingBlock: QUQFOY_clean_sbu_1, # of connection points: 4
#     Node 11, Type 0, BuildingBlock: QUQFOY_clean_sbu_1, # of connection points: 4
#     Node 12, Type 0, BuildingBlock: QUQFOY_clean_sbu_1, # of connection points: 4
#     Node 13, Type 0, BuildingBlock: QUQFOY_clean_sbu_1, # of connection points: 4
#     Node 14, Type 0, BuildingBlock: QUQFOY_clean_sbu_1, # of connection points: 4
#     Node 15, Type 0, BuildingBlock: QUQFOY_clean_sbu_1, # of connection points: 4
#     Node 16, Type 0, BuildingBlock: QUQFOY_clean_sbu_1, # of connection points: 4
#     Node 17, Type 0, BuildingBlock: QUQFOY_clean_sbu_1, # of connection points: 4
#     Node 18, Type 0, BuildingBlock: QUQFOY_clean_sbu_1, # of connection points: 4
#     Node 19, Type 0, BuildingBlock: QUQFOY_clean_sbu_1, # of connection points: 4
#     Node 20, Type 0, BuildingBlock: QUQFOY_clean_sbu_1, # of connection points: 4
#     Node 21, Type 0, BuildingBlock: QUQFOY_clean_sbu_1, # of connection points: 4
#     Node 22, Type 0, BuildingBlock: QUQFOY_clean_sbu_1, # of connection points: 4
#     Node 23, Type 0, BuildingBlock: QUQFOY_clean_sbu_1, # of connection points: 4
#     Node 24, Type 1, BuildingBlock: VOLQOD_clean_sbu_1, # of connection points: 6
#     Node 25, Type 1, BuildingBlock: VOLQOD_clean_sbu_1, # of connection points: 6
#     Node 26, Type 1, BuildingBlock: VOLQOD_clean_sbu_1, # of connection points: 6
#     Node 27, Type 1, BuildingBlock: VOLQOD_clean_sbu_1, # of connection points: 6
#     Node 28, Type 1, BuildingBlock: VOLQOD_clean_sbu_1, # of connection points: 6
#     Node 29, Type 1, BuildingBlock: VOLQOD_clean_sbu_1, # of connection points: 6
#     Node 30, Type 1, BuildingBlock: VOLQOD_clean_sbu_1, # of connection points: 6
#     Node 31, Type 1, BuildingBlock: VOLQOD_clean_sbu_1, # of connection points: 6
#     Node 32, Type 1, BuildingBlock: VOLQOD_clean_sbu_1, # of connection points: 6
#     Node 33, Type 1, BuildingBlock: VOLQOD_clean_sbu_1, # of connection points: 6
#     Node 34, Type 1, BuildingBlock: VOLQOD_clean_sbu_1, # of connection points: 6
#     Node 35, Type 1, BuildingBlock: VOLQOD_clean_sbu_1, # of connection points: 6
#     Node 36, Type 1, BuildingBlock: VOLQOD_clean_sbu_1, # of connection points: 6
#     Node 37, Type 1, BuildingBlock: VOLQOD_clean_sbu_1, # of connection points: 6
#     Node 38, Type 1, BuildingBlock: VOLQOD_clean_sbu_1, # of connection points: 6
#     Node 39, Type 1, BuildingBlock: VOLQOD_clean_sbu_1, # of connection points: 6
#     Edge 40, Type (0, 1), BuildingBlock: AJUNOK_clean_linker_0, # of connection points: 2
#     Edge 41, Type (0, 1), BuildingBlock: AJUNOK_clean_linker_0, # of connection points: 2
#     Edge 42, Type (0, 1), BuildingBlock: AJUNOK_clean_linker_0, # of connection points: 2
#     Edge 43, Type (0, 1), BuildingBlock: AJUNOK_clean_linker_0, # of connection points: 2
#     Edge 44, Type (0, 1), BuildingBlock: AJUNOK_clean_linker_0, # of connection points: 2
#     Edge 45, Type (0, 1), BuildingBlock: AJUNOK_clean_linker_0, # of connection points: 2
#     Edge 46, Type (0, 1), BuildingBlock: AJUNOK_clean_linker_0, # of connection points: 2
#     Edge 47, Type (0, 1), BuildingBlock: AJUNOK_clean_linker_0, # of connection points: 2
#     Edge 48, Type (0, 1), BuildingBlock: AJUNOK_clean_linker_0, # of connection points: 2
#     Edge 49, Type (0, 1), BuildingBlock: AJUNOK_clean_linker_0, # of connection points: 2
#     Edge 50, Type (0, 1), BuildingBlock: AJUNOK_clean_linker_0, # of connection points: 2
#     Edge 51, Type (0, 1), BuildingBlock: AJUNOK_clean_linker_0, # of connection points: 2
#     Edge 52, Type (0, 1), BuildingBlock: AJUNOK_clean_linker_0, # of connection points: 2
#     Edge 53, Type (0, 1), BuildingBlock: AJUNOK_clean_linker_0, # of connection points: 2
#     Edge 54, Type (0, 1), BuildingBlock: AJUNOK_clean_linker_0, # of connection points: 2
#     Edge 55, Type (0, 1), BuildingBlock: AJUNOK_clean_linker_0, # of connection points: 2
#     Edge 56, Type (0, 1), BuildingBlock: AJUNOK_clean_linker_0, # of connection points: 2
#     Edge 57, Type (0, 1), BuildingBlock: AJUNOK_clean_linker_0, # of connection points: 2
#     Edge 58, Type (0, 1), BuildingBlock: AJUNOK_clean_linker_0, # of connection points: 2
#     Edge 59, Type (0, 1), BuildingBlock: AJUNOK_clean_linker_0, # of connection points: 2
#     Edge 60, Type (0, 1), BuildingBlock: AJUNOK_clean_linker_0, # of connection points: 2
#     Edge 61, Type (0, 1), BuildingBlock: AJUNOK_clean_linker_0, # of connection points: 2
#     Edge 62, Type (0, 1), BuildingBlock: AJUNOK_clean_linker_0, # of connection points: 2
#     Edge 63, Type (0, 1), BuildingBlock: AJUNOK_clean_linker_0, # of connection points: 2
#     Edge 64, Type (0, 1), BuildingBlock: AJUNOK_clean_linker_0, # of connection points: 2
#     Edge 65, Type (0, 1), BuildingBlock: AJUNOK_clean_linker_0, # of connection points: 2
#     Edge 66, Type (0, 1), BuildingBlock: AJUNOK_clean_linker_0, # of connection points: 2
#     Edge 67, Type (0, 1), BuildingBlock: AJUNOK_clean_linker_0, # of connection points: 2
#     Edge 68, Type (0, 1), BuildingBlock: AJUNOK_clean_linker_0, # of connection points: 2
#     Edge 69, Type (0, 1), BuildingBlock: AJUNOK_clean_linker_0, # of connection points: 2
#     Edge 70, Type (0, 1), BuildingBlock: AJUNOK_clean_linker_0, # of connection points: 2
#     Edge 71, Type (0, 1), BuildingBlock: AJUNOK_clean_linker_0, # of connection points: 2
#     Edge 72, Type (0, 1), BuildingBlock: AJUNOK_clean_linker_0, # of connection points: 2
#     Edge 73, Type (0, 1), BuildingBlock: AJUNOK_clean_linker_0, # of connection points: 2
#     Edge 74, Type (0, 1), BuildingBlock: AJUNOK_clean_linker_0, # of connection points: 2
#     Edge 75, Type (0, 1), BuildingBlock: AJUNOK_clean_linker_0, # of connection points: 2
#     Edge 76, Type (0, 1), BuildingBlock: AJUNOK_clean_linker_0, # of connection points: 2
#     Edge 77, Type (0, 1), BuildingBlock: AJUNOK_clean_linker_0, # of connection points: 2
#     Edge 78, Type (0, 1), BuildingBlock: AJUNOK_clean_linker_0, # of connection points: 2
#     Edge 79, Type (0, 1), BuildingBlock: AJUNOK_clean_linker_0, # of connection points: 2
#     Edge 80, Type (0, 1), BuildingBlock: AJUNOK_clean_linker_0, # of connection points: 2
#     Edge 81, Type (0, 1), BuildingBlock: AJUNOK_clean_linker_0, # of connection points: 2
#     Edge 82, Type (0, 1), BuildingBlock: AJUNOK_clean_linker_0, # of connection points: 2
#     Edge 83, Type (0, 1), BuildingBlock: AJUNOK_clean_linker_0, # of connection points: 2
#     Edge 84, Type (0, 1), BuildingBlock: AJUNOK_clean_linker_0, # of connection points: 2
#     Edge 85, Type (0, 1), BuildingBlock: AJUNOK_clean_linker_0, # of connection points: 2
#     Edge 86, Type (0, 1), BuildingBlock: AJUNOK_clean_linker_0, # of connection points: 2
#     Edge 87, Type (0, 1), BuildingBlock: AJUNOK_clean_linker_0, # of connection points: 2
#     Edge 88, Type (0, 1), BuildingBlock: AJUNOK_clean_linker_0, # of connection points: 2
#     Edge 89, Type (0, 1), BuildingBlock: AJUNOK_clean_linker_0, # of connection points: 2
#     Edge 90, Type (0, 1), BuildingBlock: AJUNOK_clean_linker_0, # of connection points: 2
#     Edge 91, Type (0, 1), BuildingBlock: AJUNOK_clean_linker_0, # of connection points: 2
#     Edge 92, Type (0, 1), BuildingBlock: AJUNOK_clean_linker_0, # of connection points: 2
#     Edge 93, Type (0, 1), BuildingBlock: AJUNOK_clean_linker_0, # of connection points: 2
#     Edge 94, Type (0, 1), BuildingBlock: AJUNOK_clean_linker_0, # of connection points: 2
#     Edge 95, Type (0, 1), BuildingBlock: AJUNOK_clean_linker_0, # of connection points: 2
#     Edge 96, Type (0, 1), BuildingBlock: AJUNOK_clean_linker_0, # of connection points: 2
#     Edge 97, Type (0, 1), BuildingBlock: AJUNOK_clean_linker_0, # of connection points: 2
#     Edge 98, Type (0, 1), BuildingBlock: AJUNOK_clean_linker_0, # of connection points: 2
#     Edge 99, Type (0, 1), BuildingBlock: AJUNOK_clean_linker_0, # of connection points: 2
#     Edge 100, Type (0, 1), BuildingBlock: AJUNOK_clean_linker_0, # of connection points: 2
#     Edge 101, Type (0, 1), BuildingBlock: AJUNOK_clean_linker_0, # of connection points: 2
#     Edge 102, Type (0, 1), BuildingBlock: AJUNOK_clean_linker_0, # of connection points: 2
#     Edge 103, Type (0, 1), BuildingBlock: AJUNOK_clean_linker_0, # of connection points: 2
#     Edge 104, Type (0, 1), BuildingBlock: AJUNOK_clean_linker_0, # of connection points: 2
#     Edge 105, Type (0, 1), BuildingBlock: AJUNOK_clean_linker_0, # of connection points: 2
#     Edge 106, Type (0, 1), BuildingBlock: AJUNOK_clean_linker_0, # of connection points: 2
#     Edge 107, Type (0, 1), BuildingBlock: AJUNOK_clean_linker_0, # of connection points: 2
#     Edge 108, Type (0, 1), BuildingBlock: AJUNOK_clean_linker_0, # of connection points: 2
#     Edge 109, Type (0, 1), BuildingBlock: AJUNOK_clean_linker_0, # of connection points: 2
#     Edge 110, Type (0, 1), BuildingBlock: AJUNOK_clean_linker_0, # of connection points: 2
#     Edge 111, Type (0, 1), BuildingBlock: AJUNOK_clean_linker_0, # of connection points: 2
#     Edge 112, Type (0, 1), BuildingBlock: AJUNOK_clean_linker_0, # of connection points: 2
#     Edge 113, Type (0, 1), BuildingBlock: AJUNOK_clean_linker_0, # of connection points: 2
#     Edge 114, Type (0, 1), BuildingBlock: AJUNOK_clean_linker_0, # of connection points: 2
#     Edge 115, Type (0, 1), BuildingBlock: AJUNOK_clean_linker_0, # of connection points: 2
#     Edge 116, Type (0, 1), BuildingBlock: AJUNOK_clean_linker_0, # of connection points: 2
#     Edge 117, Type (0, 1), BuildingBlock: AJUNOK_clean_linker_0, # of connection points: 2
#     Edge 118, Type (0, 1), BuildingBlock: AJUNOK_clean_linker_0, # of connection points: 2
#     Edge 119, Type (0, 1), BuildingBlock: AJUNOK_clean_linker_0, # of connection points: 2
#     Edge 120, Type (0, 1), BuildingBlock: AJUNOK_clean_linker_0, # of connection points: 2
#     Edge 121, Type (0, 1), BuildingBlock: AJUNOK_clean_linker_0, # of connection points: 2
#     Edge 122, Type (0, 1), BuildingBlock: AJUNOK_clean_linker_0, # of connection points: 2
#     Edge 123, Type (0, 1), BuildingBlock: AJUNOK_clean_linker_0, # of connection points: 2
#     Edge 124, Type (0, 1), BuildingBlock: AJUNOK_clean_linker_0, # of connection points: 2
#     Edge 125, Type (0, 1), BuildingBlock: AJUNOK_clean_linker_0, # of connection points: 2
#     Edge 126, Type (0, 1), BuildingBlock: AJUNOK_clean_linker_0, # of connection points: 2
#     Edge 127, Type (0, 1), BuildingBlock: AJUNOK_clean_linker_0, # of connection points: 2
#     Edge 128, Type (0, 1), BuildingBlock: AJUNOK_clean_linker_0, # of connection points: 2
#     Edge 129, Type (0, 1), BuildingBlock: AJUNOK_clean_linker_0, # of connection points: 2
#     Edge 130, Type (0, 1), BuildingBlock: AJUNOK_clean_linker_0, # of connection points: 2
#     Edge 131, Type (0, 1), BuildingBlock: AJUNOK_clean_linker_0, # of connection points: 2
#     Edge 132, Type (0, 1), BuildingBlock: AJUNOK_clean_linker_0, # of connection points: 2
#     Edge 133, Type (0, 1), BuildingBlock: AJUNOK_clean_linker_0, # of connection points: 2
#     Edge 134, Type (0, 1), BuildingBlock: AJUNOK_clean_linker_0, # of connection points: 2
#     Edge 135, Type (0, 1), BuildingBlock: AJUNOK_clean_linker_0, # of connection points: 2
# Relax obj value: 0.339
# Max RMSD: 0.300
# Mean RMSD: 0.199
data_MOF--net-iac--node1-QUQFOY_clean_sbu_1--node2-VOLQOD_clean_sbu_1--edge1-AJUNOK_clean_linker_0
_symmetry_space_group_name_H-M    P1
_symmetry_Int_Tables_number       1
_symmetry_cell_setting            triclinic
loop_
_symmetry_equiv_pos_as_xyz
'x, y, z'
_cell_length_a     42.735634
_cell_length_b     42.639745
_cell_length_c     42.804534
_cell_angle_alpha  90.971545
_cell_angle_beta   90.628032
_cell_angle_gamma 93.615856
loop_
_atom_site_label
_atom_site_type_symbol
_atom_site_fract_x
_atom_site_fract_y
_atom_site_fract_z
_atom_type_partial_charge
O0 O 0.9568 0.20913 0.13522 0.0
Cd1 Cd 0.95817 0.24483 0.16822 0.0
Cd2 Cd 0.98984 0.27773 0.11889 0.0
O3 O 0.97465 0.23693 0.09552 0.0
O4 O 0.92922 0.22944 0.20143 0.0
O5 O 0.91992 0.26943 0.17093 0.0
C6 C 0.91098 0.25078 0.19306 0.0
C7 C 0.98877 0.32422 0.09137 0.0
C8 C 0.96282 0.21135 0.10631 0.0
C9 C 0.02418 0.27084 0.18049 0.0
O10 O 0.0253 0.27827 0.1519 0.0
O11 O -0.00081 0.25819 0.19176 0.0
O12 O 0.00875 0.30376 0.08496 0.0
O13 O 0.96864 0.31789 0.11304 0.0
O14 O 0.08072 0.74207 0.37327 0.0
Cd15 Cd 0.04815 0.74594 0.40854 0.0
Cd16 Cd 0.01798 0.77183 0.35869 0.0
O17 O 0.04909 0.74862 0.33321 0.0
O18 O 0.06111 0.71924 0.44328 0.0
O19 O 0.01877 0.70869 0.41348 0.0
C20 C 0.03673 0.70098 0.43626 0.0
C21 C 0.96749 0.77478 0.34033 0.0
C22 C 0.07503 0.74063 0.34402 0.0
C23 C 0.02928 0.81193 0.41268 0.0
O24 O 0.03148 0.81167 0.38323 0.0
O25 O 0.03294 0.78698 0.42758 0.0
O26 O -0.00922 0.78915 0.32669 0.0
O27 O 0.97317 0.75696 0.36359 0.0
O28 O 0.49258 0.66631 0.63056 0.0
Cd29 Cd 0.49248 0.70716 0.65651 0.0
Cd30 Cd 0.52129 0.73196 0.60697 0.0
O31 O 0.50646 0.68955 0.58696 0.0
O32 O 0.46303 0.6977 0.69069 0.0
O33 O 0.45423 0.73105 0.65271 0.0
C34 C 0.445 0.71699 0.67781 0.0
C35 C 0.5095 0.77807 0.58416 0.0
C36 C 0.49652 0.66514 0.60125 0.0
C37 C 0.55677 0.73765 0.66625 0.0
O38 O 0.55924 0.73763 0.63675 0.0
O39 O 0.53139 0.7275 0.67862 0.0
O40 O 0.53056 0.7611 0.57246 0.0
O41 O 0.4938 0.76777 0.60792 0.0
O42 O 0.58332 0.23725 0.87481 0.0
Cd43 Cd 0.55212 0.24482 0.91005 0.0
Cd44 Cd 0.51667 0.26481 0.85953 0.0
O45 O 0.55409 0.25004 0.83467 0.0
O46 O 0.56197 0.21713 0.94505 0.0
O47 O 0.51787 0.21226 0.91696 0.0
C48 C 0.53492 0.20275 0.93964 0.0
C49 C 0.46609 0.25818 0.83943 0.0
C50 C 0.57918 0.23981 0.84554 0.0
C51 C 0.53098 0.30934 0.91481 0.0
O52 O 0.52022 0.30434 0.88733 0.0
O53 O 0.54556 0.28854 0.92868 0.0
O54 O 0.48666 0.27741 0.82709 0.0
O55 O 0.47503 0.24068 0.86178 0.0
O56 O 0.10439 0.98212 0.16595 0.0
Cd57 Cd 0.14256 0.98988 0.19556 0.0
Cd58 Cd 0.09181 -0.00074 0.23944 0.0
O59 O 0.06669 0.98334 0.20077 0.0
O60 O 0.17832 0.96658 0.17937 0.0
O61 O 0.15357 0.95559 0.22356 0.0
C62 C 0.17529 0.9495 0.20392 0.0
C63 C 0.06644 -0.00474 0.28713 0.0
C64 C 0.07549 0.97927 0.17289 0.0
C65 C 0.14273 0.05192 0.22774 0.0
O66 O 0.11723 0.0414 0.2396 0.0
O67 O 0.15761 0.03496 0.20911 0.0
O68 O 0.05659 0.01255 0.26531 0.0
O69 O 0.08974 0.97833 0.28126 0.0
O70 O 0.22994 0.88486 0.57727 0.0
Cd71 Cd 0.23338 0.92036 0.54536 0.0
Cd72 Cd 0.25609 0.86954 0.50674 0.0
O73 O 0.2424 0.84593 0.54595 0.0
O74 O 0.20328 0.95199 0.55692 0.0
O75 O 0.198 0.92053 0.51495 0.0
C76 C 0.18716 0.94216 0.53261 0.0
C77 C 0.25805 0.83966 0.4612 0.0
C78 C 0.23305 0.85578 0.57213 0.0
C79 C 0.29558 0.9319 0.5177 0.0
O80 O 0.29093 0.90436 0.50637 0.0
O81 O 0.27549 0.94363 0.53524 0.0
O82 O 0.27807 0.83698 0.48345 0.0
O83 O 0.23574 0.85829 0.46558 0.0
O84 O 0.3682 0.0119 0.68376 0.0
Cd85 Cd 0.33466 0.0096 0.718 0.0
Cd86 Cd 0.38216 0.98825 0.75401 0.0
O87 O 0.40665 -0.00143 0.71465 0.0
O88 O 0.30378 0.04114 0.7093 0.0
O89 O 0.33815 0.04506 0.74882 0.0
C90 C 0.31592 0.05686 0.73298 0.0
C91 C 0.40951 -0.00389 0.80049 0.0
C92 C 0.39702 0.00764 0.68843 0.0
C93 C 0.32251 0.94684 0.74588 0.0
O94 O 0.35042 0.95072 0.75611 0.0
O95 O 0.31081 0.96787 0.72958 0.0
O96 O 0.41517 0.97338 0.78168 0.0
O97 O 0.38876 0.01522 0.79227 0.0
O98 O 0.24908 0.14244 0.1029 0.0
Cd99 Cd 0.24145 0.10542 0.07182 0.0
Cd100 Cd 0.22716 0.156 0.03177 0.0
O101 O 0.24267 0.18134 0.07052 0.0
O102 O 0.26752 0.07076 0.08484 0.0
O103 O 0.27448 0.0976 0.04113 0.0
C104 C 0.28282 0.07561 0.05934 0.0
C105 C 0.2327 0.18094 0.98418 0.0
C106 C 0.24944 0.17167 0.09744 0.0
C107 C 0.17804 0.10202 0.04354 0.0
O108 O 0.18629 0.1285 0.03216 0.0
O109 O 0.19681 0.08785 0.06068 0.0
O110 O 0.21399 0.19053 0.00506 0.0
O111 O 0.2494 0.15765 -0.00932 0.0
O112 O 0.72446 0.36229 0.05655 0.0
Cd113 Cd 0.73144 0.39721 0.02354 0.0
Cd114 Cd 0.78173 0.34677 0.01702 0.0
O115 O 0.7614 0.32837 0.05529 0.0
O116 O 0.70921 0.43246 0.04248 0.0
O117 O 0.69288 0.40646 -0.00055 0.0
C118 C 0.68889 0.42824 0.0201 0.0
C119 C 0.78352 0.31761 0.97214 0.0
C120 C 0.73654 0.33795 0.06687 0.0
C121 C 0.80095 0.41203 0.00606 0.0
O122 O 0.8096 0.38664 0.01722 0.0
O123 O 0.77226 0.41812 0.00495 0.0
O124 O 0.80444 0.31501 -0.00622 0.0
O125 O 0.76094 0.33592 0.9769 0.0
O126 O 0.8545 0.52303 0.18804 0.0
Cd127 Cd 0.82772 0.52257 0.22768 0.0
Cd128 Cd 0.87725 0.48499 0.24838 0.0
O129 O 0.8942 0.4973 0.20531 0.0
O130 O 0.7975 0.55525 0.22104 0.0
O131 O 0.83513 0.55912 0.25724 0.0
C132 C 0.81187 0.5712 0.2433 0.0
C133 C 0.91225 0.48639 0.29006 0.0
C134 C 0.88145 0.51277 0.18408 0.0
C135 C 0.80963 0.45863 0.25166 0.0
O136 O 0.83869 0.45475 0.25477 0.0
O137 O 0.80026 0.48398 0.24094 0.0
O138 O 0.91138 0.46368 0.26977 0.0
O139 O 0.89386 0.50894 0.28585 0.0
O140 O 0.76337 0.6351 0.5876 0.0
Cd141 Cd 0.75665 0.60085 0.55332 0.0
Cd142 Cd 0.73236 0.65411 0.52138 0.0
O143 O 0.74812 0.67603 0.56199 0.0
O144 O 0.78258 0.56592 0.56593 0.0
O145 O 0.79068 0.59393 0.52322 0.0
C146 C 0.79843 0.5713 0.54091 0.0
C147 C 0.73512 0.68381 0.47665 0.0
C148 C 0.75938 0.66434 0.58637 0.0
C149 C 0.69093 0.59395 0.52836 0.0
O150 O 0.69441 0.62239 0.52021 0.0
O151 O 0.71299 0.58082 0.54202 0.0
O152 O 0.71594 0.68984 0.49856 0.0
O153 O 0.7536 0.66132 0.48045 0.0
O154 O 0.60853 0.46425 0.68436 0.0
Cd155 Cd 0.64115 0.47824 0.71867 0.0
Cd156 Cd 0.58361 0.50104 0.74242 0.0
O157 O 0.56414 0.47287 0.70783 0.0
O158 O 0.68067 0.4606 0.7041 0.0
O159 O 0.65584 0.4456 0.7471 0.0
C160 C 0.67913 0.44314 0.72839 0.0
C161 C 0.56005 0.50303 0.79029 0.0
C162 C 0.57876 0.46157 0.68513 0.0
C163 C 0.63612 0.54724 0.73522 0.0
O164 O 0.60658 0.54307 0.73337 0.0
O165 O 0.6532 0.52412 0.73204 0.0
O166 O 0.54725 0.51455 0.76604 0.0
O167 O 0.58551 0.48854 0.78689 0.0
O168 O 0.03619 0.75509 0.86493 0.0
Cd169 Cd -0.00031 0.76603 0.89335 0.0
Cd170 Cd 0.97876 0.78559 0.83481 0.0
O171 O 0.02036 0.7723 0.81932 0.0
O172 O 0.00915 0.74515 0.93392 0.0
O173 O 0.96693 0.73265 0.90531 0.0
C174 C 0.9839 0.72739 0.92934 0.0
C175 C 0.93438 0.75348 0.82879 0.0
C176 C 0.04068 0.75984 0.83604 0.0
C177 C 0.98624 0.8347 0.88417 0.0
O178 O 0.97826 0.82881 0.85589 0.0
O179 O -0.00548 0.81305 0.90208 0.0
O180 O 0.94257 0.77264 0.80678 0.0
O181 O 0.95174 0.75286 0.85342 0.0
O182 O -0.00155 0.20601 0.60019 0.0
Cd183 Cd 0.00828 0.23416 0.63944 0.0
Cd184 Cd 0.04576 0.26212 0.60024 0.0
O185 O 0.04188 0.2209 0.57586 0.0
O186 O 0.97579 0.22333 0.67107 0.0
O187 O 0.98285 0.27068 0.65104 0.0
C188 C 0.96817 0.25209 0.67018 0.0
C189 C 0.02445 0.30281 0.57424 0.0
C190 C 0.01758 0.20258 0.57799 0.0
C191 C 0.07533 0.24495 0.65882 0.0
O192 O 0.0778 0.26413 0.6364 0.0
O193 O 0.04979 0.22881 0.6629 0.0
O194 O 0.05272 0.29527 0.5687 0.0
O195 O 0.00933 0.28884 0.59656 0.0
O196 O 0.496 0.1641 0.36608 0.0
Cd197 Cd 0.47597 0.19688 0.33883 0.0
Cd198 Cd 0.47737 0.23308 0.39424 0.0
O199 O 0.49344 0.19205 0.40972 0.0
O200 O 0.49467 0.20298 0.29624 0.0
O201 O 0.49908 0.23762 0.33527 0.0
C202 C 0.50571 0.23004 0.30702 0.0
C203 C 0.50371 0.27927 0.4131 0.0
C204 C 0.50012 0.16706 0.39548 0.0
C205 C 0.41509 0.21755 0.36128 0.0
O206 O 0.43042 0.23381 0.3822 0.0
O207 O 0.42884 0.20023 0.34202 0.0
O208 O 0.48461 0.26304 0.43051 0.0
O209 O 0.50792 0.26922 0.3851 0.0
O210 O 0.50221 0.70774 0.11434 0.0
Cd211 Cd 0.50734 0.74235 0.14875 0.0
Cd212 Cd 0.53839 0.77145 0.10395 0.0
O213 O 0.53773 0.72851 0.08254 0.0
O214 O 0.4773 0.73142 0.18284 0.0
O215 O 0.47637 0.77516 0.15601 0.0
C216 C 0.46517 0.75791 0.17819 0.0
C217 C 0.51121 0.80921 0.07894 0.0
C218 C 0.51913 0.70571 0.09016 0.0
C219 C 0.57345 0.76492 0.16292 0.0
O220 O 0.57259 0.78015 0.13766 0.0
O221 O 0.55006 0.74716 0.17081 0.0
O222 O 0.53939 0.80361 0.07081 0.0
O223 O 0.49911 0.79406 0.10216 0.0
O224 O 0.88677 0.00116 0.70489 0.0
Cd225 Cd 0.86379 0.00356 0.74685 0.0
Cd226 Cd 0.9144 0.969 0.76304 0.0
O227 O 0.92587 0.97186 0.71684 0.0
O228 O 0.83009 0.03334 0.73967 0.0
O229 O 0.86804 0.04228 0.77451 0.0
C230 C 0.84324 0.05141 0.76109 0.0
C231 C 0.93918 0.00192 0.80041 0.0
C232 C 0.91072 0.98681 0.69686 0.0
C233 C 0.85047 0.9382 0.77168 0.0
O234 O 0.87982 0.9356 0.77508 0.0
O235 O 0.84004 0.96328 0.7613 0.0
O236 O 0.95039 0.9752 0.79355 0.0
O237 O 0.91449 0.00944 0.78554 0.0
O238 O 0.77511 0.14204 0.55609 0.0
Cd239 Cd 0.76159 0.10869 0.52213 0.0
Cd240 Cd 0.72062 0.15011 0.50649 0.0
O241 O 0.73829 0.17413 0.54461 0.0
O242 O 0.79284 0.07645 0.52283 0.0
O243 O 0.7833 0.104 0.48077 0.0
C244 C 0.79775 0.08182 0.49372 0.0
C245 C 0.7215 0.17915 0.46138 0.0
C246 C 0.76121 0.16706 0.56149 0.0
C247 C 0.69386 0.0877 0.52598 0.0
O248 O 0.68759 0.114 0.51473 0.0
O249 O 0.72196 0.08126 0.53096 0.0
O250 O 0.70009 0.18211 0.48203 0.0
O251 O 0.74166 0.15823 0.46571 0.0
O252 O 0.6048 0.97126 0.2059 0.0
Cd253 Cd 0.6363 0.984 0.24192 0.0
Cd254 Cd 0.58568 0.002 0.27074 0.0
O255 O 0.56587 -0.00514 0.22781 0.0
O256 O 0.67585 0.96112 0.24225 0.0
O257 O 0.64216 0.96044 0.28113 0.0
C258 C 0.6686 0.95269 0.27026 0.0
C259 C 0.56204 0.9755 0.31195 0.0
C260 C 0.57724 0.98107 0.20448 0.0
C261 C 0.6375 0.0508 0.26106 0.0
O262 O 0.6131 0.04339 0.2768 0.0
O263 O 0.64951 0.03048 0.2438 0.0
O264 O 0.55076 0.00071 0.30143 0.0
O265 O 0.58668 0.96566 0.29899 0.0
O266 O 0.72 0.87488 0.08749 0.0
Cd267 Cd 0.71681 0.90107 0.04802 0.0
Cd268 Cd 0.7403 0.85446 0.01926 0.0
O269 O 0.74558 0.83832 0.06364 0.0
O270 O 0.6859 0.93333 0.05331 0.0
O271 O 0.68225 0.89628 0.01623 0.0
C272 C 0.67164 0.92114 0.02883 0.0
C273 C 0.71843 0.81939 0.98157 0.0
C274 C 0.73527 0.85027 0.0885 0.0
C275 C 0.77752 0.91579 0.01804 0.0
O276 O 0.77409 0.88827 0.00608 0.0
O277 O 0.75737 0.92542 0.03679 0.0
O278 O 0.74638 0.81703 -0.0075 0.0
O279 O 0.70256 0.84191 -0.00781 0.0
O280 O 0.27453 0.62348 0.06458 0.0
Cd281 Cd 0.2618 0.59121 0.02971 0.0
Cd282 Cd 0.24726 0.6417 -0.00195 0.0
O283 O 0.26264 0.6649 0.03782 0.0
O284 O 0.2872 0.55369 0.03024 0.0
O285 O 0.28736 0.58769 -0.00839 0.0
C286 C 0.29738 0.56237 0.0032 0.0
C287 C 0.26264 0.66413 0.95096 0.0
C288 C 0.27213 0.653 0.06285 0.0
C289 C 0.19504 0.59364 0.01434 0.0
O290 O 0.20336 0.61895 0.00054 0.0
O291 O 0.21531 0.5777 0.02752 0.0
O292 O 0.2425 0.67679 0.96854 0.0
O293 O 0.27408 0.63853 0.96007 0.0
O294 O 0.11684 0.45513 0.68631 0.0
Cd295 Cd 0.15102 0.46763 0.71954 0.0
Cd296 Cd 0.10528 0.49293 0.75032 0.0
O297 O 0.07987 0.47853 0.71157 0.0
O298 O 0.18476 0.43804 0.72424 0.0
O299 O 0.15175 0.44915 0.76198 0.0
C300 C 0.17581 0.43468 0.75283 0.0
C301 C 0.0769 0.49057 0.79683 0.0
C302 C 0.08894 0.46389 0.68766 0.0
C303 C 0.15962 0.5355 0.72743 0.0
O304 O 0.13508 0.5322 0.74392 0.0
O305 O 0.17093 0.51185 0.71456 0.0
O306 O 0.07205 0.51096 0.77584 0.0
O307 O 0.09846 0.47135 0.79171 0.0
O308 O 0.23062 0.3741 0.58469 0.0
Cd309 Cd 0.23049 0.3975 0.54283 0.0
Cd310 Cd 0.24413 0.34235 0.51735 0.0
O311 O 0.24707 0.33076 0.56343 0.0
O312 O 0.20397 0.4345 0.5434 0.0
O313 O 0.19547 0.39311 0.51194 0.0
C314 C 0.18789 0.42059 0.52084 0.0
C315 C 0.2127 0.31022 0.48335 0.0
C316 C 0.24044 0.3467 0.58752 0.0
C317 C 0.29086 0.39654 0.50883 0.0
O318 O 0.28249 0.3685 0.50031 0.0
O319 O 0.2736 0.41185 0.52669 0.0
O320 O 0.23966 0.30189 0.49279 0.0
O321 O 0.20353 0.33664 0.49358 0.0
O322 O 0.36776 0.50848 0.18875 0.0
Cd323 Cd 0.34256 0.51223 0.22919 0.0
Cd324 Cd 0.38798 0.4845 0.25555 0.0
O325 O 0.40327 0.48062 0.21074 0.0
O326 O 0.31394 0.5468 0.22687 0.0
O327 O 0.35355 0.54644 0.26085 0.0
C328 C 0.3295 0.55984 0.25018 0.0
C329 C 0.42546 0.50098 0.29283 0.0
C330 C 0.39203 0.49282 0.18665 0.0
C331 C 0.32413 0.4527 0.26018 0.0
O332 O 0.35239 0.4535 0.26971 0.0
O333 O 0.31517 0.47356 0.24195 0.0
O334 O 0.42479 0.47331 0.28022 0.0
O335 O 0.4047 0.51972 0.28397 0.0
O336 O 0.97067 0.09786 0.00483 0.0
Zn337 Zn -0.00836 0.06354 0.98192 0.0
O338 O 0.97377 0.02358 -0.00515 0.0
Zn339 Zn 0.00656 -0.00467 -0.00022 0.0
Zn340 Zn 0.95056 0.0261 0.03277 0.0
Zn341 Zn 0.9465 0.01044 0.96096 0.0
O342 O 0.0053 0.9634 0.96541 0.0
O343 O 0.9637 0.97467 0.93726 0.0
O344 O 0.03647 0.06789 -0.00501 0.0
O345 O 0.04852 0.01888 0.00336 0.0
O346 O 0.00324 0.97361 0.04035 0.0
O347 O 0.97503 0.00641 0.06722 0.0
O348 O 0.90783 0.00269 0.02763 0.0
O349 O 0.98923 0.06501 0.93464 0.0
O350 O 0.90579 -0.00613 0.97636 0.0
O351 O 0.94036 0.04556 0.93197 0.0
C352 C 0.95515 0.09754 0.03017 0.0
C353 C 0.9868 0.95792 0.94219 0.0
C354 C -0.00631 0.98421 0.06625 0.0
C355 C 0.05619 0.04814 0.00253 0.0
C356 C 0.89368 -0.00869 0.00317 0.0
C357 C 0.96423 0.05838 0.91885 0.0
O358 O 0.94671 0.07182 0.04345 0.0
O359 O 0.24755 0.71287 0.19817 0.0
Zn360 Zn 0.24414 0.72083 0.24359 0.0
O361 O 0.2668 0.76035 0.25476 0.0
Zn362 Zn 0.30126 0.75232 0.28407 0.0
Zn363 Zn 0.2816 0.783 0.21757 0.0
Zn364 Zn 0.23738 0.7855 0.27455 0.0
O365 O 0.29422 0.7719 0.32723 0.0
O366 O 0.24957 0.79399 0.31794 0.0
O367 O 0.26489 0.68554 0.26186 0.0
O368 O 0.30624 0.70537 0.28876 0.0
O369 O 0.342 0.7683 0.26518 0.0
O370 O 0.32856 0.78925 0.22014 0.0
O371 O 0.26151 0.82527 0.2115 0.0
O372 O 0.19943 0.71646 0.25785 0.0
O373 O 0.2332 0.82584 0.25442 0.0
O374 O 0.19501 0.76472 0.27646 0.0
C375 C 0.26101 0.72734 0.17579 0.0
C376 C 0.27149 0.78761 0.33647 0.0
C377 C 0.34943 0.78143 0.23953 0.0
C378 C 0.28906 0.68187 0.27848 0.0
C379 C 0.24292 0.83889 0.22968 0.0
C380 C 0.18331 0.73732 0.27008 0.0
O381 O 0.2743 0.75476 0.17955 0.0
O382 O 0.49216 0.9088 0.51264 0.0
Zn383 Zn 0.48338 0.94798 0.48977 0.0
O384 O 0.50633 0.9831 0.50967 0.0
Zn385 Zn 0.48006 0.01774 0.51641 0.0
Zn386 Zn 0.52447 0.97284 0.54907 0.0
Zn387 Zn 0.53922 -0.00595 0.48154 0.0
O388 O 0.49435 0.05395 0.49023 0.0
O389 O 0.53054 0.034 0.45997 0.0
O390 O 0.4378 0.95428 0.49196 0.0
O391 O 0.43525 0.00445 0.50622 0.0
O392 O 0.47737 0.03008 0.56155 0.0
O393 O 0.49846 0.98936 0.58297 0.0
O394 O 0.56854 -0.00708 0.554 0.0
O395 O 0.49496 0.94345 0.44445 0.0
O396 O 0.57906 0.00286 0.50425 0.0
O397 O 0.54457 0.9612 0.4491 0.0
C398 C 0.5076 0.9039 0.53753 0.0
C399 C 0.51354 0.05623 0.46771 0.0
C400 C 0.4822 0.01326 0.58515 0.0
C401 C 0.42209 0.97793 0.49817 0.0
C402 C 0.58724 0.00264 0.5328 0.0
C403 C 0.52248 0.94684 0.43352 0.0
O404 O 0.52198 0.92609 0.55332 0.0
O405 O 0.25031 0.25835 0.85728 0.0
Zn406 Zn 0.26931 0.28077 0.82055 0.0
O407 O 0.25413 0.25775 0.78389 0.0
Zn408 Zn 0.28697 0.25094 0.75524 0.0
Zn409 Zn 0.2272 0.22027 0.79058 0.0
Zn410 Zn 0.22882 0.28733 0.76662 0.0
O411 O 0.27913 0.27453 0.71569 0.0
O412 O 0.25082 0.31256 0.7338 0.0
O413 O 0.31604 0.27725 0.82348 0.0
O414 O 0.32877 0.26335 0.7751 0.0
O415 O 0.2887 0.20456 0.74723 0.0
O416 O 0.24968 0.18309 0.77549 0.0
O417 O 0.18607 0.21952 0.7647 0.0
O418 O 0.2578 0.32712 0.8186 0.0
O419 O 0.19431 0.26645 0.74384 0.0
O420 O 0.21105 0.31346 0.79959 0.0
C421 C 0.23314 0.23303 0.86053 0.0
C422 C 0.26569 0.30008 0.71169 0.0
C423 C 0.27333 0.18063 0.75799 0.0
C424 C 0.33643 0.27071 0.80325 0.0
C425 C 0.17889 0.24028 0.74519 0.0
C426 C 0.2298 0.33397 0.81241 0.0
O427 O 0.22238 0.21636 0.83723 0.0
O428 O 0.98592 -0.0012 0.41334 0.0
Zn429 Zn 0.96186 0.98642 0.4515 0.0
O430 O 0.98432 0.0038 0.48879 0.0
Zn431 Zn -0.00509 0.97059 0.51697 0.0
Zn432 Zn 0.02243 0.0292 0.47783 0.0
Zn433 Zn 0.95666 0.02948 0.51042 0.0
O434 O 0.97294 0.97163 0.55847 0.0
O435 O 0.94606 0.01386 0.55245 0.0
O436 O 0.9641 0.93952 0.45069 0.0
O437 O 0.98719 0.92925 0.4957 0.0
O438 O 0.04094 0.97166 0.52426 0.0
O439 O 0.06087 0.01186 0.49695 0.0
O440 O 0.02062 0.07497 0.49167 0.0
O441 O 0.91691 0.00011 0.4468 0.0
O442 O 0.97487 0.07223 0.51567 0.0
O443 O 0.91726 0.033 0.48759 0.0
C444 C 0.01286 0.01242 0.40917 0.0
C445 C 0.95382 0.99095 0.56872 0.0
C446 C 0.06425 0.98847 0.51443 0.0
C447 C 0.97608 0.92031 0.46917 0.0
C448 C -0.00069 0.08786 0.50701 0.0
C449 C 0.90392 0.02049 0.46352 0.0
O450 O 0.02914 0.02505 0.43166 0.0
O451 O 0.31665 0.7435 0.7512 0.0
Zn452 Zn 0.27901 0.7566 0.77419 0.0
O453 O 0.24163 0.74072 0.75128 0.0
Zn454 Zn 0.21426 0.77442 0.74454 0.0
Zn455 Zn 0.25115 0.72136 0.71104 0.0
Zn456 Zn 0.22055 0.71014 0.77683 0.0
O457 O 0.17369 0.76779 0.76629 0.0
O458 O 0.17995 0.72397 0.79203 0.0
O459 O 0.28176 0.80377 0.77486 0.0
O460 O 0.23505 0.81574 0.75734 0.0
O461 O 0.20625 0.78056 0.69954 0.0
O462 O 0.23744 0.74836 0.67592 0.0
O463 O 0.2309 0.67697 0.70583 0.0
O464 O 0.28135 0.73967 0.81818 0.0
O465 O 0.20999 0.67166 0.75289 0.0
O466 O 0.24585 0.69947 0.81355 0.0
C467 C 0.32051 0.72973 0.72504 0.0
C468 C 0.16369 0.74677 0.78504 0.0
C469 C 0.21887 0.77055 0.67493 0.0
C470 C 0.26242 0.82402 0.76744 0.0
C471 C 0.21491 0.66107 0.7257 0.0
C472 C 0.26797 0.71445 0.8285 0.0
O473 O 0.29753 0.72013 0.70746 0.0
O474 O 0.52428 0.01823 0.0691 0.0
Zn475 Zn 0.5176 0.02413 0.02371 0.0
O476 O 0.47925 0.00041 0.01049 0.0
Zn477 Zn 0.48939 0.96719 0.98086 0.0
Zn478 Zn 0.45603 0.98309 0.04621 0.0
Zn479 Zn 0.45373 0.02896 -0.01 0.0
O480 O 0.4736 0.975 0.93703 0.0
O481 O 0.44797 0.01778 0.94575 0.0
O482 O 0.55509 0.00478 0.00666 0.0
O483 O 0.5359 0.96259 0.98049 0.0
O484 O 0.47345 0.92521 -0.00371 0.0
O485 O 0.45315 0.93603 0.04243 0.0
O486 O 0.41228 -7e-05 0.05045 0.0
O487 O 0.51932 0.07008 0.01227 0.0
O488 O 0.41214 0.02979 0.00857 0.0
O489 O 0.4726 0.07233 -0.00985 0.0
C490 C 0.50945 0.00324 0.0903 0.0
C491 C 0.45724 -0.00308 0.92726 0.0
C492 C 0.46147 0.91626 0.02201 0.0
C493 C 0.55911 0.97932 -0.00819 0.0
C494 C 0.39837 0.01797 0.03207 0.0
C495 C 0.49868 0.08559 -0.00116 0.0
O496 O 0.48217 0.99012 0.08548 0.0
O497 O 0.14025 0.2571 0.27664 0.0
Zn498 Zn 0.17539 0.2383 0.30026 0.0
O499 O 0.21545 0.25763 0.2867 0.0
Zn500 Zn 0.24276 0.22566 0.27446 0.0
Zn501 Zn 0.2102 0.28416 0.25099 0.0
Zn502 Zn 0.23582 0.28132 0.32038 0.0
O503 O 0.27663 0.21997 0.30513 0.0
O504 O 0.27487 0.26209 0.33572 0.0
O505 O 0.17188 0.19223 0.28759 0.0
O506 O 0.21855 0.18515 0.26745 0.0
O507 O 0.26261 0.23404 0.23365 0.0
O508 O 0.22804 0.26413 0.21268 0.0
O509 O 0.23235 0.32692 0.25824 0.0
O510 O 0.16974 0.24475 0.3472 0.0
O511 O 0.24874 0.3246 0.30745 0.0
O512 O 0.20754 0.28238 0.35632 0.0
C513 C 0.13941 0.27571 0.25368 0.0
C514 C 0.28748 0.23697 0.32782 0.0
C515 C 0.25049 0.24607 0.20984 0.0
C516 C 0.19078 0.175 0.27347 0.0
C517 C 0.24659 0.33943 0.28211 0.0
C518 C 0.18372 0.26557 0.36503 0.0
O519 O 0.16452 0.2879 0.24199 0.0
O520 O 0.48898 0.50369 0.92024 0.0
Zn521 Zn 0.471 0.48614 0.95945 0.0
O522 O 0.49393 0.50603 -0.00585 0.0
Zn523 Zn 0.50677 0.47528 0.02376 0.0
Zn524 Zn 0.5295 0.53321 0.98237 0.0
Zn525 Zn 0.46385 0.53105 0.01153 0.0
O526 O 0.47949 0.47539 0.06222 0.0
O527 O 0.44624 0.51114 0.04921 0.0
O528 O 0.47978 0.44104 0.9578 0.0
O529 O 0.5041 0.4327 0.0027 0.0
O530 O 0.55304 0.48139 0.03382 0.0
O531 O 0.56831 0.51245 -0.00512 0.0
O532 O 0.52939 0.57678 0.00344 0.0
O533 O 0.42399 0.49153 0.9608 0.0
O534 O 0.48258 0.57163 0.02499 0.0
O535 O 0.42908 0.53889 0.98255 0.0
C536 C 0.51296 0.52172 0.91419 0.0
C537 C 0.45525 0.49052 0.0678 0.0
C538 C 0.57447 0.49357 0.01651 0.0
C539 C 0.49367 0.42305 0.97605 0.0
C540 C 0.50804 0.5876 0.02042 0.0
C541 C 0.41273 0.51763 0.96774 0.0
O542 O 0.53041 0.53484 0.93563 0.0
O543 O 0.78127 0.26668 0.26846 0.0
Zn544 Zn 0.74183 0.27933 0.28907 0.0
O545 O 0.70507 0.266 0.264 0.0
Zn546 Zn 0.68416 0.30137 0.24702 0.0
Zn547 Zn 0.71672 0.23787 0.23022 0.0
Zn548 Zn 0.67621 0.24456 0.29116 0.0
O549 O 0.6373 0.29942 0.25437 0.0
O550 O 0.63373 0.25907 0.28654 0.0
O551 O 0.7458 0.32637 0.29051 0.0
O552 O 0.70611 0.34186 0.26186 0.0
O553 O 0.68895 0.30102 0.20107 0.0
O554 O 0.70378 0.25356 0.18842 0.0
O555 O 0.69933 0.19333 0.23673 0.0
O556 O 0.74025 0.26104 0.33244 0.0
O557 O 0.67217 0.19955 0.27997 0.0
O558 O 0.68974 0.24612 0.33556 0.0
C559 C 0.78603 0.25109 0.24355 0.0
C560 C 0.62124 0.28023 0.27113 0.0
C561 C 0.69541 0.2805 0.18069 0.0
C562 C 0.73088 0.34811 0.2782 0.0
C563 C 0.68193 0.1821 0.25835 0.0
C564 C 0.71687 0.25007 0.34793 0.0
O565 O 0.76349 0.23871 0.22699 0.0
O566 O 0.03468 0.50797 0.55686 0.0
Zn567 Zn 0.02977 0.51617 0.5116 0.0
O568 O -0.00679 0.49136 0.49529 0.0
Zn569 Zn 0.00623 0.45859 0.46649 0.0
Zn570 Zn 0.96801 0.47341 0.52961 0.0
Zn571 Zn 0.9684 0.5191 0.47293 0.0
O572 O 0.98889 0.46295 0.42209 0.0
O573 O 0.96388 0.50649 0.42885 0.0
O574 O 0.06899 0.49977 0.49532 0.0
O575 O 0.0534 0.4581 0.46636 0.0
O576 O -0.00612 0.41665 0.48449 0.0
O577 O 0.9648 0.42635 0.52571 0.0
O578 O 0.9247 0.49113 0.53247 0.0
O579 O 0.02998 0.56262 0.50252 0.0
O580 O 0.9262 0.52058 0.49029 0.0
O581 O 0.98682 0.56261 0.47359 0.0
C582 C 0.01895 0.49214 0.57687 0.0
C583 C 0.97258 0.48449 0.41133 0.0
C584 C 0.97834 0.40714 0.5081 0.0
C585 C 0.0752 0.47566 0.47928 0.0
C586 C 0.91165 0.50934 0.51363 0.0
C587 C 0.01074 0.57709 0.48603 0.0
O588 O -0.00797 0.47908 0.5703 0.0
O589 O 0.7545 0.77264 0.35857 0.0
Zn590 Zn 0.7719 0.79914 0.32386 0.0
O591 O 0.75823 0.77799 0.2854 0.0
Zn592 Zn 0.79167 0.76658 0.25877 0.0
Zn593 Zn 0.72822 0.74253 0.28965 0.0
Zn594 Zn 0.74084 0.80874 0.26147 0.0
O595 O 0.78464 0.78171 0.21471 0.0
O596 O 0.77106 0.82752 0.23168 0.0
O597 O 0.81908 0.79931 0.32551 0.0
O598 O 0.83202 0.78352 0.2776 0.0
O599 O 0.79394 0.72016 0.25783 0.0
O600 O 0.7476 0.70264 0.27577 0.0
O601 O 0.68892 0.74773 0.26277 0.0
O602 O 0.75674 0.84404 0.32848 0.0
O603 O 0.70487 0.79084 0.23763 0.0
O604 O 0.72595 0.84265 0.28641 0.0
C605 C 0.73445 0.74926 0.35998 0.0
C606 C 0.77818 0.8098 0.2092 0.0
C607 C 0.77453 0.6977 0.26495 0.0
C608 C 0.83956 0.79361 0.30502 0.0
C609 C 0.68532 0.76765 0.24123 0.0
C610 C 0.73587 0.85583 0.31157 0.0
O611 O 0.72104 0.73658 0.33566 0.0
O612 O 0.75408 0.21378 0.70274 0.0
Zn613 Zn 0.75199 0.21814 0.74881 0.0
O614 O 0.7765 0.2564 0.76147 0.0
Zn615 Zn 0.81305 0.24553 0.78628 0.0
Zn616 Zn 0.78895 0.28222 0.72561 0.0
Zn617 Zn 0.74998 0.28037 0.78647 0.0
O618 O 0.81084 0.26084 0.83144 0.0
O619 O 0.76456 0.28161 0.82978 0.0
O620 O 0.77174 0.18019 0.76382 0.0
O621 O 0.81592 0.19847 0.78691 0.0
O622 O 0.85254 0.26171 0.76519 0.0
O623 O 0.836 0.28729 0.72395 0.0
O624 O 0.76996 0.32515 0.72599 0.0
O625 O 0.70693 0.21586 0.76336 0.0
O626 O 0.7476 0.32366 0.77236 0.0
O627 O 0.70633 0.26241 0.78711 0.0
C628 C 0.76477 0.23088 0.68075 0.0
C629 C 0.7884 0.27379 0.84492 0.0
C630 C 0.85813 0.2772 0.74042 0.0
C631 C 0.79753 0.17554 0.77746 0.0
C632 C 0.75503 0.33829 0.74775 0.0
C633 C 0.69252 0.2367 0.77793 0.0
O634 O 0.77732 0.25841 0.68576 0.0
O635 O 0.66047 0.75318 0.77291 0.0
Zn636 Zn 0.69149 0.73352 0.80021 0.0
O637 O 0.73385 0.74391 0.78499 0.0
Zn638 Zn 0.75341 0.706 0.7721 0.0
Zn639 Zn 0.73315 0.77248 0.74979 0.0
Zn640 Zn 0.75856 0.76323 0.81842 0.0
O641 O 0.79391 0.69971 0.79367 0.0
O642 O 0.79625 0.7402 0.82687 0.0
O643 O 0.68026 0.68725 0.7933 0.0
O644 O 0.72411 0.66863 0.77543 0.0
O645 O 0.7635 0.70725 0.72733 0.0
O646 O 0.7522 0.75422 0.7111 0.0
O647 O 0.75577 0.81415 0.76027 0.0
O648 O 0.68561 0.74655 0.84579 0.0
O649 O 0.77435 0.80688 0.80808 0.0
O650 O 0.73443 0.76463 0.85719 0.0
C651 C 0.66247 0.76865 0.74777 0.0
C652 C 0.80774 0.71586 0.81544 0.0
C653 C 0.7624 0.72727 0.70584 0.0
C654 C 0.69546 0.66467 0.78278 0.0
C655 C 0.77142 0.82404 0.78435 0.0
C656 C 0.7063 0.75801 0.86516 0.0
O657 O 0.68891 0.77789 0.73677 0.0
O658 O 0.48986 0.55138 0.50106 0.0
Zn659 Zn 0.50951 0.51965 0.47427 0.0
O660 O 0.50107 0.47734 0.48973 0.0
Zn661 Zn 0.54006 0.45829 0.50037 0.0
Zn662 Zn 0.47453 0.47891 0.52616 0.0
Zn663 Zn 0.47957 0.45258 0.45756 0.0
O664 O 0.54611 0.41842 0.47595 0.0
O665 O 0.50102 0.41382 0.4493 0.0
O666 O 0.55489 0.53171 0.47982 0.0
O667 O 0.5769 0.48973 0.49764 0.0
O668 O 0.53939 0.44603 0.54478 0.0
O669 O 0.49261 0.4566 0.56239 0.0
O670 O 0.4312 0.46056 0.51645 0.0
O671 O 0.49693 0.52478 0.42917 0.0
O672 O 0.43488 0.44085 0.46842 0.0
O673 O 0.47971 0.47559 0.418 0.0
C674 C 0.47829 0.54977 0.52827 0.0
C675 C 0.5272 0.40358 0.45699 0.0
C676 C 0.51942 0.44583 0.56653 0.0
C677 C 0.57873 0.5185 0.48995 0.0
C678 C 0.41895 0.44595 0.4927 0.0
C679 C 0.48638 0.50366 0.40981 0.0
O680 O 0.4722 0.52343 0.54105 0.0
O681 O 0.98791 0.44342 -0.00116 0.0
Zn682 Zn 0.97718 0.47958 0.97167 0.0
O683 O 0.98477 0.5197 -0.00618 0.0
Zn684 Zn 0.94621 0.54108 0.00022 0.0
Zn685 Zn 0.00585 0.5137 0.03383 0.0
Zn686 Zn 0.01078 0.54606 0.96827 0.0
O687 O 0.94899 0.58673 0.98706 0.0
O688 O -0.00388 0.58877 0.96579 0.0
O689 O 0.93092 0.47287 0.96465 0.0
O690 O 0.90971 0.51662 0.98024 0.0
O691 O 0.93627 0.54037 0.04557 0.0
O692 O 0.98012 0.52853 0.06958 0.0
O693 O 0.05038 0.53358 0.03509 0.0
O694 O -6e-05 0.47782 0.93019 0.0
O695 O 0.05244 0.55276 0.98715 0.0
O696 O 0.01619 0.52805 0.92584 0.0
C697 C -0.0018 0.44279 0.02683 0.0
C698 C 0.97177 0.60201 0.97419 0.0
C699 C 0.95172 0.53591 0.07047 0.0
C700 C 0.90702 0.48878 0.96886 0.0
C701 C 0.06511 0.54812 0.01342 0.0
C702 C 0.01286 0.50024 0.91463 0.0
O703 O 0.00634 0.46784 0.04213 0.0
C704 C 0.94716 0.15433 0.09796 0.0
C705 C 0.95699 0.1835 0.08531 0.0
C706 C 0.94445 0.12697 0.0794 0.0
C707 C 0.95158 0.12757 0.04735 0.0
H708 H 0.94256 0.15226 0.12272 0.0
H709 H 0.93826 0.10498 0.09074 0.0
S710 S 0.97324 0.19874 0.0016 0.0
N711 N 0.97012 0.21195 0.03783 0.0
N712 N 0.96513 0.16044 0.00296 0.0
C713 C 0.95928 0.1569 0.0339 0.0
C714 C 0.96201 0.18485 0.05284 0.0
C715 C 0.10094 0.74784 0.29279 0.0
C716 C 0.09979 0.73315 0.322 0.0
C717 C 0.12719 0.74623 0.27379 0.0
C718 C 0.15251 0.72904 0.28295 0.0
H719 H 0.08261 0.76272 0.28563 0.0
H720 H 0.12867 0.76031 0.25295 0.0
S721 S 0.15885 0.68229 0.35459 0.0
N722 N 0.12462 0.69804 0.35747 0.0
N723 N 0.17373 0.69434 0.32108 0.0
C724 C 0.15039 0.71179 0.31054 0.0
C725 C 0.12403 0.71404 0.33031 0.0
C726 C 0.51062 0.8157 0.5404 0.0
C727 C 0.50585 0.80971 0.57225 0.0
C728 C 0.51065 0.84632 0.52911 0.0
C729 C 0.50697 0.87188 0.54955 0.0
H730 H 0.5146 0.79663 0.52417 0.0
H731 H 0.51439 0.85011 0.50443 0.0
S732 S 0.49305 0.86859 0.6348 0.0
N733 N 0.49633 0.83163 0.62385 0.0
N734 N 0.49738 0.88936 0.60275 0.0
C735 C 0.50186 0.86619 0.58136 0.0
C736 C 0.501 0.83498 0.59269 0.0
C737 C 0.42495 0.27039 0.80053 0.0
C738 C 0.4328 0.25888 0.83003 0.0
C739 C 0.39372 0.27446 0.79212 0.0
C740 C 0.3693 0.26796 0.81322 0.0
H741 H 0.4431 0.27644 0.78381 0.0
H742 H 0.38871 0.28309 0.76906 0.0
S743 S 0.37725 0.23659 0.8931 0.0
N744 N 0.41351 0.24028 0.88011 0.0
N745 N 0.35485 0.2485 0.86453 0.0
C746 C 0.37677 0.25628 0.84274 0.0
C747 C 0.40851 0.25152 0.85107 0.0
C748 C -0.00054 0.86001 0.41011 0.0
C749 C 0.01573 0.839 0.42828 0.0
C750 C 0.98427 0.88464 0.42388 0.0
C751 C 0.98503 0.88968 0.45644 0.0
H752 H -0.00175 0.85743 0.38489 0.0
H753 H 0.97308 0.90066 0.40858 0.0
S754 S 0.02253 0.83993 0.51476 0.0
N755 N 0.03017 0.82361 0.48067 0.0
N756 N 0.00182 0.87026 0.50677 0.0
C757 C 0.00023 0.86813 0.47506 0.0
C758 C 0.01561 0.84283 0.46095 0.0
C759 C 0.38897 0.72731 0.67042 0.0
C760 C 0.41393 0.72154 0.69068 0.0
C761 C 0.35864 0.7294 0.68177 0.0
C762 C 0.35247 0.72651 0.71382 0.0
H763 H 0.39274 0.72947 0.64554 0.0
H764 H 0.33995 0.73369 0.66537 0.0
S765 S 0.41007 0.71241 0.7766 0.0
N766 N 0.43079 0.71342 0.74425 0.0
N767 N 0.37372 0.71821 0.76573 0.0
C768 C 0.37734 0.72138 0.73441 0.0
C769 C 0.40812 0.71864 0.72278 0.0
C770 C 0.54652 0.1587 0.97471 0.0
C771 C 0.5244 0.17531 0.95821 0.0
C772 C 0.5377 0.13061 -0.01034 0.0
C773 C 0.5064 0.11823 0.9888 0.0
H774 H 0.5711 0.16666 0.97492 0.0
H775 H 0.55585 0.11781 0.00061 0.0
S776 S 0.43864 0.15589 0.95332 0.0
N777 N 0.46937 0.17955 0.94507 0.0
N778 N 0.45253 0.1271 0.9735 0.0
C779 C 0.48367 0.13597 0.97437 0.0
C780 C 0.49275 0.16438 0.95892 0.0
C781 C 0.05424 0.26036 0.22927 0.0
C782 C 0.0526 0.27582 0.20059 0.0
C783 C 0.08186 0.26205 0.24727 0.0
C784 C 0.10901 0.27938 0.23739 0.0
H785 H 0.03441 0.24576 0.23743 0.0
H786 H 0.0822 0.24854 0.26845 0.0
S787 S 0.11545 0.32822 0.16633 0.0
N788 N 0.0794 0.31193 0.1648 0.0
N789 N 0.13128 0.31527 0.1986 0.0
C790 C 0.10702 0.29671 0.20975 0.0
C791 C 0.07889 0.29484 0.19134 0.0
C792 C 0.06071 0.96352 0.11815 0.0
C793 C 0.05166 0.97428 0.14768 0.0
C794 C 0.04044 0.96398 0.09238 0.0
C795 C 0.01045 0.97573 0.09501 0.0
H796 H 0.08418 0.95603 0.11454 0.0
H797 H 0.04937 0.95718 0.06983 0.0
S798 S 0.97346 0.0016 0.1682 0.0
N799 N 0.00905 -0.00706 0.17901 0.0
N800 N 0.97114 -0.0057 0.13022 0.0
C801 C 0.00011 0.98403 0.12487 0.0
C802 C 0.02066 0.98319 0.1513 0.0
C803 C 0.23714 0.82325 0.40882 0.0
C804 C 0.26165 0.8235 0.43082 0.0
C805 C 0.24064 0.81098 0.3788 0.0
C806 C 0.26891 0.79852 0.3693 0.0
H807 H 0.21511 0.83307 0.4146 0.0
H808 H 0.22088 0.81173 0.36283 0.0
S809 S 0.33998 0.79228 0.41868 0.0
N810 N 0.31496 0.8091 0.44173 0.0
N811 N 0.32151 0.78603 0.38485 0.0
C812 C 0.29339 0.79767 0.39135 0.0
C813 C 0.28977 0.81016 0.4222 0.0
C814 C 0.44663 -0.00519 0.66322 0.0
C815 C 0.41992 0.01238 0.66329 0.0
C816 C 0.46807 -0.00281 0.63894 0.0
C817 C 0.46371 0.01733 0.61377 0.0
H818 H 0.45046 0.97812 0.68147 0.0
H819 H 0.48743 0.98196 0.63929 0.0
S820 S 0.40079 0.07321 0.60653 0.0
N821 N 0.39242 0.05382 0.63877 0.0
N822 N 0.43289 0.05859 0.59284 0.0
C823 C 0.43836 0.03693 0.61485 0.0
C824 C 0.41631 0.03426 0.6396 0.0
C825 C 0.23606 0.17569 0.92643 0.0
C826 C 0.23307 0.19494 0.95303 0.0
C827 C 0.23428 0.18801 0.89642 0.0
C828 C 0.23021 0.22013 0.89207 0.0
H829 H 0.23932 0.15084 0.92881 0.0
H830 H 0.23718 0.17247 0.87651 0.0
S831 S 0.22133 0.28039 0.95418 0.0
N832 N 0.22532 0.24749 0.97326 0.0
N833 N 0.22323 0.27092 0.9167 0.0
C834 C 0.22728 0.23964 0.91847 0.0
C835 C 0.22837 0.22695 0.94902 0.0
C836 C 0.02153 0.0052 0.32161 0.0
C837 C 0.05287 -0.00258 0.31848 0.0
C838 C 0.00877 0.01051 0.35107 0.0
C839 C 0.02722 0.00919 0.3783 0.0
H840 H 0.00673 0.0072 0.30111 0.0
H841 H 0.98439 0.01593 0.35254 0.0
S842 S 0.11047 0.98941 0.38281 0.0
N843 N 0.10188 0.9881 0.34508 0.0
N844 N 0.07812 -0.00118 0.4005 0.0
C845 C 0.0586 0.00146 0.37552 0.0
C846 C 0.07136 -0.00469 0.34558 0.0
C847 C 0.24063 0.80416 0.59652 0.0
C848 C 0.22606 0.83282 0.59685 0.0
C849 C 0.23626 0.78286 0.6208 0.0
C850 C 0.21698 0.78933 0.64624 0.0
H851 H 0.2566 0.79864 0.57802 0.0
H852 H 0.24937 0.76193 0.62027 0.0
S853 S 0.16884 0.85862 0.65492 0.0
N854 N 0.18847 0.86485 0.62239 0.0
N855 N 0.17974 0.82472 0.66794 0.0
C856 C 0.2003 0.81687 0.64553 0.0
C857 C 0.20507 0.8387 0.62093 0.0
C858 C 0.4386 0.97195 0.84358 0.0
C859 C 0.42466 -0.00166 0.83154 0.0
C860 C 0.45004 0.97194 0.8743 0.0
C861 C 0.44801 -0.00165 0.89401 0.0
H862 H 0.43967 0.95064 0.8296 0.0
H863 H 0.45955 0.95072 0.88289 0.0
S864 S 0.41777 0.07505 0.87209 0.0
N865 N 0.41227 0.05257 0.84051 0.0
N866 N 0.43409 0.05294 0.89816 0.0
C867 C 0.43571 0.02556 0.88164 0.0
C868 C 0.42394 0.02546 0.85042 0.0
C869 C 0.27115 0.18522 0.15037 0.0
C870 C 0.25546 0.1945 0.12343 0.0
C871 C 0.27235 0.20394 0.17745 0.0
C872 C 0.25732 0.23242 0.17885 0.0
H873 H 0.28136 0.16261 0.15106 0.0
H874 H 0.28312 0.19467 0.19808 0.0
S875 S 0.21804 0.26995 0.11279 0.0
N876 N 0.22857 0.23616 0.0982 0.0
N877 N 0.23035 0.2712 0.14951 0.0
C878 C 0.2441 0.24338 0.15119 0.0
C879 C 0.24323 0.22442 0.12338 0.0
C880 C 0.12811 0.10315 0.01339 0.0
C881 C 0.14696 0.08727 0.03434 0.0
C882 C 0.09925 0.08987 0.00275 0.0
C883 C 0.08792 0.06007 0.01248 0.0
H884 H 0.13563 0.12615 0.00485 0.0
H885 H 0.08569 0.1032 0.98675 0.0
S886 S 0.12727 0.00888 0.06801 0.0
N887 N 0.15181 0.04016 0.06497 0.0
N888 N 0.09716 0.01513 0.04493 0.0
C889 C 0.10633 0.04375 0.03345 0.0
C890 C 0.13588 0.05739 0.04445 0.0
C891 C 0.64663 0.45595 0.04666 0.0
C892 C 0.66132 0.44726 0.01884 0.0
C893 C 0.61894 0.47195 0.04595 0.0
C894 C 0.6057 0.48069 0.01745 0.0
H895 H 0.6559 0.44927 0.06908 0.0
H896 H 0.60755 0.47708 0.06778 0.0
S897 S 0.63626 0.46483 0.93821 0.0
N898 N 0.66125 0.44921 0.96218 0.0
N899 N 0.60989 0.48019 0.96074 0.0
C900 C 0.62093 0.47317 -0.01046 0.0
C901 C 0.64857 0.45617 -0.00975 0.0
C902 C 0.79641 0.41122 0.28303 0.0
C903 C 0.78681 0.43339 0.26158 0.0
C904 C 0.77673 0.38523 0.29077 0.0
C905 C 0.74674 0.38001 0.277 0.0
H906 H 0.81974 0.41342 0.29333 0.0
H907 H 0.78599 0.36814 0.30626 0.0
S908 S 0.70869 0.43383 0.223 0.0
N909 N 0.74403 0.45071 0.22956 0.0
N910 N 0.70691 0.40152 0.24378 0.0
C911 C 0.73585 0.40341 0.25744 0.0
C912 C 0.75595 0.43012 0.24973 0.0
C913 C 0.84148 0.53757 0.55685 0.0
C914 C 0.82513 0.55242 0.5331 0.0
C915 C 0.86862 0.52189 0.55026 0.0
C916 C 0.88012 0.52041 0.51966 0.0
H917 H 0.83403 0.53916 0.5809 0.0
H918 H 0.88143 0.51224 0.56944 0.0
S919 S 0.84249 0.55061 0.44844 0.0
N920 N 0.82015 0.56137 0.47742 0.0
N921 N 0.87064 0.53155 0.46482 0.0
C922 C 0.86262 0.53327 0.49544 0.0
C923 C 0.83529 0.54942 0.50221 0.0
C924 C 0.14043 0.09943 0.2622 0.0
C925 C 0.15556 0.08355 0.23804 0.0
C926 C 0.15219 0.12871 0.27371 0.0
C927 C 0.17965 0.1434 0.26169 0.0
H928 H 0.11931 0.08912 0.27265 0.0
H929 H 0.13963 0.13983 0.2923 0.0
S930 S 0.22745 0.11284 0.19712 0.0
N931 N 0.19902 0.08532 0.20174 0.0
N932 N 0.22121 0.14054 0.2233 0.0
C933 C 0.19499 0.12803 0.23731 0.0
C934 C 0.18292 0.09811 0.2255 0.0
C935 C 0.34187 0.93982 0.4838 0.0
C936 C 0.32535 0.94934 0.51025 0.0
C937 C 0.37261 0.95123 0.47872 0.0
C938 C 0.38787 0.97285 0.49967 0.0
H939 H 0.33152 0.92222 0.46759 0.0
H940 H 0.38507 0.94186 0.45907 0.0
S941 S 0.35401 0.00785 0.5706 0.0
N942 N 0.32553 0.98371 0.55616 0.0
N943 N 0.38367 0.00552 0.54642 0.0
C944 C 0.37093 0.98458 0.52484 0.0
C945 C 0.3395 0.97274 0.53017 0.0
C946 C 0.7714 0.61071 0.2455 0.0
C947 C 0.8024 0.60292 0.25147 0.0
C948 C 0.76223 0.6413 0.25075 0.0
C949 C 0.784 0.66526 0.26134 0.0
H950 H 0.7541 0.59308 0.23649 0.0
H951 H 0.73823 0.64643 0.24558 0.0
S952 S 0.86762 0.65687 0.28178 0.0
N953 N 0.85448 0.62135 0.2699 0.0
N954 N 0.83746 0.67908 0.27902 0.0
C955 C 0.81491 0.6577 0.26794 0.0
C956 C 0.82407 0.62643 0.26324 0.0
C957 C 0.71675 0.40518 0.7085 0.0
C958 C 0.70268 0.41998 0.7339 0.0
C959 C 0.73589 0.38004 0.71312 0.0
C960 C 0.74176 0.36919 0.74335 0.0
H961 H 0.71155 0.41185 0.68478 0.0
H962 H 0.74449 0.36791 0.69283 0.0
S963 S 0.71573 0.40475 0.81784 0.0
N964 N 0.69942 0.42514 0.79031 0.0
N965 N 0.73597 0.37865 0.79928 0.0
C966 C 0.73008 0.38583 0.76902 0.0
C967 C 0.7103 0.411 0.76424 0.0
C968 C 0.00706 0.87538 0.92225 0.0
C969 C 0.98755 0.86727 0.89636 0.0
C970 C 0.00814 0.90548 0.93553 0.0
C971 C 0.9894 0.92864 0.92376 0.0
H972 H 0.02143 0.85822 0.93269 0.0
H973 H 0.02285 0.91005 0.95608 0.0
S974 S 0.93652 0.92026 0.85428 0.0
N975 N 0.95089 0.88541 0.85772 0.0
N976 N 0.95256 0.94222 0.88307 0.0
C977 C 0.97085 0.92136 0.8969 0.0
C978 C 0.97 0.89062 0.88312 0.0
C979 C 0.93534 0.24607 0.71757 0.0
C980 C 0.94309 0.26289 0.69049 0.0
C981 C 0.90943 0.25307 0.73546 0.0
C982 C 0.88981 0.27681 0.72664 0.0
H983 H 0.9488 0.22659 0.72452 0.0
H984 H 0.90361 0.23821 0.75511 0.0
S985 S 0.90263 0.33075 0.66014 0.0
N986 N 0.93143 0.30679 0.6577 0.0
N987 N 0.88215 0.31962 0.69099 0.0
C988 C 0.89864 0.29534 0.70086 0.0
C989 C 0.9254 0.28845 0.68285 0.0
C990 C 0.51262 0.1107 0.39932 0.0
C991 C 0.50924 0.14007 0.41404 0.0
C992 C 0.51577 0.08366 0.41691 0.0
C993 C 0.51522 0.08516 0.44968 0.0
H994 H 0.51145 0.10824 0.3741 0.0
H995 H 0.51691 0.06125 0.4048 0.0
S996 S 0.51264 0.15662 0.49969 0.0
N997 N 0.51012 0.16938 0.46362 0.0
N998 N 0.51513 0.11826 0.49632 0.0
C999 C 0.51406 0.11447 0.4647 0.0
C1000 C 0.51137 0.14205 0.44695 0.0
C1001 C 0.60214 0.75064 0.21139 0.0
C1002 C 0.60228 0.76608 0.18248 0.0
C1003 C 0.62931 0.75024 0.22994 0.0
C1004 C 0.65757 0.76538 0.2203 0.0
H1005 H 0.58083 0.73881 0.21994 0.0
H1006 H 0.62795 0.73867 0.25226 0.0
S1007 S 0.67119 0.80722 0.14564 0.0
N1008 N 0.63364 0.79564 0.14456 0.0
N1009 N 0.68468 0.79474 0.17915 0.0
C1010 C 0.65825 0.78032 0.19113 0.0
C1011 C 0.63062 0.78078 0.17233 0.0
C1012 C 0.0383 0.1616 0.54317 0.0
C1013 C 0.01247 0.17634 0.55551 0.0
C1014 C 0.03401 0.13398 0.52506 0.0
C1015 C 0.00373 0.12057 0.51859 0.0
H1016 H 0.06201 0.17042 0.54903 0.0
H1017 H 0.05447 0.12208 0.51788 0.0
S1018 S 0.92853 0.1543 0.53963 0.0
N1019 N 0.95583 0.17841 0.55617 0.0
N1020 N 0.94753 0.12699 0.52143 0.0
C1021 C 0.97775 0.13687 0.52831 0.0
C1022 C 0.98216 0.16463 0.54706 0.0
C1023 C 0.54249 0.27751 0.30486 0.0
C1024 C 0.52898 0.2501 0.28988 0.0
C1025 C 0.57132 0.29125 0.29536 0.0
C1026 C 0.58704 0.27844 0.27015 0.0
H1027 H 0.53245 0.28654 0.326 0.0
H1028 H 0.58289 0.30964 0.30991 0.0
S1029 S 0.55807 0.2125 0.21804 0.0
N1030 N 0.53067 0.21475 0.24477 0.0
N1031 N 0.58483 0.24105 0.22674 0.0
C1032 C 0.57167 0.25419 0.25217 0.0
C1033 C 0.54251 0.23986 0.26205 0.0
C1034 C 0.50376 0.84265 0.03266 0.0
C1035 C 0.49361 0.83266 0.06218 0.0
C1036 C 0.49028 0.86753 0.01781 0.0
C1037 C 0.4665 0.88388 0.03221 0.0
H1038 H 0.52317 0.83203 0.0214 0.0
H1039 H 0.5005 0.87553 -0.00393 0.0
S1040 S 0.42763 0.86306 0.10684 0.0
N1041 N 0.45516 0.83781 0.1032 0.0
N1042 N 0.43019 0.88516 0.07554 0.0
C1043 C 0.45416 0.87221 0.06039 0.0
C1044 C 0.46768 0.84653 0.07537 0.0
C1045 C 0.89224 0.72364 0.79847 0.0
C1046 C 0.90437 0.73499 0.82736 0.0
C1047 C 0.86101 0.71202 0.79567 0.0
C1048 C 0.84102 0.71249 0.82152 0.0
H1049 H 0.90635 0.72556 0.77764 0.0
H1050 H 0.85167 0.70623 0.77249 0.0
S1051 S 0.86284 0.73535 0.90298 0.0
N1052 N 0.89543 0.74183 0.88309 0.0
N1053 N 0.8363 0.72095 0.87739 0.0
C1054 C 0.85377 0.7206 0.85105 0.0
C1055 C 0.88566 0.73182 0.85406 0.0
C1056 C 0.93412 0.04692 0.83744 0.0
C1057 C 0.95172 0.0221 0.82671 0.0
C1058 C 0.9408 0.06189 0.86626 0.0
C1059 C 0.96578 0.05312 0.88499 0.0
H1060 H 0.91343 0.05322 0.82478 0.0
H1061 H 0.92478 0.07856 0.8751 0.0
S1062 S 0.02231 -0.0065 0.86544 0.0
N1063 N -0.00232 -0.00768 0.83538 0.0
N1064 N 0.01054 0.02098 0.88944 0.0
C1065 C 0.98563 0.03083 0.87311 0.0
C1066 C 0.97851 0.01512 0.84396 0.0
C1067 C 0.77393 0.16933 0.61797 0.0
C1068 C 0.76768 0.18534 0.59046 0.0
C1069 C 0.77298 0.18453 0.64704 0.0
C1070 C 0.76642 0.21639 0.64952 0.0
H1071 H 0.77775 0.14445 0.61724 0.0
H1072 H 0.7771 0.17108 0.66778 0.0
S1073 S 0.75206 0.26962 0.58417 0.0
N1074 N 0.75692 0.23524 0.56712 0.0
N1075 N 0.75625 0.26416 0.62208 0.0
C1076 C 0.76211 0.23321 0.62213 0.0
C1077 C 0.76244 0.21755 0.59248 0.0
C1078 C 0.5185 0.96653 0.34955 0.0
C1079 C 0.54873 0.96 0.33973 0.0
C1080 C 0.50795 0.95785 0.37918 0.0
C1081 C 0.52761 0.94294 0.39997 0.0
H1082 H 0.50365 0.98016 0.33509 0.0
H1083 H 0.4857 0.96583 0.38696 0.0
S1084 S 0.60626 0.91537 0.3835 0.0
N1085 N 0.5961 0.93313 0.3513 0.0
N1086 N 0.57646 0.91787 0.40745 0.0
C1087 C 0.55645 0.93339 0.38929 0.0
C1088 C 0.56701 0.94171 0.35897 0.0
C1089 C 0.74855 0.85955 0.14454 0.0
C1090 C 0.74552 0.83858 0.11891 0.0
C1091 C 0.76096 0.85039 0.17298 0.0
C1092 C 0.77043 0.81969 0.17722 0.0
H1093 H 0.7418 0.88351 0.14256 0.0
H1094 H 0.76246 0.86753 0.19201 0.0
S1095 S 0.76703 0.75561 0.11721 0.0
N1096 N 0.75314 0.78581 0.09918 0.0
N1097 N 0.77594 0.76821 0.1531 0.0
C1098 C 0.76779 0.79845 0.15165 0.0
C1099 C 0.75538 0.80796 0.12244 0.0
C1100 C 0.94792 0.97257 0.65483 0.0
C1101 C 0.92063 0.98713 0.66378 0.0
C1102 C 0.95801 0.97293 0.6238 0.0
C1103 C 0.94128 0.98803 0.60062 0.0
H1104 H 0.96189 0.96107 0.67195 0.0
H1105 H 0.97954 0.96207 0.61816 0.0
S1106 S 0.86684 0.02727 0.61099 0.0
N1107 N 0.87599 0.01542 0.64623 0.0
N1108 N 0.89501 0.01606 0.58811 0.0
C1109 C 0.91348 0.00187 0.60899 0.0
C1110 C 0.90315 0.00145 0.6405 0.0
C1111 C 0.6965 0.21666 0.42648 0.0
C1112 C 0.72257 0.19946 0.4337 0.0
C1113 C 0.69581 0.2348 0.39964 0.0
C1114 C 0.7213 0.23683 0.37916 0.0
H1115 H 0.67593 0.21534 0.44107 0.0
H1116 H 0.67463 0.24647 0.39432 0.0
S1117 S 0.79646 0.19882 0.38893 0.0
N1118 N 0.77553 0.1874 0.41938 0.0
N1119 N 0.77423 0.22177 0.36885 0.0
C1120 C 0.74826 0.2212 0.38693 0.0
C1121 C 0.74884 0.20235 0.41417 0.0
C1122 C 0.52729 0.98599 0.17488 0.0
C1123 C 0.55971 0.98144 0.17457 0.0
C1124 C 0.51098 -0.00711 0.14755 0.0
C1125 C 0.52667 -0.00386 0.11908 0.0
H1126 H 0.51454 0.9851 0.19663 0.0
H1127 H 0.48617 -0.00345 0.14887 0.0
S1128 S 0.61045 0.98278 0.10477 0.0
N1129 N 0.60616 0.97787 0.14269 0.0
N1130 N 0.57564 -0.00892 0.09135 0.0
C1131 C 0.55872 0.9902 0.1181 0.0
C1132 C 0.5752 0.98268 0.14582 0.0
C1133 C 0.72192 0.77068 0.9497 0.0
C1134 C 0.70667 0.7984 0.95566 0.0
C1135 C 0.71802 0.75466 0.92109 0.0
C1136 C 0.69865 0.76569 0.89755 0.0
H1137 H 0.73889 0.76264 0.96625 0.0
H1138 H 0.73259 0.73528 0.91624 0.0
S1139 S 0.64882 0.83339 0.90359 0.0
N1140 N 0.66759 0.83332 0.93754 0.0
N1141 N 0.66058 0.80302 0.88338 0.0
C1142 C 0.68039 0.79105 0.90446 0.0
C1143 C 0.68433 0.8075 0.93373 0.0
C1144 C 0.81538 0.96012 0.03406 0.0
C1145 C 0.8062 0.93589 0.01242 0.0
C1146 C 0.84365 0.97809 0.0309 0.0
C1147 C 0.86349 0.97285 0.00571 0.0
H1148 H 0.80103 0.96477 0.05412 0.0
H1149 H 0.85 -0.00383 0.04833 0.0
S1150 S 0.84988 0.9128 0.94216 0.0
N1151 N 0.81891 0.90798 0.96469 0.0
N1152 N 0.87195 0.94188 0.95845 0.0
C1153 C 0.8543 0.9491 0.98352 0.0
C1154 C 0.82569 0.93057 0.98696 0.0
C1155 C 0.34055 0.56145 0.96465 0.0
C1156 C 0.32218 0.54569 0.98731 0.0
C1157 C 0.36872 0.54977 0.95473 0.0
C1158 C 0.37897 0.52161 0.9665 0.0
H1159 H 0.33466 0.5843 0.95652 0.0
H1160 H 0.3839 0.56424 0.93992 0.0
S1161 S 0.33655 0.46834 0.0213 0.0
N1162 N 0.31395 0.49812 0.01762 0.0
N1163 N 0.36684 0.47608 -0.00156 0.0
C1164 C 0.3591 0.50381 0.98622 0.0
C1165 C 0.33067 0.51592 -0.00317 0.0
C1166 C 0.15591 0.59325 0.72861 0.0
C1167 C 0.17383 0.56741 0.7223 0.0
C1168 C 0.16894 0.62388 0.7266 0.0
C1169 C 0.20033 0.6299 0.71812 0.0
H1170 H 0.13181 0.58989 0.7361 0.0
H1171 H 0.15479 0.64304 0.73337 0.0
S1172 S 0.25663 0.57104 0.6964 0.0
N1173 N 0.22408 0.54999 0.70471 0.0
N1174 N 0.24862 0.60821 0.70129 0.0
C1175 C 0.21808 0.60463 0.70975 0.0
C1176 C 0.2048 0.57316 0.71179 0.0
C1177 C 0.15549 0.46673 0.51411 0.0
C1178 C 0.16142 0.43567 0.50581 0.0
C1179 C 0.12903 0.48068 0.50268 0.0
C1180 C 0.10709 0.46403 0.48275 0.0
H1181 H 0.17082 0.48014 0.53044 0.0
H1182 H 0.12486 0.5041 0.51121 0.0
S1183 S 0.11471 0.3838 0.44967 0.0
N1184 N 0.1455 0.39003 0.47307 0.0
N1185 N 0.09548 0.41612 0.45187 0.0
C1186 C 0.11413 0.43384 0.47219 0.0
C1187 C 0.14127 0.41965 0.48374 0.0
C1188 C 0.83725 0.88666 0.79676 0.0
C1189 C 0.82831 0.91093 0.7774 0.0
C1190 C 0.8179 0.85922 0.80005 0.0
C1191 C 0.78919 0.85481 0.78363 0.0
H1192 H 0.85962 0.88861 0.80903 0.0
H1193 H 0.82616 0.84079 0.81454 0.0
S1194 S 0.75395 0.91199 0.73165 0.0
N1195 N 0.78781 0.92951 0.74302 0.0
N1196 N 0.75181 0.87761 0.7489 0.0
C1197 C 0.77945 0.87927 0.76506 0.0
C1198 C 0.7989 0.90743 0.76205 0.0
C1199 C 0.64015 0.07397 0.5452 0.0
C1200 C 0.66844 0.06423 0.53311 0.0
C1201 C 0.61458 0.05236 0.54929 0.0
C1202 C 0.61645 0.02058 0.54082 0.0
H1203 H 0.63742 0.09858 0.55051 0.0
H1204 H 0.59244 0.06103 0.55652 0.0
S1205 S 0.68573 0.98295 0.51014 0.0
N1206 N 0.69766 0.02033 0.51512 0.0
N1207 N 0.64884 0.98001 0.52146 0.0
C1208 C 0.64501 0.01026 0.53032 0.0
C1209 C 0.67128 0.03208 0.52681 0.0
C1210 C 0.22326 0.40649 0.76724 0.0
C1211 C 0.19247 0.41415 0.77411 0.0
C1212 C 0.23784 0.38327 0.78382 0.0
C1213 C 0.22189 0.36654 0.80744 0.0
H1214 H 0.23559 0.4173 0.74782 0.0
H1215 H 0.26031 0.37606 0.7758 0.0
S1216 S 0.14298 0.38063 0.83754 0.0
N1217 N 0.14827 0.40604 0.80908 0.0
N1218 N 0.17535 0.36148 0.83931 0.0
C1219 C 0.19233 0.37589 0.81639 0.0
C1220 C 0.17765 0.39991 0.7999 0.0
C1221 C 0.3415 0.61425 0.27168 0.0
C1222 C 0.31952 0.58926 0.26417 0.0
C1223 C 0.33158 0.64414 0.27962 0.0
C1224 C 0.29943 0.64957 0.28058 0.0
H1225 H 0.36636 0.61128 0.26927 0.0
H1226 H 0.3491 0.66349 0.28256 0.0
S1227 S 0.23316 0.58959 0.2703 0.0
N1228 N 0.26474 0.57036 0.26322 0.0
N1229 N 0.24603 0.62605 0.27896 0.0
C1230 C 0.27751 0.62375 0.27651 0.0
C1231 C 0.28757 0.59368 0.26797 0.0
C1232 C 0.49087 0.63567 0.55054 0.0
C1233 C 0.48885 0.63562 0.58332 0.0
C1234 C 0.4852 0.60809 0.5328 0.0
C1235 C 0.47738 0.5792 0.54703 0.0
H1236 H 0.49752 0.65706 0.53835 0.0
H1237 H 0.4882 0.60937 0.50772 0.0
S1238 S 0.4659 0.5668 0.63199 0.0
N1239 N 0.476 0.60464 0.62926 0.0
N1240 N 0.46545 0.55264 0.59586 0.0
C1241 C 0.47358 0.57904 0.5797 0.0
C1242 C 0.47938 0.60725 0.59784 0.0
C1243 C 0.60998 0.25235 0.79785 0.0
C1244 C 0.60495 0.23347 0.82418 0.0
C1245 C 0.63756 0.25114 0.78065 0.0
C1246 C 0.66038 0.23028 0.7886 0.0
H1247 H 0.59369 0.26985 0.79191 0.0
H1248 H 0.64198 0.26796 0.76227 0.0
S1249 S 0.65642 0.17288 0.85256 0.0
N1250 N 0.62361 0.19119 0.85546 0.0
N1251 N 0.67512 0.1884 0.82239 0.0
C1252 C 0.65443 0.20942 0.81309 0.0
C1253 C 0.62674 0.21114 0.83111 0.0
C1254 C 0.00196 0.35628 0.04447 0.0
C1255 C -0.01 0.35443 0.07497 0.0
C1256 C 0.00459 0.38494 0.02881 0.0
C1257 C -0.00371 0.41283 0.04356 0.0
H1258 H 0.00912 0.33536 0.0325 0.0
H1259 H 0.01352 0.38537 0.00523 0.0
S1260 S 0.96326 0.42064 0.12297 0.0
N1261 N 0.9691 0.38287 0.11898 0.0
N1262 N 0.97485 0.43684 0.08996 0.0
C1263 C 0.98431 0.41131 0.07403 0.0
C1264 C 0.98092 0.38207 0.08964 0.0
C1265 C 0.91092 0.77668 0.35263 0.0
C1266 C 0.93519 0.7805 0.33089 0.0
C1267 C 0.88019 0.78312 0.34467 0.0
C1268 C 0.87266 0.79311 0.31453 0.0
H1269 H 0.91566 0.76872 0.37602 0.0
H1270 H 0.86203 0.77892 0.36184 0.0
S1271 S 0.92789 0.80807 0.24949 0.0
N1272 N 0.94993 0.7962 0.27836 0.0
N1273 N 0.89194 0.80775 0.26326 0.0
C1274 C 0.8968 0.7977 0.29279 0.0
C1275 C 0.92815 0.79152 0.30099 0.0
C1276 C 0.49673 0.35388 0.92054 0.0
C1277 C 0.5223 0.33793 0.93175 0.0
C1278 C 0.48661 0.38025 0.93615 0.0
C1279 C 0.50172 0.39208 0.96359 0.0
H1280 H 0.48413 0.3459 0.89948 0.0
H1281 H 0.46712 0.39185 0.92613 0.0
S1282 S 0.56974 0.35878 0.00306 0.0
N1283 N 0.5622 0.33535 0.97242 0.0
N1284 N 0.54349 0.38555 0.00173 0.0
C1285 C 0.52698 0.37603 0.97558 0.0
C1286 C 0.53723 0.34888 0.95964 0.0
C1287 C 0.85384 0.25728 0.18768 0.0
C1288 C 0.87975 0.25216 0.20695 0.0
C1289 C 0.82346 0.25602 0.1997 0.0
C1290 C 0.81812 0.2505 0.23156 0.0
H1291 H 0.85695 0.26146 0.16297 0.0
H1292 H 0.80406 0.25993 0.18403 0.0
S1293 S 0.87825 0.23677 0.29194 0.0
N1294 N 0.89829 0.24147 0.25938 0.0
N1295 N 0.84115 0.24057 0.28228 0.0
C1296 C 0.84388 0.24603 0.25122 0.0
C1297 C 0.87474 0.24644 0.23881 0.0
C1298 C 0.00028 0.65558 0.44922 0.0
C1299 C 0.02991 0.67138 0.45297 0.0
C1300 C -0.0061 0.62592 0.46173 0.0
C1301 C 0.01701 0.61059 0.47828 0.0
H1302 H 0.98196 0.66583 0.43583 0.0
H1303 H 0.97088 0.6145 0.45731 0.0
S1304 S 0.09762 0.64334 0.49729 0.0
N1305 N 0.08197 0.67084 0.47662 0.0
N1306 N 0.07004 0.61464 0.49994 0.0
C1307 C 0.04626 0.62686 0.48377 0.0
C1308 C 0.05272 0.65734 0.47112 0.0
C1309 C 0.58034 0.74736 0.71926 0.0
C1310 C 0.58302 0.74995 0.68666 0.0
C1311 C 0.60535 0.75659 0.73927 0.0
C1312 C 0.63418 0.76867 0.72754 0.0
H1313 H 0.55913 0.73704 0.72953 0.0
H1314 H 0.60254 0.75245 0.76401 0.0
S1315 S 0.65141 0.78564 0.64435 0.0
N1316 N 0.61527 0.76954 0.64378 0.0
N1317 N 0.66253 0.78679 0.68142 0.0
C1318 C 0.63632 0.77396 0.69518 0.0
C1319 C 0.61075 0.76446 0.67472 0.0
C1320 C 0.5297 0.45719 0.65305 0.0
C1321 C 0.5608 0.449 0.65755 0.0
C1322 C 0.51468 0.45262 0.62403 0.0
C1323 C 0.53029 0.4397 0.59858 0.0
H1324 H 0.51768 0.46955 0.6712 0.0
H1325 H 0.49186 0.46192 0.62093 0.0
S1326 S 0.60802 0.4055 0.60123 0.0
N1327 N 0.60393 0.42099 0.63645 0.0
N1328 N 0.57558 0.41211 0.58181 0.0
C1329 C 0.55963 0.42743 0.60408 0.0
C1330 C 0.57499 0.43225 0.6336 0.0
C1331 C 0.75844 0.29426 0.92437 0.0
C1332 C 0.78592 0.30152 0.9418 0.0
C1333 C 0.75979 0.28356 0.89358 0.0
C1334 C 0.78871 0.28009 0.87885 0.0
H1335 H 0.73566 0.29775 0.93429 0.0
H1336 H 0.73784 0.27901 0.88091 0.0
S1337 S 0.86751 0.29386 0.91533 0.0
N1338 N 0.84295 0.3026 0.94324 0.0
N1339 N 0.84548 0.28269 0.88467 0.0
C1340 C 0.81642 0.28553 0.89654 0.0
C1341 C 0.81503 0.29628 0.92823 0.0
C1342 C 0.92993 0.51086 0.15215 0.0
C1343 C 0.89909 0.52023 0.15519 0.0
C1344 C 0.94741 0.51764 0.1254 0.0
C1345 C 0.93475 0.53396 0.10043 0.0
H1346 H 0.94073 0.49782 0.17043 0.0
H1347 H 0.97063 0.50894 0.12392 0.0
S1348 S 0.85579 0.56565 0.09736 0.0
N1349 N 0.85715 0.54816 0.1314 0.0
N1350 N 0.89003 0.56086 0.0811 0.0
C1351 C 0.90428 0.54435 0.10349 0.0
C1352 C 0.88645 0.53747 0.13081 0.0
C1353 C 0.73614 0.68474 0.41875 0.0
C1354 C 0.73445 0.70111 0.44733 0.0
C1355 C 0.73413 0.70041 0.39042 0.0
C1356 C 0.73122 0.73305 0.38985 0.0
H1357 H 0.73872 0.65961 0.41827 0.0
H1358 H 0.73612 0.68706 0.36883 0.0
S1359 S 0.72576 0.78651 0.4584 0.0
N1360 N 0.72884 0.75143 0.47355 0.0
N1361 N 0.72662 0.78121 0.4201 0.0
C1362 C 0.72948 0.74968 0.41827 0.0
C1363 C 0.73065 0.73358 0.44711 0.0
C1364 C 0.56781 0.51229 0.84724 0.0
C1365 C 0.54728 0.50868 0.82142 0.0
C1366 C 0.5566 0.51895 0.877 0.0
C1367 C 0.5244 0.52157 0.882 0.0
H1368 H 0.59275 0.51007 0.84445 0.0
H1369 H 0.57313 0.52054 0.89643 0.0
S1370 S 0.46114 0.51514 0.82192 0.0
N1371 N 0.49349 0.50949 0.80238 0.0
N1372 N 0.47225 0.521 0.85875 0.0
C1373 C 0.50369 0.51857 0.85631 0.0
C1374 C 0.51518 0.51238 0.82587 0.0
C1375 C 0.73411 0.29281 0.10325 0.0
C1376 C 0.72177 0.32083 0.0932 0.0
C1377 C 0.72318 0.27797 0.13022 0.0
C1378 C 0.69968 0.29076 0.14827 0.0
H1379 H 0.75327 0.28284 0.09097 0.0
H1380 H 0.73485 0.25765 0.1381 0.0
S1381 S 0.65553 0.36022 0.12916 0.0
N1382 N 0.68158 0.35823 0.10113 0.0
N1383 N 0.6613 0.33033 0.15207 0.0
C1384 C 0.68529 0.31717 0.13713 0.0
C1385 C 0.69629 0.33225 0.10954 0.0
C1386 C 0.9366 0.51313 0.33705 0.0
C1387 C 0.93211 0.48577 0.3185 0.0
C1388 C 0.95137 0.51257 0.36622 0.0
C1389 C 0.9621 0.48456 0.37827 0.0
H1390 H 0.92781 0.53507 0.32946 0.0
H1391 H 0.9534 0.53425 0.37988 0.0
S1392 S 0.95884 0.40698 0.33755 0.0
N1393 N 0.94186 0.43025 0.31296 0.0
N1394 N 0.96948 0.42925 0.36827 0.0
C1395 C 0.95951 0.45737 0.35921 0.0
C1396 C 0.9445 0.45795 0.32923 0.0
C1397 C 0.78125 0.67209 0.64029 0.0
C1398 C 0.76571 0.68439 0.61458 0.0
C1399 C 0.78267 0.68784 0.66916 0.0
C1400 C 0.76843 0.71644 0.67359 0.0
H1401 H 0.79113 0.64935 0.63861 0.0
H1402 H 0.79341 0.67646 0.68863 0.0
S1403 S 0.73005 0.76161 0.61223 0.0
N1404 N 0.73988 0.72925 0.59414 0.0
N1405 N 0.74227 0.75871 0.64872 0.0
C1406 C 0.75552 0.73057 0.64737 0.0
C1407 C 0.75417 0.71453 0.61779 0.0
C1408 C 0.66117 0.54226 0.5188 0.0
C1409 C 0.66186 0.5753 0.51911 0.0
C1410 C 0.63465 0.52407 0.50816 0.0
C1411 C 0.60775 0.53818 0.49742 0.0
H1412 H 0.68139 0.53026 0.52653 0.0
H1413 H 0.6352 0.49872 0.50873 0.0
S1414 S 0.59723 0.62406 0.49443 0.0
N1415 N 0.63308 0.62149 0.50839 0.0
N1416 N 0.58336 0.58748 0.48827 0.0
C1417 C 0.60817 0.5713 0.49754 0.0
C1418 C 0.63514 0.58978 0.50848 0.0
C1419 C 0.1505 0.98548 0.53442 0.0
C1420 C 0.15623 0.95421 0.52634 0.0
C1421 C 0.12068 -0.00313 0.53016 0.0
C1422 C 0.0956 0.97696 0.51878 0.0
H1423 H 0.16921 0.00124 0.54396 0.0
H1424 H 0.11707 0.0211 0.53637 0.0
S1425 S 0.09836 0.89346 0.49385 0.0
N1426 N 0.1345 0.90389 0.50566 0.0
N1427 N 0.0783 0.92499 0.4987 0.0
C1428 C 0.10103 0.94575 0.51055 0.0
C1429 C 0.13144 0.93443 0.51406 0.0
C1430 C 0.31667 0.89695 0.77526 0.0
C1431 C 0.30421 0.91737 0.75348 0.0
C1432 C 0.30185 0.86758 0.78116 0.0
C1433 C 0.27385 0.85739 0.76564 0.0
H1434 H 0.33862 0.90324 0.78737 0.0
H1435 H 0.31309 0.8523 0.7972 0.0
S1436 S 0.22988 0.903 0.70843 0.0
N1437 N 0.26097 0.92627 0.71796 0.0
N1438 N 0.2329 0.87093 0.72902 0.0
C1439 C 0.26005 0.87827 0.74512 0.0
C1440 C 0.2753 0.90826 0.73902 0.0
C1441 C 0.32726 0.04369 0.07559 0.0
C1442 C 0.30992 0.05719 0.05168 0.0
C1443 C 0.35513 0.0292 0.06905 0.0
C1444 C 0.36636 0.02763 0.03836 0.0
H1445 H 0.32006 0.04559 0.0997 0.0
H1446 H 0.36869 0.02064 0.08829 0.0
S1447 S 0.32638 0.05425 0.96685 0.0
N1448 N 0.30382 0.06455 -0.00417 0.0
N1449 N 0.35565 0.03696 0.98336 0.0
C1450 C 0.34789 0.03898 0.01404 0.0
C1451 C 0.31983 0.05391 0.02074 0.0
C1452 C 0.68242 0.58042 0.75498 0.0
C1453 C 0.6505 0.57797 0.74629 0.0
C1454 C 0.69625 0.60805 0.76836 0.0
C1455 C 0.67881 0.63447 0.77365 0.0
H1456 H 0.69696 0.56074 0.75174 0.0
H1457 H 0.72103 0.60883 0.7742 0.0
S1458 S 0.59453 0.64082 0.75444 0.0
N1459 N 0.60177 0.60466 0.74366 0.0
N1460 N 0.62798 0.65677 0.76871 0.0
C1461 C 0.64681 0.63243 0.76528 0.0
C1462 C 0.63266 0.60422 0.75151 0.0
C1463 C 0.82595 0.46541 -0.00331 0.0
C1464 C 0.82449 0.43291 -0.00912 0.0
C1465 C 0.85132 0.48456 0.98602 0.0
C1466 C 0.87579 0.47169 0.96909 0.0
H1467 H 0.80862 0.4757 0.0113 0.0
H1468 H 0.85294 0.50906 -0.00664 0.0
S1469 S 0.87721 0.38911 0.94039 0.0
N1470 N 0.84554 0.38957 0.96208 0.0
N1471 N 0.89291 0.42551 0.94138 0.0
C1472 C 0.87215 0.43984 0.9598 0.0
C1473 C 0.84663 0.42038 0.97104 0.0
C1474 C 0.27371 0.09442 0.73611 0.0
C1475 C 0.30533 0.08817 0.74076 0.0
C1476 C 0.26333 0.12444 0.74207 0.0
C1477 C 0.28449 0.1493 0.75178 0.0
H1478 H 0.25684 0.07594 0.72803 0.0
H1479 H 0.23875 0.12837 0.73853 0.0
S1480 S 0.36959 0.14518 0.76743 0.0
N1481 N 0.35755 0.10911 0.75626 0.0
N1482 N 0.33821 0.16587 0.76631 0.0
C1483 C 0.31614 0.14342 0.75641 0.0
C1484 C 0.32654 0.11271 0.75121 0.0
C1485 C 0.19807 0.91184 0.23999 0.0
C1486 C 0.19581 0.92342 0.20964 0.0
C1487 C 0.21497 0.88567 0.24619 0.0
C1488 C 0.23013 0.86952 0.22227 0.0
H1489 H 0.18623 0.92275 0.2592 0.0
H1490 H 0.21526 0.8775 0.27002 0.0
S1491 S 0.23339 0.89179 0.13894 0.0
N1492 N 0.21191 0.9182 0.1555 0.0
N1493 N 0.2434 0.86833 0.16719 0.0
C1494 C 0.22938 0.88169 0.19197 0.0
C1495 C 0.21224 0.90875 0.18564 0.0
C1496 C 0.52076 0.31653 0.45628 0.0
C1497 C 0.51817 0.30978 0.42404 0.0
C1498 C 0.52827 0.34721 0.46725 0.0
C1499 C 0.53295 0.3719 0.44624 0.0
H1500 H 0.51515 0.2984 0.47312 0.0
H1501 H 0.5274 0.35208 0.49215 0.0
S1502 S 0.533 0.36618 0.35995 0.0
N1503 N 0.52467 0.32985 0.37139 0.0
N1504 N 0.53784 0.38765 0.39231 0.0
C1505 C 0.5331 0.36512 0.41416 0.0
C1506 C 0.52594 0.33391 0.40294 0.0
C1507 C 0.41846 0.78962 0.18514 0.0
C1508 C 0.43854 0.7677 0.19701 0.0
C1509 C 0.3908 0.79613 0.20058 0.0
C1510 C 0.38231 0.7812 0.22865 0.0
H1511 H 0.42324 0.80062 0.16291 0.0
H1512 H 0.37515 0.81171 0.18948 0.0
S1513 S 0.43017 0.72627 0.27229 0.0
N1514 N 0.4504 0.73426 0.24047 0.0
N1515 N 0.3987 0.74664 0.26974 0.0
C1516 C 0.40373 0.76138 0.24216 0.0
C1517 C 0.43171 0.75449 0.22621 0.0
C1518 C 0.0022 0.68568 0.96354 0.0
C1519 C 0.97734 0.69873 0.94766 0.0
C1520 C -0.00068 0.65475 0.97386 0.0
C1521 C 0.97132 0.636 0.96924 0.0
H1522 H 0.02483 0.69849 0.96596 0.0
H1523 H 0.01972 0.64491 0.9842 0.0
S1524 S 0.89764 0.66076 0.9339 0.0
N1525 N 0.92252 0.69185 0.93131 0.0
N1526 N 0.91713 0.63365 0.9514 0.0
C1527 C 0.94535 0.64962 0.95619 0.0
C1528 C 0.94837 0.68106 0.9452 0.0
C1529 C 0.09771 0.22801 0.70981 0.0
C1530 C 0.10236 0.24057 0.67977 0.0
C1531 C 0.12298 0.22535 0.73067 0.0
C1532 C 0.15356 0.23492 0.72189 0.0
H1533 H 0.07427 0.22137 0.71772 0.0
H1534 H 0.11837 0.21753 0.75422 0.0
S1535 S 0.17898 0.26451 0.64451 0.0
N1536 N 0.14046 0.25927 0.64138 0.0
N1537 N 0.18775 0.25392 0.6803 0.0
C1538 C 0.15872 0.2454 0.69126 0.0
C1539 C 0.13316 0.2484 0.67027 0.0
C1540 C 0.49074 0.65565 0.07377 0.0
C1541 C 0.51713 0.67656 0.07101 0.0
C1542 C 0.48817 0.62744 0.05687 0.0
C1543 C 0.51201 0.61861 0.03656 0.0
H1544 H 0.47175 0.66105 0.08913 0.0
H1545 H 0.46719 0.61232 0.06024 0.0
S1546 S 0.58615 0.66531 0.0209 0.0
N1547 N 0.56774 0.68698 0.04627 0.0
N1548 N 0.5629 0.63338 0.01446 0.0
C1549 C 0.53854 0.63941 0.03331 0.0
C1550 C 0.54109 0.6685 0.0505 0.0
C1551 C 0.08102 0.77053 0.79586 0.0
C1552 C 0.07114 0.75383 0.82239 0.0
C1553 C 0.111 0.76801 0.78404 0.0
C1554 C 0.13213 0.74843 0.79808 0.0
H1555 H 0.06585 0.78645 0.78459 0.0
H1556 H 0.11761 0.78165 0.76375 0.0
S1557 S 0.11679 0.69795 0.86683 0.0
N1558 N 0.08406 0.71586 0.86155 0.0
N1559 N 0.14067 0.71088 0.83916 0.0
C1560 C 0.12223 0.73078 0.82408 0.0
C1561 C 0.09168 0.73356 0.83629 0.0
C1562 C 0.98499 0.34305 0.56713 0.0
C1563 C 0.00949 0.32625 0.55498 0.0
C1564 C 0.97247 0.36731 0.55026 0.0
C1565 C 0.98384 0.37554 0.52048 0.0
H1566 H 0.97647 0.33851 0.59048 0.0
H1567 H 0.95517 0.38097 0.56159 0.0
S1568 S 0.04279 0.33344 0.47554 0.0
N1569 N 0.04113 0.31584 0.50957 0.0
N1570 N 0.0174 0.36099 0.47757 0.0
C1571 C 0.00611 0.35662 0.50686 0.0
C1572 C 0.01912 0.33222 0.52424 0.0
C1573 C 0.36773 0.24852 0.36559 0.0
C1574 C 0.38105 0.22012 0.35795 0.0
C1575 C 0.33648 0.25314 0.35776 0.0
C1576 C 0.31759 0.22942 0.34218 0.0
H1577 H 0.38198 0.26796 0.376 0.0
H1578 H 0.32775 0.27607 0.36228 0.0
S1579 S 0.33972 0.14844 0.32347 0.0
N1580 N 0.3719 0.16639 0.33851 0.0
N1581 N 0.31306 0.17481 0.32412 0.0
C1582 C 0.32991 0.19994 0.33711 0.0
C1583 C 0.36171 0.19536 0.34487 0.0
C1584 C 0.47142 0.48889 0.3251 0.0
C1585 C 0.44739 0.50908 0.31897 0.0
C1586 C 0.48689 0.48983 0.35396 0.0
C1587 C 0.47914 0.51122 0.37744 0.0
H1588 H 0.47666 0.47056 0.30849 0.0
H1589 H 0.50318 0.47199 0.35883 0.0
S1590 S 0.42289 0.57338 0.37096 0.0
N1591 N 0.42021 0.55447 0.33693 0.0
N1592 N 0.44974 0.55616 0.39144 0.0
C1593 C 0.45808 0.53407 0.37041 0.0
C1594 C 0.44205 0.53302 0.34097 0.0
C1595 C 0.26886 0.65852 0.12042 0.0
C1596 C 0.27424 0.67277 0.09148 0.0
C1597 C 0.26422 0.67654 0.14726 0.0
C1598 C 0.26522 0.70959 0.14642 0.0
H1599 H 0.26677 0.63316 0.12222 0.0
H1600 H 0.2598 0.66429 0.1689 0.0
S1601 S 0.2816 0.75855 0.07702 0.0
N1602 N 0.28236 0.722 0.06378 0.0
N1603 N 0.27416 0.75599 0.1147 0.0
C1604 C 0.27207 0.72428 0.11797 0.0
C1605 C 0.27647 0.70585 0.09041 0.0
C1606 C 0.04114 0.51638 0.83315 0.0
C1607 C 0.05873 0.49044 0.82605 0.0
C1608 C 0.02525 0.51849 0.86134 0.0
C1609 C 0.02584 0.49455 0.88342 0.0
H1610 H 0.04034 0.53582 0.81725 0.0
H1611 H 0.01292 0.53945 0.86617 0.0
S1612 S 0.06651 0.42061 0.87549 0.0
N1613 N 0.07455 0.43946 0.84285 0.0
N1614 N 0.04411 0.44335 0.89594 0.0
C1615 C 0.04211 0.46778 0.8762 0.0
C1616 C 0.05877 0.46578 0.84752 0.0
C1617 C 0.24234 0.35268 0.64589 0.0
C1618 C 0.24695 0.33423 0.61895 0.0
C1619 C 0.24978 0.34203 0.67568 0.0
C1620 C 0.26229 0.31259 0.67981 0.0
H1621 H 0.23289 0.37554 0.64405 0.0
H1622 H 0.24523 0.35692 0.6957 0.0
S1623 S 0.27881 0.25502 0.61691 0.0
N1624 N 0.26485 0.28485 0.59843 0.0
N1625 N 0.27895 0.26508 0.65428 0.0
C1626 C 0.26741 0.29404 0.65305 0.0
C1627 C 0.25961 0.30475 0.62272 0.0
C1628 C 0.39375 0.50063 0.12913 0.0
C1629 C 0.40753 0.48909 0.15619 0.0
C1630 C 0.40872 0.49938 0.10038 0.0
C1631 C 0.4382 0.48664 0.09746 0.0
H1632 H 0.37144 0.51132 0.13016 0.0
H1633 H 0.39735 0.50931 0.08042 0.0
S1634 S 0.48324 0.45075 0.16065 0.0
N1635 N 0.4515 0.4624 0.17787 0.0
N1636 N 0.47973 0.46035 0.12364 0.0
C1637 C 0.45163 0.47361 0.12396 0.0
C1638 C 0.43632 0.47483 0.15337 0.0
C1639 C 0.26772 0.71007 0.91577 0.0
C1640 C 0.27072 0.67779 0.92049 0.0
C1641 C 0.27023 0.72278 0.88587 0.0
C1642 C 0.2752 0.70342 0.85981 0.0
H1643 H 0.2621 0.72537 0.9351 0.0
H1644 H 0.26583 0.74731 0.88283 0.0
S1645 S 0.28773 0.61826 0.85989 0.0
N1646 N 0.28195 0.62745 0.89693 0.0
N1647 N 0.28555 0.65127 0.84057 0.0
C1648 C 0.28014 0.6716 0.86441 0.0
C1649 C 0.27823 0.65878 0.89487 0.0
C1650 C 0.0846 0.47038 0.63049 0.0
C1651 C 0.06955 0.46469 0.65901 0.0
C1652 C 0.0679 0.47979 0.60441 0.0
C1653 C 0.03538 0.48332 0.60561 0.0
H1654 H 0.10979 0.46939 0.62869 0.0
H1655 H 0.08072 0.48437 0.58309 0.0
S1656 S 0.98436 0.4677 0.67374 0.0
N1657 N 0.01994 0.46107 0.68648 0.0
N1658 N 0.98827 0.47773 0.63681 0.0
C1659 C 0.01967 0.47587 0.6334 0.0
C1660 C 0.03683 0.46681 0.66024 0.0
C1661 C 0.17459 0.30852 0.4389 0.0
C1662 C 0.19511 0.29258 0.45808 0.0
C1663 C 0.16572 0.29655 0.40923 0.0
C1664 C 0.17657 0.26806 0.39824 0.0
H1665 H 0.16815 0.33193 0.44523 0.0
H1666 H 0.15353 0.31141 0.3935 0.0
S1667 S 0.22349 0.21349 0.44256 0.0
N1668 N 0.22063 0.24396 0.46648 0.0
N1669 N 0.20351 0.22143 0.4107 0.0
C1670 C 0.19297 0.24978 0.41896 0.0
C1671 C 0.20247 0.26212 0.44897 0.0
C1672 C 0.33498 0.43627 0.51926 0.0
C1673 C 0.32236 0.4105 0.50122 0.0
C1674 C 0.36598 0.44786 0.51577 0.0
C1675 C 0.38562 0.43447 0.49382 0.0
H1676 H 0.32122 0.447 0.53715 0.0
H1677 H 0.3747 0.46724 0.5308 0.0
S1678 S 0.36318 0.36858 0.43853 0.0
N1679 N 0.33125 0.37325 0.45904 0.0
N1680 N 0.3897 0.39535 0.45216 0.0
C1681 C 0.37296 0.40966 0.47448 0.0
C1682 C 0.34131 0.39758 0.47829 0.0
C1683 C 0.82258 0.03146 0.48487 0.0
C1684 C 0.81989 0.06297 0.47655 0.0
C1685 C 0.84816 0.01495 0.47526 0.0
C1686 C 0.87203 0.02959 0.45742 0.0
H1687 H 0.80601 0.02023 0.50081 0.0
H1688 H 0.85113 -0.008 0.48498 0.0
S1689 S 0.87355 0.10988 0.42558 0.0
N1690 N 0.8408 0.10663 0.44576 0.0
N1691 N 0.8896 0.07578 0.42856 0.0
C1692 C 0.86789 0.05982 0.44618 0.0
C1693 C 0.84158 0.07656 0.4556 0.0
C1694 C 0.6366 0.10651 0.2792 0.0
C1695 C 0.65072 0.08369 0.26108 0.0
C1696 C 0.64704 0.13812 0.27809 0.0
C1697 C 0.672 0.14832 0.25876 0.0
H1698 H 0.61699 0.10009 0.2941 0.0
H1699 H 0.63501 0.15474 0.2923 0.0
S1700 S 0.71813 0.09785 0.20775 0.0
N1701 N 0.69189 0.07332 0.22391 0.0
N1702 N 0.71139 0.13299 0.22192 0.0
C1703 C 0.68675 0.12577 0.24086 0.0
C1704 C 0.67619 0.09341 0.24206 0.0
C1705 C 0.64035 0.96781 0.02274 0.0
C1706 C 0.64453 0.93616 0.01529 0.0
C1707 C 0.61395 0.98244 0.01236 0.0
C1708 C 0.59022 0.96589 -0.0055 0.0
H1709 H 0.6573 0.98133 0.03737 0.0
H1710 H 0.6114 0.00648 0.02003 0.0
S1711 S 0.59199 0.8834 0.96537 0.0
N1712 N 0.62461 0.88948 0.98622 0.0
N1713 N 0.57439 0.91676 0.96707 0.0
C1714 C 0.59515 0.93474 0.98507 0.0
C1715 C 0.62238 0.91991 -0.00455 0.0
C1716 C 0.2773 0.4166 0.24805 0.0
C1717 C 0.30222 0.42615 0.26847 0.0
C1718 C 0.25855 0.38915 0.2533 0.0
C1719 C 0.26376 0.37049 0.27941 0.0
H1720 H 0.27307 0.42964 0.22707 0.0
H1721 H 0.24041 0.38209 0.23628 0.0
S1722 S 0.32375 0.3877 0.34206 0.0
N1723 N 0.3295 0.41657 0.31717 0.0
N1724 N 0.29414 0.36518 0.32745 0.0
C1725 C 0.28749 0.3809 0.30105 0.0
C1726 C 0.30679 0.40865 0.29545 0.0
C1727 C 0.15232 0.55371 0.02872 0.0
C1728 C 0.16145 0.58319 0.01602 0.0
C1729 C 0.12067 0.54296 0.02979 0.0
C1730 C 0.09731 0.56133 0.01807 0.0
H1731 H 0.16973 0.53847 0.03727 0.0
H1732 H 0.1146 0.51965 0.03844 0.0
S1733 S 0.10796 0.64152 0.98608 0.0
N1734 N 0.14383 0.6316 -0.00583 0.0
N1735 N 0.08459 0.61117 -0.00391 0.0
C1736 C 0.10587 0.59133 0.00674 0.0
C1737 C 0.1379 0.60232 0.00569 0.0
C1738 C 0.67623 0.9129 0.31134 0.0
C1739 C 0.68926 0.93364 0.28904 0.0
C1740 C 0.69413 0.89004 0.3247 0.0
C1741 C 0.72563 0.88756 0.31649 0.0
H1742 H 0.65141 0.91237 0.31633 0.0
H1743 H 0.68223 0.87182 0.33835 0.0
S1744 S 0.77261 0.94135 0.2657 0.0
N1745 N 0.73695 0.95414 0.2641 0.0
N1746 N 0.77055 0.91135 0.28966 0.0
C1747 C 0.73993 0.91109 0.29795 0.0
C1748 C 0.72166 0.93393 0.2838 0.0
C1749 C 0.80143 0.08925 0.75704 0.0
C1750 C 0.83077 0.08206 0.76909 0.0
C1751 C 0.79014 0.119 0.76158 0.0
C1752 C 0.80785 0.14299 0.77813 0.0
H1753 H 0.78729 0.07202 0.74327 0.0
H1754 H 0.76785 0.12347 0.7508 0.0
S1755 S 0.88479 0.13508 0.81744 0.0
N1756 N 0.87626 0.10042 0.80064 0.0
N1757 N 0.85511 0.15656 0.80902 0.0
C1758 C 0.83652 0.13561 0.79179 0.0
C1759 C 0.84797 0.10512 0.7873 0.0
loop_
_geom_bond_atom_site_label_1
_geom_bond_atom_site_label_2
_geom_bond_distance
_geom_bond_site_symmetry_2
_ccdc_geom_bond_type
O0 Cd1 2.223 . S
O0 C8 1.315 . S
Cd1 O0 2.223 . S
Cd1 O4 2.297 1_455 S
Cd1 O5 2.439 1_455 S
Cd1 O11 2.240 . S
Cd2 O3 2.240 . S
Cd2 O10 2.223 . S
Cd2 O12 2.297 . S
Cd2 O13 2.439 . S
O3 Cd2 2.240 . S
O3 C8 1.279 . S
O4 Cd1 2.297 1_655 S
O4 C6 1.247 . S
O5 Cd1 2.439 1_655 S
O5 C6 1.208 . S
C6 O4 1.247 . S
C6 O5 1.208 . S
C7 O12 1.247 . S
C7 O13 1.208 . S
C8 O0 1.315 . S
C8 O3 1.279 . S
C9 O10 1.315 . S
C9 O11 1.279 . S
O10 Cd2 2.223 . S
O10 C9 1.315 . S
O11 Cd1 2.240 . S
O11 C9 1.279 . S
O12 Cd2 2.297 . S
O12 C7 1.247 . S
O13 Cd2 2.439 . S
O13 C7 1.208 . S
O14 Cd15 2.223 . S
O14 C22 1.315 . S
Cd15 O14 2.223 . S
Cd15 O18 2.297 . S
Cd15 O19 2.439 1_455 S
Cd15 O25 2.240 1_455 S
Cd16 O17 2.240 1_655 S
Cd16 O24 2.223 1_655 S
Cd16 O26 2.297 . S
Cd16 O27 2.439 . S
O17 Cd16 2.240 1_455 S
O17 C22 1.279 . S
O18 Cd15 2.297 . S
O18 C20 1.247 . S
O19 Cd15 2.439 1_655 S
O19 C20 1.208 1_655 S
C20 O18 1.247 . S
C20 O19 1.208 1_455 S
C21 O26 1.247 . S
C21 O27 1.208 . S
C22 O14 1.315 . S
C22 O17 1.279 . S
C23 O24 1.315 . S
C23 O25 1.279 1_455 S
O24 Cd16 2.223 1_455 S
O24 C23 1.315 . S
O25 Cd15 2.240 1_655 S
O25 C23 1.279 1_655 S
O26 Cd16 2.297 . S
O26 C21 1.247 . S
O27 Cd16 2.439 . S
O27 C21 1.208 . S
O28 Cd29 2.223 . S
O28 C36 1.315 . S
Cd29 O28 2.223 . S
Cd29 O32 2.297 . S
Cd29 O33 2.439 . S
Cd29 O39 2.240 . S
Cd30 O31 2.240 . S
Cd30 O38 2.223 . S
Cd30 O40 2.297 . S
Cd30 O41 2.439 . S
O31 Cd30 2.240 . S
O31 C36 1.279 . S
O32 Cd29 2.297 . S
O32 C34 1.247 . S
O33 Cd29 2.439 . S
O33 C34 1.208 . S
C34 O32 1.247 . S
C34 O33 1.208 . S
C35 O40 1.247 . S
C35 O41 1.208 . S
C36 O28 1.315 . S
C36 O31 1.279 . S
C37 O38 1.315 . S
C37 O39 1.279 . S
O38 Cd30 2.223 . S
O38 C37 1.315 . S
O39 Cd29 2.240 . S
O39 C37 1.279 . S
O40 Cd30 2.297 . S
O40 C35 1.247 . S
O41 Cd30 2.439 . S
O41 C35 1.208 . S
O42 Cd43 2.223 . S
O42 C50 1.315 . S
Cd43 O42 2.223 . S
Cd43 O46 2.297 . S
Cd43 O47 2.439 . S
Cd43 O53 2.240 . S
Cd44 O45 2.240 . S
Cd44 O52 2.223 . S
Cd44 O54 2.297 . S
Cd44 O55 2.439 . S
O45 Cd44 2.240 . S
O45 C50 1.279 . S
O46 Cd43 2.297 . S
O46 C48 1.247 . S
O47 Cd43 2.439 . S
O47 C48 1.208 . S
C48 O46 1.247 . S
C48 O47 1.208 . S
C49 O54 1.247 . S
C49 O55 1.208 . S
C50 O42 1.315 . S
C50 O45 1.279 . S
C51 O52 1.315 . S
C51 O53 1.279 . S
O52 Cd44 2.223 . S
O52 C51 1.315 . S
O53 Cd43 2.240 . S
O53 C51 1.279 . S
O54 Cd44 2.297 . S
O54 C49 1.247 . S
O55 Cd44 2.439 . S
O55 C49 1.208 . S
O56 Cd57 2.223 . S
O56 C64 1.315 . S
Cd57 O56 2.223 . S
Cd57 O60 2.297 1_545 S
Cd57 O61 2.439 1_545 S
Cd57 O67 2.240 . S
Cd58 O59 2.240 . S
Cd58 O66 2.223 . S
Cd58 O68 2.297 . S
Cd58 O69 2.439 . S
O59 Cd58 2.240 . S
O59 C64 1.279 . S
O60 Cd57 2.297 1_565 S
O60 C62 1.247 . S
O61 Cd57 2.439 1_565 S
O61 C62 1.208 . S
C62 O60 1.247 . S
C62 O61 1.208 . S
C63 O68 1.247 . S
C63 O69 1.208 . S
C64 O56 1.315 . S
C64 O59 1.279 . S
C65 O66 1.315 . S
C65 O67 1.279 . S
O66 Cd58 2.223 . S
O66 C65 1.315 . S
O67 Cd57 2.240 . S
O67 C65 1.279 . S
O68 Cd58 2.297 . S
O68 C63 1.247 . S
O69 Cd58 2.439 . S
O69 C63 1.208 . S
O70 Cd71 2.223 . S
O70 C78 1.315 . S
Cd71 O70 2.223 . S
Cd71 O74 2.297 . S
Cd71 O75 2.439 . S
Cd71 O81 2.240 . S
Cd72 O73 2.240 . S
Cd72 O80 2.223 . S
Cd72 O82 2.297 . S
Cd72 O83 2.439 . S
O73 Cd72 2.240 . S
O73 C78 1.279 . S
O74 Cd71 2.297 . S
O74 C76 1.247 . S
O75 Cd71 2.439 . S
O75 C76 1.208 . S
C76 O74 1.247 . S
C76 O75 1.208 . S
C77 O82 1.247 . S
C77 O83 1.208 . S
C78 O70 1.315 . S
C78 O73 1.279 . S
C79 O80 1.315 . S
C79 O81 1.279 . S
O80 Cd72 2.223 . S
O80 C79 1.315 . S
O81 Cd71 2.240 . S
O81 C79 1.279 . S
O82 Cd72 2.297 . S
O82 C77 1.247 . S
O83 Cd72 2.439 . S
O83 C77 1.208 . S
O84 Cd85 2.216 1_565 S
O84 C92 1.314 1_565 S
Cd85 O84 2.216 1_545 S
Cd85 O88 2.297 . S
Cd85 O89 2.439 . S
Cd85 O95 2.240 1_545 S
Cd86 O87 2.240 1_565 S
Cd86 O94 2.223 . S
Cd86 O96 2.297 . S
Cd86 O97 2.439 1_565 S
O87 Cd86 2.240 1_545 S
O87 C92 1.279 . S
O88 Cd85 2.297 . S
O88 C90 1.247 . S
O89 Cd85 2.439 . S
O89 C90 1.208 . S
C90 O88 1.247 . S
C90 O89 1.208 . S
C91 O96 1.247 . S
C91 O97 1.208 1_565 S
C92 O84 1.314 1_545 S
C92 O87 1.279 . S
C93 O94 1.315 . S
C93 O95 1.279 . S
O94 Cd86 2.223 . S
O94 C93 1.315 . S
O95 Cd85 2.240 1_565 S
O95 C93 1.279 . S
O96 Cd86 2.297 . S
O96 C91 1.247 . S
O97 Cd86 2.439 1_545 S
O97 C91 1.208 1_545 S
O98 Cd99 2.223 . S
O98 C106 1.315 . S
Cd99 O98 2.223 . S
Cd99 O102 2.297 . S
Cd99 O103 2.439 . S
Cd99 O109 2.244 . S
Cd100 O101 2.240 1_556 S
Cd100 O108 2.223 1_556 S
Cd100 O110 2.297 . S
Cd100 O111 2.439 . S
O101 Cd100 2.240 1_554 S
O101 C106 1.279 . S
O102 Cd99 2.297 . S
O102 C104 1.247 . S
O103 Cd99 2.439 . S
O103 C104 1.208 . S
C104 O102 1.247 . S
C104 O103 1.208 . S
C105 O110 1.247 . S
C105 O111 1.208 . S
C106 O98 1.315 . S
C106 O101 1.279 . S
C107 O108 1.315 . S
C107 O109 1.282 . S
O108 Cd100 2.223 1_554 S
O108 C107 1.315 . S
O109 Cd99 2.244 . S
O109 C107 1.282 . S
O110 Cd100 2.297 . S
O110 C105 1.247 . S
O111 Cd100 2.439 . S
O111 C105 1.208 . S
O112 Cd113 2.223 . S
O112 C120 1.315 . S
Cd113 O112 2.223 . S
Cd113 O116 2.297 . S
Cd113 O117 2.439 . S
Cd113 O123 2.240 . S
Cd114 O115 2.240 . S
Cd114 O122 2.223 . S
Cd114 O124 2.297 1_554 S
Cd114 O125 2.439 1_554 S
O115 Cd114 2.240 . S
O115 C120 1.279 . S
O116 Cd113 2.297 . S
O116 C118 1.247 . S
O117 Cd113 2.439 . S
O117 C118 1.208 . S
C118 O116 1.247 . S
C118 O117 1.208 . S
C119 O124 1.247 . S
C119 O125 1.208 . S
C120 O112 1.315 . S
C120 O115 1.279 . S
C121 O122 1.315 . S
C121 O123 1.279 . S
O122 Cd114 2.223 . S
O122 C121 1.315 . S
O123 Cd113 2.240 . S
O123 C121 1.279 . S
O124 Cd114 2.297 1_556 S
O124 C119 1.247 . S
O125 Cd114 2.439 1_556 S
O125 C119 1.208 . S
O126 Cd127 2.223 . S
O126 C134 1.315 . S
Cd127 O126 2.223 . S
Cd127 O130 2.297 . S
Cd127 O131 2.439 . S
Cd127 O137 2.240 . S
Cd128 O129 2.240 . S
Cd128 O136 2.223 . S
Cd128 O138 2.297 . S
Cd128 O139 2.439 . S
O129 Cd128 2.240 . S
O129 C134 1.279 . S
O130 Cd127 2.297 . S
O130 C132 1.247 . S
O131 Cd127 2.439 . S
O131 C132 1.208 . S
C132 O130 1.247 . S
C132 O131 1.208 . S
C133 O138 1.247 . S
C133 O139 1.208 . S
C134 O126 1.315 . S
C134 O129 1.279 . S
C135 O136 1.315 . S
C135 O137 1.279 . S
O136 Cd128 2.223 . S
O136 C135 1.315 . S
O137 Cd127 2.240 . S
O137 C135 1.279 . S
O138 Cd128 2.297 . S
O138 C133 1.247 . S
O139 Cd128 2.439 . S
O139 C133 1.208 . S
O140 Cd141 2.223 . S
O140 C148 1.315 . S
Cd141 O140 2.223 . S
Cd141 O144 2.297 . S
Cd141 O145 2.439 . S
Cd141 O151 2.240 . S
Cd142 O143 2.240 . S
Cd142 O150 2.223 . S
Cd142 O152 2.297 . S
Cd142 O153 2.439 . S
O143 Cd142 2.240 . S
O143 C148 1.279 . S
O144 Cd141 2.297 . S
O144 C146 1.247 . S
O145 Cd141 2.439 . S
O145 C146 1.208 . S
C146 O144 1.247 . S
C146 O145 1.208 . S
C147 O152 1.247 . S
C147 O153 1.208 . S
C148 O140 1.315 . S
C148 O143 1.279 . S
C149 O150 1.315 . S
C149 O151 1.279 . S
O150 Cd142 2.223 . S
O150 C149 1.315 . S
O151 Cd141 2.240 . S
O151 C149 1.279 . S
O152 Cd142 2.297 . S
O152 C147 1.247 . S
O153 Cd142 2.439 . S
O153 C147 1.208 . S
O154 Cd155 2.223 . S
O154 C162 1.315 . S
Cd155 O154 2.223 . S
Cd155 O158 2.297 . S
Cd155 O159 2.439 . S
Cd155 O165 2.240 . S
Cd156 O157 2.240 . S
Cd156 O164 2.223 . S
Cd156 O166 2.297 . S
Cd156 O167 2.439 . S
O157 Cd156 2.240 . S
O157 C162 1.279 . S
O158 Cd155 2.297 . S
O158 C160 1.247 . S
O159 Cd155 2.439 . S
O159 C160 1.208 . S
C160 O158 1.247 . S
C160 O159 1.208 . S
C161 O166 1.247 . S
C161 O167 1.208 . S
C162 O154 1.315 . S
C162 O157 1.279 . S
C163 O164 1.315 . S
C163 O165 1.279 . S
O164 Cd156 2.223 . S
O164 C163 1.315 . S
O165 Cd155 2.240 . S
O165 C163 1.279 . S
O166 Cd156 2.297 . S
O166 C161 1.247 . S
O167 Cd156 2.439 . S
O167 C161 1.208 . S
O168 Cd169 2.223 . S
O168 C176 1.315 . S
Cd169 O168 2.223 . S
Cd169 O172 2.297 . S
Cd169 O173 2.439 1_455 S
Cd169 O179 2.240 1_455 S
Cd170 O171 2.240 1_655 S
Cd170 O178 2.223 1_655 S
Cd170 O180 2.297 . S
Cd170 O181 2.439 . S
O171 Cd170 2.240 1_455 S
O171 C176 1.279 . S
O172 Cd169 2.297 . S
O172 C174 1.247 . S
O173 Cd169 2.439 1_655 S
O173 C174 1.208 1_655 S
C174 O172 1.247 . S
C174 O173 1.208 1_455 S
C175 O180 1.247 . S
C175 O181 1.208 . S
C176 O168 1.315 . S
C176 O171 1.279 . S
C177 O178 1.315 . S
C177 O179 1.279 1_455 S
O178 Cd170 2.223 1_455 S
O178 C177 1.315 . S
O179 Cd169 2.240 1_655 S
O179 C177 1.279 1_655 S
O180 Cd170 2.297 . S
O180 C175 1.247 . S
O181 Cd170 2.439 . S
O181 C175 1.208 . S
O182 Cd183 2.223 1_455 S
O182 C190 1.315 . S
Cd183 O182 2.223 1_655 S
Cd183 O186 2.297 . S
Cd183 O187 2.439 . S
Cd183 O193 2.240 1_655 S
Cd184 O185 2.240 1_455 S
Cd184 O192 2.223 . S
Cd184 O194 2.297 . S
Cd184 O195 2.439 1_455 S
O185 Cd184 2.240 1_655 S
O185 C190 1.279 1_655 S
O186 Cd183 2.297 . S
O186 C188 1.247 . S
O187 Cd183 2.439 . S
O187 C188 1.208 . S
C188 O186 1.247 . S
C188 O187 1.208 . S
C189 O194 1.247 . S
C189 O195 1.208 1_455 S
C190 O182 1.315 . S
C190 O185 1.279 1_455 S
C191 O192 1.315 . S
C191 O193 1.279 . S
O192 Cd184 2.223 . S
O192 C191 1.315 . S
O193 Cd183 2.240 1_455 S
O193 C191 1.279 . S
O194 Cd184 2.297 . S
O194 C189 1.247 . S
O195 Cd184 2.439 1_655 S
O195 C189 1.208 1_655 S
O196 Cd197 2.223 . S
O196 C204 1.315 . S
Cd197 O196 2.223 . S
Cd197 O200 2.297 . S
Cd197 O201 2.439 . S
Cd197 O207 2.240 . S
Cd198 O199 2.240 . S
Cd198 O206 2.223 . S
Cd198 O208 2.297 . S
Cd198 O209 2.439 . S
O199 Cd198 2.240 . S
O199 C204 1.279 . S
O200 Cd197 2.297 . S
O200 C202 1.247 . S
O201 Cd197 2.439 . S
O201 C202 1.208 . S
C202 O200 1.247 . S
C202 O201 1.208 . S
C203 O208 1.247 . S
C203 O209 1.208 . S
C204 O196 1.315 . S
C204 O199 1.279 . S
C205 O206 1.315 . S
C205 O207 1.279 . S
O206 Cd198 2.223 . S
O206 C205 1.315 . S
O207 Cd197 2.240 . S
O207 C205 1.279 . S
O208 Cd198 2.297 . S
O208 C203 1.247 . S
O209 Cd198 2.439 . S
O209 C203 1.208 . S
O210 Cd211 2.223 . S
O210 C218 1.315 . S
Cd211 O210 2.223 . S
Cd211 O214 2.297 . S
Cd211 O215 2.439 . S
Cd211 O221 2.240 . S
Cd212 O213 2.240 . S
Cd212 O220 2.223 . S
Cd212 O222 2.297 . S
Cd212 O223 2.439 . S
O213 Cd212 2.240 . S
O213 C218 1.279 . S
O214 Cd211 2.297 . S
O214 C216 1.247 . S
O215 Cd211 2.439 . S
O215 C216 1.208 . S
C216 O214 1.247 . S
C216 O215 1.208 . S
C217 O222 1.247 . S
C217 O223 1.208 . S
C218 O210 1.315 . S
C218 O213 1.279 . S
C219 O220 1.315 . S
C219 O221 1.279 . S
O220 Cd212 2.223 . S
O220 C219 1.315 . S
O221 Cd211 2.240 . S
O221 C219 1.279 . S
O222 Cd212 2.297 . S
O222 C217 1.247 . S
O223 Cd212 2.439 . S
O223 C217 1.208 . S
O224 Cd225 2.223 . S
O224 C232 1.315 . S
Cd225 O224 2.223 . S
Cd225 O228 2.297 . S
Cd225 O229 2.439 . S
Cd225 O235 2.240 1_545 S
Cd226 O227 2.240 . S
Cd226 O234 2.223 1_545 S
Cd226 O236 2.297 1_545 S
Cd226 O237 2.439 . S
O227 Cd226 2.240 . S
O227 C232 1.279 . S
O228 Cd225 2.297 . S
O228 C230 1.247 . S
O229 Cd225 2.439 . S
O229 C230 1.208 . S
C230 O228 1.247 . S
C230 O229 1.208 . S
C231 O236 1.247 1_545 S
C231 O237 1.208 . S
C232 O224 1.315 . S
C232 O227 1.279 . S
C233 O234 1.315 . S
C233 O235 1.279 . S
O234 Cd226 2.223 1_565 S
O234 C233 1.315 . S
O235 Cd225 2.240 1_565 S
O235 C233 1.279 . S
O236 Cd226 2.297 1_565 S
O236 C231 1.247 1_565 S
O237 Cd226 2.439 . S
O237 C231 1.208 . S
O238 Cd239 2.223 . S
O238 C246 1.315 . S
Cd239 O238 2.223 . S
Cd239 O242 2.297 . S
Cd239 O243 2.439 . S
Cd239 O249 2.240 . S
Cd240 O241 2.240 . S
Cd240 O248 2.223 . S
Cd240 O250 2.297 . S
Cd240 O251 2.439 . S
O241 Cd240 2.240 . S
O241 C246 1.279 . S
O242 Cd239 2.297 . S
O242 C244 1.247 . S
O243 Cd239 2.439 . S
O243 C244 1.208 . S
C244 O242 1.247 . S
C244 O243 1.208 . S
C245 O250 1.247 . S
C245 O251 1.208 . S
C246 O238 1.315 . S
C246 O241 1.279 . S
C247 O248 1.315 . S
C247 O249 1.279 . S
O248 Cd240 2.223 . S
O248 C247 1.315 . S
O249 Cd239 2.240 . S
O249 C247 1.279 . S
O250 Cd240 2.297 . S
O250 C245 1.247 . S
O251 Cd240 2.439 . S
O251 C245 1.208 . S
O252 Cd253 2.223 1_545 S
O252 C260 1.315 . S
Cd253 O252 2.223 1_565 S
Cd253 O256 2.297 . S
Cd253 O257 2.439 . S
Cd253 O263 2.240 1_565 S
Cd254 O255 2.240 1_545 S
Cd254 O262 2.223 . S
Cd254 O264 2.297 . S
Cd254 O265 2.439 1_545 S
O255 Cd254 2.240 1_565 S
O255 C260 1.279 1_565 S
O256 Cd253 2.297 . S
O256 C258 1.247 . S
O257 Cd253 2.439 . S
O257 C258 1.208 . S
C258 O256 1.247 . S
C258 O257 1.208 . S
C259 O264 1.247 . S
C259 O265 1.208 1_545 S
C260 O252 1.315 . S
C260 O255 1.279 1_545 S
C261 O262 1.315 . S
C261 O263 1.279 . S
O262 Cd254 2.223 . S
O262 C261 1.315 . S
O263 Cd253 2.240 1_545 S
O263 C261 1.279 . S
O264 Cd254 2.297 . S
O264 C259 1.247 . S
O265 Cd254 2.439 1_565 S
O265 C259 1.208 1_565 S
O266 Cd267 2.223 . S
O266 C274 1.315 . S
Cd267 O266 2.223 . S
Cd267 O270 2.297 . S
Cd267 O271 2.439 1_554 S
Cd267 O277 2.240 1_554 S
Cd268 O269 2.240 1_556 S
Cd268 O276 2.223 1_556 S
Cd268 O278 2.297 . S
Cd268 O279 2.439 . S
O269 Cd268 2.240 1_554 S
O269 C274 1.279 . S
O270 Cd267 2.297 . S
O270 C272 1.247 . S
O271 Cd267 2.439 1_556 S
O271 C272 1.208 1_556 S
C272 O270 1.247 . S
C272 O271 1.208 1_554 S
C273 O278 1.247 . S
C273 O279 1.208 . S
C274 O266 1.315 . S
C274 O269 1.279 . S
C275 O276 1.315 . S
C275 O277 1.279 1_554 S
O276 Cd268 2.223 1_554 S
O276 C275 1.315 . S
O277 Cd267 2.240 1_556 S
O277 C275 1.279 1_556 S
O278 Cd268 2.297 . S
O278 C273 1.247 . S
O279 Cd268 2.439 . S
O279 C273 1.208 . S
O280 Cd281 2.223 . S
O280 C288 1.315 . S
Cd281 O280 2.223 . S
Cd281 O284 2.297 . S
Cd281 O285 2.439 . S
Cd281 O291 2.258 . S
Cd282 O283 2.227 1_556 S
Cd282 O290 2.218 1_556 S
Cd282 O292 2.313 . S
Cd282 O293 2.453 . S
O283 Cd282 2.227 1_554 S
O283 C288 1.279 . S
O284 Cd281 2.297 . S
O284 C286 1.247 . S
O285 Cd281 2.439 . S
O285 C286 1.208 . S
C286 O284 1.247 . S
C286 O285 1.208 . S
C287 O292 1.247 . S
C287 O293 1.208 . S
C288 O280 1.315 . S
C288 O283 1.279 . S
C289 O290 1.315 . S
C289 O291 1.292 . S
O290 Cd282 2.218 1_554 S
O290 C289 1.315 . S
O291 Cd281 2.258 . S
O291 C289 1.292 . S
O292 Cd282 2.313 . S
O292 C287 1.247 . S
O293 Cd282 2.453 . S
O293 C287 1.208 . S
O294 Cd295 2.223 . S
O294 C302 1.315 . S
Cd295 O294 2.223 . S
Cd295 O298 2.297 . S
Cd295 O299 2.439 . S
Cd295 O305 2.240 . S
Cd296 O297 2.240 . S
Cd296 O304 2.223 . S
Cd296 O306 2.297 . S
Cd296 O307 2.439 . S
O297 Cd296 2.240 . S
O297 C302 1.279 . S
O298 Cd295 2.297 . S
O298 C300 1.247 . S
O299 Cd295 2.439 . S
O299 C300 1.208 . S
C300 O298 1.247 . S
C300 O299 1.208 . S
C301 O306 1.247 . S
C301 O307 1.208 . S
C302 O294 1.315 . S
C302 O297 1.279 . S
C303 O304 1.315 . S
C303 O305 1.279 . S
O304 Cd296 2.223 . S
O304 C303 1.315 . S
O305 Cd295 2.240 . S
O305 C303 1.279 . S
O306 Cd296 2.297 . S
O306 C301 1.247 . S
O307 Cd296 2.439 . S
O307 C301 1.208 . S
O308 Cd309 2.223 . S
O308 C316 1.315 . S
Cd309 O308 2.223 . S
Cd309 O312 2.297 . S
Cd309 O313 2.439 . S
Cd309 O319 2.240 . S
Cd310 O311 2.240 . S
Cd310 O318 2.223 . S
Cd310 O320 2.297 . S
Cd310 O321 2.439 . S
O311 Cd310 2.240 . S
O311 C316 1.279 . S
O312 Cd309 2.297 . S
O312 C314 1.247 . S
O313 Cd309 2.439 . S
O313 C314 1.208 . S
C314 O312 1.247 . S
C314 O313 1.208 . S
C315 O320 1.247 . S
C315 O321 1.208 . S
C316 O308 1.315 . S
C316 O311 1.279 . S
C317 O318 1.315 . S
C317 O319 1.279 . S
O318 Cd310 2.223 . S
O318 C317 1.315 . S
O319 Cd309 2.240 . S
O319 C317 1.279 . S
O320 Cd310 2.297 . S
O320 C315 1.247 . S
O321 Cd310 2.439 . S
O321 C315 1.208 . S
O322 Cd323 2.223 . S
O322 C330 1.315 . S
Cd323 O322 2.223 . S
Cd323 O326 2.297 . S
Cd323 O327 2.439 . S
Cd323 O333 2.240 . S
Cd324 O325 2.240 . S
Cd324 O332 2.223 . S
Cd324 O334 2.297 . S
Cd324 O335 2.439 . S
O325 Cd324 2.240 . S
O325 C330 1.279 . S
O326 Cd323 2.297 . S
O326 C328 1.247 . S
O327 Cd323 2.439 . S
O327 C328 1.208 . S
C328 O326 1.247 . S
C328 O327 1.208 . S
C329 O334 1.247 . S
C329 O335 1.208 . S
C330 O322 1.315 . S
C330 O325 1.279 . S
C331 O332 1.315 . S
C331 O333 1.279 . S
O332 Cd324 2.223 . S
O332 C331 1.315 . S
O333 Cd323 2.240 . S
O333 C331 1.279 . S
O334 Cd324 2.297 . S
O334 C329 1.247 . S
O335 Cd324 2.439 . S
O335 C329 1.208 . S
O336 Zn337 1.953 . S
O336 C352 1.225 1_455 S
Zn337 O336 1.953 . S
Zn337 O338 1.939 1_545 S
Zn337 O344 1.919 . S
Zn337 O349 1.924 1_554 S
O338 Zn337 1.939 1_565 S
O338 Zn339 1.929 . S
O338 Zn340 1.948 1_465 S
O338 Zn341 1.950 1_454 S
Zn339 O338 1.929 . S
Zn339 O342 1.933 . S
Zn339 O345 1.941 . S
Zn339 O346 1.965 . S
Zn340 O338 1.948 1_645 S
Zn340 O347 1.946 1_655 S
Zn340 O348 1.906 1_545 S
Zn340 O358 1.953 . S
Zn341 O338 1.950 1_656 S
Zn341 O343 1.932 1_655 S
Zn341 O350 1.977 1_556 S
Zn341 O351 1.910 1_565 S
O342 Zn339 1.933 . S
O342 C353 1.226 1_554 S
O343 Zn341 1.932 1_455 S
O343 C353 1.307 . S
O344 Zn337 1.919 . S
O344 C355 1.253 . S
O345 Zn339 1.941 . S
O345 C355 1.283 1_565 S
O346 Zn339 1.965 . S
O346 C354 1.303 . S
O347 Zn340 1.946 1_455 S
O347 C354 1.233 1_545 S
O348 Zn340 1.906 1_565 S
O348 C356 1.304 . S
O349 Zn337 1.924 1_556 S
O349 C357 1.311 1_455 S
O350 Zn341 1.977 1_554 S
O350 C356 1.272 . S
O351 Zn341 1.910 1_545 S
O351 C357 1.231 . S
C352 O336 1.225 1_655 S
C352 O358 1.298 . S
C353 O342 1.226 1_556 S
C353 O343 1.307 . S
C354 O346 1.303 . S
C354 O347 1.233 1_565 S
C355 O344 1.253 . S
C355 O345 1.283 1_545 S
C356 O348 1.304 . S
C356 O350 1.272 . S
C357 O349 1.311 1_655 S
C357 O351 1.231 . S
O358 Zn340 1.953 . S
O358 C352 1.298 . S
O359 Zn360 1.953 . S
O359 C375 1.225 . S
Zn360 O359 1.953 . S
Zn360 O361 1.949 . S
Zn360 O367 1.919 . S
Zn360 O372 1.924 . S
O361 Zn360 1.949 . S
O361 Zn362 1.923 . S
O361 Zn363 1.950 . S
O361 Zn364 1.945 . S
Zn362 O361 1.923 . S
Zn362 O365 1.933 . S
Zn362 O368 1.941 . S
Zn362 O369 1.965 . S
Zn363 O361 1.950 . S
Zn363 O370 1.938 . S
Zn363 O371 1.906 . S
Zn363 O381 1.953 . S
Zn364 O361 1.945 . S
Zn364 O366 1.932 . S
Zn364 O373 1.977 . S
Zn364 O374 1.910 . S
O365 Zn362 1.933 . S
O365 C376 1.226 . S
O366 Zn364 1.932 . S
O366 C376 1.307 . S
O367 Zn360 1.919 . S
O367 C378 1.253 . S
O368 Zn362 1.941 . S
O368 C378 1.283 . S
O369 Zn362 1.965 . S
O369 C377 1.303 . S
O370 Zn363 1.938 . S
O370 C377 1.247 . S
O371 Zn363 1.906 . S
O371 C379 1.304 . S
O372 Zn360 1.924 . S
O372 C380 1.311 . S
O373 Zn364 1.977 . S
O373 C379 1.272 . S
O374 Zn364 1.910 . S
O374 C380 1.231 . S
C375 O359 1.225 . S
C375 O381 1.298 . S
C376 O365 1.226 . S
C376 O366 1.307 . S
C377 O369 1.303 . S
C377 O370 1.247 . S
C378 O367 1.253 . S
C378 O368 1.283 . S
C379 O371 1.304 . S
C379 O373 1.272 . S
C380 O372 1.311 . S
C380 O374 1.231 . S
O381 Zn363 1.953 . S
O381 C375 1.298 . S
O382 Zn383 1.953 . S
O382 C398 1.225 . S
Zn383 O382 1.953 . S
Zn383 O384 1.949 1_565 S
Zn383 O390 1.919 . S
Zn383 O395 1.924 . S
O384 Zn383 1.949 1_545 S
O384 Zn385 1.923 . S
O384 Zn386 1.950 . S
O384 Zn387 1.945 . S
Zn385 O384 1.923 . S
Zn385 O388 1.933 . S
Zn385 O391 1.941 . S
Zn385 O392 1.965 . S
Zn386 O384 1.950 . S
Zn386 O393 1.938 . S
Zn386 O394 1.906 . S
Zn386 O404 1.953 1_545 S
Zn387 O384 1.945 . S
Zn387 O389 1.932 . S
Zn387 O396 1.977 . S
Zn387 O397 1.910 . S
O388 Zn385 1.933 . S
O388 C399 1.226 . S
O389 Zn387 1.932 . S
O389 C399 1.307 . S
O390 Zn383 1.919 . S
O390 C401 1.253 1_565 S
O391 Zn385 1.941 . S
O391 C401 1.283 . S
O392 Zn385 1.965 . S
O392 C400 1.303 . S
O393 Zn386 1.938 . S
O393 C400 1.247 . S
O394 Zn386 1.906 . S
O394 C402 1.304 . S
O395 Zn383 1.924 . S
O395 C403 1.311 . S
O396 Zn387 1.977 . S
O396 C402 1.272 . S
O397 Zn387 1.910 . S
O397 C403 1.231 1_545 S
C398 O382 1.225 . S
C398 O404 1.298 . S
C399 O388 1.226 . S
C399 O389 1.307 . S
C400 O392 1.303 . S
C400 O393 1.247 . S
C401 O390 1.253 1_545 S
C401 O391 1.283 . S
C402 O394 1.304 . S
C402 O396 1.272 . S
C403 O395 1.311 . S
C403 O397 1.231 1_565 S
O404 Zn386 1.953 1_565 S
O404 C398 1.298 . S
O405 Zn406 1.953 . S
O405 C421 1.225 . S
Zn406 O405 1.953 . S
Zn406 O407 1.949 . S
Zn406 O413 1.919 . S
Zn406 O418 1.924 . S
O407 Zn406 1.949 . S
O407 Zn408 1.923 . S
O407 Zn409 1.950 . S
O407 Zn410 1.945 . S
Zn408 O407 1.923 . S
Zn408 O411 1.933 . S
Zn408 O414 1.941 . S
Zn408 O415 1.965 . S
Zn409 O407 1.950 . S
Zn409 O416 1.938 . S
Zn409 O417 1.906 . S
Zn409 O427 1.953 . S
Zn410 O407 1.945 . S
Zn410 O412 1.932 . S
Zn410 O419 1.977 . S
Zn410 O420 1.910 . S
O411 Zn408 1.933 . S
O411 C422 1.226 . S
O412 Zn410 1.932 . S
O412 C422 1.307 . S
O413 Zn406 1.919 . S
O413 C424 1.253 . S
O414 Zn408 1.941 . S
O414 C424 1.283 . S
O415 Zn408 1.965 . S
O415 C423 1.303 . S
O416 Zn409 1.938 . S
O416 C423 1.247 . S
O417 Zn409 1.906 . S
O417 C425 1.304 . S
O418 Zn406 1.924 . S
O418 C426 1.311 . S
O419 Zn410 1.977 . S
O419 C425 1.272 . S
O420 Zn410 1.910 . S
O420 C426 1.231 . S
C421 O405 1.225 . S
C421 O427 1.298 . S
C422 O411 1.226 . S
C422 O412 1.307 . S
C423 O415 1.303 . S
C423 O416 1.247 . S
C424 O413 1.253 . S
C424 O414 1.283 . S
C425 O417 1.304 . S
C425 O419 1.272 . S
C426 O418 1.311 . S
C426 O420 1.231 . S
O427 Zn409 1.953 . S
O427 C421 1.298 . S
O428 Zn429 1.953 1_445 S
O428 C444 1.225 . S
Zn429 O428 1.953 1_665 S
Zn429 O430 1.949 1_665 S
Zn429 O436 1.919 . S
Zn429 O441 1.924 1_565 S
O430 Zn429 1.949 1_445 S
O430 Zn431 1.923 1_545 S
O430 Zn432 1.950 . S
O430 Zn433 1.945 1_455 S
Zn431 O430 1.923 1_565 S
Zn431 O434 1.933 1_455 S
Zn431 O437 1.941 . S
Zn431 O438 1.965 . S
Zn432 O430 1.950 . S
Zn432 O439 1.938 . S
Zn432 O440 1.906 . S
Zn432 O450 1.953 . S
Zn433 O430 1.945 1_655 S
Zn433 O435 1.932 . S
Zn433 O442 1.977 . S
Zn433 O443 1.910 . S
O434 Zn431 1.933 1_655 S
O434 C445 1.226 . S
O435 Zn433 1.932 . S
O435 C445 1.307 1_545 S
O436 Zn429 1.919 . S
O436 C447 1.253 . S
O437 Zn431 1.941 . S
O437 C447 1.283 1_455 S
O438 Zn431 1.965 . S
O438 C446 1.303 . S
O439 Zn432 1.938 . S
O439 C446 1.247 1_545 S
O440 Zn432 1.906 . S
O440 C448 1.304 . S
O441 Zn429 1.924 1_545 S
O441 C449 1.311 . S
O442 Zn433 1.977 . S
O442 C448 1.272 1_655 S
O443 Zn433 1.910 . S
O443 C449 1.231 . S
C444 O428 1.225 . S
C444 O450 1.298 . S
C445 O434 1.226 . S
C445 O435 1.307 1_565 S
C446 O438 1.303 . S
C446 O439 1.247 1_565 S
C447 O436 1.253 . S
C447 O437 1.283 1_655 S
C448 O440 1.304 . S
C448 O442 1.272 1_455 S
C449 O441 1.311 . S
C449 O443 1.231 . S
O450 Zn432 1.953 . S
O450 C444 1.298 . S
O451 Zn452 1.953 . S
O451 C467 1.225 . S
Zn452 O451 1.953 . S
Zn452 O453 1.949 . S
Zn452 O459 1.919 . S
Zn452 O464 1.924 . S
O453 Zn452 1.949 . S
O453 Zn454 1.923 . S
O453 Zn455 1.950 . S
O453 Zn456 1.945 . S
Zn454 O453 1.923 . S
Zn454 O457 1.933 . S
Zn454 O460 1.941 . S
Zn454 O461 1.965 . S
Zn455 O453 1.950 . S
Zn455 O462 1.938 . S
Zn455 O463 1.906 . S
Zn455 O473 1.953 . S
Zn456 O453 1.945 . S
Zn456 O458 1.932 . S
Zn456 O465 1.977 . S
Zn456 O466 1.910 . S
O457 Zn454 1.933 . S
O457 C468 1.226 . S
O458 Zn456 1.932 . S
O458 C468 1.307 . S
O459 Zn452 1.919 . S
O459 C470 1.253 . S
O460 Zn454 1.941 . S
O460 C470 1.283 . S
O461 Zn454 1.965 . S
O461 C469 1.303 . S
O462 Zn455 1.938 . S
O462 C469 1.247 . S
O463 Zn455 1.906 . S
O463 C471 1.304 . S
O464 Zn452 1.924 . S
O464 C472 1.311 . S
O465 Zn456 1.977 . S
O465 C471 1.272 . S
O466 Zn456 1.910 . S
O466 C472 1.231 . S
C467 O451 1.225 . S
C467 O473 1.298 . S
C468 O457 1.226 . S
C468 O458 1.307 . S
C469 O461 1.303 . S
C469 O462 1.247 . S
C470 O459 1.253 . S
C470 O460 1.283 . S
C471 O463 1.304 . S
C471 O465 1.272 . S
C472 O464 1.311 . S
C472 O466 1.231 . S
O473 Zn455 1.953 . S
O473 C467 1.298 . S
O474 Zn475 1.953 . S
O474 C490 1.225 . S
Zn475 O474 1.953 . S
Zn475 O476 1.949 . S
Zn475 O482 1.919 . S
Zn475 O487 1.924 . S
O476 Zn475 1.949 . S
O476 Zn477 1.923 1_545 S
O476 Zn478 1.950 . S
O476 Zn479 1.945 1_554 S
Zn477 O476 1.923 1_565 S
Zn477 O480 1.933 1_554 S
Zn477 O483 1.944 . S
Zn477 O484 1.965 . S
Zn478 O476 1.950 . S
Zn478 O485 1.938 1_545 S
Zn478 O486 1.906 . S
Zn478 O496 1.953 . S
Zn479 O476 1.945 1_556 S
Zn479 O481 1.932 . S
Zn479 O488 1.977 1_556 S
Zn479 O489 1.910 . S
O480 Zn477 1.933 1_556 S
O480 C491 1.226 . S
O481 Zn479 1.932 . S
O481 C491 1.307 1_545 S
O482 Zn475 1.919 . S
O482 C493 1.246 1_544 S
O483 Zn477 1.944 . S
O483 C493 1.282 1_554 S
O484 Zn477 1.965 . S
O484 C492 1.303 . S
O485 Zn478 1.938 1_565 S
O485 C492 1.247 . S
O486 Zn478 1.906 . S
O486 C494 1.304 . S
O487 Zn475 1.924 . S
O487 C495 1.311 . S
O488 Zn479 1.977 1_554 S
O488 C494 1.272 . S
O489 Zn479 1.910 . S
O489 C495 1.231 1_556 S
C490 O474 1.225 . S
C490 O496 1.298 . S
C491 O480 1.226 . S
C491 O481 1.307 1_565 S
C492 O484 1.303 . S
C492 O485 1.247 . S
C493 O482 1.246 1_566 S
C493 O483 1.282 1_556 S
C494 O486 1.304 . S
C494 O488 1.272 . S
C495 O487 1.311 . S
C495 O489 1.231 1_554 S
O496 Zn478 1.953 . S
O496 C490 1.298 . S
O497 Zn498 1.953 . S
O497 C513 1.225 . S
Zn498 O497 1.953 . S
Zn498 O499 1.949 . S
Zn498 O505 1.919 . S
Zn498 O510 1.924 . S
O499 Zn498 1.949 . S
O499 Zn500 1.923 . S
O499 Zn501 1.950 . S
O499 Zn502 1.945 . S
Zn500 O499 1.923 . S
Zn500 O503 1.933 . S
Zn500 O506 1.941 . S
Zn500 O507 1.965 . S
Zn501 O499 1.950 . S
Zn501 O508 1.938 . S
Zn501 O509 1.906 . S
Zn501 O519 1.953 . S
Zn502 O499 1.945 . S
Zn502 O504 1.932 . S
Zn502 O511 1.977 . S
Zn502 O512 1.910 . S
O503 Zn500 1.933 . S
O503 C514 1.226 . S
O504 Zn502 1.932 . S
O504 C514 1.307 . S
O505 Zn498 1.919 . S
O505 C516 1.253 . S
O506 Zn500 1.941 . S
O506 C516 1.283 . S
O507 Zn500 1.965 . S
O507 C515 1.303 . S
O508 Zn501 1.938 . S
O508 C515 1.247 . S
O509 Zn501 1.906 . S
O509 C517 1.304 . S
O510 Zn498 1.924 . S
O510 C518 1.311 . S
O511 Zn502 1.977 . S
O511 C517 1.272 . S
O512 Zn502 1.910 . S
O512 C518 1.231 . S
C513 O497 1.225 . S
C513 O519 1.298 . S
C514 O503 1.226 . S
C514 O504 1.307 . S
C515 O507 1.303 . S
C515 O508 1.247 . S
C516 O505 1.253 . S
C516 O506 1.283 . S
C517 O509 1.304 . S
C517 O511 1.272 . S
C518 O510 1.311 . S
C518 O512 1.231 . S
O519 Zn501 1.953 . S
O519 C513 1.298 . S
O520 Zn521 1.953 . S
O520 C536 1.225 . S
Zn521 O520 1.953 . S
Zn521 O522 1.949 1_556 S
Zn521 O528 1.919 . S
Zn521 O533 1.924 . S
O522 Zn521 1.949 1_554 S
O522 Zn523 1.923 . S
O522 Zn524 1.950 . S
O522 Zn525 1.945 . S
Zn523 O522 1.923 . S
Zn523 O526 1.933 . S
Zn523 O529 1.941 . S
Zn523 O530 1.965 . S
Zn524 O522 1.950 . S
Zn524 O531 1.938 . S
Zn524 O532 1.906 . S
Zn524 O542 1.953 1_554 S
Zn525 O522 1.945 . S
Zn525 O527 1.932 . S
Zn525 O534 1.977 . S
Zn525 O535 1.910 . S
O526 Zn523 1.933 . S
O526 C537 1.226 . S
O527 Zn525 1.932 . S
O527 C537 1.307 . S
O528 Zn521 1.919 . S
O528 C539 1.253 1_556 S
O529 Zn523 1.941 . S
O529 C539 1.283 . S
O530 Zn523 1.965 . S
O530 C538 1.303 . S
O531 Zn524 1.938 . S
O531 C538 1.247 . S
O532 Zn524 1.906 . S
O532 C540 1.304 . S
O533 Zn521 1.924 . S
O533 C541 1.311 1_556 S
O534 Zn525 1.977 . S
O534 C540 1.272 . S
O535 Zn525 1.910 . S
O535 C541 1.231 . S
C536 O520 1.225 . S
C536 O542 1.298 . S
C537 O526 1.226 . S
C537 O527 1.307 . S
C538 O530 1.303 . S
C538 O531 1.247 . S
C539 O528 1.253 1_554 S
C539 O529 1.283 . S
C540 O532 1.304 . S
C540 O534 1.272 . S
C541 O533 1.311 1_554 S
C541 O535 1.231 . S
O542 Zn524 1.953 1_556 S
O542 C536 1.298 . S
O543 Zn544 1.953 . S
O543 C559 1.225 . S
Zn544 O543 1.953 . S
Zn544 O545 1.949 . S
Zn544 O551 1.919 . S
Zn544 O556 1.924 . S
O545 Zn544 1.949 . S
O545 Zn546 1.923 . S
O545 Zn547 1.950 . S
O545 Zn548 1.945 . S
Zn546 O545 1.923 . S
Zn546 O549 1.933 . S
Zn546 O552 1.941 . S
Zn546 O553 1.965 . S
Zn547 O545 1.950 . S
Zn547 O554 1.938 . S
Zn547 O555 1.906 . S
Zn547 O565 1.953 . S
Zn548 O545 1.945 . S
Zn548 O550 1.932 . S
Zn548 O557 1.977 . S
Zn548 O558 1.910 . S
O549 Zn546 1.933 . S
O549 C560 1.226 . S
O550 Zn548 1.932 . S
O550 C560 1.307 . S
O551 Zn544 1.919 . S
O551 C562 1.253 . S
O552 Zn546 1.941 . S
O552 C562 1.283 . S
O553 Zn546 1.965 . S
O553 C561 1.303 . S
O554 Zn547 1.938 . S
O554 C561 1.247 . S
O555 Zn547 1.906 . S
O555 C563 1.304 . S
O556 Zn544 1.924 . S
O556 C564 1.311 . S
O557 Zn548 1.977 . S
O557 C563 1.272 . S
O558 Zn548 1.910 . S
O558 C564 1.231 . S
C559 O543 1.225 . S
C559 O565 1.298 . S
C560 O549 1.226 . S
C560 O550 1.307 . S
C561 O553 1.303 . S
C561 O554 1.247 . S
C562 O551 1.253 . S
C562 O552 1.283 . S
C563 O555 1.304 . S
C563 O557 1.272 . S
C564 O556 1.311 . S
C564 O558 1.231 . S
O565 Zn547 1.953 . S
O565 C559 1.298 . S
O566 Zn567 1.953 . S
O566 C582 1.225 . S
Zn567 O566 1.953 . S
Zn567 O568 1.949 . S
Zn567 O574 1.919 . S
Zn567 O579 1.924 . S
O568 Zn567 1.949 . S
O568 Zn569 1.923 . S
O568 Zn570 1.950 1_455 S
O568 Zn571 1.945 1_455 S
Zn569 O568 1.923 . S
Zn569 O572 1.933 1_455 S
Zn569 O575 1.941 . S
Zn569 O576 1.965 1_455 S
Zn570 O568 1.950 1_655 S
Zn570 O577 1.938 . S
Zn570 O578 1.906 . S
Zn570 O588 1.953 1_655 S
Zn571 O568 1.945 1_655 S
Zn571 O573 1.932 . S
Zn571 O580 1.977 . S
Zn571 O581 1.910 1_655 S
O572 Zn569 1.933 1_655 S
O572 C583 1.226 . S
O573 Zn571 1.932 . S
O573 C583 1.307 . S
O574 Zn567 1.919 . S
O574 C585 1.253 . S
O575 Zn569 1.941 . S
O575 C585 1.283 . S
O576 Zn569 1.965 1_655 S
O576 C584 1.303 . S
O577 Zn570 1.938 . S
O577 C584 1.247 . S
O578 Zn570 1.906 . S
O578 C586 1.304 . S
O579 Zn567 1.924 . S
O579 C587 1.311 . S
O580 Zn571 1.977 . S
O580 C586 1.272 . S
O581 Zn571 1.910 1_455 S
O581 C587 1.231 . S
C582 O566 1.225 . S
C582 O588 1.298 . S
C583 O572 1.226 . S
C583 O573 1.307 . S
C584 O576 1.303 . S
C584 O577 1.247 . S
C585 O574 1.253 . S
C585 O575 1.283 . S
C586 O578 1.304 . S
C586 O580 1.272 . S
C587 O579 1.311 . S
C587 O581 1.231 . S
O588 Zn570 1.953 1_455 S
O588 C582 1.298 . S
O589 Zn590 1.953 . S
O589 C605 1.225 . S
Zn590 O589 1.953 . S
Zn590 O591 1.949 . S
Zn590 O597 1.919 . S
Zn590 O602 1.924 . S
O591 Zn590 1.949 . S
O591 Zn592 1.923 . S
O591 Zn593 1.950 . S
O591 Zn594 1.945 . S
Zn592 O591 1.923 . S
Zn592 O595 1.933 . S
Zn592 O598 1.941 . S
Zn592 O599 1.965 . S
Zn593 O591 1.950 . S
Zn593 O600 1.938 . S
Zn593 O601 1.906 . S
Zn593 O611 1.953 . S
Zn594 O591 1.945 . S
Zn594 O596 1.932 . S
Zn594 O603 1.977 . S
Zn594 O604 1.910 . S
O595 Zn592 1.933 . S
O595 C606 1.226 . S
O596 Zn594 1.932 . S
O596 C606 1.307 . S
O597 Zn590 1.919 . S
O597 C608 1.253 . S
O598 Zn592 1.941 . S
O598 C608 1.283 . S
O599 Zn592 1.965 . S
O599 C607 1.303 . S
O600 Zn593 1.938 . S
O600 C607 1.247 . S
O601 Zn593 1.906 . S
O601 C609 1.304 . S
O602 Zn590 1.924 . S
O602 C610 1.311 . S
O603 Zn594 1.977 . S
O603 C609 1.272 . S
O604 Zn594 1.910 . S
O604 C610 1.231 . S
C605 O589 1.225 . S
C605 O611 1.298 . S
C606 O595 1.226 . S
C606 O596 1.307 . S
C607 O599 1.303 . S
C607 O600 1.247 . S
C608 O597 1.253 . S
C608 O598 1.283 . S
C609 O601 1.304 . S
C609 O603 1.272 . S
C610 O602 1.311 . S
C610 O604 1.231 . S
O611 Zn593 1.953 . S
O611 C605 1.298 . S
O612 Zn613 1.953 . S
O612 C628 1.225 . S
Zn613 O612 1.953 . S
Zn613 O614 1.949 . S
Zn613 O620 1.919 . S
Zn613 O625 1.924 . S
O614 Zn613 1.949 . S
O614 Zn615 1.923 . S
O614 Zn616 1.950 . S
O614 Zn617 1.945 . S
Zn615 O614 1.923 . S
Zn615 O618 1.933 . S
Zn615 O621 1.941 . S
Zn615 O622 1.965 . S
Zn616 O614 1.950 . S
Zn616 O623 1.938 . S
Zn616 O624 1.906 . S
Zn616 O634 1.953 . S
Zn617 O614 1.945 . S
Zn617 O619 1.932 . S
Zn617 O626 1.977 . S
Zn617 O627 1.910 . S
O618 Zn615 1.933 . S
O618 C629 1.226 . S
O619 Zn617 1.932 . S
O619 C629 1.307 . S
O620 Zn613 1.919 . S
O620 C631 1.253 . S
O621 Zn615 1.941 . S
O621 C631 1.283 . S
O622 Zn615 1.965 . S
O622 C630 1.303 . S
O623 Zn616 1.938 . S
O623 C630 1.247 . S
O624 Zn616 1.906 . S
O624 C632 1.304 . S
O625 Zn613 1.924 . S
O625 C633 1.311 . S
O626 Zn617 1.977 . S
O626 C632 1.272 . S
O627 Zn617 1.910 . S
O627 C633 1.231 . S
C628 O612 1.225 . S
C628 O634 1.298 . S
C629 O618 1.226 . S
C629 O619 1.307 . S
C630 O622 1.303 . S
C630 O623 1.247 . S
C631 O620 1.253 . S
C631 O621 1.283 . S
C632 O624 1.304 . S
C632 O626 1.272 . S
C633 O625 1.311 . S
C633 O627 1.231 . S
O634 Zn616 1.953 . S
O634 C628 1.298 . S
O635 Zn636 1.953 . S
O635 C651 1.225 . S
Zn636 O635 1.953 . S
Zn636 O637 1.949 . S
Zn636 O643 1.919 . S
Zn636 O648 1.924 . S
O637 Zn636 1.949 . S
O637 Zn638 1.923 . S
O637 Zn639 1.950 . S
O637 Zn640 1.945 . S
Zn638 O637 1.923 . S
Zn638 O641 1.933 . S
Zn638 O644 1.941 . S
Zn638 O645 1.965 . S
Zn639 O637 1.950 . S
Zn639 O646 1.938 . S
Zn639 O647 1.906 . S
Zn639 O657 1.953 . S
Zn640 O637 1.945 . S
Zn640 O642 1.932 . S
Zn640 O649 1.977 . S
Zn640 O650 1.910 . S
O641 Zn638 1.933 . S
O641 C652 1.226 . S
O642 Zn640 1.932 . S
O642 C652 1.307 . S
O643 Zn636 1.919 . S
O643 C654 1.253 . S
O644 Zn638 1.941 . S
O644 C654 1.283 . S
O645 Zn638 1.965 . S
O645 C653 1.303 . S
O646 Zn639 1.938 . S
O646 C653 1.247 . S
O647 Zn639 1.906 . S
O647 C655 1.304 . S
O648 Zn636 1.924 . S
O648 C656 1.311 . S
O649 Zn640 1.977 . S
O649 C655 1.272 . S
O650 Zn640 1.910 . S
O650 C656 1.231 . S
C651 O635 1.225 . S
C651 O657 1.298 . S
C652 O641 1.226 . S
C652 O642 1.307 . S
C653 O645 1.303 . S
C653 O646 1.247 . S
C654 O643 1.253 . S
C654 O644 1.283 . S
C655 O647 1.304 . S
C655 O649 1.272 . S
C656 O648 1.311 . S
C656 O650 1.231 . S
O657 Zn639 1.953 . S
O657 C651 1.298 . S
O658 Zn659 1.953 . S
O658 C674 1.225 . S
Zn659 O658 1.953 . S
Zn659 O660 1.949 . S
Zn659 O666 1.919 . S
Zn659 O671 1.924 . S
O660 Zn659 1.949 . S
O660 Zn661 1.923 . S
O660 Zn662 1.950 . S
O660 Zn663 1.945 . S
Zn661 O660 1.923 . S
Zn661 O664 1.933 . S
Zn661 O667 1.941 . S
Zn661 O668 1.965 . S
Zn662 O660 1.950 . S
Zn662 O669 1.938 . S
Zn662 O670 1.906 . S
Zn662 O680 1.953 . S
Zn663 O660 1.945 . S
Zn663 O665 1.932 . S
Zn663 O672 1.977 . S
Zn663 O673 1.910 . S
O664 Zn661 1.933 . S
O664 C675 1.226 . S
O665 Zn663 1.932 . S
O665 C675 1.307 . S
O666 Zn659 1.919 . S
O666 C677 1.253 . S
O667 Zn661 1.941 . S
O667 C677 1.283 . S
O668 Zn661 1.965 . S
O668 C676 1.303 . S
O669 Zn662 1.938 . S
O669 C676 1.247 . S
O670 Zn662 1.906 . S
O670 C678 1.304 . S
O671 Zn659 1.924 . S
O671 C679 1.311 . S
O672 Zn663 1.977 . S
O672 C678 1.272 . S
O673 Zn663 1.910 . S
O673 C679 1.231 . S
C674 O658 1.225 . S
C674 O680 1.298 . S
C675 O664 1.226 . S
C675 O665 1.307 . S
C676 O668 1.303 . S
C676 O669 1.247 . S
C677 O666 1.253 . S
C677 O667 1.283 . S
C678 O670 1.304 . S
C678 O672 1.272 . S
C679 O671 1.311 . S
C679 O673 1.231 . S
O680 Zn662 1.953 . S
O680 C674 1.298 . S
O681 Zn682 1.953 1_455 S
O681 C697 1.225 . S
Zn682 O681 1.953 1_655 S
Zn682 O683 1.949 1_655 S
Zn682 O689 1.919 . S
Zn682 O694 1.924 1_654 S
O683 Zn682 1.949 1_455 S
O683 Zn684 1.923 1_455 S
O683 Zn685 1.950 . S
O683 Zn686 1.945 . S
Zn684 O683 1.923 1_655 S
Zn684 O687 1.933 . S
Zn684 O690 1.941 . S
Zn684 O691 1.965 . S
Zn685 O683 1.950 . S
Zn685 O692 1.938 . S
Zn685 O693 1.906 . S
Zn685 O703 1.953 . S
Zn686 O683 1.945 . S
Zn686 O688 1.932 1_554 S
Zn686 O695 1.977 . S
Zn686 O696 1.910 1_554 S
O687 Zn684 1.933 . S
O687 C698 1.226 . S
O688 Zn686 1.932 1_556 S
O688 C698 1.307 1_456 S
O689 Zn682 1.919 . S
O689 C700 1.253 . S
O690 Zn684 1.941 . S
O690 C700 1.283 . S
O691 Zn684 1.965 . S
O691 C699 1.303 . S
O692 Zn685 1.938 . S
O692 C699 1.247 1_455 S
O693 Zn685 1.906 . S
O693 C701 1.304 . S
O694 Zn682 1.924 1_456 S
O694 C702 1.311 . S
O695 Zn686 1.977 . S
O695 C701 1.272 . S
O696 Zn686 1.910 1_556 S
O696 C702 1.231 . S
C697 O681 1.225 . S
C697 O703 1.298 . S
C698 O687 1.226 . S
C698 O688 1.307 1_654 S
C699 O691 1.303 . S
C699 O692 1.247 1_655 S
C700 O689 1.253 . S
C700 O690 1.283 . S
C701 O693 1.304 . S
C701 O695 1.272 . S
C702 O694 1.311 . S
C702 O696 1.231 . S
O703 Zn685 1.953 . S
O703 C697 1.298 . S
C704 C705 1.369 1_655 S
C704 C706 1.419 . S
C704 H708 0.930 . S
C705 C704 1.369 1_455 S
C705 C714 1.429 . S
C706 C704 1.419 . S
C706 C707 1.363 . S
C706 H709 0.929 . S
C707 C706 1.363 . S
C707 C713 1.428 1_655 S
H708 C704 0.930 . S
H709 C706 0.929 . S
S710 N711 1.613 . S
S710 N712 1.610 . S
N711 S710 1.613 . S
N711 C714 1.350 . S
N712 S710 1.610 . S
N712 C713 1.351 . S
C713 C707 1.428 1_455 S
C713 N712 1.351 . S
C713 C714 1.434 . S
C714 C705 1.429 . S
C714 N711 1.350 . S
C714 C713 1.434 . S
C715 C716 1.369 . S
C715 C717 1.419 . S
C715 H719 0.930 . S
C716 C715 1.369 . S
C716 C725 1.429 . S
C717 C715 1.419 . S
C717 C718 1.363 . S
C717 H720 0.929 . S
C718 C717 1.363 . S
C718 C724 1.428 . S
H719 C715 0.930 . S
H720 C717 0.929 . S
S721 N722 1.613 . S
S721 N723 1.610 . S
N722 S721 1.613 . S
N722 C725 1.350 . S
N723 S721 1.610 . S
N723 C724 1.351 . S
C724 C718 1.428 . S
C724 N723 1.351 . S
C724 C725 1.434 . S
C725 C716 1.429 . S
C725 N722 1.350 . S
C725 C724 1.434 . S
C726 C727 1.369 . S
C726 C728 1.419 . S
C726 H730 0.930 . S
C727 C726 1.369 . S
C727 C736 1.429 . S
C728 C726 1.419 . S
C728 C729 1.363 . S
C728 H731 0.929 . S
C729 C728 1.363 . S
C729 C735 1.428 . S
H730 C726 0.930 . S
H731 C728 0.929 . S
S732 N733 1.613 . S
S732 N734 1.610 . S
N733 S732 1.613 . S
N733 C736 1.350 . S
N734 S732 1.610 . S
N734 C735 1.351 . S
C735 C729 1.428 . S
C735 N734 1.351 . S
C735 C736 1.434 . S
C736 C727 1.429 . S
C736 N733 1.350 . S
C736 C735 1.434 . S
C737 C738 1.369 . S
C737 C739 1.419 . S
C737 H741 0.930 . S
C738 C737 1.369 . S
C738 C747 1.429 . S
C739 C737 1.419 . S
C739 C740 1.363 . S
C739 H742 0.929 . S
C740 C739 1.363 . S
C740 C746 1.428 . S
H741 C737 0.930 . S
H742 C739 0.929 . S
S743 N744 1.613 . S
S743 N745 1.610 . S
N744 S743 1.613 . S
N744 C747 1.350 . S
N745 S743 1.610 . S
N745 C746 1.351 . S
C746 C740 1.428 . S
C746 N745 1.351 . S
C746 C747 1.434 . S
C747 C738 1.429 . S
C747 N744 1.350 . S
C747 C746 1.434 . S
C748 C749 1.369 . S
C748 C750 1.419 . S
C748 H752 0.930 . S
C749 C748 1.369 . S
C749 C758 1.429 1_455 S
C750 C748 1.419 . S
C750 C751 1.363 1_455 S
C750 H753 0.929 . S
C751 C750 1.363 1_655 S
C751 C757 1.428 . S
H752 C748 0.930 . S
H753 C750 0.929 . S
S754 N755 1.613 . S
S754 N756 1.610 . S
N755 S754 1.613 . S
N755 C758 1.350 . S
N756 S754 1.610 . S
N756 C757 1.351 . S
C757 C751 1.428 . S
C757 N756 1.351 . S
C757 C758 1.434 . S
C758 C749 1.429 1_655 S
C758 N755 1.350 . S
C758 C757 1.434 . S
C759 C760 1.369 . S
C759 C761 1.419 . S
C759 H763 0.930 . S
C760 C759 1.369 . S
C760 C769 1.429 . S
C761 C759 1.419 . S
C761 C762 1.363 . S
C761 H764 0.929 . S
C762 C761 1.363 . S
C762 C768 1.428 . S
H763 C759 0.930 . S
H764 C761 0.929 . S
S765 N766 1.613 . S
S765 N767 1.610 . S
N766 S765 1.613 . S
N766 C769 1.350 . S
N767 S765 1.610 . S
N767 C768 1.351 . S
C768 C762 1.428 . S
C768 N767 1.351 . S
C768 C769 1.434 . S
C769 C760 1.429 . S
C769 N766 1.350 . S
C769 C768 1.434 . S
C770 C771 1.369 . S
C770 C772 1.419 . S
C770 H774 0.930 . S
C771 C770 1.369 . S
C771 C780 1.429 . S
C772 C770 1.419 . S
C772 C773 1.363 . S
C772 H775 0.929 . S
C773 C772 1.363 . S
C773 C779 1.426 1_556 S
H774 C770 0.930 . S
H775 C772 0.929 . S
S776 N777 1.613 1_554 S
S776 N778 1.610 . S
N777 S776 1.613 1_556 S
N777 C780 1.350 . S
N778 S776 1.610 . S
N778 C779 1.376 . S
C779 C773 1.426 1_554 S
C779 N778 1.376 . S
C779 C780 1.411 1_554 S
C780 C771 1.429 . S
C780 N777 1.350 . S
C780 C779 1.411 1_556 S
C781 C782 1.369 . S
C781 C783 1.419 . S
C781 H785 0.930 . S
C782 C781 1.369 . S
C782 C791 1.429 . S
C783 C781 1.419 . S
C783 C784 1.363 . S
C783 H786 0.929 . S
C784 C783 1.363 . S
C784 C790 1.428 . S
H785 C781 0.930 . S
H786 C783 0.929 . S
S787 N788 1.613 . S
S787 N789 1.610 . S
N788 S787 1.613 . S
N788 C791 1.350 . S
N789 S787 1.610 . S
N789 C790 1.351 . S
C790 C784 1.428 . S
C790 N789 1.351 . S
C790 C791 1.434 . S
C791 C782 1.429 . S
C791 N788 1.350 . S
C791 C790 1.434 . S
C792 C793 1.369 1_565 S
C792 C794 1.419 . S
C792 H796 0.930 . S
C793 C792 1.369 1_545 S
C793 C802 1.429 . S
C794 C792 1.419 . S
C794 C795 1.363 . S
C794 H797 0.929 . S
C795 C794 1.363 . S
C795 C801 1.428 1_565 S
H796 C792 0.930 . S
H797 C794 0.929 . S
S798 N799 1.613 . S
S798 N800 1.610 . S
N799 S798 1.613 . S
N799 C802 1.350 . S
N800 S798 1.610 . S
N800 C801 1.351 . S
C801 C795 1.428 1_545 S
C801 N800 1.351 . S
C801 C802 1.434 . S
C802 C793 1.429 . S
C802 N799 1.350 . S
C802 C801 1.434 . S
C803 C804 1.369 . S
C803 C805 1.419 . S
C803 H807 0.930 . S
C804 C803 1.369 . S
C804 C813 1.429 . S
C805 C803 1.419 . S
C805 C806 1.363 . S
C805 H808 0.929 . S
C806 C805 1.363 . S
C806 C812 1.428 . S
H807 C803 0.930 . S
H808 C805 0.929 . S
S809 N810 1.613 . S
S809 N811 1.610 . S
N810 S809 1.613 . S
N810 C813 1.350 . S
N811 S809 1.610 . S
N811 C812 1.351 . S
C812 C806 1.428 . S
C812 N811 1.351 . S
C812 C813 1.434 . S
C813 C804 1.429 . S
C813 N810 1.350 . S
C813 C812 1.434 . S
C814 C815 1.369 1_565 S
C814 C816 1.419 . S
C814 H818 0.930 . S
C815 C814 1.369 1_545 S
C815 C824 1.429 . S
C816 C814 1.419 . S
C816 C817 1.363 1_565 S
C816 H819 0.929 . S
C817 C816 1.363 1_545 S
C817 C823 1.428 . S
H818 C814 0.930 . S
H819 C816 0.929 . S
S820 N821 1.613 . S
S820 N822 1.610 . S
N821 S820 1.613 . S
N821 C824 1.350 . S
N822 S820 1.610 . S
N822 C823 1.351 . S
C823 C817 1.428 . S
C823 N822 1.351 . S
C823 C824 1.434 . S
C824 C815 1.429 . S
C824 N821 1.350 . S
C824 C823 1.434 . S
C825 C826 1.369 . S
C825 C827 1.419 . S
C825 H829 0.930 . S
C826 C825 1.369 . S
C826 C835 1.429 . S
C827 C825 1.419 . S
C827 C828 1.363 . S
C827 H830 0.929 . S
C828 C827 1.363 . S
C828 C834 1.428 . S
H829 C825 0.930 . S
H830 C827 0.929 . S
S831 N832 1.613 . S
S831 N833 1.610 . S
N832 S831 1.613 . S
N832 C835 1.350 . S
N833 S831 1.610 . S
N833 C834 1.351 . S
C834 C828 1.428 . S
C834 N833 1.351 . S
C834 C835 1.434 . S
C835 C826 1.429 . S
C835 N832 1.350 . S
C835 C834 1.434 . S
C836 C837 1.369 . S
C836 C838 1.419 . S
C836 H840 0.930 . S
C837 C836 1.369 . S
C837 C846 1.429 . S
C838 C836 1.419 . S
C838 C839 1.363 . S
C838 H841 0.929 . S
C839 C838 1.363 . S
C839 C845 1.428 . S
H840 C836 0.930 . S
H841 C838 0.929 . S
S842 N843 1.613 . S
S842 N844 1.610 . S
N843 S842 1.613 . S
N843 C846 1.350 . S
N844 S842 1.610 . S
N844 C845 1.351 . S
C845 C839 1.428 . S
C845 N844 1.351 . S
C845 C846 1.434 . S
C846 C837 1.429 . S
C846 N843 1.350 . S
C846 C845 1.434 . S
C847 C848 1.369 . S
C847 C849 1.419 . S
C847 H851 0.930 . S
C848 C847 1.369 . S
C848 C857 1.429 . S
C849 C847 1.419 . S
C849 C850 1.363 . S
C849 H852 0.929 . S
C850 C849 1.363 . S
C850 C856 1.428 . S
H851 C847 0.930 . S
H852 C849 0.929 . S
S853 N854 1.613 . S
S853 N855 1.610 . S
N854 S853 1.613 . S
N854 C857 1.350 . S
N855 S853 1.610 . S
N855 C856 1.351 . S
C856 C850 1.428 . S
C856 N855 1.351 . S
C856 C857 1.434 . S
C857 C848 1.429 . S
C857 N854 1.350 . S
C857 C856 1.434 . S
C858 C859 1.369 . S
C858 C860 1.419 . S
C858 H862 0.930 . S
C859 C858 1.369 . S
C859 C868 1.429 1_565 S
C860 C858 1.419 . S
C860 C861 1.363 . S
C860 H863 0.929 . S
C861 C860 1.363 . S
C861 C867 1.428 1_565 S
H862 C858 0.930 . S
H863 C860 0.929 . S
S864 N865 1.613 . S
S864 N866 1.610 . S
N865 S864 1.613 . S
N865 C868 1.350 . S
N866 S864 1.610 . S
N866 C867 1.351 . S
C867 C861 1.428 1_545 S
C867 N866 1.351 . S
C867 C868 1.434 . S
C868 C859 1.429 1_545 S
C868 N865 1.350 . S
C868 C867 1.434 . S
C869 C870 1.369 . S
C869 C871 1.419 . S
C869 H873 0.930 . S
C870 C869 1.369 . S
C870 C879 1.429 . S
C871 C869 1.419 . S
C871 C872 1.363 . S
C871 H874 0.929 . S
C872 C871 1.363 . S
C872 C878 1.428 . S
H873 C869 0.930 . S
H874 C871 0.929 . S
S875 N876 1.613 . S
S875 N877 1.610 . S
N876 S875 1.613 . S
N876 C879 1.350 . S
N877 S875 1.610 . S
N877 C878 1.351 . S
C878 C872 1.428 . S
C878 N877 1.351 . S
C878 C879 1.434 . S
C879 C870 1.429 . S
C879 N876 1.350 . S
C879 C878 1.434 . S
C880 C881 1.369 . S
C880 C882 1.419 . S
C880 H884 0.930 . S
C881 C880 1.369 . S
C881 C890 1.429 . S
C882 C880 1.419 . S
C882 C883 1.363 . S
C882 H885 0.929 . S
C883 C882 1.363 . S
C883 C889 1.428 1_554 S
H884 C880 0.930 . S
H885 C882 0.929 . S
S886 N887 1.613 . S
S886 N888 1.614 . S
N887 S886 1.613 . S
N887 C890 1.350 1_556 S
N888 S886 1.614 . S
N888 C889 1.372 . S
C889 C883 1.428 1_556 S
C889 N888 1.372 . S
C889 C890 1.434 1_556 S
C890 C881 1.429 . S
C890 N887 1.350 1_554 S
C890 C889 1.434 1_554 S
C891 C892 1.369 . S
C891 C893 1.419 . S
C891 H895 0.930 . S
C892 C891 1.369 . S
C892 C901 1.429 . S
C893 C891 1.419 . S
C893 C894 1.363 . S
C893 H896 0.929 . S
C894 C893 1.363 . S
C894 C900 1.428 . S
H895 C891 0.930 . S
H896 C893 0.929 . S
S897 N898 1.613 . S
S897 N899 1.610 . S
N898 S897 1.613 . S
N898 C901 1.350 . S
N899 S897 1.610 . S
N899 C900 1.351 . S
C900 C894 1.428 . S
C900 N899 1.351 . S
C900 C901 1.434 . S
C901 C892 1.429 . S
C901 N898 1.350 . S
C901 C900 1.434 . S
C902 C903 1.369 . S
C902 C904 1.419 . S
C902 H906 0.930 . S
C903 C902 1.369 . S
C903 C912 1.429 . S
C904 C902 1.419 . S
C904 C905 1.363 . S
C904 H907 0.929 . S
C905 C904 1.363 . S
C905 C911 1.428 . S
H906 C902 0.930 . S
H907 C904 0.929 . S
S908 N909 1.613 . S
S908 N910 1.610 . S
N909 S908 1.613 . S
N909 C912 1.350 . S
N910 S908 1.610 . S
N910 C911 1.351 . S
C911 C905 1.428 . S
C911 N910 1.351 . S
C911 C912 1.434 . S
C912 C903 1.429 . S
C912 N909 1.350 . S
C912 C911 1.434 . S
C913 C914 1.369 . S
C913 C915 1.419 . S
C913 H917 0.930 . S
C914 C913 1.369 . S
C914 C923 1.429 . S
C915 C913 1.419 . S
C915 C916 1.363 . S
C915 H918 0.929 . S
C916 C915 1.363 . S
C916 C922 1.428 . S
H917 C913 0.930 . S
H918 C915 0.929 . S
S919 N920 1.613 . S
S919 N921 1.610 . S
N920 S919 1.613 . S
N920 C923 1.350 . S
N921 S919 1.610 . S
N921 C922 1.351 . S
C922 C916 1.428 . S
C922 N921 1.351 . S
C922 C923 1.434 . S
C923 C914 1.429 . S
C923 N920 1.350 . S
C923 C922 1.434 . S
C924 C925 1.369 . S
C924 C926 1.419 . S
C924 H928 0.930 . S
C925 C924 1.369 . S
C925 C934 1.429 . S
C926 C924 1.419 . S
C926 C927 1.363 . S
C926 H929 0.929 . S
C927 C926 1.363 . S
C927 C933 1.428 . S
H928 C924 0.930 . S
H929 C926 0.929 . S
S930 N931 1.613 . S
S930 N932 1.610 . S
N931 S930 1.613 . S
N931 C934 1.350 . S
N932 S930 1.610 . S
N932 C933 1.351 . S
C933 C927 1.428 . S
C933 N932 1.351 . S
C933 C934 1.434 . S
C934 C925 1.429 . S
C934 N931 1.350 . S
C934 C933 1.434 . S
C935 C936 1.369 . S
C935 C937 1.419 . S
C935 H939 0.930 . S
C936 C935 1.369 . S
C936 C945 1.429 . S
C937 C935 1.419 . S
C937 C938 1.363 . S
C937 H940 0.929 . S
C938 C937 1.363 . S
C938 C944 1.428 . S
H939 C935 0.930 . S
H940 C937 0.929 . S
S941 N942 1.613 1_545 S
S941 N943 1.610 . S
N942 S941 1.613 1_565 S
N942 C945 1.350 . S
N943 S941 1.610 . S
N943 C944 1.351 1_545 S
C944 C938 1.428 . S
C944 N943 1.351 1_565 S
C944 C945 1.434 . S
C945 C936 1.429 . S
C945 N942 1.350 . S
C945 C944 1.434 . S
C946 C947 1.369 . S
C946 C948 1.419 . S
C946 H950 0.930 . S
C947 C946 1.369 . S
C947 C956 1.429 . S
C948 C946 1.419 . S
C948 C949 1.363 . S
C948 H951 0.929 . S
C949 C948 1.363 . S
C949 C955 1.428 . S
H950 C946 0.930 . S
H951 C948 0.929 . S
S952 N953 1.613 . S
S952 N954 1.610 . S
N953 S952 1.613 . S
N953 C956 1.350 . S
N954 S952 1.610 . S
N954 C955 1.351 . S
C955 C949 1.428 . S
C955 N954 1.351 . S
C955 C956 1.434 . S
C956 C947 1.429 . S
C956 N953 1.350 . S
C956 C955 1.434 . S
C957 C958 1.369 . S
C957 C959 1.419 . S
C957 H961 0.930 . S
C958 C957 1.369 . S
C958 C967 1.429 . S
C959 C957 1.419 . S
C959 C960 1.363 . S
C959 H962 0.929 . S
C960 C959 1.363 . S
C960 C966 1.428 . S
H961 C957 0.930 . S
H962 C959 0.929 . S
S963 N964 1.613 . S
S963 N965 1.610 . S
N964 S963 1.613 . S
N964 C967 1.350 . S
N965 S963 1.610 . S
N965 C966 1.351 . S
C966 C960 1.428 . S
C966 N965 1.351 . S
C966 C967 1.434 . S
C967 C958 1.429 . S
C967 N964 1.350 . S
C967 C966 1.434 . S
C968 C969 1.369 . S
C968 C970 1.419 . S
C968 H972 0.930 . S
C969 C968 1.369 . S
C969 C978 1.429 1_455 S
C970 C968 1.419 . S
C970 C971 1.363 . S
C970 H973 0.929 . S
C971 C970 1.363 . S
C971 C977 1.428 . S
H972 C968 0.930 . S
H973 C970 0.929 . S
S974 N975 1.613 . S
S974 N976 1.610 . S
N975 S974 1.613 . S
N975 C978 1.350 . S
N976 S974 1.610 . S
N976 C977 1.351 1_655 S
C977 C971 1.428 . S
C977 N976 1.351 1_455 S
C977 C978 1.434 1_455 S
C978 C969 1.429 1_655 S
C978 N975 1.350 . S
C978 C977 1.434 1_655 S
C979 C980 1.369 . S
C979 C981 1.419 . S
C979 H983 0.930 . S
C980 C979 1.369 . S
C980 C989 1.429 . S
C981 C979 1.419 . S
C981 C982 1.363 . S
C981 H984 0.929 . S
C982 C981 1.363 . S
C982 C988 1.428 . S
H983 C979 0.930 . S
H984 C981 0.929 . S
S985 N986 1.613 . S
S985 N987 1.610 . S
N986 S985 1.613 . S
N986 C989 1.350 . S
N987 S985 1.610 . S
N987 C988 1.351 . S
C988 C982 1.428 . S
C988 N987 1.351 . S
C988 C989 1.434 . S
C989 C980 1.429 . S
C989 N986 1.350 . S
C989 C988 1.434 . S
C990 C991 1.369 . S
C990 C992 1.419 . S
C990 H994 0.930 . S
C991 C990 1.369 . S
C991 C1000 1.429 . S
C992 C990 1.419 . S
C992 C993 1.363 . S
C992 H995 0.929 . S
C993 C992 1.363 . S
C993 C999 1.428 . S
H994 C990 0.930 . S
H995 C992 0.929 . S
S996 N997 1.613 . S
S996 N998 1.610 . S
N997 S996 1.613 . S
N997 C1000 1.350 . S
N998 S996 1.610 . S
N998 C999 1.351 . S
C999 C993 1.428 . S
C999 N998 1.351 . S
C999 C1000 1.434 . S
C1000 C991 1.429 . S
C1000 N997 1.350 . S
C1000 C999 1.434 . S
C1001 C1002 1.369 . S
C1001 C1003 1.419 . S
C1001 H1005 0.930 . S
C1002 C1001 1.369 . S
C1002 C1011 1.429 . S
C1003 C1001 1.419 . S
C1003 C1004 1.363 . S
C1003 H1006 0.929 . S
C1004 C1003 1.363 . S
C1004 C1010 1.428 . S
H1005 C1001 0.930 . S
H1006 C1003 0.929 . S
S1007 N1008 1.613 . S
S1007 N1009 1.610 . S
N1008 S1007 1.613 . S
N1008 C1011 1.350 . S
N1009 S1007 1.610 . S
N1009 C1010 1.351 . S
C1010 C1004 1.428 . S
C1010 N1009 1.351 . S
C1010 C1011 1.434 . S
C1011 C1002 1.429 . S
C1011 N1008 1.350 . S
C1011 C1010 1.434 . S
C1012 C1013 1.369 1_655 S
C1012 C1014 1.419 1_655 S
C1012 H1016 0.930 . S
C1013 C1012 1.369 1_455 S
C1013 C1022 1.429 . S
C1014 C1012 1.419 1_455 S
C1014 C1015 1.363 . S
C1014 H1017 0.929 1_455 S
C1015 C1014 1.363 . S
C1015 C1021 1.428 . S
H1016 C1012 0.930 . S
H1017 C1014 0.929 1_655 S
S1018 N1019 1.613 . S
S1018 N1020 1.610 . S
N1019 S1018 1.613 . S
N1019 C1022 1.350 . S
N1020 S1018 1.610 . S
N1020 C1021 1.351 . S
C1021 C1015 1.428 . S
C1021 N1020 1.351 . S
C1021 C1022 1.434 . S
C1022 C1013 1.429 . S
C1022 N1019 1.350 . S
C1022 C1021 1.434 . S
C1023 C1024 1.369 . S
C1023 C1025 1.419 . S
C1023 H1027 0.930 . S
C1024 C1023 1.369 . S
C1024 C1033 1.429 . S
C1025 C1023 1.419 . S
C1025 C1026 1.363 . S
C1025 H1028 0.929 . S
C1026 C1025 1.363 . S
C1026 C1032 1.428 . S
H1027 C1023 0.930 . S
H1028 C1025 0.929 . S
S1029 N1030 1.613 . S
S1029 N1031 1.610 . S
N1030 S1029 1.613 . S
N1030 C1033 1.350 . S
N1031 S1029 1.610 . S
N1031 C1032 1.351 . S
C1032 C1026 1.428 . S
C1032 N1031 1.351 . S
C1032 C1033 1.434 . S
C1033 C1024 1.429 . S
C1033 N1030 1.350 . S
C1033 C1032 1.434 . S
C1034 C1035 1.369 . S
C1034 C1036 1.419 . S
C1034 H1038 0.930 . S
C1035 C1034 1.369 . S
C1035 C1044 1.429 . S
C1036 C1034 1.419 . S
C1036 C1037 1.363 . S
C1036 H1039 0.929 . S
C1037 C1036 1.363 . S
C1037 C1043 1.428 . S
H1038 C1034 0.930 . S
H1039 C1036 0.929 . S
S1040 N1041 1.613 . S
S1040 N1042 1.610 . S
N1041 S1040 1.613 . S
N1041 C1044 1.350 . S
N1042 S1040 1.610 . S
N1042 C1043 1.351 . S
C1043 C1037 1.428 . S
C1043 N1042 1.351 . S
C1043 C1044 1.434 . S
C1044 C1035 1.429 . S
C1044 N1041 1.350 . S
C1044 C1043 1.434 . S
C1045 C1046 1.369 . S
C1045 C1047 1.419 . S
C1045 H1049 0.930 . S
C1046 C1045 1.369 . S
C1046 C1055 1.429 . S
C1047 C1045 1.419 . S
C1047 C1048 1.363 . S
C1047 H1050 0.929 . S
C1048 C1047 1.363 . S
C1048 C1054 1.428 . S
H1049 C1045 0.930 . S
H1050 C1047 0.929 . S
S1051 N1052 1.613 . S
S1051 N1053 1.610 . S
N1052 S1051 1.613 . S
N1052 C1055 1.350 . S
N1053 S1051 1.610 . S
N1053 C1054 1.351 . S
C1054 C1048 1.428 . S
C1054 N1053 1.351 . S
C1054 C1055 1.434 . S
C1055 C1046 1.429 . S
C1055 N1052 1.350 . S
C1055 C1054 1.434 . S
C1056 C1057 1.369 . S
C1056 C1058 1.419 . S
C1056 H1060 0.930 1_545 S
C1057 C1056 1.369 . S
C1057 C1066 1.429 . S
C1058 C1056 1.419 . S
C1058 C1059 1.363 . S
C1058 H1061 0.929 . S
C1059 C1058 1.363 . S
C1059 C1065 1.428 . S
H1060 C1056 0.930 1_565 S
H1061 C1058 0.929 . S
S1062 N1063 1.613 1_455 S
S1062 N1064 1.610 . S
N1063 S1062 1.613 1_655 S
N1063 C1066 1.350 . S
N1064 S1062 1.610 . S
N1064 C1065 1.351 1_455 S
C1065 C1059 1.428 . S
C1065 N1064 1.351 1_655 S
C1065 C1066 1.434 . S
C1066 C1057 1.429 . S
C1066 N1063 1.350 . S
C1066 C1065 1.434 . S
C1067 C1068 1.369 . S
C1067 C1069 1.419 . S
C1067 H1071 0.930 . S
C1068 C1067 1.369 . S
C1068 C1077 1.429 . S
C1069 C1067 1.419 . S
C1069 C1070 1.363 . S
C1069 H1072 0.929 . S
C1070 C1069 1.363 . S
C1070 C1076 1.428 . S
H1071 C1067 0.930 . S
H1072 C1069 0.929 . S
S1073 N1074 1.613 . S
S1073 N1075 1.610 . S
N1074 S1073 1.613 . S
N1074 C1077 1.350 . S
N1075 S1073 1.610 . S
N1075 C1076 1.351 . S
C1076 C1070 1.428 . S
C1076 N1075 1.351 . S
C1076 C1077 1.434 . S
C1077 C1068 1.429 . S
C1077 N1074 1.350 . S
C1077 C1076 1.434 . S
C1078 C1079 1.369 . S
C1078 C1080 1.419 1_545 S
C1078 H1082 0.930 . S
C1079 C1078 1.369 . S
C1079 C1088 1.429 1_545 S
C1080 C1078 1.419 1_565 S
C1080 C1081 1.363 . S
C1080 H1083 0.930 . S
C1081 C1080 1.363 . S
C1081 C1087 1.428 . S
H1082 C1078 0.930 . S
H1083 C1080 0.930 . S
S1084 N1085 1.613 . S
S1084 N1086 1.610 . S
N1085 S1084 1.613 . S
N1085 C1088 1.350 . S
N1086 S1084 1.610 . S
N1086 C1087 1.351 . S
C1087 C1081 1.428 . S
C1087 N1086 1.351 . S
C1087 C1088 1.434 . S
C1088 C1079 1.429 1_565 S
C1088 N1085 1.350 . S
C1088 C1087 1.434 . S
C1089 C1090 1.369 . S
C1089 C1091 1.419 . S
C1089 H1093 0.930 . S
C1090 C1089 1.369 . S
C1090 C1099 1.429 . S
C1091 C1089 1.419 . S
C1091 C1092 1.363 . S
C1091 H1094 0.929 . S
C1092 C1091 1.363 . S
C1092 C1098 1.428 . S
H1093 C1089 0.930 . S
H1094 C1091 0.929 . S
S1095 N1096 1.613 . S
S1095 N1097 1.610 . S
N1096 S1095 1.613 . S
N1096 C1099 1.350 . S
N1097 S1095 1.610 . S
N1097 C1098 1.351 . S
C1098 C1092 1.428 . S
C1098 N1097 1.351 . S
C1098 C1099 1.434 . S
C1099 C1090 1.429 . S
C1099 N1096 1.350 . S
C1099 C1098 1.434 . S
C1100 C1101 1.369 1_565 S
C1100 C1102 1.419 . S
C1100 H1104 0.930 . S
C1101 C1100 1.369 1_545 S
C1101 C1110 1.429 . S
C1102 C1100 1.419 . S
C1102 C1103 1.363 . S
C1102 H1105 0.929 . S
C1103 C1102 1.363 . S
C1103 C1109 1.428 1_565 S
H1104 C1100 0.930 . S
H1105 C1102 0.929 . S
S1106 N1107 1.613 . S
S1106 N1108 1.610 . S
N1107 S1106 1.613 . S
N1107 C1110 1.350 . S
N1108 S1106 1.610 . S
N1108 C1109 1.351 . S
C1109 C1103 1.428 1_545 S
C1109 N1108 1.351 . S
C1109 C1110 1.434 . S
C1110 C1101 1.429 . S
C1110 N1107 1.350 . S
C1110 C1109 1.434 . S
C1111 C1112 1.369 . S
C1111 C1113 1.419 . S
C1111 H1115 0.930 . S
C1112 C1111 1.369 . S
C1112 C1121 1.429 . S
C1113 C1111 1.419 . S
C1113 C1114 1.363 . S
C1113 H1116 0.929 . S
C1114 C1113 1.363 . S
C1114 C1120 1.428 . S
H1115 C1111 0.930 . S
H1116 C1113 0.929 . S
S1117 N1118 1.613 . S
S1117 N1119 1.610 . S
N1118 S1117 1.613 . S
N1118 C1121 1.350 . S
N1119 S1117 1.610 . S
N1119 C1120 1.351 . S
C1120 C1114 1.428 . S
C1120 N1119 1.351 . S
C1120 C1121 1.434 . S
C1121 C1112 1.429 . S
C1121 N1118 1.350 . S
C1121 C1120 1.434 . S
C1122 C1123 1.369 . S
C1122 C1124 1.419 . S
C1122 H1126 0.930 . S
C1123 C1122 1.369 . S
C1123 C1132 1.429 . S
C1124 C1122 1.419 . S
C1124 C1125 1.363 . S
C1124 H1127 0.929 . S
C1125 C1124 1.363 . S
C1125 C1131 1.428 . S
H1126 C1122 0.930 . S
H1127 C1124 0.929 . S
S1128 N1129 1.613 . S
S1128 N1130 1.610 . S
N1129 S1128 1.613 . S
N1129 C1132 1.350 . S
N1130 S1128 1.610 . S
N1130 C1131 1.351 . S
C1131 C1125 1.428 . S
C1131 N1130 1.351 . S
C1131 C1132 1.434 . S
C1132 C1123 1.429 . S
C1132 N1129 1.350 . S
C1132 C1131 1.434 . S
C1133 C1134 1.369 . S
C1133 C1135 1.419 . S
C1133 H1137 0.930 . S
C1134 C1133 1.369 . S
C1134 C1143 1.429 . S
C1135 C1133 1.419 . S
C1135 C1136 1.363 . S
C1135 H1138 0.929 . S
C1136 C1135 1.363 . S
C1136 C1142 1.428 . S
H1137 C1133 0.930 . S
H1138 C1135 0.929 . S
S1139 N1140 1.613 . S
S1139 N1141 1.610 . S
N1140 S1139 1.613 . S
N1140 C1143 1.350 . S
N1141 S1139 1.610 . S
N1141 C1142 1.351 . S
C1142 C1136 1.428 . S
C1142 N1141 1.351 . S
C1142 C1143 1.434 . S
C1143 C1134 1.429 . S
C1143 N1140 1.350 . S
C1143 C1142 1.434 . S
C1144 C1145 1.369 . S
C1144 C1146 1.419 . S
C1144 H1148 0.930 . S
C1145 C1144 1.369 . S
C1145 C1154 1.429 . S
C1146 C1144 1.419 . S
C1146 C1147 1.363 . S
C1146 H1149 0.929 . S
C1147 C1146 1.363 . S
C1147 C1153 1.428 . S
H1148 C1144 0.930 . S
H1149 C1146 0.929 . S
S1150 N1151 1.613 . S
S1150 N1152 1.610 . S
N1151 S1150 1.613 . S
N1151 C1154 1.350 . S
N1152 S1150 1.610 . S
N1152 C1153 1.351 . S
C1153 C1147 1.428 . S
C1153 N1152 1.351 . S
C1153 C1154 1.434 . S
C1154 C1145 1.429 . S
C1154 N1151 1.350 . S
C1154 C1153 1.434 . S
C1155 C1156 1.369 . S
C1155 C1157 1.419 . S
C1155 H1159 0.930 . S
C1156 C1155 1.369 . S
C1156 C1165 1.418 1_554 S
C1157 C1155 1.419 . S
C1157 C1158 1.356 1_554 S
C1157 H1160 0.929 . S
C1158 C1157 1.356 1_556 S
C1158 C1164 1.432 . S
H1159 C1155 0.930 . S
H1160 C1157 0.929 . S
S1161 N1162 1.613 . S
S1161 N1163 1.610 . S
N1162 S1161 1.613 . S
N1162 C1165 1.355 . S
N1163 S1161 1.610 . S
N1163 C1164 1.351 . S
C1164 C1158 1.432 . S
C1164 N1163 1.351 . S
C1164 C1165 1.439 . S
C1165 C1156 1.418 1_556 S
C1165 N1162 1.355 . S
C1165 C1164 1.439 . S
C1166 C1167 1.369 . S
C1166 C1168 1.419 . S
C1166 H1170 0.930 . S
C1167 C1166 1.369 . S
C1167 C1176 1.429 . S
C1168 C1166 1.419 . S
C1168 C1169 1.363 . S
C1168 H1171 0.929 . S
C1169 C1168 1.363 . S
C1169 C1175 1.428 . S
H1170 C1166 0.930 . S
H1171 C1168 0.929 . S
S1172 N1173 1.613 . S
S1172 N1174 1.610 . S
N1173 S1172 1.613 . S
N1173 C1176 1.350 . S
N1174 S1172 1.610 . S
N1174 C1175 1.351 . S
C1175 C1169 1.428 . S
C1175 N1174 1.351 . S
C1175 C1176 1.434 . S
C1176 C1167 1.429 . S
C1176 N1173 1.350 . S
C1176 C1175 1.434 . S
C1177 C1178 1.369 . S
C1177 C1179 1.419 . S
C1177 H1181 0.930 . S
C1178 C1177 1.369 . S
C1178 C1187 1.429 . S
C1179 C1177 1.419 . S
C1179 C1180 1.363 . S
C1179 H1182 0.929 . S
C1180 C1179 1.363 . S
C1180 C1186 1.428 . S
H1181 C1177 0.930 . S
H1182 C1179 0.929 . S
S1183 N1184 1.613 . S
S1183 N1185 1.610 . S
N1184 S1183 1.613 . S
N1184 C1187 1.350 . S
N1185 S1183 1.610 . S
N1185 C1186 1.351 . S
C1186 C1180 1.428 . S
C1186 N1185 1.351 . S
C1186 C1187 1.434 . S
C1187 C1178 1.429 . S
C1187 N1184 1.350 . S
C1187 C1186 1.434 . S
C1188 C1189 1.369 . S
C1188 C1190 1.419 . S
C1188 H1192 0.930 . S
C1189 C1188 1.369 . S
C1189 C1198 1.429 . S
C1190 C1188 1.419 . S
C1190 C1191 1.363 . S
C1190 H1193 0.929 . S
C1191 C1190 1.363 . S
C1191 C1197 1.428 . S
H1192 C1188 0.930 . S
H1193 C1190 0.929 . S
S1194 N1195 1.613 . S
S1194 N1196 1.610 . S
N1195 S1194 1.613 . S
N1195 C1198 1.350 . S
N1196 S1194 1.610 . S
N1196 C1197 1.351 . S
C1197 C1191 1.428 . S
C1197 N1196 1.351 . S
C1197 C1198 1.434 . S
C1198 C1189 1.429 . S
C1198 N1195 1.350 . S
C1198 C1197 1.434 . S
C1199 C1200 1.369 . S
C1199 C1201 1.419 . S
C1199 H1203 0.930 . S
C1200 C1199 1.369 . S
C1200 C1209 1.429 . S
C1201 C1199 1.419 . S
C1201 C1202 1.363 . S
C1201 H1204 0.929 . S
C1202 C1201 1.363 . S
C1202 C1208 1.428 . S
H1203 C1199 0.930 . S
H1204 C1201 0.929 . S
S1205 N1206 1.613 . S
S1205 N1207 1.610 . S
N1206 S1205 1.613 . S
N1206 C1209 1.350 . S
N1207 S1205 1.610 . S
N1207 C1208 1.351 . S
C1208 C1202 1.428 . S
C1208 N1207 1.351 . S
C1208 C1209 1.434 . S
C1209 C1200 1.429 . S
C1209 N1206 1.350 . S
C1209 C1208 1.434 . S
C1210 C1211 1.369 . S
C1210 C1212 1.419 . S
C1210 H1214 0.930 . S
C1211 C1210 1.369 . S
C1211 C1220 1.429 . S
C1212 C1210 1.419 . S
C1212 C1213 1.363 . S
C1212 H1215 0.929 . S
C1213 C1212 1.363 . S
C1213 C1219 1.428 . S
H1214 C1210 0.930 . S
H1215 C1212 0.929 . S
S1216 N1217 1.613 . S
S1216 N1218 1.610 . S
N1217 S1216 1.613 . S
N1217 C1220 1.350 . S
N1218 S1216 1.610 . S
N1218 C1219 1.351 . S
C1219 C1213 1.428 . S
C1219 N1218 1.351 . S
C1219 C1220 1.434 . S
C1220 C1211 1.429 . S
C1220 N1217 1.350 . S
C1220 C1219 1.434 . S
C1221 C1222 1.369 . S
C1221 C1223 1.419 . S
C1221 H1225 0.930 . S
C1222 C1221 1.369 . S
C1222 C1231 1.429 . S
C1223 C1221 1.419 . S
C1223 C1224 1.363 . S
C1223 H1226 0.929 . S
C1224 C1223 1.363 . S
C1224 C1230 1.428 . S
H1225 C1221 0.930 . S
H1226 C1223 0.929 . S
S1227 N1228 1.613 . S
S1227 N1229 1.610 . S
N1228 S1227 1.613 . S
N1228 C1231 1.350 . S
N1229 S1227 1.610 . S
N1229 C1230 1.351 . S
C1230 C1224 1.428 . S
C1230 N1229 1.351 . S
C1230 C1231 1.434 . S
C1231 C1222 1.429 . S
C1231 N1228 1.350 . S
C1231 C1230 1.434 . S
C1232 C1233 1.369 . S
C1232 C1234 1.419 . S
C1232 H1236 0.930 . S
C1233 C1232 1.369 . S
C1233 C1242 1.429 . S
C1234 C1232 1.419 . S
C1234 C1235 1.363 . S
C1234 H1237 0.929 . S
C1235 C1234 1.363 . S
C1235 C1241 1.428 . S
H1236 C1232 0.930 . S
H1237 C1234 0.929 . S
S1238 N1239 1.613 . S
S1238 N1240 1.610 . S
N1239 S1238 1.613 . S
N1239 C1242 1.350 . S
N1240 S1238 1.610 . S
N1240 C1241 1.351 . S
C1241 C1235 1.428 . S
C1241 N1240 1.351 . S
C1241 C1242 1.434 . S
C1242 C1233 1.429 . S
C1242 N1239 1.350 . S
C1242 C1241 1.434 . S
C1243 C1244 1.369 . S
C1243 C1245 1.419 . S
C1243 H1247 0.930 . S
C1244 C1243 1.369 . S
C1244 C1253 1.429 . S
C1245 C1243 1.419 . S
C1245 C1246 1.363 . S
C1245 H1248 0.929 . S
C1246 C1245 1.363 . S
C1246 C1252 1.428 . S
H1247 C1243 0.930 . S
H1248 C1245 0.929 . S
S1249 N1250 1.613 . S
S1249 N1251 1.610 . S
N1250 S1249 1.613 . S
N1250 C1253 1.350 . S
N1251 S1249 1.610 . S
N1251 C1252 1.351 . S
C1252 C1246 1.428 . S
C1252 N1251 1.351 . S
C1252 C1253 1.434 . S
C1253 C1244 1.429 . S
C1253 N1250 1.350 . S
C1253 C1252 1.434 . S
C1254 C1255 1.369 . S
C1254 C1256 1.419 . S
C1254 H1258 0.930 . S
C1255 C1254 1.369 . S
C1255 C1264 1.429 . S
C1256 C1254 1.419 . S
C1256 C1257 1.363 . S
C1256 H1259 0.929 . S
C1257 C1256 1.363 . S
C1257 C1263 1.428 . S
H1258 C1254 0.930 . S
H1259 C1256 0.929 . S
S1260 N1261 1.613 . S
S1260 N1262 1.610 . S
N1261 S1260 1.613 . S
N1261 C1264 1.350 1_655 S
N1262 S1260 1.610 . S
N1262 C1263 1.351 1_655 S
C1263 C1257 1.428 . S
C1263 N1262 1.351 1_455 S
C1263 C1264 1.434 . S
C1264 C1255 1.429 . S
C1264 N1261 1.350 1_455 S
C1264 C1263 1.434 . S
C1265 C1266 1.369 . S
C1265 C1267 1.419 . S
C1265 H1269 0.930 . S
C1266 C1265 1.369 . S
C1266 C1275 1.429 . S
C1267 C1265 1.419 . S
C1267 C1268 1.363 . S
C1267 H1270 0.929 . S
C1268 C1267 1.363 . S
C1268 C1274 1.428 . S
H1269 C1265 0.930 . S
H1270 C1267 0.929 . S
S1271 N1272 1.613 . S
S1271 N1273 1.610 . S
N1272 S1271 1.613 . S
N1272 C1275 1.350 . S
N1273 S1271 1.610 . S
N1273 C1274 1.351 . S
C1274 C1268 1.428 . S
C1274 N1273 1.351 . S
C1274 C1275 1.434 . S
C1275 C1266 1.429 . S
C1275 N1272 1.350 . S
C1275 C1274 1.434 . S
C1276 C1277 1.369 . S
C1276 C1278 1.419 . S
C1276 H1280 0.930 . S
C1277 C1276 1.369 . S
C1277 C1286 1.429 . S
C1278 C1276 1.419 . S
C1278 C1279 1.363 . S
C1278 H1281 0.929 . S
C1279 C1278 1.363 . S
C1279 C1285 1.428 . S
H1280 C1276 0.930 . S
H1281 C1278 0.929 . S
S1282 N1283 1.608 1_554 S
S1282 N1284 1.612 . S
N1283 S1282 1.608 1_556 S
N1283 C1286 1.350 . S
N1284 S1282 1.612 . S
N1284 C1285 1.351 1_554 S
C1285 C1279 1.428 . S
C1285 N1284 1.351 1_556 S
C1285 C1286 1.434 . S
C1286 C1277 1.429 . S
C1286 N1283 1.350 . S
C1286 C1285 1.434 . S
C1287 C1288 1.369 . S
C1287 C1289 1.419 . S
C1287 H1291 0.930 . S
C1288 C1287 1.369 . S
C1288 C1297 1.429 . S
C1289 C1287 1.419 . S
C1289 C1290 1.363 . S
C1289 H1292 0.929 . S
C1290 C1289 1.363 . S
C1290 C1296 1.428 . S
H1291 C1287 0.930 . S
H1292 C1289 0.929 . S
S1293 N1294 1.613 . S
S1293 N1295 1.610 . S
N1294 S1293 1.613 . S
N1294 C1297 1.350 . S
N1295 S1293 1.610 . S
N1295 C1296 1.351 . S
C1296 C1290 1.428 . S
C1296 N1295 1.351 . S
C1296 C1297 1.434 . S
C1297 C1288 1.429 . S
C1297 N1294 1.350 . S
C1297 C1296 1.434 . S
C1298 C1299 1.369 1_655 S
C1298 C1300 1.419 1_655 S
C1298 H1302 0.930 . S
C1299 C1298 1.369 1_455 S
C1299 C1308 1.429 . S
C1300 C1298 1.419 1_455 S
C1300 C1301 1.363 . S
C1300 H1303 0.929 1_455 S
C1301 C1300 1.363 . S
C1301 C1307 1.428 . S
H1302 C1298 0.930 . S
H1303 C1300 0.929 1_655 S
S1304 N1305 1.613 . S
S1304 N1306 1.610 . S
N1305 S1304 1.613 . S
N1305 C1308 1.350 . S
N1306 S1304 1.610 . S
N1306 C1307 1.351 . S
C1307 C1301 1.428 . S
C1307 N1306 1.351 . S
C1307 C1308 1.434 . S
C1308 C1299 1.429 . S
C1308 N1305 1.350 . S
C1308 C1307 1.434 . S
C1309 C1310 1.369 . S
C1309 C1311 1.419 . S
C1309 H1313 0.930 . S
C1310 C1309 1.369 . S
C1310 C1319 1.429 . S
C1311 C1309 1.419 . S
C1311 C1312 1.363 . S
C1311 H1314 0.929 . S
C1312 C1311 1.363 . S
C1312 C1318 1.428 . S
H1313 C1309 0.930 . S
H1314 C1311 0.929 . S
S1315 N1316 1.613 . S
S1315 N1317 1.610 . S
N1316 S1315 1.613 . S
N1316 C1319 1.350 . S
N1317 S1315 1.610 . S
N1317 C1318 1.351 . S
C1318 C1312 1.428 . S
C1318 N1317 1.351 . S
C1318 C1319 1.434 . S
C1319 C1310 1.429 . S
C1319 N1316 1.350 . S
C1319 C1318 1.434 . S
C1320 C1321 1.369 . S
C1320 C1322 1.419 . S
C1320 H1324 0.930 . S
C1321 C1320 1.369 . S
C1321 C1330 1.429 . S
C1322 C1320 1.419 . S
C1322 C1323 1.363 . S
C1322 H1325 0.929 . S
C1323 C1322 1.363 . S
C1323 C1329 1.428 . S
H1324 C1320 0.930 . S
H1325 C1322 0.929 . S
S1326 N1327 1.613 . S
S1326 N1328 1.610 . S
N1327 S1326 1.613 . S
N1327 C1330 1.350 . S
N1328 S1326 1.610 . S
N1328 C1329 1.351 . S
C1329 C1323 1.428 . S
C1329 N1328 1.351 . S
C1329 C1330 1.434 . S
C1330 C1321 1.429 . S
C1330 N1327 1.350 . S
C1330 C1329 1.434 . S
C1331 C1332 1.369 . S
C1331 C1333 1.419 . S
C1331 H1335 0.930 . S
C1332 C1331 1.369 . S
C1332 C1341 1.429 . S
C1333 C1331 1.419 . S
C1333 C1334 1.363 . S
C1333 H1336 0.929 . S
C1334 C1333 1.363 . S
C1334 C1340 1.428 . S
H1335 C1331 0.930 . S
H1336 C1333 0.929 . S
S1337 N1338 1.613 . S
S1337 N1339 1.610 . S
N1338 S1337 1.613 . S
N1338 C1341 1.350 . S
N1339 S1337 1.610 . S
N1339 C1340 1.351 . S
C1340 C1334 1.428 . S
C1340 N1339 1.351 . S
C1340 C1341 1.434 . S
C1341 C1332 1.429 . S
C1341 N1338 1.350 . S
C1341 C1340 1.434 . S
C1342 C1343 1.369 . S
C1342 C1344 1.419 . S
C1342 H1346 0.930 . S
C1343 C1342 1.369 . S
C1343 C1352 1.429 . S
C1344 C1342 1.419 . S
C1344 C1345 1.363 . S
C1344 H1347 0.929 . S
C1345 C1344 1.363 . S
C1345 C1351 1.428 . S
H1346 C1342 0.930 . S
H1347 C1344 0.929 . S
S1348 N1349 1.613 . S
S1348 N1350 1.610 . S
N1349 S1348 1.613 . S
N1349 C1352 1.350 . S
N1350 S1348 1.610 . S
N1350 C1351 1.351 . S
C1351 C1345 1.428 . S
C1351 N1350 1.351 . S
C1351 C1352 1.434 . S
C1352 C1343 1.429 . S
C1352 N1349 1.350 . S
C1352 C1351 1.434 . S
C1353 C1354 1.369 . S
C1353 C1355 1.419 . S
C1353 H1357 0.930 . S
C1354 C1353 1.369 . S
C1354 C1363 1.429 . S
C1355 C1353 1.419 . S
C1355 C1356 1.363 . S
C1355 H1358 0.929 . S
C1356 C1355 1.363 . S
C1356 C1362 1.428 . S
H1357 C1353 0.930 . S
H1358 C1355 0.929 . S
S1359 N1360 1.613 . S
S1359 N1361 1.610 . S
N1360 S1359 1.613 . S
N1360 C1363 1.350 . S
N1361 S1359 1.610 . S
N1361 C1362 1.351 . S
C1362 C1356 1.428 . S
C1362 N1361 1.351 . S
C1362 C1363 1.434 . S
C1363 C1354 1.429 . S
C1363 N1360 1.350 . S
C1363 C1362 1.434 . S
C1364 C1365 1.369 . S
C1364 C1366 1.419 . S
C1364 H1368 0.930 . S
C1365 C1364 1.369 . S
C1365 C1374 1.429 . S
C1366 C1364 1.419 . S
C1366 C1367 1.363 . S
C1366 H1369 0.929 . S
C1367 C1366 1.363 . S
C1367 C1373 1.428 . S
H1368 C1364 0.930 . S
H1369 C1366 0.929 . S
S1370 N1371 1.613 . S
S1370 N1372 1.610 . S
N1371 S1370 1.613 . S
N1371 C1374 1.350 . S
N1372 S1370 1.610 . S
N1372 C1373 1.351 . S
C1373 C1367 1.428 . S
C1373 N1372 1.351 . S
C1373 C1374 1.434 . S
C1374 C1365 1.429 . S
C1374 N1371 1.350 . S
C1374 C1373 1.434 . S
C1375 C1376 1.369 . S
C1375 C1377 1.419 . S
C1375 H1379 0.930 . S
C1376 C1375 1.369 . S
C1376 C1385 1.429 . S
C1377 C1375 1.419 . S
C1377 C1378 1.363 . S
C1377 H1380 0.929 . S
C1378 C1377 1.363 . S
C1378 C1384 1.428 . S
H1379 C1375 0.930 . S
H1380 C1377 0.929 . S
S1381 N1382 1.613 . S
S1381 N1383 1.610 . S
N1382 S1381 1.613 . S
N1382 C1385 1.350 . S
N1383 S1381 1.610 . S
N1383 C1384 1.351 . S
C1384 C1378 1.428 . S
C1384 N1383 1.351 . S
C1384 C1385 1.434 . S
C1385 C1376 1.429 . S
C1385 N1382 1.350 . S
C1385 C1384 1.434 . S
C1386 C1387 1.369 . S
C1386 C1388 1.419 . S
C1386 H1390 0.930 . S
C1387 C1386 1.369 . S
C1387 C1396 1.429 . S
C1388 C1386 1.419 . S
C1388 C1389 1.363 . S
C1388 H1391 0.929 . S
C1389 C1388 1.363 . S
C1389 C1395 1.428 . S
H1390 C1386 0.930 . S
H1391 C1388 0.929 . S
S1392 N1393 1.613 . S
S1392 N1394 1.610 . S
N1393 S1392 1.613 . S
N1393 C1396 1.350 . S
N1394 S1392 1.610 . S
N1394 C1395 1.351 . S
C1395 C1389 1.428 . S
C1395 N1394 1.351 . S
C1395 C1396 1.434 . S
C1396 C1387 1.429 . S
C1396 N1393 1.350 . S
C1396 C1395 1.434 . S
C1397 C1398 1.369 . S
C1397 C1399 1.419 . S
C1397 H1401 0.930 . S
C1398 C1397 1.369 . S
C1398 C1407 1.429 . S
C1399 C1397 1.419 . S
C1399 C1400 1.363 . S
C1399 H1402 0.929 . S
C1400 C1399 1.363 . S
C1400 C1406 1.428 . S
H1401 C1397 0.930 . S
H1402 C1399 0.929 . S
S1403 N1404 1.613 . S
S1403 N1405 1.610 . S
N1404 S1403 1.613 . S
N1404 C1407 1.350 . S
N1405 S1403 1.610 . S
N1405 C1406 1.351 . S
C1406 C1400 1.428 . S
C1406 N1405 1.351 . S
C1406 C1407 1.434 . S
C1407 C1398 1.429 . S
C1407 N1404 1.350 . S
C1407 C1406 1.434 . S
C1408 C1409 1.369 . S
C1408 C1410 1.419 . S
C1408 H1412 0.930 . S
C1409 C1408 1.369 . S
C1409 C1418 1.429 . S
C1410 C1408 1.419 . S
C1410 C1411 1.363 . S
C1410 H1413 0.929 . S
C1411 C1410 1.363 . S
C1411 C1417 1.428 . S
H1412 C1408 0.930 . S
H1413 C1410 0.929 . S
S1414 N1415 1.613 . S
S1414 N1416 1.610 . S
N1415 S1414 1.613 . S
N1415 C1418 1.350 . S
N1416 S1414 1.610 . S
N1416 C1417 1.351 . S
C1417 C1411 1.428 . S
C1417 N1416 1.351 . S
C1417 C1418 1.434 . S
C1418 C1409 1.429 . S
C1418 N1415 1.350 . S
C1418 C1417 1.434 . S
C1419 C1420 1.369 . S
C1419 C1421 1.419 . S
C1419 H1423 0.930 . S
C1420 C1419 1.369 . S
C1420 C1429 1.429 . S
C1421 C1419 1.419 . S
C1421 C1422 1.363 . S
C1421 H1424 0.929 1_565 S
C1422 C1421 1.363 . S
C1422 C1428 1.428 . S
H1423 C1419 0.930 . S
H1424 C1421 0.929 1_545 S
S1425 N1426 1.613 . S
S1425 N1427 1.610 . S
N1426 S1425 1.613 . S
N1426 C1429 1.350 . S
N1427 S1425 1.610 . S
N1427 C1428 1.351 . S
C1428 C1422 1.428 . S
C1428 N1427 1.351 . S
C1428 C1429 1.434 . S
C1429 C1420 1.429 . S
C1429 N1426 1.350 . S
C1429 C1428 1.434 . S
C1430 C1431 1.369 . S
C1430 C1432 1.419 . S
C1430 H1434 0.930 . S
C1431 C1430 1.369 . S
C1431 C1440 1.429 . S
C1432 C1430 1.419 . S
C1432 C1433 1.363 . S
C1432 H1435 0.929 . S
C1433 C1432 1.363 . S
C1433 C1439 1.428 . S
H1434 C1430 0.930 . S
H1435 C1432 0.929 . S
S1436 N1437 1.613 . S
S1436 N1438 1.610 . S
N1437 S1436 1.613 . S
N1437 C1440 1.350 . S
N1438 S1436 1.610 . S
N1438 C1439 1.351 . S
C1439 C1433 1.428 . S
C1439 N1438 1.351 . S
C1439 C1440 1.434 . S
C1440 C1431 1.429 . S
C1440 N1437 1.350 . S
C1440 C1439 1.434 . S
C1441 C1442 1.369 . S
C1441 C1443 1.419 . S
C1441 H1445 0.930 . S
C1442 C1441 1.369 . S
C1442 C1451 1.445 . S
C1443 C1441 1.419 . S
C1443 C1444 1.363 . S
C1443 H1446 0.929 . S
C1444 C1443 1.363 . S
C1444 C1450 1.428 . S
H1445 C1441 0.930 . S
H1446 C1443 0.929 . S
S1447 N1448 1.613 . S
S1447 N1449 1.610 . S
N1448 S1447 1.613 . S
N1448 C1451 1.328 1_556 S
N1449 S1447 1.610 . S
N1449 C1450 1.351 1_556 S
C1450 C1444 1.428 . S
C1450 N1449 1.351 1_554 S
C1450 C1451 1.440 . S
C1451 C1442 1.445 . S
C1451 N1448 1.328 1_554 S
C1451 C1450 1.440 . S
C1452 C1453 1.369 . S
C1452 C1454 1.419 . S
C1452 H1456 0.930 . S
C1453 C1452 1.369 . S
C1453 C1462 1.429 . S
C1454 C1452 1.419 . S
C1454 C1455 1.363 . S
C1454 H1457 0.929 . S
C1455 C1454 1.363 . S
C1455 C1461 1.428 . S
H1456 C1452 0.930 . S
H1457 C1454 0.929 . S
S1458 N1459 1.613 . S
S1458 N1460 1.610 . S
N1459 S1458 1.613 . S
N1459 C1462 1.350 . S
N1460 S1458 1.610 . S
N1460 C1461 1.351 . S
C1461 C1455 1.428 . S
C1461 N1460 1.351 . S
C1461 C1462 1.434 . S
C1462 C1453 1.429 . S
C1462 N1459 1.350 . S
C1462 C1461 1.434 . S
C1463 C1464 1.369 . S
C1463 C1465 1.419 . S
C1463 H1467 0.930 . S
C1464 C1463 1.369 . S
C1464 C1473 1.429 1_554 S
C1465 C1463 1.419 . S
C1465 C1466 1.363 . S
C1465 H1468 0.929 . S
C1466 C1465 1.363 . S
C1466 C1472 1.428 1_554 S
H1467 C1463 0.930 . S
H1468 C1465 0.929 . S
S1469 N1470 1.613 . S
S1469 N1471 1.610 . S
N1470 S1469 1.613 . S
N1470 C1473 1.350 . S
N1471 S1469 1.610 . S
N1471 C1472 1.351 . S
C1472 C1466 1.428 1_556 S
C1472 N1471 1.351 . S
C1472 C1473 1.434 . S
C1473 C1464 1.429 1_556 S
C1473 N1470 1.350 . S
C1473 C1472 1.434 . S
C1474 C1475 1.369 . S
C1474 C1476 1.419 . S
C1474 H1478 0.930 . S
C1475 C1474 1.369 . S
C1475 C1484 1.429 . S
C1476 C1474 1.419 . S
C1476 C1477 1.363 . S
C1476 H1479 0.929 . S
C1477 C1476 1.363 . S
C1477 C1483 1.428 . S
H1478 C1474 0.930 . S
H1479 C1476 0.929 . S
S1480 N1481 1.613 . S
S1480 N1482 1.610 . S
N1481 S1480 1.613 . S
N1481 C1484 1.350 . S
N1482 S1480 1.610 . S
N1482 C1483 1.351 . S
C1483 C1477 1.428 . S
C1483 N1482 1.351 . S
C1483 C1484 1.434 . S
C1484 C1475 1.429 . S
C1484 N1481 1.350 . S
C1484 C1483 1.434 . S
C1485 C1486 1.369 . S
C1485 C1487 1.419 . S
C1485 H1489 0.930 . S
C1486 C1485 1.369 . S
C1486 C1495 1.429 . S
C1487 C1485 1.419 . S
C1487 C1488 1.363 . S
C1487 H1490 0.929 . S
C1488 C1487 1.363 . S
C1488 C1494 1.428 . S
H1489 C1485 0.930 . S
H1490 C1487 0.929 . S
S1491 N1492 1.613 . S
S1491 N1493 1.610 . S
N1492 S1491 1.613 . S
N1492 C1495 1.350 . S
N1493 S1491 1.610 . S
N1493 C1494 1.351 . S
C1494 C1488 1.428 . S
C1494 N1493 1.351 . S
C1494 C1495 1.434 . S
C1495 C1486 1.429 . S
C1495 N1492 1.350 . S
C1495 C1494 1.434 . S
C1496 C1497 1.369 . S
C1496 C1498 1.419 . S
C1496 H1500 0.930 . S
C1497 C1496 1.369 . S
C1497 C1506 1.429 . S
C1498 C1496 1.419 . S
C1498 C1499 1.363 . S
C1498 H1501 0.929 . S
C1499 C1498 1.363 . S
C1499 C1505 1.428 . S
H1500 C1496 0.930 . S
H1501 C1498 0.929 . S
S1502 N1503 1.613 . S
S1502 N1504 1.610 . S
N1503 S1502 1.613 . S
N1503 C1506 1.350 . S
N1504 S1502 1.610 . S
N1504 C1505 1.351 . S
C1505 C1499 1.428 . S
C1505 N1504 1.351 . S
C1505 C1506 1.434 . S
C1506 C1497 1.429 . S
C1506 N1503 1.350 . S
C1506 C1505 1.434 . S
C1507 C1508 1.369 . S
C1507 C1509 1.419 . S
C1507 H1511 0.930 . S
C1508 C1507 1.369 . S
C1508 C1517 1.429 . S
C1509 C1507 1.419 . S
C1509 C1510 1.363 . S
C1509 H1512 0.929 . S
C1510 C1509 1.363 . S
C1510 C1516 1.428 . S
H1511 C1507 0.930 . S
H1512 C1509 0.929 . S
S1513 N1514 1.613 . S
S1513 N1515 1.610 . S
N1514 S1513 1.613 . S
N1514 C1517 1.350 . S
N1515 S1513 1.610 . S
N1515 C1516 1.351 . S
C1516 C1510 1.428 . S
C1516 N1515 1.351 . S
C1516 C1517 1.434 . S
C1517 C1508 1.429 . S
C1517 N1514 1.350 . S
C1517 C1516 1.434 . S
C1518 C1519 1.369 . S
C1518 C1520 1.419 . S
C1518 H1522 0.930 . S
C1519 C1518 1.369 . S
C1519 C1528 1.429 1_455 S
C1520 C1518 1.419 . S
C1520 C1521 1.363 1_455 S
C1520 H1523 0.929 . S
C1521 C1520 1.363 1_655 S
C1521 C1527 1.428 . S
H1522 C1518 0.930 . S
H1523 C1520 0.929 . S
S1524 N1525 1.596 1_554 S
S1524 N1526 1.617 . S
N1525 S1524 1.596 1_556 S
N1525 C1528 1.350 . S
N1526 S1524 1.617 . S
N1526 C1527 1.351 1_554 S
C1527 C1521 1.428 . S
C1527 N1526 1.351 1_556 S
C1527 C1528 1.434 . S
C1528 C1519 1.429 1_655 S
C1528 N1525 1.350 . S
C1528 C1527 1.434 . S
C1529 C1530 1.369 . S
C1529 C1531 1.419 . S
C1529 H1533 0.930 . S
C1530 C1529 1.369 . S
C1530 C1539 1.429 . S
C1531 C1529 1.419 . S
C1531 C1532 1.363 . S
C1531 H1534 0.929 . S
C1532 C1531 1.363 . S
C1532 C1538 1.428 . S
H1533 C1529 0.930 . S
H1534 C1531 0.929 . S
S1535 N1536 1.613 . S
S1535 N1537 1.610 . S
N1536 S1535 1.613 . S
N1536 C1539 1.350 . S
N1537 S1535 1.610 . S
N1537 C1538 1.351 . S
C1538 C1532 1.428 . S
C1538 N1537 1.351 . S
C1538 C1539 1.434 . S
C1539 C1530 1.429 . S
C1539 N1536 1.350 . S
C1539 C1538 1.434 . S
C1540 C1541 1.369 . S
C1540 C1542 1.419 . S
C1540 H1544 0.930 . S
C1541 C1540 1.369 . S
C1541 C1550 1.429 . S
C1542 C1540 1.419 . S
C1542 C1543 1.363 . S
C1542 H1545 0.929 . S
C1543 C1542 1.363 . S
C1543 C1549 1.428 . S
H1544 C1540 0.930 . S
H1545 C1542 0.929 . S
S1546 N1547 1.613 . S
S1546 N1548 1.610 . S
N1547 S1546 1.613 . S
N1547 C1550 1.350 . S
N1548 S1546 1.610 . S
N1548 C1549 1.351 . S
C1549 C1543 1.428 . S
C1549 N1548 1.351 . S
C1549 C1550 1.434 . S
C1550 C1541 1.429 . S
C1550 N1547 1.350 . S
C1550 C1549 1.434 . S
C1551 C1552 1.369 . S
C1551 C1553 1.419 . S
C1551 H1555 0.930 . S
C1552 C1551 1.369 . S
C1552 C1561 1.429 . S
C1553 C1551 1.419 . S
C1553 C1554 1.363 . S
C1553 H1556 0.929 . S
C1554 C1553 1.363 . S
C1554 C1560 1.428 . S
H1555 C1551 0.930 . S
H1556 C1553 0.929 . S
S1557 N1558 1.613 . S
S1557 N1559 1.610 . S
N1558 S1557 1.613 . S
N1558 C1561 1.350 . S
N1559 S1557 1.610 . S
N1559 C1560 1.351 . S
C1560 C1554 1.428 . S
C1560 N1559 1.351 . S
C1560 C1561 1.434 . S
C1561 C1552 1.429 . S
C1561 N1558 1.350 . S
C1561 C1560 1.434 . S
C1562 C1563 1.369 1_655 S
C1562 C1564 1.419 . S
C1562 H1566 0.930 . S
C1563 C1562 1.369 1_455 S
C1563 C1572 1.429 . S
C1564 C1562 1.419 . S
C1564 C1565 1.363 . S
C1564 H1567 0.929 . S
C1565 C1564 1.363 . S
C1565 C1571 1.428 1_655 S
H1566 C1562 0.930 . S
H1567 C1564 0.929 . S
S1568 N1569 1.613 . S
S1568 N1570 1.610 . S
N1569 S1568 1.613 . S
N1569 C1572 1.350 . S
N1570 S1568 1.610 . S
N1570 C1571 1.351 . S
C1571 C1565 1.428 1_455 S
C1571 N1570 1.351 . S
C1571 C1572 1.434 . S
C1572 C1563 1.429 . S
C1572 N1569 1.350 . S
C1572 C1571 1.434 . S
C1573 C1574 1.369 . S
C1573 C1575 1.419 . S
C1573 H1577 0.930 . S
C1574 C1573 1.369 . S
C1574 C1583 1.429 . S
C1575 C1573 1.419 . S
C1575 C1576 1.363 . S
C1575 H1578 0.929 . S
C1576 C1575 1.363 . S
C1576 C1582 1.428 . S
H1577 C1573 0.930 . S
H1578 C1575 0.929 . S
S1579 N1580 1.613 . S
S1579 N1581 1.610 . S
N1580 S1579 1.613 . S
N1580 C1583 1.350 . S
N1581 S1579 1.610 . S
N1581 C1582 1.351 . S
C1582 C1576 1.428 . S
C1582 N1581 1.351 . S
C1582 C1583 1.434 . S
C1583 C1574 1.429 . S
C1583 N1580 1.350 . S
C1583 C1582 1.434 . S
C1584 C1585 1.369 . S
C1584 C1586 1.419 . S
C1584 H1588 0.930 . S
C1585 C1584 1.369 . S
C1585 C1594 1.429 . S
C1586 C1584 1.419 . S
C1586 C1587 1.363 . S
C1586 H1589 0.929 . S
C1587 C1586 1.363 . S
C1587 C1593 1.428 . S
H1588 C1584 0.930 . S
H1589 C1586 0.929 . S
S1590 N1591 1.613 . S
S1590 N1592 1.610 . S
N1591 S1590 1.613 . S
N1591 C1594 1.350 . S
N1592 S1590 1.610 . S
N1592 C1593 1.351 . S
C1593 C1587 1.428 . S
C1593 N1592 1.351 . S
C1593 C1594 1.434 . S
C1594 C1585 1.429 . S
C1594 N1591 1.350 . S
C1594 C1593 1.434 . S
C1595 C1596 1.369 . S
C1595 C1597 1.419 . S
C1595 H1599 0.930 . S
C1596 C1595 1.369 . S
C1596 C1605 1.429 . S
C1597 C1595 1.419 . S
C1597 C1598 1.363 . S
C1597 H1600 0.929 . S
C1598 C1597 1.363 . S
C1598 C1604 1.428 . S
H1599 C1595 0.930 . S
H1600 C1597 0.929 . S
S1601 N1602 1.613 . S
S1601 N1603 1.610 . S
N1602 S1601 1.613 . S
N1602 C1605 1.350 . S
N1603 S1601 1.610 . S
N1603 C1604 1.351 . S
C1604 C1598 1.428 . S
C1604 N1603 1.351 . S
C1604 C1605 1.434 . S
C1605 C1596 1.429 . S
C1605 N1602 1.350 . S
C1605 C1604 1.434 . S
C1606 C1607 1.369 . S
C1606 C1608 1.419 . S
C1606 H1610 0.930 . S
C1607 C1606 1.369 . S
C1607 C1616 1.429 . S
C1608 C1606 1.419 . S
C1608 C1609 1.363 . S
C1608 H1611 0.929 . S
C1609 C1608 1.363 . S
C1609 C1615 1.428 . S
H1610 C1606 0.930 . S
H1611 C1608 0.929 . S
S1612 N1613 1.613 . S
S1612 N1614 1.610 . S
N1613 S1612 1.613 . S
N1613 C1616 1.350 . S
N1614 S1612 1.610 . S
N1614 C1615 1.351 . S
C1615 C1609 1.428 . S
C1615 N1614 1.351 . S
C1615 C1616 1.434 . S
C1616 C1607 1.429 . S
C1616 N1613 1.350 . S
C1616 C1615 1.434 . S
C1617 C1618 1.369 . S
C1617 C1619 1.419 . S
C1617 H1621 0.930 . S
C1618 C1617 1.369 . S
C1618 C1627 1.429 . S
C1619 C1617 1.419 . S
C1619 C1620 1.363 . S
C1619 H1622 0.929 . S
C1620 C1619 1.363 . S
C1620 C1626 1.428 . S
H1621 C1617 0.930 . S
H1622 C1619 0.929 . S
S1623 N1624 1.613 . S
S1623 N1625 1.610 . S
N1624 S1623 1.613 . S
N1624 C1627 1.350 . S
N1625 S1623 1.610 . S
N1625 C1626 1.351 . S
C1626 C1620 1.428 . S
C1626 N1625 1.351 . S
C1626 C1627 1.434 . S
C1627 C1618 1.429 . S
C1627 N1624 1.350 . S
C1627 C1626 1.434 . S
C1628 C1629 1.369 . S
C1628 C1630 1.419 . S
C1628 H1632 0.930 . S
C1629 C1628 1.369 . S
C1629 C1638 1.429 . S
C1630 C1628 1.419 . S
C1630 C1631 1.363 . S
C1630 H1633 0.929 . S
C1631 C1630 1.363 . S
C1631 C1637 1.428 . S
H1632 C1628 0.930 . S
H1633 C1630 0.929 . S
S1634 N1635 1.613 . S
S1634 N1636 1.610 . S
N1635 S1634 1.613 . S
N1635 C1638 1.350 . S
N1636 S1634 1.610 . S
N1636 C1637 1.351 . S
C1637 C1631 1.428 . S
C1637 N1636 1.351 . S
C1637 C1638 1.434 . S
C1638 C1629 1.429 . S
C1638 N1635 1.350 . S
C1638 C1637 1.434 . S
C1639 C1640 1.369 . S
C1639 C1641 1.419 . S
C1639 H1643 0.930 . S
C1640 C1639 1.369 . S
C1640 C1649 1.429 . S
C1641 C1639 1.419 . S
C1641 C1642 1.363 . S
C1641 H1644 0.929 . S
C1642 C1641 1.363 . S
C1642 C1648 1.428 . S
H1643 C1639 0.930 . S
H1644 C1641 0.929 . S
S1645 N1646 1.613 . S
S1645 N1647 1.610 . S
N1646 S1645 1.613 . S
N1646 C1649 1.350 . S
N1647 S1645 1.610 . S
N1647 C1648 1.351 . S
C1648 C1642 1.428 . S
C1648 N1647 1.351 . S
C1648 C1649 1.434 . S
C1649 C1640 1.429 . S
C1649 N1646 1.350 . S
C1649 C1648 1.434 . S
C1650 C1651 1.369 . S
C1650 C1652 1.419 . S
C1650 H1654 0.930 . S
C1651 C1650 1.369 . S
C1651 C1660 1.429 . S
C1652 C1650 1.419 . S
C1652 C1653 1.363 . S
C1652 H1655 0.929 . S
C1653 C1652 1.363 . S
C1653 C1659 1.428 . S
H1654 C1650 0.930 . S
H1655 C1652 0.929 . S
S1656 N1657 1.613 . S
S1656 N1658 1.610 . S
N1657 S1656 1.613 . S
N1657 C1660 1.350 . S
N1658 S1656 1.610 . S
N1658 C1659 1.351 . S
C1659 C1653 1.428 . S
C1659 N1658 1.351 . S
C1659 C1660 1.434 . S
C1660 C1651 1.429 . S
C1660 N1657 1.350 . S
C1660 C1659 1.434 . S
C1661 C1662 1.369 . S
C1661 C1663 1.419 . S
C1661 H1665 0.930 . S
C1662 C1661 1.369 . S
C1662 C1671 1.429 . S
C1663 C1661 1.419 . S
C1663 C1664 1.363 . S
C1663 H1666 0.929 . S
C1664 C1663 1.363 . S
C1664 C1670 1.428 . S
H1665 C1661 0.930 . S
H1666 C1663 0.929 . S
S1667 N1668 1.613 . S
S1667 N1669 1.610 . S
N1668 S1667 1.613 . S
N1668 C1671 1.350 . S
N1669 S1667 1.610 . S
N1669 C1670 1.351 . S
C1670 C1664 1.428 . S
C1670 N1669 1.351 . S
C1670 C1671 1.434 . S
C1671 C1662 1.429 . S
C1671 N1668 1.350 . S
C1671 C1670 1.434 . S
C1672 C1673 1.369 . S
C1672 C1674 1.419 . S
C1672 H1676 0.930 . S
C1673 C1672 1.369 . S
C1673 C1682 1.429 . S
C1674 C1672 1.419 . S
C1674 C1675 1.363 . S
C1674 H1677 0.929 . S
C1675 C1674 1.363 . S
C1675 C1681 1.428 . S
H1676 C1672 0.930 . S
H1677 C1674 0.929 . S
S1678 N1679 1.613 . S
S1678 N1680 1.610 . S
N1679 S1678 1.613 . S
N1679 C1682 1.350 . S
N1680 S1678 1.610 . S
N1680 C1681 1.351 . S
C1681 C1675 1.428 . S
C1681 N1680 1.351 . S
C1681 C1682 1.434 . S
C1682 C1673 1.429 . S
C1682 N1679 1.350 . S
C1682 C1681 1.434 . S
C1683 C1684 1.369 . S
C1683 C1685 1.419 . S
C1683 H1687 0.930 . S
C1684 C1683 1.369 . S
C1684 C1693 1.429 . S
C1685 C1683 1.419 . S
C1685 C1686 1.363 . S
C1685 H1688 0.929 . S
C1686 C1685 1.363 . S
C1686 C1692 1.428 . S
H1687 C1683 0.930 . S
H1688 C1685 0.929 . S
S1689 N1690 1.613 . S
S1689 N1691 1.610 . S
N1690 S1689 1.613 . S
N1690 C1693 1.350 . S
N1691 S1689 1.610 . S
N1691 C1692 1.351 . S
C1692 C1686 1.428 . S
C1692 N1691 1.351 . S
C1692 C1693 1.434 . S
C1693 C1684 1.429 . S
C1693 N1690 1.350 . S
C1693 C1692 1.434 . S
C1694 C1695 1.369 . S
C1694 C1696 1.419 . S
C1694 H1698 0.930 . S
C1695 C1694 1.369 . S
C1695 C1704 1.429 . S
C1696 C1694 1.419 . S
C1696 C1697 1.363 . S
C1696 H1699 0.929 . S
C1697 C1696 1.363 . S
C1697 C1703 1.428 . S
H1698 C1694 0.930 . S
H1699 C1696 0.929 . S
S1700 N1701 1.613 . S
S1700 N1702 1.610 . S
N1701 S1700 1.613 . S
N1701 C1704 1.350 . S
N1702 S1700 1.610 . S
N1702 C1703 1.351 . S
C1703 C1697 1.428 . S
C1703 N1702 1.351 . S
C1703 C1704 1.434 . S
C1704 C1695 1.429 . S
C1704 N1701 1.350 . S
C1704 C1703 1.434 . S
C1705 C1706 1.369 . S
C1705 C1707 1.419 . S
C1705 H1709 0.930 . S
C1706 C1705 1.369 . S
C1706 C1715 1.429 1_554 S
C1707 C1705 1.419 . S
C1707 C1708 1.363 1_554 S
C1707 H1710 0.929 1_565 S
C1708 C1707 1.363 1_556 S
C1708 C1714 1.428 . S
H1709 C1705 0.930 . S
H1710 C1707 0.929 1_545 S
S1711 N1712 1.613 . S
S1711 N1713 1.610 . S
N1712 S1711 1.613 . S
N1712 C1715 1.350 . S
N1713 S1711 1.610 . S
N1713 C1714 1.351 . S
C1714 C1708 1.428 . S
C1714 N1713 1.351 . S
C1714 C1715 1.434 . S
C1715 C1706 1.429 1_556 S
C1715 N1712 1.350 . S
C1715 C1714 1.434 . S
C1716 C1717 1.369 . S
C1716 C1718 1.419 . S
C1716 H1720 0.930 . S
C1717 C1716 1.369 . S
C1717 C1726 1.429 . S
C1718 C1716 1.419 . S
C1718 C1719 1.363 . S
C1718 H1721 0.929 . S
C1719 C1718 1.363 . S
C1719 C1725 1.428 . S
H1720 C1716 0.930 . S
H1721 C1718 0.929 . S
S1722 N1723 1.613 . S
S1722 N1724 1.610 . S
N1723 S1722 1.613 . S
N1723 C1726 1.350 . S
N1724 S1722 1.610 . S
N1724 C1725 1.351 . S
C1725 C1719 1.428 . S
C1725 N1724 1.351 . S
C1725 C1726 1.434 . S
C1726 C1717 1.429 . S
C1726 N1723 1.350 . S
C1726 C1725 1.434 . S
C1727 C1728 1.369 . S
C1727 C1729 1.419 . S
C1727 H1731 0.930 . S
C1728 C1727 1.369 . S
C1728 C1737 1.429 . S
C1729 C1727 1.419 . S
C1729 C1730 1.363 . S
C1729 H1732 0.929 . S
C1730 C1729 1.363 . S
C1730 C1736 1.428 . S
H1731 C1727 0.930 . S
H1732 C1729 0.929 . S
S1733 N1734 1.613 . S
S1733 N1735 1.610 1_556 S
N1734 S1733 1.613 . S
N1734 C1737 1.350 1_556 S
N1735 S1733 1.610 1_554 S
N1735 C1736 1.351 . S
C1736 C1730 1.428 . S
C1736 N1735 1.351 . S
C1736 C1737 1.434 . S
C1737 C1728 1.429 . S
C1737 N1734 1.350 1_554 S
C1737 C1736 1.434 . S
C1738 C1739 1.369 . S
C1738 C1740 1.419 . S
C1738 H1742 0.930 . S
C1739 C1738 1.369 . S
C1739 C1748 1.429 . S
C1740 C1738 1.419 . S
C1740 C1741 1.363 . S
C1740 H1743 0.929 . S
C1741 C1740 1.363 . S
C1741 C1747 1.428 . S
H1742 C1738 0.930 . S
H1743 C1740 0.929 . S
S1744 N1745 1.613 . S
S1744 N1746 1.610 . S
N1745 S1744 1.613 . S
N1745 C1748 1.350 . S
N1746 S1744 1.610 . S
N1746 C1747 1.351 . S
C1747 C1741 1.428 . S
C1747 N1746 1.351 . S
C1747 C1748 1.434 . S
C1748 C1739 1.429 . S
C1748 N1745 1.350 . S
C1748 C1747 1.434 . S
C1749 C1750 1.369 . S
C1749 C1751 1.419 . S
C1749 H1753 0.930 . S
C1750 C1749 1.369 . S
C1750 C1759 1.429 . S
C1751 C1749 1.419 . S
C1751 C1752 1.363 . S
C1751 H1754 0.929 . S
C1752 C1751 1.363 . S
C1752 C1758 1.428 . S
H1753 C1749 0.930 . S
H1754 C1751 0.929 . S
S1755 N1756 1.613 . S
S1755 N1757 1.610 . S
N1756 S1755 1.613 . S
N1756 C1759 1.350 . S
N1757 S1755 1.610 . S
N1757 C1758 1.351 . S
C1758 C1752 1.428 . S
C1758 N1757 1.351 . S
C1758 C1759 1.434 . S
C1759 C1750 1.429 . S
C1759 N1756 1.350 . S
C1759 C1758 1.434 . S
C707 C352 1.366 . S
C705 C8 1.379 . S
C716 C22 1.929 . S
C718 C380 1.707 . S
C727 C35 1.114 . S
C729 C398 1.117 . S
C740 C424 1.407 . S
C738 C49 1.542 . S
C749 C23 1.992 . S
C751 C447 1.727 . S
C762 C467 1.110 . S
C760 C34 1.094 . S
C773 C495 1.372 1_556 S
C771 C48 1.461 . S
C782 C9 1.386 . S
C784 C513 1.374 . S
C793 C64 1.548 . S
C795 C354 1.567 . S
C804 C77 1.150 . S
C806 C376 1.191 . S
C817 C400 1.703 . S
C815 C92 1.670 . S
C828 C421 1.345 . S
C826 C105 1.307 . S
C837 C63 1.224 . S
C839 C444 1.247 . S
C850 C469 1.707 . S
C848 C78 1.682 . S
C861 C491 1.279 . S
C859 C91 1.253 . S
C872 C515 1.563 . S
C870 C106 1.539 . S
C883 C355 1.228 . S
C881 C107 1.395 . S
C894 C538 1.253 . S
C892 C118 1.199 . S
C903 C135 1.483 . S
C905 C562 1.328 . S
C916 C586 1.275 . S
C914 C146 1.283 . S
C925 C65 1.400 . S
C927 C516 1.233 . S
C938 C401 1.326 1_565 S
C936 C79 1.530 . S
C947 C132 1.289 . S
C949 C607 1.343 . S
C960 C632 1.192 . S
C958 C160 1.204 . S
C969 C177 1.445 . S
C971 C353 1.389 . S
C982 C630 1.154 . S
C980 C188 1.142 . S
C991 C204 1.483 . S
C993 C399 1.438 . S
C1002 C219 1.223 . S
C1004 C609 1.172 . S
C1015 C448 1.209 . S
C1013 C190 1.256 . S
C1026 C560 1.246 . S
C1024 C202 1.218 . S
C1037 C492 1.154 . S
C1035 C217 1.144 . S
C1048 C652 1.246 . S
C1046 C175 1.227 . S
C1059 C357 1.108 . S
C1057 C231 1.169 . S
C1068 C246 1.573 . S
C1070 C628 1.506 . S
C1081 C403 1.078 . S
C1079 C259 1.155 . S
C1090 C274 1.535 . S
C1092 C606 1.486 . S
C1101 C232 1.535 . S
C1103 C445 1.479 . S
C1112 C245 1.193 . S
C1114 C564 1.070 . S
C1125 C490 1.406 . S
C1123 C260 1.465 . S
C1134 C273 1.193 . S
C1136 C656 1.089 . S
C1145 C275 1.584 . S
C1147 C356 1.502 . S
C1156 C286 1.357 . S
C1158 C541 1.304 1_556 S
C1167 C303 1.549 . S
C1169 C471 1.469 . S
C1178 C314 1.288 . S
C1180 C585 1.181 . S
C1191 C655 1.456 . S
C1189 C233 1.554 . S
C1202 C402 1.484 . S
C1200 C247 1.563 . S
C1213 C426 1.236 . S
C1211 C300 1.315 . S
C1224 C378 1.210 . S
C1222 C328 1.351 . S
C1233 C36 1.364 . S
C1235 C674 1.353 . S
C1246 C633 1.712 . S
C1244 C50 1.922 . S
C1257 C697 1.113 . S
C1255 C7 1.111 . S
C1266 C21 1.536 . S
C1268 C608 1.428 . S
C1277 C51 1.998 . S
C1279 C539 1.727 1_556 S
C1290 C559 1.106 . S
C1288 C6 1.095 . S
C1301 C587 1.374 . S
C1299 C20 1.465 . S
C1312 C651 1.364 . S
C1310 C37 1.373 . S
C1323 C676 1.557 . S
C1321 C162 1.559 . S
C1332 C119 1.148 . S
C1334 C629 1.183 . S
C1343 C134 1.691 . S
C1345 C699 1.694 . S
C1356 C605 1.345 . S
C1354 C147 1.299 . S
C1367 C536 1.254 . S
C1365 C161 1.207 . S
C1376 C120 1.701 . S
C1378 C561 1.703 . S
C1389 C583 1.278 . S
C1387 C133 1.236 . S
C1398 C148 1.546 . S
C1400 C653 1.553 . S
C1411 C677 1.225 . S
C1409 C149 1.366 . S
C1422 C446 1.201 . S
C1420 C76 1.157 . S
C1433 C470 1.320 . S
C1431 C93 1.528 . S
C1442 C104 1.227 . S
C1444 C494 1.238 . S
C1455 C654 1.236 . S
C1453 C163 1.366 . S
C1464 C121 1.487 . S
C1466 C700 1.327 . S
C1477 C423 1.294 . S
C1475 C90 1.237 . S
C1488 C379 1.157 . S
C1486 C62 1.145 . S
C1497 C203 1.215 . S
C1499 C675 1.226 . S
C1510 C377 1.167 . S
C1508 C216 1.149 . S
C1521 C698 1.264 1_556 S
C1519 C174 1.231 . S
C1530 C191 1.248 . S
C1532 C425 1.205 . S
C1541 C218 1.235 . S
C1543 C540 1.177 . S
C1552 C176 1.459 . S
C1554 C468 1.410 . S
C1563 C189 1.132 . S
C1565 C584 1.135 . S
C1574 C205 1.469 . S
C1576 C514 1.422 . S
C1587 C679 1.098 . S
C1585 C329 1.196 . S
C1596 C288 1.531 . S
C1598 C375 1.462 . S
C1609 C702 1.072 . S
C1607 C301 1.180 . S
C1618 C316 1.481 . S
C1620 C422 1.434 . S
C1629 C330 1.588 . S
C1631 C537 1.534 . S
C1642 C472 1.082 . S
C1640 C287 1.167 . S
C1651 C302 1.511 . S
C1653 C582 1.449 . S
C1664 C518 1.084 . S
C1662 C315 1.169 . S
C1675 C678 1.447 . S
C1673 C317 1.541 . S
C1686 C449 1.292 . S
C1684 C244 1.371 . S
C1695 C261 1.499 . S
C1697 C563 1.411 . S
C1708 C493 1.169 . S
C1706 C272 1.292 . S
C1719 C517 1.510 . S
C1717 C331 1.600 . S
C1728 C289 1.507 . S
C1730 C701 1.427 . S
C1741 C610 1.248 . S
C1739 C258 1.301 . S
C1752 C631 1.237 . S
C1750 C230 1.342 . S
