# Generated by pormake.
# Topology wbl, (4,4)-cn, num edge types: 1
# Building blocks:
#     Node 0, Type 0, BuildingBlock: MUDLON_clean_sbu_0, # of connection points: 4
#     Node 1, Type 0, BuildingBlock: MUDLON_clean_sbu_0, # of connection points: 4
#     Node 2, Type 0, BuildingBlock: MUDLON_clean_sbu_0, # of connection points: 4
#     Node 3, Type 0, BuildingBlock: MUDLON_clean_sbu_0, # of connection points: 4
#     Node 4, Type 0, BuildingBlock: MUDLON_clean_sbu_0, # of connection points: 4
#     Node 5, Type 0, BuildingBlock: MUDLON_clean_sbu_0, # of connection points: 4
#     Node 6, Type 0, BuildingBlock: MUDLON_clean_sbu_0, # of connection points: 4
#     Node 7, Type 0, BuildingBlock: MUDLON_clean_sbu_0, # of connection points: 4
#     Node 8, Type 1, BuildingBlock: GALJAG_clean_sbu_0, # of connection points: 4
#     Node 9, Type 1, BuildingBlock: GALJAG_clean_sbu_0, # of connection points: 4
#     Node 10, Type 1, BuildingBlock: GALJAG_clean_sbu_0, # of connection points: 4
#     Node 11, Type 1, BuildingBlock: GALJAG_clean_sbu_0, # of connection points: 4
#     Node 12, Type 1, BuildingBlock: GALJAG_clean_sbu_0, # of connection points: 4
#     Node 13, Type 1, BuildingBlock: GALJAG_clean_sbu_0, # of connection points: 4
#     Node 14, Type 1, BuildingBlock: GALJAG_clean_sbu_0, # of connection points: 4
#     Node 15, Type 1, BuildingBlock: GALJAG_clean_sbu_0, # of connection points: 4
#     Edge 16, Type (0, 1), BuildingBlock: XIVTED_clean_linker_0, # of connection points: 2
#     Edge 17, Type (0, 1), BuildingBlock: XIVTED_clean_linker_0, # of connection points: 2
#     Edge 18, Type (0, 1), BuildingBlock: XIVTED_clean_linker_0, # of connection points: 2
#     Edge 19, Type (0, 1), BuildingBlock: XIVTED_clean_linker_0, # of connection points: 2
#     Edge 20, Type (0, 1), BuildingBlock: XIVTED_clean_linker_0, # of connection points: 2
#     Edge 21, Type (0, 1), BuildingBlock: XIVTED_clean_linker_0, # of connection points: 2
#     Edge 22, Type (0, 1), BuildingBlock: XIVTED_clean_linker_0, # of connection points: 2
#     Edge 23, Type (0, 1), BuildingBlock: XIVTED_clean_linker_0, # of connection points: 2
#     Edge 24, Type (0, 1), BuildingBlock: XIVTED_clean_linker_0, # of connection points: 2
#     Edge 25, Type (0, 1), BuildingBlock: XIVTED_clean_linker_0, # of connection points: 2
#     Edge 26, Type (0, 1), BuildingBlock: XIVTED_clean_linker_0, # of connection points: 2
#     Edge 27, Type (0, 1), BuildingBlock: XIVTED_clean_linker_0, # of connection points: 2
#     Edge 28, Type (0, 1), BuildingBlock: XIVTED_clean_linker_0, # of connection points: 2
#     Edge 29, Type (0, 1), BuildingBlock: XIVTED_clean_linker_0, # of connection points: 2
#     Edge 30, Type (0, 1), BuildingBlock: XIVTED_clean_linker_0, # of connection points: 2
#     Edge 31, Type (0, 1), BuildingBlock: XIVTED_clean_linker_0, # of connection points: 2
#     Edge 32, Type (0, 1), BuildingBlock: XIVTED_clean_linker_0, # of connection points: 2
#     Edge 33, Type (0, 1), BuildingBlock: XIVTED_clean_linker_0, # of connection points: 2
#     Edge 34, Type (0, 1), BuildingBlock: XIVTED_clean_linker_0, # of connection points: 2
#     Edge 35, Type (0, 1), BuildingBlock: XIVTED_clean_linker_0, # of connection points: 2
#     Edge 36, Type (0, 1), BuildingBlock: XIVTED_clean_linker_0, # of connection points: 2
#     Edge 37, Type (0, 1), BuildingBlock: XIVTED_clean_linker_0, # of connection points: 2
#     Edge 38, Type (0, 1), BuildingBlock: XIVTED_clean_linker_0, # of connection points: 2
#     Edge 39, Type (0, 1), BuildingBlock: XIVTED_clean_linker_0, # of connection points: 2
#     Edge 40, Type (0, 1), BuildingBlock: XIVTED_clean_linker_0, # of connection points: 2
#     Edge 41, Type (0, 1), BuildingBlock: XIVTED_clean_linker_0, # of connection points: 2
#     Edge 42, Type (0, 1), BuildingBlock: XIVTED_clean_linker_0, # of connection points: 2
#     Edge 43, Type (0, 1), BuildingBlock: XIVTED_clean_linker_0, # of connection points: 2
#     Edge 44, Type (0, 1), BuildingBlock: XIVTED_clean_linker_0, # of connection points: 2
#     Edge 45, Type (0, 1), BuildingBlock: XIVTED_clean_linker_0, # of connection points: 2
#     Edge 46, Type (0, 1), BuildingBlock: XIVTED_clean_linker_0, # of connection points: 2
#     Edge 47, Type (0, 1), BuildingBlock: XIVTED_clean_linker_0, # of connection points: 2
# Relax obj value: 0.157
# Max RMSD: 0.185
# Mean RMSD: 0.147
data_MOF--net-wbl--node1-MUDLON_clean_sbu_0--node2-GALJAG_clean_sbu_0--edge1-XIVTED_clean_linker_0
_symmetry_space_group_name_H-M    P1
_symmetry_Int_Tables_number       1
_symmetry_cell_setting            triclinic
loop_
_symmetry_equiv_pos_as_xyz
'x, y, z'
_cell_length_a     34.361519
_cell_length_b     34.492929
_cell_length_c     81.948441
_cell_angle_alpha  90.066162
_cell_angle_beta   89.958176
_cell_angle_gamma 89.987406
loop_
_atom_site_label
_atom_site_type_symbol
_atom_site_fract_x
_atom_site_fract_y
_atom_site_fract_z
_atom_type_partial_charge
Mg0 Mg 0.00468 0.01474 0.33141 0.0
C1 C 0.02038 0.94292 0.35122 0.0
O2 O 0.05318 0.94437 0.34301 0.0
C3 C 0.92427 0.00715 0.31704 0.0
O4 O 0.92597 0.97421 0.32504 0.0
C5 C 0.05608 0.97419 0.30689 0.0
O6 O 0.02506 0.95208 0.30574 0.0
O7 O 0.05534 0.00328 0.31642 0.0
O8 O 0.99334 0.96654 0.34764 0.0
O9 O 0.01664 0.05947 0.34924 0.0
C10 C 0.99201 0.08601 0.35221 0.0
O11 O 0.96186 0.08995 0.3425 0.0
O12 O 0.9536 0.02957 0.3172 0.0
Mg13 Mg 0.98274 0.52068 0.59272 0.0
C14 C 0.05964 0.53065 0.61043 0.0
O15 O 0.0622 0.56124 0.60096 0.0
C16 C 0.99336 0.44746 0.57286 0.0
O17 O 0.029 0.45046 0.57851 0.0
C18 C 0.01981 0.57099 0.56748 0.0
O19 O 0.03901 0.5385 0.56515 0.0
O20 O 0.99368 0.57226 0.57845 0.0
O21 O 0.03161 0.50716 0.60839 0.0
O22 O 0.93761 0.52911 0.61079 0.0
C23 C 0.91163 0.5034 0.61289 0.0
O24 O 0.90825 0.47546 0.60207 0.0
O25 O 0.96826 0.47281 0.57682 0.0
Mg26 Mg 0.50348 0.50574 0.84508 0.0
C27 C 0.53508 0.55075 0.87259 0.0
O28 O 0.55557 0.51864 0.87333 0.0
C29 C 0.58012 0.46701 0.83612 0.0
O30 O 0.57682 0.45273 0.85091 0.0
C31 C 0.45253 0.54872 0.8219 0.0
O32 O 0.4806 0.57414 0.82393 0.0
O33 O 0.45444 0.51646 0.82932 0.0
O34 O 0.51297 0.55595 0.86036 0.0
O35 O 0.48983 0.46284 0.86343 0.0
C36 C 0.49463 0.42636 0.86309 0.0
O37 O 0.50611 0.40949 0.84954 0.0
O38 O 0.55443 0.49036 0.83085 0.0
Mg39 Mg 0.51402 0.00814 0.09426 0.0
C40 C 0.53899 0.96235 0.1226 0.0
O41 O 0.50386 0.94861 0.12003 0.0
C42 C 0.51224 0.93608 0.07406 0.0
O43 O 0.54935 0.93735 0.07789 0.0
C44 C 0.5483 0.04871 0.06493 0.0
O45 O 0.53386 0.01826 0.05744 0.0
O46 O 0.54352 0.05231 0.08023 0.0
O47 O 0.55396 0.98448 0.11191 0.0
O48 O 0.47127 0.03137 0.11097 0.0
C49 C 0.44024 0.01238 0.11356 0.0
O50 O 0.42974 0.98585 0.10293 0.0
O51 O 0.48986 0.96272 0.07918 0.0
Mg52 Mg 0.01581 0.49923 0.90716 0.0
C53 C 0.02526 0.5727 0.88806 0.0
O54 O 0.05735 0.57398 0.89674 0.0
C55 C 0.94044 0.50122 0.92657 0.0
O56 O 0.9409 0.53788 0.92224 0.0
C57 C 0.06353 0.54197 0.93215 0.0
O58 O 0.03119 0.56216 0.9332 0.0
O59 O 0.06526 0.51362 0.92226 0.0
O60 O 0.0001 0.54684 0.89128 0.0
O61 O 0.03046 0.45594 0.88909 0.0
C62 C 0.00983 0.42573 0.88723 0.0
O63 O 0.9834 0.41736 0.89827 0.0
O64 O 0.9679 0.47909 0.922 0.0
Mg65 Mg 0.48803 0.4852 0.16083 0.0
C66 C 0.43198 0.46291 0.13448 0.0
O67 O 0.45435 0.43204 0.13438 0.0
C68 C 0.51895 0.43253 0.18625 0.0
O69 O 0.54478 0.46062 0.18633 0.0
C70 C 0.46181 0.54121 0.18547 0.0
O71 O 0.43715 0.51235 0.18707 0.0
O72 O 0.48915 0.53807 0.17509 0.0
O73 O 0.43646 0.48787 0.14574 0.0
O74 O 0.53371 0.48037 0.14256 0.0
C75 C 0.54404 0.44613 0.13877 0.0
O76 O 0.53185 0.41722 0.14786 0.0
O77 O 0.48983 0.43517 0.17676 0.0
Mg78 Mg 0.50566 0.99002 0.41607 0.0
C79 C 0.46394 0.03486 0.39077 0.0
O80 O 0.44266 0.00326 0.39144 0.0
C81 C 0.43243 0.99806 0.43582 0.0
O82 O 0.4372 0.0344 0.43146 0.0
C83 C 0.56064 0.03804 0.43555 0.0
O84 O 0.53209 0.06285 0.43337 0.0
O85 O 0.55729 0.00391 0.42987 0.0
O86 O 0.49078 0.03947 0.40124 0.0
O87 O 0.51696 0.94727 0.39731 0.0
C88 C 0.49204 0.92116 0.39409 0.0
O89 O 0.46249 0.91624 0.40406 0.0
O90 O 0.45737 0.97301 0.43136 0.0
Mg91 Mg 0.97153 0.9893 0.65334 0.0
C92 C 0.00976 0.02984 0.62611 0.0
O93 O 0.97646 0.04841 0.62712 0.0
C94 C 0.97679 0.06269 0.6729 0.0
O95 O 0.01343 0.05915 0.66855 0.0
C96 C 0.02277 0.94136 0.67458 0.0
O97 O 0.04541 0.97145 0.67205 0.0
O98 O 0.98914 0.94073 0.66815 0.0
O99 O 0.01852 0.00584 0.63729 0.0
O100 O 0.92867 0.97394 0.63521 0.0
C101 C 0.90162 0.99775 0.63194 0.0
O102 O 0.89383 0.02544 0.64247 0.0
O103 O 0.95243 0.03731 0.66826 0.0
In104 In 0.37704 0.63749 0.00365 0.0
O105 O 0.36852 0.70081 0.01137 0.0
O106 O 0.4242 0.67489 0.01465 0.0
C107 C 0.30839 0.61827 0.99012 0.0
C108 C 0.37478 0.59249 0.03051 0.0
C109 C 0.42384 0.63242 0.97736 0.0
O110 O 0.31495 0.65204 0.99547 0.0
O111 O 0.33625 0.59479 0.99166 0.0
O112 O 0.42853 0.61157 0.98988 0.0
O113 O 0.39562 0.65578 0.97815 0.0
C114 C 0.40326 0.70468 0.0162 0.0
O115 O 0.355 0.62311 0.02913 0.0
O116 O 0.39591 0.58454 0.01834 0.0
In117 In 0.38377 0.86645 0.25081 0.0
O118 O 0.37052 0.80344 0.24445 0.0
O119 O 0.42695 0.82494 0.23886 0.0
C120 C 0.31341 0.89065 0.26124 0.0
C121 C 0.39079 0.91147 0.22408 0.0
C122 C 0.42272 0.86712 0.27939 0.0
O123 O 0.31868 0.85749 0.25506 0.0
O124 O 0.34358 0.91139 0.26216 0.0
O125 O 0.43013 0.89096 0.26811 0.0
O126 O 0.39632 0.84299 0.2761 0.0
C127 C 0.40377 0.79659 0.23855 0.0
O128 O 0.41509 0.9129 0.23564 0.0
O129 O 0.36351 0.8875 0.22608 0.0
In130 In 0.11128 0.883 0.49466 0.0
O131 O 0.07806 0.93101 0.50799 0.0
O132 O 0.12739 0.90612 0.51967 0.0
C133 C 0.07504 0.88053 0.46549 0.0
C134 C 0.09043 0.81499 0.50825 0.0
C135 C 0.18209 0.90729 0.48503 0.0
O136 O 0.06564 0.90452 0.47646 0.0
O137 O 0.10215 0.85772 0.46935 0.0
O138 O 0.17624 0.87344 0.49038 0.0
O139 O 0.15232 0.92868 0.48462 0.0
C140 C 0.09997 0.93039 0.52037 0.0
O141 O 0.12469 0.82157 0.50341 0.0
O142 O 0.06682 0.8425 0.5061 0.0
In143 In 0.14151 0.64099 0.74858 0.0
O144 O 0.09536 0.61415 0.76529 0.0
O145 O 0.12497 0.66484 0.77338 0.0
C146 C 0.13927 0.59754 0.72128 0.0
C147 C 0.21131 0.62141 0.76084 0.0
C148 C 0.11578 0.70769 0.73555 0.0
O149 O 0.11612 0.59193 0.73305 0.0
O150 O 0.16361 0.62439 0.7235 0.0
O151 O 0.15066 0.70339 0.7401 0.0
O152 O 0.09418 0.67858 0.73775 0.0
C153 C 0.09988 0.63917 0.77643 0.0
O154 O 0.20406 0.65525 0.75578 0.0
O155 O 0.18354 0.59769 0.75955 0.0
In156 In 0.88393 0.15035 0.49392 0.0
O157 O 0.87395 0.2128 0.50209 0.0
O158 O 0.92993 0.18795 0.50594 0.0
C159 C 0.81447 0.12914 0.48184 0.0
C160 C 0.88297 0.10551 0.52077 0.0
C161 C 0.92494 0.14883 0.46591 0.0
O162 O 0.82086 0.16313 0.48699 0.0
O163 O 0.84314 0.10635 0.48268 0.0
O164 O 0.93083 0.1246 0.47723 0.0
O165 O 0.8991 0.17379 0.46894 0.0
C166 C 0.90806 0.21711 0.50755 0.0
O167 O 0.90853 0.10124 0.50978 0.0
O168 O 0.85869 0.13217 0.51814 0.0
In169 In 0.86969 0.36263 0.75096 0.0
O170 O 0.891 0.41292 0.73516 0.0
O171 O 0.84337 0.37898 0.7266 0.0
C172 C 0.91728 0.36546 0.77704 0.0
C173 C 0.89231 0.29643 0.73643 0.0
C174 C 0.80293 0.38142 0.76622 0.0
O175 O 0.91928 0.39014 0.76566 0.0
O176 O 0.89175 0.33965 0.77509 0.0
O177 O 0.81191 0.34667 0.76308 0.0
O178 O 0.82722 0.40635 0.76144 0.0
C179 C 0.86625 0.40692 0.72401 0.0
O180 O 0.85769 0.30173 0.74117 0.0
O181 O 0.91518 0.32429 0.73915 0.0
In182 In 0.64675 0.3518 0.99623 0.0
O183 O 0.67062 0.30487 0.01326 0.0
O184 O 0.63122 0.28799 0.99461 0.0
C185 C 0.7129 0.38419 0.98492 0.0
C186 C 0.61946 0.38514 0.02382 0.0
C187 C 0.60039 0.35581 0.96975 0.0
O188 O 0.71128 0.34922 0.98941 0.0
O189 O 0.68145 0.40269 0.98636 0.0
O190 O 0.59427 0.37613 0.98234 0.0
O191 O 0.6297 0.33395 0.97059 0.0
C192 C 0.65125 0.27789 0.00675 0.0
O193 O 0.60054 0.36007 0.01591 0.0
O194 O 0.65144 0.39474 0.01745 0.0
In195 In 0.60029 0.11456 0.25687 0.0
O196 O 0.54945 0.09194 0.27201 0.0
O197 O 0.5833 0.13781 0.28191 0.0
C198 C 0.59502 0.06604 0.23115 0.0
C199 C 0.66944 0.09151 0.2691 0.0
C200 C 0.58233 0.18373 0.2434 0.0
O201 O 0.57097 0.06539 0.24279 0.0
O202 O 0.62149 0.09117 0.23248 0.0
O203 O 0.61451 0.17739 0.25031 0.0
O204 O 0.55936 0.15525 0.24328 0.0
C205 C 0.55502 0.11494 0.28376 0.0
O206 O 0.66488 0.12399 0.26227 0.0
O207 O 0.63917 0.07092 0.26982 0.0
H208 H 0.07026 0.90995 0.28808 0.0
H209 H 0.29595 0.95996 0.27557 0.0
H210 H 0.12537 0.01337 0.30673 0.0
H211 H 0.24364 0.85237 0.26003 0.0
H212 H 0.23258 0.98176 0.28548 0.0
H213 H 0.13229 0.89034 0.27598 0.0
C214 C 0.09531 0.92868 0.28954 0.0
C215 C 0.09262 0.96329 0.2985 0.0
C216 C 0.23489 0.95341 0.27988 0.0
C217 C 0.16376 0.94092 0.28474 0.0
C218 C 0.27108 0.94094 0.27422 0.0
C219 C 0.27505 0.90424 0.26702 0.0
C220 C 0.20236 0.92903 0.27832 0.0
C221 C 0.24185 0.88084 0.26555 0.0
C222 C 0.13076 0.9174 0.28266 0.0
C223 C 0.12608 0.98639 0.29998 0.0
N224 N 0.20688 0.8936 0.27118 0.0
N225 N 0.16024 0.97472 0.29322 0.0
H226 H 0.08093 0.5813 0.5465 0.0
H227 H 0.02103 0.79805 0.52276 0.0
H228 H 0.98121 0.64043 0.56677 0.0
H229 H 0.1336 0.74886 0.51188 0.0
H230 H 0.00293 0.738 0.53661 0.0
H231 H 0.09766 0.64007 0.53141 0.0
C232 C 0.06246 0.60658 0.54774 0.0
C233 C 0.02966 0.60599 0.55795 0.0
C234 C 0.03158 0.74031 0.53119 0.0
C235 C 0.04862 0.67326 0.54068 0.0
C236 C 0.04189 0.77453 0.52324 0.0
C237 C 0.07891 0.77841 0.51621 0.0
C238 C 0.05837 0.70964 0.532 0.0
C239 C 0.1048 0.74706 0.51719 0.0
C240 C 0.07211 0.64015 0.53915 0.0
C241 C 0.00683 0.63963 0.55909 0.0
N242 N 0.09402 0.71393 0.52494 0.0
N243 N 0.01672 0.67189 0.55054 0.0
H244 H 0.39063 0.50207 0.81446 0.0
H245 H 0.27545 0.6671 0.76575 0.0
H246 H 0.43684 0.61669 0.80595 0.0
H247 H 0.2322 0.55093 0.773 0.0
H248 H 0.33596 0.64876 0.7795 0.0
H249 H 0.33342 0.51896 0.79838 0.0
C250 C 0.38882 0.53077 0.80917 0.0
C251 C 0.4185 0.55807 0.81163 0.0
C252 C 0.31329 0.62724 0.77801 0.0
C253 C 0.35294 0.57767 0.79321 0.0
C254 C 0.2788 0.6377 0.77016 0.0
C255 C 0.24877 0.61052 0.76831 0.0
C256 C 0.31766 0.58939 0.78406 0.0
C257 C 0.25459 0.57282 0.77422 0.0
C258 C 0.35612 0.5404 0.79997 0.0
C259 C 0.41461 0.59477 0.80441 0.0
N260 N 0.28827 0.56342 0.78189 0.0
N261 N 0.38233 0.60356 0.79559 0.0
H262 H 0.55223 0.87473 0.06125 0.0
H263 H 0.36346 0.77135 0.02382 0.0
H264 H 0.43672 0.92345 0.0646 0.0
H265 H 0.47793 0.71994 0.02503 0.0
H266 H 0.38999 0.82967 0.03689 0.0
H267 H 0.52577 0.82006 0.04601 0.0
C268 C 0.52129 0.87399 0.05875 0.0
C269 C 0.49664 0.9036 0.06429 0.0
C270 C 0.40927 0.80563 0.03424 0.0
C271 C 0.46605 0.84095 0.04684 0.0
C272 C 0.39416 0.77243 0.02677 0.0
C273 C 0.41852 0.74076 0.02343 0.0
C274 C 0.44899 0.80709 0.0383 0.0
C275 C 0.45807 0.74361 0.02747 0.0
C276 C 0.50617 0.84272 0.05004 0.0
C277 C 0.45679 0.90116 0.06061 0.0
N278 N 0.47202 0.77612 0.03471 0.0
N279 N 0.44269 0.87029 0.05215 0.0
H280 H 0.07382 0.60672 0.95114 0.0
H281 H 0.29087 0.54856 0.97649 0.0
H282 H 0.13234 0.50285 0.93484 0.0
H283 H 0.24193 0.66155 0.98612 0.0
H284 H 0.23046 0.52956 0.96319 0.0
H285 H 0.13268 0.6255 0.96601 0.0
C286 C 0.09895 0.58778 0.95074 0.0
C287 C 0.0982 0.5532 0.9417 0.0
C288 C 0.23283 0.55853 0.9682 0.0
C289 C 0.16547 0.5745 0.95866 0.0
C290 C 0.26732 0.56939 0.97583 0.0
C291 C 0.27143 0.60675 0.98237 0.0
C292 C 0.20203 0.58513 0.96713 0.0
C293 C 0.23995 0.6325 0.98119 0.0
C294 C 0.13255 0.5986 0.95919 0.0
C295 C 0.13162 0.52983 0.94159 0.0
N296 N 0.20648 0.62121 0.97369 0.0
N297 N 0.16384 0.54092 0.94994 0.0
H298 H 0.40382 0.55753 0.2072 0.0
H299 H 0.47112 0.77667 0.22277 0.0
H300 H 0.5056 0.60793 0.18473 0.0
H301 H 0.36091 0.72992 0.23859 0.0
H302 H 0.48752 0.71363 0.21082 0.0
H303 H 0.39128 0.61887 0.22101 0.0
C304 C 0.4237 0.58144 0.20522 0.0
C305 C 0.45571 0.57761 0.1947 0.0
C306 C 0.4598 0.71716 0.21694 0.0
C307 C 0.44137 0.64816 0.2105 0.0
C308 C 0.45043 0.75309 0.22377 0.0
C309 C 0.41454 0.75851 0.23163 0.0
C310 C 0.43314 0.68641 0.21805 0.0
C311 C 0.38884 0.72702 0.23259 0.0
C312 C 0.41643 0.61654 0.2131 0.0
C313 C 0.48049 0.60962 0.19269 0.0
N314 N 0.39864 0.69234 0.22587 0.0
N315 N 0.47273 0.64361 0.20047 0.0
H316 H 0.37057 0.04298 0.44508 0.0
H317 H 0.24959 0.86553 0.48247 0.0
H318 H 0.41388 0.92555 0.44699 0.0
H319 H 0.20187 0.97975 0.47465 0.0
H320 H 0.31224 0.88825 0.47193 0.0
H321 H 0.31081 0.02159 0.45845 0.0
C322 C 0.36763 0.01274 0.4484 0.0
C323 C 0.39719 0.98598 0.44483 0.0
C324 C 0.28809 0.90836 0.47257 0.0
C325 C 0.32878 0.96127 0.4601 0.0
C326 C 0.25237 0.89542 0.4786 0.0
C327 C 0.2205 0.92076 0.47935 0.0
C328 C 0.29193 0.94694 0.46731 0.0
C329 C 0.22567 0.9592 0.47421 0.0
C330 C 0.33345 0.00052 0.456 0.0
C331 C 0.39177 0.94716 0.44944 0.0
N332 N 0.26067 0.97109 0.46838 0.0
N333 N 0.35816 0.93594 0.45679 0.0
H334 H 0.0941 0.93182 0.68893 0.0
H335 H 0.04235 0.72224 0.72468 0.0
H336 H 0.98275 0.87565 0.68282 0.0
H337 H 0.15628 0.77408 0.72855 0.0
H338 H 0.01917 0.78011 0.71068 0.0
H339 H 0.11661 0.8761 0.70474 0.0
C340 C 0.07434 0.90783 0.69094 0.0
C341 C 0.03652 0.90834 0.68449 0.0
C342 C 0.04923 0.77895 0.71462 0.0
C343 C 0.0621 0.84455 0.70257 0.0
C344 C 0.06247 0.74592 0.72264 0.0
C345 C 0.10133 0.74336 0.72773 0.0
C346 C 0.07502 0.80972 0.71165 0.0
C347 C 0.12611 0.7749 0.72479 0.0
C348 C 0.08724 0.87603 0.69996 0.0
C349 C 0.01219 0.87648 0.68751 0.0
N350 N 0.11254 0.80679 0.71688 0.0
N351 N 0.02542 0.84588 0.6963 0.0
H352 H 0.60663 0.5024 0.80843 0.0
H353 H 0.75702 0.33501 0.78525 0.0
H354 H 0.62658 0.40314 0.83935 0.0
H355 H 0.76951 0.45282 0.76839 0.0
H356 H 0.70155 0.35538 0.80209 0.0
H357 H 0.6595 0.48058 0.7906 0.0
C358 C 0.62212 0.47602 0.81145 0.0
C359 C 0.61238 0.45463 0.82542 0.0
C360 C 0.71642 0.37666 0.79465 0.0
C361 C 0.67233 0.42932 0.80499 0.0
C362 C 0.74783 0.36505 0.78498 0.0
C363 C 0.76783 0.39234 0.77549 0.0
C364 C 0.70467 0.41566 0.79456 0.0
C365 C 0.75493 0.43093 0.77562 0.0
C366 C 0.65227 0.46365 0.8013 0.0
C367 C 0.63338 0.42066 0.82877 0.0
N368 N 0.72407 0.44145 0.78498 0.0
N369 N 0.66228 0.4089 0.81857 0.0
H370 H 0.55561 0.05548 0.03178 0.0
H371 H 0.67507 0.25421 0.03698 0.0
H372 H 0.59011 0.10985 0.077 0.0
H373 H 0.61686 0.21403 0.99349 0.0
H374 H 0.65624 0.19419 0.05081 0.0
H375 H 0.58898 0.10688 0.01675 0.0
C376 C 0.57037 0.07809 0.03855 0.0
C377 C 0.56969 0.07863 0.05567 0.0
C378 C 0.64807 0.19831 0.03817 0.0
C379 C 0.60814 0.13729 0.03856 0.0
C380 C 0.65906 0.23239 0.03024 0.0
C381 C 0.64712 0.23918 0.01414 0.0
C382 C 0.62518 0.17088 0.02989 0.0
C383 C 0.62633 0.21004 0.00598 0.0
C384 C 0.58943 0.10739 0.02997 0.0
C385 C 0.58951 0.10853 0.0638 0.0
N386 N 0.61569 0.17728 0.01399 0.0
N387 N 0.6078 0.13676 0.05517 0.0
H388 H 0.9095 0.07478 0.30059 0.0
H389 H 0.68589 0.02258 0.28389 0.0
H390 H 0.85585 0.96685 0.31489 0.0
H391 H 0.73892 0.13043 0.2692 0.0
H392 H 0.74844 0.00119 0.29477 0.0
H393 H 0.84795 0.09505 0.28833 0.0
C394 C 0.88485 0.05524 0.30109 0.0
C395 C 0.88784 0.01907 0.30883 0.0
C396 C 0.74647 0.02953 0.28916 0.0
C397 C 0.81722 0.0422 0.29487 0.0
C398 C 0.71074 0.04177 0.28296 0.0
C399 C 0.70722 0.07837 0.27567 0.0
C400 C 0.77899 0.05408 0.28809 0.0
C401 C 0.74037 0.10201 0.27475 0.0
C402 C 0.84969 0.06688 0.2941 0.0
C403 C 0.85491 0.99501 0.30909 0.0
N404 N 0.77488 0.08947 0.28092 0.0
N405 N 0.82098 0.00705 0.30227 0.0
H406 H 0.03866 0.3866 0.56275 0.0
H407 H 0.86577 0.28264 0.51387 0.0
H408 H 0.92249 0.43344 0.55882 0.0
H409 H 0.9799 0.23263 0.52017 0.0
H410 H 0.88721 0.34011 0.52888 0.0
H411 H 0.01881 0.33174 0.5458 0.0
C412 C 0.00901 0.38542 0.55829 0.0
C413 C 0.98217 0.41459 0.56226 0.0
C414 C 0.90762 0.31663 0.52693 0.0
C415 C 0.95924 0.35189 0.54285 0.0
C416 C 0.8954 0.28387 0.51834 0.0
C417 C 0.92107 0.25283 0.51583 0.0
C418 C 0.94578 0.31832 0.53305 0.0
C419 C 0.95914 0.2559 0.52187 0.0
C420 C 0.99769 0.35407 0.54861 0.0
C421 C 0.94415 0.41156 0.55611 0.0
N422 N 0.97031 0.28802 0.53025 0.0
N423 N 0.93382 0.38074 0.54675 0.0
H424 H 0.62598 0.99475 0.44129 0.0
H425 H 0.74768 0.17193 0.47865 0.0
H426 H 0.57861 0.10968 0.44786 0.0
H427 H 0.79461 0.05736 0.47075 0.0
H428 H 0.68478 0.1495 0.46822 0.0
H429 H 0.68723 0.01681 0.45311 0.0
C430 C 0.62838 0.02459 0.44529 0.0
C431 C 0.59714 0.05044 0.44352 0.0
C432 C 0.70886 0.12929 0.46878 0.0
C433 C 0.66733 0.07599 0.45702 0.0
C434 C 0.74473 0.14209 0.47471 0.0
C435 C 0.77636 0.11647 0.47552 0.0
C436 C 0.70468 0.09061 0.46365 0.0
C437 C 0.77099 0.0781 0.4703 0.0
C438 C 0.66342 0.03721 0.45202 0.0
C439 C 0.60195 0.08877 0.44895 0.0
N440 N 0.73586 0.06636 0.46458 0.0
N441 N 0.63644 0.10042 0.4554 0.0
H442 H 0.90334 0.07854 0.68411 0.0
H443 H 0.9655 0.2788 0.72601 0.0
H444 H 0.02088 0.1228 0.68443 0.0
H445 H 0.84846 0.23356 0.72744 0.0
H446 H 0.98631 0.22115 0.71112 0.0
H447 H 0.88264 0.13445 0.70027 0.0
C448 C 0.92482 0.09997 0.6876 0.0
C449 C 0.96392 0.09601 0.68288 0.0
C450 C 0.95609 0.2237 0.71472 0.0
C451 C 0.94038 0.16009 0.70136 0.0
C452 C 0.94418 0.25662 0.72323 0.0
C453 C 0.90517 0.26095 0.72793 0.0
C454 C 0.92878 0.19487 0.71083 0.0
C455 C 0.87882 0.23133 0.72403 0.0
C456 C 0.91297 0.13188 0.69683 0.0
C457 C 0.99045 0.12467 0.68776 0.0
N458 N 0.89108 0.19955 0.71564 0.0
N459 N 0.97817 0.15551 0.6967 0.0
H460 H 0.87506 0.53898 0.93736 0.0
H461 H 0.7831 0.34955 0.97878 0.0
H462 H 0.93174 0.42725 0.93804 0.0
H463 H 0.72283 0.45892 0.97487 0.0
H464 H 0.83989 0.37878 0.96562 0.0
H465 H 0.82085 0.51136 0.95278 0.0
C466 C 0.87618 0.50869 0.94079 0.0
C467 C 0.90792 0.48537 0.93633 0.0
C468 C 0.81429 0.39643 0.96769 0.0
C469 C 0.84598 0.45356 0.95399 0.0
C470 C 0.78192 0.37977 0.97524 0.0
C471 C 0.74821 0.40182 0.97785 0.0
C472 C 0.8129 0.43542 0.96275 0.0
C473 C 0.74822 0.44085 0.97303 0.0
C474 C 0.8452 0.49292 0.94959 0.0
C475 C 0.90781 0.4463 0.94115 0.0
N476 N 0.78002 0.45637 0.96567 0.0
N477 N 0.8773 0.43163 0.94968 0.0
H478 H 0.47307 0.3676 0.18819 0.0
H479 H 0.626 0.24999 0.2428 0.0
H480 H 0.58046 0.41632 0.20626 0.0
H481 H 0.51588 0.20302 0.22702 0.0
H482 H 0.60918 0.31167 0.22992 0.0
H483 H 0.4873 0.30765 0.20291 0.0
C484 C 0.49951 0.3658 0.19533 0.0
C485 C 0.52568 0.397 0.19594 0.0
C486 C 0.58862 0.28792 0.22931 0.0
C487 C 0.54227 0.32837 0.21274 0.0
C488 C 0.59825 0.2527 0.23664 0.0
C489 C 0.57234 0.22136 0.23593 0.0
C490 C 0.55286 0.29178 0.22115 0.0
C491 C 0.53674 0.22646 0.22783 0.0
C492 C 0.50765 0.33153 0.20372 0.0
C493 C 0.55949 0.393 0.2054 0.0
N494 N 0.52809 0.26097 0.22071 0.0
N495 N 0.56688 0.35928 0.21336 0.0
H496 H 0.06953 0.88605 0.36193 0.0
H497 H 0.01493 0.92513 0.45412 0.0
H498 H 0.96872 0.95246 0.3764 0.0
H499 H 0.09717 0.83747 0.43914 0.0
H500 H 0.99336 0.93115 0.42578 0.0
H501 H 0.07567 0.86248 0.38989 0.0
C502 C 0.04822 0.89507 0.37092 0.0
C503 C 0.01895 0.92172 0.36688 0.0
C504 C 0.01571 0.91017 0.42873 0.0
C505 C 0.02626 0.89552 0.39899 0.0
C506 C 0.02808 0.90681 0.44489 0.0
C507 C 0.0582 0.88113 0.44893 0.0
C508 C 0.03398 0.88804 0.4165 0.0
C509 C 0.07409 0.8579 0.43653 0.0
C510 C 0.05176 0.88165 0.3869 0.0
C511 C 0.99195 0.93217 0.37899 0.0
N512 N 0.06218 0.8623 0.42084 0.0
N513 N 0.99671 0.91965 0.39458 0.0
H514 H 0.12374 0.57354 0.61861 0.0
H515 H 0.08865 0.5395 0.71277 0.0
H516 H 0.04696 0.48495 0.63723 0.0
H517 H 0.18218 0.60973 0.69378 0.0
H518 H 0.07788 0.51338 0.68535 0.0
H519 H 0.15131 0.5811 0.64587 0.0
C520 C 0.11321 0.55513 0.62836 0.0
C521 C 0.08253 0.52908 0.62569 0.0
C522 C 0.10118 0.53404 0.68723 0.0
C523 C 0.1134 0.53809 0.65701 0.0
C524 C 0.10727 0.54898 0.70288 0.0
C525 C 0.13595 0.57721 0.70548 0.0
C526 C 0.12364 0.54783 0.67411 0.0
C527 C 0.15944 0.58831 0.69227 0.0
C528 C 0.12892 0.55949 0.64395 0.0
C529 C 0.0703 0.50571 0.63875 0.0
N530 N 0.15238 0.57403 0.67712 0.0
N531 N 0.08522 0.51132 0.65392 0.0
H532 H 0.48801 0.61429 0.87687 0.0
H533 H 0.48805 0.5867 0.97309 0.0
H534 H 0.56846 0.54002 0.90252 0.0
H535 H 0.41471 0.66886 0.94802 0.0
H536 H 0.52382 0.57569 0.94772 0.0
H537 H 0.4677 0.64205 0.90295 0.0
C538 C 0.50202 0.60438 0.88795 0.0
C539 C 0.52944 0.57423 0.88752 0.0
C540 C 0.50021 0.59648 0.94779 0.0
C541 C 0.50584 0.60541 0.91744 0.0
C542 C 0.47972 0.60269 0.96227 0.0
C543 C 0.44808 0.62833 0.96259 0.0
C544 C 0.4887 0.61579 0.93349 0.0
C545 C 0.43873 0.64855 0.94826 0.0
C546 C 0.49027 0.62014 0.90286 0.0
C547 C 0.54681 0.56281 0.90226 0.0
N548 N 0.45864 0.64149 0.93424 0.0
N549 N 0.53423 0.57792 0.91664 0.0
H550 H 0.37277 0.97844 0.12394 0.0
H551 H 0.44923 0.96174 0.21529 0.0
H552 H 0.47393 0.03951 0.14167 0.0
H553 H 0.34022 0.91396 0.19857 0.0
H554 H 0.45604 0.99567 0.18917 0.0
H555 H 0.35646 0.96098 0.15198 0.0
C556 C 0.39106 0.98892 0.13376 0.0
C557 C 0.42492 0.01015 0.13041 0.0
C558 C 0.43041 0.97813 0.1913 0.0
C559 C 0.40704 0.98944 0.16254 0.0
C560 C 0.42657 0.9587 0.20619 0.0
C561 C 0.39431 0.9347 0.20902 0.0
C562 C 0.40183 0.97333 0.17918 0.0
C563 C 0.36576 0.93188 0.19684 0.0
C564 C 0.38188 0.97877 0.14978 0.0
C565 C 0.44754 0.02304 0.14365 0.0
N566 N 0.37035 0.95066 0.18243 0.0
N567 N 0.43859 0.01188 0.1591 0.0
H568 H 0.97922 0.55651 0.8616 0.0
H569 H 0.10947 0.68708 0.80258 0.0
H570 H 0.06924 0.63437 0.87822 0.0
H571 H 0.04444 0.58711 0.78645 0.0
H572 H 0.08171 0.67947 0.82982 0.0
H573 H 0.98922 0.57978 0.83374 0.0
C574 C 0.00037 0.57924 0.85948 0.0
C575 C 0.02391 0.59312 0.87222 0.0
C576 C 0.07316 0.65947 0.82028 0.0
C577 C 0.0356 0.61952 0.84038 0.0
C578 C 0.08897 0.66377 0.80472 0.0
C579 C 0.07966 0.63731 0.79231 0.0
C580 C 0.04777 0.62853 0.82346 0.0
C581 C 0.05271 0.60788 0.79574 0.0
C582 C 0.00624 0.59226 0.84354 0.0
C583 C 0.05083 0.62251 0.86873 0.0
N584 N 0.03795 0.60405 0.81106 0.0
N585 N 0.05627 0.63442 0.8531 0.0
H586 H 0.4325 0.42637 0.10481 0.0
H587 H 0.33805 0.60824 0.05934 0.0
H588 H 0.38385 0.52536 0.12987 0.0
H589 H 0.41023 0.52258 0.03566 0.0
H590 H 0.34176 0.57089 0.08465 0.0
H591 H 0.4103 0.45342 0.07892 0.0
C592 C 0.41636 0.45335 0.10494 0.0
C593 C 0.41063 0.47398 0.11952 0.0
C594 C 0.35647 0.56009 0.07387 0.0
C595 C 0.38555 0.50524 0.08989 0.0
C596 C 0.35439 0.58138 0.05943 0.0
C597 C 0.37428 0.56868 0.04546 0.0
C598 C 0.37846 0.52579 0.07431 0.0
C599 C 0.39481 0.53359 0.04622 0.0
C600 C 0.40395 0.4689 0.09012 0.0
C601 C 0.38938 0.50872 0.1189 0.0
N602 N 0.39658 0.51348 0.06045 0.0
N603 N 0.37806 0.52353 0.1043 0.0
H604 H 0.44593 0.86192 0.38316 0.0
H605 H 0.47969 0.91672 0.2901 0.0
H606 H 0.53483 0.94183 0.36724 0.0
H607 H 0.40717 0.82165 0.30578 0.0
H608 H 0.50417 0.92313 0.31804 0.0
H609 H 0.43557 0.8427 0.35481 0.0
C610 C 0.46376 0.87493 0.37374 0.0
C611 C 0.49099 0.9038 0.37758 0.0
C612 C 0.48327 0.90054 0.31532 0.0
C613 C 0.47879 0.8825 0.34504 0.0
C614 C 0.46927 0.89693 0.29938 0.0
C615 C 0.44109 0.86888 0.29567 0.0
C616 C 0.46868 0.87616 0.32763 0.0
C617 C 0.42868 0.84389 0.30814 0.0
C618 C 0.45778 0.86401 0.35753 0.0
C619 C 0.51339 0.91955 0.36486 0.0
N620 N 0.44222 0.8484 0.32358 0.0
N621 N 0.50635 0.90916 0.34913 0.0
H622 H 0.98568 0.0581 0.59662 0.0
H623 H 0.1436 0.93354 0.5481 0.0
H624 H 0.08036 0.99641 0.61951 0.0
H625 H 0.04026 0.98141 0.52603 0.0
H626 H 0.12799 0.96764 0.57338 0.0
H627 H 0.01286 0.04213 0.56993 0.0
C628 C 0.01274 0.04202 0.59607 0.0
C629 C 0.03055 0.02814 0.61034 0.0
C630 C 0.10891 0.97103 0.56297 0.0
C631 C 0.06153 0.00943 0.57979 0.0
C632 C 0.11779 0.95156 0.54853 0.0
C633 C 0.09288 0.95425 0.53503 0.0
C634 C 0.07476 0.99327 0.56396 0.0
C635 C 0.06005 0.97827 0.53621 0.0
C636 C 0.02808 0.03269 0.58079 0.0
C637 C 0.06545 0.00735 0.60883 0.0
N638 N 0.0517 0.99657 0.5505 0.0
N639 N 0.07955 -0.00177 0.59382 0.0
H640 H 0.46329 0.44879 0.89218 0.0
H641 H 0.60719 0.31278 0.94196 0.0
H642 H 0.53236 0.35826 0.87013 0.0
H643 H 0.53908 0.40449 0.96364 0.0
H644 H 0.57165 0.32136 0.91643 0.0
H645 H 0.48099 0.42452 0.91909 0.0
C646 C 0.48153 0.42324 0.893 0.0
C647 C 0.49692 0.4059 0.87889 0.0
C648 C 0.56413 0.33934 0.92681 0.0
C649 C 0.51792 0.3784 0.9097 0.0
C650 C 0.58448 0.33452 0.94138 0.0
C651 C 0.57643 0.35838 0.95485 0.0
C652 C 0.53566 0.3684 0.92565 0.0
C653 C 0.54647 0.38577 0.95349 0.0
C654 C 0.49176 0.40949 0.90839 0.0
C655 C 0.52006 0.37268 0.88068 0.0
N656 N 0.52746 0.39033 0.93908 0.0
N657 N 0.53047 0.36042 0.89583 0.0
H658 H 0.61079 0.98707 0.13262 0.0
H659 H 0.53745 0.01369 0.22411 0.0
H660 H 0.5026 0.94037 0.15083 0.0
H661 H 0.64469 0.06101 0.20528 0.0
H662 H 0.52936 0.97701 0.19875 0.0
H663 H 0.62952 0.00327 0.16052 0.0
C664 C 0.59135 0.97943 0.14252 0.0
C665 C 0.55483 0.96292 0.13935 0.0
C666 C 0.5549 0.99506 0.20024 0.0
C667 C 0.57568 0.98214 0.17129 0.0
C668 C 0.55949 0.01602 0.2147 0.0
C669 C 0.59151 0.04082 0.21667 0.0
C670 C 0.58249 -0.00095 0.18768 0.0
C671 C 0.61932 0.04258 0.20417 0.0
C672 C 0.60196 0.98887 0.15846 0.0
C673 C 0.53094 0.95336 0.15268 0.0
N674 N 0.61397 0.0223 0.19015 0.0
N675 N 0.54146 0.96379 0.16804 0.0
H676 H 0.94689 0.14675 0.36246 0.0
H677 H 0.98123 0.09778 0.45572 0.0
H678 H 0.03651 0.06829 0.37891 0.0
H679 H 0.91168 0.19436 0.43934 0.0
H680 H 0.00604 0.08985 0.42788 0.0
H681 H 0.93802 0.1688 0.39054 0.0
C682 C 0.9652 0.13466 0.37193 0.0
C683 C 0.9921 0.10527 0.36835 0.0
C684 C 0.98577 0.11314 0.43044 0.0
C685 C 0.98161 0.12981 0.40059 0.0
C686 C 0.97158 0.1176 0.44632 0.0
C687 C 0.94403 0.14645 0.44979 0.0
C688 C 0.97194 0.13743 0.41795 0.0
C689 C 0.93264 0.17148 0.43717 0.0
C690 C 0.9601 0.14721 0.38798 0.0
C691 C 0.01522 0.09083 0.38111 0.0
N692 N 0.94624 0.16607 0.42178 0.0
N693 N 0.00895 0.10274 0.39671 0.0
H694 H 0.85413 0.45291 0.62197 0.0
H695 H 0.9108 0.46959 0.71542 0.0
H696 H 0.9285 0.5431 0.641 0.0
H697 H 0.8199 0.39448 0.69752 0.0
H698 H 0.91324 0.50123 0.68872 0.0
H699 H 0.83559 0.43603 0.64983 0.0
C700 C 0.86597 0.46968 0.63198 0.0
C701 C 0.89339 0.49904 0.62914 0.0
C702 C 0.8924 0.47817 0.69069 0.0
C703 C 0.87291 0.47937 0.6611 0.0
C704 C 0.89109 0.46005 0.70592 0.0
C705 C 0.86546 0.42908 0.70861 0.0
C706 C 0.86819 0.46491 0.67803 0.0
C707 C 0.84037 0.41804 0.69592 0.0
C708 C 0.85546 0.45996 0.64792 0.0
C709 C 0.90754 0.51999 0.6426 0.0
N710 N 0.8427 0.4356 0.68113 0.0
N711 N 0.8977 0.50927 0.65801 0.0
H712 H 0.42205 0.0232 0.36279 0.0
H713 H 0.56534 0.15763 0.31152 0.0
H714 H 0.5074 0.09965 0.38424 0.0
H715 H 0.49299 0.06815 0.29068 0.0
H716 H 0.53287 0.14824 0.33777 0.0
H717 H 0.43543 0.05175 0.33615 0.0
C718 C 0.44295 0.04662 0.36199 0.0
C719 C 0.4643 0.05844 0.37572 0.0
C720 C 0.52373 0.13102 0.3274 0.0
C721 C 0.48004 0.09088 0.34521 0.0
C722 C 0.54225 0.13636 0.31242 0.0
C723 C 0.53225 0.11316 0.299 0.0
C724 C 0.49507 0.10223 0.32896 0.0
C725 C 0.50192 0.08629 0.30079 0.0
C726 C 0.45072 0.06276 0.34673 0.0
C727 C 0.49075 0.08916 0.37393 0.0
N728 N 0.4847 0.08124 0.31556 0.0
N729 N 0.49836 0.10388 0.3589 0.0
H730 H 0.84177 0.04156 0.62006 0.0
H731 H 0.93401 0.04917 0.53106 0.0
H732 H 0.93558 0.96672 0.60462 0.0
H733 H 0.82863 0.10898 0.54484 0.0
H734 H 0.93263 0.01476 0.55725 0.0
H735 H 0.83265 0.06167 0.59177 0.0
C736 C 0.85986 0.0287 0.61067 0.0
C737 C 0.88962 0.00267 0.61475 0.0
C738 C 0.90956 0.03507 0.55443 0.0
C739 C 0.88012 0.0263 0.58238 0.0
C740 C 0.91044 0.05477 0.53952 0.0
C741 C 0.88163 0.08222 0.53587 0.0
C742 C 0.87973 0.04306 0.56572 0.0
C743 C 0.85165 0.08832 0.54722 0.0
C744 C 0.85481 0.04033 0.59451 0.0
C745 C 0.91223 0.98689 0.60206 0.0
N746 N 0.85167 0.06916 0.56167 0.0
N747 N 0.90748 -0.00051 0.58648 0.0
H748 H 0.96971 0.36041 0.87841 0.0
H749 H 0.97349 0.41874 0.78497 0.0
H750 H 0.04555 0.44882 0.85895 0.0
H751 H 0.91421 0.31757 0.80341 0.0
H752 H 0.00602 0.42599 0.81137 0.0
H753 H 0.95557 0.33905 0.85063 0.0
C754 C 0.984 0.37484 0.86832 0.0
C755 C 0.00829 0.40687 0.87102 0.0
C756 C 0.98631 0.40188 0.80957 0.0
C757 C 0.99166 0.3831 0.83915 0.0
C758 C 0.9677 0.3978 0.79451 0.0
C759 C 0.94074 0.36785 0.79209 0.0
C760 C 0.97754 0.37602 0.82231 0.0
C761 C 0.93448 0.34136 0.80481 0.0
C762 C 0.97584 0.3627 0.85243 0.0
C763 C 0.02628 0.42424 0.85746 0.0
N764 N 0.95233 0.34636 0.81943 0.0
N765 N 0.01701 0.41262 0.8421 0.0
H766 H 0.55049 0.37592 0.1238 0.0
H767 H 0.64701 0.44726 0.04129 0.0
H768 H 0.5748 0.4975 0.11645 0.0
H769 H 0.56569 0.35215 0.0438 0.0
H770 H 0.63121 0.46378 0.06977 0.0
H771 H 0.56883 0.36326 0.09559 0.0
C772 C 0.56026 0.39995 0.11635 0.0
C773 C 0.5609 0.43792 0.12251 0.0
C774 C 0.6167 0.43953 0.06398 0.0
C775 C 0.58183 0.42343 0.09011 0.0
C776 C 0.6256 0.43013 0.04778 0.0
C777 C 0.60752 0.39836 0.04021 0.0
C778 C 0.59035 0.41634 0.07267 0.0
C779 C 0.58013 0.377 0.04914 0.0
C780 C 0.57037 0.39268 0.10019 0.0
C781 C 0.57376 0.46782 0.11218 0.0
N782 N 0.57273 0.38609 0.06496 0.0
N783 N 0.58377 0.45994 0.09643 0.0
loop_
_geom_bond_atom_site_label_1
_geom_bond_atom_site_label_2
_geom_bond_distance
_geom_bond_site_symmetry_2
_ccdc_geom_bond_type
Mg0 O7 2.141 1_545 S
Mg0 O8 2.048 1_545 S
Mg0 O9 2.048 1_455 S
Mg0 O12 2.141 1_455 S
C1 O2 1.313 . S
C1 O8 1.195 . S
O2 C1 1.313 . S
C3 O4 1.245 . S
C3 O12 1.289 . S
O4 C3 1.245 . S
C5 O6 1.245 . S
C5 O7 1.289 . S
O6 C5 1.245 . S
O7 Mg0 2.141 1_565 S
O7 C5 1.289 . S
O8 Mg0 2.048 1_565 S
O8 C1 1.195 . S
O9 Mg0 2.048 1_655 S
O9 C10 1.195 . S
C10 O9 1.195 . S
C10 O11 1.313 1_545 S
O11 C10 1.313 1_565 S
O12 Mg0 2.141 1_655 S
O12 C3 1.289 . S
Mg13 O20 2.141 1_655 S
Mg13 O21 2.048 1_655 S
Mg13 O22 2.048 . S
Mg13 O25 2.141 . S
C14 O15 1.313 . S
C14 O21 1.195 . S
O15 C14 1.313 . S
C16 O17 1.245 . S
C16 O25 1.289 . S
O17 C16 1.245 . S
C18 O19 1.245 . S
C18 O20 1.289 . S
O19 C18 1.245 . S
O20 Mg13 2.141 1_455 S
O20 C18 1.289 . S
O21 Mg13 2.048 1_455 S
O21 C14 1.195 . S
O22 Mg13 2.048 . S
O22 C23 1.195 . S
C23 O22 1.195 . S
C23 O24 1.313 1_655 S
O24 C23 1.313 1_455 S
O25 Mg13 2.141 . S
O25 C16 1.289 . S
Mg26 O33 2.141 . S
Mg26 O34 2.048 . S
Mg26 O35 2.048 . S
Mg26 O38 2.141 . S
C27 O28 1.313 . S
C27 O34 1.195 . S
O28 C27 1.313 . S
C29 O30 1.245 . S
C29 O38 1.289 . S
O30 C29 1.245 . S
C31 O32 1.245 . S
C31 O33 1.289 . S
O32 C31 1.245 . S
O33 Mg26 2.141 . S
O33 C31 1.289 . S
O34 Mg26 2.048 . S
O34 C27 1.195 . S
O35 Mg26 2.048 . S
O35 C36 1.195 . S
C36 O35 1.195 . S
C36 O37 1.313 . S
O37 C36 1.313 . S
O38 Mg26 2.141 . S
O38 C29 1.289 . S
Mg39 O46 2.141 . S
Mg39 O47 2.048 . S
Mg39 O48 2.048 1_545 S
Mg39 O51 2.141 1_545 S
C40 O41 1.313 . S
C40 O47 1.195 . S
O41 C40 1.313 . S
C42 O43 1.245 . S
C42 O51 1.289 . S
O43 C42 1.245 . S
C44 O45 1.245 . S
C44 O46 1.289 . S
O45 C44 1.245 . S
O46 Mg39 2.141 . S
O46 C44 1.289 . S
O47 Mg39 2.048 . S
O47 C40 1.195 . S
O48 Mg39 2.048 1_565 S
O48 C49 1.195 . S
C49 O48 1.195 . S
C49 O50 1.313 . S
O50 C49 1.313 . S
O51 Mg39 2.141 1_565 S
O51 C42 1.289 . S
Mg52 O59 2.141 . S
Mg52 O60 2.048 . S
Mg52 O61 2.048 1_455 S
Mg52 O64 2.141 1_455 S
C53 O54 1.313 . S
C53 O60 1.195 . S
O54 C53 1.313 . S
C55 O56 1.245 . S
C55 O64 1.289 . S
O56 C55 1.245 . S
C57 O58 1.245 . S
C57 O59 1.289 . S
O58 C57 1.245 . S
O59 Mg52 2.141 . S
O59 C57 1.289 . S
O60 Mg52 2.048 . S
O60 C53 1.195 . S
O61 Mg52 2.048 1_655 S
O61 C62 1.195 . S
C62 O61 1.195 . S
C62 O63 1.313 . S
O63 C62 1.313 . S
O64 Mg52 2.141 1_655 S
O64 C55 1.289 . S
Mg65 O72 2.141 . S
Mg65 O73 2.048 . S
Mg65 O74 2.048 . S
Mg65 O77 2.141 . S
C66 O67 1.313 . S
C66 O73 1.195 . S
O67 C66 1.313 . S
C68 O69 1.245 . S
C68 O77 1.289 . S
O69 C68 1.245 . S
C70 O71 1.245 . S
C70 O72 1.289 . S
O71 C70 1.245 . S
O72 Mg65 2.141 . S
O72 C70 1.289 . S
O73 Mg65 2.048 . S
O73 C66 1.195 . S
O74 Mg65 2.048 . S
O74 C75 1.195 . S
C75 O74 1.195 . S
C75 O76 1.313 . S
O76 C75 1.313 . S
O77 Mg65 2.141 . S
O77 C68 1.289 . S
Mg78 O85 2.141 1_565 S
Mg78 O86 2.048 1_565 S
Mg78 O87 2.048 . S
Mg78 O90 2.141 . S
C79 O80 1.313 . S
C79 O86 1.195 . S
O80 C79 1.313 . S
C81 O82 1.245 . S
C81 O90 1.289 . S
O82 C81 1.245 . S
C83 O84 1.245 . S
C83 O85 1.289 . S
O84 C83 1.245 . S
O85 Mg78 2.141 1_545 S
O85 C83 1.289 . S
O86 Mg78 2.048 1_545 S
O86 C79 1.195 . S
O87 Mg78 2.048 . S
O87 C88 1.195 . S
C88 O87 1.195 . S
C88 O89 1.313 1_565 S
O89 C88 1.313 1_545 S
O90 Mg78 2.141 . S
O90 C81 1.289 . S
Mg91 O98 2.141 1_655 S
Mg91 O99 2.048 1_655 S
Mg91 O100 2.048 1_565 S
Mg91 O103 2.141 1_565 S
C92 O93 1.313 . S
C92 O99 1.195 . S
O93 C92 1.313 . S
C94 O95 1.245 . S
C94 O103 1.289 . S
O95 C94 1.245 . S
C96 O97 1.245 . S
C96 O98 1.289 . S
O97 C96 1.245 . S
O98 Mg91 2.141 1_455 S
O98 C96 1.289 . S
O99 Mg91 2.048 1_455 S
O99 C92 1.195 . S
O100 Mg91 2.048 1_545 S
O100 C101 1.195 . S
C101 O100 1.195 . S
C101 O102 1.313 1_655 S
O102 C101 1.313 1_455 S
O103 Mg91 2.141 1_545 S
O103 C94 1.289 . S
In104 O105 2.294 . S
In104 O106 2.326 . S
In104 O110 2.266 1_554 S
In104 O111 2.326 1_554 S
In104 O112 2.266 1_554 S
In104 O113 2.326 1_554 S
In104 O115 2.294 . S
In104 O116 2.326 . S
O105 In104 2.294 . S
O105 C114 1.240 . S
O106 In104 2.326 . S
O106 C114 1.252 . S
C107 O110 1.252 . S
C107 O111 1.260 . S
C108 O115 1.240 . S
C108 O116 1.252 . S
C109 O112 1.252 . S
C109 O113 1.260 . S
O110 In104 2.266 1_556 S
O110 C107 1.252 . S
O111 In104 2.326 1_556 S
O111 C107 1.260 . S
O112 In104 2.266 1_556 S
O112 C109 1.252 . S
O113 In104 2.326 1_556 S
O113 C109 1.260 . S
C114 O105 1.240 . S
C114 O106 1.252 . S
O115 In104 2.294 . S
O115 C108 1.240 . S
O116 In104 2.326 . S
O116 C108 1.252 . S
In117 O118 2.294 . S
In117 O119 2.326 . S
In117 O123 2.266 . S
In117 O124 2.326 . S
In117 O125 2.266 . S
In117 O126 2.326 . S
In117 O128 2.294 . S
In117 O129 2.326 . S
O118 In117 2.294 . S
O118 C127 1.240 . S
O119 In117 2.326 . S
O119 C127 1.252 . S
C120 O123 1.252 . S
C120 O124 1.260 . S
C121 O128 1.240 . S
C121 O129 1.252 . S
C122 O125 1.252 . S
C122 O126 1.260 . S
O123 In117 2.266 . S
O123 C120 1.252 . S
O124 In117 2.326 . S
O124 C120 1.260 . S
O125 In117 2.266 . S
O125 C122 1.252 . S
O126 In117 2.326 . S
O126 C122 1.260 . S
C127 O118 1.240 . S
C127 O119 1.252 . S
O128 In117 2.294 . S
O128 C121 1.240 . S
O129 In117 2.326 . S
O129 C121 1.252 . S
In130 O131 2.294 . S
In130 O132 2.326 . S
In130 O136 2.266 . S
In130 O137 2.326 . S
In130 O138 2.266 . S
In130 O139 2.326 . S
In130 O141 2.294 . S
In130 O142 2.326 . S
O131 In130 2.294 . S
O131 C140 1.240 . S
O132 In130 2.326 . S
O132 C140 1.252 . S
C133 O136 1.252 . S
C133 O137 1.260 . S
C134 O141 1.240 . S
C134 O142 1.252 . S
C135 O138 1.252 . S
C135 O139 1.260 . S
O136 In130 2.266 . S
O136 C133 1.252 . S
O137 In130 2.326 . S
O137 C133 1.260 . S
O138 In130 2.266 . S
O138 C135 1.252 . S
O139 In130 2.326 . S
O139 C135 1.260 . S
C140 O131 1.240 . S
C140 O132 1.252 . S
O141 In130 2.294 . S
O141 C134 1.240 . S
O142 In130 2.326 . S
O142 C134 1.252 . S
In143 O144 2.294 . S
In143 O145 2.326 . S
In143 O149 2.266 . S
In143 O150 2.326 . S
In143 O151 2.266 . S
In143 O152 2.326 . S
In143 O154 2.294 . S
In143 O155 2.326 . S
O144 In143 2.294 . S
O144 C153 1.240 . S
O145 In143 2.326 . S
O145 C153 1.252 . S
C146 O149 1.252 . S
C146 O150 1.260 . S
C147 O154 1.240 . S
C147 O155 1.252 . S
C148 O151 1.252 . S
C148 O152 1.260 . S
O149 In143 2.266 . S
O149 C146 1.252 . S
O150 In143 2.326 . S
O150 C146 1.260 . S
O151 In143 2.266 . S
O151 C148 1.252 . S
O152 In143 2.326 . S
O152 C148 1.260 . S
C153 O144 1.240 . S
C153 O145 1.252 . S
O154 In143 2.294 . S
O154 C147 1.240 . S
O155 In143 2.326 . S
O155 C147 1.252 . S
In156 O157 2.294 . S
In156 O158 2.326 . S
In156 O162 2.266 . S
In156 O163 2.326 . S
In156 O164 2.266 . S
In156 O165 2.326 . S
In156 O167 2.294 . S
In156 O168 2.326 . S
O157 In156 2.294 . S
O157 C166 1.240 . S
O158 In156 2.326 . S
O158 C166 1.252 . S
C159 O162 1.252 . S
C159 O163 1.260 . S
C160 O167 1.240 . S
C160 O168 1.252 . S
C161 O164 1.252 . S
C161 O165 1.260 . S
O162 In156 2.266 . S
O162 C159 1.252 . S
O163 In156 2.326 . S
O163 C159 1.260 . S
O164 In156 2.266 . S
O164 C161 1.252 . S
O165 In156 2.326 . S
O165 C161 1.260 . S
C166 O157 1.240 . S
C166 O158 1.252 . S
O167 In156 2.294 . S
O167 C160 1.240 . S
O168 In156 2.326 . S
O168 C160 1.252 . S
In169 O170 2.294 . S
In169 O171 2.326 . S
In169 O175 2.266 . S
In169 O176 2.326 . S
In169 O177 2.266 . S
In169 O178 2.326 . S
In169 O180 2.294 . S
In169 O181 2.326 . S
O170 In169 2.294 . S
O170 C179 1.240 . S
O171 In169 2.326 . S
O171 C179 1.252 . S
C172 O175 1.252 . S
C172 O176 1.260 . S
C173 O180 1.240 . S
C173 O181 1.252 . S
C174 O177 1.252 . S
C174 O178 1.260 . S
O175 In169 2.266 . S
O175 C172 1.252 . S
O176 In169 2.326 . S
O176 C172 1.260 . S
O177 In169 2.266 . S
O177 C174 1.252 . S
O178 In169 2.326 . S
O178 C174 1.260 . S
C179 O170 1.240 . S
C179 O171 1.252 . S
O180 In169 2.294 . S
O180 C173 1.240 . S
O181 In169 2.326 . S
O181 C173 1.252 . S
In182 O183 2.294 . S
In182 O184 2.326 . S
In182 O188 2.266 1_554 S
In182 O189 2.326 1_554 S
In182 O190 2.266 1_554 S
In182 O191 2.326 1_554 S
In182 O193 2.294 . S
In182 O194 2.326 . S
O183 In182 2.294 . S
O183 C192 1.240 . S
O184 In182 2.326 . S
O184 C192 1.252 . S
C185 O188 1.252 . S
C185 O189 1.260 . S
C186 O193 1.240 . S
C186 O194 1.252 . S
C187 O190 1.252 . S
C187 O191 1.260 . S
O188 In182 2.266 1_556 S
O188 C185 1.252 . S
O189 In182 2.326 1_556 S
O189 C185 1.260 . S
O190 In182 2.266 1_556 S
O190 C187 1.252 . S
O191 In182 2.326 1_556 S
O191 C187 1.260 . S
C192 O183 1.240 . S
C192 O184 1.252 . S
O193 In182 2.294 . S
O193 C186 1.240 . S
O194 In182 2.326 . S
O194 C186 1.252 . S
In195 O196 2.294 . S
In195 O197 2.326 . S
In195 O201 2.266 . S
In195 O202 2.326 . S
In195 O203 2.266 . S
In195 O204 2.326 . S
In195 O206 2.294 . S
In195 O207 2.326 . S
O196 In195 2.294 . S
O196 C205 1.240 . S
O197 In195 2.326 . S
O197 C205 1.252 . S
C198 O201 1.252 . S
C198 O202 1.260 . S
C199 O206 1.240 . S
C199 O207 1.252 . S
C200 O203 1.252 . S
C200 O204 1.260 . S
O201 In195 2.266 . S
O201 C198 1.252 . S
O202 In195 2.326 . S
O202 C198 1.260 . S
O203 In195 2.266 . S
O203 C200 1.252 . S
O204 In195 2.326 . S
O204 C200 1.260 . S
C205 O196 1.240 . S
C205 O197 1.252 . S
O206 In195 2.294 . S
O206 C199 1.240 . S
O207 In195 2.326 . S
O207 C199 1.252 . S
H208 C214 0.930 . S
H209 C218 0.930 . S
H210 C223 0.929 . S
H211 C221 0.929 . S
H212 C216 0.929 . S
H213 C222 0.929 . S
C214 H208 0.930 . S
C214 C215 1.367 . S
C214 C222 1.378 . S
C215 C214 1.367 . S
C215 C223 1.433 . S
C216 H212 0.929 . S
C216 C218 1.378 . S
C216 C220 1.350 . S
C217 C220 1.463 . S
C217 C222 1.350 . S
C217 N225 1.427 . S
C218 H209 0.930 . S
C218 C216 1.378 . S
C218 C219 1.367 . S
C219 C218 1.367 . S
C219 C221 1.433 . S
C220 C216 1.350 . S
C220 C217 1.463 . S
C220 N224 1.427 . S
C221 H211 0.929 . S
C221 C219 1.433 . S
C221 N224 1.384 . S
C222 H213 0.929 . S
C222 C214 1.378 . S
C222 C217 1.350 . S
C223 H210 0.929 . S
C223 C215 1.433 . S
C223 N225 1.384 . S
N224 C220 1.427 . S
N224 C221 1.384 . S
N225 C217 1.427 . S
N225 C223 1.384 . S
H226 C232 0.930 . S
H227 C236 0.930 . S
H228 C241 0.929 . S
H229 C239 0.929 . S
H230 C234 0.929 . S
H231 C240 0.929 . S
C232 H226 0.930 . S
C232 C233 1.367 . S
C232 C240 1.378 . S
C233 C232 1.367 . S
C233 C241 1.433 . S
C234 H230 0.929 . S
C234 C236 1.378 . S
C234 C238 1.350 . S
C235 C238 1.463 . S
C235 C240 1.350 . S
C235 N243 1.427 . S
C236 H227 0.930 . S
C236 C234 1.378 . S
C236 C237 1.367 . S
C237 C236 1.367 . S
C237 C239 1.433 . S
C238 C234 1.350 . S
C238 C235 1.463 . S
C238 N242 1.427 . S
C239 H229 0.929 . S
C239 C237 1.433 . S
C239 N242 1.384 . S
C240 H231 0.929 . S
C240 C232 1.378 . S
C240 C235 1.350 . S
C241 H228 0.929 . S
C241 C233 1.433 . S
C241 N243 1.384 . S
N242 C238 1.427 . S
N242 C239 1.384 . S
N243 C235 1.427 . S
N243 C241 1.384 . S
H244 C250 0.930 . S
H245 C254 0.930 . S
H246 C259 0.929 . S
H247 C257 0.929 . S
H248 C252 0.929 . S
H249 C258 0.929 . S
C250 H244 0.930 . S
C250 C251 1.367 . S
C250 C258 1.378 . S
C251 C250 1.367 . S
C251 C259 1.433 . S
C252 H248 0.929 . S
C252 C254 1.378 . S
C252 C256 1.350 . S
C253 C256 1.463 . S
C253 C258 1.350 . S
C253 N261 1.427 . S
C254 H245 0.930 . S
C254 C252 1.378 . S
C254 C255 1.367 . S
C255 C254 1.367 . S
C255 C257 1.433 . S
C256 C252 1.350 . S
C256 C253 1.463 . S
C256 N260 1.427 . S
C257 H247 0.929 . S
C257 C255 1.433 . S
C257 N260 1.384 . S
C258 H249 0.929 . S
C258 C250 1.378 . S
C258 C253 1.350 . S
C259 H246 0.929 . S
C259 C251 1.433 . S
C259 N261 1.384 . S
N260 C256 1.427 . S
N260 C257 1.384 . S
N261 C253 1.427 . S
N261 C259 1.384 . S
H262 C268 0.930 . S
H263 C272 0.930 . S
H264 C277 0.929 . S
H265 C275 0.929 . S
H266 C270 0.929 . S
H267 C276 0.929 . S
C268 H262 0.930 . S
C268 C269 1.367 . S
C268 C276 1.378 . S
C269 C268 1.367 . S
C269 C277 1.433 . S
C270 H266 0.929 . S
C270 C272 1.378 . S
C270 C274 1.350 . S
C271 C274 1.463 . S
C271 C276 1.350 . S
C271 N279 1.427 . S
C272 H263 0.930 . S
C272 C270 1.378 . S
C272 C273 1.367 . S
C273 C272 1.367 . S
C273 C275 1.433 . S
C274 C270 1.350 . S
C274 C271 1.463 . S
C274 N278 1.427 . S
C275 H265 0.929 . S
C275 C273 1.433 . S
C275 N278 1.384 . S
C276 H267 0.929 . S
C276 C268 1.378 . S
C276 C271 1.350 . S
C277 H264 0.929 . S
C277 C269 1.433 . S
C277 N279 1.384 . S
N278 C274 1.427 . S
N278 C275 1.384 . S
N279 C271 1.427 . S
N279 C277 1.384 . S
H280 C286 0.930 . S
H281 C290 0.967 . S
H282 C295 0.929 . S
H283 C293 0.929 . S
H284 C288 0.929 . S
H285 C294 0.929 . S
C286 H280 0.930 . S
C286 C287 1.367 . S
C286 C294 1.378 . S
C287 C286 1.367 . S
C287 C295 1.433 . S
C288 H284 0.929 . S
C288 C290 1.378 . S
C288 C292 1.350 . S
C289 C292 1.463 . S
C289 C294 1.350 . S
C289 N297 1.427 . S
C290 H281 0.967 . S
C290 C288 1.378 . S
C290 C291 1.367 . S
C291 C290 1.367 . S
C291 C293 1.433 . S
C292 C288 1.350 . S
C292 C289 1.463 . S
C292 N296 1.427 . S
C293 H283 0.929 . S
C293 C291 1.433 . S
C293 N296 1.384 . S
C294 H285 0.929 . S
C294 C286 1.378 . S
C294 C289 1.350 . S
C295 H282 0.929 . S
C295 C287 1.433 . S
C295 N297 1.384 . S
N296 C292 1.427 . S
N296 C293 1.384 . S
N297 C289 1.427 . S
N297 C295 1.384 . S
H298 C304 0.930 . S
H299 C308 0.930 . S
H300 C313 0.929 . S
H301 C311 0.929 . S
H302 C306 0.929 . S
H303 C312 0.929 . S
C304 H298 0.930 . S
C304 C305 1.367 . S
C304 C312 1.378 . S
C305 C304 1.367 . S
C305 C313 1.433 . S
C306 H302 0.929 . S
C306 C308 1.378 . S
C306 C310 1.350 . S
C307 C310 1.463 . S
C307 C312 1.350 . S
C307 N315 1.427 . S
C308 H299 0.930 . S
C308 C306 1.378 . S
C308 C309 1.367 . S
C309 C308 1.367 . S
C309 C311 1.433 . S
C310 C306 1.350 . S
C310 C307 1.463 . S
C310 N314 1.427 . S
C311 H301 0.929 . S
C311 C309 1.433 . S
C311 N314 1.384 . S
C312 H303 0.929 . S
C312 C304 1.378 . S
C312 C307 1.350 . S
C313 H300 0.929 . S
C313 C305 1.433 . S
C313 N315 1.384 . S
N314 C310 1.427 . S
N314 C311 1.384 . S
N315 C307 1.427 . S
N315 C313 1.384 . S
H316 C322 0.930 . S
H317 C326 0.930 . S
H318 C331 0.929 . S
H319 C329 0.929 . S
H320 C324 0.929 . S
H321 C330 0.929 . S
C322 H316 0.930 . S
C322 C323 1.367 . S
C322 C330 1.378 . S
C323 C322 1.367 . S
C323 C331 1.433 . S
C324 H320 0.929 . S
C324 C326 1.378 . S
C324 C328 1.350 . S
C325 C328 1.463 . S
C325 C330 1.350 . S
C325 N333 1.427 . S
C326 H317 0.930 . S
C326 C324 1.378 . S
C326 C327 1.367 . S
C327 C326 1.367 . S
C327 C329 1.433 . S
C328 C324 1.350 . S
C328 C325 1.463 . S
C328 N332 1.427 . S
C329 H319 0.929 . S
C329 C327 1.433 . S
C329 N332 1.384 . S
C330 H321 0.929 . S
C330 C322 1.378 . S
C330 C325 1.350 . S
C331 H318 0.929 . S
C331 C323 1.433 . S
C331 N333 1.384 . S
N332 C328 1.427 . S
N332 C329 1.384 . S
N333 C325 1.427 . S
N333 C331 1.384 . S
H334 C340 0.930 . S
H335 C344 0.930 . S
H336 C349 0.929 . S
H337 C347 0.929 . S
H338 C342 0.929 . S
H339 C348 0.929 . S
C340 H334 0.930 . S
C340 C341 1.367 . S
C340 C348 1.378 . S
C341 C340 1.367 . S
C341 C349 1.433 . S
C342 H338 0.929 . S
C342 C344 1.378 . S
C342 C346 1.350 . S
C343 C346 1.463 . S
C343 C348 1.350 . S
C343 N351 1.427 . S
C344 H335 0.930 . S
C344 C342 1.378 . S
C344 C345 1.367 . S
C345 C344 1.367 . S
C345 C347 1.433 . S
C346 C342 1.350 . S
C346 C343 1.463 . S
C346 N350 1.427 . S
C347 H337 0.929 . S
C347 C345 1.433 . S
C347 N350 1.384 . S
C348 H339 0.929 . S
C348 C340 1.378 . S
C348 C343 1.350 . S
C349 H336 0.929 . S
C349 C341 1.433 . S
C349 N351 1.384 . S
N350 C346 1.427 . S
N350 C347 1.384 . S
N351 C343 1.427 . S
N351 C349 1.384 . S
H352 C358 0.930 . S
H353 C362 0.930 . S
H354 C367 0.929 . S
H355 C365 0.929 . S
H356 C360 0.929 . S
H357 C366 0.929 . S
C358 H352 0.930 . S
C358 C359 1.367 . S
C358 C366 1.378 . S
C359 C358 1.367 . S
C359 C367 1.433 . S
C360 H356 0.929 . S
C360 C362 1.378 . S
C360 C364 1.350 . S
C361 C364 1.463 . S
C361 C366 1.350 . S
C361 N369 1.427 . S
C362 H353 0.930 . S
C362 C360 1.378 . S
C362 C363 1.367 . S
C363 C362 1.367 . S
C363 C365 1.433 . S
C364 C360 1.350 . S
C364 C361 1.463 . S
C364 N368 1.427 . S
C365 H355 0.929 . S
C365 C363 1.433 . S
C365 N368 1.384 . S
C366 H357 0.929 . S
C366 C358 1.378 . S
C366 C361 1.350 . S
C367 H354 0.929 . S
C367 C359 1.433 . S
C367 N369 1.384 . S
N368 C364 1.427 . S
N368 C365 1.384 . S
N369 C361 1.427 . S
N369 C367 1.384 . S
H370 C376 0.930 . S
H371 C380 0.930 . S
H372 C385 0.929 . S
H373 C383 0.929 . S
H374 C378 0.929 . S
H375 C384 0.929 . S
C376 H370 0.930 . S
C376 C377 1.367 . S
C376 C384 1.378 . S
C377 C376 1.367 . S
C377 C385 1.433 . S
C378 H374 0.929 . S
C378 C380 1.378 . S
C378 C382 1.350 . S
C379 C382 1.463 . S
C379 C384 1.350 . S
C379 N387 1.427 . S
C380 H371 0.930 . S
C380 C378 1.378 . S
C380 C381 1.367 . S
C381 C380 1.367 . S
C381 C383 1.433 . S
C382 C378 1.350 . S
C382 C379 1.463 . S
C382 N386 1.427 . S
C383 H373 0.929 . S
C383 C381 1.433 . S
C383 N386 1.384 . S
C384 H375 0.929 . S
C384 C376 1.378 . S
C384 C379 1.350 . S
C385 H372 0.929 . S
C385 C377 1.433 . S
C385 N387 1.384 . S
N386 C382 1.427 . S
N386 C383 1.384 . S
N387 C379 1.427 . S
N387 C385 1.384 . S
H388 C394 0.930 . S
H389 C398 0.930 . S
H390 C403 0.929 . S
H391 C401 0.929 . S
H392 C396 0.929 . S
H393 C402 0.929 . S
C394 H388 0.930 . S
C394 C395 1.367 . S
C394 C402 1.378 . S
C395 C394 1.367 . S
C395 C403 1.433 . S
C396 H392 0.929 . S
C396 C398 1.378 . S
C396 C400 1.350 . S
C397 C400 1.463 . S
C397 C402 1.350 . S
C397 N405 1.427 . S
C398 H389 0.930 . S
C398 C396 1.378 . S
C398 C399 1.367 . S
C399 C398 1.367 . S
C399 C401 1.433 . S
C400 C396 1.350 . S
C400 C397 1.463 . S
C400 N404 1.427 . S
C401 H391 0.929 . S
C401 C399 1.433 . S
C401 N404 1.384 . S
C402 H393 0.929 . S
C402 C394 1.378 . S
C402 C397 1.350 . S
C403 H390 0.929 . S
C403 C395 1.433 . S
C403 N405 1.384 . S
N404 C400 1.427 . S
N404 C401 1.384 . S
N405 C397 1.427 . S
N405 C403 1.384 . S
H406 C412 0.930 . S
H407 C416 0.930 . S
H408 C421 0.929 . S
H409 C419 0.929 . S
H410 C414 0.929 . S
H411 C420 0.929 . S
C412 H406 0.930 . S
C412 C413 1.367 . S
C412 C420 1.378 . S
C413 C412 1.367 . S
C413 C421 1.433 . S
C414 H410 0.929 . S
C414 C416 1.378 . S
C414 C418 1.350 . S
C415 C418 1.463 . S
C415 C420 1.350 . S
C415 N423 1.427 . S
C416 H407 0.930 . S
C416 C414 1.378 . S
C416 C417 1.367 . S
C417 C416 1.367 . S
C417 C419 1.433 . S
C418 C414 1.350 . S
C418 C415 1.463 . S
C418 N422 1.427 . S
C419 H409 0.929 . S
C419 C417 1.433 . S
C419 N422 1.384 . S
C420 H411 0.929 . S
C420 C412 1.378 . S
C420 C415 1.350 . S
C421 H408 0.929 . S
C421 C413 1.433 . S
C421 N423 1.384 . S
N422 C418 1.427 . S
N422 C419 1.384 . S
N423 C415 1.427 . S
N423 C421 1.384 . S
H424 C430 0.930 . S
H425 C434 0.930 . S
H426 C439 0.929 . S
H427 C437 0.929 . S
H428 C432 0.929 . S
H429 C438 0.929 . S
C430 H424 0.930 . S
C430 C431 1.367 . S
C430 C438 1.378 . S
C431 C430 1.367 . S
C431 C439 1.433 . S
C432 H428 0.929 . S
C432 C434 1.378 . S
C432 C436 1.350 . S
C433 C436 1.463 . S
C433 C438 1.350 . S
C433 N441 1.427 . S
C434 H425 0.930 . S
C434 C432 1.378 . S
C434 C435 1.367 . S
C435 C434 1.367 . S
C435 C437 1.433 . S
C436 C432 1.350 . S
C436 C433 1.463 . S
C436 N440 1.427 . S
C437 H427 0.929 . S
C437 C435 1.433 . S
C437 N440 1.384 . S
C438 H429 0.929 . S
C438 C430 1.378 . S
C438 C433 1.350 . S
C439 H426 0.929 . S
C439 C431 1.433 . S
C439 N441 1.384 . S
N440 C436 1.427 . S
N440 C437 1.384 . S
N441 C433 1.427 . S
N441 C439 1.384 . S
H442 C448 0.930 . S
H443 C452 0.930 . S
H444 C457 0.929 . S
H445 C455 0.929 . S
H446 C450 0.929 . S
H447 C456 0.929 . S
C448 H442 0.930 . S
C448 C449 1.367 . S
C448 C456 1.378 . S
C449 C448 1.367 . S
C449 C457 1.433 . S
C450 H446 0.929 . S
C450 C452 1.378 . S
C450 C454 1.350 . S
C451 C454 1.463 . S
C451 C456 1.350 . S
C451 N459 1.427 . S
C452 H443 0.930 . S
C452 C450 1.378 . S
C452 C453 1.367 . S
C453 C452 1.367 . S
C453 C455 1.433 . S
C454 C450 1.350 . S
C454 C451 1.463 . S
C454 N458 1.427 . S
C455 H445 0.929 . S
C455 C453 1.433 . S
C455 N458 1.384 . S
C456 H447 0.929 . S
C456 C448 1.378 . S
C456 C451 1.350 . S
C457 H444 0.929 . S
C457 C449 1.433 . S
C457 N459 1.384 . S
N458 C454 1.427 . S
N458 C455 1.384 . S
N459 C451 1.427 . S
N459 C457 1.384 . S
H460 C466 0.930 . S
H461 C470 0.930 . S
H462 C475 0.929 . S
H463 C473 0.929 . S
H464 C468 0.929 . S
H465 C474 0.929 . S
C466 H460 0.930 . S
C466 C467 1.367 . S
C466 C474 1.378 . S
C467 C466 1.367 . S
C467 C475 1.433 . S
C468 H464 0.929 . S
C468 C470 1.378 . S
C468 C472 1.350 . S
C469 C472 1.463 . S
C469 C474 1.350 . S
C469 N477 1.427 . S
C470 H461 0.930 . S
C470 C468 1.378 . S
C470 C471 1.367 . S
C471 C470 1.367 . S
C471 C473 1.433 . S
C472 C468 1.350 . S
C472 C469 1.463 . S
C472 N476 1.427 . S
C473 H463 0.929 . S
C473 C471 1.433 . S
C473 N476 1.384 . S
C474 H465 0.929 . S
C474 C466 1.378 . S
C474 C469 1.350 . S
C475 H462 0.929 . S
C475 C467 1.433 . S
C475 N477 1.384 . S
N476 C472 1.427 . S
N476 C473 1.384 . S
N477 C469 1.427 . S
N477 C475 1.384 . S
H478 C484 0.930 . S
H479 C488 0.930 . S
H480 C493 0.929 . S
H481 C491 0.929 . S
H482 C486 0.929 . S
H483 C492 0.929 . S
C484 H478 0.930 . S
C484 C485 1.367 . S
C484 C492 1.378 . S
C485 C484 1.367 . S
C485 C493 1.433 . S
C486 H482 0.929 . S
C486 C488 1.378 . S
C486 C490 1.350 . S
C487 C490 1.463 . S
C487 C492 1.350 . S
C487 N495 1.427 . S
C488 H479 0.930 . S
C488 C486 1.378 . S
C488 C489 1.367 . S
C489 C488 1.367 . S
C489 C491 1.433 . S
C490 C486 1.350 . S
C490 C487 1.463 . S
C490 N494 1.427 . S
C491 H481 0.929 . S
C491 C489 1.433 . S
C491 N494 1.384 . S
C492 H483 0.929 . S
C492 C484 1.378 . S
C492 C487 1.350 . S
C493 H480 0.929 . S
C493 C485 1.433 . S
C493 N495 1.384 . S
N494 C490 1.427 . S
N494 C491 1.384 . S
N495 C487 1.427 . S
N495 C493 1.384 . S
H496 C502 0.930 . S
H497 C506 0.930 . S
H498 C511 0.929 . S
H499 C509 0.929 . S
H500 C504 0.929 . S
H501 C510 0.929 . S
C502 H496 0.930 . S
C502 C503 1.367 . S
C502 C510 1.378 . S
C503 C502 1.367 . S
C503 C511 1.433 . S
C504 H500 0.929 . S
C504 C506 1.378 . S
C504 C508 1.350 . S
C505 C508 1.463 . S
C505 C510 1.350 . S
C505 N513 1.427 . S
C506 H497 0.930 . S
C506 C504 1.378 . S
C506 C507 1.367 . S
C507 C506 1.367 . S
C507 C509 1.433 . S
C508 C504 1.350 . S
C508 C505 1.463 . S
C508 N512 1.427 . S
C509 H499 0.929 . S
C509 C507 1.433 . S
C509 N512 1.384 . S
C510 H501 0.929 . S
C510 C502 1.378 . S
C510 C505 1.350 . S
C511 H498 0.929 . S
C511 C503 1.433 . S
C511 N513 1.384 . S
N512 C508 1.427 . S
N512 C509 1.384 . S
N513 C505 1.427 . S
N513 C511 1.384 . S
H514 C520 0.930 . S
H515 C524 0.930 . S
H516 C529 0.929 . S
H517 C527 0.929 . S
H518 C522 0.929 . S
H519 C528 0.929 . S
C520 H514 0.930 . S
C520 C521 1.367 . S
C520 C528 1.378 . S
C521 C520 1.367 . S
C521 C529 1.433 . S
C522 H518 0.929 . S
C522 C524 1.378 . S
C522 C526 1.350 . S
C523 C526 1.463 . S
C523 C528 1.350 . S
C523 N531 1.427 . S
C524 H515 0.930 . S
C524 C522 1.378 . S
C524 C525 1.367 . S
C525 C524 1.367 . S
C525 C527 1.433 . S
C526 C522 1.350 . S
C526 C523 1.463 . S
C526 N530 1.427 . S
C527 H517 0.929 . S
C527 C525 1.433 . S
C527 N530 1.384 . S
C528 H519 0.929 . S
C528 C520 1.378 . S
C528 C523 1.350 . S
C529 H516 0.929 . S
C529 C521 1.433 . S
C529 N531 1.384 . S
N530 C526 1.427 . S
N530 C527 1.384 . S
N531 C523 1.427 . S
N531 C529 1.384 . S
H532 C538 0.930 . S
H533 C542 0.930 . S
H534 C547 0.929 . S
H535 C545 0.929 . S
H536 C540 0.929 . S
H537 C546 0.929 . S
C538 H532 0.930 . S
C538 C539 1.367 . S
C538 C546 1.378 . S
C539 C538 1.367 . S
C539 C547 1.433 . S
C540 H536 0.929 . S
C540 C542 1.378 . S
C540 C544 1.350 . S
C541 C544 1.463 . S
C541 C546 1.350 . S
C541 N549 1.427 . S
C542 H533 0.930 . S
C542 C540 1.378 . S
C542 C543 1.367 . S
C543 C542 1.367 . S
C543 C545 1.433 . S
C544 C540 1.350 . S
C544 C541 1.463 . S
C544 N548 1.427 . S
C545 H535 0.929 . S
C545 C543 1.433 . S
C545 N548 1.384 . S
C546 H537 0.929 . S
C546 C538 1.378 . S
C546 C541 1.350 . S
C547 H534 0.929 . S
C547 C539 1.433 . S
C547 N549 1.384 . S
N548 C544 1.427 . S
N548 C545 1.384 . S
N549 C541 1.427 . S
N549 C547 1.384 . S
H550 C556 0.930 . S
H551 C560 0.930 . S
H552 C565 0.929 . S
H553 C563 0.929 . S
H554 C558 0.929 . S
H555 C564 0.929 . S
C556 H550 0.930 . S
C556 C557 1.367 . S
C556 C564 1.378 . S
C557 C556 1.367 . S
C557 C565 1.433 . S
C558 H554 0.929 . S
C558 C560 1.378 . S
C558 C562 1.350 . S
C559 C562 1.463 . S
C559 C564 1.350 . S
C559 N567 1.427 . S
C560 H551 0.930 . S
C560 C558 1.378 . S
C560 C561 1.367 . S
C561 C560 1.367 . S
C561 C563 1.433 . S
C562 C558 1.350 . S
C562 C559 1.463 . S
C562 N566 1.427 . S
C563 H553 0.929 . S
C563 C561 1.433 . S
C563 N566 1.384 . S
C564 H555 0.929 . S
C564 C556 1.378 . S
C564 C559 1.350 . S
C565 H552 0.929 . S
C565 C557 1.433 . S
C565 N567 1.384 . S
N566 C562 1.427 . S
N566 C563 1.384 . S
N567 C559 1.427 . S
N567 C565 1.384 . S
H568 C574 0.930 . S
H569 C578 0.930 . S
H570 C583 0.929 . S
H571 C581 0.929 . S
H572 C576 0.929 . S
H573 C582 0.929 . S
C574 H568 0.930 . S
C574 C575 1.367 . S
C574 C582 1.378 . S
C575 C574 1.367 . S
C575 C583 1.433 . S
C576 H572 0.929 . S
C576 C578 1.378 . S
C576 C580 1.350 . S
C577 C580 1.463 . S
C577 C582 1.350 . S
C577 N585 1.427 . S
C578 H569 0.930 . S
C578 C576 1.378 . S
C578 C579 1.367 . S
C579 C578 1.367 . S
C579 C581 1.433 . S
C580 C576 1.350 . S
C580 C577 1.463 . S
C580 N584 1.427 . S
C581 H571 0.929 . S
C581 C579 1.433 . S
C581 N584 1.384 . S
C582 H573 0.929 . S
C582 C574 1.378 . S
C582 C577 1.350 . S
C583 H570 0.929 . S
C583 C575 1.433 . S
C583 N585 1.384 . S
N584 C580 1.427 . S
N584 C581 1.384 . S
N585 C577 1.427 . S
N585 C583 1.384 . S
H586 C592 0.930 . S
H587 C596 0.930 . S
H588 C601 0.929 . S
H589 C599 0.929 . S
H590 C594 0.929 . S
H591 C600 0.929 . S
C592 H586 0.930 . S
C592 C593 1.367 . S
C592 C600 1.378 . S
C593 C592 1.367 . S
C593 C601 1.433 . S
C594 H590 0.929 . S
C594 C596 1.378 . S
C594 C598 1.350 . S
C595 C598 1.463 . S
C595 C600 1.350 . S
C595 N603 1.427 . S
C596 H587 0.930 . S
C596 C594 1.378 . S
C596 C597 1.367 . S
C597 C596 1.367 . S
C597 C599 1.433 . S
C598 C594 1.350 . S
C598 C595 1.463 . S
C598 N602 1.427 . S
C599 H589 0.929 . S
C599 C597 1.433 . S
C599 N602 1.384 . S
C600 H591 0.929 . S
C600 C592 1.378 . S
C600 C595 1.350 . S
C601 H588 0.929 . S
C601 C593 1.433 . S
C601 N603 1.384 . S
N602 C598 1.427 . S
N602 C599 1.384 . S
N603 C595 1.427 . S
N603 C601 1.384 . S
H604 C610 0.930 . S
H605 C614 0.930 . S
H606 C619 0.929 . S
H607 C617 0.929 . S
H608 C612 0.929 . S
H609 C618 0.929 . S
C610 H604 0.930 . S
C610 C611 1.367 . S
C610 C618 1.378 . S
C611 C610 1.367 . S
C611 C619 1.433 . S
C612 H608 0.929 . S
C612 C614 1.378 . S
C612 C616 1.350 . S
C613 C616 1.463 . S
C613 C618 1.350 . S
C613 N621 1.427 . S
C614 H605 0.930 . S
C614 C612 1.378 . S
C614 C615 1.367 . S
C615 C614 1.367 . S
C615 C617 1.433 . S
C616 C612 1.350 . S
C616 C613 1.463 . S
C616 N620 1.427 . S
C617 H607 0.929 . S
C617 C615 1.433 . S
C617 N620 1.384 . S
C618 H609 0.929 . S
C618 C610 1.378 . S
C618 C613 1.350 . S
C619 H606 0.929 . S
C619 C611 1.433 . S
C619 N621 1.384 . S
N620 C616 1.427 . S
N620 C617 1.384 . S
N621 C613 1.427 . S
N621 C619 1.384 . S
H622 C628 0.930 . S
H623 C632 0.930 . S
H624 C637 0.929 . S
H625 C635 0.929 . S
H626 C630 0.929 . S
H627 C636 0.929 . S
C628 H622 0.930 . S
C628 C629 1.367 . S
C628 C636 1.378 . S
C629 C628 1.367 . S
C629 C637 1.433 . S
C630 H626 0.929 . S
C630 C632 1.378 . S
C630 C634 1.350 . S
C631 C634 1.463 . S
C631 C636 1.350 . S
C631 N639 1.427 . S
C632 H623 0.930 . S
C632 C630 1.378 . S
C632 C633 1.367 . S
C633 C632 1.367 . S
C633 C635 1.433 . S
C634 C630 1.350 . S
C634 C631 1.463 . S
C634 N638 1.427 . S
C635 H625 0.929 . S
C635 C633 1.433 . S
C635 N638 1.384 . S
C636 H627 0.929 . S
C636 C628 1.378 . S
C636 C631 1.350 . S
C637 H624 0.929 . S
C637 C629 1.433 . S
C637 N639 1.384 . S
N638 C634 1.427 . S
N638 C635 1.384 . S
N639 C631 1.427 . S
N639 C637 1.384 . S
H640 C646 0.930 . S
H641 C650 0.930 . S
H642 C655 0.929 . S
H643 C653 0.929 . S
H644 C648 0.929 . S
H645 C654 0.929 . S
C646 H640 0.930 . S
C646 C647 1.367 . S
C646 C654 1.378 . S
C647 C646 1.367 . S
C647 C655 1.433 . S
C648 H644 0.929 . S
C648 C650 1.378 . S
C648 C652 1.350 . S
C649 C652 1.463 . S
C649 C654 1.350 . S
C649 N657 1.427 . S
C650 H641 0.930 . S
C650 C648 1.378 . S
C650 C651 1.367 . S
C651 C650 1.367 . S
C651 C653 1.433 . S
C652 C648 1.350 . S
C652 C649 1.463 . S
C652 N656 1.427 . S
C653 H643 0.929 . S
C653 C651 1.433 . S
C653 N656 1.384 . S
C654 H645 0.929 . S
C654 C646 1.378 . S
C654 C649 1.350 . S
C655 H642 0.929 . S
C655 C647 1.433 . S
C655 N657 1.384 . S
N656 C652 1.427 . S
N656 C653 1.384 . S
N657 C649 1.427 . S
N657 C655 1.384 . S
H658 C664 0.930 . S
H659 C668 0.930 . S
H660 C673 0.929 . S
H661 C671 0.929 . S
H662 C666 0.929 . S
H663 C672 0.929 . S
C664 H658 0.930 . S
C664 C665 1.367 . S
C664 C672 1.378 . S
C665 C664 1.367 . S
C665 C673 1.433 . S
C666 H662 0.929 . S
C666 C668 1.378 . S
C666 C670 1.350 . S
C667 C670 1.463 . S
C667 C672 1.350 . S
C667 N675 1.427 . S
C668 H659 0.930 . S
C668 C666 1.378 . S
C668 C669 1.367 . S
C669 C668 1.367 . S
C669 C671 1.433 . S
C670 C666 1.350 . S
C670 C667 1.463 . S
C670 N674 1.427 . S
C671 H661 0.929 . S
C671 C669 1.433 . S
C671 N674 1.384 . S
C672 H663 0.929 . S
C672 C664 1.378 . S
C672 C667 1.350 . S
C673 H660 0.929 . S
C673 C665 1.433 . S
C673 N675 1.384 . S
N674 C670 1.427 . S
N674 C671 1.384 . S
N675 C667 1.427 . S
N675 C673 1.384 . S
H676 C682 0.930 . S
H677 C686 0.930 . S
H678 C691 0.929 . S
H679 C689 0.929 . S
H680 C684 0.929 . S
H681 C690 0.929 . S
C682 H676 0.930 . S
C682 C683 1.367 . S
C682 C690 1.378 . S
C683 C682 1.367 . S
C683 C691 1.433 . S
C684 H680 0.929 . S
C684 C686 1.378 . S
C684 C688 1.350 . S
C685 C688 1.463 . S
C685 C690 1.350 . S
C685 N693 1.427 . S
C686 H677 0.930 . S
C686 C684 1.378 . S
C686 C687 1.367 . S
C687 C686 1.367 . S
C687 C689 1.433 . S
C688 C684 1.350 . S
C688 C685 1.463 . S
C688 N692 1.427 . S
C689 H679 0.929 . S
C689 C687 1.433 . S
C689 N692 1.384 . S
C690 H681 0.929 . S
C690 C682 1.378 . S
C690 C685 1.350 . S
C691 H678 0.929 . S
C691 C683 1.433 . S
C691 N693 1.384 . S
N692 C688 1.427 . S
N692 C689 1.384 . S
N693 C685 1.427 . S
N693 C691 1.384 . S
H694 C700 0.930 . S
H695 C704 0.930 . S
H696 C709 0.929 . S
H697 C707 0.929 . S
H698 C702 0.929 . S
H699 C708 0.929 . S
C700 H694 0.930 . S
C700 C701 1.367 . S
C700 C708 1.378 . S
C701 C700 1.367 . S
C701 C709 1.433 . S
C702 H698 0.929 . S
C702 C704 1.378 . S
C702 C706 1.350 . S
C703 C706 1.463 . S
C703 C708 1.350 . S
C703 N711 1.427 . S
C704 H695 0.930 . S
C704 C702 1.378 . S
C704 C705 1.367 . S
C705 C704 1.367 . S
C705 C707 1.433 . S
C706 C702 1.350 . S
C706 C703 1.463 . S
C706 N710 1.427 . S
C707 H697 0.929 . S
C707 C705 1.433 . S
C707 N710 1.384 . S
C708 H699 0.929 . S
C708 C700 1.378 . S
C708 C703 1.350 . S
C709 H696 0.929 . S
C709 C701 1.433 . S
C709 N711 1.384 . S
N710 C706 1.427 . S
N710 C707 1.384 . S
N711 C703 1.427 . S
N711 C709 1.384 . S
H712 C718 0.930 . S
H713 C722 0.930 . S
H714 C727 0.929 . S
H715 C725 0.929 . S
H716 C720 0.929 . S
H717 C726 0.929 . S
C718 H712 0.930 . S
C718 C719 1.367 . S
C718 C726 1.378 . S
C719 C718 1.367 . S
C719 C727 1.433 . S
C720 H716 0.929 . S
C720 C722 1.378 . S
C720 C724 1.350 . S
C721 C724 1.463 . S
C721 C726 1.350 . S
C721 N729 1.427 . S
C722 H713 0.930 . S
C722 C720 1.378 . S
C722 C723 1.367 . S
C723 C722 1.367 . S
C723 C725 1.433 . S
C724 C720 1.350 . S
C724 C721 1.463 . S
C724 N728 1.427 . S
C725 H715 0.929 . S
C725 C723 1.433 . S
C725 N728 1.384 . S
C726 H717 0.929 . S
C726 C718 1.378 . S
C726 C721 1.350 . S
C727 H714 0.929 . S
C727 C719 1.433 . S
C727 N729 1.384 . S
N728 C724 1.427 . S
N728 C725 1.384 . S
N729 C721 1.427 . S
N729 C727 1.384 . S
H730 C736 0.930 . S
H731 C740 0.930 . S
H732 C745 0.929 . S
H733 C743 0.929 . S
H734 C738 0.929 . S
H735 C744 0.929 . S
C736 H730 0.930 . S
C736 C737 1.367 . S
C736 C744 1.378 . S
C737 C736 1.367 . S
C737 C745 1.433 . S
C738 H734 0.929 . S
C738 C740 1.378 . S
C738 C742 1.350 . S
C739 C742 1.463 . S
C739 C744 1.350 . S
C739 N747 1.427 . S
C740 H731 0.930 . S
C740 C738 1.378 . S
C740 C741 1.367 . S
C741 C740 1.367 . S
C741 C743 1.433 . S
C742 C738 1.350 . S
C742 C739 1.463 . S
C742 N746 1.427 . S
C743 H733 0.929 . S
C743 C741 1.433 . S
C743 N746 1.384 . S
C744 H735 0.929 . S
C744 C736 1.378 . S
C744 C739 1.350 . S
C745 H732 0.929 . S
C745 C737 1.433 . S
C745 N747 1.384 . S
N746 C742 1.427 . S
N746 C743 1.384 . S
N747 C739 1.427 . S
N747 C745 1.384 . S
H748 C754 0.930 . S
H749 C758 0.930 . S
H750 C763 0.929 . S
H751 C761 0.929 . S
H752 C756 0.929 . S
H753 C762 0.929 . S
C754 H748 0.930 . S
C754 C755 1.367 . S
C754 C762 1.378 . S
C755 C754 1.367 . S
C755 C763 1.433 . S
C756 H752 0.929 . S
C756 C758 1.378 . S
C756 C760 1.350 . S
C757 C760 1.463 . S
C757 C762 1.350 . S
C757 N765 1.427 . S
C758 H749 0.930 . S
C758 C756 1.378 . S
C758 C759 1.367 . S
C759 C758 1.367 . S
C759 C761 1.433 . S
C760 C756 1.350 . S
C760 C757 1.463 . S
C760 N764 1.427 . S
C761 H751 0.929 . S
C761 C759 1.433 . S
C761 N764 1.384 . S
C762 H753 0.929 . S
C762 C754 1.378 . S
C762 C757 1.350 . S
C763 H750 0.929 . S
C763 C755 1.433 . S
C763 N765 1.384 . S
N764 C760 1.427 . S
N764 C761 1.384 . S
N765 C757 1.427 . S
N765 C763 1.384 . S
H766 C772 0.930 . S
H767 C776 0.930 . S
H768 C781 0.929 . S
H769 C779 0.929 . S
H770 C774 0.929 . S
H771 C780 0.929 . S
C772 H766 0.930 . S
C772 C773 1.367 . S
C772 C780 1.378 . S
C773 C772 1.367 . S
C773 C781 1.433 . S
C774 H770 0.929 . S
C774 C776 1.378 . S
C774 C778 1.350 . S
C775 C778 1.463 . S
C775 C780 1.350 . S
C775 N783 1.427 . S
C776 H767 0.930 . S
C776 C774 1.378 . S
C776 C777 1.367 . S
C777 C776 1.367 . S
C777 C779 1.433 . S
C778 C774 1.350 . S
C778 C775 1.463 . S
C778 N782 1.427 . S
C779 H769 0.929 . S
C779 C777 1.433 . S
C779 N782 1.384 . S
C780 H771 0.929 . S
C780 C772 1.378 . S
C780 C775 1.350 . S
C781 H768 0.929 . S
C781 C773 1.433 . S
C781 N783 1.384 . S
N782 C778 1.427 . S
N782 C779 1.384 . S
N783 C775 1.427 . S
N783 C781 1.384 . S
C219 C120 1.267 . S
C215 C5 1.278 . S
C237 C134 1.261 . S
C233 C18 1.274 . S
C255 C147 1.274 . S
C251 C31 1.284 . S
C269 C42 1.270 . S
C273 C114 1.272 . S
C287 C57 1.283 . S
C291 C107 1.281 . S
C305 C70 1.280 . S
C309 C127 1.278 . S
C327 C135 1.278 . S
C323 C81 1.264 . S
C345 C148 1.277 . S
C341 C96 1.278 . S
C359 C29 1.272 . S
C363 C174 1.267 . S
C381 C192 1.261 . S
C377 C44 1.276 . S
C395 C3 1.272 . S
C399 C199 1.272 . S
C417 C166 1.279 . S
C413 C16 1.265 . S
C431 C83 1.290 . S
C435 C159 1.282 . S
C449 C94 1.278 . S
C453 C173 1.271 . S
C471 C185 1.277 . S
C467 C55 1.265 . S
C485 C68 1.274 . S
C489 C200 1.271 . S
C507 C133 1.531 . S
C503 C1 1.531 . S
C525 C146 1.532 . S
C521 C14 1.526 . S
C539 C27 1.530 . S
C543 C109 1.530 . S
C557 C49 1.553 . S
C561 C121 1.521 . S
C575 C53 1.523 . S
C579 C153 1.523 . S
C597 C108 1.514 . S
C593 C66 1.514 . S
C615 C122 1.533 . S
C611 C88 1.555 . S
C633 C140 1.519 . S
C629 C92 1.518 . S
C651 C187 1.540 . S
C647 C36 1.555 . S
C669 C198 1.539 . S
C665 C40 1.536 . S
C683 C10 1.555 . S
C687 C161 1.530 . S
C705 C179 1.526 . S
C701 C23 1.551 . S
C723 C205 1.516 . S
C719 C79 1.514 . S
C737 C101 1.549 . S
C741 C160 1.520 . S
C759 C172 1.530 . S
C755 C62 1.556 . S
C777 C186 1.527 . S
C773 C75 1.552 . S
