# Generated by pormake.
# Topology soc, (4,6)-cn, num edge types: 1
# Building blocks:
#     Node 0, Type 0, BuildingBlock: ESEHIV_clean_sbu_0, # of connection points: 4
#     Node 1, Type 0, BuildingBlock: ESEHIV_clean_sbu_0, # of connection points: 4
#     Node 2, Type 0, BuildingBlock: ESEHIV_clean_sbu_0, # of connection points: 4
#     Node 3, Type 0, BuildingBlock: ESEHIV_clean_sbu_0, # of connection points: 4
#     Node 4, Type 0, BuildingBlock: ESEHIV_clean_sbu_0, # of connection points: 4
#     Node 5, Type 0, BuildingBlock: ESEHIV_clean_sbu_0, # of connection points: 4
#     Node 6, Type 0, BuildingBlock: ESEHIV_clean_sbu_0, # of connection points: 4
#     Node 7, Type 0, BuildingBlock: ESEHIV_clean_sbu_0, # of connection points: 4
#     Node 8, Type 0, BuildingBlock: ESEHIV_clean_sbu_0, # of connection points: 4
#     Node 9, Type 0, BuildingBlock: ESEHIV_clean_sbu_0, # of connection points: 4
#     Node 10, Type 0, BuildingBlock: ESEHIV_clean_sbu_0, # of connection points: 4
#     Node 11, Type 0, BuildingBlock: ESEHIV_clean_sbu_0, # of connection points: 4
#     Node 12, Type 1, BuildingBlock: CUKXOW_clean_sbu_0, # of connection points: 6
#     Node 13, Type 1, BuildingBlock: CUKXOW_clean_sbu_0, # of connection points: 6
#     Node 14, Type 1, BuildingBlock: CUKXOW_clean_sbu_0, # of connection points: 6
#     Node 15, Type 1, BuildingBlock: CUKXOW_clean_sbu_0, # of connection points: 6
#     Node 16, Type 1, BuildingBlock: CUKXOW_clean_sbu_0, # of connection points: 6
#     Node 17, Type 1, BuildingBlock: CUKXOW_clean_sbu_0, # of connection points: 6
#     Node 18, Type 1, BuildingBlock: CUKXOW_clean_sbu_0, # of connection points: 6
#     Node 19, Type 1, BuildingBlock: CUKXOW_clean_sbu_0, # of connection points: 6
#     Edge 20, Type (0, 1), BuildingBlock: AJUNOK_clean_linker_0, # of connection points: 2
#     Edge 21, Type (0, 1), BuildingBlock: AJUNOK_clean_linker_0, # of connection points: 2
#     Edge 22, Type (0, 1), BuildingBlock: AJUNOK_clean_linker_0, # of connection points: 2
#     Edge 23, Type (0, 1), BuildingBlock: AJUNOK_clean_linker_0, # of connection points: 2
#     Edge 24, Type (0, 1), BuildingBlock: AJUNOK_clean_linker_0, # of connection points: 2
#     Edge 25, Type (0, 1), BuildingBlock: AJUNOK_clean_linker_0, # of connection points: 2
#     Edge 26, Type (0, 1), BuildingBlock: AJUNOK_clean_linker_0, # of connection points: 2
#     Edge 27, Type (0, 1), BuildingBlock: AJUNOK_clean_linker_0, # of connection points: 2
#     Edge 28, Type (0, 1), BuildingBlock: AJUNOK_clean_linker_0, # of connection points: 2
#     Edge 29, Type (0, 1), BuildingBlock: AJUNOK_clean_linker_0, # of connection points: 2
#     Edge 30, Type (0, 1), BuildingBlock: AJUNOK_clean_linker_0, # of connection points: 2
#     Edge 31, Type (0, 1), BuildingBlock: AJUNOK_clean_linker_0, # of connection points: 2
#     Edge 32, Type (0, 1), BuildingBlock: AJUNOK_clean_linker_0, # of connection points: 2
#     Edge 33, Type (0, 1), BuildingBlock: AJUNOK_clean_linker_0, # of connection points: 2
#     Edge 34, Type (0, 1), BuildingBlock: AJUNOK_clean_linker_0, # of connection points: 2
#     Edge 35, Type (0, 1), BuildingBlock: AJUNOK_clean_linker_0, # of connection points: 2
#     Edge 36, Type (0, 1), BuildingBlock: AJUNOK_clean_linker_0, # of connection points: 2
#     Edge 37, Type (0, 1), BuildingBlock: AJUNOK_clean_linker_0, # of connection points: 2
#     Edge 38, Type (0, 1), BuildingBlock: AJUNOK_clean_linker_0, # of connection points: 2
#     Edge 39, Type (0, 1), BuildingBlock: AJUNOK_clean_linker_0, # of connection points: 2
#     Edge 40, Type (0, 1), BuildingBlock: AJUNOK_clean_linker_0, # of connection points: 2
#     Edge 41, Type (0, 1), BuildingBlock: AJUNOK_clean_linker_0, # of connection points: 2
#     Edge 42, Type (0, 1), BuildingBlock: AJUNOK_clean_linker_0, # of connection points: 2
#     Edge 43, Type (0, 1), BuildingBlock: AJUNOK_clean_linker_0, # of connection points: 2
#     Edge 44, Type (0, 1), BuildingBlock: AJUNOK_clean_linker_0, # of connection points: 2
#     Edge 45, Type (0, 1), BuildingBlock: AJUNOK_clean_linker_0, # of connection points: 2
#     Edge 46, Type (0, 1), BuildingBlock: AJUNOK_clean_linker_0, # of connection points: 2
#     Edge 47, Type (0, 1), BuildingBlock: AJUNOK_clean_linker_0, # of connection points: 2
#     Edge 48, Type (0, 1), BuildingBlock: AJUNOK_clean_linker_0, # of connection points: 2
#     Edge 49, Type (0, 1), BuildingBlock: AJUNOK_clean_linker_0, # of connection points: 2
#     Edge 50, Type (0, 1), BuildingBlock: AJUNOK_clean_linker_0, # of connection points: 2
#     Edge 51, Type (0, 1), BuildingBlock: AJUNOK_clean_linker_0, # of connection points: 2
#     Edge 52, Type (0, 1), BuildingBlock: AJUNOK_clean_linker_0, # of connection points: 2
#     Edge 53, Type (0, 1), BuildingBlock: AJUNOK_clean_linker_0, # of connection points: 2
#     Edge 54, Type (0, 1), BuildingBlock: AJUNOK_clean_linker_0, # of connection points: 2
#     Edge 55, Type (0, 1), BuildingBlock: AJUNOK_clean_linker_0, # of connection points: 2
#     Edge 56, Type (0, 1), BuildingBlock: AJUNOK_clean_linker_0, # of connection points: 2
#     Edge 57, Type (0, 1), BuildingBlock: AJUNOK_clean_linker_0, # of connection points: 2
#     Edge 58, Type (0, 1), BuildingBlock: AJUNOK_clean_linker_0, # of connection points: 2
#     Edge 59, Type (0, 1), BuildingBlock: AJUNOK_clean_linker_0, # of connection points: 2
#     Edge 60, Type (0, 1), BuildingBlock: AJUNOK_clean_linker_0, # of connection points: 2
#     Edge 61, Type (0, 1), BuildingBlock: AJUNOK_clean_linker_0, # of connection points: 2
#     Edge 62, Type (0, 1), BuildingBlock: AJUNOK_clean_linker_0, # of connection points: 2
#     Edge 63, Type (0, 1), BuildingBlock: AJUNOK_clean_linker_0, # of connection points: 2
#     Edge 64, Type (0, 1), BuildingBlock: AJUNOK_clean_linker_0, # of connection points: 2
#     Edge 65, Type (0, 1), BuildingBlock: AJUNOK_clean_linker_0, # of connection points: 2
#     Edge 66, Type (0, 1), BuildingBlock: AJUNOK_clean_linker_0, # of connection points: 2
#     Edge 67, Type (0, 1), BuildingBlock: AJUNOK_clean_linker_0, # of connection points: 2
# Relax obj value: 0.100
# Max RMSD: 0.176
# Mean RMSD: 0.149
data_MOF--net-soc--node1-ESEHIV_clean_sbu_0--node2-CUKXOW_clean_sbu_0--edge1-AJUNOK_clean_linker_0
_symmetry_space_group_name_H-M    P1
_symmetry_Int_Tables_number       1
_symmetry_cell_setting            triclinic
loop_
_symmetry_equiv_pos_as_xyz
'x, y, z'
_cell_length_a     32.338862
_cell_length_b     33.296168
_cell_length_c     34.400842
_cell_angle_alpha  97.780707
_cell_angle_beta   94.63886
_cell_angle_gamma 86.922707
loop_
_atom_site_label
_atom_site_type_symbol
_atom_site_fract_x
_atom_site_fract_y
_atom_site_fract_z
_atom_type_partial_charge
Cu0 Cu 0.07295 0.05208 0.28785 0.0
N1 N 0.10422 0.09411 0.3189 0.0
N2 N 0.14792 0.14623 0.33351 0.0
C3 C 0.13375 0.11578 0.30595 0.0
C4 C 0.12572 0.1437 0.36474 0.0
C5 C 0.09932 0.11186 0.35583 0.0
O6 O 0.11527 1.01335 0.26386 0.0
C7 C 1.00364 0.10175 0.27931 0.0
O8 O 1.00964 0.10105 0.31739 0.0
H9 H 0.14437 0.10948 0.27662 0.0
H10 H 0.07706 0.10328 0.37467 0.0
N11 N 1.04072 1.01713 0.31252 0.0
N12 N 0.99784 0.96618 0.31575 0.0
C13 C 1.02327 0.98292 0.29342 0.0
C14 C 1.02617 0.02161 0.34854 0.0
C15 C 0.99981 0.99055 0.35052 0.0
C16 C 0.1371 0.99647 0.29052 0.0
O17 O 0.13028 1.00879 0.32746 0.0
H18 H 1.02797 0.97131 0.26308 0.0
H19 H 1.03313 0.04634 0.3715 0.0
O20 O 1.02984 0.08188 0.25703 0.0
H21 H 0.127 0.16436 0.39188 0.0
H22 H 0.98324 0.98633 0.37568 0.0
Cu23 Cu 0.0514 0.02408 0.73024 0.0
N24 N 1.01053 0.99003 0.70143 0.0
N25 N 0.95878 0.94563 0.69229 0.0
C26 C 0.98696 0.9656 0.71833 0.0
C27 C 0.96492 0.95838 0.65757 0.0
C28 C 0.99667 0.98548 0.66322 0.0
O29 O 1.01681 0.0692 0.75752 0.0
C30 C 0.10626 0.958 0.72902 0.0
O31 O 0.09217 0.95812 0.69217 0.0
H32 H 0.9899 0.96343 0.74953 0.0
H33 H 1.00852 1.001 0.64106 0.0
N34 N 0.08833 0.05277 0.70426 0.0
N35 N 0.13944 0.09597 0.70156 0.0
C36 C 0.10877 0.08559 0.72246 0.0
C37 C 0.10657 0.04244 0.67025 0.0
C38 C 0.13793 0.06889 0.66854 0.0
C39 C 0.99709 0.08999 0.73238 0.0
O40 O 1.00286 0.07863 0.69506 0.0
H41 H 0.10263 0.10037 0.75156 0.0
H42 H 0.09886 1.01658 0.64881 0.0
O43 O 0.09077 0.98484 0.75506 0.0
H44 H 0.94794 0.94851 0.6298 0.0
H45 H 0.15831 0.06799 0.64495 0.0
Cu46 Cu 0.33966 0.02666 0.01007 0.0
N47 N 0.30164 0.99555 0.97626 0.0
N48 N 0.28091 0.94568 0.92957 0.0
C49 C 0.31194 0.95949 0.95572 0.0
C50 C 0.24991 0.97441 0.93361 0.0
C51 C 0.26272 1.00509 0.96249 0.0
O52 O 0.37222 0.98845 0.04017 0.0
C53 C 0.34441 0.08551 0.96167 0.0
O54 O 0.30671 0.09278 0.97316 0.0
H55 H 0.34279 0.94526 0.95783 0.0
H56 H 0.24583 0.03341 0.9709 0.0
N57 N 0.31537 0.06389 0.04832 0.0
N58 N 0.31051 0.11365 0.09852 0.0
C59 C 0.33628 0.09046 0.07496 0.0
C60 C 0.27514 0.07022 0.05567 0.0
C61 C 0.27202 0.10126 0.08633 0.0
C62 C 0.34939 0.96522 0.05505 0.0
O63 O 0.3089 0.96886 0.04842 0.0
H64 H 0.36955 0.09344 0.07633 0.0
H65 H 0.24981 0.05366 0.03985 0.0
O66 O 0.36727 0.05734 0.97536 0.0
H67 H 0.221 0.97434 0.91539 0.0
H68 H 0.24366 0.11397 0.09865 0.0
Cu69 Cu 0.05614 0.34622 2e-05 0.0
N70 N 0.09411 0.36942 0.97224 0.0
N71 N 0.14487 0.36957 0.93145 0.0
C72 C 0.12308 0.34706 0.95178 0.0
C73 C 0.12851 0.40777 0.93918 0.0
C74 C 0.09726 0.40762 0.96447 0.0
O75 O 0.08784 0.32435 0.04393 0.0
C76 C 0.98832 0.30383 0.95927 0.0
O77 O 0.96988 0.31219 -0.0078 0.0
H78 H 0.12667 0.31441 0.95049 0.0
H79 H 0.07757 0.43324 0.97549 0.0
N80 N 1.01478 0.38169 0.02237 0.0
N81 N 0.96112 0.39313 0.06024 0.0
C82 C 0.99932 0.3757 0.05624 0.0
C83 C 0.98536 0.40444 0.00439 0.0
C84 C 0.95207 0.4115 0.02776 0.0
C85 C 0.09978 0.35117 0.07222 0.0
O86 O 0.0918 0.38967 0.06873 0.0
H87 H 1.0133 0.35436 0.07507 0.0
H88 H 0.98594 0.41133 0.97461 0.0
O89 O 1.02723 0.30849 0.95978 0.0
H90 H 0.13811 0.43386 0.92709 0.0
H91 H 0.92246 0.42624 0.02006 0.0
Cu92 Cu 0.77814 0.04761 0.00909 0.0
N93 N 0.80857 0.08175 0.98594 0.0
N94 N 0.81714 0.13959 0.96344 0.0
C95 C 0.79031 0.11641 0.97659 0.0
C96 C 0.85399 0.11861 0.96383 0.0
C97 C 0.84862 0.08254 0.97801 0.0
O98 O 0.75085 0.08598 0.04837 0.0
C99 C 0.76554 1.00123 0.93812 0.0
O100 O 0.80558 1.0067 0.94022 0.0
H101 H 0.75781 0.12466 0.97986 0.0
H102 H 0.87201 0.0587 0.98164 0.0
N103 N 0.81086 1.01145 0.03556 0.0
N104 N 0.82301 0.96722 0.07826 0.0
C105 C 0.79416 0.98519 0.05532 0.0
C106 C 0.85188 1.01003 0.04616 0.0
C107 C 0.85946 0.98266 0.07281 0.0
C108 C 0.778 0.10646 0.0706 0.0
O109 O 0.81737 0.09543 0.06791 0.0
H110 H 0.76102 0.98201 0.0554 0.0
H111 H 0.87419 0.02962 0.03782 0.0
O112 O 0.74459 1.01651 0.96684 0.0
H113 H 0.88221 0.12811 0.95352 0.0
H114 H 0.88892 0.97623 0.08854 0.0
Cu115 Cu 0.05315 0.75211 0.01273 0.0
N116 N 1.01827 0.78112 0.97867 0.0
N117 N 0.97064 0.79232 0.92977 0.0
C118 C 0.99126 0.76423 0.94975 0.0
C119 C 0.98563 0.82821 0.94647 0.0
C120 C 1.01508 0.82121 0.97645 0.0
O121 O 1.01708 0.72609 0.04524 0.0
C122 C 0.11525 0.74515 0.96359 0.0
O123 O 0.11065 0.78436 0.97456 0.0
H124 H 0.98637 0.73199 0.94387 0.0
H125 H 1.03301 0.84375 -0.00486 0.0
N126 N 0.08749 0.78372 0.05032 0.0
N127 N 0.13919 0.79559 0.09736 0.0
C128 C 0.12341 0.76926 0.06717 0.0
C129 C 0.08017 0.82054 0.07064 0.0
C130 C 0.11196 0.82788 0.09971 0.0
C131 C 0.98924 0.75066 0.06076 0.0
O132 O 0.98612 0.78777 0.05158 0.0
H133 H 0.13625 0.73887 0.05903 0.0
H134 H 0.05268 0.83977 0.06606 0.0
O135 O 0.09196 0.72128 0.9773 0.0
H136 H 0.97621 0.85744 0.9374 0.0
H137 H 0.11413 0.85431 0.12177 0.0
Cu138 Cu 0.55458 0.52496 0.76197 0.0
N139 N 0.58412 0.55415 0.72975 0.0
N140 N 0.63067 0.59947 0.72018 0.0
C141 C 0.60273 0.58926 0.74407 0.0
C142 C 0.62925 0.56996 0.68916 0.0
C143 C 0.60061 0.5422 0.69505 0.0
O144 O 0.60143 0.49771 0.79078 0.0
C145 C 0.4907 0.58303 0.76442 0.0
O146 O 0.49081 0.569 0.72686 0.0
H147 H 0.59778 0.60573 0.77279 0.0
H148 H 0.59422 0.51414 0.67628 0.0
N149 N 0.51906 0.48265 0.73839 0.0
N150 N 0.47571 0.43091 0.73501 0.0
C151 C 0.49346 0.46273 0.75803 0.0
C152 C 0.51696 0.46272 0.70154 0.0
C153 C 0.49073 0.43079 0.69952 0.0
C154 C 0.62267 0.47259 0.76766 0.0
O155 O 0.60895 0.46511 0.73059 0.0
H156 H 0.48953 0.47021 0.78916 0.0
H157 H 0.53455 0.4698 0.67811 0.0
O158 O 0.51727 0.56752 0.78856 0.0
H159 H 0.64812 0.56817 0.66433 0.0
H160 H 0.48394 0.40857 0.67409 0.0
Cu161 Cu 0.56836 0.54171 0.23812 0.0
N162 N 0.53145 0.50159 0.21303 0.0
N163 N 0.48556 0.45303 0.21502 0.0
C164 C 0.49995 0.48929 0.23187 0.0
C165 C 0.50843 0.44223 0.18385 0.0
C166 C 0.53659 0.47202 0.1827 0.0
O167 O 0.53014 0.58603 0.26034 0.0
C168 C 0.63141 0.48546 0.24515 0.0
O169 O 0.62753 0.48962 0.20766 0.0
H170 H 0.48982 0.50526 0.25923 0.0
H171 H 0.56074 0.47075 0.16253 0.0
N172 N 0.6046 0.56996 0.21077 0.0
N173 N 0.65579 0.61244 0.2058 0.0
C174 C 0.63024 0.59841 0.22984 0.0
C175 C 0.6142 0.56596 0.173 0.0
C176 C 0.6458 0.59183 0.16996 0.0
C177 C 0.50942 0.60282 0.23288 0.0
O178 O 0.51615 0.58841 0.19634 0.0
H179 H 0.63086 0.6078 0.26125 0.0
H180 H 0.6 0.54507 0.14951 0.0
O181 O 0.60768 0.50767 0.26839 0.0
H182 H 0.50569 0.41432 0.16383 0.0
H183 H 0.6601 0.59539 0.14332 0.0
Cu184 Cu 0.90648 0.49218 0.48472 0.0
N185 N 0.93698 0.5207 0.45503 0.0
N186 N 0.94756 0.56511 0.41432 0.0
C187 C 0.92334 0.55533 0.44136 0.0
C188 C 0.97787 0.53569 0.41095 0.0
C189 C 0.97126 0.50822 0.43625 0.0
O190 O 0.87633 0.53089 0.52091 0.0
C191 C 0.86507 0.42064 0.45229 0.0
O192 O 0.87573 0.40788 0.4863 0.0
H193 H 0.89445 0.57138 0.44885 0.0
H194 H 0.98869 0.47998 0.43895 0.0
N195 N 0.94048 0.45985 0.51507 0.0
N196 N 0.9507 0.42164 0.56363 0.0
C197 C 0.9317 0.45514 0.55156 0.0
C198 C 0.96657 0.42837 0.50354 0.0
C199 C 0.97272 0.40445 0.53355 0.0
C200 C 0.89886 0.55317 0.54632 0.0
O201 O 0.93939 0.54951 0.54477 0.0
H202 H 0.90731 0.4727 0.56676 0.0
H203 H 0.97629 0.42071 0.474 0.0
O204 O 0.87158 0.45698 0.44754 0.0
H205 H 1.00191 0.53336 0.39051 0.0
H206 H 0.98889 0.37502 0.53201 0.0
Cu207 Cu 0.56618 0.80596 0.48354 0.0
N208 N 0.60376 0.83509 0.46075 0.0
N209 N 0.65699 0.84025 0.42366 0.0
C210 C 0.64074 0.81898 0.44923 0.0
C211 C 0.62924 0.87161 0.41981 0.0
C212 C 0.59639 0.86815 0.44235 0.0
O213 O 0.60355 0.77168 0.51405 0.0
C214 C 0.49539 0.76886 0.43551 0.0
O215 O 0.48178 0.75698 0.46676 0.0
H216 H 0.65423 0.79099 0.45821 0.0
H217 H 0.56777 0.88652 0.44278 0.0
N218 N 0.5321 0.83875 0.51854 0.0
N219 N 0.48614 0.85326 0.56464 0.0
C220 C 0.49977 0.82589 0.53544 0.0
C221 C 0.53859 0.87627 0.53742 0.0
C222 C 0.51032 0.88531 0.56587 0.0
C223 C 0.59769 0.76708 0.54931 0.0
O224 O 0.55965 0.76853 0.5601 0.0
H225 H 0.48915 0.79541 0.52967 0.0
H226 H 0.56359 0.89482 0.53241 0.0
O227 O 0.53151 0.78286 0.43735 0.0
H228 H 0.63097 0.8939 0.39991 0.0
H229 H 0.50879 0.91266 0.58673 0.0
Cu230 Cu 0.27554 0.56959 0.52932 0.0
N231 N 0.24547 0.61478 0.51392 0.0
N232 N 0.23168 0.66418 0.47607 0.0
C233 C 0.24952 0.62702 0.47882 0.0
C234 C 0.21534 0.67573 0.51098 0.0
C235 C 0.22417 0.64522 0.53445 0.0
O236 O 0.33144 0.58753 0.5456 0.0
C237 C 0.30224 0.49909 0.47827 0.0
O238 O 0.33341 0.49812 0.50516 0.0
H239 H 0.2679 0.61007 0.45675 0.0
H240 H 0.21759 0.64622 0.56489 0.0
N241 N 0.25445 0.54649 0.56969 0.0
N242 N 0.24914 0.50084 0.6109 0.0
C243 C 0.27174 0.51321 0.58382 0.0
C244 C 0.21936 0.55543 0.5882 0.0
C245 C 0.21594 0.52715 0.61363 0.0
C246 C 0.34457 0.61464 0.5732 0.0
O247 O 0.38402 0.62287 0.5758 0.0
H248 H 0.29979 0.49765 0.57352 0.0
H249 H 0.19733 0.58004 0.58292 0.0
O250 O 0.2748 0.52792 0.48274 0.0
H251 H 0.19913 0.70449 0.5195 0.0
H252 H 0.19091 0.52584 0.63243 0.0
Cu253 Cu 0.58976 0.21727 0.54275 0.0
N254 N 0.62329 0.1844 0.50829 0.0
N255 N 0.66195 0.172 0.4567 0.0
C256 C 0.63419 0.19749 0.47543 0.0
C257 C 0.66966 0.14162 0.47887 0.0
C258 C 0.64538 0.1492 0.51073 0.0
O259 O 0.62882 0.24438 0.58381 0.0
C260 C 0.53443 0.22578 0.48062 0.0
O261 O 0.53743 0.18654 0.48238 0.0
H262 H 0.62336 0.22636 0.46633 0.0
H263 H 0.64502 0.13105 0.53447 0.0
N264 N 0.55218 0.18961 0.56718 0.0
N265 N 0.49747 0.18163 0.60111 0.0
C266 C 0.52287 0.20818 0.58989 0.0
C267 C 0.54512 0.14978 0.56363 0.0
C268 C 0.51139 0.14476 0.58453 0.0
C269 C 0.64786 0.22005 0.60569 0.0
O270 O 0.63722 0.18207 0.60018 0.0
H271 H 0.51998 0.24077 0.59762 0.0
H272 H 0.56236 0.12625 0.54606 0.0
O273 O 0.55499 0.24903 0.5072 0.0
H274 H 0.6916 0.11627 0.47279 0.0
H275 H 0.49734 0.11629 0.58602 0.0
Tb276 Tb 0.35023 0.28804 0.30912 0.0
C277 C 0.32965 0.24641 0.22352 0.0
Tb278 Tb 0.27818 0.32506 0.25976 0.0
O279 O 0.3063 0.26769 0.34699 0.0
O280 O 0.28734 0.27201 0.2894 0.0
O281 O 0.36 0.25196 0.25197 0.0
C282 C 0.21361 0.33042 0.20679 0.0
O283 O 0.29385 0.26755 0.22522 0.0
C284 C 0.34797 0.3624 0.25246 0.0
C285 C 0.30041 0.3678 0.34511 0.0
O286 O 0.25169 0.32096 0.19948 0.0
O287 O 0.21132 0.33838 0.24487 0.0
O288 O 0.31144 0.37258 0.23765 0.0
O289 O 0.34274 0.3333 0.27146 0.0
O290 O 0.26954 0.36127 0.31717 0.0
O291 O 0.33591 0.34594 0.34397 0.0
C292 C 0.42065 0.27087 0.35192 0.0
O293 O 0.40666 0.30673 0.34544 0.0
O294 O 0.3959 0.24435 0.33258 0.0
C295 C 0.27467 0.26404 0.32128 0.0
Tb296 Tb 0.77495 0.2574 0.27344 0.0
C297 C 0.86437 0.21626 0.2525 0.0
Tb298 Tb 0.83004 0.29972 0.22785 0.0
O299 O 0.73441 0.23847 0.22103 0.0
O300 O 0.79659 0.2455 0.2159 0.0
O301 O 0.83303 0.21887 0.2759 0.0
C302 C 0.86547 0.33609 0.17451 0.0
O303 O 0.86642 0.24227 0.2267 0.0
C304 C 0.84234 0.31544 0.30519 0.0
C305 C 0.74354 0.34384 0.25224 0.0
O306 O 0.88076 0.33259 0.20994 0.0
O307 O 0.8299 0.31905 0.16898 0.0
O308 O 0.8712 0.31494 0.28109 0.0
O309 O 0.80843 0.31074 0.28513 0.0
O310 O 0.77373 0.34053 0.22762 0.0
O311 O 0.74108 0.31671 0.27691 0.0
C312 C 0.74031 0.22271 0.32815 0.0
O313 O 0.72204 0.23115 0.29514 0.0
O314 O 0.77841 0.23383 0.33048 0.0
C315 C 0.76259 0.23796 0.19625 0.0
Tb316 Tb 0.81672 0.80718 0.23759 0.0
C317 C 0.79141 0.80158 0.32036 0.0
Tb318 Tb 0.86456 0.7493 0.27767 0.0
O319 O 0.7583 0.77904 0.23946 0.0
O320 O 0.81288 0.74205 0.23401 0.0
O321 O 0.79261 0.82699 0.29419 0.0
C322 C 0.89464 0.69064 0.31955 0.0
O323 O 0.81361 0.76661 0.3169 0.0
C324 C 0.90335 0.81836 0.27865 0.0
C325 C 0.88671 0.75311 0.19212 0.0
O326 O 0.89184 0.72897 0.3325 0.0
O327 O 0.88009 0.68525 0.28312 0.0
O328 O 0.92153 0.78262 0.27642 0.0
O329 O 0.8654 0.81418 0.28279 0.0
O330 O 0.89063 0.73024 0.2209 0.0
O331 O 0.86192 0.78608 0.1945 0.0
C332 C 0.79677 0.86833 0.19633 0.0
O333 O 0.78296 0.83215 0.18822 0.0
O334 O 0.82053 0.87033 0.22858 0.0
C335 C 0.77394 0.74224 0.23857 0.0
Tb336 Tb 0.34753 0.82318 0.23499 0.0
C337 C 0.38021 0.73478 0.25032 0.0
Tb338 Tb 0.30159 0.77643 0.28808 0.0
O339 O 0.40587 0.82322 0.27143 0.0
O340 O 0.35002 0.81862 0.29639 0.0
O341 O 0.37386 0.76009 0.22309 0.0
C342 C 0.2678 0.74648 0.34645 0.0
O343 O 0.35866 0.73936 0.28186 0.0
C344 C 0.27531 0.7663 0.21135 0.0
C345 C 0.26634 0.86546 0.27504 0.0
O346 O 0.27493 0.72689 0.31235 0.0
O347 O 0.27965 0.78328 0.34775 0.0
O348 O 0.27245 0.74006 0.23553 0.0
O349 O 0.28964 0.79673 0.23245 0.0
O350 O 0.26245 0.83252 0.29242 0.0
O351 O 0.29739 0.86851 0.25233 0.0
C352 C 0.36728 0.86207 0.1763 0.0
O353 O 0.37107 0.87602 0.21356 0.0
O354 O 0.35256 0.82593 0.17222 0.0
C355 C 0.38924 0.81609 0.30275 0.0
Tb356 Tb 0.27265 0.74976 0.78175 0.0
C357 C 0.36395 0.71423 0.7701 0.0
Tb358 Tb 0.32422 0.78836 0.72639 0.0
O359 O 0.27123 0.69224 0.74288 0.0
O360 O 0.27651 0.74597 0.71931 0.0
O361 O 0.3327 0.71761 0.79353 0.0
C362 C 0.37425 0.80931 0.67426 0.0
O363 O 0.36423 0.7359 0.7403 0.0
C364 C 0.31766 0.83052 0.79575 0.0
C365 C 0.23438 0.82657 0.74115 0.0
O366 O 0.38175 0.81291 0.71212 0.0
O367 O 0.33833 0.79312 0.66536 0.0
O368 O 0.32339 0.84606 0.76418 0.0
O369 O 0.32013 0.7922 0.78831 0.0
O370 O 0.26431 0.82109 0.71611 0.0
O371 O 0.23329 0.80374 0.76999 0.0
C372 C 0.22816 0.73478 0.84083 0.0
O373 O 0.21637 0.72869 0.80355 0.0
O374 O 0.26501 0.74927 0.84461 0.0
C375 C 0.27804 0.7076 0.71137 0.0
Tb376 Tb 0.29307 0.29678 0.73305 0.0
C377 C 0.26348 0.30531 0.8177 0.0
Tb378 Tb 0.33331 0.24062 0.78704 0.0
O379 O 0.23346 0.26823 0.73014 0.0
O380 O 0.2881 0.23328 0.73769 0.0
O381 O 0.26905 0.32551 0.78801 0.0
C382 C 0.35049 0.1862 0.83825 0.0
O383 O 0.28165 0.26896 0.82001 0.0
C384 C 0.37694 0.30407 0.77925 0.0
C385 C 0.36319 0.23061 0.70213 0.0
O386 O 0.33211 0.17885 0.8032 0.0
O387 O 0.35941 0.2242 0.84423 0.0
O388 O 0.3931 0.2687 0.78535 0.0
O389 O 0.33803 0.30334 0.78115 0.0
O390 O 0.36197 0.2131 0.73442 0.0
O391 O 0.33983 0.26374 0.69607 0.0
C392 C 0.28089 0.35776 0.68903 0.0
O393 O 0.31517 0.34835 0.70845 0.0
O394 O 0.2534 0.33215 0.69367 0.0
C395 C 0.24873 0.23278 0.73691 0.0
Tb396 Tb 0.84987 0.31924 0.74269 0.0
C397 C 0.87932 0.23136 0.76032 0.0
Tb398 Tb 0.80913 0.28419 0.80322 0.0
O399 O 0.9099 0.31541 0.77674 0.0
O400 O 0.85551 0.32652 0.80499 0.0
O401 O 0.8722 0.25512 0.73207 0.0
C402 C 0.79197 0.26695 0.8731 0.0
O403 O 0.86117 0.24003 0.79372 0.0
C404 C 0.77975 0.25877 0.73031 0.0
C405 C 0.7719 0.36859 0.7828 0.0
O406 O 0.76652 0.26338 0.84167 0.0
O407 O 0.82638 0.28049 0.86469 0.0
O408 O 0.78322 0.23683 0.75906 0.0
O409 O 0.79131 0.29381 0.74382 0.0
O410 O 0.77128 0.34054 0.80671 0.0
O411 O 0.79921 0.36582 0.75521 0.0
C412 C 0.87737 0.35367 0.68496 0.0
O413 O 0.87607 0.37017 0.72123 0.0
O414 O 0.86173 0.31802 0.68075 0.0
C415 C 0.8941 0.31981 0.81037 0.0
Tb416 Tb 0.81569 0.74562 0.70985 0.0
C417 C 0.84578 0.77458 0.79775 0.0
Tb418 Tb 0.76549 0.81474 0.75595 0.0
O419 O 0.86211 0.78186 0.68787 0.0
O420 O 0.81601 0.80949 0.7203 0.0
O421 O 0.84582 0.74312 0.7693 0.0
C422 C 0.74201 0.87927 0.8058 0.0
O423 O 0.82041 0.80679 0.79525 0.0
C424 C 0.72985 0.74389 0.7455 0.0
C425 C 0.7364 0.7891 0.66844 0.0
O426 O 0.74157 0.84165 0.81171 0.0
O427 O 0.75504 0.88053 0.77114 0.0
O428 O 0.7105 0.77914 0.75021 0.0
O429 O 0.76885 0.7491 0.75117 0.0
O430 O 0.73703 0.81994 0.69736 0.0
O431 O 0.76212 0.7567 0.66893 0.0
C432 C 0.83668 0.67495 0.66754 0.0
O433 O 0.80101 0.69438 0.66478 0.0
O434 O 0.86037 0.69488 0.69504 0.0
C435 C 0.84738 0.81685 0.70322 0.0
C436 C 0.18533 0.18977 0.29435 0.0
C437 C 0.17921 0.17586 0.3305 0.0
C438 C 0.21511 0.21897 0.29147 0.0
C439 C 0.24039 0.23563 0.32457 0.0
H440 H 0.16673 0.17824 0.26804 0.0
H441 H 0.2187 0.22814 0.26295 0.0
S442 S 0.23846 0.20864 0.42581 0.0
N443 N 0.20291 0.18052 0.3998 0.0
N444 N 0.25709 0.23534 0.39466 0.0
C445 C 0.23446 0.22202 0.36077 0.0
C446 C 0.20449 0.19229 0.36367 0.0
C447 C 0.96847 0.15565 0.24104 0.0
C448 C 0.96597 0.12503 0.26508 0.0
C449 C 0.93502 0.18415 0.23601 0.0
C450 C 0.89781 0.18326 0.25493 0.0
H451 H 0.9972 0.1591 0.22793 0.0
H452 H 0.93911 0.20806 0.2184 0.0
S453 S 0.87416 0.10536 0.31681 0.0
N454 N 0.92204 0.0931 0.30485 0.0
N455 N 0.85973 0.14591 0.29548 0.0
C456 C 0.89435 0.15118 0.27714 0.0
C457 C 0.92822 0.12236 0.28216 0.0
C458 C 0.99088 0.89375 0.28647 0.0
C459 C 0.97318 0.93033 0.30488 0.0
C460 C 0.96803 0.85807 0.27797 0.0
C461 C 0.9261 0.85742 0.28667 0.0
H462 H 1.02304 0.89243 0.27955 0.0
H463 H 0.98351 0.83062 0.26453 0.0
S464 S 0.8641 0.94607 0.33206 0.0
N465 N 0.9104 0.96399 0.32986 0.0
N466 N 0.86752 0.89777 0.31321 0.0
C467 C 0.9077 0.89421 0.30393 0.0
C468 C 0.93116 0.93031 0.31322 0.0
C469 C 0.19926 0.96157 0.25725 0.0
C470 C 0.16703 0.96114 0.2823 0.0
C471 C 0.23136 0.93085 0.25525 0.0
C472 C 0.23243 0.89837 0.27805 0.0
H473 H 0.20056 0.98651 0.24025 0.0
H474 H 0.25568 0.93284 0.23582 0.0
S475 S 0.15284 0.88216 0.34605 0.0
N476 N 0.1368 0.92457 0.32866 0.0
N477 N 0.19618 0.86742 0.32505 0.0
C478 C 0.19939 0.89727 0.30226 0.0
C479 C 0.16706 0.92843 0.30431 0.0
C480 C 0.14125 0.90142 0.76468 0.0
C481 C 0.14189 0.92869 0.73687 0.0
C482 C 0.17103 0.86863 0.76581 0.0
C483 C 0.20271 0.86154 0.73913 0.0
H484 H 0.11663 0.90437 0.78456 0.0
H485 H 0.16871 0.8483 0.78751 0.0
S486 S 0.2199 0.92699 0.66299 0.0
N487 N 0.17843 0.94805 0.68383 0.0
N488 N 0.23374 0.88734 0.68586 0.0
C489 C 0.2043 0.88972 0.71222 0.0
C490 C 0.17415 0.92289 0.71113 0.0
C491 C 0.15296 0.16807 0.72678 0.0
C492 C 0.16793 0.12882 0.71243 0.0
C493 C 0.17958 0.2009 0.73527 0.0
C494 C 0.22268 0.19598 0.73077 0.0
H495 H 0.1201 0.17368 0.73033 0.0
H496 H 0.16609 0.23065 0.74514 0.0
S497 S 0.27837 0.09852 0.69767 0.0
N498 N 0.22928 0.08649 0.69616 0.0
N499 N 0.27925 0.14771 0.71309 0.0
C500 C 0.23836 0.15652 0.71797 0.0
C501 C 0.21106 0.12318 0.70851 0.0
C502 C 0.95093 0.14761 0.7113 0.0
C503 C 0.96786 0.12622 0.74222 0.0
C504 C 0.9227 0.18106 0.7175 0.0
C505 C 0.90933 0.19512 0.75497 0.0
H506 H 0.95946 0.13853 0.68149 0.0
H507 H 0.91107 0.19583 0.69238 0.0
S508 S 0.94493 0.15172 0.84687 0.0
N509 N 0.96965 0.12287 0.81239 0.0
N510 N 0.91648 0.18553 0.82426 0.0
C511 C 0.92614 0.17443 0.78649 0.0
C512 C 0.95533 0.14023 0.78012 0.0
C513 C 0.8901 0.91348 0.67669 0.0
C514 C 0.92864 0.91659 0.69928 0.0
C515 C 0.86198 0.88329 0.68046 0.0
C516 C 0.87098 0.85484 0.70707 0.0
H517 H 0.88193 0.93405 0.65521 0.0
H518 H 0.83391 0.88099 0.66101 0.0
S519 S 0.96684 0.84897 0.77333 0.0
N520 N 0.97347 0.88794 0.74976 0.0
N521 N 0.92094 0.8318 0.75654 0.0
C522 C 0.9087 0.85815 0.73051 0.0
C523 C 0.9373 0.88888 0.72684 0.0
C524 C 0.29875 0.1848 0.12597 0.0
C525 C 0.32066 0.14759 0.12773 0.0
C526 C 0.30454 0.21723 0.15593 0.0
C527 C 0.33196 0.21373 0.18951 0.0
H528 H 0.27625 0.18852 0.1015 0.0
H529 H 0.28598 0.24494 0.15328 0.0
S530 S 0.39851 0.12272 0.20698 0.0
N531 N 0.37271 0.10923 0.16412 0.0
N532 N 0.383 0.17014 0.22144 0.0
C533 C 0.35564 0.17714 0.19078 0.0
C534 C 0.35003 0.14404 0.1597 0.0
C535 C 0.94851 0.38627 0.1285 0.0
C536 C 0.93373 0.38432 0.08876 0.0
C537 C 0.92548 0.3718 0.15613 0.0
C538 C 0.8869 0.35434 0.14503 0.0
H539 H 0.97874 0.39812 0.138 0.0
H540 H 0.93864 0.37332 0.18624 0.0
S541 S 0.83452 0.34162 0.04438 0.0
N542 N 0.87809 0.36361 0.03957 0.0
N543 N 0.83465 0.33638 0.09147 0.0
C544 C 0.87125 0.35299 0.10551 0.0
C545 C 0.89469 0.36799 0.07736 0.0
C546 C 0.83331 0.95178 0.14615 0.0
C547 C 0.81466 0.94317 0.10788 0.0
C548 C 0.82485 0.92906 0.17562 0.0
C549 C 0.79782 0.8968 0.16752 0.0
H550 H 0.85453 0.97622 0.15328 0.0
H551 H 0.84088 0.93585 0.20449 0.0
S552 S 0.74014 0.86333 0.07204 0.0
N553 N 0.76715 0.9015 0.06349 0.0
N554 N 0.75116 0.85842 0.11893 0.0
C555 C 0.77793 0.88877 0.12964 0.0
C556 C 0.78647 0.91204 0.09973 0.0
C557 C 0.17081 0.79971 0.16559 0.0
C558 C 0.17393 0.78806 0.12503 0.0
C559 C 0.20363 0.79176 0.19312 0.0
C560 C 0.24099 0.77202 0.18122 0.0
H561 H 0.1425 0.81459 0.17618 0.0
H562 H 0.19985 0.80132 0.22407 0.0
S563 S 0.26632 0.7379 0.07865 0.0
N564 N 0.21826 0.75723 0.07433 0.0
N565 N 0.28011 0.74267 0.12632 0.0
C566 C 0.24493 0.76072 0.14089 0.0
C567 C 0.21133 0.76857 0.11274 0.0
C568 C 0.27155 0.92048 0.85899 0.0
C569 C 0.28477 0.91338 0.89745 0.0
C570 C 0.28085 0.8923 0.82658 0.0
C571 C 0.30303 0.8555 0.83126 0.0
H572 H 0.25597 0.94906 0.85375 0.0
H573 H 0.27168 0.90009 0.79744 0.0
S574 S 0.3409 0.82045 0.92595 0.0
N575 N 0.3186 0.86565 0.93871 0.0
N576 N 0.33542 0.81209 0.87737 0.0
C577 C 0.31425 0.84677 0.86956 0.0
C578 C 0.30537 0.87592 0.90275 0.0
C579 C 0.1787 0.37169 0.86946 0.0
C580 C 0.17642 0.35497 0.90467 0.0
C581 C 0.20739 0.35607 0.84194 0.0
C582 C 0.23509 0.32304 0.84846 0.0
H583 H 0.15733 0.39632 0.86257 0.0
H584 H 0.20711 0.36947 0.81493 0.0
S585 S 0.24506 0.27151 0.93834 0.0
N586 N 0.20689 0.3059 0.94608 0.0
N587 N 0.26025 0.27628 0.8946 0.0
C588 C 0.23402 0.30698 0.88425 0.0
C589 C 0.20488 0.32296 0.91223 0.0
C590 C 0.77013 0.17913 0.92242 0.0
C591 C 0.80634 0.17645 0.9476 0.0
C592 C 0.76215 0.21226 0.90174 0.0
C593 C 0.79036 0.24336 0.90571 0.0
H594 H 0.7495 0.1541 0.91648 0.0
H595 H 0.73606 0.21144 0.87985 0.0
S596 S 0.88319 0.25522 0.97633 0.0
N597 N 0.8658 0.21067 0.9815 0.0
N598 N 0.85088 0.27367 0.94276 0.0
C599 C 0.82371 0.2434 0.93462 0.0
C600 C 0.83195 0.20946 0.95537 0.0
C601 C 0.94258 0.75514 0.86618 0.0
C602 C 0.93826 0.78588 0.89826 0.0
C603 C 0.91213 0.75052 0.83418 0.0
C604 C 0.87602 0.77622 0.83334 0.0
H605 H 0.9703 0.73541 0.86528 0.0
H606 H 0.91752 0.72745 0.80953 0.0
S607 S 0.84778 0.85785 0.91331 0.0
N608 N 0.89376 0.83982 0.9289 0.0
N609 N 0.83646 0.83118 0.87011 0.0
C610 C 0.87072 0.8058 0.86645 0.0
C611 C 0.90181 0.81064 0.89849 0.0
C612 C 0.15723 0.31233 0.10558 0.0
C613 C 0.12356 0.34064 0.10829 0.0
C614 C 0.18511 0.30815 0.13838 0.0
C615 C 0.17979 0.33145 0.17522 0.0
H616 H 0.16354 0.29513 0.07747 0.0
H617 H 0.21186 0.28738 0.13451 0.0
S618 S 0.09328 0.40586 0.19871 0.0
N619 N 0.08422 0.38983 0.15134 0.0
N620 N 0.1361 0.38095 0.2132 0.0
C621 C 0.1446 0.35769 0.17897 0.0
C622 C 0.11664 0.36258 0.14538 0.0
C623 C 0.1349 0.71541 0.89629 0.0
C624 C 0.14692 0.73156 0.93524 0.0
C625 C 0.16204 0.71479 0.86603 0.0
C626 C 0.20212 0.73023 0.87372 0.0
H627 H 0.10341 0.70596 0.88865 0.0
H628 H 0.15084 0.70387 0.83615 0.0
S629 S 0.24931 0.77257 0.97164 0.0
N630 N 0.20218 0.761 0.98023 0.0
N631 N 0.25322 0.75916 0.92403 0.0
C632 C 0.21519 0.74408 0.91302 0.0
C633 C 0.18756 0.74497 0.94356 0.0
C634 C 0.3684 0.14713 0.93767 0.0
C635 C 0.3562 0.10679 0.9294 0.0
C636 C 0.36862 0.17194 0.90763 0.0
C637 C 0.35573 0.1576 0.86829 0.0
H638 H 0.37578 0.16023 0.96786 0.0
H639 H 0.37694 0.20322 0.91566 0.0
S640 S 0.32191 0.05364 0.83134 0.0
N641 N 0.33219 0.05317 0.87912 0.0
N642 N 0.33216 0.09958 0.82271 0.0
C643 C 0.34491 0.11678 0.85952 0.0
C644 C 0.34513 0.09148 0.89007 0.0
C645 C 0.92454 0.32534 0.91991 0.0
C646 C 0.96289 0.30311 0.92127 0.0
C647 C 0.90219 0.33018 0.88401 0.0
C648 C 0.91728 0.313 0.84806 0.0
H649 H 0.91229 0.34046 0.94674 0.0
H650 H 0.87338 0.34836 0.8844 0.0
S651 S 1.01453 0.24967 0.83537 0.0
N652 N 1.01394 0.26225 0.88346 0.0
N653 N 0.97193 0.27114 0.81598 0.0
C654 C 0.95506 0.28991 0.84895 0.0
C655 C 0.97783 0.285 0.88553 0.0
C656 C 0.73178 0.93793 0.90725 0.0
C657 C 0.74751 0.97552 0.90329 0.0
C658 C 0.72715 0.90766 0.87466 0.0
C659 C 0.73787 0.91419 0.83713 0.0
H660 H 0.7263 0.93068 0.93612 0.0
H661 H 0.71755 0.87815 0.87944 0.0
S662 S 0.77486 1.00984 0.81093 0.0
N663 N 0.76985 0.01922 0.85874 0.0
N664 N 0.76034 0.96288 0.79742 0.0
C665 C 0.75022 0.95292 0.83237 0.0
C666 C 0.75533 0.98344 0.86555 0.0
C667 C 0.92105 0.75912 0.09006 0.0
C668 C 0.96135 0.74087 0.09044 0.0
C669 C 0.89661 0.76055 0.12211 0.0
C670 C 0.91115 0.7439 0.15647 0.0
H671 H 0.90895 0.77438 0.06536 0.0
H672 H 0.86652 0.77645 0.12045 0.0
S673 S 1.01342 0.68978 0.17165 0.0
N674 N 1.01387 0.70339 0.12722 0.0
N675 N 0.96782 0.70584 0.18771 0.0
C676 C 0.95041 0.72317 0.15642 0.0
C677 C 0.9755 0.72171 0.12341 0.0
C678 C 0.35225 0.89656 0.07546 0.0
C679 C 0.36575 0.93654 0.08229 0.0
C680 C 0.35571 0.87159 0.10541 0.0
C681 C 0.3719 0.88604 0.14362 0.0
H682 H 0.33663 0.88531 0.04733 0.0
H683 H 0.34311 0.84171 0.09917 0.0
S684 S 0.41435 0.98763 0.17582 0.0
N685 N 0.39855 0.98856 0.12905 0.0
N686 N 0.4046 0.94202 0.18577 0.0
C687 C 0.38779 0.92519 0.15021 0.0
C688 C 0.38481 0.95038 0.11941 0.0
C689 C 0.73455 0.14731 0.1207 0.0
C690 C 0.76793 0.14427 0.09664 0.0
C691 C 0.731 0.17971 0.15135 0.0
C692 C 0.76083 0.20985 0.15886 0.0
H693 H 0.71272 0.12331 0.11753 0.0
H694 H 0.70626 0.17962 0.17075 0.0
S695 S 0.84906 0.21963 0.09892 0.0
N696 N 0.82733 0.17747 0.07825 0.0
N697 N 0.82123 0.23718 0.13621 0.0
C698 C 0.79216 0.20871 0.13283 0.0
C699 C 0.79555 0.17621 0.10161 0.0
C700 C 0.63915 0.67335 0.73761 0.0
C701 C 0.65678 0.63435 0.72698 0.0
C702 C 0.6634 0.70784 0.74351 0.0
C703 C 0.70683 0.70513 0.74018 0.0
H704 H 0.60603 0.6773 0.74056 0.0
H705 H 0.64764 0.7371 0.7508 0.0
S706 S 0.76885 0.6093 0.71586 0.0
N707 N 0.72066 0.59459 0.71445 0.0
N708 N 0.76652 0.65916 0.72753 0.0
C709 C 0.72513 0.66605 0.73071 0.0
C710 C 0.7001 0.63083 0.7236 0.0
C711 C 0.42526 0.61644 0.79196 0.0
C712 C 0.46328 0.61961 0.77548 0.0
C713 C 0.39403 0.64801 0.79223 0.0
C714 C 0.39934 0.68369 0.77541 0.0
H715 H 0.41863 0.58848 0.8026 0.0
H716 H 0.36467 0.64339 0.80367 0.0
S717 S 0.495 0.70789 0.73162 0.0
N718 N 0.50543 0.66215 0.74435 0.0
N719 N 0.44768 0.72106 0.74482 0.0
C720 C 0.43818 0.68774 0.76064 0.0
C721 C 0.46978 0.65585 0.76061 0.0
C722 C 0.46287 0.35878 0.73969 0.0
C723 C 0.45049 0.40019 0.7466 0.0
C724 C 0.43899 0.32835 0.75054 0.0
C725 C 0.40092 0.33768 0.76783 0.0
H726 H 0.49167 0.34991 0.72622 0.0
H727 H 0.45032 0.29705 0.74488 0.0
S728 S 0.35319 0.44135 0.79 0.0
N729 N 0.39708 0.44883 0.77105 0.0
N730 N 0.35154 0.39182 0.79016 0.0
C731 C 0.38771 0.37896 0.7741 0.0
C732 C 0.41262 0.41009 0.76388 0.0
C733 C 0.66903 0.42654 0.80669 0.0
C734 C 0.66419 0.45411 0.77899 0.0
C735 C 0.70499 0.40063 0.80922 0.0
C736 C 0.73756 0.4011 0.78405 0.0
H737 H 0.64382 0.42305 0.8247 0.0
H738 H 0.70619 0.37867 0.82984 0.0
S739 S 0.74159 0.47192 0.70983 0.0
N740 N 0.69632 0.48317 0.72851 0.0
N741 N 0.76347 0.43518 0.73322 0.0
C742 C 0.73396 0.4306 0.75807 0.0
C743 C 0.69744 0.4568 0.75554 0.0
C744 C 0.70057 0.45051 0.23937 0.0
C745 C 0.66239 0.45378 0.25681 0.0
C746 C 0.72654 0.41534 0.23875 0.0
C747 C 0.71564 0.38144 0.25549 0.0
H748 H 0.70959 0.4748 0.22421 0.0
H749 H 0.75506 0.41456 0.22412 0.0
S750 S 0.6195 0.37485 0.30636 0.0
N751 N 0.61536 0.42055 0.29234 0.0
N752 N 0.66435 0.35438 0.29195 0.0
C753 C 0.67833 0.38493 0.27476 0.0
C754 C 0.65172 0.42105 0.27526 0.0
C755 C 0.72555 0.63967 0.19965 0.0
C756 C 0.68652 0.64349 0.21602 0.0
C757 C 0.75501 0.67038 0.20841 0.0
C758 C 0.74623 0.70666 0.23319 0.0
H759 H 0.73332 0.61271 0.17982 0.0
H760 H 0.78411 0.66632 0.19454 0.0
S761 S 0.64884 0.73202 0.28347 0.0
N762 N 0.64151 0.68661 0.25869 0.0
N763 N 0.6956 0.74405 0.27424 0.0
C764 C 0.70754 0.7105 0.24995 0.0
C765 C 0.67809 0.67912 0.24166 0.0
C766 C 0.46106 0.65663 0.20713 0.0
C767 C 0.47784 0.63746 0.2396 0.0
C768 C 0.43014 0.68805 0.21085 0.0
C769 C 0.41389 0.70177 0.24716 0.0
H770 H 0.47175 0.64723 0.17813 0.0
H771 H 0.41847 0.70123 0.18478 0.0
S772 S 0.44845 0.66401 0.34222 0.0
N773 N 0.47683 0.63628 0.30988 0.0
N774 N 0.41859 0.69476 0.3171 0.0
C775 C 0.43082 0.68344 0.28018 0.0
C776 C 0.46273 0.65159 0.27638 0.0
C777 C 0.41415 0.44911 0.2355 0.0
C778 C 0.45323 0.43031 0.22816 0.0
C779 C 0.38121 0.42701 0.24505 0.0
C780 C 0.38601 0.38529 0.24903 0.0
H781 H 0.40854 0.48088 0.23224 0.0
H782 H 0.35125 0.44269 0.24858 0.0
S783 S 0.4833 0.32238 0.23652 0.0
N784 N 0.49555 0.36769 0.22761 0.0
N785 N 0.43409 0.32668 0.2469 0.0
C786 C 0.42553 0.36651 0.24373 0.0
C787 C 0.45892 0.38883 0.23292 0.0
C788 C 0.90773 0.59999 0.60932 0.0
C789 C 0.88096 0.5817 0.57832 0.0
C790 C 0.89278 0.62866 0.63912 0.0
C791 C 0.85047 0.64045 0.63908 0.0
H792 H 0.9408 0.59261 0.61043 0.0
H793 H 0.91484 0.64264 0.66163 0.0
S794 S 0.76662 0.59973 0.56673 0.0
N795 N 0.80942 0.57583 0.55099 0.0
N796 N 0.78138 0.63 0.60697 0.0
C797 C 0.823 0.62141 0.60925 0.0
C798 C 0.83821 0.59198 0.57889 0.0
C799 C 0.42099 0.824 0.57895 0.0
C800 C 0.45692 0.84557 0.59226 0.0
C801 C 0.39399 0.81291 0.60546 0.0
C802 C 0.40221 0.82239 0.64638 0.0
H803 H 0.41391 0.81541 0.54772 0.0
H804 H 0.36688 0.7962 0.59381 0.0
S805 S 0.49254 0.87775 0.6965 0.0
N806 N 0.49926 0.87561 0.64919 0.0
N807 N 0.44901 0.85476 0.69888 0.0
C808 C 0.43792 0.84414 0.66004 0.0
C809 C 0.4651 0.85577 0.63306 0.0
C810 C 0.22527 0.44044 0.63585 0.0
C811 C 0.25761 0.46541 0.6307 0.0
C812 C 0.23314 0.40518 0.65403 0.0
C813 C 0.27355 0.39393 0.6682 0.0
H814 H 0.19375 0.44791 0.6252 0.0
H815 H 0.20729 0.38684 0.65734 0.0
S816 S 0.36882 0.45001 0.66357 0.0
N817 N 0.33145 0.47689 0.64208 0.0
N818 N 0.34618 0.41112 0.6766 0.0
C819 C 0.30611 0.41886 0.66357 0.0
C820 C 0.29816 0.45445 0.64471 0.0
C821 C 0.70228 0.20187 0.65716 0.0
C822 C 0.68245 0.23199 0.63606 0.0
C823 C 0.73447 0.21075 0.68637 0.0
C824 C 0.7487 0.25019 0.69607 0.0
H825 H 0.69271 0.17082 0.65145 0.0
H826 H 0.7479 0.18643 0.70197 0.0
S827 S 0.70887 0.34039 0.64938 0.0
N828 N 0.68055 0.30316 0.6266 0.0
N829 N 0.74126 0.31988 0.68157 0.0
C830 C 0.73004 0.28067 0.67478 0.0
C831 C 0.6969 0.2716 0.64488 0.0
C832 C 0.82441 0.39926 0.38871 0.0
C833 C 0.85606 0.39086 0.41726 0.0
C834 C 0.81876 0.37337 0.35314 0.0
C835 C 0.84555 0.33912 0.34454 0.0
H836 H 0.80436 0.4263 0.39366 0.0
H837 H 0.79445 0.38122 0.33153 0.0
S838 S 0.93307 0.30397 0.40937 0.0
N839 N 0.91379 0.34531 0.43501 0.0
N840 N 0.90421 0.29781 0.36729 0.0
C841 C 0.87694 0.33019 0.37292 0.0
C842 C 0.88193 0.35579 0.40957 0.0
C843 C 0.71396 0.86026 0.38696 0.0
C844 C 0.6931 0.82965 0.40103 0.0
C845 C 0.74665 0.85096 0.36221 0.0
C846 C 0.76056 0.8106 0.35075 0.0
H847 H 0.70455 0.89183 0.39469 0.0
H848 H 0.76077 0.87571 0.35147 0.0
S849 S 0.71702 0.71864 0.37876 0.0
N850 N 0.68892 0.75668 0.40061 0.0
N851 N 0.75135 0.73964 0.35577 0.0
C852 C 0.74107 0.77965 0.36551 0.0
C853 C 0.70717 0.78902 0.39018 0.0
C854 C 0.23589 0.66652 0.40519 0.0
C855 C 0.23483 0.68708 0.44365 0.0
C856 C 0.24494 0.68647 0.37376 0.0
C857 C 0.25317 0.72796 0.37942 0.0
H858 H 0.23072 0.63431 0.39946 0.0
H859 H 0.24669 0.66887 0.34504 0.0
S860 S 0.25093 0.79689 0.4735 0.0
N861 N 0.24085 0.75208 0.48516 0.0
N862 N 0.25642 0.78988 0.42571 0.0
C863 C 0.25001 0.74954 0.4172 0.0
C864 C 0.24113 0.7291 0.44944 0.0
C865 C 0.49675 0.21155 0.41429 0.0
C866 C 0.50891 0.24029 0.44674 0.0
C867 C 0.46963 0.22214 0.38309 0.0
C868 C 0.4537 0.26206 0.38256 0.0
H869 H 0.50757 0.18009 0.41318 0.0
H870 H 0.46034 0.19857 0.35958 0.0
S871 S 0.47675 0.34956 0.45904 0.0
N872 N 0.50376 0.31097 0.47551 0.0
N873 N 0.45302 0.33113 0.41653 0.0
C874 C 0.46677 0.29164 0.41387 0.0
C875 C 0.49433 0.28073 0.44599 0.0
C876 C 0.67335 0.75836 0.57156 0.0
C877 C 0.63284 0.77254 0.57993 0.0
C878 C 0.70702 0.76487 0.59994 0.0
C879 C 0.7017 0.78702 0.63727 0.0
H880 H 0.67896 0.74159 0.54309 0.0
H881 H 0.73743 0.75226 0.59264 0.0
S882 S 0.60224 0.83233 0.67326 0.0
N883 N 0.5896 0.81068 0.62813 0.0
N884 N 0.65277 0.82356 0.68075 0.0
C885 C 0.66154 0.80224 0.6456 0.0
C886 C 0.62717 0.79481 0.61715 0.0
C887 C 0.72485 0.17878 0.42222 0.0
C888 C 0.68137 0.17917 0.42225 0.0
C889 C 0.74389 0.19224 0.39125 0.0
C890 C 0.72002 0.20588 0.35912 0.0
H891 H 0.74408 0.16982 0.44711 0.0
H892 H 0.77746 0.19268 0.39285 0.0
S893 S 0.60492 0.20975 0.34438 0.0
N894 N 0.61511 0.19226 0.38696 0.0
N895 N 0.65051 0.21682 0.32852 0.0
C896 C 0.67652 0.20467 0.35817 0.0
C897 C 0.6573 0.19151 0.38983 0.0
C898 C 0.9276 0.63617 0.40743 0.0
C899 C 0.93812 0.59671 0.39005 0.0
C900 C 0.91457 0.6667 0.38429 0.0
C901 C 0.91067 0.65846 0.34301 0.0
H902 H 0.92913 0.64324 0.43917 0.0
H903 H 0.90647 0.69667 0.39889 0.0
S904 S 0.93422 0.55975 0.28333 0.0
N905 N 0.94416 0.55094 0.32935 0.0
N906 N 0.9189 0.60809 0.28567 0.0
C907 C 0.92141 0.61916 0.32526 0.0
C908 C 0.93539 0.5883 0.34885 0.0
C909 C 0.48176 0.77715 0.36433 0.0
C910 C 0.46616 0.7752 0.40096 0.0
C911 C 0.4562 0.78961 0.33287 0.0
C912 C 0.41397 0.8011 0.33668 0.0
H913 H 0.51429 0.76984 0.36015 0.0
H914 H 0.46999 0.79079 0.3054 0.0
S915 S 0.35794 0.80232 0.42659 0.0
N916 N 0.40547 0.78564 0.43917 0.0
N917 N 0.35788 0.81 0.38015 0.0
C918 C 0.3977 0.79861 0.37283 0.0
C919 C 0.42366 0.7854 0.40489 0.0
C920 C 0.32977 0.43431 0.44156 0.0
C921 C 0.29932 0.46616 0.44388 0.0
C922 C 0.32891 0.40281 0.41011 0.0
C923 C 0.29756 0.40121 0.37895 0.0
H924 H 0.35492 0.43353 0.46428 0.0
H925 H 0.35359 0.3795 0.4104 0.0
S926 S 0.20955 0.47667 0.37074 0.0
N927 N 0.23602 0.49379 0.41223 0.0
N928 N 0.23457 0.43447 0.3529 0.0
C929 C 0.26639 0.43253 0.38095 0.0
C930 C 0.26727 0.46494 0.41331 0.0
C931 C 0.43823 0.22779 0.62176 0.0
C932 C 0.46206 0.19145 0.62446 0.0
C933 C 0.40521 0.23921 0.64565 0.0
C934 C 0.3946 0.21493 0.67356 0.0
H935 H 0.44535 0.2478 0.60113 0.0
H936 H 0.38876 0.26802 0.64296 0.0
S937 S 0.44633 0.11596 0.69143 0.0
N938 N 0.47209 0.13075 0.65674 0.0
N939 N 0.40987 0.1517 0.70119 0.0
C940 C 0.41745 0.17788 0.67577 0.0
C941 C 0.4511 0.16626 0.65136 0.0
C942 C 0.92452 0.36314 0.58945 0.0
C943 C 0.93803 0.40308 0.59576 0.0
C944 C 0.90462 0.34734 0.61844 0.0
C945 C 0.89783 0.37096 0.65465 0.0
H946 H 0.92766 0.34469 0.56131 0.0
H947 H 0.89413 0.31661 0.61227 0.0
S948 S 0.92948 0.47667 0.68594 0.0
N949 N 0.94488 0.46524 0.64102 0.0
N950 N 0.90765 0.43579 0.69567 0.0
C951 C 0.91233 0.41054 0.66165 0.0
C952 C 0.93243 0.42652 0.63216 0.0
C953 C 0.30897 0.67765 0.60568 0.0
C954 C 0.3185 0.63565 0.60405 0.0
C955 C 0.29435 0.70071 0.63979 0.0
C956 C 0.28954 0.68277 0.67386 0.0
H957 H 0.31445 0.6931 0.58093 0.0
H958 H 0.28791 0.73294 0.63981 0.0
S959 S 0.31141 0.57397 0.68493 0.0
N960 N 0.32274 0.57744 0.6396 0.0
N961 N 0.29497 0.61992 0.70315 0.0
C962 C 0.29797 0.64053 0.67205 0.0
C963 C 0.31267 0.61724 0.63739 0.0
loop_
_geom_bond_atom_site_label_1
_geom_bond_atom_site_label_2
_geom_bond_distance
_geom_bond_site_symmetry_2
_ccdc_geom_bond_type
Cu0 N1 1.999 . S
Cu0 O6 1.974 1_545 S
Cu0 N11 1.985 1_445 S
Cu0 O20 1.959 1_455 S
N1 Cu0 1.999 . S
N1 C3 1.263 . S
N1 C5 1.389 . S
N2 C3 1.358 . S
N2 C4 1.400 . S
C3 N1 1.263 . S
C3 N2 1.358 . S
C3 H9 0.930 . S
C4 N2 1.400 . S
C4 C5 1.351 . S
C4 H21 0.930 . S
C5 N1 1.389 . S
C5 C4 1.351 . S
C5 H10 0.930 . S
O6 Cu0 1.974 1_565 S
O6 C16 1.282 . S
C7 O8 1.261 . S
C7 O20 1.251 . S
O8 C7 1.261 . S
H9 C3 0.930 . S
H10 C5 0.930 . S
N11 Cu0 1.985 1_665 S
N11 C13 1.335 . S
N11 C14 1.390 . S
N12 C13 1.345 . S
N12 C15 1.336 . S
C13 N11 1.335 . S
C13 N12 1.345 . S
C13 H18 0.930 1_565 S
C14 N11 1.390 . S
C14 C15 1.346 . S
C14 H19 0.930 1_655 S
C15 N12 1.336 . S
C15 C14 1.346 . S
C15 H22 0.929 . S
C16 O6 1.282 . S
C16 O17 1.216 . S
O17 C16 1.216 . S
H18 C13 0.930 1_545 S
H19 C14 0.930 1_455 S
O20 Cu0 1.959 1_655 S
O20 C7 1.251 . S
H21 C4 0.930 . S
H22 C15 0.929 . S
Cu23 N24 1.999 1_445 S
Cu23 O29 1.974 1_455 S
Cu23 N34 1.985 . S
Cu23 O43 1.959 1_545 S
N24 Cu23 1.999 1_665 S
N24 C26 1.263 . S
N24 C28 1.389 . S
N25 C26 1.358 . S
N25 C27 1.400 . S
C26 N24 1.263 . S
C26 N25 1.358 . S
C26 H32 0.930 . S
C27 N25 1.400 . S
C27 C28 1.351 . S
C27 H44 0.930 . S
C28 N24 1.389 . S
C28 C27 1.351 . S
C28 H33 0.930 1_655 S
O29 Cu23 1.974 1_655 S
O29 C39 1.282 . S
C30 O31 1.261 . S
C30 O43 1.251 . S
O31 C30 1.261 . S
H32 C26 0.930 . S
H33 C28 0.930 1_455 S
N34 Cu23 1.985 . S
N34 C36 1.335 . S
N34 C37 1.390 . S
N35 C36 1.345 . S
N35 C38 1.336 . S
C36 N34 1.335 . S
C36 N35 1.345 . S
C36 H41 0.930 . S
C37 N34 1.390 . S
C37 C38 1.346 . S
C37 H42 0.930 . S
C38 N35 1.336 . S
C38 C37 1.346 . S
C38 H45 0.929 . S
C39 O29 1.282 . S
C39 O40 1.216 . S
O40 C39 1.216 . S
H41 C36 0.930 . S
H42 C37 0.930 . S
O43 Cu23 1.959 1_565 S
O43 C30 1.251 . S
H44 C27 0.930 . S
H45 C38 0.929 . S
Cu46 N47 2.000 1_544 S
Cu46 O52 1.974 1_545 S
Cu46 N57 1.985 . S
Cu46 O66 1.959 1_554 S
N47 Cu46 2.000 1_566 S
N47 C49 1.263 . S
N47 C51 1.389 . S
N48 C49 1.358 . S
N48 C50 1.400 . S
C49 N47 1.263 . S
C49 N48 1.358 . S
C49 H55 0.930 . S
C50 N48 1.400 . S
C50 C51 1.351 . S
C50 H67 0.930 . S
C51 N47 1.389 . S
C51 C50 1.351 . S
C51 H56 0.930 . S
O52 Cu46 1.974 1_565 S
O52 C62 1.282 . S
C53 O54 1.261 . S
C53 O66 1.251 . S
O54 C53 1.261 . S
H55 C49 0.930 . S
H56 C51 0.930 . S
N57 Cu46 1.985 . S
N57 C59 1.335 . S
N57 C60 1.390 . S
N58 C59 1.345 . S
N58 C61 1.336 . S
C59 N57 1.335 . S
C59 N58 1.345 . S
C59 H64 0.930 . S
C60 N57 1.390 . S
C60 C61 1.346 . S
C60 H65 0.930 . S
C61 N58 1.336 . S
C61 C60 1.346 . S
C61 H68 0.929 . S
C62 O52 1.282 . S
C62 O63 1.216 . S
O63 C62 1.216 . S
H64 C59 0.930 . S
H65 C60 0.930 . S
O66 Cu46 1.959 1_556 S
O66 C53 1.251 . S
H67 C50 0.930 . S
H68 C61 0.929 . S
Cu69 N70 1.999 1_554 S
Cu69 O75 1.974 . S
Cu69 N80 1.985 1_455 S
Cu69 O89 1.959 1_454 S
N70 Cu69 1.999 1_556 S
N70 C72 1.263 . S
N70 C74 1.389 . S
N71 C72 1.358 . S
N71 C73 1.400 . S
C72 N70 1.263 . S
C72 N71 1.358 . S
C72 H78 0.930 . S
C73 N71 1.400 . S
C73 C74 1.351 . S
C73 H90 0.930 . S
C74 N70 1.389 . S
C74 C73 1.351 . S
C74 H79 0.930 . S
O75 Cu69 1.974 . S
O75 C85 1.282 . S
C76 O77 1.261 . S
C76 O89 1.251 . S
O77 C76 1.261 . S
H78 C72 0.930 . S
H79 C74 0.930 . S
N80 Cu69 1.985 1_655 S
N80 C82 1.335 . S
N80 C83 1.390 . S
N81 C82 1.345 . S
N81 C84 1.336 . S
C82 N80 1.335 . S
C82 N81 1.345 . S
C82 H87 0.930 . S
C83 N80 1.390 . S
C83 C84 1.346 . S
C83 H88 0.930 1_655 S
C84 N81 1.336 . S
C84 C83 1.346 . S
C84 H91 0.929 . S
C85 O75 1.282 . S
C85 O86 1.216 . S
O86 C85 1.216 . S
H87 C82 0.930 . S
H88 C83 0.930 1_455 S
O89 Cu69 1.959 1_656 S
O89 C76 1.251 . S
H90 C73 0.930 . S
H91 C84 0.929 . S
Cu92 N93 1.999 1_554 S
Cu92 O98 1.974 . S
Cu92 N103 1.985 . S
Cu92 O112 1.959 1_554 S
N93 Cu92 1.999 1_556 S
N93 C95 1.263 . S
N93 C97 1.389 . S
N94 C95 1.358 . S
N94 C96 1.400 . S
C95 N93 1.263 . S
C95 N94 1.358 . S
C95 H101 0.930 1_556 S
C96 N94 1.400 . S
C96 C97 1.351 . S
C96 H113 0.930 . S
C97 N93 1.389 . S
C97 C96 1.351 . S
C97 H102 0.930 . S
O98 Cu92 1.974 . S
O98 C108 1.282 . S
C99 O100 1.261 1_565 S
C99 O112 1.251 1_565 S
O100 C99 1.261 1_545 S
H101 C95 0.930 1_554 S
H102 C97 0.930 . S
N103 Cu92 1.985 . S
N103 C105 1.335 1_545 S
N103 C106 1.390 . S
N104 C105 1.345 . S
N104 C107 1.336 . S
C105 N103 1.335 1_565 S
C105 N104 1.345 . S
C105 H110 0.930 . S
C106 N103 1.390 . S
C106 C107 1.346 1_545 S
C106 H111 0.930 . S
C107 N104 1.336 . S
C107 C106 1.346 1_565 S
C107 H114 0.929 . S
C108 O98 1.282 . S
C108 O109 1.216 . S
O109 C108 1.216 . S
H110 C105 0.930 . S
H111 C106 0.930 . S
O112 Cu92 1.959 1_556 S
O112 C99 1.251 1_545 S
H113 C96 0.930 . S
H114 C107 0.929 . S
Cu115 N116 1.999 1_454 S
Cu115 O121 1.974 1_455 S
Cu115 N126 1.985 . S
Cu115 O135 1.959 1_554 S
N116 Cu115 1.999 1_656 S
N116 C118 1.263 . S
N116 C120 1.389 . S
N117 C118 1.358 . S
N117 C119 1.400 . S
C118 N116 1.263 . S
C118 N117 1.358 . S
C118 H124 0.930 . S
C119 N117 1.400 . S
C119 C120 1.351 . S
C119 H136 0.930 . S
C120 N116 1.389 . S
C120 C119 1.351 . S
C120 H125 0.930 1_655 S
O121 Cu115 1.974 1_655 S
O121 C131 1.282 . S
C122 O123 1.261 . S
C122 O135 1.251 . S
O123 C122 1.261 . S
H124 C118 0.930 . S
H125 C120 0.930 1_455 S
N126 Cu115 1.985 . S
N126 C128 1.335 . S
N126 C129 1.390 . S
N127 C128 1.345 . S
N127 C130 1.336 . S
C128 N126 1.335 . S
C128 N127 1.345 . S
C128 H133 0.930 . S
C129 N126 1.390 . S
C129 C130 1.346 . S
C129 H134 0.930 . S
C130 N127 1.336 . S
C130 C129 1.346 . S
C130 H137 0.929 . S
C131 O121 1.282 . S
C131 O132 1.216 . S
O132 C131 1.216 . S
H133 C128 0.930 . S
H134 C129 0.930 . S
O135 Cu115 1.959 1_556 S
O135 C122 1.251 . S
H136 C119 0.930 . S
H137 C130 0.929 . S
Cu138 N139 1.999 . S
Cu138 O144 1.974 . S
Cu138 N149 1.985 . S
Cu138 O158 1.959 . S
N139 Cu138 1.999 . S
N139 C141 1.263 . S
N139 C143 1.389 . S
N140 C141 1.358 . S
N140 C142 1.400 . S
C141 N139 1.263 . S
C141 N140 1.358 . S
C141 H147 0.930 . S
C142 N140 1.400 . S
C142 C143 1.351 . S
C142 H159 0.930 . S
C143 N139 1.389 . S
C143 C142 1.351 . S
C143 H148 0.930 . S
O144 Cu138 1.974 . S
O144 C154 1.282 . S
C145 O146 1.261 . S
C145 O158 1.251 . S
O146 C145 1.261 . S
H147 C141 0.930 . S
H148 C143 0.930 . S
N149 Cu138 1.985 . S
N149 C151 1.335 . S
N149 C152 1.390 . S
N150 C151 1.345 . S
N150 C153 1.336 . S
C151 N149 1.335 . S
C151 N150 1.345 . S
C151 H156 0.930 . S
C152 N149 1.390 . S
C152 C153 1.346 . S
C152 H157 0.930 . S
C153 N150 1.336 . S
C153 C152 1.346 . S
C153 H160 0.929 . S
C154 O144 1.282 . S
C154 O155 1.216 . S
O155 C154 1.216 . S
H156 C151 0.930 . S
H157 C152 0.930 . S
O158 Cu138 1.959 . S
O158 C145 1.251 . S
H159 C142 0.930 . S
H160 C153 0.929 . S
Cu161 N162 1.999 . S
Cu161 O167 1.974 . S
Cu161 N172 1.985 . S
Cu161 O181 1.959 . S
N162 Cu161 1.999 . S
N162 C164 1.263 . S
N162 C166 1.389 . S
N163 C164 1.358 . S
N163 C165 1.400 . S
C164 N162 1.263 . S
C164 N163 1.358 . S
C164 H170 0.930 . S
C165 N163 1.400 . S
C165 C166 1.351 . S
C165 H182 0.930 . S
C166 N162 1.389 . S
C166 C165 1.351 . S
C166 H171 0.930 . S
O167 Cu161 1.974 . S
O167 C177 1.282 . S
C168 O169 1.261 . S
C168 O181 1.251 . S
O169 C168 1.261 . S
H170 C164 0.930 . S
H171 C166 0.930 . S
N172 Cu161 1.985 . S
N172 C174 1.335 . S
N172 C175 1.390 . S
N173 C174 1.345 . S
N173 C176 1.336 . S
C174 N172 1.335 . S
C174 N173 1.345 . S
C174 H179 0.930 . S
C175 N172 1.390 . S
C175 C176 1.346 . S
C175 H180 0.930 . S
C176 N173 1.336 . S
C176 C175 1.346 . S
C176 H183 0.929 . S
C177 O167 1.282 . S
C177 O178 1.216 . S
O178 C177 1.216 . S
H179 C174 0.930 . S
H180 C175 0.930 . S
O181 Cu161 1.959 . S
O181 C168 1.251 . S
H182 C165 0.930 . S
H183 C176 0.929 . S
Cu184 N185 1.999 . S
Cu184 O190 1.974 . S
Cu184 N195 1.985 . S
Cu184 O204 1.959 . S
N185 Cu184 1.999 . S
N185 C187 1.263 . S
N185 C189 1.389 . S
N186 C187 1.358 . S
N186 C188 1.400 . S
C187 N185 1.263 . S
C187 N186 1.358 . S
C187 H193 0.930 . S
C188 N186 1.400 . S
C188 C189 1.351 . S
C188 H205 0.930 . S
C189 N185 1.389 . S
C189 C188 1.351 . S
C189 H194 0.930 . S
O190 Cu184 1.974 . S
O190 C200 1.282 . S
C191 O192 1.261 . S
C191 O204 1.251 . S
O192 C191 1.261 . S
H193 C187 0.930 . S
H194 C189 0.930 . S
N195 Cu184 1.985 . S
N195 C197 1.335 . S
N195 C198 1.390 . S
N196 C197 1.345 . S
N196 C199 1.336 . S
C197 N195 1.335 . S
C197 N196 1.345 . S
C197 H202 0.930 . S
C198 N195 1.390 . S
C198 C199 1.346 . S
C198 H203 0.930 . S
C199 N196 1.336 . S
C199 C198 1.346 . S
C199 H206 0.929 . S
C200 O190 1.282 . S
C200 O201 1.216 . S
O201 C200 1.216 . S
H202 C197 0.930 . S
H203 C198 0.930 . S
O204 Cu184 1.959 . S
O204 C191 1.251 . S
H205 C188 0.930 . S
H206 C199 0.929 . S
Cu207 N208 1.999 . S
Cu207 O213 1.974 . S
Cu207 N218 1.985 . S
Cu207 O227 1.959 . S
N208 Cu207 1.999 . S
N208 C210 1.263 . S
N208 C212 1.389 . S
N209 C210 1.358 . S
N209 C211 1.400 . S
C210 N208 1.263 . S
C210 N209 1.358 . S
C210 H216 0.930 . S
C211 N209 1.400 . S
C211 C212 1.351 . S
C211 H228 0.930 . S
C212 N208 1.389 . S
C212 C211 1.351 . S
C212 H217 0.930 . S
O213 Cu207 1.974 . S
O213 C223 1.282 . S
C214 O215 1.261 . S
C214 O227 1.251 . S
O215 C214 1.261 . S
H216 C210 0.930 . S
H217 C212 0.930 . S
N218 Cu207 1.985 . S
N218 C220 1.335 . S
N218 C221 1.390 . S
N219 C220 1.345 . S
N219 C222 1.336 . S
C220 N218 1.335 . S
C220 N219 1.345 . S
C220 H225 0.930 . S
C221 N218 1.390 . S
C221 C222 1.346 . S
C221 H226 0.930 . S
C222 N219 1.336 . S
C222 C221 1.346 . S
C222 H229 0.929 . S
C223 O213 1.282 . S
C223 O224 1.216 . S
O224 C223 1.216 . S
H225 C220 0.930 . S
H226 C221 0.930 . S
O227 Cu207 1.959 . S
O227 C214 1.251 . S
H228 C211 0.930 . S
H229 C222 0.929 . S
Cu230 N231 1.999 . S
Cu230 O236 1.974 . S
Cu230 N241 1.985 . S
Cu230 O250 1.959 . S
N231 Cu230 1.999 . S
N231 C233 1.263 . S
N231 C235 1.389 . S
N232 C233 1.358 . S
N232 C234 1.400 . S
C233 N231 1.263 . S
C233 N232 1.358 . S
C233 H239 0.930 . S
C234 N232 1.400 . S
C234 C235 1.351 . S
C234 H251 0.930 . S
C235 N231 1.389 . S
C235 C234 1.351 . S
C235 H240 0.930 . S
O236 Cu230 1.974 . S
O236 C246 1.282 . S
C237 O238 1.261 . S
C237 O250 1.251 . S
O238 C237 1.261 . S
H239 C233 0.930 . S
H240 C235 0.930 . S
N241 Cu230 1.985 . S
N241 C243 1.335 . S
N241 C244 1.390 . S
N242 C243 1.345 . S
N242 C245 1.336 . S
C243 N241 1.335 . S
C243 N242 1.345 . S
C243 H248 0.930 . S
C244 N241 1.390 . S
C244 C245 1.346 . S
C244 H249 0.930 . S
C245 N242 1.336 . S
C245 C244 1.346 . S
C245 H252 0.929 . S
C246 O236 1.282 . S
C246 O247 1.216 . S
O247 C246 1.216 . S
H248 C243 0.930 . S
H249 C244 0.930 . S
O250 Cu230 1.959 . S
O250 C237 1.251 . S
H251 C234 0.930 . S
H252 C245 0.929 . S
Cu253 N254 1.999 . S
Cu253 O259 1.974 . S
Cu253 N264 1.985 . S
Cu253 O273 1.959 . S
N254 Cu253 1.999 . S
N254 C256 1.263 . S
N254 C258 1.389 . S
N255 C256 1.358 . S
N255 C257 1.400 . S
C256 N254 1.263 . S
C256 N255 1.358 . S
C256 H262 0.930 . S
C257 N255 1.400 . S
C257 C258 1.351 . S
C257 H274 0.930 . S
C258 N254 1.389 . S
C258 C257 1.351 . S
C258 H263 0.930 . S
O259 Cu253 1.974 . S
O259 C269 1.282 . S
C260 O261 1.261 . S
C260 O273 1.251 . S
O261 C260 1.261 . S
H262 C256 0.930 . S
H263 C258 0.930 . S
N264 Cu253 1.985 . S
N264 C266 1.335 . S
N264 C267 1.390 . S
N265 C266 1.345 . S
N265 C268 1.336 . S
C266 N264 1.335 . S
C266 N265 1.345 . S
C266 H271 0.930 . S
C267 N264 1.390 . S
C267 C268 1.346 . S
C267 H272 0.930 . S
C268 N265 1.336 . S
C268 C267 1.346 . S
C268 H275 0.929 . S
C269 O259 1.282 . S
C269 O270 1.216 . S
O270 C269 1.216 . S
H271 C266 0.930 . S
H272 C267 0.930 . S
O273 Cu253 1.959 . S
O273 C260 1.251 . S
H274 C257 0.930 . S
H275 C268 0.929 . S
Tb276 O279 2.453 . S
Tb276 O280 2.596 . S
Tb276 O281 2.374 . S
Tb276 O289 2.343 . S
Tb276 O291 2.353 . S
Tb276 O293 2.427 . S
Tb276 O294 2.513 . S
C277 O281 1.251 . S
C277 O283 1.263 . S
Tb278 O280 2.343 . S
Tb278 O283 2.353 . S
Tb278 O286 2.427 . S
Tb278 O287 2.513 . S
Tb278 O288 2.453 . S
Tb278 O289 2.596 . S
Tb278 O290 2.374 . S
O279 Tb276 2.453 . S
O279 C295 1.245 . S
O280 Tb276 2.596 . S
O280 Tb278 2.343 . S
O280 C295 1.259 . S
O281 Tb276 2.374 . S
O281 C277 1.251 . S
C282 O286 1.275 . S
C282 O287 1.246 . S
O283 C277 1.263 . S
O283 Tb278 2.353 . S
C284 O288 1.245 . S
C284 O289 1.259 . S
C285 O290 1.250 . S
C285 O291 1.263 . S
O286 Tb278 2.427 . S
O286 C282 1.275 . S
O287 Tb278 2.513 . S
O287 C282 1.246 . S
O288 Tb278 2.453 . S
O288 C284 1.245 . S
O289 Tb276 2.343 . S
O289 Tb278 2.596 . S
O289 C284 1.259 . S
O290 Tb278 2.374 . S
O290 C285 1.250 . S
O291 Tb276 2.353 . S
O291 C285 1.263 . S
C292 O293 1.275 . S
C292 O294 1.246 . S
O293 Tb276 2.427 . S
O293 C292 1.275 . S
O294 Tb276 2.513 . S
O294 C292 1.246 . S
C295 O279 1.245 . S
C295 O280 1.259 . S
Tb296 O299 2.453 . S
Tb296 O300 2.596 . S
Tb296 O301 2.374 . S
Tb296 O309 2.343 . S
Tb296 O311 2.353 . S
Tb296 O313 2.427 . S
Tb296 O314 2.513 . S
C297 O301 1.251 . S
C297 O303 1.263 . S
Tb298 O300 2.343 . S
Tb298 O303 2.353 . S
Tb298 O306 2.427 . S
Tb298 O307 2.513 . S
Tb298 O308 2.453 . S
Tb298 O309 2.596 . S
Tb298 O310 2.374 . S
O299 Tb296 2.453 . S
O299 C315 1.245 . S
O300 Tb296 2.596 . S
O300 Tb298 2.343 . S
O300 C315 1.259 . S
O301 Tb296 2.374 . S
O301 C297 1.251 . S
C302 O306 1.275 . S
C302 O307 1.246 . S
O303 C297 1.263 . S
O303 Tb298 2.353 . S
C304 O308 1.245 . S
C304 O309 1.259 . S
C305 O310 1.250 . S
C305 O311 1.263 . S
O306 Tb298 2.427 . S
O306 C302 1.275 . S
O307 Tb298 2.513 . S
O307 C302 1.246 . S
O308 Tb298 2.453 . S
O308 C304 1.245 . S
O309 Tb296 2.343 . S
O309 Tb298 2.596 . S
O309 C304 1.259 . S
O310 Tb298 2.374 . S
O310 C305 1.250 . S
O311 Tb296 2.353 . S
O311 C305 1.263 . S
C312 O313 1.275 . S
C312 O314 1.246 . S
O313 Tb296 2.427 . S
O313 C312 1.275 . S
O314 Tb296 2.513 . S
O314 C312 1.246 . S
C315 O299 1.245 . S
C315 O300 1.259 . S
Tb316 O319 2.453 . S
Tb316 O320 2.596 . S
Tb316 O321 2.374 . S
Tb316 O329 2.343 . S
Tb316 O331 2.353 . S
Tb316 O333 2.427 . S
Tb316 O334 2.513 . S
C317 O321 1.251 . S
C317 O323 1.263 . S
Tb318 O320 2.343 . S
Tb318 O323 2.353 . S
Tb318 O326 2.427 . S
Tb318 O327 2.513 . S
Tb318 O328 2.453 . S
Tb318 O329 2.596 . S
Tb318 O330 2.374 . S
O319 Tb316 2.453 . S
O319 C335 1.245 . S
O320 Tb316 2.596 . S
O320 Tb318 2.343 . S
O320 C335 1.259 . S
O321 Tb316 2.374 . S
O321 C317 1.251 . S
C322 O326 1.275 . S
C322 O327 1.246 . S
O323 C317 1.263 . S
O323 Tb318 2.353 . S
C324 O328 1.245 . S
C324 O329 1.259 . S
C325 O330 1.250 . S
C325 O331 1.263 . S
O326 Tb318 2.427 . S
O326 C322 1.275 . S
O327 Tb318 2.513 . S
O327 C322 1.246 . S
O328 Tb318 2.453 . S
O328 C324 1.245 . S
O329 Tb316 2.343 . S
O329 Tb318 2.596 . S
O329 C324 1.259 . S
O330 Tb318 2.374 . S
O330 C325 1.250 . S
O331 Tb316 2.353 . S
O331 C325 1.263 . S
C332 O333 1.275 . S
C332 O334 1.246 . S
O333 Tb316 2.427 . S
O333 C332 1.275 . S
O334 Tb316 2.513 . S
O334 C332 1.246 . S
C335 O319 1.245 . S
C335 O320 1.259 . S
Tb336 O339 2.453 . S
Tb336 O340 2.596 . S
Tb336 O341 2.374 . S
Tb336 O349 2.343 . S
Tb336 O351 2.353 . S
Tb336 O353 2.427 . S
Tb336 O354 2.513 . S
C337 O341 1.251 . S
C337 O343 1.263 . S
Tb338 O340 2.343 . S
Tb338 O343 2.353 . S
Tb338 O346 2.427 . S
Tb338 O347 2.513 . S
Tb338 O348 2.453 . S
Tb338 O349 2.596 . S
Tb338 O350 2.374 . S
O339 Tb336 2.453 . S
O339 C355 1.245 . S
O340 Tb336 2.596 . S
O340 Tb338 2.343 . S
O340 C355 1.259 . S
O341 Tb336 2.374 . S
O341 C337 1.251 . S
C342 O346 1.275 . S
C342 O347 1.246 . S
O343 C337 1.263 . S
O343 Tb338 2.353 . S
C344 O348 1.245 . S
C344 O349 1.259 . S
C345 O350 1.250 . S
C345 O351 1.263 . S
O346 Tb338 2.427 . S
O346 C342 1.275 . S
O347 Tb338 2.513 . S
O347 C342 1.246 . S
O348 Tb338 2.453 . S
O348 C344 1.245 . S
O349 Tb336 2.343 . S
O349 Tb338 2.596 . S
O349 C344 1.259 . S
O350 Tb338 2.374 . S
O350 C345 1.250 . S
O351 Tb336 2.353 . S
O351 C345 1.263 . S
C352 O353 1.275 . S
C352 O354 1.246 . S
O353 Tb336 2.427 . S
O353 C352 1.275 . S
O354 Tb336 2.513 . S
O354 C352 1.246 . S
C355 O339 1.245 . S
C355 O340 1.259 . S
Tb356 O359 2.453 . S
Tb356 O360 2.596 . S
Tb356 O361 2.374 . S
Tb356 O369 2.343 . S
Tb356 O371 2.353 . S
Tb356 O373 2.427 . S
Tb356 O374 2.513 . S
C357 O361 1.251 . S
C357 O363 1.263 . S
Tb358 O360 2.343 . S
Tb358 O363 2.353 . S
Tb358 O366 2.427 . S
Tb358 O367 2.513 . S
Tb358 O368 2.453 . S
Tb358 O369 2.596 . S
Tb358 O370 2.374 . S
O359 Tb356 2.453 . S
O359 C375 1.245 . S
O360 Tb356 2.596 . S
O360 Tb358 2.343 . S
O360 C375 1.259 . S
O361 Tb356 2.374 . S
O361 C357 1.251 . S
C362 O366 1.275 . S
C362 O367 1.246 . S
O363 C357 1.263 . S
O363 Tb358 2.353 . S
C364 O368 1.245 . S
C364 O369 1.259 . S
C365 O370 1.250 . S
C365 O371 1.263 . S
O366 Tb358 2.427 . S
O366 C362 1.275 . S
O367 Tb358 2.513 . S
O367 C362 1.246 . S
O368 Tb358 2.453 . S
O368 C364 1.245 . S
O369 Tb356 2.343 . S
O369 Tb358 2.596 . S
O369 C364 1.259 . S
O370 Tb358 2.374 . S
O370 C365 1.250 . S
O371 Tb356 2.353 . S
O371 C365 1.263 . S
C372 O373 1.275 . S
C372 O374 1.246 . S
O373 Tb356 2.427 . S
O373 C372 1.275 . S
O374 Tb356 2.513 . S
O374 C372 1.246 . S
C375 O359 1.245 . S
C375 O360 1.259 . S
Tb376 O379 2.453 . S
Tb376 O380 2.596 . S
Tb376 O381 2.374 . S
Tb376 O389 2.343 . S
Tb376 O391 2.353 . S
Tb376 O393 2.427 . S
Tb376 O394 2.513 . S
C377 O381 1.251 . S
C377 O383 1.263 . S
Tb378 O380 2.343 . S
Tb378 O383 2.353 . S
Tb378 O386 2.427 . S
Tb378 O387 2.513 . S
Tb378 O388 2.453 . S
Tb378 O389 2.596 . S
Tb378 O390 2.374 . S
O379 Tb376 2.453 . S
O379 C395 1.245 . S
O380 Tb376 2.596 . S
O380 Tb378 2.343 . S
O380 C395 1.259 . S
O381 Tb376 2.374 . S
O381 C377 1.251 . S
C382 O386 1.275 . S
C382 O387 1.246 . S
O383 C377 1.263 . S
O383 Tb378 2.353 . S
C384 O388 1.245 . S
C384 O389 1.259 . S
C385 O390 1.250 . S
C385 O391 1.263 . S
O386 Tb378 2.427 . S
O386 C382 1.275 . S
O387 Tb378 2.513 . S
O387 C382 1.246 . S
O388 Tb378 2.453 . S
O388 C384 1.245 . S
O389 Tb376 2.343 . S
O389 Tb378 2.596 . S
O389 C384 1.259 . S
O390 Tb378 2.374 . S
O390 C385 1.250 . S
O391 Tb376 2.353 . S
O391 C385 1.263 . S
C392 O393 1.275 . S
C392 O394 1.246 . S
O393 Tb376 2.427 . S
O393 C392 1.275 . S
O394 Tb376 2.513 . S
O394 C392 1.246 . S
C395 O379 1.245 . S
C395 O380 1.259 . S
Tb396 O399 2.453 . S
Tb396 O400 2.596 . S
Tb396 O401 2.374 . S
Tb396 O409 2.343 . S
Tb396 O411 2.353 . S
Tb396 O413 2.427 . S
Tb396 O414 2.513 . S
C397 O401 1.251 . S
C397 O403 1.263 . S
Tb398 O400 2.343 . S
Tb398 O403 2.353 . S
Tb398 O406 2.427 . S
Tb398 O407 2.513 . S
Tb398 O408 2.453 . S
Tb398 O409 2.596 . S
Tb398 O410 2.374 . S
O399 Tb396 2.453 . S
O399 C415 1.245 . S
O400 Tb396 2.596 . S
O400 Tb398 2.343 . S
O400 C415 1.259 . S
O401 Tb396 2.374 . S
O401 C397 1.251 . S
C402 O406 1.275 . S
C402 O407 1.246 . S
O403 C397 1.263 . S
O403 Tb398 2.353 . S
C404 O408 1.245 . S
C404 O409 1.259 . S
C405 O410 1.250 . S
C405 O411 1.263 . S
O406 Tb398 2.427 . S
O406 C402 1.275 . S
O407 Tb398 2.513 . S
O407 C402 1.246 . S
O408 Tb398 2.453 . S
O408 C404 1.245 . S
O409 Tb396 2.343 . S
O409 Tb398 2.596 . S
O409 C404 1.259 . S
O410 Tb398 2.374 . S
O410 C405 1.250 . S
O411 Tb396 2.353 . S
O411 C405 1.263 . S
C412 O413 1.275 . S
C412 O414 1.246 . S
O413 Tb396 2.427 . S
O413 C412 1.275 . S
O414 Tb396 2.513 . S
O414 C412 1.246 . S
C415 O399 1.245 . S
C415 O400 1.259 . S
Tb416 O419 2.453 . S
Tb416 O420 2.596 . S
Tb416 O421 2.374 . S
Tb416 O429 2.343 . S
Tb416 O431 2.353 . S
Tb416 O433 2.427 . S
Tb416 O434 2.513 . S
C417 O421 1.251 . S
C417 O423 1.263 . S
Tb418 O420 2.343 . S
Tb418 O423 2.353 . S
Tb418 O426 2.427 . S
Tb418 O427 2.513 . S
Tb418 O428 2.453 . S
Tb418 O429 2.596 . S
Tb418 O430 2.374 . S
O419 Tb416 2.453 . S
O419 C435 1.245 . S
O420 Tb416 2.596 . S
O420 Tb418 2.343 . S
O420 C435 1.259 . S
O421 Tb416 2.374 . S
O421 C417 1.251 . S
C422 O426 1.275 . S
C422 O427 1.246 . S
O423 C417 1.263 . S
O423 Tb418 2.353 . S
C424 O428 1.245 . S
C424 O429 1.259 . S
C425 O430 1.250 . S
C425 O431 1.263 . S
O426 Tb418 2.427 . S
O426 C422 1.275 . S
O427 Tb418 2.513 . S
O427 C422 1.246 . S
O428 Tb418 2.453 . S
O428 C424 1.245 . S
O429 Tb416 2.343 . S
O429 Tb418 2.596 . S
O429 C424 1.259 . S
O430 Tb418 2.374 . S
O430 C425 1.250 . S
O431 Tb416 2.353 . S
O431 C425 1.263 . S
C432 O433 1.275 . S
C432 O434 1.246 . S
O433 Tb416 2.427 . S
O433 C432 1.275 . S
O434 Tb416 2.513 . S
O434 C432 1.246 . S
C435 O419 1.245 . S
C435 O420 1.259 . S
C436 C437 1.369 . S
C436 C438 1.419 . S
C436 H440 0.930 . S
C437 C436 1.369 . S
C437 C446 1.429 . S
C438 C436 1.419 . S
C438 C439 1.363 . S
C438 H441 0.929 . S
C439 C438 1.363 . S
C439 C445 1.428 . S
H440 C436 0.930 . S
H441 C438 0.929 . S
S442 N443 1.613 . S
S442 N444 1.610 . S
N443 S442 1.613 . S
N443 C446 1.350 . S
N444 S442 1.610 . S
N444 C445 1.351 . S
C445 C439 1.428 . S
C445 N444 1.351 . S
C445 C446 1.434 . S
C446 C437 1.429 . S
C446 N443 1.350 . S
C446 C445 1.434 . S
C447 C448 1.369 . S
C447 C449 1.419 . S
C447 H451 0.930 . S
C448 C447 1.369 . S
C448 C457 1.429 . S
C449 C447 1.419 . S
C449 C450 1.363 . S
C449 H452 0.929 . S
C450 C449 1.363 . S
C450 C456 1.428 . S
H451 C447 0.930 . S
H452 C449 0.929 . S
S453 N454 1.613 . S
S453 N455 1.610 . S
N454 S453 1.613 . S
N454 C457 1.350 . S
N455 S453 1.610 . S
N455 C456 1.351 . S
C456 C450 1.428 . S
C456 N455 1.351 . S
C456 C457 1.434 . S
C457 C448 1.429 . S
C457 N454 1.350 . S
C457 C456 1.434 . S
C458 C459 1.369 . S
C458 C460 1.419 . S
C458 H462 0.930 . S
C459 C458 1.369 . S
C459 C468 1.429 . S
C460 C458 1.419 . S
C460 C461 1.363 . S
C460 H463 0.929 . S
C461 C460 1.363 . S
C461 C467 1.428 . S
H462 C458 0.930 . S
H463 C460 0.929 . S
S464 N465 1.613 . S
S464 N466 1.610 . S
N465 S464 1.613 . S
N465 C468 1.350 . S
N466 S464 1.610 . S
N466 C467 1.351 . S
C467 C461 1.428 . S
C467 N466 1.351 . S
C467 C468 1.434 . S
C468 C459 1.429 . S
C468 N465 1.350 . S
C468 C467 1.434 . S
C469 C470 1.369 . S
C469 C471 1.419 . S
C469 H473 0.930 . S
C470 C469 1.369 . S
C470 C479 1.429 . S
C471 C469 1.419 . S
C471 C472 1.363 . S
C471 H474 0.929 . S
C472 C471 1.363 . S
C472 C478 1.428 . S
H473 C469 0.930 . S
H474 C471 0.929 . S
S475 N476 1.613 . S
S475 N477 1.610 . S
N476 S475 1.613 . S
N476 C479 1.350 . S
N477 S475 1.610 . S
N477 C478 1.351 . S
C478 C472 1.428 . S
C478 N477 1.351 . S
C478 C479 1.434 . S
C479 C470 1.429 . S
C479 N476 1.350 . S
C479 C478 1.434 . S
C480 C481 1.369 . S
C480 C482 1.419 . S
C480 H484 0.930 . S
C481 C480 1.369 . S
C481 C490 1.429 . S
C482 C480 1.419 . S
C482 C483 1.363 . S
C482 H485 0.929 . S
C483 C482 1.363 . S
C483 C489 1.428 . S
H484 C480 0.930 . S
H485 C482 0.929 . S
S486 N487 1.613 . S
S486 N488 1.610 . S
N487 S486 1.613 . S
N487 C490 1.350 . S
N488 S486 1.610 . S
N488 C489 1.351 . S
C489 C483 1.428 . S
C489 N488 1.351 . S
C489 C490 1.434 . S
C490 C481 1.429 . S
C490 N487 1.350 . S
C490 C489 1.434 . S
C491 C492 1.369 . S
C491 C493 1.419 . S
C491 H495 0.930 . S
C492 C491 1.369 . S
C492 C501 1.429 . S
C493 C491 1.419 . S
C493 C494 1.363 . S
C493 H496 0.929 . S
C494 C493 1.363 . S
C494 C500 1.428 . S
H495 C491 0.930 . S
H496 C493 0.929 . S
S497 N498 1.613 . S
S497 N499 1.610 . S
N498 S497 1.613 . S
N498 C501 1.350 . S
N499 S497 1.610 . S
N499 C500 1.351 . S
C500 C494 1.428 . S
C500 N499 1.351 . S
C500 C501 1.434 . S
C501 C492 1.429 . S
C501 N498 1.350 . S
C501 C500 1.434 . S
C502 C503 1.369 . S
C502 C504 1.419 . S
C502 H506 0.930 . S
C503 C502 1.369 . S
C503 C512 1.429 . S
C504 C502 1.419 . S
C504 C505 1.363 . S
C504 H507 0.929 . S
C505 C504 1.363 . S
C505 C511 1.428 . S
H506 C502 0.930 . S
H507 C504 0.929 . S
S508 N509 1.613 . S
S508 N510 1.610 . S
N509 S508 1.613 . S
N509 C512 1.350 . S
N510 S508 1.610 . S
N510 C511 1.351 . S
C511 C505 1.428 . S
C511 N510 1.351 . S
C511 C512 1.434 . S
C512 C503 1.429 . S
C512 N509 1.350 . S
C512 C511 1.434 . S
C513 C514 1.369 . S
C513 C515 1.419 . S
C513 H517 0.930 . S
C514 C513 1.369 . S
C514 C523 1.429 . S
C515 C513 1.419 . S
C515 C516 1.363 . S
C515 H518 0.929 . S
C516 C515 1.363 . S
C516 C522 1.428 . S
H517 C513 0.930 . S
H518 C515 0.929 . S
S519 N520 1.613 . S
S519 N521 1.610 . S
N520 S519 1.613 . S
N520 C523 1.350 . S
N521 S519 1.610 . S
N521 C522 1.351 . S
C522 C516 1.428 . S
C522 N521 1.351 . S
C522 C523 1.434 . S
C523 C514 1.429 . S
C523 N520 1.350 . S
C523 C522 1.434 . S
C524 C525 1.369 . S
C524 C526 1.419 . S
C524 H528 0.930 . S
C525 C524 1.369 . S
C525 C534 1.429 . S
C526 C524 1.419 . S
C526 C527 1.363 . S
C526 H529 0.929 . S
C527 C526 1.363 . S
C527 C533 1.428 . S
H528 C524 0.930 . S
H529 C526 0.929 . S
S530 N531 1.613 . S
S530 N532 1.610 . S
N531 S530 1.613 . S
N531 C534 1.350 . S
N532 S530 1.610 . S
N532 C533 1.351 . S
C533 C527 1.428 . S
C533 N532 1.351 . S
C533 C534 1.434 . S
C534 C525 1.429 . S
C534 N531 1.350 . S
C534 C533 1.434 . S
C535 C536 1.369 . S
C535 C537 1.419 . S
C535 H539 0.930 . S
C536 C535 1.369 . S
C536 C545 1.429 . S
C537 C535 1.419 . S
C537 C538 1.363 . S
C537 H540 0.929 . S
C538 C537 1.363 . S
C538 C544 1.428 . S
H539 C535 0.930 . S
H540 C537 0.929 . S
S541 N542 1.613 . S
S541 N543 1.610 . S
N542 S541 1.613 . S
N542 C545 1.350 . S
N543 S541 1.610 . S
N543 C544 1.351 . S
C544 C538 1.428 . S
C544 N543 1.351 . S
C544 C545 1.434 . S
C545 C536 1.429 . S
C545 N542 1.350 . S
C545 C544 1.434 . S
C546 C547 1.369 . S
C546 C548 1.419 . S
C546 H550 0.930 . S
C547 C546 1.369 . S
C547 C556 1.429 . S
C548 C546 1.419 . S
C548 C549 1.363 . S
C548 H551 0.929 . S
C549 C548 1.363 . S
C549 C555 1.428 . S
H550 C546 0.930 . S
H551 C548 0.929 . S
S552 N553 1.613 . S
S552 N554 1.610 . S
N553 S552 1.613 . S
N553 C556 1.350 . S
N554 S552 1.610 . S
N554 C555 1.351 . S
C555 C549 1.428 . S
C555 N554 1.351 . S
C555 C556 1.434 . S
C556 C547 1.429 . S
C556 N553 1.350 . S
C556 C555 1.434 . S
C557 C558 1.369 . S
C557 C559 1.419 . S
C557 H561 0.930 . S
C558 C557 1.369 . S
C558 C567 1.429 . S
C559 C557 1.419 . S
C559 C560 1.363 . S
C559 H562 0.929 . S
C560 C559 1.363 . S
C560 C566 1.428 . S
H561 C557 0.930 . S
H562 C559 0.929 . S
S563 N564 1.613 . S
S563 N565 1.610 . S
N564 S563 1.613 . S
N564 C567 1.350 . S
N565 S563 1.610 . S
N565 C566 1.351 . S
C566 C560 1.428 . S
C566 N565 1.351 . S
C566 C567 1.434 . S
C567 C558 1.429 . S
C567 N564 1.350 . S
C567 C566 1.434 . S
C568 C569 1.369 . S
C568 C570 1.419 . S
C568 H572 0.930 . S
C569 C568 1.369 . S
C569 C578 1.429 . S
C570 C568 1.419 . S
C570 C571 1.363 . S
C570 H573 0.929 . S
C571 C570 1.363 . S
C571 C577 1.428 . S
H572 C568 0.930 . S
H573 C570 0.929 . S
S574 N575 1.613 . S
S574 N576 1.610 . S
N575 S574 1.613 . S
N575 C578 1.350 . S
N576 S574 1.610 . S
N576 C577 1.351 . S
C577 C571 1.428 . S
C577 N576 1.351 . S
C577 C578 1.434 . S
C578 C569 1.429 . S
C578 N575 1.350 . S
C578 C577 1.434 . S
C579 C580 1.369 . S
C579 C581 1.419 . S
C579 H583 0.930 . S
C580 C579 1.369 . S
C580 C589 1.429 . S
C581 C579 1.419 . S
C581 C582 1.363 . S
C581 H584 0.929 . S
C582 C581 1.363 . S
C582 C588 1.428 . S
H583 C579 0.930 . S
H584 C581 0.929 . S
S585 N586 1.613 . S
S585 N587 1.610 . S
N586 S585 1.613 . S
N586 C589 1.350 . S
N587 S585 1.610 . S
N587 C588 1.351 . S
C588 C582 1.428 . S
C588 N587 1.351 . S
C588 C589 1.434 . S
C589 C580 1.429 . S
C589 N586 1.350 . S
C589 C588 1.434 . S
C590 C591 1.369 . S
C590 C592 1.419 . S
C590 H594 0.930 . S
C591 C590 1.369 . S
C591 C600 1.429 . S
C592 C590 1.419 . S
C592 C593 1.363 . S
C592 H595 0.929 . S
C593 C592 1.363 . S
C593 C599 1.428 . S
H594 C590 0.930 . S
H595 C592 0.929 . S
S596 N597 1.613 . S
S596 N598 1.610 . S
N597 S596 1.613 . S
N597 C600 1.350 . S
N598 S596 1.610 . S
N598 C599 1.351 . S
C599 C593 1.428 . S
C599 N598 1.351 . S
C599 C600 1.434 . S
C600 C591 1.429 . S
C600 N597 1.350 . S
C600 C599 1.434 . S
C601 C602 1.369 . S
C601 C603 1.419 . S
C601 H605 0.930 . S
C602 C601 1.369 . S
C602 C611 1.429 . S
C603 C601 1.419 . S
C603 C604 1.363 . S
C603 H606 0.929 . S
C604 C603 1.363 . S
C604 C610 1.428 . S
H605 C601 0.930 . S
H606 C603 0.929 . S
S607 N608 1.613 . S
S607 N609 1.610 . S
N608 S607 1.613 . S
N608 C611 1.350 . S
N609 S607 1.610 . S
N609 C610 1.351 . S
C610 C604 1.428 . S
C610 N609 1.351 . S
C610 C611 1.434 . S
C611 C602 1.429 . S
C611 N608 1.350 . S
C611 C610 1.434 . S
C612 C613 1.369 . S
C612 C614 1.419 . S
C612 H616 0.930 . S
C613 C612 1.369 . S
C613 C622 1.429 . S
C614 C612 1.419 . S
C614 C615 1.363 . S
C614 H617 0.929 . S
C615 C614 1.363 . S
C615 C621 1.428 . S
H616 C612 0.930 . S
H617 C614 0.929 . S
S618 N619 1.613 . S
S618 N620 1.610 . S
N619 S618 1.613 . S
N619 C622 1.350 . S
N620 S618 1.610 . S
N620 C621 1.351 . S
C621 C615 1.428 . S
C621 N620 1.351 . S
C621 C622 1.434 . S
C622 C613 1.429 . S
C622 N619 1.350 . S
C622 C621 1.434 . S
C623 C624 1.369 . S
C623 C625 1.419 . S
C623 H627 0.930 . S
C624 C623 1.369 . S
C624 C633 1.429 . S
C625 C623 1.419 . S
C625 C626 1.363 . S
C625 H628 0.929 . S
C626 C625 1.363 . S
C626 C632 1.428 . S
H627 C623 0.930 . S
H628 C625 0.929 . S
S629 N630 1.613 . S
S629 N631 1.610 . S
N630 S629 1.613 . S
N630 C633 1.350 . S
N631 S629 1.610 . S
N631 C632 1.351 . S
C632 C626 1.428 . S
C632 N631 1.351 . S
C632 C633 1.434 . S
C633 C624 1.429 . S
C633 N630 1.350 . S
C633 C632 1.434 . S
C634 C635 1.369 . S
C634 C636 1.419 . S
C634 H638 0.930 . S
C635 C634 1.369 . S
C635 C644 1.429 . S
C636 C634 1.419 . S
C636 C637 1.363 . S
C636 H639 0.929 . S
C637 C636 1.363 . S
C637 C643 1.428 . S
H638 C634 0.930 . S
H639 C636 0.929 . S
S640 N641 1.613 . S
S640 N642 1.610 . S
N641 S640 1.613 . S
N641 C644 1.350 . S
N642 S640 1.610 . S
N642 C643 1.351 . S
C643 C637 1.428 . S
C643 N642 1.351 . S
C643 C644 1.434 . S
C644 C635 1.429 . S
C644 N641 1.350 . S
C644 C643 1.434 . S
C645 C646 1.369 . S
C645 C647 1.419 . S
C645 H649 0.930 . S
C646 C645 1.369 . S
C646 C655 1.429 . S
C647 C645 1.419 . S
C647 C648 1.363 . S
C647 H650 0.929 . S
C648 C647 1.363 . S
C648 C654 1.428 . S
H649 C645 0.930 . S
H650 C647 0.929 . S
S651 N652 1.613 . S
S651 N653 1.610 . S
N652 S651 1.613 . S
N652 C655 1.350 . S
N653 S651 1.610 . S
N653 C654 1.351 . S
C654 C648 1.428 . S
C654 N653 1.351 . S
C654 C655 1.434 . S
C655 C646 1.429 . S
C655 N652 1.350 . S
C655 C654 1.434 . S
C656 C657 1.369 . S
C656 C658 1.419 . S
C656 H660 0.930 . S
C657 C656 1.369 . S
C657 C666 1.429 . S
C658 C656 1.419 . S
C658 C659 1.363 . S
C658 H661 0.929 . S
C659 C658 1.363 . S
C659 C665 1.428 . S
H660 C656 0.930 . S
H661 C658 0.929 . S
S662 N663 1.613 . S
S662 N664 1.610 . S
N663 S662 1.613 . S
N663 C666 1.350 . S
N664 S662 1.610 . S
N664 C665 1.351 . S
C665 C659 1.428 . S
C665 N664 1.351 . S
C665 C666 1.434 . S
C666 C657 1.429 . S
C666 N663 1.350 . S
C666 C665 1.434 . S
C667 C668 1.369 . S
C667 C669 1.419 . S
C667 H671 0.930 . S
C668 C667 1.369 . S
C668 C677 1.429 . S
C669 C667 1.419 . S
C669 C670 1.363 . S
C669 H672 0.929 . S
C670 C669 1.363 . S
C670 C676 1.428 . S
H671 C667 0.930 . S
H672 C669 0.929 . S
S673 N674 1.613 . S
S673 N675 1.610 . S
N674 S673 1.613 . S
N674 C677 1.350 . S
N675 S673 1.610 . S
N675 C676 1.351 . S
C676 C670 1.428 . S
C676 N675 1.351 . S
C676 C677 1.434 . S
C677 C668 1.429 . S
C677 N674 1.350 . S
C677 C676 1.434 . S
C678 C679 1.369 . S
C678 C680 1.419 . S
C678 H682 0.930 . S
C679 C678 1.369 . S
C679 C688 1.429 . S
C680 C678 1.419 . S
C680 C681 1.363 . S
C680 H683 0.929 . S
C681 C680 1.363 . S
C681 C687 1.428 . S
H682 C678 0.930 . S
H683 C680 0.929 . S
S684 N685 1.613 . S
S684 N686 1.610 . S
N685 S684 1.613 . S
N685 C688 1.350 . S
N686 S684 1.610 . S
N686 C687 1.351 . S
C687 C681 1.428 . S
C687 N686 1.351 . S
C687 C688 1.434 . S
C688 C679 1.429 . S
C688 N685 1.350 . S
C688 C687 1.434 . S
C689 C690 1.369 . S
C689 C691 1.419 . S
C689 H693 0.930 . S
C690 C689 1.369 . S
C690 C699 1.429 . S
C691 C689 1.419 . S
C691 C692 1.363 . S
C691 H694 0.929 . S
C692 C691 1.363 . S
C692 C698 1.428 . S
H693 C689 0.930 . S
H694 C691 0.929 . S
S695 N696 1.613 . S
S695 N697 1.610 . S
N696 S695 1.613 . S
N696 C699 1.350 . S
N697 S695 1.610 . S
N697 C698 1.351 . S
C698 C692 1.428 . S
C698 N697 1.351 . S
C698 C699 1.434 . S
C699 C690 1.429 . S
C699 N696 1.350 . S
C699 C698 1.434 . S
C700 C701 1.369 . S
C700 C702 1.419 . S
C700 H704 0.930 . S
C701 C700 1.369 . S
C701 C710 1.429 . S
C702 C700 1.419 . S
C702 C703 1.363 . S
C702 H705 0.929 . S
C703 C702 1.363 . S
C703 C709 1.428 . S
H704 C700 0.930 . S
H705 C702 0.929 . S
S706 N707 1.613 . S
S706 N708 1.610 . S
N707 S706 1.613 . S
N707 C710 1.350 . S
N708 S706 1.610 . S
N708 C709 1.351 . S
C709 C703 1.428 . S
C709 N708 1.351 . S
C709 C710 1.434 . S
C710 C701 1.429 . S
C710 N707 1.350 . S
C710 C709 1.434 . S
C711 C712 1.369 . S
C711 C713 1.419 . S
C711 H715 0.930 . S
C712 C711 1.369 . S
C712 C721 1.429 . S
C713 C711 1.419 . S
C713 C714 1.363 . S
C713 H716 0.929 . S
C714 C713 1.363 . S
C714 C720 1.428 . S
H715 C711 0.930 . S
H716 C713 0.929 . S
S717 N718 1.613 . S
S717 N719 1.610 . S
N718 S717 1.613 . S
N718 C721 1.350 . S
N719 S717 1.610 . S
N719 C720 1.351 . S
C720 C714 1.428 . S
C720 N719 1.351 . S
C720 C721 1.434 . S
C721 C712 1.429 . S
C721 N718 1.350 . S
C721 C720 1.434 . S
C722 C723 1.369 . S
C722 C724 1.419 . S
C722 H726 0.930 . S
C723 C722 1.369 . S
C723 C732 1.429 . S
C724 C722 1.419 . S
C724 C725 1.363 . S
C724 H727 0.929 . S
C725 C724 1.363 . S
C725 C731 1.428 . S
H726 C722 0.930 . S
H727 C724 0.929 . S
S728 N729 1.613 . S
S728 N730 1.610 . S
N729 S728 1.613 . S
N729 C732 1.350 . S
N730 S728 1.610 . S
N730 C731 1.351 . S
C731 C725 1.428 . S
C731 N730 1.351 . S
C731 C732 1.434 . S
C732 C723 1.429 . S
C732 N729 1.350 . S
C732 C731 1.434 . S
C733 C734 1.369 . S
C733 C735 1.419 . S
C733 H737 0.930 . S
C734 C733 1.369 . S
C734 C743 1.429 . S
C735 C733 1.419 . S
C735 C736 1.363 . S
C735 H738 0.929 . S
C736 C735 1.363 . S
C736 C742 1.428 . S
H737 C733 0.930 . S
H738 C735 0.929 . S
S739 N740 1.613 . S
S739 N741 1.610 . S
N740 S739 1.613 . S
N740 C743 1.350 . S
N741 S739 1.610 . S
N741 C742 1.351 . S
C742 C736 1.428 . S
C742 N741 1.351 . S
C742 C743 1.434 . S
C743 C734 1.429 . S
C743 N740 1.350 . S
C743 C742 1.434 . S
C744 C745 1.369 . S
C744 C746 1.419 . S
C744 H748 0.930 . S
C745 C744 1.369 . S
C745 C754 1.429 . S
C746 C744 1.419 . S
C746 C747 1.363 . S
C746 H749 0.929 . S
C747 C746 1.363 . S
C747 C753 1.428 . S
H748 C744 0.930 . S
H749 C746 0.929 . S
S750 N751 1.613 . S
S750 N752 1.610 . S
N751 S750 1.613 . S
N751 C754 1.350 . S
N752 S750 1.610 . S
N752 C753 1.351 . S
C753 C747 1.428 . S
C753 N752 1.351 . S
C753 C754 1.434 . S
C754 C745 1.429 . S
C754 N751 1.350 . S
C754 C753 1.434 . S
C755 C756 1.369 . S
C755 C757 1.419 . S
C755 H759 0.930 . S
C756 C755 1.369 . S
C756 C765 1.429 . S
C757 C755 1.419 . S
C757 C758 1.363 . S
C757 H760 0.929 . S
C758 C757 1.363 . S
C758 C764 1.428 . S
H759 C755 0.930 . S
H760 C757 0.929 . S
S761 N762 1.613 . S
S761 N763 1.610 . S
N762 S761 1.613 . S
N762 C765 1.350 . S
N763 S761 1.610 . S
N763 C764 1.351 . S
C764 C758 1.428 . S
C764 N763 1.351 . S
C764 C765 1.434 . S
C765 C756 1.429 . S
C765 N762 1.350 . S
C765 C764 1.434 . S
C766 C767 1.369 . S
C766 C768 1.419 . S
C766 H770 0.930 . S
C767 C766 1.369 . S
C767 C776 1.429 . S
C768 C766 1.419 . S
C768 C769 1.363 . S
C768 H771 0.929 . S
C769 C768 1.363 . S
C769 C775 1.428 . S
H770 C766 0.930 . S
H771 C768 0.929 . S
S772 N773 1.613 . S
S772 N774 1.610 . S
N773 S772 1.613 . S
N773 C776 1.350 . S
N774 S772 1.610 . S
N774 C775 1.351 . S
C775 C769 1.428 . S
C775 N774 1.351 . S
C775 C776 1.434 . S
C776 C767 1.429 . S
C776 N773 1.350 . S
C776 C775 1.434 . S
C777 C778 1.369 . S
C777 C779 1.419 . S
C777 H781 0.930 . S
C778 C777 1.369 . S
C778 C787 1.429 . S
C779 C777 1.419 . S
C779 C780 1.363 . S
C779 H782 0.929 . S
C780 C779 1.363 . S
C780 C786 1.428 . S
H781 C777 0.930 . S
H782 C779 0.929 . S
S783 N784 1.613 . S
S783 N785 1.610 . S
N784 S783 1.613 . S
N784 C787 1.350 . S
N785 S783 1.610 . S
N785 C786 1.351 . S
C786 C780 1.428 . S
C786 N785 1.351 . S
C786 C787 1.434 . S
C787 C778 1.429 . S
C787 N784 1.350 . S
C787 C786 1.434 . S
C788 C789 1.369 . S
C788 C790 1.419 . S
C788 H792 0.930 . S
C789 C788 1.369 . S
C789 C798 1.429 . S
C790 C788 1.419 . S
C790 C791 1.363 . S
C790 H793 0.929 . S
C791 C790 1.363 . S
C791 C797 1.428 . S
H792 C788 0.930 . S
H793 C790 0.929 . S
S794 N795 1.613 . S
S794 N796 1.610 . S
N795 S794 1.613 . S
N795 C798 1.350 . S
N796 S794 1.610 . S
N796 C797 1.351 . S
C797 C791 1.428 . S
C797 N796 1.351 . S
C797 C798 1.434 . S
C798 C789 1.429 . S
C798 N795 1.350 . S
C798 C797 1.434 . S
C799 C800 1.369 . S
C799 C801 1.419 . S
C799 H803 0.930 . S
C800 C799 1.369 . S
C800 C809 1.429 . S
C801 C799 1.419 . S
C801 C802 1.363 . S
C801 H804 0.929 . S
C802 C801 1.363 . S
C802 C808 1.428 . S
H803 C799 0.930 . S
H804 C801 0.929 . S
S805 N806 1.613 . S
S805 N807 1.610 . S
N806 S805 1.613 . S
N806 C809 1.350 . S
N807 S805 1.610 . S
N807 C808 1.351 . S
C808 C802 1.428 . S
C808 N807 1.351 . S
C808 C809 1.434 . S
C809 C800 1.429 . S
C809 N806 1.350 . S
C809 C808 1.434 . S
C810 C811 1.369 . S
C810 C812 1.419 . S
C810 H814 0.930 . S
C811 C810 1.369 . S
C811 C820 1.429 . S
C812 C810 1.419 . S
C812 C813 1.363 . S
C812 H815 0.929 . S
C813 C812 1.363 . S
C813 C819 1.428 . S
H814 C810 0.930 . S
H815 C812 0.929 . S
S816 N817 1.613 . S
S816 N818 1.610 . S
N817 S816 1.613 . S
N817 C820 1.350 . S
N818 S816 1.610 . S
N818 C819 1.351 . S
C819 C813 1.428 . S
C819 N818 1.351 . S
C819 C820 1.434 . S
C820 C811 1.429 . S
C820 N817 1.350 . S
C820 C819 1.434 . S
C821 C822 1.369 . S
C821 C823 1.419 . S
C821 H825 0.930 . S
C822 C821 1.369 . S
C822 C831 1.429 . S
C823 C821 1.419 . S
C823 C824 1.363 . S
C823 H826 0.929 . S
C824 C823 1.363 . S
C824 C830 1.428 . S
H825 C821 0.930 . S
H826 C823 0.929 . S
S827 N828 1.613 . S
S827 N829 1.610 . S
N828 S827 1.613 . S
N828 C831 1.350 . S
N829 S827 1.610 . S
N829 C830 1.351 . S
C830 C824 1.428 . S
C830 N829 1.351 . S
C830 C831 1.434 . S
C831 C822 1.429 . S
C831 N828 1.350 . S
C831 C830 1.434 . S
C832 C833 1.369 . S
C832 C834 1.419 . S
C832 H836 0.930 . S
C833 C832 1.369 . S
C833 C842 1.429 . S
C834 C832 1.419 . S
C834 C835 1.363 . S
C834 H837 0.929 . S
C835 C834 1.363 . S
C835 C841 1.428 . S
H836 C832 0.930 . S
H837 C834 0.929 . S
S838 N839 1.613 . S
S838 N840 1.610 . S
N839 S838 1.613 . S
N839 C842 1.350 . S
N840 S838 1.610 . S
N840 C841 1.351 . S
C841 C835 1.428 . S
C841 N840 1.351 . S
C841 C842 1.434 . S
C842 C833 1.429 . S
C842 N839 1.350 . S
C842 C841 1.434 . S
C843 C844 1.369 . S
C843 C845 1.419 . S
C843 H847 0.930 . S
C844 C843 1.369 . S
C844 C853 1.429 . S
C845 C843 1.419 . S
C845 C846 1.363 . S
C845 H848 0.929 . S
C846 C845 1.363 . S
C846 C852 1.428 . S
H847 C843 0.930 . S
H848 C845 0.929 . S
S849 N850 1.613 . S
S849 N851 1.610 . S
N850 S849 1.613 . S
N850 C853 1.350 . S
N851 S849 1.610 . S
N851 C852 1.351 . S
C852 C846 1.428 . S
C852 N851 1.351 . S
C852 C853 1.434 . S
C853 C844 1.429 . S
C853 N850 1.350 . S
C853 C852 1.434 . S
C854 C855 1.369 . S
C854 C856 1.419 . S
C854 H858 0.930 . S
C855 C854 1.369 . S
C855 C864 1.429 . S
C856 C854 1.419 . S
C856 C857 1.363 . S
C856 H859 0.929 . S
C857 C856 1.363 . S
C857 C863 1.428 . S
H858 C854 0.930 . S
H859 C856 0.929 . S
S860 N861 1.613 . S
S860 N862 1.610 . S
N861 S860 1.613 . S
N861 C864 1.350 . S
N862 S860 1.610 . S
N862 C863 1.351 . S
C863 C857 1.428 . S
C863 N862 1.351 . S
C863 C864 1.434 . S
C864 C855 1.429 . S
C864 N861 1.350 . S
C864 C863 1.434 . S
C865 C866 1.369 . S
C865 C867 1.419 . S
C865 H869 0.930 . S
C866 C865 1.369 . S
C866 C875 1.429 . S
C867 C865 1.419 . S
C867 C868 1.363 . S
C867 H870 0.929 . S
C868 C867 1.363 . S
C868 C874 1.428 . S
H869 C865 0.930 . S
H870 C867 0.929 . S
S871 N872 1.613 . S
S871 N873 1.610 . S
N872 S871 1.613 . S
N872 C875 1.350 . S
N873 S871 1.610 . S
N873 C874 1.351 . S
C874 C868 1.428 . S
C874 N873 1.351 . S
C874 C875 1.434 . S
C875 C866 1.429 . S
C875 N872 1.350 . S
C875 C874 1.434 . S
C876 C877 1.369 . S
C876 C878 1.419 . S
C876 H880 0.930 . S
C877 C876 1.369 . S
C877 C886 1.429 . S
C878 C876 1.419 . S
C878 C879 1.363 . S
C878 H881 0.929 . S
C879 C878 1.363 . S
C879 C885 1.428 . S
H880 C876 0.930 . S
H881 C878 0.929 . S
S882 N883 1.613 . S
S882 N884 1.610 . S
N883 S882 1.613 . S
N883 C886 1.350 . S
N884 S882 1.610 . S
N884 C885 1.351 . S
C885 C879 1.428 . S
C885 N884 1.351 . S
C885 C886 1.434 . S
C886 C877 1.429 . S
C886 N883 1.350 . S
C886 C885 1.434 . S
C887 C888 1.369 . S
C887 C889 1.419 . S
C887 H891 0.930 . S
C888 C887 1.369 . S
C888 C897 1.429 . S
C889 C887 1.419 . S
C889 C890 1.363 . S
C889 H892 0.929 . S
C890 C889 1.363 . S
C890 C896 1.428 . S
H891 C887 0.930 . S
H892 C889 0.929 . S
S893 N894 1.613 . S
S893 N895 1.610 . S
N894 S893 1.613 . S
N894 C897 1.350 . S
N895 S893 1.610 . S
N895 C896 1.351 . S
C896 C890 1.428 . S
C896 N895 1.351 . S
C896 C897 1.434 . S
C897 C888 1.429 . S
C897 N894 1.350 . S
C897 C896 1.434 . S
C898 C899 1.369 . S
C898 C900 1.419 . S
C898 H902 0.930 . S
C899 C898 1.369 . S
C899 C908 1.429 . S
C900 C898 1.419 . S
C900 C901 1.363 . S
C900 H903 0.929 . S
C901 C900 1.363 . S
C901 C907 1.428 . S
H902 C898 0.930 . S
H903 C900 0.929 . S
S904 N905 1.613 . S
S904 N906 1.610 . S
N905 S904 1.613 . S
N905 C908 1.350 . S
N906 S904 1.610 . S
N906 C907 1.351 . S
C907 C901 1.428 . S
C907 N906 1.351 . S
C907 C908 1.434 . S
C908 C899 1.429 . S
C908 N905 1.350 . S
C908 C907 1.434 . S
C909 C910 1.369 . S
C909 C911 1.419 . S
C909 H913 0.930 . S
C910 C909 1.369 . S
C910 C919 1.429 . S
C911 C909 1.419 . S
C911 C912 1.363 . S
C911 H914 0.929 . S
C912 C911 1.363 . S
C912 C918 1.428 . S
H913 C909 0.930 . S
H914 C911 0.929 . S
S915 N916 1.613 . S
S915 N917 1.610 . S
N916 S915 1.613 . S
N916 C919 1.350 . S
N917 S915 1.610 . S
N917 C918 1.351 . S
C918 C912 1.428 . S
C918 N917 1.351 . S
C918 C919 1.434 . S
C919 C910 1.429 . S
C919 N916 1.350 . S
C919 C918 1.434 . S
C920 C921 1.369 . S
C920 C922 1.419 . S
C920 H924 0.930 . S
C921 C920 1.369 . S
C921 C930 1.429 . S
C922 C920 1.419 . S
C922 C923 1.363 . S
C922 H925 0.929 . S
C923 C922 1.363 . S
C923 C929 1.428 . S
H924 C920 0.930 . S
H925 C922 0.929 . S
S926 N927 1.613 . S
S926 N928 1.610 . S
N927 S926 1.613 . S
N927 C930 1.350 . S
N928 S926 1.610 . S
N928 C929 1.351 . S
C929 C923 1.428 . S
C929 N928 1.351 . S
C929 C930 1.434 . S
C930 C921 1.429 . S
C930 N927 1.350 . S
C930 C929 1.434 . S
C931 C932 1.369 . S
C931 C933 1.419 . S
C931 H935 0.930 . S
C932 C931 1.369 . S
C932 C941 1.429 . S
C933 C931 1.419 . S
C933 C934 1.363 . S
C933 H936 0.929 . S
C934 C933 1.363 . S
C934 C940 1.428 . S
H935 C931 0.930 . S
H936 C933 0.929 . S
S937 N938 1.613 . S
S937 N939 1.610 . S
N938 S937 1.613 . S
N938 C941 1.350 . S
N939 S937 1.610 . S
N939 C940 1.351 . S
C940 C934 1.428 . S
C940 N939 1.351 . S
C940 C941 1.434 . S
C941 C932 1.429 . S
C941 N938 1.350 . S
C941 C940 1.434 . S
C942 C943 1.369 . S
C942 C944 1.419 . S
C942 H946 0.930 . S
C943 C942 1.369 . S
C943 C952 1.429 . S
C944 C942 1.419 . S
C944 C945 1.363 . S
C944 H947 0.929 . S
C945 C944 1.363 . S
C945 C951 1.428 . S
H946 C942 0.930 . S
H947 C944 0.929 . S
S948 N949 1.613 . S
S948 N950 1.610 . S
N949 S948 1.613 . S
N949 C952 1.350 . S
N950 S948 1.610 . S
N950 C951 1.351 . S
C951 C945 1.428 . S
C951 N950 1.351 . S
C951 C952 1.434 . S
C952 C943 1.429 . S
C952 N949 1.350 . S
C952 C951 1.434 . S
C953 C954 1.369 . S
C953 C955 1.419 . S
C953 H957 0.930 . S
C954 C953 1.369 . S
C954 C963 1.429 . S
C955 C953 1.419 . S
C955 C956 1.363 . S
C955 H958 0.929 . S
C956 C955 1.363 . S
C956 C962 1.428 . S
H957 C953 0.930 . S
H958 C955 0.929 . S
S959 N960 1.613 . S
S959 N961 1.610 . S
N960 S959 1.613 . S
N960 C963 1.350 . S
N961 S959 1.610 . S
N961 C962 1.351 . S
C962 C956 1.428 . S
C962 N961 1.351 . S
C962 C963 1.434 . S
C963 C954 1.429 . S
C963 N960 1.350 . S
C963 C962 1.434 . S
C439 C295 1.832 . S
C437 N2 1.999 . S
C450 C297 1.877 . S
C448 C7 1.867 . S
C461 C324 1.730 . S
C459 N12 1.717 . S
C470 C16 2.097 . S
C472 C345 2.125 . S
C483 C365 2.022 . S
C481 C30 2.010 . S
C494 C395 1.580 . S
C492 N35 1.628 . S
C503 C39 2.041 . S
C505 C397 2.038 . S
C516 C435 1.749 . S
C514 N25 1.761 . S
C527 C277 1.377 . S
C525 N58 1.308 . S
C536 N81 1.225 . S
C538 C302 1.251 . S
C549 C332 1.094 . S
C547 N104 1.088 . S
C558 N127 1.683 . S
C560 C344 1.581 . S
C571 C364 1.046 . S
C569 N48 1.169 . S
C582 C377 1.590 . S
C580 N71 1.594 . S
C591 N94 0.754 . S
C593 C402 0.755 . S
C604 C417 1.701 . S
C602 N117 1.684 . S
C613 C85 1.677 . S
C615 C282 1.627 . S
C624 C122 1.665 . S
C626 C372 1.597 . S
C635 C53 1.559 . S
C637 C382 1.525 . S
C648 C415 1.568 . S
C646 C76 1.671 . S
C659 C422 1.567 . S
C657 C99 1.607 . S
C670 C325 1.916 . S
C668 C131 1.884 . S
C681 C352 1.161 . S
C679 C62 1.203 . S
C690 C108 1.078 . S
C692 C315 1.058 . S
C703 C424 1.921 . S
C701 N140 2.087 . S
C712 C145 1.973 . S
C714 C357 1.982 . S
C725 C384 1.646 . S
C723 N150 1.632 . S
C734 C154 1.980 . S
C736 C405 2.003 . S
C747 C305 1.897 . S
C745 C168 1.877 . S
C756 N173 1.542 . S
C758 C335 1.572 . S
C769 C337 2.140 . S
C767 C177 2.150 . S
C780 C284 1.787 . S
C778 N163 1.845 . S
C791 C432 1.454 . S
C789 C200 1.527 . S
C802 C362 1.622 . S
C800 N219 1.618 . S
C811 N242 1.265 . S
C813 C392 1.292 . S
C824 C404 1.562 . S
C822 C269 1.719 . S
C835 C304 0.962 . S
C833 C191 1.015 . S
C844 N209 1.790 . S
C846 C317 1.809 . S
C855 N232 1.206 . S
C857 C342 1.136 . S
C866 C260 1.800 . S
C868 C292 1.711 . S
C877 C223 1.749 . S
C879 C425 1.786 . S
C888 N255 1.137 . S
C890 C312 1.198 . S
C899 N186 1.241 . S
C901 C322 1.252 . S
C912 C355 1.586 . S
C910 C214 1.705 . S
C923 C285 1.642 . S
C921 C237 1.636 . S
C934 C385 1.517 . S
C932 N265 1.466 . S
C945 C412 0.843 . S
C943 N196 0.809 . S
C956 C375 1.043 . S
C954 C246 1.074 . S
