# Generated by pormake.
# Topology gar, (4,6)-cn, num edge types: 1
# Building blocks:
#     Node 0, Type 0, BuildingBlock: QUQFOY_clean_sbu_1, # of connection points: 4
#     Node 1, Type 0, BuildingBlock: QUQFOY_clean_sbu_1, # of connection points: 4
#     Node 2, Type 0, BuildingBlock: QUQFOY_clean_sbu_1, # of connection points: 4
#     Node 3, Type 0, BuildingBlock: QUQFOY_clean_sbu_1, # of connection points: 4
#     Node 4, Type 0, BuildingBlock: QUQFOY_clean_sbu_1, # of connection points: 4
#     Node 5, Type 0, BuildingBlock: QUQFOY_clean_sbu_1, # of connection points: 4
#     Node 6, Type 0, BuildingBlock: QUQFOY_clean_sbu_1, # of connection points: 4
#     Node 7, Type 0, BuildingBlock: QUQFOY_clean_sbu_1, # of connection points: 4
#     Node 8, Type 0, BuildingBlock: QUQFOY_clean_sbu_1, # of connection points: 4
#     Node 9, Type 0, BuildingBlock: QUQFOY_clean_sbu_1, # of connection points: 4
#     Node 10, Type 0, BuildingBlock: QUQFOY_clean_sbu_1, # of connection points: 4
#     Node 11, Type 0, BuildingBlock: QUQFOY_clean_sbu_1, # of connection points: 4
#     Node 12, Type 0, BuildingBlock: QUQFOY_clean_sbu_1, # of connection points: 4
#     Node 13, Type 0, BuildingBlock: QUQFOY_clean_sbu_1, # of connection points: 4
#     Node 14, Type 0, BuildingBlock: QUQFOY_clean_sbu_1, # of connection points: 4
#     Node 15, Type 0, BuildingBlock: QUQFOY_clean_sbu_1, # of connection points: 4
#     Node 16, Type 0, BuildingBlock: QUQFOY_clean_sbu_1, # of connection points: 4
#     Node 17, Type 0, BuildingBlock: QUQFOY_clean_sbu_1, # of connection points: 4
#     Node 18, Type 0, BuildingBlock: QUQFOY_clean_sbu_1, # of connection points: 4
#     Node 19, Type 0, BuildingBlock: QUQFOY_clean_sbu_1, # of connection points: 4
#     Node 20, Type 0, BuildingBlock: QUQFOY_clean_sbu_1, # of connection points: 4
#     Node 21, Type 0, BuildingBlock: QUQFOY_clean_sbu_1, # of connection points: 4
#     Node 22, Type 0, BuildingBlock: QUQFOY_clean_sbu_1, # of connection points: 4
#     Node 23, Type 0, BuildingBlock: QUQFOY_clean_sbu_1, # of connection points: 4
#     Node 24, Type 1, BuildingBlock: KUMBUR_clean_sbu_1, # of connection points: 6
#     Node 25, Type 1, BuildingBlock: KUMBUR_clean_sbu_1, # of connection points: 6
#     Node 26, Type 1, BuildingBlock: KUMBUR_clean_sbu_1, # of connection points: 6
#     Node 27, Type 1, BuildingBlock: KUMBUR_clean_sbu_1, # of connection points: 6
#     Node 28, Type 1, BuildingBlock: KUMBUR_clean_sbu_1, # of connection points: 6
#     Node 29, Type 1, BuildingBlock: KUMBUR_clean_sbu_1, # of connection points: 6
#     Node 30, Type 1, BuildingBlock: KUMBUR_clean_sbu_1, # of connection points: 6
#     Node 31, Type 1, BuildingBlock: KUMBUR_clean_sbu_1, # of connection points: 6
#     Node 32, Type 1, BuildingBlock: KUMBUR_clean_sbu_1, # of connection points: 6
#     Node 33, Type 1, BuildingBlock: KUMBUR_clean_sbu_1, # of connection points: 6
#     Node 34, Type 1, BuildingBlock: KUMBUR_clean_sbu_1, # of connection points: 6
#     Node 35, Type 1, BuildingBlock: KUMBUR_clean_sbu_1, # of connection points: 6
#     Node 36, Type 1, BuildingBlock: KUMBUR_clean_sbu_1, # of connection points: 6
#     Node 37, Type 1, BuildingBlock: KUMBUR_clean_sbu_1, # of connection points: 6
#     Node 38, Type 1, BuildingBlock: KUMBUR_clean_sbu_1, # of connection points: 6
#     Node 39, Type 1, BuildingBlock: KUMBUR_clean_sbu_1, # of connection points: 6
#     Edge 40, Type (0, 1), BuildingBlock: ZUJKAS_clean_linker_0, # of connection points: 2
#     Edge 41, Type (0, 1), BuildingBlock: ZUJKAS_clean_linker_0, # of connection points: 2
#     Edge 42, Type (0, 1), BuildingBlock: ZUJKAS_clean_linker_0, # of connection points: 2
#     Edge 43, Type (0, 1), BuildingBlock: ZUJKAS_clean_linker_0, # of connection points: 2
#     Edge 44, Type (0, 1), BuildingBlock: ZUJKAS_clean_linker_0, # of connection points: 2
#     Edge 45, Type (0, 1), BuildingBlock: ZUJKAS_clean_linker_0, # of connection points: 2
#     Edge 46, Type (0, 1), BuildingBlock: ZUJKAS_clean_linker_0, # of connection points: 2
#     Edge 47, Type (0, 1), BuildingBlock: ZUJKAS_clean_linker_0, # of connection points: 2
#     Edge 48, Type (0, 1), BuildingBlock: ZUJKAS_clean_linker_0, # of connection points: 2
#     Edge 49, Type (0, 1), BuildingBlock: ZUJKAS_clean_linker_0, # of connection points: 2
#     Edge 50, Type (0, 1), BuildingBlock: ZUJKAS_clean_linker_0, # of connection points: 2
#     Edge 51, Type (0, 1), BuildingBlock: ZUJKAS_clean_linker_0, # of connection points: 2
#     Edge 52, Type (0, 1), BuildingBlock: ZUJKAS_clean_linker_0, # of connection points: 2
#     Edge 53, Type (0, 1), BuildingBlock: ZUJKAS_clean_linker_0, # of connection points: 2
#     Edge 54, Type (0, 1), BuildingBlock: ZUJKAS_clean_linker_0, # of connection points: 2
#     Edge 55, Type (0, 1), BuildingBlock: ZUJKAS_clean_linker_0, # of connection points: 2
#     Edge 56, Type (0, 1), BuildingBlock: ZUJKAS_clean_linker_0, # of connection points: 2
#     Edge 57, Type (0, 1), BuildingBlock: ZUJKAS_clean_linker_0, # of connection points: 2
#     Edge 58, Type (0, 1), BuildingBlock: ZUJKAS_clean_linker_0, # of connection points: 2
#     Edge 59, Type (0, 1), BuildingBlock: ZUJKAS_clean_linker_0, # of connection points: 2
#     Edge 60, Type (0, 1), BuildingBlock: ZUJKAS_clean_linker_0, # of connection points: 2
#     Edge 61, Type (0, 1), BuildingBlock: ZUJKAS_clean_linker_0, # of connection points: 2
#     Edge 62, Type (0, 1), BuildingBlock: ZUJKAS_clean_linker_0, # of connection points: 2
#     Edge 63, Type (0, 1), BuildingBlock: ZUJKAS_clean_linker_0, # of connection points: 2
#     Edge 64, Type (0, 1), BuildingBlock: ZUJKAS_clean_linker_0, # of connection points: 2
#     Edge 65, Type (0, 1), BuildingBlock: ZUJKAS_clean_linker_0, # of connection points: 2
#     Edge 66, Type (0, 1), BuildingBlock: ZUJKAS_clean_linker_0, # of connection points: 2
#     Edge 67, Type (0, 1), BuildingBlock: ZUJKAS_clean_linker_0, # of connection points: 2
#     Edge 68, Type (0, 1), BuildingBlock: ZUJKAS_clean_linker_0, # of connection points: 2
#     Edge 69, Type (0, 1), BuildingBlock: ZUJKAS_clean_linker_0, # of connection points: 2
#     Edge 70, Type (0, 1), BuildingBlock: ZUJKAS_clean_linker_0, # of connection points: 2
#     Edge 71, Type (0, 1), BuildingBlock: ZUJKAS_clean_linker_0, # of connection points: 2
#     Edge 72, Type (0, 1), BuildingBlock: ZUJKAS_clean_linker_0, # of connection points: 2
#     Edge 73, Type (0, 1), BuildingBlock: ZUJKAS_clean_linker_0, # of connection points: 2
#     Edge 74, Type (0, 1), BuildingBlock: ZUJKAS_clean_linker_0, # of connection points: 2
#     Edge 75, Type (0, 1), BuildingBlock: ZUJKAS_clean_linker_0, # of connection points: 2
#     Edge 76, Type (0, 1), BuildingBlock: ZUJKAS_clean_linker_0, # of connection points: 2
#     Edge 77, Type (0, 1), BuildingBlock: ZUJKAS_clean_linker_0, # of connection points: 2
#     Edge 78, Type (0, 1), BuildingBlock: ZUJKAS_clean_linker_0, # of connection points: 2
#     Edge 79, Type (0, 1), BuildingBlock: ZUJKAS_clean_linker_0, # of connection points: 2
#     Edge 80, Type (0, 1), BuildingBlock: ZUJKAS_clean_linker_0, # of connection points: 2
#     Edge 81, Type (0, 1), BuildingBlock: ZUJKAS_clean_linker_0, # of connection points: 2
#     Edge 82, Type (0, 1), BuildingBlock: ZUJKAS_clean_linker_0, # of connection points: 2
#     Edge 83, Type (0, 1), BuildingBlock: ZUJKAS_clean_linker_0, # of connection points: 2
#     Edge 84, Type (0, 1), BuildingBlock: ZUJKAS_clean_linker_0, # of connection points: 2
#     Edge 85, Type (0, 1), BuildingBlock: ZUJKAS_clean_linker_0, # of connection points: 2
#     Edge 86, Type (0, 1), BuildingBlock: ZUJKAS_clean_linker_0, # of connection points: 2
#     Edge 87, Type (0, 1), BuildingBlock: ZUJKAS_clean_linker_0, # of connection points: 2
#     Edge 88, Type (0, 1), BuildingBlock: ZUJKAS_clean_linker_0, # of connection points: 2
#     Edge 89, Type (0, 1), BuildingBlock: ZUJKAS_clean_linker_0, # of connection points: 2
#     Edge 90, Type (0, 1), BuildingBlock: ZUJKAS_clean_linker_0, # of connection points: 2
#     Edge 91, Type (0, 1), BuildingBlock: ZUJKAS_clean_linker_0, # of connection points: 2
#     Edge 92, Type (0, 1), BuildingBlock: ZUJKAS_clean_linker_0, # of connection points: 2
#     Edge 93, Type (0, 1), BuildingBlock: ZUJKAS_clean_linker_0, # of connection points: 2
#     Edge 94, Type (0, 1), BuildingBlock: ZUJKAS_clean_linker_0, # of connection points: 2
#     Edge 95, Type (0, 1), BuildingBlock: ZUJKAS_clean_linker_0, # of connection points: 2
#     Edge 96, Type (0, 1), BuildingBlock: ZUJKAS_clean_linker_0, # of connection points: 2
#     Edge 97, Type (0, 1), BuildingBlock: ZUJKAS_clean_linker_0, # of connection points: 2
#     Edge 98, Type (0, 1), BuildingBlock: ZUJKAS_clean_linker_0, # of connection points: 2
#     Edge 99, Type (0, 1), BuildingBlock: ZUJKAS_clean_linker_0, # of connection points: 2
#     Edge 100, Type (0, 1), BuildingBlock: ZUJKAS_clean_linker_0, # of connection points: 2
#     Edge 101, Type (0, 1), BuildingBlock: ZUJKAS_clean_linker_0, # of connection points: 2
#     Edge 102, Type (0, 1), BuildingBlock: ZUJKAS_clean_linker_0, # of connection points: 2
#     Edge 103, Type (0, 1), BuildingBlock: ZUJKAS_clean_linker_0, # of connection points: 2
#     Edge 104, Type (0, 1), BuildingBlock: ZUJKAS_clean_linker_0, # of connection points: 2
#     Edge 105, Type (0, 1), BuildingBlock: ZUJKAS_clean_linker_0, # of connection points: 2
#     Edge 106, Type (0, 1), BuildingBlock: ZUJKAS_clean_linker_0, # of connection points: 2
#     Edge 107, Type (0, 1), BuildingBlock: ZUJKAS_clean_linker_0, # of connection points: 2
#     Edge 108, Type (0, 1), BuildingBlock: ZUJKAS_clean_linker_0, # of connection points: 2
#     Edge 109, Type (0, 1), BuildingBlock: ZUJKAS_clean_linker_0, # of connection points: 2
#     Edge 110, Type (0, 1), BuildingBlock: ZUJKAS_clean_linker_0, # of connection points: 2
#     Edge 111, Type (0, 1), BuildingBlock: ZUJKAS_clean_linker_0, # of connection points: 2
#     Edge 112, Type (0, 1), BuildingBlock: ZUJKAS_clean_linker_0, # of connection points: 2
#     Edge 113, Type (0, 1), BuildingBlock: ZUJKAS_clean_linker_0, # of connection points: 2
#     Edge 114, Type (0, 1), BuildingBlock: ZUJKAS_clean_linker_0, # of connection points: 2
#     Edge 115, Type (0, 1), BuildingBlock: ZUJKAS_clean_linker_0, # of connection points: 2
#     Edge 116, Type (0, 1), BuildingBlock: ZUJKAS_clean_linker_0, # of connection points: 2
#     Edge 117, Type (0, 1), BuildingBlock: ZUJKAS_clean_linker_0, # of connection points: 2
#     Edge 118, Type (0, 1), BuildingBlock: ZUJKAS_clean_linker_0, # of connection points: 2
#     Edge 119, Type (0, 1), BuildingBlock: ZUJKAS_clean_linker_0, # of connection points: 2
#     Edge 120, Type (0, 1), BuildingBlock: ZUJKAS_clean_linker_0, # of connection points: 2
#     Edge 121, Type (0, 1), BuildingBlock: ZUJKAS_clean_linker_0, # of connection points: 2
#     Edge 122, Type (0, 1), BuildingBlock: ZUJKAS_clean_linker_0, # of connection points: 2
#     Edge 123, Type (0, 1), BuildingBlock: ZUJKAS_clean_linker_0, # of connection points: 2
#     Edge 124, Type (0, 1), BuildingBlock: ZUJKAS_clean_linker_0, # of connection points: 2
#     Edge 125, Type (0, 1), BuildingBlock: ZUJKAS_clean_linker_0, # of connection points: 2
#     Edge 126, Type (0, 1), BuildingBlock: ZUJKAS_clean_linker_0, # of connection points: 2
#     Edge 127, Type (0, 1), BuildingBlock: ZUJKAS_clean_linker_0, # of connection points: 2
#     Edge 128, Type (0, 1), BuildingBlock: ZUJKAS_clean_linker_0, # of connection points: 2
#     Edge 129, Type (0, 1), BuildingBlock: ZUJKAS_clean_linker_0, # of connection points: 2
#     Edge 130, Type (0, 1), BuildingBlock: ZUJKAS_clean_linker_0, # of connection points: 2
#     Edge 131, Type (0, 1), BuildingBlock: ZUJKAS_clean_linker_0, # of connection points: 2
#     Edge 132, Type (0, 1), BuildingBlock: ZUJKAS_clean_linker_0, # of connection points: 2
#     Edge 133, Type (0, 1), BuildingBlock: ZUJKAS_clean_linker_0, # of connection points: 2
#     Edge 134, Type (0, 1), BuildingBlock: ZUJKAS_clean_linker_0, # of connection points: 2
#     Edge 135, Type (0, 1), BuildingBlock: ZUJKAS_clean_linker_0, # of connection points: 2
# Relax obj value: 0.077
# Max RMSD: 0.182
# Mean RMSD: 0.141
data_MOF--net-gar--node1-QUQFOY_clean_sbu_1--node2-KUMBUR_clean_sbu_1--edge1-ZUJKAS_clean_linker_0
_symmetry_space_group_name_H-M    P1
_symmetry_Int_Tables_number       1
_symmetry_cell_setting            triclinic
loop_
_symmetry_equiv_pos_as_xyz
'x, y, z'
_cell_length_a     76.981827
_cell_length_b     76.894201
_cell_length_c     73.072774
_cell_angle_alpha  95.802425
_cell_angle_beta   95.84041
_cell_angle_gamma 102.29736
loop_
_atom_site_label
_atom_site_type_symbol
_atom_site_fract_x
_atom_site_fract_y
_atom_site_fract_z
_atom_type_partial_charge
O0 O 0.04647 0.27578 0.38124 0.0
Cd1 Cd 0.04754 0.29096 0.35913 0.0
Cd2 Cd 0.03414 0.31441 0.39208 0.0
O3 O 0.0397 0.29252 0.40502 0.0
O4 O 0.06166 0.27795 0.34185 0.0
O5 O 0.07239 0.30572 0.35453 0.0
C6 C 0.07494 0.29177 0.34466 0.0
C7 C 0.0373 0.34272 0.41084 0.0
C8 C 0.04372 0.27816 0.39813 0.0
C9 C 1.0096 0.30015 0.35386 0.0
O10 O 0.01303 0.3087 0.37021 0.0
O11 O 0.0213 0.29272 0.34674 0.0
O12 O 0.02431 0.32921 0.41144 0.0
O13 O 0.04896 0.34024 0.39993 0.0
O14 O 1.01036 0.72684 0.69153 0.0
Cd15 Cd 0.01299 0.74999 0.7104 0.0
Cd16 Cd 0.02652 0.7656 0.68029 0.0
O17 O 0.01569 0.7401 0.66647 0.0
O18 O 0.99401 0.7465 0.72887 0.0
O19 O 0.99234 0.76339 0.70661 0.0
C20 C 0.98511 0.75631 0.72015 0.0
C21 C 0.02528 0.79089 0.66483 0.0
C22 C 1.0115 0.72591 0.67415 0.0
C23 C 0.05399 0.76474 0.71328 0.0
O24 O 0.05054 0.76783 0.6967 0.0
O25 O 0.04095 0.7591 0.7225 0.0
O26 O 0.03508 0.77994 0.66026 0.0
O27 O 0.01552 0.78723 0.67789 0.0
O28 O 0.57626 0.80087 0.87323 0.0
Cd29 Cd 0.55838 0.8011 0.89285 0.0
Cd30 Cd 0.53926 0.81528 0.8601 0.0
O31 O 0.56313 0.81006 0.84867 0.0
O32 O 0.56853 0.78796 0.91241 0.0
O33 O 0.54199 0.77735 0.89614 0.0
C34 C 0.55436 0.77518 0.90846 0.0
C35 C 0.50856 0.80776 0.84465 0.0
C36 C 0.57633 0.80454 0.85661 0.0
C37 C 0.54861 0.8379 0.89945 0.0
O38 O 0.54259 0.83607 0.88224 0.0
O39 O 0.55515 0.82563 0.90622 0.0
O40 O 0.52048 0.821 0.84084 0.0
O41 O 0.51424 0.79784 0.85613 0.0
O42 O 0.5128 0.21839 0.18691 0.0
Cd43 Cd 0.51593 0.24128 0.20697 0.0
Cd44 Cd 0.53394 0.25808 0.17938 0.0
O45 O 0.52457 0.23281 0.16478 0.0
O46 O 0.49626 0.23742 0.22477 0.0
O47 O 0.49608 0.25591 0.20394 0.0
C48 C 0.48817 0.24829 0.21681 0.0
C49 C 0.53173 0.28374 0.16494 0.0
C50 C 0.51742 0.2182 0.17055 0.0
C51 C 0.55797 0.25576 0.21375 0.0
O52 O 0.5568 0.2599 0.19736 0.0
O53 O 0.5436 0.24951 0.22088 0.0
O54 O 0.54206 0.27348 0.1599 0.0
O55 O 0.52231 0.27933 0.1781 0.0
O56 O 0.04917 0.76294 0.12193 0.0
Cd57 Cd 0.04931 0.78659 0.13799 0.0
Cd58 Cd 0.06442 0.80107 0.10842 0.0
O59 O 0.0565 0.77306 0.09581 0.0
O60 O 0.03408 0.77831 0.15745 0.0
O61 O 0.02723 0.79703 0.13845 0.0
C62 C 0.02322 0.78786 0.1519 0.0
C63 C 0.05821 0.82862 0.09756 0.0
C64 C 0.05212 0.75984 0.10524 0.0
C65 C 0.08819 0.80313 0.14559 0.0
O66 O 0.08722 0.80476 0.12831 0.0
O67 O 0.07396 0.79803 0.15289 0.0
O68 O 0.07047 0.82116 0.09161 0.0
O69 O 0.04863 0.82005 0.10878 0.0
O70 O 0.5404 0.76801 0.43686 0.0
Cd71 Cd 0.52476 0.76787 0.45871 0.0
Cd72 Cd 0.5027 0.78138 0.42489 0.0
O73 O 0.52498 0.77618 0.41302 0.0
O74 O 0.53693 0.75423 0.47724 0.0
O75 O 0.51001 0.74284 0.46261 0.0
C76 C 0.52345 0.74062 0.47355 0.0
C77 C 0.47462 0.77782 0.40579 0.0
C78 C 0.53881 0.77139 0.4201 0.0
C79 C 0.51569 0.8061 0.46285 0.0
O80 O 0.50812 0.80254 0.44613 0.0
O81 O 0.52237 0.79427 0.4707 0.0
O82 O 0.48829 0.79042 0.40455 0.0
O83 O 0.47688 0.76676 0.41753 0.0
O84 O 0.5545 0.25814 0.61769 0.0
Cd85 Cd 0.55697 0.28008 0.63704 0.0
Cd86 Cd 0.57507 0.29938 0.61124 0.0
O87 O 0.56856 0.27204 0.59642 0.0
O88 O 0.54027 0.27067 0.65483 0.0
O89 O 0.53689 0.29323 0.6395 0.0
C90 C 0.53116 0.28237 0.65106 0.0
C91 C 0.56849 0.32712 0.60095 0.0
C92 C 0.56058 0.25745 0.6022 0.0
C93 C 0.59649 0.29605 0.64822 0.0
O94 O 0.59659 0.30273 0.63289 0.0
O95 O 0.58192 0.28719 0.65264 0.0
O96 O 0.58166 0.32063 0.59582 0.0
O97 O 0.55839 0.31758 0.61107 0.0
O98 O 0.01431 0.23887 0.94474 0.0
Cd99 Cd 0.01431 0.25696 0.92525 0.0
Cd100 Cd 0.99936 0.27557 0.9573 0.0
O101 O 1.00428 0.25171 0.96887 0.0
O102 O 0.02808 0.24738 0.90602 0.0
O103 O 0.03821 0.27366 0.92292 0.0
C104 C 0.04078 0.26155 0.91055 0.0
C105 C 1.00678 0.30609 0.97288 0.0
C106 C 1.01017 0.23866 0.96118 0.0
C107 C 0.97747 0.26643 0.91777 0.0
O108 O 0.97892 0.27249 0.9349 0.0
O109 O 0.98989 0.25996 0.91128 0.0
O110 O 0.99318 0.29429 0.97614 0.0
O111 O 0.01709 0.30038 0.96191 0.0
O112 O 0.39362 0.02069 0.28209 0.0
Cd113 Cd 0.38182 0.02409 0.30568 0.0
Cd114 Cd 0.41059 0.02122 0.31778 0.0
O115 O 0.41997 0.03417 0.29681 0.0
O116 O 0.36193 0.03413 0.29707 0.0
O117 O 0.38511 0.04894 0.31773 0.0
C118 C 0.37059 0.04878 0.30712 0.0
C119 C 0.41978 0.02895 0.34804 0.0
C120 C 0.40977 0.0286 0.28171 0.0
C121 C 0.38128 0.99044 0.31493 0.0
O122 O 0.39709 0.99514 0.31097 0.0
O123 O 0.37227 1.00215 0.31786 0.0
O124 O 0.42929 0.02135 0.33755 0.0
O125 O 0.40556 0.03345 0.34097 0.0
O126 O 0.28306 0.17612 0.55084 0.0
Cd127 Cd 0.28278 0.16065 0.52608 0.0
Cd128 Cd 0.27133 0.18854 0.51325 0.0
O129 O 0.28133 0.20169 0.54042 0.0
O130 O 0.29472 0.14193 0.53479 0.0
O131 O 0.30566 0.15993 0.51499 0.0
C132 C 0.30722 0.14719 0.52484 0.0
C133 C 0.27736 0.19868 0.48426 0.0
C134 C 0.2832 0.1927 0.55401 0.0
C135 C 0.24465 0.15333 0.51189 0.0
O136 O 0.24703 0.17028 0.51233 0.0
O137 O 0.25795 0.14614 0.51434 0.0
O138 O 0.26806 0.20621 0.49504 0.0
O139 O 0.28419 0.18605 0.49033 0.0
O140 O 0.1307 0.02896 0.76205 0.0
Cd141 Cd 0.14889 0.03195 0.78549 0.0
Cd142 Cd 0.12359 0.04739 0.80089 0.0
O143 O 0.10968 0.04036 0.77396 0.0
O144 O 0.16545 0.01776 0.77573 0.0
O145 O 0.15114 0.01118 0.7998 0.0
C146 C 0.1618 1.00741 0.78824 0.0
C147 C 0.11216 0.04094 0.82899 0.0
C148 C 0.11573 0.03341 0.76005 0.0
C149 C 0.15978 0.07125 0.79947 0.0
O150 O 0.1438 0.07015 0.80312 0.0
O151 O 0.16483 0.05732 0.79331 0.0
O152 O 0.10669 0.05222 0.81917 0.0
O153 O 0.12348 0.03251 0.82242 0.0
O154 O 0.28935 0.9275 0.03284 0.0
Cd155 Cd 0.28751 0.93926 0.00883 0.0
Cd156 Cd 0.28895 0.90979 0.99647 0.0
O157 O 0.27552 0.9015 0.01735 0.0
O158 O 0.27518 0.95873 0.01202 0.0
O159 O 0.26367 0.9324 0.99441 0.0
C160 C 0.26192 0.94793 0.00151 0.0
C161 C 0.28398 0.89593 0.96715 0.0
C162 C 0.28124 0.91125 0.03269 0.0
C163 C 0.32083 0.93731 0.99931 0.0
O164 O 0.31525 0.92166 0.00335 0.0
O165 O 0.30987 0.94718 0.99666 0.0
O166 O 0.29036 0.88854 0.98059 0.0
O167 O 0.27863 0.9106 0.97074 0.0
O168 O 0.29168 0.38534 0.07724 0.0
Cd169 Cd 0.29441 0.4043 0.05914 0.0
Cd170 Cd 0.30558 0.37582 0.03726 0.0
O171 O 0.29957 0.36308 0.06079 0.0
O172 O 0.28161 0.42232 0.0696 0.0
O173 O 0.2722 0.40567 0.04253 0.0
C174 C 0.26967 0.4175 0.05525 0.0
C175 C 0.29886 0.36051 0.00666 0.0
C176 C 0.29432 0.36954 0.0755 0.0
C177 C 0.3319 0.41226 0.04836 0.0
O178 O 0.32837 0.39629 0.04018 0.0
O179 O 0.32024 0.41828 0.0567 0.0
O180 O 0.31131 0.35765 0.01838 0.0
O181 O 0.28934 0.37134 0.01259 0.0
O182 O 0.76801 0.13099 0.08042 0.0
Cd183 Cd 0.7685 0.11713 0.05544 0.0
Cd184 Cd 0.76863 0.14657 0.04586 0.0
O185 O 0.78436 0.15419 0.07039 0.0
O186 O 0.78175 0.0986 0.05861 0.0
O187 O 0.79137 0.12378 0.0461 0.0
C188 C 0.79433 0.10929 0.05206 0.0
C189 C 0.77541 0.15773 0.01943 0.0
C190 C 0.7782 0.14651 0.08365 0.0
C191 C 0.73554 0.12032 0.04024 0.0
O192 O 0.74222 0.13653 0.04676 0.0
O193 O 0.74561 0.10947 0.03799 0.0
O194 O 0.77075 0.1676 0.03257 0.0
O195 O 0.77686 0.14163 0.02167 0.0
O196 O 0.18665 0.54346 0.24127 0.0
Cd197 Cd 0.20242 0.54407 0.26545 0.0
Cd198 Cd 0.1737 0.54468 0.27812 0.0
O199 O 0.16364 0.52951 0.25359 0.0
O200 O 0.21948 0.529 0.2624 0.0
O201 O 0.19565 0.5228 0.27786 0.0
C202 C 0.20909 0.51809 0.27114 0.0
C203 C 0.15906 0.54081 0.3036 0.0
C204 C 0.17053 0.53469 0.2395 0.0
C205 C 0.20126 0.57805 0.2801 0.0
O206 O 0.18468 0.57087 0.2772 0.0
O207 O 0.21269 0.56844 0.27966 0.0
O208 O 0.15204 0.54666 0.28939 0.0
O209 O 0.17415 0.53616 0.30289 0.0
O210 O 0.79648 0.88876 0.57963 0.0
Cd211 Cd 0.79688 0.90402 0.55834 0.0
Cd212 Cd 0.80593 0.87525 0.54041 0.0
O213 O 0.79679 0.86316 0.5633 0.0
O214 O 0.78418 0.92243 0.56738 0.0
O215 O 0.7737 0.90282 0.54233 0.0
C216 C 0.77152 0.91572 0.55402 0.0
C217 C 0.79735 0.86173 0.50947 0.0
C218 C 0.79526 0.87198 0.57857 0.0
C219 C 0.83389 0.91033 0.5488 0.0
O220 O 0.83071 0.89339 0.54442 0.0
O221 O 0.82149 0.91779 0.55339 0.0
O222 O 0.8079 0.85571 0.52083 0.0
O223 O 0.79082 0.87492 0.51589 0.0
O224 O 0.92819 0.02073 0.23742 0.0
Cd225 Cd 0.91173 0.01809 0.25772 0.0
Cd226 Cd 0.94052 1.00751 0.27659 0.0
O227 O 0.95218 0.01484 0.25263 0.0
O228 O 0.89275 0.0308 0.25023 0.0
O229 O 0.91298 0.04045 0.27503 0.0
C230 C 0.89956 0.04278 0.26419 0.0
C231 C 0.95509 0.01598 0.30735 0.0
C232 C 0.94439 0.01938 0.23815 0.0
C233 C 0.9046 0.98073 0.26781 0.0
O234 O 0.92109 0.98383 0.27421 0.0
O235 O 0.89793 0.99274 0.26097 0.0
O236 O 0.9595 1.0041 0.2961 0.0
O237 O 0.94316 0.02406 0.30079 0.0
O238 O 0.27418 0.63201 0.57601 0.0
Cd239 Cd 0.27299 0.61615 0.55161 0.0
Cd240 Cd 0.27264 0.64471 0.54053 0.0
O241 O 0.28895 0.65509 0.5644 0.0
O242 O 0.2868 0.59817 0.55522 0.0
O243 O 0.29465 0.62187 0.53987 0.0
C244 C 0.29842 0.60812 0.54683 0.0
C245 C 0.27487 0.65647 0.51331 0.0
C246 C 0.28379 0.64786 0.57834 0.0
C247 C 0.23938 0.61808 0.53839 0.0
O248 O 0.2467 0.63441 0.54355 0.0
O249 O 0.24893 0.60672 0.53632 0.0
O250 O 0.26964 0.66479 0.52717 0.0
O251 O 0.28028 0.64193 0.51534 0.0
O252 O 0.42719 0.5209 0.74303 0.0
Cd253 Cd 0.41132 0.52113 0.76416 0.0
Cd254 Cd 0.44084 0.51108 0.78198 0.0
O255 O 0.45289 0.52076 0.75942 0.0
O256 O 0.39235 0.53293 0.75402 0.0
O257 O 0.41181 0.54505 0.7787 0.0
C258 C 0.39867 0.54627 0.76678 0.0
C259 C 0.45523 0.51718 0.81301 0.0
C260 C 0.44401 0.52212 0.74411 0.0
C261 C 0.4053 0.48387 0.77321 0.0
O262 O 0.42229 0.48668 0.77622 0.0
O263 O 0.39768 0.49667 0.77042 0.0
O264 O 0.45986 0.50639 0.80071 0.0
O265 O 0.44295 0.52532 0.80752 0.0
O266 O 0.68428 0.04395 0.73659 0.0
Cd267 Cd 0.69862 0.0438 0.76148 0.0
Cd268 Cd 0.66976 0.0453 0.77157 0.0
O269 O 0.66059 0.02943 0.74735 0.0
O270 O 0.71632 0.02967 0.75784 0.0
O271 O 0.69227 0.02162 0.77254 0.0
C272 C 0.70611 0.01784 0.76578 0.0
C273 C 0.65692 0.04085 0.79779 0.0
C274 C 0.66829 0.03479 0.73378 0.0
C275 C 0.69745 0.07781 0.77562 0.0
O276 O 0.68099 0.07135 0.77013 0.0
O277 O 0.70815 0.0675 0.77734 0.0
O278 O 0.64863 0.04631 0.78404 0.0
O279 O 0.6723 0.03705 0.79618 0.0
O280 O 0.78421 0.68334 0.05495 0.0
Cd281 Cd 0.7824 0.66543 0.03186 0.0
Cd282 Cd 0.76628 0.69041 0.01638 0.0
O283 O 0.77303 0.70466 0.0434 0.0
O284 O 0.79526 0.64816 0.04234 0.0
O285 O 0.80435 0.66321 0.01962 0.0
C286 C 0.80672 0.65181 0.0309 0.0
C287 C 0.77225 0.70206 0.98831 0.0
C288 C 0.77972 0.69828 0.05728 0.0
C289 C 0.74351 0.65339 0.01775 0.0
O290 O 0.74409 0.66917 0.01369 0.0
O291 O 0.75762 0.64895 0.02424 0.0
O292 O 0.75951 0.70563 0.99718 0.0
O293 O 0.78245 0.6927 0.99586 0.0
O294 O 0.89145 0.52587 0.78637 0.0
Cd295 Cd 0.87855 0.5281 0.80941 0.0
Cd296 Cd 0.90717 0.52592 0.82303 0.0
O297 O 0.91762 0.53823 0.80224 0.0
O298 O 0.8593 0.53908 0.80134 0.0
O299 O 0.88206 0.55205 0.82342 0.0
C300 C 0.86788 0.55289 0.81274 0.0
C301 C 0.91937 0.53115 0.85293 0.0
C302 C 0.90792 0.53316 0.78679 0.0
C303 C 0.87796 0.4945 0.8188 0.0
O304 O 0.89421 0.49979 0.81647 0.0
O305 O 0.8682 0.50571 0.82021 0.0
O306 O 0.92701 0.52369 0.84039 0.0
O307 O 0.90555 0.53747 0.84809 0.0
O308 O 0.79215 0.42566 0.53968 0.0
Cd309 Cd 0.79036 0.43724 0.51564 0.0
Cd310 Cd 0.79466 0.40863 0.50251 0.0
O311 O 0.78372 0.39861 0.52415 0.0
O312 O 0.77611 0.45507 0.51881 0.0
O313 O 0.76711 0.42913 0.49997 0.0
C314 C 0.76388 0.44387 0.50744 0.0
C315 C 0.78929 0.39433 0.47326 0.0
C316 C 0.78691 0.40882 0.53938 0.0
C317 C 0.82487 0.43889 0.50594 0.0
O318 O 0.82042 0.42244 0.50782 0.0
O319 O 0.81316 0.44818 0.50554 0.0
O320 O 0.79753 0.38807 0.48644 0.0
O321 O 0.78241 0.40796 0.47713 0.0
O322 O 0.63388 0.52618 0.26761 0.0
Cd323 Cd 0.65305 0.5299 0.2902 0.0
Cd324 Cd 0.62837 0.54588 0.30729 0.0
O325 O 0.61404 0.53894 0.28023 0.0
O326 O 0.66983 0.51647 0.27959 0.0
O327 O 0.65678 0.50919 0.30413 0.0
C328 C 0.66712 0.50585 0.29203 0.0
C329 C 0.61743 0.53974 0.33586 0.0
C330 C 0.61923 0.53126 0.2661 0.0
C331 C 0.66423 0.56951 0.30391 0.0
O332 O 0.64891 0.56845 0.30937 0.0
O333 O 0.6686 0.55563 0.29653 0.0
O334 O 0.61186 0.551 0.32606 0.0
O335 O 0.62848 0.53113 0.32901 0.0
Tb336 Tb 0.06063 0.04823 0.05209 0.0
C337 C 0.99658 0.98821 0.00994 0.0
N338 N 1.00716 1.0031 0.00495 0.0
C339 C 1.00597 0.98784 0.97436 0.0
C340 C 0.99041 0.97247 0.99726 0.0
C341 C 1.01171 1.00317 0.98734 0.0
C342 C 0.9953 0.97242 0.97933 0.0
C343 C 0.98031 0.9738 0.0332 0.0
C344 C 0.9916 0.98887 0.02778 0.0
C345 C 0.97429 0.95808 0.02063 0.0
C346 C 0.9793 0.95743 0.00272 0.0
Tb347 Tb 0.01209 0.02788 0.02637 0.0
N348 N 0.99761 1.00433 0.03966 0.0
C349 C 0.97505 0.97508 0.05096 0.0
C350 C 0.99133 1.00598 0.05641 0.0
C351 C 0.98042 0.99134 0.06253 0.0
H352 H 0.01882 0.01525 0.98282 0.0
H353 H 0.97561 0.9928 0.07589 0.0
H354 H 0.05346 0.05838 0.09621 0.0
H355 H 0.09711 0.08745 0.00529 0.0
H356 H 0.99347 0.01876 0.06454 0.0
H357 H 0.96633 0.96383 0.05561 0.0
H358 H 0.07871 0.06041 0.01459 0.0
H359 H 1.00942 0.98808 0.96038 0.0
H360 H 0.96556 0.9464 0.02455 0.0
H361 H 0.97436 0.94525 0.99313 0.0
H362 H 0.06155 0.08467 0.11984 0.0
H363 H 0.99068 0.96064 0.96914 0.0
H364 H 0.10663 0.11519 0.02752 0.0
N365 N 0.06537 0.07204 0.07501 0.0
C366 C 0.07588 0.0875 0.07111 0.0
C367 C 0.06543 0.08574 0.10609 0.0
C368 C 0.08142 0.10274 0.08456 0.0
C369 C 0.06041 0.07091 0.09239 0.0
C370 C 0.07593 0.10174 0.10216 0.0
N371 N 0.07598 0.07292 0.04105 0.0
C372 C 0.08182 0.07254 0.02404 0.0
C373 C 0.09268 0.10356 0.04921 0.0
C374 C 0.08151 0.08789 0.05366 0.0
C375 C 0.0981 0.10342 0.0315 0.0
C376 C 0.09266 0.08783 0.01888 0.0
H377 H 0.08 0.11312 0.1129 0.0
H378 H 0.09696 0.13017 0.09035 0.0
H379 H 0.10672 0.13091 0.05937 0.0
O380 O 0.08412 0.03968 0.04644 0.0
O381 O 0.04627 0.06898 0.04279 0.0
O382 O 0.02222 0.05539 0.0203 0.0
O383 O 0.08014 0.04931 0.07457 0.0
O384 O 0.05803 0.03361 0.02393 0.0
O385 O 0.03204 0.03803 0.00851 0.0
O386 O 0.98744 0.03322 0.03185 0.0
O387 O 0.02797 1.0076 0.03312 0.0
O388 O 0.04851 0.02104 0.05846 0.0
O389 O 0.99215 0.02563 0.00386 0.0
O390 O 0.01515 0.04385 0.05397 0.0
O391 O 0.0402 0.03774 0.06896 0.0
C392 C 0.03335 0.06979 0.02958 0.0
C393 C 0.10785 0.0403 0.07152 0.0
C394 C 0.13264 0.02616 0.06792 0.0
C395 C 0.13934 0.03163 0.08664 0.0
C396 C 0.11463 0.04595 0.09029 0.0
C397 C 0.13039 0.04166 0.09777 0.0
C398 C 0.11708 0.03063 0.06033 0.0
C399 C 0.04838 0.03543 0.00857 0.0
C400 C 0.09047 0.04306 0.06399 0.0
C401 C 0.09252 0.11837 0.08016 0.0
C402 C 0.09811 0.11878 0.06253 0.0
C403 C 0.03931 1.0065 0.04762 0.0
C404 C 0.96729 0.03877 0.00731 0.0
C405 C 0.94336 0.05354 0.01327 0.0
C406 C 0.93694 0.05071 0.99431 0.0
C407 C 0.96094 0.03604 0.98826 0.0
C408 C 0.95842 0.04761 0.01974 0.0
C409 C 0.94581 0.04201 0.98182 0.0
C410 C 0.02461 0.04179 0.0693 0.0
C411 C 0.98059 0.02933 0.01448 0.0
H412 H 0.15139 0.02806 0.09258 0.0
H413 H 0.10763 0.05338 0.09924 0.0
H414 H 0.1355 0.04587 0.11225 0.0
H415 H 0.11186 0.02599 0.04589 0.0
H416 H 0.92498 0.05498 0.98929 0.0
H417 H 0.96722 0.02868 0.97845 0.0
H418 H 0.96278 0.0494 0.03454 0.0
H419 H 0.94073 0.03956 0.9672 0.0
Tb420 Tb 0.26605 0.78468 0.30075 0.0
C421 C 0.30582 0.75473 0.22752 0.0
N422 N 0.31227 0.76799 0.24187 0.0
C423 C 0.34081 0.75997 0.24392 0.0
C424 C 0.31655 0.74325 0.22108 0.0
C425 C 0.32957 0.77081 0.25003 0.0
C426 C 0.33427 0.74609 0.22942 0.0
C427 C 0.28046 0.73752 0.20606 0.0
C428 C 0.28808 0.75203 0.21998 0.0
C429 C 0.29114 0.72619 0.19944 0.0
C430 C 0.30916 0.72907 0.2069 0.0
Tb431 Tb 0.29273 0.78461 0.25128 0.0
N432 N 0.27791 0.76263 0.22757 0.0
C433 C 0.26218 0.73439 0.19971 0.0
C434 C 0.25998 0.75945 0.2214 0.0
C435 C 0.25191 0.74541 0.20745 0.0
H436 H 0.33484 0.78159 0.26113 0.0
H437 H 0.23767 0.74292 0.20288 0.0
H438 H 0.22401 0.78854 0.29671 0.0
H439 H 0.32302 0.81974 0.35108 0.0
H440 H 0.25149 0.76712 0.22741 0.0
H441 H 0.2558 0.72332 0.18915 0.0
H442 H 0.30588 0.79455 0.32921 0.0
H443 H 0.35451 0.76229 0.25044 0.0
H444 H 0.2855 0.71495 0.18881 0.0
H445 H 0.31717 0.72006 0.20185 0.0
H446 H 0.20711 0.81095 0.30659 0.0
H447 H 0.34295 0.73756 0.22488 0.0
H448 H 0.3095 0.84508 0.36068 0.0
N449 N 0.24873 0.80307 0.31176 0.0
C450 C 0.25711 0.81745 0.32416 0.0
C451 C 0.22123 0.81304 0.31154 0.0
C452 C 0.24807 0.83066 0.33024 0.0
C453 C 0.23089 0.80043 0.3058 0.0
C454 C 0.22992 0.82838 0.32362 0.0
N455 N 0.28275 0.8055 0.32461 0.0
C456 C 0.29969 0.80549 0.33241 0.0
C457 C 0.28413 0.83348 0.34375 0.0
C458 C 0.2748 0.81878 0.33078 0.0
C459 C 0.30183 0.83401 0.35074 0.0
C460 C 0.30951 0.81978 0.34529 0.0
H461 H 0.22246 0.8382 0.32794 0.0
H462 H 0.25076 0.85603 0.3474 0.0
H463 H 0.28243 0.85853 0.35924 0.0
O464 O 0.2663 0.76582 0.31947 0.0
O465 O 0.27378 0.81104 0.29195 0.0
O466 O 0.29439 0.8013 0.27738 0.0
O467 O 0.24199 0.76626 0.30231 0.0
O468 O 0.2921 0.77591 0.30259 0.0
O469 O 0.30921 0.78485 0.27836 0.0
O470 O 0.28979 0.80273 0.23217 0.0
O471 O 0.28178 0.75709 0.25536 0.0
O472 O 0.27281 0.77345 0.27596 0.0
O473 O 0.31585 0.80175 0.24526 0.0
O474 O 0.26585 0.79165 0.24944 0.0
O475 O 0.24871 0.78428 0.27423 0.0
C476 C 0.2854 0.81356 0.28016 0.0
C477 C 0.23885 0.75455 0.3309 0.0
C478 C 0.23809 0.74457 0.36148 0.0
C479 C 0.21923 0.74003 0.35819 0.0
C480 C 0.22005 0.74989 0.32785 0.0
C481 C 0.21032 0.74289 0.34156 0.0
C482 C 0.24773 0.75225 0.3479 0.0
C483 C 0.30727 0.77861 0.29469 0.0
C484 C 0.24918 0.75894 0.31548 0.0
C485 C 0.2574 0.84561 0.34273 0.0
C486 C 0.27542 0.84703 0.34945 0.0
C487 C 0.27252 0.75738 0.26887 0.0
C488 C 0.31413 0.8099 0.21505 0.0
C489 C 0.312 0.81991 0.18475 0.0
C490 C 0.32774 0.8144 0.18134 0.0
C491 C 0.32999 0.80449 0.21166 0.0
C492 C 0.30532 0.81775 0.2016 0.0
C493 C 0.33674 0.80679 0.19483 0.0
C494 C 0.25072 0.78947 0.25742 0.0
C495 C 0.30705 0.80853 0.23281 0.0
H496 H 0.21135 0.73363 0.36813 0.0
H497 H 0.21288 0.75113 0.31467 0.0
H498 H 0.19583 0.73905 0.33902 0.0
H499 H 0.26224 0.75578 0.35028 0.0
H500 H 0.33323 0.81634 0.16842 0.0
H501 H 0.33726 0.79867 0.22199 0.0
H502 H 0.29326 0.82226 0.20424 0.0
H503 H 0.34903 0.80279 0.1923 0.0
Tb504 Tb 0.51232 0.02573 0.55033 0.0
C505 C 0.58157 0.06654 0.51782 0.0
N506 N 0.56942 0.0508 0.51169 0.0
C507 C 0.5681 0.05873 0.48064 0.0
C508 C 0.58675 0.07929 0.50564 0.0
C509 C 0.56358 0.04636 0.4931 0.0
C510 C 0.57949 0.07538 0.48698 0.0
C511 C 0.60242 0.08567 0.54283 0.0
C512 C 0.58943 0.06973 0.53627 0.0
C513 C 0.60717 0.09851 0.5308 0.0
C514 C 0.59933 0.09536 0.51229 0.0
Tb515 Tb 0.56341 0.03245 0.53429 0.0
N516 N 0.58415 0.05735 0.54785 0.0
C517 C 0.61021 0.08829 0.56135 0.0
C518 C 0.59182 0.05981 0.56586 0.0
C519 C 0.60493 0.07526 0.57288 0.0
H520 H 0.55571 0.03321 0.48747 0.0
H521 H 0.61091 0.07712 0.58721 0.0
H522 H 0.51872 0.02481 0.59709 0.0
H523 H 0.46468 0.98081 0.49843 0.0
H524 H 0.58801 0.04986 0.57476 0.0
H525 H 0.62026 0.10033 0.56688 0.0
H526 H 0.4854 0.00965 0.51176 0.0
H527 H 0.56306 0.05526 0.46606 0.0
H528 H 0.617 0.11089 0.53565 0.0
H529 H 0.60332 0.10531 0.50313 0.0
H530 H 0.51396 1.00202 0.61812 0.0
H531 H 0.5831 0.08484 0.47722 0.0
H532 H 0.46043 0.95522 0.5168 0.0
N533 N 0.50891 1.00633 0.57236 0.0
C534 C 0.4987 0.98965 0.56575 0.0
C535 C 0.51004 0.99822 0.60336 0.0
C536 C 0.49469 0.97637 0.57766 0.0
C537 C 0.51329 0.01105 0.59115 0.0
C538 C 0.50106 0.98069 0.59654 0.0
N539 N 0.49379 0.99973 0.53645 0.0
C540 C 0.48391 0.99831 0.51951 0.0
C541 C 0.47872 0.96985 0.54056 0.0
C542 C 0.49063 0.98637 0.54739 0.0
C543 C 0.46972 0.96771 0.52253 0.0
C544 C 0.47209 0.98212 0.51209 0.0
H545 H 0.49818 0.97089 0.60613 0.0
H546 H 0.48048 0.94919 0.57955 0.0
H547 H 0.46659 0.94347 0.54708 0.0
O548 O 0.49264 0.03846 0.53896 0.0
O549 O 0.5188 1.00308 0.53216 0.0
O550 O 0.54884 1.006 0.5409 0.0
O551 O 0.49084 0.02794 0.56496 0.0
O552 O 0.52272 0.03883 0.52736 0.0
O553 O 0.54133 0.02474 0.51244 0.0
O554 O 0.58767 0.02551 0.5435 0.0
O555 O 0.55611 0.05791 0.54598 0.0
O556 O 0.52813 0.05372 0.55768 0.0
O557 O 0.57411 0.01678 0.51546 0.0
O558 O 0.55194 0.02142 0.55739 0.0
O559 O 0.53403 0.03453 0.57316 0.0
C560 C 0.53316 0.99618 0.53282 0.0
C561 C 0.47918 0.05323 0.56176 0.0
C562 C 0.45758 0.07202 0.56266 0.0
C563 C 0.46609 0.08055 0.58015 0.0
C564 C 0.48796 0.06223 0.57904 0.0
C565 C 0.48136 0.07581 0.58818 0.0
C566 C 0.46423 0.05845 0.55344 0.0
C567 C 0.52655 0.03035 0.51251 0.0
C568 C 0.48408 0.03712 0.55336 0.0
C569 C 0.48358 0.95955 0.57061 0.0
C570 C 0.47562 0.9563 0.55212 0.0
C571 C 0.54337 0.06403 0.55412 0.0
C572 C 0.60446 0.01487 0.52075 0.0
C573 C 0.62838 0.99878 0.52068 0.0
C574 C 0.63305 1.00561 0.5043 0.0
C575 C 0.60936 0.02189 0.50454 0.0
C576 C 0.61427 1.00369 0.529 0.0
C577 C 0.62371 0.01731 0.49642 0.0
C578 C 0.54961 0.03061 0.57236 0.0
C579 C 0.58754 0.01613 0.52758 0.0
H580 H 0.46096 0.09095 0.58749 0.0
H581 H 0.49956 0.05841 0.58571 0.0
H582 H 0.48793 0.08245 0.60164 0.0
H583 H 0.45735 0.05148 0.54017 0.0
H584 H 0.64394 1.00193 0.49767 0.0
H585 H 0.60175 0.03036 0.49786 0.0
H586 H 0.6103 0.99798 0.54134 0.0
H587 H 0.62735 0.0225 0.48378 0.0
Tb588 Tb 0.31207 0.26625 0.7844 0.0
C589 C 0.24698 0.29098 0.74154 0.0
N590 N 0.25731 0.29918 0.75752 0.0
C591 C 0.25837 0.32791 0.74699 0.0
C592 C 0.2421 0.30093 0.72746 0.0
C593 C 0.2628 0.31744 0.76056 0.0
C594 C 0.24805 0.31962 0.73032 0.0
C595 C 0.23059 0.26336 0.72293 0.0
C596 C 0.24134 0.27249 0.73928 0.0
C597 C 0.22574 0.27317 0.7088 0.0
C598 C 0.2315 0.29192 0.71105 0.0
Tb599 Tb 0.26454 0.28072 0.77823 0.0
N600 N 0.24674 0.26345 0.75305 0.0
C601 C 0.22505 0.24466 0.72131 0.0
C602 C 0.24079 0.24531 0.75181 0.0
C603 C 0.23005 0.23562 0.7359 0.0
H604 H 0.27039 0.32402 0.77356 0.0
H605 H 0.22557 0.22119 0.73495 0.0
H606 H 0.30585 0.22292 0.78987 0.0
H607 H 0.35273 0.32608 0.82559 0.0
H608 H 0.24413 0.23825 0.76302 0.0
H609 H 0.21677 0.23713 0.70898 0.0
H610 H 0.33234 0.30899 0.79863 0.0
H611 H 0.26286 0.34237 0.74942 0.0
H612 H 0.21753 0.2664 0.6961 0.0
H613 H 0.22766 0.29932 0.70005 0.0
H614 H 0.31381 0.20498 0.81419 0.0
H615 H 0.24464 0.32776 0.71983 0.0
H616 H 0.36289 0.31033 0.85111 0.0
N617 N 0.31876 0.24795 0.80548 0.0
C618 C 0.32989 0.25641 0.82093 0.0
C619 C 0.31822 0.21946 0.81638 0.0
C620 C 0.33542 0.24666 0.8349 0.0
C621 C 0.31328 0.22968 0.80281 0.0
C622 C 0.32923 0.22799 0.83257 0.0
N623 N 0.3298 0.28397 0.80916 0.0
C624 C 0.33609 0.30202 0.80984 0.0
C625 C 0.34788 0.28412 0.8382 0.0
C626 C 0.33599 0.27493 0.8226 0.0
C627 C 0.35375 0.30276 0.83935 0.0
C628 C 0.34793 0.31172 0.82503 0.0
H629 H 0.33316 0.22001 0.84299 0.0
H630 H 0.35146 0.24854 0.86147 0.0
H631 H 0.3624 0.28131 0.86435 0.0
O632 O 0.33197 0.27596 0.76755 0.0
O633 O 0.30129 0.27468 0.81021 0.0
O634 O 0.28403 0.29421 0.8018 0.0
O635 O 0.33204 0.25208 0.78037 0.0
O636 O 0.31057 0.29044 0.77095 0.0
O637 O 0.2884 0.30257 0.78285 0.0
O638 O 0.24219 0.26951 0.79152 0.0
O639 O 0.27626 0.27319 0.7527 0.0
O640 O 0.29333 0.25273 0.75994 0.0
O641 O 0.24966 0.29783 0.78982 0.0
O642 O 0.26811 0.25774 0.79255 0.0
O643 O 0.28831 0.24394 0.77926 0.0
C644 C 0.29187 0.28665 0.81455 0.0
C645 C 0.34587 0.25412 0.75316 0.0
C646 C 0.36964 0.25314 0.7336 0.0
C647 C 0.36093 0.23549 0.72623 0.0
C648 C 0.33714 0.23662 0.74526 0.0
C649 C 0.34468 0.22739 0.73187 0.0
C650 C 0.36196 0.26249 0.74698 0.0
C651 C 0.30314 0.30406 0.77488 0.0
C652 C 0.33985 0.26275 0.76955 0.0
C653 C 0.34709 0.2558 0.85058 0.0
C654 C 0.35335 0.27446 0.8522 0.0
C655 C 0.28454 0.26034 0.74782 0.0
C656 C 0.2198 0.28673 0.79546 0.0
C657 C 0.19339 0.28622 0.81178 0.0
C658 C 0.18657 0.29568 0.79835 0.0
C659 C 0.21243 0.29585 0.78203 0.0
C660 C 0.21004 0.28163 0.81021 0.0
C661 C 0.19594 0.30029 0.78352 0.0
C662 C 0.27324 0.2432 0.78661 0.0
C663 C 0.23864 0.28511 0.79594 0.0
H664 H 0.36671 0.228 0.71604 0.0
H665 H 0.32481 0.22987 0.74986 0.0
H666 H 0.33808 0.21378 0.72611 0.0
H667 H 0.36891 0.2759 0.75318 0.0
H668 H 0.17388 0.29946 0.79933 0.0
H669 H 0.21972 0.30009 0.77072 0.0
H670 H 0.2157 0.27483 0.82082 0.0
H671 H 0.19052 0.30763 0.7733 0.0
Tb672 Tb 0.04723 0.00903 0.52955 0.0
C673 C 0.02503 0.0735 0.5748 0.0
N674 N 0.01676 0.0644 0.55817 0.0
C675 C 0.98807 0.06567 0.56756 0.0
C676 C 0.01501 0.0783 0.58882 0.0
C677 C 0.99864 0.06176 0.55392 0.0
C678 C 0.99628 0.07359 0.58526 0.0
C679 C 0.0523 0.09169 0.59273 0.0
C680 C 0.04348 0.08 0.57684 0.0
C681 C 0.04254 0.09545 0.60729 0.0
C682 C 0.02394 0.08867 0.60539 0.0
Tb683 Tb 0.03561 0.05817 0.53753 0.0
N684 N 0.05253 0.07608 0.56249 0.0
C685 C 0.07045 0.09988 0.59308 0.0
C686 C 0.06977 0.08515 0.56208 0.0
C687 C 0.07913 0.09685 0.57754 0.0
H688 H 0.99242 0.05693 0.53989 0.0
H689 H 0.09293 0.10368 0.57737 0.0
H690 H 0.09017 0.01988 0.52136 0.0
H691 H 0.98715 0.96947 0.4875 0.0
H692 H 0.07621 0.08329 0.54981 0.0
H693 H 0.07769 0.10905 0.60498 0.0
H694 H 1.00406 0.98932 0.51478 0.0
H695 H 0.97364 0.06302 0.56429 0.0
H696 H 0.04913 0.10416 0.61976 0.0
H697 H 0.01648 0.09231 0.61641 0.0
H698 H 0.10749 0.0127 0.49654 0.0
H699 H 0.98808 0.077 0.59568 0.0
H700 H 1.00296 0.95973 0.46189 0.0
N701 N 0.06491 1.00537 0.50684 0.0
C702 C 0.05657 0.9936 0.49178 0.0
C703 C 0.09313 1.00746 0.49488 0.0
C704 C 0.0662 0.98867 0.47742 0.0
C705 C 0.08308 0.0119 0.50879 0.0
C706 C 0.08466 0.99585 0.47909 0.0
N707 N 0.02931 0.99168 0.50467 0.0
C708 C 1.0112 0.9856 0.50371 0.0
C709 C 0.02907 0.97478 0.47493 0.0
C710 C 0.03824 0.9865 0.49069 0.0
C711 C 1.0105 0.96865 0.47382 0.0
C712 C 1.00152 0.97416 0.48823 0.0
H713 H 0.09254 0.99231 0.46841 0.0
H714 H 0.06437 0.97266 0.45084 0.0
H715 H 0.03184 0.9607 0.44853 0.0
O716 O 0.04086 0.98213 0.5357 0.0
O717 O 0.04014 0.02277 0.50544 0.0
O718 O 0.0198 0.03914 0.51453 0.0
O719 O 0.06796 0.99759 0.53963 0.0
O720 O 0.02219 0.00907 0.54115 0.0
O721 O 0.01199 0.03532 0.53675 0.0
O722 O 0.04105 0.0729 0.51467 0.0
O723 O 0.0528 0.05006 0.55998 0.0
O724 O 0.04277 0.01947 0.55728 0.0
O725 O 0.02939 0.08336 0.53725 0.0
O726 O 0.05867 0.05374 0.52406 0.0
O727 O 0.06961 0.03212 0.53808 0.0
C728 C 0.02661 0.03052 0.50153 0.0
C729 C 0.06143 0.97501 0.5593 0.0
C730 C 0.05769 0.94978 0.57762 0.0
C731 C 0.07262 0.95908 0.59008 0.0
C732 C 0.07621 0.98409 0.57225 0.0
C733 C 0.08171 0.97615 0.58748 0.0
C734 C 0.05202 0.95779 0.56221 0.0
C735 C 1.00965 0.01847 0.54074 0.0
C736 C 0.05745 0.9825 0.54178 0.0
C737 C 0.05716 0.97666 0.46195 0.0
C738 C 0.03865 0.96979 0.46067 0.0
C739 C 0.05076 0.0348 0.56718 0.0
C740 C 0.02395 0.09525 0.50939 0.0
C741 C 0.02143 0.11997 0.49092 0.0
C742 C 1.00284 0.1159 0.49185 0.0
C743 C 1.00529 0.09133 0.5094 0.0
C744 C 0.03203 0.10963 0.50006 0.0
C745 C 0.9949 0.1017 0.50086 0.0
C746 C 0.072 0.04731 0.53097 0.0
C747 C 0.03505 0.08638 0.52157 0.0
H748 H 0.07726 0.95306 0.60189 0.0
H749 H 0.08388 0.99721 0.57046 0.0
H750 H 0.09324 0.98318 0.59716 0.0
H751 H 0.0408 0.95044 0.55227 0.0
H752 H 0.99432 0.1239 0.48578 0.0
H753 H 0.99881 0.08066 0.51669 0.0
H754 H 0.04645 0.11286 0.50015 0.0
H755 H 0.9806 0.09891 0.50148 0.0
Tb756 Tb 0.28552 0.80492 0.75575 0.0
C757 C 0.24412 0.73819 0.79136 0.0
N758 N 0.2592 0.75114 0.79767 0.0
C759 C 0.24928 0.7542 0.82771 0.0
C760 C 0.23075 0.7332 0.80287 0.0
C761 C 0.2622 0.7587 0.81581 0.0
C762 C 0.23342 0.74154 0.82118 0.0
C763 C 0.22668 0.71639 0.76618 0.0
C764 C 0.24209 0.72981 0.77322 0.0
C765 C 0.21322 0.7116 0.77754 0.0
C766 C 0.21526 0.71998 0.79583 0.0
Tb767 Tb 0.27915 0.75639 0.77661 0.0
N768 N 0.25511 0.73514 0.76238 0.0
C769 C 0.22533 0.70812 0.74795 0.0
C770 C 0.25444 0.72635 0.7451 0.0
C771 C 0.23939 0.71297 0.73745 0.0
H772 H 0.2747 0.76779 0.82149 0.0
H773 H 0.23878 0.7062 0.7236 0.0
H774 H 0.28903 0.7923 0.7107 0.0
H775 H 0.3283 0.85379 0.80849 0.0
H776 H 0.26573 0.72922 0.73747 0.0
H777 H 0.21371 0.69772 0.74202 0.0
H778 H 0.30159 0.83013 0.79598 0.0
H779 H 0.25169 0.76034 0.842 0.0
H780 H 0.20124 0.70136 0.77236 0.0
H781 H 0.20482 0.71604 0.80446 0.0
H782 H 0.31094 0.80035 0.68926 0.0
H783 H 0.22348 0.73806 0.83048 0.0
H784 H 0.35137 0.86384 0.78825 0.0
N785 N 0.30486 0.80945 0.73407 0.0
C786 C 0.31978 0.82279 0.73986 0.0
C787 C 0.31371 0.80657 0.70352 0.0
C788 C 0.33241 0.82823 0.72769 0.0
C789 C 0.30144 0.80172 0.71599 0.0
C790 C 0.32929 0.81979 0.70941 0.0
N791 N 0.31016 0.82551 0.76967 0.0
C792 C 0.31194 0.83369 0.7874 0.0
C793 C 0.33757 0.84518 0.7644 0.0
C794 C 0.32234 0.83127 0.75806 0.0
C795 C 0.33981 0.85316 0.78283 0.0
C796 C 0.3269 0.84742 0.79435 0.0
H797 H 0.33865 0.82364 0.69963 0.0
H798 H 0.35742 0.8464 0.72482 0.0
H799 H 0.36197 0.86115 0.75694 0.0
O800 O 0.27591 0.82796 0.76491 0.0
O801 O 0.31094 0.79659 0.76577 0.0
O802 O 0.30583 0.77407 0.78522 0.0
O803 O 0.27772 0.81999 0.73563 0.0
O804 O 0.2737 0.79827 0.78045 0.0
O805 O 0.28755 0.7802 0.79654 0.0
O806 O 0.29143 0.73494 0.76763 0.0
O807 O 0.25353 0.76395 0.76655 0.0
O808 O 0.25759 0.78888 0.75005 0.0
O809 O 0.28641 0.74076 0.79626 0.0
O810 O 0.28939 0.76309 0.75094 0.0
O811 O 0.27533 0.78161 0.73585 0.0
C812 C 0.31669 0.78631 0.77765 0.0
C813 C 0.26675 0.84673 0.74198 0.0
C814 C 0.24875 0.8689 0.74628 0.0
C815 C 0.25128 0.87349 0.72846 0.0
C816 C 0.26928 0.85166 0.72425 0.0
C817 C 0.26163 0.86501 0.7176 0.0
C818 C 0.25672 0.85566 0.75317 0.0
C819 C 0.28234 0.7952 0.79554 0.0
C820 C 0.27342 0.83135 0.7478 0.0
C821 C 0.3476 0.84207 0.73401 0.0
C822 C 0.35017 0.85051 0.75229 0.0
C823 C 0.24725 0.7752 0.75633 0.0
C824 C 0.29995 0.71562 0.79068 0.0
C825 C 0.31804 0.69331 0.78712 0.0
C826 C 0.31524 0.689 0.80496 0.0
C827 C 0.29723 0.71087 0.80845 0.0
C828 C 0.31024 0.70656 0.77982 0.0
C829 C 0.30482 0.69767 0.81549 0.0
C830 C 0.27944 0.76614 0.7366 0.0
C831 C 0.29264 0.73063 0.78448 0.0
H832 H 0.2453 0.88375 0.723 0.0
H833 H 0.277 0.84501 0.71539 0.0
H834 H 0.26355 0.86864 0.70389 0.0
H835 H 0.25454 0.85189 0.7668 0.0
H836 H 0.32107 0.67877 0.8107 0.0
H837 H 0.28932 0.71749 0.81709 0.0
H838 H 0.31249 0.71001 0.76611 0.0
H839 H 0.30269 0.69421 0.82921 0.0
Tb840 Tb 0.53208 0.04192 0.01314 0.0
C841 C 0.56182 1.00219 0.08495 0.0
N842 N 0.54909 0.99516 0.07023 0.0
C843 C 0.56022 0.96825 0.06738 0.0
C844 C 0.57476 0.9928 0.09095 0.0
C845 C 0.54791 0.97823 0.06167 0.0
C846 C 0.57382 0.97562 0.08195 0.0
C847 C 0.57582 0.0274 0.10825 0.0
C848 C 0.5622 0.01916 0.09366 0.0
C849 C 0.58891 0.01822 0.11408 0.0
C850 C 0.58832 1.00092 0.10552 0.0
Tb851 Tb 0.53037 0.01311 0.0613 0.0
N852 N 0.54981 0.02798 0.08697 0.0
C853 C 0.57603 0.04473 0.11635 0.0
C854 C 0.54932 0.04441 0.09576 0.0
C855 C 0.56257 0.05315 0.11025 0.0
H856 H 0.53734 0.9722 0.05055 0.0
H857 H 0.5623 0.06636 0.11677 0.0
H858 H 0.52556 0.08199 0.0274 0.0
H859 H 0.50452 0.99737 0.94972 0.0
H860 H 0.53876 0.05096 0.09205 0.0
H861 H 0.58635 0.05159 0.12748 0.0
H862 H 0.52792 0.0113 0.97564 0.0
H863 H 0.55925 0.95488 0.06048 0.0
H864 H 0.59955 0.02439 0.12516 0.0
H865 H 0.59849 0.99399 0.11018 0.0
H866 H 0.50249 0.09928 0.02147 0.0
H867 H 0.58346 0.96794 0.08618 0.0
H868 H 0.47751 0.0097 0.94414 0.0
N869 N 0.51299 0.06018 0.00678 0.0
C870 C 0.49949 0.0538 0.99278 0.0
C871 C 0.50138 0.08641 0.01339 0.0
C872 C 0.48588 0.06307 0.98895 0.0
C873 C 0.5144 0.07651 0.01679 0.0
C874 C 0.48689 0.07953 0.99958 0.0
N875 N 0.5135 0.03014 0.98609 0.0
C876 C 0.51591 0.01639 0.97395 0.0
C877 C 0.48614 0.03091 0.96715 0.0
C878 C 0.49961 0.03801 0.98217 0.0
C879 C 0.48761 0.01567 0.95579 0.0
C880 C 0.50281 1.00865 0.95894 0.0
H881 H 0.47675 0.08715 0.99706 0.0
H882 H 0.46113 0.06241 0.97156 0.0
H883 H 0.46134 0.03416 0.95242 0.0
O884 O 0.55343 0.04153 0.99779 0.0
O885 O 0.50598 0.03507 0.02233 0.0
O886 O 0.51261 0.01162 0.03553 0.0
O887 O 0.54961 0.0665 0.01098 0.0
O888 O 0.53447 0.01324 0.00812 0.0
O889 O 0.53208 0.99689 0.03431 0.0
O890 O 0.5106 0.01456 0.07872 0.0
O891 O 0.55781 0.02591 0.05903 0.0
O892 O 0.54197 0.03125 0.03578 0.0
O893 O 0.51583 0.9891 0.06869 0.0
O894 O 0.52328 0.04005 0.06263 0.0
O895 O 0.53685 0.05785 0.04103 0.0
C896 C 0.50162 0.02214 0.03248 0.0
C897 C 0.56054 0.06637 0.98184 0.0
C898 C 0.56994 0.06312 0.95127 0.0
C899 C 0.56374 0.07835 0.94715 0.0
C900 C 0.55451 0.08174 0.97777 0.0
C901 C 0.55618 0.0877 0.96045 0.0
C902 C 0.56846 0.05734 0.96863 0.0
C903 C 0.5343 0.99843 0.01648 0.0
C904 C 0.55828 0.05893 0.99936 0.0
C905 C 0.47189 0.05566 0.97458 0.0
C906 C 0.47199 0.03956 0.96372 0.0
C907 C 0.55784 0.03308 0.04412 0.0
C908 C 0.50738 0.99242 0.09875 0.0
C909 C 0.49738 0.99642 0.12882 0.0
C910 C 0.50635 0.98358 0.13489 0.0
C911 C 0.51636 0.97948 0.10476 0.0
C912 C 0.49779 1.0007 0.11081 0.0
C913 C 0.51575 0.97507 0.1228 0.0
C914 C 0.5288 0.05576 0.05625 0.0
C915 C 0.50749 0.99744 0.08 0.0
H916 H 0.56506 0.08319 0.93382 0.0
H917 H 0.54841 0.08903 0.98782 0.0
H918 H 0.55158 0.09955 0.95731 0.0
H919 H 0.57323 0.04553 0.97174 0.0
H920 H 0.50589 0.98006 0.14884 0.0
H921 H 0.52378 0.97278 0.09561 0.0
H922 H 0.49068 0.01059 0.10623 0.0
H923 H 0.52256 0.96504 0.12741 0.0
Tb924 Tb 0.26737 0.24817 0.25843 0.0
C925 C 0.32775 0.31215 0.30141 0.0
N926 N 0.31255 0.30253 0.30672 0.0
C927 C 0.32783 0.30371 0.33729 0.0
C928 C 0.3437 0.31776 0.31383 0.0
C929 C 0.31233 0.29842 0.32447 0.0
C930 C 0.34361 0.31334 0.33194 0.0
C931 C 0.34241 0.32736 0.27771 0.0
C932 C 0.32712 0.31684 0.28356 0.0
C933 C 0.35846 0.3326 0.28988 0.0
C934 C 0.35909 0.32785 0.30791 0.0
Tb935 Tb 0.28786 0.29585 0.28491 0.0
N936 N 0.31129 0.31174 0.27225 0.0
C937 C 0.3409 0.3329 0.26007 0.0
C938 C 0.30938 0.31872 0.25592 0.0
C939 C 0.3242 0.32884 0.24927 0.0
H940 H 0.3001 0.29168 0.32906 0.0
H941 H 0.32259 0.334 0.23611 0.0
H942 H 0.25908 0.25597 0.21412 0.0
H943 H 0.22485 0.21549 0.30498 0.0
H944 H 0.29638 0.31747 0.24843 0.0
H945 H 0.35231 0.34104 0.25506 0.0
H946 H 0.25319 0.23152 0.29603 0.0
H947 H 0.32753 0.30055 0.35137 0.0
H948 H 0.37034 0.34068 0.28562 0.0
H949 H 0.37148 0.33228 0.31726 0.0
H950 H 0.23313 0.24964 0.1902 0.0
H951 H 0.35555 0.31754 0.34195 0.0
H952 H 0.1972 0.20872 0.28265 0.0
N953 N 0.2442 0.24564 0.23531 0.0
C954 C 0.228 0.23666 0.23921 0.0
C955 C 0.23144 0.24618 0.204 0.0
C956 C 0.21289 0.23214 0.22557 0.0
C957 C 0.24612 0.25022 0.21787 0.0
C958 C 0.21476 0.23712 0.20785 0.0
N959 N 0.24165 0.23562 0.26958 0.0
C960 C 0.2412 0.22957 0.28648 0.0
C961 C 0.21027 0.22168 0.26114 0.0
C962 C 0.22671 0.23141 0.25682 0.0
C963 C 0.20957 0.21624 0.27881 0.0
C964 C 0.22514 0.22009 0.29147 0.0
H965 H 0.2035 0.23375 0.19696 0.0
H966 H 0.1848 0.21877 0.21952 0.0
H967 H 0.18248 0.2097 0.25065 0.0
O968 O 0.27256 0.22325 0.26373 0.0
O969 O 0.24829 0.26536 0.26594 0.0
O970 O 0.26199 0.28273 0.29301 0.0
O971 O 0.26331 0.22778 0.23623 0.0
O972 O 0.28139 0.24888 0.28675 0.0
O973 O 0.27902 0.27551 0.3028 0.0
O974 O 0.27627 0.31708 0.27798 0.0
O975 O 0.30858 0.28069 0.27795 0.0
O976 O 0.29563 0.25835 0.25366 0.0
O977 O 0.2888 0.3167 0.30621 0.0
O978 O 0.27336 0.29225 0.25656 0.0
O979 O 0.27995 0.26758 0.2414 0.0
C980 C 0.24741 0.27507 0.28168 0.0
C981 C 0.28205 0.2076 0.23856 0.0
C982 C 0.29879 0.18447 0.24086 0.0
C983 C 0.30535 0.18798 0.22405 0.0
C984 C 0.28884 0.21132 0.22186 0.0
C985 C 0.30039 0.20143 0.21462 0.0
C986 C 0.28699 0.19415 0.24786 0.0
C987 C 0.28133 0.25903 0.30245 0.0
C988 C 0.26911 0.21678 0.24623 0.0
C989 C 0.1965 0.22247 0.22987 0.0
C990 C 0.19519 0.21729 0.24761 0.0
C991 C 0.30993 0.26868 0.26414 0.0
C992 C 0.27591 0.34208 0.30089 0.0
C993 C 0.2638 0.3673 0.29326 0.0
C994 C 0.26664 0.37438 0.31206 0.0
C995 C 0.27871 0.34913 0.31973 0.0
C996 C 0.26833 0.35118 0.28769 0.0
C997 C 0.27404 0.36525 0.32527 0.0
C998 C 0.27726 0.28379 0.24154 0.0
C999 C 0.28031 0.32502 0.29498 0.0
H1000 H 0.31453 0.18059 0.21844 0.0
H1001 H 0.28515 0.22169 0.21434 0.0
H1002 H 0.30553 0.20422 0.20173 0.0
H1003 H 0.28152 0.19111 0.26059 0.0
H1004 H 0.26295 0.38684 0.31648 0.0
H1005 H 0.28435 0.34215 0.33016 0.0
H1006 H 0.26594 0.34581 0.27312 0.0
H1007 H 0.27608 0.37061 0.33979 0.0
Tb1008 Tb 0.54929 0.50367 0.03479 0.0
C1009 C 0.52763 0.56687 0.08094 0.0
N1010 N 0.5191 0.55645 0.06504 0.0
C1011 C 0.49086 0.55437 0.07693 0.0
C1012 C 0.51811 0.571 0.09567 0.0
C1013 C 0.5008 0.55099 0.06253 0.0
C1014 C 0.49956 0.5642 0.09367 0.0
C1015 C 0.55482 0.58667 0.09742 0.0
C1016 C 0.54578 0.57456 0.0819 0.0
C1017 C 0.54553 0.59024 0.11242 0.0
C1018 C 0.52723 0.58238 0.11158 0.0
Tb1019 Tb 0.5372 0.55244 0.0427 0.0
N1020 N 0.55445 0.57063 0.06726 0.0
C1021 C 0.57279 0.59514 0.09715 0.0
C1022 C 0.57159 0.57972 0.06637 0.0
C1023 C 0.58114 0.59181 0.08145 0.0
H1024 H 0.49364 0.54442 0.04932 0.0
H1025 H 0.59485 0.5987 0.08088 0.0
H1026 H 0.5915 0.51552 0.02466 0.0
H1027 H 0.48926 0.46011 0.99671 0.0
H1028 H 0.57782 0.5776 0.05401 0.0
H1029 H 0.5802 0.60458 0.10878 0.0
H1030 H 0.50699 0.48017 0.02357 0.0
H1031 H 0.47642 0.54974 0.07495 0.0
H1032 H 0.55227 0.59938 0.12455 0.0
H1033 H 0.52014 0.58562 0.12307 0.0
H1034 H 0.60769 0.50971 0.99842 0.0
H1035 H 0.49176 0.56707 0.10467 0.0
H1036 H 0.50367 0.45263 0.96912 0.0
N1037 N 0.56598 0.50069 0.01105 0.0
C1038 C 0.55729 0.4889 0.99613 0.0
C1039 C 0.59345 0.50402 0.99745 0.0
C1040 C 0.56627 0.48477 0.98094 0.0
C1041 C 0.58402 0.50768 0.01219 0.0
C1042 C 0.58452 0.49263 0.98168 0.0
N1043 N 0.53089 0.48543 0.01085 0.0
C1044 C 0.51328 0.47777 0.01139 0.0
C1045 C 0.52968 0.46918 0.98054 0.0
C1046 C 0.5392 0.48105 0.99601 0.0
C1047 C 0.51147 0.46179 0.98076 0.0
C1048 C 0.50326 0.46606 0.99627 0.0
H1049 H 0.59191 0.48973 0.97033 0.0
H1050 H 0.56352 0.46951 0.9538 0.0
H1051 H 0.53149 0.45598 0.95337 0.0
O1052 O 0.54446 0.4765 0.04004 0.0
O1053 O 0.54194 0.51671 0.01007 0.0
O1054 O 0.52226 0.53415 0.01859 0.0
O1055 O 0.57092 0.49355 0.04516 0.0
O1056 O 0.52456 0.50408 0.04738 0.0
O1057 O 0.5144 0.52885 0.03817 0.0
O1058 O 0.5467 0.5712 0.02457 0.0
O1059 O 0.55441 0.54445 0.06527 0.0
O1060 O 0.54482 0.51379 0.06268 0.0
O1061 O 0.52526 0.57434 0.04013 0.0
O1062 O 0.55919 0.54766 0.02796 0.0
O1063 O 0.57146 0.52729 0.04249 0.0
C1064 C 0.52895 0.52505 0.00583 0.0
C1065 C 0.5662 0.46822 0.06174 0.0
C1066 C 0.56047 0.44333 0.08042 0.0
C1067 C 0.57835 0.44841 0.08869 0.0
C1068 C 0.58407 0.47287 0.07031 0.0
C1069 C 0.59005 0.46304 0.08364 0.0
C1070 C 0.55437 0.45317 0.06677 0.0
C1071 C 0.51191 0.5131 0.04454 0.0
C1072 C 0.56125 0.4776 0.04586 0.0
C1073 C 0.55683 0.47284 0.96558 0.0
C1074 C 0.53859 0.46512 0.96536 0.0
C1075 C 0.55278 0.52921 0.0725 0.0
C1076 C 0.5264 0.5881 0.01262 0.0
C1077 C 0.52549 0.61246 0.99354 0.0
C1078 C 0.50777 0.60396 0.98634 0.0
C1079 C 0.50868 0.57993 0.00515 0.0
C1080 C 0.5349 0.60434 0.00659 0.0
C1081 C 0.4995 0.58776 0.99199 0.0
C1082 C 0.57314 0.54228 0.03494 0.0
C1083 C 0.53533 0.58098 0.02818 0.0
H1084 H 0.58334 0.44083 0.09896 0.0
H1085 H 0.59369 0.48388 0.06636 0.0
H1086 H 0.60389 0.46664 0.08991 0.0
H1087 H 0.54069 0.44899 0.06 0.0
H1088 H 0.50026 0.60998 0.97637 0.0
H1089 H 0.50174 0.56776 0.00991 0.0
H1090 H 0.54845 0.61099 0.01255 0.0
H1091 H 0.48578 0.58143 0.98643 0.0
Tb1092 Tb 0.7864 0.29989 0.26833 0.0
C1093 C 0.74264 0.23483 0.29884 0.0
N1094 N 0.75877 0.246 0.30586 0.0
C1095 C 0.74884 0.24838 0.33605 0.0
C1096 C 0.72883 0.23071 0.31012 0.0
C1097 C 0.76228 0.25175 0.32456 0.0
C1098 C 0.73196 0.23807 0.32875 0.0
C1099 C 0.72428 0.21368 0.27352 0.0
C1100 C 0.74031 0.22626 0.28068 0.0
C1101 C 0.71036 0.21019 0.28455 0.0
C1102 C 0.71262 0.21868 0.30276 0.0
Tb1103 Tb 0.77941 0.24865 0.28505 0.0
N1104 N 0.75394 0.22992 0.27015 0.0
C1105 C 0.72288 0.20462 0.25562 0.0
C1106 C 0.75304 0.2204 0.2531 0.0
C1107 C 0.73739 0.20787 0.24545 0.0
H1108 H 0.77552 0.25833 0.33122 0.0
H1109 H 0.73658 0.20063 0.23178 0.0
H1110 H 0.78592 0.29402 0.22162 0.0
H1111 H 0.83007 0.34832 0.32109 0.0
H1112 H 0.76435 0.22261 0.24541 0.0
H1113 H 0.7108 0.19483 0.24968 0.0
H1114 H 0.80283 0.3253 0.3085 0.0
H1115 H 0.75171 0.25327 0.35071 0.0
H1116 H 0.69793 0.20062 0.27926 0.0
H1117 H 0.70191 0.21544 0.31126 0.0
H1118 H 0.80715 0.30257 0.19955 0.0
H1119 H 0.72172 0.23515 0.33784 0.0
H1120 H 0.85308 0.35821 0.30072 0.0
N1121 N 0.8041 0.30699 0.24556 0.0
C1122 C 0.81964 0.31941 0.2516 0.0
C1123 C 0.81101 0.30708 0.2142 0.0
C1124 C 0.83192 0.32532 0.23921 0.0
C1125 C 0.79916 0.30181 0.22693 0.0
C1126 C 0.82762 0.31859 0.22041 0.0
N1127 N 0.81073 0.32135 0.28175 0.0
C1128 C 0.81298 0.32907 0.29972 0.0
C1129 C 0.83855 0.3404 0.2766 0.0
C1130 C 0.82289 0.32703 0.2701 0.0
C1131 C 0.8412 0.34795 0.29521 0.0
C1132 C 0.8283 0.34233 0.30677 0.0
H1133 H 0.83668 0.32282 0.21046 0.0
H1134 H 0.85741 0.34274 0.23648 0.0
H1135 H 0.86327 0.35582 0.26922 0.0
O1136 O 0.77884 0.32389 0.27715 0.0
O1137 O 0.81203 0.29345 0.28101 0.0
O1138 O 0.80764 0.26471 0.2913 0.0
O1139 O 0.76952 0.30946 0.2496 0.0
O1140 O 0.77582 0.28816 0.29154 0.0
O1141 O 0.78876 0.27034 0.30762 0.0
O1142 O 0.79023 0.22732 0.27428 0.0
O1143 O 0.75712 0.25524 0.26633 0.0
O1144 O 0.76031 0.28521 0.27531 0.0
O1145 O 0.78265 0.22871 0.30172 0.0
O1146 O 0.79367 0.25946 0.26317 0.0
O1147 O 0.78052 0.2775 0.24656 0.0
C1148 C 0.81806 0.28043 0.28885 0.0
C1149 C 0.76911 0.34024 0.25366 0.0
C1150 C 0.75565 0.36607 0.25281 0.0
C1151 C 0.7632 0.36979 0.23651 0.0
C1152 C 0.77685 0.34421 0.23755 0.0
C1153 C 0.7739 0.359 0.22906 0.0
C1154 C 0.75883 0.35137 0.26139 0.0
C1155 C 0.78538 0.28608 0.30639 0.0
C1156 C 0.76923 0.32337 0.26127 0.0
C1157 C 0.84778 0.33821 0.24579 0.0
C1158 C 0.85108 0.34573 0.26442 0.0
C1159 C 0.75038 0.26973 0.2669 0.0
C1160 C 0.80666 0.21507 0.29674 0.0
C1161 C 0.82769 0.19579 0.29334 0.0
C1162 C 0.83694 0.20357 0.3108 0.0
C1163 C 0.81612 0.2228 0.31418 0.0
C1164 C 0.81246 0.20148 0.2864 0.0
C1165 C 0.83114 0.21698 0.32116 0.0
C1166 C 0.78606 0.2627 0.24757 0.0
C1167 C 0.79018 0.22025 0.28967 0.0
H1168 H 0.76092 0.38109 0.22965 0.0
H1169 H 0.7847 0.33566 0.23128 0.0
H1170 H 0.77967 0.36193 0.21651 0.0
H1171 H 0.75259 0.3481 0.27365 0.0
H1172 H 0.84847 0.19902 0.31656 0.0
H1173 H 0.81184 0.2332 0.3225 0.0
H1174 H 0.80511 0.19529 0.27305 0.0
H1175 H 0.83821 0.22277 0.33469 0.0
Tb1176 Tb 0.03047 0.55056 0.51835 0.0
C1177 C 0.06173 0.51243 0.58885 0.0
N1178 N 0.04832 0.5051 0.57494 0.0
C1179 C 0.0604 0.47893 0.57038 0.0
C1180 C 0.07544 0.50357 0.59369 0.0
C1181 C 0.04733 0.48847 0.5658 0.0
C1182 C 0.07461 0.48657 0.58428 0.0
C1183 C 0.07574 0.53754 0.61208 0.0
C1184 C 0.06182 0.52912 0.59787 0.0
C1185 C 0.08974 0.52902 0.6167 0.0
C1186 C 0.08955 0.51202 0.60758 0.0
Tb1187 Tb 0.0287 0.52233 0.56704 0.0
N1188 N 0.04818 0.537 0.59271 0.0
C1189 C 0.07506 0.55416 0.62133 0.0
C1190 C 0.04671 0.55246 0.60285 0.0
C1191 C 0.06029 0.56147 0.61693 0.0
H1192 H 0.0365 0.4825 0.55492 0.0
H1193 H 0.05925 0.57397 0.62452 0.0
H1194 H 0.02419 0.59162 0.52934 0.0
H1195 H 0.99689 0.49699 0.46399 0.0
H1196 H 0.03507 0.55796 0.60057 0.0
H1197 H 0.08555 0.56116 0.63224 0.0
H1198 H 0.02083 0.51214 0.48848 0.0
H1199 H 0.05958 0.46576 0.56308 0.0
H1200 H 0.10065 0.53537 0.62745 0.0
H1201 H 0.10034 0.50553 0.61138 0.0
H1202 H 1.00251 0.60931 0.51969 0.0
H1203 H 0.08484 0.47925 0.58763 0.0
H1204 H 0.97329 0.5123 0.45324 0.0
N1205 N 0.01229 0.56894 0.50935 0.0
C1206 C 0.99936 0.56202 0.49481 0.0
C1207 C 1.00141 0.59598 0.51264 0.0
C1208 C 0.98646 0.57155 0.48908 0.0
C1209 C 0.01363 0.58583 0.51813 0.0
C1210 C 0.98766 0.58876 0.49817 0.0
N1211 N 1.01072 0.53582 0.49293 0.0
C1212 C 1.01061 0.51906 0.48452 0.0
C1213 C 0.98459 0.53667 0.47199 0.0
C1214 C 0.99854 0.54488 0.48626 0.0
C1215 C 0.98388 0.51915 0.46413 0.0
C1216 C 0.99709 0.51042 0.47025 0.0
H1217 H 0.97803 0.59654 0.49416 0.0
H1218 H 0.96242 0.57051 0.47038 0.0
H1219 H 0.96068 0.5399 0.45553 0.0
O1220 O 0.05045 0.54922 0.50117 0.0
O1221 O 1.00268 0.53905 0.52143 0.0
O1222 O 0.01821 0.53047 0.54285 0.0
O1223 O 0.04589 0.57467 0.5121 0.0
O1224 O 0.03806 0.52385 0.51698 0.0
O1225 O 0.02551 0.50618 0.53933 0.0
O1226 O 1.00765 0.52235 0.58302 0.0
O1227 O 0.05521 0.53036 0.55911 0.0
O1228 O 0.04679 0.55201 0.54474 0.0
O1229 O 0.01273 0.49753 0.57098 0.0
O1230 O 0.0223 0.54944 0.5702 0.0
O1231 O 0.0295 0.56656 0.54535 0.0
C1232 C 1.00234 0.5303 0.53537 0.0
C1233 C 0.05546 0.57255 0.48245 0.0
C1234 C 0.06477 0.56853 0.45186 0.0
C1235 C 0.05949 0.58423 0.44772 0.0
C1236 C 0.05034 0.58835 0.47826 0.0
C1237 C 0.05232 0.59409 0.46091 0.0
C1238 C 0.06267 0.56276 0.46919 0.0
C1239 C 0.03344 0.50835 0.52401 0.0
C1240 C 0.05434 0.5665 0.50078 0.0
C1241 C 0.97258 0.56348 0.47481 0.0
C1242 C 0.9716 0.54605 0.46634 0.0
C1243 C 0.05849 0.54243 0.54793 0.0
C1244 C 1.00213 0.49805 0.60025 0.0
C1245 C 0.99362 0.50149 0.63123 0.0
C1246 C 0.99927 0.48585 0.63488 0.0
C1247 C 1.00758 0.48228 0.60393 0.0
C1248 C 0.9949 0.50742 0.61389 0.0
C1249 C 1.00611 0.47624 0.6212 0.0
C1250 C 0.02415 0.56442 0.56201 0.0
C1251 C 1.00375 0.50497 0.58237 0.0
H1252 H 0.06137 0.58913 0.43451 0.0
H1253 H 0.04497 0.59633 0.48838 0.0
H1254 H 0.04853 0.60633 0.45778 0.0
H1255 H 0.06685 0.55069 0.47242 0.0
H1256 H 0.99806 0.48091 0.64817 0.0
H1257 H 0.01299 0.47466 0.59353 0.0
H1258 H 0.99042 0.51947 0.61113 0.0
H1259 H 1.01024 0.46406 0.62399 0.0
Tb1260 Tb 0.8051 0.76942 0.28799 0.0
C1261 C 0.74103 0.7914 0.24249 0.0
N1262 N 0.75114 0.80013 0.25845 0.0
C1263 C 0.75236 0.82837 0.24679 0.0
C1264 C 0.73639 0.80086 0.22789 0.0
C1265 C 0.75653 0.81843 0.26095 0.0
C1266 C 0.74233 0.81956 0.23015 0.0
C1267 C 0.72455 0.76332 0.22461 0.0
C1268 C 0.73524 0.77283 0.24081 0.0
C1269 C 0.72001 0.7727 0.20997 0.0
C1270 C 0.72594 0.79141 0.21159 0.0
Tb1271 Tb 0.75706 0.78214 0.28015 0.0
N1272 N 0.74046 0.7641 0.25498 0.0
C1273 C 0.71868 0.74469 0.22367 0.0
C1274 C 0.73389 0.74613 0.2546 0.0
C1275 C 0.72317 0.7361 0.23884 0.0
H1276 H 0.76372 0.82549 0.27397 0.0
H1277 H 0.71818 0.72179 0.23852 0.0
H1278 H 0.79732 0.72629 0.29554 0.0
H1279 H 0.8447 0.8301 0.32824 0.0
H1280 H 0.73646 0.73955 0.2665 0.0
H1281 H 0.71038 0.73688 0.21149 0.0
H1282 H 0.82599 0.81197 0.30065 0.0
H1283 H 0.75673 0.84285 0.24878 0.0
H1284 H 0.71186 0.76561 0.19737 0.0
H1285 H 0.72227 0.79845 0.20021 0.0
H1286 H 0.80414 0.70947 0.32121 0.0
H1287 H 0.73907 0.82732 0.21925 0.0
H1288 H 0.85243 0.81552 0.35567 0.0
N1289 N 0.81014 0.75187 0.31045 0.0
C1290 C 0.82046 0.76084 0.32622 0.0
C1291 C 0.80866 0.72393 0.32286 0.0
C1292 C 0.82513 0.75164 0.34104 0.0
C1293 C 0.80451 0.73359 0.30844 0.0
C1294 C 0.81894 0.73299 0.33925 0.0
N1295 N 0.82159 0.78784 0.3129 0.0
C1296 C 0.82847 0.80567 0.3128 0.0
C1297 C 0.83761 0.78905 0.34331 0.0
C1298 C 0.82659 0.77935 0.32738 0.0
C1299 C 0.84387 0.80758 0.34372 0.0
C1300 C 0.83943 0.81589 0.32831 0.0
H1301 H 0.82225 0.72543 0.35033 0.0
H1302 H 0.8397 0.75445 0.36855 0.0
H1303 H 0.85067 0.78716 0.37051 0.0
O1304 O 0.82656 0.77945 0.27307 0.0
O1305 O 0.79232 0.77734 0.31253 0.0
O1306 O 0.77463 0.797 0.30468 0.0
O1307 O 0.82538 0.75534 0.28581 0.0
O1308 O 0.80239 0.79265 0.27352 0.0
O1309 O 0.78032 0.80481 0.28565 0.0
O1310 O 0.73671 0.77147 0.29612 0.0
O1311 O 0.76912 0.77391 0.25519 0.0
O1312 O 0.7884 0.75547 0.26254 0.0
O1313 O 0.73617 0.79533 0.28348 0.0
O1314 O 0.7606 0.75895 0.29423 0.0
O1315 O 0.78211 0.74672 0.28137 0.0
C1316 C 0.78434 0.79047 0.31701 0.0
C1317 C 0.84127 0.75763 0.25987 0.0
C1318 C 0.86539 0.75813 0.24046 0.0
C1319 C 0.8584 0.73989 0.23413 0.0
C1320 C 0.83426 0.73946 0.25296 0.0
C1321 C 0.84283 0.73068 0.24021 0.0
C1322 C 0.85674 0.76703 0.2533 0.0
C1323 C 0.79525 0.80633 0.27797 0.0
C1324 C 0.83413 0.76612 0.27564 0.0
C1325 C 0.83595 0.7613 0.35703 0.0
C1326 C 0.8422 0.77993 0.35815 0.0
C1327 C 0.7786 0.76211 0.25039 0.0
C1328 C 0.72179 0.79252 0.31044 0.0
C1329 C 0.69773 0.79362 0.32987 0.0
C1330 C 0.70738 0.81052 0.33854 0.0
C1331 C 0.7313 0.80928 0.31967 0.0
C1332 C 0.70502 0.78457 0.31579 0.0
C1333 C 0.72408 0.8182 0.33357 0.0
C1334 C 0.76694 0.74506 0.28855 0.0
C1335 C 0.72831 0.7843 0.294 0.0
H1336 H 0.86501 0.73278 0.22443 0.0
H1337 H 0.82247 0.73187 0.25783 0.0
H1338 H 0.83757 0.7166 0.23526 0.0
H1339 H 0.86242 0.78098 0.25869 0.0
H1340 H 0.70195 0.81779 0.34922 0.0
H1341 H 0.7441 0.8157 0.31577 0.0
H1342 H 0.69747 0.77172 0.30867 0.0
H1343 H 0.73136 0.83126 0.34035 0.0
Tb1344 Tb 0.77379 0.28156 0.8037 0.0
C1345 C 0.8137 0.25383 0.73178 0.0
N1346 N 0.82043 0.26611 0.74696 0.0
C1347 C 0.8471 0.25466 0.75019 0.0
C1348 C 0.82311 0.24095 0.72572 0.0
C1349 C 0.83705 0.26686 0.75602 0.0
C1350 C 0.84004 0.24154 0.73509 0.0
C1351 C 0.78878 0.24031 0.708 0.0
C1352 C 0.79687 0.25367 0.72288 0.0
C1353 C 0.79803 0.22732 0.70202 0.0
C1354 C 0.81519 0.2277 0.71078 0.0
Tb1355 Tb 0.80243 0.28465 0.75601 0.0
N1356 N 0.78792 0.26585 0.72981 0.0
C1357 C 0.77151 0.24018 0.69984 0.0
C1358 C 0.77149 0.26639 0.72108 0.0
C1359 C 0.76294 0.25343 0.70625 0.0
H1360 H 0.84275 0.277 0.76764 0.0
H1361 H 0.74974 0.25371 0.69975 0.0
H1362 H 0.73313 0.28703 0.79089 0.0
H1363 H 0.82529 0.31638 0.85967 0.0
H1364 H 0.7648 0.27677 0.72514 0.0
H1365 H 0.76476 0.23004 0.6885 0.0
H1366 H 0.81129 0.29206 0.83522 0.0
H1367 H 0.86025 0.25532 0.75743 0.0
H1368 H 0.79198 0.21687 0.69071 0.0
H1369 H 0.82213 0.21756 0.70606 0.0
H1370 H 0.71455 0.30835 0.79914 0.0
H1371 H 0.84775 0.23193 0.73081 0.0
H1372 H 0.80945 0.34006 0.86874 0.0
N1373 N 0.75513 0.2998 0.81127 0.0
C1374 C 0.76154 0.31318 0.82544 0.0
C1375 C 0.72779 0.30992 0.8066 0.0
C1376 C 0.75151 0.32586 0.83043 0.0
C1377 C 0.73841 0.29789 0.80192 0.0
C1378 C 0.73441 0.32405 0.82084 0.0
N1379 N 0.78769 0.30196 0.82898 0.0
C1380 C 0.80413 0.30231 0.83832 0.0
C1381 C 0.78599 0.32854 0.84884 0.0
C1382 C 0.77848 0.31442 0.8345 0.0
C1383 C 0.80315 0.32938 0.85774 0.0
C1384 C 0.81215 0.31608 0.85259 0.0
H1385 H 0.72624 0.33348 0.82429 0.0
H1386 H 0.75153 0.34998 0.84857 0.0
H1387 H 0.7818 0.35239 0.86464 0.0
O1388 O 0.77427 0.26142 0.82069 0.0
O1389 O 0.78135 0.30836 0.79614 0.0
O1390 O 0.80382 0.30061 0.78268 0.0
O1391 O 0.74932 0.26402 0.80618 0.0
O1392 O 0.80068 0.27445 0.80722 0.0
O1393 O 0.81838 0.28394 0.78351 0.0
O1394 O 0.80156 0.30523 0.73933 0.0
O1395 O 0.79019 0.25667 0.75758 0.0
O1396 O 0.78329 0.27204 0.78011 0.0
O1397 O 0.82667 0.29965 0.74985 0.0
O1398 O 0.77552 0.29204 0.75479 0.0
O1399 O 0.75775 0.27763 0.77597 0.0
C1400 C 0.79426 0.31234 0.78599 0.0
C1401 C 0.74943 0.2555 0.83639 0.0
C1402 C 0.75183 0.24594 0.86688 0.0
C1403 C 0.74025 0.25672 0.8725 0.0
C1404 C 0.73773 0.26622 0.84193 0.0
C1405 C 0.73305 0.26666 0.85993 0.0
C1406 C 0.75607 0.24514 0.84878 0.0
C1407 C 0.81615 0.27765 0.79985 0.0
C1408 C 0.75689 0.25636 0.81883 0.0
C1409 C 0.75895 0.34001 0.84462 0.0
C1410 C 0.77619 0.34138 0.85376 0.0
C1411 C 0.78215 0.25629 0.77191 0.0
C1412 C 0.82554 0.31107 0.72118 0.0
C1413 C 0.82193 0.32029 0.69048 0.0
C1414 C 0.83946 0.31874 0.68822 0.0
C1415 C 0.84313 0.30973 0.71882 0.0
C1416 C 0.815 0.31632 0.70692 0.0
C1417 C 0.84998 0.31345 0.70235 0.0
C1418 C 0.7598 0.28618 0.76106 0.0
C1419 C 0.81885 0.30886 0.73908 0.0
H1420 H 0.73674 0.25736 0.8865 0.0
H1421 H 0.73255 0.27451 0.83259 0.0
H1422 H 0.72411 0.27496 0.86426 0.0
H1423 H 0.76535 0.23711 0.8446 0.0
H1424 H 0.84523 0.32219 0.67579 0.0
H1425 H 0.85172 0.30614 0.72982 0.0
H1426 H 0.80155 0.31775 0.70874 0.0
H1427 H 0.8636 0.31262 0.70069 0.0
Tb1428 Tb 0.76658 0.75507 0.7658 0.0
C1429 C 0.82796 0.81633 0.81045 0.0
N1430 N 0.81203 0.80709 0.81469 0.0
C1431 C 0.8249 0.80859 0.84633 0.0
C1432 C 0.84299 0.8221 0.82413 0.0
C1433 C 0.81031 0.80326 0.83241 0.0
C1434 C 0.84128 0.81811 0.84221 0.0
C1435 C 0.84563 0.82953 0.7875 0.0
C1436 C 0.82922 0.82021 0.79232 0.0
C1437 C 0.8605 0.83549 0.80118 0.0
C1438 C 0.85916 0.83186 0.81944 0.0
Tb1439 Tb 0.7888 0.80387 0.79163 0.0
N1440 N 0.81447 0.81457 0.77939 0.0
C1441 C 0.84662 0.83265 0.76907 0.0
C1442 C 0.81536 0.81788 0.76148 0.0
C1443 C 0.83145 0.82668 0.75599 0.0
H1444 H 0.79748 0.79721 0.83628 0.0
H1445 H 0.83204 0.82917 0.74172 0.0
H1446 H 0.7539 0.76059 0.72185 0.0
H1447 H 0.73223 0.71319 0.81168 0.0
H1448 H 0.80378 0.81417 0.75139 0.0
H1449 H 0.859 0.83972 0.76481 0.0
H1450 H 0.75836 0.73168 0.80053 0.0
H1451 H 0.82336 0.80578 0.86037 0.0
H1452 H 0.87312 0.84291 0.79777 0.0
H1453 H 0.87076 0.8366 0.82983 0.0
H1454 H 0.72647 0.75361 0.69993 0.0
H1455 H 0.85247 0.82248 0.85313 0.0
H1456 H 0.70243 0.70688 0.79293 0.0
N1457 N 0.74149 0.75024 0.74428 0.0
C1458 C 0.72629 0.74014 0.74914 0.0
C1459 C 0.72609 0.75012 0.71389 0.0
C1460 C 0.71023 0.7352 0.73677 0.0
C1461 C 0.74166 0.75463 0.72662 0.0
C1462 C 0.71022 0.74058 0.71906 0.0
N1463 N 0.74318 0.73788 0.77718 0.0
C1464 C 0.74527 0.72998 0.79288 0.0
C1465 C 0.71202 0.72246 0.77142 0.0
C1466 C 0.72719 0.73366 0.76612 0.0
C1467 C 0.71377 0.71551 0.78831 0.0
C1468 C 0.73055 0.7191 0.79897 0.0
H1469 H 0.69824 0.73685 0.70906 0.0
H1470 H 0.68247 0.72058 0.73287 0.0
H1471 H 0.68398 0.7096 0.76334 0.0
O1472 O 0.77918 0.73397 0.77097 0.0
O1473 O 0.74692 0.76758 0.77963 0.0
O1474 O 0.75929 0.79758 0.79127 0.0
O1475 O 0.76396 0.7343 0.74405 0.0
O1476 O 0.78092 0.75859 0.79416 0.0
O1477 O 0.77647 0.78467 0.80925 0.0
O1478 O 0.78962 0.83068 0.7872 0.0
O1479 O 0.80683 0.78532 0.7853 0.0
O1480 O 0.79278 0.76847 0.75817 0.0
O1481 O 0.78993 0.82276 0.81458 0.0
O1482 O 0.77408 0.80313 0.76398 0.0
O1483 O 0.77466 0.77578 0.74806 0.0
C1484 C 0.74554 0.78352 0.78733 0.0
C1485 C 0.77765 0.70913 0.74697 0.0
C1486 C 0.79379 0.68582 0.7514 0.0
C1487 C 0.78736 0.67775 0.73317 0.0
C1488 C 0.77109 0.70098 0.72878 0.0
C1489 C 0.77598 0.68532 0.72193 0.0
C1490 C 0.78894 0.70149 0.75817 0.0
C1491 C 0.77753 0.76785 0.80901 0.0
C1492 C 0.77366 0.72608 0.75409 0.0
C1493 C 0.69493 0.72445 0.74217 0.0
C1494 C 0.69579 0.71816 0.7595 0.0
C1495 C 0.80757 0.77544 0.76961 0.0
C1496 C 0.77774 0.84745 0.8101 0.0
C1497 C 0.75595 0.86503 0.80246 0.0
C1498 C 0.75658 0.87092 0.82143 0.0
C1499 C 0.77836 0.85359 0.82898 0.0
C1500 C 0.7665 0.85321 0.79684 0.0
C1501 C 0.76774 0.86517 0.83459 0.0
C1502 C 0.77298 0.79246 0.74842 0.0
C1503 C 0.78964 0.83581 0.80476 0.0
H1504 H 0.79087 0.66548 0.72778 0.0
H1505 H 0.76237 0.70676 0.71984 0.0
H1506 H 0.77094 0.67906 0.70792 0.0
H1507 H 0.79421 0.70786 0.77214 0.0
H1508 H 0.74894 0.88047 0.82604 0.0
H1509 H 0.78722 0.84952 0.83939 0.0
H1510 H 0.76614 0.84881 0.7822 0.0
H1511 H 0.7684 0.86997 0.84915 0.0
Tb1512 Tb 0.56675 0.54714 0.56028 0.0
C1513 C 0.50107 0.48813 0.51293 0.0
N1514 N 0.51156 0.50361 0.50916 0.0
C1515 C 0.50864 0.49144 0.4771 0.0
C1516 C 0.49375 0.47374 0.49883 0.0
C1517 C 0.51547 0.5054 0.4915 0.0
C1518 C 0.49765 0.47557 0.48075 0.0
C1519 C 0.48703 0.47076 0.53557 0.0
C1520 C 0.4977 0.4867 0.53105 0.0
C1521 C 0.47941 0.45655 0.52152 0.0
C1522 C 0.48276 0.45803 0.50319 0.0
Tb1523 Tb 0.51898 0.52635 0.53327 0.0
N1524 N 0.5054 0.50068 0.54432 0.0
C1525 C 0.48448 0.46951 0.5541 0.0
C1526 C 0.50288 0.49943 0.5624 0.0
C1527 C 0.49257 0.48387 0.56759 0.0
H1528 H 0.52298 0.51791 0.4882 0.0
H1529 H 0.49074 0.48305 0.582 0.0
H1530 H 0.56092 0.55857 0.6043 0.0
H1531 H 0.60171 0.58558 0.51164 0.0
H1532 H 0.5087 0.5102 0.57297 0.0
H1533 H 0.47642 0.4575 0.55815 0.0
H1534 H 0.58433 0.55877 0.52199 0.0
H1535 H 0.51154 0.49308 0.46311 0.0
H1536 H 0.47105 0.44428 0.52471 0.0
H1537 H 0.47688 0.44691 0.49251 0.0
H1538 H 0.5695 0.58508 0.62759 0.0
H1539 H 0.49221 0.46486 0.46952 0.0
H1540 H 0.61154 0.61371 0.53323 0.0
N1541 N 0.57225 0.57155 0.58268 0.0
C1542 C 0.58263 0.58682 0.57831 0.0
C1543 C 0.57301 0.5859 0.61368 0.0
C1544 C 0.58838 0.60233 0.59143 0.0
C1545 C 0.56765 0.5709 0.60022 0.0
C1546 C 0.58336 0.60173 0.60925 0.0
N1547 N 0.58192 0.5716 0.54842 0.0
C1548 C 0.58731 0.57099 0.53119 0.0
C1549 C 0.59863 0.60238 0.55567 0.0
C1550 C 0.58779 0.58679 0.56071 0.0
C1551 C 0.60336 0.60199 0.53769 0.0
C1552 C 0.59772 0.58619 0.52543 0.0
H1553 H 0.58766 0.61329 0.61976 0.0
H1554 H 0.60373 0.62985 0.59637 0.0
H1555 H 0.61255 0.62996 0.56497 0.0
O1556 O 0.59065 0.53923 0.55526 0.0
O1557 O 0.55138 0.56736 0.55194 0.0
O1558 O 0.53146 0.55305 0.52635 0.0
O1559 O 0.58555 0.54777 0.58329 0.0
O1560 O 0.5653 0.53228 0.53218 0.0
O1561 O 0.5395 0.53627 0.51615 0.0
O1562 O 0.49616 0.53454 0.54125 0.0
O1563 O 0.53455 0.50604 0.54037 0.0
O1564 O 0.55443 0.51981 0.56616 0.0
O1565 O 0.49878 0.52712 0.51207 0.0
O1566 O 0.52088 0.54169 0.56088 0.0
O1567 O 0.54608 0.53742 0.57758 0.0
C1568 C 0.54 0.56781 0.53718 0.0
C1569 C 0.61374 0.53961 0.58081 0.0
C1570 C 0.63862 0.52546 0.57774 0.0
C1571 C 0.64511 0.53117 0.5965 0.0
C1572 C 0.62034 0.54553 0.59955 0.0
C1573 C 0.63605 0.54137 0.60732 0.0
C1574 C 0.6231 0.52986 0.5699 0.0
C1575 C 0.55561 0.5332 0.51646 0.0
C1576 C 0.59645 0.54224 0.57295 0.0
C1577 C 0.59917 0.61784 0.58647 0.0
C1578 C 0.60424 0.61788 0.56861 0.0
C1579 C 0.54591 0.50522 0.55497 0.0
C1580 C 0.47178 0.53641 0.51819 0.0
C1581 C 0.44733 0.54967 0.52564 0.0
C1582 C 0.43982 0.54621 0.50696 0.0
C1583 C 0.46432 0.53291 0.49944 0.0
C1584 C 0.46319 0.54474 0.53126 0.0
C1585 C 0.44833 0.53779 0.49389 0.0
C1586 C 0.52987 0.54037 0.57675 0.0
C1587 C 0.48918 0.53276 0.52393 0.0
H1588 H 0.65716 0.5278 0.60269 0.0
H1589 H 0.61324 0.55311 0.60825 0.0
H1590 H 0.64107 0.54583 0.62179 0.0
H1591 H 0.61794 0.52502 0.55548 0.0
H1592 H 0.42753 0.55018 0.50254 0.0
H1593 H 0.47094 0.52666 0.48908 0.0
H1594 H 0.46896 0.54779 0.54571 0.0
H1595 H 0.44266 0.53524 0.47944 0.0
Tb1596 Tb 1.00916 0.52795 0.06214 0.0
C1597 C 0.07574 0.57109 0.02605 0.0
N1598 N 0.06362 0.55538 0.0197 0.0
C1599 C 0.06216 0.56373 0.98885 0.0
C1600 C 0.08112 0.5839 0.014 0.0
C1601 C 0.0573 0.55134 1.0012 0.0
C1602 C 0.074 0.58012 0.99528 0.0
C1603 C 0.09581 0.59034 0.05154 0.0
C1604 C 0.0832 0.57425 0.04464 0.0
C1605 C 0.10098 0.60313 0.03957 0.0
C1606 C 0.0937 0.59991 0.02087 0.0
Tb1607 Tb 0.05888 0.53609 0.04149 0.0
N1608 N 0.0779 0.56166 0.056 0.0
C1609 C 0.10296 0.59305 0.07027 0.0
C1610 C 0.0852 0.56404 0.07412 0.0
C1611 C 0.09767 0.57981 0.08158 0.0
H1612 H 0.04902 0.53836 0.99557 0.0
H1613 H 0.1033 0.58168 0.09603 0.0
H1614 H 0.01769 0.5263 0.10812 0.0
H1615 H 0.95864 0.48642 0.01049 0.0
H1616 H 0.08159 0.55382 0.08278 0.0
H1617 H 0.11268 0.60523 0.07609 0.0
H1618 H 0.98232 0.51316 0.02314 0.0
H1619 H 0.05703 0.56046 0.97427 0.0
H1620 H 0.11071 0.61553 0.04462 0.0
H1621 H 0.09798 0.60985 0.01178 0.0
H1622 H 1.01062 0.50405 0.12954 0.0
H1623 H 0.07788 0.58958 0.98559 0.0
H1624 H 0.95068 0.46182 0.02964 0.0
N1625 N 1.00458 0.50862 0.08395 0.0
C1626 C 0.99247 0.49289 0.07767 0.0
C1627 C 1.0058 0.50055 0.11491 0.0
C1628 C 0.98711 0.48014 0.08978 0.0
C1629 C 1.01035 0.51298 0.10253 0.0
C1630 C 0.99437 0.48394 0.10847 0.0
N1631 N 0.98906 0.50299 0.04815 0.0
C1632 C 0.97961 0.50213 0.03111 0.0
C1633 C 0.97035 0.47488 0.05301 0.0
C1634 C 0.98412 0.49021 0.05942 0.0
C1635 C 0.96139 0.47336 0.03504 0.0
C1636 C 0.96591 0.48716 0.02413 0.0
H1637 H 0.99052 0.47452 0.1182 0.0
H1638 H 0.9698 0.4545 0.09226 0.0
H1639 H 0.95516 0.44991 0.0601 0.0
O1640 O 0.98914 0.5411 0.05207 0.0
O1641 O 0.01515 0.50359 0.0465 0.0
O1642 O 0.04395 0.5079 0.03719 0.0
O1643 O 0.98943 0.53129 0.07865 0.0
O1644 O 0.01831 0.54075 0.03883 0.0
O1645 O 0.03558 0.52828 0.02088 0.0
O1646 O 0.08311 0.52829 0.05095 0.0
O1647 O 0.05013 0.56045 0.05336 0.0
O1648 O 0.02606 0.55534 0.07135 0.0
O1649 O 0.07337 0.5271 0.02157 0.0
O1650 O 0.05006 0.52265 0.06473 0.0
O1651 O 0.03254 0.53487 0.0828 0.0
C1652 C 0.02821 0.49764 0.03903 0.0
C1653 C 0.97388 0.55416 0.07514 0.0
C1654 C 0.95019 0.57054 0.07269 0.0
C1655 C 0.95329 0.57572 0.09191 0.0
C1656 C 0.97719 0.55988 0.09437 0.0
C1657 C 0.96691 0.57059 0.10265 0.0
C1658 C 0.96059 0.5599 0.0643 0.0
C1659 C 0.0202 0.53209 0.02327 0.0
C1660 C 0.98133 0.53949 0.06702 0.0
C1661 C 0.974 0.46444 0.08314 0.0
C1662 C 0.96562 0.46184 0.06484 0.0
C1663 C 0.03936 0.56602 0.06472 0.0
C1664 C 0.10118 0.51813 0.0275 0.0
C1665 C 0.12319 0.49954 0.02953 0.0
C1666 C 0.1277 0.50364 0.01207 0.0
C1667 C 0.10613 0.52215 0.01014 0.0
C1668 C 0.11003 0.50701 0.03743 0.0
C1669 C 0.11932 0.51498 0.00254 0.0
C1670 C 0.0478 0.53059 0.0806 0.0
C1671 C 0.08558 0.5242 0.03377 0.0
H1672 H 0.94519 0.58377 0.09857 0.0
H1673 H 0.98718 0.55548 0.10315 0.0
H1674 H 0.96921 0.57457 0.11749 0.0
H1675 H 0.95765 0.5553 0.04955 0.0
H1676 H 0.13787 0.49811 0.00584 0.0
H1677 H 0.09955 0.53065 0.00224 0.0
H1678 H 0.10624 0.50365 0.05075 0.0
H1679 H 0.12291 0.51806 0.9891 0.0
H1680 H 0.98674 0.21681 0.9805 0.0
H1681 H 0.99038 0.18879 0.99269 0.0
H1682 H 0.04313 0.19607 0.97577 0.0
H1683 H 0.03931 0.22359 0.96311 0.0
H1684 H 1.00067 0.15628 0.97022 0.0
H1685 H 0.04883 0.1868 0.03278 0.0
H1686 H 0.03398 0.19898 0.02162 0.0
H1687 H 0.05319 0.19524 0.0112 0.0
C1688 C 0.99923 0.21263 0.97967 0.0
C1689 C 0.01283 0.22279 0.97101 0.0
C1690 C 1.00127 0.19644 0.98654 0.0
C1691 C 0.01713 0.19012 0.98539 0.0
C1692 C 0.0308 0.20048 0.97706 0.0
H1693 H 0.05917 0.10123 0.02879 0.0
H1694 H 0.05518 0.12932 0.01774 0.0
C1695 C 0.0286 0.21635 0.96983 0.0
C1696 C 0.01934 0.1726 0.99235 0.0
H1697 H 0.04248 0.15533 0.02617 0.0
C1698 C 1.00973 0.15609 0.98254 0.0
C1699 C 0.03148 0.17204 0.00814 0.0
C1700 C 0.04245 0.18916 0.01919 0.0
C1701 C 0.01204 0.13933 0.9878 0.0
C1702 C 0.02374 0.13867 0.00408 0.0
C1703 C 0.03339 0.15532 0.01383 0.0
C1704 C 0.02627 0.12111 0.01115 0.0
C1705 C 1.00247 0.12258 0.97509 0.0
C1706 C 1.0116 0.10666 0.0118 0.0
C1707 C 0.01402 0.0903 0.01771 0.0
C1708 C 0.03115 0.08782 0.02406 0.0
C1709 C 0.04578 0.10246 0.02423 0.0
C1710 C 0.04343 0.1187 0.01779 0.0
H1711 H 0.99987 0.12548 0.9606 0.0
H1712 H 1.01033 0.11204 0.97506 0.0
H1713 H 0.98927 0.11731 0.97967 0.0
H1714 H 0.99807 0.10796 0.00783 0.0
H1715 H 1.00231 0.07956 0.01752 0.0
H1716 H 0.09558 0.80519 0.18337 0.0
H1717 H 0.1237 0.80382 0.20141 0.0
H1718 H 0.14877 0.80177 0.15134 0.0
H1719 H 0.12081 0.80363 0.13325 0.0
H1720 H 0.14163 0.77696 0.19893 0.0
H1721 H 0.1862 0.83952 0.18436 0.0
H1722 H 0.16214 0.83503 0.17886 0.0
H1723 H 0.17529 0.82454 0.16408 0.0
C1724 C 0.10717 0.80483 0.1762 0.0
C1725 C 0.10591 0.80475 0.15682 0.0
C1726 C 0.12325 0.80394 0.18656 0.0
C1727 C 0.13853 0.80292 0.17786 0.0
C1728 C 0.13739 0.80303 0.15853 0.0
H1729 H 0.24726 0.79677 0.22112 0.0
H1730 H 0.22022 0.79863 0.2017 0.0
C1731 C 0.12133 0.80409 0.14816 0.0
C1732 C 0.15529 0.8009 0.18895 0.0
H1733 H 0.19986 0.82017 0.20102 0.0
C1734 C 0.15436 0.78645 0.19943 0.0
C1735 C 0.17202 0.81307 0.18943 0.0
C1736 C 0.17402 0.829 0.17871 0.0
C1737 C 0.16958 0.78374 0.2102 0.0
C1738 C 0.18626 0.79624 0.21117 0.0
C1739 C 0.18719 0.81058 0.20048 0.0
C1740 C 0.20283 0.79482 0.22317 0.0
C1741 C 0.16758 0.76713 0.2199 0.0
C1742 C 0.20246 0.79231 0.24193 0.0
C1743 C 0.21784 0.79049 0.25292 0.0
C1744 C 0.23433 0.79191 0.24581 0.0
C1745 C 0.23488 0.79534 0.22724 0.0
C1746 C 0.21934 0.79652 0.21604 0.0
H1747 H 0.15641 0.75622 0.21263 0.0
H1748 H 0.18004 0.762 0.2208 0.0
H1749 H 0.16436 0.77033 0.23414 0.0
H1750 H 0.19024 0.79173 0.24819 0.0
H1751 H 0.21664 0.7879 0.26697 0.0
H1752 H 0.5364 0.82431 0.49581 0.0
H1753 H 0.5395 0.85591 0.50884 0.0
H1754 H 0.50182 0.86252 0.46378 0.0
H1755 H 0.4985 0.83141 0.45099 0.0
H1756 H 0.55084 0.88826 0.49294 0.0
H1757 H 0.48086 0.88266 0.50763 0.0
H1758 H 0.49005 0.8632 0.50278 0.0
H1759 H 0.48272 0.87463 0.48416 0.0
C1760 C 0.52856 0.8324 0.48884 0.0
C1761 C 0.51705 0.82493 0.47234 0.0
C1762 C 0.53043 0.85059 0.49625 0.0
C1763 C 0.52069 0.86182 0.48756 0.0
C1764 C 0.50923 0.85432 0.47116 0.0
H1765 H 0.50721 0.97321 0.50728 0.0
H1766 H 0.50489 0.94146 0.49654 0.0
C1767 C 0.50742 0.83632 0.46376 0.0
C1768 C 0.52265 0.88139 0.49511 0.0
H1769 H 0.49874 0.91213 0.50939 0.0
C1770 C 0.53946 0.89342 0.49672 0.0
C1771 C 0.50784 0.8885 0.49975 0.0
C1772 C 0.48937 0.87658 0.49866 0.0
C1773 C 0.54179 0.9121 0.50229 0.0
C1774 C 0.52702 0.91922 0.50729 0.0
C1775 C 0.51021 0.90709 0.50573 0.0
C1776 C 0.52857 0.93903 0.51398 0.0
C1777 C 0.56001 0.92402 0.50181 0.0
C1778 C 0.54241 0.94878 0.52771 0.0
C1779 C 0.54394 0.96717 0.5336 0.0
C1780 C 0.53133 0.97645 0.52649 0.0
C1781 C 0.51715 0.96664 0.51321 0.0
C1782 C 0.51584 0.94832 0.50702 0.0
H1783 H 0.56755 0.91793 0.49171 0.0
H1784 H 0.55896 0.93742 0.49802 0.0
H1785 H 0.56796 0.92578 0.51568 0.0
H1786 H 0.55206 0.94216 0.53413 0.0
H1787 H 0.55493 0.97406 0.54402 0.0
H1788 H 0.50872 0.30563 0.64682 0.0
H1789 H 0.48135 0.30606 0.6614 0.0
H1790 H 0.48863 0.26056 0.68878 0.0
H1791 H 0.51581 0.26006 0.6745 0.0
H1792 H 0.44936 0.27693 0.65978 0.0
H1793 H 0.48399 0.29891 0.73127 0.0
H1794 H 0.49535 0.30184 0.71096 0.0
H1795 H 0.49092 0.28039 0.71945 0.0
C1796 C 0.50451 0.29577 0.65601 0.0
C1797 C 0.51458 0.28294 0.65965 0.0
C1798 C 0.48886 0.29602 0.66429 0.0
C1799 C 0.48315 0.28354 0.67642 0.0
C1800 C 0.493 0.27055 0.67977 0.0
H1801 H 0.40045 0.24136 0.73762 0.0
H1802 H 0.42811 0.2522 0.72434 0.0
C1803 C 0.50854 0.27027 0.67153 0.0
C1804 C 0.46683 0.28371 0.6856 0.0
H1805 H 0.45257 0.28573 0.72837 0.0
C1806 C 0.45001 0.27919 0.67475 0.0
C1807 C 0.46775 0.28671 0.70513 0.0
C1808 C 0.48548 0.29241 0.71741 0.0
C1809 C 0.43406 0.27648 0.68299 0.0
C1810 C 0.435 0.27866 0.70259 0.0
C1811 C 0.45184 0.28403 0.71337 0.0
C1812 C 0.41883 0.2736 0.71212 0.0
C1813 C 0.41635 0.27034 0.6707 0.0
C1814 C 0.40466 0.28246 0.71027 0.0
C1815 C 0.38889 0.27636 0.71803 0.0
C1816 C 0.38705 0.26126 0.72763 0.0
C1817 C 0.40152 0.25294 0.73015 0.0
C1818 C 0.41731 0.25914 0.72259 0.0
H1819 H 0.41809 0.26608 0.65614 0.0
H1820 H 0.40763 0.25897 0.67597 0.0
H1821 H 0.40935 0.28154 0.67072 0.0
H1822 H 0.40566 0.29383 0.7025 0.0
H1823 H 0.37787 0.28297 0.71592 0.0
H1824 H 0.04965 0.80514 0.64283 0.0
H1825 H 0.05078 0.83182 0.62717 0.0
H1826 H 1.00325 0.84044 0.64978 0.0
H1827 H 1.00228 0.81382 0.66597 0.0
H1828 H 0.02512 0.83755 0.60065 0.0
H1829 H 0.03684 0.89008 0.66161 0.0
H1830 H 0.04013 0.86775 0.66358 0.0
H1831 H 0.01788 0.87167 0.66099 0.0
C1832 C 0.03942 0.8127 0.64453 0.0
C1833 C 0.0258 0.80728 0.65557 0.0
C1834 C 0.04011 0.82799 0.63557 0.0
C1835 C 0.02718 0.83823 0.63735 0.0
C1836 C 0.01357 0.83295 0.64844 0.0
H1837 H 0.02616 0.93969 0.59173 0.0
H1838 H 0.01548 0.91143 0.6044 0.0
C1839 C 0.01295 0.81766 0.65759 0.0
C1840 C 0.02777 0.85395 0.62691 0.0
H1841 H 0.03442 0.89965 0.63208 0.0
C1842 C 0.02703 0.85112 0.60752 0.0
C1843 C 0.0301 0.87165 0.63584 0.0
C1844 C 0.03143 0.87559 0.65666 0.0
C1845 C 0.02893 0.86547 0.59687 0.0
C1846 C 0.03198 0.88324 0.60584 0.0
C1847 C 0.03206 0.88604 0.62517 0.0
C1848 C 0.03665 0.89917 0.59575 0.0
C1849 C 0.02769 0.8614 0.57608 0.0
C1850 C 0.05185 0.90156 0.58632 0.0
C1851 C 0.05784 0.9176 0.57904 0.0
C1852 C 0.04877 0.93156 0.58101 0.0
C1853 C 0.03312 0.92894 0.58969 0.0
C1854 C 0.02714 0.91289 0.59706 0.0
H1855 H 0.01922 0.84781 0.57106 0.0
H1856 H 0.02206 0.8714 0.56889 0.0
H1857 H 0.0413 0.86166 0.5722 0.0
H1858 H 0.05968 0.89143 0.58547 0.0
H1859 H 0.07015 0.91949 0.57274 0.0
H1860 H 0.49203 0.82944 0.82435 0.0
H1861 H 0.46014 0.82592 0.81364 0.0
H1862 H 0.44827 0.7758 0.83643 0.0
H1863 H 0.48012 0.77964 0.84778 0.0
H1864 H 0.43644 0.80367 0.79 0.0
H1865 H 0.41115 0.7968 0.85762 0.0
H1866 H 0.43476 0.80302 0.85571 0.0
H1867 H 0.42293 0.77981 0.85134 0.0
C1868 C 0.48268 0.81763 0.82713 0.0
C1869 C 0.48892 0.80486 0.83705 0.0
C1870 C 0.46427 0.81562 0.82096 0.0
C1871 C 0.45129 0.80076 0.82443 0.0
C1872 C 0.45759 0.78775 0.83395 0.0
H1873 H 0.33388 0.76418 0.79653 0.0
H1874 H 0.36573 0.76786 0.80706 0.0
C1875 C 0.476 0.78985 0.84029 0.0
C1876 C 0.43145 0.7988 0.81768 0.0
H1877 H 0.38919 0.7905 0.83111 0.0
C1878 C 0.42619 0.80089 0.79911 0.0
C1879 C 0.41767 0.79515 0.82929 0.0
C1880 C 0.4219 0.79375 0.84963 0.0
C1881 C 0.40797 0.79906 0.79184 0.0
C1882 C 0.39419 0.79534 0.80342 0.0
C1883 C 0.39945 0.79329 0.822 0.0
C1884 C 0.37436 0.7932 0.79658 0.0
C1885 C 0.40374 0.8006 0.77153 0.0
C1886 C 0.36794 0.80615 0.78707 0.0
C1887 C 0.34953 0.80386 0.78064 0.0
C1888 C 0.33665 0.78886 0.78392 0.0
C1889 C 0.34309 0.77606 0.79369 0.0
C1890 C 0.36151 0.77817 0.79983 0.0
H1891 H 0.4146 0.79784 0.76353 0.0
H1892 H 0.39099 0.79117 0.76537 0.0
H1893 H 0.40245 0.81448 0.76995 0.0
H1894 H 0.37715 0.81822 0.78472 0.0
H1895 H 0.34545 0.814 0.77325 0.0
H1896 H 0.49874 0.18372 0.17382 0.0
H1897 H 0.49952 0.15557 0.15482 0.0
H1898 H 0.53545 0.18536 0.12167 0.0
H1899 H 0.53455 0.21329 0.14015 0.0
H1900 H 0.4917 0.14625 0.11267 0.0
H1901 H 0.56132 0.14627 0.1414 0.0
H1902 H 0.54754 0.15876 0.15336 0.0
H1903 H 0.55793 0.16709 0.13412 0.0
C1904 C 0.50668 0.18429 0.16239 0.0
C1905 C 0.5165 0.2009 0.15856 0.0
C1906 C 0.50713 0.16817 0.15154 0.0
C1907 C 0.5177 0.16828 0.13689 0.0
C1908 C 0.52731 0.18483 0.13295 0.0
H1909 H 0.54762 0.0907 0.0571 0.0
H1910 H 0.54428 0.11757 0.0763 0.0
C1911 C 0.52666 0.20088 0.14353 0.0
C1912 C 0.51893 0.15125 0.12565 0.0
H1913 H 0.54838 0.12515 0.11507 0.0
C1914 C 0.50402 0.14153 0.11334 0.0
C1915 C 0.53507 0.14514 0.12631 0.0
C1916 C 0.55138 0.15473 0.13959 0.0
C1917 C 0.50494 0.12616 0.10144 0.0
C1918 C 0.52111 0.12005 0.10207 0.0
C1919 C 0.53598 0.12975 0.11449 0.0
C1920 C 0.52284 0.10362 0.09003 0.0
C1921 C 0.48876 0.11695 0.08781 0.0
C1922 C 0.51202 0.08668 0.09131 0.0
C1923 C 0.51386 0.07127 0.08027 0.0
C1924 C 0.52662 0.07233 0.06766 0.0
C1925 C 0.53749 0.08932 0.06645 0.0
C1926 C 0.53567 0.10473 0.07753 0.0
H1927 H 0.47917 0.12573 0.08576 0.0
H1928 H 0.49278 0.1128 0.07415 0.0
H1929 H 0.48169 0.10473 0.09315 0.0
H1930 H 0.50227 0.0853 0.10105 0.0
H1931 H 0.50527 0.05847 0.08167 0.0
H1932 H 0.09124 0.26334 0.34225 0.0
H1933 H 0.12049 0.26187 0.33277 0.0
H1934 H 0.12804 0.31657 0.32072 0.0
H1935 H 0.09946 0.31845 0.33195 0.0
H1936 H 0.13436 0.26127 0.30468 0.0
H1937 H 0.17622 0.32357 0.34437 0.0
H1938 H 0.15324 0.31556 0.34792 0.0
H1939 H 0.15871 0.32852 0.32915 0.0
C1940 C 0.09919 0.27514 0.33772 0.0
C1941 C 0.0928 0.29102 0.33796 0.0
C1942 C 0.1161 0.2743 0.3322 0.0
C1943 C 0.12724 0.28918 0.32618 0.0
C1944 C 0.12055 0.30497 0.32595 0.0
H1945 H 0.22634 0.298 0.27107 0.0
H1946 H 0.1978 0.30173 0.28178 0.0
C1947 C 0.10388 0.306 0.33214 0.0
C1948 C 0.14523 0.28769 0.31955 0.0
H1949 H 0.18952 0.30945 0.3207 0.0
C1950 C 0.14635 0.27186 0.30848 0.0
C1951 C 0.16139 0.30127 0.32418 0.0
C1952 C 0.16239 0.31808 0.33721 0.0
C1953 C 0.16252 0.26935 0.30199 0.0
C1954 C 0.17841 0.28305 0.30627 0.0
C1955 C 0.17743 0.29892 0.31716 0.0
C1956 C 0.19612 0.28094 0.29981 0.0
C1957 C 0.16244 0.25196 0.29036 0.0
C1958 C 0.20516 0.26824 0.30645 0.0
C1959 C 0.22168 0.26636 0.30057 0.0
C1960 C 0.22949 0.27672 0.28743 0.0
C1961 C 0.22054 0.28949 0.28084 0.0
C1962 C 0.20421 0.29168 0.28707 0.0
H1963 H 0.14862 0.24435 0.28492 0.0
H1964 H 0.17018 0.25447 0.2785 0.0
H1965 H 0.1689 0.24346 0.299 0.0
H1966 H 0.19957 0.25992 0.31648 0.0
H1967 H 0.22843 0.25686 0.30647 0.0
H1968 H 0.9378 0.0415 0.21275 0.0
H1969 H 0.95155 0.04641 0.1844 0.0
H1970 H 0.98548 0.01024 0.19727 0.0
H1971 H 0.97196 1.0055 0.22601 0.0
H1972 H 0.99211 0.05797 0.18127 0.0
H1973 H 0.95583 0.99212 0.14232 0.0
H1974 H 0.94739 1.00278 0.16163 0.0
H1975 H 0.96579 0.99218 0.16575 0.0
C1976 C 0.94828 0.03466 0.20964 0.0
C1977 C 0.95381 0.02311 0.22168 0.0
C1978 C 0.95613 0.03751 0.19342 0.0
C1979 C 0.96945 0.02862 0.18865 0.0
C1980 C 0.97517 0.01721 0.20068 0.0
H1981 H 0.03267 0.02388 0.09817 0.0
H1982 H 0.01903 0.02171 0.12685 0.0
C1983 C 0.96753 0.01458 0.21714 0.0
C1984 C 0.97719 0.03119 0.17098 0.0
H1985 H 0.97751 0.01021 0.12748 0.0
C1986 C 0.98889 0.04757 0.16948 0.0
C1987 C 0.97282 0.01767 0.15556 0.0
C1988 C 0.95969 1.00019 0.15619 0.0
C1989 C 0.99669 0.05057 0.15312 0.0
C1990 C 0.99254 0.03693 0.13781 0.0
C1991 C 0.98067 0.02065 0.13923 0.0
C1992 C 1.00107 0.03899 0.12052 0.0
C1993 C 1.00966 0.06811 0.15235 0.0
C1994 C 0.9955 0.04946 0.10735 0.0
C1995 C 1.00322 0.05066 0.09075 0.0
C1996 C 0.01678 0.04154 0.08716 0.0
C1997 C 0.02242 0.03127 0.10055 0.0
C1998 C 0.01459 0.02992 0.11695 0.0
H1999 H 0.01257 0.07681 0.1659 0.0
H2000 H 0.02244 0.06554 0.14813 0.0
H2001 H 1.00399 0.07543 0.14175 0.0
H2002 H 0.98502 0.0565 0.1098 0.0
H2003 H 0.99855 0.05861 0.08071 0.0
H2004 H 0.24816 0.67026 0.49893 0.0
H2005 H 0.24694 0.68484 0.47085 0.0
H2006 H 0.29722 0.67247 0.45948 0.0
H2007 H 0.29818 0.6572 0.48749 0.0
H2008 H 0.27634 0.71492 0.46897 0.0
H2009 H 0.26465 0.66191 0.40815 0.0
H2010 H 0.25793 0.65693 0.43037 0.0
H2011 H 0.28119 0.66146 0.42729 0.0
C2012 C 0.25882 0.67045 0.49027 0.0
C2013 C 0.27348 0.66308 0.49537 0.0
C2014 C 0.25805 0.67864 0.47426 0.0
C2015 C 0.27206 0.67978 0.46332 0.0
C2016 C 0.28625 0.67153 0.46778 0.0
H2017 H 0.26896 0.73204 0.36385 0.0
H2018 H 0.2824 0.72026 0.39004 0.0
C2019 C 0.28685 0.66297 0.48373 0.0
C2020 C 0.27264 0.69158 0.44877 0.0
H2021 H 0.2653 0.6914 0.40213 0.0
C2022 C 0.27421 0.7099 0.45431 0.0
C2023 C 0.27009 0.68486 0.42981 0.0
C2024 C 0.26829 0.66521 0.42341 0.0
C2025 C 0.27241 0.72168 0.44128 0.0
C2026 C 0.26865 0.7148 0.42229 0.0
C2027 C 0.26819 0.69663 0.41673 0.0
C2028 C 0.26302 0.72548 0.40811 0.0
C2029 C 0.27413 0.74123 0.4481 0.0
C2030 C 0.24803 0.73288 0.40985 0.0
C2031 C 0.24057 0.74014 0.39507 0.0
C2032 C 0.24767 0.73964 0.37812 0.0
C2033 C 0.26322 0.73293 0.37674 0.0
C2034 C 0.27088 0.72603 0.39166 0.0
H2035 H 0.28357 0.7454 0.46113 0.0
H2036 H 0.27886 0.75001 0.43761 0.0
H2037 H 0.26087 0.74333 0.45125 0.0
H2038 H 0.24147 0.7322 0.42226 0.0
H2039 H 0.22882 0.74548 0.39672 0.0
H2040 H 0.6803 0.03895 0.70036 0.0
H2041 H 0.66197 0.04045 0.67123 0.0
H2042 H 0.61443 0.03134 0.69872 0.0
H2043 H 0.6323 0.02947 0.72756 0.0
H2044 H 0.62476 1.00774 0.65921 0.0
H2045 H 0.62053 0.07952 0.66712 0.0
H2046 H 0.63997 0.07228 0.67687 0.0
H2047 H 0.61961 0.06774 0.68722 0.0
C2048 C 0.66592 0.03712 0.70006 0.0
C2049 C 0.65761 0.03384 0.71599 0.0
C2050 C 0.65562 0.0382 0.68361 0.0
C2051 C 0.63712 0.03632 0.68328 0.0
C2052 C 0.62881 0.03303 0.69908 0.0
H2053 H 0.54789 0.04512 0.60781 0.0
H2054 H 0.56866 0.0446 0.63535 0.0
C2055 C 0.63898 0.03169 0.71536 0.0
C2056 C 0.62585 0.03583 0.66606 0.0
H2057 H 0.60077 0.06003 0.64317 0.0
C2058 C 0.61957 0.01913 0.65541 0.0
C2059 C 0.61903 0.05073 0.6619 0.0
C2060 C 0.62513 0.06866 0.6738 0.0
C2061 C 0.60581 0.01663 0.64085 0.0
C2062 C 0.59906 0.03164 0.63632 0.0
C2063 C 0.60587 0.04854 0.64675 0.0
C2064 C 0.58541 0.0303 0.62042 0.0
C2065 C 0.59822 0.99777 0.63129 0.0
C2066 C 0.58777 0.02211 0.60319 0.0
C2067 C 0.57527 0.02113 0.588 0.0
C2068 C 0.56112 0.02993 0.58929 0.0
C2069 C 0.55873 0.0383 0.60648 0.0
C2070 C 0.57067 0.03818 0.62209 0.0
H2071 H 0.59967 0.98768 0.64087 0.0
H2072 H 0.58382 0.99562 0.62592 0.0
H2073 H 0.60584 0.99515 0.6196 0.0
H2074 H 0.59946 0.01674 0.60132 0.0
H2075 H 0.57744 0.01442 0.57496 0.0
H2076 H 0.32041 0.34172 0.98972 0.0
H2077 H 0.31783 0.32968 0.95712 0.0
H2078 H 0.26942 0.34855 0.94591 0.0
H2079 H 0.27221 0.36115 0.9786 0.0
H2080 H 0.29216 0.30422 0.93618 0.0
H2081 H 0.2969 0.36796 0.90552 0.0
H2082 H 0.30183 0.36748 0.93011 0.0
H2083 H 0.27897 0.36301 0.9194 0.0
C2084 C 0.30916 0.34332 0.98038 0.0
C2085 C 0.2965 0.35242 0.98687 0.0
C2086 C 0.30773 0.33643 0.96166 0.0
C2087 C 0.29359 0.33839 0.94886 0.0
C2088 C 0.28072 0.34721 0.95533 0.0
H2089 H 0.2698 0.30671 0.82871 0.0
H2090 H 0.26935 0.31822 0.861 0.0
C2091 C 0.28222 0.35427 0.9741 0.0
C2092 C 0.29225 0.33067 0.92897 0.0
H2093 H 0.29132 0.34133 0.88459 0.0
C2094 C 0.29198 0.31235 0.9249 0.0
C2095 C 0.29187 0.34119 0.91415 0.0
C2096 C 0.29256 0.36103 0.91746 0.0
C2097 C 0.29121 0.30423 0.90659 0.0
C2098 C 0.29128 0.31482 0.89176 0.0
C2099 C 0.29133 0.33313 0.89582 0.0
C2100 C 0.29135 0.30727 0.872 0.0
C2101 C 0.28987 0.28426 0.90345 0.0
C2102 C 0.3038 0.29716 0.86712 0.0
C2103 C 0.30361 0.28996 0.84867 0.0
C2104 C 0.29167 0.29348 0.83439 0.0
C2105 C 0.2794 0.30385 0.83924 0.0
C2106 C 0.27915 0.31053 0.85778 0.0
H2107 H 0.28377 0.27746 0.91473 0.0
H2108 H 0.28176 0.27807 0.89004 0.0
H2109 H 0.30353 0.28173 0.90345 0.0
H2110 H 0.31378 0.29485 0.87756 0.0
H2111 H 0.31292 0.28174 0.84568 0.0
H2112 H 0.97804 0.99868 0.32519 0.0
H2113 H 0.98919 1.00246 0.35817 0.0
H2114 H 0.96065 0.04431 0.36819 0.0
H2115 H 0.94909 0.04034 0.3351 0.0
H2116 H 1.01009 0.03167 0.38025 0.0
H2117 H 0.9448 0.01262 0.40736 0.0
H2118 H 0.94701 1.00866 0.38303 0.0
H2119 H 0.94657 0.03073 0.39346 0.0
C2120 C 0.97413 1.00875 0.33434 0.0
C2121 C 0.96266 0.01923 0.32738 0.0
C2122 C 0.98052 0.01087 0.35328 0.0
C2123 C 0.9756 0.02348 0.36585 0.0
C2124 C 0.96435 0.03419 0.35893 0.0
H2125 H 1.00114 0.04753 0.48723 0.0
H2126 H 0.9894 0.0469 0.4547 0.0
C2127 C 0.95789 0.03203 0.33993 0.0
C2128 C 0.98276 0.02562 0.38601 0.0
H2129 H 0.97051 0.02251 0.42952 0.0
C2130 C 1.00142 0.02967 0.39102 0.0
C2131 C 0.97151 0.02318 0.40017 0.0
C2132 C 0.95136 0.01841 0.39579 0.0
C2133 C 1.00914 0.03146 0.40963 0.0
C2134 C 0.99791 0.02853 0.42382 0.0
C2135 C 0.97921 0.02472 0.41881 0.0
C2136 C 1.00525 0.02907 0.44379 0.0
C2137 C 0.0293 0.03695 0.41378 0.0
C2138 C 0.01804 0.01923 0.44882 0.0
C2139 C 0.02525 0.02011 0.46737 0.0
C2140 C 0.01921 0.03003 0.48167 0.0
C2141 C 1.00607 0.03957 0.47671 0.0
C2142 C 0.99927 0.03917 0.45803 0.0
H2143 H 0.03523 0.04472 0.40303 0.0
H2144 H 0.03363 0.0452 0.42749 0.0
H2145 H 0.03482 0.02473 0.41371 0.0
H2146 H 0.02256 0.01082 0.43838 0.0
H2147 H 0.03565 0.01302 0.47038 0.0
H2148 H 0.30296 0.68223 0.58785 0.0
H2149 H 0.30051 0.70258 0.61488 0.0
H2150 H 0.26503 0.65943 0.63516 0.0
H2151 H 0.26763 0.63887 0.60847 0.0
H2152 H 0.26714 0.70986 0.62368 0.0
H2153 H 0.30304 0.6818 0.67963 0.0
H2154 H 0.30519 0.67662 0.65544 0.0
H2155 H 0.28548 0.66594 0.66473 0.0
C2156 C 0.29499 0.67698 0.59829 0.0
C2157 C 0.28546 0.65902 0.5961 0.0
C2158 C 0.29349 0.68862 0.61356 0.0
C2159 C 0.28254 0.68236 0.62674 0.0
C2160 C 0.27364 0.66432 0.62506 0.0
H2161 H 0.24998 0.75128 0.71259 0.0
H2162 H 0.24864 0.73138 0.68375 0.0
C2163 C 0.27522 0.65263 0.60989 0.0
C2164 C 0.28011 0.6949 0.64206 0.0
H2165 H 0.28914 0.70511 0.68876 0.0
C2166 C 0.27196 0.70896 0.63796 0.0
C2167 C 0.28632 0.69333 0.66048 0.0
C2168 C 0.29562 0.6787 0.6654 0.0
C2169 C 0.27039 0.72205 0.65201 0.0
C2170 C 0.27693 0.72061 0.6704 0.0
C2171 C 0.28435 0.70611 0.6745 0.0
C2172 C 0.27745 0.73445 0.68572 0.0
C2173 C 0.26237 0.7375 0.64707 0.0
C2174 C 0.29405 0.74256 0.6961 0.0
C2175 C 0.29472 0.75302 0.71282 0.0
C2176 C 0.27881 0.75581 0.7189 0.0
C2177 C 0.2623 0.74892 0.70792 0.0
C2178 C 0.26156 0.73785 0.69147 0.0
H2179 H 0.2613 0.73843 0.63194 0.0
H2180 H 0.24869 0.73559 0.65123 0.0
H2181 H 0.2705 0.75041 0.65459 0.0
H2182 H 0.30641 0.74009 0.69166 0.0
H2183 H 0.30756 0.75879 0.72106 0.0
H2184 H 0.62216 0.0386 0.80282 0.0
H2185 H 0.60963 0.03816 0.83224 0.0
H2186 H 0.66204 0.04131 0.8614 0.0
H2187 H 0.67475 0.04163 0.83198 0.0
H2188 H 0.61475 0.01112 0.85954 0.0
H2189 H 0.63971 0.08396 0.88546 0.0
H2190 H 0.63626 0.07568 0.86105 0.0
H2191 H 0.65496 0.07194 0.8756 0.0
C2192 C 0.63098 0.03909 0.81549 0.0
C2193 C 0.64932 0.03987 0.81523 0.0
C2194 C 0.62383 0.03884 0.83218 0.0
C2195 C 0.63501 0.03962 0.84872 0.0
C2196 C 0.65334 0.04061 0.8486 0.0
H2197 H 0.60201 0.05413 0.95743 0.0
H2198 H 0.61861 0.0423 0.93413 0.0
C2199 C 0.66049 0.04066 0.83187 0.0
C2200 C 0.62728 0.03923 0.8661 0.0
H2201 H 0.62159 0.06631 0.90363 0.0
C2202 C 0.61638 0.02307 0.86939 0.0
C2203 C 0.62959 0.05495 0.87865 0.0
C2204 C 0.64069 0.07269 0.8751 0.0
C2205 C 0.60713 0.02237 0.88488 0.0
C2206 C 0.60899 0.0382 0.8971 0.0
C2207 C 0.6205 0.05417 0.8942 0.0
C2208 C 0.59739 0.03951 0.91153 0.0
C2209 C 0.59504 1.00498 0.88784 0.0
C2210 C 0.57989 0.04131 0.90637 0.0
C2211 C 0.57056 0.04839 0.9195 0.0
C2212 C 0.57866 0.05356 0.93786 0.0
C2213 C 0.59559 0.05029 0.94327 0.0
C2214 C 0.60499 0.0434 0.9301 0.0
H2215 H 0.59777 0.9933 0.87928 0.0
H2216 H 0.59671 1.0029 0.90268 0.0
H2217 H 0.58088 1.00557 0.88397 0.0
H2218 H 0.57403 0.03856 0.89196 0.0
H2219 H 0.55736 0.05052 0.9152 0.0
H2220 H 0.31964 0.35825 0.09709 0.0
H2221 H 0.31587 0.34386 0.12549 0.0
H2222 H 0.25953 0.34357 0.11823 0.0
H2223 H 0.26339 0.35844 0.09017 0.0
H2224 H 0.29882 0.35785 0.15896 0.0
H2225 H 0.26503 0.28968 0.12367 0.0
H2226 H 0.27887 0.30608 0.11211 0.0
H2227 H 0.25683 0.30838 0.11613 0.0
C2228 C 0.30642 0.35482 0.10143 0.0
C2229 C 0.29172 0.35906 0.09129 0.0
C2230 C 0.30431 0.34677 0.11772 0.0
C2231 C 0.2874 0.34253 0.12392 0.0
C2232 C 0.27267 0.34663 0.11366 0.0
H2233 H 0.25654 0.306 0.22856 0.0
H2234 H 0.25839 0.32044 0.20002 0.0
C2235 C 0.27486 0.35501 0.09761 0.0
C2236 C 0.28513 0.33381 0.1411 0.0
H2237 H 0.26802 0.29385 0.15643 0.0
C2238 C 0.29204 0.34388 0.15843 0.0
C2239 C 0.27633 0.31558 0.14038 0.0
C2240 C 0.26889 0.30417 0.12211 0.0
C2241 C 0.29027 0.33617 0.17503 0.0
C2242 C 0.28152 0.31792 0.17429 0.0
C2243 C 0.27467 0.30786 0.15697 0.0
C2244 C 0.27998 0.30891 0.19135 0.0
C2245 C 0.29806 0.34741 0.19332 0.0
C2246 C 0.29128 0.29742 0.19576 0.0
C2247 C 0.2901 0.28902 0.21188 0.0
C2248 C 0.27769 0.29207 0.22401 0.0
C2249 C 0.26629 0.3035 0.21953 0.0
C2250 C 0.26735 0.31176 0.20326 0.0
H2251 H 0.30504 0.36123 0.19156 0.0
H2252 H 0.28721 0.34824 0.20205 0.0
H2253 H 0.3077 0.34094 0.2009 0.0
H2254 H 0.30117 0.29511 0.18682 0.0
H2255 H 0.29921 0.28047 0.21511 0.0
H2256 H 0.23041 0.92562 0.00385 0.0
H2257 H 0.20261 0.93469 0.00967 0.0
H2258 H 0.22686 0.9892 0.00267 0.0
H2259 H 0.25486 0.98033 0.99739 0.0
H2260 H 0.2093 0.96886 0.04163 0.0
H2261 H 0.17083 0.97106 0.97337 0.0
H2262 H 0.18499 0.95533 0.97662 0.0
H2263 H 0.19492 0.97855 0.97619 0.0
C2264 C 0.22949 0.93937 0.0028 0.0
C2265 C 0.24448 0.95234 1.00002 0.0
C2266 C 0.21374 0.94449 0.0062 0.0
C2267 C 0.21286 0.96248 0.00632 0.0
C2268 C 0.22742 0.97521 0.00232 0.0
H2269 H 0.15543 0.03735 0.04366 0.0
H2270 H 0.17215 0.01906 0.02602 0.0
C2271 C 0.24329 0.97018 0.99932 0.0
C2272 C 0.19792 0.96861 0.01342 0.0
H2273 H 0.16111 0.98434 1.00022 0.0
C2274 C 0.19851 0.97194 0.03267 0.0
C2275 C 0.18427 0.97274 0.00148 0.0
C2276 C 0.18353 0.96921 0.98072 0.0
C2277 C 0.18594 0.98003 0.04042 0.0
C2278 C 0.17234 0.98442 0.02848 0.0
C2279 C 0.17151 0.98068 0.00919 0.0
C2280 C 0.15995 0.99435 0.03601 0.0
C2281 C 0.18778 0.98469 0.06123 0.0
C2282 C 0.1474 0.98621 0.04692 0.0
C2283 C 0.13818 0.99662 0.05715 0.0
C2284 C 0.14143 0.01512 0.05633 0.0
C2285 C 0.15309 0.02307 0.04451 0.0
C2286 C 0.1624 0.01268 0.03438 0.0
H2287 H 0.20067 0.98285 0.0682 0.0
H2288 H 0.18688 0.99882 0.06489 0.0
H2289 H 0.17668 0.97593 0.06681 0.0
H2290 H 0.1454 0.97201 0.04817 0.0
H2291 H 0.12889 0.99038 0.06603 0.0
H2292 H 0.71213 0.6517 0.99552 0.0
H2293 H 0.68261 0.63238 0.99742 0.0
H2294 H 0.706 0.60832 0.0417 0.0
H2295 H 0.73544 0.62713 0.03967 0.0
H2296 H 0.67463 0.59 0.99721 0.0
H2297 H 0.66213 0.63118 0.0596 0.0
H2298 H 0.67693 0.64036 0.04356 0.0
H2299 H 0.68409 0.62647 0.05974 0.0
C2300 C 0.71096 0.64213 0.00549 0.0
C2301 C 0.72606 0.64081 0.01735 0.0
C2302 C 0.69416 0.63118 0.00658 0.0
C2303 C 0.69225 0.61912 0.0198 0.0
C2304 C 0.7073 0.61761 0.03145 0.0
H2305 H 0.60516 0.54439 0.05606 0.0
H2306 H 0.63452 0.56297 0.05223 0.0
C2307 C 0.7241 0.62827 0.03016 0.0
C2308 C 0.67454 0.60807 0.02166 0.0
H2309 H 0.64181 0.60315 0.05015 0.0
C2310 C 0.66736 0.59289 0.00868 0.0
C2311 C 0.66526 0.61196 0.03673 0.0
C2312 C 0.67236 0.62843 0.0507 0.0
C2313 C 0.65114 0.58122 0.01059 0.0
C2314 C 0.64195 0.58501 0.02575 0.0
C2315 C 0.64906 0.60027 0.03866 0.0
C2316 C 0.62451 0.5736 0.02799 0.0
C2317 C 0.64405 0.56477 0.99658 0.0
C2318 C 0.60936 0.57363 0.01569 0.0
C2319 C 0.59273 0.56322 0.01789 0.0
C2320 C 0.591 0.55252 0.0324 0.0
C2321 C 0.60623 0.55239 0.04466 0.0
C2322 C 0.6229 0.56301 0.04255 0.0
H2323 H 0.65436 0.56194 0.98783 0.0
H2324 H 0.63926 0.55284 0.00365 0.0
H2325 H 0.63249 0.56685 0.98737 0.0
H2326 H 0.61038 0.58187 0.00448 0.0
H2327 H 0.58121 0.56356 0.0082 0.0
H2328 H 0.68078 0.491 0.2632 0.0
H2329 H 0.69398 0.46493 0.26177 0.0
H2330 H 0.68536 0.45884 0.31842 0.0
H2331 H 0.67143 0.48484 0.31977 0.0
H2332 H 0.72383 0.46167 0.28264 0.0
H2333 H 0.66571 0.40787 0.29251 0.0
H2334 H 0.66318 0.42972 0.28728 0.0
H2335 H 0.67195 0.42686 0.31023 0.0
C2336 C 0.68161 0.48412 0.27538 0.0
C2337 C 0.67512 0.49 0.29164 0.0
C2338 C 0.68913 0.46918 0.27452 0.0
C2339 C 0.69053 0.45985 0.28992 0.0
C2340 C 0.68409 0.46563 0.30625 0.0
H2341 H 0.75867 0.38179 0.28846 0.0
H2342 H 0.7416 0.40294 0.30076 0.0
C2343 C 0.67627 0.48054 0.30705 0.0
C2344 C 0.69958 0.44467 0.28875 0.0
H2345 H 0.69258 0.3991 0.28735 0.0
C2346 C 0.71706 0.44803 0.28391 0.0
C2347 C 0.69069 0.42688 0.29039 0.0
C2348 C 0.6718 0.42249 0.29526 0.0
C2349 C 0.72564 0.43404 0.27994 0.0
C2350 C 0.7166 0.41626 0.28109 0.0
C2351 C 0.6994 0.41284 0.28659 0.0
C2352 C 0.7245 0.40117 0.27496 0.0
C2353 C 0.74402 0.43819 0.2737 0.0
C2354 C 0.72022 0.39307 0.25652 0.0
C2355 C 0.73009 0.38129 0.24941 0.0
C2356 C 0.74426 0.37735 0.26072 0.0
C2357 C 0.74782 0.38468 0.27949 0.0
C2358 C 0.73807 0.39664 0.28654 0.0
H2359 H 0.74896 0.45272 0.27289 0.0
H2360 H 0.75369 0.43378 0.28351 0.0
H2361 H 0.7437 0.43065 0.25984 0.0
H2362 H 0.70981 0.39654 0.24741 0.0
H2363 H 0.72691 0.37553 0.23498 0.0
H2364 H 0.85278 0.4225 0.50715 0.0
H2365 H 0.88433 0.43712 0.51568 0.0
H2366 H 0.87125 0.489 0.51609 0.0
H2367 H 0.83954 0.47458 0.50775 0.0
H2368 H 0.90703 0.46447 0.49797 0.0
H2369 H 0.89592 0.48664 0.56992 0.0
H2370 H 0.88021 0.4689 0.55479 0.0
H2371 H 0.88121 0.49193 0.55162 0.0
C2372 C 0.85663 0.43702 0.50877 0.0
C2373 C 0.84378 0.44748 0.50717 0.0
C2374 C 0.87457 0.44527 0.51367 0.0
C2375 C 0.8797 0.46396 0.51692 0.0
C2376 C 0.86718 0.47448 0.51397 0.0
H2377 H 0.97375 0.54383 0.54082 0.0
H2378 H 0.94329 0.52603 0.54069 0.0
C2379 C 0.84921 0.46625 0.50909 0.0
C2380 C 0.89817 0.47252 0.52384 0.0
H2381 H 0.92469 0.49801 0.56126 0.0
C2382 C 0.91103 0.47167 0.51184 0.0
C2383 C 0.90296 0.48168 0.54198 0.0
C2384 C 0.8894 0.48227 0.55542 0.0
C2385 C 0.9288 0.48058 0.51729 0.0
C2386 C 0.93356 0.49006 0.53536 0.0
C2387 C 0.92076 0.49052 0.54753 0.0
C2388 C 0.95155 0.50084 0.54104 0.0
C2389 C 0.94212 0.48041 0.50346 0.0
C2390 C 0.96593 0.49243 0.54217 0.0
C2391 C 0.98305 0.50242 0.54169 0.0
C2392 C 0.98589 0.52091 0.54102 0.0
C2393 C 0.97169 0.52957 0.54172 0.0
C2394 C 0.95445 0.5195 0.54175 0.0
H2395 H 0.93544 0.47515 0.48917 0.0
H2396 H 0.95036 0.49412 0.50331 0.0
H2397 H 0.95127 0.47169 0.50748 0.0
H2398 H 0.96368 0.47796 0.5415 0.0
H2399 H 0.99358 0.49534 0.54009 0.0
H2400 H 0.35735 0.05778 0.27515 0.0
H2401 H 0.34599 0.08444 0.27053 0.0
H2402 H 0.35969 0.10357 0.32894 0.0
H2403 H 0.37177 0.07688 0.33358 0.0
H2404 H 0.31701 0.09092 0.29183 0.0
H2405 H 0.37713 0.14775 0.29944 0.0
H2406 H 0.37866 0.12499 0.29235 0.0
H2407 H 0.37547 0.13156 0.31577 0.0
C2408 C 0.358 0.06772 0.28699 0.0
C2409 C 0.36488 0.06529 0.30479 0.0
C2410 C 0.35168 0.08291 0.28431 0.0
C2411 C 0.35195 0.09567 0.29945 0.0
C2412 C 0.35953 0.09374 0.31717 0.0
H2413 H 0.31027 0.18883 0.27766 0.0
H2414 H 0.32022 0.16692 0.29574 0.0
C2415 C 0.36624 0.07858 0.31981 0.0
C2416 C 0.34254 0.10988 0.29653 0.0
H2417 H 0.3495 0.15314 0.28768 0.0
C2418 C 0.32397 0.10468 0.29133 0.0
C2419 C 0.35186 0.12762 0.29595 0.0
C2420 C 0.3719 0.13345 0.30113 0.0
C2421 C 0.31451 0.11662 0.28433 0.0
C2422 C 0.32401 0.13407 0.28262 0.0
C2423 C 0.34237 0.13965 0.28909 0.0
C2424 C 0.31575 0.14618 0.27237 0.0
C2425 C 0.29467 0.11022 0.27808 0.0
C2426 C 0.30999 0.14154 0.25333 0.0
C2427 C 0.30432 0.15397 0.24297 0.0
C2428 C 0.30448 0.17113 0.2516 0.0
C2429 C 0.30995 0.17559 0.27076 0.0
C2430 C 0.31558 0.16317 0.28108 0.0
H2431 H 0.28861 0.099 0.28554 0.0
H2432 H 0.28757 0.12126 0.28028 0.0
H2433 H 0.29254 0.10519 0.26306 0.0
H2434 H 0.31042 0.12853 0.24639 0.0
H2435 H 0.29993 0.15025 0.22826 0.0
H2436 H 0.31556 0.1237 0.54782 0.0
H2437 H 0.3417 0.11054 0.54941 0.0
H2438 H 0.36074 0.13884 0.50472 0.0
H2439 H 0.33463 0.15247 0.50325 0.0
H2440 H 0.35186 0.08883 0.52148 0.0
H2441 H 0.40439 0.15134 0.54489 0.0
H2442 H 0.3809 0.15028 0.54615 0.0
H2443 H 0.38956 0.15151 0.52429 0.0
C2444 C 0.32527 0.12716 0.53829 0.0
C2445 C 0.32301 0.13911 0.52536 0.0
C2446 C 0.34021 0.11962 0.53924 0.0
C2447 C 0.35318 0.12382 0.52728 0.0
C2448 C 0.35099 0.13566 0.51426 0.0
H2449 H 0.45377 0.08726 0.53103 0.0
H2450 H 0.42778 0.09838 0.51881 0.0
C2451 C 0.33603 0.14334 0.51337 0.0
C2452 C 0.36874 0.11539 0.52843 0.0
H2453 H 0.41395 0.12432 0.54102 0.0
C2454 C 0.36547 0.09658 0.52556 0.0
C2455 C 0.38645 0.12558 0.53372 0.0
C2456 C 0.39063 0.14579 0.5376 0.0
C2457 C 0.37941 0.08765 0.52835 0.0
C2458 C 0.39698 0.09783 0.53427 0.0
C2459 C 0.40041 0.11662 0.53639 0.0
C2460 C 0.41173 0.08933 0.54013 0.0
C2461 C 0.37519 0.06742 0.52528 0.0
C2462 C 0.41114 0.08055 0.55605 0.0
C2463 C 0.42598 0.0745 0.56314 0.0
C2464 C 0.44148 0.07704 0.5543 0.0
C2465 C 0.44185 0.08518 0.53797 0.0
C2466 C 0.42709 0.09149 0.53102 0.0
H2467 H 0.36253 0.06192 0.51582 0.0
H2468 H 0.38622 0.06241 0.51943 0.0
H2469 H 0.37353 0.06223 0.53878 0.0
H2470 H 0.39947 0.07899 0.56339 0.0
H2471 H 0.42549 0.06814 0.57572 0.0
H2472 H 0.69158 0.57862 0.28318 0.0
H2473 H 0.70935 0.60869 0.28136 0.0
H2474 H 0.68187 0.63082 0.32334 0.0
H2475 H 0.66384 0.60079 0.32515 0.0
H2476 H 0.69294 0.63999 0.27343 0.0
H2477 H 0.73789 0.6502 0.34018 0.0
H2478 H 0.72673 0.62816 0.32863 0.0
H2479 H 0.7143 0.64175 0.34086 0.0
C2480 C 0.6895 0.58983 0.29226 0.0
C2481 C 0.67634 0.58733 0.30438 0.0
C2482 C 0.69958 0.60699 0.29109 0.0
C2483 C 0.69691 0.62188 0.30225 0.0
C2484 C 0.68415 0.61943 0.3147 0.0
H2485 H 0.74267 0.73618 0.31268 0.0
H2486 H 0.72511 0.70625 0.31555 0.0
C2487 C 0.67388 0.60229 0.31571 0.0
C2488 C 0.70709 0.64007 0.30043 0.0
H2489 H 0.74005 0.67477 0.32293 0.0
C2490 C 0.70328 0.64761 0.2842 0.0
C2491 C 0.72046 0.64991 0.31458 0.0
C2492 C 0.72526 0.64214 0.33204 0.0
C2493 C 0.71248 0.66489 0.28181 0.0
C2494 C 0.72597 0.67466 0.29591 0.0
C2495 C 0.72969 0.66717 0.31217 0.0
C2496 C 0.73649 0.69267 0.29399 0.0
C2497 C 0.70756 0.67275 0.26443 0.0
C2498 C 0.74883 0.69481 0.28108 0.0
C2499 C 0.75902 0.71183 0.27955 0.0
C2500 C 0.75693 0.72696 0.29086 0.0
C2501 C 0.74456 0.72475 0.3038 0.0
C2502 C 0.73452 0.7077 0.30545 0.0
H2503 H 0.69465 0.66496 0.25661 0.0
H2504 H 0.70654 0.68688 0.26787 0.0
H2505 H 0.71821 0.67273 0.25528 0.0
H2506 H 0.7506 0.68329 0.27224 0.0
H2507 H 0.76829 0.71318 0.2693 0.0
H2508 H 0.8937 0.46762 0.80785 0.0
H2509 H 0.87893 0.4362 0.79904 0.0
H2510 H 0.82964 0.4468 0.81588 0.0
H2511 H 0.84418 0.47851 0.82442 0.0
H2512 H 0.86127 0.41202 0.82102 0.0
H2513 H 0.81647 0.42366 0.76103 0.0
H2514 H 0.83586 0.44039 0.7721 0.0
H2515 H 0.8155 0.43664 0.78262 0.0
C2516 C 0.87978 0.46325 0.80991 0.0
C2517 C 0.86995 0.47542 0.8166 0.0
C2518 C 0.8714 0.4454 0.80478 0.0
C2519 C 0.85324 0.43961 0.80646 0.0
C2520 C 0.84362 0.45141 0.81413 0.0
H2521 H 0.77866 0.34036 0.79303 0.0
H2522 H 0.79349 0.37206 0.79523 0.0
C2523 C 0.85194 0.46935 0.81913 0.0
C2524 C 0.84444 0.42104 0.80036 0.0
H2525 H 0.811 0.3942 0.76968 0.0
C2526 C 0.85035 0.40801 0.80974 0.0
C2527 C 0.83041 0.41624 0.78552 0.0
C2528 C 0.82426 0.42995 0.7746 0.0
C2529 C 0.84203 0.38999 0.80506 0.0
C2530 C 0.82772 0.38522 0.79046 0.0
C2531 C 0.82204 0.3982 0.78083 0.0
C2532 C 0.81786 0.3668 0.7858 0.0
C2533 C 0.84822 0.37635 0.8161 0.0
C2534 C 0.82665 0.35384 0.77914 0.0
C2535 C 0.81851 0.33591 0.77838 0.0
C2536 C 0.80131 0.3309 0.78368 0.0
C2537 C 0.79195 0.34398 0.78886 0.0
C2538 C 0.80029 0.36197 0.79003 0.0
H2539 H 0.8569 0.38276 0.82916 0.0
H2540 H 0.8366 0.36654 0.8196 0.0
H2541 H 0.8561 0.36885 0.80769 0.0
H2542 H 0.84022 0.35758 0.77575 0.0
H2543 H 0.82622 0.32612 0.7749 0.0
H2544 H 0.02713 0.84031 0.08777 0.0
H2545 H 0.02419 0.86974 0.0792 0.0
H2546 H 0.08158 0.88874 0.09032 0.0
H2547 H 0.08448 0.8589 0.09686 0.0
H2548 H 0.02764 0.90072 0.09225 0.0
H2549 H 0.07974 0.90953 0.04533 0.0
H2550 H 0.07298 0.88873 0.05466 0.0
H2551 H 0.08944 0.90723 0.06797 0.0
C2552 C 0.03916 0.85068 0.08803 0.0
C2553 C 0.05609 0.84687 0.09261 0.0
C2554 C 0.03749 0.86775 0.08319 0.0
C2555 C 0.05266 0.88195 0.08324 0.0
C2556 C 0.06952 0.87825 0.08885 0.0
H2557 H 0.06493 0.99828 0.07271 0.0
H2558 H 0.06783 0.96891 0.08144 0.0
C2559 C 0.07122 0.86101 0.09292 0.0
C2560 C 0.05078 0.90044 0.07796 0.0
H2561 H 0.06938 0.93556 0.05491 0.0
C2562 C 0.03676 0.90806 0.08389 0.0
C2563 C 0.06243 0.9107 0.06694 0.0
C2564 C 0.07684 0.90353 0.05821 0.0
C2565 C 0.0343 0.92508 0.07947 0.0
C2566 C 0.04623 0.93535 0.06896 0.0
C2567 C 0.06025 0.92795 0.0631 0.0
C2568 C 0.04424 0.9536 0.06367 0.0
C2569 C 0.01896 0.93212 0.08627 0.0
C2570 C 0.03023 0.95521 0.05039 0.0
C2571 C 0.02883 0.97208 0.04493 0.0
C2572 C 0.04103 0.98816 0.05292 0.0
C2573 C 0.05504 0.98647 0.06626 0.0
C2574 C 0.05674 0.96953 0.07134 0.0
H2575 H 0.01264 0.92418 0.09671 0.0
H2576 H 0.02362 0.94637 0.09245 0.0
H2577 H 1.0086 0.93152 0.07434 0.0
H2578 H 0.02046 0.94331 0.04393 0.0
H2579 H 0.01816 0.97237 0.03433 0.0
H2580 H 0.96939 0.29601 0.90423 0.0
H2581 H 0.94225 0.29803 0.88436 0.0
H2582 H 0.92136 0.24128 0.88355 0.0
H2583 H 0.94867 0.23923 0.90313 0.0
H2584 H 0.92715 0.27884 0.84789 0.0
H2585 H 0.8802 0.26438 0.90003 0.0
H2586 H 0.90421 0.27094 0.90625 0.0
H2587 H 0.8938 0.24838 0.89614 0.0
C2588 C 0.95902 0.28396 0.89973 0.0
C2589 C 0.96121 0.26745 0.9052 0.0
C2590 C 0.94348 0.28512 0.88838 0.0
C2591 C 0.9295 0.26986 0.88253 0.0
C2592 C 0.93174 0.25332 0.88798 0.0
H2593 H 0.82118 0.25141 0.82146 0.0
H2594 H 0.84867 0.24957 0.8407 0.0
C2595 C 0.94742 0.25212 0.89909 0.0
C2596 C 0.91279 0.2712 0.87059 0.0
H2597 H 0.86737 0.26621 0.86972 0.0
C2598 C 0.91408 0.27611 0.85267 0.0
C2599 C 0.89562 0.26758 0.87667 0.0
C2600 C 0.89327 0.26266 0.89587 0.0
C2601 C 0.8988 0.27698 0.84057 0.0
C2602 C 0.88155 0.27358 0.8467 0.0
C2603 C 0.88036 0.26882 0.86475 0.0
C2604 C 0.86463 0.2747 0.8347 0.0
C2605 C 0.90144 0.28086 0.82107 0.0
C2606 C 0.86393 0.28948 0.82491 0.0
C2607 C 0.84838 0.29015 0.81334 0.0
C2608 C 0.83274 0.27647 0.8118 0.0
C2609 C 0.83305 0.26209 0.82219 0.0
C2610 C 0.84882 0.2611 0.8333 0.0
H2611 H 0.9136 0.27687 0.81674 0.0
H2612 H 0.88976 0.2737 0.81093 0.0
H2613 H 0.90334 0.2955 0.82051 0.0
H2614 H 0.87537 0.30068 0.82627 0.0
H2615 H 0.84846 0.30167 0.80592 0.0
H2616 H 0.53429 0.23399 0.57741 0.0
H2617 H 0.53174 0.2016 0.56893 0.0
H2618 H 0.58347 0.20601 0.6 0.0
H2619 H 0.58595 0.23823 0.60839 0.0
H2620 H 0.5505 0.18037 0.55053 0.0
H2621 H 0.55386 0.16658 0.62344 0.0
H2622 H 0.55136 0.18797 0.61684 0.0
H2623 H 0.57313 0.18275 0.61935 0.0
C2624 C 0.54537 0.22816 0.58192 0.0
C2625 C 0.56063 0.23899 0.59307 0.0
C2626 C 0.54382 0.20949 0.57725 0.0
C2627 C 0.55724 0.20092 0.58402 0.0
C2628 C 0.57268 0.2119 0.59476 0.0
H2629 H 0.57458 0.09052 0.56459 0.0
H2630 H 0.57794 0.1231 0.57169 0.0
C2631 C 0.57428 0.23052 0.59927 0.0
C2632 C 0.55506 0.18065 0.58011 0.0
H2633 H 0.5559 0.14256 0.601 0.0
C2634 C 0.55162 0.17219 0.56164 0.0
C2635 C 0.55632 0.16954 0.59443 0.0
C2636 C 0.55868 0.17711 0.61462 0.0
C2637 C 0.5499 0.15343 0.5572 0.0
C2638 C 0.55154 0.14246 0.57148 0.0
C2639 C 0.55481 0.15081 0.58994 0.0
C2640 C 0.54956 0.12232 0.56741 0.0
C2641 C 0.54652 0.14534 0.53716 0.0
C2642 C 0.53254 0.11065 0.56277 0.0
C2643 C 0.53064 0.09192 0.55881 0.0
C2644 C 0.54571 0.08412 0.55907 0.0
C2645 C 0.56272 0.09585 0.56382 0.0
C2646 C 0.56462 0.1146 0.56805 0.0
H2647 H 0.54725 0.15571 0.52755 0.0
H2648 H 0.55646 0.1372 0.53424 0.0
H2649 H 0.53301 0.13622 0.53434 0.0
H2650 H 0.52063 0.11606 0.56218 0.0
H2651 H 0.51727 0.08352 0.55518 0.0
H2652 H 0.54982 0.79215 0.39328 0.0
H2653 H 0.57621 0.79255 0.37691 0.0
H2654 H 0.58853 0.74951 0.40552 0.0
H2655 H 0.56237 0.7493 0.42227 0.0
H2656 H 0.61666 0.79257 0.4011 0.0
H2657 H 0.58571 0.74 0.34178 0.0
H2658 H 0.57262 0.75404 0.35268 0.0
H2659 H 0.58 0.73733 0.36486 0.0
C2660 C 0.55801 0.78262 0.39592 0.0
C2661 C 0.55395 0.77065 0.40905 0.0
C2662 C 0.57313 0.78291 0.38661 0.0
C2663 C 0.58432 0.77103 0.38996 0.0
C2664 C 0.5801 0.75881 0.40274 0.0
H2665 H 0.68955 0.76858 0.35351 0.0
H2666 H 0.6617 0.76113 0.36784 0.0
C2667 C 0.56515 0.75871 0.4123 0.0
C2668 C 0.60069 0.77184 0.3805 0.0
H2669 H 0.61604 0.75451 0.34186 0.0
C2670 C 0.61657 0.78418 0.38822 0.0
C2671 C 0.60056 0.76084 0.36373 0.0
C2672 C 0.58386 0.74725 0.35512 0.0
C2673 C 0.63223 0.78597 0.37946 0.0
C2674 C 0.63202 0.77525 0.36249 0.0
C2675 C 0.6162 0.76273 0.35487 0.0
C2676 C 0.64794 0.77769 0.35216 0.0
C2677 C 0.6489 0.79957 0.38818 0.0
C2678 C 0.64931 0.78911 0.33829 0.0
C2679 C 0.66517 0.79339 0.33017 0.0
C2680 C 0.67991 0.78615 0.33558 0.0
C2681 C 0.67827 0.77407 0.34886 0.0
C2682 C 0.66242 0.7699 0.3571 0.0
H2683 H 0.64681 0.80723 0.40118 0.0
H2684 H 0.65992 0.79265 0.39136 0.0
H2685 H 0.65329 0.80915 0.37826 0.0
H2686 H 0.63836 0.79534 0.33433 0.0
H2687 H 0.66621 0.80295 0.32019 0.0
H2688 H 0.06746 0.27575 0.42808 0.0
H2689 H 0.06842 0.24912 0.44401 0.0
H2690 H 0.02024 0.22002 0.40926 0.0
H2691 H 0.01987 0.24619 0.39286 0.0
H2692 H 0.04679 0.22969 0.46414 0.0
H2693 H 0.05063 0.18498 0.40137 0.0
H2694 H 0.05323 0.20885 0.40137 0.0
H2695 H 0.0312 0.19424 0.39872 0.0
C2696 C 0.05709 0.26364 0.42394 0.0
C2697 C 0.04362 0.26297 0.40921 0.0
C2698 C 0.05765 0.2484 0.433 0.0
C2699 C 0.04469 0.23223 0.42756 0.0
C2700 C 0.03082 0.23196 0.41334 0.0
H2701 H 1.0075 0.12803 0.45783 0.0
H2702 H 0.01604 0.15526 0.44359 0.0
C2703 C 0.03047 0.24702 0.4041 0.0
C2704 C 0.04537 0.21574 0.43681 0.0
H2705 H 0.0424 0.17056 0.42777 0.0
C2706 C 0.04605 0.2168 0.45621 0.0
C2707 C 0.04463 0.19884 0.42659 0.0
C2708 C 0.04508 0.19668 0.40589 0.0
C2709 C 0.04482 0.20139 0.46547 0.0
C2710 C 0.04323 0.18433 0.45513 0.0
C2711 C 0.04344 0.18347 0.43582 0.0
C2712 C 0.03938 0.16704 0.46356 0.0
C2713 C 0.04433 0.20352 0.48616 0.0
C2714 C 0.04998 0.16389 0.47929 0.0
C2715 C 0.04482 0.14823 0.48781 0.0
C2716 C 0.02908 0.13526 0.48065 0.0
C2717 C 0.01939 0.13789 0.46412 0.0
C2718 C 0.02437 0.1535 0.45582 0.0
H2719 H 0.04136 0.21656 0.49123 0.0
H2720 H 0.03408 0.19256 0.49017 0.0
H2721 H 0.05761 0.20304 0.49329 0.0
H2722 H 0.06203 0.17368 0.48523 0.0
H2723 H 0.05274 0.14666 0.5004 0.0
H2724 H 0.58114 0.2816 0.23953 0.0
H2725 H 0.61339 0.28391 0.24865 0.0
H2726 H 0.60947 0.23296 0.2161 0.0
H2727 H 0.57754 0.23089 0.2068 0.0
H2728 H 0.63398 0.26549 0.2668 0.0
H2729 H 0.65006 0.26168 0.19476 0.0
H2730 H 0.62836 0.26405 0.20042 0.0
H2731 H 0.63374 0.2423 0.19828 0.0
C2732 C 0.58708 0.2707 0.2347 0.0
C2733 C 0.57651 0.25582 0.22278 0.0
C2734 C 0.60567 0.27209 0.23977 0.0
C2735 C 0.61437 0.25883 0.23281 0.0
C2736 C 0.60357 0.24371 0.2214 0.0
H2737 H 0.72491 0.24123 0.24676 0.0
H2738 H 0.69257 0.2386 0.23904 0.0
C2739 C 0.58509 0.24235 0.21634 0.0
C2740 C 0.63454 0.26074 0.23737 0.0
H2741 H 0.67314 0.25888 0.2179 0.0
C2742 C 0.64247 0.26416 0.25602 0.0
C2743 C 0.64606 0.2591 0.22352 0.0
C2744 C 0.63917 0.25677 0.20313 0.0
C2745 C 0.66107 0.26547 0.26112 0.0
C2746 C 0.67249 0.26357 0.24729 0.0
C2747 C 0.66461 0.26023 0.22865 0.0
C2748 C 0.69255 0.26519 0.25193 0.0
C2749 C 0.66827 0.26843 0.28144 0.0
C2750 C 0.70382 0.28107 0.26153 0.0
C2751 C 0.72239 0.28251 0.26614 0.0
C2752 C 0.73049 0.26812 0.26134 0.0
C2753 C 0.71929 0.25242 0.25125 0.0
C2754 C 0.70068 0.25097 0.24663 0.0
H2755 H 0.65741 0.26526 0.2903 0.0
H2756 H 0.6781 0.26007 0.28437 0.0
H2757 H 0.67522 0.28272 0.28538 0.0
H2758 H 0.69826 0.29251 0.26544 0.0
H2759 H 0.73039 0.29499 0.27363 0.0
H2760 H 0.52849 0.86262 0.89235 0.0
H2761 H 0.52631 0.8894 0.91242 0.0
H2762 H 0.56395 0.87785 0.95468 0.0
H2763 H 0.56605 0.85086 0.93475 0.0
H2764 H 0.51588 0.89187 0.94971 0.0
H2765 H 0.5849 0.93131 0.94765 0.0
H2766 H 0.5743 0.91226 0.93071 0.0
H2767 H 0.5832 0.90885 0.95341 0.0
C2768 C 0.5364 0.86576 0.90587 0.0
C2769 C 0.54754 0.85448 0.91178 0.0
C2770 C 0.53509 0.88112 0.9174 0.0
C2771 C 0.5451 0.88589 0.93507 0.0
C2772 C 0.55623 0.87468 0.94105 0.0
H2773 H 0.55774 0.97679 0.02264 0.0
H2774 H 0.55999 0.94943 0.00336 0.0
C2775 C 0.55737 0.85915 0.92962 0.0
C2776 C 0.54365 0.90239 0.94728 0.0
H2777 H 0.56749 0.9438 0.96793 0.0
C2778 C 0.52717 0.90323 0.95365 0.0
C2779 C 0.55832 0.9173 0.95254 0.0
C2780 C 0.57617 0.91757 0.94565 0.0
C2781 C 0.52507 0.91829 0.9653 0.0
C2782 C 0.53972 0.9333 0.97047 0.0
C2783 C 0.55621 0.93242 0.96409 0.0
C2784 C 0.53823 0.95001 0.98235 0.0
C2785 C 0.50723 0.91772 0.97236 0.0
C2786 C 0.52537 0.95975 0.97709 0.0
C2787 C 0.52405 0.97536 0.98818 0.0
C2788 C 0.53569 0.98183 0.00471 0.0
C2789 C 0.54854 0.97214 0.01001 0.0
C2790 C 0.54989 0.95652 0.99891 0.0
H2791 H 0.49949 0.90371 0.972 0.0
H2792 H 0.50898 0.92452 0.98678 0.0
H2793 H 0.49918 0.92468 0.96337 0.0
H2794 H 0.51635 0.95534 0.96432 0.0
H2795 H 0.51365 0.98214 0.98398 0.0
H2796 H 0.95386 0.75328 0.69661 0.0
H2797 H 0.924 0.75588 0.7043 0.0
H2798 H 0.94487 0.76764 0.76219 0.0
H2799 H 0.97456 0.76425 0.7546 0.0
H2800 H 0.90251 0.73554 0.7355 0.0
H2801 H 0.9176 0.81007 0.74441 0.0
H2802 H 0.92913 0.79741 0.72954 0.0
H2803 H 0.9343 0.7992 0.75422 0.0
C2804 C 0.95216 0.75648 0.711 0.0
C2805 C 0.96687 0.75864 0.72493 0.0
C2806 C 0.93494 0.7579 0.71542 0.0
C2807 C 0.93186 0.76205 0.7339 0.0
C2808 C 0.9466 0.7644 0.74782 0.0
H2809 H 0.84177 0.78871 0.78882 0.0
H2810 H 0.87078 0.78564 0.77967 0.0
C2811 C 0.9637 0.76247 0.74344 0.0
C2812 C 0.91343 0.76398 0.73866 0.0
H2813 H 0.88941 0.79526 0.75137 0.0
C2814 C 0.89967 0.74863 0.73888 0.0
C2815 C 0.90939 0.78095 0.7432 0.0
C2816 C 0.92326 0.79794 0.7428 0.0
C2817 C 0.88245 0.74977 0.74378 0.0
C2818 C 0.87835 0.7668 0.74828 0.0
C2819 C 0.89216 0.78214 0.74799 0.0
C2820 C 0.86009 0.76898 0.75363 0.0
C2821 C 0.869 0.73258 0.74469 0.0
C2822 C 0.84385 0.76104 0.74212 0.0
C2823 C 0.82704 0.76309 0.74724 0.0
C2824 C 0.82568 0.77317 0.76413 0.0
C2825 C 0.84194 0.7811 0.7756 0.0
C2826 C 0.85875 0.77924 0.77037 0.0
H2827 H 0.8756 0.72121 0.74632 0.0
H2828 H 0.86105 0.73399 0.75639 0.0
H2829 H 0.85964 0.72913 0.7316 0.0
H2830 H 0.84413 0.75334 0.72895 0.0
H2831 H 0.81504 0.75672 0.73787 0.0
H2832 H 0.08127 0.04674 0.84136 0.0
H2833 H 0.07219 0.04452 0.87241 0.0
H2834 H 0.12085 0.02841 0.89018 0.0
H2835 H 0.12983 0.03018 0.85894 0.0
H2836 H 0.06891 0.01232 0.89343 0.0
H2837 H 0.1179 0.07351 0.92849 0.0
H2838 H 0.11126 0.06987 0.90372 0.0
H2839 H 0.12641 0.05774 0.91395 0.0
C2840 C 0.09 0.0426 0.85183 0.0
C2841 C 0.10624 0.03854 0.84759 0.0
C2842 C 0.08479 0.04136 0.8696 0.0
C2843 C 0.09588 0.03644 0.88373 0.0
C2844 C 0.1121 0.03232 0.87956 0.0
H2845 H 0.07924 0.02484 1.00048 0.0
H2846 H 0.09171 0.0244 0.97077 0.0
C2847 C 0.11716 0.03322 0.86165 0.0
C2848 C 0.0903 0.0355 0.90269 0.0
H2849 H 0.09911 0.05688 0.94723 0.0
C2850 C 0.07558 0.02201 0.9052 0.0
C2851 C 0.09896 0.04815 0.9181 0.0
C2852 C 0.11445 0.06325 0.91606 0.0
C2853 C 0.06929 0.02088 0.9226 0.0
C2854 C 0.07777 0.03367 0.93793 0.0
C2855 C 0.09267 0.04701 0.93553 0.0
C2856 C 0.07051 0.03405 0.95615 0.0
C2857 C 0.05354 1.00601 0.92454 0.0
C2858 C 0.05458 0.03979 0.95792 0.0
C2859 C 0.04754 0.04026 0.97487 0.0
C2860 C 0.05611 0.03475 0.99053 0.0
C2861 C 0.07218 0.02906 0.98875 0.0
C2862 C 0.07935 0.02882 0.97176 0.0
H2863 H 0.05043 0.99544 0.91239 0.0
H2864 H 0.05623 0.99977 0.93729 0.0
H2865 H 0.04155 0.01167 0.92585 0.0
H2866 H 0.0476 0.04406 0.94615 0.0
H2867 H 0.03535 0.04502 0.97567 0.0
H2868 H 0.799 0.37945 0.54568 0.0
H2869 H 0.80041 0.36614 0.57462 0.0
H2870 H 0.77705 0.40698 0.60066 0.0
H2871 H 0.77594 0.42072 0.57163 0.0
H2872 H 0.81554 0.3932 0.61667 0.0
H2873 H 0.74863 0.34582 0.59955 0.0
H2874 H 0.76198 0.35209 0.58134 0.0
H2875 H 0.75241 0.36843 0.59345 0.0
C2876 C 0.79401 0.38547 0.55754 0.0
C2877 C 0.78709 0.40086 0.55658 0.0
C2878 C 0.79493 0.37796 0.57397 0.0
C2879 C 0.78867 0.3856 0.58945 0.0
C2880 C 0.78187 0.40104 0.58866 0.0
H2881 H 0.80375 0.34668 0.69619 0.0
H2882 H 0.79118 0.36249 0.67254 0.0
C2883 C 0.78121 0.40878 0.57222 0.0
C2884 C 0.78927 0.37709 0.60636 0.0
H2885 H 0.76766 0.34118 0.6253 0.0
C2886 C 0.80494 0.38213 0.61893 0.0
C2887 C 0.77546 0.36251 0.60874 0.0
C2888 C 0.75859 0.35679 0.59512 0.0
C2889 C 0.80744 0.37239 0.63372 0.0
C2890 C 0.79382 0.35748 0.63584 0.0
C2891 C 0.77789 0.3528 0.62359 0.0
C2892 C 0.79703 0.34561 0.64955 0.0
C2893 C 0.82498 0.3774 0.64639 0.0
C2894 C 0.80372 0.33058 0.64414 0.0
C2895 C 0.81097 0.32161 0.65753 0.0
C2896 C 0.81149 0.32759 0.6764 0.0
C2897 C 0.80344 0.34178 0.6817 0.0
C2898 C 0.79626 0.3508 0.66829 0.0
H2899 H 0.83452 0.3889 0.64226 0.0
H2900 H 0.82245 0.38101 0.66082 0.0
H2901 H 0.83138 0.36575 0.64634 0.0
H2902 H 0.8044 0.32655 0.62963 0.0
H2903 H 0.81687 0.31053 0.65318 0.0
H2904 H 0.4133 1.00099 0.36684 0.0
H2905 H 0.42675 0.99968 0.39831 0.0
H2906 H 0.44946 0.05667 0.40437 0.0
H2907 H 0.43581 0.05799 0.37279 0.0
H2908 H 0.46555 0.01176 0.40218 0.0
H2909 H 0.43382 0.04547 0.45637 0.0
H2910 H 0.42199 0.03595 0.4337 0.0
H2911 H 0.43803 0.05704 0.43651 0.0
C2912 C 0.42055 0.01331 0.37527 0.0
C2913 C 0.42368 0.0296 0.36783 0.0
C2914 C 0.42812 0.01255 0.39312 0.0
C2915 C 0.43888 0.02809 0.40346 0.0
C2916 C 0.44084 0.04467 0.39654 0.0
H2917 H 0.5167 0.05771 0.49766 0.0
H2918 H 0.4959 0.05562 0.46951 0.0
C2919 C 0.43318 0.04543 0.37863 0.0
C2920 C 0.45097 0.02633 0.41947 0.0
H2921 H 0.46227 0.03963 0.46557 0.0
C2922 C 0.46483 0.01766 0.41614 0.0
C2923 C 0.44982 0.03421 0.43737 0.0
C2924 C 0.43504 0.0436 0.44132 0.0
C2925 C 0.47826 0.01736 0.43033 0.0
C2926 C 0.47727 0.02548 0.44829 0.0
C2927 C 0.46296 0.03353 0.45169 0.0
C2928 C 0.49131 0.02666 0.46369 0.0
C2929 C 0.49369 0.00913 0.4257 0.0
C2930 C 0.49596 0.01113 0.46919 0.0
C2931 C 0.50844 0.01247 0.48467 0.0
C2932 C 0.51543 0.02919 0.4952 0.0
C2933 C 0.51107 0.04472 0.48963 0.0
C2934 C 0.49926 0.0435 0.47372 0.0
H2935 H 0.49502 1.0084 0.41066 0.0
H2936 H 0.50658 0.01688 0.43357 0.0
H2937 H 0.49127 0.99523 0.42935 0.0
H2938 H 0.48959 0.99799 0.46189 0.0
H2939 H 0.5118 1.00042 0.48906 0.0
H2940 H 0.7692 0.72914 0.07022 0.0
H2941 H 0.76905 0.74099 0.10279 0.0
H2942 H 0.79153 0.69788 0.12079 0.0
H2943 H 0.79229 0.68642 0.08882 0.0
H2944 H 0.75138 0.72481 0.12983 0.0
H2945 H 0.82445 0.73992 0.15247 0.0
H2946 H 0.81526 0.7351 0.12832 0.0
H2947 H 0.81586 0.71713 0.14221 0.0
C2948 C 0.77444 0.72242 0.08114 0.0
C2949 C 0.78093 0.70693 0.07676 0.0
C2950 C 0.77424 0.72913 0.09976 0.0
C2951 C 0.78058 0.72053 0.11435 0.0
C2952 C 0.78704 0.7051 0.10993 0.0
H2953 H 0.78949 0.73279 0.23496 0.0
H2954 H 0.78867 0.72237 0.20207 0.0
C2955 C 0.78737 0.6985 0.09149 0.0
C2956 C 0.7799 0.7271 0.13417 0.0
H2957 H 0.8056 0.73951 0.1764 0.0
C2958 C 0.76327 0.72823 0.13998 0.0
C2959 C 0.79536 0.73133 0.14754 0.0
C2960 C 0.81376 0.73097 0.1423 0.0
C2961 C 0.76162 0.73309 0.15875 0.0
C2962 C 0.7771 0.73734 0.17209 0.0
C2963 C 0.79371 0.73625 0.16626 0.0
C2964 C 0.77651 0.74314 0.19214 0.0
C2965 C 0.74322 0.73305 0.16416 0.0
C2966 C 0.77004 0.75836 0.19767 0.0
C2967 C 0.77051 0.76438 0.21651 0.0
C2968 C 0.77753 0.75536 0.23034 0.0
C2969 C 0.78397 0.74009 0.22477 0.0
C2970 C 0.78349 0.73408 0.20591 0.0
H2971 H 0.73252 0.72442 0.15375 0.0
H2972 H 0.74178 0.72828 0.1779 0.0
H2973 H 0.74107 0.74691 0.16501 0.0
H2974 H 0.76504 0.76592 0.18741 0.0
H2975 H 0.76581 0.7764 0.2202 0.0
H2976 H 0.10786 1.00509 0.73254 0.0
H2977 H 0.0973 1.00528 0.69963 0.0
H2978 H 0.0953 0.06086 0.71098 0.0
H2979 H 0.10523 0.06053 0.744 0.0
H2980 H 0.06321 0.01835 0.68451 0.0
H2981 H 0.12863 0.05485 0.6668 0.0
H2982 H 0.12699 0.0422 0.68635 0.0
H2983 H 0.12086 0.06347 0.68756 0.0
C2984 C 0.10476 0.01721 0.72805 0.0
C2985 C 0.1069 0.03266 0.74089 0.0
C2986 C 0.0989 0.01736 0.70925 0.0
C2987 C 0.09564 0.03312 0.70282 0.0
C2988 C 0.09773 0.04855 0.71563 0.0
H2989 H 0.06962 0.063 0.59287 0.0
H2990 H 0.08003 0.06251 0.62547 0.0
C2991 C 0.10316 0.04829 0.73451 0.0
C2992 C 0.08978 0.03335 0.68277 0.0
H2993 H 0.10404 0.04845 0.64317 0.0
C2994 C 0.07212 0.02488 0.67543 0.0
C2995 C 0.10141 0.04199 0.67099 0.0
C2996 C 0.12059 0.0511 0.67818 0.0
C2997 C 0.06563 0.02506 0.65673 0.0
C2998 C 0.0773 0.03345 0.64475 0.0
C2999 C 0.09504 0.04194 0.65218 0.0
C3000 C 0.07126 0.03372 0.62462 0.0
C3001 C 0.0461 0.01676 0.65025 0.0
C3002 C 0.06318 0.01776 0.61293 0.0
C3003 C 0.05654 0.01816 0.59441 0.0
C3004 C 0.05825 0.03451 0.58686 0.0
C3005 C 0.06731 0.05033 0.59829 0.0
C3006 C 0.07356 0.04999 0.61695 0.0
H3007 H 0.038 0.01608 0.66202 0.0
H3008 H 0.04041 0.02445 0.64003 0.0
H3009 H 0.04475 1.00283 0.64359 0.0
H3010 H 0.06188 1.00491 0.61812 0.0
H3011 H 0.05004 1.00558 0.58604 0.0
H3012 H 0.81292 0.37632 0.46086 0.0
H3013 H 0.81292 0.36256 0.42945 0.0
H3014 H 0.76641 0.38212 0.41102 0.0
H3015 H 0.7665 0.39647 0.44272 0.0
H3016 H 0.77749 0.33671 0.4142 0.0
H3017 H 0.80445 0.38886 0.37012 0.0
H3018 H 0.81156 0.39169 0.39479 0.0
H3019 H 0.7893 0.39318 0.38645 0.0
C3020 C 0.80274 0.37782 0.45013 0.0
C3021 C 0.78937 0.38695 0.45415 0.0
C3022 C 0.80296 0.37022 0.43222 0.0
C3023 C 0.78972 0.37151 0.4182 0.0
C3024 C 0.77681 0.38131 0.42185 0.0
H3025 H 0.76328 0.30847 0.31205 0.0
H3026 H 0.765 0.33021 0.33909 0.0
C3027 C 0.77674 0.38923 0.43986 0.0
C3028 C 0.78781 0.35983 0.40088 0.0
H3029 H 0.79777 0.35856 0.35659 0.0
C3030 C 0.78178 0.34142 0.40152 0.0
C3031 C 0.79348 0.36632 0.38464 0.0
C3032 C 0.80011 0.38609 0.38379 0.0
C3033 C 0.78166 0.32907 0.38623 0.0
C3034 C 0.78785 0.33548 0.37016 0.0
C3035 C 0.79335 0.35393 0.36925 0.0
C3036 C 0.78775 0.32307 0.35382 0.0
C3037 C 0.775 0.3093 0.38731 0.0
C3038 C 0.80001 0.31197 0.35357 0.0
C3039 C 0.79907 0.29945 0.33817 0.0
C3040 C 0.78593 0.29818 0.32309 0.0
C3041 C 0.7736 0.30928 0.32355 0.0
C3042 C 0.7746 0.32175 0.33883 0.0
H3043 H 0.76809 0.30685 0.39975 0.0
H3044 H 0.76561 0.30282 0.37474 0.0
H3045 H 0.78654 0.30275 0.38798 0.0
H3046 H 0.81018 0.31299 0.36527 0.0
H3047 H 0.80871 0.29104 0.3379 0.0
H3048 H 0.44263 0.04685 0.27587 0.0
H3049 H 0.4557 0.04589 0.24683 0.0
H3050 H 0.4066 0.01113 0.2189 0.0
H3051 H 0.39325 0.01221 0.24778 0.0
H3052 H 0.45855 0.01245 0.22843 0.0
H3053 H 0.42014 0.04909 0.18329 0.0
H3054 H 0.42074 0.05157 0.20823 0.0
H3055 H 0.40722 0.03179 0.19438 0.0
C3056 C 0.4345 0.0393 0.26347 0.0
C3057 C 0.41696 0.02964 0.26401 0.0
C3058 C 0.44195 0.03881 0.24695 0.0
C3059 C 0.43194 0.02869 0.23085 0.0
C3060 C 0.41429 0.01937 0.23119 0.0
H3061 H 0.46142 0.98968 0.12759 0.0
H3062 H 0.44456 1.0009 0.15117 0.0
C3063 C 0.40677 0.01993 0.24768 0.0
C3064 C 0.44073 0.02628 0.21428 0.0
H3065 H 0.44072 0.03447 0.16934 0.0
C3066 C 0.4548 0.01739 0.21555 0.0
C3067 C 0.43537 0.03244 0.19754 0.0
C3068 C 0.42011 0.04187 0.19571 0.0
C3069 C 0.46382 0.01447 0.20036 0.0
C3070 C 0.45891 0.02116 0.18373 0.0
C3071 C 0.44461 0.02978 0.18232 0.0
C3072 C 0.46807 0.01824 0.1675 0.0
C3073 C 0.4782 1.00385 0.20212 0.0
C3074 C 0.4866 0.02506 0.16861 0.0
C3075 C 0.4962 0.01833 0.15554 0.0
C3076 C 0.4872 1.00512 0.14113 0.0
C3077 C 0.46847 0.99968 0.13893 0.0
C3078 C 0.45889 1.00619 0.15218 0.0
H3079 H 0.47713 0.99599 0.21406 0.0
H3080 H 0.47744 0.99446 0.18933 0.0
H3081 H 0.49157 0.01322 0.20433 0.0
H3082 H 0.49375 0.03461 0.18027 0.0
H3083 H 0.51066 0.02287 0.15706 0.0
H3084 H 0.7455 0.69969 0.96042 0.0
H3085 H 0.74758 0.70889 0.92951 0.0
H3086 H 0.80495 0.72687 0.94298 0.0
H3087 H 0.80291 0.71647 0.97359 0.0
H3088 H 0.75719 0.74061 0.92045 0.0
H3089 H 0.80424 0.70243 0.89263 0.0
H3090 H 0.79459 0.69784 0.91361 0.0
H3091 H 0.81341 0.71644 0.914 0.0
C3092 C 0.75859 0.70546 0.95671 0.0
C3093 C 0.77403 0.70745 0.96946 0.0
C3094 C 0.75979 0.71071 0.93898 0.0
C3095 C 0.77644 0.71849 0.93358 0.0
C3096 C 0.79196 0.72046 0.94638 0.0
H3097 H 0.8061 0.76405 0.83246 0.0
H3098 H 0.80576 0.75314 0.86285 0.0
C3099 C 0.79079 0.71469 0.96401 0.0
C3100 C 0.77713 0.72558 0.91515 0.0
H3101 H 0.79656 0.72452 0.87505 0.0
C3102 C 0.76579 0.73701 0.91051 0.0
C3103 C 0.78844 0.72116 0.9021 0.0
C3104 C 0.80074 0.70867 0.90574 0.0
C3105 C 0.76557 0.74434 0.8936 0.0
C3106 C 0.77663 0.73968 0.88031 0.0
C3107 C 0.78803 0.72823 0.885 0.0
C3108 C 0.77678 0.74657 0.86169 0.0
C3109 C 0.75384 0.75751 0.8907 0.0
C3110 C 0.76074 0.7466 0.85049 0.0
C3111 C 0.76105 0.75394 0.83368 0.0
C3112 C 0.77733 0.76012 0.82683 0.0
C3113 C 0.79335 0.75931 0.8374 0.0
C3114 C 0.79311 0.75294 0.85476 0.0
H3115 H 0.75158 0.76428 0.90413 0.0
H3116 H 0.75979 0.76799 0.88235 0.0
H3117 H 0.74051 0.75017 0.88351 0.0
H3118 H 0.74787 0.74099 0.8547 0.0
H3119 H 0.74849 0.75448 0.82583 0.0
H3120 H 0.8044 0.07939 0.06152 0.0
H3121 H 0.83459 0.07401 0.06363 0.0
H3122 H 0.85468 0.12597 0.04682 0.0
H3123 H 0.82452 0.13163 0.04472 0.0
H3124 H 0.85235 0.07851 0.02816 0.0
H3125 H 0.89093 0.11741 0.09372 0.0
H3126 H 0.86686 0.1093 0.09132 0.0
H3127 H 0.87638 0.12749 0.07932 0.0
C3128 C 0.81525 0.08972 0.05841 0.0
C3129 C 0.8122 0.1058 0.05275 0.0
C3130 C 0.83242 0.08673 0.05987 0.0
C3131 C 0.84662 0.09982 0.05579 0.0
C3132 C 0.84375 0.116 0.05042 0.0
H3133 H 0.94351 0.08863 0.01868 0.0
H3134 H 0.92317 0.10227 0.03608 0.0
C3135 C 0.82655 0.11902 0.04892 0.0
C3136 C 0.86363 0.09507 0.05391 0.0
H3137 H 0.90634 0.10042 0.07478 0.0
C3138 C 0.86417 0.08321 0.03833 0.0
C3139 C 0.8788 0.10161 0.06722 0.0
C3140 C 0.87837 0.11465 0.08392 0.0
C3141 C 0.87969 0.07738 0.03572 0.0
C3142 C 0.89481 0.0834 0.0493 0.0
C3143 C 0.89445 0.09563 0.06474 0.0
C3144 C 0.91126 0.07769 0.04645 0.0
C3145 C 0.8798 0.06486 0.01839 0.0
C3146 C 0.91173 0.05971 0.04758 0.0
C3147 C 0.9231 0.05192 0.03751 0.0
C3148 C 0.93398 0.06221 0.02646 0.0
C3149 C 0.93491 0.08061 0.02701 0.0
C3150 C 0.92362 0.08841 0.03716 0.0
H3151 H 0.868 0.06404 0.00796 0.0
H3152 H 0.89213 0.0693 0.01187 0.0
H3153 H 0.87956 0.05119 0.02212 0.0
H3154 H 0.90199 0.05132 0.05456 0.0
H3155 H 0.92244 0.03768 0.03723 0.0
H3156 H 0.35213 0.43669 0.07648 0.0
H3157 H 0.38307 0.45392 0.07693 0.0
H3158 H 0.38347 0.43062 0.02085 0.0
H3159 H 0.35278 0.41308 0.02046 0.0
H3160 H 0.41573 0.43403 0.06105 0.0
H3161 H 0.3972 0.49199 0.03028 0.0
H3162 H 0.38266 0.4788 0.04417 0.0
H3163 H 0.38514 0.46944 0.02138 0.0
C3164 C 0.35878 0.43539 0.06422 0.0
C3165 C 0.35005 0.42363 0.0484 0.0
C3166 C 0.37646 0.44512 0.06454 0.0
C3167 C 0.38551 0.44348 0.04893 0.0
C3168 C 0.37673 0.43196 0.03305 0.0
H3169 H 0.48334 0.50587 0.01784 0.0
H3170 H 0.45319 0.48807 0.01926 0.0
C3171 C 0.35921 0.42201 0.03284 0.0
C3172 C 0.40408 0.45396 0.04905 0.0
H3173 H 0.42787 0.49275 0.03669 0.0
C3174 C 0.41849 0.44691 0.05581 0.0
C3175 C 0.40752 0.47054 0.04191 0.0
C3176 C 0.39239 0.47829 0.03402 0.0
C3177 C 0.43636 0.45598 0.0554 0.0
C3178 C 0.4399 0.47293 0.04866 0.0
C3179 C 0.42533 0.47988 0.04195 0.0
C3180 C 0.45847 0.48352 0.0479 0.0
C3181 C 0.45112 0.44688 0.06154 0.0
C3182 C 0.47162 0.48716 0.06352 0.0
C3183 C 0.48903 0.49683 0.06247 0.0
C3184 C 0.4934 0.50374 0.04607 0.0
C3185 C 0.48017 0.5008 0.0307 0.0
C3186 C 0.46296 0.4906 0.03153 0.0
H3187 H 0.44618 0.43208 0.06023 0.0
H3188 H 0.4625 0.44988 0.05331 0.0
H3189 H 0.45609 0.45163 0.07637 0.0
H3190 H 0.46845 0.48258 0.07656 0.0
H3191 H 0.49905 0.49908 0.07452 0.0
H3192 H 0.41163 0.57857 0.78868 0.0
H3193 H 0.39981 0.60581 0.7882 0.0
H3194 H 0.35789 0.57836 0.74484 0.0
H3195 H 0.36951 0.5512 0.74517 0.0
H3196 H 0.39226 0.62536 0.75498 0.0
H3197 H 0.33285 0.59764 0.78914 0.0
H3198 H 0.35282 0.58882 0.79067 0.0
H3199 H 0.33716 0.58336 0.76988 0.0
C3200 C 0.39985 0.57832 0.7791 0.0
C3201 C 0.39141 0.56266 0.76709 0.0
C3202 C 0.39321 0.59391 0.77876 0.0
C3203 C 0.37797 0.59402 0.76652 0.0
C3204 C 0.36962 0.57849 0.75444 0.0
H3205 H 0.30641 0.66627 0.75883 0.0
H3206 H 0.32257 0.64309 0.74997 0.0
C3207 C 0.37627 0.56297 0.7547 0.0
C3208 C 0.37027 0.6101 0.76674 0.0
H3209 H 0.33371 0.62535 0.77775 0.0
C3210 C 0.37947 0.62544 0.75996 0.0
C3211 C 0.35361 0.61008 0.77324 0.0
C3212 C 0.34353 0.59418 0.7813 0.0
C3213 C 0.37222 0.64072 0.75924 0.0
C3214 C 0.35549 0.64066 0.76568 0.0
C3215 C 0.3464 0.6253 0.77252 0.0
C3216 C 0.34751 0.65663 0.76678 0.0
C3217 C 0.3824 0.65668 0.75137 0.0
C3218 C 0.35642 0.67232 0.77841 0.0
C3219 C 0.34724 0.68558 0.78332 0.0
C3220 C 0.32903 0.68334 0.77669 0.0
C3221 C 0.32055 0.66844 0.76378 0.0
C3222 C 0.32973 0.65514 0.75888 0.0
H3223 H 0.39177 0.65273 0.74198 0.0
H3224 H 0.37313 0.66341 0.74361 0.0
H3225 H 0.39044 0.66651 0.76291 0.0
H3226 H 0.36998 0.67364 0.78497 0.0
H3227 H 0.3539 0.69682 0.79357 0.0
H3228 H 0.21742 0.58981 0.5166 0.0
H3229 H 0.18547 0.57849 0.51838 0.0
H3230 H 0.18739 0.62075 0.56277 0.0
H3231 H 0.21895 0.63258 0.56044 0.0
H3232 H 0.17226 0.56674 0.54942 0.0
H3233 H 0.14387 0.62359 0.52835 0.0
H3234 H 0.16626 0.62164 0.52473 0.0
H3235 H 0.16163 0.62962 0.54731 0.0
C3236 C 0.21082 0.59681 0.52642 0.0
C3237 C 0.22028 0.61208 0.53819 0.0
C3238 C 0.19276 0.59039 0.52746 0.0
C3239 C 0.18428 0.59907 0.54048 0.0
C3240 C 0.19374 0.61431 0.55228 0.0
H3241 H 0.07887 0.56824 0.57278 0.0
H3242 H 0.11038 0.58271 0.57183 0.0
C3243 C 0.21166 0.62097 0.55096 0.0
C3244 C 0.16577 0.59143 0.54252 0.0
H3245 H 0.12413 0.59996 0.53942 0.0
C3246 C 0.16169 0.57392 0.54716 0.0
C3247 C 0.15231 0.60116 0.53983 0.0
C3248 C 0.15618 0.62 0.53463 0.0
C3249 C 0.14415 0.56562 0.54887 0.0
C3250 C 0.13069 0.57518 0.54572 0.0
C3251 C 0.13477 0.59285 0.54163 0.0
C3252 C 0.11212 0.56681 0.54616 0.0
C3253 C 0.14006 0.54675 0.55395 0.0
C3254 C 0.10317 0.55339 0.5319 0.0
C3255 C 0.08541 0.54518 0.53246 0.0
C3256 C 0.07682 0.55058 0.54722 0.0
C3257 C 0.08568 0.5641 0.56138 0.0
C3258 C 0.10342 0.57228 0.56083 0.0
H3259 H 0.15236 0.54265 0.55947 0.0
H3260 H 0.13054 0.54549 0.56445 0.0
H3261 H 0.13364 0.53729 0.54141 0.0
H3262 H 0.10993 0.54932 0.52045 0.0
H3263 H 0.07841 0.53478 0.52147 0.0
H3264 H 0.68968 0.99107 0.78412 0.0
H3265 H 0.69453 0.96052 0.78265 0.0
H3266 H 0.73363 0.97337 0.74491 0.0
H3267 H 0.72917 1.00388 0.74645 0.0
H3268 H 0.69353 0.9333 0.74889 0.0
H3269 H 0.75929 0.95888 0.79302 0.0
H3270 H 0.74195 0.9714 0.79185 0.0
H3271 H 0.75546 0.97043 0.77331 0.0
C3272 C 0.69934 0.98736 0.77556 0.0
C3273 C 0.70932 0.99984 0.76567 0.0
C3274 C 0.7019 0.96994 0.77458 0.0
C3275 C 0.71438 0.96495 0.76365 0.0
C3276 C 0.72398 0.9772 0.75341 0.0
H3277 H 0.76768 0.87936 0.77222 0.0
H3278 H 0.75448 0.90025 0.75546 0.0
C3279 C 0.72156 0.9946 0.75449 0.0
C3280 C 0.71877 0.94751 0.76434 0.0
H3281 H 0.75179 0.9283 0.78129 0.0
C3282 C 0.70628 0.93207 0.75583 0.0
C3283 C 0.73537 0.94627 0.77352 0.0
C3284 C 0.74878 0.96257 0.78359 0.0
C3285 C 0.7101 0.91511 0.75631 0.0
C3286 C 0.72671 0.91386 0.76555 0.0
C3287 C 0.73923 0.92941 0.77381 0.0
C3288 C 0.73071 0.89671 0.76939 0.0
C3289 C 0.69638 0.89871 0.74717 0.0
C3290 C 0.72112 0.88713 0.78188 0.0
C3291 C 0.7286 0.8752 0.79144 0.0
C3292 C 0.74577 0.8729 0.78866 0.0
C3293 C 0.75438 0.88088 0.77455 0.0
C3294 C 0.74685 0.89276 0.76494 0.0
H3295 H 0.68701 0.90211 0.73622 0.0
H3296 H 0.70294 0.88841 0.74096 0.0
H3297 H 0.68839 0.89282 0.75776 0.0
H3298 H 0.7088 0.89026 0.78572 0.0
H3299 H 0.72167 0.86897 0.80211 0.0
H3300 H 0.74297 0.90645 0.52646 0.0
H3301 H 0.71533 0.91762 0.52498 0.0
H3302 H 0.73436 0.95008 0.57775 0.0
H3303 H 0.762 0.93933 0.57923 0.0
H3304 H 0.68876 0.91758 0.55128 0.0
H3305 H 0.72534 0.98587 0.54119 0.0
H3306 H 0.7349 0.96645 0.53802 0.0
H3307 H 0.73432 0.97701 0.56097 0.0
C3308 C 0.74126 0.91599 0.53772 0.0
C3309 C 0.75478 0.92223 0.55282 0.0
C3310 C 0.72544 0.92223 0.53692 0.0
C3311 C 0.72295 0.93475 0.5512 0.0
C3312 C 0.73617 0.94058 0.5665 0.0
H3313 H 0.64742 1.00346 0.55487 0.0
H3314 H 0.66777 0.98519 0.56623 0.0
C3315 C 0.75198 0.93446 0.56727 0.0
C3316 C 0.70708 0.94265 0.54964 0.0
H3317 H 0.69483 0.9821 0.54464 0.0
C3318 C 0.69002 0.93169 0.54986 0.0
C3319 C 0.70886 0.96106 0.54788 0.0
C3320 C 0.7268 0.9733 0.54684 0.0
C3321 C 0.6746 0.93875 0.54832 0.0
C3322 C 0.67643 0.95711 0.54631 0.0
C3323 C 0.69353 0.96806 0.54643 0.0
C3324 C 0.66094 0.96515 0.54205 0.0
C3325 C 0.65655 0.92657 0.54886 0.0
C3326 C 0.65004 0.9596 0.52499 0.0
C3327 C 0.63871 0.97016 0.51839 0.0
C3328 C 0.63808 0.98629 0.52885 0.0
C3329 C 0.64783 0.99108 0.54659 0.0
C3330 C 0.65933 0.98063 0.55309 0.0
H3331 H 0.65783 0.91485 0.5562 0.0
H3332 H 0.64754 0.93388 0.55578 0.0
H3333 H 0.65021 0.92143 0.53445 0.0
H3334 H 0.65127 0.94784 0.51615 0.0
H3335 H 0.63105 0.96615 0.50478 0.0
H3336 H 0.37332 0.47285 0.78646 0.0
H3337 H 0.35623 0.44189 0.78573 0.0
H3338 H 0.39505 0.42267 0.75528 0.0
H3339 H 0.41272 0.45338 0.75723 0.0
H3340 H 0.33958 0.41717 0.75957 0.0
H3341 H 0.39428 0.39095 0.79419 0.0
H3342 H 0.39635 0.41454 0.79279 0.0
H3343 H 0.4002 0.39994 0.77344 0.0
C3344 C 0.37822 0.46194 0.77978 0.0
C3345 C 0.39447 0.4654 0.77221 0.0
C3346 C 0.36846 0.44427 0.77932 0.0
C3347 C 0.37459 0.42979 0.77093 0.0
C3348 C 0.3904 0.43342 0.76257 0.0
H3349 H 0.33017 0.31374 0.75357 0.0
H3350 H 0.34735 0.34415 0.7516 0.0
C3351 C 0.40043 0.451 0.76354 0.0
C3352 C 0.36428 0.41099 0.77065 0.0
H3353 H 0.36808 0.36933 0.78063 0.0
C3354 C 0.34584 0.40676 0.76427 0.0
C3355 C 0.37238 0.39729 0.77674 0.0
C3356 C 0.39184 0.40094 0.78484 0.0
C3357 C 0.33535 0.38932 0.76371 0.0
C3358 C 0.34349 0.3757 0.76973 0.0
C3359 C 0.36192 0.37979 0.77589 0.0
C3360 C 0.33293 0.35731 0.77056 0.0
C3361 C 0.31566 0.38559 0.75652 0.0
C3362 C 0.31935 0.35463 0.78207 0.0
C3363 C 0.30953 0.33737 0.78317 0.0
C3364 C 0.31314 0.32236 0.77287 0.0
C3365 C 0.32694 0.32503 0.76153 0.0
C3366 C 0.33677 0.34237 0.76041 0.0
H3367 H 0.31261 0.3958 0.74773 0.0
H3368 H 0.31108 0.37211 0.74833 0.0
H3369 H 0.30784 0.38599 0.76844 0.0
H3370 H 0.31652 0.3659 0.79044 0.0
H3371 H 0.29939 0.3358 0.7925 0.0
H3372 H 0.18124 0.60216 0.28766 0.0
H3373 H 0.18924 0.63427 0.28534 0.0
H3374 H 0.24122 0.62929 0.27126 0.0
H3375 H 0.2334 0.59713 0.27346 0.0
H3376 H 0.22199 0.65771 0.30737 0.0
H3377 H 0.21879 0.65715 0.23079 0.0
H3378 H 0.20635 0.639 0.24144 0.0
H3379 H 0.22994 0.64127 0.24059 0.0
C3380 C 0.19441 0.60796 0.28419 0.0
C3381 C 0.20683 0.59737 0.28091 0.0
C3382 C 0.19883 0.62613 0.28272 0.0
C3383 C 0.21558 0.63371 0.27783 0.0
C3384 C 0.2281 0.62331 0.27475 0.0
H3385 H 0.28737 0.73104 0.27956 0.0
H3386 H 0.27091 0.70095 0.28373 0.0
C3387 C 0.22375 0.60514 0.27632 0.0
C3388 C 0.22072 0.65288 0.27763 0.0
H3389 H 0.23386 0.68448 0.24958 0.0
C3390 C 0.22429 0.66371 0.29477 0.0
C3391 C 0.22357 0.66026 0.26103 0.0
C3392 C 0.21935 0.64887 0.24236 0.0
C3393 C 0.23168 0.68199 0.29583 0.0
C3394 C 0.23528 0.68919 0.27935 0.0
C3395 C 0.23094 0.67855 0.26211 0.0
C3396 C 0.24491 0.70752 0.27982 0.0
C3397 C 0.2363 0.69343 0.31444 0.0
C3398 C 0.23541 0.72068 0.27646 0.0
C3399 C 0.2447 0.7376 0.27394 0.0
C3400 C 0.2634 0.74134 0.27527 0.0
C3401 C 0.27291 0.72831 0.27917 0.0
C3402 C 0.26363 0.71132 0.28149 0.0
H3403 H 0.23177 0.68584 0.32589 0.0
H3404 H 0.25104 0.69864 0.31729 0.0
H3405 H 0.23006 0.70518 0.31423 0.0
H3406 H 0.22089 0.71757 0.27485 0.0
H3407 H 0.23726 0.74738 0.26992 0.0
H3408 H 0.55214 0.73043 0.49172 0.0
H3409 H 0.5538 0.70133 0.5017 0.0
H3410 H 0.4977 0.68102 0.48202 0.0
H3411 H 0.49618 0.70998 0.47135 0.0
H3412 H 0.53974 0.68274 0.5262 0.0
H3413 H 0.5146 0.64001 0.45924 0.0
H3414 H 0.51983 0.66416 0.46098 0.0
H3415 H 0.49883 0.65226 0.46707 0.0
C3416 C 0.5401 0.71981 0.48947 0.0
C3417 C 0.52401 0.72282 0.48065 0.0
C3418 C 0.54107 0.70299 0.49521 0.0
C3419 C 0.52601 0.68843 0.49241 0.0
C3420 C 0.5098 0.69154 0.48394 0.0
H3421 H 0.51047 0.57566 0.51785 0.0
H3422 H 0.50672 0.60435 0.50796 0.0
C3423 C 0.50886 0.70834 0.478 0.0
C3424 C 0.52734 0.67044 0.49894 0.0
H3425 H 0.51879 0.62491 0.48544 0.0
C3426 C 0.53518 0.67015 0.51717 0.0
C3427 C 0.52133 0.65365 0.48749 0.0
C3428 C 0.51333 0.65249 0.46756 0.0
C3429 C 0.53694 0.654 0.52427 0.0
C3430 C 0.53124 0.63721 0.51274 0.0
C3431 C 0.52326 0.63749 0.49452 0.0
C3432 C 0.53347 0.61938 0.51917 0.0
C3433 C 0.54438 0.65531 0.54441 0.0
C3434 C 0.54973 0.61757 0.52876 0.0
C3435 C 0.55161 0.60122 0.53506 0.0
C3436 C 0.5377 0.58566 0.5313 0.0
C3437 C 0.5216 0.58723 0.52115 0.0
C3438 C 0.51946 0.60378 0.51536 0.0
H3439 H 0.54192 0.66731 0.55263 0.0
H3440 H 0.53838 0.64326 0.55072 0.0
H3441 H 0.55911 0.65675 0.54551 0.0
H3442 H 0.56122 0.62877 0.5313 0.0
H3443 H 0.5642 0.60077 0.54251 0.0
H3444 H 0.60436 0.26986 0.66772 0.0
H3445 H 0.63244 0.2693 0.6864 0.0
H3446 H 0.65565 0.32248 0.67466 0.0
H3447 H 0.62755 0.3229 0.6553 0.0
H3448 H 0.67046 0.27712 0.67294 0.0
H3449 H 0.66086 0.32062 0.73503 0.0
H3450 H 0.64226 0.30797 0.71855 0.0
H3451 H 0.65646 0.32768 0.71254 0.0
C3452 C 0.61538 0.28153 0.66918 0.0
C3453 C 0.61361 0.29651 0.66012 0.0
C3454 C 0.63148 0.28113 0.67982 0.0
C3455 C 0.64618 0.29586 0.68206 0.0
C3456 C 0.64449 0.31095 0.67317 0.0
H3457 H 0.75543 0.31275 0.73973 0.0
H3458 H 0.7281 0.31539 0.72066 0.0
C3459 C 0.62844 0.31119 0.66211 0.0
C3460 C 0.66319 0.29526 0.69365 0.0
H3461 H 0.6877 0.31033 0.73628 0.0
C3462 C 0.67427 0.28446 0.68674 0.0
C3463 C 0.66809 0.30463 0.71177 0.0
C3464 C 0.65633 0.31584 0.72009 0.0
C3465 C 0.69015 0.28298 0.69737 0.0
C3466 C 0.69508 0.29241 0.71546 0.0
C3467 C 0.684 0.30318 0.72239 0.0
C3468 C 0.7116 0.291 0.72739 0.0
C3469 C 0.70164 0.27131 0.6893 0.0
C3470 C 0.71141 0.27652 0.73771 0.0
C3471 C 0.72694 0.27512 0.74884 0.0
C3472 C 0.74314 0.28802 0.74968 0.0
C3473 C 0.74326 0.30251 0.73931 0.0
C3474 C 0.72763 0.30406 0.72843 0.0
H3475 H 0.69686 0.26606 0.6745 0.0
H3476 H 0.71574 0.27904 0.69045 0.0
H3477 H 0.70156 0.25979 0.69733 0.0
H3478 H 0.69924 0.26625 0.73712 0.0
H3479 H 0.72632 0.26374 0.75655 0.0
H3480 H 0.98208 0.32392 0.98549 0.0
H3481 H 0.98576 0.3559 0.9958 0.0
H3482 H 0.04177 0.36487 0.98875 0.0
H3483 H 0.03777 0.33303 0.97721 0.0
H3484 H 1.00175 0.37792 0.02282 0.0
H3485 H 0.03277 0.40481 0.96361 0.0
H3486 H 0.02393 0.38115 0.9635 0.0
H3487 H 0.04609 0.39171 0.97504 0.0
C3488 C 0.99521 0.33268 0.98606 0.0
C3489 C 1.0096 0.32569 0.9804 0.0
C3490 C 0.99733 0.35114 0.99201 0.0
C3491 C 0.01399 0.36337 0.99279 0.0
C3492 C 0.02854 0.35624 0.98769 0.0
H3493 H 0.05388 0.4786 0.03213 0.0
H3494 H 0.05006 0.4467 0.02145 0.0
C3495 C 0.02631 0.33781 0.98129 0.0
C3496 C 0.01603 0.38325 0.99938 0.0
H3497 H 0.03341 0.42597 0.98987 0.0
C3498 C 1.00857 0.38833 0.01542 0.0
C3499 C 0.02489 0.39728 0.98999 0.0
C3500 C 0.0322 0.39347 0.97199 0.0
C3501 C 1.00996 0.40654 0.02238 0.0
C3502 C 0.01903 0.42048 0.01313 0.0
C3503 C 0.02651 0.41548 0.99714 0.0
C3504 C 0.02115 0.44024 0.01986 0.0
C3505 C 1.00203 0.41063 0.03993 0.0
C3506 C 1.00624 0.44776 0.02242 0.0
C3507 C 1.00843 0.4662 0.02858 0.0
C3508 C 0.02554 0.47783 0.03235 0.0
C3509 C 0.04041 0.47029 0.02948 0.0
C3510 C 0.03825 0.45189 0.02333 0.0
H3511 H 1.0001 0.39907 0.04806 0.0
H3512 H 1.01066 0.4225 0.04885 0.0
H3513 H 0.9887 0.41358 0.03626 0.0
H3514 H 0.99281 0.43944 0.01936 0.0
H3515 H 0.99666 0.47138 0.02996 0.0
H3516 H 0.99626 0.80502 0.14253 0.0
H3517 H 0.96904 0.80489 0.15749 0.0
H3518 H 0.98558 0.77073 0.19589 0.0
H3519 H 0.01263 0.77076 0.18115 0.0
H3520 H 0.94167 0.77315 0.1633 0.0
H3521 H 0.97567 0.81436 0.229 0.0
H3522 H 0.98581 0.81426 0.20776 0.0
H3523 H 0.98563 0.79616 0.22153 0.0
C3524 C 0.99412 0.79755 0.15421 0.0
C3525 C 1.00671 0.78803 0.16073 0.0
C3526 C 0.97856 0.79747 0.16271 0.0
C3527 C 0.97546 0.78804 0.17798 0.0
C3528 C 0.98788 0.77837 0.18434 0.0
H3529 H 0.89908 0.75407 0.25019 0.0
H3530 H 0.9257 0.76456 0.23504 0.0
C3531 C 1.00333 0.77836 0.17584 0.0
C3532 C 0.95914 0.78787 0.18724 0.0
H3533 H 0.94561 0.79809 0.22933 0.0
C3534 C 0.94242 0.77886 0.17763 0.0
C3535 C 0.96022 0.79532 0.20593 0.0
C3536 C 0.97777 0.80572 0.21666 0.0
C3537 C 0.92688 0.77624 0.18655 0.0
C3538 C 0.92806 0.78318 0.20547 0.0
C3539 C 0.9447 0.7928 0.21484 0.0
C3540 C 0.91256 0.77912 0.21618 0.0
C3541 C 0.90953 0.76523 0.17591 0.0
C3542 C 0.89655 0.78448 0.21119 0.0
C3543 C 0.88138 0.7786 0.21997 0.0
C3544 C 0.88205 0.76733 0.23386 0.0
C3545 C 0.89832 0.76281 0.23954 0.0
C3546 C 0.91348 0.76877 0.23087 0.0
H3547 H 0.91169 0.75778 0.16281 0.0
H3548 H 0.90255 0.75545 0.18444 0.0
H3549 H 0.90057 0.77427 0.17232 0.0
H3550 H 0.89562 0.79272 0.20012 0.0
H3551 H 0.86891 0.78212 0.21531 0.0
H3552 H 0.54126 0.29089 0.1311 0.0
H3553 H 0.54145 0.31834 0.11673 0.0
H3554 H 0.5216 0.3414 0.16434 0.0
H3555 H 0.52108 0.31377 0.17874 0.0
H3556 H 0.50985 0.33662 0.11031 0.0
H3557 H 0.57035 0.3773 0.15573 0.0
H3558 H 0.56565 0.35308 0.1521 0.0
H3559 H 0.55289 0.36427 0.1666 0.0
C3560 C 0.53685 0.30176 0.13849 0.0
C3561 C 0.53111 0.30015 0.15604 0.0
C3562 C 0.53693 0.31741 0.13023 0.0
C3563 C 0.53159 0.3319 0.13948 0.0
C3564 C 0.52579 0.33036 0.15698 0.0
H3565 H 0.54623 0.44134 0.11268 0.0
H3566 H 0.53556 0.41401 0.12664 0.0
C3567 C 0.52543 0.31456 0.16515 0.0
C3568 C 0.53241 0.34868 0.13084 0.0
H3569 H 0.55707 0.3915 0.13295 0.0
C3570 C 0.52009 0.34868 0.11529 0.0
C3571 C 0.54575 0.36436 0.13741 0.0
C3572 C 0.55953 0.36489 0.15382 0.0
C3573 C 0.52079 0.36401 0.1061 0.0
C3574 C 0.53443 0.3796 0.11238 0.0
C3575 C 0.54656 0.37961 0.12814 0.0
C3576 C 0.53705 0.39584 0.10251 0.0
C3577 C 0.5068 0.36339 0.08989 0.0
C3578 C 0.54075 0.3948 0.08401 0.0
C3579 C 0.54661 0.41046 0.07594 0.0
C3580 C 0.54894 0.4274 0.08627 0.0
C3581 C 0.54418 0.42843 0.10433 0.0
C3582 C 0.53826 0.41281 0.11235 0.0
H3583 H 0.49439 0.35313 0.09059 0.0
H3584 H 0.50329 0.37662 0.08931 0.0
H3585 H 0.51212 0.35974 0.07683 0.0
H3586 H 0.54031 0.38192 0.07623 0.0
H3587 H 0.55065 0.40934 0.06217 0.0
H3588 H 0.99191 0.32659 0.34642 0.0
H3589 H 0.96016 0.32346 0.33464 0.0
H3590 H 0.95239 0.26595 0.3291 0.0
H3591 H 0.98435 0.26909 0.34029 0.0
H3592 H 0.93811 0.30368 0.29956 0.0
H3593 H 0.91389 0.27824 0.36292 0.0
H3594 H 0.9368 0.28993 0.36245 0.0
H3595 H 0.92928 0.26692 0.35241 0.0
C3596 C 0.98355 0.31326 0.34227 0.0
C3597 C 0.99094 0.29811 0.34394 0.0
C3598 C 0.96527 0.31147 0.33563 0.0
C3599 C 0.95354 0.29445 0.33103 0.0
C3600 C 0.96093 0.27927 0.33254 0.0
H3601 H 0.83651 0.25596 0.30175 0.0
H3602 H 0.86854 0.2597 0.31135 0.0
C3603 C 0.97935 0.28107 0.33875 0.0
C3604 C 0.93367 0.29264 0.32498 0.0
H3605 H 0.89183 0.27871 0.33817 0.0
C3606 C 0.92802 0.29824 0.30805 0.0
C3607 C 0.92024 0.28558 0.3359 0.0
C3608 C 0.92524 0.27992 0.35452 0.0
C3609 C 0.90961 0.29656 0.30158 0.0
C3610 C 0.89609 0.28955 0.31254 0.0
C3611 C 0.90184 0.28406 0.32956 0.0
C3612 C 0.87607 0.28747 0.30656 0.0
C3613 C 0.90489 0.30176 0.28266 0.0
C3614 C 0.86891 0.30178 0.30078 0.0
C3615 C 0.85034 0.29959 0.29511 0.0
C3616 C 0.83806 0.28312 0.2952 0.0
C3617 C 0.84522 0.26893 0.30136 0.0
C3618 C 0.86377 0.27107 0.30694 0.0
H3619 H 0.91577 0.30131 0.27385 0.0
H3620 H 0.89233 0.29278 0.27537 0.0
H3621 H 0.90301 0.31572 0.28421 0.0
H3622 H 0.87765 0.31482 0.3008 0.0
H3623 H 0.84565 0.31091 0.29078 0.0
H3624 H 0.99351 0.71224 0.63963 0.0
H3625 H 0.99508 0.6844 0.62083 0.0
H3626 H 0.03251 0.6741 0.6643 0.0
H3627 H 0.0296 0.70092 0.68358 0.0
H3628 H 0.01959 0.67402 0.6055 0.0
H3629 H 1.00217 0.62611 0.65594 0.0
H3630 H 1.00006 0.64901 0.66006 0.0
H3631 H 0.02147 0.64334 0.66523 0.0
C3632 C 1.00162 0.70367 0.64532 0.0
C3633 C 1.01096 0.7084 0.66328 0.0
C3634 C 1.00268 0.68784 0.63452 0.0
C3635 C 0.01354 0.67666 0.64122 0.0
C3636 C 0.02332 0.68181 0.65901 0.0
H3637 H 0.04995 0.58667 0.58688 0.0
H3638 H 0.0477 0.61436 0.60562 0.0
C3639 C 0.02172 0.69724 0.67004 0.0
C3640 C 0.01515 0.66007 0.62939 0.0
H3641 H 0.01474 0.61543 0.62972 0.0
C3642 C 0.01831 0.66121 0.61083 0.0
C3643 C 0.01357 0.64317 0.63615 0.0
C3644 C 1.00895 0.64029 0.65537 0.0
C3645 C 0.02004 0.64614 0.59908 0.0
C3646 C 0.0188 0.6295 0.60603 0.0
C3647 C 0.01578 0.62828 0.62449 0.0
C3648 C 0.02033 0.61308 0.59427 0.0
C3649 C 0.02334 0.64802 0.57931 0.0
C3650 C 1.00568 0.60319 0.58171 0.0
C3651 C 1.00686 0.58724 0.57126 0.0
C3652 C 0.02267 0.58094 0.57329 0.0
C3653 C 0.03746 0.59104 0.58552 0.0
C3654 C 0.03623 0.60689 0.59608 0.0
H3655 H 0.02542 0.66217 0.57638 0.0
H3656 H 0.03528 0.64282 0.5763 0.0
H3657 H 1.01168 0.63984 0.56975 0.0
H3658 H 0.99329 0.60774 0.58012 0.0
H3659 H 0.99543 0.5798 0.56163 0.0
H3660 H 0.59579 0.82605 0.83361 0.0
H3661 H 0.62389 0.82274 0.82144 0.0
H3662 H 0.62164 0.77386 0.84598 0.0
H3663 H 0.59407 0.77737 0.85853 0.0
H3664 H 0.6586 0.81762 0.84511 0.0
H3665 H 0.62902 0.7617 0.78903 0.0
H3666 H 0.61607 0.77677 0.79833 0.0
H3667 H 0.62165 0.75985 0.81152 0.0
C3668 C 0.6011 0.81445 0.83616 0.0
C3669 C 0.59233 0.80189 0.84694 0.0
C3670 C 0.61734 0.81262 0.8293 0.0
C3671 C 0.62511 0.79795 0.83258 0.0
C3672 C 0.61612 0.78526 0.84302 0.0
H3673 H 0.7169 0.75735 0.79455 0.0
H3674 H 0.68874 0.761 0.80562 0.0
C3675 C 0.60021 0.78729 0.85021 0.0
C3676 C 0.64267 0.79596 0.82557 0.0
H3677 H 0.66054 0.77039 0.79439 0.0
C3678 C 0.65898 0.80738 0.8339 0.0
C3679 C 0.64354 0.78234 0.81128 0.0
C3680 C 0.62669 0.76945 0.80187 0.0
C3681 C 0.67583 0.80548 0.82858 0.0
C3682 C 0.67673 0.79222 0.81376 0.0
C3683 C 0.66032 0.78072 0.80556 0.0
C3684 C 0.69435 0.78995 0.80669 0.0
C3685 C 0.69253 0.81728 0.83969 0.0
C3686 C 0.70735 0.80476 0.80302 0.0
C3687 C 0.72372 0.80265 0.79685 0.0
C3688 C 0.72767 0.78559 0.79348 0.0
C3689 C 0.71449 0.7707 0.79664 0.0
C3690 C 0.69822 0.77284 0.80312 0.0
H3691 H 0.69008 0.82162 0.85399 0.0
H3692 H 0.70374 0.81028 0.84067 0.0
H3693 H 0.69665 0.82956 0.83298 0.0
H3694 H 0.70485 0.8181 0.80475 0.0
H3695 H 0.73327 0.81452 0.79451 0.0
H3696 H 0.42821 0.51629 0.70817 0.0
H3697 H 0.44248 0.52029 0.68006 0.0
H3698 H 0.49408 0.53859 0.71316 0.0
H3699 H 0.4799 0.53415 0.74145 0.0
H3700 H 0.463 0.55071 0.6688 0.0
H3701 H 0.50293 0.49911 0.67644 0.0
H3702 H 0.48498 0.50094 0.69008 0.0
H3703 H 0.50647 0.51627 0.69585 0.0
C3704 C 0.44262 0.52116 0.70953 0.0
C3705 C 0.45293 0.52479 0.72712 0.0
C3706 C 0.45075 0.52346 0.69339 0.0
C3707 C 0.46939 0.52951 0.6944 0.0
C3708 C 0.47972 0.5335 0.71196 0.0
H3709 H 0.54299 0.5359 0.61216 0.0
H3710 H 0.52863 0.53666 0.63995 0.0
C3711 C 0.47159 0.53101 0.72815 0.0
C3712 C 0.47792 0.53154 0.67704 0.0
H3713 H 0.50743 0.51593 0.65164 0.0
C3714 C 0.47285 0.54325 0.66503 0.0
C3715 C 0.49067 0.52173 0.67209 0.0
C3716 C 0.49651 0.50868 0.68418 0.0
C3717 C 0.48067 0.54598 0.6486 0.0
C3718 C 0.49343 0.53603 0.64345 0.0
C3719 C 0.49801 0.52392 0.65539 0.0
C3720 C 0.50266 0.53804 0.62626 0.0
C3721 C 0.47547 0.56004 0.63753 0.0
C3722 C 0.49342 0.53912 0.60887 0.0
C3723 C 0.50242 0.54085 0.59311 0.0
C3724 C 0.52065 0.54025 0.59392 0.0
C3725 C 0.5295 0.53795 0.61102 0.0
C3726 C 0.52093 0.53766 0.627 0.0
H3727 H 0.47075 0.57027 0.64638 0.0
H3728 H 0.48683 0.56705 0.63089 0.0
H3729 H 0.46417 0.55353 0.62666 0.0
H3730 H 0.47915 0.53825 0.60722 0.0
H3731 H 0.49483 0.54184 0.5801 0.0
H3732 H 0.7931 0.19055 0.01363 0.0
H3733 H 0.79345 0.20266 0.98382 0.0
H3734 H 0.76152 0.15201 0.95613 0.0
H3735 H 0.76158 0.13967 0.98583 0.0
H3736 H 0.80219 0.18409 0.94492 0.0
H3737 H 0.73429 0.19698 0.95186 0.0
H3738 H 0.74928 0.19484 0.97174 0.0
H3739 H 0.7383 0.17534 0.9559 0.0
C3740 C 0.78656 0.18196 1.00106 0.0
C3741 C 0.77753 0.16424 0.00169 0.0
C3742 C 0.78679 0.1888 0.98419 0.0
C3743 C 0.77765 0.17806 0.96803 0.0
C3744 C 0.76887 0.16025 0.96857 0.0
H3745 H 0.75151 0.2105 0.86156 0.0
H3746 H 0.76249 0.1927 0.88425 0.0
C3747 C 0.76895 0.15328 0.9854 0.0
C3748 C 0.77585 0.18615 0.95099 0.0
H3749 H 0.74797 0.20654 0.92631 0.0
C3750 C 0.79032 0.18887 0.94062 0.0
C3751 C 0.76031 0.19233 0.94581 0.0
C3752 C 0.74462 0.18985 0.95688 0.0
C3753 C 0.7897 0.19807 0.92509 0.0
C3754 C 0.77433 0.20458 0.92023 0.0
C3755 C 0.75972 0.20144 0.93034 0.0
C3756 C 0.77301 0.21548 0.90521 0.0
C3757 C 0.80546 0.20122 0.91425 0.0
C3758 C 0.77566 0.23408 0.90967 0.0
C3759 C 0.76907 0.24416 0.89699 0.0
C3760 C 0.75989 0.23566 0.87979 0.0
C3761 C 0.75844 0.21722 0.87488 0.0
C3762 C 0.76488 0.20713 0.88763 0.0
H3763 H 0.81612 0.19454 0.91941 0.0
H3764 H 0.80095 0.19615 0.89938 0.0
H3765 H 0.81121 0.21586 0.9152 0.0
H3766 H 0.78174 0.24056 0.92337 0.0
H3767 H 0.77068 0.25846 0.90078 0.0
H3768 H 0.18052 0.54064 0.20559 0.0
H3769 H 0.16065 0.54242 0.17771 0.0
H3770 H 0.11482 0.53012 0.20741 0.0
H3771 H 0.1343 0.52803 0.23512 0.0
H3772 H 0.12611 0.50892 0.16554 0.0
H3773 H 0.11477 0.57814 0.17811 0.0
H3774 H 0.13534 0.57252 0.18727 0.0
H3775 H 0.11511 0.56501 0.19716 0.0
C3776 C 0.1662 0.53818 0.20607 0.0
C3777 C 0.15887 0.53392 0.22232 0.0
C3778 C 0.155 0.53944 0.19033 0.0
C3779 C 0.13654 0.53671 0.19094 0.0
C3780 C 0.12917 0.53249 0.20705 0.0
H3781 H 0.04596 0.54299 0.11657 0.0
H3782 H 0.06664 0.54185 0.14358 0.0
C3783 C 0.14027 0.53101 0.22267 0.0
C3784 C 0.12452 0.53603 0.17418 0.0
H3785 H 0.09732 0.55901 0.15255 0.0
C3786 C 0.1198 0.51982 0.16246 0.0
C3787 C 0.11626 0.55025 0.17093 0.0
C3788 C 0.1206 0.56754 0.18396 0.0
C3789 C 0.10632 0.51711 0.14758 0.0
C3790 C 0.09827 0.53152 0.14383 0.0
C3791 C 0.10344 0.54796 0.15546 0.0
C3792 C 0.08463 0.53003 0.12787 0.0
C3793 C 0.10044 0.49857 0.13679 0.0
C3794 C 0.08757 0.52327 0.11021 0.0
C3795 C 0.07489 0.52231 0.09508 0.0
C3796 C 0.05988 0.52964 0.09705 0.0
C3797 C 0.05713 0.53681 0.11466 0.0
C3798 C 0.06915 0.53651 0.13005 0.0
H3799 H 0.10275 0.48811 0.14559 0.0
H3800 H 0.08603 0.49542 0.13116 0.0
H3801 H 0.10855 0.49767 0.12515 0.0
H3802 H 0.09978 0.519 0.108 0.0
H3803 H 0.07737 0.51663 0.08172 0.0
H3804 H 0.78941 0.87891 0.47965 0.0
H3805 H 0.78706 0.86758 0.44657 0.0
H3806 H 0.79548 0.8168 0.46107 0.0
H3807 H 0.79828 0.82815 0.49409 0.0
H3808 H 0.81699 0.84965 0.4297 0.0
H3809 H 0.7471 0.80848 0.42079 0.0
H3810 H 0.75474 0.82793 0.43806 0.0
H3811 H 0.76156 0.8075 0.44151 0.0
C3812 C 0.79052 0.86525 0.47577 0.0
C3813 C 0.79397 0.85439 0.48949 0.0
C3814 C 0.78929 0.85885 0.45688 0.0
C3815 C 0.7911 0.84135 0.45137 0.0
C3816 C 0.79405 0.83034 0.46502 0.0
H3817 H 0.79346 0.7755 0.34809 0.0
H3818 H 0.7961 0.78852 0.3806 0.0
C3819 C 0.79562 0.83683 0.48387 0.0
C3820 C 0.79034 0.83461 0.43142 0.0
H3821 H 0.76378 0.80597 0.39563 0.0
C3822 C 0.80533 0.84019 0.4222 0.0
C3823 C 0.77515 0.82223 0.4217 0.0
C3824 C 0.75862 0.81617 0.43088 0.0
C3825 C 0.80558 0.83347 0.40358 0.0
C3826 C 0.79043 0.82097 0.39394 0.0
C3827 C 0.77541 0.81551 0.4031 0.0
C3828 C 0.78985 0.81353 0.37425 0.0
C3829 C 0.82206 0.83948 0.3943 0.0
C3830 C 0.78555 0.82332 0.35992 0.0
C3831 C 0.7839 0.81588 0.34134 0.0
C3832 C 0.78665 0.79853 0.33672 0.0
C3833 C 0.79134 0.78891 0.35114 0.0
C3834 C 0.79281 0.79631 0.36973 0.0
H3835 H 0.83326 0.8482 0.40407 0.0
H3836 H 0.82659 0.82761 0.38825 0.0
H3837 H 0.81875 0.84701 0.38273 0.0
H3838 H 0.78321 0.83663 0.36313 0.0
H3839 H 0.78045 0.82373 0.3306 0.0
H3840 H 0.47912 0.49948 0.82859 0.0
H3841 H 0.49113 0.50161 0.86119 0.0
H3842 H 0.46173 0.54188 0.87526 0.0
H3843 H 0.44931 0.53953 0.84258 0.0
H3844 H 0.51186 0.5297 0.88484 0.0
H3845 H 0.44717 0.5072 0.91203 0.0
H3846 H 0.4491 0.50503 0.88754 0.0
H3847 H 0.44828 0.52633 0.89966 0.0
C3848 C 0.47519 0.50883 0.83857 0.0
C3849 C 0.46319 0.51932 0.83286 0.0
C3850 C 0.48209 0.51002 0.85728 0.0
C3851 C 0.47717 0.52168 0.87087 0.0
C3852 C 0.46544 0.53245 0.86519 0.0
H3853 H 0.50265 0.54091 0.99174 0.0
H3854 H 0.49125 0.54109 0.95941 0.0
C3855 C 0.45846 0.53121 0.84643 0.0
C3856 C 0.48464 0.52269 0.89082 0.0
H3857 H 0.47295 0.51691 0.93413 0.0
C3858 C 0.50334 0.52688 0.89562 0.0
C3859 C 0.47359 0.51912 0.905 0.0
C3860 C 0.45343 0.51401 0.90084 0.0
C3861 C 0.51128 0.52786 0.91406 0.0
C3862 C 0.50025 0.52397 0.92824 0.0
C3863 C 0.48152 0.51987 0.92342 0.0
C3864 C 0.50774 0.52416 0.94811 0.0
C3865 C 0.53143 0.53357 0.91811 0.0
C3866 C 0.52088 0.5146 0.9529 0.0
C3867 C 0.52799 0.51513 0.97147 0.0
C3868 C 0.52161 0.52452 0.98593 0.0
C3869 C 0.50809 0.53365 0.98112 0.0
C3870 C 0.5014 0.53362 0.96252 0.0
H3871 H 0.53721 0.54169 0.90753 0.0
H3872 H 0.53573 0.54157 0.93196 0.0
H3873 H 0.53714 0.52147 0.91772 0.0
H3874 H 0.52568 0.50664 0.94229 0.0
H3875 H 0.53855 0.5082 0.97439 0.0
H3876 H 0.77473 0.13401 0.11689 0.0
H3877 H 0.77433 0.15211 0.14652 0.0
H3878 H 0.78321 0.20015 0.1197 0.0
H3879 H 0.78399 0.18248 0.09036 0.0
H3880 H 0.80774 0.19015 0.1578 0.0
H3881 H 0.73552 0.19256 0.153 0.0
H3882 H 0.74277 0.1733 0.14277 0.0
H3883 H 0.74665 0.19374 0.13247 0.0
C3884 C 0.77674 0.14845 0.11747 0.0
C3885 C 0.77966 0.15698 0.10161 0.0
C3886 C 0.77631 0.15862 0.13418 0.0
C3887 C 0.77848 0.17719 0.13483 0.0
C3888 C 0.78138 0.18572 0.11909 0.0
H3889 H 0.7705 0.26431 0.21274 0.0
H3890 H 0.7706 0.24408 0.18488 0.0
C3891 C 0.78208 0.17566 0.10253 0.0
C3892 C 0.77939 0.18824 0.15224 0.0
H3893 H 0.75523 0.21167 0.17718 0.0
C3894 C 0.79632 0.19479 0.16233 0.0
C3895 C 0.7644 0.19439 0.1573 0.0
C3896 C 0.74624 0.18815 0.1459 0.0
C3897 C 0.7989 0.20808 0.17735 0.0
C3898 C 0.78381 0.21402 0.18286 0.0
C3899 C 0.76674 0.20705 0.17289 0.0
C3900 C 0.78532 0.22722 0.19911 0.0
C3901 C 0.81784 0.21608 0.18643 0.0
C3902 C 0.79388 0.22458 0.21608 0.0
C3903 C 0.79499 0.2368 0.23159 0.0
C3904 C 0.78631 0.25103 0.23069 0.0
C3905 C 0.7775 0.25357 0.21376 0.0
C3906 C 0.77732 0.2419 0.19793 0.0
H3907 H 0.82769 0.21512 0.17648 0.0
H3908 H 0.81965 0.2304 0.19204 0.0
H3909 H 0.82106 0.20844 0.19792 0.0
H3910 H 0.79952 0.21296 0.21744 0.0
H3911 H 0.80218 0.2347 0.24437 0.0
H3912 H 0.12522 0.54439 0.30715 0.0
H3913 H 0.11116 0.54529 0.33559 0.0
H3914 H 0.15936 0.53823 0.36664 0.0
H3915 H 0.17365 0.5373 0.33818 0.0
H3916 H 0.10843 0.51574 0.36016 0.0
H3917 H 0.14469 0.58417 0.39343 0.0
H3918 H 0.14197 0.57793 0.36863 0.0
H3919 H 0.15747 0.56944 0.38331 0.0
C3920 C 0.13281 0.54294 0.32 0.0
C3921 C 0.15042 0.54051 0.32051 0.0
C3922 C 0.12479 0.5435 0.33617 0.0
C3923 C 0.13433 0.54181 0.35299 0.0
C3924 C 0.15193 0.53956 0.35365 0.0
H3925 H 0.09546 0.55699 0.45918 0.0
H3926 H 0.11259 0.54496 0.43658 0.0
C3927 C 0.15996 0.53888 0.33743 0.0
C3928 C 0.12547 0.54182 0.36972 0.0
H3929 H 0.12232 0.56831 0.40882 0.0
C3930 C 0.11158 0.52708 0.371 0.0
C3931 C 0.12977 0.55671 0.38361 0.0
C3932 C 0.14423 0.57305 0.38229 0.0
C3933 C 0.10135 0.52708 0.38573 0.0
C3934 C 0.10522 0.54224 0.39927 0.0
C3935 C 0.11964 0.55664 0.39841 0.0
C3936 C 0.09313 0.54477 0.413 0.0
C3937 C 0.08623 0.51119 0.38646 0.0
C3938 C 0.0764 0.54813 0.40706 0.0
C3939 C 0.06669 0.55514 0.41985 0.0
C3940 C 0.07364 0.55881 0.43867 0.0
C3941 C 0.08982 0.55422 0.44471 0.0
C3942 C 0.09957 0.54732 0.4319 0.0
H3943 H 0.08795 0.49898 0.37799 0.0
H3944 H 0.08526 0.50836 0.40097 0.0
H3945 H 0.0734 0.51423 0.38088 0.0
H3946 H 0.07144 0.54648 0.39242 0.0
H3947 H 0.05413 0.55836 0.41497 0.0
H3948 H 0.78425 0.8359 0.58155 0.0
H3949 H 0.77884 0.82211 0.61 0.0
H3950 H 0.79443 0.87436 0.64221 0.0
H3951 H 0.79953 0.88817 0.61412 0.0
H3952 H 0.80383 0.82466 0.64215 0.0
H3953 H 0.74654 0.8536 0.65971 0.0
H3954 H 0.75406 0.85374 0.63709 0.0
H3955 H 0.76617 0.86967 0.65625 0.0
C3956 C 0.78648 0.84442 0.5947 0.0
C3957 C 0.79221 0.86314 0.5955 0.0
C3958 C 0.78333 0.83655 0.61092 0.0
C3959 C 0.78586 0.84725 0.62819 0.0
C3960 C 0.79188 0.86587 0.62902 0.0
H3961 H 0.77079 0.82673 0.74182 0.0
H3962 H 0.7748 0.8401 0.71311 0.0
C3963 C 0.7949 0.87373 0.61289 0.0
C3964 C 0.78306 0.839 0.64552 0.0
H3965 H 0.75894 0.83818 0.68227 0.0
C3966 C 0.79396 0.8275 0.65092 0.0
C3967 C 0.77047 0.8431 0.65715 0.0
C3968 C 0.75854 0.8556 0.65223 0.0
C3969 C 0.79299 0.82029 0.66782 0.0
C3970 C 0.7799 0.82381 0.67926 0.0
C3971 C 0.76894 0.83531 0.67369 0.0
C3972 C 0.77728 0.81569 0.6969 0.0
C3973 C 0.80673 0.80976 0.67336 0.0
C3974 C 0.77709 0.79749 0.69764 0.0
C3975 C 0.77615 0.79025 0.71434 0.0
C3976 C 0.7734 0.80036 0.73053 0.0
C3977 C 0.77255 0.81837 0.72962 0.0
C3978 C 0.77477 0.82601 0.7131 0.0
H3979 H 0.81932 0.81431 0.66729 0.0
H3980 H 0.81011 0.81105 0.68864 0.0
H3981 H 0.80145 0.7954 0.66788 0.0
H3982 H 0.77808 0.78883 0.68537 0.0
H3983 H 0.77809 0.77675 0.71447 0.0
H3984 H 0.73909 0.42847 0.52699 0.0
H3985 H 0.7122 0.43901 0.53318 0.0
H3986 H 0.72205 0.47626 0.49301 0.0
H3987 H 0.74934 0.46595 0.4871 0.0
H3988 H 0.72166 0.48076 0.54392 0.0
H3989 H 0.66398 0.45099 0.48927 0.0
H3990 H 0.68118 0.43911 0.49549 0.0
H3991 H 0.6862 0.45787 0.48275 0.0
C3992 C 0.73495 0.43827 0.51886 0.0
C3993 C 0.74578 0.4463 0.50637 0.0
C3994 C 0.71972 0.44426 0.52241 0.0
C3995 C 0.71522 0.45815 0.51331 0.0
C3996 C 0.72533 0.46529 0.49982 0.0
H3997 H 0.65132 0.53249 0.54542 0.0
H3998 H 0.66795 0.51462 0.52717 0.0
C3999 C 0.74076 0.45944 0.49645 0.0
C4000 C 0.70233 0.46747 0.52062 0.0
H4001 H 0.65928 0.47207 0.51327 0.0
C4002 C 0.70802 0.47893 0.53726 0.0
C4003 C 0.68475 0.46493 0.51166 0.0
C4004 C 0.6785 0.45253 0.4938 0.0
C4005 C 0.69633 0.48796 0.5454 0.0
C4006 C 0.67859 0.48517 0.53666 0.0
C4007 C 0.67295 0.47395 0.51983 0.0
C4008 C 0.66589 0.49388 0.54527 0.0
C4009 C 0.70292 0.50038 0.56328 0.0
C4010 C 0.65919 0.48775 0.56113 0.0
C4011 C 0.65013 0.49803 0.57169 0.0
C4012 C 0.64759 0.51436 0.56629 0.0
C4013 C 0.65339 0.51995 0.5498 0.0
C4014 C 0.66263 0.50975 0.53934 0.0
H4015 H 0.71769 0.50285 0.56688 0.0
H4016 H 0.69918 0.51346 0.56226 0.0
H4017 H 0.69647 0.49437 0.57478 0.0
H4018 H 0.66173 0.47547 0.56576 0.0
H4019 H 0.64533 0.49339 0.58418 0.0
H4020 H 0.23304 0.11724 0.50091 0.0
H4021 H 0.20345 0.09849 0.50296 0.0
H4022 H 0.18628 0.14525 0.52533 0.0
H4023 H 0.21537 0.16409 0.52238 0.0
H4024 H 0.18718 0.09173 0.53215 0.0
H4025 H 0.1451 0.12416 0.48677 0.0
H4026 H 0.16918 0.12904 0.4879 0.0
H4027 H 0.15858 0.1399 0.50521 0.0
C4028 C 0.22278 0.12354 0.50585 0.0
C4029 C 0.22638 0.14217 0.51116 0.0
C4030 C 0.20594 0.11281 0.50713 0.0
C4031 C 0.19251 0.1205 0.51397 0.0
C4032 C 0.19617 0.13908 0.5194 0.0
H4033 H 0.09958 0.06116 0.55815 0.0
H4034 H 0.12923 0.07898 0.55447 0.0
C4035 C 0.21284 0.14985 0.51773 0.0
C4036 C 0.17493 0.10902 0.51615 0.0
H4037 H 0.12982 0.10451 0.50615 0.0
C4038 C 0.17463 0.09441 0.52631 0.0
C4039 C 0.15855 0.11243 0.50842 0.0
C4040 C 0.15785 0.12712 0.49631 0.0
C4041 C 0.15841 0.08321 0.52907 0.0
C4042 C 0.14205 0.08708 0.52195 0.0
C4043 C 0.14237 0.10162 0.51172 0.0
C4044 C 0.1244 0.07601 0.52443 0.0
C4045 C 0.15899 0.06714 0.5392 0.0
C4046 C 0.11164 0.06896 0.50887 0.0
C4047 C 0.09457 0.05947 0.51105 0.0
C4048 C 0.09018 0.05652 0.52877 0.0
C4049 C 0.10295 0.06313 0.54434 0.0
C4050 C 0.11986 0.07316 0.54222 0.0
H4051 H 0.17204 0.06319 0.53892 0.0
H4052 H 0.15728 0.07052 0.55393 0.0
H4053 H 0.1481 0.05544 0.53307 0.0
H4054 H 0.11483 0.07097 0.49503 0.0
H4055 H 0.08481 0.05436 0.4989 0.0
H4056 H 0.18352 0.99779 0.81555 0.0
H4057 H 0.19791 0.97208 0.81286 0.0
H4058 H 0.16898 0.95441 0.75806 0.0
H4059 H 0.15557 0.98052 0.76034 0.0
H4060 H 0.1865 0.93589 0.80703 0.0
H4061 H 0.21936 0.95909 0.74712 0.0
H4062 H 0.20798 0.97287 0.7608 0.0
H4063 H 0.19551 0.95582 0.74267 0.0
C4064 C 0.18021 0.98826 0.80305 0.0
C4065 C 0.16864 0.99103 0.78807 0.0
C4066 C 0.1884 0.97364 0.8015 0.0
C4067 C 0.18487 0.96161 0.78505 0.0
C4068 C 0.17236 0.96384 0.77062 0.0
H4069 H 0.21368 0.86833 0.73743 0.0
H4070 H 0.19727 0.88947 0.75077 0.0
C4071 C 0.1646 0.97863 0.77197 0.0
C4072 C 0.19465 0.94708 0.78253 0.0
H4073 H 0.21921 0.92897 0.75261 0.0
C4074 C 0.19383 0.93447 0.79525 0.0
C4075 C 0.20441 0.94539 0.76727 0.0
C4076 C 0.20704 0.95913 0.75382 0.0
C4077 C 0.2019 0.91979 0.79264 0.0
C4078 C 0.21083 0.91774 0.77693 0.0
C4079 C 0.2121 0.93057 0.76453 0.0
C4080 C 0.21873 0.90223 0.77251 0.0
C4081 C 0.20053 0.90628 0.80629 0.0
C4082 C 0.23594 0.90206 0.78084 0.0
C4083 C 0.2453 0.88994 0.77326 0.0
C4084 C 0.23756 0.8781 0.75722 0.0
C4085 C 0.21984 0.87739 0.74982 0.0
C4086 C 0.21048 0.88939 0.75743 0.0
H4087 H 0.19244 0.90937 0.81744 0.0
H4088 H 0.19438 0.89265 0.79895 0.0
H4089 H 0.21417 0.90606 0.81273 0.0
H4090 H 0.24256 0.91209 0.79232 0.0
H4091 H 0.25903 0.89077 0.77902 0.0
H4092 H 0.33757 0.96686 0.98523 0.0
H4093 H 0.36923 0.98212 0.99283 0.0
H4094 H 0.37804 0.94077 0.02615 0.0
H4095 H 0.34682 0.9252 0.01818 0.0
H4096 H 0.38475 0.99436 0.0298 0.0
H4097 H 0.41919 0.94607 0.99498 0.0
H4098 H 0.39562 0.94516 0.98913 0.0
H4099 H 0.40334 0.9364 0.00958 0.0
C4100 C 0.34642 0.96088 0.9938 0.0
C4101 C 0.33994 0.94494 1.00114 0.0
C4102 C 0.36434 0.96957 0.99815 0.0
C4103 C 0.37571 0.96238 0.00989 0.0
C4104 C 0.36939 0.9462 0.01674 0.0
H4105 H 0.48668 0.99299 0.04804 0.0
H4106 H 0.45509 0.98103 0.04879 0.0
C4107 C 0.35161 0.93737 0.01218 0.0
C4108 C 0.39392 0.9724 0.01616 0.0
H4109 H 0.43729 0.96987 0.01614 0.0
C4110 C 0.39633 0.98913 0.02684 0.0
C4111 C 0.4087 0.96519 0.01237 0.0
C4112 C 0.40663 0.94728 1.00076 0.0
C4113 C 0.41346 0.99899 0.03401 0.0
C4114 C 0.42828 0.9919 0.03 0.0
C4115 C 0.42578 0.97509 0.01938 0.0
C4116 C 0.44667 1.00212 0.03516 0.0
C4117 C 0.4155 0.01674 0.04584 0.0
C4118 C 0.45225 0.01845 0.02822 0.0
C4119 C 0.47039 0.02587 0.02879 0.0
C4120 C 0.48301 0.01658 0.03561 0.0
C4121 C 0.47735 1.00076 0.0434 0.0
C4122 C 0.45928 0.99379 0.0436 0.0
H4123 H 0.40347 0.01708 0.05296 0.0
H4124 H 0.42748 0.01958 0.05644 0.0
H4125 H 0.41698 0.02762 0.03683 0.0
H4126 H 0.44267 0.02476 0.02113 0.0
H4127 H 0.47442 0.03809 0.0226 0.0
H4128 H 0.86767 0.57859 0.84126 0.0
H4129 H 0.85725 0.60653 0.83847 0.0
H4130 H 0.84775 0.5931 0.77893 0.0
H4131 H 0.8573 0.56518 0.78169 0.0
H4132 H 0.86865 0.63578 0.81589 0.0
H4133 H 0.79867 0.59701 0.79476 0.0
H4134 H 0.81577 0.58738 0.80593 0.0
H4135 H 0.81451 0.58927 0.7815 0.0
C4136 C 0.8633 0.58176 0.82768 0.0
C4137 C 0.86268 0.56979 0.81172 0.0
C4138 C 0.85751 0.59759 0.8261 0.0
C4139 C 0.85147 0.60143 0.80855 0.0
C4140 C 0.85199 0.58998 0.79259 0.0
H4141 H 0.82358 0.67405 0.74411 0.0
H4142 H 0.8403 0.65772 0.76394 0.0
C4143 C 0.85732 0.57409 0.79418 0.0
C4144 C 0.84359 0.61684 0.80653 0.0
H4145 H 0.80582 0.62701 0.78661 0.0
C4146 C 0.8548 0.63406 0.80996 0.0
C4147 C 0.82551 0.61428 0.79885 0.0
C4148 C 0.81288 0.59598 0.7952 0.0
C4149 C 0.84859 0.64882 0.80456 0.0
C4150 C 0.83091 0.64598 0.79575 0.0
C4151 C 0.81939 0.62898 0.7935 0.0
C4152 C 0.82444 0.65974 0.78657 0.0
C4153 C 0.861 0.66714 0.80754 0.0
C4154 C 0.81024 0.66622 0.793 0.0
C4155 C 0.80061 0.67525 0.78169 0.0
C4156 C 0.80503 0.67771 0.7638 0.0
C4157 C 0.81986 0.67202 0.75777 0.0
C4158 C 0.82956 0.66306 0.76916 0.0
H4159 H 0.87326 0.66762 0.81719 0.0
H4160 H 0.86508 0.67078 0.79403 0.0
H4161 H 0.85398 0.67734 0.81313 0.0
H4162 H 0.80598 0.66332 0.80627 0.0
H4163 H 0.78916 0.6795 0.78656 0.0
H4164 H 0.81123 0.62327 0.0484 0.0
H4165 H 0.83704 0.60952 0.04991 0.0
H4166 H 0.86305 0.64723 0.0159 0.0
H4167 H 0.8371 0.66115 0.01421 0.0
H4168 H 0.85254 0.59489 0.01734 0.0
H4169 H 0.89903 0.65033 0.06511 0.0
H4170 H 0.87498 0.64724 0.0635 0.0
H4171 H 0.88661 0.65608 0.04523 0.0
C4172 C 0.8224 0.62865 0.04119 0.0
C4173 C 0.82216 0.64328 0.03115 0.0
C4174 C 0.8371 0.62075 0.04205 0.0
C4175 C 0.85186 0.62744 0.03307 0.0
C4176 C 0.85172 0.64199 0.02297 0.0
H4177 H 0.95356 0.59427 0.04759 0.0
H4178 H 0.92973 0.60727 0.03337 0.0
C4179 C 0.83691 0.64984 0.02195 0.0
C4180 C 0.86734 0.61902 0.03441 0.0
H4181 H 0.90959 0.62459 0.05673 0.0
C4182 C 0.86514 0.60143 0.02573 0.0
C4183 C 0.88364 0.62766 0.0454 0.0
C4184 C 0.88633 0.64634 0.05547 0.0
C4185 C 0.87876 0.59204 0.02812 0.0
C4186 C 0.89482 0.60045 0.03964 0.0
C4187 C 0.89727 0.61827 0.04777 0.0
C4188 C 0.90851 0.59053 0.04518 0.0
C4189 C 0.87575 0.57312 0.01859 0.0
C4190 C 0.90431 0.57668 0.05621 0.0
C4191 C 0.91786 0.56948 0.06446 0.0
C4192 C 0.93571 0.57597 0.06164 0.0
C4193 C 0.9398 0.58908 0.04978 0.0
C4194 C 0.92626 0.59646 0.0417 0.0
H4195 H 0.86557 0.57069 0.00613 0.0
H4196 H 0.8884 0.57022 0.01437 0.0
H4197 H 0.87075 0.56359 0.02832 0.0
H4198 H 0.89073 0.57216 0.05929 0.0
H4199 H 0.91453 0.55937 0.07362 0.0
H4200 H 0.15124 0.10398 0.80359 0.0
H4201 H 0.17067 0.1332 0.80189 0.0
H4202 H 0.21534 0.10829 0.79625 0.0
H4203 H 0.19592 0.07888 0.79758 0.0
H4204 H 0.20254 0.15139 0.82416 0.0
H4205 H 0.21382 0.13582 0.75102 0.0
H4206 H 0.19642 0.12206 0.76144 0.0
H4207 H 0.21931 0.12033 0.76625 0.0
C4208 C 0.16524 0.1047 0.80218 0.0
C4209 C 0.17202 0.08908 0.80062 0.0
C4210 C 0.17629 0.12141 0.80114 0.0
C4211 C 0.19431 0.12282 0.79857 0.0
C4212 C 0.20133 0.10739 0.79777 0.0
H4213 H 0.27851 0.20935 0.77654 0.0
H4214 H 0.25999 0.18075 0.78131 0.0
C4215 C 0.19026 0.09063 0.79868 0.0
C4216 C 0.20575 0.14047 0.79678 0.0
H4217 H 0.23023 0.16356 0.76705 0.0
C4218 C 0.20867 0.15412 0.81172 0.0
C4219 C 0.21362 0.1439 0.78049 0.0
C4220 C 0.21054 0.12982 0.7638 0.0
C4221 C 0.21979 0.17102 0.81112 0.0
C4222 C 0.22767 0.17457 0.79475 0.0
C4223 C 0.22441 0.1609 0.77967 0.0
C4224 C 0.23946 0.19221 0.79289 0.0
C4225 C 0.22333 0.1845 0.82835 0.0
C4226 C 0.23426 0.20831 0.79771 0.0
C4227 C 0.2456 0.22477 0.79639 0.0
C4228 C 0.26193 0.22557 0.78905 0.0
C4229 C 0.26661 0.20941 0.78318 0.0
C4230 C 0.25574 0.19295 0.7855 0.0
H4231 H 0.22162 0.17777 0.84102 0.0
H4232 H 0.23707 0.19311 0.83003 0.0
H4233 H 0.21348 0.19313 0.82748 0.0
H4234 H 0.22137 0.20824 0.80241 0.0
H4235 H 0.24121 0.23686 0.80061 0.0
H4236 H 0.37204 0.97524 0.28014 0.0
H4237 H 0.35475 0.94472 0.26933 0.0
H4238 H 0.35201 0.93446 0.32613 0.0
H4239 H 0.369 0.96537 0.337 0.0
H4240 H 0.36372 0.91211 0.27806 0.0
H4241 H 0.29936 0.92202 0.30105 0.0
H4242 H 0.31761 0.94057 0.29897 0.0
H4243 H 0.31843 0.92834 0.31862 0.0
C4244 C 0.36776 0.96634 0.29023 0.0
C4245 C 0.3717 0.97218 0.30926 0.0
C4246 C 0.35797 0.94909 0.28409 0.0
C4247 C 0.35214 0.93766 0.297 0.0
C4248 C 0.3563 0.9434 0.3161 0.0
H4249 H 0.30999 0.83342 0.30627 0.0
H4250 H 0.32729 0.86378 0.30517 0.0
C4251 C 0.36597 0.96082 0.32227 0.0
C4252 C 0.34165 0.91967 0.29033 0.0
H4253 H 0.30101 0.89209 0.29101 0.0
C4254 C 0.34992 0.90773 0.28059 0.0
C4255 C 0.32365 0.91437 0.29354 0.0
C4256 C 0.31415 0.92703 0.30348 0.0
C4257 C 0.34078 0.89 0.27489 0.0
C4258 C 0.32313 0.88454 0.27896 0.0
C4259 C 0.31455 0.8967 0.28777 0.0
C4260 C 0.31461 0.86573 0.27784 0.0
C4261 C 0.3502 0.87694 0.26552 0.0
C4262 C 0.30191 0.85723 0.26278 0.0
C4263 C 0.29197 0.83998 0.26347 0.0
C4264 C 0.29471 0.83163 0.27931 0.0
C4265 C 0.30764 0.84005 0.29415 0.0
C4266 C 0.31761 0.8571 0.29341 0.0
H4267 H 0.3631 0.88381 0.26127 0.0
H4268 H 0.35294 0.86732 0.27519 0.0
H4269 H 0.34144 0.86908 0.25311 0.0
H4270 H 0.2995 0.86404 0.25082 0.0
H4271 H 0.28213 0.83327 0.25186 0.0
H4272 H 0.59372 0.3569 0.59535 0.0
H4273 H 0.58965 0.38655 0.58908 0.0
H4274 H 0.5325 0.36794 0.58743 0.0
H4275 H 0.53683 0.33885 0.59543 0.0
H4276 H 0.57797 0.40141 0.56464 0.0
H4277 H 0.53298 0.41222 0.61663 0.0
H4278 H 0.54339 0.39336 0.61592 0.0
H4279 H 0.52292 0.39243 0.60094 0.0
C4280 C 0.58026 0.35914 0.59384 0.0
C4281 C 0.56566 0.34524 0.59611 0.0
C4282 C 0.57787 0.3763 0.59015 0.0
C4283 C 0.56071 0.38032 0.58814 0.0
C4284 C 0.54605 0.3661 0.58973 0.0
H4285 H 0.52525 0.4711 0.54141 0.0
H4286 H 0.52857 0.4419 0.55004 0.0
C4287 C 0.5485 0.34912 0.59406 0.0
C4288 C 0.55834 0.39899 0.58386 0.0
H4289 H 0.5351 0.43198 0.59339 0.0
C4290 C 0.56866 0.40797 0.57121 0.0
C4291 C 0.54637 0.40833 0.59224 0.0
C4292 C 0.53596 0.40117 0.60732 0.0
C4293 C 0.56717 0.4252 0.56663 0.0
C4294 C 0.55477 0.43405 0.57444 0.0
C4295 C 0.54448 0.42529 0.5871 0.0
C4296 C 0.55242 0.45233 0.56963 0.0
C4297 C 0.5789 0.43397 0.55329 0.0
C4298 C 0.56452 0.46838 0.57773 0.0
C4299 C 0.56234 0.48533 0.57313 0.0
C4300 C 0.54813 0.48694 0.55998 0.0
C4301 C 0.5362 0.47078 0.55173 0.0
C4302 C 0.53815 0.45387 0.55664 0.0
H4303 H 0.5869 0.42497 0.54716 0.0
H4304 H 0.57055 0.4381 0.54194 0.0
H4305 H 0.58823 0.44629 0.56069 0.0
H4306 H 0.57573 0.46781 0.58771 0.0
H4307 H 0.572 0.49724 0.57976 0.0
H4308 H 0.46702 0.79777 0.37825 0.0
H4309 H 0.43809 0.79651 0.36026 0.0
H4310 H 0.41304 0.75388 0.38946 0.0
H4311 H 0.44202 0.75512 0.40763 0.0
H4312 H 0.4155 0.7679 0.33669 0.0
H4313 H 0.3805 0.78955 0.39475 0.0
H4314 H 0.40453 0.7922 0.39694 0.0
H4315 H 0.39024 0.77063 0.39791 0.0
C4316 C 0.45539 0.7881 0.3809 0.0
C4317 C 0.45694 0.77655 0.39447 0.0
C4318 C 0.4388 0.78741 0.37057 0.0
C4319 C 0.42323 0.77528 0.37361 0.0
C4320 C 0.42473 0.7636 0.38703 0.0
H4321 H 0.31087 0.75806 0.32305 0.0
H4322 H 0.3386 0.75642 0.34202 0.0
C4323 C 0.44138 0.76423 0.39734 0.0
C4324 C 0.40563 0.77466 0.36236 0.0
H4325 H 0.36323 0.78101 0.36532 0.0
C4326 C 0.40408 0.77077 0.34298 0.0
C4327 C 0.39061 0.77828 0.37048 0.0
C4328 C 0.3915 0.78305 0.39114 0.0
C4329 C 0.38803 0.77027 0.33156 0.0
C4330 C 0.37311 0.77429 0.33962 0.0
C4331 C 0.37458 0.77795 0.35905 0.0
C4332 C 0.35612 0.77522 0.3281 0.0
C4333 C 0.38718 0.76508 0.31095 0.0
C4334 C 0.35653 0.78654 0.31414 0.0
C4335 C 0.34075 0.78737 0.3032 0.0
C4336 C 0.32402 0.77706 0.30604 0.0
C4337 C 0.32352 0.76603 0.32032 0.0
C4338 C 0.33939 0.76513 0.33122 0.0
H4339 H 0.39699 0.75685 0.30781 0.0
H4340 H 0.37358 0.7574 0.3048 0.0
H4341 H 0.39054 0.77741 0.30413 0.0
H4342 H 0.36907 0.79498 0.3118 0.0
H4343 H 0.34167 0.79648 0.2928 0.0
H4344 H 0.06626 0.7368 0.12451 0.0
H4345 H 0.0649 0.70502 0.11639 0.0
H4346 H 0.03544 0.70634 0.06329 0.0
H4347 H 0.03775 0.73876 0.07116 0.0
H4348 H 0.04051 0.67752 0.11166 0.0
H4349 H 0.06733 0.67749 0.04434 0.0
H4350 H 0.06814 0.698 0.05901 0.0
H4351 H 0.04793 0.68688 0.04398 0.0
C4352 C 0.05975 0.73046 0.1109 0.0
C4353 C 0.05231 0.74063 0.09845 0.0
C4354 C 0.05886 0.71206 0.10627 0.0
C4355 C 0.05024 0.70276 0.08904 0.0
C4356 C 0.04274 0.71291 0.07647 0.0
H4357 H 0.0202 0.58689 0.0472 0.0
H4358 H 0.02315 0.61954 0.053 0.0
C4359 C 0.04398 0.7316 0.081 0.0
C4360 C 0.04867 0.68254 0.08496 0.0
H4361 H 0.05394 0.64893 0.05252 0.0
C4362 C 0.04363 0.67145 0.09872 0.0
C4363 C 0.05269 0.67406 0.06816 0.0
C4364 C 0.0595 0.68474 0.05312 0.0
C4365 C 0.04234 0.65265 0.09616 0.0
C4366 C 0.04607 0.64422 0.07929 0.0
C4367 C 0.05099 0.65517 0.06547 0.0
C4368 C 0.04462 0.6241 0.07566 0.0
C4369 C 0.03664 0.64184 0.11151 0.0
C4370 C 0.05579 0.6154 0.08622 0.0
C4371 C 0.05418 0.59663 0.08279 0.0
C4372 C 0.04124 0.58596 0.06881 0.0
C4373 C 0.03019 0.59465 0.05819 0.0
C4374 C 0.03192 0.6134 0.06147 0.0
H4375 H 0.03073 0.64949 0.12199 0.0
H4376 H 0.02672 0.62924 0.10584 0.0
H4377 H 0.04852 0.63814 0.11864 0.0
H4378 H 0.06591 0.62317 0.09708 0.0
H4379 H 0.06302 0.59044 0.09113 0.0
H4380 H 0.06811 0.29159 0.91209 0.0
H4381 H 0.09618 0.29402 0.89825 0.0
H4382 H 0.08083 0.23767 0.8776 0.0
H4383 H 0.05263 0.23531 0.89074 0.0
H4384 H 0.12456 0.27791 0.90311 0.0
H4385 H 0.0913 0.25841 0.83077 0.0
H4386 H 0.07923 0.26373 0.84968 0.0
H4387 H 0.08434 0.24196 0.84584 0.0
C4388 C 0.07067 0.27975 0.90448 0.0
C4389 C 0.05794 0.26332 0.90228 0.0
C4390 C 0.08678 0.28114 0.89663 0.0
C4391 C 0.09056 0.26612 0.88649 0.0
C4392 C 0.07809 0.2496 0.88483 0.0
H4393 H 0.17473 0.25325 0.81749 0.0
H4394 H 0.15163 0.24695 0.8383 0.0
C4395 C 0.06193 0.24826 0.89243 0.0
C4396 C 0.10735 0.26771 0.87745 0.0
H4397 H 0.12257 0.2611 0.83548 0.0
C4398 C 0.12411 0.27426 0.88831 0.0
C4399 C 0.10691 0.26287 0.85813 0.0
C4400 C 0.08949 0.25651 0.84539 0.0
C4401 C 0.1403 0.27599 0.88043 0.0
C4402 C 0.1398 0.27132 0.86108 0.0
C4403 C 0.12306 0.26456 0.85032 0.0
C4404 C 0.15615 0.2744 0.85129 0.0
C4405 C 0.15779 0.28255 0.89298 0.0
C4406 C 0.16683 0.29179 0.85195 0.0
C4407 C 0.17998 0.29536 0.84004 0.0
C4408 C 0.18283 0.28162 0.82727 0.0
C4409 C 0.17298 0.26403 0.82738 0.0
C4410 C 0.1597 0.26047 0.8392 0.0
H4411 H 0.15632 0.2796 0.9074 0.0
H4412 H 0.16847 0.27635 0.88792 0.0
H4413 H 0.16214 0.29732 0.89341 0.0
H4414 H 0.16423 0.30287 0.86082 0.0
H4415 H 0.18727 0.30908 0.84008 0.0
H4416 H 0.58143 0.76229 0.92539 0.0
H4417 H 0.57936 0.73435 0.93915 0.0
H4418 H 0.5218 0.72238 0.92615 0.0
H4419 H 0.52394 0.74991 0.91147 0.0
H4420 H 0.56561 0.72316 0.96753 0.0
H4421 H 0.52992 0.67527 0.90707 0.0
H4422 H 0.53887 0.69858 0.90518 0.0
H4423 H 0.5174 0.69163 0.91326 0.0
C4424 C 0.56832 0.75367 0.92538 0.0
C4425 C 0.55284 0.75835 0.91727 0.0
C4426 C 0.56714 0.73764 0.93326 0.0
C4427 C 0.55045 0.72591 0.93346 0.0
C4428 C 0.53492 0.73077 0.92568 0.0
H4429 H 0.51619 0.64413 0.00211 0.0
H4430 H 0.525 0.67199 0.98829 0.0
C4431 C 0.53613 0.74665 0.91745 0.0
C4432 C 0.54932 0.70907 0.94247 0.0
H4433 H 0.53062 0.66393 0.93648 0.0
C4434 C 0.55807 0.71022 0.9606 0.0
C4435 C 0.53978 0.69196 0.93348 0.0
C4436 C 0.53114 0.68924 0.91361 0.0
C4437 C 0.55695 0.69504 0.97011 0.0
C4438 C 0.54664 0.67824 0.96146 0.0
C4439 C 0.53841 0.67687 0.94317 0.0
C4440 C 0.5433 0.66216 0.97153 0.0
C4441 C 0.56675 0.697 0.9894 0.0
C4442 C 0.55097 0.64748 0.96702 0.0
C4443 C 0.54616 0.63162 0.97518 0.0
C4444 C 0.5334 0.63012 0.98773 0.0
C4445 C 0.52619 0.64502 0.99263 0.0
C4446 C 0.53118 0.66091 0.9847 0.0
H4447 H 0.57637 0.7102 0.9931 0.0
H4448 H 0.55691 0.69568 0.99955 0.0
H4449 H 0.57416 0.68617 0.99065 0.0
H4450 H 0.56029 0.64812 0.95683 0.0
H4451 H 0.55171 0.62025 0.971 0.0
H4452 H 0.0833 0.78474 0.701 0.0
H4453 H 0.11496 0.78526 0.70885 0.0
H4454 H 0.10169 0.74927 0.74939 0.0
H4455 H 0.06961 0.74855 0.74137 0.0
H4456 H 0.13835 0.79607 0.73979 0.0
H4457 H 0.13323 0.72344 0.7206 0.0
H4458 H 0.1151 0.73414 0.71455 0.0
H4459 H 0.1191 0.72838 0.7376 0.0
C4460 C 0.08699 0.777 0.71175 0.0
C4461 C 0.07358 0.76666 0.72056 0.0
C4462 C 0.10529 0.77729 0.71622 0.0
C4463 C 0.11109 0.76707 0.72954 0.0
C4464 C 0.09781 0.75704 0.73877 0.0
H4465 H 0.21938 0.75414 0.77128 0.0
H4466 H 0.18707 0.75167 0.76452 0.0
C4467 C 0.07936 0.75684 0.73437 0.0
C4468 C 0.13094 0.76732 0.73368 0.0
H4469 H 0.16168 0.7407 0.73435 0.0
C4470 C 0.14336 0.7839 0.73858 0.0
C4471 C 0.13788 0.75158 0.73205 0.0
C4472 C 0.12571 0.73337 0.72574 0.0
C4473 C 0.16208 0.78519 0.7422 0.0
C4474 C 0.16905 0.76946 0.74059 0.0
C4475 C 0.15664 0.75284 0.73572 0.0
C4476 C 0.18904 0.77008 0.7439 0.0
C4477 C 0.17417 0.80351 0.74818 0.0
C4478 C 0.20138 0.78077 0.7343 0.0
C4479 C 0.22 0.78212 0.73811 0.0
C4480 C 0.22712 0.77266 0.75155 0.0
C4481 C 0.21471 0.76149 0.76071 0.0
C4482 C 0.19604 0.76015 0.75689 0.0
H4483 H 0.16673 0.81316 0.75415 0.0
H4484 H 0.18547 0.80291 0.75865 0.0
H4485 H 0.17976 0.80883 0.73593 0.0
H4486 H 0.19662 0.78821 0.7238 0.0
H4487 H 0.22886 0.79076 0.73052 0.0
H4488 H 0.0662 0.37178 0.41982 0.0
H4489 H 0.06744 0.40036 0.43898 0.0
H4490 H 1.01163 0.38266 0.44537 0.0
H4491 H 1.0105 0.35405 0.42694 0.0
H4492 H 0.04981 0.42741 0.43575 0.0
H4493 H 0.03246 0.39659 0.49858 0.0
H4494 H 0.03837 0.3841 0.47883 0.0
H4495 H 0.01598 0.38764 0.47889 0.0
C4496 C 0.05422 0.37396 0.42539 0.0
C4497 C 0.03832 0.36043 0.42204 0.0
C4498 C 0.05493 0.39035 0.43635 0.0
C4499 C 0.03975 0.39363 0.44413 0.0
C4500 C 0.02373 0.38036 0.44017 0.0
H4501 H 1.00903 0.47637 0.5155 0.0
H4502 H 1.0115 0.44964 0.49561 0.0
C4503 C 0.02308 0.36396 0.42949 0.0
C4504 C 0.04046 0.41081 0.45634 0.0
H4505 H 0.03094 0.42711 0.49861 0.0
C4506 C 0.0458 0.42736 0.44956 0.0
C4507 C 0.03533 0.41092 0.47445 0.0
C4508 C 0.03039 0.39387 0.4832 0.0
C4509 C 0.04536 0.44379 0.45993 0.0
C4510 C 0.03983 0.44384 0.47792 0.0
C4511 C 0.03498 0.42728 0.48483 0.0
C4512 C 0.0384 0.46063 0.48971 0.0
C4513 C 0.05016 0.46079 0.45107 0.0
C4514 C 0.05266 0.47593 0.49335 0.0
C4515 C 0.05101 0.49146 0.50434 0.0
C4516 C 0.03535 0.49185 0.51259 0.0
C4517 C 0.02132 0.47644 0.50946 0.0
C4518 C 0.02275 0.46112 0.49804 0.0
H4519 H 0.04861 0.45796 0.4357 0.0
H4520 H 0.04171 0.47028 0.45492 0.0
H4521 H 0.06441 0.46741 0.45578 0.0
H4522 H 0.06519 0.47588 0.48787 0.0
H4523 H 0.06213 0.50308 0.50667 0.0
H4524 H 0.4751 0.24854 0.25086 0.0
H4525 H 0.4457 0.25276 0.25853 0.0
H4526 H 0.43015 0.25811 0.20151 0.0
H4527 H 0.45977 0.25458 0.19392 0.0
H4528 H 0.42657 0.28557 0.24689 0.0
H4529 H 0.38977 0.21553 0.22152 0.0
H4530 H 0.41354 0.22097 0.22948 0.0
H4531 H 0.40553 0.22706 0.20768 0.0
C4532 C 0.4655 0.2507 0.23992 0.0
C4533 C 0.47013 0.2513 0.22172 0.0
C4534 C 0.44856 0.25313 0.24435 0.0
C4535 C 0.43534 0.25575 0.23069 0.0
C4536 C 0.43988 0.2562 0.21247 0.0
H4537 H 0.31924 0.25252 0.23201 0.0
H4538 H 0.34893 0.25053 0.22405 0.0
C4539 C 0.45698 0.25422 0.20812 0.0
C4540 C 0.41696 0.25795 0.23542 0.0
H4541 H 0.37301 0.23525 0.23334 0.0
C4542 C 0.41488 0.27453 0.24395 0.0
C4543 C 0.40138 0.2438 0.23142 0.0
C4544 C 0.40247 0.22575 0.22207 0.0
C4545 C 0.39798 0.27737 0.24834 0.0
C4546 C 0.38237 0.263 0.24494 0.0
C4547 C 0.38456 0.24643 0.23626 0.0
C4548 C 0.3638 0.26479 0.24995 0.0
C4549 C 0.39708 0.29612 0.25586 0.0
C4550 C 0.3614 0.27337 0.2673 0.0
C4551 C 0.34422 0.27487 0.27176 0.0
C4552 C 0.3285 0.26737 0.25932 0.0
C4553 C 0.3308 0.25849 0.24212 0.0
C4554 C 0.34801 0.2573 0.23753 0.0
H4555 H 0.40781 0.30632 0.25139 0.0
H4556 H 0.38396 0.29909 0.25124 0.0
H4557 H 0.39917 0.29759 0.27124 0.0
H4558 H 0.37282 0.27874 0.27772 0.0
H4559 H 0.34326 0.28164 0.28523 0.0
H4560 H 0.63603 0.53 0.36587 0.0
H4561 H 0.62761 0.52833 0.39737 0.0
H4562 H 0.57806 0.54297 0.38011 0.0
H4563 H 0.58657 0.54512 0.34879 0.0
H4564 H 0.61249 0.56081 0.42087 0.0
H4565 H 0.57004 0.49141 0.40613 0.0
H4566 H 0.58893 0.49877 0.39379 0.0
H4567 H 0.56881 0.50657 0.38897 0.0
C4568 C 0.62327 0.53272 0.36874 0.0
C4569 C 0.61192 0.53757 0.35472 0.0
C4570 C 0.61853 0.53187 0.3868 0.0
C4571 C 0.60218 0.53552 0.39116 0.0
C4572 C 0.59075 0.54015 0.37714 0.0
H4573 H 0.5439 0.54524 0.4845 0.0
H4574 H 0.55639 0.54521 0.45515 0.0
C4575 C 0.59563 0.54132 0.3592 0.0
C4576 C 0.59689 0.53437 0.41024 0.0
H4577 H 0.57003 0.50731 0.43553 0.0
C4578 C 0.60336 0.54905 0.42413 0.0
C4579 C 0.58493 0.51907 0.41454 0.0
C4580 C 0.57774 0.50295 0.40018 0.0
C4581 C 0.59787 0.5489 0.44201 0.0
C4582 C 0.5857 0.53369 0.44618 0.0
C4583 C 0.57946 0.51892 0.4324 0.0
C4584 C 0.57832 0.53345 0.46434 0.0
C4585 C 0.60473 0.56514 0.45631 0.0
C4586 C 0.58646 0.52678 0.47943 0.0
C4587 C 0.57917 0.52654 0.49637 0.0
C4588 C 0.56355 0.53293 0.49853 0.0
C4589 C 0.55565 0.53977 0.48336 0.0
C4590 C 0.56286 0.53992 0.46652 0.0
H4591 H 0.61474 0.57565 0.45128 0.0
H4592 H 0.59334 0.57095 0.46002 0.0
H4593 H 0.61094 0.56113 0.46914 0.0
H4594 H 0.59846 0.52179 0.4781 0.0
H4595 H 0.58575 0.52138 0.50775 0.0
H4596 H 0.27459 0.87567 0.03566 0.0
H4597 H 0.27723 0.86169 0.06396 0.0
H4598 H 0.29072 0.91377 0.0966 0.0
H4599 H 0.28826 0.92809 0.0682 0.0
H4600 H 0.31164 0.87335 0.09272 0.0
H4601 H 0.24625 0.87847 0.11691 0.0
H4602 H 0.24962 0.87835 0.09278 0.0
H4603 H 0.2599 0.89772 0.10905 0.0
C4604 C 0.27779 0.88418 0.04885 0.0
C4605 C 0.28099 0.90296 0.04983 0.0
C4606 C 0.27939 0.87617 0.06493 0.0
C4607 C 0.28398 0.8868 0.08213 0.0
C4608 C 0.28699 0.9055 0.08329 0.0
H4609 H 0.30543 0.8532 0.18957 0.0
H4610 H 0.29539 0.86983 0.16513 0.0
C4611 C 0.28555 0.91358 0.06715 0.0
C4612 C 0.28615 0.87812 0.09878 0.0
H4613 H 0.26445 0.86338 0.13457 0.0
C4614 C 0.30144 0.87125 0.10199 0.0
C4615 C 0.27273 0.87559 0.11063 0.0
C4616 C 0.25611 0.88283 0.10727 0.0
C4617 C 0.30358 0.86154 0.11685 0.0
C4618 C 0.28984 0.8584 0.12835 0.0
C4619 C 0.27476 0.86572 0.12547 0.0
C4620 C 0.29126 0.84747 0.14344 0.0
C4621 C 0.32047 0.85466 0.1201 0.0
C4622 C 0.29135 0.82931 0.13924 0.0
C4623 C 0.2974 0.81999 0.15298 0.0
C4624 C 0.30302 0.82871 0.17103 0.0
C4625 C 0.30124 0.84637 0.17561 0.0
C4626 C 0.29544 0.85578 0.16178 0.0
H4627 H 0.33128 0.86159 0.11265 0.0
H4628 H 0.32549 0.85642 0.13512 0.0
H4629 H 0.31752 0.84011 0.115 0.0
H4630 H 0.28794 0.82275 0.12509 0.0
H4631 H 0.2984 0.80625 0.14939 0.0
H4632 H 0.91594 0.55391 0.88297 0.0
H4633 H 0.92879 0.55379 0.91524 0.0
H4634 H 0.94799 0.5066 0.89841 0.0
H4635 H 0.93577 0.50685 0.86646 0.0
H4636 H 0.92724 0.52244 0.94066 0.0
H4637 H 0.99235 0.55129 0.91656 0.0
H4638 H 0.97104 0.55203 0.90417 0.0
H4639 H 0.97898 0.53165 0.90229 0.0
C4640 C 0.92279 0.54349 0.88631 0.0
C4641 C 0.92549 0.53078 0.87235 0.0
C4642 C 0.92988 0.54332 0.90461 0.0
C4643 C 0.93933 0.53026 0.90884 0.0
C4644 C 0.94077 0.51678 0.89515 0.0
H4645 H 0.0145 0.50903 0.99172 0.0
H4646 H 0.99262 0.50808 0.96459 0.0
C4647 C 0.93403 0.51713 0.87696 0.0
C4648 C 0.95011 0.532 0.92673 0.0
H4649 H 0.99365 0.5405 0.94582 0.0
C4650 C 0.94174 0.52663 0.94201 0.0
C4651 C 0.96895 0.53741 0.92807 0.0
C4652 C 0.9784 0.54357 0.91194 0.0
C4653 C 0.95202 0.52595 0.95872 0.0
C4654 C 0.97085 0.53084 0.95979 0.0
C4655 C 0.97914 0.53664 0.94466 0.0
C4656 C 0.98246 0.53026 0.97655 0.0
C4657 C 0.94289 0.51956 0.97492 0.0
C4658 C 0.98386 0.54321 0.99179 0.0
C4659 C 0.99635 0.5439 0.00705 0.0
C4660 C 1.00748 0.53162 0.00709 0.0
C4661 C 1.00605 0.51865 0.99179 0.0
C4662 C 0.99354 0.51798 0.97652 0.0
H4663 H 0.92836 0.51363 0.97089 0.0
H4664 H 0.94929 0.50944 0.98099 0.0
H4665 H 0.9444 0.53108 0.98588 0.0
H4666 H 0.97562 0.55301 0.99166 0.0
H4667 H 0.99741 0.55415 0.01868 0.0
H4668 H 0.27443 0.17484 0.58326 0.0
H4669 H 0.27454 0.18685 0.61539 0.0
H4670 H 0.29475 0.24033 0.60239 0.0
H4671 H 0.29379 0.22833 0.56971 0.0
H4672 H 0.29932 0.20333 0.64167 0.0
H4673 H 0.25474 0.24979 0.62892 0.0
H4674 H 0.25816 0.23358 0.61082 0.0
H4675 H 0.27444 0.25446 0.6175 0.0
C4676 C 0.27888 0.18921 0.58714 0.0
C4677 C 0.28403 0.20063 0.57375 0.0
C4678 C 0.27894 0.19608 0.60565 0.0
C4679 C 0.28431 0.21461 0.61153 0.0
C4680 C 0.28994 0.22605 0.59827 0.0
H4681 H 0.29191 0.27969 0.71909 0.0
H4682 H 0.29224 0.26829 0.68653 0.0
C4683 C 0.28955 0.21917 0.57955 0.0
C4684 C 0.28413 0.22164 0.63151 0.0
H4685 H 0.26847 0.25159 0.65975 0.0
C4686 C 0.29253 0.21388 0.64557 0.0
C4687 C 0.27523 0.23535 0.63686 0.0
C4688 C 0.26498 0.24366 0.62275 0.0
C4689 C 0.29264 0.21961 0.66458 0.0
C4690 C 0.28378 0.2334 0.66994 0.0
C4691 C 0.27536 0.24112 0.65586 0.0
C4692 C 0.2833 0.24025 0.68994 0.0
C4693 C 0.30271 0.21105 0.67863 0.0
C4694 C 0.27784 0.22849 0.70293 0.0
C4695 C 0.27819 0.23501 0.72168 0.0
C4696 C 0.28328 0.25352 0.72781 0.0
C4697 C 0.28788 0.26536 0.71475 0.0
C4698 C 0.28807 0.25881 0.69611 0.0
H4699 H 0.31313 0.20516 0.67252 0.0
H4700 H 0.30927 0.22088 0.69085 0.0
H4701 H 0.29318 0.19997 0.68342 0.0
H4702 H 0.27331 0.21421 0.69862 0.0
H4703 H 0.27428 0.22559 0.7314 0.0
H4704 H 0.60934 0.50223 0.23945 0.0
H4705 H 0.59854 0.50184 0.20651 0.0
H4706 H 0.59953 0.55827 0.21624 0.0
H4707 H 0.60973 0.55855 0.24933 0.0
H4708 H 0.56565 0.51562 0.19082 0.0
H4709 H 0.63146 0.54955 0.17183 0.0
H4710 H 0.62956 0.53768 0.19192 0.0
H4711 H 0.62416 0.55926 0.19236 0.0
C4712 C 0.6068 0.51444 0.23463 0.0
C4713 C 0.60987 0.5303 0.24707 0.0
C4714 C 0.60081 0.51425 0.21578 0.0
C4715 C 0.59834 0.53005 0.20882 0.0
C4716 C 0.60133 0.54591 0.22125 0.0
H4717 H 0.57205 0.55768 0.0977 0.0
H4718 H 0.58272 0.55772 0.13034 0.0
C4719 C 0.6069 0.546 0.2402 0.0
C4720 C 0.5924 0.52989 0.18865 0.0
H4721 H 0.60668 0.54339 0.14839 0.0
C4722 C 0.57462 0.52165 0.18152 0.0
C4723 C 0.60409 0.53781 0.17652 0.0
C4724 C 0.62344 0.54652 0.1834 0.0
C4725 C 0.56806 0.52142 0.16273 0.0
C4726 C 0.57976 0.52916 0.15043 0.0
C4727 C 0.59764 0.53739 0.15764 0.0
C4728 C 0.5736 0.52906 0.1302 0.0
C4729 C 0.54844 0.5134 0.15648 0.0
C4730 C 0.56521 0.51296 0.11882 0.0
C4731 C 0.55854 0.51304 0.10021 0.0
C4732 C 0.56035 0.52919 0.09226 0.0
C4733 C 0.56965 0.54513 0.1034 0.0
C4734 C 0.57604 0.54511 0.12211 0.0
H4735 H 0.54045 0.51316 0.16832 0.0
H4736 H 0.54287 0.521 0.14609 0.0
H4737 H 0.5468 0.49934 0.15009 0.0
H4738 H 0.56375 0.50026 0.12434 0.0
H4739 H 0.55192 0.50036 0.09207 0.0
H4740 H 0.30441 0.87349 0.95608 0.0
H4741 H 0.30557 0.86057 0.92462 0.0
H4742 H 0.26667 0.88903 0.90374 0.0
H4743 H 0.26564 0.9025 0.93548 0.0
H4744 H 0.27101 0.83982 0.9047 0.0
H4745 H 0.30777 0.89352 0.86776 0.0
H4746 H 0.31171 0.89414 0.89265 0.0
H4747 H 0.29136 0.89868 0.88212 0.0
C4748 C 0.29611 0.87707 0.94483 0.0
C4749 C 0.28455 0.88857 0.94812 0.0
C4750 C 0.29701 0.8699 0.92692 0.0
C4751 C 0.28627 0.87403 0.91214 0.0
C4752 C 0.27519 0.88601 0.91517 0.0
H4753 H 0.26146 0.81895 0.80143 0.0
H4754 H 0.26266 0.8391 0.82975 0.0
C4755 C 0.27444 0.89344 0.93319 0.0
C4756 C 0.28476 0.86348 0.89418 0.0
H4757 H 0.29729 0.86462 0.85096 0.0
C4758 C 0.27663 0.84521 0.89288 0.0
C4759 C 0.29221 0.8708 0.87907 0.0
C4760 C 0.30135 0.89035 0.88033 0.0
C4761 C 0.27602 0.8338 0.8767 0.0
C4762 C 0.28375 0.84103 0.86171 0.0
C4763 C 0.2915 0.85937 0.86277 0.0
C4764 C 0.28373 0.82957 0.84473 0.0
C4765 C 0.26728 0.81413 0.87573 0.0
C4766 C 0.29523 0.81775 0.84424 0.0
C4767 C 0.29458 0.80621 0.8282 0.0
C4768 C 0.28242 0.80654 0.81268 0.0
C4769 C 0.27093 0.81847 0.8133 0.0
C4770 C 0.27164 0.83 0.8293 0.0
H4771 H 0.25958 0.81128 0.88757 0.0
H4772 H 0.25813 0.80945 0.86258 0.0
H4773 H 0.27779 0.80622 0.87597 0.0
H4774 H 0.30461 0.81745 0.85626 0.0
H4775 H 0.30371 0.79725 0.82786 0.0
H4776 H 0.94328 0.53787 0.78315 0.0
H4777 H 0.95655 0.5359 0.75427 0.0
H4778 H 0.90422 0.5271 0.72281 0.0
H4779 H 0.8907 0.52895 0.75168 0.0
H4780 H 0.94254 0.50304 0.72421 0.0
H4781 H 0.94088 0.57052 0.70328 0.0
H4782 H 0.94101 0.56626 0.72716 0.0
H4783 H 0.92125 0.55741 0.71098 0.0
C4784 C 0.93463 0.53585 0.7701 0.0
C4785 C 0.91601 0.53373 0.76956 0.0
C4786 C 0.9422 0.53465 0.7537 0.0
C4787 C 0.93128 0.53156 0.73666 0.0
C4788 C 0.91275 0.52969 0.73599 0.0
H4789 H 0.96126 0.51039 0.62732 0.0
H4790 H 0.94581 0.52123 0.65237 0.0
C4791 C 0.90511 0.53074 0.75241 0.0
C4792 C 0.93935 0.52945 0.7196 0.0
H4793 H 0.9542 0.5517 0.68416 0.0
C4794 C 0.94503 0.51359 0.71536 0.0
C4795 C 0.94228 0.54327 0.70821 0.0
C4796 C 0.93612 0.56041 0.71255 0.0
C4797 C 0.95402 0.51129 0.69999 0.0
C4798 C 0.95773 0.52543 0.68902 0.0
C4799 C 0.9515 0.54108 0.69288 0.0
C4800 C 0.96825 0.52387 0.67361 0.0
C4801 C 0.9596 0.49378 0.69565 0.0
C4802 C 0.98616 0.52275 0.67737 0.0
C4803 C 0.99483 0.51627 0.66328 0.0
C4804 C 0.98572 0.5112 0.6453 0.0
C4805 C 0.96842 0.51412 0.64119 0.0
C4806 C 0.95966 0.52038 0.65538 0.0
H4807 H 0.95219 0.48296 0.70277 0.0
H4808 H 0.95734 0.48934 0.68049 0.0
H4809 H 0.97412 0.49569 0.70039 0.0
H4810 H 0.99295 0.52561 0.69144 0.0
H4811 H 1.00832 0.51444 0.66655 0.0
H4812 H 0.27834 0.17692 0.45232 0.0
H4813 H 0.27922 0.18509 0.42064 0.0
H4814 H 0.28137 0.24007 0.44131 0.0
H4815 H 0.28 0.23191 0.4729 0.0
H4816 H 0.252 0.21346 0.40391 0.0
H4817 H 0.32619 0.22847 0.40512 0.0
H4818 H 0.31484 0.21128 0.41766 0.0
H4819 H 0.31651 0.23443 0.42571 0.0
C4820 C 0.2792 0.19079 0.45015 0.0
C4821 C 0.27923 0.20379 0.46521 0.0
C4822 C 0.27961 0.19542 0.432 0.0
C4823 C 0.28039 0.21322 0.42854 0.0
C4824 C 0.28069 0.22625 0.44358 0.0
H4825 H 0.27118 0.2722 0.3349 0.0
H4826 H 0.27101 0.25994 0.36435 0.0
C4827 C 0.27995 0.22157 0.46166 0.0
C4828 C 0.28072 0.21825 0.40926 0.0
H4829 H 0.30919 0.23406 0.37851 0.0
C4830 C 0.26449 0.21786 0.39832 0.0
C4831 C 0.29698 0.22391 0.40186 0.0
C4832 C 0.31471 0.22459 0.41307 0.0
C4833 C 0.26416 0.22326 0.38039 0.0
C4834 C 0.28047 0.22937 0.37316 0.0
C4835 C 0.29668 0.22936 0.38395 0.0
C4836 C 0.28091 0.23676 0.35493 0.0
C4837 C 0.24633 0.22238 0.36924 0.0
C4838 C 0.28683 0.22803 0.33966 0.0
C4839 C 0.287 0.2351 0.32257 0.0
C4840 C 0.28152 0.25121 0.32047 0.0
C4841 C 0.27573 0.2599 0.33589 0.0
C4842 C 0.27547 0.25281 0.35282 0.0
H4843 H 0.2351 0.21384 0.37489 0.0
H4844 H 0.24385 0.2361 0.36955 0.0
H4845 H 0.24634 0.21706 0.35453 0.0
H4846 H 0.29113 0.21563 0.3409 0.0
H4847 H 0.29147 0.22798 0.31105 0.0
H4848 H 0.32859 0.63237 0.54312 0.0
H4849 H 0.35926 0.62793 0.54666 0.0
H4850 H 0.3393 0.57295 0.55534 0.0
H4851 H 0.30861 0.5772 0.55193 0.0
H4852 H 0.37545 0.60633 0.58154 0.0
H4853 H 0.37045 0.58155 0.50626 0.0
H4854 H 0.35839 0.59786 0.51463 0.0
H4855 H 0.35116 0.57483 0.51811 0.0
C4856 C 0.33076 0.61928 0.54558 0.0
C4857 C 0.31638 0.605 0.54706 0.0
C4858 C 0.34819 0.61692 0.54788 0.0
C4859 C 0.35122 0.60026 0.55151 0.0
C4860 C 0.33694 0.58595 0.55283 0.0
H4861 H 0.42006 0.53501 0.54347 0.0
H4862 H 0.40019 0.55141 0.55828 0.0
C4863 C 0.31954 0.58833 0.55068 0.0
C4864 C 0.36915 0.59709 0.55227 0.0
H4865 H 0.39489 0.57704 0.52597 0.0
C4866 C 0.37999 0.60022 0.56942 0.0
C4867 C 0.37466 0.58921 0.5363 0.0
C4868 C 0.36315 0.58569 0.51771 0.0
C4869 C 0.3962 0.59468 0.57112 0.0
C4870 C 0.40121 0.58598 0.55532 0.0
C4871 C 0.39075 0.58374 0.53803 0.0
C4872 C 0.41647 0.5776 0.55606 0.0
C4873 C 0.40753 0.59744 0.58966 0.0
C4874 C 0.43256 0.58711 0.55113 0.0
C4875 C 0.44381 0.57777 0.54265 0.0
C4876 C 0.43881 0.55903 0.53911 0.0
C4877 C 0.42392 0.54952 0.54614 0.0
C4878 C 0.41279 0.55884 0.5548 0.0
H4879 H 0.40205 0.60512 0.60051 0.0
H4880 H 0.40836 0.58421 0.59406 0.0
H4881 H 0.42138 0.60474 0.58844 0.0
H4882 H 0.4353 0.6016 0.5518 0.0
H4883 H 0.4554 0.58516 0.53727 0.0
H4884 H 0.84701 0.94541 0.56352 0.0
H4885 H 0.87715 0.96377 0.56336 0.0
H4886 H 0.89234 0.9189 0.5341 0.0
H4887 H 0.86223 0.90036 0.53423 0.0
H4888 H 0.91199 0.95583 0.57757 0.0
H4889 H 0.90362 0.96156 0.50199 0.0
H4890 H 0.88475 0.95534 0.51467 0.0
H4891 H 0.89779 0.93935 0.50863 0.0
C4892 C 0.85673 0.93943 0.55701 0.0
C4893 C 0.85218 0.92143 0.54878 0.0
C4894 C 0.87396 0.94993 0.55701 0.0
C4895 C 0.88688 0.94271 0.54859 0.0
C4896 C 0.88247 0.92474 0.54052 0.0
H4897 H 1.00075 0.98474 0.55099 0.0
H4898 H 0.9712 0.96693 0.55357 0.0
C4899 C 0.86529 0.91417 0.54065 0.0
C4900 C 0.90491 0.95411 0.54808 0.0
H4901 H 0.93211 0.97465 0.51874 0.0
C4902 C 0.91643 0.95996 0.56473 0.0
C4903 C 0.91056 0.95949 0.5313 0.0
C4904 C 0.89855 0.95376 0.5131 0.0
C4905 C 0.93359 0.97096 0.565 0.0
C4906 C 0.93923 0.97634 0.54821 0.0
C4907 C 0.92766 0.97057 0.53159 0.0
C4908 C 0.95726 0.98767 0.54753 0.0
C4909 C 0.94553 0.97695 0.58321 0.0
C4910 C 0.95923 1.00522 0.54295 0.0
C4911 C 0.97619 0.01547 0.54106 0.0
C4912 C 0.99155 1.00845 0.54393 0.0
C4913 C 0.9894 0.99087 0.54883 0.0
C4914 C 0.97246 0.98058 0.55042 0.0
H4915 H 0.93836 0.97344 0.59524 0.0
H4916 H 0.95707 0.9704 0.58336 0.0
H4917 H 0.95095 0.99168 0.58485 0.0
H4918 H 0.94758 0.01086 0.54052 0.0
H4919 H 0.97705 0.02857 0.53676 0.0
H4920 H 0.91881 0.07709 0.27397 0.0
H4921 H 0.90717 0.10458 0.27539 0.0
H4922 H 0.85327 0.07258 0.26156 0.0
H4923 H 0.86482 0.04516 0.25963 0.0
H4924 H 0.87508 0.11024 0.24098 0.0
H4925 H 0.86468 0.1122 0.31551 0.0
H4926 H 0.88243 0.10323 0.30656 0.0
H4927 H 0.85968 0.09073 0.30126 0.0
C4928 C 0.90448 0.07599 0.27146 0.0
C4929 C 0.89264 0.05912 0.26685 0.0
C4930 C 0.8979 0.09162 0.27209 0.0
C4931 C 0.87943 0.09046 0.26845 0.0
C4932 C 0.86758 0.07363 0.26421 0.0
H4933 H 0.80874 0.16152 0.28285 0.0
H4934 H 0.82104 0.13571 0.27274 0.0
C4935 C 0.87416 0.05805 0.26323 0.0
C4936 C 0.87226 0.10675 0.26949 0.0
H4937 H 0.85335 0.13266 0.2985 0.0
C4938 C 0.87042 0.11529 0.25355 0.0
C4939 C 0.86627 0.11314 0.28592 0.0
C4940 C 0.86837 0.10447 0.30339 0.0
C4941 C 0.86235 0.13005 0.25361 0.0
C4942 C 0.85597 0.13614 0.26995 0.0
C4943 C 0.85808 0.12772 0.28592 0.0
C4944 C 0.84755 0.15164 0.27128 0.0
C4945 C 0.86033 0.13885 0.23623 0.0
C4946 C 0.8583 0.16904 0.27318 0.0
C4947 C 0.85138 0.18369 0.27913 0.0
C4948 C 0.83362 0.18108 0.28311 0.0
C4949 C 0.82245 0.1638 0.27973 0.0
C4950 C 0.82944 0.14912 0.27399 0.0
H4951 H 0.86409 0.13121 0.22409 0.0
H4952 H 0.84627 0.14013 0.23304 0.0
H4953 H 0.86902 0.15258 0.23846 0.0
H4954 H 0.87235 0.17117 0.27134 0.0
H4955 H 0.86015 0.19696 0.28163 0.0
H4956 H 0.7159 0.09053 0.01887 0.0
H4957 H 0.68435 0.07686 0.02005 0.0
H4958 H 0.68159 0.11975 0.06187 0.0
H4959 H 0.71289 0.13378 0.06039 0.0
H4960 H 0.66855 0.06632 0.05239 0.0
H4961 H 0.64116 0.11924 0.02021 0.0
H4962 H 0.66397 0.11714 0.01922 0.0
H4963 H 0.65763 0.12673 0.04028 0.0
C4964 C 0.7084 0.09714 0.02803 0.0
C4965 C 0.71647 0.11329 0.03923 0.0
C4966 C 0.69061 0.0893 0.02882 0.0
C4967 C 0.68095 0.09754 0.04092 0.0
C4968 C 0.68899 0.11355 0.05225 0.0
H4969 H 0.57199 0.06619 0.06071 0.0
H4970 H 0.60251 0.08304 0.05934 0.0
C4971 C 0.70669 0.12155 0.05126 0.0
C4972 C 0.66225 0.08949 0.04128 0.0
H4973 H 0.62037 0.09544 0.02917 0.0
C4974 C 0.65794 0.07259 0.04735 0.0
C4975 C 0.64878 0.09806 0.03484 0.0
C4976 C 0.65304 0.11625 0.02814 0.0
C4977 C 0.64012 0.06378 0.04689 0.0
C4978 C 0.62667 0.07211 0.03981 0.0
C4979 C 0.63098 0.08919 0.03426 0.0
C4980 C 0.60792 0.06345 0.03851 0.0
C4981 C 0.6358 0.04579 0.05404 0.0
C4982 C 0.60106 0.0475 0.02657 0.0
C4983 C 0.58376 0.038 0.02731 0.0
C4984 C 0.57346 0.04474 0.03972 0.0
C4985 C 0.57991 0.06121 0.0508 0.0
C4986 C 0.59719 0.07067 0.05012 0.0
H4987 H 0.64745 0.04334 0.06288 0.0
H4988 H 0.62429 0.0448 0.0622 0.0
H4989 H 0.63206 0.03499 0.04212 0.0
H4990 H 0.60936 0.04203 0.01744 0.0
H4991 H 0.5788 0.02503 0.01903 0.0
H4992 H 0.18294 0.4884 0.27123 0.0
H4993 H 0.18619 0.45723 0.26771 0.0
H4994 H 0.24316 0.47572 0.26755 0.0
H4995 H 0.24005 0.50688 0.27084 0.0
H4996 H 0.2146 0.44349 0.23577 0.0
H4997 H 0.22266 0.43933 0.31191 0.0
H4998 H 0.20809 0.45228 0.30166 0.0
H4999 H 0.23192 0.46019 0.30358 0.0
C5000 C 0.19618 0.48576 0.27072 0.0
C5001 C 0.21133 0.49984 0.27145 0.0
C5002 C 0.19792 0.46807 0.26845 0.0
C5003 C 0.21482 0.46449 0.26713 0.0
C5004 C 0.23 0.47849 0.26828 0.0
H5005 H 0.27952 0.39749 0.28024 0.0
H5006 H 0.26373 0.41769 0.26515 0.0
C5007 C 0.22825 0.49615 0.27033 0.0
C5008 C 0.21709 0.44614 0.26563 0.0
H5009 H 0.23053 0.41671 0.29236 0.0
C5010 C 0.21767 0.4373 0.24803 0.0
C5011 C 0.22106 0.43847 0.28177 0.0
C5012 C 0.22089 0.44795 0.30086 0.0
C5013 C 0.22329 0.42112 0.24628 0.0
C5014 C 0.22824 0.41401 0.2625 0.0
C5015 C 0.22652 0.42233 0.27998 0.0
C5016 C 0.23769 0.39949 0.2624 0.0
C5017 C 0.22483 0.41217 0.22741 0.0
C5018 C 0.22826 0.38232 0.26467 0.0
C5019 C 0.23727 0.3708 0.27319 0.0
C5020 C 0.25559 0.37664 0.27961 0.0
C5021 C 0.26534 0.39294 0.27537 0.0
C5022 C 0.2564 0.4043 0.26658 0.0
H5023 H 0.21875 0.41844 0.21607 0.0
H5024 H 0.23919 0.4131 0.2259 0.0
H5025 H 0.21816 0.3977 0.22598 0.0
H5026 H 0.21377 0.37864 0.26175 0.0
H5027 H 0.22968 0.35815 0.2764 0.0
H5028 H 0.23992 0.40744 0.02907 0.0
H5029 H 0.21257 0.41914 0.02802 0.0
H5030 H 0.23486 0.45534 0.0778 0.0
H5031 H 0.26213 0.44384 0.07898 0.0
H5032 H 0.1885 0.42161 0.05789 0.0
H5033 H 0.22137 0.48725 0.03757 0.0
H5034 H 0.23057 0.46757 0.0345 0.0
H5035 H 0.23293 0.4801 0.05707 0.0
C5036 C 0.23903 0.41796 0.03974 0.0
C5037 C 0.2533 0.42482 0.05401 0.0
C5038 C 0.22335 0.42452 0.03918 0.0
C5039 C 0.22175 0.43815 0.05279 0.0
C5040 C 0.23589 0.44491 0.0671 0.0
H5041 H 0.14739 0.50803 0.0607 0.0
H5042 H 0.16992 0.49115 0.06975 0.0
C5043 C 0.25149 0.43833 0.06771 0.0
C5044 C 0.20561 0.44581 0.05183 0.0
H5045 H 0.19187 0.48424 0.04487 0.0
C5046 C 0.18917 0.43529 0.05503 0.0
C5047 C 0.20657 0.46366 0.04816 0.0
C5048 C 0.22375 0.47532 0.04398 0.0
C5049 C 0.17368 0.4423 0.05491 0.0
C5050 C 0.17467 0.46019 0.05119 0.0
C5051 C 0.19115 0.47063 0.048 0.0
C5052 C 0.15869 0.46815 0.04913 0.0
C5053 C 0.15652 0.43059 0.059 0.0
C5054 C 0.14444 0.46051 0.03513 0.0
C5055 C 0.13156 0.47008 0.03008 0.0
C5056 C 0.13273 0.48748 0.0389 0.0
C5057 C 0.14607 0.49453 0.05392 0.0
C5058 C 0.159 0.48495 0.05897 0.0
H5059 H 0.15923 0.41999 0.06744 0.0
H5060 H 0.14841 0.4386 0.06647 0.0
H5061 H 0.14847 0.42383 0.04575 0.0
H5062 H 0.14405 0.44778 0.02708 0.0
H5063 H 0.1215 0.4645 0.0183 0.0
H5064 H 0.88752 0.95646 0.23853 0.0
H5065 H 0.86874 0.92641 0.2395 0.0
H5066 H 0.87672 0.93536 0.29927 0.0
H5067 H 0.89595 0.96516 0.29832 0.0
H5068 H 0.88065 0.89743 0.26316 0.0
H5069 H 0.81946 0.92061 0.27904 0.0
H5070 H 0.83665 0.93388 0.26791 0.0
H5071 H 0.84057 0.93213 0.2922 0.0
C5072 C 0.8852 0.95194 0.25183 0.0
C5073 C 0.89308 0.96295 0.26836 0.0
C5074 C 0.87456 0.93485 0.25237 0.0
C5075 C 0.87134 0.92877 0.26945 0.0
C5076 C 0.87908 0.93986 0.28598 0.0
H5077 H 0.80034 0.8369 0.30186 0.0
H5078 H 0.81968 0.86612 0.29966 0.0
C5079 C 0.89003 0.95679 0.28543 0.0
C5080 C 0.85991 0.9108 0.27005 0.0
H5081 H 0.81834 0.88975 0.27834 0.0
C5082 C 0.867 0.89564 0.26644 0.0
C5083 C 0.84223 0.90867 0.27449 0.0
C5084 C 0.83413 0.92463 0.27856 0.0
C5085 C 0.85695 0.87831 0.26755 0.0
C5086 C 0.83904 0.87607 0.27168 0.0
C5087 C 0.832 0.89135 0.27514 0.0
C5088 C 0.82741 0.85815 0.2729 0.0
C5089 C 0.86597 0.86277 0.26495 0.0
C5090 C 0.82503 0.84391 0.25853 0.0
C5091 C 0.8144 0.82706 0.26007 0.0
C5092 C 0.80533 0.82437 0.27563 0.0
C5093 C 0.80703 0.83875 0.28961 0.0
C5094 C 0.81814 0.85541 0.28838 0.0
H5095 H 0.88078 0.86727 0.26812 0.0
H5096 H 0.86126 0.85238 0.27393 0.0
H5097 H 0.86293 0.8566 0.25026 0.0
H5098 H 0.83138 0.84577 0.24611 0.0
H5099 H 0.81317 0.81615 0.24906 0.0
H5100 H 0.72956 0.09668 0.79336 0.0
H5101 H 0.74206 0.12872 0.79354 0.0
H5102 H 0.69387 0.13364 0.76066 0.0
H5103 H 0.68109 0.1018 0.76071 0.0
H5104 H 0.74628 0.14612 0.76028 0.0
H5105 H 0.70167 0.1724 0.80634 0.0
H5106 H 0.70413 0.14948 0.80501 0.0
H5107 H 0.69101 0.15646 0.78658 0.0
C5108 C 0.72159 0.10468 0.78641 0.0
C5109 C 0.70437 0.09701 0.77722 0.0
C5110 C 0.72871 0.12281 0.78645 0.0
C5111 C 0.71867 0.13321 0.77727 0.0
C5112 C 0.70152 0.12563 0.76807 0.0
H5113 H 0.74759 0.24315 0.7597 0.0
H5114 H 0.73052 0.21306 0.76263 0.0
C5115 C 0.69429 0.10757 0.76818 0.0
C5116 C 0.72636 0.15205 0.77714 0.0
H5117 H 0.72322 0.19371 0.79471 0.0
C5118 C 0.74132 0.15659 0.76777 0.0
C5119 C 0.71944 0.16534 0.78676 0.0
C5120 C 0.70323 0.16075 0.79686 0.0
C5121 C 0.74992 0.17446 0.76808 0.0
C5122 C 0.74344 0.1877 0.77837 0.0
C5123 C 0.72814 0.18322 0.78721 0.0
C5124 C 0.75227 0.20641 0.77968 0.0
C5125 C 0.76576 0.17905 0.75741 0.0
C5126 C 0.76966 0.21242 0.78905 0.0
C5127 C 0.77927 0.22948 0.78748 0.0
C5128 C 0.77131 0.24035 0.77671 0.0
C5129 C 0.75359 0.23478 0.76832 0.0
C5130 C 0.74396 0.21776 0.76992 0.0
H5131 H 0.7664 0.16772 0.74698 0.0
H5132 H 0.76517 0.19099 0.7502 0.0
H5133 H 0.77832 0.18226 0.76721 0.0
H5134 H 0.77602 0.20358 0.79667 0.0
H5135 H 0.7931 0.23384 0.7938 0.0
loop_
_geom_bond_atom_site_label_1
_geom_bond_atom_site_label_2
_geom_bond_distance
_geom_bond_site_symmetry_2
_ccdc_geom_bond_type
O0 Cd1 2.223 . S
O0 C8 1.315 . S
Cd1 O0 2.223 . S
Cd1 O4 2.297 . S
Cd1 O5 2.439 . S
Cd1 O11 2.240 . S
Cd2 O3 2.240 . S
Cd2 O10 2.225 . S
Cd2 O12 2.297 . S
Cd2 O13 2.439 . S
O3 Cd2 2.240 . S
O3 C8 1.279 . S
O4 Cd1 2.297 . S
O4 C6 1.247 . S
O5 Cd1 2.439 . S
O5 C6 1.208 . S
C6 O4 1.247 . S
C6 O5 1.208 . S
C7 O12 1.247 . S
C7 O13 1.208 . S
C8 O0 1.315 . S
C8 O3 1.279 . S
C9 O10 1.315 . S
C9 O11 1.279 . S
O10 Cd2 2.225 . S
O10 C9 1.315 . S
O11 Cd1 2.240 . S
O11 C9 1.279 . S
O12 Cd2 2.297 . S
O12 C7 1.247 . S
O13 Cd2 2.439 . S
O13 C7 1.208 . S
O14 Cd15 2.223 . S
O14 C22 1.315 . S
Cd15 O14 2.223 . S
Cd15 O18 2.297 1_455 S
Cd15 O19 2.439 1_455 S
Cd15 O25 2.240 . S
Cd16 O17 2.232 1_455 S
Cd16 O24 2.223 . S
Cd16 O26 2.297 . S
Cd16 O27 2.439 . S
O17 Cd16 2.232 1_655 S
O17 C22 1.271 1_655 S
O18 Cd15 2.297 1_655 S
O18 C20 1.247 . S
O19 Cd15 2.439 1_655 S
O19 C20 1.208 . S
C20 O18 1.247 . S
C20 O19 1.208 . S
C21 O26 1.247 . S
C21 O27 1.208 . S
C22 O14 1.315 . S
C22 O17 1.271 1_455 S
C23 O24 1.315 . S
C23 O25 1.279 . S
O24 Cd16 2.223 . S
O24 C23 1.315 . S
O25 Cd15 2.240 . S
O25 C23 1.279 . S
O26 Cd16 2.297 . S
O26 C21 1.247 . S
O27 Cd16 2.439 . S
O27 C21 1.208 . S
O28 Cd29 2.223 . S
O28 C36 1.315 . S
Cd29 O28 2.223 . S
Cd29 O32 2.297 . S
Cd29 O33 2.439 . S
Cd29 O39 2.240 . S
Cd30 O31 2.240 . S
Cd30 O38 2.223 . S
Cd30 O40 2.297 . S
Cd30 O41 2.439 . S
O31 Cd30 2.240 . S
O31 C36 1.279 . S
O32 Cd29 2.297 . S
O32 C34 1.247 . S
O33 Cd29 2.439 . S
O33 C34 1.208 . S
C34 O32 1.247 . S
C34 O33 1.208 . S
C35 O40 1.247 . S
C35 O41 1.208 . S
C36 O28 1.315 . S
C36 O31 1.279 . S
C37 O38 1.315 . S
C37 O39 1.279 . S
O38 Cd30 2.223 . S
O38 C37 1.315 . S
O39 Cd29 2.240 . S
O39 C37 1.279 . S
O40 Cd30 2.297 . S
O40 C35 1.247 . S
O41 Cd30 2.439 . S
O41 C35 1.208 . S
O42 Cd43 2.223 . S
O42 C50 1.315 . S
Cd43 O42 2.223 . S
Cd43 O46 2.297 . S
Cd43 O47 2.439 . S
Cd43 O53 2.240 . S
Cd44 O45 2.240 . S
Cd44 O52 2.223 . S
Cd44 O54 2.297 . S
Cd44 O55 2.439 . S
O45 Cd44 2.240 . S
O45 C50 1.279 . S
O46 Cd43 2.297 . S
O46 C48 1.247 . S
O47 Cd43 2.439 . S
O47 C48 1.208 . S
C48 O46 1.247 . S
C48 O47 1.208 . S
C49 O54 1.247 . S
C49 O55 1.208 . S
C50 O42 1.315 . S
C50 O45 1.279 . S
C51 O52 1.315 . S
C51 O53 1.279 . S
O52 Cd44 2.223 . S
O52 C51 1.315 . S
O53 Cd43 2.240 . S
O53 C51 1.279 . S
O54 Cd44 2.297 . S
O54 C49 1.247 . S
O55 Cd44 2.439 . S
O55 C49 1.208 . S
O56 Cd57 2.223 . S
O56 C64 1.315 . S
Cd57 O56 2.223 . S
Cd57 O60 2.297 . S
Cd57 O61 2.439 . S
Cd57 O67 2.240 . S
Cd58 O59 2.240 . S
Cd58 O66 2.223 . S
Cd58 O68 2.297 . S
Cd58 O69 2.439 . S
O59 Cd58 2.240 . S
O59 C64 1.279 . S
O60 Cd57 2.297 . S
O60 C62 1.247 . S
O61 Cd57 2.439 . S
O61 C62 1.208 . S
C62 O60 1.247 . S
C62 O61 1.208 . S
C63 O68 1.247 . S
C63 O69 1.208 . S
C64 O56 1.315 . S
C64 O59 1.279 . S
C65 O66 1.315 . S
C65 O67 1.279 . S
O66 Cd58 2.223 . S
O66 C65 1.315 . S
O67 Cd57 2.240 . S
O67 C65 1.279 . S
O68 Cd58 2.297 . S
O68 C63 1.247 . S
O69 Cd58 2.439 . S
O69 C63 1.208 . S
O70 Cd71 2.223 . S
O70 C78 1.315 . S
Cd71 O70 2.223 . S
Cd71 O74 2.297 . S
Cd71 O75 2.439 . S
Cd71 O81 2.240 . S
Cd72 O73 2.240 . S
Cd72 O80 2.223 . S
Cd72 O82 2.297 . S
Cd72 O83 2.439 . S
O73 Cd72 2.240 . S
O73 C78 1.279 . S
O74 Cd71 2.297 . S
O74 C76 1.247 . S
O75 Cd71 2.439 . S
O75 C76 1.208 . S
C76 O74 1.247 . S
C76 O75 1.208 . S
C77 O82 1.247 . S
C77 O83 1.208 . S
C78 O70 1.315 . S
C78 O73 1.279 . S
C79 O80 1.315 . S
C79 O81 1.279 . S
O80 Cd72 2.223 . S
O80 C79 1.315 . S
O81 Cd71 2.240 . S
O81 C79 1.279 . S
O82 Cd72 2.297 . S
O82 C77 1.247 . S
O83 Cd72 2.439 . S
O83 C77 1.208 . S
O84 Cd85 2.223 . S
O84 C92 1.315 . S
Cd85 O84 2.223 . S
Cd85 O88 2.297 . S
Cd85 O89 2.439 . S
Cd85 O95 2.240 . S
Cd86 O87 2.240 . S
Cd86 O94 2.223 . S
Cd86 O96 2.297 . S
Cd86 O97 2.439 . S
O87 Cd86 2.240 . S
O87 C92 1.279 . S
O88 Cd85 2.297 . S
O88 C90 1.247 . S
O89 Cd85 2.439 . S
O89 C90 1.208 . S
C90 O88 1.247 . S
C90 O89 1.208 . S
C91 O96 1.247 . S
C91 O97 1.208 . S
C92 O84 1.315 . S
C92 O87 1.279 . S
C93 O94 1.315 . S
C93 O95 1.279 . S
O94 Cd86 2.223 . S
O94 C93 1.315 . S
O95 Cd85 2.240 . S
O95 C93 1.279 . S
O96 Cd86 2.297 . S
O96 C91 1.247 . S
O97 Cd86 2.439 . S
O97 C91 1.208 . S
O98 Cd99 2.223 1_655 S
O98 C106 1.315 . S
Cd99 O98 2.223 1_455 S
Cd99 O102 2.297 . S
Cd99 O103 2.439 . S
Cd99 O109 2.240 1_455 S
Cd100 O101 2.240 1_655 S
Cd100 O108 2.223 . S
Cd100 O110 2.297 . S
Cd100 O111 2.439 1_655 S
O101 Cd100 2.240 1_455 S
O101 C106 1.279 1_455 S
O102 Cd99 2.297 . S
O102 C104 1.247 . S
O103 Cd99 2.439 . S
O103 C104 1.208 . S
C104 O102 1.247 . S
C104 O103 1.208 . S
C105 O110 1.271 . S
C105 O111 1.185 1_655 S
C106 O98 1.315 . S
C106 O101 1.279 1_655 S
C107 O108 1.315 . S
C107 O109 1.279 . S
O108 Cd100 2.223 . S
O108 C107 1.315 . S
O109 Cd99 2.240 1_655 S
O109 C107 1.279 . S
O110 Cd100 2.297 . S
O110 C105 1.271 . S
O111 Cd100 2.439 1_455 S
O111 C105 1.185 1_455 S
O112 Cd113 2.223 . S
O112 C120 1.315 . S
Cd113 O112 2.223 . S
Cd113 O116 2.297 . S
Cd113 O117 2.439 . S
Cd113 O123 2.240 1_545 S
Cd114 O115 2.240 . S
Cd114 O122 2.223 1_545 S
Cd114 O124 2.297 1_545 S
Cd114 O125 2.439 . S
O115 Cd114 2.240 . S
O115 C120 1.279 . S
O116 Cd113 2.297 . S
O116 C118 1.247 . S
O117 Cd113 2.439 . S
O117 C118 1.208 . S
C118 O116 1.247 . S
C118 O117 1.208 . S
C119 O124 1.247 1_545 S
C119 O125 1.208 . S
C120 O112 1.315 . S
C120 O115 1.279 . S
C121 O122 1.315 . S
C121 O123 1.279 . S
O122 Cd114 2.223 1_565 S
O122 C121 1.315 . S
O123 Cd113 2.240 1_565 S
O123 C121 1.279 . S
O124 Cd114 2.297 1_565 S
O124 C119 1.247 1_565 S
O125 Cd114 2.439 . S
O125 C119 1.208 . S
O126 Cd127 2.223 . S
O126 C134 1.315 . S
Cd127 O126 2.223 . S
Cd127 O130 2.297 . S
Cd127 O131 2.439 . S
Cd127 O137 2.240 . S
Cd128 O129 2.240 . S
Cd128 O136 2.223 . S
Cd128 O138 2.297 . S
Cd128 O139 2.439 . S
O129 Cd128 2.240 . S
O129 C134 1.279 . S
O130 Cd127 2.297 . S
O130 C132 1.247 . S
O131 Cd127 2.439 . S
O131 C132 1.208 . S
C132 O130 1.247 . S
C132 O131 1.208 . S
C133 O138 1.247 . S
C133 O139 1.208 . S
C134 O126 1.315 . S
C134 O129 1.279 . S
C135 O136 1.315 . S
C135 O137 1.279 . S
O136 Cd128 2.223 . S
O136 C135 1.315 . S
O137 Cd127 2.240 . S
O137 C135 1.279 . S
O138 Cd128 2.297 . S
O138 C133 1.247 . S
O139 Cd128 2.439 . S
O139 C133 1.208 . S
O140 Cd141 2.223 . S
O140 C148 1.315 . S
Cd141 O140 2.223 . S
Cd141 O144 2.297 1_545 S
Cd141 O145 2.439 1_545 S
Cd141 O151 2.240 . S
Cd142 O143 2.240 . S
Cd142 O150 2.223 . S
Cd142 O152 2.297 . S
Cd142 O153 2.439 . S
O143 Cd142 2.240 . S
O143 C148 1.279 . S
O144 Cd141 2.297 1_565 S
O144 C146 1.247 . S
O145 Cd141 2.439 1_565 S
O145 C146 1.208 . S
C146 O144 1.247 . S
C146 O145 1.208 . S
C147 O152 1.247 . S
C147 O153 1.208 . S
C148 O140 1.315 . S
C148 O143 1.279 . S
C149 O150 1.315 . S
C149 O151 1.279 . S
O150 Cd142 2.223 . S
O150 C149 1.315 . S
O151 Cd141 2.240 . S
O151 C149 1.279 . S
O152 Cd142 2.297 . S
O152 C147 1.247 . S
O153 Cd142 2.439 . S
O153 C147 1.208 . S
O154 Cd155 2.223 . S
O154 C162 1.315 . S
Cd155 O154 2.223 . S
Cd155 O158 2.297 . S
Cd155 O159 2.439 1_554 S
Cd155 O165 2.240 1_554 S
Cd156 O157 2.240 1_556 S
Cd156 O164 2.223 1_556 S
Cd156 O166 2.297 . S
Cd156 O167 2.439 . S
O157 Cd156 2.240 1_554 S
O157 C162 1.279 . S
O158 Cd155 2.297 . S
O158 C160 1.247 . S
O159 Cd155 2.439 1_556 S
O159 C160 1.208 1_556 S
C160 O158 1.247 . S
C160 O159 1.208 1_554 S
C161 O166 1.247 . S
C161 O167 1.208 . S
C162 O154 1.315 . S
C162 O157 1.279 . S
C163 O164 1.315 . S
C163 O165 1.279 1_554 S
O164 Cd156 2.223 1_554 S
O164 C163 1.315 . S
O165 Cd155 2.240 1_556 S
O165 C163 1.279 1_556 S
O166 Cd156 2.297 . S
O166 C161 1.247 . S
O167 Cd156 2.439 . S
O167 C161 1.208 . S
O168 Cd169 2.223 . S
O168 C176 1.315 . S
Cd169 O168 2.223 . S
Cd169 O172 2.297 . S
Cd169 O173 2.439 . S
Cd169 O179 2.240 . S
Cd170 O171 2.240 . S
Cd170 O178 2.223 . S
Cd170 O180 2.297 . S
Cd170 O181 2.439 . S
O171 Cd170 2.240 . S
O171 C176 1.279 . S
O172 Cd169 2.297 . S
O172 C174 1.247 . S
O173 Cd169 2.439 . S
O173 C174 1.208 . S
C174 O172 1.247 . S
C174 O173 1.208 . S
C175 O180 1.254 . S
C175 O181 1.218 . S
C176 O168 1.315 . S
C176 O171 1.279 . S
C177 O178 1.315 . S
C177 O179 1.279 . S
O178 Cd170 2.223 . S
O178 C177 1.315 . S
O179 Cd169 2.240 . S
O179 C177 1.279 . S
O180 Cd170 2.297 . S
O180 C175 1.254 . S
O181 Cd170 2.439 . S
O181 C175 1.218 . S
O182 Cd183 2.223 . S
O182 C190 1.315 . S
Cd183 O182 2.223 . S
Cd183 O186 2.297 . S
Cd183 O187 2.439 . S
Cd183 O193 2.240 . S
Cd184 O185 2.240 . S
Cd184 O192 2.223 . S
Cd184 O194 2.297 . S
Cd184 O195 2.439 . S
O185 Cd184 2.240 . S
O185 C190 1.279 . S
O186 Cd183 2.297 . S
O186 C188 1.247 . S
O187 Cd183 2.439 . S
O187 C188 1.208 . S
C188 O186 1.247 . S
C188 O187 1.208 . S
C189 O194 1.247 . S
C189 O195 1.208 . S
C190 O182 1.315 . S
C190 O185 1.279 . S
C191 O192 1.315 . S
C191 O193 1.279 . S
O192 Cd184 2.223 . S
O192 C191 1.315 . S
O193 Cd183 2.240 . S
O193 C191 1.279 . S
O194 Cd184 2.297 . S
O194 C189 1.247 . S
O195 Cd184 2.439 . S
O195 C189 1.208 . S
O196 Cd197 2.223 . S
O196 C204 1.315 . S
Cd197 O196 2.223 . S
Cd197 O200 2.297 . S
Cd197 O201 2.439 . S
Cd197 O207 2.240 . S
Cd198 O199 2.240 . S
Cd198 O206 2.223 . S
Cd198 O208 2.297 . S
Cd198 O209 2.439 . S
O199 Cd198 2.240 . S
O199 C204 1.279 . S
O200 Cd197 2.297 . S
O200 C202 1.247 . S
O201 Cd197 2.439 . S
O201 C202 1.208 . S
C202 O200 1.247 . S
C202 O201 1.208 . S
C203 O208 1.247 . S
C203 O209 1.208 . S
C204 O196 1.315 . S
C204 O199 1.279 . S
C205 O206 1.315 . S
C205 O207 1.279 . S
O206 Cd198 2.223 . S
O206 C205 1.315 . S
O207 Cd197 2.240 . S
O207 C205 1.279 . S
O208 Cd198 2.297 . S
O208 C203 1.247 . S
O209 Cd198 2.439 . S
O209 C203 1.208 . S
O210 Cd211 2.223 . S
O210 C218 1.315 . S
Cd211 O210 2.223 . S
Cd211 O214 2.297 . S
Cd211 O215 2.439 . S
Cd211 O221 2.240 . S
Cd212 O213 2.240 . S
Cd212 O220 2.223 . S
Cd212 O222 2.297 . S
Cd212 O223 2.439 . S
O213 Cd212 2.240 . S
O213 C218 1.279 . S
O214 Cd211 2.297 . S
O214 C216 1.247 . S
O215 Cd211 2.439 . S
O215 C216 1.208 . S
C216 O214 1.247 . S
C216 O215 1.208 . S
C217 O222 1.247 . S
C217 O223 1.208 . S
C218 O210 1.315 . S
C218 O213 1.279 . S
C219 O220 1.315 . S
C219 O221 1.279 . S
O220 Cd212 2.223 . S
O220 C219 1.315 . S
O221 Cd211 2.240 . S
O221 C219 1.279 . S
O222 Cd212 2.297 . S
O222 C217 1.247 . S
O223 Cd212 2.439 . S
O223 C217 1.208 . S
O224 Cd225 2.223 . S
O224 C232 1.315 . S
Cd225 O224 2.223 . S
Cd225 O228 2.297 . S
Cd225 O229 2.439 . S
Cd225 O235 2.240 1_545 S
Cd226 O227 2.240 . S
Cd226 O234 2.223 1_545 S
Cd226 O236 2.297 1_545 S
Cd226 O237 2.439 . S
O227 Cd226 2.240 . S
O227 C232 1.279 . S
O228 Cd225 2.297 . S
O228 C230 1.247 . S
O229 Cd225 2.439 . S
O229 C230 1.208 . S
C230 O228 1.247 . S
C230 O229 1.208 . S
C231 O236 1.247 1_545 S
C231 O237 1.208 . S
C232 O224 1.315 . S
C232 O227 1.279 . S
C233 O234 1.315 . S
C233 O235 1.279 . S
O234 Cd226 2.223 1_565 S
O234 C233 1.315 . S
O235 Cd225 2.240 1_565 S
O235 C233 1.279 . S
O236 Cd226 2.297 1_565 S
O236 C231 1.247 1_565 S
O237 Cd226 2.439 . S
O237 C231 1.208 . S
O238 Cd239 2.223 . S
O238 C246 1.315 . S
Cd239 O238 2.223 . S
Cd239 O242 2.297 . S
Cd239 O243 2.439 . S
Cd239 O249 2.240 . S
Cd240 O241 2.240 . S
Cd240 O248 2.223 . S
Cd240 O250 2.297 . S
Cd240 O251 2.439 . S
O241 Cd240 2.240 . S
O241 C246 1.279 . S
O242 Cd239 2.297 . S
O242 C244 1.247 . S
O243 Cd239 2.439 . S
O243 C244 1.208 . S
C244 O242 1.247 . S
C244 O243 1.208 . S
C245 O250 1.247 . S
C245 O251 1.208 . S
C246 O238 1.315 . S
C246 O241 1.279 . S
C247 O248 1.315 . S
C247 O249 1.279 . S
O248 Cd240 2.223 . S
O248 C247 1.315 . S
O249 Cd239 2.240 . S
O249 C247 1.279 . S
O250 Cd240 2.297 . S
O250 C245 1.247 . S
O251 Cd240 2.439 . S
O251 C245 1.208 . S
O252 Cd253 2.223 . S
O252 C260 1.315 . S
Cd253 O252 2.223 . S
Cd253 O256 2.297 . S
Cd253 O257 2.439 . S
Cd253 O263 2.240 . S
Cd254 O255 2.240 . S
Cd254 O262 2.223 . S
Cd254 O264 2.297 . S
Cd254 O265 2.439 . S
O255 Cd254 2.240 . S
O255 C260 1.279 . S
O256 Cd253 2.297 . S
O256 C258 1.247 . S
O257 Cd253 2.439 . S
O257 C258 1.208 . S
C258 O256 1.247 . S
C258 O257 1.208 . S
C259 O264 1.247 . S
C259 O265 1.208 . S
C260 O252 1.315 . S
C260 O255 1.279 . S
C261 O262 1.315 . S
C261 O263 1.279 . S
O262 Cd254 2.223 . S
O262 C261 1.315 . S
O263 Cd253 2.240 . S
O263 C261 1.279 . S
O264 Cd254 2.297 . S
O264 C259 1.247 . S
O265 Cd254 2.439 . S
O265 C259 1.208 . S
O266 Cd267 2.223 . S
O266 C274 1.315 . S
Cd267 O266 2.223 . S
Cd267 O270 2.297 . S
Cd267 O271 2.439 . S
Cd267 O277 2.240 . S
Cd268 O269 2.240 . S
Cd268 O276 2.223 . S
Cd268 O278 2.297 . S
Cd268 O279 2.439 . S
O269 Cd268 2.240 . S
O269 C274 1.279 . S
O270 Cd267 2.297 . S
O270 C272 1.272 . S
O271 Cd267 2.439 . S
O271 C272 1.238 . S
C272 O270 1.272 . S
C272 O271 1.238 . S
C273 O278 1.247 . S
C273 O279 1.208 . S
C274 O266 1.315 . S
C274 O269 1.279 . S
C275 O276 1.315 . S
C275 O277 1.279 . S
O276 Cd268 2.223 . S
O276 C275 1.315 . S
O277 Cd267 2.240 . S
O277 C275 1.279 . S
O278 Cd268 2.297 . S
O278 C273 1.247 . S
O279 Cd268 2.439 . S
O279 C273 1.208 . S
O280 Cd281 2.223 . S
O280 C288 1.315 . S
Cd281 O280 2.223 . S
Cd281 O284 2.297 . S
Cd281 O285 2.439 . S
Cd281 O291 2.240 . S
Cd282 O283 2.240 . S
Cd282 O290 2.223 . S
Cd282 O292 2.297 1_554 S
Cd282 O293 2.439 1_554 S
O283 Cd282 2.240 . S
O283 C288 1.279 . S
O284 Cd281 2.297 . S
O284 C286 1.247 . S
O285 Cd281 2.439 . S
O285 C286 1.208 . S
C286 O284 1.247 . S
C286 O285 1.208 . S
C287 O292 1.247 . S
C287 O293 1.208 . S
C288 O280 1.315 . S
C288 O283 1.279 . S
C289 O290 1.315 . S
C289 O291 1.279 . S
O290 Cd282 2.223 . S
O290 C289 1.315 . S
O291 Cd281 2.240 . S
O291 C289 1.279 . S
O292 Cd282 2.297 1_556 S
O292 C287 1.247 . S
O293 Cd282 2.439 1_556 S
O293 C287 1.208 . S
O294 Cd295 2.223 . S
O294 C302 1.315 . S
Cd295 O294 2.223 . S
Cd295 O298 2.297 . S
Cd295 O299 2.439 . S
Cd295 O305 2.240 . S
Cd296 O297 2.240 . S
Cd296 O304 2.223 . S
Cd296 O306 2.297 . S
Cd296 O307 2.439 . S
O297 Cd296 2.240 . S
O297 C302 1.279 . S
O298 Cd295 2.297 . S
O298 C300 1.247 . S
O299 Cd295 2.439 . S
O299 C300 1.208 . S
C300 O298 1.247 . S
C300 O299 1.208 . S
C301 O306 1.247 . S
C301 O307 1.208 . S
C302 O294 1.315 . S
C302 O297 1.279 . S
C303 O304 1.315 . S
C303 O305 1.279 . S
O304 Cd296 2.223 . S
O304 C303 1.315 . S
O305 Cd295 2.240 . S
O305 C303 1.279 . S
O306 Cd296 2.297 . S
O306 C301 1.247 . S
O307 Cd296 2.439 . S
O307 C301 1.208 . S
O308 Cd309 2.223 . S
O308 C316 1.315 . S
Cd309 O308 2.223 . S
Cd309 O312 2.297 . S
Cd309 O313 2.439 . S
Cd309 O319 2.240 . S
Cd310 O311 2.240 . S
Cd310 O318 2.223 . S
Cd310 O320 2.297 . S
Cd310 O321 2.439 . S
O311 Cd310 2.240 . S
O311 C316 1.279 . S
O312 Cd309 2.297 . S
O312 C314 1.247 . S
O313 Cd309 2.439 . S
O313 C314 1.208 . S
C314 O312 1.247 . S
C314 O313 1.208 . S
C315 O320 1.247 . S
C315 O321 1.208 . S
C316 O308 1.315 . S
C316 O311 1.279 . S
C317 O318 1.315 . S
C317 O319 1.279 . S
O318 Cd310 2.223 . S
O318 C317 1.315 . S
O319 Cd309 2.240 . S
O319 C317 1.279 . S
O320 Cd310 2.297 . S
O320 C315 1.247 . S
O321 Cd310 2.439 . S
O321 C315 1.208 . S
O322 Cd323 2.223 . S
O322 C330 1.315 . S
Cd323 O322 2.223 . S
Cd323 O326 2.297 . S
Cd323 O327 2.439 . S
Cd323 O333 2.240 . S
Cd324 O325 2.240 . S
Cd324 O332 2.223 . S
Cd324 O334 2.297 . S
Cd324 O335 2.439 . S
O325 Cd324 2.240 . S
O325 C330 1.279 . S
O326 Cd323 2.297 . S
O326 C328 1.247 . S
O327 Cd323 2.439 . S
O327 C328 1.208 . S
C328 O326 1.247 . S
C328 O327 1.208 . S
C329 O334 1.247 . S
C329 O335 1.208 . S
C330 O322 1.315 . S
C330 O325 1.279 . S
C331 O332 1.315 . S
C331 O333 1.279 . S
O332 Cd324 2.223 . S
O332 C331 1.315 . S
O333 Cd323 2.240 . S
O333 C331 1.279 . S
O334 Cd324 2.297 . S
O334 C329 1.247 . S
O335 Cd324 2.439 . S
O335 C329 1.208 . S
Tb336 N365 2.617 . S
Tb336 N371 2.572 . S
Tb336 O380 2.465 . S
Tb336 O381 2.387 . S
Tb336 O383 2.428 . S
Tb336 O384 2.308 . S
Tb336 O388 2.349 . S
Tb336 O391 2.393 . S
Tb336 C400 2.802 . S
C337 N338 1.393 . S
C337 C340 1.416 1_554 S
C337 C344 1.424 . S
N338 C337 1.393 . S
N338 C341 1.302 1_554 S
N338 Tb347 2.637 1_565 S
C339 C341 1.390 . S
C339 C342 1.339 . S
C339 H359 0.930 . S
C340 C337 1.416 1_556 S
C340 C342 1.416 . S
C340 C346 1.448 . S
C341 N338 1.302 1_556 S
C341 C339 1.390 . S
C341 H352 0.930 1_565 S
C342 C339 1.339 . S
C342 C340 1.416 . S
C342 H363 0.930 . S
C343 C344 1.413 . S
C343 C345 1.427 . S
C343 C349 1.416 . S
C344 C337 1.424 . S
C344 C343 1.413 . S
C344 N348 1.361 . S
C345 C343 1.427 . S
C345 C346 1.328 1_554 S
C345 H360 0.929 . S
C346 C340 1.448 . S
C346 C345 1.328 1_556 S
C346 H361 0.930 . S
Tb347 N338 2.637 1_545 S
Tb347 N348 2.572 1_545 S
Tb347 O382 2.349 1_655 S
Tb347 O385 2.393 1_655 S
Tb347 O386 2.465 . S
Tb347 O387 2.387 1_645 S
Tb347 O389 2.428 . S
Tb347 O390 2.308 1_655 S
Tb347 C411 2.802 . S
N348 C344 1.361 . S
N348 Tb347 2.572 1_565 S
N348 C350 1.340 . S
C349 C343 1.416 . S
C349 C351 1.332 . S
C349 H357 0.931 . S
C350 N348 1.340 . S
C350 C351 1.407 . S
C350 H356 0.930 1_565 S
C351 C349 1.332 . S
C351 C350 1.407 . S
C351 H353 0.929 . S
H352 C341 0.930 1_545 S
H353 C351 0.929 . S
H354 C369 0.930 . S
H355 C376 0.929 . S
H356 C350 0.930 1_545 S
H357 C349 0.931 . S
H358 C372 0.930 . S
H359 C339 0.930 . S
H360 C345 0.929 . S
H361 C346 0.930 . S
H362 C367 0.930 . S
H363 C342 0.930 . S
H364 C375 0.931 . S
N365 Tb336 2.617 . S
N365 C366 1.379 . S
N365 C369 1.334 . S
C366 N365 1.379 . S
C366 C368 1.416 . S
C366 C374 1.424 . S
C367 H362 0.930 . S
C367 C369 1.390 . S
C367 C370 1.339 . S
C368 C366 1.416 . S
C368 C370 1.416 . S
C368 C401 1.448 . S
C369 H354 0.930 . S
C369 N365 1.334 . S
C369 C367 1.390 . S
C370 C367 1.339 . S
C370 C368 1.416 . S
C370 H377 0.930 . S
N371 Tb336 2.572 . S
N371 C372 1.340 . S
N371 C374 1.361 . S
C372 H358 0.930 . S
C372 N371 1.340 . S
C372 C376 1.407 . S
C373 C374 1.413 . S
C373 C375 1.416 . S
C373 C402 1.427 . S
C374 C366 1.424 . S
C374 N371 1.361 . S
C374 C373 1.413 . S
C375 H364 0.931 . S
C375 C373 1.416 . S
C375 C376 1.332 . S
C376 H355 0.929 . S
C376 C372 1.407 . S
C376 C375 1.332 . S
H377 C370 0.930 . S
H378 C401 0.930 . S
H379 C402 0.929 . S
O380 Tb336 2.465 . S
O380 C400 1.264 . S
O381 Tb336 2.387 . S
O381 C392 1.264 . S
O382 Tb347 2.349 1_455 S
O382 C392 1.243 . S
O383 Tb336 2.428 . S
O383 C400 1.256 . S
O384 Tb336 2.308 . S
O384 C399 1.266 . S
O385 Tb347 2.393 1_455 S
O385 C399 1.248 . S
O386 Tb347 2.465 . S
O386 C411 1.264 . S
O387 Tb347 2.387 1_465 S
O387 C403 1.264 . S
O388 Tb336 2.349 . S
O388 C403 1.243 1_545 S
O389 Tb347 2.428 . S
O389 C411 1.256 . S
O390 Tb347 2.308 1_455 S
O390 C410 1.266 . S
O391 Tb336 2.393 . S
O391 C410 1.248 . S
C392 O381 1.264 . S
C392 O382 1.243 . S
C393 C396 1.399 . S
C393 C398 1.383 . S
C393 C400 1.496 . S
C394 C395 1.399 . S
C394 C398 1.389 . S
C395 C394 1.399 . S
C395 C397 1.380 . S
C395 H412 0.929 . S
C396 C393 1.399 . S
C396 C397 1.392 . S
C396 H413 0.929 . S
C397 C395 1.380 . S
C397 C396 1.392 . S
C397 H414 0.929 . S
C398 C393 1.383 . S
C398 C394 1.389 . S
C398 H415 0.931 . S
C399 O384 1.266 . S
C399 O385 1.248 . S
C400 Tb336 2.802 . S
C400 O380 1.264 . S
C400 O383 1.256 . S
C400 C393 1.496 . S
C401 C368 1.448 . S
C401 H378 0.930 . S
C401 C402 1.328 . S
C402 C373 1.427 . S
C402 H379 0.929 . S
C402 C401 1.328 . S
C403 O387 1.264 . S
C403 O388 1.243 1_565 S
C404 C407 1.399 1_554 S
C404 C408 1.383 . S
C404 C411 1.496 . S
C405 C406 1.399 . S
C405 C408 1.389 . S
C406 C405 1.399 . S
C406 C409 1.380 1_554 S
C406 H416 0.929 . S
C407 C404 1.399 1_556 S
C407 C409 1.392 . S
C407 H417 0.929 . S
C408 C404 1.383 . S
C408 C405 1.389 . S
C408 H418 0.931 . S
C409 C406 1.380 1_556 S
C409 C407 1.392 . S
C409 H419 0.929 . S
C410 O390 1.266 . S
C410 O391 1.248 . S
C411 Tb347 2.802 . S
C411 O386 1.264 . S
C411 O389 1.256 . S
C411 C404 1.496 . S
H412 C395 0.929 . S
H413 C396 0.929 . S
H414 C397 0.929 . S
H415 C398 0.931 . S
H416 C406 0.929 . S
H417 C407 0.929 . S
H418 C408 0.931 . S
H419 C409 0.929 . S
Tb420 N449 2.617 . S
Tb420 N455 2.572 . S
Tb420 O464 2.465 . S
Tb420 O465 2.387 . S
Tb420 O467 2.428 . S
Tb420 O468 2.308 . S
Tb420 O472 2.349 . S
Tb420 O475 2.393 . S
Tb420 C484 2.802 . S
C421 N422 1.379 . S
C421 C424 1.416 . S
C421 C428 1.424 . S
N422 C421 1.379 . S
N422 C425 1.334 . S
N422 Tb431 2.617 . S
C423 C425 1.390 . S
C423 C426 1.339 . S
C423 H443 0.930 . S
C424 C421 1.416 . S
C424 C426 1.416 . S
C424 C430 1.448 . S
C425 N422 1.334 . S
C425 C423 1.390 . S
C425 H436 0.930 . S
C426 C423 1.339 . S
C426 C424 1.416 . S
C426 H447 0.930 . S
C427 C428 1.413 . S
C427 C429 1.427 . S
C427 C433 1.416 . S
C428 C421 1.424 . S
C428 C427 1.413 . S
C428 N432 1.361 . S
C429 C427 1.427 . S
C429 C430 1.328 . S
C429 H444 0.929 . S
C430 C424 1.448 . S
C430 C429 1.328 . S
C430 H445 0.930 . S
Tb431 N422 2.617 . S
Tb431 N432 2.572 . S
Tb431 O466 2.349 . S
Tb431 O469 2.393 . S
Tb431 O470 2.465 . S
Tb431 O471 2.387 . S
Tb431 O473 2.428 . S
Tb431 O474 2.308 . S
Tb431 C495 2.802 . S
N432 C428 1.361 . S
N432 Tb431 2.572 . S
N432 C434 1.340 . S
C433 C427 1.416 . S
C433 C435 1.332 . S
C433 H441 0.931 . S
C434 N432 1.340 . S
C434 C435 1.407 . S
C434 H440 0.930 . S
C435 C433 1.332 . S
C435 C434 1.407 . S
C435 H437 0.929 . S
H436 C425 0.930 . S
H437 C435 0.929 . S
H438 C453 0.930 . S
H439 C460 0.929 . S
H440 C434 0.930 . S
H441 C433 0.931 . S
H442 C456 0.930 . S
H443 C423 0.930 . S
H444 C429 0.929 . S
H445 C430 0.930 . S
H446 C451 0.930 . S
H447 C426 0.930 . S
H448 C459 0.931 . S
N449 Tb420 2.617 . S
N449 C450 1.379 . S
N449 C453 1.334 . S
C450 N449 1.379 . S
C450 C452 1.416 . S
C450 C458 1.424 . S
C451 H446 0.930 . S
C451 C453 1.390 . S
C451 C454 1.339 . S
C452 C450 1.416 . S
C452 C454 1.416 . S
C452 C485 1.448 . S
C453 H438 0.930 . S
C453 N449 1.334 . S
C453 C451 1.390 . S
C454 C451 1.339 . S
C454 C452 1.416 . S
C454 H461 0.930 . S
N455 Tb420 2.572 . S
N455 C456 1.340 . S
N455 C458 1.361 . S
C456 H442 0.930 . S
C456 N455 1.340 . S
C456 C460 1.407 . S
C457 C458 1.413 . S
C457 C459 1.416 . S
C457 C486 1.427 . S
C458 C450 1.424 . S
C458 N455 1.361 . S
C458 C457 1.413 . S
C459 H448 0.931 . S
C459 C457 1.416 . S
C459 C460 1.332 . S
C460 H439 0.929 . S
C460 C456 1.407 . S
C460 C459 1.332 . S
H461 C454 0.930 . S
H462 C485 0.930 . S
H463 C486 0.929 . S
O464 Tb420 2.465 . S
O464 C484 1.264 . S
O465 Tb420 2.387 . S
O465 C476 1.264 . S
O466 Tb431 2.349 . S
O466 C476 1.243 . S
O467 Tb420 2.428 . S
O467 C484 1.256 . S
O468 Tb420 2.308 . S
O468 C483 1.266 . S
O469 Tb431 2.393 . S
O469 C483 1.248 . S
O470 Tb431 2.465 . S
O470 C495 1.264 . S
O471 Tb431 2.387 . S
O471 C487 1.264 . S
O472 Tb420 2.349 . S
O472 C487 1.243 . S
O473 Tb431 2.428 . S
O473 C495 1.256 . S
O474 Tb431 2.308 . S
O474 C494 1.266 . S
O475 Tb420 2.393 . S
O475 C494 1.248 . S
C476 O465 1.264 . S
C476 O466 1.243 . S
C477 C480 1.399 . S
C477 C482 1.383 . S
C477 C484 1.496 . S
C478 C479 1.399 . S
C478 C482 1.389 . S
C479 C478 1.399 . S
C479 C481 1.380 . S
C479 H496 0.929 . S
C480 C477 1.399 . S
C480 C481 1.392 . S
C480 H497 0.929 . S
C481 C479 1.380 . S
C481 C480 1.392 . S
C481 H498 0.929 . S
C482 C477 1.383 . S
C482 C478 1.389 . S
C482 H499 0.931 . S
C483 O468 1.266 . S
C483 O469 1.248 . S
C484 Tb420 2.802 . S
C484 O464 1.264 . S
C484 O467 1.256 . S
C484 C477 1.496 . S
C485 C452 1.448 . S
C485 H462 0.930 . S
C485 C486 1.328 . S
C486 C457 1.427 . S
C486 H463 0.929 . S
C486 C485 1.328 . S
C487 O471 1.264 . S
C487 O472 1.243 . S
C488 C491 1.399 . S
C488 C492 1.383 . S
C488 C495 1.496 . S
C489 C490 1.399 . S
C489 C492 1.389 . S
C490 C489 1.399 . S
C490 C493 1.380 . S
C490 H500 0.929 . S
C491 C488 1.399 . S
C491 C493 1.392 . S
C491 H501 0.929 . S
C492 C488 1.383 . S
C492 C489 1.389 . S
C492 H502 0.931 . S
C493 C490 1.380 . S
C493 C491 1.392 . S
C493 H503 0.929 . S
C494 O474 1.266 . S
C494 O475 1.248 . S
C495 Tb431 2.802 . S
C495 O470 1.264 . S
C495 O473 1.256 . S
C495 C488 1.496 . S
H496 C479 0.929 . S
H497 C480 0.929 . S
H498 C481 0.929 . S
H499 C482 0.931 . S
H500 C490 0.929 . S
H501 C491 0.929 . S
H502 C492 0.931 . S
H503 C493 0.929 . S
Tb504 N533 2.617 1_545 S
Tb504 N539 2.572 1_545 S
Tb504 O548 2.465 . S
Tb504 O549 2.387 1_545 S
Tb504 O551 2.428 . S
Tb504 O552 2.308 . S
Tb504 O556 2.349 . S
Tb504 O559 2.393 . S
Tb504 C568 2.802 . S
C505 N506 1.379 . S
C505 C508 1.416 . S
C505 C512 1.424 . S
N506 C505 1.379 . S
N506 C509 1.334 . S
N506 Tb515 2.617 . S
C507 C509 1.390 . S
C507 C510 1.339 . S
C507 H527 0.930 . S
C508 C505 1.416 . S
C508 C510 1.416 . S
C508 C514 1.448 . S
C509 N506 1.334 . S
C509 C507 1.390 . S
C509 H520 0.930 . S
C510 C507 1.339 . S
C510 C508 1.416 . S
C510 H531 0.930 . S
C511 C512 1.413 . S
C511 C513 1.427 . S
C511 C517 1.416 . S
C512 C505 1.424 . S
C512 C511 1.413 . S
C512 N516 1.361 . S
C513 C511 1.427 . S
C513 C514 1.328 . S
C513 H528 0.929 . S
C514 C508 1.448 . S
C514 C513 1.328 . S
C514 H529 0.930 . S
Tb515 N506 2.617 . S
Tb515 N516 2.572 . S
Tb515 O550 2.349 1_545 S
Tb515 O553 2.393 . S
Tb515 O554 2.465 . S
Tb515 O555 2.387 . S
Tb515 O557 2.428 . S
Tb515 O558 2.308 . S
Tb515 C579 2.802 . S
N516 C512 1.361 . S
N516 Tb515 2.572 . S
N516 C518 1.340 . S
C517 C511 1.416 . S
C517 C519 1.332 . S
C517 H525 0.931 . S
C518 N516 1.340 . S
C518 C519 1.407 . S
C518 H524 0.930 . S
C519 C517 1.332 . S
C519 C518 1.407 . S
C519 H521 0.929 . S
H520 C509 0.930 . S
H521 C519 0.929 . S
H522 C537 0.930 1_545 S
H523 C544 0.929 . S
H524 C518 0.930 . S
H525 C517 0.931 . S
H526 C540 0.930 . S
H527 C507 0.930 . S
H528 C513 0.929 . S
H529 C514 0.930 . S
H530 C535 0.930 . S
H531 C510 0.930 . S
H532 C543 0.931 . S
N533 Tb504 2.617 1_565 S
N533 C534 1.379 . S
N533 C537 1.334 . S
C534 N533 1.379 . S
C534 C536 1.416 . S
C534 C542 1.424 . S
C535 H530 0.930 . S
C535 C537 1.390 . S
C535 C538 1.339 . S
C536 C534 1.416 . S
C536 C538 1.416 . S
C536 C569 1.448 . S
C537 H522 0.930 1_565 S
C537 N533 1.334 . S
C537 C535 1.390 . S
C538 C535 1.339 . S
C538 C536 1.416 . S
C538 H545 0.930 . S
N539 Tb504 2.572 1_565 S
N539 C540 1.340 . S
N539 C542 1.361 . S
C540 H526 0.930 . S
C540 N539 1.340 . S
C540 C544 1.407 . S
C541 C542 1.413 . S
C541 C543 1.416 . S
C541 C570 1.427 . S
C542 C534 1.424 . S
C542 N539 1.361 . S
C542 C541 1.413 . S
C543 H532 0.931 . S
C543 C541 1.416 . S
C543 C544 1.332 . S
C544 H523 0.929 . S
C544 C540 1.407 . S
C544 C543 1.332 . S
H545 C538 0.930 . S
H546 C569 0.930 . S
H547 C570 0.929 . S
O548 Tb504 2.465 . S
O548 C568 1.264 . S
O549 Tb504 2.387 1_565 S
O549 C560 1.264 . S
O550 Tb515 2.349 1_565 S
O550 C560 1.243 . S
O551 Tb504 2.428 . S
O551 C568 1.256 . S
O552 Tb504 2.308 . S
O552 C567 1.266 . S
O553 Tb515 2.393 . S
O553 C567 1.248 . S
O554 Tb515 2.465 . S
O554 C579 1.264 . S
O555 Tb515 2.387 . S
O555 C571 1.264 . S
O556 Tb504 2.349 . S
O556 C571 1.243 . S
O557 Tb515 2.428 . S
O557 C579 1.256 . S
O558 Tb515 2.308 . S
O558 C578 1.266 . S
O559 Tb504 2.393 . S
O559 C578 1.248 . S
C560 O549 1.264 . S
C560 O550 1.243 . S
C561 C564 1.399 . S
C561 C566 1.383 . S
C561 C568 1.496 . S
C562 C563 1.399 . S
C562 C566 1.389 . S
C563 C562 1.399 . S
C563 C565 1.380 . S
C563 H580 0.929 . S
C564 C561 1.399 . S
C564 C565 1.392 . S
C564 H581 0.929 . S
C565 C563 1.380 . S
C565 C564 1.392 . S
C565 H582 0.929 . S
C566 C561 1.383 . S
C566 C562 1.389 . S
C566 H583 0.931 . S
C567 O552 1.266 . S
C567 O553 1.248 . S
C568 Tb504 2.802 . S
C568 O548 1.264 . S
C568 O551 1.256 . S
C568 C561 1.496 . S
C569 C536 1.448 . S
C569 H546 0.930 . S
C569 C570 1.328 . S
C570 C541 1.427 . S
C570 H547 0.929 . S
C570 C569 1.328 . S
C571 O555 1.264 . S
C571 O556 1.243 . S
C572 C575 1.399 . S
C572 C576 1.383 . S
C572 C579 1.496 1_565 S
C573 C574 1.399 . S
C573 C576 1.389 . S
C574 C573 1.399 . S
C574 C577 1.380 . S
C574 H584 0.929 . S
C575 C572 1.399 . S
C575 C577 1.392 . S
C575 H585 0.929 . S
C576 C572 1.383 . S
C576 C573 1.389 . S
C576 H586 0.931 . S
C577 C574 1.380 . S
C577 C575 1.392 . S
C577 H587 0.929 . S
C578 O558 1.266 . S
C578 O559 1.248 . S
C579 Tb515 2.802 . S
C579 O554 1.264 . S
C579 O557 1.256 . S
C579 C572 1.496 1_545 S
H580 C563 0.929 . S
H581 C564 0.929 . S
H582 C565 0.929 . S
H583 C566 0.931 . S
H584 C574 0.929 . S
H585 C575 0.929 . S
H586 C576 0.931 . S
H587 C577 0.929 . S
Tb588 N617 2.617 . S
Tb588 N623 2.572 . S
Tb588 O632 2.465 . S
Tb588 O633 2.387 . S
Tb588 O635 2.428 . S
Tb588 O636 2.308 . S
Tb588 O640 2.349 . S
Tb588 O643 2.393 . S
Tb588 C652 2.802 . S
C589 N590 1.379 . S
C589 C592 1.416 . S
C589 C596 1.424 . S
N590 C589 1.379 . S
N590 C593 1.334 . S
N590 Tb599 2.617 . S
C591 C593 1.390 . S
C591 C594 1.339 . S
C591 H611 0.930 . S
C592 C589 1.416 . S
C592 C594 1.416 . S
C592 C598 1.448 . S
C593 N590 1.334 . S
C593 C591 1.390 . S
C593 H604 0.930 . S
C594 C591 1.339 . S
C594 C592 1.416 . S
C594 H615 0.930 . S
C595 C596 1.413 . S
C595 C597 1.427 . S
C595 C601 1.416 . S
C596 C589 1.424 . S
C596 C595 1.413 . S
C596 N600 1.361 . S
C597 C595 1.427 . S
C597 C598 1.328 . S
C597 H612 0.929 . S
C598 C592 1.448 . S
C598 C597 1.328 . S
C598 H613 0.930 . S
Tb599 N590 2.617 . S
Tb599 N600 2.572 . S
Tb599 O634 2.349 . S
Tb599 O637 2.393 . S
Tb599 O638 2.465 . S
Tb599 O639 2.387 . S
Tb599 O641 2.428 . S
Tb599 O642 2.308 . S
Tb599 C663 2.802 . S
N600 C596 1.361 . S
N600 Tb599 2.572 . S
N600 C602 1.340 . S
C601 C595 1.416 . S
C601 C603 1.332 . S
C601 H609 0.931 . S
C602 N600 1.340 . S
C602 C603 1.407 . S
C602 H608 0.930 . S
C603 C601 1.332 . S
C603 C602 1.407 . S
C603 H605 0.929 . S
H604 C593 0.930 . S
H605 C603 0.929 . S
H606 C621 0.930 . S
H607 C628 0.929 . S
H608 C602 0.930 . S
H609 C601 0.931 . S
H610 C624 0.930 . S
H611 C591 0.930 . S
H612 C597 0.929 . S
H613 C598 0.930 . S
H614 C619 0.930 . S
H615 C594 0.930 . S
H616 C627 0.931 . S
N617 Tb588 2.617 . S
N617 C618 1.379 . S
N617 C621 1.334 . S
C618 N617 1.379 . S
C618 C620 1.416 . S
C618 C626 1.424 . S
C619 H614 0.930 . S
C619 C621 1.390 . S
C619 C622 1.339 . S
C620 C618 1.416 . S
C620 C622 1.416 . S
C620 C653 1.448 . S
C621 H606 0.930 . S
C621 N617 1.334 . S
C621 C619 1.390 . S
C622 C619 1.339 . S
C622 C620 1.416 . S
C622 H629 0.930 . S
N623 Tb588 2.572 . S
N623 C624 1.340 . S
N623 C626 1.361 . S
C624 H610 0.930 . S
C624 N623 1.340 . S
C624 C628 1.407 . S
C625 C626 1.413 . S
C625 C627 1.416 . S
C625 C654 1.427 . S
C626 C618 1.424 . S
C626 N623 1.361 . S
C626 C625 1.413 . S
C627 H616 0.931 . S
C627 C625 1.416 . S
C627 C628 1.332 . S
C628 H607 0.929 . S
C628 C624 1.407 . S
C628 C627 1.332 . S
H629 C622 0.930 . S
H630 C653 0.930 . S
H631 C654 0.929 . S
O632 Tb588 2.465 . S
O632 C652 1.264 . S
O633 Tb588 2.387 . S
O633 C644 1.264 . S
O634 Tb599 2.349 . S
O634 C644 1.243 . S
O635 Tb588 2.428 . S
O635 C652 1.256 . S
O636 Tb588 2.308 . S
O636 C651 1.266 . S
O637 Tb599 2.393 . S
O637 C651 1.248 . S
O638 Tb599 2.465 . S
O638 C663 1.264 . S
O639 Tb599 2.387 . S
O639 C655 1.264 . S
O640 Tb588 2.349 . S
O640 C655 1.243 . S
O641 Tb599 2.428 . S
O641 C663 1.256 . S
O642 Tb599 2.308 . S
O642 C662 1.266 . S
O643 Tb588 2.393 . S
O643 C662 1.248 . S
C644 O633 1.264 . S
C644 O634 1.243 . S
C645 C648 1.399 . S
C645 C650 1.383 . S
C645 C652 1.496 . S
C646 C647 1.399 . S
C646 C650 1.389 . S
C647 C646 1.399 . S
C647 C649 1.380 . S
C647 H664 0.929 . S
C648 C645 1.399 . S
C648 C649 1.392 . S
C648 H665 0.929 . S
C649 C647 1.380 . S
C649 C648 1.392 . S
C649 H666 0.929 . S
C650 C645 1.383 . S
C650 C646 1.389 . S
C650 H667 0.931 . S
C651 O636 1.266 . S
C651 O637 1.248 . S
C652 Tb588 2.802 . S
C652 O632 1.264 . S
C652 O635 1.256 . S
C652 C645 1.496 . S
C653 C620 1.448 . S
C653 H630 0.930 . S
C653 C654 1.328 . S
C654 C625 1.427 . S
C654 H631 0.929 . S
C654 C653 1.328 . S
C655 O639 1.264 . S
C655 O640 1.243 . S
C656 C659 1.399 . S
C656 C660 1.383 . S
C656 C663 1.496 . S
C657 C658 1.399 . S
C657 C660 1.389 . S
C658 C657 1.399 . S
C658 C661 1.380 . S
C658 H668 0.929 . S
C659 C656 1.399 . S
C659 C661 1.392 . S
C659 H669 0.929 . S
C660 C656 1.383 . S
C660 C657 1.389 . S
C660 H670 0.931 . S
C661 C658 1.380 . S
C661 C659 1.392 . S
C661 H671 0.929 . S
C662 O642 1.266 . S
C662 O643 1.248 . S
C663 Tb599 2.802 . S
C663 O638 1.264 . S
C663 O641 1.256 . S
C663 C656 1.496 . S
H664 C647 0.929 . S
H665 C648 0.929 . S
H666 C649 0.929 . S
H667 C650 0.931 . S
H668 C658 0.929 . S
H669 C659 0.929 . S
H670 C660 0.931 . S
H671 C661 0.929 . S
Tb672 N701 2.632 . S
Tb672 N707 2.596 . S
Tb672 O716 2.497 . S
Tb672 O717 2.364 1_565 S
Tb672 O719 2.459 . S
Tb672 O720 2.295 1_565 S
Tb672 O724 2.337 1_565 S
Tb672 O727 2.369 1_565 S
Tb672 C736 2.838 . S
C673 N674 1.379 . S
C673 C676 1.416 . S
C673 C680 1.424 . S
N674 C673 1.379 . S
N674 C677 1.334 1_455 S
N674 Tb683 2.617 . S
C675 C677 1.390 . S
C675 C678 1.339 . S
C675 H695 0.930 . S
C676 C673 1.416 . S
C676 C678 1.416 1_455 S
C676 C682 1.448 . S
C677 N674 1.334 1_655 S
C677 C675 1.390 . S
C677 H688 0.930 . S
C678 C675 1.339 . S
C678 C676 1.416 1_655 S
C678 H699 0.930 . S
C679 C680 1.413 . S
C679 C681 1.427 . S
C679 C685 1.416 . S
C680 C673 1.424 . S
C680 C679 1.413 . S
C680 N684 1.361 . S
C681 C679 1.427 . S
C681 C682 1.328 . S
C681 H696 0.929 . S
C682 C676 1.448 . S
C682 C681 1.328 . S
C682 H697 0.930 . S
Tb683 N674 2.617 . S
Tb683 N684 2.572 . S
Tb683 O718 2.349 . S
Tb683 O721 2.393 1_455 S
Tb683 O722 2.465 . S
Tb683 O723 2.387 . S
Tb683 O725 2.428 . S
Tb683 O726 2.308 . S
Tb683 C747 2.802 . S
N684 C680 1.361 . S
N684 Tb683 2.572 . S
N684 C686 1.340 . S
C685 C679 1.416 . S
C685 C687 1.332 . S
C685 H693 0.931 . S
C686 N684 1.340 . S
C686 C687 1.407 . S
C686 H692 0.930 . S
C687 C685 1.332 . S
C687 C686 1.407 . S
C687 H689 0.929 . S
H688 C677 0.930 . S
H689 C687 0.929 . S
H690 C705 0.930 1_545 S
H691 C712 0.929 . S
H692 C686 0.930 . S
H693 C685 0.931 . S
H694 C708 0.930 1_655 S
H695 C675 0.930 . S
H696 C681 0.929 . S
H697 C682 0.930 . S
H698 C703 0.930 . S
H699 C678 0.930 . S
H700 C711 0.930 1_655 S
N701 Tb672 2.632 . S
N701 C702 1.379 . S
N701 C705 1.334 . S
C702 N701 1.379 . S
C702 C704 1.416 . S
C702 C710 1.424 . S
C703 H698 0.930 . S
C703 C705 1.390 . S
C703 C706 1.339 . S
C704 C702 1.416 . S
C704 C706 1.416 . S
C704 C737 1.448 . S
C705 H690 0.930 1_565 S
C705 N701 1.334 . S
C705 C703 1.390 . S
C706 C703 1.339 . S
C706 C704 1.416 . S
C706 H713 0.930 . S
N707 Tb672 2.596 . S
N707 C708 1.340 . S
N707 C710 1.361 . S
C708 H694 0.930 1_455 S
C708 N707 1.340 . S
C708 C712 1.407 1_455 S
C709 C710 1.413 . S
C709 C711 1.418 . S
C709 C738 1.427 . S
C710 C702 1.424 . S
C710 N707 1.361 . S
C710 C709 1.413 . S
C711 H700 0.930 1_455 S
C711 C709 1.418 . S
C711 C712 1.331 1_455 S
C712 H691 0.929 . S
C712 C708 1.407 1_655 S
C712 C711 1.331 1_655 S
H713 C706 0.930 . S
H714 C737 0.930 . S
H715 C738 0.929 . S
O716 Tb672 2.497 . S
O716 C736 1.264 . S
O717 Tb672 2.364 1_545 S
O717 C728 1.264 . S
O718 Tb683 2.349 . S
O718 C728 1.243 . S
O719 Tb672 2.459 . S
O719 C736 1.256 . S
O720 Tb672 2.295 1_545 S
O720 C735 1.266 1_455 S
O721 Tb683 2.393 1_655 S
O721 C735 1.248 . S
O722 Tb683 2.465 . S
O722 C747 1.264 . S
O723 Tb683 2.387 . S
O723 C739 1.264 . S
O724 Tb672 2.337 1_545 S
O724 C739 1.243 . S
O725 Tb683 2.428 . S
O725 C747 1.256 . S
O726 Tb683 2.308 . S
O726 C746 1.266 . S
O727 Tb672 2.369 1_545 S
O727 C746 1.248 . S
C728 O717 1.264 . S
C728 O718 1.243 . S
C729 C732 1.399 . S
C729 C734 1.383 . S
C729 C736 1.496 . S
C730 C731 1.399 . S
C730 C734 1.389 . S
C731 C730 1.399 . S
C731 C733 1.380 . S
C731 H748 0.929 . S
C732 C729 1.399 . S
C732 C733 1.392 . S
C732 H749 0.929 . S
C733 C731 1.380 . S
C733 C732 1.392 . S
C733 H750 0.929 . S
C734 C729 1.383 . S
C734 C730 1.389 . S
C734 H751 0.931 . S
C735 O720 1.266 1_655 S
C735 O721 1.248 . S
C736 Tb672 2.838 . S
C736 O716 1.264 . S
C736 O719 1.256 . S
C736 C729 1.496 . S
C737 C704 1.448 . S
C737 H714 0.930 . S
C737 C738 1.328 . S
C738 C709 1.427 . S
C738 H715 0.929 . S
C738 C737 1.328 . S
C739 O723 1.264 . S
C739 O724 1.243 . S
C740 C743 1.399 1_455 S
C740 C744 1.383 . S
C740 C747 1.496 . S
C741 C742 1.399 . S
C741 C744 1.389 . S
C742 C741 1.399 . S
C742 C745 1.380 1_455 S
C742 H752 0.929 . S
C743 C740 1.399 1_655 S
C743 C745 1.392 . S
C743 H753 0.929 . S
C744 C740 1.383 . S
C744 C741 1.389 . S
C744 H754 0.931 . S
C745 C742 1.380 1_655 S
C745 C743 1.392 . S
C745 H755 0.929 . S
C746 O726 1.266 . S
C746 O727 1.248 . S
C747 Tb683 2.802 . S
C747 O722 1.264 . S
C747 O725 1.256 . S
C747 C740 1.496 . S
H748 C731 0.929 . S
H749 C732 0.929 . S
H750 C733 0.929 . S
H751 C734 0.931 . S
H752 C742 0.929 . S
H753 C743 0.929 . S
H754 C744 0.931 . S
H755 C745 0.929 . S
Tb756 N785 2.617 . S
Tb756 N791 2.572 . S
Tb756 O800 2.465 . S
Tb756 O801 2.387 . S
Tb756 O803 2.428 . S
Tb756 O804 2.308 . S
Tb756 O808 2.349 . S
Tb756 O811 2.393 . S
Tb756 C820 2.802 . S
C757 N758 1.379 . S
C757 C760 1.416 . S
C757 C764 1.424 . S
N758 C757 1.379 . S
N758 C761 1.334 . S
N758 Tb767 2.617 . S
C759 C761 1.390 . S
C759 C762 1.339 . S
C759 H779 0.930 . S
C760 C757 1.416 . S
C760 C762 1.416 . S
C760 C766 1.448 . S
C761 N758 1.334 . S
C761 C759 1.390 . S
C761 H772 0.930 . S
C762 C759 1.339 . S
C762 C760 1.416 . S
C762 H783 0.930 . S
C763 C764 1.413 . S
C763 C765 1.427 . S
C763 C769 1.416 . S
C764 C757 1.424 . S
C764 C763 1.413 . S
C764 N768 1.361 . S
C765 C763 1.427 . S
C765 C766 1.328 . S
C765 H780 0.929 . S
C766 C760 1.448 . S
C766 C765 1.328 . S
C766 H781 0.930 . S
Tb767 N758 2.617 . S
Tb767 N768 2.572 . S
Tb767 O802 2.349 . S
Tb767 O805 2.393 . S
Tb767 O806 2.465 . S
Tb767 O807 2.387 . S
Tb767 O809 2.428 . S
Tb767 O810 2.308 . S
Tb767 C831 2.802 . S
N768 C764 1.361 . S
N768 Tb767 2.572 . S
N768 C770 1.340 . S
C769 C763 1.416 . S
C769 C771 1.332 . S
C769 H777 0.931 . S
C770 N768 1.340 . S
C770 C771 1.407 . S
C770 H776 0.930 . S
C771 C769 1.332 . S
C771 C770 1.407 . S
C771 H773 0.929 . S
H772 C761 0.930 . S
H773 C771 0.929 . S
H774 C789 0.930 . S
H775 C796 0.929 . S
H776 C770 0.930 . S
H777 C769 0.931 . S
H778 C792 0.930 . S
H779 C759 0.930 . S
H780 C765 0.929 . S
H781 C766 0.930 . S
H782 C787 0.930 . S
H783 C762 0.930 . S
H784 C795 0.931 . S
N785 Tb756 2.617 . S
N785 C786 1.379 . S
N785 C789 1.334 . S
C786 N785 1.379 . S
C786 C788 1.416 . S
C786 C794 1.424 . S
C787 H782 0.930 . S
C787 C789 1.390 . S
C787 C790 1.339 . S
C788 C786 1.416 . S
C788 C790 1.416 . S
C788 C821 1.448 . S
C789 H774 0.930 . S
C789 N785 1.334 . S
C789 C787 1.390 . S
C790 C787 1.339 . S
C790 C788 1.416 . S
C790 H797 0.930 . S
N791 Tb756 2.572 . S
N791 C792 1.340 . S
N791 C794 1.361 . S
C792 H778 0.930 . S
C792 N791 1.340 . S
C792 C796 1.407 . S
C793 C794 1.413 . S
C793 C795 1.416 . S
C793 C822 1.427 . S
C794 C786 1.424 . S
C794 N791 1.361 . S
C794 C793 1.413 . S
C795 H784 0.931 . S
C795 C793 1.416 . S
C795 C796 1.332 . S
C796 H775 0.929 . S
C796 C792 1.407 . S
C796 C795 1.332 . S
H797 C790 0.930 . S
H798 C821 0.930 . S
H799 C822 0.929 . S
O800 Tb756 2.465 . S
O800 C820 1.264 . S
O801 Tb756 2.387 . S
O801 C812 1.264 . S
O802 Tb767 2.349 . S
O802 C812 1.243 . S
O803 Tb756 2.428 . S
O803 C820 1.256 . S
O804 Tb756 2.308 . S
O804 C819 1.266 . S
O805 Tb767 2.393 . S
O805 C819 1.248 . S
O806 Tb767 2.465 . S
O806 C831 1.264 . S
O807 Tb767 2.387 . S
O807 C823 1.264 . S
O808 Tb756 2.349 . S
O808 C823 1.243 . S
O809 Tb767 2.428 . S
O809 C831 1.256 . S
O810 Tb767 2.308 . S
O810 C830 1.266 . S
O811 Tb756 2.393 . S
O811 C830 1.248 . S
C812 O801 1.264 . S
C812 O802 1.243 . S
C813 C816 1.399 . S
C813 C818 1.383 . S
C813 C820 1.496 . S
C814 C815 1.399 . S
C814 C818 1.389 . S
C815 C814 1.399 . S
C815 C817 1.380 . S
C815 H832 0.929 . S
C816 C813 1.399 . S
C816 C817 1.392 . S
C816 H833 0.929 . S
C817 C815 1.380 . S
C817 C816 1.392 . S
C817 H834 0.929 . S
C818 C813 1.383 . S
C818 C814 1.389 . S
C818 H835 0.931 . S
C819 O804 1.266 . S
C819 O805 1.248 . S
C820 Tb756 2.802 . S
C820 O800 1.264 . S
C820 O803 1.256 . S
C820 C813 1.496 . S
C821 C788 1.448 . S
C821 H798 0.930 . S
C821 C822 1.328 . S
C822 C793 1.427 . S
C822 H799 0.929 . S
C822 C821 1.328 . S
C823 O807 1.264 . S
C823 O808 1.243 . S
C824 C827 1.399 . S
C824 C828 1.383 . S
C824 C831 1.496 . S
C825 C826 1.399 . S
C825 C828 1.389 . S
C826 C825 1.399 . S
C826 C829 1.380 . S
C826 H836 0.929 . S
C827 C824 1.399 . S
C827 C829 1.392 . S
C827 H837 0.929 . S
C828 C824 1.383 . S
C828 C825 1.389 . S
C828 H838 0.931 . S
C829 C826 1.380 . S
C829 C827 1.392 . S
C829 H839 0.929 . S
C830 O810 1.266 . S
C830 O811 1.248 . S
C831 Tb767 2.802 . S
C831 O806 1.264 . S
C831 O809 1.256 . S
C831 C824 1.496 . S
H832 C815 0.929 . S
H833 C816 0.929 . S
H834 C817 0.929 . S
H835 C818 0.931 . S
H836 C826 0.929 . S
H837 C827 0.929 . S
H838 C828 0.931 . S
H839 C829 0.929 . S
Tb840 N869 2.628 . S
Tb840 N875 2.572 1_554 S
Tb840 O884 2.465 1_554 S
Tb840 O885 2.387 . S
Tb840 O887 2.428 1_554 S
Tb840 O888 2.308 . S
Tb840 O892 2.349 . S
Tb840 O895 2.393 . S
Tb840 C904 2.802 1_554 S
C841 N842 1.380 . S
C841 C844 1.418 . S
C841 C848 1.421 1_565 S
N842 C841 1.380 . S
N842 C845 1.334 . S
N842 Tb851 2.617 1_565 S
C843 C845 1.390 . S
C843 C846 1.339 . S
C843 H863 0.930 . S
C844 C841 1.418 . S
C844 C846 1.416 . S
C844 C850 1.447 1_565 S
C845 N842 1.334 . S
C845 C843 1.390 . S
C845 H856 0.930 . S
C846 C843 1.339 . S
C846 C844 1.416 . S
C846 H867 0.930 . S
C847 C848 1.413 . S
C847 C849 1.427 . S
C847 C853 1.416 . S
C848 C841 1.421 1_545 S
C848 C847 1.413 . S
C848 N852 1.361 . S
C849 C847 1.427 . S
C849 C850 1.335 . S
C849 H864 0.929 . S
C850 C844 1.447 1_545 S
C850 C849 1.335 . S
C850 H865 0.925 1_545 S
Tb851 N842 2.617 1_545 S
Tb851 N852 2.572 . S
Tb851 O886 2.349 . S
Tb851 O889 2.393 1_545 S
Tb851 O890 2.465 . S
Tb851 O891 2.387 . S
Tb851 O893 2.428 1_545 S
Tb851 O894 2.308 . S
Tb851 C915 2.802 . S
N852 C848 1.361 . S
N852 Tb851 2.572 . S
N852 C854 1.340 . S
C853 C847 1.416 . S
C853 C855 1.332 . S
C853 H861 0.931 . S
C854 N852 1.340 . S
C854 C855 1.407 . S
C854 H860 0.930 . S
C855 C853 1.332 . S
C855 C854 1.407 . S
C855 H857 0.929 . S
H856 C845 0.930 . S
H857 C855 0.929 . S
H858 C873 0.930 . S
H859 C880 0.929 . S
H860 C854 0.930 . S
H861 C853 0.931 . S
H862 C876 0.930 1_565 S
H863 C843 0.930 . S
H864 C849 0.929 . S
H865 C850 0.925 1_565 S
H866 C871 0.930 . S
H867 C846 0.930 . S
H868 C879 0.931 1_565 S
N869 Tb840 2.628 . S
N869 C870 1.360 1_554 S
N869 C873 1.345 . S
C870 N869 1.360 1_556 S
C870 C872 1.416 . S
C870 C878 1.424 . S
C871 H866 0.930 . S
C871 C873 1.390 . S
C871 C874 1.339 1_554 S
C872 C870 1.416 . S
C872 C874 1.416 . S
C872 C905 1.448 . S
C873 H858 0.930 . S
C873 N869 1.345 . S
C873 C871 1.390 . S
C874 C871 1.339 1_556 S
C874 C872 1.416 . S
C874 H881 0.930 . S
N875 Tb840 2.572 1_556 S
N875 C876 1.340 . S
N875 C878 1.361 . S
C876 H862 0.930 1_545 S
C876 N875 1.340 . S
C876 C880 1.407 1_545 S
C877 C878 1.413 . S
C877 C879 1.416 . S
C877 C906 1.427 . S
C878 C870 1.424 . S
C878 N875 1.361 . S
C878 C877 1.413 . S
C879 H868 0.931 1_545 S
C879 C877 1.416 . S
C879 C880 1.332 1_545 S
C880 H859 0.929 . S
C880 C876 1.407 1_565 S
C880 C879 1.332 1_565 S
H881 C874 0.930 . S
H882 C905 0.930 . S
H883 C906 0.929 . S
O884 Tb840 2.465 1_556 S
O884 C904 1.264 . S
O885 Tb840 2.387 . S
O885 C896 1.264 . S
O886 Tb851 2.349 . S
O886 C896 1.243 . S
O887 Tb840 2.428 1_556 S
O887 C904 1.256 . S
O888 Tb840 2.308 . S
O888 C903 1.266 1_545 S
O889 Tb851 2.393 1_565 S
O889 C903 1.248 . S
O890 Tb851 2.465 . S
O890 C915 1.264 . S
O891 Tb851 2.387 . S
O891 C907 1.264 . S
O892 Tb840 2.349 . S
O892 C907 1.243 . S
O893 Tb851 2.428 1_565 S
O893 C915 1.256 1_565 S
O894 Tb851 2.308 . S
O894 C914 1.266 . S
O895 Tb840 2.393 . S
O895 C914 1.248 . S
C896 O885 1.264 . S
C896 O886 1.243 . S
C897 C900 1.399 . S
C897 C902 1.383 . S
C897 C904 1.496 . S
C898 C899 1.399 . S
C898 C902 1.389 . S
C899 C898 1.399 . S
C899 C901 1.380 . S
C899 H916 0.929 . S
C900 C897 1.399 . S
C900 C901 1.392 . S
C900 H917 0.929 . S
C901 C899 1.380 . S
C901 C900 1.392 . S
C901 H918 0.929 . S
C902 C897 1.383 . S
C902 C898 1.389 . S
C902 H919 0.931 . S
C903 O888 1.266 1_565 S
C903 O889 1.248 . S
C904 Tb840 2.802 1_556 S
C904 O884 1.264 . S
C904 O887 1.256 . S
C904 C897 1.496 . S
C905 C872 1.448 . S
C905 H882 0.930 . S
C905 C906 1.328 . S
C906 C877 1.427 . S
C906 H883 0.929 . S
C906 C905 1.328 . S
C907 O891 1.264 . S
C907 O892 1.243 . S
C908 C911 1.399 . S
C908 C912 1.383 1_565 S
C908 C915 1.496 1_565 S
C909 C910 1.399 1_545 S
C909 C912 1.389 . S
C910 C909 1.399 1_565 S
C910 C913 1.380 . S
C910 H920 0.929 . S
C911 C908 1.399 . S
C911 C913 1.392 . S
C911 H921 0.929 . S
C912 C908 1.383 1_545 S
C912 C909 1.389 . S
C912 H922 0.931 . S
C913 C910 1.380 . S
C913 C911 1.392 . S
C913 H923 0.929 . S
C914 O894 1.266 . S
C914 O895 1.248 . S
C915 Tb851 2.802 . S
C915 O890 1.264 . S
C915 O893 1.256 1_545 S
C915 C908 1.496 1_545 S
H916 C899 0.929 . S
H917 C900 0.929 . S
H918 C901 0.929 . S
H919 C902 0.931 . S
H920 C910 0.929 . S
H921 C911 0.929 . S
H922 C912 0.931 . S
H923 C913 0.929 . S
Tb924 N953 2.617 . S
Tb924 N959 2.572 . S
Tb924 O968 2.465 . S
Tb924 O969 2.387 . S
Tb924 O971 2.428 . S
Tb924 O972 2.308 . S
Tb924 O976 2.349 . S
Tb924 O979 2.393 . S
Tb924 C988 2.802 . S
C925 N926 1.379 . S
C925 C928 1.416 . S
C925 C932 1.424 . S
N926 C925 1.379 . S
N926 C929 1.334 . S
N926 Tb935 2.617 . S
C927 C929 1.390 . S
C927 C930 1.339 . S
C927 H947 0.930 . S
C928 C925 1.416 . S
C928 C930 1.416 . S
C928 C934 1.448 . S
C929 N926 1.334 . S
C929 C927 1.390 . S
C929 H940 0.930 . S
C930 C927 1.339 . S
C930 C928 1.416 . S
C930 H951 0.930 . S
C931 C932 1.413 . S
C931 C933 1.427 . S
C931 C937 1.416 . S
C932 C925 1.424 . S
C932 C931 1.413 . S
C932 N936 1.361 . S
C933 C931 1.427 . S
C933 C934 1.328 . S
C933 H948 0.929 . S
C934 C928 1.448 . S
C934 C933 1.328 . S
C934 H949 0.930 . S
Tb935 N926 2.617 . S
Tb935 N936 2.572 . S
Tb935 O970 2.349 . S
Tb935 O973 2.393 . S
Tb935 O974 2.465 . S
Tb935 O975 2.387 . S
Tb935 O977 2.428 . S
Tb935 O978 2.308 . S
Tb935 C999 2.802 . S
N936 C932 1.361 . S
N936 Tb935 2.572 . S
N936 C938 1.340 . S
C937 C931 1.416 . S
C937 C939 1.332 . S
C937 H945 0.931 . S
C938 N936 1.340 . S
C938 C939 1.407 . S
C938 H944 0.930 . S
C939 C937 1.332 . S
C939 C938 1.407 . S
C939 H941 0.929 . S
H940 C929 0.930 . S
H941 C939 0.929 . S
H942 C957 0.930 . S
H943 C964 0.929 . S
H944 C938 0.930 . S
H945 C937 0.931 . S
H946 C960 0.930 . S
H947 C927 0.930 . S
H948 C933 0.929 . S
H949 C934 0.930 . S
H950 C955 0.930 . S
H951 C930 0.930 . S
H952 C963 0.931 . S
N953 Tb924 2.617 . S
N953 C954 1.379 . S
N953 C957 1.334 . S
C954 N953 1.379 . S
C954 C956 1.416 . S
C954 C962 1.424 . S
C955 H950 0.930 . S
C955 C957 1.390 . S
C955 C958 1.339 . S
C956 C954 1.416 . S
C956 C958 1.416 . S
C956 C989 1.448 . S
C957 H942 0.930 . S
C957 N953 1.334 . S
C957 C955 1.390 . S
C958 C955 1.339 . S
C958 C956 1.416 . S
C958 H965 0.930 . S
N959 Tb924 2.572 . S
N959 C960 1.340 . S
N959 C962 1.361 . S
C960 H946 0.930 . S
C960 N959 1.340 . S
C960 C964 1.407 . S
C961 C962 1.413 . S
C961 C963 1.416 . S
C961 C990 1.427 . S
C962 C954 1.424 . S
C962 N959 1.361 . S
C962 C961 1.413 . S
C963 H952 0.931 . S
C963 C961 1.416 . S
C963 C964 1.332 . S
C964 H943 0.929 . S
C964 C960 1.407 . S
C964 C963 1.332 . S
H965 C958 0.930 . S
H966 C989 0.930 . S
H967 C990 0.929 . S
O968 Tb924 2.465 . S
O968 C988 1.264 . S
O969 Tb924 2.387 . S
O969 C980 1.264 . S
O970 Tb935 2.349 . S
O970 C980 1.243 . S
O971 Tb924 2.428 . S
O971 C988 1.256 . S
O972 Tb924 2.308 . S
O972 C987 1.266 . S
O973 Tb935 2.393 . S
O973 C987 1.248 . S
O974 Tb935 2.465 . S
O974 C999 1.264 . S
O975 Tb935 2.387 . S
O975 C991 1.264 . S
O976 Tb924 2.349 . S
O976 C991 1.243 . S
O977 Tb935 2.428 . S
O977 C999 1.256 . S
O978 Tb935 2.308 . S
O978 C998 1.266 . S
O979 Tb924 2.393 . S
O979 C998 1.248 . S
C980 O969 1.264 . S
C980 O970 1.243 . S
C981 C984 1.399 . S
C981 C986 1.383 . S
C981 C988 1.496 . S
C982 C983 1.399 . S
C982 C986 1.389 . S
C983 C982 1.399 . S
C983 C985 1.380 . S
C983 H1000 0.929 . S
C984 C981 1.399 . S
C984 C985 1.392 . S
C984 H1001 0.929 . S
C985 C983 1.380 . S
C985 C984 1.392 . S
C985 H1002 0.929 . S
C986 C981 1.383 . S
C986 C982 1.389 . S
C986 H1003 0.931 . S
C987 O972 1.266 . S
C987 O973 1.248 . S
C988 Tb924 2.802 . S
C988 O968 1.264 . S
C988 O971 1.256 . S
C988 C981 1.496 . S
C989 C956 1.448 . S
C989 H966 0.930 . S
C989 C990 1.328 . S
C990 C961 1.427 . S
C990 H967 0.929 . S
C990 C989 1.328 . S
C991 O975 1.264 . S
C991 O976 1.243 . S
C992 C995 1.399 . S
C992 C996 1.383 . S
C992 C999 1.496 . S
C993 C994 1.399 . S
C993 C996 1.389 . S
C994 C993 1.399 . S
C994 C997 1.380 . S
C994 H1004 0.929 . S
C995 C992 1.399 . S
C995 C997 1.392 . S
C995 H1005 0.929 . S
C996 C992 1.383 . S
C996 C993 1.389 . S
C996 H1006 0.931 . S
C997 C994 1.380 . S
C997 C995 1.392 . S
C997 H1007 0.929 . S
C998 O978 1.266 . S
C998 O979 1.248 . S
C999 Tb935 2.802 . S
C999 O974 1.264 . S
C999 O977 1.256 . S
C999 C992 1.496 . S
H1000 C983 0.929 . S
H1001 C984 0.929 . S
H1002 C985 0.929 . S
H1003 C986 0.931 . S
H1004 C994 0.929 . S
H1005 C995 0.929 . S
H1006 C996 0.931 . S
H1007 C997 0.929 . S
Tb1008 N1037 2.617 . S
Tb1008 N1043 2.572 . S
Tb1008 O1052 2.465 . S
Tb1008 O1053 2.387 . S
Tb1008 O1055 2.428 . S
Tb1008 O1056 2.308 . S
Tb1008 O1060 2.349 . S
Tb1008 O1063 2.393 . S
Tb1008 C1072 2.802 . S
C1009 N1010 1.379 . S
C1009 C1012 1.416 . S
C1009 C1016 1.424 . S
N1010 C1009 1.379 . S
N1010 C1013 1.334 . S
N1010 Tb1019 2.617 . S
C1011 C1013 1.390 . S
C1011 C1014 1.339 . S
C1011 H1031 0.930 . S
C1012 C1009 1.416 . S
C1012 C1014 1.416 . S
C1012 C1018 1.448 . S
C1013 N1010 1.334 . S
C1013 C1011 1.390 . S
C1013 H1024 0.930 . S
C1014 C1011 1.339 . S
C1014 C1012 1.416 . S
C1014 H1035 0.930 . S
C1015 C1016 1.413 . S
C1015 C1017 1.427 . S
C1015 C1021 1.416 . S
C1016 C1009 1.424 . S
C1016 C1015 1.413 . S
C1016 N1020 1.361 . S
C1017 C1015 1.427 . S
C1017 C1018 1.328 . S
C1017 H1032 0.929 . S
C1018 C1012 1.448 . S
C1018 C1017 1.328 . S
C1018 H1033 0.930 . S
Tb1019 N1010 2.617 . S
Tb1019 N1020 2.572 . S
Tb1019 O1054 2.349 . S
Tb1019 O1057 2.393 . S
Tb1019 O1058 2.465 . S
Tb1019 O1059 2.387 . S
Tb1019 O1061 2.428 . S
Tb1019 O1062 2.308 . S
Tb1019 C1083 2.802 . S
N1020 C1016 1.361 . S
N1020 Tb1019 2.572 . S
N1020 C1022 1.340 . S
C1021 C1015 1.416 . S
C1021 C1023 1.332 . S
C1021 H1029 0.931 . S
C1022 N1020 1.340 . S
C1022 C1023 1.407 . S
C1022 H1028 0.930 . S
C1023 C1021 1.332 . S
C1023 C1022 1.407 . S
C1023 H1025 0.929 . S
H1024 C1013 0.930 . S
H1025 C1023 0.929 . S
H1026 C1041 0.930 . S
H1027 C1048 0.929 . S
H1028 C1022 0.930 . S
H1029 C1021 0.931 . S
H1030 C1044 0.930 . S
H1031 C1011 0.930 . S
H1032 C1017 0.929 . S
H1033 C1018 0.930 . S
H1034 C1039 0.930 . S
H1035 C1014 0.930 . S
H1036 C1047 0.931 . S
N1037 Tb1008 2.617 . S
N1037 C1038 1.379 1_554 S
N1037 C1041 1.334 . S
C1038 N1037 1.379 1_556 S
C1038 C1040 1.416 . S
C1038 C1046 1.424 . S
C1039 H1034 0.930 . S
C1039 C1041 1.390 1_556 S
C1039 C1042 1.339 . S
C1040 C1038 1.416 . S
C1040 C1042 1.416 . S
C1040 C1073 1.448 . S
C1041 H1026 0.930 . S
C1041 N1037 1.334 . S
C1041 C1039 1.390 1_554 S
C1042 C1039 1.339 . S
C1042 C1040 1.416 . S
C1042 H1049 0.930 . S
N1043 Tb1008 2.572 . S
N1043 C1044 1.340 . S
N1043 C1046 1.361 1_554 S
C1044 H1030 0.930 . S
C1044 N1043 1.340 . S
C1044 C1048 1.407 1_554 S
C1045 C1046 1.413 . S
C1045 C1047 1.416 . S
C1045 C1074 1.427 . S
C1046 C1038 1.424 . S
C1046 N1043 1.361 1_556 S
C1046 C1045 1.413 . S
C1047 H1036 0.931 . S
C1047 C1045 1.416 . S
C1047 C1048 1.332 . S
C1048 H1027 0.929 . S
C1048 C1044 1.407 1_556 S
C1048 C1047 1.332 . S
H1049 C1042 0.930 . S
H1050 C1073 0.930 . S
H1051 C1074 0.929 . S
O1052 Tb1008 2.465 . S
O1052 C1072 1.264 . S
O1053 Tb1008 2.387 . S
O1053 C1064 1.273 . S
O1054 Tb1019 2.349 . S
O1054 C1064 1.262 . S
O1055 Tb1008 2.428 . S
O1055 C1072 1.256 . S
O1056 Tb1008 2.308 . S
O1056 C1071 1.266 . S
O1057 Tb1019 2.393 . S
O1057 C1071 1.248 . S
O1058 Tb1019 2.465 . S
O1058 C1083 1.264 . S
O1059 Tb1019 2.387 . S
O1059 C1075 1.264 . S
O1060 Tb1008 2.349 . S
O1060 C1075 1.243 . S
O1061 Tb1019 2.428 . S
O1061 C1083 1.256 . S
O1062 Tb1019 2.308 . S
O1062 C1082 1.266 . S
O1063 Tb1008 2.393 . S
O1063 C1082 1.248 . S
C1064 O1053 1.273 . S
C1064 O1054 1.262 . S
C1065 C1068 1.399 . S
C1065 C1070 1.383 . S
C1065 C1072 1.496 . S
C1066 C1067 1.399 . S
C1066 C1070 1.389 . S
C1067 C1066 1.399 . S
C1067 C1069 1.380 . S
C1067 H1084 0.929 . S
C1068 C1065 1.399 . S
C1068 C1069 1.392 . S
C1068 H1085 0.929 . S
C1069 C1067 1.380 . S
C1069 C1068 1.392 . S
C1069 H1086 0.929 . S
C1070 C1065 1.383 . S
C1070 C1066 1.389 . S
C1070 H1087 0.931 . S
C1071 O1056 1.266 . S
C1071 O1057 1.248 . S
C1072 Tb1008 2.802 . S
C1072 O1052 1.264 . S
C1072 O1055 1.256 . S
C1072 C1065 1.496 . S
C1073 C1040 1.448 . S
C1073 H1050 0.930 . S
C1073 C1074 1.328 . S
C1074 C1045 1.427 . S
C1074 H1051 0.929 . S
C1074 C1073 1.328 . S
C1075 O1059 1.264 . S
C1075 O1060 1.243 . S
C1076 C1079 1.399 . S
C1076 C1080 1.383 . S
C1076 C1083 1.496 . S
C1077 C1078 1.399 . S
C1077 C1080 1.389 1_556 S
C1078 C1077 1.399 . S
C1078 C1081 1.380 1_556 S
C1078 H1088 0.929 . S
C1079 C1076 1.399 . S
C1079 C1081 1.392 . S
C1079 H1089 0.929 . S
C1080 C1076 1.383 . S
C1080 C1077 1.389 1_554 S
C1080 H1090 0.931 . S
C1081 C1078 1.380 1_554 S
C1081 C1079 1.392 . S
C1081 H1091 0.929 . S
C1082 O1062 1.266 . S
C1082 O1063 1.248 . S
C1083 Tb1019 2.802 . S
C1083 O1058 1.264 . S
C1083 O1061 1.256 . S
C1083 C1076 1.496 . S
H1084 C1067 0.929 . S
H1085 C1068 0.929 . S
H1086 C1069 0.929 . S
H1087 C1070 0.931 . S
H1088 C1078 0.929 . S
H1089 C1079 0.929 . S
H1090 C1080 0.931 . S
H1091 C1081 0.929 . S
Tb1092 N1121 2.617 . S
Tb1092 N1127 2.572 . S
Tb1092 O1136 2.465 . S
Tb1092 O1137 2.387 . S
Tb1092 O1139 2.428 . S
Tb1092 O1140 2.308 . S
Tb1092 O1144 2.349 . S
Tb1092 O1147 2.393 . S
Tb1092 C1156 2.802 . S
C1093 N1094 1.379 . S
C1093 C1096 1.416 . S
C1093 C1100 1.424 . S
N1094 C1093 1.379 . S
N1094 C1097 1.334 . S
N1094 Tb1103 2.617 . S
C1095 C1097 1.390 . S
C1095 C1098 1.339 . S
C1095 H1115 0.930 . S
C1096 C1093 1.416 . S
C1096 C1098 1.416 . S
C1096 C1102 1.448 . S
C1097 N1094 1.334 . S
C1097 C1095 1.390 . S
C1097 H1108 0.930 . S
C1098 C1095 1.339 . S
C1098 C1096 1.416 . S
C1098 H1119 0.930 . S
C1099 C1100 1.413 . S
C1099 C1101 1.427 . S
C1099 C1105 1.416 . S
C1100 C1093 1.424 . S
C1100 C1099 1.413 . S
C1100 N1104 1.361 . S
C1101 C1099 1.427 . S
C1101 C1102 1.328 . S
C1101 H1116 0.929 . S
C1102 C1096 1.448 . S
C1102 C1101 1.328 . S
C1102 H1117 0.930 . S
Tb1103 N1094 2.617 . S
Tb1103 N1104 2.572 . S
Tb1103 O1138 2.349 . S
Tb1103 O1141 2.393 . S
Tb1103 O1142 2.465 . S
Tb1103 O1143 2.387 . S
Tb1103 O1145 2.428 . S
Tb1103 O1146 2.308 . S
Tb1103 C1167 2.802 . S
N1104 C1100 1.361 . S
N1104 Tb1103 2.572 . S
N1104 C1106 1.340 . S
C1105 C1099 1.416 . S
C1105 C1107 1.332 . S
C1105 H1113 0.931 . S
C1106 N1104 1.340 . S
C1106 C1107 1.407 . S
C1106 H1112 0.930 . S
C1107 C1105 1.332 . S
C1107 C1106 1.407 . S
C1107 H1109 0.929 . S
H1108 C1097 0.930 . S
H1109 C1107 0.929 . S
H1110 C1125 0.930 . S
H1111 C1132 0.929 . S
H1112 C1106 0.930 . S
H1113 C1105 0.931 . S
H1114 C1128 0.930 . S
H1115 C1095 0.930 . S
H1116 C1101 0.929 . S
H1117 C1102 0.930 . S
H1118 C1123 0.930 . S
H1119 C1098 0.930 . S
H1120 C1131 0.931 . S
N1121 Tb1092 2.617 . S
N1121 C1122 1.379 . S
N1121 C1125 1.334 . S
C1122 N1121 1.379 . S
C1122 C1124 1.416 . S
C1122 C1130 1.424 . S
C1123 H1118 0.930 . S
C1123 C1125 1.390 . S
C1123 C1126 1.339 . S
C1124 C1122 1.416 . S
C1124 C1126 1.416 . S
C1124 C1157 1.448 . S
C1125 H1110 0.930 . S
C1125 N1121 1.334 . S
C1125 C1123 1.390 . S
C1126 C1123 1.339 . S
C1126 C1124 1.416 . S
C1126 H1133 0.930 . S
N1127 Tb1092 2.572 . S
N1127 C1128 1.340 . S
N1127 C1130 1.361 . S
C1128 H1114 0.930 . S
C1128 N1127 1.340 . S
C1128 C1132 1.407 . S
C1129 C1130 1.413 . S
C1129 C1131 1.416 . S
C1129 C1158 1.427 . S
C1130 C1122 1.424 . S
C1130 N1127 1.361 . S
C1130 C1129 1.413 . S
C1131 H1120 0.931 . S
C1131 C1129 1.416 . S
C1131 C1132 1.332 . S
C1132 H1111 0.929 . S
C1132 C1128 1.407 . S
C1132 C1131 1.332 . S
H1133 C1126 0.930 . S
H1134 C1157 0.930 . S
H1135 C1158 0.929 . S
O1136 Tb1092 2.465 . S
O1136 C1156 1.264 . S
O1137 Tb1092 2.387 . S
O1137 C1148 1.264 . S
O1138 Tb1103 2.349 . S
O1138 C1148 1.243 . S
O1139 Tb1092 2.428 . S
O1139 C1156 1.256 . S
O1140 Tb1092 2.308 . S
O1140 C1155 1.266 . S
O1141 Tb1103 2.393 . S
O1141 C1155 1.248 . S
O1142 Tb1103 2.465 . S
O1142 C1167 1.264 . S
O1143 Tb1103 2.387 . S
O1143 C1159 1.264 . S
O1144 Tb1092 2.349 . S
O1144 C1159 1.243 . S
O1145 Tb1103 2.428 . S
O1145 C1167 1.256 . S
O1146 Tb1103 2.308 . S
O1146 C1166 1.266 . S
O1147 Tb1092 2.393 . S
O1147 C1166 1.248 . S
C1148 O1137 1.264 . S
C1148 O1138 1.243 . S
C1149 C1152 1.399 . S
C1149 C1154 1.383 . S
C1149 C1156 1.496 . S
C1150 C1151 1.399 . S
C1150 C1154 1.389 . S
C1151 C1150 1.399 . S
C1151 C1153 1.380 . S
C1151 H1168 0.929 . S
C1152 C1149 1.399 . S
C1152 C1153 1.392 . S
C1152 H1169 0.929 . S
C1153 C1151 1.380 . S
C1153 C1152 1.392 . S
C1153 H1170 0.929 . S
C1154 C1149 1.383 . S
C1154 C1150 1.389 . S
C1154 H1171 0.931 . S
C1155 O1140 1.266 . S
C1155 O1141 1.248 . S
C1156 Tb1092 2.802 . S
C1156 O1136 1.264 . S
C1156 O1139 1.256 . S
C1156 C1149 1.496 . S
C1157 C1124 1.448 . S
C1157 H1134 0.930 . S
C1157 C1158 1.328 . S
C1158 C1129 1.427 . S
C1158 H1135 0.929 . S
C1158 C1157 1.328 . S
C1159 O1143 1.264 . S
C1159 O1144 1.243 . S
C1160 C1163 1.399 . S
C1160 C1164 1.383 . S
C1160 C1167 1.496 . S
C1161 C1162 1.399 . S
C1161 C1164 1.389 . S
C1162 C1161 1.399 . S
C1162 C1165 1.380 . S
C1162 H1172 0.929 . S
C1163 C1160 1.399 . S
C1163 C1165 1.392 . S
C1163 H1173 0.929 . S
C1164 C1160 1.383 . S
C1164 C1161 1.389 . S
C1164 H1174 0.931 . S
C1165 C1162 1.380 . S
C1165 C1163 1.392 . S
C1165 H1175 0.929 . S
C1166 O1146 1.266 . S
C1166 O1147 1.248 . S
C1167 Tb1103 2.802 . S
C1167 O1142 1.264 . S
C1167 O1145 1.256 . S
C1167 C1160 1.496 . S
H1168 C1151 0.929 . S
H1169 C1152 0.929 . S
H1170 C1153 0.929 . S
H1171 C1154 0.931 . S
H1172 C1162 0.929 . S
H1173 C1163 0.929 . S
H1174 C1164 0.931 . S
H1175 C1165 0.929 . S
Tb1176 N1205 2.617 1_455 S
Tb1176 N1211 2.572 1_455 S
Tb1176 O1220 2.465 . S
Tb1176 O1221 2.387 1_455 S
Tb1176 O1223 2.428 . S
Tb1176 O1224 2.308 . S
Tb1176 O1228 2.349 . S
Tb1176 O1231 2.393 . S
Tb1176 C1240 2.802 . S
C1177 N1178 1.379 . S
C1177 C1180 1.416 . S
C1177 C1184 1.424 . S
N1178 C1177 1.379 . S
N1178 C1181 1.334 . S
N1178 Tb1187 2.617 . S
C1179 C1181 1.390 . S
C1179 C1182 1.339 . S
C1179 H1199 0.930 . S
C1180 C1177 1.416 . S
C1180 C1182 1.416 . S
C1180 C1186 1.448 . S
C1181 N1178 1.334 . S
C1181 C1179 1.390 . S
C1181 H1192 0.930 . S
C1182 C1179 1.339 . S
C1182 C1180 1.416 . S
C1182 H1203 0.930 . S
C1183 C1184 1.413 . S
C1183 C1185 1.427 . S
C1183 C1189 1.416 . S
C1184 C1177 1.424 . S
C1184 C1183 1.413 . S
C1184 N1188 1.361 . S
C1185 C1183 1.427 . S
C1185 C1186 1.328 . S
C1185 H1200 0.929 . S
C1186 C1180 1.448 . S
C1186 C1185 1.328 . S
C1186 H1201 0.930 . S
Tb1187 N1178 2.617 . S
Tb1187 N1188 2.572 . S
Tb1187 O1222 2.349 1_455 S
Tb1187 O1225 2.393 . S
Tb1187 O1226 2.465 . S
Tb1187 O1227 2.387 . S
Tb1187 O1229 2.428 . S
Tb1187 O1230 2.308 . S
Tb1187 C1251 2.802 . S
N1188 C1184 1.361 . S
N1188 Tb1187 2.572 . S
N1188 C1190 1.340 . S
C1189 C1183 1.416 . S
C1189 C1191 1.332 . S
C1189 H1197 0.931 . S
C1190 N1188 1.340 . S
C1190 C1191 1.407 . S
C1190 H1196 0.930 . S
C1191 C1189 1.332 . S
C1191 C1190 1.407 . S
C1191 H1193 0.929 . S
H1192 C1181 0.930 . S
H1193 C1191 0.929 . S
H1194 C1209 0.930 1_455 S
H1195 C1216 0.929 . S
H1196 C1190 0.930 . S
H1197 C1189 0.931 . S
H1198 C1212 0.930 . S
H1199 C1179 0.930 . S
H1200 C1185 0.929 . S
H1201 C1186 0.930 . S
H1202 C1207 0.930 . S
H1203 C1182 0.930 . S
H1204 C1215 0.931 . S
N1205 Tb1176 2.617 1_655 S
N1205 C1206 1.379 . S
N1205 C1209 1.334 . S
C1206 N1205 1.379 . S
C1206 C1208 1.416 . S
C1206 C1214 1.424 . S
C1207 H1202 0.930 . S
C1207 C1209 1.390 . S
C1207 C1210 1.339 . S
C1208 C1206 1.416 . S
C1208 C1210 1.416 . S
C1208 C1241 1.448 . S
C1209 H1194 0.930 1_655 S
C1209 N1205 1.334 . S
C1209 C1207 1.390 . S
C1210 C1207 1.339 . S
C1210 C1208 1.416 . S
C1210 H1217 0.930 . S
N1211 Tb1176 2.572 1_655 S
N1211 C1212 1.340 . S
N1211 C1214 1.361 . S
C1212 H1198 0.930 . S
C1212 N1211 1.340 . S
C1212 C1216 1.407 . S
C1213 C1214 1.413 . S
C1213 C1215 1.416 . S
C1213 C1242 1.427 . S
C1214 C1206 1.424 . S
C1214 N1211 1.361 . S
C1214 C1213 1.413 . S
C1215 H1204 0.931 . S
C1215 C1213 1.416 . S
C1215 C1216 1.332 . S
C1216 H1195 0.929 . S
C1216 C1212 1.407 . S
C1216 C1215 1.332 . S
H1217 C1210 0.930 . S
H1218 C1241 0.930 . S
H1219 C1242 0.929 . S
O1220 Tb1176 2.465 . S
O1220 C1240 1.264 . S
O1221 Tb1176 2.387 1_655 S
O1221 C1232 1.264 . S
O1222 Tb1187 2.349 1_655 S
O1222 C1232 1.243 . S
O1223 Tb1176 2.428 . S
O1223 C1240 1.256 . S
O1224 Tb1176 2.308 . S
O1224 C1239 1.266 . S
O1225 Tb1187 2.393 . S
O1225 C1239 1.248 . S
O1226 Tb1187 2.465 . S
O1226 C1251 1.264 . S
O1227 Tb1187 2.387 . S
O1227 C1243 1.264 . S
O1228 Tb1176 2.349 . S
O1228 C1243 1.243 . S
O1229 Tb1187 2.428 . S
O1229 C1251 1.256 . S
O1230 Tb1187 2.308 . S
O1230 C1250 1.266 . S
O1231 Tb1176 2.393 . S
O1231 C1250 1.248 . S
C1232 O1221 1.264 . S
C1232 O1222 1.243 . S
C1233 C1236 1.399 . S
C1233 C1238 1.383 . S
C1233 C1240 1.496 . S
C1234 C1235 1.399 . S
C1234 C1238 1.389 . S
C1235 C1234 1.399 . S
C1235 C1237 1.380 . S
C1235 H1252 0.929 . S
C1236 C1233 1.399 . S
C1236 C1237 1.392 . S
C1236 H1253 0.929 . S
C1237 C1235 1.380 . S
C1237 C1236 1.392 . S
C1237 H1254 0.929 . S
C1238 C1233 1.383 . S
C1238 C1234 1.389 . S
C1238 H1255 0.931 . S
C1239 O1224 1.266 . S
C1239 O1225 1.248 . S
C1240 Tb1176 2.802 . S
C1240 O1220 1.264 . S
C1240 O1223 1.256 . S
C1240 C1233 1.496 . S
C1241 C1208 1.448 . S
C1241 H1218 0.930 . S
C1241 C1242 1.328 . S
C1242 C1213 1.427 . S
C1242 H1219 0.929 . S
C1242 C1241 1.328 . S
C1243 O1227 1.264 . S
C1243 O1228 1.243 . S
C1244 C1247 1.399 . S
C1244 C1248 1.383 . S
C1244 C1251 1.496 1_655 S
C1245 C1246 1.399 . S
C1245 C1248 1.389 . S
C1246 C1245 1.399 . S
C1246 C1249 1.380 . S
C1246 H1256 0.929 . S
C1247 C1244 1.399 . S
C1247 C1249 1.392 . S
C1247 H1257 0.929 . S
C1248 C1244 1.383 . S
C1248 C1245 1.389 . S
C1248 H1258 0.931 . S
C1249 C1246 1.380 . S
C1249 C1247 1.392 . S
C1249 H1259 0.929 . S
C1250 O1230 1.266 . S
C1250 O1231 1.248 . S
C1251 Tb1187 2.802 . S
C1251 O1226 1.264 . S
C1251 O1229 1.256 . S
C1251 C1244 1.496 1_455 S
H1252 C1235 0.929 . S
H1253 C1236 0.929 . S
H1254 C1237 0.929 . S
H1255 C1238 0.931 . S
H1256 C1246 0.929 . S
H1257 C1247 0.929 . S
H1258 C1248 0.931 . S
H1259 C1249 0.929 . S
Tb1260 N1289 2.617 . S
Tb1260 N1295 2.572 . S
Tb1260 O1304 2.465 . S
Tb1260 O1305 2.387 . S
Tb1260 O1307 2.428 . S
Tb1260 O1308 2.308 . S
Tb1260 O1312 2.349 . S
Tb1260 O1315 2.393 . S
Tb1260 C1324 2.802 . S
C1261 N1262 1.379 . S
C1261 C1264 1.416 . S
C1261 C1268 1.424 . S
N1262 C1261 1.379 . S
N1262 C1265 1.334 . S
N1262 Tb1271 2.617 . S
C1263 C1265 1.390 . S
C1263 C1266 1.339 . S
C1263 H1283 0.930 . S
C1264 C1261 1.416 . S
C1264 C1266 1.416 . S
C1264 C1270 1.448 . S
C1265 N1262 1.334 . S
C1265 C1263 1.390 . S
C1265 H1276 0.930 . S
C1266 C1263 1.339 . S
C1266 C1264 1.416 . S
C1266 H1287 0.930 . S
C1267 C1268 1.413 . S
C1267 C1269 1.427 . S
C1267 C1273 1.416 . S
C1268 C1261 1.424 . S
C1268 C1267 1.413 . S
C1268 N1272 1.361 . S
C1269 C1267 1.427 . S
C1269 C1270 1.328 . S
C1269 H1284 0.929 . S
C1270 C1264 1.448 . S
C1270 C1269 1.328 . S
C1270 H1285 0.930 . S
Tb1271 N1262 2.617 . S
Tb1271 N1272 2.572 . S
Tb1271 O1306 2.349 . S
Tb1271 O1309 2.393 . S
Tb1271 O1310 2.465 . S
Tb1271 O1311 2.387 . S
Tb1271 O1313 2.428 . S
Tb1271 O1314 2.308 . S
Tb1271 C1335 2.802 . S
N1272 C1268 1.361 . S
N1272 Tb1271 2.572 . S
N1272 C1274 1.340 . S
C1273 C1267 1.416 . S
C1273 C1275 1.332 . S
C1273 H1281 0.931 . S
C1274 N1272 1.340 . S
C1274 C1275 1.407 . S
C1274 H1280 0.930 . S
C1275 C1273 1.332 . S
C1275 C1274 1.407 . S
C1275 H1277 0.929 . S
H1276 C1265 0.930 . S
H1277 C1275 0.929 . S
H1278 C1293 0.930 . S
H1279 C1300 0.929 . S
H1280 C1274 0.930 . S
H1281 C1273 0.931 . S
H1282 C1296 0.930 . S
H1283 C1263 0.930 . S
H1284 C1269 0.929 . S
H1285 C1270 0.930 . S
H1286 C1291 0.930 . S
H1287 C1266 0.930 . S
H1288 C1299 0.931 . S
N1289 Tb1260 2.617 . S
N1289 C1290 1.379 . S
N1289 C1293 1.334 . S
C1290 N1289 1.379 . S
C1290 C1292 1.416 . S
C1290 C1298 1.424 . S
C1291 H1286 0.930 . S
C1291 C1293 1.390 . S
C1291 C1294 1.339 . S
C1292 C1290 1.416 . S
C1292 C1294 1.416 . S
C1292 C1325 1.448 . S
C1293 H1278 0.930 . S
C1293 N1289 1.334 . S
C1293 C1291 1.390 . S
C1294 C1291 1.339 . S
C1294 C1292 1.416 . S
C1294 H1301 0.930 . S
N1295 Tb1260 2.572 . S
N1295 C1296 1.340 . S
N1295 C1298 1.361 . S
C1296 H1282 0.930 . S
C1296 N1295 1.340 . S
C1296 C1300 1.407 . S
C1297 C1298 1.413 . S
C1297 C1299 1.416 . S
C1297 C1326 1.427 . S
C1298 C1290 1.424 . S
C1298 N1295 1.361 . S
C1298 C1297 1.413 . S
C1299 H1288 0.931 . S
C1299 C1297 1.416 . S
C1299 C1300 1.332 . S
C1300 H1279 0.929 . S
C1300 C1296 1.407 . S
C1300 C1299 1.332 . S
H1301 C1294 0.930 . S
H1302 C1325 0.930 . S
H1303 C1326 0.929 . S
O1304 Tb1260 2.465 . S
O1304 C1324 1.264 . S
O1305 Tb1260 2.387 . S
O1305 C1316 1.264 . S
O1306 Tb1271 2.349 . S
O1306 C1316 1.243 . S
O1307 Tb1260 2.428 . S
O1307 C1324 1.256 . S
O1308 Tb1260 2.308 . S
O1308 C1323 1.266 . S
O1309 Tb1271 2.393 . S
O1309 C1323 1.248 . S
O1310 Tb1271 2.465 . S
O1310 C1335 1.264 . S
O1311 Tb1271 2.387 . S
O1311 C1327 1.264 . S
O1312 Tb1260 2.349 . S
O1312 C1327 1.243 . S
O1313 Tb1271 2.428 . S
O1313 C1335 1.256 . S
O1314 Tb1271 2.308 . S
O1314 C1334 1.266 . S
O1315 Tb1260 2.393 . S
O1315 C1334 1.248 . S
C1316 O1305 1.264 . S
C1316 O1306 1.243 . S
C1317 C1320 1.399 . S
C1317 C1322 1.383 . S
C1317 C1324 1.496 . S
C1318 C1319 1.399 . S
C1318 C1322 1.389 . S
C1319 C1318 1.399 . S
C1319 C1321 1.380 . S
C1319 H1336 0.929 . S
C1320 C1317 1.399 . S
C1320 C1321 1.392 . S
C1320 H1337 0.929 . S
C1321 C1319 1.380 . S
C1321 C1320 1.392 . S
C1321 H1338 0.929 . S
C1322 C1317 1.383 . S
C1322 C1318 1.389 . S
C1322 H1339 0.931 . S
C1323 O1308 1.266 . S
C1323 O1309 1.248 . S
C1324 Tb1260 2.802 . S
C1324 O1304 1.264 . S
C1324 O1307 1.256 . S
C1324 C1317 1.496 . S
C1325 C1292 1.448 . S
C1325 H1302 0.930 . S
C1325 C1326 1.328 . S
C1326 C1297 1.427 . S
C1326 H1303 0.929 . S
C1326 C1325 1.328 . S
C1327 O1311 1.264 . S
C1327 O1312 1.243 . S
C1328 C1331 1.399 . S
C1328 C1332 1.383 . S
C1328 C1335 1.496 . S
C1329 C1330 1.399 . S
C1329 C1332 1.389 . S
C1330 C1329 1.399 . S
C1330 C1333 1.380 . S
C1330 H1340 0.929 . S
C1331 C1328 1.399 . S
C1331 C1333 1.392 . S
C1331 H1341 0.929 . S
C1332 C1328 1.383 . S
C1332 C1329 1.389 . S
C1332 H1342 0.931 . S
C1333 C1330 1.380 . S
C1333 C1331 1.392 . S
C1333 H1343 0.929 . S
C1334 O1314 1.266 . S
C1334 O1315 1.248 . S
C1335 Tb1271 2.802 . S
C1335 O1310 1.264 . S
C1335 O1313 1.256 . S
C1335 C1328 1.496 . S
H1336 C1319 0.929 . S
H1337 C1320 0.929 . S
H1338 C1321 0.929 . S
H1339 C1322 0.931 . S
H1340 C1330 0.929 . S
H1341 C1331 0.929 . S
H1342 C1332 0.931 . S
H1343 C1333 0.929 . S
Tb1344 N1373 2.617 . S
Tb1344 N1379 2.572 . S
Tb1344 O1388 2.465 . S
Tb1344 O1389 2.387 . S
Tb1344 O1391 2.428 . S
Tb1344 O1392 2.308 . S
Tb1344 O1396 2.349 . S
Tb1344 O1399 2.393 . S
Tb1344 C1408 2.802 . S
C1345 N1346 1.379 . S
C1345 C1348 1.416 . S
C1345 C1352 1.424 . S
N1346 C1345 1.379 . S
N1346 C1349 1.334 . S
N1346 Tb1355 2.617 . S
C1347 C1349 1.390 . S
C1347 C1350 1.339 . S
C1347 H1367 0.930 . S
C1348 C1345 1.416 . S
C1348 C1350 1.416 . S
C1348 C1354 1.448 . S
C1349 N1346 1.334 . S
C1349 C1347 1.390 . S
C1349 H1360 0.930 . S
C1350 C1347 1.339 . S
C1350 C1348 1.416 . S
C1350 H1371 0.930 . S
C1351 C1352 1.413 . S
C1351 C1353 1.427 . S
C1351 C1357 1.416 . S
C1352 C1345 1.424 . S
C1352 C1351 1.413 . S
C1352 N1356 1.361 . S
C1353 C1351 1.427 . S
C1353 C1354 1.328 . S
C1353 H1368 0.929 . S
C1354 C1348 1.448 . S
C1354 C1353 1.328 . S
C1354 H1369 0.930 . S
Tb1355 N1346 2.617 . S
Tb1355 N1356 2.572 . S
Tb1355 O1390 2.349 . S
Tb1355 O1393 2.393 . S
Tb1355 O1394 2.465 . S
Tb1355 O1395 2.387 . S
Tb1355 O1397 2.428 . S
Tb1355 O1398 2.308 . S
Tb1355 C1419 2.802 . S
N1356 C1352 1.361 . S
N1356 Tb1355 2.572 . S
N1356 C1358 1.340 . S
C1357 C1351 1.416 . S
C1357 C1359 1.332 . S
C1357 H1365 0.931 . S
C1358 N1356 1.340 . S
C1358 C1359 1.407 . S
C1358 H1364 0.930 . S
C1359 C1357 1.332 . S
C1359 C1358 1.407 . S
C1359 H1361 0.929 . S
H1360 C1349 0.930 . S
H1361 C1359 0.929 . S
H1362 C1377 0.930 . S
H1363 C1384 0.929 . S
H1364 C1358 0.930 . S
H1365 C1357 0.931 . S
H1366 C1380 0.930 . S
H1367 C1347 0.930 . S
H1368 C1353 0.929 . S
H1369 C1354 0.930 . S
H1370 C1375 0.930 . S
H1371 C1350 0.930 . S
H1372 C1383 0.931 . S
N1373 Tb1344 2.617 . S
N1373 C1374 1.379 . S
N1373 C1377 1.334 . S
C1374 N1373 1.379 . S
C1374 C1376 1.416 . S
C1374 C1382 1.424 . S
C1375 H1370 0.930 . S
C1375 C1377 1.390 . S
C1375 C1378 1.339 . S
C1376 C1374 1.416 . S
C1376 C1378 1.416 . S
C1376 C1409 1.448 . S
C1377 H1362 0.930 . S
C1377 N1373 1.334 . S
C1377 C1375 1.390 . S
C1378 C1375 1.339 . S
C1378 C1376 1.416 . S
C1378 H1385 0.930 . S
N1379 Tb1344 2.572 . S
N1379 C1380 1.340 . S
N1379 C1382 1.361 . S
C1380 H1366 0.930 . S
C1380 N1379 1.340 . S
C1380 C1384 1.407 . S
C1381 C1382 1.413 . S
C1381 C1383 1.416 . S
C1381 C1410 1.427 . S
C1382 C1374 1.424 . S
C1382 N1379 1.361 . S
C1382 C1381 1.413 . S
C1383 H1372 0.931 . S
C1383 C1381 1.416 . S
C1383 C1384 1.332 . S
C1384 H1363 0.929 . S
C1384 C1380 1.407 . S
C1384 C1383 1.332 . S
H1385 C1378 0.930 . S
H1386 C1409 0.930 . S
H1387 C1410 0.929 . S
O1388 Tb1344 2.465 . S
O1388 C1408 1.264 . S
O1389 Tb1344 2.387 . S
O1389 C1400 1.264 . S
O1390 Tb1355 2.349 . S
O1390 C1400 1.243 . S
O1391 Tb1344 2.428 . S
O1391 C1408 1.256 . S
O1392 Tb1344 2.308 . S
O1392 C1407 1.266 . S
O1393 Tb1355 2.393 . S
O1393 C1407 1.248 . S
O1394 Tb1355 2.465 . S
O1394 C1419 1.264 . S
O1395 Tb1355 2.387 . S
O1395 C1411 1.264 . S
O1396 Tb1344 2.349 . S
O1396 C1411 1.243 . S
O1397 Tb1355 2.428 . S
O1397 C1419 1.256 . S
O1398 Tb1355 2.308 . S
O1398 C1418 1.266 . S
O1399 Tb1344 2.393 . S
O1399 C1418 1.248 . S
C1400 O1389 1.264 . S
C1400 O1390 1.243 . S
C1401 C1404 1.399 . S
C1401 C1406 1.383 . S
C1401 C1408 1.496 . S
C1402 C1403 1.399 . S
C1402 C1406 1.389 . S
C1403 C1402 1.399 . S
C1403 C1405 1.380 . S
C1403 H1420 0.929 . S
C1404 C1401 1.399 . S
C1404 C1405 1.392 . S
C1404 H1421 0.929 . S
C1405 C1403 1.380 . S
C1405 C1404 1.392 . S
C1405 H1422 0.929 . S
C1406 C1401 1.383 . S
C1406 C1402 1.389 . S
C1406 H1423 0.931 . S
C1407 O1392 1.266 . S
C1407 O1393 1.248 . S
C1408 Tb1344 2.802 . S
C1408 O1388 1.264 . S
C1408 O1391 1.256 . S
C1408 C1401 1.496 . S
C1409 C1376 1.448 . S
C1409 H1386 0.930 . S
C1409 C1410 1.328 . S
C1410 C1381 1.427 . S
C1410 H1387 0.929 . S
C1410 C1409 1.328 . S
C1411 O1395 1.264 . S
C1411 O1396 1.243 . S
C1412 C1415 1.399 . S
C1412 C1416 1.383 . S
C1412 C1419 1.496 . S
C1413 C1414 1.399 . S
C1413 C1416 1.389 . S
C1414 C1413 1.399 . S
C1414 C1417 1.380 . S
C1414 H1424 0.929 . S
C1415 C1412 1.399 . S
C1415 C1417 1.392 . S
C1415 H1425 0.929 . S
C1416 C1412 1.383 . S
C1416 C1413 1.389 . S
C1416 H1426 0.931 . S
C1417 C1414 1.380 . S
C1417 C1415 1.392 . S
C1417 H1427 0.929 . S
C1418 O1398 1.266 . S
C1418 O1399 1.248 . S
C1419 Tb1355 2.802 . S
C1419 O1394 1.264 . S
C1419 O1397 1.256 . S
C1419 C1412 1.496 . S
H1420 C1403 0.929 . S
H1421 C1404 0.929 . S
H1422 C1405 0.929 . S
H1423 C1406 0.931 . S
H1424 C1414 0.929 . S
H1425 C1415 0.929 . S
H1426 C1416 0.931 . S
H1427 C1417 0.929 . S
Tb1428 N1457 2.617 . S
Tb1428 N1463 2.572 . S
Tb1428 O1472 2.465 . S
Tb1428 O1473 2.387 . S
Tb1428 O1475 2.428 . S
Tb1428 O1476 2.308 . S
Tb1428 O1480 2.349 . S
Tb1428 O1483 2.393 . S
Tb1428 C1492 2.802 . S
C1429 N1430 1.379 . S
C1429 C1432 1.416 . S
C1429 C1436 1.424 . S
N1430 C1429 1.379 . S
N1430 C1433 1.334 . S
N1430 Tb1439 2.617 . S
C1431 C1433 1.390 . S
C1431 C1434 1.339 . S
C1431 H1451 0.930 . S
C1432 C1429 1.416 . S
C1432 C1434 1.416 . S
C1432 C1438 1.448 . S
C1433 N1430 1.334 . S
C1433 C1431 1.390 . S
C1433 H1444 0.930 . S
C1434 C1431 1.339 . S
C1434 C1432 1.416 . S
C1434 H1455 0.930 . S
C1435 C1436 1.413 . S
C1435 C1437 1.427 . S
C1435 C1441 1.416 . S
C1436 C1429 1.424 . S
C1436 C1435 1.413 . S
C1436 N1440 1.361 . S
C1437 C1435 1.427 . S
C1437 C1438 1.328 . S
C1437 H1452 0.929 . S
C1438 C1432 1.448 . S
C1438 C1437 1.328 . S
C1438 H1453 0.930 . S
Tb1439 N1430 2.617 . S
Tb1439 N1440 2.572 . S
Tb1439 O1474 2.349 . S
Tb1439 O1477 2.393 . S
Tb1439 O1478 2.465 . S
Tb1439 O1479 2.387 . S
Tb1439 O1481 2.428 . S
Tb1439 O1482 2.308 . S
Tb1439 C1503 2.802 . S
N1440 C1436 1.361 . S
N1440 Tb1439 2.572 . S
N1440 C1442 1.340 . S
C1441 C1435 1.416 . S
C1441 C1443 1.332 . S
C1441 H1449 0.931 . S
C1442 N1440 1.340 . S
C1442 C1443 1.407 . S
C1442 H1448 0.930 . S
C1443 C1441 1.332 . S
C1443 C1442 1.407 . S
C1443 H1445 0.929 . S
H1444 C1433 0.930 . S
H1445 C1443 0.929 . S
H1446 C1461 0.930 . S
H1447 C1468 0.929 . S
H1448 C1442 0.930 . S
H1449 C1441 0.931 . S
H1450 C1464 0.930 . S
H1451 C1431 0.930 . S
H1452 C1437 0.929 . S
H1453 C1438 0.930 . S
H1454 C1459 0.930 . S
H1455 C1434 0.930 . S
H1456 C1467 0.931 . S
N1457 Tb1428 2.617 . S
N1457 C1458 1.379 . S
N1457 C1461 1.334 . S
C1458 N1457 1.379 . S
C1458 C1460 1.416 . S
C1458 C1466 1.424 . S
C1459 H1454 0.930 . S
C1459 C1461 1.390 . S
C1459 C1462 1.339 . S
C1460 C1458 1.416 . S
C1460 C1462 1.416 . S
C1460 C1493 1.448 . S
C1461 H1446 0.930 . S
C1461 N1457 1.334 . S
C1461 C1459 1.390 . S
C1462 C1459 1.339 . S
C1462 C1460 1.416 . S
C1462 H1469 0.930 . S
N1463 Tb1428 2.572 . S
N1463 C1464 1.340 . S
N1463 C1466 1.361 . S
C1464 H1450 0.930 . S
C1464 N1463 1.340 . S
C1464 C1468 1.407 . S
C1465 C1466 1.413 . S
C1465 C1467 1.416 . S
C1465 C1494 1.427 . S
C1466 C1458 1.424 . S
C1466 N1463 1.361 . S
C1466 C1465 1.413 . S
C1467 H1456 0.931 . S
C1467 C1465 1.416 . S
C1467 C1468 1.332 . S
C1468 H1447 0.929 . S
C1468 C1464 1.407 . S
C1468 C1467 1.332 . S
H1469 C1462 0.930 . S
H1470 C1493 0.930 . S
H1471 C1494 0.929 . S
O1472 Tb1428 2.465 . S
O1472 C1492 1.264 . S
O1473 Tb1428 2.387 . S
O1473 C1484 1.264 . S
O1474 Tb1439 2.349 . S
O1474 C1484 1.243 . S
O1475 Tb1428 2.428 . S
O1475 C1492 1.256 . S
O1476 Tb1428 2.308 . S
O1476 C1491 1.266 . S
O1477 Tb1439 2.393 . S
O1477 C1491 1.248 . S
O1478 Tb1439 2.465 . S
O1478 C1503 1.264 . S
O1479 Tb1439 2.387 . S
O1479 C1495 1.264 . S
O1480 Tb1428 2.349 . S
O1480 C1495 1.243 . S
O1481 Tb1439 2.428 . S
O1481 C1503 1.256 . S
O1482 Tb1439 2.308 . S
O1482 C1502 1.266 . S
O1483 Tb1428 2.393 . S
O1483 C1502 1.248 . S
C1484 O1473 1.264 . S
C1484 O1474 1.243 . S
C1485 C1488 1.399 . S
C1485 C1490 1.383 . S
C1485 C1492 1.496 . S
C1486 C1487 1.399 . S
C1486 C1490 1.389 . S
C1487 C1486 1.399 . S
C1487 C1489 1.380 . S
C1487 H1504 0.929 . S
C1488 C1485 1.399 . S
C1488 C1489 1.392 . S
C1488 H1505 0.929 . S
C1489 C1487 1.380 . S
C1489 C1488 1.392 . S
C1489 H1506 0.929 . S
C1490 C1485 1.383 . S
C1490 C1486 1.389 . S
C1490 H1507 0.931 . S
C1491 O1476 1.266 . S
C1491 O1477 1.248 . S
C1492 Tb1428 2.802 . S
C1492 O1472 1.264 . S
C1492 O1475 1.256 . S
C1492 C1485 1.496 . S
C1493 C1460 1.448 . S
C1493 H1470 0.930 . S
C1493 C1494 1.328 . S
C1494 C1465 1.427 . S
C1494 H1471 0.929 . S
C1494 C1493 1.328 . S
C1495 O1479 1.264 . S
C1495 O1480 1.243 . S
C1496 C1499 1.399 . S
C1496 C1500 1.383 . S
C1496 C1503 1.496 . S
C1497 C1498 1.399 . S
C1497 C1500 1.389 . S
C1498 C1497 1.399 . S
C1498 C1501 1.380 . S
C1498 H1508 0.929 . S
C1499 C1496 1.399 . S
C1499 C1501 1.392 . S
C1499 H1509 0.929 . S
C1500 C1496 1.383 . S
C1500 C1497 1.389 . S
C1500 H1510 0.931 . S
C1501 C1498 1.380 . S
C1501 C1499 1.392 . S
C1501 H1511 0.929 . S
C1502 O1482 1.266 . S
C1502 O1483 1.248 . S
C1503 Tb1439 2.802 . S
C1503 O1478 1.264 . S
C1503 O1481 1.256 . S
C1503 C1496 1.496 . S
H1504 C1487 0.929 . S
H1505 C1488 0.929 . S
H1506 C1489 0.929 . S
H1507 C1490 0.931 . S
H1508 C1498 0.929 . S
H1509 C1499 0.929 . S
H1510 C1500 0.931 . S
H1511 C1501 0.929 . S
Tb1512 N1541 2.617 . S
Tb1512 N1547 2.572 . S
Tb1512 O1556 2.465 . S
Tb1512 O1557 2.387 . S
Tb1512 O1559 2.428 . S
Tb1512 O1560 2.308 . S
Tb1512 O1564 2.349 . S
Tb1512 O1567 2.393 . S
Tb1512 C1576 2.802 . S
C1513 N1514 1.379 . S
C1513 C1516 1.416 . S
C1513 C1520 1.424 . S
N1514 C1513 1.379 . S
N1514 C1517 1.334 . S
N1514 Tb1523 2.617 . S
C1515 C1517 1.390 . S
C1515 C1518 1.339 . S
C1515 H1535 0.930 . S
C1516 C1513 1.416 . S
C1516 C1518 1.416 . S
C1516 C1522 1.448 . S
C1517 N1514 1.334 . S
C1517 C1515 1.390 . S
C1517 H1528 0.930 . S
C1518 C1515 1.339 . S
C1518 C1516 1.416 . S
C1518 H1539 0.930 . S
C1519 C1520 1.413 . S
C1519 C1521 1.427 . S
C1519 C1525 1.416 . S
C1520 C1513 1.424 . S
C1520 C1519 1.413 . S
C1520 N1524 1.361 . S
C1521 C1519 1.427 . S
C1521 C1522 1.328 . S
C1521 H1536 0.929 . S
C1522 C1516 1.448 . S
C1522 C1521 1.328 . S
C1522 H1537 0.930 . S
Tb1523 N1514 2.617 . S
Tb1523 N1524 2.572 . S
Tb1523 O1558 2.349 . S
Tb1523 O1561 2.393 . S
Tb1523 O1562 2.465 . S
Tb1523 O1563 2.387 . S
Tb1523 O1565 2.428 . S
Tb1523 O1566 2.308 . S
Tb1523 C1587 2.802 . S
N1524 C1520 1.361 . S
N1524 Tb1523 2.572 . S
N1524 C1526 1.340 . S
C1525 C1519 1.416 . S
C1525 C1527 1.332 . S
C1525 H1533 0.931 . S
C1526 N1524 1.340 . S
C1526 C1527 1.407 . S
C1526 H1532 0.930 . S
C1527 C1525 1.332 . S
C1527 C1526 1.407 . S
C1527 H1529 0.929 . S
H1528 C1517 0.930 . S
H1529 C1527 0.929 . S
H1530 C1545 0.930 . S
H1531 C1552 0.929 . S
H1532 C1526 0.930 . S
H1533 C1525 0.931 . S
H1534 C1548 0.930 . S
H1535 C1515 0.930 . S
H1536 C1521 0.929 . S
H1537 C1522 0.930 . S
H1538 C1543 0.930 . S
H1539 C1518 0.930 . S
H1540 C1551 0.931 . S
N1541 Tb1512 2.617 . S
N1541 C1542 1.379 . S
N1541 C1545 1.334 . S
C1542 N1541 1.379 . S
C1542 C1544 1.416 . S
C1542 C1550 1.424 . S
C1543 H1538 0.930 . S
C1543 C1545 1.390 . S
C1543 C1546 1.339 . S
C1544 C1542 1.416 . S
C1544 C1546 1.416 . S
C1544 C1577 1.448 . S
C1545 H1530 0.930 . S
C1545 N1541 1.334 . S
C1545 C1543 1.390 . S
C1546 C1543 1.339 . S
C1546 C1544 1.416 . S
C1546 H1553 0.930 . S
N1547 Tb1512 2.572 . S
N1547 C1548 1.340 . S
N1547 C1550 1.361 . S
C1548 H1534 0.930 . S
C1548 N1547 1.340 . S
C1548 C1552 1.407 . S
C1549 C1550 1.413 . S
C1549 C1551 1.416 . S
C1549 C1578 1.427 . S
C1550 C1542 1.424 . S
C1550 N1547 1.361 . S
C1550 C1549 1.413 . S
C1551 H1540 0.931 . S
C1551 C1549 1.416 . S
C1551 C1552 1.332 . S
C1552 H1531 0.929 . S
C1552 C1548 1.407 . S
C1552 C1551 1.332 . S
H1553 C1546 0.930 . S
H1554 C1577 0.930 . S
H1555 C1578 0.929 . S
O1556 Tb1512 2.465 . S
O1556 C1576 1.264 . S
O1557 Tb1512 2.387 . S
O1557 C1568 1.264 . S
O1558 Tb1523 2.349 . S
O1558 C1568 1.243 . S
O1559 Tb1512 2.428 . S
O1559 C1576 1.256 . S
O1560 Tb1512 2.308 . S
O1560 C1575 1.266 . S
O1561 Tb1523 2.393 . S
O1561 C1575 1.248 . S
O1562 Tb1523 2.465 . S
O1562 C1587 1.264 . S
O1563 Tb1523 2.387 . S
O1563 C1579 1.264 . S
O1564 Tb1512 2.349 . S
O1564 C1579 1.243 . S
O1565 Tb1523 2.428 . S
O1565 C1587 1.256 . S
O1566 Tb1523 2.308 . S
O1566 C1586 1.266 . S
O1567 Tb1512 2.393 . S
O1567 C1586 1.248 . S
C1568 O1557 1.264 . S
C1568 O1558 1.243 . S
C1569 C1572 1.399 . S
C1569 C1574 1.383 . S
C1569 C1576 1.496 . S
C1570 C1571 1.399 . S
C1570 C1574 1.389 . S
C1571 C1570 1.399 . S
C1571 C1573 1.380 . S
C1571 H1588 0.929 . S
C1572 C1569 1.399 . S
C1572 C1573 1.392 . S
C1572 H1589 0.929 . S
C1573 C1571 1.380 . S
C1573 C1572 1.392 . S
C1573 H1590 0.929 . S
C1574 C1569 1.383 . S
C1574 C1570 1.389 . S
C1574 H1591 0.931 . S
C1575 O1560 1.266 . S
C1575 O1561 1.248 . S
C1576 Tb1512 2.802 . S
C1576 O1556 1.264 . S
C1576 O1559 1.256 . S
C1576 C1569 1.496 . S
C1577 C1544 1.448 . S
C1577 H1554 0.930 . S
C1577 C1578 1.328 . S
C1578 C1549 1.427 . S
C1578 H1555 0.929 . S
C1578 C1577 1.328 . S
C1579 O1563 1.264 . S
C1579 O1564 1.243 . S
C1580 C1583 1.399 . S
C1580 C1584 1.383 . S
C1580 C1587 1.496 . S
C1581 C1582 1.399 . S
C1581 C1584 1.389 . S
C1582 C1581 1.399 . S
C1582 C1585 1.380 . S
C1582 H1592 0.929 . S
C1583 C1580 1.399 . S
C1583 C1585 1.392 . S
C1583 H1593 0.929 . S
C1584 C1580 1.383 . S
C1584 C1581 1.389 . S
C1584 H1594 0.931 . S
C1585 C1582 1.380 . S
C1585 C1583 1.392 . S
C1585 H1595 0.929 . S
C1586 O1566 1.266 . S
C1586 O1567 1.248 . S
C1587 Tb1523 2.802 . S
C1587 O1562 1.264 . S
C1587 O1565 1.256 . S
C1587 C1580 1.496 . S
H1588 C1571 0.929 . S
H1589 C1572 0.929 . S
H1590 C1573 0.929 . S
H1591 C1574 0.931 . S
H1592 C1582 0.929 . S
H1593 C1583 0.929 . S
H1594 C1584 0.931 . S
H1595 C1585 0.929 . S
Tb1596 N1625 2.617 . S
Tb1596 N1631 2.572 . S
Tb1596 O1640 2.465 . S
Tb1596 O1641 2.387 1_655 S
Tb1596 O1643 2.428 . S
Tb1596 O1644 2.308 1_655 S
Tb1596 O1648 2.349 1_655 S
Tb1596 O1651 2.393 1_655 S
Tb1596 C1660 2.802 . S
C1597 N1598 1.379 . S
C1597 C1600 1.416 . S
C1597 C1604 1.424 . S
N1598 C1597 1.379 . S
N1598 C1601 1.334 1_554 S
N1598 Tb1607 2.617 . S
C1599 C1601 1.390 . S
C1599 C1602 1.339 . S
C1599 H1619 0.930 . S
C1600 C1597 1.416 . S
C1600 C1602 1.416 1_554 S
C1600 C1606 1.448 . S
C1601 N1598 1.334 1_556 S
C1601 C1599 1.390 . S
C1601 H1612 0.930 . S
C1602 C1599 1.339 . S
C1602 C1600 1.416 1_556 S
C1602 H1623 0.930 . S
C1603 C1604 1.413 . S
C1603 C1605 1.427 . S
C1603 C1609 1.416 . S
C1604 C1597 1.424 . S
C1604 C1603 1.413 . S
C1604 N1608 1.361 . S
C1605 C1603 1.427 . S
C1605 C1606 1.328 . S
C1605 H1620 0.929 . S
C1606 C1600 1.448 . S
C1606 C1605 1.328 . S
C1606 H1621 0.930 . S
Tb1607 N1598 2.617 . S
Tb1607 N1608 2.572 . S
Tb1607 O1642 2.349 . S
Tb1607 O1645 2.393 . S
Tb1607 O1646 2.465 . S
Tb1607 O1647 2.387 . S
Tb1607 O1649 2.428 . S
Tb1607 O1650 2.308 . S
Tb1607 C1671 2.802 . S
N1608 C1604 1.361 . S
N1608 Tb1607 2.572 . S
N1608 C1610 1.340 . S
C1609 C1603 1.416 . S
C1609 C1611 1.332 . S
C1609 H1617 0.931 . S
C1610 N1608 1.340 . S
C1610 C1611 1.407 . S
C1610 H1616 0.930 . S
C1611 C1609 1.332 . S
C1611 C1610 1.407 . S
C1611 H1613 0.929 . S
H1612 C1601 0.930 . S
H1613 C1611 0.929 . S
H1614 C1629 0.930 1_455 S
H1615 C1636 0.929 . S
H1616 C1610 0.930 . S
H1617 C1609 0.931 . S
H1618 C1632 0.930 . S
H1619 C1599 0.930 . S
H1620 C1605 0.929 . S
H1621 C1606 0.930 . S
H1622 C1627 0.930 . S
H1623 C1602 0.930 . S
H1624 C1635 0.931 . S
N1625 Tb1596 2.617 . S
N1625 C1626 1.379 . S
N1625 C1629 1.334 . S
C1626 N1625 1.379 . S
C1626 C1628 1.416 . S
C1626 C1634 1.424 . S
C1627 H1622 0.930 . S
C1627 C1629 1.390 . S
C1627 C1630 1.339 . S
C1628 C1626 1.416 . S
C1628 C1630 1.416 . S
C1628 C1661 1.448 . S
C1629 H1614 0.930 1_655 S
C1629 N1625 1.334 . S
C1629 C1627 1.390 . S
C1630 C1627 1.339 . S
C1630 C1628 1.416 . S
C1630 H1637 0.930 . S
N1631 Tb1596 2.572 . S
N1631 C1632 1.340 . S
N1631 C1634 1.361 . S
C1632 H1618 0.930 . S
C1632 N1631 1.340 . S
C1632 C1636 1.407 . S
C1633 C1634 1.413 . S
C1633 C1635 1.416 . S
C1633 C1662 1.427 . S
C1634 C1626 1.424 . S
C1634 N1631 1.361 . S
C1634 C1633 1.413 . S
C1635 H1624 0.931 . S
C1635 C1633 1.416 . S
C1635 C1636 1.332 . S
C1636 H1615 0.929 . S
C1636 C1632 1.407 . S
C1636 C1635 1.332 . S
H1637 C1630 0.930 . S
H1638 C1661 0.930 . S
H1639 C1662 0.929 . S
O1640 Tb1596 2.465 . S
O1640 C1660 1.264 . S
O1641 Tb1596 2.387 1_455 S
O1641 C1652 1.264 . S
O1642 Tb1607 2.349 . S
O1642 C1652 1.243 . S
O1643 Tb1596 2.428 . S
O1643 C1660 1.256 . S
O1644 Tb1596 2.308 1_455 S
O1644 C1659 1.266 . S
O1645 Tb1607 2.393 . S
O1645 C1659 1.248 . S
O1646 Tb1607 2.465 . S
O1646 C1671 1.264 . S
O1647 Tb1607 2.387 . S
O1647 C1663 1.264 . S
O1648 Tb1596 2.349 1_455 S
O1648 C1663 1.243 . S
O1649 Tb1607 2.428 . S
O1649 C1671 1.256 . S
O1650 Tb1607 2.308 . S
O1650 C1670 1.266 . S
O1651 Tb1596 2.393 1_455 S
O1651 C1670 1.248 . S
C1652 O1641 1.264 . S
C1652 O1642 1.243 . S
C1653 C1656 1.399 . S
C1653 C1658 1.383 . S
C1653 C1660 1.496 . S
C1654 C1655 1.399 . S
C1654 C1658 1.389 . S
C1655 C1654 1.399 . S
C1655 C1657 1.380 . S
C1655 H1672 0.929 . S
C1656 C1653 1.399 . S
C1656 C1657 1.392 . S
C1656 H1673 0.929 . S
C1657 C1655 1.380 . S
C1657 C1656 1.392 . S
C1657 H1674 0.929 . S
C1658 C1653 1.383 . S
C1658 C1654 1.389 . S
C1658 H1675 0.931 . S
C1659 O1644 1.266 . S
C1659 O1645 1.248 . S
C1660 Tb1596 2.802 . S
C1660 O1640 1.264 . S
C1660 O1643 1.256 . S
C1660 C1653 1.496 . S
C1661 C1628 1.448 . S
C1661 H1638 0.930 . S
C1661 C1662 1.328 . S
C1662 C1633 1.427 . S
C1662 H1639 0.929 . S
C1662 C1661 1.328 . S
C1663 O1647 1.264 . S
C1663 O1648 1.243 . S
C1664 C1667 1.399 . S
C1664 C1668 1.383 . S
C1664 C1671 1.496 . S
C1665 C1666 1.399 . S
C1665 C1668 1.389 . S
C1666 C1665 1.399 . S
C1666 C1669 1.380 . S
C1666 H1676 0.929 . S
C1667 C1664 1.399 . S
C1667 C1669 1.392 . S
C1667 H1677 0.929 . S
C1668 C1664 1.383 . S
C1668 C1665 1.389 . S
C1668 H1678 0.931 . S
C1669 C1666 1.380 . S
C1669 C1667 1.392 . S
C1669 H1679 0.929 1_554 S
C1670 O1650 1.266 . S
C1670 O1651 1.248 . S
C1671 Tb1607 2.802 . S
C1671 O1646 1.264 . S
C1671 O1649 1.256 . S
C1671 C1664 1.496 . S
H1672 C1655 0.929 . S
H1673 C1656 0.929 . S
H1674 C1657 0.929 . S
H1675 C1658 0.931 . S
H1676 C1666 0.929 . S
H1677 C1667 0.929 . S
H1678 C1668 0.931 . S
H1679 C1669 0.929 1_556 S
H1680 C1688 0.929 . S
H1681 C1690 0.930 . S
H1682 C1692 0.930 . S
H1683 C1695 0.929 . S
H1684 C1698 0.930 . S
H1685 C1700 0.960 . S
H1686 C1700 0.960 . S
H1687 C1700 0.960 . S
C1688 H1680 0.929 . S
C1688 C1689 1.377 . S
C1688 C1690 1.384 . S
C1689 C1688 1.377 . S
C1689 C1695 1.390 1_655 S
C1690 H1681 0.930 . S
C1690 C1688 1.384 . S
C1690 C1691 1.306 1_655 S
C1691 C1690 1.306 1_455 S
C1691 C1692 1.447 . S
C1691 C1696 1.512 . S
C1692 H1682 0.930 . S
C1692 C1691 1.447 . S
C1692 C1695 1.386 . S
H1693 C1709 0.930 . S
H1694 C1710 0.931 . S
C1695 H1683 0.929 . S
C1695 C1689 1.390 1_455 S
C1695 C1692 1.386 . S
C1696 C1691 1.512 . S
C1696 C1698 1.395 1_455 S
C1696 C1699 1.372 1_556 S
H1697 C1703 0.930 . S
C1698 H1684 0.930 . S
C1698 C1696 1.395 1_655 S
C1698 C1701 1.403 . S
C1699 C1696 1.372 1_554 S
C1699 C1700 1.540 . S
C1699 C1703 1.416 . S
C1700 H1685 0.960 . S
C1700 H1686 0.960 . S
C1700 H1687 0.960 . S
C1700 C1699 1.540 . S
C1701 C1698 1.403 . S
C1701 C1702 1.392 1_655 S
C1701 C1705 1.495 . S
C1702 C1701 1.392 1_455 S
C1702 C1703 1.385 1_556 S
C1702 C1704 1.478 1_556 S
C1703 H1697 0.930 . S
C1703 C1699 1.416 . S
C1703 C1702 1.385 1_554 S
C1704 C1702 1.478 1_554 S
C1704 C1706 1.381 1_455 S
C1704 C1710 1.383 . S
C1705 C1701 1.495 . S
C1705 H1711 0.959 . S
C1705 H1712 0.961 . S
C1705 H1713 0.960 . S
C1706 C1704 1.381 1_655 S
C1706 C1707 1.394 1_655 S
C1706 H1714 0.930 . S
C1707 C1706 1.394 1_455 S
C1707 C1708 1.383 . S
C1707 H1715 0.929 1_455 S
C1708 C1707 1.383 . S
C1708 C1709 1.377 . S
C1709 H1693 0.930 . S
C1709 C1708 1.377 . S
C1709 C1710 1.379 . S
C1710 H1694 0.931 . S
C1710 C1704 1.383 . S
C1710 C1709 1.379 . S
H1711 C1705 0.959 . S
H1712 C1705 0.961 . S
H1713 C1705 0.960 . S
H1714 C1706 0.930 . S
H1715 C1707 0.929 1_655 S
H1716 C1724 0.929 . S
H1717 C1726 0.930 . S
H1718 C1728 0.930 . S
H1719 C1731 0.929 . S
H1720 C1734 0.930 . S
H1721 C1736 0.960 . S
H1722 C1736 0.960 . S
H1723 C1736 0.960 . S
C1724 H1716 0.929 . S
C1724 C1725 1.377 . S
C1724 C1726 1.384 . S
C1725 C1724 1.377 . S
C1725 C1731 1.390 . S
C1726 H1717 0.930 . S
C1726 C1724 1.384 . S
C1726 C1727 1.372 . S
C1727 C1726 1.372 . S
C1727 C1728 1.400 . S
C1727 C1732 1.490 . S
C1728 H1718 0.930 . S
C1728 C1727 1.400 . S
C1728 C1731 1.386 . S
H1729 C1745 0.930 . S
H1730 C1746 0.931 . S
C1731 H1719 0.929 . S
C1731 C1725 1.390 . S
C1731 C1728 1.386 . S
C1732 C1727 1.490 . S
C1732 C1734 1.395 . S
C1732 C1735 1.403 . S
H1733 C1739 0.930 . S
C1734 H1720 0.930 . S
C1734 C1732 1.395 . S
C1734 C1737 1.403 . S
C1735 C1732 1.403 . S
C1735 C1736 1.524 . S
C1735 C1739 1.400 . S
C1736 H1721 0.960 . S
C1736 H1722 0.960 . S
C1736 H1723 0.960 . S
C1736 C1735 1.524 . S
C1737 C1734 1.403 . S
C1737 C1738 1.392 . S
C1737 C1741 1.495 . S
C1738 C1737 1.392 . S
C1738 C1739 1.385 . S
C1738 C1740 1.478 . S
C1739 H1733 0.930 . S
C1739 C1735 1.400 . S
C1739 C1738 1.385 . S
C1740 C1738 1.478 . S
C1740 C1742 1.381 . S
C1740 C1746 1.383 . S
C1741 C1737 1.495 . S
C1741 H1747 0.959 . S
C1741 H1748 0.961 . S
C1741 H1749 0.960 . S
C1742 C1740 1.381 . S
C1742 C1743 1.394 . S
C1742 H1750 0.930 . S
C1743 C1742 1.394 . S
C1743 C1744 1.383 . S
C1743 H1751 0.929 . S
C1744 C1743 1.383 . S
C1744 C1745 1.377 . S
C1745 H1729 0.930 . S
C1745 C1744 1.377 . S
C1745 C1746 1.379 . S
C1746 H1730 0.931 . S
C1746 C1740 1.383 . S
C1746 C1745 1.379 . S
H1747 C1741 0.959 . S
H1748 C1741 0.961 . S
H1749 C1741 0.960 . S
H1750 C1742 0.930 . S
H1751 C1743 0.929 . S
H1752 C1760 0.929 . S
H1753 C1762 0.930 . S
H1754 C1764 0.930 . S
H1755 C1767 0.929 . S
H1756 C1770 0.930 . S
H1757 C1772 0.960 . S
H1758 C1772 0.960 . S
H1759 C1772 0.960 . S
C1760 H1752 0.929 . S
C1760 C1761 1.377 . S
C1760 C1762 1.384 . S
C1761 C1760 1.377 . S
C1761 C1767 1.390 . S
C1762 H1753 0.930 . S
C1762 C1760 1.384 . S
C1762 C1763 1.372 . S
C1763 C1762 1.372 . S
C1763 C1764 1.400 . S
C1763 C1768 1.490 . S
C1764 H1754 0.930 . S
C1764 C1763 1.400 . S
C1764 C1767 1.386 . S
H1765 C1781 0.930 . S
H1766 C1782 0.931 . S
C1767 H1755 0.929 . S
C1767 C1761 1.390 . S
C1767 C1764 1.386 . S
C1768 C1763 1.490 . S
C1768 C1770 1.395 . S
C1768 C1771 1.403 . S
H1769 C1775 0.930 . S
C1770 H1756 0.930 . S
C1770 C1768 1.395 . S
C1770 C1773 1.403 . S
C1771 C1768 1.403 . S
C1771 C1772 1.524 . S
C1771 C1775 1.400 . S
C1772 H1757 0.960 . S
C1772 H1758 0.960 . S
C1772 H1759 0.960 . S
C1772 C1771 1.524 . S
C1773 C1770 1.403 . S
C1773 C1774 1.392 . S
C1773 C1777 1.495 . S
C1774 C1773 1.392 . S
C1774 C1775 1.385 . S
C1774 C1776 1.478 . S
C1775 H1769 0.930 . S
C1775 C1771 1.400 . S
C1775 C1774 1.385 . S
C1776 C1774 1.478 . S
C1776 C1778 1.381 . S
C1776 C1782 1.383 . S
C1777 C1773 1.495 . S
C1777 H1783 0.959 . S
C1777 H1784 0.961 . S
C1777 H1785 0.960 . S
C1778 C1776 1.381 . S
C1778 C1779 1.394 . S
C1778 H1786 0.930 . S
C1779 C1778 1.394 . S
C1779 C1780 1.383 . S
C1779 H1787 0.929 . S
C1780 C1779 1.383 . S
C1780 C1781 1.377 . S
C1781 H1765 0.930 . S
C1781 C1780 1.377 . S
C1781 C1782 1.379 . S
C1782 H1766 0.931 . S
C1782 C1776 1.383 . S
C1782 C1781 1.379 . S
H1783 C1777 0.959 . S
H1784 C1777 0.961 . S
H1785 C1777 0.960 . S
H1786 C1778 0.930 . S
H1787 C1779 0.929 . S
H1788 C1796 0.929 . S
H1789 C1798 0.930 . S
H1790 C1800 0.930 . S
H1791 C1803 0.929 . S
H1792 C1806 0.930 . S
H1793 C1808 0.960 . S
H1794 C1808 0.960 . S
H1795 C1808 0.960 . S
C1796 H1788 0.929 . S
C1796 C1797 1.377 . S
C1796 C1798 1.384 . S
C1797 C1796 1.377 . S
C1797 C1803 1.390 . S
C1798 H1789 0.930 . S
C1798 C1796 1.384 . S
C1798 C1799 1.372 . S
C1799 C1798 1.372 . S
C1799 C1800 1.400 . S
C1799 C1804 1.490 . S
C1800 H1790 0.930 . S
C1800 C1799 1.400 . S
C1800 C1803 1.386 . S
H1801 C1817 0.930 . S
H1802 C1818 0.931 . S
C1803 H1791 0.929 . S
C1803 C1797 1.390 . S
C1803 C1800 1.386 . S
C1804 C1799 1.490 . S
C1804 C1806 1.395 . S
C1804 C1807 1.403 . S
H1805 C1811 0.930 . S
C1806 H1792 0.930 . S
C1806 C1804 1.395 . S
C1806 C1809 1.403 . S
C1807 C1804 1.403 . S
C1807 C1808 1.524 . S
C1807 C1811 1.400 . S
C1808 H1793 0.960 . S
C1808 H1794 0.960 . S
C1808 H1795 0.960 . S
C1808 C1807 1.524 . S
C1809 C1806 1.403 . S
C1809 C1810 1.392 . S
C1809 C1813 1.495 . S
C1810 C1809 1.392 . S
C1810 C1811 1.385 . S
C1810 C1812 1.478 . S
C1811 H1805 0.930 . S
C1811 C1807 1.400 . S
C1811 C1810 1.385 . S
C1812 C1810 1.478 . S
C1812 C1814 1.381 . S
C1812 C1818 1.383 . S
C1813 C1809 1.495 . S
C1813 H1819 0.959 . S
C1813 H1820 0.961 . S
C1813 H1821 0.960 . S
C1814 C1812 1.381 . S
C1814 C1815 1.394 . S
C1814 H1822 0.930 . S
C1815 C1814 1.394 . S
C1815 C1816 1.383 . S
C1815 H1823 0.929 . S
C1816 C1815 1.383 . S
C1816 C1817 1.377 . S
C1817 H1801 0.930 . S
C1817 C1816 1.377 . S
C1817 C1818 1.379 . S
C1818 H1802 0.931 . S
C1818 C1812 1.383 . S
C1818 C1817 1.379 . S
H1819 C1813 0.959 . S
H1820 C1813 0.961 . S
H1821 C1813 0.960 . S
H1822 C1814 0.930 . S
H1823 C1815 0.929 . S
H1824 C1832 0.929 . S
H1825 C1834 0.930 . S
H1826 C1836 0.930 1_655 S
H1827 C1839 0.929 1_655 S
H1828 C1842 0.930 . S
H1829 C1844 0.960 . S
H1830 C1844 0.960 . S
H1831 C1844 0.960 . S
C1832 H1824 0.929 . S
C1832 C1833 1.377 . S
C1832 C1834 1.384 . S
C1833 C1832 1.377 . S
C1833 C1839 1.390 . S
C1834 H1825 0.930 . S
C1834 C1832 1.384 . S
C1834 C1835 1.372 . S
C1835 C1834 1.372 . S
C1835 C1836 1.400 . S
C1835 C1840 1.490 . S
C1836 H1826 0.930 1_455 S
C1836 C1835 1.400 . S
C1836 C1839 1.386 . S
H1837 C1853 0.924 . S
H1838 C1854 0.931 1_655 S
C1839 H1827 0.929 1_455 S
C1839 C1833 1.390 . S
C1839 C1836 1.386 . S
C1840 C1835 1.490 . S
C1840 C1842 1.395 . S
C1840 C1843 1.403 . S
H1841 C1847 0.930 . S
C1842 H1828 0.930 . S
C1842 C1840 1.395 . S
C1842 C1845 1.403 . S
C1843 C1840 1.403 . S
C1843 C1844 1.524 . S
C1843 C1847 1.400 . S
C1844 H1829 0.960 . S
C1844 H1830 0.960 . S
C1844 H1831 0.960 . S
C1844 C1843 1.524 . S
C1845 C1842 1.403 . S
C1845 C1846 1.392 . S
C1845 C1849 1.495 . S
C1846 C1845 1.392 . S
C1846 C1847 1.385 . S
C1846 C1848 1.478 . S
C1847 H1841 0.930 . S
C1847 C1843 1.400 . S
C1847 C1846 1.385 . S
C1848 C1846 1.478 . S
C1848 C1850 1.381 . S
C1848 C1854 1.383 . S
C1849 C1845 1.495 . S
C1849 H1855 0.959 . S
C1849 H1856 0.961 . S
C1849 H1857 0.960 . S
C1850 C1848 1.381 . S
C1850 C1851 1.394 . S
C1850 H1858 0.930 . S
C1851 C1850 1.394 . S
C1851 C1852 1.383 . S
C1851 H1859 0.929 . S
C1852 C1851 1.383 . S
C1852 C1853 1.377 . S
C1853 H1837 0.924 . S
C1853 C1852 1.377 . S
C1853 C1854 1.379 . S
C1854 H1838 0.931 1_455 S
C1854 C1848 1.383 . S
C1854 C1853 1.379 . S
H1855 C1849 0.959 . S
H1856 C1849 0.961 . S
H1857 C1849 0.960 . S
H1858 C1850 0.930 . S
H1859 C1851 0.929 . S
H1860 C1868 0.929 . S
H1861 C1870 0.930 . S
H1862 C1872 0.930 . S
H1863 C1875 0.929 . S
H1864 C1878 0.930 . S
H1865 C1880 0.960 . S
H1866 C1880 0.960 . S
H1867 C1880 0.960 . S
C1868 H1860 0.929 . S
C1868 C1869 1.377 . S
C1868 C1870 1.384 . S
C1869 C1868 1.377 . S
C1869 C1875 1.390 . S
C1870 H1861 0.930 . S
C1870 C1868 1.384 . S
C1870 C1871 1.372 . S
C1871 C1870 1.372 . S
C1871 C1872 1.400 . S
C1871 C1876 1.490 . S
C1872 H1862 0.930 . S
C1872 C1871 1.400 . S
C1872 C1875 1.386 . S
H1873 C1889 0.930 . S
H1874 C1890 0.931 . S
C1875 H1863 0.929 . S
C1875 C1869 1.390 . S
C1875 C1872 1.386 . S
C1876 C1871 1.490 . S
C1876 C1878 1.395 . S
C1876 C1879 1.403 . S
H1877 C1883 0.930 . S
C1878 H1864 0.930 . S
C1878 C1876 1.395 . S
C1878 C1881 1.403 . S
C1879 C1876 1.403 . S
C1879 C1880 1.524 . S
C1879 C1883 1.400 . S
C1880 H1865 0.960 . S
C1880 H1866 0.960 . S
C1880 H1867 0.960 . S
C1880 C1879 1.524 . S
C1881 C1878 1.403 . S
C1881 C1882 1.392 . S
C1881 C1885 1.495 . S
C1882 C1881 1.392 . S
C1882 C1883 1.385 . S
C1882 C1884 1.478 . S
C1883 H1877 0.930 . S
C1883 C1879 1.400 . S
C1883 C1882 1.385 . S
C1884 C1882 1.478 . S
C1884 C1886 1.381 . S
C1884 C1890 1.383 . S
C1885 C1881 1.495 . S
C1885 H1891 0.959 . S
C1885 H1892 0.961 . S
C1885 H1893 0.960 . S
C1886 C1884 1.381 . S
C1886 C1887 1.394 . S
C1886 H1894 0.930 . S
C1887 C1886 1.394 . S
C1887 C1888 1.383 . S
C1887 H1895 0.929 . S
C1888 C1887 1.383 . S
C1888 C1889 1.377 . S
C1889 H1873 0.930 . S
C1889 C1888 1.377 . S
C1889 C1890 1.379 . S
C1890 H1874 0.931 . S
C1890 C1884 1.383 . S
C1890 C1889 1.379 . S
H1891 C1885 0.959 . S
H1892 C1885 0.961 . S
H1893 C1885 0.960 . S
H1894 C1886 0.930 . S
H1895 C1887 0.929 . S
H1896 C1904 0.929 . S
H1897 C1906 0.930 . S
H1898 C1908 0.930 . S
H1899 C1911 0.929 . S
H1900 C1914 0.930 . S
H1901 C1916 0.960 . S
H1902 C1916 0.960 . S
H1903 C1916 0.960 . S
C1904 H1896 0.929 . S
C1904 C1905 1.377 . S
C1904 C1906 1.384 . S
C1905 C1904 1.377 . S
C1905 C1911 1.390 . S
C1906 H1897 0.930 . S
C1906 C1904 1.384 . S
C1906 C1907 1.372 . S
C1907 C1906 1.372 . S
C1907 C1908 1.400 . S
C1907 C1912 1.490 . S
C1908 H1898 0.930 . S
C1908 C1907 1.400 . S
C1908 C1911 1.386 . S
H1909 C1925 0.930 . S
H1910 C1926 0.931 . S
C1911 H1899 0.929 . S
C1911 C1905 1.390 . S
C1911 C1908 1.386 . S
C1912 C1907 1.490 . S
C1912 C1914 1.395 . S
C1912 C1915 1.403 . S
H1913 C1919 0.930 . S
C1914 H1900 0.930 . S
C1914 C1912 1.395 . S
C1914 C1917 1.403 . S
C1915 C1912 1.403 . S
C1915 C1916 1.524 . S
C1915 C1919 1.400 . S
C1916 H1901 0.960 . S
C1916 H1902 0.960 . S
C1916 H1903 0.960 . S
C1916 C1915 1.524 . S
C1917 C1914 1.403 . S
C1917 C1918 1.392 . S
C1917 C1921 1.495 . S
C1918 C1917 1.392 . S
C1918 C1919 1.385 . S
C1918 C1920 1.478 . S
C1919 H1913 0.930 . S
C1919 C1915 1.400 . S
C1919 C1918 1.385 . S
C1920 C1918 1.478 . S
C1920 C1922 1.381 . S
C1920 C1926 1.383 . S
C1921 C1917 1.495 . S
C1921 H1927 0.959 . S
C1921 H1928 0.961 . S
C1921 H1929 0.960 . S
C1922 C1920 1.381 . S
C1922 C1923 1.394 . S
C1922 H1930 0.930 . S
C1923 C1922 1.394 . S
C1923 C1924 1.383 . S
C1923 H1931 0.929 . S
C1924 C1923 1.383 . S
C1924 C1925 1.377 . S
C1925 H1909 0.930 . S
C1925 C1924 1.377 . S
C1925 C1926 1.379 . S
C1926 H1910 0.931 . S
C1926 C1920 1.383 . S
C1926 C1925 1.379 . S
H1927 C1921 0.959 . S
H1928 C1921 0.961 . S
H1929 C1921 0.960 . S
H1930 C1922 0.930 . S
H1931 C1923 0.929 . S
H1932 C1940 0.929 . S
H1933 C1942 0.930 . S
H1934 C1944 0.930 . S
H1935 C1947 0.929 . S
H1936 C1950 0.930 . S
H1937 C1952 0.960 . S
H1938 C1952 0.960 . S
H1939 C1952 0.960 . S
C1940 H1932 0.929 . S
C1940 C1941 1.377 . S
C1940 C1942 1.384 . S
C1941 C1940 1.377 . S
C1941 C1947 1.390 . S
C1942 H1933 0.930 . S
C1942 C1940 1.384 . S
C1942 C1943 1.372 . S
C1943 C1942 1.372 . S
C1943 C1944 1.400 . S
C1943 C1948 1.490 . S
C1944 H1934 0.930 . S
C1944 C1943 1.400 . S
C1944 C1947 1.386 . S
H1945 C1961 0.930 . S
H1946 C1962 0.931 . S
C1947 H1935 0.929 . S
C1947 C1941 1.390 . S
C1947 C1944 1.386 . S
C1948 C1943 1.490 . S
C1948 C1950 1.395 . S
C1948 C1951 1.403 . S
H1949 C1955 0.930 . S
C1950 H1936 0.930 . S
C1950 C1948 1.395 . S
C1950 C1953 1.403 . S
C1951 C1948 1.403 . S
C1951 C1952 1.524 . S
C1951 C1955 1.400 . S
C1952 H1937 0.960 . S
C1952 H1938 0.960 . S
C1952 H1939 0.960 . S
C1952 C1951 1.524 . S
C1953 C1950 1.403 . S
C1953 C1954 1.392 . S
C1953 C1957 1.495 . S
C1954 C1953 1.392 . S
C1954 C1955 1.385 . S
C1954 C1956 1.478 . S
C1955 H1949 0.930 . S
C1955 C1951 1.400 . S
C1955 C1954 1.385 . S
C1956 C1954 1.478 . S
C1956 C1958 1.381 . S
C1956 C1962 1.383 . S
C1957 C1953 1.495 . S
C1957 H1963 0.959 . S
C1957 H1964 0.961 . S
C1957 H1965 0.960 . S
C1958 C1956 1.381 . S
C1958 C1959 1.394 . S
C1958 H1966 0.930 . S
C1959 C1958 1.394 . S
C1959 C1960 1.383 . S
C1959 H1967 0.929 . S
C1960 C1959 1.383 . S
C1960 C1961 1.377 . S
C1961 H1945 0.930 . S
C1961 C1960 1.377 . S
C1961 C1962 1.379 . S
C1962 H1946 0.931 . S
C1962 C1956 1.383 . S
C1962 C1961 1.379 . S
H1963 C1957 0.959 . S
H1964 C1957 0.961 . S
H1965 C1957 0.960 . S
H1966 C1958 0.930 . S
H1967 C1959 0.929 . S
H1968 C1976 0.929 . S
H1969 C1978 0.930 . S
H1970 C1980 0.930 1_565 S
H1971 C1983 0.966 . S
H1972 C1986 0.930 . S
H1973 C1988 0.960 . S
H1974 C1988 0.960 . S
H1975 C1988 0.960 . S
C1976 H1968 0.929 . S
C1976 C1977 1.377 . S
C1976 C1978 1.384 . S
C1977 C1976 1.377 . S
C1977 C1983 1.360 1_545 S
C1978 H1969 0.930 . S
C1978 C1976 1.384 . S
C1978 C1979 1.372 . S
C1979 C1978 1.372 . S
C1979 C1980 1.400 . S
C1979 C1984 1.490 . S
C1980 H1970 0.930 1_545 S
C1980 C1979 1.400 . S
C1980 C1983 1.380 1_545 S
H1981 C1997 0.930 . S
H1982 C1998 0.906 1_455 S
C1983 H1971 0.966 . S
C1983 C1977 1.360 1_565 S
C1983 C1980 1.380 1_565 S
C1984 C1979 1.490 . S
C1984 C1986 1.395 . S
C1984 C1987 1.403 . S
H1985 C1991 0.930 . S
C1986 H1972 0.930 . S
C1986 C1984 1.395 . S
C1986 C1989 1.403 . S
C1987 C1984 1.403 . S
C1987 C1988 1.524 1_545 S
C1987 C1991 1.400 . S
C1988 H1973 0.960 . S
C1988 H1974 0.960 . S
C1988 H1975 0.960 . S
C1988 C1987 1.524 1_565 S
C1989 C1986 1.403 . S
C1989 C1990 1.392 . S
C1989 C1993 1.495 . S
C1990 C1989 1.392 . S
C1990 C1991 1.385 . S
C1990 C1992 1.478 . S
C1991 H1985 0.930 . S
C1991 C1987 1.400 . S
C1991 C1990 1.385 . S
C1992 C1990 1.478 . S
C1992 C1994 1.381 . S
C1992 C1998 1.438 . S
C1993 C1989 1.495 . S
C1993 H1999 0.959 . S
C1993 H2000 0.961 1_655 S
C1993 H2001 0.960 . S
C1994 C1992 1.381 . S
C1994 C1995 1.394 . S
C1994 H2002 0.930 . S
C1995 C1994 1.394 . S
C1995 C1996 1.383 1_655 S
C1995 H2003 0.929 . S
C1996 C1995 1.383 1_455 S
C1996 C1997 1.377 . S
C1997 H1981 0.930 . S
C1997 C1996 1.377 . S
C1997 C1998 1.344 1_455 S
C1998 H1982 0.906 1_655 S
C1998 C1992 1.438 . S
C1998 C1997 1.344 1_655 S
H1999 C1993 0.959 . S
H2000 C1993 0.961 1_455 S
H2001 C1993 0.960 . S
H2002 C1994 0.930 . S
H2003 C1995 0.929 . S
H2004 C2012 0.929 . S
H2005 C2014 0.930 . S
H2006 C2016 0.930 . S
H2007 C2019 0.929 . S
H2008 C2022 0.930 . S
H2009 C2024 0.960 . S
H2010 C2024 0.960 . S
H2011 C2024 0.960 . S
C2012 H2004 0.929 . S
C2012 C2013 1.377 . S
C2012 C2014 1.384 . S
C2013 C2012 1.377 . S
C2013 C2019 1.390 . S
C2014 H2005 0.930 . S
C2014 C2012 1.384 . S
C2014 C2015 1.372 . S
C2015 C2014 1.372 . S
C2015 C2016 1.400 . S
C2015 C2020 1.490 . S
C2016 H2006 0.930 . S
C2016 C2015 1.400 . S
C2016 C2019 1.386 . S
H2017 C2033 0.930 . S
H2018 C2034 0.931 . S
C2019 H2007 0.929 . S
C2019 C2013 1.390 . S
C2019 C2016 1.386 . S
C2020 C2015 1.490 . S
C2020 C2022 1.395 . S
C2020 C2023 1.403 . S
H2021 C2027 0.930 . S
C2022 H2008 0.930 . S
C2022 C2020 1.395 . S
C2022 C2025 1.403 . S
C2023 C2020 1.403 . S
C2023 C2024 1.524 . S
C2023 C2027 1.400 . S
C2024 H2009 0.960 . S
C2024 H2010 0.960 . S
C2024 H2011 0.960 . S
C2024 C2023 1.524 . S
C2025 C2022 1.403 . S
C2025 C2026 1.392 . S
C2025 C2029 1.495 . S
C2026 C2025 1.392 . S
C2026 C2027 1.385 . S
C2026 C2028 1.478 . S
C2027 H2021 0.930 . S
C2027 C2023 1.400 . S
C2027 C2026 1.385 . S
C2028 C2026 1.478 . S
C2028 C2030 1.381 . S
C2028 C2034 1.383 . S
C2029 C2025 1.495 . S
C2029 H2035 0.959 . S
C2029 H2036 0.961 . S
C2029 H2037 0.960 . S
C2030 C2028 1.381 . S
C2030 C2031 1.394 . S
C2030 H2038 0.930 . S
C2031 C2030 1.394 . S
C2031 C2032 1.383 . S
C2031 H2039 0.929 . S
C2032 C2031 1.383 . S
C2032 C2033 1.377 . S
C2033 H2017 0.930 . S
C2033 C2032 1.377 . S
C2033 C2034 1.379 . S
C2034 H2018 0.931 . S
C2034 C2028 1.383 . S
C2034 C2033 1.379 . S
H2035 C2029 0.959 . S
H2036 C2029 0.961 . S
H2037 C2029 0.960 . S
H2038 C2030 0.930 . S
H2039 C2031 0.929 . S
H2040 C2048 0.929 . S
H2041 C2050 0.930 . S
H2042 C2052 0.930 . S
H2043 C2055 0.929 . S
H2044 C2058 0.930 . S
H2045 C2060 0.960 . S
H2046 C2060 0.960 . S
H2047 C2060 0.960 . S
C2048 H2040 0.929 . S
C2048 C2049 1.377 . S
C2048 C2050 1.384 . S
C2049 C2048 1.377 . S
C2049 C2055 1.390 . S
C2050 H2041 0.930 . S
C2050 C2048 1.384 . S
C2050 C2051 1.372 . S
C2051 C2050 1.372 . S
C2051 C2052 1.400 . S
C2051 C2056 1.490 . S
C2052 H2042 0.930 . S
C2052 C2051 1.400 . S
C2052 C2055 1.386 . S
H2053 C2069 0.930 . S
H2054 C2070 0.931 . S
C2055 H2043 0.929 . S
C2055 C2049 1.390 . S
C2055 C2052 1.386 . S
C2056 C2051 1.490 . S
C2056 C2058 1.395 . S
C2056 C2059 1.403 . S
H2057 C2063 0.930 . S
C2058 H2044 0.930 . S
C2058 C2056 1.395 . S
C2058 C2061 1.403 . S
C2059 C2056 1.403 . S
C2059 C2060 1.524 . S
C2059 C2063 1.400 . S
C2060 H2045 0.960 . S
C2060 H2046 0.960 . S
C2060 H2047 0.960 . S
C2060 C2059 1.524 . S
C2061 C2058 1.403 . S
C2061 C2062 1.392 . S
C2061 C2065 1.495 1_545 S
C2062 C2061 1.392 . S
C2062 C2063 1.385 . S
C2062 C2064 1.478 . S
C2063 H2057 0.930 . S
C2063 C2059 1.400 . S
C2063 C2062 1.385 . S
C2064 C2062 1.478 . S
C2064 C2066 1.381 . S
C2064 C2070 1.383 . S
C2065 C2061 1.495 1_565 S
C2065 H2071 0.959 . S
C2065 H2072 0.961 . S
C2065 H2073 0.960 . S
C2066 C2064 1.381 . S
C2066 C2067 1.394 . S
C2066 H2074 0.930 . S
C2067 C2066 1.394 . S
C2067 C2068 1.383 . S
C2067 H2075 0.929 . S
C2068 C2067 1.383 . S
C2068 C2069 1.377 . S
C2069 H2053 0.930 . S
C2069 C2068 1.377 . S
C2069 C2070 1.379 . S
C2070 H2054 0.931 . S
C2070 C2064 1.383 . S
C2070 C2069 1.379 . S
H2071 C2065 0.959 . S
H2072 C2065 0.961 . S
H2073 C2065 0.960 . S
H2074 C2066 0.930 . S
H2075 C2067 0.929 . S
H2076 C2084 0.929 . S
H2077 C2086 0.930 . S
H2078 C2088 0.930 . S
H2079 C2091 0.929 . S
H2080 C2094 0.930 . S
H2081 C2096 0.960 . S
H2082 C2096 0.960 . S
H2083 C2096 0.960 . S
C2084 H2076 0.929 . S
C2084 C2085 1.377 . S
C2084 C2086 1.384 . S
C2085 C2084 1.377 . S
C2085 C2091 1.390 . S
C2086 H2077 0.930 . S
C2086 C2084 1.384 . S
C2086 C2087 1.372 . S
C2087 C2086 1.372 . S
C2087 C2088 1.400 . S
C2087 C2092 1.490 . S
C2088 H2078 0.930 . S
C2088 C2087 1.400 . S
C2088 C2091 1.386 . S
H2089 C2105 0.930 . S
H2090 C2106 0.931 . S
C2091 H2079 0.929 . S
C2091 C2085 1.390 . S
C2091 C2088 1.386 . S
C2092 C2087 1.490 . S
C2092 C2094 1.395 . S
C2092 C2095 1.403 . S
H2093 C2099 0.930 . S
C2094 H2080 0.930 . S
C2094 C2092 1.395 . S
C2094 C2097 1.403 . S
C2095 C2092 1.403 . S
C2095 C2096 1.524 . S
C2095 C2099 1.400 . S
C2096 H2081 0.960 . S
C2096 H2082 0.960 . S
C2096 H2083 0.960 . S
C2096 C2095 1.524 . S
C2097 C2094 1.403 . S
C2097 C2098 1.392 . S
C2097 C2101 1.495 . S
C2098 C2097 1.392 . S
C2098 C2099 1.385 . S
C2098 C2100 1.478 . S
C2099 H2093 0.930 . S
C2099 C2095 1.400 . S
C2099 C2098 1.385 . S
C2100 C2098 1.478 . S
C2100 C2102 1.381 . S
C2100 C2106 1.383 . S
C2101 C2097 1.495 . S
C2101 H2107 0.959 . S
C2101 H2108 0.961 . S
C2101 H2109 0.960 . S
C2102 C2100 1.381 . S
C2102 C2103 1.394 . S
C2102 H2110 0.930 . S
C2103 C2102 1.394 . S
C2103 C2104 1.383 . S
C2103 H2111 0.929 . S
C2104 C2103 1.383 . S
C2104 C2105 1.377 . S
C2105 H2089 0.930 . S
C2105 C2104 1.377 . S
C2105 C2106 1.379 . S
C2106 H2090 0.931 . S
C2106 C2100 1.383 . S
C2106 C2105 1.379 . S
H2107 C2101 0.959 . S
H2108 C2101 0.961 . S
H2109 C2101 0.960 . S
H2110 C2102 0.930 . S
H2111 C2103 0.929 . S
H2112 C2120 0.908 1_565 S
H2113 C2122 0.930 1_565 S
H2114 C2124 0.930 . S
H2115 C2127 0.929 . S
H2116 C2130 0.930 . S
H2117 C2132 0.960 . S
H2118 C2132 0.960 1_565 S
H2119 C2132 0.960 . S
C2120 H2112 0.908 1_545 S
C2120 C2121 1.404 . S
C2120 C2122 1.379 . S
C2121 C2120 1.404 . S
C2121 C2127 1.390 . S
C2122 H2113 0.930 1_545 S
C2122 C2120 1.379 . S
C2122 C2123 1.372 . S
C2123 C2122 1.372 . S
C2123 C2124 1.400 . S
C2123 C2128 1.490 . S
C2124 H2114 0.930 . S
C2124 C2123 1.400 . S
C2124 C2127 1.386 . S
H2125 C2141 0.930 . S
H2126 C2142 0.931 . S
C2127 H2115 0.929 . S
C2127 C2121 1.390 . S
C2127 C2124 1.386 . S
C2128 C2123 1.490 . S
C2128 C2130 1.395 . S
C2128 C2131 1.403 . S
H2129 C2135 0.930 . S
C2130 H2116 0.930 . S
C2130 C2128 1.395 . S
C2130 C2133 1.403 . S
C2131 C2128 1.403 . S
C2131 C2132 1.524 . S
C2131 C2135 1.400 . S
C2132 H2117 0.960 . S
C2132 H2118 0.960 1_545 S
C2132 H2119 0.960 . S
C2132 C2131 1.524 . S
C2133 C2130 1.403 . S
C2133 C2134 1.392 . S
C2133 C2137 1.495 1_655 S
C2134 C2133 1.392 . S
C2134 C2135 1.385 . S
C2134 C2136 1.478 . S
C2135 H2129 0.930 . S
C2135 C2131 1.400 . S
C2135 C2134 1.385 . S
C2136 C2134 1.478 . S
C2136 C2138 1.381 1_655 S
C2136 C2142 1.383 . S
C2137 C2133 1.495 1_455 S
C2137 H2143 0.959 . S
C2137 H2144 0.961 . S
C2137 H2145 0.960 . S
C2138 C2136 1.381 1_455 S
C2138 C2139 1.394 . S
C2138 H2146 0.930 1_545 S
C2139 C2138 1.394 . S
C2139 C2140 1.383 . S
C2139 H2147 0.929 1_545 S
C2140 C2139 1.383 . S
C2140 C2141 1.377 . S
C2141 H2125 0.930 . S
C2141 C2140 1.377 . S
C2141 C2142 1.379 1_455 S
C2142 H2126 0.931 . S
C2142 C2136 1.383 . S
C2142 C2141 1.379 1_655 S
H2143 C2137 0.959 . S
H2144 C2137 0.961 . S
H2145 C2137 0.960 . S
H2146 C2138 0.930 1_565 S
H2147 C2139 0.929 1_565 S
H2148 C2156 0.929 . S
H2149 C2158 0.930 . S
H2150 C2160 0.930 . S
H2151 C2163 0.929 . S
H2152 C2166 0.930 . S
H2153 C2168 0.960 . S
H2154 C2168 0.960 . S
H2155 C2168 0.960 . S
C2156 H2148 0.929 . S
C2156 C2157 1.377 . S
C2156 C2158 1.384 . S
C2157 C2156 1.377 . S
C2157 C2163 1.390 . S
C2158 H2149 0.930 . S
C2158 C2156 1.384 . S
C2158 C2159 1.372 . S
C2159 C2158 1.372 . S
C2159 C2160 1.400 . S
C2159 C2164 1.490 . S
C2160 H2150 0.930 . S
C2160 C2159 1.400 . S
C2160 C2163 1.386 . S
H2161 C2177 0.930 . S
H2162 C2178 0.931 . S
C2163 H2151 0.929 . S
C2163 C2157 1.390 . S
C2163 C2160 1.386 . S
C2164 C2159 1.490 . S
C2164 C2166 1.395 . S
C2164 C2167 1.403 . S
H2165 C2171 0.930 . S
C2166 H2152 0.930 . S
C2166 C2164 1.395 . S
C2166 C2169 1.403 . S
C2167 C2164 1.403 . S
C2167 C2168 1.524 . S
C2167 C2171 1.400 . S
C2168 H2153 0.960 . S
C2168 H2154 0.960 . S
C2168 H2155 0.960 . S
C2168 C2167 1.524 . S
C2169 C2166 1.403 . S
C2169 C2170 1.392 . S
C2169 C2173 1.495 . S
C2170 C2169 1.392 . S
C2170 C2171 1.385 . S
C2170 C2172 1.478 . S
C2171 H2165 0.930 . S
C2171 C2167 1.400 . S
C2171 C2170 1.385 . S
C2172 C2170 1.478 . S
C2172 C2174 1.381 . S
C2172 C2178 1.383 . S
C2173 C2169 1.495 . S
C2173 H2179 0.959 . S
C2173 H2180 0.961 . S
C2173 H2181 0.960 . S
C2174 C2172 1.381 . S
C2174 C2175 1.394 . S
C2174 H2182 0.930 . S
C2175 C2174 1.394 . S
C2175 C2176 1.383 . S
C2175 H2183 0.929 . S
C2176 C2175 1.383 . S
C2176 C2177 1.377 . S
C2177 H2161 0.930 . S
C2177 C2176 1.377 . S
C2177 C2178 1.379 . S
C2178 H2162 0.931 . S
C2178 C2172 1.383 . S
C2178 C2177 1.379 . S
H2179 C2173 0.959 . S
H2180 C2173 0.961 . S
H2181 C2173 0.960 . S
H2182 C2174 0.930 . S
H2183 C2175 0.929 . S
H2184 C2192 0.929 . S
H2185 C2194 0.930 . S
H2186 C2196 0.930 . S
H2187 C2199 0.929 . S
H2188 C2202 0.930 . S
H2189 C2204 0.960 . S
H2190 C2204 0.960 . S
H2191 C2204 0.960 . S
C2192 H2184 0.929 . S
C2192 C2193 1.377 . S
C2192 C2194 1.384 . S
C2193 C2192 1.377 . S
C2193 C2199 1.390 . S
C2194 H2185 0.930 . S
C2194 C2192 1.384 . S
C2194 C2195 1.372 . S
C2195 C2194 1.372 . S
C2195 C2196 1.400 . S
C2195 C2200 1.490 . S
C2196 H2186 0.930 . S
C2196 C2195 1.400 . S
C2196 C2199 1.386 . S
H2197 C2213 0.930 . S
H2198 C2214 0.931 . S
C2199 H2187 0.929 . S
C2199 C2193 1.390 . S
C2199 C2196 1.386 . S
C2200 C2195 1.490 . S
C2200 C2202 1.395 . S
C2200 C2203 1.403 . S
H2201 C2207 0.930 . S
C2202 H2188 0.930 . S
C2202 C2200 1.395 . S
C2202 C2205 1.403 . S
C2203 C2200 1.403 . S
C2203 C2204 1.524 . S
C2203 C2207 1.400 . S
C2204 H2189 0.960 . S
C2204 H2190 0.960 . S
C2204 H2191 0.960 . S
C2204 C2203 1.524 . S
C2205 C2202 1.403 . S
C2205 C2206 1.392 . S
C2205 C2209 1.495 . S
C2206 C2205 1.392 . S
C2206 C2207 1.385 . S
C2206 C2208 1.478 . S
C2207 H2201 0.930 . S
C2207 C2203 1.400 . S
C2207 C2206 1.385 . S
C2208 C2206 1.478 . S
C2208 C2210 1.381 . S
C2208 C2214 1.383 . S
C2209 C2205 1.495 . S
C2209 H2215 0.959 1_545 S
C2209 H2216 0.961 1_545 S
C2209 H2217 0.960 . S
C2210 C2208 1.381 . S
C2210 C2211 1.394 . S
C2210 H2218 0.930 . S
C2211 C2210 1.394 . S
C2211 C2212 1.383 . S
C2211 H2219 0.929 . S
C2212 C2211 1.383 . S
C2212 C2213 1.377 . S
C2213 H2197 0.930 . S
C2213 C2212 1.377 . S
C2213 C2214 1.379 . S
C2214 H2198 0.931 . S
C2214 C2208 1.383 . S
C2214 C2213 1.379 . S
H2215 C2209 0.959 1_565 S
H2216 C2209 0.961 1_565 S
H2217 C2209 0.960 . S
H2218 C2210 0.930 . S
H2219 C2211 0.929 . S
H2220 C2228 0.929 . S
H2221 C2230 0.930 . S
H2222 C2232 0.930 . S
H2223 C2235 0.929 . S
H2224 C2238 0.930 . S
H2225 C2240 0.960 . S
H2226 C2240 0.960 . S
H2227 C2240 0.960 . S
C2228 H2220 0.929 . S
C2228 C2229 1.377 . S
C2228 C2230 1.384 . S
C2229 C2228 1.377 . S
C2229 C2235 1.390 . S
C2230 H2221 0.930 . S
C2230 C2228 1.384 . S
C2230 C2231 1.372 . S
C2231 C2230 1.372 . S
C2231 C2232 1.400 . S
C2231 C2236 1.490 . S
C2232 H2222 0.930 . S
C2232 C2231 1.400 . S
C2232 C2235 1.386 . S
H2233 C2249 0.930 . S
H2234 C2250 0.931 . S
C2235 H2223 0.929 . S
C2235 C2229 1.390 . S
C2235 C2232 1.386 . S
C2236 C2231 1.490 . S
C2236 C2238 1.395 . S
C2236 C2239 1.403 . S
H2237 C2243 0.930 . S
C2238 H2224 0.930 . S
C2238 C2236 1.395 . S
C2238 C2241 1.403 . S
C2239 C2236 1.403 . S
C2239 C2240 1.524 . S
C2239 C2243 1.400 . S
C2240 H2225 0.960 . S
C2240 H2226 0.960 . S
C2240 H2227 0.960 . S
C2240 C2239 1.524 . S
C2241 C2238 1.403 . S
C2241 C2242 1.392 . S
C2241 C2245 1.495 . S
C2242 C2241 1.392 . S
C2242 C2243 1.385 . S
C2242 C2244 1.478 . S
C2243 H2237 0.930 . S
C2243 C2239 1.400 . S
C2243 C2242 1.385 . S
C2244 C2242 1.478 . S
C2244 C2246 1.381 . S
C2244 C2250 1.383 . S
C2245 C2241 1.495 . S
C2245 H2251 0.959 . S
C2245 H2252 0.961 . S
C2245 H2253 0.960 . S
C2246 C2244 1.381 . S
C2246 C2247 1.394 . S
C2246 H2254 0.930 . S
C2247 C2246 1.394 . S
C2247 C2248 1.383 . S
C2247 H2255 0.929 . S
C2248 C2247 1.383 . S
C2248 C2249 1.377 . S
C2249 H2233 0.930 . S
C2249 C2248 1.377 . S
C2249 C2250 1.379 . S
C2250 H2234 0.931 . S
C2250 C2244 1.383 . S
C2250 C2249 1.379 . S
H2251 C2245 0.959 . S
H2252 C2245 0.961 . S
H2253 C2245 0.960 . S
H2254 C2246 0.930 . S
H2255 C2247 0.929 . S
H2256 C2264 0.929 . S
H2257 C2266 0.930 . S
H2258 C2268 0.930 . S
H2259 C2271 0.929 1_556 S
H2260 C2274 0.930 . S
H2261 C2276 0.960 . S
H2262 C2276 0.960 . S
H2263 C2276 0.960 . S
C2264 H2256 0.929 . S
C2264 C2265 1.377 . S
C2264 C2266 1.384 . S
C2265 C2264 1.377 . S
C2265 C2271 1.390 . S
C2266 H2257 0.930 . S
C2266 C2264 1.384 . S
C2266 C2267 1.372 . S
C2267 C2266 1.372 . S
C2267 C2268 1.400 . S
C2267 C2272 1.490 . S
C2268 H2258 0.930 . S
C2268 C2267 1.400 . S
C2268 C2271 1.386 . S
H2269 C2285 0.930 . S
H2270 C2286 0.931 . S
C2271 H2259 0.929 1_554 S
C2271 C2265 1.390 . S
C2271 C2268 1.386 . S
C2272 C2267 1.490 . S
C2272 C2274 1.395 . S
C2272 C2275 1.403 . S
H2273 C2279 0.930 . S
C2274 H2260 0.930 . S
C2274 C2272 1.395 . S
C2274 C2277 1.403 . S
C2275 C2272 1.403 . S
C2275 C2276 1.524 1_554 S
C2275 C2279 1.400 . S
C2276 H2261 0.960 . S
C2276 H2262 0.960 . S
C2276 H2263 0.960 . S
C2276 C2275 1.524 1_556 S
C2277 C2274 1.403 . S
C2277 C2278 1.392 . S
C2277 C2281 1.495 . S
C2278 C2277 1.392 . S
C2278 C2279 1.385 . S
C2278 C2280 1.478 . S
C2279 H2273 0.930 . S
C2279 C2275 1.400 . S
C2279 C2278 1.385 . S
C2280 C2278 1.478 . S
C2280 C2282 1.381 . S
C2280 C2286 1.383 1_565 S
C2281 C2277 1.495 . S
C2281 H2287 0.959 . S
C2281 H2288 0.961 . S
C2281 H2289 0.960 . S
C2282 C2280 1.381 . S
C2282 C2283 1.394 . S
C2282 H2290 0.930 . S
C2283 C2282 1.394 . S
C2283 C2284 1.383 1_565 S
C2283 H2291 0.929 . S
C2284 C2283 1.383 1_545 S
C2284 C2285 1.377 . S
C2285 H2269 0.930 . S
C2285 C2284 1.377 . S
C2285 C2286 1.379 . S
C2286 H2270 0.931 . S
C2286 C2280 1.383 1_545 S
C2286 C2285 1.379 . S
H2287 C2281 0.959 . S
H2288 C2281 0.961 . S
H2289 C2281 0.960 . S
H2290 C2282 0.930 . S
H2291 C2283 0.929 . S
H2292 C2300 0.929 1_556 S
H2293 C2302 0.930 1_556 S
H2294 C2304 0.930 . S
H2295 C2307 0.929 . S
H2296 C2310 0.934 . S
H2297 C2312 0.960 . S
H2298 C2312 0.960 . S
H2299 C2312 0.960 . S
C2300 H2292 0.929 1_554 S
C2300 C2301 1.377 . S
C2300 C2302 1.384 . S
C2301 C2300 1.377 . S
C2301 C2307 1.390 . S
C2302 H2293 0.930 1_554 S
C2302 C2300 1.384 . S
C2302 C2303 1.372 . S
C2303 C2302 1.372 . S
C2303 C2304 1.400 . S
C2303 C2308 1.490 . S
C2304 H2294 0.930 . S
C2304 C2303 1.400 . S
C2304 C2307 1.386 . S
H2305 C2321 0.930 . S
H2306 C2322 0.931 . S
C2307 H2295 0.929 . S
C2307 C2301 1.390 . S
C2307 C2304 1.386 . S
C2308 C2303 1.490 . S
C2308 C2310 1.395 . S
C2308 C2311 1.403 . S
H2309 C2315 0.930 . S
C2310 H2296 0.934 . S
C2310 C2308 1.395 . S
C2310 C2313 1.403 . S
C2311 C2308 1.403 . S
C2311 C2312 1.524 . S
C2311 C2315 1.400 . S
C2312 H2297 0.960 . S
C2312 H2298 0.960 . S
C2312 H2299 0.960 . S
C2312 C2311 1.524 . S
C2313 C2310 1.403 . S
C2313 C2314 1.392 . S
C2313 C2317 1.495 1_554 S
C2314 C2313 1.392 . S
C2314 C2315 1.385 . S
C2314 C2316 1.478 . S
C2315 H2309 0.930 . S
C2315 C2311 1.400 . S
C2315 C2314 1.385 . S
C2316 C2314 1.478 . S
C2316 C2318 1.381 . S
C2316 C2322 1.383 . S
C2317 C2313 1.495 1_556 S
C2317 H2323 0.959 . S
C2317 H2324 0.961 1_556 S
C2317 H2325 0.960 . S
C2318 C2316 1.381 . S
C2318 C2319 1.394 . S
C2318 H2326 0.933 1_554 S
C2319 C2318 1.394 . S
C2319 C2320 1.383 . S
C2319 H2327 0.929 . S
C2320 C2319 1.383 . S
C2320 C2321 1.377 . S
C2321 H2305 0.930 . S
C2321 C2320 1.377 . S
C2321 C2322 1.379 . S
C2322 H2306 0.931 . S
C2322 C2316 1.383 . S
C2322 C2321 1.379 . S
H2323 C2317 0.959 . S
H2324 C2317 0.961 1_554 S
H2325 C2317 0.960 . S
H2326 C2318 0.933 1_556 S
H2327 C2319 0.929 . S
H2328 C2336 0.929 . S
H2329 C2338 0.930 . S
H2330 C2340 0.930 . S
H2331 C2343 0.929 . S
H2332 C2346 0.930 . S
H2333 C2348 0.960 . S
H2334 C2348 0.960 . S
H2335 C2348 0.960 . S
C2336 H2328 0.929 . S
C2336 C2337 1.377 . S
C2336 C2338 1.384 . S
C2337 C2336 1.377 . S
C2337 C2343 1.390 . S
C2338 H2329 0.930 . S
C2338 C2336 1.384 . S
C2338 C2339 1.372 . S
C2339 C2338 1.372 . S
C2339 C2340 1.400 . S
C2339 C2344 1.490 . S
C2340 H2330 0.930 . S
C2340 C2339 1.400 . S
C2340 C2343 1.386 . S
H2341 C2357 0.930 . S
H2342 C2358 0.931 . S
C2343 H2331 0.929 . S
C2343 C2337 1.390 . S
C2343 C2340 1.386 . S
C2344 C2339 1.490 . S
C2344 C2346 1.395 . S
C2344 C2347 1.403 . S
H2345 C2351 0.930 . S
C2346 H2332 0.930 . S
C2346 C2344 1.395 . S
C2346 C2349 1.403 . S
C2347 C2344 1.403 . S
C2347 C2348 1.524 . S
C2347 C2351 1.400 . S
C2348 H2333 0.960 . S
C2348 H2334 0.960 . S
C2348 H2335 0.960 . S
C2348 C2347 1.524 . S
C2349 C2346 1.403 . S
C2349 C2350 1.392 . S
C2349 C2353 1.495 . S
C2350 C2349 1.392 . S
C2350 C2351 1.385 . S
C2350 C2352 1.478 . S
C2351 H2345 0.930 . S
C2351 C2347 1.400 . S
C2351 C2350 1.385 . S
C2352 C2350 1.478 . S
C2352 C2354 1.381 . S
C2352 C2358 1.383 . S
C2353 C2349 1.495 . S
C2353 H2359 0.959 . S
C2353 H2360 0.961 . S
C2353 H2361 0.960 . S
C2354 C2352 1.381 . S
C2354 C2355 1.394 . S
C2354 H2362 0.930 . S
C2355 C2354 1.394 . S
C2355 C2356 1.383 . S
C2355 H2363 0.929 . S
C2356 C2355 1.383 . S
C2356 C2357 1.377 . S
C2357 H2341 0.930 . S
C2357 C2356 1.377 . S
C2357 C2358 1.379 . S
C2358 H2342 0.931 . S
C2358 C2352 1.383 . S
C2358 C2357 1.379 . S
H2359 C2353 0.959 . S
H2360 C2353 0.961 . S
H2361 C2353 0.960 . S
H2362 C2354 0.930 . S
H2363 C2355 0.929 . S
H2364 C2372 0.929 . S
H2365 C2374 0.930 . S
H2366 C2376 0.930 . S
H2367 C2379 0.929 . S
H2368 C2382 0.930 . S
H2369 C2384 0.960 . S
H2370 C2384 0.960 . S
H2371 C2384 0.960 . S
C2372 H2364 0.929 . S
C2372 C2373 1.377 . S
C2372 C2374 1.384 . S
C2373 C2372 1.377 . S
C2373 C2379 1.390 . S
C2374 H2365 0.930 . S
C2374 C2372 1.384 . S
C2374 C2375 1.372 . S
C2375 C2374 1.372 . S
C2375 C2376 1.400 . S
C2375 C2380 1.490 . S
C2376 H2366 0.930 . S
C2376 C2375 1.400 . S
C2376 C2379 1.386 . S
H2377 C2393 0.930 . S
H2378 C2394 0.931 . S
C2379 H2367 0.929 . S
C2379 C2373 1.390 . S
C2379 C2376 1.386 . S
C2380 C2375 1.490 . S
C2380 C2382 1.395 . S
C2380 C2383 1.403 . S
H2381 C2387 0.930 . S
C2382 H2368 0.930 . S
C2382 C2380 1.395 . S
C2382 C2385 1.403 . S
C2383 C2380 1.403 . S
C2383 C2384 1.524 . S
C2383 C2387 1.400 . S
C2384 H2369 0.960 . S
C2384 H2370 0.960 . S
C2384 H2371 0.960 . S
C2384 C2383 1.524 . S
C2385 C2382 1.403 . S
C2385 C2386 1.392 . S
C2385 C2389 1.495 . S
C2386 C2385 1.392 . S
C2386 C2387 1.385 . S
C2386 C2388 1.478 . S
C2387 H2381 0.930 . S
C2387 C2383 1.400 . S
C2387 C2386 1.385 . S
C2388 C2386 1.478 . S
C2388 C2390 1.381 . S
C2388 C2394 1.383 . S
C2389 C2385 1.495 . S
C2389 H2395 0.959 . S
C2389 H2396 0.961 . S
C2389 H2397 0.960 . S
C2390 C2388 1.381 . S
C2390 C2391 1.394 . S
C2390 H2398 0.930 . S
C2391 C2390 1.394 . S
C2391 C2392 1.383 . S
C2391 H2399 0.929 . S
C2392 C2391 1.383 . S
C2392 C2393 1.377 . S
C2393 H2377 0.930 . S
C2393 C2392 1.377 . S
C2393 C2394 1.379 . S
C2394 H2378 0.931 . S
C2394 C2388 1.383 . S
C2394 C2393 1.379 . S
H2395 C2389 0.959 . S
H2396 C2389 0.961 . S
H2397 C2389 0.960 . S
H2398 C2390 0.930 . S
H2399 C2391 0.929 . S
H2400 C2408 0.929 . S
H2401 C2410 0.930 . S
H2402 C2412 0.930 . S
H2403 C2415 0.929 . S
H2404 C2418 0.930 . S
H2405 C2420 0.960 . S
H2406 C2420 0.960 . S
H2407 C2420 0.960 . S
C2408 H2400 0.929 . S
C2408 C2409 1.377 . S
C2408 C2410 1.384 . S
C2409 C2408 1.377 . S
C2409 C2415 1.390 . S
C2410 H2401 0.930 . S
C2410 C2408 1.384 . S
C2410 C2411 1.372 . S
C2411 C2410 1.372 . S
C2411 C2412 1.400 . S
C2411 C2416 1.490 . S
C2412 H2402 0.930 . S
C2412 C2411 1.400 . S
C2412 C2415 1.386 . S
H2413 C2429 0.930 . S
H2414 C2430 0.931 . S
C2415 H2403 0.929 . S
C2415 C2409 1.390 . S
C2415 C2412 1.386 . S
C2416 C2411 1.490 . S
C2416 C2418 1.395 . S
C2416 C2419 1.403 . S
H2417 C2423 0.930 . S
C2418 H2404 0.930 . S
C2418 C2416 1.395 . S
C2418 C2421 1.403 . S
C2419 C2416 1.403 . S
C2419 C2420 1.524 . S
C2419 C2423 1.400 . S
C2420 H2405 0.960 . S
C2420 H2406 0.960 . S
C2420 H2407 0.960 . S
C2420 C2419 1.524 . S
C2421 C2418 1.403 . S
C2421 C2422 1.392 . S
C2421 C2425 1.495 . S
C2422 C2421 1.392 . S
C2422 C2423 1.385 . S
C2422 C2424 1.478 . S
C2423 H2417 0.930 . S
C2423 C2419 1.400 . S
C2423 C2422 1.385 . S
C2424 C2422 1.478 . S
C2424 C2426 1.381 . S
C2424 C2430 1.383 . S
C2425 C2421 1.495 . S
C2425 H2431 0.959 . S
C2425 H2432 0.961 . S
C2425 H2433 0.960 . S
C2426 C2424 1.381 . S
C2426 C2427 1.394 . S
C2426 H2434 0.930 . S
C2427 C2426 1.394 . S
C2427 C2428 1.383 . S
C2427 H2435 0.929 . S
C2428 C2427 1.383 . S
C2428 C2429 1.377 . S
C2429 H2413 0.930 . S
C2429 C2428 1.377 . S
C2429 C2430 1.379 . S
C2430 H2414 0.931 . S
C2430 C2424 1.383 . S
C2430 C2429 1.379 . S
H2431 C2425 0.959 . S
H2432 C2425 0.961 . S
H2433 C2425 0.960 . S
H2434 C2426 0.930 . S
H2435 C2427 0.929 . S
H2436 C2444 0.929 . S
H2437 C2446 0.930 . S
H2438 C2448 0.930 . S
H2439 C2451 0.929 . S
H2440 C2454 0.930 . S
H2441 C2456 0.960 . S
H2442 C2456 0.960 . S
H2443 C2456 0.960 . S
C2444 H2436 0.929 . S
C2444 C2445 1.377 . S
C2444 C2446 1.384 . S
C2445 C2444 1.377 . S
C2445 C2451 1.390 . S
C2446 H2437 0.930 . S
C2446 C2444 1.384 . S
C2446 C2447 1.372 . S
C2447 C2446 1.372 . S
C2447 C2448 1.400 . S
C2447 C2452 1.490 . S
C2448 H2438 0.930 . S
C2448 C2447 1.400 . S
C2448 C2451 1.386 . S
H2449 C2465 0.930 . S
H2450 C2466 0.931 . S
C2451 H2439 0.929 . S
C2451 C2445 1.390 . S
C2451 C2448 1.386 . S
C2452 C2447 1.490 . S
C2452 C2454 1.395 . S
C2452 C2455 1.403 . S
H2453 C2459 0.930 . S
C2454 H2440 0.930 . S
C2454 C2452 1.395 . S
C2454 C2457 1.403 . S
C2455 C2452 1.403 . S
C2455 C2456 1.524 . S
C2455 C2459 1.400 . S
C2456 H2441 0.960 . S
C2456 H2442 0.960 . S
C2456 H2443 0.960 . S
C2456 C2455 1.524 . S
C2457 C2454 1.403 . S
C2457 C2458 1.392 . S
C2457 C2461 1.495 . S
C2458 C2457 1.392 . S
C2458 C2459 1.385 . S
C2458 C2460 1.478 . S
C2459 H2453 0.930 . S
C2459 C2455 1.400 . S
C2459 C2458 1.385 . S
C2460 C2458 1.478 . S
C2460 C2462 1.381 . S
C2460 C2466 1.383 . S
C2461 C2457 1.495 . S
C2461 H2467 0.959 . S
C2461 H2468 0.961 . S
C2461 H2469 0.960 . S
C2462 C2460 1.381 . S
C2462 C2463 1.394 . S
C2462 H2470 0.930 . S
C2463 C2462 1.394 . S
C2463 C2464 1.383 . S
C2463 H2471 0.929 . S
C2464 C2463 1.383 . S
C2464 C2465 1.377 . S
C2465 H2449 0.930 . S
C2465 C2464 1.377 . S
C2465 C2466 1.379 . S
C2466 H2450 0.931 . S
C2466 C2460 1.383 . S
C2466 C2465 1.379 . S
H2467 C2461 0.959 . S
H2468 C2461 0.961 . S
H2469 C2461 0.960 . S
H2470 C2462 0.930 . S
H2471 C2463 0.929 . S
H2472 C2480 0.929 . S
H2473 C2482 0.930 . S
H2474 C2484 0.930 . S
H2475 C2487 0.929 . S
H2476 C2490 0.930 . S
H2477 C2492 0.960 . S
H2478 C2492 0.960 . S
H2479 C2492 0.960 . S
C2480 H2472 0.929 . S
C2480 C2481 1.377 . S
C2480 C2482 1.384 . S
C2481 C2480 1.377 . S
C2481 C2487 1.390 . S
C2482 H2473 0.930 . S
C2482 C2480 1.384 . S
C2482 C2483 1.372 . S
C2483 C2482 1.372 . S
C2483 C2484 1.400 . S
C2483 C2488 1.490 . S
C2484 H2474 0.930 . S
C2484 C2483 1.400 . S
C2484 C2487 1.386 . S
H2485 C2501 0.930 . S
H2486 C2502 0.931 . S
C2487 H2475 0.929 . S
C2487 C2481 1.390 . S
C2487 C2484 1.386 . S
C2488 C2483 1.490 . S
C2488 C2490 1.395 . S
C2488 C2491 1.403 . S
H2489 C2495 0.930 . S
C2490 H2476 0.930 . S
C2490 C2488 1.395 . S
C2490 C2493 1.403 . S
C2491 C2488 1.403 . S
C2491 C2492 1.524 . S
C2491 C2495 1.400 . S
C2492 H2477 0.960 . S
C2492 H2478 0.960 . S
C2492 H2479 0.960 . S
C2492 C2491 1.524 . S
C2493 C2490 1.403 . S
C2493 C2494 1.392 . S
C2493 C2497 1.495 . S
C2494 C2493 1.392 . S
C2494 C2495 1.385 . S
C2494 C2496 1.478 . S
C2495 H2489 0.930 . S
C2495 C2491 1.400 . S
C2495 C2494 1.385 . S
C2496 C2494 1.478 . S
C2496 C2498 1.381 . S
C2496 C2502 1.383 . S
C2497 C2493 1.495 . S
C2497 H2503 0.959 . S
C2497 H2504 0.961 . S
C2497 H2505 0.960 . S
C2498 C2496 1.381 . S
C2498 C2499 1.394 . S
C2498 H2506 0.930 . S
C2499 C2498 1.394 . S
C2499 C2500 1.383 . S
C2499 H2507 0.929 . S
C2500 C2499 1.383 . S
C2500 C2501 1.377 . S
C2501 H2485 0.930 . S
C2501 C2500 1.377 . S
C2501 C2502 1.379 . S
C2502 H2486 0.931 . S
C2502 C2496 1.383 . S
C2502 C2501 1.379 . S
H2503 C2497 0.959 . S
H2504 C2497 0.961 . S
H2505 C2497 0.960 . S
H2506 C2498 0.930 . S
H2507 C2499 0.929 . S
H2508 C2516 0.929 . S
H2509 C2518 0.930 . S
H2510 C2520 0.930 . S
H2511 C2523 0.929 . S
H2512 C2526 0.930 . S
H2513 C2528 0.960 . S
H2514 C2528 0.960 . S
H2515 C2528 0.960 . S
C2516 H2508 0.929 . S
C2516 C2517 1.377 . S
C2516 C2518 1.384 . S
C2517 C2516 1.377 . S
C2517 C2523 1.390 . S
C2518 H2509 0.930 . S
C2518 C2516 1.384 . S
C2518 C2519 1.372 . S
C2519 C2518 1.372 . S
C2519 C2520 1.400 . S
C2519 C2524 1.490 . S
C2520 H2510 0.930 . S
C2520 C2519 1.400 . S
C2520 C2523 1.386 . S
H2521 C2537 0.930 . S
H2522 C2538 0.931 . S
C2523 H2511 0.929 . S
C2523 C2517 1.390 . S
C2523 C2520 1.386 . S
C2524 C2519 1.490 . S
C2524 C2526 1.395 . S
C2524 C2527 1.403 . S
H2525 C2531 0.930 . S
C2526 H2512 0.930 . S
C2526 C2524 1.395 . S
C2526 C2529 1.403 . S
C2527 C2524 1.403 . S
C2527 C2528 1.524 . S
C2527 C2531 1.400 . S
C2528 H2513 0.960 . S
C2528 H2514 0.960 . S
C2528 H2515 0.960 . S
C2528 C2527 1.524 . S
C2529 C2526 1.403 . S
C2529 C2530 1.392 . S
C2529 C2533 1.495 . S
C2530 C2529 1.392 . S
C2530 C2531 1.385 . S
C2530 C2532 1.478 . S
C2531 H2525 0.930 . S
C2531 C2527 1.400 . S
C2531 C2530 1.385 . S
C2532 C2530 1.478 . S
C2532 C2534 1.381 . S
C2532 C2538 1.383 . S
C2533 C2529 1.495 . S
C2533 H2539 0.959 . S
C2533 H2540 0.961 . S
C2533 H2541 0.960 . S
C2534 C2532 1.381 . S
C2534 C2535 1.394 . S
C2534 H2542 0.930 . S
C2535 C2534 1.394 . S
C2535 C2536 1.383 . S
C2535 H2543 0.929 . S
C2536 C2535 1.383 . S
C2536 C2537 1.377 . S
C2537 H2521 0.930 . S
C2537 C2536 1.377 . S
C2537 C2538 1.379 . S
C2538 H2522 0.931 . S
C2538 C2532 1.383 . S
C2538 C2537 1.379 . S
H2539 C2533 0.959 . S
H2540 C2533 0.961 . S
H2541 C2533 0.960 . S
H2542 C2534 0.930 . S
H2543 C2535 0.929 . S
H2544 C2552 0.929 . S
H2545 C2554 0.930 . S
H2546 C2556 0.930 . S
H2547 C2559 0.929 . S
H2548 C2562 0.930 . S
H2549 C2564 0.960 . S
H2550 C2564 0.960 . S
H2551 C2564 0.960 . S
C2552 H2544 0.929 . S
C2552 C2553 1.377 . S
C2552 C2554 1.384 . S
C2553 C2552 1.377 . S
C2553 C2559 1.390 . S
C2554 H2545 0.930 . S
C2554 C2552 1.384 . S
C2554 C2555 1.372 . S
C2555 C2554 1.372 . S
C2555 C2556 1.400 . S
C2555 C2560 1.490 . S
C2556 H2546 0.930 . S
C2556 C2555 1.400 . S
C2556 C2559 1.386 . S
H2557 C2573 0.930 . S
H2558 C2574 0.931 . S
C2559 H2547 0.929 . S
C2559 C2553 1.390 . S
C2559 C2556 1.386 . S
C2560 C2555 1.490 . S
C2560 C2562 1.395 . S
C2560 C2563 1.403 . S
H2561 C2567 0.930 . S
C2562 H2548 0.930 . S
C2562 C2560 1.395 . S
C2562 C2565 1.403 . S
C2563 C2560 1.403 . S
C2563 C2564 1.524 . S
C2563 C2567 1.400 . S
C2564 H2549 0.960 . S
C2564 H2550 0.960 . S
C2564 H2551 0.960 . S
C2564 C2563 1.524 . S
C2565 C2562 1.403 . S
C2565 C2566 1.392 . S
C2565 C2569 1.495 . S
C2566 C2565 1.392 . S
C2566 C2567 1.385 . S
C2566 C2568 1.478 . S
C2567 H2561 0.930 . S
C2567 C2563 1.400 . S
C2567 C2566 1.385 . S
C2568 C2566 1.478 . S
C2568 C2570 1.381 . S
C2568 C2574 1.383 . S
C2569 C2565 1.495 . S
C2569 H2575 0.959 . S
C2569 H2576 0.961 . S
C2569 H2577 0.959 1_455 S
C2570 C2568 1.381 . S
C2570 C2571 1.394 . S
C2570 H2578 0.930 . S
C2571 C2570 1.394 . S
C2571 C2572 1.383 . S
C2571 H2579 0.929 . S
C2572 C2571 1.383 . S
C2572 C2573 1.377 . S
C2573 H2557 0.930 . S
C2573 C2572 1.377 . S
C2573 C2574 1.379 . S
C2574 H2558 0.931 . S
C2574 C2568 1.383 . S
C2574 C2573 1.379 . S
H2575 C2569 0.959 . S
H2576 C2569 0.961 . S
H2577 C2569 0.959 1_655 S
H2578 C2570 0.930 . S
H2579 C2571 0.929 . S
H2580 C2588 0.929 . S
H2581 C2590 0.930 . S
H2582 C2592 0.930 . S
H2583 C2595 0.929 . S
H2584 C2598 0.930 . S
H2585 C2600 0.960 . S
H2586 C2600 0.960 . S
H2587 C2600 0.960 . S
C2588 H2580 0.929 . S
C2588 C2589 1.377 . S
C2588 C2590 1.384 . S
C2589 C2588 1.377 . S
C2589 C2595 1.390 . S
C2590 H2581 0.930 . S
C2590 C2588 1.384 . S
C2590 C2591 1.372 . S
C2591 C2590 1.372 . S
C2591 C2592 1.400 . S
C2591 C2596 1.490 . S
C2592 H2582 0.930 . S
C2592 C2591 1.400 . S
C2592 C2595 1.386 . S
H2593 C2609 0.930 . S
H2594 C2610 0.931 . S
C2595 H2583 0.929 . S
C2595 C2589 1.390 . S
C2595 C2592 1.386 . S
C2596 C2591 1.490 . S
C2596 C2598 1.395 . S
C2596 C2599 1.403 . S
H2597 C2603 0.930 . S
C2598 H2584 0.930 . S
C2598 C2596 1.395 . S
C2598 C2601 1.403 . S
C2599 C2596 1.403 . S
C2599 C2600 1.524 . S
C2599 C2603 1.400 . S
C2600 H2585 0.960 . S
C2600 H2586 0.960 . S
C2600 H2587 0.960 . S
C2600 C2599 1.524 . S
C2601 C2598 1.403 . S
C2601 C2602 1.392 . S
C2601 C2605 1.495 . S
C2602 C2601 1.392 . S
C2602 C2603 1.385 . S
C2602 C2604 1.478 . S
C2603 H2597 0.930 . S
C2603 C2599 1.400 . S
C2603 C2602 1.385 . S
C2604 C2602 1.478 . S
C2604 C2606 1.381 . S
C2604 C2610 1.383 . S
C2605 C2601 1.495 . S
C2605 H2611 0.959 . S
C2605 H2612 0.961 . S
C2605 H2613 0.960 . S
C2606 C2604 1.381 . S
C2606 C2607 1.394 . S
C2606 H2614 0.930 . S
C2607 C2606 1.394 . S
C2607 C2608 1.383 . S
C2607 H2615 0.929 . S
C2608 C2607 1.383 . S
C2608 C2609 1.377 . S
C2609 H2593 0.930 . S
C2609 C2608 1.377 . S
C2609 C2610 1.379 . S
C2610 H2594 0.931 . S
C2610 C2604 1.383 . S
C2610 C2609 1.379 . S
H2611 C2605 0.959 . S
H2612 C2605 0.961 . S
H2613 C2605 0.960 . S
H2614 C2606 0.930 . S
H2615 C2607 0.929 . S
H2616 C2624 0.929 . S
H2617 C2626 0.930 . S
H2618 C2628 0.930 . S
H2619 C2631 0.929 . S
H2620 C2634 0.930 . S
H2621 C2636 0.960 . S
H2622 C2636 0.960 . S
H2623 C2636 0.960 . S
C2624 H2616 0.929 . S
C2624 C2625 1.377 . S
C2624 C2626 1.384 . S
C2625 C2624 1.377 . S
C2625 C2631 1.390 . S
C2626 H2617 0.930 . S
C2626 C2624 1.384 . S
C2626 C2627 1.372 . S
C2627 C2626 1.372 . S
C2627 C2628 1.400 . S
C2627 C2632 1.490 . S
C2628 H2618 0.930 . S
C2628 C2627 1.400 . S
C2628 C2631 1.386 . S
H2629 C2645 0.930 . S
H2630 C2646 0.931 . S
C2631 H2619 0.929 . S
C2631 C2625 1.390 . S
C2631 C2628 1.386 . S
C2632 C2627 1.490 . S
C2632 C2634 1.395 . S
C2632 C2635 1.403 . S
H2633 C2639 0.930 . S
C2634 H2620 0.930 . S
C2634 C2632 1.395 . S
C2634 C2637 1.403 . S
C2635 C2632 1.403 . S
C2635 C2636 1.524 . S
C2635 C2639 1.400 . S
C2636 H2621 0.960 . S
C2636 H2622 0.960 . S
C2636 H2623 0.960 . S
C2636 C2635 1.524 . S
C2637 C2634 1.403 . S
C2637 C2638 1.392 . S
C2637 C2641 1.495 . S
C2638 C2637 1.392 . S
C2638 C2639 1.385 . S
C2638 C2640 1.478 . S
C2639 H2633 0.930 . S
C2639 C2635 1.400 . S
C2639 C2638 1.385 . S
C2640 C2638 1.478 . S
C2640 C2642 1.381 . S
C2640 C2646 1.383 . S
C2641 C2637 1.495 . S
C2641 H2647 0.959 . S
C2641 H2648 0.961 . S
C2641 H2649 0.960 . S
C2642 C2640 1.381 . S
C2642 C2643 1.394 . S
C2642 H2650 0.930 . S
C2643 C2642 1.394 . S
C2643 C2644 1.383 . S
C2643 H2651 0.929 . S
C2644 C2643 1.383 . S
C2644 C2645 1.377 . S
C2645 H2629 0.930 . S
C2645 C2644 1.377 . S
C2645 C2646 1.379 . S
C2646 H2630 0.931 . S
C2646 C2640 1.383 . S
C2646 C2645 1.379 . S
H2647 C2641 0.959 . S
H2648 C2641 0.961 . S
H2649 C2641 0.960 . S
H2650 C2642 0.930 . S
H2651 C2643 0.929 . S
H2652 C2660 0.929 . S
H2653 C2662 0.930 . S
H2654 C2664 0.930 . S
H2655 C2667 0.929 . S
H2656 C2670 0.930 . S
H2657 C2672 0.960 . S
H2658 C2672 0.960 . S
H2659 C2672 0.960 . S
C2660 H2652 0.929 . S
C2660 C2661 1.377 . S
C2660 C2662 1.384 . S
C2661 C2660 1.377 . S
C2661 C2667 1.390 . S
C2662 H2653 0.930 . S
C2662 C2660 1.384 . S
C2662 C2663 1.372 . S
C2663 C2662 1.372 . S
C2663 C2664 1.400 . S
C2663 C2668 1.490 . S
C2664 H2654 0.930 . S
C2664 C2663 1.400 . S
C2664 C2667 1.386 . S
H2665 C2681 0.930 . S
H2666 C2682 0.931 . S
C2667 H2655 0.929 . S
C2667 C2661 1.390 . S
C2667 C2664 1.386 . S
C2668 C2663 1.490 . S
C2668 C2670 1.395 . S
C2668 C2671 1.403 . S
H2669 C2675 0.930 . S
C2670 H2656 0.930 . S
C2670 C2668 1.395 . S
C2670 C2673 1.403 . S
C2671 C2668 1.403 . S
C2671 C2672 1.524 . S
C2671 C2675 1.400 . S
C2672 H2657 0.960 . S
C2672 H2658 0.960 . S
C2672 H2659 0.960 . S
C2672 C2671 1.524 . S
C2673 C2670 1.403 . S
C2673 C2674 1.392 . S
C2673 C2677 1.495 . S
C2674 C2673 1.392 . S
C2674 C2675 1.385 . S
C2674 C2676 1.478 . S
C2675 H2669 0.930 . S
C2675 C2671 1.400 . S
C2675 C2674 1.385 . S
C2676 C2674 1.478 . S
C2676 C2678 1.381 . S
C2676 C2682 1.383 . S
C2677 C2673 1.495 . S
C2677 H2683 0.959 . S
C2677 H2684 0.961 . S
C2677 H2685 0.960 . S
C2678 C2676 1.381 . S
C2678 C2679 1.394 . S
C2678 H2686 0.930 . S
C2679 C2678 1.394 . S
C2679 C2680 1.383 . S
C2679 H2687 0.929 . S
C2680 C2679 1.383 . S
C2680 C2681 1.377 . S
C2681 H2665 0.930 . S
C2681 C2680 1.377 . S
C2681 C2682 1.379 . S
C2682 H2666 0.931 . S
C2682 C2676 1.383 . S
C2682 C2681 1.379 . S
H2683 C2677 0.959 . S
H2684 C2677 0.961 . S
H2685 C2677 0.960 . S
H2686 C2678 0.930 . S
H2687 C2679 0.929 . S
H2688 C2696 0.929 . S
H2689 C2698 0.930 . S
H2690 C2700 0.930 . S
H2691 C2703 0.929 . S
H2692 C2706 0.930 . S
H2693 C2708 0.960 . S
H2694 C2708 0.960 . S
H2695 C2708 0.960 . S
C2696 H2688 0.929 . S
C2696 C2697 1.377 . S
C2696 C2698 1.384 . S
C2697 C2696 1.377 . S
C2697 C2703 1.390 . S
C2698 H2689 0.930 . S
C2698 C2696 1.384 . S
C2698 C2699 1.372 . S
C2699 C2698 1.372 . S
C2699 C2700 1.400 . S
C2699 C2704 1.490 . S
C2700 H2690 0.930 . S
C2700 C2699 1.400 . S
C2700 C2703 1.386 . S
H2701 C2717 0.930 . S
H2702 C2718 0.931 . S
C2703 H2691 0.929 . S
C2703 C2697 1.390 . S
C2703 C2700 1.386 . S
C2704 C2699 1.490 . S
C2704 C2706 1.395 . S
C2704 C2707 1.403 . S
H2705 C2711 0.930 . S
C2706 H2692 0.930 . S
C2706 C2704 1.395 . S
C2706 C2709 1.403 . S
C2707 C2704 1.403 . S
C2707 C2708 1.524 . S
C2707 C2711 1.400 . S
C2708 H2693 0.960 . S
C2708 H2694 0.960 . S
C2708 H2695 0.960 . S
C2708 C2707 1.524 . S
C2709 C2706 1.403 . S
C2709 C2710 1.392 . S
C2709 C2713 1.495 . S
C2710 C2709 1.392 . S
C2710 C2711 1.385 . S
C2710 C2712 1.478 . S
C2711 H2705 0.930 . S
C2711 C2707 1.400 . S
C2711 C2710 1.385 . S
C2712 C2710 1.478 . S
C2712 C2714 1.381 . S
C2712 C2718 1.383 . S
C2713 C2709 1.495 . S
C2713 H2719 0.959 . S
C2713 H2720 0.961 . S
C2713 H2721 0.960 . S
C2714 C2712 1.381 . S
C2714 C2715 1.394 . S
C2714 H2722 0.930 . S
C2715 C2714 1.394 . S
C2715 C2716 1.383 . S
C2715 H2723 0.929 . S
C2716 C2715 1.383 . S
C2716 C2717 1.377 . S
C2717 H2701 0.930 . S
C2717 C2716 1.377 . S
C2717 C2718 1.379 . S
C2718 H2702 0.931 . S
C2718 C2712 1.383 . S
C2718 C2717 1.379 . S
H2719 C2713 0.959 . S
H2720 C2713 0.961 . S
H2721 C2713 0.960 . S
H2722 C2714 0.930 . S
H2723 C2715 0.929 . S
H2724 C2732 0.929 . S
H2725 C2734 0.930 . S
H2726 C2736 0.930 . S
H2727 C2739 0.929 . S
H2728 C2742 0.930 . S
H2729 C2744 0.960 . S
H2730 C2744 0.960 . S
H2731 C2744 0.960 . S
C2732 H2724 0.929 . S
C2732 C2733 1.377 . S
C2732 C2734 1.384 . S
C2733 C2732 1.377 . S
C2733 C2739 1.390 . S
C2734 H2725 0.930 . S
C2734 C2732 1.384 . S
C2734 C2735 1.372 . S
C2735 C2734 1.372 . S
C2735 C2736 1.400 . S
C2735 C2740 1.490 . S
C2736 H2726 0.930 . S
C2736 C2735 1.400 . S
C2736 C2739 1.386 . S
H2737 C2753 0.930 . S
H2738 C2754 0.931 . S
C2739 H2727 0.929 . S
C2739 C2733 1.390 . S
C2739 C2736 1.386 . S
C2740 C2735 1.490 . S
C2740 C2742 1.395 . S
C2740 C2743 1.403 . S
H2741 C2747 0.930 . S
C2742 H2728 0.930 . S
C2742 C2740 1.395 . S
C2742 C2745 1.403 . S
C2743 C2740 1.403 . S
C2743 C2744 1.524 . S
C2743 C2747 1.400 . S
C2744 H2729 0.960 . S
C2744 H2730 0.960 . S
C2744 H2731 0.960 . S
C2744 C2743 1.524 . S
C2745 C2742 1.403 . S
C2745 C2746 1.392 . S
C2745 C2749 1.495 . S
C2746 C2745 1.392 . S
C2746 C2747 1.385 . S
C2746 C2748 1.478 . S
C2747 H2741 0.930 . S
C2747 C2743 1.400 . S
C2747 C2746 1.385 . S
C2748 C2746 1.478 . S
C2748 C2750 1.381 . S
C2748 C2754 1.383 . S
C2749 C2745 1.495 . S
C2749 H2755 0.959 . S
C2749 H2756 0.961 . S
C2749 H2757 0.960 . S
C2750 C2748 1.381 . S
C2750 C2751 1.394 . S
C2750 H2758 0.930 . S
C2751 C2750 1.394 . S
C2751 C2752 1.383 . S
C2751 H2759 0.929 . S
C2752 C2751 1.383 . S
C2752 C2753 1.377 . S
C2753 H2737 0.930 . S
C2753 C2752 1.377 . S
C2753 C2754 1.379 . S
C2754 H2738 0.931 . S
C2754 C2748 1.383 . S
C2754 C2753 1.379 . S
H2755 C2749 0.959 . S
H2756 C2749 0.961 . S
H2757 C2749 0.960 . S
H2758 C2750 0.930 . S
H2759 C2751 0.929 . S
H2760 C2768 0.929 . S
H2761 C2770 0.930 . S
H2762 C2772 0.930 . S
H2763 C2775 0.929 . S
H2764 C2778 0.930 . S
H2765 C2780 0.960 . S
H2766 C2780 0.960 . S
H2767 C2780 0.960 . S
C2768 H2760 0.929 . S
C2768 C2769 1.377 . S
C2768 C2770 1.384 . S
C2769 C2768 1.377 . S
C2769 C2775 1.390 . S
C2770 H2761 0.930 . S
C2770 C2768 1.384 . S
C2770 C2771 1.372 . S
C2771 C2770 1.372 . S
C2771 C2772 1.400 . S
C2771 C2776 1.490 . S
C2772 H2762 0.930 . S
C2772 C2771 1.400 . S
C2772 C2775 1.386 . S
H2773 C2789 0.930 . S
H2774 C2790 0.931 . S
C2775 H2763 0.929 . S
C2775 C2769 1.390 . S
C2775 C2772 1.386 . S
C2776 C2771 1.490 . S
C2776 C2778 1.395 . S
C2776 C2779 1.403 . S
H2777 C2783 0.930 . S
C2778 H2764 0.930 . S
C2778 C2776 1.395 . S
C2778 C2781 1.403 . S
C2779 C2776 1.403 . S
C2779 C2780 1.524 . S
C2779 C2783 1.400 . S
C2780 H2765 0.960 . S
C2780 H2766 0.960 . S
C2780 H2767 0.960 . S
C2780 C2779 1.524 . S
C2781 C2778 1.403 . S
C2781 C2782 1.392 . S
C2781 C2785 1.495 . S
C2782 C2781 1.392 . S
C2782 C2783 1.385 . S
C2782 C2784 1.478 . S
C2783 H2777 0.930 . S
C2783 C2779 1.400 . S
C2783 C2782 1.385 . S
C2784 C2782 1.478 . S
C2784 C2786 1.381 . S
C2784 C2790 1.383 . S
C2785 C2781 1.495 . S
C2785 H2791 0.959 . S
C2785 H2792 0.961 . S
C2785 H2793 0.960 . S
C2786 C2784 1.381 . S
C2786 C2787 1.394 . S
C2786 H2794 0.930 . S
C2787 C2786 1.394 . S
C2787 C2788 1.383 1_556 S
C2787 H2795 0.929 . S
C2788 C2787 1.383 1_554 S
C2788 C2789 1.377 . S
C2789 H2773 0.930 . S
C2789 C2788 1.377 . S
C2789 C2790 1.379 1_554 S
C2790 H2774 0.931 . S
C2790 C2784 1.383 . S
C2790 C2789 1.379 1_556 S
H2791 C2785 0.959 . S
H2792 C2785 0.961 . S
H2793 C2785 0.960 . S
H2794 C2786 0.930 . S
H2795 C2787 0.929 . S
H2796 C2804 0.929 . S
H2797 C2806 0.930 . S
H2798 C2808 0.930 . S
H2799 C2811 0.929 . S
H2800 C2814 0.930 . S
H2801 C2816 0.960 . S
H2802 C2816 0.960 . S
H2803 C2816 0.960 . S
C2804 H2796 0.929 . S
C2804 C2805 1.377 . S
C2804 C2806 1.384 . S
C2805 C2804 1.377 . S
C2805 C2811 1.390 . S
C2806 H2797 0.930 . S
C2806 C2804 1.384 . S
C2806 C2807 1.372 . S
C2807 C2806 1.372 . S
C2807 C2808 1.400 . S
C2807 C2812 1.490 . S
C2808 H2798 0.930 . S
C2808 C2807 1.400 . S
C2808 C2811 1.386 . S
H2809 C2825 0.930 . S
H2810 C2826 0.931 . S
C2811 H2799 0.929 . S
C2811 C2805 1.390 . S
C2811 C2808 1.386 . S
C2812 C2807 1.490 . S
C2812 C2814 1.395 . S
C2812 C2815 1.403 . S
H2813 C2819 0.930 . S
C2814 H2800 0.930 . S
C2814 C2812 1.395 . S
C2814 C2817 1.403 . S
C2815 C2812 1.403 . S
C2815 C2816 1.524 . S
C2815 C2819 1.400 . S
C2816 H2801 0.960 . S
C2816 H2802 0.960 . S
C2816 H2803 0.960 . S
C2816 C2815 1.524 . S
C2817 C2814 1.403 . S
C2817 C2818 1.392 . S
C2817 C2821 1.495 . S
C2818 C2817 1.392 . S
C2818 C2819 1.385 . S
C2818 C2820 1.478 . S
C2819 H2813 0.930 . S
C2819 C2815 1.400 . S
C2819 C2818 1.385 . S
C2820 C2818 1.478 . S
C2820 C2822 1.381 . S
C2820 C2826 1.383 . S
C2821 C2817 1.495 . S
C2821 H2827 0.959 . S
C2821 H2828 0.961 . S
C2821 H2829 0.960 . S
C2822 C2820 1.381 . S
C2822 C2823 1.394 . S
C2822 H2830 0.930 . S
C2823 C2822 1.394 . S
C2823 C2824 1.383 . S
C2823 H2831 0.929 . S
C2824 C2823 1.383 . S
C2824 C2825 1.377 . S
C2825 H2809 0.930 . S
C2825 C2824 1.377 . S
C2825 C2826 1.379 . S
C2826 H2810 0.931 . S
C2826 C2820 1.383 . S
C2826 C2825 1.379 . S
H2827 C2821 0.959 . S
H2828 C2821 0.961 . S
H2829 C2821 0.960 . S
H2830 C2822 0.930 . S
H2831 C2823 0.929 . S
H2832 C2840 0.929 . S
H2833 C2842 0.930 . S
H2834 C2844 0.930 . S
H2835 C2847 0.929 . S
H2836 C2850 0.930 . S
H2837 C2852 0.960 . S
H2838 C2852 0.960 . S
H2839 C2852 0.960 . S
C2840 H2832 0.929 . S
C2840 C2841 1.377 . S
C2840 C2842 1.384 . S
C2841 C2840 1.377 . S
C2841 C2847 1.390 . S
C2842 H2833 0.930 . S
C2842 C2840 1.384 . S
C2842 C2843 1.372 . S
C2843 C2842 1.372 . S
C2843 C2844 1.400 . S
C2843 C2848 1.490 . S
C2844 H2834 0.930 . S
C2844 C2843 1.400 . S
C2844 C2847 1.386 . S
H2845 C2861 0.930 . S
H2846 C2862 0.931 . S
C2847 H2835 0.929 . S
C2847 C2841 1.390 . S
C2847 C2844 1.386 . S
C2848 C2843 1.490 . S
C2848 C2850 1.395 . S
C2848 C2851 1.403 . S
H2849 C2855 0.930 . S
C2850 H2836 0.930 . S
C2850 C2848 1.395 . S
C2850 C2853 1.403 . S
C2851 C2848 1.403 . S
C2851 C2852 1.524 . S
C2851 C2855 1.400 . S
C2852 H2837 0.960 . S
C2852 H2838 0.960 . S
C2852 H2839 0.960 . S
C2852 C2851 1.524 . S
C2853 C2850 1.403 . S
C2853 C2854 1.392 . S
C2853 C2857 1.495 1_545 S
C2854 C2853 1.392 . S
C2854 C2855 1.385 . S
C2854 C2856 1.478 . S
C2855 H2849 0.930 . S
C2855 C2851 1.400 . S
C2855 C2854 1.385 . S
C2856 C2854 1.478 . S
C2856 C2858 1.381 . S
C2856 C2862 1.383 . S
C2857 C2853 1.495 1_565 S
C2857 H2863 0.959 . S
C2857 H2864 0.961 . S
C2857 H2865 0.960 . S
C2858 C2856 1.381 . S
C2858 C2859 1.394 . S
C2858 H2866 0.930 . S
C2859 C2858 1.394 . S
C2859 C2860 1.383 . S
C2859 H2867 0.929 . S
C2860 C2859 1.383 . S
C2860 C2861 1.377 . S
C2861 H2845 0.930 . S
C2861 C2860 1.377 . S
C2861 C2862 1.379 . S
C2862 H2846 0.931 . S
C2862 C2856 1.383 . S
C2862 C2861 1.379 . S
H2863 C2857 0.959 . S
H2864 C2857 0.961 . S
H2865 C2857 0.960 . S
H2866 C2858 0.930 . S
H2867 C2859 0.929 . S
H2868 C2876 0.929 . S
H2869 C2878 0.930 . S
H2870 C2880 0.930 . S
H2871 C2883 0.929 . S
H2872 C2886 0.930 . S
H2873 C2888 0.960 . S
H2874 C2888 0.960 . S
H2875 C2888 0.960 . S
C2876 H2868 0.929 . S
C2876 C2877 1.377 . S
C2876 C2878 1.384 . S
C2877 C2876 1.377 . S
C2877 C2883 1.390 . S
C2878 H2869 0.930 . S
C2878 C2876 1.384 . S
C2878 C2879 1.372 . S
C2879 C2878 1.372 . S
C2879 C2880 1.400 . S
C2879 C2884 1.490 . S
C2880 H2870 0.930 . S
C2880 C2879 1.400 . S
C2880 C2883 1.386 . S
H2881 C2897 0.930 . S
H2882 C2898 0.931 . S
C2883 H2871 0.929 . S
C2883 C2877 1.390 . S
C2883 C2880 1.386 . S
C2884 C2879 1.490 . S
C2884 C2886 1.395 . S
C2884 C2887 1.403 . S
H2885 C2891 0.930 . S
C2886 H2872 0.930 . S
C2886 C2884 1.395 . S
C2886 C2889 1.403 . S
C2887 C2884 1.403 . S
C2887 C2888 1.524 . S
C2887 C2891 1.400 . S
C2888 H2873 0.960 . S
C2888 H2874 0.960 . S
C2888 H2875 0.960 . S
C2888 C2887 1.524 . S
C2889 C2886 1.403 . S
C2889 C2890 1.392 . S
C2889 C2893 1.495 . S
C2890 C2889 1.392 . S
C2890 C2891 1.385 . S
C2890 C2892 1.478 . S
C2891 H2885 0.930 . S
C2891 C2887 1.400 . S
C2891 C2890 1.385 . S
C2892 C2890 1.478 . S
C2892 C2894 1.381 . S
C2892 C2898 1.383 . S
C2893 C2889 1.495 . S
C2893 H2899 0.959 . S
C2893 H2900 0.961 . S
C2893 H2901 0.960 . S
C2894 C2892 1.381 . S
C2894 C2895 1.394 . S
C2894 H2902 0.930 . S
C2895 C2894 1.394 . S
C2895 C2896 1.383 . S
C2895 H2903 0.929 . S
C2896 C2895 1.383 . S
C2896 C2897 1.377 . S
C2897 H2881 0.930 . S
C2897 C2896 1.377 . S
C2897 C2898 1.379 . S
C2898 H2882 0.931 . S
C2898 C2892 1.383 . S
C2898 C2897 1.379 . S
H2899 C2893 0.959 . S
H2900 C2893 0.961 . S
H2901 C2893 0.960 . S
H2902 C2894 0.930 . S
H2903 C2895 0.929 . S
H2904 C2912 0.929 . S
H2905 C2914 0.930 . S
H2906 C2916 0.930 . S
H2907 C2919 0.929 . S
H2908 C2922 0.930 1_565 S
H2909 C2924 0.960 . S
H2910 C2924 0.960 . S
H2911 C2924 0.960 . S
C2912 H2904 0.929 . S
C2912 C2913 1.377 1_565 S
C2912 C2914 1.384 . S
C2913 C2912 1.377 1_545 S
C2913 C2919 1.390 . S
C2914 H2905 0.930 . S
C2914 C2912 1.384 . S
C2914 C2915 1.372 1_565 S
C2915 C2914 1.372 1_545 S
C2915 C2916 1.400 . S
C2915 C2920 1.490 . S
C2916 H2906 0.930 . S
C2916 C2915 1.400 . S
C2916 C2919 1.386 . S
H2917 C2933 0.930 . S
H2918 C2934 0.931 . S
C2919 H2907 0.929 . S
C2919 C2913 1.390 . S
C2919 C2916 1.386 . S
C2920 C2915 1.490 . S
C2920 C2922 1.395 . S
C2920 C2923 1.403 . S
H2921 C2927 0.930 . S
C2922 H2908 0.930 1_545 S
C2922 C2920 1.395 . S
C2922 C2925 1.403 . S
C2923 C2920 1.403 . S
C2923 C2924 1.524 . S
C2923 C2927 1.400 . S
C2924 H2909 0.960 . S
C2924 H2910 0.960 . S
C2924 H2911 0.960 . S
C2924 C2923 1.524 . S
C2925 C2922 1.403 . S
C2925 C2926 1.392 . S
C2925 C2929 1.495 1_545 S
C2926 C2925 1.392 . S
C2926 C2927 1.385 . S
C2926 C2928 1.478 . S
C2927 H2921 0.930 . S
C2927 C2923 1.400 . S
C2927 C2926 1.385 . S
C2928 C2926 1.478 . S
C2928 C2930 1.381 . S
C2928 C2934 1.383 . S
C2929 C2925 1.495 1_565 S
C2929 H2935 0.959 . S
C2929 H2936 0.961 1_565 S
C2929 H2937 0.960 . S
C2930 C2928 1.381 . S
C2930 C2931 1.394 . S
C2930 H2938 0.930 1_545 S
C2931 C2930 1.394 . S
C2931 C2932 1.383 . S
C2931 H2939 0.929 1_545 S
C2932 C2931 1.383 . S
C2932 C2933 1.377 . S
C2933 H2917 0.930 . S
C2933 C2932 1.377 . S
C2933 C2934 1.379 . S
C2934 H2918 0.931 . S
C2934 C2928 1.383 . S
C2934 C2933 1.379 . S
H2935 C2929 0.959 . S
H2936 C2929 0.961 1_545 S
H2937 C2929 0.960 . S
H2938 C2930 0.930 1_565 S
H2939 C2931 0.929 1_565 S
H2940 C2948 0.929 . S
H2941 C2950 0.930 . S
H2942 C2952 0.930 . S
H2943 C2955 0.929 . S
H2944 C2958 0.930 . S
H2945 C2960 0.960 . S
H2946 C2960 0.960 . S
H2947 C2960 0.960 . S
C2948 H2940 0.929 . S
C2948 C2949 1.377 . S
C2948 C2950 1.384 . S
C2949 C2948 1.377 . S
C2949 C2955 1.390 . S
C2950 H2941 0.930 . S
C2950 C2948 1.384 . S
C2950 C2951 1.372 . S
C2951 C2950 1.372 . S
C2951 C2952 1.400 . S
C2951 C2956 1.490 . S
C2952 H2942 0.930 . S
C2952 C2951 1.400 . S
C2952 C2955 1.386 . S
H2953 C2969 0.930 . S
H2954 C2970 0.931 . S
C2955 H2943 0.929 . S
C2955 C2949 1.390 . S
C2955 C2952 1.386 . S
C2956 C2951 1.490 . S
C2956 C2958 1.395 . S
C2956 C2959 1.403 . S
H2957 C2963 0.930 . S
C2958 H2944 0.930 . S
C2958 C2956 1.395 . S
C2958 C2961 1.403 . S
C2959 C2956 1.403 . S
C2959 C2960 1.524 . S
C2959 C2963 1.400 . S
C2960 H2945 0.960 . S
C2960 H2946 0.960 . S
C2960 H2947 0.960 . S
C2960 C2959 1.524 . S
C2961 C2958 1.403 . S
C2961 C2962 1.392 . S
C2961 C2965 1.495 . S
C2962 C2961 1.392 . S
C2962 C2963 1.385 . S
C2962 C2964 1.478 . S
C2963 H2957 0.930 . S
C2963 C2959 1.400 . S
C2963 C2962 1.385 . S
C2964 C2962 1.478 . S
C2964 C2966 1.381 . S
C2964 C2970 1.383 . S
C2965 C2961 1.495 . S
C2965 H2971 0.959 . S
C2965 H2972 0.961 . S
C2965 H2973 0.960 . S
C2966 C2964 1.381 . S
C2966 C2967 1.394 . S
C2966 H2974 0.930 . S
C2967 C2966 1.394 . S
C2967 C2968 1.383 . S
C2967 H2975 0.929 . S
C2968 C2967 1.383 . S
C2968 C2969 1.377 . S
C2969 H2953 0.930 . S
C2969 C2968 1.377 . S
C2969 C2970 1.379 . S
C2970 H2954 0.931 . S
C2970 C2964 1.383 . S
C2970 C2969 1.379 . S
H2971 C2965 0.959 . S
H2972 C2965 0.961 . S
H2973 C2965 0.960 . S
H2974 C2966 0.930 . S
H2975 C2967 0.929 . S
H2976 C2984 0.935 1_565 S
H2977 C2986 0.896 1_565 S
H2978 C2988 0.930 . S
H2979 C2991 0.929 . S
H2980 C2994 0.930 . S
H2981 C2996 0.960 . S
H2982 C2996 0.960 . S
H2983 C2996 0.960 . S
C2984 H2976 0.935 1_545 S
C2984 C2985 1.377 . S
C2984 C2986 1.384 . S
C2985 C2984 1.377 . S
C2985 C2991 1.390 . S
C2986 H2977 0.896 1_545 S
C2986 C2984 1.384 . S
C2986 C2987 1.372 . S
C2987 C2986 1.372 . S
C2987 C2988 1.400 . S
C2987 C2992 1.490 . S
C2988 H2978 0.930 . S
C2988 C2987 1.400 . S
C2988 C2991 1.386 . S
H2989 C3005 0.930 . S
H2990 C3006 0.931 . S
C2991 H2979 0.929 . S
C2991 C2985 1.390 . S
C2991 C2988 1.386 . S
C2992 C2987 1.490 . S
C2992 C2994 1.395 . S
C2992 C2995 1.403 . S
H2993 C2999 0.930 . S
C2994 H2980 0.930 . S
C2994 C2992 1.395 . S
C2994 C2997 1.403 . S
C2995 C2992 1.403 . S
C2995 C2996 1.524 . S
C2995 C2999 1.400 . S
C2996 H2981 0.960 . S
C2996 H2982 0.960 . S
C2996 H2983 0.960 . S
C2996 C2995 1.524 . S
C2997 C2994 1.403 . S
C2997 C2998 1.392 . S
C2997 C3001 1.495 . S
C2998 C2997 1.392 . S
C2998 C2999 1.385 . S
C2998 C3000 1.478 . S
C2999 H2993 0.930 . S
C2999 C2995 1.400 . S
C2999 C2998 1.385 . S
C3000 C2998 1.478 . S
C3000 C3002 1.381 . S
C3000 C3006 1.383 . S
C3001 C2997 1.495 . S
C3001 H3007 0.959 . S
C3001 H3008 0.961 . S
C3001 H3009 0.960 1_545 S
C3002 C3000 1.381 . S
C3002 C3003 1.394 . S
C3002 H3010 0.930 1_545 S
C3003 C3002 1.394 . S
C3003 C3004 1.383 . S
C3003 H3011 0.897 1_545 S
C3004 C3003 1.383 . S
C3004 C3005 1.377 . S
C3005 H2989 0.930 . S
C3005 C3004 1.377 . S
C3005 C3006 1.379 . S
C3006 H2990 0.931 . S
C3006 C3000 1.383 . S
C3006 C3005 1.379 . S
H3007 C3001 0.959 . S
H3008 C3001 0.961 . S
H3009 C3001 0.960 1_565 S
H3010 C3002 0.930 1_565 S
H3011 C3003 0.897 1_565 S
H3012 C3020 0.929 . S
H3013 C3022 0.930 . S
H3014 C3024 0.930 . S
H3015 C3027 0.929 . S
H3016 C3030 0.930 . S
H3017 C3032 0.960 . S
H3018 C3032 0.960 . S
H3019 C3032 0.960 . S
C3020 H3012 0.929 . S
C3020 C3021 1.377 . S
C3020 C3022 1.384 . S
C3021 C3020 1.377 . S
C3021 C3027 1.390 . S
C3022 H3013 0.930 . S
C3022 C3020 1.384 . S
C3022 C3023 1.372 . S
C3023 C3022 1.372 . S
C3023 C3024 1.400 . S
C3023 C3028 1.490 . S
C3024 H3014 0.930 . S
C3024 C3023 1.400 . S
C3024 C3027 1.386 . S
H3025 C3041 0.930 . S
H3026 C3042 0.931 . S
C3027 H3015 0.929 . S
C3027 C3021 1.390 . S
C3027 C3024 1.386 . S
C3028 C3023 1.490 . S
C3028 C3030 1.395 . S
C3028 C3031 1.403 . S
H3029 C3035 0.930 . S
C3030 H3016 0.930 . S
C3030 C3028 1.395 . S
C3030 C3033 1.403 . S
C3031 C3028 1.403 . S
C3031 C3032 1.524 . S
C3031 C3035 1.400 . S
C3032 H3017 0.960 . S
C3032 H3018 0.960 . S
C3032 H3019 0.960 . S
C3032 C3031 1.524 . S
C3033 C3030 1.403 . S
C3033 C3034 1.392 . S
C3033 C3037 1.495 . S
C3034 C3033 1.392 . S
C3034 C3035 1.385 . S
C3034 C3036 1.478 . S
C3035 H3029 0.930 . S
C3035 C3031 1.400 . S
C3035 C3034 1.385 . S
C3036 C3034 1.478 . S
C3036 C3038 1.381 . S
C3036 C3042 1.383 . S
C3037 C3033 1.495 . S
C3037 H3043 0.959 . S
C3037 H3044 0.961 . S
C3037 H3045 0.960 . S
C3038 C3036 1.381 . S
C3038 C3039 1.394 . S
C3038 H3046 0.930 . S
C3039 C3038 1.394 . S
C3039 C3040 1.383 . S
C3039 H3047 0.929 . S
C3040 C3039 1.383 . S
C3040 C3041 1.377 . S
C3041 H3025 0.930 . S
C3041 C3040 1.377 . S
C3041 C3042 1.379 . S
C3042 H3026 0.931 . S
C3042 C3036 1.383 . S
C3042 C3041 1.379 . S
H3043 C3037 0.959 . S
H3044 C3037 0.961 . S
H3045 C3037 0.960 . S
H3046 C3038 0.930 . S
H3047 C3039 0.929 . S
H3048 C3056 0.929 . S
H3049 C3058 0.930 . S
H3050 C3060 0.939 . S
H3051 C3063 0.929 . S
H3052 C3066 0.930 1_565 S
H3053 C3068 0.960 . S
H3054 C3068 0.960 . S
H3055 C3068 0.960 . S
C3056 H3048 0.929 . S
C3056 C3057 1.377 . S
C3056 C3058 1.384 . S
C3057 C3056 1.377 . S
C3057 C3063 1.390 1_545 S
C3058 H3049 0.930 . S
C3058 C3056 1.384 . S
C3058 C3059 1.372 . S
C3059 C3058 1.372 . S
C3059 C3060 1.391 1_545 S
C3059 C3064 1.490 . S
C3060 H3050 0.939 . S
C3060 C3059 1.391 1_565 S
C3060 C3063 1.386 . S
H3061 C3077 0.930 . S
H3062 C3078 0.931 . S
C3063 H3051 0.929 . S
C3063 C3057 1.390 1_565 S
C3063 C3060 1.386 . S
C3064 C3059 1.490 . S
C3064 C3066 1.395 . S
C3064 C3067 1.403 . S
H3065 C3071 0.930 . S
C3066 H3052 0.930 1_545 S
C3066 C3064 1.395 . S
C3066 C3069 1.403 . S
C3067 C3064 1.403 . S
C3067 C3068 1.524 . S
C3067 C3071 1.400 . S
C3068 H3053 0.960 . S
C3068 H3054 0.960 . S
C3068 H3055 0.960 . S
C3068 C3067 1.524 . S
C3069 C3066 1.403 . S
C3069 C3070 1.392 . S
C3069 C3073 1.495 1_545 S
C3070 C3069 1.392 . S
C3070 C3071 1.385 . S
C3070 C3072 1.478 . S
C3071 H3065 0.930 . S
C3071 C3067 1.400 . S
C3071 C3070 1.385 . S
C3072 C3070 1.478 . S
C3072 C3074 1.381 . S
C3072 C3078 1.383 1_545 S
C3073 C3069 1.495 1_565 S
C3073 H3079 0.959 . S
C3073 H3080 0.961 . S
C3073 H3081 0.960 1_565 S
C3074 C3072 1.381 . S
C3074 C3075 1.394 . S
C3074 H3082 0.930 . S
C3075 C3074 1.394 . S
C3075 C3076 1.383 . S
C3075 H3083 0.929 . S
C3076 C3075 1.383 . S
C3076 C3077 1.377 1_545 S
C3077 H3061 0.930 . S
C3077 C3076 1.377 1_565 S
C3077 C3078 1.379 . S
C3078 H3062 0.931 . S
C3078 C3072 1.383 1_565 S
C3078 C3077 1.379 . S
H3079 C3073 0.959 . S
H3080 C3073 0.961 . S
H3081 C3073 0.960 1_545 S
H3082 C3074 0.930 . S
H3083 C3075 0.929 . S
H3084 C3092 0.929 . S
H3085 C3094 0.930 . S
H3086 C3096 0.930 . S
H3087 C3099 0.929 . S
H3088 C3102 0.930 . S
H3089 C3104 0.960 . S
H3090 C3104 0.960 . S
H3091 C3104 0.960 . S
C3092 H3084 0.929 . S
C3092 C3093 1.377 . S
C3092 C3094 1.384 . S
C3093 C3092 1.377 . S
C3093 C3099 1.390 . S
C3094 H3085 0.930 . S
C3094 C3092 1.384 . S
C3094 C3095 1.372 . S
C3095 C3094 1.372 . S
C3095 C3096 1.400 . S
C3095 C3100 1.490 . S
C3096 H3086 0.930 . S
C3096 C3095 1.400 . S
C3096 C3099 1.386 . S
H3097 C3113 0.930 . S
H3098 C3114 0.931 . S
C3099 H3087 0.929 . S
C3099 C3093 1.390 . S
C3099 C3096 1.386 . S
C3100 C3095 1.490 . S
C3100 C3102 1.395 . S
C3100 C3103 1.403 . S
H3101 C3107 0.930 . S
C3102 H3088 0.930 . S
C3102 C3100 1.395 . S
C3102 C3105 1.403 . S
C3103 C3100 1.403 . S
C3103 C3104 1.524 . S
C3103 C3107 1.400 . S
C3104 H3089 0.960 . S
C3104 H3090 0.960 . S
C3104 H3091 0.960 . S
C3104 C3103 1.524 . S
C3105 C3102 1.403 . S
C3105 C3106 1.392 . S
C3105 C3109 1.495 . S
C3106 C3105 1.392 . S
C3106 C3107 1.385 . S
C3106 C3108 1.478 . S
C3107 H3101 0.930 . S
C3107 C3103 1.400 . S
C3107 C3106 1.385 . S
C3108 C3106 1.478 . S
C3108 C3110 1.381 . S
C3108 C3114 1.383 . S
C3109 C3105 1.495 . S
C3109 H3115 0.959 . S
C3109 H3116 0.961 . S
C3109 H3117 0.960 . S
C3110 C3108 1.381 . S
C3110 C3111 1.394 . S
C3110 H3118 0.930 . S
C3111 C3110 1.394 . S
C3111 C3112 1.383 . S
C3111 H3119 0.929 . S
C3112 C3111 1.383 . S
C3112 C3113 1.377 . S
C3113 H3097 0.930 . S
C3113 C3112 1.377 . S
C3113 C3114 1.379 . S
C3114 H3098 0.931 . S
C3114 C3108 1.383 . S
C3114 C3113 1.379 . S
H3115 C3109 0.959 . S
H3116 C3109 0.961 . S
H3117 C3109 0.960 . S
H3118 C3110 0.930 . S
H3119 C3111 0.929 . S
H3120 C3128 0.929 . S
H3121 C3130 0.930 . S
H3122 C3132 0.930 . S
H3123 C3135 0.929 . S
H3124 C3138 0.930 . S
H3125 C3140 0.960 . S
H3126 C3140 0.960 . S
H3127 C3140 0.960 . S
C3128 H3120 0.929 . S
C3128 C3129 1.377 . S
C3128 C3130 1.384 . S
C3129 C3128 1.377 . S
C3129 C3135 1.390 . S
C3130 H3121 0.930 . S
C3130 C3128 1.384 . S
C3130 C3131 1.372 . S
C3131 C3130 1.372 . S
C3131 C3132 1.400 . S
C3131 C3136 1.490 . S
C3132 H3122 0.930 . S
C3132 C3131 1.400 . S
C3132 C3135 1.386 . S
H3133 C3149 0.930 . S
H3134 C3150 0.931 . S
C3135 H3123 0.929 . S
C3135 C3129 1.390 . S
C3135 C3132 1.386 . S
C3136 C3131 1.490 . S
C3136 C3138 1.395 . S
C3136 C3139 1.403 . S
H3137 C3143 0.930 . S
C3138 H3124 0.930 . S
C3138 C3136 1.395 . S
C3138 C3141 1.403 . S
C3139 C3136 1.403 . S
C3139 C3140 1.524 . S
C3139 C3143 1.400 . S
C3140 H3125 0.960 . S
C3140 H3126 0.960 . S
C3140 H3127 0.960 . S
C3140 C3139 1.524 . S
C3141 C3138 1.403 . S
C3141 C3142 1.392 . S
C3141 C3145 1.495 . S
C3142 C3141 1.392 . S
C3142 C3143 1.385 . S
C3142 C3144 1.478 . S
C3143 H3137 0.930 . S
C3143 C3139 1.400 . S
C3143 C3142 1.385 . S
C3144 C3142 1.478 . S
C3144 C3146 1.381 . S
C3144 C3150 1.383 . S
C3145 C3141 1.495 . S
C3145 H3151 0.959 . S
C3145 H3152 0.961 . S
C3145 H3153 0.960 . S
C3146 C3144 1.381 . S
C3146 C3147 1.394 . S
C3146 H3154 0.930 . S
C3147 C3146 1.394 . S
C3147 C3148 1.383 . S
C3147 H3155 0.929 . S
C3148 C3147 1.383 . S
C3148 C3149 1.377 . S
C3149 H3133 0.930 . S
C3149 C3148 1.377 . S
C3149 C3150 1.379 . S
C3150 H3134 0.931 . S
C3150 C3144 1.383 . S
C3150 C3149 1.379 . S
H3151 C3145 0.959 . S
H3152 C3145 0.961 . S
H3153 C3145 0.960 . S
H3154 C3146 0.930 . S
H3155 C3147 0.929 . S
H3156 C3164 0.929 . S
H3157 C3166 0.930 . S
H3158 C3168 0.930 . S
H3159 C3171 0.929 . S
H3160 C3174 0.930 . S
H3161 C3176 0.960 . S
H3162 C3176 0.960 . S
H3163 C3176 0.960 . S
C3164 H3156 0.929 . S
C3164 C3165 1.377 . S
C3164 C3166 1.384 . S
C3165 C3164 1.377 . S
C3165 C3171 1.390 . S
C3166 H3157 0.930 . S
C3166 C3164 1.384 . S
C3166 C3167 1.372 . S
C3167 C3166 1.372 . S
C3167 C3168 1.400 . S
C3167 C3172 1.490 . S
C3168 H3158 0.930 . S
C3168 C3167 1.400 . S
C3168 C3171 1.386 . S
H3169 C3185 0.930 . S
H3170 C3186 0.931 . S
C3171 H3159 0.929 . S
C3171 C3165 1.390 . S
C3171 C3168 1.386 . S
C3172 C3167 1.490 . S
C3172 C3174 1.395 . S
C3172 C3175 1.403 . S
H3173 C3179 0.930 . S
C3174 H3160 0.930 . S
C3174 C3172 1.395 . S
C3174 C3177 1.403 . S
C3175 C3172 1.403 . S
C3175 C3176 1.524 . S
C3175 C3179 1.400 . S
C3176 H3161 0.960 . S
C3176 H3162 0.960 . S
C3176 H3163 0.960 . S
C3176 C3175 1.524 . S
C3177 C3174 1.403 . S
C3177 C3178 1.392 . S
C3177 C3181 1.495 . S
C3178 C3177 1.392 . S
C3178 C3179 1.385 . S
C3178 C3180 1.478 . S
C3179 H3173 0.930 . S
C3179 C3175 1.400 . S
C3179 C3178 1.385 . S
C3180 C3178 1.478 . S
C3180 C3182 1.381 . S
C3180 C3186 1.383 . S
C3181 C3177 1.495 . S
C3181 H3187 0.959 . S
C3181 H3188 0.961 . S
C3181 H3189 0.960 . S
C3182 C3180 1.381 . S
C3182 C3183 1.394 . S
C3182 H3190 0.930 . S
C3183 C3182 1.394 . S
C3183 C3184 1.383 . S
C3183 H3191 0.929 . S
C3184 C3183 1.383 . S
C3184 C3185 1.377 . S
C3185 H3169 0.930 . S
C3185 C3184 1.377 . S
C3185 C3186 1.379 . S
C3186 H3170 0.931 . S
C3186 C3180 1.383 . S
C3186 C3185 1.379 . S
H3187 C3181 0.959 . S
H3188 C3181 0.961 . S
H3189 C3181 0.960 . S
H3190 C3182 0.930 . S
H3191 C3183 0.929 . S
H3192 C3200 0.929 . S
H3193 C3202 0.930 . S
H3194 C3204 0.930 . S
H3195 C3207 0.929 . S
H3196 C3210 0.930 . S
H3197 C3212 0.960 . S
H3198 C3212 0.960 . S
H3199 C3212 0.960 . S
C3200 H3192 0.929 . S
C3200 C3201 1.377 . S
C3200 C3202 1.384 . S
C3201 C3200 1.377 . S
C3201 C3207 1.390 . S
C3202 H3193 0.930 . S
C3202 C3200 1.384 . S
C3202 C3203 1.372 . S
C3203 C3202 1.372 . S
C3203 C3204 1.400 . S
C3203 C3208 1.490 . S
C3204 H3194 0.930 . S
C3204 C3203 1.400 . S
C3204 C3207 1.386 . S
H3205 C3221 0.930 . S
H3206 C3222 0.931 . S
C3207 H3195 0.929 . S
C3207 C3201 1.390 . S
C3207 C3204 1.386 . S
C3208 C3203 1.490 . S
C3208 C3210 1.395 . S
C3208 C3211 1.403 . S
H3209 C3215 0.930 . S
C3210 H3196 0.930 . S
C3210 C3208 1.395 . S
C3210 C3213 1.403 . S
C3211 C3208 1.403 . S
C3211 C3212 1.524 . S
C3211 C3215 1.400 . S
C3212 H3197 0.960 . S
C3212 H3198 0.960 . S
C3212 H3199 0.960 . S
C3212 C3211 1.524 . S
C3213 C3210 1.403 . S
C3213 C3214 1.392 . S
C3213 C3217 1.495 . S
C3214 C3213 1.392 . S
C3214 C3215 1.385 . S
C3214 C3216 1.478 . S
C3215 H3209 0.930 . S
C3215 C3211 1.400 . S
C3215 C3214 1.385 . S
C3216 C3214 1.478 . S
C3216 C3218 1.381 . S
C3216 C3222 1.383 . S
C3217 C3213 1.495 . S
C3217 H3223 0.959 . S
C3217 H3224 0.961 . S
C3217 H3225 0.960 . S
C3218 C3216 1.381 . S
C3218 C3219 1.394 . S
C3218 H3226 0.930 . S
C3219 C3218 1.394 . S
C3219 C3220 1.383 . S
C3219 H3227 0.929 . S
C3220 C3219 1.383 . S
C3220 C3221 1.377 . S
C3221 H3205 0.930 . S
C3221 C3220 1.377 . S
C3221 C3222 1.379 . S
C3222 H3206 0.931 . S
C3222 C3216 1.383 . S
C3222 C3221 1.379 . S
H3223 C3217 0.959 . S
H3224 C3217 0.961 . S
H3225 C3217 0.960 . S
H3226 C3218 0.930 . S
H3227 C3219 0.929 . S
H3228 C3236 0.929 . S
H3229 C3238 0.930 . S
H3230 C3240 0.930 . S
H3231 C3243 0.929 . S
H3232 C3246 0.930 . S
H3233 C3248 0.960 . S
H3234 C3248 0.960 . S
H3235 C3248 0.960 . S
C3236 H3228 0.929 . S
C3236 C3237 1.377 . S
C3236 C3238 1.384 . S
C3237 C3236 1.377 . S
C3237 C3243 1.390 . S
C3238 H3229 0.930 . S
C3238 C3236 1.384 . S
C3238 C3239 1.372 . S
C3239 C3238 1.372 . S
C3239 C3240 1.400 . S
C3239 C3244 1.490 . S
C3240 H3230 0.930 . S
C3240 C3239 1.400 . S
C3240 C3243 1.386 . S
H3241 C3257 0.930 . S
H3242 C3258 0.931 . S
C3243 H3231 0.929 . S
C3243 C3237 1.390 . S
C3243 C3240 1.386 . S
C3244 C3239 1.490 . S
C3244 C3246 1.395 . S
C3244 C3247 1.403 . S
H3245 C3251 0.930 . S
C3246 H3232 0.930 . S
C3246 C3244 1.395 . S
C3246 C3249 1.403 . S
C3247 C3244 1.403 . S
C3247 C3248 1.524 . S
C3247 C3251 1.400 . S
C3248 H3233 0.960 . S
C3248 H3234 0.960 . S
C3248 H3235 0.960 . S
C3248 C3247 1.524 . S
C3249 C3246 1.403 . S
C3249 C3250 1.392 . S
C3249 C3253 1.495 . S
C3250 C3249 1.392 . S
C3250 C3251 1.385 . S
C3250 C3252 1.478 . S
C3251 H3245 0.930 . S
C3251 C3247 1.400 . S
C3251 C3250 1.385 . S
C3252 C3250 1.478 . S
C3252 C3254 1.381 . S
C3252 C3258 1.383 . S
C3253 C3249 1.495 . S
C3253 H3259 0.959 . S
C3253 H3260 0.961 . S
C3253 H3261 0.960 . S
C3254 C3252 1.381 . S
C3254 C3255 1.394 . S
C3254 H3262 0.930 . S
C3255 C3254 1.394 . S
C3255 C3256 1.383 . S
C3255 H3263 0.929 . S
C3256 C3255 1.383 . S
C3256 C3257 1.377 . S
C3257 H3241 0.930 . S
C3257 C3256 1.377 . S
C3257 C3258 1.379 . S
C3258 H3242 0.931 . S
C3258 C3252 1.383 . S
C3258 C3257 1.379 . S
H3259 C3253 0.959 . S
H3260 C3253 0.961 . S
H3261 C3253 0.960 . S
H3262 C3254 0.930 . S
H3263 C3255 0.929 . S
H3264 C3272 0.929 . S
H3265 C3274 0.930 . S
H3266 C3276 0.930 . S
H3267 C3279 0.929 . S
H3268 C3282 0.930 . S
H3269 C3284 0.960 . S
H3270 C3284 0.960 . S
H3271 C3284 0.960 . S
C3272 H3264 0.929 . S
C3272 C3273 1.377 . S
C3272 C3274 1.384 . S
C3273 C3272 1.377 . S
C3273 C3279 1.390 . S
C3274 H3265 0.930 . S
C3274 C3272 1.384 . S
C3274 C3275 1.372 . S
C3275 C3274 1.372 . S
C3275 C3276 1.400 . S
C3275 C3280 1.490 . S
C3276 H3266 0.930 . S
C3276 C3275 1.400 . S
C3276 C3279 1.386 . S
H3277 C3293 0.930 . S
H3278 C3294 0.931 . S
C3279 H3267 0.929 . S
C3279 C3273 1.390 . S
C3279 C3276 1.386 . S
C3280 C3275 1.490 . S
C3280 C3282 1.395 . S
C3280 C3283 1.403 . S
H3281 C3287 0.930 . S
C3282 H3268 0.930 . S
C3282 C3280 1.395 . S
C3282 C3285 1.403 . S
C3283 C3280 1.403 . S
C3283 C3284 1.524 . S
C3283 C3287 1.400 . S
C3284 H3269 0.960 . S
C3284 H3270 0.960 . S
C3284 H3271 0.960 . S
C3284 C3283 1.524 . S
C3285 C3282 1.403 . S
C3285 C3286 1.392 . S
C3285 C3289 1.495 . S
C3286 C3285 1.392 . S
C3286 C3287 1.385 . S
C3286 C3288 1.478 . S
C3287 H3281 0.930 . S
C3287 C3283 1.400 . S
C3287 C3286 1.385 . S
C3288 C3286 1.478 . S
C3288 C3290 1.381 . S
C3288 C3294 1.383 . S
C3289 C3285 1.495 . S
C3289 H3295 0.959 . S
C3289 H3296 0.961 . S
C3289 H3297 0.960 . S
C3290 C3288 1.381 . S
C3290 C3291 1.394 . S
C3290 H3298 0.930 . S
C3291 C3290 1.394 . S
C3291 C3292 1.383 . S
C3291 H3299 0.929 . S
C3292 C3291 1.383 . S
C3292 C3293 1.377 . S
C3293 H3277 0.930 . S
C3293 C3292 1.377 . S
C3293 C3294 1.379 . S
C3294 H3278 0.931 . S
C3294 C3288 1.383 . S
C3294 C3293 1.379 . S
H3295 C3289 0.959 . S
H3296 C3289 0.961 . S
H3297 C3289 0.960 . S
H3298 C3290 0.930 . S
H3299 C3291 0.929 . S
H3300 C3308 0.929 . S
H3301 C3310 0.930 . S
H3302 C3312 0.930 . S
H3303 C3315 0.929 . S
H3304 C3318 0.930 . S
H3305 C3320 0.960 . S
H3306 C3320 0.960 . S
H3307 C3320 0.960 . S
C3308 H3300 0.929 . S
C3308 C3309 1.377 . S
C3308 C3310 1.384 . S
C3309 C3308 1.377 . S
C3309 C3315 1.390 . S
C3310 H3301 0.930 . S
C3310 C3308 1.384 . S
C3310 C3311 1.372 . S
C3311 C3310 1.372 . S
C3311 C3312 1.400 . S
C3311 C3316 1.490 . S
C3312 H3302 0.930 . S
C3312 C3311 1.400 . S
C3312 C3315 1.386 . S
H3313 C3329 0.930 . S
H3314 C3330 0.931 . S
C3315 H3303 0.929 . S
C3315 C3309 1.390 . S
C3315 C3312 1.386 . S
C3316 C3311 1.490 . S
C3316 C3318 1.395 . S
C3316 C3319 1.403 . S
H3317 C3323 0.930 . S
C3318 H3304 0.930 . S
C3318 C3316 1.395 . S
C3318 C3321 1.403 . S
C3319 C3316 1.403 . S
C3319 C3320 1.524 . S
C3319 C3323 1.400 . S
C3320 H3305 0.960 . S
C3320 H3306 0.960 . S
C3320 H3307 0.960 . S
C3320 C3319 1.524 . S
C3321 C3318 1.403 . S
C3321 C3322 1.392 . S
C3321 C3325 1.495 . S
C3322 C3321 1.392 . S
C3322 C3323 1.385 . S
C3322 C3324 1.478 . S
C3323 H3317 0.930 . S
C3323 C3319 1.400 . S
C3323 C3322 1.385 . S
C3324 C3322 1.478 . S
C3324 C3326 1.381 . S
C3324 C3330 1.383 . S
C3325 C3321 1.495 . S
C3325 H3331 0.959 . S
C3325 H3332 0.961 . S
C3325 H3333 0.960 . S
C3326 C3324 1.381 . S
C3326 C3327 1.394 . S
C3326 H3334 0.930 . S
C3327 C3326 1.394 . S
C3327 C3328 1.383 . S
C3327 H3335 0.929 . S
C3328 C3327 1.383 . S
C3328 C3329 1.377 . S
C3329 H3313 0.930 . S
C3329 C3328 1.377 . S
C3329 C3330 1.379 . S
C3330 H3314 0.931 . S
C3330 C3324 1.383 . S
C3330 C3329 1.379 . S
H3331 C3325 0.959 . S
H3332 C3325 0.961 . S
H3333 C3325 0.960 . S
H3334 C3326 0.930 . S
H3335 C3327 0.929 . S
H3336 C3344 0.929 . S
H3337 C3346 0.930 . S
H3338 C3348 0.930 . S
H3339 C3351 0.929 . S
H3340 C3354 0.930 . S
H3341 C3356 0.960 . S
H3342 C3356 0.960 . S
H3343 C3356 0.960 . S
C3344 H3336 0.929 . S
C3344 C3345 1.377 . S
C3344 C3346 1.384 . S
C3345 C3344 1.377 . S
C3345 C3351 1.390 . S
C3346 H3337 0.930 . S
C3346 C3344 1.384 . S
C3346 C3347 1.372 . S
C3347 C3346 1.372 . S
C3347 C3348 1.400 . S
C3347 C3352 1.490 . S
C3348 H3338 0.930 . S
C3348 C3347 1.400 . S
C3348 C3351 1.386 . S
H3349 C3365 0.930 . S
H3350 C3366 0.931 . S
C3351 H3339 0.929 . S
C3351 C3345 1.390 . S
C3351 C3348 1.386 . S
C3352 C3347 1.490 . S
C3352 C3354 1.395 . S
C3352 C3355 1.403 . S
H3353 C3359 0.930 . S
C3354 H3340 0.930 . S
C3354 C3352 1.395 . S
C3354 C3357 1.403 . S
C3355 C3352 1.403 . S
C3355 C3356 1.524 . S
C3355 C3359 1.400 . S
C3356 H3341 0.960 . S
C3356 H3342 0.960 . S
C3356 H3343 0.960 . S
C3356 C3355 1.524 . S
C3357 C3354 1.403 . S
C3357 C3358 1.392 . S
C3357 C3361 1.495 . S
C3358 C3357 1.392 . S
C3358 C3359 1.385 . S
C3358 C3360 1.478 . S
C3359 H3353 0.930 . S
C3359 C3355 1.400 . S
C3359 C3358 1.385 . S
C3360 C3358 1.478 . S
C3360 C3362 1.381 . S
C3360 C3366 1.383 . S
C3361 C3357 1.495 . S
C3361 H3367 0.959 . S
C3361 H3368 0.961 . S
C3361 H3369 0.960 . S
C3362 C3360 1.381 . S
C3362 C3363 1.394 . S
C3362 H3370 0.930 . S
C3363 C3362 1.394 . S
C3363 C3364 1.383 . S
C3363 H3371 0.929 . S
C3364 C3363 1.383 . S
C3364 C3365 1.377 . S
C3365 H3349 0.930 . S
C3365 C3364 1.377 . S
C3365 C3366 1.379 . S
C3366 H3350 0.931 . S
C3366 C3360 1.383 . S
C3366 C3365 1.379 . S
H3367 C3361 0.959 . S
H3368 C3361 0.961 . S
H3369 C3361 0.960 . S
H3370 C3362 0.930 . S
H3371 C3363 0.929 . S
H3372 C3380 0.929 . S
H3373 C3382 0.930 . S
H3374 C3384 0.930 . S
H3375 C3387 0.929 . S
H3376 C3390 0.930 . S
H3377 C3392 0.960 . S
H3378 C3392 0.960 . S
H3379 C3392 0.960 . S
C3380 H3372 0.929 . S
C3380 C3381 1.377 . S
C3380 C3382 1.384 . S
C3381 C3380 1.377 . S
C3381 C3387 1.390 . S
C3382 H3373 0.930 . S
C3382 C3380 1.384 . S
C3382 C3383 1.372 . S
C3383 C3382 1.372 . S
C3383 C3384 1.400 . S
C3383 C3388 1.490 . S
C3384 H3374 0.930 . S
C3384 C3383 1.400 . S
C3384 C3387 1.386 . S
H3385 C3401 0.930 . S
H3386 C3402 0.931 . S
C3387 H3375 0.929 . S
C3387 C3381 1.390 . S
C3387 C3384 1.386 . S
C3388 C3383 1.490 . S
C3388 C3390 1.395 . S
C3388 C3391 1.403 . S
H3389 C3395 0.930 . S
C3390 H3376 0.930 . S
C3390 C3388 1.395 . S
C3390 C3393 1.403 . S
C3391 C3388 1.403 . S
C3391 C3392 1.524 . S
C3391 C3395 1.400 . S
C3392 H3377 0.960 . S
C3392 H3378 0.960 . S
C3392 H3379 0.960 . S
C3392 C3391 1.524 . S
C3393 C3390 1.403 . S
C3393 C3394 1.392 . S
C3393 C3397 1.495 . S
C3394 C3393 1.392 . S
C3394 C3395 1.385 . S
C3394 C3396 1.478 . S
C3395 H3389 0.930 . S
C3395 C3391 1.400 . S
C3395 C3394 1.385 . S
C3396 C3394 1.478 . S
C3396 C3398 1.381 . S
C3396 C3402 1.383 . S
C3397 C3393 1.495 . S
C3397 H3403 0.959 . S
C3397 H3404 0.961 . S
C3397 H3405 0.960 . S
C3398 C3396 1.381 . S
C3398 C3399 1.394 . S
C3398 H3406 0.930 . S
C3399 C3398 1.394 . S
C3399 C3400 1.383 . S
C3399 H3407 0.929 . S
C3400 C3399 1.383 . S
C3400 C3401 1.377 . S
C3401 H3385 0.930 . S
C3401 C3400 1.377 . S
C3401 C3402 1.379 . S
C3402 H3386 0.931 . S
C3402 C3396 1.383 . S
C3402 C3401 1.379 . S
H3403 C3397 0.959 . S
H3404 C3397 0.961 . S
H3405 C3397 0.960 . S
H3406 C3398 0.930 . S
H3407 C3399 0.929 . S
H3408 C3416 0.929 . S
H3409 C3418 0.930 . S
H3410 C3420 0.930 . S
H3411 C3423 0.929 . S
H3412 C3426 0.930 . S
H3413 C3428 0.960 . S
H3414 C3428 0.960 . S
H3415 C3428 0.960 . S
C3416 H3408 0.929 . S
C3416 C3417 1.377 . S
C3416 C3418 1.384 . S
C3417 C3416 1.377 . S
C3417 C3423 1.390 . S
C3418 H3409 0.930 . S
C3418 C3416 1.384 . S
C3418 C3419 1.372 . S
C3419 C3418 1.372 . S
C3419 C3420 1.400 . S
C3419 C3424 1.490 . S
C3420 H3410 0.930 . S
C3420 C3419 1.400 . S
C3420 C3423 1.386 . S
H3421 C3437 0.930 . S
H3422 C3438 0.931 . S
C3423 H3411 0.929 . S
C3423 C3417 1.390 . S
C3423 C3420 1.386 . S
C3424 C3419 1.490 . S
C3424 C3426 1.395 . S
C3424 C3427 1.403 . S
H3425 C3431 0.930 . S
C3426 H3412 0.930 . S
C3426 C3424 1.395 . S
C3426 C3429 1.403 . S
C3427 C3424 1.403 . S
C3427 C3428 1.524 . S
C3427 C3431 1.400 . S
C3428 H3413 0.960 . S
C3428 H3414 0.960 . S
C3428 H3415 0.960 . S
C3428 C3427 1.524 . S
C3429 C3426 1.403 . S
C3429 C3430 1.392 . S
C3429 C3433 1.495 . S
C3430 C3429 1.392 . S
C3430 C3431 1.385 . S
C3430 C3432 1.478 . S
C3431 H3425 0.930 . S
C3431 C3427 1.400 . S
C3431 C3430 1.385 . S
C3432 C3430 1.478 . S
C3432 C3434 1.381 . S
C3432 C3438 1.383 . S
C3433 C3429 1.495 . S
C3433 H3439 0.959 . S
C3433 H3440 0.961 . S
C3433 H3441 0.960 . S
C3434 C3432 1.381 . S
C3434 C3435 1.394 . S
C3434 H3442 0.930 . S
C3435 C3434 1.394 . S
C3435 C3436 1.383 . S
C3435 H3443 0.929 . S
C3436 C3435 1.383 . S
C3436 C3437 1.377 . S
C3437 H3421 0.930 . S
C3437 C3436 1.377 . S
C3437 C3438 1.379 . S
C3438 H3422 0.931 . S
C3438 C3432 1.383 . S
C3438 C3437 1.379 . S
H3439 C3433 0.959 . S
H3440 C3433 0.961 . S
H3441 C3433 0.960 . S
H3442 C3434 0.930 . S
H3443 C3435 0.929 . S
H3444 C3452 0.929 . S
H3445 C3454 0.930 . S
H3446 C3456 0.930 . S
H3447 C3459 0.929 . S
H3448 C3462 0.930 . S
H3449 C3464 0.960 . S
H3450 C3464 0.960 . S
H3451 C3464 0.960 . S
C3452 H3444 0.929 . S
C3452 C3453 1.377 . S
C3452 C3454 1.384 . S
C3453 C3452 1.377 . S
C3453 C3459 1.390 . S
C3454 H3445 0.930 . S
C3454 C3452 1.384 . S
C3454 C3455 1.372 . S
C3455 C3454 1.372 . S
C3455 C3456 1.400 . S
C3455 C3460 1.490 . S
C3456 H3446 0.930 . S
C3456 C3455 1.400 . S
C3456 C3459 1.386 . S
H3457 C3473 0.930 . S
H3458 C3474 0.931 . S
C3459 H3447 0.929 . S
C3459 C3453 1.390 . S
C3459 C3456 1.386 . S
C3460 C3455 1.490 . S
C3460 C3462 1.395 . S
C3460 C3463 1.403 . S
H3461 C3467 0.930 . S
C3462 H3448 0.930 . S
C3462 C3460 1.395 . S
C3462 C3465 1.403 . S
C3463 C3460 1.403 . S
C3463 C3464 1.524 . S
C3463 C3467 1.400 . S
C3464 H3449 0.960 . S
C3464 H3450 0.960 . S
C3464 H3451 0.960 . S
C3464 C3463 1.524 . S
C3465 C3462 1.403 . S
C3465 C3466 1.392 . S
C3465 C3469 1.495 . S
C3466 C3465 1.392 . S
C3466 C3467 1.385 . S
C3466 C3468 1.478 . S
C3467 H3461 0.930 . S
C3467 C3463 1.400 . S
C3467 C3466 1.385 . S
C3468 C3466 1.478 . S
C3468 C3470 1.381 . S
C3468 C3474 1.383 . S
C3469 C3465 1.495 . S
C3469 H3475 0.959 . S
C3469 H3476 0.961 . S
C3469 H3477 0.960 . S
C3470 C3468 1.381 . S
C3470 C3471 1.394 . S
C3470 H3478 0.930 . S
C3471 C3470 1.394 . S
C3471 C3472 1.383 . S
C3471 H3479 0.929 . S
C3472 C3471 1.383 . S
C3472 C3473 1.377 . S
C3473 H3457 0.930 . S
C3473 C3472 1.377 . S
C3473 C3474 1.379 . S
C3474 H3458 0.931 . S
C3474 C3468 1.383 . S
C3474 C3473 1.379 . S
H3475 C3469 0.959 . S
H3476 C3469 0.961 . S
H3477 C3469 0.960 . S
H3478 C3470 0.930 . S
H3479 C3471 0.929 . S
H3480 C3488 0.929 . S
H3481 C3490 0.930 . S
H3482 C3492 0.930 . S
H3483 C3495 0.929 . S
H3484 C3498 0.930 . S
H3485 C3500 0.960 . S
H3486 C3500 0.960 . S
H3487 C3500 0.960 . S
C3488 H3480 0.929 . S
C3488 C3489 1.377 1_655 S
C3488 C3490 1.384 . S
C3489 C3488 1.377 1_455 S
C3489 C3495 1.390 . S
C3490 H3481 0.930 . S
C3490 C3488 1.384 . S
C3490 C3491 1.372 1_655 S
C3491 C3490 1.372 1_455 S
C3491 C3492 1.400 . S
C3491 C3496 1.490 . S
C3492 H3482 0.930 . S
C3492 C3491 1.400 . S
C3492 C3495 1.386 . S
H3493 C3509 0.930 . S
H3494 C3510 0.931 . S
C3495 H3483 0.929 . S
C3495 C3489 1.390 . S
C3495 C3492 1.386 . S
C3496 C3491 1.490 . S
C3496 C3498 1.395 1_456 S
C3496 C3499 1.403 . S
H3497 C3503 0.930 . S
C3498 H3484 0.930 . S
C3498 C3496 1.395 1_654 S
C3498 C3501 1.403 . S
C3499 C3496 1.403 . S
C3499 C3500 1.524 . S
C3499 C3503 1.400 . S
C3500 H3485 0.960 . S
C3500 H3486 0.960 . S
C3500 H3487 0.960 . S
C3500 C3499 1.524 . S
C3501 C3498 1.403 . S
C3501 C3502 1.392 1_655 S
C3501 C3505 1.495 . S
C3502 C3501 1.392 1_455 S
C3502 C3503 1.385 1_554 S
C3502 C3504 1.478 . S
C3503 H3497 0.930 . S
C3503 C3499 1.400 . S
C3503 C3502 1.385 1_556 S
C3504 C3502 1.478 . S
C3504 C3506 1.381 1_455 S
C3504 C3510 1.383 . S
C3505 C3501 1.495 . S
C3505 H3511 0.959 . S
C3505 H3512 0.961 . S
C3505 H3513 0.960 . S
C3506 C3504 1.381 1_655 S
C3506 C3507 1.394 . S
C3506 H3514 0.930 . S
C3507 C3506 1.394 . S
C3507 C3508 1.383 1_655 S
C3507 H3515 0.929 . S
C3508 C3507 1.383 1_455 S
C3508 C3509 1.377 . S
C3509 H3493 0.930 . S
C3509 C3508 1.377 . S
C3509 C3510 1.379 . S
C3510 H3494 0.931 . S
C3510 C3504 1.383 . S
C3510 C3509 1.379 . S
H3511 C3505 0.959 . S
H3512 C3505 0.961 . S
H3513 C3505 0.960 . S
H3514 C3506 0.930 . S
H3515 C3507 0.929 . S
H3516 C3524 0.929 . S
H3517 C3526 0.930 . S
H3518 C3528 0.930 . S
H3519 C3531 0.929 . S
H3520 C3534 0.930 . S
H3521 C3536 0.960 . S
H3522 C3536 0.960 . S
H3523 C3536 0.960 . S
C3524 H3516 0.929 . S
C3524 C3525 1.377 . S
C3524 C3526 1.384 . S
C3525 C3524 1.377 . S
C3525 C3531 1.390 . S
C3526 H3517 0.930 . S
C3526 C3524 1.384 . S
C3526 C3527 1.372 . S
C3527 C3526 1.372 . S
C3527 C3528 1.400 . S
C3527 C3532 1.490 . S
C3528 H3518 0.930 . S
C3528 C3527 1.400 . S
C3528 C3531 1.386 . S
H3529 C3545 0.930 . S
H3530 C3546 0.931 . S
C3531 H3519 0.929 . S
C3531 C3525 1.390 . S
C3531 C3528 1.386 . S
C3532 C3527 1.490 . S
C3532 C3534 1.395 . S
C3532 C3535 1.403 . S
H3533 C3539 0.930 . S
C3534 H3520 0.930 . S
C3534 C3532 1.395 . S
C3534 C3537 1.403 . S
C3535 C3532 1.403 . S
C3535 C3536 1.524 . S
C3535 C3539 1.400 . S
C3536 H3521 0.960 . S
C3536 H3522 0.960 . S
C3536 H3523 0.960 . S
C3536 C3535 1.524 . S
C3537 C3534 1.403 . S
C3537 C3538 1.392 . S
C3537 C3541 1.495 . S
C3538 C3537 1.392 . S
C3538 C3539 1.385 . S
C3538 C3540 1.478 . S
C3539 H3533 0.930 . S
C3539 C3535 1.400 . S
C3539 C3538 1.385 . S
C3540 C3538 1.478 . S
C3540 C3542 1.381 . S
C3540 C3546 1.383 . S
C3541 C3537 1.495 . S
C3541 H3547 0.959 . S
C3541 H3548 0.961 . S
C3541 H3549 0.960 . S
C3542 C3540 1.381 . S
C3542 C3543 1.394 . S
C3542 H3550 0.930 . S
C3543 C3542 1.394 . S
C3543 C3544 1.383 . S
C3543 H3551 0.929 . S
C3544 C3543 1.383 . S
C3544 C3545 1.377 . S
C3545 H3529 0.930 . S
C3545 C3544 1.377 . S
C3545 C3546 1.379 . S
C3546 H3530 0.931 . S
C3546 C3540 1.383 . S
C3546 C3545 1.379 . S
H3547 C3541 0.959 . S
H3548 C3541 0.961 . S
H3549 C3541 0.960 . S
H3550 C3542 0.930 . S
H3551 C3543 0.929 . S
H3552 C3560 0.929 . S
H3553 C3562 0.930 . S
H3554 C3564 0.930 . S
H3555 C3567 0.929 . S
H3556 C3570 0.930 . S
H3557 C3572 0.960 . S
H3558 C3572 0.960 . S
H3559 C3572 0.960 . S
C3560 H3552 0.929 . S
C3560 C3561 1.377 . S
C3560 C3562 1.384 . S
C3561 C3560 1.377 . S
C3561 C3567 1.390 . S
C3562 H3553 0.930 . S
C3562 C3560 1.384 . S
C3562 C3563 1.372 . S
C3563 C3562 1.372 . S
C3563 C3564 1.400 . S
C3563 C3568 1.490 . S
C3564 H3554 0.930 . S
C3564 C3563 1.400 . S
C3564 C3567 1.386 . S
H3565 C3581 0.930 . S
H3566 C3582 0.931 . S
C3567 H3555 0.929 . S
C3567 C3561 1.390 . S
C3567 C3564 1.386 . S
C3568 C3563 1.490 . S
C3568 C3570 1.395 . S
C3568 C3571 1.403 . S
H3569 C3575 0.930 . S
C3570 H3556 0.930 . S
C3570 C3568 1.395 . S
C3570 C3573 1.403 . S
C3571 C3568 1.403 . S
C3571 C3572 1.524 . S
C3571 C3575 1.400 . S
C3572 H3557 0.960 . S
C3572 H3558 0.960 . S
C3572 H3559 0.960 . S
C3572 C3571 1.524 . S
C3573 C3570 1.403 . S
C3573 C3574 1.392 . S
C3573 C3577 1.495 . S
C3574 C3573 1.392 . S
C3574 C3575 1.385 . S
C3574 C3576 1.478 . S
C3575 H3569 0.930 . S
C3575 C3571 1.400 . S
C3575 C3574 1.385 . S
C3576 C3574 1.478 . S
C3576 C3578 1.381 . S
C3576 C3582 1.383 . S
C3577 C3573 1.495 . S
C3577 H3583 0.959 . S
C3577 H3584 0.961 . S
C3577 H3585 0.960 . S
C3578 C3576 1.381 . S
C3578 C3579 1.394 . S
C3578 H3586 0.930 . S
C3579 C3578 1.394 . S
C3579 C3580 1.383 . S
C3579 H3587 0.929 . S
C3580 C3579 1.383 . S
C3580 C3581 1.377 . S
C3581 H3565 0.930 . S
C3581 C3580 1.377 . S
C3581 C3582 1.379 . S
C3582 H3566 0.931 . S
C3582 C3576 1.383 . S
C3582 C3581 1.379 . S
H3583 C3577 0.959 . S
H3584 C3577 0.961 . S
H3585 C3577 0.960 . S
H3586 C3578 0.930 . S
H3587 C3579 0.929 . S
H3588 C3596 0.929 . S
H3589 C3598 0.930 . S
H3590 C3600 0.930 . S
H3591 C3603 0.929 . S
H3592 C3606 0.930 . S
H3593 C3608 0.960 . S
H3594 C3608 0.960 . S
H3595 C3608 0.960 . S
C3596 H3588 0.929 . S
C3596 C3597 1.377 . S
C3596 C3598 1.384 . S
C3597 C3596 1.377 . S
C3597 C3603 1.390 . S
C3598 H3589 0.930 . S
C3598 C3596 1.384 . S
C3598 C3599 1.372 . S
C3599 C3598 1.372 . S
C3599 C3600 1.400 . S
C3599 C3604 1.490 . S
C3600 H3590 0.930 . S
C3600 C3599 1.400 . S
C3600 C3603 1.386 . S
H3601 C3617 0.930 . S
H3602 C3618 0.931 . S
C3603 H3591 0.929 . S
C3603 C3597 1.390 . S
C3603 C3600 1.386 . S
C3604 C3599 1.490 . S
C3604 C3606 1.395 . S
C3604 C3607 1.403 . S
H3605 C3611 0.930 . S
C3606 H3592 0.930 . S
C3606 C3604 1.395 . S
C3606 C3609 1.403 . S
C3607 C3604 1.403 . S
C3607 C3608 1.524 . S
C3607 C3611 1.400 . S
C3608 H3593 0.960 . S
C3608 H3594 0.960 . S
C3608 H3595 0.960 . S
C3608 C3607 1.524 . S
C3609 C3606 1.403 . S
C3609 C3610 1.392 . S
C3609 C3613 1.495 . S
C3610 C3609 1.392 . S
C3610 C3611 1.385 . S
C3610 C3612 1.478 . S
C3611 H3605 0.930 . S
C3611 C3607 1.400 . S
C3611 C3610 1.385 . S
C3612 C3610 1.478 . S
C3612 C3614 1.381 . S
C3612 C3618 1.383 . S
C3613 C3609 1.495 . S
C3613 H3619 0.959 . S
C3613 H3620 0.961 . S
C3613 H3621 0.960 . S
C3614 C3612 1.381 . S
C3614 C3615 1.394 . S
C3614 H3622 0.930 . S
C3615 C3614 1.394 . S
C3615 C3616 1.383 . S
C3615 H3623 0.929 . S
C3616 C3615 1.383 . S
C3616 C3617 1.377 . S
C3617 H3601 0.930 . S
C3617 C3616 1.377 . S
C3617 C3618 1.379 . S
C3618 H3602 0.931 . S
C3618 C3612 1.383 . S
C3618 C3617 1.379 . S
H3619 C3613 0.959 . S
H3620 C3613 0.961 . S
H3621 C3613 0.960 . S
H3622 C3614 0.930 . S
H3623 C3615 0.929 . S
H3624 C3632 0.929 . S
H3625 C3634 0.930 . S
H3626 C3636 0.930 . S
H3627 C3639 0.929 . S
H3628 C3642 0.930 . S
H3629 C3644 0.960 . S
H3630 C3644 0.960 1_655 S
H3631 C3644 0.960 . S
C3632 H3624 0.929 . S
C3632 C3633 1.377 1_655 S
C3632 C3634 1.384 . S
C3633 C3632 1.377 1_455 S
C3633 C3639 1.390 . S
C3634 H3625 0.930 . S
C3634 C3632 1.384 . S
C3634 C3635 1.372 1_655 S
C3635 C3634 1.372 1_455 S
C3635 C3636 1.400 . S
C3635 C3640 1.490 . S
C3636 H3626 0.930 . S
C3636 C3635 1.400 . S
C3636 C3639 1.386 . S
H3637 C3653 0.930 . S
H3638 C3654 0.931 . S
C3639 H3627 0.929 . S
C3639 C3633 1.390 . S
C3639 C3636 1.386 . S
C3640 C3635 1.490 . S
C3640 C3642 1.395 . S
C3640 C3643 1.403 . S
H3641 C3647 0.930 . S
C3642 H3628 0.930 . S
C3642 C3640 1.395 . S
C3642 C3645 1.403 . S
C3643 C3640 1.403 . S
C3643 C3644 1.524 . S
C3643 C3647 1.400 . S
C3644 H3629 0.960 . S
C3644 H3630 0.960 1_455 S
C3644 H3631 0.960 . S
C3644 C3643 1.524 . S
C3645 C3642 1.403 . S
C3645 C3646 1.392 . S
C3645 C3649 1.495 . S
C3646 C3645 1.392 . S
C3646 C3647 1.385 . S
C3646 C3648 1.478 . S
C3647 H3641 0.930 . S
C3647 C3643 1.400 . S
C3647 C3646 1.385 . S
C3648 C3646 1.478 . S
C3648 C3650 1.381 1_455 S
C3648 C3654 1.383 . S
C3649 C3645 1.495 . S
C3649 H3655 0.959 . S
C3649 H3656 0.961 . S
C3649 H3657 0.960 . S
C3650 C3648 1.381 1_655 S
C3650 C3651 1.394 . S
C3650 H3658 0.930 . S
C3651 C3650 1.394 . S
C3651 C3652 1.383 1_655 S
C3651 H3659 0.929 . S
C3652 C3651 1.383 1_455 S
C3652 C3653 1.377 . S
C3653 H3637 0.930 . S
C3653 C3652 1.377 . S
C3653 C3654 1.379 . S
C3654 H3638 0.931 . S
C3654 C3648 1.383 . S
C3654 C3653 1.379 . S
H3655 C3649 0.959 . S
H3656 C3649 0.961 . S
H3657 C3649 0.960 . S
H3658 C3650 0.930 . S
H3659 C3651 0.929 . S
H3660 C3668 0.929 . S
H3661 C3670 0.930 . S
H3662 C3672 0.930 . S
H3663 C3675 0.929 . S
H3664 C3678 0.930 . S
H3665 C3680 0.960 . S
H3666 C3680 0.960 . S
H3667 C3680 0.960 . S
C3668 H3660 0.929 . S
C3668 C3669 1.377 . S
C3668 C3670 1.384 . S
C3669 C3668 1.377 . S
C3669 C3675 1.390 . S
C3670 H3661 0.930 . S
C3670 C3668 1.384 . S
C3670 C3671 1.372 . S
C3671 C3670 1.372 . S
C3671 C3672 1.400 . S
C3671 C3676 1.490 . S
C3672 H3662 0.930 . S
C3672 C3671 1.400 . S
C3672 C3675 1.386 . S
H3673 C3689 0.930 . S
H3674 C3690 0.931 . S
C3675 H3663 0.929 . S
C3675 C3669 1.390 . S
C3675 C3672 1.386 . S
C3676 C3671 1.490 . S
C3676 C3678 1.395 . S
C3676 C3679 1.403 . S
H3677 C3683 0.930 . S
C3678 H3664 0.930 . S
C3678 C3676 1.395 . S
C3678 C3681 1.403 . S
C3679 C3676 1.403 . S
C3679 C3680 1.524 . S
C3679 C3683 1.400 . S
C3680 H3665 0.960 . S
C3680 H3666 0.960 . S
C3680 H3667 0.960 . S
C3680 C3679 1.524 . S
C3681 C3678 1.403 . S
C3681 C3682 1.392 . S
C3681 C3685 1.495 . S
C3682 C3681 1.392 . S
C3682 C3683 1.385 . S
C3682 C3684 1.478 . S
C3683 H3677 0.930 . S
C3683 C3679 1.400 . S
C3683 C3682 1.385 . S
C3684 C3682 1.478 . S
C3684 C3686 1.381 . S
C3684 C3690 1.383 . S
C3685 C3681 1.495 . S
C3685 H3691 0.959 . S
C3685 H3692 0.961 . S
C3685 H3693 0.960 . S
C3686 C3684 1.381 . S
C3686 C3687 1.394 . S
C3686 H3694 0.930 . S
C3687 C3686 1.394 . S
C3687 C3688 1.383 . S
C3687 H3695 0.929 . S
C3688 C3687 1.383 . S
C3688 C3689 1.377 . S
C3689 H3673 0.930 . S
C3689 C3688 1.377 . S
C3689 C3690 1.379 . S
C3690 H3674 0.931 . S
C3690 C3684 1.383 . S
C3690 C3689 1.379 . S
H3691 C3685 0.959 . S
H3692 C3685 0.961 . S
H3693 C3685 0.960 . S
H3694 C3686 0.930 . S
H3695 C3687 0.929 . S
H3696 C3704 0.929 . S
H3697 C3706 0.930 . S
H3698 C3708 0.930 . S
H3699 C3711 0.929 . S
H3700 C3714 0.930 . S
H3701 C3716 0.960 . S
H3702 C3716 0.960 . S
H3703 C3716 0.960 . S
C3704 H3696 0.929 . S
C3704 C3705 1.377 . S
C3704 C3706 1.384 . S
C3705 C3704 1.377 . S
C3705 C3711 1.390 . S
C3706 H3697 0.930 . S
C3706 C3704 1.384 . S
C3706 C3707 1.372 . S
C3707 C3706 1.372 . S
C3707 C3708 1.400 . S
C3707 C3712 1.490 . S
C3708 H3698 0.930 . S
C3708 C3707 1.400 . S
C3708 C3711 1.386 . S
H3709 C3725 0.930 . S
H3710 C3726 0.931 . S
C3711 H3699 0.929 . S
C3711 C3705 1.390 . S
C3711 C3708 1.386 . S
C3712 C3707 1.490 . S
C3712 C3714 1.395 . S
C3712 C3715 1.403 . S
H3713 C3719 0.930 . S
C3714 H3700 0.930 . S
C3714 C3712 1.395 . S
C3714 C3717 1.403 . S
C3715 C3712 1.403 . S
C3715 C3716 1.524 . S
C3715 C3719 1.400 . S
C3716 H3701 0.960 . S
C3716 H3702 0.960 . S
C3716 H3703 0.960 . S
C3716 C3715 1.524 . S
C3717 C3714 1.403 . S
C3717 C3718 1.392 . S
C3717 C3721 1.495 . S
C3718 C3717 1.392 . S
C3718 C3719 1.385 . S
C3718 C3720 1.478 . S
C3719 H3713 0.930 . S
C3719 C3715 1.400 . S
C3719 C3718 1.385 . S
C3720 C3718 1.478 . S
C3720 C3722 1.381 . S
C3720 C3726 1.383 . S
C3721 C3717 1.495 . S
C3721 H3727 0.959 . S
C3721 H3728 0.961 . S
C3721 H3729 0.960 . S
C3722 C3720 1.381 . S
C3722 C3723 1.394 . S
C3722 H3730 0.930 . S
C3723 C3722 1.394 . S
C3723 C3724 1.383 . S
C3723 H3731 0.929 . S
C3724 C3723 1.383 . S
C3724 C3725 1.377 . S
C3725 H3709 0.930 . S
C3725 C3724 1.377 . S
C3725 C3726 1.379 . S
C3726 H3710 0.931 . S
C3726 C3720 1.383 . S
C3726 C3725 1.379 . S
H3727 C3721 0.959 . S
H3728 C3721 0.961 . S
H3729 C3721 0.960 . S
H3730 C3722 0.930 . S
H3731 C3723 0.929 . S
H3732 C3740 0.901 1_554 S
H3733 C3742 0.930 . S
H3734 C3744 0.930 . S
H3735 C3747 0.929 . S
H3736 C3750 0.930 . S
H3737 C3752 0.960 . S
H3738 C3752 0.960 . S
H3739 C3752 0.960 . S
C3740 H3732 0.901 1_556 S
C3740 C3741 1.374 . S
C3740 C3742 1.416 . S
C3741 C3740 1.374 . S
C3741 C3747 1.390 . S
C3742 H3733 0.930 . S
C3742 C3740 1.416 . S
C3742 C3743 1.372 . S
C3743 C3742 1.372 . S
C3743 C3744 1.400 . S
C3743 C3748 1.490 . S
C3744 H3734 0.930 . S
C3744 C3743 1.400 . S
C3744 C3747 1.386 . S
H3745 C3761 0.930 . S
H3746 C3762 0.931 . S
C3747 H3735 0.929 . S
C3747 C3741 1.390 . S
C3747 C3744 1.386 . S
C3748 C3743 1.490 . S
C3748 C3750 1.395 . S
C3748 C3751 1.403 . S
H3749 C3755 0.930 . S
C3750 H3736 0.930 . S
C3750 C3748 1.395 . S
C3750 C3753 1.403 . S
C3751 C3748 1.403 . S
C3751 C3752 1.524 . S
C3751 C3755 1.400 . S
C3752 H3737 0.960 . S
C3752 H3738 0.960 . S
C3752 H3739 0.960 . S
C3752 C3751 1.524 . S
C3753 C3750 1.403 . S
C3753 C3754 1.392 . S
C3753 C3757 1.495 . S
C3754 C3753 1.392 . S
C3754 C3755 1.385 . S
C3754 C3756 1.478 . S
C3755 H3749 0.930 . S
C3755 C3751 1.400 . S
C3755 C3754 1.385 . S
C3756 C3754 1.478 . S
C3756 C3758 1.381 . S
C3756 C3762 1.383 . S
C3757 C3753 1.495 . S
C3757 H3763 0.959 . S
C3757 H3764 0.961 . S
C3757 H3765 0.960 . S
C3758 C3756 1.381 . S
C3758 C3759 1.394 . S
C3758 H3766 0.930 . S
C3759 C3758 1.394 . S
C3759 C3760 1.383 . S
C3759 H3767 0.929 . S
C3760 C3759 1.383 . S
C3760 C3761 1.377 . S
C3761 H3745 0.930 . S
C3761 C3760 1.377 . S
C3761 C3762 1.379 . S
C3762 H3746 0.931 . S
C3762 C3756 1.383 . S
C3762 C3761 1.379 . S
H3763 C3757 0.959 . S
H3764 C3757 0.961 . S
H3765 C3757 0.960 . S
H3766 C3758 0.930 . S
H3767 C3759 0.929 . S
H3768 C3776 0.929 . S
H3769 C3778 0.930 . S
H3770 C3780 0.930 . S
H3771 C3783 0.929 . S
H3772 C3786 0.930 . S
H3773 C3788 0.960 . S
H3774 C3788 0.960 . S
H3775 C3788 0.960 . S
C3776 H3768 0.929 . S
C3776 C3777 1.377 . S
C3776 C3778 1.384 . S
C3777 C3776 1.377 . S
C3777 C3783 1.390 . S
C3778 H3769 0.930 . S
C3778 C3776 1.384 . S
C3778 C3779 1.372 . S
C3779 C3778 1.372 . S
C3779 C3780 1.400 . S
C3779 C3784 1.490 . S
C3780 H3770 0.930 . S
C3780 C3779 1.400 . S
C3780 C3783 1.386 . S
H3781 C3797 0.930 . S
H3782 C3798 0.931 . S
C3783 H3771 0.929 . S
C3783 C3777 1.390 . S
C3783 C3780 1.386 . S
C3784 C3779 1.490 . S
C3784 C3786 1.395 . S
C3784 C3787 1.403 . S
H3785 C3791 0.930 . S
C3786 H3772 0.930 . S
C3786 C3784 1.395 . S
C3786 C3789 1.403 . S
C3787 C3784 1.403 . S
C3787 C3788 1.524 . S
C3787 C3791 1.400 . S
C3788 H3773 0.960 . S
C3788 H3774 0.960 . S
C3788 H3775 0.960 . S
C3788 C3787 1.524 . S
C3789 C3786 1.403 . S
C3789 C3790 1.392 . S
C3789 C3793 1.495 . S
C3790 C3789 1.392 . S
C3790 C3791 1.385 . S
C3790 C3792 1.478 . S
C3791 H3785 0.930 . S
C3791 C3787 1.400 . S
C3791 C3790 1.385 . S
C3792 C3790 1.478 . S
C3792 C3794 1.381 . S
C3792 C3798 1.383 . S
C3793 C3789 1.495 . S
C3793 H3799 0.959 . S
C3793 H3800 0.961 . S
C3793 H3801 0.960 . S
C3794 C3792 1.381 . S
C3794 C3795 1.394 . S
C3794 H3802 0.930 . S
C3795 C3794 1.394 . S
C3795 C3796 1.383 . S
C3795 H3803 0.929 . S
C3796 C3795 1.383 . S
C3796 C3797 1.377 . S
C3797 H3781 0.930 . S
C3797 C3796 1.377 . S
C3797 C3798 1.379 . S
C3798 H3782 0.931 . S
C3798 C3792 1.383 . S
C3798 C3797 1.379 . S
H3799 C3793 0.959 . S
H3800 C3793 0.961 . S
H3801 C3793 0.960 . S
H3802 C3794 0.930 . S
H3803 C3795 0.929 . S
H3804 C3812 0.929 . S
H3805 C3814 0.930 . S
H3806 C3816 0.930 . S
H3807 C3819 0.929 . S
H3808 C3822 0.930 . S
H3809 C3824 0.960 . S
H3810 C3824 0.960 . S
H3811 C3824 0.960 . S
C3812 H3804 0.929 . S
C3812 C3813 1.377 . S
C3812 C3814 1.384 . S
C3813 C3812 1.377 . S
C3813 C3819 1.390 . S
C3814 H3805 0.930 . S
C3814 C3812 1.384 . S
C3814 C3815 1.372 . S
C3815 C3814 1.372 . S
C3815 C3816 1.400 . S
C3815 C3820 1.490 . S
C3816 H3806 0.930 . S
C3816 C3815 1.400 . S
C3816 C3819 1.386 . S
H3817 C3833 0.930 . S
H3818 C3834 0.931 . S
C3819 H3807 0.929 . S
C3819 C3813 1.390 . S
C3819 C3816 1.386 . S
C3820 C3815 1.490 . S
C3820 C3822 1.395 . S
C3820 C3823 1.403 . S
H3821 C3827 0.930 . S
C3822 H3808 0.930 . S
C3822 C3820 1.395 . S
C3822 C3825 1.403 . S
C3823 C3820 1.403 . S
C3823 C3824 1.524 . S
C3823 C3827 1.400 . S
C3824 H3809 0.960 . S
C3824 H3810 0.960 . S
C3824 H3811 0.960 . S
C3824 C3823 1.524 . S
C3825 C3822 1.403 . S
C3825 C3826 1.392 . S
C3825 C3829 1.495 . S
C3826 C3825 1.392 . S
C3826 C3827 1.385 . S
C3826 C3828 1.478 . S
C3827 H3821 0.930 . S
C3827 C3823 1.400 . S
C3827 C3826 1.385 . S
C3828 C3826 1.478 . S
C3828 C3830 1.381 . S
C3828 C3834 1.383 . S
C3829 C3825 1.495 . S
C3829 H3835 0.959 . S
C3829 H3836 0.961 . S
C3829 H3837 0.960 . S
C3830 C3828 1.381 . S
C3830 C3831 1.394 . S
C3830 H3838 0.930 . S
C3831 C3830 1.394 . S
C3831 C3832 1.383 . S
C3831 H3839 0.929 . S
C3832 C3831 1.383 . S
C3832 C3833 1.377 . S
C3833 H3817 0.930 . S
C3833 C3832 1.377 . S
C3833 C3834 1.379 . S
C3834 H3818 0.931 . S
C3834 C3828 1.383 . S
C3834 C3833 1.379 . S
H3835 C3829 0.959 . S
H3836 C3829 0.961 . S
H3837 C3829 0.960 . S
H3838 C3830 0.930 . S
H3839 C3831 0.929 . S
H3840 C3848 0.929 . S
H3841 C3850 0.930 . S
H3842 C3852 0.930 . S
H3843 C3855 0.929 . S
H3844 C3858 0.930 . S
H3845 C3860 0.960 . S
H3846 C3860 0.960 . S
H3847 C3860 0.960 . S
C3848 H3840 0.929 . S
C3848 C3849 1.377 . S
C3848 C3850 1.384 . S
C3849 C3848 1.377 . S
C3849 C3855 1.390 . S
C3850 H3841 0.930 . S
C3850 C3848 1.384 . S
C3850 C3851 1.372 . S
C3851 C3850 1.372 . S
C3851 C3852 1.400 . S
C3851 C3856 1.490 . S
C3852 H3842 0.930 . S
C3852 C3851 1.400 . S
C3852 C3855 1.386 . S
H3853 C3869 0.930 . S
H3854 C3870 0.931 . S
C3855 H3843 0.929 . S
C3855 C3849 1.390 . S
C3855 C3852 1.386 . S
C3856 C3851 1.490 . S
C3856 C3858 1.395 . S
C3856 C3859 1.403 . S
H3857 C3863 0.930 . S
C3858 H3844 0.930 . S
C3858 C3856 1.395 . S
C3858 C3861 1.403 . S
C3859 C3856 1.403 . S
C3859 C3860 1.524 . S
C3859 C3863 1.400 . S
C3860 H3845 0.960 . S
C3860 H3846 0.960 . S
C3860 H3847 0.960 . S
C3860 C3859 1.524 . S
C3861 C3858 1.403 . S
C3861 C3862 1.392 . S
C3861 C3865 1.495 . S
C3862 C3861 1.392 . S
C3862 C3863 1.385 . S
C3862 C3864 1.478 . S
C3863 H3857 0.930 . S
C3863 C3859 1.400 . S
C3863 C3862 1.385 . S
C3864 C3862 1.478 . S
C3864 C3866 1.381 . S
C3864 C3870 1.383 . S
C3865 C3861 1.495 . S
C3865 H3871 0.959 . S
C3865 H3872 0.961 . S
C3865 H3873 0.960 . S
C3866 C3864 1.381 . S
C3866 C3867 1.394 . S
C3866 H3874 0.930 . S
C3867 C3866 1.394 . S
C3867 C3868 1.383 . S
C3867 H3875 0.929 . S
C3868 C3867 1.383 . S
C3868 C3869 1.377 . S
C3869 H3853 0.930 . S
C3869 C3868 1.377 . S
C3869 C3870 1.379 . S
C3870 H3854 0.931 . S
C3870 C3864 1.383 . S
C3870 C3869 1.379 . S
H3871 C3865 0.959 . S
H3872 C3865 0.961 . S
H3873 C3865 0.960 . S
H3874 C3866 0.930 . S
H3875 C3867 0.929 . S
H3876 C3884 0.929 . S
H3877 C3886 0.930 . S
H3878 C3888 0.930 . S
H3879 C3891 0.929 . S
H3880 C3894 0.930 . S
H3881 C3896 0.960 . S
H3882 C3896 0.960 . S
H3883 C3896 0.960 . S
C3884 H3876 0.929 . S
C3884 C3885 1.377 . S
C3884 C3886 1.384 . S
C3885 C3884 1.377 . S
C3885 C3891 1.390 . S
C3886 H3877 0.930 . S
C3886 C3884 1.384 . S
C3886 C3887 1.372 . S
C3887 C3886 1.372 . S
C3887 C3888 1.400 . S
C3887 C3892 1.490 . S
C3888 H3878 0.930 . S
C3888 C3887 1.400 . S
C3888 C3891 1.386 . S
H3889 C3905 0.930 . S
H3890 C3906 0.931 . S
C3891 H3879 0.929 . S
C3891 C3885 1.390 . S
C3891 C3888 1.386 . S
C3892 C3887 1.490 . S
C3892 C3894 1.395 . S
C3892 C3895 1.403 . S
H3893 C3899 0.930 . S
C3894 H3880 0.930 . S
C3894 C3892 1.395 . S
C3894 C3897 1.403 . S
C3895 C3892 1.403 . S
C3895 C3896 1.524 . S
C3895 C3899 1.400 . S
C3896 H3881 0.960 . S
C3896 H3882 0.960 . S
C3896 H3883 0.960 . S
C3896 C3895 1.524 . S
C3897 C3894 1.403 . S
C3897 C3898 1.392 . S
C3897 C3901 1.495 . S
C3898 C3897 1.392 . S
C3898 C3899 1.385 . S
C3898 C3900 1.478 . S
C3899 H3893 0.930 . S
C3899 C3895 1.400 . S
C3899 C3898 1.385 . S
C3900 C3898 1.478 . S
C3900 C3902 1.381 . S
C3900 C3906 1.383 . S
C3901 C3897 1.495 . S
C3901 H3907 0.959 . S
C3901 H3908 0.961 . S
C3901 H3909 0.960 . S
C3902 C3900 1.381 . S
C3902 C3903 1.394 . S
C3902 H3910 0.930 . S
C3903 C3902 1.394 . S
C3903 C3904 1.383 . S
C3903 H3911 0.929 . S
C3904 C3903 1.383 . S
C3904 C3905 1.377 . S
C3905 H3889 0.930 . S
C3905 C3904 1.377 . S
C3905 C3906 1.379 . S
C3906 H3890 0.931 . S
C3906 C3900 1.383 . S
C3906 C3905 1.379 . S
H3907 C3901 0.959 . S
H3908 C3901 0.961 . S
H3909 C3901 0.960 . S
H3910 C3902 0.930 . S
H3911 C3903 0.929 . S
H3912 C3920 0.929 . S
H3913 C3922 0.930 . S
H3914 C3924 0.930 . S
H3915 C3927 0.929 . S
H3916 C3930 0.930 . S
H3917 C3932 0.960 . S
H3918 C3932 0.960 . S
H3919 C3932 0.960 . S
C3920 H3912 0.929 . S
C3920 C3921 1.377 . S
C3920 C3922 1.384 . S
C3921 C3920 1.377 . S
C3921 C3927 1.390 . S
C3922 H3913 0.930 . S
C3922 C3920 1.384 . S
C3922 C3923 1.372 . S
C3923 C3922 1.372 . S
C3923 C3924 1.400 . S
C3923 C3928 1.490 . S
C3924 H3914 0.930 . S
C3924 C3923 1.400 . S
C3924 C3927 1.386 . S
H3925 C3941 0.930 . S
H3926 C3942 0.931 . S
C3927 H3915 0.929 . S
C3927 C3921 1.390 . S
C3927 C3924 1.386 . S
C3928 C3923 1.490 . S
C3928 C3930 1.395 . S
C3928 C3931 1.403 . S
H3929 C3935 0.930 . S
C3930 H3916 0.930 . S
C3930 C3928 1.395 . S
C3930 C3933 1.403 . S
C3931 C3928 1.403 . S
C3931 C3932 1.524 . S
C3931 C3935 1.400 . S
C3932 H3917 0.960 . S
C3932 H3918 0.960 . S
C3932 H3919 0.960 . S
C3932 C3931 1.524 . S
C3933 C3930 1.403 . S
C3933 C3934 1.392 . S
C3933 C3937 1.495 . S
C3934 C3933 1.392 . S
C3934 C3935 1.385 . S
C3934 C3936 1.478 . S
C3935 H3929 0.930 . S
C3935 C3931 1.400 . S
C3935 C3934 1.385 . S
C3936 C3934 1.478 . S
C3936 C3938 1.381 . S
C3936 C3942 1.383 . S
C3937 C3933 1.495 . S
C3937 H3943 0.959 . S
C3937 H3944 0.961 . S
C3937 H3945 0.960 . S
C3938 C3936 1.381 . S
C3938 C3939 1.394 . S
C3938 H3946 0.930 . S
C3939 C3938 1.394 . S
C3939 C3940 1.383 . S
C3939 H3947 0.929 . S
C3940 C3939 1.383 . S
C3940 C3941 1.377 . S
C3941 H3925 0.930 . S
C3941 C3940 1.377 . S
C3941 C3942 1.379 . S
C3942 H3926 0.931 . S
C3942 C3936 1.383 . S
C3942 C3941 1.379 . S
H3943 C3937 0.959 . S
H3944 C3937 0.961 . S
H3945 C3937 0.960 . S
H3946 C3938 0.930 . S
H3947 C3939 0.929 . S
H3948 C3956 0.929 . S
H3949 C3958 0.930 . S
H3950 C3960 0.930 . S
H3951 C3963 0.929 . S
H3952 C3966 0.930 . S
H3953 C3968 0.960 . S
H3954 C3968 0.960 . S
H3955 C3968 0.960 . S
C3956 H3948 0.929 . S
C3956 C3957 1.377 . S
C3956 C3958 1.384 . S
C3957 C3956 1.377 . S
C3957 C3963 1.390 . S
C3958 H3949 0.930 . S
C3958 C3956 1.384 . S
C3958 C3959 1.372 . S
C3959 C3958 1.372 . S
C3959 C3960 1.400 . S
C3959 C3964 1.490 . S
C3960 H3950 0.930 . S
C3960 C3959 1.400 . S
C3960 C3963 1.386 . S
H3961 C3977 0.930 . S
H3962 C3978 0.931 . S
C3963 H3951 0.929 . S
C3963 C3957 1.390 . S
C3963 C3960 1.386 . S
C3964 C3959 1.490 . S
C3964 C3966 1.395 . S
C3964 C3967 1.403 . S
H3965 C3971 0.930 . S
C3966 H3952 0.930 . S
C3966 C3964 1.395 . S
C3966 C3969 1.403 . S
C3967 C3964 1.403 . S
C3967 C3968 1.524 . S
C3967 C3971 1.400 . S
C3968 H3953 0.960 . S
C3968 H3954 0.960 . S
C3968 H3955 0.960 . S
C3968 C3967 1.524 . S
C3969 C3966 1.403 . S
C3969 C3970 1.392 . S
C3969 C3973 1.495 . S
C3970 C3969 1.392 . S
C3970 C3971 1.385 . S
C3970 C3972 1.478 . S
C3971 H3965 0.930 . S
C3971 C3967 1.400 . S
C3971 C3970 1.385 . S
C3972 C3970 1.478 . S
C3972 C3974 1.381 . S
C3972 C3978 1.383 . S
C3973 C3969 1.495 . S
C3973 H3979 0.959 . S
C3973 H3980 0.961 . S
C3973 H3981 0.960 . S
C3974 C3972 1.381 . S
C3974 C3975 1.394 . S
C3974 H3982 0.930 . S
C3975 C3974 1.394 . S
C3975 C3976 1.383 . S
C3975 H3983 0.929 . S
C3976 C3975 1.383 . S
C3976 C3977 1.377 . S
C3977 H3961 0.930 . S
C3977 C3976 1.377 . S
C3977 C3978 1.379 . S
C3978 H3962 0.931 . S
C3978 C3972 1.383 . S
C3978 C3977 1.379 . S
H3979 C3973 0.959 . S
H3980 C3973 0.961 . S
H3981 C3973 0.960 . S
H3982 C3974 0.930 . S
H3983 C3975 0.929 . S
H3984 C3992 0.929 . S
H3985 C3994 0.930 . S
H3986 C3996 0.930 . S
H3987 C3999 0.929 . S
H3988 C4002 0.930 . S
H3989 C4004 0.960 . S
H3990 C4004 0.960 . S
H3991 C4004 0.960 . S
C3992 H3984 0.929 . S
C3992 C3993 1.377 . S
C3992 C3994 1.384 . S
C3993 C3992 1.377 . S
C3993 C3999 1.390 . S
C3994 H3985 0.930 . S
C3994 C3992 1.384 . S
C3994 C3995 1.372 . S
C3995 C3994 1.372 . S
C3995 C3996 1.400 . S
C3995 C4000 1.490 . S
C3996 H3986 0.930 . S
C3996 C3995 1.400 . S
C3996 C3999 1.386 . S
H3997 C4013 0.930 . S
H3998 C4014 0.931 . S
C3999 H3987 0.929 . S
C3999 C3993 1.390 . S
C3999 C3996 1.386 . S
C4000 C3995 1.490 . S
C4000 C4002 1.395 . S
C4000 C4003 1.403 . S
H4001 C4007 0.930 . S
C4002 H3988 0.930 . S
C4002 C4000 1.395 . S
C4002 C4005 1.403 . S
C4003 C4000 1.403 . S
C4003 C4004 1.524 . S
C4003 C4007 1.400 . S
C4004 H3989 0.960 . S
C4004 H3990 0.960 . S
C4004 H3991 0.960 . S
C4004 C4003 1.524 . S
C4005 C4002 1.403 . S
C4005 C4006 1.392 . S
C4005 C4009 1.495 . S
C4006 C4005 1.392 . S
C4006 C4007 1.385 . S
C4006 C4008 1.478 . S
C4007 H4001 0.930 . S
C4007 C4003 1.400 . S
C4007 C4006 1.385 . S
C4008 C4006 1.478 . S
C4008 C4010 1.381 . S
C4008 C4014 1.383 . S
C4009 C4005 1.495 . S
C4009 H4015 0.959 . S
C4009 H4016 0.961 . S
C4009 H4017 0.960 . S
C4010 C4008 1.381 . S
C4010 C4011 1.394 . S
C4010 H4018 0.930 . S
C4011 C4010 1.394 . S
C4011 C4012 1.383 . S
C4011 H4019 0.929 . S
C4012 C4011 1.383 . S
C4012 C4013 1.377 . S
C4013 H3997 0.930 . S
C4013 C4012 1.377 . S
C4013 C4014 1.379 . S
C4014 H3998 0.931 . S
C4014 C4008 1.383 . S
C4014 C4013 1.379 . S
H4015 C4009 0.959 . S
H4016 C4009 0.961 . S
H4017 C4009 0.960 . S
H4018 C4010 0.930 . S
H4019 C4011 0.929 . S
H4020 C4028 0.929 . S
H4021 C4030 0.930 . S
H4022 C4032 0.930 . S
H4023 C4035 0.929 . S
H4024 C4038 0.930 . S
H4025 C4040 0.960 . S
H4026 C4040 0.960 . S
H4027 C4040 0.960 . S
C4028 H4020 0.929 . S
C4028 C4029 1.377 . S
C4028 C4030 1.384 . S
C4029 C4028 1.377 . S
C4029 C4035 1.390 . S
C4030 H4021 0.930 . S
C4030 C4028 1.384 . S
C4030 C4031 1.372 . S
C4031 C4030 1.372 . S
C4031 C4032 1.400 . S
C4031 C4036 1.490 . S
C4032 H4022 0.930 . S
C4032 C4031 1.400 . S
C4032 C4035 1.386 . S
H4033 C4049 0.930 . S
H4034 C4050 0.931 . S
C4035 H4023 0.929 . S
C4035 C4029 1.390 . S
C4035 C4032 1.386 . S
C4036 C4031 1.490 . S
C4036 C4038 1.395 . S
C4036 C4039 1.403 . S
H4037 C4043 0.930 . S
C4038 H4024 0.930 . S
C4038 C4036 1.395 . S
C4038 C4041 1.403 . S
C4039 C4036 1.403 . S
C4039 C4040 1.524 . S
C4039 C4043 1.400 . S
C4040 H4025 0.960 . S
C4040 H4026 0.960 . S
C4040 H4027 0.960 . S
C4040 C4039 1.524 . S
C4041 C4038 1.403 . S
C4041 C4042 1.392 . S
C4041 C4045 1.495 . S
C4042 C4041 1.392 . S
C4042 C4043 1.385 . S
C4042 C4044 1.478 . S
C4043 H4037 0.930 . S
C4043 C4039 1.400 . S
C4043 C4042 1.385 . S
C4044 C4042 1.478 . S
C4044 C4046 1.381 . S
C4044 C4050 1.383 . S
C4045 C4041 1.495 . S
C4045 H4051 0.959 . S
C4045 H4052 0.961 . S
C4045 H4053 0.960 . S
C4046 C4044 1.381 . S
C4046 C4047 1.394 . S
C4046 H4054 0.930 . S
C4047 C4046 1.394 . S
C4047 C4048 1.383 . S
C4047 H4055 0.929 . S
C4048 C4047 1.383 . S
C4048 C4049 1.377 . S
C4049 H4033 0.930 . S
C4049 C4048 1.377 . S
C4049 C4050 1.379 . S
C4050 H4034 0.931 . S
C4050 C4044 1.383 . S
C4050 C4049 1.379 . S
H4051 C4045 0.959 . S
H4052 C4045 0.961 . S
H4053 C4045 0.960 . S
H4054 C4046 0.930 . S
H4055 C4047 0.929 . S
H4056 C4064 0.929 . S
H4057 C4066 0.930 . S
H4058 C4068 0.930 . S
H4059 C4071 0.929 . S
H4060 C4074 0.930 . S
H4061 C4076 0.960 . S
H4062 C4076 0.960 . S
H4063 C4076 0.960 . S
C4064 H4056 0.929 . S
C4064 C4065 1.377 . S
C4064 C4066 1.384 . S
C4065 C4064 1.377 . S
C4065 C4071 1.390 . S
C4066 H4057 0.930 . S
C4066 C4064 1.384 . S
C4066 C4067 1.372 . S
C4067 C4066 1.372 . S
C4067 C4068 1.400 . S
C4067 C4072 1.490 . S
C4068 H4058 0.930 . S
C4068 C4067 1.400 . S
C4068 C4071 1.386 . S
H4069 C4085 0.930 . S
H4070 C4086 0.931 . S
C4071 H4059 0.929 . S
C4071 C4065 1.390 . S
C4071 C4068 1.386 . S
C4072 C4067 1.490 . S
C4072 C4074 1.395 . S
C4072 C4075 1.403 . S
H4073 C4079 0.930 . S
C4074 H4060 0.930 . S
C4074 C4072 1.395 . S
C4074 C4077 1.403 . S
C4075 C4072 1.403 . S
C4075 C4076 1.524 . S
C4075 C4079 1.400 . S
C4076 H4061 0.960 . S
C4076 H4062 0.960 . S
C4076 H4063 0.960 . S
C4076 C4075 1.524 . S
C4077 C4074 1.403 . S
C4077 C4078 1.392 . S
C4077 C4081 1.495 . S
C4078 C4077 1.392 . S
C4078 C4079 1.385 . S
C4078 C4080 1.478 . S
C4079 H4073 0.930 . S
C4079 C4075 1.400 . S
C4079 C4078 1.385 . S
C4080 C4078 1.478 . S
C4080 C4082 1.381 . S
C4080 C4086 1.383 . S
C4081 C4077 1.495 . S
C4081 H4087 0.959 . S
C4081 H4088 0.961 . S
C4081 H4089 0.960 . S
C4082 C4080 1.381 . S
C4082 C4083 1.394 . S
C4082 H4090 0.930 . S
C4083 C4082 1.394 . S
C4083 C4084 1.383 . S
C4083 H4091 0.929 . S
C4084 C4083 1.383 . S
C4084 C4085 1.377 . S
C4085 H4069 0.930 . S
C4085 C4084 1.377 . S
C4085 C4086 1.379 . S
C4086 H4070 0.931 . S
C4086 C4080 1.383 . S
C4086 C4085 1.379 . S
H4087 C4081 0.959 . S
H4088 C4081 0.961 . S
H4089 C4081 0.960 . S
H4090 C4082 0.930 . S
H4091 C4083 0.929 . S
H4092 C4100 0.929 . S
H4093 C4102 0.930 1_556 S
H4094 C4104 0.930 . S
H4095 C4107 0.929 . S
H4096 C4110 0.930 . S
H4097 C4112 0.960 . S
H4098 C4112 0.960 1_556 S
H4099 C4112 0.960 . S
C4100 H4092 0.929 . S
C4100 C4101 1.377 1_556 S
C4100 C4102 1.384 1_556 S
C4101 C4100 1.377 1_554 S
C4101 C4107 1.390 . S
C4102 H4093 0.930 1_554 S
C4102 C4100 1.384 1_554 S
C4102 C4103 1.372 . S
C4103 C4102 1.372 . S
C4103 C4104 1.400 . S
C4103 C4108 1.490 . S
C4104 H4094 0.930 . S
C4104 C4103 1.400 . S
C4104 C4107 1.386 . S
H4105 C4121 0.930 . S
H4106 C4122 0.931 . S
C4107 H4095 0.929 . S
C4107 C4101 1.390 . S
C4107 C4104 1.386 . S
C4108 C4103 1.490 . S
C4108 C4110 1.395 . S
C4108 C4111 1.403 . S
H4109 C4115 0.930 . S
C4110 H4096 0.930 . S
C4110 C4108 1.395 . S
C4110 C4113 1.403 . S
C4111 C4108 1.403 . S
C4111 C4112 1.524 . S
C4111 C4115 1.400 . S
C4112 H4097 0.960 . S
C4112 H4098 0.960 1_554 S
C4112 H4099 0.960 . S
C4112 C4111 1.524 . S
C4113 C4110 1.403 . S
C4113 C4114 1.392 . S
C4113 C4117 1.495 1_565 S
C4114 C4113 1.392 . S
C4114 C4115 1.385 . S
C4114 C4116 1.478 . S
C4115 H4109 0.930 . S
C4115 C4111 1.400 . S
C4115 C4114 1.385 . S
C4116 C4114 1.478 . S
C4116 C4118 1.381 1_565 S
C4116 C4122 1.383 . S
C4117 C4113 1.495 1_545 S
C4117 H4123 0.959 . S
C4117 H4124 0.961 . S
C4117 H4125 0.960 . S
C4118 C4116 1.381 1_545 S
C4118 C4119 1.394 . S
C4118 H4126 0.930 . S
C4119 C4118 1.394 . S
C4119 C4120 1.383 . S
C4119 H4127 0.929 . S
C4120 C4119 1.383 . S
C4120 C4121 1.377 1_545 S
C4121 H4105 0.930 . S
C4121 C4120 1.377 1_565 S
C4121 C4122 1.379 . S
C4122 H4106 0.931 . S
C4122 C4116 1.383 . S
C4122 C4121 1.379 . S
H4123 C4117 0.959 . S
H4124 C4117 0.961 . S
H4125 C4117 0.960 . S
H4126 C4118 0.930 . S
H4127 C4119 0.929 . S
H4128 C4136 0.929 . S
H4129 C4138 0.930 . S
H4130 C4140 0.930 . S
H4131 C4143 0.929 . S
H4132 C4146 0.930 . S
H4133 C4148 0.960 . S
H4134 C4148 0.960 . S
H4135 C4148 0.960 . S
C4136 H4128 0.929 . S
C4136 C4137 1.377 . S
C4136 C4138 1.384 . S
C4137 C4136 1.377 . S
C4137 C4143 1.390 . S
C4138 H4129 0.930 . S
C4138 C4136 1.384 . S
C4138 C4139 1.372 . S
C4139 C4138 1.372 . S
C4139 C4140 1.400 . S
C4139 C4144 1.490 . S
C4140 H4130 0.930 . S
C4140 C4139 1.400 . S
C4140 C4143 1.386 . S
H4141 C4157 0.930 . S
H4142 C4158 0.931 . S
C4143 H4131 0.929 . S
C4143 C4137 1.390 . S
C4143 C4140 1.386 . S
C4144 C4139 1.490 . S
C4144 C4146 1.395 . S
C4144 C4147 1.403 . S
H4145 C4151 0.930 . S
C4146 H4132 0.930 . S
C4146 C4144 1.395 . S
C4146 C4149 1.403 . S
C4147 C4144 1.403 . S
C4147 C4148 1.524 . S
C4147 C4151 1.400 . S
C4148 H4133 0.960 . S
C4148 H4134 0.960 . S
C4148 H4135 0.960 . S
C4148 C4147 1.524 . S
C4149 C4146 1.403 . S
C4149 C4150 1.392 . S
C4149 C4153 1.495 . S
C4150 C4149 1.392 . S
C4150 C4151 1.385 . S
C4150 C4152 1.478 . S
C4151 H4145 0.930 . S
C4151 C4147 1.400 . S
C4151 C4150 1.385 . S
C4152 C4150 1.478 . S
C4152 C4154 1.381 . S
C4152 C4158 1.383 . S
C4153 C4149 1.495 . S
C4153 H4159 0.959 . S
C4153 H4160 0.961 . S
C4153 H4161 0.960 . S
C4154 C4152 1.381 . S
C4154 C4155 1.394 . S
C4154 H4162 0.930 . S
C4155 C4154 1.394 . S
C4155 C4156 1.383 . S
C4155 H4163 0.929 . S
C4156 C4155 1.383 . S
C4156 C4157 1.377 . S
C4157 H4141 0.930 . S
C4157 C4156 1.377 . S
C4157 C4158 1.379 . S
C4158 H4142 0.931 . S
C4158 C4152 1.383 . S
C4158 C4157 1.379 . S
H4159 C4153 0.959 . S
H4160 C4153 0.961 . S
H4161 C4153 0.960 . S
H4162 C4154 0.930 . S
H4163 C4155 0.929 . S
H4164 C4172 0.929 . S
H4165 C4174 0.930 . S
H4166 C4176 0.930 . S
H4167 C4179 0.929 . S
H4168 C4182 0.930 . S
H4169 C4184 0.960 . S
H4170 C4184 0.960 . S
H4171 C4184 0.960 . S
C4172 H4164 0.929 . S
C4172 C4173 1.377 . S
C4172 C4174 1.384 . S
C4173 C4172 1.377 . S
C4173 C4179 1.390 . S
C4174 H4165 0.930 . S
C4174 C4172 1.384 . S
C4174 C4175 1.372 . S
C4175 C4174 1.372 . S
C4175 C4176 1.400 . S
C4175 C4180 1.490 . S
C4176 H4166 0.930 . S
C4176 C4175 1.400 . S
C4176 C4179 1.386 . S
H4177 C4193 0.930 . S
H4178 C4194 0.931 . S
C4179 H4167 0.929 . S
C4179 C4173 1.390 . S
C4179 C4176 1.386 . S
C4180 C4175 1.490 . S
C4180 C4182 1.395 . S
C4180 C4183 1.403 . S
H4181 C4187 0.930 . S
C4182 H4168 0.930 . S
C4182 C4180 1.395 . S
C4182 C4185 1.403 . S
C4183 C4180 1.403 . S
C4183 C4184 1.524 . S
C4183 C4187 1.400 . S
C4184 H4169 0.960 . S
C4184 H4170 0.960 . S
C4184 H4171 0.960 . S
C4184 C4183 1.524 . S
C4185 C4182 1.403 . S
C4185 C4186 1.392 . S
C4185 C4189 1.495 . S
C4186 C4185 1.392 . S
C4186 C4187 1.385 . S
C4186 C4188 1.478 . S
C4187 H4181 0.930 . S
C4187 C4183 1.400 . S
C4187 C4186 1.385 . S
C4188 C4186 1.478 . S
C4188 C4190 1.381 . S
C4188 C4194 1.383 . S
C4189 C4185 1.495 . S
C4189 H4195 0.959 . S
C4189 H4196 0.961 . S
C4189 H4197 0.960 . S
C4190 C4188 1.381 . S
C4190 C4191 1.394 . S
C4190 H4198 0.930 . S
C4191 C4190 1.394 . S
C4191 C4192 1.383 . S
C4191 H4199 0.929 . S
C4192 C4191 1.383 . S
C4192 C4193 1.377 . S
C4193 H4177 0.930 . S
C4193 C4192 1.377 . S
C4193 C4194 1.379 . S
C4194 H4178 0.931 . S
C4194 C4188 1.383 . S
C4194 C4193 1.379 . S
H4195 C4189 0.959 . S
H4196 C4189 0.961 . S
H4197 C4189 0.960 . S
H4198 C4190 0.930 . S
H4199 C4191 0.929 . S
H4200 C4208 0.929 . S
H4201 C4210 0.930 . S
H4202 C4212 0.930 . S
H4203 C4215 0.929 . S
H4204 C4218 0.930 . S
H4205 C4220 0.960 . S
H4206 C4220 0.960 . S
H4207 C4220 0.960 . S
C4208 H4200 0.929 . S
C4208 C4209 1.377 . S
C4208 C4210 1.384 . S
C4209 C4208 1.377 . S
C4209 C4215 1.390 . S
C4210 H4201 0.930 . S
C4210 C4208 1.384 . S
C4210 C4211 1.372 . S
C4211 C4210 1.372 . S
C4211 C4212 1.400 . S
C4211 C4216 1.490 . S
C4212 H4202 0.930 . S
C4212 C4211 1.400 . S
C4212 C4215 1.386 . S
H4213 C4229 0.930 . S
H4214 C4230 0.931 . S
C4215 H4203 0.929 . S
C4215 C4209 1.390 . S
C4215 C4212 1.386 . S
C4216 C4211 1.490 . S
C4216 C4218 1.395 . S
C4216 C4219 1.403 . S
H4217 C4223 0.930 . S
C4218 H4204 0.930 . S
C4218 C4216 1.395 . S
C4218 C4221 1.403 . S
C4219 C4216 1.403 . S
C4219 C4220 1.524 . S
C4219 C4223 1.400 . S
C4220 H4205 0.960 . S
C4220 H4206 0.960 . S
C4220 H4207 0.960 . S
C4220 C4219 1.524 . S
C4221 C4218 1.403 . S
C4221 C4222 1.392 . S
C4221 C4225 1.495 . S
C4222 C4221 1.392 . S
C4222 C4223 1.385 . S
C4222 C4224 1.478 . S
C4223 H4217 0.930 . S
C4223 C4219 1.400 . S
C4223 C4222 1.385 . S
C4224 C4222 1.478 . S
C4224 C4226 1.381 . S
C4224 C4230 1.383 . S
C4225 C4221 1.495 . S
C4225 H4231 0.959 . S
C4225 H4232 0.961 . S
C4225 H4233 0.960 . S
C4226 C4224 1.381 . S
C4226 C4227 1.394 . S
C4226 H4234 0.930 . S
C4227 C4226 1.394 . S
C4227 C4228 1.383 . S
C4227 H4235 0.929 . S
C4228 C4227 1.383 . S
C4228 C4229 1.377 . S
C4229 H4213 0.930 . S
C4229 C4228 1.377 . S
C4229 C4230 1.379 . S
C4230 H4214 0.931 . S
C4230 C4224 1.383 . S
C4230 C4229 1.379 . S
H4231 C4225 0.959 . S
H4232 C4225 0.961 . S
H4233 C4225 0.960 . S
H4234 C4226 0.930 . S
H4235 C4227 0.929 . S
H4236 C4244 0.929 . S
H4237 C4246 0.930 . S
H4238 C4248 0.930 . S
H4239 C4251 0.929 . S
H4240 C4254 0.930 . S
H4241 C4256 0.960 . S
H4242 C4256 0.960 . S
H4243 C4256 0.960 . S
C4244 H4236 0.929 . S
C4244 C4245 1.377 . S
C4244 C4246 1.384 . S
C4245 C4244 1.377 . S
C4245 C4251 1.390 . S
C4246 H4237 0.930 . S
C4246 C4244 1.384 . S
C4246 C4247 1.372 . S
C4247 C4246 1.372 . S
C4247 C4248 1.400 . S
C4247 C4252 1.490 . S
C4248 H4238 0.930 . S
C4248 C4247 1.400 . S
C4248 C4251 1.386 . S
H4249 C4265 0.930 . S
H4250 C4266 0.931 . S
C4251 H4239 0.929 . S
C4251 C4245 1.390 . S
C4251 C4248 1.386 . S
C4252 C4247 1.490 . S
C4252 C4254 1.395 . S
C4252 C4255 1.403 . S
H4253 C4259 0.930 . S
C4254 H4240 0.930 . S
C4254 C4252 1.395 . S
C4254 C4257 1.403 . S
C4255 C4252 1.403 . S
C4255 C4256 1.524 . S
C4255 C4259 1.400 . S
C4256 H4241 0.960 . S
C4256 H4242 0.960 . S
C4256 H4243 0.960 . S
C4256 C4255 1.524 . S
C4257 C4254 1.403 . S
C4257 C4258 1.392 . S
C4257 C4261 1.495 . S
C4258 C4257 1.392 . S
C4258 C4259 1.385 . S
C4258 C4260 1.478 . S
C4259 H4253 0.930 . S
C4259 C4255 1.400 . S
C4259 C4258 1.385 . S
C4260 C4258 1.478 . S
C4260 C4262 1.381 . S
C4260 C4266 1.383 . S
C4261 C4257 1.495 . S
C4261 H4267 0.959 . S
C4261 H4268 0.961 . S
C4261 H4269 0.960 . S
C4262 C4260 1.381 . S
C4262 C4263 1.394 . S
C4262 H4270 0.930 . S
C4263 C4262 1.394 . S
C4263 C4264 1.383 . S
C4263 H4271 0.929 . S
C4264 C4263 1.383 . S
C4264 C4265 1.377 . S
C4265 H4249 0.930 . S
C4265 C4264 1.377 . S
C4265 C4266 1.379 . S
C4266 H4250 0.931 . S
C4266 C4260 1.383 . S
C4266 C4265 1.379 . S
H4267 C4261 0.959 . S
H4268 C4261 0.961 . S
H4269 C4261 0.960 . S
H4270 C4262 0.930 . S
H4271 C4263 0.929 . S
H4272 C4280 0.929 . S
H4273 C4282 0.930 . S
H4274 C4284 0.930 . S
H4275 C4287 0.929 . S
H4276 C4290 0.930 . S
H4277 C4292 0.960 . S
H4278 C4292 0.960 . S
H4279 C4292 0.960 . S
C4280 H4272 0.929 . S
C4280 C4281 1.377 . S
C4280 C4282 1.384 . S
C4281 C4280 1.377 . S
C4281 C4287 1.390 . S
C4282 H4273 0.930 . S
C4282 C4280 1.384 . S
C4282 C4283 1.372 . S
C4283 C4282 1.372 . S
C4283 C4284 1.400 . S
C4283 C4288 1.490 . S
C4284 H4274 0.930 . S
C4284 C4283 1.400 . S
C4284 C4287 1.386 . S
H4285 C4301 0.930 . S
H4286 C4302 0.931 . S
C4287 H4275 0.929 . S
C4287 C4281 1.390 . S
C4287 C4284 1.386 . S
C4288 C4283 1.490 . S
C4288 C4290 1.395 . S
C4288 C4291 1.403 . S
H4289 C4295 0.930 . S
C4290 H4276 0.930 . S
C4290 C4288 1.395 . S
C4290 C4293 1.403 . S
C4291 C4288 1.403 . S
C4291 C4292 1.524 . S
C4291 C4295 1.400 . S
C4292 H4277 0.960 . S
C4292 H4278 0.960 . S
C4292 H4279 0.960 . S
C4292 C4291 1.524 . S
C4293 C4290 1.403 . S
C4293 C4294 1.392 . S
C4293 C4297 1.495 . S
C4294 C4293 1.392 . S
C4294 C4295 1.385 . S
C4294 C4296 1.478 . S
C4295 H4289 0.930 . S
C4295 C4291 1.400 . S
C4295 C4294 1.385 . S
C4296 C4294 1.478 . S
C4296 C4298 1.381 . S
C4296 C4302 1.383 . S
C4297 C4293 1.495 . S
C4297 H4303 0.959 . S
C4297 H4304 0.961 . S
C4297 H4305 0.960 . S
C4298 C4296 1.381 . S
C4298 C4299 1.394 . S
C4298 H4306 0.930 . S
C4299 C4298 1.394 . S
C4299 C4300 1.383 . S
C4299 H4307 0.929 . S
C4300 C4299 1.383 . S
C4300 C4301 1.377 . S
C4301 H4285 0.930 . S
C4301 C4300 1.377 . S
C4301 C4302 1.379 . S
C4302 H4286 0.931 . S
C4302 C4296 1.383 . S
C4302 C4301 1.379 . S
H4303 C4297 0.959 . S
H4304 C4297 0.961 . S
H4305 C4297 0.960 . S
H4306 C4298 0.930 . S
H4307 C4299 0.929 . S
H4308 C4316 0.929 . S
H4309 C4318 0.930 . S
H4310 C4320 0.930 . S
H4311 C4323 0.929 . S
H4312 C4326 0.930 . S
H4313 C4328 0.960 . S
H4314 C4328 0.960 . S
H4315 C4328 0.960 . S
C4316 H4308 0.929 . S
C4316 C4317 1.377 . S
C4316 C4318 1.384 . S
C4317 C4316 1.377 . S
C4317 C4323 1.390 . S
C4318 H4309 0.930 . S
C4318 C4316 1.384 . S
C4318 C4319 1.372 . S
C4319 C4318 1.372 . S
C4319 C4320 1.400 . S
C4319 C4324 1.490 . S
C4320 H4310 0.930 . S
C4320 C4319 1.400 . S
C4320 C4323 1.386 . S
H4321 C4337 0.930 . S
H4322 C4338 0.931 . S
C4323 H4311 0.929 . S
C4323 C4317 1.390 . S
C4323 C4320 1.386 . S
C4324 C4319 1.490 . S
C4324 C4326 1.395 . S
C4324 C4327 1.403 . S
H4325 C4331 0.930 . S
C4326 H4312 0.930 . S
C4326 C4324 1.395 . S
C4326 C4329 1.403 . S
C4327 C4324 1.403 . S
C4327 C4328 1.524 . S
C4327 C4331 1.400 . S
C4328 H4313 0.960 . S
C4328 H4314 0.960 . S
C4328 H4315 0.960 . S
C4328 C4327 1.524 . S
C4329 C4326 1.403 . S
C4329 C4330 1.392 . S
C4329 C4333 1.495 . S
C4330 C4329 1.392 . S
C4330 C4331 1.385 . S
C4330 C4332 1.478 . S
C4331 H4325 0.930 . S
C4331 C4327 1.400 . S
C4331 C4330 1.385 . S
C4332 C4330 1.478 . S
C4332 C4334 1.381 . S
C4332 C4338 1.383 . S
C4333 C4329 1.495 . S
C4333 H4339 0.959 . S
C4333 H4340 0.961 . S
C4333 H4341 0.960 . S
C4334 C4332 1.381 . S
C4334 C4335 1.394 . S
C4334 H4342 0.930 . S
C4335 C4334 1.394 . S
C4335 C4336 1.383 . S
C4335 H4343 0.929 . S
C4336 C4335 1.383 . S
C4336 C4337 1.377 . S
C4337 H4321 0.930 . S
C4337 C4336 1.377 . S
C4337 C4338 1.379 . S
C4338 H4322 0.931 . S
C4338 C4332 1.383 . S
C4338 C4337 1.379 . S
H4339 C4333 0.959 . S
H4340 C4333 0.961 . S
H4341 C4333 0.960 . S
H4342 C4334 0.930 . S
H4343 C4335 0.929 . S
H4344 C4352 0.929 . S
H4345 C4354 0.930 . S
H4346 C4356 0.930 . S
H4347 C4359 0.929 . S
H4348 C4362 0.930 . S
H4349 C4364 0.960 . S
H4350 C4364 0.960 . S
H4351 C4364 0.960 . S
C4352 H4344 0.929 . S
C4352 C4353 1.377 . S
C4352 C4354 1.384 . S
C4353 C4352 1.377 . S
C4353 C4359 1.390 . S
C4354 H4345 0.930 . S
C4354 C4352 1.384 . S
C4354 C4355 1.372 . S
C4355 C4354 1.372 . S
C4355 C4356 1.400 . S
C4355 C4360 1.490 . S
C4356 H4346 0.930 . S
C4356 C4355 1.400 . S
C4356 C4359 1.386 . S
H4357 C4373 0.930 . S
H4358 C4374 0.931 . S
C4359 H4347 0.929 . S
C4359 C4353 1.390 . S
C4359 C4356 1.386 . S
C4360 C4355 1.490 . S
C4360 C4362 1.395 . S
C4360 C4363 1.403 . S
H4361 C4367 0.930 . S
C4362 H4348 0.930 . S
C4362 C4360 1.395 . S
C4362 C4365 1.403 . S
C4363 C4360 1.403 . S
C4363 C4364 1.524 . S
C4363 C4367 1.400 . S
C4364 H4349 0.960 . S
C4364 H4350 0.960 . S
C4364 H4351 0.960 . S
C4364 C4363 1.524 . S
C4365 C4362 1.403 . S
C4365 C4366 1.392 . S
C4365 C4369 1.495 . S
C4366 C4365 1.392 . S
C4366 C4367 1.385 . S
C4366 C4368 1.478 . S
C4367 H4361 0.930 . S
C4367 C4363 1.400 . S
C4367 C4366 1.385 . S
C4368 C4366 1.478 . S
C4368 C4370 1.381 . S
C4368 C4374 1.383 . S
C4369 C4365 1.495 . S
C4369 H4375 0.959 . S
C4369 H4376 0.961 . S
C4369 H4377 0.960 . S
C4370 C4368 1.381 . S
C4370 C4371 1.394 . S
C4370 H4378 0.930 . S
C4371 C4370 1.394 . S
C4371 C4372 1.383 . S
C4371 H4379 0.929 . S
C4372 C4371 1.383 . S
C4372 C4373 1.377 . S
C4373 H4357 0.930 . S
C4373 C4372 1.377 . S
C4373 C4374 1.379 . S
C4374 H4358 0.931 . S
C4374 C4368 1.383 . S
C4374 C4373 1.379 . S
H4375 C4369 0.959 . S
H4376 C4369 0.961 . S
H4377 C4369 0.960 . S
H4378 C4370 0.930 . S
H4379 C4371 0.929 . S
H4380 C4388 0.929 . S
H4381 C4390 0.930 . S
H4382 C4392 0.930 . S
H4383 C4395 0.929 . S
H4384 C4398 0.930 . S
H4385 C4400 0.960 . S
H4386 C4400 0.960 . S
H4387 C4400 0.960 . S
C4388 H4380 0.929 . S
C4388 C4389 1.377 . S
C4388 C4390 1.384 . S
C4389 C4388 1.377 . S
C4389 C4395 1.390 . S
C4390 H4381 0.930 . S
C4390 C4388 1.384 . S
C4390 C4391 1.372 . S
C4391 C4390 1.372 . S
C4391 C4392 1.400 . S
C4391 C4396 1.490 . S
C4392 H4382 0.930 . S
C4392 C4391 1.400 . S
C4392 C4395 1.386 . S
H4393 C4409 0.930 . S
H4394 C4410 0.931 . S
C4395 H4383 0.929 . S
C4395 C4389 1.390 . S
C4395 C4392 1.386 . S
C4396 C4391 1.490 . S
C4396 C4398 1.395 . S
C4396 C4399 1.403 . S
H4397 C4403 0.930 . S
C4398 H4384 0.930 . S
C4398 C4396 1.395 . S
C4398 C4401 1.403 . S
C4399 C4396 1.403 . S
C4399 C4400 1.524 . S
C4399 C4403 1.400 . S
C4400 H4385 0.960 . S
C4400 H4386 0.960 . S
C4400 H4387 0.960 . S
C4400 C4399 1.524 . S
C4401 C4398 1.403 . S
C4401 C4402 1.392 . S
C4401 C4405 1.495 . S
C4402 C4401 1.392 . S
C4402 C4403 1.385 . S
C4402 C4404 1.478 . S
C4403 H4397 0.930 . S
C4403 C4399 1.400 . S
C4403 C4402 1.385 . S
C4404 C4402 1.478 . S
C4404 C4406 1.381 . S
C4404 C4410 1.383 . S
C4405 C4401 1.495 . S
C4405 H4411 0.959 . S
C4405 H4412 0.961 . S
C4405 H4413 0.960 . S
C4406 C4404 1.381 . S
C4406 C4407 1.394 . S
C4406 H4414 0.930 . S
C4407 C4406 1.394 . S
C4407 C4408 1.383 . S
C4407 H4415 0.929 . S
C4408 C4407 1.383 . S
C4408 C4409 1.377 . S
C4409 H4393 0.930 . S
C4409 C4408 1.377 . S
C4409 C4410 1.379 . S
C4410 H4394 0.931 . S
C4410 C4404 1.383 . S
C4410 C4409 1.379 . S
H4411 C4405 0.959 . S
H4412 C4405 0.961 . S
H4413 C4405 0.960 . S
H4414 C4406 0.930 . S
H4415 C4407 0.929 . S
H4416 C4424 0.929 . S
H4417 C4426 0.930 . S
H4418 C4428 0.930 . S
H4419 C4431 0.929 . S
H4420 C4434 0.930 . S
H4421 C4436 0.960 . S
H4422 C4436 0.960 . S
H4423 C4436 0.960 . S
C4424 H4416 0.929 . S
C4424 C4425 1.377 . S
C4424 C4426 1.384 . S
C4425 C4424 1.377 . S
C4425 C4431 1.390 . S
C4426 H4417 0.930 . S
C4426 C4424 1.384 . S
C4426 C4427 1.372 . S
C4427 C4426 1.372 . S
C4427 C4428 1.400 . S
C4427 C4432 1.490 . S
C4428 H4418 0.930 . S
C4428 C4427 1.400 . S
C4428 C4431 1.386 . S
H4429 C4445 0.930 . S
H4430 C4446 0.931 . S
C4431 H4419 0.929 . S
C4431 C4425 1.390 . S
C4431 C4428 1.386 . S
C4432 C4427 1.490 . S
C4432 C4434 1.395 . S
C4432 C4435 1.403 . S
H4433 C4439 0.930 . S
C4434 H4420 0.930 . S
C4434 C4432 1.395 . S
C4434 C4437 1.403 . S
C4435 C4432 1.403 . S
C4435 C4436 1.524 . S
C4435 C4439 1.400 . S
C4436 H4421 0.960 . S
C4436 H4422 0.960 . S
C4436 H4423 0.960 . S
C4436 C4435 1.524 . S
C4437 C4434 1.403 . S
C4437 C4438 1.392 . S
C4437 C4441 1.495 . S
C4438 C4437 1.392 . S
C4438 C4439 1.385 . S
C4438 C4440 1.478 . S
C4439 H4433 0.930 . S
C4439 C4435 1.400 . S
C4439 C4438 1.385 . S
C4440 C4438 1.478 . S
C4440 C4442 1.381 . S
C4440 C4446 1.383 . S
C4441 C4437 1.495 . S
C4441 H4447 0.959 . S
C4441 H4448 0.961 . S
C4441 H4449 0.960 . S
C4442 C4440 1.381 . S
C4442 C4443 1.394 . S
C4442 H4450 0.930 . S
C4443 C4442 1.394 . S
C4443 C4444 1.383 . S
C4443 H4451 0.929 . S
C4444 C4443 1.383 . S
C4444 C4445 1.377 . S
C4445 H4429 0.930 . S
C4445 C4444 1.377 . S
C4445 C4446 1.379 . S
C4446 H4430 0.931 . S
C4446 C4440 1.383 . S
C4446 C4445 1.379 . S
H4447 C4441 0.959 . S
H4448 C4441 0.961 . S
H4449 C4441 0.960 . S
H4450 C4442 0.930 . S
H4451 C4443 0.929 . S
H4452 C4460 0.929 . S
H4453 C4462 0.930 . S
H4454 C4464 0.930 . S
H4455 C4467 0.929 . S
H4456 C4470 0.930 . S
H4457 C4472 0.960 . S
H4458 C4472 0.960 . S
H4459 C4472 0.960 . S
C4460 H4452 0.929 . S
C4460 C4461 1.377 . S
C4460 C4462 1.384 . S
C4461 C4460 1.377 . S
C4461 C4467 1.390 . S
C4462 H4453 0.930 . S
C4462 C4460 1.384 . S
C4462 C4463 1.372 . S
C4463 C4462 1.372 . S
C4463 C4464 1.400 . S
C4463 C4468 1.490 . S
C4464 H4454 0.930 . S
C4464 C4463 1.400 . S
C4464 C4467 1.386 . S
H4465 C4481 0.930 . S
H4466 C4482 0.931 . S
C4467 H4455 0.929 . S
C4467 C4461 1.390 . S
C4467 C4464 1.386 . S
C4468 C4463 1.490 . S
C4468 C4470 1.395 . S
C4468 C4471 1.403 . S
H4469 C4475 0.930 . S
C4470 H4456 0.930 . S
C4470 C4468 1.395 . S
C4470 C4473 1.403 . S
C4471 C4468 1.403 . S
C4471 C4472 1.524 . S
C4471 C4475 1.400 . S
C4472 H4457 0.960 . S
C4472 H4458 0.960 . S
C4472 H4459 0.960 . S
C4472 C4471 1.524 . S
C4473 C4470 1.403 . S
C4473 C4474 1.392 . S
C4473 C4477 1.495 . S
C4474 C4473 1.392 . S
C4474 C4475 1.385 . S
C4474 C4476 1.478 . S
C4475 H4469 0.930 . S
C4475 C4471 1.400 . S
C4475 C4474 1.385 . S
C4476 C4474 1.478 . S
C4476 C4478 1.381 . S
C4476 C4482 1.383 . S
C4477 C4473 1.495 . S
C4477 H4483 0.959 . S
C4477 H4484 0.961 . S
C4477 H4485 0.960 . S
C4478 C4476 1.381 . S
C4478 C4479 1.394 . S
C4478 H4486 0.930 . S
C4479 C4478 1.394 . S
C4479 C4480 1.383 . S
C4479 H4487 0.929 . S
C4480 C4479 1.383 . S
C4480 C4481 1.377 . S
C4481 H4465 0.930 . S
C4481 C4480 1.377 . S
C4481 C4482 1.379 . S
C4482 H4466 0.931 . S
C4482 C4476 1.383 . S
C4482 C4481 1.379 . S
H4483 C4477 0.959 . S
H4484 C4477 0.961 . S
H4485 C4477 0.960 . S
H4486 C4478 0.930 . S
H4487 C4479 0.929 . S
H4488 C4496 0.929 . S
H4489 C4498 0.930 . S
H4490 C4500 0.930 . S
H4491 C4503 0.929 . S
H4492 C4506 0.930 . S
H4493 C4508 0.960 . S
H4494 C4508 0.960 . S
H4495 C4508 0.960 . S
C4496 H4488 0.929 . S
C4496 C4497 1.377 . S
C4496 C4498 1.384 . S
C4497 C4496 1.377 . S
C4497 C4503 1.390 . S
C4498 H4489 0.930 . S
C4498 C4496 1.384 . S
C4498 C4499 1.372 . S
C4499 C4498 1.372 . S
C4499 C4500 1.400 . S
C4499 C4504 1.490 . S
C4500 H4490 0.930 . S
C4500 C4499 1.400 . S
C4500 C4503 1.386 . S
H4501 C4517 0.930 1_655 S
H4502 C4518 0.931 . S
C4503 H4491 0.929 . S
C4503 C4497 1.390 . S
C4503 C4500 1.386 . S
C4504 C4499 1.490 . S
C4504 C4506 1.395 . S
C4504 C4507 1.403 . S
H4505 C4511 0.930 . S
C4506 H4492 0.930 . S
C4506 C4504 1.395 . S
C4506 C4509 1.403 . S
C4507 C4504 1.403 . S
C4507 C4508 1.524 . S
C4507 C4511 1.400 . S
C4508 H4493 0.960 . S
C4508 H4494 0.960 . S
C4508 H4495 0.960 . S
C4508 C4507 1.524 . S
C4509 C4506 1.403 . S
C4509 C4510 1.392 . S
C4509 C4513 1.495 . S
C4510 C4509 1.392 . S
C4510 C4511 1.385 . S
C4510 C4512 1.478 . S
C4511 H4505 0.930 . S
C4511 C4507 1.400 . S
C4511 C4510 1.385 . S
C4512 C4510 1.478 . S
C4512 C4514 1.381 . S
C4512 C4518 1.383 . S
C4513 C4509 1.495 . S
C4513 H4519 0.959 . S
C4513 H4520 0.961 . S
C4513 H4521 0.960 . S
C4514 C4512 1.381 . S
C4514 C4515 1.394 . S
C4514 H4522 0.930 . S
C4515 C4514 1.394 . S
C4515 C4516 1.383 . S
C4515 H4523 0.929 . S
C4516 C4515 1.383 . S
C4516 C4517 1.377 . S
C4517 H4501 0.930 1_455 S
C4517 C4516 1.377 . S
C4517 C4518 1.379 . S
C4518 H4502 0.931 . S
C4518 C4512 1.383 . S
C4518 C4517 1.379 . S
H4519 C4513 0.959 . S
H4520 C4513 0.961 . S
H4521 C4513 0.960 . S
H4522 C4514 0.930 . S
H4523 C4515 0.929 . S
H4524 C4532 0.929 . S
H4525 C4534 0.930 . S
H4526 C4536 0.930 . S
H4527 C4539 0.929 . S
H4528 C4542 0.930 . S
H4529 C4544 0.960 . S
H4530 C4544 0.960 . S
H4531 C4544 0.960 . S
C4532 H4524 0.929 . S
C4532 C4533 1.377 . S
C4532 C4534 1.384 . S
C4533 C4532 1.377 . S
C4533 C4539 1.390 . S
C4534 H4525 0.930 . S
C4534 C4532 1.384 . S
C4534 C4535 1.372 . S
C4535 C4534 1.372 . S
C4535 C4536 1.400 . S
C4535 C4540 1.490 . S
C4536 H4526 0.930 . S
C4536 C4535 1.400 . S
C4536 C4539 1.386 . S
H4537 C4553 0.930 . S
H4538 C4554 0.931 . S
C4539 H4527 0.929 . S
C4539 C4533 1.390 . S
C4539 C4536 1.386 . S
C4540 C4535 1.490 . S
C4540 C4542 1.395 . S
C4540 C4543 1.403 . S
H4541 C4547 0.930 . S
C4542 H4528 0.930 . S
C4542 C4540 1.395 . S
C4542 C4545 1.403 . S
C4543 C4540 1.403 . S
C4543 C4544 1.524 . S
C4543 C4547 1.400 . S
C4544 H4529 0.960 . S
C4544 H4530 0.960 . S
C4544 H4531 0.960 . S
C4544 C4543 1.524 . S
C4545 C4542 1.403 . S
C4545 C4546 1.392 . S
C4545 C4549 1.495 . S
C4546 C4545 1.392 . S
C4546 C4547 1.385 . S
C4546 C4548 1.478 . S
C4547 H4541 0.930 . S
C4547 C4543 1.400 . S
C4547 C4546 1.385 . S
C4548 C4546 1.478 . S
C4548 C4550 1.381 . S
C4548 C4554 1.383 . S
C4549 C4545 1.495 . S
C4549 H4555 0.959 . S
C4549 H4556 0.961 . S
C4549 H4557 0.960 . S
C4550 C4548 1.381 . S
C4550 C4551 1.394 . S
C4550 H4558 0.930 . S
C4551 C4550 1.394 . S
C4551 C4552 1.383 . S
C4551 H4559 0.929 . S
C4552 C4551 1.383 . S
C4552 C4553 1.377 . S
C4553 H4537 0.930 . S
C4553 C4552 1.377 . S
C4553 C4554 1.379 . S
C4554 H4538 0.931 . S
C4554 C4548 1.383 . S
C4554 C4553 1.379 . S
H4555 C4549 0.959 . S
H4556 C4549 0.961 . S
H4557 C4549 0.960 . S
H4558 C4550 0.930 . S
H4559 C4551 0.929 . S
H4560 C4568 0.929 . S
H4561 C4570 0.930 . S
H4562 C4572 0.930 . S
H4563 C4575 0.929 . S
H4564 C4578 0.930 . S
H4565 C4580 0.960 . S
H4566 C4580 0.960 . S
H4567 C4580 0.960 . S
C4568 H4560 0.929 . S
C4568 C4569 1.377 . S
C4568 C4570 1.384 . S
C4569 C4568 1.377 . S
C4569 C4575 1.390 . S
C4570 H4561 0.930 . S
C4570 C4568 1.384 . S
C4570 C4571 1.372 . S
C4571 C4570 1.372 . S
C4571 C4572 1.400 . S
C4571 C4576 1.490 . S
C4572 H4562 0.930 . S
C4572 C4571 1.400 . S
C4572 C4575 1.386 . S
H4573 C4589 0.930 . S
H4574 C4590 0.931 . S
C4575 H4563 0.929 . S
C4575 C4569 1.390 . S
C4575 C4572 1.386 . S
C4576 C4571 1.490 . S
C4576 C4578 1.395 . S
C4576 C4579 1.403 . S
H4577 C4583 0.930 . S
C4578 H4564 0.930 . S
C4578 C4576 1.395 . S
C4578 C4581 1.403 . S
C4579 C4576 1.403 . S
C4579 C4580 1.524 . S
C4579 C4583 1.400 . S
C4580 H4565 0.960 . S
C4580 H4566 0.960 . S
C4580 H4567 0.960 . S
C4580 C4579 1.524 . S
C4581 C4578 1.403 . S
C4581 C4582 1.392 . S
C4581 C4585 1.495 . S
C4582 C4581 1.392 . S
C4582 C4583 1.385 . S
C4582 C4584 1.478 . S
C4583 H4577 0.930 . S
C4583 C4579 1.400 . S
C4583 C4582 1.385 . S
C4584 C4582 1.478 . S
C4584 C4586 1.381 . S
C4584 C4590 1.383 . S
C4585 C4581 1.495 . S
C4585 H4591 0.959 . S
C4585 H4592 0.961 . S
C4585 H4593 0.960 . S
C4586 C4584 1.381 . S
C4586 C4587 1.394 . S
C4586 H4594 0.930 . S
C4587 C4586 1.394 . S
C4587 C4588 1.383 . S
C4587 H4595 0.929 . S
C4588 C4587 1.383 . S
C4588 C4589 1.377 . S
C4589 H4573 0.930 . S
C4589 C4588 1.377 . S
C4589 C4590 1.379 . S
C4590 H4574 0.931 . S
C4590 C4584 1.383 . S
C4590 C4589 1.379 . S
H4591 C4585 0.959 . S
H4592 C4585 0.961 . S
H4593 C4585 0.960 . S
H4594 C4586 0.930 . S
H4595 C4587 0.929 . S
H4596 C4604 0.929 . S
H4597 C4606 0.930 . S
H4598 C4608 0.930 . S
H4599 C4611 0.929 . S
H4600 C4614 0.930 . S
H4601 C4616 0.960 . S
H4602 C4616 0.960 . S
H4603 C4616 0.960 . S
C4604 H4596 0.929 . S
C4604 C4605 1.377 . S
C4604 C4606 1.384 . S
C4605 C4604 1.377 . S
C4605 C4611 1.390 . S
C4606 H4597 0.930 . S
C4606 C4604 1.384 . S
C4606 C4607 1.372 . S
C4607 C4606 1.372 . S
C4607 C4608 1.400 . S
C4607 C4612 1.490 . S
C4608 H4598 0.930 . S
C4608 C4607 1.400 . S
C4608 C4611 1.386 . S
H4609 C4625 0.930 . S
H4610 C4626 0.931 . S
C4611 H4599 0.929 . S
C4611 C4605 1.390 . S
C4611 C4608 1.386 . S
C4612 C4607 1.490 . S
C4612 C4614 1.395 . S
C4612 C4615 1.403 . S
H4613 C4619 0.930 . S
C4614 H4600 0.930 . S
C4614 C4612 1.395 . S
C4614 C4617 1.403 . S
C4615 C4612 1.403 . S
C4615 C4616 1.524 . S
C4615 C4619 1.400 . S
C4616 H4601 0.960 . S
C4616 H4602 0.960 . S
C4616 H4603 0.960 . S
C4616 C4615 1.524 . S
C4617 C4614 1.403 . S
C4617 C4618 1.392 . S
C4617 C4621 1.495 . S
C4618 C4617 1.392 . S
C4618 C4619 1.385 . S
C4618 C4620 1.478 . S
C4619 H4613 0.930 . S
C4619 C4615 1.400 . S
C4619 C4618 1.385 . S
C4620 C4618 1.478 . S
C4620 C4622 1.381 . S
C4620 C4626 1.383 . S
C4621 C4617 1.495 . S
C4621 H4627 0.959 . S
C4621 H4628 0.961 . S
C4621 H4629 0.960 . S
C4622 C4620 1.381 . S
C4622 C4623 1.394 . S
C4622 H4630 0.930 . S
C4623 C4622 1.394 . S
C4623 C4624 1.383 . S
C4623 H4631 0.929 . S
C4624 C4623 1.383 . S
C4624 C4625 1.377 . S
C4625 H4609 0.930 . S
C4625 C4624 1.377 . S
C4625 C4626 1.379 . S
C4626 H4610 0.931 . S
C4626 C4620 1.383 . S
C4626 C4625 1.379 . S
H4627 C4621 0.959 . S
H4628 C4621 0.961 . S
H4629 C4621 0.960 . S
H4630 C4622 0.930 . S
H4631 C4623 0.929 . S
H4632 C4640 0.929 . S
H4633 C4642 0.930 . S
H4634 C4644 0.930 . S
H4635 C4647 0.929 . S
H4636 C4650 0.930 . S
H4637 C4652 0.960 . S
H4638 C4652 0.960 . S
H4639 C4652 0.960 . S
C4640 H4632 0.929 . S
C4640 C4641 1.377 . S
C4640 C4642 1.384 . S
C4641 C4640 1.377 . S
C4641 C4647 1.390 . S
C4642 H4633 0.930 . S
C4642 C4640 1.384 . S
C4642 C4643 1.372 . S
C4643 C4642 1.372 . S
C4643 C4644 1.400 . S
C4643 C4648 1.490 . S
C4644 H4634 0.930 . S
C4644 C4643 1.400 . S
C4644 C4647 1.386 . S
H4645 C4661 0.930 1_455 S
H4646 C4662 0.931 . S
C4647 H4635 0.929 . S
C4647 C4641 1.390 . S
C4647 C4644 1.386 . S
C4648 C4643 1.490 . S
C4648 C4650 1.395 . S
C4648 C4651 1.403 . S
H4649 C4655 0.930 . S
C4650 H4636 0.930 . S
C4650 C4648 1.395 . S
C4650 C4653 1.403 . S
C4651 C4648 1.403 . S
C4651 C4652 1.524 . S
C4651 C4655 1.400 . S
C4652 H4637 0.960 . S
C4652 H4638 0.960 . S
C4652 H4639 0.960 . S
C4652 C4651 1.524 . S
C4653 C4650 1.403 . S
C4653 C4654 1.392 . S
C4653 C4657 1.495 . S
C4654 C4653 1.392 . S
C4654 C4655 1.385 . S
C4654 C4656 1.478 . S
C4655 H4649 0.930 . S
C4655 C4651 1.400 . S
C4655 C4654 1.385 . S
C4656 C4654 1.478 . S
C4656 C4658 1.381 . S
C4656 C4662 1.383 . S
C4657 C4653 1.495 . S
C4657 H4663 0.959 . S
C4657 H4664 0.961 . S
C4657 H4665 0.960 . S
C4658 C4656 1.381 . S
C4658 C4659 1.394 1_556 S
C4658 H4666 0.930 . S
C4659 C4658 1.394 1_554 S
C4659 C4660 1.383 . S
C4659 H4667 0.929 . S
C4660 C4659 1.383 . S
C4660 C4661 1.377 1_554 S
C4661 H4645 0.930 1_655 S
C4661 C4660 1.377 1_556 S
C4661 C4662 1.379 . S
C4662 H4646 0.931 . S
C4662 C4656 1.383 . S
C4662 C4661 1.379 . S
H4663 C4657 0.959 . S
H4664 C4657 0.961 . S
H4665 C4657 0.960 . S
H4666 C4658 0.930 . S
H4667 C4659 0.929 . S
H4668 C4676 0.929 . S
H4669 C4678 0.930 . S
H4670 C4680 0.930 . S
H4671 C4683 0.929 . S
H4672 C4686 0.930 . S
H4673 C4688 0.960 . S
H4674 C4688 0.960 . S
H4675 C4688 0.960 . S
C4676 H4668 0.929 . S
C4676 C4677 1.377 . S
C4676 C4678 1.384 . S
C4677 C4676 1.377 . S
C4677 C4683 1.390 . S
C4678 H4669 0.930 . S
C4678 C4676 1.384 . S
C4678 C4679 1.372 . S
C4679 C4678 1.372 . S
C4679 C4680 1.400 . S
C4679 C4684 1.490 . S
C4680 H4670 0.930 . S
C4680 C4679 1.400 . S
C4680 C4683 1.386 . S
H4681 C4697 0.930 . S
H4682 C4698 0.931 . S
C4683 H4671 0.929 . S
C4683 C4677 1.390 . S
C4683 C4680 1.386 . S
C4684 C4679 1.490 . S
C4684 C4686 1.395 . S
C4684 C4687 1.403 . S
H4685 C4691 0.930 . S
C4686 H4672 0.930 . S
C4686 C4684 1.395 . S
C4686 C4689 1.403 . S
C4687 C4684 1.403 . S
C4687 C4688 1.524 . S
C4687 C4691 1.400 . S
C4688 H4673 0.960 . S
C4688 H4674 0.960 . S
C4688 H4675 0.960 . S
C4688 C4687 1.524 . S
C4689 C4686 1.403 . S
C4689 C4690 1.392 . S
C4689 C4693 1.495 . S
C4690 C4689 1.392 . S
C4690 C4691 1.385 . S
C4690 C4692 1.478 . S
C4691 H4685 0.930 . S
C4691 C4687 1.400 . S
C4691 C4690 1.385 . S
C4692 C4690 1.478 . S
C4692 C4694 1.381 . S
C4692 C4698 1.383 . S
C4693 C4689 1.495 . S
C4693 H4699 0.959 . S
C4693 H4700 0.961 . S
C4693 H4701 0.960 . S
C4694 C4692 1.381 . S
C4694 C4695 1.394 . S
C4694 H4702 0.930 . S
C4695 C4694 1.394 . S
C4695 C4696 1.383 . S
C4695 H4703 0.929 . S
C4696 C4695 1.383 . S
C4696 C4697 1.377 . S
C4697 H4681 0.930 . S
C4697 C4696 1.377 . S
C4697 C4698 1.379 . S
C4698 H4682 0.931 . S
C4698 C4692 1.383 . S
C4698 C4697 1.379 . S
H4699 C4693 0.959 . S
H4700 C4693 0.961 . S
H4701 C4693 0.960 . S
H4702 C4694 0.930 . S
H4703 C4695 0.929 . S
H4704 C4712 0.929 . S
H4705 C4714 0.930 . S
H4706 C4716 0.930 . S
H4707 C4719 0.929 . S
H4708 C4722 0.930 . S
H4709 C4724 0.960 . S
H4710 C4724 0.960 . S
H4711 C4724 0.960 . S
C4712 H4704 0.929 . S
C4712 C4713 1.377 . S
C4712 C4714 1.384 . S
C4713 C4712 1.377 . S
C4713 C4719 1.390 . S
C4714 H4705 0.930 . S
C4714 C4712 1.384 . S
C4714 C4715 1.372 . S
C4715 C4714 1.372 . S
C4715 C4716 1.400 . S
C4715 C4720 1.490 . S
C4716 H4706 0.930 . S
C4716 C4715 1.400 . S
C4716 C4719 1.386 . S
H4717 C4733 0.930 . S
H4718 C4734 0.931 . S
C4719 H4707 0.929 . S
C4719 C4713 1.390 . S
C4719 C4716 1.386 . S
C4720 C4715 1.490 . S
C4720 C4722 1.395 . S
C4720 C4723 1.403 . S
H4721 C4727 0.930 . S
C4722 H4708 0.930 . S
C4722 C4720 1.395 . S
C4722 C4725 1.403 . S
C4723 C4720 1.403 . S
C4723 C4724 1.524 . S
C4723 C4727 1.400 . S
C4724 H4709 0.960 . S
C4724 H4710 0.960 . S
C4724 H4711 0.960 . S
C4724 C4723 1.524 . S
C4725 C4722 1.403 . S
C4725 C4726 1.392 . S
C4725 C4729 1.495 . S
C4726 C4725 1.392 . S
C4726 C4727 1.385 . S
C4726 C4728 1.478 . S
C4727 H4721 0.930 . S
C4727 C4723 1.400 . S
C4727 C4726 1.385 . S
C4728 C4726 1.478 . S
C4728 C4730 1.381 . S
C4728 C4734 1.383 . S
C4729 C4725 1.495 . S
C4729 H4735 0.959 . S
C4729 H4736 0.961 . S
C4729 H4737 0.960 . S
C4730 C4728 1.381 . S
C4730 C4731 1.394 . S
C4730 H4738 0.930 . S
C4731 C4730 1.394 . S
C4731 C4732 1.383 . S
C4731 H4739 0.929 . S
C4732 C4731 1.383 . S
C4732 C4733 1.377 . S
C4733 H4717 0.930 . S
C4733 C4732 1.377 . S
C4733 C4734 1.379 . S
C4734 H4718 0.931 . S
C4734 C4728 1.383 . S
C4734 C4733 1.379 . S
H4735 C4729 0.959 . S
H4736 C4729 0.961 . S
H4737 C4729 0.960 . S
H4738 C4730 0.930 . S
H4739 C4731 0.929 . S
H4740 C4748 0.929 . S
H4741 C4750 0.930 . S
H4742 C4752 0.930 . S
H4743 C4755 0.929 . S
H4744 C4758 0.930 . S
H4745 C4760 0.960 . S
H4746 C4760 0.960 . S
H4747 C4760 0.960 . S
C4748 H4740 0.929 . S
C4748 C4749 1.377 . S
C4748 C4750 1.384 . S
C4749 C4748 1.377 . S
C4749 C4755 1.390 . S
C4750 H4741 0.930 . S
C4750 C4748 1.384 . S
C4750 C4751 1.372 . S
C4751 C4750 1.372 . S
C4751 C4752 1.400 . S
C4751 C4756 1.490 . S
C4752 H4742 0.930 . S
C4752 C4751 1.400 . S
C4752 C4755 1.386 . S
H4753 C4769 0.930 . S
H4754 C4770 0.931 . S
C4755 H4743 0.929 . S
C4755 C4749 1.390 . S
C4755 C4752 1.386 . S
C4756 C4751 1.490 . S
C4756 C4758 1.395 . S
C4756 C4759 1.403 . S
H4757 C4763 0.930 . S
C4758 H4744 0.930 . S
C4758 C4756 1.395 . S
C4758 C4761 1.403 . S
C4759 C4756 1.403 . S
C4759 C4760 1.524 . S
C4759 C4763 1.400 . S
C4760 H4745 0.960 . S
C4760 H4746 0.960 . S
C4760 H4747 0.960 . S
C4760 C4759 1.524 . S
C4761 C4758 1.403 . S
C4761 C4762 1.392 . S
C4761 C4765 1.495 . S
C4762 C4761 1.392 . S
C4762 C4763 1.385 . S
C4762 C4764 1.478 . S
C4763 H4757 0.930 . S
C4763 C4759 1.400 . S
C4763 C4762 1.385 . S
C4764 C4762 1.478 . S
C4764 C4766 1.381 . S
C4764 C4770 1.383 . S
C4765 C4761 1.495 . S
C4765 H4771 0.959 . S
C4765 H4772 0.961 . S
C4765 H4773 0.960 . S
C4766 C4764 1.381 . S
C4766 C4767 1.394 . S
C4766 H4774 0.930 . S
C4767 C4766 1.394 . S
C4767 C4768 1.383 . S
C4767 H4775 0.929 . S
C4768 C4767 1.383 . S
C4768 C4769 1.377 . S
C4769 H4753 0.930 . S
C4769 C4768 1.377 . S
C4769 C4770 1.379 . S
C4770 H4754 0.931 . S
C4770 C4764 1.383 . S
C4770 C4769 1.379 . S
H4771 C4765 0.959 . S
H4772 C4765 0.961 . S
H4773 C4765 0.960 . S
H4774 C4766 0.930 . S
H4775 C4767 0.929 . S
H4776 C4784 0.929 . S
H4777 C4786 0.930 . S
H4778 C4788 0.930 . S
H4779 C4791 0.929 . S
H4780 C4794 0.930 . S
H4781 C4796 0.960 . S
H4782 C4796 0.960 . S
H4783 C4796 0.960 . S
C4784 H4776 0.929 . S
C4784 C4785 1.377 . S
C4784 C4786 1.384 . S
C4785 C4784 1.377 . S
C4785 C4791 1.390 . S
C4786 H4777 0.930 . S
C4786 C4784 1.384 . S
C4786 C4787 1.372 . S
C4787 C4786 1.372 . S
C4787 C4788 1.400 . S
C4787 C4792 1.490 . S
C4788 H4778 0.930 . S
C4788 C4787 1.400 . S
C4788 C4791 1.386 . S
H4789 C4805 0.930 . S
H4790 C4806 0.931 . S
C4791 H4779 0.929 . S
C4791 C4785 1.390 . S
C4791 C4788 1.386 . S
C4792 C4787 1.490 . S
C4792 C4794 1.395 . S
C4792 C4795 1.403 . S
H4793 C4799 0.930 . S
C4794 H4780 0.930 . S
C4794 C4792 1.395 . S
C4794 C4797 1.403 . S
C4795 C4792 1.403 . S
C4795 C4796 1.524 . S
C4795 C4799 1.400 . S
C4796 H4781 0.960 . S
C4796 H4782 0.960 . S
C4796 H4783 0.960 . S
C4796 C4795 1.524 . S
C4797 C4794 1.403 . S
C4797 C4798 1.392 . S
C4797 C4801 1.495 . S
C4798 C4797 1.392 . S
C4798 C4799 1.385 . S
C4798 C4800 1.478 . S
C4799 H4793 0.930 . S
C4799 C4795 1.400 . S
C4799 C4798 1.385 . S
C4800 C4798 1.478 . S
C4800 C4802 1.381 . S
C4800 C4806 1.383 . S
C4801 C4797 1.495 . S
C4801 H4807 0.959 . S
C4801 H4808 0.961 . S
C4801 H4809 0.960 . S
C4802 C4800 1.381 . S
C4802 C4803 1.394 . S
C4802 H4810 0.930 . S
C4803 C4802 1.394 . S
C4803 C4804 1.383 . S
C4803 H4811 0.929 . S
C4804 C4803 1.383 . S
C4804 C4805 1.377 . S
C4805 H4789 0.930 . S
C4805 C4804 1.377 . S
C4805 C4806 1.379 . S
C4806 H4790 0.931 . S
C4806 C4800 1.383 . S
C4806 C4805 1.379 . S
H4807 C4801 0.959 . S
H4808 C4801 0.961 . S
H4809 C4801 0.960 . S
H4810 C4802 0.930 . S
H4811 C4803 0.929 . S
H4812 C4820 0.929 . S
H4813 C4822 0.930 . S
H4814 C4824 0.930 . S
H4815 C4827 0.929 . S
H4816 C4830 0.930 . S
H4817 C4832 0.960 . S
H4818 C4832 0.960 . S
H4819 C4832 0.960 . S
C4820 H4812 0.929 . S
C4820 C4821 1.377 . S
C4820 C4822 1.384 . S
C4821 C4820 1.377 . S
C4821 C4827 1.390 . S
C4822 H4813 0.930 . S
C4822 C4820 1.384 . S
C4822 C4823 1.372 . S
C4823 C4822 1.372 . S
C4823 C4824 1.400 . S
C4823 C4828 1.490 . S
C4824 H4814 0.930 . S
C4824 C4823 1.400 . S
C4824 C4827 1.386 . S
H4825 C4841 0.930 . S
H4826 C4842 0.931 . S
C4827 H4815 0.929 . S
C4827 C4821 1.390 . S
C4827 C4824 1.386 . S
C4828 C4823 1.490 . S
C4828 C4830 1.395 . S
C4828 C4831 1.403 . S
H4829 C4835 0.930 . S
C4830 H4816 0.930 . S
C4830 C4828 1.395 . S
C4830 C4833 1.403 . S
C4831 C4828 1.403 . S
C4831 C4832 1.524 . S
C4831 C4835 1.400 . S
C4832 H4817 0.960 . S
C4832 H4818 0.960 . S
C4832 H4819 0.960 . S
C4832 C4831 1.524 . S
C4833 C4830 1.403 . S
C4833 C4834 1.392 . S
C4833 C4837 1.495 . S
C4834 C4833 1.392 . S
C4834 C4835 1.385 . S
C4834 C4836 1.478 . S
C4835 H4829 0.930 . S
C4835 C4831 1.400 . S
C4835 C4834 1.385 . S
C4836 C4834 1.478 . S
C4836 C4838 1.381 . S
C4836 C4842 1.383 . S
C4837 C4833 1.495 . S
C4837 H4843 0.959 . S
C4837 H4844 0.961 . S
C4837 H4845 0.960 . S
C4838 C4836 1.381 . S
C4838 C4839 1.394 . S
C4838 H4846 0.930 . S
C4839 C4838 1.394 . S
C4839 C4840 1.383 . S
C4839 H4847 0.929 . S
C4840 C4839 1.383 . S
C4840 C4841 1.377 . S
C4841 H4825 0.930 . S
C4841 C4840 1.377 . S
C4841 C4842 1.379 . S
C4842 H4826 0.931 . S
C4842 C4836 1.383 . S
C4842 C4841 1.379 . S
H4843 C4837 0.959 . S
H4844 C4837 0.961 . S
H4845 C4837 0.960 . S
H4846 C4838 0.930 . S
H4847 C4839 0.929 . S
H4848 C4856 0.929 . S
H4849 C4858 0.930 . S
H4850 C4860 0.930 . S
H4851 C4863 0.929 . S
H4852 C4866 0.930 . S
H4853 C4868 0.960 . S
H4854 C4868 0.960 . S
H4855 C4868 0.960 . S
C4856 H4848 0.929 . S
C4856 C4857 1.377 . S
C4856 C4858 1.384 . S
C4857 C4856 1.377 . S
C4857 C4863 1.390 . S
C4858 H4849 0.930 . S
C4858 C4856 1.384 . S
C4858 C4859 1.372 . S
C4859 C4858 1.372 . S
C4859 C4860 1.400 . S
C4859 C4864 1.490 . S
C4860 H4850 0.930 . S
C4860 C4859 1.400 . S
C4860 C4863 1.386 . S
H4861 C4877 0.930 . S
H4862 C4878 0.931 . S
C4863 H4851 0.929 . S
C4863 C4857 1.390 . S
C4863 C4860 1.386 . S
C4864 C4859 1.490 . S
C4864 C4866 1.395 . S
C4864 C4867 1.403 . S
H4865 C4871 0.930 . S
C4866 H4852 0.930 . S
C4866 C4864 1.395 . S
C4866 C4869 1.403 . S
C4867 C4864 1.403 . S
C4867 C4868 1.524 . S
C4867 C4871 1.400 . S
C4868 H4853 0.960 . S
C4868 H4854 0.960 . S
C4868 H4855 0.960 . S
C4868 C4867 1.524 . S
C4869 C4866 1.403 . S
C4869 C4870 1.392 . S
C4869 C4873 1.495 . S
C4870 C4869 1.392 . S
C4870 C4871 1.385 . S
C4870 C4872 1.478 . S
C4871 H4865 0.930 . S
C4871 C4867 1.400 . S
C4871 C4870 1.385 . S
C4872 C4870 1.478 . S
C4872 C4874 1.381 . S
C4872 C4878 1.383 . S
C4873 C4869 1.495 . S
C4873 H4879 0.959 . S
C4873 H4880 0.961 . S
C4873 H4881 0.960 . S
C4874 C4872 1.381 . S
C4874 C4875 1.394 . S
C4874 H4882 0.930 . S
C4875 C4874 1.394 . S
C4875 C4876 1.383 . S
C4875 H4883 0.929 . S
C4876 C4875 1.383 . S
C4876 C4877 1.377 . S
C4877 H4861 0.930 . S
C4877 C4876 1.377 . S
C4877 C4878 1.379 . S
C4878 H4862 0.931 . S
C4878 C4872 1.383 . S
C4878 C4877 1.379 . S
H4879 C4873 0.959 . S
H4880 C4873 0.961 . S
H4881 C4873 0.960 . S
H4882 C4874 0.930 . S
H4883 C4875 0.929 . S
H4884 C4892 0.929 . S
H4885 C4894 0.930 . S
H4886 C4896 0.930 . S
H4887 C4899 0.929 . S
H4888 C4902 0.930 . S
H4889 C4904 0.960 . S
H4890 C4904 0.960 . S
H4891 C4904 0.960 . S
C4892 H4884 0.929 . S
C4892 C4893 1.377 . S
C4892 C4894 1.384 . S
C4893 C4892 1.377 . S
C4893 C4899 1.390 . S
C4894 H4885 0.930 . S
C4894 C4892 1.384 . S
C4894 C4895 1.372 . S
C4895 C4894 1.372 . S
C4895 C4896 1.400 . S
C4895 C4900 1.490 . S
C4896 H4886 0.930 . S
C4896 C4895 1.400 . S
C4896 C4899 1.386 . S
H4897 C4913 0.930 . S
H4898 C4914 0.931 . S
C4899 H4887 0.929 . S
C4899 C4893 1.390 . S
C4899 C4896 1.386 . S
C4900 C4895 1.490 . S
C4900 C4902 1.395 . S
C4900 C4903 1.403 . S
H4901 C4907 0.930 . S
C4902 H4888 0.930 . S
C4902 C4900 1.395 . S
C4902 C4905 1.403 . S
C4903 C4900 1.403 . S
C4903 C4904 1.524 . S
C4903 C4907 1.400 . S
C4904 H4889 0.960 . S
C4904 H4890 0.960 . S
C4904 H4891 0.960 . S
C4904 C4903 1.524 . S
C4905 C4902 1.403 . S
C4905 C4906 1.392 . S
C4905 C4909 1.495 . S
C4906 C4905 1.392 . S
C4906 C4907 1.385 . S
C4906 C4908 1.478 . S
C4907 H4901 0.930 . S
C4907 C4903 1.400 . S
C4907 C4906 1.385 . S
C4908 C4906 1.478 . S
C4908 C4910 1.381 . S
C4908 C4914 1.383 . S
C4909 C4905 1.495 . S
C4909 H4915 0.959 . S
C4909 H4916 0.961 . S
C4909 H4917 0.960 . S
C4910 C4908 1.381 . S
C4910 C4911 1.400 . S
C4910 H4918 0.930 . S
C4911 C4910 1.400 . S
C4911 C4912 1.391 . S
C4911 H4919 0.916 1_565 S
C4912 C4911 1.391 . S
C4912 C4913 1.377 . S
C4913 H4897 0.930 . S
C4913 C4912 1.377 . S
C4913 C4914 1.379 . S
C4914 H4898 0.931 . S
C4914 C4908 1.383 . S
C4914 C4913 1.379 . S
H4915 C4909 0.959 . S
H4916 C4909 0.961 . S
H4917 C4909 0.960 . S
H4918 C4910 0.930 . S
H4919 C4911 0.916 1_545 S
H4920 C4928 0.929 . S
H4921 C4930 0.930 . S
H4922 C4932 0.930 . S
H4923 C4935 0.929 . S
H4924 C4938 0.930 . S
H4925 C4940 0.960 . S
H4926 C4940 0.960 . S
H4927 C4940 0.960 . S
C4928 H4920 0.929 . S
C4928 C4929 1.377 . S
C4928 C4930 1.384 . S
C4929 C4928 1.377 . S
C4929 C4935 1.390 . S
C4930 H4921 0.930 . S
C4930 C4928 1.384 . S
C4930 C4931 1.372 . S
C4931 C4930 1.372 . S
C4931 C4932 1.400 . S
C4931 C4936 1.490 . S
C4932 H4922 0.930 . S
C4932 C4931 1.400 . S
C4932 C4935 1.386 . S
H4933 C4949 0.930 . S
H4934 C4950 0.931 . S
C4935 H4923 0.929 . S
C4935 C4929 1.390 . S
C4935 C4932 1.386 . S
C4936 C4931 1.490 . S
C4936 C4938 1.395 . S
C4936 C4939 1.403 . S
H4937 C4943 0.930 . S
C4938 H4924 0.930 . S
C4938 C4936 1.395 . S
C4938 C4941 1.403 . S
C4939 C4936 1.403 . S
C4939 C4940 1.524 . S
C4939 C4943 1.400 . S
C4940 H4925 0.960 . S
C4940 H4926 0.960 . S
C4940 H4927 0.960 . S
C4940 C4939 1.524 . S
C4941 C4938 1.403 . S
C4941 C4942 1.392 . S
C4941 C4945 1.495 . S
C4942 C4941 1.392 . S
C4942 C4943 1.385 . S
C4942 C4944 1.478 . S
C4943 H4937 0.930 . S
C4943 C4939 1.400 . S
C4943 C4942 1.385 . S
C4944 C4942 1.478 . S
C4944 C4946 1.381 . S
C4944 C4950 1.383 . S
C4945 C4941 1.495 . S
C4945 H4951 0.959 . S
C4945 H4952 0.961 . S
C4945 H4953 0.960 . S
C4946 C4944 1.381 . S
C4946 C4947 1.394 . S
C4946 H4954 0.930 . S
C4947 C4946 1.394 . S
C4947 C4948 1.383 . S
C4947 H4955 0.929 . S
C4948 C4947 1.383 . S
C4948 C4949 1.377 . S
C4949 H4933 0.930 . S
C4949 C4948 1.377 . S
C4949 C4950 1.379 . S
C4950 H4934 0.931 . S
C4950 C4944 1.383 . S
C4950 C4949 1.379 . S
H4951 C4945 0.959 . S
H4952 C4945 0.961 . S
H4953 C4945 0.960 . S
H4954 C4946 0.930 . S
H4955 C4947 0.929 . S
H4956 C4964 0.929 . S
H4957 C4966 0.930 . S
H4958 C4968 0.930 . S
H4959 C4971 0.929 . S
H4960 C4974 0.930 . S
H4961 C4976 0.960 . S
H4962 C4976 0.960 . S
H4963 C4976 0.960 . S
C4964 H4956 0.929 . S
C4964 C4965 1.377 . S
C4964 C4966 1.384 . S
C4965 C4964 1.377 . S
C4965 C4971 1.390 . S
C4966 H4957 0.930 . S
C4966 C4964 1.384 . S
C4966 C4967 1.372 . S
C4967 C4966 1.372 . S
C4967 C4968 1.400 . S
C4967 C4972 1.490 . S
C4968 H4958 0.930 . S
C4968 C4967 1.400 . S
C4968 C4971 1.386 . S
H4969 C4985 0.930 . S
H4970 C4986 0.931 . S
C4971 H4959 0.929 . S
C4971 C4965 1.390 . S
C4971 C4968 1.386 . S
C4972 C4967 1.490 . S
C4972 C4974 1.395 . S
C4972 C4975 1.403 . S
H4973 C4979 0.930 . S
C4974 H4960 0.930 . S
C4974 C4972 1.395 . S
C4974 C4977 1.403 . S
C4975 C4972 1.403 . S
C4975 C4976 1.524 . S
C4975 C4979 1.400 . S
C4976 H4961 0.960 . S
C4976 H4962 0.960 . S
C4976 H4963 0.960 . S
C4976 C4975 1.524 . S
C4977 C4974 1.403 . S
C4977 C4978 1.392 . S
C4977 C4981 1.495 . S
C4978 C4977 1.392 . S
C4978 C4979 1.385 . S
C4978 C4980 1.478 . S
C4979 H4973 0.930 . S
C4979 C4975 1.400 . S
C4979 C4978 1.385 . S
C4980 C4978 1.478 . S
C4980 C4982 1.381 . S
C4980 C4986 1.383 . S
C4981 C4977 1.495 . S
C4981 H4987 0.959 . S
C4981 H4988 0.961 . S
C4981 H4989 0.960 . S
C4982 C4980 1.381 . S
C4982 C4983 1.394 . S
C4982 H4990 0.930 . S
C4983 C4982 1.394 . S
C4983 C4984 1.383 . S
C4983 H4991 0.929 . S
C4984 C4983 1.383 . S
C4984 C4985 1.377 . S
C4985 H4969 0.930 . S
C4985 C4984 1.377 . S
C4985 C4986 1.379 . S
C4986 H4970 0.931 . S
C4986 C4980 1.383 . S
C4986 C4985 1.379 . S
H4987 C4981 0.959 . S
H4988 C4981 0.961 . S
H4989 C4981 0.960 . S
H4990 C4982 0.930 . S
H4991 C4983 0.929 . S
H4992 C5000 0.929 . S
H4993 C5002 0.930 . S
H4994 C5004 0.930 . S
H4995 C5007 0.929 . S
H4996 C5010 0.930 . S
H4997 C5012 0.960 . S
H4998 C5012 0.960 . S
H4999 C5012 0.960 . S
C5000 H4992 0.929 . S
C5000 C5001 1.377 . S
C5000 C5002 1.384 . S
C5001 C5000 1.377 . S
C5001 C5007 1.390 . S
C5002 H4993 0.930 . S
C5002 C5000 1.384 . S
C5002 C5003 1.372 . S
C5003 C5002 1.372 . S
C5003 C5004 1.400 . S
C5003 C5008 1.490 . S
C5004 H4994 0.930 . S
C5004 C5003 1.400 . S
C5004 C5007 1.386 . S
H5005 C5021 0.930 . S
H5006 C5022 0.931 . S
C5007 H4995 0.929 . S
C5007 C5001 1.390 . S
C5007 C5004 1.386 . S
C5008 C5003 1.490 . S
C5008 C5010 1.395 . S
C5008 C5011 1.403 . S
H5009 C5015 0.930 . S
C5010 H4996 0.930 . S
C5010 C5008 1.395 . S
C5010 C5013 1.403 . S
C5011 C5008 1.403 . S
C5011 C5012 1.524 . S
C5011 C5015 1.400 . S
C5012 H4997 0.960 . S
C5012 H4998 0.960 . S
C5012 H4999 0.960 . S
C5012 C5011 1.524 . S
C5013 C5010 1.403 . S
C5013 C5014 1.392 . S
C5013 C5017 1.495 . S
C5014 C5013 1.392 . S
C5014 C5015 1.385 . S
C5014 C5016 1.478 . S
C5015 H5009 0.930 . S
C5015 C5011 1.400 . S
C5015 C5014 1.385 . S
C5016 C5014 1.478 . S
C5016 C5018 1.381 . S
C5016 C5022 1.383 . S
C5017 C5013 1.495 . S
C5017 H5023 0.959 . S
C5017 H5024 0.961 . S
C5017 H5025 0.960 . S
C5018 C5016 1.381 . S
C5018 C5019 1.394 . S
C5018 H5026 0.930 . S
C5019 C5018 1.394 . S
C5019 C5020 1.383 . S
C5019 H5027 0.929 . S
C5020 C5019 1.383 . S
C5020 C5021 1.377 . S
C5021 H5005 0.930 . S
C5021 C5020 1.377 . S
C5021 C5022 1.379 . S
C5022 H5006 0.931 . S
C5022 C5016 1.383 . S
C5022 C5021 1.379 . S
H5023 C5017 0.959 . S
H5024 C5017 0.961 . S
H5025 C5017 0.960 . S
H5026 C5018 0.930 . S
H5027 C5019 0.929 . S
H5028 C5036 0.929 . S
H5029 C5038 0.930 . S
H5030 C5040 0.930 . S
H5031 C5043 0.929 . S
H5032 C5046 0.930 . S
H5033 C5048 0.960 . S
H5034 C5048 0.960 . S
H5035 C5048 0.960 . S
C5036 H5028 0.929 . S
C5036 C5037 1.377 . S
C5036 C5038 1.384 . S
C5037 C5036 1.377 . S
C5037 C5043 1.390 . S
C5038 H5029 0.930 . S
C5038 C5036 1.384 . S
C5038 C5039 1.372 . S
C5039 C5038 1.372 . S
C5039 C5040 1.400 . S
C5039 C5044 1.490 . S
C5040 H5030 0.930 . S
C5040 C5039 1.400 . S
C5040 C5043 1.386 . S
H5041 C5057 0.930 . S
H5042 C5058 0.931 . S
C5043 H5031 0.929 . S
C5043 C5037 1.390 . S
C5043 C5040 1.386 . S
C5044 C5039 1.490 . S
C5044 C5046 1.395 . S
C5044 C5047 1.403 . S
H5045 C5051 0.930 . S
C5046 H5032 0.930 . S
C5046 C5044 1.395 . S
C5046 C5049 1.403 . S
C5047 C5044 1.403 . S
C5047 C5048 1.524 . S
C5047 C5051 1.400 . S
C5048 H5033 0.960 . S
C5048 H5034 0.960 . S
C5048 H5035 0.960 . S
C5048 C5047 1.524 . S
C5049 C5046 1.403 . S
C5049 C5050 1.392 . S
C5049 C5053 1.495 . S
C5050 C5049 1.392 . S
C5050 C5051 1.385 . S
C5050 C5052 1.478 . S
C5051 H5045 0.930 . S
C5051 C5047 1.400 . S
C5051 C5050 1.385 . S
C5052 C5050 1.478 . S
C5052 C5054 1.381 . S
C5052 C5058 1.383 . S
C5053 C5049 1.495 . S
C5053 H5059 0.959 . S
C5053 H5060 0.961 . S
C5053 H5061 0.960 . S
C5054 C5052 1.381 . S
C5054 C5055 1.394 . S
C5054 H5062 0.930 . S
C5055 C5054 1.394 . S
C5055 C5056 1.383 . S
C5055 H5063 0.929 . S
C5056 C5055 1.383 . S
C5056 C5057 1.377 . S
C5057 H5041 0.930 . S
C5057 C5056 1.377 . S
C5057 C5058 1.379 . S
C5058 H5042 0.931 . S
C5058 C5052 1.383 . S
C5058 C5057 1.379 . S
H5059 C5053 0.959 . S
H5060 C5053 0.961 . S
H5061 C5053 0.960 . S
H5062 C5054 0.930 . S
H5063 C5055 0.929 . S
H5064 C5072 0.929 . S
H5065 C5074 0.930 . S
H5066 C5076 0.930 . S
H5067 C5079 0.929 . S
H5068 C5082 0.930 . S
H5069 C5084 0.960 . S
H5070 C5084 0.960 . S
H5071 C5084 0.960 . S
C5072 H5064 0.929 . S
C5072 C5073 1.377 . S
C5072 C5074 1.384 . S
C5073 C5072 1.377 . S
C5073 C5079 1.390 . S
C5074 H5065 0.930 . S
C5074 C5072 1.384 . S
C5074 C5075 1.372 . S
C5075 C5074 1.372 . S
C5075 C5076 1.400 . S
C5075 C5080 1.490 . S
C5076 H5066 0.930 . S
C5076 C5075 1.400 . S
C5076 C5079 1.386 . S
H5077 C5093 0.930 . S
H5078 C5094 0.931 . S
C5079 H5067 0.929 . S
C5079 C5073 1.390 . S
C5079 C5076 1.386 . S
C5080 C5075 1.490 . S
C5080 C5082 1.395 . S
C5080 C5083 1.403 . S
H5081 C5087 0.930 . S
C5082 H5068 0.930 . S
C5082 C5080 1.395 . S
C5082 C5085 1.403 . S
C5083 C5080 1.403 . S
C5083 C5084 1.524 . S
C5083 C5087 1.400 . S
C5084 H5069 0.960 . S
C5084 H5070 0.960 . S
C5084 H5071 0.960 . S
C5084 C5083 1.524 . S
C5085 C5082 1.403 . S
C5085 C5086 1.392 . S
C5085 C5089 1.495 . S
C5086 C5085 1.392 . S
C5086 C5087 1.385 . S
C5086 C5088 1.478 . S
C5087 H5081 0.930 . S
C5087 C5083 1.400 . S
C5087 C5086 1.385 . S
C5088 C5086 1.478 . S
C5088 C5090 1.381 . S
C5088 C5094 1.383 . S
C5089 C5085 1.495 . S
C5089 H5095 0.959 . S
C5089 H5096 0.961 . S
C5089 H5097 0.960 . S
C5090 C5088 1.381 . S
C5090 C5091 1.394 . S
C5090 H5098 0.930 . S
C5091 C5090 1.394 . S
C5091 C5092 1.383 . S
C5091 H5099 0.929 . S
C5092 C5091 1.383 . S
C5092 C5093 1.377 . S
C5093 H5077 0.930 . S
C5093 C5092 1.377 . S
C5093 C5094 1.379 . S
C5094 H5078 0.931 . S
C5094 C5088 1.383 . S
C5094 C5093 1.379 . S
H5095 C5089 0.959 . S
H5096 C5089 0.961 . S
H5097 C5089 0.960 . S
H5098 C5090 0.930 . S
H5099 C5091 0.929 . S
H5100 C5108 0.929 . S
H5101 C5110 0.930 . S
H5102 C5112 0.930 . S
H5103 C5115 0.929 . S
H5104 C5118 0.930 . S
H5105 C5120 0.960 . S
H5106 C5120 0.960 . S
H5107 C5120 0.960 . S
C5108 H5100 0.929 . S
C5108 C5109 1.377 . S
C5108 C5110 1.384 . S
C5109 C5108 1.377 . S
C5109 C5115 1.390 . S
C5110 H5101 0.930 . S
C5110 C5108 1.384 . S
C5110 C5111 1.372 . S
C5111 C5110 1.372 . S
C5111 C5112 1.400 . S
C5111 C5116 1.490 . S
C5112 H5102 0.930 . S
C5112 C5111 1.400 . S
C5112 C5115 1.386 . S
H5113 C5129 0.930 . S
H5114 C5130 0.931 . S
C5115 H5103 0.929 . S
C5115 C5109 1.390 . S
C5115 C5112 1.386 . S
C5116 C5111 1.490 . S
C5116 C5118 1.395 . S
C5116 C5119 1.403 . S
H5117 C5123 0.930 . S
C5118 H5104 0.930 . S
C5118 C5116 1.395 . S
C5118 C5121 1.403 . S
C5119 C5116 1.403 . S
C5119 C5120 1.524 . S
C5119 C5123 1.400 . S
C5120 H5105 0.960 . S
C5120 H5106 0.960 . S
C5120 H5107 0.960 . S
C5120 C5119 1.524 . S
C5121 C5118 1.403 . S
C5121 C5122 1.392 . S
C5121 C5125 1.495 . S
C5122 C5121 1.392 . S
C5122 C5123 1.385 . S
C5122 C5124 1.478 . S
C5123 H5117 0.930 . S
C5123 C5119 1.400 . S
C5123 C5122 1.385 . S
C5124 C5122 1.478 . S
C5124 C5126 1.381 . S
C5124 C5130 1.383 . S
C5125 C5121 1.495 . S
C5125 H5131 0.959 . S
C5125 H5132 0.961 . S
C5125 H5133 0.960 . S
C5126 C5124 1.381 . S
C5126 C5127 1.394 . S
C5126 H5134 0.930 . S
C5127 C5126 1.394 . S
C5127 C5128 1.383 . S
C5127 H5135 0.929 . S
C5128 C5127 1.383 . S
C5128 C5129 1.377 . S
C5129 H5113 0.930 . S
C5129 C5128 1.377 . S
C5129 C5130 1.379 . S
C5130 H5114 0.931 . S
C5130 C5124 1.383 . S
C5130 C5129 1.379 . S
H5131 C5125 0.959 . S
H5132 C5125 0.961 . S
H5133 C5125 0.960 . S
H5134 C5126 0.930 . S
H5135 C5127 0.929 . S
C1689 C106 2.304 . S
C1708 C392 2.336 . S
C1725 C65 1.788 . S
C1744 C494 1.751 . S
C1761 C79 2.114 . S
C1780 C560 2.133 . S
C1816 C646 1.220 . S
C1797 C90 1.285 . S
C1833 C21 1.334 . S
C1852 C730 1.256 . S
C1888 C812 1.720 . S
C1869 C35 1.699 . S
C1924 C914 1.845 . S
C1905 C50 1.860 . S
C1941 C6 1.898 . S
C1960 C980 1.948 . S
C1996 C410 1.772 . S
C1977 C232 1.787 . S
C2013 C245 0.869 . S
C2032 C478 0.837 . S
C2068 C578 1.149 . S
C2049 C274 1.143 . S
C2104 C644 1.597 . S
C2085 C175 1.546 1_556 S
C2121 C231 1.394 . S
C2140 C728 1.418 . S
C2176 C830 1.011 . S
C2157 C246 1.037 . S
C2212 C898 0.828 . S
C2193 C273 0.753 . S
C2248 C998 1.664 . S
C2229 C176 1.694 . S
C2284 C394 0.864 . S
C2265 C160 0.924 . S
C2301 C289 1.661 . S
C2320 C1082 1.643 . S
C2356 C1150 1.311 . S
C2337 C328 1.345 . S
C2392 C1232 0.978 . S
C2373 C317 0.974 . S
C2409 C118 0.881 . S
C2428 C982 0.880 . S
C2445 C132 1.342 . S
C2464 C562 1.329 . S
C2481 C331 1.752 . S
C2500 C1334 1.720 . S
C2536 C1400 1.053 . S
C2517 C303 1.047 . S
C2572 C403 1.932 . S
C2553 C63 1.918 . S
C2608 C1407 2.231 . S
C2589 C107 2.210 . S
C2625 C92 1.963 . S
C2644 C571 1.999 . S
C2661 C78 1.937 . S
C2680 C1329 1.758 . S
C2716 C741 1.771 . S
C2697 C8 1.934 . S
C2733 C51 1.963 . S
C2752 C1159 1.999 . S
C2788 C903 2.227 . S
C2769 C37 2.213 . S
C2824 C1495 1.919 . S
C2805 C20 1.922 . S
C2860 C399 1.607 1_556 S
C2841 C147 1.600 . S
C2896 C1413 1.008 . S
C2877 C316 1.117 . S
C2913 C119 1.096 . S
C2932 C567 1.103 . S
C2949 C288 1.804 . S
C2968 C1327 1.818 . S
C2985 C148 1.800 . S
C3004 C739 1.810 . S
C3040 C1155 1.122 . S
C3021 C315 1.089 . S
C3057 C120 1.113 . S
C3076 C909 1.015 . S
C3093 C287 1.606 . S
C3112 C1491 1.577 . S
C3129 C188 0.779 . S
C3148 C405 0.721 . S
C3165 C177 2.027 . S
C3184 C1071 2.031 . S
C3201 C258 1.469 . S
C3220 C825 1.415 . S
C3237 C247 1.031 . S
C3256 C1243 1.038 . S
C3292 C1497 0.808 . S
C3273 C272 0.725 1_565 S
C3309 C216 1.214 . S
C3328 C573 1.175 . S
C3364 C651 2.015 . S
C3345 C261 2.022 . S
C3400 C487 1.026 . S
C3381 C205 1.030 . S
C3417 C76 1.896 . S
C3436 C1568 1.947 . S
C3472 C1418 1.836 . S
C3453 C93 1.861 . S
C3489 C105 1.705 1_455 S
C3508 C1652 1.722 . S
C3525 C62 1.332 1_655 S
C3544 C1318 1.245 . S
C3561 C49 1.283 . S
C3580 C1066 1.258 . S
C3616 C1148 2.142 . S
C3597 C9 2.110 1_655 S
C3652 C1250 1.756 . S
C3633 C22 1.787 . S
C3688 C1484 2.335 . S
C3669 C36 2.303 . S
C3724 C1586 1.681 . S
C3705 C260 1.693 . S
C3741 C189 0.751 1_556 S
C3760 C1402 0.825 . S
C3796 C1670 1.052 . S
C3777 C204 1.042 . S
C3832 C1316 1.422 . S
C3813 C217 1.398 . S
C3868 C1064 1.565 1_556 S
C3849 C259 1.561 . S
C3885 C190 1.142 . S
C3904 C1166 1.149 . S
C3940 C1234 0.904 . S
C3921 C203 0.857 . S
C3957 C218 1.786 . S
C3976 C1502 1.742 . S
C4012 C1570 0.848 . S
C3993 C314 0.887 . S
C4029 C135 1.751 . S
C4048 C746 1.710 . S
C4084 C814 1.304 . S
C4065 C146 1.280 . S
C4120 C896 1.050 . S
C4101 C163 1.042 . S
C4156 C1486 0.920 . S
C4137 C300 0.914 . S
C4173 C286 1.284 . S
C4192 C1654 1.303 . S
C4228 C662 1.653 . S
C4209 C149 1.661 . S
C4264 C476 0.972 . S
C4245 C121 0.977 . S
C4281 C91 1.910 . S
C4300 C1579 1.908 . S
C4336 C483 1.844 . S
C4317 C77 1.769 . S
C4353 C64 1.949 . S
C4372 C1663 1.987 . S
C4389 C104 1.545 . S
C4408 C657 1.450 . S
C4425 C34 1.551 . S
C4444 C1077 1.476 . S
C4480 C823 1.980 . S
C4461 C23 1.945 . S
C4497 C7 1.769 . S
C4516 C1239 1.851 . S
C4533 C48 1.907 . S
C4552 C991 1.920 . S
C4588 C1575 1.580 . S
C4569 C329 1.604 . S
C4605 C162 1.150 . S
C4624 C489 1.022 . S
C4660 C1659 1.129 1_655 S
C4641 C301 1.101 . S
C4677 C134 1.822 . S
C4696 C655 1.832 . S
C4713 C330 1.819 . S
C4732 C1075 1.831 . S
C4768 C819 1.131 . S
C4749 C161 1.106 . S
C4785 C302 1.150 . S
C4804 C1245 1.027 . S
C4840 C987 1.575 . S
C4821 C133 1.605 . S
C4876 C1581 1.008 . S
C4857 C244 1.001 . S
C4912 C735 1.980 1_565 S
C4893 C219 1.964 . S
C4929 C230 1.221 . S
C4948 C1161 1.213 . S
C4984 C907 1.006 . S
C4965 C191 0.994 . S
C5001 C202 1.002 . S
C5020 C993 1.009 . S
C5037 C174 1.468 . S
C5056 C1665 1.406 . S
C5092 C1323 1.978 . S
C5073 C233 1.967 . S
C5128 C1411 1.008 . S
C5109 C275 0.995 . S
