# Generated by pormake.
# Topology gar, (4,6)-cn, num edge types: 1
# Building blocks:
#     Node 0, Type 0, BuildingBlock: GALJAG_clean_sbu_0, # of connection points: 4
#     Node 1, Type 0, BuildingBlock: GALJAG_clean_sbu_0, # of connection points: 4
#     Node 2, Type 0, BuildingBlock: GALJAG_clean_sbu_0, # of connection points: 4
#     Node 3, Type 0, BuildingBlock: GALJAG_clean_sbu_0, # of connection points: 4
#     Node 4, Type 0, BuildingBlock: GALJAG_clean_sbu_0, # of connection points: 4
#     Node 5, Type 0, BuildingBlock: GALJAG_clean_sbu_0, # of connection points: 4
#     Node 6, Type 0, BuildingBlock: GALJAG_clean_sbu_0, # of connection points: 4
#     Node 7, Type 0, BuildingBlock: GALJAG_clean_sbu_0, # of connection points: 4
#     Node 8, Type 0, BuildingBlock: GALJAG_clean_sbu_0, # of connection points: 4
#     Node 9, Type 0, BuildingBlock: GALJAG_clean_sbu_0, # of connection points: 4
#     Node 10, Type 0, BuildingBlock: GALJAG_clean_sbu_0, # of connection points: 4
#     Node 11, Type 0, BuildingBlock: GALJAG_clean_sbu_0, # of connection points: 4
#     Node 12, Type 0, BuildingBlock: GALJAG_clean_sbu_0, # of connection points: 4
#     Node 13, Type 0, BuildingBlock: GALJAG_clean_sbu_0, # of connection points: 4
#     Node 14, Type 0, BuildingBlock: GALJAG_clean_sbu_0, # of connection points: 4
#     Node 15, Type 0, BuildingBlock: GALJAG_clean_sbu_0, # of connection points: 4
#     Node 16, Type 0, BuildingBlock: GALJAG_clean_sbu_0, # of connection points: 4
#     Node 17, Type 0, BuildingBlock: GALJAG_clean_sbu_0, # of connection points: 4
#     Node 18, Type 0, BuildingBlock: GALJAG_clean_sbu_0, # of connection points: 4
#     Node 19, Type 0, BuildingBlock: GALJAG_clean_sbu_0, # of connection points: 4
#     Node 20, Type 0, BuildingBlock: GALJAG_clean_sbu_0, # of connection points: 4
#     Node 21, Type 0, BuildingBlock: GALJAG_clean_sbu_0, # of connection points: 4
#     Node 22, Type 0, BuildingBlock: GALJAG_clean_sbu_0, # of connection points: 4
#     Node 23, Type 0, BuildingBlock: GALJAG_clean_sbu_0, # of connection points: 4
#     Node 24, Type 1, BuildingBlock: CUKXOW_clean_sbu_0, # of connection points: 6
#     Node 25, Type 1, BuildingBlock: CUKXOW_clean_sbu_0, # of connection points: 6
#     Node 26, Type 1, BuildingBlock: CUKXOW_clean_sbu_0, # of connection points: 6
#     Node 27, Type 1, BuildingBlock: CUKXOW_clean_sbu_0, # of connection points: 6
#     Node 28, Type 1, BuildingBlock: CUKXOW_clean_sbu_0, # of connection points: 6
#     Node 29, Type 1, BuildingBlock: CUKXOW_clean_sbu_0, # of connection points: 6
#     Node 30, Type 1, BuildingBlock: CUKXOW_clean_sbu_0, # of connection points: 6
#     Node 31, Type 1, BuildingBlock: CUKXOW_clean_sbu_0, # of connection points: 6
#     Node 32, Type 1, BuildingBlock: CUKXOW_clean_sbu_0, # of connection points: 6
#     Node 33, Type 1, BuildingBlock: CUKXOW_clean_sbu_0, # of connection points: 6
#     Node 34, Type 1, BuildingBlock: CUKXOW_clean_sbu_0, # of connection points: 6
#     Node 35, Type 1, BuildingBlock: CUKXOW_clean_sbu_0, # of connection points: 6
#     Node 36, Type 1, BuildingBlock: CUKXOW_clean_sbu_0, # of connection points: 6
#     Node 37, Type 1, BuildingBlock: CUKXOW_clean_sbu_0, # of connection points: 6
#     Node 38, Type 1, BuildingBlock: CUKXOW_clean_sbu_0, # of connection points: 6
#     Node 39, Type 1, BuildingBlock: CUKXOW_clean_sbu_0, # of connection points: 6
#     Edge 40, Type (0, 1), BuildingBlock: XUDNAN_clean_linker_2, # of connection points: 2
#     Edge 41, Type (0, 1), BuildingBlock: XUDNAN_clean_linker_2, # of connection points: 2
#     Edge 42, Type (0, 1), BuildingBlock: XUDNAN_clean_linker_2, # of connection points: 2
#     Edge 43, Type (0, 1), BuildingBlock: XUDNAN_clean_linker_2, # of connection points: 2
#     Edge 44, Type (0, 1), BuildingBlock: XUDNAN_clean_linker_2, # of connection points: 2
#     Edge 45, Type (0, 1), BuildingBlock: XUDNAN_clean_linker_2, # of connection points: 2
#     Edge 46, Type (0, 1), BuildingBlock: XUDNAN_clean_linker_2, # of connection points: 2
#     Edge 47, Type (0, 1), BuildingBlock: XUDNAN_clean_linker_2, # of connection points: 2
#     Edge 48, Type (0, 1), BuildingBlock: XUDNAN_clean_linker_2, # of connection points: 2
#     Edge 49, Type (0, 1), BuildingBlock: XUDNAN_clean_linker_2, # of connection points: 2
#     Edge 50, Type (0, 1), BuildingBlock: XUDNAN_clean_linker_2, # of connection points: 2
#     Edge 51, Type (0, 1), BuildingBlock: XUDNAN_clean_linker_2, # of connection points: 2
#     Edge 52, Type (0, 1), BuildingBlock: XUDNAN_clean_linker_2, # of connection points: 2
#     Edge 53, Type (0, 1), BuildingBlock: XUDNAN_clean_linker_2, # of connection points: 2
#     Edge 54, Type (0, 1), BuildingBlock: XUDNAN_clean_linker_2, # of connection points: 2
#     Edge 55, Type (0, 1), BuildingBlock: XUDNAN_clean_linker_2, # of connection points: 2
#     Edge 56, Type (0, 1), BuildingBlock: XUDNAN_clean_linker_2, # of connection points: 2
#     Edge 57, Type (0, 1), BuildingBlock: XUDNAN_clean_linker_2, # of connection points: 2
#     Edge 58, Type (0, 1), BuildingBlock: XUDNAN_clean_linker_2, # of connection points: 2
#     Edge 59, Type (0, 1), BuildingBlock: XUDNAN_clean_linker_2, # of connection points: 2
#     Edge 60, Type (0, 1), BuildingBlock: XUDNAN_clean_linker_2, # of connection points: 2
#     Edge 61, Type (0, 1), BuildingBlock: XUDNAN_clean_linker_2, # of connection points: 2
#     Edge 62, Type (0, 1), BuildingBlock: XUDNAN_clean_linker_2, # of connection points: 2
#     Edge 63, Type (0, 1), BuildingBlock: XUDNAN_clean_linker_2, # of connection points: 2
#     Edge 64, Type (0, 1), BuildingBlock: XUDNAN_clean_linker_2, # of connection points: 2
#     Edge 65, Type (0, 1), BuildingBlock: XUDNAN_clean_linker_2, # of connection points: 2
#     Edge 66, Type (0, 1), BuildingBlock: XUDNAN_clean_linker_2, # of connection points: 2
#     Edge 67, Type (0, 1), BuildingBlock: XUDNAN_clean_linker_2, # of connection points: 2
#     Edge 68, Type (0, 1), BuildingBlock: XUDNAN_clean_linker_2, # of connection points: 2
#     Edge 69, Type (0, 1), BuildingBlock: XUDNAN_clean_linker_2, # of connection points: 2
#     Edge 70, Type (0, 1), BuildingBlock: XUDNAN_clean_linker_2, # of connection points: 2
#     Edge 71, Type (0, 1), BuildingBlock: XUDNAN_clean_linker_2, # of connection points: 2
#     Edge 72, Type (0, 1), BuildingBlock: XUDNAN_clean_linker_2, # of connection points: 2
#     Edge 73, Type (0, 1), BuildingBlock: XUDNAN_clean_linker_2, # of connection points: 2
#     Edge 74, Type (0, 1), BuildingBlock: XUDNAN_clean_linker_2, # of connection points: 2
#     Edge 75, Type (0, 1), BuildingBlock: XUDNAN_clean_linker_2, # of connection points: 2
#     Edge 76, Type (0, 1), BuildingBlock: XUDNAN_clean_linker_2, # of connection points: 2
#     Edge 77, Type (0, 1), BuildingBlock: XUDNAN_clean_linker_2, # of connection points: 2
#     Edge 78, Type (0, 1), BuildingBlock: XUDNAN_clean_linker_2, # of connection points: 2
#     Edge 79, Type (0, 1), BuildingBlock: XUDNAN_clean_linker_2, # of connection points: 2
#     Edge 80, Type (0, 1), BuildingBlock: XUDNAN_clean_linker_2, # of connection points: 2
#     Edge 81, Type (0, 1), BuildingBlock: XUDNAN_clean_linker_2, # of connection points: 2
#     Edge 82, Type (0, 1), BuildingBlock: XUDNAN_clean_linker_2, # of connection points: 2
#     Edge 83, Type (0, 1), BuildingBlock: XUDNAN_clean_linker_2, # of connection points: 2
#     Edge 84, Type (0, 1), BuildingBlock: XUDNAN_clean_linker_2, # of connection points: 2
#     Edge 85, Type (0, 1), BuildingBlock: XUDNAN_clean_linker_2, # of connection points: 2
#     Edge 86, Type (0, 1), BuildingBlock: XUDNAN_clean_linker_2, # of connection points: 2
#     Edge 87, Type (0, 1), BuildingBlock: XUDNAN_clean_linker_2, # of connection points: 2
#     Edge 88, Type (0, 1), BuildingBlock: XUDNAN_clean_linker_2, # of connection points: 2
#     Edge 89, Type (0, 1), BuildingBlock: XUDNAN_clean_linker_2, # of connection points: 2
#     Edge 90, Type (0, 1), BuildingBlock: XUDNAN_clean_linker_2, # of connection points: 2
#     Edge 91, Type (0, 1), BuildingBlock: XUDNAN_clean_linker_2, # of connection points: 2
#     Edge 92, Type (0, 1), BuildingBlock: XUDNAN_clean_linker_2, # of connection points: 2
#     Edge 93, Type (0, 1), BuildingBlock: XUDNAN_clean_linker_2, # of connection points: 2
#     Edge 94, Type (0, 1), BuildingBlock: XUDNAN_clean_linker_2, # of connection points: 2
#     Edge 95, Type (0, 1), BuildingBlock: XUDNAN_clean_linker_2, # of connection points: 2
#     Edge 96, Type (0, 1), BuildingBlock: XUDNAN_clean_linker_2, # of connection points: 2
#     Edge 97, Type (0, 1), BuildingBlock: XUDNAN_clean_linker_2, # of connection points: 2
#     Edge 98, Type (0, 1), BuildingBlock: XUDNAN_clean_linker_2, # of connection points: 2
#     Edge 99, Type (0, 1), BuildingBlock: XUDNAN_clean_linker_2, # of connection points: 2
#     Edge 100, Type (0, 1), BuildingBlock: XUDNAN_clean_linker_2, # of connection points: 2
#     Edge 101, Type (0, 1), BuildingBlock: XUDNAN_clean_linker_2, # of connection points: 2
#     Edge 102, Type (0, 1), BuildingBlock: XUDNAN_clean_linker_2, # of connection points: 2
#     Edge 103, Type (0, 1), BuildingBlock: XUDNAN_clean_linker_2, # of connection points: 2
#     Edge 104, Type (0, 1), BuildingBlock: XUDNAN_clean_linker_2, # of connection points: 2
#     Edge 105, Type (0, 1), BuildingBlock: XUDNAN_clean_linker_2, # of connection points: 2
#     Edge 106, Type (0, 1), BuildingBlock: XUDNAN_clean_linker_2, # of connection points: 2
#     Edge 107, Type (0, 1), BuildingBlock: XUDNAN_clean_linker_2, # of connection points: 2
#     Edge 108, Type (0, 1), BuildingBlock: XUDNAN_clean_linker_2, # of connection points: 2
#     Edge 109, Type (0, 1), BuildingBlock: XUDNAN_clean_linker_2, # of connection points: 2
#     Edge 110, Type (0, 1), BuildingBlock: XUDNAN_clean_linker_2, # of connection points: 2
#     Edge 111, Type (0, 1), BuildingBlock: XUDNAN_clean_linker_2, # of connection points: 2
#     Edge 112, Type (0, 1), BuildingBlock: XUDNAN_clean_linker_2, # of connection points: 2
#     Edge 113, Type (0, 1), BuildingBlock: XUDNAN_clean_linker_2, # of connection points: 2
#     Edge 114, Type (0, 1), BuildingBlock: XUDNAN_clean_linker_2, # of connection points: 2
#     Edge 115, Type (0, 1), BuildingBlock: XUDNAN_clean_linker_2, # of connection points: 2
#     Edge 116, Type (0, 1), BuildingBlock: XUDNAN_clean_linker_2, # of connection points: 2
#     Edge 117, Type (0, 1), BuildingBlock: XUDNAN_clean_linker_2, # of connection points: 2
#     Edge 118, Type (0, 1), BuildingBlock: XUDNAN_clean_linker_2, # of connection points: 2
#     Edge 119, Type (0, 1), BuildingBlock: XUDNAN_clean_linker_2, # of connection points: 2
#     Edge 120, Type (0, 1), BuildingBlock: XUDNAN_clean_linker_2, # of connection points: 2
#     Edge 121, Type (0, 1), BuildingBlock: XUDNAN_clean_linker_2, # of connection points: 2
#     Edge 122, Type (0, 1), BuildingBlock: XUDNAN_clean_linker_2, # of connection points: 2
#     Edge 123, Type (0, 1), BuildingBlock: XUDNAN_clean_linker_2, # of connection points: 2
#     Edge 124, Type (0, 1), BuildingBlock: XUDNAN_clean_linker_2, # of connection points: 2
#     Edge 125, Type (0, 1), BuildingBlock: XUDNAN_clean_linker_2, # of connection points: 2
#     Edge 126, Type (0, 1), BuildingBlock: XUDNAN_clean_linker_2, # of connection points: 2
#     Edge 127, Type (0, 1), BuildingBlock: XUDNAN_clean_linker_2, # of connection points: 2
#     Edge 128, Type (0, 1), BuildingBlock: XUDNAN_clean_linker_2, # of connection points: 2
#     Edge 129, Type (0, 1), BuildingBlock: XUDNAN_clean_linker_2, # of connection points: 2
#     Edge 130, Type (0, 1), BuildingBlock: XUDNAN_clean_linker_2, # of connection points: 2
#     Edge 131, Type (0, 1), BuildingBlock: XUDNAN_clean_linker_2, # of connection points: 2
#     Edge 132, Type (0, 1), BuildingBlock: XUDNAN_clean_linker_2, # of connection points: 2
#     Edge 133, Type (0, 1), BuildingBlock: XUDNAN_clean_linker_2, # of connection points: 2
#     Edge 134, Type (0, 1), BuildingBlock: XUDNAN_clean_linker_2, # of connection points: 2
#     Edge 135, Type (0, 1), BuildingBlock: XUDNAN_clean_linker_2, # of connection points: 2
# Relax obj value: 0.128
# Max RMSD: 0.222
# Mean RMSD: 0.145
data_MOF--net-gar--node1-GALJAG_clean_sbu_0--node2-CUKXOW_clean_sbu_0--edge1-XUDNAN_clean_linker_2
_symmetry_space_group_name_H-M    P1
_symmetry_Int_Tables_number       1
_symmetry_cell_setting            triclinic
loop_
_symmetry_equiv_pos_as_xyz
'x, y, z'
_cell_length_a     55.286132
_cell_length_b     53.672667
_cell_length_c     53.839874
_cell_angle_alpha  93.748422
_cell_angle_beta   95.103089
_cell_angle_gamma 98.629811
loop_
_atom_site_label
_atom_site_type_symbol
_atom_site_fract_x
_atom_site_fract_y
_atom_site_fract_z
_atom_type_partial_charge
In0 In 0.0331 0.27312 0.41872 0.0
O1 O 0.06185 0.25907 0.39616 0.0
O2 O 0.05591 0.29709 0.39313 0.0
C3 C 0.99241 0.26273 0.38614 0.0
C4 C 0.03965 0.23367 0.44587 0.0
C5 C 0.03453 0.31465 0.4508 0.0
O6 O 0.01374 0.26816 0.37958 0.0
O7 O 0.99134 0.26242 0.40949 0.0
O8 O 0.05266 0.30336 0.44858 0.0
O9 O 0.0155 0.30513 0.43676 0.0
C10 C 0.06745 0.27961 0.38636 0.0
O11 O 0.05561 0.25301 0.44581 0.0
O12 O 0.01992 0.23416 0.43239 0.0
In13 In 0.0051 0.78888 0.61462 0.0
O14 O 0.99131 0.8151 0.58647 0.0
O15 O 0.02234 0.82936 0.61252 0.0
C16 C 1.00096 0.75112 0.57843 0.0
C17 C 0.04226 0.77584 0.64411 0.0
C18 C 0.97127 0.79682 0.64584 0.0
O19 O 0.98647 0.75105 0.59528 0.0
O20 O 0.01694 0.77069 0.57934 0.0
O21 O 0.99332 0.80746 0.64943 0.0
O22 O 0.96607 0.78179 0.62636 0.0
C23 C 0.00717 0.83379 0.59511 0.0
O24 O 0.02016 0.76612 0.64489 0.0
O25 O 0.04569 0.79192 0.62818 0.0
In26 In 0.5397 0.7811 0.934 0.0
O27 O 0.56605 0.79803 0.9076 0.0
O28 O 0.56818 0.76034 0.91644 0.0
C29 C 0.50042 0.7806 0.90043 0.0
C30 C 0.53742 0.7424 0.96332 0.0
C31 C 0.54324 0.82327 0.96505 0.0
O32 O 0.52198 0.78975 0.89674 0.0
O33 O 0.4984 0.77141 0.92129 0.0
O34 O 0.52297 0.81119 0.95521 0.0
O35 O 0.56189 0.81415 0.95916 0.0
C36 C 0.57568 0.77846 0.90386 0.0
O37 O 0.5493 0.76405 0.9702 0.0
O38 O 0.52696 0.73999 0.94127 0.0
In39 In 0.50211 0.29639 0.11286 0.0
O40 O 0.47673 0.26638 0.08634 0.0
O41 O 0.51496 0.26479 0.08985 0.0
C42 C 0.51004 0.335 0.08374 0.0
C43 C 0.47065 0.30765 0.14572 0.0
C44 C 0.538 0.29079 0.14817 0.0
O45 O 0.4886 0.32436 0.08661 0.0
O46 O 0.52712 0.32573 0.09502 0.0
O47 O 0.51753 0.27644 0.14532 0.0
O48 O 0.54055 0.30755 0.13285 0.0
C49 C 0.49388 0.25507 0.07994 0.0
O50 O 0.46926 0.28585 0.13486 0.0
O51 O 0.48723 0.32399 0.13919 0.0
In52 In 1.00346 0.76884 0.17425 0.0
O53 O 0.0131 0.74383 0.14131 0.0
O54 O 0.99034 0.72627 0.1669 0.0
C55 C 1.00094 0.80469 0.14115 0.0
C56 C 0.96502 0.76691 0.2034 0.0
C57 C 0.04834 0.77903 0.20169 0.0
O58 O 0.01506 0.8084 0.16122 0.0
O59 O 0.9879 0.78312 0.13797 0.0
O60 O 0.04157 0.75924 0.18732 0.0
O61 O 0.03241 0.79355 0.20254 0.0
C62 C 1.00103 0.72366 0.14736 0.0
O63 O 0.98466 0.75854 0.20944 0.0
O64 O 0.96473 0.77672 0.18276 0.0
In65 In 0.53305 0.79249 0.37799 0.0
O66 O 0.55169 0.78689 0.34238 0.0
O67 O 0.57501 0.79307 0.37629 0.0
C68 C 0.48931 0.79195 0.34983 0.0
C69 C 0.52921 0.74852 0.40036 0.0
C70 C 0.53605 0.83744 0.40563 0.0
O71 O 0.5097 0.8019 0.34329 0.0
O72 O 0.49089 0.78256 0.37065 0.0
O73 O 0.52518 0.81698 0.41228 0.0
O74 O 0.54568 0.83515 0.38544 0.0
C75 C 0.57338 0.78931 0.35277 0.0
O76 O 0.54132 0.76878 0.41112 0.0
O77 O 0.51994 0.75048 0.37846 0.0
In78 In 0.5073 0.2682 0.67393 0.0
O79 O 0.51931 0.24215 0.64387 0.0
O80 O 0.49587 0.22518 0.66939 0.0
C81 C 0.50994 0.30291 0.63946 0.0
C82 C 0.46293 0.26933 0.69248 0.0
C83 C 0.54993 0.27789 0.70507 0.0
O84 O 0.51762 0.30855 0.66221 0.0
O85 O 0.50138 0.27989 0.63415 0.0
O86 O 0.54261 0.25702 0.69262 0.0
O87 O 0.53537 0.29375 0.70257 0.0
C88 C 0.5076 0.22209 0.65059 0.0
O89 O 0.48147 0.26511 0.70606 0.0
O90 O 0.46695 0.27278 0.67026 0.0
In91 In 0.03378 0.29507 0.8824 0.0
O92 O 0.04017 0.26945 0.91401 0.0
O93 O 0.02063 0.2524 0.87993 0.0
C94 C 0.0327 0.3362 0.91457 0.0
C95 C 0.07811 0.29527 0.86335 0.0
C96 C 0.99089 0.2937 0.85303 0.0
O97 O 0.02944 0.31375 0.92049 0.0
O98 O 0.03659 0.33835 0.89201 0.0
O99 O 0.01138 0.30404 0.84696 0.0
O100 O 0.99203 0.28439 0.87394 0.0
C101 C 0.02884 0.24953 0.90202 0.0
O102 O 0.05808 0.29211 0.84954 0.0
O103 O 0.07575 0.29882 0.88628 0.0
In104 In 0.41422 0.07747 0.26679 0.0
O105 O 0.4468 0.08152 0.24171 0.0
O106 O 0.41099 0.06748 0.22452 0.0
C107 C 0.43881 0.0873 0.31366 0.0
C108 C 0.38902 0.11736 0.26333 0.0
C109 C 0.39199 0.02985 0.273 0.0
O110 O 0.44841 0.0779 0.29551 0.0
O111 O 0.41794 0.09315 0.30768 0.0
O112 O 0.38034 0.04567 0.26291 0.0
O113 O 0.41447 0.0378 0.27895 0.0
C114 C 0.43347 0.07337 0.22165 0.0
O115 O 0.37969 0.09626 0.27014 0.0
O116 O 0.41107 0.11843 0.25829 0.0
In117 In 0.27217 0.14097 0.4916 0.0
O118 O 0.29391 0.15546 0.52868 0.0
O119 O 0.25763 0.16365 0.52308 0.0
C120 C 0.28397 0.17581 0.45882 0.0
C121 C 0.30022 0.10463 0.49588 0.0
C122 C 0.22763 0.11355 0.47872 0.0
O123 O 0.2988 0.17197 0.47671 0.0
O124 O 0.26346 0.16166 0.457 0.0
O125 O 0.24702 0.10636 0.47226 0.0
O126 O 0.23069 0.13479 0.49108 0.0
C127 C 0.27718 0.16569 0.53748 0.0
O128 O 0.28259 0.10621 0.50897 0.0
O129 O 0.30314 0.12087 0.47996 0.0
In130 In 0.16391 0.00638 0.80612 0.0
O131 O 0.13433 0.01573 0.77745 0.0
O132 O 0.16012 0.99321 0.76489 0.0
C133 C 0.13125 1.00334 0.8409 0.0
C134 C 0.18503 0.9639 0.80722 0.0
C135 C 0.19286 0.0523 0.81037 0.0
O136 O 0.12712 0.99133 0.81972 0.0
O137 O 0.15184 0.01748 0.84468 0.0
O138 O 0.19474 0.0365 0.82662 0.0
O139 O 0.17671 0.04481 0.79236 0.0
C140 C 0.14149 1.0035 0.7594 0.0
O141 O 0.19741 0.98519 0.80468 0.0
O142 O 0.16294 0.96458 0.81058 0.0
In143 In 0.22466 0.88993 0.03233 0.0
O144 O 0.22185 0.85604 0.05841 0.0
O145 O 0.2351 0.89283 0.0747 0.0
C146 C 0.22294 0.85949 0.98853 0.0
C147 C 0.18692 0.91846 0.02602 0.0
C148 C 0.26872 0.92065 0.03382 0.0
O149 O 0.20452 0.85958 1.00093 0.0
O150 O 0.24181 0.87389 0.99852 0.0
O151 O 0.24923 0.9288 0.0387 0.0
O152 O 0.26602 0.89711 0.02843 0.0
C153 C 0.23047 0.86972 0.07817 0.0
O154 O 0.20572 0.92054 0.01419 0.0
O155 O 0.18643 0.90129 0.04103 0.0
In156 In 0.25705 0.42795 0.04891 0.0
O157 O 0.27112 0.40464 0.0789 0.0
O158 O 0.23286 0.39745 0.06697 0.0
C159 C 0.25172 0.40123 1.00419 0.0
C160 C 0.22674 0.4626 0.05036 0.0
C161 C 0.30125 0.45611 0.0592 0.0
O162 O 0.26942 0.40048 0.02037 0.0
O163 O 0.23682 0.41543 0.01054 0.0
O164 O 0.28771 0.45017 0.07631 0.0
O165 O 0.29224 0.44813 0.03724 0.0
C166 C 0.25047 0.3917 0.08078 0.0
O167 O 0.24655 0.4661 0.04034 0.0
O168 O 0.2228 0.44217 0.0607 0.0
In169 In 0.80715 0.16636 0.0137 0.0
O170 O 0.81869 0.12724 0.01044 0.0
O171 O 0.8479 0.15779 0.01738 0.0
C172 C 0.75879 0.14436 0.00915 0.0
C173 C 0.80736 0.19688 0.05707 0.0
C174 C 0.81099 0.18799 0.96902 0.0
O175 O 0.77412 0.13948 0.0262 0.0
O176 O 0.76779 0.16004 0.99484 0.0
O177 O 0.81669 0.20085 0.98986 0.0
O178 O 0.80493 0.16463 0.97099 0.0
C179 C 0.84165 0.13406 0.01368 0.0
O180 O 0.81233 0.17471 0.0571 0.0
O181 O 0.8038 0.20407 0.03539 0.0
In182 In 0.12379 0.49314 0.28008 0.0
O183 O 0.15336 0.47553 0.26132 0.0
O184 O 0.14174 0.45897 0.29366 0.0
C185 C 0.15712 0.53643 0.28671 0.0
C186 C 0.09297 0.48743 0.23639 0.0
C187 C 0.09526 0.4926 0.31945 0.0
O188 O 0.15386 0.52137 0.30359 0.0
O189 O 0.1439 0.52952 0.26643 0.0
O190 O 0.09987 0.47273 0.30816 0.0
O191 O 0.10421 0.51259 0.31039 0.0
C192 C 0.15538 0.4585 0.27607 0.0
O193 O 0.09721 0.50769 0.25037 0.0
O194 O 0.10286 0.4698 0.2452 0.0
In195 In 0.77821 0.93753 0.55814 0.0
O196 O 0.75722 0.92714 0.59169 0.0
O197 O 0.77835 0.90089 0.57666 0.0
C198 C 0.78737 0.91008 0.51737 0.0
C199 C 0.7423 0.96091 0.53862 0.0
C200 C 0.81638 0.97204 0.5794 0.0
O201 O 0.80382 0.92554 0.53031 0.0
O202 O 0.76627 0.90883 0.52469 0.0
O203 O 0.81668 0.94859 0.57865 0.0
O204 O 0.7963 0.978 0.57077 0.0
C205 C 0.76379 0.90565 0.59238 0.0
O206 O 0.76399 0.96554 0.53262 0.0
O207 O 0.73893 0.94473 0.55447 0.0
In208 In 0.87559 0.05567 0.24983 0.0
O209 O 0.90424 0.07938 0.22922 0.0
O210 O 0.88936 0.04251 0.21309 0.0
C211 C 0.90912 0.05621 0.28975 0.0
C212 C 0.8467 0.09204 0.24473 0.0
C213 C 0.8457 0.01158 0.25542 0.0
O214 O 0.89145 0.0685 0.29019 0.0
O215 O 0.90994 0.04384 0.26923 0.0
O216 O 0.84707 0.03125 0.26991 0.0
O217 O 0.85883 0.01422 0.23751 0.0
C218 C 0.90426 0.06252 0.21174 0.0
O219 O 0.84416 0.07252 0.22971 0.0
O220 O 0.8638 0.09324 0.26207 0.0
In221 In 0.30985 0.66459 0.5137 0.0
O222 O 0.32149 0.62525 0.51047 0.0
O223 O 0.35054 0.65587 0.51401 0.0
C224 C 0.26492 0.63512 0.50554 0.0
C225 C 0.31225 0.68928 0.56076 0.0
C226 C 0.30667 0.69797 0.47684 0.0
O227 O 0.27495 0.6471 0.4888 0.0
O228 O 0.27777 0.63745 0.5264 0.0
O229 O 0.30256 0.70262 0.4992 0.0
O230 O 0.31403 0.67703 0.47313 0.0
C231 C 0.34438 0.63212 0.51159 0.0
O232 O 0.331 0.68844 0.54901 0.0
O233 O 0.29263 0.67799 0.54882 0.0
In234 In 0.37997 0.54674 0.74478 0.0
O235 O 0.34723 0.56866 0.7411 0.0
O236 O 0.38337 0.58947 0.74605 0.0
C237 C 0.35069 0.50057 0.73965 0.0
C238 C 0.41386 0.54831 0.71108 0.0
C239 C 0.39957 0.55403 0.79286 0.0
O240 O 0.35186 0.51511 0.72218 0.0
O241 O 0.36406 0.50929 0.75931 0.0
O242 O 0.41031 0.54409 0.77589 0.0
O243 O 0.37894 0.55978 0.7856 0.0
C244 C 0.36059 0.59013 0.74393 0.0
O245 O 0.41784 0.54221 0.73311 0.0
O246 O 0.39244 0.55304 0.70563 0.0
In247 In 0.62703 0.99484 0.78972 0.0
O248 O 0.66116 0.9758 0.79898 0.0
O249 O 0.62654 0.95218 0.79318 0.0
C250 C 0.66118 0.03614 0.78535 0.0
C251 C 0.60252 0.98962 0.74252 0.0
C252 C 0.59793 1.00131 0.82797 0.0
O253 O 0.66013 0.01539 0.77269 0.0
O254 O 0.64521 0.03615 0.80068 0.0
O255 O 0.59002 0.99817 0.80508 0.0
O256 O 0.62063 1.00045 0.83198 0.0
C257 C 0.64958 0.95354 0.79739 0.0
O258 O 0.60364 0.00918 0.75716 0.0
O259 O 0.6128 0.97253 0.75196 0.0
In260 In 0.77493 0.66212 1.00067 0.0
O261 O 0.7838 0.62278 0.99092 0.0
O262 O 0.81087 0.64934 0.01317 0.0
C263 C 0.72918 0.63623 0.99535 0.0
C264 C 0.77929 0.69351 0.04231 0.0
C265 C 0.78518 0.69243 0.96411 0.0
O266 O 0.74115 0.64107 0.97691 0.0
O267 O 0.74032 0.64441 0.01644 0.0
O268 O 0.764 0.68721 0.97111 0.0
O269 O 0.80144 0.6818 0.9752 0.0
C270 C 0.80463 0.62707 1.00332 0.0
O271 O 0.77256 0.69998 0.02104 0.0
O272 O 0.7834 0.67106 0.04264 0.0
In273 In 0.90929 0.57528 0.75436 0.0
O274 O 0.87769 0.59071 0.73356 0.0
O275 O 0.90076 0.61644 0.76022 0.0
C276 C 0.87842 0.53102 0.75585 0.0
C277 C 0.93888 0.57506 0.71568 0.0
C278 C 0.92841 0.57911 0.80367 0.0
O279 O 0.87124 0.55101 0.74929 0.0
O280 O 0.90133 0.5331 0.76137 0.0
O281 O 0.93911 0.56987 0.78629 0.0
O282 O 0.90906 0.58726 0.79603 0.0
C283 C 0.88196 0.61268 0.74443 0.0
O284 O 0.94255 0.59184 0.73379 0.0
O285 O 0.92078 0.5582 0.71733 0.0
In286 In 0.73218 0.39378 0.53131 0.0
O287 O 0.72987 0.36057 0.55759 0.0
O288 O 0.74512 0.39735 0.57323 0.0
C289 C 0.72992 0.36141 0.48867 0.0
C290 C 0.69225 0.41909 0.53348 0.0
C291 C 0.77387 0.42719 0.52908 0.0
O292 O 0.74962 0.37314 0.49992 0.0
O293 O 0.71117 0.36508 0.49932 0.0
O294 O 0.77364 0.40676 0.53943 0.0
O295 O 0.75295 0.43111 0.52021 0.0
C296 C 0.73977 0.3743 0.57693 0.0
O297 O 0.70883 0.4246 0.51922 0.0
O298 O 0.69558 0.40078 0.54626 0.0
In299 In 0.66649 0.50674 0.30131 0.0
O300 O 0.70369 0.49296 0.30683 0.0
O301 O 0.67349 0.46667 0.28956 0.0
C302 C 0.69316 0.55405 0.30441 0.0
C303 C 0.63312 0.5026 0.26085 0.0
C304 C 0.64067 0.50012 0.34179 0.0
O305 O 0.6921 0.54041 0.32263 0.0
O306 O 0.68111 0.54375 0.28447 0.0
O307 O 0.64281 0.52022 0.33075 0.0
O308 O 0.6519 0.4834 0.33273 0.0
C309 C 0.69608 0.47083 0.29709 0.0
O310 O 0.62749 0.50485 0.28297 0.0
O311 O 0.65566 0.50223 0.25902 0.0
Tb312 Tb 0.02341 0.05771 0.01996 0.0
C313 C 0.02924 0.01409 0.97986 0.0
Tb314 Tb 0.01024 1.00186 0.0323 0.0
O315 O 0.06229 0.05528 0.01806 0.0
O316 O 0.04143 0.03048 0.03866 0.0
O317 O 0.02654 0.03806 0.98416 0.0
C318 C 0.00978 0.95452 0.04507 0.0
O319 O 0.02519 0.99692 0.99632 0.0
C320 C 0.97252 0.0257 0.022 0.0
C321 C 0.00632 0.04583 0.07321 0.0
O322 O 0.99635 0.96126 0.02638 0.0
O323 O 0.0237 0.97443 0.05633 0.0
O324 O 0.97138 0.00561 0.03429 0.0
O325 O 0.99293 0.02866 0.01284 0.0
O326 O 0.0085 0.02162 0.06868 0.0
O327 O 0.01045 0.06305 0.05676 0.0
C328 C 0.01604 0.10033 0.99958 0.0
O329 O 1.00283 0.07826 0.9944 0.0
O330 O 0.0336 0.09879 0.01705 0.0
C331 C 0.06201 0.03467 0.02963 0.0
Tb332 Tb 0.2765 0.81422 0.28719 0.0
C333 C 0.31808 0.78038 0.27824 0.0
Tb334 Tb 0.26235 0.75566 0.27273 0.0
O335 O 0.2625 0.80846 0.32346 0.0
O336 O 0.27733 0.77996 0.30536 0.0
O337 O 0.31092 0.80287 0.27678 0.0
C338 C 0.24674 0.70795 0.28175 0.0
O339 O 0.30246 0.75909 0.27928 0.0
C340 C 0.2627 0.78247 0.23255 0.0
C341 C 0.22083 0.79152 0.27277 0.0
O342 O 0.25812 0.71475 0.26249 0.0
O343 O 0.2443 0.72791 0.29569 0.0
O344 O 0.25686 0.75791 0.23124 0.0
O345 O 0.2683 0.78914 0.25541 0.0
O346 O 0.22652 0.76839 0.27474 0.0
O347 O 0.23759 0.81234 0.27499 0.0
C348 C 0.29873 0.86243 0.29324 0.0
O349 O 0.30364 0.84442 0.30682 0.0
O350 O 0.28073 0.85347 0.27631 0.0
C351 C 0.26688 0.78539 0.32449 0.0
Tb352 Tb 0.54546 0.036 0.51847 0.0
C353 C 0.53478 0.0117 0.57072 0.0
Tb354 Tb 0.49317 0.02469 0.53279 0.0
O355 O 0.54796 0.07666 0.52959 0.0
O356 O 0.52535 0.04961 0.54633 0.0
O357 O 0.54981 0.01561 0.55279 0.0
C358 C 0.44859 0.03413 0.54107 0.0
O359 O 0.51202 0.01718 0.56842 0.0
C360 C 0.50824 0.98786 0.5069 0.0
C361 C 0.50397 0.05073 0.48157 0.0
O362 O 0.45474 0.01168 0.53913 0.0
O363 O 0.46768 0.05084 0.53922 0.0
O364 O 0.4916 0.98403 0.52244 0.0
O365 O 0.51323 0.01118 0.50477 0.0
O366 O 0.4891 0.04622 0.49946 0.0
O367 O 0.52657 0.04488 0.48335 0.0
C368 C 0.58894 0.02566 0.50738 0.0
O369 O 0.58296 0.04821 0.50878 0.0
O370 O 0.5705 0.00935 0.51203 0.0
C371 C 0.53078 0.07293 0.54458 0.0
Tb372 Tb 0.27628 0.28758 0.80228 0.0
C373 C 0.27411 0.32658 0.75929 0.0
Tb374 Tb 0.25963 0.26734 0.74768 0.0
O375 O 0.31405 0.27947 0.80016 0.0
O376 O 0.29211 0.286 0.76852 0.0
O377 O 0.27667 0.32297 0.78359 0.0
C378 C 0.26587 0.24348 0.70461 0.0
O379 O 0.26927 0.30743 0.74166 0.0
C380 C 0.22414 0.27614 0.77478 0.0
C381 C 0.26278 0.22833 0.79047 0.0
O382 O 0.2476 0.25565 0.70808 0.0
O383 O 0.27993 0.24447 0.7253 0.0
O384 O 0.22191 0.27581 0.75041 0.0
O385 O 0.244 0.26869 0.78155 0.0
O386 O 0.26035 0.23197 0.76616 0.0
O387 O 0.26697 0.24742 0.80819 0.0
C388 C 0.26825 0.31274 0.84389 0.0
O389 O 0.28594 0.29931 0.84227 0.0
O390 O 0.25588 0.31223 0.82228 0.0
C391 C 0.31195 0.27865 0.77574 0.0
Tb392 Tb 0.0067 0.0388 0.50262 0.0
C393 C 0.97805 0.04133 0.54941 0.0
Tb394 Tb 0.03541 0.03735 0.55464 0.0
O395 O 0.98607 1.00057 0.50548 0.0
O396 O 0.0209 0.01181 0.52392 0.0
O397 O 0.97897 0.04809 0.52616 0.0
C398 C 0.05564 0.0222 0.59667 0.0
O399 O 0.99679 0.0338 0.56259 0.0
C400 C 0.04048 0.08176 0.53706 0.0
C401 C 0.06403 0.04014 0.50746 0.0
O402 O 0.04344 0.04108 0.59552 0.0
O403 O 0.05626 0.01196 0.57433 0.0
O404 O 0.05621 0.07509 0.55374 0.0
O405 O 0.02169 0.06497 0.53351 0.0
O406 O 0.06325 0.03126 0.52979 0.0
O407 O 0.04505 0.04805 0.49542 0.0
C408 C 0.99276 0.045 0.45511 0.0
O409 O 0.00617 0.02869 0.46282 0.0
O410 O 0.98672 0.05791 0.47428 0.0
C411 C 1.00266 0.99458 0.52158 0.0
Tb412 Tb 0.29575 0.78268 0.78658 0.0
C413 C 0.25328 0.78615 0.82196 0.0
Tb414 Tb 0.24178 0.76546 0.76415 0.0
O415 O 0.292 0.82266 0.79138 0.0
O416 O 0.26857 0.79818 0.76521 0.0
O417 O 0.27711 0.78522 0.82085 0.0
C418 C 0.19561 0.76315 0.74446 0.0
O419 O 0.23688 0.78097 0.80191 0.0
C420 C 0.26607 0.72823 0.77387 0.0
C421 C 0.28412 0.76085 0.72903 0.0
O422 O 0.20245 0.75147 0.76363 0.0
O423 O 0.2147 0.77617 0.73652 0.0
O424 O 0.24627 0.72573 0.75847 0.0
O425 O 0.26902 0.74991 0.78543 0.0
O426 O 0.26041 0.76245 0.72995 0.0
O427 O 0.30039 0.76576 0.74923 0.0
C428 C 0.34242 0.7855 0.80506 0.0
O429 O 0.33511 0.79358 0.78389 0.0
O430 O 0.32349 0.77588 0.81583 0.0
C431 C 0.27192 0.82004 0.77642 0.0
Tb432 Tb 0.48464 0.02477 0.01637 0.0
C433 C 0.52524 0.99017 0.03017 0.0
Tb434 Tb 0.54108 0.04889 0.02692 0.0
O435 O 0.48499 0.03176 0.97695 0.0
O436 O 0.5173 0.02643 0.99742 0.0
O437 O 0.50158 0.99286 0.02899 0.0
C438 C 0.58643 0.06744 0.01675 0.0
O439 O 0.54337 0.00894 0.02785 0.0
C440 C 0.5167 0.05192 0.06747 0.0
C441 C 0.50041 0.08392 0.01638 0.0
O442 O 0.58118 0.05583 0.03656 0.0
O443 O 0.56619 0.06854 1.0029 0.0
O444 O 0.54002 0.0606 0.06751 0.0
O445 O 0.50988 0.04211 0.04569 0.0
O446 O 0.52391 0.08116 0.01632 0.0
O447 O 0.48239 0.06493 0.01807 0.0
C448 C 0.43806 0.00538 0.02253 0.0
O449 O 0.4511 0.02512 0.03478 0.0
O450 O 0.45133 0.99609 0.00651 0.0
C451 C 0.50859 0.03236 0.97644 0.0
Tb452 Tb 0.24899 0.27969 0.27692 0.0
C453 C 0.2868 0.28691 0.32408 0.0
Tb454 Tb 0.30189 0.30253 0.27155 0.0
O455 O 0.25945 0.24182 0.28074 0.0
O456 O 0.27908 0.26782 0.2603 0.0
O457 O 0.26364 0.28741 0.31572 0.0
C458 C 0.3497 0.30988 0.26534 0.0
O459 O 0.30498 0.2907 0.3096 0.0
C460 C 0.27148 0.33544 0.27545 0.0
C461 C 0.26346 0.29432 0.22366 0.0
O462 O 0.33734 0.32741 0.2723 0.0
O463 O 0.33524 0.28838 0.26271 0.0
O464 O 0.29114 0.33875 0.2638 0.0
O465 O 0.27108 0.31535 0.28668 0.0
O466 O 0.28708 0.29766 0.23238 0.0
O467 O 0.24543 0.28798 0.23785 0.0
C468 C 0.20097 0.27556 0.28139 0.0
O469 O 0.21476 0.25892 0.28752 0.0
O470 O 0.21415 0.29411 0.27222 0.0
C471 C 0.279 0.24666 0.26907 0.0
Tb472 Tb 0.50393 0.54417 1.0043 0.0
C473 C 0.47159 0.52659 0.04607 0.0
Tb474 Tb 0.52943 0.53982 0.05699 0.0
O475 O 0.49253 0.50284 0.99983 0.0
O476 O 0.52451 0.51903 0.02188 0.0
O477 O 0.47238 0.53844 0.0253 0.0
C478 C 0.54429 0.52494 0.10126 0.0
O479 O 0.49159 0.5219 0.05925 0.0
C480 C 0.52504 0.58582 0.04715 0.0
C481 C 0.56182 0.55807 0.01499 0.0
O482 O 0.52743 0.53893 0.09712 0.0
O483 O 0.55312 0.51931 0.08038 0.0
O484 O 0.54113 0.58037 0.06416 0.0
O485 O 0.51021 0.5661 0.03918 0.0
O486 O 0.5614 0.54693 0.03634 0.0
O487 O 0.54166 0.56159 1.00115 0.0
C488 C 0.48383 0.55738 0.96114 0.0
O489 O 0.50001 0.54224 0.96328 0.0
O490 O 0.4792 0.56522 0.98325 0.0
C491 C 0.51058 0.49866 0.01529 0.0
Tb492 Tb 0.78914 0.27513 0.28168 0.0
C493 C 0.75207 0.2861 0.32088 0.0
Tb494 Tb 0.73591 0.27534 0.26244 0.0
O495 O 0.79604 0.31523 0.29426 0.0
O496 O 0.76879 0.3017 0.26528 0.0
O497 O 0.77343 0.27826 0.31777 0.0
C498 C 0.69004 0.2831 0.25064 0.0
O499 O 0.73609 0.28863 0.30168 0.0
C500 C 0.74893 0.23015 0.26237 0.0
C501 C 0.77276 0.26695 0.22298 0.0
O502 O 0.69662 0.26744 0.26629 0.0
O503 O 0.70933 0.29449 0.24156 0.0
O504 O 0.73116 0.23597 0.24765 0.0
O505 O 0.75647 0.24869 0.27827 0.0
O506 O 0.75235 0.27627 0.22699 0.0
O507 O 0.78832 0.26218 0.24175 0.0
C508 C 0.83342 0.26337 0.29418 0.0
O509 O 0.82806 0.27722 0.27624 0.0
O510 O 0.81388 0.25612 0.30511 0.0
C511 C 0.77744 0.32059 0.28038 0.0
Tb512 Tb 0.99138 0.52386 0.51409 0.0
C513 C 0.02563 0.4821 0.52514 0.0
Tb514 Tb 0.04854 0.54018 0.52434 0.0
O515 O 0.99402 0.52812 0.4738 0.0
O516 O 0.02318 0.51955 0.49576 0.0
O517 O 1.00286 0.48756 0.52162 0.0
C518 C 0.09437 0.55407 0.51272 0.0
O519 O 0.04587 0.4993 0.52612 0.0
C520 C 0.02665 0.54882 0.56556 0.0
C521 C 0.01374 0.58089 0.51677 0.0
O522 O 0.08863 0.54432 0.53335 0.0
O523 O 0.07435 0.55571 0.49877 0.0
O524 O 0.05022 0.55412 0.56407 0.0
O525 O 0.01731 0.539 0.54427 0.0
O526 O 0.03524 0.57427 0.51239 0.0
O527 O 0.99505 0.56443 0.5224 0.0
C528 C 0.94314 0.50907 0.51593 0.0
O529 O 0.95297 0.52387 0.50023 0.0
O530 O 0.96053 0.50239 0.5307 0.0
C531 C 0.01703 0.52556 0.47423 0.0
Tb532 Tb 0.78023 0.78892 0.31419 0.0
C533 C 0.78309 0.83464 0.28022 0.0
Tb534 Tb 0.77068 0.7781 0.2577 0.0
O535 O 0.81101 0.76764 0.3133 0.0
O536 O 0.80217 0.78831 0.28346 0.0
O537 O 0.77852 0.82666 0.30233 0.0
C538 C 0.77869 0.76938 0.21041 0.0
O539 O 0.78434 0.81876 0.26061 0.0
C540 C 0.72845 0.78301 0.27529 0.0
C541 C 0.76063 0.7334 0.29377 0.0
O542 O 0.76763 0.78727 0.21897 0.0
O543 O 0.78498 0.75593 0.22843 0.0
O544 O 0.73114 0.77815 0.25185 0.0
O545 O 0.74934 0.78474 0.28745 0.0
O546 O 0.76574 0.73968 0.271 0.0
O547 O 0.76196 0.75038 0.31309 0.0
C548 C 0.788 0.80728 0.36169 0.0
O549 O 0.8042 0.80868 0.34572 0.0
O550 O 0.76702 0.79546 0.35098 0.0
C551 C 0.81618 0.7734 0.29119 0.0
Tb552 Tb 0.77973 0.31254 0.78271 0.0
C553 C 0.8208 0.27953 0.77759 0.0
Tb554 Tb 0.76512 0.25521 0.76822 0.0
O555 O 0.79126 0.3075 0.82221 0.0
O556 O 0.76658 0.27994 0.80079 0.0
O557 O 0.81361 0.30108 0.77175 0.0
C558 C 0.75174 0.2053 0.76942 0.0
O559 O 0.8047 0.25916 0.78058 0.0
C560 C 0.76511 0.28418 0.73019 0.0
C561 C 0.72305 0.28921 0.77135 0.0
O562 O 0.76836 0.21591 0.75608 0.0
O563 O 0.74303 0.22275 0.78199 0.0
O564 O 0.75259 0.26159 0.7294 0.0
O565 O 0.7792 0.28776 0.7503 0.0
O566 O 0.72883 0.26605 0.77015 0.0
O567 O 0.73979 0.30995 0.77554 0.0
C568 C 0.79086 0.3626 0.78044 0.0
O569 O 0.77114 0.34844 0.76965 0.0
O570 O 0.80393 0.34866 0.79299 0.0
C571 C 0.78027 0.28426 0.82119 0.0
Tb572 Tb 0.73751 0.76589 0.76839 0.0
C573 C 0.77815 0.7801 0.81402 0.0
Tb574 Tb 0.78754 0.7944 0.76119 0.0
O575 O 0.74438 0.7321 0.74694 0.0
O576 O 0.77346 0.75625 0.76706 0.0
O577 O 0.7544 0.7783 0.80638 0.0
C578 C 0.83095 0.80236 0.74317 0.0
O579 O 0.79511 0.78249 0.79815 0.0
C580 C 0.75652 0.82341 0.77746 0.0
C581 C 0.74531 0.7868 0.71622 0.0
O582 O 0.82416 0.81676 0.76078 0.0
O583 O 0.81342 0.78382 0.73595 0.0
O584 O 0.78028 0.83021 0.78012 0.0
O585 O 0.75194 0.80345 0.76323 0.0
O586 O 0.76925 0.79088 0.72322 0.0
O587 O 0.7289 0.77987 0.73201 0.0
C588 C 0.69354 0.75219 0.78471 0.0
O589 O 0.71449 0.74972 0.79628 0.0
O590 O 0.69739 0.76166 0.76365 0.0
C591 C 0.76814 0.73728 0.75137 0.0
Tb592 Tb 0.5271 0.55451 0.5156 0.0
C593 C 0.53532 0.50929 0.47892 0.0
Tb594 Tb 0.51249 0.49992 0.5304 0.0
O595 O 0.56619 0.54944 0.51549 0.0
O596 O 0.54306 0.52886 0.53765 0.0
O597 O 0.53124 0.53304 0.48098 0.0
C598 C 0.51109 0.45312 0.54492 0.0
O599 O 0.53095 0.49358 0.49666 0.0
C600 C 0.47544 0.52409 0.51842 0.0
C601 C 0.51123 0.54517 0.5699 0.0
O602 O 0.50014 0.45891 0.52419 0.0
O603 O 0.5227 0.47359 0.55725 0.0
O604 O 0.47391 0.50473 0.53174 0.0
O605 O 0.4958 0.52605 0.50909 0.0
O606 O 0.51405 0.52113 0.56633 0.0
O607 O 0.51332 0.56137 0.55219 0.0
C608 C 0.52084 0.59725 0.49493 0.0
O609 O 0.50723 0.57538 0.48979 0.0
O610 O 0.53836 0.5954 0.51233 0.0
C611 C 0.56415 0.53092 0.53007 0.0
Tb612 Tb 0.03045 0.53498 0.0137 0.0
C613 C 0.0212 0.51291 0.06716 0.0
Tb614 Tb 0.9791 0.52403 0.02896 0.0
O615 O 0.03114 0.57614 0.02123 0.0
O616 O 0.01066 0.55026 0.04095 0.0
O617 O 0.03596 0.51653 0.049 0.0
C618 C 0.93383 0.52928 0.03914 0.0
O619 O 0.99819 0.51757 0.06477 0.0
C620 C 0.99558 0.48501 0.00959 0.0
C621 C 0.98859 0.54623 0.97575 0.0
O622 O 0.93967 0.50983 0.02682 0.0
O623 O 0.95355 0.5454 0.04599 0.0
O624 O 0.98034 0.48374 0.02668 0.0
O625 O 0.99928 0.50718 1.00256 0.0
O626 O 0.97448 0.54394 0.99456 0.0
O627 O 0.01118 0.54048 0.97774 0.0
C628 C 0.07538 0.52723 1.00476 0.0
O629 O 0.06866 0.54929 0.00789 0.0
O630 O 0.05665 0.50987 0.00595 0.0
C631 C 0.0151 0.57328 0.03748 0.0
H632 H 0.05255 0.2349 0.94456 0.0
H633 H 0.99339 0.20963 0.88571 0.0
H634 H 0.98255 0.1702 0.90612 0.0
H635 H 0.07096 0.17336 0.95023 0.0
H636 H 0.07842 0.1781 0.98365 0.0
H637 H 0.08108 0.20481 0.96493 0.0
H638 H 0.05215 0.22574 0.99216 0.0
H639 H 0.0492 0.19896 0.0108 0.0
H640 H 0.02212 0.20876 0.99578 0.0
H641 H 0.97716 0.13452 0.93305 0.0
H642 H 0.9806 0.10147 0.96208 0.0
H643 H 0.04478 0.1478 1.0029 0.0
C644 C 0.03735 0.22101 0.936 0.0
C645 C 0.02371 0.22532 0.9136 0.0
C646 C 1.00411 0.20666 0.9028 0.0
C647 C 0.99772 0.18429 0.91434 0.0
C648 C 0.01131 0.18072 0.93653 0.0
C649 C 0.03097 0.19829 0.94708 0.0
C650 C 0.04319 0.18904 0.9704 0.0
C651 C 0.07 0.18615 0.96709 0.0
C652 C 0.04156 0.20668 0.99366 0.0
C653 C 0.02727 0.16352 0.97127 0.0
C654 C 0.0088 0.15941 0.95169 0.0
C655 C 0.99163 0.13743 0.94835 0.0
C656 C 0.99374 0.11878 0.965 0.0
C657 C 0.01301 0.12203 0.98468 0.0
C658 C 0.02982 0.14488 0.98808 0.0
H659 H 0.08416 0.74863 0.20615 0.0
H660 H 0.06889 0.82335 0.22861 0.0
H661 H 0.11083 0.83433 0.2504 0.0
H662 H 0.12079 0.74038 0.26375 0.0
H663 H 0.14193 0.72401 0.24795 0.0
H664 H 0.11059 0.72191 0.2345 0.0
H665 H 0.12595 0.73803 0.19345 0.0
H666 H 0.15731 0.74014 0.20678 0.0
H667 H 0.14667 0.76752 0.19465 0.0
H668 H 0.15549 0.83797 0.26776 0.0
H669 H 0.19849 0.83325 0.28091 0.0
H670 H 0.18407 0.75556 0.24881 0.0
C671 C 0.08959 0.76726 0.21579 0.0
C672 C 0.0732 0.78515 0.21566 0.0
C673 C 0.08106 0.80931 0.22849 0.0
C674 C 0.10488 0.81573 0.2409 0.0
C675 C 0.12063 0.79772 0.24055 0.0
C676 C 0.11324 0.7739 0.22847 0.0
C677 C 0.13377 0.75807 0.23078 0.0
C678 C 0.12632 0.73471 0.2451 0.0
C679 C 0.14137 0.7505 0.20487 0.0
C680 C 0.15391 0.77674 0.24587 0.0
C681 C 0.14602 0.79956 0.25121 0.0
C682 C 0.16175 0.82008 0.26393 0.0
C683 C 0.18617 0.81724 0.27131 0.0
C684 C 0.19462 0.79396 0.26622 0.0
C685 C 0.1781 0.77345 0.25346 0.0
H686 H 0.51281 0.84807 0.44738 0.0
H687 H 0.56023 0.88305 0.39512 0.0
H688 H 0.55956 0.92496 0.41655 0.0
H689 H 0.47493 0.89576 0.45095 0.0
H690 H 0.47156 0.89425 0.48384 0.0
H691 H 0.47694 0.86672 0.46549 0.0
H692 H 0.51512 0.86357 0.49601 0.0
H693 H 0.50981 0.89107 0.51452 0.0
H694 H 0.53914 0.89051 0.5025 0.0
H695 H 0.55193 0.96317 0.44183 0.0
H696 H 0.53841 0.99535 0.46992 0.0
H697 H 0.49633 0.93613 0.50658 0.0
C698 C 0.52329 0.86453 0.44066 0.0
C699 C 0.53664 0.86228 0.4196 0.0
C700 C 0.54991 0.8843 0.41122 0.0
C701 C 0.54966 0.9082 0.42329 0.0
C702 C 0.53609 0.90981 0.44377 0.0
C703 C 0.52322 0.8886 0.4525 0.0
C704 C 0.50947 0.89578 0.47441 0.0
C705 C 0.48157 0.88764 0.46829 0.0
C706 C 0.51896 0.88457 0.49828 0.0
C707 C 0.51636 0.92433 0.47638 0.0
C708 C 0.53181 0.93197 0.45855 0.0
C709 C 0.54006 0.95741 0.45604 0.0
C710 C 0.5323 0.97556 0.47212 0.0
C711 C 0.51656 0.96823 0.49061 0.0
C712 C 0.50855 0.94225 0.49277 0.0
H713 H 0.4476 0.26251 0.73984 0.0
H714 H 0.42246 0.27894 0.6648 0.0
H715 H 0.38151 0.2819 0.67798 0.0
H716 H 0.38997 0.22427 0.75204 0.0
H717 H 0.39206 0.23607 0.78441 0.0
H718 H 0.41966 0.23463 0.76926 0.0
H719 H 0.434 0.28239 0.78141 0.0
H720 H 0.40645 0.28397 0.79658 0.0
H721 H 0.41412 0.30471 0.77247 0.0
H722 H 0.34398 0.2849 0.69887 0.0
H723 H 0.31119 0.28701 0.72652 0.0
H724 H 0.3586 0.26734 0.78846 0.0
C725 C 0.43342 0.26663 0.72622 0.0
C726 C 0.43833 0.2705 0.70124 0.0
C727 C 0.41926 0.27589 0.684 0.0
C728 C 0.39586 0.27761 0.6913 0.0
C729 C 0.39161 0.27382 0.71594 0.0
C730 C 0.40972 0.26836 0.73321 0.0
C731 C 0.39999 0.26543 0.7586 0.0
C732 C 0.40045 0.23849 0.76654 0.0
C733 C 0.4145 0.28531 0.77844 0.0
C734 C 0.37374 0.27034 0.75286 0.0
C735 C 0.36944 0.27511 0.72807 0.0
C736 C 0.34701 0.28092 0.71825 0.0
C737 C 0.32841 0.28193 0.73412 0.0
C738 C 0.33209 0.27683 0.75955 0.0
C739 C 0.35514 0.271 0.76903 0.0
H740 H 0.99001 0.84896 0.54971 0.0
H741 H 0.02245 0.8767 0.62468 0.0
H742 H 0.02003 0.92035 0.61462 0.0
H743 H 0.02352 0.89853 0.51951 0.0
H744 H 0.99884 0.90072 0.49591 0.0
H745 H 1.00073 0.87121 0.50948 0.0
H746 H 0.95643 0.86992 0.5221 0.0
H747 H 0.95451 0.89958 0.50874 0.0
H748 H 0.94901 0.89622 0.54094 0.0
H749 H 0.01463 0.96017 0.59743 0.0
H750 H 0.01212 0.99573 0.57182 0.0
H751 H 0.98634 0.94442 0.50625 0.0
C752 C 0.9964 0.86431 0.56395 0.0
C753 C 0.00631 0.85961 0.58799 0.0
C754 C 0.01491 0.88 0.60613 0.0
C755 C 0.01338 0.9048 0.60069 0.0
C756 C 1.00348 0.90889 0.57693 0.0
C757 C 0.99552 0.88941 0.55863 0.0
C758 C 0.9878 0.8996 0.53397 0.0
C759 C 1.00368 0.89207 0.51351 0.0
C760 C 0.9603 0.8908 0.52597 0.0
C761 C 0.99308 0.92783 0.54131 0.0
C762 C 1.00158 0.93249 0.56636 0.0
C763 C 0.00821 0.95679 0.57774 0.0
C764 C 0.00703 0.97697 0.56293 0.0
C765 C 0.9998 0.9729 0.53701 0.0
C766 C 0.99194 0.94801 0.52611 0.0
H767 H 0.45145 0.76583 0.90512 0.0
H768 H 0.50201 0.79785 0.85411 0.0
H769 H 0.467 0.80165 0.82364 0.0
H770 H 0.40638 0.72983 0.85742 0.0
H771 H 0.38053 0.73598 0.87372 0.0
H772 H 0.40965 0.73468 0.89108 0.0
H773 H 0.40953 0.77948 0.91219 0.0
H774 H 0.38049 0.78097 0.89481 0.0
H775 H 0.4064 0.80529 0.89294 0.0
H776 H 0.42672 0.80366 0.79948 0.0
H777 H 0.3834 0.80285 0.78284 0.0
H778 H 0.35915 0.7695 0.84942 0.0
C779 C 0.45512 0.7734 0.88743 0.0
C780 C 0.47937 0.78153 0.88193 0.0
C781 C 0.48352 0.79151 0.85868 0.0
C782 C 0.46378 0.79373 0.84124 0.0
C783 C 0.44006 0.78584 0.84734 0.0
C784 C 0.43562 0.77577 0.8698 0.0
C785 C 0.40833 0.76931 0.87195 0.0
C786 C 0.40079 0.74075 0.87363 0.0
C787 C 0.40075 0.78469 0.89429 0.0
C788 C 0.39818 0.77758 0.84732 0.0
C789 C 0.41679 0.78699 0.83337 0.0
C790 C 0.41196 0.79622 0.81014 0.0
C791 C 0.38738 0.79574 0.80089 0.0
C792 C 0.36812 0.78613 0.81491 0.0
C793 C 0.3736 0.77692 0.83835 0.0
H794 H 0.52854 0.22793 0.06489 0.0
H795 H 0.44981 0.22808 0.05926 0.0
H796 H 0.44301 0.18569 0.03642 0.0
H797 H 0.53037 0.19203 1.00356 0.0
H798 H 0.55383 0.17522 0.01644 0.0
H799 H 0.55251 0.20699 0.02876 0.0
H800 H 0.55031 0.19159 0.07329 0.0
H801 H 0.55161 0.1599 0.06113 0.0
H802 H 0.52649 0.16617 0.07852 0.0
H803 H 0.44473 0.14112 0.01976 0.0
H804 H 0.45477 0.09837 0.01059 0.0
H805 H 0.53248 0.12811 0.02651 0.0
C806 C 0.50988 0.21934 0.05829 0.0
C807 C 0.48969 0.23128 0.06371 0.0
C808 C 0.46554 0.21928 0.05513 0.0
C809 C 0.46152 0.19526 0.0421 0.0
C810 C 0.48186 0.18371 0.03761 0.0
C811 C 0.50559 0.19548 0.04528 0.0
C812 C 0.52418 0.17823 0.04029 0.0
C813 C 0.54123 0.18875 0.02112 0.0
C814 C 0.539 0.17371 0.06476 0.0
C815 C 0.50718 0.15457 0.02945 0.0
C816 C 0.48286 0.15814 0.02776 0.0
C817 C 0.46374 0.13825 0.0205 0.0
C818 C 0.46962 0.11401 0.01537 0.0
C819 C 0.49443 0.1099 0.01759 0.0
C820 C 0.51337 0.13065 0.02408 0.0
H821 H 0.09945 0.24771 0.37455 0.0
H822 H 0.07463 0.31752 0.35503 0.0
H823 H 0.103 0.32117 0.32198 0.0
H824 H 0.16226 0.268 0.36786 0.0
H825 H 0.1677 0.2375 0.35557 0.0
H826 H 0.14403 0.23956 0.37613 0.0
H827 H 0.1121 0.21315 0.34262 0.0
H828 H 0.13567 0.21132 0.3218 0.0
H829 H 0.10823 0.22374 0.31163 0.0
H830 H 0.13511 0.31808 0.29242 0.0
H831 H 0.17186 0.31101 0.27157 0.0
H832 H 0.17593 0.24352 0.31084 0.0
C833 C 0.09986 0.26365 0.36318 0.0
C834 C 0.08483 0.28228 0.36718 0.0
C835 C 0.08606 0.30307 0.35222 0.0
C836 C 0.10194 0.30518 0.3333 0.0
C837 C 0.11642 0.28637 0.32971 0.0
C838 C 0.11572 0.26615 0.3444 0.0
C839 C 0.13446 0.24953 0.33802 0.0
C840 C 0.15322 0.24861 0.36074 0.0
C841 C 0.12185 0.22286 0.32791 0.0
C842 C 0.14612 0.2638 0.31769 0.0
C843 C 0.1352 0.28477 0.3129 0.0
C844 C 0.1437 0.30162 0.29584 0.0
C845 C 0.16448 0.29742 0.28405 0.0
C846 C 0.1765 0.27667 0.28956 0.0
C847 C 0.16679 0.25928 0.30601 0.0
H848 H 0.91484 0.02552 0.17885 0.0
H849 H 0.93262 0.10592 0.20057 0.0
H850 H 0.96218 0.11041 0.1686 0.0
H851 H 0.97634 0.01605 0.16865 0.0
H852 H 0.9667 0.99321 0.14224 0.0
H853 H 0.94662 0.99646 0.16643 0.0
H854 H 0.91214 0.00451 0.13341 0.0
H855 H 0.93204 1.00102 0.10912 0.0
H856 H 0.91845 0.02936 0.11283 0.0
H857 H 0.98872 0.10615 0.13288 0.0
H858 H 0.01052 0.09332 0.09708 0.0
H859 H 0.97704 0.01536 0.10083 0.0
C860 C 0.92486 0.0441 0.17679 0.0
C861 C 0.92134 0.06542 0.19207 0.0
C862 C 0.93499 0.08936 0.189 0.0
C863 C 0.95184 0.09207 0.17092 0.0
C864 C 0.95502 0.07062 0.15628 0.0
C865 C 0.94196 0.04708 0.15911 0.0
C866 C 0.94889 0.02698 0.14121 0.0
C867 C 0.96032 0.007 0.15549 0.0
C868 C 0.92655 0.01475 0.12307 0.0
C869 C 0.96781 0.04286 0.12778 0.0
C870 C 0.97101 0.06802 0.1366 0.0
C871 C 0.98659 0.08645 0.12605 0.0
C872 C 0.99893 0.07899 0.10577 0.0
C873 C 0.99588 0.05329 0.09646 0.0
C874 C 0.98033 0.03505 0.10792 0.0
H875 H 0.31402 0.69335 0.426 0.0
H876 H 0.28436 0.73965 0.48129 0.0
H877 H 0.2701 0.76517 0.44825 0.0
H878 H 0.33531 0.74578 0.3885 0.0
H879 H 0.32773 0.7272 0.35897 0.0
H880 H 0.33592 0.71223 0.38684 0.0
H881 H 0.29487 0.68107 0.37926 0.0
H882 H 0.28673 0.69603 0.35138 0.0
H883 H 0.26626 0.69337 0.37567 0.0
H884 H 0.25727 0.78482 0.40962 0.0
H885 H 0.25034 0.80045 0.36801 0.0
H886 H 0.28925 0.74351 0.33622 0.0
C887 C 0.30473 0.70902 0.43115 0.0
C888 C 0.30037 0.7144 0.45646 0.0
C889 C 0.28807 0.73507 0.46224 0.0
C890 C 0.27975 0.74967 0.44352 0.0
C891 C 0.28396 0.7437 0.41885 0.0
C892 C 0.29647 0.72414 0.41255 0.0
C893 C 0.29889 0.72237 0.38444 0.0
C894 C 0.32607 0.72718 0.37939 0.0
C895 C 0.28591 0.69668 0.37196 0.0
C896 C 0.28558 0.74379 0.37605 0.0
C897 C 0.27702 0.75564 0.39632 0.0
C898 C 0.26403 0.77579 0.39365 0.0
C899 C 0.2601 0.78451 0.36983 0.0
C900 C 0.26921 0.77335 0.34872 0.0
C901 C 0.28192 0.75243 0.35191 0.0
H902 H 0.57148 0.019 0.71917 0.0
H903 H 0.61046 0.95591 0.70525 0.0
H904 H 0.59641 0.95395 0.66026 0.0
H905 H 0.51822 0.99494 0.67345 0.0
H906 H 0.51439 0.02591 0.66423 0.0
H907 H 0.52716 0.02222 0.69551 0.0
H908 H 0.56558 0.05449 0.68956 0.0
H909 H 0.55296 0.05822 0.65826 0.0
H910 H 0.58301 0.04921 0.66348 0.0
H911 H 0.58151 0.96136 0.6162 0.0
H912 H 0.56297 0.97472 0.57666 0.0
H913 H 0.53016 0.03029 0.61872 0.0
C914 C 0.57683 0.00463 0.70666 0.0
C915 C 0.59214 0.9876 0.71581 0.0
C916 C 0.5987 0.96907 0.69879 0.0
C917 C 0.59086 0.96785 0.67314 0.0
C918 C 0.57603 0.98502 0.66467 0.0
C919 C 0.56871 1.0028 0.68094 0.0
C920 C 0.55248 0.01882 0.66685 0.0
C921 C 0.52652 0.01525 0.67553 0.0
C922 C 0.56421 0.04684 0.66971 0.0
C923 C 0.55219 0.00754 0.64014 0.0
C924 C 0.56615 0.98824 0.63932 0.0
C925 C 0.57014 0.9761 0.61667 0.0
C926 C 0.55959 0.98382 0.5943 0.0
C927 C 0.54475 1.00312 0.59466 0.0
C928 C 0.54089 0.015 0.61794 0.0
H929 H 0.28358 0.37253 0.98491 0.0
H930 H 0.21377 0.39864 0.96783 0.0
H931 H 0.20985 0.37684 0.92558 0.0
H932 H 0.30527 0.38073 0.92588 0.0
H933 H 0.31988 0.35288 0.92492 0.0
H934 H 0.3165 0.36888 0.95456 0.0
H935 H 0.29364 0.32728 0.96877 0.0
H936 H 0.29704 0.31109 0.93919 0.0
H937 H 0.26693 0.31057 0.94971 0.0
H938 H 0.21441 0.35484 0.88511 0.0
H939 H 0.22693 0.33305 0.8479 0.0
H940 H 0.29388 0.32072 0.89067 0.0
C941 C 0.26734 0.37339 0.97235 0.0
C942 C 0.24893 0.38718 0.97953 0.0
C943 C 0.22805 0.38812 0.96262 0.0
C944 C 0.22564 0.37578 0.93865 0.0
C945 C 0.24424 0.3626 0.93203 0.0
C946 C 0.26465 0.3612 0.94833 0.0
C947 C 0.28242 0.34659 0.93606 0.0
C948 C 0.3075 0.36327 0.93531 0.0
C949 C 0.28516 0.32244 0.94922 0.0
C950 C 0.26897 0.34043 0.91015 0.0
C951 C 0.24693 0.34976 0.90839 0.0
C952 C 0.23153 0.34729 0.88625 0.0
C953 C 0.23887 0.33499 0.86523 0.0
C954 C 0.26138 0.32533 0.86656 0.0
C955 C 0.27656 0.3279 0.88931 0.0
H956 H 0.90854 0.07759 0.3374 0.0
H957 H 0.94937 0.03249 0.29174 0.0
H958 H 0.97741 0.02819 0.3289 0.0
H959 H 0.96222 0.10996 0.38007 0.0
H960 H 0.94507 0.10902 0.40702 0.0
H961 H 0.92966 0.11101 0.37642 0.0
H962 H 0.89891 0.07081 0.38208 0.0
H963 H 0.9142 0.06867 0.41262 0.0
H964 H 0.91047 0.04221 0.38946 0.0
H965 H 0.99833 0.02522 0.37085 0.0
H966 H 0.01148 0.02399 0.41561 0.0
H967 H 0.95781 0.07142 0.43484 0.0
C968 C 0.92367 0.06721 0.33518 0.0
C969 C 0.92687 0.05542 0.31171 0.0
C970 C 0.94664 0.04171 0.30955 0.0
C971 C 0.9627 0.03923 0.33052 0.0
C972 C 0.95882 0.05072 0.35347 0.0
C973 C 0.93992 0.06457 0.35598 0.0
C974 C 0.93898 0.07361 0.38312 0.0
C975 C 0.9443 0.10263 0.38687 0.0
C976 C 0.91417 0.06319 0.39236 0.0
C977 C 0.95979 0.06195 0.39552 0.0
C978 C 0.97111 0.04907 0.37796 0.0
C979 C 0.98987 0.03551 0.38476 0.0
C980 C 0.99713 0.03485 0.41022 0.0
C981 C 0.98567 0.04766 0.42855 0.0
C982 C 0.96701 0.0617 0.42112 0.0
H983 H 0.27329 0.69557 0.58817 0.0
H984 H 0.35284 0.71179 0.59191 0.0
H985 H 0.35422 0.73203 0.63477 0.0
H986 H 0.26484 0.75387 0.62185 0.0
H987 H 0.23984 0.73912 0.63783 0.0
H988 H 0.24508 0.72588 0.60752 0.0
H989 H 0.2479 0.68276 0.62564 0.0
H990 H 0.24262 0.69588 0.65598 0.0
H991 H 0.26954 0.68127 0.6524 0.0
H992 H 0.34693 0.7496 0.67809 0.0
H993 H 0.33176 0.7642 0.71738 0.0
H994 H 0.25666 0.73786 0.68549 0.0
C995 C 0.29102 0.70343 0.59797 0.0
C996 C 0.31302 0.70201 0.58651 0.0
C997 C 0.33576 0.7126 0.60012 0.0
C998 C 0.33671 0.72414 0.62455 0.0
C999 C 0.31474 0.72515 0.63528 0.0
C1000 C 0.29229 0.71517 0.62237 0.0
C1001 C 0.27137 0.71881 0.63817 0.0
C1002 C 0.25427 0.73541 0.62559 0.0
C1003 C 0.25701 0.69315 0.64335 0.0
C1004 C 0.28551 0.73239 0.662 0.0
C1005 C 0.31052 0.73572 0.65997 0.0
C1006 C 0.32736 0.74719 0.67975 0.0
C1007 C 0.31852 0.75544 0.7021 0.0
C1008 C 0.29294 0.75247 0.70471 0.0
C1009 C 0.27629 0.74078 0.68418 0.0
H1010 H 0.60765 1.00313 0.8801 0.0
H1011 H 0.55172 0.0127 0.82112 0.0
H1012 H 0.52473 0.0236 0.85272 0.0
H1013 H 0.56511 0.97404 0.92129 0.0
H1014 H 0.58214 0.98919 0.94976 0.0
H1015 H 0.59799 0.98306 0.92272 0.0
H1016 H 0.61649 0.03051 0.92457 0.0
H1017 H 0.60059 0.0367 0.95158 0.0
H1018 H 0.59625 0.05392 0.92432 0.0
H1019 H 0.50364 0.03395 0.88983 0.0
H1020 H 0.48781 0.0396 0.93071 0.0
H1021 H 0.5555 0.02184 0.96757 0.0
C1022 C 0.58973 0.00756 0.8739 0.0
C1023 C 0.58191 0.00708 0.84793 0.0
C1024 C 0.55823 0.01285 0.84072 0.0
C1025 C 0.54274 0.01921 0.85859 0.0
C1026 C 0.55093 0.01961 0.88387 0.0
C1027 C 0.57374 0.01373 0.89168 0.0
C1028 C 0.5773 0.01472 0.92023 0.0
C1029 C 0.58084 0.9887 0.92901 0.0
C1030 C 0.59895 0.03518 0.93079 0.0
C1031 C 0.55289 0.02189 0.92707 0.0
C1032 C 0.53822 0.0249 0.90566 0.0
C1033 C 0.51492 0.03155 0.90672 0.0
C1034 C 0.50609 0.03476 0.93013 0.0
C1035 C 0.52026 0.03112 0.95247 0.0
C1036 C 0.5442 0.02485 0.95089 0.0
H1037 H 0.28654 0.37498 0.10965 0.0
H1038 H 0.20753 0.3631 0.09056 0.0
H1039 H 0.20272 0.3308 0.12126 0.0
H1040 H 0.29216 0.30853 0.12164 0.0
H1041 H 0.31553 0.31848 0.14735 0.0
H1042 H 0.31293 0.3378 0.12138 0.0
H1043 H 0.30879 0.37609 0.15189 0.0
H1044 H 0.31159 0.35696 0.17783 0.0
H1045 H 0.28523 0.37282 0.17309 0.0
H1046 H 0.20626 0.30443 0.15772 0.0
H1047 H 0.21764 0.28707 0.19765 0.0
H1048 H 0.29449 0.31567 0.19171 0.0
C1049 C 0.26826 0.36525 0.11158 0.0
C1050 C 0.2474 0.37143 0.09782 0.0
C1051 C 0.22374 0.35851 0.10097 0.0
C1052 C 0.22086 0.34007 0.1182 0.0
C1053 C 0.24185 0.33465 0.13178 0.0
C1054 C 0.2651 0.3468 0.12854 0.0
C1055 C 0.28447 0.33944 0.14699 0.0
C1056 C 0.30232 0.32521 0.13353 0.0
C1057 C 0.29831 0.3627 0.16342 0.0
C1058 C 0.2684 0.32206 0.16187 0.0
C1059 C 0.24392 0.31918 0.1526 0.0
C1060 C 0.22541 0.30608 0.16484 0.0
C1061 C 0.23207 0.29632 0.18753 0.0
C1062 C 0.25698 0.29989 0.19771 0.0
C1063 C 0.27535 0.31218 0.18422 0.0
H1064 H 0.14611 0.92376 0.05294 0.0
H1065 H 0.18473 0.95263 0.99142 0.0
H1066 H 0.15613 0.98303 0.98559 0.0
H1067 H 0.08361 0.93109 0.02549 0.0
H1068 H 0.07353 0.94113 0.05493 0.0
H1069 H 0.09611 0.92017 0.05415 0.0
H1070 H 0.12594 0.95144 0.08545 0.0
H1071 H 0.10342 0.97243 0.08633 0.0
H1072 H 0.13387 0.98382 0.07829 0.0
H1073 H 0.12601 0.01194 0.98723 0.0
H1074 H 0.0944 0.03791 0.99525 0.0
H1075 H 0.07218 0.99208 0.05533 0.0
C1076 C 0.14831 0.9363 0.03808 0.0
C1077 C 0.16789 0.93559 0.02258 0.0
C1078 C 0.17011 0.95259 1.00355 0.0
C1079 C 0.15386 0.97002 1.00004 0.0
C1080 C 0.1351 0.97048 0.01563 0.0
C1081 C 0.13197 0.95408 0.03422 0.0
C1082 C 0.11032 0.95953 0.04857 0.0
C1083 C 0.08967 0.93661 0.0456 0.0
C1084 C 0.11891 0.96727 0.07631 0.0
C1085 C 0.10222 0.98174 0.03529 0.0
C1086 C 0.11694 0.98744 0.01634 0.0
C1087 C 0.11418 0.00748 1.0018 0.0
C1088 C 0.09605 0.02223 0.00662 0.0
C1089 C 0.08037 0.0171 0.02576 0.0
C1090 C 0.08348 0.99634 0.04029 0.0
H1091 H 0.70332 0.6164 0.03206 0.0
H1092 H 0.69825 0.62524 0.9523 0.0
H1093 H 0.65498 0.60408 0.94812 0.0
H1094 H 0.66509 0.5542 0.02783 0.0
H1095 H 0.6514 0.5611 0.05614 0.0
H1096 H 0.68225 0.5758 0.05247 0.0
H1097 H 0.66979 0.62002 0.06114 0.0
H1098 H 0.63894 0.60547 0.06477 0.0
H1099 H 0.6442 0.62866 0.04229 0.0
H1100 H 0.61155 0.58537 0.95345 0.0
H1101 H 0.57151 0.56803 0.96742 0.0
H1102 H 0.60594 0.56987 0.04335 0.0
C1103 C 0.69316 0.61369 0.01368 0.0
C1104 C 0.70395 0.62246 0.9925 0.0
C1105 C 0.6902 0.61856 0.96874 0.0
C1106 C 0.66569 0.60659 0.96619 0.0
C1107 C 0.65547 0.59842 0.98755 0.0
C1108 C 0.66885 0.60155 0.01078 0.0
C1109 C 0.65348 0.59152 0.03085 0.0
C1110 C 0.66366 0.56933 0.0425 0.0
C1111 C 0.65149 0.61268 0.05094 0.0
C1112 C 0.62919 0.58274 0.01538 0.0
C1113 C 0.63069 0.5869 0.99045 0.0
C1114 C 0.61021 0.58168 0.97284 0.0
C1115 C 0.58758 0.57195 0.98096 0.0
C1116 C 0.58576 0.56742 0.0064 0.0
C1117 C 0.60689 0.57272 0.02371 0.0
H1118 H 0.68368 0.42101 0.27822 0.0
H1119 H 0.74534 0.47675 0.31091 0.0
H1120 H 0.77285 0.44476 0.30784 0.0
H1121 H 0.70177 0.36863 0.3094 0.0
H1122 H 0.69172 0.34572 0.28312 0.0
H1123 H 0.67685 0.37317 0.28703 0.0
H1124 H 0.68608 0.38468 0.2425 0.0
H1125 H 0.70113 0.35734 0.23864 0.0
H1126 H 0.71733 0.3883 0.23448 0.0
H1127 H 0.79332 0.40684 0.30338 0.0
H1128 H 0.80579 0.3648 0.29758 0.0
H1129 H 0.73159 0.33311 0.26702 0.0
C1130 C 0.703 0.42649 0.28458 0.0
C1131 C 0.71239 0.45143 0.29479 0.0
C1132 C 0.73774 0.45781 0.30303 0.0
C1133 C 0.75353 0.43978 0.30132 0.0
C1134 C 0.74373 0.41541 0.29124 0.0
C1135 C 0.71909 0.40865 0.28298 0.0
C1136 C 0.71331 0.38085 0.27359 0.0
C1137 C 0.69482 0.36624 0.28923 0.0
C1138 C 0.70391 0.37762 0.24564 0.0
C1139 C 0.73856 0.37311 0.27801 0.0
C1140 C 0.75577 0.39341 0.28821 0.0
C1141 C 0.78008 0.39087 0.29513 0.0
C1142 C 0.78699 0.36692 0.29177 0.0
C1143 C 0.76975 0.34581 0.28139 0.0
C1144 C 0.74527 0.34902 0.27425 0.0
H1145 H 0.82055 0.42384 0.54928 0.0
H1146 H 0.77946 0.46889 0.50228 0.0
H1147 H 0.81828 0.49564 0.49515 0.0
H1148 H 0.86703 0.47638 0.57778 0.0
H1149 H 0.89151 0.45765 0.57822 0.0
H1150 H 0.86041 0.44282 0.58061 0.0
H1151 H 0.86295 0.41167 0.54242 0.0
H1152 H 0.89399 0.42646 0.53984 0.0
H1153 H 0.87111 0.42396 0.51339 0.0
H1154 H 0.86161 0.51555 0.49073 0.0
H1155 H 0.90641 0.52867 0.49097 0.0
H1156 H 0.9196 0.47176 0.54196 0.0
C1157 C 0.8197 0.43952 0.53771 0.0
C1158 C 0.79696 0.44431 0.52632 0.0
C1159 C 0.79664 0.46493 0.51125 0.0
C1160 C 0.8186 0.4802 0.50708 0.0
C1161 C 0.84073 0.47477 0.5183 0.0
C1162 C 0.84145 0.45508 0.53351 0.0
C1163 C 0.86772 0.45301 0.54294 0.0
C1164 C 0.87191 0.45775 0.57159 0.0
C1165 C 0.87432 0.42725 0.53411 0.0
C1166 C 0.88169 0.47432 0.5303 0.0
C1167 C 0.86573 0.48661 0.51617 0.0
C1168 C 0.87426 0.50625 0.50194 0.0
C1169 C 0.89972 0.51352 0.50214 0.0
C1170 C 0.9164 0.50131 0.51657 0.0
C1171 C 0.90723 0.48157 0.53096 0.0
H1172 H 0.34851 0.12649 0.28692 0.0
H1173 H 0.39827 0.15722 0.23472 0.0
H1174 H 0.37489 0.19274 0.22976 0.0
H1175 H 0.29283 0.14343 0.25747 0.0
H1176 H 0.28104 0.1521 0.28642 0.0
H1177 H 0.30119 0.12868 0.28544 0.0
H1178 H 0.33076 0.15474 0.32103 0.0
H1179 H 0.31065 0.17818 0.32219 0.0
H1180 H 0.34252 0.18736 0.31747 0.0
H1181 H 0.34468 0.22363 0.22863 0.0
H1182 H 0.31279 0.25039 0.235 0.0
H1183 H 0.28481 0.20254 0.29118 0.0
C1184 C 0.35441 0.14068 0.2744 0.0
C1185 C 0.37513 0.13896 0.26101 0.0
C1186 C 0.38248 0.15811 0.24512 0.0
C1187 C 0.36925 0.17831 0.24212 0.0
C1188 C 0.34887 0.1794 0.25546 0.0
C1189 C 0.34169 0.16133 0.2716 0.0
C1190 C 0.31973 0.16762 0.28454 0.0
C1191 C 0.29738 0.14671 0.27807 0.0
C1192 C 0.32632 0.17225 0.313 0.0
C1193 C 0.31552 0.19189 0.27296 0.0
C1194 C 0.3324 0.19815 0.25602 0.0
C1195 C 0.33173 0.21918 0.24224 0.0
C1196 C 0.31367 0.23444 0.24617 0.0
C1197 C 0.29688 0.22917 0.26424 0.0
C1198 C 0.29764 0.20732 0.27752 0.0
H1199 H 0.34831 0.11231 0.48815 0.0
H1200 H 0.29263 0.05971 0.5175 0.0
H1201 H 0.32447 0.03435 0.53172 0.0
H1202 H 0.38804 0.06732 0.46869 0.0
H1203 H 0.41563 0.08934 0.47883 0.0
H1204 H 0.38787 0.10084 0.46809 0.0
H1205 H 0.39077 0.12854 0.50991 0.0
H1206 H 0.41827 0.11679 0.52095 0.0
H1207 H 0.39222 0.11381 0.53905 0.0
H1208 H 0.36341 0.01536 0.54337 0.0
H1209 H 0.40585 0.00597 0.55296 0.0
H1210 H 0.43488 0.07439 0.52001 0.0
C1211 C 0.34272 0.09505 0.49692 0.0
C1212 C 0.31809 0.08758 0.50135 0.0
C1213 C 0.31149 0.06545 0.5137 0.0
C1214 C 0.3294 0.051 0.52184 0.0
C1215 C 0.35376 0.0593 0.5178 0.0
C1216 C 0.36037 0.0809 0.5057 0.0
C1217 C 0.38787 0.08723 0.5056 0.0
C1218 C 0.39528 0.0861 0.47871 0.0
C1219 C 0.39785 0.11312 0.51972 0.0
C1220 C 0.39577 0.06594 0.51964 0.0
C1221 C 0.37596 0.04968 0.52619 0.0
C1222 C 0.37906 0.02809 0.53852 0.0
C1223 C 0.40311 0.02295 0.54399 0.0
C1224 C 0.42344 0.03976 0.53767 0.0
C1225 C 0.41964 0.06154 0.5256 0.0
H1226 H 0.69755 0.58779 0.26784 0.0
H1227 H 0.71901 0.57984 0.34611 0.0
H1228 H 0.73992 0.62406 0.35091 0.0
H1229 H 0.75405 0.62877 0.25619 0.0
H1230 H 0.73821 0.64768 0.23576 0.0
H1231 H 0.7257 0.61499 0.23797 0.0
H1232 H 0.6847 0.62816 0.2496 0.0
H1233 H 0.69707 0.66087 0.24745 0.0
H1234 H 0.68499 0.6509 0.27584 0.0
H1235 H 0.75629 0.66931 0.3482 0.0
H1236 H 0.76842 0.71314 0.33803 0.0
H1237 H 0.73774 0.69277 0.26104 0.0
C1238 C 0.70686 0.59531 0.28591 0.0
C1239 C 0.70668 0.5803 0.30663 0.0
C1240 C 0.71894 0.5909 0.32999 0.0
C1241 C 0.73088 0.61602 0.3329 0.0
C1242 C 0.73055 0.63035 0.31223 0.0
C1243 C 0.71901 0.62044 0.28914 0.0
C1244 C 0.72102 0.64029 0.27019 0.0
C1245 C 0.73562 0.63246 0.24876 0.0
C1246 C 0.69542 0.64535 0.26019 0.0
C1247 C 0.73523 0.66297 0.28637 0.0
C1248 C 0.74047 0.65667 0.31055 0.0
C1249 C 0.75248 0.67443 0.3293 0.0
C1250 C 0.7592 0.69934 0.32332 0.0
C1251 C 0.7541 0.70644 0.29872 0.0
C1252 C 0.74217 0.68787 0.27992 0.0
H1253 H 0.888 0.48808 0.7774 0.0
H1254 H 0.82992 0.52067 0.738 0.0
H1255 H 0.80078 0.48155 0.74098 0.0
H1256 H 0.87005 0.42447 0.74982 0.0
H1257 H 0.87763 0.41013 0.77826 0.0
H1258 H 0.89386 0.44065 0.77286 0.0
H1259 H 0.88195 0.45934 0.81485 0.0
H1260 H 0.86557 0.42888 0.82031 0.0
H1261 H 0.85 0.45608 0.82045 0.0
H1262 H 0.77824 0.43831 0.74717 0.0
H1263 H 0.76389 0.39437 0.75684 0.0
H1264 H 0.83612 0.39073 0.79376 0.0
C1265 C 0.86917 0.48693 0.76934 0.0
C1266 C 0.86122 0.50736 0.75737 0.0
C1267 C 0.83639 0.50523 0.74724 0.0
C1268 C 0.81971 0.4831 0.74885 0.0
C1269 C 0.82808 0.46334 0.76086 0.0
C1270 C 0.8522 0.46507 0.77102 0.0
C1271 C 0.85644 0.44117 0.78311 0.0
C1272 C 0.87563 0.42835 0.77024 0.0
C1273 C 0.86393 0.44671 0.81136 0.0
C1274 C 0.831 0.42566 0.77798 0.0
C1275 C 0.81492 0.43875 0.76507 0.0
C1276 C 0.79061 0.42796 0.75747 0.0
C1277 C 0.78261 0.40305 0.76307 0.0
C1278 C 0.79882 0.38936 0.77627 0.0
C1279 C 0.82323 0.40093 0.78397 0.0
H1280 H 0.02789 0.85237 0.14356 0.0
H1281 H 0.97171 0.80035 0.09694 0.0
H1282 H 0.96972 0.83218 0.06601 0.0
H1283 H 1.00239 0.90817 0.13286 0.0
H1284 H 0.03162 0.92808 0.13231 0.0
H1285 H 0.0295 0.90077 0.15018 0.0
H1286 H 0.06321 0.88415 0.12616 0.0
H1287 H 0.06532 0.91136 0.10809 0.0
H1288 H 0.05908 0.88001 0.09247 0.0
H1289 H 0.9727 0.87016 0.04085 0.0
H1290 H 0.97966 0.91211 0.02392 0.0
H1291 H 0.03402 0.93941 0.08665 0.0
C1292 C 0.01526 0.84764 0.12678 0.0
C1293 C 0.99994 0.82386 0.12265 0.0
C1294 C 0.98361 0.81843 0.1005 0.0
C1295 C 0.9824 0.83636 0.08278 0.0
C1296 C 0.99772 0.85962 0.08741 0.0
C1297 C 0.01385 0.86532 0.10886 0.0
C1298 C 0.02775 0.89201 0.10965 0.0
C1299 C 0.02249 0.90821 0.13261 0.0
C1300 C 0.05548 0.89186 0.10906 0.0
C1301 C 0.01657 0.90057 0.08556 0.0
C1302 C 0.99944 0.88152 0.07289 0.0
C1303 C 0.98618 0.88517 0.05052 0.0
C1304 C 0.99027 0.90902 0.04103 0.0
C1305 C 0.0074 0.9289 0.05394 0.0
C1306 C 0.02093 0.92447 0.07631 0.0
H1307 H 0.94502 0.26965 0.86117 0.0
H1308 H 0.98365 0.31447 0.80844 0.0
H1309 H 0.94462 0.3125 0.78165 0.0
H1310 H 0.90214 0.2287 0.81475 0.0
H1311 H 0.87677 0.22771 0.8337 0.0
H1312 H 0.90785 0.23175 0.84839 0.0
H1313 H 0.90105 0.27279 0.87306 0.0
H1314 H 0.86994 0.26873 0.85858 0.0
H1315 H 0.89048 0.29774 0.85627 0.0
H1316 H 0.90123 0.3083 0.76214 0.0
H1317 H 0.85628 0.30216 0.75116 0.0
H1318 H 0.8455 0.25836 0.81523 0.0
C1319 C 0.94528 0.27894 0.84391 0.0
C1320 C 0.96743 0.29225 0.83689 0.0
C1321 C 0.96696 0.30417 0.8142 0.0
C1322 C 0.94488 0.30309 0.79883 0.0
C1323 C 0.9234 0.28984 0.80628 0.0
C1324 C 0.92339 0.27792 0.82826 0.0
C1325 C 0.89759 0.26555 0.83224 0.0
C1326 C 0.896 0.23671 0.83227 0.0
C1327 C 0.88928 0.27689 0.85647 0.0
C1328 C 0.88305 0.27272 0.80926 0.0
C1329 C 0.89836 0.28671 0.79454 0.0
C1330 C 0.88913 0.29702 0.77327 0.0
C1331 C 0.86359 0.2934 0.76715 0.0
C1332 C 0.84754 0.27933 0.78202 0.0
C1333 C 0.85744 0.26847 0.80309 0.0
H1334 H 0.53149 0.21142 0.60961 0.0
H1335 H 0.4837 0.17627 0.66147 0.0
H1336 H 0.48364 0.1345 0.63917 0.0
H1337 H 0.50402 0.17168 0.55438 0.0
H1338 H 0.53292 0.17053 0.54159 0.0
H1339 H 0.52892 0.19771 0.56137 0.0
H1340 H 0.56707 0.19209 0.59084 0.0
H1341 H 0.57121 0.16493 0.57114 0.0
H1342 H 0.56827 0.16219 0.60396 0.0
H1343 H 0.48934 0.09662 0.61181 0.0
H1344 H 0.50071 0.06497 0.58157 0.0
H1345 H 0.54464 0.12456 0.54706 0.0
C1346 C 0.52098 0.19493 0.61626 0.0
C1347 C 0.50759 0.19706 0.6373 0.0
C1348 C 0.49409 0.17506 0.64542 0.0
C1349 C 0.49392 0.15128 0.63285 0.0
C1350 C 0.50731 0.14984 0.61218 0.0
C1351 C 0.5206 0.17106 0.60393 0.0
C1352 C 0.53367 0.16426 0.58142 0.0
C1353 C 0.52432 0.17679 0.55832 0.0
C1354 C 0.56172 0.17128 0.58719 0.0
C1355 C 0.52581 0.13585 0.5784 0.0
C1356 C 0.51053 0.12797 0.59631 0.0
C1357 C 0.50118 0.10259 0.59764 0.0
C1358 C 0.50772 0.08475 0.58032 0.0
C1359 C 0.52343 0.09234 0.56188 0.0
C1360 C 0.53249 0.11825 0.56088 0.0
H1361 H 0.62285 0.79068 0.36975 0.0
H1362 H 0.57249 0.78621 0.30231 0.0
H1363 H 0.60694 0.78543 0.27667 0.0
H1364 H 0.67418 0.83075 0.34689 0.0
H1365 H 0.69755 0.81485 0.36143 0.0
H1366 H 0.66914 0.81556 0.37529 0.0
H1367 H 0.66181 0.7667 0.37395 0.0
H1368 H 0.69023 0.76588 0.36012 0.0
H1369 H 0.6619 0.74844 0.34464 0.0
H1370 H 0.64533 0.78505 0.25796 0.0
H1371 H 0.68678 0.78346 0.24614 0.0
H1372 H 0.7149 0.78745 0.32452 0.0
C1373 C 0.61917 0.78957 0.34958 0.0
C1374 C 0.59484 0.78853 0.33806 0.0
C1375 C 0.59081 0.78699 0.31163 0.0
C1376 C 0.61031 0.7866 0.29685 0.0
C1377 C 0.63393 0.78767 0.30865 0.0
C1378 C 0.63862 0.78901 0.33435 0.0
C1379 C 0.66601 0.78939 0.34178 0.0
C1380 C 0.67739 0.81411 0.35727 0.0
C1381 C 0.67023 0.76622 0.35596 0.0
C1382 C 0.67577 0.78802 0.31618 0.0
C1383 C 0.65671 0.78717 0.29753 0.0
C1384 C 0.66042 0.78568 0.27235 0.0
C1385 C 0.68416 0.78478 0.26586 0.0
C1386 C 0.70419 0.78531 0.28434 0.0
C1387 C 0.69999 0.78712 0.30998 0.0
H1388 H 0.00836 0.18928 0.44934 0.0
H1389 H 0.08132 0.22967 0.47502 0.0
H1390 H 0.08961 0.19426 0.49959 0.0
H1391 H 0.99598 0.16317 0.50684 0.0
H1392 H 0.98008 0.13312 0.49268 0.0
H1393 H 0.98001 0.16105 0.47589 0.0
H1394 H 0.99772 0.13899 0.43888 0.0
H1395 H 0.99784 0.11101 0.45561 0.0
H1396 H 0.02579 0.12603 0.44452 0.0
H1397 H 0.08988 0.15598 0.52227 0.0
H1398 H 0.08195 0.11616 0.54256 0.0
H1399 H 0.00875 0.09997 0.50303 0.0
C1400 C 0.0261 0.19056 0.46006 0.0
C1401 C 0.04421 0.21219 0.46033 0.0
C1402 C 0.06718 0.21327 0.47458 0.0
C1403 C 0.07211 0.19324 0.48854 0.0
C1404 C 0.0539 0.17225 0.48797 0.0
C1405 C 0.03136 0.17064 0.47413 0.0
C1406 C 0.01484 0.14609 0.47751 0.0
C1407 C 0.99134 0.15117 0.48892 0.0
C1408 C 0.0087 0.12956 0.45265 0.0
C1409 C 0.03153 0.13451 0.49578 0.0
C1410 C 0.05402 0.14989 0.50132 0.0
C1411 C 0.0724 0.14368 0.51804 0.0
C1412 C 0.06768 0.12111 0.52953 0.0
C1413 C 0.04476 0.10513 0.5243 0.0
C1414 C 0.02647 0.11184 0.50716 0.0
H1415 H 0.585 0.31623 0.15462 0.0
H1416 H 0.53464 0.25986 0.18643 0.0
H1417 H 0.56738 0.25543 0.21944 0.0
H1418 H 0.63647 0.28588 0.16271 0.0
H1419 H 0.65834 0.31443 0.17019 0.0
H1420 H 0.63024 0.31516 0.15086 0.0
H1421 H 0.61985 0.3505 0.18143 0.0
H1422 H 0.64789 0.34973 0.20101 0.0
H1423 H 0.6188 0.34532 0.21409 0.0
H1424 H 0.60605 0.25501 0.24702 0.0
H1425 H 0.64877 0.25662 0.2657 0.0
H1426 H 0.67399 0.31286 0.21556 0.0
C1427 C 0.58078 0.3032 0.16873 0.0
C1428 C 0.55734 0.28843 0.1681 0.0
C1429 C 0.55254 0.27134 0.18665 0.0
C1430 C 0.57094 0.26883 0.20553 0.0
C1431 C 0.59393 0.28359 0.20557 0.0
C1432 C 0.59894 0.3004 0.18762 0.0
C1433 C 0.62566 0.31258 0.19071 0.0
C1434 C 0.63842 0.30664 0.16723 0.0
C1435 C 0.62819 0.34123 0.1972 0.0
C1436 C 0.63507 0.29941 0.21272 0.0
C1437 C 0.61638 0.28311 0.2213 0.0
C1438 C 0.6208 0.2679 0.24067 0.0
C1439 C 0.64507 0.26894 0.25114 0.0
C1440 C 0.66449 0.28488 0.24201 0.0
C1441 C 0.65937 0.30068 0.22298 0.0
H1442 H 0.50568 0.84827 0.97618 0.0
H1443 H 0.58458 0.85129 0.99039 0.0
H1444 H 0.58747 0.89219 0.01527 0.0
H1445 H 0.50732 0.91094 0.9656 0.0
H1446 H 0.47978 0.91494 0.97997 0.0
H1447 H 0.48354 0.88425 0.96693 0.0
H1448 H 0.4767 0.86593 0.0096 0.0
H1449 H 0.47306 0.89672 0.02283 0.0
H1450 H 0.49578 0.88001 0.03736 0.0
H1451 H 0.5825 0.93489 0.03355 0.0
H1452 H 0.57041 0.97675 0.04229 0.0
H1453 H 0.49461 0.94562 0.01652 0.0
C1454 C 0.52349 0.85725 0.98502 0.0
C1455 C 0.5449 0.84662 0.98151 0.0
C1456 C 0.56794 0.85912 0.99296 0.0
C1457 C 0.56973 0.88225 0.00724 0.0
C1458 C 0.54828 0.89246 0.01 0.0
C1459 C 0.52558 0.88032 0.99925 0.0
C1460 C 0.50573 0.89645 1.00273 0.0
C1461 C 0.49339 0.90197 0.9773 0.0
C1462 C 0.48669 0.88403 0.01911 0.0
C1463 C 0.52096 0.92 0.01625 0.0
C1464 C 0.54539 0.91717 0.02066 0.0
C1465 C 0.56336 0.93719 0.03067 0.0
C1466 C 0.55631 0.9609 0.03554 0.0
C1467 C 0.53153 0.9644 0.03028 0.0
C1468 C 0.51358 0.94343 0.02133 0.0
H1469 H 0.92471 0.77127 0.64671 0.0
H1470 H 0.97716 0.83356 0.68425 0.0
H1471 H 0.94696 0.84212 0.7136 0.0
H1472 H 0.87068 0.80003 0.65155 0.0
H1473 H 0.8516 0.77109 0.65725 0.0
H1474 H 0.87733 0.77006 0.63913 0.0
H1475 H 0.89476 0.73988 0.66938 0.0
H1476 H 0.86907 0.74086 0.68758 0.0
H1477 H 0.90001 0.74929 0.70243 0.0
H1478 H 0.91065 0.84419 0.73853 0.0
H1479 H 0.87114 0.83864 0.75763 0.0
H1480 H 0.84355 0.77445 0.7042 0.0
C1481 C 0.9298 0.78673 0.66107 0.0
C1482 C 0.95316 0.80181 0.66322 0.0
C1483 C 0.95929 0.82178 0.68234 0.0
C1484 C 0.94229 0.82681 0.69906 0.0
C1485 C 0.91937 0.81157 0.69647 0.0
C1486 C 0.91316 0.79186 0.67804 0.0
C1487 C 0.88747 0.77809 0.67946 0.0
C1488 C 0.87079 0.77994 0.65542 0.0
C1489 C 0.88787 0.75039 0.68505 0.0
C1490 C 0.88017 0.79323 0.70144 0.0
C1491 C 0.89874 0.8125 0.71102 0.0
C1492 C 0.89598 0.82912 0.73125 0.0
C1493 C 0.87358 0.82587 0.74194 0.0
C1494 C 0.85451 0.80614 0.73235 0.0
C1495 C 0.85792 0.78967 0.71193 0.0
H1496 H 0.12543 0.03748 0.87916 0.0
H1497 H 0.09704 0.96216 0.845 0.0
H1498 H 0.06748 0.95623 0.87681 0.0
H1499 H 0.12007 0.0242 0.94295 0.0
H1500 H 0.11016 0.0537 0.95194 0.0
H1501 H 0.12961 0.05193 0.92697 0.0
H1502 H 0.0979 0.0689 0.89686 0.0
H1503 H 0.07836 0.07109 0.92169 0.0
H1504 H 0.06649 0.05309 0.89258 0.0
H1505 H 0.04254 0.95784 0.91412 0.0
H1506 H 0.02154 0.96866 0.95136 0.0
H1507 H 0.06345 0.04426 0.95787 0.0
C1508 C 0.11303 0.01974 0.87848 0.0
C1509 C 0.11357 1.00019 0.85983 0.0
C1510 C 0.09686 0.97735 0.85922 0.0
C1511 C 0.08008 0.97379 0.87722 0.0
C1512 C 0.07994 0.99345 0.89539 0.0
C1513 C 0.09574 0.01611 0.89592 0.0
C1514 C 0.09122 0.03459 0.91678 0.0
C1515 C 0.11412 0.04151 0.93579 0.0
C1516 C 0.083 0.05832 0.90635 0.0
C1517 C 0.0705 0.01878 0.92792 0.0
C1518 C 0.06448 0.99495 0.91564 0.0
C1519 C 0.04682 0.97659 0.92363 0.0
C1520 C 0.03499 0.98285 0.94472 0.0
C1521 C 0.04051 0.0074 0.95705 0.0
C1522 C 0.05839 0.02552 0.94838 0.0
H1523 H 0.72368 0.32727 0.59409 0.0
H1524 H 0.76987 0.3994 0.61632 0.0
H1525 H 0.78144 0.38434 0.65733 0.0
H1526 H 0.70147 0.31846 0.65517 0.0
H1527 H 0.70118 0.28476 0.65284 0.0
H1528 H 0.69665 0.30097 0.62493 0.0
H1529 H 0.73296 0.28287 0.60705 0.0
H1530 H 0.73761 0.26665 0.63493 0.0
H1531 H 0.76263 0.28804 0.62503 0.0
H1532 H 0.78947 0.36096 0.69581 0.0
H1533 H 0.79116 0.33178 0.72944 0.0
H1534 H 0.73805 0.27556 0.68408 0.0
C1535 C 0.73622 0.33987 0.6076 0.0
C1536 C 0.74589 0.36458 0.6018 0.0
C1537 C 0.76213 0.38046 0.62018 0.0
C1538 C 0.76889 0.37204 0.6436 0.0
C1539 C 0.75912 0.34766 0.64874 0.0
C1540 C 0.74294 0.33185 0.63138 0.0
C1541 C 0.73475 0.30669 0.64201 0.0
C1542 C 0.70686 0.30248 0.64385 0.0
C1543 C 0.74245 0.28477 0.62632 0.0
C1544 C 0.74901 0.31079 0.66786 0.0
C1545 C 0.76308 0.33452 0.67129 0.0
C1546 C 0.77831 0.34244 0.69338 0.0
C1547 C 0.77911 0.32577 0.71248 0.0
C1548 C 0.7645 0.30154 0.70965 0.0
C1549 C 0.74931 0.29404 0.68694 0.0
H1550 H 0.47792 0.06571 0.33413 0.0
H1551 H 0.42236 0.11063 0.35375 0.0
H1552 H 0.43488 0.10818 0.39846 0.0
H1553 H 0.47001 0.02394 0.38161 0.0
H1554 H 0.50207 0.02151 0.38824 0.0
H1555 H 0.49059 0.02861 0.35758 0.0
H1556 H 0.5229 0.06923 0.36073 0.0
H1557 H 0.53461 0.06216 0.39137 0.0
H1558 H 0.52466 0.0922 0.38706 0.0
H1559 H 0.44992 0.09725 0.44076 0.0
H1560 H 0.46869 0.08092 0.47836 0.0
H1561 H 0.51607 0.04413 0.43282 0.0
C1562 C 0.46885 0.07556 0.34785 0.0
C1563 C 0.44922 0.08855 0.34031 0.0
C1564 C 0.43749 0.10071 0.35894 0.0
C1565 C 0.44446 0.0994 0.38446 0.0
C1566 C 0.46337 0.08597 0.39128 0.0
C1567 C 0.47566 0.07449 0.3736 0.0
C1568 C 0.49465 0.06033 0.38622 0.0
C1569 C 0.48898 0.03192 0.37791 0.0
C1570 C 0.52076 0.07166 0.38103 0.0
C1571 C 0.49077 0.06531 0.41363 0.0
C1572 C 0.47257 0.08012 0.41602 0.0
C1573 C 0.46449 0.08601 0.43917 0.0
C1574 C 0.47522 0.07655 0.46045 0.0
C1575 C 0.49408 0.06149 0.45867 0.0
C1576 C 0.50208 0.05602 0.43489 0.0
H1577 H 0.79469 0.68384 0.08975 0.0
H1578 H 0.7692 0.74173 0.04609 0.0
H1579 H 0.77106 0.7697 0.0847 0.0
H1580 H 0.7603 0.69178 0.13927 0.0
H1581 H 0.7834 0.68668 0.1634 0.0
H1582 H 0.78326 0.67255 0.13217 0.0
H1583 H 0.82836 0.694 0.13079 0.0
H1584 H 0.82863 0.70822 0.16212 0.0
H1585 H 0.83623 0.72779 0.13711 0.0
H1586 H 0.77115 0.78915 0.12775 0.0
H1587 H 0.76929 0.79896 0.1729 0.0
H1588 H 0.79537 0.72877 0.18864 0.0
C1589 C 0.78991 0.70257 0.08829 0.0
C1590 C 0.78181 0.71071 0.06505 0.0
C1591 C 0.7755 0.73522 0.06379 0.0
C1592 C 0.77662 0.75125 0.08556 0.0
C1593 C 0.78435 0.74252 0.10827 0.0
C1594 C 0.79104 0.71883 0.1098 0.0
C1595 C 0.7969 0.7133 0.13668 0.0
C1596 C 0.77995 0.68969 0.14325 0.0
C1597 C 0.82415 0.71068 0.14197 0.0
C1598 C 0.79136 0.73712 0.15004 0.0
C1599 C 0.78454 0.75389 0.13329 0.0
C1600 C 0.77686 0.77641 0.14108 0.0
C1601 C 0.77577 0.78175 0.16669 0.0
C1602 C 0.78224 0.76458 0.18402 0.0
C1603 C 0.7906 0.74228 0.17568 0.0
H1604 H 0.10801 0.0318 0.74031 0.0
H1605 H 0.14746 0.97036 0.72083 0.0
H1606 H 0.12741 0.96677 0.67765 0.0
H1607 H 0.05088 0.00783 0.70101 0.0
H1608 H 0.04619 0.03874 0.69227 0.0
H1609 H 0.06225 0.03535 0.72219 0.0
H1610 H 0.09948 0.06702 0.7118 0.0
H1611 H 0.08354 0.07053 0.68191 0.0
H1612 H 0.11357 0.06113 0.6835 0.0
H1613 H 0.10434 0.97054 0.63667 0.0
H1614 H 0.08126 0.98306 0.59939 0.0
H1615 H 0.05762 0.04295 0.64485 0.0
C1616 C 0.11219 0.01744 0.72699 0.0
C1617 C 0.12914 1.00126 0.73383 0.0
C1618 C 0.1345 0.98293 0.71589 0.0
C1619 C 0.12313 0.98067 0.69139 0.0
C1620 C 0.10659 0.99697 0.68517 0.0
C1621 C 0.10121 0.0151 0.70236 0.0
C1622 C 0.08384 0.03119 0.6904 0.0
C1623 C 0.05933 0.02808 0.70217 0.0
C1624 C 0.09584 0.05912 0.692 0.0
C1625 C 0.08058 0.01947 0.66373 0.0
C1626 C 0.09365 0.99956 0.66125 0.0
C1627 C 0.09397 0.98604 0.63836 0.0
C1628 C 0.08085 0.9933 0.61733 0.0
C1629 C 0.0678 0.01397 0.61936 0.0
C1630 C 0.06743 0.02703 0.64288 0.0
H1631 H 0.76842 0.35294 0.46129 0.0
H1632 H 0.6891 0.33571 0.4603 0.0
H1633 H 0.68679 0.31273 0.41864 0.0
H1634 H 0.76957 0.36388 0.39677 0.0
H1635 H 0.79661 0.34966 0.39254 0.0
H1636 H 0.79232 0.3636 0.42287 0.0
H1637 H 0.79674 0.32138 0.44214 0.0
H1638 H 0.80104 0.3073 0.41185 0.0
H1639 H 0.77706 0.29276 0.42924 0.0
H1640 H 0.69262 0.29416 0.37596 0.0
H1641 H 0.70604 0.28025 0.33561 0.0
H1642 H 0.78198 0.30789 0.36365 0.0
C1643 C 0.75058 0.34405 0.45244 0.0
C1644 C 0.72888 0.34608 0.46425 0.0
C1645 C 0.70595 0.33437 0.45183 0.0
C1646 C 0.70447 0.32126 0.4281 0.0
C1647 C 0.72611 0.31983 0.41691 0.0
C1648 C 0.74878 0.33077 0.42869 0.0
C1649 C 0.76913 0.32698 0.41212 0.0
C1650 C 0.7827 0.35255 0.4057 0.0
C1651 C 0.78705 0.31116 0.42459 0.0
C1652 C 0.75434 0.31244 0.38907 0.0
C1653 C 0.72955 0.30859 0.39234 0.0
C1654 C 0.712 0.29682 0.37336 0.0
C1655 C 0.71984 0.28899 0.35043 0.0
C1656 C 0.7451 0.29264 0.34643 0.0
C1657 C 0.76261 0.3043 0.36624 0.0
H1658 H 0.48084 0.06934 0.20941 0.0
H1659 H 0.40684 0.07251 0.17673 0.0
H1660 H 0.42049 0.06856 0.13451 0.0
H1661 H 0.51366 0.10373 0.16309 0.0
H1662 H 0.53725 0.08393 0.16252 0.0
H1663 H 0.52221 0.0882 0.1905 0.0
H1664 H 0.51007 0.03971 0.19052 0.0
H1665 H 0.52505 0.0353 0.16254 0.0
H1666 H 0.49318 0.02205 0.16314 0.0
H1667 H 0.44199 0.0658 0.09579 0.0
H1668 H 0.46944 0.06097 0.06287 0.0
H1669 H 0.52909 0.05518 0.1188 0.0
C1670 C 0.46761 0.06941 0.19334 0.0
C1671 C 0.44273 0.07144 0.19647 0.0
C1672 C 0.42594 0.07102 0.17491 0.0
C1673 C 0.43354 0.06884 0.15079 0.0
C1674 C 0.45804 0.06674 0.14828 0.0
C1675 C 0.47484 0.06675 0.16889 0.0
C1676 C 0.49984 0.06308 0.16062 0.0
C1677 C 0.5194 0.08611 0.16972 0.0
C1678 C 0.50748 0.03858 0.16975 0.0
C1679 C 0.49438 0.06108 0.13223 0.0
C1680 C 0.47016 0.06349 0.12567 0.0
C1681 C 0.46079 0.06315 0.10073 0.0
C1682 C 0.47637 0.05978 0.082 0.0
C1683 C 0.50092 0.05608 0.08799 0.0
C1684 C 0.51019 0.05732 0.11357 0.0
H1685 H 0.75185 0.71431 0.93661 0.0
H1686 H 0.82974 0.70985 0.94779 0.0
H1687 H 0.83739 0.7385 0.91416 0.0
H1688 H 0.74739 0.71046 0.8723 0.0
H1689 H 0.72532 0.73181 0.86854 0.0
H1690 H 0.72666 0.71431 0.8958 0.0
H1691 H 0.7329 0.75608 0.92422 0.0
H1692 H 0.73165 0.77379 0.89695 0.0
H1693 H 0.7578 0.78084 0.92019 0.0
H1694 H 0.83572 0.76341 0.87657 0.0
H1695 H 0.8247 0.78008 0.83622 0.0
H1696 H 0.74781 0.76823 0.8502 0.0
C1697 C 0.77059 0.71972 0.93231 0.0
C1698 C 0.79025 0.71002 0.94476 0.0
C1699 C 0.81446 0.71717 0.93841 0.0
C1700 C 0.81898 0.73356 0.91952 0.0
C1701 C 0.79909 0.74265 0.90744 0.0
C1702 C 0.77536 0.73594 0.91358 0.0
C1703 C 0.75686 0.74602 0.89614 0.0
C1704 C 0.73797 0.72436 0.88238 0.0
C1705 C 0.74406 0.76534 0.91023 0.0
C1706 C 0.77378 0.75865 0.87859 0.0
C1707 C 0.79811 0.75696 0.88567 0.0
C1708 C 0.8168 0.76525 0.87105 0.0
C1709 C 0.81035 0.77467 0.84815 0.0
C1710 C 0.78538 0.77544 0.84008 0.0
C1711 C 0.76707 0.76818 0.85597 0.0
H1712 H 0.89328 0.1412 0.02323 0.0
H1713 H 0.82948 0.08366 1.00165 0.0
H1714 H 0.85623 0.05117 0.99947 0.0
H1715 H 0.93551 0.11366 0.98415 0.0
H1716 H 0.9616 0.12144 0.00737 0.0
H1717 H 0.93762 0.14078 0.00629 0.0
H1718 H 0.93237 0.13396 0.05291 0.0
H1719 H 0.95619 0.11442 0.05368 0.0
H1720 H 0.92622 0.10221 0.06239 0.0
H1721 H 0.88883 0.02412 1.00103 0.0
H1722 H 0.92605 0.004 0.00652 0.0
H1723 H 0.97024 0.07745 0.02687 0.0
C1724 C 0.88501 0.12178 0.01793 0.0
C1725 C 0.85907 0.11516 0.01256 0.0
C1726 C 0.84913 0.08942 0.00587 0.0
C1727 C 0.86423 0.0707 1.00451 0.0
C1728 C 0.88953 0.07771 0.00988 0.0
C1729 C 0.9 0.10257 0.01652 0.0
C1730 C 0.92785 0.10443 0.02203 0.0
C1731 C 0.94144 0.12107 1.00387 0.0
C1732 C 0.93614 0.11435 0.04938 0.0
C1733 C 0.93119 0.07683 0.0174 0.0
C1734 C 0.90872 0.06186 0.01042 0.0
C1735 C 0.90657 0.03568 0.00617 0.0
C1736 C 0.92784 0.02439 0.00929 0.0
C1737 C 0.95118 0.03911 0.01628 0.0
C1738 C 0.95286 0.06577 0.02039 0.0
H1739 H 0.3284 0.4796 0.02571 0.0
H1740 H 0.33075 0.4631 0.1036 0.0
H1741 H 0.3749 0.48175 0.10984 0.0
H1742 H 0.38502 0.46355 0.01452 0.0
H1743 H 0.39279 0.48827 0.99417 0.0
H1744 H 0.36106 0.47605 0.99669 0.0
H1745 H 0.35259 0.52122 0.00919 0.0
H1746 H 0.38429 0.53364 0.00643 0.0
H1747 H 0.37105 0.53973 0.0352 0.0
H1748 H 0.41989 0.49767 0.10573 0.0
H1749 H 0.46101 0.51295 0.09267 0.0
H1750 H 0.42758 0.51977 0.01786 0.0
C1751 C 0.33808 0.48033 0.04421 0.0
C1752 C 0.32637 0.46997 0.06419 0.0
C1753 C 0.33953 0.47116 0.08812 0.0
C1754 C 0.36454 0.48162 0.09179 0.0
C1755 C 0.37576 0.49106 0.07141 0.0
C1756 C 0.3628 0.49085 0.0482 0.0
C1757 C 0.37911 0.50113 0.02902 0.0
C1758 C 0.37951 0.48105 0.00734 0.0
C1759 C 0.37129 0.52538 0.01941 0.0
C1760 C 0.40345 0.50667 0.04487 0.0
C1761 C 0.40128 0.50074 0.06926 0.0
C1762 C 0.42174 0.5028 0.08681 0.0
C1763 C 0.44498 0.51133 0.0792 0.0
C1764 C 0.44737 0.51777 0.05434 0.0
C1765 C 0.42629 0.51544 0.03711 0.0
H1766 H 0.31251 0.59822 0.7361 0.0
H1767 H 0.3865 0.63603 0.76121 0.0
H1768 H 0.3703 0.67519 0.77231 0.0
H1769 H 0.29179 0.65351 0.70897 0.0
H1770 H 0.26115 0.64589 0.71813 0.0
H1771 H 0.27872 0.62101 0.71143 0.0
H1772 H 0.27252 0.60514 0.75524 0.0
H1773 H 0.25526 0.6302 0.76219 0.0
H1774 H 0.2819 0.62665 0.78272 0.0
H1775 H 0.346 0.70939 0.7833 0.0
H1776 H 0.31537 0.73774 0.78881 0.0
H1777 H 0.25742 0.67892 0.75529 0.0
C1778 C 0.32529 0.61484 0.74364 0.0
C1779 C 0.35076 0.61408 0.74781 0.0
C1780 C 0.36693 0.6362 0.75774 0.0
C1781 C 0.3579 0.65852 0.76423 0.0
C1782 C 0.33268 0.65853 0.76038 0.0
C1783 C 0.31662 0.63746 0.7499 0.0
C1784 C 0.29036 0.64273 0.74749 0.0
C1785 C 0.27989 0.64066 0.71987 0.0
C1786 C 0.27406 0.62513 0.76283 0.0
C1787 C 0.29418 0.66985 0.75871 0.0
C1788 C 0.31871 0.67853 0.76615 0.0
C1789 C 0.32673 0.70281 0.77746 0.0
C1790 C 0.30922 0.71878 0.78084 0.0
C1791 C 0.28413 0.71058 0.77282 0.0
C1792 C 0.27655 0.68571 0.7617 0.0
H1793 H 0.23725 0.61145 0.53988 0.0
H1794 H 0.2352 0.62675 0.46162 0.0
H1795 H 0.19216 0.60535 0.4546 0.0
H1796 H 0.19825 0.54911 0.53047 0.0
H1797 H 0.1831 0.55408 0.55826 0.0
H1798 H 0.21431 0.56912 0.55686 0.0
H1799 H 0.20164 0.61281 0.56756 0.0
H1800 H 0.17041 0.59793 0.56894 0.0
H1801 H 0.17696 0.62274 0.54838 0.0
H1802 H 0.14865 0.58505 0.45654 0.0
H1803 H 0.10759 0.56657 0.46722 0.0
H1804 H 0.13746 0.56347 0.54405 0.0
C1805 C 0.22784 0.60995 0.5212 0.0
C1806 C 0.23964 0.62069 0.50125 0.0
C1807 C 0.2266 0.61861 0.47715 0.0
C1808 C 0.20213 0.60646 0.47298 0.0
C1809 C 0.19093 0.59637 0.49306 0.0
C1810 C 0.20334 0.59786 0.51668 0.0
C1811 C 0.18664 0.5863 0.53522 0.0
C1812 C 0.19614 0.56328 0.54582 0.0
C1813 C 0.18374 0.60613 0.55626 0.0
C1814 C 0.16282 0.57843 0.51839 0.0
C1815 C 0.16577 0.58438 0.49413 0.0
C1816 C 0.14618 0.58007 0.4754 0.0
C1817 C 0.12293 0.5696 0.48166 0.0
C1818 C 0.11943 0.56343 0.50638 0.0
C1819 C 0.13972 0.56767 0.52491 0.0
H1820 H 0.6994 0.95139 0.79977 0.0
H1821 H 0.62805 0.90405 0.79558 0.0
H1822 H 0.64809 0.86595 0.79274 0.0
H1823 H 0.7248 0.91375 0.75566 0.0
H1824 H 0.75534 0.91865 0.77177 0.0
H1825 H 0.73575 0.94229 0.77554 0.0
H1826 H 0.74101 0.9401 0.82358 0.0
H1827 H 0.7607 0.91649 0.81996 0.0
H1828 H 0.73383 0.91007 0.83657 0.0
H1829 H 0.67535 0.83298 0.78714 0.0
H1830 H 0.70803 0.80751 0.78003 0.0
H1831 H 0.7623 0.87539 0.78836 0.0
C1832 C 0.68803 0.93301 0.79871 0.0
C1833 C 0.66207 0.93077 0.79808 0.0
C1834 C 0.6479 0.90632 0.79626 0.0
C1835 C 0.65915 0.88453 0.79462 0.0
C1836 C 0.68467 0.88738 0.7949 0.0
C1837 C 0.699 0.91098 0.79704 0.0
C1838 C 0.72599 0.90869 0.79582 0.0
C1839 C 0.73605 0.92161 0.77336 0.0
C1840 C 0.74129 0.91948 0.82045 0.0
C1841 C 0.72456 0.88014 0.79224 0.0
C1842 C 0.7005 0.86827 0.79185 0.0
C1843 C 0.69424 0.84211 0.78766 0.0
C1844 C 0.71293 0.82773 0.78354 0.0
C1845 C 0.73769 0.83932 0.78372 0.0
C1846 C 0.74359 0.86592 0.78845 0.0
H1847 H 0.69348 0.94505 0.53876 0.0
H1848 H 0.74609 0.0051 0.51538 0.0
H1849 H 0.7119 0.02742 0.50096 0.0
H1850 H 0.64549 0.94566 0.48721 0.0
H1851 H 0.62117 0.93913 0.50716 0.0
H1852 H 0.64973 0.92737 0.51373 0.0
H1853 H 0.65469 0.94949 0.55861 0.0
H1854 H 0.62621 0.96129 0.55219 0.0
H1855 H 0.65394 0.98297 0.5627 0.0
H1856 H 0.67183 0.04532 0.49413 0.0
H1857 H 0.62941 0.05563 0.49308 0.0
H1858 H 0.60408 0.98199 0.51824 0.0
C1859 C 0.69779 0.96275 0.53032 0.0
C1860 C 0.72229 0.97349 0.52823 0.0
C1861 C 0.72732 0.99661 0.51705 0.0
C1862 C 0.70806 0.00936 0.50882 0.0
C1863 C 0.68402 0.9984 0.51153 0.0
C1864 C 0.67889 0.97541 0.5217 0.0
C1865 C 0.65174 0.96794 0.52349 0.0
C1866 C 0.64143 0.94358 0.5069 0.0
C1867 C 0.64634 0.96528 0.55086 0.0
C1868 C 0.64236 0.99059 0.51331 0.0
C1869 C 0.66114 0.00807 0.50653 0.0
C1870 C 0.65691 0.03153 0.49884 0.0
C1871 C 0.63288 0.03725 0.49833 0.0
C1872 C 0.61362 0.01944 0.50524 0.0
C1873 C 0.61842 0.99574 0.51233 0.0
H1874 H 0.3433 0.46876 0.77675 0.0
H1875 H 0.3238 0.4749 0.6978 0.0
H1876 H 0.29986 0.43167 0.69443 0.0
H1877 H 0.35161 0.40466 0.77184 0.0
H1878 H 0.33891 0.3974 0.80069 0.0
H1879 H 0.35333 0.42908 0.79686 0.0
H1880 H 0.31363 0.44609 0.80728 0.0
H1881 H 0.29906 0.41442 0.81109 0.0
H1882 H 0.2848 0.43334 0.78939 0.0
H1883 H 0.28017 0.38636 0.69953 0.0
H1884 H 0.26603 0.3437 0.71266 0.0
H1885 H 0.29766 0.36843 0.78855 0.0
C1886 C 0.33384 0.46113 0.75876 0.0
C1887 C 0.33541 0.47519 0.73751 0.0
C1888 C 0.32279 0.46447 0.71433 0.0
C1889 C 0.30916 0.43995 0.71226 0.0
C1890 C 0.30816 0.42651 0.73359 0.0
C1891 C 0.32008 0.43684 0.75643 0.0
C1892 C 0.31671 0.4184 0.77643 0.0
C1893 C 0.34162 0.41201 0.78707 0.0
C1894 C 0.30271 0.42868 0.79727 0.0
C1895 C 0.3013 0.39589 0.76127 0.0
C1896 C 0.29651 0.40087 0.7366 0.0
C1897 C 0.2836 0.38239 0.71886 0.0
C1898 C 0.27564 0.3582 0.7265 0.0
C1899 C 0.2805 0.35269 0.75169 0.0
C1900 C 0.29325 0.37202 0.76925 0.0
H1901 H 0.17406 0.56749 0.2513 0.0
H1902 H 0.17788 0.56077 0.33137 0.0
H1903 H 0.20333 0.60305 0.33863 0.0
H1904 H 0.23743 0.60076 0.25116 0.0
H1905 H 0.22899 0.62034 0.22688 0.0
H1906 H 0.21202 0.58908 0.22793 0.0
H1907 H 0.17155 0.60786 0.22873 0.0
H1908 H 0.18838 0.63915 0.22774 0.0
H1909 H 0.16924 0.6323 0.25262 0.0
H1910 H 0.22432 0.64775 0.33734 0.0
H1911 H 0.24255 0.69045 0.32745 0.0
H1912 H 0.22848 0.66721 0.24822 0.0
C1913 C 0.18051 0.57482 0.27034 0.0
C1914 C 0.17397 0.56087 0.2908 0.0
C1915 C 0.18275 0.57107 0.31543 0.0
C1916 C 0.19718 0.59509 0.31973 0.0
C1917 C 0.20305 0.60849 0.29918 0.0
C1918 C 0.19531 0.59859 0.27495 0.0
C1919 C 0.20396 0.61708 0.25621 0.0
C1920 C 0.22165 0.60616 0.23956 0.0
C1921 C 0.18197 0.62453 0.2404 0.0
C1922 C 0.21726 0.63915 0.2737 0.0
C1923 C 0.21637 0.63382 0.29843 0.0
C1924 C 0.22559 0.65193 0.31807 0.0
C1925 C 0.23588 0.67611 0.31229 0.0
C1926 C 0.23733 0.68185 0.28714 0.0
C1927 C 0.22816 0.66304 0.26761 0.0
H1928 H 0.55471 0.73377 0.4422 0.0
H1929 H 0.4926 0.70948 0.38629 0.0
H1930 H 0.48277 0.66992 0.40648 0.0
H1931 H 0.57311 0.67233 0.44514 0.0
H1932 H 0.58223 0.67601 0.47833 0.0
H1933 H 0.58384 0.70338 0.46054 0.0
H1934 H 0.55638 0.72336 0.49024 0.0
H1935 H 0.55458 0.69596 0.50805 0.0
H1936 H 0.52682 0.70607 0.49503 0.0
H1937 H 0.47914 0.63356 0.4319 0.0
H1938 H 0.48419 0.59942 0.45915 0.0
H1939 H 0.54984 0.64473 0.49838 0.0
C1940 C 0.53901 0.72012 0.43435 0.0
C1941 C 0.52434 0.72472 0.41272 0.0
C1942 C 0.50412 0.70633 0.40278 0.0
C1943 C 0.49828 0.68386 0.4142 0.0
C1944 C 0.51298 0.67986 0.43545 0.0
C1945 C 0.53311 0.69721 0.44535 0.0
C1946 C 0.5465 0.68724 0.4676 0.0
C1947 C 0.57299 0.68458 0.46259 0.0
C1948 C 0.54603 0.70417 0.49165 0.0
C1949 C 0.5308 0.66155 0.46844 0.0
C1950 C 0.51138 0.65804 0.44987 0.0
C1951 C 0.49429 0.63601 0.44647 0.0
C1952 C 0.49735 0.61672 0.46209 0.0
C1953 C 0.51745 0.61938 0.48082 0.0
C1954 C 0.53426 0.64225 0.48427 0.0
H1955 H 0.58439 0.24652 0.71175 0.0
H1956 H 0.57115 0.32275 0.73088 0.0
H1957 H 0.61334 0.33348 0.75223 0.0
H1958 H 0.62254 0.23992 0.76947 0.0
H1959 H 0.64262 0.22235 0.75341 0.0
H1960 H 0.61091 0.22035 0.74118 0.0
H1961 H 0.62466 0.23411 0.69869 0.0
H1962 H 0.65636 0.23619 0.7108 0.0
H1963 H 0.6456 0.26318 0.69794 0.0
H1964 H 0.65835 0.33666 0.76872 0.0
H1965 H 0.70163 0.33167 0.77991 0.0
H1966 H 0.68485 0.25305 0.75065 0.0
C1967 C 0.59022 0.26537 0.72077 0.0
C1968 C 0.57441 0.28378 0.71975 0.0
C1969 C 0.58287 0.3083 0.73155 0.0
C1970 C 0.60682 0.31457 0.7437 0.0
C1971 C 0.62207 0.29606 0.74403 0.0
C1972 C 0.61401 0.2719 0.73301 0.0
C1973 C 0.63424 0.25574 0.73513 0.0
C1974 C 0.62715 0.23326 0.75073 0.0
C1975 C 0.64059 0.24679 0.70909 0.0
C1976 C 0.65506 0.27464 0.7488 0.0
C1977 C 0.64772 0.29779 0.7538 0.0
C1978 C 0.66418 0.31851 0.76516 0.0
C1979 C 0.68877 0.3155 0.77143 0.0
C1980 C 0.69669 0.29191 0.76645 0.0
C1981 C 0.6794 0.27123 0.75517 0.0
H1982 H 0.03035 0.38624 0.90595 0.0
H1983 H 0.03196 0.33463 0.96469 0.0
H1984 H 0.0272 0.3688 0.99568 0.0
H1985 H 0.06288 0.44366 0.94519 0.0
H1986 H 0.04398 0.46424 0.93053 0.0
H1987 H 0.05038 0.4366 0.91298 0.0
H1988 H 1.00363 0.42126 0.90254 0.0
H1989 H 0.99716 0.4488 0.92004 0.0
H1990 H 0.98421 0.41771 0.92767 0.0
H1991 H 0.01803 0.40624 0.01959 0.0
H1992 H 1.00472 0.4456 0.03535 0.0
H1993 H 0.00959 0.47472 0.96239 0.0
C1994 C 0.03017 0.38234 0.92542 0.0
C1995 C 0.0316 0.35775 0.9329 0.0
C1996 C 0.0309 0.35327 0.95848 0.0
C1997 C 0.02831 0.3726 0.97629 0.0
C1998 C 0.02655 0.39647 0.96834 0.0
C1999 C 0.02753 0.40157 0.94359 0.0
C2000 C 0.02348 0.42859 0.94004 0.0
C2001 C 0.04656 0.4442 0.93169 0.0
C2002 C 1.00077 0.42911 0.92148 0.0
C2003 C 0.01921 0.43744 0.96647 0.0
C2004 C 0.02139 0.41858 0.98246 0.0
C2005 C 0.01663 0.4213 0.00737 0.0
C2006 C 0.009 0.44367 0.01613 0.0
C2007 C 0.0063 0.46313 1.00012 0.0
C2008 C 0.01197 0.46024 0.97509 0.0
H2009 H 0.92062 0.78485 0.19545 0.0
H2010 H 0.96176 0.74384 0.24681 0.0
H2011 H 0.92738 0.73944 0.27317 0.0
H2012 H 0.89396 0.81969 0.24202 0.0
H2013 H 0.86455 0.818 0.22408 0.0
H2014 H 0.89183 0.81702 0.20831 0.0
H2015 H 0.87149 0.77471 0.18398 0.0
H2016 H 0.84419 0.7756 0.19977 0.0
H2017 H 0.85977 0.74847 0.20106 0.0
H2018 H 0.88924 0.73976 0.29446 0.0
H2019 H 0.85024 0.74667 0.31063 0.0
H2020 H 0.83313 0.78833 0.24662 0.0
C2021 C 0.92232 0.77487 0.2122 0.0
C2022 C 0.94398 0.76466 0.21903 0.0
C2023 C 0.94547 0.75183 0.24115 0.0
C2024 C 0.92596 0.74915 0.25623 0.0
C2025 C 0.90494 0.75938 0.24904 0.0
C2026 C 0.90292 0.77205 0.2276 0.0
C2027 C 0.87844 0.78188 0.22473 0.0
C2028 C 0.88245 0.81087 0.2248 0.0
C2029 C 0.86254 0.76942 0.20098 0.0
C2030 C 0.86734 0.77319 0.24817 0.0
C2031 C 0.88288 0.75995 0.26167 0.0
C2032 C 0.87693 0.75009 0.28404 0.0
C2033 C 0.8547 0.75411 0.29308 0.0
C2034 C 0.83865 0.76808 0.27997 0.0
C2035 C 0.84501 0.77754 0.25705 0.0
H2036 H 0.47658 0.35985 0.05866 0.0
H2037 H 0.55473 0.36229 0.07909 0.0
H2038 H 0.56331 0.40326 0.06101 0.0
H2039 H 0.48302 0.39026 0.9991 0.0
H2040 H 0.45785 0.40743 1.00327 0.0
H2041 H 0.45787 0.3771 0.0158 0.0
H2042 H 0.45297 0.39721 0.05979 0.0
H2043 H 0.45313 0.4276 0.04747 0.0
H2044 H 0.47501 0.42392 0.07332 0.0
H2045 H 0.56321 0.44575 0.04602 0.0
H2046 H 0.55469 0.48635 0.03108 0.0
H2047 H 0.47697 0.45614 0.01789 0.0
C2048 C 0.49551 0.36879 0.05883 0.0
C2049 C 0.515 0.35793 0.07023 0.0
C2050 C 0.53953 0.37025 0.07037 0.0
C2051 C 0.5446 0.39353 0.06016 0.0
C2052 C 0.52497 0.40404 0.0496 0.0
C2053 C 0.50094 0.39199 0.0485 0.0
C2054 C 0.48323 0.40804 0.03699 0.0
C2055 C 0.4697 0.39492 0.01232 0.0
C2056 C 0.46502 0.41458 0.0555 0.0
C2057 C 0.50106 0.43121 0.03243 0.0
C2058 C 0.52503 0.42846 0.03993 0.0
C2059 C 0.54462 0.44797 0.03954 0.0
C2060 C 0.5396 0.47094 0.03117 0.0
C2061 C 0.51527 0.47403 0.02305 0.0
C2062 C 0.49578 0.4539 0.02348 0.0
H2063 H 0.94386 0.25198 0.39487 0.0
H2064 H 0.99181 0.26417 0.33573 0.0
H2065 H 0.95567 0.26086 0.30479 0.0
H2066 H 0.89417 0.20709 0.35642 0.0
H2067 H 0.87027 0.2198 0.37138 0.0
H2068 H 0.89982 0.21997 0.38855 0.0
H2069 H 0.90381 0.26839 0.39875 0.0
H2070 H 0.87438 0.26837 0.38157 0.0
H2071 H 0.90113 0.28861 0.37351 0.0
H2072 H 0.91527 0.26217 0.28138 0.0
H2073 H 0.87245 0.26615 0.26666 0.0
H2074 H 0.85022 0.25112 0.34014 0.0
C2075 C 0.94669 0.25341 0.37534 0.0
C2076 C 0.97058 0.25832 0.36767 0.0
C2077 C 0.97363 0.26037 0.342 0.0
C2078 C 0.95323 0.25843 0.32426 0.0
C2079 C 0.92992 0.25412 0.33244 0.0
C2080 C 0.92647 0.25134 0.3573 0.0
C2081 C 0.89946 0.2485 0.36131 0.0
C2082 C 0.8904 0.22228 0.36992 0.0
C2083 C 0.89441 0.26974 0.37987 0.0
C2084 C 0.88844 0.25116 0.33504 0.0
C2085 C 0.90632 0.25418 0.31864 0.0
C2086 C 0.90098 0.25927 0.29386 0.0
C2087 C 0.87672 0.26161 0.28571 0.0
C2088 C 0.85824 0.25869 0.30226 0.0
C2089 C 0.86405 0.25292 0.32704 0.0
H2090 H 0.97447 0.70403 0.57909 0.0
H2091 H 0.02926 0.7476 0.53964 0.0
H2092 H 0.03487 0.70862 0.51531 0.0
H2093 H 0.00555 0.65399 0.58711 0.0
H2094 H 0.97893 0.62967 0.58311 0.0
H2095 H 0.97602 0.66127 0.59426 0.0
H2096 H 0.94223 0.66282 0.55801 0.0
H2097 H 0.9449 0.63105 0.54684 0.0
H2098 H 0.94848 0.65615 0.52616 0.0
H2099 H 0.03927 0.66454 0.50037 0.0
H2100 H 0.04061 0.6187 0.49448 0.0
H2101 H 0.98246 0.6041 0.54314 0.0
C2102 C 0.98705 0.70549 0.56474 0.0
C2103 C 1.0013 0.72881 0.56107 0.0
C2104 C 0.01803 0.7299 0.54259 0.0
C2105 C 0.02133 0.70788 0.52868 0.0
C2106 C 0.00762 0.68501 0.53338 0.0
C2107 C 0.99061 0.68369 0.55079 0.0
C2108 C 0.97998 0.65658 0.55407 0.0
C2109 C 0.98546 0.65001 0.58124 0.0
C2110 C 0.95225 0.65135 0.54576 0.0
C2111 C 0.99419 0.64284 0.53635 0.0
C2112 C 0.00993 0.65954 0.52447 0.0
C2113 C 0.02662 0.65126 0.5091 0.0
C2114 C 0.02734 0.62524 0.50596 0.0
C2115 C 0.01141 0.60791 0.51807 0.0
C2116 C 0.9944 0.61687 0.5331 0.0
H2117 H 0.61486 0.75252 0.90148 0.0
H2118 H 0.56979 0.7978 0.85923 0.0
H2119 H 0.59217 0.79105 0.82237 0.0
H2120 H 0.671 0.77803 0.87679 0.0
H2121 H 0.6833 0.74877 0.87653 0.0
H2122 H 0.66233 0.75534 0.89893 0.0
H2123 H 0.63399 0.71322 0.88327 0.0
H2124 H 0.65476 0.70685 0.86052 0.0
H2125 H 0.62285 0.70743 0.85059 0.0
H2126 H 0.61864 0.77956 0.79032 0.0
H2127 H 0.65296 0.77052 0.76676 0.0
H2128 H 0.68357 0.73555 0.83026 0.0
C2129 C 0.60979 0.7609 0.8844 0.0
C2130 C 0.59063 0.77556 0.88299 0.0
C2131 C 0.58456 0.78662 0.86059 0.0
C2132 C 0.59695 0.78267 0.83952 0.0
C2133 C 0.61562 0.76797 0.84134 0.0
C2134 C 0.6225 0.75775 0.86331 0.0
C2135 C 0.64483 0.74482 0.86076 0.0
C2136 C 0.66665 0.7575 0.87935 0.0
C2137 C 0.63873 0.71639 0.86397 0.0
C2138 C 0.64939 0.74954 0.83399 0.0
C2139 C 0.63193 0.7624 0.82302 0.0
C2140 C 0.63243 0.76945 0.79863 0.0
C2141 C 0.65189 0.7641 0.78535 0.0
C2142 C 0.67073 0.75225 0.79671 0.0
C2143 C 0.66917 0.74434 0.82109 0.0
H2144 H 0.41012 0.56105 0.6622 0.0
H2145 H 0.46115 0.5402 0.72035 0.0
H2146 H 0.49357 0.54324 0.69161 0.0
H2147 H 0.42938 0.52595 0.61196 0.0
H2148 H 0.426 0.54908 0.5896 0.0
H2149 H 0.40744 0.54732 0.61542 0.0
H2150 H 0.42309 0.59471 0.62824 0.0
H2151 H 0.44232 0.59651 0.60286 0.0
H2152 H 0.45567 0.60567 0.63448 0.0
H2153 H 0.51906 0.54416 0.65599 0.0
H2154 H 0.53558 0.54148 0.6149 0.0
H2155 H 0.46937 0.56351 0.57966 0.0
C2156 C 0.4282 0.55736 0.66892 0.0
C2157 C 0.43312 0.55039 0.69354 0.0
C2158 C 0.45694 0.54556 0.70159 0.0
C2159 C 0.47553 0.54738 0.68545 0.0
C2160 C 0.47013 0.55426 0.66132 0.0
C2161 C 0.44707 0.55916 0.653 0.0
C2162 C 0.44582 0.56473 0.62566 0.0
C2163 C 0.42599 0.54563 0.60973 0.0
C2164 C 0.44146 0.59203 0.62264 0.0
C2165 C 0.4715 0.56126 0.61972 0.0
C2166 C 0.48528 0.55554 0.64071 0.0
C2167 C 0.50871 0.54919 0.63956 0.0
C2168 C 0.518 0.54783 0.61622 0.0
C2169 C 0.50403 0.55308 0.59446 0.0
C2170 C 0.48077 0.56049 0.59629 0.0
H2171 H 0.81421 0.23862 0.95839 0.0
H2172 H 0.80202 0.16211 0.92317 0.0
H2173 H 0.79387 0.17844 0.88208 0.0
H2174 H 0.76711 0.26114 0.92105 0.0
H2175 H 0.78407 0.29216 0.91861 0.0
H2176 H 0.79072 0.27499 0.94538 0.0
H2177 H 0.83644 0.27917 0.9367 0.0
H2178 H 0.82993 0.29659 0.91003 0.0
H2179 H 0.84405 0.2686 0.90629 0.0
H2180 H 0.78508 0.20249 0.84473 0.0
H2181 H 0.77776 0.23304 0.81375 0.0
H2182 H 0.79475 0.29441 0.87179 0.0
C2183 C 0.81027 0.22537 0.94197 0.0
C2184 C 0.80891 0.19898 0.94418 0.0
C2185 C 0.80331 0.18235 0.92214 0.0
C2186 C 0.7986 0.19146 0.89862 0.0
C2187 C 0.79959 0.2174 0.89711 0.0
C2188 C 0.80551 0.23422 0.91811 0.0
C2189 C 0.80471 0.26117 0.9111 0.0
C2190 C 0.78551 0.27306 0.92486 0.0
C2191 C 0.83031 0.27734 0.91635 0.0
C2192 C 0.79695 0.25675 0.88308 0.0
C2193 C 0.79421 0.23133 0.87546 0.0
C2194 C 0.78698 0.22242 0.85058 0.0
C2195 C 0.78237 0.23987 0.83306 0.0
C2196 C 0.78472 0.26599 0.84027 0.0
C2197 C 0.79247 0.27451 0.86567 0.0
H2198 H 0.06407 0.51971 0.21444 0.0
H2199 H 0.0944 0.45089 0.19926 0.0
H2200 H 0.07835 0.44937 0.15487 0.0
H2201 H 0.00746 0.50056 0.17115 0.0
H2202 H 0.0068 0.53213 0.16184 0.0
H2203 H 0.01998 0.52747 0.19271 0.0
H2204 H 0.06057 0.55534 0.18476 0.0
H2205 H 0.04758 0.55993 0.15384 0.0
H2206 H 0.07598 0.54732 0.1579 0.0
H2207 H 0.06322 0.45783 0.11123 0.0
H2208 H 0.04517 0.47271 0.07221 0.0
H2209 H 0.02076 0.53358 0.11534 0.0
C2210 C 0.06698 0.50412 0.20183 0.0
C2211 C 0.08052 0.48538 0.21043 0.0
C2212 C 0.08398 0.46536 0.19326 0.0
C2213 C 0.07501 0.46439 0.16792 0.0
C2214 C 0.06213 0.48331 0.15994 0.0
C2215 C 0.05764 0.50254 0.17643 0.0
C2216 C 0.04311 0.5204 0.16285 0.0
C2217 C 0.01783 0.52011 0.17273 0.0
C2218 C 0.05768 0.54734 0.16497 0.0
C2219 C 0.04059 0.50848 0.13614 0.0
C2220 C 0.05198 0.48726 0.13488 0.0
C2221 C 0.05378 0.47409 0.11206 0.0
C2222 C 0.04356 0.48269 0.09 0.0
C2223 C 0.0312 0.50393 0.09085 0.0
C2224 C 0.02959 0.51689 0.11426 0.0
H2225 H 0.75409 0.87853 0.48461 0.0
H2226 H 0.83218 0.90591 0.50154 0.0
H2227 H 0.84085 0.87913 0.46537 0.0
H2228 H 0.75952 0.81373 0.46303 0.0
H2229 H 0.7347 0.81152 0.4385 0.0
H2230 H 0.73465 0.83144 0.46677 0.0
H2231 H 0.73097 0.86983 0.44063 0.0
H2232 H 0.73087 0.85 0.41234 0.0
H2233 H 0.75328 0.87826 0.41892 0.0
H2234 H 0.84094 0.85168 0.42662 0.0
H2235 H 0.83244 0.82641 0.38603 0.0
H2236 H 0.75424 0.81658 0.39401 0.0
C2237 C 0.77302 0.87871 0.4808 0.0
C2238 C 0.79251 0.89419 0.49581 0.0
C2239 C 0.81702 0.89416 0.4902 0.0
C2240 C 0.82212 0.87894 0.46982 0.0
C2241 C 0.80249 0.8639 0.45538 0.0
C2242 C 0.77842 0.8637 0.46051 0.0
C2243 C 0.76064 0.84689 0.44116 0.0
C2244 C 0.74655 0.82457 0.45309 0.0
C2245 C 0.74291 0.86217 0.42745 0.0
C2246 C 0.77848 0.8381 0.42406 0.0
C2247 C 0.80253 0.84794 0.43282 0.0
C2248 C 0.82224 0.84364 0.41967 0.0
C2249 C 0.81722 0.82931 0.39668 0.0
C2250 C 0.79272 0.81954 0.38714 0.0
C2251 C 0.77314 0.82356 0.40117 0.0
H2252 H 0.43989 0.53683 0.81513 0.0
H2253 H 0.38324 0.58216 0.82992 0.0
H2254 H 0.40058 0.59033 0.87405 0.0
H2255 H 0.43968 0.50745 0.87243 0.0
H2256 H 0.47238 0.50728 0.87612 0.0
H2257 H 0.45654 0.50637 0.84531 0.0
H2258 H 0.48616 0.54617 0.83616 0.0
H2259 H 0.50205 0.54724 0.86702 0.0
H2260 H 0.4895 0.57446 0.85697 0.0
H2261 H 0.42292 0.59237 0.91668 0.0
H2262 H 0.44774 0.58643 0.95567 0.0
H2263 H 0.48971 0.53943 0.91361 0.0
C2264 C 0.43129 0.54865 0.82763 0.0
C2265 C 0.41028 0.55894 0.81914 0.0
C2266 C 0.39935 0.57407 0.83608 0.0
C2267 C 0.40912 0.57892 0.86113 0.0
C2268 C 0.42979 0.56843 0.86896 0.0
C2269 C 0.44071 0.55352 0.85279 0.0
C2270 C 0.46201 0.5435 0.86633 0.0
C2271 C 0.45736 0.51443 0.86497 0.0
C2272 C 0.48637 0.55345 0.856 0.0
C2273 C 0.46116 0.55488 0.89268 0.0
C2274 C 0.44257 0.5694 0.89371 0.0
C2275 C 0.43764 0.58121 0.9161 0.0
C2276 C 0.45185 0.57778 0.93812 0.0
C2277 C 0.47068 0.56264 0.93754 0.0
C2278 C 0.47556 0.5513 0.9145 0.0
H2279 H 0.81593 0.18714 0.10706 0.0
H2280 H 0.7889 0.2412 0.05938 0.0
H2281 H 0.77822 0.26513 0.09642 0.0
H2282 H 0.77066 0.18651 0.15071 0.0
H2283 H 0.79177 0.18479 0.17784 0.0
H2284 H 0.79781 0.17212 0.14763 0.0
H2285 H 0.84057 0.20042 0.15283 0.0
H2286 H 0.83431 0.21317 0.18299 0.0
H2287 H 0.84257 0.2341 0.1592 0.0
H2288 H 0.76716 0.28145 0.13805 0.0
H2289 H 0.76001 0.29126 0.18203 0.0
H2290 H 0.7964 0.22883 0.20414 0.0
C2291 C 0.80804 0.20419 0.10447 0.0
C2292 C 0.80331 0.21225 0.08013 0.0
C2293 C 0.79286 0.23463 0.07768 0.0
C2294 C 0.78662 0.24835 0.09866 0.0
C2295 C 0.79118 0.23977 0.12226 0.0
C2296 C 0.80197 0.21841 0.1254 0.0
C2297 C 0.80491 0.21349 0.15301 0.0
C2298 C 0.79041 0.1877 0.15755 0.0
C2299 C 0.83222 0.21541 0.16257 0.0
C2300 C 0.79369 0.23513 0.16474 0.0
C2301 C 0.78575 0.24992 0.14657 0.0
C2302 C 0.77363 0.27021 0.15247 0.0
C2303 C 0.76957 0.27561 0.17753 0.0
C2304 C 0.7779 0.2611 0.19664 0.0
C2305 C 0.79025 0.24062 0.19006 0.0
H2306 H 0.08337 0.53348 0.3472 0.0
H2307 H 0.07701 0.45174 0.34384 0.0
H2308 H 0.05659 0.45149 0.38286 0.0
H2309 H 0.09597 0.54431 0.41436 0.0
H2310 H 0.07841 0.56989 0.4169 0.0
H2311 H 0.09246 0.56379 0.38865 0.0
H2312 H 0.05009 0.55985 0.36268 0.0
H2313 H 0.03595 0.56602 0.39086 0.0
H2314 H 0.02462 0.53775 0.37072 0.0
H2315 H 0.03828 0.46017 0.42335 0.0
H2316 H 0.02108 0.47697 0.46074 0.0
H2317 H 0.03742 0.55292 0.43746 0.0
C2318 C 0.07753 0.51551 0.35459 0.0
C2319 C 0.08179 0.49257 0.34232 0.0
C2320 C 0.07393 0.46952 0.35275 0.0
C2321 C 0.06236 0.46921 0.37499 0.0
C2322 C 0.05862 0.4921 0.3867 0.0
C2323 C 0.06583 0.51484 0.37679 0.0
C2324 C 0.05954 0.53676 0.3931 0.0
C2325 C 0.08299 0.55474 0.40388 0.0
C2326 C 0.04147 0.55092 0.37846 0.0
C2327 C 0.04746 0.52279 0.41358 0.0
C2328 C 0.04742 0.49705 0.40966 0.0
C2329 C 0.03805 0.48025 0.42645 0.0
C2330 C 0.02835 0.48995 0.44765 0.0
C2331 C 0.02774 0.51615 0.4518 0.0
C2332 C 0.03743 0.53277 0.43453 0.0
H2333 H 0.78335 0.86418 0.605 0.0
H2334 H 0.72267 0.90464 0.61732 0.0
H2335 H 0.70616 0.87192 0.64438 0.0
H2336 H 0.74996 0.79919 0.60673 0.0
H2337 H 0.77591 0.78896 0.62355 0.0
H2338 H 0.78079 0.81327 0.60213 0.0
H2339 H 0.80682 0.8436 0.63743 0.0
H2340 H 0.80243 0.81921 0.65861 0.0
H2341 H 0.79388 0.84967 0.6664 0.0
H2342 H 0.6984 0.83701 0.67274 0.0
H2343 H 0.70383 0.80755 0.70536 0.0
H2344 H 0.77014 0.79061 0.67507 0.0
C2345 C 0.76638 0.86593 0.6131 0.0
C2346 C 0.75415 0.88674 0.60905 0.0
C2347 C 0.73229 0.88877 0.62031 0.0
C2348 C 0.72264 0.87013 0.6354 0.0
C2349 C 0.73512 0.84971 0.63898 0.0
C2350 C 0.75671 0.84772 0.6284 0.0
C2351 C 0.76837 0.82589 0.63767 0.0
C2352 C 0.76876 0.80563 0.61623 0.0
C2353 C 0.79439 0.83516 0.65082 0.0
C2354 C 0.75049 0.81649 0.65592 0.0
C2355 C 0.73101 0.82993 0.65584 0.0
C2356 C 0.71333 0.82608 0.67271 0.0
C2357 C 0.71645 0.80914 0.69106 0.0
C2358 C 0.73737 0.7968 0.69258 0.0
C2359 C 0.75383 0.79959 0.67404 0.0
H2360 H 0.67774 0.45669 0.50476 0.0
H2361 H 0.65879 0.41392 0.56783 0.0
H2362 H 0.62463 0.43779 0.57357 0.0
H2363 H 0.66462 0.51641 0.5296 0.0
H2364 H 0.65132 0.52522 0.50029 0.0
H2365 H 0.67418 0.50456 0.50053 0.0
H2366 H 0.64419 0.47095 0.47151 0.0
H2367 H 0.6214 0.49169 0.47111 0.0
H2368 H 0.61404 0.4601 0.48063 0.0
H2369 H 0.59334 0.46727 0.5738 0.0
H2370 H 0.56594 0.49909 0.5672 0.0
H2371 H 0.60305 0.52231 0.50297 0.0
C2372 C 0.66633 0.4523 0.51971 0.0
C2373 C 0.67112 0.43333 0.5359 0.0
C2374 C 0.65562 0.42822 0.55516 0.0
C2375 C 0.63612 0.44176 0.55861 0.0
C2376 C 0.632 0.46036 0.54252 0.0
C2377 C 0.64648 0.46554 0.52327 0.0
C2378 C 0.6378 0.48649 0.5086 0.0
C2379 C 0.6582 0.50953 0.50984 0.0
C2380 C 0.62883 0.47672 0.48135 0.0
C2381 C 0.6165 0.49249 0.52286 0.0
C2382 C 0.61352 0.47711 0.54234 0.0
C2383 C 0.59536 0.47919 0.55843 0.0
C2384 C 0.57972 0.49722 0.55443 0.0
C2385 C 0.58199 0.51293 0.53439 0.0
C2386 C 0.60083 0.51061 0.5185 0.0
H2387 H 0.18261 0.12832 0.47716 0.0
H2388 H 0.21881 0.06212 0.47303 0.0
H2389 H 0.17898 0.03472 0.47498 0.0
H2390 H 0.1442 0.10973 0.52042 0.0
H2391 H 0.11782 0.12211 0.50718 0.0
H2392 H 0.14815 0.13621 0.50141 0.0
H2393 H 0.13606 0.1289 0.45358 0.0
H2394 H 0.10545 0.11512 0.45927 0.0
H2395 H 0.12316 0.09763 0.43995 0.0
H2396 H 0.1376 0.01602 0.48667 0.0
H2397 H 0.09593 0.00669 0.50088 0.0
H2398 H 0.08578 0.08429 0.4928 0.0
C2399 C 0.18194 0.108 0.47585 0.0
C2400 C 0.20359 0.09722 0.47493 0.0
C2401 C 0.20227 0.07063 0.47348 0.0
C2402 C 0.17978 0.05496 0.47463 0.0
C2403 C 0.15882 0.06624 0.4765 0.0
C2404 C 0.15959 0.09212 0.47637 0.0
C2405 C 0.13482 0.09967 0.48015 0.0
C2406 C 0.13637 0.118 0.50369 0.0
C2407 C 0.12425 0.11099 0.45684 0.0
C2408 C 0.12031 0.07417 0.48362 0.0
C2409 C 0.13446 0.05509 0.48154 0.0
C2410 C 0.12603 0.03056 0.48743 0.0
C2411 C 0.10252 0.02545 0.49559 0.0
C2412 C 0.08776 0.04468 0.49723 0.0
C2413 C 0.09658 0.06915 0.49082 0.0
H2414 H 0.23308 0.95551 0.80612 0.0
H2415 H 0.15747 0.91739 0.79845 0.0
H2416 H 0.17131 0.87694 0.78748 0.0
H2417 H 0.25418 0.91986 0.75617 0.0
H2418 H 0.28372 0.91817 0.77252 0.0
H2419 H 0.26813 0.94452 0.77969 0.0
H2420 H 0.27044 0.93525 0.82643 0.0
H2421 H 0.28636 0.90912 0.81944 0.0
H2422 H 0.25855 0.9041 0.83478 0.0
H2423 H 0.19288 0.84085 0.77575 0.0
H2424 H 0.22155 0.81055 0.7695 0.0
H2425 H 0.28332 0.87092 0.78643 0.0
C2426 C 0.21952 0.93859 0.80231 0.0
C2427 C 0.1942 0.93961 0.80309 0.0
C2428 C 0.17698 0.91707 0.79808 0.0
C2429 C 0.18462 0.89399 0.79166 0.0
C2430 C 0.20961 0.89365 0.79064 0.0
C2431 C 0.22688 0.9152 0.79628 0.0
C2432 C 0.25269 0.90927 0.79472 0.0
C2433 C 0.26542 0.92382 0.77457 0.0
C2434 C 0.2679 0.91475 0.82037 0.0
C2435 C 0.24714 0.88112 0.78713 0.0
C2436 C 0.22215 0.87258 0.78457 0.0
C2437 C 0.21251 0.84733 0.77762 0.0
C2438 C 0.2289 0.83023 0.7737 0.0
C2439 C 0.25455 0.83838 0.77693 0.0
C2440 C 0.26372 0.86421 0.78359 0.0
H2441 H 0.31031 0.90981 0.01363 0.0
H2442 H 0.28142 0.96902 0.05494 0.0
H2443 H 0.32159 0.9967 0.05638 0.0
H2444 H 0.37162 0.92124 0.04511 0.0
H2445 H 0.38638 0.91529 0.01726 0.0
H2446 H 0.35549 0.89991 0.01969 0.0
H2447 H 0.34057 0.91787 0.97856 0.0
H2448 H 0.37142 0.9333 0.97598 0.0
H2449 H 0.34652 0.95149 0.97582 0.0
H2450 H 0.36496 0.01731 0.05477 0.0
H2451 H 0.40828 0.03091 0.04798 0.0
H2452 H 0.40918 0.95956 1.00551 0.0
C2453 C 0.31249 0.9286 0.02302 0.0
C2454 C 0.29278 0.93725 0.03433 0.0
C2455 C 0.29625 0.96202 0.04618 0.0
C2456 C 0.31901 0.97785 0.04713 0.0
C2457 C 0.33805 0.96875 0.03585 0.0
C2458 C 0.33502 0.94481 0.02381 0.0
C2459 C 0.3584 0.93997 0.01272 0.0
C2460 C 0.36857 0.91779 0.0244 0.0
C2461 C 0.35395 0.93539 0.98407 0.0
C2462 C 0.37511 0.96488 0.02059 0.0
C2463 C 0.36296 0.98108 0.03408 0.0
C2464 C 0.37459 0.00488 0.04406 0.0
C2465 C 0.39923 0.01241 0.04012 0.0
C2466 C 0.41203 0.99637 0.02607 0.0
C2467 C 0.39976 0.97229 0.01611 0.0
H2468 H 0.88116 0.65924 0.7704 0.0
H2469 H 0.84405 0.60839 0.70798 0.0
H2470 H 0.81335 0.63664 0.70132 0.0
H2471 H 0.82778 0.67471 0.79486 0.0
H2472 H 0.83955 0.7076 0.80349 0.0
H2473 H 0.86037 0.68488 0.80221 0.0
H2474 H 0.88478 0.71101 0.7712 0.0
H2475 H 0.86402 0.73386 0.77247 0.0
H2476 H 0.86886 0.71887 0.74278 0.0
H2477 H 0.78449 0.66764 0.70333 0.0
H2478 H 0.75935 0.70044 0.71359 0.0
H2479 H 0.81438 0.73295 0.7741 0.0
C2480 C 0.86683 0.65436 0.75505 0.0
C2481 C 0.86515 0.63153 0.73965 0.0
C2482 C 0.84586 0.62569 0.72001 0.0
C2483 C 0.82829 0.64168 0.71602 0.0
C2484 C 0.83016 0.6637 0.7317 0.0
C2485 C 0.84899 0.67027 0.75073 0.0
C2486 C 0.84578 0.69459 0.7655 0.0
C2487 C 0.84322 0.69017 0.79315 0.0
C2488 C 0.86714 0.71584 0.76283 0.0
C2489 C 0.82183 0.70004 0.75231 0.0
C2490 C 0.81336 0.68203 0.73271 0.0
C2491 C 0.79108 0.68204 0.71842 0.0
C2492 C 0.77688 0.70073 0.72443 0.0
C2493 C 0.78491 0.71931 0.7445 0.0
C2494 C 0.80792 0.71918 0.75841 0.0
H2495 H 0.84799 0.63189 0.0325 0.0
H2496 H 0.7949 0.57738 0.98496 0.0
H2497 H 0.81966 0.5438 0.99462 0.0
H2498 H 0.90058 0.60947 0.0148 0.0
H2499 H 0.91717 0.61558 0.0455 0.0
H2500 H 0.89399 0.63422 0.03625 0.0
H2501 H 0.87176 0.62219 0.07527 0.0
H2502 H 0.89472 0.60305 0.0843 0.0
H2503 H 0.86266 0.58932 0.08012 0.0
H2504 H 0.85204 0.51732 0.00668 0.0
H2505 H 0.891 0.50114 0.01722 0.0
H2506 H 0.9215 0.57291 0.05806 0.0
C2507 C 0.84148 0.61286 0.02421 0.0
C2508 C 0.81963 0.60715 0.00797 0.0
C2509 C 0.8117 0.58209 0.99742 0.0
C2510 C 0.82549 0.56289 1.00298 0.0
C2511 C 0.8469 0.56914 0.0193 0.0
C2512 C 0.85487 0.59357 0.02966 0.0
C2513 C 0.87934 0.59588 0.04516 0.0
C2514 C 0.89891 0.61489 0.03479 0.0
C2515 C 0.87696 0.60303 0.07286 0.0
C2516 C 0.88435 0.5691 0.04124 0.0
C2517 C 0.86529 0.55381 0.0266 0.0
C2518 C 0.86689 0.52894 0.01853 0.0
C2519 C 0.88899 0.51988 0.02468 0.0
C2520 C 0.90901 0.53579 0.03856 0.0
C2521 C 0.90625 0.56024 0.0478 0.0
H2522 H 0.19621 0.08524 0.77393 0.0
H2523 H 0.2228 0.07726 0.85079 0.0
H2524 H 0.24545 0.12108 0.85385 0.0
H2525 H 0.25211 0.12271 0.75737 0.0
H2526 H 0.23551 0.1417 0.73772 0.0
H2527 H 0.22236 0.10956 0.7416 0.0
H2528 H 0.18336 0.12498 0.75635 0.0
H2529 H 0.19638 0.15713 0.75253 0.0
H2530 H 0.18646 0.14864 0.78227 0.0
H2531 H 0.26272 0.16731 0.84897 0.0
H2532 H 0.2745 0.2106 0.8361 0.0
H2533 H 0.23774 0.18682 0.76191 0.0
C2534 C 0.20696 0.0926 0.79138 0.0
C2535 C 0.20774 0.07786 0.81216 0.0
C2536 C 0.22203 0.0882 0.83462 0.0
C2537 C 0.23491 0.11307 0.83652 0.0
C2538 C 0.23352 0.12719 0.81569 0.0
C2539 C 0.22006 0.11717 0.79348 0.0
C2540 C 0.22111 0.1362 0.7739 0.0
C2541 C 0.23352 0.12699 0.75132 0.0
C2542 C 0.1953 0.14208 0.7658 0.0
C2543 C 0.23702 0.15869 0.78859 0.0
C2544 C 0.24397 0.15324 0.81269 0.0
C2545 C 0.25763 0.17164 0.83004 0.0
C2546 C 0.26421 0.19619 0.82258 0.0
C2547 C 0.25732 0.20208 0.79792 0.0
C2548 C 0.24374 0.18289 0.78075 0.0
H2549 H 0.34782 1.0012 0.25269 0.0
H2550 H 0.41013 1.00176 0.30794 0.0
H2551 H 0.39159 0.9604 0.32028 0.0
H2552 H 0.30077 0.96982 0.28815 0.0
H2553 H 0.2841 0.95076 0.26146 0.0
H2554 H 0.30146 0.98118 0.25739 0.0
H2555 H 0.32567 0.96031 0.22494 0.0
H2556 H 0.30829 0.92987 0.22882 0.0
H2557 H 0.34141 0.93456 0.23345 0.0
H2558 H 0.36695 0.91967 0.32713 0.0
H2559 H 0.33895 0.87926 0.32563 0.0
H2560 H 0.29288 0.90259 0.26464 0.0
C2561 C 0.35743 0.99258 0.26743 0.0
C2562 C 0.38039 0.00473 0.27944 0.0
C2563 C 0.39259 0.99278 0.29844 0.0
C2564 C 0.38215 0.96934 0.30569 0.0
C2565 C 0.35957 0.95784 0.29358 0.0
C2566 C 0.34742 0.96879 0.27465 0.0
C2567 C 0.32394 0.95149 0.26398 0.0
C2568 C 0.30122 0.96407 0.26799 0.0
C2569 C 0.32489 0.94359 0.23615 0.0
C2570 C 0.32492 0.92922 0.27989 0.0
C2571 C 0.34554 0.93357 0.29702 0.0
C2572 C 0.35074 0.91599 0.3138 0.0
C2573 C 0.33468 0.8931 0.31283 0.0
C2574 C 0.31376 0.88782 0.29506 0.0
C2575 C 0.30869 0.90622 0.2785 0.0
H2576 H 0.52871 0.35352 0.64586 0.0
H2577 H 0.49039 0.29502 0.5907 0.0
H2578 H 0.48776 0.3268 0.55981 0.0
H2579 H 0.49439 0.4016 0.62933 0.0
H2580 H 0.52022 0.42685 0.63416 0.0
H2581 H 0.52021 0.39931 0.65154 0.0
H2582 H 0.56163 0.39211 0.63543 0.0
H2583 H 0.56179 0.41969 0.61805 0.0
H2584 H 0.56417 0.38963 0.60224 0.0
H2585 H 0.48712 0.36548 0.53565 0.0
H2586 H 0.48989 0.40805 0.5198 0.0
H2587 H 0.52946 0.44089 0.59034 0.0
C2588 C 0.51999 0.34737 0.6272 0.0
C2589 C 0.50976 0.32181 0.62066 0.0
C2590 C 0.49841 0.31451 0.59609 0.0
C2591 C 0.49681 0.33242 0.57841 0.0
C2592 C 0.50683 0.35752 0.58553 0.0
C2593 C 0.51837 0.36498 0.60927 0.0
C2594 C 0.52719 0.39322 0.61232 0.0
C2595 C 0.51475 0.40599 0.63306 0.0
C2596 C 0.55537 0.39899 0.6173 0.0
C2597 C 0.51846 0.40052 0.58674 0.0
C2598 C 0.50679 0.37968 0.57152 0.0
C2599 C 0.49643 0.38191 0.54732 0.0
C2600 C 0.49804 0.4061 0.53849 0.0
C2601 C 0.50995 0.42761 0.55382 0.0
C2602 C 0.52039 0.4247 0.57816 0.0
H2603 H 0.44365 0.7667 0.35743 0.0
H2604 H 0.48122 0.8154 0.30697 0.0
H2605 H 0.44185 0.81471 0.28114 0.0
H2606 H 0.40043 0.72807 0.30943 0.0
H2607 H 0.37535 0.72548 0.32883 0.0
H2608 H 0.40661 0.72902 0.34296 0.0
H2609 H 0.39974 0.76832 0.37037 0.0
H2610 H 0.36851 0.76486 0.35635 0.0
H2611 H 0.38886 0.7943 0.35558 0.0
H2612 H 0.39804 0.81153 0.26265 0.0
H2613 H 0.35291 0.80553 0.25251 0.0
H2614 H 0.34363 0.7568 0.31315 0.0
C2615 C 0.4436 0.77711 0.34087 0.0
C2616 C 0.46557 0.79115 0.33424 0.0
C2617 C 0.46469 0.8045 0.31242 0.0
C2618 C 0.4424 0.80418 0.2976 0.0
C2619 C 0.4211 0.79018 0.30463 0.0
C2620 C 0.4215 0.77678 0.32569 0.0
C2621 C 0.39585 0.76375 0.32937 0.0
C2622 C 0.39449 0.73486 0.32753 0.0
C2623 C 0.38777 0.77339 0.3544 0.0
C2624 C 0.38093 0.77221 0.3073 0.0
C2625 C 0.3959 0.78749 0.2933 0.0
C2626 C 0.38621 0.79921 0.27316 0.0
C2627 C 0.36059 0.79564 0.26748 0.0
C2628 C 0.3449 0.78016 0.28157 0.0
C2629 C 0.35528 0.76796 0.30148 0.0
H2630 H 0.0209 0.71324 0.10326 0.0
H2631 H 0.97814 0.67799 0.15904 0.0
H2632 H 0.97617 0.63637 0.13604 0.0
H2633 H 0.9887 0.67297 0.04947 0.0
H2634 H 0.01609 0.67168 0.03391 0.0
H2635 H 0.01378 0.69901 0.05434 0.0
H2636 H 0.05413 0.69355 0.08028 0.0
H2637 H 0.05656 0.66622 0.05994 0.0
H2638 H 0.05663 0.66377 0.09318 0.0
H2639 H 0.9804 0.59862 0.10872 0.0
H2640 H 0.98969 0.56652 0.07794 0.0
H2641 H 0.02843 0.6253 0.03802 0.0
C2642 C 0.01105 0.69675 0.11055 0.0
C2643 C 0.99967 0.69886 0.133 0.0
C2644 C 0.98697 0.67686 0.14192 0.0
C2645 C 0.98574 0.65312 0.12897 0.0
C2646 C 0.99718 0.65165 0.10701 0.0
C2647 C 0.00952 0.67282 0.09774 0.0
C2648 C 0.02044 0.66573 0.0738 0.0
C2649 C 0.00907 0.67809 0.05156 0.0
C2650 C 0.04861 0.67274 0.077 0.0
C2651 C 0.01254 0.63725 0.07128 0.0
C2652 C 0.99912 0.62967 0.0907 0.0
C2653 C 0.99053 0.60434 0.09321 0.0
C2654 C 0.99578 0.58622 0.07545 0.0
C2655 C 0.00926 0.59337 0.05517 0.0
C2656 C 0.01775 0.61929 0.05308 0.0
H2657 H 0.09108 0.29723 0.81478 0.0
H2658 H 0.11992 0.28881 0.89091 0.0
H2659 H 0.15992 0.28339 0.87631 0.0
H2660 H 0.12246 0.25225 0.78404 0.0
H2661 H 0.12908 0.2706 0.7579 0.0
H2662 H 0.10248 0.27411 0.77407 0.0
H2663 H 0.11764 0.32225 0.78214 0.0
H2664 H 0.14424 0.3189 0.7659 0.0
H2665 H 0.14805 0.33333 0.79747 0.0
H2666 H 0.19546 0.2754 0.85357 0.0
H2667 H 0.22642 0.26979 0.8245 0.0
H2668 H 0.17722 0.28733 0.76298 0.0
C2669 C 0.10588 0.29435 0.82834 0.0
C2670 C 0.10232 0.29334 0.85402 0.0
C2671 C 0.12218 0.2897 0.8712 0.0
C2672 C 0.14498 0.28653 0.86307 0.0
C2673 C 0.14787 0.2874 0.8377 0.0
C2674 C 0.12907 0.2916 0.82057 0.0
C2675 C 0.13748 0.29212 0.79442 0.0
C2676 C 0.12195 0.27101 0.77655 0.0
C2677 C 0.13681 0.3182 0.7844 0.0
C2678 C 0.16376 0.28714 0.79954 0.0
C2679 C 0.16917 0.28427 0.82466 0.0
C2680 C 0.19165 0.27815 0.83396 0.0
C2681 C 0.20921 0.27516 0.81727 0.0
C2682 C 0.20465 0.27898 0.79159 0.0
C2683 C 0.18146 0.28485 0.78259 0.0
H2684 H 0.51945 0.69212 0.95128 0.0
H2685 H 0.55128 0.74632 0.01329 0.0
H2686 H 0.54827 0.71227 0.04194 0.0
H2687 H 0.47688 0.65269 0.98577 0.0
H2688 H 0.48166 0.62348 0.96992 0.0
H2689 H 0.48487 0.65211 0.954 0.0
H2690 H 0.52903 0.64629 0.94501 0.0
H2691 H 0.52568 0.61739 0.96044 0.0
H2692 H 0.55108 0.6422 0.97058 0.0
H2693 H 0.54399 0.67272 0.06339 0.0
H2694 H 0.53979 0.62913 0.07633 0.0
H2695 H 0.51127 0.60025 1.00077 0.0
C2696 C 0.52559 0.69679 0.97093 0.0
C2697 C 0.53552 0.72182 0.98015 0.0
C2698 C 0.54364 0.72724 0.00588 0.0
C2699 C 0.5419 0.70807 0.02231 0.0
C2700 C 0.53205 0.68361 0.01268 0.0
C2701 C 0.52415 0.67781 0.9876 0.0
C2702 C 0.51553 0.64967 0.98197 0.0
C2703 C 0.4881 0.64419 0.97235 0.0
C2704 C 0.53128 0.63822 0.96341 0.0
C2705 C 0.52002 0.64064 0.0078 0.0
C2706 C 0.52941 0.66059 0.02521 0.0
C2707 C 0.53634 0.65695 0.05003 0.0
C2708 C 0.5339 0.6322 0.05719 0.0
C2709 C 0.52452 0.61151 0.03963 0.0
C2710 C 0.51734 0.61579 0.01471 0.0
H2711 H 0.09103 0.79523 0.6464 0.0
H2712 H 0.03884 0.7427 0.68056 0.0
H2713 H 0.07248 0.73365 0.71037 0.0
H2714 H 0.14116 0.7594 0.65137 0.0
H2715 H 0.16428 0.78706 0.65818 0.0
H2716 H 0.13608 0.789 0.63944 0.0
H2717 H 0.12811 0.82556 0.67006 0.0
H2718 H 0.15623 0.82365 0.68896 0.0
H2719 H 0.12756 0.82086 0.70287 0.0
H2720 H 0.11183 0.73108 0.73695 0.0
H2721 H 0.15426 0.73432 0.75744 0.0
H2722 H 0.18015 0.7884 0.70551 0.0
C2723 C 0.08669 0.78172 0.66006 0.0
C2724 C 0.0624 0.76963 0.66121 0.0
C2725 C 0.0574 0.75213 0.67938 0.0
C2726 C 0.07634 0.7469 0.69639 0.0
C2727 C 0.1001 0.75933 0.69488 0.0
C2728 C 0.10533 0.7763 0.67712 0.0
C2729 C 0.13234 0.78723 0.6795 0.0
C2730 C 0.14416 0.78024 0.65571 0.0
C2731 C 0.13628 0.81603 0.68572 0.0
C2732 C 0.14151 0.77376 0.70138 0.0
C2733 C 0.12267 0.75779 0.71007 0.0
C2734 C 0.12675 0.74347 0.73028 0.0
C2735 C 0.15082 0.74545 0.7418 0.0
C2736 C 0.1703 0.76155 0.73295 0.0
C2737 C 0.16553 0.7759 0.71259 0.0
H2738 H 0.99959 0.34549 0.45501 0.0
H2739 H 0.07275 0.33569 0.48496 0.0
H2740 H 0.07622 0.37531 0.51197 0.0
H2741 H 0.01328 0.41074 0.45093 0.0
H2742 H 0.98397 0.41755 0.45926 0.0
H2743 H 0.98624 0.38703 0.44458 0.0
H2744 H 0.96695 0.3656 0.48157 0.0
H2745 H 0.96485 0.39618 0.49645 0.0
H2746 H 0.98092 0.37449 0.51307 0.0
H2747 H 0.07367 0.41814 0.53199 0.0
H2748 H 0.06544 0.46133 0.54287 0.0
H2749 H 0.99357 0.4427 0.50082 0.0
C2750 C 0.01614 0.35145 0.46762 0.0
C2751 C 0.03585 0.3375 0.46802 0.0
C2752 C 0.05739 0.34609 0.48443 0.0
C2753 C 0.05949 0.36849 0.49992 0.0
C2754 C 0.03984 0.382 0.49888 0.0
C2755 C 0.01855 0.3738 0.48318 0.0
C2756 C 1.00096 0.39283 0.4841 0.0
C2757 C 0.99583 0.40261 0.45819 0.0
C2758 C 0.977 0.3816 0.49442 0.0
C2759 C 0.01591 0.41326 0.50233 0.0
C2760 C 0.03821 0.40659 0.51079 0.0
C2761 C 0.05606 0.42339 0.52592 0.0
C2762 C 0.05124 0.44786 0.53201 0.0
C2763 C 0.02872 0.45522 0.52306 0.0
C2764 C 0.01064 0.43741 0.50861 0.0
H2765 H 0.43845 0.27398 0.1672 0.0
H2766 H 0.46889 0.35361 0.17002 0.0
H2767 H 0.44458 0.36241 0.20508 0.0
H2768 H 0.37814 0.28219 0.17889 0.0
H2769 H 0.37348 0.25556 0.19763 0.0
H2770 H 0.39428 0.25579 0.17376 0.0
H2771 H 0.42904 0.24863 0.20695 0.0
H2772 H 0.40831 0.24879 0.23094 0.0
H2773 H 0.43694 0.27037 0.23445 0.0
H2774 H 0.41478 0.36279 0.23786 0.0
H2775 H 0.38025 0.35483 0.2641 0.0
H2776 H 0.37116 0.27481 0.24085 0.0
C2777 C 0.44003 0.29327 0.17521 0.0
C2778 C 0.45545 0.31315 0.16591 0.0
C2779 C 0.4571 0.33813 0.17689 0.0
C2780 C 0.44351 0.34327 0.19688 0.0
C2781 C 0.42862 0.32318 0.20579 0.0
C2782 C 0.42679 0.29869 0.19526 0.0
C2783 C 0.40867 0.28063 0.20747 0.0
C2784 C 0.38738 0.26781 0.1883 0.0
C2785 C 0.42152 0.26095 0.22074 0.0
C2786 C 0.40013 0.29888 0.22611 0.0
C2787 C 0.41197 0.32332 0.22505 0.0
C2788 C 0.40566 0.34368 0.23916 0.0
C2789 C 0.38615 0.33901 0.25408 0.0
C2790 C 0.37335 0.31422 0.25464 0.0
C2791 C 0.38099 0.29389 0.24113 0.0
H2792 H 0.61346 0.53306 0.36278 0.0
H2793 H 0.63328 0.45828 0.36849 0.0
H2794 H 0.60688 0.45144 0.40301 0.0
H2795 H 0.61267 0.54813 0.42872 0.0
H2796 H 0.58695 0.56501 0.42468 0.0
H2797 H 0.60732 0.56367 0.40051 0.0
H2798 H 0.57011 0.54524 0.36843 0.0
H2799 H 0.54967 0.5463 0.39261 0.0
H2800 H 0.55028 0.51693 0.37458 0.0
H2801 H 0.5784 0.45318 0.43747 0.0
H2802 H 0.55173 0.46392 0.46974 0.0
H2803 H 0.55024 0.53728 0.44056 0.0
C2804 C 0.61229 0.51524 0.37129 0.0
C2805 C 0.62544 0.49619 0.36294 0.0
C2806 C 0.62338 0.47315 0.37459 0.0
C2807 C 0.60838 0.46907 0.39417 0.0
C2808 C 0.5955 0.48819 0.40181 0.0
C2809 C 0.59739 0.51085 0.39077 0.0
C2810 C 0.58195 0.5285 0.40262 0.0
C2811 C 0.5982 0.55275 0.41486 0.0
C2812 C 0.56181 0.53459 0.38341 0.0
C2813 C 0.57106 0.51227 0.42207 0.0
C2814 C 0.57903 0.48907 0.42134 0.0
C2815 C 0.5719 0.47123 0.43807 0.0
C2816 C 0.55662 0.47747 0.45628 0.0
C2817 C 0.54857 0.50136 0.45763 0.0
C2818 C 0.55572 0.51873 0.43997 0.0
H2819 H 0.22184 0.82031 0.09338 0.0
H2820 H 0.25246 0.89763 0.12022 0.0
H2821 H 0.26404 0.88365 0.16157 0.0
H2822 H 0.19689 0.80308 0.15181 0.0
H2823 H 0.20402 0.77139 0.1493 0.0
H2824 H 0.19785 0.78719 0.12144 0.0
H2825 H 0.23976 0.77962 0.10701 0.0
H2826 H 0.24609 0.76387 0.13487 0.0
H2827 H 0.26751 0.79045 0.12745 0.0
H2828 H 0.27381 0.86168 0.19999 0.0
H2829 H 0.27909 0.833 0.23341 0.0
H2830 H 0.24124 0.76964 0.18389 0.0
C2831 C 0.23088 0.83428 0.10801 0.0
C2832 C 0.23619 0.86019 0.1033 0.0
C2833 C 0.24808 0.87775 0.12311 0.0
C2834 C 0.25482 0.86998 0.14679 0.0
C2835 C 0.24952 0.84445 0.1508 0.0
C2836 C 0.23766 0.82681 0.13209 0.0
C2837 C 0.23407 0.80054 0.14177 0.0
C2838 C 0.20657 0.78993 0.14103 0.0
C2839 C 0.24767 0.78256 0.12689 0.0
C2840 C 0.24588 0.80626 0.16866 0.0
C2841 C 0.25471 0.83175 0.17335 0.0
C2842 C 0.26669 0.84172 0.19658 0.0
C2843 C 0.26948 0.82533 0.21561 0.0
C2844 C 0.26024 0.79921 0.21161 0.0
C2845 C 0.24844 0.78957 0.18764 0.0
H2846 H 0.96676 0.55774 0.82665 0.0
H2847 H 0.9077 0.59939 0.84266 0.0
H2848 H 0.91779 0.5967 0.88778 0.0
H2849 H 0.95826 0.51514 0.87457 0.0
H2850 H 0.99051 0.51466 0.88272 0.0
H2851 H 0.97973 0.5208 0.85148 0.0
H2852 H 0.01017 0.56281 0.85531 0.0
H2853 H 0.02112 0.55676 0.88654 0.0
H2854 H 0.00966 0.58585 0.8811 0.0
H2855 H 0.93209 0.58735 0.93099 0.0
H2856 H 0.951 0.57354 0.96985 0.0
H2857 H 1.00212 0.53878 0.92749 0.0
C2858 C 0.9562 0.56659 0.83969 0.0
C2859 C 0.93642 0.57889 0.83094 0.0
C2860 C 0.92294 0.58995 0.84872 0.0
C2861 C 0.92852 0.5885 0.87448 0.0
C2862 C 0.94781 0.57602 0.88248 0.0
C2863 C 0.96162 0.56539 0.8657 0.0
C2864 C 0.98105 0.55259 0.87952 0.0
C2865 C 0.97715 0.52411 0.8716 0.0
C2866 C 0.00704 0.56526 0.87537 0.0
C2867 C 0.97577 0.55748 0.90658 0.0
C2868 C 0.95645 0.57099 0.90772 0.0
C2869 C 0.94739 0.57698 0.93034 0.0
C2870 C 0.95825 0.56895 0.95238 0.0
C2871 C 0.9782 0.55518 0.95193 0.0
C2872 C 0.98715 0.54957 0.9286 0.0
H2873 H 0.24364 0.18882 0.56143 0.0
H2874 H 0.31763 0.17047 0.57097 0.0
H2875 H 0.32269 0.18946 0.61434 0.0
H2876 H 0.25716 0.24934 0.59922 0.0
H2877 H 0.22805 0.24517 0.61229 0.0
H2878 H 0.23043 0.23106 0.58147 0.0
H2879 H 0.21282 0.18713 0.59514 0.0
H2880 H 0.2105 0.20106 0.62601 0.0
H2881 H 0.22765 0.17527 0.62211 0.0
H2882 H 0.31934 0.20799 0.65663 0.0
H2883 H 0.30829 0.22693 0.69606 0.0
H2884 H 0.23667 0.23442 0.65979 0.0
C2885 C 0.26095 0.18903 0.57262 0.0
C2886 C 0.28025 0.1782 0.56292 0.0
C2887 C 0.30262 0.17869 0.57807 0.0
C2888 C 0.30569 0.18942 0.6027 0.0
C2889 C 0.28625 0.19968 0.61181 0.0
C2890 C 0.26437 0.19977 0.5973 0.0
C2891 C 0.24632 0.21168 0.61201 0.0
C2892 C 0.24014 0.23575 0.60056 0.0
C2893 C 0.22294 0.19264 0.61393 0.0
C2894 C 0.26141 0.21788 0.63714 0.0
C2895 C 0.28439 0.21077 0.63648 0.0
C2896 C 0.30149 0.2138 0.6574 0.0
C2897 C 0.29499 0.22446 0.6797 0.0
C2898 C 0.27164 0.23204 0.68083 0.0
C2899 C 0.25466 0.22882 0.65929 0.0
H2900 H 0.64077 0.49829 0.21115 0.0
H2901 H 0.58449 0.50601 0.2612 0.0
H2902 H 0.55461 0.50859 0.22501 0.0
H2903 H 0.62459 0.54186 0.16992 0.0
H2904 H 0.63042 0.52447 0.14187 0.0
H2905 H 0.64682 0.52049 0.17137 0.0
H2906 H 0.63176 0.47218 0.16537 0.0
H2907 H 0.61534 0.476 0.13575 0.0
H2908 H 0.59928 0.46052 0.1596 0.0
H2909 H 0.53239 0.51527 0.18455 0.0
H2910 H 0.51847 0.52398 0.14162 0.0
H2911 H 0.58824 0.51032 0.117 0.0
C2912 C 0.62204 0.50006 0.21443 0.0
C2913 C 0.61491 0.50192 0.23896 0.0
C2914 C 0.59032 0.50447 0.24256 0.0
C2915 C 0.5732 0.50591 0.22212 0.0
C2916 C 0.5809 0.50447 0.19821 0.0
C2917 C 0.60464 0.50136 0.19419 0.0
C2918 C 0.60844 0.50172 0.16666 0.0
C2919 C 0.62877 0.52343 0.16221 0.0
C2920 C 0.61403 0.47607 0.15623 0.0
C2921 C 0.58336 0.50637 0.15598 0.0
C2922 C 0.56775 0.50773 0.17455 0.0
C2923 C 0.54425 0.51377 0.16976 0.0
C2924 C 0.53655 0.51878 0.14538 0.0
C2925 C 0.55223 0.51754 0.12612 0.0
C2926 C 0.57577 0.51087 0.13137 0.0
H2927 H 0.26188 0.85543 0.96069 0.0
H2928 H 0.18338 0.83096 0.95984 0.0
H2929 H 0.18276 0.80898 0.91778 0.0
H2930 H 0.26187 0.86707 0.89593 0.0
H2931 H 0.29048 0.85569 0.89211 0.0
H2932 H 0.28481 0.86894 0.92225 0.0
H2933 H 0.29302 0.82791 0.94199 0.0
H2934 H 0.29874 0.81454 0.9119 0.0
H2935 H 0.27574 0.79796 0.92914 0.0
H2936 H 0.19055 0.79131 0.87452 0.0
H2937 H 0.20609 0.77782 0.83502 0.0
H2938 H 0.27998 0.81244 0.86435 0.0
C2939 C 0.24455 0.84528 0.95177 0.0
C2940 C 0.22262 0.84493 0.96374 0.0
C2941 C 0.2004 0.83147 0.95123 0.0
C2942 C 0.19989 0.81896 0.92727 0.0
C2943 C 0.22179 0.81987 0.91595 0.0
C2944 C 0.24375 0.83256 0.9279 0.0
C2945 C 0.26469 0.8308 0.91162 0.0
C2946 C 0.27613 0.85719 0.9051 0.0
C2947 C 0.2842 0.81698 0.92443 0.0
C2948 C 0.25113 0.81518 0.88858 0.0
C2949 C 0.22636 0.80921 0.89141 0.0
C2950 C 0.20995 0.79572 0.87229 0.0
C2951 C 0.219 0.78814 0.84981 0.0
C2952 C 0.24435 0.79376 0.84645 0.0
C2953 C 0.26057 0.80743 0.86631 0.0
H2954 H 0.93271 0.54215 0.67273 0.0
H2955 H 0.97964 0.60885 0.70948 0.0
H2956 H 0.00513 0.61015 0.67408 0.0
H2957 H 0.98067 0.5132 0.64723 0.0
H2958 H 0.96284 0.50124 0.61808 0.0
H2959 H 0.94766 0.50574 0.64591 0.0
H2960 H 0.92069 0.53431 0.62303 0.0
H2961 H 0.93589 0.52994 0.59517 0.0
H2962 H 0.93522 0.56139 0.60879 0.0
H2963 H 0.02664 0.60358 0.63604 0.0
H2964 H 0.04333 0.58949 0.5976 0.0
H2965 H 0.98248 0.52754 0.58319 0.0
C2966 C 0.94833 0.55706 0.67328 0.0
C2967 C 0.95416 0.57543 0.69407 0.0
C2968 C 0.97476 0.59459 0.69395 0.0
C2969 C 0.98934 0.59551 0.67383 0.0
C2970 C 0.98312 0.57722 0.65372 0.0
C2971 C 0.9631 0.55834 0.65317 0.0
C2972 C 0.9609 0.5408 0.62929 0.0
C2973 C 0.96316 0.51363 0.63551 0.0
C2974 C 0.93674 0.54167 0.61312 0.0
C2975 C 0.98301 0.5526 0.61672 0.0
C2976 C 0.99544 0.57363 0.63126 0.0
C2977 C 0.01696 0.58726 0.62445 0.0
C2978 C 0.02632 0.57906 0.60253 0.0
C2979 C 0.01421 0.55752 0.58726 0.0
C2980 C 0.99196 0.5443 0.59427 0.0
H2981 H 0.25158 0.19496 0.42729 0.0
H2982 H 0.32917 0.20212 0.45272 0.0
H2983 H 0.33843 0.23576 0.42403 0.0
H2984 H 0.25811 0.2025 0.36402 0.0
H2985 H 0.23306 0.22026 0.35962 0.0
H2986 H 0.23295 0.1981 0.38325 0.0
H2987 H 0.22849 0.23378 0.41669 0.0
H2988 H 0.22891 0.25609 0.39307 0.0
H2989 H 0.25075 0.26232 0.42052 0.0
H2990 H 0.33925 0.26536 0.38924 0.0
H2991 H 0.33146 0.2883 0.35164 0.0
H2992 H 0.25307 0.26346 0.35198 0.0
C2993 C 0.27051 0.20371 0.42693 0.0
C2994 C 0.2897 0.19595 0.44202 0.0
C2995 C 0.31422 0.20787 0.44119 0.0
C2996 C 0.31963 0.22703 0.42508 0.0
C2997 C 0.30022 0.23426 0.41037 0.0
C2998 C 0.27614 0.22305 0.41133 0.0
C2999 C 0.25868 0.2334 0.393 0.0
C3000 C 0.24491 0.21232 0.37384 0.0
C3001 C 0.24065 0.24723 0.40664 0.0
C3002 C 0.27675 0.25169 0.38102 0.0
C3003 C 0.30063 0.25205 0.39127 0.0
C3004 C 0.32059 0.26567 0.38142 0.0
C3005 C 0.31601 0.27866 0.3601 0.0
C3006 C 0.29166 0.27798 0.34909 0.0
C3007 C 0.27186 0.26495 0.36027 0.0
H3008 H 0.3961 0.63942 0.51968 0.0
H3009 H 0.33221 0.58173 0.4993 0.0
H3010 H 0.35906 0.54935 0.49623 0.0
H3011 H 0.43807 0.61216 0.47977 0.0
H3012 H 0.46431 0.62001 0.50281 0.0
H3013 H 0.44022 0.63922 0.502 0.0
H3014 H 0.43557 0.63225 0.54868 0.0
H3015 H 0.45929 0.61259 0.54921 0.0
H3016 H 0.42934 0.60046 0.55801 0.0
H3017 H 0.39183 0.52242 0.49703 0.0
H3018 H 0.42909 0.50238 0.50248 0.0
H3019 H 0.47329 0.57593 0.52222 0.0
C3020 C 0.38783 0.62 0.51436 0.0
C3021 C 0.36183 0.6133 0.50962 0.0
C3022 C 0.35189 0.58755 0.50302 0.0
C3023 C 0.36706 0.56891 0.50114 0.0
C3024 C 0.39241 0.576 0.50593 0.0
C3025 C 0.40287 0.60087 0.51248 0.0
C3026 C 0.43076 0.6028 0.5177 0.0
C3027 C 0.44412 0.61955 0.49947 0.0
C3028 C 0.43925 0.61262 0.54503 0.0
C3029 C 0.43418 0.57523 0.51292 0.0
C3030 C 0.41168 0.56022 0.50615 0.0
C3031 C 0.40958 0.53403 0.50197 0.0
C3032 C 0.43089 0.52279 0.50503 0.0
C3033 C 0.45425 0.53753 0.51191 0.0
C3034 C 0.4559 0.56421 0.51584 0.0
H3035 H 0.86221 0.96317 0.59574 0.0
H3036 H 0.82179 0.02251 0.57296 0.0
H3037 H 0.86083 0.05055 0.56994 0.0
H3038 H 0.91821 0.00717 0.63021 0.0
H3039 H 0.9385 0.98644 0.61927 0.0
H3040 H 0.90791 0.97354 0.62587 0.0
H3041 H 0.8995 0.95141 0.58104 0.0
H3042 H 0.92975 0.96452 0.57415 0.0
H3043 H 0.90321 0.97012 0.55461 0.0
H3044 H 0.90233 0.06717 0.55829 0.0
H3045 H 0.94414 0.07328 0.54435 0.0
H3046 H 0.95838 0.0047 0.57717 0.0
C3047 C 0.86163 0.98247 0.59128 0.0
C3048 C 0.83904 0.99071 0.58462 0.0
C3049 C 0.83892 0.01589 0.57833 0.0
C3050 C 0.86103 0.03196 0.57654 0.0
C3051 C 0.88305 0.02273 0.58166 0.0
C3052 C 0.88356 0.99879 0.58959 0.0
C3053 C 0.90935 0.99228 0.59101 0.0
C3054 C 0.91906 0.98972 0.61821 0.0
C3055 C 0.91049 0.96818 0.5742 0.0
C3056 C 0.92289 0.01554 0.58102 0.0
C3057 C 0.90747 0.03302 0.57595 0.0
C3058 C 0.91486 0.05416 0.56308 0.0
C3059 C 0.93851 0.0574 0.55508 0.0
C3060 C 0.95447 0.03975 0.56026 0.0
C3061 C 0.94675 0.01893 0.57385 0.0
H3062 H 0.8448 0.13227 0.27847 0.0
H3063 H 0.81231 0.09624 0.20618 0.0
H3064 H 0.78486 0.12843 0.20281 0.0
H3065 H 0.789 0.14717 0.29987 0.0
H3066 H 0.80274 0.17717 0.31591 0.0
H3067 H 0.82091 0.15224 0.31223 0.0
H3068 H 0.85274 0.18181 0.29048 0.0
H3069 H 0.83467 0.20665 0.29504 0.0
H3070 H 0.8422 0.19781 0.26412 0.0
H3071 H 0.76018 0.16316 0.20771 0.0
H3072 H 0.73956 0.19881 0.22017 0.0
H3073 H 0.787 0.21261 0.28993 0.0
C3074 C 0.83203 0.13128 0.26184 0.0
C3075 C 0.83071 0.11176 0.24252 0.0
C3076 C 0.81363 0.11099 0.22118 0.0
C3077 C 0.798 0.12922 0.21909 0.0
C3078 C 0.79962 0.14805 0.23854 0.0
C3079 C 0.81617 0.14928 0.25952 0.0
C3080 C 0.81349 0.17105 0.27808 0.0
C3081 C 0.80609 0.16131 0.30299 0.0
C3082 C 0.8372 0.19048 0.28213 0.0
C3083 C 0.79273 0.18178 0.26427 0.0
C3084 C 0.78515 0.16819 0.24148 0.0
C3085 C 0.76602 0.17399 0.22545 0.0
C3086 C 0.75434 0.19425 0.2328 0.0
C3087 C 0.76173 0.20859 0.25601 0.0
C3088 C 0.78119 0.20222 0.27198 0.0
H3089 H 0.73186 0.11622 0.04158 0.0
H3090 H 0.72614 0.14671 0.96894 0.0
H3091 H 0.68215 0.1288 0.96259 0.0
H3092 H 0.68882 0.05774 0.02445 0.0
H3093 H 0.67567 0.05805 0.05391 0.0
H3094 H 0.70716 0.07221 0.0525 0.0
H3095 H 0.698 0.11447 0.07273 0.0
H3096 H 0.66651 0.10044 0.07421 0.0
H3097 H 0.67339 0.12893 0.0585 0.0
H3098 H 0.63881 0.1087 0.96413 0.0
H3099 H 0.59812 0.08856 0.97412 0.0
H3100 H 0.63068 0.07124 0.04604 0.0
C3101 C 0.72135 0.1189 0.02428 0.0
C3102 C 0.73248 0.1328 0.0057 0.0
C3103 C 0.71805 0.13616 0.98343 0.0
C3104 C 0.69303 0.12599 0.97961 0.0
C3105 C 0.68256 0.11255 0.99826 0.0
C3106 C 0.69615 0.109 0.0202 0.0
C3107 C 0.67997 0.09455 0.03755 0.0
C3108 C 0.68841 0.06912 0.04238 0.0
C3109 C 0.67944 0.11056 0.0622 0.0
C3110 C 0.6552 0.09072 0.02197 0.0
C3111 C 0.65724 0.10115 0.9993 0.0
C3112 C 0.63697 0.10044 0.9818 0.0
C3113 C 0.61392 0.08898 0.98766 0.0
C3114 C 0.61125 0.07841 0.01084 0.0
C3115 C 0.63223 0.07912 0.02814 0.0
H3116 H 0.16987 0.42308 0.30797 0.0
H3117 H 0.17802 0.45016 0.23444 0.0
H3118 H 0.20506 0.41896 0.22582 0.0
H3119 H 0.23248 0.41325 0.32069 0.0
H3120 H 0.22529 0.38486 0.33649 0.0
H3121 H 0.20508 0.40824 0.3367 0.0
H3122 H 0.16896 0.37395 0.31858 0.0
H3123 H 0.18891 0.35032 0.31724 0.0
H3124 H 0.17081 0.35634 0.28936 0.0
H3125 H 0.23225 0.38688 0.22501 0.0
H3126 H 0.26085 0.35684 0.23306 0.0
H3127 H 0.23706 0.34881 0.3072 0.0
C3128 C 0.17725 0.42226 0.29002 0.0
C3129 C 0.17168 0.43916 0.27184 0.0
C3130 C 0.18193 0.43758 0.24869 0.0
C3131 C 0.19726 0.41978 0.24353 0.0
C3132 C 0.20243 0.40352 0.2617 0.0
C3133 C 0.19296 0.40456 0.28457 0.0
C3134 C 0.20271 0.38542 0.30105 0.0
C3135 C 0.21726 0.39874 0.32516 0.0
C3136 C 0.1816 0.3653 0.30692 0.0
C3137 C 0.21952 0.37401 0.28401 0.0
C3138 C 0.21865 0.38466 0.26131 0.0
C3139 C 0.23302 0.37832 0.24266 0.0
C3140 C 0.24928 0.36122 0.24745 0.0
C3141 C 0.25123 0.35043 0.27072 0.0
C3142 C 0.23571 0.35648 0.28912 0.0
H3143 H 0.17774 0.44843 0.05025 0.0
H3144 H 0.23295 0.51199 0.03897 0.0
H3145 H 0.20003 0.5362 0.02512 0.0
H3146 H 0.13974 0.45309 0.99575 0.0
H3147 H 0.11133 0.44366 0.00908 0.0
H3148 H 0.13894 0.43264 0.02102 0.0
H3149 H 0.13421 0.45103 0.0658 0.0
H3150 H 0.10624 0.46154 0.05411 0.0
H3151 H 0.13084 0.48381 0.07092 0.0
H3152 H 0.16036 0.55288 0.01192 0.0
H3153 H 0.11759 0.56036 1.00072 0.0
H3154 H 0.09019 0.48361 0.01657 0.0
C3155 C 0.1829 0.4677 0.04555 0.0
C3156 C 0.20774 0.47862 0.04606 0.0
C3157 C 0.21389 0.50353 0.03897 0.0
C3158 C 0.19537 0.51732 0.031 0.0
C3159 C 0.17097 0.50563 0.02989 0.0
C3160 C 0.16478 0.48137 0.03698 0.0
C3161 C 0.13747 0.4723 0.03254 0.0
C3162 C 0.13154 0.44905 0.01346 0.0
C3163 C 0.12655 0.46687 0.05732 0.0
C3164 C 0.12918 0.49524 0.02187 0.0
C3165 C 0.14862 0.51444 0.02068 0.0
C3166 C 0.14502 0.5379 0.01255 0.0
C3167 C 0.1208 0.54194 0.00609 0.0
C3168 C 0.10083 0.52242 0.00743 0.0
C3169 C 0.1052 0.4987 0.01487 0.0
H3170 H 0.84492 0.96462 0.23093 0.0
H3171 H 0.8144 1.00309 0.29137 0.0
H3172 H 0.79299 0.96216 0.30226 0.0
H3173 H 0.79086 0.91519 0.21326 0.0
H3174 H 0.80936 0.891 0.20694 0.0
H3175 H 0.82074 0.92349 0.20245 0.0
H3176 H 0.85981 0.92147 0.23212 0.0
H3177 H 0.84852 0.88904 0.23677 0.0
H3178 H 0.85665 0.91197 0.26332 0.0
H3179 H 0.77774 0.91731 0.30895 0.0
H3180 H 0.76857 0.87112 0.31045 0.0
H3181 H 0.80815 0.86085 0.24534 0.0
C3182 C 0.83336 0.96444 0.24616 0.0
C3183 C 0.83122 0.9871 0.26024 0.0
C3184 C 0.81624 0.98603 0.28027 0.0
C3185 C 0.80398 0.96286 0.28659 0.0
C3186 C 0.80679 0.94086 0.27266 0.0
C3187 C 0.82096 0.94139 0.25276 0.0
C3188 C 0.82176 0.91478 0.24166 0.0
C3189 C 0.80997 0.91089 0.21446 0.0
C3190 C 0.84826 0.90899 0.24359 0.0
C3191 C 0.8062 0.89926 0.25874 0.0
C3192 C 0.79771 0.91476 0.27641 0.0
C3193 C 0.78403 0.90498 0.29504 0.0
C3194 C 0.779 0.87868 0.29578 0.0
C3195 C 0.78751 0.86232 0.27795 0.0
C3196 C 0.80107 0.87283 0.259 0.0
H3197 H 0.66369 0.08464 0.80636 0.0
H3198 H 0.69867 0.03881 0.75535 0.0
H3199 H 0.7271 0.07676 0.74703 0.0
H3200 H 0.66557 0.13773 0.77035 0.0
H3201 H 0.67166 0.16082 0.79688 0.0
H3202 H 0.65515 0.12982 0.80006 0.0
H3203 H 0.68703 0.12378 0.8366 0.0
H3204 H 0.70362 0.15481 0.83355 0.0
H3205 H 0.71922 0.12767 0.8319 0.0
H3206 H 0.75062 0.12032 0.74277 0.0
H3207 H 0.767 0.16599 0.74303 0.0
H3208 H 0.71651 0.18304 0.79661 0.0
C3209 C 0.67753 0.08255 0.79368 0.0
C3210 C 0.67903 0.05875 0.78158 0.0
C3211 C 0.69722 0.05685 0.76489 0.0
C3212 C 0.71348 0.07829 0.76005 0.0
C3213 C 0.71135 0.10154 0.77207 0.0
C3214 C 0.69386 0.10378 0.78858 0.0
C3215 C 0.69479 0.13107 0.79831 0.0
C3216 C 0.67034 0.1404 0.79095 0.0
C3217 C 0.70157 0.13453 0.82678 0.0
C3218 C 0.71532 0.14384 0.7845 0.0
C3219 C 0.72476 0.12652 0.76954 0.0
C3220 C 0.74347 0.13404 0.75455 0.0
C3221 C 0.75266 0.15996 0.75478 0.0
C3222 C 0.74306 0.17794 0.76985 0.0
C3223 C 0.72429 0.16967 0.78497 0.0
loop_
_geom_bond_atom_site_label_1
_geom_bond_atom_site_label_2
_geom_bond_distance
_geom_bond_site_symmetry_2
_ccdc_geom_bond_type
In0 O1 2.294 . S
In0 O2 2.326 . S
In0 O6 2.266 1_455 S
In0 O7 2.326 1_455 S
In0 O8 2.266 . S
In0 O9 2.326 . S
In0 O11 2.294 . S
In0 O12 2.326 . S
O1 In0 2.294 . S
O1 C10 1.240 . S
O2 In0 2.326 . S
O2 C10 1.252 . S
C3 O6 1.252 . S
C3 O7 1.260 . S
C4 O11 1.240 . S
C4 O12 1.252 . S
C5 O8 1.252 . S
C5 O9 1.260 . S
O6 In0 2.266 1_655 S
O6 C3 1.252 . S
O7 In0 2.326 1_655 S
O7 C3 1.260 . S
O8 In0 2.266 . S
O8 C5 1.252 . S
O9 In0 2.326 . S
O9 C5 1.260 . S
C10 O1 1.240 . S
C10 O2 1.252 . S
O11 In0 2.294 . S
O11 C4 1.240 . S
O12 In0 2.326 . S
O12 C4 1.252 . S
In13 O14 2.294 . S
In13 O15 2.326 . S
In13 O19 2.266 1_455 S
In13 O20 2.325 . S
In13 O21 2.266 1_455 S
In13 O22 2.326 1_455 S
In13 O24 2.294 . S
In13 O25 2.326 . S
O14 In13 2.294 . S
O14 C23 1.240 . S
O15 In13 2.326 . S
O15 C23 1.252 . S
C16 O19 1.252 . S
C16 O20 1.259 1_655 S
C17 O24 1.240 . S
C17 O25 1.252 . S
C18 O21 1.252 . S
C18 O22 1.260 . S
O19 In13 2.266 1_655 S
O19 C16 1.252 . S
O20 In13 2.325 . S
O20 C16 1.259 1_455 S
O21 In13 2.266 1_655 S
O21 C18 1.252 . S
O22 In13 2.326 1_655 S
O22 C18 1.260 . S
C23 O14 1.240 . S
C23 O15 1.252 . S
O24 In13 2.294 . S
O24 C17 1.240 . S
O25 In13 2.326 . S
O25 C17 1.252 . S
In26 O27 2.294 . S
In26 O28 2.326 . S
In26 O32 2.266 . S
In26 O33 2.326 . S
In26 O34 2.266 . S
In26 O35 2.326 . S
In26 O37 2.294 . S
In26 O38 2.326 . S
O27 In26 2.294 . S
O27 C36 1.240 . S
O28 In26 2.326 . S
O28 C36 1.252 . S
C29 O32 1.252 . S
C29 O33 1.260 . S
C30 O37 1.240 . S
C30 O38 1.252 . S
C31 O34 1.252 . S
C31 O35 1.260 . S
O32 In26 2.266 . S
O32 C29 1.252 . S
O33 In26 2.326 . S
O33 C29 1.260 . S
O34 In26 2.266 . S
O34 C31 1.252 . S
O35 In26 2.326 . S
O35 C31 1.260 . S
C36 O27 1.240 . S
C36 O28 1.252 . S
O37 In26 2.294 . S
O37 C30 1.240 . S
O38 In26 2.326 . S
O38 C30 1.252 . S
In39 O40 2.294 . S
In39 O41 2.326 . S
In39 O45 2.266 . S
In39 O46 2.326 . S
In39 O47 2.266 . S
In39 O48 2.326 . S
In39 O50 2.294 . S
In39 O51 2.326 . S
O40 In39 2.294 . S
O40 C49 1.240 . S
O41 In39 2.326 . S
O41 C49 1.252 . S
C42 O45 1.252 . S
C42 O46 1.260 . S
C43 O50 1.240 . S
C43 O51 1.252 . S
C44 O47 1.252 . S
C44 O48 1.260 . S
O45 In39 2.266 . S
O45 C42 1.252 . S
O46 In39 2.326 . S
O46 C42 1.260 . S
O47 In39 2.266 . S
O47 C44 1.252 . S
O48 In39 2.326 . S
O48 C44 1.260 . S
C49 O40 1.240 . S
C49 O41 1.252 . S
O50 In39 2.294 . S
O50 C43 1.240 . S
O51 In39 2.326 . S
O51 C43 1.252 . S
In52 O53 2.294 . S
In52 O54 2.326 . S
In52 O58 2.266 . S
In52 O59 2.326 . S
In52 O60 2.266 . S
In52 O61 2.326 . S
In52 O63 2.294 1_455 S
In52 O64 2.326 1_455 S
O53 In52 2.294 . S
O53 C62 1.240 . S
O54 In52 2.326 . S
O54 C62 1.252 . S
C55 O58 1.252 . S
C55 O59 1.260 . S
C56 O63 1.240 . S
C56 O64 1.252 . S
C57 O60 1.252 . S
C57 O61 1.260 . S
O58 In52 2.266 . S
O58 C55 1.252 . S
O59 In52 2.326 . S
O59 C55 1.260 . S
O60 In52 2.266 . S
O60 C57 1.252 . S
O61 In52 2.326 . S
O61 C57 1.260 . S
C62 O53 1.240 . S
C62 O54 1.252 . S
O63 In52 2.294 1_655 S
O63 C56 1.240 . S
O64 In52 2.326 1_655 S
O64 C56 1.252 . S
In65 O66 2.294 . S
In65 O67 2.326 . S
In65 O71 2.266 . S
In65 O72 2.326 . S
In65 O73 2.266 . S
In65 O74 2.326 . S
In65 O76 2.294 . S
In65 O77 2.326 . S
O66 In65 2.294 . S
O66 C75 1.240 . S
O67 In65 2.326 . S
O67 C75 1.252 . S
C68 O71 1.252 . S
C68 O72 1.260 . S
C69 O76 1.240 . S
C69 O77 1.252 . S
C70 O73 1.252 . S
C70 O74 1.260 . S
O71 In65 2.266 . S
O71 C68 1.252 . S
O72 In65 2.326 . S
O72 C68 1.260 . S
O73 In65 2.266 . S
O73 C70 1.252 . S
O74 In65 2.326 . S
O74 C70 1.260 . S
C75 O66 1.240 . S
C75 O67 1.252 . S
O76 In65 2.294 . S
O76 C69 1.240 . S
O77 In65 2.326 . S
O77 C69 1.252 . S
In78 O79 2.294 . S
In78 O80 2.326 . S
In78 O84 2.266 . S
In78 O85 2.326 . S
In78 O86 2.266 . S
In78 O87 2.326 . S
In78 O89 2.294 . S
In78 O90 2.326 . S
O79 In78 2.294 . S
O79 C88 1.240 . S
O80 In78 2.326 . S
O80 C88 1.252 . S
C81 O84 1.252 . S
C81 O85 1.260 . S
C82 O89 1.240 . S
C82 O90 1.252 . S
C83 O86 1.252 . S
C83 O87 1.260 . S
O84 In78 2.266 . S
O84 C81 1.252 . S
O85 In78 2.326 . S
O85 C81 1.260 . S
O86 In78 2.266 . S
O86 C83 1.252 . S
O87 In78 2.326 . S
O87 C83 1.260 . S
C88 O79 1.240 . S
C88 O80 1.252 . S
O89 In78 2.294 . S
O89 C82 1.240 . S
O90 In78 2.326 . S
O90 C82 1.252 . S
In91 O92 2.294 . S
In91 O93 2.326 . S
In91 O97 2.266 . S
In91 O98 2.326 . S
In91 O99 2.266 1_455 S
In91 O100 2.326 1_455 S
In91 O102 2.294 . S
In91 O103 2.326 . S
O92 In91 2.294 . S
O92 C101 1.240 . S
O93 In91 2.326 . S
O93 C101 1.252 . S
C94 O97 1.252 . S
C94 O98 1.260 . S
C95 O102 1.240 . S
C95 O103 1.252 . S
C96 O99 1.252 . S
C96 O100 1.260 . S
O97 In91 2.266 . S
O97 C94 1.252 . S
O98 In91 2.326 . S
O98 C94 1.260 . S
O99 In91 2.266 1_655 S
O99 C96 1.252 . S
O100 In91 2.326 1_655 S
O100 C96 1.260 . S
C101 O92 1.240 . S
C101 O93 1.252 . S
O102 In91 2.294 . S
O102 C95 1.240 . S
O103 In91 2.326 . S
O103 C95 1.252 . S
In104 O105 2.294 . S
In104 O106 2.326 . S
In104 O110 2.266 . S
In104 O111 2.326 . S
In104 O112 2.266 . S
In104 O113 2.368 . S
In104 O115 2.294 . S
In104 O116 2.326 . S
O105 In104 2.294 . S
O105 C114 1.240 . S
O106 In104 2.326 . S
O106 C114 1.252 . S
C107 O110 1.252 . S
C107 O111 1.260 . S
C108 O115 1.240 . S
C108 O116 1.252 . S
C109 O112 1.252 1_565 S
C109 O113 1.257 1_565 S
O110 In104 2.266 . S
O110 C107 1.252 . S
O111 In104 2.326 . S
O111 C107 1.260 . S
O112 In104 2.266 . S
O112 C109 1.252 1_545 S
O113 In104 2.368 . S
O113 C109 1.257 1_545 S
C114 O105 1.240 . S
C114 O106 1.252 . S
O115 In104 2.294 . S
O115 C108 1.240 . S
O116 In104 2.326 . S
O116 C108 1.252 . S
In117 O118 2.294 . S
In117 O119 2.326 . S
In117 O123 2.266 . S
In117 O124 2.326 . S
In117 O125 2.266 . S
In117 O126 2.326 . S
In117 O128 2.294 . S
In117 O129 2.326 . S
O118 In117 2.294 . S
O118 C127 1.240 . S
O119 In117 2.326 . S
O119 C127 1.252 . S
C120 O123 1.252 . S
C120 O124 1.260 . S
C121 O128 1.240 . S
C121 O129 1.252 . S
C122 O125 1.252 . S
C122 O126 1.260 . S
O123 In117 2.266 . S
O123 C120 1.252 . S
O124 In117 2.326 . S
O124 C120 1.260 . S
O125 In117 2.266 . S
O125 C122 1.252 . S
O126 In117 2.326 . S
O126 C122 1.260 . S
C127 O118 1.240 . S
C127 O119 1.252 . S
O128 In117 2.294 . S
O128 C121 1.240 . S
O129 In117 2.326 . S
O129 C121 1.252 . S
In130 O131 2.294 1_545 S
In130 O132 2.326 1_545 S
In130 O136 2.266 . S
In130 O137 2.325 . S
In130 O138 2.264 . S
In130 O139 2.322 . S
In130 O141 2.296 1_545 S
In130 O142 2.330 1_545 S
O131 In130 2.294 1_565 S
O131 C140 1.240 . S
O132 In130 2.326 1_565 S
O132 C140 1.252 . S
C133 O136 1.252 . S
C133 O137 1.260 . S
C134 O141 1.240 . S
C134 O142 1.252 . S
C135 O138 1.252 . S
C135 O139 1.260 . S
O136 In130 2.266 . S
O136 C133 1.252 . S
O137 In130 2.325 . S
O137 C133 1.260 . S
O138 In130 2.264 . S
O138 C135 1.252 . S
O139 In130 2.322 . S
O139 C135 1.260 . S
C140 O131 1.240 . S
C140 O132 1.252 . S
O141 In130 2.296 1_565 S
O141 C134 1.240 . S
O142 In130 2.330 1_565 S
O142 C134 1.252 . S
In143 O144 2.294 . S
In143 O145 2.326 . S
In143 O149 2.266 . S
In143 O150 2.326 1_554 S
In143 O151 2.266 . S
In143 O152 2.326 . S
In143 O154 2.294 . S
In143 O155 2.326 . S
O144 In143 2.294 . S
O144 C153 1.240 . S
O145 In143 2.326 . S
O145 C153 1.252 . S
C146 O149 1.252 1_556 S
C146 O150 1.260 . S
C147 O154 1.240 . S
C147 O155 1.252 . S
C148 O151 1.252 . S
C148 O152 1.260 . S
O149 In143 2.266 . S
O149 C146 1.252 1_554 S
O150 In143 2.326 1_556 S
O150 C146 1.260 . S
O151 In143 2.266 . S
O151 C148 1.252 . S
O152 In143 2.326 . S
O152 C148 1.260 . S
C153 O144 1.240 . S
C153 O145 1.252 . S
O154 In143 2.294 . S
O154 C147 1.240 . S
O155 In143 2.326 . S
O155 C147 1.252 . S
In156 O157 2.294 . S
In156 O158 2.326 . S
In156 O162 2.297 . S
In156 O163 2.326 1_554 S
In156 O164 2.266 . S
In156 O165 2.326 . S
In156 O167 2.294 . S
In156 O168 2.326 . S
O157 In156 2.294 . S
O157 C166 1.240 . S
O158 In156 2.326 . S
O158 C166 1.252 . S
C159 O162 1.214 1_556 S
C159 O163 1.260 . S
C160 O167 1.240 . S
C160 O168 1.252 . S
C161 O164 1.252 . S
C161 O165 1.260 . S
O162 In156 2.297 . S
O162 C159 1.214 1_554 S
O163 In156 2.326 1_556 S
O163 C159 1.260 . S
O164 In156 2.266 . S
O164 C161 1.252 . S
O165 In156 2.326 . S
O165 C161 1.260 . S
C166 O157 1.240 . S
C166 O158 1.252 . S
O167 In156 2.294 . S
O167 C160 1.240 . S
O168 In156 2.326 . S
O168 C160 1.252 . S
In169 O170 2.294 . S
In169 O171 2.326 . S
In169 O175 2.266 1_554 S
In169 O176 2.326 . S
In169 O177 2.266 1_554 S
In169 O178 2.326 1_554 S
In169 O180 2.294 . S
In169 O181 2.326 . S
O170 In169 2.294 . S
O170 C179 1.240 . S
O171 In169 2.326 . S
O171 C179 1.252 . S
C172 O175 1.252 . S
C172 O176 1.258 1_556 S
C173 O180 1.240 . S
C173 O181 1.252 . S
C174 O177 1.252 . S
C174 O178 1.260 . S
O175 In169 2.266 1_556 S
O175 C172 1.252 . S
O176 In169 2.326 . S
O176 C172 1.258 1_554 S
O177 In169 2.266 1_556 S
O177 C174 1.252 . S
O178 In169 2.326 1_556 S
O178 C174 1.260 . S
C179 O170 1.240 . S
C179 O171 1.252 . S
O180 In169 2.294 . S
O180 C173 1.240 . S
O181 In169 2.326 . S
O181 C173 1.252 . S
In182 O183 2.294 . S
In182 O184 2.326 . S
In182 O188 2.266 . S
In182 O189 2.326 . S
In182 O190 2.266 . S
In182 O191 2.326 . S
In182 O193 2.294 . S
In182 O194 2.326 . S
O183 In182 2.294 . S
O183 C192 1.240 . S
O184 In182 2.326 . S
O184 C192 1.252 . S
C185 O188 1.252 . S
C185 O189 1.260 . S
C186 O193 1.240 . S
C186 O194 1.252 . S
C187 O190 1.252 . S
C187 O191 1.260 . S
O188 In182 2.266 . S
O188 C185 1.252 . S
O189 In182 2.326 . S
O189 C185 1.260 . S
O190 In182 2.266 . S
O190 C187 1.252 . S
O191 In182 2.326 . S
O191 C187 1.260 . S
C192 O183 1.240 . S
C192 O184 1.252 . S
O193 In182 2.294 . S
O193 C186 1.240 . S
O194 In182 2.326 . S
O194 C186 1.252 . S
In195 O196 2.294 . S
In195 O197 2.326 . S
In195 O201 2.266 . S
In195 O202 2.326 . S
In195 O203 2.266 . S
In195 O204 2.326 . S
In195 O206 2.294 . S
In195 O207 2.326 . S
O196 In195 2.294 . S
O196 C205 1.240 . S
O197 In195 2.326 . S
O197 C205 1.252 . S
C198 O201 1.252 . S
C198 O202 1.260 . S
C199 O206 1.240 . S
C199 O207 1.252 . S
C200 O203 1.252 . S
C200 O204 1.260 . S
O201 In195 2.266 . S
O201 C198 1.252 . S
O202 In195 2.326 . S
O202 C198 1.260 . S
O203 In195 2.266 . S
O203 C200 1.252 . S
O204 In195 2.326 . S
O204 C200 1.260 . S
C205 O196 1.240 . S
C205 O197 1.252 . S
O206 In195 2.294 . S
O206 C199 1.240 . S
O207 In195 2.326 . S
O207 C199 1.252 . S
In208 O209 2.294 . S
In208 O210 2.326 . S
In208 O214 2.266 . S
In208 O215 2.326 . S
In208 O216 2.266 . S
In208 O217 2.326 . S
In208 O219 2.294 . S
In208 O220 2.326 . S
O209 In208 2.294 . S
O209 C218 1.240 . S
O210 In208 2.326 . S
O210 C218 1.252 . S
C211 O214 1.252 . S
C211 O215 1.260 . S
C212 O219 1.240 . S
C212 O220 1.252 . S
C213 O216 1.252 . S
C213 O217 1.260 . S
O214 In208 2.266 . S
O214 C211 1.252 . S
O215 In208 2.326 . S
O215 C211 1.260 . S
O216 In208 2.266 . S
O216 C213 1.252 . S
O217 In208 2.326 . S
O217 C213 1.260 . S
C218 O209 1.240 . S
C218 O210 1.252 . S
O219 In208 2.294 . S
O219 C212 1.240 . S
O220 In208 2.326 . S
O220 C212 1.252 . S
In221 O222 2.294 . S
In221 O223 2.326 . S
In221 O227 2.266 . S
In221 O228 2.326 . S
In221 O229 2.266 . S
In221 O230 2.326 . S
In221 O232 2.294 . S
In221 O233 2.326 . S
O222 In221 2.294 . S
O222 C231 1.240 . S
O223 In221 2.326 . S
O223 C231 1.252 . S
C224 O227 1.252 . S
C224 O228 1.260 . S
C225 O232 1.240 . S
C225 O233 1.252 . S
C226 O229 1.252 . S
C226 O230 1.260 . S
O227 In221 2.266 . S
O227 C224 1.252 . S
O228 In221 2.326 . S
O228 C224 1.260 . S
O229 In221 2.266 . S
O229 C226 1.252 . S
O230 In221 2.326 . S
O230 C226 1.260 . S
C231 O222 1.240 . S
C231 O223 1.252 . S
O232 In221 2.294 . S
O232 C225 1.240 . S
O233 In221 2.326 . S
O233 C225 1.252 . S
In234 O235 2.294 . S
In234 O236 2.326 . S
In234 O240 2.266 . S
In234 O241 2.326 . S
In234 O242 2.266 . S
In234 O243 2.326 . S
In234 O245 2.294 . S
In234 O246 2.326 . S
O235 In234 2.294 . S
O235 C244 1.240 . S
O236 In234 2.326 . S
O236 C244 1.252 . S
C237 O240 1.252 . S
C237 O241 1.260 . S
C238 O245 1.240 . S
C238 O246 1.252 . S
C239 O242 1.252 . S
C239 O243 1.260 . S
O240 In234 2.266 . S
O240 C237 1.252 . S
O241 In234 2.326 . S
O241 C237 1.260 . S
O242 In234 2.266 . S
O242 C239 1.252 . S
O243 In234 2.326 . S
O243 C239 1.260 . S
C244 O235 1.240 . S
C244 O236 1.252 . S
O245 In234 2.294 . S
O245 C238 1.240 . S
O246 In234 2.326 . S
O246 C238 1.252 . S
In247 O248 2.294 1_545 S
In247 O249 2.326 1_545 S
In247 O253 2.266 . S
In247 O254 2.326 . S
In247 O255 2.266 . S
In247 O256 2.326 . S
In247 O258 2.294 1_545 S
In247 O259 2.326 . S
O248 In247 2.294 1_565 S
O248 C257 1.240 . S
O249 In247 2.326 1_565 S
O249 C257 1.252 . S
C250 O253 1.252 . S
C250 O254 1.260 . S
C251 O258 1.241 1_545 S
C251 O259 1.253 . S
C252 O255 1.252 . S
C252 O256 1.260 . S
O253 In247 2.266 . S
O253 C250 1.252 . S
O254 In247 2.326 . S
O254 C250 1.260 . S
O255 In247 2.266 . S
O255 C252 1.252 . S
O256 In247 2.326 . S
O256 C252 1.260 . S
C257 O248 1.240 . S
C257 O249 1.252 . S
O258 In247 2.294 1_565 S
O258 C251 1.241 1_565 S
O259 In247 2.326 . S
O259 C251 1.253 . S
In260 O261 2.294 . S
In260 O262 2.326 . S
In260 O266 2.266 1_554 S
In260 O267 2.326 . S
In260 O268 2.266 1_554 S
In260 O269 2.326 1_554 S
In260 O271 2.294 . S
In260 O272 2.326 . S
O261 In260 2.294 . S
O261 C270 1.240 . S
O262 In260 2.326 . S
O262 C270 1.252 . S
C263 O266 1.252 . S
C263 O267 1.260 1_556 S
C264 O271 1.240 . S
C264 O272 1.252 . S
C265 O268 1.252 . S
C265 O269 1.260 . S
O266 In260 2.266 1_556 S
O266 C263 1.252 . S
O267 In260 2.326 . S
O267 C263 1.260 1_554 S
O268 In260 2.266 1_556 S
O268 C265 1.252 . S
O269 In260 2.326 1_556 S
O269 C265 1.260 . S
C270 O261 1.240 . S
C270 O262 1.252 . S
O271 In260 2.294 . S
O271 C264 1.240 . S
O272 In260 2.326 . S
O272 C264 1.252 . S
In273 O274 2.294 . S
In273 O275 2.326 . S
In273 O279 2.266 . S
In273 O280 2.326 . S
In273 O281 2.266 . S
In273 O282 2.326 . S
In273 O284 2.294 . S
In273 O285 2.326 . S
O274 In273 2.294 . S
O274 C283 1.240 . S
O275 In273 2.326 . S
O275 C283 1.252 . S
C276 O279 1.252 . S
C276 O280 1.260 . S
C277 O284 1.240 . S
C277 O285 1.252 . S
C278 O281 1.252 . S
C278 O282 1.260 . S
O279 In273 2.266 . S
O279 C276 1.252 . S
O280 In273 2.326 . S
O280 C276 1.260 . S
O281 In273 2.266 . S
O281 C278 1.252 . S
O282 In273 2.326 . S
O282 C278 1.260 . S
C283 O274 1.240 . S
C283 O275 1.252 . S
O284 In273 2.294 . S
O284 C277 1.240 . S
O285 In273 2.326 . S
O285 C277 1.252 . S
In286 O287 2.294 . S
In286 O288 2.326 . S
In286 O292 2.266 . S
In286 O293 2.326 . S
In286 O294 2.266 . S
In286 O295 2.326 . S
In286 O297 2.294 . S
In286 O298 2.326 . S
O287 In286 2.294 . S
O287 C296 1.240 . S
O288 In286 2.326 . S
O288 C296 1.252 . S
C289 O292 1.252 . S
C289 O293 1.260 . S
C290 O297 1.240 . S
C290 O298 1.252 . S
C291 O294 1.252 . S
C291 O295 1.260 . S
O292 In286 2.266 . S
O292 C289 1.252 . S
O293 In286 2.326 . S
O293 C289 1.260 . S
O294 In286 2.266 . S
O294 C291 1.252 . S
O295 In286 2.326 . S
O295 C291 1.260 . S
C296 O287 1.240 . S
C296 O288 1.252 . S
O297 In286 2.294 . S
O297 C290 1.240 . S
O298 In286 2.326 . S
O298 C290 1.252 . S
In299 O300 2.294 . S
In299 O301 2.326 . S
In299 O305 2.266 . S
In299 O306 2.326 . S
In299 O307 2.266 . S
In299 O308 2.326 . S
In299 O310 2.294 . S
In299 O311 2.326 . S
O300 In299 2.294 . S
O300 C309 1.240 . S
O301 In299 2.326 . S
O301 C309 1.252 . S
C302 O305 1.252 . S
C302 O306 1.260 . S
C303 O310 1.240 . S
C303 O311 1.252 . S
C304 O307 1.252 . S
C304 O308 1.260 . S
O305 In299 2.266 . S
O305 C302 1.252 . S
O306 In299 2.326 . S
O306 C302 1.260 . S
O307 In299 2.266 . S
O307 C304 1.252 . S
O308 In299 2.326 . S
O308 C304 1.260 . S
C309 O300 1.240 . S
C309 O301 1.252 . S
O310 In299 2.294 . S
O310 C303 1.240 . S
O311 In299 2.326 . S
O311 C303 1.252 . S
Tb312 O315 2.453 . S
Tb312 O316 2.596 . S
Tb312 O317 2.374 1_554 S
Tb312 O325 2.343 . S
Tb312 O327 2.353 . S
Tb312 O329 2.427 . S
Tb312 O330 2.513 . S
C313 O317 1.251 . S
C313 O319 1.263 . S
Tb314 O316 2.343 . S
Tb314 O319 2.353 1_554 S
Tb314 O322 2.427 1_545 S
Tb314 O323 2.513 1_545 S
Tb314 O324 2.453 1_455 S
Tb314 O325 2.596 . S
Tb314 O326 2.374 . S
O315 Tb312 2.453 . S
O315 C331 1.245 . S
O316 Tb312 2.596 . S
O316 Tb314 2.343 . S
O316 C331 1.259 . S
O317 Tb312 2.374 1_556 S
O317 C313 1.251 . S
C318 O322 1.275 . S
C318 O323 1.246 . S
O319 C313 1.263 . S
O319 Tb314 2.353 1_556 S
C320 O324 1.245 . S
C320 O325 1.259 1_655 S
C321 O326 1.250 . S
C321 O327 1.263 . S
O322 Tb314 2.427 1_565 S
O322 C318 1.275 . S
O323 Tb314 2.513 1_565 S
O323 C318 1.246 . S
O324 Tb314 2.453 1_655 S
O324 C320 1.245 . S
O325 Tb312 2.343 . S
O325 Tb314 2.596 . S
O325 C320 1.259 1_455 S
O326 Tb314 2.374 . S
O326 C321 1.250 . S
O327 Tb312 2.353 . S
O327 C321 1.263 . S
C328 O329 1.275 . S
C328 O330 1.246 . S
O329 Tb312 2.427 . S
O329 C328 1.275 . S
O330 Tb312 2.513 . S
O330 C328 1.246 . S
C331 O315 1.245 . S
C331 O316 1.259 . S
Tb332 O335 2.453 . S
Tb332 O336 2.596 . S
Tb332 O337 2.374 . S
Tb332 O345 2.343 . S
Tb332 O347 2.353 . S
Tb332 O349 2.427 . S
Tb332 O350 2.513 . S
C333 O337 1.251 . S
C333 O339 1.263 . S
Tb334 O336 2.343 . S
Tb334 O339 2.353 . S
Tb334 O342 2.427 . S
Tb334 O343 2.513 . S
Tb334 O344 2.453 . S
Tb334 O345 2.596 . S
Tb334 O346 2.374 . S
O335 Tb332 2.453 . S
O335 C351 1.245 . S
O336 Tb332 2.596 . S
O336 Tb334 2.343 . S
O336 C351 1.259 . S
O337 Tb332 2.374 . S
O337 C333 1.251 . S
C338 O342 1.275 . S
C338 O343 1.246 . S
O339 C333 1.263 . S
O339 Tb334 2.353 . S
C340 O344 1.245 . S
C340 O345 1.259 . S
C341 O346 1.250 . S
C341 O347 1.263 . S
O342 Tb334 2.427 . S
O342 C338 1.275 . S
O343 Tb334 2.513 . S
O343 C338 1.246 . S
O344 Tb334 2.453 . S
O344 C340 1.245 . S
O345 Tb332 2.343 . S
O345 Tb334 2.596 . S
O345 C340 1.259 . S
O346 Tb334 2.374 . S
O346 C341 1.250 . S
O347 Tb332 2.353 . S
O347 C341 1.263 . S
C348 O349 1.275 . S
C348 O350 1.246 . S
O349 Tb332 2.427 . S
O349 C348 1.275 . S
O350 Tb332 2.513 . S
O350 C348 1.246 . S
C351 O335 1.245 . S
C351 O336 1.259 . S
Tb352 O355 2.453 . S
Tb352 O356 2.596 . S
Tb352 O357 2.374 . S
Tb352 O365 2.343 1_545 S
Tb352 O367 2.353 . S
Tb352 O369 2.427 . S
Tb352 O370 2.513 1_545 S
C353 O357 1.251 . S
C353 O359 1.263 . S
Tb354 O356 2.343 . S
Tb354 O359 2.353 . S
Tb354 O362 2.427 . S
Tb354 O363 2.513 . S
Tb354 O364 2.453 1_545 S
Tb354 O365 2.596 1_545 S
Tb354 O366 2.374 . S
O355 Tb352 2.453 . S
O355 C371 1.245 . S
O356 Tb352 2.596 . S
O356 Tb354 2.343 . S
O356 C371 1.259 . S
O357 Tb352 2.374 . S
O357 C353 1.251 . S
C358 O362 1.275 . S
C358 O363 1.246 . S
O359 C353 1.263 . S
O359 Tb354 2.353 . S
C360 O364 1.245 . S
C360 O365 1.259 . S
C361 O366 1.250 . S
C361 O367 1.263 . S
O362 Tb354 2.427 . S
O362 C358 1.275 . S
O363 Tb354 2.513 . S
O363 C358 1.246 . S
O364 Tb354 2.453 1_565 S
O364 C360 1.245 . S
O365 Tb352 2.343 1_565 S
O365 Tb354 2.596 1_565 S
O365 C360 1.259 . S
O366 Tb354 2.374 . S
O366 C361 1.250 . S
O367 Tb352 2.353 . S
O367 C361 1.263 . S
C368 O369 1.275 1_565 S
C368 O370 1.246 . S
O369 Tb352 2.427 . S
O369 C368 1.275 1_545 S
O370 Tb352 2.513 1_565 S
O370 C368 1.246 . S
C371 O355 1.245 . S
C371 O356 1.259 . S
Tb372 O375 2.453 . S
Tb372 O376 2.596 . S
Tb372 O377 2.374 . S
Tb372 O385 2.343 . S
Tb372 O387 2.353 . S
Tb372 O389 2.427 . S
Tb372 O390 2.513 . S
C373 O377 1.251 . S
C373 O379 1.263 . S
Tb374 O376 2.343 . S
Tb374 O379 2.353 . S
Tb374 O382 2.427 . S
Tb374 O383 2.513 . S
Tb374 O384 2.453 . S
Tb374 O385 2.596 . S
Tb374 O386 2.374 . S
O375 Tb372 2.453 . S
O375 C391 1.245 . S
O376 Tb372 2.596 . S
O376 Tb374 2.343 . S
O376 C391 1.259 . S
O377 Tb372 2.374 . S
O377 C373 1.251 . S
C378 O382 1.275 . S
C378 O383 1.246 . S
O379 C373 1.263 . S
O379 Tb374 2.353 . S
C380 O384 1.245 . S
C380 O385 1.259 . S
C381 O386 1.250 . S
C381 O387 1.263 . S
O382 Tb374 2.427 . S
O382 C378 1.275 . S
O383 Tb374 2.513 . S
O383 C378 1.246 . S
O384 Tb374 2.453 . S
O384 C380 1.245 . S
O385 Tb372 2.343 . S
O385 Tb374 2.596 . S
O385 C380 1.259 . S
O386 Tb374 2.374 . S
O386 C381 1.250 . S
O387 Tb372 2.353 . S
O387 C381 1.263 . S
C388 O389 1.275 . S
C388 O390 1.246 . S
O389 Tb372 2.427 . S
O389 C388 1.275 . S
O390 Tb372 2.513 . S
O390 C388 1.246 . S
C391 O375 1.245 . S
C391 O376 1.259 . S
Tb392 O395 2.453 . S
Tb392 O396 2.596 . S
Tb392 O397 2.374 1_455 S
Tb392 O405 2.343 1_565 S
Tb392 O407 2.353 1_565 S
Tb392 O409 2.427 1_565 S
Tb392 O410 2.513 1_465 S
C393 O397 1.249 1_545 S
C393 O399 1.266 . S
Tb394 O396 2.343 1_545 S
Tb394 O399 2.353 1_455 S
Tb394 O402 2.427 . S
Tb394 O403 2.513 . S
Tb394 O404 2.453 . S
Tb394 O405 2.596 . S
Tb394 O406 2.374 . S
O395 Tb392 2.453 . S
O395 C411 1.245 . S
O396 Tb392 2.596 . S
O396 Tb394 2.343 1_565 S
O396 C411 1.259 . S
O397 Tb392 2.374 1_655 S
O397 C393 1.249 1_565 S
C398 O402 1.275 . S
C398 O403 1.246 . S
O399 C393 1.266 . S
O399 Tb394 2.353 1_655 S
C400 O404 1.245 . S
C400 O405 1.259 . S
C401 O406 1.250 . S
C401 O407 1.263 . S
O402 Tb394 2.427 . S
O402 C398 1.275 . S
O403 Tb394 2.513 . S
O403 C398 1.246 . S
O404 Tb394 2.453 . S
O404 C400 1.245 . S
O405 Tb392 2.343 1_545 S
O405 Tb394 2.596 . S
O405 C400 1.259 . S
O406 Tb394 2.374 . S
O406 C401 1.250 . S
O407 Tb392 2.353 1_545 S
O407 C401 1.263 . S
C408 O409 1.275 . S
C408 O410 1.246 1_455 S
O409 Tb392 2.427 1_545 S
O409 C408 1.275 . S
O410 Tb392 2.513 1_645 S
O410 C408 1.246 1_655 S
C411 O395 1.245 . S
C411 O396 1.259 . S
Tb412 O415 2.453 . S
Tb412 O416 2.596 . S
Tb412 O417 2.374 . S
Tb412 O425 2.343 . S
Tb412 O427 2.353 . S
Tb412 O429 2.427 . S
Tb412 O430 2.513 . S
C413 O417 1.251 . S
C413 O419 1.263 . S
Tb414 O416 2.343 . S
Tb414 O419 2.353 . S
Tb414 O422 2.427 . S
Tb414 O423 2.513 . S
Tb414 O424 2.453 . S
Tb414 O425 2.596 . S
Tb414 O426 2.374 . S
O415 Tb412 2.453 . S
O415 C431 1.245 . S
O416 Tb412 2.596 . S
O416 Tb414 2.343 . S
O416 C431 1.259 . S
O417 Tb412 2.374 . S
O417 C413 1.251 . S
C418 O422 1.275 . S
C418 O423 1.246 . S
O419 C413 1.263 . S
O419 Tb414 2.353 . S
C420 O424 1.245 . S
C420 O425 1.259 . S
C421 O426 1.250 . S
C421 O427 1.263 . S
O422 Tb414 2.427 . S
O422 C418 1.275 . S
O423 Tb414 2.513 . S
O423 C418 1.246 . S
O424 Tb414 2.453 . S
O424 C420 1.245 . S
O425 Tb412 2.343 . S
O425 Tb414 2.596 . S
O425 C420 1.259 . S
O426 Tb414 2.374 . S
O426 C421 1.250 . S
O427 Tb412 2.353 . S
O427 C421 1.263 . S
C428 O429 1.275 . S
C428 O430 1.246 . S
O429 Tb412 2.427 . S
O429 C428 1.275 . S
O430 Tb412 2.513 . S
O430 C428 1.246 . S
C431 O415 1.245 . S
C431 O416 1.259 . S
Tb432 O435 2.453 . S
Tb432 O436 2.596 . S
Tb432 O437 2.374 1_545 S
Tb432 O445 2.343 1_556 S
Tb432 O447 2.353 1_556 S
Tb432 O449 2.427 1_556 S
Tb432 O450 2.513 1_546 S
C433 O437 1.251 . S
C433 O439 1.263 1_556 S
Tb434 O436 2.343 1_554 S
Tb434 O439 2.353 1_545 S
Tb434 O442 2.427 . S
Tb434 O443 2.513 . S
Tb434 O444 2.453 . S
Tb434 O445 2.596 . S
Tb434 O446 2.374 . S
O435 Tb432 2.453 . S
O435 C451 1.245 . S
O436 Tb432 2.596 . S
O436 Tb434 2.343 1_556 S
O436 C451 1.259 . S
O437 Tb432 2.374 1_565 S
O437 C433 1.251 . S
C438 O442 1.275 . S
C438 O443 1.246 . S
O439 C433 1.263 1_554 S
O439 Tb434 2.353 1_565 S
C440 O444 1.245 . S
C440 O445 1.259 . S
C441 O446 1.250 . S
C441 O447 1.263 . S
O442 Tb434 2.427 . S
O442 C438 1.275 . S
O443 Tb434 2.513 . S
O443 C438 1.246 . S
O444 Tb434 2.453 . S
O444 C440 1.245 . S
O445 Tb432 2.343 1_554 S
O445 Tb434 2.596 . S
O445 C440 1.259 . S
O446 Tb434 2.374 . S
O446 C441 1.250 . S
O447 Tb432 2.353 1_554 S
O447 C441 1.263 . S
C448 O449 1.275 . S
C448 O450 1.246 1_545 S
O449 Tb432 2.427 1_554 S
O449 C448 1.275 . S
O450 Tb432 2.513 1_564 S
O450 C448 1.246 1_565 S
C451 O435 1.245 . S
C451 O436 1.259 . S
Tb452 O455 2.453 . S
Tb452 O456 2.596 . S
Tb452 O457 2.374 . S
Tb452 O465 2.343 . S
Tb452 O467 2.353 . S
Tb452 O469 2.427 . S
Tb452 O470 2.513 . S
C453 O457 1.251 . S
C453 O459 1.263 . S
Tb454 O456 2.343 . S
Tb454 O459 2.353 . S
Tb454 O462 2.427 . S
Tb454 O463 2.513 . S
Tb454 O464 2.453 . S
Tb454 O465 2.596 . S
Tb454 O466 2.374 . S
O455 Tb452 2.453 . S
O455 C471 1.245 . S
O456 Tb452 2.596 . S
O456 Tb454 2.343 . S
O456 C471 1.259 . S
O457 Tb452 2.374 . S
O457 C453 1.251 . S
C458 O462 1.275 . S
C458 O463 1.246 . S
O459 C453 1.263 . S
O459 Tb454 2.353 . S
C460 O464 1.245 . S
C460 O465 1.259 . S
C461 O466 1.250 . S
C461 O467 1.263 . S
O462 Tb454 2.427 . S
O462 C458 1.275 . S
O463 Tb454 2.513 . S
O463 C458 1.246 . S
O464 Tb454 2.453 . S
O464 C460 1.245 . S
O465 Tb452 2.343 . S
O465 Tb454 2.596 . S
O465 C460 1.259 . S
O466 Tb454 2.374 . S
O466 C461 1.250 . S
O467 Tb452 2.353 . S
O467 C461 1.263 . S
C468 O469 1.275 . S
C468 O470 1.246 . S
O469 Tb452 2.427 . S
O469 C468 1.275 . S
O470 Tb452 2.513 . S
O470 C468 1.246 . S
C471 O455 1.245 . S
C471 O456 1.259 . S
Tb472 O475 2.456 . S
Tb472 O476 2.596 1_556 S
Tb472 O477 2.374 . S
Tb472 O485 2.343 . S
Tb472 O487 2.353 . S
Tb472 O489 2.427 . S
Tb472 O490 2.513 . S
C473 O477 1.251 1_554 S
C473 O479 1.263 . S
Tb474 O476 2.343 . S
Tb474 O479 2.353 . S
Tb474 O482 2.427 . S
Tb474 O483 2.513 . S
Tb474 O484 2.453 . S
Tb474 O485 2.596 1_554 S
Tb474 O486 2.374 . S
O475 Tb472 2.456 . S
O475 C491 1.239 1_556 S
O476 Tb472 2.596 1_554 S
O476 Tb474 2.343 . S
O476 C491 1.259 . S
O477 Tb472 2.374 . S
O477 C473 1.251 1_556 S
C478 O482 1.275 . S
C478 O483 1.246 . S
O479 C473 1.263 . S
O479 Tb474 2.353 . S
C480 O484 1.245 1_556 S
C480 O485 1.259 . S
C481 O486 1.250 . S
C481 O487 1.263 1_554 S
O482 Tb474 2.427 . S
O482 C478 1.275 . S
O483 Tb474 2.513 . S
O483 C478 1.246 . S
O484 Tb474 2.453 . S
O484 C480 1.245 1_554 S
O485 Tb472 2.343 . S
O485 Tb474 2.596 1_556 S
O485 C480 1.259 . S
O486 Tb474 2.374 . S
O486 C481 1.250 . S
O487 Tb472 2.353 . S
O487 C481 1.263 1_556 S
C488 O489 1.275 . S
C488 O490 1.246 . S
O489 Tb472 2.427 . S
O489 C488 1.275 . S
O490 Tb472 2.513 . S
O490 C488 1.246 . S
C491 O475 1.239 1_554 S
C491 O476 1.259 . S
Tb492 O495 2.453 . S
Tb492 O496 2.596 . S
Tb492 O497 2.374 . S
Tb492 O505 2.343 . S
Tb492 O507 2.353 . S
Tb492 O509 2.427 . S
Tb492 O510 2.513 . S
C493 O497 1.251 . S
C493 O499 1.263 . S
Tb494 O496 2.343 . S
Tb494 O499 2.353 . S
Tb494 O502 2.427 . S
Tb494 O503 2.513 . S
Tb494 O504 2.453 . S
Tb494 O505 2.596 . S
Tb494 O506 2.374 . S
O495 Tb492 2.453 . S
O495 C511 1.245 . S
O496 Tb492 2.596 . S
O496 Tb494 2.343 . S
O496 C511 1.259 . S
O497 Tb492 2.374 . S
O497 C493 1.251 . S
C498 O502 1.275 . S
C498 O503 1.246 . S
O499 C493 1.263 . S
O499 Tb494 2.353 . S
C500 O504 1.245 . S
C500 O505 1.259 . S
C501 O506 1.250 . S
C501 O507 1.263 . S
O502 Tb494 2.427 . S
O502 C498 1.275 . S
O503 Tb494 2.513 . S
O503 C498 1.246 . S
O504 Tb494 2.453 . S
O504 C500 1.245 . S
O505 Tb492 2.343 . S
O505 Tb494 2.596 . S
O505 C500 1.259 . S
O506 Tb494 2.374 . S
O506 C501 1.250 . S
O507 Tb492 2.353 . S
O507 C501 1.263 . S
C508 O509 1.275 . S
C508 O510 1.246 . S
O509 Tb492 2.427 . S
O509 C508 1.275 . S
O510 Tb492 2.513 . S
O510 C508 1.246 . S
C511 O495 1.245 . S
C511 O496 1.259 . S
Tb512 O515 2.453 . S
Tb512 O516 2.596 1_655 S
Tb512 O517 2.374 . S
Tb512 O525 2.343 . S
Tb512 O527 2.353 . S
Tb512 O529 2.427 . S
Tb512 O530 2.513 . S
C513 O517 1.251 1_455 S
C513 O519 1.263 . S
Tb514 O516 2.343 . S
Tb514 O519 2.353 . S
Tb514 O522 2.427 . S
Tb514 O523 2.513 . S
Tb514 O524 2.453 . S
Tb514 O525 2.596 1_455 S
Tb514 O526 2.374 . S
O515 Tb512 2.453 . S
O515 C531 1.245 1_655 S
O516 Tb512 2.596 1_455 S
O516 Tb514 2.343 . S
O516 C531 1.259 . S
O517 Tb512 2.374 . S
O517 C513 1.251 1_655 S
C518 O522 1.275 . S
C518 O523 1.246 . S
O519 C513 1.263 . S
O519 Tb514 2.353 . S
C520 O524 1.245 1_655 S
C520 O525 1.259 . S
C521 O526 1.214 1_655 S
C521 O527 1.284 . S
O522 Tb514 2.427 . S
O522 C518 1.275 . S
O523 Tb514 2.513 . S
O523 C518 1.246 . S
O524 Tb514 2.453 . S
O524 C520 1.245 1_455 S
O525 Tb512 2.343 . S
O525 Tb514 2.596 1_655 S
O525 C520 1.259 . S
O526 Tb514 2.374 . S
O526 C521 1.214 1_455 S
O527 Tb512 2.353 . S
O527 C521 1.284 . S
C528 O529 1.275 . S
C528 O530 1.246 . S
O529 Tb512 2.427 . S
O529 C528 1.275 . S
O530 Tb512 2.513 . S
O530 C528 1.246 . S
C531 O515 1.245 1_455 S
C531 O516 1.259 . S
Tb532 O535 2.453 . S
Tb532 O536 2.596 . S
Tb532 O537 2.374 . S
Tb532 O545 2.343 . S
Tb532 O547 2.353 . S
Tb532 O549 2.427 . S
Tb532 O550 2.513 . S
C533 O537 1.251 . S
C533 O539 1.263 . S
Tb534 O536 2.343 . S
Tb534 O539 2.353 . S
Tb534 O542 2.427 . S
Tb534 O543 2.513 . S
Tb534 O544 2.453 . S
Tb534 O545 2.596 . S
Tb534 O546 2.374 . S
O535 Tb532 2.453 . S
O535 C551 1.245 . S
O536 Tb532 2.596 . S
O536 Tb534 2.343 . S
O536 C551 1.259 . S
O537 Tb532 2.374 . S
O537 C533 1.251 . S
C538 O542 1.275 . S
C538 O543 1.246 . S
O539 C533 1.263 . S
O539 Tb534 2.353 . S
C540 O544 1.245 . S
C540 O545 1.259 . S
C541 O546 1.250 . S
C541 O547 1.263 . S
O542 Tb534 2.427 . S
O542 C538 1.275 . S
O543 Tb534 2.513 . S
O543 C538 1.246 . S
O544 Tb534 2.453 . S
O544 C540 1.245 . S
O545 Tb532 2.343 . S
O545 Tb534 2.596 . S
O545 C540 1.259 . S
O546 Tb534 2.374 . S
O546 C541 1.250 . S
O547 Tb532 2.353 . S
O547 C541 1.263 . S
C548 O549 1.275 . S
C548 O550 1.246 . S
O549 Tb532 2.427 . S
O549 C548 1.275 . S
O550 Tb532 2.513 . S
O550 C548 1.246 . S
C551 O535 1.245 . S
C551 O536 1.259 . S
Tb552 O555 2.453 . S
Tb552 O556 2.596 . S
Tb552 O557 2.374 . S
Tb552 O565 2.343 . S
Tb552 O567 2.353 . S
Tb552 O569 2.427 . S
Tb552 O570 2.513 . S
C553 O557 1.251 . S
C553 O559 1.263 . S
Tb554 O556 2.343 . S
Tb554 O559 2.353 . S
Tb554 O562 2.427 . S
Tb554 O563 2.513 . S
Tb554 O564 2.453 . S
Tb554 O565 2.596 . S
Tb554 O566 2.374 . S
O555 Tb552 2.453 . S
O555 C571 1.245 . S
O556 Tb552 2.596 . S
O556 Tb554 2.343 . S
O556 C571 1.259 . S
O557 Tb552 2.374 . S
O557 C553 1.251 . S
C558 O562 1.275 . S
C558 O563 1.246 . S
O559 C553 1.263 . S
O559 Tb554 2.353 . S
C560 O564 1.245 . S
C560 O565 1.259 . S
C561 O566 1.250 . S
C561 O567 1.263 . S
O562 Tb554 2.427 . S
O562 C558 1.275 . S
O563 Tb554 2.513 . S
O563 C558 1.246 . S
O564 Tb554 2.453 . S
O564 C560 1.245 . S
O565 Tb552 2.343 . S
O565 Tb554 2.596 . S
O565 C560 1.259 . S
O566 Tb554 2.374 . S
O566 C561 1.250 . S
O567 Tb552 2.353 . S
O567 C561 1.263 . S
C568 O569 1.275 . S
C568 O570 1.246 . S
O569 Tb552 2.427 . S
O569 C568 1.275 . S
O570 Tb552 2.513 . S
O570 C568 1.246 . S
C571 O555 1.245 . S
C571 O556 1.259 . S
Tb572 O575 2.453 . S
Tb572 O576 2.596 . S
Tb572 O577 2.374 . S
Tb572 O585 2.343 . S
Tb572 O587 2.353 . S
Tb572 O589 2.427 . S
Tb572 O590 2.513 . S
C573 O577 1.251 . S
C573 O579 1.263 . S
Tb574 O576 2.343 . S
Tb574 O579 2.353 . S
Tb574 O582 2.427 . S
Tb574 O583 2.513 . S
Tb574 O584 2.453 . S
Tb574 O585 2.596 . S
Tb574 O586 2.374 . S
O575 Tb572 2.453 . S
O575 C591 1.245 . S
O576 Tb572 2.596 . S
O576 Tb574 2.343 . S
O576 C591 1.259 . S
O577 Tb572 2.374 . S
O577 C573 1.251 . S
C578 O582 1.275 . S
C578 O583 1.246 . S
O579 C573 1.263 . S
O579 Tb574 2.353 . S
C580 O584 1.245 . S
C580 O585 1.259 . S
C581 O586 1.250 . S
C581 O587 1.263 . S
O582 Tb574 2.427 . S
O582 C578 1.275 . S
O583 Tb574 2.513 . S
O583 C578 1.246 . S
O584 Tb574 2.453 . S
O584 C580 1.245 . S
O585 Tb572 2.343 . S
O585 Tb574 2.596 . S
O585 C580 1.259 . S
O586 Tb574 2.374 . S
O586 C581 1.250 . S
O587 Tb572 2.353 . S
O587 C581 1.263 . S
C588 O589 1.275 . S
C588 O590 1.246 . S
O589 Tb572 2.427 . S
O589 C588 1.275 . S
O590 Tb572 2.513 . S
O590 C588 1.246 . S
C591 O575 1.245 . S
C591 O576 1.259 . S
Tb592 O595 2.453 . S
Tb592 O596 2.596 . S
Tb592 O597 2.374 . S
Tb592 O605 2.343 . S
Tb592 O607 2.353 . S
Tb592 O609 2.427 . S
Tb592 O610 2.513 . S
C593 O597 1.251 . S
C593 O599 1.263 . S
Tb594 O596 2.343 . S
Tb594 O599 2.353 . S
Tb594 O602 2.427 . S
Tb594 O603 2.513 . S
Tb594 O604 2.453 . S
Tb594 O605 2.596 . S
Tb594 O606 2.374 . S
O595 Tb592 2.453 . S
O595 C611 1.245 . S
O596 Tb592 2.596 . S
O596 Tb594 2.343 . S
O596 C611 1.259 . S
O597 Tb592 2.374 . S
O597 C593 1.251 . S
C598 O602 1.275 . S
C598 O603 1.246 . S
O599 C593 1.263 . S
O599 Tb594 2.353 . S
C600 O604 1.245 . S
C600 O605 1.259 . S
C601 O606 1.250 . S
C601 O607 1.263 . S
O602 Tb594 2.427 . S
O602 C598 1.275 . S
O603 Tb594 2.513 . S
O603 C598 1.246 . S
O604 Tb594 2.453 . S
O604 C600 1.245 . S
O605 Tb592 2.343 . S
O605 Tb594 2.596 . S
O605 C600 1.259 . S
O606 Tb594 2.374 . S
O606 C601 1.250 . S
O607 Tb592 2.353 . S
O607 C601 1.263 . S
C608 O609 1.275 . S
C608 O610 1.246 . S
O609 Tb592 2.427 . S
O609 C608 1.275 . S
O610 Tb592 2.513 . S
O610 C608 1.246 . S
C611 O595 1.245 . S
C611 O596 1.259 . S
Tb612 O615 2.453 . S
Tb612 O616 2.596 1_455 S
Tb612 O617 2.374 . S
Tb612 O625 2.343 . S
Tb612 O627 2.353 1_554 S
Tb612 O629 2.427 1_554 S
Tb612 O630 2.513 . S
C613 O617 1.251 . S
C613 O619 1.263 1_455 S
Tb614 O616 2.343 . S
Tb614 O619 2.353 . S
Tb614 O622 2.427 . S
Tb614 O623 2.513 . S
Tb614 O624 2.453 . S
Tb614 O625 2.596 1_655 S
Tb614 O626 2.374 1_554 S
O615 Tb612 2.453 . S
O615 C631 1.245 . S
O616 Tb612 2.596 1_655 S
O616 Tb614 2.343 . S
O616 C631 1.259 1_655 S
O617 Tb612 2.374 . S
O617 C613 1.251 . S
C618 O622 1.275 . S
C618 O623 1.246 . S
O619 C613 1.263 1_655 S
O619 Tb614 2.353 . S
C620 O624 1.245 . S
C620 O625 1.259 1_655 S
C621 O626 1.250 . S
C621 O627 1.263 1_655 S
O622 Tb614 2.427 . S
O622 C618 1.275 . S
O623 Tb614 2.513 . S
O623 C618 1.246 . S
O624 Tb614 2.453 . S
O624 C620 1.245 . S
O625 Tb612 2.343 . S
O625 Tb614 2.596 1_455 S
O625 C620 1.259 1_455 S
O626 Tb614 2.374 1_556 S
O626 C621 1.250 . S
O627 Tb612 2.353 1_556 S
O627 C621 1.263 1_455 S
C628 O629 1.275 1_554 S
C628 O630 1.246 . S
O629 Tb612 2.427 1_556 S
O629 C628 1.275 1_556 S
O630 Tb612 2.513 . S
O630 C628 1.246 . S
C631 O615 1.245 . S
C631 O616 1.259 1_455 S
H632 C644 0.930 . S
H633 C646 0.930 . S
H634 C647 0.930 . S
H635 C651 0.949 1_556 S
H636 C651 0.999 . S
H637 C651 0.951 1_556 S
H638 C652 0.960 . S
H639 C652 0.961 1_554 S
H640 C652 0.959 . S
H641 C655 0.929 . S
H642 C656 0.931 . S
H643 C658 0.930 . S
C644 H632 0.930 . S
C644 C645 1.399 . S
C644 C649 1.399 . S
C645 C644 1.399 . S
C645 C646 1.376 . S
C646 H633 0.930 . S
C646 C645 1.376 . S
C646 C647 1.388 . S
C647 H634 0.930 . S
C647 C646 1.388 . S
C647 C648 1.390 . S
C648 C647 1.390 . S
C648 C649 1.394 . S
C648 C654 1.465 . S
C649 C644 1.399 . S
C649 C648 1.394 . S
C649 C650 1.516 . S
C650 C649 1.516 . S
C650 C651 1.483 1_556 S
C650 C652 1.561 1_455 S
C650 C653 1.526 . S
C651 H635 0.949 1_554 S
C651 H636 0.999 . S
C651 H637 0.951 1_554 S
C651 C650 1.483 1_554 S
C652 H638 0.960 . S
C652 H639 0.961 1_556 S
C652 H640 0.959 . S
C652 C650 1.561 1_655 S
C653 C650 1.526 . S
C653 C654 1.396 . S
C653 C658 1.390 1_556 S
C654 C648 1.465 . S
C654 C653 1.396 . S
C654 C655 1.399 . S
C655 H641 0.929 . S
C655 C654 1.399 . S
C655 C656 1.385 . S
C656 H642 0.931 . S
C656 C655 1.385 . S
C656 C657 1.389 1_556 S
C657 C656 1.389 1_554 S
C657 C658 1.387 . S
C658 H643 0.930 . S
C658 C653 1.390 1_554 S
C658 C657 1.387 . S
H659 C671 0.930 . S
H660 C673 0.930 . S
H661 C674 0.930 . S
H662 C678 0.959 . S
H663 C678 0.959 . S
H664 C678 0.961 . S
H665 C679 0.960 . S
H666 C679 0.961 . S
H667 C679 0.959 . S
H668 C682 0.929 . S
H669 C683 0.931 . S
H670 C685 0.930 . S
C671 H659 0.930 . S
C671 C672 1.399 . S
C671 C676 1.399 . S
C672 C671 1.399 . S
C672 C673 1.376 . S
C673 H660 0.930 . S
C673 C672 1.376 . S
C673 C674 1.388 . S
C674 H661 0.930 . S
C674 C673 1.388 . S
C674 C675 1.390 . S
C675 C674 1.390 . S
C675 C676 1.394 . S
C675 C681 1.465 . S
C676 C671 1.399 . S
C676 C675 1.394 . S
C676 C677 1.516 . S
C677 C676 1.516 . S
C677 C678 1.502 . S
C677 C679 1.561 . S
C677 C680 1.526 . S
C678 H662 0.959 . S
C678 H663 0.959 . S
C678 H664 0.961 . S
C678 C677 1.502 . S
C679 H665 0.960 . S
C679 H666 0.961 . S
C679 H667 0.959 . S
C679 C677 1.561 . S
C680 C677 1.526 . S
C680 C681 1.396 . S
C680 C685 1.390 . S
C681 C675 1.465 . S
C681 C680 1.396 . S
C681 C682 1.399 . S
C682 H668 0.929 . S
C682 C681 1.399 . S
C682 C683 1.385 . S
C683 H669 0.931 . S
C683 C682 1.385 . S
C683 C684 1.389 . S
C684 C683 1.389 . S
C684 C685 1.387 . S
C685 H670 0.930 . S
C685 C680 1.390 . S
C685 C684 1.387 . S
H686 C698 0.930 . S
H687 C700 0.930 . S
H688 C701 0.930 . S
H689 C705 0.959 . S
H690 C705 0.959 . S
H691 C705 0.961 . S
H692 C706 0.960 . S
H693 C706 0.961 . S
H694 C706 0.959 . S
H695 C709 0.929 . S
H696 C710 0.931 . S
H697 C712 0.930 . S
C698 H686 0.930 . S
C698 C699 1.399 . S
C698 C703 1.399 . S
C699 C698 1.399 . S
C699 C700 1.376 . S
C700 H687 0.930 . S
C700 C699 1.376 . S
C700 C701 1.388 . S
C701 H688 0.930 . S
C701 C700 1.388 . S
C701 C702 1.390 . S
C702 C701 1.390 . S
C702 C703 1.394 . S
C702 C708 1.465 . S
C703 C698 1.399 . S
C703 C702 1.394 . S
C703 C704 1.516 . S
C704 C703 1.516 . S
C704 C705 1.502 . S
C704 C706 1.561 . S
C704 C707 1.526 . S
C705 H689 0.959 . S
C705 H690 0.959 . S
C705 H691 0.961 . S
C705 C704 1.502 . S
C706 H692 0.960 . S
C706 H693 0.961 . S
C706 H694 0.959 . S
C706 C704 1.561 . S
C707 C704 1.526 . S
C707 C708 1.396 . S
C707 C712 1.390 . S
C708 C702 1.465 . S
C708 C707 1.396 . S
C708 C709 1.399 . S
C709 H695 0.929 . S
C709 C708 1.399 . S
C709 C710 1.385 . S
C710 H696 0.931 . S
C710 C709 1.385 . S
C710 C711 1.389 . S
C711 C710 1.389 . S
C711 C712 1.387 . S
C712 H697 0.930 . S
C712 C707 1.390 . S
C712 C711 1.387 . S
H713 C725 0.930 . S
H714 C727 0.930 . S
H715 C728 0.930 . S
H716 C732 0.959 . S
H717 C732 0.959 . S
H718 C732 0.961 . S
H719 C733 0.960 . S
H720 C733 0.961 . S
H721 C733 0.959 . S
H722 C736 0.929 . S
H723 C737 0.931 . S
H724 C739 0.930 . S
C725 H713 0.930 . S
C725 C726 1.399 . S
C725 C730 1.399 . S
C726 C725 1.399 . S
C726 C727 1.376 . S
C727 H714 0.930 . S
C727 C726 1.376 . S
C727 C728 1.388 . S
C728 H715 0.930 . S
C728 C727 1.388 . S
C728 C729 1.390 . S
C729 C728 1.390 . S
C729 C730 1.394 . S
C729 C735 1.465 . S
C730 C725 1.399 . S
C730 C729 1.394 . S
C730 C731 1.516 . S
C731 C730 1.516 . S
C731 C732 1.502 . S
C731 C733 1.561 . S
C731 C734 1.526 . S
C732 H716 0.959 . S
C732 H717 0.959 . S
C732 H718 0.961 . S
C732 C731 1.502 . S
C733 H719 0.960 . S
C733 H720 0.961 . S
C733 H721 0.959 . S
C733 C731 1.561 . S
C734 C731 1.526 . S
C734 C735 1.396 . S
C734 C739 1.390 . S
C735 C729 1.465 . S
C735 C734 1.396 . S
C735 C736 1.399 . S
C736 H722 0.929 . S
C736 C735 1.399 . S
C736 C737 1.385 . S
C737 H723 0.931 . S
C737 C736 1.385 . S
C737 C738 1.389 . S
C738 C737 1.389 . S
C738 C739 1.387 . S
C739 H724 0.930 . S
C739 C734 1.390 . S
C739 C738 1.387 . S
H740 C752 0.930 . S
H741 C754 0.930 . S
H742 C755 0.930 . S
H743 C759 0.959 . S
H744 C759 0.959 . S
H745 C759 0.961 . S
H746 C760 0.960 . S
H747 C760 0.961 . S
H748 C760 0.959 . S
H749 C763 0.929 . S
H750 C764 0.931 . S
H751 C766 0.930 . S
C752 H740 0.930 . S
C752 C753 1.399 . S
C752 C757 1.399 . S
C753 C752 1.399 . S
C753 C754 1.376 . S
C754 H741 0.930 . S
C754 C753 1.376 . S
C754 C755 1.388 . S
C755 H742 0.930 . S
C755 C754 1.388 . S
C755 C756 1.390 . S
C756 C755 1.390 . S
C756 C757 1.394 . S
C756 C762 1.465 . S
C757 C752 1.399 . S
C757 C756 1.394 . S
C757 C758 1.516 . S
C758 C757 1.516 . S
C758 C759 1.502 . S
C758 C760 1.561 1_455 S
C758 C761 1.526 . S
C759 H743 0.959 . S
C759 H744 0.959 . S
C759 H745 0.961 . S
C759 C758 1.502 . S
C760 H746 0.960 . S
C760 H747 0.961 . S
C760 H748 0.959 . S
C760 C758 1.561 1_655 S
C761 C758 1.526 . S
C761 C762 1.396 . S
C761 C766 1.390 . S
C762 C756 1.465 . S
C762 C761 1.396 . S
C762 C763 1.399 . S
C763 H749 0.929 . S
C763 C762 1.399 . S
C763 C764 1.385 . S
C764 H750 0.931 . S
C764 C763 1.385 . S
C764 C765 1.389 . S
C765 C764 1.389 . S
C765 C766 1.387 . S
C766 H751 0.930 . S
C766 C761 1.390 . S
C766 C765 1.387 . S
H767 C779 0.930 . S
H768 C781 0.930 . S
H769 C782 0.930 . S
H770 C786 0.959 . S
H771 C786 0.959 . S
H772 C786 0.961 . S
H773 C787 0.960 . S
H774 C787 0.961 . S
H775 C787 0.959 . S
H776 C790 0.929 . S
H777 C791 0.931 . S
H778 C793 0.930 . S
C779 H767 0.930 . S
C779 C780 1.399 . S
C779 C784 1.399 . S
C780 C779 1.399 . S
C780 C781 1.376 . S
C781 H768 0.930 . S
C781 C780 1.376 . S
C781 C782 1.388 . S
C782 H769 0.930 . S
C782 C781 1.388 . S
C782 C783 1.390 . S
C783 C782 1.390 . S
C783 C784 1.394 . S
C783 C789 1.465 . S
C784 C779 1.399 . S
C784 C783 1.394 . S
C784 C785 1.516 . S
C785 C784 1.516 . S
C785 C786 1.502 . S
C785 C787 1.561 . S
C785 C788 1.526 . S
C786 H770 0.959 . S
C786 H771 0.959 . S
C786 H772 0.961 . S
C786 C785 1.502 . S
C787 H773 0.960 . S
C787 H774 0.961 . S
C787 H775 0.959 . S
C787 C785 1.561 . S
C788 C785 1.526 . S
C788 C789 1.396 . S
C788 C793 1.390 . S
C789 C783 1.465 . S
C789 C788 1.396 . S
C789 C790 1.399 . S
C790 H776 0.929 . S
C790 C789 1.399 . S
C790 C791 1.385 . S
C791 H777 0.931 . S
C791 C790 1.385 . S
C791 C792 1.389 . S
C792 C791 1.389 . S
C792 C793 1.387 . S
C793 H778 0.930 . S
C793 C788 1.390 . S
C793 C792 1.387 . S
H794 C806 0.930 . S
H795 C808 0.930 . S
H796 C809 0.930 . S
H797 C813 0.959 . S
H798 C813 0.959 . S
H799 C813 0.961 . S
H800 C814 0.960 . S
H801 C814 0.961 . S
H802 C814 0.959 . S
H803 C817 0.929 . S
H804 C818 0.931 . S
H805 C820 0.930 . S
C806 H794 0.930 . S
C806 C807 1.399 . S
C806 C811 1.399 . S
C807 C806 1.399 . S
C807 C808 1.376 . S
C808 H795 0.930 . S
C808 C807 1.376 . S
C808 C809 1.388 . S
C809 H796 0.930 . S
C809 C808 1.388 . S
C809 C810 1.390 . S
C810 C809 1.390 . S
C810 C811 1.394 . S
C810 C816 1.465 . S
C811 C806 1.399 . S
C811 C810 1.394 . S
C811 C812 1.516 . S
C812 C811 1.516 . S
C812 C813 1.502 . S
C812 C814 1.561 . S
C812 C815 1.526 . S
C813 H797 0.959 . S
C813 H798 0.959 . S
C813 H799 0.961 . S
C813 C812 1.502 . S
C814 H800 0.960 . S
C814 H801 0.961 . S
C814 H802 0.959 . S
C814 C812 1.561 . S
C815 C812 1.526 . S
C815 C816 1.396 . S
C815 C820 1.390 . S
C816 C810 1.465 . S
C816 C815 1.396 . S
C816 C817 1.399 . S
C817 H803 0.929 . S
C817 C816 1.399 . S
C817 C818 1.385 . S
C818 H804 0.931 . S
C818 C817 1.385 . S
C818 C819 1.389 . S
C819 C818 1.389 . S
C819 C820 1.387 . S
C820 H805 0.930 . S
C820 C815 1.390 . S
C820 C819 1.387 . S
H821 C833 0.930 . S
H822 C835 0.930 . S
H823 C836 0.930 . S
H824 C840 0.959 . S
H825 C840 0.959 . S
H826 C840 0.961 . S
H827 C841 0.960 . S
H828 C841 0.961 . S
H829 C841 0.959 . S
H830 C844 0.929 . S
H831 C845 0.931 . S
H832 C847 0.930 . S
C833 H821 0.930 . S
C833 C834 1.399 . S
C833 C838 1.399 . S
C834 C833 1.399 . S
C834 C835 1.376 . S
C835 H822 0.930 . S
C835 C834 1.376 . S
C835 C836 1.388 . S
C836 H823 0.930 . S
C836 C835 1.388 . S
C836 C837 1.390 . S
C837 C836 1.390 . S
C837 C838 1.394 . S
C837 C843 1.465 . S
C838 C833 1.399 . S
C838 C837 1.394 . S
C838 C839 1.516 . S
C839 C838 1.516 . S
C839 C840 1.502 . S
C839 C841 1.561 . S
C839 C842 1.526 . S
C840 H824 0.959 . S
C840 H825 0.959 . S
C840 H826 0.961 . S
C840 C839 1.502 . S
C841 H827 0.960 . S
C841 H828 0.961 . S
C841 H829 0.959 . S
C841 C839 1.561 . S
C842 C839 1.526 . S
C842 C843 1.396 . S
C842 C847 1.390 . S
C843 C837 1.465 . S
C843 C842 1.396 . S
C843 C844 1.399 . S
C844 H830 0.929 . S
C844 C843 1.399 . S
C844 C845 1.385 . S
C845 H831 0.931 . S
C845 C844 1.385 . S
C845 C846 1.389 . S
C846 C845 1.389 . S
C846 C847 1.387 . S
C847 H832 0.930 . S
C847 C842 1.390 . S
C847 C846 1.387 . S
H848 C860 0.930 . S
H849 C862 0.930 . S
H850 C863 0.930 . S
H851 C867 0.959 . S
H852 C867 0.959 . S
H853 C867 0.961 . S
H854 C868 0.960 . S
H855 C868 0.961 . S
H856 C868 0.959 . S
H857 C871 0.929 . S
H858 C872 0.931 . S
H859 C874 0.930 . S
C860 H848 0.930 . S
C860 C861 1.399 . S
C860 C865 1.399 . S
C861 C860 1.399 . S
C861 C862 1.376 . S
C862 H849 0.930 . S
C862 C861 1.376 . S
C862 C863 1.388 . S
C863 H850 0.930 . S
C863 C862 1.388 . S
C863 C864 1.390 . S
C864 C863 1.390 . S
C864 C865 1.394 . S
C864 C870 1.465 . S
C865 C860 1.399 . S
C865 C864 1.394 . S
C865 C866 1.516 . S
C866 C865 1.516 . S
C866 C867 1.502 . S
C866 C868 1.561 . S
C866 C869 1.526 . S
C867 H851 0.959 . S
C867 H852 0.959 . S
C867 H853 0.961 . S
C867 C866 1.502 . S
C868 H854 0.960 . S
C868 H855 0.961 . S
C868 H856 0.959 . S
C868 C866 1.561 . S
C869 C866 1.526 . S
C869 C870 1.396 . S
C869 C874 1.390 . S
C870 C864 1.465 . S
C870 C869 1.396 . S
C870 C871 1.399 . S
C871 H857 0.929 . S
C871 C870 1.399 . S
C871 C872 1.385 1_655 S
C872 H858 0.931 . S
C872 C871 1.385 1_455 S
C872 C873 1.389 . S
C873 C872 1.389 . S
C873 C874 1.387 1_455 S
C874 H859 0.930 . S
C874 C869 1.390 . S
C874 C873 1.387 1_655 S
H875 C887 0.930 . S
H876 C889 0.930 . S
H877 C890 0.930 . S
H878 C894 0.959 . S
H879 C894 0.959 . S
H880 C894 0.961 . S
H881 C895 0.960 . S
H882 C895 0.961 . S
H883 C895 0.959 . S
H884 C898 0.929 . S
H885 C899 0.931 . S
H886 C901 0.930 . S
C887 H875 0.930 . S
C887 C888 1.399 . S
C887 C892 1.399 . S
C888 C887 1.399 . S
C888 C889 1.376 . S
C889 H876 0.930 . S
C889 C888 1.376 . S
C889 C890 1.388 . S
C890 H877 0.930 . S
C890 C889 1.388 . S
C890 C891 1.390 . S
C891 C890 1.390 . S
C891 C892 1.394 . S
C891 C897 1.465 . S
C892 C887 1.399 . S
C892 C891 1.394 . S
C892 C893 1.516 . S
C893 C892 1.516 . S
C893 C894 1.502 . S
C893 C895 1.561 . S
C893 C896 1.526 . S
C894 H878 0.959 . S
C894 H879 0.959 . S
C894 H880 0.961 . S
C894 C893 1.502 . S
C895 H881 0.960 . S
C895 H882 0.961 . S
C895 H883 0.959 . S
C895 C893 1.561 . S
C896 C893 1.526 . S
C896 C897 1.396 . S
C896 C901 1.390 . S
C897 C891 1.465 . S
C897 C896 1.396 . S
C897 C898 1.399 . S
C898 H884 0.929 . S
C898 C897 1.399 . S
C898 C899 1.385 . S
C899 H885 0.931 . S
C899 C898 1.385 . S
C899 C900 1.389 . S
C900 C899 1.389 . S
C900 C901 1.387 . S
C901 H886 0.930 . S
C901 C896 1.390 . S
C901 C900 1.387 . S
H902 C914 0.930 . S
H903 C916 0.930 . S
H904 C917 0.930 . S
H905 C921 0.959 . S
H906 C921 0.959 . S
H907 C921 0.961 . S
H908 C922 0.960 . S
H909 C922 0.961 . S
H910 C922 0.959 . S
H911 C925 0.929 . S
H912 C926 0.931 . S
H913 C928 0.930 . S
C914 H902 0.930 . S
C914 C915 1.399 1_545 S
C914 C919 1.399 . S
C915 C914 1.399 1_565 S
C915 C916 1.376 . S
C916 H903 0.930 . S
C916 C915 1.376 . S
C916 C917 1.388 . S
C917 H904 0.930 . S
C917 C916 1.388 . S
C917 C918 1.390 . S
C918 C917 1.390 . S
C918 C919 1.394 1_565 S
C918 C924 1.465 . S
C919 C914 1.399 . S
C919 C918 1.394 1_545 S
C919 C920 1.516 . S
C920 C919 1.516 . S
C920 C921 1.502 . S
C920 C922 1.561 . S
C920 C923 1.526 . S
C921 H905 0.959 . S
C921 H906 0.959 . S
C921 H907 0.961 . S
C921 C920 1.502 . S
C922 H908 0.960 . S
C922 H909 0.961 . S
C922 H910 0.959 . S
C922 C920 1.561 . S
C923 C920 1.526 . S
C923 C924 1.396 1_545 S
C923 C928 1.390 . S
C924 C918 1.465 . S
C924 C923 1.396 1_565 S
C924 C925 1.399 . S
C925 H911 0.929 . S
C925 C924 1.399 . S
C925 C926 1.385 . S
C926 H912 0.931 . S
C926 C925 1.385 . S
C926 C927 1.389 1_565 S
C927 C926 1.389 1_545 S
C927 C928 1.387 . S
C928 H913 0.930 . S
C928 C923 1.390 . S
C928 C927 1.387 . S
H929 C941 0.930 . S
H930 C943 0.930 . S
H931 C944 0.930 . S
H932 C948 0.959 . S
H933 C948 0.959 . S
H934 C948 0.961 . S
H935 C949 0.960 . S
H936 C949 0.961 . S
H937 C949 0.959 . S
H938 C952 0.929 . S
H939 C953 0.931 . S
H940 C955 0.930 . S
C941 H929 0.930 . S
C941 C942 1.399 . S
C941 C946 1.399 . S
C942 C941 1.399 . S
C942 C943 1.376 . S
C943 H930 0.930 . S
C943 C942 1.376 . S
C943 C944 1.388 . S
C944 H931 0.930 . S
C944 C943 1.388 . S
C944 C945 1.390 . S
C945 C944 1.390 . S
C945 C946 1.394 . S
C945 C951 1.465 . S
C946 C941 1.399 . S
C946 C945 1.394 . S
C946 C947 1.516 . S
C947 C946 1.516 . S
C947 C948 1.502 . S
C947 C949 1.561 . S
C947 C950 1.526 . S
C948 H932 0.959 . S
C948 H933 0.959 . S
C948 H934 0.961 . S
C948 C947 1.502 . S
C949 H935 0.960 . S
C949 H936 0.961 . S
C949 H937 0.959 . S
C949 C947 1.561 . S
C950 C947 1.526 . S
C950 C951 1.396 . S
C950 C955 1.390 . S
C951 C945 1.465 . S
C951 C950 1.396 . S
C951 C952 1.399 . S
C952 H938 0.929 . S
C952 C951 1.399 . S
C952 C953 1.385 . S
C953 H939 0.931 . S
C953 C952 1.385 . S
C953 C954 1.389 . S
C954 C953 1.389 . S
C954 C955 1.387 . S
C955 H940 0.930 . S
C955 C950 1.390 . S
C955 C954 1.387 . S
H956 C968 0.930 . S
H957 C970 0.930 . S
H958 C971 0.930 . S
H959 C975 0.959 1_455 S
H960 C975 0.959 1_455 S
H961 C975 0.961 . S
H962 C976 0.960 . S
H963 C976 0.961 . S
H964 C976 0.959 . S
H965 C979 0.929 1_565 S
H966 C980 0.931 1_565 S
H967 C982 0.930 1_455 S
C968 H956 0.930 . S
C968 C969 1.399 . S
C968 C973 1.399 . S
C969 C968 1.399 . S
C969 C970 1.376 . S
C970 H957 0.930 . S
C970 C969 1.376 . S
C970 C971 1.388 . S
C971 H958 0.930 . S
C971 C970 1.388 . S
C971 C972 1.390 . S
C972 C971 1.390 . S
C972 C973 1.394 . S
C972 C978 1.465 . S
C973 C968 1.399 . S
C973 C972 1.394 . S
C973 C974 1.516 . S
C974 C973 1.516 . S
C974 C975 1.502 . S
C974 C976 1.561 . S
C974 C977 1.526 . S
C975 H959 0.959 1_655 S
C975 H960 0.959 1_655 S
C975 H961 0.961 . S
C975 C974 1.502 . S
C976 H962 0.960 . S
C976 H963 0.961 . S
C976 H964 0.959 . S
C976 C974 1.561 . S
C977 C974 1.526 . S
C977 C978 1.396 . S
C977 C982 1.390 . S
C978 C972 1.465 . S
C978 C977 1.396 . S
C978 C979 1.399 . S
C979 H965 0.929 1_545 S
C979 C978 1.399 . S
C979 C980 1.385 . S
C980 H966 0.931 1_545 S
C980 C979 1.385 . S
C980 C981 1.389 . S
C981 C980 1.389 . S
C981 C982 1.387 . S
C982 H967 0.930 1_655 S
C982 C977 1.390 . S
C982 C981 1.387 . S
H983 C995 0.930 . S
H984 C997 0.930 . S
H985 C998 0.930 . S
H986 C1002 0.959 . S
H987 C1002 0.959 . S
H988 C1002 0.961 . S
H989 C1003 0.960 . S
H990 C1003 0.961 . S
H991 C1003 0.959 . S
H992 C1006 0.929 . S
H993 C1007 0.931 . S
H994 C1009 0.930 . S
C995 H983 0.930 . S
C995 C996 1.399 . S
C995 C1000 1.399 . S
C996 C995 1.399 . S
C996 C997 1.376 . S
C997 H984 0.930 . S
C997 C996 1.376 . S
C997 C998 1.388 . S
C998 H985 0.930 . S
C998 C997 1.388 . S
C998 C999 1.390 . S
C999 C998 1.390 . S
C999 C1000 1.394 . S
C999 C1005 1.465 . S
C1000 C995 1.399 . S
C1000 C999 1.394 . S
C1000 C1001 1.516 . S
C1001 C1000 1.516 . S
C1001 C1002 1.502 . S
C1001 C1003 1.561 . S
C1001 C1004 1.526 . S
C1002 H986 0.959 . S
C1002 H987 0.959 . S
C1002 H988 0.961 . S
C1002 C1001 1.502 . S
C1003 H989 0.960 . S
C1003 H990 0.961 . S
C1003 H991 0.959 . S
C1003 C1001 1.561 . S
C1004 C1001 1.526 . S
C1004 C1005 1.396 . S
C1004 C1009 1.390 . S
C1005 C999 1.465 . S
C1005 C1004 1.396 . S
C1005 C1006 1.399 . S
C1006 H992 0.929 . S
C1006 C1005 1.399 . S
C1006 C1007 1.385 . S
C1007 H993 0.931 . S
C1007 C1006 1.385 . S
C1007 C1008 1.389 . S
C1008 C1007 1.389 . S
C1008 C1009 1.387 . S
C1009 H994 0.930 . S
C1009 C1004 1.390 . S
C1009 C1008 1.387 . S
H1010 C1022 0.930 . S
H1011 C1024 0.930 . S
H1012 C1025 0.930 . S
H1013 C1029 0.959 . S
H1014 C1029 0.959 . S
H1015 C1029 0.961 . S
H1016 C1030 0.960 . S
H1017 C1030 0.961 . S
H1018 C1030 0.959 . S
H1019 C1033 0.929 1_565 S
H1020 C1034 0.931 . S
H1021 C1036 0.930 . S
C1022 H1010 0.930 . S
C1022 C1023 1.399 . S
C1022 C1027 1.399 . S
C1023 C1022 1.399 . S
C1023 C1024 1.376 1_545 S
C1024 H1011 0.930 . S
C1024 C1023 1.376 1_565 S
C1024 C1025 1.388 . S
C1025 H1012 0.930 . S
C1025 C1024 1.388 . S
C1025 C1026 1.390 1_565 S
C1026 C1025 1.390 1_545 S
C1026 C1027 1.394 . S
C1026 C1032 1.465 . S
C1027 C1022 1.399 . S
C1027 C1026 1.394 . S
C1027 C1028 1.516 . S
C1028 C1027 1.516 . S
C1028 C1029 1.502 . S
C1028 C1030 1.561 . S
C1028 C1031 1.526 . S
C1029 H1013 0.959 . S
C1029 H1014 0.959 . S
C1029 H1015 0.961 . S
C1029 C1028 1.502 . S
C1030 H1016 0.960 . S
C1030 H1017 0.961 . S
C1030 H1018 0.959 . S
C1030 C1028 1.561 . S
C1031 C1028 1.526 . S
C1031 C1032 1.396 . S
C1031 C1036 1.390 . S
C1032 C1026 1.465 . S
C1032 C1031 1.396 . S
C1032 C1033 1.399 . S
C1033 H1019 0.929 1_545 S
C1033 C1032 1.399 . S
C1033 C1034 1.385 . S
C1034 H1020 0.931 . S
C1034 C1033 1.385 . S
C1034 C1035 1.389 . S
C1035 C1034 1.389 . S
C1035 C1036 1.387 . S
C1036 H1021 0.930 . S
C1036 C1031 1.390 . S
C1036 C1035 1.387 . S
H1037 C1049 0.930 . S
H1038 C1051 0.930 . S
H1039 C1052 0.930 . S
H1040 C1056 0.959 . S
H1041 C1056 0.959 . S
H1042 C1056 0.961 . S
H1043 C1057 0.960 . S
H1044 C1057 0.961 . S
H1045 C1057 0.959 . S
H1046 C1060 0.929 . S
H1047 C1061 0.931 . S
H1048 C1063 0.930 . S
C1049 H1037 0.930 . S
C1049 C1050 1.399 . S
C1049 C1054 1.399 . S
C1050 C1049 1.399 . S
C1050 C1051 1.376 . S
C1051 H1038 0.930 . S
C1051 C1050 1.376 . S
C1051 C1052 1.388 . S
C1052 H1039 0.930 . S
C1052 C1051 1.388 . S
C1052 C1053 1.390 . S
C1053 C1052 1.390 . S
C1053 C1054 1.394 . S
C1053 C1059 1.465 . S
C1054 C1049 1.399 . S
C1054 C1053 1.394 . S
C1054 C1055 1.516 . S
C1055 C1054 1.516 . S
C1055 C1056 1.502 . S
C1055 C1057 1.561 . S
C1055 C1058 1.526 . S
C1056 H1040 0.959 . S
C1056 H1041 0.959 . S
C1056 H1042 0.961 . S
C1056 C1055 1.502 . S
C1057 H1043 0.960 . S
C1057 H1044 0.961 . S
C1057 H1045 0.959 . S
C1057 C1055 1.561 . S
C1058 C1055 1.526 . S
C1058 C1059 1.396 . S
C1058 C1063 1.390 . S
C1059 C1053 1.465 . S
C1059 C1058 1.396 . S
C1059 C1060 1.399 . S
C1060 H1046 0.929 . S
C1060 C1059 1.399 . S
C1060 C1061 1.385 . S
C1061 H1047 0.931 . S
C1061 C1060 1.385 . S
C1061 C1062 1.389 . S
C1062 C1061 1.389 . S
C1062 C1063 1.387 . S
C1063 H1048 0.930 . S
C1063 C1058 1.390 . S
C1063 C1062 1.387 . S
H1064 C1076 0.930 . S
H1065 C1078 0.930 . S
H1066 C1079 0.930 . S
H1067 C1083 0.959 . S
H1068 C1083 0.959 . S
H1069 C1083 0.961 . S
H1070 C1084 0.960 . S
H1071 C1084 0.961 . S
H1072 C1084 0.959 . S
H1073 C1087 0.929 . S
H1074 C1088 0.931 . S
H1075 C1090 0.930 . S
C1076 H1064 0.930 . S
C1076 C1077 1.399 . S
C1076 C1081 1.399 . S
C1077 C1076 1.399 . S
C1077 C1078 1.376 . S
C1078 H1065 0.930 . S
C1078 C1077 1.376 . S
C1078 C1079 1.388 . S
C1079 H1066 0.930 . S
C1079 C1078 1.388 . S
C1079 C1080 1.390 . S
C1080 C1079 1.390 . S
C1080 C1081 1.394 . S
C1080 C1086 1.465 . S
C1081 C1076 1.399 . S
C1081 C1080 1.394 . S
C1081 C1082 1.516 . S
C1082 C1081 1.516 . S
C1082 C1083 1.502 . S
C1082 C1084 1.561 . S
C1082 C1085 1.526 . S
C1083 H1067 0.959 . S
C1083 H1068 0.959 . S
C1083 H1069 0.961 . S
C1083 C1082 1.502 . S
C1084 H1070 0.960 . S
C1084 H1071 0.961 . S
C1084 H1072 0.959 . S
C1084 C1082 1.561 . S
C1085 C1082 1.526 . S
C1085 C1086 1.396 . S
C1085 C1090 1.390 . S
C1086 C1080 1.465 . S
C1086 C1085 1.396 . S
C1086 C1087 1.399 1_565 S
C1087 H1073 0.929 . S
C1087 C1086 1.399 1_545 S
C1087 C1088 1.385 . S
C1088 H1074 0.931 . S
C1088 C1087 1.385 . S
C1088 C1089 1.389 . S
C1089 C1088 1.389 . S
C1089 C1090 1.387 1_545 S
C1090 H1075 0.930 . S
C1090 C1085 1.390 . S
C1090 C1089 1.387 1_565 S
H1091 C1103 0.930 . S
H1092 C1105 0.930 . S
H1093 C1106 0.930 . S
H1094 C1110 0.959 . S
H1095 C1110 0.959 . S
H1096 C1110 0.961 . S
H1097 C1111 0.960 . S
H1098 C1111 0.961 . S
H1099 C1111 0.959 . S
H1100 C1114 0.929 . S
H1101 C1115 0.931 . S
H1102 C1117 0.930 . S
C1103 H1091 0.930 . S
C1103 C1104 1.399 1_554 S
C1103 C1108 1.399 . S
C1104 C1103 1.399 1_556 S
C1104 C1105 1.376 . S
C1105 H1092 0.930 . S
C1105 C1104 1.376 . S
C1105 C1106 1.388 . S
C1106 H1093 0.930 . S
C1106 C1105 1.388 . S
C1106 C1107 1.390 . S
C1107 C1106 1.390 . S
C1107 C1108 1.394 1_556 S
C1107 C1113 1.465 . S
C1108 C1103 1.399 . S
C1108 C1107 1.394 1_554 S
C1108 C1109 1.516 . S
C1109 C1108 1.516 . S
C1109 C1110 1.502 . S
C1109 C1111 1.561 . S
C1109 C1112 1.526 . S
C1110 H1094 0.959 . S
C1110 H1095 0.959 . S
C1110 H1096 0.961 . S
C1110 C1109 1.502 . S
C1111 H1097 0.960 . S
C1111 H1098 0.961 . S
C1111 H1099 0.959 . S
C1111 C1109 1.561 . S
C1112 C1109 1.526 . S
C1112 C1113 1.396 1_554 S
C1112 C1117 1.390 . S
C1113 C1107 1.465 . S
C1113 C1112 1.396 1_556 S
C1113 C1114 1.399 . S
C1114 H1100 0.929 . S
C1114 C1113 1.399 . S
C1114 C1115 1.385 . S
C1115 H1101 0.931 . S
C1115 C1114 1.385 . S
C1115 C1116 1.389 . S
C1116 C1115 1.389 . S
C1116 C1117 1.387 1_556 S
C1117 H1102 0.930 . S
C1117 C1112 1.390 . S
C1117 C1116 1.387 1_554 S
H1118 C1130 0.930 . S
H1119 C1132 0.930 . S
H1120 C1133 0.930 . S
H1121 C1137 0.959 . S
H1122 C1137 0.959 . S
H1123 C1137 0.961 . S
H1124 C1138 0.960 . S
H1125 C1138 0.961 . S
H1126 C1138 0.959 . S
H1127 C1141 0.929 . S
H1128 C1142 0.931 . S
H1129 C1144 0.930 . S
C1130 H1118 0.930 . S
C1130 C1131 1.399 . S
C1130 C1135 1.399 . S
C1131 C1130 1.399 . S
C1131 C1132 1.376 . S
C1132 H1119 0.930 . S
C1132 C1131 1.376 . S
C1132 C1133 1.388 . S
C1133 H1120 0.930 . S
C1133 C1132 1.388 . S
C1133 C1134 1.390 . S
C1134 C1133 1.390 . S
C1134 C1135 1.394 . S
C1134 C1140 1.465 . S
C1135 C1130 1.399 . S
C1135 C1134 1.394 . S
C1135 C1136 1.516 . S
C1136 C1135 1.516 . S
C1136 C1137 1.502 . S
C1136 C1138 1.561 . S
C1136 C1139 1.526 . S
C1137 H1121 0.959 . S
C1137 H1122 0.959 . S
C1137 H1123 0.961 . S
C1137 C1136 1.502 . S
C1138 H1124 0.960 . S
C1138 H1125 0.961 . S
C1138 H1126 0.959 . S
C1138 C1136 1.561 . S
C1139 C1136 1.526 . S
C1139 C1140 1.396 . S
C1139 C1144 1.390 . S
C1140 C1134 1.465 . S
C1140 C1139 1.396 . S
C1140 C1141 1.399 . S
C1141 H1127 0.929 . S
C1141 C1140 1.399 . S
C1141 C1142 1.385 . S
C1142 H1128 0.931 . S
C1142 C1141 1.385 . S
C1142 C1143 1.389 . S
C1143 C1142 1.389 . S
C1143 C1144 1.387 . S
C1144 H1129 0.930 . S
C1144 C1139 1.390 . S
C1144 C1143 1.387 . S
H1145 C1157 0.930 . S
H1146 C1159 0.930 . S
H1147 C1160 0.930 . S
H1148 C1164 0.959 . S
H1149 C1164 0.959 . S
H1150 C1164 0.961 . S
H1151 C1165 0.960 . S
H1152 C1165 0.961 . S
H1153 C1165 0.959 . S
H1154 C1168 0.929 . S
H1155 C1169 0.931 . S
H1156 C1171 0.930 . S
C1157 H1145 0.930 . S
C1157 C1158 1.399 . S
C1157 C1162 1.399 . S
C1158 C1157 1.399 . S
C1158 C1159 1.376 . S
C1159 H1146 0.930 . S
C1159 C1158 1.376 . S
C1159 C1160 1.388 . S
C1160 H1147 0.930 . S
C1160 C1159 1.388 . S
C1160 C1161 1.390 . S
C1161 C1160 1.390 . S
C1161 C1162 1.394 . S
C1161 C1167 1.465 . S
C1162 C1157 1.399 . S
C1162 C1161 1.394 . S
C1162 C1163 1.516 . S
C1163 C1162 1.516 . S
C1163 C1164 1.502 . S
C1163 C1165 1.561 . S
C1163 C1166 1.526 . S
C1164 H1148 0.959 . S
C1164 H1149 0.959 . S
C1164 H1150 0.961 . S
C1164 C1163 1.502 . S
C1165 H1151 0.960 . S
C1165 H1152 0.961 . S
C1165 H1153 0.959 . S
C1165 C1163 1.561 . S
C1166 C1163 1.526 . S
C1166 C1167 1.396 . S
C1166 C1171 1.390 . S
C1167 C1161 1.465 . S
C1167 C1166 1.396 . S
C1167 C1168 1.399 . S
C1168 H1154 0.929 . S
C1168 C1167 1.399 . S
C1168 C1169 1.385 . S
C1169 H1155 0.931 . S
C1169 C1168 1.385 . S
C1169 C1170 1.389 . S
C1170 C1169 1.389 . S
C1170 C1171 1.387 . S
C1171 H1156 0.930 . S
C1171 C1166 1.390 . S
C1171 C1170 1.387 . S
H1172 C1184 0.930 . S
H1173 C1186 0.930 . S
H1174 C1187 0.930 . S
H1175 C1191 0.959 . S
H1176 C1191 0.959 . S
H1177 C1191 0.961 . S
H1178 C1192 0.960 . S
H1179 C1192 0.961 . S
H1180 C1192 0.959 . S
H1181 C1195 0.929 . S
H1182 C1196 0.931 . S
H1183 C1198 0.930 . S
C1184 H1172 0.930 . S
C1184 C1185 1.399 . S
C1184 C1189 1.399 . S
C1185 C1184 1.399 . S
C1185 C1186 1.376 . S
C1186 H1173 0.930 . S
C1186 C1185 1.376 . S
C1186 C1187 1.388 . S
C1187 H1174 0.930 . S
C1187 C1186 1.388 . S
C1187 C1188 1.390 . S
C1188 C1187 1.390 . S
C1188 C1189 1.394 . S
C1188 C1194 1.465 . S
C1189 C1184 1.399 . S
C1189 C1188 1.394 . S
C1189 C1190 1.516 . S
C1190 C1189 1.516 . S
C1190 C1191 1.502 . S
C1190 C1192 1.561 . S
C1190 C1193 1.526 . S
C1191 H1175 0.959 . S
C1191 H1176 0.959 . S
C1191 H1177 0.961 . S
C1191 C1190 1.502 . S
C1192 H1178 0.960 . S
C1192 H1179 0.961 . S
C1192 H1180 0.959 . S
C1192 C1190 1.561 . S
C1193 C1190 1.526 . S
C1193 C1194 1.396 . S
C1193 C1198 1.390 . S
C1194 C1188 1.465 . S
C1194 C1193 1.396 . S
C1194 C1195 1.399 . S
C1195 H1181 0.929 . S
C1195 C1194 1.399 . S
C1195 C1196 1.385 . S
C1196 H1182 0.931 . S
C1196 C1195 1.385 . S
C1196 C1197 1.389 . S
C1197 C1196 1.389 . S
C1197 C1198 1.387 . S
C1198 H1183 0.930 . S
C1198 C1193 1.390 . S
C1198 C1197 1.387 . S
H1199 C1211 0.930 . S
H1200 C1213 0.930 . S
H1201 C1214 0.930 . S
H1202 C1218 0.959 . S
H1203 C1218 0.959 . S
H1204 C1218 0.961 . S
H1205 C1219 0.960 . S
H1206 C1219 0.961 . S
H1207 C1219 0.959 . S
H1208 C1222 0.929 . S
H1209 C1223 0.931 . S
H1210 C1225 0.930 . S
C1211 H1199 0.930 . S
C1211 C1212 1.399 . S
C1211 C1216 1.399 . S
C1212 C1211 1.399 . S
C1212 C1213 1.376 . S
C1213 H1200 0.930 . S
C1213 C1212 1.376 . S
C1213 C1214 1.388 . S
C1214 H1201 0.930 . S
C1214 C1213 1.388 . S
C1214 C1215 1.390 . S
C1215 C1214 1.390 . S
C1215 C1216 1.394 . S
C1215 C1221 1.465 . S
C1216 C1211 1.399 . S
C1216 C1215 1.394 . S
C1216 C1217 1.516 . S
C1217 C1216 1.516 . S
C1217 C1218 1.502 . S
C1217 C1219 1.561 . S
C1217 C1220 1.526 . S
C1218 H1202 0.959 . S
C1218 H1203 0.959 . S
C1218 H1204 0.961 . S
C1218 C1217 1.502 . S
C1219 H1205 0.960 . S
C1219 H1206 0.961 . S
C1219 H1207 0.959 . S
C1219 C1217 1.561 . S
C1220 C1217 1.526 . S
C1220 C1221 1.396 . S
C1220 C1225 1.390 . S
C1221 C1215 1.465 . S
C1221 C1220 1.396 . S
C1221 C1222 1.399 . S
C1222 H1208 0.929 . S
C1222 C1221 1.399 . S
C1222 C1223 1.385 . S
C1223 H1209 0.931 . S
C1223 C1222 1.385 . S
C1223 C1224 1.389 . S
C1224 C1223 1.389 . S
C1224 C1225 1.387 . S
C1225 H1210 0.930 . S
C1225 C1220 1.390 . S
C1225 C1224 1.387 . S
H1226 C1238 0.930 . S
H1227 C1240 0.930 . S
H1228 C1241 0.930 . S
H1229 C1245 0.959 . S
H1230 C1245 0.959 . S
H1231 C1245 0.961 . S
H1232 C1246 0.960 . S
H1233 C1246 0.961 . S
H1234 C1246 0.959 . S
H1235 C1249 0.929 . S
H1236 C1250 0.931 . S
H1237 C1252 0.930 . S
C1238 H1226 0.930 . S
C1238 C1239 1.399 . S
C1238 C1243 1.399 . S
C1239 C1238 1.399 . S
C1239 C1240 1.376 . S
C1240 H1227 0.930 . S
C1240 C1239 1.376 . S
C1240 C1241 1.388 . S
C1241 H1228 0.930 . S
C1241 C1240 1.388 . S
C1241 C1242 1.390 . S
C1242 C1241 1.390 . S
C1242 C1243 1.394 . S
C1242 C1248 1.465 . S
C1243 C1238 1.399 . S
C1243 C1242 1.394 . S
C1243 C1244 1.516 . S
C1244 C1243 1.516 . S
C1244 C1245 1.502 . S
C1244 C1246 1.561 . S
C1244 C1247 1.526 . S
C1245 H1229 0.959 . S
C1245 H1230 0.959 . S
C1245 H1231 0.961 . S
C1245 C1244 1.502 . S
C1246 H1232 0.960 . S
C1246 H1233 0.961 . S
C1246 H1234 0.959 . S
C1246 C1244 1.561 . S
C1247 C1244 1.526 . S
C1247 C1248 1.396 . S
C1247 C1252 1.390 . S
C1248 C1242 1.465 . S
C1248 C1247 1.396 . S
C1248 C1249 1.399 . S
C1249 H1235 0.929 . S
C1249 C1248 1.399 . S
C1249 C1250 1.385 . S
C1250 H1236 0.931 . S
C1250 C1249 1.385 . S
C1250 C1251 1.389 . S
C1251 C1250 1.389 . S
C1251 C1252 1.387 . S
C1252 H1237 0.930 . S
C1252 C1247 1.390 . S
C1252 C1251 1.387 . S
H1253 C1265 0.930 . S
H1254 C1267 0.930 . S
H1255 C1268 0.930 . S
H1256 C1272 0.959 . S
H1257 C1272 0.959 . S
H1258 C1272 0.961 . S
H1259 C1273 0.960 . S
H1260 C1273 0.961 . S
H1261 C1273 0.959 . S
H1262 C1276 0.929 . S
H1263 C1277 0.931 . S
H1264 C1279 0.930 . S
C1265 H1253 0.930 . S
C1265 C1266 1.399 . S
C1265 C1270 1.399 . S
C1266 C1265 1.399 . S
C1266 C1267 1.376 . S
C1267 H1254 0.930 . S
C1267 C1266 1.376 . S
C1267 C1268 1.388 . S
C1268 H1255 0.930 . S
C1268 C1267 1.388 . S
C1268 C1269 1.390 . S
C1269 C1268 1.390 . S
C1269 C1270 1.394 . S
C1269 C1275 1.465 . S
C1270 C1265 1.399 . S
C1270 C1269 1.394 . S
C1270 C1271 1.516 . S
C1271 C1270 1.516 . S
C1271 C1272 1.502 . S
C1271 C1273 1.561 . S
C1271 C1274 1.526 . S
C1272 H1256 0.959 . S
C1272 H1257 0.959 . S
C1272 H1258 0.961 . S
C1272 C1271 1.502 . S
C1273 H1259 0.960 . S
C1273 H1260 0.961 . S
C1273 H1261 0.959 . S
C1273 C1271 1.561 . S
C1274 C1271 1.526 . S
C1274 C1275 1.396 . S
C1274 C1279 1.390 . S
C1275 C1269 1.465 . S
C1275 C1274 1.396 . S
C1275 C1276 1.399 . S
C1276 H1262 0.929 . S
C1276 C1275 1.399 . S
C1276 C1277 1.385 . S
C1277 H1263 0.931 . S
C1277 C1276 1.385 . S
C1277 C1278 1.389 . S
C1278 C1277 1.389 . S
C1278 C1279 1.387 . S
C1279 H1264 0.930 . S
C1279 C1274 1.390 . S
C1279 C1278 1.387 . S
H1280 C1292 0.930 . S
H1281 C1294 0.930 . S
H1282 C1295 0.930 . S
H1283 C1299 0.959 . S
H1284 C1299 0.959 . S
H1285 C1299 0.961 . S
H1286 C1300 0.960 . S
H1287 C1300 0.961 . S
H1288 C1300 0.983 . S
H1289 C1303 0.929 . S
H1290 C1304 0.931 . S
H1291 C1306 0.930 . S
C1292 H1280 0.930 . S
C1292 C1293 1.399 . S
C1292 C1297 1.399 . S
C1293 C1292 1.399 . S
C1293 C1294 1.376 . S
C1294 H1281 0.930 . S
C1294 C1293 1.376 . S
C1294 C1295 1.388 . S
C1295 H1282 0.930 . S
C1295 C1294 1.388 . S
C1295 C1296 1.390 . S
C1296 C1295 1.390 . S
C1296 C1297 1.394 . S
C1296 C1302 1.465 . S
C1297 C1292 1.399 . S
C1297 C1296 1.394 . S
C1297 C1298 1.516 . S
C1298 C1297 1.516 . S
C1298 C1299 1.502 . S
C1298 C1300 1.561 . S
C1298 C1301 1.526 . S
C1299 H1283 0.959 . S
C1299 H1284 0.959 . S
C1299 H1285 0.961 . S
C1299 C1298 1.502 . S
C1300 H1286 0.960 . S
C1300 H1287 0.961 . S
C1300 H1288 0.983 . S
C1300 C1298 1.561 . S
C1301 C1298 1.526 . S
C1301 C1302 1.396 . S
C1301 C1306 1.390 . S
C1302 C1296 1.465 . S
C1302 C1301 1.396 . S
C1302 C1303 1.399 . S
C1303 H1289 0.929 . S
C1303 C1302 1.399 . S
C1303 C1304 1.385 . S
C1304 H1290 0.931 . S
C1304 C1303 1.385 . S
C1304 C1305 1.389 . S
C1305 C1304 1.389 . S
C1305 C1306 1.387 . S
C1306 H1291 0.930 . S
C1306 C1301 1.390 . S
C1306 C1305 1.387 . S
H1307 C1319 0.930 . S
H1308 C1321 0.930 . S
H1309 C1322 0.930 . S
H1310 C1326 0.959 . S
H1311 C1326 0.959 . S
H1312 C1326 0.961 . S
H1313 C1327 0.960 . S
H1314 C1327 0.961 . S
H1315 C1327 0.959 . S
H1316 C1330 0.929 . S
H1317 C1331 0.931 . S
H1318 C1333 0.930 . S
C1319 H1307 0.930 . S
C1319 C1320 1.399 . S
C1319 C1324 1.399 . S
C1320 C1319 1.399 . S
C1320 C1321 1.376 . S
C1321 H1308 0.930 . S
C1321 C1320 1.376 . S
C1321 C1322 1.388 . S
C1322 H1309 0.930 . S
C1322 C1321 1.388 . S
C1322 C1323 1.390 . S
C1323 C1322 1.390 . S
C1323 C1324 1.394 . S
C1323 C1329 1.465 . S
C1324 C1319 1.399 . S
C1324 C1323 1.394 . S
C1324 C1325 1.516 . S
C1325 C1324 1.516 . S
C1325 C1326 1.502 . S
C1325 C1327 1.561 . S
C1325 C1328 1.526 . S
C1326 H1310 0.959 . S
C1326 H1311 0.959 . S
C1326 H1312 0.961 . S
C1326 C1325 1.502 . S
C1327 H1313 0.960 . S
C1327 H1314 0.961 . S
C1327 H1315 0.959 . S
C1327 C1325 1.561 . S
C1328 C1325 1.526 . S
C1328 C1329 1.396 . S
C1328 C1333 1.390 . S
C1329 C1323 1.465 . S
C1329 C1328 1.396 . S
C1329 C1330 1.399 . S
C1330 H1316 0.929 . S
C1330 C1329 1.399 . S
C1330 C1331 1.385 . S
C1331 H1317 0.931 . S
C1331 C1330 1.385 . S
C1331 C1332 1.389 . S
C1332 C1331 1.389 . S
C1332 C1333 1.387 . S
C1333 H1318 0.930 . S
C1333 C1328 1.390 . S
C1333 C1332 1.387 . S
H1334 C1346 0.930 . S
H1335 C1348 0.930 . S
H1336 C1349 0.930 . S
H1337 C1353 0.959 . S
H1338 C1353 0.959 . S
H1339 C1353 0.961 . S
H1340 C1354 0.960 . S
H1341 C1354 0.961 . S
H1342 C1354 0.959 . S
H1343 C1357 0.929 . S
H1344 C1358 0.931 . S
H1345 C1360 0.930 . S
C1346 H1334 0.930 . S
C1346 C1347 1.399 . S
C1346 C1351 1.399 . S
C1347 C1346 1.399 . S
C1347 C1348 1.376 . S
C1348 H1335 0.930 . S
C1348 C1347 1.376 . S
C1348 C1349 1.388 . S
C1349 H1336 0.930 . S
C1349 C1348 1.388 . S
C1349 C1350 1.390 . S
C1350 C1349 1.390 . S
C1350 C1351 1.394 . S
C1350 C1356 1.465 . S
C1351 C1346 1.399 . S
C1351 C1350 1.394 . S
C1351 C1352 1.516 . S
C1352 C1351 1.516 . S
C1352 C1353 1.502 . S
C1352 C1354 1.561 . S
C1352 C1355 1.526 . S
C1353 H1337 0.959 . S
C1353 H1338 0.959 . S
C1353 H1339 0.961 . S
C1353 C1352 1.502 . S
C1354 H1340 0.960 . S
C1354 H1341 0.961 . S
C1354 H1342 0.959 . S
C1354 C1352 1.561 . S
C1355 C1352 1.526 . S
C1355 C1356 1.396 . S
C1355 C1360 1.390 . S
C1356 C1350 1.465 . S
C1356 C1355 1.396 . S
C1356 C1357 1.399 . S
C1357 H1343 0.929 . S
C1357 C1356 1.399 . S
C1357 C1358 1.385 . S
C1358 H1344 0.931 . S
C1358 C1357 1.385 . S
C1358 C1359 1.389 . S
C1359 C1358 1.389 . S
C1359 C1360 1.387 . S
C1360 H1345 0.930 . S
C1360 C1355 1.390 . S
C1360 C1359 1.387 . S
H1361 C1373 0.930 . S
H1362 C1375 0.930 . S
H1363 C1376 0.930 . S
H1364 C1380 0.959 . S
H1365 C1380 0.959 . S
H1366 C1380 0.961 . S
H1367 C1381 0.960 . S
H1368 C1381 0.961 . S
H1369 C1381 0.959 . S
H1370 C1384 0.929 . S
H1371 C1385 0.931 . S
H1372 C1387 0.930 . S
C1373 H1361 0.930 . S
C1373 C1374 1.399 . S
C1373 C1378 1.399 . S
C1374 C1373 1.399 . S
C1374 C1375 1.376 . S
C1375 H1362 0.930 . S
C1375 C1374 1.376 . S
C1375 C1376 1.388 . S
C1376 H1363 0.930 . S
C1376 C1375 1.388 . S
C1376 C1377 1.390 . S
C1377 C1376 1.390 . S
C1377 C1378 1.394 . S
C1377 C1383 1.465 . S
C1378 C1373 1.399 . S
C1378 C1377 1.394 . S
C1378 C1379 1.516 . S
C1379 C1378 1.516 . S
C1379 C1380 1.502 . S
C1379 C1381 1.561 . S
C1379 C1382 1.526 . S
C1380 H1364 0.959 . S
C1380 H1365 0.959 . S
C1380 H1366 0.961 . S
C1380 C1379 1.502 . S
C1381 H1367 0.960 . S
C1381 H1368 0.961 . S
C1381 H1369 0.959 . S
C1381 C1379 1.561 . S
C1382 C1379 1.526 . S
C1382 C1383 1.396 . S
C1382 C1387 1.390 . S
C1383 C1377 1.465 . S
C1383 C1382 1.396 . S
C1383 C1384 1.399 . S
C1384 H1370 0.929 . S
C1384 C1383 1.399 . S
C1384 C1385 1.385 . S
C1385 H1371 0.931 . S
C1385 C1384 1.385 . S
C1385 C1386 1.389 . S
C1386 C1385 1.389 . S
C1386 C1387 1.387 . S
C1387 H1372 0.930 . S
C1387 C1382 1.390 . S
C1387 C1386 1.387 . S
H1388 C1400 0.954 . S
H1389 C1402 0.930 . S
H1390 C1403 0.930 . S
H1391 C1407 0.959 . S
H1392 C1407 0.959 . S
H1393 C1407 0.961 . S
H1394 C1408 0.960 . S
H1395 C1408 0.961 . S
H1396 C1408 0.959 . S
H1397 C1411 0.929 . S
H1398 C1412 0.931 . S
H1399 C1414 0.930 1_655 S
C1400 H1388 0.954 . S
C1400 C1401 1.399 . S
C1400 C1405 1.399 . S
C1401 C1400 1.399 . S
C1401 C1402 1.376 . S
C1402 H1389 0.930 . S
C1402 C1401 1.376 . S
C1402 C1403 1.388 . S
C1403 H1390 0.930 . S
C1403 C1402 1.388 . S
C1403 C1404 1.390 . S
C1404 C1403 1.390 . S
C1404 C1405 1.394 . S
C1404 C1410 1.465 . S
C1405 C1400 1.399 . S
C1405 C1404 1.394 . S
C1405 C1406 1.516 . S
C1406 C1405 1.516 . S
C1406 C1407 1.502 1_455 S
C1406 C1408 1.561 . S
C1406 C1409 1.526 . S
C1407 H1391 0.959 . S
C1407 H1392 0.959 . S
C1407 H1393 0.961 . S
C1407 C1406 1.502 1_655 S
C1408 H1394 0.960 . S
C1408 H1395 0.961 . S
C1408 H1396 0.959 . S
C1408 C1406 1.561 . S
C1409 C1406 1.526 . S
C1409 C1410 1.396 . S
C1409 C1414 1.390 . S
C1410 C1404 1.465 . S
C1410 C1409 1.396 . S
C1410 C1411 1.399 . S
C1411 H1397 0.929 . S
C1411 C1410 1.399 . S
C1411 C1412 1.385 . S
C1412 H1398 0.931 . S
C1412 C1411 1.385 . S
C1412 C1413 1.389 . S
C1413 C1412 1.389 . S
C1413 C1414 1.387 . S
C1414 H1399 0.930 1_455 S
C1414 C1409 1.390 . S
C1414 C1413 1.387 . S
H1415 C1427 0.930 . S
H1416 C1429 0.930 . S
H1417 C1430 0.930 . S
H1418 C1434 0.959 . S
H1419 C1434 0.959 . S
H1420 C1434 0.961 . S
H1421 C1435 0.960 . S
H1422 C1435 0.961 . S
H1423 C1435 0.959 . S
H1424 C1438 0.929 . S
H1425 C1439 0.931 . S
H1426 C1441 0.930 . S
C1427 H1415 0.930 . S
C1427 C1428 1.399 . S
C1427 C1432 1.399 . S
C1428 C1427 1.399 . S
C1428 C1429 1.376 . S
C1429 H1416 0.930 . S
C1429 C1428 1.376 . S
C1429 C1430 1.388 . S
C1430 H1417 0.930 . S
C1430 C1429 1.388 . S
C1430 C1431 1.390 . S
C1431 C1430 1.390 . S
C1431 C1432 1.394 . S
C1431 C1437 1.465 . S
C1432 C1427 1.399 . S
C1432 C1431 1.394 . S
C1432 C1433 1.516 . S
C1433 C1432 1.516 . S
C1433 C1434 1.502 . S
C1433 C1435 1.561 . S
C1433 C1436 1.526 . S
C1434 H1418 0.959 . S
C1434 H1419 0.959 . S
C1434 H1420 0.961 . S
C1434 C1433 1.502 . S
C1435 H1421 0.960 . S
C1435 H1422 0.961 . S
C1435 H1423 0.959 . S
C1435 C1433 1.561 . S
C1436 C1433 1.526 . S
C1436 C1437 1.396 . S
C1436 C1441 1.390 . S
C1437 C1431 1.465 . S
C1437 C1436 1.396 . S
C1437 C1438 1.399 . S
C1438 H1424 0.929 . S
C1438 C1437 1.399 . S
C1438 C1439 1.385 . S
C1439 H1425 0.931 . S
C1439 C1438 1.385 . S
C1439 C1440 1.389 . S
C1440 C1439 1.389 . S
C1440 C1441 1.387 . S
C1441 H1426 0.930 . S
C1441 C1436 1.390 . S
C1441 C1440 1.387 . S
H1442 C1454 0.930 . S
H1443 C1456 0.930 . S
H1444 C1457 0.930 . S
H1445 C1461 0.959 . S
H1446 C1461 0.959 . S
H1447 C1461 0.961 . S
H1448 C1462 0.960 . S
H1449 C1462 0.961 . S
H1450 C1462 0.959 . S
H1451 C1465 0.929 . S
H1452 C1466 0.931 . S
H1453 C1468 0.930 . S
C1454 H1442 0.930 . S
C1454 C1455 1.399 . S
C1454 C1459 1.399 . S
C1455 C1454 1.399 . S
C1455 C1456 1.376 . S
C1456 H1443 0.930 . S
C1456 C1455 1.376 . S
C1456 C1457 1.388 . S
C1457 H1444 0.930 . S
C1457 C1456 1.388 . S
C1457 C1458 1.390 . S
C1458 C1457 1.390 . S
C1458 C1459 1.394 . S
C1458 C1464 1.465 . S
C1459 C1454 1.399 . S
C1459 C1458 1.394 . S
C1459 C1460 1.516 . S
C1460 C1459 1.516 . S
C1460 C1461 1.502 . S
C1460 C1462 1.561 . S
C1460 C1463 1.526 . S
C1461 H1445 0.959 . S
C1461 H1446 0.959 . S
C1461 H1447 0.961 . S
C1461 C1460 1.502 . S
C1462 H1448 0.960 . S
C1462 H1449 0.961 . S
C1462 H1450 0.959 . S
C1462 C1460 1.561 . S
C1463 C1460 1.526 . S
C1463 C1464 1.396 . S
C1463 C1468 1.390 . S
C1464 C1458 1.465 . S
C1464 C1463 1.396 . S
C1464 C1465 1.399 . S
C1465 H1451 0.929 . S
C1465 C1464 1.399 . S
C1465 C1466 1.385 . S
C1466 H1452 0.931 . S
C1466 C1465 1.385 . S
C1466 C1467 1.389 . S
C1467 C1466 1.389 . S
C1467 C1468 1.387 . S
C1468 H1453 0.930 . S
C1468 C1463 1.390 . S
C1468 C1467 1.387 . S
H1469 C1481 0.930 . S
H1470 C1483 0.930 . S
H1471 C1484 0.930 . S
H1472 C1488 0.959 . S
H1473 C1488 0.959 . S
H1474 C1488 0.961 . S
H1475 C1489 0.960 . S
H1476 C1489 0.961 . S
H1477 C1489 0.959 . S
H1478 C1492 0.929 . S
H1479 C1493 0.931 . S
H1480 C1495 0.930 . S
C1481 H1469 0.930 . S
C1481 C1482 1.399 . S
C1481 C1486 1.399 . S
C1482 C1481 1.399 . S
C1482 C1483 1.376 . S
C1483 H1470 0.930 . S
C1483 C1482 1.376 . S
C1483 C1484 1.388 . S
C1484 H1471 0.930 . S
C1484 C1483 1.388 . S
C1484 C1485 1.390 . S
C1485 C1484 1.390 . S
C1485 C1486 1.394 . S
C1485 C1491 1.465 . S
C1486 C1481 1.399 . S
C1486 C1485 1.394 . S
C1486 C1487 1.516 . S
C1487 C1486 1.516 . S
C1487 C1488 1.502 . S
C1487 C1489 1.561 . S
C1487 C1490 1.526 . S
C1488 H1472 0.959 . S
C1488 H1473 0.959 . S
C1488 H1474 0.961 . S
C1488 C1487 1.502 . S
C1489 H1475 0.960 . S
C1489 H1476 0.961 . S
C1489 H1477 0.959 . S
C1489 C1487 1.561 . S
C1490 C1487 1.526 . S
C1490 C1491 1.396 . S
C1490 C1495 1.390 . S
C1491 C1485 1.465 . S
C1491 C1490 1.396 . S
C1491 C1492 1.399 . S
C1492 H1478 0.929 . S
C1492 C1491 1.399 . S
C1492 C1493 1.385 . S
C1493 H1479 0.931 . S
C1493 C1492 1.385 . S
C1493 C1494 1.389 . S
C1494 C1493 1.389 . S
C1494 C1495 1.387 . S
C1495 H1480 0.930 . S
C1495 C1490 1.390 . S
C1495 C1494 1.387 . S
H1496 C1508 0.930 . S
H1497 C1510 0.930 . S
H1498 C1511 0.930 . S
H1499 C1515 0.959 . S
H1500 C1515 0.959 . S
H1501 C1515 0.961 . S
H1502 C1516 0.960 . S
H1503 C1516 0.961 . S
H1504 C1516 0.959 . S
H1505 C1519 0.929 . S
H1506 C1520 0.931 . S
H1507 C1522 0.930 . S
C1508 H1496 0.930 . S
C1508 C1509 1.399 . S
C1508 C1513 1.399 . S
C1509 C1508 1.399 . S
C1509 C1510 1.376 1_545 S
C1510 H1497 0.930 . S
C1510 C1509 1.376 1_565 S
C1510 C1511 1.388 . S
C1511 H1498 0.930 . S
C1511 C1510 1.388 . S
C1511 C1512 1.390 1_565 S
C1512 C1511 1.390 1_545 S
C1512 C1513 1.394 . S
C1512 C1518 1.465 . S
C1513 C1508 1.399 . S
C1513 C1512 1.394 . S
C1513 C1514 1.516 . S
C1514 C1513 1.516 . S
C1514 C1515 1.502 . S
C1514 C1516 1.561 . S
C1514 C1517 1.526 . S
C1515 H1499 0.959 . S
C1515 H1500 0.959 . S
C1515 H1501 0.961 . S
C1515 C1514 1.502 . S
C1516 H1502 0.960 . S
C1516 H1503 0.961 . S
C1516 H1504 0.959 . S
C1516 C1514 1.561 . S
C1517 C1514 1.526 . S
C1517 C1518 1.396 . S
C1517 C1522 1.390 . S
C1518 C1512 1.465 . S
C1518 C1517 1.396 . S
C1518 C1519 1.399 1_545 S
C1519 H1505 0.929 . S
C1519 C1518 1.399 1_565 S
C1519 C1520 1.385 . S
C1520 H1506 0.931 . S
C1520 C1519 1.385 . S
C1520 C1521 1.389 1_565 S
C1521 C1520 1.389 1_545 S
C1521 C1522 1.387 . S
C1522 H1507 0.930 . S
C1522 C1517 1.390 . S
C1522 C1521 1.387 . S
H1523 C1535 0.930 . S
H1524 C1537 0.930 . S
H1525 C1538 0.930 . S
H1526 C1542 0.959 . S
H1527 C1542 0.959 . S
H1528 C1542 0.961 . S
H1529 C1543 0.960 . S
H1530 C1543 0.961 . S
H1531 C1543 0.959 . S
H1532 C1546 0.929 . S
H1533 C1547 0.931 . S
H1534 C1549 0.930 . S
C1535 H1523 0.930 . S
C1535 C1536 1.399 . S
C1535 C1540 1.399 . S
C1536 C1535 1.399 . S
C1536 C1537 1.376 . S
C1537 H1524 0.930 . S
C1537 C1536 1.376 . S
C1537 C1538 1.388 . S
C1538 H1525 0.930 . S
C1538 C1537 1.388 . S
C1538 C1539 1.390 . S
C1539 C1538 1.390 . S
C1539 C1540 1.394 . S
C1539 C1545 1.465 . S
C1540 C1535 1.399 . S
C1540 C1539 1.394 . S
C1540 C1541 1.516 . S
C1541 C1540 1.516 . S
C1541 C1542 1.502 . S
C1541 C1543 1.561 . S
C1541 C1544 1.526 . S
C1542 H1526 0.959 . S
C1542 H1527 0.959 . S
C1542 H1528 0.961 . S
C1542 C1541 1.502 . S
C1543 H1529 0.960 . S
C1543 H1530 0.961 . S
C1543 H1531 0.959 . S
C1543 C1541 1.561 . S
C1544 C1541 1.526 . S
C1544 C1545 1.396 . S
C1544 C1549 1.390 . S
C1545 C1539 1.465 . S
C1545 C1544 1.396 . S
C1545 C1546 1.399 . S
C1546 H1532 0.929 . S
C1546 C1545 1.399 . S
C1546 C1547 1.385 . S
C1547 H1533 0.931 . S
C1547 C1546 1.385 . S
C1547 C1548 1.389 . S
C1548 C1547 1.389 . S
C1548 C1549 1.387 . S
C1549 H1534 0.930 . S
C1549 C1544 1.390 . S
C1549 C1548 1.387 . S
H1550 C1562 0.930 . S
H1551 C1564 0.930 . S
H1552 C1565 0.930 1_565 S
H1553 C1569 0.959 . S
H1554 C1569 0.959 . S
H1555 C1569 0.961 . S
H1556 C1570 0.960 . S
H1557 C1570 0.961 . S
H1558 C1570 0.959 . S
H1559 C1573 0.929 . S
H1560 C1574 0.931 . S
H1561 C1576 0.930 . S
C1562 H1550 0.930 . S
C1562 C1563 1.399 . S
C1562 C1567 1.399 . S
C1563 C1562 1.399 . S
C1563 C1564 1.376 . S
C1564 H1551 0.930 . S
C1564 C1563 1.376 . S
C1564 C1565 1.388 . S
C1565 H1552 0.930 1_545 S
C1565 C1564 1.388 . S
C1565 C1566 1.390 . S
C1566 C1565 1.390 . S
C1566 C1567 1.394 . S
C1566 C1572 1.465 . S
C1567 C1562 1.399 . S
C1567 C1566 1.394 . S
C1567 C1568 1.516 . S
C1568 C1567 1.516 . S
C1568 C1569 1.502 . S
C1568 C1570 1.561 . S
C1568 C1571 1.526 . S
C1569 H1553 0.959 . S
C1569 H1554 0.959 . S
C1569 H1555 0.961 . S
C1569 C1568 1.502 . S
C1570 H1556 0.960 . S
C1570 H1557 0.961 . S
C1570 H1558 0.959 . S
C1570 C1568 1.561 . S
C1571 C1568 1.526 . S
C1571 C1572 1.396 . S
C1571 C1576 1.390 . S
C1572 C1566 1.465 . S
C1572 C1571 1.396 . S
C1572 C1573 1.399 1_545 S
C1573 H1559 0.929 . S
C1573 C1572 1.399 1_565 S
C1573 C1574 1.385 . S
C1574 H1560 0.931 . S
C1574 C1573 1.385 . S
C1574 C1575 1.389 1_565 S
C1575 C1574 1.389 1_545 S
C1575 C1576 1.387 . S
C1576 H1561 0.930 . S
C1576 C1571 1.390 . S
C1576 C1575 1.387 . S
H1577 C1589 0.930 . S
H1578 C1591 0.930 . S
H1579 C1592 0.930 . S
H1580 C1596 0.959 . S
H1581 C1596 0.959 . S
H1582 C1596 0.961 . S
H1583 C1597 0.960 . S
H1584 C1597 0.961 . S
H1585 C1597 0.959 . S
H1586 C1600 0.929 . S
H1587 C1601 0.931 . S
H1588 C1603 0.930 . S
C1589 H1577 0.930 . S
C1589 C1590 1.399 . S
C1589 C1594 1.399 . S
C1590 C1589 1.399 . S
C1590 C1591 1.376 . S
C1591 H1578 0.930 . S
C1591 C1590 1.376 . S
C1591 C1592 1.388 . S
C1592 H1579 0.930 . S
C1592 C1591 1.388 . S
C1592 C1593 1.390 . S
C1593 C1592 1.390 . S
C1593 C1594 1.394 . S
C1593 C1599 1.465 . S
C1594 C1589 1.399 . S
C1594 C1593 1.394 . S
C1594 C1595 1.516 . S
C1595 C1594 1.516 . S
C1595 C1596 1.502 . S
C1595 C1597 1.561 . S
C1595 C1598 1.526 . S
C1596 H1580 0.959 . S
C1596 H1581 0.959 . S
C1596 H1582 0.961 . S
C1596 C1595 1.502 . S
C1597 H1583 0.960 . S
C1597 H1584 0.961 . S
C1597 H1585 0.959 . S
C1597 C1595 1.561 . S
C1598 C1595 1.526 . S
C1598 C1599 1.396 . S
C1598 C1603 1.390 . S
C1599 C1593 1.465 . S
C1599 C1598 1.396 . S
C1599 C1600 1.399 . S
C1600 H1586 0.929 . S
C1600 C1599 1.399 . S
C1600 C1601 1.385 . S
C1601 H1587 0.931 . S
C1601 C1600 1.385 . S
C1601 C1602 1.389 . S
C1602 C1601 1.389 . S
C1602 C1603 1.387 . S
C1603 H1588 0.930 . S
C1603 C1598 1.390 . S
C1603 C1602 1.387 . S
H1604 C1616 0.930 . S
H1605 C1618 0.930 . S
H1606 C1619 0.930 . S
H1607 C1623 0.959 . S
H1608 C1623 0.959 . S
H1609 C1623 0.961 . S
H1610 C1624 0.960 . S
H1611 C1624 0.961 . S
H1612 C1624 0.959 . S
H1613 C1627 0.929 . S
H1614 C1628 0.931 . S
H1615 C1630 0.930 . S
C1616 H1604 0.930 . S
C1616 C1617 1.399 1_545 S
C1616 C1621 1.399 . S
C1617 C1616 1.399 1_565 S
C1617 C1618 1.376 . S
C1618 H1605 0.930 . S
C1618 C1617 1.376 . S
C1618 C1619 1.388 . S
C1619 H1606 0.930 . S
C1619 C1618 1.388 . S
C1619 C1620 1.390 . S
C1620 C1619 1.390 . S
C1620 C1621 1.394 1_565 S
C1620 C1626 1.465 . S
C1621 C1616 1.399 . S
C1621 C1620 1.394 1_545 S
C1621 C1622 1.516 . S
C1622 C1621 1.516 . S
C1622 C1623 1.502 . S
C1622 C1624 1.561 . S
C1622 C1625 1.526 . S
C1623 H1607 0.959 . S
C1623 H1608 0.959 . S
C1623 H1609 0.961 . S
C1623 C1622 1.502 . S
C1624 H1610 0.960 . S
C1624 H1611 0.961 . S
C1624 H1612 0.959 . S
C1624 C1622 1.561 . S
C1625 C1622 1.526 . S
C1625 C1626 1.396 1_545 S
C1625 C1630 1.390 . S
C1626 C1620 1.465 . S
C1626 C1625 1.396 1_565 S
C1626 C1627 1.399 . S
C1627 H1613 0.929 . S
C1627 C1626 1.399 . S
C1627 C1628 1.385 . S
C1628 H1614 0.931 . S
C1628 C1627 1.385 . S
C1628 C1629 1.389 1_565 S
C1629 C1628 1.389 1_545 S
C1629 C1630 1.387 . S
C1630 H1615 0.930 . S
C1630 C1625 1.390 . S
C1630 C1629 1.387 . S
H1631 C1643 0.930 . S
H1632 C1645 0.930 . S
H1633 C1646 0.930 . S
H1634 C1650 0.959 . S
H1635 C1650 0.959 . S
H1636 C1650 0.961 . S
H1637 C1651 0.960 . S
H1638 C1651 0.961 . S
H1639 C1651 0.959 . S
H1640 C1654 0.929 . S
H1641 C1655 0.931 . S
H1642 C1657 0.930 . S
C1643 H1631 0.930 . S
C1643 C1644 1.399 . S
C1643 C1648 1.399 . S
C1644 C1643 1.399 . S
C1644 C1645 1.376 . S
C1645 H1632 0.930 . S
C1645 C1644 1.376 . S
C1645 C1646 1.388 . S
C1646 H1633 0.930 . S
C1646 C1645 1.388 . S
C1646 C1647 1.390 . S
C1647 C1646 1.390 . S
C1647 C1648 1.394 . S
C1647 C1653 1.465 . S
C1648 C1643 1.399 . S
C1648 C1647 1.394 . S
C1648 C1649 1.516 . S
C1649 C1648 1.516 . S
C1649 C1650 1.502 . S
C1649 C1651 1.561 . S
C1649 C1652 1.526 . S
C1650 H1634 0.959 . S
C1650 H1635 0.959 . S
C1650 H1636 0.961 . S
C1650 C1649 1.502 . S
C1651 H1637 0.960 . S
C1651 H1638 0.961 . S
C1651 H1639 0.959 . S
C1651 C1649 1.561 . S
C1652 C1649 1.526 . S
C1652 C1653 1.396 . S
C1652 C1657 1.390 . S
C1653 C1647 1.465 . S
C1653 C1652 1.396 . S
C1653 C1654 1.399 . S
C1654 H1640 0.929 . S
C1654 C1653 1.399 . S
C1654 C1655 1.385 . S
C1655 H1641 0.931 . S
C1655 C1654 1.385 . S
C1655 C1656 1.389 . S
C1656 C1655 1.389 . S
C1656 C1657 1.387 . S
C1657 H1642 0.930 . S
C1657 C1652 1.390 . S
C1657 C1656 1.387 . S
H1658 C1670 0.930 . S
H1659 C1672 0.930 . S
H1660 C1673 0.930 . S
H1661 C1677 0.959 . S
H1662 C1677 0.959 1_565 S
H1663 C1677 0.961 . S
H1664 C1678 0.960 . S
H1665 C1678 0.961 . S
H1666 C1678 0.959 . S
H1667 C1681 0.929 . S
H1668 C1682 0.931 . S
H1669 C1684 0.930 . S
C1670 H1658 0.930 . S
C1670 C1671 1.399 . S
C1670 C1675 1.399 . S
C1671 C1670 1.399 . S
C1671 C1672 1.376 . S
C1672 H1659 0.930 . S
C1672 C1671 1.376 . S
C1672 C1673 1.388 . S
C1673 H1660 0.930 . S
C1673 C1672 1.388 . S
C1673 C1674 1.390 . S
C1674 C1673 1.390 . S
C1674 C1675 1.394 . S
C1674 C1680 1.465 . S
C1675 C1670 1.399 . S
C1675 C1674 1.394 . S
C1675 C1676 1.516 . S
C1676 C1675 1.516 . S
C1676 C1677 1.502 . S
C1676 C1678 1.561 1_545 S
C1676 C1679 1.526 . S
C1677 H1661 0.959 . S
C1677 H1662 0.959 1_545 S
C1677 H1663 0.961 . S
C1677 C1676 1.502 . S
C1678 H1664 0.960 . S
C1678 H1665 0.961 . S
C1678 H1666 0.959 . S
C1678 C1676 1.561 1_565 S
C1679 C1676 1.526 . S
C1679 C1680 1.396 . S
C1679 C1684 1.390 . S
C1680 C1674 1.465 . S
C1680 C1679 1.396 . S
C1680 C1681 1.399 . S
C1681 H1667 0.929 . S
C1681 C1680 1.399 . S
C1681 C1682 1.385 . S
C1682 H1668 0.931 . S
C1682 C1681 1.385 . S
C1682 C1683 1.389 . S
C1683 C1682 1.389 . S
C1683 C1684 1.387 . S
C1684 H1669 0.930 . S
C1684 C1679 1.390 . S
C1684 C1683 1.387 . S
H1685 C1697 0.930 . S
H1686 C1699 0.930 . S
H1687 C1700 0.930 . S
H1688 C1704 0.959 . S
H1689 C1704 0.959 . S
H1690 C1704 0.961 . S
H1691 C1705 0.960 . S
H1692 C1705 0.961 . S
H1693 C1705 0.959 . S
H1694 C1708 0.929 . S
H1695 C1709 0.931 . S
H1696 C1711 0.930 . S
C1697 H1685 0.930 . S
C1697 C1698 1.399 . S
C1697 C1702 1.399 . S
C1698 C1697 1.399 . S
C1698 C1699 1.376 . S
C1699 H1686 0.930 . S
C1699 C1698 1.376 . S
C1699 C1700 1.388 . S
C1700 H1687 0.930 . S
C1700 C1699 1.388 . S
C1700 C1701 1.390 . S
C1701 C1700 1.390 . S
C1701 C1702 1.394 . S
C1701 C1707 1.465 . S
C1702 C1697 1.399 . S
C1702 C1701 1.394 . S
C1702 C1703 1.516 . S
C1703 C1702 1.516 . S
C1703 C1704 1.502 . S
C1703 C1705 1.561 . S
C1703 C1706 1.526 . S
C1704 H1688 0.959 . S
C1704 H1689 0.959 . S
C1704 H1690 0.961 . S
C1704 C1703 1.502 . S
C1705 H1691 0.960 . S
C1705 H1692 0.961 . S
C1705 H1693 0.959 . S
C1705 C1703 1.561 . S
C1706 C1703 1.526 . S
C1706 C1707 1.396 . S
C1706 C1711 1.390 . S
C1707 C1701 1.465 . S
C1707 C1706 1.396 . S
C1707 C1708 1.399 . S
C1708 H1694 0.929 . S
C1708 C1707 1.399 . S
C1708 C1709 1.385 . S
C1709 H1695 0.931 . S
C1709 C1708 1.385 . S
C1709 C1710 1.389 . S
C1710 C1709 1.389 . S
C1710 C1711 1.387 . S
C1711 H1696 0.930 . S
C1711 C1706 1.390 . S
C1711 C1710 1.387 . S
H1712 C1724 0.930 . S
H1713 C1726 0.930 . S
H1714 C1727 0.930 . S
H1715 C1731 0.959 . S
H1716 C1731 0.959 . S
H1717 C1731 0.961 . S
H1718 C1732 0.960 . S
H1719 C1732 0.961 . S
H1720 C1732 0.959 . S
H1721 C1735 0.929 . S
H1722 C1736 0.931 . S
H1723 C1738 0.930 1_556 S
C1724 H1712 0.930 . S
C1724 C1725 1.399 1_556 S
C1724 C1729 1.399 1_556 S
C1725 C1724 1.399 1_554 S
C1725 C1726 1.376 . S
C1726 H1713 0.930 . S
C1726 C1725 1.376 . S
C1726 C1727 1.388 . S
C1727 H1714 0.930 . S
C1727 C1726 1.388 . S
C1727 C1728 1.390 . S
C1728 C1727 1.390 . S
C1728 C1729 1.394 . S
C1728 C1734 1.465 . S
C1729 C1724 1.399 1_554 S
C1729 C1728 1.394 . S
C1729 C1730 1.516 1_554 S
C1730 C1729 1.516 1_556 S
C1730 C1731 1.502 . S
C1730 C1732 1.561 . S
C1730 C1733 1.526 1_556 S
C1731 H1715 0.959 . S
C1731 H1716 0.959 . S
C1731 H1717 0.961 . S
C1731 C1730 1.502 . S
C1732 H1718 0.960 . S
C1732 H1719 0.961 . S
C1732 H1720 0.959 . S
C1732 C1730 1.561 . S
C1733 C1730 1.526 1_554 S
C1733 C1734 1.396 . S
C1733 C1738 1.390 . S
C1734 C1728 1.465 . S
C1734 C1733 1.396 . S
C1734 C1735 1.399 . S
C1735 H1721 0.929 . S
C1735 C1734 1.399 . S
C1735 C1736 1.385 . S
C1736 H1722 0.931 . S
C1736 C1735 1.385 . S
C1736 C1737 1.389 . S
C1737 C1736 1.389 . S
C1737 C1738 1.387 . S
C1738 H1723 0.930 1_554 S
C1738 C1733 1.390 . S
C1738 C1737 1.387 . S
H1739 C1751 0.930 1_556 S
H1740 C1753 0.930 . S
H1741 C1754 0.930 . S
H1742 C1758 0.959 . S
H1743 C1758 0.959 . S
H1744 C1758 0.961 . S
H1745 C1759 0.960 . S
H1746 C1759 0.961 . S
H1747 C1759 0.959 . S
H1748 C1762 0.929 . S
H1749 C1763 0.931 . S
H1750 C1765 0.930 1_556 S
C1751 H1739 0.930 1_554 S
C1751 C1752 1.399 . S
C1751 C1756 1.399 . S
C1752 C1751 1.399 . S
C1752 C1753 1.376 . S
C1753 H1740 0.930 . S
C1753 C1752 1.376 . S
C1753 C1754 1.388 . S
C1754 H1741 0.930 . S
C1754 C1753 1.388 . S
C1754 C1755 1.390 . S
C1755 C1754 1.390 . S
C1755 C1756 1.394 . S
C1755 C1761 1.465 . S
C1756 C1751 1.399 . S
C1756 C1755 1.394 . S
C1756 C1757 1.516 1_554 S
C1757 C1756 1.516 1_556 S
C1757 C1758 1.502 . S
C1757 C1759 1.561 . S
C1757 C1760 1.526 1_556 S
C1758 H1742 0.959 . S
C1758 H1743 0.959 . S
C1758 H1744 0.961 . S
C1758 C1757 1.502 . S
C1759 H1745 0.960 . S
C1759 H1746 0.961 . S
C1759 H1747 0.959 . S
C1759 C1757 1.561 . S
C1760 C1757 1.526 1_554 S
C1760 C1761 1.396 . S
C1760 C1765 1.390 . S
C1761 C1755 1.465 . S
C1761 C1760 1.396 . S
C1761 C1762 1.399 . S
C1762 H1748 0.929 . S
C1762 C1761 1.399 . S
C1762 C1763 1.385 . S
C1763 H1749 0.931 . S
C1763 C1762 1.385 . S
C1763 C1764 1.389 . S
C1764 C1763 1.389 . S
C1764 C1765 1.387 . S
C1765 H1750 0.930 1_554 S
C1765 C1760 1.390 . S
C1765 C1764 1.387 . S
H1766 C1778 0.930 . S
H1767 C1780 0.930 . S
H1768 C1781 0.930 . S
H1769 C1785 0.959 . S
H1770 C1785 0.959 . S
H1771 C1785 0.961 . S
H1772 C1786 0.960 . S
H1773 C1786 0.961 . S
H1774 C1786 0.959 . S
H1775 C1789 0.929 . S
H1776 C1790 0.931 . S
H1777 C1792 0.930 . S
C1778 H1766 0.930 . S
C1778 C1779 1.399 . S
C1778 C1783 1.399 . S
C1779 C1778 1.399 . S
C1779 C1780 1.376 . S
C1780 H1767 0.930 . S
C1780 C1779 1.376 . S
C1780 C1781 1.388 . S
C1781 H1768 0.930 . S
C1781 C1780 1.388 . S
C1781 C1782 1.390 . S
C1782 C1781 1.390 . S
C1782 C1783 1.394 . S
C1782 C1788 1.465 . S
C1783 C1778 1.399 . S
C1783 C1782 1.394 . S
C1783 C1784 1.516 . S
C1784 C1783 1.516 . S
C1784 C1785 1.502 . S
C1784 C1786 1.561 . S
C1784 C1787 1.526 . S
C1785 H1769 0.959 . S
C1785 H1770 0.959 . S
C1785 H1771 0.961 . S
C1785 C1784 1.502 . S
C1786 H1772 0.960 . S
C1786 H1773 0.961 . S
C1786 H1774 0.959 . S
C1786 C1784 1.561 . S
C1787 C1784 1.526 . S
C1787 C1788 1.396 . S
C1787 C1792 1.390 . S
C1788 C1782 1.465 . S
C1788 C1787 1.396 . S
C1788 C1789 1.399 . S
C1789 H1775 0.929 . S
C1789 C1788 1.399 . S
C1789 C1790 1.385 . S
C1790 H1776 0.931 . S
C1790 C1789 1.385 . S
C1790 C1791 1.389 . S
C1791 C1790 1.389 . S
C1791 C1792 1.387 . S
C1792 H1777 0.930 . S
C1792 C1787 1.390 . S
C1792 C1791 1.387 . S
H1793 C1805 0.930 . S
H1794 C1807 0.930 . S
H1795 C1808 0.930 . S
H1796 C1812 0.959 . S
H1797 C1812 0.959 . S
H1798 C1812 0.961 . S
H1799 C1813 0.960 . S
H1800 C1813 0.961 . S
H1801 C1813 0.959 . S
H1802 C1816 0.929 . S
H1803 C1817 0.931 . S
H1804 C1819 0.930 . S
C1805 H1793 0.930 . S
C1805 C1806 1.399 . S
C1805 C1810 1.399 . S
C1806 C1805 1.399 . S
C1806 C1807 1.376 . S
C1807 H1794 0.930 . S
C1807 C1806 1.376 . S
C1807 C1808 1.388 . S
C1808 H1795 0.930 . S
C1808 C1807 1.388 . S
C1808 C1809 1.390 . S
C1809 C1808 1.390 . S
C1809 C1810 1.394 . S
C1809 C1815 1.465 . S
C1810 C1805 1.399 . S
C1810 C1809 1.394 . S
C1810 C1811 1.516 . S
C1811 C1810 1.516 . S
C1811 C1812 1.502 . S
C1811 C1813 1.561 . S
C1811 C1814 1.526 . S
C1812 H1796 0.959 . S
C1812 H1797 0.959 . S
C1812 H1798 0.961 . S
C1812 C1811 1.502 . S
C1813 H1799 0.960 . S
C1813 H1800 0.961 . S
C1813 H1801 0.959 . S
C1813 C1811 1.561 . S
C1814 C1811 1.526 . S
C1814 C1815 1.396 . S
C1814 C1819 1.390 . S
C1815 C1809 1.465 . S
C1815 C1814 1.396 . S
C1815 C1816 1.399 . S
C1816 H1802 0.929 . S
C1816 C1815 1.399 . S
C1816 C1817 1.385 . S
C1817 H1803 0.931 . S
C1817 C1816 1.385 . S
C1817 C1818 1.389 . S
C1818 C1817 1.389 . S
C1818 C1819 1.387 . S
C1819 H1804 0.930 . S
C1819 C1814 1.390 . S
C1819 C1818 1.387 . S
H1820 C1832 0.930 . S
H1821 C1834 0.930 . S
H1822 C1835 0.930 . S
H1823 C1839 0.959 . S
H1824 C1839 0.959 . S
H1825 C1839 0.961 . S
H1826 C1840 0.960 . S
H1827 C1840 0.961 . S
H1828 C1840 0.959 . S
H1829 C1843 0.929 . S
H1830 C1844 0.931 . S
H1831 C1846 0.930 . S
C1832 H1820 0.930 . S
C1832 C1833 1.399 . S
C1832 C1837 1.399 . S
C1833 C1832 1.399 . S
C1833 C1834 1.376 . S
C1834 H1821 0.930 . S
C1834 C1833 1.376 . S
C1834 C1835 1.388 . S
C1835 H1822 0.930 . S
C1835 C1834 1.388 . S
C1835 C1836 1.390 . S
C1836 C1835 1.390 . S
C1836 C1837 1.394 . S
C1836 C1842 1.465 . S
C1837 C1832 1.399 . S
C1837 C1836 1.394 . S
C1837 C1838 1.516 . S
C1838 C1837 1.516 . S
C1838 C1839 1.502 . S
C1838 C1840 1.561 . S
C1838 C1841 1.526 . S
C1839 H1823 0.959 . S
C1839 H1824 0.959 . S
C1839 H1825 0.961 . S
C1839 C1838 1.502 . S
C1840 H1826 0.960 . S
C1840 H1827 0.961 . S
C1840 H1828 0.959 . S
C1840 C1838 1.561 . S
C1841 C1838 1.526 . S
C1841 C1842 1.396 . S
C1841 C1846 1.390 . S
C1842 C1836 1.465 . S
C1842 C1841 1.396 . S
C1842 C1843 1.399 . S
C1843 H1829 0.929 . S
C1843 C1842 1.399 . S
C1843 C1844 1.385 . S
C1844 H1830 0.931 . S
C1844 C1843 1.385 . S
C1844 C1845 1.389 . S
C1845 C1844 1.389 . S
C1845 C1846 1.387 . S
C1846 H1831 0.930 . S
C1846 C1841 1.390 . S
C1846 C1845 1.387 . S
H1847 C1859 0.930 . S
H1848 C1861 0.930 . S
H1849 C1862 0.930 . S
H1850 C1866 0.959 . S
H1851 C1866 0.959 . S
H1852 C1866 0.961 . S
H1853 C1867 0.960 . S
H1854 C1867 0.961 . S
H1855 C1867 0.959 . S
H1856 C1870 0.929 . S
H1857 C1871 0.931 . S
H1858 C1873 0.930 . S
C1859 H1847 0.930 . S
C1859 C1860 1.399 . S
C1859 C1864 1.399 . S
C1860 C1859 1.399 . S
C1860 C1861 1.376 . S
C1861 H1848 0.930 . S
C1861 C1860 1.376 . S
C1861 C1862 1.388 . S
C1862 H1849 0.930 . S
C1862 C1861 1.388 . S
C1862 C1863 1.390 . S
C1863 C1862 1.390 . S
C1863 C1864 1.394 . S
C1863 C1869 1.465 . S
C1864 C1859 1.399 . S
C1864 C1863 1.394 . S
C1864 C1865 1.516 . S
C1865 C1864 1.516 . S
C1865 C1866 1.502 . S
C1865 C1867 1.561 . S
C1865 C1868 1.526 . S
C1866 H1850 0.959 . S
C1866 H1851 0.959 . S
C1866 H1852 0.961 . S
C1866 C1865 1.502 . S
C1867 H1853 0.960 . S
C1867 H1854 0.961 . S
C1867 H1855 0.959 . S
C1867 C1865 1.561 . S
C1868 C1865 1.526 . S
C1868 C1869 1.396 . S
C1868 C1873 1.390 . S
C1869 C1863 1.465 . S
C1869 C1868 1.396 . S
C1869 C1870 1.399 . S
C1870 H1856 0.929 . S
C1870 C1869 1.399 . S
C1870 C1871 1.385 . S
C1871 H1857 0.931 . S
C1871 C1870 1.385 . S
C1871 C1872 1.389 . S
C1872 C1871 1.389 . S
C1872 C1873 1.387 . S
C1873 H1858 0.930 . S
C1873 C1868 1.390 . S
C1873 C1872 1.387 . S
H1874 C1886 0.930 . S
H1875 C1888 0.930 . S
H1876 C1889 0.930 . S
H1877 C1893 0.959 . S
H1878 C1893 0.959 . S
H1879 C1893 0.961 . S
H1880 C1894 0.960 . S
H1881 C1894 0.961 . S
H1882 C1894 0.959 . S
H1883 C1897 0.929 . S
H1884 C1898 0.931 . S
H1885 C1900 0.930 . S
C1886 H1874 0.930 . S
C1886 C1887 1.399 . S
C1886 C1891 1.399 . S
C1887 C1886 1.399 . S
C1887 C1888 1.376 . S
C1888 H1875 0.930 . S
C1888 C1887 1.376 . S
C1888 C1889 1.388 . S
C1889 H1876 0.930 . S
C1889 C1888 1.388 . S
C1889 C1890 1.390 . S
C1890 C1889 1.390 . S
C1890 C1891 1.394 . S
C1890 C1896 1.465 . S
C1891 C1886 1.399 . S
C1891 C1890 1.394 . S
C1891 C1892 1.516 . S
C1892 C1891 1.516 . S
C1892 C1893 1.502 . S
C1892 C1894 1.561 . S
C1892 C1895 1.526 . S
C1893 H1877 0.959 . S
C1893 H1878 0.959 . S
C1893 H1879 0.961 . S
C1893 C1892 1.502 . S
C1894 H1880 0.960 . S
C1894 H1881 0.961 . S
C1894 H1882 0.959 . S
C1894 C1892 1.561 . S
C1895 C1892 1.526 . S
C1895 C1896 1.396 . S
C1895 C1900 1.390 . S
C1896 C1890 1.465 . S
C1896 C1895 1.396 . S
C1896 C1897 1.399 . S
C1897 H1883 0.929 . S
C1897 C1896 1.399 . S
C1897 C1898 1.385 . S
C1898 H1884 0.931 . S
C1898 C1897 1.385 . S
C1898 C1899 1.389 . S
C1899 C1898 1.389 . S
C1899 C1900 1.387 . S
C1900 H1885 0.930 . S
C1900 C1895 1.390 . S
C1900 C1899 1.387 . S
H1901 C1913 0.930 . S
H1902 C1915 0.930 . S
H1903 C1916 0.930 . S
H1904 C1920 0.959 . S
H1905 C1920 0.959 . S
H1906 C1920 0.961 . S
H1907 C1921 0.960 . S
H1908 C1921 0.961 . S
H1909 C1921 0.959 . S
H1910 C1924 0.929 . S
H1911 C1925 0.931 . S
H1912 C1927 0.930 . S
C1913 H1901 0.930 . S
C1913 C1914 1.399 . S
C1913 C1918 1.399 . S
C1914 C1913 1.399 . S
C1914 C1915 1.376 . S
C1915 H1902 0.930 . S
C1915 C1914 1.376 . S
C1915 C1916 1.388 . S
C1916 H1903 0.930 . S
C1916 C1915 1.388 . S
C1916 C1917 1.390 . S
C1917 C1916 1.390 . S
C1917 C1918 1.394 . S
C1917 C1923 1.465 . S
C1918 C1913 1.399 . S
C1918 C1917 1.394 . S
C1918 C1919 1.516 . S
C1919 C1918 1.516 . S
C1919 C1920 1.502 . S
C1919 C1921 1.561 . S
C1919 C1922 1.526 . S
C1920 H1904 0.959 . S
C1920 H1905 0.959 . S
C1920 H1906 0.961 . S
C1920 C1919 1.502 . S
C1921 H1907 0.960 . S
C1921 H1908 0.961 . S
C1921 H1909 0.959 . S
C1921 C1919 1.561 . S
C1922 C1919 1.526 . S
C1922 C1923 1.396 . S
C1922 C1927 1.390 . S
C1923 C1917 1.465 . S
C1923 C1922 1.396 . S
C1923 C1924 1.399 . S
C1924 H1910 0.929 . S
C1924 C1923 1.399 . S
C1924 C1925 1.385 . S
C1925 H1911 0.931 . S
C1925 C1924 1.385 . S
C1925 C1926 1.389 . S
C1926 C1925 1.389 . S
C1926 C1927 1.387 . S
C1927 H1912 0.930 . S
C1927 C1922 1.390 . S
C1927 C1926 1.387 . S
H1928 C1940 0.930 . S
H1929 C1942 0.930 . S
H1930 C1943 0.930 . S
H1931 C1947 0.959 . S
H1932 C1947 0.959 . S
H1933 C1947 0.961 . S
H1934 C1948 0.960 . S
H1935 C1948 0.961 . S
H1936 C1948 0.959 . S
H1937 C1951 0.929 . S
H1938 C1952 0.931 . S
H1939 C1954 0.930 . S
C1940 H1928 0.930 . S
C1940 C1941 1.399 . S
C1940 C1945 1.399 . S
C1941 C1940 1.399 . S
C1941 C1942 1.376 . S
C1942 H1929 0.930 . S
C1942 C1941 1.376 . S
C1942 C1943 1.388 . S
C1943 H1930 0.930 . S
C1943 C1942 1.388 . S
C1943 C1944 1.390 . S
C1944 C1943 1.390 . S
C1944 C1945 1.394 . S
C1944 C1950 1.465 . S
C1945 C1940 1.399 . S
C1945 C1944 1.394 . S
C1945 C1946 1.516 . S
C1946 C1945 1.516 . S
C1946 C1947 1.502 . S
C1946 C1948 1.561 . S
C1946 C1949 1.526 . S
C1947 H1931 0.959 . S
C1947 H1932 0.959 . S
C1947 H1933 0.961 . S
C1947 C1946 1.502 . S
C1948 H1934 0.960 . S
C1948 H1935 0.961 . S
C1948 H1936 0.959 . S
C1948 C1946 1.561 . S
C1949 C1946 1.526 . S
C1949 C1950 1.396 . S
C1949 C1954 1.390 . S
C1950 C1944 1.465 . S
C1950 C1949 1.396 . S
C1950 C1951 1.399 . S
C1951 H1937 0.929 . S
C1951 C1950 1.399 . S
C1951 C1952 1.385 . S
C1952 H1938 0.931 . S
C1952 C1951 1.385 . S
C1952 C1953 1.389 . S
C1953 C1952 1.389 . S
C1953 C1954 1.387 . S
C1954 H1939 0.930 . S
C1954 C1949 1.390 . S
C1954 C1953 1.387 . S
H1955 C1967 0.930 . S
H1956 C1969 0.930 . S
H1957 C1970 0.930 . S
H1958 C1974 0.959 . S
H1959 C1974 0.959 . S
H1960 C1974 0.961 . S
H1961 C1975 0.960 . S
H1962 C1975 0.961 . S
H1963 C1975 0.959 . S
H1964 C1978 0.929 . S
H1965 C1979 0.931 . S
H1966 C1981 0.930 . S
C1967 H1955 0.930 . S
C1967 C1968 1.399 . S
C1967 C1972 1.399 . S
C1968 C1967 1.399 . S
C1968 C1969 1.376 . S
C1969 H1956 0.930 . S
C1969 C1968 1.376 . S
C1969 C1970 1.388 . S
C1970 H1957 0.930 . S
C1970 C1969 1.388 . S
C1970 C1971 1.390 . S
C1971 C1970 1.390 . S
C1971 C1972 1.394 . S
C1971 C1977 1.465 . S
C1972 C1967 1.399 . S
C1972 C1971 1.394 . S
C1972 C1973 1.516 . S
C1973 C1972 1.516 . S
C1973 C1974 1.502 . S
C1973 C1975 1.561 . S
C1973 C1976 1.526 . S
C1974 H1958 0.959 . S
C1974 H1959 0.959 . S
C1974 H1960 0.961 . S
C1974 C1973 1.502 . S
C1975 H1961 0.960 . S
C1975 H1962 0.961 . S
C1975 H1963 0.959 . S
C1975 C1973 1.561 . S
C1976 C1973 1.526 . S
C1976 C1977 1.396 . S
C1976 C1981 1.390 . S
C1977 C1971 1.465 . S
C1977 C1976 1.396 . S
C1977 C1978 1.399 . S
C1978 H1964 0.929 . S
C1978 C1977 1.399 . S
C1978 C1979 1.385 . S
C1979 H1965 0.931 . S
C1979 C1978 1.385 . S
C1979 C1980 1.389 . S
C1980 C1979 1.389 . S
C1980 C1981 1.387 . S
C1981 H1966 0.930 . S
C1981 C1976 1.390 . S
C1981 C1980 1.387 . S
H1982 C1994 0.930 . S
H1983 C1996 0.930 . S
H1984 C1997 0.930 . S
H1985 C2001 0.959 . S
H1986 C2001 0.959 . S
H1987 C2001 0.961 . S
H1988 C2002 0.960 . S
H1989 C2002 0.961 . S
H1990 C2002 0.959 1_655 S
H1991 C2005 0.929 1_554 S
H1992 C2006 0.931 . S
H1993 C2008 0.930 . S
C1994 H1982 0.930 . S
C1994 C1995 1.399 . S
C1994 C1999 1.399 . S
C1995 C1994 1.399 . S
C1995 C1996 1.376 1_455 S
C1996 H1983 0.930 . S
C1996 C1995 1.376 1_655 S
C1996 C1997 1.388 . S
C1997 H1984 0.930 . S
C1997 C1996 1.388 . S
C1997 C1998 1.390 . S
C1998 C1997 1.390 . S
C1998 C1999 1.392 1_655 S
C1998 C2004 1.466 . S
C1999 C1994 1.399 . S
C1999 C1998 1.392 1_455 S
C1999 C2000 1.516 . S
C2000 C1999 1.516 . S
C2000 C2001 1.502 . S
C2000 C2002 1.561 . S
C2000 C2003 1.526 . S
C2001 H1985 0.959 . S
C2001 H1986 0.959 . S
C2001 H1987 0.961 . S
C2001 C2000 1.502 . S
C2002 H1988 0.960 . S
C2002 H1989 0.961 . S
C2002 H1990 0.959 1_455 S
C2002 C2000 1.561 . S
C2003 C2000 1.526 . S
C2003 C2004 1.396 1_455 S
C2003 C2008 1.390 . S
C2004 C1998 1.466 . S
C2004 C2003 1.396 1_655 S
C2004 C2005 1.399 . S
C2005 H1991 0.929 1_556 S
C2005 C2004 1.399 . S
C2005 C2006 1.385 1_556 S
C2006 H1992 0.931 . S
C2006 C2005 1.385 1_554 S
C2006 C2007 1.389 1_554 S
C2007 C2006 1.389 1_556 S
C2007 C2008 1.387 1_655 S
C2008 H1993 0.930 . S
C2008 C2003 1.390 . S
C2008 C2007 1.387 1_455 S
H2009 C2021 0.930 . S
H2010 C2023 0.930 . S
H2011 C2024 0.930 . S
H2012 C2028 0.959 . S
H2013 C2028 0.959 . S
H2014 C2028 0.961 . S
H2015 C2029 0.960 . S
H2016 C2029 0.961 . S
H2017 C2029 0.959 . S
H2018 C2032 0.929 . S
H2019 C2033 0.931 . S
H2020 C2035 0.930 . S
C2021 H2009 0.930 . S
C2021 C2022 1.399 . S
C2021 C2026 1.399 . S
C2022 C2021 1.399 . S
C2022 C2023 1.376 . S
C2023 H2010 0.930 . S
C2023 C2022 1.376 . S
C2023 C2024 1.388 . S
C2024 H2011 0.930 . S
C2024 C2023 1.388 . S
C2024 C2025 1.390 . S
C2025 C2024 1.390 . S
C2025 C2026 1.394 . S
C2025 C2031 1.465 . S
C2026 C2021 1.399 . S
C2026 C2025 1.394 . S
C2026 C2027 1.516 . S
C2027 C2026 1.516 . S
C2027 C2028 1.502 . S
C2027 C2029 1.561 . S
C2027 C2030 1.526 . S
C2028 H2012 0.959 . S
C2028 H2013 0.959 . S
C2028 H2014 0.961 . S
C2028 C2027 1.502 . S
C2029 H2015 0.960 . S
C2029 H2016 0.961 . S
C2029 H2017 0.959 . S
C2029 C2027 1.561 . S
C2030 C2027 1.526 . S
C2030 C2031 1.396 . S
C2030 C2035 1.390 . S
C2031 C2025 1.465 . S
C2031 C2030 1.396 . S
C2031 C2032 1.399 . S
C2032 H2018 0.929 . S
C2032 C2031 1.399 . S
C2032 C2033 1.385 . S
C2033 H2019 0.931 . S
C2033 C2032 1.385 . S
C2033 C2034 1.389 . S
C2034 C2033 1.389 . S
C2034 C2035 1.387 . S
C2035 H2020 0.930 . S
C2035 C2030 1.390 . S
C2035 C2034 1.387 . S
H2036 C2048 0.930 . S
H2037 C2050 0.930 . S
H2038 C2051 0.930 . S
H2039 C2055 0.959 . S
H2040 C2055 0.959 . S
H2041 C2055 0.961 . S
H2042 C2056 0.960 . S
H2043 C2056 0.961 . S
H2044 C2056 0.959 . S
H2045 C2059 0.929 . S
H2046 C2060 0.931 . S
H2047 C2062 0.930 . S
C2048 H2036 0.930 . S
C2048 C2049 1.399 . S
C2048 C2053 1.399 . S
C2049 C2048 1.399 . S
C2049 C2050 1.376 . S
C2050 H2037 0.930 . S
C2050 C2049 1.376 . S
C2050 C2051 1.388 . S
C2051 H2038 0.930 . S
C2051 C2050 1.388 . S
C2051 C2052 1.390 . S
C2052 C2051 1.390 . S
C2052 C2053 1.394 . S
C2052 C2058 1.465 . S
C2053 C2048 1.399 . S
C2053 C2052 1.394 . S
C2053 C2054 1.516 . S
C2054 C2053 1.516 . S
C2054 C2055 1.502 . S
C2054 C2056 1.561 . S
C2054 C2057 1.526 . S
C2055 H2039 0.959 . S
C2055 H2040 0.959 . S
C2055 H2041 0.961 . S
C2055 C2054 1.502 . S
C2056 H2042 0.960 . S
C2056 H2043 0.961 . S
C2056 H2044 0.959 . S
C2056 C2054 1.561 . S
C2057 C2054 1.526 . S
C2057 C2058 1.396 . S
C2057 C2062 1.390 . S
C2058 C2052 1.465 . S
C2058 C2057 1.396 . S
C2058 C2059 1.399 . S
C2059 H2045 0.929 . S
C2059 C2058 1.399 . S
C2059 C2060 1.385 . S
C2060 H2046 0.931 . S
C2060 C2059 1.385 . S
C2060 C2061 1.389 . S
C2061 C2060 1.389 . S
C2061 C2062 1.387 . S
C2062 H2047 0.930 . S
C2062 C2057 1.390 . S
C2062 C2061 1.387 . S
H2063 C2075 0.930 . S
H2064 C2077 0.930 . S
H2065 C2078 0.930 . S
H2066 C2082 0.959 . S
H2067 C2082 0.959 . S
H2068 C2082 0.961 . S
H2069 C2083 0.960 . S
H2070 C2083 0.961 . S
H2071 C2083 0.959 . S
H2072 C2086 0.929 . S
H2073 C2087 0.931 . S
H2074 C2089 0.930 . S
C2075 H2063 0.930 . S
C2075 C2076 1.399 . S
C2075 C2080 1.399 . S
C2076 C2075 1.399 . S
C2076 C2077 1.376 . S
C2077 H2064 0.930 . S
C2077 C2076 1.376 . S
C2077 C2078 1.388 . S
C2078 H2065 0.930 . S
C2078 C2077 1.388 . S
C2078 C2079 1.390 . S
C2079 C2078 1.390 . S
C2079 C2080 1.394 . S
C2079 C2085 1.465 . S
C2080 C2075 1.399 . S
C2080 C2079 1.394 . S
C2080 C2081 1.516 . S
C2081 C2080 1.516 . S
C2081 C2082 1.502 . S
C2081 C2083 1.561 . S
C2081 C2084 1.526 . S
C2082 H2066 0.959 . S
C2082 H2067 0.959 . S
C2082 H2068 0.961 . S
C2082 C2081 1.502 . S
C2083 H2069 0.960 . S
C2083 H2070 0.961 . S
C2083 H2071 0.959 . S
C2083 C2081 1.561 . S
C2084 C2081 1.526 . S
C2084 C2085 1.396 . S
C2084 C2089 1.390 . S
C2085 C2079 1.465 . S
C2085 C2084 1.396 . S
C2085 C2086 1.399 . S
C2086 H2072 0.929 . S
C2086 C2085 1.399 . S
C2086 C2087 1.385 . S
C2087 H2073 0.931 . S
C2087 C2086 1.385 . S
C2087 C2088 1.389 . S
C2088 C2087 1.389 . S
C2088 C2089 1.387 . S
C2089 H2074 0.930 . S
C2089 C2084 1.390 . S
C2089 C2088 1.387 . S
H2090 C2102 0.930 . S
H2091 C2104 0.930 . S
H2092 C2105 0.930 . S
H2093 C2109 0.959 . S
H2094 C2109 0.959 . S
H2095 C2109 0.961 . S
H2096 C2110 0.960 . S
H2097 C2110 0.961 . S
H2098 C2110 0.959 1_455 S
H2099 C2113 0.929 . S
H2100 C2114 0.931 . S
H2101 C2116 0.930 . S
C2102 H2090 0.930 . S
C2102 C2103 1.399 . S
C2102 C2107 1.399 . S
C2103 C2102 1.399 . S
C2103 C2104 1.376 1_655 S
C2104 H2091 0.930 . S
C2104 C2103 1.376 1_455 S
C2104 C2105 1.388 . S
C2105 H2092 0.930 . S
C2105 C2104 1.388 . S
C2105 C2106 1.390 . S
C2106 C2105 1.390 . S
C2106 C2107 1.394 1_455 S
C2106 C2112 1.465 . S
C2107 C2102 1.399 . S
C2107 C2106 1.394 1_655 S
C2107 C2108 1.516 . S
C2108 C2107 1.516 . S
C2108 C2109 1.502 . S
C2108 C2110 1.561 . S
C2108 C2111 1.526 . S
C2109 H2093 0.959 . S
C2109 H2094 0.959 . S
C2109 H2095 0.961 . S
C2109 C2108 1.502 . S
C2110 H2096 0.960 . S
C2110 H2097 0.961 . S
C2110 H2098 0.959 1_655 S
C2110 C2108 1.561 . S
C2111 C2108 1.526 . S
C2111 C2112 1.396 1_655 S
C2111 C2116 1.390 . S
C2112 C2106 1.465 . S
C2112 C2111 1.396 1_455 S
C2112 C2113 1.399 . S
C2113 H2099 0.929 . S
C2113 C2112 1.399 . S
C2113 C2114 1.385 . S
C2114 H2100 0.931 . S
C2114 C2113 1.385 . S
C2114 C2115 1.389 1_455 S
C2115 C2114 1.389 1_655 S
C2115 C2116 1.387 . S
C2116 H2101 0.930 . S
C2116 C2111 1.390 . S
C2116 C2115 1.387 . S
H2117 C2129 0.930 . S
H2118 C2131 0.930 . S
H2119 C2132 0.930 . S
H2120 C2136 0.959 . S
H2121 C2136 0.959 . S
H2122 C2136 0.961 . S
H2123 C2137 0.960 . S
H2124 C2137 0.961 . S
H2125 C2137 0.959 . S
H2126 C2140 0.929 . S
H2127 C2141 0.931 . S
H2128 C2143 0.930 . S
C2129 H2117 0.930 . S
C2129 C2130 1.399 . S
C2129 C2134 1.399 . S
C2130 C2129 1.399 . S
C2130 C2131 1.376 . S
C2131 H2118 0.930 . S
C2131 C2130 1.376 . S
C2131 C2132 1.388 . S
C2132 H2119 0.930 . S
C2132 C2131 1.388 . S
C2132 C2133 1.390 . S
C2133 C2132 1.390 . S
C2133 C2134 1.394 . S
C2133 C2139 1.465 . S
C2134 C2129 1.399 . S
C2134 C2133 1.394 . S
C2134 C2135 1.516 . S
C2135 C2134 1.516 . S
C2135 C2136 1.502 . S
C2135 C2137 1.561 . S
C2135 C2138 1.526 . S
C2136 H2120 0.959 . S
C2136 H2121 0.959 . S
C2136 H2122 0.961 . S
C2136 C2135 1.502 . S
C2137 H2123 0.960 . S
C2137 H2124 0.961 . S
C2137 H2125 0.959 . S
C2137 C2135 1.561 . S
C2138 C2135 1.526 . S
C2138 C2139 1.396 . S
C2138 C2143 1.390 . S
C2139 C2133 1.465 . S
C2139 C2138 1.396 . S
C2139 C2140 1.399 . S
C2140 H2126 0.929 . S
C2140 C2139 1.399 . S
C2140 C2141 1.385 . S
C2141 H2127 0.931 . S
C2141 C2140 1.385 . S
C2141 C2142 1.389 . S
C2142 C2141 1.389 . S
C2142 C2143 1.387 . S
C2143 H2128 0.930 . S
C2143 C2138 1.390 . S
C2143 C2142 1.387 . S
H2144 C2156 0.930 . S
H2145 C2158 0.930 . S
H2146 C2159 0.930 . S
H2147 C2163 0.959 . S
H2148 C2163 0.959 . S
H2149 C2163 0.961 . S
H2150 C2164 0.960 . S
H2151 C2164 0.961 . S
H2152 C2164 0.959 . S
H2153 C2167 0.929 . S
H2154 C2168 0.931 . S
H2155 C2170 0.930 . S
C2156 H2144 0.930 . S
C2156 C2157 1.399 . S
C2156 C2161 1.399 . S
C2157 C2156 1.399 . S
C2157 C2158 1.376 . S
C2158 H2145 0.930 . S
C2158 C2157 1.376 . S
C2158 C2159 1.388 . S
C2159 H2146 0.930 . S
C2159 C2158 1.388 . S
C2159 C2160 1.390 . S
C2160 C2159 1.390 . S
C2160 C2161 1.394 . S
C2160 C2166 1.465 . S
C2161 C2156 1.399 . S
C2161 C2160 1.394 . S
C2161 C2162 1.516 . S
C2162 C2161 1.516 . S
C2162 C2163 1.502 . S
C2162 C2164 1.561 . S
C2162 C2165 1.526 . S
C2163 H2147 0.959 . S
C2163 H2148 0.959 . S
C2163 H2149 0.961 . S
C2163 C2162 1.502 . S
C2164 H2150 0.960 . S
C2164 H2151 0.961 . S
C2164 H2152 0.959 . S
C2164 C2162 1.561 . S
C2165 C2162 1.526 . S
C2165 C2166 1.396 . S
C2165 C2170 1.390 . S
C2166 C2160 1.465 . S
C2166 C2165 1.396 . S
C2166 C2167 1.399 . S
C2167 H2153 0.929 . S
C2167 C2166 1.399 . S
C2167 C2168 1.385 . S
C2168 H2154 0.931 . S
C2168 C2167 1.385 . S
C2168 C2169 1.389 . S
C2169 C2168 1.389 . S
C2169 C2170 1.387 . S
C2170 H2155 0.930 . S
C2170 C2165 1.390 . S
C2170 C2169 1.387 . S
H2171 C2183 0.930 . S
H2172 C2185 0.930 . S
H2173 C2186 0.930 . S
H2174 C2190 0.959 . S
H2175 C2190 0.959 . S
H2176 C2190 0.961 . S
H2177 C2191 0.960 . S
H2178 C2191 0.961 . S
H2179 C2191 0.959 . S
H2180 C2194 0.929 . S
H2181 C2195 0.931 . S
H2182 C2197 0.930 . S
C2183 H2171 0.930 . S
C2183 C2184 1.399 . S
C2183 C2188 1.399 . S
C2184 C2183 1.399 . S
C2184 C2185 1.376 . S
C2185 H2172 0.930 . S
C2185 C2184 1.376 . S
C2185 C2186 1.388 . S
C2186 H2173 0.930 . S
C2186 C2185 1.388 . S
C2186 C2187 1.390 . S
C2187 C2186 1.390 . S
C2187 C2188 1.394 . S
C2187 C2193 1.465 . S
C2188 C2183 1.399 . S
C2188 C2187 1.394 . S
C2188 C2189 1.516 . S
C2189 C2188 1.516 . S
C2189 C2190 1.502 . S
C2189 C2191 1.561 . S
C2189 C2192 1.526 . S
C2190 H2174 0.959 . S
C2190 H2175 0.959 . S
C2190 H2176 0.961 . S
C2190 C2189 1.502 . S
C2191 H2177 0.960 . S
C2191 H2178 0.961 . S
C2191 H2179 0.959 . S
C2191 C2189 1.561 . S
C2192 C2189 1.526 . S
C2192 C2193 1.396 . S
C2192 C2197 1.390 . S
C2193 C2187 1.465 . S
C2193 C2192 1.396 . S
C2193 C2194 1.399 . S
C2194 H2180 0.929 . S
C2194 C2193 1.399 . S
C2194 C2195 1.385 . S
C2195 H2181 0.931 . S
C2195 C2194 1.385 . S
C2195 C2196 1.389 . S
C2196 C2195 1.389 . S
C2196 C2197 1.387 . S
C2197 H2182 0.930 . S
C2197 C2192 1.390 . S
C2197 C2196 1.387 . S
H2198 C2210 0.930 . S
H2199 C2212 0.930 . S
H2200 C2213 0.930 . S
H2201 C2217 0.959 . S
H2202 C2217 0.959 . S
H2203 C2217 0.961 . S
H2204 C2218 0.960 . S
H2205 C2218 0.961 . S
H2206 C2218 0.959 . S
H2207 C2221 0.929 . S
H2208 C2222 0.931 . S
H2209 C2224 0.930 . S
C2210 H2198 0.930 . S
C2210 C2211 1.399 . S
C2210 C2215 1.399 . S
C2211 C2210 1.399 . S
C2211 C2212 1.376 . S
C2212 H2199 0.930 . S
C2212 C2211 1.376 . S
C2212 C2213 1.388 . S
C2213 H2200 0.930 . S
C2213 C2212 1.388 . S
C2213 C2214 1.390 . S
C2214 C2213 1.390 . S
C2214 C2215 1.394 . S
C2214 C2220 1.465 . S
C2215 C2210 1.399 . S
C2215 C2214 1.394 . S
C2215 C2216 1.516 . S
C2216 C2215 1.516 . S
C2216 C2217 1.502 . S
C2216 C2218 1.561 . S
C2216 C2219 1.526 . S
C2217 H2201 0.959 . S
C2217 H2202 0.959 . S
C2217 H2203 0.961 . S
C2217 C2216 1.502 . S
C2218 H2204 0.960 . S
C2218 H2205 0.961 . S
C2218 H2206 0.959 . S
C2218 C2216 1.561 . S
C2219 C2216 1.526 . S
C2219 C2220 1.396 . S
C2219 C2224 1.390 . S
C2220 C2214 1.465 . S
C2220 C2219 1.396 . S
C2220 C2221 1.399 . S
C2221 H2207 0.929 . S
C2221 C2220 1.399 . S
C2221 C2222 1.385 . S
C2222 H2208 0.931 . S
C2222 C2221 1.385 . S
C2222 C2223 1.389 . S
C2223 C2222 1.389 . S
C2223 C2224 1.387 . S
C2224 H2209 0.930 . S
C2224 C2219 1.390 . S
C2224 C2223 1.387 . S
H2225 C2237 0.930 . S
H2226 C2239 0.930 . S
H2227 C2240 0.930 . S
H2228 C2244 0.959 . S
H2229 C2244 0.959 . S
H2230 C2244 0.961 . S
H2231 C2245 0.960 . S
H2232 C2245 0.961 . S
H2233 C2245 0.959 . S
H2234 C2248 0.929 . S
H2235 C2249 0.931 . S
H2236 C2251 0.930 . S
C2237 H2225 0.930 . S
C2237 C2238 1.399 . S
C2237 C2242 1.399 . S
C2238 C2237 1.399 . S
C2238 C2239 1.376 . S
C2239 H2226 0.930 . S
C2239 C2238 1.376 . S
C2239 C2240 1.388 . S
C2240 H2227 0.930 . S
C2240 C2239 1.388 . S
C2240 C2241 1.390 . S
C2241 C2240 1.390 . S
C2241 C2242 1.394 . S
C2241 C2247 1.465 . S
C2242 C2237 1.399 . S
C2242 C2241 1.394 . S
C2242 C2243 1.516 . S
C2243 C2242 1.516 . S
C2243 C2244 1.502 . S
C2243 C2245 1.561 . S
C2243 C2246 1.526 . S
C2244 H2228 0.959 . S
C2244 H2229 0.959 . S
C2244 H2230 0.961 . S
C2244 C2243 1.502 . S
C2245 H2231 0.960 . S
C2245 H2232 0.961 . S
C2245 H2233 0.959 . S
C2245 C2243 1.561 . S
C2246 C2243 1.526 . S
C2246 C2247 1.396 . S
C2246 C2251 1.390 . S
C2247 C2241 1.465 . S
C2247 C2246 1.396 . S
C2247 C2248 1.399 . S
C2248 H2234 0.929 . S
C2248 C2247 1.399 . S
C2248 C2249 1.385 . S
C2249 H2235 0.931 . S
C2249 C2248 1.385 . S
C2249 C2250 1.389 . S
C2250 C2249 1.389 . S
C2250 C2251 1.387 . S
C2251 H2236 0.930 . S
C2251 C2246 1.390 . S
C2251 C2250 1.387 . S
H2252 C2264 0.930 . S
H2253 C2266 0.930 . S
H2254 C2267 0.930 . S
H2255 C2271 0.959 . S
H2256 C2271 0.959 . S
H2257 C2271 0.961 . S
H2258 C2272 0.960 . S
H2259 C2272 0.961 . S
H2260 C2272 0.959 . S
H2261 C2275 0.929 . S
H2262 C2276 0.931 . S
H2263 C2278 0.930 . S
C2264 H2252 0.930 . S
C2264 C2265 1.399 . S
C2264 C2269 1.399 . S
C2265 C2264 1.399 . S
C2265 C2266 1.376 . S
C2266 H2253 0.930 . S
C2266 C2265 1.376 . S
C2266 C2267 1.388 . S
C2267 H2254 0.930 . S
C2267 C2266 1.388 . S
C2267 C2268 1.390 . S
C2268 C2267 1.390 . S
C2268 C2269 1.394 . S
C2268 C2274 1.465 . S
C2269 C2264 1.399 . S
C2269 C2268 1.394 . S
C2269 C2270 1.516 . S
C2270 C2269 1.516 . S
C2270 C2271 1.502 . S
C2270 C2272 1.561 . S
C2270 C2273 1.526 . S
C2271 H2255 0.959 . S
C2271 H2256 0.959 . S
C2271 H2257 0.961 . S
C2271 C2270 1.502 . S
C2272 H2258 0.960 . S
C2272 H2259 0.961 . S
C2272 H2260 0.959 . S
C2272 C2270 1.561 . S
C2273 C2270 1.526 . S
C2273 C2274 1.396 . S
C2273 C2278 1.390 . S
C2274 C2268 1.465 . S
C2274 C2273 1.396 . S
C2274 C2275 1.399 . S
C2275 H2261 0.929 . S
C2275 C2274 1.399 . S
C2275 C2276 1.385 . S
C2276 H2262 0.931 . S
C2276 C2275 1.385 . S
C2276 C2277 1.389 . S
C2277 C2276 1.389 . S
C2277 C2278 1.387 . S
C2278 H2263 0.930 . S
C2278 C2273 1.390 . S
C2278 C2277 1.387 . S
H2279 C2291 0.930 . S
H2280 C2293 0.930 . S
H2281 C2294 0.930 . S
H2282 C2298 0.959 . S
H2283 C2298 0.959 . S
H2284 C2298 0.961 . S
H2285 C2299 0.960 . S
H2286 C2299 0.961 . S
H2287 C2299 0.959 . S
H2288 C2302 0.929 . S
H2289 C2303 0.931 . S
H2290 C2305 0.930 . S
C2291 H2279 0.930 . S
C2291 C2292 1.399 . S
C2291 C2296 1.399 . S
C2292 C2291 1.399 . S
C2292 C2293 1.376 . S
C2293 H2280 0.930 . S
C2293 C2292 1.376 . S
C2293 C2294 1.388 . S
C2294 H2281 0.930 . S
C2294 C2293 1.388 . S
C2294 C2295 1.390 . S
C2295 C2294 1.390 . S
C2295 C2296 1.394 . S
C2295 C2301 1.465 . S
C2296 C2291 1.399 . S
C2296 C2295 1.394 . S
C2296 C2297 1.516 . S
C2297 C2296 1.516 . S
C2297 C2298 1.502 . S
C2297 C2299 1.561 . S
C2297 C2300 1.526 . S
C2298 H2282 0.959 . S
C2298 H2283 0.959 . S
C2298 H2284 0.961 . S
C2298 C2297 1.502 . S
C2299 H2285 0.960 . S
C2299 H2286 0.961 . S
C2299 H2287 0.959 . S
C2299 C2297 1.561 . S
C2300 C2297 1.526 . S
C2300 C2301 1.396 . S
C2300 C2305 1.390 . S
C2301 C2295 1.465 . S
C2301 C2300 1.396 . S
C2301 C2302 1.399 . S
C2302 H2288 0.929 . S
C2302 C2301 1.399 . S
C2302 C2303 1.385 . S
C2303 H2289 0.931 . S
C2303 C2302 1.385 . S
C2303 C2304 1.389 . S
C2304 C2303 1.389 . S
C2304 C2305 1.387 . S
C2305 H2290 0.930 . S
C2305 C2300 1.390 . S
C2305 C2304 1.387 . S
H2306 C2318 0.930 . S
H2307 C2320 0.930 . S
H2308 C2321 0.930 . S
H2309 C2325 0.959 . S
H2310 C2325 0.959 . S
H2311 C2325 0.961 . S
H2312 C2326 0.960 . S
H2313 C2326 0.961 . S
H2314 C2326 0.959 . S
H2315 C2329 0.929 . S
H2316 C2330 0.931 . S
H2317 C2332 0.930 . S
C2318 H2306 0.930 . S
C2318 C2319 1.399 . S
C2318 C2323 1.399 . S
C2319 C2318 1.399 . S
C2319 C2320 1.376 . S
C2320 H2307 0.930 . S
C2320 C2319 1.376 . S
C2320 C2321 1.388 . S
C2321 H2308 0.930 . S
C2321 C2320 1.388 . S
C2321 C2322 1.390 . S
C2322 C2321 1.390 . S
C2322 C2323 1.394 . S
C2322 C2328 1.465 . S
C2323 C2318 1.399 . S
C2323 C2322 1.394 . S
C2323 C2324 1.516 . S
C2324 C2323 1.516 . S
C2324 C2325 1.502 . S
C2324 C2326 1.561 . S
C2324 C2327 1.526 . S
C2325 H2309 0.959 . S
C2325 H2310 0.959 . S
C2325 H2311 0.961 . S
C2325 C2324 1.502 . S
C2326 H2312 0.960 . S
C2326 H2313 0.961 . S
C2326 H2314 0.959 . S
C2326 C2324 1.561 . S
C2327 C2324 1.526 . S
C2327 C2328 1.396 . S
C2327 C2332 1.390 . S
C2328 C2322 1.465 . S
C2328 C2327 1.396 . S
C2328 C2329 1.399 . S
C2329 H2315 0.929 . S
C2329 C2328 1.399 . S
C2329 C2330 1.385 . S
C2330 H2316 0.931 . S
C2330 C2329 1.385 . S
C2330 C2331 1.389 . S
C2331 C2330 1.389 . S
C2331 C2332 1.387 . S
C2332 H2317 0.930 . S
C2332 C2327 1.390 . S
C2332 C2331 1.387 . S
H2333 C2345 0.930 . S
H2334 C2347 0.930 . S
H2335 C2348 0.930 . S
H2336 C2352 0.959 . S
H2337 C2352 0.959 . S
H2338 C2352 0.961 . S
H2339 C2353 0.960 . S
H2340 C2353 0.961 . S
H2341 C2353 0.959 . S
H2342 C2356 0.929 . S
H2343 C2357 0.931 . S
H2344 C2359 0.930 . S
C2345 H2333 0.930 . S
C2345 C2346 1.399 . S
C2345 C2350 1.399 . S
C2346 C2345 1.399 . S
C2346 C2347 1.376 . S
C2347 H2334 0.930 . S
C2347 C2346 1.376 . S
C2347 C2348 1.388 . S
C2348 H2335 0.930 . S
C2348 C2347 1.388 . S
C2348 C2349 1.390 . S
C2349 C2348 1.390 . S
C2349 C2350 1.394 . S
C2349 C2355 1.465 . S
C2350 C2345 1.399 . S
C2350 C2349 1.394 . S
C2350 C2351 1.516 . S
C2351 C2350 1.516 . S
C2351 C2352 1.502 . S
C2351 C2353 1.561 . S
C2351 C2354 1.526 . S
C2352 H2336 0.959 . S
C2352 H2337 0.959 . S
C2352 H2338 0.961 . S
C2352 C2351 1.502 . S
C2353 H2339 0.960 . S
C2353 H2340 0.961 . S
C2353 H2341 0.959 . S
C2353 C2351 1.561 . S
C2354 C2351 1.526 . S
C2354 C2355 1.396 . S
C2354 C2359 1.390 . S
C2355 C2349 1.465 . S
C2355 C2354 1.396 . S
C2355 C2356 1.399 . S
C2356 H2342 0.929 . S
C2356 C2355 1.399 . S
C2356 C2357 1.385 . S
C2357 H2343 0.931 . S
C2357 C2356 1.385 . S
C2357 C2358 1.389 . S
C2358 C2357 1.389 . S
C2358 C2359 1.387 . S
C2359 H2344 0.930 . S
C2359 C2354 1.390 . S
C2359 C2358 1.387 . S
H2360 C2372 0.930 . S
H2361 C2374 0.930 . S
H2362 C2375 0.930 . S
H2363 C2379 0.959 . S
H2364 C2379 0.959 . S
H2365 C2379 0.961 . S
H2366 C2380 0.960 . S
H2367 C2380 0.961 . S
H2368 C2380 0.959 . S
H2369 C2383 0.929 . S
H2370 C2384 0.931 . S
H2371 C2386 0.930 . S
C2372 H2360 0.930 . S
C2372 C2373 1.399 . S
C2372 C2377 1.399 . S
C2373 C2372 1.399 . S
C2373 C2374 1.376 . S
C2374 H2361 0.930 . S
C2374 C2373 1.376 . S
C2374 C2375 1.388 . S
C2375 H2362 0.930 . S
C2375 C2374 1.388 . S
C2375 C2376 1.390 . S
C2376 C2375 1.390 . S
C2376 C2377 1.394 . S
C2376 C2382 1.465 . S
C2377 C2372 1.399 . S
C2377 C2376 1.394 . S
C2377 C2378 1.516 . S
C2378 C2377 1.516 . S
C2378 C2379 1.502 . S
C2378 C2380 1.561 . S
C2378 C2381 1.526 . S
C2379 H2363 0.959 . S
C2379 H2364 0.959 . S
C2379 H2365 0.961 . S
C2379 C2378 1.502 . S
C2380 H2366 0.960 . S
C2380 H2367 0.961 . S
C2380 H2368 0.959 . S
C2380 C2378 1.561 . S
C2381 C2378 1.526 . S
C2381 C2382 1.396 . S
C2381 C2386 1.390 . S
C2382 C2376 1.465 . S
C2382 C2381 1.396 . S
C2382 C2383 1.399 . S
C2383 H2369 0.929 . S
C2383 C2382 1.399 . S
C2383 C2384 1.385 . S
C2384 H2370 0.931 . S
C2384 C2383 1.385 . S
C2384 C2385 1.389 . S
C2385 C2384 1.389 . S
C2385 C2386 1.387 . S
C2386 H2371 0.930 . S
C2386 C2381 1.390 . S
C2386 C2385 1.387 . S
H2387 C2399 0.930 . S
H2388 C2401 0.930 . S
H2389 C2402 0.930 . S
H2390 C2406 0.959 . S
H2391 C2406 0.959 . S
H2392 C2406 0.961 . S
H2393 C2407 0.960 . S
H2394 C2407 0.961 . S
H2395 C2407 0.959 . S
H2396 C2410 0.929 . S
H2397 C2411 0.931 . S
H2398 C2413 0.930 . S
C2399 H2387 0.930 . S
C2399 C2400 1.399 . S
C2399 C2404 1.399 . S
C2400 C2399 1.399 . S
C2400 C2401 1.376 . S
C2401 H2388 0.930 . S
C2401 C2400 1.376 . S
C2401 C2402 1.388 . S
C2402 H2389 0.930 . S
C2402 C2401 1.388 . S
C2402 C2403 1.390 . S
C2403 C2402 1.390 . S
C2403 C2404 1.394 . S
C2403 C2409 1.465 . S
C2404 C2399 1.399 . S
C2404 C2403 1.394 . S
C2404 C2405 1.516 . S
C2405 C2404 1.516 . S
C2405 C2406 1.502 . S
C2405 C2407 1.561 . S
C2405 C2408 1.526 . S
C2406 H2390 0.959 . S
C2406 H2391 0.959 . S
C2406 H2392 0.961 . S
C2406 C2405 1.502 . S
C2407 H2393 0.960 . S
C2407 H2394 0.961 . S
C2407 H2395 0.959 . S
C2407 C2405 1.561 . S
C2408 C2405 1.526 . S
C2408 C2409 1.396 . S
C2408 C2413 1.390 . S
C2409 C2403 1.465 . S
C2409 C2408 1.396 . S
C2409 C2410 1.399 . S
C2410 H2396 0.929 . S
C2410 C2409 1.399 . S
C2410 C2411 1.385 . S
C2411 H2397 0.931 . S
C2411 C2410 1.385 . S
C2411 C2412 1.389 . S
C2412 C2411 1.389 . S
C2412 C2413 1.387 . S
C2413 H2398 0.930 . S
C2413 C2408 1.390 . S
C2413 C2412 1.387 . S
H2414 C2426 0.930 . S
H2415 C2428 0.930 . S
H2416 C2429 0.930 . S
H2417 C2433 0.959 . S
H2418 C2433 0.959 . S
H2419 C2433 0.961 . S
H2420 C2434 0.960 . S
H2421 C2434 0.961 . S
H2422 C2434 0.959 . S
H2423 C2437 0.929 . S
H2424 C2438 0.931 . S
H2425 C2440 0.930 . S
C2426 H2414 0.930 . S
C2426 C2427 1.399 . S
C2426 C2431 1.399 . S
C2427 C2426 1.399 . S
C2427 C2428 1.376 . S
C2428 H2415 0.930 . S
C2428 C2427 1.376 . S
C2428 C2429 1.388 . S
C2429 H2416 0.930 . S
C2429 C2428 1.388 . S
C2429 C2430 1.390 . S
C2430 C2429 1.390 . S
C2430 C2431 1.394 . S
C2430 C2436 1.465 . S
C2431 C2426 1.399 . S
C2431 C2430 1.394 . S
C2431 C2432 1.516 . S
C2432 C2431 1.516 . S
C2432 C2433 1.502 . S
C2432 C2434 1.561 . S
C2432 C2435 1.526 . S
C2433 H2417 0.959 . S
C2433 H2418 0.959 . S
C2433 H2419 0.961 . S
C2433 C2432 1.502 . S
C2434 H2420 0.960 . S
C2434 H2421 0.961 . S
C2434 H2422 0.959 . S
C2434 C2432 1.561 . S
C2435 C2432 1.526 . S
C2435 C2436 1.396 . S
C2435 C2440 1.390 . S
C2436 C2430 1.465 . S
C2436 C2435 1.396 . S
C2436 C2437 1.399 . S
C2437 H2423 0.929 . S
C2437 C2436 1.399 . S
C2437 C2438 1.385 . S
C2438 H2424 0.931 . S
C2438 C2437 1.385 . S
C2438 C2439 1.389 . S
C2439 C2438 1.389 . S
C2439 C2440 1.387 . S
C2440 H2425 0.930 . S
C2440 C2435 1.390 . S
C2440 C2439 1.387 . S
H2441 C2453 0.898 1_556 S
H2442 C2455 0.930 . S
H2443 C2456 0.930 . S
H2444 C2460 0.959 1_554 S
H2445 C2460 0.959 . S
H2446 C2460 0.961 . S
H2447 C2461 0.960 . S
H2448 C2461 0.961 . S
H2449 C2461 0.959 . S
H2450 C2464 0.929 . S
H2451 C2465 0.931 . S
H2452 C2467 0.930 1_556 S
C2453 H2441 0.898 1_554 S
C2453 C2454 1.399 . S
C2453 C2458 1.399 . S
C2454 C2453 1.399 . S
C2454 C2455 1.376 . S
C2455 H2442 0.930 . S
C2455 C2454 1.376 . S
C2455 C2456 1.388 . S
C2456 H2443 0.930 . S
C2456 C2455 1.388 . S
C2456 C2457 1.390 . S
C2457 C2456 1.390 . S
C2457 C2458 1.394 . S
C2457 C2463 1.465 . S
C2458 C2453 1.399 . S
C2458 C2457 1.394 . S
C2458 C2459 1.516 1_554 S
C2459 C2458 1.516 1_556 S
C2459 C2460 1.502 . S
C2459 C2461 1.561 . S
C2459 C2462 1.526 1_556 S
C2460 H2444 0.959 1_556 S
C2460 H2445 0.959 . S
C2460 H2446 0.961 . S
C2460 C2459 1.502 . S
C2461 H2447 0.960 . S
C2461 H2448 0.961 . S
C2461 H2449 0.959 . S
C2461 C2459 1.561 . S
C2462 C2459 1.526 1_554 S
C2462 C2463 1.396 . S
C2462 C2467 1.390 . S
C2463 C2457 1.465 . S
C2463 C2462 1.396 . S
C2463 C2464 1.399 1_565 S
C2464 H2450 0.929 . S
C2464 C2463 1.399 1_545 S
C2464 C2465 1.385 . S
C2465 H2451 0.931 . S
C2465 C2464 1.385 . S
C2465 C2466 1.389 . S
C2466 C2465 1.389 . S
C2466 C2467 1.387 1_545 S
C2467 H2452 0.930 1_554 S
C2467 C2462 1.390 . S
C2467 C2466 1.387 1_565 S
H2468 C2480 0.930 . S
H2469 C2482 0.930 . S
H2470 C2483 0.930 . S
H2471 C2487 0.959 . S
H2472 C2487 0.959 . S
H2473 C2487 0.961 . S
H2474 C2488 0.960 . S
H2475 C2488 0.961 . S
H2476 C2488 0.959 . S
H2477 C2491 0.929 . S
H2478 C2492 0.931 . S
H2479 C2494 0.930 . S
C2480 H2468 0.930 . S
C2480 C2481 1.399 . S
C2480 C2485 1.399 . S
C2481 C2480 1.399 . S
C2481 C2482 1.376 . S
C2482 H2469 0.930 . S
C2482 C2481 1.376 . S
C2482 C2483 1.388 . S
C2483 H2470 0.930 . S
C2483 C2482 1.388 . S
C2483 C2484 1.390 . S
C2484 C2483 1.390 . S
C2484 C2485 1.394 . S
C2484 C2490 1.465 . S
C2485 C2480 1.399 . S
C2485 C2484 1.394 . S
C2485 C2486 1.516 . S
C2486 C2485 1.516 . S
C2486 C2487 1.502 . S
C2486 C2488 1.561 . S
C2486 C2489 1.526 . S
C2487 H2471 0.959 . S
C2487 H2472 0.959 . S
C2487 H2473 0.961 . S
C2487 C2486 1.502 . S
C2488 H2474 0.960 . S
C2488 H2475 0.961 . S
C2488 H2476 0.959 . S
C2488 C2486 1.561 . S
C2489 C2486 1.526 . S
C2489 C2490 1.396 . S
C2489 C2494 1.390 . S
C2490 C2484 1.465 . S
C2490 C2489 1.396 . S
C2490 C2491 1.399 . S
C2491 H2477 0.929 . S
C2491 C2490 1.399 . S
C2491 C2492 1.385 . S
C2492 H2478 0.931 . S
C2492 C2491 1.385 . S
C2492 C2493 1.389 . S
C2493 C2492 1.389 . S
C2493 C2494 1.387 . S
C2494 H2479 0.930 . S
C2494 C2489 1.390 . S
C2494 C2493 1.387 . S
H2495 C2507 0.930 . S
H2496 C2509 0.930 1_556 S
H2497 C2510 0.930 . S
H2498 C2514 0.959 . S
H2499 C2514 0.959 . S
H2500 C2514 0.961 . S
H2501 C2515 0.960 . S
H2502 C2515 0.961 . S
H2503 C2515 0.959 . S
H2504 C2518 0.929 . S
H2505 C2519 0.931 . S
H2506 C2521 0.930 . S
C2507 H2495 0.930 . S
C2507 C2508 1.399 . S
C2507 C2512 1.399 . S
C2508 C2507 1.399 . S
C2508 C2509 1.376 . S
C2509 H2496 0.930 1_554 S
C2509 C2508 1.376 . S
C2509 C2510 1.388 . S
C2510 H2497 0.930 . S
C2510 C2509 1.388 . S
C2510 C2511 1.390 . S
C2511 C2510 1.390 . S
C2511 C2512 1.394 . S
C2511 C2517 1.465 . S
C2512 C2507 1.399 . S
C2512 C2511 1.394 . S
C2512 C2513 1.516 . S
C2513 C2512 1.516 . S
C2513 C2514 1.502 . S
C2513 C2515 1.561 . S
C2513 C2516 1.526 . S
C2514 H2498 0.959 . S
C2514 H2499 0.959 . S
C2514 H2500 0.961 . S
C2514 C2513 1.502 . S
C2515 H2501 0.960 . S
C2515 H2502 0.961 . S
C2515 H2503 0.959 . S
C2515 C2513 1.561 . S
C2516 C2513 1.526 . S
C2516 C2517 1.396 . S
C2516 C2521 1.390 . S
C2517 C2511 1.465 . S
C2517 C2516 1.396 . S
C2517 C2518 1.399 . S
C2518 H2504 0.929 . S
C2518 C2517 1.399 . S
C2518 C2519 1.385 . S
C2519 H2505 0.931 . S
C2519 C2518 1.385 . S
C2519 C2520 1.389 . S
C2520 C2519 1.389 . S
C2520 C2521 1.387 . S
C2521 H2506 0.930 . S
C2521 C2516 1.390 . S
C2521 C2520 1.387 . S
H2522 C2534 0.930 . S
H2523 C2536 0.930 . S
H2524 C2537 0.930 . S
H2525 C2541 0.959 . S
H2526 C2541 0.959 . S
H2527 C2541 0.961 . S
H2528 C2542 0.960 . S
H2529 C2542 0.961 . S
H2530 C2542 0.959 . S
H2531 C2545 0.929 . S
H2532 C2546 0.931 . S
H2533 C2548 0.930 . S
C2534 H2522 0.930 . S
C2534 C2535 1.399 . S
C2534 C2539 1.399 . S
C2535 C2534 1.399 . S
C2535 C2536 1.376 . S
C2536 H2523 0.930 . S
C2536 C2535 1.376 . S
C2536 C2537 1.388 . S
C2537 H2524 0.930 . S
C2537 C2536 1.388 . S
C2537 C2538 1.390 . S
C2538 C2537 1.390 . S
C2538 C2539 1.394 . S
C2538 C2544 1.465 . S
C2539 C2534 1.399 . S
C2539 C2538 1.394 . S
C2539 C2540 1.516 . S
C2540 C2539 1.516 . S
C2540 C2541 1.502 . S
C2540 C2542 1.561 . S
C2540 C2543 1.526 . S
C2541 H2525 0.959 . S
C2541 H2526 0.959 . S
C2541 H2527 0.961 . S
C2541 C2540 1.502 . S
C2542 H2528 0.960 . S
C2542 H2529 0.961 . S
C2542 H2530 0.959 . S
C2542 C2540 1.561 . S
C2543 C2540 1.526 . S
C2543 C2544 1.396 . S
C2543 C2548 1.390 . S
C2544 C2538 1.465 . S
C2544 C2543 1.396 . S
C2544 C2545 1.399 . S
C2545 H2531 0.929 . S
C2545 C2544 1.399 . S
C2545 C2546 1.385 . S
C2546 H2532 0.931 . S
C2546 C2545 1.385 . S
C2546 C2547 1.389 . S
C2547 C2546 1.389 . S
C2547 C2548 1.387 . S
C2548 H2533 0.930 . S
C2548 C2543 1.390 . S
C2548 C2547 1.387 . S
H2549 C2561 0.930 . S
H2550 C2563 0.930 . S
H2551 C2564 0.930 . S
H2552 C2568 0.959 . S
H2553 C2568 0.959 . S
H2554 C2568 0.961 . S
H2555 C2569 0.960 . S
H2556 C2569 0.961 . S
H2557 C2569 0.959 . S
H2558 C2572 0.929 . S
H2559 C2573 0.931 . S
H2560 C2575 0.930 . S
C2561 H2549 0.930 . S
C2561 C2562 1.399 . S
C2561 C2566 1.399 . S
C2562 C2561 1.399 . S
C2562 C2563 1.376 . S
C2563 H2550 0.930 . S
C2563 C2562 1.376 . S
C2563 C2564 1.388 . S
C2564 H2551 0.930 . S
C2564 C2563 1.388 . S
C2564 C2565 1.390 . S
C2565 C2564 1.390 . S
C2565 C2566 1.394 . S
C2565 C2571 1.465 . S
C2566 C2561 1.399 . S
C2566 C2565 1.394 . S
C2566 C2567 1.516 . S
C2567 C2566 1.516 . S
C2567 C2568 1.502 . S
C2567 C2569 1.561 . S
C2567 C2570 1.526 . S
C2568 H2552 0.959 . S
C2568 H2553 0.959 . S
C2568 H2554 0.961 . S
C2568 C2567 1.502 . S
C2569 H2555 0.960 . S
C2569 H2556 0.961 . S
C2569 H2557 0.959 . S
C2569 C2567 1.561 . S
C2570 C2567 1.526 . S
C2570 C2571 1.396 . S
C2570 C2575 1.390 . S
C2571 C2565 1.465 . S
C2571 C2570 1.396 . S
C2571 C2572 1.399 . S
C2572 H2558 0.929 . S
C2572 C2571 1.399 . S
C2572 C2573 1.385 . S
C2573 H2559 0.931 . S
C2573 C2572 1.385 . S
C2573 C2574 1.389 . S
C2574 C2573 1.389 . S
C2574 C2575 1.387 . S
C2575 H2560 0.930 . S
C2575 C2570 1.390 . S
C2575 C2574 1.387 . S
H2576 C2588 0.930 . S
H2577 C2590 0.930 . S
H2578 C2591 0.930 . S
H2579 C2595 0.959 . S
H2580 C2595 0.959 . S
H2581 C2595 0.961 . S
H2582 C2596 0.960 . S
H2583 C2596 0.961 . S
H2584 C2596 0.959 . S
H2585 C2599 0.929 . S
H2586 C2600 0.931 . S
H2587 C2602 0.930 . S
C2588 H2576 0.930 . S
C2588 C2589 1.399 . S
C2588 C2593 1.399 . S
C2589 C2588 1.399 . S
C2589 C2590 1.376 . S
C2590 H2577 0.930 . S
C2590 C2589 1.376 . S
C2590 C2591 1.388 . S
C2591 H2578 0.930 . S
C2591 C2590 1.388 . S
C2591 C2592 1.390 . S
C2592 C2591 1.390 . S
C2592 C2593 1.394 . S
C2592 C2598 1.465 . S
C2593 C2588 1.399 . S
C2593 C2592 1.394 . S
C2593 C2594 1.516 . S
C2594 C2593 1.516 . S
C2594 C2595 1.502 . S
C2594 C2596 1.561 . S
C2594 C2597 1.526 . S
C2595 H2579 0.959 . S
C2595 H2580 0.959 . S
C2595 H2581 0.961 . S
C2595 C2594 1.502 . S
C2596 H2582 0.960 . S
C2596 H2583 0.961 . S
C2596 H2584 0.959 . S
C2596 C2594 1.561 . S
C2597 C2594 1.526 . S
C2597 C2598 1.396 . S
C2597 C2602 1.390 . S
C2598 C2592 1.465 . S
C2598 C2597 1.396 . S
C2598 C2599 1.399 . S
C2599 H2585 0.929 . S
C2599 C2598 1.399 . S
C2599 C2600 1.385 . S
C2600 H2586 0.931 . S
C2600 C2599 1.385 . S
C2600 C2601 1.389 . S
C2601 C2600 1.389 . S
C2601 C2602 1.387 . S
C2602 H2587 0.930 . S
C2602 C2597 1.390 . S
C2602 C2601 1.387 . S
H2603 C2615 0.930 . S
H2604 C2617 0.930 . S
H2605 C2618 0.930 . S
H2606 C2622 0.959 . S
H2607 C2622 0.959 . S
H2608 C2622 0.961 . S
H2609 C2623 0.960 . S
H2610 C2623 0.961 . S
H2611 C2623 0.959 . S
H2612 C2626 0.929 . S
H2613 C2627 0.931 . S
H2614 C2629 0.930 . S
C2615 H2603 0.930 . S
C2615 C2616 1.399 . S
C2615 C2620 1.399 . S
C2616 C2615 1.399 . S
C2616 C2617 1.376 . S
C2617 H2604 0.930 . S
C2617 C2616 1.376 . S
C2617 C2618 1.388 . S
C2618 H2605 0.930 . S
C2618 C2617 1.388 . S
C2618 C2619 1.390 . S
C2619 C2618 1.390 . S
C2619 C2620 1.394 . S
C2619 C2625 1.465 . S
C2620 C2615 1.399 . S
C2620 C2619 1.394 . S
C2620 C2621 1.516 . S
C2621 C2620 1.516 . S
C2621 C2622 1.502 . S
C2621 C2623 1.561 . S
C2621 C2624 1.526 . S
C2622 H2606 0.959 . S
C2622 H2607 0.959 . S
C2622 H2608 0.961 . S
C2622 C2621 1.502 . S
C2623 H2609 0.960 . S
C2623 H2610 0.961 . S
C2623 H2611 0.959 . S
C2623 C2621 1.561 . S
C2624 C2621 1.526 . S
C2624 C2625 1.396 . S
C2624 C2629 1.390 . S
C2625 C2619 1.465 . S
C2625 C2624 1.396 . S
C2625 C2626 1.399 . S
C2626 H2612 0.929 . S
C2626 C2625 1.399 . S
C2626 C2627 1.385 . S
C2627 H2613 0.931 . S
C2627 C2626 1.385 . S
C2627 C2628 1.389 . S
C2628 C2627 1.389 . S
C2628 C2629 1.387 . S
C2629 H2614 0.930 . S
C2629 C2624 1.390 . S
C2629 C2628 1.387 . S
H2630 C2642 0.930 . S
H2631 C2644 0.930 . S
H2632 C2645 0.930 . S
H2633 C2649 0.959 . S
H2634 C2649 0.959 . S
H2635 C2649 0.961 . S
H2636 C2650 0.960 . S
H2637 C2650 0.961 . S
H2638 C2650 0.959 . S
H2639 C2653 0.929 . S
H2640 C2654 0.931 . S
H2641 C2656 0.930 . S
C2642 H2630 0.930 . S
C2642 C2643 1.399 1_655 S
C2642 C2647 1.414 . S
C2643 C2642 1.399 1_455 S
C2643 C2644 1.376 . S
C2644 H2631 0.930 . S
C2644 C2643 1.376 . S
C2644 C2645 1.388 . S
C2645 H2632 0.930 . S
C2645 C2644 1.388 . S
C2645 C2646 1.390 . S
C2646 C2645 1.390 . S
C2646 C2647 1.376 1_455 S
C2646 C2652 1.465 . S
C2647 C2642 1.414 . S
C2647 C2646 1.376 1_655 S
C2647 C2648 1.517 . S
C2648 C2647 1.517 . S
C2648 C2649 1.502 . S
C2648 C2650 1.561 1_655 S
C2648 C2651 1.527 1_655 S
C2649 H2633 0.959 . S
C2649 H2634 0.959 . S
C2649 H2635 0.961 . S
C2649 C2648 1.502 . S
C2650 H2636 0.960 . S
C2650 H2637 0.961 . S
C2650 H2638 0.959 . S
C2650 C2648 1.561 1_455 S
C2651 C2648 1.527 1_455 S
C2651 C2652 1.395 . S
C2651 C2656 1.389 1_455 S
C2652 C2646 1.465 . S
C2652 C2651 1.395 . S
C2652 C2653 1.399 . S
C2653 H2639 0.929 . S
C2653 C2652 1.399 . S
C2653 C2654 1.385 . S
C2654 H2640 0.931 . S
C2654 C2653 1.385 . S
C2654 C2655 1.389 . S
C2655 C2654 1.389 . S
C2655 C2656 1.387 1_455 S
C2656 H2641 0.930 . S
C2656 C2651 1.389 1_655 S
C2656 C2655 1.387 1_655 S
H2657 C2669 0.930 . S
H2658 C2671 0.930 . S
H2659 C2672 0.930 . S
H2660 C2676 0.959 . S
H2661 C2676 0.959 . S
H2662 C2676 0.961 . S
H2663 C2677 0.960 . S
H2664 C2677 0.961 . S
H2665 C2677 0.959 . S
H2666 C2680 0.929 . S
H2667 C2681 0.931 . S
H2668 C2683 0.930 . S
C2669 H2657 0.930 . S
C2669 C2670 1.399 . S
C2669 C2674 1.399 . S
C2670 C2669 1.399 . S
C2670 C2671 1.376 . S
C2671 H2658 0.930 . S
C2671 C2670 1.376 . S
C2671 C2672 1.388 . S
C2672 H2659 0.930 . S
C2672 C2671 1.388 . S
C2672 C2673 1.390 . S
C2673 C2672 1.390 . S
C2673 C2674 1.394 . S
C2673 C2679 1.465 . S
C2674 C2669 1.399 . S
C2674 C2673 1.394 . S
C2674 C2675 1.516 . S
C2675 C2674 1.516 . S
C2675 C2676 1.502 . S
C2675 C2677 1.561 . S
C2675 C2678 1.526 . S
C2676 H2660 0.959 . S
C2676 H2661 0.959 . S
C2676 H2662 0.961 . S
C2676 C2675 1.502 . S
C2677 H2663 0.960 . S
C2677 H2664 0.961 . S
C2677 H2665 0.959 . S
C2677 C2675 1.561 . S
C2678 C2675 1.526 . S
C2678 C2679 1.396 . S
C2678 C2683 1.390 . S
C2679 C2673 1.465 . S
C2679 C2678 1.396 . S
C2679 C2680 1.399 . S
C2680 H2666 0.929 . S
C2680 C2679 1.399 . S
C2680 C2681 1.385 . S
C2681 H2667 0.931 . S
C2681 C2680 1.385 . S
C2681 C2682 1.389 . S
C2682 C2681 1.389 . S
C2682 C2683 1.387 . S
C2683 H2668 0.930 . S
C2683 C2678 1.390 . S
C2683 C2682 1.387 . S
H2684 C2696 0.930 . S
H2685 C2698 0.930 . S
H2686 C2699 0.930 . S
H2687 C2703 0.959 . S
H2688 C2703 0.959 . S
H2689 C2703 0.961 . S
H2690 C2704 0.960 . S
H2691 C2704 0.961 . S
H2692 C2704 0.959 . S
H2693 C2707 0.929 1_554 S
H2694 C2708 0.931 1_554 S
H2695 C2710 0.930 . S
C2696 H2684 0.930 . S
C2696 C2697 1.399 . S
C2696 C2701 1.399 . S
C2697 C2696 1.399 . S
C2697 C2698 1.376 . S
C2698 H2685 0.930 . S
C2698 C2697 1.376 . S
C2698 C2699 1.388 . S
C2699 H2686 0.930 . S
C2699 C2698 1.388 . S
C2699 C2700 1.390 . S
C2700 C2699 1.390 . S
C2700 C2701 1.394 . S
C2700 C2706 1.465 . S
C2701 C2696 1.399 . S
C2701 C2700 1.394 . S
C2701 C2702 1.516 . S
C2702 C2701 1.516 . S
C2702 C2703 1.502 . S
C2702 C2704 1.561 . S
C2702 C2705 1.526 . S
C2703 H2687 0.959 . S
C2703 H2688 0.959 . S
C2703 H2689 0.961 . S
C2703 C2702 1.502 . S
C2704 H2690 0.960 . S
C2704 H2691 0.961 . S
C2704 H2692 0.959 . S
C2704 C2702 1.561 . S
C2705 C2702 1.526 . S
C2705 C2706 1.396 . S
C2705 C2710 1.390 . S
C2706 C2700 1.465 . S
C2706 C2705 1.396 . S
C2706 C2707 1.399 . S
C2707 H2693 0.929 1_556 S
C2707 C2706 1.399 . S
C2707 C2708 1.385 . S
C2708 H2694 0.931 1_556 S
C2708 C2707 1.385 . S
C2708 C2709 1.389 . S
C2709 C2708 1.389 . S
C2709 C2710 1.387 . S
C2710 H2695 0.930 . S
C2710 C2705 1.390 . S
C2710 C2709 1.387 . S
H2711 C2723 0.930 . S
H2712 C2725 0.930 . S
H2713 C2726 0.930 . S
H2714 C2730 0.959 . S
H2715 C2730 0.959 . S
H2716 C2730 0.961 . S
H2717 C2731 0.960 . S
H2718 C2731 0.961 . S
H2719 C2731 0.959 . S
H2720 C2734 0.929 . S
H2721 C2735 0.931 . S
H2722 C2737 0.930 . S
C2723 H2711 0.930 . S
C2723 C2724 1.399 . S
C2723 C2728 1.399 . S
C2724 C2723 1.399 . S
C2724 C2725 1.376 . S
C2725 H2712 0.930 . S
C2725 C2724 1.376 . S
C2725 C2726 1.388 . S
C2726 H2713 0.930 . S
C2726 C2725 1.388 . S
C2726 C2727 1.390 . S
C2727 C2726 1.390 . S
C2727 C2728 1.394 . S
C2727 C2733 1.465 . S
C2728 C2723 1.399 . S
C2728 C2727 1.394 . S
C2728 C2729 1.516 . S
C2729 C2728 1.516 . S
C2729 C2730 1.502 . S
C2729 C2731 1.561 . S
C2729 C2732 1.526 . S
C2730 H2714 0.959 . S
C2730 H2715 0.959 . S
C2730 H2716 0.961 . S
C2730 C2729 1.502 . S
C2731 H2717 0.960 . S
C2731 H2718 0.961 . S
C2731 H2719 0.959 . S
C2731 C2729 1.561 . S
C2732 C2729 1.526 . S
C2732 C2733 1.396 . S
C2732 C2737 1.390 . S
C2733 C2727 1.465 . S
C2733 C2732 1.396 . S
C2733 C2734 1.399 . S
C2734 H2720 0.929 . S
C2734 C2733 1.399 . S
C2734 C2735 1.385 . S
C2735 H2721 0.931 . S
C2735 C2734 1.385 . S
C2735 C2736 1.389 . S
C2736 C2735 1.389 . S
C2736 C2737 1.387 . S
C2737 H2722 0.930 . S
C2737 C2732 1.390 . S
C2737 C2736 1.387 . S
H2738 C2750 0.930 . S
H2739 C2752 0.930 . S
H2740 C2753 0.930 . S
H2741 C2757 0.959 . S
H2742 C2757 0.959 . S
H2743 C2757 0.961 . S
H2744 C2758 0.960 . S
H2745 C2758 0.961 . S
H2746 C2758 0.959 . S
H2747 C2761 0.929 . S
H2748 C2762 0.931 . S
H2749 C2764 0.930 1_655 S
C2750 H2738 0.930 . S
C2750 C2751 1.399 . S
C2750 C2755 1.399 . S
C2751 C2750 1.399 . S
C2751 C2752 1.376 . S
C2752 H2739 0.930 . S
C2752 C2751 1.376 . S
C2752 C2753 1.388 . S
C2753 H2740 0.930 . S
C2753 C2752 1.388 . S
C2753 C2754 1.390 . S
C2754 C2753 1.390 . S
C2754 C2755 1.394 . S
C2754 C2760 1.465 . S
C2755 C2750 1.399 . S
C2755 C2754 1.394 . S
C2755 C2756 1.516 . S
C2756 C2755 1.516 . S
C2756 C2757 1.502 . S
C2756 C2758 1.561 1_455 S
C2756 C2759 1.526 . S
C2757 H2741 0.959 . S
C2757 H2742 0.959 . S
C2757 H2743 0.961 . S
C2757 C2756 1.502 . S
C2758 H2744 0.960 . S
C2758 H2745 0.961 . S
C2758 H2746 0.959 . S
C2758 C2756 1.561 1_655 S
C2759 C2756 1.526 . S
C2759 C2760 1.396 . S
C2759 C2764 1.390 . S
C2760 C2754 1.465 . S
C2760 C2759 1.396 . S
C2760 C2761 1.399 . S
C2761 H2747 0.929 . S
C2761 C2760 1.399 . S
C2761 C2762 1.385 . S
C2762 H2748 0.931 . S
C2762 C2761 1.385 . S
C2762 C2763 1.389 . S
C2763 C2762 1.389 . S
C2763 C2764 1.387 . S
C2764 H2749 0.930 1_455 S
C2764 C2759 1.390 . S
C2764 C2763 1.387 . S
H2765 C2777 0.930 . S
H2766 C2779 0.930 . S
H2767 C2780 0.930 . S
H2768 C2784 0.959 . S
H2769 C2784 0.959 . S
H2770 C2784 0.961 . S
H2771 C2785 0.960 . S
H2772 C2785 0.961 . S
H2773 C2785 0.959 . S
H2774 C2788 0.929 . S
H2775 C2789 0.931 . S
H2776 C2791 0.930 . S
C2777 H2765 0.930 . S
C2777 C2778 1.399 . S
C2777 C2782 1.399 . S
C2778 C2777 1.399 . S
C2778 C2779 1.376 . S
C2779 H2766 0.930 . S
C2779 C2778 1.376 . S
C2779 C2780 1.388 . S
C2780 H2767 0.930 . S
C2780 C2779 1.388 . S
C2780 C2781 1.390 . S
C2781 C2780 1.390 . S
C2781 C2782 1.394 . S
C2781 C2787 1.465 . S
C2782 C2777 1.399 . S
C2782 C2781 1.394 . S
C2782 C2783 1.516 . S
C2783 C2782 1.516 . S
C2783 C2784 1.502 . S
C2783 C2785 1.561 . S
C2783 C2786 1.526 . S
C2784 H2768 0.959 . S
C2784 H2769 0.959 . S
C2784 H2770 0.961 . S
C2784 C2783 1.502 . S
C2785 H2771 0.960 . S
C2785 H2772 0.961 . S
C2785 H2773 0.959 . S
C2785 C2783 1.561 . S
C2786 C2783 1.526 . S
C2786 C2787 1.396 . S
C2786 C2791 1.390 . S
C2787 C2781 1.465 . S
C2787 C2786 1.396 . S
C2787 C2788 1.399 . S
C2788 H2774 0.929 . S
C2788 C2787 1.399 . S
C2788 C2789 1.385 . S
C2789 H2775 0.931 . S
C2789 C2788 1.385 . S
C2789 C2790 1.389 . S
C2790 C2789 1.389 . S
C2790 C2791 1.387 . S
C2791 H2776 0.930 . S
C2791 C2786 1.390 . S
C2791 C2790 1.387 . S
H2792 C2804 0.930 . S
H2793 C2806 0.930 . S
H2794 C2807 0.930 . S
H2795 C2811 0.959 . S
H2796 C2811 0.959 . S
H2797 C2811 0.961 . S
H2798 C2812 0.960 . S
H2799 C2812 0.961 . S
H2800 C2812 0.959 . S
H2801 C2815 0.929 . S
H2802 C2816 0.931 . S
H2803 C2818 0.930 . S
C2804 H2792 0.930 . S
C2804 C2805 1.399 . S
C2804 C2809 1.399 . S
C2805 C2804 1.399 . S
C2805 C2806 1.376 . S
C2806 H2793 0.930 . S
C2806 C2805 1.376 . S
C2806 C2807 1.388 . S
C2807 H2794 0.930 . S
C2807 C2806 1.388 . S
C2807 C2808 1.390 . S
C2808 C2807 1.390 . S
C2808 C2809 1.394 . S
C2808 C2814 1.465 . S
C2809 C2804 1.399 . S
C2809 C2808 1.394 . S
C2809 C2810 1.516 . S
C2810 C2809 1.516 . S
C2810 C2811 1.502 . S
C2810 C2812 1.561 . S
C2810 C2813 1.526 . S
C2811 H2795 0.959 . S
C2811 H2796 0.959 . S
C2811 H2797 0.961 . S
C2811 C2810 1.502 . S
C2812 H2798 0.960 . S
C2812 H2799 0.961 . S
C2812 H2800 0.959 . S
C2812 C2810 1.561 . S
C2813 C2810 1.526 . S
C2813 C2814 1.396 . S
C2813 C2818 1.390 . S
C2814 C2808 1.465 . S
C2814 C2813 1.396 . S
C2814 C2815 1.399 . S
C2815 H2801 0.929 . S
C2815 C2814 1.399 . S
C2815 C2816 1.385 . S
C2816 H2802 0.931 . S
C2816 C2815 1.385 . S
C2816 C2817 1.389 . S
C2817 C2816 1.389 . S
C2817 C2818 1.387 . S
C2818 H2803 0.930 . S
C2818 C2813 1.390 . S
C2818 C2817 1.387 . S
H2819 C2831 0.930 . S
H2820 C2833 0.930 . S
H2821 C2834 0.930 . S
H2822 C2838 0.959 . S
H2823 C2838 0.959 . S
H2824 C2838 0.961 . S
H2825 C2839 0.960 . S
H2826 C2839 0.961 . S
H2827 C2839 0.959 . S
H2828 C2842 0.929 . S
H2829 C2843 0.931 . S
H2830 C2845 0.930 . S
C2831 H2819 0.930 . S
C2831 C2832 1.399 . S
C2831 C2836 1.399 . S
C2832 C2831 1.399 . S
C2832 C2833 1.376 . S
C2833 H2820 0.930 . S
C2833 C2832 1.376 . S
C2833 C2834 1.388 . S
C2834 H2821 0.930 . S
C2834 C2833 1.388 . S
C2834 C2835 1.390 . S
C2835 C2834 1.390 . S
C2835 C2836 1.394 . S
C2835 C2841 1.465 . S
C2836 C2831 1.399 . S
C2836 C2835 1.394 . S
C2836 C2837 1.516 . S
C2837 C2836 1.516 . S
C2837 C2838 1.502 . S
C2837 C2839 1.561 . S
C2837 C2840 1.526 . S
C2838 H2822 0.959 . S
C2838 H2823 0.959 . S
C2838 H2824 0.961 . S
C2838 C2837 1.502 . S
C2839 H2825 0.960 . S
C2839 H2826 0.961 . S
C2839 H2827 0.959 . S
C2839 C2837 1.561 . S
C2840 C2837 1.526 . S
C2840 C2841 1.396 . S
C2840 C2845 1.390 . S
C2841 C2835 1.465 . S
C2841 C2840 1.396 . S
C2841 C2842 1.399 . S
C2842 H2828 0.929 . S
C2842 C2841 1.399 . S
C2842 C2843 1.385 . S
C2843 H2829 0.931 . S
C2843 C2842 1.385 . S
C2843 C2844 1.389 . S
C2844 C2843 1.389 . S
C2844 C2845 1.387 . S
C2845 H2830 0.930 . S
C2845 C2840 1.390 . S
C2845 C2844 1.387 . S
H2846 C2858 0.930 . S
H2847 C2860 0.930 . S
H2848 C2861 0.930 . S
H2849 C2865 0.966 . S
H2850 C2865 0.966 . S
H2851 C2865 0.961 . S
H2852 C2866 0.960 . S
H2853 C2866 0.961 . S
H2854 C2866 0.959 . S
H2855 C2869 0.929 . S
H2856 C2870 0.931 . S
H2857 C2872 0.959 . S
C2858 H2846 0.930 . S
C2858 C2859 1.399 . S
C2858 C2863 1.399 . S
C2859 C2858 1.399 . S
C2859 C2860 1.376 . S
C2860 H2847 0.930 . S
C2860 C2859 1.376 . S
C2860 C2861 1.388 . S
C2861 H2848 0.930 . S
C2861 C2860 1.388 . S
C2861 C2862 1.390 . S
C2862 C2861 1.390 . S
C2862 C2863 1.394 . S
C2862 C2868 1.465 . S
C2863 C2858 1.399 . S
C2863 C2862 1.394 . S
C2863 C2864 1.516 . S
C2864 C2863 1.516 . S
C2864 C2865 1.488 1_655 S
C2864 C2866 1.561 . S
C2864 C2867 1.526 . S
C2865 H2849 0.966 . S
C2865 H2850 0.966 . S
C2865 H2851 0.961 . S
C2865 C2864 1.488 1_455 S
C2866 H2852 0.960 . S
C2866 H2853 0.961 . S
C2866 H2854 0.959 . S
C2866 C2864 1.561 . S
C2867 C2864 1.526 . S
C2867 C2868 1.396 . S
C2867 C2872 1.390 . S
C2868 C2862 1.465 . S
C2868 C2867 1.396 . S
C2868 C2869 1.399 . S
C2869 H2855 0.929 . S
C2869 C2868 1.399 . S
C2869 C2870 1.385 . S
C2870 H2856 0.931 . S
C2870 C2869 1.385 . S
C2870 C2871 1.389 . S
C2871 C2870 1.389 . S
C2871 C2872 1.387 . S
C2872 H2857 0.959 . S
C2872 C2867 1.390 . S
C2872 C2871 1.387 . S
H2873 C2885 0.930 . S
H2874 C2887 0.930 . S
H2875 C2888 0.930 . S
H2876 C2892 0.959 . S
H2877 C2892 0.959 . S
H2878 C2892 0.961 . S
H2879 C2893 0.960 . S
H2880 C2893 0.961 . S
H2881 C2893 0.959 . S
H2882 C2896 0.929 . S
H2883 C2897 0.931 . S
H2884 C2899 0.930 . S
C2885 H2873 0.930 . S
C2885 C2886 1.399 . S
C2885 C2890 1.399 . S
C2886 C2885 1.399 . S
C2886 C2887 1.376 . S
C2887 H2874 0.930 . S
C2887 C2886 1.376 . S
C2887 C2888 1.388 . S
C2888 H2875 0.930 . S
C2888 C2887 1.388 . S
C2888 C2889 1.390 . S
C2889 C2888 1.390 . S
C2889 C2890 1.394 . S
C2889 C2895 1.465 . S
C2890 C2885 1.399 . S
C2890 C2889 1.394 . S
C2890 C2891 1.516 . S
C2891 C2890 1.516 . S
C2891 C2892 1.502 . S
C2891 C2893 1.561 . S
C2891 C2894 1.526 . S
C2892 H2876 0.959 . S
C2892 H2877 0.959 . S
C2892 H2878 0.961 . S
C2892 C2891 1.502 . S
C2893 H2879 0.960 . S
C2893 H2880 0.961 . S
C2893 H2881 0.959 . S
C2893 C2891 1.561 . S
C2894 C2891 1.526 . S
C2894 C2895 1.396 . S
C2894 C2899 1.390 . S
C2895 C2889 1.465 . S
C2895 C2894 1.396 . S
C2895 C2896 1.399 . S
C2896 H2882 0.929 . S
C2896 C2895 1.399 . S
C2896 C2897 1.385 . S
C2897 H2883 0.931 . S
C2897 C2896 1.385 . S
C2897 C2898 1.389 . S
C2898 C2897 1.389 . S
C2898 C2899 1.387 . S
C2899 H2884 0.930 . S
C2899 C2894 1.390 . S
C2899 C2898 1.387 . S
H2900 C2912 0.930 . S
H2901 C2914 0.930 . S
H2902 C2915 0.930 . S
H2903 C2919 0.959 . S
H2904 C2919 0.959 . S
H2905 C2919 0.961 . S
H2906 C2920 0.960 . S
H2907 C2920 0.961 . S
H2908 C2920 0.959 . S
H2909 C2923 0.929 . S
H2910 C2924 0.931 . S
H2911 C2926 0.930 . S
C2912 H2900 0.930 . S
C2912 C2913 1.399 . S
C2912 C2917 1.399 . S
C2913 C2912 1.399 . S
C2913 C2914 1.376 . S
C2914 H2901 0.930 . S
C2914 C2913 1.376 . S
C2914 C2915 1.388 . S
C2915 H2902 0.930 . S
C2915 C2914 1.388 . S
C2915 C2916 1.390 . S
C2916 C2915 1.390 . S
C2916 C2917 1.394 . S
C2916 C2922 1.465 . S
C2917 C2912 1.399 . S
C2917 C2916 1.394 . S
C2917 C2918 1.516 . S
C2918 C2917 1.516 . S
C2918 C2919 1.502 . S
C2918 C2920 1.561 . S
C2918 C2921 1.526 . S
C2919 H2903 0.959 . S
C2919 H2904 0.959 . S
C2919 H2905 0.961 . S
C2919 C2918 1.502 . S
C2920 H2906 0.960 . S
C2920 H2907 0.961 . S
C2920 H2908 0.959 . S
C2920 C2918 1.561 . S
C2921 C2918 1.526 . S
C2921 C2922 1.396 . S
C2921 C2926 1.390 . S
C2922 C2916 1.465 . S
C2922 C2921 1.396 . S
C2922 C2923 1.399 . S
C2923 H2909 0.929 . S
C2923 C2922 1.399 . S
C2923 C2924 1.385 . S
C2924 H2910 0.931 . S
C2924 C2923 1.385 . S
C2924 C2925 1.389 . S
C2925 C2924 1.389 . S
C2925 C2926 1.387 . S
C2926 H2911 0.930 . S
C2926 C2921 1.390 . S
C2926 C2925 1.387 . S
H2927 C2939 0.930 . S
H2928 C2941 0.930 . S
H2929 C2942 0.930 . S
H2930 C2946 0.959 . S
H2931 C2946 0.959 . S
H2932 C2946 0.961 . S
H2933 C2947 0.960 . S
H2934 C2947 0.961 . S
H2935 C2947 0.959 . S
H2936 C2950 0.929 . S
H2937 C2951 0.931 . S
H2938 C2953 0.930 . S
C2939 H2927 0.930 . S
C2939 C2940 1.399 . S
C2939 C2944 1.399 . S
C2940 C2939 1.399 . S
C2940 C2941 1.376 . S
C2941 H2928 0.930 . S
C2941 C2940 1.376 . S
C2941 C2942 1.388 . S
C2942 H2929 0.930 . S
C2942 C2941 1.388 . S
C2942 C2943 1.390 . S
C2943 C2942 1.390 . S
C2943 C2944 1.394 . S
C2943 C2949 1.465 . S
C2944 C2939 1.399 . S
C2944 C2943 1.394 . S
C2944 C2945 1.516 . S
C2945 C2944 1.516 . S
C2945 C2946 1.502 . S
C2945 C2947 1.561 . S
C2945 C2948 1.526 . S
C2946 H2930 0.959 . S
C2946 H2931 0.959 . S
C2946 H2932 0.961 . S
C2946 C2945 1.502 . S
C2947 H2933 0.960 . S
C2947 H2934 0.961 . S
C2947 H2935 0.959 . S
C2947 C2945 1.561 . S
C2948 C2945 1.526 . S
C2948 C2949 1.396 . S
C2948 C2953 1.390 . S
C2949 C2943 1.465 . S
C2949 C2948 1.396 . S
C2949 C2950 1.399 . S
C2950 H2936 0.929 . S
C2950 C2949 1.399 . S
C2950 C2951 1.385 . S
C2951 H2937 0.931 . S
C2951 C2950 1.385 . S
C2951 C2952 1.389 . S
C2952 C2951 1.389 . S
C2952 C2953 1.387 . S
C2953 H2938 0.930 . S
C2953 C2948 1.390 . S
C2953 C2952 1.387 . S
H2954 C2966 0.930 . S
H2955 C2968 0.930 . S
H2956 C2969 0.930 . S
H2957 C2973 0.959 . S
H2958 C2973 0.959 . S
H2959 C2973 0.961 . S
H2960 C2974 0.960 . S
H2961 C2974 0.961 . S
H2962 C2974 0.959 . S
H2963 C2977 0.929 . S
H2964 C2978 0.931 1_455 S
H2965 C2980 0.930 . S
C2966 H2954 0.930 . S
C2966 C2967 1.399 . S
C2966 C2971 1.399 . S
C2967 C2966 1.399 . S
C2967 C2968 1.376 . S
C2968 H2955 0.930 . S
C2968 C2967 1.376 . S
C2968 C2969 1.388 . S
C2969 H2956 0.930 . S
C2969 C2968 1.388 . S
C2969 C2970 1.390 . S
C2970 C2969 1.390 . S
C2970 C2971 1.394 . S
C2970 C2976 1.465 . S
C2971 C2966 1.399 . S
C2971 C2970 1.394 . S
C2971 C2972 1.516 . S
C2972 C2971 1.516 . S
C2972 C2973 1.502 . S
C2972 C2974 1.561 . S
C2972 C2975 1.526 . S
C2973 H2957 0.959 . S
C2973 H2958 0.959 . S
C2973 H2959 0.961 . S
C2973 C2972 1.502 . S
C2974 H2960 0.960 . S
C2974 H2961 0.961 . S
C2974 H2962 0.959 . S
C2974 C2972 1.561 . S
C2975 C2972 1.526 . S
C2975 C2976 1.396 . S
C2975 C2980 1.390 . S
C2976 C2970 1.465 . S
C2976 C2975 1.396 . S
C2976 C2977 1.399 . S
C2977 H2963 0.929 . S
C2977 C2976 1.399 . S
C2977 C2978 1.385 . S
C2978 H2964 0.931 1_655 S
C2978 C2977 1.385 . S
C2978 C2979 1.389 . S
C2979 C2978 1.389 . S
C2979 C2980 1.387 . S
C2980 H2965 0.930 . S
C2980 C2975 1.390 . S
C2980 C2979 1.387 . S
H2981 C2993 0.930 . S
H2982 C2995 0.930 . S
H2983 C2996 0.930 . S
H2984 C3000 0.959 . S
H2985 C3000 0.959 . S
H2986 C3000 0.961 . S
H2987 C3001 0.960 . S
H2988 C3001 0.961 . S
H2989 C3001 0.959 . S
H2990 C3004 0.929 . S
H2991 C3005 0.931 . S
H2992 C3007 0.930 . S
C2993 H2981 0.930 . S
C2993 C2994 1.399 . S
C2993 C2998 1.399 . S
C2994 C2993 1.399 . S
C2994 C2995 1.376 . S
C2995 H2982 0.930 . S
C2995 C2994 1.376 . S
C2995 C2996 1.388 . S
C2996 H2983 0.930 . S
C2996 C2995 1.388 . S
C2996 C2997 1.390 . S
C2997 C2996 1.390 . S
C2997 C2998 1.394 . S
C2997 C3003 1.465 . S
C2998 C2993 1.399 . S
C2998 C2997 1.394 . S
C2998 C2999 1.516 . S
C2999 C2998 1.516 . S
C2999 C3000 1.502 . S
C2999 C3001 1.561 . S
C2999 C3002 1.526 . S
C3000 H2984 0.959 . S
C3000 H2985 0.959 . S
C3000 H2986 0.961 . S
C3000 C2999 1.502 . S
C3001 H2987 0.960 . S
C3001 H2988 0.961 . S
C3001 H2989 0.959 . S
C3001 C2999 1.561 . S
C3002 C2999 1.526 . S
C3002 C3003 1.396 . S
C3002 C3007 1.390 . S
C3003 C2997 1.465 . S
C3003 C3002 1.396 . S
C3003 C3004 1.399 . S
C3004 H2990 0.929 . S
C3004 C3003 1.399 . S
C3004 C3005 1.385 . S
C3005 H2991 0.931 . S
C3005 C3004 1.385 . S
C3005 C3006 1.389 . S
C3006 C3005 1.389 . S
C3006 C3007 1.387 . S
C3007 H2992 0.930 . S
C3007 C3002 1.390 . S
C3007 C3006 1.387 . S
H3008 C3020 0.930 . S
H3009 C3022 0.930 . S
H3010 C3023 0.930 . S
H3011 C3027 0.959 . S
H3012 C3027 0.959 . S
H3013 C3027 0.961 . S
H3014 C3028 0.960 . S
H3015 C3028 0.961 . S
H3016 C3028 0.959 . S
H3017 C3031 0.929 . S
H3018 C3032 0.931 . S
H3019 C3034 0.930 . S
C3020 H3008 0.930 . S
C3020 C3021 1.399 . S
C3020 C3025 1.399 . S
C3021 C3020 1.399 . S
C3021 C3022 1.376 . S
C3022 H3009 0.930 . S
C3022 C3021 1.376 . S
C3022 C3023 1.388 . S
C3023 H3010 0.930 . S
C3023 C3022 1.388 . S
C3023 C3024 1.390 . S
C3024 C3023 1.390 . S
C3024 C3025 1.394 . S
C3024 C3030 1.465 . S
C3025 C3020 1.399 . S
C3025 C3024 1.394 . S
C3025 C3026 1.516 . S
C3026 C3025 1.516 . S
C3026 C3027 1.502 . S
C3026 C3028 1.561 . S
C3026 C3029 1.526 . S
C3027 H3011 0.959 . S
C3027 H3012 0.959 . S
C3027 H3013 0.961 . S
C3027 C3026 1.502 . S
C3028 H3014 0.960 . S
C3028 H3015 0.961 . S
C3028 H3016 0.959 . S
C3028 C3026 1.561 . S
C3029 C3026 1.526 . S
C3029 C3030 1.396 . S
C3029 C3034 1.390 . S
C3030 C3024 1.465 . S
C3030 C3029 1.396 . S
C3030 C3031 1.399 . S
C3031 H3017 0.929 . S
C3031 C3030 1.399 . S
C3031 C3032 1.385 . S
C3032 H3018 0.931 . S
C3032 C3031 1.385 . S
C3032 C3033 1.389 . S
C3033 C3032 1.389 . S
C3033 C3034 1.387 . S
C3034 H3019 0.930 . S
C3034 C3029 1.390 . S
C3034 C3033 1.387 . S
H3035 C3047 0.930 . S
H3036 C3049 0.930 . S
H3037 C3050 0.930 . S
H3038 C3054 0.954 1_545 S
H3039 C3054 0.959 1_545 S
H3040 C3054 0.961 . S
H3041 C3055 0.960 . S
H3042 C3055 0.961 . S
H3043 C3055 0.959 . S
H3044 C3058 0.929 . S
H3045 C3059 0.931 . S
H3046 C3061 0.930 . S
C3047 H3035 0.930 . S
C3047 C3048 1.399 . S
C3047 C3052 1.399 . S
C3048 C3047 1.399 . S
C3048 C3049 1.376 . S
C3049 H3036 0.930 . S
C3049 C3048 1.376 . S
C3049 C3050 1.388 . S
C3050 H3037 0.930 . S
C3050 C3049 1.388 . S
C3050 C3051 1.390 . S
C3051 C3050 1.390 . S
C3051 C3052 1.394 . S
C3051 C3057 1.465 . S
C3052 C3047 1.399 . S
C3052 C3051 1.394 . S
C3052 C3053 1.516 . S
C3053 C3052 1.516 . S
C3053 C3054 1.502 . S
C3053 C3055 1.561 . S
C3053 C3056 1.526 . S
C3054 H3038 0.954 1_565 S
C3054 H3039 0.959 1_565 S
C3054 H3040 0.961 . S
C3054 C3053 1.502 . S
C3055 H3041 0.960 . S
C3055 H3042 0.961 . S
C3055 H3043 0.959 . S
C3055 C3053 1.561 . S
C3056 C3053 1.526 . S
C3056 C3057 1.396 . S
C3056 C3061 1.390 . S
C3057 C3051 1.465 . S
C3057 C3056 1.396 . S
C3057 C3058 1.399 . S
C3058 H3044 0.929 . S
C3058 C3057 1.399 . S
C3058 C3059 1.385 . S
C3059 H3045 0.931 . S
C3059 C3058 1.385 . S
C3059 C3060 1.389 . S
C3060 C3059 1.389 . S
C3060 C3061 1.387 . S
C3061 H3046 0.930 . S
C3061 C3056 1.390 . S
C3061 C3060 1.387 . S
H3062 C3074 0.930 . S
H3063 C3076 0.930 . S
H3064 C3077 0.930 . S
H3065 C3081 0.959 . S
H3066 C3081 0.959 . S
H3067 C3081 0.961 . S
H3068 C3082 0.960 . S
H3069 C3082 0.961 . S
H3070 C3082 0.959 . S
H3071 C3085 0.929 . S
H3072 C3086 0.931 . S
H3073 C3088 0.930 . S
C3074 H3062 0.930 . S
C3074 C3075 1.399 . S
C3074 C3079 1.399 . S
C3075 C3074 1.399 . S
C3075 C3076 1.376 . S
C3076 H3063 0.930 . S
C3076 C3075 1.376 . S
C3076 C3077 1.388 . S
C3077 H3064 0.930 . S
C3077 C3076 1.388 . S
C3077 C3078 1.390 . S
C3078 C3077 1.390 . S
C3078 C3079 1.394 . S
C3078 C3084 1.465 . S
C3079 C3074 1.399 . S
C3079 C3078 1.394 . S
C3079 C3080 1.516 . S
C3080 C3079 1.516 . S
C3080 C3081 1.502 . S
C3080 C3082 1.561 . S
C3080 C3083 1.526 . S
C3081 H3065 0.959 . S
C3081 H3066 0.959 . S
C3081 H3067 0.961 . S
C3081 C3080 1.502 . S
C3082 H3068 0.960 . S
C3082 H3069 0.961 . S
C3082 H3070 0.959 . S
C3082 C3080 1.561 . S
C3083 C3080 1.526 . S
C3083 C3084 1.396 . S
C3083 C3088 1.390 . S
C3084 C3078 1.465 . S
C3084 C3083 1.396 . S
C3084 C3085 1.399 . S
C3085 H3071 0.929 . S
C3085 C3084 1.399 . S
C3085 C3086 1.385 . S
C3086 H3072 0.931 . S
C3086 C3085 1.385 . S
C3086 C3087 1.389 . S
C3087 C3086 1.389 . S
C3087 C3088 1.387 . S
C3088 H3073 0.930 . S
C3088 C3083 1.390 . S
C3088 C3087 1.387 . S
H3089 C3101 0.930 . S
H3090 C3103 0.930 . S
H3091 C3104 0.930 . S
H3092 C3108 0.959 . S
H3093 C3108 0.959 . S
H3094 C3108 0.961 . S
H3095 C3109 0.960 . S
H3096 C3109 0.961 . S
H3097 C3109 0.959 . S
H3098 C3112 0.929 . S
H3099 C3113 0.931 . S
H3100 C3115 0.930 . S
C3101 H3089 0.930 . S
C3101 C3102 1.399 1_554 S
C3101 C3106 1.399 . S
C3102 C3101 1.399 1_556 S
C3102 C3103 1.376 . S
C3103 H3090 0.930 . S
C3103 C3102 1.376 . S
C3103 C3104 1.388 . S
C3104 H3091 0.930 . S
C3104 C3103 1.388 . S
C3104 C3105 1.390 . S
C3105 C3104 1.390 . S
C3105 C3106 1.394 1_556 S
C3105 C3111 1.465 . S
C3106 C3101 1.399 . S
C3106 C3105 1.394 1_554 S
C3106 C3107 1.516 . S
C3107 C3106 1.516 . S
C3107 C3108 1.502 . S
C3107 C3109 1.561 . S
C3107 C3110 1.526 . S
C3108 H3092 0.959 . S
C3108 H3093 0.959 . S
C3108 H3094 0.961 . S
C3108 C3107 1.502 . S
C3109 H3095 0.960 . S
C3109 H3096 0.961 . S
C3109 H3097 0.959 . S
C3109 C3107 1.561 . S
C3110 C3107 1.526 . S
C3110 C3111 1.396 1_554 S
C3110 C3115 1.390 . S
C3111 C3105 1.465 . S
C3111 C3110 1.396 1_556 S
C3111 C3112 1.399 . S
C3112 H3098 0.929 . S
C3112 C3111 1.399 . S
C3112 C3113 1.385 . S
C3113 H3099 0.931 . S
C3113 C3112 1.385 . S
C3113 C3114 1.389 . S
C3114 C3113 1.389 . S
C3114 C3115 1.387 1_556 S
C3115 H3100 0.930 . S
C3115 C3110 1.390 . S
C3115 C3114 1.387 1_554 S
H3116 C3128 0.930 . S
H3117 C3130 0.930 . S
H3118 C3131 0.930 . S
H3119 C3135 0.959 . S
H3120 C3135 0.959 . S
H3121 C3135 0.961 . S
H3122 C3136 0.960 . S
H3123 C3136 0.961 . S
H3124 C3136 0.959 . S
H3125 C3139 0.929 . S
H3126 C3140 0.931 . S
H3127 C3142 0.930 . S
C3128 H3116 0.930 . S
C3128 C3129 1.399 . S
C3128 C3133 1.399 . S
C3129 C3128 1.399 . S
C3129 C3130 1.376 . S
C3130 H3117 0.930 . S
C3130 C3129 1.376 . S
C3130 C3131 1.388 . S
C3131 H3118 0.930 . S
C3131 C3130 1.388 . S
C3131 C3132 1.390 . S
C3132 C3131 1.390 . S
C3132 C3133 1.394 . S
C3132 C3138 1.465 . S
C3133 C3128 1.399 . S
C3133 C3132 1.394 . S
C3133 C3134 1.516 . S
C3134 C3133 1.516 . S
C3134 C3135 1.502 . S
C3134 C3136 1.561 . S
C3134 C3137 1.526 . S
C3135 H3119 0.959 . S
C3135 H3120 0.959 . S
C3135 H3121 0.961 . S
C3135 C3134 1.502 . S
C3136 H3122 0.960 . S
C3136 H3123 0.961 . S
C3136 H3124 0.959 . S
C3136 C3134 1.561 . S
C3137 C3134 1.526 . S
C3137 C3138 1.396 . S
C3137 C3142 1.390 . S
C3138 C3132 1.465 . S
C3138 C3137 1.396 . S
C3138 C3139 1.399 . S
C3139 H3125 0.929 . S
C3139 C3138 1.399 . S
C3139 C3140 1.385 . S
C3140 H3126 0.931 . S
C3140 C3139 1.385 . S
C3140 C3141 1.389 . S
C3141 C3140 1.389 . S
C3141 C3142 1.387 . S
C3142 H3127 0.930 . S
C3142 C3137 1.390 . S
C3142 C3141 1.387 . S
H3143 C3155 0.930 . S
H3144 C3157 0.930 1_556 S
H3145 C3158 0.930 . S
H3146 C3162 0.959 . S
H3147 C3162 0.959 . S
H3148 C3162 0.961 . S
H3149 C3163 0.960 . S
H3150 C3163 0.961 . S
H3151 C3163 0.959 . S
H3152 C3166 0.929 . S
H3153 C3167 0.931 . S
H3154 C3169 0.930 . S
C3155 H3143 0.930 . S
C3155 C3156 1.399 . S
C3155 C3160 1.399 . S
C3156 C3155 1.399 . S
C3156 C3157 1.376 . S
C3157 H3144 0.930 1_554 S
C3157 C3156 1.376 . S
C3157 C3158 1.388 1_554 S
C3158 H3145 0.930 . S
C3158 C3157 1.388 1_556 S
C3158 C3159 1.390 1_556 S
C3159 C3158 1.390 1_554 S
C3159 C3160 1.394 . S
C3159 C3165 1.465 . S
C3160 C3155 1.399 . S
C3160 C3159 1.394 . S
C3160 C3161 1.516 . S
C3161 C3160 1.516 . S
C3161 C3162 1.502 . S
C3161 C3163 1.561 . S
C3161 C3164 1.526 . S
C3162 H3146 0.959 . S
C3162 H3147 0.959 . S
C3162 H3148 0.961 . S
C3162 C3161 1.502 . S
C3163 H3149 0.960 . S
C3163 H3150 0.961 . S
C3163 H3151 0.959 . S
C3163 C3161 1.561 . S
C3164 C3161 1.526 . S
C3164 C3165 1.396 . S
C3164 C3169 1.390 . S
C3165 C3159 1.465 . S
C3165 C3164 1.396 . S
C3165 C3166 1.399 1_554 S
C3166 H3152 0.929 . S
C3166 C3165 1.399 1_556 S
C3166 C3167 1.385 . S
C3167 H3153 0.931 . S
C3167 C3166 1.385 . S
C3167 C3168 1.389 1_556 S
C3168 C3167 1.389 1_554 S
C3168 C3169 1.387 . S
C3169 H3154 0.930 . S
C3169 C3164 1.390 . S
C3169 C3168 1.387 . S
H3170 C3182 0.930 . S
H3171 C3184 0.930 . S
H3172 C3185 0.930 . S
H3173 C3189 0.959 . S
H3174 C3189 0.959 . S
H3175 C3189 0.961 . S
H3176 C3190 0.960 . S
H3177 C3190 0.961 . S
H3178 C3190 0.959 . S
H3179 C3193 0.929 . S
H3180 C3194 0.931 . S
H3181 C3196 0.930 . S
C3182 H3170 0.930 . S
C3182 C3183 1.399 . S
C3182 C3187 1.399 . S
C3183 C3182 1.399 . S
C3183 C3184 1.376 . S
C3184 H3171 0.930 . S
C3184 C3183 1.376 . S
C3184 C3185 1.388 . S
C3185 H3172 0.930 . S
C3185 C3184 1.388 . S
C3185 C3186 1.390 . S
C3186 C3185 1.390 . S
C3186 C3187 1.394 . S
C3186 C3192 1.465 . S
C3187 C3182 1.399 . S
C3187 C3186 1.394 . S
C3187 C3188 1.516 . S
C3188 C3187 1.516 . S
C3188 C3189 1.502 . S
C3188 C3190 1.561 . S
C3188 C3191 1.526 . S
C3189 H3173 0.959 . S
C3189 H3174 0.959 . S
C3189 H3175 0.961 . S
C3189 C3188 1.502 . S
C3190 H3176 0.960 . S
C3190 H3177 0.961 . S
C3190 H3178 0.959 . S
C3190 C3188 1.561 . S
C3191 C3188 1.526 . S
C3191 C3192 1.396 . S
C3191 C3196 1.390 . S
C3192 C3186 1.465 . S
C3192 C3191 1.396 . S
C3192 C3193 1.399 . S
C3193 H3179 0.929 . S
C3193 C3192 1.399 . S
C3193 C3194 1.385 . S
C3194 H3180 0.931 . S
C3194 C3193 1.385 . S
C3194 C3195 1.389 . S
C3195 C3194 1.389 . S
C3195 C3196 1.387 . S
C3196 H3181 0.930 . S
C3196 C3191 1.390 . S
C3196 C3195 1.387 . S
H3197 C3209 0.930 . S
H3198 C3211 0.930 . S
H3199 C3212 0.930 . S
H3200 C3216 0.959 . S
H3201 C3216 0.959 . S
H3202 C3216 0.961 . S
H3203 C3217 0.960 . S
H3204 C3217 0.961 . S
H3205 C3217 0.959 . S
H3206 C3220 0.929 . S
H3207 C3221 0.931 . S
H3208 C3223 0.930 . S
C3209 H3197 0.930 . S
C3209 C3210 1.399 . S
C3209 C3214 1.399 . S
C3210 C3209 1.399 . S
C3210 C3211 1.376 . S
C3211 H3198 0.930 . S
C3211 C3210 1.376 . S
C3211 C3212 1.388 . S
C3212 H3199 0.930 . S
C3212 C3211 1.388 . S
C3212 C3213 1.390 . S
C3213 C3212 1.390 . S
C3213 C3214 1.394 . S
C3213 C3219 1.465 . S
C3214 C3209 1.399 . S
C3214 C3213 1.394 . S
C3214 C3215 1.516 . S
C3215 C3214 1.516 . S
C3215 C3216 1.502 . S
C3215 C3217 1.561 . S
C3215 C3218 1.526 . S
C3216 H3200 0.959 . S
C3216 H3201 0.959 . S
C3216 H3202 0.961 . S
C3216 C3215 1.502 . S
C3217 H3203 0.960 . S
C3217 H3204 0.961 . S
C3217 H3205 0.959 . S
C3217 C3215 1.561 . S
C3218 C3215 1.526 . S
C3218 C3219 1.396 . S
C3218 C3223 1.390 . S
C3219 C3213 1.465 . S
C3219 C3218 1.396 . S
C3219 C3220 1.399 . S
C3220 H3206 0.929 . S
C3220 C3219 1.399 . S
C3220 C3221 1.385 . S
C3221 H3207 0.931 . S
C3221 C3220 1.385 . S
C3221 C3222 1.389 . S
C3222 C3221 1.389 . S
C3222 C3223 1.387 . S
C3223 H3208 0.930 . S
C3223 C3218 1.390 . S
C3223 C3222 1.387 . S
C645 C101 1.248 . S
C657 C328 1.140 . S
C672 C57 1.319 . S
C684 C341 1.314 . S
C699 C70 1.246 . S
C711 C360 1.237 . S
C738 C391 1.878 . S
C726 C82 1.887 . S
C753 C23 1.720 . S
C765 C411 1.720 . S
C792 C428 0.846 . S
C780 C29 0.766 . S
C819 C441 1.489 . S
C807 C49 1.482 . S
C834 C10 0.991 . S
C846 C468 1.052 . S
C873 C321 1.167 . S
C861 C218 1.181 . S
C888 C226 1.393 . S
C900 C351 1.385 . S
C927 C353 1.584 . S
C915 C251 1.691 1_565 S
C954 C388 0.748 . S
C942 C159 0.801 . S
C969 C211 1.061 . S
C981 C408 1.015 1_655 S
C1008 C421 1.756 . S
C996 C225 1.743 . S
C1035 C451 1.211 . S
C1023 C252 1.241 . S
C1062 C461 1.193 . S
C1050 C166 1.197 . S
C1089 C331 1.548 . S
C1077 C147 1.545 . S
C1104 C263 1.745 . S
C1116 C481 1.744 1_556 S
C1143 C511 1.595 . S
C1131 C309 1.570 . S
C1170 C528 1.049 . S
C1158 C291 1.125 . S
C1185 C108 1.920 . S
C1197 C471 1.922 . S
C1212 C121 1.261 . S
C1224 C358 1.290 . S
C1239 C302 1.801 . S
C1251 C541 1.799 . S
C1278 C568 0.982 . S
C1266 C276 0.914 . S
C1305 C318 1.322 . S
C1293 C55 1.408 . S
C1332 C553 1.421 . S
C1320 C96 1.463 . S
C1347 C88 1.523 . S
C1359 C371 1.512 . S
C1374 C75 2.129 . S
C1386 C540 2.048 . S
C1413 C400 1.845 . S
C1401 C4 1.905 . S
C1428 C44 1.043 . S
C1440 C498 1.041 . S
C1467 C433 1.603 . S
C1455 C31 1.602 . S
C1494 C578 1.140 . S
C1482 C18 1.176 . S
C1521 C313 1.398 . S
C1509 C133 1.396 . S
C1548 C560 1.656 . S
C1536 C296 1.662 . S
C1563 C107 1.868 . S
C1575 C361 1.840 . S
C1590 C264 1.107 . S
C1602 C538 1.110 . S
C1617 C140 1.346 . S
C1629 C398 1.332 . S
C1656 C493 1.903 . S
C1644 C289 1.904 . S
C1671 C114 1.512 . S
C1683 C440 1.478 . S
C1698 C265 1.378 . S
C1710 C573 1.376 . S
C1725 C179 1.815 . S
C1737 C320 1.770 . S
C1752 C161 1.910 . S
C1764 C473 1.898 . S
C1779 C244 1.836 . S
C1791 C420 1.812 . S
C1806 C224 1.403 . S
C1818 C518 1.387 . S
C1845 C580 2.066 . S
C1833 C257 2.097 . S
C1860 C199 1.387 . S
C1872 C368 1.365 . S
C1899 C373 1.959 . S
C1887 C237 1.981 . S
C1926 C338 1.171 . S
C1914 C185 1.194 . S
C1941 C69 1.237 . S
C1953 C608 1.170 . S
C1980 C561 1.312 . S
C1968 C83 1.319 . S
C1995 C94 1.205 . S
C2007 C620 1.205 1_556 S
C2022 C56 1.898 . S
C2034 C551 1.860 . S
C2049 C42 1.728 . S
C2061 C491 1.717 . S
C2088 C508 0.844 . S
C2076 C3 0.759 . S
C2115 C521 1.473 . S
C2103 C16 1.473 . S
C2142 C588 1.037 . S
C2130 C36 1.008 . S
C2169 C601 1.168 . S
C2157 C238 1.179 . S
C2184 C174 1.428 . S
C2196 C571 1.406 . S
C2223 C613 1.580 . S
C2211 C186 1.688 . S
C2250 C548 0.790 . S
C2238 C198 0.736 . S
C2277 C488 1.030 . S
C2265 C239 1.089 . S
C2292 C173 1.750 . S
C2304 C501 1.742 . S
C2331 C531 1.211 . S
C2319 C187 1.242 . S
C2346 C205 1.173 . S
C2358 C581 1.188 . S
C2385 C611 1.579 . S
C2373 C290 1.577 . S
C2400 C122 1.720 . S
C2412 C401 1.710 . S
C2439 C431 1.611 . S
C2427 C134 1.612 . S
C2466 C448 1.137 . S
C2454 C148 1.106 . S
C2493 C591 1.908 . S
C2481 C283 1.905 . S
C2508 C270 1.241 . S
C2520 C618 1.223 . S
C2547 C381 1.803 . S
C2535 C135 1.800 . S
C2574 C348 0.858 . S
C2562 C109 0.964 . S
C2589 C81 1.409 . S
C2601 C598 1.324 . S
C2628 C333 1.417 . S
C2616 C68 1.463 . S
C2643 C62 1.508 . S
C2655 C631 1.481 . S
C2670 C95 2.128 . S
C2682 C380 2.089 . S
C2697 C30 1.903 . S
C2709 C480 1.838 . S
C2736 C418 1.000 . S
C2724 C17 1.025 . S
C2751 C5 1.592 . S
C2763 C513 1.589 . S
C2778 C43 1.171 . S
C2790 C458 1.119 . S
C2817 C593 1.397 . S
C2805 C304 1.396 . S
C2832 C153 1.674 . S
C2844 C340 1.641 . S
C2871 C621 1.830 . S
C2859 C278 1.870 . S
C2886 C127 1.106 . S
C2898 C378 1.107 . S
C2913 C303 1.312 . S
C2925 C478 1.302 . S
C2952 C413 1.898 . S
C2940 C146 1.902 . S
C2967 C277 1.491 . S
C2979 C520 1.428 . S
C3006 C453 1.327 . S
C2994 C120 1.380 . S
C3033 C600 1.760 . S
C3021 C231 1.814 . S
C3060 C393 1.882 1_565 S
C3048 C200 1.906 . S
C3075 C212 1.840 . S
C3087 C500 1.800 . S
C3114 C438 1.387 1_556 S
C3102 C172 1.403 . S
C3129 C192 2.085 . S
C3141 C460 2.038 . S
C3156 C160 1.385 . S
C3168 C628 1.387 . S
C3195 C533 1.954 . S
C3183 C213 1.975 1_565 S
C3222 C558 1.130 . S
C3210 C250 1.150 . S
