# Generated by pormake.
# Topology zzz, (3,6)-cn, num edge types: 1
# Building blocks:
#     Node 0, Type 0, BuildingBlock: OLANEW_clean_sbu_2, # of connection points: 3
#     Node 1, Type 0, BuildingBlock: OLANEW_clean_sbu_2, # of connection points: 3
#     Node 2, Type 0, BuildingBlock: OLANEW_clean_sbu_2, # of connection points: 3
#     Node 3, Type 0, BuildingBlock: OLANEW_clean_sbu_2, # of connection points: 3
#     Node 4, Type 0, BuildingBlock: OLANEW_clean_sbu_2, # of connection points: 3
#     Node 5, Type 0, BuildingBlock: OLANEW_clean_sbu_2, # of connection points: 3
#     Node 6, Type 0, BuildingBlock: OLANEW_clean_sbu_2, # of connection points: 3
#     Node 7, Type 0, BuildingBlock: OLANEW_clean_sbu_2, # of connection points: 3
#     Node 8, Type 1, BuildingBlock: GEDQOX_clean_sbu_0, # of connection points: 6
#     Node 9, Type 1, BuildingBlock: GEDQOX_clean_sbu_0, # of connection points: 6
#     Node 10, Type 1, BuildingBlock: GEDQOX_clean_sbu_0, # of connection points: 6
#     Node 11, Type 1, BuildingBlock: GEDQOX_clean_sbu_0, # of connection points: 6
#     Edge 12, Type (0, 1), BuildingBlock: OJICUG_clean_linker_0, # of connection points: 2
#     Edge 13, Type (0, 1), BuildingBlock: OJICUG_clean_linker_0, # of connection points: 2
#     Edge 14, Type (0, 1), BuildingBlock: OJICUG_clean_linker_0, # of connection points: 2
#     Edge 15, Type (0, 1), BuildingBlock: OJICUG_clean_linker_0, # of connection points: 2
#     Edge 16, Type (0, 1), BuildingBlock: OJICUG_clean_linker_0, # of connection points: 2
#     Edge 17, Type (0, 1), BuildingBlock: OJICUG_clean_linker_0, # of connection points: 2
#     Edge 18, Type (0, 1), BuildingBlock: OJICUG_clean_linker_0, # of connection points: 2
#     Edge 19, Type (0, 1), BuildingBlock: OJICUG_clean_linker_0, # of connection points: 2
#     Edge 20, Type (0, 1), BuildingBlock: OJICUG_clean_linker_0, # of connection points: 2
#     Edge 21, Type (0, 1), BuildingBlock: OJICUG_clean_linker_0, # of connection points: 2
#     Edge 22, Type (0, 1), BuildingBlock: OJICUG_clean_linker_0, # of connection points: 2
#     Edge 23, Type (0, 1), BuildingBlock: OJICUG_clean_linker_0, # of connection points: 2
#     Edge 24, Type (0, 1), BuildingBlock: OJICUG_clean_linker_0, # of connection points: 2
#     Edge 25, Type (0, 1), BuildingBlock: OJICUG_clean_linker_0, # of connection points: 2
#     Edge 26, Type (0, 1), BuildingBlock: OJICUG_clean_linker_0, # of connection points: 2
#     Edge 27, Type (0, 1), BuildingBlock: OJICUG_clean_linker_0, # of connection points: 2
#     Edge 28, Type (0, 1), BuildingBlock: OJICUG_clean_linker_0, # of connection points: 2
#     Edge 29, Type (0, 1), BuildingBlock: OJICUG_clean_linker_0, # of connection points: 2
#     Edge 30, Type (0, 1), BuildingBlock: OJICUG_clean_linker_0, # of connection points: 2
#     Edge 31, Type (0, 1), BuildingBlock: OJICUG_clean_linker_0, # of connection points: 2
#     Edge 32, Type (0, 1), BuildingBlock: OJICUG_clean_linker_0, # of connection points: 2
#     Edge 33, Type (0, 1), BuildingBlock: OJICUG_clean_linker_0, # of connection points: 2
#     Edge 34, Type (0, 1), BuildingBlock: OJICUG_clean_linker_0, # of connection points: 2
#     Edge 35, Type (0, 1), BuildingBlock: OJICUG_clean_linker_0, # of connection points: 2
# Relax obj value: 0.154
# Max RMSD: 0.254
# Mean RMSD: 0.090
data_MOF--net-zzz--node1-OLANEW_clean_sbu_2--node2-GEDQOX_clean_sbu_0--edge1-OJICUG_clean_linker_0
_symmetry_space_group_name_H-M    P1
_symmetry_Int_Tables_number       1
_symmetry_cell_setting            triclinic
loop_
_symmetry_equiv_pos_as_xyz
'x, y, z'
_cell_length_a     43.218809
_cell_length_b     42.684251
_cell_length_c     15.436508
_cell_angle_alpha  78.320897
_cell_angle_beta   89.551003
_cell_angle_gamma 103.55341
loop_
_atom_site_label
_atom_site_type_symbol
_atom_site_fract_x
_atom_site_fract_y
_atom_site_fract_z
_atom_type_partial_charge
O0 O 0.80671 0.53624 0.82744 0.0
Cd1 Cd 0.76603 0.56695 0.78199 0.0
O2 O 0.81662 0.56992 0.91899 0.0
Cd3 Cd 0.84699 0.59139 0.01499 0.0
O4 O 0.87824 0.60211 0.12091 0.0
C5 C 0.89786 0.58437 0.14395 0.0
O6 O 0.89897 0.56067 0.10227 0.0
C7 C 0.82461 0.54843 0.88316 0.0
C8 C 0.70388 0.5485 0.85692 0.0
O9 O 0.71056 0.54094 0.78387 0.0
O10 O 0.7269 0.56296 0.89763 0.0
O11 O 0.98697 0.81828 0.87877 0.0
Cd12 Cd 0.96283 0.76216 0.86053 0.0
O13 O 0.99495 0.80855 0.02162 0.0
Cd14 Cd 0.01159 0.82611 0.14175 0.0
O15 O 0.0205 0.86221 0.22733 0.0
C16 C 0.99737 0.86456 0.27501 0.0
O17 O 0.96938 0.84423 0.27465 0.0
C18 C 0.99573 0.82884 0.94821 0.0
C19 C 0.99108 0.71004 0.92196 0.0
O20 O 0.99918 0.72851 0.84486 0.0
O21 O 0.97106 0.71743 0.97138 0.0
O22 O 0.75196 0.02201 0.76946 0.0
Cd23 Cd 0.79539 0.99453 0.75635 0.0
O24 O 0.74452 0.00708 0.91448 0.0
Cd25 Cd 0.71389 0.9982 0.03524 0.0
O26 O 0.67804 0.99265 0.14169 0.0
C27 C 0.67786 0.97262 0.21491 0.0
O28 O 0.69952 0.95531 0.22564 0.0
C29 C 0.73616 0.02086 0.84039 0.0
C30 C 0.85423 0.01236 0.82944 0.0
O31 O 0.84905 0.0272 0.75197 0.0
O32 O 0.83102 0.99044 0.87415 0.0
O33 O 0.64714 0.81549 0.26858 0.0
Cd34 Cd 0.66332 0.87177 0.28674 0.0
O35 O 0.60695 0.81602 0.35447 0.0
Cd36 Cd 0.56437 0.79278 0.44147 0.0
O37 O 0.54679 0.75042 0.54843 0.0
C38 C 0.56499 0.73071 0.55604 0.0
O39 O 0.59038 0.73816 0.50153 0.0
C40 C 0.62002 0.801 0.30697 0.0
C41 C 0.61615 0.9002 0.20857 0.0
O42 O 0.64062 0.89886 0.16337 0.0
O43 O 0.61444 0.88922 0.29254 0.0
O44 O 0.22985 0.53176 0.04158 0.0
Cd45 Cd 0.2699 0.49944 0.06997 0.0
O46 O 0.22194 0.51209 0.92114 0.0
Cd47 Cd 0.19223 0.49869 0.81451 0.0
O48 O 0.15876 0.48713 0.71434 0.0
C49 C 0.16842 0.49429 0.63322 0.0
O50 O 0.19869 0.50831 0.61149 0.0
C51 C 0.21395 0.5286 0.97372 0.0
C52 C 0.33165 0.52576 0.99451 0.0
O53 O 0.30953 0.51171 0.95039 0.0
O54 O 0.32414 0.52877 0.07244 0.0
O55 O 0.06424 0.26164 0.92553 0.0
Cd56 Cd 0.08611 0.31938 0.93396 0.0
O57 O 0.07873 0.26902 0.78443 0.0
Cd58 Cd 0.08744 0.24938 0.66791 0.0
O59 O 0.08596 0.21933 0.56783 0.0
C60 C 0.09218 0.19116 0.58864 0.0
O61 O 0.10066 0.18126 0.66919 0.0
C62 C 0.06666 0.24983 0.85712 0.0
C63 C 0.05164 0.36748 0.8866 0.0
O64 O 0.04835 0.34978 0.96538 0.0
O65 O 0.06964 0.361 0.82955 0.0
O66 O 0.33167 0.04209 0.99233 0.0
Cd67 Cd 0.2924 0.07548 -0.00064 0.0
O68 O 0.34752 0.06597 0.85412 0.0
Cd69 Cd 0.38291 0.07934 0.74168 0.0
O70 O 0.41709 0.09016 0.62755 0.0
C71 C 0.44361 0.08208 0.63556 0.0
O72 O 0.45073 0.06782 0.71389 0.0
C73 C 0.35065 0.0462 0.9253 0.0
C74 C 0.23017 0.05995 0.9433 0.0
O75 O 0.23675 0.04714 0.02142 0.0
O76 O 0.25328 0.0784 0.89026 0.0
O77 O 0.51761 0.27972 0.4645 0.0
Cd78 Cd 0.50939 0.23419 0.38941 0.0
O79 O 0.46893 0.28181 0.43182 0.0
Cd80 Cd 0.42752 0.30299 0.41768 0.0
O81 O 0.42541 0.34711 0.32186 0.0
C82 C 0.44245 0.35063 0.25148 0.0
O83 O 0.45487 0.32628 0.2406 0.0
C84 C 0.49445 0.29305 0.46761 0.0
C85 C 0.52427 0.18326 0.5087 0.0
O86 O 0.54486 0.20134 0.44778 0.0
O87 O 0.4963 0.18853 0.51057 0.0
Nd88 Nd 0.03782 0.04471 0.79968 0.0
Nd89 Nd 0.04386 0.03487 -0.0005 0.0
C90 C 0.02058 0.03995 0.63775 0.0
C91 C 0.01726 0.01446 0.58438 0.0
C92 C 0.00719 0.98086 0.62439 0.0
C93 C 0.0044 0.95686 0.5735 0.0
C94 C 0.01179 0.96591 0.48157 0.0
C95 C 0.02219 0.99958 0.44176 0.0
C96 C 0.02481 0.02364 0.49279 0.0
C97 C 0.09917 0.05114 0.85147 0.0
C98 C 0.03023 0.96953 0.92092 0.0
C99 C 0.06352 0.03785 0.16028 0.0
C100 C 0.06784 0.06085 0.22082 0.0
C101 C 0.09093 0.05964 0.28372 0.0
C102 C 0.09548 0.08125 0.34202 0.0
C103 C 0.07683 0.10441 0.33885 0.0
C104 C 0.05372 0.10554 0.27517 0.0
C105 C 0.04937 0.08406 0.21644 0.0
C106 C 0.98247 0.02816 0.94791 0.0
C107 C 0.04746 0.10977 0.88036 0.0
O108 O 1.00026 0.03357 0.70605 0.0
O109 O 0.04964 0.05333 0.65523 0.0
O110 O 0.09126 0.06963 0.78178 0.0
O111 O 0.07525 0.02941 0.88955 0.0
O112 O 0.02461 0.98813 0.84623 0.0
O113 O 0.04171 0.98204 0.98867 0.0
O114 O 0.0828 0.04667 0.08919 0.0
O115 O 0.03416 0.02457 0.14479 0.0
O116 O 0.99012 0.01048 0.01954 0.0
O117 O 0.00644 0.0497 0.90991 0.0
O118 O 0.05503 0.09159 0.95348 0.0
O119 O 0.03623 0.09665 0.81305 0.0
H120 H 1.00143 0.97309 0.69503 0.0
H121 H 0.99676 0.93114 0.60635 0.0
H122 H 0.02776 0.00733 0.371 0.0
H123 H 0.03261 0.04942 0.46077 0.0
H124 H 0.1055 0.04197 0.28771 0.0
H125 H 0.11381 0.07995 0.38908 0.0
H126 H 0.03861 0.12268 0.27151 0.0
H127 H 0.03147 0.08544 0.16797 0.0
Nd128 Nd 0.53463 0.0071 0.82088 0.0
Nd129 Nd 0.54801 0.04724 0.9616 0.0
C130 C 0.52285 0.96616 0.71152 0.0
C131 C 0.54361 0.96089 0.64227 0.0
C132 C 0.57582 0.96162 0.65637 0.0
C133 C 0.59656 0.96128 0.58692 0.0
C134 C 0.58561 0.96046 0.50167 0.0
C135 C 0.55318 0.95901 0.48813 0.0
C136 C 0.53238 0.95922 0.55789 0.0
C137 C 0.54923 0.07369 0.75493 0.0
C138 C 0.60815 0.03649 0.85091 0.0
C139 C 0.56344 0.08857 0.06976 0.0
C140 C 0.5504 0.08972 0.15741 0.0
C141 C 0.54654 0.11965 0.17462 0.0
C142 C 0.53212 0.12055 0.25534 0.0
C143 C 0.52139 0.09149 0.32041 0.0
C144 C 0.52602 0.06168 0.30368 0.0
C145 C 0.54023 0.06076 0.22293 0.0
C146 C 0.53939 0.98028 0.02544 0.0
C147 C 0.47397 0.01867 0.9301 0.0
O148 O 0.52975 0.95707 0.79396 0.0
O149 O 0.51594 0.99491 0.69541 0.0
O150 O 0.56012 0.05293 0.72023 0.0
O151 O 0.53132 0.05907 0.82325 0.0
O152 O 0.58803 0.01191 0.82662 0.0
O153 O 0.59803 0.05701 0.89163 0.0
O154 O 0.54526 0.09347 0.0035 0.0
O155 O 0.57734 0.06465 0.06721 0.0
O156 O 0.52793 0.99935 0.06576 0.0
O157 O 0.55411 0.99706 0.95451 0.0
O158 O 0.49424 0.04042 0.96433 0.0
O159 O 0.48369 0.00034 0.88107 0.0
H160 H 0.5853 0.96356 0.72034 0.0
H161 H 0.62146 0.96294 0.59932 0.0
H162 H 0.54398 0.95809 0.42338 0.0
H163 H 0.50772 0.95909 0.54531 0.0
H164 H 0.55417 0.14224 0.12496 0.0
H165 H 0.52913 0.14393 0.26659 0.0
H166 H 0.51763 0.03878 0.35177 0.0
H167 H 0.54264 0.03725 0.21116 0.0
Nd168 Nd 0.5177 0.55895 0.00566 0.0
Nd169 Nd 0.5196 0.52816 0.84273 0.0
C170 C 0.50829 0.59148 0.12842 0.0
C171 C 0.52505 0.62091 0.1591 0.0
C172 C 0.55393 0.64048 0.11647 0.0
C173 C 0.56979 0.66842 0.14654 0.0
C174 C 0.55699 0.67721 0.21972 0.0
C175 C 0.52811 0.65727 0.2625 0.0
C176 C 0.5123 0.62933 0.23238 0.0
C177 C 0.57564 0.54709 0.96591 0.0
C178 C 0.53583 0.60684 0.80831 0.0
C179 C 0.53379 0.49625 0.724 0.0
C180 C 0.5256 0.4645 0.69583 0.0
C181 C 0.54986 0.44833 0.68732 0.0
C182 C 0.54355 0.41932 0.65522 0.0
C183 C 0.51283 0.40601 0.63043 0.0
C184 C 0.48838 0.42195 0.64027 0.0
C185 C 0.49468 0.45093 0.67293 0.0
C186 C 0.46203 0.54123 0.87933 0.0
C187 C 0.49535 0.47975 0.03644 0.0
O188 O 0.49713 0.59649 0.04952 0.0
O189 O 0.52189 0.56673 0.14292 0.0
O190 O 0.56493 0.54479 0.04612 0.0
O191 O 0.55735 0.55796 0.91132 0.0
O192 O 0.52239 0.60345 0.88802 0.0
O193 O 0.54273 0.58171 0.78158 0.0
O194 O 0.54795 0.49668 0.79856 0.0
O195 O 0.51336 0.51487 0.71161 0.0
O196 O 0.47266 0.5424 0.79947 0.0
O197 O 0.47993 0.53021 0.93504 0.0
O198 O 0.50989 0.48272 0.95848 0.0
O199 O 0.49069 0.5058 0.06362 0.0
H200 H 0.56408 0.63422 0.05974 0.0
H201 H 0.59174 0.6835 0.11137 0.0
H202 H 0.51782 0.66318 0.31954 0.0
H203 H 0.49009 0.61429 0.26629 0.0
H204 H 0.57393 0.45853 0.70395 0.0
H205 H 0.56296 0.40787 0.64729 0.0
H206 H 0.46442 0.41204 0.62244 0.0
H207 H 0.4755 0.46288 0.67905 0.0
Nd208 Nd 0.02764 0.55974 0.82479 0.0
Nd209 Nd 0.01224 0.51578 0.0083 0.0
C210 C 0.02938 0.60323 0.67483 0.0
C211 C 0.01096 0.60438 0.59442 0.0
C212 C 0.02567 0.60369 0.5136 0.0
C213 C 0.00807 0.60213 0.4384 0.0
C214 C 0.97547 0.60162 0.4423 0.0
C215 C 0.96095 0.60336 0.5224 0.0
C216 C 0.97847 0.6046 0.59787 0.0
C217 C 0.02241 0.49412 0.82688 0.0
C218 C 0.95295 0.53134 0.90479 0.0
C219 C 0.01174 0.47274 0.15794 0.0
C220 C 0.03394 0.47409 0.22918 0.0
C221 C 0.03144 0.44725 0.30034 0.0
C222 C 0.05332 0.44895 0.36672 0.0
C223 C 0.07808 0.47746 0.36215 0.0
C224 C 0.08026 0.50428 0.2906 0.0
C225 C 0.05837 0.50261 0.22491 0.0
C226 C 0.01691 0.58142 0.00416 0.0
C227 C 0.08747 0.54731 0.93419 0.0
O228 O 0.01479 0.60431 0.74833 0.0
O229 O 0.04714 0.58198 0.68701 0.0
O230 O 0.04168 0.51809 0.77338 0.0
O231 O 0.00458 0.50492 0.87262 0.0
O232 O 0.97439 0.5554 0.85409 0.0
O233 O 0.96138 0.50755 0.96115 0.0
O234 O 0.02386 0.4702 0.08252 0.0
O235 O 0.99485 0.4948 0.14821 0.0
O236 O 0.99716 0.55758 0.05708 0.0
O237 O 0.03508 0.57035 0.96036 0.0
O238 O 0.06653 0.52343 0.98704 0.0
O239 O 0.07844 0.56883 0.87175 0.0
H240 H 0.05071 0.60371 0.50903 0.0
H241 H 0.01993 0.6012 0.37721 0.0
H242 H 0.93579 0.60274 0.52745 0.0
H243 H 0.96636 0.60504 0.65914 0.0
H244 H 0.01272 0.42503 0.30435 0.0
H245 H 0.05118 0.42785 0.42084 0.0
H246 H 0.09868 0.52677 0.2859 0.0
H247 H 0.0605 0.52365 0.17054 0.0
C248 C 0.17142 0.03396 0.97316 0.0
C249 C 0.19666 0.05571 0.91728 0.0
H250 H 0.12074 0.01525 0.9959 0.0
C251 C 0.18942 0.0752 0.8388 0.0
H252 H 0.17615 0.01865 0.0342 0.0
C253 C 0.15775 0.0736 0.81774 0.0
C254 C 0.13256 0.05222 0.87409 0.0
H255 H 0.20821 0.09233 0.79445 0.0
H256 H 0.15302 0.0893 0.75737 0.0
C257 C 0.13968 0.0321 0.95149 0.0
C258 C 0.51451 0.14498 0.6566 0.0
C259 C 0.53258 0.15723 0.57566 0.0
H260 H 0.50639 0.10937 0.77902 0.0
C261 C 0.55845 0.14424 0.55907 0.0
H262 H 0.49466 0.15489 0.67141 0.0
C263 C 0.56505 0.11815 0.62036 0.0
C264 C 0.5461 0.10493 0.69952 0.0
H265 H 0.57284 0.15337 0.49733 0.0
H266 H 0.58421 0.10749 0.60426 0.0
C267 C 0.52141 0.11921 0.71853 0.0
C268 C 0.38986 0.54046 0.01892 0.0
C269 C 0.36537 0.53504 0.96041 0.0
H270 H 0.43968 0.54642 0.03873 0.0
C271 C 0.37343 0.53521 0.8718 0.0
H272 H 0.38448 0.54046 0.08758 0.0
C273 C 0.40524 0.53914 0.84349 0.0
C274 C 0.42934 0.54236 0.90379 0.0
H275 H 0.35508 0.53121 0.8251 0.0
H276 H 0.41073 0.538 0.77577 0.0
C277 C 0.42148 0.54379 0.99106 0.0
C278 C 0.01864 0.4045 0.92684 0.0
C279 C 0.03841 0.39704 0.86485 0.0
H280 H 0.99668 0.44091 0.96164 0.0
C281 C 0.04863 0.42012 0.78528 0.0
H282 H 0.01004 0.38706 0.98837 0.0
C283 C 0.04173 0.45103 0.77149 0.0
C284 C 0.02401 0.45941 0.83613 0.0
H285 H 0.06352 0.41508 0.73559 0.0
H286 H 0.05138 0.4689 0.71145 0.0
C287 C 0.01114 0.43535 0.91195 0.0
C288 C 0.89296 0.99869 0.94264 0.0
C289 C 0.88664 0.01846 0.86341 0.0
H290 H 0.92825 0.98612 0.03091 0.0
C291 C 0.91206 0.0424 0.8139 0.0
H292 H 0.87398 0.97994 0.98224 0.0
C293 C 0.94318 0.04596 0.84202 0.0
C294 C 0.94951 0.02552 0.91988 0.0
H295 H 0.90805 0.05801 0.75253 0.0
H296 H 0.96233 0.06435 0.80208 0.0
C297 C 0.92407 0.00212 0.9704 0.0
C298 C 0.58994 0.91963 0.0722 0.0
C299 C 0.59134 0.9151 0.16452 0.0
H300 H 0.57081 0.94264 0.95609 0.0
C301 C 0.57027 0.92674 0.21257 0.0
H302 H 0.60534 0.91025 0.03362 0.0
C303 C 0.55056 0.94568 0.16787 0.0
C304 C 0.55138 0.95264 0.07476 0.0
H305 H 0.5705 0.92306 0.28405 0.0
H306 H 0.53653 0.95676 0.20574 0.0
C307 C 0.56991 0.93791 0.02787 0.0
C308 C 0.64656 0.54368 0.82663 0.0
C309 C 0.67038 0.54403 0.88808 0.0
H310 H 0.59829 0.54555 0.80272 0.0
C311 C 0.66233 0.54343 0.97693 0.0
H312 H 0.65211 0.54455 0.75749 0.0
C313 C 0.63114 0.54309 0.00335 0.0
C314 C 0.60776 0.54427 0.94085 0.0
H315 H 0.68025 0.54378 0.02561 0.0
H316 H 0.62563 0.54311 0.07192 0.0
C317 C 0.61572 0.5443 0.85248 0.0
C318 C 0.02406 0.67102 0.89621 0.0
C319 C 1.00186 0.67918 0.94965 0.0
H320 H 0.04701 0.6337 0.87284 0.0
C321 C 0.98751 0.65605 0.02581 0.0
H322 H 0.03565 0.68838 0.83729 0.0
C323 C 0.99368 0.62481 0.04501 0.0
C324 C 0.01449 0.61601 0.98921 0.0
H325 H 0.97037 0.66146 0.06863 0.0
H326 H 0.98132 0.60713 0.1022 0.0
C327 C 0.03052 0.63973 0.9163 0.0
C328 C 0.06712 0.19363 0.94112 0.0
C329 C 0.05899 0.21372 0.86531 0.0
H330 H 0.07029 0.14523 0.00494 0.0
C331 C 0.04527 0.19916 0.7965 0.0
H332 H 0.07764 0.20422 0.99533 0.0
C333 C 0.0411 0.16531 0.80167 0.0
C334 C 0.05058 0.14539 0.87587 0.0
H335 H 0.03783 0.21394 0.73857 0.0
H336 H 0.03087 0.15488 0.74693 0.0
C337 C 0.06309 0.15985 0.94625 0.0
C338 C 0.38984 0.01938 0.86673 0.0
C339 C 0.37909 0.03245 0.93454 0.0
H340 H 0.42806 0.00319 0.8142 0.0
C341 C 0.39778 0.03588 0.00756 0.0
H342 H 0.37569 0.01625 0.81011 0.0
C343 C 0.42798 0.02928 0.00887 0.0
C344 C 0.4397 0.01822 0.93834 0.0
H345 H 0.39002 0.0459 0.06073 0.0
H346 H 0.44276 0.03429 0.06319 0.0
C347 C 0.4197 0.01174 0.86942 0.0
C348 C 0.51537 0.32234 0.58701 0.0
C349 C 0.4979 0.32137 0.51091 0.0
H350 H 0.53317 0.34956 0.68585 0.0
C351 C 0.48514 0.34816 0.47504 0.0
H352 H 0.52565 0.30202 0.61574 0.0
C353 C 0.48934 0.37532 0.51498 0.0
C354 C 0.50679 0.37635 0.59119 0.0
H355 H 0.47313 0.34877 0.41415 0.0
H356 H 0.47983 0.39599 0.48447 0.0
C357 C 0.51971 0.34952 0.62696 0.0
C358 C 0.17397 0.55163 0.88013 0.0
C359 C 0.18378 0.53918 0.96406 0.0
H360 H 0.13561 0.56481 0.8049 0.0
C361 C 0.16296 0.53354 0.03881 0.0
H362 H 0.18981 0.55661 0.82165 0.0
C363 C 0.13202 0.53775 0.02916 0.0
C364 C 0.12158 0.54851 0.94483 0.0
H365 H 0.16992 0.52392 0.10426 0.0
H366 H 0.11589 0.53152 0.08748 0.0
C367 C 0.14314 0.55658 0.87065 0.0
C368 C 0.02061 0.88594 0.8638 0.0
C369 C 0.00579 0.86482 0.94263 0.0
H370 H 0.03986 0.93591 0.79503 0.0
C371 C 0.99867 0.87865 0.01333 0.0
H372 H 0.02574 0.87606 0.80743 0.0
C373 C 0.00785 0.91266 0.00749 0.0
C374 C 0.02274 0.93362 0.92894 0.0
H375 H 0.98483 0.86345 0.07184 0.0
H376 H 1.00204 0.92266 0.063 0.0
C377 C 0.02872 0.92009 0.8567 0.0
C378 C 0.69511 0.04563 0.89886 0.0
C379 C 0.70545 0.03054 0.8349 0.0
H380 H 0.65601 0.06006 0.95318 0.0
C381 C 0.68483 0.02171 0.76939 0.0
H382 H 0.71081 0.05327 0.94901 0.0
C383 C 0.65361 0.02538 0.772 0.0
C384 C 0.64257 0.03861 0.83908 0.0
H385 H 0.69222 0.01009 0.71917 0.0
H386 H 0.63771 0.01668 0.72337 0.0
C387 C 0.66392 0.04984 0.90064 0.0
C388 C 0.62172 0.74652 0.27336 0.0
C389 C 0.60386 0.76792 0.29369 0.0
H390 H 0.62091 0.70069 0.23589 0.0
C391 C 0.57048 0.75873 0.29276 0.0
H392 H 0.64751 0.75309 0.27307 0.0
C393 C 0.55527 0.72887 0.27123 0.0
C394 C 0.57312 0.70769 0.24919 0.0
H395 H 0.55613 0.77527 0.30434 0.0
H396 H 0.52958 0.72303 0.26826 0.0
C397 C 0.60651 0.71665 0.25161 0.0
C398 C 0.88278 0.5698 0.88509 0.0
C399 C 0.85673 0.54245 0.8945 0.0
H400 H 0.93329 0.58749 0.88058 0.0
C401 C 0.86224 0.51066 0.90882 0.0
H402 H 0.87924 0.5946 0.87223 0.0
C403 C 0.89355 0.50646 0.91503 0.0
C404 C 0.91954 0.53411 0.9036 0.0
H405 H 0.84245 0.48923 0.91542 0.0
H406 H 0.89747 0.48184 0.92619 0.0
C407 C 0.91376 0.56572 0.88889 0.0
C408 C 0.08233 0.18059 0.43585 0.0
C409 C 0.08884 0.16929 0.52422 0.0
H410 H 0.07408 0.16936 0.30781 0.0
C411 C 0.0916 0.13661 0.551 0.0
H412 H 0.08017 0.20567 0.41297 0.0
C413 C 0.08778 0.11569 0.49092 0.0
C414 C 0.08118 0.1269 0.40249 0.0
H415 H 0.09636 0.12701 0.61875 0.0
H416 H 0.08954 0.09052 0.51429 0.0
C417 C 0.07862 0.15968 0.37566 0.0
C418 C 0.46069 0.10668 0.47588 0.0
C419 C 0.46523 0.08671 0.55672 0.0
H420 H 0.47495 0.12396 0.33809 0.0
C421 C 0.48991 0.07018 0.56073 0.0
H422 H 0.44203 0.11993 0.47081 0.0
C423 C 0.50887 0.07258 0.48474 0.0
C424 C 0.50364 0.09168 0.40314 0.0
H425 H 0.49413 0.05472 0.62213 0.0
H426 H 0.52737 0.05913 0.48966 0.0
C427 C 0.47976 0.10923 0.4 0.0
C428 C 0.4726 0.38706 0.11506 0.0
C429 C 0.4534 0.38331 0.19215 0.0
H430 H 0.50112 0.42047 0.00565 0.0
C431 C 0.44745 0.41144 0.21631 0.0
H432 H 0.47767 0.36584 0.09479 0.0
C433 C 0.46117 0.44276 0.16579 0.0
C434 C 0.48096 0.44657 0.08977 0.0
H435 H 0.43292 0.40938 0.27565 0.0
H436 H 0.45639 0.46397 0.1868 0.0
C437 C 0.48619 0.41839 0.06424 0.0
C438 C 0.11325 0.47317 0.58733 0.0
C439 C 0.14562 0.4882 0.56402 0.0
H440 H 0.06646 0.45805 0.54198 0.0
C441 C 0.15583 0.49815 0.47393 0.0
H442 H 0.10474 0.46517 0.6562 0.0
C443 C 0.13399 0.49397 0.40857 0.0
C444 C 0.10147 0.4797 0.43183 0.0
H445 H 0.18063 0.50962 0.4537 0.0
H446 H 0.14255 0.50207 0.33964 0.0
C447 C 0.09138 0.4689 0.52194 0.0
C448 C 0.02853 0.91703 0.31361 0.0
C449 C 1.00144 0.89044 0.32799 0.0
H450 H 0.05297 0.96187 0.35043 0.0
C451 C 0.97775 0.88912 0.39242 0.0
H452 H 0.04709 0.9189 0.26396 0.0
C453 C 0.98117 0.9136 0.44198 0.0
C454 C 0.00822 0.94019 0.42776 0.0
H455 H 0.95654 0.86906 0.40495 0.0
H456 H 0.96241 0.9119 0.49088 0.0
C457 C 0.03179 0.94177 0.36261 0.0
C458 C 0.62966 0.98635 0.27501 0.0
C459 C 0.65377 0.969 0.28736 0.0
H460 H 0.58929 0.99731 0.33286 0.0
C461 C 0.65469 0.94812 0.36984 0.0
H462 H 0.62816 0.00253 0.21214 0.0
C463 C 0.63224 0.94489 0.43868 0.0
C464 C 0.60835 0.96251 0.4268 0.0
H465 H 0.67279 0.93421 0.38142 0.0
H466 H 0.63355 0.92851 0.50133 0.0
C467 C 0.60719 0.98314 0.34396 0.0
C468 C 0.57359 0.67498 0.61534 0.0
C469 C 0.55778 0.6996 0.62289 0.0
H470 H 0.57903 0.62651 0.66805 0.0
C471 C 0.5353 0.69402 0.69407 0.0
H472 H 0.59102 0.67853 0.56123 0.0
C473 C 0.52867 0.66415 0.75634 0.0
C474 C 0.54404 0.63931 0.74732 0.0
H475 H 0.52289 0.71269 0.70164 0.0
H476 H 0.51103 0.66023 0.81017 0.0
C477 C 0.56665 0.64511 0.67652 0.0
C478 C 0.93994 0.56976 0.24407 0.0
C479 C 0.91834 0.5895 0.2187 0.0
H480 H 0.97511 0.55837 0.33411 0.0
C481 C 0.91611 0.61374 0.26647 0.0
H482 H 0.94225 0.55086 0.20873 0.0
C483 C 0.93481 0.61786 0.33869 0.0
C484 C 0.95635 0.59808 0.364 0.0
H485 H 0.89971 0.62936 0.24864 0.0
H486 H 0.93252 0.63662 0.37455 0.0
C487 C 0.95892 0.57418 0.31553 0.0
loop_
_geom_bond_atom_site_label_1
_geom_bond_atom_site_label_2
_geom_bond_distance
_geom_bond_site_symmetry_2
_ccdc_geom_bond_type
O0 Cd1 2.300 . S
O0 C7 1.275 . S
Cd1 O0 2.300 . S
Cd1 O9 2.381 . S
Cd1 O10 2.378 . S
O2 Cd3 2.385 1_556 S
O2 C7 1.255 . S
Cd3 O2 2.385 1_554 S
Cd3 O4 2.317 . S
O4 Cd3 2.317 . S
O4 C5 1.232 . S
C5 O4 1.232 . S
C5 O6 1.218 . S
O6 C5 1.218 . S
C7 O0 1.275 . S
C7 O2 1.255 . S
C8 O9 1.258 . S
C8 O10 1.256 . S
O9 Cd1 2.381 . S
O9 C8 1.258 . S
O10 Cd1 2.378 . S
O10 C8 1.256 . S
O11 Cd12 2.300 1_556 S
O11 C18 1.275 . S
Cd12 O11 2.300 1_554 S
Cd12 O20 2.381 1_554 S
Cd12 O21 2.378 . S
O13 Cd14 2.385 1_655 S
O13 C18 1.255 1_554 S
Cd14 O13 2.385 1_455 S
Cd14 O15 2.317 1_455 S
O15 Cd14 2.317 1_655 S
O15 C16 1.232 . S
C16 O15 1.232 . S
C16 O17 1.218 . S
O17 C16 1.218 . S
C18 O11 1.275 . S
C18 O13 1.255 1_556 S
C19 O20 1.258 1_554 S
C19 O21 1.256 . S
O20 Cd12 2.381 1_556 S
O20 C19 1.258 1_556 S
O21 Cd12 2.378 . S
O21 C19 1.256 . S
O22 Cd23 2.300 . S
O22 C29 1.275 . S
Cd23 O22 2.300 . S
Cd23 O31 2.381 . S
Cd23 O32 2.378 1_565 S
O24 Cd25 2.385 1_556 S
O24 C29 1.255 1_545 S
Cd25 O24 2.385 1_554 S
Cd25 O26 2.317 1_545 S
O26 Cd25 2.317 1_565 S
O26 C27 1.232 . S
C27 O26 1.232 . S
C27 O28 1.218 1_565 S
O28 C27 1.218 1_545 S
C29 O22 1.275 . S
C29 O24 1.255 1_565 S
C30 O31 1.258 . S
C30 O32 1.256 1_565 S
O31 Cd23 2.381 . S
O31 C30 1.258 . S
O32 Cd23 2.378 1_545 S
O32 C30 1.256 1_545 S
O33 Cd34 2.300 . S
O33 C40 1.275 . S
Cd34 O33 2.300 . S
Cd34 O42 2.381 . S
Cd34 O43 2.378 . S
O35 Cd36 2.385 . S
O35 C40 1.255 . S
Cd36 O35 2.385 . S
Cd36 O37 2.317 . S
O37 Cd36 2.317 . S
O37 C38 1.232 . S
C38 O37 1.232 . S
C38 O39 1.218 . S
O39 C38 1.218 . S
C40 O33 1.275 . S
C40 O35 1.255 . S
C41 O42 1.258 . S
C41 O43 1.256 . S
O42 Cd34 2.381 . S
O42 C41 1.258 . S
O43 Cd34 2.378 . S
O43 C41 1.256 . S
O44 Cd45 2.300 . S
O44 C51 1.275 . S
Cd45 O44 2.300 . S
Cd45 O53 2.381 . S
Cd45 O54 2.378 . S
O46 Cd47 2.385 . S
O46 C51 1.255 . S
Cd47 O46 2.385 . S
Cd47 O48 2.317 . S
O48 Cd47 2.317 . S
O48 C49 1.232 . S
C49 O48 1.232 . S
C49 O50 1.218 . S
O50 C49 1.218 . S
C51 O44 1.275 . S
C51 O46 1.255 . S
C52 O53 1.258 . S
C52 O54 1.256 . S
O53 Cd45 2.381 . S
O53 C52 1.258 . S
O54 Cd45 2.378 . S
O54 C52 1.256 . S
O55 Cd56 2.300 . S
O55 C62 1.275 . S
Cd56 O55 2.300 . S
Cd56 O64 2.381 . S
Cd56 O65 2.378 . S
O57 Cd58 2.385 . S
O57 C62 1.255 . S
Cd58 O57 2.385 . S
Cd58 O59 2.317 . S
O59 Cd58 2.317 . S
O59 C60 1.232 . S
C60 O59 1.232 . S
C60 O61 1.218 . S
O61 C60 1.218 . S
C62 O55 1.275 . S
C62 O57 1.255 . S
C63 O64 1.258 . S
C63 O65 1.256 . S
O64 Cd56 2.381 . S
O64 C63 1.258 . S
O65 Cd56 2.378 . S
O65 C63 1.256 . S
O66 Cd67 2.300 . S
O66 C73 1.275 . S
Cd67 O66 2.300 . S
Cd67 O75 2.381 . S
Cd67 O76 2.378 . S
O68 Cd69 2.385 . S
O68 C73 1.255 . S
Cd69 O68 2.385 . S
Cd69 O70 2.317 . S
O70 Cd69 2.317 . S
O70 C71 1.232 . S
C71 O70 1.232 . S
C71 O72 1.218 . S
O72 C71 1.218 . S
C73 O66 1.275 . S
C73 O68 1.255 . S
C74 O75 1.258 . S
C74 O76 1.256 . S
O75 Cd67 2.381 . S
O75 C74 1.258 . S
O76 Cd67 2.378 . S
O76 C74 1.256 . S
O77 Cd78 2.300 . S
O77 C84 1.275 . S
Cd78 O77 2.300 . S
Cd78 O86 2.381 . S
Cd78 O87 2.378 . S
O79 Cd80 2.385 . S
O79 C84 1.255 . S
Cd80 O79 2.385 . S
Cd80 O81 2.317 . S
O81 Cd80 2.317 . S
O81 C82 1.232 . S
C82 O81 1.232 . S
C82 O83 1.218 . S
O83 C82 1.218 . S
C84 O77 1.275 . S
C84 O79 1.255 . S
C85 O86 1.258 . S
C85 O87 1.256 . S
O86 Cd78 2.381 . S
O86 C85 1.258 . S
O87 Cd78 2.378 . S
O87 C85 1.256 . S
Nd88 C90 2.836 1_545 S
Nd88 O108 2.500 1_445 S
Nd88 O109 2.492 . S
Nd88 O110 2.487 . S
Nd88 O111 2.682 . S
Nd88 O112 2.410 1_545 S
Nd88 O117 2.414 1_455 S
Nd88 O119 2.424 . S
Nd89 C99 2.836 . S
Nd89 O111 2.414 1_554 S
Nd89 O113 2.424 1_545 S
Nd89 O114 2.500 . S
Nd89 O115 2.492 . S
Nd89 O116 2.487 1_455 S
Nd89 O117 2.682 1_454 S
Nd89 O118 2.410 1_554 S
C90 Nd88 2.836 1_565 S
C90 C91 1.498 . S
C90 O108 1.258 1_455 S
C90 O109 1.239 1_565 S
C91 C90 1.498 . S
C91 C92 1.366 1_455 S
C91 C96 1.407 . S
C92 C91 1.366 1_655 S
C92 C93 1.392 . S
C92 H120 0.930 . S
C93 C92 1.392 . S
C93 C94 1.398 . S
C93 H121 0.929 . S
C94 C93 1.398 . S
C94 C95 1.352 1_655 S
C95 C94 1.352 1_455 S
C95 C96 1.384 . S
C95 H122 0.930 . S
C96 C91 1.407 . S
C96 C95 1.384 . S
C96 H123 0.929 . S
C97 O110 1.241 . S
C97 O111 1.273 . S
C98 O112 1.251 . S
C98 O113 1.268 1_556 S
C99 Nd89 2.836 . S
C99 C100 1.498 . S
C99 O114 1.258 . S
C99 O115 1.239 . S
C100 C99 1.498 . S
C100 C101 1.366 . S
C100 C105 1.407 . S
C101 C100 1.366 . S
C101 C102 1.392 . S
C101 H124 0.930 . S
C102 C101 1.392 . S
C102 C103 1.398 . S
C102 H125 0.929 . S
C103 C102 1.398 . S
C103 C104 1.352 . S
C104 C103 1.352 . S
C104 C105 1.384 . S
C104 H126 0.930 . S
C105 C100 1.407 . S
C105 C104 1.384 . S
C105 H127 0.929 . S
C106 O116 1.241 1_556 S
C106 O117 1.273 . S
C107 O118 1.251 . S
C107 O119 1.268 . S
O108 Nd88 2.500 1_665 S
O108 C90 1.258 1_655 S
O109 Nd88 2.492 . S
O109 C90 1.239 1_545 S
O110 Nd88 2.487 . S
O110 C97 1.241 . S
O111 Nd88 2.682 . S
O111 Nd89 2.414 1_556 S
O111 C97 1.273 . S
O112 Nd88 2.410 1_565 S
O112 C98 1.251 . S
O113 Nd89 2.424 1_565 S
O113 C98 1.268 1_554 S
O114 Nd89 2.500 . S
O114 C99 1.258 . S
O115 Nd89 2.492 . S
O115 C99 1.239 . S
O116 Nd89 2.487 1_655 S
O116 C106 1.241 1_554 S
O117 Nd88 2.414 1_655 S
O117 Nd89 2.682 1_656 S
O117 C106 1.273 . S
O118 Nd89 2.410 1_556 S
O118 C107 1.251 . S
O119 Nd88 2.424 . S
O119 C107 1.268 . S
H120 C92 0.930 . S
H121 C93 0.929 . S
H122 C95 0.930 . S
H123 C96 0.929 . S
H124 C101 0.930 . S
H125 C102 0.929 . S
H126 C104 0.930 . S
H127 C105 0.929 . S
Nd128 C130 2.836 1_545 S
Nd128 O148 2.500 1_545 S
Nd128 O149 2.492 . S
Nd128 O150 2.487 . S
Nd128 O151 2.682 . S
Nd128 O152 2.410 . S
Nd128 O157 2.416 . S
Nd128 O159 2.424 . S
Nd129 C139 2.836 . S
Nd129 O151 2.414 1_554 S
Nd129 O153 2.424 1_554 S
Nd129 O154 2.500 . S
Nd129 O155 2.492 . S
Nd129 O156 2.487 1_545 S
Nd129 O157 2.694 1_554 S
Nd129 O158 2.410 1_554 S
C130 Nd128 2.836 1_565 S
C130 C131 1.498 . S
C130 O148 1.258 . S
C130 O149 1.239 1_565 S
C131 C130 1.498 . S
C131 C132 1.366 . S
C131 C136 1.407 1_565 S
C132 C131 1.366 . S
C132 C133 1.392 . S
C132 H160 0.930 . S
C133 C132 1.392 . S
C133 C134 1.398 . S
C133 H161 0.929 . S
C134 C133 1.398 . S
C134 C135 1.352 . S
C135 C134 1.352 . S
C135 C136 1.384 1_565 S
C135 H162 0.930 1_565 S
C136 C131 1.407 1_545 S
C136 C135 1.384 1_545 S
C136 H163 0.929 . S
C137 O150 1.241 . S
C137 O151 1.273 . S
C138 O152 1.251 . S
C138 O153 1.268 . S
C139 Nd129 2.836 . S
C139 C140 1.498 . S
C139 O154 1.258 . S
C139 O155 1.239 . S
C140 C139 1.498 . S
C140 C141 1.366 . S
C140 C145 1.407 . S
C141 C140 1.366 . S
C141 C142 1.392 . S
C141 H164 0.930 . S
C142 C141 1.392 . S
C142 C143 1.398 . S
C142 H165 0.929 . S
C143 C142 1.398 . S
C143 C144 1.352 . S
C144 C143 1.352 . S
C144 C145 1.384 . S
C144 H166 0.930 . S
C145 C140 1.407 . S
C145 C144 1.384 . S
C145 H167 0.929 . S
C146 O156 1.241 . S
C146 O157 1.268 1_564 S
C147 O158 1.251 . S
C147 O159 1.268 . S
O148 Nd128 2.500 1_565 S
O148 C130 1.258 . S
O149 Nd128 2.492 . S
O149 C130 1.239 1_545 S
O150 Nd128 2.487 . S
O150 C137 1.241 . S
O151 Nd128 2.682 . S
O151 Nd129 2.414 1_556 S
O151 C137 1.273 . S
O152 Nd128 2.410 . S
O152 C138 1.251 . S
O153 Nd129 2.424 1_556 S
O153 C138 1.268 . S
O154 Nd129 2.500 . S
O154 C139 1.258 . S
O155 Nd129 2.492 . S
O155 C139 1.239 . S
O156 Nd129 2.487 1_565 S
O156 C146 1.241 . S
O157 Nd128 2.416 . S
O157 Nd129 2.694 1_556 S
O157 C146 1.268 1_546 S
O158 Nd129 2.410 1_556 S
O158 C147 1.251 . S
O159 Nd128 2.424 . S
O159 C147 1.268 . S
H160 C132 0.930 . S
H161 C133 0.929 . S
H162 C135 0.930 1_545 S
H163 C136 0.929 . S
H164 C141 0.930 . S
H165 C142 0.929 . S
H166 C144 0.930 . S
H167 C145 0.929 . S
Nd168 C170 2.836 . S
Nd168 O188 2.500 . S
Nd168 O189 2.492 . S
Nd168 O190 2.487 . S
Nd168 O191 2.682 1_554 S
Nd168 O192 2.410 1_554 S
Nd168 O197 2.414 1_554 S
Nd168 O199 2.424 . S
Nd169 C179 2.836 . S
Nd169 O191 2.414 . S
Nd169 O193 2.424 . S
Nd169 O194 2.500 . S
Nd169 O195 2.492 . S
Nd169 O196 2.487 . S
Nd169 O197 2.682 . S
Nd169 O198 2.410 . S
C170 Nd168 2.836 . S
C170 C171 1.498 . S
C170 O188 1.258 . S
C170 O189 1.239 . S
C171 C170 1.498 . S
C171 C172 1.366 . S
C171 C176 1.407 . S
C172 C171 1.366 . S
C172 C173 1.392 . S
C172 H200 0.930 . S
C173 C172 1.392 . S
C173 C174 1.398 . S
C173 H201 0.929 . S
C174 C173 1.398 . S
C174 C175 1.352 . S
C175 C174 1.352 . S
C175 C176 1.384 . S
C175 H202 0.930 . S
C176 C171 1.407 . S
C176 C175 1.384 . S
C176 H203 0.929 . S
C177 O190 1.241 1_556 S
C177 O191 1.273 . S
C178 O192 1.251 . S
C178 O193 1.268 . S
C179 Nd169 2.836 . S
C179 C180 1.498 . S
C179 O194 1.258 . S
C179 O195 1.239 . S
C180 C179 1.498 . S
C180 C181 1.366 . S
C180 C185 1.407 . S
C181 C180 1.366 . S
C181 C182 1.392 . S
C181 H204 0.930 . S
C182 C181 1.392 . S
C182 C183 1.398 . S
C182 H205 0.929 . S
C183 C182 1.398 . S
C183 C184 1.352 . S
C184 C183 1.352 . S
C184 C185 1.384 . S
C184 H206 0.930 . S
C185 C180 1.407 . S
C185 C184 1.384 . S
C185 H207 0.929 . S
C186 O196 1.241 . S
C186 O197 1.273 . S
C187 O198 1.251 1_554 S
C187 O199 1.268 . S
O188 Nd168 2.500 . S
O188 C170 1.258 . S
O189 Nd168 2.492 . S
O189 C170 1.239 . S
O190 Nd168 2.487 . S
O190 C177 1.241 1_554 S
O191 Nd168 2.682 1_556 S
O191 Nd169 2.414 . S
O191 C177 1.273 . S
O192 Nd168 2.410 1_556 S
O192 C178 1.251 . S
O193 Nd169 2.424 . S
O193 C178 1.268 . S
O194 Nd169 2.500 . S
O194 C179 1.258 . S
O195 Nd169 2.492 . S
O195 C179 1.239 . S
O196 Nd169 2.487 . S
O196 C186 1.241 . S
O197 Nd168 2.414 1_556 S
O197 Nd169 2.682 . S
O197 C186 1.273 . S
O198 Nd169 2.410 . S
O198 C187 1.251 1_556 S
O199 Nd168 2.424 . S
O199 C187 1.268 . S
H200 C172 0.930 . S
H201 C173 0.929 . S
H202 C175 0.930 . S
H203 C176 0.929 . S
H204 C181 0.930 . S
H205 C182 0.929 . S
H206 C184 0.930 . S
H207 C185 0.929 . S
Nd208 C210 2.836 1_455 S
Nd208 O228 2.500 1_455 S
Nd208 O229 2.492 1_455 S
Nd208 O230 2.487 . S
Nd208 O231 2.682 . S
Nd208 O232 2.410 1_455 S
Nd208 O237 2.414 . S
Nd208 O239 2.424 . S
Nd209 C219 2.836 . S
Nd209 O231 2.414 1_554 S
Nd209 O233 2.424 1_455 S
Nd209 O234 2.500 . S
Nd209 O235 2.492 . S
Nd209 O236 2.487 . S
Nd209 O237 2.682 1_554 S
Nd209 O238 2.410 1_554 S
C210 Nd208 2.836 1_655 S
C210 C211 1.498 . S
C210 O228 1.258 . S
C210 O229 1.239 . S
C211 C210 1.498 . S
C211 C212 1.366 . S
C211 C216 1.407 . S
C212 C211 1.366 . S
C212 C213 1.392 . S
C212 H240 0.930 . S
C213 C212 1.392 . S
C213 C214 1.398 . S
C213 H241 0.929 . S
C214 C213 1.398 . S
C214 C215 1.352 . S
C215 C214 1.352 . S
C215 C216 1.384 . S
C215 H242 0.930 . S
C216 C211 1.407 . S
C216 C215 1.384 . S
C216 H243 0.929 . S
C217 O230 1.241 . S
C217 O231 1.273 . S
C218 O232 1.251 . S
C218 O233 1.268 1_556 S
C219 Nd209 2.836 . S
C219 C220 1.498 . S
C219 O234 1.258 . S
C219 O235 1.239 . S
C220 C219 1.498 . S
C220 C221 1.366 . S
C220 C225 1.407 . S
C221 C220 1.366 . S
C221 C222 1.392 . S
C221 H244 0.930 . S
C222 C221 1.392 . S
C222 C223 1.398 . S
C222 H245 0.929 . S
C223 C222 1.398 . S
C223 C224 1.352 . S
C224 C223 1.352 . S
C224 C225 1.384 . S
C224 H246 0.930 . S
C225 C220 1.407 . S
C225 C224 1.384 . S
C225 H247 0.929 . S
C226 O236 1.241 1_556 S
C226 O237 1.273 . S
C227 O238 1.251 . S
C227 O239 1.268 . S
O228 Nd208 2.500 1_655 S
O228 C210 1.258 . S
O229 Nd208 2.492 1_655 S
O229 C210 1.239 . S
O230 Nd208 2.487 . S
O230 C217 1.241 . S
O231 Nd208 2.682 . S
O231 Nd209 2.414 1_556 S
O231 C217 1.273 . S
O232 Nd208 2.410 1_655 S
O232 C218 1.251 . S
O233 Nd209 2.424 1_655 S
O233 C218 1.268 1_554 S
O234 Nd209 2.500 . S
O234 C219 1.258 . S
O235 Nd209 2.492 . S
O235 C219 1.239 . S
O236 Nd209 2.487 . S
O236 C226 1.241 1_554 S
O237 Nd208 2.414 . S
O237 Nd209 2.682 1_556 S
O237 C226 1.273 . S
O238 Nd209 2.410 1_556 S
O238 C227 1.251 . S
O239 Nd208 2.424 . S
O239 C227 1.268 . S
H240 C212 0.930 . S
H241 C213 0.929 . S
H242 C215 0.930 . S
H243 C216 0.929 . S
H244 C221 0.930 . S
H245 C222 0.929 . S
H246 C224 0.930 . S
H247 C225 0.929 . S
C248 C249 1.387 . S
C248 H252 0.950 1_556 S
C248 C257 1.390 . S
C249 C248 1.387 . S
C249 C251 1.387 . S
H250 C257 0.950 1_554 S
C251 C249 1.387 . S
C251 C253 1.390 . S
C251 H255 0.950 . S
H252 C248 0.950 1_554 S
C253 C251 1.390 . S
C253 C254 1.387 . S
C253 H256 0.950 . S
C254 C253 1.387 . S
C254 C257 1.387 . S
H255 C251 0.950 . S
H256 C253 0.950 . S
C257 C248 1.390 . S
C257 H250 0.950 1_556 S
C257 C254 1.387 . S
C258 C259 1.387 . S
C258 H262 0.950 . S
C258 C267 1.390 . S
C259 C258 1.387 . S
C259 C261 1.387 . S
H260 C267 0.950 . S
C261 C259 1.387 . S
C261 C263 1.390 . S
C261 H265 0.950 . S
H262 C258 0.950 . S
C263 C261 1.390 . S
C263 C264 1.387 . S
C263 H266 0.950 . S
C264 C263 1.387 . S
C264 C267 1.387 . S
H265 C261 0.950 . S
H266 C263 0.950 . S
C267 C258 1.390 . S
C267 H260 0.950 . S
C267 C264 1.387 . S
C268 C269 1.387 . S
C268 H272 0.950 1_556 S
C268 C277 1.390 . S
C269 C268 1.387 . S
C269 C271 1.387 . S
H270 C277 0.950 1_554 S
C271 C269 1.387 . S
C271 C273 1.390 . S
C271 H275 0.950 . S
H272 C268 0.950 1_554 S
C273 C271 1.390 . S
C273 C274 1.387 . S
C273 H276 0.950 . S
C274 C273 1.387 . S
C274 C277 1.387 . S
H275 C271 0.950 . S
H276 C273 0.950 . S
C277 C268 1.390 . S
C277 H270 0.950 1_556 S
C277 C274 1.387 . S
C278 C279 1.387 . S
C278 H282 0.950 . S
C278 C287 1.390 . S
C279 C278 1.387 . S
C279 C281 1.387 . S
H280 C287 0.950 . S
C281 C279 1.387 . S
C281 C283 1.390 . S
C281 H285 0.950 . S
H282 C278 0.950 . S
C283 C281 1.390 . S
C283 C284 1.387 . S
C283 H286 0.950 . S
C284 C283 1.387 . S
C284 C287 1.387 . S
H285 C281 0.950 . S
H286 C283 0.950 . S
C287 C278 1.390 . S
C287 H280 0.950 . S
C287 C284 1.387 . S
C288 C289 1.387 1_554 S
C288 H292 0.950 . S
C288 C297 1.389 1_565 S
C289 C288 1.387 1_556 S
C289 C291 1.387 . S
H290 C297 0.947 . S
C291 C289 1.387 . S
C291 C293 1.390 1_565 S
C291 H295 0.950 . S
H292 C288 0.950 . S
C293 C291 1.390 1_545 S
C293 C294 1.387 . S
C293 H296 0.950 . S
C294 C293 1.387 . S
C294 C297 1.388 1_556 S
H295 C291 0.950 . S
H296 C293 0.950 . S
C297 C288 1.389 1_545 S
C297 H290 0.947 . S
C297 C294 1.388 1_554 S
C298 C299 1.387 . S
C298 H302 0.950 . S
C298 C307 1.390 . S
C299 C298 1.387 . S
C299 C301 1.387 . S
H300 C307 0.950 . S
C301 C299 1.387 . S
C301 C303 1.390 . S
C301 H305 0.950 . S
H302 C298 0.950 . S
C303 C301 1.390 . S
C303 C304 1.387 . S
C303 H306 0.950 . S
C304 C303 1.387 . S
C304 C307 1.387 . S
H305 C301 0.950 . S
H306 C303 0.950 . S
C307 C298 1.390 . S
C307 H300 0.950 . S
C307 C304 1.387 . S
C308 C309 1.387 . S
C308 H312 0.950 . S
C308 C317 1.390 . S
C309 C308 1.387 . S
C309 C311 1.387 . S
H310 C317 0.950 . S
C311 C309 1.387 . S
C311 C313 1.390 . S
C311 H315 0.950 1_556 S
H312 C308 0.950 . S
C313 C311 1.390 . S
C313 C314 1.387 . S
C313 H316 0.950 1_556 S
C314 C313 1.387 . S
C314 C317 1.387 . S
H315 C311 0.950 1_554 S
H316 C313 0.950 1_554 S
C317 C308 1.390 . S
C317 H310 0.950 . S
C317 C314 1.387 . S
C318 C319 1.387 . S
C318 H322 0.950 . S
C318 C327 1.390 . S
C319 C318 1.387 . S
C319 C321 1.387 1_656 S
H320 C327 0.950 . S
C321 C319 1.387 1_454 S
C321 C323 1.390 . S
C321 H325 0.950 . S
H322 C318 0.950 . S
C323 C321 1.390 . S
C323 C324 1.387 1_554 S
C323 H326 0.950 . S
C324 C323 1.387 1_556 S
C324 C327 1.387 1_455 S
H325 C321 0.950 . S
H326 C323 0.950 . S
C327 C318 1.390 . S
C327 H320 0.950 . S
C327 C324 1.387 1_655 S
C328 C329 1.387 . S
C328 H332 0.950 1_556 S
C328 C337 1.390 . S
C329 C328 1.387 . S
C329 C331 1.387 . S
H330 C337 0.950 . S
C331 C329 1.387 . S
C331 C333 1.390 . S
C331 H335 0.950 . S
H332 C328 0.950 1_554 S
C333 C331 1.390 . S
C333 C334 1.387 . S
C333 H336 0.950 . S
C334 C333 1.387 . S
C334 C337 1.387 . S
H335 C331 0.950 . S
H336 C333 0.950 . S
C337 C328 1.390 . S
C337 H330 0.950 . S
C337 C334 1.387 . S
C338 C339 1.387 . S
C338 H342 0.950 . S
C338 C347 1.390 . S
C339 C338 1.387 . S
C339 C341 1.387 . S
H340 C347 0.950 . S
C341 C339 1.387 . S
C341 C343 1.390 . S
C341 H345 0.950 1_556 S
H342 C338 0.950 . S
C343 C341 1.390 . S
C343 C344 1.387 . S
C343 H346 0.950 1_556 S
C344 C343 1.387 . S
C344 C347 1.387 . S
H345 C341 0.950 1_554 S
H346 C343 0.950 1_554 S
C347 C338 1.390 . S
C347 H340 0.950 . S
C347 C344 1.387 . S
C348 C349 1.387 . S
C348 H352 0.950 . S
C348 C357 1.390 . S
C349 C348 1.387 . S
C349 C351 1.387 . S
H350 C357 0.950 . S
C351 C349 1.387 . S
C351 C353 1.390 . S
C351 H355 0.950 . S
H352 C348 0.950 . S
C353 C351 1.390 . S
C353 C354 1.387 . S
C353 H356 0.950 . S
C354 C353 1.387 . S
C354 C357 1.387 . S
H355 C351 0.950 . S
H356 C353 0.950 . S
C357 C348 1.390 . S
C357 H350 0.950 . S
C357 C354 1.387 . S
C358 C359 1.387 . S
C358 H362 0.950 . S
C358 C367 1.390 . S
C359 C358 1.387 . S
C359 C361 1.387 . S
H360 C367 0.950 . S
C361 C359 1.387 . S
C361 C363 1.390 . S
C361 H365 0.950 . S
H362 C358 0.950 . S
C363 C361 1.390 . S
C363 C364 1.387 . S
C363 H366 0.950 . S
C364 C363 1.387 . S
C364 C367 1.387 . S
H365 C361 0.950 . S
H366 C363 0.950 . S
C367 C358 1.390 . S
C367 H360 0.950 . S
C367 C364 1.387 . S
C368 C369 1.387 . S
C368 H372 0.950 . S
C368 C377 1.390 1_655 S
C369 C368 1.387 . S
C369 C371 1.387 1_556 S
H370 C377 0.950 . S
C371 C369 1.387 1_554 S
C371 C373 1.390 . S
C371 H375 0.950 . S
H372 C368 0.950 . S
C373 C371 1.390 . S
C373 C374 1.387 1_654 S
C373 H376 0.949 1_655 S
C374 C373 1.387 1_456 S
C374 C377 1.387 . S
H375 C371 0.950 . S
H376 C373 0.949 1_455 S
C377 C368 1.390 1_455 S
C377 H370 0.950 . S
C377 C374 1.387 . S
C378 C379 1.387 . S
C378 H382 0.950 1_556 S
C378 C387 1.390 1_565 S
C379 C378 1.387 . S
C379 C381 1.387 1_565 S
H380 C387 0.950 1_554 S
C381 C379 1.387 1_545 S
C381 C383 1.390 . S
C381 H385 0.963 . S
H382 C378 0.950 1_554 S
C383 C381 1.390 . S
C383 C384 1.387 . S
C383 H386 0.950 . S
C384 C383 1.387 . S
C384 C387 1.387 . S
H385 C381 0.963 . S
H386 C383 0.950 . S
C387 C378 1.390 1_545 S
C387 H380 0.950 1_556 S
C387 C384 1.387 . S
C388 C389 1.387 . S
C388 H392 0.950 . S
C388 C397 1.390 . S
C389 C388 1.387 . S
C389 C391 1.387 . S
H390 C397 0.950 . S
C391 C389 1.387 . S
C391 C393 1.390 . S
C391 H395 0.950 . S
H392 C388 0.950 . S
C393 C391 1.390 . S
C393 C394 1.387 . S
C393 H396 0.950 . S
C394 C393 1.387 . S
C394 C397 1.387 . S
H395 C391 0.950 . S
H396 C393 0.950 . S
C397 C388 1.390 . S
C397 H390 0.950 . S
C397 C394 1.387 . S
C398 C399 1.387 . S
C398 H402 0.950 . S
C398 C407 1.390 . S
C399 C398 1.387 . S
C399 C401 1.387 . S
H400 C407 0.950 1_554 S
C401 C399 1.387 . S
C401 C403 1.390 . S
C401 H405 0.950 . S
H402 C398 0.950 . S
C403 C401 1.390 . S
C403 C404 1.387 . S
C403 H406 0.950 . S
C404 C403 1.387 . S
C404 C407 1.387 . S
H405 C401 0.950 . S
H406 C403 0.950 . S
C407 C398 1.390 . S
C407 H400 0.950 1_556 S
C407 C404 1.387 . S
C408 C409 1.387 . S
C408 H412 0.950 . S
C408 C417 1.390 . S
C409 C408 1.387 . S
C409 C411 1.387 . S
H410 C417 0.950 . S
C411 C409 1.387 . S
C411 C413 1.390 . S
C411 H415 0.950 . S
H412 C408 0.950 . S
C413 C411 1.390 . S
C413 C414 1.387 . S
C413 H416 0.950 . S
C414 C413 1.387 . S
C414 C417 1.387 . S
H415 C411 0.950 . S
H416 C413 0.950 . S
C417 C408 1.390 . S
C417 H410 0.950 . S
C417 C414 1.387 . S
C418 C419 1.387 . S
C418 H422 0.950 . S
C418 C427 1.390 . S
C419 C418 1.387 . S
C419 C421 1.387 . S
H420 C427 0.950 . S
C421 C419 1.387 . S
C421 C423 1.390 . S
C421 H425 0.950 . S
H422 C418 0.950 . S
C423 C421 1.390 . S
C423 C424 1.387 . S
C423 H426 0.950 . S
C424 C423 1.387 . S
C424 C427 1.387 . S
H425 C421 0.950 . S
H426 C423 0.950 . S
C427 C418 1.390 . S
C427 H420 0.950 . S
C427 C424 1.387 . S
C428 C429 1.387 . S
C428 H432 0.950 . S
C428 C437 1.390 . S
C429 C428 1.387 . S
C429 C431 1.387 . S
H430 C437 0.950 . S
C431 C429 1.387 . S
C431 C433 1.390 . S
C431 H435 0.950 . S
H432 C428 0.950 . S
C433 C431 1.390 . S
C433 C434 1.387 . S
C433 H436 0.950 . S
C434 C433 1.387 . S
C434 C437 1.387 . S
H435 C431 0.950 . S
H436 C433 0.950 . S
C437 C428 1.390 . S
C437 H430 0.950 . S
C437 C434 1.387 . S
C438 C439 1.387 . S
C438 H442 0.950 . S
C438 C447 1.390 . S
C439 C438 1.387 . S
C439 C441 1.387 . S
H440 C447 0.950 . S
C441 C439 1.387 . S
C441 C443 1.390 . S
C441 H445 0.950 . S
H442 C438 0.950 . S
C443 C441 1.390 . S
C443 C444 1.387 . S
C443 H446 0.950 . S
C444 C443 1.387 . S
C444 C447 1.387 . S
H445 C441 0.950 . S
H446 C443 0.950 . S
C447 C438 1.390 . S
C447 H440 0.950 . S
C447 C444 1.387 . S
C448 C449 1.387 1_455 S
C448 H452 0.950 . S
C448 C457 1.390 . S
C449 C448 1.387 1_655 S
C449 C451 1.387 . S
H450 C457 0.950 . S
C451 C449 1.387 . S
C451 C453 1.390 . S
C451 H455 0.950 . S
H452 C448 0.950 . S
C453 C451 1.390 . S
C453 C454 1.387 . S
C453 H456 0.950 . S
C454 C453 1.387 . S
C454 C457 1.387 1_655 S
H455 C451 0.950 . S
H456 C453 0.950 . S
C457 C448 1.390 . S
C457 H450 0.950 . S
C457 C454 1.387 1_455 S
C458 C459 1.417 . S
C458 H462 0.926 1_565 S
C458 C467 1.385 . S
C459 C458 1.417 . S
C459 C461 1.387 . S
H460 C467 0.950 1_545 S
C461 C459 1.387 . S
C461 C463 1.390 . S
C461 H465 0.950 . S
H462 C458 0.926 1_545 S
C463 C461 1.390 . S
C463 C464 1.387 . S
C463 H466 0.950 . S
C464 C463 1.387 . S
C464 C467 1.387 . S
H465 C461 0.950 . S
H466 C463 0.950 . S
C467 C458 1.385 . S
C467 H460 0.950 1_565 S
C467 C464 1.387 . S
C468 C469 1.387 . S
C468 H472 0.950 . S
C468 C477 1.390 . S
C469 C468 1.387 . S
C469 C471 1.387 . S
H470 C477 0.950 . S
C471 C469 1.387 . S
C471 C473 1.390 . S
C471 H475 0.950 . S
H472 C468 0.950 . S
C473 C471 1.390 . S
C473 C474 1.387 . S
C473 H476 0.950 . S
C474 C473 1.387 . S
C474 C477 1.387 . S
H475 C471 0.950 . S
H476 C473 0.950 . S
C477 C468 1.390 . S
C477 H470 0.950 . S
C477 C474 1.387 . S
C478 C479 1.387 . S
C478 H482 0.950 . S
C478 C487 1.390 . S
C479 C478 1.387 . S
C479 C481 1.387 . S
H480 C487 0.950 . S
C481 C479 1.387 . S
C481 C483 1.390 . S
C481 H485 0.950 . S
H482 C478 0.950 . S
C483 C481 1.390 . S
C483 C484 1.387 . S
C483 H486 0.950 . S
C484 C483 1.387 . S
C484 C487 1.387 . S
H485 C481 0.950 . S
H486 C483 0.950 . S
C487 C478 1.390 . S
C487 H480 0.950 . S
C487 C484 1.387 . S
C249 C74 1.720 . S
C254 C97 1.721 . S
C264 C137 1.385 . S
C259 C85 1.507 . S
C274 C186 1.474 . S
C269 C52 1.457 . S
C284 C217 1.828 . S
C279 C63 1.924 . S
C294 C106 1.721 . S
C289 C30 1.641 . S
C299 C41 1.448 . S
C304 C146 1.391 . S
C309 C8 1.466 . S
C314 C177 1.476 . S
C319 C19 1.840 1_556 S
C324 C226 1.829 . S
C334 C107 1.400 . S
C329 C62 1.367 . S
C344 C147 1.792 . S
C339 C73 1.777 . S
C354 C183 1.047 . S
C349 C84 1.041 . S
C359 C51 1.495 . S
C364 C227 1.543 . S
C369 C18 1.256 . S
C374 C98 1.399 . S
C384 C138 1.794 . S
C379 C29 1.617 . S
C394 C174 1.047 . S
C389 C40 1.009 . S
C399 C7 1.471 . S
C404 C218 1.544 . S
C409 C60 1.465 . S
C414 C103 1.659 . S
C419 C71 1.310 . S
C424 C143 1.499 . S
C434 C187 2.092 . S
C429 C82 1.702 . S
C444 C223 1.460 . S
C439 C49 1.206 . S
C449 C16 1.354 . S
C454 C94 1.659 . S
C464 C134 1.496 . S
C459 C27 1.403 . S
C474 C178 2.092 . S
C469 C38 1.572 . S
C479 C5 1.421 . S
C484 C214 1.463 . S
