# Generated by pormake.
# Topology rtl, (3,6)-cn, num edge types: 1
# Building blocks:
#     Node 0, Type 0, BuildingBlock: WUSLED_clean_sbu_0, # of connection points: 3
#     Node 1, Type 0, BuildingBlock: WUSLED_clean_sbu_0, # of connection points: 3
#     Node 2, Type 0, BuildingBlock: WUSLED_clean_sbu_0, # of connection points: 3
#     Node 3, Type 0, BuildingBlock: WUSLED_clean_sbu_0, # of connection points: 3
#     Node 4, Type 1, BuildingBlock: LEVNOQ01_clean_sbu_1, # of connection points: 6
#     Node 5, Type 1, BuildingBlock: LEVNOQ01_clean_sbu_1, # of connection points: 6
#     Edge 6, Type (0, 1), BuildingBlock: UVAHIK_clean_linker_0, # of connection points: 2
#     Edge 7, Type (0, 1), BuildingBlock: UVAHIK_clean_linker_0, # of connection points: 2
#     Edge 8, Type (0, 1), BuildingBlock: UVAHIK_clean_linker_0, # of connection points: 2
#     Edge 9, Type (0, 1), BuildingBlock: UVAHIK_clean_linker_0, # of connection points: 2
#     Edge 10, Type (0, 1), BuildingBlock: UVAHIK_clean_linker_0, # of connection points: 2
#     Edge 11, Type (0, 1), BuildingBlock: UVAHIK_clean_linker_0, # of connection points: 2
#     Edge 12, Type (0, 1), BuildingBlock: UVAHIK_clean_linker_0, # of connection points: 2
#     Edge 13, Type (0, 1), BuildingBlock: UVAHIK_clean_linker_0, # of connection points: 2
#     Edge 14, Type (0, 1), BuildingBlock: UVAHIK_clean_linker_0, # of connection points: 2
#     Edge 15, Type (0, 1), BuildingBlock: UVAHIK_clean_linker_0, # of connection points: 2
#     Edge 16, Type (0, 1), BuildingBlock: UVAHIK_clean_linker_0, # of connection points: 2
#     Edge 17, Type (0, 1), BuildingBlock: UVAHIK_clean_linker_0, # of connection points: 2
# Relax obj value: 0.023
# Max RMSD: 0.059
# Mean RMSD: 0.042
data_MOF--net-rtl--node1-WUSLED_clean_sbu_0--node2-LEVNOQ01_clean_sbu_1--edge1-UVAHIK_clean_linker_0
_symmetry_space_group_name_H-M    P1
_symmetry_Int_Tables_number       1
_symmetry_cell_setting            triclinic
loop_
_symmetry_equiv_pos_as_xyz
'x, y, z'
_cell_length_a     49.235599
_cell_length_b     55.603045
_cell_length_c     38.629183
_cell_angle_alpha  90.21559
_cell_angle_beta   98.035121
_cell_angle_gamma 89.854638
loop_
_atom_site_label
_atom_site_type_symbol
_atom_site_fract_x
_atom_site_fract_y
_atom_site_fract_z
_atom_type_partial_charge
C0 C 0.23209 0.88143 0.19134 0.0
C1 C 0.20834 0.89563 0.18449 0.0
C2 C 0.21116 0.90544 0.24653 0.0
C3 C 0.19797 0.90757 0.21188 0.0
C4 C 0.23543 0.89177 0.2529 0.0
C5 C 0.24575 0.87988 0.22557 0.0
U6 U 0.23395 0.86436 0.09506 0.0
O7 O 0.26946 0.85436 0.06912 0.0
O8 O 0.23627 0.82846 0.07166 0.0
C9 C 0.26083 0.83218 0.06316 0.0
C10 C 0.24241 0.86732 0.16362 0.0
C11 C 0.28105 0.81311 0.07352 0.0
C12 C 0.30841 0.78903 0.11799 0.0
C13 C 0.28991 0.80792 0.10884 0.0
C14 C 0.30947 0.78058 0.05662 0.0
C15 C 0.31837 0.77508 0.09195 0.0
C16 C 0.29102 0.7994 0.04755 0.0
C17 C 0.1883 0.89622 0.02051 0.0
C18 C 0.19604 0.89957 0.95983 0.0
C19 C 0.15028 0.90487 0.97491 0.0
C20 C 0.16035 0.90086 0.01011 0.0
C21 C 0.16805 0.90449 0.94938 0.0
C22 C 0.20606 0.89535 0.99502 0.0
C23 C 0.19845 0.89271 0.05798 0.0
O24 O 0.22476 0.8524 0.1463 0.0
O25 O 0.25705 0.87916 0.14339 0.0
O26 O 0.2241 0.89881 0.06844 0.0
O27 O 0.1915 0.87236 0.0715 0.0
H28 H 0.19755 0.89704 0.15814 0.0
H29 H 0.17913 0.91777 0.2061 0.0
H30 H 0.24635 0.89006 0.27914 0.0
H31 H 0.26419 0.86911 0.23129 0.0
H32 H 0.315 0.78543 0.14541 0.0
H33 H 0.28236 0.81836 0.12925 0.0
H34 H 0.31627 0.76999 0.03587 0.0
H35 H 0.28426 0.80307 0.02016 0.0
H36 H 0.21019 0.89888 0.94075 0.0
H37 H 0.12868 0.90885 0.96779 0.0
H38 H 0.1463 0.90161 0.02933 0.0
H39 H 0.22769 0.89157 1.0023 0.0
C40 C 0.71532 0.66398 0.67784 0.0
C41 C 0.69496 0.64634 0.67054 0.0
C42 C 0.69609 0.63886 0.73293 0.0
C43 C 0.68544 0.63383 0.69789 0.0
C44 C 0.71721 0.65594 0.73985 0.0
C45 C 0.72669 0.66837 0.71256 0.0
U46 U 0.71631 0.68016 0.58134 0.0
O47 O 0.71256 0.71593 0.55676 0.0
O48 O 0.74995 0.69451 0.55568 0.0
C49 C 0.73781 0.71545 0.54935 0.0
C50 C 0.72387 0.67896 0.65 0.0
C51 C 0.75448 0.73692 0.56006 0.0
C52 C 0.79038 0.7573 0.599 0.0
C53 C 0.77444 0.73681 0.58986 0.0
C54 C 0.76609 0.77844 0.54929 0.0
C55 C 0.78643 0.77833 0.57875 0.0
C56 C 0.75034 0.75791 0.54002 0.0
C57 C 0.67808 0.64092 0.50798 0.0
C58 C 0.65929 0.6524 0.44864 0.0
C59 C 0.6687 0.6105 0.46254 0.0
C60 C 0.67806 0.61682 0.49721 0.0
C61 C 0.65901 0.62818 0.43787 0.0
C62 C 0.66886 0.65874 0.48335 0.0
C63 C 0.68713 0.64679 0.54512 0.0
O64 O 0.74086 0.66895 0.6308 0.0
O65 O 0.70416 0.6913 0.63158 0.0
O66 O 0.67631 0.66611 0.5575 0.0
O67 O 0.71355 0.64455 0.55584 0.0
H68 H 0.68594 0.64273 0.64382 0.0
H69 H 0.66901 0.62095 0.69167 0.0
H70 H 0.72614 0.65997 0.76647 0.0
H71 H 0.7425 0.68187 0.71865 0.0
H72 H 0.80568 0.75673 0.62203 0.0
H73 H 0.77781 0.72088 0.60596 0.0
H74 H 0.76275 0.79423 0.53291 0.0
H75 H 0.73502 0.75837 0.51698 0.0
H76 H 0.65222 0.66645 0.4302 0.0
H77 H 0.66844 0.59166 0.45525 0.0
H78 H 0.68501 0.60279 0.51578 0.0
H79 H 0.66885 0.67751 0.49095 0.0
C80 C 0.80435 0.16734 0.10769 0.0
C81 C 0.80545 0.14216 0.11055 0.0
C82 C 0.83161 0.14537 0.16897 0.0
C83 C 0.81884 0.13131 0.14092 0.0
C84 C 0.83052 0.17059 0.16579 0.0
C85 C 0.81698 0.18141 0.13555 0.0
U86 U 0.78649 0.17347 0.00807 0.0
O87 O 0.74775 0.18382 0.97603 0.0
O88 O 0.78443 0.20604 0.9756 0.0
C89 C 0.75791 0.20394 0.96557 0.0
C90 C 0.79032 0.17937 0.07608 0.0
C91 C 0.74161 0.22576 0.96947 0.0
C92 C 0.72029 0.25398 0.00566 0.0
C93 C 0.73561 0.23306 1.00236 0.0
C94 C 0.71684 0.26053 0.94324 0.0
C95 C 0.71077 0.26804 0.97615 0.0
C96 C 0.73212 0.23959 0.93997 0.0
C97 C 0.81636 0.12865 0.94781 0.0
C98 C 0.8106 0.13304 0.88462 0.0
C99 C 0.8385 0.10061 0.91224 0.0
C100 C 0.83286 0.10838 0.94497 0.0
C101 C 0.82774 0.11302 0.88165 0.0
C102 C 0.80498 0.1408 0.91743 0.0
C103 C 0.81235 0.13748 0.98268 0.0
O104 O 0.80643 0.19029 0.05677 0.0
O105 O 0.77021 0.16748 0.05755 0.0
O106 O 0.78734 0.13572 0.99068 0.0
O107 O 0.82396 0.15824 0.99177 0.0
H108 H 0.79594 0.13086 0.08938 0.0
H109 H 0.8189 0.11187 0.14252 0.0
H110 H 0.84049 0.18204 0.18646 0.0
H111 H 0.81649 0.20086 0.13383 0.0
H112 H 0.71569 0.259 0.03133 0.0
H113 H 0.74276 0.22257 0.02544 0.0
H114 H 0.71017 0.27103 0.92004 0.0
H115 H 0.73667 0.23425 0.91439 0.0
H116 H 0.80172 0.14285 0.86161 0.0
H117 H 0.85209 0.08537 0.91107 0.0
H118 H 0.8419 0.09885 0.96819 0.0
H119 H 0.79214 0.1565 0.91916 0.0
C120 C 0.28596 0.37327 0.39235 0.0
C121 C 0.28495 0.39851 0.39021 0.0
C122 C 0.30544 0.39727 0.33623 0.0
C123 C 0.2946 0.41039 0.3624 0.0
C124 C 0.30688 0.37206 0.33897 0.0
C125 C 0.29715 0.36023 0.36658 0.0
U126 U 0.27946 0.35796 0.48844 0.0
O127 O 0.2423 0.34841 0.51132 0.0
O128 O 0.27622 0.32258 0.51253 0.0
C129 C 0.25072 0.32621 0.51783 0.0
C130 C 0.27442 0.35991 0.41993 0.0
C131 C 0.23094 0.30702 0.50549 0.0
C132 C 0.21817 0.27125 0.47045 0.0
C133 C 0.23639 0.29016 0.48009 0.0
C134 C 0.18819 0.28626 0.5103 0.0
C135 C 0.19399 0.26897 0.48567 0.0
C136 C 0.20656 0.30503 0.52021 0.0
C137 C 0.32297 0.39082 0.56435 0.0
C138 C 0.31462 0.3919 0.62495 0.0
C139 C 0.35908 0.40328 0.61032 0.0
C140 C 0.34985 0.39873 0.57502 0.0
C141 C 0.34152 0.40011 0.6357 0.0
C142 C 0.30546 0.38719 0.5896 0.0
C143 C 0.31374 0.38669 0.52683 0.0
O144 O 0.29125 0.34504 0.43866 0.0
O145 O 0.25847 0.37192 0.43854 0.0
O146 O 0.28822 0.39263 0.5152 0.0
O147 O 0.32119 0.36606 0.51431 0.0
H148 H 0.27639 0.40908 0.40969 0.0
H149 H 0.293 0.4298 0.36102 0.0
H150 H 0.31563 0.36137 0.31979 0.0
H151 H 0.29815 0.34077 0.36764 0.0
H152 H 0.22304 0.25835 0.45114 0.0
H153 H 0.25491 0.29136 0.46802 0.0
H154 H 0.16987 0.28485 0.52275 0.0
H155 H 0.20193 0.31779 0.53984 0.0
H156 H 0.30069 0.38905 0.6439 0.0
H157 H 0.37978 0.40988 0.61761 0.0
H158 H 0.36368 0.40162 0.55593 0.0
H159 H 0.28468 0.38087 0.58197 0.0
O160 O 0.9962 0.06359 0.61402 0.0
Mg161 Mg 0.03506 0.05578 0.60035 0.0
O162 O 0.97667 0.03269 0.58385 0.0
Mg163 Mg 0.00907 0.01664 0.55 0.0
O164 O 0.03386 0.05226 0.54751 0.0
O165 O 0.05476 0.08268 0.57887 0.0
O166 O 0.04353 0.00257 0.51675 0.0
O167 O 0.98177 0.03167 0.49997 0.0
Mg168 Mg 0.9955 0.97734 0.50569 0.0
O169 O 0.98245 0.98115 0.55348 0.0
O170 O 0.03517 0.96455 0.50503 0.0
O171 O 0.97755 1.00012 0.46495 0.0
O172 O 0.97101 0.95037 0.51617 0.0
C173 C 0.05431 0.00778 0.62507 0.0
C174 C 0.97549 0.05042 0.60481 0.0
C175 C 0.04775 0.07222 0.54911 0.0
C176 C 0.05113 0.98223 0.50595 0.0
C177 C 0.97339 0.02225 0.4702 0.0
C178 C 0.96983 0.9608 0.54578 0.0
O179 O 0.05949 0.02993 0.62957 0.0
O180 O 0.03648 1.00065 0.59986 0.0
O181 O 0.51705 0.50549 0.11902 0.0
Mg182 Mg 0.50632 0.48316 0.07429 0.0
O183 O 0.52426 0.53517 0.0844 0.0
Mg184 Mg 0.49818 0.51843 0.03505 0.0
O185 O 0.52823 0.48383 0.03307 0.0
O186 O 0.53515 0.45754 0.07772 0.0
O187 O 0.47177 0.50042 0.98565 0.0
O188 O 0.53055 0.53446 1.00145 0.0
Mg189 Mg 0.47225 0.55558 0.98359 0.0
O190 O 0.4713 0.55339 0.03618 0.0
O191 O 0.44908 0.52913 0.95431 0.0
O192 O 0.51081 0.56491 0.97076 0.0
O193 O 0.45033 0.58235 1.00181 0.0
C194 C 0.45352 0.48442 0.07254 0.0
C195 C 0.52611 0.52643 0.11507 0.0
C196 C 0.54092 0.46518 0.04819 0.0
C197 C 0.45423 0.50708 0.95987 0.0
C198 C 0.5317 0.55208 0.98053 0.0
C199 C 0.45645 0.57289 0.03236 0.0
O200 O 0.46773 0.46647 0.06647 0.0
O201 O 0.46322 0.50532 0.06854 0.0
C202 C 0.18644 0.22464 0.47679 0.0
C203 C 0.17553 0.24799 0.47729 0.0
C204 C 0.16913 0.20465 0.4719 0.0
C205 C 0.09866 0.18661 0.4829 0.0
H206 H 0.12007 0.12679 0.44228 0.0
C207 C 0.0386 0.10178 0.5014 0.0
C208 C 0.05575 0.08391 0.51813 0.0
C209 C 0.04962 0.12023 0.48315 0.0
C210 C 0.1137 0.14342 0.45345 0.0
H211 H 0.13792 0.26879 0.47117 0.0
H212 H 0.10762 0.23398 0.46184 0.0
H213 H 0.14648 0.16333 0.43624 0.0
H214 H 0.09714 0.06997 0.52675 0.0
H215 H 0.1164 0.1018 0.49444 0.0
H216 H 0.06641 0.16668 0.50095 0.0
C217 C 0.12957 0.231 0.46615 0.0
C218 C 0.12893 0.16435 0.45022 0.0
C219 C 0.14691 0.25098 0.47142 0.0
C220 C 0.08344 0.0833 0.51334 0.0
C221 C 0.09447 0.10165 0.49497 0.0
C222 C 0.08335 0.16579 0.48586 0.0
C223 C 0.14043 0.20751 0.46706 0.0
C224 C 0.1221 0.18607 0.46584 0.0
C225 C 0.07799 0.1211 0.48153 0.0
C226 C 0.09112 0.14379 0.47205 0.0
H227 H 0.2084 0.22173 0.48162 0.0
H228 H 0.17833 0.18692 0.47341 0.0
H229 H 0.09292 0.2028 0.49577 0.0
H230 H 0.01727 0.10284 0.50539 0.0
H231 H 0.03633 0.1348 0.47267 0.0
C232 C 0.33343 0.73859 0.12834 0.0
C233 C 0.33739 0.75446 0.1012 0.0
C234 C 0.34981 0.71799 0.13473 0.0
C235 C 0.41352 0.68837 0.11223 0.0
H236 H 0.37373 0.62946 0.12308 0.0
C237 C 0.46266 0.59815 0.08624 0.0
C238 C 0.44542 0.58465 0.06154 0.0
C239 C 0.45166 0.61648 0.1052 0.0
C240 C 0.38526 0.64573 0.12032 0.0
H241 H 0.36278 0.76177 0.06091 0.0
H242 H 0.39061 0.72573 0.07122 0.0
H243 H 0.35103 0.66804 0.1275 0.0
H244 H 0.40336 0.57804 0.0392 0.0
H245 H 0.38413 0.60945 0.07213 0.0
H246 H 0.447 0.66609 0.10227 0.0
C247 C 0.37512 0.72919 0.08794 0.0
C248 C 0.3723 0.66794 0.1232 0.0
C249 C 0.35884 0.74975 0.08163 0.0
C250 C 0.41698 0.58803 0.05854 0.0
C251 C 0.40599 0.60613 0.0775 0.0
C252 C 0.42641 0.66618 0.1091 0.0
C253 C 0.37055 0.71279 0.11417 0.0
C254 C 0.38591 0.68954 0.11777 0.0
C255 C 0.42328 0.62148 0.09965 0.0
C256 C 0.41206 0.64454 0.11166 0.0
H257 H 0.31702 0.74158 0.14384 0.0
H258 H 0.34588 0.70593 0.15539 0.0
H259 H 0.42487 0.70463 0.10874 0.0
H260 H 0.48473 0.59607 0.08853 0.0
H261 H 0.46554 0.62772 0.12244 0.0
C262 C 0.83247 0.79746 0.5966 0.0
C263 C 0.80394 0.79989 0.58755 0.0
C264 C 0.84921 0.81778 0.60236 0.0
C265 C 0.84995 0.88226 0.57959 0.0
H266 H 0.91821 0.88158 0.64326 0.0
C267 C 0.92828 0.95795 0.57568 0.0
C268 C 0.95386 0.94876 0.57004 0.0
C269 C 0.90912 0.94292 0.58844 0.0
C270 C 0.89912 0.88212 0.62553 0.0
H271 H 0.7705 0.82556 0.57917 0.0
H272 H 0.79963 0.86103 0.58968 0.0
H273 H 0.88555 0.84871 0.64447 0.0
H274 H 0.98041 0.91757 0.5754 0.0
H275 H 0.94752 0.89158 0.59845 0.0
H276 H 0.86385 0.91527 0.55996 0.0
C277 C 0.80918 0.84343 0.59154 0.0
C278 C 0.88047 0.86321 0.62605 0.0
C279 C 0.79246 0.8231 0.58554 0.0
C280 C 0.96092 0.92511 0.58011 0.0
C281 C 0.94203 0.91023 0.59326 0.0
C282 C 0.86851 0.90122 0.57923 0.0
C283 C 0.83784 0.84107 0.59946 0.0
C284 C 0.85599 0.86266 0.60235 0.0
C285 C 0.91544 0.91859 0.59599 0.0
C286 C 0.89368 0.90104 0.60148 0.0
H287 H 0.84199 0.77984 0.59795 0.0
H288 H 0.87119 0.81518 0.60778 0.0
H289 H 0.83154 0.88239 0.56064 0.0
H290 H 0.92228 0.97604 0.56748 0.0
H291 H 0.88887 0.94993 0.59053 0.0
C292 C 0.67224 0.29669 0.95472 0.0
C293 C 0.69475 0.29051 0.97977 0.0
C294 C 0.65692 0.31754 0.95868 0.0
C295 C 0.64012 0.35924 0.02693 0.0
H296 H 0.61386 0.40163 0.94986 0.0
C297 C 0.58692 0.44664 0.05418 0.0
C298 C 0.56233 0.45209 0.03269 0.0
C299 C 0.60481 0.42936 0.04404 0.0
C300 C 0.62088 0.38987 0.97157 0.0
H301 H 0.71933 0.30206 0.02794 0.0
H302 H 0.69258 0.33817 0.03497 0.0
H303 H 0.64135 0.36615 0.93955 0.0
H304 H 0.53764 0.44478 0.98296 0.0
H305 H 0.56885 0.41395 0.96518 0.0
H306 H 0.61951 0.38241 0.0589 0.0
C307 C 0.68648 0.3267 0.01252 0.0
C308 C 0.63661 0.36955 0.96568 0.0
C309 C 0.7018 0.30593 0.00853 0.0
C310 C 0.55672 0.44107 0.99973 0.0
C311 C 0.57454 0.42338 0.98969 0.0
C312 C 0.62444 0.37939 0.03277 0.0
C313 C 0.66369 0.33266 0.98785 0.0
C314 C 0.64661 0.35412 0.99341 0.0
C315 C 0.59825 0.41664 0.01246 0.0
C316 C 0.61483 0.39516 0.00532 0.0
H317 H 0.66603 0.28511 0.93242 0.0
H318 H 0.63932 0.32146 0.9394 0.0
H319 H 0.64687 0.34745 0.04871 0.0
H320 H 0.59168 0.45496 0.07972 0.0
H321 H 0.62325 0.42519 0.06176 0.0
C322 C 0.18708 0.9393 0.27378 0.0
C323 C 0.19893 0.91619 0.27619 0.0
C324 C 0.17464 0.94875 0.30141 0.0
C325 C 0.14108 0.92855 0.37517 0.0
H326 H 0.15013 0.99423 0.40889 0.0
C327 C 0.0902 0.95755 0.49185 0.0
C328 C 0.07607 0.97954 0.48906 0.0
C329 C 0.10924 0.95207 0.46942 0.0
C330 C 0.14725 0.97589 0.39961 0.0
H331 H 0.20703 0.88501 0.30967 0.0
H332 H 0.18568 0.9015 0.35768 0.0
H333 H 0.1748 0.98036 0.36158 0.0
H334 H 0.07197 0.01375 0.46227 0.0
H335 H 0.10479 0.00396 0.42216 0.0
H336 H 0.11312 0.924 0.41202 0.0
C337 C 0.18589 0.91231 0.33444 0.0
C338 C 0.16137 0.96796 0.37252 0.0
C339 C 0.19839 0.90295 0.30702 0.0
C340 C 0.0828 0.99673 0.46512 0.0
C341 C 0.10157 0.99106 0.4421 0.0
C342 C 0.12692 0.93646 0.40191 0.0
C343 C 0.17358 0.93519 0.33185 0.0
C344 C 0.15856 0.94412 0.36021 0.0
C345 C 0.11412 0.96822 0.44302 0.0
C346 C 0.12994 0.96016 0.41479 0.0
H347 H 0.18736 0.95005 0.25051 0.0
H348 H 0.1652 0.96637 0.29855 0.0
H349 H 0.13795 0.91025 0.36576 0.0
H350 H 0.08551 0.94406 0.51028 0.0
H351 H 0.1192 0.93465 0.47175 0.0
C352 C 0.67672 0.60318 0.76148 0.0
C353 C 0.68399 0.62766 0.76221 0.0
C354 C 0.664 0.59325 0.78841 0.0
C355 C 0.62047 0.61143 0.85334 0.0
H356 H 0.63977 0.55012 0.89777 0.0
C357 C 0.56586 0.58157 0.96599 0.0
C358 C 0.55695 0.55765 0.96577 0.0
C359 C 0.58535 0.58863 0.94514 0.0
C360 C 0.63399 0.56718 0.88543 0.0
H361 H 0.6837 0.6608 0.79199 0.0
H362 H 0.66176 0.64352 0.83875 0.0
H363 H 0.66564 0.56501 0.85241 0.0
H364 H 0.5622 0.52201 0.94508 0.0
H365 H 0.59583 0.53443 0.90748 0.0
H366 H 0.58845 0.61358 0.88504 0.0
C367 C 0.66585 0.63199 0.8174 0.0
C368 C 0.64882 0.57569 0.85948 0.0
C369 C 0.67868 0.64184 0.79073 0.0
C370 C 0.56908 0.54052 0.94596 0.0
C371 C 0.58828 0.54769 0.92439 0.0
C372 C 0.60558 0.60291 0.87888 0.0
C373 C 0.65802 0.60769 0.81635 0.0
C374 C 0.64233 0.59804 0.84342 0.0
C375 C 0.5958 0.57207 0.9227 0.0
C376 C 0.61227 0.5808 0.89562 0.0
H377 H 0.68073 0.59174 0.74001 0.0
H378 H 0.65808 0.57449 0.78682 0.0
H379 H 0.61454 0.62845 0.84091 0.0
H380 H 0.55679 0.59508 0.98116 0.0
H381 H 0.5913 0.60738 0.94548 0.0
C382 C 0.86146 0.11259 0.19903 0.0
C383 C 0.84627 0.13386 0.2012 0.0
C384 C 0.87551 0.10197 0.22912 0.0
C385 C 0.87953 0.10099 0.32614 0.0
H386 H 0.94942 0.07008 0.32035 0.0
C387 C 0.94967 0.06029 0.44637 0.0
C388 C 0.9593 0.03692 0.44096 0.0
C389 C 0.93628 0.07367 0.41824 0.0
C390 C 0.92988 0.07859 0.32236 0.0
H391 H 0.8337 0.16036 0.23725 0.0
H392 H 0.85896 0.14235 0.28947 0.0
H393 H 0.92537 0.09038 0.26928 0.0
H394 H 0.96264 0.00948 0.40159 0.0
H395 H 0.93974 0.03278 0.35298 0.0
H396 H 0.8844 0.08922 0.37953 0.0
C397 C 0.85969 0.13363 0.2645 0.0
C398 C 0.91598 0.09013 0.293 0.0
C399 C 0.84547 0.14417 0.2344 0.0
C400 C 0.95545 0.02737 0.40684 0.0
C401 C 0.94247 0.0408 0.37884 0.0
C402 C 0.89362 0.08961 0.35567 0.0
C403 C 0.87499 0.11242 0.26229 0.0
C404 C 0.89038 0.10117 0.29427 0.0
C405 C 0.93271 0.06407 0.38414 0.0
C406 C 0.91874 0.07795 0.35391 0.0
H407 H 0.86286 0.10423 0.17398 0.0
H408 H 0.88665 0.08543 0.22633 0.0
H409 H 0.85976 0.10906 0.32809 0.0
H410 H 0.9523 0.06817 0.47231 0.0
H411 H 0.92905 0.09162 0.42306 0.0
C412 C 0.33403 0.41947 0.69248 0.0
C413 C 0.35103 0.40629 0.67296 0.0
C414 C 0.3437 0.42703 0.72653 0.0
C415 C 0.39759 0.4174 0.80228 0.0
H416 H 0.38405 0.48452 0.82121 0.0
C417 C 0.45432 0.47043 0.92163 0.0
C418 C 0.44009 0.48955 0.93478 0.0
C419 C 0.44209 0.45724 0.8925 0.0
C420 C 0.38762 0.4656 0.81682 0.0
H421 H 0.39111 0.38974 0.6746 0.0
H422 H 0.40805 0.40307 0.73408 0.0
H423 H 0.36505 0.46716 0.76543 0.0
H424 H 0.4013 0.50852 0.93011 0.0
H425 H 0.37956 0.48493 0.88086 0.0
H426 H 0.42029 0.41594 0.85388 0.0
C427 C 0.38723 0.40753 0.72299 0.0
C428 C 0.37674 0.45567 0.78465 0.0
C429 C 0.37761 0.40011 0.6888 0.0
C430 C 0.41284 0.49404 0.92018 0.0
C431 C 0.4005 0.48066 0.89168 0.0
C432 C 0.40836 0.42732 0.83475 0.0
C433 C 0.37055 0.42147 0.742 0.0
C434 C 0.38159 0.43148 0.77692 0.0
C435 C 0.41531 0.46279 0.87642 0.0
C436 C 0.40348 0.45159 0.84245 0.0
H437 H 0.31353 0.42468 0.68102 0.0
H438 H 0.33024 0.43753 0.74064 0.0
H439 H 0.40158 0.39865 0.79713 0.0
H440 H 0.47544 0.46674 0.93232 0.0
H441 H 0.45417 0.44365 0.88149 0.0
C442 C 0.6234 0.63114 0.38452 0.0
C443 C 0.64798 0.62112 0.40138 0.0
C444 C 0.61189 0.62304 0.35133 0.0
C445 C 0.61205 0.5696 0.29426 0.0
H446 H 0.57179 0.61092 0.22426 0.0
C447 C 0.53943 0.53008 0.1797 0.0
C448 C 0.53951 0.53982 0.14617 0.0
C449 C 0.55323 0.5415 0.2092 0.0
C450 C 0.58318 0.59918 0.2434 0.0
H451 H 0.68052 0.5957 0.39571 0.0
H452 H 0.66069 0.58177 0.33779 0.0
H453 H 0.59612 0.62854 0.27792 0.0
H454 H 0.55361 0.56973 0.11758 0.0
H455 H 0.57808 0.58972 0.16945 0.0
H456 H 0.59946 0.5403 0.25985 0.0
C457 C 0.64989 0.59546 0.35052 0.0
C458 C 0.59689 0.60924 0.27432 0.0
C459 C 0.6613 0.60347 0.38373 0.0
C460 C 0.55319 0.56172 0.14302 0.0
C461 C 0.56712 0.5732 0.17274 0.0
C462 C 0.5984 0.55959 0.26347 0.0
C463 C 0.62476 0.60479 0.33414 0.0
C464 C 0.61131 0.59453 0.3003 0.0
C465 C 0.56765 0.56299 0.20614 0.0
C466 C 0.58346 0.57417 0.23784 0.0
H467 H 0.61249 0.64462 0.39754 0.0
H468 H 0.59238 0.63046 0.33975 0.0
H469 H 0.62262 0.55763 0.31374 0.0
H470 H 0.52887 0.5134 0.18327 0.0
H471 H 0.5526 0.53342 0.23454 0.0
C472 C 0.83872 0.08156 0.83837 0.0
C473 C 0.83581 0.10593 0.84722 0.0
C474 C 0.84881 0.07507 0.80748 0.0
C475 C 0.89282 0.09936 0.74676 0.0
H476 H 0.86724 0.04517 0.68763 0.0
C477 C 0.94327 0.07939 0.62625 0.0
C478 C 0.95065 0.0554 0.62107 0.0
C479 C 0.92443 0.08508 0.64882 0.0
C480 C 0.8747 0.06027 0.704 0.0
H481 H 0.84052 0.14253 0.82978 0.0
H482 H 0.85758 0.13125 0.77583 0.0
H483 H 0.84349 0.05604 0.73719 0.0
H484 H 0.94291 0.01836 0.63359 0.0
H485 H 0.91031 0.02829 0.67407 0.0
H486 H 0.92438 0.10336 0.7147 0.0
C487 C 0.85236 0.11713 0.79297 0.0
C488 C 0.86109 0.0665 0.73237 0.0
C489 C 0.84227 0.1236 0.82376 0.0
C490 C 0.93735 0.03701 0.63696 0.0
C491 C 0.91873 0.04274 0.66019 0.0
C492 C 0.9064 0.09312 0.71867 0.0
C493 C 0.85633 0.09281 0.78479 0.0
C494 C 0.86999 0.08619 0.75401 0.0
C495 C 0.91297 0.06694 0.66749 0.0
C496 C 0.89752 0.07357 0.69675 0.0
H497 H 0.83359 0.06747 0.8556 0.0
H498 H 0.8517 0.05618 0.80206 0.0
H499 H 0.90069 0.11423 0.76337 0.0
H500 H 0.95312 0.09389 0.61407 0.0
H501 H 0.91983 0.10385 0.65287 0.0
C502 C 0.31053 0.39912 0.27246 0.0
C503 C 0.31511 0.40959 0.30598 0.0
C504 C 0.32117 0.40959 0.24445 0.0
C505 C 0.34903 0.46526 0.21189 0.0
H506 H 0.38955 0.42122 0.16019 0.0
C507 C 0.42481 0.49631 0.1184 0.0
C508 C 0.42967 0.48073 0.09121 0.0
C509 C 0.40663 0.4897 0.14156 0.0
C510 C 0.37782 0.43379 0.17366 0.0
H511 H 0.33371 0.43992 0.33582 0.0
H512 H 0.35201 0.45839 0.28657 0.0
H513 H 0.36588 0.40601 0.20648 0.0
H514 H 0.41751 0.44728 0.06474 0.0
H515 H 0.38468 0.4364 0.10363 0.0
H516 H 0.36095 0.4931 0.17886 0.0
C517 C 0.34012 0.44203 0.28217 0.0
C518 C 0.36436 0.42501 0.20044 0.0
C519 C 0.32963 0.43143 0.31036 0.0
C520 C 0.41433 0.4595 0.08573 0.0
C521 C 0.39577 0.45315 0.10834 0.0
C522 C 0.36229 0.47407 0.18469 0.0
C523 C 0.33646 0.43094 0.24909 0.0
C524 C 0.34992 0.44061 0.21997 0.0
C525 C 0.39264 0.46757 0.13758 0.0
C526 C 0.37698 0.45843 0.16526 0.0
H527 H 0.29883 0.38267 0.26784 0.0
H528 H 0.31761 0.40085 0.21911 0.0
H529 H 0.3379 0.47768 0.22642 0.0
H530 H 0.43655 0.51272 0.12336 0.0
H531 H 0.40491 0.50128 0.16374 0.0
C532 C 0.17194 0.92556 0.89289 0.0
C533 C 0.15751 0.90993 0.91222 0.0
C534 C 0.16141 0.93171 0.85855 0.0
C535 C 0.096 0.93388 0.79784 0.0
H536 H 0.14452 0.94798 0.72968 0.0
C537 C 0.05526 0.96922 0.65915 0.0
C538 C 0.06814 0.9906 0.65103 0.0
C539 C 0.06675 0.95513 0.68757 0.0
C540 C 0.1307 0.94402 0.74841 0.0
H541 H 0.12114 0.88781 0.91015 0.0
H542 H 0.10296 0.89816 0.84999 0.0
H543 H 0.16336 0.93123 0.78627 0.0
H544 H 0.1039 0.01316 0.66484 0.0
H545 H 0.12407 0.98847 0.71367 0.0
H546 H 0.0634 0.94694 0.75991 0.0
C547 C 0.12213 0.90616 0.86162 0.0
C548 C 0.1415 0.93457 0.78096 0.0
C549 C 0.13257 0.90016 0.8961 0.0
C550 C 0.09342 0.99684 0.67053 0.0
C551 C 0.10507 0.98261 0.69843 0.0
C552 C 0.08518 0.94314 0.76514 0.0
C553 C 0.13626 0.92223 0.84246 0.0
C554 C 0.1244 0.92992 0.80647 0.0
C555 C 0.09157 0.96193 0.70786 0.0
C556 C 0.10249 0.94884 0.74037 0.0
H557 H 0.19101 0.93366 0.9047 0.0
H558 H 0.17267 0.9445 0.845 0.0
H559 H 0.08218 0.93084 0.81685 0.0
H560 H 0.0357 0.96402 0.64467 0.0
H561 H 0.05597 0.93918 0.69413 0.0
loop_
_geom_bond_atom_site_label_1
_geom_bond_atom_site_label_2
_geom_bond_distance
_geom_bond_site_symmetry_2
_ccdc_geom_bond_type
C0 C1 1.264 . S
C0 C5 1.479 . S
C0 C10 1.465 . S
C1 C0 1.264 . S
C1 C3 1.339 . S
C1 H28 0.931 . S
C2 C3 1.395 . S
C2 C4 1.320 . S
C3 C1 1.339 . S
C3 C2 1.395 . S
C3 H29 0.929 . S
C4 C2 1.320 . S
C4 C5 1.405 . S
C4 H30 0.930 . S
C5 C0 1.479 . S
C5 C4 1.405 . S
C5 H31 0.931 . S
U6 O7 2.454 . S
U6 O8 2.458 . S
U6 C9 2.984 . S
U6 C10 2.847 . S
U6 C23 2.882 . S
U6 O24 2.441 . S
U6 O25 2.420 . S
U6 O26 2.455 . S
U6 O27 2.449 . S
O7 U6 2.454 . S
O7 C9 1.353 . S
O8 U6 2.458 . S
O8 C9 1.286 . S
C9 U6 2.984 . S
C9 O7 1.353 . S
C9 O8 1.286 . S
C9 C11 1.363 . S
C10 C0 1.465 . S
C10 U6 2.847 . S
C10 O24 1.249 . S
C10 O25 1.202 . S
C11 C9 1.363 . S
C11 C13 1.408 . S
C11 C16 1.342 . S
C12 C13 1.310 . S
C12 C15 1.461 . S
C12 H32 0.932 . S
C13 C11 1.408 . S
C13 C12 1.310 . S
C13 H33 0.930 . S
C14 C15 1.474 . S
C14 C16 1.285 . S
C14 H34 0.929 . S
C15 C12 1.461 . S
C15 C14 1.474 . S
C16 C11 1.342 . S
C16 C14 1.285 . S
C16 H35 0.930 . S
C17 C20 1.424 . S
C17 C22 1.245 . S
C17 C23 1.428 1_556 S
C18 C21 1.260 . S
C18 C22 1.477 . S
C18 H36 0.932 . S
C19 C20 1.384 . S
C19 C21 1.479 . S
C19 H37 0.929 . S
C20 C17 1.424 . S
C20 C19 1.384 . S
C20 H38 0.928 1_556 S
C21 C18 1.260 . S
C21 C19 1.479 . S
C22 C17 1.245 . S
C22 C18 1.477 . S
C22 H39 0.932 . S
C23 U6 2.882 . S
C23 C17 1.428 1_554 S
C23 O26 1.301 . S
C23 O27 1.282 . S
O24 U6 2.441 . S
O24 C10 1.249 . S
O25 U6 2.420 . S
O25 C10 1.202 . S
O26 U6 2.455 . S
O26 C23 1.301 . S
O27 U6 2.449 . S
O27 C23 1.282 . S
H28 C1 0.931 . S
H29 C3 0.929 . S
H30 C4 0.930 . S
H31 C5 0.931 . S
H32 C12 0.932 . S
H33 C13 0.930 . S
H34 C14 0.929 . S
H35 C16 0.930 . S
H36 C18 0.932 . S
H37 C19 0.929 . S
H38 C20 0.928 1_554 S
H39 C22 0.932 . S
C40 C41 1.264 . S
C40 C45 1.479 . S
C40 C50 1.465 . S
C41 C40 1.264 . S
C41 C43 1.339 . S
C41 H68 0.931 . S
C42 C43 1.395 . S
C42 C44 1.320 . S
C43 C41 1.339 . S
C43 C42 1.395 . S
C43 H69 0.929 . S
C44 C42 1.320 . S
C44 C45 1.405 . S
C44 H70 0.930 . S
C45 C40 1.479 . S
C45 C44 1.405 . S
C45 H71 0.931 . S
U46 O47 2.454 . S
U46 O48 2.458 . S
U46 C49 2.984 . S
U46 C50 2.847 . S
U46 C63 2.882 . S
U46 O64 2.441 . S
U46 O65 2.420 . S
U46 O66 2.455 . S
U46 O67 2.449 . S
O47 U46 2.454 . S
O47 C49 1.353 . S
O48 U46 2.458 . S
O48 C49 1.286 . S
C49 U46 2.984 . S
C49 O47 1.353 . S
C49 O48 1.286 . S
C49 C51 1.363 . S
C50 C40 1.465 . S
C50 U46 2.847 . S
C50 O64 1.249 . S
C50 O65 1.202 . S
C51 C49 1.363 . S
C51 C53 1.408 . S
C51 C56 1.342 . S
C52 C53 1.310 . S
C52 C55 1.461 . S
C52 H72 0.932 . S
C53 C51 1.408 . S
C53 C52 1.310 . S
C53 H73 0.930 . S
C54 C55 1.474 . S
C54 C56 1.285 . S
C54 H74 0.929 . S
C55 C52 1.461 . S
C55 C54 1.474 . S
C56 C51 1.342 . S
C56 C54 1.285 . S
C56 H75 0.930 . S
C57 C60 1.424 . S
C57 C62 1.245 . S
C57 C63 1.428 . S
C58 C61 1.260 . S
C58 C62 1.477 . S
C58 H76 0.932 . S
C59 C60 1.384 . S
C59 C61 1.479 . S
C59 H77 0.929 . S
C60 C57 1.424 . S
C60 C59 1.384 . S
C60 H78 0.928 . S
C61 C58 1.260 . S
C61 C59 1.479 . S
C62 C57 1.245 . S
C62 C58 1.477 . S
C62 H79 0.932 . S
C63 U46 2.882 . S
C63 C57 1.428 . S
C63 O66 1.301 . S
C63 O67 1.282 . S
O64 U46 2.441 . S
O64 C50 1.249 . S
O65 U46 2.420 . S
O65 C50 1.202 . S
O66 U46 2.455 . S
O66 C63 1.301 . S
O67 U46 2.449 . S
O67 C63 1.282 . S
H68 C41 0.931 . S
H69 C43 0.929 . S
H70 C44 0.930 . S
H71 C45 0.931 . S
H72 C52 0.932 . S
H73 C53 0.930 . S
H74 C54 0.929 . S
H75 C56 0.930 . S
H76 C58 0.932 . S
H77 C59 0.929 . S
H78 C60 0.928 . S
H79 C62 0.932 . S
C80 C81 1.264 . S
C80 C85 1.479 . S
C80 C90 1.465 . S
C81 C80 1.264 . S
C81 C83 1.339 . S
C81 H108 0.931 . S
C82 C83 1.395 . S
C82 C84 1.320 . S
C83 C81 1.339 . S
C83 C82 1.395 . S
C83 H109 0.929 . S
C84 C82 1.320 . S
C84 C85 1.405 . S
C84 H110 0.930 . S
C85 C80 1.479 . S
C85 C84 1.405 . S
C85 H111 0.931 . S
U86 O87 2.454 . S
U86 O88 2.458 1_554 S
U86 C89 2.984 1_554 S
U86 C90 2.847 . S
U86 C103 2.882 1_554 S
U86 O104 2.441 . S
U86 O105 2.420 . S
U86 O106 2.455 1_554 S
U86 O107 2.449 1_554 S
O87 U86 2.454 . S
O87 C89 1.353 1_554 S
O88 U86 2.458 1_556 S
O88 C89 1.286 . S
C89 U86 2.984 1_556 S
C89 O87 1.353 1_556 S
C89 O88 1.286 . S
C89 C91 1.363 . S
C90 C80 1.465 . S
C90 U86 2.847 . S
C90 O104 1.249 . S
C90 O105 1.202 . S
C91 C89 1.363 . S
C91 C93 1.408 1_556 S
C91 C96 1.342 . S
C92 C93 1.310 . S
C92 C95 1.461 1_554 S
C92 H112 0.932 . S
C93 C91 1.408 1_554 S
C93 C92 1.310 . S
C93 H113 0.930 . S
C94 C95 1.474 . S
C94 C96 1.285 . S
C94 H114 0.929 . S
C95 C92 1.461 1_556 S
C95 C94 1.474 . S
C96 C91 1.342 . S
C96 C94 1.285 . S
C96 H115 0.930 . S
C97 C100 1.424 . S
C97 C102 1.245 . S
C97 C103 1.428 . S
C98 C101 1.260 . S
C98 C102 1.477 . S
C98 H116 0.932 . S
C99 C100 1.384 . S
C99 C101 1.479 . S
C99 H117 0.929 . S
C100 C97 1.424 . S
C100 C99 1.384 . S
C100 H118 0.928 . S
C101 C98 1.260 . S
C101 C99 1.479 . S
C102 C97 1.245 . S
C102 C98 1.477 . S
C102 H119 0.932 . S
C103 U86 2.882 1_556 S
C103 C97 1.428 . S
C103 O106 1.301 . S
C103 O107 1.282 . S
O104 U86 2.441 . S
O104 C90 1.249 . S
O105 U86 2.420 . S
O105 C90 1.202 . S
O106 U86 2.455 1_556 S
O106 C103 1.301 . S
O107 U86 2.449 1_556 S
O107 C103 1.282 . S
H108 C81 0.931 . S
H109 C83 0.929 . S
H110 C84 0.930 . S
H111 C85 0.931 . S
H112 C92 0.932 . S
H113 C93 0.930 . S
H114 C94 0.929 . S
H115 C96 0.930 . S
H116 C98 0.932 . S
H117 C99 0.929 . S
H118 C100 0.928 . S
H119 C102 0.932 . S
C120 C121 1.264 . S
C120 C125 1.479 . S
C120 C130 1.465 . S
C121 C120 1.264 . S
C121 C123 1.339 . S
C121 H148 0.931 . S
C122 C123 1.395 . S
C122 C124 1.320 . S
C123 C121 1.339 . S
C123 C122 1.395 . S
C123 H149 0.929 . S
C124 C122 1.320 . S
C124 C125 1.405 . S
C124 H150 0.930 . S
C125 C120 1.479 . S
C125 C124 1.405 . S
C125 H151 0.931 . S
U126 O127 2.454 . S
U126 O128 2.458 . S
U126 C129 2.984 . S
U126 C130 2.847 . S
U126 C143 2.882 . S
U126 O144 2.441 . S
U126 O145 2.420 . S
U126 O146 2.455 . S
U126 O147 2.449 . S
O127 U126 2.454 . S
O127 C129 1.353 . S
O128 U126 2.458 . S
O128 C129 1.286 . S
C129 U126 2.984 . S
C129 O127 1.353 . S
C129 O128 1.286 . S
C129 C131 1.363 . S
C130 C120 1.465 . S
C130 U126 2.847 . S
C130 O144 1.249 . S
C130 O145 1.202 . S
C131 C129 1.363 . S
C131 C133 1.408 . S
C131 C136 1.342 . S
C132 C133 1.310 . S
C132 C135 1.461 . S
C132 H152 0.932 . S
C133 C131 1.408 . S
C133 C132 1.310 . S
C133 H153 0.930 . S
C134 C135 1.474 . S
C134 C136 1.285 . S
C134 H154 0.929 . S
C135 C132 1.461 . S
C135 C134 1.474 . S
C136 C131 1.342 . S
C136 C134 1.285 . S
C136 H155 0.930 . S
C137 C140 1.424 . S
C137 C142 1.245 . S
C137 C143 1.428 . S
C138 C141 1.260 . S
C138 C142 1.477 . S
C138 H156 0.932 . S
C139 C140 1.384 . S
C139 C141 1.479 . S
C139 H157 0.929 . S
C140 C137 1.424 . S
C140 C139 1.384 . S
C140 H158 0.928 . S
C141 C138 1.260 . S
C141 C139 1.479 . S
C142 C137 1.245 . S
C142 C138 1.477 . S
C142 H159 0.932 . S
C143 U126 2.882 . S
C143 C137 1.428 . S
C143 O146 1.301 . S
C143 O147 1.282 . S
O144 U126 2.441 . S
O144 C130 1.249 . S
O145 U126 2.420 . S
O145 C130 1.202 . S
O146 U126 2.455 . S
O146 C143 1.301 . S
O147 U126 2.449 . S
O147 C143 1.282 . S
H148 C121 0.931 . S
H149 C123 0.929 . S
H150 C124 0.930 . S
H151 C125 0.931 . S
H152 C132 0.932 . S
H153 C133 0.930 . S
H154 C134 0.929 . S
H155 C136 0.930 . S
H156 C138 0.932 . S
H157 C139 0.929 . S
H158 C140 0.928 . S
H159 C142 0.932 . S
O160 Mg161 1.990 1_655 S
O160 C174 1.253 . S
Mg161 O160 1.990 1_455 S
Mg161 O164 2.180 . S
Mg161 O165 2.117 . S
Mg161 O179 2.030 . S
O162 Mg163 2.072 1_655 S
O162 C174 1.260 . S
Mg163 O162 2.072 1_455 S
Mg163 O164 2.099 . S
Mg163 O166 2.069 1_545 S
Mg163 O167 2.072 1_455 S
Mg163 O169 2.099 1_445 S
Mg163 O180 2.079 1_545 S
O164 Mg161 2.180 . S
O164 Mg163 2.099 . S
O164 C175 1.279 . S
O165 Mg161 2.117 . S
O165 C175 1.250 . S
O166 Mg163 2.069 1_565 S
O166 C176 1.275 . S
O167 Mg163 2.072 1_655 S
O167 C177 1.260 . S
Mg168 O169 2.180 . S
Mg168 O170 2.030 1_655 S
Mg168 O171 1.990 1_565 S
Mg168 O172 2.117 . S
O169 Mg163 2.099 1_665 S
O169 Mg168 2.180 . S
O169 C178 1.279 . S
O170 Mg168 2.030 1_455 S
O170 C176 1.248 . S
O171 Mg168 1.990 1_545 S
O171 C177 1.253 . S
O172 Mg168 2.117 . S
O172 C178 1.250 . S
C173 O179 1.245 . S
C173 O180 1.264 1_545 S
C174 O160 1.253 . S
C174 O162 1.260 . S
C175 O164 1.279 . S
C175 O165 1.250 . S
C176 O166 1.275 . S
C176 O170 1.248 . S
C177 O167 1.260 . S
C177 O171 1.253 . S
C178 O169 1.279 . S
C178 O172 1.250 . S
O179 Mg161 2.030 . S
O179 C173 1.245 . S
O180 Mg163 2.079 1_565 S
O180 C173 1.264 1_565 S
O181 Mg182 1.990 . S
O181 C195 1.253 . S
Mg182 O181 1.990 . S
Mg182 O185 2.180 . S
Mg182 O186 2.117 . S
Mg182 O200 2.030 . S
O183 Mg184 2.072 . S
O183 C195 1.260 . S
Mg184 O183 2.072 . S
Mg184 O185 2.099 . S
Mg184 O187 2.079 1_554 S
Mg184 O188 2.072 . S
Mg184 O190 2.099 . S
Mg184 O201 2.079 . S
O185 Mg182 2.180 . S
O185 Mg184 2.099 . S
O185 C196 1.279 . S
O186 Mg182 2.117 . S
O186 C196 1.250 . S
O187 Mg184 2.079 1_556 S
O187 C197 1.264 . S
O188 Mg184 2.072 . S
O188 C198 1.260 1_554 S
Mg189 O190 2.180 1_556 S
Mg189 O191 2.030 . S
Mg189 O192 1.990 . S
Mg189 O193 2.117 1_556 S
O190 Mg184 2.099 . S
O190 Mg189 2.180 1_554 S
O190 C199 1.279 . S
O191 Mg189 2.030 . S
O191 C197 1.248 . S
O192 Mg189 1.990 . S
O192 C198 1.253 . S
O193 Mg189 2.117 1_554 S
O193 C199 1.250 . S
C194 O200 1.248 . S
C194 O201 1.264 . S
C195 O181 1.253 . S
C195 O183 1.260 . S
C196 O185 1.279 . S
C196 O186 1.250 . S
C197 O187 1.264 . S
C197 O191 1.248 . S
C198 O188 1.260 1_556 S
C198 O192 1.253 . S
C199 O190 1.279 . S
C199 O193 1.250 . S
O200 Mg182 2.030 . S
O200 C194 1.248 . S
O201 Mg184 2.079 . S
O201 C194 1.264 . S
C202 C203 1.349 . S
C202 C204 1.327 . S
C202 H227 0.950 . S
C203 C202 1.349 . S
C203 C219 1.349 . S
C204 C202 1.327 . S
C204 C223 1.429 . S
C204 H228 0.950 . S
C205 C222 1.574 . S
C205 C224 1.368 . S
C205 H229 0.949 . S
H206 C210 0.949 . S
C207 C208 1.349 . S
C207 C209 1.327 . S
C207 H230 0.950 . S
C208 C207 1.349 . S
C208 C220 1.349 . S
C209 C207 1.327 . S
C209 C225 1.429 . S
C209 H231 0.950 . S
C210 H206 0.949 . S
C210 C218 1.574 . S
C210 C226 1.368 . S
H211 C219 0.950 . S
H212 C217 0.950 . S
H213 C218 0.949 . S
H214 C220 0.950 . S
H215 C221 0.950 . S
H216 C222 0.949 . S
C217 H212 0.950 . S
C217 C219 1.327 . S
C217 C223 1.429 . S
C218 C210 1.574 . S
C218 H213 0.949 . S
C218 C224 1.368 . S
C219 C203 1.349 . S
C219 H211 0.950 . S
C219 C217 1.327 . S
C220 C208 1.349 . S
C220 H214 0.950 . S
C220 C221 1.327 . S
C221 H215 0.950 . S
C221 C220 1.327 . S
C221 C225 1.429 . S
C222 C205 1.574 . S
C222 H216 0.949 . S
C222 C226 1.368 . S
C223 C204 1.429 . S
C223 C217 1.429 . S
C223 C224 1.523 . S
C224 C205 1.368 . S
C224 C218 1.368 . S
C224 C223 1.523 . S
C225 C209 1.429 . S
C225 C221 1.429 . S
C225 C226 1.523 . S
C226 C210 1.368 . S
C226 C222 1.368 . S
C226 C225 1.523 . S
H227 C202 0.950 . S
H228 C204 0.950 . S
H229 C205 0.949 . S
H230 C207 0.950 . S
H231 C209 0.950 . S
C232 C233 1.349 . S
C232 C234 1.327 . S
C232 H257 0.950 . S
C233 C232 1.349 . S
C233 C249 1.349 . S
C234 C232 1.327 . S
C234 C253 1.429 . S
C234 H258 0.950 . S
C235 C252 1.574 . S
C235 C254 1.368 . S
C235 H259 0.949 . S
H236 C240 0.949 . S
C237 C238 1.349 . S
C237 C239 1.327 . S
C237 H260 0.950 . S
C238 C237 1.349 . S
C238 C250 1.349 . S
C239 C237 1.327 . S
C239 C255 1.429 . S
C239 H261 0.950 . S
C240 H236 0.949 . S
C240 C248 1.574 . S
C240 C256 1.368 . S
H241 C249 0.950 . S
H242 C247 0.950 . S
H243 C248 0.949 . S
H244 C250 0.950 . S
H245 C251 0.950 . S
H246 C252 0.949 . S
C247 H242 0.950 . S
C247 C249 1.327 . S
C247 C253 1.429 . S
C248 C240 1.574 . S
C248 H243 0.949 . S
C248 C254 1.368 . S
C249 C233 1.349 . S
C249 H241 0.950 . S
C249 C247 1.327 . S
C250 C238 1.349 . S
C250 H244 0.950 . S
C250 C251 1.327 . S
C251 H245 0.950 . S
C251 C250 1.327 . S
C251 C255 1.429 . S
C252 C235 1.574 . S
C252 H246 0.949 . S
C252 C256 1.368 . S
C253 C234 1.429 . S
C253 C247 1.429 . S
C253 C254 1.523 . S
C254 C235 1.368 . S
C254 C248 1.368 . S
C254 C253 1.523 . S
C255 C239 1.429 . S
C255 C251 1.429 . S
C255 C256 1.523 . S
C256 C240 1.368 . S
C256 C252 1.368 . S
C256 C255 1.523 . S
H257 C232 0.950 . S
H258 C234 0.950 . S
H259 C235 0.949 . S
H260 C237 0.950 . S
H261 C239 0.950 . S
C262 C263 1.349 . S
C262 C264 1.327 . S
C262 H287 0.950 . S
C263 C262 1.349 . S
C263 C279 1.349 . S
C264 C262 1.327 . S
C264 C283 1.429 . S
C264 H288 0.950 . S
C265 C282 1.574 . S
C265 C284 1.368 . S
C265 H289 0.949 . S
H266 C270 0.949 . S
C267 C268 1.349 . S
C267 C269 1.327 . S
C267 H290 0.950 . S
C268 C267 1.349 . S
C268 C280 1.349 . S
C269 C267 1.327 . S
C269 C285 1.429 . S
C269 H291 0.950 . S
C270 H266 0.949 . S
C270 C278 1.574 . S
C270 C286 1.368 . S
H271 C279 0.950 . S
H272 C277 0.950 . S
H273 C278 0.949 . S
H274 C280 0.950 . S
H275 C281 0.950 . S
H276 C282 0.949 . S
C277 H272 0.950 . S
C277 C279 1.327 . S
C277 C283 1.429 . S
C278 C270 1.574 . S
C278 H273 0.949 . S
C278 C284 1.368 . S
C279 C263 1.349 . S
C279 H271 0.950 . S
C279 C277 1.327 . S
C280 C268 1.349 . S
C280 H274 0.950 . S
C280 C281 1.327 . S
C281 H275 0.950 . S
C281 C280 1.327 . S
C281 C285 1.429 . S
C282 C265 1.574 . S
C282 H276 0.949 . S
C282 C286 1.368 . S
C283 C264 1.429 . S
C283 C277 1.429 . S
C283 C284 1.523 . S
C284 C265 1.368 . S
C284 C278 1.368 . S
C284 C283 1.523 . S
C285 C269 1.429 . S
C285 C281 1.429 . S
C285 C286 1.523 . S
C286 C270 1.368 . S
C286 C282 1.368 . S
C286 C285 1.523 . S
H287 C262 0.950 . S
H288 C264 0.950 . S
H289 C265 0.949 . S
H290 C267 0.950 . S
H291 C269 0.950 . S
C292 C293 1.349 . S
C292 C294 1.327 . S
C292 H317 0.950 . S
C293 C292 1.349 . S
C293 C309 1.349 1_556 S
C294 C292 1.327 . S
C294 C313 1.428 . S
C294 H318 0.950 . S
C295 C312 1.574 . S
C295 C314 1.368 . S
C295 H319 0.949 . S
H296 C300 0.949 . S
C297 C298 1.349 . S
C297 C299 1.327 . S
C297 H320 0.950 . S
C298 C297 1.349 . S
C298 C310 1.349 1_554 S
C299 C297 1.327 . S
C299 C315 1.429 . S
C299 H321 0.950 . S
C300 H296 0.949 . S
C300 C308 1.574 . S
C300 C316 1.368 1_556 S
H301 C309 0.950 . S
H302 C307 0.950 . S
H303 C308 0.949 . S
H304 C310 0.950 . S
H305 C311 0.950 . S
H306 C312 0.949 . S
C307 H302 0.950 . S
C307 C309 1.327 . S
C307 C313 1.429 1_554 S
C308 C300 1.574 . S
C308 H303 0.949 . S
C308 C314 1.368 1_556 S
C309 C293 1.349 1_554 S
C309 H301 0.950 . S
C309 C307 1.327 . S
C310 C298 1.349 1_556 S
C310 H304 0.950 . S
C310 C311 1.327 . S
C311 H305 0.950 . S
C311 C310 1.327 . S
C311 C315 1.429 1_556 S
C312 C295 1.574 . S
C312 H306 0.949 . S
C312 C316 1.368 . S
C313 C294 1.428 . S
C313 C307 1.429 1_556 S
C313 C314 1.523 1_556 S
C314 C295 1.368 . S
C314 C308 1.368 1_554 S
C314 C313 1.523 1_554 S
C315 C299 1.429 . S
C315 C311 1.429 1_554 S
C315 C316 1.523 . S
C316 C300 1.368 1_554 S
C316 C312 1.368 . S
C316 C315 1.523 . S
H317 C292 0.950 . S
H318 C294 0.950 . S
H319 C295 0.949 . S
H320 C297 0.950 . S
H321 C299 0.950 . S
C322 C323 1.349 . S
C322 C324 1.327 . S
C322 H347 0.950 . S
C323 C322 1.349 . S
C323 C339 1.349 . S
C324 C322 1.327 . S
C324 C343 1.429 . S
C324 H348 0.950 . S
C325 C342 1.574 . S
C325 C344 1.368 . S
C325 H349 0.949 . S
H326 C330 0.949 . S
C327 C328 1.349 . S
C327 C329 1.327 . S
C327 H350 0.950 . S
C328 C327 1.349 . S
C328 C340 1.359 . S
C329 C327 1.327 . S
C329 C345 1.429 . S
C329 H351 0.950 . S
C330 H326 0.949 . S
C330 C338 1.574 . S
C330 C346 1.368 . S
H331 C339 0.950 . S
H332 C337 0.950 . S
H333 C338 0.949 . S
H334 C340 0.935 1_545 S
H335 C341 0.950 1_545 S
H336 C342 0.949 . S
C337 H332 0.950 . S
C337 C339 1.327 . S
C337 C343 1.429 . S
C338 C330 1.574 . S
C338 H333 0.949 . S
C338 C344 1.368 . S
C339 C323 1.349 . S
C339 H331 0.950 . S
C339 C337 1.327 . S
C340 C328 1.359 . S
C340 H334 0.935 1_565 S
C340 C341 1.331 . S
C341 H335 0.950 1_565 S
C341 C340 1.331 . S
C341 C345 1.429 . S
C342 C325 1.574 . S
C342 H336 0.949 . S
C342 C346 1.368 . S
C343 C324 1.429 . S
C343 C337 1.429 . S
C343 C344 1.523 . S
C344 C325 1.368 . S
C344 C338 1.368 . S
C344 C343 1.523 . S
C345 C329 1.429 . S
C345 C341 1.429 . S
C345 C346 1.523 . S
C346 C330 1.368 . S
C346 C342 1.368 . S
C346 C345 1.523 . S
H347 C322 0.950 . S
H348 C324 0.950 . S
H349 C325 0.949 . S
H350 C327 0.950 . S
H351 C329 0.950 . S
C352 C353 1.349 . S
C352 C354 1.327 . S
C352 H377 0.950 . S
C353 C352 1.349 . S
C353 C369 1.349 . S
C354 C352 1.327 . S
C354 C373 1.429 . S
C354 H378 0.950 . S
C355 C372 1.574 . S
C355 C374 1.368 . S
C355 H379 0.949 . S
H356 C360 0.949 . S
C357 C358 1.349 . S
C357 C359 1.327 . S
C357 H380 0.950 . S
C358 C357 1.349 . S
C358 C370 1.349 . S
C359 C357 1.327 . S
C359 C375 1.429 . S
C359 H381 0.950 . S
C360 H356 0.949 . S
C360 C368 1.574 . S
C360 C376 1.368 . S
H361 C369 0.950 . S
H362 C367 0.950 . S
H363 C368 0.949 . S
H364 C370 0.950 . S
H365 C371 0.950 . S
H366 C372 0.949 . S
C367 H362 0.950 . S
C367 C369 1.327 . S
C367 C373 1.429 . S
C368 C360 1.574 . S
C368 H363 0.949 . S
C368 C374 1.368 . S
C369 C353 1.349 . S
C369 H361 0.950 . S
C369 C367 1.327 . S
C370 C358 1.349 . S
C370 H364 0.950 . S
C370 C371 1.327 . S
C371 H365 0.950 . S
C371 C370 1.327 . S
C371 C375 1.429 . S
C372 C355 1.574 . S
C372 H366 0.949 . S
C372 C376 1.368 . S
C373 C354 1.429 . S
C373 C367 1.429 . S
C373 C374 1.523 . S
C374 C355 1.368 . S
C374 C368 1.368 . S
C374 C373 1.523 . S
C375 C359 1.429 . S
C375 C371 1.429 . S
C375 C376 1.523 . S
C376 C360 1.368 . S
C376 C372 1.368 . S
C376 C375 1.523 . S
H377 C352 0.950 . S
H378 C354 0.950 . S
H379 C355 0.949 . S
H380 C357 0.950 . S
H381 C359 0.950 . S
C382 C383 1.349 . S
C382 C384 1.327 . S
C382 H407 0.950 . S
C383 C382 1.349 . S
C383 C399 1.349 . S
C384 C382 1.327 . S
C384 C403 1.429 . S
C384 H408 0.950 . S
C385 C402 1.574 . S
C385 C404 1.368 . S
C385 H409 0.949 . S
H386 C390 0.949 . S
C387 C388 1.349 . S
C387 C389 1.327 . S
C387 H410 0.950 . S
C388 C387 1.349 . S
C388 C400 1.349 . S
C389 C387 1.327 . S
C389 C405 1.429 . S
C389 H411 0.950 . S
C390 H386 0.949 . S
C390 C398 1.574 . S
C390 C406 1.368 . S
H391 C399 0.950 . S
H392 C397 0.950 . S
H393 C398 0.949 . S
H394 C400 0.950 . S
H395 C401 0.950 . S
H396 C402 0.949 . S
C397 H392 0.950 . S
C397 C399 1.327 . S
C397 C403 1.429 . S
C398 C390 1.574 . S
C398 H393 0.949 . S
C398 C404 1.368 . S
C399 C383 1.349 . S
C399 H391 0.950 . S
C399 C397 1.327 . S
C400 C388 1.349 . S
C400 H394 0.950 . S
C400 C401 1.327 . S
C401 H395 0.950 . S
C401 C400 1.327 . S
C401 C405 1.429 . S
C402 C385 1.574 . S
C402 H396 0.949 . S
C402 C406 1.368 . S
C403 C384 1.429 . S
C403 C397 1.429 . S
C403 C404 1.523 . S
C404 C385 1.368 . S
C404 C398 1.368 . S
C404 C403 1.523 . S
C405 C389 1.429 . S
C405 C401 1.429 . S
C405 C406 1.523 . S
C406 C390 1.368 . S
C406 C402 1.368 . S
C406 C405 1.523 . S
H407 C382 0.950 . S
H408 C384 0.950 . S
H409 C385 0.949 . S
H410 C387 0.950 . S
H411 C389 0.950 . S
C412 C413 1.349 . S
C412 C414 1.327 . S
C412 H437 0.950 . S
C413 C412 1.349 . S
C413 C429 1.349 . S
C414 C412 1.327 . S
C414 C433 1.429 . S
C414 H438 0.950 . S
C415 C432 1.574 . S
C415 C434 1.368 . S
C415 H439 0.949 . S
H416 C420 0.949 . S
C417 C418 1.349 . S
C417 C419 1.327 . S
C417 H440 0.950 . S
C418 C417 1.349 . S
C418 C430 1.349 . S
C419 C417 1.327 . S
C419 C435 1.429 . S
C419 H441 0.950 . S
C420 H416 0.949 . S
C420 C428 1.574 . S
C420 C436 1.368 . S
H421 C429 0.950 . S
H422 C427 0.950 . S
H423 C428 0.949 . S
H424 C430 0.950 . S
H425 C431 0.950 . S
H426 C432 0.949 . S
C427 H422 0.950 . S
C427 C429 1.327 . S
C427 C433 1.429 . S
C428 C420 1.574 . S
C428 H423 0.949 . S
C428 C434 1.368 . S
C429 C413 1.349 . S
C429 H421 0.950 . S
C429 C427 1.327 . S
C430 C418 1.349 . S
C430 H424 0.950 . S
C430 C431 1.327 . S
C431 H425 0.950 . S
C431 C430 1.327 . S
C431 C435 1.429 . S
C432 C415 1.574 . S
C432 H426 0.949 . S
C432 C436 1.368 . S
C433 C414 1.429 . S
C433 C427 1.429 . S
C433 C434 1.523 . S
C434 C415 1.368 . S
C434 C428 1.368 . S
C434 C433 1.523 . S
C435 C419 1.429 . S
C435 C431 1.429 . S
C435 C436 1.523 . S
C436 C420 1.368 . S
C436 C432 1.368 . S
C436 C435 1.523 . S
H437 C412 0.950 . S
H438 C414 0.950 . S
H439 C415 0.949 . S
H440 C417 0.950 . S
H441 C419 0.950 . S
C442 C443 1.349 . S
C442 C444 1.327 . S
C442 H467 0.950 . S
C443 C442 1.349 . S
C443 C459 1.349 . S
C444 C442 1.327 . S
C444 C463 1.429 . S
C444 H468 0.950 . S
C445 C462 1.574 . S
C445 C464 1.368 . S
C445 H469 0.949 . S
H446 C450 0.949 . S
C447 C448 1.349 . S
C447 C449 1.327 . S
C447 H470 0.950 . S
C448 C447 1.349 . S
C448 C460 1.349 . S
C449 C447 1.327 . S
C449 C465 1.429 . S
C449 H471 0.950 . S
C450 H446 0.949 . S
C450 C458 1.574 . S
C450 C466 1.368 . S
H451 C459 0.950 . S
H452 C457 0.950 . S
H453 C458 0.949 . S
H454 C460 0.950 . S
H455 C461 0.950 . S
H456 C462 0.949 . S
C457 H452 0.950 . S
C457 C459 1.327 . S
C457 C463 1.429 . S
C458 C450 1.574 . S
C458 H453 0.949 . S
C458 C464 1.368 . S
C459 C443 1.349 . S
C459 H451 0.950 . S
C459 C457 1.327 . S
C460 C448 1.349 . S
C460 H454 0.950 . S
C460 C461 1.327 . S
C461 H455 0.950 . S
C461 C460 1.327 . S
C461 C465 1.429 . S
C462 C445 1.574 . S
C462 H456 0.949 . S
C462 C466 1.368 . S
C463 C444 1.429 . S
C463 C457 1.429 . S
C463 C464 1.523 . S
C464 C445 1.368 . S
C464 C458 1.368 . S
C464 C463 1.523 . S
C465 C449 1.429 . S
C465 C461 1.429 . S
C465 C466 1.523 . S
C466 C450 1.368 . S
C466 C462 1.368 . S
C466 C465 1.523 . S
H467 C442 0.950 . S
H468 C444 0.950 . S
H469 C445 0.949 . S
H470 C447 0.950 . S
H471 C449 0.950 . S
C472 C473 1.349 . S
C472 C474 1.327 . S
C472 H497 0.950 . S
C473 C472 1.349 . S
C473 C489 1.349 . S
C474 C472 1.327 . S
C474 C493 1.429 . S
C474 H498 0.950 . S
C475 C492 1.574 . S
C475 C494 1.368 . S
C475 H499 0.949 . S
H476 C480 0.949 . S
C477 C478 1.349 . S
C477 C479 1.327 . S
C477 H500 0.950 . S
C478 C477 1.349 . S
C478 C490 1.349 . S
C479 C477 1.327 . S
C479 C495 1.429 . S
C479 H501 0.950 . S
C480 H476 0.949 . S
C480 C488 1.574 . S
C480 C496 1.368 . S
H481 C489 0.950 . S
H482 C487 0.950 . S
H483 C488 0.949 . S
H484 C490 0.950 . S
H485 C491 0.950 . S
H486 C492 0.949 . S
C487 H482 0.950 . S
C487 C489 1.327 . S
C487 C493 1.429 . S
C488 C480 1.574 . S
C488 H483 0.949 . S
C488 C494 1.368 . S
C489 C473 1.349 . S
C489 H481 0.950 . S
C489 C487 1.327 . S
C490 C478 1.349 . S
C490 H484 0.950 . S
C490 C491 1.327 . S
C491 H485 0.950 . S
C491 C490 1.327 . S
C491 C495 1.429 . S
C492 C475 1.574 . S
C492 H486 0.949 . S
C492 C496 1.368 . S
C493 C474 1.429 . S
C493 C487 1.429 . S
C493 C494 1.523 . S
C494 C475 1.368 . S
C494 C488 1.368 . S
C494 C493 1.523 . S
C495 C479 1.429 . S
C495 C491 1.429 . S
C495 C496 1.523 . S
C496 C480 1.368 . S
C496 C492 1.368 . S
C496 C495 1.523 . S
H497 C472 0.950 . S
H498 C474 0.950 . S
H499 C475 0.949 . S
H500 C477 0.950 . S
H501 C479 0.950 . S
C502 C503 1.349 . S
C502 C504 1.327 . S
C502 H527 0.950 . S
C503 C502 1.349 . S
C503 C519 1.349 . S
C504 C502 1.327 . S
C504 C523 1.429 . S
C504 H528 0.950 . S
C505 C522 1.574 . S
C505 C524 1.368 . S
C505 H529 0.949 . S
H506 C510 0.949 . S
C507 C508 1.349 . S
C507 C509 1.327 . S
C507 H530 0.950 . S
C508 C507 1.349 . S
C508 C520 1.349 . S
C509 C507 1.327 . S
C509 C525 1.429 . S
C509 H531 0.950 . S
C510 H506 0.949 . S
C510 C518 1.574 . S
C510 C526 1.368 . S
H511 C519 0.950 . S
H512 C517 0.950 . S
H513 C518 0.949 . S
H514 C520 0.950 . S
H515 C521 0.950 . S
H516 C522 0.949 . S
C517 H512 0.950 . S
C517 C519 1.327 . S
C517 C523 1.429 . S
C518 C510 1.574 . S
C518 H513 0.949 . S
C518 C524 1.368 . S
C519 C503 1.349 . S
C519 H511 0.950 . S
C519 C517 1.327 . S
C520 C508 1.349 . S
C520 H514 0.950 . S
C520 C521 1.327 . S
C521 H515 0.950 . S
C521 C520 1.327 . S
C521 C525 1.429 . S
C522 C505 1.574 . S
C522 H516 0.949 . S
C522 C526 1.368 . S
C523 C504 1.429 . S
C523 C517 1.429 . S
C523 C524 1.523 . S
C524 C505 1.368 . S
C524 C518 1.368 . S
C524 C523 1.523 . S
C525 C509 1.429 . S
C525 C521 1.429 . S
C525 C526 1.523 . S
C526 C510 1.368 . S
C526 C522 1.368 . S
C526 C525 1.523 . S
H527 C502 0.950 . S
H528 C504 0.950 . S
H529 C505 0.949 . S
H530 C507 0.950 . S
H531 C509 0.950 . S
C532 C533 1.349 . S
C532 C534 1.327 . S
C532 H557 0.950 . S
C533 C532 1.349 . S
C533 C549 1.349 . S
C534 C532 1.327 . S
C534 C553 1.429 . S
C534 H558 0.950 . S
C535 C552 1.574 . S
C535 C554 1.368 . S
C535 H559 0.949 . S
H536 C540 0.949 . S
C537 C538 1.349 . S
C537 C539 1.327 . S
C537 H560 0.950 1_565 S
C538 C537 1.349 . S
C538 C550 1.349 . S
C539 C537 1.327 . S
C539 C555 1.429 . S
C539 H561 0.950 . S
C540 H536 0.949 . S
C540 C548 1.574 . S
C540 C556 1.368 . S
H541 C549 0.950 . S
H542 C547 0.950 . S
H543 C548 0.949 . S
H544 C550 0.950 . S
H545 C551 0.950 . S
H546 C552 0.949 . S
C547 H542 0.950 . S
C547 C549 1.327 . S
C547 C553 1.429 . S
C548 C540 1.574 . S
C548 H543 0.949 . S
C548 C554 1.368 . S
C549 C533 1.349 . S
C549 H541 0.950 . S
C549 C547 1.327 . S
C550 C538 1.349 . S
C550 H544 0.950 . S
C550 C551 1.327 . S
C551 H545 0.950 . S
C551 C550 1.327 . S
C551 C555 1.429 . S
C552 C535 1.574 . S
C552 H546 0.949 . S
C552 C556 1.368 . S
C553 C534 1.429 . S
C553 C547 1.429 . S
C553 C554 1.523 . S
C554 C535 1.368 . S
C554 C548 1.368 . S
C554 C553 1.523 . S
C555 C539 1.429 . S
C555 C551 1.429 . S
C555 C556 1.523 . S
C556 C540 1.368 . S
C556 C552 1.368 . S
C556 C555 1.523 . S
H557 C532 0.950 . S
H558 C534 0.950 . S
H559 C535 0.949 . S
H560 C537 0.950 1_545 S
H561 C539 0.950 . S
C208 C175 1.345 . S
C203 C135 1.520 . S
C233 C15 1.518 . S
C238 C199 1.340 . S
C263 C55 1.688 . S
C268 C178 1.484 . S
C293 C95 1.701 . S
C298 C196 1.497 . S
C328 C176 1.606 . S
C323 C2 1.637 . S
C358 C198 1.569 . S
C353 C42 1.578 . S
C383 C82 1.582 . S
C388 C177 1.503 . S
C413 C141 1.622 . S
C418 C197 1.539 . S
C448 C195 1.534 . S
C443 C61 1.563 . S
C478 C174 1.604 . S
C473 C101 1.649 . S
C508 C194 1.635 . S
C503 C122 1.667 . S
C533 C21 1.651 . S
C538 C173 1.569 1_565 S
