# Generated by pormake.
# Topology gar, (4,6)-cn, num edge types: 1
# Building blocks:
#     Node 0, Type 0, BuildingBlock: TATPOV_clean_sbu_0, # of connection points: 4
#     Node 1, Type 0, BuildingBlock: TATPOV_clean_sbu_0, # of connection points: 4
#     Node 2, Type 0, BuildingBlock: TATPOV_clean_sbu_0, # of connection points: 4
#     Node 3, Type 0, BuildingBlock: TATPOV_clean_sbu_0, # of connection points: 4
#     Node 4, Type 0, BuildingBlock: TATPOV_clean_sbu_0, # of connection points: 4
#     Node 5, Type 0, BuildingBlock: TATPOV_clean_sbu_0, # of connection points: 4
#     Node 6, Type 0, BuildingBlock: TATPOV_clean_sbu_0, # of connection points: 4
#     Node 7, Type 0, BuildingBlock: TATPOV_clean_sbu_0, # of connection points: 4
#     Node 8, Type 0, BuildingBlock: TATPOV_clean_sbu_0, # of connection points: 4
#     Node 9, Type 0, BuildingBlock: TATPOV_clean_sbu_0, # of connection points: 4
#     Node 10, Type 0, BuildingBlock: TATPOV_clean_sbu_0, # of connection points: 4
#     Node 11, Type 0, BuildingBlock: TATPOV_clean_sbu_0, # of connection points: 4
#     Node 12, Type 0, BuildingBlock: TATPOV_clean_sbu_0, # of connection points: 4
#     Node 13, Type 0, BuildingBlock: TATPOV_clean_sbu_0, # of connection points: 4
#     Node 14, Type 0, BuildingBlock: TATPOV_clean_sbu_0, # of connection points: 4
#     Node 15, Type 0, BuildingBlock: TATPOV_clean_sbu_0, # of connection points: 4
#     Node 16, Type 0, BuildingBlock: TATPOV_clean_sbu_0, # of connection points: 4
#     Node 17, Type 0, BuildingBlock: TATPOV_clean_sbu_0, # of connection points: 4
#     Node 18, Type 0, BuildingBlock: TATPOV_clean_sbu_0, # of connection points: 4
#     Node 19, Type 0, BuildingBlock: TATPOV_clean_sbu_0, # of connection points: 4
#     Node 20, Type 0, BuildingBlock: TATPOV_clean_sbu_0, # of connection points: 4
#     Node 21, Type 0, BuildingBlock: TATPOV_clean_sbu_0, # of connection points: 4
#     Node 22, Type 0, BuildingBlock: TATPOV_clean_sbu_0, # of connection points: 4
#     Node 23, Type 0, BuildingBlock: TATPOV_clean_sbu_0, # of connection points: 4
#     Node 24, Type 1, BuildingBlock: KUMJIN_clean_sbu_1, # of connection points: 6
#     Node 25, Type 1, BuildingBlock: KUMJIN_clean_sbu_1, # of connection points: 6
#     Node 26, Type 1, BuildingBlock: KUMJIN_clean_sbu_1, # of connection points: 6
#     Node 27, Type 1, BuildingBlock: KUMJIN_clean_sbu_1, # of connection points: 6
#     Node 28, Type 1, BuildingBlock: KUMJIN_clean_sbu_1, # of connection points: 6
#     Node 29, Type 1, BuildingBlock: KUMJIN_clean_sbu_1, # of connection points: 6
#     Node 30, Type 1, BuildingBlock: KUMJIN_clean_sbu_1, # of connection points: 6
#     Node 31, Type 1, BuildingBlock: KUMJIN_clean_sbu_1, # of connection points: 6
#     Node 32, Type 1, BuildingBlock: KUMJIN_clean_sbu_1, # of connection points: 6
#     Node 33, Type 1, BuildingBlock: KUMJIN_clean_sbu_1, # of connection points: 6
#     Node 34, Type 1, BuildingBlock: KUMJIN_clean_sbu_1, # of connection points: 6
#     Node 35, Type 1, BuildingBlock: KUMJIN_clean_sbu_1, # of connection points: 6
#     Node 36, Type 1, BuildingBlock: KUMJIN_clean_sbu_1, # of connection points: 6
#     Node 37, Type 1, BuildingBlock: KUMJIN_clean_sbu_1, # of connection points: 6
#     Node 38, Type 1, BuildingBlock: KUMJIN_clean_sbu_1, # of connection points: 6
#     Node 39, Type 1, BuildingBlock: KUMJIN_clean_sbu_1, # of connection points: 6
#     Edge 40, Type (0, 1), None
#     Edge 41, Type (0, 1), None
#     Edge 42, Type (0, 1), None
#     Edge 43, Type (0, 1), None
#     Edge 44, Type (0, 1), None
#     Edge 45, Type (0, 1), None
#     Edge 46, Type (0, 1), None
#     Edge 47, Type (0, 1), None
#     Edge 48, Type (0, 1), None
#     Edge 49, Type (0, 1), None
#     Edge 50, Type (0, 1), None
#     Edge 51, Type (0, 1), None
#     Edge 52, Type (0, 1), None
#     Edge 53, Type (0, 1), None
#     Edge 54, Type (0, 1), None
#     Edge 55, Type (0, 1), None
#     Edge 56, Type (0, 1), None
#     Edge 57, Type (0, 1), None
#     Edge 58, Type (0, 1), None
#     Edge 59, Type (0, 1), None
#     Edge 60, Type (0, 1), None
#     Edge 61, Type (0, 1), None
#     Edge 62, Type (0, 1), None
#     Edge 63, Type (0, 1), None
#     Edge 64, Type (0, 1), None
#     Edge 65, Type (0, 1), None
#     Edge 66, Type (0, 1), None
#     Edge 67, Type (0, 1), None
#     Edge 68, Type (0, 1), None
#     Edge 69, Type (0, 1), None
#     Edge 70, Type (0, 1), None
#     Edge 71, Type (0, 1), None
#     Edge 72, Type (0, 1), None
#     Edge 73, Type (0, 1), None
#     Edge 74, Type (0, 1), None
#     Edge 75, Type (0, 1), None
#     Edge 76, Type (0, 1), None
#     Edge 77, Type (0, 1), None
#     Edge 78, Type (0, 1), None
#     Edge 79, Type (0, 1), None
#     Edge 80, Type (0, 1), None
#     Edge 81, Type (0, 1), None
#     Edge 82, Type (0, 1), None
#     Edge 83, Type (0, 1), None
#     Edge 84, Type (0, 1), None
#     Edge 85, Type (0, 1), None
#     Edge 86, Type (0, 1), None
#     Edge 87, Type (0, 1), None
#     Edge 88, Type (0, 1), None
#     Edge 89, Type (0, 1), None
#     Edge 90, Type (0, 1), None
#     Edge 91, Type (0, 1), None
#     Edge 92, Type (0, 1), None
#     Edge 93, Type (0, 1), None
#     Edge 94, Type (0, 1), None
#     Edge 95, Type (0, 1), None
#     Edge 96, Type (0, 1), None
#     Edge 97, Type (0, 1), None
#     Edge 98, Type (0, 1), None
#     Edge 99, Type (0, 1), None
#     Edge 100, Type (0, 1), None
#     Edge 101, Type (0, 1), None
#     Edge 102, Type (0, 1), None
#     Edge 103, Type (0, 1), None
#     Edge 104, Type (0, 1), None
#     Edge 105, Type (0, 1), None
#     Edge 106, Type (0, 1), None
#     Edge 107, Type (0, 1), None
#     Edge 108, Type (0, 1), None
#     Edge 109, Type (0, 1), None
#     Edge 110, Type (0, 1), None
#     Edge 111, Type (0, 1), None
#     Edge 112, Type (0, 1), None
#     Edge 113, Type (0, 1), None
#     Edge 114, Type (0, 1), None
#     Edge 115, Type (0, 1), None
#     Edge 116, Type (0, 1), None
#     Edge 117, Type (0, 1), None
#     Edge 118, Type (0, 1), None
#     Edge 119, Type (0, 1), None
#     Edge 120, Type (0, 1), None
#     Edge 121, Type (0, 1), None
#     Edge 122, Type (0, 1), None
#     Edge 123, Type (0, 1), None
#     Edge 124, Type (0, 1), None
#     Edge 125, Type (0, 1), None
#     Edge 126, Type (0, 1), None
#     Edge 127, Type (0, 1), None
#     Edge 128, Type (0, 1), None
#     Edge 129, Type (0, 1), None
#     Edge 130, Type (0, 1), None
#     Edge 131, Type (0, 1), None
#     Edge 132, Type (0, 1), None
#     Edge 133, Type (0, 1), None
#     Edge 134, Type (0, 1), None
#     Edge 135, Type (0, 1), None
# Relax obj value: 0.231
# Max RMSD: 0.249
# Mean RMSD: 0.157
data_MOF--net-gar--node1-TATPOV_clean_sbu_0--node2-KUMJIN_clean_sbu_1--edge1-none
_symmetry_space_group_name_H-M    P1
_symmetry_Int_Tables_number       1
_symmetry_cell_setting            triclinic
loop_
_symmetry_equiv_pos_as_xyz
'x, y, z'
_cell_length_a     31.077092
_cell_length_b     30.877506
_cell_length_c     27.587246
_cell_angle_alpha  100.02467
_cell_angle_beta   101.04461
_cell_angle_gamma 108.05026
loop_
_atom_site_label
_atom_site_type_symbol
_atom_site_fract_x
_atom_site_fract_y
_atom_site_fract_z
_atom_type_partial_charge
Zn0 Zn 0.02371 0.366 0.4435 0.0
Zn1 Zn 0.08772 0.38107 0.36199 0.0
O2 O 0.0947 0.4474 0.43085 0.0
O3 O 0.02945 0.4295 0.45851 0.0
O4 O 0.16075 0.36232 0.33745 0.0
O5 O 0.08437 0.35095 0.45816 0.0
O6 O 0.06709 0.31766 0.37929 0.0
C7 C 0.0675 0.45942 0.45885 0.0
C8 C 0.97068 0.3621 0.33284 0.0
O9 O 0.00783 0.36733 0.31414 0.0
O10 O 0.97629 0.36028 0.37889 0.0
C11 C 0.20041 0.36264 0.322 0.0
O12 O 0.21991 0.39806 0.30364 0.0
C13 C 0.07251 0.31329 0.42443 0.0
Zn14 Zn 0.03815 0.72732 0.77071 0.0
Zn15 Zn 0.05248 0.7843 0.73239 0.0
O16 O 0.97828 0.79176 0.74544 0.0
O17 O 0.95963 0.73942 0.78475 0.0
O18 O 0.06946 0.84605 0.72374 0.0
O19 O 0.12722 0.75122 0.79382 0.0
O20 O 0.13268 0.81051 0.76352 0.0
C21 C 0.94487 0.7698 0.76518 0.0
C22 C 0.04908 0.69153 0.6618 0.0
O23 O 0.05085 0.73374 0.66103 0.0
O24 O 0.04088 0.67916 0.70223 0.0
C25 C 0.05331 0.8445 0.67817 0.0
O26 O 0.01528 0.80915 0.65131 0.0
C27 C 0.15586 0.78677 0.7825 0.0
Zn28 Zn 0.52392 0.86633 0.94189 0.0
Zn29 Zn 0.58596 0.88165 0.86163 0.0
O30 O 0.59373 0.94783 0.93039 0.0
O31 O 0.52964 0.92943 0.95988 0.0
O32 O 0.65845 0.86451 0.83728 0.0
O33 O 0.58429 0.8507 0.95777 0.0
O34 O 0.56586 0.81792 0.87872 0.0
C35 C 0.56717 0.95958 0.95932 0.0
C36 C 0.46971 0.86149 0.83195 0.0
O37 O 0.50688 0.86788 0.81335 0.0
O38 O 0.4754 0.85916 0.87782 0.0
C39 C 0.69829 0.86465 0.82278 0.0
O40 O 0.71925 0.90039 0.80569 0.0
C41 C 0.57206 0.81318 0.92375 0.0
Zn42 Zn 0.53866 0.22723 0.27006 0.0
Zn43 Zn 0.55358 0.28423 0.23191 0.0
O44 O 0.47977 0.29156 0.24335 0.0
O45 O 0.46012 0.23941 0.28272 0.0
O46 O 0.57 0.34595 0.22358 0.0
O47 O 0.62779 0.25155 0.29373 0.0
O48 O 0.63348 0.31088 0.26345 0.0
C49 C 0.44598 0.26976 0.26248 0.0
C50 C 0.54939 0.19158 0.16142 0.0
O51 O 0.55182 0.23395 0.16077 0.0
O52 O 0.54089 0.17911 0.20168 0.0
C53 C 0.55348 0.34447 0.17813 0.0
O54 O 0.51541 0.30908 0.15142 0.0
C55 C 0.65655 0.28719 0.28265 0.0
Zn56 Zn 0.15724 0.8457 0.08132 0.0
Zn57 Zn 0.10163 0.83128 0.11961 0.0
O58 O 0.09331 0.90652 0.10698 0.0
O59 O 0.14414 0.92529 0.06698 0.0
O60 O 0.04059 0.8145 0.12859 0.0
O61 O 0.13154 0.75525 0.05797 0.0
O62 O 0.07384 0.75013 0.08926 0.0
C63 C 0.11444 0.94035 0.08682 0.0
C64 C 0.19653 0.83527 0.19025 0.0
O65 O 0.1542 0.83261 0.19061 0.0
O66 O 0.20826 0.84436 0.14988 0.0
C67 C 0.04159 0.83099 0.17359 0.0
O68 O 0.07693 0.86895 0.20064 0.0
C69 C 0.09638 0.72633 0.0696 0.0
Zn70 Zn 0.46559 0.78883 0.51994 0.0
Zn71 Zn 0.52385 0.80285 0.48418 0.0
O72 O 0.54916 0.88234 0.52128 0.0
O73 O 0.48534 0.8738 0.54216 0.0
O74 O 0.58144 0.81687 0.46684 0.0
O75 O 0.49055 0.72064 0.54325 0.0
O76 O 0.54384 0.73432 0.50507 0.0
C77 C 0.52277 0.90361 0.53729 0.0
C78 C 0.42301 0.80035 0.41366 0.0
O79 O 0.46605 0.80406 0.4144 0.0
O80 O 0.41088 0.7886 0.45293 0.0
C81 C 0.57789 0.80848 0.42009 0.0
O82 O 0.53653 0.78445 0.38843 0.0
C83 C 0.52335 0.70582 0.53036 0.0
Zn84 Zn 0.65775 0.34577 0.58159 0.0
Zn85 Zn 0.60183 0.33095 0.61975 0.0
O86 O 0.59424 0.40608 0.60773 0.0
O87 O 0.64523 0.42555 0.56797 0.0
O88 O 0.54066 0.31469 0.62871 0.0
O89 O 0.632 0.25537 0.55794 0.0
O90 O 0.57411 0.24985 0.58901 0.0
C91 C 0.61543 0.44014 0.58804 0.0
C92 C 0.69651 0.33506 0.69028 0.0
O93 O 0.65418 0.33235 0.69062 0.0
O94 O 0.70838 0.34424 0.65002 0.0
C95 C 0.54146 0.33111 0.67368 0.0
O96 O 0.57675 0.36906 0.70087 0.0
C97 C 0.5968 0.22625 0.5693 0.0
Zn98 Zn 0.96508 0.28663 0.02022 0.0
Zn99 Zn 0.02155 0.30704 0.98239 0.0
O100 O 0.04895 0.38427 0.02025 0.0
O101 O 0.98578 0.37327 0.04294 0.0
O102 O 0.07981 0.319 0.96661 0.0
O103 O 0.9906 0.21607 0.04069 0.0
O104 O 0.03865 0.24002 -0.001 0.0
C105 C 0.02251 0.40419 0.03758 0.0
C106 C 0.92275 0.30154 0.91311 0.0
O107 O 0.966 0.30775 0.91358 0.0
O108 O 0.91112 0.28812 0.95206 0.0
C109 C 0.07741 0.30889 0.92018 0.0
O110 O 0.03633 0.28455 0.88804 0.0
C111 C 0.0231 0.20669 0.02137 0.0
Zn112 Zn 0.4866 0.96722 0.37506 0.0
Zn113 Zn 0.40919 0.04256 0.37578 0.0
O114 O 0.44765 0.05937 0.44569 0.0
O115 O 0.44447 0.98906 0.41225 0.0
O116 O 0.38476 0.08862 0.3601 0.0
O117 O 0.50416 0.00416 0.32262 0.0
O118 O 0.45474 0.0331 0.34299 0.0
C119 C 0.46297 0.02594 0.44759 0.0
C120 C 0.37067 0.94466 0.34029 0.0
O121 O 0.35843 0.97984 0.35073 0.0
O122 O 0.41347 0.94816 0.35217 0.0
C123 C 0.34317 0.07521 0.36468 0.0
O124 O 0.33097 0.04587 0.39294 0.0
C125 C 0.47154 0.01955 0.30836 0.0
Zn126 Zn 0.23203 0.27116 0.52721 0.0
Zn127 Zn 0.28288 0.22692 0.53187 0.0
O128 O 0.29579 0.2557 0.46442 0.0
O129 O 0.25483 0.30114 0.46336 0.0
O130 O 0.33886 0.21273 0.55023 0.0
O131 O 0.26134 0.30507 0.61028 0.0
O132 O 0.29906 0.25706 0.61105 0.0
C133 C 0.2835 0.28616 0.4441 0.0
C134 C 0.18377 0.16432 0.52026 0.0
O135 O 0.22543 0.16439 0.52429 0.0
O136 O 0.17677 0.20219 0.51456 0.0
C137 C 0.33706 0.17087 0.54171 0.0
O138 O 0.30626 0.13943 0.50187 0.0
C139 C 0.28613 0.2866 0.63652 0.0
Zn140 Zn 0.11405 0.15595 0.81881 0.0
Zn141 Zn 0.15545 0.10222 0.81726 0.0
O142 O 0.12366 0.08867 0.8816 0.0
O143 O 0.08188 0.13327 0.88104 0.0
O144 O 0.16961 0.04588 0.80191 0.0
O145 O 0.08007 0.12451 0.73628 0.0
O146 O 0.12614 0.08466 0.73813 0.0
C147 C 0.09357 0.1023 0.90007 0.0
C148 C 0.22045 0.20289 0.82708 0.0
O149 O 0.21794 0.16043 0.82552 0.0
O150 O 0.18366 0.21226 0.83153 0.0
C151 C 0.21094 0.0467 0.80905 0.0
O152 O 0.24402 0.07732 0.84782 0.0
C153 C 0.09751 0.0982 0.71148 0.0
Zn154 Zn 0.41964 0.89775 0.97776 0.0
Zn155 Zn 0.3439 0.9752 0.97655 0.0
O156 O 0.32923 0.94252 0.90404 0.0
O157 O 0.39623 0.94002 0.94155 0.0
O158 O 0.29648 0.99824 0.98932 0.0
O159 O 0.38462 0.87907 0.03082 0.0
O160 O 0.35207 0.9263 0.00819 0.0
C161 C 0.35932 0.9226 0.90577 0.0
C162 C 0.4408 0.01366 0.01611 0.0
O163 O 0.40541 0.02558 0.00524 0.0
O164 O 0.4383 0.97114 0.00285 0.0
C165 C 0.3081 0.04 0.98428 0.0
O166 O 0.3391 0.05444 0.95889 0.0
C167 C 0.36857 0.91125 0.04407 0.0
Zn168 Zn 0.40545 0.36775 0.07531 0.0
Zn169 Zn 0.34911 0.41101 0.0705 0.0
O170 O 0.32865 0.3806 0.99064 0.0
O171 O 0.37336 0.3387 0.99218 0.0
O172 O 0.29671 0.4362 0.06679 0.0
O173 O 0.3777 0.32758 0.13343 0.0
O174 O 0.33559 0.37115 0.13071 0.0
C175 C 0.34524 0.35397 0.96572 0.0
C176 C 0.45339 0.47373 0.07881 0.0
O177 O 0.41087 0.47008 0.07584 0.0
O178 O 0.46382 0.43788 0.08693 0.0
C179 C 0.30218 0.47351 0.05202 0.0
O180 O 0.34462 0.50015 0.05387 0.0
C181 C 0.34407 0.33739 0.14784 0.0
Zn182 Zn 0.69276 0.2312 0.10379 0.0
Zn183 Zn 0.78987 0.15841 0.12322 0.0
O184 O 0.79073 0.17385 0.05374 0.0
O185 O 0.75045 0.20839 0.09183 0.0
O186 O 0.83143 0.1242 0.14353 0.0
O187 O 0.73302 0.21138 0.15937 0.0
O188 O 0.80657 0.21829 0.18016 0.0
C189 C 0.75964 0.19271 0.05121 0.0
C190 C 0.69171 0.13006 0.10054 0.0
O191 O 0.72279 0.11169 0.10393 0.0
O192 O 0.70377 0.17268 0.12431 0.0
C193 C 0.81377 0.08135 0.11946 0.0
O194 O 0.7702 0.05764 0.11811 0.0
C195 C 0.77451 0.23447 0.18664 0.0
Zn196 Zn 0.17035 0.7054 0.25018 0.0
Zn197 Zn 0.22803 0.59987 0.23293 0.0
O198 O 0.2138 0.60109 0.30398 0.0
O199 O 0.19103 0.64841 0.26491 0.0
O200 O 0.25529 0.55308 0.20896 0.0
O201 O 0.16966 0.65985 0.18487 0.0
O202 O 0.16566 0.58635 0.18224 0.0
C203 C 0.19831 0.63474 0.30493 0.0
C204 C 0.26137 0.69709 0.24064 0.0
O205 O 0.2777 0.6647 0.2433 0.0
O206 O 0.21839 0.68466 0.21939 0.0
C207 C 0.29912 0.56765 0.22811 0.0
O208 O 0.32444 0.61014 0.22696 0.0
C209 C 0.14684 0.61563 0.16999 0.0
Zn210 Zn 0.90557 0.86879 0.57661 0.0
Zn211 Zn 0.84831 0.9108 0.57128 0.0
O212 O 0.82798 0.87999 0.49134 0.0
O213 O 0.87341 0.83888 0.49319 0.0
O214 O 0.79534 0.93502 0.56673 0.0
O215 O 0.88006 0.83173 0.63742 0.0
O216 O 0.83497 0.87271 0.63297 0.0
C217 C 0.84504 0.85378 0.4665 0.0
C218 C 0.95296 0.97399 0.579 0.0
O219 O 0.91037 0.9702 0.57614 0.0
O220 O 0.96355 0.93831 0.58729 0.0
C221 C 0.80127 0.97259 0.55223 0.0
O222 O 0.84391 0.99944 0.55498 0.0
C223 C 0.84689 0.84166 0.65267 0.0
Zn224 Zn 0.01467 0.9789 0.27318 0.0
Zn225 Zn 0.9721 0.03647 0.27694 0.0
O226 O 1.00273 0.05614 0.35687 0.0
O227 O 0.04495 0.01179 0.35632 0.0
O228 O 0.94822 0.09049 0.2826 0.0
O229 O 0.05188 0.00441 0.21277 0.0
O230 O 0.0106 0.04926 0.21542 0.0
C231 C 0.02948 0.03952 0.38228 0.0
C232 C 0.91004 0.93068 0.26995 0.0
O233 O 0.91353 0.9734 0.27207 0.0
O234 O 0.94553 0.92026 0.26199 0.0
C235 C 0.91267 0.08396 0.30037 0.0
O236 O 0.88788 0.04098 0.29976 0.0
C237 C 0.04195 0.03773 0.19674 0.0
Zn238 Zn 0.19261 0.7314 0.60435 0.0
Zn239 Zn 0.29008 0.6586 0.62365 0.0
O240 O 0.29079 0.67414 0.55415 0.0
O241 O 0.25039 0.70849 0.59227 0.0
O242 O 0.33201 0.62448 0.64326 0.0
O243 O 0.23347 0.71126 0.65894 0.0
O244 O 0.30694 0.71863 0.68096 0.0
C245 C 0.2597 0.69298 0.55163 0.0
C246 C 0.1918 0.63002 0.60076 0.0
O247 O 0.2229 0.61165 0.60421 0.0
O248 O 0.20402 0.67275 0.62427 0.0
C249 C 0.31459 0.58158 0.61932 0.0
O250 O 0.27088 0.55783 0.61743 0.0
C251 C 0.27457 0.73446 0.68705 0.0
Zn252 Zn 0.51671 0.48048 0.77325 0.0
Zn253 Zn 0.47267 0.53684 0.77665 0.0
O254 O 0.50275 0.55606 0.85671 0.0
O255 O 0.54568 0.51239 0.85658 0.0
O256 O 0.44741 0.58998 0.78206 0.0
O257 O 0.55649 0.50955 0.71507 0.0
O258 O 0.51316 0.55197 0.71668 0.0
C259 C 0.52971 0.53975 0.88233 0.0
C260 C 0.41093 0.43101 0.76927 0.0
O261 O 0.41405 0.47357 0.77108 0.0
O262 O 0.4469 0.42113 0.76179 0.0
C263 C 0.41214 0.58346 0.80027 0.0
O264 O 0.3878 0.54052 0.80027 0.0
C265 C 0.54685 0.54356 0.70006 0.0
Zn266 Zn 0.67167 0.20541 0.75079 0.0
Zn267 Zn 0.72811 0.09989 0.73336 0.0
O268 O 0.71368 0.10082 0.80427 0.0
O269 O 0.69133 0.14827 0.76519 0.0
O270 O 0.75525 0.05316 0.70886 0.0
O271 O 0.66751 0.1599 0.68382 0.0
O272 O 0.66606 0.08695 0.68284 0.0
C273 C 0.6984 0.1346 0.80518 0.0
C274 C 0.76146 0.19688 0.74035 0.0
O275 O 0.77769 0.16451 0.74358 0.0
O276 O 0.71859 0.18453 0.71875 0.0
C277 C 0.79907 0.06774 0.72807 0.0
O278 O 0.82442 0.11011 0.7266 0.0
C279 C 0.64648 0.11532 0.6694 0.0
Zn280 Zn 0.73096 0.77158 0.02952 0.0
Zn281 Zn 0.78211 0.72802 0.03345 0.0
O282 O 0.79539 0.75839 0.96829 0.0
O283 O 0.7541 0.80348 0.96769 0.0
O284 O 0.83867 0.71527 0.04992 0.0
O285 O 0.76125 0.80532 0.11195 0.0
O286 O 0.79852 0.75689 0.11232 0.0
C287 C 0.78333 0.78926 0.94887 0.0
C288 C 0.68335 0.66398 0.02047 0.0
O289 O 0.72524 0.66482 0.0246 0.0
O290 O 0.67583 0.70175 0.01517 0.0
C291 C 0.83776 0.67381 0.04264 0.0
O292 O 0.80652 0.64098 0.00413 0.0
C293 C 0.78598 0.78664 0.13784 0.0
Zn294 Zn 0.9864 0.46742 0.8744 0.0
Zn295 Zn 0.90914 0.54247 0.87557 0.0
O296 O 0.94823 0.55998 0.94529 0.0
O297 O 0.94455 0.4895 0.91179 0.0
O298 O 0.88447 0.58785 0.85947 0.0
O299 O 1.00405 0.50477 0.82233 0.0
O300 O 0.95339 0.53228 0.84161 0.0
C301 C 0.96343 0.52646 0.94701 0.0
C302 C 0.87054 0.44445 0.83993 0.0
O303 O 0.85847 0.47969 0.85069 0.0
O304 O 0.91326 0.44768 0.85162 0.0
C305 C 0.84307 0.57335 0.86444 0.0
O306 O 0.83214 0.54523 0.89424 0.0
C307 C 0.9712 0.51971 0.80759 0.0
Zn308 Zn 0.91945 0.39792 0.47716 0.0
Zn309 Zn 0.84365 0.47459 0.47542 0.0
O310 O 0.82874 0.44159 0.40256 0.0
O311 O 0.89613 0.44025 0.4404 0.0
O312 O 0.7967 0.49816 0.48923 0.0
O313 O 0.88453 0.37873 0.53014 0.0
O314 O 0.85205 0.42585 0.50723 0.0
C315 C 0.85942 0.42237 0.40439 0.0
C316 C 0.94089 0.5134 0.51577 0.0
O317 O 0.90527 0.52488 0.50441 0.0
O318 O 0.93901 0.47111 0.50253 0.0
C319 C 0.80856 0.54009 0.48471 0.0
O320 O 0.8394 0.55449 0.45908 0.0
C321 C 0.86839 0.41084 0.54323 0.0
Zn322 Zn 0.61428 0.65565 0.31957 0.0
Zn323 Zn 0.65584 0.60242 0.31733 0.0
O324 O 0.62559 0.58854 0.3825 0.0
O325 O 0.58309 0.6324 0.38271 0.0
O326 O 0.66966 0.5461 0.3017 0.0
O327 O 0.58 0.62439 0.2367 0.0
O328 O 0.6263 0.58483 0.23806 0.0
C329 C 0.59561 0.60174 0.40162 0.0
C330 C 0.7206 0.70275 0.32695 0.0
O331 O 0.71824 0.66034 0.32533 0.0
O332 O 0.68381 0.71203 0.33166 0.0
C333 C 0.71093 0.54678 0.30923 0.0
O334 O 0.74392 0.57751 0.34801 0.0
C335 C 0.59746 0.59828 0.21159 0.0
Eu336 Eu 0.14108 0.12144 0.0773 0.0
C337 C 0.97539 0.90306 0.96436 0.0
N338 N 0.97559 0.96792 0.92825 0.0
C339 C 0.90733 0.88249 0.84232 0.0
C340 C 0.94533 0.85006 0.92723 0.0
C341 C 0.93638 0.95412 0.87113 0.0
C342 C 0.91239 0.84158 0.87274 0.0
C343 C 0.93155 0.85699 0.02517 0.0
C344 C 0.96354 0.90065 0.02095 0.0
C345 C 0.92064 0.81396 0.99084 0.0
C346 C 0.93288 0.81067 0.94588 0.0
Eu347 Eu 0.0091 0.0434 0.02634 0.0
N348 N 0.96546 0.94384 0.05812 0.0
C349 C 0.90512 0.85655 0.06131 0.0
C350 C 0.93912 0.94088 0.09252 0.0
C351 C 0.9087 0.89759 0.09421 0.0
H352 H 0.92943 0.98062 0.85293 0.0
H353 H 0.88664 0.89587 0.12041 0.0
H354 H 0.20401 0.24155 0.23588 0.0
H355 H 0.24642 0.22043 0.96598 0.0
H356 H 0.93912 0.97265 0.11629 0.0
H357 H 0.8794 0.82389 0.06275 0.0
H358 H 0.20534 0.15687 -0.00061 0.0
H359 H 0.89239 0.86519 0.80338 0.0
H360 H 0.89802 0.78164 -0.0033 0.0
H361 H 0.91821 0.77607 0.9194 0.0
H362 H 0.14983 0.28055 0.24316 0.0
H363 H 0.88359 0.80919 0.86496 0.0
H364 H 0.26539 0.3031 0.00891 0.0
N365 N 0.19094 0.22659 0.15232 0.0
C366 C 0.20277 0.26122 0.13171 0.0
C367 C 0.16584 0.2777 0.21171 0.0
C368 C 0.20684 0.30857 0.15525 0.0
C369 C 0.18384 0.2428 0.20072 0.0
C370 C 0.1835 0.31535 0.19277 0.0
N371 N 0.19821 0.19957 0.06438 0.0
C372 C 0.21326 0.19192 0.02124 0.0
C373 C 0.23452 0.28584 0.069 0.0
C374 C 0.21116 0.24794 0.08804 0.0
C375 C 0.24779 0.27541 0.02524 0.0
C376 C 0.23712 0.22863 0.00131 0.0
H377 H 0.17966 0.34852 0.20706 0.0
H378 H 0.23498 0.38134 0.15516 0.0
H379 H 0.25784 0.36112 0.07599 0.0
O380 O 0.17652 0.08942 0.02837 0.0
O381 O 0.06156 0.13218 0.04249 0.0
O382 O 0.05474 0.1291 0.03982 0.0
O383 O 0.18402 0.08 0.10476 0.0
O384 O 0.12081 0.11329 0.99111 0.0
O385 O 0.04124 0.06678 0.95696 0.0
O386 O 0.96603 0.07011 0.06895 0.0
O387 O 0.09026 0.02814 0.06725 0.0
O388 O 0.09991 0.03267 0.07251 0.0
O389 O 0.9422 0.04632 0.9858 0.0
O390 O 0.0192 0.04969 0.11208 0.0
O391 O 0.10063 0.07788 0.14311 0.0
C392 C 0.05829 0.17526 0.03798 0.0
C393 C 0.24527 0.07693 0.0674 0.0
C394 C 0.3058 0.07301 0.02615 0.0
C395 C 0.33654 0.07852 0.07292 0.0
C396 C 0.2729 0.07358 0.11214 0.0
C397 C 0.31935 0.07643 0.11534 0.0
C398 C 0.262 0.07626 0.0241 0.0
C399 C 0.08377 0.09246 0.95157 0.0
C400 C 0.19647 0.07289 0.06289 0.0
C401 C 0.22955 0.34516 0.13718 0.0
C402 C 0.24252 0.33343 0.09283 0.0
C403 C 0.0913 0.98509 0.07727 0.0
C404 C 0.88921 0.07028 0.03037 0.0
C405 C 0.82798 0.0718 0.07292 0.0
C406 C 0.79725 0.06707 0.02651 0.0
C407 C 0.85921 0.06873 0.98516 0.0
C408 C 0.87388 0.07321 0.07503 0.0
C409 C 0.81267 0.06509 0.98281 0.0
C410 C 0.05606 0.05573 0.14866 0.0
C411 C 0.93241 0.06059 0.02824 0.0
H412 H 0.37065 0.07553 0.07462 0.0
H413 H 0.2577 0.06774 0.14351 0.0
H414 H 0.34181 0.07401 0.14898 0.0
H415 H 0.23848 0.07117 0.98733 0.0
H416 H 0.76183 0.06644 0.02428 0.0
H417 H 0.87258 0.06911 0.95201 0.0
H418 H 0.89692 0.07549 0.111 0.0
H419 H 0.78751 0.06043 0.94776 0.0
Eu420 Eu 0.27889 0.824 0.36097 0.0
C421 C 0.37482 0.73145 0.1754 0.0
N422 N 0.38771 0.76604 0.21973 0.0
C423 C 0.4668 0.77093 0.23183 0.0
C424 C 0.40756 0.7142 0.15885 0.0
C425 C 0.43238 0.782 0.25014 0.0
C426 C 0.45447 0.73899 0.18468 0.0
C427 C 0.31263 0.66268 0.09596 0.0
C428 C 0.33176 0.71813 0.14258 0.0
C429 C 0.34875 0.64788 0.08797 0.0
C430 C 0.3951 0.67666 0.1149 0.0
Eu431 Eu 0.34019 0.81032 0.2383 0.0
N432 N 0.30255 0.75214 0.1533 0.0
C433 C 0.25295 0.63785 0.05298 0.0
C434 C 0.25229 0.75054 0.12309 0.0
C435 C 0.21335 0.70306 0.07437 0.0
H436 H 0.44404 0.81046 0.28373 0.0
H437 H 0.17814 0.70308 0.06506 0.0
H438 H 0.17035 0.81813 0.31805 0.0
H439 H 0.44255 0.93497 0.54905 0.0
H440 H 0.23978 0.77858 0.13244 0.0
H441 H 0.24036 0.60512 0.02376 0.0
H442 H 0.39532 0.90907 0.49334 0.0
H443 H 0.50293 0.79037 0.25244 0.0
H444 H 0.34212 0.61815 0.05666 0.0
H445 H 0.42285 0.66941 0.10098 0.0
H446 H 0.11281 0.83511 0.35622 0.0
H447 H 0.48148 0.73439 0.16747 0.0
H448 H 0.35477 1.00002 0.58838 0.0
N449 N 0.22919 0.86652 0.37743 0.0
C450 C 0.24304 0.90013 0.4226 0.0
C451 C 0.14924 0.85685 0.37282 0.0
C452 C 0.20997 0.91694 0.44059 0.0
C453 C 0.18284 0.84744 0.35105 0.0
C454 C 0.16302 0.89137 0.41787 0.0
N455 N 0.32082 0.88633 0.43728 0.0
C456 C 0.37297 0.89006 0.46214 0.0
C457 C 0.29807 0.95294 0.51041 0.0
C458 C 0.28679 0.91129 0.45527 0.0
C459 C 0.34982 0.97249 0.55467 0.0
C460 C 0.40566 0.931 0.52375 0.0
H461 H 0.13731 0.89632 0.43716 0.0
H462 H 0.19494 0.96514 0.49572 0.0
H463 H 0.27345 1.00208 0.55016 0.0
O464 O 0.28188 0.77048 0.40334 0.0
O465 O 0.3404 0.87788 0.36037 0.0
O466 O 0.32999 0.87692 0.2768 0.0
O467 O 0.23035 0.80512 0.40644 0.0
O468 O 0.34451 0.80343 0.38256 0.0
O469 O 0.39109 0.82187 0.32585 0.0
O470 O 0.33588 0.85763 0.18955 0.0
O471 O 0.32614 0.75845 0.28284 0.0
O472 O 0.25826 0.76636 0.28881 0.0
O473 O 0.39839 0.83867 0.20631 0.0
O474 O 0.26551 0.81302 0.2154 0.0
O475 O 0.23243 0.83006 0.28225 0.0
C476 C 0.33796 0.89889 0.32456 0.0
C477 C 0.23272 0.75446 0.46079 0.0
C478 C 0.23042 0.69464 0.50523 0.0
C479 C 0.18583 0.6932 0.50917 0.0
C480 C 0.19402 0.76058 0.47639 0.0
C481 C 0.17041 0.7294 0.50073 0.0
C482 C 0.25197 0.7224 0.47651 0.0
C483 C 0.38523 0.80926 0.37073 0.0
C484 C 0.25049 0.77868 0.42505 0.0
C485 C 0.22175 0.95381 0.48426 0.0
C486 C 0.26588 0.97364 0.51698 0.0
C487 C 0.28274 0.73943 0.27975 0.0
C488 C 0.39335 0.8844 0.14467 0.0
C489 C 0.39195 0.9409 0.09548 0.0
C490 C 0.44036 0.95201 0.10283 0.0
C491 C 0.43387 0.88149 0.13104 0.0
C492 C 0.37349 0.91665 0.12908 0.0
C493 C 0.45862 0.91673 0.11106 0.0
C494 C 0.23257 0.82528 0.23242 0.0
C495 C 0.37456 0.85749 0.17842 0.0
H496 H 0.16727 0.66987 0.52813 0.0
H497 H 0.18019 0.78707 0.4668 0.0
H498 H 0.13987 0.73254 0.51201 0.0
H499 H 0.28547 0.72232 0.47063 0.0
H500 H 0.46091 0.9816 0.09198 0.0
H501 H 0.44838 0.85528 0.14001 0.0
H502 H 0.34004 0.91653 0.13529 0.0
H503 H 0.49098 0.9165 0.1024 0.0
Eu504 Eu 0.506 0.06569 0.59536 0.0
C505 C 0.62689 0.13977 0.45612 0.0
N506 N 0.59326 0.09734 0.44833 0.0
C507 C 0.56748 0.09386 0.35777 0.0
C508 C 0.6208 0.16545 0.40475 0.0
C509 C 0.57355 0.07236 0.39874 0.0
C510 C 0.5825 0.14176 0.36462 0.0
C511 C 0.741 0.18426 0.49909 0.0
C512 C 0.67933 0.1441 0.49838 0.0
C513 C 0.74595 0.20096 0.44564 0.0
C514 C 0.66876 0.19729 0.38716 0.0
Eu515 Eu 0.60498 0.05948 0.51532 0.0
N516 N 0.67061 0.12197 0.54286 0.0
C517 C 0.78122 0.21271 0.56079 0.0
C518 C 0.69623 0.13001 0.59863 0.0
C519 C 0.7476 0.1708 0.62751 0.0
H520 H 0.56758 0.03531 0.39043 0.0
H521 H 0.76108 0.18533 0.61783 0.0
H522 H 0.58972 0.06101 0.69812 0.0
H523 H 0.35399 0.96825 0.44247 0.0
H524 H 0.69018 0.09935 0.61258 0.0
H525 H 0.81302 0.24245 0.56473 0.0
H526 H 0.42069 0.04045 0.51067 0.0
H527 H 0.55637 0.07388 0.31853 0.0
H528 H 0.78279 0.21709 0.44628 0.0
H529 H 0.66177 0.21513 0.35807 0.0
H530 H 0.61161 0.99874 0.75002 0.0
H531 H 0.57818 0.15541 0.33105 0.0
H532 H 0.30708 0.86316 0.51291 0.0
N533 N 0.50569 0.02812 0.66512 0.0
C534 C 0.45246 0.98879 0.66706 0.0
C535 C 0.57504 0.992 0.73325 0.0
C536 C 0.46565 0.93002 0.72103 0.0
C537 C 0.56075 0.03139 0.69392 0.0
C538 C 0.531 0.94336 0.74707 0.0
N539 N 0.43174 0.00755 0.57677 0.0
C540 C 0.41106 0.00861 0.52119 0.0
C541 C 0.37075 0.91443 0.58912 0.0
C542 C 0.41711 0.97306 0.61298 0.0
C543 C 0.33427 0.89811 0.52724 0.0
C544 C 0.3655 0.96465 0.48107 0.0
H545 H 0.54301 0.91951 0.76508 0.0
H546 H 0.45404 0.9063 0.71719 0.0
H547 H 0.38854 0.87282 0.63435 0.0
O548 O 0.46397 0.10531 0.57065 0.0
O549 O 0.51292 0.98686 0.57023 0.0
O550 O 0.5667 0.98257 0.5222 0.0
O551 O 0.48043 0.10268 0.65098 0.0
O552 O 0.52602 0.06639 0.52232 0.0
O553 O 0.53686 0.02009 0.46085 0.0
O554 O 0.6622 0.03456 0.5394 0.0
O555 O 0.60533 0.1412 0.5421 0.0
O556 O 0.54705 0.14395 0.58315 0.0
O557 O 0.63883 0.03287 0.45906 0.0
O558 O 0.59547 0.05945 0.5942 0.0
O559 O 0.57256 0.10744 0.64436 0.0
C560 C 0.53453 0.96082 0.54462 0.0
C561 C 0.41452 0.12333 0.61917 0.0
C562 C 0.35855 0.15611 0.58429 0.0
C563 C 0.35153 0.16853 0.63294 0.0
C564 C 0.4051 0.13236 0.66681 0.0
C565 C 0.37334 0.15479 0.67353 0.0
C566 C 0.38872 0.13227 0.57721 0.0
C567 C 0.50762 0.03407 0.4799 0.0
C568 C 0.45853 0.11786 0.61606 0.0
C569 C 0.4273 0.87725 0.69119 0.0
C570 C 0.37349 0.87335 0.6113 0.0
C571 C 0.58219 0.16736 0.56361 0.0
C572 C 0.70439 0.00585 0.48378 0.0
C573 C 0.76442 0.97389 0.51172 0.0
C574 C 0.76912 0.96429 0.46188 0.0
C575 C 0.71406 1.0017 0.43587 0.0
C576 C 0.73126 0.9935 0.52256 0.0
C577 C 0.74557 0.98006 0.42478 0.0
C578 C 0.60582 0.09838 0.62911 0.0
C579 C 0.66827 0.0253 0.49405 0.0
H580 H 0.3286 0.18792 0.63925 0.0
H581 H 0.42449 0.12504 0.69949 0.0
H582 H 0.36683 0.16277 0.71053 0.0
H583 H 0.39553 0.1253 0.54002 0.0
H584 H 0.79416 0.9484 0.45286 0.0
H585 H 0.69624 0.0139 0.40641 0.0
H586 H 0.72782 1.00075 0.56124 0.0
H587 H 0.7522 0.97616 0.38749 0.0
Eu588 Eu 0.36065 0.28272 0.80513 0.0
C589 C 0.22338 0.37496 0.69039 0.0
N590 N 0.25982 0.39769 0.73317 0.0
C591 C 0.28734 0.46086 0.69306 0.0
C592 C 0.2205 0.39218 0.64571 0.0
C593 C 0.2887 0.44244 0.73593 0.0
C594 C 0.25441 0.43483 0.64732 0.0
C595 C 0.13985 0.3139 0.64209 0.0
C596 C 0.1902 0.33345 0.69034 0.0
C597 C 0.14283 0.33254 0.60018 0.0
C598 C 0.18334 0.36897 0.60109 0.0
Eu599 Eu 0.26969 0.3532 0.79724 0.0
N600 N 0.20631 0.30564 0.72901 0.0
C601 C 0.09927 0.2593 0.63242 0.0
C602 C 0.1845 0.2547 0.73534 0.0
C603 C 0.13338 0.21711 0.69842 0.0
H604 H 0.31206 0.46551 0.77148 0.0
H605 H 0.12115 0.18244 0.70367 0.0
H606 H 0.31754 0.17295 0.83752 0.0
H607 H 0.5086 0.45388 0.88933 0.0
H608 H 0.19576 0.24471 0.7666 0.0
H609 H 0.06833 0.24644 0.60003 0.0
H610 H 0.43753 0.38737 0.82694 0.0
H611 H 0.31106 0.49581 0.69575 0.0
H612 H 0.11489 0.31679 0.56526 0.0
H613 H 0.18389 0.38197 0.56706 0.0
H614 H 0.32328 0.14462 0.9142 0.0
H615 H 0.25337 0.44968 0.61446 0.0
H616 H 0.56403 0.39423 -0.00352 0.0
N617 N 0.37071 0.24136 0.87252 0.0
C618 C 0.40807 0.26513 0.91426 0.0
C619 C 0.34626 0.17942 0.91531 0.0
C620 C 0.41303 0.24902 0.95965 0.0
C621 C 0.3424 0.19687 0.87179 0.0
C622 C 0.38037 0.20633 0.95985 0.0
N623 N 0.42338 0.33232 0.87202 0.0
C624 C 0.44466 0.38212 0.86253 0.0
C625 C 0.49156 0.32736 0.95948 0.0
C626 C 0.44045 0.30635 0.91232 0.0
C627 C 0.53192 0.38104 0.96572 0.0
C628 C 0.49604 0.42049 0.89751 0.0
H629 H 0.38301 0.19234 0.99329 0.0
H630 H 0.45098 0.26217 0.03847 0.0
H631 H 0.51786 0.32825 0.03751 0.0
O632 O 0.4163 0.30709 0.76979 0.0
O633 O 0.34936 0.31148 0.88372 0.0
O634 O 0.31633 0.3696 0.88084 0.0
O635 O 0.3993 0.23646 0.78297 0.0
O636 O 0.36262 0.35451 0.79172 0.0
O637 O 0.33771 0.41184 0.80053 0.0
O638 O 0.21298 0.32549 0.83254 0.0
O639 O 0.28067 0.32672 0.7185 0.0
O640 O 0.31521 0.26967 0.72093 0.0
O641 O 0.23125 0.39724 0.82175 0.0
O642 O 0.26915 0.28077 0.80828 0.0
O643 O 0.29402 0.22301 0.79896 0.0
C644 C 0.33488 0.34371 0.90667 0.0
C645 C 0.46421 0.26522 0.74448 0.0
C646 C 0.52054 0.29603 0.69885 0.0
C647 C 0.53357 0.2562 0.69709 0.0
C648 C 0.47914 0.22694 0.7455 0.0
C649 C 0.51323 0.22204 0.72096 0.0
C650 C 0.48601 0.30055 0.72219 0.0
C651 C 0.36775 0.39661 0.78276 0.0
C652 C 0.42646 0.26926 0.76699 0.0
C653 C 0.45044 0.27393 0.00362 0.0
C654 C 0.48961 0.31106 0.00307 0.0
C655 C 0.29604 0.29555 0.69544 0.0
C656 C 0.16619 0.3705 0.85873 0.0
C657 C 0.10888 0.34524 0.90486 0.0
C658 C 0.10126 0.38791 0.909 0.0
C659 C 0.15264 0.40947 0.85539 0.0
C660 C 0.14263 0.33705 0.88194 0.0
C661 C 0.12162 0.41904 0.88233 0.0
C662 C 0.26372 0.23803 0.81595 0.0
C663 C 0.20352 0.36402 0.83662 0.0
H664 H 0.5601 0.25202 0.6783 0.0
H665 H 0.46394 0.20054 0.76457 0.0
H666 H 0.52396 0.19186 0.72059 0.0
H667 H 0.47568 0.33105 0.72197 0.0
H668 H 0.07647 0.39521 0.92903 0.0
H669 H 0.16766 0.4337 0.83396 0.0
H670 H 0.1495 0.30457 0.88123 0.0
H671 H 0.11297 0.45032 0.88201 0.0
Eu672 Eu 0.09946 0.02475 0.54427 0.0
C673 C 0.01055 0.15991 0.65509 0.0
N674 N 0.98743 0.12459 0.61159 0.0
C675 C 0.92429 0.09617 0.65086 0.0
C676 C 0.99345 0.16176 0.69954 0.0
C677 C 0.94238 0.09615 0.60807 0.0
C678 C 0.95067 0.12785 0.69717 0.0
C679 C 0.07139 0.2429 0.70433 0.0
C680 C 0.05245 0.19289 0.65623 0.0
C681 C 0.05343 0.23878 0.74624 0.0
C682 C 0.01721 0.19784 0.74481 0.0
Eu683 Eu 0.03285 0.11466 0.54881 0.0
N684 N 0.08035 0.17774 0.61779 0.0
C685 C 0.12498 0.28469 0.7139 0.0
C686 C 0.1308 0.20106 0.6115 0.0
C687 C 0.16751 0.25272 0.64834 0.0
H688 H 0.91914 0.07375 0.57211 0.0
H689 H 0.20161 0.26655 0.64258 0.0
H690 H 0.20655 0.07152 0.51556 0.0
H691 H 0.93016 0.87461 0.45797 0.0
H692 H 0.14102 0.19117 0.58011 0.0
H693 H 0.13721 0.31571 0.74585 0.0
H694 H 0.99355 0.94686 0.51938 0.0
H695 H 0.88926 0.07259 0.64765 0.0
H696 H 0.0694 0.26622 0.7814 0.0
H697 H 1.00453 0.19638 0.77871 0.0
H698 H 0.23806 0.06573 0.44043 0.0
H699 H 0.93604 0.12808 0.72985 0.0
H700 H 0.99165 0.82059 0.35445 0.0
N701 N 0.14122 0.01562 0.47894 0.0
C702 C 0.11844 0.97825 0.43717 0.0
C703 C 0.2036 0.04193 0.43858 0.0
C704 C 0.13516 0.97413 0.39267 0.0
C705 C 0.18501 0.04541 0.48103 0.0
C706 C 0.17779 0.00752 0.39374 0.0
N707 N 0.05043 0.96202 0.47683 0.0
C708 C 1.00067 0.93965 0.48512 0.0
C709 C 0.05736 0.89427 0.39153 0.0
C710 C 0.07716 0.94553 0.43794 0.0
C711 C 1.00429 0.85276 0.38485 0.0
C712 C 0.96363 0.88772 0.4507 0.0
H713 H 0.19237 0.00552 0.36105 0.0
H714 H 0.12274 0.93705 0.31404 0.0
H715 H 0.05703 0.869 0.3139 0.0
O716 O 0.07567 0.96798 0.57877 0.0
O717 O 0.074 0.03758 0.46505 0.0
O718 O 0.01251 0.06454 0.46704 0.0
O719 O 0.14658 0.98657 0.56734 0.0
O720 O 0.02844 0.02019 0.55747 0.0
O721 O 0.97282 0.04714 0.54537 0.0
O722 O 0.05705 0.17021 0.51129 0.0
O723 O 0.05928 0.10404 0.62829 0.0
O724 O 0.11429 0.06794 0.6286 0.0
O725 O 0.98755 0.15418 0.52558 0.0
O726 O 0.10144 0.12545 0.51999 0.0
O727 O 0.15496 0.09583 0.55732 0.0
C728 C 0.03969 0.04924 0.44127 0.0
C729 C 0.11819 0.92067 0.60581 0.0
C730 C 0.08815 0.86486 0.65288 0.0
C731 C 0.1277 0.85156 0.65532 0.0
C732 C 0.15609 0.90539 0.60524 0.0
C733 C 0.16135 0.87152 0.63099 0.0
C734 C 0.08344 0.89924 0.62853 0.0
C735 C 0.98707 0.01708 0.56535 0.0
C736 C 0.11395 0.95867 0.58284 0.0
C737 C 0.11071 0.93695 0.34843 0.0
C738 C 0.07384 0.89709 0.3484 0.0
C739 C 0.0891 0.0879 0.65282 0.0
C740 C 0.01611 0.22037 0.48697 0.0
C741 C 0.03697 0.27305 0.43254 0.0
C742 C 0.99125 0.27342 0.42339 0.0
C743 C 0.97705 0.23337 0.4889 0.0
C744 C 0.04909 0.24434 0.46297 0.0
C745 C 0.96408 0.25908 0.45602 0.0
C746 C 0.14494 0.12433 0.53037 0.0
C747 C 0.01945 0.18073 0.50819 0.0
H748 H 0.13205 0.82515 0.67495 0.0
H749 H 0.18209 0.92039 0.58589 0.0
H750 H 0.19145 0.86078 0.63206 0.0
H751 H 0.0532 0.90981 0.62841 0.0
H752 H 0.97886 0.28993 0.39542 0.0
H753 H 0.95396 0.2198 0.51192 0.0
H754 H 0.08306 0.24056 0.46739 0.0
H755 H 0.93209 0.26637 0.45451 0.0
Eu756 Eu 0.31473 0.87541 0.75554 0.0
C757 C 0.24457 0.75727 0.89959 0.0
N758 N 0.28621 0.79127 0.9061 0.0
C759 C 0.29203 0.81781 -0.00349 0.0
C760 C 0.21952 0.76414 0.95081 0.0
C761 C 0.31229 0.81159 0.95514 0.0
C762 C 0.24432 0.80261 0.99046 0.0
C763 C 0.20024 0.64262 0.85994 0.0
C764 C 0.23976 0.70429 0.85857 0.0
C765 C 0.18389 0.63856 0.91264 0.0
C766 C 0.18738 0.71607 0.96914 0.0
Eu767 Eu 0.3204 0.77806 0.83806 0.0
N768 N 0.25979 0.71272 0.8127 0.0
C769 C 0.16971 0.6012 0.79982 0.0
C770 C 0.25046 0.687 0.75684 0.0
C771 C 0.20909 0.63539 0.7297 0.0
H772 H 0.34915 0.81755 0.96256 0.0
H773 H 0.2073 0.61944 0.69081 0.0
H774 H 0.3202 0.79243 0.65366 0.0
H775 H 0.42126 0.03387 0.91768 0.0
H776 H 0.28105 0.68955 0.74431 0.0
H777 H 0.14203 0.56811 0.79693 0.0
H778 H 0.39423 0.99313 0.85771 0.0
H779 H 0.31288 0.82919 0.03552 0.0
H780 H 0.168 0.60157 0.9125 0.0
H781 H 0.17039 0.72314 -0.0016 0.0
H782 H 0.38544 0.76984 0.61062 0.0
H783 H 0.23169 0.80724 0.02432 0.0
H784 H 0.51647 0.07745 0.83639 0.0
N785 N 0.35346 0.87574 0.68819 0.0
C786 C 0.39235 0.92906 0.68532 0.0
C787 C 0.39257 0.80654 0.62725 0.0
C788 C 0.45232 0.91535 0.63524 0.0
C789 C 0.35174 0.82066 0.6629 0.0
C790 C 0.44074 0.85026 0.61246 0.0
N791 N 0.37497 0.94861 0.77561 0.0
C792 C 0.37317 0.96708 0.83107 0.0
C793 C 0.46515 0.01258 0.7624 0.0
C794 C 0.40783 0.965 0.73922 0.0
C795 C 0.48186 0.04965 0.82323 0.0
C796 C 0.41824 0.01718 0.87294 0.0
H797 H 0.45361 0.88632 0.61988 0.0
H798 H 0.53279 0.94802 0.65055 0.0
H799 H 0.50789 0.99346 0.72043 0.0
O800 O 0.28529 0.92593 0.785 0.0
O801 O 0.39379 0.87328 0.78404 0.0
O802 O 0.39188 0.81289 0.8248 0.0
O803 O 0.28488 0.90889 0.70311 0.0
O804 O 0.31401 0.86058 0.83197 0.0
O805 O 0.36271 0.84706 0.89047 0.0
O806 O 0.34786 0.72299 0.8134 0.0
O807 O 0.23961 0.77785 0.81099 0.0
O808 O 0.23647 0.83473 0.766 0.0
O809 O 0.34772 0.74247 0.89322 0.0
O810 O 0.32012 0.79266 0.76152 0.0
O811 O 0.2711 0.80793 0.70426 0.0
C812 C 0.41555 0.8466 0.80598 0.0
C813 C 0.25626 0.9694 0.73162 0.0
C814 C 0.22298 0.02401 0.76576 0.0
C815 C 0.2111 0.03238 0.71728 0.0
C816 C 0.24746 0.9794 0.68389 0.0
C817 C 0.22475 0.0111 0.67688 0.0
C818 C 0.24591 0.99315 0.77277 0.0
C819 C 0.34914 0.87765 0.87242 0.0
C820 C 0.27739 0.93547 0.74043 0.0
C821 C 0.50499 0.95463 0.66644 0.0
C822 C 0.50676 0.0092 0.74297 0.0
C823 C 0.21377 0.80063 0.78756 0.0
C824 C 0.3773 0.67888 0.86804 0.0
C825 C 0.41151 0.6207 0.84061 0.0
C826 C 0.42106 0.61506 0.89042 0.0
C827 C 0.38126 0.66759 0.91549 0.0
C828 C 0.39107 0.65378 0.82968 0.0
C829 C 0.40411 0.63678 0.92692 0.0
C830 C 0.28328 0.77686 0.72285 0.0
C831 C 0.35665 0.71489 0.85814 0.0
H832 H 0.19292 0.05648 0.71119 0.0
H833 H 0.25759 0.96258 0.65236 0.0
H834 H 0.21809 0.01939 0.64039 0.0
H835 H 0.25441 0.98689 0.81038 0.0
H836 H 0.43753 0.59023 0.89969 0.0
H837 H 0.36841 0.68409 0.94466 0.0
H838 H 0.38386 0.65815 0.79117 0.0
H839 H 0.40797 0.62921 0.96399 0.0
Eu840 Eu 0.55984 0.10717 0.99163 0.0
C841 C 0.65276 0.0131 0.18277 0.0
N842 N 0.61818 1.00176 0.13837 0.0
C843 C 0.61456 0.92256 0.12252 0.0
C844 C 0.67143 0.97986 0.19674 0.0
C845 C 0.60232 0.95793 0.10642 0.0
C846 C 0.64751 0.93334 0.16902 0.0
C847 C 0.7196 0.07326 0.26178 0.0
C848 C 0.6655 0.0552 0.2174 0.0
C849 C 0.73685 0.0379 0.26808 0.0
C850 C 0.7099 0.99158 0.2398 0.0
Eu851 Eu 0.57487 0.05115 0.1222 0.0
N852 N 0.63209 0.08369 0.20736 0.0
C853 C 0.74323 0.13033 0.30319 0.0
C854 C 0.63352 0.132 0.23664 0.0
C855 C 0.67953 0.16863 0.28305 0.0
H856 H 0.57415 0.94777 0.07248 0.0
H857 H 0.67947 0.20394 0.29155 0.0
H858 H 0.56557 0.21528 0.03038 0.0
H859 H 0.45194 0.94462 0.81231 0.0
H860 H 0.60526 0.1444 0.22686 0.0
H861 H 0.77668 0.14301 0.33162 0.0
H862 H 0.51608 0.9951 0.90408 0.0
H863 H 0.59554 0.8868 0.10057 0.0
H864 H 0.76763 0.04485 0.2986 0.0
H865 H 0.71925 0.96367 0.25187 0.0
H866 H 0.54989 0.27236 0.98856 0.0
H867 H 0.65313 0.90539 0.18446 0.0
H868 H 0.37828 0.02518 0.76441 0.0
N869 N 0.51695 0.15599 0.97206 0.0
C870 C 0.48316 0.14137 0.92655 0.0
C871 C 0.52753 0.23589 0.97329 0.0
C872 C 0.4668 0.1744 0.90662 0.0
C873 C 0.53608 0.20263 -0.00274 0.0
C874 C 0.49292 0.22167 0.92791 0.0
N875 N 0.49739 0.06309 0.91336 0.0
C876 C 0.49251 0.01059 0.88733 0.0
C877 C 0.42687 0.08392 0.84101 0.0
C878 C 0.47084 0.09665 0.8954 0.0
C879 C 0.40694 0.03121 0.7978 0.0
C880 C 0.45175 0.9785 0.82945 0.0
H881 H 0.4882 0.24731 0.90758 0.0
H882 H 0.41936 0.1891 0.84934 0.0
H883 H 0.37869 0.1092 0.79937 0.0
O884 O 0.61072 0.10245 0.94701 0.0
O885 O 0.503 0.04794 0.99064 0.0
O886 O 0.51044 0.06264 0.07721 0.0
O887 O 0.58074 0.15786 0.9487 0.0
O888 O 0.5862 0.04482 0.97961 0.0
O889 O 0.55584 0.00425 0.03666 0.0
O890 O 0.53005 0.05602 0.17197 0.0
O891 O 0.63238 0.06476 0.08699 0.0
O892 O 0.61532 0.12589 0.06573 0.0
O893 O 0.54425 0.99082 0.15051 0.0
O894 O 0.57735 0.12736 0.14187 0.0
O895 O 0.55329 0.15388 0.06994 0.0
C896 C 0.48559 0.04736 0.02914 0.0
C897 C 0.62628 0.15359 0.89055 0.0
C898 C 0.68628 0.15874 0.84726 0.0
C899 C 0.68648 0.20345 0.84417 0.0
C900 C 0.61982 0.19317 0.87628 0.0
C901 C 0.65068 0.21843 0.85316 0.0
C902 C 0.65718 0.13413 0.87292 0.0
C903 C 0.57564 0.00635 -0.00338 0.0
C904 C 0.60342 0.13547 0.92682 0.0
C905 C 0.42959 0.16211 0.86273 0.0
C906 C 0.40741 0.11694 0.83263 0.0
C907 C 0.64484 0.10357 0.07353 0.0
C908 C 0.49884 0.99486 0.21085 0.0
C909 C 0.44187 0.99584 0.25708 0.0
C910 C 0.43099 0.94743 0.25114 0.0
C911 C 0.50188 0.95432 0.22553 0.0
C912 C 0.46575 0.014 0.22358 0.0
C913 C 0.46662 0.92946 0.2451 0.0
C914 C 0.56083 0.15667 0.12108 0.0
C915 C 0.52646 0.01467 0.17898 0.0
H916 H 0.71171 0.22462 0.82918 0.0
H917 H 0.59382 0.20683 0.88678 0.0
H918 H 0.6482 0.25041 0.8445 0.0
H919 H 0.65722 0.09996 0.8774 0.0
H920 H 0.40199 0.92742 0.26273 0.0
H921 H 0.52869 0.94035 0.21849 0.0
H922 H 0.46536 0.04722 0.21604 0.0
H923 H 0.46763 0.89787 0.2561 0.0
Eu924 Eu 0.26981 0.23768 0.2668 0.0
C925 C 0.48303 0.40875 0.38607 0.0
N926 N 0.41833 0.41055 0.42017 0.0
C927 C 0.50435 0.47743 0.50748 0.0
C928 C 0.53594 0.43773 0.42403 0.0
C929 C 0.43253 0.45008 0.47682 0.0
C930 C 0.54502 0.47049 0.47865 0.0
C931 C 0.5295 0.45246 0.32558 0.0
C932 C 0.48601 0.42 0.32879 0.0
C933 C 0.57212 0.46309 0.3609 0.0
C934 C 0.57511 0.44967 0.40564 0.0
Eu935 Eu 0.34265 0.37208 0.31884 0.0
N936 N 0.44326 0.41785 0.28983 0.0
C937 C 0.53017 0.47944 0.28928 0.0
C938 C 0.44637 0.44446 0.25523 0.0
C939 C 0.48952 0.47569 0.25495 0.0
H940 H 0.40625 0.45774 0.4941 0.0
H941 H 0.49143 0.49816 0.22868 0.0
H942 H 0.2 0.15457 0.14269 0.0
H943 H 0.18003 0.15641 0.41205 0.0
H944 H 0.41477 0.44409 0.23031 0.0
H945 H 0.56274 0.50567 0.28872 0.0
H946 H 0.24575 0.18974 0.37639 0.0
H947 H 0.52048 0.49156 0.54615 0.0
H948 H 0.60446 0.48598 0.35568 0.0
H949 H 0.60968 0.46342 0.43225 0.0
H950 H 0.12523 0.17471 0.10461 0.0
H951 H 0.57989 0.49558 0.49009 0.0
H952 H 0.09788 0.13128 0.3622 0.0
N953 N 0.18858 0.16601 0.21262 0.0
C954 C 0.14975 0.16046 0.23058 0.0
C955 C 0.12709 0.15902 0.13681 0.0
C956 C 0.10342 0.15885 0.20334 0.0
C957 C 0.17189 0.15016 0.1618 0.0
C958 C 0.09509 0.16456 0.15732 0.0
N959 N 0.2041 0.1878 0.30431 0.0
C960 C 0.21098 0.18029 0.35254 0.0
C961 C 0.11856 0.15009 0.29765 0.0
C962 C 0.15794 0.16716 0.27784 0.0
C963 C 0.1267 0.14504 0.34574 0.0
C964 C 0.17311 0.15979 0.37344 0.0
H965 H 0.06479 0.17104 0.13751 0.0
H966 H 0.03133 0.14876 0.20224 0.0
H967 H 0.04267 0.13201 0.28569 0.0
O968 O 0.31417 0.21128 0.31559 0.0
O969 O 0.25778 0.31413 0.29674 0.0
O970 O 0.26076 0.3199 0.29954 0.0
O971 O 0.30108 0.19073 0.23269 0.0
O972 O 0.27877 0.25913 0.35342 0.0
O973 O 0.31841 0.33974 0.3877 0.0
O974 O 0.31443 0.41568 0.27695 0.0
O975 O 0.35906 0.29297 0.27824 0.0
O976 O 0.3557 0.28399 0.27415 0.0
O977 O 0.33835 0.43757 0.36006 0.0
O978 O 0.33774 0.35936 0.23347 0.0
O979 O 0.29697 0.27751 0.19803 0.0
C980 C 0.2228 0.32098 0.31775 0.0
C981 C 0.31127 0.13518 0.27702 0.0
C982 C 0.30873 0.07488 0.32169 0.0
C983 C 0.303 0.04238 0.27626 0.0
C984 C 0.31391 0.10544 0.23453 0.0
C985 C 0.30637 0.05807 0.23256 0.0
C986 C 0.30666 0.11903 0.32049 0.0
C987 C 0.2953 0.29626 0.39299 0.0
C988 C 0.31905 0.18419 0.27655 0.0
C989 C 0.06579 0.15112 0.22337 0.0
C990 C 0.07248 0.1421 0.26999 0.0
C991 C 0.40291 0.29363 0.27113 0.0
C992 C 0.3138 0.49179 0.31697 0.0
C993 C 0.31143 0.55372 0.27457 0.0
C994 C 0.31701 0.58425 0.32091 0.0
C995 C 0.31647 0.52162 0.36257 0.0
C996 C 0.31007 0.50772 0.27241 0.0
C997 C 0.31987 0.5684 0.36469 0.0
C998 C 0.3245 0.32217 0.19473 0.0
C999 C 0.32423 0.44863 0.31805 0.0
H1000 H 0.30452 0.00783 0.27675 0.0
H1001 H 0.32289 0.12051 0.20401 0.0
H1002 H 0.30679 0.03426 0.19908 0.0
H1003 H 0.31049 0.14343 0.35582 0.0
H1004 H 0.3174 0.61979 0.32296 0.0
H1005 H 0.31736 0.50829 0.39619 0.0
H1006 H 0.30701 0.4849 0.23632 0.0
H1007 H 0.32519 0.59363 0.39951 0.0
Eu1008 Eu 0.59972 0.52454 0.04421 0.0
C1009 C 0.51024 0.66001 0.15525 0.0
N1010 N 0.48696 0.62467 0.11183 0.0
C1011 C 0.42405 0.59614 0.15116 0.0
C1012 C 0.49327 0.66182 0.19973 0.0
C1013 C 0.44203 0.59613 0.10835 0.0
C1014 C 0.45052 0.62787 0.19742 0.0
C1015 C 0.5712 0.743 0.20448 0.0
C1016 C 0.55215 0.69301 0.1563 0.0
C1017 C 0.55332 0.73882 0.24642 0.0
C1018 C 0.51711 0.69787 0.24499 0.0
Eu1019 Eu 0.53188 0.61451 0.04921 0.0
N1020 N 0.57999 0.67787 0.1178 0.0
C1021 C 0.62487 0.78474 0.21411 0.0
C1022 C 0.63059 0.7013 0.11164 0.0
C1023 C 0.66727 0.75276 0.14854 0.0
H1024 H 0.41883 0.57377 0.07236 0.0
H1025 H 0.70132 0.7665 0.14277 0.0
H1026 H 0.70789 0.57047 0.01534 0.0
H1027 H 0.43021 0.37498 0.9576 0.0
H1028 H 0.6412 0.69271 0.08011 0.0
H1029 H 0.63716 0.81572 0.2461 0.0
H1030 H 0.49394 0.44743 0.01915 0.0
H1031 H 0.38906 0.57253 0.14801 0.0
H1032 H 0.56936 0.76622 0.2816 0.0
H1033 H 0.5045 0.69639 0.27892 0.0
H1034 H 0.73847 0.56513 0.93989 0.0
H1035 H 0.43597 0.6281 0.23015 0.0
H1036 H 0.49164 0.32059 0.85431 0.0
N1037 N 0.64165 0.51542 0.9788 0.0
C1038 C 0.61864 0.47816 0.93699 0.0
C1039 C 0.70392 0.54148 0.93808 0.0
C1040 C 0.6352 0.474 0.89236 0.0
C1041 C 0.68568 0.54482 0.98076 0.0
C1042 C 0.67779 0.50731 0.89322 0.0
N1043 N 0.5507 0.46203 0.97669 0.0
C1044 C 0.50091 0.43985 0.98493 0.0
C1045 C 0.55752 0.39414 0.8915 0.0
C1046 C 0.5774 0.44544 0.93787 0.0
C1047 C 0.50437 0.35274 0.88478 0.0
C1048 C 0.46373 0.38791 0.95048 0.0
H1049 H 0.69217 0.5053 0.86039 0.0
H1050 H 0.62255 0.43688 0.81373 0.0
H1051 H 0.55698 0.36886 0.81381 0.0
O1052 O 0.57564 0.46787 0.07877 0.0
O1053 O 0.57383 0.5376 0.96521 0.0
O1054 O 0.51261 0.56531 0.96684 0.0
O1055 O 0.64658 0.4863 0.06745 0.0
O1056 O 0.52875 0.52124 0.05695 0.0
O1057 O 0.47223 0.54676 0.04557 0.0
O1058 O 0.55842 0.67012 0.01118 0.0
O1059 O 0.55823 0.60354 0.12846 0.0
O1060 O 0.61428 0.56858 0.12836 0.0
O1061 O 0.48917 0.65549 0.02606 0.0
O1062 O 0.60259 0.62585 0.02614 0.0
O1063 O 0.65653 0.59397 0.05567 0.0
C1064 C 0.53983 0.54968 0.94136 0.0
C1065 C 0.61815 0.42058 0.1058 0.0
C1066 C 0.58813 0.36469 0.15266 0.0
C1067 C 0.62769 0.3514 0.15504 0.0
C1068 C 0.65609 0.40539 0.10519 0.0
C1069 C 0.66136 0.37146 0.13081 0.0
C1070 C 0.58339 0.39911 0.12845 0.0
C1071 C 0.48721 0.517 0.06521 0.0
C1072 C 0.61387 0.45848 0.08287 0.0
C1073 C 0.61065 0.43681 0.84819 0.0
C1074 C 0.57387 0.39695 0.8483 0.0
C1075 C 0.58875 0.588 0.1528 0.0
C1076 C 0.51578 0.72018 0.98666 0.0
C1077 C 0.53657 0.77289 0.93205 0.0
C1078 C 0.49094 0.77334 0.92316 0.0
C1079 C 0.47663 0.73307 0.98865 0.0
C1080 C 0.54852 0.74407 0.96235 0.0
C1081 C 0.46386 0.75906 0.95593 0.0
C1082 C 0.64544 0.62352 0.03134 0.0
C1083 C 0.52162 0.682 0.00925 0.0
H1084 H 0.63206 0.32496 0.17462 0.0
H1085 H 0.6821 0.42048 0.0859 0.0
H1086 H 0.69148 0.36076 0.13186 0.0
H1087 H 0.55315 0.40968 0.12838 0.0
H1088 H 0.47848 0.78975 0.89518 0.0
H1089 H 0.45389 0.71989 0.01212 0.0
H1090 H 0.58271 0.74075 0.96726 0.0
H1091 H 0.43207 0.76667 0.95467 0.0
Eu1092 Eu 0.81537 0.37582 0.25584 0.0
C1093 C 0.74439 0.25734 0.39976 0.0
N1094 N 0.78634 0.29105 0.40686 0.0
C1095 C 0.79168 0.31729 0.49723 0.0
C1096 C 0.71921 0.26407 0.4509 0.0
C1097 C 0.81214 0.31036 0.45622 0.0
C1098 C 0.74391 0.30255 0.49064 0.0
C1099 C 0.70019 0.14271 0.35991 0.0
C1100 C 0.73966 0.20444 0.35867 0.0
C1101 C 0.68379 0.13851 0.41259 0.0
C1102 C 0.68718 0.21595 0.46914 0.0
Eu1103 Eu 0.82083 0.2781 0.33882 0.0
N1104 N 0.75985 0.21298 0.31294 0.0
C1105 C 0.66977 0.10137 0.29977 0.0
C1106 C 0.75064 0.18734 0.25705 0.0
C1107 C 0.70928 0.13567 0.22976 0.0
H1108 H 0.84877 0.31502 0.46422 0.0
H1109 H 0.70752 0.11977 0.19086 0.0
H1110 H 0.81947 0.29284 0.15327 0.0
H1111 H 0.9214 0.53413 0.41743 0.0
H1112 H 0.78129 0.19018 0.24454 0.0
H1113 H 0.64209 0.06826 0.29681 0.0
H1114 H 0.89443 0.49348 0.35743 0.0
H1115 H 0.81245 0.3288 0.53632 0.0
H1116 H 0.66781 0.1015 0.41233 0.0
H1117 H 0.67008 0.22295 0.4983 0.0
H1118 H 0.88482 0.26939 0.11111 0.0
H1119 H 0.73098 0.30733 0.52427 0.0
H1120 H 0.01687 0.57756 0.33635 0.0
N1121 N 0.85345 0.37593 0.18818 0.0
C1122 C 0.89263 0.42906 0.18527 0.0
C1123 C 0.89223 0.30615 0.12775 0.0
C1124 C 0.95261 0.41471 0.13551 0.0
C1125 C 0.85141 0.32072 0.16313 0.0
C1126 C 0.94069 0.34954 0.11297 0.0
N1127 N 0.87525 0.44896 0.27543 0.0
C1128 C 0.87337 0.46746 0.33078 0.0
C1129 C 0.9655 0.51265 0.26226 0.0
C1130 C 0.90814 0.46519 0.23906 0.0
C1131 C 0.98223 0.54982 0.32312 0.0
C1132 C 0.91842 0.51745 0.37269 0.0
H1133 H 0.95377 0.3856 0.12032 0.0
H1134 H 0.03315 0.44707 0.15105 0.0
H1135 H 0.00825 0.49303 0.22066 0.0
O1136 O 0.78554 0.42595 0.28535 0.0
O1137 O 0.89451 0.3736 0.28418 0.0
O1138 O 0.89256 0.31401 0.32626 0.0
O1139 O 0.78503 0.40898 0.20334 0.0
O1140 O 0.81666 0.35778 0.33066 0.0
O1141 O 0.86183 0.34637 0.39351 0.0
O1142 O 0.84813 0.223 0.31397 0.0
O1143 O 0.74015 0.27807 0.31118 0.0
O1144 O 0.73731 0.33561 0.26697 0.0
O1145 O 0.84784 0.24222 0.39372 0.0
O1146 O 0.82108 0.29136 0.26148 0.0
O1147 O 0.77161 0.30795 0.20556 0.0
C1148 C 0.91633 0.34726 0.30689 0.0
C1149 C 0.75617 0.4693 0.23208 0.0
C1150 C 0.72308 0.52409 0.2661 0.0
C1151 C 0.7112 0.53242 0.2176 0.0
C1152 C 0.74735 0.47926 0.18432 0.0
C1153 C 0.72473 0.51101 0.17721 0.0
C1154 C 0.74589 0.49315 0.27321 0.0
C1155 C 0.84906 0.37629 0.37343 0.0
C1156 C 0.77756 0.43553 0.24077 0.0
C1157 C 1.00535 0.45388 0.16677 0.0
C1158 C 0.00712 0.50885 0.24307 0.0
C1159 C 0.71448 0.30118 0.28807 0.0
C1160 C 0.8773 0.17872 0.36837 0.0
C1161 C 0.91183 0.12093 0.34084 0.0
C1162 C 0.9212 0.11505 0.39057 0.0
C1163 C 0.88122 0.16735 0.41576 0.0
C1164 C 0.8912 0.15386 0.32999 0.0
C1165 C 0.90408 0.13655 0.42707 0.0
C1166 C 0.78378 0.27646 0.22334 0.0
C1167 C 0.85681 0.21477 0.35862 0.0
H1168 H 0.69308 0.55657 0.21146 0.0
H1169 H 0.75748 0.46242 0.15278 0.0
H1170 H 0.71808 0.51926 0.1407 0.0
H1171 H 0.75441 0.48692 0.31082 0.0
H1172 H 0.93769 0.09021 0.39975 0.0
H1173 H 0.86831 0.18374 0.44493 0.0
H1174 H 0.88403 0.15835 0.29152 0.0
H1175 H 0.90774 0.12877 0.46402 0.0
Eu1176 Eu 0.05989 0.60719 0.49172 0.0
C1177 C 0.15262 0.51294 0.68269 0.0
N1178 N 0.11814 0.50169 0.63822 0.0
C1179 C 0.11446 0.42246 0.62232 0.0
C1180 C 0.17126 0.47967 0.69663 0.0
C1181 C 0.10232 0.45788 0.60621 0.0
C1182 C 0.14732 0.43317 0.66886 0.0
C1183 C 0.21944 0.573 0.76175 0.0
C1184 C 0.1653 0.55495 0.71741 0.0
C1185 C 0.23669 0.53764 0.76799 0.0
C1186 C 0.20971 0.49134 0.73969 0.0
Eu1187 Eu 0.07491 0.55118 0.62196 0.0
N1188 N 0.1319 0.58348 0.70738 0.0
C1189 C 0.24315 0.63009 0.80312 0.0
C1190 C 0.13338 0.63179 0.73672 0.0
C1191 C 0.17946 0.66844 0.78305 0.0
H1192 H 0.07421 0.44773 0.57223 0.0
H1193 H 0.17938 0.70372 0.79157 0.0
H1194 H 0.06555 0.71519 0.53055 0.0
H1195 H 0.95224 0.44488 0.31224 0.0
H1196 H 0.10507 0.64415 0.72705 0.0
H1197 H 0.27664 0.64278 0.83149 0.0
H1198 H 0.01615 0.4952 0.40405 0.0
H1199 H 0.09544 0.38671 0.60033 0.0
H1200 H 0.26748 0.54457 0.79848 0.0
H1201 H 0.21903 0.4634 0.75174 0.0
H1202 H 0.05001 0.77236 0.48876 0.0
H1203 H 0.15287 0.40519 0.68429 0.0
H1204 H 0.87874 0.52555 0.26413 0.0
N1205 N 0.01699 0.65599 0.47212 0.0
C1206 C 0.98328 0.64145 0.42655 0.0
C1207 C 0.02763 0.73591 0.47344 0.0
C1208 C 0.9669 0.67449 0.40671 0.0
C1209 C 0.03609 0.7026 0.49739 0.0
C1210 C 0.99305 0.72174 0.42804 0.0
N1211 N 0.99757 0.56324 0.41327 0.0
C1212 C 0.99265 0.51074 0.38726 0.0
C1213 C 0.92726 0.5842 0.3408 0.0
C1214 C 0.97113 0.59685 0.39526 0.0
C1215 C 0.90735 0.53154 0.29756 0.0
C1216 C 0.95198 0.4787 0.32935 0.0
H1217 H 0.9884 0.74739 0.4077 0.0
H1218 H 0.91944 0.68925 0.3495 0.0
H1219 H 0.87888 0.6094 0.29935 0.0
O1220 O 0.11086 0.60254 0.44717 0.0
O1221 O 1.00308 0.54796 0.49061 0.0
O1222 O 0.01028 0.56249 0.5771 0.0
O1223 O 0.08082 0.6579 0.44881 0.0
O1224 O 0.08621 0.54474 0.4794 0.0
O1225 O 0.05597 0.50407 0.53636 0.0
O1226 O 0.02961 0.55576 0.67119 0.0
O1227 O 0.13231 0.56466 0.58655 0.0
O1228 O 0.11548 0.62602 0.56573 0.0
O1229 O 0.04445 0.49085 0.6503 0.0
O1230 O 0.07798 0.62772 0.64204 0.0
O1231 O 0.0529 0.6537 0.57009 0.0
C1232 C 0.9855 0.54748 0.52899 0.0
C1233 C 0.12642 0.65368 0.39069 0.0
C1234 C 0.18627 0.65883 0.34713 0.0
C1235 C 0.18639 0.70352 0.34403 0.0
C1236 C 0.11987 0.6932 0.37638 0.0
C1237 C 0.15063 0.71848 0.3532 0.0
C1238 C 0.15731 0.63424 0.37295 0.0
C1239 C 0.07582 0.50621 0.49634 0.0
C1240 C 0.10354 0.63553 0.42696 0.0
C1241 C 0.92971 0.66225 0.36281 0.0
C1242 C 0.90764 0.61713 0.33258 0.0
C1243 C 0.14495 0.60364 0.57347 0.0
C1244 C 0.99883 0.49469 0.71033 0.0
C1245 C 0.94183 0.49563 0.75631 0.0
C1246 C 0.93117 0.44729 0.75081 0.0
C1247 C 1.00209 0.4543 0.72527 0.0
C1248 C 0.96564 0.51371 0.72281 0.0
C1249 C 0.96689 0.42944 0.74494 0.0
C1250 C 0.06073 0.65667 0.62132 0.0
C1251 C 0.02645 0.5146 0.67857 0.0
H1252 H 0.21137 0.72463 0.32872 0.0
H1253 H 0.09384 0.70683 0.3869 0.0
H1254 H 0.14807 0.75042 0.34452 0.0
H1255 H 0.1574 0.60008 0.37744 0.0
H1256 H 0.90216 0.42728 0.76245 0.0
H1257 H 0.02899 0.44044 0.71834 0.0
H1258 H 0.96515 0.54688 0.71518 0.0
H1259 H 0.96792 0.39785 0.75594 0.0
Eu1260 Eu 0.86075 0.78288 0.30559 0.0
C1261 C 0.72341 0.87486 0.19049 0.0
N1262 N 0.75986 0.89759 0.23327 0.0
C1263 C 0.78734 0.96075 0.19307 0.0
C1264 C 0.72053 0.89207 0.14577 0.0
C1265 C 0.78872 0.94235 0.23596 0.0
C1266 C 0.75443 0.9347 0.14735 0.0
C1267 C 0.63976 0.81402 0.14231 0.0
C1268 C 0.69013 0.83347 0.19055 0.0
C1269 C 0.64281 0.83255 0.10033 0.0
C1270 C 0.68335 0.86889 0.10117 0.0
Eu1271 Eu 0.7695 0.85321 0.29762 0.0
N1272 N 0.70619 0.80558 0.22922 0.0
C1273 C 0.59907 0.75947 0.13264 0.0
C1274 C 0.68428 0.75458 0.23547 0.0
C1275 C 0.63305 0.71705 0.19851 0.0
H1276 H 0.81203 0.96551 0.27148 0.0
H1277 H 0.6207 0.68237 0.2037 0.0
H1278 H 0.81752 0.67291 0.33761 0.0
H1279 H 0.00813 0.95386 0.38966 0.0
H1280 H 0.69566 0.74448 0.26661 0.0
H1281 H 0.56807 0.74678 0.10038 0.0
H1282 H 0.93676 0.88718 0.32732 0.0
H1283 H 0.81102 0.99571 0.19576 0.0
H1284 H 0.61486 0.8168 0.0654 0.0
H1285 H 0.68392 0.88186 0.06712 0.0
H1286 H 0.82326 0.64453 0.41424 0.0
H1287 H 0.75336 0.94956 0.11449 0.0
H1288 H 0.064 0.89428 0.49656 0.0
N1289 N 0.87073 0.74129 0.37268 0.0
C1290 C 0.90813 0.765 0.41438 0.0
C1291 C 0.84626 0.67932 0.41538 0.0
C1292 C 0.91309 0.7489 0.45974 0.0
C1293 C 0.8424 0.69679 0.37188 0.0
C1294 C 0.8804 0.70622 0.45992 0.0
N1295 N 0.92333 0.8322 0.37228 0.0
C1296 C 0.94441 0.88197 0.36279 0.0
C1297 C 0.99163 0.82727 0.45954 0.0
C1298 C 0.94051 0.80621 0.41244 0.0
C1299 C 0.03189 0.88102 0.46579 0.0
C1300 C 0.99576 0.92041 0.39769 0.0
H1301 H 0.88302 0.69221 0.49335 0.0
H1302 H 0.95103 0.76209 0.53856 0.0
H1303 H 0.01791 0.82821 0.5376 0.0
O1304 O 0.91596 0.80748 0.26943 0.0
O1305 O 0.84952 0.81158 0.38432 0.0
O1306 O 0.81593 0.86929 0.38143 0.0
O1307 O 0.90011 0.7374 0.28396 0.0
O1308 O 0.86147 0.85444 0.29266 0.0
O1309 O 0.83724 0.91211 0.30144 0.0
O1310 O 0.71275 0.82555 0.33271 0.0
O1311 O 0.78074 0.82679 0.21931 0.0
O1312 O 0.81491 0.76943 0.22175 0.0
O1313 O 0.73107 0.89731 0.3218 0.0
O1314 O 0.76911 0.78077 0.30843 0.0
O1315 O 0.79418 0.72307 0.29906 0.0
C1316 C 0.83478 0.84358 0.40732 0.0
C1317 C 0.96457 0.76589 0.24499 0.0
C1318 C 0.02063 0.79608 0.19889 0.0
C1319 C 0.03341 0.75609 0.19711 0.0
C1320 C 0.97955 0.72766 0.24637 0.0
C1321 C 0.01316 0.72219 0.2213 0.0
C1322 C 0.98627 0.80093 0.22235 0.0
C1323 C 0.86707 0.89663 0.2837 0.0
C1324 C 0.92679 0.77004 0.2674 0.0
C1325 C 0.9505 0.77384 0.5037 0.0
C1326 C 0.98967 0.81099 0.50315 0.0
C1327 C 0.796 0.79551 0.19643 0.0
C1328 C 0.66608 0.87062 0.35871 0.0
C1329 C 0.60903 0.84521 0.40497 0.0
C1330 C 0.60114 0.88773 0.40908 0.0
C1331 C 0.65245 0.90953 0.35538 0.0
C1332 C 0.64278 0.83721 0.38203 0.0
C1333 C 0.62142 0.91897 0.3824 0.0
C1334 C 0.76379 0.738 0.31595 0.0
C1335 C 0.70338 0.86413 0.33674 0.0
H1336 H 0.05969 0.75159 0.17807 0.0
H1337 H 0.96448 0.7015 0.26578 0.0
H1338 H 0.0235 0.69175 0.22071 0.0
H1339 H 0.97599 0.83145 0.22198 0.0
H1340 H 0.57631 0.89485 0.42915 0.0
H1341 H 0.66741 0.9338 0.33394 0.0
H1342 H 0.64983 0.80483 0.38137 0.0
H1343 H 0.61268 0.95022 0.38211 0.0
Eu1344 Eu 0.77854 0.32363 0.86075 0.0
C1345 C 0.87484 0.23148 0.6753 0.0
N1346 N 0.88768 0.26606 0.71964 0.0
C1347 C 0.96679 0.27097 0.73178 0.0
C1348 C 0.90758 0.21419 0.65879 0.0
C1349 C 0.93234 0.28203 0.75007 0.0
C1350 C 0.95449 0.23898 0.68464 0.0
C1351 C 0.81268 0.16271 0.59586 0.0
C1352 C 0.83182 0.21818 0.64246 0.0
C1353 C 0.84878 0.14787 0.58789 0.0
C1354 C 0.89513 0.17663 0.61485 0.0
Eu1355 Eu 0.84011 0.31037 0.73814 0.0
N1356 N 0.80259 0.25219 0.65318 0.0
C1357 C 0.75298 0.13786 0.55292 0.0
C1358 C 0.75232 0.25056 0.623 0.0
C1359 C 0.71336 0.20305 0.57433 0.0
H1360 H 0.94384 0.31036 0.78379 0.0
H1361 H 0.67823 0.20314 0.56501 0.0
H1362 H 0.6702 0.31826 0.81822 0.0
H1363 H 0.94259 0.43295 0.04858 0.0
H1364 H 0.73984 0.27863 0.63233 0.0
H1365 H 0.74039 0.10513 0.5237 0.0
H1366 H 0.89507 0.40716 0.99314 0.0
H1367 H 1.00292 0.29036 0.75242 0.0
H1368 H 0.84212 0.11811 0.5566 0.0
H1369 H 0.92287 0.16934 0.60096 0.0
H1370 H 0.61298 0.33544 0.85679 0.0
H1371 H 0.98151 0.23432 0.66748 0.0
H1372 H 0.85622 0.50015 0.0878 0.0
N1373 N 0.72922 0.36645 0.87749 0.0
C1374 C 0.74333 0.40006 0.92269 0.0
C1375 C 0.64944 0.35714 0.87322 0.0
C1376 C 0.71049 0.41711 0.94086 0.0
C1377 C 0.68285 0.34756 0.85124 0.0
C1378 C 0.66346 0.39172 0.91826 0.0
N1379 N 0.8206 0.38522 0.93729 0.0
C1380 C 0.8725 0.3882 0.96205 0.0
C1381 C 0.79897 0.45303 0.01016 0.0
C1382 C 0.78709 0.41093 0.95523 0.0
C1383 C 0.85083 0.47225 0.05425 0.0
C1384 C 0.90573 0.42924 0.02339 0.0
H1385 H 0.63785 0.39684 0.93764 0.0
H1386 H 0.6959 0.4654 -0.0037 0.0
H1387 H 0.77474 0.50246 0.05008 0.0
O1388 O 0.78181 0.27033 0.90333 0.0
O1389 O 0.83974 0.37817 0.86063 0.0
O1390 O 0.82932 0.37657 0.77675 0.0
O1391 O 0.73011 0.30483 0.90629 0.0
O1392 O 0.84383 0.3029 0.88196 0.0
O1393 O 0.89071 0.32269 0.82579 0.0
O1394 O 0.83591 0.35789 0.68959 0.0
O1395 O 0.82615 0.25835 0.78253 0.0
O1396 O 0.75818 0.26607 0.78857 0.0
O1397 O 0.8983 0.33873 0.7061 0.0
O1398 O 0.76544 0.31294 0.71535 0.0
O1399 O 0.7321 0.32964 0.78212 0.0
C1400 C 0.83766 0.39885 0.8245 0.0
C1401 C 0.73272 0.2544 0.96084 0.0
C1402 C 0.73031 0.19431 0.00484 0.0
C1403 C 0.68573 0.19287 0.00886 0.0
C1404 C 0.694 0.26046 0.97643 0.0
C1405 C 0.67037 0.22917 0.00064 0.0
C1406 C 0.75189 0.22222 0.97629 0.0
C1407 C 0.88472 0.30982 0.87047 0.0
C1408 C 0.75037 0.27852 0.925 0.0
C1409 C 0.72259 0.45404 0.98457 0.0
C1410 C 0.76693 0.47393 0.01691 0.0
C1411 C 0.78275 0.23925 0.77946 0.0
C1412 C 0.89321 0.38442 0.6444 0.0
C1413 C 0.89159 0.44054 0.5947 0.0
C1414 C 0.94005 0.45186 0.60231 0.0
C1415 C 0.93378 0.38157 0.63086 0.0
C1416 C 0.87313 0.41637 0.62838 0.0
C1417 C 0.95845 0.41674 0.61074 0.0
C1418 C 0.73241 0.32501 0.73237 0.0
C1419 C 0.87443 0.35753 0.6782 0.0
H1420 H 0.66714 0.16944 0.02772 0.0
H1421 H 0.68019 0.287 0.96695 0.0
H1422 H 0.63986 0.2323 0.012 0.0
H1423 H 0.78536 0.22213 0.97036 0.0
H1424 H 0.96063 0.48157 0.59169 0.0
H1425 H 0.94841 0.3555 0.64003 0.0
H1426 H 0.83957 0.41609 0.63438 0.0
H1427 H 0.99091 0.41663 0.60225 0.0
Eu1428 Eu 0.76556 0.73991 0.77116 0.0
C1429 C 0.98205 0.909 0.88616 0.0
N1430 N 0.91776 0.91134 0.92099 0.0
C1431 C 1.00412 0.97821 0.00751 0.0
C1432 C 0.03503 0.93781 0.92354 0.0
C1433 C 0.93231 0.95108 0.9773 0.0
C1434 C 0.04447 0.97097 0.97788 0.0
C1435 C 0.02817 0.95196 0.82503 0.0
C1436 C 0.98469 0.91986 0.82879 0.0
C1437 C 0.07094 0.96244 0.86002 0.0
C1438 C 0.07405 0.94907 0.90477 0.0
Eu1439 Eu 0.84164 0.87334 0.82199 0.0
N1440 N 0.94179 0.91774 0.79026 0.0
C1441 C 0.02871 0.97868 0.78851 0.0
C1442 C 0.94476 0.94409 0.75537 0.0
C1443 C 0.98791 0.97495 0.75447 0.0
H1444 H 0.90618 0.95897 -0.00532 0.0
H1445 H 0.98971 0.99718 0.72796 0.0
H1446 H 0.64222 0.6723 0.62062 0.0
H1447 H 0.66818 0.6385 0.89294 0.0
H1448 H 0.9131 0.94388 0.73072 0.0
H1449 H 0.06129 0.00465 0.78754 0.0
H1450 H 0.73267 0.67899 0.86 0.0
H1451 H 0.01952 0.99296 0.04636 0.0
H1452 H 0.10326 0.98509 0.85451 0.0
H1453 H 0.10871 0.96259 0.93118 0.0
H1454 H 0.61369 0.73191 0.6106 0.0
H1455 H 0.07906 0.9966 0.98772 0.0
H1456 H 0.58591 0.62046 0.84826 0.0
N1457 N 0.66429 0.68927 0.70356 0.0
C1458 C 0.63109 0.68443 0.7271 0.0
C1459 C 0.61632 0.71871 0.64459 0.0
C1460 C 0.5851 0.68525 0.70533 0.0
C1461 C 0.64485 0.69345 0.65452 0.0
C1462 C 0.58069 0.70939 0.66763 0.0
N1463 N 0.6906 0.68696 0.79385 0.0
C1464 C 0.69776 0.672 0.83786 0.0
C1465 C 0.60438 0.65242 0.78895 0.0
C1466 C 0.64289 0.67578 0.77077 0.0
C1467 C 0.61395 0.63814 0.83264 0.0
C1468 C 0.66055 0.64836 0.85748 0.0
H1469 H 0.54948 0.71693 0.65371 0.0
H1470 H 0.5119 0.65781 0.70197 0.0
H1471 H 0.52851 0.6281 0.77843 0.0
O1472 O 0.79628 0.70355 0.82117 0.0
O1473 O 0.75791 0.81747 0.80561 0.0
O1474 O 0.76031 0.82199 0.80757 0.0
O1475 O 0.80596 0.69702 0.74523 0.0
O1476 O 0.77564 0.76097 0.85848 0.0
O1477 O 0.81799 0.84187 0.8919 0.0
O1478 O 0.81171 0.9151 0.77829 0.0
O1479 O 0.85818 0.79321 0.78376 0.0
O1480 O 0.85369 0.7835 0.77868 0.0
O1481 O 0.83864 0.93961 0.86129 0.0
O1482 O 0.83375 0.86417 0.73624 0.0
O1483 O 0.80934 0.78268 0.70676 0.0
C1484 C 0.71813 0.82192 0.81662 0.0
C1485 C 0.80682 0.63444 0.78186 0.0
C1486 C 0.80763 0.57203 0.82205 0.0
C1487 C 0.80441 0.54254 0.77562 0.0
C1488 C 0.81304 0.60861 0.73849 0.0
C1489 C 0.8086 0.56146 0.73406 0.0
C1490 C 0.80258 0.61516 0.82333 0.0
C1491 C 0.7942 0.79864 0.8977 0.0
C1492 C 0.81262 0.68376 0.7871 0.0
C1493 C 0.54742 0.662 0.7212 0.0
C1494 C 0.5572 0.64511 0.76374 0.0
C1495 C 0.90127 0.79307 0.77525 0.0
C1496 C 0.81318 0.99255 0.8178 0.0
C1497 C 0.81129 0.05419 0.77481 0.0
C1498 C 0.81676 0.08495 0.82093 0.0
C1499 C 0.81565 0.02253 0.86316 0.0
C1500 C 0.8097 0.00821 0.77312 0.0
C1501 C 0.81914 0.06927 0.86484 0.0
C1502 C 0.82925 0.82756 0.70054 0.0
C1503 C 0.8234 0.94939 0.8188 0.0
H1504 H 0.80783 0.50847 0.77421 0.0
H1505 H 0.82202 0.6257 0.70902 0.0
H1506 H 0.81179 0.54022 0.70042 0.0
H1507 H 0.80484 0.63724 0.85963 0.0
H1508 H 0.81726 0.12048 0.82269 0.0
H1509 H 0.81605 0.00917 0.89671 0.0
H1510 H 0.80672 0.98518 0.73716 0.0
H1511 H 0.824 0.09456 0.89943 0.0
Eu1512 Eu 0.64319 0.61754 0.5775 0.0
C1513 C 0.4758 0.40236 0.46403 0.0
N1514 N 0.4763 0.46743 0.42833 0.0
C1515 C 0.40848 0.38234 0.34165 0.0
C1516 C 0.44566 0.34934 0.42643 0.0
C1517 C 0.43742 0.4539 0.37095 0.0
C1518 C 0.41342 0.34098 0.37126 0.0
C1519 C 0.43154 0.35641 0.52465 0.0
C1520 C 0.4639 0.39991 0.52073 0.0
C1521 C 0.42035 0.31342 0.4901 0.0
C1522 C 0.43247 0.30998 0.44502 0.0
Eu1523 Eu 0.5114 0.54309 0.5277 0.0
N1524 N 0.46606 0.44315 0.55818 0.0
C1525 C 0.40501 0.35612 0.56072 0.0
C1526 C 0.43967 0.44035 0.59249 0.0
C1527 C 0.40882 0.39718 0.59381 0.0
H1528 H 0.43072 0.48052 0.3528 0.0
H1529 H 0.38664 0.39556 0.61989 0.0
H1530 H 0.73572 0.68472 0.69756 0.0
H1531 H 0.73003 0.70825 0.43519 0.0
H1532 H 0.44 0.4722 0.61644 0.0
H1533 H 0.37898 0.32356 0.56192 0.0
H1534 H 0.69316 0.64229 0.47002 0.0
H1535 H 0.39482 0.36477 0.30325 0.0
H1536 H 0.39753 0.28118 0.49593 0.0
H1537 H 0.41762 0.27537 0.4186 0.0
H1538 H 0.71467 0.75802 0.74059 0.0
H1539 H 0.38671 0.30693 0.36018 0.0
H1540 H 0.7505 0.79086 0.48175 0.0
N1541 N 0.71724 0.69896 0.62886 0.0
C1542 C 0.71855 0.73803 0.61164 0.0
C1543 C 0.72866 0.75633 0.70806 0.0
C1544 C 0.72448 0.78417 0.64142 0.0
C1545 C 0.73647 0.71346 0.67994 0.0
C1546 C 0.72112 0.78974 0.68856 0.0
N1547 N 0.68948 0.6842 0.53828 0.0
C1548 C 0.70035 0.67726 0.49204 0.0
C1549 C 0.72584 0.77028 0.54417 0.0
C1550 C 0.70742 0.73061 0.56382 0.0
C1551 C 0.73424 0.762 0.49748 0.0
C1552 C 0.72248 0.7153 0.47165 0.0
H1553 H 0.71475 0.81919 0.70997 0.0
H1554 H 0.73788 0.85778 0.64516 0.0
H1555 H 0.74916 0.84716 0.55846 0.0
O1556 O 0.67115 0.5731 0.53175 0.0
O1557 O 0.56534 0.63359 0.54322 0.0
O1558 O 0.556 0.62846 0.5393 0.0
O1559 O 0.6933 0.59004 0.6149 0.0
O1560 O 0.62303 0.60606 0.49145 0.0
O1561 O 0.54242 0.5677 0.45849 0.0
O1562 O 0.4678 0.56926 0.57034 0.0
O1563 O 0.5916 0.52811 0.57055 0.0
O1564 O 0.60033 0.53143 0.57455 0.0
O1565 O 0.44467 0.54645 0.4873 0.0
O1566 O 0.52454 0.54889 0.61337 0.0
O1567 O 0.60556 0.59101 0.64827 0.0
C1568 C 0.54056 0.66388 0.55589 0.0
C1569 C 0.74744 0.57514 0.57151 0.0
C1570 C 0.80661 0.57297 0.52716 0.0
C1571 C 0.83928 0.58002 0.57328 0.0
C1572 C 0.77765 0.57423 0.61548 0.0
C1573 C 0.8244 0.57965 0.61741 0.0
C1574 C 0.76239 0.57503 0.52695 0.0
C1575 C 0.58552 0.59028 0.45263 0.0
C1576 C 0.69888 0.56974 0.57196 0.0
C1577 C 0.73214 0.82308 0.62203 0.0
C1578 C 0.73735 0.81677 0.57341 0.0
C1579 C 0.59193 0.48446 0.57958 0.0
C1580 C 0.39103 0.56996 0.53113 0.0
C1581 C 0.32941 0.57191 0.57316 0.0
C1582 C 0.2989 0.56691 0.52653 0.0
C1583 C 0.36099 0.56784 0.48556 0.0
C1584 C 0.37541 0.57331 0.57568 0.0
C1585 C 0.31445 0.56436 0.48296 0.0
C1586 C 0.56164 0.56303 0.65242 0.0
C1587 C 0.43444 0.56025 0.52955 0.0
H1588 H 0.87358 0.57796 0.57373 0.0
H1589 H 0.76358 0.56818 0.64732 0.0
H1590 H 0.84856 0.5804 0.65165 0.0
H1591 H 0.73759 0.56939 0.49093 0.0
H1592 H 0.26344 0.56633 0.52396 0.0
H1593 H 0.37418 0.56753 0.45223 0.0
H1594 H 0.39831 0.57584 0.61185 0.0
H1595 H 0.28926 0.5592 0.44777 0.0
Eu1596 Eu 0.00634 0.56545 0.09605 0.0
C1597 C 0.12696 0.63991 0.95612 0.0
N1598 N 0.09343 0.59735 0.94803 0.0
C1599 C 0.06781 0.59414 0.85746 0.0
C1600 C 0.12096 0.66564 0.90476 0.0
C1601 C 0.07421 0.57251 0.89823 0.0
C1602 C 0.08264 0.64205 0.86461 0.0
C1603 C 0.24107 0.68427 -0.00086 0.0
C1604 C 0.17934 0.64418 -0.00161 0.0
C1605 C 0.2461 0.70097 0.94563 0.0
C1606 C 0.16894 0.69735 0.88715 0.0
Eu1607 Eu 0.10474 0.55982 0.01564 0.0
N1608 N 0.17056 0.62201 0.04281 0.0
C1609 C 0.28122 0.7127 0.06089 0.0
C1610 C 0.19609 0.62998 0.09857 0.0
C1611 C 0.2475 0.67075 0.12755 0.0
H1612 H 0.06864 0.53551 0.8895 0.0
H1613 H 0.26102 0.6853 0.1179 0.0
H1614 H 0.09046 0.55947 0.19719 0.0
H1615 H 0.8546 0.46685 0.94191 0.0
H1616 H 0.18983 0.59932 0.11246 0.0
H1617 H 0.31304 0.74244 0.06488 0.0
H1618 H 0.92108 0.53818 0.00898 0.0
H1619 H 0.05665 0.57426 0.81817 0.0
H1620 H 0.28296 0.71732 0.9464 0.0
H1621 H 0.16197 0.7153 0.85816 0.0
H1622 H 0.11181 0.49772 0.25046 0.0
H1623 H 0.07827 0.65586 0.83116 0.0
H1624 H 0.80671 0.3629 0.01334 0.0
N1625 N 0.00648 0.52747 0.16517 0.0
C1626 C 0.95305 0.48836 0.16693 0.0
C1627 C 0.07528 0.49123 0.23374 0.0
C1628 C 0.96572 0.42973 0.22129 0.0
C1629 C 0.06135 0.53052 0.1941 0.0
C1630 C 0.03099 0.44285 0.24761 0.0
N1631 N 0.93289 0.50608 0.07579 0.0
C1632 C 0.91212 0.50679 0.02006 0.0
C1633 C 0.87101 0.41406 0.08916 0.0
C1634 C 0.91785 0.47233 0.11254 0.0
C1635 C 0.83428 0.39763 0.02736 0.0
C1636 C 0.86617 0.46328 0.98051 0.0
H1637 H 0.04281 0.41897 0.26571 0.0
H1638 H 0.95398 0.406 0.21752 0.0
H1639 H 0.88863 0.37258 0.13453 0.0
O1640 O 0.961 0.60198 0.06897 0.0
O1641 O 0.01238 0.48677 0.07118 0.0
O1642 O 0.06594 0.4831 0.02272 0.0
O1643 O 0.97191 0.59324 0.1479 0.0
O1644 O 0.0268 0.56434 0.02308 0.0
O1645 O 0.03746 0.52113 0.95926 0.0
O1646 O 0.16148 0.53404 0.04012 0.0
O1647 O 0.10449 0.64128 0.0421 0.0
O1648 O 0.04689 0.64436 0.08459 0.0
O1649 O 0.13916 0.5335 0.96004 0.0
O1650 O 0.09444 0.56105 0.09485 0.0
O1651 O 0.07241 0.60903 0.14641 0.0
C1652 C 0.03389 0.46115 0.04521 0.0
C1653 C 0.91549 0.6277 0.12054 0.0
C1654 C 0.86066 0.66128 0.08599 0.0
C1655 C 0.85288 0.67302 0.13437 0.0
C1656 C 0.90606 0.63637 0.16826 0.0
C1657 C 0.87458 0.65918 0.17501 0.0
C1658 C 0.89134 0.63834 0.07923 0.0
C1659 C 0.00818 0.53425 0.97897 0.0
C1660 C 0.94825 0.60523 0.11155 0.0
C1661 C 0.92719 0.37697 0.19153 0.0
C1662 C 0.87367 0.37309 0.11142 0.0
C1663 C 0.08166 0.6675 0.06423 0.0
C1664 C 0.20416 0.5058 0.98441 0.0
C1665 C 0.26473 0.4743 0.01183 0.0
C1666 C 0.26903 0.46463 0.96183 0.0
C1667 C 0.21365 0.50182 0.93639 0.0
C1668 C 0.23134 0.4935 0.02298 0.0
C1669 C 0.24517 0.48032 0.92494 0.0
C1670 C 0.10555 0.59992 0.13041 0.0
C1671 C 0.16812 0.52536 -0.00504 0.0
H1672 H 0.82895 0.69124 0.14023 0.0
H1673 H 0.92304 0.62593 0.19995 0.0
H1674 H 0.86675 0.6657 0.21146 0.0
H1675 H 0.89692 0.6297 0.04159 0.0
H1676 H 0.29412 0.44891 0.95255 0.0
H1677 H 0.19568 0.51406 0.90708 0.0
H1678 H 0.22812 0.50068 0.06175 0.0
H1679 H 0.25158 0.47649 0.88755 0.0
loop_
_geom_bond_atom_site_label_1
_geom_bond_atom_site_label_2
_geom_bond_distance
_geom_bond_site_symmetry_2
_ccdc_geom_bond_type
Zn0 O3 2.031 . S
Zn0 O5 2.049 . S
Zn0 O10 2.067 1_455 S
Zn1 O2 1.962 . S
Zn1 O4 1.986 . S
Zn1 O6 1.996 . S
Zn1 O9 1.943 . S
O2 Zn1 1.962 . S
O2 C7 1.254 . S
O3 Zn0 2.031 . S
O3 C7 1.269 . S
O4 Zn1 1.986 . S
O4 C11 1.262 . S
O5 Zn0 2.049 . S
O5 C13 1.260 . S
O6 Zn1 1.996 . S
O6 C13 1.257 . S
C7 O2 1.254 . S
C7 O3 1.269 . S
C8 O9 1.249 1_655 S
C8 O10 1.270 . S
O9 Zn1 1.943 . S
O9 C8 1.249 1_455 S
O10 Zn0 2.067 1_655 S
O10 C8 1.270 . S
C11 O4 1.262 . S
C11 O12 1.232 . S
O12 C11 1.232 . S
C13 O5 1.260 . S
C13 O6 1.257 . S
Zn14 O17 2.031 1_455 S
Zn14 O19 2.049 . S
Zn14 O24 2.067 . S
Zn15 O16 1.962 . S
Zn15 O18 1.986 . S
Zn15 O20 1.996 . S
Zn15 O23 1.943 . S
O16 Zn15 1.962 . S
O16 C21 1.254 1_455 S
O17 Zn14 2.031 1_655 S
O17 C21 1.269 . S
O18 Zn15 1.986 . S
O18 C25 1.262 . S
O19 Zn14 2.049 . S
O19 C27 1.260 . S
O20 Zn15 1.996 . S
O20 C27 1.257 . S
C21 O16 1.254 1_655 S
C21 O17 1.269 . S
C22 O23 1.249 . S
C22 O24 1.270 . S
O23 Zn15 1.943 . S
O23 C22 1.249 . S
O24 Zn14 2.067 . S
O24 C22 1.270 . S
C25 O18 1.262 . S
C25 O26 1.232 . S
O26 C25 1.232 . S
C27 O19 1.260 . S
C27 O20 1.257 . S
Zn28 O31 2.031 . S
Zn28 O33 2.049 . S
Zn28 O38 2.067 . S
Zn29 O30 1.962 . S
Zn29 O32 1.986 . S
Zn29 O34 1.996 . S
Zn29 O37 1.943 . S
O30 Zn29 1.962 . S
O30 C35 1.254 . S
O31 Zn28 2.031 . S
O31 C35 1.269 . S
O32 Zn29 1.986 . S
O32 C39 1.262 . S
O33 Zn28 2.049 . S
O33 C41 1.260 . S
O34 Zn29 1.996 . S
O34 C41 1.257 . S
C35 O30 1.254 . S
C35 O31 1.269 . S
C36 O37 1.249 . S
C36 O38 1.270 . S
O37 Zn29 1.943 . S
O37 C36 1.249 . S
O38 Zn28 2.067 . S
O38 C36 1.270 . S
C39 O32 1.262 . S
C39 O40 1.232 . S
O40 C39 1.232 . S
C41 O33 1.260 . S
C41 O34 1.257 . S
Zn42 O45 2.031 . S
Zn42 O47 2.049 . S
Zn42 O52 2.067 . S
Zn43 O44 1.962 . S
Zn43 O46 1.986 . S
Zn43 O48 1.996 . S
Zn43 O51 1.943 . S
O44 Zn43 1.962 . S
O44 C49 1.254 . S
O45 Zn42 2.031 . S
O45 C49 1.269 . S
O46 Zn43 1.986 . S
O46 C53 1.262 . S
O47 Zn42 2.049 . S
O47 C55 1.260 . S
O48 Zn43 1.996 . S
O48 C55 1.257 . S
C49 O44 1.254 . S
C49 O45 1.269 . S
C50 O51 1.249 . S
C50 O52 1.270 . S
O51 Zn43 1.943 . S
O51 C50 1.249 . S
O52 Zn42 2.067 . S
O52 C50 1.270 . S
C53 O46 1.262 . S
C53 O54 1.232 . S
O54 C53 1.232 . S
C55 O47 1.260 . S
C55 O48 1.257 . S
Zn56 O59 2.031 . S
Zn56 O61 2.049 . S
Zn56 O66 2.067 . S
Zn57 O58 1.962 . S
Zn57 O60 1.986 . S
Zn57 O62 1.996 . S
Zn57 O65 1.943 . S
O58 Zn57 1.962 . S
O58 C63 1.254 . S
O59 Zn56 2.031 . S
O59 C63 1.269 . S
O60 Zn57 1.986 . S
O60 C67 1.262 . S
O61 Zn56 2.049 . S
O61 C69 1.260 . S
O62 Zn57 1.996 . S
O62 C69 1.257 . S
C63 O58 1.254 . S
C63 O59 1.269 . S
C64 O65 1.249 . S
C64 O66 1.270 . S
O65 Zn57 1.943 . S
O65 C64 1.249 . S
O66 Zn56 2.067 . S
O66 C64 1.270 . S
C67 O60 1.262 . S
C67 O68 1.232 . S
O68 C67 1.232 . S
C69 O61 1.260 . S
C69 O62 1.257 . S
Zn70 O73 2.031 . S
Zn70 O75 2.049 . S
Zn70 O80 2.067 . S
Zn71 O72 1.962 . S
Zn71 O74 1.986 . S
Zn71 O76 1.996 . S
Zn71 O79 1.943 . S
O72 Zn71 1.962 . S
O72 C77 1.254 . S
O73 Zn70 2.031 . S
O73 C77 1.269 . S
O74 Zn71 1.986 . S
O74 C81 1.262 . S
O75 Zn70 2.049 . S
O75 C83 1.260 . S
O76 Zn71 1.996 . S
O76 C83 1.257 . S
C77 O72 1.254 . S
C77 O73 1.269 . S
C78 O79 1.249 . S
C78 O80 1.270 . S
O79 Zn71 1.943 . S
O79 C78 1.249 . S
O80 Zn70 2.067 . S
O80 C78 1.270 . S
C81 O74 1.262 . S
C81 O82 1.232 . S
O82 C81 1.232 . S
C83 O75 1.260 . S
C83 O76 1.257 . S
Zn84 O87 2.031 . S
Zn84 O89 2.049 . S
Zn84 O94 2.067 . S
Zn85 O86 1.962 . S
Zn85 O88 1.986 . S
Zn85 O90 1.996 . S
Zn85 O93 1.943 . S
O86 Zn85 1.962 . S
O86 C91 1.254 . S
O87 Zn84 2.031 . S
O87 C91 1.269 . S
O88 Zn85 1.986 . S
O88 C95 1.262 . S
O89 Zn84 2.049 . S
O89 C97 1.260 . S
O90 Zn85 1.996 . S
O90 C97 1.257 . S
C91 O86 1.254 . S
C91 O87 1.269 . S
C92 O93 1.249 . S
C92 O94 1.270 . S
O93 Zn85 1.943 . S
O93 C92 1.249 . S
O94 Zn84 2.067 . S
O94 C92 1.270 . S
C95 O88 1.262 . S
C95 O96 1.232 . S
O96 C95 1.232 . S
C97 O89 1.260 . S
C97 O90 1.257 . S
Zn98 O101 2.031 . S
Zn98 O103 2.049 . S
Zn98 O108 2.067 1_554 S
Zn99 O100 1.962 1_556 S
Zn99 O102 1.986 . S
Zn99 O104 1.996 1_556 S
Zn99 O107 1.943 1_455 S
O100 Zn99 1.962 1_554 S
O100 C105 1.254 . S
O101 Zn98 2.031 . S
O101 C105 1.269 1_655 S
O102 Zn99 1.986 . S
O102 C109 1.262 . S
O103 Zn98 2.049 . S
O103 C111 1.260 . S
O104 Zn99 1.996 1_554 S
O104 C111 1.257 1_455 S
C105 O100 1.254 . S
C105 O101 1.269 1_455 S
C106 O107 1.249 . S
C106 O108 1.270 . S
O107 Zn99 1.943 1_655 S
O107 C106 1.249 . S
O108 Zn98 2.067 1_556 S
O108 C106 1.270 . S
C109 O102 1.262 . S
C109 O110 1.232 . S
O110 C109 1.232 . S
C111 O103 1.260 . S
C111 O104 1.257 1_655 S
Zn112 O115 2.031 . S
Zn112 O117 2.049 . S
Zn112 O122 2.067 . S
Zn113 O114 1.962 . S
Zn113 O116 1.986 . S
Zn113 O118 1.996 . S
Zn113 O121 1.943 1_545 S
O114 Zn113 1.962 . S
O114 C119 1.254 . S
O115 Zn112 2.031 . S
O115 C119 1.269 1_565 S
O116 Zn113 1.986 . S
O116 C123 1.262 . S
O117 Zn112 2.049 . S
O117 C125 1.260 . S
O118 Zn113 1.996 . S
O118 C125 1.257 1_545 S
C119 O114 1.254 . S
C119 O115 1.269 1_545 S
C120 O121 1.249 . S
C120 O122 1.270 . S
O121 Zn113 1.943 1_565 S
O121 C120 1.249 . S
O122 Zn112 2.067 . S
O122 C120 1.270 . S
C123 O116 1.262 . S
C123 O124 1.232 . S
O124 C123 1.232 . S
C125 O117 1.260 . S
C125 O118 1.257 1_565 S
Zn126 O129 2.031 . S
Zn126 O131 2.049 . S
Zn126 O136 2.067 . S
Zn127 O128 1.962 . S
Zn127 O130 1.986 . S
Zn127 O132 1.996 . S
Zn127 O135 1.943 . S
O128 Zn127 1.962 . S
O128 C133 1.254 . S
O129 Zn126 2.031 . S
O129 C133 1.269 . S
O130 Zn127 1.986 . S
O130 C137 1.262 . S
O131 Zn126 2.049 . S
O131 C139 1.260 . S
O132 Zn127 1.996 . S
O132 C139 1.257 . S
C133 O128 1.254 . S
C133 O129 1.269 . S
C134 O135 1.249 . S
C134 O136 1.270 . S
O135 Zn127 1.943 . S
O135 C134 1.249 . S
O136 Zn126 2.067 . S
O136 C134 1.270 . S
C137 O130 1.262 . S
C137 O138 1.232 . S
O138 C137 1.232 . S
C139 O131 1.260 . S
C139 O132 1.257 . S
Zn140 O143 2.031 . S
Zn140 O145 2.049 . S
Zn140 O150 2.067 . S
Zn141 O142 1.962 . S
Zn141 O144 1.986 . S
Zn141 O146 1.996 . S
Zn141 O149 1.943 . S
O142 Zn141 1.962 . S
O142 C147 1.254 . S
O143 Zn140 2.031 . S
O143 C147 1.269 . S
O144 Zn141 1.986 . S
O144 C151 1.262 . S
O145 Zn140 2.049 . S
O145 C153 1.260 . S
O146 Zn141 1.996 . S
O146 C153 1.257 . S
C147 O142 1.254 . S
C147 O143 1.269 . S
C148 O149 1.249 . S
C148 O150 1.270 . S
O149 Zn141 1.943 . S
O149 C148 1.249 . S
O150 Zn140 2.067 . S
O150 C148 1.270 . S
C151 O144 1.262 . S
C151 O152 1.232 . S
O152 C151 1.232 . S
C153 O145 1.260 . S
C153 O146 1.257 . S
Zn154 O157 2.031 1_554 S
Zn154 O159 2.049 . S
Zn154 O164 2.067 1_565 S
Zn155 O156 1.962 . S
Zn155 O158 1.986 1_566 S
Zn155 O160 1.996 1_556 S
Zn155 O163 1.943 1_566 S
O156 Zn155 1.962 . S
O156 C161 1.254 . S
O157 Zn154 2.031 1_556 S
O157 C161 1.269 . S
O158 Zn155 1.986 1_544 S
O158 C165 1.262 1_554 S
O159 Zn154 2.049 . S
O159 C167 1.260 . S
O160 Zn155 1.996 1_554 S
O160 C167 1.257 . S
C161 O156 1.254 . S
C161 O157 1.269 . S
C162 O163 1.249 . S
C162 O164 1.270 . S
O163 Zn155 1.943 1_544 S
O163 C162 1.249 . S
O164 Zn154 2.067 1_545 S
O164 C162 1.270 . S
C165 O158 1.262 1_556 S
C165 O166 1.232 . S
O166 C165 1.232 . S
C167 O159 1.260 . S
C167 O160 1.257 . S
Zn168 O171 2.031 . S
Zn168 O173 2.049 . S
Zn168 O178 2.067 . S
Zn169 O170 1.962 . S
Zn169 O172 1.986 . S
Zn169 O174 1.996 . S
Zn169 O177 1.943 . S
O170 Zn169 1.962 . S
O170 C175 1.254 1_554 S
O171 Zn168 2.031 . S
O171 C175 1.269 1_554 S
O172 Zn169 1.986 . S
O172 C179 1.262 . S
O173 Zn168 2.049 . S
O173 C181 1.260 . S
O174 Zn169 1.996 . S
O174 C181 1.257 . S
C175 O170 1.254 1_556 S
C175 O171 1.269 1_556 S
C176 O177 1.249 . S
C176 O178 1.270 . S
O177 Zn169 1.943 . S
O177 C176 1.249 . S
O178 Zn168 2.067 . S
O178 C176 1.270 . S
C179 O172 1.262 . S
C179 O180 1.232 . S
O180 C179 1.232 . S
C181 O173 1.260 . S
C181 O174 1.257 . S
Zn182 O185 2.031 . S
Zn182 O187 2.049 . S
Zn182 O192 2.067 . S
Zn183 O184 1.962 . S
Zn183 O186 1.986 . S
Zn183 O188 1.996 . S
Zn183 O191 1.943 . S
O184 Zn183 1.962 . S
O184 C189 1.254 . S
O185 Zn182 2.031 . S
O185 C189 1.269 . S
O186 Zn183 1.986 . S
O186 C193 1.262 . S
O187 Zn182 2.049 . S
O187 C195 1.260 . S
O188 Zn183 1.996 . S
O188 C195 1.257 . S
C189 O184 1.254 . S
C189 O185 1.269 . S
C190 O191 1.249 . S
C190 O192 1.270 . S
O191 Zn183 1.943 . S
O191 C190 1.249 . S
O192 Zn182 2.067 . S
O192 C190 1.270 . S
C193 O186 1.262 . S
C193 O194 1.232 . S
O194 C193 1.232 . S
C195 O187 1.260 . S
C195 O188 1.257 . S
Zn196 O199 2.031 . S
Zn196 O201 2.049 . S
Zn196 O206 2.067 . S
Zn197 O198 1.962 . S
Zn197 O200 1.986 . S
Zn197 O202 1.996 . S
Zn197 O205 1.943 . S
O198 Zn197 1.962 . S
O198 C203 1.254 . S
O199 Zn196 2.031 . S
O199 C203 1.269 . S
O200 Zn197 1.986 . S
O200 C207 1.262 . S
O201 Zn196 2.049 . S
O201 C209 1.260 . S
O202 Zn197 1.996 . S
O202 C209 1.257 . S
C203 O198 1.254 . S
C203 O199 1.269 . S
C204 O205 1.249 . S
C204 O206 1.270 . S
O205 Zn197 1.943 . S
O205 C204 1.249 . S
O206 Zn196 2.067 . S
O206 C204 1.270 . S
C207 O200 1.262 . S
C207 O208 1.232 . S
O208 C207 1.232 . S
C209 O201 1.260 . S
C209 O202 1.257 . S
Zn210 O213 2.031 . S
Zn210 O215 2.049 . S
Zn210 O220 2.067 . S
Zn211 O212 1.962 . S
Zn211 O214 1.986 . S
Zn211 O216 1.996 . S
Zn211 O219 1.943 . S
O212 Zn211 1.962 . S
O212 C217 1.254 . S
O213 Zn210 2.031 . S
O213 C217 1.269 . S
O214 Zn211 1.986 . S
O214 C221 1.262 . S
O215 Zn210 2.049 . S
O215 C223 1.260 . S
O216 Zn211 1.996 . S
O216 C223 1.257 . S
C217 O212 1.254 . S
C217 O213 1.269 . S
C218 O219 1.249 . S
C218 O220 1.270 . S
O219 Zn211 1.943 . S
O219 C218 1.249 . S
O220 Zn210 2.067 . S
O220 C218 1.270 . S
C221 O214 1.262 . S
C221 O222 1.232 . S
O222 C221 1.232 . S
C223 O215 1.260 . S
C223 O216 1.257 . S
Zn224 O227 2.031 . S
Zn224 O229 2.049 . S
Zn224 O234 2.067 1_455 S
Zn225 O226 1.962 1_655 S
Zn225 O228 1.986 . S
Zn225 O230 1.996 1_655 S
Zn225 O233 1.943 1_545 S
O226 Zn225 1.962 1_455 S
O226 C231 1.254 . S
O227 Zn224 2.031 . S
O227 C231 1.269 1_565 S
O228 Zn225 1.986 . S
O228 C235 1.262 . S
O229 Zn224 2.049 . S
O229 C237 1.260 1_565 S
O230 Zn225 1.996 1_455 S
O230 C237 1.257 . S
C231 O226 1.254 . S
C231 O227 1.269 1_545 S
C232 O233 1.249 . S
C232 O234 1.270 . S
O233 Zn225 1.943 1_565 S
O233 C232 1.249 . S
O234 Zn224 2.067 1_655 S
O234 C232 1.270 . S
C235 O228 1.262 . S
C235 O236 1.232 . S
O236 C235 1.232 . S
C237 O229 1.260 1_545 S
C237 O230 1.257 . S
Zn238 O241 2.031 . S
Zn238 O243 2.049 . S
Zn238 O248 2.067 . S
Zn239 O240 1.962 . S
Zn239 O242 1.986 . S
Zn239 O244 1.996 . S
Zn239 O247 1.943 . S
O240 Zn239 1.962 . S
O240 C245 1.254 . S
O241 Zn238 2.031 . S
O241 C245 1.269 . S
O242 Zn239 1.986 . S
O242 C249 1.262 . S
O243 Zn238 2.049 . S
O243 C251 1.260 . S
O244 Zn239 1.996 . S
O244 C251 1.257 . S
C245 O240 1.254 . S
C245 O241 1.269 . S
C246 O247 1.249 . S
C246 O248 1.270 . S
O247 Zn239 1.943 . S
O247 C246 1.249 . S
O248 Zn238 2.067 . S
O248 C246 1.270 . S
C249 O242 1.262 . S
C249 O250 1.232 . S
O250 C249 1.232 . S
C251 O243 1.260 . S
C251 O244 1.257 . S
Zn252 O255 2.031 . S
Zn252 O257 2.049 . S
Zn252 O262 2.067 . S
Zn253 O254 1.962 . S
Zn253 O256 1.986 . S
Zn253 O258 1.996 . S
Zn253 O261 1.943 . S
O254 Zn253 1.962 . S
O254 C259 1.254 . S
O255 Zn252 2.031 . S
O255 C259 1.269 . S
O256 Zn253 1.986 . S
O256 C263 1.262 . S
O257 Zn252 2.049 . S
O257 C265 1.260 . S
O258 Zn253 1.996 . S
O258 C265 1.257 . S
C259 O254 1.254 . S
C259 O255 1.269 . S
C260 O261 1.249 . S
C260 O262 1.270 . S
O261 Zn253 1.943 . S
O261 C260 1.249 . S
O262 Zn252 2.067 . S
O262 C260 1.270 . S
C263 O256 1.262 . S
C263 O264 1.232 . S
O264 C263 1.232 . S
C265 O257 1.260 . S
C265 O258 1.257 . S
Zn266 O269 2.031 . S
Zn266 O271 2.049 . S
Zn266 O276 2.067 . S
Zn267 O268 1.962 . S
Zn267 O270 1.986 . S
Zn267 O272 1.996 . S
Zn267 O275 1.943 . S
O268 Zn267 1.962 . S
O268 C273 1.254 . S
O269 Zn266 2.031 . S
O269 C273 1.269 . S
O270 Zn267 1.986 . S
O270 C277 1.262 . S
O271 Zn266 2.049 . S
O271 C279 1.260 . S
O272 Zn267 1.996 . S
O272 C279 1.257 . S
C273 O268 1.254 . S
C273 O269 1.269 . S
C274 O275 1.249 . S
C274 O276 1.270 . S
O275 Zn267 1.943 . S
O275 C274 1.249 . S
O276 Zn266 2.067 . S
O276 C274 1.270 . S
C277 O270 1.262 . S
C277 O278 1.232 . S
O278 C277 1.232 . S
C279 O271 1.260 . S
C279 O272 1.257 . S
Zn280 O283 2.031 1_554 S
Zn280 O285 2.049 . S
Zn280 O290 2.067 . S
Zn281 O282 1.962 1_554 S
Zn281 O284 1.986 . S
Zn281 O286 1.996 . S
Zn281 O289 1.943 . S
O282 Zn281 1.962 1_556 S
O282 C287 1.254 . S
O283 Zn280 2.031 1_556 S
O283 C287 1.269 . S
O284 Zn281 1.986 . S
O284 C291 1.262 . S
O285 Zn280 2.049 . S
O285 C293 1.260 . S
O286 Zn281 1.996 . S
O286 C293 1.257 . S
C287 O282 1.254 . S
C287 O283 1.269 . S
C288 O289 1.249 . S
C288 O290 1.270 . S
O289 Zn281 1.943 . S
O289 C288 1.249 . S
O290 Zn280 2.067 . S
O290 C288 1.270 . S
C291 O284 1.262 . S
C291 O292 1.232 1_554 S
O292 C291 1.232 1_556 S
C293 O285 1.260 . S
C293 O286 1.257 . S
Zn294 O297 2.031 . S
Zn294 O299 2.049 . S
Zn294 O304 2.067 . S
Zn295 O296 1.962 . S
Zn295 O298 1.986 . S
Zn295 O300 1.996 . S
Zn295 O303 1.943 . S
O296 Zn295 1.962 . S
O296 C301 1.254 . S
O297 Zn294 2.031 . S
O297 C301 1.269 . S
O298 Zn295 1.986 . S
O298 C305 1.262 . S
O299 Zn294 2.049 . S
O299 C307 1.260 . S
O300 Zn295 1.996 . S
O300 C307 1.257 . S
C301 O296 1.254 . S
C301 O297 1.269 . S
C302 O303 1.249 . S
C302 O304 1.270 . S
O303 Zn295 1.943 . S
O303 C302 1.249 . S
O304 Zn294 2.067 . S
O304 C302 1.270 . S
C305 O298 1.262 . S
C305 O306 1.232 . S
O306 C305 1.232 . S
C307 O299 1.260 . S
C307 O300 1.257 . S
Zn308 O311 2.031 . S
Zn308 O313 2.049 . S
Zn308 O318 2.067 . S
Zn309 O310 1.962 . S
Zn309 O312 1.986 . S
Zn309 O314 1.996 . S
Zn309 O317 1.943 . S
O310 Zn309 1.962 . S
O310 C315 1.254 . S
O311 Zn308 2.031 . S
O311 C315 1.269 . S
O312 Zn309 1.986 . S
O312 C319 1.262 . S
O313 Zn308 2.049 . S
O313 C321 1.260 . S
O314 Zn309 1.996 . S
O314 C321 1.257 . S
C315 O310 1.254 . S
C315 O311 1.269 . S
C316 O317 1.249 . S
C316 O318 1.270 . S
O317 Zn309 1.943 . S
O317 C316 1.249 . S
O318 Zn308 2.067 . S
O318 C316 1.270 . S
C319 O312 1.262 . S
C319 O320 1.232 . S
O320 C319 1.232 . S
C321 O313 1.260 . S
C321 O314 1.257 . S
Zn322 O325 2.031 . S
Zn322 O327 2.049 . S
Zn322 O332 2.067 . S
Zn323 O324 1.962 . S
Zn323 O326 1.986 . S
Zn323 O328 1.996 . S
Zn323 O331 1.943 . S
O324 Zn323 1.962 . S
O324 C329 1.254 . S
O325 Zn322 2.031 . S
O325 C329 1.269 . S
O326 Zn323 1.986 . S
O326 C333 1.262 . S
O327 Zn322 2.049 . S
O327 C335 1.260 . S
O328 Zn323 1.996 . S
O328 C335 1.257 . S
C329 O324 1.254 . S
C329 O325 1.269 . S
C330 O331 1.249 . S
C330 O332 1.270 . S
O331 Zn323 1.943 . S
O331 C330 1.249 . S
O332 Zn322 2.067 . S
O332 C330 1.270 . S
C333 O326 1.262 . S
C333 O334 1.232 . S
O334 C333 1.232 . S
C335 O327 1.260 . S
C335 O328 1.257 . S
Eu336 N365 2.600 . S
Eu336 N371 2.562 . S
Eu336 O380 2.462 . S
Eu336 O381 2.373 . S
Eu336 O383 2.432 . S
Eu336 O384 2.291 . S
Eu336 O388 2.335 . S
Eu336 O391 2.372 . S
Eu336 C400 2.787 . S
C337 N338 1.365 . S
C337 C340 1.405 . S
C337 C344 1.448 . S
N338 C337 1.365 . S
N338 C341 1.319 . S
N338 Eu347 2.600 1_566 S
C339 C341 1.397 . S
C339 C342 1.367 . S
C339 H359 0.931 . S
C340 C337 1.405 . S
C340 C342 1.403 . S
C340 C346 1.439 . S
C341 N338 1.319 . S
C341 C339 1.397 . S
C341 H352 0.930 . S
C342 C339 1.367 . S
C342 C340 1.403 . S
C342 H363 0.929 . S
C343 C344 1.430 . S
C343 C345 1.387 . S
C343 C349 1.404 1_556 S
C344 C337 1.448 . S
C344 C343 1.430 . S
C344 N348 1.351 1_556 S
C345 C343 1.387 . S
C345 C346 1.374 . S
C345 H360 0.931 . S
C346 C340 1.439 . S
C346 C345 1.374 . S
C346 H361 0.931 . S
Eu347 N338 2.600 1_544 S
Eu347 N348 2.562 1_545 S
Eu347 O382 2.335 1_655 S
Eu347 O385 2.372 1_654 S
Eu347 O386 2.462 . S
Eu347 O387 2.373 1_645 S
Eu347 O389 2.432 1_554 S
Eu347 O390 2.291 1_655 S
Eu347 C411 2.786 . S
N348 C344 1.351 1_554 S
N348 Eu347 2.562 1_565 S
N348 C350 1.325 . S
C349 C343 1.404 1_554 S
C349 C351 1.366 . S
C349 H357 0.930 . S
C350 N348 1.325 . S
C350 C351 1.416 . S
C350 H356 0.929 . S
C351 C349 1.366 . S
C351 C350 1.416 . S
C351 H353 0.930 . S
H352 C341 0.930 . S
H353 C351 0.930 . S
H354 C369 0.930 . S
H355 C376 0.930 . S
H356 C350 0.929 . S
H357 C349 0.930 . S
H358 C372 0.929 . S
H359 C339 0.931 . S
H360 C345 0.931 . S
H361 C346 0.931 . S
H362 C367 0.931 . S
H363 C342 0.929 . S
H364 C375 0.930 . S
N365 Eu336 2.600 . S
N365 C366 1.365 . S
N365 C369 1.319 . S
C366 N365 1.365 . S
C366 C368 1.405 . S
C366 C374 1.448 . S
C367 H362 0.931 . S
C367 C369 1.397 . S
C367 C370 1.367 . S
C368 C366 1.405 . S
C368 C370 1.403 . S
C368 C401 1.439 . S
C369 H354 0.930 . S
C369 N365 1.319 . S
C369 C367 1.397 . S
C370 C367 1.367 . S
C370 C368 1.403 . S
C370 H377 0.929 . S
N371 Eu336 2.562 . S
N371 C372 1.325 . S
N371 C374 1.351 . S
C372 H358 0.929 . S
C372 N371 1.325 . S
C372 C376 1.416 . S
C373 C374 1.430 . S
C373 C375 1.404 . S
C373 C402 1.387 . S
C374 C366 1.448 . S
C374 N371 1.351 . S
C374 C373 1.430 . S
C375 H364 0.930 . S
C375 C373 1.404 . S
C375 C376 1.366 . S
C376 H355 0.930 . S
C376 C372 1.416 . S
C376 C375 1.366 . S
H377 C370 0.929 . S
H378 C401 0.931 . S
H379 C402 0.931 . S
O380 Eu336 2.462 . S
O380 C400 1.252 . S
O381 Eu336 2.373 . S
O381 C392 1.249 . S
O382 Eu347 2.335 1_455 S
O382 C392 1.264 . S
O383 Eu336 2.432 . S
O383 C400 1.268 . S
O384 Eu336 2.291 . S
O384 C399 1.255 1_554 S
O385 Eu347 2.372 1_456 S
O385 C399 1.257 . S
O386 Eu347 2.462 . S
O386 C411 1.272 . S
O387 Eu347 2.373 1_465 S
O387 C403 1.249 . S
O388 Eu336 2.335 . S
O388 C403 1.264 1_545 S
O389 Eu347 2.432 1_556 S
O389 C411 1.248 1_556 S
O390 Eu347 2.291 1_455 S
O390 C410 1.255 . S
O391 Eu336 2.372 . S
O391 C410 1.257 . S
C392 O381 1.249 . S
C392 O382 1.264 . S
C393 C396 1.382 . S
C393 C398 1.390 . S
C393 C400 1.506 . S
C394 C395 1.398 . S
C394 C398 1.392 . S
C395 C394 1.398 . S
C395 C397 1.372 . S
C395 H412 0.931 . S
C396 C393 1.382 . S
C396 C397 1.390 . S
C396 H413 0.931 . S
C397 C395 1.372 . S
C397 C396 1.390 . S
C397 H414 0.929 . S
C398 C393 1.390 . S
C398 C394 1.392 . S
C398 H415 0.930 . S
C399 O384 1.255 1_556 S
C399 O385 1.257 . S
C400 Eu336 2.787 . S
C400 O380 1.252 . S
C400 O383 1.268 . S
C400 C393 1.506 . S
C401 C368 1.439 . S
C401 H378 0.931 . S
C401 C402 1.374 . S
C402 C373 1.387 . S
C402 H379 0.931 . S
C402 C401 1.374 . S
C403 O387 1.249 . S
C403 O388 1.264 1_565 S
C404 C407 1.382 . S
C404 C408 1.390 1_556 S
C404 C411 1.507 1_556 S
C405 C406 1.398 1_554 S
C405 C408 1.392 . S
C406 C405 1.398 1_556 S
C406 C409 1.372 . S
C406 H416 0.931 . S
C407 C404 1.382 . S
C407 C409 1.390 . S
C407 H417 0.931 . S
C408 C404 1.390 1_554 S
C408 C405 1.392 . S
C408 H418 0.930 . S
C409 C406 1.372 . S
C409 C407 1.390 . S
C409 H419 0.929 . S
C410 O390 1.255 . S
C410 O391 1.257 . S
C411 Eu347 2.786 . S
C411 O386 1.272 . S
C411 O389 1.248 1_554 S
C411 C404 1.507 1_554 S
H412 C395 0.931 . S
H413 C396 0.931 . S
H414 C397 0.929 . S
H415 C398 0.930 . S
H416 C406 0.931 . S
H417 C407 0.931 . S
H418 C408 0.930 . S
H419 C409 0.929 . S
Eu420 N449 2.600 . S
Eu420 N455 2.562 . S
Eu420 O464 2.462 . S
Eu420 O465 2.373 . S
Eu420 O467 2.432 . S
Eu420 O468 2.291 . S
Eu420 O472 2.335 . S
Eu420 O475 2.372 . S
Eu420 C484 2.787 . S
C421 N422 1.365 . S
C421 C424 1.405 . S
C421 C428 1.448 . S
N422 C421 1.365 . S
N422 C425 1.319 . S
N422 Eu431 2.600 . S
C423 C425 1.397 . S
C423 C426 1.367 . S
C423 H443 0.931 . S
C424 C421 1.405 . S
C424 C426 1.403 . S
C424 C430 1.439 . S
C425 N422 1.319 . S
C425 C423 1.397 . S
C425 H436 0.930 . S
C426 C423 1.367 . S
C426 C424 1.403 . S
C426 H447 0.929 . S
C427 C428 1.430 . S
C427 C429 1.387 . S
C427 C433 1.404 . S
C428 C421 1.448 . S
C428 C427 1.430 . S
C428 N432 1.351 . S
C429 C427 1.387 . S
C429 C430 1.374 . S
C429 H444 0.931 . S
C430 C424 1.439 . S
C430 C429 1.374 . S
C430 H445 0.931 . S
Eu431 N422 2.600 . S
Eu431 N432 2.562 . S
Eu431 O466 2.335 . S
Eu431 O469 2.372 . S
Eu431 O470 2.462 . S
Eu431 O471 2.373 . S
Eu431 O473 2.432 . S
Eu431 O474 2.291 . S
Eu431 C495 2.787 . S
N432 C428 1.351 . S
N432 Eu431 2.562 . S
N432 C434 1.325 . S
C433 C427 1.404 . S
C433 C435 1.366 . S
C433 H441 0.930 . S
C434 N432 1.325 . S
C434 C435 1.416 . S
C434 H440 0.929 . S
C435 C433 1.366 . S
C435 C434 1.416 . S
C435 H437 0.930 . S
H436 C425 0.930 . S
H437 C435 0.930 . S
H438 C453 0.930 . S
H439 C460 0.930 . S
H440 C434 0.929 . S
H441 C433 0.930 . S
H442 C456 0.929 . S
H443 C423 0.931 . S
H444 C429 0.931 . S
H445 C430 0.931 . S
H446 C451 0.931 . S
H447 C426 0.929 . S
H448 C459 0.930 . S
N449 Eu420 2.600 . S
N449 C450 1.365 . S
N449 C453 1.319 . S
C450 N449 1.365 . S
C450 C452 1.405 . S
C450 C458 1.448 . S
C451 H446 0.931 . S
C451 C453 1.397 . S
C451 C454 1.367 . S
C452 C450 1.405 . S
C452 C454 1.403 . S
C452 C485 1.439 . S
C453 H438 0.930 . S
C453 N449 1.319 . S
C453 C451 1.397 . S
C454 C451 1.367 . S
C454 C452 1.403 . S
C454 H461 0.929 . S
N455 Eu420 2.562 . S
N455 C456 1.325 . S
N455 C458 1.351 . S
C456 H442 0.929 . S
C456 N455 1.325 . S
C456 C460 1.416 . S
C457 C458 1.430 . S
C457 C459 1.404 . S
C457 C486 1.387 . S
C458 C450 1.448 . S
C458 N455 1.351 . S
C458 C457 1.430 . S
C459 H448 0.930 . S
C459 C457 1.404 . S
C459 C460 1.366 . S
C460 H439 0.930 . S
C460 C456 1.416 . S
C460 C459 1.366 . S
H461 C454 0.929 . S
H462 C485 0.949 . S
H463 C486 0.931 1_545 S
O464 Eu420 2.462 . S
O464 C484 1.252 . S
O465 Eu420 2.373 . S
O465 C476 1.249 . S
O466 Eu431 2.335 . S
O466 C476 1.264 . S
O467 Eu420 2.432 . S
O467 C484 1.268 . S
O468 Eu420 2.291 . S
O468 C483 1.255 . S
O469 Eu431 2.372 . S
O469 C483 1.257 . S
O470 Eu431 2.462 . S
O470 C495 1.252 . S
O471 Eu431 2.373 . S
O471 C487 1.249 . S
O472 Eu420 2.335 . S
O472 C487 1.264 . S
O473 Eu431 2.432 . S
O473 C495 1.268 . S
O474 Eu431 2.291 . S
O474 C494 1.255 . S
O475 Eu420 2.372 . S
O475 C494 1.257 . S
C476 O465 1.249 . S
C476 O466 1.264 . S
C477 C480 1.382 . S
C477 C482 1.390 . S
C477 C484 1.506 . S
C478 C479 1.398 . S
C478 C482 1.392 . S
C479 C478 1.398 . S
C479 C481 1.372 . S
C479 H496 0.931 . S
C480 C477 1.382 . S
C480 C481 1.390 . S
C480 H497 0.931 . S
C481 C479 1.372 . S
C481 C480 1.390 . S
C481 H498 0.929 . S
C482 C477 1.390 . S
C482 C478 1.392 . S
C482 H499 0.930 . S
C483 O468 1.255 . S
C483 O469 1.257 . S
C484 Eu420 2.787 . S
C484 O464 1.252 . S
C484 O467 1.268 . S
C484 C477 1.506 . S
C485 C452 1.439 . S
C485 H462 0.949 . S
C485 C486 1.374 . S
C486 C457 1.387 . S
C486 H463 0.931 1_565 S
C486 C485 1.374 . S
C487 O471 1.249 . S
C487 O472 1.264 . S
C488 C491 1.382 . S
C488 C492 1.390 . S
C488 C495 1.506 . S
C489 C490 1.398 . S
C489 C492 1.392 . S
C490 C489 1.398 . S
C490 C493 1.372 . S
C490 H500 0.931 . S
C491 C488 1.382 . S
C491 C493 1.390 . S
C491 H501 0.931 . S
C492 C488 1.390 . S
C492 C489 1.392 . S
C492 H502 0.930 . S
C493 C490 1.372 . S
C493 C491 1.390 . S
C493 H503 0.929 . S
C494 O474 1.255 . S
C494 O475 1.257 . S
C495 Eu431 2.787 . S
C495 O470 1.252 . S
C495 O473 1.268 . S
C495 C488 1.506 . S
H496 C479 0.931 . S
H497 C480 0.931 . S
H498 C481 0.929 . S
H499 C482 0.930 . S
H500 C490 0.931 . S
H501 C491 0.931 . S
H502 C492 0.930 . S
H503 C493 0.929 . S
Eu504 N533 2.600 . S
Eu504 N539 2.562 1_545 S
Eu504 O548 2.462 . S
Eu504 O549 2.373 1_545 S
Eu504 O551 2.432 . S
Eu504 O552 2.291 . S
Eu504 O556 2.335 . S
Eu504 O559 2.372 . S
Eu504 C568 2.787 . S
C505 N506 1.365 . S
C505 C508 1.405 . S
C505 C512 1.448 . S
N506 C505 1.365 . S
N506 C509 1.319 . S
N506 Eu515 2.600 . S
C507 C509 1.397 . S
C507 C510 1.367 . S
C507 H527 0.931 . S
C508 C505 1.405 . S
C508 C510 1.403 . S
C508 C514 1.439 . S
C509 N506 1.319 . S
C509 C507 1.397 . S
C509 H520 0.930 . S
C510 C507 1.367 . S
C510 C508 1.403 . S
C510 H531 0.929 . S
C511 C512 1.430 . S
C511 C513 1.387 . S
C511 C517 1.404 . S
C512 C505 1.448 . S
C512 C511 1.430 . S
C512 N516 1.351 . S
C513 C511 1.387 . S
C513 C514 1.374 . S
C513 H528 0.931 . S
C514 C508 1.439 . S
C514 C513 1.374 . S
C514 H529 0.931 . S
Eu515 N506 2.600 . S
Eu515 N516 2.562 . S
Eu515 O550 2.335 1_545 S
Eu515 O553 2.372 . S
Eu515 O554 2.462 . S
Eu515 O555 2.373 . S
Eu515 O557 2.432 . S
Eu515 O558 2.291 . S
Eu515 C579 2.787 . S
N516 C512 1.351 . S
N516 Eu515 2.562 . S
N516 C518 1.325 . S
C517 C511 1.404 . S
C517 C519 1.366 . S
C517 H525 0.930 . S
C518 N516 1.325 . S
C518 C519 1.416 . S
C518 H524 0.929 . S
C519 C517 1.366 . S
C519 C518 1.416 . S
C519 H521 0.930 . S
H520 C509 0.930 . S
H521 C519 0.930 . S
H522 C537 0.930 . S
H523 C544 0.930 . S
H524 C518 0.929 . S
H525 C517 0.930 . S
H526 C540 0.929 . S
H527 C507 0.931 . S
H528 C513 0.931 . S
H529 C514 0.931 . S
H530 C535 0.931 . S
H531 C510 0.929 . S
H532 C543 0.930 . S
N533 Eu504 2.600 . S
N533 C534 1.365 1_545 S
N533 C537 1.319 . S
C534 N533 1.365 1_565 S
C534 C536 1.405 . S
C534 C542 1.448 . S
C535 H530 0.931 . S
C535 C537 1.397 . S
C535 C538 1.367 1_545 S
C536 C534 1.405 . S
C536 C538 1.403 . S
C536 C569 1.439 . S
C537 H522 0.930 . S
C537 N533 1.319 . S
C537 C535 1.397 . S
C538 C535 1.367 1_565 S
C538 C536 1.403 . S
C538 H545 0.929 . S
N539 Eu504 2.562 1_565 S
N539 C540 1.325 . S
N539 C542 1.351 . S
C540 H526 0.929 . S
C540 N539 1.325 . S
C540 C544 1.416 . S
C541 C542 1.430 . S
C541 C543 1.404 . S
C541 C570 1.387 . S
C542 C534 1.448 . S
C542 N539 1.351 . S
C542 C541 1.430 . S
C543 H532 0.930 . S
C543 C541 1.404 . S
C543 C544 1.366 . S
C544 H523 0.930 . S
C544 C540 1.416 . S
C544 C543 1.366 . S
H545 C538 0.929 . S
H546 C569 0.931 . S
H547 C570 0.931 . S
O548 Eu504 2.462 . S
O548 C568 1.252 . S
O549 Eu504 2.373 1_565 S
O549 C560 1.249 . S
O550 Eu515 2.335 1_565 S
O550 C560 1.264 . S
O551 Eu504 2.432 . S
O551 C568 1.268 . S
O552 Eu504 2.291 . S
O552 C567 1.255 . S
O553 Eu515 2.372 . S
O553 C567 1.257 . S
O554 Eu515 2.462 . S
O554 C579 1.252 . S
O555 Eu515 2.373 . S
O555 C571 1.249 . S
O556 Eu504 2.335 . S
O556 C571 1.264 . S
O557 Eu515 2.432 . S
O557 C579 1.268 . S
O558 Eu515 2.291 . S
O558 C578 1.255 . S
O559 Eu504 2.372 . S
O559 C578 1.257 . S
C560 O549 1.249 . S
C560 O550 1.264 . S
C561 C564 1.382 . S
C561 C566 1.390 . S
C561 C568 1.506 . S
C562 C563 1.398 . S
C562 C566 1.392 . S
C563 C562 1.398 . S
C563 C565 1.372 . S
C563 H580 0.931 . S
C564 C561 1.382 . S
C564 C565 1.390 . S
C564 H581 0.931 . S
C565 C563 1.372 . S
C565 C564 1.390 . S
C565 H582 0.929 . S
C566 C561 1.390 . S
C566 C562 1.392 . S
C566 H583 0.930 . S
C567 O552 1.255 . S
C567 O553 1.257 . S
C568 Eu504 2.787 . S
C568 O548 1.252 . S
C568 O551 1.268 . S
C568 C561 1.506 . S
C569 C536 1.439 . S
C569 H546 0.931 . S
C569 C570 1.374 . S
C570 C541 1.387 . S
C570 H547 0.931 . S
C570 C569 1.374 . S
C571 O555 1.249 . S
C571 O556 1.264 . S
C572 C575 1.382 . S
C572 C576 1.390 . S
C572 C579 1.506 1_565 S
C573 C574 1.398 . S
C573 C576 1.392 . S
C574 C573 1.398 . S
C574 C577 1.372 . S
C574 H584 0.931 . S
C575 C572 1.382 . S
C575 C577 1.390 . S
C575 H585 0.931 . S
C576 C572 1.390 . S
C576 C573 1.392 . S
C576 H586 0.930 1_565 S
C577 C574 1.372 . S
C577 C575 1.390 . S
C577 H587 0.929 . S
C578 O558 1.255 . S
C578 O559 1.257 . S
C579 Eu515 2.787 . S
C579 O554 1.252 . S
C579 O557 1.268 . S
C579 C572 1.506 1_545 S
H580 C563 0.931 . S
H581 C564 0.931 . S
H582 C565 0.929 . S
H583 C566 0.930 . S
H584 C574 0.931 . S
H585 C575 0.931 . S
H586 C576 0.930 1_545 S
H587 C577 0.929 . S
Eu588 N617 2.600 . S
Eu588 N623 2.562 . S
Eu588 O632 2.462 . S
Eu588 O633 2.373 . S
Eu588 O635 2.432 . S
Eu588 O636 2.291 . S
Eu588 O640 2.335 . S
Eu588 O643 2.372 . S
Eu588 C652 2.787 . S
C589 N590 1.365 . S
C589 C592 1.405 . S
C589 C596 1.448 . S
N590 C589 1.365 . S
N590 C593 1.319 . S
N590 Eu599 2.600 . S
C591 C593 1.397 . S
C591 C594 1.367 . S
C591 H611 0.931 . S
C592 C589 1.405 . S
C592 C594 1.403 . S
C592 C598 1.439 . S
C593 N590 1.319 . S
C593 C591 1.397 . S
C593 H604 0.930 . S
C594 C591 1.367 . S
C594 C592 1.403 . S
C594 H615 0.929 . S
C595 C596 1.430 . S
C595 C597 1.387 . S
C595 C601 1.404 . S
C596 C589 1.448 . S
C596 C595 1.430 . S
C596 N600 1.351 . S
C597 C595 1.387 . S
C597 C598 1.374 . S
C597 H612 0.931 . S
C598 C592 1.439 . S
C598 C597 1.374 . S
C598 H613 0.931 . S
Eu599 N590 2.600 . S
Eu599 N600 2.562 . S
Eu599 O634 2.335 . S
Eu599 O637 2.372 . S
Eu599 O638 2.462 . S
Eu599 O639 2.373 . S
Eu599 O641 2.432 . S
Eu599 O642 2.291 . S
Eu599 C663 2.787 . S
N600 C596 1.351 . S
N600 Eu599 2.562 . S
N600 C602 1.325 . S
C601 C595 1.404 . S
C601 C603 1.366 . S
C601 H609 0.930 . S
C602 N600 1.325 . S
C602 C603 1.416 . S
C602 H608 0.929 . S
C603 C601 1.366 . S
C603 C602 1.416 . S
C603 H605 0.930 . S
H604 C593 0.930 . S
H605 C603 0.930 . S
H606 C621 0.930 . S
H607 C628 0.930 . S
H608 C602 0.929 . S
H609 C601 0.930 . S
H610 C624 0.929 . S
H611 C591 0.931 . S
H612 C597 0.931 . S
H613 C598 0.931 . S
H614 C619 0.931 . S
H615 C594 0.929 . S
H616 C627 0.930 1_554 S
N617 Eu588 2.600 . S
N617 C618 1.365 . S
N617 C621 1.319 . S
C618 N617 1.365 . S
C618 C620 1.405 . S
C618 C626 1.448 . S
C619 H614 0.931 . S
C619 C621 1.397 . S
C619 C622 1.367 . S
C620 C618 1.405 . S
C620 C622 1.403 . S
C620 C653 1.439 1_556 S
C621 H606 0.930 . S
C621 N617 1.319 . S
C621 C619 1.397 . S
C622 C619 1.367 . S
C622 C620 1.403 . S
C622 H629 0.929 . S
N623 Eu588 2.562 . S
N623 C624 1.325 . S
N623 C626 1.351 . S
C624 H610 0.929 . S
C624 N623 1.325 . S
C624 C628 1.416 . S
C625 C626 1.430 . S
C625 C627 1.404 . S
C625 C654 1.387 1_556 S
C626 C618 1.448 . S
C626 N623 1.351 . S
C626 C625 1.430 . S
C627 H616 0.930 1_556 S
C627 C625 1.404 . S
C627 C628 1.366 . S
C628 H607 0.930 . S
C628 C624 1.416 . S
C628 C627 1.366 . S
H629 C622 0.929 . S
H630 C653 0.931 . S
H631 C654 0.931 . S
O632 Eu588 2.462 . S
O632 C652 1.252 . S
O633 Eu588 2.373 . S
O633 C644 1.249 . S
O634 Eu599 2.335 . S
O634 C644 1.264 . S
O635 Eu588 2.432 . S
O635 C652 1.268 . S
O636 Eu588 2.291 . S
O636 C651 1.255 . S
O637 Eu599 2.372 . S
O637 C651 1.257 . S
O638 Eu599 2.462 . S
O638 C663 1.252 . S
O639 Eu599 2.373 . S
O639 C655 1.249 . S
O640 Eu588 2.335 . S
O640 C655 1.264 . S
O641 Eu599 2.432 . S
O641 C663 1.268 . S
O642 Eu599 2.291 . S
O642 C662 1.255 . S
O643 Eu588 2.372 . S
O643 C662 1.257 . S
C644 O633 1.249 . S
C644 O634 1.264 . S
C645 C648 1.382 . S
C645 C650 1.390 . S
C645 C652 1.506 . S
C646 C647 1.398 . S
C646 C650 1.392 . S
C647 C646 1.398 . S
C647 C649 1.372 . S
C647 H664 0.931 . S
C648 C645 1.382 . S
C648 C649 1.390 . S
C648 H665 0.931 . S
C649 C647 1.372 . S
C649 C648 1.390 . S
C649 H666 0.929 . S
C650 C645 1.390 . S
C650 C646 1.392 . S
C650 H667 0.930 . S
C651 O636 1.255 . S
C651 O637 1.257 . S
C652 Eu588 2.787 . S
C652 O632 1.252 . S
C652 O635 1.268 . S
C652 C645 1.506 . S
C653 C620 1.439 1_554 S
C653 H630 0.931 . S
C653 C654 1.374 . S
C654 C625 1.387 1_554 S
C654 H631 0.931 . S
C654 C653 1.374 . S
C655 O639 1.249 . S
C655 O640 1.264 . S
C656 C659 1.382 . S
C656 C660 1.390 . S
C656 C663 1.506 . S
C657 C658 1.398 . S
C657 C660 1.392 . S
C658 C657 1.398 . S
C658 C661 1.372 . S
C658 H668 0.931 . S
C659 C656 1.382 . S
C659 C661 1.390 . S
C659 H669 0.931 . S
C660 C656 1.390 . S
C660 C657 1.392 . S
C660 H670 0.930 . S
C661 C658 1.372 . S
C661 C659 1.390 . S
C661 H671 0.929 . S
C662 O642 1.255 . S
C662 O643 1.257 . S
C663 Eu599 2.787 . S
C663 O638 1.252 . S
C663 O641 1.268 . S
C663 C656 1.506 . S
H664 C647 0.931 . S
H665 C648 0.931 . S
H666 C649 0.929 . S
H667 C650 0.930 . S
H668 C658 0.931 . S
H669 C659 0.931 . S
H670 C660 0.930 . S
H671 C661 0.929 . S
Eu672 N701 2.600 1_545 S
Eu672 N707 2.562 1_545 S
Eu672 O716 2.462 1_545 S
Eu672 O717 2.373 . S
Eu672 O719 2.432 1_545 S
Eu672 O720 2.291 . S
Eu672 O724 2.335 . S
Eu672 O727 2.372 . S
Eu672 C736 2.787 1_545 S
C673 N674 1.365 1_455 S
C673 C676 1.405 1_455 S
C673 C680 1.448 . S
N674 C673 1.365 1_655 S
N674 C677 1.319 . S
N674 Eu683 2.600 1_655 S
C675 C677 1.397 . S
C675 C678 1.367 . S
C675 H695 0.931 . S
C676 C673 1.405 1_655 S
C676 C678 1.403 . S
C676 C682 1.439 1_655 S
C677 N674 1.319 . S
C677 C675 1.397 . S
C677 H688 0.930 . S
C678 C675 1.367 . S
C678 C676 1.403 . S
C678 H699 0.929 . S
C679 C680 1.430 . S
C679 C681 1.387 . S
C679 C685 1.404 . S
C680 C673 1.448 . S
C680 C679 1.430 . S
C680 N684 1.351 . S
C681 C679 1.387 . S
C681 C682 1.374 . S
C681 H696 0.931 . S
C682 C676 1.439 1_455 S
C682 C681 1.374 . S
C682 H697 0.931 . S
Eu683 N674 2.600 1_455 S
Eu683 N684 2.562 . S
Eu683 O718 2.335 . S
Eu683 O721 2.372 1_455 S
Eu683 O722 2.462 . S
Eu683 O723 2.373 . S
Eu683 O725 2.432 1_455 S
Eu683 O726 2.291 . S
Eu683 C747 2.787 . S
N684 C680 1.351 . S
N684 Eu683 2.562 . S
N684 C686 1.325 . S
C685 C679 1.404 . S
C685 C687 1.366 . S
C685 H693 0.930 . S
C686 N684 1.325 . S
C686 C687 1.416 . S
C686 H692 0.929 . S
C687 C685 1.366 . S
C687 C686 1.416 . S
C687 H689 0.930 . S
H688 C677 0.930 . S
H689 C687 0.930 . S
H690 C705 0.930 . S
H691 C712 0.930 . S
H692 C686 0.929 . S
H693 C685 0.930 . S
H694 C708 0.929 . S
H695 C675 0.931 . S
H696 C681 0.931 . S
H697 C682 0.931 . S
H698 C703 0.938 . S
H699 C678 0.929 . S
H700 C711 0.930 . S
N701 Eu672 2.600 1_565 S
N701 C702 1.365 . S
N701 C705 1.319 1_565 S
C702 N701 1.365 . S
C702 C704 1.405 . S
C702 C710 1.448 . S
C703 H698 0.938 . S
C703 C705 1.404 . S
C703 C706 1.354 1_545 S
C704 C702 1.405 . S
C704 C706 1.403 . S
C704 C737 1.439 . S
C705 H690 0.930 . S
C705 N701 1.319 1_545 S
C705 C703 1.404 . S
C706 C703 1.354 1_565 S
C706 C704 1.403 . S
C706 H713 0.929 . S
N707 Eu672 2.562 1_565 S
N707 C708 1.325 1_455 S
N707 C710 1.351 . S
C708 H694 0.929 . S
C708 N707 1.325 1_655 S
C708 C712 1.416 . S
C709 C710 1.430 . S
C709 C711 1.404 1_455 S
C709 C738 1.387 . S
C710 C702 1.448 . S
C710 N707 1.351 . S
C710 C709 1.430 . S
C711 H700 0.930 . S
C711 C709 1.404 1_655 S
C711 C712 1.366 . S
C712 H691 0.930 . S
C712 C708 1.416 . S
C712 C711 1.366 . S
H713 C706 0.929 . S
H714 C737 0.931 . S
H715 C738 0.931 . S
O716 Eu672 2.462 1_565 S
O716 C736 1.252 . S
O717 Eu672 2.373 . S
O717 C728 1.249 . S
O718 Eu683 2.335 . S
O718 C728 1.264 . S
O719 Eu672 2.432 1_565 S
O719 C736 1.268 . S
O720 Eu672 2.291 . S
O720 C735 1.255 1_455 S
O721 Eu683 2.372 1_655 S
O721 C735 1.257 . S
O722 Eu683 2.462 . S
O722 C747 1.252 . S
O723 Eu683 2.373 . S
O723 C739 1.249 . S
O724 Eu672 2.335 . S
O724 C739 1.264 . S
O725 Eu683 2.432 1_655 S
O725 C747 1.268 1_655 S
O726 Eu683 2.291 . S
O726 C746 1.255 . S
O727 Eu672 2.372 . S
O727 C746 1.257 . S
C728 O717 1.249 . S
C728 O718 1.264 . S
C729 C732 1.382 . S
C729 C734 1.390 . S
C729 C736 1.506 . S
C730 C731 1.398 . S
C730 C734 1.392 . S
C731 C730 1.398 . S
C731 C733 1.372 . S
C731 H748 0.931 . S
C732 C729 1.382 . S
C732 C733 1.390 . S
C732 H749 0.931 . S
C733 C731 1.372 . S
C733 C732 1.390 . S
C733 H750 0.929 . S
C734 C729 1.390 . S
C734 C730 1.392 . S
C734 H751 0.930 . S
C735 O720 1.255 1_655 S
C735 O721 1.257 . S
C736 Eu672 2.787 1_565 S
C736 O716 1.252 . S
C736 O719 1.268 . S
C736 C729 1.506 . S
C737 C704 1.439 . S
C737 H714 0.931 . S
C737 C738 1.374 . S
C738 C709 1.387 . S
C738 H715 0.931 . S
C738 C737 1.374 . S
C739 O723 1.249 . S
C739 O724 1.264 . S
C740 C743 1.382 1_455 S
C740 C744 1.390 . S
C740 C747 1.506 . S
C741 C742 1.398 1_455 S
C741 C744 1.392 . S
C742 C741 1.398 1_655 S
C742 C745 1.372 . S
C742 H752 0.931 . S
C743 C740 1.382 1_655 S
C743 C745 1.390 . S
C743 H753 0.931 . S
C744 C740 1.390 . S
C744 C741 1.392 . S
C744 H754 0.930 . S
C745 C742 1.372 . S
C745 C743 1.390 . S
C745 H755 0.929 . S
C746 O726 1.255 . S
C746 O727 1.257 . S
C747 Eu683 2.787 . S
C747 O722 1.252 . S
C747 O725 1.268 1_455 S
C747 C740 1.506 . S
H748 C731 0.931 . S
H749 C732 0.931 . S
H750 C733 0.929 . S
H751 C734 0.930 . S
H752 C742 0.931 . S
H753 C743 0.931 . S
H754 C744 0.930 . S
H755 C745 0.929 . S
Eu756 N785 2.600 . S
Eu756 N791 2.562 . S
Eu756 O800 2.462 . S
Eu756 O801 2.373 . S
Eu756 O803 2.432 . S
Eu756 O804 2.291 . S
Eu756 O808 2.335 . S
Eu756 O811 2.372 . S
Eu756 C820 2.787 . S
C757 N758 1.365 . S
C757 C760 1.405 . S
C757 C764 1.448 . S
N758 C757 1.365 . S
N758 C761 1.319 . S
N758 Eu767 2.600 . S
C759 C761 1.397 1_554 S
C759 C762 1.367 . S
C759 H779 0.931 . S
C760 C757 1.405 . S
C760 C762 1.403 1_556 S
C760 C766 1.439 . S
C761 N758 1.319 . S
C761 C759 1.397 1_556 S
C761 H772 0.930 . S
C762 C759 1.367 . S
C762 C760 1.403 1_554 S
C762 H783 0.929 . S
C763 C764 1.430 . S
C763 C765 1.387 . S
C763 C769 1.404 . S
C764 C757 1.448 . S
C764 C763 1.430 . S
C764 N768 1.351 . S
C765 C763 1.387 . S
C765 C766 1.374 . S
C765 H780 0.931 . S
C766 C760 1.439 . S
C766 C765 1.374 . S
C766 H781 0.931 . S
Eu767 N758 2.600 . S
Eu767 N768 2.562 . S
Eu767 O802 2.335 . S
Eu767 O805 2.372 . S
Eu767 O806 2.462 . S
Eu767 O807 2.373 . S
Eu767 O809 2.432 . S
Eu767 O810 2.291 . S
Eu767 C831 2.787 . S
N768 C764 1.351 . S
N768 Eu767 2.562 . S
N768 C770 1.325 . S
C769 C763 1.404 . S
C769 C771 1.366 . S
C769 H777 0.930 . S
C770 N768 1.325 . S
C770 C771 1.416 . S
C770 H776 0.929 . S
C771 C769 1.366 . S
C771 C770 1.416 . S
C771 H773 0.930 . S
H772 C761 0.930 . S
H773 C771 0.930 . S
H774 C789 0.930 . S
H775 C796 0.930 . S
H776 C770 0.929 . S
H777 C769 0.930 . S
H778 C792 0.929 . S
H779 C759 0.931 . S
H780 C765 0.931 . S
H781 C766 0.931 . S
H782 C787 0.931 . S
H783 C762 0.929 . S
H784 C795 0.930 . S
N785 Eu756 2.600 . S
N785 C786 1.365 . S
N785 C789 1.319 . S
C786 N785 1.365 . S
C786 C788 1.405 . S
C786 C794 1.448 . S
C787 H782 0.931 . S
C787 C789 1.397 . S
C787 C790 1.367 . S
C788 C786 1.405 . S
C788 C790 1.403 . S
C788 C821 1.439 . S
C789 H774 0.930 . S
C789 N785 1.319 . S
C789 C787 1.397 . S
C790 C787 1.367 . S
C790 C788 1.403 . S
C790 H797 0.929 . S
N791 Eu756 2.562 . S
N791 C792 1.325 . S
N791 C794 1.351 . S
C792 H778 0.929 . S
C792 N791 1.325 . S
C792 C796 1.416 1_565 S
C793 C794 1.430 . S
C793 C795 1.404 1_565 S
C793 C822 1.387 . S
C794 C786 1.448 . S
C794 N791 1.351 . S
C794 C793 1.430 . S
C795 H784 0.930 . S
C795 C793 1.404 1_545 S
C795 C796 1.366 . S
C796 H775 0.930 . S
C796 C792 1.416 1_545 S
C796 C795 1.366 . S
H797 C790 0.929 . S
H798 C821 0.931 . S
H799 C822 0.931 1_545 S
O800 Eu756 2.462 . S
O800 C820 1.252 . S
O801 Eu756 2.373 . S
O801 C812 1.249 . S
O802 Eu767 2.335 . S
O802 C812 1.264 . S
O803 Eu756 2.432 . S
O803 C820 1.268 . S
O804 Eu756 2.291 . S
O804 C819 1.255 . S
O805 Eu767 2.372 . S
O805 C819 1.257 . S
O806 Eu767 2.462 . S
O806 C831 1.252 . S
O807 Eu767 2.373 . S
O807 C823 1.249 . S
O808 Eu756 2.335 . S
O808 C823 1.264 . S
O809 Eu767 2.432 . S
O809 C831 1.268 . S
O810 Eu767 2.291 . S
O810 C830 1.255 . S
O811 Eu756 2.372 . S
O811 C830 1.257 . S
C812 O801 1.249 . S
C812 O802 1.264 . S
C813 C816 1.382 . S
C813 C818 1.390 . S
C813 C820 1.506 . S
C814 C815 1.398 . S
C814 C818 1.392 1_545 S
C815 C814 1.398 . S
C815 C817 1.372 1_545 S
C815 H832 0.931 . S
C816 C813 1.382 . S
C816 C817 1.390 . S
C816 H833 0.931 . S
C817 C815 1.372 1_565 S
C817 C816 1.390 . S
C817 H834 0.929 . S
C818 C813 1.390 . S
C818 C814 1.392 1_565 S
C818 H835 0.930 . S
C819 O804 1.255 . S
C819 O805 1.257 . S
C820 Eu756 2.787 . S
C820 O800 1.252 . S
C820 O803 1.268 . S
C820 C813 1.506 . S
C821 C788 1.439 . S
C821 H798 0.931 . S
C821 C822 1.374 . S
C822 C793 1.387 . S
C822 H799 0.931 1_565 S
C822 C821 1.374 . S
C823 O807 1.249 . S
C823 O808 1.264 . S
C824 C827 1.382 . S
C824 C828 1.390 . S
C824 C831 1.506 . S
C825 C826 1.398 . S
C825 C828 1.392 . S
C826 C825 1.398 . S
C826 C829 1.372 . S
C826 H836 0.931 . S
C827 C824 1.382 . S
C827 C829 1.390 . S
C827 H837 0.931 . S
C828 C824 1.390 . S
C828 C825 1.392 . S
C828 H838 0.930 . S
C829 C826 1.372 . S
C829 C827 1.390 . S
C829 H839 0.929 . S
C830 O810 1.255 . S
C830 O811 1.257 . S
C831 Eu767 2.787 . S
C831 O806 1.252 . S
C831 O809 1.268 . S
C831 C824 1.506 . S
H832 C815 0.931 . S
H833 C816 0.931 . S
H834 C817 0.929 . S
H835 C818 0.930 . S
H836 C826 0.931 . S
H837 C827 0.931 . S
H838 C828 0.930 . S
H839 C829 0.929 . S
Eu840 N869 2.600 . S
Eu840 N875 2.562 . S
Eu840 O884 2.462 . S
Eu840 O885 2.373 1_556 S
Eu840 O887 2.432 . S
Eu840 O888 2.291 . S
Eu840 O892 2.335 1_556 S
Eu840 O895 2.372 1_556 S
Eu840 C904 2.787 . S
C841 N842 1.365 1_545 S
C841 C844 1.405 1_545 S
C841 C848 1.448 . S
N842 C841 1.365 1_565 S
N842 C845 1.319 . S
N842 Eu851 2.600 1_565 S
C843 C845 1.397 . S
C843 C846 1.367 . S
C843 H863 0.931 . S
C844 C841 1.405 1_565 S
C844 C846 1.403 . S
C844 C850 1.439 1_565 S
C845 N842 1.319 . S
C845 C843 1.397 . S
C845 H856 0.930 . S
C846 C843 1.367 . S
C846 C844 1.403 . S
C846 H867 0.929 . S
C847 C848 1.430 . S
C847 C849 1.387 . S
C847 C853 1.404 . S
C848 C841 1.448 . S
C848 C847 1.430 . S
C848 N852 1.351 . S
C849 C847 1.387 . S
C849 C850 1.374 . S
C849 H864 0.931 . S
C850 C844 1.439 1_545 S
C850 C849 1.374 . S
C850 H865 0.931 1_545 S
Eu851 N842 2.600 1_545 S
Eu851 N852 2.562 . S
Eu851 O886 2.335 . S
Eu851 O889 2.372 1_545 S
Eu851 O890 2.462 . S
Eu851 O891 2.373 . S
Eu851 O893 2.432 1_545 S
Eu851 O894 2.291 . S
Eu851 C915 2.787 . S
N852 C848 1.351 . S
N852 Eu851 2.562 . S
N852 C854 1.325 . S
C853 C847 1.404 . S
C853 C855 1.366 . S
C853 H861 0.930 . S
C854 N852 1.325 . S
C854 C855 1.416 . S
C854 H860 0.929 . S
C855 C853 1.366 . S
C855 C854 1.416 . S
C855 H857 0.930 . S
H856 C845 0.930 . S
H857 C855 0.930 . S
H858 C873 0.922 1_554 S
H859 C880 0.930 1_565 S
H860 C854 0.929 . S
H861 C853 0.930 . S
H862 C876 0.929 . S
H863 C843 0.931 . S
H864 C849 0.931 . S
H865 C850 0.931 1_565 S
H866 C871 0.931 1_554 S
H867 C846 0.929 . S
H868 C879 0.930 . S
N869 Eu840 2.600 . S
N869 C870 1.365 . S
N869 C873 1.324 . S
C870 N869 1.365 . S
C870 C872 1.405 . S
C870 C878 1.448 . S
C871 H866 0.931 1_556 S
C871 C873 1.399 . S
C871 C874 1.367 . S
C872 C870 1.405 . S
C872 C874 1.403 . S
C872 C905 1.439 . S
C873 H858 0.922 1_556 S
C873 N869 1.324 . S
C873 C871 1.399 . S
C874 C871 1.367 . S
C874 C872 1.403 . S
C874 H881 0.929 . S
N875 Eu840 2.562 . S
N875 C876 1.325 . S
N875 C878 1.351 . S
C876 H862 0.929 . S
C876 N875 1.325 . S
C876 C880 1.416 . S
C877 C878 1.430 . S
C877 C879 1.404 . S
C877 C906 1.387 . S
C878 C870 1.448 . S
C878 N875 1.351 . S
C878 C877 1.430 . S
C879 H868 0.930 . S
C879 C877 1.404 . S
C879 C880 1.366 . S
C880 H859 0.930 1_545 S
C880 C876 1.416 . S
C880 C879 1.366 . S
H881 C874 0.929 . S
H882 C905 0.931 . S
H883 C906 0.931 . S
O884 Eu840 2.462 . S
O884 C904 1.252 . S
O885 Eu840 2.373 1_554 S
O885 C896 1.249 . S
O886 Eu851 2.335 . S
O886 C896 1.264 . S
O887 Eu840 2.432 . S
O887 C904 1.268 . S
O888 Eu840 2.291 . S
O888 C903 1.255 1_545 S
O889 Eu851 2.372 1_565 S
O889 C903 1.257 1_554 S
O890 Eu851 2.462 . S
O890 C915 1.252 . S
O891 Eu851 2.373 . S
O891 C907 1.249 . S
O892 Eu840 2.335 1_554 S
O892 C907 1.264 . S
O893 Eu851 2.432 1_565 S
O893 C915 1.268 1_565 S
O894 Eu851 2.291 . S
O894 C914 1.255 . S
O895 Eu840 2.372 1_554 S
O895 C914 1.257 . S
C896 O885 1.249 . S
C896 O886 1.264 . S
C897 C900 1.382 . S
C897 C902 1.390 . S
C897 C904 1.506 . S
C898 C899 1.398 . S
C898 C902 1.392 . S
C899 C898 1.398 . S
C899 C901 1.372 . S
C899 H916 0.931 . S
C900 C897 1.382 . S
C900 C901 1.390 . S
C900 H917 0.931 . S
C901 C899 1.372 . S
C901 C900 1.390 . S
C901 H918 0.929 . S
C902 C897 1.390 . S
C902 C898 1.392 . S
C902 H919 0.930 . S
C903 O888 1.255 1_565 S
C903 O889 1.257 1_556 S
C904 Eu840 2.787 . S
C904 O884 1.252 . S
C904 O887 1.268 . S
C904 C897 1.506 . S
C905 C872 1.439 . S
C905 H882 0.931 . S
C905 C906 1.374 . S
C906 C877 1.387 . S
C906 H883 0.931 . S
C906 C905 1.374 . S
C907 O891 1.249 . S
C907 O892 1.264 . S
C908 C911 1.382 . S
C908 C912 1.390 1_565 S
C908 C915 1.506 1_565 S
C909 C910 1.398 . S
C909 C912 1.392 1_565 S
C910 C909 1.398 . S
C910 C913 1.372 . S
C910 H920 0.931 . S
C911 C908 1.382 . S
C911 C913 1.390 . S
C911 H921 0.931 . S
C912 C908 1.390 1_545 S
C912 C909 1.392 1_545 S
C912 H922 0.930 . S
C913 C910 1.372 . S
C913 C911 1.390 . S
C913 H923 0.929 . S
C914 O894 1.255 . S
C914 O895 1.257 . S
C915 Eu851 2.787 . S
C915 O890 1.252 . S
C915 O893 1.268 1_545 S
C915 C908 1.506 1_545 S
H916 C899 0.931 . S
H917 C900 0.931 . S
H918 C901 0.929 . S
H919 C902 0.930 . S
H920 C910 0.931 . S
H921 C911 0.931 . S
H922 C912 0.930 . S
H923 C913 0.929 . S
Eu924 N953 2.600 . S
Eu924 N959 2.562 . S
Eu924 O968 2.462 . S
Eu924 O969 2.373 . S
Eu924 O971 2.432 . S
Eu924 O972 2.291 . S
Eu924 O976 2.335 . S
Eu924 O979 2.372 . S
Eu924 C988 2.787 . S
C925 N926 1.365 . S
C925 C928 1.405 . S
C925 C932 1.448 . S
N926 C925 1.365 . S
N926 C929 1.319 . S
N926 Eu935 2.600 . S
C927 C929 1.397 . S
C927 C930 1.367 . S
C927 H947 0.931 . S
C928 C925 1.405 . S
C928 C930 1.403 . S
C928 C934 1.439 . S
C929 N926 1.319 . S
C929 C927 1.397 . S
C929 H940 0.930 . S
C930 C927 1.367 . S
C930 C928 1.403 . S
C930 H951 0.929 . S
C931 C932 1.430 . S
C931 C933 1.387 . S
C931 C937 1.404 . S
C932 C925 1.448 . S
C932 C931 1.430 . S
C932 N936 1.351 . S
C933 C931 1.387 . S
C933 C934 1.374 . S
C933 H948 0.931 . S
C934 C928 1.439 . S
C934 C933 1.374 . S
C934 H949 0.931 . S
Eu935 N926 2.600 . S
Eu935 N936 2.562 . S
Eu935 O970 2.335 . S
Eu935 O973 2.372 . S
Eu935 O974 2.462 . S
Eu935 O975 2.373 . S
Eu935 O977 2.432 . S
Eu935 O978 2.291 . S
Eu935 C999 2.787 . S
N936 C932 1.351 . S
N936 Eu935 2.562 . S
N936 C938 1.325 . S
C937 C931 1.404 . S
C937 C939 1.366 . S
C937 H945 0.930 . S
C938 N936 1.325 . S
C938 C939 1.416 . S
C938 H944 0.929 . S
C939 C937 1.366 . S
C939 C938 1.416 . S
C939 H941 0.930 . S
H940 C929 0.930 . S
H941 C939 0.930 . S
H942 C957 0.930 . S
H943 C964 0.930 . S
H944 C938 0.929 . S
H945 C937 0.930 . S
H946 C960 0.929 . S
H947 C927 0.931 . S
H948 C933 0.931 . S
H949 C934 0.931 . S
H950 C955 0.931 . S
H951 C930 0.929 . S
H952 C963 0.930 . S
N953 Eu924 2.600 . S
N953 C954 1.365 . S
N953 C957 1.319 . S
C954 N953 1.365 . S
C954 C956 1.405 . S
C954 C962 1.448 . S
C955 H950 0.931 . S
C955 C957 1.397 . S
C955 C958 1.367 . S
C956 C954 1.405 . S
C956 C958 1.403 . S
C956 C989 1.439 . S
C957 H942 0.930 . S
C957 N953 1.319 . S
C957 C955 1.397 . S
C958 C955 1.367 . S
C958 C956 1.403 . S
C958 H965 0.929 . S
N959 Eu924 2.562 . S
N959 C960 1.325 . S
N959 C962 1.351 . S
C960 H946 0.929 . S
C960 N959 1.325 . S
C960 C964 1.416 . S
C961 C962 1.430 . S
C961 C963 1.404 . S
C961 C990 1.387 . S
C962 C954 1.448 . S
C962 N959 1.351 . S
C962 C961 1.430 . S
C963 H952 0.930 . S
C963 C961 1.404 . S
C963 C964 1.366 . S
C964 H943 0.930 . S
C964 C960 1.416 . S
C964 C963 1.366 . S
H965 C958 0.929 . S
H966 C989 0.931 . S
H967 C990 0.931 . S
O968 Eu924 2.462 . S
O968 C988 1.252 . S
O969 Eu924 2.373 . S
O969 C980 1.249 . S
O970 Eu935 2.335 . S
O970 C980 1.264 . S
O971 Eu924 2.432 . S
O971 C988 1.268 . S
O972 Eu924 2.291 . S
O972 C987 1.255 . S
O973 Eu935 2.372 . S
O973 C987 1.257 . S
O974 Eu935 2.462 . S
O974 C999 1.252 . S
O975 Eu935 2.373 . S
O975 C991 1.249 . S
O976 Eu924 2.335 . S
O976 C991 1.264 . S
O977 Eu935 2.432 . S
O977 C999 1.268 . S
O978 Eu935 2.291 . S
O978 C998 1.255 . S
O979 Eu924 2.372 . S
O979 C998 1.257 . S
C980 O969 1.249 . S
C980 O970 1.264 . S
C981 C984 1.382 . S
C981 C986 1.390 . S
C981 C988 1.506 . S
C982 C983 1.398 . S
C982 C986 1.392 . S
C983 C982 1.398 . S
C983 C985 1.372 . S
C983 H1000 0.930 1_545 S
C984 C981 1.382 . S
C984 C985 1.390 . S
C984 H1001 0.931 . S
C985 C983 1.372 . S
C985 C984 1.390 . S
C985 H1002 0.929 . S
C986 C981 1.390 . S
C986 C982 1.392 . S
C986 H1003 0.930 . S
C987 O972 1.255 . S
C987 O973 1.257 . S
C988 Eu924 2.787 . S
C988 O968 1.252 . S
C988 O971 1.268 . S
C988 C981 1.506 . S
C989 C956 1.439 . S
C989 H966 0.931 . S
C989 C990 1.374 . S
C990 C961 1.387 . S
C990 H967 0.931 . S
C990 C989 1.374 . S
C991 O975 1.249 . S
C991 O976 1.264 . S
C992 C995 1.382 . S
C992 C996 1.390 . S
C992 C999 1.506 . S
C993 C994 1.398 . S
C993 C996 1.392 . S
C994 C993 1.398 . S
C994 C997 1.372 . S
C994 H1004 0.931 . S
C995 C992 1.382 . S
C995 C997 1.390 . S
C995 H1005 0.931 . S
C996 C992 1.390 . S
C996 C993 1.392 . S
C996 H1006 0.930 . S
C997 C994 1.372 . S
C997 C995 1.390 . S
C997 H1007 0.929 . S
C998 O978 1.255 . S
C998 O979 1.257 . S
C999 Eu935 2.787 . S
C999 O974 1.252 . S
C999 O977 1.268 . S
C999 C992 1.506 . S
H1000 C983 0.930 1_565 S
H1001 C984 0.931 . S
H1002 C985 0.929 . S
H1003 C986 0.930 . S
H1004 C994 0.931 . S
H1005 C995 0.931 . S
H1006 C996 0.930 . S
H1007 C997 0.929 . S
Eu1008 N1037 2.600 1_554 S
Eu1008 N1043 2.562 1_554 S
Eu1008 O1052 2.462 . S
Eu1008 O1053 2.373 1_554 S
Eu1008 O1055 2.432 . S
Eu1008 O1056 2.291 . S
Eu1008 O1060 2.335 . S
Eu1008 O1063 2.372 . S
Eu1008 C1072 2.787 . S
C1009 N1010 1.365 . S
C1009 C1012 1.405 . S
C1009 C1016 1.448 . S
N1010 C1009 1.365 . S
N1010 C1013 1.319 . S
N1010 Eu1019 2.600 . S
C1011 C1013 1.397 . S
C1011 C1014 1.367 . S
C1011 H1031 0.931 . S
C1012 C1009 1.405 . S
C1012 C1014 1.403 . S
C1012 C1018 1.439 . S
C1013 N1010 1.319 . S
C1013 C1011 1.397 . S
C1013 H1024 0.930 . S
C1014 C1011 1.367 . S
C1014 C1012 1.403 . S
C1014 H1035 0.929 . S
C1015 C1016 1.430 . S
C1015 C1017 1.387 . S
C1015 C1021 1.404 . S
C1016 C1009 1.448 . S
C1016 C1015 1.430 . S
C1016 N1020 1.351 . S
C1017 C1015 1.387 . S
C1017 C1018 1.374 . S
C1017 H1032 0.931 . S
C1018 C1012 1.439 . S
C1018 C1017 1.374 . S
C1018 H1033 0.931 . S
Eu1019 N1010 2.600 . S
Eu1019 N1020 2.562 . S
Eu1019 O1054 2.335 1_554 S
Eu1019 O1057 2.372 . S
Eu1019 O1058 2.462 . S
Eu1019 O1059 2.373 . S
Eu1019 O1061 2.432 . S
Eu1019 O1062 2.291 . S
Eu1019 C1083 2.787 . S
N1020 C1016 1.351 . S
N1020 Eu1019 2.562 . S
N1020 C1022 1.325 . S
C1021 C1015 1.404 . S
C1021 C1023 1.366 . S
C1021 H1029 0.930 . S
C1022 N1020 1.325 . S
C1022 C1023 1.416 . S
C1022 H1028 0.929 . S
C1023 C1021 1.366 . S
C1023 C1022 1.416 . S
C1023 H1025 0.930 . S
H1024 C1013 0.930 . S
H1025 C1023 0.930 . S
H1026 C1041 0.930 1_554 S
H1027 C1048 0.930 . S
H1028 C1022 0.929 . S
H1029 C1021 0.930 . S
H1030 C1044 0.929 . S
H1031 C1011 0.931 . S
H1032 C1017 0.931 . S
H1033 C1018 0.931 . S
H1034 C1039 0.931 . S
H1035 C1014 0.929 . S
H1036 C1047 0.930 . S
N1037 Eu1008 2.600 1_556 S
N1037 C1038 1.365 . S
N1037 C1041 1.319 . S
C1038 N1037 1.365 . S
C1038 C1040 1.405 . S
C1038 C1046 1.448 . S
C1039 H1034 0.931 . S
C1039 C1041 1.397 . S
C1039 C1042 1.367 . S
C1040 C1038 1.405 . S
C1040 C1042 1.403 . S
C1040 C1073 1.439 . S
C1041 H1026 0.930 1_556 S
C1041 N1037 1.319 . S
C1041 C1039 1.397 . S
C1042 C1039 1.367 . S
C1042 C1040 1.403 . S
C1042 H1049 0.929 . S
N1043 Eu1008 2.562 1_556 S
N1043 C1044 1.325 . S
N1043 C1046 1.351 . S
C1044 H1030 0.929 . S
C1044 N1043 1.325 . S
C1044 C1048 1.416 . S
C1045 C1046 1.430 . S
C1045 C1047 1.404 . S
C1045 C1074 1.387 . S
C1046 C1038 1.448 . S
C1046 N1043 1.351 . S
C1046 C1045 1.430 . S
C1047 H1036 0.930 . S
C1047 C1045 1.404 . S
C1047 C1048 1.366 . S
C1048 H1027 0.930 . S
C1048 C1044 1.416 . S
C1048 C1047 1.366 . S
H1049 C1042 0.929 . S
H1050 C1073 0.931 . S
H1051 C1074 0.931 . S
O1052 Eu1008 2.462 . S
O1052 C1072 1.252 . S
O1053 Eu1008 2.373 1_556 S
O1053 C1064 1.249 . S
O1054 Eu1019 2.335 1_556 S
O1054 C1064 1.264 . S
O1055 Eu1008 2.432 . S
O1055 C1072 1.268 . S
O1056 Eu1008 2.291 . S
O1056 C1071 1.255 . S
O1057 Eu1019 2.372 . S
O1057 C1071 1.257 . S
O1058 Eu1019 2.462 . S
O1058 C1083 1.252 . S
O1059 Eu1019 2.373 . S
O1059 C1075 1.249 . S
O1060 Eu1008 2.335 . S
O1060 C1075 1.264 . S
O1061 Eu1019 2.432 . S
O1061 C1083 1.268 . S
O1062 Eu1019 2.291 . S
O1062 C1082 1.255 . S
O1063 Eu1008 2.372 . S
O1063 C1082 1.257 . S
C1064 O1053 1.249 . S
C1064 O1054 1.264 . S
C1065 C1068 1.382 . S
C1065 C1070 1.390 . S
C1065 C1072 1.506 . S
C1066 C1067 1.398 . S
C1066 C1070 1.392 . S
C1067 C1066 1.398 . S
C1067 C1069 1.372 . S
C1067 H1084 0.931 . S
C1068 C1065 1.382 . S
C1068 C1069 1.390 . S
C1068 H1085 0.931 . S
C1069 C1067 1.372 . S
C1069 C1068 1.390 . S
C1069 H1086 0.929 . S
C1070 C1065 1.390 . S
C1070 C1066 1.392 . S
C1070 H1087 0.930 . S
C1071 O1056 1.255 . S
C1071 O1057 1.257 . S
C1072 Eu1008 2.787 . S
C1072 O1052 1.252 . S
C1072 O1055 1.268 . S
C1072 C1065 1.506 . S
C1073 C1040 1.439 . S
C1073 H1050 0.931 . S
C1073 C1074 1.374 . S
C1074 C1045 1.387 . S
C1074 H1051 0.931 . S
C1074 C1073 1.374 . S
C1075 O1059 1.249 . S
C1075 O1060 1.264 . S
C1076 C1079 1.382 . S
C1076 C1080 1.390 . S
C1076 C1083 1.506 1_556 S
C1077 C1078 1.398 . S
C1077 C1080 1.392 . S
C1078 C1077 1.398 . S
C1078 C1081 1.372 . S
C1078 H1088 0.931 . S
C1079 C1076 1.382 . S
C1079 C1081 1.390 . S
C1079 H1089 0.931 . S
C1080 C1076 1.390 . S
C1080 C1077 1.392 . S
C1080 H1090 0.930 . S
C1081 C1078 1.372 . S
C1081 C1079 1.390 . S
C1081 H1091 0.929 . S
C1082 O1062 1.255 . S
C1082 O1063 1.257 . S
C1083 Eu1019 2.787 . S
C1083 O1058 1.252 . S
C1083 O1061 1.268 . S
C1083 C1076 1.506 1_554 S
H1084 C1067 0.931 . S
H1085 C1068 0.931 . S
H1086 C1069 0.929 . S
H1087 C1070 0.930 . S
H1088 C1078 0.931 . S
H1089 C1079 0.931 . S
H1090 C1080 0.930 . S
H1091 C1081 0.929 . S
Eu1092 N1121 2.600 . S
Eu1092 N1127 2.562 . S
Eu1092 O1136 2.462 . S
Eu1092 O1137 2.373 . S
Eu1092 O1139 2.432 . S
Eu1092 O1140 2.291 . S
Eu1092 O1144 2.335 . S
Eu1092 O1147 2.372 . S
Eu1092 C1156 2.787 . S
C1093 N1094 1.365 . S
C1093 C1096 1.405 . S
C1093 C1100 1.448 . S
N1094 C1093 1.365 . S
N1094 C1097 1.319 . S
N1094 Eu1103 2.600 . S
C1095 C1097 1.397 . S
C1095 C1098 1.367 . S
C1095 H1115 0.931 . S
C1096 C1093 1.405 . S
C1096 C1098 1.403 . S
C1096 C1102 1.439 . S
C1097 N1094 1.319 . S
C1097 C1095 1.397 . S
C1097 H1108 0.930 . S
C1098 C1095 1.367 . S
C1098 C1096 1.403 . S
C1098 H1119 0.929 . S
C1099 C1100 1.430 . S
C1099 C1101 1.387 . S
C1099 C1105 1.404 . S
C1100 C1093 1.448 . S
C1100 C1099 1.430 . S
C1100 N1104 1.351 . S
C1101 C1099 1.387 . S
C1101 C1102 1.374 . S
C1101 H1116 0.931 . S
C1102 C1096 1.439 . S
C1102 C1101 1.374 . S
C1102 H1117 0.931 . S
Eu1103 N1094 2.600 . S
Eu1103 N1104 2.562 . S
Eu1103 O1138 2.335 . S
Eu1103 O1141 2.372 . S
Eu1103 O1142 2.462 . S
Eu1103 O1143 2.373 . S
Eu1103 O1145 2.432 . S
Eu1103 O1146 2.291 . S
Eu1103 C1167 2.787 . S
N1104 C1100 1.351 . S
N1104 Eu1103 2.562 . S
N1104 C1106 1.325 . S
C1105 C1099 1.404 . S
C1105 C1107 1.366 . S
C1105 H1113 0.930 . S
C1106 N1104 1.325 . S
C1106 C1107 1.416 . S
C1106 H1112 0.929 . S
C1107 C1105 1.366 . S
C1107 C1106 1.416 . S
C1107 H1109 0.930 . S
H1108 C1097 0.930 . S
H1109 C1107 0.930 . S
H1110 C1125 0.930 . S
H1111 C1132 0.930 . S
H1112 C1106 0.929 . S
H1113 C1105 0.930 . S
H1114 C1128 0.929 . S
H1115 C1095 0.931 . S
H1116 C1101 0.931 . S
H1117 C1102 0.931 . S
H1118 C1123 0.931 . S
H1119 C1098 0.929 . S
H1120 C1131 0.930 1_455 S
N1121 Eu1092 2.600 . S
N1121 C1122 1.365 . S
N1121 C1125 1.319 . S
C1122 N1121 1.365 . S
C1122 C1124 1.405 . S
C1122 C1130 1.448 . S
C1123 H1118 0.931 . S
C1123 C1125 1.397 . S
C1123 C1126 1.367 . S
C1124 C1122 1.405 . S
C1124 C1126 1.403 . S
C1124 C1157 1.439 . S
C1125 H1110 0.930 . S
C1125 N1121 1.319 . S
C1125 C1123 1.397 . S
C1126 C1123 1.367 . S
C1126 C1124 1.403 . S
C1126 H1133 0.929 . S
N1127 Eu1092 2.562 . S
N1127 C1128 1.325 . S
N1127 C1130 1.351 . S
C1128 H1114 0.929 . S
C1128 N1127 1.325 . S
C1128 C1132 1.416 . S
C1129 C1130 1.430 . S
C1129 C1131 1.404 . S
C1129 C1158 1.387 . S
C1130 C1122 1.448 . S
C1130 N1127 1.351 . S
C1130 C1129 1.430 . S
C1131 H1120 0.930 1_655 S
C1131 C1129 1.404 . S
C1131 C1132 1.366 . S
C1132 H1111 0.930 . S
C1132 C1128 1.416 . S
C1132 C1131 1.366 . S
H1133 C1126 0.929 . S
H1134 C1157 0.931 . S
H1135 C1158 0.931 1_455 S
O1136 Eu1092 2.462 . S
O1136 C1156 1.252 . S
O1137 Eu1092 2.373 . S
O1137 C1148 1.249 . S
O1138 Eu1103 2.335 . S
O1138 C1148 1.264 . S
O1139 Eu1092 2.432 . S
O1139 C1156 1.268 . S
O1140 Eu1092 2.291 . S
O1140 C1155 1.255 . S
O1141 Eu1103 2.372 . S
O1141 C1155 1.257 . S
O1142 Eu1103 2.462 . S
O1142 C1167 1.252 . S
O1143 Eu1103 2.373 . S
O1143 C1159 1.249 . S
O1144 Eu1092 2.335 . S
O1144 C1159 1.264 . S
O1145 Eu1103 2.432 . S
O1145 C1167 1.268 . S
O1146 Eu1103 2.291 . S
O1146 C1166 1.255 . S
O1147 Eu1092 2.372 . S
O1147 C1166 1.257 . S
C1148 O1137 1.249 . S
C1148 O1138 1.264 . S
C1149 C1152 1.382 . S
C1149 C1154 1.390 . S
C1149 C1156 1.506 . S
C1150 C1151 1.398 . S
C1150 C1154 1.392 . S
C1151 C1150 1.398 . S
C1151 C1153 1.372 . S
C1151 H1168 0.931 . S
C1152 C1149 1.382 . S
C1152 C1153 1.390 . S
C1152 H1169 0.931 . S
C1153 C1151 1.372 . S
C1153 C1152 1.390 . S
C1153 H1170 0.929 . S
C1154 C1149 1.390 . S
C1154 C1150 1.392 . S
C1154 H1171 0.930 . S
C1155 O1140 1.255 . S
C1155 O1141 1.257 . S
C1156 Eu1092 2.787 . S
C1156 O1136 1.252 . S
C1156 O1139 1.268 . S
C1156 C1149 1.506 . S
C1157 C1124 1.439 . S
C1157 H1134 0.931 . S
C1157 C1158 1.374 . S
C1158 C1129 1.387 . S
C1158 H1135 0.931 1_655 S
C1158 C1157 1.374 . S
C1159 O1143 1.249 . S
C1159 O1144 1.264 . S
C1160 C1163 1.382 . S
C1160 C1164 1.390 . S
C1160 C1167 1.506 . S
C1161 C1162 1.398 . S
C1161 C1164 1.392 . S
C1162 C1161 1.398 . S
C1162 C1165 1.372 . S
C1162 H1172 0.931 . S
C1163 C1160 1.382 . S
C1163 C1165 1.390 . S
C1163 H1173 0.931 . S
C1164 C1160 1.390 . S
C1164 C1161 1.392 . S
C1164 H1174 0.930 . S
C1165 C1162 1.372 . S
C1165 C1163 1.390 . S
C1165 H1175 0.929 . S
C1166 O1146 1.255 . S
C1166 O1147 1.257 . S
C1167 Eu1103 2.787 . S
C1167 O1142 1.252 . S
C1167 O1145 1.268 . S
C1167 C1160 1.506 . S
H1168 C1151 0.931 . S
H1169 C1152 0.931 . S
H1170 C1153 0.929 . S
H1171 C1154 0.930 . S
H1172 C1162 0.931 . S
H1173 C1163 0.931 . S
H1174 C1164 0.930 . S
H1175 C1165 0.929 . S
Eu1176 N1205 2.600 . S
Eu1176 N1211 2.562 1_455 S
Eu1176 O1220 2.462 . S
Eu1176 O1221 2.373 1_455 S
Eu1176 O1223 2.432 . S
Eu1176 O1224 2.291 . S
Eu1176 O1228 2.335 . S
Eu1176 O1231 2.372 . S
Eu1176 C1240 2.787 . S
C1177 N1178 1.365 . S
C1177 C1180 1.405 . S
C1177 C1184 1.448 . S
N1178 C1177 1.365 . S
N1178 C1181 1.319 . S
N1178 Eu1187 2.600 . S
C1179 C1181 1.397 . S
C1179 C1182 1.367 . S
C1179 H1199 0.931 . S
C1180 C1177 1.405 . S
C1180 C1182 1.403 . S
C1180 C1186 1.439 . S
C1181 N1178 1.319 . S
C1181 C1179 1.397 . S
C1181 H1192 0.930 . S
C1182 C1179 1.367 . S
C1182 C1180 1.403 . S
C1182 H1203 0.929 . S
C1183 C1184 1.430 . S
C1183 C1185 1.387 . S
C1183 C1189 1.404 . S
C1184 C1177 1.448 . S
C1184 C1183 1.430 . S
C1184 N1188 1.351 . S
C1185 C1183 1.387 . S
C1185 C1186 1.374 . S
C1185 H1200 0.931 . S
C1186 C1180 1.439 . S
C1186 C1185 1.374 . S
C1186 H1201 0.931 . S
Eu1187 N1178 2.600 . S
Eu1187 N1188 2.562 . S
Eu1187 O1222 2.335 1_455 S
Eu1187 O1225 2.372 . S
Eu1187 O1226 2.462 . S
Eu1187 O1227 2.373 . S
Eu1187 O1229 2.432 . S
Eu1187 O1230 2.291 . S
Eu1187 C1251 2.803 . S
N1188 C1184 1.351 . S
N1188 Eu1187 2.562 . S
N1188 C1190 1.325 . S
C1189 C1183 1.404 . S
C1189 C1191 1.366 . S
C1189 H1197 0.930 . S
C1190 N1188 1.325 . S
C1190 C1191 1.416 . S
C1190 H1196 0.929 . S
C1191 C1189 1.366 . S
C1191 C1190 1.416 . S
C1191 H1193 0.930 . S
H1192 C1181 0.930 . S
H1193 C1191 0.930 . S
H1194 C1209 0.930 . S
H1195 C1216 0.930 . S
H1196 C1190 0.929 . S
H1197 C1189 0.930 . S
H1198 C1212 0.929 1_455 S
H1199 C1179 0.931 . S
H1200 C1185 0.931 . S
H1201 C1186 0.931 . S
H1202 C1207 0.931 . S
H1203 C1182 0.929 . S
H1204 C1215 0.930 . S
N1205 Eu1176 2.600 . S
N1205 C1206 1.365 1_455 S
N1205 C1209 1.319 . S
C1206 N1205 1.365 1_655 S
C1206 C1208 1.405 . S
C1206 C1214 1.448 . S
C1207 H1202 0.931 . S
C1207 C1209 1.397 1_655 S
C1207 C1210 1.367 . S
C1208 C1206 1.405 . S
C1208 C1210 1.403 . S
C1208 C1241 1.439 . S
C1209 H1194 0.930 . S
C1209 N1205 1.319 . S
C1209 C1207 1.397 1_455 S
C1210 C1207 1.367 . S
C1210 C1208 1.403 . S
C1210 H1217 0.929 . S
N1211 Eu1176 2.562 1_655 S
N1211 C1212 1.325 . S
N1211 C1214 1.351 . S
C1212 H1198 0.929 1_655 S
C1212 N1211 1.325 . S
C1212 C1216 1.416 . S
C1213 C1214 1.430 . S
C1213 C1215 1.404 . S
C1213 C1242 1.387 . S
C1214 C1206 1.448 . S
C1214 N1211 1.351 . S
C1214 C1213 1.430 . S
C1215 H1204 0.930 . S
C1215 C1213 1.404 . S
C1215 C1216 1.366 . S
C1216 H1195 0.930 . S
C1216 C1212 1.416 . S
C1216 C1215 1.366 . S
H1217 C1210 0.929 . S
H1218 C1241 0.931 . S
H1219 C1242 0.931 . S
O1220 Eu1176 2.462 . S
O1220 C1240 1.252 . S
O1221 Eu1176 2.373 1_655 S
O1221 C1232 1.249 . S
O1222 Eu1187 2.335 1_655 S
O1222 C1232 1.264 . S
O1223 Eu1176 2.432 . S
O1223 C1240 1.268 . S
O1224 Eu1176 2.291 . S
O1224 C1239 1.255 . S
O1225 Eu1187 2.372 . S
O1225 C1239 1.257 . S
O1226 Eu1187 2.462 . S
O1226 C1251 1.252 . S
O1227 Eu1187 2.373 . S
O1227 C1243 1.249 . S
O1228 Eu1176 2.335 . S
O1228 C1243 1.264 . S
O1229 Eu1187 2.432 . S
O1229 C1251 1.284 . S
O1230 Eu1187 2.291 . S
O1230 C1250 1.255 . S
O1231 Eu1176 2.372 . S
O1231 C1250 1.257 . S
C1232 O1221 1.249 . S
C1232 O1222 1.264 . S
C1233 C1236 1.382 . S
C1233 C1238 1.390 . S
C1233 C1240 1.506 . S
C1234 C1235 1.398 . S
C1234 C1238 1.392 . S
C1235 C1234 1.398 . S
C1235 C1237 1.372 . S
C1235 H1252 0.931 . S
C1236 C1233 1.382 . S
C1236 C1237 1.390 . S
C1236 H1253 0.931 . S
C1237 C1235 1.372 . S
C1237 C1236 1.390 . S
C1237 H1254 0.929 . S
C1238 C1233 1.390 . S
C1238 C1234 1.392 . S
C1238 H1255 0.930 . S
C1239 O1224 1.255 . S
C1239 O1225 1.257 . S
C1240 Eu1176 2.787 . S
C1240 O1220 1.252 . S
C1240 O1223 1.268 . S
C1240 C1233 1.506 . S
C1241 C1208 1.439 . S
C1241 H1218 0.931 . S
C1241 C1242 1.374 . S
C1242 C1213 1.387 . S
C1242 H1219 0.931 . S
C1242 C1241 1.374 . S
C1243 O1227 1.249 . S
C1243 O1228 1.264 . S
C1244 C1247 1.382 . S
C1244 C1248 1.390 . S
C1244 C1251 1.491 1_655 S
C1245 C1246 1.398 . S
C1245 C1248 1.392 . S
C1246 C1245 1.398 . S
C1246 C1249 1.372 . S
C1246 H1256 0.931 . S
C1247 C1244 1.382 . S
C1247 C1249 1.390 . S
C1247 H1257 0.931 . S
C1248 C1244 1.390 . S
C1248 C1245 1.392 . S
C1248 H1258 0.930 . S
C1249 C1246 1.372 . S
C1249 C1247 1.390 . S
C1249 H1259 0.929 . S
C1250 O1230 1.255 . S
C1250 O1231 1.257 . S
C1251 Eu1187 2.803 . S
C1251 O1226 1.252 . S
C1251 O1229 1.284 . S
C1251 C1244 1.491 1_455 S
H1252 C1235 0.931 . S
H1253 C1236 0.931 . S
H1254 C1237 0.929 . S
H1255 C1238 0.930 . S
H1256 C1246 0.931 . S
H1257 C1247 0.931 . S
H1258 C1248 0.930 . S
H1259 C1249 0.929 . S
Eu1260 N1289 2.600 . S
Eu1260 N1295 2.562 . S
Eu1260 O1304 2.462 . S
Eu1260 O1305 2.373 . S
Eu1260 O1307 2.432 . S
Eu1260 O1308 2.291 . S
Eu1260 O1312 2.335 . S
Eu1260 O1315 2.372 . S
Eu1260 C1324 2.787 . S
C1261 N1262 1.365 . S
C1261 C1264 1.405 . S
C1261 C1268 1.448 . S
N1262 C1261 1.365 . S
N1262 C1265 1.319 . S
N1262 Eu1271 2.600 . S
C1263 C1265 1.397 . S
C1263 C1266 1.367 . S
C1263 H1283 0.931 . S
C1264 C1261 1.405 . S
C1264 C1266 1.403 . S
C1264 C1270 1.439 . S
C1265 N1262 1.319 . S
C1265 C1263 1.397 . S
C1265 H1276 0.930 . S
C1266 C1263 1.367 . S
C1266 C1264 1.403 . S
C1266 H1287 0.929 . S
C1267 C1268 1.430 . S
C1267 C1269 1.387 . S
C1267 C1273 1.404 . S
C1268 C1261 1.448 . S
C1268 C1267 1.430 . S
C1268 N1272 1.351 . S
C1269 C1267 1.387 . S
C1269 C1270 1.374 . S
C1269 H1284 0.931 . S
C1270 C1264 1.439 . S
C1270 C1269 1.374 . S
C1270 H1285 0.931 . S
Eu1271 N1262 2.600 . S
Eu1271 N1272 2.562 . S
Eu1271 O1306 2.335 . S
Eu1271 O1309 2.372 . S
Eu1271 O1310 2.462 . S
Eu1271 O1311 2.373 . S
Eu1271 O1313 2.432 . S
Eu1271 O1314 2.291 . S
Eu1271 C1335 2.787 . S
N1272 C1268 1.351 . S
N1272 Eu1271 2.562 . S
N1272 C1274 1.325 . S
C1273 C1267 1.404 . S
C1273 C1275 1.366 . S
C1273 H1281 0.930 . S
C1274 N1272 1.325 . S
C1274 C1275 1.416 . S
C1274 H1280 0.929 . S
C1275 C1273 1.366 . S
C1275 C1274 1.416 . S
C1275 H1277 0.930 . S
H1276 C1265 0.930 . S
H1277 C1275 0.930 . S
H1278 C1293 0.930 . S
H1279 C1300 0.930 . S
H1280 C1274 0.929 . S
H1281 C1273 0.930 . S
H1282 C1296 0.929 . S
H1283 C1263 0.931 . S
H1284 C1269 0.931 . S
H1285 C1270 0.931 . S
H1286 C1291 0.931 . S
H1287 C1266 0.929 . S
H1288 C1299 0.930 . S
N1289 Eu1260 2.600 . S
N1289 C1290 1.365 . S
N1289 C1293 1.319 . S
C1290 N1289 1.365 . S
C1290 C1292 1.405 . S
C1290 C1298 1.448 . S
C1291 H1286 0.931 . S
C1291 C1293 1.397 . S
C1291 C1294 1.367 . S
C1292 C1290 1.405 . S
C1292 C1294 1.403 . S
C1292 C1325 1.439 . S
C1293 H1278 0.930 . S
C1293 N1289 1.319 . S
C1293 C1291 1.397 . S
C1294 C1291 1.367 . S
C1294 C1292 1.403 . S
C1294 H1301 0.929 . S
N1295 Eu1260 2.562 . S
N1295 C1296 1.325 . S
N1295 C1298 1.351 . S
C1296 H1282 0.929 . S
C1296 N1295 1.325 . S
C1296 C1300 1.416 1_655 S
C1297 C1298 1.430 . S
C1297 C1299 1.404 1_655 S
C1297 C1326 1.387 1_655 S
C1298 C1290 1.448 . S
C1298 N1295 1.351 . S
C1298 C1297 1.430 . S
C1299 H1288 0.930 . S
C1299 C1297 1.404 1_455 S
C1299 C1300 1.366 . S
C1300 H1279 0.930 . S
C1300 C1296 1.416 1_455 S
C1300 C1299 1.366 . S
H1301 C1294 0.929 . S
H1302 C1325 0.931 . S
H1303 C1326 0.931 . S
O1304 Eu1260 2.462 . S
O1304 C1324 1.252 . S
O1305 Eu1260 2.373 . S
O1305 C1316 1.249 . S
O1306 Eu1271 2.335 . S
O1306 C1316 1.264 . S
O1307 Eu1260 2.432 . S
O1307 C1324 1.268 . S
O1308 Eu1260 2.291 . S
O1308 C1323 1.255 . S
O1309 Eu1271 2.372 . S
O1309 C1323 1.257 . S
O1310 Eu1271 2.462 . S
O1310 C1335 1.252 . S
O1311 Eu1271 2.373 . S
O1311 C1327 1.249 . S
O1312 Eu1260 2.335 . S
O1312 C1327 1.264 . S
O1313 Eu1271 2.432 . S
O1313 C1335 1.268 . S
O1314 Eu1271 2.291 . S
O1314 C1334 1.255 . S
O1315 Eu1260 2.372 . S
O1315 C1334 1.257 . S
C1316 O1305 1.249 . S
C1316 O1306 1.264 . S
C1317 C1320 1.382 . S
C1317 C1322 1.390 . S
C1317 C1324 1.506 . S
C1318 C1319 1.398 . S
C1318 C1322 1.392 1_455 S
C1319 C1318 1.398 . S
C1319 C1321 1.372 1_455 S
C1319 H1336 0.931 . S
C1320 C1317 1.382 . S
C1320 C1321 1.390 . S
C1320 H1337 0.931 . S
C1321 C1319 1.372 1_655 S
C1321 C1320 1.390 . S
C1321 H1338 0.929 . S
C1322 C1317 1.390 . S
C1322 C1318 1.392 1_655 S
C1322 H1339 0.930 . S
C1323 O1308 1.255 . S
C1323 O1309 1.257 . S
C1324 Eu1260 2.787 . S
C1324 O1304 1.252 . S
C1324 O1307 1.268 . S
C1324 C1317 1.506 . S
C1325 C1292 1.439 . S
C1325 H1302 0.931 . S
C1325 C1326 1.374 1_655 S
C1326 C1297 1.387 1_455 S
C1326 H1303 0.931 . S
C1326 C1325 1.374 1_455 S
C1327 O1311 1.249 . S
C1327 O1312 1.264 . S
C1328 C1331 1.382 . S
C1328 C1332 1.390 . S
C1328 C1335 1.506 . S
C1329 C1330 1.398 . S
C1329 C1332 1.392 . S
C1330 C1329 1.398 . S
C1330 C1333 1.372 . S
C1330 H1340 0.931 . S
C1331 C1328 1.382 . S
C1331 C1333 1.390 . S
C1331 H1341 0.931 . S
C1332 C1328 1.390 . S
C1332 C1329 1.392 . S
C1332 H1342 0.930 . S
C1333 C1330 1.372 . S
C1333 C1331 1.390 . S
C1333 H1343 0.929 . S
C1334 O1314 1.255 . S
C1334 O1315 1.257 . S
C1335 Eu1271 2.787 . S
C1335 O1310 1.252 . S
C1335 O1313 1.268 . S
C1335 C1328 1.506 . S
H1336 C1319 0.931 . S
H1337 C1320 0.931 . S
H1338 C1321 0.929 . S
H1339 C1322 0.930 . S
H1340 C1330 0.931 . S
H1341 C1331 0.931 . S
H1342 C1332 0.930 . S
H1343 C1333 0.929 . S
Eu1344 N1373 2.600 . S
Eu1344 N1379 2.562 . S
Eu1344 O1388 2.462 . S
Eu1344 O1389 2.373 . S
Eu1344 O1391 2.432 . S
Eu1344 O1392 2.291 . S
Eu1344 O1396 2.335 . S
Eu1344 O1399 2.372 . S
Eu1344 C1408 2.787 . S
C1345 N1346 1.365 . S
C1345 C1348 1.405 . S
C1345 C1352 1.448 . S
N1346 C1345 1.365 . S
N1346 C1349 1.319 . S
N1346 Eu1355 2.600 . S
C1347 C1349 1.397 . S
C1347 C1350 1.367 . S
C1347 H1367 0.931 . S
C1348 C1345 1.405 . S
C1348 C1350 1.403 . S
C1348 C1354 1.439 . S
C1349 N1346 1.319 . S
C1349 C1347 1.397 . S
C1349 H1360 0.930 . S
C1350 C1347 1.367 . S
C1350 C1348 1.403 . S
C1350 H1371 0.929 . S
C1351 C1352 1.430 . S
C1351 C1353 1.387 . S
C1351 C1357 1.404 . S
C1352 C1345 1.448 . S
C1352 C1351 1.430 . S
C1352 N1356 1.351 . S
C1353 C1351 1.387 . S
C1353 C1354 1.374 . S
C1353 H1368 0.931 . S
C1354 C1348 1.439 . S
C1354 C1353 1.374 . S
C1354 H1369 0.931 . S
Eu1355 N1346 2.600 . S
Eu1355 N1356 2.562 . S
Eu1355 O1390 2.335 . S
Eu1355 O1393 2.372 . S
Eu1355 O1394 2.462 . S
Eu1355 O1395 2.373 . S
Eu1355 O1397 2.432 . S
Eu1355 O1398 2.291 . S
Eu1355 C1419 2.787 . S
N1356 C1352 1.351 . S
N1356 Eu1355 2.562 . S
N1356 C1358 1.325 . S
C1357 C1351 1.404 . S
C1357 C1359 1.366 . S
C1357 H1365 0.930 . S
C1358 N1356 1.325 . S
C1358 C1359 1.416 . S
C1358 H1364 0.929 . S
C1359 C1357 1.366 . S
C1359 C1358 1.416 . S
C1359 H1361 0.930 . S
H1360 C1349 0.930 . S
H1361 C1359 0.930 . S
H1362 C1377 0.930 . S
H1363 C1384 0.930 . S
H1364 C1358 0.929 . S
H1365 C1357 0.930 . S
H1366 C1380 0.929 . S
H1367 C1347 0.931 . S
H1368 C1353 0.931 . S
H1369 C1354 0.931 . S
H1370 C1375 0.931 . S
H1371 C1350 0.929 . S
H1372 C1383 0.930 . S
N1373 Eu1344 2.600 . S
N1373 C1374 1.365 . S
N1373 C1377 1.319 . S
C1374 N1373 1.365 . S
C1374 C1376 1.405 . S
C1374 C1382 1.448 . S
C1375 H1370 0.931 . S
C1375 C1377 1.397 . S
C1375 C1378 1.367 . S
C1376 C1374 1.405 . S
C1376 C1378 1.403 . S
C1376 C1409 1.439 . S
C1377 H1362 0.930 . S
C1377 N1373 1.319 . S
C1377 C1375 1.397 . S
C1378 C1375 1.367 . S
C1378 C1376 1.403 . S
C1378 H1385 0.929 . S
N1379 Eu1344 2.562 . S
N1379 C1380 1.325 . S
N1379 C1382 1.351 . S
C1380 H1366 0.929 . S
C1380 N1379 1.325 . S
C1380 C1384 1.416 1_556 S
C1381 C1382 1.430 1_554 S
C1381 C1383 1.404 . S
C1381 C1410 1.387 . S
C1382 C1374 1.448 . S
C1382 N1379 1.351 . S
C1382 C1381 1.430 1_556 S
C1383 H1372 0.930 . S
C1383 C1381 1.404 . S
C1383 C1384 1.366 . S
C1384 H1363 0.930 . S
C1384 C1380 1.416 1_554 S
C1384 C1383 1.366 . S
H1385 C1378 0.929 . S
H1386 C1409 0.931 1_554 S
H1387 C1410 0.931 . S
O1388 Eu1344 2.462 . S
O1388 C1408 1.252 . S
O1389 Eu1344 2.373 . S
O1389 C1400 1.249 . S
O1390 Eu1355 2.335 . S
O1390 C1400 1.264 . S
O1391 Eu1344 2.432 . S
O1391 C1408 1.268 . S
O1392 Eu1344 2.291 . S
O1392 C1407 1.255 . S
O1393 Eu1355 2.372 . S
O1393 C1407 1.257 . S
O1394 Eu1355 2.462 . S
O1394 C1419 1.252 . S
O1395 Eu1355 2.373 . S
O1395 C1411 1.249 . S
O1396 Eu1344 2.335 . S
O1396 C1411 1.264 . S
O1397 Eu1355 2.432 . S
O1397 C1419 1.268 . S
O1398 Eu1355 2.291 . S
O1398 C1418 1.255 . S
O1399 Eu1344 2.372 . S
O1399 C1418 1.257 . S
C1400 O1389 1.249 . S
C1400 O1390 1.264 . S
C1401 C1404 1.382 . S
C1401 C1406 1.390 . S
C1401 C1408 1.506 . S
C1402 C1403 1.398 . S
C1402 C1406 1.392 1_554 S
C1403 C1402 1.398 . S
C1403 C1405 1.372 1_554 S
C1403 H1420 0.931 . S
C1404 C1401 1.382 . S
C1404 C1405 1.390 . S
C1404 H1421 0.931 . S
C1405 C1403 1.372 1_556 S
C1405 C1404 1.390 . S
C1405 H1422 0.929 . S
C1406 C1401 1.390 . S
C1406 C1402 1.392 1_556 S
C1406 H1423 0.930 . S
C1407 O1392 1.255 . S
C1407 O1393 1.257 . S
C1408 Eu1344 2.787 . S
C1408 O1388 1.252 . S
C1408 O1391 1.268 . S
C1408 C1401 1.506 . S
C1409 C1376 1.439 . S
C1409 H1386 0.931 1_556 S
C1409 C1410 1.374 1_556 S
C1410 C1381 1.387 . S
C1410 H1387 0.931 . S
C1410 C1409 1.374 1_554 S
C1411 O1395 1.249 . S
C1411 O1396 1.264 . S
C1412 C1415 1.382 . S
C1412 C1416 1.390 . S
C1412 C1419 1.506 . S
C1413 C1414 1.398 . S
C1413 C1416 1.392 . S
C1414 C1413 1.398 . S
C1414 C1417 1.372 . S
C1414 H1424 0.931 . S
C1415 C1412 1.382 . S
C1415 C1417 1.390 . S
C1415 H1425 0.931 . S
C1416 C1412 1.390 . S
C1416 C1413 1.392 . S
C1416 H1426 0.930 . S
C1417 C1414 1.372 . S
C1417 C1415 1.390 . S
C1417 H1427 0.929 . S
C1418 O1398 1.255 . S
C1418 O1399 1.257 . S
C1419 Eu1355 2.787 . S
C1419 O1394 1.252 . S
C1419 O1397 1.268 . S
C1419 C1412 1.506 . S
H1420 C1403 0.931 . S
H1421 C1404 0.931 . S
H1422 C1405 0.929 . S
H1423 C1406 0.930 . S
H1424 C1414 0.931 . S
H1425 C1415 0.931 . S
H1426 C1416 0.930 . S
H1427 C1417 0.929 . S
Eu1428 N1457 2.600 . S
Eu1428 N1463 2.562 . S
Eu1428 O1472 2.462 . S
Eu1428 O1473 2.373 . S
Eu1428 O1475 2.432 . S
Eu1428 O1476 2.291 . S
Eu1428 O1480 2.335 . S
Eu1428 O1483 2.372 . S
Eu1428 C1492 2.787 . S
C1429 N1430 1.365 . S
C1429 C1432 1.408 . S
C1429 C1436 1.448 . S
N1430 C1429 1.365 . S
N1430 C1433 1.319 . S
N1430 Eu1439 2.600 . S
C1431 C1433 1.397 1_554 S
C1431 C1434 1.367 . S
C1431 H1451 0.931 . S
C1432 C1429 1.408 . S
C1432 C1434 1.405 1_556 S
C1432 C1438 1.435 1_655 S
C1433 N1430 1.319 . S
C1433 C1431 1.397 1_556 S
C1433 H1444 0.930 . S
C1434 C1431 1.367 . S
C1434 C1432 1.405 1_554 S
C1434 H1455 0.929 1_655 S
C1435 C1436 1.430 1_455 S
C1435 C1437 1.387 . S
C1435 C1441 1.404 . S
C1436 C1429 1.448 . S
C1436 C1435 1.430 1_655 S
C1436 N1440 1.351 . S
C1437 C1435 1.387 . S
C1437 C1438 1.374 . S
C1437 H1452 0.931 1_565 S
C1438 C1432 1.435 1_455 S
C1438 C1437 1.374 . S
C1438 H1453 0.931 1_565 S
Eu1439 N1430 2.600 . S
Eu1439 N1440 2.562 . S
Eu1439 O1474 2.335 . S
Eu1439 O1477 2.372 . S
Eu1439 O1478 2.462 . S
Eu1439 O1479 2.373 . S
Eu1439 O1481 2.432 . S
Eu1439 O1482 2.291 . S
Eu1439 C1503 2.787 . S
N1440 C1436 1.351 . S
N1440 Eu1439 2.562 . S
N1440 C1442 1.325 . S
C1441 C1435 1.404 . S
C1441 C1443 1.366 1_455 S
C1441 H1449 0.926 1_565 S
C1442 N1440 1.325 . S
C1442 C1443 1.416 . S
C1442 H1448 0.929 . S
C1443 C1441 1.366 1_655 S
C1443 C1442 1.416 . S
C1443 H1445 0.930 . S
H1444 C1433 0.930 . S
H1445 C1443 0.930 . S
H1446 C1461 0.930 . S
H1447 C1468 0.930 . S
H1448 C1442 0.929 . S
H1449 C1441 0.926 1_545 S
H1450 C1464 0.929 . S
H1451 C1431 0.931 . S
H1452 C1437 0.931 1_545 S
H1453 C1438 0.931 1_545 S
H1454 C1459 0.931 . S
H1455 C1434 0.929 1_455 S
H1456 C1467 0.930 . S
N1457 Eu1428 2.600 . S
N1457 C1458 1.365 . S
N1457 C1461 1.319 . S
C1458 N1457 1.365 . S
C1458 C1460 1.405 . S
C1458 C1466 1.448 . S
C1459 H1454 0.931 . S
C1459 C1461 1.397 . S
C1459 C1462 1.367 . S
C1460 C1458 1.405 . S
C1460 C1462 1.403 . S
C1460 C1493 1.439 . S
C1461 H1446 0.930 . S
C1461 N1457 1.319 . S
C1461 C1459 1.397 . S
C1462 C1459 1.367 . S
C1462 C1460 1.403 . S
C1462 H1469 0.929 . S
N1463 Eu1428 2.562 . S
N1463 C1464 1.325 . S
N1463 C1466 1.351 . S
C1464 H1450 0.929 . S
C1464 N1463 1.325 . S
C1464 C1468 1.416 . S
C1465 C1466 1.430 . S
C1465 C1467 1.404 . S
C1465 C1494 1.387 . S
C1466 C1458 1.448 . S
C1466 N1463 1.351 . S
C1466 C1465 1.430 . S
C1467 H1456 0.930 . S
C1467 C1465 1.404 . S
C1467 C1468 1.366 . S
C1468 H1447 0.930 . S
C1468 C1464 1.416 . S
C1468 C1467 1.366 . S
H1469 C1462 0.929 . S
H1470 C1493 0.931 . S
H1471 C1494 0.931 . S
O1472 Eu1428 2.462 . S
O1472 C1492 1.252 . S
O1473 Eu1428 2.373 . S
O1473 C1484 1.249 . S
O1474 Eu1439 2.335 . S
O1474 C1484 1.264 . S
O1475 Eu1428 2.432 . S
O1475 C1492 1.268 . S
O1476 Eu1428 2.291 . S
O1476 C1491 1.255 . S
O1477 Eu1439 2.372 . S
O1477 C1491 1.257 . S
O1478 Eu1439 2.462 . S
O1478 C1503 1.252 . S
O1479 Eu1439 2.373 . S
O1479 C1495 1.249 . S
O1480 Eu1428 2.335 . S
O1480 C1495 1.264 . S
O1481 Eu1439 2.432 . S
O1481 C1503 1.268 . S
O1482 Eu1439 2.291 . S
O1482 C1502 1.255 . S
O1483 Eu1428 2.372 . S
O1483 C1502 1.257 . S
C1484 O1473 1.249 . S
C1484 O1474 1.264 . S
C1485 C1488 1.382 . S
C1485 C1490 1.390 . S
C1485 C1492 1.506 . S
C1486 C1487 1.398 . S
C1486 C1490 1.392 . S
C1487 C1486 1.398 . S
C1487 C1489 1.372 . S
C1487 H1504 0.931 . S
C1488 C1485 1.382 . S
C1488 C1489 1.390 . S
C1488 H1505 0.931 . S
C1489 C1487 1.372 . S
C1489 C1488 1.390 . S
C1489 H1506 0.929 . S
C1490 C1485 1.390 . S
C1490 C1486 1.392 . S
C1490 H1507 0.930 . S
C1491 O1476 1.255 . S
C1491 O1477 1.257 . S
C1492 Eu1428 2.787 . S
C1492 O1472 1.252 . S
C1492 O1475 1.268 . S
C1492 C1485 1.506 . S
C1493 C1460 1.439 . S
C1493 H1470 0.931 . S
C1493 C1494 1.374 . S
C1494 C1465 1.387 . S
C1494 H1471 0.931 . S
C1494 C1493 1.374 . S
C1495 O1479 1.249 . S
C1495 O1480 1.264 . S
C1496 C1499 1.382 . S
C1496 C1500 1.390 . S
C1496 C1503 1.506 1_545 S
C1497 C1498 1.398 . S
C1497 C1500 1.392 . S
C1498 C1497 1.398 . S
C1498 C1501 1.372 . S
C1498 H1508 0.931 . S
C1499 C1496 1.382 . S
C1499 C1501 1.390 . S
C1499 H1509 0.931 . S
C1500 C1496 1.390 . S
C1500 C1497 1.392 . S
C1500 H1510 0.930 . S
C1501 C1498 1.372 . S
C1501 C1499 1.390 . S
C1501 H1511 0.929 . S
C1502 O1482 1.255 . S
C1502 O1483 1.257 . S
C1503 Eu1439 2.787 . S
C1503 O1478 1.252 . S
C1503 O1481 1.268 . S
C1503 C1496 1.506 1_565 S
H1504 C1487 0.931 . S
H1505 C1488 0.931 . S
H1506 C1489 0.929 . S
H1507 C1490 0.930 . S
H1508 C1498 0.931 . S
H1509 C1499 0.931 . S
H1510 C1500 0.930 . S
H1511 C1501 0.929 . S
Eu1512 N1541 2.600 . S
Eu1512 N1547 2.562 . S
Eu1512 O1556 2.462 . S
Eu1512 O1557 2.373 . S
Eu1512 O1559 2.432 . S
Eu1512 O1560 2.291 . S
Eu1512 O1564 2.335 . S
Eu1512 O1567 2.372 . S
Eu1512 C1576 2.787 . S
C1513 N1514 1.365 . S
C1513 C1516 1.405 . S
C1513 C1520 1.448 . S
N1514 C1513 1.365 . S
N1514 C1517 1.319 . S
N1514 Eu1523 2.600 . S
C1515 C1517 1.397 . S
C1515 C1518 1.367 . S
C1515 H1535 0.931 . S
C1516 C1513 1.405 . S
C1516 C1518 1.403 . S
C1516 C1522 1.439 . S
C1517 N1514 1.319 . S
C1517 C1515 1.397 . S
C1517 H1528 0.930 . S
C1518 C1515 1.367 . S
C1518 C1516 1.403 . S
C1518 H1539 0.929 . S
C1519 C1520 1.430 . S
C1519 C1521 1.387 . S
C1519 C1525 1.404 . S
C1520 C1513 1.448 . S
C1520 C1519 1.430 . S
C1520 N1524 1.351 . S
C1521 C1519 1.387 . S
C1521 C1522 1.374 . S
C1521 H1536 0.931 . S
C1522 C1516 1.439 . S
C1522 C1521 1.374 . S
C1522 H1537 0.931 . S
Eu1523 N1514 2.600 . S
Eu1523 N1524 2.562 . S
Eu1523 O1558 2.335 . S
Eu1523 O1561 2.372 . S
Eu1523 O1562 2.462 . S
Eu1523 O1563 2.373 . S
Eu1523 O1565 2.432 . S
Eu1523 O1566 2.291 . S
Eu1523 C1587 2.787 . S
N1524 C1520 1.351 . S
N1524 Eu1523 2.562 . S
N1524 C1526 1.325 . S
C1525 C1519 1.404 . S
C1525 C1527 1.366 . S
C1525 H1533 0.930 . S
C1526 N1524 1.325 . S
C1526 C1527 1.416 . S
C1526 H1532 0.929 . S
C1527 C1525 1.366 . S
C1527 C1526 1.416 . S
C1527 H1529 0.930 . S
H1528 C1517 0.930 . S
H1529 C1527 0.930 . S
H1530 C1545 0.930 . S
H1531 C1552 0.930 . S
H1532 C1526 0.929 . S
H1533 C1525 0.930 . S
H1534 C1548 0.929 . S
H1535 C1515 0.931 . S
H1536 C1521 0.931 . S
H1537 C1522 0.931 . S
H1538 C1543 0.931 . S
H1539 C1518 0.929 . S
H1540 C1551 0.930 . S
N1541 Eu1512 2.600 . S
N1541 C1542 1.365 . S
N1541 C1545 1.319 . S
C1542 N1541 1.365 . S
C1542 C1544 1.405 . S
C1542 C1550 1.448 . S
C1543 H1538 0.931 . S
C1543 C1545 1.397 . S
C1543 C1546 1.367 . S
C1544 C1542 1.405 . S
C1544 C1546 1.403 . S
C1544 C1577 1.439 . S
C1545 H1530 0.930 . S
C1545 N1541 1.319 . S
C1545 C1543 1.397 . S
C1546 C1543 1.367 . S
C1546 C1544 1.403 . S
C1546 H1553 0.929 . S
N1547 Eu1512 2.562 . S
N1547 C1548 1.325 . S
N1547 C1550 1.351 . S
C1548 H1534 0.929 . S
C1548 N1547 1.325 . S
C1548 C1552 1.416 . S
C1549 C1550 1.430 . S
C1549 C1551 1.404 . S
C1549 C1578 1.387 . S
C1550 C1542 1.448 . S
C1550 N1547 1.351 . S
C1550 C1549 1.430 . S
C1551 H1540 0.930 . S
C1551 C1549 1.404 . S
C1551 C1552 1.366 . S
C1552 H1531 0.930 . S
C1552 C1548 1.416 . S
C1552 C1551 1.366 . S
H1553 C1546 0.929 . S
H1554 C1577 0.931 . S
H1555 C1578 0.931 . S
O1556 Eu1512 2.462 . S
O1556 C1576 1.252 . S
O1557 Eu1512 2.373 . S
O1557 C1568 1.249 . S
O1558 Eu1523 2.335 . S
O1558 C1568 1.264 . S
O1559 Eu1512 2.432 . S
O1559 C1576 1.268 . S
O1560 Eu1512 2.291 . S
O1560 C1575 1.255 . S
O1561 Eu1523 2.372 . S
O1561 C1575 1.257 . S
O1562 Eu1523 2.462 . S
O1562 C1587 1.252 . S
O1563 Eu1523 2.373 . S
O1563 C1579 1.249 . S
O1564 Eu1512 2.335 . S
O1564 C1579 1.264 . S
O1565 Eu1523 2.432 . S
O1565 C1587 1.268 . S
O1566 Eu1523 2.291 . S
O1566 C1586 1.255 . S
O1567 Eu1512 2.372 . S
O1567 C1586 1.257 . S
C1568 O1557 1.249 . S
C1568 O1558 1.264 . S
C1569 C1572 1.382 . S
C1569 C1574 1.390 . S
C1569 C1576 1.506 . S
C1570 C1571 1.398 . S
C1570 C1574 1.392 . S
C1571 C1570 1.398 . S
C1571 C1573 1.372 . S
C1571 H1588 0.931 . S
C1572 C1569 1.382 . S
C1572 C1573 1.390 . S
C1572 H1589 0.931 . S
C1573 C1571 1.372 . S
C1573 C1572 1.390 . S
C1573 H1590 0.929 . S
C1574 C1569 1.390 . S
C1574 C1570 1.392 . S
C1574 H1591 0.930 . S
C1575 O1560 1.255 . S
C1575 O1561 1.257 . S
C1576 Eu1512 2.787 . S
C1576 O1556 1.252 . S
C1576 O1559 1.268 . S
C1576 C1569 1.506 . S
C1577 C1544 1.439 . S
C1577 H1554 0.931 . S
C1577 C1578 1.374 . S
C1578 C1549 1.387 . S
C1578 H1555 0.931 . S
C1578 C1577 1.374 . S
C1579 O1563 1.249 . S
C1579 O1564 1.264 . S
C1580 C1583 1.382 . S
C1580 C1584 1.390 . S
C1580 C1587 1.506 . S
C1581 C1582 1.398 . S
C1581 C1584 1.392 . S
C1582 C1581 1.398 . S
C1582 C1585 1.372 . S
C1582 H1592 0.931 . S
C1583 C1580 1.382 . S
C1583 C1585 1.390 . S
C1583 H1593 0.931 . S
C1584 C1580 1.390 . S
C1584 C1581 1.392 . S
C1584 H1594 0.930 . S
C1585 C1582 1.372 . S
C1585 C1583 1.390 . S
C1585 H1595 0.929 . S
C1586 O1566 1.255 . S
C1586 O1567 1.257 . S
C1587 Eu1523 2.787 . S
C1587 O1562 1.252 . S
C1587 O1565 1.268 . S
C1587 C1580 1.506 . S
H1588 C1571 0.931 . S
H1589 C1572 0.931 . S
H1590 C1573 0.929 . S
H1591 C1574 0.930 . S
H1592 C1582 0.931 . S
H1593 C1583 0.931 . S
H1594 C1584 0.930 . S
H1595 C1585 0.929 . S
Eu1596 N1625 2.600 1_455 S
Eu1596 N1631 2.562 1_455 S
Eu1596 O1640 2.462 1_455 S
Eu1596 O1641 2.373 . S
Eu1596 O1643 2.432 1_455 S
Eu1596 O1644 2.291 1_455 S
Eu1596 O1648 2.335 . S
Eu1596 O1651 2.372 . S
Eu1596 C1660 2.787 1_455 S
C1597 N1598 1.365 . S
C1597 C1600 1.405 . S
C1597 C1604 1.448 . S
N1598 C1597 1.365 . S
N1598 C1601 1.319 . S
N1598 Eu1607 2.600 1_556 S
C1599 C1601 1.397 . S
C1599 C1602 1.367 . S
C1599 H1619 0.931 . S
C1600 C1597 1.405 . S
C1600 C1602 1.403 . S
C1600 C1606 1.439 . S
C1601 N1598 1.319 . S
C1601 C1599 1.397 . S
C1601 H1612 0.930 . S
C1602 C1599 1.367 . S
C1602 C1600 1.403 . S
C1602 H1623 0.929 . S
C1603 C1604 1.430 1_554 S
C1603 C1605 1.387 1_554 S
C1603 C1609 1.404 . S
C1604 C1597 1.448 . S
C1604 C1603 1.430 1_556 S
C1604 N1608 1.351 1_556 S
C1605 C1603 1.387 1_556 S
C1605 C1606 1.374 . S
C1605 H1620 0.931 . S
C1606 C1600 1.439 . S
C1606 C1605 1.374 . S
C1606 H1621 0.931 . S
Eu1607 N1598 2.600 1_554 S
Eu1607 N1608 2.562 . S
Eu1607 O1642 2.335 . S
Eu1607 O1645 2.372 1_554 S
Eu1607 O1646 2.462 . S
Eu1607 O1647 2.373 . S
Eu1607 O1649 2.432 1_554 S
Eu1607 O1650 2.291 . S
Eu1607 C1671 2.787 1_554 S
N1608 C1604 1.351 1_554 S
N1608 Eu1607 2.562 . S
N1608 C1610 1.325 . S
C1609 C1603 1.404 . S
C1609 C1611 1.366 . S
C1609 H1617 0.930 . S
C1610 N1608 1.325 . S
C1610 C1611 1.416 . S
C1610 H1616 0.929 . S
C1611 C1609 1.366 . S
C1611 C1610 1.416 . S
C1611 H1613 0.930 . S
H1612 C1601 0.930 . S
H1613 C1611 0.930 . S
H1614 C1629 0.930 . S
H1615 C1636 0.930 1_556 S
H1616 C1610 0.929 . S
H1617 C1609 0.930 . S
H1618 C1632 0.929 . S
H1619 C1599 0.931 . S
H1620 C1605 0.931 . S
H1621 C1606 0.931 . S
H1622 C1627 0.931 . S
H1623 C1602 0.929 . S
H1624 C1635 0.930 . S
N1625 Eu1596 2.600 1_655 S
N1625 C1626 1.365 . S
N1625 C1629 1.319 1_655 S
C1626 N1625 1.365 . S
C1626 C1628 1.405 . S
C1626 C1634 1.448 . S
C1627 H1622 0.931 . S
C1627 C1629 1.397 . S
C1627 C1630 1.367 1_455 S
C1628 C1626 1.405 . S
C1628 C1630 1.403 . S
C1628 C1661 1.439 . S
C1629 H1614 0.930 . S
C1629 N1625 1.319 1_455 S
C1629 C1627 1.397 . S
C1630 C1627 1.367 1_655 S
C1630 C1628 1.403 . S
C1630 H1637 0.929 . S
N1631 Eu1596 2.562 1_655 S
N1631 C1632 1.325 . S
N1631 C1634 1.351 . S
C1632 H1618 0.929 . S
C1632 N1631 1.325 . S
C1632 C1636 1.416 . S
C1633 C1634 1.430 . S
C1633 C1635 1.404 . S
C1633 C1662 1.387 . S
C1634 C1626 1.448 . S
C1634 N1631 1.351 . S
C1634 C1633 1.430 . S
C1635 H1624 0.930 . S
C1635 C1633 1.404 . S
C1635 C1636 1.366 . S
C1636 H1615 0.930 1_554 S
C1636 C1632 1.416 . S
C1636 C1635 1.366 . S
H1637 C1630 0.929 . S
H1638 C1661 0.931 . S
H1639 C1662 0.931 . S
O1640 Eu1596 2.462 1_655 S
O1640 C1660 1.252 . S
O1641 Eu1596 2.373 . S
O1641 C1652 1.249 . S
O1642 Eu1607 2.335 . S
O1642 C1652 1.264 . S
O1643 Eu1596 2.432 1_655 S
O1643 C1660 1.268 . S
O1644 Eu1596 2.291 1_655 S
O1644 C1659 1.255 1_554 S
O1645 Eu1607 2.372 1_556 S
O1645 C1659 1.257 1_455 S
O1646 Eu1607 2.462 . S
O1646 C1671 1.252 1_554 S
O1647 Eu1607 2.373 . S
O1647 C1663 1.249 . S
O1648 Eu1596 2.335 . S
O1648 C1663 1.264 . S
O1649 Eu1607 2.432 1_556 S
O1649 C1671 1.268 . S
O1650 Eu1607 2.291 . S
O1650 C1670 1.255 . S
O1651 Eu1596 2.372 . S
O1651 C1670 1.257 . S
C1652 O1641 1.249 . S
C1652 O1642 1.264 . S
C1653 C1656 1.382 . S
C1653 C1658 1.390 . S
C1653 C1660 1.506 . S
C1654 C1655 1.398 . S
C1654 C1658 1.392 . S
C1655 C1654 1.398 . S
C1655 C1657 1.372 . S
C1655 H1672 0.931 . S
C1656 C1653 1.382 . S
C1656 C1657 1.390 . S
C1656 H1673 0.931 . S
C1657 C1655 1.372 . S
C1657 C1656 1.390 . S
C1657 H1674 0.929 . S
C1658 C1653 1.390 . S
C1658 C1654 1.392 . S
C1658 H1675 0.930 . S
C1659 O1644 1.255 1_556 S
C1659 O1645 1.257 1_655 S
C1660 Eu1596 2.787 1_655 S
C1660 O1640 1.252 . S
C1660 O1643 1.268 . S
C1660 C1653 1.506 . S
C1661 C1628 1.439 . S
C1661 H1638 0.931 . S
C1661 C1662 1.374 . S
C1662 C1633 1.387 . S
C1662 H1639 0.931 . S
C1662 C1661 1.374 . S
C1663 O1647 1.249 . S
C1663 O1648 1.264 . S
C1664 C1667 1.382 . S
C1664 C1668 1.390 1_556 S
C1664 C1671 1.506 . S
C1665 C1666 1.398 1_554 S
C1665 C1668 1.392 . S
C1666 C1665 1.398 1_556 S
C1666 C1669 1.372 . S
C1666 H1676 0.931 . S
C1667 C1664 1.382 . S
C1667 C1669 1.390 . S
C1667 H1677 0.931 . S
C1668 C1664 1.390 1_554 S
C1668 C1665 1.392 . S
C1668 H1678 0.930 . S
C1669 C1666 1.372 . S
C1669 C1667 1.390 . S
C1669 H1679 0.929 . S
C1670 O1650 1.255 . S
C1670 O1651 1.257 . S
C1671 Eu1607 2.787 1_556 S
C1671 O1646 1.252 1_556 S
C1671 O1649 1.268 . S
C1671 C1664 1.506 . S
H1672 C1655 0.931 . S
H1673 C1656 0.931 . S
H1674 C1657 0.929 . S
H1675 C1658 0.930 . S
H1676 C1666 0.931 . S
H1677 C1667 0.931 . S
H1678 C1668 0.930 . S
H1679 C1669 0.929 . S
C111 C392 3.860 1_655 S
C64 C494 2.870 . S
C77 C560 2.756 . S
C646 C95 1.371 . S
C25 C730 1.340 . S
C812 C36 2.591 . S
C914 C50 2.840 . S
C11 C980 3.567 . S
C410 C237 2.789 . S
C245 C478 0.537 . S
C578 C279 1.347 . S
C644 C175 1.933 . S
C231 C728 1.923 . S
C830 C251 1.321 . S
C898 C273 0.633 . S
C998 C181 2.815 . S
C394 C165 2.549 1_554 S
C288 C1082 2.150 . S
C1150 C333 2.130 . S
C1232 C316 0.191 . S
C123 C982 2.566 . S
C137 C562 2.165 . S
C330 C1334 2.159 . S
C1400 C302 0.203 . S
C403 C63 3.890 . S
C1407 C106 3.024 . S
C97 C571 2.899 . S
C81 C1329 1.183 . S
C741 C13 0.835 . S
C55 C1159 2.882 . S
C903 C35 2.586 . S
C1495 C21 3.872 . S
C399 C147 2.929 . S
C1413 C321 0.500 . S
C119 C567 1.395 . S
C293 C1327 2.094 . S
C153 C739 2.083 . S
C1155 C315 1.437 . S
C125 C909 0.513 . S
C287 C1491 2.916 . S
C193 C405 2.360 . S
C176 C1071 2.332 . S
C263 C825 1.958 . S
C246 C1243 0.797 . S
C1497 C277 2.208 . S
C221 C573 1.800 . S
C651 C260 2.333 . S
C487 C204 0.768 . S
C83 C1568 3.860 . S
C1418 C92 2.870 . S
C105 C1652 2.756 . S
C67 C1318 1.371 . S
C53 C1066 1.340 . S
C1148 C8 2.591 . S
C1250 C22 2.840 . S
C1484 C39 3.567 . S
C1586 C265 2.788 . S
C189 C1402 0.537 . S
C1670 C209 1.347 . S
C1316 C217 1.934 . S
C1064 C259 1.923 . S
C195 C1166 1.321 . S
C1234 C203 0.633 . S
C223 C1502 2.815 . S
C1570 C319 2.549 . S
C134 C746 2.150 . S
C814 C151 2.130 . S
C896 C162 0.191 . S
C1486 C305 2.566 . S
C291 C1654 2.165 . S
C662 C148 2.159 . S
C476 C120 0.202 . S
C91 C1579 3.890 . S
C483 C78 3.024 . S
C69 C1663 2.899 . S
C109 C657 1.183 . S
C41 C1077 0.834 . S
C823 C27 2.882 . S
C7 C1239 2.586 . S
C49 C991 3.872 . S
C1575 C329 2.929 . S
C167 C489 0.500 . S
C1659 C301 1.395 . S
C139 C655 2.095 . S
C335 C1075 2.083 . S
C819 C161 1.437 . S
C307 C1245 0.513 . S
C987 C133 2.916 . S
C1581 C249 2.360 . S
C735 C218 2.332 1_545 S
C235 C1161 1.958 . S
C907 C190 0.796 . S
C207 C993 2.208 . S
C179 C1665 1.800 . S
C1323 C232 2.333 . S
C1411 C274 0.768 . S
