# Generated by pormake.
# Topology zzz, (3,6)-cn, num edge types: 1
# Building blocks:
#     Node 0, Type 0, BuildingBlock: OLANEW_clean_sbu_2, # of connection points: 3
#     Node 1, Type 0, BuildingBlock: OLANEW_clean_sbu_2, # of connection points: 3
#     Node 2, Type 0, BuildingBlock: OLANEW_clean_sbu_2, # of connection points: 3
#     Node 3, Type 0, BuildingBlock: OLANEW_clean_sbu_2, # of connection points: 3
#     Node 4, Type 0, BuildingBlock: OLANEW_clean_sbu_2, # of connection points: 3
#     Node 5, Type 0, BuildingBlock: OLANEW_clean_sbu_2, # of connection points: 3
#     Node 6, Type 0, BuildingBlock: OLANEW_clean_sbu_2, # of connection points: 3
#     Node 7, Type 0, BuildingBlock: OLANEW_clean_sbu_2, # of connection points: 3
#     Node 8, Type 1, BuildingBlock: BETFEN_clean_sbu_0, # of connection points: 6
#     Node 9, Type 1, BuildingBlock: BETFEN_clean_sbu_0, # of connection points: 6
#     Node 10, Type 1, BuildingBlock: BETFEN_clean_sbu_0, # of connection points: 6
#     Node 11, Type 1, BuildingBlock: BETFEN_clean_sbu_0, # of connection points: 6
#     Edge 12, Type (0, 1), BuildingBlock: ZUJKAS_clean_linker_0, # of connection points: 2
#     Edge 13, Type (0, 1), BuildingBlock: ZUJKAS_clean_linker_0, # of connection points: 2
#     Edge 14, Type (0, 1), BuildingBlock: ZUJKAS_clean_linker_0, # of connection points: 2
#     Edge 15, Type (0, 1), BuildingBlock: ZUJKAS_clean_linker_0, # of connection points: 2
#     Edge 16, Type (0, 1), BuildingBlock: ZUJKAS_clean_linker_0, # of connection points: 2
#     Edge 17, Type (0, 1), BuildingBlock: ZUJKAS_clean_linker_0, # of connection points: 2
#     Edge 18, Type (0, 1), BuildingBlock: ZUJKAS_clean_linker_0, # of connection points: 2
#     Edge 19, Type (0, 1), BuildingBlock: ZUJKAS_clean_linker_0, # of connection points: 2
#     Edge 20, Type (0, 1), BuildingBlock: ZUJKAS_clean_linker_0, # of connection points: 2
#     Edge 21, Type (0, 1), BuildingBlock: ZUJKAS_clean_linker_0, # of connection points: 2
#     Edge 22, Type (0, 1), BuildingBlock: ZUJKAS_clean_linker_0, # of connection points: 2
#     Edge 23, Type (0, 1), BuildingBlock: ZUJKAS_clean_linker_0, # of connection points: 2
#     Edge 24, Type (0, 1), BuildingBlock: ZUJKAS_clean_linker_0, # of connection points: 2
#     Edge 25, Type (0, 1), BuildingBlock: ZUJKAS_clean_linker_0, # of connection points: 2
#     Edge 26, Type (0, 1), BuildingBlock: ZUJKAS_clean_linker_0, # of connection points: 2
#     Edge 27, Type (0, 1), BuildingBlock: ZUJKAS_clean_linker_0, # of connection points: 2
#     Edge 28, Type (0, 1), BuildingBlock: ZUJKAS_clean_linker_0, # of connection points: 2
#     Edge 29, Type (0, 1), BuildingBlock: ZUJKAS_clean_linker_0, # of connection points: 2
#     Edge 30, Type (0, 1), BuildingBlock: ZUJKAS_clean_linker_0, # of connection points: 2
#     Edge 31, Type (0, 1), BuildingBlock: ZUJKAS_clean_linker_0, # of connection points: 2
#     Edge 32, Type (0, 1), BuildingBlock: ZUJKAS_clean_linker_0, # of connection points: 2
#     Edge 33, Type (0, 1), BuildingBlock: ZUJKAS_clean_linker_0, # of connection points: 2
#     Edge 34, Type (0, 1), BuildingBlock: ZUJKAS_clean_linker_0, # of connection points: 2
#     Edge 35, Type (0, 1), BuildingBlock: ZUJKAS_clean_linker_0, # of connection points: 2
# Relax obj value: 0.223
# Max RMSD: 0.180
# Mean RMSD: 0.168
data_MOF--net-zzz--node1-OLANEW_clean_sbu_2--node2-BETFEN_clean_sbu_0--edge1-ZUJKAS_clean_linker_0
_symmetry_space_group_name_H-M    P1
_symmetry_Int_Tables_number       1
_symmetry_cell_setting            triclinic
loop_
_symmetry_equiv_pos_as_xyz
'x, y, z'
_cell_length_a     72.133531
_cell_length_b     72.149971
_cell_length_c     19.602062
_cell_angle_alpha  89.981918
_cell_angle_beta   89.999962
_cell_angle_gamma 90.022741
loop_
_atom_site_label
_atom_site_type_symbol
_atom_site_fract_x
_atom_site_fract_y
_atom_site_fract_z
_atom_type_partial_charge
O0 O 0.73869 0.53174 0.15073 0.0
Cd1 Cd 0.70781 0.53871 0.19561 0.0
O2 O 0.74351 0.51994 0.25204 0.0
Cd3 Cd 0.76076 0.50591 0.32743 0.0
O4 O 0.78488 0.4976 0.38654 0.0
C5 C 0.79469 0.51057 0.41137 0.0
O6 O 0.78931 0.52781 0.4028 0.0
C7 C 0.74961 0.52414 0.19313 0.0
C8 C 0.67872 0.53035 0.10746 0.0
O9 O 0.68634 0.54641 0.10703 0.0
O10 O 0.68507 0.51817 0.14894 0.0
O11 O 0.94502 0.73196 0.19787 0.0
Cd12 Cd 0.93509 0.70244 0.24605 0.0
O13 O 0.9647 0.7339 0.28255 0.0
Cd14 Cd 0.9861 0.74774 0.34211 0.0
O15 O 0.99523 0.77117 0.4027 0.0
C16 C 0.006 0.78341 0.37829 0.0
O17 O 0.01305 0.78097 0.31715 0.0
C18 C 0.95753 0.74093 0.22919 0.0
C19 C 0.95033 0.67322 0.17292 0.0
O20 O 0.93459 0.68013 0.15647 0.0
O21 O 0.95881 0.68005 0.22462 0.0
O22 O 0.75808 0.97167 0.27332 0.0
Cd23 Cd 0.78956 0.96476 0.31275 0.0
O24 O 0.75823 0.99648 0.33775 0.0
Cd25 Cd 0.74548 0.02106 0.38272 0.0
O26 O 0.73545 0.04945 0.41928 0.0
C27 C 0.71935 0.05579 0.435 0.0
O28 O 0.73579 0.04974 0.4194 0.0
C29 C 0.74992 0.9861 0.29521 0.0
C30 C 0.8168 0.97096 0.2138 0.0
O31 O 0.80907 0.95505 0.22011 0.0
O32 O 0.81153 0.98398 0.25383 0.0
O33 O 0.54439 0.7628 0.20808 0.0
Cd34 Cd 0.55133 0.79283 0.25912 0.0
O35 O 0.51764 0.76376 0.26117 0.0
Cd36 Cd 0.49124 0.75105 0.28864 0.0
O37 O 0.47862 0.72561 0.32526 0.0
C38 C 0.48213 0.72129 0.38669 0.0
O39 O 0.49098 0.73328 0.42525 0.0
C40 C 0.52904 0.7552 0.22298 0.0
C41 C 0.54468 0.82128 0.16684 0.0
O42 O 0.56075 0.81382 0.17161 0.0
O43 O 0.5318 0.81536 0.20628 0.0
O44 O 0.26049 0.52784 0.05408 0.0
Cd45 Cd 0.29255 0.53367 0.02007 0.0
O46 O 0.26356 0.4993 0.01854 0.0
Cd47 Cd 0.25585 0.47086 -0.00731 0.0
O48 O 0.25189 0.44051 0.96142 0.0
C49 C 0.23795 0.432 0.9352 0.0
O50 O 0.2523 0.44022 0.96172 0.0
C51 C 0.25355 0.51181 0.04561 0.0
C52 C 0.31715 0.5296 0.12902 0.0
O53 O 0.30959 0.54528 0.11595 0.0
O54 O 0.31305 0.51582 0.09061 0.0
O55 O 0.96537 0.27614 0.13202 0.0
Cd56 Cd 0.96666 0.30651 0.07736 0.0
O57 O 0.99373 0.27239 0.09457 0.0
Cd58 Cd 0.0189 0.25606 0.08172 0.0
O59 O 0.03115 0.23009 0.04885 0.0
C60 C 0.02942 0.22627 0.98595 0.0
O61 O 0.02216 0.23877 0.94517 0.0
C62 C 0.97964 0.266 0.12582 0.0
C63 C 0.98008 0.3332 0.16696 0.0
O64 O 0.96263 0.33036 0.16032 0.0
O65 O 0.99121 0.32347 0.13072 0.0
O66 O 0.22787 0.98341 0.10867 0.0
Cd67 Cd 0.19666 0.98444 0.06101 0.0
O68 O 0.23322 0.00993 0.05769 0.0
Cd69 Cd 0.25287 0.03071 0.02166 0.0
O70 O 0.2802 0.03761 0.98248 0.0
C71 C 0.28335 0.0346 0.91972 0.0
O72 O 0.2697 0.02883 0.88075 0.0
C73 C 0.23881 0.99672 0.0954 0.0
C74 C 0.17072 0.9909 0.16327 0.0
O75 O 0.17517 0.97435 0.14596 0.0
O76 O 0.17845 0.0044 0.1317 0.0
O77 O 0.53114 0.22644 0.07372 0.0
Cd78 Cd 0.53483 0.19694 0.0149 0.0
O79 O 0.5016 0.22543 0.04775 0.0
Cd80 Cd 0.47536 0.23979 0.0318 0.0
O81 O 0.4659 0.266 0.98976 0.0
C82 C 0.47928 0.27554 0.9664 0.0
O83 O 0.49611 0.26866 0.96973 0.0
C84 C 0.51515 0.23377 0.0758 0.0
C85 C 0.53058 0.16802 0.10705 0.0
O86 O 0.54659 0.17502 0.09497 0.0
O87 O 0.5166 0.17457 0.07465 0.0
Pr88 Pr 0.0032 0.9961 0.77155 0.0
Pr89 Pr 0.99004 0.01179 0.63234 0.0
C90 C 0.00672 0.97789 0.89095 0.0
C91 C 0.00381 0.95897 0.9167 0.0
C92 C 0.01323 0.95304 0.97524 0.0
C93 C 0.01052 0.93512 0.00052 0.0
C94 C 0.99834 0.9228 0.96753 0.0
C95 C 0.98901 0.92881 0.90844 0.0
C96 C 0.99173 0.94673 0.88325 0.0
C97 C 0.03127 0.00313 0.67781 0.0
C98 C 0.99135 0.96694 0.64686 0.0
C99 C 0.9855 0.02903 0.51114 0.0
C100 C 0.98516 0.04775 0.48168 0.0
C101 C 0.98063 0.05004 0.41274 0.0
C102 C 0.98053 0.06771 0.38344 0.0
C103 C 0.985 0.08343 0.42266 0.0
C104 C 0.98946 0.08102 0.49206 0.0
C105 C 0.98953 0.06332 0.52128 0.0
C106 C 0.96193 0.00396 0.72536 0.0
C107 C 0.00511 0.04074 0.75488 0.0
O108 O 0.99182 0.98708 0.8736 0.0
O109 O 0.02047 0.98015 0.84829 0.0
O110 O 0.01585 0.99581 0.66442 0.0
O111 O 0.03312 0.00643 0.74272 0.0
O112 O 0.99264 0.98073 0.60292 0.0
O113 O 0.99204 0.96981 0.71342 0.0
O114 O 0.00155 0.02317 0.53356 0.0
O115 O 0.97169 0.02453 0.55105 0.0
O116 O 0.97708 0.0118 0.73949 0.0
O117 O 0.96051 0.00051 0.66049 0.0
O118 O 0.00413 0.02719 0.79984 0.0
O119 O 0.00205 0.03799 0.68906 0.0
H120 H 0.02269 0.96229 0.00145 0.0
H121 H 0.01811 0.93086 0.04553 0.0
H122 H 0.97936 0.91977 0.88224 0.0
H123 H 0.98431 0.95108 0.83795 0.0
H124 H 0.97717 0.03815 0.38148 0.0
H125 H 0.97675 0.06907 0.33021 0.0
H126 H 0.99317 0.09278 0.52359 0.0
H127 H 0.99308 0.06175 0.57461 0.0
Pr128 Pr 0.5132 0.99803 0.71289 0.0
Pr129 Pr 0.49681 0.98559 0.56213 0.0
C130 C 0.52668 0.99531 0.84032 0.0
C131 C 0.54339 -0.00054 0.88029 0.0
C132 C 0.5422 0.0005 0.95154 0.0
C133 C 0.55821 0.00284 0.99086 0.0
C134 C 0.57569 0.00406 0.95941 0.0
C135 C 0.57673 0.00356 0.88771 0.0
C136 C 0.56071 0.00132 0.84846 0.0
C137 C 0.51294 0.02786 0.62165 0.0
C138 C 0.54208 0.98905 0.58199 0.0
C139 C 0.47881 0.9802 0.44347 0.0
C140 C 0.4608 0.98437 0.41201 0.0
C141 C 0.45399 0.97261 0.36104 0.0
C142 C 0.43645 0.97559 0.33294 0.0
C143 C 0.42536 0.99046 0.35518 0.0
C144 C 0.43238 0.00236 0.40601 0.0
C145 C 0.44993 -0.0007 0.43436 0.0
C146 C 0.50504 0.95797 0.65625 0.0
C147 C 0.46823 0.00201 0.68362 0.0
O148 O 0.52832 0.98216 0.79448 0.0
O149 O 0.51663 0.00943 0.81994 0.0
O150 O 0.50757 0.01155 0.61194 0.0
O151 O 0.51914 0.02951 0.68382 0.0
O152 O 0.52821 0.98934 0.53765 0.0
O153 O 0.53957 0.98952 0.64916 0.0
O154 O 0.49015 0.99413 0.45375 0.0
O155 O 0.47848 0.96829 0.49382 0.0
O156 O 0.49743 0.97324 0.6692 0.0
O157 O 0.50835 0.95612 0.59136 0.0
O158 O 0.48141 0.00065 0.73033 0.0
O159 O 0.47111 0.99873 0.61789 0.0
H160 H 0.52893 0.99903 0.97689 0.0
H161 H 0.55698 0.00301 0.04592 0.0
H162 H 0.58997 0.00472 0.86198 0.0
H163 H 0.56187 0.00063 0.7934 0.0
H164 H 0.46213 0.9609 0.34374 0.0
H165 H 0.43141 0.96592 0.29499 0.0
H166 H 0.42432 0.01405 0.42391 0.0
H167 H 0.45492 0.00846 0.47413 0.0
Pr168 Pr 0.48716 0.50482 0.73347 0.0
Pr169 Pr 0.49436 0.48734 0.57898 0.0
C170 C 0.49394 0.52007 0.85598 0.0
C171 C 0.49256 0.53833 0.8888 0.0
C172 C 0.49289 0.53964 0.96006 0.0
C173 C 0.49315 0.55701 -0.00821 0.0
C174 C 0.49318 0.57339 0.9527 0.0
C175 C 0.49231 0.57195 0.88112 0.0
C176 C 0.49197 0.55458 0.8495 0.0
C177 C 0.45608 0.50863 0.64804 0.0
C178 C 0.49547 0.5324 0.6 0.0
C179 C 0.49273 0.46953 0.45841 0.0
C180 C 0.4945 0.45062 0.43151 0.0
C181 C 0.49852 0.44801 0.3623 0.0
C182 C 0.50011 0.43013 0.33557 0.0
C183 C 0.49767 0.41452 0.37769 0.0
C184 C 0.49369 0.41722 0.44728 0.0
C185 C 0.49217 0.43514 0.47402 0.0
C186 C 0.52498 0.49184 0.66367 0.0
C187 C 0.48092 0.45975 0.70942 0.0
O188 O 0.50647 0.51867 0.80773 0.0
O189 O 0.47832 0.51154 0.84174 0.0
O190 O 0.47155 0.50161 0.63567 0.0
O191 O 0.45583 0.51418 0.71128 0.0
O192 O 0.49129 0.5189 0.55686 0.0
O193 O 0.49801 0.52952 0.6662 0.0
O194 O 0.47813 0.47289 0.49613 0.0
O195 O 0.50791 0.47721 0.48168 0.0
O196 O 0.50914 0.48648 0.68224 0.0
O197 O 0.52584 0.49398 0.59781 0.0
O198 O 0.48252 0.47334 0.75453 0.0
O199 O 0.48389 0.46191 0.6431 0.0
H200 H 0.49331 0.52723 0.99117 0.0
H201 H 0.49351 0.55759 0.04698 0.0
H202 H 0.49253 0.58422 0.84933 0.0
H203 H 0.49171 0.55383 0.79431 0.0
H204 H 0.50035 0.45982 0.32881 0.0
H205 H 0.50297 0.42853 0.28165 0.0
H206 H 0.49195 0.4055 0.48122 0.0
H207 H 0.48918 0.4369 0.52778 0.0
Pr208 Pr 0.00834 0.48589 0.80204 0.0
Pr209 Pr 0.02285 0.49715 0.65766 0.0
C210 C 0.99558 0.48502 0.93093 0.0
C211 C 0.97687 0.4886 0.95794 0.0
C212 C 0.97175 0.48262 0.02332 0.0
C213 C 0.95351 0.48509 0.04644 0.0
C214 C 0.94012 0.49347 0.00417 0.0
C215 C 0.94549 0.49969 0.93914 0.0
C216 C 0.96363 0.49726 0.91632 0.0
C217 C 0.01429 0.45644 0.71342 0.0
C218 C 0.97749 0.49049 0.68116 0.0
C219 C 0.03243 0.5012 0.52559 0.0
C220 C 0.04868 0.49907 0.48083 0.0
C221 C 0.05271 0.51303 0.4334 0.0
C222 C 0.06837 0.51175 0.39184 0.0
C223 C 0.08032 0.4964 0.39668 0.0
C224 C 0.0761 0.48228 0.44379 0.0
C225 C 0.06045 0.48363 0.48565 0.0
C226 C 0.01541 0.52622 0.74698 0.0
C227 C 0.05408 0.48973 0.77537 0.0
O228 O 0.00418 0.49941 0.90507 0.0
O229 O 0.99714 0.47016 0.89315 0.0
O230 O 0.02474 0.47036 0.71936 0.0
O231 O 0.00094 0.45669 0.75793 0.0
O232 O 0.99135 0.49081 0.63712 0.0
O233 O 0.98028 0.4912 0.74751 0.0
O234 O 0.02484 0.4861 0.54995 0.0
O235 O 0.03313 0.51474 0.56983 0.0
O236 O 0.00544 0.51213 0.73825 0.0
O237 O 0.02971 0.52613 0.70674 0.0
O238 O 0.04042 0.49037 0.82062 0.0
O239 O 0.05085 0.48953 0.70902 0.0
H240 H 0.98175 0.47579 0.05599 0.0
H241 H 0.94978 0.48004 0.09662 0.0
H242 H 0.93564 0.50647 0.90571 0.0
H243 H 0.96727 0.50197 0.86568 0.0
H244 H 0.04383 0.5251 0.42915 0.0
H245 H 0.07135 0.52303 0.35706 0.0
H246 H 0.08488 0.47017 0.44833 0.0
H247 H 0.05767 0.47268 0.52201 0.0
H248 H 0.15994 0.02424 0.21663 0.0
H249 H 0.13783 0.02965 0.30923 0.0
H250 H 0.12848 0.97078 0.32609 0.0
H251 H 0.15076 0.96521 0.23458 0.0
H252 H 0.10094 0.02089 0.31646 0.0
H253 H 0.13961 0.98529 0.52224 0.0
H254 H 0.15013 0.99133 0.44166 0.0
H255 H 0.13612 0.97077 0.44906 0.0
C256 C 0.15324 0.01243 0.24025 0.0
C257 C 0.15718 0.99428 0.21854 0.0
C258 C 0.14062 0.01556 0.29313 0.0
C259 C 0.13179 0.0006 0.32535 0.0
C260 C 0.1355 0.98249 0.30308 0.0
H261 H 0.0301 0.99325 0.54429 0.0
H262 H 0.05503 0.99519 0.46048 0.0
C263 C 0.14814 0.97934 0.25043 0.0
C264 C 0.1182 0.00388 0.38066 0.0
H265 H 0.10747 0.99139 0.54385 0.0
C266 C 0.10246 0.01463 0.36647 0.0
C267 C 0.12039 0.99601 0.44628 0.0
C268 C 0.13757 0.98537 0.46605 0.0
C269 C 0.08841 0.017 0.41518 0.0
C270 C 0.09002 0.00807 0.47918 0.0
C271 C 0.10616 0.99806 0.49448 0.0
C272 C 0.07468 0.00799 0.52941 0.0
C273 C 0.07194 0.02896 0.39745 0.0
C274 C 0.07756 0.0142 0.59649 0.0
C275 C 0.06335 0.01293 0.64484 0.0
C276 C 0.04611 0.00533 0.62679 0.0
C277 C 0.04322 -0.00072 0.55952 0.0
C278 C 0.05741 0.0005 0.51141 0.0
H279 H 0.07553 0.03937 0.35778 0.0
H280 H 0.06071 0.02008 0.37676 0.0
H281 H 0.06656 0.03633 0.44305 0.0
H282 H 0.09085 0.01988 0.6115 0.0
H283 H 0.06591 0.01768 0.6964 0.0
H284 H 0.49839 0.15115 0.14678 0.0
H285 H 0.49459 0.12715 0.23394 0.0
H286 H 0.55355 0.12736 0.27018 0.0
H287 H 0.55754 0.15121 0.18275 0.0
H288 H 0.53783 0.09162 0.25741 0.0
H289 H 0.49926 0.13567 0.44165 0.0
H290 H 0.48971 0.13497 0.35702 0.0
H291 H 0.5121 0.14521 0.37078 0.0
C292 C 0.51056 0.14607 0.17321 0.0
C293 C 0.52826 0.15313 0.1581 0.0
C294 C 0.50834 0.13245 0.22321 0.0
C295 C 0.52376 0.12573 0.25904 0.0
C296 C 0.54148 0.13248 0.24321 0.0
H297 H 0.52846 0.06209 0.63265 0.0
H298 H 0.53078 0.08585 0.54362 0.0
C299 C 0.54372 0.1461 0.19331 0.0
C300 C 0.52151 0.11155 0.31279 0.0
H301 H 0.50209 0.10381 0.46901 0.0
C302 C 0.53002 0.09425 0.30369 0.0
C303 C 0.51148 0.11517 0.37332 0.0
C304 C 0.50273 0.1338 0.38685 0.0
C305 C 0.52863 0.08035 0.35343 0.0
C306 C 0.51826 0.08383 0.41328 0.0
C307 C 0.50989 0.10118 0.4227 0.0
C308 C 0.51627 0.06972 0.46738 0.0
C309 C 0.53856 0.06219 0.34219 0.0
C310 C 0.50703 0.053 0.45417 0.0
C311 C 0.50571 0.03946 0.50483 0.0
C312 C 0.51355 0.04247 0.56937 0.0
C313 C 0.52236 0.05941 0.58312 0.0
C314 C 0.52369 0.07296 0.53245 0.0
H315 H 0.54928 0.0633 0.30169 0.0
H316 H 0.54528 0.05737 0.38997 0.0
H317 H 0.52836 0.05152 0.32628 0.0
H318 H 0.50089 0.05041 0.40465 0.0
H319 H 0.4986 0.02665 0.49348 0.0
H320 H 0.33595 0.4984 0.16793 0.0
H321 H 0.35835 0.49529 0.26089 0.0
H322 H 0.35065 0.55284 0.31288 0.0
H323 H 0.32841 0.55617 0.21949 0.0
H324 H 0.38755 0.54273 0.30416 0.0
H325 H 0.34851 0.4932 0.46626 0.0
H326 H 0.35135 0.48566 0.37959 0.0
H327 H 0.33779 0.50598 0.39758 0.0
C328 C 0.33893 0.51038 0.19937 0.0
C329 C 0.33036 0.52753 0.18637 0.0
C330 C 0.35165 0.50854 0.25276 0.0
C331 C 0.35594 0.52376 0.29443 0.0
C332 C 0.34744 0.54089 0.28155 0.0
H333 H 0.42063 0.52022 0.6715 0.0
H334 H 0.39589 0.52456 0.58678 0.0
C335 C 0.33473 0.54276 0.22817 0.0
C336 C 0.3699 0.52204 0.34957 0.0
H337 H 0.38018 0.4983 0.49554 0.0
C338 C 0.38589 0.5331 0.34623 0.0
C339 C 0.3676 0.50962 0.40483 0.0
C340 C 0.35031 0.49805 0.41286 0.0
C341 C 0.39986 0.53175 0.39578 0.0
C342 C 0.39789 0.51881 0.44952 0.0
C343 C 0.38171 0.50809 0.4539 0.0
C344 C 0.41268 0.51599 0.5009 0.0
C345 C 0.41657 0.54427 0.3904 0.0
C346 C 0.43016 0.5095 0.48069 0.0
C347 C 0.44421 0.50703 0.52878 0.0
C348 C 0.441 0.51085 0.598 0.0
C349 C 0.42344 0.51716 0.61841 0.0
C350 C 0.40933 0.51962 0.57019 0.0
H351 H 0.41372 0.55655 0.35785 0.0
H352 H 0.42108 0.54911 0.44154 0.0
H353 H 0.4282 0.53646 0.36702 0.0
H354 H 0.43295 0.50636 0.42764 0.0
H355 H 0.45766 0.50235 0.51158 0.0
H356 H 0.96008 0.35867 0.23879 0.0
H357 H 0.97151 0.38049 0.32434 0.0
H358 H 0.02727 0.36076 0.29303 0.0
H359 H 0.01599 0.33885 0.20694 0.0
H360 H 0.01454 0.36165 0.43318 0.0
H361 H 0.00327 0.42834 0.29843 0.0
H362 H 0.9837 0.41293 0.2963 0.0
H363 H 0.00485 0.40641 0.25428 0.0
C364 C 0.9748 0.35907 0.24957 0.0
C365 C 0.98713 0.34703 0.21614 0.0
C366 C 0.98131 0.37162 0.29814 0.0
C367 C 0.00024 0.37235 0.31423 0.0
C368 C 0.01263 0.36047 0.28076 0.0
H369 H 0.03982 0.45509 0.61064 0.0
H370 H 0.0397 0.43422 0.51159 0.0
C371 C 0.00615 0.34799 0.23167 0.0
C372 C 0.00674 0.38469 0.36943 0.0
H373 H 0.00727 0.42995 0.41966 0.0
C374 C 0.01327 0.37661 0.42993 0.0
C375 C 0.00523 0.40417 0.36462 0.0
C376 C 0.99904 0.41353 0.2997 0.0
C377 C 0.0173 0.3875 0.4873 0.0
C378 C 0.01465 0.40687 0.48382 0.0
C379 C 0.00917 0.41505 0.42212 0.0
C380 C 0.01575 0.41865 0.54525 0.0
C381 C 0.02387 0.3782 0.55183 0.0
C382 C 0.00233 0.41673 0.59653 0.0
C383 C 0.00221 0.42874 0.65224 0.0
C384 C 0.01553 0.44285 0.6576 0.0
C385 C 0.02931 0.44442 0.60724 0.0
C386 C 0.0293 0.43251 0.55095 0.0
H387 H 0.02962 0.3642 0.54151 0.0
H388 H 0.03461 0.38671 0.57765 0.0
H389 H 0.01198 0.37664 0.58733 0.0
H390 H 0.99163 0.40625 0.59244 0.0
H391 H 0.99142 0.42723 0.6903 0.0
H392 H 0.83461 0.00348 0.1842 0.0
H393 H 0.85921 0.00858 0.10032 0.0
H394 H 0.85706 0.9509 0.04349 0.0
H395 H 0.83249 0.94561 0.12748 0.0
H396 H 0.89358 0.96505 0.06684 0.0
H397 H 0.85282 0.00941 0.89026 0.0
H398 H 0.85257 0.01668 0.97795 0.0
H399 H 0.84209 0.99501 0.95447 0.0
C400 C 0.8393 0.99188 0.15372 0.0
C401 C 0.83152 0.97415 0.16235 0.0
C402 C 0.85332 0.99484 0.10563 0.0
C403 C 0.85979 0.98016 0.06522 0.0
C404 C 0.85219 0.96242 0.07404 0.0
H405 H 0.92869 0.98717 0.70265 0.0
H406 H 0.90417 0.98077 0.78594 0.0
C407 C 0.83812 0.95945 0.12194 0.0
C408 C 0.8747 0.98325 0.01442 0.0
H409 H 0.88506 0.00689 0.86836 0.0
C410 C 0.89173 0.97416 0.02334 0.0
C411 C 0.87215 0.99498 0.95738 0.0
C412 C 0.85388 0.00448 0.94382 0.0
C413 C 0.90642 0.97675 0.97725 0.0
C414 C 0.90402 0.98888 0.92124 0.0
C415 C 0.88689 0.99771 0.91169 0.0
C416 C 0.91907 0.99247 0.87149 0.0
C417 C 0.9243 0.96633 0.98827 0.0
C418 C 0.93549 0.00132 0.89198 0.0
C419 C 0.94947 0.00504 0.84448 0.0
C420 C 0.94724 -0.0 0.77574 0.0
C421 C 0.93078 0.99119 0.75533 0.0
C422 C 0.91678 0.98753 0.80278 0.0
H423 H 0.92246 0.95446 0.02377 0.0
H424 H 0.92987 0.96105 0.93916 0.0
H425 H 0.93476 0.97584 0.01064 0.0
H426 H 0.93739 0.00553 0.94454 0.0
H427 H 0.96196 0.01199 0.86148 0.0
H428 H 0.51161 0.83811 0.13859 0.0
H429 H 0.50546 0.86176 0.05203 0.0
H430 H 0.56314 0.86146 -0.00563 0.0
H431 H 0.56949 0.83785 0.08091 0.0
H432 H 0.5466 0.8978 0.01192 0.0
H433 H 0.50575 0.85132 0.84267 0.0
H434 H 0.4985 0.85193 0.9304 0.0
H435 H 0.52083 0.84263 0.9089 0.0
C436 C 0.52301 0.8431 0.10763 0.0
C437 C 0.54102 0.83604 0.11631 0.0
C438 C 0.51944 0.85655 0.05808 0.0
C439 C 0.53381 0.86313 0.01645 0.0
C440 C 0.55187 0.85645 0.02594 0.0
H441 H 0.52436 0.9258 0.63967 0.0
H442 H 0.53209 0.90291 0.72781 0.0
C443 C 0.55545 0.84295 0.07529 0.0
C444 C 0.53 0.87693 0.96259 0.0
H445 H 0.50674 0.88311 0.81275 0.0
C446 C 0.53792 0.89462 0.96826 0.0
C447 C 0.51884 0.87259 0.9055 0.0
C448 C 0.51058 0.85355 0.89586 0.0
C449 C 0.5347 0.90826 0.91864 0.0
C450 C 0.52316 0.90405 0.86242 0.0
C451 C 0.5155 0.88627 0.8562 0.0
C452 C 0.51874 0.91798 0.80964 0.0
C453 C 0.54379 0.92699 0.92632 0.0
C454 C 0.5085 0.93382 0.82658 0.0
C455 C 0.50403 0.94681 0.77649 0.0
C456 C 0.50976 0.94415 0.7087 0.0
C457 C 0.51986 0.92819 0.69164 0.0
C458 C 0.52428 0.91515 0.7418 0.0
H459 H 0.55556 0.92657 0.96283 0.0
H460 H 0.54891 0.93215 0.87639 0.0
H461 H 0.53345 0.93707 0.94586 0.0
H462 H 0.5038 0.93604 0.87843 0.0
H463 H 0.49604 0.95891 0.79082 0.0
H464 H 0.66049 0.49733 0.09336 0.0
H465 H 0.63402 0.49051 0.01939 0.0
H466 H 0.63452 0.54681 0.94568 0.0
H467 H 0.66093 0.55383 0.01969 0.0
H468 H 0.59865 0.5329 0.98461 0.0
H469 H 0.63622 0.48563 0.80843 0.0
H470 H 0.63836 0.48026 0.89765 0.0
H471 H 0.64807 0.50141 0.86509 0.0
C472 C 0.65502 0.50826 0.06127 0.0
C473 C 0.66287 0.5261 0.06213 0.0
C474 C 0.63993 0.50431 0.01892 0.0
C475 C 0.63248 0.51811 0.97666 0.0
C476 C 0.64015 0.53597 0.97785 0.0
H477 H 0.55841 0.5071 0.63264 0.0
H478 H 0.58414 0.51359 0.71059 0.0
C479 C 0.65526 0.53993 0.02 0.0
C480 C 0.6166 0.51397 0.93135 0.0
H481 H 0.60379 0.48824 0.7931 0.0
C482 C 0.59973 0.52313 0.94273 0.0
C483 C 0.61818 0.50136 0.87649 0.0
C484 C 0.6362 0.49168 0.86055 0.0
C485 C 0.58427 0.51989 0.90083 0.0
C486 C 0.58576 0.50703 0.84666 0.0
C487 C 0.60269 0.49799 0.83502 0.0
C488 C 0.57007 0.50313 0.80018 0.0
C489 C 0.5666 0.5305 0.91396 0.0
C490 C 0.55375 0.4949 0.82471 0.0
C491 C 0.53906 0.49114 0.78026 0.0
C492 C 0.5405 0.49557 0.71065 0.0
C493 C 0.55693 0.5036 0.68611 0.0
C494 C 0.57161 0.50732 0.73051 0.0
H495 H 0.56899 0.54274 0.9472 0.0
H496 H 0.5603 0.53526 0.86531 0.0
H497 H 0.55648 0.52128 0.93982 0.0
H498 H 0.55243 0.49125 0.87809 0.0
H499 H 0.52661 0.48474 0.80032 0.0
H500 H 0.98328 0.65542 0.19526 0.0
H501 H 0.99716 0.63075 0.12628 0.0
H502 H 0.94994 0.63189 -0.00853 0.0
H503 H 0.93602 0.65659 0.05953 0.0
H504 H 0.98246 0.59533 0.09406 0.0
H505 H 0.99477 0.63783 0.86257 0.0
H506 H 0.99001 0.64793 0.94503 0.0
H507 H 0.97139 0.63895 0.89376 0.0
C508 C 0.97586 0.65043 0.15088 0.0
C509 C 0.9586 0.65802 0.13261 0.0
C510 C 0.98381 0.63635 0.11162 0.0
C511 C 0.97469 0.62975 0.05331 0.0
C512 C 0.95734 0.63708 0.03559 0.0
H513 H 0.98448 0.52928 0.82503 0.0
H514 H 0.97643 0.55429 0.90355 0.0
C515 C 0.94938 0.65111 0.07478 0.0
C516 C 0.9831 0.61497 0.01133 0.0
H517 H 0.99733 0.60506 0.84947 0.0
C518 C 0.98589 0.59746 0.04075 0.0
C519 C 0.98782 0.61792 0.94219 0.0
C520 C 0.98603 0.63672 0.90906 0.0
C521 C 0.99261 0.58258 0.00191 0.0
C522 C 0.99636 0.5853 0.93179 0.0
C523 C 0.99428 0.60299 0.90313 0.0
C524 C 0.0017 0.56981 0.88647 0.0
C525 C 0.99557 0.56409 0.03622 0.0
C526 C 0.0184 0.57045 0.84972 0.0
C527 C 0.02298 0.5562 0.80449 0.0
C528 C 0.01086 0.54118 0.79516 0.0
C529 C 0.99415 0.5406 0.83185 0.0
C530 C 0.98959 0.55482 0.87698 0.0
H531 H 0.99741 0.56566 0.0922 0.0
H532 H 0.98323 0.55521 0.02755 0.0
H533 H 0.00788 0.55687 0.01503 0.0
H534 H 0.02785 0.582 0.856 0.0
H535 H 0.03593 0.55696 0.77667 0.0
H536 H 0.99303 0.23453 0.06663 0.0
H537 H 0.99394 0.20326 0.11531 0.0
H538 H 0.96668 0.22338 0.29672 0.0
H539 H 0.96587 0.25468 0.24809 0.0
H540 H 0.01069 0.19091 0.23257 0.0
H541 H 0.93484 0.1792 0.24643 0.0
H542 H 0.94491 0.19801 0.19832 0.0
H543 H 0.94213 0.19993 0.28927 0.0
C544 C 0.98753 0.23231 0.11734 0.0
C545 C 0.97977 0.24705 0.15434 0.0
C546 C 0.98786 0.21442 0.14479 0.0
C547 C 0.98022 0.21093 0.2094 0.0
C548 C 0.97234 0.22566 0.24623 0.0
H549 H 0.9721 0.11588 0.47782 0.0
H550 H 0.97178 0.14668 0.42552 0.0
C551 C 0.97195 0.24353 0.21863 0.0
C552 C 0.98091 0.19199 0.23899 0.0
H553 H 0.95391 0.15745 0.30492 0.0
C554 C 0.99828 0.18354 0.24802 0.0
C555 C 0.96469 0.18237 0.25894 0.0
C556 C 0.94558 0.19025 0.24718 0.0
C557 C -0.00011 0.16594 0.27814 0.0
C558 C 0.98368 0.15644 0.29892 0.0
C559 C 0.96632 0.16481 0.28933 0.0
C560 C 0.9844 0.13781 0.33089 0.0
C561 C 0.01897 0.15787 0.28897 0.0
C562 C 0.9915 0.12258 0.29487 0.0
C563 C 0.99182 0.10498 0.32479 0.0
C564 C 0.98493 0.10223 0.39123 0.0
C565 C 0.97777 0.11754 0.42702 0.0
C566 C 0.97745 0.13513 0.39704 0.0
H567 H 0.02992 0.16868 0.28641 0.0
H568 H 0.0199 0.15076 0.33909 0.0
H569 H 0.02182 0.14753 0.24844 0.0
H570 H 0.99664 0.12426 0.24333 0.0
H571 H 0.99759 0.09355 0.29597 0.0
H572 H 0.26164 0.96687 0.10951 0.0
H573 H 0.29356 0.9666 0.15255 0.0
H574 H 0.2908 0.02564 0.18586 0.0
H575 H 0.25897 0.02596 0.14271 0.0
H576 H 0.32312 0.01547 0.12429 0.0
H577 H 0.30966 0.97101 0.34978 0.0
H578 H 0.3028 0.96055 0.27066 0.0
H579 H 0.29124 0.98116 0.29999 0.0
C580 C 0.26788 0.97976 0.12617 0.0
C581 C 0.25799 0.99649 0.1217 0.0
C582 C 0.28606 0.97959 0.15098 0.0
C583 C 0.2945 0.99608 0.17308 0.0
C584 C 0.28459 0.01277 0.16882 0.0
H585 H 0.39383 0.00105 0.42309 0.0
H586 H 0.36247 0.00398 0.37733 0.0
C587 C 0.26648 0.01296 0.14367 0.0
C588 C 0.31371 0.99603 0.20017 0.0
H589 H 0.34122 0.97734 0.32404 0.0
C590 C 0.32708 0.0072 0.16815 0.0
C591 C 0.31878 0.98543 0.25798 0.0
C592 C 0.30484 0.974 0.29707 0.0
C593 C 0.34545 0.00787 0.19179 0.0
C594 C 0.35068 0.99675 0.24811 0.0
C595 C 0.33724 0.98577 0.28061 0.0
C596 C 0.36999 0.9962 0.27435 0.0
C597 C 0.35894 0.02076 0.15692 0.0
C598 C 0.38469 0.99093 0.2317 0.0
C599 C 0.40271 0.98954 0.25745 0.0
C600 C 0.40638 0.9931 0.32677 0.0
C601 C 0.39161 0.99849 0.36927 0.0
C602 C 0.37362 1e-05 0.34331 0.0
H603 H 0.35164 0.03214 0.12975 0.0
H604 H 0.36878 0.02695 0.19403 0.0
H605 H 0.36701 0.01285 0.11853 0.0
H606 H 0.3822 0.98752 0.17869 0.0
H607 H 0.41375 0.98555 0.22302 0.0
H608 H 0.48554 0.2464 0.14909 0.0
H609 H 0.48149 0.27723 0.19976 0.0
H610 H 0.5354 0.29337 0.12571 0.0
H611 H 0.53949 0.26261 0.07449 0.0
H612 H 0.50945 0.29512 0.29873 0.0
H613 H 0.49581 0.3342 0.05885 0.0
H614 H 0.49041 0.30989 0.06831 0.0
H615 H 0.51403 0.31711 0.05781 0.0
C616 C 0.49638 0.25662 0.14268 0.0
C617 C 0.51268 0.25226 0.10682 0.0
C618 C 0.49412 0.27414 0.17208 0.0
C619 C 0.50807 0.28756 0.16571 0.0
C620 C 0.52442 0.28321 0.13047 0.0
H621 H 0.52337 0.40153 0.28689 0.0
H622 H 0.52544 0.37046 0.23753 0.0
C623 C 0.52676 0.26565 0.1016 0.0
C624 C 0.5058 0.30601 0.19746 0.0
H625 H 0.49921 0.3517 0.15978 0.0
C626 C 0.50712 0.30751 0.2686 0.0
C627 C 0.50279 0.32205 0.15773 0.0
C628 C 0.50056 0.32089 0.08138 0.0
C629 C 0.50594 0.32482 0.30112 0.0
C630 C 0.50302 0.34094 0.26133 0.0
C631 C 0.50152 0.33935 0.19013 0.0
C632 C 0.50177 0.35963 0.29235 0.0
C633 C 0.50835 0.32576 0.37751 0.0
C634 C 0.48767 0.36389 0.33916 0.0
C635 C 0.48645 0.38164 0.36745 0.0
C636 C 0.49919 0.39552 0.34889 0.0
C637 C 0.51323 0.39121 0.30171 0.0
C638 C 0.51448 0.37346 0.27365 0.0
H639 H 0.51508 0.31307 0.39797 0.0
H640 H 0.51679 0.33798 0.39232 0.0
H641 H 0.49453 0.32707 0.40194 0.0
H642 H 0.47747 0.35355 0.35314 0.0
H643 H 0.47529 0.3846 0.40276 0.0
H644 H 0.23853 0.47917 0.09236 0.0
H645 H 0.20744 0.47442 0.13933 0.0
H646 H 0.19446 0.53184 0.10201 0.0
H647 H 0.22532 0.53658 0.05334 0.0
H648 H 0.19056 0.51878 0.24134 0.0
H649 H 0.1536 0.47358 0.05522 0.0
H650 H 0.17787 0.46936 0.07056 0.0
H651 H 0.17072 0.49035 0.02886 0.0
C652 C 0.22884 0.4906 0.09165 0.0
C653 C 0.23428 0.50817 0.06796 0.0
C654 C 0.2111 0.48788 0.11889 0.0
C655 C 0.19859 0.50273 0.12331 0.0
C656 C 0.20385 0.52017 0.09841 0.0
H657 H 0.08466 0.50663 0.26278 0.0
H658 H 0.1134 0.50759 0.19666 0.0
C659 C 0.22151 0.52286 0.07092 0.0
C660 C 0.18096 0.50075 0.16134 0.0
H661 H 0.13829 0.48024 0.15798 0.0
C662 C 0.17913 0.51034 0.22321 0.0
C663 C 0.16604 0.4899 0.13709 0.0
C664 C 0.16698 0.48021 0.06915 0.0
C665 C 0.1628 0.5093 0.2618 0.0
C666 C 0.14802 0.49805 0.2385 0.0
C667 C 0.14976 0.48862 0.17618 0.0
C668 C 0.13049 0.49637 0.2774 0.0
C669 C 0.16137 0.52062 0.32635 0.0
C670 C 0.13051 0.48935 0.34416 0.0
C671 C 0.11417 0.48902 0.38243 0.0
C672 C 0.09743 0.49552 0.35437 0.0
C673 C 0.09736 0.50186 0.28644 0.0
C674 C 0.11373 0.50227 0.24834 0.0
H675 H 0.17172 0.53202 0.32747 0.0
H676 H 0.14731 0.5267 0.33195 0.0
H677 H 0.164 0.51152 0.37097 0.0
H678 H 0.14324 0.48441 0.3671 0.0
H679 H 0.11479 0.48416 0.43465 0.0
H680 H 0.96147 0.75167 0.09723 0.0
H681 H 0.97006 0.78238 0.05419 0.0
H682 H 0.97409 0.80263 0.26076 0.0
H683 H 0.96551 0.77197 0.30376 0.0
H684 H 0.95169 0.8148 0.07188 0.0
H685 H 0.0224 0.8211 0.18144 0.0
H686 H 0.0102 0.79927 0.17729 0.0
H687 H 0.00465 0.81586 0.2426 0.0
C688 C 0.9644 0.76265 0.13336 0.0
C689 C 0.96335 0.75932 0.20384 0.0
C690 C 0.96931 0.78016 0.10879 0.0
C691 C 0.97313 0.79472 0.15423 0.0
C692 C 0.97183 0.79147 0.22473 0.0
H693 H 0.99454 0.91232 0.10122 0.0
H694 H 0.98872 0.88119 0.14601 0.0
C695 C 0.96702 0.77391 0.24931 0.0
C696 C 0.9774 0.8135 0.12751 0.0
H697 H 0.00973 0.84813 0.13029 0.0
C698 C 0.96444 0.82204 0.0843 0.0
C699 C 0.99399 0.82297 0.14409 0.0
C700 C 0.00871 0.81429 0.18838 0.0
C701 C 0.96749 0.83986 0.05791 0.0
C702 C 0.98408 0.84929 0.07431 0.0
C703 C 0.99703 0.84083 0.11774 0.0
C704 C 0.9882 0.868 0.04697 0.0
C705 C 0.95273 0.84861 0.01384 0.0
C706 C 0.99017 0.87082 0.97651 0.0
C707 C 0.99358 0.88856 0.95074 0.0
C708 C 0.99519 0.90383 -0.00499 0.0
C709 C 0.99356 0.90086 0.06574 0.0
C710 C 0.99016 0.8831 0.09144 0.0
H711 H 0.93911 0.8416 0.01987 0.0
H712 H 0.95104 0.86353 0.02629 0.0
H713 H 0.95689 0.84752 0.95949 0.0
H714 H 0.98909 0.85927 0.94143 0.0
H715 H 0.99511 0.8903 0.89614 0.0
H716 H 0.72191 0.96199 0.26843 0.0
H717 H 0.69096 0.96918 0.22398 0.0
H718 H 0.70443 0.02741 0.22363 0.0
H719 H 0.73557 0.02026 0.26589 0.0
H720 H 0.66179 0.99406 0.27522 0.0
H721 H 0.69092 0.01439 0.02276 0.0
H722 H 0.7042 0.00153 0.08477 0.0
H723 H 0.70025 0.02587 0.09659 0.0
C724 C 0.71821 0.97632 0.25918 0.0
C725 C 0.73102 0.99059 0.27151 0.0
C726 C 0.70052 0.98042 0.23437 0.0
C727 C 0.69545 0.99882 0.22062 0.0
C728 C 0.70811 0.01313 0.23392 0.0
H729 H 0.58256 0.02518 0.07326 0.0
H730 H 0.61099 0.02594 0.14198 0.0
C731 C 0.72581 0.00904 0.25876 0.0
C732 C 0.67746 0.00272 0.18738 0.0
H733 H 0.65859 0.01474 0.03408 0.0
C734 C 0.661 0.99875 0.2227 0.0
C735 C 0.67659 0.0088 0.11889 0.0
C736 C 0.69388 0.0128 0.07808 0.0
C737 C 0.64364 0.0001 0.1904 0.0
C738 C 0.64283 0.00576 0.12128 0.0
C739 C 0.65927 0.01039 0.087 0.0
C740 C 0.62537 0.00542 0.08128 0.0
C741 C 0.62647 0.99452 0.22927 0.0
C742 C 0.62418 0.99399 0.02351 0.0
C743 C 0.60812 0.9937 0.98391 0.0
C744 C 0.59285 0.00483 0.0012 0.0
C745 C 0.59404 0.01631 0.0591 0.0
C746 C 0.61023 0.01669 0.09857 0.0
H747 H 0.62984 0.98763 0.27844 0.0
H748 H 0.61808 0.00702 0.24063 0.0
H749 H 0.6178 0.98502 0.19818 0.0
H750 H 0.63571 0.98518 0.00921 0.0
H751 H 0.60755 0.9845 0.94028 0.0
H752 H 0.51523 0.72601 0.29453 0.0
H753 H 0.50787 0.69492 0.25177 0.0
H754 H 0.52675 0.71095 0.05136 0.0
H755 H 0.53398 0.74209 0.09418 0.0
H756 H 0.48393 0.68357 0.14848 0.0
H757 H 0.5566 0.66415 0.09003 0.0
H758 H 0.55074 0.68409 0.14123 0.0
H759 H 0.54933 0.68527 0.04972 0.0
C760 C 0.51742 0.72295 0.24109 0.0
C761 C 0.52474 0.73648 0.19721 0.0
C762 C 0.5134 0.70518 0.21687 0.0
C763 C 0.51688 0.70057 0.14849 0.0
C764 C 0.52422 0.71411 0.10456 0.0
H765 H 0.47585 0.60605 0.9187 0.0
H766 H 0.48081 0.6367 0.96889 0.0
C767 C 0.52829 0.73187 0.1289 0.0
C768 C 0.51292 0.6816 0.12322 0.0
H769 H 0.53315 0.64386 0.04927 0.0
C770 C 0.49468 0.67484 0.12693 0.0
C771 C 0.52703 0.67013 0.09623 0.0
C772 C 0.54706 0.67617 0.09458 0.0
C773 C 0.49011 0.65706 0.10292 0.0
C774 C 0.50411 0.64588 0.07359 0.0
C775 C 0.52239 0.65251 0.07118 0.0
C776 C 0.50023 0.62718 0.04539 0.0
C777 C 0.47041 0.65031 0.11009 0.0
C778 C 0.50969 0.61169 0.07102 0.0
C779 C 0.5071 0.59421 0.04185 0.0
C780 C 0.49501 0.59184 0.98616 0.0
C781 C 0.48537 0.60738 0.96114 0.0
C782 C 0.488 0.62488 0.99032 0.0
H783 H 0.46271 0.65825 0.14954 0.0
H784 H 0.46309 0.65214 0.06074 0.0
H785 H 0.47001 0.63537 0.12367 0.0
H786 H 0.5193 0.61317 0.11316 0.0
H787 H 0.51501 0.58265 0.06175 0.0
H788 H 0.76331 0.51232 0.07074 0.0
H789 H 0.79586 0.50621 0.04147 0.0
H790 H 0.81243 0.52281 0.24391 0.0
H791 H 0.78004 0.52911 0.27258 0.0
H792 H 0.82558 0.53031 0.04221 0.0
H793 H 0.83811 0.47289 0.22505 0.0
H794 H 0.81512 0.48101 0.20443 0.0
H795 H 0.82934 0.49367 0.26363 0.0
C796 C 0.77393 0.51453 0.10896 0.0
C797 C 0.76915 0.52055 0.17477 0.0
C798 C 0.79248 0.51102 0.09232 0.0
C799 C 0.80653 0.51356 0.14111 0.0
C800 C 0.80179 0.5201 0.2062 0.0
H801 H 0.92713 0.5043 0.12973 0.0
H802 H 0.89476 0.5091 0.16392 0.0
C803 C 0.78328 0.52358 0.22276 0.0
C804 C 0.82623 0.51012 0.12306 0.0
H805 H 0.86446 0.4848 0.16689 0.0
C806 C 0.83405 0.52028 0.0692 0.0
C807 C 0.83731 0.49716 0.15883 0.0
C808 C 0.82954 0.48543 0.21583 0.0
C809 C 0.8527 0.51799 0.05052 0.0
C810 C 0.86374 0.50489 0.08573 0.0
C811 C 0.85597 0.49482 0.13995 0.0
C812 C 0.88328 0.50126 0.0661 0.0
C813 C 0.86051 0.52992 -0.00586 0.0
C814 C 0.88752 0.4948 0.00043 0.0
C815 C 0.90593 0.49205 0.98085 0.0
C816 C 0.92053 0.49555 0.02672 0.0
C817 C 0.91621 0.50142 0.09329 0.0
C818 C 0.89774 0.50423 0.11281 0.0
H819 H 0.85203 0.54257 0.98584 0.0
H820 H 0.87497 0.53418 0.00559 0.0
H821 H 0.86058 0.52189 0.94585 0.0
H822 H 0.87656 0.49194 0.96415 0.0
H823 H 0.90873 0.48711 0.92971 0.0
H824 H 0.02556 0.2133 0.85596 0.0
H825 H 0.02553 0.18095 0.81912 0.0
H826 H 0.03998 0.16361 0.02282 0.0
H827 H 0.03981 0.19592 0.06058 0.0
H828 H 0.05226 0.15153 0.82567 0.0
H829 H 0.98966 0.13825 0.98433 0.0
H830 H 0.99783 0.16135 0.96581 0.0
H831 H 0.00935 0.14748 0.029 0.0
C832 C 0.02901 0.20264 0.89278 0.0
C833 C 0.03245 0.20715 0.9614 0.0
C834 C 0.02901 0.18418 0.87156 0.0
C835 C 0.03242 0.16995 0.91859 0.0
C836 C 0.03701 0.17444 0.98611 0.0
H837 H 0.01498 0.05119 0.8839 0.0
H838 H 0.02336 0.08214 0.92352 0.0
C839 C 0.037 0.19291 0.00745 0.0
C840 C 0.02981 0.15045 0.89787 0.0
H841 H 0.00165 0.11304 0.9224 0.0
C842 C 0.04127 0.14304 0.84692 0.0
C843 C 0.01539 0.13951 0.92573 0.0
C844 C 0.00223 0.14703 0.97885 0.0
C845 C 0.03874 0.12487 0.82317 0.0
C846 C 0.02413 0.11404 0.85024 0.0
C847 C 0.01284 0.12139 0.90185 0.0
C848 C 0.01994 0.09519 0.82494 0.0
C849 C 0.05184 0.11737 0.7699 0.0
C850 C 0.01507 0.09232 0.75646 0.0
C851 C 0.01031 0.07462 0.73351 0.0
C852 C 0.01012 0.05952 0.77888 0.0
C853 C 0.01493 0.06249 0.84756 0.0
C854 C 0.01977 0.08017 0.87033 0.0
H855 H 0.06515 0.12513 0.76929 0.0
H856 H 0.05483 0.10247 0.77876 0.0
H857 H 0.04538 0.1188 0.7188 0.0
H858 H 0.01466 0.10382 0.72096 0.0
H859 H 0.00664 0.07285 0.6804 0.0
H860 H 0.31537 0.04088 0.99094 0.0
H861 H 0.34715 0.03848 0.94851 0.0
H862 H 0.32651 0.02687 0.74651 0.0
H863 H 0.29469 0.0294 0.78817 0.0
H864 H 0.36145 0.00612 0.8894 0.0
H865 H 0.36704 0.06573 0.7114 0.0
H866 H 0.34922 0.06419 0.77592 0.0
H867 H 0.34709 0.05127 0.69793 0.0
C868 C 0.31757 0.03817 0.93719 0.0
C869 C 0.3025 0.03531 0.89289 0.0
C870 C 0.33574 0.03678 0.91311 0.0
C871 C 0.33916 0.0327 0.84428 0.0
C872 C 0.32417 0.03039 0.79953 0.0
H873 H 0.43629 0.00306 0.60763 0.0
H874 H 0.40505 0.01082 0.64706 0.0
C875 C 0.30599 0.03173 0.82356 0.0
C876 C 0.35831 0.02918 0.82063 0.0
H877 H 0.39118 0.04329 0.7066 0.0
C878 C 0.36803 0.01433 0.84983 0.0
C879 C 0.36672 0.03982 0.76857 0.0
C880 C 0.35707 0.05625 0.73693 0.0
C881 C 0.38587 0.0096 0.82753 0.0
C882 C 0.39435 0.02027 0.7756 0.0
C883 C 0.38463 0.03514 0.74639 0.0
C884 C 0.41334 0.0162 0.75128 0.0
C885 C 0.39528 0.99291 0.85856 0.0
C886 C 0.42836 0.01701 0.79654 0.0
C887 C 0.44618 0.01248 0.77442 0.0
C888 C 0.44936 0.00724 0.70629 0.0
C889 C 0.43433 0.00695 0.66052 0.0
C890 C 0.41647 0.01141 0.68288 0.0
H891 H 0.38515 0.98345 0.88335 0.0
H892 H 0.40308 0.98499 0.81942 0.0
H893 H 0.40522 0.99761 0.89815 0.0
H894 H 0.4263 0.02109 0.84917 0.0
H895 H 0.45744 0.01308 0.81092 0.0
H896 H 0.44622 0.29285 0.93891 0.0
H897 H 0.44181 0.32356 0.8876 0.0
H898 H 0.50111 0.33089 0.87806 0.0
H899 H 0.50562 0.3002 0.92674 0.0
H900 H 0.45186 0.35745 0.93093 0.0
H901 H 0.48652 0.34308 0.68551 0.0
H902 H 0.48021 0.32489 0.74431 0.0
H903 H 0.50149 0.33763 0.75565 0.0
C904 C 0.45829 0.30098 0.9253 0.0
C905 C 0.47626 0.29404 0.93617 0.0
C906 C 0.45575 0.3185 0.89611 0.0
C907 C 0.47114 0.3293 0.87752 0.0
C908 C 0.48904 0.32254 0.88989 0.0
H909 H 0.4853 0.44602 0.83821 0.0
H910 H 0.47992 0.41431 0.87671 0.0
C911 C 0.49159 0.30502 0.91814 0.0
C912 C 0.46869 0.34793 0.84718 0.0
H913 H 0.48403 0.37527 0.71709 0.0
C914 C 0.45863 0.36131 0.88359 0.0
C915 C 0.47714 0.35284 0.7846 0.0
C916 C 0.48675 0.33877 0.73994 0.0
C917 C 0.45767 0.37975 0.86097 0.0
C918 C 0.46752 0.38499 0.80155 0.0
C919 C 0.47671 0.37136 0.76326 0.0
C920 C 0.46933 0.40459 0.77965 0.0
C921 C 0.44613 0.39335 0.90113 0.0
C922 C 0.46563 0.40961 0.71181 0.0
C923 C 0.46915 0.42763 0.68923 0.0
C924 C 0.47629 0.441 0.73426 0.0
C925 C 0.4796 0.43608 0.80252 0.0
C926 C 0.47637 0.41797 0.82477 0.0
H927 H 0.43454 0.38624 0.92779 0.0
H928 H 0.45494 0.39998 0.94062 0.0
H929 H 0.44028 0.40434 0.86783 0.0
H930 H 0.4603 0.3995 0.67597 0.0
H931 H 0.46638 0.43103 0.63638 0.0
H932 H 0.2255 0.46726 0.97448 0.0
H933 H 0.19507 0.48045 0.95452 0.0
H934 H 0.17843 0.43045 0.85062 0.0
H935 H 0.20926 0.4173 0.86947 0.0
H936 H 0.17499 0.4881 0.84177 0.0
H937 H 0.13864 0.43499 -0.00511 0.0
H938 H 0.16351 0.43758 -0.00401 0.0
H939 H 0.15239 0.42471 0.92872 0.0
C940 C 0.21561 0.45911 0.9468 0.0
C941 C 0.21991 0.44119 0.92338 0.0
C942 C 0.19801 0.46663 0.93593 0.0
C943 C 0.18424 0.45623 0.90298 0.0
C944 C 0.18865 0.43854 0.87802 0.0
H945 H 0.08528 0.48687 0.69725 0.0
H946 H 0.11692 0.48141 0.7353 0.0
C947 C 0.20629 0.43109 0.88843 0.0
C948 C 0.16525 0.46376 0.8944 0.0
H949 H 0.11967 0.45314 0.91974 0.0
C950 C 0.16289 0.48057 0.85941 0.0
C951 C 0.14948 0.45422 0.9192 0.0
C952 C 0.15112 0.43699 0.96247 0.0
C953 C 0.14513 0.48753 0.84515 0.0
C954 C 0.12936 0.47718 0.86515 0.0
C955 C 0.13175 0.46093 0.90347 0.0
C956 C 0.11034 0.48219 0.843 0.0
C957 C 0.14345 0.50584 0.80854 0.0
C958 C 0.09598 0.48416 0.89085 0.0
C959 C 0.07772 0.48708 0.86919 0.0
C960 C 0.0735 0.48796 0.7992 0.0
C961 C 0.088 0.48633 0.75156 0.0
C962 C 0.10618 0.48337 0.77324 0.0
H963 H 0.15574 0.51476 0.81813 0.0
H964 H 0.14264 0.50332 0.75278 0.0
H965 H 0.1308 0.51346 0.82456 0.0
H966 H 0.09887 0.48315 0.94497 0.0
H967 H 0.06691 0.48828 0.90725 0.0
H968 H 0.9889 0.79439 0.4956 0.0
H969 H 0.98801 0.82556 0.54369 0.0
H970 H 0.02606 0.84456 0.3892 0.0
H971 H 0.02719 0.81326 0.34054 0.0
H972 H 0.03123 0.85763 0.53903 0.0
H973 H 0.96143 0.86792 0.42386 0.0
H974 H 0.96507 0.84666 0.47006 0.0
H975 H 0.97763 0.85082 0.39256 0.0
C976 C 0.99734 0.80508 0.47235 0.0
C977 C 0.00789 0.80143 0.41348 0.0
C978 C 0.99677 0.82288 0.49989 0.0
C979 C 0.00675 0.83729 0.46927 0.0
C980 C 0.01819 0.83354 0.41313 0.0
H981 H 0.98989 0.95543 0.51411 0.0
H982 H 0.99373 0.92387 0.4712 0.0
C983 C 0.01877 0.81569 0.38538 0.0
C984 C 0.00415 0.85647 0.49324 0.0
H985 H 0.97232 0.89141 0.49769 0.0
C986 C 0.01841 0.86508 0.53 0.0
C987 C 0.98746 0.8661 0.48045 0.0
C988 C 0.97201 0.85753 0.43918 0.0
C989 C 0.01621 0.88311 0.55568 0.0
C990 C 0.99928 0.89253 0.54464 0.0
C991 C 0.9852 0.88403 0.50658 0.0
C992 C 0.99602 0.9114 0.5712 0.0
C993 C 0.03207 0.89201 0.59372 0.0
C994 C 0.99545 0.91468 0.64166 0.0
C995 C 0.99316 0.93268 0.66646 0.0
C996 C 0.9914 0.94769 0.62107 0.0
C997 C 0.99126 0.94421 0.55047 0.0
C998 C 0.9935 0.9262 0.5258 0.0
H999 H 0.04538 0.88467 0.5846 0.0
H1000 H 0.0337 0.90675 0.57849 0.0
H1001 H 0.02913 0.89161 0.64927 0.0
H1002 H 0.99701 0.90334 0.67745 0.0
H1003 H 0.99329 0.93484 0.72112 0.0
H1004 H 0.71416 0.01848 0.39666 0.0
H1005 H 0.68486 0.00144 0.39699 0.0
H1006 H 0.65678 0.05013 0.47179 0.0
H1007 H 0.68587 0.06733 0.46934 0.0
H1008 H 0.66246 0.99401 0.50726 0.0
H1009 H 0.62273 0.03454 0.31811 0.0
H1010 H 0.64777 0.03478 0.32181 0.0
H1011 H 0.63434 0.04927 0.37799 0.0
C1012 C 0.70179 0.02566 0.41215 0.0
C1013 C 0.70233 0.04437 0.43252 0.0
C1014 C 0.685 0.01585 0.41244 0.0
C1015 C 0.66854 0.02461 0.43307 0.0
C1016 C 0.66916 0.04322 0.45365 0.0
H1017 H 0.57406 0.99508 0.65359 0.0
H1018 H 0.60513 -0.00037 0.60824 0.0
C1019 C 0.68584 0.05299 0.45289 0.0
C1020 C 0.65084 0.01424 0.43865 0.0
H1021 H 0.60472 0.01869 0.40421 0.0
C1022 C 0.64987 0.99912 0.48358 0.0
C1023 C 0.63448 0.02051 0.40629 0.0
C1024 C 0.63488 0.03553 0.35273 0.0
C1025 C 0.63276 0.99121 0.50159 0.0
C1026 C 0.61619 0.99896 0.47538 0.0
C1027 C 0.61734 0.01297 0.42572 0.0
C1028 C 0.59761 0.9941 0.50317 0.0
C1029 C 0.63264 0.97487 0.5496 0.0
C1030 C 0.58284 0.98976 0.45933 0.0
C1031 C 0.56488 0.98748 0.48511 0.0
C1032 C 0.56134 0.98948 0.55535 0.0
C1033 C 0.57626 0.99326 0.59934 0.0
C1034 C 0.59414 0.99571 0.57346 0.0
H1035 H 0.64534 0.96634 0.54307 0.0
H1036 H 0.6325 0.97996 0.60301 0.0
H1037 H 0.62032 0.96591 0.54144 0.0
H1038 H 0.58512 0.98857 0.40487 0.0
H1039 H 0.55373 0.98456 0.44971 0.0
H1040 H 0.47192 0.69115 0.31086 0.0
H1041 H 0.47242 0.65867 0.34648 0.0
H1042 H 0.48793 0.67525 0.55001 0.0
H1043 H 0.48733 0.70774 0.51517 0.0
H1044 H 0.50462 0.64124 0.39768 0.0
H1045 H 0.44642 0.63717 0.58243 0.0
H1046 H 0.44855 0.65569 0.52086 0.0
H1047 H 0.46223 0.65597 0.59748 0.0
C1048 C 0.475 0.68793 0.36363 0.0
C1049 C 0.47959 0.70202 0.41028 0.0
C1050 C 0.47536 0.66936 0.38375 0.0
C1051 C 0.48008 0.66462 0.45092 0.0
C1052 C 0.48396 0.67867 0.49822 0.0
H1053 H 0.50317 0.56392 0.67223 0.0
H1054 H 0.50035 0.59593 0.63321 0.0
C1055 C 0.48368 0.69722 0.47812 0.0
C1056 C 0.48249 0.64497 0.47018 0.0
H1057 H 0.46742 0.61175 0.58087 0.0
C1058 C 0.49639 0.6347 0.43729 0.0
C1059 C 0.47181 0.63662 0.52218 0.0
C1060 C 0.4563 0.64685 0.55746 0.0
C1061 C 0.50017 0.61634 0.45613 0.0
C1062 C 0.48956 0.60802 0.50841 0.0
C1063 C 0.47557 0.61825 0.54096 0.0
C1064 C 0.49262 0.58865 0.53003 0.0
C1065 C 0.51579 0.60616 0.42125 0.0
C1066 C 0.48936 0.574 0.4846 0.0
C1067 C 0.49097 0.55567 0.50662 0.0
C1068 C 0.49576 0.55169 0.57464 0.0
C1069 C 0.49945 0.56645 0.61953 0.0
C1070 C 0.49782 0.58477 0.59743 0.0
H1071 H 0.52538 0.61581 0.39465 0.0
H1072 H 0.52386 0.59784 0.45853 0.0
H1073 H 0.50993 0.59654 0.3827 0.0
H1074 H 0.48504 0.57675 0.43265 0.0
H1075 H 0.48792 0.54466 0.4708 0.0
H1076 H 0.80875 0.47661 0.44654 0.0
H1077 H 0.83861 0.47011 0.501 0.0
H1078 H 0.85076 0.52865 0.50562 0.0
H1079 H 0.82086 0.53528 0.45322 0.0
H1080 H 0.87293 0.47706 0.4558 0.0
H1081 H 0.86221 0.51416 0.69912 0.0
H1082 H 0.84343 0.5092 0.64111 0.0
H1083 H 0.85811 0.52907 0.62754 0.0
C1084 C 0.8177 0.4881 0.45991 0.0
C1085 C 0.81239 0.50648 0.44611 0.0
C1086 C 0.83475 0.48436 0.49091 0.0
C1087 C 0.84674 0.49892 0.50857 0.0
C1088 C 0.8415 0.51724 0.49429 0.0
H1089 H 0.96507 0.49847 0.55277 0.0
H1090 H 0.93301 0.49859 0.5127 0.0
C1091 C 0.82444 0.521 0.46388 0.0
C1092 C 0.86515 0.49504 0.53875 0.0
H1093 H 0.89387 0.50775 0.66867 0.0
C1094 C 0.87745 0.48355 0.50286 0.0
C1095 C 0.8709 0.5032 0.60083 0.0
C1096 C 0.85788 0.51442 0.64472 0.0
C1097 C 0.89564 0.48068 0.52584 0.0
C1098 C 0.90182 0.49001 0.58515 0.0
C1099 C 0.88925 0.50083 0.62259 0.0
C1100 C 0.92135 0.4892 0.60855 0.0
C1101 C 0.90796 0.46761 0.48641 0.0
C1102 C 0.92544 0.48446 0.67635 0.0
C1103 C 0.9437 0.48482 0.69981 0.0
C1104 C 0.95825 0.4898 0.65573 0.0
C1105 C 0.95417 0.49438 0.58772 0.0
C1106 C 0.93586 0.4943 0.56458 0.0
H1107 H 0.89967 0.45705 0.45864 0.0
H1108 H 0.91594 0.47559 0.44794 0.0
H1109 H 0.91789 0.46036 0.52047 0.0
H1110 H 0.91446 0.48058 0.7113 0.0
H1111 H 0.9464 0.48117 0.7525 0.0
loop_
_geom_bond_atom_site_label_1
_geom_bond_atom_site_label_2
_geom_bond_distance
_geom_bond_site_symmetry_2
_ccdc_geom_bond_type
O0 Cd1 2.300 . S
O0 C7 1.275 . S
Cd1 O0 2.300 . S
Cd1 O9 2.381 . S
Cd1 O10 2.378 . S
O2 Cd3 2.385 . S
O2 C7 1.255 . S
Cd3 O2 2.385 . S
Cd3 O4 2.317 . S
O4 Cd3 2.317 . S
O4 C5 1.232 . S
C5 O4 1.232 . S
C5 O6 1.218 . S
O6 C5 1.218 . S
C7 O0 1.275 . S
C7 O2 1.255 . S
C8 O9 1.258 . S
C8 O10 1.256 . S
O9 Cd1 2.381 . S
O9 C8 1.258 . S
O10 Cd1 2.378 . S
O10 C8 1.256 . S
O11 Cd12 2.300 1_655 S
O11 C18 1.275 1_655 S
Cd12 O11 2.300 1_455 S
Cd12 O20 2.381 1_455 S
Cd12 O21 2.378 . S
O13 Cd14 2.385 . S
O13 C18 1.255 . S
Cd14 O13 2.385 . S
Cd14 O15 2.317 . S
O15 Cd14 2.317 . S
O15 C16 1.232 . S
C16 O15 1.232 . S
C16 O17 1.218 . S
O17 C16 1.218 . S
C18 O11 1.275 1_455 S
C18 O13 1.255 . S
C19 O20 1.258 1_455 S
C19 O21 1.256 . S
O20 Cd12 2.381 1_655 S
O20 C19 1.258 1_655 S
O21 Cd12 2.378 . S
O21 C19 1.256 . S
O22 Cd23 2.300 1_565 S
O22 C29 1.275 1_565 S
Cd23 O22 2.300 1_545 S
Cd23 O31 2.381 1_545 S
Cd23 O32 2.378 . S
O24 Cd25 2.385 . S
O24 C29 1.255 . S
Cd25 O24 2.385 . S
Cd25 O26 2.317 . S
O26 Cd25 2.317 . S
O26 C27 1.232 . S
C27 O26 1.232 . S
C27 O28 1.218 . S
O28 C27 1.218 . S
C29 O22 1.275 1_545 S
C29 O24 1.255 . S
C30 O31 1.249 1_545 S
C30 O32 1.268 . S
O31 Cd23 2.381 1_565 S
O31 C30 1.249 1_565 S
O32 Cd23 2.378 . S
O32 C30 1.268 . S
O33 Cd34 2.300 . S
O33 C40 1.275 . S
Cd34 O33 2.300 . S
Cd34 O42 2.381 . S
Cd34 O43 2.378 . S
O35 Cd36 2.385 . S
O35 C40 1.255 . S
Cd36 O35 2.385 . S
Cd36 O37 2.317 . S
O37 Cd36 2.317 . S
O37 C38 1.232 . S
C38 O37 1.232 . S
C38 O39 1.218 . S
O39 C38 1.218 . S
C40 O33 1.275 . S
C40 O35 1.255 . S
C41 O42 1.258 . S
C41 O43 1.256 . S
O42 Cd34 2.381 . S
O42 C41 1.258 . S
O43 Cd34 2.378 . S
O43 C41 1.256 . S
O44 Cd45 2.300 . S
O44 C51 1.275 . S
Cd45 O44 2.300 . S
Cd45 O53 2.381 . S
Cd45 O54 2.378 . S
O46 Cd47 2.392 . S
O46 C51 1.255 . S
Cd47 O46 2.392 . S
Cd47 O48 2.311 1_554 S
O48 Cd47 2.311 1_556 S
O48 C49 1.232 . S
C49 O48 1.232 . S
C49 O50 1.218 . S
O50 C49 1.218 . S
C51 O44 1.275 . S
C51 O46 1.255 . S
C52 O53 1.258 . S
C52 O54 1.256 . S
O53 Cd45 2.381 . S
O53 C52 1.258 . S
O54 Cd45 2.378 . S
O54 C52 1.256 . S
O55 Cd56 2.307 . S
O55 C62 1.280 . S
Cd56 O55 2.307 . S
Cd56 O64 2.381 1_455 S
Cd56 O65 2.378 . S
O57 Cd58 2.393 . S
O57 C62 1.255 . S
Cd58 O57 2.393 . S
Cd58 O59 2.311 1_554 S
O59 Cd58 2.311 1_556 S
O59 C60 1.232 . S
C60 O59 1.232 . S
C60 O61 1.218 . S
O61 C60 1.218 . S
C62 O55 1.280 . S
C62 O57 1.255 . S
C63 O64 1.258 1_455 S
C63 O65 1.256 . S
O64 Cd56 2.381 1_655 S
O64 C63 1.258 1_655 S
O65 Cd56 2.378 . S
O65 C63 1.256 . S
O66 Cd67 2.300 1_565 S
O66 C73 1.275 1_565 S
Cd67 O66 2.300 1_545 S
Cd67 O75 2.381 1_545 S
Cd67 O76 2.378 . S
O68 Cd69 2.393 . S
O68 C73 1.255 . S
Cd69 O68 2.393 . S
Cd69 O70 2.311 1_554 S
O70 Cd69 2.311 1_556 S
O70 C71 1.232 . S
C71 O70 1.232 . S
C71 O72 1.218 . S
O72 C71 1.218 . S
C73 O66 1.275 1_545 S
C73 O68 1.255 . S
C74 O75 1.258 1_545 S
C74 O76 1.256 . S
O75 Cd67 2.381 1_565 S
O75 C74 1.258 1_565 S
O76 Cd67 2.378 . S
O76 C74 1.256 . S
O77 Cd78 2.300 . S
O77 C84 1.275 . S
Cd78 O77 2.300 . S
Cd78 O86 2.381 . S
Cd78 O87 2.378 . S
O79 Cd80 2.393 . S
O79 C84 1.255 . S
Cd80 O79 2.393 . S
Cd80 O81 2.311 1_554 S
O81 Cd80 2.311 1_556 S
O81 C82 1.232 . S
C82 O81 1.232 . S
C82 O83 1.218 . S
O83 C82 1.218 . S
C84 O77 1.275 . S
C84 O79 1.255 . S
C85 O86 1.258 . S
C85 O87 1.256 . S
O86 Cd78 2.381 . S
O86 C85 1.258 . S
O87 Cd78 2.378 . S
O87 C85 1.256 . S
Pr88 C90 2.880 . S
Pr88 O108 2.562 . S
Pr88 O109 2.490 . S
Pr88 O110 2.695 1_565 S
Pr88 O111 2.512 . S
Pr88 O113 2.437 . S
Pr88 O116 2.436 1_455 S
Pr88 O118 2.438 1_565 S
Pr89 C99 2.880 . S
Pr89 O110 2.436 1_655 S
Pr89 O112 2.438 1_545 S
Pr89 O114 2.562 1_655 S
Pr89 O115 2.490 . S
Pr89 O116 2.695 1_545 S
Pr89 O117 2.512 . S
Pr89 O119 2.437 . S
C90 Pr88 2.880 . S
C90 C91 1.491 . S
C90 O108 1.254 . S
C90 O109 1.225 . S
C91 C90 1.491 . S
C91 C92 1.392 . S
C91 C96 1.356 . S
C92 C91 1.392 . S
C92 C93 1.368 . S
C92 H120 0.929 . S
C93 C92 1.368 . S
C93 C94 1.386 . S
C93 H121 0.929 . S
C94 C93 1.386 . S
C94 C95 1.373 . S
C95 C94 1.373 . S
C95 C96 1.409 . S
C95 H122 0.931 1_455 S
C96 C91 1.356 . S
C96 C95 1.409 . S
C96 H123 0.930 1_455 S
C97 O110 1.264 1_565 S
C97 O111 1.260 . S
C98 O112 1.267 . S
C98 O113 1.278 1_655 S
C99 Pr89 2.880 . S
C99 C100 1.491 . S
C99 O114 1.254 1_655 S
C99 O115 1.225 . S
C100 C99 1.491 . S
C100 C101 1.392 . S
C100 C105 1.406 . S
C101 C100 1.392 . S
C101 C102 1.368 . S
C101 H124 0.929 . S
C102 C101 1.368 . S
C102 C103 1.386 . S
C102 H125 0.929 . S
C103 C102 1.386 . S
C103 C104 1.373 . S
C104 C103 1.373 . S
C104 C105 1.416 . S
C104 H126 0.931 1_655 S
C105 C100 1.406 . S
C105 C104 1.416 . S
C105 H127 0.874 1_655 S
C106 O116 1.270 1_545 S
C106 O117 1.248 . S
C107 O118 1.267 . S
C107 O119 1.278 1_455 S
O108 Pr88 2.562 . S
O108 C90 1.254 . S
O109 Pr88 2.490 . S
O109 C90 1.225 . S
O110 Pr88 2.695 1_545 S
O110 Pr89 2.436 1_455 S
O110 C97 1.264 1_545 S
O111 Pr88 2.512 . S
O111 C97 1.260 . S
O112 Pr89 2.438 1_565 S
O112 C98 1.267 . S
O113 Pr88 2.437 . S
O113 C98 1.278 1_455 S
O114 Pr89 2.562 1_455 S
O114 C99 1.254 1_455 S
O115 Pr89 2.490 . S
O115 C99 1.225 . S
O116 Pr88 2.436 1_655 S
O116 Pr89 2.695 1_565 S
O116 C106 1.270 1_565 S
O117 Pr89 2.512 . S
O117 C106 1.248 . S
O118 Pr88 2.438 1_545 S
O118 C107 1.267 . S
O119 Pr89 2.437 . S
O119 C107 1.278 1_655 S
H120 C92 0.929 . S
H121 C93 0.929 . S
H122 C95 0.931 1_655 S
H123 C96 0.930 1_655 S
H124 C101 0.929 . S
H125 C102 0.929 . S
H126 C104 0.931 1_455 S
H127 C105 0.874 1_455 S
Pr128 C130 2.880 . S
Pr128 O148 2.570 . S
Pr128 O149 2.490 . S
Pr128 O150 2.695 . S
Pr128 O151 2.512 . S
Pr128 O153 2.437 . S
Pr128 O156 2.436 1_545 S
Pr128 O158 2.438 . S
Pr129 C139 2.880 . S
Pr129 O150 2.436 1_565 S
Pr129 O152 2.438 . S
Pr129 O154 2.547 1_565 S
Pr129 O155 2.490 . S
Pr129 O156 2.695 . S
Pr129 O157 2.512 . S
Pr129 O159 2.437 . S
C130 Pr128 2.880 . S
C130 C131 1.491 . S
C130 O148 1.272 . S
C130 O149 1.225 . S
C131 C130 1.491 . S
C131 C132 1.392 . S
C131 C136 1.356 . S
C132 C131 1.392 . S
C132 C133 1.368 . S
C132 H160 0.929 . S
C133 C132 1.368 . S
C133 C134 1.386 . S
C133 H161 0.929 . S
C134 C133 1.386 . S
C134 C135 1.373 . S
C135 C134 1.373 . S
C135 C136 1.409 . S
C135 H162 0.931 1_545 S
C136 C131 1.356 . S
C136 C135 1.409 . S
C136 H163 0.930 1_545 S
C137 O150 1.270 . S
C137 O151 1.248 . S
C138 O152 1.267 . S
C138 O153 1.278 1_565 S
C139 Pr129 2.880 . S
C139 C140 1.491 . S
C139 O154 1.216 1_565 S
C139 O155 1.225 . S
C140 C139 1.491 . S
C140 C141 1.392 . S
C140 C145 1.356 . S
C141 C140 1.392 . S
C141 C142 1.368 . S
C141 H164 0.929 . S
C142 C141 1.368 . S
C142 C143 1.386 . S
C142 H165 0.929 . S
C143 C142 1.386 . S
C143 C144 1.373 . S
C144 C143 1.373 . S
C144 C145 1.409 . S
C144 H166 0.931 1_565 S
C145 C140 1.356 . S
C145 C144 1.409 . S
C145 H167 0.930 1_565 S
C146 O156 1.270 . S
C146 O157 1.248 . S
C147 O158 1.267 . S
C147 O159 1.278 1_545 S
O148 Pr128 2.570 . S
O148 C130 1.272 . S
O149 Pr128 2.490 . S
O149 C130 1.225 . S
O150 Pr128 2.695 . S
O150 Pr129 2.436 1_545 S
O150 C137 1.270 . S
O151 Pr128 2.512 . S
O151 C137 1.248 . S
O152 Pr129 2.438 . S
O152 C138 1.267 . S
O153 Pr128 2.437 . S
O153 C138 1.278 1_545 S
O154 Pr129 2.547 1_545 S
O154 C139 1.216 1_545 S
O155 Pr129 2.490 . S
O155 C139 1.225 . S
O156 Pr128 2.436 1_565 S
O156 Pr129 2.695 . S
O156 C146 1.270 . S
O157 Pr129 2.512 . S
O157 C146 1.248 . S
O158 Pr128 2.438 . S
O158 C147 1.267 . S
O159 Pr129 2.437 . S
O159 C147 1.278 1_565 S
H160 C132 0.929 . S
H161 C133 0.929 . S
H162 C135 0.931 1_565 S
H163 C136 0.930 1_565 S
H164 C141 0.929 . S
H165 C142 0.929 . S
H166 C144 0.931 1_545 S
H167 C145 0.930 1_545 S
Pr168 C170 2.880 . S
Pr168 O188 2.562 . S
Pr168 O189 2.490 . S
Pr168 O190 2.695 . S
Pr168 O191 2.512 . S
Pr168 O193 2.437 . S
Pr168 O196 2.436 . S
Pr168 O198 2.438 . S
Pr169 C179 2.880 . S
Pr169 O190 2.436 . S
Pr169 O192 2.438 . S
Pr169 O194 2.562 . S
Pr169 O195 2.490 . S
Pr169 O196 2.695 . S
Pr169 O197 2.512 . S
Pr169 O199 2.437 . S
C170 Pr168 2.880 . S
C170 C171 1.491 . S
C170 O188 1.254 . S
C170 O189 1.225 . S
C171 C170 1.491 . S
C171 C172 1.392 . S
C171 C176 1.356 . S
C172 C171 1.392 . S
C172 C173 1.368 . S
C172 H200 0.929 . S
C173 C172 1.368 . S
C173 C174 1.386 . S
C173 H201 0.929 . S
C174 C173 1.386 . S
C174 C175 1.373 . S
C175 C174 1.373 . S
C175 C176 1.409 . S
C175 H202 0.931 . S
C176 C171 1.356 . S
C176 C175 1.409 . S
C176 H203 0.930 . S
C177 O190 1.270 . S
C177 O191 1.248 . S
C178 O192 1.267 . S
C178 O193 1.278 . S
C179 Pr169 2.880 . S
C179 C180 1.491 . S
C179 O194 1.254 . S
C179 O195 1.225 . S
C180 C179 1.491 . S
C180 C181 1.392 . S
C180 C185 1.356 . S
C181 C180 1.392 . S
C181 C182 1.368 . S
C181 H204 0.929 . S
C182 C181 1.368 . S
C182 C183 1.386 . S
C182 H205 0.929 . S
C183 C182 1.386 . S
C183 C184 1.373 . S
C184 C183 1.373 . S
C184 C185 1.409 . S
C184 H206 0.931 . S
C185 C180 1.356 . S
C185 C184 1.409 . S
C185 H207 0.930 . S
C186 O196 1.270 . S
C186 O197 1.248 . S
C187 O198 1.267 . S
C187 O199 1.278 . S
O188 Pr168 2.562 . S
O188 C170 1.254 . S
O189 Pr168 2.490 . S
O189 C170 1.225 . S
O190 Pr168 2.695 . S
O190 Pr169 2.436 . S
O190 C177 1.270 . S
O191 Pr168 2.512 . S
O191 C177 1.248 . S
O192 Pr169 2.438 . S
O192 C178 1.267 . S
O193 Pr168 2.437 . S
O193 C178 1.278 . S
O194 Pr169 2.562 . S
O194 C179 1.254 . S
O195 Pr169 2.490 . S
O195 C179 1.225 . S
O196 Pr168 2.436 . S
O196 Pr169 2.695 . S
O196 C186 1.270 . S
O197 Pr169 2.512 . S
O197 C186 1.248 . S
O198 Pr168 2.438 . S
O198 C187 1.267 . S
O199 Pr169 2.437 . S
O199 C187 1.278 . S
H200 C172 0.929 . S
H201 C173 0.929 . S
H202 C175 0.931 . S
H203 C176 0.930 . S
H204 C181 0.929 . S
H205 C182 0.929 . S
H206 C184 0.931 . S
H207 C185 0.930 . S
Pr208 C210 2.880 . S
Pr208 O228 2.562 . S
Pr208 O229 2.490 . S
Pr208 O230 2.695 1_655 S
Pr208 O231 2.512 . S
Pr208 O233 2.437 . S
Pr208 O236 2.436 . S
Pr208 O238 2.438 1_655 S
Pr209 C219 2.880 . S
Pr209 O230 2.436 . S
Pr209 O232 2.438 1_455 S
Pr209 O234 2.562 . S
Pr209 O235 2.490 . S
Pr209 O236 2.695 1_455 S
Pr209 O237 2.512 . S
Pr209 O239 2.437 . S
C210 Pr208 2.880 . S
C210 C211 1.491 . S
C210 O228 1.254 . S
C210 O229 1.225 . S
C211 C210 1.491 . S
C211 C212 1.392 . S
C211 C216 1.356 . S
C212 C211 1.392 . S
C212 C213 1.368 . S
C212 H240 0.929 . S
C213 C212 1.368 . S
C213 C214 1.386 . S
C213 H241 0.929 . S
C214 C213 1.386 . S
C214 C215 1.373 . S
C215 C214 1.373 . S
C215 C216 1.409 . S
C215 H242 0.931 . S
C216 C211 1.356 . S
C216 C215 1.409 . S
C216 H243 0.930 . S
C217 O230 1.285 . S
C217 O231 1.227 1_455 S
C218 O232 1.267 . S
C218 O233 1.278 . S
C219 Pr209 2.880 . S
C219 C220 1.491 . S
C219 O234 1.254 . S
C219 O235 1.225 . S
C220 C219 1.491 . S
C220 C221 1.392 . S
C220 C225 1.356 . S
C221 C220 1.392 . S
C221 C222 1.368 . S
C221 H244 0.929 . S
C222 C221 1.368 . S
C222 C223 1.386 . S
C222 H245 0.929 . S
C223 C222 1.386 . S
C223 C224 1.373 . S
C224 C223 1.373 . S
C224 C225 1.409 . S
C224 H246 0.931 . S
C225 C220 1.356 . S
C225 C224 1.409 . S
C225 H247 0.930 . S
C226 O236 1.270 1_455 S
C226 O237 1.248 . S
C227 O238 1.267 . S
C227 O239 1.278 . S
O228 Pr208 2.562 . S
O228 C210 1.254 . S
O229 Pr208 2.490 . S
O229 C210 1.225 . S
O230 Pr208 2.695 1_455 S
O230 Pr209 2.436 . S
O230 C217 1.285 . S
O231 Pr208 2.512 . S
O231 C217 1.227 1_655 S
O232 Pr209 2.438 1_655 S
O232 C218 1.267 . S
O233 Pr208 2.437 . S
O233 C218 1.278 . S
O234 Pr209 2.562 . S
O234 C219 1.254 . S
O235 Pr209 2.490 . S
O235 C219 1.225 . S
O236 Pr208 2.436 . S
O236 Pr209 2.695 1_655 S
O236 C226 1.270 1_655 S
O237 Pr209 2.512 . S
O237 C226 1.248 . S
O238 Pr208 2.438 1_455 S
O238 C227 1.267 . S
O239 Pr209 2.437 . S
O239 C227 1.278 . S
H240 C212 0.929 . S
H241 C213 0.929 . S
H242 C215 0.931 . S
H243 C216 0.930 . S
H244 C221 0.929 . S
H245 C222 0.929 . S
H246 C224 0.931 . S
H247 C225 0.930 . S
H248 C256 0.929 . S
H249 C258 0.930 . S
H250 C260 0.930 . S
H251 C263 0.929 . S
H252 C266 0.930 . S
H253 C268 0.960 . S
H254 C268 0.960 . S
H255 C268 0.960 . S
C256 H248 0.929 . S
C256 C257 1.377 . S
C256 C258 1.384 . S
C257 C256 1.377 . S
C257 C263 1.390 1_545 S
C258 H249 0.930 . S
C258 C256 1.384 . S
C258 C259 1.372 . S
C259 C258 1.372 . S
C259 C260 1.400 1_545 S
C259 C264 1.490 . S
C260 H250 0.930 . S
C260 C259 1.400 1_565 S
C260 C263 1.386 . S
H261 C277 0.930 . S
H262 C278 0.931 . S
C263 H251 0.929 . S
C263 C257 1.390 1_565 S
C263 C260 1.386 . S
C264 C259 1.490 . S
C264 C266 1.395 . S
C264 C267 1.403 1_545 S
H265 C271 0.930 . S
C266 H252 0.930 . S
C266 C264 1.395 . S
C266 C269 1.403 . S
C267 C264 1.403 1_565 S
C267 C268 1.524 . S
C267 C271 1.400 . S
C268 H253 0.960 . S
C268 H254 0.960 . S
C268 H255 0.960 . S
C268 C267 1.524 . S
C269 C266 1.403 . S
C269 C270 1.392 . S
C269 C273 1.495 . S
C270 C269 1.392 . S
C270 C271 1.385 1_545 S
C270 C272 1.478 . S
C271 H265 0.930 . S
C271 C267 1.400 . S
C271 C270 1.385 1_565 S
C272 C270 1.478 . S
C272 C274 1.381 . S
C272 C278 1.383 1_545 S
C273 C269 1.495 . S
C273 H279 0.959 . S
C273 H280 0.961 . S
C273 H281 0.960 . S
C274 C272 1.381 . S
C274 C275 1.394 . S
C274 H282 0.930 . S
C275 C274 1.394 . S
C275 C276 1.383 . S
C275 H283 0.929 . S
C276 C275 1.383 . S
C276 C277 1.377 1_545 S
C277 H261 0.930 . S
C277 C276 1.377 1_565 S
C277 C278 1.379 . S
C278 H262 0.931 . S
C278 C272 1.383 1_565 S
C278 C277 1.379 . S
H279 C273 0.959 . S
H280 C273 0.961 . S
H281 C273 0.960 . S
H282 C274 0.930 . S
H283 C275 0.929 . S
H284 C292 0.929 . S
H285 C294 0.930 . S
H286 C296 0.930 . S
H287 C299 0.929 . S
H288 C302 0.930 . S
H289 C304 0.960 . S
H290 C304 0.960 . S
H291 C304 0.960 . S
C292 H284 0.929 . S
C292 C293 1.377 . S
C292 C294 1.384 . S
C293 C292 1.377 . S
C293 C299 1.390 . S
C294 H285 0.930 . S
C294 C292 1.384 . S
C294 C295 1.372 . S
C295 C294 1.372 . S
C295 C296 1.400 . S
C295 C300 1.490 . S
C296 H286 0.930 . S
C296 C295 1.400 . S
C296 C299 1.386 . S
H297 C313 0.930 . S
H298 C314 0.931 . S
C299 H287 0.929 . S
C299 C293 1.390 . S
C299 C296 1.386 . S
C300 C295 1.490 . S
C300 C302 1.395 . S
C300 C303 1.403 . S
H301 C307 0.930 . S
C302 H288 0.930 . S
C302 C300 1.395 . S
C302 C305 1.403 . S
C303 C300 1.403 . S
C303 C304 1.524 . S
C303 C307 1.400 . S
C304 H289 0.960 . S
C304 H290 0.960 . S
C304 H291 0.960 . S
C304 C303 1.524 . S
C305 C302 1.403 . S
C305 C306 1.392 . S
C305 C309 1.495 . S
C306 C305 1.392 . S
C306 C307 1.385 . S
C306 C308 1.478 . S
C307 H301 0.930 . S
C307 C303 1.400 . S
C307 C306 1.385 . S
C308 C306 1.478 . S
C308 C310 1.381 . S
C308 C314 1.383 . S
C309 C305 1.495 . S
C309 H315 0.959 . S
C309 H316 0.961 . S
C309 H317 0.960 . S
C310 C308 1.381 . S
C310 C311 1.394 . S
C310 H318 0.930 . S
C311 C310 1.394 . S
C311 C312 1.383 . S
C311 H319 0.929 . S
C312 C311 1.383 . S
C312 C313 1.377 . S
C313 H297 0.930 . S
C313 C312 1.377 . S
C313 C314 1.379 . S
C314 H298 0.931 . S
C314 C308 1.383 . S
C314 C313 1.379 . S
H315 C309 0.959 . S
H316 C309 0.961 . S
H317 C309 0.960 . S
H318 C310 0.930 . S
H319 C311 0.929 . S
H320 C328 0.929 . S
H321 C330 0.930 . S
H322 C332 0.930 . S
H323 C335 0.929 . S
H324 C338 0.930 . S
H325 C340 0.960 . S
H326 C340 0.960 . S
H327 C340 0.960 . S
C328 H320 0.929 . S
C328 C329 1.377 . S
C328 C330 1.384 . S
C329 C328 1.377 . S
C329 C335 1.390 . S
C330 H321 0.930 . S
C330 C328 1.384 . S
C330 C331 1.372 . S
C331 C330 1.372 . S
C331 C332 1.400 . S
C331 C336 1.490 . S
C332 H322 0.930 . S
C332 C331 1.400 . S
C332 C335 1.386 . S
H333 C349 0.930 . S
H334 C350 0.931 . S
C335 H323 0.929 . S
C335 C329 1.390 . S
C335 C332 1.386 . S
C336 C331 1.490 . S
C336 C338 1.395 . S
C336 C339 1.403 . S
H337 C343 0.930 . S
C338 H324 0.930 . S
C338 C336 1.395 . S
C338 C341 1.403 . S
C339 C336 1.403 . S
C339 C340 1.524 . S
C339 C343 1.400 . S
C340 H325 0.960 . S
C340 H326 0.960 . S
C340 H327 0.960 . S
C340 C339 1.524 . S
C341 C338 1.403 . S
C341 C342 1.392 . S
C341 C345 1.495 . S
C342 C341 1.392 . S
C342 C343 1.385 . S
C342 C344 1.478 . S
C343 H337 0.930 . S
C343 C339 1.400 . S
C343 C342 1.385 . S
C344 C342 1.478 . S
C344 C346 1.381 . S
C344 C350 1.383 . S
C345 C341 1.495 . S
C345 H351 0.959 . S
C345 H352 0.961 . S
C345 H353 0.960 . S
C346 C344 1.381 . S
C346 C347 1.394 . S
C346 H354 0.930 . S
C347 C346 1.394 . S
C347 C348 1.383 . S
C347 H355 0.929 . S
C348 C347 1.383 . S
C348 C349 1.377 . S
C349 H333 0.930 . S
C349 C348 1.377 . S
C349 C350 1.379 . S
C350 H334 0.931 . S
C350 C344 1.383 . S
C350 C349 1.379 . S
H351 C345 0.959 . S
H352 C345 0.961 . S
H353 C345 0.960 . S
H354 C346 0.930 . S
H355 C347 0.929 . S
H356 C364 0.929 1_655 S
H357 C366 0.931 1_655 S
H358 C368 0.930 . S
H359 C371 0.929 . S
H360 C374 0.930 . S
H361 C376 0.960 . S
H362 C376 0.960 . S
H363 C376 0.960 . S
C364 H356 0.929 1_455 S
C364 C365 1.378 . S
C364 C366 1.384 . S
C365 C364 1.378 . S
C365 C371 1.390 . S
C366 H357 0.931 1_455 S
C366 C364 1.384 . S
C366 C367 1.371 . S
C367 C366 1.371 . S
C367 C368 1.400 . S
C367 C372 1.490 . S
C368 H358 0.930 . S
C368 C367 1.400 . S
C368 C371 1.386 . S
H369 C385 0.930 . S
H370 C386 0.931 . S
C371 H359 0.929 . S
C371 C365 1.390 . S
C371 C368 1.386 . S
C372 C367 1.490 . S
C372 C374 1.395 . S
C372 C375 1.403 1_455 S
H373 C379 0.930 . S
C374 H360 0.930 . S
C374 C372 1.395 . S
C374 C377 1.403 . S
C375 C372 1.403 1_655 S
C375 C376 1.524 . S
C375 C379 1.400 . S
C376 H361 0.960 . S
C376 H362 0.960 . S
C376 H363 0.960 . S
C376 C375 1.524 . S
C377 C374 1.403 . S
C377 C378 1.392 . S
C377 C381 1.495 . S
C378 C377 1.392 . S
C378 C379 1.385 1_455 S
C378 C380 1.478 . S
C379 H373 0.930 . S
C379 C375 1.400 . S
C379 C378 1.385 1_655 S
C380 C378 1.478 . S
C380 C382 1.388 . S
C380 C386 1.383 . S
C381 C377 1.495 . S
C381 H387 0.959 . S
C381 H388 0.961 . S
C381 H389 0.960 . S
C382 C380 1.388 . S
C382 C383 1.392 1_455 S
C382 H390 0.925 1_455 S
C383 C382 1.392 1_655 S
C383 C384 1.372 1_655 S
C383 H391 0.945 . S
C384 C383 1.372 1_455 S
C384 C385 1.377 . S
C385 H369 0.930 . S
C385 C384 1.377 . S
C385 C386 1.379 . S
C386 H370 0.931 . S
C386 C380 1.383 . S
C386 C385 1.379 . S
H387 C381 0.959 . S
H388 C381 0.961 . S
H389 C381 0.960 . S
H390 C382 0.925 1_655 S
H391 C383 0.945 . S
H392 C400 0.929 . S
H393 C402 0.930 . S
H394 C404 0.930 . S
H395 C407 0.929 . S
H396 C410 0.930 1_545 S
H397 C412 0.960 . S
H398 C412 0.975 . S
H399 C412 0.946 1_565 S
C400 H392 0.929 . S
C400 C401 1.377 1_545 S
C400 C402 1.384 . S
C401 C400 1.377 1_565 S
C401 C407 1.390 . S
C402 H393 0.930 . S
C402 C400 1.384 . S
C402 C403 1.348 1_545 S
C403 C402 1.348 1_565 S
C403 C404 1.425 . S
C403 C408 1.490 . S
C404 H394 0.930 . S
C404 C403 1.425 . S
C404 C407 1.386 . S
H405 C421 0.930 . S
H406 C422 0.931 . S
C407 H395 0.929 . S
C407 C401 1.390 . S
C407 C404 1.386 . S
C408 C403 1.490 . S
C408 C410 1.394 . S
C408 C411 1.403 1_554 S
H409 C415 0.930 . S
C410 H396 0.930 1_565 S
C410 C408 1.394 . S
C410 C413 1.403 . S
C411 C408 1.403 1_556 S
C411 C412 1.523 1_565 S
C411 C415 1.400 . S
C412 H397 0.960 . S
C412 H398 0.975 . S
C412 H399 0.946 1_545 S
C412 C411 1.523 1_545 S
C413 C410 1.403 . S
C413 C414 1.392 1_554 S
C413 C417 1.495 . S
C414 C413 1.392 1_556 S
C414 C415 1.385 . S
C414 C416 1.477 . S
C415 H409 0.930 . S
C415 C411 1.400 . S
C415 C414 1.385 . S
C416 C414 1.477 . S
C416 C418 1.332 1_565 S
C416 C422 1.433 . S
C417 C413 1.495 . S
C417 H423 0.959 . S
C417 H424 0.977 . S
C417 H425 0.944 1_565 S
C418 C416 1.332 1_545 S
C418 C419 1.394 . S
C418 H426 0.930 . S
C419 C418 1.394 . S
C419 C420 1.335 1_545 S
C419 H427 0.929 . S
C420 C419 1.335 1_565 S
C420 C421 1.426 . S
C421 H405 0.930 . S
C421 C420 1.426 . S
C421 C422 1.379 . S
C422 H406 0.931 . S
C422 C416 1.433 . S
C422 C421 1.379 . S
H423 C417 0.959 . S
H424 C417 0.977 . S
H425 C417 0.944 1_545 S
H426 C418 0.930 . S
H427 C419 0.929 . S
H428 C436 0.929 . S
H429 C438 0.930 . S
H430 C440 0.930 . S
H431 C443 0.929 . S
H432 C446 0.930 . S
H433 C448 0.960 . S
H434 C448 0.960 . S
H435 C448 0.960 . S
C436 H428 0.929 . S
C436 C437 1.377 . S
C436 C438 1.384 . S
C437 C436 1.377 . S
C437 C443 1.390 . S
C438 H429 0.930 . S
C438 C436 1.384 . S
C438 C439 1.372 . S
C439 C438 1.372 . S
C439 C440 1.400 . S
C439 C444 1.490 . S
C440 H430 0.930 . S
C440 C439 1.400 . S
C440 C443 1.386 . S
H441 C457 0.930 . S
H442 C458 0.931 . S
C443 H431 0.929 . S
C443 C437 1.390 . S
C443 C440 1.386 . S
C444 C439 1.490 . S
C444 C446 1.395 . S
C444 C447 1.403 1_554 S
H445 C451 0.930 . S
C446 H432 0.930 . S
C446 C444 1.395 . S
C446 C449 1.403 . S
C447 C444 1.403 1_556 S
C447 C448 1.524 . S
C447 C451 1.400 . S
C448 H433 0.960 . S
C448 H434 0.960 . S
C448 H435 0.960 . S
C448 C447 1.524 . S
C449 C446 1.403 . S
C449 C450 1.392 1_554 S
C449 C453 1.495 . S
C450 C449 1.392 1_556 S
C450 C451 1.385 . S
C450 C452 1.478 . S
C451 H445 0.930 . S
C451 C447 1.400 . S
C451 C450 1.385 . S
C452 C450 1.478 . S
C452 C454 1.381 . S
C452 C458 1.383 . S
C453 C449 1.495 . S
C453 H459 0.959 . S
C453 H460 0.961 . S
C453 H461 0.960 . S
C454 C452 1.381 . S
C454 C455 1.394 . S
C454 H462 0.930 . S
C455 C454 1.394 . S
C455 C456 1.383 . S
C455 H463 0.929 . S
C456 C455 1.383 . S
C456 C457 1.377 . S
C457 H441 0.930 . S
C457 C456 1.377 . S
C457 C458 1.379 . S
C458 H442 0.931 . S
C458 C452 1.383 . S
C458 C457 1.379 . S
H459 C453 0.959 . S
H460 C453 0.961 . S
H461 C453 0.960 . S
H462 C454 0.930 . S
H463 C455 0.929 . S
H464 C472 0.929 . S
H465 C474 0.930 . S
H466 C476 0.930 . S
H467 C479 0.929 . S
H468 C482 0.930 . S
H469 C484 0.960 . S
H470 C484 0.960 . S
H471 C484 0.960 . S
C472 H464 0.929 . S
C472 C473 1.377 . S
C472 C474 1.384 . S
C473 C472 1.377 . S
C473 C479 1.390 . S
C474 H465 0.930 . S
C474 C472 1.384 . S
C474 C475 1.372 . S
C475 C474 1.372 . S
C475 C476 1.400 . S
C475 C480 1.490 . S
C476 H466 0.930 . S
C476 C475 1.400 . S
C476 C479 1.386 . S
H477 C493 0.930 . S
H478 C494 0.931 . S
C479 H467 0.929 . S
C479 C473 1.390 . S
C479 C476 1.386 . S
C480 C475 1.490 . S
C480 C482 1.395 . S
C480 C483 1.403 1_554 S
H481 C487 0.930 . S
C482 H468 0.930 . S
C482 C480 1.395 . S
C482 C485 1.403 . S
C483 C480 1.403 1_556 S
C483 C484 1.524 . S
C483 C487 1.400 . S
C484 H469 0.960 . S
C484 H470 0.960 . S
C484 H471 0.960 . S
C484 C483 1.524 . S
C485 C482 1.403 . S
C485 C486 1.392 1_554 S
C485 C489 1.495 . S
C486 C485 1.392 1_556 S
C486 C487 1.385 . S
C486 C488 1.478 . S
C487 H481 0.930 . S
C487 C483 1.400 . S
C487 C486 1.385 . S
C488 C486 1.478 . S
C488 C490 1.381 . S
C488 C494 1.383 . S
C489 C485 1.495 . S
C489 H495 0.959 . S
C489 H496 0.961 . S
C489 H497 0.960 . S
C490 C488 1.381 . S
C490 C491 1.394 . S
C490 H498 0.930 . S
C491 C490 1.394 . S
C491 C492 1.383 . S
C491 H499 0.929 . S
C492 C491 1.383 . S
C492 C493 1.377 . S
C493 H477 0.930 . S
C493 C492 1.377 . S
C493 C494 1.379 . S
C494 H478 0.931 . S
C494 C488 1.383 . S
C494 C493 1.379 . S
H495 C489 0.959 . S
H496 C489 0.961 . S
H497 C489 0.960 . S
H498 C490 0.930 . S
H499 C491 0.929 . S
H500 C508 0.929 . S
H501 C510 0.930 . S
H502 C512 0.930 . S
H503 C515 0.929 . S
H504 C518 0.930 . S
H505 C520 0.960 . S
H506 C520 0.960 . S
H507 C520 0.960 . S
C508 H500 0.929 . S
C508 C509 1.333 1_455 S
C508 C510 1.384 . S
C509 C508 1.333 1_655 S
C509 C515 1.434 . S
C510 H501 0.930 . S
C510 C508 1.384 . S
C510 C511 1.385 . S
C511 C510 1.385 . S
C511 C512 1.387 1_455 S
C511 C516 1.490 . S
C512 H502 0.930 . S
C512 C511 1.387 1_655 S
C512 C515 1.386 . S
H513 C529 0.930 . S
H514 C530 0.931 . S
C515 H503 0.929 . S
C515 C509 1.434 . S
C515 C512 1.386 . S
C516 C511 1.490 . S
C516 C518 1.415 . S
C516 C519 1.386 1_454 S
H517 C523 0.930 . S
C518 H504 0.930 . S
C518 C516 1.415 . S
C518 C521 1.403 . S
C519 C516 1.386 1_656 S
C519 C520 1.524 . S
C519 C523 1.400 . S
C520 H505 0.960 . S
C520 H506 0.960 . S
C520 H507 0.960 . S
C520 C519 1.524 . S
C521 C518 1.403 . S
C521 C522 1.392 1_554 S
C521 C525 1.495 . S
C522 C521 1.392 1_556 S
C522 C523 1.385 1_455 S
C522 C524 1.478 . S
C523 H517 0.930 . S
C523 C519 1.400 . S
C523 C522 1.385 1_655 S
C524 C522 1.478 . S
C524 C526 1.381 . S
C524 C530 1.383 1_455 S
C525 C521 1.495 . S
C525 H531 0.959 . S
C525 H532 0.961 . S
C525 H533 0.960 . S
C526 C524 1.381 . S
C526 C527 1.394 . S
C526 H534 0.930 . S
C527 C526 1.394 . S
C527 C528 1.418 . S
C527 H535 0.929 . S
C528 C527 1.418 . S
C528 C529 1.344 1_455 S
C529 H513 0.930 . S
C529 C528 1.344 1_655 S
C529 C530 1.379 . S
C530 H514 0.931 . S
C530 C524 1.383 1_655 S
C530 C529 1.379 . S
H531 C525 0.959 . S
H532 C525 0.961 . S
H533 C525 0.960 . S
H534 C526 0.930 . S
H535 C527 0.929 . S
H536 C544 0.929 . S
H537 C546 0.930 . S
H538 C548 0.930 . S
H539 C551 0.929 . S
H540 C554 0.930 . S
H541 C556 0.960 . S
H542 C556 0.960 . S
H543 C556 0.960 . S
C544 H536 0.929 . S
C544 C545 1.377 1_655 S
C544 C546 1.384 . S
C545 C544 1.377 1_455 S
C545 C551 1.390 . S
C546 H537 0.930 . S
C546 C544 1.384 . S
C546 C547 1.372 . S
C547 C546 1.372 . S
C547 C548 1.400 1_655 S
C547 C552 1.490 . S
C548 H538 0.930 . S
C548 C547 1.400 1_455 S
C548 C551 1.386 . S
H549 C565 0.930 . S
H550 C566 0.931 . S
C551 H539 0.929 . S
C551 C545 1.390 . S
C551 C548 1.386 . S
C552 C547 1.490 . S
C552 C554 1.395 1_655 S
C552 C555 1.403 . S
H553 C559 0.930 . S
C554 H540 0.930 . S
C554 C552 1.395 1_455 S
C554 C557 1.403 . S
C555 C552 1.403 . S
C555 C556 1.524 . S
C555 C559 1.400 . S
C556 H541 0.960 . S
C556 H542 0.960 . S
C556 H543 0.960 . S
C556 C555 1.524 . S
C557 C554 1.403 . S
C557 C558 1.392 1_455 S
C557 C561 1.495 . S
C558 C557 1.392 1_655 S
C558 C559 1.385 . S
C558 C560 1.478 . S
C559 H553 0.930 . S
C559 C555 1.400 . S
C559 C558 1.385 . S
C560 C558 1.478 . S
C560 C562 1.381 . S
C560 C566 1.383 . S
C561 C557 1.495 . S
C561 H567 0.959 . S
C561 H568 0.961 . S
C561 H569 0.960 . S
C562 C560 1.381 . S
C562 C563 1.394 . S
C562 H570 0.930 . S
C563 C562 1.394 . S
C563 C564 1.383 . S
C563 H571 0.929 . S
C564 C563 1.383 . S
C564 C565 1.377 . S
C565 H549 0.930 . S
C565 C564 1.377 . S
C565 C566 1.379 . S
C566 H550 0.931 . S
C566 C560 1.383 . S
C566 C565 1.379 . S
H567 C561 0.959 . S
H568 C561 0.961 . S
H569 C561 0.960 . S
H570 C562 0.930 . S
H571 C563 0.929 . S
H572 C580 0.929 . S
H573 C582 0.930 . S
H574 C584 0.930 . S
H575 C587 0.929 . S
H576 C590 0.930 . S
H577 C592 0.960 . S
H578 C592 0.960 . S
H579 C592 0.960 . S
C580 H572 0.929 . S
C580 C581 1.377 . S
C580 C582 1.384 1_545 S
C581 C580 1.377 . S
C581 C587 1.390 . S
C582 H573 0.930 . S
C582 C580 1.384 1_565 S
C582 C583 1.372 . S
C583 C582 1.372 . S
C583 C584 1.400 . S
C583 C588 1.490 . S
C584 H574 0.930 . S
C584 C583 1.400 . S
C584 C587 1.386 1_565 S
H585 C601 0.930 . S
H586 C602 0.931 . S
C587 H575 0.929 . S
C587 C581 1.390 . S
C587 C584 1.386 1_545 S
C588 C583 1.490 . S
C588 C590 1.395 1_565 S
C588 C591 1.403 . S
H589 C595 0.930 . S
C590 H576 0.930 . S
C590 C588 1.395 1_545 S
C590 C593 1.403 . S
C591 C588 1.403 . S
C591 C592 1.524 . S
C591 C595 1.400 . S
C592 H577 0.960 . S
C592 H578 0.960 . S
C592 H579 0.960 . S
C592 C591 1.524 . S
C593 C590 1.403 . S
C593 C594 1.392 1_545 S
C593 C597 1.495 . S
C594 C593 1.392 1_565 S
C594 C595 1.385 . S
C594 C596 1.478 . S
C595 H589 0.930 . S
C595 C591 1.400 . S
C595 C594 1.385 . S
C596 C594 1.478 . S
C596 C598 1.381 . S
C596 C602 1.383 . S
C597 C593 1.495 . S
C597 H603 0.959 . S
C597 H604 0.961 . S
C597 H605 0.960 . S
C598 C596 1.381 . S
C598 C599 1.394 . S
C598 H606 0.930 . S
C599 C598 1.394 . S
C599 C600 1.383 . S
C599 H607 0.929 . S
C600 C599 1.383 . S
C600 C601 1.377 . S
C601 H585 0.930 . S
C601 C600 1.377 . S
C601 C602 1.379 . S
C602 H586 0.931 . S
C602 C596 1.383 . S
C602 C601 1.379 . S
H603 C597 0.959 . S
H604 C597 0.961 . S
H605 C597 0.960 . S
H606 C598 0.930 . S
H607 C599 0.929 . S
H608 C616 0.929 . S
H609 C618 0.930 . S
H610 C620 0.930 . S
H611 C623 0.929 . S
H612 C626 0.930 . S
H613 C628 0.960 . S
H614 C628 0.960 . S
H615 C628 0.960 . S
C616 H608 0.929 . S
C616 C617 1.377 . S
C616 C618 1.384 . S
C617 C616 1.377 . S
C617 C623 1.390 . S
C618 H609 0.930 . S
C618 C616 1.384 . S
C618 C619 1.372 . S
C619 C618 1.372 . S
C619 C620 1.400 . S
C619 C624 1.490 . S
C620 H610 0.930 . S
C620 C619 1.400 . S
C620 C623 1.386 . S
H621 C637 0.930 . S
H622 C638 0.931 . S
C623 H611 0.929 . S
C623 C617 1.390 . S
C623 C620 1.386 . S
C624 C619 1.490 . S
C624 C626 1.395 . S
C624 C627 1.403 . S
H625 C631 0.930 . S
C626 H612 0.930 . S
C626 C624 1.395 . S
C626 C629 1.403 . S
C627 C624 1.403 . S
C627 C628 1.524 . S
C627 C631 1.400 . S
C628 H613 0.960 . S
C628 H614 0.960 . S
C628 H615 0.960 . S
C628 C627 1.524 . S
C629 C626 1.403 . S
C629 C630 1.392 . S
C629 C633 1.495 . S
C630 C629 1.392 . S
C630 C631 1.385 . S
C630 C632 1.478 . S
C631 H625 0.930 . S
C631 C627 1.400 . S
C631 C630 1.385 . S
C632 C630 1.478 . S
C632 C634 1.381 . S
C632 C638 1.383 . S
C633 C629 1.495 . S
C633 H639 0.959 . S
C633 H640 0.961 . S
C633 H641 0.960 . S
C634 C632 1.381 . S
C634 C635 1.394 . S
C634 H642 0.930 . S
C635 C634 1.394 . S
C635 C636 1.383 . S
C635 H643 0.929 . S
C636 C635 1.383 . S
C636 C637 1.377 . S
C637 H621 0.930 . S
C637 C636 1.377 . S
C637 C638 1.379 . S
C638 H622 0.931 . S
C638 C632 1.383 . S
C638 C637 1.379 . S
H639 C633 0.959 . S
H640 C633 0.961 . S
H641 C633 0.960 . S
H642 C634 0.930 . S
H643 C635 0.929 . S
H644 C652 0.929 . S
H645 C654 0.930 . S
H646 C656 0.930 . S
H647 C659 0.929 . S
H648 C662 0.930 . S
H649 C664 0.960 . S
H650 C664 0.960 . S
H651 C664 0.960 . S
C652 H644 0.929 . S
C652 C653 1.377 . S
C652 C654 1.384 . S
C653 C652 1.377 . S
C653 C659 1.390 . S
C654 H645 0.930 . S
C654 C652 1.384 . S
C654 C655 1.372 . S
C655 C654 1.372 . S
C655 C656 1.400 . S
C655 C660 1.490 . S
C656 H646 0.930 . S
C656 C655 1.400 . S
C656 C659 1.386 . S
H657 C673 0.930 . S
H658 C674 0.931 . S
C659 H647 0.929 . S
C659 C653 1.390 . S
C659 C656 1.386 . S
C660 C655 1.490 . S
C660 C662 1.395 . S
C660 C663 1.403 . S
H661 C667 0.930 . S
C662 H648 0.930 . S
C662 C660 1.395 . S
C662 C665 1.403 . S
C663 C660 1.403 . S
C663 C664 1.524 . S
C663 C667 1.400 . S
C664 H649 0.960 . S
C664 H650 0.960 . S
C664 H651 0.960 . S
C664 C663 1.524 . S
C665 C662 1.403 . S
C665 C666 1.392 . S
C665 C669 1.495 . S
C666 C665 1.392 . S
C666 C667 1.385 . S
C666 C668 1.478 . S
C667 H661 0.930 . S
C667 C663 1.400 . S
C667 C666 1.385 . S
C668 C666 1.478 . S
C668 C670 1.381 . S
C668 C674 1.383 . S
C669 C665 1.495 . S
C669 H675 0.959 . S
C669 H676 0.961 . S
C669 H677 0.960 . S
C670 C668 1.381 . S
C670 C671 1.394 . S
C670 H678 0.930 . S
C671 C670 1.394 . S
C671 C672 1.383 . S
C671 H679 0.929 . S
C672 C671 1.383 . S
C672 C673 1.377 . S
C673 H657 0.930 . S
C673 C672 1.377 . S
C673 C674 1.379 . S
C674 H658 0.931 . S
C674 C668 1.383 . S
C674 C673 1.379 . S
H675 C669 0.959 . S
H676 C669 0.961 . S
H677 C669 0.960 . S
H678 C670 0.930 . S
H679 C671 0.929 . S
H680 C688 0.936 . S
H681 C690 0.930 . S
H682 C692 0.930 . S
H683 C695 0.928 . S
H684 C698 0.930 . S
H685 C700 0.960 . S
H686 C700 0.960 . S
H687 C700 0.960 . S
C688 H680 0.936 . S
C688 C689 1.381 . S
C688 C690 1.376 1_655 S
C689 C688 1.381 . S
C689 C695 1.383 1_655 S
C690 H681 0.930 . S
C690 C688 1.376 1_455 S
C690 C691 1.372 . S
C691 C690 1.372 . S
C691 C692 1.400 . S
C691 C696 1.490 . S
C692 H682 0.930 . S
C692 C691 1.400 . S
C692 C695 1.397 . S
H693 C709 0.930 1_554 S
H694 C710 0.931 . S
C695 H683 0.928 . S
C695 C689 1.383 1_455 S
C695 C692 1.397 . S
C696 C691 1.490 . S
C696 C698 1.395 1_455 S
C696 C699 1.403 . S
H697 C703 0.930 . S
C698 H684 0.930 . S
C698 C696 1.395 1_655 S
C698 C701 1.403 . S
C699 C696 1.403 . S
C699 C700 1.524 . S
C699 C703 1.400 . S
C700 H685 0.960 . S
C700 H686 0.960 . S
C700 H687 0.960 . S
C700 C699 1.524 . S
C701 C698 1.403 . S
C701 C702 1.392 1_655 S
C701 C705 1.495 1_554 S
C702 C701 1.392 1_455 S
C702 C703 1.385 . S
C702 C704 1.478 1_554 S
C703 H697 0.930 . S
C703 C699 1.400 . S
C703 C702 1.385 . S
C704 C702 1.478 1_556 S
C704 C706 1.381 . S
C704 C710 1.383 1_556 S
C705 C701 1.495 1_556 S
C705 H711 0.959 . S
C705 H712 0.961 . S
C705 H713 0.960 . S
C706 C704 1.381 . S
C706 C707 1.394 . S
C706 H714 0.930 . S
C707 C706 1.394 . S
C707 C708 1.383 . S
C707 H715 0.929 . S
C708 C707 1.383 . S
C708 C709 1.377 . S
C709 H693 0.930 1_556 S
C709 C708 1.377 . S
C709 C710 1.379 1_556 S
C710 H694 0.931 . S
C710 C704 1.383 1_554 S
C710 C709 1.379 1_554 S
H711 C705 0.959 . S
H712 C705 0.961 . S
H713 C705 0.960 . S
H714 C706 0.930 . S
H715 C707 0.929 . S
H716 C724 0.929 . S
H717 C726 0.930 . S
H718 C728 0.930 . S
H719 C731 0.929 . S
H720 C734 0.930 . S
H721 C736 0.960 . S
H722 C736 0.960 1_565 S
H723 C736 0.960 1_554 S
C724 H716 0.929 . S
C724 C725 1.377 . S
C724 C726 1.384 . S
C725 C724 1.377 . S
C725 C731 1.390 1_565 S
C726 H717 0.930 . S
C726 C724 1.384 . S
C726 C727 1.372 1_565 S
C727 C726 1.372 1_545 S
C727 C728 1.400 . S
C727 C732 1.490 . S
C728 H718 0.930 . S
C728 C727 1.400 . S
C728 C731 1.386 . S
H729 C745 0.930 . S
H730 C746 0.931 . S
C731 H719 0.929 . S
C731 C725 1.390 1_545 S
C731 C728 1.386 . S
C732 C727 1.490 . S
C732 C734 1.395 . S
C732 C735 1.403 . S
H733 C739 0.930 1_556 S
C734 H720 0.930 . S
C734 C732 1.395 . S
C734 C737 1.403 . S
C735 C732 1.403 . S
C735 C736 1.524 1_554 S
C735 C739 1.400 . S
C736 H721 0.960 . S
C736 H722 0.960 1_545 S
C736 H723 0.960 1_556 S
C736 C735 1.524 1_556 S
C737 C734 1.403 . S
C737 C738 1.392 . S
C737 C741 1.495 . S
C738 C737 1.392 . S
C738 C739 1.385 . S
C738 C740 1.478 . S
C739 H733 0.930 1_554 S
C739 C735 1.400 . S
C739 C738 1.385 . S
C740 C738 1.478 . S
C740 C742 1.381 . S
C740 C746 1.383 1_554 S
C741 C737 1.495 . S
C741 H747 0.959 . S
C741 H748 0.961 . S
C741 H749 0.960 . S
C742 C740 1.381 . S
C742 C743 1.394 1_554 S
C742 H750 0.930 1_545 S
C743 C742 1.394 1_556 S
C743 C744 1.383 . S
C743 H751 0.929 1_545 S
C744 C743 1.383 . S
C744 C745 1.377 . S
C745 H729 0.930 . S
C745 C744 1.377 . S
C745 C746 1.379 . S
C746 H730 0.931 . S
C746 C740 1.383 1_556 S
C746 C745 1.379 . S
H747 C741 0.959 . S
H748 C741 0.961 . S
H749 C741 0.960 . S
H750 C742 0.930 1_565 S
H751 C743 0.929 1_565 S
H752 C760 0.929 . S
H753 C762 0.930 . S
H754 C764 0.930 . S
H755 C767 0.929 . S
H756 C770 0.930 . S
H757 C772 0.960 . S
H758 C772 0.960 . S
H759 C772 0.960 . S
C760 H752 0.929 . S
C760 C761 1.377 . S
C760 C762 1.384 . S
C761 C760 1.377 . S
C761 C767 1.390 . S
C762 H753 0.930 . S
C762 C760 1.384 . S
C762 C763 1.372 . S
C763 C762 1.372 . S
C763 C764 1.400 . S
C763 C768 1.490 . S
C764 H754 0.930 . S
C764 C763 1.400 . S
C764 C767 1.386 . S
H765 C781 0.930 . S
H766 C782 0.931 . S
C767 H755 0.929 . S
C767 C761 1.390 . S
C767 C764 1.386 . S
C768 C763 1.490 . S
C768 C770 1.395 . S
C768 C771 1.403 . S
H769 C775 0.930 . S
C770 H756 0.930 . S
C770 C768 1.395 . S
C770 C773 1.403 . S
C771 C768 1.403 . S
C771 C772 1.524 . S
C771 C775 1.400 . S
C772 H757 0.960 . S
C772 H758 0.960 . S
C772 H759 0.960 . S
C772 C771 1.524 . S
C773 C770 1.403 . S
C773 C774 1.392 . S
C773 C777 1.495 . S
C774 C773 1.392 . S
C774 C775 1.385 . S
C774 C776 1.478 . S
C775 H769 0.930 . S
C775 C771 1.400 . S
C775 C774 1.385 . S
C776 C774 1.478 . S
C776 C778 1.381 . S
C776 C782 1.383 1_554 S
C777 C773 1.495 . S
C777 H783 0.959 . S
C777 H784 0.961 . S
C777 H785 0.960 . S
C778 C776 1.381 . S
C778 C779 1.394 1_554 S
C778 H786 0.930 . S
C779 C778 1.394 1_556 S
C779 C780 1.383 . S
C779 H787 0.929 1_556 S
C780 C779 1.383 . S
C780 C781 1.377 . S
C781 H765 0.930 . S
C781 C780 1.377 . S
C781 C782 1.379 . S
C782 H766 0.931 . S
C782 C776 1.383 1_556 S
C782 C781 1.379 . S
H783 C777 0.959 . S
H784 C777 0.961 . S
H785 C777 0.960 . S
H786 C778 0.930 . S
H787 C779 0.929 1_554 S
H788 C796 0.929 . S
H789 C798 0.930 . S
H790 C800 0.930 . S
H791 C803 0.929 . S
H792 C806 0.930 . S
H793 C808 0.960 . S
H794 C808 0.960 . S
H795 C808 0.960 . S
C796 H788 0.929 . S
C796 C797 1.377 . S
C796 C798 1.384 . S
C797 C796 1.377 . S
C797 C803 1.390 . S
C798 H789 0.930 . S
C798 C796 1.384 . S
C798 C799 1.372 . S
C799 C798 1.372 . S
C799 C800 1.400 . S
C799 C804 1.490 . S
C800 H790 0.930 . S
C800 C799 1.400 . S
C800 C803 1.386 . S
H801 C817 0.930 1_554 S
H802 C818 0.931 . S
C803 H791 0.929 . S
C803 C797 1.390 . S
C803 C800 1.386 . S
C804 C799 1.490 . S
C804 C806 1.395 . S
C804 C807 1.403 . S
H805 C811 0.930 . S
C806 H792 0.930 . S
C806 C804 1.395 . S
C806 C809 1.403 . S
C807 C804 1.403 . S
C807 C808 1.524 . S
C807 C811 1.400 . S
C808 H793 0.960 . S
C808 H794 0.960 . S
C808 H795 0.960 . S
C808 C807 1.524 . S
C809 C806 1.403 . S
C809 C810 1.392 . S
C809 C813 1.495 1_554 S
C810 C809 1.392 . S
C810 C811 1.385 . S
C810 C812 1.478 1_554 S
C811 H805 0.930 . S
C811 C807 1.400 . S
C811 C810 1.385 . S
C812 C810 1.478 1_556 S
C812 C814 1.381 . S
C812 C818 1.383 1_556 S
C813 C809 1.495 1_556 S
C813 H819 0.959 . S
C813 H820 0.961 . S
C813 H821 0.960 . S
C814 C812 1.381 . S
C814 C815 1.394 . S
C814 H822 0.930 . S
C815 C814 1.394 . S
C815 C816 1.383 . S
C815 H823 0.929 . S
C816 C815 1.383 . S
C816 C817 1.377 . S
C817 H801 0.930 1_556 S
C817 C816 1.377 . S
C817 C818 1.379 1_556 S
C818 H802 0.931 . S
C818 C812 1.383 1_554 S
C818 C817 1.379 1_554 S
H819 C813 0.959 . S
H820 C813 0.961 . S
H821 C813 0.960 . S
H822 C814 0.930 . S
H823 C815 0.929 . S
H824 C832 0.939 . S
H825 C834 0.930 . S
H826 C836 0.930 . S
H827 C839 0.929 . S
H828 C842 0.930 . S
H829 C844 0.960 . S
H830 C844 0.960 . S
H831 C844 0.960 . S
C832 H824 0.939 . S
C832 C833 1.377 . S
C832 C834 1.384 . S
C833 C832 1.377 . S
C833 C839 1.390 . S
C834 H825 0.930 . S
C834 C832 1.384 . S
C834 C835 1.372 . S
C835 C834 1.372 . S
C835 C836 1.400 . S
C835 C840 1.490 . S
C836 H826 0.930 . S
C836 C835 1.400 . S
C836 C839 1.386 . S
H837 C853 0.930 . S
H838 C854 0.931 . S
C839 H827 0.929 . S
C839 C833 1.390 . S
C839 C836 1.386 . S
C840 C835 1.490 . S
C840 C842 1.395 . S
C840 C843 1.403 1_455 S
H841 C847 0.930 . S
C842 H828 0.930 . S
C842 C840 1.395 . S
C842 C845 1.403 . S
C843 C840 1.403 1_655 S
C843 C844 1.524 . S
C843 C847 1.400 . S
C844 H829 0.960 . S
C844 H830 0.960 . S
C844 H831 0.960 . S
C844 C843 1.524 . S
C845 C842 1.403 . S
C845 C846 1.392 . S
C845 C849 1.495 . S
C846 C845 1.392 . S
C846 C847 1.385 1_455 S
C846 C848 1.478 . S
C847 H841 0.930 . S
C847 C843 1.400 . S
C847 C846 1.385 1_655 S
C848 C846 1.478 . S
C848 C850 1.381 . S
C848 C854 1.383 . S
C849 C845 1.495 . S
C849 H855 0.959 . S
C849 H856 0.961 . S
C849 H857 0.960 . S
C850 C848 1.381 . S
C850 C851 1.394 . S
C850 H858 0.930 . S
C851 C850 1.394 . S
C851 C852 1.383 . S
C851 H859 0.929 . S
C852 C851 1.383 . S
C852 C853 1.377 . S
C853 H837 0.930 . S
C853 C852 1.377 . S
C853 C854 1.379 . S
C854 H838 0.931 . S
C854 C848 1.383 . S
C854 C853 1.379 . S
H855 C849 0.959 . S
H856 C849 0.961 . S
H857 C849 0.960 . S
H858 C850 0.930 . S
H859 C851 0.929 . S
H860 C868 0.929 . S
H861 C870 0.930 . S
H862 C872 0.930 . S
H863 C875 0.929 . S
H864 C878 0.930 . S
H865 C880 0.960 . S
H866 C880 0.960 . S
H867 C880 0.960 . S
C868 H860 0.929 . S
C868 C869 1.377 . S
C868 C870 1.384 . S
C869 C868 1.377 . S
C869 C875 1.390 1_545 S
C870 H861 0.930 . S
C870 C868 1.384 . S
C870 C871 1.372 . S
C871 C870 1.372 . S
C871 C872 1.400 1_545 S
C871 C876 1.490 . S
C872 H862 0.930 . S
C872 C871 1.400 1_565 S
C872 C875 1.386 . S
H873 C889 0.930 . S
H874 C890 0.931 . S
C875 H863 0.929 . S
C875 C869 1.390 1_565 S
C875 C872 1.386 . S
C876 C871 1.490 . S
C876 C878 1.395 . S
C876 C879 1.403 1_545 S
H877 C883 0.930 . S
C878 H864 0.930 . S
C878 C876 1.395 . S
C878 C881 1.403 . S
C879 C876 1.403 1_565 S
C879 C880 1.524 . S
C879 C883 1.400 . S
C880 H865 0.960 . S
C880 H866 0.960 . S
C880 H867 0.960 . S
C880 C879 1.524 . S
C881 C878 1.403 . S
C881 C882 1.392 . S
C881 C885 1.495 . S
C882 C881 1.392 . S
C882 C883 1.385 1_545 S
C882 C884 1.478 . S
C883 H877 0.930 . S
C883 C879 1.400 . S
C883 C882 1.385 1_565 S
C884 C882 1.478 . S
C884 C886 1.381 . S
C884 C890 1.383 1_545 S
C885 C881 1.495 . S
C885 H891 0.959 . S
C885 H892 0.961 . S
C885 H893 0.960 . S
C886 C884 1.381 . S
C886 C887 1.394 . S
C886 H894 0.930 . S
C887 C886 1.394 . S
C887 C888 1.383 . S
C887 H895 0.929 . S
C888 C887 1.383 . S
C888 C889 1.377 1_545 S
C889 H873 0.930 . S
C889 C888 1.377 1_565 S
C889 C890 1.379 . S
C890 H874 0.931 . S
C890 C884 1.383 1_565 S
C890 C889 1.379 . S
H891 C885 0.959 . S
H892 C885 0.961 . S
H893 C885 0.960 . S
H894 C886 0.930 . S
H895 C887 0.929 . S
H896 C904 0.929 . S
H897 C906 0.930 . S
H898 C908 0.930 . S
H899 C911 0.929 . S
H900 C914 0.930 . S
H901 C916 0.960 . S
H902 C916 0.960 . S
H903 C916 0.960 . S
C904 H896 0.929 . S
C904 C905 1.377 . S
C904 C906 1.384 . S
C905 C904 1.377 . S
C905 C911 1.390 . S
C906 H897 0.930 . S
C906 C904 1.384 . S
C906 C907 1.372 . S
C907 C906 1.372 . S
C907 C908 1.400 . S
C907 C912 1.490 . S
C908 H898 0.930 . S
C908 C907 1.400 . S
C908 C911 1.386 . S
H909 C925 0.930 . S
H910 C926 0.931 . S
C911 H899 0.929 . S
C911 C905 1.390 . S
C911 C908 1.386 . S
C912 C907 1.490 . S
C912 C914 1.395 . S
C912 C915 1.403 . S
H913 C919 0.930 . S
C914 H900 0.930 . S
C914 C912 1.395 . S
C914 C917 1.403 . S
C915 C912 1.403 . S
C915 C916 1.524 . S
C915 C919 1.400 . S
C916 H901 0.960 . S
C916 H902 0.960 . S
C916 H903 0.960 . S
C916 C915 1.524 . S
C917 C914 1.403 . S
C917 C918 1.392 . S
C917 C921 1.495 . S
C918 C917 1.392 . S
C918 C919 1.385 . S
C918 C920 1.478 . S
C919 H913 0.930 . S
C919 C915 1.400 . S
C919 C918 1.385 . S
C920 C918 1.478 . S
C920 C922 1.381 . S
C920 C926 1.383 . S
C921 C917 1.495 . S
C921 H927 0.959 . S
C921 H928 0.961 . S
C921 H929 0.960 . S
C922 C920 1.381 . S
C922 C923 1.394 . S
C922 H930 0.930 . S
C923 C922 1.394 . S
C923 C924 1.383 . S
C923 H931 0.929 . S
C924 C923 1.383 . S
C924 C925 1.377 . S
C925 H909 0.930 . S
C925 C924 1.377 . S
C925 C926 1.379 . S
C926 H910 0.931 . S
C926 C920 1.383 . S
C926 C925 1.379 . S
H927 C921 0.959 . S
H928 C921 0.961 . S
H929 C921 0.960 . S
H930 C922 0.930 . S
H931 C923 0.929 . S
H932 C940 0.929 . S
H933 C942 0.930 . S
H934 C944 0.930 . S
H935 C947 0.929 . S
H936 C950 0.930 . S
H937 C952 0.960 . S
H938 C952 0.960 . S
H939 C952 0.960 . S
C940 H932 0.929 . S
C940 C941 1.377 . S
C940 C942 1.384 . S
C941 C940 1.377 . S
C941 C947 1.390 . S
C942 H933 0.930 . S
C942 C940 1.384 . S
C942 C943 1.372 . S
C943 C942 1.372 . S
C943 C944 1.400 . S
C943 C948 1.490 . S
C944 H934 0.930 . S
C944 C943 1.400 . S
C944 C947 1.386 . S
H945 C961 0.930 . S
H946 C962 0.931 . S
C947 H935 0.929 . S
C947 C941 1.390 . S
C947 C944 1.386 . S
C948 C943 1.490 . S
C948 C950 1.395 . S
C948 C951 1.403 . S
H949 C955 0.930 . S
C950 H936 0.930 . S
C950 C948 1.395 . S
C950 C953 1.403 . S
C951 C948 1.403 . S
C951 C952 1.524 . S
C951 C955 1.400 . S
C952 H937 0.960 . S
C952 H938 0.960 . S
C952 H939 0.960 . S
C952 C951 1.524 . S
C953 C950 1.403 . S
C953 C954 1.392 . S
C953 C957 1.495 . S
C954 C953 1.392 . S
C954 C955 1.385 . S
C954 C956 1.478 . S
C955 H949 0.930 . S
C955 C951 1.400 . S
C955 C954 1.385 . S
C956 C954 1.478 . S
C956 C958 1.381 . S
C956 C962 1.383 . S
C957 C953 1.495 . S
C957 H963 0.959 . S
C957 H964 0.961 . S
C957 H965 0.960 . S
C958 C956 1.381 . S
C958 C959 1.394 . S
C958 H966 0.930 . S
C959 C958 1.394 . S
C959 C960 1.383 . S
C959 H967 0.929 . S
C960 C959 1.383 . S
C960 C961 1.377 . S
C961 H945 0.930 . S
C961 C960 1.377 . S
C961 C962 1.379 . S
C962 H946 0.931 . S
C962 C956 1.383 . S
C962 C961 1.379 . S
H963 C957 0.959 . S
H964 C957 0.961 . S
H965 C957 0.960 . S
H966 C958 0.930 . S
H967 C959 0.929 . S
H968 C976 0.929 . S
H969 C978 0.930 . S
H970 C980 0.930 . S
H971 C983 0.929 . S
H972 C986 0.930 . S
H973 C988 0.960 . S
H974 C988 0.960 . S
H975 C988 0.960 . S
C976 H968 0.929 . S
C976 C977 1.377 1_455 S
C976 C978 1.384 . S
C977 C976 1.377 1_655 S
C977 C983 1.390 . S
C978 H969 0.930 . S
C978 C976 1.384 . S
C978 C979 1.372 1_455 S
C979 C978 1.372 1_655 S
C979 C980 1.400 . S
C979 C984 1.490 . S
C980 H970 0.930 . S
C980 C979 1.400 . S
C980 C983 1.386 . S
H981 C997 0.930 . S
H982 C998 0.931 . S
C983 H971 0.929 . S
C983 C977 1.390 . S
C983 C980 1.386 . S
C984 C979 1.490 . S
C984 C986 1.395 1_655 S
C984 C987 1.403 . S
H985 C991 0.930 . S
C986 H972 0.930 . S
C986 C984 1.395 1_455 S
C986 C989 1.403 . S
C987 C984 1.403 . S
C987 C988 1.524 . S
C987 C991 1.400 . S
C988 H973 0.960 . S
C988 H974 0.960 . S
C988 H975 0.960 . S
C988 C987 1.524 . S
C989 C986 1.403 . S
C989 C990 1.392 1_455 S
C989 C993 1.495 . S
C990 C989 1.392 1_655 S
C990 C991 1.385 . S
C990 C992 1.478 . S
C991 H985 0.930 . S
C991 C987 1.400 . S
C991 C990 1.385 . S
C992 C990 1.478 . S
C992 C994 1.381 1_655 S
C992 C998 1.383 . S
C993 C989 1.495 . S
C993 H999 0.959 . S
C993 H1000 0.961 . S
C993 H1001 0.960 . S
C994 C992 1.381 1_455 S
C994 C995 1.394 . S
C994 H1002 0.930 . S
C995 C994 1.394 . S
C995 C996 1.383 1_455 S
C995 H1003 0.929 . S
C996 C995 1.383 1_655 S
C996 C997 1.377 . S
C997 H981 0.930 . S
C997 C996 1.377 . S
C997 C998 1.379 . S
C998 H982 0.931 . S
C998 C992 1.383 . S
C998 C997 1.379 . S
H999 C993 0.959 . S
H1000 C993 0.961 . S
H1001 C993 0.960 . S
H1002 C994 0.930 . S
H1003 C995 0.929 . S
H1004 C1012 0.929 . S
H1005 C1014 0.930 . S
H1006 C1016 0.930 . S
H1007 C1019 0.929 . S
H1008 C1022 0.930 . S
H1009 C1024 0.960 . S
H1010 C1024 0.960 . S
H1011 C1024 0.960 1_565 S
C1012 H1004 0.929 . S
C1012 C1013 1.377 1_545 S
C1012 C1014 1.384 . S
C1013 C1012 1.377 1_565 S
C1013 C1019 1.390 . S
C1014 H1005 0.930 . S
C1014 C1012 1.384 . S
C1014 C1015 1.372 1_545 S
C1015 C1014 1.372 1_565 S
C1015 C1016 1.400 . S
C1015 C1020 1.490 . S
C1016 H1006 0.930 . S
C1016 C1015 1.400 . S
C1016 C1019 1.386 . S
H1017 C1033 0.930 . S
H1018 C1034 0.931 . S
C1019 H1007 0.929 . S
C1019 C1013 1.390 . S
C1019 C1016 1.386 . S
C1020 C1015 1.490 . S
C1020 C1022 1.395 . S
C1020 C1023 1.403 . S
H1021 C1027 0.930 . S
C1022 H1008 0.930 . S
C1022 C1020 1.395 . S
C1022 C1025 1.403 . S
C1023 C1020 1.403 . S
C1023 C1024 1.524 1_565 S
C1023 C1027 1.400 . S
C1024 H1009 0.960 . S
C1024 H1010 0.960 . S
C1024 H1011 0.960 1_545 S
C1024 C1023 1.524 1_545 S
C1025 C1022 1.403 . S
C1025 C1026 1.392 . S
C1025 C1029 1.495 . S
C1026 C1025 1.392 . S
C1026 C1027 1.385 . S
C1026 C1028 1.478 . S
C1027 H1021 0.930 . S
C1027 C1023 1.400 . S
C1027 C1026 1.385 . S
C1028 C1026 1.478 . S
C1028 C1030 1.381 1_565 S
C1028 C1034 1.383 . S
C1029 C1025 1.495 . S
C1029 H1035 0.959 . S
C1029 H1036 0.961 . S
C1029 H1037 0.999 . S
C1030 C1028 1.381 1_545 S
C1030 C1031 1.394 . S
C1030 H1038 0.930 . S
C1031 C1030 1.394 . S
C1031 C1032 1.383 1_545 S
C1031 H1039 0.929 . S
C1032 C1031 1.383 1_565 S
C1032 C1033 1.377 . S
C1033 H1017 0.930 . S
C1033 C1032 1.377 . S
C1033 C1034 1.379 . S
C1034 H1018 0.931 . S
C1034 C1028 1.383 . S
C1034 C1033 1.379 . S
H1035 C1029 0.959 . S
H1036 C1029 0.961 . S
H1037 C1029 0.999 . S
H1038 C1030 0.930 . S
H1039 C1031 0.929 . S
H1040 C1048 0.929 . S
H1041 C1050 0.930 . S
H1042 C1052 0.930 . S
H1043 C1055 0.929 . S
H1044 C1058 0.930 . S
H1045 C1060 0.960 . S
H1046 C1060 0.960 . S
H1047 C1060 0.960 . S
C1048 H1040 0.929 . S
C1048 C1049 1.377 . S
C1048 C1050 1.384 . S
C1049 C1048 1.377 . S
C1049 C1055 1.390 . S
C1050 H1041 0.930 . S
C1050 C1048 1.384 . S
C1050 C1051 1.372 . S
C1051 C1050 1.372 . S
C1051 C1052 1.400 . S
C1051 C1056 1.490 . S
C1052 H1042 0.930 . S
C1052 C1051 1.400 . S
C1052 C1055 1.386 . S
H1053 C1069 0.930 . S
H1054 C1070 0.931 . S
C1055 H1043 0.929 . S
C1055 C1049 1.390 . S
C1055 C1052 1.386 . S
C1056 C1051 1.490 . S
C1056 C1058 1.395 . S
C1056 C1059 1.403 . S
H1057 C1063 0.930 . S
C1058 H1044 0.930 . S
C1058 C1056 1.395 . S
C1058 C1061 1.403 . S
C1059 C1056 1.403 . S
C1059 C1060 1.524 . S
C1059 C1063 1.400 . S
C1060 H1045 0.960 . S
C1060 H1046 0.960 . S
C1060 H1047 0.960 . S
C1060 C1059 1.524 . S
C1061 C1058 1.403 . S
C1061 C1062 1.392 . S
C1061 C1065 1.495 . S
C1062 C1061 1.392 . S
C1062 C1063 1.385 . S
C1062 C1064 1.478 . S
C1063 H1057 0.930 . S
C1063 C1059 1.400 . S
C1063 C1062 1.385 . S
C1064 C1062 1.478 . S
C1064 C1066 1.381 . S
C1064 C1070 1.383 . S
C1065 C1061 1.495 . S
C1065 H1071 0.959 . S
C1065 H1072 0.961 . S
C1065 H1073 0.960 . S
C1066 C1064 1.381 . S
C1066 C1067 1.394 . S
C1066 H1074 0.930 . S
C1067 C1066 1.394 . S
C1067 C1068 1.383 . S
C1067 H1075 0.929 . S
C1068 C1067 1.383 . S
C1068 C1069 1.377 . S
C1069 H1053 0.930 . S
C1069 C1068 1.377 . S
C1069 C1070 1.379 . S
C1070 H1054 0.931 . S
C1070 C1064 1.383 . S
C1070 C1069 1.379 . S
H1071 C1065 0.959 . S
H1072 C1065 0.961 . S
H1073 C1065 0.960 . S
H1074 C1066 0.930 . S
H1075 C1067 0.929 . S
H1076 C1084 0.929 . S
H1077 C1086 0.930 . S
H1078 C1088 0.930 . S
H1079 C1091 0.929 . S
H1080 C1094 0.930 . S
H1081 C1096 0.960 . S
H1082 C1096 0.960 . S
H1083 C1096 0.960 . S
C1084 H1076 0.929 . S
C1084 C1085 1.377 . S
C1084 C1086 1.384 . S
C1085 C1084 1.377 . S
C1085 C1091 1.390 . S
C1086 H1077 0.930 . S
C1086 C1084 1.384 . S
C1086 C1087 1.372 . S
C1087 C1086 1.372 . S
C1087 C1088 1.400 . S
C1087 C1092 1.490 . S
C1088 H1078 0.930 . S
C1088 C1087 1.400 . S
C1088 C1091 1.386 . S
H1089 C1105 0.930 . S
H1090 C1106 0.931 . S
C1091 H1079 0.929 . S
C1091 C1085 1.390 . S
C1091 C1088 1.386 . S
C1092 C1087 1.490 . S
C1092 C1094 1.395 . S
C1092 C1095 1.403 . S
H1093 C1099 0.930 . S
C1094 H1080 0.930 . S
C1094 C1092 1.395 . S
C1094 C1097 1.403 . S
C1095 C1092 1.403 . S
C1095 C1096 1.524 . S
C1095 C1099 1.400 . S
C1096 H1081 0.960 . S
C1096 H1082 0.960 . S
C1096 H1083 0.960 . S
C1096 C1095 1.524 . S
C1097 C1094 1.403 . S
C1097 C1098 1.392 . S
C1097 C1101 1.495 . S
C1098 C1097 1.392 . S
C1098 C1099 1.385 . S
C1098 C1100 1.478 . S
C1099 H1093 0.930 . S
C1099 C1095 1.400 . S
C1099 C1098 1.385 . S
C1100 C1098 1.478 . S
C1100 C1102 1.381 . S
C1100 C1106 1.383 . S
C1101 C1097 1.495 . S
C1101 H1107 0.959 . S
C1101 H1108 0.961 . S
C1101 H1109 0.960 . S
C1102 C1100 1.381 . S
C1102 C1103 1.394 . S
C1102 H1110 0.930 . S
C1103 C1102 1.394 . S
C1103 C1104 1.383 . S
C1103 H1111 0.929 . S
C1104 C1103 1.383 . S
C1104 C1105 1.377 . S
C1105 H1089 0.930 . S
C1105 C1104 1.377 . S
C1105 C1106 1.379 . S
C1106 H1090 0.931 . S
C1106 C1100 1.383 . S
C1106 C1105 1.379 . S
H1107 C1101 0.959 . S
H1108 C1101 0.961 . S
H1109 C1101 0.960 . S
H1110 C1102 0.930 . S
H1111 C1103 0.929 . S
C257 C74 1.662 . S
C276 C97 1.724 1_545 S
C312 C137 1.726 . S
C293 C85 1.661 . S
C348 C177 1.722 . S
C329 C52 1.662 . S
C384 C217 1.725 . S
C365 C63 1.665 . S
C420 C106 1.719 1_565 S
C401 C30 1.659 1_565 S
C437 C41 1.663 . S
C456 C146 1.727 . S
C473 C8 1.662 . S
C492 C186 1.726 . S
C509 C19 1.656 1_655 S
C528 C226 1.723 . S
C564 C103 0.379 . S
C545 C62 0.413 . S
C600 C143 0.371 . S
C581 C73 0.413 . S
C636 C183 0.373 . S
C617 C84 0.412 . S
C653 C51 0.403 . S
C672 C223 0.429 . S
C689 C18 0.460 1_655 S
C708 C94 0.376 . S
C744 C134 0.424 . S
C725 C29 0.487 1_565 S
C780 C174 0.474 . S
C761 C40 0.490 . S
C797 C7 0.459 . S
C816 C214 0.377 . S
C833 C60 1.581 . S
C852 C107 2.030 . S
C869 C71 1.572 . S
C888 C147 2.023 . S
C924 C187 2.030 . S
C905 C82 1.578 . S
C960 C227 2.011 . S
C941 C49 1.563 . S
C977 C16 1.612 1_655 S
C996 C98 2.004 . S
C1032 C138 2.018 . S
C1013 C27 1.600 1_565 S
C1068 C178 2.030 . S
C1049 C38 1.596 . S
C1085 C5 1.603 . S
C1104 C218 2.014 . S
