# Generated by pormake.
# Topology pth, (4,4)-cn, num edge types: 1
# Building blocks:
#     Node 0, Type 0, BuildingBlock: NAHDIM_clean_sbu_0, # of connection points: 4
#     Node 1, Type 0, BuildingBlock: NAHDIM_clean_sbu_0, # of connection points: 4
#     Node 2, Type 0, BuildingBlock: NAHDIM_clean_sbu_0, # of connection points: 4
#     Node 3, Type 1, BuildingBlock: MUDLON_clean_sbu_0, # of connection points: 4
#     Node 4, Type 1, BuildingBlock: MUDLON_clean_sbu_0, # of connection points: 4
#     Node 5, Type 1, BuildingBlock: MUDLON_clean_sbu_0, # of connection points: 4
#     Edge 6, Type (0, 1), BuildingBlock: EZIPEK_clean_linker_0, # of connection points: 2
#     Edge 7, Type (0, 1), BuildingBlock: EZIPEK_clean_linker_0, # of connection points: 2
#     Edge 8, Type (0, 1), BuildingBlock: EZIPEK_clean_linker_0, # of connection points: 2
#     Edge 9, Type (0, 1), BuildingBlock: EZIPEK_clean_linker_0, # of connection points: 2
#     Edge 10, Type (0, 1), BuildingBlock: EZIPEK_clean_linker_0, # of connection points: 2
#     Edge 11, Type (0, 1), BuildingBlock: EZIPEK_clean_linker_0, # of connection points: 2
#     Edge 12, Type (0, 1), BuildingBlock: EZIPEK_clean_linker_0, # of connection points: 2
#     Edge 13, Type (0, 1), BuildingBlock: EZIPEK_clean_linker_0, # of connection points: 2
#     Edge 14, Type (0, 1), BuildingBlock: EZIPEK_clean_linker_0, # of connection points: 2
#     Edge 15, Type (0, 1), BuildingBlock: EZIPEK_clean_linker_0, # of connection points: 2
#     Edge 16, Type (0, 1), BuildingBlock: EZIPEK_clean_linker_0, # of connection points: 2
#     Edge 17, Type (0, 1), BuildingBlock: EZIPEK_clean_linker_0, # of connection points: 2
# Relax obj value: 0.076
# Max RMSD: 0.190
# Mean RMSD: 0.122
data_MOF--net-pth--node1-NAHDIM_clean_sbu_0--node2-MUDLON_clean_sbu_0--edge1-EZIPEK_clean_linker_0
_symmetry_space_group_name_H-M    P1
_symmetry_Int_Tables_number       1
_symmetry_cell_setting            triclinic
loop_
_symmetry_equiv_pos_as_xyz
'x, y, z'
_cell_length_a     16.686817
_cell_length_b     16.866286
_cell_length_c     43.714717
_cell_angle_alpha  92.40943
_cell_angle_beta   89.944827
_cell_angle_gamma 120.73625
loop_
_atom_site_label
_atom_site_type_symbol
_atom_site_fract_x
_atom_site_fract_y
_atom_site_fract_z
_atom_type_partial_charge
C0 C 0.1231 0.02257 0.13102 0.0
O1 O 0.13263 0.09571 0.14631 0.0
O2 O 0.08256 0.19643 0.10652 0.0
Zn3 Zn 0.10252 0.11086 0.07811 0.0
O4 O 0.9917 0.0445 0.04879 0.0
C5 C 0.21939 0.22979 0.03223 0.0
O6 O 0.14128 0.22594 0.02464 0.0
O7 O 0.1126 0.01606 0.10203 0.0
C8 C 0.99297 0.99305 0.02698 0.0
O9 O 0.06757 0.9866 0.02323 0.0
C10 C 1.00488 0.17107 0.11911 0.0
O11 O 0.93411 0.08702 0.11346 0.0
O12 O 0.22093 0.18561 0.05483 0.0
C13 C 0.05966 0.22205 0.37071 0.0
O14 O 1.0006 0.14024 0.35815 0.0
O15 O 0.01777 0.00675 0.38804 0.0
Zn16 Zn 0.05567 0.11149 0.41962 0.0
O17 O 0.94887 0.08424 0.44748 0.0
C18 C 0.24446 0.20118 0.4471 0.0
O19 O 0.26025 0.27336 0.43204 0.0
O20 O 0.09384 0.2282 0.39729 0.0
C21 C 0.91062 0.01279 0.46326 0.0
O22 O 0.93965 0.95364 0.46123 0.0
C23 C 0.03793 0.94418 0.39072 0.0
O24 O 0.07872 0.94172 0.41604 0.0
O25 O 0.16467 0.12779 0.44509 0.0
C26 C 0.09623 0.98247 0.68734 0.0
O27 O 0.01289 0.90989 0.69048 0.0
O28 O 0.9429 0.0861 0.70904 0.0
Zn29 Zn 0.03417 0.06691 0.73339 0.0
O30 O 0.10829 0.17616 0.76327 0.0
C31 C 0.92372 0.94893 0.7809 0.0
O32 O 0.93021 0.02607 0.79154 0.0
O33 O 0.12093 0.05616 0.70354 0.0
C34 C 0.16139 0.17335 0.78345 0.0
O35 O 0.16605 0.09825 0.78519 0.0
C36 C 0.93569 0.15763 0.7118 0.0
O37 O 0.9889 0.2245 0.73187 0.0
O38 O 0.96297 0.94866 0.75601 0.0
Mg39 Mg 0.05587 0.59312 0.24701 0.0
C40 C 0.07387 0.49097 0.29366 0.0
O41 O 0.98582 0.4675 0.29186 0.0
C42 C 0.07223 0.72955 0.20666 0.0
O43 O 0.98481 0.68293 0.21491 0.0
C44 C 0.03471 0.45696 0.20182 0.0
O45 O 0.12463 0.51459 0.20604 0.0
O46 O 0.97766 0.472 0.21661 0.0
O47 O 0.13205 0.55278 0.27653 0.0
O48 O 0.98433 0.63786 0.2785 0.0
C49 C 0.04537 0.70898 0.29398 0.0
O50 O 0.13397 0.74114 0.28859 0.0
O51 O 0.12901 0.70743 0.21708 0.0
Mg52 Mg 0.54914 0.09528 0.57537 0.0
C53 C 0.52261 0.18495 0.52121 0.0
O54 O 0.58314 0.16555 0.5092 0.0
C55 C 0.65648 0.16487 0.63523 0.0
O56 O 0.57301 0.1389 0.6455 0.0
C57 C 0.34981 0.99537 0.59436 0.0
O58 O 0.33727 0.00716 0.56561 0.0
O59 O 0.42984 0.01318 0.6035 0.0
O60 O 0.50632 0.17518 0.54961 0.0
O61 O 0.59364 0.02714 0.54226 0.0
C62 C 0.64147 0.99266 0.55094 0.0
O63 O 0.64585 0.97955 0.58016 0.0
O64 O 0.66881 0.16664 0.60654 0.0
Mg65 Mg 0.58407 0.57755 0.90529 0.0
C66 C 0.4294 0.44629 0.86682 0.0
O67 O 0.4768 0.40673 0.87393 0.0
C68 C 0.71635 0.73234 0.9437 0.0
O69 O 0.75719 0.68629 0.93512 0.0
C70 C 0.54527 0.47462 0.96412 0.0
O71 O 0.60593 0.55637 0.97627 0.0
O72 O 0.5382 0.46209 0.93515 0.0
O73 O 0.45816 0.52846 0.87715 0.0
O74 O 0.70151 0.62161 0.87465 0.0
C75 C 0.68932 0.61728 0.8458 0.0
O76 O 0.60674 0.55842 0.83377 0.0
O77 O 0.63299 0.70272 0.93442 0.0
C78 C 1.00772 0.31997 0.12771 0.0
C79 C 0.9946 0.23735 0.13965 0.0
C80 C 0.97586 0.28917 0.1911 0.0
C81 C 1.00361 0.37699 0.17987 0.0
N82 N 0.04694 0.47844 0.13798 0.0
N83 N 0.97042 0.14334 0.18278 0.0
C84 C 0.01891 0.39277 0.14822 0.0
C85 C 0.97801 0.22104 0.1713 0.0
N86 N 1.00736 0.32775 0.09669 0.0
N87 N 0.94903 0.27165 0.22079 0.0
H88 H 0.97125 0.09164 0.16911 0.0
H89 H 0.96968 0.13258 0.20607 0.0
H90 H 0.94892 0.3209 0.23601 0.0
H91 H 0.91968 0.20657 0.22972 0.0
H92 H 1.0078 0.38247 0.08638 0.0
H93 H 0.99809 0.27508 0.08105 0.0
H94 H 0.07086 0.49832 0.11601 0.0
H95 H 0.05038 0.53163 0.15208 0.0
C96 C 0.74721 0.93212 0.48286 0.0
C97 C 0.84225 1.00288 0.48673 0.0
C98 C 0.80701 0.05986 0.53451 0.0
C99 C 0.7108 0.99239 0.52969 0.0
N100 N 0.587 0.86837 0.499 0.0
N101 N 0.96498 0.13393 0.51552 0.0
C102 C 0.68031 0.92938 0.50381 0.0
C103 C 0.87283 0.06635 0.51249 0.0
N104 N 0.72128 0.86734 0.45922 0.0
N105 N 0.83532 0.11832 0.56008 0.0
H106 H 0.0165 0.13645 0.50137 0.0
H107 H 0.99134 0.18969 0.53136 0.0
H108 H 0.78952 0.12304 0.57519 0.0
H109 H 0.90446 0.16096 0.56725 0.0
H110 H 0.65556 0.80831 0.45667 0.0
H111 H 0.7675 0.86966 0.44271 0.0
H112 H 0.55815 0.82741 0.47902 0.0
H113 H 0.53681 0.86141 0.51465 0.0
C114 C 0.90168 0.80805 0.80683 0.0
C115 C 0.86424 0.86172 0.79654 0.0
C116 C 0.7175 0.76059 0.8216 0.0
C117 C 0.75087 0.70118 0.82899 0.0
N118 N 0.87049 0.66184 0.826 0.0
N119 N 0.7293 0.87611 0.78812 0.0
C120 C 0.84189 0.72301 0.82083 0.0
C121 C 0.77008 0.83429 0.80222 0.0
N122 N 0.99495 0.84024 0.80451 0.0
N123 N 0.63747 0.74941 0.83419 0.0
H124 H 0.76435 0.92852 0.77292 0.0
H125 H 0.65811 0.85211 0.78892 0.0
H126 H 0.59799 0.6984 0.84945 0.0
H127 H 0.61564 0.79687 0.8321 0.0
H128 H 0.02807 0.80919 0.81445 0.0
H129 H 0.04105 0.90258 0.79482 0.0
H130 H 0.9322 0.66891 0.81769 0.0
H131 H 0.82886 0.60008 0.83675 0.0
C132 C 0.18708 0.96472 0.17087 0.0
C133 C 0.11864 0.94565 0.14784 0.0
C134 C 0.04239 0.78123 0.15772 0.0
C135 C 0.0995 0.80258 0.18435 0.0
N136 N 0.22184 0.91769 0.21823 0.0
N137 N 0.97036 0.83557 0.12316 0.0
C138 C 0.17155 0.89504 0.19136 0.0
C139 C 0.0438 0.85368 0.14198 0.0
N140 N 0.26798 0.04852 0.1727 0.0
N141 N 0.98703 0.6914 0.14732 0.0
H142 H 0.96447 0.88658 0.11255 0.0
H143 H 0.91002 0.77072 0.12075 0.0
H144 H 0.98595 0.63664 0.15796 0.0
H145 H 0.95054 0.67255 0.12641 0.0
H146 H 0.32391 0.06307 0.18718 0.0
H147 H 0.28315 0.1001 0.15746 0.0
H148 H 0.26714 0.98568 0.22608 0.0
H149 H 0.21317 0.86923 0.2339 0.0
C150 C 0.36822 0.26917 0.48918 0.0
C151 C 0.32093 0.2024 0.46479 0.0
C152 C 0.40213 0.12209 0.47859 0.0
C153 C 0.45628 0.19358 0.50103 0.0
N154 N 0.50181 0.34315 0.52436 0.0
N155 N 0.31117 0.07987 0.43143 0.0
C156 C 0.44262 0.26967 0.50533 0.0
C157 C 0.34351 0.1333 0.45801 0.0
N158 N 0.3393 0.32913 0.49793 0.0
N159 N 0.40173 0.04075 0.47803 0.0
H160 H 0.27062 0.08808 0.41515 0.0
H161 H 0.33307 0.03458 0.42403 0.0
H162 H 0.43913 0.02649 0.49372 0.0
H163 H 0.35594 0.9833 0.46413 0.0
H164 H 0.36446 0.37248 0.51761 0.0
H165 H 0.2842 0.33002 0.48707 0.0
H166 H 0.50129 0.40465 0.52606 0.0
H167 H 0.55707 0.34573 0.53644 0.0
C168 C 0.20392 0.23958 0.8373 0.0
C169 C 0.21656 0.25298 0.80543 0.0
C170 C 0.34414 0.4123 0.81651 0.0
C171 C 0.34348 0.3919 0.84762 0.0
N172 N 0.26992 0.29048 0.88882 0.0
N173 N 0.30046 0.35128 0.76413 0.0
C174 C 0.27149 0.30712 0.85841 0.0
C175 C 0.28579 0.33988 0.79482 0.0
N176 N 0.12651 0.16293 0.84729 0.0
N177 N 0.40147 0.50038 0.80771 0.0
H178 H 0.26035 0.3 0.74742 0.0
H179 H 0.35686 0.40912 0.75518 0.0
H180 H 0.44408 0.55457 0.82322 0.0
H181 H 0.39967 0.5217 0.78584 0.0
H182 H 0.1086 0.15269 0.87019 0.0
H183 H 0.07532 0.11281 0.83235 0.0
H184 H 0.22731 0.22616 0.8978 0.0
H185 H 0.31431 0.34133 0.90509 0.0
C186 C 0.77015 0.08952 0.6935 0.0
C187 C 0.86411 0.16305 0.69334 0.0
C188 C 0.81895 0.24457 0.65832 0.0
C189 C 0.72771 0.16607 0.65582 0.0
N190 N 0.62409 1.00442 0.66514 0.0
N191 N 0.98161 0.30415 0.6715 0.0
C192 C 0.70518 0.0859 0.67182 0.0
C193 C 0.88967 0.23928 0.67474 0.0
N194 N 0.74189 0.02452 0.71503 0.0
N195 N 0.83758 0.32466 0.64555 0.0
H196 H 0.03568 0.30161 0.68244 0.0
H197 H 1.0048 0.35572 0.65576 0.0
H198 H 0.78739 0.33069 0.63335 0.0
H199 H 0.90008 0.38696 0.6493 0.0
H200 H 0.67218 0.97471 0.71801 0.0
H201 H 0.78662 0.02664 0.73209 0.0
H202 H 0.60943 0.94202 0.67396 0.0
H203 H 0.5761 0.99652 0.64828 0.0
C204 C 0.92417 0.95533 0.97383 0.0
C205 C 0.91167 0.94064 1.00563 0.0
C206 C 0.75067 0.81481 0.99512 0.0
C207 C 0.77046 0.81718 0.96358 0.0
N208 N 0.87132 0.89286 0.92186 0.0
N209 N 0.81374 0.85484 0.04707 0.0
C210 C 0.85548 0.8895 0.9526 0.0
C211 C 0.82433 0.87133 0.01654 0.0
N212 N 1.00119 0.0328 0.96409 0.0
N213 N 0.66197 0.75759 1.00454 0.0
H214 H 0.86589 0.8937 0.06357 0.0
H215 H 0.75565 0.79828 0.05591 0.0
H216 H 0.6069 0.71677 0.98917 0.0
H217 H 0.64105 0.75792 0.02697 0.0
H218 H 0.01098 0.05191 0.94144 0.0
H219 H 0.05199 0.0827 0.9792 0.0
H220 H 0.9358 0.93613 0.9124 0.0
H221 H 0.81956 0.84938 0.90573 0.0
C222 C 0.06686 0.91718 0.33586 0.0
C223 C 0.02525 0.8807 0.3642 0.0
C224 C 0.98026 0.72464 0.34439 0.0
C225 C 0.02055 0.7615 0.31604 0.0
N226 N 0.07496 0.88573 0.28172 0.0
N227 N 0.92243 0.74824 0.39284 0.0
C228 C 0.05452 0.85555 0.3108 0.0
C229 C 0.97553 0.78375 0.36765 0.0
N230 N 0.12394 0.01031 0.33337 0.0
N231 N 0.95082 0.63462 0.34966 0.0
H232 H 0.91633 0.78962 0.41 0.0
H233 H 0.87774 0.67779 0.39531 0.0
H234 H 0.95034 0.58869 0.33284 0.0
H235 H 0.93188 0.60691 0.37113 0.0
H236 H 0.16353 0.03939 0.31415 0.0
H237 H 0.13964 0.05854 0.35147 0.0
H238 H 0.09214 0.95183 0.27596 0.0
H239 H 0.06459 0.8412 0.26286 0.0
C240 C 0.18824 0.91721 0.66252 0.0
C241 C 0.15761 0.98189 0.66286 0.0
C242 C 0.25774 0.05823 0.61983 0.0
C243 C 0.28158 0.98848 0.61746 0.0
N244 N 0.25946 0.84394 0.63362 0.0
N245 N 0.14539 0.09924 0.63705 0.0
C246 C 0.24386 0.91561 0.63799 0.0
C247 C 0.18706 0.04803 0.64009 0.0
N248 N 0.16767 0.86011 0.68626 0.0
N249 N 0.3061 0.13709 0.6041 0.0
H250 H 0.09136 0.09226 0.65087 0.0
H251 H 0.15757 0.14141 0.61877 0.0
H252 H 0.36175 0.15039 0.59009 0.0
H253 H 0.29776 0.19394 0.60761 0.0
H254 H 0.19629 0.8185 0.68897 0.0
H255 H 0.12802 0.85991 0.70475 0.0
H256 H 0.22607 0.7841 0.64583 0.0
H257 H 0.30001 0.84092 0.61594 0.0
C258 C 0.35773 0.25699 1.00085 0.0
C259 C 0.30641 0.29212 0.01625 0.0
C260 C 0.40683 0.44314 0.99517 0.0
C261 C 0.46423 0.41125 0.98237 0.0
N262 N 0.50171 0.29146 0.976 0.0
N263 N 0.29627 0.42405 0.03409 0.0
C264 C 0.44185 0.31908 0.98609 0.0
C265 C 0.33524 0.38685 0.01522 0.0
N266 N 0.32403 0.16406 0.99911 0.0
N267 N 0.41682 0.52493 0.98683 0.0
H268 H 0.24528 0.38576 0.04982 0.0
H269 H 0.32163 0.49476 0.03645 0.0
H270 H 0.46464 0.56639 0.9708 0.0
H271 H 0.37045 0.54649 0.99315 0.0
H272 H 0.35286 0.13333 0.98547 0.0
H273 H 0.26246 0.11649 0.00937 0.0
H274 H 0.49437 0.22816 0.98081 0.0
H275 H 0.5631 0.33505 0.9648 0.0
C276 C 0.06861 0.3747 0.36517 0.0
C277 C 0.08637 0.30549 0.35337 0.0
C278 C 0.1203 0.37402 0.30315 0.0
C279 C 0.10045 0.44167 0.31481 0.0
N280 N 0.08419 0.52405 0.35821 0.0
N281 N 0.15611 0.25582 0.31456 0.0
C282 C 0.08456 0.44795 0.34639 0.0
C283 C 0.12119 0.31072 0.32342 0.0
N284 N 0.03026 0.3672 0.39333 0.0
N285 N 0.13266 0.36655 0.27248 0.0
H286 H 0.15956 0.21027 0.32919 0.0
H287 H 0.19003 0.26203 0.29401 0.0
H288 H 0.13534 0.41333 0.25708 0.0
H289 H 0.13493 0.3111 0.26205 0.0
H290 H 1.00587 0.40972 0.4015 0.0
H291 H 0.01598 0.31412 0.40775 0.0
H292 H 0.08083 0.53701 0.38154 0.0
H293 H 0.09707 0.57894 0.34477 0.0
loop_
_geom_bond_atom_site_label_1
_geom_bond_atom_site_label_2
_geom_bond_distance
_geom_bond_site_symmetry_2
_ccdc_geom_bond_type
C0 O1 1.160 . S
C0 O7 1.185 1_565 S
O1 C0 1.160 . S
O2 Zn3 1.899 . S
O2 C10 1.284 . S
Zn3 O2 1.899 . S
Zn3 O4 2.032 1_445 S
Zn3 O7 2.086 . S
Zn3 O12 1.977 . S
O4 Zn3 2.032 1_665 S
O4 C8 1.278 . S
C5 O6 1.203 . S
C5 O12 1.267 . S
O6 C5 1.203 . S
O7 C0 1.185 1_545 S
O7 Zn3 2.086 . S
C8 O4 1.278 . S
C8 O9 1.211 1_565 S
O9 C8 1.211 1_545 S
C10 O2 1.284 . S
C10 O11 1.273 1_455 S
O11 C10 1.273 1_655 S
O12 Zn3 1.977 . S
O12 C5 1.267 . S
C13 O14 1.160 . S
C13 O20 1.185 . S
O14 C13 1.160 . S
O15 Zn16 1.899 . S
O15 C23 1.284 1_545 S
Zn16 O15 1.899 . S
Zn16 O17 2.032 1_455 S
Zn16 O20 2.086 . S
Zn16 O25 1.977 . S
O17 Zn16 2.032 1_655 S
O17 C21 1.278 . S
C18 O19 1.203 . S
C18 O25 1.267 . S
O19 C18 1.203 . S
O20 C13 1.185 . S
O20 Zn16 2.086 . S
C21 O17 1.278 . S
C21 O22 1.211 . S
O22 C21 1.211 . S
C23 O15 1.284 1_565 S
C23 O24 1.273 1_455 S
O24 C23 1.273 1_655 S
O25 Zn16 1.977 . S
O25 C18 1.267 . S
C26 O27 1.160 . S
C26 O33 1.185 1_545 S
O27 C26 1.160 . S
O28 Zn29 1.899 1_655 S
O28 C36 1.284 . S
Zn29 O28 1.899 1_455 S
Zn29 O30 2.032 . S
Zn29 O33 2.086 1_545 S
Zn29 O38 1.977 1_445 S
O30 Zn29 2.032 . S
O30 C34 1.278 . S
C31 O32 1.203 . S
C31 O38 1.267 . S
O32 C31 1.203 . S
O33 C26 1.185 1_565 S
O33 Zn29 2.086 1_565 S
C34 O30 1.278 . S
C34 O35 1.211 . S
O35 C34 1.211 . S
C36 O28 1.284 . S
C36 O37 1.273 . S
O37 C36 1.273 . S
O38 Zn29 1.977 1_665 S
O38 C31 1.267 . S
Mg39 O46 2.141 . S
Mg39 O47 2.048 . S
Mg39 O48 2.048 . S
Mg39 O51 2.141 . S
C40 O41 1.313 1_455 S
C40 O47 1.195 . S
O41 C40 1.313 1_655 S
C42 O43 1.245 1_455 S
C42 O51 1.289 . S
O43 C42 1.245 1_655 S
C44 O45 1.245 1_455 S
C44 O46 1.289 . S
O45 C44 1.245 1_655 S
O46 Mg39 2.141 . S
O46 C44 1.289 . S
O47 Mg39 2.048 . S
O47 C40 1.195 . S
O48 Mg39 2.048 . S
O48 C49 1.195 . S
C49 O48 1.195 . S
C49 O50 1.313 1_455 S
O50 C49 1.313 1_655 S
O51 Mg39 2.141 . S
O51 C42 1.289 . S
Mg52 O59 2.141 . S
Mg52 O60 2.048 . S
Mg52 O61 2.048 . S
Mg52 O64 2.141 . S
C53 O54 1.313 1_545 S
C53 O60 1.195 . S
O54 C53 1.313 1_565 S
C55 O56 1.245 1_545 S
C55 O64 1.289 . S
O56 C55 1.245 1_565 S
C57 O58 1.245 1_545 S
C57 O59 1.289 . S
O58 C57 1.245 1_565 S
O59 Mg52 2.141 . S
O59 C57 1.289 . S
O60 Mg52 2.048 . S
O60 C53 1.195 . S
O61 Mg52 2.048 . S
O61 C62 1.195 . S
C62 O61 1.195 . S
C62 O63 1.313 1_545 S
O63 C62 1.313 1_565 S
O64 Mg52 2.141 . S
O64 C55 1.289 . S
Mg65 O72 2.141 . S
Mg65 O73 2.048 . S
Mg65 O74 2.048 . S
Mg65 O77 2.141 . S
C66 O67 1.313 . S
C66 O73 1.195 . S
O67 C66 1.313 . S
C68 O69 1.245 . S
C68 O77 1.289 . S
O69 C68 1.245 . S
C70 O71 1.245 . S
C70 O72 1.289 . S
O71 C70 1.245 . S
O72 Mg65 2.141 . S
O72 C70 1.289 . S
O73 Mg65 2.048 . S
O73 C66 1.195 . S
O74 Mg65 2.048 . S
O74 C75 1.195 . S
C75 O74 1.195 . S
C75 O76 1.313 . S
O76 C75 1.313 . S
O77 Mg65 2.141 . S
O77 C68 1.289 . S
C78 C79 1.363 . S
C78 C84 1.379 . S
C78 N86 1.356 . S
C79 C78 1.363 . S
C79 C85 1.363 1_455 S
C80 C81 1.363 1_655 S
C80 C85 1.379 . S
C80 N87 1.356 . S
C81 C80 1.363 1_455 S
C81 C84 1.363 . S
N82 C84 1.356 . S
N82 H94 0.984 . S
N82 H95 0.985 . S
N83 C85 1.356 . S
N83 H88 0.984 . S
N83 H89 0.985 . S
C84 C78 1.379 . S
C84 C81 1.363 . S
C84 N82 1.356 . S
C85 C79 1.363 1_655 S
C85 C80 1.379 . S
C85 N83 1.356 . S
N86 C78 1.356 . S
N86 H92 0.984 . S
N86 H93 0.984 . S
N87 C80 1.356 . S
N87 H90 0.984 . S
N87 H91 0.985 . S
H88 N83 0.984 . S
H89 N83 0.985 . S
H90 N87 0.984 . S
H91 N87 0.985 . S
H92 N86 0.984 . S
H93 N86 0.984 . S
H94 N82 0.984 . S
H95 N82 0.985 . S
C96 C97 1.363 . S
C96 C102 1.379 . S
C96 N104 1.356 1_545 S
C97 C96 1.363 . S
C97 C103 1.363 . S
C98 C99 1.363 . S
C98 C103 1.379 . S
C98 N105 1.356 . S
C99 C98 1.363 . S
C99 C102 1.363 . S
N100 C102 1.356 1_565 S
N100 H112 0.984 . S
N100 H113 0.985 . S
N101 C103 1.356 . S
N101 H106 0.984 1_655 S
N101 H107 0.985 1_655 S
C102 C96 1.379 . S
C102 C99 1.363 . S
C102 N100 1.356 1_545 S
C103 C97 1.363 . S
C103 C98 1.379 . S
C103 N101 1.356 . S
N104 C96 1.356 1_565 S
N104 H110 0.984 . S
N104 H111 0.984 . S
N105 C98 1.356 . S
N105 H108 0.984 . S
N105 H109 0.985 . S
H106 N101 0.984 1_455 S
H107 N101 0.985 1_455 S
H108 N105 0.984 . S
H109 N105 0.985 . S
H110 N104 0.984 . S
H111 N104 0.984 . S
H112 N100 0.984 . S
H113 N100 0.985 . S
C114 C115 1.363 . S
C114 C120 1.379 . S
C114 N122 1.356 . S
C115 C114 1.363 . S
C115 C121 1.363 . S
C116 C117 1.363 . S
C116 C121 1.379 . S
C116 N123 1.356 . S
C117 C116 1.363 . S
C117 C120 1.363 . S
N118 C120 1.356 . S
N118 H130 0.984 . S
N118 H131 0.985 . S
N119 C121 1.356 . S
N119 H124 0.984 . S
N119 H125 0.985 . S
C120 C114 1.379 . S
C120 C117 1.363 . S
C120 N118 1.356 . S
C121 C115 1.363 . S
C121 C116 1.379 . S
C121 N119 1.356 . S
N122 C114 1.356 . S
N122 H128 0.984 . S
N122 H129 0.984 . S
N123 C116 1.356 . S
N123 H126 0.984 . S
N123 H127 0.985 . S
H124 N119 0.984 . S
H125 N119 0.985 . S
H126 N123 0.984 . S
H127 N123 0.985 . S
H128 N122 0.984 . S
H129 N122 0.984 . S
H130 N118 0.984 . S
H131 N118 0.985 . S
C132 C133 1.363 . S
C132 C138 1.379 . S
C132 N140 1.356 1_565 S
C133 C132 1.363 . S
C133 C139 1.363 . S
C134 C135 1.363 1_655 S
C134 C139 1.379 1_655 S
C134 N141 1.356 . S
C135 C134 1.363 1_455 S
C135 C138 1.363 . S
N136 C138 1.356 . S
N136 H148 0.984 . S
N136 H149 0.985 . S
N137 C139 1.356 1_655 S
N137 H142 0.984 . S
N137 H143 0.985 . S
C138 C132 1.379 . S
C138 C135 1.363 . S
C138 N136 1.356 . S
C139 C133 1.363 . S
C139 C134 1.379 1_455 S
C139 N137 1.356 1_455 S
N140 C132 1.356 1_545 S
N140 H146 0.984 . S
N140 H147 0.984 . S
N141 C134 1.356 . S
N141 H144 0.984 . S
N141 H145 0.985 . S
H142 N137 0.984 . S
H143 N137 0.985 . S
H144 N141 0.984 . S
H145 N141 0.985 . S
H146 N140 0.984 . S
H147 N140 0.984 . S
H148 N136 0.984 . S
H149 N136 0.985 . S
C150 C151 1.363 . S
C150 C156 1.379 . S
C150 N158 1.356 . S
C151 C150 1.363 . S
C151 C157 1.363 . S
C152 C153 1.363 . S
C152 C157 1.379 . S
C152 N159 1.356 1_545 S
C153 C152 1.363 . S
C153 C156 1.363 . S
N154 C156 1.356 . S
N154 H166 0.984 . S
N154 H167 0.985 . S
N155 C157 1.356 . S
N155 H160 0.984 . S
N155 H161 0.985 1_545 S
C156 C150 1.379 . S
C156 C153 1.363 . S
C156 N154 1.356 . S
C157 C151 1.363 . S
C157 C152 1.379 . S
C157 N155 1.356 . S
N158 C150 1.356 . S
N158 H164 0.984 . S
N158 H165 0.984 . S
N159 C152 1.356 1_565 S
N159 H162 0.984 . S
N159 H163 0.985 . S
H160 N155 0.984 . S
H161 N155 0.985 1_565 S
H162 N159 0.984 . S
H163 N159 0.985 . S
H164 N158 0.984 . S
H165 N158 0.984 . S
H166 N154 0.984 . S
H167 N154 0.985 . S
C168 C169 1.363 . S
C168 C174 1.379 . S
C168 N176 1.356 . S
C169 C168 1.363 . S
C169 C175 1.363 . S
C170 C171 1.363 . S
C170 C175 1.379 . S
C170 N177 1.356 . S
C171 C170 1.363 . S
C171 C174 1.363 . S
N172 C174 1.356 . S
N172 H184 0.984 . S
N172 H185 0.985 . S
N173 C175 1.356 . S
N173 H178 0.984 . S
N173 H179 0.985 . S
C174 C168 1.379 . S
C174 C171 1.363 . S
C174 N172 1.356 . S
C175 C169 1.363 . S
C175 C170 1.379 . S
C175 N173 1.356 . S
N176 C168 1.356 . S
N176 H182 0.984 . S
N176 H183 0.984 . S
N177 C170 1.356 . S
N177 H180 0.984 . S
N177 H181 0.985 . S
H178 N173 0.984 . S
H179 N173 0.985 . S
H180 N177 0.984 . S
H181 N177 0.985 . S
H182 N176 0.984 . S
H183 N176 0.984 . S
H184 N172 0.984 . S
H185 N172 0.985 . S
C186 C187 1.363 . S
C186 C192 1.379 . S
C186 N194 1.356 1_545 S
C187 C186 1.363 . S
C187 C193 1.363 . S
C188 C189 1.363 . S
C188 C193 1.379 . S
C188 N195 1.356 . S
C189 C188 1.363 . S
C189 C192 1.363 . S
N190 C192 1.356 1_565 S
N190 H202 0.984 . S
N190 H203 0.985 . S
N191 C193 1.356 . S
N191 H196 0.984 . S
N191 H197 0.985 . S
C192 C186 1.379 . S
C192 C189 1.363 . S
C192 N190 1.356 1_545 S
C193 C187 1.363 . S
C193 C188 1.379 . S
C193 N191 1.356 . S
N194 C186 1.356 1_565 S
N194 H200 0.984 . S
N194 H201 0.984 . S
N195 C188 1.356 . S
N195 H198 0.984 . S
N195 H199 0.985 . S
H196 N191 0.984 . S
H197 N191 0.985 . S
H198 N195 0.984 . S
H199 N195 0.985 . S
H200 N194 0.984 . S
H201 N194 0.984 . S
H202 N190 0.984 . S
H203 N190 0.985 . S
C204 C205 1.363 1_556 S
C204 C210 1.379 . S
C204 N212 1.356 1_566 S
C205 C204 1.363 1_554 S
C205 C211 1.363 . S
C206 C207 1.363 . S
C206 C211 1.379 1_556 S
C206 N213 1.356 . S
C207 C206 1.363 . S
C207 C210 1.363 . S
N208 C210 1.356 . S
N208 H220 0.984 . S
N208 H221 0.985 . S
N209 C211 1.356 . S
N209 H214 0.984 . S
N209 H215 0.985 . S
C210 C204 1.379 . S
C210 C207 1.363 . S
C210 N208 1.356 . S
C211 C205 1.363 . S
C211 C206 1.379 1_554 S
C211 N209 1.356 . S
N212 C204 1.356 1_544 S
N212 H218 0.984 1_554 S
N212 H219 0.984 . S
N213 C206 1.356 . S
N213 H216 0.984 . S
N213 H217 0.985 . S
H214 N209 0.984 . S
H215 N209 0.985 . S
H216 N213 0.984 . S
H217 N213 0.985 . S
H218 N212 0.984 1_556 S
H219 N212 0.984 . S
H220 N208 0.984 . S
H221 N208 0.985 . S
C222 C223 1.363 . S
C222 C228 1.379 . S
C222 N230 1.356 . S
C223 C222 1.363 . S
C223 C229 1.363 1_455 S
C224 C225 1.363 1_655 S
C224 C229 1.379 . S
C224 N231 1.356 . S
C225 C224 1.363 1_455 S
C225 C228 1.363 . S
N226 C228 1.356 . S
N226 H238 0.984 . S
N226 H239 0.985 . S
N227 C229 1.356 . S
N227 H232 0.984 . S
N227 H233 0.985 . S
C228 C222 1.379 . S
C228 C225 1.363 . S
C228 N226 1.356 . S
C229 C223 1.363 1_655 S
C229 C224 1.379 . S
C229 N227 1.356 . S
N230 C222 1.356 . S
N230 H236 0.984 1_565 S
N230 H237 0.984 1_565 S
N231 C224 1.356 . S
N231 H234 0.984 . S
N231 H235 0.985 . S
H232 N227 0.984 . S
H233 N227 0.985 . S
H234 N231 0.984 . S
H235 N231 0.985 . S
H236 N230 0.984 1_545 S
H237 N230 0.984 1_545 S
H238 N226 0.984 . S
H239 N226 0.985 . S
C240 C241 1.363 1_565 S
C240 C246 1.379 . S
C240 N248 1.356 . S
C241 C240 1.363 1_545 S
C241 C247 1.363 . S
C242 C243 1.363 . S
C242 C247 1.379 . S
C242 N249 1.356 . S
C243 C242 1.363 . S
C243 C246 1.363 1_545 S
N244 C246 1.356 . S
N244 H256 0.984 . S
N244 H257 0.985 . S
N245 C247 1.356 . S
N245 H250 0.984 . S
N245 H251 0.985 . S
C246 C240 1.379 . S
C246 C243 1.363 1_565 S
C246 N244 1.356 . S
C247 C241 1.363 . S
C247 C242 1.379 . S
C247 N245 1.356 . S
N248 C240 1.356 . S
N248 H254 0.984 . S
N248 H255 0.984 . S
N249 C242 1.356 . S
N249 H252 0.984 . S
N249 H253 0.985 . S
H250 N245 0.984 . S
H251 N245 0.985 . S
H252 N249 0.984 . S
H253 N249 0.985 . S
H254 N248 0.984 . S
H255 N248 0.984 . S
H256 N244 0.984 . S
H257 N244 0.985 . S
C258 C259 1.363 1_556 S
C258 C264 1.379 . S
C258 N266 1.356 . S
C259 C258 1.363 1_554 S
C259 C265 1.363 . S
C260 C261 1.363 . S
C260 C265 1.379 1_556 S
C260 N267 1.356 . S
C261 C260 1.363 . S
C261 C264 1.363 . S
N262 C264 1.356 . S
N262 H274 0.984 . S
N262 H275 0.985 . S
N263 C265 1.356 . S
N263 H268 0.984 . S
N263 H269 0.985 . S
C264 C258 1.379 . S
C264 C261 1.363 . S
C264 N262 1.356 . S
C265 C259 1.363 . S
C265 C260 1.379 1_554 S
C265 N263 1.356 . S
N266 C258 1.356 . S
N266 H272 0.984 . S
N266 H273 0.984 1_556 S
N267 C260 1.356 . S
N267 H270 0.984 . S
N267 H271 0.985 1_556 S
H268 N263 0.984 . S
H269 N263 0.985 . S
H270 N267 0.984 . S
H271 N267 0.985 1_554 S
H272 N266 0.984 . S
H273 N266 0.984 1_554 S
H274 N262 0.984 . S
H275 N262 0.985 . S
C276 C277 1.363 . S
C276 C282 1.379 . S
C276 N284 1.356 . S
C277 C276 1.363 . S
C277 C283 1.363 . S
C278 C279 1.363 . S
C278 C283 1.379 . S
C278 N285 1.356 . S
C279 C278 1.363 . S
C279 C282 1.363 . S
N280 C282 1.356 . S
N280 H292 0.984 . S
N280 H293 0.985 . S
N281 C283 1.356 . S
N281 H286 0.984 . S
N281 H287 0.985 . S
C282 C276 1.379 . S
C282 C279 1.363 . S
C282 N280 1.356 . S
C283 C277 1.363 . S
C283 C278 1.379 . S
C283 N281 1.356 . S
N284 C276 1.356 . S
N284 H290 0.984 . S
N284 H291 0.984 . S
N285 C278 1.356 . S
N285 H288 0.984 . S
N285 H289 0.985 . S
H286 N281 0.984 . S
H287 N281 0.985 . S
H288 N285 0.984 . S
H289 N285 0.985 . S
H290 N284 0.984 . S
H291 N284 0.984 . S
H292 N280 0.984 . S
H293 N280 0.985 . S
C81 C44 1.395 . S
C79 C10 1.411 . S
C97 C21 1.470 . S
C99 C62 1.505 . S
C115 C31 1.411 . S
C117 C75 1.474 . S
C133 C0 1.356 . S
C135 C42 1.433 . S
C153 C53 1.491 . S
C151 C18 1.398 . S
C169 C34 1.427 . S
C171 C66 1.464 . S
C189 C55 1.417 . S
C187 C36 1.419 . S
C205 C8 1.361 . S
C207 C68 1.403 . S
C225 C49 1.462 . S
C223 C23 1.472 . S
C243 C57 1.355 . S
C241 C26 1.303 . S
C261 C70 1.409 . S
C259 C5 1.359 . S
C277 C13 1.417 . S
C279 C40 1.498 . S
