# Generated by pormake.
# Topology pyr, (3,6)-cn, num edge types: 1
# Building blocks:
#     Node 0, Type 0, BuildingBlock: WUSLED_clean_sbu_0, # of connection points: 3
#     Node 1, Type 0, BuildingBlock: WUSLED_clean_sbu_0, # of connection points: 3
#     Node 2, Type 0, BuildingBlock: WUSLED_clean_sbu_0, # of connection points: 3
#     Node 3, Type 0, BuildingBlock: WUSLED_clean_sbu_0, # of connection points: 3
#     Node 4, Type 0, BuildingBlock: WUSLED_clean_sbu_0, # of connection points: 3
#     Node 5, Type 0, BuildingBlock: WUSLED_clean_sbu_0, # of connection points: 3
#     Node 6, Type 0, BuildingBlock: WUSLED_clean_sbu_0, # of connection points: 3
#     Node 7, Type 0, BuildingBlock: WUSLED_clean_sbu_0, # of connection points: 3
#     Node 8, Type 1, BuildingBlock: MIFKUJ_clean_sbu_0, # of connection points: 6
#     Node 9, Type 1, BuildingBlock: MIFKUJ_clean_sbu_0, # of connection points: 6
#     Node 10, Type 1, BuildingBlock: MIFKUJ_clean_sbu_0, # of connection points: 6
#     Node 11, Type 1, BuildingBlock: MIFKUJ_clean_sbu_0, # of connection points: 6
#     Edge 12, Type (0, 1), BuildingBlock: UVAHIK_clean_linker_0, # of connection points: 2
#     Edge 13, Type (0, 1), BuildingBlock: UVAHIK_clean_linker_0, # of connection points: 2
#     Edge 14, Type (0, 1), BuildingBlock: UVAHIK_clean_linker_0, # of connection points: 2
#     Edge 15, Type (0, 1), BuildingBlock: UVAHIK_clean_linker_0, # of connection points: 2
#     Edge 16, Type (0, 1), BuildingBlock: UVAHIK_clean_linker_0, # of connection points: 2
#     Edge 17, Type (0, 1), BuildingBlock: UVAHIK_clean_linker_0, # of connection points: 2
#     Edge 18, Type (0, 1), BuildingBlock: UVAHIK_clean_linker_0, # of connection points: 2
#     Edge 19, Type (0, 1), BuildingBlock: UVAHIK_clean_linker_0, # of connection points: 2
#     Edge 20, Type (0, 1), BuildingBlock: UVAHIK_clean_linker_0, # of connection points: 2
#     Edge 21, Type (0, 1), BuildingBlock: UVAHIK_clean_linker_0, # of connection points: 2
#     Edge 22, Type (0, 1), BuildingBlock: UVAHIK_clean_linker_0, # of connection points: 2
#     Edge 23, Type (0, 1), BuildingBlock: UVAHIK_clean_linker_0, # of connection points: 2
#     Edge 24, Type (0, 1), BuildingBlock: UVAHIK_clean_linker_0, # of connection points: 2
#     Edge 25, Type (0, 1), BuildingBlock: UVAHIK_clean_linker_0, # of connection points: 2
#     Edge 26, Type (0, 1), BuildingBlock: UVAHIK_clean_linker_0, # of connection points: 2
#     Edge 27, Type (0, 1), BuildingBlock: UVAHIK_clean_linker_0, # of connection points: 2
#     Edge 28, Type (0, 1), BuildingBlock: UVAHIK_clean_linker_0, # of connection points: 2
#     Edge 29, Type (0, 1), BuildingBlock: UVAHIK_clean_linker_0, # of connection points: 2
#     Edge 30, Type (0, 1), BuildingBlock: UVAHIK_clean_linker_0, # of connection points: 2
#     Edge 31, Type (0, 1), BuildingBlock: UVAHIK_clean_linker_0, # of connection points: 2
#     Edge 32, Type (0, 1), BuildingBlock: UVAHIK_clean_linker_0, # of connection points: 2
#     Edge 33, Type (0, 1), BuildingBlock: UVAHIK_clean_linker_0, # of connection points: 2
#     Edge 34, Type (0, 1), BuildingBlock: UVAHIK_clean_linker_0, # of connection points: 2
#     Edge 35, Type (0, 1), BuildingBlock: UVAHIK_clean_linker_0, # of connection points: 2
# Relax obj value: 0.024
# Max RMSD: 0.079
# Mean RMSD: 0.044
data_MOF--net-pyr--node1-WUSLED_clean_sbu_0--node2-MIFKUJ_clean_sbu_0--edge1-UVAHIK_clean_linker_0
_symmetry_space_group_name_H-M    P1
_symmetry_Int_Tables_number       1
_symmetry_cell_setting            triclinic
loop_
_symmetry_equiv_pos_as_xyz
'x, y, z'
_cell_length_a     62.079278
_cell_length_b     55.978871
_cell_length_c     60.984952
_cell_angle_alpha  86.243009
_cell_angle_beta   88.980758
_cell_angle_gamma 95.528497
loop_
_atom_site_label
_atom_site_type_symbol
_atom_site_fract_x
_atom_site_fract_y
_atom_site_fract_z
_atom_type_partial_charge
C0 C 0.19304 0.22682 0.15149 0.0
C1 C 0.178 0.2367 0.16483 0.0
C2 C 0.16892 0.26355 0.13399 0.0
C3 C 0.16608 0.25495 0.15617 0.0
C4 C 0.18396 0.25341 0.12072 0.0
C5 C 0.19591 0.23525 0.12942 0.0
U6 U 0.20201 0.17762 0.19544 0.0
O7 O 0.21081 0.14089 0.19237 0.0
O8 O 0.23219 0.16655 0.20967 0.0
C9 C 0.22966 0.14531 0.20154 0.0
C10 C 0.20549 0.20742 0.16024 0.0
C11 C 0.24846 0.13834 0.18928 0.0
C12 C 0.26835 0.13557 0.15495 0.0
C13 C 0.25084 0.14326 0.16644 0.0
C14 C 0.28163 0.11861 0.18908 0.0
C15 C 0.28387 0.12293 0.1661 0.0
C16 C 0.26408 0.1262 0.20052 0.0
C17 C 0.16131 0.16769 0.24434 0.0
C18 C 0.16357 0.13871 0.27549 0.0
C19 C 0.13156 0.15997 0.27098 0.0
C20 C 0.14076 0.1722 0.25188 0.0
C21 C 0.14277 0.14295 0.28295 0.0
C22 C 0.17275 0.15093 0.25625 0.0
C23 C 0.17007 0.18028 0.22373 0.0
O24 O 0.2159 0.2116 0.17839 0.0
O25 O 0.19534 0.18569 0.16056 0.0
O26 O 0.16816 0.16779 0.20624 0.0
O27 O 0.18904 0.19278 0.22476 0.0
H28 H 0.17551 0.2303 0.18193 0.0
H29 H 0.15483 0.26249 0.16692 0.0
H30 H 0.1863 0.25925 0.10349 0.0
H31 H 0.20732 0.22767 0.11885 0.0
H32 H 0.26941 0.13903 0.13727 0.0
H33 H 0.23898 0.15273 0.15746 0.0
H34 H 0.29347 0.10937 0.19828 0.0
H35 H 0.2626 0.12241 0.21816 0.0
H36 H 0.17254 0.12559 0.28427 0.0
H37 H 0.11567 0.16393 0.27645 0.0
H38 H 0.13172 0.18511 0.24289 0.0
H39 H 0.18863 0.14717 0.25056 0.0
C40 C 0.28625 0.848 0.63776 0.0
C41 C 0.27925 0.86659 0.6496 0.0
C42 C 0.24934 0.87046 0.62466 0.0
C43 C 0.26095 0.87775 0.6431 0.0
C44 C 0.25652 0.85183 0.61285 0.0
C45 C 0.27482 0.84072 0.61936 0.0
U46 U 0.33258 0.83972 0.67678 0.0
O47 O 0.34515 0.80653 0.69035 0.0
O48 O 0.36632 0.8332 0.67 0.0
C49 C 0.36404 0.81164 0.68019 0.0
C50 C 0.30527 0.83593 0.64454 0.0
C51 C 0.37169 0.79232 0.66782 0.0
C52 C 0.372 0.7699 0.63505 0.0
C53 C 0.36428 0.78819 0.64668 0.0
C54 C 0.3944 0.75956 0.66572 0.0
C55 C 0.38721 0.75538 0.64442 0.0
C56 C 0.38672 0.77788 0.67728 0.0
C57 C 0.34092 0.87819 0.72564 0.0
C58 C 0.36059 0.86731 0.75835 0.0
C59 C 0.35658 0.90921 0.74831 0.0
C60 C 0.3448 0.90249 0.72998 0.0
C61 C 0.36462 0.8917 0.76277 0.0
C62 C 0.34899 0.86064 0.73992 0.0
C63 C 0.32886 0.87153 0.70599 0.0
O64 O 0.32387 0.84937 0.64275 0.0
O65 O 0.30284 0.82263 0.66315 0.0
O66 O 0.3179 0.85014 0.70734 0.0
O67 O 0.33946 0.8766 0.68715 0.0
H68 H 0.28788 0.87236 0.66392 0.0
H69 H 0.25572 0.89183 0.6527 0.0
H70 H 0.24815 0.84601 0.59842 0.0
H71 H 0.28005 0.82642 0.61002 0.0
H72 H 0.36628 0.76736 0.61862 0.0
H73 H 0.35263 0.7992 0.63914 0.0
H74 H 0.4058 0.74849 0.67359 0.0
H75 H 0.39252 0.78077 0.69364 0.0
H76 H 0.36622 0.85329 0.76924 0.0
H77 H 0.35965 0.92816 0.75094 0.0
H78 H 0.33886 0.91631 0.71907 0.0
H79 H 0.34634 0.84175 0.73685 0.0
C80 C 0.6357 0.36057 0.77004 0.0
C81 C 0.63647 0.38581 0.76894 0.0
C82 C 0.62289 0.38606 0.73168 0.0
C83 C 0.63002 0.39841 0.74998 0.0
C84 C 0.62256 0.36085 0.7327 0.0
C85 C 0.62882 0.34825 0.75172 0.0
U86 U 0.67279 0.34892 0.81847 0.0
O87 O 0.66452 0.33803 0.85316 0.0
O88 O 0.68242 0.31484 0.83332 0.0
C89 C 0.67252 0.31722 0.85218 0.0
C90 C 0.64142 0.34668 0.79017 0.0
C91 C 0.65845 0.29615 0.86129 0.0
C92 C 0.63086 0.26292 0.85727 0.0
C93 C 0.64389 0.28307 0.84813 0.0
C94 C 0.64661 0.26902 0.89279 0.0
C95 C 0.63207 0.25569 0.87973 0.0
C96 C 0.65967 0.28902 0.88363 0.0
C97 C 0.72445 0.38965 0.82567 0.0
C98 C 0.74748 0.38314 0.85689 0.0
C99 C 0.75814 0.4149 0.82878 0.0
C100 C 0.73928 0.40868 0.81742 0.0
C101 C 0.76251 0.40218 0.84863 0.0
C102 C 0.72862 0.3769 0.84547 0.0
C103 C 0.70482 0.38315 0.8134 0.0
O104 O 0.65855 0.33475 0.7885 0.0
O105 O 0.64035 0.35738 0.80868 0.0
O106 O 0.68645 0.38582 0.82357 0.0
O107 O 0.70454 0.36279 0.8038 0.0
H108 H 0.64188 0.39581 0.78277 0.0
H109 H 0.63068 0.41784 0.74959 0.0
H110 H 0.61695 0.35081 0.71896 0.0
H111 H 0.62806 0.3288 0.75221 0.0
H112 H 0.61968 0.25317 0.84684 0.0
H113 H 0.64262 0.28842 0.83084 0.0
H114 H 0.64816 0.26375 0.91006 0.0
H115 H 0.67083 0.2989 0.89402 0.0
H116 H 0.75045 0.37282 0.87199 0.0
H117 H 0.7692 0.42987 0.82212 0.0
H118 H 0.73627 0.41873 0.80217 0.0
H119 H 0.71733 0.36208 0.85203 0.0
C120 C 0.79135 0.62471 0.30726 0.0
C121 C 0.78359 0.6414 0.32087 0.0
C122 C 0.75384 0.61207 0.33381 0.0
C123 C 0.76494 0.63517 0.33397 0.0
C124 C 0.76171 0.5954 0.32013 0.0
C125 C 0.78032 0.60171 0.30693 0.0
U126 U 0.84178 0.66677 0.29462 0.0
O127 O 0.8753 0.66006 0.287 0.0
O128 O 0.85738 0.68102 0.26308 0.0
C129 C 0.87486 0.67004 0.26689 0.0
C130 C 0.81126 0.63106 0.29392 0.0
C131 C 0.88177 0.65558 0.24916 0.0
C132 C 0.88605 0.61695 0.2344 0.0
C133 C 0.87908 0.63031 0.25128 0.0
C134 C 0.89791 0.65387 0.21277 0.0
C135 C 0.89558 0.62859 0.21497 0.0
C136 C 0.89114 0.66723 0.22975 0.0
C137 C 0.84996 0.72058 0.33135 0.0
C138 C 0.88304 0.74317 0.34227 0.0
C139 C 0.84837 0.75854 0.34807 0.0
C140 C 0.838 0.7386 0.33868 0.0
C141 C 0.87096 0.76082 0.35044 0.0
C142 C 0.87262 0.72318 0.3328 0.0
C143 C 0.83818 0.69865 0.32381 0.0
O144 O 0.81148 0.65092 0.28111 0.0
O145 O 0.8293 0.62945 0.30463 0.0
O146 O 0.84704 0.67847 0.3279 0.0
O147 O 0.82978 0.7005 0.30421 0.0
H148 H 0.79205 0.6592 0.32147 0.0
H149 H 0.75947 0.64829 0.34454 0.0
H150 H 0.7534 0.57755 0.3195 0.0
H151 H 0.78615 0.5886 0.29655 0.0
H152 H 0.88382 0.59749 0.23644 0.0
H153 H 0.87164 0.62089 0.266 0.0
H154 H 0.90536 0.66333 0.19807 0.0
H155 H 0.8933 0.6867 0.22777 0.0
H156 H 0.90044 0.74433 0.34393 0.0
H157 H 0.83862 0.77205 0.35375 0.0
H158 H 0.82052 0.73696 0.33762 0.0
H159 H 0.8822 0.70949 0.32717 0.0
C160 C 0.82413 0.77981 0.85683 0.0
C161 C 0.84638 0.78019 0.85205 0.0
C162 C 0.8476 0.74217 0.87373 0.0
C163 C 0.85802 0.76159 0.86048 0.0
C164 C 0.82516 0.74163 0.87791 0.0
C165 C 0.81359 0.7603 0.8696 0.0
U166 U 0.81525 0.83191 0.81556 0.0
O167 O 0.78523 0.84441 0.80243 0.0
O168 O 0.8069 0.8684 0.82112 0.0
C169 C 0.78813 0.86506 0.81159 0.0
C170 C 0.81183 0.79981 0.84908 0.0
C171 C 0.76945 0.87206 0.82397 0.0
C172 C 0.74 0.86322 0.85102 0.0
C173 C 0.75787 0.85608 0.83965 0.0
C174 C 0.74539 0.90244 0.83136 0.0
C175 C 0.73347 0.88648 0.84692 0.0
C176 C 0.76315 0.89527 0.82 0.0
C177 C 0.85445 0.84534 0.76574 0.0
C178 C 0.86796 0.88323 0.7461 0.0
C179 C 0.86744 0.84607 0.72781 0.0
C180 C 0.85859 0.83331 0.74687 0.0
C181 C 0.87251 0.87112 0.72731 0.0
C182 C 0.85893 0.87049 0.7651 0.0
C183 C 0.84643 0.83118 0.78605 0.0
O184 O 0.82193 0.82146 0.84991 0.0
O185 O 0.80133 0.79686 0.83077 0.0
O186 O 0.82751 0.81863 0.78493 0.0
O187 O 0.84899 0.84183 0.80455 0.0
H188 H 0.85483 0.79505 0.8421 0.0
H189 H 0.87528 0.76275 0.85706 0.0
H190 H 0.8165 0.72675 0.88764 0.0
H191 H 0.79639 0.75961 0.8733 0.0
H192 H 0.73112 0.85041 0.86276 0.0
H193 H 0.76257 0.83808 0.843 0.0
H194 H 0.74114 0.92062 0.82807 0.0
H195 H 0.772 0.9079 0.80807 0.0
H196 H 0.87145 0.90256 0.74611 0.0
H197 H 0.87094 0.83621 0.71368 0.0
H198 H 0.85533 0.81393 0.747 0.0
H199 H 0.85576 0.8803 0.77935 0.0
C200 C 0.64315 0.16164 0.29395 0.0
C201 C 0.65536 0.14522 0.28413 0.0
C202 C 0.6276 0.13855 0.25682 0.0
C203 C 0.64766 0.13379 0.26567 0.0
C204 C 0.61548 0.15503 0.26683 0.0
C205 C 0.6232 0.16645 0.28523 0.0
U206 U 0.68408 0.17159 0.33922 0.0
O207 O 0.69774 0.20539 0.35229 0.0
O208 O 0.67887 0.17794 0.37401 0.0
C209 C 0.68836 0.20002 0.37171 0.0
C210 C 0.65099 0.17393 0.31324 0.0
C211 C 0.67591 0.21868 0.38009 0.0
C212 C 0.64241 0.23751 0.38329 0.0
C213 C 0.65405 0.21975 0.37498 0.0
C214 C 0.67449 0.25354 0.40151 0.0
C215 C 0.65246 0.25457 0.39675 0.0
C216 C 0.68606 0.23573 0.39329 0.0
C217 C 0.73255 0.13456 0.34323 0.0
C218 C 0.7579 0.13737 0.37309 0.0
C219 C 0.76414 0.11221 0.34319 0.0
C220 C 0.74523 0.11872 0.33333 0.0
C221 C 0.77072 0.12144 0.36319 0.0
C222 C 0.73898 0.14392 0.36315 0.0
C223 C 0.71266 0.14103 0.33262 0.0
O224 O 0.65017 0.1605 0.33179 0.0
O225 O 0.66922 0.18787 0.31016 0.0
O226 O 0.7138 0.1627 0.32272 0.0
O227 O 0.69468 0.13533 0.3443 0.0
H228 H 0.67081 0.14126 0.29075 0.0
H229 H 0.65729 0.12104 0.25848 0.0
H230 H 0.60013 0.15938 0.26025 0.0
H231 H 0.61362 0.17914 0.2926 0.0
H232 H 0.62545 0.23762 0.37944 0.0
H233 H 0.64598 0.20677 0.36469 0.0
H234 H 0.68288 0.26665 0.41144 0.0
H235 H 0.70298 0.23528 0.39723 0.0
H236 H 0.76262 0.14497 0.38836 0.0
H237 H 0.77345 0.09964 0.3353 0.0
H238 H 0.74045 0.11129 0.31798 0.0
H239 H 0.72936 0.15626 0.37098 0.0
C240 C 0.28955 0.62315 0.19158 0.0
C241 C 0.29088 0.62354 0.16852 0.0
C242 C 0.25222 0.61138 0.16718 0.0
C243 C 0.27241 0.61755 0.15646 0.0
C244 C 0.25089 0.61132 0.19023 0.0
C245 C 0.26941 0.61706 0.20231 0.0
U246 U 0.34162 0.66269 0.20015 0.0
O247 O 0.35547 0.67689 0.2303 0.0
O248 O 0.3737 0.65381 0.21065 0.0
C249 C 0.37252 0.66478 0.22899 0.0
C250 C 0.30885 0.62938 0.20463 0.0
C251 C 0.37808 0.65109 0.24929 0.0
C252 C 0.38372 0.6134 0.26961 0.0
C253 C 0.37681 0.62582 0.25076 0.0
C254 C 0.39247 0.6512 0.28613 0.0
C255 C 0.39183 0.62596 0.28741 0.0
C256 C 0.38574 0.66362 0.26721 0.0
C257 C 0.35759 0.71435 0.1565 0.0
C258 C 0.38603 0.7468 0.16004 0.0
C259 C 0.36967 0.74098 0.12476 0.0
C260 C 0.35625 0.72139 0.13416 0.0
C261 C 0.3847 0.75395 0.13757 0.0
C262 C 0.37263 0.72707 0.16942 0.0
C263 C 0.34309 0.69376 0.16586 0.0
O264 O 0.3276 0.62582 0.19565 0.0
O265 O 0.3092 0.6499 0.214 0.0
O266 O 0.33303 0.69685 0.18446 0.0
O267 O 0.3507 0.67268 0.16547 0.0
H268 H 0.30617 0.62848 0.15979 0.0
H269 H 0.27387 0.61801 0.13871 0.0
H270 H 0.23558 0.60645 0.19896 0.0
H271 H 0.26801 0.61673 0.22007 0.0
H272 H 0.38278 0.59394 0.27022 0.0
H273 H 0.3708 0.61568 0.23724 0.0
H274 H 0.39882 0.66141 0.29947 0.0
H275 H 0.3869 0.6831 0.26642 0.0
H276 H 0.39758 0.75629 0.17029 0.0
H277 H 0.36801 0.74621 0.1075 0.0
H278 H 0.34471 0.71179 0.12396 0.0
H279 H 0.37397 0.72177 0.18672 0.0
C280 C 0.13002 0.28942 0.7074 0.0
C281 C 0.14047 0.28691 0.68723 0.0
C282 C 0.11727 0.25014 0.68228 0.0
C283 C 0.13412 0.26753 0.67475 0.0
C284 C 0.10681 0.25278 0.70254 0.0
C285 C 0.11316 0.27229 0.715 0.0
U286 U 0.1718 0.34042 0.71707 0.0
O287 O 0.16918 0.37779 0.72489 0.0
O288 O 0.18584 0.35385 0.74736 0.0
C289 C 0.17829 0.3749 0.74406 0.0
C290 C 0.13713 0.30964 0.72059 0.0
C291 C 0.1665 0.38314 0.76281 0.0
C292 C 0.13345 0.384 0.78458 0.0
C293 C 0.14457 0.37536 0.76704 0.0
C294 C 0.16621 0.40789 0.79402 0.0
C295 C 0.14414 0.40044 0.79822 0.0
C296 C 0.17726 0.39932 0.77645 0.0
C297 C 0.22062 0.34823 0.67679 0.0
C298 C 0.24907 0.38124 0.67647 0.0
C299 C 0.25068 0.35037 0.65057 0.0
C300 C 0.2313 0.33869 0.65946 0.0
C301 C 0.25974 0.37187 0.65885 0.0
C302 C 0.22962 0.3695 0.68536 0.0
C303 C 0.19996 0.33591 0.68534 0.0
O304 O 0.15463 0.30684 0.73193 0.0
O305 O 0.13749 0.33102 0.7102 0.0
O306 O 0.18305 0.34815 0.68274 0.0
O307 O 0.20045 0.32461 0.70487 0.0
H308 H 0.15359 0.29997 0.68112 0.0
H309 H 0.14231 0.2663 0.65909 0.0
H310 H 0.09397 0.23958 0.70895 0.0
H311 H 0.10502 0.27389 0.73063 0.0
H312 H 0.11654 0.3777 0.78753 0.0
H313 H 0.13604 0.36275 0.75671 0.0
H314 H 0.17484 0.42073 0.80405 0.0
H315 H 0.19419 0.40552 0.77338 0.0
H316 H 0.25552 0.39786 0.68309 0.0
H317 H 0.25865 0.34246 0.63727 0.0
H318 H 0.22457 0.32222 0.65273 0.0
H319 H 0.22151 0.37711 0.69876 0.0
Zn320 Zn 0.03616 0.01482 0.5272 0.0
Zn321 Zn 0.98373 0.99897 0.48559 0.0
C322 C 0.06088 0.05477 0.54456 0.0
O323 O 0.07636 0.04625 0.53334 0.0
C324 C 0.95958 0.95682 0.47342 0.0
O325 O 0.94667 0.96387 0.48851 0.0
O326 O 0.05967 0.99365 0.53556 0.0
O327 O 0.00778 0.99769 0.53874 0.0
O328 O 0.97955 0.98895 0.51784 0.0
C329 C 0.06243 0.98798 0.55578 0.0
O330 O 0.04936 0.99536 0.57055 0.0
O331 O 0.04174 0.04448 0.54411 0.0
C332 C 0.95866 0.02557 0.45627 0.0
O333 O 0.97294 0.01861 0.4425 0.0
O334 O 0.9601 0.0198 0.47666 0.0
O335 O 0.01214 0.01619 0.47415 0.0
O336 O 0.04041 0.0251 0.49496 0.0
O337 O 0.97768 0.96903 0.46915 0.0
C338 C 0.98843 0.98865 0.53646 0.0
C339 C 0.03147 0.02534 0.47637 0.0
Zn340 Zn 0.51558 0.98474 0.97962 0.0
Zn341 Zn 0.50168 0.02283 0.03525 0.0
C342 C 0.49318 0.95637 0.94857 0.0
O343 O 0.50541 0.94056 0.95732 0.0
C344 C 0.5271 0.05241 0.06313 0.0
O345 O 0.51955 0.06905 0.05002 0.0
O346 O 0.54345 0.97164 0.97037 0.0
O347 O 0.52184 0.02079 0.97925 0.0
O348 O 0.51452 0.04145 0.00792 0.0
C349 C 0.55072 0.97819 0.95105 0.0
O350 O 0.54024 0.99326 0.93887 0.0
O351 O 0.4943 0.97728 0.95571 0.0
C352 C 0.46422 0.02751 0.06143 0.0
O353 O 0.47259 0.01011 0.07286 0.0
O354 O 0.47371 0.03618 0.0436 0.0
O355 O 0.49586 0.98673 0.03567 0.0
O356 O 0.50339 0.96593 0.00714 0.0
O357 O 0.52196 0.03042 0.05986 0.0
C358 C 0.52167 0.04058 0.98834 0.0
C359 C 0.4963 0.96687 0.02673 0.0
Zn360 Zn 0.5344 0.49374 0.48787 0.0
Zn361 Zn 0.48579 0.5172 0.52816 0.0
C362 C 0.56282 0.53392 0.46637 0.0
O363 O 0.54534 0.54539 0.46529 0.0
C364 C 0.45687 0.49309 0.56031 0.0
O365 O 0.47093 0.50462 0.57269 0.0
O366 O 0.53732 0.46044 0.47784 0.0
O367 O 0.53604 0.4919 0.52103 0.0
O368 O 0.51158 0.50491 0.54317 0.0
C369 C 0.5538 0.45096 0.48515 0.0
O370 O 0.56629 0.46273 0.4988 0.0
O371 O 0.56168 0.51283 0.47569 0.0
C372 C 0.46248 0.55693 0.53533 0.0
O373 O 0.44877 0.544 0.52363 0.0
O374 O 0.48082 0.54947 0.53929 0.0
O375 O 0.4848 0.52055 0.49507 0.0
O376 O 0.50929 0.50772 0.47279 0.0
O377 O 0.45991 0.49508 0.53956 0.0
C378 C 0.52914 0.49552 0.54018 0.0
C379 C 0.49196 0.51758 0.47587 0.0
Zn380 Zn 0.98336 0.51323 0.9855 0.0
Zn381 Zn 0.03474 0.49574 0.027 0.0
C382 C 0.95708 0.4885 0.95566 0.0
O383 O 0.97229 0.5 0.94262 0.0
C384 C 0.06211 0.51657 0.05795 0.0
O385 O 0.0485 0.50171 0.07023 0.0
O386 O 0.97653 0.54534 0.97153 0.0
O387 O 0.98176 0.51551 0.01844 0.0
O388 O 0.00767 0.50565 0.04107 0.0
C389 C 0.95856 0.55202 0.97787 0.0
O390 O 0.94703 0.53854 0.99311 0.0
O391 O 0.95844 0.49034 0.97628 0.0
C392 C 0.06004 0.45766 0.03463 0.0
O393 O 0.07228 0.4728 0.02122 0.0
O394 O 0.04122 0.46297 0.03983 0.0
O395 O 0.03667 0.49455 0.99406 0.0
O396 O 0.01057 0.50352 0.97135 0.0
O397 O 0.05941 0.51835 0.03729 0.0
C398 C 0.98919 0.51301 0.03767 0.0
C399 C 0.02932 0.49689 0.97478 0.0
C400 C 0.11052 0.12074 0.303 0.0
C401 C 0.13249 0.12959 0.30293 0.0
C402 C 0.10043 0.10913 0.32196 0.0
C403 C 0.11104 0.07852 0.37588 0.0
H404 H 0.0525 0.09251 0.38955 0.0
C405 C 0.06567 0.04585 0.45818 0.0
C406 C 0.0438 0.03687 0.45673 0.0
C407 C 0.07712 0.05701 0.43969 0.0
C408 C 0.06877 0.08823 0.38586 0.0
H409 H 0.16119 0.13284 0.32266 0.0
H410 H 0.14349 0.11266 0.35593 0.0
H411 H 0.07142 0.11214 0.35694 0.0
H412 H 0.01696 0.03248 0.43453 0.0
H413 H 0.03691 0.05188 0.40244 0.0
H414 H 0.10831 0.05469 0.40501 0.0
C415 C 0.13413 0.11449 0.3412 0.0
C416 C 0.07962 0.09946 0.36714 0.0
C417 C 0.14428 0.12606 0.32215 0.0
C418 C 0.03374 0.03923 0.43633 0.0
C419 C 0.04514 0.05048 0.41792 0.0
C420 C 0.10018 0.06734 0.39471 0.0
C421 C 0.112 0.10611 0.34139 0.0
C422 C 0.10082 0.09459 0.36177 0.0
C423 C 0.06694 0.05958 0.41939 0.0
C424 C 0.07884 0.07192 0.39979 0.0
H425 H 0.1011 0.12272 0.28833 0.0
H426 H 0.08351 0.1024 0.32133 0.0
H427 H 0.12727 0.07417 0.37214 0.0
H428 H 0.07396 0.04437 0.4736 0.0
H429 H 0.09385 0.06401 0.4414 0.0
C430 C 0.37182 0.91806 0.79433 0.0
C431 C 0.37726 0.8988 0.78227 0.0
C432 C 0.3837 0.92465 0.81263 0.0
C433 C 0.41893 0.90097 0.85476 0.0
H434 H 0.43875 0.9679 0.86128 0.0
C435 C 0.48094 0.92868 0.91973 0.0
C436 C 0.47896 0.95003 0.93017 0.0
C437 C 0.4679 0.92272 0.90209 0.0
C438 C 0.43306 0.94917 0.85993 0.0
H439 H 0.39986 0.87173 0.77994 0.0
H440 H 0.42017 0.8829 0.81213 0.0
H441 H 0.41701 0.957 0.82984 0.0
H442 H 0.46152 0.98176 0.93042 0.0
H443 H 0.4383 0.97104 0.89999 0.0
H444 H 0.4346 0.89303 0.88491 0.0
C445 C 0.4066 0.89276 0.80746 0.0
C446 C 0.42066 0.94294 0.84186 0.0
C447 C 0.39488 0.88632 0.78904 0.0
C448 C 0.46351 0.96522 0.92266 0.0
C449 C 0.45029 0.95914 0.90511 0.0
C450 C 0.43112 0.9072 0.87293 0.0
C451 C 0.40114 0.91199 0.81944 0.0
C452 C 0.41365 0.91875 0.83899 0.0
C453 C 0.45235 0.93781 0.89456 0.0
C454 C 0.43856 0.93136 0.87566 0.0
H455 H 0.35815 0.92785 0.78986 0.0
H456 H 0.37899 0.9394 0.8217 0.0
H457 H 0.41346 0.88221 0.85314 0.0
H458 H 0.49281 0.91666 0.92497 0.0
H459 H 0.4703 0.90641 0.89414 0.0
C460 C 0.62154 0.39349 0.69067 0.0
C461 C 0.61533 0.39929 0.71179 0.0
C462 C 0.61376 0.40531 0.67196 0.0
C463 C 0.58668 0.45939 0.65308 0.0
H464 H 0.57142 0.42161 0.60359 0.0
C465 C 0.53467 0.49205 0.58099 0.0
C466 C 0.54115 0.48714 0.55964 0.0
C467 C 0.54503 0.48271 0.59939 0.0
C468 C 0.57583 0.43248 0.61717 0.0
H469 H 0.59605 0.42204 0.72983 0.0
H470 H 0.58213 0.44237 0.69726 0.0
H471 H 0.58686 0.40262 0.63592 0.0
H472 H 0.56404 0.46899 0.54106 0.0
H473 H 0.58195 0.45267 0.57309 0.0
H474 H 0.57507 0.48911 0.63437 0.0
C475 C 0.59341 0.42907 0.69507 0.0
C476 C 0.58475 0.42161 0.63572 0.0
C477 C 0.60135 0.41738 0.71378 0.0
C478 C 0.55855 0.47311 0.55718 0.0
C479 C 0.56876 0.46362 0.57556 0.0
C480 C 0.57758 0.47021 0.63457 0.0
C481 C 0.5994 0.42309 0.6739 0.0
C482 C 0.59029 0.4349 0.65396 0.0
C483 C 0.56198 0.4681 0.59688 0.0
C484 C 0.57205 0.45686 0.61642 0.0
H485 H 0.63254 0.37986 0.68861 0.0
H486 H 0.61908 0.40054 0.65596 0.0
H487 H 0.59106 0.47031 0.66663 0.0
H488 H 0.52135 0.50279 0.58355 0.0
H489 H 0.53934 0.48635 0.61561 0.0
C490 C 0.91569 0.59505 0.20225 0.0
C491 C 0.90341 0.61443 0.19722 0.0
C492 C 0.9237 0.5822 0.18551 0.0
C493 C 0.91564 0.56767 0.12811 0.0
H494 H 0.97623 0.55621 0.12895 0.0
C495 C 0.96013 0.53585 0.05294 0.0
C496 C 0.97687 0.52093 0.0565 0.0
C497 C 0.94997 0.54532 0.07059 0.0
C498 C 0.95918 0.55881 0.12861 0.0
H499 H 0.88944 0.63515 0.17078 0.0
H500 H 0.90338 0.6126 0.14149 0.0
H501 H 0.96071 0.57627 0.15883 0.0
H502 H 0.9954 0.50344 0.08158 0.0
H503 H 0.97725 0.51932 0.11241 0.0
H504 H 0.91398 0.55006 0.098 0.0
C505 C 0.90681 0.6074 0.15839 0.0
C506 C 0.95032 0.57042 0.14573 0.0
C507 C 0.899 0.62042 0.17512 0.0
C508 C 0.98268 0.51501 0.07822 0.0
C509 C 0.97236 0.52429 0.09591 0.0
C510 C 0.92443 0.55583 0.11107 0.0
C511 C 0.9194 0.58828 0.1634 0.0
C512 C 0.92851 0.57515 0.14558 0.0
C513 C 0.95615 0.53994 0.09231 0.0
C514 C 0.94638 0.55142 0.11099 0.0
H515 H 0.91948 0.59013 0.21912 0.0
H516 H 0.93323 0.56745 0.18986 0.0
H517 H 0.8987 0.57082 0.1277 0.0
H518 H 0.95537 0.54098 0.03644 0.0
H519 H 0.9378 0.55756 0.0671 0.0
C520 C 0.31257 0.12735 0.13586 0.0
C521 C 0.30201 0.11373 0.15383 0.0
C522 C 0.32944 0.11846 0.12429 0.0
C523 C 0.35317 0.06149 0.11443 0.0
H524 H 0.40413 0.1038 0.09533 0.0
C525 C 0.433 0.02578 0.0882 0.0
C526 C 0.44456 0.03736 0.06984 0.0
C527 C 0.41492 0.03531 0.0968 0.0
C528 C 0.38989 0.09182 0.10031 0.0
H529 H 0.30088 0.07985 0.17347 0.0
H530 H 0.33058 0.06475 0.15385 0.0
H531 H 0.37405 0.12017 0.11364 0.0
H532 H 0.44608 0.06804 0.04603 0.0
H533 H 0.41444 0.08478 0.06117 0.0
H534 H 0.36919 0.03308 0.1015 0.0
C535 C 0.32565 0.08218 0.14843 0.0
C536 C 0.37262 0.1012 0.1108 0.0
C537 C 0.30879 0.09102 0.15992 0.0
C538 C 0.43751 0.05865 0.06017 0.0
C539 C 0.41948 0.06832 0.06891 0.0
C540 C 0.37045 0.05212 0.10407 0.0
C541 C 0.33617 0.09572 0.13041 0.0
C542 C 0.35414 0.08609 0.11823 0.0
C543 C 0.408 0.05676 0.08736 0.0
C544 C 0.38911 0.06711 0.0971 0.0
H545 H 0.30794 0.14501 0.13082 0.0
H546 H 0.33704 0.12931 0.1104 0.0
H547 H 0.33902 0.0494 0.11946 0.0
H548 H 0.43798 0.00936 0.09608 0.0
H549 H 0.40662 0.02612 0.11118 0.0
C550 C 0.2114 0.86843 0.61064 0.0
C551 C 0.2298 0.88219 0.61775 0.0
C552 C 0.1931 0.87945 0.60399 0.0
C553 C 0.16601 0.93497 0.60869 0.0
H554 H 0.135 0.91359 0.55776 0.0
C555 C 0.084 0.96865 0.58513 0.0
C556 C 0.08081 0.97446 0.56272 0.0
C557 C 0.10185 0.95684 0.59182 0.0
C558 C 0.14355 0.91988 0.57193 0.0
H559 H 0.24342 0.91841 0.62319 0.0
H560 H 0.2115 0.93763 0.61158 0.0
H561 H 0.16707 0.89459 0.56927 0.0
H562 H 0.09378 0.97212 0.52974 0.0
H563 H 0.12502 0.95167 0.54145 0.0
H564 H 0.14277 0.96059 0.61109 0.0
C565 C 0.21111 0.91826 0.61146 0.0
C566 C 0.1618 0.9088 0.57868 0.0
C567 C 0.22942 0.90724 0.61812 0.0
C568 C 0.09572 0.96786 0.54714 0.0
C569 C 0.11358 0.95603 0.55384 0.0
C570 C 0.14775 0.94602 0.60196 0.0
C571 C 0.19273 0.9045 0.60428 0.0
C572 C 0.17327 0.91623 0.59713 0.0
C573 C 0.11695 0.95054 0.57628 0.0
C574 C 0.1363 0.93862 0.58349 0.0
H575 H 0.21102 0.84906 0.61049 0.0
H576 H 0.1791 0.86827 0.59891 0.0
H577 H 0.17432 0.94097 0.6231 0.0
H578 H 0.0728 0.97338 0.59757 0.0
H579 H 0.10377 0.95254 0.60921 0.0
C580 C 0.78243 0.4094 0.88359 0.0
C581 C 0.7827 0.40879 0.86056 0.0
C582 C 0.80134 0.41641 0.89464 0.0
C583 C 0.85475 0.45102 0.88514 0.0
H584 H 0.86934 0.41892 0.94041 0.0
C585 C 0.9374 0.47287 0.92337 0.0
C586 C 0.93779 0.4758 0.94608 0.0
C587 C 0.91864 0.46311 0.91369 0.0
C588 C 0.86538 0.4282 0.92509 0.0
H589 H 0.80331 0.41414 0.83122 0.0
H590 H 0.8362 0.42633 0.85042 0.0
H591 H 0.83618 0.40498 0.92208 0.0
H592 H 0.91893 0.46998 0.97656 0.0
H593 H 0.88599 0.45306 0.95956 0.0
H594 H 0.88376 0.47431 0.8881 0.0
C595 C 0.82129 0.42187 0.85993 0.0
C596 C 0.84639 0.42023 0.91459 0.0
C597 C 0.80241 0.41489 0.84891 0.0
C598 C 0.91917 0.46792 0.95902 0.0
C599 C 0.90031 0.45817 0.94929 0.0
C600 C 0.87367 0.45897 0.89561 0.0
C601 C 0.82096 0.42296 0.88291 0.0
C602 C 0.84093 0.43146 0.8944 0.0
C603 C 0.89972 0.4561 0.92643 0.0
C604 C 0.87933 0.44758 0.91563 0.0
H605 H 0.76747 0.40504 0.89305 0.0
H606 H 0.80047 0.41728 0.91232 0.0
H607 H 0.85082 0.46044 0.86987 0.0
H608 H 0.95151 0.47853 0.91293 0.0
H609 H 0.91891 0.46127 0.89612 0.0
C610 C 0.71844 0.62141 0.35019 0.0
C611 C 0.73429 0.60532 0.34812 0.0
C612 C 0.70017 0.61514 0.36385 0.0
C613 C 0.68004 0.57441 0.41131 0.0
H614 H 0.62327 0.58675 0.3904 0.0
C615 C 0.60126 0.53099 0.45455 0.0
C616 C 0.58326 0.54441 0.45517 0.0
C617 C 0.62004 0.54 0.44265 0.0
C618 C 0.63902 0.58352 0.39666 0.0
H619 H 0.74352 0.57015 0.35896 0.0
H620 H 0.71154 0.55912 0.38266 0.0
H621 H 0.65526 0.59933 0.36718 0.0
H622 H 0.57117 0.57817 0.44426 0.0
H623 H 0.60414 0.59408 0.42375 0.0
H624 H 0.66387 0.55857 0.44076 0.0
C625 C 0.7133 0.57664 0.3738 0.0
C626 C 0.65735 0.59069 0.38331 0.0
C627 C 0.73149 0.58285 0.36004 0.0
C628 C 0.58471 0.56733 0.44405 0.0
C629 C 0.60355 0.57638 0.43217 0.0
C630 C 0.66173 0.56734 0.4247 0.0
C631 C 0.69743 0.59271 0.37587 0.0
C632 C 0.67804 0.58598 0.39039 0.0
C633 C 0.62136 0.5627 0.43111 0.0
C634 C 0.64096 0.57157 0.41745 0.0
H635 H 0.72005 0.63879 0.34108 0.0
H636 H 0.6883 0.62797 0.36521 0.0
H637 H 0.6958 0.5709 0.41738 0.0
H638 H 0.6007 0.51323 0.46287 0.0
H639 H 0.6333 0.52881 0.44197 0.0
C640 C 0.13432 0.28357 0.13049 0.0
C641 C 0.15628 0.28296 0.12461 0.0
C642 C 0.12237 0.30143 0.12107 0.0
C643 C 0.12182 0.34342 0.07209 0.0
H644 H 0.08417 0.37798 0.10725 0.0
C645 C 0.09001 0.43113 0.0387 0.0
C646 C 0.06886 0.4358 0.04439 0.0
C647 C 0.09903 0.41127 0.04838 0.0
C648 C 0.09434 0.36824 0.09714 0.0
H649 H 0.18304 0.30129 0.10481 0.0
H650 H 0.16219 0.33212 0.08825 0.0
H651 H 0.10317 0.34577 0.12474 0.0
H652 H 0.0405 0.42306 0.06466 0.0
H653 H 0.05623 0.38799 0.08145 0.0
H654 H 0.11311 0.36572 0.04451 0.0
C655 C 0.15411 0.31857 0.09988 0.0
C656 C 0.10526 0.34983 0.10718 0.0
C657 C 0.16606 0.30085 0.10936 0.0
C658 C 0.05683 0.41994 0.0599 0.0
C659 C 0.0659 0.39995 0.06962 0.0
C660 C 0.11085 0.36167 0.06206 0.0
C661 C 0.1321 0.31897 0.10548 0.0
C662 C 0.11941 0.33752 0.0948 0.0
C663 C 0.08715 0.39542 0.06399 0.0
C664 C 0.09727 0.37462 0.0745 0.0
H665 H 0.12618 0.26993 0.14198 0.0
H666 H 0.1054 0.30117 0.1256 0.0
H667 H 0.13225 0.33392 0.06203 0.0
H668 H 0.09981 0.44301 0.02691 0.0
H669 H 0.11557 0.40865 0.04393 0.0
C670 C 0.61585 0.21284 0.87865 0.0
C671 C 0.61848 0.23422 0.88961 0.0
C672 C 0.60409 0.19225 0.8886 0.0
C673 C 0.58576 0.16495 0.94343 0.0
H674 H 0.54832 0.12187 0.91027 0.0
C675 C 0.53168 0.08525 0.98597 0.0
C676 C 0.53091 0.06317 0.97611 0.0
C677 C 0.54131 0.10634 0.97488 0.0
C678 C 0.55886 0.13362 0.91971 0.0
H679 H 0.60998 0.25105 0.91917 0.0
H680 H 0.58938 0.21528 0.93644 0.0
H681 H 0.5669 0.15833 0.89179 0.0
H682 H 0.53939 0.04617 0.94657 0.0
H683 H 0.5563 0.08294 0.92734 0.0
H684 H 0.57783 0.14028 0.97131 0.0
C685 C 0.59682 0.21421 0.92038 0.0
C686 C 0.56952 0.15451 0.90912 0.0
C687 C 0.6086 0.23473 0.91047 0.0
C688 C 0.53966 0.06282 0.95469 0.0
C689 C 0.54927 0.08395 0.94359 0.0
C690 C 0.5751 0.14413 0.954 0.0
C691 C 0.59465 0.19261 0.90971 0.0
C692 C 0.58309 0.17045 0.92087 0.0
C693 C 0.5504 0.10592 0.95365 0.0
C694 C 0.56151 0.1282 0.9423 0.0
H695 H 0.62344 0.21179 0.86266 0.0
H696 H 0.60295 0.17586 0.88001 0.0
H697 H 0.59642 0.17655 0.9529 0.0
H698 H 0.52503 0.08626 1.00239 0.0
H699 H 0.54162 0.12302 0.98297 0.0
C700 C 0.87166 0.7881 0.38143 0.0
C701 C 0.88156 0.78097 0.36233 0.0
C702 C 0.88121 0.80716 0.39263 0.0
C703 C 0.93292 0.84307 0.40106 0.0
H704 H 0.89535 0.88833 0.42254 0.0
C705 C 0.96463 0.92992 0.44266 0.0
C706 C 0.95242 0.93588 0.46081 0.0
C707 C 0.957 0.91097 0.43008 0.0
C708 C 0.90605 0.87572 0.41686 0.0
H709 H 0.9095 0.78816 0.3402 0.0
H710 H 0.92629 0.8216 0.3599 0.0
H711 H 0.88024 0.85563 0.40139 0.0
H712 H 0.92298 0.9261 0.48039 0.0
H713 H 0.9099 0.893 0.45873 0.0
H714 H 0.95873 0.8632 0.41674 0.0
C715 C 0.91113 0.81225 0.3662 0.0
C716 C 0.89739 0.85699 0.40471 0.0
C717 C 0.90152 0.79312 0.35493 0.0
C718 C 0.93272 0.92214 0.46641 0.0
C719 C 0.92514 0.90323 0.4539 0.0
C720 C 0.94162 0.86187 0.41328 0.0
C721 C 0.90096 0.8196 0.38507 0.0
C722 C 0.91064 0.84025 0.39691 0.0
C723 C 0.93701 0.89762 0.4354 0.0
C724 C 0.9282 0.87822 0.42157 0.0
H725 H 0.85657 0.77875 0.38792 0.0
H726 H 0.8732 0.81201 0.40738 0.0
H727 H 0.94352 0.83036 0.3954 0.0
H728 H 0.97987 0.94019 0.4379 0.0
H729 H 0.96648 0.90719 0.41586 0.0
C730 C 0.41736 0.73138 0.63326 0.0
C731 C 0.39549 0.73588 0.63214 0.0
C732 C 0.42504 0.7127 0.62217 0.0
C733 C 0.4062 0.6558 0.59773 0.0
H734 H 0.46307 0.66357 0.56932 0.0
C735 C 0.4348 0.58545 0.54199 0.0
C736 C 0.45587 0.5788 0.54498 0.0
C737 C 0.42793 0.60517 0.55207 0.0
C738 C 0.44724 0.66107 0.57735 0.0
H739 H 0.36457 0.72422 0.61834 0.0
H740 H 0.37807 0.69211 0.59854 0.0
H741 H 0.44999 0.69701 0.58775 0.0
H742 H 0.48643 0.58803 0.56053 0.0
H743 H 0.47439 0.62261 0.57813 0.0
H744 H 0.4034 0.61994 0.58722 0.0
C745 C 0.38924 0.70279 0.60828 0.0
C746 C 0.43973 0.68022 0.58793 0.0
C747 C 0.38155 0.72142 0.61942 0.0
C748 C 0.47009 0.59269 0.55789 0.0
C749 C 0.46323 0.61254 0.56791 0.0
C750 C 0.41366 0.63674 0.58707 0.0
C751 C 0.41106 0.69809 0.60962 0.0
C752 C 0.4191 0.67782 0.59824 0.0
C753 C 0.44198 0.61881 0.56532 0.0
C754 C 0.43424 0.63915 0.57672 0.0
H755 H 0.42862 0.74235 0.64266 0.0
H756 H 0.44188 0.70948 0.62375 0.0
H757 H 0.39042 0.65313 0.60586 0.0
H758 H 0.42343 0.57522 0.53209 0.0
H759 H 0.41157 0.60976 0.54948 0.0
C760 C 0.90118 0.90141 0.70985 0.0
C761 C 0.88331 0.88441 0.70758 0.0
C762 C 0.91206 0.91312 0.69132 0.0
C763 C 0.90609 0.92977 0.63254 0.0
H764 H 0.96881 0.93378 0.63053 0.0
C765 C 0.95611 0.96337 0.55367 0.0
C766 C 0.97597 0.97723 0.55603 0.0
C767 C 0.94456 0.95228 0.5721 0.0
C768 C 0.95132 0.93317 0.63091 0.0
H769 H 0.86251 0.86679 0.68409 0.0
H770 H 0.8815 0.88735 0.65165 0.0
H771 H 0.94895 0.9145 0.66278 0.0
H772 H 0.99904 0.99058 0.57974 0.0
H773 H 0.97866 0.9718 0.61182 0.0
H774 H 0.9084 0.94874 0.60083 0.0
C775 C 0.88708 0.89158 0.6678 0.0
C776 C 0.93994 0.92204 0.6494 0.0
C777 C 0.87632 0.87968 0.68635 0.0
C778 C 0.98387 0.9799 0.57728 0.0
C779 C 0.97223 0.96899 0.59571 0.0
C780 C 0.91748 0.9411 0.6141 0.0
C781 C 0.90521 0.90825 0.67008 0.0
C782 C 0.91721 0.9202 0.65042 0.0
C783 C 0.95246 0.95492 0.59337 0.0
C784 C 0.94026 0.94294 0.61303 0.0
H785 H 0.90708 0.90528 0.72597 0.0
H786 H 0.92585 0.92604 0.6936 0.0
H787 H 0.88858 0.92885 0.63296 0.0
H788 H 0.94959 0.96079 0.53755 0.0
H789 H 0.92958 0.9413 0.56959 0.0
C790 C 0.59732 0.11832 0.23593 0.0
C791 C 0.61934 0.12663 0.23713 0.0
C792 C 0.58928 0.10811 0.21706 0.0
C793 C 0.60084 0.10744 0.15775 0.0
H794 H 0.55616 0.05382 0.1616 0.0
C795 C 0.54627 0.08367 0.08526 0.0
C796 C 0.5404 0.05929 0.08207 0.0
C797 C 0.55785 0.09036 0.10368 0.0
C798 C 0.56881 0.06861 0.1602 0.0
H799 H 0.65025 0.13041 0.21949 0.0
H800 H 0.63626 0.11225 0.18662 0.0
H801 H 0.57292 0.06746 0.19503 0.0
H802 H 0.54253 0.02276 0.09552 0.0
H803 H 0.56288 0.03448 0.12766 0.0
H804 H 0.59673 0.10859 0.12292 0.0
C805 C 0.62518 0.11386 0.20024 0.0
C806 C 0.57824 0.07661 0.17939 0.0
C807 C 0.63323 0.12404 0.21915 0.0
C808 C 0.54675 0.04171 0.09752 0.0
C809 C 0.5583 0.04842 0.116 0.0
C810 C 0.59138 0.09947 0.13857 0.0
C811 C 0.60306 0.10596 0.1989 0.0
C812 C 0.59416 0.09632 0.17842 0.0
C813 C 0.56383 0.07284 0.11939 0.0
C814 C 0.57504 0.08017 0.13959 0.0
H815 H 0.58623 0.11978 0.24959 0.0
H816 H 0.57213 0.10244 0.21652 0.0
H817 H 0.61293 0.12279 0.15641 0.0
H818 H 0.54164 0.09768 0.0737 0.0
H819 H 0.5616 0.10933 0.10592 0.0
C820 C 0.3956 0.61915 0.3283 0.0
C821 C 0.40039 0.61292 0.30691 0.0
C822 C 0.40445 0.60754 0.34654 0.0
C823 C 0.45083 0.57473 0.36239 0.0
H824 H 0.41631 0.55394 0.41501 0.0
C825 C 0.48607 0.52129 0.43518 0.0
C826 C 0.48023 0.52672 0.45654 0.0
C827 C 0.47557 0.53068 0.41691 0.0
C828 C 0.42627 0.55989 0.40055 0.0
H829 H 0.41822 0.5896 0.28793 0.0
H830 H 0.43364 0.56932 0.31977 0.0
H831 H 0.39935 0.57258 0.38329 0.0
H832 H 0.45862 0.54631 0.47537 0.0
H833 H 0.44072 0.56307 0.44357 0.0
H834 H 0.47784 0.56261 0.37965 0.0
C835 C 0.42306 0.58321 0.32241 0.0
C836 C 0.41651 0.57052 0.38236 0.0
C837 C 0.41406 0.59466 0.3042 0.0
C838 C 0.46348 0.54159 0.45918 0.0
C839 C 0.45309 0.55113 0.4409 0.0
C840 C 0.46063 0.56429 0.38062 0.0
C841 C 0.41846 0.58961 0.34378 0.0
C842 C 0.42869 0.57804 0.36307 0.0
C843 C 0.45908 0.54592 0.4195 0.0
C844 C 0.44849 0.55672 0.39996 0.0
H845 H 0.385 0.63303 0.33092 0.0
H846 H 0.40071 0.61298 0.36279 0.0
H847 H 0.46073 0.58068 0.34788 0.0
H848 H 0.4988 0.50979 0.43252 0.0
H849 H 0.48037 0.52588 0.40074 0.0
C850 C 0.14195 0.41285 0.83701 0.0
C851 C 0.13228 0.41017 0.81653 0.0
C852 C 0.13105 0.42263 0.85402 0.0
C853 C 0.08739 0.46105 0.86442 0.0
H854 H 0.08897 0.433 0.92413 0.0
C855 C 0.03339 0.48861 0.93499 0.0
C856 C 0.04224 0.48968 0.95602 0.0
C857 C 0.04484 0.47985 0.91777 0.0
C858 C 0.08861 0.44128 0.90761 0.0
H859 H 0.10355 0.41571 0.79788 0.0
H860 H 0.08442 0.43251 0.82766 0.0
H861 H 0.10774 0.41537 0.89467 0.0
H862 H 0.07051 0.48313 0.97512 0.0
H863 H 0.09056 0.46824 0.94506 0.0
H864 H 0.0683 0.48699 0.87734 0.0
C865 C 0.10052 0.42721 0.8305 0.0
C866 C 0.09934 0.43112 0.89071 0.0
C867 C 0.11138 0.41733 0.81351 0.0
C868 C 0.0631 0.48242 0.95922 0.0
C869 C 0.07455 0.47371 0.94199 0.0
C870 C 0.0767 0.47125 0.88133 0.0
C871 C 0.11025 0.43006 0.85093 0.0
C872 C 0.09883 0.44086 0.86891 0.0
C873 C 0.06545 0.47199 0.92113 0.0
C874 C 0.07715 0.46147 0.90314 0.0
H875 H 0.15795 0.4073 0.83993 0.0
H876 H 0.13908 0.42474 0.8695 0.0
H877 H 0.08695 0.4692 0.84785 0.0
H878 H 0.01736 0.49396 0.9319 0.0
H879 H 0.03724 0.47856 0.90199 0.0
C880 C 0.70023 0.90876 0.84747 0.0
C881 C 0.71433 0.89425 0.85866 0.0
C882 C 0.68289 0.91715 0.85856 0.0
C883 C 0.64739 0.90647 0.908 0.0
H884 H 0.6377 0.97337 0.89563 0.0
C885 C 0.58188 0.95261 0.95462 0.0
C886 C 0.5701 0.96844 0.94189 0.0
C887 C 0.59998 0.9433 0.94558 0.0
C888 C 0.64 0.95458 0.89912 0.0
H889 H 0.72088 0.87681 0.89035 0.0
H890 H 0.69034 0.89129 0.90968 0.0
H891 H 0.66786 0.95715 0.87765 0.0
H892 H 0.56802 0.9867 0.9096 0.0
H893 H 0.59915 0.9703 0.89386 0.0
H894 H 0.61927 0.90386 0.92927 0.0
C895 C 0.69277 0.8961 0.89226 0.0
C896 C 0.65733 0.94529 0.88882 0.0
C897 C 0.71025 0.88778 0.88116 0.0
C898 C 0.57679 0.9747 0.91996 0.0
C899 C 0.59477 0.96538 0.91094 0.0
C900 C 0.62992 0.91576 0.91827 0.0
C901 C 0.67908 0.91116 0.88113 0.0
C902 C 0.6611 0.92107 0.89293 0.0
C903 C 0.60666 0.94962 0.92361 0.0
C904 C 0.62587 0.93988 0.91374 0.0
H905 H 0.70254 0.91364 0.83005 0.0
H906 H 0.67237 0.9283 0.8494 0.0
H907 H 0.64979 0.88769 0.91141 0.0
H908 H 0.57716 0.94743 0.97158 0.0
H909 H 0.60887 0.93139 0.95588 0.0
C910 C 0.80944 0.11219 0.36077 0.0
C911 C 0.7908 0.11424 0.37366 0.0
C912 C 0.82798 0.10425 0.37033 0.0
C913 C 0.8554 0.09559 0.42328 0.0
H914 H 0.88472 0.04932 0.39224 0.0
C915 C 0.92307 0.0426 0.46175 0.0
C916 C 0.94041 0.03842 0.44782 0.0
C917 C 0.90517 0.0532 0.45326 0.0
C918 C 0.87693 0.06248 0.401 0.0
H919 H 0.77718 0.10987 0.40684 0.0
H920 H 0.80961 0.09599 0.42357 0.0
H921 H 0.85299 0.06539 0.37646 0.0
H922 H 0.95291 0.04296 0.4142 0.0
H923 H 0.92199 0.06172 0.39953 0.0
H924 H 0.87941 0.09255 0.44788 0.0
C925 C 0.80992 0.10076 0.40606 0.0
C926 C 0.8587 0.07169 0.39195 0.0
C927 C 0.79134 0.10872 0.39647 0.0
C928 C 0.93975 0.04571 0.42537 0.0
C929 C 0.92194 0.05635 0.41692 0.0
C930 C 0.8737 0.08637 0.43235 0.0
C931 C 0.82837 0.09815 0.39305 0.0
C932 C 0.84775 0.08843 0.40291 0.0
C933 C 0.90426 0.05988 0.43068 0.0
C934 C 0.88474 0.06977 0.42126 0.0
H935 H 0.80973 0.11676 0.34322 0.0
H936 H 0.84206 0.10292 0.3599 0.0
H937 H 0.84744 0.10862 0.43205 0.0
H938 H 0.92306 0.03715 0.47913 0.0
H939 H 0.89177 0.0555 0.4643 0.0
C940 C 0.21299 0.61413 0.15903 0.0
C941 C 0.23264 0.60475 0.1544 0.0
C942 C 0.19443 0.60741 0.14736 0.0
C943 C 0.17569 0.57756 0.09708 0.0
H944 H 0.12113 0.56727 0.12979 0.0
C945 C 0.09513 0.54663 0.05579 0.0
C946 C 0.08091 0.52957 0.06811 0.0
C947 C 0.11322 0.55812 0.06557 0.0
C948 C 0.13624 0.56988 0.1204 0.0
H949 H 0.24825 0.58096 0.13395 0.0
H950 H 0.21582 0.56869 0.11398 0.0
H951 H 0.15361 0.58226 0.14804 0.0
H952 H 0.07462 0.51117 0.10035 0.0
H953 H 0.10618 0.53056 0.11711 0.0
H954 H 0.15842 0.56398 0.06974 0.0
C955 C 0.21478 0.58175 0.1262 0.0
C956 C 0.15488 0.57886 0.13082 0.0
C957 C 0.23339 0.58868 0.13771 0.0
C958 C 0.08511 0.52435 0.09039 0.0
C959 C 0.10321 0.53564 0.10008 0.0
C960 C 0.15705 0.56837 0.0867 0.0
C961 C 0.195 0.59091 0.13094 0.0
C962 C 0.17493 0.5826 0.11939 0.0
C963 C 0.11754 0.55267 0.08784 0.0
C964 C 0.13712 0.56411 0.09831 0.0
H965 H 0.21201 0.62682 0.17159 0.0
H966 H 0.17965 0.61522 0.1512 0.0
H967 H 0.19074 0.58057 0.08762 0.0
H968 H 0.09231 0.55109 0.03859 0.0
H969 H 0.12376 0.57133 0.05569 0.0
C970 C 0.29637 0.39465 0.6622 0.0
C971 C 0.28012 0.38448 0.64892 0.0
C972 C 0.31568 0.40608 0.65277 0.0
C973 C 0.34988 0.40961 0.60217 0.0
H974 H 0.37527 0.4692 0.62401 0.0
C975 C 0.42117 0.46846 0.55732 0.0
C976 C 0.43728 0.47921 0.57042 0.0
C977 C 0.40225 0.45634 0.567 0.0
C978 C 0.36854 0.45242 0.61789 0.0
H979 H 0.2712 0.37898 0.61525 0.0
H980 H 0.30482 0.39888 0.59884 0.0
H981 H 0.34175 0.44939 0.64082 0.0
H982 H 0.44635 0.4852 0.60397 0.0
H983 H 0.41354 0.46386 0.62078 0.0
H984 H 0.37665 0.41267 0.57921 0.0
C985 C 0.30283 0.39762 0.61658 0.0
C986 C 0.34932 0.44107 0.62753 0.0
C987 C 0.28355 0.38622 0.62599 0.0
C988 C 0.43422 0.47723 0.59338 0.0
C989 C 0.41533 0.46513 0.60303 0.0
C990 C 0.36911 0.42096 0.59253 0.0
C991 C 0.31916 0.40761 0.62985 0.0
C992 C 0.33974 0.41956 0.61976 0.0
C993 C 0.39904 0.45471 0.58996 0.0
C994 C 0.37866 0.44251 0.60027 0.0
H995 H 0.29434 0.39336 0.67993 0.0
H996 H 0.32804 0.41333 0.66348 0.0
H997 H 0.3431 0.39286 0.59602 0.0
H998 H 0.423 0.46972 0.53958 0.0
H999 H 0.38992 0.44872 0.55644 0.0
C1000 C 0.8551 0.71299 0.90511 0.0
C1001 C 0.8601 0.72289 0.88362 0.0
C1002 C 0.86664 0.69485 0.9145 0.0
C1003 C 0.91825 0.66795 0.91132 0.0
H1004 H 0.88589 0.61351 0.94329 0.0
C1005 C 0.95804 0.58411 0.94704 0.0
C1006 C 0.94966 0.57339 0.96729 0.0
C1007 C 0.94807 0.60287 0.93627 0.0
C1008 C 0.89524 0.62872 0.93469 0.0
H1009 H 0.88132 0.72133 0.85519 0.0
H1010 H 0.9017 0.68982 0.87178 0.0
H1011 H 0.86665 0.64498 0.92546 0.0
H1012 H 0.92493 0.57474 0.99264 0.0
H1013 H 0.908 0.60765 0.97428 0.0
H1014 H 0.9469 0.65179 0.92085 0.0
C1015 C 0.88884 0.69627 0.88134 0.0
C1016 C 0.88417 0.64673 0.9244 0.0
C1017 C 0.87717 0.71434 0.87186 0.0
C1018 C 0.93165 0.5824 0.97692 0.0
C1019 C 0.92183 0.60119 0.9663 0.0
C1020 C 0.92938 0.64995 0.92176 0.0
C1021 C 0.88359 0.68622 0.90271 0.0
C1022 C 0.89553 0.66667 0.91279 0.0
C1023 C 0.9296 0.61135 0.94562 0.0
C1024 C 0.918 0.63023 0.93379 0.0
H1025 H 0.84242 0.71947 0.91488 0.0
H1026 H 0.86245 0.68778 0.93115 0.0
H1027 H 0.92746 0.68319 0.9026 0.0
H1028 H 0.97186 0.5775 0.93916 0.0
H1029 H 0.95443 0.61017 0.92032 0.0
C1030 C 0.40201 0.79642 0.13826 0.0
C1031 C 0.39867 0.775 0.12744 0.0
C1032 C 0.41407 0.81666 0.12805 0.0
C1033 C 0.43189 0.84326 0.07288 0.0
H1034 H 0.47087 0.88559 0.1052 0.0
C1035 C 0.48606 0.92223 0.02921 0.0
C1036 C 0.48732 0.94429 0.03915 0.0
C1037 C 0.4765 0.9012 0.04047 0.0
C1038 C 0.45991 0.87404 0.09599 0.0
H1039 H 0.40621 0.75773 0.09783 0.0
H1040 H 0.42732 0.7929 0.0801 0.0
H1041 H 0.45198 0.84953 0.12408 0.0
H1042 H 0.47992 0.96129 0.06902 0.0
H1043 H 0.46312 0.92465 0.08851 0.0
H1044 H 0.43967 0.86776 0.04484 0.0
C1045 C 0.42022 0.79427 0.09627 0.0
C1046 C 0.44907 0.85339 0.10681 0.0
C1047 C 0.40814 0.77409 0.10644 0.0
C1048 C 0.47922 0.94465 0.06081 0.0
C1049 C 0.46968 0.9236 0.07207 0.0
C1050 C 0.44272 0.86385 0.06207 0.0
C1051 C 0.42309 0.81591 0.10681 0.0
C1052 C 0.43492 0.83775 0.09538 0.0
C1053 C 0.468 0.90167 0.06195 0.0
C1054 C 0.45685 0.87952 0.07348 0.0
H1055 H 0.39474 0.79778 0.15435 0.0
H1056 H 0.41576 0.8331 0.13655 0.0
H1057 H 0.42079 0.83188 0.06365 0.0
H1058 H 0.49219 0.92121 0.01261 0.0
H1059 H 0.47576 0.88453 0.03232 0.0
C1060 C 0.1266 0.21794 0.65793 0.0
C1061 C 0.11082 0.22933 0.66902 0.0
C1062 C 0.12063 0.19882 0.64499 0.0
C1063 C 0.07427 0.17083 0.61537 0.0
H1064 H 0.10928 0.11712 0.61471 0.0
C1065 C 0.04946 0.0847 0.57029 0.0
C1066 C 0.06593 0.07527 0.5584 0.0
C1067 C 0.05443 0.1035 0.58394 0.0
C1068 C 0.09945 0.1321 0.61456 0.0
H1069 H 0.07631 0.2294 0.67521 0.0
H1070 H 0.06591 0.19559 0.65307 0.0
H1071 H 0.11872 0.14943 0.63873 0.0
H1072 H 0.10051 0.07841 0.55134 0.0
H1073 H 0.10913 0.11121 0.57505 0.0
H1074 H 0.05495 0.15334 0.59122 0.0
C1075 C 0.08292 0.20171 0.65413 0.0
C1076 C 0.10487 0.15064 0.62832 0.0
C1077 C 0.0889 0.22091 0.66705 0.0
C1078 C 0.08743 0.0852 0.56029 0.0
C1079 C 0.0924 0.1039 0.574 0.0
C1080 C 0.0688 0.15221 0.60166 0.0
C1081 C 0.09871 0.19049 0.64287 0.0
C1082 C 0.09245 0.17034 0.62878 0.0
C1083 C 0.07599 0.11318 0.58608 0.0
C1084 C 0.08143 0.13273 0.60099 0.0
H1085 H 0.14365 0.22372 0.6593 0.0
H1086 H 0.13322 0.1908 0.63637 0.0
H1087 H 0.06452 0.18588 0.61507 0.0
H1088 H 0.03273 0.07743 0.56922 0.0
H1089 H 0.04145 0.11013 0.59317 0.0
C1090 C 0.62485 0.28477 0.39329 0.0
C1091 C 0.64013 0.27333 0.40594 0.0
C1092 C 0.61384 0.30292 0.40183 0.0
C1093 C 0.61947 0.34792 0.44299 0.0
H1094 H 0.55772 0.35109 0.43677 0.0
C1095 C 0.57581 0.41601 0.4885 0.0
C1096 C 0.56027 0.42826 0.47713 0.0
C1097 C 0.58391 0.39605 0.47999 0.0
C1098 C 0.57502 0.35061 0.43843 0.0
H1099 H 0.65504 0.2714 0.43784 0.0
H1100 H 0.63614 0.30322 0.4525 0.0
H1101 H 0.57514 0.31842 0.42116 0.0
H1102 H 0.54041 0.42867 0.44825 0.0
H1103 H 0.55492 0.39397 0.43305 0.0
H1104 H 0.61964 0.38015 0.45984 0.0
C1105 C 0.63291 0.29838 0.43588 0.0
C1106 C 0.58497 0.33189 0.42951 0.0
C1107 C 0.64379 0.28018 0.42744 0.0
C1108 C 0.55236 0.41955 0.45742 0.0
C1109 C 0.56065 0.39963 0.44874 0.0
C1110 C 0.6096 0.36665 0.45173 0.0
C1111 C 0.61796 0.31011 0.42312 0.0
C1112 C 0.60727 0.33023 0.43192 0.0
C1113 C 0.57688 0.38797 0.45972 0.0
C1114 C 0.58721 0.36813 0.44982 0.0
H1115 H 0.62178 0.28014 0.37659 0.0
H1116 H 0.60254 0.31178 0.39154 0.0
H1117 H 0.63676 0.34742 0.4447 0.0
H1118 H 0.58204 0.42209 0.50387 0.0
H1119 H 0.59593 0.38714 0.48921 0.0
loop_
_geom_bond_atom_site_label_1
_geom_bond_atom_site_label_2
_geom_bond_distance
_geom_bond_site_symmetry_2
_ccdc_geom_bond_type
C0 C1 1.264 . S
C0 C5 1.479 . S
C0 C10 1.465 . S
C1 C0 1.264 . S
C1 C3 1.339 . S
C1 H28 0.931 . S
C2 C3 1.395 . S
C2 C4 1.320 . S
C3 C1 1.339 . S
C3 C2 1.395 . S
C3 H29 0.929 . S
C4 C2 1.320 . S
C4 C5 1.405 . S
C4 H30 0.930 . S
C5 C0 1.479 . S
C5 C4 1.405 . S
C5 H31 0.931 . S
U6 O7 2.454 . S
U6 O8 2.458 . S
U6 C9 2.984 . S
U6 C10 2.847 . S
U6 C23 2.882 . S
U6 O24 2.441 . S
U6 O25 2.420 . S
U6 O26 2.455 . S
U6 O27 2.449 . S
O7 U6 2.454 . S
O7 C9 1.353 . S
O8 U6 2.458 . S
O8 C9 1.286 . S
C9 U6 2.984 . S
C9 O7 1.353 . S
C9 O8 1.286 . S
C9 C11 1.363 . S
C10 C0 1.465 . S
C10 U6 2.847 . S
C10 O24 1.249 . S
C10 O25 1.202 . S
C11 C9 1.363 . S
C11 C13 1.408 . S
C11 C16 1.342 . S
C12 C13 1.310 . S
C12 C15 1.461 . S
C12 H32 0.932 . S
C13 C11 1.408 . S
C13 C12 1.310 . S
C13 H33 0.930 . S
C14 C15 1.474 . S
C14 C16 1.285 . S
C14 H34 0.929 . S
C15 C12 1.461 . S
C15 C14 1.474 . S
C16 C11 1.342 . S
C16 C14 1.285 . S
C16 H35 0.930 . S
C17 C20 1.424 . S
C17 C22 1.245 . S
C17 C23 1.428 . S
C18 C21 1.260 . S
C18 C22 1.477 . S
C18 H36 0.932 . S
C19 C20 1.384 . S
C19 C21 1.479 . S
C19 H37 0.929 . S
C20 C17 1.424 . S
C20 C19 1.384 . S
C20 H38 0.928 . S
C21 C18 1.260 . S
C21 C19 1.479 . S
C22 C17 1.245 . S
C22 C18 1.477 . S
C22 H39 0.932 . S
C23 U6 2.882 . S
C23 C17 1.428 . S
C23 O26 1.301 . S
C23 O27 1.282 . S
O24 U6 2.441 . S
O24 C10 1.249 . S
O25 U6 2.420 . S
O25 C10 1.202 . S
O26 U6 2.455 . S
O26 C23 1.301 . S
O27 U6 2.449 . S
O27 C23 1.282 . S
H28 C1 0.931 . S
H29 C3 0.929 . S
H30 C4 0.930 . S
H31 C5 0.931 . S
H32 C12 0.932 . S
H33 C13 0.930 . S
H34 C14 0.929 . S
H35 C16 0.930 . S
H36 C18 0.932 . S
H37 C19 0.929 . S
H38 C20 0.928 . S
H39 C22 0.932 . S
C40 C41 1.264 . S
C40 C45 1.479 . S
C40 C50 1.465 . S
C41 C40 1.264 . S
C41 C43 1.339 . S
C41 H68 0.931 . S
C42 C43 1.395 . S
C42 C44 1.320 . S
C43 C41 1.339 . S
C43 C42 1.395 . S
C43 H69 0.929 . S
C44 C42 1.320 . S
C44 C45 1.405 . S
C44 H70 0.930 . S
C45 C40 1.479 . S
C45 C44 1.405 . S
C45 H71 0.931 . S
U46 O47 2.454 . S
U46 O48 2.458 . S
U46 C49 2.984 . S
U46 C50 2.847 . S
U46 C63 2.882 . S
U46 O64 2.441 . S
U46 O65 2.420 . S
U46 O66 2.455 . S
U46 O67 2.449 . S
O47 U46 2.454 . S
O47 C49 1.353 . S
O48 U46 2.458 . S
O48 C49 1.286 . S
C49 U46 2.984 . S
C49 O47 1.353 . S
C49 O48 1.286 . S
C49 C51 1.363 . S
C50 C40 1.465 . S
C50 U46 2.847 . S
C50 O64 1.249 . S
C50 O65 1.202 . S
C51 C49 1.363 . S
C51 C53 1.408 . S
C51 C56 1.342 . S
C52 C53 1.310 . S
C52 C55 1.461 . S
C52 H72 0.932 . S
C53 C51 1.408 . S
C53 C52 1.310 . S
C53 H73 0.930 . S
C54 C55 1.474 . S
C54 C56 1.285 . S
C54 H74 0.929 . S
C55 C52 1.461 . S
C55 C54 1.474 . S
C56 C51 1.342 . S
C56 C54 1.285 . S
C56 H75 0.930 . S
C57 C60 1.424 . S
C57 C62 1.245 . S
C57 C63 1.428 . S
C58 C61 1.260 . S
C58 C62 1.477 . S
C58 H76 0.932 . S
C59 C60 1.384 . S
C59 C61 1.479 . S
C59 H77 0.929 . S
C60 C57 1.424 . S
C60 C59 1.384 . S
C60 H78 0.928 . S
C61 C58 1.260 . S
C61 C59 1.479 . S
C62 C57 1.245 . S
C62 C58 1.477 . S
C62 H79 0.932 . S
C63 U46 2.882 . S
C63 C57 1.428 . S
C63 O66 1.301 . S
C63 O67 1.282 . S
O64 U46 2.441 . S
O64 C50 1.249 . S
O65 U46 2.420 . S
O65 C50 1.202 . S
O66 U46 2.455 . S
O66 C63 1.301 . S
O67 U46 2.449 . S
O67 C63 1.282 . S
H68 C41 0.931 . S
H69 C43 0.929 . S
H70 C44 0.930 . S
H71 C45 0.931 . S
H72 C52 0.932 . S
H73 C53 0.930 . S
H74 C54 0.929 . S
H75 C56 0.930 . S
H76 C58 0.932 . S
H77 C59 0.929 . S
H78 C60 0.928 . S
H79 C62 0.932 . S
C80 C81 1.264 . S
C80 C85 1.479 . S
C80 C90 1.465 . S
C81 C80 1.264 . S
C81 C83 1.339 . S
C81 H108 0.931 . S
C82 C83 1.395 . S
C82 C84 1.320 . S
C83 C81 1.339 . S
C83 C82 1.395 . S
C83 H109 0.929 . S
C84 C82 1.320 . S
C84 C85 1.405 . S
C84 H110 0.930 . S
C85 C80 1.479 . S
C85 C84 1.405 . S
C85 H111 0.931 . S
U86 O87 2.454 . S
U86 O88 2.458 . S
U86 C89 2.984 . S
U86 C90 2.847 . S
U86 C103 2.882 . S
U86 O104 2.441 . S
U86 O105 2.420 . S
U86 O106 2.455 . S
U86 O107 2.449 . S
O87 U86 2.454 . S
O87 C89 1.353 . S
O88 U86 2.458 . S
O88 C89 1.286 . S
C89 U86 2.984 . S
C89 O87 1.353 . S
C89 O88 1.286 . S
C89 C91 1.363 . S
C90 C80 1.465 . S
C90 U86 2.847 . S
C90 O104 1.249 . S
C90 O105 1.202 . S
C91 C89 1.363 . S
C91 C93 1.408 . S
C91 C96 1.342 . S
C92 C93 1.310 . S
C92 C95 1.461 . S
C92 H112 0.932 . S
C93 C91 1.408 . S
C93 C92 1.310 . S
C93 H113 0.930 . S
C94 C95 1.474 . S
C94 C96 1.285 . S
C94 H114 0.929 . S
C95 C92 1.461 . S
C95 C94 1.474 . S
C96 C91 1.342 . S
C96 C94 1.285 . S
C96 H115 0.930 . S
C97 C100 1.424 . S
C97 C102 1.245 . S
C97 C103 1.428 . S
C98 C101 1.260 . S
C98 C102 1.477 . S
C98 H116 0.932 . S
C99 C100 1.384 . S
C99 C101 1.479 . S
C99 H117 0.929 . S
C100 C97 1.424 . S
C100 C99 1.384 . S
C100 H118 0.928 . S
C101 C98 1.260 . S
C101 C99 1.479 . S
C102 C97 1.245 . S
C102 C98 1.477 . S
C102 H119 0.932 . S
C103 U86 2.882 . S
C103 C97 1.428 . S
C103 O106 1.301 . S
C103 O107 1.282 . S
O104 U86 2.441 . S
O104 C90 1.249 . S
O105 U86 2.420 . S
O105 C90 1.202 . S
O106 U86 2.455 . S
O106 C103 1.301 . S
O107 U86 2.449 . S
O107 C103 1.282 . S
H108 C81 0.931 . S
H109 C83 0.929 . S
H110 C84 0.930 . S
H111 C85 0.931 . S
H112 C92 0.932 . S
H113 C93 0.930 . S
H114 C94 0.929 . S
H115 C96 0.930 . S
H116 C98 0.932 . S
H117 C99 0.929 . S
H118 C100 0.928 . S
H119 C102 0.932 . S
C120 C121 1.264 . S
C120 C125 1.479 . S
C120 C130 1.465 . S
C121 C120 1.264 . S
C121 C123 1.339 . S
C121 H148 0.931 . S
C122 C123 1.395 . S
C122 C124 1.320 . S
C123 C121 1.339 . S
C123 C122 1.395 . S
C123 H149 0.929 . S
C124 C122 1.320 . S
C124 C125 1.405 . S
C124 H150 0.930 . S
C125 C120 1.479 . S
C125 C124 1.405 . S
C125 H151 0.931 . S
U126 O127 2.454 . S
U126 O128 2.458 . S
U126 C129 2.984 . S
U126 C130 2.847 . S
U126 C143 2.882 . S
U126 O144 2.441 . S
U126 O145 2.420 . S
U126 O146 2.455 . S
U126 O147 2.449 . S
O127 U126 2.454 . S
O127 C129 1.353 . S
O128 U126 2.458 . S
O128 C129 1.286 . S
C129 U126 2.984 . S
C129 O127 1.353 . S
C129 O128 1.286 . S
C129 C131 1.363 . S
C130 C120 1.465 . S
C130 U126 2.847 . S
C130 O144 1.249 . S
C130 O145 1.202 . S
C131 C129 1.363 . S
C131 C133 1.408 . S
C131 C136 1.342 . S
C132 C133 1.310 . S
C132 C135 1.461 . S
C132 H152 0.932 . S
C133 C131 1.408 . S
C133 C132 1.310 . S
C133 H153 0.930 . S
C134 C135 1.474 . S
C134 C136 1.285 . S
C134 H154 0.929 . S
C135 C132 1.461 . S
C135 C134 1.474 . S
C136 C131 1.342 . S
C136 C134 1.285 . S
C136 H155 0.930 . S
C137 C140 1.424 . S
C137 C142 1.245 . S
C137 C143 1.428 . S
C138 C141 1.260 . S
C138 C142 1.477 . S
C138 H156 0.932 . S
C139 C140 1.384 . S
C139 C141 1.479 . S
C139 H157 0.929 . S
C140 C137 1.424 . S
C140 C139 1.384 . S
C140 H158 0.928 . S
C141 C138 1.260 . S
C141 C139 1.479 . S
C142 C137 1.245 . S
C142 C138 1.477 . S
C142 H159 0.932 . S
C143 U126 2.882 . S
C143 C137 1.428 . S
C143 O146 1.301 . S
C143 O147 1.282 . S
O144 U126 2.441 . S
O144 C130 1.249 . S
O145 U126 2.420 . S
O145 C130 1.202 . S
O146 U126 2.455 . S
O146 C143 1.301 . S
O147 U126 2.449 . S
O147 C143 1.282 . S
H148 C121 0.931 . S
H149 C123 0.929 . S
H150 C124 0.930 . S
H151 C125 0.931 . S
H152 C132 0.932 . S
H153 C133 0.930 . S
H154 C134 0.929 . S
H155 C136 0.930 . S
H156 C138 0.932 . S
H157 C139 0.929 . S
H158 C140 0.928 . S
H159 C142 0.932 . S
C160 C161 1.264 . S
C160 C165 1.479 . S
C160 C170 1.465 . S
C161 C160 1.264 . S
C161 C163 1.339 . S
C161 H188 0.931 . S
C162 C163 1.395 . S
C162 C164 1.320 . S
C163 C161 1.339 . S
C163 C162 1.395 . S
C163 H189 0.929 . S
C164 C162 1.320 . S
C164 C165 1.405 . S
C164 H190 0.930 . S
C165 C160 1.479 . S
C165 C164 1.405 . S
C165 H191 0.931 . S
U166 O167 2.454 . S
U166 O168 2.458 . S
U166 C169 2.984 . S
U166 C170 2.847 . S
U166 C183 2.882 . S
U166 O184 2.441 . S
U166 O185 2.420 . S
U166 O186 2.455 . S
U166 O187 2.449 . S
O167 U166 2.454 . S
O167 C169 1.353 . S
O168 U166 2.458 . S
O168 C169 1.286 . S
C169 U166 2.984 . S
C169 O167 1.353 . S
C169 O168 1.286 . S
C169 C171 1.363 . S
C170 C160 1.465 . S
C170 U166 2.847 . S
C170 O184 1.249 . S
C170 O185 1.202 . S
C171 C169 1.363 . S
C171 C173 1.408 . S
C171 C176 1.342 . S
C172 C173 1.310 . S
C172 C175 1.461 . S
C172 H192 0.932 . S
C173 C171 1.408 . S
C173 C172 1.310 . S
C173 H193 0.930 . S
C174 C175 1.474 . S
C174 C176 1.285 . S
C174 H194 0.929 . S
C175 C172 1.461 . S
C175 C174 1.474 . S
C176 C171 1.342 . S
C176 C174 1.285 . S
C176 H195 0.930 . S
C177 C180 1.424 . S
C177 C182 1.245 . S
C177 C183 1.428 . S
C178 C181 1.260 . S
C178 C182 1.477 . S
C178 H196 0.932 . S
C179 C180 1.384 . S
C179 C181 1.479 . S
C179 H197 0.929 . S
C180 C177 1.424 . S
C180 C179 1.384 . S
C180 H198 0.928 . S
C181 C178 1.260 . S
C181 C179 1.479 . S
C182 C177 1.245 . S
C182 C178 1.477 . S
C182 H199 0.932 . S
C183 U166 2.882 . S
C183 C177 1.428 . S
C183 O186 1.301 . S
C183 O187 1.282 . S
O184 U166 2.441 . S
O184 C170 1.249 . S
O185 U166 2.420 . S
O185 C170 1.202 . S
O186 U166 2.455 . S
O186 C183 1.301 . S
O187 U166 2.449 . S
O187 C183 1.282 . S
H188 C161 0.931 . S
H189 C163 0.929 . S
H190 C164 0.930 . S
H191 C165 0.931 . S
H192 C172 0.932 . S
H193 C173 0.930 . S
H194 C174 0.929 . S
H195 C176 0.930 . S
H196 C178 0.932 . S
H197 C179 0.929 . S
H198 C180 0.928 . S
H199 C182 0.932 . S
C200 C201 1.264 . S
C200 C205 1.479 . S
C200 C210 1.465 . S
C201 C200 1.264 . S
C201 C203 1.339 . S
C201 H228 0.931 . S
C202 C203 1.395 . S
C202 C204 1.320 . S
C203 C201 1.339 . S
C203 C202 1.395 . S
C203 H229 0.929 . S
C204 C202 1.320 . S
C204 C205 1.405 . S
C204 H230 0.930 . S
C205 C200 1.479 . S
C205 C204 1.405 . S
C205 H231 0.931 . S
U206 O207 2.454 . S
U206 O208 2.458 . S
U206 C209 2.984 . S
U206 C210 2.847 . S
U206 C223 2.882 . S
U206 O224 2.441 . S
U206 O225 2.420 . S
U206 O226 2.455 . S
U206 O227 2.449 . S
O207 U206 2.454 . S
O207 C209 1.353 . S
O208 U206 2.458 . S
O208 C209 1.286 . S
C209 U206 2.984 . S
C209 O207 1.353 . S
C209 O208 1.286 . S
C209 C211 1.363 . S
C210 C200 1.465 . S
C210 U206 2.847 . S
C210 O224 1.249 . S
C210 O225 1.202 . S
C211 C209 1.363 . S
C211 C213 1.408 . S
C211 C216 1.342 . S
C212 C213 1.310 . S
C212 C215 1.461 . S
C212 H232 0.932 . S
C213 C211 1.408 . S
C213 C212 1.310 . S
C213 H233 0.930 . S
C214 C215 1.474 . S
C214 C216 1.285 . S
C214 H234 0.929 . S
C215 C212 1.461 . S
C215 C214 1.474 . S
C216 C211 1.342 . S
C216 C214 1.285 . S
C216 H235 0.930 . S
C217 C220 1.424 . S
C217 C222 1.245 . S
C217 C223 1.428 . S
C218 C221 1.260 . S
C218 C222 1.477 . S
C218 H236 0.932 . S
C219 C220 1.384 . S
C219 C221 1.479 . S
C219 H237 0.929 . S
C220 C217 1.424 . S
C220 C219 1.384 . S
C220 H238 0.928 . S
C221 C218 1.260 . S
C221 C219 1.479 . S
C222 C217 1.245 . S
C222 C218 1.477 . S
C222 H239 0.932 . S
C223 U206 2.882 . S
C223 C217 1.428 . S
C223 O226 1.301 . S
C223 O227 1.282 . S
O224 U206 2.441 . S
O224 C210 1.249 . S
O225 U206 2.420 . S
O225 C210 1.202 . S
O226 U206 2.455 . S
O226 C223 1.301 . S
O227 U206 2.449 . S
O227 C223 1.282 . S
H228 C201 0.931 . S
H229 C203 0.929 . S
H230 C204 0.930 . S
H231 C205 0.931 . S
H232 C212 0.932 . S
H233 C213 0.930 . S
H234 C214 0.929 . S
H235 C216 0.930 . S
H236 C218 0.932 . S
H237 C219 0.929 . S
H238 C220 0.928 . S
H239 C222 0.932 . S
C240 C241 1.264 . S
C240 C245 1.479 . S
C240 C250 1.465 . S
C241 C240 1.264 . S
C241 C243 1.339 . S
C241 H268 0.931 . S
C242 C243 1.395 . S
C242 C244 1.320 . S
C243 C241 1.339 . S
C243 C242 1.395 . S
C243 H269 0.929 . S
C244 C242 1.320 . S
C244 C245 1.405 . S
C244 H270 0.930 . S
C245 C240 1.479 . S
C245 C244 1.405 . S
C245 H271 0.931 . S
U246 O247 2.454 . S
U246 O248 2.458 . S
U246 C249 2.984 . S
U246 C250 2.847 . S
U246 C263 2.882 . S
U246 O264 2.441 . S
U246 O265 2.420 . S
U246 O266 2.455 . S
U246 O267 2.449 . S
O247 U246 2.454 . S
O247 C249 1.353 . S
O248 U246 2.458 . S
O248 C249 1.286 . S
C249 U246 2.984 . S
C249 O247 1.353 . S
C249 O248 1.286 . S
C249 C251 1.363 . S
C250 C240 1.465 . S
C250 U246 2.847 . S
C250 O264 1.249 . S
C250 O265 1.202 . S
C251 C249 1.363 . S
C251 C253 1.408 . S
C251 C256 1.342 . S
C252 C253 1.310 . S
C252 C255 1.461 . S
C252 H272 0.932 . S
C253 C251 1.408 . S
C253 C252 1.310 . S
C253 H273 0.930 . S
C254 C255 1.474 . S
C254 C256 1.285 . S
C254 H274 0.929 . S
C255 C252 1.461 . S
C255 C254 1.474 . S
C256 C251 1.342 . S
C256 C254 1.285 . S
C256 H275 0.930 . S
C257 C260 1.424 . S
C257 C262 1.245 . S
C257 C263 1.428 . S
C258 C261 1.260 . S
C258 C262 1.477 . S
C258 H276 0.932 . S
C259 C260 1.384 . S
C259 C261 1.479 . S
C259 H277 0.929 . S
C260 C257 1.424 . S
C260 C259 1.384 . S
C260 H278 0.928 . S
C261 C258 1.260 . S
C261 C259 1.479 . S
C262 C257 1.245 . S
C262 C258 1.477 . S
C262 H279 0.932 . S
C263 U246 2.882 . S
C263 C257 1.428 . S
C263 O266 1.301 . S
C263 O267 1.282 . S
O264 U246 2.441 . S
O264 C250 1.249 . S
O265 U246 2.420 . S
O265 C250 1.202 . S
O266 U246 2.455 . S
O266 C263 1.301 . S
O267 U246 2.449 . S
O267 C263 1.282 . S
H268 C241 0.931 . S
H269 C243 0.929 . S
H270 C244 0.930 . S
H271 C245 0.931 . S
H272 C252 0.932 . S
H273 C253 0.930 . S
H274 C254 0.929 . S
H275 C256 0.930 . S
H276 C258 0.932 . S
H277 C259 0.929 . S
H278 C260 0.928 . S
H279 C262 0.932 . S
C280 C281 1.264 . S
C280 C285 1.479 . S
C280 C290 1.465 . S
C281 C280 1.264 . S
C281 C283 1.339 . S
C281 H308 0.931 . S
C282 C283 1.395 . S
C282 C284 1.320 . S
C283 C281 1.339 . S
C283 C282 1.395 . S
C283 H309 0.929 . S
C284 C282 1.320 . S
C284 C285 1.405 . S
C284 H310 0.930 . S
C285 C280 1.479 . S
C285 C284 1.405 . S
C285 H311 0.931 . S
U286 O287 2.454 . S
U286 O288 2.458 . S
U286 C289 2.984 . S
U286 C290 2.847 . S
U286 C303 2.882 . S
U286 O304 2.441 . S
U286 O305 2.420 . S
U286 O306 2.455 . S
U286 O307 2.449 . S
O287 U286 2.454 . S
O287 C289 1.353 . S
O288 U286 2.458 . S
O288 C289 1.286 . S
C289 U286 2.984 . S
C289 O287 1.353 . S
C289 O288 1.286 . S
C289 C291 1.363 . S
C290 C280 1.465 . S
C290 U286 2.847 . S
C290 O304 1.249 . S
C290 O305 1.202 . S
C291 C289 1.363 . S
C291 C293 1.408 . S
C291 C296 1.342 . S
C292 C293 1.310 . S
C292 C295 1.461 . S
C292 H312 0.932 . S
C293 C291 1.408 . S
C293 C292 1.310 . S
C293 H313 0.930 . S
C294 C295 1.474 . S
C294 C296 1.285 . S
C294 H314 0.929 . S
C295 C292 1.461 . S
C295 C294 1.474 . S
C296 C291 1.342 . S
C296 C294 1.285 . S
C296 H315 0.930 . S
C297 C300 1.424 . S
C297 C302 1.245 . S
C297 C303 1.428 . S
C298 C301 1.260 . S
C298 C302 1.477 . S
C298 H316 0.932 . S
C299 C300 1.384 . S
C299 C301 1.479 . S
C299 H317 0.929 . S
C300 C297 1.424 . S
C300 C299 1.384 . S
C300 H318 0.928 . S
C301 C298 1.260 . S
C301 C299 1.479 . S
C302 C297 1.245 . S
C302 C298 1.477 . S
C302 H319 0.932 . S
C303 U286 2.882 . S
C303 C297 1.428 . S
C303 O306 1.301 . S
C303 O307 1.282 . S
O304 U286 2.441 . S
O304 C290 1.249 . S
O305 U286 2.420 . S
O305 C290 1.202 . S
O306 U286 2.455 . S
O306 C303 1.301 . S
O307 U286 2.449 . S
O307 C303 1.282 . S
H308 C281 0.931 . S
H309 C283 0.929 . S
H310 C284 0.930 . S
H311 C285 0.931 . S
H312 C292 0.932 . S
H313 C293 0.930 . S
H314 C294 0.929 . S
H315 C296 0.930 . S
H316 C298 0.932 . S
H317 C299 0.929 . S
H318 C300 0.928 . S
H319 C302 0.932 . S
Zn320 O326 1.969 1_545 S
Zn320 O327 1.965 1_545 S
Zn320 O331 2.024 . S
Zn320 O336 1.969 . S
Zn321 O328 1.969 . S
Zn321 O334 1.969 1_565 S
Zn321 O335 1.965 1_665 S
Zn321 O337 2.024 . S
C322 O323 1.229 . S
C322 O331 1.058 . S
O323 C322 1.229 . S
C324 O325 1.229 . S
C324 O337 1.058 . S
O325 C324 1.229 . S
O326 Zn320 1.969 1_565 S
O326 C329 1.267 . S
O327 Zn320 1.965 1_565 S
O327 C338 1.260 1_455 S
O328 Zn321 1.969 . S
O328 C338 1.258 . S
C329 O326 1.267 . S
C329 O330 1.228 . S
O330 C329 1.228 . S
O331 Zn320 2.024 . S
O331 C322 1.058 . S
C332 O333 1.228 . S
C332 O334 1.267 . S
O333 C332 1.228 . S
O334 Zn321 1.969 1_545 S
O334 C332 1.267 . S
O335 Zn321 1.965 1_445 S
O335 C339 1.260 . S
O336 Zn320 1.969 . S
O336 C339 1.258 . S
O337 Zn321 2.024 . S
O337 C324 1.058 . S
C338 O327 1.260 1_655 S
C338 O328 1.258 . S
C339 O335 1.260 . S
C339 O336 1.258 . S
Zn340 O346 1.969 . S
Zn340 O347 1.965 1_565 S
Zn340 O351 2.024 . S
Zn340 O356 1.969 1_556 S
Zn341 O348 1.969 . S
Zn341 O354 1.969 . S
Zn341 O355 1.965 1_545 S
Zn341 O357 2.024 . S
C342 O343 1.229 . S
C342 O351 1.058 . S
O343 C342 1.229 . S
C344 O345 1.229 . S
C344 O357 1.058 . S
O345 C344 1.229 . S
O346 Zn340 1.969 . S
O346 C349 1.267 . S
O347 Zn340 1.965 1_545 S
O347 C358 1.260 . S
O348 Zn341 1.969 . S
O348 C358 1.258 1_554 S
C349 O346 1.267 . S
C349 O350 1.228 . S
O350 C349 1.228 . S
O351 Zn340 2.024 . S
O351 C342 1.058 . S
C352 O353 1.228 . S
C352 O354 1.267 . S
O353 C352 1.228 . S
O354 Zn341 1.969 . S
O354 C352 1.267 . S
O355 Zn341 1.965 1_565 S
O355 C359 1.260 . S
O356 Zn340 1.969 1_554 S
O356 C359 1.258 . S
O357 Zn341 2.024 . S
O357 C344 1.058 . S
C358 O347 1.260 . S
C358 O348 1.258 1_556 S
C359 O355 1.260 . S
C359 O356 1.258 . S
Zn360 O366 1.969 . S
Zn360 O367 1.965 . S
Zn360 O371 2.024 . S
Zn360 O376 1.969 . S
Zn361 O368 1.969 . S
Zn361 O374 1.969 . S
Zn361 O375 1.965 . S
Zn361 O377 2.024 . S
C362 O363 1.229 . S
C362 O371 1.058 . S
O363 C362 1.229 . S
C364 O365 1.229 . S
C364 O377 1.058 . S
O365 C364 1.229 . S
O366 Zn360 1.969 . S
O366 C369 1.267 . S
O367 Zn360 1.965 . S
O367 C378 1.260 . S
O368 Zn361 1.969 . S
O368 C378 1.258 . S
C369 O366 1.267 . S
C369 O370 1.228 . S
O370 C369 1.228 . S
O371 Zn360 2.024 . S
O371 C362 1.058 . S
C372 O373 1.228 . S
C372 O374 1.267 . S
O373 C372 1.228 . S
O374 Zn361 1.969 . S
O374 C372 1.267 . S
O375 Zn361 1.965 . S
O375 C379 1.260 . S
O376 Zn360 1.969 . S
O376 C379 1.258 . S
O377 Zn361 2.024 . S
O377 C364 1.058 . S
C378 O367 1.260 . S
C378 O368 1.258 . S
C379 O375 1.260 . S
C379 O376 1.258 . S
Zn380 O386 1.969 . S
Zn380 O387 1.965 1_556 S
Zn380 O391 2.024 . S
Zn380 O396 1.969 1_655 S
Zn381 O388 1.969 . S
Zn381 O394 1.969 . S
Zn381 O395 1.965 1_554 S
Zn381 O397 2.024 . S
C382 O383 1.229 . S
C382 O391 1.058 . S
O383 C382 1.229 . S
C384 O385 1.229 . S
C384 O397 1.058 . S
O385 C384 1.229 . S
O386 Zn380 1.969 . S
O386 C389 1.267 . S
O387 Zn380 1.965 1_554 S
O387 C398 1.260 . S
O388 Zn381 1.969 . S
O388 C398 1.258 1_455 S
C389 O386 1.267 . S
C389 O390 1.228 . S
O390 C389 1.228 . S
O391 Zn380 2.024 . S
O391 C382 1.058 . S
C392 O393 1.228 . S
C392 O394 1.267 . S
O393 C392 1.228 . S
O394 Zn381 1.969 . S
O394 C392 1.267 . S
O395 Zn381 1.965 1_556 S
O395 C399 1.260 . S
O396 Zn380 1.969 1_455 S
O396 C399 1.258 . S
O397 Zn381 2.024 . S
O397 C384 1.058 . S
C398 O387 1.260 . S
C398 O388 1.258 1_655 S
C399 O395 1.260 . S
C399 O396 1.258 . S
C400 C401 1.349 . S
C400 C402 1.327 . S
C400 H425 0.950 . S
C401 C400 1.349 . S
C401 C417 1.349 . S
C402 C400 1.327 . S
C402 C421 1.429 . S
C402 H426 0.950 . S
C403 C420 1.574 . S
C403 C422 1.368 . S
C403 H427 0.949 . S
H404 C408 0.949 . S
C405 C406 1.349 . S
C405 C407 1.327 . S
C405 H428 0.950 . S
C406 C405 1.349 . S
C406 C418 1.349 . S
C407 C405 1.327 . S
C407 C423 1.429 . S
C407 H429 0.950 . S
C408 H404 0.949 . S
C408 C416 1.574 . S
C408 C424 1.368 . S
H409 C417 0.950 . S
H410 C415 0.950 . S
H411 C416 0.949 . S
H412 C418 0.950 . S
H413 C419 0.950 . S
H414 C420 0.949 . S
C415 H410 0.950 . S
C415 C417 1.327 . S
C415 C421 1.429 . S
C416 C408 1.574 . S
C416 H411 0.949 . S
C416 C422 1.368 . S
C417 C401 1.349 . S
C417 H409 0.950 . S
C417 C415 1.327 . S
C418 C406 1.349 . S
C418 H412 0.950 . S
C418 C419 1.327 . S
C419 H413 0.950 . S
C419 C418 1.327 . S
C419 C423 1.429 . S
C420 C403 1.574 . S
C420 H414 0.949 . S
C420 C424 1.368 . S
C421 C402 1.429 . S
C421 C415 1.429 . S
C421 C422 1.523 . S
C422 C403 1.368 . S
C422 C416 1.368 . S
C422 C421 1.523 . S
C423 C407 1.429 . S
C423 C419 1.429 . S
C423 C424 1.523 . S
C424 C408 1.368 . S
C424 C420 1.368 . S
C424 C423 1.523 . S
H425 C400 0.950 . S
H426 C402 0.950 . S
H427 C403 0.949 . S
H428 C405 0.950 . S
H429 C407 0.950 . S
C430 C431 1.349 . S
C430 C432 1.327 . S
C430 H455 0.950 . S
C431 C430 1.349 . S
C431 C447 1.349 . S
C432 C430 1.327 . S
C432 C451 1.429 . S
C432 H456 0.950 . S
C433 C450 1.574 . S
C433 C452 1.368 . S
C433 H457 0.949 . S
H434 C438 0.949 . S
C435 C436 1.349 . S
C435 C437 1.327 . S
C435 H458 0.950 . S
C436 C435 1.349 . S
C436 C448 1.349 . S
C437 C435 1.327 . S
C437 C453 1.429 . S
C437 H459 0.950 . S
C438 H434 0.949 . S
C438 C446 1.574 . S
C438 C454 1.368 . S
H439 C447 0.950 . S
H440 C445 0.950 . S
H441 C446 0.949 . S
H442 C448 0.950 . S
H443 C449 0.950 . S
H444 C450 0.949 . S
C445 H440 0.950 . S
C445 C447 1.327 . S
C445 C451 1.429 . S
C446 C438 1.574 . S
C446 H441 0.949 . S
C446 C452 1.368 . S
C447 C431 1.349 . S
C447 H439 0.950 . S
C447 C445 1.327 . S
C448 C436 1.349 . S
C448 H442 0.950 . S
C448 C449 1.327 . S
C449 H443 0.950 . S
C449 C448 1.327 . S
C449 C453 1.429 . S
C450 C433 1.574 . S
C450 H444 0.949 . S
C450 C454 1.368 . S
C451 C432 1.429 . S
C451 C445 1.429 . S
C451 C452 1.523 . S
C452 C433 1.368 . S
C452 C446 1.368 . S
C452 C451 1.523 . S
C453 C437 1.429 . S
C453 C449 1.429 . S
C453 C454 1.523 . S
C454 C438 1.368 . S
C454 C450 1.368 . S
C454 C453 1.523 . S
H455 C430 0.950 . S
H456 C432 0.950 . S
H457 C433 0.949 . S
H458 C435 0.950 . S
H459 C437 0.950 . S
C460 C461 1.349 . S
C460 C462 1.327 . S
C460 H485 0.950 . S
C461 C460 1.349 . S
C461 C477 1.349 . S
C462 C460 1.327 . S
C462 C481 1.429 . S
C462 H486 0.950 . S
C463 C480 1.574 . S
C463 C482 1.368 . S
C463 H487 0.949 . S
H464 C468 0.949 . S
C465 C466 1.349 . S
C465 C467 1.327 . S
C465 H488 0.950 . S
C466 C465 1.349 . S
C466 C478 1.349 . S
C467 C465 1.327 . S
C467 C483 1.429 . S
C467 H489 0.950 . S
C468 H464 0.949 . S
C468 C476 1.574 . S
C468 C484 1.368 . S
H469 C477 0.950 . S
H470 C475 0.950 . S
H471 C476 0.949 . S
H472 C478 0.950 . S
H473 C479 0.950 . S
H474 C480 0.949 . S
C475 H470 0.950 . S
C475 C477 1.327 . S
C475 C481 1.429 . S
C476 C468 1.574 . S
C476 H471 0.949 . S
C476 C482 1.368 . S
C477 C461 1.349 . S
C477 H469 0.950 . S
C477 C475 1.327 . S
C478 C466 1.349 . S
C478 H472 0.950 . S
C478 C479 1.327 . S
C479 H473 0.950 . S
C479 C478 1.327 . S
C479 C483 1.429 . S
C480 C463 1.574 . S
C480 H474 0.949 . S
C480 C484 1.368 . S
C481 C462 1.429 . S
C481 C475 1.429 . S
C481 C482 1.523 . S
C482 C463 1.368 . S
C482 C476 1.368 . S
C482 C481 1.523 . S
C483 C467 1.429 . S
C483 C479 1.429 . S
C483 C484 1.523 . S
C484 C468 1.368 . S
C484 C480 1.368 . S
C484 C483 1.523 . S
H485 C460 0.950 . S
H486 C462 0.950 . S
H487 C463 0.949 . S
H488 C465 0.950 . S
H489 C467 0.950 . S
C490 C491 1.349 . S
C490 C492 1.327 . S
C490 H515 0.950 . S
C491 C490 1.349 . S
C491 C507 1.349 . S
C492 C490 1.327 . S
C492 C511 1.429 . S
C492 H516 0.950 . S
C493 C510 1.574 . S
C493 C512 1.368 . S
C493 H517 0.949 . S
H494 C498 0.949 . S
C495 C496 1.349 . S
C495 C497 1.327 . S
C495 H518 0.950 . S
C496 C495 1.349 . S
C496 C508 1.349 . S
C497 C495 1.327 . S
C497 C513 1.429 . S
C497 H519 0.950 . S
C498 H494 0.949 . S
C498 C506 1.574 . S
C498 C514 1.368 . S
H499 C507 0.950 . S
H500 C505 0.950 . S
H501 C506 0.949 . S
H502 C508 0.950 . S
H503 C509 0.950 . S
H504 C510 0.949 . S
C505 H500 0.950 . S
C505 C507 1.327 . S
C505 C511 1.429 . S
C506 C498 1.574 . S
C506 H501 0.949 . S
C506 C512 1.368 . S
C507 C491 1.349 . S
C507 H499 0.950 . S
C507 C505 1.327 . S
C508 C496 1.349 . S
C508 H502 0.950 . S
C508 C509 1.327 . S
C509 H503 0.950 . S
C509 C508 1.327 . S
C509 C513 1.429 . S
C510 C493 1.574 . S
C510 H504 0.949 . S
C510 C514 1.368 . S
C511 C492 1.429 . S
C511 C505 1.429 . S
C511 C512 1.523 . S
C512 C493 1.368 . S
C512 C506 1.368 . S
C512 C511 1.523 . S
C513 C497 1.429 . S
C513 C509 1.429 . S
C513 C514 1.523 . S
C514 C498 1.368 . S
C514 C510 1.368 . S
C514 C513 1.523 . S
H515 C490 0.950 . S
H516 C492 0.950 . S
H517 C493 0.949 . S
H518 C495 0.950 . S
H519 C497 0.950 . S
C520 C521 1.349 . S
C520 C522 1.327 . S
C520 H545 0.950 . S
C521 C520 1.349 . S
C521 C537 1.349 . S
C522 C520 1.327 . S
C522 C541 1.429 . S
C522 H546 0.950 . S
C523 C540 1.574 . S
C523 C542 1.368 . S
C523 H547 0.949 . S
H524 C528 0.949 . S
C525 C526 1.349 . S
C525 C527 1.327 . S
C525 H548 0.950 . S
C526 C525 1.349 . S
C526 C538 1.349 . S
C527 C525 1.327 . S
C527 C543 1.429 . S
C527 H549 0.950 . S
C528 H524 0.949 . S
C528 C536 1.574 . S
C528 C544 1.368 . S
H529 C537 0.950 . S
H530 C535 0.950 . S
H531 C536 0.949 . S
H532 C538 0.950 . S
H533 C539 0.950 . S
H534 C540 0.949 . S
C535 H530 0.950 . S
C535 C537 1.327 . S
C535 C541 1.429 . S
C536 C528 1.574 . S
C536 H531 0.949 . S
C536 C542 1.368 . S
C537 C521 1.349 . S
C537 H529 0.950 . S
C537 C535 1.327 . S
C538 C526 1.349 . S
C538 H532 0.950 . S
C538 C539 1.327 . S
C539 H533 0.950 . S
C539 C538 1.327 . S
C539 C543 1.429 . S
C540 C523 1.574 . S
C540 H534 0.949 . S
C540 C544 1.368 . S
C541 C522 1.429 . S
C541 C535 1.429 . S
C541 C542 1.523 . S
C542 C523 1.368 . S
C542 C536 1.368 . S
C542 C541 1.523 . S
C543 C527 1.429 . S
C543 C539 1.429 . S
C543 C544 1.523 . S
C544 C528 1.368 . S
C544 C540 1.368 . S
C544 C543 1.523 . S
H545 C520 0.950 . S
H546 C522 0.950 . S
H547 C523 0.949 . S
H548 C525 0.950 . S
H549 C527 0.950 . S
C550 C551 1.349 . S
C550 C552 1.327 . S
C550 H575 0.950 . S
C551 C550 1.349 . S
C551 C567 1.349 . S
C552 C550 1.327 . S
C552 C571 1.429 . S
C552 H576 0.950 . S
C553 C570 1.574 . S
C553 C572 1.368 . S
C553 H577 0.949 . S
H554 C558 0.949 . S
C555 C556 1.349 . S
C555 C557 1.327 . S
C555 H578 0.950 . S
C556 C555 1.349 . S
C556 C568 1.349 . S
C557 C555 1.327 . S
C557 C573 1.429 . S
C557 H579 0.950 . S
C558 H554 0.949 . S
C558 C566 1.574 . S
C558 C574 1.368 . S
H559 C567 0.950 . S
H560 C565 0.950 . S
H561 C566 0.949 . S
H562 C568 0.950 . S
H563 C569 0.950 . S
H564 C570 0.949 . S
C565 H560 0.950 . S
C565 C567 1.327 . S
C565 C571 1.429 . S
C566 C558 1.574 . S
C566 H561 0.949 . S
C566 C572 1.368 . S
C567 C551 1.349 . S
C567 H559 0.950 . S
C567 C565 1.327 . S
C568 C556 1.349 . S
C568 H562 0.950 . S
C568 C569 1.327 . S
C569 H563 0.950 . S
C569 C568 1.327 . S
C569 C573 1.429 . S
C570 C553 1.574 . S
C570 H564 0.949 . S
C570 C574 1.368 . S
C571 C552 1.429 . S
C571 C565 1.429 . S
C571 C572 1.523 . S
C572 C553 1.368 . S
C572 C566 1.368 . S
C572 C571 1.523 . S
C573 C557 1.429 . S
C573 C569 1.429 . S
C573 C574 1.523 . S
C574 C558 1.368 . S
C574 C570 1.368 . S
C574 C573 1.523 . S
H575 C550 0.950 . S
H576 C552 0.950 . S
H577 C553 0.949 . S
H578 C555 0.950 . S
H579 C557 0.950 . S
C580 C581 1.349 . S
C580 C582 1.327 . S
C580 H605 0.950 . S
C581 C580 1.349 . S
C581 C597 1.349 . S
C582 C580 1.327 . S
C582 C601 1.429 . S
C582 H606 0.950 . S
C583 C600 1.574 . S
C583 C602 1.368 . S
C583 H607 0.949 . S
H584 C588 0.949 . S
C585 C586 1.349 . S
C585 C587 1.327 . S
C585 H608 0.950 . S
C586 C585 1.349 . S
C586 C598 1.349 . S
C587 C585 1.327 . S
C587 C603 1.429 . S
C587 H609 0.950 . S
C588 H584 0.949 . S
C588 C596 1.574 . S
C588 C604 1.368 . S
H589 C597 0.950 . S
H590 C595 0.950 . S
H591 C596 0.949 . S
H592 C598 0.950 . S
H593 C599 0.950 . S
H594 C600 0.949 . S
C595 H590 0.950 . S
C595 C597 1.327 . S
C595 C601 1.429 . S
C596 C588 1.574 . S
C596 H591 0.949 . S
C596 C602 1.368 . S
C597 C581 1.349 . S
C597 H589 0.950 . S
C597 C595 1.327 . S
C598 C586 1.349 . S
C598 H592 0.950 . S
C598 C599 1.327 . S
C599 H593 0.950 . S
C599 C598 1.327 . S
C599 C603 1.429 . S
C600 C583 1.574 . S
C600 H594 0.949 . S
C600 C604 1.368 . S
C601 C582 1.429 . S
C601 C595 1.429 . S
C601 C602 1.523 . S
C602 C583 1.368 . S
C602 C596 1.368 . S
C602 C601 1.523 . S
C603 C587 1.429 . S
C603 C599 1.429 . S
C603 C604 1.523 . S
C604 C588 1.368 . S
C604 C600 1.368 . S
C604 C603 1.523 . S
H605 C580 0.950 . S
H606 C582 0.950 . S
H607 C583 0.949 . S
H608 C585 0.950 . S
H609 C587 0.950 . S
C610 C611 1.349 . S
C610 C612 1.327 . S
C610 H635 0.950 . S
C611 C610 1.349 . S
C611 C627 1.349 . S
C612 C610 1.327 . S
C612 C631 1.429 . S
C612 H636 0.950 . S
C613 C630 1.574 . S
C613 C632 1.368 . S
C613 H637 0.949 . S
H614 C618 0.949 . S
C615 C616 1.349 . S
C615 C617 1.327 . S
C615 H638 0.950 . S
C616 C615 1.349 . S
C616 C628 1.349 . S
C617 C615 1.327 . S
C617 C633 1.429 . S
C617 H639 0.950 . S
C618 H614 0.949 . S
C618 C626 1.574 . S
C618 C634 1.368 . S
H619 C627 0.950 . S
H620 C625 0.950 . S
H621 C626 0.949 . S
H622 C628 0.950 . S
H623 C629 0.950 . S
H624 C630 0.949 . S
C625 H620 0.950 . S
C625 C627 1.327 . S
C625 C631 1.429 . S
C626 C618 1.574 . S
C626 H621 0.949 . S
C626 C632 1.368 . S
C627 C611 1.349 . S
C627 H619 0.950 . S
C627 C625 1.327 . S
C628 C616 1.349 . S
C628 H622 0.950 . S
C628 C629 1.327 . S
C629 H623 0.950 . S
C629 C628 1.327 . S
C629 C633 1.429 . S
C630 C613 1.574 . S
C630 H624 0.949 . S
C630 C634 1.368 . S
C631 C612 1.429 . S
C631 C625 1.429 . S
C631 C632 1.523 . S
C632 C613 1.368 . S
C632 C626 1.368 . S
C632 C631 1.523 . S
C633 C617 1.429 . S
C633 C629 1.429 . S
C633 C634 1.523 . S
C634 C618 1.368 . S
C634 C630 1.368 . S
C634 C633 1.523 . S
H635 C610 0.950 . S
H636 C612 0.950 . S
H637 C613 0.949 . S
H638 C615 0.950 . S
H639 C617 0.950 . S
C640 C641 1.349 . S
C640 C642 1.327 . S
C640 H665 0.950 . S
C641 C640 1.349 . S
C641 C657 1.349 . S
C642 C640 1.327 . S
C642 C661 1.429 . S
C642 H666 0.950 . S
C643 C660 1.574 . S
C643 C662 1.368 . S
C643 H667 0.949 . S
H644 C648 0.949 . S
C645 C646 1.349 . S
C645 C647 1.327 . S
C645 H668 0.950 . S
C646 C645 1.349 . S
C646 C658 1.349 . S
C647 C645 1.327 . S
C647 C663 1.429 . S
C647 H669 0.950 . S
C648 H644 0.949 . S
C648 C656 1.574 . S
C648 C664 1.368 . S
H649 C657 0.950 . S
H650 C655 0.950 . S
H651 C656 0.949 . S
H652 C658 0.950 . S
H653 C659 0.950 . S
H654 C660 0.949 . S
C655 H650 0.950 . S
C655 C657 1.327 . S
C655 C661 1.429 . S
C656 C648 1.574 . S
C656 H651 0.949 . S
C656 C662 1.368 . S
C657 C641 1.349 . S
C657 H649 0.950 . S
C657 C655 1.327 . S
C658 C646 1.349 . S
C658 H652 0.950 . S
C658 C659 1.327 . S
C659 H653 0.950 . S
C659 C658 1.327 . S
C659 C663 1.429 . S
C660 C643 1.574 . S
C660 H654 0.949 . S
C660 C664 1.368 . S
C661 C642 1.429 . S
C661 C655 1.429 . S
C661 C662 1.523 . S
C662 C643 1.368 . S
C662 C656 1.368 . S
C662 C661 1.523 . S
C663 C647 1.429 . S
C663 C659 1.429 . S
C663 C664 1.523 . S
C664 C648 1.368 . S
C664 C660 1.368 . S
C664 C663 1.523 . S
H665 C640 0.950 . S
H666 C642 0.950 . S
H667 C643 0.949 . S
H668 C645 0.950 . S
H669 C647 0.950 . S
C670 C671 1.349 . S
C670 C672 1.327 . S
C670 H695 0.950 . S
C671 C670 1.349 . S
C671 C687 1.349 . S
C672 C670 1.327 . S
C672 C691 1.429 . S
C672 H696 0.950 . S
C673 C690 1.574 . S
C673 C692 1.368 . S
C673 H697 0.949 . S
H674 C678 0.949 . S
C675 C676 1.349 . S
C675 C677 1.327 . S
C675 H698 0.950 . S
C676 C675 1.349 . S
C676 C688 1.349 . S
C677 C675 1.327 . S
C677 C693 1.429 . S
C677 H699 0.950 . S
C678 H674 0.949 . S
C678 C686 1.574 . S
C678 C694 1.368 . S
H679 C687 0.950 . S
H680 C685 0.950 . S
H681 C686 0.949 . S
H682 C688 0.950 . S
H683 C689 0.950 . S
H684 C690 0.949 . S
C685 H680 0.950 . S
C685 C687 1.327 . S
C685 C691 1.429 . S
C686 C678 1.574 . S
C686 H681 0.949 . S
C686 C692 1.368 . S
C687 C671 1.349 . S
C687 H679 0.950 . S
C687 C685 1.327 . S
C688 C676 1.349 . S
C688 H682 0.950 . S
C688 C689 1.327 . S
C689 H683 0.950 . S
C689 C688 1.327 . S
C689 C693 1.429 . S
C690 C673 1.574 . S
C690 H684 0.949 . S
C690 C694 1.368 . S
C691 C672 1.429 . S
C691 C685 1.429 . S
C691 C692 1.523 . S
C692 C673 1.368 . S
C692 C686 1.368 . S
C692 C691 1.523 . S
C693 C677 1.429 . S
C693 C689 1.429 . S
C693 C694 1.523 . S
C694 C678 1.368 . S
C694 C690 1.368 . S
C694 C693 1.523 . S
H695 C670 0.950 . S
H696 C672 0.950 . S
H697 C673 0.949 . S
H698 C675 0.950 . S
H699 C677 0.950 . S
C700 C701 1.349 . S
C700 C702 1.327 . S
C700 H725 0.950 . S
C701 C700 1.349 . S
C701 C717 1.349 . S
C702 C700 1.327 . S
C702 C721 1.429 . S
C702 H726 0.950 . S
C703 C720 1.574 . S
C703 C722 1.368 . S
C703 H727 0.949 . S
H704 C708 0.949 . S
C705 C706 1.349 . S
C705 C707 1.327 . S
C705 H728 0.950 . S
C706 C705 1.349 . S
C706 C718 1.349 . S
C707 C705 1.327 . S
C707 C723 1.429 . S
C707 H729 0.950 . S
C708 H704 0.949 . S
C708 C716 1.574 . S
C708 C724 1.368 . S
H709 C717 0.950 . S
H710 C715 0.950 . S
H711 C716 0.949 . S
H712 C718 0.950 . S
H713 C719 0.950 . S
H714 C720 0.949 . S
C715 H710 0.950 . S
C715 C717 1.327 . S
C715 C721 1.429 . S
C716 C708 1.574 . S
C716 H711 0.949 . S
C716 C722 1.368 . S
C717 C701 1.349 . S
C717 H709 0.950 . S
C717 C715 1.327 . S
C718 C706 1.349 . S
C718 H712 0.950 . S
C718 C719 1.327 . S
C719 H713 0.950 . S
C719 C718 1.327 . S
C719 C723 1.429 . S
C720 C703 1.574 . S
C720 H714 0.949 . S
C720 C724 1.368 . S
C721 C702 1.429 . S
C721 C715 1.429 . S
C721 C722 1.523 . S
C722 C703 1.368 . S
C722 C716 1.368 . S
C722 C721 1.523 . S
C723 C707 1.429 . S
C723 C719 1.429 . S
C723 C724 1.523 . S
C724 C708 1.368 . S
C724 C720 1.368 . S
C724 C723 1.523 . S
H725 C700 0.950 . S
H726 C702 0.950 . S
H727 C703 0.949 . S
H728 C705 0.950 . S
H729 C707 0.950 . S
C730 C731 1.349 . S
C730 C732 1.327 . S
C730 H755 0.950 . S
C731 C730 1.349 . S
C731 C747 1.349 . S
C732 C730 1.327 . S
C732 C751 1.429 . S
C732 H756 0.950 . S
C733 C750 1.574 . S
C733 C752 1.368 . S
C733 H757 0.949 . S
H734 C738 0.949 . S
C735 C736 1.349 . S
C735 C737 1.327 . S
C735 H758 0.950 . S
C736 C735 1.349 . S
C736 C748 1.349 . S
C737 C735 1.327 . S
C737 C753 1.429 . S
C737 H759 0.950 . S
C738 H734 0.949 . S
C738 C746 1.574 . S
C738 C754 1.368 . S
H739 C747 0.950 . S
H740 C745 0.950 . S
H741 C746 0.949 . S
H742 C748 0.950 . S
H743 C749 0.950 . S
H744 C750 0.949 . S
C745 H740 0.950 . S
C745 C747 1.327 . S
C745 C751 1.429 . S
C746 C738 1.574 . S
C746 H741 0.949 . S
C746 C752 1.368 . S
C747 C731 1.349 . S
C747 H739 0.950 . S
C747 C745 1.327 . S
C748 C736 1.349 . S
C748 H742 0.950 . S
C748 C749 1.327 . S
C749 H743 0.950 . S
C749 C748 1.327 . S
C749 C753 1.429 . S
C750 C733 1.574 . S
C750 H744 0.949 . S
C750 C754 1.368 . S
C751 C732 1.429 . S
C751 C745 1.429 . S
C751 C752 1.523 . S
C752 C733 1.368 . S
C752 C746 1.368 . S
C752 C751 1.523 . S
C753 C737 1.429 . S
C753 C749 1.429 . S
C753 C754 1.523 . S
C754 C738 1.368 . S
C754 C750 1.368 . S
C754 C753 1.523 . S
H755 C730 0.950 . S
H756 C732 0.950 . S
H757 C733 0.949 . S
H758 C735 0.950 . S
H759 C737 0.950 . S
C760 C761 1.349 . S
C760 C762 1.327 . S
C760 H785 0.950 . S
C761 C760 1.349 . S
C761 C777 1.349 . S
C762 C760 1.327 . S
C762 C781 1.429 . S
C762 H786 0.950 . S
C763 C780 1.574 . S
C763 C782 1.368 . S
C763 H787 0.949 . S
H764 C768 0.949 . S
C765 C766 1.349 . S
C765 C767 1.327 . S
C765 H788 0.950 . S
C766 C765 1.349 . S
C766 C778 1.349 . S
C767 C765 1.327 . S
C767 C783 1.429 . S
C767 H789 0.950 . S
C768 H764 0.949 . S
C768 C776 1.574 . S
C768 C784 1.368 . S
H769 C777 0.950 . S
H770 C775 0.950 . S
H771 C776 0.949 . S
H772 C778 0.950 . S
H773 C779 0.950 . S
H774 C780 0.949 . S
C775 H770 0.950 . S
C775 C777 1.327 . S
C775 C781 1.429 . S
C776 C768 1.574 . S
C776 H771 0.949 . S
C776 C782 1.368 . S
C777 C761 1.349 . S
C777 H769 0.950 . S
C777 C775 1.327 . S
C778 C766 1.349 . S
C778 H772 0.950 . S
C778 C779 1.327 . S
C779 H773 0.950 . S
C779 C778 1.327 . S
C779 C783 1.429 . S
C780 C763 1.574 . S
C780 H774 0.949 . S
C780 C784 1.368 . S
C781 C762 1.429 . S
C781 C775 1.429 . S
C781 C782 1.523 . S
C782 C763 1.368 . S
C782 C776 1.368 . S
C782 C781 1.523 . S
C783 C767 1.429 . S
C783 C779 1.429 . S
C783 C784 1.523 . S
C784 C768 1.368 . S
C784 C780 1.368 . S
C784 C783 1.523 . S
H785 C760 0.950 . S
H786 C762 0.950 . S
H787 C763 0.949 . S
H788 C765 0.950 . S
H789 C767 0.950 . S
C790 C791 1.349 . S
C790 C792 1.327 . S
C790 H815 0.950 . S
C791 C790 1.349 . S
C791 C807 1.349 . S
C792 C790 1.327 . S
C792 C811 1.429 . S
C792 H816 0.950 . S
C793 C810 1.574 . S
C793 C812 1.368 . S
C793 H817 0.949 . S
H794 C798 0.949 . S
C795 C796 1.349 . S
C795 C797 1.327 . S
C795 H818 0.950 . S
C796 C795 1.349 . S
C796 C808 1.349 . S
C797 C795 1.327 . S
C797 C813 1.429 . S
C797 H819 0.950 . S
C798 H794 0.949 . S
C798 C806 1.574 . S
C798 C814 1.368 . S
H799 C807 0.950 . S
H800 C805 0.950 . S
H801 C806 0.949 . S
H802 C808 0.950 . S
H803 C809 0.950 . S
H804 C810 0.949 . S
C805 H800 0.950 . S
C805 C807 1.327 . S
C805 C811 1.429 . S
C806 C798 1.574 . S
C806 H801 0.949 . S
C806 C812 1.368 . S
C807 C791 1.349 . S
C807 H799 0.950 . S
C807 C805 1.327 . S
C808 C796 1.349 . S
C808 H802 0.950 . S
C808 C809 1.327 . S
C809 H803 0.950 . S
C809 C808 1.327 . S
C809 C813 1.429 . S
C810 C793 1.574 . S
C810 H804 0.949 . S
C810 C814 1.368 . S
C811 C792 1.429 . S
C811 C805 1.429 . S
C811 C812 1.523 . S
C812 C793 1.368 . S
C812 C806 1.368 . S
C812 C811 1.523 . S
C813 C797 1.429 . S
C813 C809 1.429 . S
C813 C814 1.523 . S
C814 C798 1.368 . S
C814 C810 1.368 . S
C814 C813 1.523 . S
H815 C790 0.950 . S
H816 C792 0.950 . S
H817 C793 0.949 . S
H818 C795 0.950 . S
H819 C797 0.950 . S
C820 C821 1.349 . S
C820 C822 1.327 . S
C820 H845 0.950 . S
C821 C820 1.349 . S
C821 C837 1.349 . S
C822 C820 1.327 . S
C822 C841 1.429 . S
C822 H846 0.950 . S
C823 C840 1.574 . S
C823 C842 1.368 . S
C823 H847 0.949 . S
H824 C828 0.949 . S
C825 C826 1.349 . S
C825 C827 1.327 . S
C825 H848 0.950 . S
C826 C825 1.349 . S
C826 C838 1.349 . S
C827 C825 1.327 . S
C827 C843 1.429 . S
C827 H849 0.950 . S
C828 H824 0.949 . S
C828 C836 1.574 . S
C828 C844 1.368 . S
H829 C837 0.950 . S
H830 C835 0.950 . S
H831 C836 0.949 . S
H832 C838 0.950 . S
H833 C839 0.950 . S
H834 C840 0.949 . S
C835 H830 0.950 . S
C835 C837 1.327 . S
C835 C841 1.429 . S
C836 C828 1.574 . S
C836 H831 0.949 . S
C836 C842 1.368 . S
C837 C821 1.349 . S
C837 H829 0.950 . S
C837 C835 1.327 . S
C838 C826 1.349 . S
C838 H832 0.950 . S
C838 C839 1.327 . S
C839 H833 0.950 . S
C839 C838 1.327 . S
C839 C843 1.429 . S
C840 C823 1.574 . S
C840 H834 0.949 . S
C840 C844 1.368 . S
C841 C822 1.429 . S
C841 C835 1.429 . S
C841 C842 1.523 . S
C842 C823 1.368 . S
C842 C836 1.368 . S
C842 C841 1.523 . S
C843 C827 1.429 . S
C843 C839 1.429 . S
C843 C844 1.523 . S
C844 C828 1.368 . S
C844 C840 1.368 . S
C844 C843 1.523 . S
H845 C820 0.950 . S
H846 C822 0.950 . S
H847 C823 0.949 . S
H848 C825 0.950 . S
H849 C827 0.950 . S
C850 C851 1.349 . S
C850 C852 1.327 . S
C850 H875 0.950 . S
C851 C850 1.349 . S
C851 C867 1.349 . S
C852 C850 1.327 . S
C852 C871 1.429 . S
C852 H876 0.950 . S
C853 C870 1.574 . S
C853 C872 1.368 . S
C853 H877 0.949 . S
H854 C858 0.949 . S
C855 C856 1.349 . S
C855 C857 1.327 . S
C855 H878 0.950 . S
C856 C855 1.349 . S
C856 C868 1.349 . S
C857 C855 1.327 . S
C857 C873 1.429 . S
C857 H879 0.950 . S
C858 H854 0.949 . S
C858 C866 1.574 . S
C858 C874 1.368 . S
H859 C867 0.950 . S
H860 C865 0.950 . S
H861 C866 0.949 . S
H862 C868 0.950 . S
H863 C869 0.950 . S
H864 C870 0.949 . S
C865 H860 0.950 . S
C865 C867 1.327 . S
C865 C871 1.429 . S
C866 C858 1.574 . S
C866 H861 0.949 . S
C866 C872 1.368 . S
C867 C851 1.349 . S
C867 H859 0.950 . S
C867 C865 1.327 . S
C868 C856 1.349 . S
C868 H862 0.950 . S
C868 C869 1.327 . S
C869 H863 0.950 . S
C869 C868 1.327 . S
C869 C873 1.429 . S
C870 C853 1.574 . S
C870 H864 0.949 . S
C870 C874 1.368 . S
C871 C852 1.429 . S
C871 C865 1.429 . S
C871 C872 1.523 . S
C872 C853 1.368 . S
C872 C866 1.368 . S
C872 C871 1.523 . S
C873 C857 1.429 . S
C873 C869 1.429 . S
C873 C874 1.523 . S
C874 C858 1.368 . S
C874 C870 1.368 . S
C874 C873 1.523 . S
H875 C850 0.950 . S
H876 C852 0.950 . S
H877 C853 0.949 . S
H878 C855 0.950 . S
H879 C857 0.950 . S
C880 C881 1.349 . S
C880 C882 1.327 . S
C880 H905 0.950 . S
C881 C880 1.349 . S
C881 C897 1.349 . S
C882 C880 1.327 . S
C882 C901 1.429 . S
C882 H906 0.950 . S
C883 C900 1.574 . S
C883 C902 1.368 . S
C883 H907 0.949 . S
H884 C888 0.949 . S
C885 C886 1.349 . S
C885 C887 1.327 . S
C885 H908 0.950 . S
C886 C885 1.349 . S
C886 C898 1.349 . S
C887 C885 1.327 . S
C887 C903 1.429 . S
C887 H909 0.950 . S
C888 H884 0.949 . S
C888 C896 1.574 . S
C888 C904 1.368 . S
H889 C897 0.950 . S
H890 C895 0.950 . S
H891 C896 0.949 . S
H892 C898 0.950 . S
H893 C899 0.950 . S
H894 C900 0.949 . S
C895 H890 0.950 . S
C895 C897 1.327 . S
C895 C901 1.429 . S
C896 C888 1.574 . S
C896 H891 0.949 . S
C896 C902 1.368 . S
C897 C881 1.349 . S
C897 H889 0.950 . S
C897 C895 1.327 . S
C898 C886 1.349 . S
C898 H892 0.950 . S
C898 C899 1.327 . S
C899 H893 0.950 . S
C899 C898 1.327 . S
C899 C903 1.429 . S
C900 C883 1.574 . S
C900 H894 0.949 . S
C900 C904 1.368 . S
C901 C882 1.429 . S
C901 C895 1.429 . S
C901 C902 1.523 . S
C902 C883 1.368 . S
C902 C896 1.368 . S
C902 C901 1.523 . S
C903 C887 1.429 . S
C903 C899 1.429 . S
C903 C904 1.523 . S
C904 C888 1.368 . S
C904 C900 1.368 . S
C904 C903 1.523 . S
H905 C880 0.950 . S
H906 C882 0.950 . S
H907 C883 0.949 . S
H908 C885 0.950 . S
H909 C887 0.950 . S
C910 C911 1.349 . S
C910 C912 1.327 . S
C910 H935 0.950 . S
C911 C910 1.349 . S
C911 C927 1.349 . S
C912 C910 1.327 . S
C912 C931 1.429 . S
C912 H936 0.950 . S
C913 C930 1.574 . S
C913 C932 1.368 . S
C913 H937 0.949 . S
H914 C918 0.949 . S
C915 C916 1.349 . S
C915 C917 1.327 . S
C915 H938 0.950 . S
C916 C915 1.349 . S
C916 C928 1.349 . S
C917 C915 1.327 . S
C917 C933 1.429 . S
C917 H939 0.950 . S
C918 H914 0.949 . S
C918 C926 1.574 . S
C918 C934 1.368 . S
H919 C927 0.950 . S
H920 C925 0.950 . S
H921 C926 0.949 . S
H922 C928 0.950 . S
H923 C929 0.950 . S
H924 C930 0.949 . S
C925 H920 0.950 . S
C925 C927 1.327 . S
C925 C931 1.429 . S
C926 C918 1.574 . S
C926 H921 0.949 . S
C926 C932 1.368 . S
C927 C911 1.349 . S
C927 H919 0.950 . S
C927 C925 1.327 . S
C928 C916 1.349 . S
C928 H922 0.950 . S
C928 C929 1.327 . S
C929 H923 0.950 . S
C929 C928 1.327 . S
C929 C933 1.429 . S
C930 C913 1.574 . S
C930 H924 0.949 . S
C930 C934 1.368 . S
C931 C912 1.429 . S
C931 C925 1.429 . S
C931 C932 1.523 . S
C932 C913 1.368 . S
C932 C926 1.368 . S
C932 C931 1.523 . S
C933 C917 1.429 . S
C933 C929 1.429 . S
C933 C934 1.523 . S
C934 C918 1.368 . S
C934 C930 1.368 . S
C934 C933 1.523 . S
H935 C910 0.950 . S
H936 C912 0.950 . S
H937 C913 0.949 . S
H938 C915 0.950 . S
H939 C917 0.950 . S
C940 C941 1.349 . S
C940 C942 1.327 . S
C940 H965 0.950 . S
C941 C940 1.349 . S
C941 C957 1.349 . S
C942 C940 1.327 . S
C942 C961 1.429 . S
C942 H966 0.950 . S
C943 C960 1.574 . S
C943 C962 1.368 . S
C943 H967 0.949 . S
H944 C948 0.949 . S
C945 C946 1.349 . S
C945 C947 1.327 . S
C945 H968 0.950 . S
C946 C945 1.349 . S
C946 C958 1.349 . S
C947 C945 1.327 . S
C947 C963 1.429 . S
C947 H969 0.950 . S
C948 H944 0.949 . S
C948 C956 1.574 . S
C948 C964 1.368 . S
H949 C957 0.950 . S
H950 C955 0.950 . S
H951 C956 0.949 . S
H952 C958 0.950 . S
H953 C959 0.950 . S
H954 C960 0.949 . S
C955 H950 0.950 . S
C955 C957 1.327 . S
C955 C961 1.429 . S
C956 C948 1.574 . S
C956 H951 0.949 . S
C956 C962 1.368 . S
C957 C941 1.349 . S
C957 H949 0.950 . S
C957 C955 1.327 . S
C958 C946 1.349 . S
C958 H952 0.950 . S
C958 C959 1.327 . S
C959 H953 0.950 . S
C959 C958 1.327 . S
C959 C963 1.429 . S
C960 C943 1.574 . S
C960 H954 0.949 . S
C960 C964 1.368 . S
C961 C942 1.429 . S
C961 C955 1.429 . S
C961 C962 1.523 . S
C962 C943 1.368 . S
C962 C956 1.368 . S
C962 C961 1.523 . S
C963 C947 1.429 . S
C963 C959 1.429 . S
C963 C964 1.523 . S
C964 C948 1.368 . S
C964 C960 1.368 . S
C964 C963 1.523 . S
H965 C940 0.950 . S
H966 C942 0.950 . S
H967 C943 0.949 . S
H968 C945 0.950 . S
H969 C947 0.950 . S
C970 C971 1.349 . S
C970 C972 1.327 . S
C970 H995 0.950 . S
C971 C970 1.349 . S
C971 C987 1.349 . S
C972 C970 1.327 . S
C972 C991 1.429 . S
C972 H996 0.950 . S
C973 C990 1.574 . S
C973 C992 1.368 . S
C973 H997 0.949 . S
H974 C978 0.949 . S
C975 C976 1.349 . S
C975 C977 1.327 . S
C975 H998 0.950 . S
C976 C975 1.349 . S
C976 C988 1.349 . S
C977 C975 1.327 . S
C977 C993 1.429 . S
C977 H999 0.950 . S
C978 H974 0.949 . S
C978 C986 1.574 . S
C978 C994 1.368 . S
H979 C987 0.950 . S
H980 C985 0.950 . S
H981 C986 0.949 . S
H982 C988 0.950 . S
H983 C989 0.950 . S
H984 C990 0.949 . S
C985 H980 0.950 . S
C985 C987 1.327 . S
C985 C991 1.429 . S
C986 C978 1.574 . S
C986 H981 0.949 . S
C986 C992 1.368 . S
C987 C971 1.349 . S
C987 H979 0.950 . S
C987 C985 1.327 . S
C988 C976 1.349 . S
C988 H982 0.950 . S
C988 C989 1.327 . S
C989 H983 0.950 . S
C989 C988 1.327 . S
C989 C993 1.429 . S
C990 C973 1.574 . S
C990 H984 0.949 . S
C990 C994 1.368 . S
C991 C972 1.429 . S
C991 C985 1.429 . S
C991 C992 1.523 . S
C992 C973 1.368 . S
C992 C986 1.368 . S
C992 C991 1.523 . S
C993 C977 1.429 . S
C993 C989 1.429 . S
C993 C994 1.523 . S
C994 C978 1.368 . S
C994 C990 1.368 . S
C994 C993 1.523 . S
H995 C970 0.950 . S
H996 C972 0.950 . S
H997 C973 0.949 . S
H998 C975 0.950 . S
H999 C977 0.950 . S
C1000 C1001 1.349 . S
C1000 C1002 1.327 . S
C1000 H1025 0.950 . S
C1001 C1000 1.349 . S
C1001 C1017 1.349 . S
C1002 C1000 1.327 . S
C1002 C1021 1.429 . S
C1002 H1026 0.950 . S
C1003 C1020 1.574 . S
C1003 C1022 1.368 . S
C1003 H1027 0.949 . S
H1004 C1008 0.949 . S
C1005 C1006 1.349 . S
C1005 C1007 1.327 . S
C1005 H1028 0.950 . S
C1006 C1005 1.349 . S
C1006 C1018 1.349 . S
C1007 C1005 1.327 . S
C1007 C1023 1.429 . S
C1007 H1029 0.950 . S
C1008 H1004 0.949 . S
C1008 C1016 1.574 . S
C1008 C1024 1.368 . S
H1009 C1017 0.950 . S
H1010 C1015 0.950 . S
H1011 C1016 0.949 . S
H1012 C1018 0.950 . S
H1013 C1019 0.950 . S
H1014 C1020 0.949 . S
C1015 H1010 0.950 . S
C1015 C1017 1.327 . S
C1015 C1021 1.429 . S
C1016 C1008 1.574 . S
C1016 H1011 0.949 . S
C1016 C1022 1.368 . S
C1017 C1001 1.349 . S
C1017 H1009 0.950 . S
C1017 C1015 1.327 . S
C1018 C1006 1.349 . S
C1018 H1012 0.950 . S
C1018 C1019 1.327 . S
C1019 H1013 0.950 . S
C1019 C1018 1.327 . S
C1019 C1023 1.429 . S
C1020 C1003 1.574 . S
C1020 H1014 0.949 . S
C1020 C1024 1.368 . S
C1021 C1002 1.429 . S
C1021 C1015 1.429 . S
C1021 C1022 1.523 . S
C1022 C1003 1.368 . S
C1022 C1016 1.368 . S
C1022 C1021 1.523 . S
C1023 C1007 1.429 . S
C1023 C1019 1.429 . S
C1023 C1024 1.523 . S
C1024 C1008 1.368 . S
C1024 C1020 1.368 . S
C1024 C1023 1.523 . S
H1025 C1000 0.950 . S
H1026 C1002 0.950 . S
H1027 C1003 0.949 . S
H1028 C1005 0.950 . S
H1029 C1007 0.950 . S
C1030 C1031 1.349 . S
C1030 C1032 1.327 . S
C1030 H1055 0.950 . S
C1031 C1030 1.349 . S
C1031 C1047 1.349 . S
C1032 C1030 1.327 . S
C1032 C1051 1.429 . S
C1032 H1056 0.950 . S
C1033 C1050 1.574 . S
C1033 C1052 1.368 . S
C1033 H1057 0.949 . S
H1034 C1038 0.949 . S
C1035 C1036 1.349 . S
C1035 C1037 1.327 . S
C1035 H1058 0.950 . S
C1036 C1035 1.349 . S
C1036 C1048 1.349 . S
C1037 C1035 1.327 . S
C1037 C1053 1.429 . S
C1037 H1059 0.950 . S
C1038 H1034 0.949 . S
C1038 C1046 1.574 . S
C1038 C1054 1.368 . S
H1039 C1047 0.950 . S
H1040 C1045 0.950 . S
H1041 C1046 0.949 . S
H1042 C1048 0.950 . S
H1043 C1049 0.950 . S
H1044 C1050 0.949 . S
C1045 H1040 0.950 . S
C1045 C1047 1.327 . S
C1045 C1051 1.429 . S
C1046 C1038 1.574 . S
C1046 H1041 0.949 . S
C1046 C1052 1.368 . S
C1047 C1031 1.349 . S
C1047 H1039 0.950 . S
C1047 C1045 1.327 . S
C1048 C1036 1.349 . S
C1048 H1042 0.950 . S
C1048 C1049 1.327 . S
C1049 H1043 0.950 . S
C1049 C1048 1.327 . S
C1049 C1053 1.429 . S
C1050 C1033 1.574 . S
C1050 H1044 0.949 . S
C1050 C1054 1.368 . S
C1051 C1032 1.429 . S
C1051 C1045 1.429 . S
C1051 C1052 1.523 . S
C1052 C1033 1.368 . S
C1052 C1046 1.368 . S
C1052 C1051 1.523 . S
C1053 C1037 1.429 . S
C1053 C1049 1.429 . S
C1053 C1054 1.523 . S
C1054 C1038 1.368 . S
C1054 C1050 1.368 . S
C1054 C1053 1.523 . S
H1055 C1030 0.950 . S
H1056 C1032 0.950 . S
H1057 C1033 0.949 . S
H1058 C1035 0.950 . S
H1059 C1037 0.950 . S
C1060 C1061 1.349 . S
C1060 C1062 1.327 . S
C1060 H1085 0.950 . S
C1061 C1060 1.349 . S
C1061 C1077 1.349 . S
C1062 C1060 1.327 . S
C1062 C1081 1.429 . S
C1062 H1086 0.950 . S
C1063 C1080 1.574 . S
C1063 C1082 1.368 . S
C1063 H1087 0.949 . S
H1064 C1068 0.949 . S
C1065 C1066 1.349 . S
C1065 C1067 1.327 . S
C1065 H1088 0.950 . S
C1066 C1065 1.349 . S
C1066 C1078 1.349 . S
C1067 C1065 1.327 . S
C1067 C1083 1.429 . S
C1067 H1089 0.950 . S
C1068 H1064 0.949 . S
C1068 C1076 1.574 . S
C1068 C1084 1.368 . S
H1069 C1077 0.950 . S
H1070 C1075 0.950 . S
H1071 C1076 0.949 . S
H1072 C1078 0.950 . S
H1073 C1079 0.950 . S
H1074 C1080 0.949 . S
C1075 H1070 0.950 . S
C1075 C1077 1.327 . S
C1075 C1081 1.429 . S
C1076 C1068 1.574 . S
C1076 H1071 0.949 . S
C1076 C1082 1.368 . S
C1077 C1061 1.349 . S
C1077 H1069 0.950 . S
C1077 C1075 1.327 . S
C1078 C1066 1.349 . S
C1078 H1072 0.950 . S
C1078 C1079 1.327 . S
C1079 H1073 0.950 . S
C1079 C1078 1.327 . S
C1079 C1083 1.429 . S
C1080 C1063 1.574 . S
C1080 H1074 0.949 . S
C1080 C1084 1.368 . S
C1081 C1062 1.429 . S
C1081 C1075 1.429 . S
C1081 C1082 1.523 . S
C1082 C1063 1.368 . S
C1082 C1076 1.368 . S
C1082 C1081 1.523 . S
C1083 C1067 1.429 . S
C1083 C1079 1.429 . S
C1083 C1084 1.523 . S
C1084 C1068 1.368 . S
C1084 C1080 1.368 . S
C1084 C1083 1.523 . S
H1085 C1060 0.950 . S
H1086 C1062 0.950 . S
H1087 C1063 0.949 . S
H1088 C1065 0.950 . S
H1089 C1067 0.950 . S
C1090 C1091 1.349 . S
C1090 C1092 1.327 . S
C1090 H1115 0.950 . S
C1091 C1090 1.349 . S
C1091 C1107 1.349 . S
C1092 C1090 1.327 . S
C1092 C1111 1.429 . S
C1092 H1116 0.950 . S
C1093 C1110 1.574 . S
C1093 C1112 1.368 . S
C1093 H1117 0.949 . S
H1094 C1098 0.949 . S
C1095 C1096 1.349 . S
C1095 C1097 1.327 . S
C1095 H1118 0.950 . S
C1096 C1095 1.349 . S
C1096 C1108 1.349 . S
C1097 C1095 1.327 . S
C1097 C1113 1.429 . S
C1097 H1119 0.950 . S
C1098 H1094 0.949 . S
C1098 C1106 1.574 . S
C1098 C1114 1.368 . S
H1099 C1107 0.950 . S
H1100 C1105 0.950 . S
H1101 C1106 0.949 . S
H1102 C1108 0.950 . S
H1103 C1109 0.950 . S
H1104 C1110 0.949 . S
C1105 H1100 0.950 . S
C1105 C1107 1.327 . S
C1105 C1111 1.429 . S
C1106 C1098 1.574 . S
C1106 H1101 0.949 . S
C1106 C1112 1.368 . S
C1107 C1091 1.349 . S
C1107 H1099 0.950 . S
C1107 C1105 1.327 . S
C1108 C1096 1.349 . S
C1108 H1102 0.950 . S
C1108 C1109 1.327 . S
C1109 H1103 0.950 . S
C1109 C1108 1.327 . S
C1109 C1113 1.429 . S
C1110 C1093 1.574 . S
C1110 H1104 0.949 . S
C1110 C1114 1.368 . S
C1111 C1092 1.429 . S
C1111 C1105 1.429 . S
C1111 C1112 1.523 . S
C1112 C1093 1.368 . S
C1112 C1106 1.368 . S
C1112 C1111 1.523 . S
C1113 C1097 1.429 . S
C1113 C1109 1.429 . S
C1113 C1114 1.523 . S
C1114 C1098 1.368 . S
C1114 C1110 1.368 . S
C1114 C1113 1.523 . S
H1115 C1090 0.950 . S
H1116 C1092 0.950 . S
H1117 C1093 0.949 . S
H1118 C1095 0.950 . S
H1119 C1097 0.950 . S
C401 C21 1.528 . S
C406 C339 1.534 . S
C431 C61 1.344 . S
C436 C342 1.299 . S
C466 C378 1.655 . S
C461 C82 1.650 . S
C491 C135 1.650 . S
C496 C398 1.628 . S
C526 C352 1.769 . S
C521 C15 1.803 . S
C556 C329 1.607 . S
C551 C42 1.623 . S
C586 C382 1.529 . S
C581 C101 1.623 . S
C616 C362 1.342 . S
C611 C122 1.403 . S
C641 C2 1.360 . S
C646 C392 1.340 . S
C676 C358 1.506 . S
C671 C95 1.527 . S
C701 C141 1.666 . S
C706 C324 1.626 . S
C731 C55 1.344 . S
C736 C372 1.311 . S
C766 C338 1.553 . S
C761 C181 1.596 . S
C791 C202 1.318 . S
C796 C344 1.279 . S
C821 C255 1.694 . S
C826 C379 1.668 . S
C851 C295 1.627 . S
C856 C399 1.607 . S
C881 C175 1.797 . S
C886 C349 1.759 . S
C916 C332 1.618 . S
C911 C221 1.636 . S
C946 C384 1.463 . S
C941 C242 1.580 . S
C976 C364 1.403 . S
C971 C301 1.452 . S
C1001 C162 1.358 . S
C1006 C389 1.302 . S
C1036 C359 1.553 . S
C1031 C261 1.567 . S
C1066 C322 1.597 . S
C1061 C282 1.649 . S
C1091 C215 1.382 . S
C1096 C369 1.350 . S
