# Generated by pormake.
# Topology iac, (4,6)-cn, num edge types: 1
# Building blocks:
#     Node 0, Type 0, BuildingBlock: NAHDIM_clean_sbu_0, # of connection points: 4
#     Node 1, Type 0, BuildingBlock: NAHDIM_clean_sbu_0, # of connection points: 4
#     Node 2, Type 0, BuildingBlock: NAHDIM_clean_sbu_0, # of connection points: 4
#     Node 3, Type 0, BuildingBlock: NAHDIM_clean_sbu_0, # of connection points: 4
#     Node 4, Type 0, BuildingBlock: NAHDIM_clean_sbu_0, # of connection points: 4
#     Node 5, Type 0, BuildingBlock: NAHDIM_clean_sbu_0, # of connection points: 4
#     Node 6, Type 0, BuildingBlock: NAHDIM_clean_sbu_0, # of connection points: 4
#     Node 7, Type 0, BuildingBlock: NAHDIM_clean_sbu_0, # of connection points: 4
#     Node 8, Type 0, BuildingBlock: NAHDIM_clean_sbu_0, # of connection points: 4
#     Node 9, Type 0, BuildingBlock: NAHDIM_clean_sbu_0, # of connection points: 4
#     Node 10, Type 0, BuildingBlock: NAHDIM_clean_sbu_0, # of connection points: 4
#     Node 11, Type 0, BuildingBlock: NAHDIM_clean_sbu_0, # of connection points: 4
#     Node 12, Type 0, BuildingBlock: NAHDIM_clean_sbu_0, # of connection points: 4
#     Node 13, Type 0, BuildingBlock: NAHDIM_clean_sbu_0, # of connection points: 4
#     Node 14, Type 0, BuildingBlock: NAHDIM_clean_sbu_0, # of connection points: 4
#     Node 15, Type 0, BuildingBlock: NAHDIM_clean_sbu_0, # of connection points: 4
#     Node 16, Type 0, BuildingBlock: NAHDIM_clean_sbu_0, # of connection points: 4
#     Node 17, Type 0, BuildingBlock: NAHDIM_clean_sbu_0, # of connection points: 4
#     Node 18, Type 0, BuildingBlock: NAHDIM_clean_sbu_0, # of connection points: 4
#     Node 19, Type 0, BuildingBlock: NAHDIM_clean_sbu_0, # of connection points: 4
#     Node 20, Type 0, BuildingBlock: NAHDIM_clean_sbu_0, # of connection points: 4
#     Node 21, Type 0, BuildingBlock: NAHDIM_clean_sbu_0, # of connection points: 4
#     Node 22, Type 0, BuildingBlock: NAHDIM_clean_sbu_0, # of connection points: 4
#     Node 23, Type 0, BuildingBlock: NAHDIM_clean_sbu_0, # of connection points: 4
#     Node 24, Type 1, BuildingBlock: CIFDUS_clean_sbu_1, # of connection points: 6
#     Node 25, Type 1, BuildingBlock: CIFDUS_clean_sbu_1, # of connection points: 6
#     Node 26, Type 1, BuildingBlock: CIFDUS_clean_sbu_1, # of connection points: 6
#     Node 27, Type 1, BuildingBlock: CIFDUS_clean_sbu_1, # of connection points: 6
#     Node 28, Type 1, BuildingBlock: CIFDUS_clean_sbu_1, # of connection points: 6
#     Node 29, Type 1, BuildingBlock: CIFDUS_clean_sbu_1, # of connection points: 6
#     Node 30, Type 1, BuildingBlock: CIFDUS_clean_sbu_1, # of connection points: 6
#     Node 31, Type 1, BuildingBlock: CIFDUS_clean_sbu_1, # of connection points: 6
#     Node 32, Type 1, BuildingBlock: CIFDUS_clean_sbu_1, # of connection points: 6
#     Node 33, Type 1, BuildingBlock: CIFDUS_clean_sbu_1, # of connection points: 6
#     Node 34, Type 1, BuildingBlock: CIFDUS_clean_sbu_1, # of connection points: 6
#     Node 35, Type 1, BuildingBlock: CIFDUS_clean_sbu_1, # of connection points: 6
#     Node 36, Type 1, BuildingBlock: CIFDUS_clean_sbu_1, # of connection points: 6
#     Node 37, Type 1, BuildingBlock: CIFDUS_clean_sbu_1, # of connection points: 6
#     Node 38, Type 1, BuildingBlock: CIFDUS_clean_sbu_1, # of connection points: 6
#     Node 39, Type 1, BuildingBlock: CIFDUS_clean_sbu_1, # of connection points: 6
#     Edge 40, Type (0, 1), BuildingBlock: UVAHIK_clean_linker_0, # of connection points: 2
#     Edge 41, Type (0, 1), BuildingBlock: UVAHIK_clean_linker_0, # of connection points: 2
#     Edge 42, Type (0, 1), BuildingBlock: UVAHIK_clean_linker_0, # of connection points: 2
#     Edge 43, Type (0, 1), BuildingBlock: UVAHIK_clean_linker_0, # of connection points: 2
#     Edge 44, Type (0, 1), BuildingBlock: UVAHIK_clean_linker_0, # of connection points: 2
#     Edge 45, Type (0, 1), BuildingBlock: UVAHIK_clean_linker_0, # of connection points: 2
#     Edge 46, Type (0, 1), BuildingBlock: UVAHIK_clean_linker_0, # of connection points: 2
#     Edge 47, Type (0, 1), BuildingBlock: UVAHIK_clean_linker_0, # of connection points: 2
#     Edge 48, Type (0, 1), BuildingBlock: UVAHIK_clean_linker_0, # of connection points: 2
#     Edge 49, Type (0, 1), BuildingBlock: UVAHIK_clean_linker_0, # of connection points: 2
#     Edge 50, Type (0, 1), BuildingBlock: UVAHIK_clean_linker_0, # of connection points: 2
#     Edge 51, Type (0, 1), BuildingBlock: UVAHIK_clean_linker_0, # of connection points: 2
#     Edge 52, Type (0, 1), BuildingBlock: UVAHIK_clean_linker_0, # of connection points: 2
#     Edge 53, Type (0, 1), BuildingBlock: UVAHIK_clean_linker_0, # of connection points: 2
#     Edge 54, Type (0, 1), BuildingBlock: UVAHIK_clean_linker_0, # of connection points: 2
#     Edge 55, Type (0, 1), BuildingBlock: UVAHIK_clean_linker_0, # of connection points: 2
#     Edge 56, Type (0, 1), BuildingBlock: UVAHIK_clean_linker_0, # of connection points: 2
#     Edge 57, Type (0, 1), BuildingBlock: UVAHIK_clean_linker_0, # of connection points: 2
#     Edge 58, Type (0, 1), BuildingBlock: UVAHIK_clean_linker_0, # of connection points: 2
#     Edge 59, Type (0, 1), BuildingBlock: UVAHIK_clean_linker_0, # of connection points: 2
#     Edge 60, Type (0, 1), BuildingBlock: UVAHIK_clean_linker_0, # of connection points: 2
#     Edge 61, Type (0, 1), BuildingBlock: UVAHIK_clean_linker_0, # of connection points: 2
#     Edge 62, Type (0, 1), BuildingBlock: UVAHIK_clean_linker_0, # of connection points: 2
#     Edge 63, Type (0, 1), BuildingBlock: UVAHIK_clean_linker_0, # of connection points: 2
#     Edge 64, Type (0, 1), BuildingBlock: UVAHIK_clean_linker_0, # of connection points: 2
#     Edge 65, Type (0, 1), BuildingBlock: UVAHIK_clean_linker_0, # of connection points: 2
#     Edge 66, Type (0, 1), BuildingBlock: UVAHIK_clean_linker_0, # of connection points: 2
#     Edge 67, Type (0, 1), BuildingBlock: UVAHIK_clean_linker_0, # of connection points: 2
#     Edge 68, Type (0, 1), BuildingBlock: UVAHIK_clean_linker_0, # of connection points: 2
#     Edge 69, Type (0, 1), BuildingBlock: UVAHIK_clean_linker_0, # of connection points: 2
#     Edge 70, Type (0, 1), BuildingBlock: UVAHIK_clean_linker_0, # of connection points: 2
#     Edge 71, Type (0, 1), BuildingBlock: UVAHIK_clean_linker_0, # of connection points: 2
#     Edge 72, Type (0, 1), BuildingBlock: UVAHIK_clean_linker_0, # of connection points: 2
#     Edge 73, Type (0, 1), BuildingBlock: UVAHIK_clean_linker_0, # of connection points: 2
#     Edge 74, Type (0, 1), BuildingBlock: UVAHIK_clean_linker_0, # of connection points: 2
#     Edge 75, Type (0, 1), BuildingBlock: UVAHIK_clean_linker_0, # of connection points: 2
#     Edge 76, Type (0, 1), BuildingBlock: UVAHIK_clean_linker_0, # of connection points: 2
#     Edge 77, Type (0, 1), BuildingBlock: UVAHIK_clean_linker_0, # of connection points: 2
#     Edge 78, Type (0, 1), BuildingBlock: UVAHIK_clean_linker_0, # of connection points: 2
#     Edge 79, Type (0, 1), BuildingBlock: UVAHIK_clean_linker_0, # of connection points: 2
#     Edge 80, Type (0, 1), BuildingBlock: UVAHIK_clean_linker_0, # of connection points: 2
#     Edge 81, Type (0, 1), BuildingBlock: UVAHIK_clean_linker_0, # of connection points: 2
#     Edge 82, Type (0, 1), BuildingBlock: UVAHIK_clean_linker_0, # of connection points: 2
#     Edge 83, Type (0, 1), BuildingBlock: UVAHIK_clean_linker_0, # of connection points: 2
#     Edge 84, Type (0, 1), BuildingBlock: UVAHIK_clean_linker_0, # of connection points: 2
#     Edge 85, Type (0, 1), BuildingBlock: UVAHIK_clean_linker_0, # of connection points: 2
#     Edge 86, Type (0, 1), BuildingBlock: UVAHIK_clean_linker_0, # of connection points: 2
#     Edge 87, Type (0, 1), BuildingBlock: UVAHIK_clean_linker_0, # of connection points: 2
#     Edge 88, Type (0, 1), BuildingBlock: UVAHIK_clean_linker_0, # of connection points: 2
#     Edge 89, Type (0, 1), BuildingBlock: UVAHIK_clean_linker_0, # of connection points: 2
#     Edge 90, Type (0, 1), BuildingBlock: UVAHIK_clean_linker_0, # of connection points: 2
#     Edge 91, Type (0, 1), BuildingBlock: UVAHIK_clean_linker_0, # of connection points: 2
#     Edge 92, Type (0, 1), BuildingBlock: UVAHIK_clean_linker_0, # of connection points: 2
#     Edge 93, Type (0, 1), BuildingBlock: UVAHIK_clean_linker_0, # of connection points: 2
#     Edge 94, Type (0, 1), BuildingBlock: UVAHIK_clean_linker_0, # of connection points: 2
#     Edge 95, Type (0, 1), BuildingBlock: UVAHIK_clean_linker_0, # of connection points: 2
#     Edge 96, Type (0, 1), BuildingBlock: UVAHIK_clean_linker_0, # of connection points: 2
#     Edge 97, Type (0, 1), BuildingBlock: UVAHIK_clean_linker_0, # of connection points: 2
#     Edge 98, Type (0, 1), BuildingBlock: UVAHIK_clean_linker_0, # of connection points: 2
#     Edge 99, Type (0, 1), BuildingBlock: UVAHIK_clean_linker_0, # of connection points: 2
#     Edge 100, Type (0, 1), BuildingBlock: UVAHIK_clean_linker_0, # of connection points: 2
#     Edge 101, Type (0, 1), BuildingBlock: UVAHIK_clean_linker_0, # of connection points: 2
#     Edge 102, Type (0, 1), BuildingBlock: UVAHIK_clean_linker_0, # of connection points: 2
#     Edge 103, Type (0, 1), BuildingBlock: UVAHIK_clean_linker_0, # of connection points: 2
#     Edge 104, Type (0, 1), BuildingBlock: UVAHIK_clean_linker_0, # of connection points: 2
#     Edge 105, Type (0, 1), BuildingBlock: UVAHIK_clean_linker_0, # of connection points: 2
#     Edge 106, Type (0, 1), BuildingBlock: UVAHIK_clean_linker_0, # of connection points: 2
#     Edge 107, Type (0, 1), BuildingBlock: UVAHIK_clean_linker_0, # of connection points: 2
#     Edge 108, Type (0, 1), BuildingBlock: UVAHIK_clean_linker_0, # of connection points: 2
#     Edge 109, Type (0, 1), BuildingBlock: UVAHIK_clean_linker_0, # of connection points: 2
#     Edge 110, Type (0, 1), BuildingBlock: UVAHIK_clean_linker_0, # of connection points: 2
#     Edge 111, Type (0, 1), BuildingBlock: UVAHIK_clean_linker_0, # of connection points: 2
#     Edge 112, Type (0, 1), BuildingBlock: UVAHIK_clean_linker_0, # of connection points: 2
#     Edge 113, Type (0, 1), BuildingBlock: UVAHIK_clean_linker_0, # of connection points: 2
#     Edge 114, Type (0, 1), BuildingBlock: UVAHIK_clean_linker_0, # of connection points: 2
#     Edge 115, Type (0, 1), BuildingBlock: UVAHIK_clean_linker_0, # of connection points: 2
#     Edge 116, Type (0, 1), BuildingBlock: UVAHIK_clean_linker_0, # of connection points: 2
#     Edge 117, Type (0, 1), BuildingBlock: UVAHIK_clean_linker_0, # of connection points: 2
#     Edge 118, Type (0, 1), BuildingBlock: UVAHIK_clean_linker_0, # of connection points: 2
#     Edge 119, Type (0, 1), BuildingBlock: UVAHIK_clean_linker_0, # of connection points: 2
#     Edge 120, Type (0, 1), BuildingBlock: UVAHIK_clean_linker_0, # of connection points: 2
#     Edge 121, Type (0, 1), BuildingBlock: UVAHIK_clean_linker_0, # of connection points: 2
#     Edge 122, Type (0, 1), BuildingBlock: UVAHIK_clean_linker_0, # of connection points: 2
#     Edge 123, Type (0, 1), BuildingBlock: UVAHIK_clean_linker_0, # of connection points: 2
#     Edge 124, Type (0, 1), BuildingBlock: UVAHIK_clean_linker_0, # of connection points: 2
#     Edge 125, Type (0, 1), BuildingBlock: UVAHIK_clean_linker_0, # of connection points: 2
#     Edge 126, Type (0, 1), BuildingBlock: UVAHIK_clean_linker_0, # of connection points: 2
#     Edge 127, Type (0, 1), BuildingBlock: UVAHIK_clean_linker_0, # of connection points: 2
#     Edge 128, Type (0, 1), BuildingBlock: UVAHIK_clean_linker_0, # of connection points: 2
#     Edge 129, Type (0, 1), BuildingBlock: UVAHIK_clean_linker_0, # of connection points: 2
#     Edge 130, Type (0, 1), BuildingBlock: UVAHIK_clean_linker_0, # of connection points: 2
#     Edge 131, Type (0, 1), BuildingBlock: UVAHIK_clean_linker_0, # of connection points: 2
#     Edge 132, Type (0, 1), BuildingBlock: UVAHIK_clean_linker_0, # of connection points: 2
#     Edge 133, Type (0, 1), BuildingBlock: UVAHIK_clean_linker_0, # of connection points: 2
#     Edge 134, Type (0, 1), BuildingBlock: UVAHIK_clean_linker_0, # of connection points: 2
#     Edge 135, Type (0, 1), BuildingBlock: UVAHIK_clean_linker_0, # of connection points: 2
# Relax obj value: 0.110
# Max RMSD: 0.168
# Mean RMSD: 0.132
data_MOF--net-iac--node1-NAHDIM_clean_sbu_0--node2-CIFDUS_clean_sbu_1--edge1-UVAHIK_clean_linker_0
_symmetry_space_group_name_H-M    P1
_symmetry_Int_Tables_number       1
_symmetry_cell_setting            triclinic
loop_
_symmetry_equiv_pos_as_xyz
'x, y, z'
_cell_length_a     71.253076
_cell_length_b     69.574405
_cell_length_c     68.185631
_cell_angle_alpha  89.996954
_cell_angle_beta   90.298467
_cell_angle_gamma 90.668991
loop_
_atom_site_label
_atom_site_type_symbol
_atom_site_fract_x
_atom_site_fract_y
_atom_site_fract_z
_atom_type_partial_charge
C0 C 0.95295 0.25805 0.13301 0.0
O1 O 0.95315 0.26701 0.11606 0.0
O2 O 0.99004 0.22421 0.10515 0.0
Zn3 Zn 0.99047 0.24888 0.12096 0.0
O4 O 0.98941 0.27313 0.10492 0.0
C5 C 0.02854 0.24014 0.13329 0.0
O6 O 0.02799 0.22884 0.11787 0.0
O7 O 0.96743 0.24886 0.13847 0.0
C8 C 0.00097 0.28026 0.09274 0.0
O9 O 0.01633 0.27099 0.0883 0.0
C10 C -0.00579 0.22139 0.08726 0.0
O11 O -0.00113 0.23604 0.0761 0.0
O12 O 0.01415 0.24996 0.13754 0.0
C13 C 0.03356 0.75278 0.35556 0.0
O14 O 0.03429 0.7628 0.37188 0.0
O15 O -0.0034 0.72213 0.38399 0.0
Zn16 Zn -0.00438 0.74475 0.36671 0.0
O17 O -0.0054 0.76842 0.38284 0.0
C18 C 0.96337 0.72849 0.34651 0.0
O19 O 0.96852 0.71214 0.35441 0.0
O20 O 0.01837 0.7445 0.35045 0.0
C21 C 0.979 0.77614 0.38669 0.0
O22 O 0.96335 0.7684 0.37994 0.0
C23 C 0.98885 0.72109 0.40065 0.0
O24 O 0.97918 0.73565 0.40726 0.0
O25 O 0.9732 0.74354 0.34943 0.0
C26 C 0.45306 0.75779 0.6337 0.0
O27 O 0.45349 0.76662 0.61668 0.0
O28 O 0.49105 0.72425 0.60628 0.0
Zn29 Zn 0.49054 0.74898 0.62197 0.0
O30 O 0.48966 0.77327 0.60591 0.0
C31 C 0.52841 0.74041 0.63431 0.0
O32 O 0.5277 0.72883 0.6191 0.0
O33 O 0.46747 0.74863 0.6394 0.0
C34 C 0.49948 0.77833 0.59128 0.0
O35 O 0.51219 0.76669 0.58427 0.0
C36 C 0.48982 0.72103 0.58795 0.0
O37 O 0.4869 0.73533 0.57578 0.0
O38 O 0.51412 0.75037 0.63854 0.0
C39 C 0.53471 0.25094 0.85495 0.0
O40 O 0.53485 0.26025 0.87171 0.0
O41 O 0.49749 0.22136 0.88299 0.0
Zn42 Zn 0.49655 0.24339 0.86482 0.0
O43 O 0.49581 0.26758 0.88033 0.0
C44 C 0.46327 0.22719 0.84604 0.0
O45 O 0.46772 0.21119 0.85508 0.0
O46 O 0.51966 0.24295 0.8489 0.0
C47 C 0.48124 0.27786 0.88128 0.0
O48 O 0.46589 0.27245 0.87196 0.0
C49 C 0.48687 0.21944 0.89774 0.0
O50 O 0.47414 0.23246 0.90137 0.0
O51 O 0.47396 0.24183 0.84759 0.0
C52 C 0.14102 0.95409 0.25638 0.0
O53 O 0.12351 0.95378 0.26231 0.0
O54 O 0.11395 0.99181 0.22619 0.0
Zn55 Zn 0.13101 0.99285 0.2499 0.0
O56 O 0.11578 0.99096 0.27461 0.0
C57 C 0.14245 0.03048 0.23641 0.0
O58 O 0.12894 0.02701 0.2237 0.0
O59 O 0.14793 0.9697 0.24966 0.0
C60 C 0.10339 0.00265 0.28027 0.0
O61 O 0.10008 0.01812 0.26982 0.0
C62 C 0.09724 0.98525 0.22568 0.0
O63 O 0.08995 0.97754 0.24154 0.0
O64 O 0.14611 0.01791 0.24942 0.0
C65 C 0.20759 0.89172 0.49346 0.0
O66 O 0.20645 0.87505 0.48445 0.0
O67 O 0.25009 0.86422 0.51872 0.0
Zn68 Zn 0.24673 0.88301 0.49698 0.0
O69 O 0.24695 0.8702 0.47096 0.0
C70 C 0.27729 0.90557 0.5124 0.0
O71 O 0.2718 0.89882 0.52946 0.0
O72 O 0.22327 0.89763 0.50013 0.0
C73 C 0.25581 0.85481 0.46781 0.0
O74 O 0.26453 0.8462 0.48231 0.0
C75 C 0.23919 0.84982 0.52055 0.0
O76 O 0.22552 0.84714 0.50781 0.0
O77 O 0.26813 0.90115 0.49704 0.0
C78 C 0.35603 0.04051 0.7441 0.0
O79 O 0.37241 0.04269 0.7528 0.0
O80 O 0.38358 -0.00231 0.72266 0.0
Zn81 Zn 0.36612 0.00146 0.74457 0.0
O82 O 0.38064 0.00515 0.76922 0.0
C83 C 0.34575 0.96862 0.73193 0.0
O84 O 0.35188 0.9741 0.71466 0.0
O85 O 0.35043 0.02387 0.73913 0.0
C86 C 0.39334 -0.00685 0.77328 0.0
O87 O 0.39613 0.97863 0.76136 0.0
C88 C 0.39901 0.00686 0.72196 0.0
O89 O 0.40339 0.0191 0.73598 0.0
O90 O 0.34989 0.97848 0.74701 0.0
C91 C 0.28628 0.10095 0.98266 0.0
O92 O 0.2858 0.11822 0.97491 0.0
O93 O 0.25322 0.12543 0.02102 0.0
Zn94 Zn 0.2498 0.11174 -0.00436 0.0
O95 O 0.24938 0.13116 0.97382 0.0
C96 C 0.21411 0.09639 0.01008 0.0
O97 O 0.2189 0.10513 0.02645 0.0
O98 O 0.27211 0.09467 0.99208 0.0
C99 C 0.23553 0.13307 0.96224 0.0
O100 O 0.22037 0.12245 0.96478 0.0
C101 C 0.24514 0.14122 0.02442 0.0
O102 O 0.2344 0.14883 0.01082 0.0
O103 O 0.22539 0.09663 -0.00432 0.0
C104 C 0.70852 0.39236 0.99321 0.0
O105 O 0.70788 0.3749 0.98588 0.0
O106 O 0.74373 0.36274 0.01797 0.0
Zn107 Zn 0.74628 0.38283 -0.00262 0.0
O108 O 0.7468 0.37113 0.97082 0.0
C109 C 0.78009 0.39922 0.01563 0.0
O110 O 0.77525 0.38995 0.03164 0.0
O111 O 0.72408 0.39932 -0.00087 0.0
C112 C 0.76173 0.36408 0.96398 0.0
O113 O 0.77719 0.36414 0.97452 0.0
C114 C 0.75603 0.35022 0.02174 0.0
O115 O 0.77165 0.35 0.01165 0.0
O116 O 0.76959 0.39839 0.00057 0.0
C117 C 0.85436 0.54003 0.25252 0.0
O118 O 0.87224 0.54196 0.25702 0.0
O119 O 0.8815 0.50269 0.2218 0.0
Zn120 Zn 0.86556 0.50217 0.24563 0.0
O121 O 0.88169 0.50379 0.26924 0.0
C122 C 0.84798 0.46774 0.23109 0.0
O123 O 0.85485 0.47333 0.21416 0.0
O124 O 0.84812 0.52396 0.24645 0.0
C125 C 0.89517 0.49248 0.27246 0.0
O126 O 0.89854 0.47854 0.26001 0.0
C127 C 0.89764 0.51059 0.22131 0.0
O128 O 0.90399 0.51997 0.23673 0.0
O129 O 0.85081 0.47793 0.24628 0.0
C130 C 0.78795 0.60182 0.48683 0.0
O131 O 0.7887 0.62027 0.48274 0.0
O132 O 0.75276 0.62601 0.51985 0.0
Zn133 Zn 0.75048 0.61209 0.49439 0.0
O134 O 0.75195 0.63147 0.47266 0.0
C135 C 0.71591 0.59301 0.50722 0.0
O136 O 0.72293 0.59546 0.52491 0.0
O137 O 0.77244 0.59435 0.49222 0.0
C138 C 0.73765 0.63632 0.46274 0.0
O139 O 0.72117 0.62877 0.46692 0.0
C140 C 0.74217 0.63998 0.52389 0.0
O141 O 0.72928 0.64519 0.51117 0.0
O142 O 0.72556 0.5981 0.49245 0.0
C143 C 0.64182 0.45508 0.75673 0.0
O144 O 0.62436 0.45487 0.76282 0.0
O145 O 0.61434 0.49199 0.72652 0.0
Zn146 Zn 0.63146 0.49345 0.75018 0.0
O147 O 0.61694 0.49167 0.77546 0.0
C148 C 0.63991 0.53251 0.73882 0.0
O149 O 0.62404 0.53033 0.72916 0.0
O150 O 0.6487 0.47059 0.74978 0.0
C151 C 0.60448 0.50327 0.78113 0.0
O152 O 0.60045 0.51821 0.77016 0.0
C153 C 0.59719 0.48677 0.72637 0.0
O154 O 0.58929 0.481 0.74275 0.0
O155 O 0.64605 0.51862 0.74909 0.0
C156 C 0.03766 0.75189 0.85623 0.0
O157 O 0.03749 0.75611 0.87501 0.0
O158 O -0.00037 0.72394 0.88063 0.0
Zn159 Zn -0.00052 0.74897 0.86526 0.0
O160 O 0.00103 0.77316 0.88183 0.0
C161 C 0.96222 0.73868 0.85159 0.0
O162 O 0.96426 0.72436 0.86394 0.0
O163 O 0.02215 0.74831 0.84762 0.0
C164 C 0.98885 0.7775 0.8946 0.0
O165 O 0.97516 0.76527 0.8984 0.0
C166 C 0.00216 0.72143 0.89891 0.0
O167 O 0.00491 0.73642 0.91032 0.0
O168 O 0.97558 0.75074 0.84936 0.0
C169 C 0.95471 0.24811 0.63868 0.0
O170 O 0.9534 0.25466 0.62066 0.0
O171 O 0.98819 0.22035 0.60942 0.0
Zn172 Zn -0.00835 0.24289 0.62662 0.0
O173 O 0.99049 0.2664 0.6101 0.0
C174 C 0.02848 0.22897 0.63739 0.0
O175 O 0.02441 0.21516 0.62489 0.0
O176 O 0.97041 0.24243 0.64516 0.0
C177 C 0.0052 0.27584 0.60573 0.0
O178 O 0.02153 0.27041 0.61268 0.0
C179 C -0.00584 0.2199 0.59195 0.0
O180 O 0.00297 0.23494 0.58466 0.0
O181 O 0.01642 0.24184 0.64084 0.0
C182 C 0.53867 0.25526 0.35727 0.0
O183 O 0.53857 0.25974 0.37599 0.0
O184 O 0.50339 0.22445 0.38176 0.0
Zn185 Zn 0.50034 0.24906 0.36626 0.0
O186 O 0.49929 0.27248 0.38422 0.0
C187 C 0.46379 0.23575 0.35105 0.0
O188 O 0.46588 0.22159 0.36358 0.0
O189 O 0.52324 0.25072 0.34897 0.0
C190 C 0.48478 0.28301 0.38475 0.0
O191 O 0.47009 0.27825 0.37402 0.0
C192 C 0.49529 0.22037 0.39781 0.0
O193 O 0.48371 0.2328 0.40554 0.0
O194 O 0.47679 0.2483 0.34935 0.0
C195 C 0.45632 0.74358 0.14205 0.0
O196 O 0.45335 0.74483 0.12305 0.0
O197 O 0.48817 0.7205 0.11049 0.0
Zn198 Zn 0.49262 0.74309 0.12787 0.0
O199 O 0.49041 0.76731 0.11241 0.0
C200 C 0.53041 0.72989 0.1355 0.0
O201 O 0.52638 0.71683 0.12218 0.0
O202 O 0.47303 0.74259 0.14839 0.0
C203 C 0.50472 0.7748 0.10429 0.0
O204 O 0.52111 0.76656 0.10632 0.0
C205 C 0.49281 0.72 0.09256 0.0
O206 O 0.50074 0.73515 0.08446 0.0
O207 O 0.51807 0.74203 0.14032 0.0
C208 C 0.85473 0.03533 0.74377 0.0
O209 O 0.87205 0.03445 0.75033 0.0
O210 O 0.87734 -0.00521 0.71612 0.0
Zn211 Zn 0.86192 -0.0041 0.74056 0.0
O212 O 0.87862 -0.00212 0.76439 0.0
C213 C 0.85272 0.9565 0.73488 0.0
O214 O 0.86837 0.95783 0.72486 0.0
O215 O 0.84634 0.01991 0.73858 0.0
C216 C 0.88968 0.98481 0.77013 0.0
O217 O 0.89068 0.96873 0.76011 0.0
C218 C 0.89364 0.00201 0.71391 0.0
O219 O 0.90184 0.01106 0.7286 0.0
O220 O 0.84626 0.97155 0.74287 0.0
C221 C 0.78787 0.10134 0.49671 0.0
O222 O 0.78898 0.11941 0.4912 0.0
O223 O 0.75547 0.13108 0.52233 0.0
Zn224 Zn 0.75141 0.11277 0.5006 0.0
O225 O 0.7527 0.12752 0.47579 0.0
C226 C 0.71259 0.10916 0.50989 0.0
O227 O 0.71535 0.12668 0.51652 0.0
O228 O 0.77212 0.09424 0.50164 0.0
C229 C 0.74008 0.12657 0.46268 0.0
O230 O 0.72584 0.11462 0.46479 0.0
C231 C 0.75192 0.14885 0.5209 0.0
O232 O 0.74518 0.15576 0.50441 0.0
O233 O 0.7263 0.0999 0.50291 0.0
C234 C 0.63207 0.95529 0.24046 0.0
O235 O 0.61461 0.95568 0.2465 0.0
O236 O 0.60649 -0.00167 0.2216 0.0
Zn237 Zn 0.6258 -0.00555 0.24209 0.0
O238 O 0.61256 0.99168 0.26727 0.0
C239 C 0.64395 0.02775 0.2278 0.0
O240 O 0.63704 0.02117 0.21117 0.0
O241 O 0.64053 0.971 0.23674 0.0
C242 C 0.6015 0.00497 0.27215 0.0
O243 O 0.60003 0.02024 0.26093 0.0
C244 C 0.58999 0.9913 0.22107 0.0
O245 O 0.58428 0.97921 0.23463 0.0
O246 O 0.64186 0.01791 0.24331 0.0
C247 C 0.70113 0.89117 -0.00014 0.0
O248 O 0.70193 0.87238 -0.00184 0.0
O249 O 0.73626 0.86882 0.02951 0.0
Zn250 Zn 0.73888 0.88366 0.00449 0.0
O251 O 0.73825 0.86557 0.98152 0.0
C252 C 0.77423 0.8985 0.01904 0.0
O253 O 0.76875 0.89011 0.03532 0.0
O254 O 0.71631 0.90061 0.00253 0.0
C255 C 0.75224 0.8626 0.97049 0.0
O256 O 0.76835 0.87121 0.97431 0.0
C257 C 0.74063 0.85127 0.03134 0.0
O258 O 0.74732 0.84196 0.0162 0.0
O259 O 0.76328 0.8985 0.00427 0.0
C260 C 0.28616 0.60173 -0.00356 0.0
O261 O 0.28679 0.62005 0.99175 0.0
O262 O 0.2526 0.62956 0.02103 0.0
Zn263 Zn 0.24925 0.61148 -0.00113 0.0
O264 O 0.25073 0.62633 0.97396 0.0
C265 C 0.21382 0.59892 0.01501 0.0
O266 O 0.21942 0.60885 0.03039 0.0
O267 O 0.27052 0.59376 0.00023 0.0
C268 C 0.23642 0.62889 0.96319 0.0
O269 O 0.22023 0.6212 0.96824 0.0
C270 C 0.24741 0.64692 0.02073 0.0
O271 O 0.23888 0.65376 0.00514 0.0
O272 O 0.22462 0.59746 0.00035 0.0
C273 C 0.13053 0.45518 0.74005 0.0
O274 O 0.11332 0.45509 0.74685 0.0
O275 O 0.10364 0.49769 0.72138 0.0
Zn276 Zn 0.12336 0.49423 0.74145 0.0
O277 O 0.11089 0.49125 0.76697 0.0
C278 C 0.13962 0.5286 0.72712 0.0
O279 O 0.131 0.52295 0.71102 0.0
O280 O 0.13837 0.47108 0.73579 0.0
C281 C 0.10015 0.50452 0.77261 0.0
O282 O 0.09838 0.52004 0.7618 0.0
C283 C 0.08735 0.49021 0.72046 0.0
O284 O 0.08183 0.47759 0.7336 0.0
O285 O 0.13916 0.51791 0.7422 0.0
C286 C 0.2007 0.39337 0.4997 0.0
O287 O 0.20164 0.37479 0.49645 0.0
O288 O 0.23628 0.3706 0.5302 0.0
Zn289 Zn 0.23849 0.38574 0.50528 0.0
O290 O 0.23772 0.36786 0.48214 0.0
C291 C 0.27496 0.39838 0.51863 0.0
O292 O 0.27045 0.38774 0.53383 0.0
O293 O 0.21573 0.4026 0.50378 0.0
C294 C 0.25173 0.36436 0.47133 0.0
O295 O 0.26808 0.37238 0.47537 0.0
C296 C 0.23808 0.3525 0.53131 0.0
O297 O 0.24141 0.34257 0.51534 0.0
O298 O 0.26303 0.40058 0.5049 0.0
C299 C 0.35497 0.53523 0.24473 0.0
O300 O 0.37298 0.53455 0.24887 0.0
O301 O 0.37727 0.49577 0.21703 0.0
Zn302 Zn 0.36229 0.49606 0.24188 0.0
O303 O 0.37922 0.498 0.26545 0.0
C304 C 0.35323 0.45677 0.23536 0.0
O305 O 0.36868 0.45827 0.22504 0.0
O306 O 0.34616 0.51963 0.24113 0.0
C307 C 0.39033 0.48505 0.27136 0.0
O308 O 0.39139 0.46882 0.2616 0.0
C309 C 0.39387 0.50228 0.21485 0.0
O310 O 0.40277 0.51005 0.22984 0.0
O311 O 0.34699 0.47161 0.24391 0.0
O312 O 0.01766 0.01638 0.99111 0.0
Mn313 Mn -0.00537 -0.00184 -0.00321 0.0
O314 O 0.04226 -0.0026 0.98492 0.0
Mn315 Mn 0.03219 0.97613 -0.0026 0.0
O316 O 0.97149 0.98025 0.00234 0.0
O317 O 0.98049 0.02128 0.00489 0.0
Mn318 Mn 0.95749 0.02146 -0.00433 0.0
O319 O 0.98542 0.00131 0.96782 0.0
O320 O 0.9464 -0.00056 0.00594 0.0
O321 O 0.00378 -0.00488 0.02576 0.0
O322 O 0.03074 0.9784 0.02459 0.0
O323 O 0.96078 0.04389 0.01019 0.0
O324 O 0.96065 0.02126 0.96863 0.0
C325 C 0.01259 0.95828 0.98144 0.0
C326 C 0.03462 0.01384 0.98541 0.0
C327 C 0.95411 0.98298 0.00634 0.0
C328 C 0.97759 0.03762 0.01294 0.0
C329 C 0.97257 0.0112 0.9593 0.0
C330 C 0.01801 0.98725 0.03401 0.0
O331 O 0.00885 0.97478 0.98892 0.0
O332 O 0.02966 0.95285 0.9844 0.0
O333 O 0.27118 0.74629 0.23561 0.0
Mn334 Mn 0.24326 0.74395 0.2435 0.0
O335 O 0.27 0.75729 0.20449 0.0
Mn336 Mn 0.24434 0.76186 0.20261 0.0
O337 O 0.21508 0.74189 0.25071 0.0
O338 O 0.2494 0.72159 0.26021 0.0
Mn339 Mn 0.23683 0.72063 0.28215 0.0
O340 O 0.24774 0.76231 0.26714 0.0
O341 O 0.21216 0.71869 0.27354 0.0
O342 O 0.23816 0.7243 0.22081 0.0
O343 O 0.22904 0.74166 0.19508 0.0
O344 O 0.25268 0.69944 0.28183 0.0
O345 O 0.24308 0.74388 0.29419 0.0
C346 C 0.23362 0.78414 0.2208 0.0
C347 C 0.27913 0.75151 0.21957 0.0
C348 C 0.20517 0.73025 0.26104 0.0
C349 C 0.25764 0.70602 0.2649 0.0
C350 C 0.24686 0.75991 0.28581 0.0
C351 C 0.23 0.72576 0.20412 0.0
O352 O 0.23765 0.76705 0.22679 0.0
O353 O 0.23594 0.78672 0.20217 0.0
O354 O 0.4737 0.97931 0.49057 0.0
Mn355 Mn 0.49698 -0.00343 0.49561 0.0
O356 O 0.44919 -0.00261 0.4986 0.0
Mn357 Mn 0.46349 0.01908 0.50413 0.0
O358 O 0.52119 0.01305 0.5004 0.0
O359 O 0.51005 0.97268 0.50295 0.0
Mn360 Mn 0.53257 0.97062 0.49354 0.0
O361 O 0.50467 -0.00677 0.46648 0.0
O362 O 0.54494 0.99195 0.50367 0.0
O363 O 0.49087 -0.00174 0.52535 0.0
O364 O 0.47105 0.02207 0.52972 0.0
O365 O 0.52742 0.94817 0.50765 0.0
O366 O 0.52826 0.97168 0.46671 0.0
C367 C 0.47391 0.03713 0.48255 0.0
C368 C 0.45616 0.98167 0.49283 0.0
C369 C 0.53845 0.00899 0.50388 0.0
C370 C 0.51127 0.95589 0.51047 0.0
C371 C 0.51662 0.98249 0.45775 0.0
C372 C 0.48228 0.00985 0.5365 0.0
O373 O 0.48286 0.02141 0.48761 0.0
O374 O 0.45814 0.04058 0.49123 0.0
O375 O 0.2682 0.25273 0.77018 0.0
Mn376 Mn 0.24451 0.24972 0.7522 0.0
O377 O 0.29237 0.26056 0.75056 0.0
Mn378 Mn 0.28173 0.24931 0.72855 0.0
O379 O 0.22048 0.24672 0.73476 0.0
O380 O 0.23042 0.24099 0.77537 0.0
Mn381 Mn 0.20866 0.25182 0.7785 0.0
O382 O 0.23797 0.27804 0.75808 0.0
O383 O 0.1958 0.24554 0.75554 0.0
O384 O 0.25131 0.22164 0.74666 0.0
O385 O 0.27864 0.22265 0.72995 0.0
O386 O 0.21219 0.23491 0.79948 0.0
O387 O 0.21527 0.27758 0.78103 0.0
C388 C 0.26163 0.26539 0.71169 0.0
C389 C 0.28507 0.25879 0.76749 0.0
C390 C 0.20286 0.24482 0.73836 0.0
C391 C 0.22821 0.2318 0.79137 0.0
C392 C 0.22739 0.28645 0.77052 0.0
C393 C 0.26503 0.21357 0.73805 0.0
O394 O 0.25874 0.25806 0.72865 0.0
O395 O 0.27839 0.26266 0.70518 0.0
O396 O -0.00365 0.9713 0.47919 0.0
Mn397 Mn -0.0024 -0.00384 0.49592 0.0
O398 O 0.00338 0.94714 0.50013 0.0
Mn399 Mn 0.00701 0.96136 0.52291 0.0
O400 O -0.00054 0.02052 0.51343 0.0
O401 O 0.00276 0.01139 0.4715 0.0
Mn402 Mn 0.98993 0.03281 0.47143 0.0
O403 O 0.96884 -0.00047 0.49223 0.0
O404 O -0.00138 0.04608 0.49322 0.0
O405 O 0.02643 0.99284 0.49959 0.0
O406 O 0.03048 0.97279 0.52512 0.0
O407 O 0.00365 0.03291 0.44852 0.0
O408 O 0.9651 0.02454 0.4716 0.0
C409 C 0.98376 0.97638 0.53574 0.0
C410 C -0.00064 0.95353 0.48304 0.0
C411 C 0.00112 0.03854 0.51004 0.0
C412 C 0.0095 0.01647 0.45476 0.0
C413 C 0.95859 0.01051 0.48165 0.0
C414 C 0.03685 0.98472 0.51253 0.0
O415 O -0.00777 0.98103 0.5199 0.0
O416 O 0.9902 0.96097 0.54377 0.0
O417 O 0.26454 0.77162 0.75312 0.0
Mn418 Mn 0.24736 0.74787 0.74809 0.0
O419 O 0.24577 0.79759 0.75195 0.0
Mn420 Mn 0.22499 0.78567 0.74055 0.0
O421 O 0.22989 0.72446 0.74316 0.0
O422 O 0.27029 0.73182 0.744 0.0
Mn423 Mn 0.2686 0.71051 0.75787 0.0
O424 O 0.24728 0.74221 0.77804 0.0
O425 O 0.24696 0.69799 0.74913 0.0
O426 O 0.24701 0.75401 0.71821 0.0
O427 O 0.2273 0.77902 0.71432 0.0
O428 O 0.2909 0.70909 0.7443 0.0
O429 O 0.26805 0.71876 0.78367 0.0
C430 C 0.20816 0.76696 0.75879 0.0
C431 C 0.26153 0.78963 0.75531 0.0
C432 C 0.23182 0.70623 0.74396 0.0
C433 C 0.28622 0.72581 0.7377 0.0
C434 C 0.25692 0.73167 0.78965 0.0
C435 C 0.23781 0.76587 0.7075 0.0
O436 O 0.22451 0.76332 0.75217 0.0
O437 O 0.2021 0.78362 0.75358 0.0
O438 O 0.47208 0.99082 0.97764 0.0
Mn439 Mn 0.49205 -0.00401 -0.00036 0.0
O440 O 0.48851 0.98761 0.94953 0.0
Mn441 Mn 0.51112 -0.00233 0.95838 0.0
O442 O 0.51286 0.00111 0.02061 0.0
O443 O 0.47098 0.00376 0.01787 0.0
Mn444 Mn 0.47652 -0.00567 0.04126 0.0
O445 O 0.48964 0.96754 0.00853 0.0
O446 O 0.4986 0.00593 0.04931 0.0
O447 O 0.49473 0.02438 0.99052 0.0
O448 O 0.51179 0.02401 0.96268 0.0
O449 O 0.45433 0.00661 0.04452 0.0
O450 O 0.47656 0.96779 0.03849 0.0
C451 C 0.52811 0.98027 0.97738 0.0
C452 C 0.47327 0.98682 0.95928 0.0
C453 C 0.51312 0.00623 0.03861 0.0
C454 C 0.45576 0.01009 0.02591 0.0
C455 C 0.483 0.95892 0.02365 0.0
C456 C 0.50352 0.03289 0.97652 0.0
O457 O 0.51268 0.98826 0.982 0.0
O458 O 0.53292 0.98317 0.95937 0.0
O459 O 0.27008 0.24753 0.25748 0.0
Mn460 Mn 0.241 0.24772 0.25176 0.0
O461 O 0.27425 0.22697 0.28274 0.0
Mn462 Mn 0.24914 0.22355 0.28913 0.0
O463 O 0.21191 0.24768 0.24603 0.0
O464 O 0.2445 0.27215 0.23744 0.0
Mn465 Mn 0.23006 0.27451 0.21686 0.0
O466 O 0.24471 0.23242 0.22582 0.0
O467 O 0.20611 0.27343 0.22709 0.0
O468 O 0.2366 0.26378 0.27712 0.0
O469 O 0.23807 0.24344 0.30274 0.0
O470 O 0.24498 0.2967 0.21836 0.0
O471 O 0.23604 0.25316 0.20183 0.0
C472 C 0.23167 0.20601 0.27045 0.0
C473 C 0.28064 0.23823 0.2695 0.0
C474 C 0.20052 0.2593 0.2375 0.0
C475 C 0.25179 0.28862 0.23386 0.0
C476 C 0.24141 0.23662 0.20775 0.0
C477 C 0.23467 0.25988 0.29539 0.0
O478 O 0.23757 0.22305 0.26633 0.0
O479 O 0.23724 0.19979 0.28735 0.0
O480 O 0.49564 0.47188 0.97963 0.0
Mn481 Mn 0.4972 0.49707 -0.00404 0.0
O482 O 0.50474 0.44873 0.001 0.0
Mn483 Mn 0.50825 0.46332 0.02358 0.0
O484 O 0.49975 0.52119 0.0141 0.0
O485 O 0.50128 0.51191 0.97052 0.0
Mn486 Mn 0.49087 0.53448 0.97454 0.0
O487 O 0.4685 0.50057 0.99331 0.0
O488 O 0.50395 0.54643 -0.00551 0.0
O489 O 0.52599 0.49367 -0.00178 0.0
O490 O 0.53139 0.47565 0.02495 0.0
O491 O 0.49987 0.53592 0.94974 0.0
O492 O 0.46556 0.52911 0.97797 0.0
C493 C 0.48475 0.47776 0.03658 0.0
C494 C 0.49988 0.45442 0.98386 0.0
C495 C 0.50496 0.53858 0.0112 0.0
C496 C 0.50489 0.51837 0.953 0.0
C497 C 0.45861 0.51387 0.9856 0.0
C498 C 0.53704 0.48661 0.01117 0.0
O499 O 0.49266 0.48225 0.02037 0.0
O500 O 0.49191 0.46282 0.04485 0.0
O501 O 0.76503 0.27096 0.2532 0.0
Mn502 Mn 0.74702 0.24782 0.2478 0.0
O503 O 0.74694 0.29745 0.25401 0.0
Mn504 Mn 0.72543 0.2866 0.24302 0.0
O505 O 0.72806 0.22547 0.24235 0.0
O506 O 0.7699 0.2312 0.24244 0.0
Mn507 Mn 0.76495 0.20877 0.25378 0.0
O508 O 0.74742 0.24115 0.27728 0.0
O509 O 0.74426 0.19814 0.24134 0.0
O510 O 0.74578 0.25519 0.21829 0.0
O511 O 0.72657 0.28086 0.21648 0.0
O512 O 0.78802 0.20588 0.24297 0.0
O513 O 0.76251 0.21316 0.28046 0.0
C514 C 0.70885 0.2672 0.26083 0.0
C515 C 0.76262 0.28898 0.25623 0.0
C516 C 0.72922 0.20747 0.23894 0.0
C517 C 0.7857 0.22347 0.2373 0.0
C518 C 0.75418 0.22761 0.28766 0.0
C519 C 0.73632 0.26765 0.20857 0.0
O520 O 0.72489 0.26375 0.25343 0.0
O521 O 0.70295 0.28425 0.25687 0.0
O522 O 0.97205 0.49073 0.47682 0.0
Mn523 Mn -0.00767 0.49617 0.49834 0.0
O524 O 0.98803 0.48657 0.44855 0.0
Mn525 Mn 0.01106 0.49627 0.45677 0.0
O526 O 0.01318 0.50173 0.51937 0.0
O527 O 0.97199 0.50375 0.51667 0.0
Mn528 Mn 0.97792 0.49818 0.541 0.0
O529 O 0.98982 0.46847 0.50836 0.0
O530 O -0.00142 0.51383 0.54545 0.0
O531 O -0.0048 0.52416 0.48835 0.0
O532 O 0.01218 0.52271 0.46047 0.0
O533 O 0.9533 0.50656 0.54118 0.0
O534 O 0.98295 0.47185 0.54052 0.0
C535 C 0.02748 0.47892 0.47659 0.0
C536 C 0.97291 0.48637 0.45853 0.0
C537 C 0.01345 0.51082 0.53573 0.0
C538 C 0.95537 0.50782 0.52239 0.0
C539 C 0.98703 0.46166 0.52554 0.0
C540 C 0.00406 0.53213 0.47407 0.0
O541 O 0.01245 0.48779 0.48072 0.0
O542 O 0.03241 0.48095 0.45851 0.0
O543 O 0.76914 0.75313 0.26977 0.0
Mn544 Mn 0.74565 0.75025 0.25155 0.0
O545 O 0.79222 0.76606 0.25154 0.0
Mn546 Mn 0.78266 0.75641 0.22824 0.0
O547 O 0.72181 0.74735 0.2338 0.0
O548 O 0.73224 0.73792 0.27368 0.0
Mn549 Mn 0.70989 0.74737 0.27772 0.0
O550 O 0.73712 0.77708 0.26052 0.0
O551 O 0.69724 0.74296 0.25431 0.0
O552 O 0.75488 0.72376 0.2425 0.0
O553 O 0.78192 0.72962 0.22626 0.0
O554 O 0.7138 0.72858 0.2967 0.0
O555 O 0.71468 0.77313 0.28328 0.0
C556 C 0.76072 0.77157 0.21301 0.0
C557 C 0.78532 0.76124 0.26804 0.0
C558 C 0.70428 0.74431 0.23717 0.0
C559 C 0.73011 0.72707 0.28866 0.0
C560 C 0.72608 0.78372 0.27358 0.0
C561 C 0.76932 0.71813 0.23301 0.0
O562 O 0.75893 0.76251 0.22924 0.0
O563 O 0.77769 0.77169 0.20645 0.0
O564 O 0.77352 0.24326 0.74443 0.0
Mn565 Mn 0.74436 0.24291 0.74644 0.0
O566 O 0.78045 0.26142 0.71805 0.0
Mn567 Mn 0.75616 0.26382 0.70887 0.0
O568 O 0.71523 0.24267 0.74863 0.0
O569 O 0.7464 0.21947 0.76263 0.0
Mn570 Mn 0.7297 0.21787 0.78123 0.0
O571 O 0.74619 0.25939 0.77162 0.0
O572 O 0.70748 0.21703 0.76705 0.0
O573 O 0.74158 0.22508 0.72217 0.0
O574 O 0.74569 0.24331 0.69539 0.0
O575 O 0.74555 0.19676 0.78382 0.0
O576 O 0.73346 0.24054 0.79533 0.0
C577 C 0.73836 0.28392 0.72283 0.0
C578 C 0.78525 0.25189 0.73319 0.0
C579 C 0.70314 0.23056 0.75532 0.0
C580 C 0.75389 0.20396 0.76869 0.0
C581 C 0.74047 0.25648 0.78922 0.0
C582 C 0.74101 0.22761 0.70364 0.0
O583 O 0.74229 0.26714 0.72999 0.0
O584 O 0.74606 0.28768 0.70609 0.0
O585 O 0.7698 0.74907 0.75605 0.0
Mn586 Mn 0.7408 0.74768 0.75125 0.0
O587 O 0.77486 0.73406 0.78479 0.0
Mn588 Mn 0.7499 0.72856 0.7902 0.0
O589 O 0.71168 0.74663 0.74596 0.0
O590 O 0.74352 0.77112 0.73529 0.0
Mn591 Mn 0.72947 0.77193 0.71437 0.0
O592 O 0.7448 0.73081 0.72639 0.0
O593 O 0.70561 0.7708 0.72486 0.0
O594 O 0.73593 0.76578 0.77525 0.0
O595 O 0.73627 0.74747 0.80218 0.0
O596 O 0.74417 0.79443 0.71482 0.0
O597 O 0.73621 0.74982 0.70088 0.0
C598 C 0.73583 0.70616 0.77468 0.0
C599 C 0.78071 0.74303 0.76969 0.0
C600 C 0.70022 0.75764 0.73665 0.0
C601 C 0.75081 0.78737 0.7309 0.0
C602 C 0.7419 0.73387 0.70801 0.0
C603 C 0.73276 0.76316 0.79354 0.0
O604 O 0.73867 0.72328 0.76755 0.0
O605 O 0.74211 0.70367 0.79236 0.0
O606 O 0.51761 0.51782 0.4926 0.0
Mn607 Mn 0.49534 0.49832 0.49729 0.0
O608 O 0.54266 0.50062 0.484 0.0
Mn609 Mn 0.53385 0.47861 0.49624 0.0
O610 O 0.47273 0.47926 0.50194 0.0
O611 O 0.48043 0.52055 0.50648 0.0
Mn612 Mn 0.45723 0.51999 0.49792 0.0
O613 O 0.48588 0.50265 0.46853 0.0
O614 O 0.4473 0.49734 0.50793 0.0
O615 O 0.50477 0.49426 0.52602 0.0
O616 O 0.53272 0.47953 0.52352 0.0
O617 O 0.46015 0.54247 0.51243 0.0
O618 O 0.45973 0.52058 0.47079 0.0
C619 C 0.51501 0.45884 0.48198 0.0
C620 C 0.53442 0.5166 0.48605 0.0
C621 C 0.45543 0.48115 0.50682 0.0
C622 C 0.4773 0.53692 0.51441 0.0
C623 C 0.47224 0.51203 0.46074 0.0
C624 C 0.51951 0.48675 0.53367 0.0
O625 O 0.51041 0.47563 0.48838 0.0
O626 O 0.53266 0.45506 0.48394 0.0
O627 O 0.97225 0.47895 0.98913 0.0
Mn628 Mn -0.00544 0.49795 -0.00504 0.0
O629 O 0.94818 0.49665 0.97848 0.0
Mn630 Mn 0.95638 0.51843 0.99156 0.0
O631 O 0.01723 0.51651 0.00061 0.0
O632 O 0.00871 0.47549 0.00497 0.0
Mn633 Mn 0.0322 0.47557 -0.00238 0.0
O634 O 0.00461 0.49334 0.96703 0.0
O635 O 0.04191 0.49796 0.00856 0.0
O636 O 0.98444 0.50251 0.02285 0.0
O637 O 0.95619 0.51647 0.01891 0.0
O638 O 0.02811 0.45288 0.01143 0.0
O639 O 0.03058 0.47528 0.97036 0.0
C640 C 0.97653 0.53702 0.97742 0.0
C641 C 0.956 0.4805 0.98112 0.0
C642 C 0.03415 0.51431 0.0068 0.0
C643 C 0.01104 0.45882 0.01257 0.0
C644 C 0.0183 0.48384 0.9599 0.0
C645 C 0.96919 0.50942 0.02962 0.0
O646 O 0.98022 0.52061 0.98517 0.0
O647 O 0.95909 0.54176 0.97867 0.0
C648 C 0.00328 0.19744 0.06139 0.0
C649 C -0.00467 0.20143 0.07977 0.0
C650 C 0.00528 0.1784 0.05506 0.0
C651 C 0.98624 0.12957 0.06385 0.0
H652 H 0.03112 0.11221 0.03752 0.0
C653 C 0.98999 0.05178 0.04346 0.0
C654 C -0.00832 0.04945 0.02316 0.0
C655 C -0.00377 0.06876 0.05242 0.0
C656 C 0.01857 0.11688 0.04495 0.0
H657 H 0.98301 0.18855 0.10574 0.0
H658 H 0.9865 0.15561 0.0948 0.0
H659 H 0.02884 0.14588 0.04804 0.0
H660 H 0.00305 0.06171 -0.00344 0.0
H661 H 0.014 0.09147 0.01214 0.0
H662 H 0.97577 0.10091 0.06063 0.0
C663 C 0.99113 0.16709 0.08518 0.0
C664 C 0.01718 0.13615 0.05082 0.0
C665 C 0.98919 0.18603 0.0915 0.0
C666 C 0.00183 0.06317 0.01232 0.0
C667 C 0.00801 0.08024 0.02125 0.0
C668 C 0.98767 0.11042 0.05816 0.0
C669 C -0.00076 0.163 0.06692 0.0
C670 C 0.00096 0.14269 0.06035 0.0
C671 C 0.00395 0.08376 0.04108 0.0
C672 C 0.00382 0.10379 0.04866 0.0
H673 H 0.00819 0.20899 0.052 0.0
H674 H 0.01138 0.17575 0.04081 0.0
H675 H 0.97337 0.13418 0.0707 0.0
H676 H 0.98204 0.04144 0.05204 0.0
H677 H -0.00668 0.07092 0.06783 0.0
C678 C 0.0509 0.73505 0.32998 0.0
C679 C 0.05029 0.75036 0.34339 0.0
C680 C 0.06648 0.73263 0.3181 0.0
C681 C 0.10272 0.75725 0.29277 0.0
H682 H 0.13195 0.71085 0.29778 0.0
C683 C 0.17739 0.75079 0.26388 0.0
C684 C 0.18484 0.73247 0.26107 0.0
C685 C 0.15873 0.75274 0.26937 0.0
C686 C 0.12369 0.72365 0.2957 0.0
H687 H 0.06546 0.77506 0.35509 0.0
H688 H 0.09278 0.77101 0.33371 0.0
H689 H 0.10435 0.71501 0.31804 0.0
H690 H 0.17855 0.70203 0.25922 0.0
H691 H 0.14543 0.70545 0.26742 0.0
H692 H 0.12165 0.76582 0.27012 0.0
C693 C 0.0811 0.76095 0.33261 0.0
C694 C 0.10806 0.7261 0.30755 0.0
C695 C 0.0656 0.76318 0.34482 0.0
C696 C 0.17301 0.71627 0.26162 0.0
C697 C 0.15416 0.71826 0.2665 0.0
C698 C 0.11813 0.75464 0.28057 0.0
C699 C 0.08154 0.74566 0.3192 0.0
C700 C 0.09775 0.74305 0.3064 0.0
C701 C 0.14713 0.73639 0.27168 0.0
C702 C 0.12905 0.73797 0.28218 0.0
H703 H 0.03936 0.72483 0.32872 0.0
H704 H 0.06668 0.72073 0.30786 0.0
H705 H 0.09465 0.7703 0.29155 0.0
H706 H 0.1864 0.76345 0.26363 0.0
H707 H 0.15396 0.76692 0.27335 0.0
C708 C 0.49051 0.81274 0.594 0.0
C709 C 0.49632 0.79732 0.58232 0.0
C710 C 0.48697 0.83068 0.58563 0.0
C711 C 0.49535 0.85893 0.53988 0.0
H712 H 0.46028 0.89393 0.56401 0.0
C713 C 0.4864 0.93151 0.50628 0.0
C714 C 0.49567 0.94463 0.5187 0.0
C715 C 0.47892 0.91443 0.51387 0.0
C716 C 0.4699 0.88417 0.55702 0.0
H717 H 0.50268 0.78833 0.55275 0.0
H718 H 0.49551 0.81923 0.53786 0.0
H719 H 0.46353 0.86133 0.577 0.0
H720 H 0.50217 0.95174 0.54884 0.0
H721 H 0.48859 0.92209 0.56227 0.0
H722 H 0.50149 0.88171 0.5198 0.0
C723 C 0.49437 0.81788 0.55361 0.0
C724 C 0.47202 0.86556 0.56457 0.0
C725 C 0.49842 0.80008 0.56209 0.0
C726 C 0.49491 0.94187 0.53905 0.0
C727 C 0.48719 0.92487 0.5467 0.0
C728 C 0.49287 0.87726 0.53208 0.0
C729 C 0.48867 0.83352 0.56527 0.0
C730 C 0.4851 0.8528 0.55636 0.0
C731 C 0.48056 0.91039 0.53399 0.0
C732 C 0.48038 0.89016 0.54074 0.0
H733 H 0.48896 0.81101 0.6097 0.0
H734 H 0.48316 0.84234 0.59526 0.0
H735 H 0.50589 0.84992 0.53334 0.0
H736 H 0.487 0.93331 0.4905 0.0
H737 H 0.47375 0.90352 0.50381 0.0
C738 C 0.44013 0.2468 0.82761 0.0
C739 C 0.44457 0.22947 0.83704 0.0
C740 C 0.42177 0.25046 0.82178 0.0
C741 C 0.37321 0.23752 0.83361 0.0
H742 H 0.36253 0.26329 0.7845 0.0
C743 C 0.30034 0.24472 0.79673 0.0
C744 C 0.29793 0.26052 0.78424 0.0
C745 C 0.31695 0.24293 0.80753 0.0
C746 C 0.3653 0.25647 0.79848 0.0
H747 H 0.43349 0.20191 0.84671 0.0
H748 H 0.40128 0.20826 0.8362 0.0
H749 H 0.39448 0.25414 0.79211 0.0
H750 H 0.30929 0.28807 0.77519 0.0
H751 H 0.33795 0.28541 0.79471 0.0
H752 H 0.34378 0.23961 0.83973 0.0
C753 C 0.41202 0.21913 0.83374 0.0
C754 C 0.38361 0.25108 0.80274 0.0
C755 C 0.43047 0.21543 0.83956 0.0
C756 C 0.31101 0.2757 0.78467 0.0
C757 C 0.32744 0.27408 0.79568 0.0
C758 C 0.35479 0.2429 0.82931 0.0
C759 C 0.40745 0.23686 0.82518 0.0
C760 C 0.38778 0.24161 0.82036 0.0
C761 C 0.33117 0.25704 0.80599 0.0
C762 C 0.35069 0.25253 0.81173 0.0
H763 H 0.45069 0.2579 0.82537 0.0
H764 H 0.41868 0.26429 0.81531 0.0
H765 H 0.3761 0.23044 0.84743 0.0
H766 H 0.29047 0.23275 0.79642 0.0
H767 H 0.3194 0.22967 0.81541 0.0
C768 C 0.96385 0.80732 0.39445 0.0
C769 C 0.97882 0.79462 0.39703 0.0
C770 C 0.96513 0.82602 0.4018 0.0
C771 C 0.00133 0.86167 0.4149 0.0
H772 H 0.96082 0.88886 0.44003 0.0
C773 C 0.01153 0.92446 0.46707 0.0
C774 C -0.00147 0.93942 0.46713 0.0
C775 C 0.00938 0.90918 0.45413 0.0
C776 C 0.9721 0.88158 0.43259 0.0
H777 H 0.00601 0.79066 0.4108 0.0
H778 H 0.00803 0.82311 0.42407 0.0
H779 H 0.95556 0.85599 0.42847 0.0
H780 H 0.97391 0.95111 0.45294 0.0
H781 H 0.96976 0.92379 0.43037 0.0
H782 H 0.01808 0.88695 0.41973 0.0
C783 C -0.00435 0.81893 0.41574 0.0
C784 C 0.96913 0.86276 0.42612 0.0
C785 C -0.00555 0.80036 0.40826 0.0
C786 C 0.98402 0.9396 0.45315 0.0
C787 C 0.98164 0.92403 0.44036 0.0
C788 C 0.00431 0.88042 0.42141 0.0
C789 C 0.98134 0.83215 0.41194 0.0
C790 C 0.98388 0.85248 0.41767 0.0
C791 C -0.00599 0.90846 0.44119 0.0
C792 C 0.98985 0.89036 0.43074 0.0
H793 H 0.95161 0.80318 0.3859 0.0
H794 H 0.95387 0.83591 0.39873 0.0
H795 H 0.01281 0.85424 0.40797 0.0
H796 H 0.02298 0.92421 0.47759 0.0
H797 H 0.01906 0.89732 0.45516 0.0
C798 C 0.43241 0.74528 0.66075 0.0
C799 C 0.43601 0.75884 0.64594 0.0
C800 C 0.41573 0.74597 0.67152 0.0
C801 C 0.36738 0.7641 0.66765 0.0
H802 H 0.36459 0.74938 0.72242 0.0
C803 C 0.3064 0.75429 0.72986 0.0
C804 C 0.29879 0.73637 0.72443 0.0
C805 C 0.32229 0.76163 0.72021 0.0
C806 C 0.36526 0.75389 0.70722 0.0
H807 H 0.42539 0.78423 0.63138 0.0
H808 H 0.39663 0.7857 0.65038 0.0
H809 H 0.3953 0.75271 0.70666 0.0
H810 H 0.30107 0.71239 0.70441 0.0
H811 H 0.32824 0.72555 0.68703 0.0
H812 H 0.33726 0.76434 0.6681 0.0
C813 C 0.40638 0.77423 0.65338 0.0
C814 C 0.38277 0.75553 0.69813 0.0
C815 C 0.4229 0.77341 0.64251 0.0
C816 C 0.30649 0.72644 0.70854 0.0
C817 C 0.32204 0.7339 0.6987 0.0
C818 C 0.3499 0.76226 0.6767 0.0
C819 C 0.40242 0.76036 0.66781 0.0
C820 C 0.38403 0.76031 0.67811 0.0
C821 C 0.33043 0.7512 0.70486 0.0
C822 C 0.34871 0.75685 0.69645 0.0
H823 H 0.44222 0.73383 0.66365 0.0
H824 H 0.41302 0.73489 0.68233 0.0
H825 H 0.36777 0.76761 0.65218 0.0
H826 H 0.30104 0.76181 0.74251 0.0
H827 H 0.32868 0.77496 0.72524 0.0
C828 C 0.50354 0.18962 0.90681 0.0
C829 C 0.48853 0.20212 0.90996 0.0
C830 C 0.50469 0.17246 0.9171 0.0
C831 C 0.48896 0.14596 0.96038 0.0
H832 H 0.50118 0.1021 0.92791 0.0
C833 C 0.48798 0.0644 0.98257 0.0
C834 C 0.5033 0.05399 0.97542 0.0
C835 C 0.48619 0.08389 0.97794 0.0
C836 C 0.4979 0.11425 0.93718 0.0
H837 H 0.46335 0.20687 0.92695 0.0
H838 H 0.46532 0.17645 0.94499 0.0
H839 H 0.49705 0.13337 0.91278 0.0
H840 H 0.52973 0.05608 0.95987 0.0
H841 H 0.52664 0.09 0.95197 0.0
H842 H 0.48975 0.12643 0.98481 0.0
C843 C 0.47618 0.18012 0.93454 0.0
C844 C 0.49552 0.13212 0.92854 0.0
C845 C 0.47503 0.19744 0.9242 0.0
C846 C 0.51758 0.06368 0.96519 0.0
C847 C 0.51584 0.08306 0.96069 0.0
C848 C 0.49125 0.1279 0.96908 0.0
C849 C 0.49082 0.16733 0.93073 0.0
C850 C 0.49149 0.14823 0.94008 0.0
C851 C 0.49974 0.09306 0.96623 0.0
C852 C 0.49618 0.11205 0.95754 0.0
H853 H 0.51433 0.19291 0.89615 0.0
H854 H 0.51636 0.16304 0.9142 0.0
H855 H 0.48582 0.1582 0.96956 0.0
H856 H 0.47681 0.05723 0.99055 0.0
H857 H 0.47367 0.09139 0.98237 0.0
C858 C 0.05961 0.22723 0.14402 0.0
C859 C 0.04566 0.24123 0.14566 0.0
C860 C 0.0756 0.22795 0.15601 0.0
C861 C 0.09389 0.25016 0.20223 0.0
H862 H 0.14192 0.23378 0.18211 0.0
C863 C 0.16706 0.2689 0.2353 0.0
C864 C 0.18044 0.25423 0.23572 0.0
C865 C 0.14919 0.26547 0.22741 0.0
C866 C 0.12853 0.23812 0.18801 0.0
H867 H 0.03784 0.26736 0.1607 0.0
H868 H 0.06596 0.26903 0.18113 0.0
H869 H 0.11431 0.23258 0.16089 0.0
H870 H 0.18535 0.22421 0.22934 0.0
H871 H 0.15413 0.2183 0.21517 0.0
H872 H 0.10853 0.25656 0.22909 0.0
C873 C 0.06432 0.25707 0.17108 0.0
C874 C 0.11266 0.23744 0.17586 0.0
C875 C 0.04822 0.2562 0.15927 0.0
C876 C 0.17519 0.23569 0.22947 0.0
C877 C 0.15744 0.23237 0.22113 0.0
C878 C 0.10984 0.25112 0.21428 0.0
C879 C 0.07816 0.24284 0.16977 0.0
C880 C 0.0951 0.24348 0.18277 0.0
C881 C 0.14455 0.24743 0.21939 0.0
C882 C 0.1273 0.24509 0.20729 0.0
H883 H 0.05805 0.21547 0.13371 0.0
H884 H 0.08576 0.21657 0.1547 0.0
H885 H 0.0806 0.25459 0.20824 0.0
H886 H 0.17086 0.28335 0.23985 0.0
H887 H 0.13953 0.27733 0.22621 0.0
C888 C 0.06842 0.97772 0.2056 0.0
C889 C 0.08602 0.98689 0.20742 0.0
C890 C 0.05803 0.97921 0.18819 0.0
C891 C 0.05273 0.00873 0.14353 0.0
H892 H 0.03353 0.96181 0.11972 0.0
C893 C 0.03619 0.00191 0.06125 0.0
C894 C 0.02114 0.99019 0.05512 0.0
C895 C 0.04088 0.00333 0.0811 0.0
C896 C 0.03843 0.97512 0.12634 0.0
H897 H 0.10634 0.00515 0.19252 0.0
H898 H 0.08822 0.00777 0.1623 0.0
H899 H 0.04803 0.96066 0.1522 0.0
H900 H -0.00122 0.97116 0.06463 0.0
H901 H 0.0071 0.9734 0.09962 0.0
H902 H 0.04349 0.02314 0.11752 0.0
C903 C 0.08241 -0.00052 0.17432 0.0
C904 C 0.04679 0.97444 0.14493 0.0
C905 C 0.09287 -0.00217 0.1916 0.0
C906 C 0.01042 0.98033 0.06914 0.0
C907 C 0.01526 0.98154 0.08907 0.0
C908 C 0.04431 0.00943 0.12498 0.0
C909 C 0.06493 0.9901 0.17236 0.0
C910 C 0.05437 0.99117 0.15355 0.0
C911 C 0.03077 0.99281 0.09523 0.0
C912 C 0.03741 0.99256 0.11597 0.0
H913 H 0.06273 0.96925 0.21754 0.0
H914 H 0.04454 0.97193 0.18713 0.0
H915 H 0.05819 0.02191 0.14994 0.0
H916 H 0.04462 0.00963 0.05058 0.0
H917 H 0.05299 0.01198 0.08525 0.0
C918 C 0.25488 0.85949 0.4317 0.0
C919 C 0.2565 0.84704 0.44782 0.0
C920 C 0.2548 0.85224 0.41265 0.0
C921 C 0.24161 0.80978 0.3852 0.0
H922 H 0.27278 0.8308 0.34369 0.0
C923 C 0.23191 0.78399 0.30671 0.0
C924 C 0.24838 0.77663 0.29865 0.0
C925 C 0.23285 0.79609 0.32298 0.0
C926 C 0.26395 0.8249 0.35515 0.0
H927 H 0.25962 0.81738 0.45684 0.0
H928 H 0.25894 0.80456 0.42335 0.0
H929 H 0.27548 0.84385 0.37703 0.0
H930 H 0.27868 0.77672 0.30011 0.0
H931 H 0.28046 0.79817 0.32862 0.0
H932 H 0.23012 0.79078 0.36353 0.0
C933 C 0.25789 0.81994 0.42554 0.0
C934 C 0.26547 0.83234 0.37414 0.0
C935 C 0.25835 0.82724 0.44461 0.0
C936 C 0.26587 0.78256 0.30603 0.0
C937 C 0.26684 0.79476 0.32231 0.0
C938 C 0.23991 0.80254 0.36622 0.0
C939 C 0.25599 0.83239 0.40943 0.0
C940 C 0.25445 0.82467 0.38933 0.0
C941 C 0.2503 0.80089 0.33144 0.0
C942 C 0.25115 0.80992 0.35105 0.0
H943 H 0.25363 0.87485 0.43382 0.0
H944 H 0.25326 0.86209 0.40046 0.0
H945 H 0.23281 0.8038 0.39665 0.0
H946 H 0.21828 0.77938 0.30121 0.0
H947 H 0.21991 0.80082 0.32961 0.0
C948 C 0.40658 0.99092 0.69035 0.0
C949 C 0.41132 0.00439 0.70499 0.0
C950 C 0.41747 0.98946 0.67354 0.0
C951 C 0.44646 0.0187 0.64245 0.0
H952 H 0.46441 0.97077 0.62085 0.0
C953 C 0.4867 0.01996 0.571 0.0
C954 C 0.48146 0.00584 0.55741 0.0
C955 C 0.48183 0.01779 0.59065 0.0
C956 C 0.45941 0.98425 0.62663 0.0
H957 H 0.43148 0.02635 0.71393 0.0
H958 H 0.45043 0.02388 0.68432 0.0
H959 H 0.44773 0.97064 0.6521 0.0
H960 H 0.46789 0.97816 0.55316 0.0
H961 H 0.45838 0.97476 0.58723 0.0
H962 H 0.45695 0.03231 0.61677 0.0
C963 C 0.43825 0.01456 0.68594 0.0
C964 C 0.44994 0.98414 0.6445 0.0
C965 C 0.42745 0.01593 0.70283 0.0
C966 C 0.47224 0.98906 0.56366 0.0
C967 C 0.46686 0.98713 0.58317 0.0
C968 C 0.45561 0.01879 0.62451 0.0
C969 C 0.43317 0.0015 0.67109 0.0
C970 C 0.44351 0.0014 0.65253 0.0
C971 C 0.47099 0.00183 0.59674 0.0
C972 C 0.46229 0.0016 0.61641 0.0
H973 H 0.39423 0.98178 0.69166 0.0
H974 H 0.41323 0.97942 0.66215 0.0
H975 H 0.44121 0.03211 0.64822 0.0
H976 H 0.49384 0.03299 0.56629 0.0
H977 H 0.48574 0.02908 0.60087 0.0
C978 C 0.22548 0.14259 0.92859 0.0
C979 C 0.23745 0.14539 0.94475 0.0
C980 C 0.22858 0.15261 0.91119 0.0
C981 C 0.26566 0.17906 0.88392 0.0
H982 H 0.22326 0.1927 0.85116 0.0
C983 C 0.25328 0.2302 0.8161 0.0
C984 C 0.24275 0.22086 0.80142 0.0
C985 C 0.25992 0.2198 0.83218 0.0
C986 C 0.23523 0.18878 0.86013 0.0
H987 H 0.26141 0.16164 0.95581 0.0
H988 H 0.26642 0.17973 0.92554 0.0
H989 H 0.21772 0.17941 0.88355 0.0
H990 H 0.23315 0.1934 0.79022 0.0
H991 H 0.24477 0.17516 0.81832 0.0
H992 H 0.28306 0.18944 0.86031 0.0
C993 C 0.25504 0.1693 0.9261 0.0
C994 C 0.23208 0.18114 0.87866 0.0
C995 C 0.25208 0.15906 0.94347 0.0
C996 C 0.24138 0.20078 0.80138 0.0
C997 C 0.24802 0.19039 0.81743 0.0
C998 C 0.26882 0.18707 0.86533 0.0
C999 C 0.24353 0.16593 0.90962 0.0
C1000 C 0.24721 0.17576 0.89066 0.0
C1001 C 0.25587 0.20008 0.83362 0.0
C1002 C 0.25355 0.19155 0.85321 0.0
H1003 H 0.21416 0.13208 0.92909 0.0
H1004 H 0.21959 0.14939 0.89874 0.0
H1005 H 0.27765 0.17501 0.89276 0.0
H1006 H 0.2543 0.24575 0.8164 0.0
H1007 H 0.26586 0.22754 0.84457 0.0
C1008 C 0.07941 0.01149 0.30548 0.0
C1009 C 0.09255 -0.00161 0.29826 0.0
C1010 C 0.06947 0.00745 0.32266 0.0
C1011 C 0.07383 0.98081 0.36845 0.0
H1012 H 0.02171 -0.00527 0.37521 0.0
C1013 C 0.0159 0.98764 0.43441 0.0
C1014 C 0.02214 0.00505 0.4427 0.0
C1015 C 0.02478 0.98034 0.41772 0.0
C1016 C 0.03614 0.99035 0.3734 0.0
H1017 H 0.10515 0.97051 0.30316 0.0
H1018 H 0.08789 0.9636 0.33316 0.0
H1019 H 0.03558 -0.00449 0.3424 0.0
H1020 H 0.04301 0.02782 0.44121 0.0
H1021 H 0.05905 0.01463 0.41277 0.0
H1022 H 0.07467 0.97707 0.3997 0.0
C1023 C 0.08538 0.97702 0.3256 0.0
C1024 C 0.04413 0.99102 0.35472 0.0
C1025 C 0.09527 0.98102 0.30841 0.0
C1026 C 0.03826 0.01415 0.43528 0.0
C1027 C 0.04735 0.00666 0.41899 0.0
C1028 C 0.06591 0.98045 0.38717 0.0
C1029 C 0.0725 0.99025 0.33301 0.0
C1030 C 0.06321 0.98681 0.35215 0.0
C1031 C 0.0402 0.99021 0.40959 0.0
C1032 C 0.04715 0.98567 0.38982 0.0
H1033 H 0.07699 0.02499 0.29802 0.0
H1034 H 0.05983 0.01806 0.32818 0.0
H1035 H 0.08858 0.97758 0.36695 0.0
H1036 H 0.00318 0.9807 0.43963 0.0
H1037 H 0.019 0.96769 0.41054 0.0
C1038 C 0.22612 0.82523 0.54339 0.0
C1039 C 0.24119 0.83704 0.53759 0.0
C1040 C 0.22733 0.81449 0.56058 0.0
C1041 C 0.25839 0.79233 0.59597 0.0
H1042 H 0.21862 0.80278 0.63293 0.0
C1043 C 0.25775 0.76867 0.67787 0.0
C1044 C 0.24004 0.76544 0.6862 0.0
C1045 C 0.25915 0.77407 0.65815 0.0
C1046 C 0.22962 0.79935 0.62265 0.0
H1047 H 0.26967 0.84621 0.54461 0.0
H1048 H 0.27184 0.82704 0.57464 0.0
H1049 H 0.21896 0.81911 0.60147 0.0
H1050 H 0.21022 0.76307 0.6805 0.0
H1051 H 0.21266 0.77137 0.64589 0.0
H1052 H 0.26898 0.7724 0.61721 0.0
C1053 C 0.25911 0.82627 0.56589 0.0
C1054 C 0.22986 0.80883 0.60471 0.0
C1055 C 0.2578 0.83728 0.54883 0.0
C1056 C 0.22399 0.76565 0.67429 0.0
C1057 C 0.2254 0.77062 0.65459 0.0
C1058 C 0.25805 0.78261 0.61394 0.0
C1059 C 0.24373 0.81514 0.57208 0.0
C1060 C 0.2441 0.80527 0.59117 0.0
C1061 C 0.24284 0.77603 0.64662 0.0
C1062 C 0.2435 0.78588 0.62736 0.0
H1063 H 0.21316 0.82478 0.53502 0.0
H1064 H 0.21533 0.8059 0.5651 0.0
H1065 H 0.26955 0.78948 0.58568 0.0
H1066 H 0.27027 0.76869 0.68695 0.0
H1067 H 0.27279 0.7781 0.65243 0.0
C1068 C 0.41456 0.97939 0.7987 0.0
C1069 C 0.40376 -0.00523 0.79189 0.0
C1070 C 0.42224 0.97986 0.81754 0.0
C1071 C 0.41183 0.00054 0.86527 0.0
H1072 H 0.45889 0.97727 0.88032 0.0
C1073 C 0.44545 -4e-05 0.94301 0.0
C1074 C 0.45632 0.98386 0.94751 0.0
C1075 C 0.4359 0.00088 0.9251 0.0
C1076 C 0.44556 0.98354 0.87631 0.0
H1077 H 0.39406 0.02348 0.79857 0.0
H1078 H 0.40765 0.02434 0.83146 0.0
H1079 H 0.45185 0.98226 0.84571 0.0
H1080 H 0.46382 0.95517 0.93852 0.0
H1081 H 0.44653 0.9564 0.90758 0.0
H1082 H 0.40565 0.00189 0.89598 0.0
C1083 C 0.40972 0.01173 0.82245 0.0
C1084 C 0.44163 0.98653 0.85653 0.0
C1085 C 0.40197 0.01123 0.80364 0.0
C1086 C 0.45537 0.96765 0.93534 0.0
C1087 C 0.44577 0.9685 0.91753 0.0
C1088 C 0.41581 -0.00239 0.88511 0.0
C1089 C 0.41931 -0.00424 0.82983 0.0
C1090 C 0.42458 -0.00525 0.85079 0.0
C1091 C 0.43718 0.98565 0.91166 0.0
C1092 C 0.43254 0.98872 0.89076 0.0
H1093 H 0.41631 0.96659 0.78989 0.0
H1094 H 0.42955 0.96731 0.82284 0.0
H1095 H 0.39847 0.00672 0.86125 0.0
H1096 H 0.44638 0.01276 0.952 0.0
H1097 H 0.42932 0.01424 0.92095 0.0
C1098 C 0.23636 0.16637 0.0488 0.0
C1099 C 0.24682 0.15008 0.04401 0.0
C1100 C 0.23733 0.17409 0.06768 0.0
C1101 C 0.24911 0.16154 0.11874 0.0
H1102 H 0.24929 0.21686 0.12553 0.0
C1103 C 0.25722 0.20888 0.19118 0.0
C1104 C 0.24207 0.22152 0.19273 0.0
C1105 C 0.25882 0.19714 0.17453 0.0
C1106 C 0.24936 0.20138 0.12379 0.0
H1107 H 0.2668 0.12933 0.05507 0.0
H1108 H 0.26862 0.14297 0.08792 0.0
H1109 H 0.25074 0.2034 0.09259 0.0
H1110 H 0.21573 0.2303 0.17965 0.0
H1111 H 0.21853 0.20991 0.15085 0.0
H1112 H 0.24754 0.15978 0.1502 0.0
C1113 C 0.25946 0.14957 0.0772 0.0
C1114 C 0.25003 0.19368 0.10498 0.0
C1115 C 0.25849 0.14185 0.05834 0.0
C1116 C 0.22778 0.22101 0.1785 0.0
C1117 C 0.22931 0.20932 0.16211 0.0
C1118 C 0.24853 0.16931 0.13767 0.0
C1119 C 0.24882 0.16569 0.0821 0.0
C1120 C 0.24952 0.1737 0.10221 0.0
C1121 C 0.24519 0.19796 0.15958 0.0
C1122 C 0.24828 0.18928 0.14022 0.0
H1123 H 0.2272 0.173 0.03809 0.0
H1124 H 0.22878 0.18641 0.07109 0.0
H1125 H 0.24855 0.14607 0.11702 0.0
H1126 H 0.26831 0.20898 0.20211 0.0
H1127 H 0.27116 0.18837 0.17278 0.0
C1128 C 0.18128 0.09086 0.02215 0.0
C1129 C 0.19495 0.08828 0.0076 0.0
C1130 C 0.16273 0.08479 0.01896 0.0
C1131 C 0.13382 0.05202 0.98873 0.0
H1132 H 0.093 0.08637 0.00104 0.0
C1133 C 0.06018 0.03 0.96714 0.0
C1134 C 0.04728 0.03041 0.98258 0.0
C1135 C 0.07669 0.04091 0.96817 0.0
C1136 C 0.10425 0.07663 -0.00243 0.0
H1137 H 0.19997 0.07674 0.97856 0.0
H1138 H 0.16772 0.06607 0.97308 0.0
H1139 H 0.12545 0.0961 0.00844 0.0
H1140 H 0.0404 0.04386 0.0102 0.0
H1141 H 0.06947 0.06276 0.01224 0.0
H1142 H 0.11289 0.0324 0.97823 0.0
C1143 C 0.17132 0.07279 0.98695 0.0
C1144 C 0.1228 0.08214 0.0019 0.0
C1145 C 0.1898 0.07895 0.99007 0.0
C1146 C 0.05009 0.04351 -0.002 0.0
C1147 C 0.06681 0.05423 -0.00079 0.0
C1148 C 0.11538 0.04652 0.98446 0.0
C1149 C 0.15752 0.07587 0.00123 0.0
C1150 C 0.13777 0.06991 -0.00259 0.0
C1151 C 0.08078 0.05207 0.98489 0.0
C1152 C 0.10036 0.05878 0.98868 0.0
H1153 H 0.1848 0.09796 0.03585 0.0
H1154 H 0.15245 0.08708 0.03035 0.0
H1155 H 0.14501 0.04213 0.98545 0.0
H1156 H 0.05824 0.02002 0.95508 0.0
H1157 H 0.08692 0.03943 0.95658 0.0
C1158 C 0.67519 0.39876 0.9841 0.0
C1159 C 0.69144 0.40382 -0.00525 0.0
C1160 C 0.65925 0.41017 0.98521 0.0
C1161 C 0.63388 0.44131 0.01646 0.0
H1162 H 0.61651 0.46808 0.97001 0.0
C1163 C 0.5702 0.4889 0.02222 0.0
C1164 C 0.55709 0.48649 0.00704 0.0
C1165 C 0.58865 0.48298 0.01962 0.0
C1166 C 0.62104 0.4606 0.98309 0.0
H1167 H 0.70367 0.4243 0.01533 0.0
H1168 H 0.67561 0.4439 0.01758 0.0
H1169 H 0.64333 0.44669 0.9678 0.0
H1170 H 0.55281 0.47723 0.97703 0.0
H1171 H 0.58445 0.46592 0.97277 0.0
H1172 H 0.6112 0.45404 0.03167 0.0
C1173 C 0.67538 0.43131 0.00822 0.0
C1174 C 0.63636 0.44839 0.98176 0.0
C1175 C 0.69137 0.42015 0.00686 0.0
C1176 C 0.56286 0.47954 0.9888 0.0
C1177 C 0.58108 0.47303 0.9864 0.0
C1178 C 0.61831 0.45312 0.01772 0.0
C1179 C 0.65934 0.42649 -0.00272 0.0
C1180 C 0.64281 0.43873 -0.00156 0.0
C1181 C 0.59395 0.47384 0.00209 0.0
C1182 C 0.61166 0.46292 0.00104 0.0
H1183 H 0.67489 0.38621 0.97469 0.0
H1184 H 0.64686 0.40625 0.97678 0.0
H1185 H 0.63874 0.43387 0.02946 0.0
H1186 H 0.56591 0.49428 0.0364 0.0
H1187 H 0.5984 0.48445 0.03177 0.0
C1188 C 0.84117 0.43447 0.21905 0.0
C1189 C 0.83868 0.44891 0.23315 0.0
C1190 C 0.83443 0.41586 0.22253 0.0
C1191 C 0.80138 0.38807 0.25276 0.0
H1192 H 0.83606 0.34612 0.24526 0.0
C1193 C 0.77882 0.31412 0.27568 0.0
C1194 C 0.77894 0.30139 0.25978 0.0
C1195 C 0.79032 0.33045 0.27551 0.0
C1196 C 0.82632 0.35774 0.2475 0.0
H1197 H 0.82615 0.45571 0.26121 0.0
H1198 H 0.81435 0.42337 0.2672 0.0
H1199 H 0.84549 0.37891 0.23621 0.0
H1200 H 0.79181 0.29476 0.23196 0.0
H1201 H 0.81198 0.32317 0.23163 0.0
H1202 H 0.7821 0.36709 0.26371 0.0
C1203 C 0.8216 0.4263 0.25357 0.0
C1204 C 0.8316 0.3764 0.24213 0.0
C1205 C 0.82844 0.44478 0.25019 0.0
C1206 C 0.79198 0.30406 0.24468 0.0
C1207 C 0.80342 0.32045 0.24443 0.0
C1208 C 0.79613 0.36951 0.25813 0.0
C1209 C 0.82493 0.41157 0.24003 0.0
C1210 C 0.81914 0.3917 0.24472 0.0
C1211 C 0.80174 0.33437 0.25921 0.0
C1212 C 0.80853 0.35416 0.25557 0.0
H1213 H 0.84896 0.43732 0.20574 0.0
H1214 H 0.83689 0.40476 0.21173 0.0
H1215 H 0.79142 0.39957 0.25465 0.0
H1216 H 0.76872 0.31229 0.28738 0.0
H1217 H 0.78906 0.34084 0.28724 0.0
C1218 C 0.80619 0.57234 0.49508 0.0
C1219 C 0.80506 0.59014 0.48549 0.0
C1220 C 0.82264 0.56162 0.4942 0.0
C1221 C 0.87339 0.56686 0.48464 0.0
H1222 H 0.87138 0.51115 0.48332 0.0
C1223 C 0.94074 0.52404 0.49346 0.0
C1224 C 0.93927 0.51155 0.50951 0.0
C1225 C 0.92445 0.53112 0.48457 0.0
C1226 C 0.87216 0.52671 0.48351 0.0
H1227 H 0.82011 0.61058 0.46721 0.0
H1228 H 0.8486 0.59169 0.46525 0.0
H1229 H 0.84237 0.52934 0.48058 0.0
H1230 H 0.92012 0.49491 0.52753 0.0
H1231 H 0.89188 0.50695 0.51201 0.0
H1232 H 0.90306 0.56424 0.48822 0.0
C1233 C 0.83696 0.58614 0.47378 0.0
C1234 C 0.85555 0.53712 0.48211 0.0
C1235 C 0.8206 0.59694 0.47485 0.0
C1236 C 0.92154 0.50472 0.51526 0.0
C1237 C 0.90536 0.51151 0.50625 0.0
C1238 C 0.88998 0.55645 0.48596 0.0
C1239 C 0.83822 0.56839 0.48352 0.0
C1240 C 0.85593 0.55732 0.48314 0.0
C1241 C 0.90659 0.52552 0.49148 0.0
C1242 C 0.88951 0.53626 0.48592 0.0
H1243 H 0.79451 0.56685 0.5036 0.0
H1244 H 0.82326 0.54821 0.50224 0.0
H1245 H 0.87422 0.58237 0.48574 0.0
H1246 H 0.95433 0.52941 0.48879 0.0
H1247 H 0.92579 0.54172 0.47302 0.0
C1248 C 0.15069 0.06109 0.21916 0.0
C1249 C 0.15294 0.04896 0.23548 0.0
C1250 C 0.15983 0.07892 0.21835 0.0
C1251 C 0.19869 0.10768 0.23977 0.0
H1252 H 0.168 0.15138 0.22576 0.0
C1253 C 0.20291 0.18666 0.26604 0.0
C1254 C 0.21951 0.1941 0.25794 0.0
C1255 C 0.19403 0.1707 0.25764 0.0
C1256 C 0.17679 0.13925 0.22927 0.0
H1257 H 0.16684 0.04595 0.26365 0.0
H1258 H 0.1827 0.07731 0.26235 0.0
H1259 H 0.15489 0.11879 0.22314 0.0
H1260 H 0.23947 0.19159 0.2343 0.0
H1261 H 0.22409 0.16304 0.21976 0.0
H1262 H 0.22036 0.12835 0.24652 0.0
C1263 C 0.17402 0.07284 0.25004 0.0
C1264 C 0.16934 0.12062 0.22784 0.0
C1265 C 0.16488 0.05492 0.25084 0.0
C1266 C 0.22646 0.18624 0.24051 0.0
C1267 C 0.21779 0.1699 0.23234 0.0
C1268 C 0.20622 0.1263 0.2409 0.0
C1269 C 0.17143 0.08511 0.23386 0.0
C1270 C 0.18005 0.10467 0.23355 0.0
C1271 C 0.2019 0.16167 0.24131 0.0
C1272 C 0.1952 0.14221 0.23605 0.0
H1273 H 0.14175 0.05687 0.20696 0.0
H1274 H 0.15775 0.08793 0.20557 0.0
H1275 H 0.20732 0.09569 0.24412 0.0
H1276 H 0.19757 0.19234 0.27969 0.0
H1277 H 0.18192 0.16444 0.26489 0.0
C1278 C 0.30093 0.92246 0.49188 0.0
C1279 C 0.29583 0.91473 0.51015 0.0
C1280 C 0.31948 0.92758 0.48816 0.0
C1281 C 0.36713 0.91605 0.50413 0.0
H1282 H 0.3806 0.96212 0.47526 0.0
C1283 C 0.4384 0.95412 0.50597 0.0
C1284 C 0.44341 0.96548 0.48985 0.0
C1285 C 0.42224 0.94269 0.50514 0.0
C1286 C 0.37706 0.94891 0.48287 0.0
H1287 H 0.30578 0.90773 0.53938 0.0
H1288 H 0.33834 0.91712 0.53295 0.0
H1289 H 0.34786 0.95536 0.48227 0.0
H1290 H 0.43728 0.97253 0.45964 0.0
H1291 H 0.40907 0.95217 0.45792 0.0
H1292 H 0.39655 0.91002 0.50526 0.0
C1293 C 0.32799 0.91866 0.52137 0.0
C1294 C 0.3583 0.94516 0.48705 0.0
C1295 C 0.30936 0.91354 0.52512 0.0
C1296 C 0.43347 0.9638 0.47219 0.0
C1297 C 0.41737 0.95226 0.47128 0.0
C1298 C 0.38598 0.91983 0.49997 0.0
C1299 C 0.33328 0.92516 0.50266 0.0
C1300 C 0.35318 0.92887 0.49798 0.0
C1301 C 0.41095 0.94268 0.48817 0.0
C1302 C 0.39112 0.93647 0.48956 0.0
H1303 H 0.29075 0.92371 0.4801 0.0
H1304 H 0.32315 0.93258 0.47361 0.0
H1305 H 0.36348 0.90316 0.51223 0.0
H1306 H 0.44603 0.95539 0.51972 0.0
H1307 H 0.41764 0.9355 0.51839 0.0
C1308 C 0.84933 0.57527 0.25148 0.0
C1309 C 0.84188 0.5566 0.2531 0.0
C1310 C 0.83735 0.59081 0.24936 0.0
C1311 C 0.79411 0.61227 0.25819 0.0
H1312 H 0.79872 0.63456 0.20621 0.0
C1313 C 0.75943 0.68394 0.239 0.0
C1314 C 0.77229 0.69727 0.231 0.0
C1315 C 0.76363 0.66439 0.2395 0.0
C1316 C 0.79719 0.62845 0.22074 0.0
H1317 H 0.8163 0.53953 0.25552 0.0
H1318 H 0.7953 0.56704 0.25221 0.0
H1319 H 0.81533 0.60505 0.21413 0.0
H1320 H 0.79908 0.70034 0.21618 0.0
H1321 H 0.80648 0.66655 0.2174 0.0
H1322 H 0.77704 0.63633 0.26532 0.0
C1323 C 0.81035 0.56944 0.25222 0.0
C1324 C 0.80665 0.61163 0.22521 0.0
C1325 C 0.82232 0.55382 0.25399 0.0
C1326 C 0.78887 0.69052 0.2225 0.0
C1327 C 0.79305 0.67106 0.22305 0.0
C1328 C 0.78479 0.62929 0.2538 0.0
C1329 C 0.81785 0.58787 0.24926 0.0
C1330 C 0.80562 0.60384 0.2441 0.0
C1331 C 0.78072 0.65787 0.23199 0.0
C1332 C 0.78686 0.63791 0.23524 0.0
H1333 H 0.86435 0.57778 0.25084 0.0
H1334 H 0.84328 0.60505 0.24716 0.0
H1335 H 0.79319 0.6063 0.27284 0.0
H1336 H 0.74644 0.68865 0.24553 0.0
H1337 H 0.75379 0.65448 0.24628 0.0
C1338 C 0.66902 0.4348 0.74671 0.0
C1339 C 0.65317 0.43753 0.75847 0.0
C1340 C 0.67909 0.41768 0.74792 0.0
C1341 C 0.67316 0.36697 0.76343 0.0
H1342 H 0.72628 0.36521 0.7517 0.0
C1343 C 0.72443 0.29994 0.75261 0.0
C1344 C 0.72645 0.29848 0.73218 0.0
C1345 C 0.71567 0.31601 0.76083 0.0
C1346 C 0.71153 0.36556 0.75546 0.0
H1347 H 0.6359 0.42495 0.78131 0.0
H1348 H 0.65375 0.39546 0.78389 0.0
H1349 H 0.71135 0.39628 0.75675 0.0
H1350 H 0.71991 0.31203 0.70431 0.0
H1351 H 0.70472 0.33975 0.71862 0.0
H1352 H 0.67342 0.33617 0.76142 0.0
C1353 C 0.65814 0.40618 0.7733 0.0
C1354 C 0.70291 0.38331 0.75804 0.0
C1355 C 0.64793 0.42313 0.77186 0.0
C1356 C 0.71874 0.31279 0.72013 0.0
C1357 C 0.71008 0.32868 0.72825 0.0
C1358 C 0.68185 0.34923 0.761 0.0
C1359 C 0.67368 0.40308 0.76114 0.0
C1360 C 0.68346 0.38427 0.76135 0.0
C1361 C 0.70886 0.33063 0.74861 0.0
C1362 C 0.70095 0.34847 0.75644 0.0
H1363 H 0.67332 0.44563 0.73618 0.0
H1364 H 0.69076 0.41569 0.73805 0.0
H1365 H 0.65814 0.36708 0.76575 0.0
H1366 H 0.73033 0.2893 0.76222 0.0
H1367 H 0.71476 0.31732 0.77663 0.0
C1368 C -0.00172 0.81234 0.89462 0.0
C1369 C 0.98917 0.79677 0.90385 0.0
C1370 C -0.00258 0.83085 0.90261 0.0
C1371 C 0.99043 0.857 0.94856 0.0
H1372 H 0.9777 0.89999 0.91498 0.0
C1373 C 0.98838 0.93249 0.98108 0.0
C1374 C -0.00063 0.94581 0.97066 0.0
C1375 C 0.98231 0.9154 0.97206 0.0
C1376 C 0.9813 0.88816 0.92456 0.0
H1377 H 0.97254 0.78829 0.92898 0.0
H1378 H 0.97153 0.82053 0.94325 0.0
H1379 H 0.97872 0.86751 0.90129 0.0
H1380 H 0.01121 0.95278 0.9424 0.0
H1381 H 0.00043 0.92328 0.92651 0.0
H1382 H -0.00625 0.87754 0.97166 0.0
C1383 C 0.9791 0.81845 0.92969 0.0
C1384 C 0.98194 0.86957 0.91669 0.0
C1385 C 0.97964 0.80001 0.92151 0.0
C1386 C 0.00248 0.94281 0.95061 0.0
C1387 C -0.00362 0.92581 0.94156 0.0
C1388 C 0.98993 0.87557 0.95639 0.0
C1389 C 0.98775 0.83412 0.92019 0.0
C1390 C 0.98664 0.85381 0.92859 0.0
C1391 C 0.98724 0.91136 0.95251 0.0
C1392 C 0.98549 0.89144 0.94449 0.0
H1393 H 0.00568 0.81033 0.88095 0.0
H1394 H 0.0044 0.84261 0.89507 0.0
H1395 H -0.00567 0.84518 0.95803 0.0
H1396 H 0.98607 0.9344 -0.00335 0.0
H1397 H 0.97491 0.90479 0.9808 0.0
C1398 C 0.92407 0.26107 0.6493 0.0
C1399 C 0.93815 0.24733 0.6513 0.0
C1400 C 0.90876 0.26083 0.66193 0.0
C1401 C 0.89288 0.24108 0.70979 0.0
H1402 H 0.84428 0.25667 0.69007 0.0
C1403 C 0.81403 0.23239 0.73647 0.0
C1404 C 0.80541 0.2504 0.73689 0.0
C1405 C 0.83313 0.23123 0.732 0.0
C1406 C 0.85784 0.25234 0.69572 0.0
H1407 H 0.94708 0.22203 0.66718 0.0
H1408 H 0.91982 0.22097 0.68864 0.0
H1409 H 0.87075 0.25553 0.6678 0.0
H1410 H 0.80994 0.28121 0.73607 0.0
H1411 H 0.84326 0.27915 0.72843 0.0
H1412 H 0.87932 0.23731 0.7377 0.0
C1413 C 0.92095 0.23246 0.67798 0.0
C1414 C 0.87302 0.25181 0.68304 0.0
C1415 C 0.93647 0.23298 0.66564 0.0
C1416 C 0.81642 0.26719 0.7357 0.0
C1417 C 0.83542 0.26603 0.73141 0.0
C1418 C 0.87751 0.24134 0.72247 0.0
C1419 C 0.90703 0.24653 0.67645 0.0
C1420 C 0.89079 0.24638 0.68994 0.0
C1421 C 0.84351 0.24807 0.72816 0.0
C1422 C 0.86 0.2472 0.71547 0.0
H1423 H 0.92517 0.27232 0.63836 0.0
H1424 H 0.89848 0.2721 0.66051 0.0
H1425 H 0.90643 0.23705 0.71564 0.0
H1426 H 0.80568 0.2193 0.73726 0.0
H1427 H 0.83918 0.21726 0.72936 0.0
C1428 C 0.4834 0.19327 0.41867 0.0
C1429 C 0.49738 0.20095 0.4064 0.0
C1430 C 0.48423 0.17413 0.42487 0.0
C1431 C 0.51179 0.13375 0.4373 0.0
H1432 H 0.47188 0.10216 0.41506 0.0
C1433 C 0.49921 0.05511 0.46366 0.0
C1434 C 0.48022 0.05107 0.46747 0.0
C1435 C 0.50426 0.07147 0.45257 0.0
C1436 C 0.48308 0.11072 0.42155 0.0
H1437 H 0.5238 0.195 0.39206 0.0
H1438 H 0.52544 0.1616 0.40348 0.0
H1439 H 0.47486 0.13576 0.40549 0.0
H1440 H 0.45168 0.06 0.46133 0.0
H1441 H 0.46024 0.08808 0.44296 0.0
H1442 H 0.51926 0.10914 0.45446 0.0
C1443 C 0.51375 0.17038 0.40794 0.0
C1444 C 0.48479 0.12995 0.41595 0.0
C1445 C 0.51274 0.18942 0.40138 0.0
C1446 C 0.46649 0.06274 0.45884 0.0
C1447 C 0.47144 0.0789 0.44801 0.0
C1448 C 0.50983 0.11453 0.4433 0.0
C1449 C 0.49926 0.16247 0.41932 0.0
C1450 C 0.49886 0.14173 0.4241 0.0
C1451 C 0.49038 0.0839 0.44511 0.0
C1452 C 0.49503 0.10292 0.43597 0.0
H1453 H 0.47141 0.20176 0.42279 0.0
H1454 H 0.47292 0.16828 0.43368 0.0
H1455 H 0.52284 0.14262 0.44365 0.0
H1456 H 0.51008 0.04636 0.47013 0.0
H1457 H 0.519 0.0747 0.45037 0.0
C1458 C 0.55413 0.74637 0.15684 0.0
C1459 C 0.54935 0.73107 0.14428 0.0
C1460 C 0.57206 0.74777 0.16499 0.0
C1461 C 0.62079 0.73122 0.15923 0.0
H1462 H 0.62496 0.74753 0.21346 0.0
C1463 C 0.68812 0.72854 0.20879 0.0
C1464 C 0.69087 0.74463 0.22089 0.0
C1465 C 0.67216 0.72729 0.19673 0.0
C1466 C 0.62402 0.74314 0.19824 0.0
H1467 H 0.55963 0.70524 0.13034 0.0
H1468 H 0.59096 0.70751 0.14492 0.0
H1469 H 0.59409 0.74377 0.19853 0.0
H1470 H 0.68026 0.77245 0.22921 0.0
H1471 H 0.65261 0.77045 0.20801 0.0
H1472 H 0.65093 0.7303 0.15928 0.0
C1473 C 0.58088 0.71857 0.14822 0.0
C1474 C 0.60634 0.741 0.18968 0.0
C1475 C 0.56291 0.7172 0.13998 0.0
C1476 C 0.67834 0.75996 0.21987 0.0
C1477 C 0.66251 0.75874 0.2079 0.0
C1478 C 0.63856 0.73322 0.1679 0.0
C1479 C 0.58562 0.73384 0.16086 0.0
C1480 C 0.60451 0.73526 0.17001 0.0
C1481 C 0.65886 0.74208 0.19685 0.0
C1482 C 0.64029 0.73946 0.1874 0.0
H1483 H 0.54406 0.75739 0.16031 0.0
H1484 H 0.57535 0.75991 0.17439 0.0
H1485 H 0.61982 0.72691 0.14399 0.0
H1486 H 0.69757 0.71648 0.20965 0.0
H1487 H 0.66959 0.71428 0.18836 0.0
C1488 C 0.98216 0.18657 0.58793 0.0
C1489 C -0.00559 0.20132 0.58185 0.0
C1490 C 0.9848 0.16781 0.58159 0.0
C1491 C 0.00903 0.13828 0.54521 0.0
H1492 H 0.0045 0.09879 0.58525 0.0
C1493 C 0.02287 0.06265 0.5238 0.0
C1494 C 0.00658 0.05143 0.52596 0.0
C1495 C 0.02553 0.079 0.53524 0.0
C1496 C 0.00594 0.10972 0.57403 0.0
H1497 H 0.01809 0.20848 0.56331 0.0
H1498 H 0.02286 0.17557 0.5523 0.0
H1499 H -0.0009 0.13245 0.59377 0.0
H1500 H 0.9814 0.0467 0.54296 0.0
H1501 H 0.98574 0.0758 0.56278 0.0
H1502 H 0.0156 0.11569 0.52541 0.0
C1503 C 0.01121 0.17849 0.56195 0.0
C1504 C 0.00268 0.1289 0.5788 0.0
C1505 C 0.00846 0.19733 0.56819 0.0
C1506 C -0.00596 0.05531 0.54116 0.0
C1507 C -0.00342 0.07188 0.5525 0.0
C1508 C 0.01243 0.11921 0.54051 0.0
C1509 C -0.0002 0.16348 0.56916 0.0
C1510 C 0.0039 0.1433 0.56432 0.0
C1511 C 0.01169 0.08448 0.54861 0.0
C1512 C 0.0107 0.10473 0.55479 0.0
H1513 H 0.971 0.1894 0.59825 0.0
H1514 H 0.97542 0.1566 0.58686 0.0
H1515 H 0.00985 0.14901 0.53372 0.0
H1516 H 0.03277 0.05963 0.51222 0.0
H1517 H 0.03748 0.08833 0.53231 0.0
C1518 C 0.57323 0.26117 0.35547 0.0
C1519 C 0.55671 0.25405 0.34666 0.0
C1520 C 0.59053 0.25906 0.3463 0.0
C1521 C 0.61573 0.23025 0.30966 0.0
H1522 H 0.6508 0.27321 0.31182 0.0
C1523 C 0.68308 0.24333 0.26311 0.0
C1524 C 0.69756 0.25373 0.27244 0.0
C1525 C 0.66716 0.23764 0.27365 0.0
C1526 C 0.64131 0.26093 0.31142 0.0
H1527 H 0.54537 0.23929 0.32111 0.0
H1528 H 0.57578 0.23571 0.30495 0.0
H1529 H 0.61966 0.27665 0.32548 0.0
H1530 H 0.70813 0.26428 0.30022 0.0
H1531 H 0.6805 0.2541 0.31878 0.0
H1532 H 0.63753 0.21482 0.29487 0.0
C1533 C 0.57527 0.24276 0.31909 0.0
C1534 C 0.62341 0.26294 0.31917 0.0
C1535 C 0.55786 0.24498 0.32826 0.0
C1536 C 0.69712 0.25617 0.2928 0.0
C1537 C 0.68126 0.2505 0.30335 0.0
C1538 C 0.63374 0.22828 0.3017 0.0
C1539 C 0.59181 0.24974 0.32807 0.0
C1540 C 0.61045 0.2476 0.31863 0.0
C1541 C 0.66556 0.24256 0.29356 0.0
C1542 C 0.64678 0.24356 0.30277 0.0
H1543 H 0.57286 0.26823 0.36962 0.0
H1544 H 0.603 0.26444 0.35372 0.0
H1545 H 0.60606 0.21813 0.30909 0.0
H1546 H 0.68315 0.24148 0.24733 0.0
H1547 H 0.65533 0.23143 0.26576 0.0
C1548 C 0.48548 0.80165 0.09108 0.0
C1549 C 0.50272 0.7921 0.09203 0.0
C1550 C 0.4835 0.81795 0.07942 0.0
C1551 C 0.5111 0.85689 0.05704 0.0
H1552 H 0.46428 0.86711 0.02986 0.0
C1553 C 0.49923 0.92811 0.01699 0.0
C1554 C 0.48374 0.93785 0.02457 0.0
C1555 C 0.50139 0.9085 0.02056 0.0
C1556 C 0.47746 0.86434 0.03726 0.0
H1557 H 0.53135 0.79197 0.08134 0.0
H1558 H 0.52782 0.82039 0.06078 0.0
H1559 H 0.4689 0.83592 0.04559 0.0
H1560 H 0.45762 0.93468 0.04045 0.0
H1561 H 0.46117 0.90029 0.04637 0.0
H1562 H 0.51949 0.88542 0.04905 0.0
C1563 C 0.51591 0.81538 0.06924 0.0
C1564 C 0.48008 0.84659 0.04636 0.0
C1565 C 0.51792 0.7991 0.08099 0.0
C1566 C 0.46978 0.92747 0.0346 0.0
C1567 C 0.47173 0.90781 0.03784 0.0
C1568 C 0.50854 0.87454 0.0478 0.0
C1569 C 0.49869 0.82501 0.06838 0.0
C1570 C 0.49674 0.84287 0.05677 0.0
C1571 C 0.48787 0.89831 0.03143 0.0
C1572 C 0.49154 0.87858 0.03825 0.0
H1573 H 0.47353 0.79664 0.09949 0.0
H1574 H 0.47017 0.82527 0.07938 0.0
H1575 H 0.52398 0.85458 0.06516 0.0
H1576 H 0.51018 0.93587 0.00934 0.0
H1577 H 0.51392 0.90145 0.01544 0.0
C1578 C 0.93242 0.72491 0.83799 0.0
C1579 C 0.94444 0.74081 0.84062 0.0
C1580 C 0.91556 0.72677 0.82771 0.0
C1581 C 0.8898 0.75896 0.79335 0.0
H1582 H 0.84758 0.72754 0.81015 0.0
C1583 C 0.80926 0.76387 0.77266 0.0
C1584 C 0.80108 0.74593 0.76819 0.0
C1585 C 0.82838 0.76515 0.7776 0.0
C1586 C 0.85931 0.73631 0.80522 0.0
H1587 H 0.94811 0.77127 0.83494 0.0
H1588 H 0.91825 0.77475 0.8176 0.0
H1589 H 0.8769 0.72633 0.82833 0.0
H1590 H 0.80634 0.71573 0.76359 0.0
H1591 H 0.83967 0.71797 0.77203 0.0
H1592 H 0.87148 0.76941 0.77059 0.0
C1593 C 0.92212 0.76067 0.8229 0.0
C1594 C 0.87618 0.73556 0.81557 0.0
C1595 C 0.93919 0.75871 0.83292 0.0
C1596 C 0.81245 0.7297 0.7669 0.0
C1597 C 0.83144 0.73097 0.7718 0.0
C1598 C 0.87268 0.75995 0.78315 0.0
C1599 C 0.91007 0.7447 0.82014 0.0
C1600 C 0.8918 0.74658 0.8096 0.0
C1601 C 0.83931 0.74847 0.7782 0.0
C1602 C 0.85744 0.74833 0.78883 0.0
H1603 H 0.93616 0.7109 0.84365 0.0
H1604 H 0.90693 0.71404 0.82554 0.0
H1605 H 0.90154 0.76758 0.78823 0.0
H1606 H 0.80061 0.77649 0.77403 0.0
H1607 H 0.83415 0.77878 0.7826 0.0
C1608 C 0.90066 0.00539 0.79803 0.0
C1609 C 0.90095 0.98765 0.7882 0.0
C1610 C 0.91067 0.00802 0.81547 0.0
C1611 C 0.94909 0.98874 0.84603 0.0
H1612 H 0.92313 0.01556 0.88749 0.0
C1613 C 0.97388 0.99273 0.92775 0.0
C1614 C 0.97015 0.00989 0.93781 0.0
C1615 C 0.96792 0.99033 0.90826 0.0
C1616 C 0.93072 0.0083 0.87599 0.0
H1617 H 0.91228 0.95885 0.78879 0.0
H1618 H 0.92966 0.96342 0.8195 0.0
H1619 H 0.90752 0.01036 0.85618 0.0
H1620 H 0.95897 0.03859 0.93491 0.0
H1621 H 0.94908 0.03462 0.90092 0.0
H1622 H 0.97226 0.98655 0.86615 0.0
C1623 C 0.92181 0.97534 0.81355 0.0
C1624 C 0.92174 0.00529 0.85803 0.0
C1625 C 0.91178 0.9727 0.79602 0.0
C1626 C 0.96175 0.0251 0.92761 0.0
C1627 C 0.95599 0.02277 0.90818 0.0
C1628 C 0.95812 0.99175 0.8641 0.0
C1629 C 0.92118 -0.00703 0.82358 0.0
C1630 C 0.93084 -0.00437 0.84277 0.0
C1631 C 0.95827 0.00511 0.89855 0.0
C1632 C 0.94907 0.00174 0.87921 0.0
H1633 H 0.8926 0.01728 0.79233 0.0
H1634 H 0.91015 0.02189 0.82265 0.0
H1635 H 0.9565 0.98133 0.8345 0.0
H1636 H 0.98027 0.98074 0.93529 0.0
H1637 H 0.96988 0.97654 0.90124 0.0
C1638 C 0.76294 0.15518 0.55466 0.0
C1639 C 0.75103 0.15998 0.53903 0.0
C1640 C 0.759 0.16148 0.57352 0.0
C1641 C 0.73082 0.19463 0.60265 0.0
H1642 H 0.73552 0.1546 0.64204 0.0
C1643 C 0.71787 0.2143 0.68036 0.0
C1644 C 0.73454 0.21199 0.69102 0.0
C1645 C 0.71446 0.20319 0.66372 0.0
C1646 C 0.73394 0.1658 0.63114 0.0
H1647 H 0.72676 0.17643 0.53024 0.0
H1648 H 0.71974 0.18742 0.56338 0.0
H1649 H 0.74256 0.14748 0.60778 0.0
H1650 H 0.75965 0.19517 0.69453 0.0
H1651 H 0.75397 0.17591 0.66511 0.0
H1652 H 0.72273 0.21311 0.62595 0.0
C1653 C 0.73209 0.1788 0.56108 0.0
C1654 C 0.73817 0.16184 0.61163 0.0
C1655 C 0.73616 0.17263 0.54212 0.0
C1656 C 0.74668 0.19702 0.68641 0.0
C1657 C 0.74336 0.18599 0.66963 0.0
C1658 C 0.72651 0.19856 0.62211 0.0
C1659 C 0.74299 0.17251 0.57702 0.0
C1660 C 0.73717 0.17639 0.59734 0.0
C1661 C 0.72793 0.19002 0.65742 0.0
C1662 C 0.72849 0.18433 0.63661 0.0
H1663 H 0.77464 0.14562 0.55247 0.0
H1664 H 0.76801 0.15701 0.58548 0.0
H1665 H 0.72999 0.20611 0.59196 0.0
H1666 H 0.70832 0.22578 0.68392 0.0
H1667 H 0.70228 0.20626 0.65472 0.0
C1668 C 0.57916 0.01811 0.29676 0.0
C1669 C 0.58996 0.00281 0.28983 0.0
C1670 C 0.56856 0.01598 0.3138 0.0
C1671 C 0.56761 0.98758 0.35876 0.0
H1672 H 0.51649 0.00541 0.36422 0.0
C1673 C 0.52598 0.96803 0.42614 0.0
C1674 C 0.51842 0.98363 0.43634 0.0
C1675 C 0.5317 0.97018 0.40681 0.0
C1676 C 0.53079 0.00048 0.36284 0.0
H1677 H 0.59758 0.97305 0.29474 0.0
H1678 H 0.57902 0.96933 0.3243 0.0
H1679 H 0.53296 0.00992 0.33298 0.0
H1680 H 0.50953 0.01325 0.43401 0.0
H1681 H 0.51978 0.01707 0.39997 0.0
H1682 H 0.56563 0.97821 0.38845 0.0
C1683 C 0.57902 0.98307 0.31682 0.0
C1684 C 0.54019 0.00308 0.34508 0.0
C1685 C 0.58962 0.98521 0.29989 0.0
C1686 C 0.51526 0.00099 0.4264 0.0
C1687 C 0.52113 0.00318 0.40698 0.0
C1688 C 0.55825 0.98496 0.37639 0.0
C1689 C 0.56862 -0.0015 0.3241 0.0
C1690 C 0.55862 -0.00355 0.34287 0.0
C1691 C 0.5301 0.988 0.39737 0.0
C1692 C 0.5397 0.99116 0.37853 0.0
H1693 H 0.57913 0.03182 0.28921 0.0
H1694 H 0.56073 0.02812 0.31919 0.0
H1695 H 0.58197 0.98277 0.35761 0.0
H1696 H 0.52831 0.95441 0.43341 0.0
H1697 H 0.53822 0.95814 0.39953 0.0
C1698 C 0.7407 0.82168 0.05229 0.0
C1699 C 0.73815 0.84158 0.05044 0.0
C1700 C 0.73813 0.81261 0.07039 0.0
C1701 C 0.71747 0.82002 0.12003 0.0
H1702 H 0.75211 0.77998 0.13488 0.0
C1703 C 0.74253 0.79739 0.19748 0.0
C1704 C 0.74522 0.77769 0.20046 0.0
C1705 C 0.7348 0.80392 0.17984 0.0
C1706 C 0.74208 0.79087 0.13078 0.0
H1707 H 0.73115 0.86763 0.06618 0.0
H1708 H 0.72727 0.85197 0.09775 0.0
H1709 H 0.75409 0.7941 0.10235 0.0
H1710 H 0.74042 0.74922 0.18862 0.0
H1711 H 0.72719 0.7606 0.15761 0.0
H1712 H 0.70644 0.81752 0.14922 0.0
C1713 C 0.7307 0.84321 0.08517 0.0
C1714 C 0.7432 0.79898 0.11211 0.0
C1715 C 0.73309 0.85223 0.06707 0.0
C1716 C 0.73816 0.76448 0.18668 0.0
C1717 C 0.73076 0.77098 0.16891 0.0
C1718 C 0.71659 0.8121 0.13888 0.0
C1719 C 0.73312 0.82327 0.08708 0.0
C1720 C 0.73104 0.81381 0.10654 0.0
C1721 C 0.73014 0.79077 0.16491 0.0
C1722 C 0.72897 0.79754 0.14441 0.0
H1723 H 0.74454 0.81307 0.03973 0.0
H1724 H 0.73994 0.7972 0.07123 0.0
H1725 H 0.70766 0.83118 0.11614 0.0
H1726 H 0.74819 0.80778 0.20784 0.0
H1727 H 0.7345 0.81924 0.17706 0.0
C1728 C 0.89447 0.98962 0.67964 0.0
C1729 C 0.90268 0.00096 0.69449 0.0
C1730 C 0.90209 0.98937 0.66088 0.0
C1731 C 0.93127 0.01755 0.62694 0.0
H1732 H 0.93455 0.96899 0.59941 0.0
C1733 C 0.97513 0.00321 0.55734 0.0
C1734 C 0.9694 0.98777 0.54545 0.0
C1735 C 0.9641 0.00874 0.57325 0.0
C1736 C 0.93333 0.98276 0.60666 0.0
H1737 H 0.92569 0.02051 0.70146 0.0
H1738 H 0.93914 0.01999 0.66847 0.0
H1739 H 0.92304 0.9695 0.63279 0.0
H1740 H 0.94692 0.96762 0.53896 0.0
H1741 H 0.92713 0.97792 0.56603 0.0
H1742 H 0.94195 0.03072 0.60073 0.0
C1743 C 0.92661 0.01152 0.67139 0.0
C1744 C 0.92687 0.98301 0.6259 0.0
C1745 C 0.919 0.0117 0.69029 0.0
C1746 C 0.95152 0.97962 0.54798 0.0
C1747 C 0.94036 0.98535 0.56363 0.0
C1748 C 0.93776 0.01731 0.60757 0.0
C1749 C 0.91811 0.00045 0.65647 0.0
C1750 C 0.92571 0.00037 0.63625 0.0
C1751 C 0.94722 -0.00113 0.57732 0.0
C1752 C 0.9388 -0.00012 0.5972 0.0
H1753 H 0.88195 0.98108 0.6824 0.0
H1754 H 0.89515 0.98079 0.64968 0.0
H1755 H 0.93034 0.03118 0.63452 0.0
H1756 H 0.98903 0.00948 0.55575 0.0
H1757 H 0.96977 0.01928 0.58343 0.0
C1758 C 0.75517 0.15396 0.44493 0.0
C1759 C 0.741 0.13974 0.44586 0.0
C1760 C 0.75581 0.16679 0.42926 0.0
C1761 C 0.74105 0.17096 0.37831 0.0
H1762 H 0.74858 0.22591 0.38538 0.0
C1763 C 0.73222 0.21967 0.31404 0.0
C1764 C 0.74975 0.22703 0.30842 0.0
C1765 C 0.72945 0.21361 0.33325 0.0
C1766 C 0.74642 0.2106 0.38335 0.0
H1767 H 0.71637 0.12784 0.43124 0.0
H1768 H 0.71755 0.15024 0.40381 0.0
H1769 H 0.74798 0.20458 0.41417 0.0
H1770 H 0.77741 0.23596 0.31822 0.0
H1771 H 0.77243 0.22561 0.35226 0.0
H1772 H 0.73949 0.17682 0.34765 0.0
C1773 C 0.72819 0.15136 0.41518 0.0
C1774 C 0.7462 0.19844 0.39967 0.0
C1775 C 0.72749 0.13858 0.43087 0.0
C1776 C 0.76382 0.23026 0.32249 0.0
C1777 C 0.76094 0.22446 0.34185 0.0
C1778 C 0.74112 0.18305 0.36214 0.0
C1779 C 0.74237 0.16553 0.41423 0.0
C1780 C 0.74331 0.17854 0.39723 0.0
C1781 C 0.74416 0.21504 0.34696 0.0
C1782 C 0.74357 0.20293 0.36455 0.0
H1783 H 0.76575 0.15523 0.45634 0.0
H1784 H 0.76698 0.17748 0.42874 0.0
H1785 H 0.73932 0.15563 0.37601 0.0
H1786 H 0.72128 0.21704 0.30322 0.0
H1787 H 0.71642 0.20633 0.33699 0.0
C1788 C 0.58021 0.01336 0.19481 0.0
C1789 C 0.57851 -0.00469 0.20378 0.0
C1790 C 0.57366 0.01606 0.17579 0.0
C1791 C 0.54682 -0.00632 0.135 0.0
H1792 H 0.58335 0.02138 0.10323 0.0
C1793 C 0.54146 0.99234 0.05289 0.0
C1794 C 0.53101 0.00882 0.04877 0.0
C1795 C 0.55243 0.99166 0.06987 0.0
C1796 C 0.57322 0.0135 0.11199 0.0
H1797 H 0.56714 0.96644 0.20106 0.0
H1798 H 0.55599 0.97094 0.16745 0.0
H1799 H 0.58835 0.01849 0.13864 0.0
H1800 H 0.52587 0.03833 0.05687 0.0
H1801 H 0.54587 0.03746 0.0861 0.0
H1802 H 0.53193 0.98848 0.10815 0.0
C1803 C 0.56225 0.98308 0.17508 0.0
C1804 C 0.57584 0.01206 0.13222 0.0
C1805 C 0.56857 0.98048 0.19431 0.0
C1806 C 0.53399 0.02557 0.05982 0.0
C1807 C 0.54534 0.02504 0.07651 0.0
C1808 C 0.54438 -0.00512 0.11476 0.0
C1809 C 0.56562 0.00062 0.16534 0.0
C1810 C 0.56256 0.00231 0.14395 0.0
C1811 C 0.55333 0.00764 0.08237 0.0
C1812 C 0.55752 0.00483 0.10321 0.0
H1813 H 0.58759 0.02507 0.20209 0.0
H1814 H 0.57581 0.02994 0.16892 0.0
H1815 H 0.53627 0.98627 0.14363 0.0
H1816 H 0.5391 0.97921 0.04462 0.0
H1817 H 0.55847 0.9781 0.07431 0.0
C1818 C 0.76204 0.85387 0.93653 0.0
C1819 C 0.74958 0.85148 0.95226 0.0
C1820 C 0.75805 0.84544 0.91837 0.0
C1821 C 0.73114 0.80727 0.89402 0.0
H1822 H 0.73326 0.84069 0.84847 0.0
C1823 C 0.71301 0.77609 0.81996 0.0
C1824 C 0.72707 0.77922 0.80598 0.0
C1825 C 0.71174 0.78809 0.83624 0.0
C1826 C 0.73263 0.83119 0.86103 0.0
H1827 H 0.7239 0.83734 0.96179 0.0
H1828 H 0.71716 0.8223 0.93015 0.0
H1829 H 0.74119 0.85353 0.88093 0.0
H1830 H 0.74951 0.79827 0.79668 0.0
H1831 H 0.74771 0.81907 0.82542 0.0
H1832 H 0.72326 0.78477 0.87431 0.0
C1833 C 0.72982 0.83095 0.93178 0.0
C1834 C 0.73724 0.8385 0.87956 0.0
C1835 C 0.73366 0.83959 0.94985 0.0
C1836 C 0.73848 0.79572 0.80728 0.0
C1837 C 0.73745 0.80758 0.82379 0.0
C1838 C 0.72667 0.79993 0.87553 0.0
C1839 C 0.7417 0.83425 0.91574 0.0
C1840 C 0.73669 0.82655 0.89617 0.0
C1841 C 0.72485 0.80311 0.83903 0.0
C1842 C 0.72748 0.81176 0.85878 0.0
H1843 H 0.77447 0.86288 0.93799 0.0
H1844 H 0.7676 0.84789 0.90629 0.0
H1845 H 0.73074 0.79773 0.90657 0.0
H1846 H 0.70397 0.76348 0.81908 0.0
H1847 H 0.70147 0.78468 0.84741 0.0
C1848 C 0.80582 0.90581 0.03353 0.0
C1849 C 0.79368 0.90588 0.01724 0.0
C1850 C 0.82458 0.91145 0.03157 0.0
C1851 C 0.85683 0.9385 -0.001 0.0
H1852 H 0.89516 0.91255 0.0294 0.0
C1853 C 0.93482 0.95746 0.99103 0.0
C1854 C 0.94139 0.96643 0.00821 0.0
C1855 C 0.91847 0.94622 0.9914 0.0
C1856 C 0.88457 0.91978 0.02077 0.0
H1857 H 0.79167 0.91207 0.98611 0.0
H1858 H 0.82445 0.92165 0.98263 0.0
H1859 H 0.86252 0.90128 0.03101 0.0
H1860 H 0.93706 0.96984 0.03937 0.0
H1861 H 0.90887 0.94922 0.04025 0.0
H1862 H 0.879 0.95687 0.98868 0.0
C1863 C 0.81944 0.9175 -0.003 0.0
C1864 C 0.86589 0.9135 0.02179 0.0
C1865 C 0.80063 0.91197 -0.00101 0.0
C1866 C 0.93237 0.96273 0.02606 0.0
C1867 C 0.91627 0.95105 0.02652 0.0
C1868 C 0.87553 0.94455 -0.00226 0.0
C1869 C 0.83169 0.91718 0.01325 0.0
C1870 C 0.85173 0.92301 0.01119 0.0
C1871 C 0.90874 0.94348 0.00904 0.0
C1872 C 0.88949 0.93542 0.00882 0.0
H1873 H 0.80088 0.90125 0.04781 0.0
H1874 H 0.83349 0.91141 0.04449 0.0
H1875 H 0.84632 0.94637 0.99089 0.0
H1876 H 0.94142 0.9605 0.97706 0.0
H1877 H 0.91284 0.94055 0.97775 0.0
C1878 C 0.31703 0.59429 0.98207 0.0
C1879 C 0.30319 0.59029 -0.00398 0.0
C1880 C 0.33262 0.58255 0.98063 0.0
C1881 C 0.34999 0.53444 -0.00506 0.0
H1882 H 0.39777 0.5575 0.98069 0.0
C1883 C 0.42801 0.50857 0.00227 0.0
C1884 C 0.4382 0.51184 0.98504 0.0
C1885 C 0.40882 0.51253 0.00262 0.0
C1886 C 0.38443 0.5509 0.98452 0.0
H1887 H 0.2949 0.57173 0.02003 0.0
H1888 H 0.32279 0.55174 0.01832 0.0
H1889 H 0.37069 0.57787 0.98476 0.0
H1890 H 0.43646 0.51887 0.95414 0.0
H1891 H 0.40299 0.52571 0.95477 0.0
H1892 H 0.36445 0.50747 -0.00446 0.0
C1893 C 0.32123 0.56336 0.00789 0.0
C1894 C 0.36891 0.56251 0.98678 0.0
C1895 C 0.30539 0.57484 0.00899 0.0
C1896 C 0.42878 0.51656 0.96763 0.0
C1897 C 0.40969 0.52031 0.96794 0.0
C1898 C 0.36573 0.52281 0.99303 0.0
C1899 C 0.33488 0.56692 0.9935 0.0
C1900 C 0.35145 0.55443 0.99181 0.0
C1901 C 0.39994 0.51958 0.98571 0.0
C1902 C 0.38294 0.53103 0.98758 0.0
H1903 H 0.31547 0.60608 0.97182 0.0
H1904 H 0.34267 0.58551 0.96913 0.0
H1905 H 0.33666 0.52775 -0.00139 0.0
H1906 H 0.43514 0.50492 0.01581 0.0
H1907 H 0.40145 0.51204 0.01647 0.0
C1908 C 0.15617 0.55447 0.74597 0.0
C1909 C 0.14788 0.54803 0.7284 0.0
C1910 C 0.16274 0.57333 0.74765 0.0
C1911 C 0.15798 0.62144 0.72546 0.0
H1912 H 0.20532 0.63135 0.75208 0.0
C1913 C 0.21144 0.68632 0.72235 0.0
C1914 C 0.21537 0.69403 0.74091 0.0
C1915 C 0.19875 0.67098 0.72052 0.0
C1916 C 0.19198 0.62872 0.7448 0.0
H1917 H 0.14022 0.55615 0.69871 0.0
H1918 H 0.15209 0.58899 0.70152 0.0
H1919 H 0.19352 0.59845 0.74936 0.0
H1920 H 0.20849 0.69336 0.77177 0.0
H1921 H 0.18654 0.66614 0.76863 0.0
H1922 H 0.15709 0.6519 0.72027 0.0
C1923 C 0.15317 0.57956 0.71411 0.0
C1924 C 0.1852 0.60996 0.74328 0.0
C1925 C 0.14657 0.5607 0.71243 0.0
C1926 C 0.20549 0.68749 0.75735 0.0
C1927 C 0.19298 0.67207 0.75556 0.0
C1928 C 0.16493 0.64026 0.72678 0.0
C1929 C 0.16119 0.5861 0.73177 0.0
C1930 C 0.16814 0.60611 0.73358 0.0
C1931 C 0.19018 0.66325 0.73729 0.0
C1932 C 0.18194 0.64391 0.73649 0.0
H1933 H 0.15731 0.54505 0.75857 0.0
H1934 H 0.16871 0.57801 0.76152 0.0
H1935 H 0.14465 0.6189 0.71814 0.0
H1936 H 0.21913 0.69123 0.70959 0.0
H1937 H 0.19686 0.66413 0.70636 0.0
C1938 C 0.17996 0.42132 0.50754 0.0
C1939 C 0.18224 0.40282 0.49966 0.0
C1940 C 0.1621 0.42945 0.50857 0.0
C1941 C 0.115 0.4256 0.48639 0.0
H1942 H 0.09779 0.45095 0.5336 0.0
C1943 C 0.04034 0.44851 0.48871 0.0
C1944 C 0.03904 0.46846 0.49063 0.0
C1945 C 0.05621 0.43908 0.49563 0.0
C1946 C 0.10245 0.44382 0.52039 0.0
H1947 H 0.16768 0.37857 0.48624 0.0
H1948 H 0.13675 0.39268 0.48797 0.0
H1949 H 0.12992 0.43851 0.53218 0.0
H1950 H 0.05186 0.49408 0.50299 0.0
H1951 H 0.07983 0.47762 0.51501 0.0
H1952 H 0.08786 0.43093 0.47446 0.0
C1953 C 0.14868 0.40095 0.49336 0.0
C1954 C 0.12082 0.43688 0.5195 0.0
C1955 C 0.16642 0.39282 0.49245 0.0
C1956 C 0.05262 0.47859 0.50156 0.0
C1957 C 0.06861 0.46918 0.5084 0.0
C1958 C 0.09675 0.43237 0.48733 0.0
C1959 C 0.14627 0.41928 0.50154 0.0
C1960 C 0.12721 0.42757 0.5025 0.0
C1961 C 0.07111 0.44961 0.50415 0.0
C1962 C 0.09019 0.4414 0.50436 0.0
H1963 H 0.19191 0.42936 0.51322 0.0
H1964 H 0.16068 0.4437 0.51474 0.0
H1965 H 0.11963 0.41893 0.47293 0.0
H1966 H 0.02999 0.44051 0.48022 0.0
H1967 H 0.05766 0.42389 0.49254 0.0
C1968 C 0.85147 0.92115 0.72898 0.0
C1969 C 0.84374 0.93745 0.73783 0.0
C1970 C 0.84373 0.90295 0.73222 0.0
C1971 C 0.81275 0.875 0.76542 0.0
H1972 H 0.80803 0.84152 0.72019 0.0
C1973 C 0.76008 0.81235 0.75483 0.0
C1974 C 0.76532 0.79739 0.74231 0.0
C1975 C 0.77307 0.82672 0.75992 0.0
C1976 C 0.80966 0.85046 0.73311 0.0
H1977 H 0.82171 0.94744 0.75702 0.0
H1978 H 0.80789 0.91551 0.7624 0.0
H1979 H 0.82257 0.87293 0.71654 0.0
H1980 H 0.78834 0.78426 0.72698 0.0
H1981 H 0.81121 0.80927 0.73603 0.0
H1982 H 0.79887 0.85257 0.7817 0.0
C1983 C 0.82018 0.91685 0.75321 0.0
C1984 C 0.81793 0.86856 0.73099 0.0
C1985 C 0.82798 0.93515 0.74997 0.0
C1986 C 0.78411 0.7957 0.73673 0.0
C1987 C 0.79711 0.81006 0.74181 0.0
C1988 C 0.80429 0.85683 0.76752 0.0
C1989 C 0.82798 0.90054 0.74434 0.0
C1990 C 0.8195 0.88112 0.74705 0.0
C1991 C 0.79134 0.82638 0.75226 0.0
C1992 C 0.80258 0.84443 0.75132 0.0
H1993 H 0.86365 0.92237 0.7196 0.0
H1994 H 0.85024 0.89069 0.72535 0.0
H1995 H 0.81395 0.88427 0.77813 0.0
H1996 H 0.74555 0.81391 0.7591 0.0
H1997 H 0.76822 0.83909 0.76802 0.0
C1998 C 0.67912 0.10891 0.52051 0.0
C1999 C 0.69354 0.1008 0.50938 0.0
C2000 C 0.66102 0.10102 0.5199 0.0
C2001 C 0.6363 0.05585 0.5077 0.0
H2002 H 0.59159 0.08724 0.50761 0.0
C2003 C 0.56577 0.02395 0.48847 0.0
C2004 C 0.55251 0.0244 0.50355 0.0
C2005 C 0.5814 0.03599 0.48907 0.0
C2006 C 0.60401 0.07841 0.50784 0.0
H2007 H 0.70027 0.07858 0.48833 0.0
H2008 H 0.66866 0.06507 0.48693 0.0
H2009 H 0.62273 0.10274 0.50833 0.0
H2010 H 0.54419 0.03839 0.53042 0.0
H2011 H 0.57208 0.05986 0.53156 0.0
H2012 H 0.61768 0.0316 0.50663 0.0
C2013 C 0.6714 0.07717 0.49657 0.0
C2014 C 0.62177 0.08719 0.50826 0.0
C2015 C 0.6895 0.08491 0.49733 0.0
C2016 C 0.55433 0.03797 0.51866 0.0
C2017 C 0.57016 0.05015 0.51928 0.0
C2018 C 0.61866 0.04715 0.5071 0.0
C2019 C 0.65701 0.08498 0.50803 0.0
C2020 C 0.63809 0.07596 0.508 0.0
C2021 C 0.58407 0.04865 0.50481 0.0
C2022 C 0.60241 0.05834 0.50696 0.0
H2023 H 0.68186 0.1212 0.5299 0.0
H2024 H 0.65029 0.10723 0.52904 0.0
H2025 H 0.64855 0.04678 0.50798 0.0
H2026 H 0.56444 0.01363 0.47661 0.0
H2027 H 0.59187 0.03478 0.47768 0.0
C2028 C 0.15791 0.43588 0.72936 0.0
C2029 C 0.14169 0.43764 0.74079 0.0
C2030 C 0.16977 0.42027 0.73206 0.0
C2031 C 0.17212 0.37252 0.75612 0.0
H2032 H 0.22591 0.38219 0.75563 0.0
C2033 C 0.21879 0.31699 0.78681 0.0
C2034 C 0.22733 0.30756 0.77105 0.0
C2035 C 0.2132 0.33596 0.78479 0.0
C2036 C 0.21092 0.37947 0.75589 0.0
H2037 H 0.1248 0.42441 0.76356 0.0
H2038 H 0.14573 0.39773 0.76886 0.0
H2039 H 0.20433 0.40802 0.74669 0.0
H2040 H 0.23955 0.31132 0.74218 0.0
H2041 H 0.22944 0.34455 0.73861 0.0
H2042 H 0.17866 0.34422 0.76583 0.0
C2043 C 0.14914 0.40794 0.7574 0.0
C2044 C 0.19857 0.39407 0.75056 0.0
C2045 C 0.13714 0.42328 0.75442 0.0
C2046 C 0.23273 0.31819 0.75444 0.0
C2047 C 0.22707 0.33722 0.75241 0.0
C2048 C 0.18437 0.35818 0.76179 0.0
C2049 C 0.16574 0.4064 0.74646 0.0
C2050 C 0.17902 0.39074 0.75077 0.0
C2051 C 0.21613 0.34565 0.76703 0.0
C2052 C 0.20379 0.3616 0.76188 0.0
H2053 H 0.16158 0.44675 0.71862 0.0
H2054 H 0.18222 0.41925 0.72309 0.0
H2055 H 0.15722 0.36928 0.75593 0.0
H2056 H 0.21492 0.30924 0.8 0.0
H2057 H 0.20493 0.3424 0.79629 0.0
C2058 C 0.32727 0.55571 0.23611 0.0
C2059 C 0.34551 0.55401 0.24385 0.0
C2060 C 0.31882 0.57375 0.23481 0.0
C2061 C 0.32085 0.62177 0.25691 0.0
H2062 H 0.29435 0.6384 0.21016 0.0
C2063 C 0.2896 0.69566 0.25661 0.0
C2064 C 0.27038 0.69538 0.25228 0.0
C2065 C 0.30091 0.68057 0.25046 0.0
C2066 C 0.30174 0.63395 0.22328 0.0
H2067 H 0.36908 0.56981 0.25647 0.0
H2068 H 0.35435 0.60105 0.25432 0.0
H2069 H 0.30877 0.60656 0.21098 0.0
H2070 H 0.24803 0.68041 0.23687 0.0
H2071 H 0.26765 0.65385 0.22627 0.0
H2072 H 0.31353 0.64866 0.26952 0.0
C2073 C 0.34656 0.58853 0.24925 0.0
C2074 C 0.30988 0.61571 0.2238 0.0
C2075 C 0.35502 0.57061 0.25041 0.0
C2076 C 0.26293 0.68094 0.2401 0.0
C2077 C 0.27419 0.66573 0.23408 0.0
C2078 C 0.31275 0.63988 0.25642 0.0
C2079 C 0.3284 0.59032 0.24142 0.0
C2080 C 0.31951 0.60947 0.24065 0.0
C2081 C 0.293 0.66478 0.24034 0.0
C2082 C 0.3031 0.64624 0.23963 0.0
H2083 H 0.3196 0.54316 0.23092 0.0
H2084 H 0.30472 0.5747 0.22891 0.0
H2085 H 0.32785 0.61723 0.27024 0.0
H2086 H 0.29552 0.70661 0.26618 0.0
H2087 H 0.31548 0.68048 0.25506 0.0
C2088 C 0.49427 0.68591 0.59391 0.0
C2089 C 0.49268 0.70122 0.58057 0.0
C2090 C 0.49738 0.66725 0.5873 0.0
C2091 C 0.51434 0.63855 0.54565 0.0
H2092 H 0.48272 0.59882 0.5684 0.0
C2093 C 0.49836 0.56485 0.51031 0.0
C2094 C 0.49164 0.55003 0.52241 0.0
C2095 C 0.5047 0.5822 0.5185 0.0
C2096 C 0.4921 0.60954 0.56221 0.0
H2097 H 0.49331 0.70888 0.54973 0.0
H2098 H 0.49866 0.67605 0.53815 0.0
H2099 H 0.48013 0.6316 0.57978 0.0
H2100 H 0.48806 0.54066 0.55235 0.0
H2101 H 0.50036 0.57036 0.56681 0.0
H2102 H 0.52607 0.61634 0.52778 0.0
C2103 C 0.49763 0.67865 0.55377 0.0
C2104 C 0.49046 0.62845 0.56866 0.0
C2105 C 0.49439 0.6974 0.56039 0.0
C2106 C 0.4935 0.55179 0.54277 0.0
C2107 C 0.50018 0.56898 0.55099 0.0
C2108 C 0.51608 0.61948 0.53923 0.0
C2109 C 0.49904 0.66335 0.56718 0.0
C2110 C 0.50141 0.64322 0.56038 0.0
C2111 C 0.5044 0.58491 0.53895 0.0
C2112 C 0.50483 0.60474 0.54732 0.0
H2113 H 0.49311 0.68831 0.60955 0.0
H2114 H 0.49857 0.65583 0.59802 0.0
H2115 H 0.52312 0.64961 0.53913 0.0
H2116 H 0.49674 0.56385 0.49453 0.0
H2117 H 0.50789 0.59403 0.50871 0.0
C2118 C 0.55315 0.23487 0.82904 0.0
C2119 C 0.55184 0.24944 0.84319 0.0
C2120 C 0.569 0.23358 0.81733 0.0
C2121 C 0.6049 0.26139 0.79424 0.0
H2122 H 0.63254 0.2138 0.79194 0.0
C2123 C 0.67745 0.25365 0.75893 0.0
C2124 C 0.68319 0.23509 0.75388 0.0
C2125 C 0.65927 0.25657 0.7657 0.0
C2126 C 0.6247 0.22705 0.79195 0.0
H2127 H 0.56613 0.27388 0.85653 0.0
H2128 H 0.59391 0.27185 0.83548 0.0
H2129 H 0.6063 0.21653 0.81431 0.0
H2130 H 0.67405 0.20577 0.7487 0.0
H2131 H 0.64182 0.21111 0.75908 0.0
H2132 H 0.623 0.27184 0.77158 0.0
C2133 C 0.58258 0.26147 0.83363 0.0
C2134 C 0.60988 0.22865 0.80501 0.0
C2135 C 0.5668 0.26256 0.84566 0.0
C2136 C 0.66988 0.22015 0.75278 0.0
C2137 C 0.65156 0.22318 0.759 0.0
C2138 C 0.61958 0.2597 0.78088 0.0
C2139 C 0.58368 0.247 0.81936 0.0
C2140 C 0.59993 0.24583 0.80628 0.0
C2141 C 0.64654 0.24102 0.76704 0.0
C2142 C 0.62969 0.24249 0.77961 0.0
H2143 H 0.5419 0.22445 0.82697 0.0
H2144 H 0.56963 0.22232 0.80639 0.0
H2145 H 0.59718 0.2747 0.79491 0.0
H2146 H 0.68755 0.26538 0.75995 0.0
H2147 H 0.65592 0.27053 0.77167 0.0
C2148 C 0.98791 0.31309 0.09602 0.0
C2149 C -0.00268 0.29948 0.08459 0.0
C2150 C 0.9841 0.3313 0.08854 0.0
C2151 C 0.97554 0.358 0.04392 0.0
H2152 H -0.00392 0.40215 0.07163 0.0
C2153 C -0.00735 0.42934 0.00715 0.0
C2154 C -0.004 0.44567 0.01872 0.0
C2155 C 0.98548 0.41254 0.01553 0.0
C2156 C 0.98966 0.39014 0.06394 0.0
H2157 H 0.01 0.29407 0.05636 0.0
H2158 H 0.00274 0.32596 0.04294 0.0
H2159 H -0.00037 0.37021 0.08545 0.0
H2160 H -0.00768 0.45834 0.04735 0.0
H2161 H 0.97893 0.42916 0.06202 0.0
H2162 H 0.96548 0.37781 0.02239 0.0
C2163 C -0.00149 0.32247 0.05777 0.0
C2164 C -0.00805 0.37178 0.0718 0.0
C2165 C 0.00277 0.30436 0.06545 0.0
C2166 C 0.98976 0.44586 0.03816 0.0
C2167 C 0.98241 0.42904 0.04658 0.0
C2168 C 0.97292 0.37642 0.0362 0.0
C2169 C 0.9892 0.3361 0.06931 0.0
C2170 C 0.98537 0.35554 0.0616 0.0
C2171 C 0.98158 0.41177 0.03573 0.0
C2172 C 0.98047 0.39273 0.04579 0.0
H2173 H 0.98368 0.30972 0.11089 0.0
H2174 H 0.977 0.3416 0.09772 0.0
H2175 H 0.97007 0.34565 0.03597 0.0
H2176 H -0.00248 0.42892 0.99212 0.0
H2177 H 0.98504 0.3997 0.00656 0.0
C2178 C 0.93999 0.74797 0.32841 0.0
C2179 C 0.94487 0.73039 0.33706 0.0
C2180 C 0.92166 0.75119 0.32228 0.0
C2181 C 0.87352 0.73596 0.33267 0.0
H2182 H 0.86255 0.7649 0.2855 0.0
C2183 C 0.80097 0.74461 0.29558 0.0
C2184 C 0.79821 0.76155 0.28484 0.0
C2185 C 0.81749 0.74219 0.30636 0.0
C2186 C 0.86542 0.75714 0.29894 0.0
H2187 H 0.9347 0.70192 0.34491 0.0
H2188 H 0.90249 0.70751 0.33386 0.0
H2189 H 0.89465 0.75574 0.29252 0.0
H2190 H 0.80895 0.79017 0.27889 0.0
H2191 H 0.83761 0.78619 0.29818 0.0
H2192 H 0.84403 0.73711 0.33879 0.0
C2193 C 0.91286 0.7189 0.33225 0.0
C2194 C 0.88378 0.75175 0.30285 0.0
C2195 C 0.9313 0.71565 0.33839 0.0
C2196 C 0.81092 0.77694 0.28699 0.0
C2197 C 0.82732 0.7746 0.2979 0.0
C2198 C 0.85503 0.7413 0.32869 0.0
C2199 C 0.90781 0.73687 0.32459 0.0
C2200 C 0.88806 0.74123 0.31981 0.0
C2201 C 0.83133 0.75673 0.30645 0.0
C2202 C 0.85087 0.7521 0.31186 0.0
H2203 H 0.95016 0.75959 0.32707 0.0
H2204 H 0.91818 0.76522 0.31653 0.0
H2205 H 0.87648 0.72804 0.34599 0.0
H2206 H 0.79151 0.73244 0.29382 0.0
H2207 H 0.82022 0.72827 0.31282 0.0
C2208 C 0.4687 0.31054 0.88809 0.0
C2209 C 0.48214 0.29635 0.89169 0.0
C2210 C 0.47058 0.32865 0.89676 0.0
C2211 C 0.49294 0.35374 0.93803 0.0
H2212 H 0.48812 0.39947 0.90582 0.0
C2213 C 0.51417 0.42593 0.96883 0.0
C2214 C 0.50009 0.43985 0.96832 0.0
C2215 C 0.51301 0.40991 0.95674 0.0
C2216 C 0.48938 0.3868 0.91494 0.0
H2217 H 0.50761 0.28958 0.90773 0.0
H2218 H 0.51076 0.32108 0.92299 0.0
H2219 H 0.48291 0.36762 0.89118 0.0
H2220 H 0.4748 0.44914 0.95355 0.0
H2221 H 0.47251 0.42057 0.93238 0.0
H2222 H 0.49942 0.37271 0.96175 0.0
C2223 C 0.49886 0.3183 0.9134 0.0
C2224 C 0.48634 0.36865 0.90664 0.0
C2225 C 0.4971 0.30031 0.9046 0.0
C2226 C 0.4857 0.43843 0.95426 0.0
C2227 C 0.48444 0.42217 0.94218 0.0
C2228 C 0.49599 0.37179 0.94628 0.0
C2229 C 0.48577 0.33271 0.90934 0.0
C2230 C 0.48821 0.35198 0.91813 0.0
C2231 C 0.49765 0.4074 0.94404 0.0
C2232 C 0.49439 0.38847 0.9348 0.0
H2233 H 0.45702 0.30785 0.8782 0.0
H2234 H 0.46017 0.33947 0.89363 0.0
H2235 H 0.49417 0.34114 0.94727 0.0
H2236 H 0.52569 0.42703 0.97923 0.0
H2237 H 0.52365 0.39896 0.95805 0.0
C2238 C 0.92262 0.27325 0.14226 0.0
C2239 C 0.93603 0.25892 0.14549 0.0
C2240 C 0.90642 0.27404 0.15369 0.0
C2241 C 0.88493 0.25492 0.1997 0.0
H2242 H 0.83801 0.26491 0.17265 0.0
C2243 C 0.81286 0.22148 0.21506 0.0
C2244 C 0.80074 0.23307 0.22599 0.0
C2245 C 0.82886 0.22926 0.20641 0.0
C2246 C 0.85106 0.26261 0.18048 0.0
H2247 H 0.94294 0.23412 0.16319 0.0
H2248 H 0.91437 0.23502 0.18272 0.0
H2249 H 0.86766 0.26885 0.15521 0.0
H2250 H 0.7959 0.26183 0.23644 0.0
H2251 H 0.82411 0.27586 0.22068 0.0
H2252 H 0.86797 0.24728 0.22451 0.0
C2253 C 0.9166 0.24606 0.17176 0.0
C2254 C 0.86807 0.2648 0.17053 0.0
C2255 C 0.93294 0.24543 0.16047 0.0
C2256 C 0.80473 0.25281 0.22764 0.0
C2257 C 0.82091 0.2607 0.21889 0.0
C2258 C 0.86789 0.25263 0.20959 0.0
C2259 C 0.90308 0.26036 0.16849 0.0
C2260 C 0.88522 0.26042 0.17983 0.0
C2261 C 0.83317 0.24881 0.20846 0.0
C2262 C 0.85084 0.25605 0.19989 0.0
H2263 H 0.92467 0.28397 0.13092 0.0
H2264 H 0.89651 0.28542 0.15091 0.0
H2265 H 0.89783 0.25179 0.20747 0.0
H2266 H 0.81021 0.20618 0.21355 0.0
H2267 H 0.83813 0.21989 0.19837 0.0
C2268 C 0.97931 0.69988 0.42864 0.0
C2269 C 0.99028 0.70315 0.41188 0.0
C2270 C 0.97994 0.68214 0.43823 0.0
C2271 C 0.99127 0.63204 0.4279 0.0
H2272 H -0.00294 0.62601 0.48419 0.0
C2273 C 0.01655 0.56237 0.4595 0.0
C2274 C 0.00401 0.55321 0.47239 0.0
C2275 C 0.01463 0.58176 0.45521 0.0
C2276 C -0.00474 0.6276 0.46849 0.0
H2277 H 0.01117 0.69091 0.39258 0.0
H2278 H 0.01237 0.66029 0.40934 0.0
H2279 H -0.00671 0.65831 0.47016 0.0
H2280 H 0.98072 0.55751 0.49228 0.0
H2281 H 0.97737 0.5917 0.48457 0.0
H2282 H -0.00623 0.60156 0.42606 0.0
C2283 C 0.00298 0.67116 0.41483 0.0
C2284 C -0.00695 0.64595 0.4605 0.0
C2285 C 0.00234 0.68874 0.40529 0.0
C2286 C 0.99049 0.56418 0.48217 0.0
C2287 C 0.98858 0.5837 0.47784 0.0
C2288 C -0.00639 0.61386 0.43582 0.0
C2289 C 0.99152 0.66754 0.43111 0.0
C2290 C 0.99156 0.64829 0.44008 0.0
C2291 C 0.00018 0.59233 0.46374 0.0
C2292 C -0.0039 0.61156 0.45609 0.0
H2293 H 0.96995 0.7108 0.43405 0.0
H2294 H 0.971 0.67964 0.45079 0.0
H2295 H 0.98966 0.63343 0.41215 0.0
H2296 H 0.02738 0.5544 0.45208 0.0
H2297 H 0.02392 0.58832 0.44453 0.0
C2298 C 0.55863 0.72658 0.6462 0.0
C2299 C 0.54555 0.74152 0.64656 0.0
C2300 C 0.57453 0.72726 0.65828 0.0
C2301 C 0.59354 0.7517 0.70289 0.0
H2302 H 0.6406 0.73062 0.6851 0.0
C2303 C 0.66715 0.76825 0.73538 0.0
C2304 C 0.68001 0.75312 0.73625 0.0
C2305 C 0.64902 0.7651 0.72809 0.0
C2306 C 0.62745 0.73626 0.69039 0.0
H2307 H 0.53925 0.76928 0.65915 0.0
H2308 H 0.56734 0.77086 0.67967 0.0
H2309 H 0.61335 0.72977 0.66343 0.0
H2310 H 0.68368 0.7226 0.73171 0.0
H2311 H 0.65195 0.7171 0.71872 0.0
H2312 H 0.60813 0.759 0.72953 0.0
C2313 C 0.56501 0.75824 0.67066 0.0
C2314 C 0.61181 0.73581 0.67796 0.0
C2315 C 0.54895 0.75741 0.65881 0.0
C2316 C 0.67394 0.73444 0.73142 0.0
C2317 C 0.6559 0.73135 0.72376 0.0
C2318 C 0.60929 0.7524 0.71521 0.0
C2319 C 0.57789 0.74305 0.67077 0.0
C2320 C 0.59462 0.74354 0.68402 0.0
C2321 C 0.6436 0.74684 0.72121 0.0
C2322 C 0.62639 0.74466 0.70908 0.0
H2323 H 0.55637 0.71412 0.63692 0.0
H2324 H 0.58396 0.71517 0.65809 0.0
H2325 H 0.58049 0.75749 0.70823 0.0
H2326 H 0.67159 0.7828 0.73888 0.0
H2327 H 0.63985 0.77729 0.72627 0.0
C2328 C 0.59458 0.49483 0.69068 0.0
C2329 C 0.58619 0.48779 0.7079 0.0
C2330 C 0.58432 0.49595 0.67323 0.0
C2331 C 0.54363 0.47476 0.64779 0.0
H2332 H 0.55053 0.51801 0.61253 0.0
C2333 C 0.53029 0.47109 0.56454 0.0
C2334 C 0.52189 0.48681 0.5552 0.0
C2335 C 0.53459 0.4718 0.58453 0.0
C2336 C 0.54824 0.50596 0.62232 0.0
H2337 H 0.56031 0.47657 0.72029 0.0
H2338 H 0.54237 0.47848 0.6897 0.0
H2339 H 0.56513 0.51872 0.64503 0.0
H2340 H 0.51113 0.51545 0.55939 0.0
H2341 H 0.51906 0.51693 0.59445 0.0
H2342 H 0.52714 0.4618 0.62485 0.0
C2343 C 0.55696 0.48303 0.68974 0.0
C2344 C 0.55676 0.50627 0.64085 0.0
C2345 C 0.56723 0.48197 0.70727 0.0
C2346 C 0.5174 0.50309 0.56633 0.0
C2347 C 0.52207 0.50397 0.5863 0.0
C2348 C 0.53525 0.47438 0.62919 0.0
C2349 C 0.5654 0.49002 0.67252 0.0
C2350 C 0.55485 0.49052 0.65365 0.0
C2351 C 0.53094 0.4884 0.59554 0.0
C2352 C 0.53775 0.48982 0.61613 0.0
H2353 H 0.60916 0.49944 0.69062 0.0
H2354 H 0.59133 0.50112 0.66016 0.0
H2355 H 0.54196 0.46236 0.65725 0.0
H2356 H 0.53387 0.45836 0.55627 0.0
H2357 H 0.54156 0.45965 0.59117 0.0
C2358 C 0.75337 0.36535 0.92875 0.0
C2359 C 0.76139 0.3554 0.94451 0.0
C2360 C 0.75179 0.35662 0.91041 0.0
C2361 C 0.74524 0.30994 0.88866 0.0
H2362 H 0.76138 0.33367 0.83996 0.0
C2363 C 0.72627 0.27515 0.81599 0.0
C2364 C 0.74143 0.2723 0.80335 0.0
C2365 C 0.72783 0.28817 0.83141 0.0
C2366 C 0.7568 0.32692 0.85346 0.0
H2367 H 0.77412 0.32883 0.9539 0.0
H2368 H 0.77072 0.31315 0.92182 0.0
H2369 H 0.76723 0.35019 0.87122 0.0
H2370 H 0.76954 0.2816 0.79571 0.0
H2371 H 0.77262 0.30407 0.82328 0.0
H2372 H 0.73493 0.28664 0.8712 0.0
C2373 C 0.76601 0.3278 0.92357 0.0
C2374 C 0.76009 0.33637 0.87125 0.0
C2375 C 0.76804 0.33673 0.94178 0.0
C2376 C 0.75773 0.28359 0.80542 0.0
C2377 C 0.75943 0.29645 0.8211 0.0
C2378 C 0.7418 0.30061 0.87094 0.0
C2379 C 0.75777 0.33766 0.9078 0.0
C2380 C 0.75445 0.32784 0.88896 0.0
C2381 C 0.74472 0.29829 0.83464 0.0
C2382 C 0.7476 0.30896 0.85316 0.0
H2383 H 0.74821 0.37981 0.93069 0.0
H2384 H 0.7453 0.36442 0.89846 0.0
H2385 H 0.74058 0.30321 0.90215 0.0
H2386 H 0.71338 0.26687 0.8143 0.0
H2387 H 0.71609 0.28971 0.8413 0.0
C2388 C 0.92675 0.51795 0.20218 0.0
C2389 C 0.90932 0.50845 0.2037 0.0
C2390 C 0.93749 0.5161 0.18521 0.0
C2391 C 0.94267 0.48667 0.14033 0.0
H2392 H 0.95909 0.53458 0.11651 0.0
C2393 C 0.95016 0.49789 0.05757 0.0
C2394 C 0.96598 0.50793 0.05073 0.0
C2395 C 0.94711 0.49599 0.07765 0.0
C2396 C 0.95495 0.52105 0.12316 0.0
H2397 H 0.88972 0.48907 0.18896 0.0
H2398 H 0.90828 0.48607 0.15941 0.0
H2399 H 0.94685 0.53469 0.14985 0.0
H2400 H 0.99117 0.52363 0.05904 0.0
H2401 H 0.98536 0.5211 0.09447 0.0
H2402 H 0.94988 0.47322 0.11317 0.0
C2403 C 0.91379 0.49478 0.17134 0.0
C2404 C 0.94798 0.5211 0.14224 0.0
C2405 C 0.90305 0.49669 0.1882 0.0
C2406 C 0.97883 0.51593 0.06415 0.0
C2407 C 0.97553 0.51445 0.08428 0.0
C2408 C 0.94954 0.48664 0.12121 0.0
C2409 C 0.931 0.50462 0.16956 0.0
C2410 C 0.94126 0.504 0.15078 0.0
C2411 C 0.95963 0.50447 0.09117 0.0
C2412 C 0.95524 0.50392 0.11229 0.0
H2413 H 0.932 0.52699 0.21397 0.0
H2414 H 0.95077 0.52375 0.18425 0.0
H2415 H 0.93787 0.47323 0.1467 0.0
H2416 H 0.94026 0.49138 0.04736 0.0
H2417 H 0.93466 0.48836 0.0826 0.0
C2418 C 0.7268 0.64779 0.43006 0.0
C2419 C 0.73999 0.64865 0.44536 0.0
C2420 C 0.73003 0.65772 0.41262 0.0
C2421 C 0.76851 0.67866 0.38309 0.0
H2422 H 0.72676 0.69846 0.35289 0.0
C2423 C 0.75612 0.72746 0.31223 0.0
C2424 C 0.74516 0.71695 0.29876 0.0
C2425 C 0.76286 0.71857 0.3292 0.0
C2426 C 0.73853 0.69297 0.36123 0.0
H2427 H 0.76635 0.66146 0.45501 0.0
H2428 H 0.77171 0.67942 0.42471 0.0
H2429 H 0.72136 0.68656 0.38594 0.0
H2430 H 0.73484 0.6887 0.2907 0.0
H2431 H 0.74681 0.67307 0.32023 0.0
H2432 H 0.78561 0.68554 0.35801 0.0
C2433 C 0.75918 0.67054 0.42592 0.0
C2434 C 0.73545 0.68608 0.38009 0.0
C2435 C 0.75606 0.66037 0.4433 0.0
C2436 C 0.74349 0.69698 0.30082 0.0
C2437 C 0.7503 0.68807 0.31771 0.0
C2438 C 0.77162 0.68578 0.36413 0.0
C2439 C 0.74639 0.66901 0.41023 0.0
C2440 C 0.75028 0.67839 0.3911 0.0
C2441 C 0.75863 0.69915 0.33267 0.0
C2442 C 0.75651 0.69254 0.35301 0.0
H2443 H 0.71435 0.63877 0.43119 0.0
H2444 H 0.72 0.65595 0.40076 0.0
H2445 H 0.78023 0.67275 0.39116 0.0
H2446 H 0.75726 0.74297 0.31103 0.0
H2447 H 0.76909 0.72738 0.34067 0.0
C2448 C 0.5991 0.48389 0.81169 0.0
C2449 C 0.59391 0.49919 0.79934 0.0
C2450 C 0.58878 0.47964 0.82858 0.0
C2451 C 0.54221 0.4849 0.85006 0.0
H2452 H 0.56706 0.48533 0.90081 0.0
C2453 C 0.50721 0.51295 0.91745 0.0
C2454 C 0.51192 0.50686 0.93646 0.0
C2455 C 0.5156 0.50492 0.90113 0.0
C2456 C 0.5599 0.48454 0.88678 0.0
H2457 H 0.57388 0.52207 0.79518 0.0
H2458 H 0.55578 0.51451 0.82455 0.0
H2459 H 0.5858 0.48584 0.87085 0.0
H2460 H 0.52804 0.48646 0.95329 0.0
H2461 H 0.54324 0.47224 0.9243 0.0
H2462 H 0.51635 0.48406 0.86578 0.0
C2463 C 0.56779 0.50576 0.82105 0.0
C2464 C 0.57065 0.485 0.86963 0.0
C2465 C 0.57823 0.51018 0.80431 0.0
C2466 C 0.52434 0.4915 0.93878 0.0
C2467 C 0.53302 0.48346 0.92223 0.0
C2468 C 0.53151 0.48413 0.86713 0.0
C2469 C 0.57292 0.49042 0.8333 0.0
C2470 C 0.56185 0.48616 0.85117 0.0
C2471 C 0.52904 0.49049 0.90324 0.0
C2472 C 0.54019 0.48507 0.88572 0.0
H2473 H 0.61113 0.47513 0.80829 0.0
H2474 H 0.59303 0.46776 0.8378 0.0
H2475 H 0.5351 0.48533 0.83598 0.0
H2476 H 0.49747 0.52459 0.91511 0.0
H2477 H 0.51233 0.51098 0.88691 0.0
C2478 C 0.76849 0.32693 0.0463 0.0
C2479 C 0.75338 0.33735 0.03863 0.0
C2480 C 0.76628 0.31613 0.06341 0.0
C2481 C 0.73666 0.31394 0.10713 0.0
H2482 H 0.759 0.26391 0.1151 0.0
C2483 C 0.72117 0.27278 0.17637 0.0
C2484 C 0.73718 0.26767 0.18712 0.0
C2485 C 0.72261 0.27731 0.15659 0.0
C2486 C 0.75273 0.27787 0.11301 0.0
H2487 H 0.72389 0.34396 0.04221 0.0
H2488 H 0.71996 0.32486 0.07178 0.0
H2489 H 0.76271 0.28032 0.08351 0.0
H2490 H 0.76685 0.26149 0.18554 0.0
H2491 H 0.7695 0.26985 0.15071 0.0
H2492 H 0.72679 0.31168 0.13652 0.0
C2493 C 0.73362 0.32537 0.06489 0.0
C2494 C 0.75489 0.28728 0.09503 0.0
C2495 C 0.73585 0.33622 0.0479 0.0
C2496 C 0.75434 0.26542 0.17745 0.0
C2497 C 0.75584 0.27017 0.15759 0.0
C2498 C 0.73443 0.30454 0.12496 0.0
C2499 C 0.74889 0.31551 0.07302 0.0
C2500 C 0.74678 0.30536 0.09192 0.0
C2501 C 0.74013 0.27704 0.14731 0.0
C2502 C 0.74232 0.28638 0.12803 0.0
H2503 H 0.78217 0.32759 0.03948 0.0
H2504 H 0.77833 0.30882 0.06946 0.0
H2505 H 0.73068 0.32808 0.10538 0.0
H2506 H 0.70772 0.27428 0.18353 0.0
H2507 H 0.71021 0.28212 0.14882 0.0
C2508 C 0.90382 0.51089 0.30248 0.0
C2509 C 0.90574 0.49429 0.29095 0.0
C2510 C 0.91122 0.51157 0.3214 0.0
C2511 C 0.94235 0.48682 0.35644 0.0
H2512 H 0.90536 0.50222 0.39486 0.0
C2513 C 0.95417 0.46751 0.43508 0.0
C2514 C 0.95571 0.48379 0.44709 0.0
C2515 C 0.94453 0.46855 0.41732 0.0
C2516 C 0.91578 0.49793 0.38427 0.0
H2517 H 0.91828 0.46611 0.28938 0.0
H2518 H 0.93104 0.46716 0.32261 0.0
H2519 H 0.89896 0.50678 0.35989 0.0
H2520 H 0.94655 0.51299 0.45151 0.0
H2521 H 0.92944 0.51481 0.42046 0.0
H2522 H 0.95906 0.47778 0.38074 0.0
C2523 C 0.92384 0.47966 0.31702 0.0
C2524 C 0.91226 0.5007 0.36431 0.0
C2525 C 0.91647 0.479 0.29803 0.0
C2526 C 0.94522 0.50017 0.44259 0.0
C2527 C 0.93564 0.50127 0.42471 0.0
C2528 C 0.94581 0.48398 0.37633 0.0
C2529 C 0.92063 0.49566 0.32912 0.0
C2530 C 0.92539 0.49485 0.35021 0.0
C2531 C 0.9365 0.48595 0.41135 0.0
C2532 C 0.9324 0.48912 0.39038 0.0
H2533 H 0.89596 0.52309 0.29718 0.0
H2534 H 0.90898 0.52426 0.33025 0.0
H2535 H 0.95285 0.48254 0.34592 0.0
H2536 H 0.96228 0.4548 0.43829 0.0
H2537 H 0.94496 0.45639 0.4074 0.0
C2538 C 0.72972 0.66176 0.5498 0.0
C2539 C 0.7439 0.64961 0.54309 0.0
C2540 C 0.73085 0.6698 0.56854 0.0
C2541 C 0.75384 0.66267 0.61683 0.0
H2542 H 0.73468 0.71363 0.6268 0.0
C2543 C 0.7602 0.7102 0.68847 0.0
C2544 C 0.74294 0.7179 0.69409 0.0
C2545 C 0.76128 0.69898 0.67143 0.0
C2546 C 0.74003 0.69935 0.62418 0.0
H2547 H 0.77082 0.63709 0.55031 0.0
H2548 H 0.77301 0.65152 0.58278 0.0
H2549 H 0.73547 0.70154 0.5933 0.0
H2550 H 0.71315 0.71875 0.68781 0.0
H2551 H 0.71502 0.6992 0.65818 0.0
H2552 H 0.75868 0.66086 0.64794 0.0
C2553 C 0.76075 0.65437 0.57385 0.0
C2554 C 0.7404 0.69238 0.60504 0.0
C2555 C 0.75953 0.64619 0.55519 0.0
C2556 C 0.72661 0.71295 0.68361 0.0
C2557 C 0.72767 0.70187 0.6667 0.0
C2558 C 0.75368 0.66979 0.63603 0.0
C2559 C 0.74629 0.66602 0.58087 0.0
C2560 C 0.74703 0.67384 0.60114 0.0
C2561 C 0.74511 0.69557 0.65998 0.0
C2562 C 0.74648 0.68805 0.63983 0.0
H2563 H 0.7175 0.66464 0.5408 0.0
H2564 H 0.71935 0.67854 0.57353 0.0
H2565 H 0.75883 0.64823 0.61438 0.0
H2566 H 0.77295 0.71404 0.69634 0.0
H2567 H 0.77486 0.69422 0.66642 0.0
C2568 C 0.68762 0.58718 0.48592 0.0
C2569 C 0.69621 0.58643 0.50452 0.0
C2570 C 0.66863 0.58242 0.48358 0.0
C2571 C 0.62931 0.55655 0.50769 0.0
H2572 H 0.59847 0.58628 0.47201 0.0
C2573 C 0.55028 0.54385 0.50271 0.0
C2574 C 0.5465 0.53385 0.48522 0.0
C2575 C 0.56681 0.55472 0.50467 0.0
C2576 C 0.60695 0.578 0.48209 0.0
H2577 H 0.69164 0.57963 0.53517 0.0
H2578 H 0.65852 0.57136 0.53112 0.0
H2579 H 0.63168 0.59496 0.47665 0.0
H2580 H 0.55561 0.52907 0.45543 0.0
H2581 H 0.58401 0.5491 0.45848 0.0
H2582 H 0.60453 0.53972 0.51319 0.0
C2583 C 0.66647 0.57556 0.51829 0.0
C2584 C 0.62596 0.58279 0.48462 0.0
C2585 C 0.68546 0.58037 0.52064 0.0
C2586 C 0.5582 0.53682 0.46897 0.0
C2587 C 0.57444 0.54817 0.47075 0.0
C2588 C 0.6103 0.55197 0.50536 0.0
C2589 C 0.65775 0.57672 0.49976 0.0
C2590 C 0.63742 0.57201 0.49735 0.0
C2591 C 0.57942 0.55619 0.48896 0.0
C2592 C 0.599 0.56258 0.4925 0.0
H2593 H 0.69549 0.59178 0.47316 0.0
H2594 H 0.66249 0.58314 0.46904 0.0
H2595 H 0.63774 0.54768 0.51727 0.0
H2596 H 0.54159 0.54153 0.51552 0.0
H2597 H 0.57043 0.56079 0.51885 0.0
C2598 C 0.17295 0.89689 0.49126 0.0
C2599 C 0.19109 0.90412 0.49499 0.0
C2600 C 0.15748 0.90897 0.49257 0.0
C2601 C 0.14298 0.95531 0.51381 0.0
H2602 H 0.10198 0.9503 0.47652 0.0
C2603 C 0.06867 0.98167 0.52702 0.0
C2604 C 0.05735 0.98622 0.5108 0.0
C2605 C 0.08734 0.97671 0.52435 0.0
C2606 C 0.11351 0.95219 0.48678 0.0
H2607 H 0.20736 0.9296 0.50276 0.0
H2608 H 0.18057 0.95066 0.50451 0.0
H2609 H 0.12925 0.92984 0.47332 0.0
H2610 H 0.05719 0.99175 0.47948 0.0
H2611 H 0.08999 0.98321 0.47484 0.0
H2612 H 0.12724 0.9777 0.52723 0.0
C2613 C 0.17815 0.93564 0.50107 0.0
C2614 C 0.12896 0.94019 0.48517 0.0
C2615 C 0.19352 0.92357 0.49998 0.0
C2616 C 0.06559 0.98814 0.49223 0.0
C2617 C 0.08429 0.98306 0.48953 0.0
C2618 C 0.12759 0.96739 0.51534 0.0
C2619 C 0.15997 0.9285 0.49744 0.0
C2620 C 0.14374 0.94147 0.49881 0.0
C2621 C 0.09496 0.97622 0.5054 0.0
C2622 C 0.11258 0.96575 0.50202 0.0
H2623 H 0.17069 0.88191 0.4875 0.0
H2624 H 0.14359 0.90298 0.48997 0.0
H2625 H 0.15406 0.95651 0.52468 0.0
H2626 H 0.06268 0.98038 0.54154 0.0
H2627 H 0.0952 0.97157 0.5369 0.0
C2628 C 0.33899 0.93517 0.72069 0.0
C2629 C 0.33644 0.9499 0.73445 0.0
C2630 C 0.33259 0.91657 0.72472 0.0
C2631 C 0.29971 0.88917 0.75494 0.0
H2632 H 0.33484 0.84738 0.74886 0.0
C2633 C 0.2759 0.81518 0.77563 0.0
C2634 C 0.27728 0.80243 0.75984 0.0
C2635 C 0.28738 0.83148 0.77639 0.0
C2636 C 0.32496 0.85894 0.75068 0.0
H2637 H 0.3242 0.95723 0.7625 0.0
H2638 H 0.31278 0.92484 0.76938 0.0
H2639 H 0.34438 0.88019 0.74 0.0
H2640 H 0.29243 0.79544 0.73343 0.0
H2641 H 0.31228 0.82417 0.73443 0.0
H2642 H 0.28009 0.86815 0.76504 0.0
C2643 C 0.3199 0.92757 0.75564 0.0
C2644 C 0.33033 0.87761 0.74547 0.0
C2645 C 0.32646 0.94606 0.75173 0.0
C2646 C 0.29146 0.805 0.74591 0.0
C2647 C 0.30277 0.82148 0.74649 0.0
C2648 C 0.29434 0.87059 0.76008 0.0
C2649 C 0.32333 0.91259 0.74242 0.0
C2650 C 0.31768 0.89281 0.74748 0.0
C2651 C 0.29994 0.83544 0.76104 0.0
C2652 C 0.30686 0.85527 0.75795 0.0
H2653 H 0.34666 0.9378 0.70726 0.0
H2654 H 0.33511 0.90525 0.71419 0.0
H2655 H 0.28966 0.90064 0.75641 0.0
H2656 H 0.26498 0.81331 0.78649 0.0
H2657 H 0.28526 0.84183 0.78802 0.0
C2658 C 0.31712 0.09375 0.96712 0.0
C2659 C 0.30352 0.0895 0.98138 0.0
C2660 C 0.33383 0.08346 0.96643 0.0
C2661 C 0.35636 0.03915 0.98563 0.0
H2662 H 0.4027 0.06833 0.9795 0.0
C2663 C 0.42292 0.021 0.0256 0.0
C2664 C 0.43981 0.01875 0.01533 0.0
C2665 C 0.40709 0.02806 0.01632 0.0
C2666 C 0.38988 0.05991 0.98071 0.0
H2667 H 0.29678 0.07129 0.0062 0.0
H2668 H 0.3261 0.05378 0.00548 0.0
H2669 H 0.37263 0.08385 0.97334 0.0
H2670 H 0.45355 0.02302 0.98738 0.0
H2671 H 0.42537 0.036 0.97094 0.0
H2672 H 0.37363 0.01568 -0.00557 0.0
C2673 C 0.32368 0.06458 -0.00564 0.0
C2674 C 0.37263 0.06877 0.97725 0.0
C2675 C 0.30689 0.0747 -0.00513 0.0
C2676 C 0.44064 0.02433 -0.00447 0.0
C2677 C 0.42462 0.03174 0.98619 0.0
C2678 C 0.37354 0.0304 0.98923 0.0
C2679 C 0.33739 0.06884 0.98015 0.0
C2680 C 0.35565 0.05868 0.98045 0.0
C2681 C 0.40766 0.0333 -0.00347 0.0
C2682 C 0.39039 0.04092 0.98753 0.0
H2683 H 0.31484 0.10506 0.95647 0.0
H2684 H 0.34398 0.08699 0.95519 0.0
H2685 H 0.3436 0.0308 0.98771 0.0
H2686 H 0.42173 0.01704 0.04092 0.0
H2687 H 0.39431 0.02956 0.02472 0.0
C2688 C 0.66572 0.55472 0.75015 0.0
C2689 C 0.65053 0.55089 0.73749 0.0
C2690 C 0.67571 0.57207 0.74882 0.0
C2691 C 0.67201 0.6221 0.73209 0.0
H2692 H 0.7258 0.62173 0.74081 0.0
C2693 C 0.71793 0.69148 0.74594 0.0
C2694 C 0.72734 0.68969 0.76402 0.0
C2695 C 0.70949 0.67521 0.7371 0.0
C2696 C 0.71081 0.62207 0.73806 0.0
H2697 H 0.63392 0.56229 0.71347 0.0
H2698 H 0.65152 0.59254 0.71109 0.0
H2699 H 0.70876 0.59141 0.73668 0.0
H2700 H 0.73557 0.66946 0.78672 0.0
H2701 H 0.72119 0.64175 0.77154 0.0
H2702 H 0.67408 0.65284 0.73449 0.0
C2703 C 0.65557 0.58218 0.72214 0.0
C2704 C 0.70103 0.60471 0.73589 0.0
C2705 C 0.64553 0.56483 0.7235 0.0
C2706 C 0.72847 0.67146 0.77279 0.0
C2707 C 0.72035 0.65543 0.76399 0.0
C2708 C 0.68184 0.63954 0.73432 0.0
C2709 C 0.67083 0.58597 0.73474 0.0
C2710 C 0.68142 0.60448 0.73372 0.0
C2711 C 0.71072 0.65703 0.74613 0.0
C2712 C 0.70121 0.6396 0.7382 0.0
H2713 H 0.6698 0.54439 0.76122 0.0
H2714 H 0.68713 0.57472 0.75905 0.0
H2715 H 0.65689 0.6224 0.73038 0.0
H2716 H 0.7168 0.70535 0.73887 0.0
H2717 H 0.70204 0.67681 0.72333 0.0
C2718 C 0.81318 0.40428 0.02732 0.0
C2719 C 0.79884 0.40814 0.01372 0.0
C2720 C 0.83161 0.41038 0.02362 0.0
C2721 C 0.8594 0.44387 0.9931 0.0
H2722 H 0.89929 0.4068 -0.00067 0.0
C2723 C 0.93021 0.4632 0.96401 0.0
C2724 C 0.94392 0.46341 0.97884 0.0
C2725 C 0.91405 0.45196 0.96609 0.0
C2726 C 0.88825 0.41723 -0.0025 0.0
H2727 H 0.79225 0.42234 0.98622 0.0
H2728 H 0.82415 0.43283 0.97979 0.0
H2729 H 0.86733 0.39846 0.00981 0.0
H2730 H 0.95297 0.4501 0.00596 0.0
H2731 H 0.92452 0.43064 0.0098 0.0
H2732 H 0.88007 0.46265 0.98088 0.0
C2733 C 0.82131 0.42515 0.9933 0.0
C2734 C 0.87005 0.41256 0.00366 0.0
C2735 C 0.80301 0.41905 -0.00305 0.0
C2736 C 0.94256 0.45017 -0.00567 0.0
C2737 C 0.92622 0.43907 -0.00344 0.0
C2738 C 0.87745 0.44846 0.98688 0.0
C2739 C 0.83587 0.42055 0.00636 0.0
C2740 C 0.85544 0.42582 0.00136 0.0
C2741 C 0.91129 0.44103 0.98319 0.0
C2742 C 0.89204 0.43515 0.98883 0.0
H2743 H 0.81035 0.39591 0.0404 0.0
H2744 H 0.84254 0.40691 0.03408 0.0
H2745 H 0.84852 0.45451 0.99148 0.0
H2746 H 0.93112 0.47315 0.9518 0.0
H2747 H 0.90294 0.45326 0.95527 0.0
C2748 C 0.34595 0.0734 0.75323 0.0
C2749 C 0.34324 0.05672 0.74199 0.0
C2750 C 0.3325 0.08776 0.75296 0.0
C2751 C 0.29613 0.10926 0.72396 0.0
H2752 H 0.27973 0.12929 0.77406 0.0
C2753 C 0.25694 0.18015 0.72793 0.0
C2754 C 0.2667 0.19291 0.74027 0.0
C2755 C 0.26015 0.16042 0.7294 0.0
C2756 C 0.284 0.12368 0.75997 0.0
H2757 H 0.32507 0.04234 0.72078 0.0
H2758 H 0.30175 0.06778 0.72003 0.0
H2759 H 0.29932 0.10073 0.77314 0.0
H2760 H 0.28619 0.19575 0.76453 0.0
H2761 H 0.29205 0.16148 0.76704 0.0
H2762 H 0.28202 0.13294 0.71081 0.0
C2763 C 0.31406 0.06949 0.72928 0.0
C2764 C 0.29523 0.10747 0.75946 0.0
C2765 C 0.32738 0.05502 0.72974 0.0
C2766 C 0.27874 0.18595 0.75479 0.0
C2767 C 0.28184 0.16635 0.75637 0.0
C2768 C 0.28504 0.12561 0.72447 0.0
C2769 C 0.31633 0.08571 0.74125 0.0
C2770 C 0.30199 0.10068 0.74151 0.0
C2771 C 0.27301 0.15344 0.74332 0.0
C2772 C 0.27964 0.13347 0.74254 0.0
H2773 H 0.3581 0.07508 0.76272 0.0
H2774 H 0.33467 0.10042 0.76198 0.0
H2775 H 0.30119 0.10415 0.70996 0.0
H2776 H 0.24742 0.18547 0.7168 0.0
H2777 H 0.25312 0.15072 0.71925 0.0
C2778 C 0.14681 0.92169 0.27084 0.0
C2779 C 0.15255 0.93665 0.25829 0.0
C2780 C 0.15758 0.90514 0.27284 0.0
C2781 C 0.20493 0.88552 0.26272 0.0
H2782 H 0.17854 0.83646 0.2616 0.0
C2783 C 0.23346 0.81909 0.22664 0.0
C2784 C 0.22901 0.80057 0.23348 0.0
C2785 C 0.22697 0.83527 0.23628 0.0
C2786 C 0.18617 0.84999 0.26249 0.0
H2787 H 0.17398 0.94593 0.23783 0.0
H2788 H 0.19251 0.91678 0.24079 0.0
H2789 H 0.16084 0.86601 0.26452 0.0
H2790 H 0.21544 0.78436 0.2566 0.0
H2791 H 0.20353 0.81303 0.27355 0.0
H2792 H 0.23018 0.86945 0.25958 0.0
C2793 C 0.17997 0.91806 0.24958 0.0
C2794 C 0.176 0.867 0.26406 0.0
C2795 C 0.16929 0.93472 0.24775 0.0
C2796 C 0.21893 0.79851 0.251 0.0
C2797 C 0.21212 0.81487 0.26061 0.0
C2798 C 0.21507 0.86853 0.26111 0.0
C2799 C 0.17425 0.90306 0.26217 0.0
C2800 C 0.18521 0.885 0.26343 0.0
C2801 C 0.21568 0.83339 0.25297 0.0
C2802 C 0.20573 0.85063 0.26016 0.0
H2803 H 0.13405 0.92282 0.2793 0.0
H2804 H 0.15286 0.89401 0.28282 0.0
H2805 H 0.21251 0.8991 0.26274 0.0
H2806 H 0.24141 0.82114 0.21328 0.0
H2807 H 0.2298 0.84923 0.22983 0.0
C2808 C 0.49898 0.3052 0.41002 0.0
C2809 C 0.48465 0.30101 0.39641 0.0
C2810 C 0.49906 0.32255 0.42043 0.0
C2811 C 0.469 0.36434 0.43379 0.0
H2812 H 0.51727 0.3887 0.44401 0.0
C2813 C 0.49199 0.44401 0.45843 0.0
C2814 C 0.50188 0.44332 0.47625 0.0
C2815 C 0.48543 0.42692 0.44963 0.0
C2816 C 0.50369 0.38203 0.4412 0.0
H2817 H 0.45906 0.31174 0.38319 0.0
H2818 H 0.4595 0.34211 0.40083 0.0
H2819 H 0.51592 0.35821 0.42649 0.0
H2820 H 0.51126 0.42477 0.49973 0.0
H2821 H 0.4998 0.39512 0.48449 0.0
H2822 H 0.45696 0.38875 0.44832 0.0
C2823 C 0.47047 0.33188 0.40387 0.0
C2824 C 0.5029 0.36445 0.43135 0.0
C2825 C 0.47029 0.31446 0.39363 0.0
C2826 C 0.5035 0.42567 0.48604 0.0
C2827 C 0.49704 0.40871 0.47732 0.0
C2828 C 0.46982 0.38212 0.44351 0.0
C2829 C 0.48493 0.33626 0.41732 0.0
C2830 C 0.48557 0.35521 0.42766 0.0
C2831 C 0.48878 0.4091 0.45864 0.0
C2832 C 0.48722 0.39097 0.44741 0.0
H2833 H 0.51016 0.29508 0.41264 0.0
H2834 H 0.51022 0.32517 0.43095 0.0
H2835 H 0.45541 0.3576 0.43142 0.0
H2836 H 0.49095 0.45738 0.45047 0.0
H2837 H 0.47921 0.42749 0.43512 0.0
C2838 C 0.44291 0.73925 0.17561 0.0
C2839 C 0.44057 0.74455 0.15584 0.0
C2840 C 0.42811 0.74109 0.18882 0.0
C2841 C 0.3863 0.76885 0.19705 0.0
H2842 H 0.36296 0.72353 0.21994 0.0
C2843 C 0.30856 0.76024 0.20212 0.0
C2844 C 0.29983 0.75184 0.21848 0.0
C2845 C 0.32797 0.76124 0.20091 0.0
C2846 C 0.36962 0.73643 0.21423 0.0
H2847 H 0.42092 0.75554 0.13428 0.0
H2848 H 0.39525 0.75904 0.15742 0.0
H2849 H 0.39409 0.72122 0.20508 0.0
H2850 H 0.30474 0.7379 0.24651 0.0
H2851 H 0.33912 0.73926 0.24405 0.0
H2852 H 0.36151 0.78385 0.20508 0.0
C2853 C 0.40853 0.75356 0.16267 0.0
C2854 C 0.38734 0.73507 0.20568 0.0
C2855 C 0.42316 0.75142 0.14943 0.0
C2856 C 0.31106 0.74441 0.23368 0.0
C2857 C 0.33067 0.74524 0.23235 0.0
C2858 C 0.36874 0.77024 0.20571 0.0
C2859 C 0.41096 0.74859 0.18246 0.0
C2860 C 0.39523 0.75104 0.19606 0.0
C2861 C 0.33923 0.7538 0.21597 0.0
C2862 C 0.35975 0.75376 0.21322 0.0
H2863 H 0.45618 0.73375 0.18086 0.0
H2864 H 0.43013 0.73701 0.20401 0.0
H2865 H 0.39234 0.78139 0.18994 0.0
H2866 H 0.30043 0.76613 0.19012 0.0
H2867 H 0.33419 0.76747 0.18787 0.0
C2868 C 0.00121 0.68556 0.89461 0.0
C2869 C 0.0024 0.70165 0.90709 0.0
C2870 C 0.00176 0.6669 0.90224 0.0
C2871 C -0.00551 0.63951 0.94827 0.0
H2872 H 0.02106 0.59929 0.92089 0.0
C2873 C -0.0019 0.56469 0.98166 0.0
C2874 C 0.99034 0.55059 0.96927 0.0
C2875 C 0.00423 0.5823 0.97397 0.0
C2876 C 0.01364 0.61041 0.92871 0.0
H2877 H 0.00493 0.71063 0.93744 0.0
H2878 H 0.00601 0.67815 0.95074 0.0
H2879 H 0.0212 0.63204 0.9077 0.0
H2880 H 0.98434 0.54295 0.93914 0.0
H2881 H -0.0044 0.57348 0.92554 0.0
H2882 H 0.98682 0.61792 0.96917 0.0
C2883 C 0.00451 0.67993 0.93503 0.0
C2884 C 0.01359 0.62914 0.9211 0.0
C2885 C 0.004 0.6986 0.9274 0.0
C2886 C 0.99063 0.55351 0.94892 0.0
C2887 C -0.00305 0.57105 0.94117 0.0
C2888 C -0.00531 0.62088 0.95593 0.0
C2889 C 0.00346 0.66382 0.92256 0.0
C2890 C 0.00392 0.64392 0.93075 0.0
C2891 C 0.00272 0.58604 0.95374 0.0
C2892 C 0.0042 0.60609 0.94624 0.0
H2893 H -9e-05 0.68736 0.87888 0.0
H2894 H 0.0006 0.65488 0.8922 0.0
H2895 H 0.98655 0.65036 0.95588 0.0
H2896 H -0.00232 0.56285 -0.00256 0.0
H2897 H 0.00887 0.5935 0.98398 0.0
C2898 C 0.05273 0.2466 0.65721 0.0
C2899 C 0.04734 0.23024 0.64641 0.0
C2900 C 0.07074 0.24816 0.66519 0.0
C2901 C 0.11876 0.22841 0.66158 0.0
H2902 H 0.12427 0.25148 0.71307 0.0
C2903 C 0.18518 0.22655 0.71261 0.0
C2904 C 0.18949 0.24399 0.72201 0.0
C2905 C 0.16929 0.22509 0.70047 0.0
C2906 C 0.12296 0.24517 0.69859 0.0
H2907 H 0.0566 0.20263 0.63558 0.0
H2908 H 0.08794 0.20513 0.64998 0.0
H2909 H 0.09317 0.24793 0.69863 0.0
H2910 H 0.18171 0.27373 0.72546 0.0
H2911 H 0.15408 0.27127 0.70419 0.0
H2912 H 0.14873 0.22522 0.66204 0.0
C2913 C 0.07835 0.21693 0.65194 0.0
C2914 C 0.10515 0.24318 0.69028 0.0
C2915 C 0.06034 0.21543 0.64383 0.0
C2916 C 0.17858 0.26019 0.71822 0.0
C2917 C 0.16278 0.25875 0.70619 0.0
C2918 C 0.13664 0.23022 0.67005 0.0
C2919 C 0.08377 0.23332 0.66272 0.0
C2920 C 0.10281 0.23494 0.67161 0.0
C2921 C 0.15757 0.24102 0.69784 0.0
C2922 C 0.13887 0.23881 0.68855 0.0
H2923 H 0.04311 0.25837 0.6593 0.0
H2924 H 0.07453 0.26114 0.67311 0.0
H2925 H 0.11747 0.22217 0.64708 0.0
H2926 H 0.19336 0.21384 0.71563 0.0
H2927 H 0.16549 0.21125 0.69423 0.0
C2928 C 0.50641 0.69737 0.06838 0.0
C2929 C 0.49278 0.70135 0.08254 0.0
C2930 C 0.50906 0.67853 0.06208 0.0
C2931 C 0.50125 0.62889 0.0795 0.0
H2932 H 0.51554 0.61558 0.02653 0.0
C2933 C 0.49701 0.55434 0.04261 0.0
C2934 C 0.51006 0.551 0.02772 0.0
C2935 C 0.4984 0.57112 0.05381 0.0
C2936 C 0.51194 0.61914 0.0415 0.0
H2937 H 0.47 0.68935 0.09974 0.0
H2938 H 0.47413 0.65654 0.08815 0.0
H2939 H 0.50839 0.64874 0.0343 0.0
H2940 H 0.53621 0.56045 0.01471 0.0
H2941 H 0.53894 0.58952 0.0346 0.0
H2942 H 0.5041 0.59895 0.08635 0.0
C2943 C 0.4833 0.66776 0.08257 0.0
C2944 C 0.50774 0.63813 0.04591 0.0
C2945 C 0.48081 0.68654 0.08904 0.0
C2946 C 0.5259 0.56299 0.02602 0.0
C2947 C 0.52741 0.57959 0.03732 0.0
C2948 C 0.50528 0.60979 0.07501 0.0
C2949 C 0.49796 0.66344 0.06965 0.0
C2950 C 0.50226 0.64321 0.06492 0.0
C2951 C 0.5129 0.58452 0.05015 0.0
C2952 C 0.51064 0.60478 0.05595 0.0
H2953 H 0.51584 0.70856 0.06317 0.0
H2954 H 0.52048 0.67569 0.05212 0.0
H2955 H 0.49742 0.63244 0.0944 0.0
H2956 H 0.48464 0.54525 0.04404 0.0
H2957 H 0.48707 0.57458 0.06369 0.0
C2958 C 0.07204 0.75851 0.85452 0.0
C2959 C 0.05575 0.7508 0.84575 0.0
C2960 C 0.08939 0.75698 0.84535 0.0
C2961 C 0.11585 0.72895 0.80939 0.0
H2962 H 0.14844 0.77396 0.8098 0.0
C2963 C 0.18307 0.74247 0.76271 0.0
C2964 C 0.19693 0.75426 0.77132 0.0
C2965 C 0.16719 0.737 0.77346 0.0
C2966 C 0.13967 0.76113 0.80989 0.0
H2967 H 0.04486 0.73547 0.82036 0.0
H2968 H 0.07544 0.73276 0.80422 0.0
H2969 H 0.11717 0.776 0.82349 0.0
H2970 H 0.20642 0.7678 0.79816 0.0
H2971 H 0.179 0.75788 0.81714 0.0
H2972 H 0.13851 0.71428 0.79526 0.0
C2973 C 0.07468 0.7399 0.81831 0.0
C2974 C 0.12169 0.76235 0.81764 0.0
C2975 C 0.05718 0.7416 0.82745 0.0
C2976 C 0.19591 0.75857 0.79133 0.0
C2977 C 0.18014 0.75307 0.80209 0.0
C2978 C 0.13396 0.72775 0.8015 0.0
C2979 C 0.09096 0.74761 0.82719 0.0
C2980 C 0.10963 0.74626 0.81771 0.0
C2981 C 0.16502 0.74348 0.79284 0.0
C2982 C 0.14613 0.74381 0.80192 0.0
H2983 H 0.07144 0.76572 0.86858 0.0
H2984 H 0.10168 0.76293 0.85266 0.0
H2985 H 0.10687 0.71629 0.80933 0.0
H2986 H 0.18355 0.73922 0.74718 0.0
H2987 H 0.15582 0.72952 0.76599 0.0
C2988 C 0.9876 0.29609 0.58189 0.0
C2989 C 0.00377 0.29302 0.59335 0.0
C2990 C 0.98572 0.31303 0.57116 0.0
C2991 C -0.00181 0.36239 0.57521 0.0
H2992 H 0.99011 0.36806 0.51917 0.0
C2993 C 0.00465 0.43566 0.54111 0.0
C2994 C 0.9901 0.44127 0.52862 0.0
C2995 C 0.00671 0.4164 0.5459 0.0
C2996 C -0.00782 0.36661 0.53485 0.0
H2997 H 0.03086 0.3048 0.6021 0.0
H2998 H 0.0273 0.33465 0.58371 0.0
H2999 H -0.00762 0.33572 0.5336 0.0
H3000 H 0.96705 0.43167 0.51017 0.0
H3001 H 0.9701 0.39765 0.51929 0.0
H3002 H -0.00233 0.39292 0.57684 0.0
C3003 C 0.01624 0.32384 0.58295 0.0
C3004 C -0.00651 0.34822 0.54303 0.0
C3005 C 0.01826 0.30682 0.59342 0.0
C3006 C 0.97824 0.42742 0.52001 0.0
C3007 C 0.98007 0.40807 0.52511 0.0
C3008 C -0.00329 0.38061 0.56714 0.0
C3009 C -0.00015 0.32716 0.57203 0.0
C3010 C -0.00304 0.34612 0.56319 0.0
C3011 C -0.00606 0.40255 0.53866 0.0
C3012 C -0.00579 0.38294 0.54685 0.0
H3013 H 0.9763 0.28555 0.58147 0.0
H3014 H 0.97295 0.31544 0.56287 0.0
H3015 H 0.00043 0.361 0.59088 0.0
H3016 H 0.01417 0.44624 0.54748 0.0
H3017 H 0.01789 0.41243 0.55589 0.0
C3018 C 0.44183 0.25487 0.3299 0.0
C3019 C 0.44593 0.23778 0.34002 0.0
C3020 C 0.42457 0.25706 0.32028 0.0
C3021 C 0.3762 0.23642 0.31912 0.0
H3022 H 0.37242 0.26158 0.26846 0.0
C3023 C 0.31255 0.22458 0.271 0.0
C3024 C 0.30123 0.24087 0.26916 0.0
C3025 C 0.33135 0.22645 0.2765 0.0
C3026 C 0.37332 0.25468 0.28267 0.0
H3027 H 0.43521 0.20949 0.34766 0.0
H3028 H 0.40546 0.21304 0.33052 0.0
H3029 H 0.40293 0.26017 0.28534 0.0
H3030 H 0.30098 0.27196 0.2703 0.0
H3031 H 0.33427 0.27526 0.27978 0.0
H3032 H 0.34682 0.23035 0.31613 0.0
C3033 C 0.41533 0.22499 0.33037 0.0
C3034 C 0.39073 0.2539 0.29239 0.0
C3035 C 0.43249 0.22287 0.34009 0.0
C3036 C 0.30951 0.25921 0.27124 0.0
C3037 C 0.32848 0.26109 0.27679 0.0
C3038 C 0.35898 0.23701 0.30935 0.0
C3039 C 0.41103 0.24217 0.32047 0.0
C3040 C 0.39244 0.24441 0.31059 0.0
C3041 C 0.33924 0.24463 0.28034 0.0
C3042 C 0.35743 0.24583 0.29091 0.0
H3043 H 0.45183 0.26672 0.32971 0.0
H3044 H 0.4217 0.27056 0.31302 0.0
H3045 H 0.37679 0.22952 0.33334 0.0
H3046 H 0.30649 0.2103 0.26948 0.0
H3047 H 0.33944 0.21357 0.279 0.0
C3048 C 0.41327 0.4739 0.29697 0.0
C3049 C 0.40155 0.48827 0.2894 0.0
C3050 C 0.42327 0.47696 0.31446 0.0
C3051 C 0.42121 0.50547 0.35949 0.0
H3052 H 0.47369 0.49276 0.36634 0.0
C3053 C 0.45882 0.52622 0.43021 0.0
C3054 C 0.46969 0.51194 0.43918 0.0
C3055 C 0.4532 0.52441 0.41068 0.0
C3056 C 0.459 0.49625 0.36468 0.0
H3057 H 0.39153 0.51728 0.29398 0.0
H3058 H 0.40888 0.52252 0.3243 0.0
H3059 H 0.45813 0.48657 0.33477 0.0
H3060 H 0.48464 0.48552 0.43415 0.0
H3061 H 0.47422 0.48188 0.40016 0.0
H3062 H 0.42173 0.51474 0.38928 0.0
C3063 C 0.4102 0.50884 0.31688 0.0
C3064 C 0.45011 0.49269 0.34664 0.0
C3065 C 0.4003 0.50583 0.29945 0.0
C3066 C 0.47605 0.49658 0.42773 0.0
C3067 C 0.47015 0.49458 0.40819 0.0
C3068 C 0.43001 0.50891 0.37746 0.0
C3069 C 0.42163 0.49439 0.3247 0.0
C3070 C 0.43116 0.49744 0.34385 0.0
C3071 C 0.45803 0.50811 0.39971 0.0
C3072 C 0.44906 0.50453 0.38027 0.0
H3073 H 0.41452 0.46021 0.28956 0.0
H3074 H 0.43188 0.46552 0.32023 0.0
H3075 H 0.40648 0.5089 0.35791 0.0
H3076 H 0.45405 0.5385 0.43851 0.0
H3077 H 0.44443 0.53546 0.4044 0.0
C3078 C 0.26093 0.65258 0.05381 0.0
C3079 C 0.24808 0.65781 0.03914 0.0
C3080 C 0.25888 0.65934 0.07288 0.0
C3081 C 0.23295 0.69342 0.10399 0.0
H3082 H 0.23695 0.65264 0.14269 0.0
C3083 C 0.20992 0.70891 0.18001 0.0
C3084 C 0.22553 0.70854 0.1926 0.0
C3085 C 0.20982 0.69802 0.1629 0.0
C3086 C 0.2357 0.66407 0.13199 0.0
H3087 H 0.22421 0.67563 0.03223 0.0
H3088 H 0.22035 0.68723 0.06567 0.0
H3089 H 0.24521 0.64634 0.10854 0.0
H3090 H 0.2517 0.69436 0.1992 0.0
H3091 H 0.25162 0.67533 0.16914 0.0
H3092 H 0.22339 0.71111 0.12737 0.0
C3093 C 0.23205 0.67796 0.0625 0.0
C3094 C 0.24064 0.6606 0.11253 0.0
C3095 C 0.23424 0.67134 0.04334 0.0
C3096 C 0.23952 0.69483 0.18964 0.0
C3097 C 0.2395 0.68401 0.17239 0.0
C3098 C 0.22786 0.69681 0.12335 0.0
C3099 C 0.24382 0.67128 0.07761 0.0
C3100 C 0.23937 0.67528 0.09836 0.0
C3101 C 0.22543 0.68683 0.1582 0.0
C3102 C 0.22914 0.68217 0.1375 0.0
H3103 H 0.27199 0.64246 0.05078 0.0
H3104 H 0.26855 0.6545 0.0841 0.0
H3105 H 0.23207 0.70506 0.0935 0.0
H3106 H 0.19887 0.71926 0.18223 0.0
H3107 H 0.19859 0.70001 0.15234 0.0
C3108 C 0.07819 0.51692 0.79799 0.0
C3109 C 0.08919 0.50196 0.79063 0.0
C3110 C 0.06785 0.51426 0.81514 0.0
C3111 C 0.06795 0.48534 0.85965 0.0
H3112 H 0.01631 0.50137 0.8655 0.0
C3113 C 0.02934 0.46789 0.92961 0.0
C3114 C 0.0207 0.48359 0.93856 0.0
C3115 C 0.03435 0.4688 0.90995 0.0
C3116 C 0.03074 0.49689 0.86403 0.0
H3117 H 0.09766 0.47237 0.79506 0.0
H3118 H 0.07962 0.46778 0.82483 0.0
H3119 H 0.03237 0.50642 0.83416 0.0
H3120 H 0.00921 0.51196 0.93388 0.0
H3121 H 0.01861 0.51385 0.89953 0.0
H3122 H 0.06667 0.47618 0.8894 0.0
C3123 C 0.07917 0.48161 0.81754 0.0
C3124 C 0.03991 0.49982 0.84619 0.0
C3125 C 0.08948 0.48426 0.80049 0.0
C3126 C 0.01592 0.49969 0.92725 0.0
C3127 C 0.02122 0.50073 0.9076 0.0
C3128 C 0.05886 0.48246 0.87738 0.0
C3129 C 0.06843 0.49662 0.82512 0.0
C3130 C 0.05856 0.49396 0.84388 0.0
C3131 C 0.03114 0.48558 0.89903 0.0
C3132 C 0.04015 0.48809 0.87974 0.0
H3133 H 0.0777 0.53071 0.79064 0.0
H3134 H 0.05979 0.5261 0.82084 0.0
H3135 H 0.08247 0.48108 0.85837 0.0
H3136 H 0.03279 0.45516 0.93798 0.0
H3137 H 0.04154 0.45672 0.90352 0.0
C3138 C 0.23594 0.35384 0.56783 0.0
C3139 C 0.23664 0.34287 0.55056 0.0
C3140 C 0.23454 0.34488 0.58608 0.0
C3141 C 0.24224 0.29829 0.61077 0.0
H3142 H 0.21342 0.32173 0.6524 0.0
C3143 C 0.2386 0.26225 0.68496 0.0
C3144 C 0.2473 0.27393 0.69916 0.0
C3145 C 0.23159 0.27039 0.66774 0.0
C3146 C 0.22137 0.31499 0.64084 0.0
H3147 H 0.2364 0.3139 0.53884 0.0
H3148 H 0.23351 0.29822 0.57067 0.0
H3149 H 0.21362 0.33625 0.61971 0.0
H3150 H 0.25404 0.30313 0.70769 0.0
H3151 H 0.24122 0.31752 0.67782 0.0
H3152 H 0.25003 0.27711 0.63191 0.0
C3153 C 0.23436 0.31376 0.57017 0.0
C3154 C 0.22166 0.32336 0.62218 0.0
C3155 C 0.23593 0.32274 0.5519 0.0
C3156 C 0.24701 0.29395 0.69704 0.0
C3157 C 0.23979 0.30214 0.67991 0.0
C3158 C 0.24172 0.28981 0.62929 0.0
C3159 C 0.23363 0.32474 0.58749 0.0
C3160 C 0.23233 0.31525 0.607 0.0
C3161 C 0.23316 0.2903 0.66462 0.0
C3162 C 0.23146 0.29818 0.64455 0.0
H3163 H 0.23665 0.36939 0.56731 0.0
H3164 H 0.23445 0.35378 0.5991 0.0
H3165 H 0.25092 0.29187 0.59961 0.0
H3166 H 0.239 0.24673 0.68624 0.0
H3167 H 0.22639 0.261 0.65621 0.0
C3168 C 0.39391 0.49102 0.18013 0.0
C3169 C 0.40263 0.50159 0.19526 0.0
C3170 C 0.40146 0.49092 0.16132 0.0
C3171 C 0.43181 0.5185 0.12794 0.0
H3172 H 0.43374 0.47023 0.0997 0.0
C3173 C 0.47631 0.50403 0.05893 0.0
C3174 C 0.47044 0.48904 0.04652 0.0
C3175 C 0.46514 0.50949 0.07475 0.0
C3176 C 0.4329 0.48394 0.10714 0.0
H3177 H 0.42637 0.52005 0.20261 0.0
H3178 H 0.43965 0.51986 0.16954 0.0
H3179 H 0.42179 0.4707 0.13292 0.0
H3180 H 0.44768 0.46947 0.03926 0.0
H3181 H 0.42769 0.47959 0.06627 0.0
H3182 H 0.44329 0.53165 0.10209 0.0
C3183 C 0.42682 0.51183 0.17229 0.0
C3184 C 0.42619 0.48416 0.12629 0.0
C3185 C 0.4193 0.51182 0.19124 0.0
C3186 C 0.45239 0.48117 0.04863 0.0
C3187 C 0.44111 0.48679 0.06425 0.0
C3188 C 0.43854 0.51829 0.10866 0.0
C3189 C 0.4179 0.50145 0.15713 0.0
C3190 C 0.42555 0.50141 0.13692 0.0
C3191 C 0.44798 0.49994 0.07832 0.0
C3192 C 0.43915 0.50098 0.09802 0.0
H3193 H 0.38111 0.48288 0.18274 0.0
H3194 H 0.3942 0.48288 0.14994 0.0
H3195 H 0.43131 0.53204 0.13573 0.0
H3196 H 0.49036 0.51002 0.05771 0.0
H3197 H 0.47087 0.51971 0.08523 0.0
C3198 C 0.22223 0.64393 0.93349 0.0
C3199 C 0.23777 0.64154 0.94594 0.0
C3200 C 0.22323 0.65669 0.91776 0.0
C3201 C 0.2491 0.6993 0.90019 0.0
H3202 H 0.22845 0.68436 0.84966 0.0
C3203 C 0.2674 0.73063 0.82431 0.0
C3204 C 0.25272 0.73185 0.81061 0.0
C3205 C 0.26373 0.72455 0.84341 0.0
C3206 C 0.2339 0.68888 0.86381 0.0
H3207 H 0.26669 0.65026 0.95149 0.0
H3208 H 0.26843 0.67243 0.92387 0.0
H3209 H 0.22673 0.66197 0.87703 0.0
H3210 H 0.22267 0.72946 0.80621 0.0
H3211 H 0.21627 0.71838 0.83956 0.0
H3212 H 0.257 0.72596 0.88651 0.0
C3213 C 0.25541 0.66466 0.92647 0.0
C3214 C 0.23299 0.67604 0.87944 0.0
C3215 C 0.25444 0.65186 0.94217 0.0
C3216 C 0.23415 0.72882 0.81667 0.0
C3217 C 0.23052 0.72235 0.83564 0.0
C3218 C 0.25014 0.71212 0.88446 0.0
C3219 C 0.23976 0.66731 0.91422 0.0
C3220 C 0.24062 0.68109 0.89776 0.0
C3221 C 0.24542 0.7192 0.84878 0.0
C3222 C 0.24255 0.70697 0.86616 0.0
H3223 H 0.20922 0.63614 0.93601 0.0
H3224 H 0.21092 0.65852 0.9086 0.0
H3225 H 0.25491 0.70363 0.91424 0.0
H3226 H 0.28182 0.73295 0.81982 0.0
H3227 H 0.27543 0.72222 0.85331 0.0
C3228 C 0.07774 0.51243 0.69427 0.0
C3229 C 0.07611 0.49425 0.70298 0.0
C3230 C 0.07163 0.51528 0.67512 0.0
C3231 C 0.04568 0.49319 0.63354 0.0
H3232 H 0.0817 0.52268 0.60283 0.0
C3233 C 0.04031 0.49494 0.55114 0.0
C3234 C 0.03097 0.51212 0.54694 0.0
C3235 C 0.05063 0.49327 0.56847 0.0
C3236 C 0.0717 0.51431 0.61128 0.0
H3237 H 0.06535 0.46522 0.69953 0.0
H3238 H 0.05489 0.47001 0.66571 0.0
H3239 H 0.08663 0.51884 0.63814 0.0
H3240 H 0.02727 0.54175 0.55556 0.0
H3241 H 0.0462 0.53909 0.58545 0.0
H3242 H 0.031 0.48844 0.60647 0.0
C3243 C 0.06078 0.48214 0.67367 0.0
C3244 C 0.07429 0.51232 0.63147 0.0
C3245 C 0.06669 0.47937 0.69302 0.0
C3246 C 0.03449 0.52843 0.55852 0.0
C3247 C 0.04522 0.52689 0.57561 0.0
C3248 C 0.04328 0.49493 0.61333 0.0
C3249 C 0.06406 0.49988 0.66425 0.0
C3250 C 0.06117 0.50193 0.64285 0.0
C3251 C 0.05209 0.50893 0.58133 0.0
C3252 C 0.05621 0.50557 0.60214 0.0
H3253 H 0.08475 0.52418 0.70189 0.0
H3254 H 0.0737 0.52929 0.66851 0.0
H3255 H 0.03524 0.4853 0.64188 0.0
H3256 H 0.03751 0.48209 0.54257 0.0
H3257 H 0.05582 0.4793 0.57276 0.0
C3258 C 0.26174 0.35467 0.43771 0.0
C3259 C 0.24899 0.353 0.45328 0.0
C3260 C 0.25791 0.34571 0.41977 0.0
C3261 C 0.23179 0.30653 0.39671 0.0
H3262 H 0.23431 0.33775 0.3496 0.0
C3263 C 0.21615 0.27158 0.32347 0.0
C3264 C 0.2297 0.27521 0.30908 0.0
C3265 C 0.21462 0.2838 0.33956 0.0
C3266 C 0.23361 0.32882 0.36259 0.0
H3267 H 0.22286 0.33972 0.46275 0.0
H3268 H 0.21644 0.32369 0.43152 0.0
H3269 H 0.24123 0.35229 0.38153 0.0
H3270 H 0.25116 0.29509 0.29905 0.0
H3271 H 0.24913 0.31611 0.3276 0.0
H3272 H 0.22501 0.28289 0.37803 0.0
C3273 C 0.22919 0.33221 0.4331 0.0
C3274 C 0.23761 0.33714 0.38083 0.0
C3275 C 0.23285 0.3414 0.45093 0.0
C3276 C 0.24057 0.29211 0.31003 0.0
C3277 C 0.23935 0.30413 0.32639 0.0
C3278 C 0.22802 0.29817 0.37852 0.0
C3279 C 0.24145 0.33467 0.41724 0.0
C3280 C 0.23689 0.326 0.398 0.0
C3281 C 0.22703 0.29951 0.34183 0.0
C3282 C 0.22902 0.30916 0.36119 0.0
H3283 H 0.27432 0.36345 0.43913 0.0
H3284 H 0.26773 0.34753 0.40782 0.0
H3285 H 0.23128 0.29762 0.40974 0.0
H3286 H 0.20745 0.25871 0.3228 0.0
H3287 H 0.20451 0.28023 0.35083 0.0
C3288 C 0.30073 0.4134 0.4987 0.0
C3289 C 0.29438 0.40579 0.5166 0.0
C3290 C 0.31956 0.41881 0.4964 0.0
C3291 C 0.36678 0.41176 0.51888 0.0
H3292 H 0.37994 0.45732 0.48902 0.0
C3293 C 0.4345 0.45891 0.52528 0.0
C3294 C 0.44303 0.46421 0.50757 0.0
C3295 C 0.41821 0.44749 0.52516 0.0
C3296 C 0.37646 0.44439 0.49715 0.0
H3297 H 0.30267 0.39845 0.5463 0.0
H3298 H 0.33524 0.40842 0.54251 0.0
H3299 H 0.34711 0.44737 0.49146 0.0
H3300 H 0.44195 0.46128 0.47599 0.0
H3301 H 0.41309 0.44176 0.47574 0.0
H3302 H 0.39621 0.40958 0.52541 0.0
C3303 C 0.32588 0.4097 0.53003 0.0
C3304 C 0.35766 0.43866 0.49854 0.0
C3305 C 0.30713 0.40417 0.53228 0.0
C3306 C 0.43579 0.45697 0.48984 0.0
C3307 C 0.41923 0.446 0.48967 0.0
C3308 C 0.38557 0.41771 0.51775 0.0
C3309 C 0.33242 0.41686 0.512 0.0
C3310 C 0.35254 0.42239 0.50962 0.0
C3311 C 0.40996 0.44178 0.5073 0.0
C3312 C 0.39052 0.43414 0.50699 0.0
H3313 H 0.29128 0.41471 0.48629 0.0
H3314 H 0.32409 0.42412 0.48225 0.0
H3315 H 0.36342 0.39891 0.52717 0.0
H3316 H 0.43966 0.46472 0.53906 0.0
H3317 H 0.4112 0.44451 0.53891 0.0
C3318 C 0.80626 0.07385 0.50951 0.0
C3319 C 0.80453 0.08928 0.4964 0.0
C3320 C 0.82195 0.06208 0.50879 0.0
C3321 C 0.87005 0.06045 0.48868 0.0
H3322 H 0.86448 0.00532 0.49614 0.0
C3323 C 0.92754 0.01293 0.46552 0.0
C3324 C 0.9381 0.00831 0.48226 0.0
C3325 C 0.90858 0.01709 0.46722 0.0
C3326 C 0.86609 0.02068 0.49406 0.0
H3327 H 0.8175 0.10464 0.47231 0.0
H3328 H 0.84443 0.08363 0.47034 0.0
H3329 H 0.83711 0.02614 0.49977 0.0
H3330 H 0.93686 0.00186 0.51332 0.0
H3331 H 0.90352 0.00959 0.51634 0.0
H3332 H 0.89879 0.05493 0.48236 0.0
C3333 C 0.83411 0.0809 0.48164 0.0
C3334 C 0.85057 0.03262 0.49627 0.0
C3335 C 0.81866 0.09289 0.48266 0.0
C3336 C 0.92895 0.00541 0.50023 0.0
C3337 C 0.90992 0.00976 0.50196 0.0
C3338 C 0.88535 0.04855 0.48618 0.0
C3339 C 0.83595 0.06535 0.4947 0.0
C3340 C 0.85239 0.05262 0.4934 0.0
C3341 C 0.90004 0.01679 0.48567 0.0
C3342 C 0.88343 0.02864 0.48866 0.0
H3343 H 0.79557 0.07101 0.5204 0.0
H3344 H 0.82313 0.05049 0.51931 0.0
H3345 H 0.8721 0.07579 0.4869 0.0
H3346 H 0.9343 0.01496 0.45146 0.0
H3347 H 0.9011 0.02248 0.45451 0.0
C3348 C 0.65786 0.05492 0.24709 0.0
C3349 C 0.65151 0.0475 0.22904 0.0
C3350 C 0.66316 0.0742 0.24874 0.0
C3351 C 0.65728 0.12116 0.22417 0.0
H3352 H 0.70163 0.13557 0.25414 0.0
C3353 C 0.71025 0.18546 0.21822 0.0
C3354 C 0.71213 0.19626 0.23547 0.0
C3355 C 0.69759 0.17005 0.21746 0.0
C3356 C 0.68902 0.1317 0.24603 0.0
H3357 H 0.64627 0.05427 0.19845 0.0
H3358 H 0.65594 0.08783 0.20124 0.0
H3359 H 0.69171 0.10192 0.2529 0.0
H3360 H 0.70174 0.20067 0.26488 0.0
H3361 H 0.68006 0.17304 0.26383 0.0
H3362 H 0.65547 0.15102 0.21642 0.0
C3363 C 0.6564 0.07885 0.21421 0.0
C3364 C 0.68334 0.1125 0.2453 0.0
C3365 C 0.65108 0.05958 0.21256 0.0
C3366 C 0.70019 0.19261 0.25135 0.0
C3367 C 0.68789 0.17687 0.25079 0.0
C3368 C 0.66315 0.14037 0.22469 0.0
C3369 C 0.66225 0.08643 0.23237 0.0
C3370 C 0.66756 0.10698 0.23414 0.0
C3371 C 0.68715 0.16508 0.23412 0.0
C3372 C 0.67914 0.14565 0.23549 0.0
H3373 H 0.65833 0.04596 0.26007 0.0
H3374 H 0.66754 0.07963 0.26295 0.0
H3375 H 0.64485 0.11736 0.21575 0.0
H3376 H 0.71957 0.18802 0.20596 0.0
H3377 H 0.69728 0.16092 0.20459 0.0
C3378 C 0.68107 0.92028 0.00461 0.0
C3379 C 0.68272 0.90073 -0.00026 0.0
C3380 C 0.66338 0.92879 0.00547 0.0
C3381 C 0.61533 0.92294 0.98681 0.0
H3382 H 0.60077 0.95461 0.03091 0.0
C3383 C 0.54151 0.94982 0.98861 0.0
C3384 C 0.54027 0.96974 0.99081 0.0
C3385 C 0.55747 0.94024 -0.00497 0.0
C3386 C 0.60467 0.9458 0.01852 0.0
H3387 H 0.66717 0.87491 0.99156 0.0
H3388 H 0.63651 0.88973 0.99296 0.0
H3389 H 0.6325 0.94128 0.02973 0.0
H3390 H 0.55377 -0.00473 0.00255 0.0
H3391 H 0.58209 0.97867 0.01329 0.0
H3392 H 0.58797 0.92767 0.97523 0.0
C3393 C 0.64882 0.89849 -0.00387 0.0
C3394 C 0.62282 0.93828 0.01779 0.0
C3395 C 0.66641 0.88999 -0.0046 0.0
C3396 C 0.5544 0.97978 0.00105 0.0
C3397 C 0.57061 0.97026 0.00714 0.0
C3398 C 0.59733 0.93044 0.9875 0.0
C3399 C 0.64709 0.91793 0.00128 0.0
C3400 C 0.62824 0.92668 0.00196 0.0
C3401 C 0.57278 0.95061 0.00298 0.0
C3402 C 0.59168 0.94183 0.00341 0.0
H3403 H 0.6934 0.92893 0.008 0.0
H3404 H 0.66244 0.94387 0.00924 0.0
H3405 H 0.61923 0.91439 0.97423 0.0
H3406 H 0.53086 0.94191 0.98043 0.0
H3407 H 0.55851 0.92498 0.99214 0.0
C3408 C 0.35185 0.42146 0.22916 0.0
C3409 C 0.34422 0.43774 0.23815 0.0
C3410 C 0.34418 0.40325 0.23253 0.0
C3411 C 0.31411 0.37562 0.26679 0.0
H3412 H 0.30885 0.34119 0.22238 0.0
C3413 C 0.26146 0.31301 0.25809 0.0
C3414 C 0.26645 0.29796 0.24559 0.0
C3415 C 0.27462 0.32728 0.26297 0.0
C3416 C 0.31066 0.3504 0.23507 0.0
H3417 H 0.32229 0.44773 0.25747 0.0
H3418 H 0.3086 0.41583 0.26307 0.0
H3419 H 0.32303 0.37266 0.21776 0.0
H3420 H 0.28918 0.28448 0.23012 0.0
H3421 H 0.31239 0.30926 0.23886 0.0
H3422 H 0.30075 0.35343 0.28383 0.0
C3423 C 0.3208 0.41717 0.25373 0.0
C3424 C 0.3187 0.36853 0.23239 0.0
C3425 C 0.32852 0.43545 0.25037 0.0
C3426 C 0.28517 0.29598 0.23992 0.0
C3427 C 0.29835 0.31021 0.2448 0.0
C3428 C 0.30589 0.35743 0.26946 0.0
C3429 C 0.32862 0.40086 0.24491 0.0
C3430 C 0.32042 0.38142 0.24815 0.0
C3431 C 0.2928 0.32669 0.2551 0.0
C3432 C 0.30398 0.3447 0.25356 0.0
H3433 H 0.36395 0.4227 0.21968 0.0
H3434 H 0.35065 0.39098 0.22565 0.0
H3435 H 0.31546 0.38516 0.27928 0.0
H3436 H 0.24697 0.31481 0.2624 0.0
H3437 H 0.26993 0.33978 0.27095 0.0
C3438 C 0.18234 0.59271 0.02991 0.0
C3439 C 0.19442 0.59132 0.01379 0.0
C3440 C 0.1636 0.58684 0.02828 0.0
C3441 C 0.1311 0.55748 -0.00233 0.0
H3442 H 0.09315 0.5863 0.02534 0.0
C3443 C 0.05219 0.54035 0.99096 0.0
C3444 C 0.04667 0.53105 0.0083 0.0
C3445 C 0.06861 0.5515 0.99065 0.0
C3446 C 0.10363 0.57829 0.01743 0.0
H3447 H 0.19641 0.58239 0.98337 0.0
H3448 H 0.16368 0.57248 0.98042 0.0
H3449 H 0.1259 0.59728 0.02632 0.0
H3450 H 0.05284 0.52709 0.03912 0.0
H3451 H 0.08102 0.54769 0.03886 0.0
H3452 H 0.10866 0.53863 0.98868 0.0
C3453 C 0.1687 0.57785 -0.00557 0.0
C3454 C 0.12238 0.58439 0.01814 0.0
C3455 C 0.18747 0.58359 -0.00389 0.0
C3456 C 0.05672 0.53446 0.02571 0.0
C3457 C 0.07282 0.54609 0.02552 0.0
C3458 C 0.11232 0.55161 -0.00331 0.0
C3459 C 0.15648 0.57958 0.01044 0.0
C3460 C 0.1364 0.57383 0.0086 0.0
C3461 C 0.07932 0.5539 0.00781 0.0
C3462 C 0.09854 0.5618 0.00682 0.0
H3463 H 0.1873 0.59852 0.04377 0.0
H3464 H 0.15471 0.58795 0.04105 0.0
H3465 H 0.14151 0.54884 0.99038 0.0
H3466 H 0.04482 0.53751 0.9773 0.0
H3467 H 0.07352 0.55732 0.97683 0.0
C3468 C 0.65947 0.93528 0.23113 0.0
C3469 C 0.64265 0.93737 0.2415 0.0
C3470 C 0.67064 0.9192 0.23425 0.0
C3471 C 0.66993 0.87088 0.25729 0.0
H3472 H 0.72376 0.87907 0.26197 0.0
C3473 C 0.71296 0.81265 0.28983 0.0
C3474 C 0.72451 0.80473 0.27537 0.0
C3475 C 0.70685 0.83149 0.28801 0.0
C3476 C 0.70873 0.87674 0.2608 0.0
H3477 H 0.62397 0.92422 0.26276 0.0
H3478 H 0.64362 0.89671 0.26877 0.0
H3479 H 0.7037 0.9056 0.25145 0.0
H3480 H 0.74121 0.81119 0.24954 0.0
H3481 H 0.73021 0.84403 0.24629 0.0
H3482 H 0.67485 0.84225 0.26701 0.0
C3483 C 0.64807 0.90705 0.25782 0.0
C3484 C 0.69729 0.89175 0.25455 0.0
C3485 C 0.6368 0.92288 0.25444 0.0
C3486 C 0.732 0.81678 0.26071 0.0
C3487 C 0.72583 0.83563 0.25889 0.0
C3488 C 0.68126 0.8561 0.26384 0.0
C3489 C 0.66525 0.90516 0.248 0.0
C3490 C 0.67772 0.889 0.25295 0.0
C3491 C 0.71223 0.84258 0.27175 0.0
C3492 C 0.70069 0.85896 0.26586 0.0
H3493 H 0.66415 0.94624 0.22092 0.0
H3494 H 0.6836 0.91793 0.22615 0.0
H3495 H 0.65501 0.8681 0.25569 0.0
H3496 H 0.70738 0.80387 0.3016 0.0
H3497 H 0.69659 0.83681 0.29829 0.0
C3498 C 0.8315 0.058 0.72876 0.0
C3499 C 0.8453 0.05406 0.74298 0.0
C3500 C 0.82312 0.07613 0.72805 0.0
C3501 C 0.81064 0.11498 0.76027 0.0
H3502 H 0.80984 0.14905 0.71518 0.0
C3503 C 0.78525 0.18974 0.77149 0.0
C3504 C 0.76991 0.19449 0.75963 0.0
C3505 C 0.79742 0.17527 0.76577 0.0
C3506 C 0.80995 0.13962 0.72782 0.0
H3507 H 0.86111 0.06577 0.76754 0.0
H3508 H 0.84604 0.09701 0.76674 0.0
H3509 H 0.82385 0.11691 0.71233 0.0
H3510 H 0.75603 0.18937 0.73182 0.0
H3511 H 0.77717 0.16363 0.72184 0.0
H3512 H 0.79668 0.13714 0.7758 0.0
C3513 C 0.84193 0.08629 0.75598 0.0
C3514 C 0.81783 0.12128 0.72617 0.0
C3515 C 0.85054 0.06843 0.75642 0.0
C3516 C 0.76798 0.18605 0.74103 0.0
C3517 C 0.78003 0.17128 0.73538 0.0
C3518 C 0.8028 0.1331 0.7619 0.0
C3519 C 0.82814 0.09031 0.74184 0.0
C3520 C 0.81848 0.10899 0.74253 0.0
C3521 C 0.79407 0.16495 0.74835 0.0
C3522 C 0.80267 0.1458 0.74586 0.0
H3523 H 0.82738 0.04718 0.71811 0.0
H3524 H 0.81244 0.07893 0.71708 0.0
H3525 H 0.81066 0.10562 0.77297 0.0
H3526 H 0.78696 0.19614 0.78589 0.0
H3527 H 0.80844 0.171 0.77581 0.0
loop_
_geom_bond_atom_site_label_1
_geom_bond_atom_site_label_2
_geom_bond_distance
_geom_bond_site_symmetry_2
_ccdc_geom_bond_type
C0 O1 1.160 . S
C0 O7 1.185 . S
O1 C0 1.160 . S
O2 Zn3 1.900 . S
O2 C10 1.284 1_655 S
Zn3 O2 1.900 . S
Zn3 O4 2.034 . S
Zn3 O7 2.093 . S
Zn3 O12 1.970 1_655 S
O4 Zn3 2.034 . S
O4 C8 1.278 1_655 S
C5 O6 1.203 . S
C5 O12 1.267 . S
O6 C5 1.203 . S
O7 C0 1.185 . S
O7 Zn3 2.093 . S
C8 O4 1.278 1_455 S
C8 O9 1.211 . S
O9 C8 1.211 . S
C10 O2 1.284 1_455 S
C10 O11 1.273 . S
O11 C10 1.273 . S
O12 Zn3 1.970 1_455 S
O12 C5 1.267 . S
C13 O14 1.160 . S
C13 O20 1.185 . S
O14 C13 1.160 . S
O15 Zn16 1.899 . S
O15 C23 1.284 . S
Zn16 O15 1.899 . S
Zn16 O17 2.032 . S
Zn16 O20 2.086 . S
Zn16 O25 1.977 1_455 S
O17 Zn16 2.032 . S
O17 C21 1.278 . S
C18 O19 1.203 . S
C18 O25 1.267 . S
O19 C18 1.203 . S
O20 C13 1.185 . S
O20 Zn16 2.086 . S
C21 O17 1.278 . S
C21 O22 1.211 1_455 S
O22 C21 1.211 1_655 S
C23 O15 1.284 . S
C23 O24 1.273 1_455 S
O24 C23 1.273 1_655 S
O25 Zn16 1.977 1_655 S
O25 C18 1.267 . S
C26 O27 1.160 . S
C26 O33 1.185 . S
O27 C26 1.160 . S
O28 Zn29 1.899 . S
O28 C36 1.284 . S
Zn29 O28 1.899 . S
Zn29 O30 2.032 . S
Zn29 O33 2.086 . S
Zn29 O38 1.977 . S
O30 Zn29 2.032 . S
O30 C34 1.278 . S
C31 O32 1.203 . S
C31 O38 1.267 . S
O32 C31 1.203 . S
O33 C26 1.185 . S
O33 Zn29 2.086 . S
C34 O30 1.278 . S
C34 O35 1.211 . S
O35 C34 1.211 . S
C36 O28 1.284 . S
C36 O37 1.273 . S
O37 C36 1.273 . S
O38 Zn29 1.977 . S
O38 C31 1.267 . S
C39 O40 1.160 . S
C39 O46 1.185 . S
O40 C39 1.160 . S
O41 Zn42 1.899 . S
O41 C49 1.284 . S
Zn42 O41 1.899 . S
Zn42 O43 2.032 . S
Zn42 O46 2.086 . S
Zn42 O51 1.977 . S
O43 Zn42 2.032 . S
O43 C47 1.278 . S
C44 O45 1.203 . S
C44 O51 1.267 . S
O45 C44 1.203 . S
O46 C39 1.185 . S
O46 Zn42 2.086 . S
C47 O43 1.278 . S
C47 O48 1.211 . S
O48 C47 1.211 . S
C49 O41 1.284 . S
C49 O50 1.273 . S
O50 C49 1.273 . S
O51 Zn42 1.977 . S
O51 C44 1.267 . S
C52 O53 1.160 . S
C52 O59 1.185 . S
O53 C52 1.160 . S
O54 Zn55 1.899 . S
O54 C62 1.274 1_565 S
Zn55 O54 1.899 . S
Zn55 O56 2.031 . S
Zn55 O59 2.085 . S
Zn55 O64 1.979 1_565 S
O56 Zn55 2.031 . S
O56 C60 1.278 1_565 S
C57 O58 1.203 . S
C57 O64 1.267 . S
O58 C57 1.203 . S
O59 C52 1.185 . S
O59 Zn55 2.085 . S
C60 O56 1.278 1_545 S
C60 O61 1.211 . S
O61 C60 1.211 . S
C62 O54 1.274 1_545 S
C62 O63 1.273 . S
O63 C62 1.273 . S
O64 Zn55 1.979 1_545 S
O64 C57 1.267 . S
C65 O66 1.160 . S
C65 O72 1.185 . S
O66 C65 1.160 . S
O67 Zn68 1.899 . S
O67 C75 1.284 . S
Zn68 O67 1.899 . S
Zn68 O69 2.032 . S
Zn68 O72 2.086 . S
Zn68 O77 1.977 . S
O69 Zn68 2.032 . S
O69 C73 1.278 . S
C70 O71 1.203 . S
C70 O77 1.267 . S
O71 C70 1.203 . S
O72 C65 1.185 . S
O72 Zn68 2.086 . S
C73 O69 1.278 . S
C73 O74 1.211 . S
O74 C73 1.211 . S
C75 O67 1.284 . S
C75 O76 1.273 . S
O76 C75 1.273 . S
O77 Zn68 1.977 . S
O77 C70 1.267 . S
C78 O79 1.160 . S
C78 O85 1.185 . S
O79 C78 1.160 . S
O80 Zn81 1.899 . S
O80 C88 1.284 . S
Zn81 O80 1.899 . S
Zn81 O82 2.032 . S
Zn81 O85 2.086 . S
Zn81 O90 1.977 1_545 S
O82 Zn81 2.032 . S
O82 C86 1.278 . S
C83 O84 1.203 . S
C83 O90 1.267 . S
O84 C83 1.203 . S
O85 C78 1.185 . S
O85 Zn81 2.086 . S
C86 O82 1.278 . S
C86 O87 1.211 1_545 S
O87 C86 1.211 1_565 S
C88 O80 1.284 . S
C88 O89 1.273 1_545 S
O89 C88 1.273 1_565 S
O90 Zn81 1.977 1_565 S
O90 C83 1.267 . S
C91 O92 1.160 . S
C91 O98 1.185 . S
O92 C91 1.160 . S
O93 Zn94 1.899 . S
O93 C101 1.284 . S
Zn94 O93 1.899 . S
Zn94 O95 2.032 1_554 S
Zn94 O98 2.086 . S
Zn94 O103 1.977 . S
O95 Zn94 2.032 1_556 S
O95 C99 1.278 . S
C96 O97 1.203 . S
C96 O103 1.267 . S
O97 C96 1.203 . S
O98 C91 1.185 . S
O98 Zn94 2.086 . S
C99 O95 1.278 . S
C99 O100 1.211 . S
O100 C99 1.211 . S
C101 O93 1.284 . S
C101 O102 1.273 . S
O102 C101 1.273 . S
O103 Zn94 1.977 . S
O103 C96 1.267 . S
C104 O105 1.160 . S
C104 O111 1.203 . S
O105 C104 1.160 . S
O106 Zn107 1.899 . S
O106 C114 1.284 . S
Zn107 O106 1.899 . S
Zn107 O108 2.032 1_554 S
Zn107 O111 2.096 . S
Zn107 O116 1.977 . S
O108 Zn107 2.032 1_556 S
O108 C112 1.278 . S
C109 O110 1.203 . S
C109 O116 1.267 . S
O110 C109 1.203 . S
O111 C104 1.203 . S
O111 Zn107 2.096 . S
C112 O108 1.278 . S
C112 O113 1.211 . S
O113 C112 1.211 . S
C114 O106 1.284 . S
C114 O115 1.273 . S
O115 C114 1.273 . S
O116 Zn107 1.977 . S
O116 C109 1.267 . S
C117 O118 1.160 . S
C117 O124 1.185 . S
O118 C117 1.160 . S
O119 Zn120 1.899 . S
O119 C127 1.284 . S
Zn120 O119 1.899 . S
Zn120 O121 2.032 . S
Zn120 O124 2.086 . S
Zn120 O129 1.977 . S
O121 Zn120 2.032 . S
O121 C125 1.278 . S
C122 O123 1.203 . S
C122 O129 1.267 . S
O123 C122 1.203 . S
O124 C117 1.185 . S
O124 Zn120 2.086 . S
C125 O121 1.278 . S
C125 O126 1.211 . S
O126 C125 1.211 . S
C127 O119 1.284 . S
C127 O128 1.273 . S
O128 C127 1.273 . S
O129 Zn120 1.977 . S
O129 C122 1.267 . S
C130 O131 1.160 . S
C130 O137 1.185 . S
O131 C130 1.160 . S
O132 Zn133 1.899 . S
O132 C140 1.284 . S
Zn133 O132 1.899 . S
Zn133 O134 2.032 . S
Zn133 O137 2.086 . S
Zn133 O142 1.977 . S
O134 Zn133 2.032 . S
O134 C138 1.278 . S
C135 O136 1.203 . S
C135 O142 1.267 . S
O136 C135 1.203 . S
O137 C130 1.185 . S
O137 Zn133 2.086 . S
C138 O134 1.278 . S
C138 O139 1.211 . S
O139 C138 1.211 . S
C140 O132 1.284 . S
C140 O141 1.273 . S
O141 C140 1.273 . S
O142 Zn133 1.977 . S
O142 C135 1.267 . S
C143 O144 1.160 . S
C143 O150 1.185 . S
O144 C143 1.160 . S
O145 Zn146 1.899 . S
O145 C153 1.284 . S
Zn146 O145 1.899 . S
Zn146 O147 2.032 . S
Zn146 O150 2.086 . S
Zn146 O155 1.977 . S
O147 Zn146 2.032 . S
O147 C151 1.278 . S
C148 O149 1.203 . S
C148 O155 1.267 . S
O149 C148 1.203 . S
O150 C143 1.185 . S
O150 Zn146 2.086 . S
C151 O147 1.278 . S
C151 O152 1.211 . S
O152 C151 1.211 . S
C153 O145 1.284 . S
C153 O154 1.273 . S
O154 C153 1.273 . S
O155 Zn146 1.977 . S
O155 C148 1.267 . S
C156 O157 1.160 . S
C156 O163 1.185 . S
O157 C156 1.160 . S
O158 Zn159 1.899 . S
O158 C166 1.284 . S
Zn159 O158 1.899 . S
Zn159 O160 2.032 . S
Zn159 O163 2.086 . S
Zn159 O168 1.977 1_455 S
O160 Zn159 2.032 . S
O160 C164 1.278 . S
C161 O162 1.203 . S
C161 O168 1.267 . S
O162 C161 1.203 . S
O163 C156 1.185 . S
O163 Zn159 2.086 . S
C164 O160 1.278 . S
C164 O165 1.211 1_455 S
O165 C164 1.211 1_655 S
C166 O158 1.284 . S
C166 O167 1.273 1_455 S
O167 C166 1.273 1_655 S
O168 Zn159 1.977 1_655 S
O168 C161 1.267 . S
C169 O170 1.160 . S
C169 O176 1.185 . S
O170 C169 1.160 . S
O171 Zn172 1.900 . S
O171 C179 1.294 . S
Zn172 O171 1.900 . S
Zn172 O173 2.032 1_455 S
Zn172 O176 2.086 1_455 S
Zn172 O181 1.977 . S
O173 Zn172 2.032 1_655 S
O173 C177 1.278 1_655 S
C174 O175 1.203 . S
C174 O181 1.267 . S
O175 C174 1.203 . S
O176 C169 1.185 . S
O176 Zn172 2.086 1_655 S
C177 O173 1.278 1_455 S
C177 O178 1.211 . S
O178 C177 1.211 . S
C179 O171 1.294 . S
C179 O180 1.273 . S
O180 C179 1.273 . S
O181 Zn172 1.977 . S
O181 C174 1.267 . S
C182 O183 1.160 . S
C182 O189 1.185 . S
O183 C182 1.160 . S
O184 Zn185 1.899 . S
O184 C192 1.284 . S
Zn185 O184 1.899 . S
Zn185 O186 2.032 . S
Zn185 O189 2.086 . S
Zn185 O194 1.977 . S
O186 Zn185 2.032 . S
O186 C190 1.278 . S
C187 O188 1.203 . S
C187 O194 1.267 . S
O188 C187 1.203 . S
O189 C182 1.185 . S
O189 Zn185 2.086 . S
C190 O186 1.278 . S
C190 O191 1.211 . S
O191 C190 1.211 . S
C192 O184 1.284 . S
C192 O193 1.273 . S
O193 C192 1.273 . S
O194 Zn185 1.977 . S
O194 C187 1.267 . S
C195 O196 1.160 . S
C195 O202 1.185 . S
O196 C195 1.160 . S
O197 Zn198 1.899 . S
O197 C205 1.284 . S
Zn198 O197 1.899 . S
Zn198 O199 2.032 . S
Zn198 O202 2.086 . S
Zn198 O207 1.977 . S
O199 Zn198 2.032 . S
O199 C203 1.278 . S
C200 O201 1.203 . S
C200 O207 1.267 . S
O201 C200 1.203 . S
O202 C195 1.185 . S
O202 Zn198 2.086 . S
C203 O199 1.278 . S
C203 O204 1.211 . S
O204 C203 1.211 . S
C205 O197 1.284 . S
C205 O206 1.273 . S
O206 C205 1.273 . S
O207 Zn198 1.977 . S
O207 C200 1.267 . S
C208 O209 1.160 . S
C208 O215 1.185 . S
O209 C208 1.160 . S
O210 Zn211 1.899 . S
O210 C218 1.283 . S
Zn211 O210 1.899 . S
Zn211 O212 2.032 . S
Zn211 O215 2.086 . S
Zn211 O220 1.977 1_545 S
O212 Zn211 2.032 . S
O212 C216 1.278 1_545 S
C213 O214 1.203 . S
C213 O220 1.267 . S
O214 C213 1.203 . S
O215 C208 1.185 . S
O215 Zn211 2.086 . S
C216 O212 1.278 1_565 S
C216 O217 1.211 . S
O217 C216 1.211 . S
C218 O210 1.283 . S
C218 O219 1.274 1_545 S
O219 C218 1.274 1_565 S
O220 Zn211 1.977 1_565 S
O220 C213 1.267 . S
C221 O222 1.160 . S
C221 O228 1.185 . S
O222 C221 1.160 . S
O223 Zn224 1.899 . S
O223 C231 1.284 . S
Zn224 O223 1.899 . S
Zn224 O225 2.032 . S
Zn224 O228 2.086 . S
Zn224 O233 1.977 . S
O225 Zn224 2.032 . S
O225 C229 1.278 . S
C226 O227 1.203 . S
C226 O233 1.267 . S
O227 C226 1.203 . S
O228 C221 1.185 . S
O228 Zn224 2.086 . S
C229 O225 1.278 . S
C229 O230 1.211 . S
O230 C229 1.211 . S
C231 O223 1.284 . S
C231 O232 1.273 . S
O232 C231 1.273 . S
O233 Zn224 1.977 . S
O233 C226 1.267 . S
C234 O235 1.160 . S
C234 O241 1.185 . S
O235 C234 1.160 . S
O236 Zn237 1.899 . S
O236 C244 1.284 . S
Zn237 O236 1.899 . S
Zn237 O238 2.032 1_545 S
Zn237 O241 2.086 1_545 S
Zn237 O246 1.977 . S
O238 Zn237 2.032 1_565 S
O238 C242 1.278 1_565 S
C239 O240 1.203 . S
C239 O246 1.267 . S
O240 C239 1.203 . S
O241 C234 1.185 . S
O241 Zn237 2.086 1_565 S
C242 O238 1.278 1_545 S
C242 O243 1.211 . S
O243 C242 1.211 . S
C244 O236 1.284 . S
C244 O245 1.273 . S
O245 C244 1.273 . S
O246 Zn237 1.977 . S
O246 C239 1.267 . S
C247 O248 1.160 . S
C247 O254 1.185 . S
O248 C247 1.160 . S
O249 Zn250 1.899 . S
O249 C257 1.284 . S
Zn250 O249 1.899 . S
Zn250 O251 2.032 1_554 S
Zn250 O254 2.086 . S
Zn250 O259 1.977 . S
O251 Zn250 2.032 1_556 S
O251 C255 1.278 . S
C252 O253 1.203 . S
C252 O259 1.267 . S
O253 C252 1.203 . S
O254 C247 1.185 . S
O254 Zn250 2.086 . S
C255 O251 1.278 . S
C255 O256 1.211 . S
O256 C255 1.211 . S
C257 O249 1.284 . S
C257 O258 1.273 . S
O258 C257 1.273 . S
O259 Zn250 1.977 . S
O259 C252 1.267 . S
C260 O261 1.160 . S
C260 O267 1.185 1_554 S
O261 C260 1.160 . S
O262 Zn263 1.899 . S
O262 C270 1.284 . S
Zn263 O262 1.899 . S
Zn263 O264 2.032 1_554 S
Zn263 O267 2.086 1_554 S
Zn263 O272 1.977 1_554 S
O264 Zn263 2.032 1_556 S
O264 C268 1.278 . S
C265 O266 1.203 . S
C265 O272 1.267 1_554 S
O266 C265 1.203 . S
O267 C260 1.185 1_556 S
O267 Zn263 2.086 1_556 S
C268 O264 1.278 . S
C268 O269 1.211 . S
O269 C268 1.211 . S
C270 O262 1.284 . S
C270 O271 1.273 . S
O271 C270 1.273 . S
O272 Zn263 1.977 1_556 S
O272 C265 1.267 1_556 S
C273 O274 1.160 . S
C273 O280 1.185 . S
O274 C273 1.160 . S
O275 Zn276 1.899 . S
O275 C283 1.284 . S
Zn276 O275 1.899 . S
Zn276 O277 2.032 . S
Zn276 O280 2.086 . S
Zn276 O285 1.977 . S
O277 Zn276 2.032 . S
O277 C281 1.278 . S
C278 O279 1.203 . S
C278 O285 1.267 . S
O279 C278 1.203 . S
O280 C273 1.185 . S
O280 Zn276 2.086 . S
C281 O277 1.278 . S
C281 O282 1.211 . S
O282 C281 1.211 . S
C283 O275 1.284 . S
C283 O284 1.273 . S
O284 C283 1.273 . S
O285 Zn276 1.977 . S
O285 C278 1.267 . S
C286 O287 1.160 . S
C286 O293 1.185 . S
O287 C286 1.160 . S
O288 Zn289 1.899 . S
O288 C296 1.284 . S
Zn289 O288 1.899 . S
Zn289 O290 2.032 . S
Zn289 O293 2.086 . S
Zn289 O298 1.977 . S
O290 Zn289 2.032 . S
O290 C294 1.278 . S
C291 O292 1.203 . S
C291 O298 1.267 . S
O292 C291 1.203 . S
O293 C286 1.185 . S
O293 Zn289 2.086 . S
C294 O290 1.278 . S
C294 O295 1.211 . S
O295 C294 1.211 . S
C296 O288 1.284 . S
C296 O297 1.273 . S
O297 C296 1.273 . S
O298 Zn289 1.977 . S
O298 C291 1.267 . S
C299 O300 1.160 . S
C299 O306 1.185 . S
O300 C299 1.160 . S
O301 Zn302 1.899 . S
O301 C309 1.284 . S
Zn302 O301 1.899 . S
Zn302 O303 2.032 . S
Zn302 O306 2.086 . S
Zn302 O311 1.977 . S
O303 Zn302 2.032 . S
O303 C307 1.278 . S
C304 O305 1.203 . S
C304 O311 1.267 . S
O305 C304 1.203 . S
O306 C299 1.185 . S
O306 Zn302 2.086 . S
C307 O303 1.278 . S
C307 O308 1.211 . S
O308 C307 1.211 . S
C309 O301 1.284 . S
C309 O310 1.273 . S
O310 C309 1.273 . S
O311 Zn302 1.977 . S
O311 C304 1.267 . S
O312 Mn313 2.163 . S
O312 C326 1.238 1_554 S
Mn313 O312 2.163 . S
Mn313 O316 2.160 1_445 S
Mn313 O317 2.221 1_455 S
Mn313 O319 2.163 1_454 S
Mn313 O321 2.153 1_545 S
Mn313 O331 2.229 1_545 S
O314 Mn315 2.062 1_546 S
O314 C326 1.287 . S
Mn315 O314 2.062 1_564 S
Mn315 O322 2.089 . S
Mn315 O331 2.303 . S
Mn315 O332 2.251 1_554 S
O316 Mn313 2.160 1_665 S
O316 C327 1.239 . S
O317 Mn313 2.221 1_655 S
O317 Mn318 2.290 1_554 S
O317 C328 1.278 . S
Mn318 O317 2.290 1_556 S
Mn318 O320 2.089 1_556 S
Mn318 O323 2.251 1_556 S
Mn318 O324 2.087 . S
O319 Mn313 2.163 1_656 S
O319 C329 1.244 . S
O320 Mn318 2.089 1_554 S
O320 C327 1.256 1_545 S
O321 Mn313 2.153 1_565 S
O321 C330 1.252 . S
O322 Mn315 2.089 . S
O322 C330 1.256 . S
O323 Mn318 2.251 1_554 S
O323 C328 1.241 . S
O324 Mn318 2.087 . S
O324 C329 1.256 . S
C325 O331 1.250 1_556 S
C325 O332 1.241 . S
C326 O312 1.238 1_556 S
C326 O314 1.287 . S
C327 O316 1.239 . S
C327 O320 1.256 1_565 S
C328 O317 1.278 . S
C328 O323 1.241 . S
C329 O319 1.244 . S
C329 O324 1.256 . S
C330 O321 1.252 . S
C330 O322 1.256 . S
O331 Mn313 2.229 1_565 S
O331 Mn315 2.303 . S
O331 C325 1.250 1_554 S
O332 Mn315 2.251 1_556 S
O332 C325 1.241 . S
O333 Mn334 2.163 . S
O333 C347 1.244 . S
Mn334 O333 2.163 . S
Mn334 O337 2.160 . S
Mn334 O338 2.221 . S
Mn334 O340 2.163 . S
Mn334 O342 2.160 . S
Mn334 O352 2.221 . S
O335 Mn336 2.087 . S
O335 C347 1.256 . S
Mn336 O335 2.087 . S
Mn336 O343 2.089 . S
Mn336 O352 2.290 . S
Mn336 O353 2.251 . S
O337 Mn334 2.160 . S
O337 C348 1.239 . S
O338 Mn334 2.221 . S
O338 Mn339 2.290 . S
O338 C349 1.278 . S
Mn339 O338 2.290 . S
Mn339 O341 2.089 . S
Mn339 O344 2.251 . S
Mn339 O345 2.087 . S
O340 Mn334 2.163 . S
O340 C350 1.244 . S
O341 Mn339 2.089 . S
O341 C348 1.256 . S
O342 Mn334 2.160 . S
O342 C351 1.239 . S
O343 Mn336 2.089 . S
O343 C351 1.256 . S
O344 Mn339 2.251 . S
O344 C349 1.241 . S
O345 Mn339 2.087 . S
O345 C350 1.256 . S
C346 O352 1.278 . S
C346 O353 1.241 . S
C347 O333 1.244 . S
C347 O335 1.256 . S
C348 O337 1.239 . S
C348 O341 1.256 . S
C349 O338 1.278 . S
C349 O344 1.241 . S
C350 O340 1.244 . S
C350 O345 1.256 . S
C351 O342 1.239 . S
C351 O343 1.256 . S
O352 Mn334 2.221 . S
O352 Mn336 2.290 . S
O352 C346 1.278 . S
O353 Mn336 2.251 . S
O353 C346 1.241 . S
O354 Mn355 2.163 1_565 S
O354 C368 1.244 . S
Mn355 O354 2.163 1_545 S
Mn355 O358 2.160 . S
Mn355 O359 2.221 1_545 S
Mn355 O361 2.163 . S
Mn355 O363 2.160 . S
Mn355 O373 2.221 . S
O356 Mn357 2.087 . S
O356 C368 1.256 1_545 S
Mn357 O356 2.087 . S
Mn357 O364 2.089 . S
Mn357 O373 2.290 . S
Mn357 O374 2.251 . S
O358 Mn355 2.160 . S
O358 C369 1.239 . S
O359 Mn355 2.221 1_565 S
O359 Mn360 2.290 . S
O359 C370 1.278 . S
Mn360 O359 2.290 . S
Mn360 O362 2.089 1_565 S
Mn360 O365 2.251 . S
Mn360 O366 2.087 . S
O361 Mn355 2.163 . S
O361 C371 1.244 1_545 S
O362 Mn360 2.089 1_545 S
O362 C369 1.256 . S
O363 Mn355 2.160 . S
O363 C372 1.239 . S
O364 Mn357 2.089 . S
O364 C372 1.256 . S
O365 Mn360 2.251 . S
O365 C370 1.241 . S
O366 Mn360 2.087 . S
O366 C371 1.256 . S
C367 O373 1.278 . S
C367 O374 1.241 . S
C368 O354 1.244 . S
C368 O356 1.256 1_565 S
C369 O358 1.239 . S
C369 O362 1.256 . S
C370 O359 1.278 . S
C370 O365 1.241 . S
C371 O361 1.244 1_565 S
C371 O366 1.256 . S
C372 O363 1.239 . S
C372 O364 1.256 . S
O373 Mn355 2.221 . S
O373 Mn357 2.290 . S
O373 C367 1.278 . S
O374 Mn357 2.251 . S
O374 C367 1.241 . S
O375 Mn376 2.163 . S
O375 C389 1.244 . S
Mn376 O375 2.163 . S
Mn376 O379 2.160 . S
Mn376 O380 2.221 . S
Mn376 O382 2.163 . S
Mn376 O384 2.160 . S
Mn376 O394 2.221 . S
O377 Mn378 2.087 . S
O377 C389 1.256 . S
Mn378 O377 2.087 . S
Mn378 O385 2.089 . S
Mn378 O394 2.290 . S
Mn378 O395 2.251 . S
O379 Mn376 2.160 . S
O379 C390 1.239 . S
O380 Mn376 2.221 . S
O380 Mn381 2.290 . S
O380 C391 1.278 . S
Mn381 O380 2.290 . S
Mn381 O383 2.089 . S
Mn381 O386 2.251 . S
Mn381 O387 2.087 . S
O382 Mn376 2.163 . S
O382 C392 1.244 . S
O383 Mn381 2.089 . S
O383 C390 1.256 . S
O384 Mn376 2.160 . S
O384 C393 1.239 . S
O385 Mn378 2.089 . S
O385 C393 1.256 . S
O386 Mn381 2.251 . S
O386 C391 1.241 . S
O387 Mn381 2.087 . S
O387 C392 1.256 . S
C388 O394 1.278 . S
C388 O395 1.241 . S
C389 O375 1.244 . S
C389 O377 1.256 . S
C390 O379 1.239 . S
C390 O383 1.256 . S
C391 O380 1.278 . S
C391 O386 1.241 . S
C392 O382 1.244 . S
C392 O387 1.256 . S
C393 O384 1.239 . S
C393 O385 1.256 . S
O394 Mn376 2.221 . S
O394 Mn378 2.290 . S
O394 C388 1.278 . S
O395 Mn378 2.251 . S
O395 C388 1.241 . S
O396 Mn397 2.163 1_565 S
O396 C410 1.250 . S
Mn397 O396 2.163 1_545 S
Mn397 O400 2.160 . S
Mn397 O401 2.221 . S
Mn397 O403 2.163 1_455 S
Mn397 O405 2.160 1_545 S
Mn397 O415 2.221 1_545 S
O398 Mn399 2.077 1_655 S
O398 C410 1.253 1_655 S
Mn399 O398 2.077 1_455 S
Mn399 O406 2.089 . S
Mn399 O415 2.290 . S
Mn399 O416 2.251 1_455 S
O400 Mn397 2.160 . S
O400 C411 1.239 . S
O401 Mn397 2.221 . S
O401 Mn402 2.292 . S
O401 C412 1.278 . S
Mn402 O401 2.292 . S
Mn402 O404 2.089 . S
Mn402 O407 2.252 . S
Mn402 O408 2.083 1_455 S
O403 Mn397 2.163 1_655 S
O403 C413 1.244 . S
O404 Mn402 2.089 . S
O404 C411 1.256 . S
O405 Mn397 2.160 1_565 S
O405 C414 1.239 . S
O406 Mn399 2.089 . S
O406 C414 1.256 . S
O407 Mn402 2.252 . S
O407 C412 1.241 . S
O408 Mn402 2.083 1_655 S
O408 C413 1.256 . S
C409 O415 1.278 1_655 S
C409 O416 1.241 . S
C410 O396 1.250 . S
C410 O398 1.253 1_455 S
C411 O400 1.239 . S
C411 O404 1.256 . S
C412 O401 1.278 . S
C412 O407 1.241 . S
C413 O403 1.244 . S
C413 O408 1.256 . S
C414 O405 1.239 . S
C414 O406 1.256 . S
O415 Mn397 2.221 1_565 S
O415 Mn399 2.290 . S
O415 C409 1.278 1_455 S
O416 Mn399 2.251 1_655 S
O416 C409 1.241 . S
O417 Mn418 2.163 . S
O417 C431 1.244 . S
Mn418 O417 2.163 . S
Mn418 O421 2.160 . S
Mn418 O422 2.221 . S
Mn418 O424 2.163 . S
Mn418 O426 2.160 . S
Mn418 O436 2.221 . S
O419 Mn420 2.087 . S
O419 C431 1.256 . S
Mn420 O419 2.087 . S
Mn420 O427 2.089 . S
Mn420 O436 2.290 . S
Mn420 O437 2.251 . S
O421 Mn418 2.160 . S
O421 C432 1.239 . S
O422 Mn418 2.221 . S
O422 Mn423 2.290 . S
O422 C433 1.278 . S
Mn423 O422 2.290 . S
Mn423 O425 2.089 . S
Mn423 O428 2.251 . S
Mn423 O429 2.087 . S
O424 Mn418 2.163 . S
O424 C434 1.244 . S
O425 Mn423 2.089 . S
O425 C432 1.256 . S
O426 Mn418 2.160 . S
O426 C435 1.239 . S
O427 Mn420 2.089 . S
O427 C435 1.256 . S
O428 Mn423 2.251 . S
O428 C433 1.241 . S
O429 Mn423 2.087 . S
O429 C434 1.256 . S
C430 O436 1.278 . S
C430 O437 1.241 . S
C431 O417 1.244 . S
C431 O419 1.256 . S
C432 O421 1.239 . S
C432 O425 1.256 . S
C433 O422 1.278 . S
C433 O428 1.241 . S
C434 O424 1.244 . S
C434 O429 1.256 . S
C435 O426 1.239 . S
C435 O427 1.256 . S
O436 Mn418 2.221 . S
O436 Mn420 2.290 . S
O436 C430 1.278 . S
O437 Mn420 2.251 . S
O437 C430 1.241 . S
O438 Mn439 2.163 1_556 S
O438 C452 1.242 1_545 S
Mn439 O438 2.163 1_554 S
Mn439 O442 2.160 . S
Mn439 O443 2.221 . S
Mn439 O445 2.163 1_545 S
Mn439 O447 2.160 1_554 S
Mn439 O457 2.221 1_554 S
O440 Mn441 2.087 1_565 S
O440 C452 1.257 . S
Mn441 O440 2.087 1_545 S
Mn441 O448 2.089 . S
Mn441 O457 2.290 . S
Mn441 O458 2.251 1_545 S
O442 Mn439 2.160 . S
O442 C453 1.239 . S
O443 Mn439 2.221 . S
O443 Mn444 2.290 1_545 S
O443 C454 1.278 . S
Mn444 O443 2.290 1_565 S
Mn444 O446 2.089 1_565 S
Mn444 O449 2.251 1_565 S
Mn444 O450 2.087 . S
O445 Mn439 2.163 1_565 S
O445 C455 1.244 . S
O446 Mn444 2.089 1_545 S
O446 C453 1.256 . S
O447 Mn439 2.160 1_556 S
O447 C456 1.239 . S
O448 Mn441 2.089 . S
O448 C456 1.256 . S
O449 Mn444 2.251 1_545 S
O449 C454 1.241 . S
O450 Mn444 2.087 . S
O450 C455 1.256 . S
C451 O457 1.278 1_565 S
C451 O458 1.241 . S
C452 O438 1.242 1_565 S
C452 O440 1.257 . S
C453 O442 1.239 . S
C453 O446 1.256 . S
C454 O443 1.278 . S
C454 O449 1.241 . S
C455 O445 1.244 . S
C455 O450 1.256 . S
C456 O447 1.239 . S
C456 O448 1.256 . S
O457 Mn439 2.221 1_556 S
O457 Mn441 2.290 . S
O457 C451 1.278 1_545 S
O458 Mn441 2.251 1_565 S
O458 C451 1.241 . S
O459 Mn460 2.163 . S
O459 C473 1.244 . S
Mn460 O459 2.163 . S
Mn460 O463 2.160 . S
Mn460 O464 2.221 . S
Mn460 O466 2.163 . S
Mn460 O468 2.160 . S
Mn460 O478 2.221 . S
O461 Mn462 2.087 . S
O461 C473 1.256 . S
Mn462 O461 2.087 . S
Mn462 O469 2.089 . S
Mn462 O478 2.290 . S
Mn462 O479 2.251 . S
O463 Mn460 2.160 . S
O463 C474 1.239 . S
O464 Mn460 2.221 . S
O464 Mn465 2.290 . S
O464 C475 1.278 . S
Mn465 O464 2.290 . S
Mn465 O467 2.089 . S
Mn465 O470 2.251 . S
Mn465 O471 2.087 . S
O466 Mn460 2.163 . S
O466 C476 1.244 . S
O467 Mn465 2.089 . S
O467 C474 1.256 . S
O468 Mn460 2.160 . S
O468 C477 1.239 . S
O469 Mn462 2.089 . S
O469 C477 1.256 . S
O470 Mn465 2.251 . S
O470 C475 1.241 . S
O471 Mn465 2.087 . S
O471 C476 1.256 . S
C472 O478 1.278 . S
C472 O479 1.241 . S
C473 O459 1.244 . S
C473 O461 1.256 . S
C474 O463 1.239 . S
C474 O467 1.256 . S
C475 O464 1.278 . S
C475 O470 1.241 . S
C476 O466 1.244 . S
C476 O471 1.256 . S
C477 O468 1.239 . S
C477 O469 1.256 . S
O478 Mn460 2.221 . S
O478 Mn462 2.290 . S
O478 C472 1.278 . S
O479 Mn462 2.251 . S
O479 C472 1.241 . S
O480 Mn481 2.163 1_556 S
O480 C494 1.244 . S
Mn481 O480 2.163 1_554 S
Mn481 O484 2.160 . S
Mn481 O485 2.221 1_554 S
Mn481 O487 2.164 . S
Mn481 O489 2.160 . S
Mn481 O499 2.221 . S
O482 Mn483 2.087 . S
O482 C494 1.256 1_554 S
Mn483 O482 2.087 . S
Mn483 O490 2.089 . S
Mn483 O499 2.290 . S
Mn483 O500 2.251 . S
O484 Mn481 2.160 . S
O484 C495 1.239 . S
O485 Mn481 2.221 1_556 S
O485 Mn486 2.290 . S
O485 C496 1.278 . S
Mn486 O485 2.290 . S
Mn486 O488 2.110 . S
Mn486 O491 2.251 . S
Mn486 O492 2.087 . S
O487 Mn481 2.164 . S
O487 C497 1.232 1_554 S
O488 Mn486 2.110 . S
O488 C495 1.237 1_556 S
O489 Mn481 2.160 . S
O489 C498 1.239 . S
O490 Mn483 2.089 . S
O490 C498 1.256 . S
O491 Mn486 2.251 . S
O491 C496 1.241 . S
O492 Mn486 2.087 . S
O492 C497 1.256 . S
C493 O499 1.278 . S
C493 O500 1.241 . S
C494 O480 1.244 . S
C494 O482 1.256 1_556 S
C495 O484 1.239 . S
C495 O488 1.237 1_554 S
C496 O485 1.278 . S
C496 O491 1.241 . S
C497 O487 1.232 1_556 S
C497 O492 1.256 . S
C498 O489 1.239 . S
C498 O490 1.256 . S
O499 Mn481 2.221 . S
O499 Mn483 2.290 . S
O499 C493 1.278 . S
O500 Mn483 2.251 . S
O500 C493 1.241 . S
O501 Mn502 2.163 . S
O501 C515 1.244 . S
Mn502 O501 2.163 . S
Mn502 O505 2.160 . S
Mn502 O506 2.221 . S
Mn502 O508 2.163 . S
Mn502 O510 2.160 . S
Mn502 O520 2.221 . S
O503 Mn504 2.087 . S
O503 C515 1.256 . S
Mn504 O503 2.087 . S
Mn504 O511 2.089 . S
Mn504 O520 2.290 . S
Mn504 O521 2.251 . S
O505 Mn502 2.160 . S
O505 C516 1.239 . S
O506 Mn502 2.221 . S
O506 Mn507 2.290 . S
O506 C517 1.278 . S
Mn507 O506 2.290 . S
Mn507 O509 2.089 . S
Mn507 O512 2.251 . S
Mn507 O513 2.087 . S
O508 Mn502 2.163 . S
O508 C518 1.244 . S
O509 Mn507 2.089 . S
O509 C516 1.256 . S
O510 Mn502 2.160 . S
O510 C519 1.239 . S
O511 Mn504 2.089 . S
O511 C519 1.256 . S
O512 Mn507 2.251 . S
O512 C517 1.241 . S
O513 Mn507 2.087 . S
O513 C518 1.256 . S
C514 O520 1.278 . S
C514 O521 1.241 . S
C515 O501 1.244 . S
C515 O503 1.256 . S
C516 O505 1.239 . S
C516 O509 1.256 . S
C517 O506 1.278 . S
C517 O512 1.241 . S
C518 O508 1.244 . S
C518 O513 1.256 . S
C519 O510 1.239 . S
C519 O511 1.256 . S
O520 Mn502 2.221 . S
O520 Mn504 2.290 . S
O520 C514 1.278 . S
O521 Mn504 2.251 . S
O521 C514 1.241 . S
O522 Mn523 2.163 1_655 S
O522 C536 1.244 . S
Mn523 O522 2.163 1_455 S
Mn523 O526 2.160 . S
Mn523 O527 2.221 1_455 S
Mn523 O529 2.163 . S
Mn523 O531 2.160 . S
Mn523 O541 2.221 . S
O524 Mn525 2.087 . S
O524 C536 1.256 1_455 S
Mn525 O524 2.087 . S
Mn525 O532 2.089 . S
Mn525 O541 2.290 . S
Mn525 O542 2.251 . S
O526 Mn523 2.160 . S
O526 C537 1.239 . S
O527 Mn523 2.221 1_655 S
O527 Mn528 2.290 . S
O527 C538 1.278 . S
Mn528 O527 2.290 . S
Mn528 O530 2.081 1_655 S
Mn528 O533 2.251 . S
Mn528 O534 2.087 . S
O529 Mn523 2.163 . S
O529 C539 1.244 1_455 S
O530 Mn528 2.081 1_455 S
O530 C537 1.262 . S
O531 Mn523 2.160 . S
O531 C540 1.239 . S
O532 Mn525 2.089 . S
O532 C540 1.256 . S
O533 Mn528 2.251 . S
O533 C538 1.241 . S
O534 Mn528 2.087 . S
O534 C539 1.256 . S
C535 O541 1.278 . S
C535 O542 1.241 . S
C536 O522 1.244 . S
C536 O524 1.256 1_655 S
C537 O526 1.239 . S
C537 O530 1.262 . S
C538 O527 1.278 . S
C538 O533 1.241 . S
C539 O529 1.244 1_655 S
C539 O534 1.256 . S
C540 O531 1.239 . S
C540 O532 1.256 . S
O541 Mn523 2.221 . S
O541 Mn525 2.290 . S
O541 C535 1.278 . S
O542 Mn525 2.251 . S
O542 C535 1.241 . S
O543 Mn544 2.163 . S
O543 C557 1.244 . S
Mn544 O543 2.163 . S
Mn544 O547 2.160 . S
Mn544 O548 2.221 . S
Mn544 O550 2.163 . S
Mn544 O552 2.160 . S
Mn544 O562 2.221 . S
O545 Mn546 2.087 . S
O545 C557 1.256 . S
Mn546 O545 2.087 . S
Mn546 O553 2.089 . S
Mn546 O562 2.290 . S
Mn546 O563 2.251 . S
O547 Mn544 2.160 . S
O547 C558 1.239 . S
O548 Mn544 2.221 . S
O548 Mn549 2.290 . S
O548 C559 1.278 . S
Mn549 O548 2.290 . S
Mn549 O551 2.089 . S
Mn549 O554 2.251 . S
Mn549 O555 2.087 . S
O550 Mn544 2.163 . S
O550 C560 1.244 . S
O551 Mn549 2.089 . S
O551 C558 1.256 . S
O552 Mn544 2.160 . S
O552 C561 1.239 . S
O553 Mn546 2.089 . S
O553 C561 1.256 . S
O554 Mn549 2.251 . S
O554 C559 1.241 . S
O555 Mn549 2.087 . S
O555 C560 1.256 . S
C556 O562 1.278 . S
C556 O563 1.241 . S
C557 O543 1.244 . S
C557 O545 1.256 . S
C558 O547 1.239 . S
C558 O551 1.256 . S
C559 O548 1.278 . S
C559 O554 1.241 . S
C560 O550 1.244 . S
C560 O555 1.256 . S
C561 O552 1.239 . S
C561 O553 1.256 . S
O562 Mn544 2.221 . S
O562 Mn546 2.290 . S
O562 C556 1.278 . S
O563 Mn546 2.251 . S
O563 C556 1.241 . S
O564 Mn565 2.163 . S
O564 C578 1.244 . S
Mn565 O564 2.163 . S
Mn565 O568 2.160 . S
Mn565 O569 2.221 . S
Mn565 O571 2.163 . S
Mn565 O573 2.160 . S
Mn565 O583 2.221 . S
O566 Mn567 2.087 . S
O566 C578 1.256 . S
Mn567 O566 2.087 . S
Mn567 O574 2.089 . S
Mn567 O583 2.290 . S
Mn567 O584 2.251 . S
O568 Mn565 2.160 . S
O568 C579 1.239 . S
O569 Mn565 2.221 . S
O569 Mn570 2.290 . S
O569 C580 1.278 . S
Mn570 O569 2.290 . S
Mn570 O572 2.089 . S
Mn570 O575 2.251 . S
Mn570 O576 2.087 . S
O571 Mn565 2.163 . S
O571 C581 1.244 . S
O572 Mn570 2.089 . S
O572 C579 1.256 . S
O573 Mn565 2.160 . S
O573 C582 1.239 . S
O574 Mn567 2.089 . S
O574 C582 1.256 . S
O575 Mn570 2.251 . S
O575 C580 1.241 . S
O576 Mn570 2.087 . S
O576 C581 1.256 . S
C577 O583 1.278 . S
C577 O584 1.241 . S
C578 O564 1.244 . S
C578 O566 1.256 . S
C579 O568 1.239 . S
C579 O572 1.256 . S
C580 O569 1.278 . S
C580 O575 1.241 . S
C581 O571 1.244 . S
C581 O576 1.256 . S
C582 O573 1.239 . S
C582 O574 1.256 . S
O583 Mn565 2.221 . S
O583 Mn567 2.290 . S
O583 C577 1.278 . S
O584 Mn567 2.251 . S
O584 C577 1.241 . S
O585 Mn586 2.163 . S
O585 C599 1.244 . S
Mn586 O585 2.163 . S
Mn586 O589 2.160 . S
Mn586 O590 2.221 . S
Mn586 O592 2.163 . S
Mn586 O594 2.160 . S
Mn586 O604 2.221 . S
O587 Mn588 2.087 . S
O587 C599 1.256 . S
Mn588 O587 2.087 . S
Mn588 O595 2.089 . S
Mn588 O604 2.290 . S
Mn588 O605 2.251 . S
O589 Mn586 2.160 . S
O589 C600 1.239 . S
O590 Mn586 2.221 . S
O590 Mn591 2.290 . S
O590 C601 1.278 . S
Mn591 O590 2.290 . S
Mn591 O593 2.089 . S
Mn591 O596 2.251 . S
Mn591 O597 2.087 . S
O592 Mn586 2.163 . S
O592 C602 1.244 . S
O593 Mn591 2.089 . S
O593 C600 1.256 . S
O594 Mn586 2.160 . S
O594 C603 1.239 . S
O595 Mn588 2.089 . S
O595 C603 1.256 . S
O596 Mn591 2.251 . S
O596 C601 1.241 . S
O597 Mn591 2.087 . S
O597 C602 1.256 . S
C598 O604 1.278 . S
C598 O605 1.241 . S
C599 O585 1.244 . S
C599 O587 1.256 . S
C600 O589 1.239 . S
C600 O593 1.256 . S
C601 O590 1.278 . S
C601 O596 1.241 . S
C602 O592 1.244 . S
C602 O597 1.256 . S
C603 O594 1.239 . S
C603 O595 1.256 . S
O604 Mn586 2.221 . S
O604 Mn588 2.290 . S
O604 C598 1.278 . S
O605 Mn588 2.251 . S
O605 C598 1.241 . S
O606 Mn607 2.163 . S
O606 C620 1.244 . S
Mn607 O606 2.163 . S
Mn607 O610 2.160 . S
Mn607 O611 2.221 . S
Mn607 O613 2.163 . S
Mn607 O615 2.160 . S
Mn607 O625 2.221 . S
O608 Mn609 2.087 . S
O608 C620 1.256 . S
Mn609 O608 2.087 . S
Mn609 O616 2.089 . S
Mn609 O625 2.290 . S
Mn609 O626 2.251 . S
O610 Mn607 2.160 . S
O610 C621 1.239 . S
O611 Mn607 2.221 . S
O611 Mn612 2.290 . S
O611 C622 1.278 . S
Mn612 O611 2.290 . S
Mn612 O614 2.089 . S
Mn612 O617 2.251 . S
Mn612 O618 2.087 . S
O613 Mn607 2.163 . S
O613 C623 1.244 . S
O614 Mn612 2.089 . S
O614 C621 1.256 . S
O615 Mn607 2.160 . S
O615 C624 1.239 . S
O616 Mn609 2.089 . S
O616 C624 1.256 . S
O617 Mn612 2.251 . S
O617 C622 1.241 . S
O618 Mn612 2.087 . S
O618 C623 1.256 . S
C619 O625 1.278 . S
C619 O626 1.241 . S
C620 O606 1.244 . S
C620 O608 1.256 . S
C621 O610 1.239 . S
C621 O614 1.256 . S
C622 O611 1.278 . S
C622 O617 1.241 . S
C623 O613 1.244 . S
C623 O618 1.256 . S
C624 O615 1.239 . S
C624 O616 1.256 . S
O625 Mn607 2.221 . S
O625 Mn609 2.290 . S
O625 C619 1.278 . S
O626 Mn609 2.251 . S
O626 C619 1.241 . S
O627 Mn628 2.164 1_655 S
O627 C641 1.243 1_554 S
Mn628 O627 2.164 1_455 S
Mn628 O631 2.160 . S
Mn628 O632 2.221 . S
Mn628 O634 2.163 1_554 S
Mn628 O636 2.160 1_455 S
Mn628 O646 2.215 1_454 S
O629 Mn630 2.087 1_556 S
O629 C641 1.256 . S
Mn630 O629 2.087 1_554 S
Mn630 O637 2.089 . S
Mn630 O646 2.279 1_554 S
Mn630 O647 2.251 1_554 S
O631 Mn628 2.160 . S
O631 C642 1.239 . S
O632 Mn628 2.221 . S
O632 Mn633 2.290 1_554 S
O632 C643 1.278 . S
Mn633 O632 2.290 1_556 S
Mn633 O635 2.089 1_556 S
Mn633 O638 2.251 1_556 S
Mn633 O639 2.087 . S
O634 Mn628 2.163 1_556 S
O634 C644 1.244 . S
O635 Mn633 2.089 1_554 S
O635 C642 1.256 . S
O636 Mn628 2.160 1_655 S
O636 C645 1.239 . S
O637 Mn630 2.089 . S
O637 C645 1.256 . S
O638 Mn633 2.251 1_554 S
O638 C643 1.241 . S
O639 Mn633 2.087 . S
O639 C644 1.256 . S
C640 O646 1.304 . S
C640 O647 1.241 . S
C641 O627 1.243 1_556 S
C641 O629 1.256 . S
C642 O631 1.239 . S
C642 O635 1.256 . S
C643 O632 1.278 . S
C643 O638 1.241 . S
C644 O634 1.244 . S
C644 O639 1.256 . S
C645 O636 1.239 . S
C645 O637 1.256 . S
O646 Mn628 2.215 1_656 S
O646 Mn630 2.279 1_556 S
O646 C640 1.304 . S
O647 Mn630 2.251 1_556 S
O647 C640 1.241 . S
C648 C649 1.349 . S
C648 C650 1.327 . S
C648 H673 0.950 . S
C649 C648 1.349 . S
C649 C665 1.349 1_455 S
C650 C648 1.327 . S
C650 C669 1.429 . S
C650 H674 0.950 . S
C651 C668 1.574 . S
C651 C670 1.368 1_655 S
C651 H675 0.949 . S
H652 C656 0.949 . S
C653 C654 1.349 . S
C653 C655 1.327 . S
C653 H676 0.950 . S
C654 C653 1.349 . S
C654 C666 1.349 1_655 S
C655 C653 1.327 . S
C655 C671 1.438 . S
C655 H677 0.950 . S
C656 H652 0.949 . S
C656 C664 1.574 . S
C656 C672 1.380 . S
H657 C665 0.950 . S
H658 C663 0.950 . S
H659 C664 0.949 . S
H660 C666 0.950 . S
H661 C667 0.950 . S
H662 C668 0.949 . S
C663 H658 0.950 . S
C663 C665 1.327 . S
C663 C669 1.429 1_655 S
C664 C656 1.574 . S
C664 H659 0.949 . S
C664 C670 1.368 . S
C665 C649 1.349 1_655 S
C665 H657 0.950 . S
C665 C663 1.327 . S
C666 C654 1.349 1_455 S
C666 H660 0.950 . S
C666 C667 1.327 . S
C667 H661 0.950 . S
C667 C666 1.327 . S
C667 C671 1.419 1_455 S
C668 C651 1.574 . S
C668 H662 0.949 . S
C668 C672 1.357 1_655 S
C669 C650 1.429 . S
C669 C663 1.429 1_455 S
C669 C670 1.523 . S
C670 C651 1.368 1_455 S
C670 C664 1.368 . S
C670 C669 1.523 . S
C671 C655 1.438 . S
C671 C667 1.419 1_655 S
C671 C672 1.523 1_655 S
C672 C656 1.380 . S
C672 C668 1.357 1_455 S
C672 C671 1.523 1_455 S
H673 C648 0.950 . S
H674 C650 0.950 . S
H675 C651 0.949 . S
H676 C653 0.950 . S
H677 C655 0.950 . S
C678 C679 1.349 . S
C678 C680 1.327 . S
C678 H703 0.950 . S
C679 C678 1.349 . S
C679 C695 1.349 . S
C680 C678 1.327 . S
C680 C699 1.429 . S
C680 H704 0.950 . S
C681 C698 1.574 . S
C681 C700 1.368 . S
C681 H705 0.949 . S
H682 C686 0.949 . S
C683 C684 1.349 . S
C683 C685 1.327 . S
C683 H706 0.950 . S
C684 C683 1.349 . S
C684 C696 1.349 . S
C685 C683 1.327 . S
C685 C701 1.429 . S
C685 H707 0.950 . S
C686 H682 0.949 . S
C686 C694 1.574 . S
C686 C702 1.368 . S
H687 C695 0.950 . S
H688 C693 0.950 . S
H689 C694 0.949 . S
H690 C696 0.950 . S
H691 C697 0.950 . S
H692 C698 0.949 . S
C693 H688 0.950 . S
C693 C695 1.327 . S
C693 C699 1.429 . S
C694 C686 1.574 . S
C694 H689 0.949 . S
C694 C700 1.368 . S
C695 C679 1.349 . S
C695 H687 0.950 . S
C695 C693 1.327 . S
C696 C684 1.349 . S
C696 H690 0.950 . S
C696 C697 1.327 . S
C697 H691 0.950 . S
C697 C696 1.327 . S
C697 C701 1.429 . S
C698 C681 1.574 . S
C698 H692 0.949 . S
C698 C702 1.368 . S
C699 C680 1.429 . S
C699 C693 1.429 . S
C699 C700 1.523 . S
C700 C681 1.368 . S
C700 C694 1.368 . S
C700 C699 1.523 . S
C701 C685 1.429 . S
C701 C697 1.429 . S
C701 C702 1.523 . S
C702 C686 1.368 . S
C702 C698 1.368 . S
C702 C701 1.523 . S
H703 C678 0.950 . S
H704 C680 0.950 . S
H705 C681 0.949 . S
H706 C683 0.950 . S
H707 C685 0.950 . S
C708 C709 1.349 . S
C708 C710 1.327 . S
C708 H733 0.950 . S
C709 C708 1.349 . S
C709 C725 1.349 . S
C710 C708 1.327 . S
C710 C729 1.429 . S
C710 H734 0.950 . S
C711 C728 1.574 . S
C711 C730 1.368 . S
C711 H735 0.949 . S
H712 C716 0.949 . S
C713 C714 1.349 . S
C713 C715 1.327 . S
C713 H736 0.950 . S
C714 C713 1.349 . S
C714 C726 1.349 . S
C715 C713 1.327 . S
C715 C731 1.429 . S
C715 H737 0.950 . S
C716 H712 0.949 . S
C716 C724 1.574 . S
C716 C732 1.368 . S
H717 C725 0.950 . S
H718 C723 0.950 . S
H719 C724 0.949 . S
H720 C726 0.950 . S
H721 C727 0.950 . S
H722 C728 0.949 . S
C723 H718 0.950 . S
C723 C725 1.327 . S
C723 C729 1.429 . S
C724 C716 1.574 . S
C724 H719 0.949 . S
C724 C730 1.368 . S
C725 C709 1.349 . S
C725 H717 0.950 . S
C725 C723 1.327 . S
C726 C714 1.349 . S
C726 H720 0.950 . S
C726 C727 1.327 . S
C727 H721 0.950 . S
C727 C726 1.327 . S
C727 C731 1.429 . S
C728 C711 1.574 . S
C728 H722 0.949 . S
C728 C732 1.368 . S
C729 C710 1.429 . S
C729 C723 1.429 . S
C729 C730 1.523 . S
C730 C711 1.368 . S
C730 C724 1.368 . S
C730 C729 1.523 . S
C731 C715 1.429 . S
C731 C727 1.429 . S
C731 C732 1.523 . S
C732 C716 1.368 . S
C732 C728 1.368 . S
C732 C731 1.523 . S
H733 C708 0.950 . S
H734 C710 0.950 . S
H735 C711 0.949 . S
H736 C713 0.950 . S
H737 C715 0.950 . S
C738 C739 1.349 . S
C738 C740 1.327 . S
C738 H763 0.950 . S
C739 C738 1.349 . S
C739 C755 1.349 . S
C740 C738 1.327 . S
C740 C759 1.429 . S
C740 H764 0.950 . S
C741 C758 1.574 . S
C741 C760 1.368 . S
C741 H765 0.949 . S
H742 C746 0.949 . S
C743 C744 1.349 . S
C743 C745 1.327 . S
C743 H766 0.950 . S
C744 C743 1.349 . S
C744 C756 1.349 . S
C745 C743 1.327 . S
C745 C761 1.429 . S
C745 H767 0.950 . S
C746 H742 0.949 . S
C746 C754 1.574 . S
C746 C762 1.368 . S
H747 C755 0.950 . S
H748 C753 0.950 . S
H749 C754 0.949 . S
H750 C756 0.950 . S
H751 C757 0.950 . S
H752 C758 0.949 . S
C753 H748 0.950 . S
C753 C755 1.327 . S
C753 C759 1.429 . S
C754 C746 1.574 . S
C754 H749 0.949 . S
C754 C760 1.368 . S
C755 C739 1.349 . S
C755 H747 0.950 . S
C755 C753 1.327 . S
C756 C744 1.349 . S
C756 H750 0.950 . S
C756 C757 1.327 . S
C757 H751 0.950 . S
C757 C756 1.327 . S
C757 C761 1.429 . S
C758 C741 1.574 . S
C758 H752 0.949 . S
C758 C762 1.368 . S
C759 C740 1.429 . S
C759 C753 1.429 . S
C759 C760 1.523 . S
C760 C741 1.368 . S
C760 C754 1.368 . S
C760 C759 1.523 . S
C761 C745 1.429 . S
C761 C757 1.429 . S
C761 C762 1.523 . S
C762 C746 1.368 . S
C762 C758 1.368 . S
C762 C761 1.523 . S
H763 C738 0.950 . S
H764 C740 0.950 . S
H765 C741 0.949 . S
H766 C743 0.950 . S
H767 C745 0.950 . S
C768 C769 1.349 1_655 S
C768 C770 1.327 . S
C768 H793 0.950 . S
C769 C768 1.349 1_455 S
C769 C785 1.349 . S
C770 C768 1.327 . S
C770 C789 1.429 1_655 S
C770 H794 0.950 . S
C771 C788 1.574 . S
C771 C790 1.368 . S
C771 H795 0.949 . S
H772 C776 0.949 . S
C773 C774 1.364 . S
C773 C775 1.327 . S
C773 H796 0.950 . S
C774 C773 1.364 . S
C774 C786 1.335 1_455 S
C775 C773 1.327 . S
C775 C791 1.429 . S
C775 H797 0.950 . S
C776 H772 0.949 . S
C776 C784 1.574 . S
C776 C792 1.368 1_655 S
H777 C785 0.950 . S
H778 C783 0.950 . S
H779 C784 0.949 . S
H780 C786 0.950 . S
H781 C787 0.950 . S
H782 C788 0.949 . S
C783 H778 0.950 . S
C783 C785 1.327 . S
C783 C789 1.429 . S
C784 C776 1.574 . S
C784 H779 0.949 . S
C784 C790 1.368 1_655 S
C785 C769 1.349 . S
C785 H777 0.950 . S
C785 C783 1.327 . S
C786 C774 1.335 1_655 S
C786 H780 0.950 . S
C786 C787 1.327 . S
C787 H781 0.950 . S
C787 C786 1.327 . S
C787 C791 1.429 1_655 S
C788 C771 1.574 . S
C788 H782 0.949 . S
C788 C792 1.368 . S
C789 C770 1.429 1_455 S
C789 C783 1.429 . S
C789 C790 1.523 . S
C790 C771 1.368 . S
C790 C784 1.368 1_455 S
C790 C789 1.523 . S
C791 C775 1.429 . S
C791 C787 1.429 1_455 S
C791 C792 1.523 . S
C792 C776 1.368 1_455 S
C792 C788 1.368 . S
C792 C791 1.523 . S
H793 C768 0.950 . S
H794 C770 0.950 . S
H795 C771 0.949 . S
H796 C773 0.950 . S
H797 C775 0.950 . S
C798 C799 1.349 . S
C798 C800 1.327 . S
C798 H823 0.950 . S
C799 C798 1.349 . S
C799 C815 1.349 . S
C800 C798 1.327 . S
C800 C819 1.429 . S
C800 H824 0.950 . S
C801 C818 1.574 . S
C801 C820 1.368 . S
C801 H825 0.949 . S
H802 C806 0.949 . S
C803 C804 1.349 . S
C803 C805 1.327 . S
C803 H826 0.950 . S
C804 C803 1.349 . S
C804 C816 1.349 . S
C805 C803 1.327 . S
C805 C821 1.429 . S
C805 H827 0.950 . S
C806 H802 0.949 . S
C806 C814 1.574 . S
C806 C822 1.368 . S
H807 C815 0.950 . S
H808 C813 0.950 . S
H809 C814 0.949 . S
H810 C816 0.950 . S
H811 C817 0.950 . S
H812 C818 0.949 . S
C813 H808 0.950 . S
C813 C815 1.327 . S
C813 C819 1.429 . S
C814 C806 1.574 . S
C814 H809 0.949 . S
C814 C820 1.368 . S
C815 C799 1.349 . S
C815 H807 0.950 . S
C815 C813 1.327 . S
C816 C804 1.349 . S
C816 H810 0.950 . S
C816 C817 1.327 . S
C817 H811 0.950 . S
C817 C816 1.327 . S
C817 C821 1.429 . S
C818 C801 1.574 . S
C818 H812 0.949 . S
C818 C822 1.368 . S
C819 C800 1.429 . S
C819 C813 1.429 . S
C819 C820 1.523 . S
C820 C801 1.368 . S
C820 C814 1.368 . S
C820 C819 1.523 . S
C821 C805 1.429 . S
C821 C817 1.429 . S
C821 C822 1.523 . S
C822 C806 1.368 . S
C822 C818 1.368 . S
C822 C821 1.523 . S
H823 C798 0.950 . S
H824 C800 0.950 . S
H825 C801 0.949 . S
H826 C803 0.950 . S
H827 C805 0.950 . S
C828 C829 1.349 . S
C828 C830 1.327 . S
C828 H853 0.950 . S
C829 C828 1.349 . S
C829 C845 1.349 . S
C830 C828 1.327 . S
C830 C849 1.429 . S
C830 H854 0.950 . S
C831 C848 1.574 . S
C831 C850 1.368 . S
C831 H855 0.949 . S
H832 C836 0.949 . S
C833 C834 1.349 . S
C833 C835 1.327 . S
C833 H856 0.950 . S
C834 C833 1.349 . S
C834 C846 1.349 . S
C835 C833 1.327 . S
C835 C851 1.429 . S
C835 H857 0.950 . S
C836 H832 0.949 . S
C836 C844 1.574 . S
C836 C852 1.368 . S
H837 C845 0.950 . S
H838 C843 0.950 . S
H839 C844 0.949 . S
H840 C846 0.950 . S
H841 C847 0.950 . S
H842 C848 0.949 . S
C843 H838 0.950 . S
C843 C845 1.327 . S
C843 C849 1.429 . S
C844 C836 1.574 . S
C844 H839 0.949 . S
C844 C850 1.368 . S
C845 C829 1.349 . S
C845 H837 0.950 . S
C845 C843 1.327 . S
C846 C834 1.349 . S
C846 H840 0.950 . S
C846 C847 1.327 . S
C847 H841 0.950 . S
C847 C846 1.327 . S
C847 C851 1.429 . S
C848 C831 1.574 . S
C848 H842 0.949 . S
C848 C852 1.368 . S
C849 C830 1.429 . S
C849 C843 1.429 . S
C849 C850 1.523 . S
C850 C831 1.368 . S
C850 C844 1.368 . S
C850 C849 1.523 . S
C851 C835 1.429 . S
C851 C847 1.429 . S
C851 C852 1.523 . S
C852 C836 1.368 . S
C852 C848 1.368 . S
C852 C851 1.523 . S
H853 C828 0.950 . S
H854 C830 0.950 . S
H855 C831 0.949 . S
H856 C833 0.950 . S
H857 C835 0.950 . S
C858 C859 1.349 . S
C858 C860 1.327 . S
C858 H883 0.950 . S
C859 C858 1.349 . S
C859 C875 1.349 . S
C860 C858 1.327 . S
C860 C879 1.429 . S
C860 H884 0.950 . S
C861 C878 1.574 . S
C861 C880 1.368 . S
C861 H885 0.949 . S
H862 C866 0.949 . S
C863 C864 1.349 . S
C863 C865 1.327 . S
C863 H886 0.950 . S
C864 C863 1.349 . S
C864 C876 1.349 . S
C865 C863 1.327 . S
C865 C881 1.429 . S
C865 H887 0.950 . S
C866 H862 0.949 . S
C866 C874 1.574 . S
C866 C882 1.368 . S
H867 C875 0.950 . S
H868 C873 0.950 . S
H869 C874 0.949 . S
H870 C876 0.950 . S
H871 C877 0.950 . S
H872 C878 0.949 . S
C873 H868 0.950 . S
C873 C875 1.327 . S
C873 C879 1.429 . S
C874 C866 1.574 . S
C874 H869 0.949 . S
C874 C880 1.368 . S
C875 C859 1.349 . S
C875 H867 0.950 . S
C875 C873 1.327 . S
C876 C864 1.349 . S
C876 H870 0.950 . S
C876 C877 1.327 . S
C877 H871 0.950 . S
C877 C876 1.327 . S
C877 C881 1.429 . S
C878 C861 1.574 . S
C878 H872 0.949 . S
C878 C882 1.368 . S
C879 C860 1.429 . S
C879 C873 1.429 . S
C879 C880 1.523 . S
C880 C861 1.368 . S
C880 C874 1.368 . S
C880 C879 1.523 . S
C881 C865 1.429 . S
C881 C877 1.429 . S
C881 C882 1.523 . S
C882 C866 1.368 . S
C882 C878 1.368 . S
C882 C881 1.523 . S
H883 C858 0.950 . S
H884 C860 0.950 . S
H885 C861 0.949 . S
H886 C863 0.950 . S
H887 C865 0.950 . S
C888 C889 1.349 1_565 S
C888 C890 1.327 . S
C888 H913 0.950 . S
C889 C888 1.349 1_545 S
C889 C905 1.349 . S
C890 C888 1.327 . S
C890 C909 1.429 1_565 S
C890 H914 0.950 . S
C891 C908 1.574 . S
C891 C910 1.399 . S
C891 H915 0.949 . S
H892 C896 0.949 . S
C893 C894 1.349 1_545 S
C893 C895 1.327 . S
C893 H916 0.950 . S
C894 C893 1.349 1_565 S
C894 C906 1.349 . S
C895 C893 1.327 . S
C895 C911 1.429 1_545 S
C895 H917 0.950 . S
C896 H892 0.949 . S
C896 C904 1.574 . S
C896 C912 1.407 . S
H897 C905 0.950 . S
H898 C903 0.950 . S
H899 C904 0.949 . S
H900 C906 0.950 . S
H901 C907 0.950 . S
H902 C908 0.949 . S
C903 H898 0.950 . S
C903 C905 1.327 . S
C903 C909 1.429 . S
C904 C896 1.574 . S
C904 H899 0.949 . S
C904 C910 1.337 1_565 S
C905 C889 1.349 . S
C905 H897 0.950 . S
C905 C903 1.327 . S
C906 C894 1.349 . S
C906 H900 0.950 . S
C906 C907 1.327 . S
C907 H901 0.950 . S
C907 C906 1.327 . S
C907 C911 1.429 . S
C908 C891 1.574 . S
C908 H902 0.949 . S
C908 C912 1.329 1_545 S
C909 C890 1.429 1_545 S
C909 C903 1.429 . S
C909 C910 1.525 . S
C910 C891 1.399 . S
C910 C904 1.337 1_545 S
C910 C909 1.525 . S
C911 C895 1.429 1_565 S
C911 C907 1.429 . S
C911 C912 1.526 . S
C912 C896 1.407 . S
C912 C908 1.329 1_565 S
C912 C911 1.526 . S
H913 C888 0.950 . S
H914 C890 0.950 . S
H915 C891 0.949 . S
H916 C893 0.950 . S
H917 C895 0.950 . S
C918 C919 1.349 . S
C918 C920 1.327 . S
C918 H943 0.950 . S
C919 C918 1.349 . S
C919 C935 1.349 . S
C920 C918 1.327 . S
C920 C939 1.429 . S
C920 H944 0.950 . S
C921 C938 1.574 . S
C921 C940 1.368 . S
C921 H945 0.949 . S
H922 C926 0.949 . S
C923 C924 1.349 . S
C923 C925 1.327 . S
C923 H946 0.950 . S
C924 C923 1.349 . S
C924 C936 1.349 . S
C925 C923 1.327 . S
C925 C941 1.429 . S
C925 H947 0.950 . S
C926 H922 0.949 . S
C926 C934 1.574 . S
C926 C942 1.368 . S
H927 C935 0.950 . S
H928 C933 0.950 . S
H929 C934 0.949 . S
H930 C936 0.950 . S
H931 C937 0.950 . S
H932 C938 0.949 . S
C933 H928 0.950 . S
C933 C935 1.327 . S
C933 C939 1.429 . S
C934 C926 1.574 . S
C934 H929 0.949 . S
C934 C940 1.368 . S
C935 C919 1.349 . S
C935 H927 0.950 . S
C935 C933 1.327 . S
C936 C924 1.349 . S
C936 H930 0.950 . S
C936 C937 1.327 . S
C937 H931 0.950 . S
C937 C936 1.327 . S
C937 C941 1.429 . S
C938 C921 1.574 . S
C938 H932 0.949 . S
C938 C942 1.368 . S
C939 C920 1.429 . S
C939 C933 1.429 . S
C939 C940 1.523 . S
C940 C921 1.368 . S
C940 C934 1.368 . S
C940 C939 1.523 . S
C941 C925 1.429 . S
C941 C937 1.429 . S
C941 C942 1.523 . S
C942 C926 1.368 . S
C942 C938 1.368 . S
C942 C941 1.523 . S
H943 C918 0.950 . S
H944 C920 0.950 . S
H945 C921 0.949 . S
H946 C923 0.950 . S
H947 C925 0.950 . S
C948 C949 1.349 1_565 S
C948 C950 1.327 . S
C948 H973 0.950 . S
C949 C948 1.349 1_545 S
C949 C965 1.349 . S
C950 C948 1.327 . S
C950 C969 1.429 1_565 S
C950 H974 0.950 . S
C951 C968 1.574 . S
C951 C970 1.368 . S
C951 H975 0.949 . S
H952 C956 0.949 . S
C953 C954 1.349 . S
C953 C955 1.327 . S
C953 H976 0.950 . S
C954 C953 1.349 . S
C954 C966 1.327 1_545 S
C955 C953 1.327 . S
C955 C971 1.429 . S
C955 H977 0.950 . S
C956 H952 0.949 . S
C956 C964 1.574 . S
C956 C972 1.368 1_565 S
H957 C965 0.950 . S
H958 C963 0.950 . S
H959 C964 0.949 . S
H960 C966 0.970 . S
H961 C967 0.950 . S
H962 C968 0.949 . S
C963 H958 0.950 . S
C963 C965 1.327 . S
C963 C969 1.429 . S
C964 C956 1.574 . S
C964 H959 0.949 . S
C964 C970 1.368 1_565 S
C965 C949 1.349 . S
C965 H957 0.950 . S
C965 C963 1.327 . S
C966 C954 1.327 1_565 S
C966 H960 0.970 . S
C966 C967 1.330 . S
C967 H961 0.950 . S
C967 C966 1.330 . S
C967 C971 1.429 1_565 S
C968 C951 1.574 . S
C968 H962 0.949 . S
C968 C972 1.368 . S
C969 C950 1.429 1_545 S
C969 C963 1.429 . S
C969 C970 1.523 . S
C970 C951 1.368 . S
C970 C964 1.368 1_545 S
C970 C969 1.523 . S
C971 C955 1.429 . S
C971 C967 1.429 1_545 S
C971 C972 1.523 . S
C972 C956 1.368 1_545 S
C972 C968 1.368 . S
C972 C971 1.523 . S
H973 C948 0.950 . S
H974 C950 0.950 . S
H975 C951 0.949 . S
H976 C953 0.950 . S
H977 C955 0.950 . S
C978 C979 1.349 . S
C978 C980 1.327 . S
C978 H1003 0.950 . S
C979 C978 1.349 . S
C979 C995 1.349 . S
C980 C978 1.327 . S
C980 C999 1.429 . S
C980 H1004 0.950 . S
C981 C998 1.574 . S
C981 C1000 1.368 . S
C981 H1005 0.949 . S
H982 C986 0.949 . S
C983 C984 1.349 . S
C983 C985 1.327 . S
C983 H1006 0.950 . S
C984 C983 1.349 . S
C984 C996 1.349 . S
C985 C983 1.327 . S
C985 C1001 1.429 . S
C985 H1007 0.950 . S
C986 H982 0.949 . S
C986 C994 1.574 . S
C986 C1002 1.368 . S
H987 C995 0.950 . S
H988 C993 0.950 . S
H989 C994 0.949 . S
H990 C996 0.950 . S
H991 C997 0.950 . S
H992 C998 0.949 . S
C993 H988 0.950 . S
C993 C995 1.327 . S
C993 C999 1.429 . S
C994 C986 1.574 . S
C994 H989 0.949 . S
C994 C1000 1.368 . S
C995 C979 1.349 . S
C995 H987 0.950 . S
C995 C993 1.327 . S
C996 C984 1.349 . S
C996 H990 0.950 . S
C996 C997 1.327 . S
C997 H991 0.950 . S
C997 C996 1.327 . S
C997 C1001 1.429 . S
C998 C981 1.574 . S
C998 H992 0.949 . S
C998 C1002 1.368 . S
C999 C980 1.429 . S
C999 C993 1.429 . S
C999 C1000 1.523 . S
C1000 C981 1.368 . S
C1000 C994 1.368 . S
C1000 C999 1.523 . S
C1001 C985 1.429 . S
C1001 C997 1.429 . S
C1001 C1002 1.523 . S
C1002 C986 1.368 . S
C1002 C998 1.368 . S
C1002 C1001 1.523 . S
H1003 C978 0.950 . S
H1004 C980 0.950 . S
H1005 C981 0.949 . S
H1006 C983 0.950 . S
H1007 C985 0.950 . S
C1008 C1009 1.349 . S
C1008 C1010 1.327 . S
C1008 H1033 0.950 . S
C1009 C1008 1.349 . S
C1009 C1025 1.349 1_545 S
C1010 C1008 1.327 . S
C1010 C1029 1.429 . S
C1010 H1034 0.950 . S
C1011 C1028 1.574 . S
C1011 C1030 1.368 1_565 S
C1011 H1035 0.949 . S
H1012 C1016 0.949 . S
C1013 C1014 1.349 1_565 S
C1013 C1015 1.327 . S
C1013 H1036 0.950 . S
C1014 C1013 1.349 1_545 S
C1014 C1026 1.349 . S
C1015 C1013 1.327 . S
C1015 C1031 1.429 1_565 S
C1015 H1037 0.950 . S
C1016 H1012 0.949 . S
C1016 C1024 1.574 . S
C1016 C1032 1.368 . S
H1017 C1025 0.950 . S
H1018 C1023 0.950 . S
H1019 C1024 0.949 . S
H1020 C1026 0.950 . S
H1021 C1027 0.950 . S
H1022 C1028 0.949 . S
C1023 H1018 0.950 . S
C1023 C1025 1.327 . S
C1023 C1029 1.429 1_565 S
C1024 C1016 1.574 . S
C1024 H1019 0.949 . S
C1024 C1030 1.368 . S
C1025 C1009 1.349 1_565 S
C1025 H1017 0.950 . S
C1025 C1023 1.327 . S
C1026 C1014 1.349 . S
C1026 H1020 0.950 . S
C1026 C1027 1.327 . S
C1027 H1021 0.950 . S
C1027 C1026 1.327 . S
C1027 C1031 1.429 . S
C1028 C1011 1.574 . S
C1028 H1022 0.949 . S
C1028 C1032 1.368 1_565 S
C1029 C1010 1.429 . S
C1029 C1023 1.429 1_545 S
C1029 C1030 1.523 . S
C1030 C1011 1.368 1_545 S
C1030 C1024 1.368 . S
C1030 C1029 1.523 . S
C1031 C1015 1.429 1_545 S
C1031 C1027 1.429 . S
C1031 C1032 1.523 . S
C1032 C1016 1.368 . S
C1032 C1028 1.368 1_545 S
C1032 C1031 1.523 . S
H1033 C1008 0.950 . S
H1034 C1010 0.950 . S
H1035 C1011 0.949 . S
H1036 C1013 0.950 . S
H1037 C1015 0.950 . S
C1038 C1039 1.349 . S
C1038 C1040 1.327 . S
C1038 H1063 0.950 . S
C1039 C1038 1.349 . S
C1039 C1055 1.349 . S
C1040 C1038 1.327 . S
C1040 C1059 1.429 . S
C1040 H1064 0.950 . S
C1041 C1058 1.574 . S
C1041 C1060 1.368 . S
C1041 H1065 0.949 . S
H1042 C1046 0.949 . S
C1043 C1044 1.349 . S
C1043 C1045 1.327 . S
C1043 H1066 0.950 . S
C1044 C1043 1.349 . S
C1044 C1056 1.349 . S
C1045 C1043 1.327 . S
C1045 C1061 1.429 . S
C1045 H1067 0.950 . S
C1046 H1042 0.949 . S
C1046 C1054 1.574 . S
C1046 C1062 1.368 . S
H1047 C1055 0.950 . S
H1048 C1053 0.950 . S
H1049 C1054 0.949 . S
H1050 C1056 0.950 . S
H1051 C1057 0.950 . S
H1052 C1058 0.949 . S
C1053 H1048 0.950 . S
C1053 C1055 1.327 . S
C1053 C1059 1.429 . S
C1054 C1046 1.574 . S
C1054 H1049 0.949 . S
C1054 C1060 1.368 . S
C1055 C1039 1.349 . S
C1055 H1047 0.950 . S
C1055 C1053 1.327 . S
C1056 C1044 1.349 . S
C1056 H1050 0.950 . S
C1056 C1057 1.327 . S
C1057 H1051 0.950 . S
C1057 C1056 1.327 . S
C1057 C1061 1.429 . S
C1058 C1041 1.574 . S
C1058 H1052 0.949 . S
C1058 C1062 1.368 . S
C1059 C1040 1.429 . S
C1059 C1053 1.429 . S
C1059 C1060 1.523 . S
C1060 C1041 1.368 . S
C1060 C1054 1.368 . S
C1060 C1059 1.523 . S
C1061 C1045 1.429 . S
C1061 C1057 1.429 . S
C1061 C1062 1.523 . S
C1062 C1046 1.368 . S
C1062 C1058 1.368 . S
C1062 C1061 1.523 . S
H1063 C1038 0.950 . S
H1064 C1040 0.950 . S
H1065 C1041 0.949 . S
H1066 C1043 0.950 . S
H1067 C1045 0.950 . S
C1068 C1069 1.349 1_565 S
C1068 C1070 1.327 . S
C1068 H1093 0.950 . S
C1069 C1068 1.349 1_545 S
C1069 C1085 1.349 . S
C1070 C1068 1.327 . S
C1070 C1089 1.429 1_565 S
C1070 H1094 0.950 . S
C1071 C1088 1.574 . S
C1071 C1090 1.368 . S
C1071 H1095 0.949 . S
H1072 C1076 0.949 . S
C1073 C1074 1.310 1_545 S
C1073 C1075 1.327 . S
C1073 H1096 0.950 . S
C1074 C1073 1.310 1_565 S
C1074 C1086 1.386 . S
C1075 C1073 1.327 . S
C1075 C1091 1.467 . S
C1075 H1097 0.950 . S
C1076 H1072 0.949 . S
C1076 C1084 1.574 . S
C1076 C1092 1.368 1_565 S
H1077 C1085 0.950 . S
H1078 C1083 0.950 . S
H1079 C1084 0.949 . S
H1080 C1086 0.950 . S
H1081 C1087 0.950 . S
H1082 C1088 0.949 . S
C1083 H1078 0.950 . S
C1083 C1085 1.327 . S
C1083 C1089 1.429 . S
C1084 C1076 1.574 . S
C1084 H1079 0.949 . S
C1084 C1090 1.368 1_565 S
C1085 C1069 1.349 . S
C1085 H1077 0.950 . S
C1085 C1083 1.327 . S
C1086 C1074 1.386 . S
C1086 H1080 0.950 . S
C1086 C1087 1.327 . S
C1087 H1081 0.950 . S
C1087 C1086 1.327 . S
C1087 C1091 1.388 1_565 S
C1088 C1071 1.574 . S
C1088 H1082 0.949 . S
C1088 C1092 1.368 . S
C1089 C1070 1.429 1_545 S
C1089 C1083 1.429 . S
C1089 C1090 1.523 . S
C1090 C1071 1.368 . S
C1090 C1084 1.368 1_545 S
C1090 C1089 1.523 . S
C1091 C1075 1.467 . S
C1091 C1087 1.388 1_545 S
C1091 C1092 1.527 . S
C1092 C1076 1.368 1_545 S
C1092 C1088 1.368 . S
C1092 C1091 1.527 . S
H1093 C1068 0.950 . S
H1094 C1070 0.950 . S
H1095 C1071 0.949 . S
H1096 C1073 0.950 . S
H1097 C1075 0.950 . S
C1098 C1099 1.349 . S
C1098 C1100 1.327 . S
C1098 H1123 0.950 . S
C1099 C1098 1.349 . S
C1099 C1115 1.349 . S
C1100 C1098 1.327 . S
C1100 C1119 1.429 . S
C1100 H1124 0.950 . S
C1101 C1118 1.574 . S
C1101 C1120 1.368 . S
C1101 H1125 0.949 . S
H1102 C1106 0.949 . S
C1103 C1104 1.349 . S
C1103 C1105 1.327 . S
C1103 H1126 0.950 . S
C1104 C1103 1.349 . S
C1104 C1116 1.349 . S
C1105 C1103 1.327 . S
C1105 C1121 1.429 . S
C1105 H1127 0.950 . S
C1106 H1102 0.949 . S
C1106 C1114 1.574 . S
C1106 C1122 1.368 . S
H1107 C1115 0.950 . S
H1108 C1113 0.950 . S
H1109 C1114 0.949 . S
H1110 C1116 0.950 . S
H1111 C1117 0.950 . S
H1112 C1118 0.949 . S
C1113 H1108 0.950 . S
C1113 C1115 1.327 . S
C1113 C1119 1.429 . S
C1114 C1106 1.574 . S
C1114 H1109 0.949 . S
C1114 C1120 1.368 . S
C1115 C1099 1.349 . S
C1115 H1107 0.950 . S
C1115 C1113 1.327 . S
C1116 C1104 1.349 . S
C1116 H1110 0.950 . S
C1116 C1117 1.327 . S
C1117 H1111 0.950 . S
C1117 C1116 1.327 . S
C1117 C1121 1.429 . S
C1118 C1101 1.574 . S
C1118 H1112 0.949 . S
C1118 C1122 1.368 . S
C1119 C1100 1.429 . S
C1119 C1113 1.429 . S
C1119 C1120 1.523 . S
C1120 C1101 1.368 . S
C1120 C1114 1.368 . S
C1120 C1119 1.523 . S
C1121 C1105 1.429 . S
C1121 C1117 1.429 . S
C1121 C1122 1.523 . S
C1122 C1106 1.368 . S
C1122 C1118 1.368 . S
C1122 C1121 1.523 . S
H1123 C1098 0.950 . S
H1124 C1100 0.950 . S
H1125 C1101 0.949 . S
H1126 C1103 0.950 . S
H1127 C1105 0.950 . S
C1128 C1129 1.349 . S
C1128 C1130 1.327 . S
C1128 H1153 0.950 . S
C1129 C1128 1.349 . S
C1129 C1145 1.349 1_554 S
C1130 C1128 1.327 . S
C1130 C1149 1.429 . S
C1130 H1154 0.950 . S
C1131 C1148 1.574 . S
C1131 C1150 1.368 1_556 S
C1131 H1155 0.949 . S
H1132 C1136 0.949 . S
C1133 C1134 1.349 . S
C1133 C1135 1.327 . S
C1133 H1156 0.950 . S
C1134 C1133 1.349 . S
C1134 C1146 1.349 1_556 S
C1135 C1133 1.327 . S
C1135 C1151 1.422 1_556 S
C1135 H1157 0.950 . S
C1136 H1132 0.949 . S
C1136 C1144 1.574 . S
C1136 C1152 1.368 . S
H1137 C1145 0.950 . S
H1138 C1143 0.950 . S
H1139 C1144 0.949 . S
H1140 C1146 0.950 . S
H1141 C1147 0.950 . S
H1142 C1148 0.949 . S
C1143 H1138 0.950 . S
C1143 C1145 1.327 . S
C1143 C1149 1.429 1_556 S
C1144 C1136 1.574 . S
C1144 H1139 0.949 . S
C1144 C1150 1.368 . S
C1145 C1129 1.349 1_556 S
C1145 H1137 0.950 . S
C1145 C1143 1.327 . S
C1146 C1134 1.349 1_554 S
C1146 H1140 0.950 . S
C1146 C1147 1.327 . S
C1147 H1141 0.950 . S
C1147 C1146 1.327 . S
C1147 C1151 1.434 . S
C1148 C1131 1.574 . S
C1148 H1142 0.949 . S
C1148 C1152 1.368 1_556 S
C1149 C1130 1.429 . S
C1149 C1143 1.429 1_554 S
C1149 C1150 1.523 . S
C1150 C1131 1.368 1_554 S
C1150 C1144 1.368 . S
C1150 C1149 1.523 . S
C1151 C1135 1.422 1_554 S
C1151 C1147 1.434 . S
C1151 C1152 1.523 . S
C1152 C1136 1.368 . S
C1152 C1148 1.368 1_554 S
C1152 C1151 1.523 . S
H1153 C1128 0.950 . S
H1154 C1130 0.950 . S
H1155 C1131 0.949 . S
H1156 C1133 0.950 . S
H1157 C1135 0.950 . S
C1158 C1159 1.349 1_556 S
C1158 C1160 1.327 . S
C1158 H1183 0.950 . S
C1159 C1158 1.349 1_554 S
C1159 C1175 1.349 . S
C1160 C1158 1.327 . S
C1160 C1179 1.429 1_556 S
C1160 H1184 0.950 . S
C1161 C1178 1.574 . S
C1161 C1180 1.368 . S
C1161 H1185 0.949 . S
H1162 C1166 0.949 . S
C1163 C1164 1.349 . S
C1163 C1165 1.327 . S
C1163 H1186 0.950 . S
C1164 C1163 1.349 . S
C1164 C1176 1.349 1_554 S
C1165 C1163 1.327 . S
C1165 C1181 1.429 . S
C1165 H1187 0.950 . S
C1166 H1162 0.949 . S
C1166 C1174 1.574 . S
C1166 C1182 1.368 1_556 S
H1167 C1175 0.950 . S
H1168 C1173 0.950 . S
H1169 C1174 0.949 . S
H1170 C1176 0.950 . S
H1171 C1177 0.950 . S
H1172 C1178 0.949 . S
C1173 H1168 0.950 . S
C1173 C1175 1.327 . S
C1173 C1179 1.429 . S
C1174 C1166 1.574 . S
C1174 H1169 0.949 . S
C1174 C1180 1.368 1_556 S
C1175 C1159 1.349 . S
C1175 H1167 0.950 . S
C1175 C1173 1.327 . S
C1176 C1164 1.349 1_556 S
C1176 H1170 0.950 . S
C1176 C1177 1.327 . S
C1177 H1171 0.950 . S
C1177 C1176 1.327 . S
C1177 C1181 1.429 1_556 S
C1178 C1161 1.574 . S
C1178 H1172 0.949 . S
C1178 C1182 1.368 . S
C1179 C1160 1.429 1_554 S
C1179 C1173 1.429 . S
C1179 C1180 1.523 . S
C1180 C1161 1.368 . S
C1180 C1174 1.368 1_554 S
C1180 C1179 1.523 . S
C1181 C1165 1.429 . S
C1181 C1177 1.429 1_554 S
C1181 C1182 1.523 . S
C1182 C1166 1.368 1_554 S
C1182 C1178 1.368 . S
C1182 C1181 1.523 . S
H1183 C1158 0.950 . S
H1184 C1160 0.950 . S
H1185 C1161 0.949 . S
H1186 C1163 0.950 . S
H1187 C1165 0.950 . S
C1188 C1189 1.349 . S
C1188 C1190 1.327 . S
C1188 H1213 0.950 . S
C1189 C1188 1.349 . S
C1189 C1205 1.349 . S
C1190 C1188 1.327 . S
C1190 C1209 1.429 . S
C1190 H1214 0.950 . S
C1191 C1208 1.574 . S
C1191 C1210 1.368 . S
C1191 H1215 0.949 . S
H1192 C1196 0.949 . S
C1193 C1194 1.349 . S
C1193 C1195 1.327 . S
C1193 H1216 0.950 . S
C1194 C1193 1.349 . S
C1194 C1206 1.349 . S
C1195 C1193 1.327 . S
C1195 C1211 1.429 . S
C1195 H1217 0.950 . S
C1196 H1192 0.949 . S
C1196 C1204 1.574 . S
C1196 C1212 1.368 . S
H1197 C1205 0.950 . S
H1198 C1203 0.950 . S
H1199 C1204 0.949 . S
H1200 C1206 0.950 . S
H1201 C1207 0.950 . S
H1202 C1208 0.949 . S
C1203 H1198 0.950 . S
C1203 C1205 1.327 . S
C1203 C1209 1.429 . S
C1204 C1196 1.574 . S
C1204 H1199 0.949 . S
C1204 C1210 1.368 . S
C1205 C1189 1.349 . S
C1205 H1197 0.950 . S
C1205 C1203 1.327 . S
C1206 C1194 1.349 . S
C1206 H1200 0.950 . S
C1206 C1207 1.327 . S
C1207 H1201 0.950 . S
C1207 C1206 1.327 . S
C1207 C1211 1.429 . S
C1208 C1191 1.574 . S
C1208 H1202 0.949 . S
C1208 C1212 1.368 . S
C1209 C1190 1.429 . S
C1209 C1203 1.429 . S
C1209 C1210 1.523 . S
C1210 C1191 1.368 . S
C1210 C1204 1.368 . S
C1210 C1209 1.523 . S
C1211 C1195 1.429 . S
C1211 C1207 1.429 . S
C1211 C1212 1.523 . S
C1212 C1196 1.368 . S
C1212 C1208 1.368 . S
C1212 C1211 1.523 . S
H1213 C1188 0.950 . S
H1214 C1190 0.950 . S
H1215 C1191 0.949 . S
H1216 C1193 0.950 . S
H1217 C1195 0.950 . S
C1218 C1219 1.349 . S
C1218 C1220 1.327 . S
C1218 H1243 0.950 . S
C1219 C1218 1.349 . S
C1219 C1235 1.349 . S
C1220 C1218 1.327 . S
C1220 C1239 1.429 . S
C1220 H1244 0.950 . S
C1221 C1238 1.574 . S
C1221 C1240 1.368 . S
C1221 H1245 0.949 . S
H1222 C1226 0.949 . S
C1223 C1224 1.349 . S
C1223 C1225 1.327 . S
C1223 H1246 0.950 . S
C1224 C1223 1.349 . S
C1224 C1236 1.349 . S
C1225 C1223 1.327 . S
C1225 C1241 1.429 . S
C1225 H1247 0.950 . S
C1226 H1222 0.949 . S
C1226 C1234 1.574 . S
C1226 C1242 1.368 . S
H1227 C1235 0.950 . S
H1228 C1233 0.950 . S
H1229 C1234 0.949 . S
H1230 C1236 0.950 . S
H1231 C1237 0.950 . S
H1232 C1238 0.949 . S
C1233 H1228 0.950 . S
C1233 C1235 1.327 . S
C1233 C1239 1.429 . S
C1234 C1226 1.574 . S
C1234 H1229 0.949 . S
C1234 C1240 1.368 . S
C1235 C1219 1.349 . S
C1235 H1227 0.950 . S
C1235 C1233 1.327 . S
C1236 C1224 1.349 . S
C1236 H1230 0.950 . S
C1236 C1237 1.327 . S
C1237 H1231 0.950 . S
C1237 C1236 1.327 . S
C1237 C1241 1.429 . S
C1238 C1221 1.574 . S
C1238 H1232 0.949 . S
C1238 C1242 1.368 . S
C1239 C1220 1.429 . S
C1239 C1233 1.429 . S
C1239 C1240 1.523 . S
C1240 C1221 1.368 . S
C1240 C1234 1.368 . S
C1240 C1239 1.523 . S
C1241 C1225 1.429 . S
C1241 C1237 1.429 . S
C1241 C1242 1.523 . S
C1242 C1226 1.368 . S
C1242 C1238 1.368 . S
C1242 C1241 1.523 . S
H1243 C1218 0.950 . S
H1244 C1220 0.950 . S
H1245 C1221 0.949 . S
H1246 C1223 0.950 . S
H1247 C1225 0.950 . S
C1248 C1249 1.349 . S
C1248 C1250 1.327 . S
C1248 H1273 0.950 . S
C1249 C1248 1.349 . S
C1249 C1265 1.349 . S
C1250 C1248 1.327 . S
C1250 C1269 1.429 . S
C1250 H1274 0.950 . S
C1251 C1268 1.574 . S
C1251 C1270 1.368 . S
C1251 H1275 0.949 . S
H1252 C1256 0.949 . S
C1253 C1254 1.349 . S
C1253 C1255 1.327 . S
C1253 H1276 0.950 . S
C1254 C1253 1.349 . S
C1254 C1266 1.349 . S
C1255 C1253 1.327 . S
C1255 C1271 1.429 . S
C1255 H1277 0.950 . S
C1256 H1252 0.949 . S
C1256 C1264 1.574 . S
C1256 C1272 1.368 . S
H1257 C1265 0.950 . S
H1258 C1263 0.950 . S
H1259 C1264 0.949 . S
H1260 C1266 0.950 . S
H1261 C1267 0.950 . S
H1262 C1268 0.949 . S
C1263 H1258 0.950 . S
C1263 C1265 1.327 . S
C1263 C1269 1.429 . S
C1264 C1256 1.574 . S
C1264 H1259 0.949 . S
C1264 C1270 1.368 . S
C1265 C1249 1.349 . S
C1265 H1257 0.950 . S
C1265 C1263 1.327 . S
C1266 C1254 1.349 . S
C1266 H1260 0.950 . S
C1266 C1267 1.327 . S
C1267 H1261 0.950 . S
C1267 C1266 1.327 . S
C1267 C1271 1.429 . S
C1268 C1251 1.574 . S
C1268 H1262 0.949 . S
C1268 C1272 1.368 . S
C1269 C1250 1.429 . S
C1269 C1263 1.429 . S
C1269 C1270 1.523 . S
C1270 C1251 1.368 . S
C1270 C1264 1.368 . S
C1270 C1269 1.523 . S
C1271 C1255 1.429 . S
C1271 C1267 1.429 . S
C1271 C1272 1.523 . S
C1272 C1256 1.368 . S
C1272 C1268 1.368 . S
C1272 C1271 1.523 . S
H1273 C1248 0.950 . S
H1274 C1250 0.950 . S
H1275 C1251 0.949 . S
H1276 C1253 0.950 . S
H1277 C1255 0.950 . S
C1278 C1279 1.349 . S
C1278 C1280 1.327 . S
C1278 H1303 0.950 . S
C1279 C1278 1.349 . S
C1279 C1295 1.349 . S
C1280 C1278 1.327 . S
C1280 C1299 1.429 . S
C1280 H1304 0.950 . S
C1281 C1298 1.574 . S
C1281 C1300 1.368 . S
C1281 H1305 0.949 . S
H1282 C1286 0.949 . S
C1283 C1284 1.349 . S
C1283 C1285 1.327 . S
C1283 H1306 0.950 . S
C1284 C1283 1.349 . S
C1284 C1296 1.349 . S
C1285 C1283 1.327 . S
C1285 C1301 1.429 . S
C1285 H1307 0.950 . S
C1286 H1282 0.949 . S
C1286 C1294 1.574 . S
C1286 C1302 1.368 . S
H1287 C1295 0.950 . S
H1288 C1293 0.950 . S
H1289 C1294 0.949 . S
H1290 C1296 0.950 . S
H1291 C1297 0.950 . S
H1292 C1298 0.949 . S
C1293 H1288 0.950 . S
C1293 C1295 1.327 . S
C1293 C1299 1.429 . S
C1294 C1286 1.574 . S
C1294 H1289 0.949 . S
C1294 C1300 1.368 . S
C1295 C1279 1.349 . S
C1295 H1287 0.950 . S
C1295 C1293 1.327 . S
C1296 C1284 1.349 . S
C1296 H1290 0.950 . S
C1296 C1297 1.327 . S
C1297 H1291 0.950 . S
C1297 C1296 1.327 . S
C1297 C1301 1.429 . S
C1298 C1281 1.574 . S
C1298 H1292 0.949 . S
C1298 C1302 1.368 . S
C1299 C1280 1.429 . S
C1299 C1293 1.429 . S
C1299 C1300 1.523 . S
C1300 C1281 1.368 . S
C1300 C1294 1.368 . S
C1300 C1299 1.523 . S
C1301 C1285 1.429 . S
C1301 C1297 1.429 . S
C1301 C1302 1.523 . S
C1302 C1286 1.368 . S
C1302 C1298 1.368 . S
C1302 C1301 1.523 . S
H1303 C1278 0.950 . S
H1304 C1280 0.950 . S
H1305 C1281 0.949 . S
H1306 C1283 0.950 . S
H1307 C1285 0.950 . S
C1308 C1309 1.349 . S
C1308 C1310 1.327 . S
C1308 H1333 0.950 . S
C1309 C1308 1.349 . S
C1309 C1325 1.349 . S
C1310 C1308 1.327 . S
C1310 C1329 1.429 . S
C1310 H1334 0.950 . S
C1311 C1328 1.574 . S
C1311 C1330 1.368 . S
C1311 H1335 0.949 . S
H1312 C1316 0.949 . S
C1313 C1314 1.349 . S
C1313 C1315 1.327 . S
C1313 H1336 0.950 . S
C1314 C1313 1.349 . S
C1314 C1326 1.349 . S
C1315 C1313 1.327 . S
C1315 C1331 1.429 . S
C1315 H1337 0.950 . S
C1316 H1312 0.949 . S
C1316 C1324 1.574 . S
C1316 C1332 1.368 . S
H1317 C1325 0.950 . S
H1318 C1323 0.950 . S
H1319 C1324 0.949 . S
H1320 C1326 0.950 . S
H1321 C1327 0.950 . S
H1322 C1328 0.949 . S
C1323 H1318 0.950 . S
C1323 C1325 1.327 . S
C1323 C1329 1.429 . S
C1324 C1316 1.574 . S
C1324 H1319 0.949 . S
C1324 C1330 1.368 . S
C1325 C1309 1.349 . S
C1325 H1317 0.950 . S
C1325 C1323 1.327 . S
C1326 C1314 1.349 . S
C1326 H1320 0.950 . S
C1326 C1327 1.327 . S
C1327 H1321 0.950 . S
C1327 C1326 1.327 . S
C1327 C1331 1.429 . S
C1328 C1311 1.574 . S
C1328 H1322 0.949 . S
C1328 C1332 1.368 . S
C1329 C1310 1.429 . S
C1329 C1323 1.429 . S
C1329 C1330 1.523 . S
C1330 C1311 1.368 . S
C1330 C1324 1.368 . S
C1330 C1329 1.523 . S
C1331 C1315 1.429 . S
C1331 C1327 1.429 . S
C1331 C1332 1.523 . S
C1332 C1316 1.368 . S
C1332 C1328 1.368 . S
C1332 C1331 1.523 . S
H1333 C1308 0.950 . S
H1334 C1310 0.950 . S
H1335 C1311 0.949 . S
H1336 C1313 0.950 . S
H1337 C1315 0.950 . S
C1338 C1339 1.349 . S
C1338 C1340 1.327 . S
C1338 H1363 0.950 . S
C1339 C1338 1.349 . S
C1339 C1355 1.349 . S
C1340 C1338 1.327 . S
C1340 C1359 1.429 . S
C1340 H1364 0.950 . S
C1341 C1358 1.574 . S
C1341 C1360 1.368 . S
C1341 H1365 0.949 . S
H1342 C1346 0.949 . S
C1343 C1344 1.349 . S
C1343 C1345 1.327 . S
C1343 H1366 0.950 . S
C1344 C1343 1.349 . S
C1344 C1356 1.349 . S
C1345 C1343 1.327 . S
C1345 C1361 1.429 . S
C1345 H1367 0.950 . S
C1346 H1342 0.949 . S
C1346 C1354 1.574 . S
C1346 C1362 1.368 . S
H1347 C1355 0.950 . S
H1348 C1353 0.950 . S
H1349 C1354 0.949 . S
H1350 C1356 0.950 . S
H1351 C1357 0.950 . S
H1352 C1358 0.949 . S
C1353 H1348 0.950 . S
C1353 C1355 1.327 . S
C1353 C1359 1.429 . S
C1354 C1346 1.574 . S
C1354 H1349 0.949 . S
C1354 C1360 1.368 . S
C1355 C1339 1.349 . S
C1355 H1347 0.950 . S
C1355 C1353 1.327 . S
C1356 C1344 1.349 . S
C1356 H1350 0.950 . S
C1356 C1357 1.327 . S
C1357 H1351 0.950 . S
C1357 C1356 1.327 . S
C1357 C1361 1.429 . S
C1358 C1341 1.574 . S
C1358 H1352 0.949 . S
C1358 C1362 1.368 . S
C1359 C1340 1.429 . S
C1359 C1353 1.429 . S
C1359 C1360 1.523 . S
C1360 C1341 1.368 . S
C1360 C1354 1.368 . S
C1360 C1359 1.523 . S
C1361 C1345 1.429 . S
C1361 C1357 1.429 . S
C1361 C1362 1.523 . S
C1362 C1346 1.368 . S
C1362 C1358 1.368 . S
C1362 C1361 1.523 . S
H1363 C1338 0.950 . S
H1364 C1340 0.950 . S
H1365 C1341 0.949 . S
H1366 C1343 0.950 . S
H1367 C1345 0.950 . S
C1368 C1369 1.349 . S
C1368 C1370 1.327 . S
C1368 H1393 0.950 . S
C1369 C1368 1.349 . S
C1369 C1385 1.349 . S
C1370 C1368 1.327 . S
C1370 C1389 1.429 . S
C1370 H1394 0.950 . S
C1371 C1388 1.574 . S
C1371 C1390 1.368 . S
C1371 H1395 0.949 . S
H1372 C1376 0.949 . S
C1373 C1374 1.349 . S
C1373 C1375 1.327 . S
C1373 H1396 0.950 1_556 S
C1374 C1373 1.349 . S
C1374 C1386 1.349 . S
C1375 C1373 1.327 . S
C1375 C1391 1.429 . S
C1375 H1397 0.950 . S
C1376 H1372 0.949 . S
C1376 C1384 1.574 . S
C1376 C1392 1.368 . S
H1377 C1385 0.950 . S
H1378 C1383 0.950 . S
H1379 C1384 0.949 . S
H1380 C1386 0.950 . S
H1381 C1387 0.950 . S
H1382 C1388 0.949 . S
C1383 H1378 0.950 . S
C1383 C1385 1.327 . S
C1383 C1389 1.429 . S
C1384 C1376 1.574 . S
C1384 H1379 0.949 . S
C1384 C1390 1.368 . S
C1385 C1369 1.349 . S
C1385 H1377 0.950 . S
C1385 C1383 1.327 . S
C1386 C1374 1.349 . S
C1386 H1380 0.950 . S
C1386 C1387 1.327 . S
C1387 H1381 0.950 . S
C1387 C1386 1.327 . S
C1387 C1391 1.429 . S
C1388 C1371 1.574 . S
C1388 H1382 0.949 . S
C1388 C1392 1.368 . S
C1389 C1370 1.429 . S
C1389 C1383 1.429 . S
C1389 C1390 1.523 . S
C1390 C1371 1.368 . S
C1390 C1384 1.368 . S
C1390 C1389 1.523 . S
C1391 C1375 1.429 . S
C1391 C1387 1.429 . S
C1391 C1392 1.523 . S
C1392 C1376 1.368 . S
C1392 C1388 1.368 . S
C1392 C1391 1.523 . S
H1393 C1368 0.950 . S
H1394 C1370 0.950 . S
H1395 C1371 0.949 . S
H1396 C1373 0.950 1_554 S
H1397 C1375 0.950 . S
C1398 C1399 1.349 . S
C1398 C1400 1.327 . S
C1398 H1423 0.950 . S
C1399 C1398 1.349 . S
C1399 C1415 1.349 . S
C1400 C1398 1.327 . S
C1400 C1419 1.429 . S
C1400 H1424 0.950 . S
C1401 C1418 1.574 . S
C1401 C1420 1.368 . S
C1401 H1425 0.949 . S
H1402 C1406 0.949 . S
C1403 C1404 1.349 . S
C1403 C1405 1.327 . S
C1403 H1426 0.950 . S
C1404 C1403 1.349 . S
C1404 C1416 1.349 . S
C1405 C1403 1.327 . S
C1405 C1421 1.429 . S
C1405 H1427 0.950 . S
C1406 H1402 0.949 . S
C1406 C1414 1.574 . S
C1406 C1422 1.368 . S
H1407 C1415 0.950 . S
H1408 C1413 0.950 . S
H1409 C1414 0.949 . S
H1410 C1416 0.950 . S
H1411 C1417 0.950 . S
H1412 C1418 0.949 . S
C1413 H1408 0.950 . S
C1413 C1415 1.327 . S
C1413 C1419 1.429 . S
C1414 C1406 1.574 . S
C1414 H1409 0.949 . S
C1414 C1420 1.368 . S
C1415 C1399 1.349 . S
C1415 H1407 0.950 . S
C1415 C1413 1.327 . S
C1416 C1404 1.349 . S
C1416 H1410 0.950 . S
C1416 C1417 1.327 . S
C1417 H1411 0.950 . S
C1417 C1416 1.327 . S
C1417 C1421 1.429 . S
C1418 C1401 1.574 . S
C1418 H1412 0.949 . S
C1418 C1422 1.368 . S
C1419 C1400 1.429 . S
C1419 C1413 1.429 . S
C1419 C1420 1.523 . S
C1420 C1401 1.368 . S
C1420 C1414 1.368 . S
C1420 C1419 1.523 . S
C1421 C1405 1.429 . S
C1421 C1417 1.429 . S
C1421 C1422 1.523 . S
C1422 C1406 1.368 . S
C1422 C1418 1.368 . S
C1422 C1421 1.523 . S
H1423 C1398 0.950 . S
H1424 C1400 0.950 . S
H1425 C1401 0.949 . S
H1426 C1403 0.950 . S
H1427 C1405 0.950 . S
C1428 C1429 1.349 . S
C1428 C1430 1.327 . S
C1428 H1453 0.950 . S
C1429 C1428 1.349 . S
C1429 C1445 1.349 . S
C1430 C1428 1.327 . S
C1430 C1449 1.429 . S
C1430 H1454 0.950 . S
C1431 C1448 1.574 . S
C1431 C1450 1.368 . S
C1431 H1455 0.949 . S
H1432 C1436 0.949 . S
C1433 C1434 1.349 . S
C1433 C1435 1.327 . S
C1433 H1456 0.950 . S
C1434 C1433 1.349 . S
C1434 C1446 1.349 . S
C1435 C1433 1.327 . S
C1435 C1451 1.429 . S
C1435 H1457 0.950 . S
C1436 H1432 0.949 . S
C1436 C1444 1.574 . S
C1436 C1452 1.368 . S
H1437 C1445 0.950 . S
H1438 C1443 0.950 . S
H1439 C1444 0.949 . S
H1440 C1446 0.950 . S
H1441 C1447 0.950 . S
H1442 C1448 0.949 . S
C1443 H1438 0.950 . S
C1443 C1445 1.327 . S
C1443 C1449 1.429 . S
C1444 C1436 1.574 . S
C1444 H1439 0.949 . S
C1444 C1450 1.368 . S
C1445 C1429 1.349 . S
C1445 H1437 0.950 . S
C1445 C1443 1.327 . S
C1446 C1434 1.349 . S
C1446 H1440 0.950 . S
C1446 C1447 1.327 . S
C1447 H1441 0.950 . S
C1447 C1446 1.327 . S
C1447 C1451 1.429 . S
C1448 C1431 1.574 . S
C1448 H1442 0.949 . S
C1448 C1452 1.368 . S
C1449 C1430 1.429 . S
C1449 C1443 1.429 . S
C1449 C1450 1.523 . S
C1450 C1431 1.368 . S
C1450 C1444 1.368 . S
C1450 C1449 1.523 . S
C1451 C1435 1.429 . S
C1451 C1447 1.429 . S
C1451 C1452 1.523 . S
C1452 C1436 1.368 . S
C1452 C1448 1.368 . S
C1452 C1451 1.523 . S
H1453 C1428 0.950 . S
H1454 C1430 0.950 . S
H1455 C1431 0.949 . S
H1456 C1433 0.950 . S
H1457 C1435 0.950 . S
C1458 C1459 1.349 . S
C1458 C1460 1.327 . S
C1458 H1483 0.950 . S
C1459 C1458 1.349 . S
C1459 C1475 1.349 . S
C1460 C1458 1.327 . S
C1460 C1479 1.429 . S
C1460 H1484 0.950 . S
C1461 C1478 1.574 . S
C1461 C1480 1.368 . S
C1461 H1485 0.949 . S
H1462 C1466 0.949 . S
C1463 C1464 1.349 . S
C1463 C1465 1.327 . S
C1463 H1486 0.950 . S
C1464 C1463 1.349 . S
C1464 C1476 1.349 . S
C1465 C1463 1.327 . S
C1465 C1481 1.429 . S
C1465 H1487 0.950 . S
C1466 H1462 0.949 . S
C1466 C1474 1.574 . S
C1466 C1482 1.368 . S
H1467 C1475 0.950 . S
H1468 C1473 0.950 . S
H1469 C1474 0.949 . S
H1470 C1476 0.950 . S
H1471 C1477 0.950 . S
H1472 C1478 0.949 . S
C1473 H1468 0.950 . S
C1473 C1475 1.327 . S
C1473 C1479 1.429 . S
C1474 C1466 1.574 . S
C1474 H1469 0.949 . S
C1474 C1480 1.368 . S
C1475 C1459 1.349 . S
C1475 H1467 0.950 . S
C1475 C1473 1.327 . S
C1476 C1464 1.349 . S
C1476 H1470 0.950 . S
C1476 C1477 1.327 . S
C1477 H1471 0.950 . S
C1477 C1476 1.327 . S
C1477 C1481 1.429 . S
C1478 C1461 1.574 . S
C1478 H1472 0.949 . S
C1478 C1482 1.368 . S
C1479 C1460 1.429 . S
C1479 C1473 1.429 . S
C1479 C1480 1.523 . S
C1480 C1461 1.368 . S
C1480 C1474 1.368 . S
C1480 C1479 1.523 . S
C1481 C1465 1.429 . S
C1481 C1477 1.429 . S
C1481 C1482 1.523 . S
C1482 C1466 1.368 . S
C1482 C1478 1.368 . S
C1482 C1481 1.523 . S
H1483 C1458 0.950 . S
H1484 C1460 0.950 . S
H1485 C1461 0.949 . S
H1486 C1463 0.950 . S
H1487 C1465 0.950 . S
C1488 C1489 1.349 1_655 S
C1488 C1490 1.327 . S
C1488 H1513 0.950 . S
C1489 C1488 1.349 1_455 S
C1489 C1505 1.349 . S
C1490 C1488 1.327 . S
C1490 C1509 1.429 1_655 S
C1490 H1514 0.950 . S
C1491 C1508 1.574 . S
C1491 C1510 1.368 . S
C1491 H1515 0.949 . S
H1492 C1496 0.949 . S
C1493 C1494 1.349 . S
C1493 C1495 1.327 . S
C1493 H1516 0.950 . S
C1494 C1493 1.349 . S
C1494 C1506 1.349 . S
C1495 C1493 1.327 . S
C1495 C1511 1.429 . S
C1495 H1517 0.950 . S
C1496 H1492 0.949 . S
C1496 C1504 1.574 . S
C1496 C1512 1.368 1_655 S
H1497 C1505 0.950 . S
H1498 C1503 0.950 . S
H1499 C1504 0.949 . S
H1500 C1506 0.950 1_655 S
H1501 C1507 0.921 1_655 S
H1502 C1508 0.949 . S
C1503 H1498 0.950 . S
C1503 C1505 1.327 . S
C1503 C1509 1.429 . S
C1504 C1496 1.574 . S
C1504 H1499 0.949 . S
C1504 C1510 1.368 1_655 S
C1505 C1489 1.349 . S
C1505 H1497 0.950 . S
C1505 C1503 1.327 . S
C1506 C1494 1.349 . S
C1506 H1500 0.950 1_455 S
C1506 C1507 1.332 . S
C1507 H1501 0.921 1_455 S
C1507 C1506 1.332 . S
C1507 C1511 1.454 . S
C1508 C1491 1.574 . S
C1508 H1502 0.949 . S
C1508 C1512 1.368 . S
C1509 C1490 1.429 1_455 S
C1509 C1503 1.429 . S
C1509 C1510 1.523 . S
C1510 C1491 1.368 . S
C1510 C1504 1.368 1_455 S
C1510 C1509 1.523 . S
C1511 C1495 1.429 . S
C1511 C1507 1.454 . S
C1511 C1512 1.523 . S
C1512 C1496 1.368 1_455 S
C1512 C1508 1.368 . S
C1512 C1511 1.523 . S
H1513 C1488 0.950 . S
H1514 C1490 0.950 . S
H1515 C1491 0.949 . S
H1516 C1493 0.950 . S
H1517 C1495 0.950 . S
C1518 C1519 1.349 . S
C1518 C1520 1.327 . S
C1518 H1543 0.950 . S
C1519 C1518 1.349 . S
C1519 C1535 1.349 . S
C1520 C1518 1.327 . S
C1520 C1539 1.429 . S
C1520 H1544 0.950 . S
C1521 C1538 1.574 . S
C1521 C1540 1.368 . S
C1521 H1545 0.949 . S
H1522 C1526 0.949 . S
C1523 C1524 1.349 . S
C1523 C1525 1.327 . S
C1523 H1546 0.950 . S
C1524 C1523 1.349 . S
C1524 C1536 1.349 . S
C1525 C1523 1.327 . S
C1525 C1541 1.429 . S
C1525 H1547 0.950 . S
C1526 H1522 0.949 . S
C1526 C1534 1.574 . S
C1526 C1542 1.368 . S
H1527 C1535 0.950 . S
H1528 C1533 0.950 . S
H1529 C1534 0.949 . S
H1530 C1536 0.950 . S
H1531 C1537 0.950 . S
H1532 C1538 0.949 . S
C1533 H1528 0.950 . S
C1533 C1535 1.327 . S
C1533 C1539 1.429 . S
C1534 C1526 1.574 . S
C1534 H1529 0.949 . S
C1534 C1540 1.368 . S
C1535 C1519 1.349 . S
C1535 H1527 0.950 . S
C1535 C1533 1.327 . S
C1536 C1524 1.349 . S
C1536 H1530 0.950 . S
C1536 C1537 1.327 . S
C1537 H1531 0.950 . S
C1537 C1536 1.327 . S
C1537 C1541 1.429 . S
C1538 C1521 1.574 . S
C1538 H1532 0.949 . S
C1538 C1542 1.368 . S
C1539 C1520 1.429 . S
C1539 C1533 1.429 . S
C1539 C1540 1.523 . S
C1540 C1521 1.368 . S
C1540 C1534 1.368 . S
C1540 C1539 1.523 . S
C1541 C1525 1.429 . S
C1541 C1537 1.429 . S
C1541 C1542 1.523 . S
C1542 C1526 1.368 . S
C1542 C1538 1.368 . S
C1542 C1541 1.523 . S
H1543 C1518 0.950 . S
H1544 C1520 0.950 . S
H1545 C1521 0.949 . S
H1546 C1523 0.950 . S
H1547 C1525 0.950 . S
C1548 C1549 1.349 . S
C1548 C1550 1.327 . S
C1548 H1573 0.950 . S
C1549 C1548 1.349 . S
C1549 C1565 1.349 . S
C1550 C1548 1.327 . S
C1550 C1569 1.429 . S
C1550 H1574 0.950 . S
C1551 C1568 1.574 . S
C1551 C1570 1.368 . S
C1551 H1575 0.949 . S
H1552 C1556 0.949 . S
C1553 C1554 1.349 . S
C1553 C1555 1.327 . S
C1553 H1576 0.950 . S
C1554 C1553 1.349 . S
C1554 C1566 1.349 . S
C1555 C1553 1.327 . S
C1555 C1571 1.429 . S
C1555 H1577 0.950 . S
C1556 H1552 0.949 . S
C1556 C1564 1.574 . S
C1556 C1572 1.368 . S
H1557 C1565 0.950 . S
H1558 C1563 0.950 . S
H1559 C1564 0.949 . S
H1560 C1566 0.950 . S
H1561 C1567 0.950 . S
H1562 C1568 0.949 . S
C1563 H1558 0.950 . S
C1563 C1565 1.327 . S
C1563 C1569 1.429 . S
C1564 C1556 1.574 . S
C1564 H1559 0.949 . S
C1564 C1570 1.368 . S
C1565 C1549 1.349 . S
C1565 H1557 0.950 . S
C1565 C1563 1.327 . S
C1566 C1554 1.349 . S
C1566 H1560 0.950 . S
C1566 C1567 1.327 . S
C1567 H1561 0.950 . S
C1567 C1566 1.327 . S
C1567 C1571 1.429 . S
C1568 C1551 1.574 . S
C1568 H1562 0.949 . S
C1568 C1572 1.368 . S
C1569 C1550 1.429 . S
C1569 C1563 1.429 . S
C1569 C1570 1.523 . S
C1570 C1551 1.368 . S
C1570 C1564 1.368 . S
C1570 C1569 1.523 . S
C1571 C1555 1.429 . S
C1571 C1567 1.429 . S
C1571 C1572 1.523 . S
C1572 C1556 1.368 . S
C1572 C1568 1.368 . S
C1572 C1571 1.523 . S
H1573 C1548 0.950 . S
H1574 C1550 0.950 . S
H1575 C1551 0.949 . S
H1576 C1553 0.950 . S
H1577 C1555 0.950 . S
C1578 C1579 1.349 . S
C1578 C1580 1.327 . S
C1578 H1603 0.950 . S
C1579 C1578 1.349 . S
C1579 C1595 1.349 . S
C1580 C1578 1.327 . S
C1580 C1599 1.429 . S
C1580 H1604 0.950 . S
C1581 C1598 1.574 . S
C1581 C1600 1.368 . S
C1581 H1605 0.949 . S
H1582 C1586 0.949 . S
C1583 C1584 1.349 . S
C1583 C1585 1.327 . S
C1583 H1606 0.950 . S
C1584 C1583 1.349 . S
C1584 C1596 1.349 . S
C1585 C1583 1.327 . S
C1585 C1601 1.429 . S
C1585 H1607 0.950 . S
C1586 H1582 0.949 . S
C1586 C1594 1.574 . S
C1586 C1602 1.368 . S
H1587 C1595 0.950 . S
H1588 C1593 0.950 . S
H1589 C1594 0.949 . S
H1590 C1596 0.950 . S
H1591 C1597 0.950 . S
H1592 C1598 0.949 . S
C1593 H1588 0.950 . S
C1593 C1595 1.327 . S
C1593 C1599 1.429 . S
C1594 C1586 1.574 . S
C1594 H1589 0.949 . S
C1594 C1600 1.368 . S
C1595 C1579 1.349 . S
C1595 H1587 0.950 . S
C1595 C1593 1.327 . S
C1596 C1584 1.349 . S
C1596 H1590 0.950 . S
C1596 C1597 1.327 . S
C1597 H1591 0.950 . S
C1597 C1596 1.327 . S
C1597 C1601 1.429 . S
C1598 C1581 1.574 . S
C1598 H1592 0.949 . S
C1598 C1602 1.368 . S
C1599 C1580 1.429 . S
C1599 C1593 1.429 . S
C1599 C1600 1.523 . S
C1600 C1581 1.368 . S
C1600 C1594 1.368 . S
C1600 C1599 1.523 . S
C1601 C1585 1.429 . S
C1601 C1597 1.429 . S
C1601 C1602 1.523 . S
C1602 C1586 1.368 . S
C1602 C1598 1.368 . S
C1602 C1601 1.523 . S
H1603 C1578 0.950 . S
H1604 C1580 0.950 . S
H1605 C1581 0.949 . S
H1606 C1583 0.950 . S
H1607 C1585 0.950 . S
C1608 C1609 1.349 . S
C1608 C1610 1.327 . S
C1608 H1633 0.950 . S
C1609 C1608 1.349 . S
C1609 C1625 1.349 1_545 S
C1610 C1608 1.327 . S
C1610 C1629 1.429 . S
C1610 H1634 0.950 . S
C1611 C1628 1.574 . S
C1611 C1630 1.368 1_565 S
C1611 H1635 0.949 . S
H1612 C1616 0.949 . S
C1613 C1614 1.349 1_565 S
C1613 C1615 1.327 . S
C1613 H1636 0.950 . S
C1614 C1613 1.349 1_545 S
C1614 C1626 1.349 . S
C1615 C1613 1.327 . S
C1615 C1631 1.429 1_565 S
C1615 H1637 0.950 . S
C1616 H1612 0.949 . S
C1616 C1624 1.574 . S
C1616 C1632 1.368 . S
H1617 C1625 0.950 . S
H1618 C1623 0.950 . S
H1619 C1624 0.949 . S
H1620 C1626 0.950 . S
H1621 C1627 0.950 . S
H1622 C1628 0.949 . S
C1623 H1618 0.950 . S
C1623 C1625 1.327 . S
C1623 C1629 1.429 1_565 S
C1624 C1616 1.574 . S
C1624 H1619 0.949 . S
C1624 C1630 1.368 . S
C1625 C1609 1.349 1_565 S
C1625 H1617 0.950 . S
C1625 C1623 1.327 . S
C1626 C1614 1.349 . S
C1626 H1620 0.950 . S
C1626 C1627 1.327 . S
C1627 H1621 0.950 . S
C1627 C1626 1.327 . S
C1627 C1631 1.429 . S
C1628 C1611 1.574 . S
C1628 H1622 0.949 . S
C1628 C1632 1.368 1_565 S
C1629 C1610 1.429 . S
C1629 C1623 1.429 1_545 S
C1629 C1630 1.523 . S
C1630 C1611 1.368 1_545 S
C1630 C1624 1.368 . S
C1630 C1629 1.523 . S
C1631 C1615 1.429 1_545 S
C1631 C1627 1.429 . S
C1631 C1632 1.523 . S
C1632 C1616 1.368 . S
C1632 C1628 1.368 1_545 S
C1632 C1631 1.523 . S
H1633 C1608 0.950 . S
H1634 C1610 0.950 . S
H1635 C1611 0.949 . S
H1636 C1613 0.950 . S
H1637 C1615 0.950 . S
C1638 C1639 1.349 . S
C1638 C1640 1.327 . S
C1638 H1663 0.950 . S
C1639 C1638 1.349 . S
C1639 C1655 1.349 . S
C1640 C1638 1.327 . S
C1640 C1659 1.429 . S
C1640 H1664 0.950 . S
C1641 C1658 1.574 . S
C1641 C1660 1.368 . S
C1641 H1665 0.949 . S
H1642 C1646 0.949 . S
C1643 C1644 1.349 . S
C1643 C1645 1.327 . S
C1643 H1666 0.950 . S
C1644 C1643 1.349 . S
C1644 C1656 1.349 . S
C1645 C1643 1.327 . S
C1645 C1661 1.429 . S
C1645 H1667 0.950 . S
C1646 H1642 0.949 . S
C1646 C1654 1.574 . S
C1646 C1662 1.368 . S
H1647 C1655 0.950 . S
H1648 C1653 0.950 . S
H1649 C1654 0.949 . S
H1650 C1656 0.950 . S
H1651 C1657 0.950 . S
H1652 C1658 0.949 . S
C1653 H1648 0.950 . S
C1653 C1655 1.327 . S
C1653 C1659 1.429 . S
C1654 C1646 1.574 . S
C1654 H1649 0.949 . S
C1654 C1660 1.368 . S
C1655 C1639 1.349 . S
C1655 H1647 0.950 . S
C1655 C1653 1.327 . S
C1656 C1644 1.349 . S
C1656 H1650 0.950 . S
C1656 C1657 1.327 . S
C1657 H1651 0.950 . S
C1657 C1656 1.327 . S
C1657 C1661 1.429 . S
C1658 C1641 1.574 . S
C1658 H1652 0.949 . S
C1658 C1662 1.368 . S
C1659 C1640 1.429 . S
C1659 C1653 1.429 . S
C1659 C1660 1.523 . S
C1660 C1641 1.368 . S
C1660 C1654 1.368 . S
C1660 C1659 1.523 . S
C1661 C1645 1.429 . S
C1661 C1657 1.429 . S
C1661 C1662 1.523 . S
C1662 C1646 1.368 . S
C1662 C1658 1.368 . S
C1662 C1661 1.523 . S
H1663 C1638 0.950 . S
H1664 C1640 0.950 . S
H1665 C1641 0.949 . S
H1666 C1643 0.950 . S
H1667 C1645 0.950 . S
C1668 C1669 1.349 . S
C1668 C1670 1.327 . S
C1668 H1693 0.950 . S
C1669 C1668 1.349 . S
C1669 C1685 1.349 1_545 S
C1670 C1668 1.327 . S
C1670 C1689 1.429 . S
C1670 H1694 0.950 . S
C1671 C1688 1.574 . S
C1671 C1690 1.368 1_565 S
C1671 H1695 0.949 . S
H1672 C1676 0.949 . S
C1673 C1674 1.349 . S
C1673 C1675 1.327 . S
C1673 H1696 0.950 . S
C1674 C1673 1.349 . S
C1674 C1686 1.349 1_565 S
C1675 C1673 1.327 . S
C1675 C1691 1.449 . S
C1675 H1697 0.950 . S
C1676 H1672 0.949 . S
C1676 C1684 1.574 . S
C1676 C1692 1.372 . S
H1677 C1685 0.950 . S
H1678 C1683 0.950 . S
H1679 C1684 0.949 . S
H1680 C1686 0.950 . S
H1681 C1687 0.950 . S
H1682 C1688 0.949 . S
C1683 H1678 0.950 . S
C1683 C1685 1.327 . S
C1683 C1689 1.429 1_565 S
C1684 C1676 1.574 . S
C1684 H1679 0.949 . S
C1684 C1690 1.368 . S
C1685 C1669 1.349 1_565 S
C1685 H1677 0.950 . S
C1685 C1683 1.327 . S
C1686 C1674 1.349 1_545 S
C1686 H1680 0.950 . S
C1686 C1687 1.327 . S
C1687 H1681 0.950 . S
C1687 C1686 1.327 . S
C1687 C1691 1.410 1_545 S
C1688 C1671 1.574 . S
C1688 H1682 0.949 . S
C1688 C1692 1.365 1_565 S
C1689 C1670 1.429 . S
C1689 C1683 1.429 1_545 S
C1689 C1690 1.523 . S
C1690 C1671 1.368 1_545 S
C1690 C1684 1.368 . S
C1690 C1689 1.523 . S
C1691 C1675 1.449 . S
C1691 C1687 1.410 1_565 S
C1691 C1692 1.522 1_565 S
C1692 C1676 1.372 . S
C1692 C1688 1.365 1_545 S
C1692 C1691 1.522 1_545 S
H1693 C1668 0.950 . S
H1694 C1670 0.950 . S
H1695 C1671 0.949 . S
H1696 C1673 0.950 . S
H1697 C1675 0.950 . S
C1698 C1699 1.349 . S
C1698 C1700 1.327 . S
C1698 H1723 0.950 . S
C1699 C1698 1.349 . S
C1699 C1715 1.349 . S
C1700 C1698 1.327 . S
C1700 C1719 1.429 . S
C1700 H1724 0.950 . S
C1701 C1718 1.574 . S
C1701 C1720 1.368 . S
C1701 H1725 0.949 . S
H1702 C1706 0.949 . S
C1703 C1704 1.349 . S
C1703 C1705 1.327 . S
C1703 H1726 0.950 . S
C1704 C1703 1.349 . S
C1704 C1716 1.349 . S
C1705 C1703 1.327 . S
C1705 C1721 1.429 . S
C1705 H1727 0.950 . S
C1706 H1702 0.949 . S
C1706 C1714 1.574 . S
C1706 C1722 1.368 . S
H1707 C1715 0.950 . S
H1708 C1713 0.950 . S
H1709 C1714 0.949 . S
H1710 C1716 0.950 . S
H1711 C1717 0.950 . S
H1712 C1718 0.949 . S
C1713 H1708 0.950 . S
C1713 C1715 1.327 . S
C1713 C1719 1.429 . S
C1714 C1706 1.574 . S
C1714 H1709 0.949 . S
C1714 C1720 1.368 . S
C1715 C1699 1.349 . S
C1715 H1707 0.950 . S
C1715 C1713 1.327 . S
C1716 C1704 1.349 . S
C1716 H1710 0.950 . S
C1716 C1717 1.327 . S
C1717 H1711 0.950 . S
C1717 C1716 1.327 . S
C1717 C1721 1.429 . S
C1718 C1701 1.574 . S
C1718 H1712 0.949 . S
C1718 C1722 1.368 . S
C1719 C1700 1.429 . S
C1719 C1713 1.429 . S
C1719 C1720 1.523 . S
C1720 C1701 1.368 . S
C1720 C1714 1.368 . S
C1720 C1719 1.523 . S
C1721 C1705 1.429 . S
C1721 C1717 1.429 . S
C1721 C1722 1.523 . S
C1722 C1706 1.368 . S
C1722 C1718 1.368 . S
C1722 C1721 1.523 . S
H1723 C1698 0.950 . S
H1724 C1700 0.950 . S
H1725 C1701 0.949 . S
H1726 C1703 0.950 . S
H1727 C1705 0.950 . S
C1728 C1729 1.373 . S
C1728 C1730 1.327 . S
C1728 H1753 0.950 . S
C1729 C1728 1.373 . S
C1729 C1745 1.326 1_565 S
C1730 C1728 1.327 . S
C1730 C1749 1.429 . S
C1730 H1754 0.950 . S
C1731 C1748 1.574 . S
C1731 C1750 1.368 1_545 S
C1731 H1755 0.949 . S
H1732 C1736 0.949 . S
C1733 C1734 1.349 1_545 S
C1733 C1735 1.327 . S
C1733 H1756 0.950 . S
C1734 C1733 1.349 1_565 S
C1734 C1746 1.349 . S
C1735 C1733 1.327 . S
C1735 C1751 1.429 1_545 S
C1735 H1757 0.950 . S
C1736 H1732 0.949 . S
C1736 C1744 1.574 . S
C1736 C1752 1.368 . S
H1737 C1745 0.950 . S
H1738 C1743 0.950 . S
H1739 C1744 0.949 . S
H1740 C1746 0.950 . S
H1741 C1747 0.950 . S
H1742 C1748 0.949 . S
C1743 H1738 0.950 . S
C1743 C1745 1.327 . S
C1743 C1749 1.429 1_545 S
C1744 C1736 1.574 . S
C1744 H1739 0.949 . S
C1744 C1750 1.368 . S
C1745 C1729 1.326 1_545 S
C1745 H1737 0.950 . S
C1745 C1743 1.327 . S
C1746 C1734 1.349 . S
C1746 H1740 0.950 . S
C1746 C1747 1.327 . S
C1747 H1741 0.950 . S
C1747 C1746 1.327 . S
C1747 C1751 1.429 . S
C1748 C1731 1.574 . S
C1748 H1742 0.949 . S
C1748 C1752 1.368 1_545 S
C1749 C1730 1.429 . S
C1749 C1743 1.429 1_565 S
C1749 C1750 1.523 . S
C1750 C1731 1.368 1_565 S
C1750 C1744 1.368 . S
C1750 C1749 1.523 . S
C1751 C1735 1.429 1_565 S
C1751 C1747 1.429 . S
C1751 C1752 1.523 . S
C1752 C1736 1.368 . S
C1752 C1748 1.368 1_565 S
C1752 C1751 1.523 . S
H1753 C1728 0.950 . S
H1754 C1730 0.950 . S
H1755 C1731 0.949 . S
H1756 C1733 0.950 . S
H1757 C1735 0.950 . S
C1758 C1759 1.349 . S
C1758 C1760 1.327 . S
C1758 H1783 0.950 . S
C1759 C1758 1.349 . S
C1759 C1775 1.349 . S
C1760 C1758 1.327 . S
C1760 C1779 1.429 . S
C1760 H1784 0.950 . S
C1761 C1778 1.574 . S
C1761 C1780 1.368 . S
C1761 H1785 0.949 . S
H1762 C1766 0.949 . S
C1763 C1764 1.349 . S
C1763 C1765 1.327 . S
C1763 H1786 0.950 . S
C1764 C1763 1.349 . S
C1764 C1776 1.349 . S
C1765 C1763 1.327 . S
C1765 C1781 1.429 . S
C1765 H1787 0.950 . S
C1766 H1762 0.949 . S
C1766 C1774 1.574 . S
C1766 C1782 1.368 . S
H1767 C1775 0.950 . S
H1768 C1773 0.950 . S
H1769 C1774 0.949 . S
H1770 C1776 0.950 . S
H1771 C1777 0.950 . S
H1772 C1778 0.949 . S
C1773 H1768 0.950 . S
C1773 C1775 1.327 . S
C1773 C1779 1.429 . S
C1774 C1766 1.574 . S
C1774 H1769 0.949 . S
C1774 C1780 1.368 . S
C1775 C1759 1.349 . S
C1775 H1767 0.950 . S
C1775 C1773 1.327 . S
C1776 C1764 1.349 . S
C1776 H1770 0.950 . S
C1776 C1777 1.327 . S
C1777 H1771 0.950 . S
C1777 C1776 1.327 . S
C1777 C1781 1.429 . S
C1778 C1761 1.574 . S
C1778 H1772 0.949 . S
C1778 C1782 1.368 . S
C1779 C1760 1.429 . S
C1779 C1773 1.429 . S
C1779 C1780 1.523 . S
C1780 C1761 1.368 . S
C1780 C1774 1.368 . S
C1780 C1779 1.523 . S
C1781 C1765 1.429 . S
C1781 C1777 1.429 . S
C1781 C1782 1.523 . S
C1782 C1766 1.368 . S
C1782 C1778 1.368 . S
C1782 C1781 1.523 . S
H1783 C1758 0.950 . S
H1784 C1760 0.950 . S
H1785 C1761 0.949 . S
H1786 C1763 0.950 . S
H1787 C1765 0.950 . S
C1788 C1789 1.349 . S
C1788 C1790 1.327 . S
C1788 H1813 0.950 . S
C1789 C1788 1.349 . S
C1789 C1805 1.349 1_545 S
C1790 C1788 1.327 . S
C1790 C1809 1.429 . S
C1790 H1814 0.950 . S
C1791 C1808 1.574 . S
C1791 C1810 1.368 1_565 S
C1791 H1815 0.949 . S
H1792 C1796 0.949 . S
C1793 C1794 1.308 1_565 S
C1793 C1795 1.333 . S
C1793 H1816 0.989 . S
C1794 C1793 1.308 1_545 S
C1794 C1806 1.349 . S
C1795 C1793 1.333 . S
C1795 C1811 1.429 1_565 S
C1795 H1817 0.950 . S
C1796 H1792 0.949 . S
C1796 C1804 1.574 . S
C1796 C1812 1.368 . S
H1797 C1805 0.950 . S
H1798 C1803 0.950 . S
H1799 C1804 0.949 . S
H1800 C1806 0.950 . S
H1801 C1807 0.950 . S
H1802 C1808 0.949 . S
C1803 H1798 0.950 . S
C1803 C1805 1.327 . S
C1803 C1809 1.429 1_565 S
C1804 C1796 1.574 . S
C1804 H1799 0.949 . S
C1804 C1810 1.368 . S
C1805 C1789 1.349 1_565 S
C1805 H1797 0.950 . S
C1805 C1803 1.327 . S
C1806 C1794 1.349 . S
C1806 H1800 0.950 . S
C1806 C1807 1.327 . S
C1807 H1801 0.950 . S
C1807 C1806 1.327 . S
C1807 C1811 1.429 . S
C1808 C1791 1.574 . S
C1808 H1802 0.949 . S
C1808 C1812 1.368 1_565 S
C1809 C1790 1.429 . S
C1809 C1803 1.429 1_545 S
C1809 C1810 1.523 . S
C1810 C1791 1.368 1_545 S
C1810 C1804 1.368 . S
C1810 C1809 1.523 . S
C1811 C1795 1.429 1_545 S
C1811 C1807 1.429 . S
C1811 C1812 1.523 . S
C1812 C1796 1.368 . S
C1812 C1808 1.368 1_545 S
C1812 C1811 1.523 . S
H1813 C1788 0.950 . S
H1814 C1790 0.950 . S
H1815 C1791 0.949 . S
H1816 C1793 0.989 . S
H1817 C1795 0.950 . S
C1818 C1819 1.349 . S
C1818 C1820 1.327 . S
C1818 H1843 0.950 . S
C1819 C1818 1.349 . S
C1819 C1835 1.349 . S
C1820 C1818 1.327 . S
C1820 C1839 1.429 . S
C1820 H1844 0.950 . S
C1821 C1838 1.574 . S
C1821 C1840 1.368 . S
C1821 H1845 0.949 . S
H1822 C1826 0.949 . S
C1823 C1824 1.349 . S
C1823 C1825 1.327 . S
C1823 H1846 0.950 . S
C1824 C1823 1.349 . S
C1824 C1836 1.349 . S
C1825 C1823 1.327 . S
C1825 C1841 1.429 . S
C1825 H1847 0.950 . S
C1826 H1822 0.949 . S
C1826 C1834 1.574 . S
C1826 C1842 1.368 . S
H1827 C1835 0.950 . S
H1828 C1833 0.950 . S
H1829 C1834 0.949 . S
H1830 C1836 0.950 . S
H1831 C1837 0.950 . S
H1832 C1838 0.949 . S
C1833 H1828 0.950 . S
C1833 C1835 1.327 . S
C1833 C1839 1.429 . S
C1834 C1826 1.574 . S
C1834 H1829 0.949 . S
C1834 C1840 1.368 . S
C1835 C1819 1.349 . S
C1835 H1827 0.950 . S
C1835 C1833 1.327 . S
C1836 C1824 1.349 . S
C1836 H1830 0.950 . S
C1836 C1837 1.327 . S
C1837 H1831 0.950 . S
C1837 C1836 1.327 . S
C1837 C1841 1.429 . S
C1838 C1821 1.574 . S
C1838 H1832 0.949 . S
C1838 C1842 1.368 . S
C1839 C1820 1.429 . S
C1839 C1833 1.429 . S
C1839 C1840 1.523 . S
C1840 C1821 1.368 . S
C1840 C1834 1.368 . S
C1840 C1839 1.523 . S
C1841 C1825 1.429 . S
C1841 C1837 1.429 . S
C1841 C1842 1.523 . S
C1842 C1826 1.368 . S
C1842 C1838 1.368 . S
C1842 C1841 1.523 . S
H1843 C1818 0.950 . S
H1844 C1820 0.950 . S
H1845 C1821 0.949 . S
H1846 C1823 0.950 . S
H1847 C1825 0.950 . S
C1848 C1849 1.349 . S
C1848 C1850 1.327 . S
C1848 H1873 0.950 . S
C1849 C1848 1.349 . S
C1849 C1865 1.349 1_554 S
C1850 C1848 1.327 . S
C1850 C1869 1.429 . S
C1850 H1874 0.950 . S
C1851 C1868 1.574 . S
C1851 C1870 1.368 1_556 S
C1851 H1875 0.949 . S
H1852 C1856 0.949 . S
C1853 C1854 1.349 1_556 S
C1853 C1855 1.327 . S
C1853 H1876 0.950 . S
C1854 C1853 1.349 1_554 S
C1854 C1866 1.349 . S
C1855 C1853 1.327 . S
C1855 C1871 1.429 1_556 S
C1855 H1877 0.950 . S
C1856 H1852 0.949 . S
C1856 C1864 1.574 . S
C1856 C1872 1.368 . S
H1857 C1865 0.950 . S
H1858 C1863 0.950 . S
H1859 C1864 0.949 . S
H1860 C1866 0.950 . S
H1861 C1867 0.950 . S
H1862 C1868 0.949 . S
C1863 H1858 0.950 . S
C1863 C1865 1.327 . S
C1863 C1869 1.429 1_556 S
C1864 C1856 1.574 . S
C1864 H1859 0.949 . S
C1864 C1870 1.368 . S
C1865 C1849 1.349 1_556 S
C1865 H1857 0.950 . S
C1865 C1863 1.327 . S
C1866 C1854 1.349 . S
C1866 H1860 0.950 . S
C1866 C1867 1.327 . S
C1867 H1861 0.950 . S
C1867 C1866 1.327 . S
C1867 C1871 1.429 . S
C1868 C1851 1.574 . S
C1868 H1862 0.949 . S
C1868 C1872 1.368 1_556 S
C1869 C1850 1.429 . S
C1869 C1863 1.429 1_554 S
C1869 C1870 1.523 . S
C1870 C1851 1.368 1_554 S
C1870 C1864 1.368 . S
C1870 C1869 1.523 . S
C1871 C1855 1.429 1_554 S
C1871 C1867 1.429 . S
C1871 C1872 1.523 . S
C1872 C1856 1.368 . S
C1872 C1868 1.368 1_554 S
C1872 C1871 1.523 . S
H1873 C1848 0.950 . S
H1874 C1850 0.950 . S
H1875 C1851 0.949 . S
H1876 C1853 0.950 . S
H1877 C1855 0.950 . S
C1878 C1879 1.386 . S
C1878 C1880 1.327 . S
C1878 H1903 0.950 . S
C1879 C1878 1.386 . S
C1879 C1895 1.315 1_556 S
C1880 C1878 1.327 . S
C1880 C1899 1.429 . S
C1880 H1904 0.950 . S
C1881 C1898 1.574 . S
C1881 C1900 1.368 1_554 S
C1881 H1905 0.949 . S
H1882 C1886 0.949 . S
C1883 C1884 1.349 1_554 S
C1883 C1885 1.327 . S
C1883 H1906 0.950 . S
C1884 C1883 1.349 1_556 S
C1884 C1896 1.349 . S
C1885 C1883 1.327 . S
C1885 C1901 1.429 1_554 S
C1885 H1907 0.950 . S
C1886 H1882 0.949 . S
C1886 C1894 1.574 . S
C1886 C1902 1.368 . S
H1887 C1895 0.950 . S
H1888 C1893 0.950 . S
H1889 C1894 0.949 . S
H1890 C1896 0.950 . S
H1891 C1897 0.950 . S
H1892 C1898 0.949 . S
C1893 H1888 0.950 . S
C1893 C1895 1.327 . S
C1893 C1899 1.429 1_554 S
C1894 C1886 1.574 . S
C1894 H1889 0.949 . S
C1894 C1900 1.368 . S
C1895 C1879 1.315 1_554 S
C1895 H1887 0.950 . S
C1895 C1893 1.327 . S
C1896 C1884 1.349 . S
C1896 H1890 0.950 . S
C1896 C1897 1.327 . S
C1897 H1891 0.950 . S
C1897 C1896 1.327 . S
C1897 C1901 1.429 . S
C1898 C1881 1.574 . S
C1898 H1892 0.949 . S
C1898 C1902 1.368 1_554 S
C1899 C1880 1.429 . S
C1899 C1893 1.429 1_556 S
C1899 C1900 1.523 . S
C1900 C1881 1.368 1_556 S
C1900 C1894 1.368 . S
C1900 C1899 1.523 . S
C1901 C1885 1.429 1_556 S
C1901 C1897 1.429 . S
C1901 C1902 1.523 . S
C1902 C1886 1.368 . S
C1902 C1898 1.368 1_556 S
C1902 C1901 1.523 . S
H1903 C1878 0.950 . S
H1904 C1880 0.950 . S
H1905 C1881 0.949 . S
H1906 C1883 0.950 . S
H1907 C1885 0.950 . S
C1908 C1909 1.349 . S
C1908 C1910 1.327 . S
C1908 H1933 0.950 . S
C1909 C1908 1.349 . S
C1909 C1925 1.349 . S
C1910 C1908 1.327 . S
C1910 C1929 1.429 . S
C1910 H1934 0.950 . S
C1911 C1928 1.574 . S
C1911 C1930 1.368 . S
C1911 H1935 0.949 . S
H1912 C1916 0.949 . S
C1913 C1914 1.349 . S
C1913 C1915 1.327 . S
C1913 H1936 0.950 . S
C1914 C1913 1.349 . S
C1914 C1926 1.349 . S
C1915 C1913 1.327 . S
C1915 C1931 1.429 . S
C1915 H1937 0.950 . S
C1916 H1912 0.949 . S
C1916 C1924 1.574 . S
C1916 C1932 1.368 . S
H1917 C1925 0.950 . S
H1918 C1923 0.950 . S
H1919 C1924 0.949 . S
H1920 C1926 0.950 . S
H1921 C1927 0.950 . S
H1922 C1928 0.949 . S
C1923 H1918 0.950 . S
C1923 C1925 1.327 . S
C1923 C1929 1.429 . S
C1924 C1916 1.574 . S
C1924 H1919 0.949 . S
C1924 C1930 1.368 . S
C1925 C1909 1.349 . S
C1925 H1917 0.950 . S
C1925 C1923 1.327 . S
C1926 C1914 1.349 . S
C1926 H1920 0.950 . S
C1926 C1927 1.327 . S
C1927 H1921 0.950 . S
C1927 C1926 1.327 . S
C1927 C1931 1.429 . S
C1928 C1911 1.574 . S
C1928 H1922 0.949 . S
C1928 C1932 1.368 . S
C1929 C1910 1.429 . S
C1929 C1923 1.429 . S
C1929 C1930 1.523 . S
C1930 C1911 1.368 . S
C1930 C1924 1.368 . S
C1930 C1929 1.523 . S
C1931 C1915 1.429 . S
C1931 C1927 1.429 . S
C1931 C1932 1.523 . S
C1932 C1916 1.368 . S
C1932 C1928 1.368 . S
C1932 C1931 1.523 . S
H1933 C1908 0.950 . S
H1934 C1910 0.950 . S
H1935 C1911 0.949 . S
H1936 C1913 0.950 . S
H1937 C1915 0.950 . S
C1938 C1939 1.349 . S
C1938 C1940 1.327 . S
C1938 H1963 0.950 . S
C1939 C1938 1.349 . S
C1939 C1955 1.349 . S
C1940 C1938 1.327 . S
C1940 C1959 1.429 . S
C1940 H1964 0.950 . S
C1941 C1958 1.574 . S
C1941 C1960 1.368 . S
C1941 H1965 0.949 . S
H1942 C1946 0.949 . S
C1943 C1944 1.349 . S
C1943 C1945 1.327 . S
C1943 H1966 0.950 . S
C1944 C1943 1.349 . S
C1944 C1956 1.349 . S
C1945 C1943 1.327 . S
C1945 C1961 1.429 . S
C1945 H1967 0.950 . S
C1946 H1942 0.949 . S
C1946 C1954 1.574 . S
C1946 C1962 1.368 . S
H1947 C1955 0.950 . S
H1948 C1953 0.950 . S
H1949 C1954 0.949 . S
H1950 C1956 0.950 . S
H1951 C1957 0.950 . S
H1952 C1958 0.949 . S
C1953 H1948 0.950 . S
C1953 C1955 1.327 . S
C1953 C1959 1.429 . S
C1954 C1946 1.574 . S
C1954 H1949 0.949 . S
C1954 C1960 1.368 . S
C1955 C1939 1.349 . S
C1955 H1947 0.950 . S
C1955 C1953 1.327 . S
C1956 C1944 1.349 . S
C1956 H1950 0.950 . S
C1956 C1957 1.327 . S
C1957 H1951 0.950 . S
C1957 C1956 1.327 . S
C1957 C1961 1.429 . S
C1958 C1941 1.574 . S
C1958 H1952 0.949 . S
C1958 C1962 1.368 . S
C1959 C1940 1.429 . S
C1959 C1953 1.429 . S
C1959 C1960 1.523 . S
C1960 C1941 1.368 . S
C1960 C1954 1.368 . S
C1960 C1959 1.523 . S
C1961 C1945 1.429 . S
C1961 C1957 1.429 . S
C1961 C1962 1.523 . S
C1962 C1946 1.368 . S
C1962 C1958 1.368 . S
C1962 C1961 1.523 . S
H1963 C1938 0.950 . S
H1964 C1940 0.950 . S
H1965 C1941 0.949 . S
H1966 C1943 0.950 . S
H1967 C1945 0.950 . S
C1968 C1969 1.349 . S
C1968 C1970 1.327 . S
C1968 H1993 0.950 . S
C1969 C1968 1.349 . S
C1969 C1985 1.349 . S
C1970 C1968 1.327 . S
C1970 C1989 1.429 . S
C1970 H1994 0.950 . S
C1971 C1988 1.574 . S
C1971 C1990 1.368 . S
C1971 H1995 0.949 . S
H1972 C1976 0.949 . S
C1973 C1974 1.349 . S
C1973 C1975 1.327 . S
C1973 H1996 0.950 . S
C1974 C1973 1.349 . S
C1974 C1986 1.349 . S
C1975 C1973 1.327 . S
C1975 C1991 1.429 . S
C1975 H1997 0.950 . S
C1976 H1972 0.949 . S
C1976 C1984 1.574 . S
C1976 C1992 1.368 . S
H1977 C1985 0.950 . S
H1978 C1983 0.950 . S
H1979 C1984 0.949 . S
H1980 C1986 0.950 . S
H1981 C1987 0.950 . S
H1982 C1988 0.949 . S
C1983 H1978 0.950 . S
C1983 C1985 1.327 . S
C1983 C1989 1.429 . S
C1984 C1976 1.574 . S
C1984 H1979 0.949 . S
C1984 C1990 1.368 . S
C1985 C1969 1.349 . S
C1985 H1977 0.950 . S
C1985 C1983 1.327 . S
C1986 C1974 1.349 . S
C1986 H1980 0.950 . S
C1986 C1987 1.327 . S
C1987 H1981 0.950 . S
C1987 C1986 1.327 . S
C1987 C1991 1.429 . S
C1988 C1971 1.574 . S
C1988 H1982 0.949 . S
C1988 C1992 1.368 . S
C1989 C1970 1.429 . S
C1989 C1983 1.429 . S
C1989 C1990 1.523 . S
C1990 C1971 1.368 . S
C1990 C1984 1.368 . S
C1990 C1989 1.523 . S
C1991 C1975 1.429 . S
C1991 C1987 1.429 . S
C1991 C1992 1.523 . S
C1992 C1976 1.368 . S
C1992 C1988 1.368 . S
C1992 C1991 1.523 . S
H1993 C1968 0.950 . S
H1994 C1970 0.950 . S
H1995 C1971 0.949 . S
H1996 C1973 0.950 . S
H1997 C1975 0.950 . S
C1998 C1999 1.349 . S
C1998 C2000 1.327 . S
C1998 H2023 0.950 . S
C1999 C1998 1.349 . S
C1999 C2015 1.349 . S
C2000 C1998 1.327 . S
C2000 C2019 1.429 . S
C2000 H2024 0.950 . S
C2001 C2018 1.574 . S
C2001 C2020 1.368 . S
C2001 H2025 0.949 . S
H2002 C2006 0.949 . S
C2003 C2004 1.349 . S
C2003 C2005 1.327 . S
C2003 H2026 0.950 . S
C2004 C2003 1.349 . S
C2004 C2016 1.349 . S
C2005 C2003 1.327 . S
C2005 C2021 1.429 . S
C2005 H2027 0.950 . S
C2006 H2002 0.949 . S
C2006 C2014 1.574 . S
C2006 C2022 1.368 . S
H2007 C2015 0.950 . S
H2008 C2013 0.950 . S
H2009 C2014 0.949 . S
H2010 C2016 0.950 . S
H2011 C2017 0.950 . S
H2012 C2018 0.949 . S
C2013 H2008 0.950 . S
C2013 C2015 1.327 . S
C2013 C2019 1.429 . S
C2014 C2006 1.574 . S
C2014 H2009 0.949 . S
C2014 C2020 1.368 . S
C2015 C1999 1.349 . S
C2015 H2007 0.950 . S
C2015 C2013 1.327 . S
C2016 C2004 1.349 . S
C2016 H2010 0.950 . S
C2016 C2017 1.327 . S
C2017 H2011 0.950 . S
C2017 C2016 1.327 . S
C2017 C2021 1.429 . S
C2018 C2001 1.574 . S
C2018 H2012 0.949 . S
C2018 C2022 1.368 . S
C2019 C2000 1.429 . S
C2019 C2013 1.429 . S
C2019 C2020 1.523 . S
C2020 C2001 1.368 . S
C2020 C2014 1.368 . S
C2020 C2019 1.523 . S
C2021 C2005 1.429 . S
C2021 C2017 1.429 . S
C2021 C2022 1.523 . S
C2022 C2006 1.368 . S
C2022 C2018 1.368 . S
C2022 C2021 1.523 . S
H2023 C1998 0.950 . S
H2024 C2000 0.950 . S
H2025 C2001 0.949 . S
H2026 C2003 0.950 . S
H2027 C2005 0.950 . S
C2028 C2029 1.349 . S
C2028 C2030 1.327 . S
C2028 H2053 0.950 . S
C2029 C2028 1.349 . S
C2029 C2045 1.349 . S
C2030 C2028 1.327 . S
C2030 C2049 1.429 . S
C2030 H2054 0.950 . S
C2031 C2048 1.574 . S
C2031 C2050 1.368 . S
C2031 H2055 0.949 . S
H2032 C2036 0.949 . S
C2033 C2034 1.349 . S
C2033 C2035 1.327 . S
C2033 H2056 0.950 . S
C2034 C2033 1.349 . S
C2034 C2046 1.349 . S
C2035 C2033 1.327 . S
C2035 C2051 1.429 . S
C2035 H2057 0.950 . S
C2036 H2032 0.949 . S
C2036 C2044 1.574 . S
C2036 C2052 1.368 . S
H2037 C2045 0.950 . S
H2038 C2043 0.950 . S
H2039 C2044 0.949 . S
H2040 C2046 0.950 . S
H2041 C2047 0.950 . S
H2042 C2048 0.949 . S
C2043 H2038 0.950 . S
C2043 C2045 1.327 . S
C2043 C2049 1.429 . S
C2044 C2036 1.574 . S
C2044 H2039 0.949 . S
C2044 C2050 1.368 . S
C2045 C2029 1.349 . S
C2045 H2037 0.950 . S
C2045 C2043 1.327 . S
C2046 C2034 1.349 . S
C2046 H2040 0.950 . S
C2046 C2047 1.327 . S
C2047 H2041 0.950 . S
C2047 C2046 1.327 . S
C2047 C2051 1.429 . S
C2048 C2031 1.574 . S
C2048 H2042 0.949 . S
C2048 C2052 1.368 . S
C2049 C2030 1.429 . S
C2049 C2043 1.429 . S
C2049 C2050 1.523 . S
C2050 C2031 1.368 . S
C2050 C2044 1.368 . S
C2050 C2049 1.523 . S
C2051 C2035 1.429 . S
C2051 C2047 1.429 . S
C2051 C2052 1.523 . S
C2052 C2036 1.368 . S
C2052 C2048 1.368 . S
C2052 C2051 1.523 . S
H2053 C2028 0.950 . S
H2054 C2030 0.950 . S
H2055 C2031 0.949 . S
H2056 C2033 0.950 . S
H2057 C2035 0.950 . S
C2058 C2059 1.349 . S
C2058 C2060 1.327 . S
C2058 H2083 0.950 . S
C2059 C2058 1.349 . S
C2059 C2075 1.349 . S
C2060 C2058 1.327 . S
C2060 C2079 1.429 . S
C2060 H2084 0.950 . S
C2061 C2078 1.574 . S
C2061 C2080 1.368 . S
C2061 H2085 0.949 . S
H2062 C2066 0.949 . S
C2063 C2064 1.349 . S
C2063 C2065 1.327 . S
C2063 H2086 0.950 . S
C2064 C2063 1.349 . S
C2064 C2076 1.349 . S
C2065 C2063 1.327 . S
C2065 C2081 1.429 . S
C2065 H2087 0.950 . S
C2066 H2062 0.949 . S
C2066 C2074 1.574 . S
C2066 C2082 1.368 . S
H2067 C2075 0.950 . S
H2068 C2073 0.950 . S
H2069 C2074 0.949 . S
H2070 C2076 0.950 . S
H2071 C2077 0.950 . S
H2072 C2078 0.949 . S
C2073 H2068 0.950 . S
C2073 C2075 1.327 . S
C2073 C2079 1.429 . S
C2074 C2066 1.574 . S
C2074 H2069 0.949 . S
C2074 C2080 1.368 . S
C2075 C2059 1.349 . S
C2075 H2067 0.950 . S
C2075 C2073 1.327 . S
C2076 C2064 1.349 . S
C2076 H2070 0.950 . S
C2076 C2077 1.327 . S
C2077 H2071 0.950 . S
C2077 C2076 1.327 . S
C2077 C2081 1.429 . S
C2078 C2061 1.574 . S
C2078 H2072 0.949 . S
C2078 C2082 1.368 . S
C2079 C2060 1.429 . S
C2079 C2073 1.429 . S
C2079 C2080 1.523 . S
C2080 C2061 1.368 . S
C2080 C2074 1.368 . S
C2080 C2079 1.523 . S
C2081 C2065 1.429 . S
C2081 C2077 1.429 . S
C2081 C2082 1.523 . S
C2082 C2066 1.368 . S
C2082 C2078 1.368 . S
C2082 C2081 1.523 . S
H2083 C2058 0.950 . S
H2084 C2060 0.950 . S
H2085 C2061 0.949 . S
H2086 C2063 0.950 . S
H2087 C2065 0.950 . S
C2088 C2089 1.349 . S
C2088 C2090 1.327 . S
C2088 H2113 0.950 . S
C2089 C2088 1.349 . S
C2089 C2105 1.349 . S
C2090 C2088 1.327 . S
C2090 C2109 1.429 . S
C2090 H2114 0.950 . S
C2091 C2108 1.574 . S
C2091 C2110 1.368 . S
C2091 H2115 0.949 . S
H2092 C2096 0.949 . S
C2093 C2094 1.349 . S
C2093 C2095 1.327 . S
C2093 H2116 0.950 . S
C2094 C2093 1.349 . S
C2094 C2106 1.349 . S
C2095 C2093 1.327 . S
C2095 C2111 1.429 . S
C2095 H2117 0.950 . S
C2096 H2092 0.949 . S
C2096 C2104 1.574 . S
C2096 C2112 1.368 . S
H2097 C2105 0.950 . S
H2098 C2103 0.950 . S
H2099 C2104 0.949 . S
H2100 C2106 0.950 . S
H2101 C2107 0.950 . S
H2102 C2108 0.949 . S
C2103 H2098 0.950 . S
C2103 C2105 1.327 . S
C2103 C2109 1.429 . S
C2104 C2096 1.574 . S
C2104 H2099 0.949 . S
C2104 C2110 1.368 . S
C2105 C2089 1.349 . S
C2105 H2097 0.950 . S
C2105 C2103 1.327 . S
C2106 C2094 1.349 . S
C2106 H2100 0.950 . S
C2106 C2107 1.327 . S
C2107 H2101 0.950 . S
C2107 C2106 1.327 . S
C2107 C2111 1.429 . S
C2108 C2091 1.574 . S
C2108 H2102 0.949 . S
C2108 C2112 1.368 . S
C2109 C2090 1.429 . S
C2109 C2103 1.429 . S
C2109 C2110 1.523 . S
C2110 C2091 1.368 . S
C2110 C2104 1.368 . S
C2110 C2109 1.523 . S
C2111 C2095 1.429 . S
C2111 C2107 1.429 . S
C2111 C2112 1.523 . S
C2112 C2096 1.368 . S
C2112 C2108 1.368 . S
C2112 C2111 1.523 . S
H2113 C2088 0.950 . S
H2114 C2090 0.950 . S
H2115 C2091 0.949 . S
H2116 C2093 0.950 . S
H2117 C2095 0.950 . S
C2118 C2119 1.349 . S
C2118 C2120 1.327 . S
C2118 H2143 0.950 . S
C2119 C2118 1.349 . S
C2119 C2135 1.349 . S
C2120 C2118 1.327 . S
C2120 C2139 1.429 . S
C2120 H2144 0.950 . S
C2121 C2138 1.574 . S
C2121 C2140 1.368 . S
C2121 H2145 0.949 . S
H2122 C2126 0.949 . S
C2123 C2124 1.349 . S
C2123 C2125 1.327 . S
C2123 H2146 0.950 . S
C2124 C2123 1.349 . S
C2124 C2136 1.349 . S
C2125 C2123 1.327 . S
C2125 C2141 1.429 . S
C2125 H2147 0.950 . S
C2126 H2122 0.949 . S
C2126 C2134 1.574 . S
C2126 C2142 1.368 . S
H2127 C2135 0.950 . S
H2128 C2133 0.950 . S
H2129 C2134 0.949 . S
H2130 C2136 0.950 . S
H2131 C2137 0.950 . S
H2132 C2138 0.949 . S
C2133 H2128 0.950 . S
C2133 C2135 1.327 . S
C2133 C2139 1.429 . S
C2134 C2126 1.574 . S
C2134 H2129 0.949 . S
C2134 C2140 1.368 . S
C2135 C2119 1.349 . S
C2135 H2127 0.950 . S
C2135 C2133 1.327 . S
C2136 C2124 1.349 . S
C2136 H2130 0.950 . S
C2136 C2137 1.327 . S
C2137 H2131 0.950 . S
C2137 C2136 1.327 . S
C2137 C2141 1.429 . S
C2138 C2121 1.574 . S
C2138 H2132 0.949 . S
C2138 C2142 1.368 . S
C2139 C2120 1.429 . S
C2139 C2133 1.429 . S
C2139 C2140 1.523 . S
C2140 C2121 1.368 . S
C2140 C2134 1.368 . S
C2140 C2139 1.523 . S
C2141 C2125 1.429 . S
C2141 C2137 1.429 . S
C2141 C2142 1.523 . S
C2142 C2126 1.368 . S
C2142 C2138 1.368 . S
C2142 C2141 1.523 . S
H2143 C2118 0.950 . S
H2144 C2120 0.950 . S
H2145 C2121 0.949 . S
H2146 C2123 0.950 . S
H2147 C2125 0.950 . S
C2148 C2149 1.349 . S
C2148 C2150 1.327 . S
C2148 H2173 0.950 . S
C2149 C2148 1.349 . S
C2149 C2165 1.345 1_455 S
C2150 C2148 1.327 . S
C2150 C2169 1.429 . S
C2150 H2174 0.950 . S
C2151 C2168 1.574 . S
C2151 C2170 1.368 . S
C2151 H2175 0.942 1_455 S
H2152 C2156 0.949 . S
C2153 C2154 1.349 . S
C2153 C2155 1.327 . S
C2153 H2176 0.950 1_554 S
C2154 C2153 1.349 . S
C2154 C2166 1.349 . S
C2155 C2153 1.327 . S
C2155 C2171 1.429 . S
C2155 H2177 0.950 . S
C2156 H2152 0.949 . S
C2156 C2164 1.574 . S
C2156 C2172 1.368 . S
H2157 C2165 0.956 . S
H2158 C2163 0.950 . S
H2159 C2164 0.949 . S
H2160 C2166 0.950 . S
H2161 C2167 0.950 . S
H2162 C2168 0.951 . S
C2163 H2158 0.950 . S
C2163 C2165 1.327 . S
C2163 C2169 1.429 1_655 S
C2164 C2156 1.574 . S
C2164 H2159 0.949 . S
C2164 C2170 1.368 . S
C2165 C2149 1.345 1_655 S
C2165 H2157 0.956 . S
C2165 C2163 1.327 . S
C2166 C2154 1.349 . S
C2166 H2160 0.950 . S
C2166 C2167 1.327 . S
C2167 H2161 0.950 . S
C2167 C2166 1.327 . S
C2167 C2171 1.429 . S
C2168 C2151 1.574 . S
C2168 H2162 0.951 . S
C2168 C2172 1.368 . S
C2169 C2150 1.429 . S
C2169 C2163 1.429 1_455 S
C2169 C2170 1.523 . S
C2170 C2151 1.368 . S
C2170 C2164 1.368 . S
C2170 C2169 1.523 . S
C2171 C2155 1.429 . S
C2171 C2167 1.429 . S
C2171 C2172 1.523 . S
C2172 C2156 1.368 . S
C2172 C2168 1.368 . S
C2172 C2171 1.523 . S
H2173 C2148 0.950 . S
H2174 C2150 0.950 . S
H2175 C2151 0.942 1_655 S
H2176 C2153 0.950 1_556 S
H2177 C2155 0.950 . S
C2178 C2179 1.349 . S
C2178 C2180 1.327 . S
C2178 H2203 0.950 . S
C2179 C2178 1.349 . S
C2179 C2195 1.349 . S
C2180 C2178 1.327 . S
C2180 C2199 1.429 . S
C2180 H2204 0.950 . S
C2181 C2198 1.574 . S
C2181 C2200 1.368 . S
C2181 H2205 0.949 . S
H2182 C2186 0.949 . S
C2183 C2184 1.349 . S
C2183 C2185 1.327 . S
C2183 H2206 0.950 . S
C2184 C2183 1.349 . S
C2184 C2196 1.349 . S
C2185 C2183 1.327 . S
C2185 C2201 1.429 . S
C2185 H2207 0.950 . S
C2186 H2182 0.949 . S
C2186 C2194 1.574 . S
C2186 C2202 1.368 . S
H2187 C2195 0.950 . S
H2188 C2193 0.950 . S
H2189 C2194 0.949 . S
H2190 C2196 0.950 . S
H2191 C2197 0.950 . S
H2192 C2198 0.949 . S
C2193 H2188 0.950 . S
C2193 C2195 1.327 . S
C2193 C2199 1.429 . S
C2194 C2186 1.574 . S
C2194 H2189 0.949 . S
C2194 C2200 1.368 . S
C2195 C2179 1.349 . S
C2195 H2187 0.950 . S
C2195 C2193 1.327 . S
C2196 C2184 1.349 . S
C2196 H2190 0.950 . S
C2196 C2197 1.327 . S
C2197 H2191 0.950 . S
C2197 C2196 1.327 . S
C2197 C2201 1.429 . S
C2198 C2181 1.574 . S
C2198 H2192 0.949 . S
C2198 C2202 1.368 . S
C2199 C2180 1.429 . S
C2199 C2193 1.429 . S
C2199 C2200 1.523 . S
C2200 C2181 1.368 . S
C2200 C2194 1.368 . S
C2200 C2199 1.523 . S
C2201 C2185 1.429 . S
C2201 C2197 1.429 . S
C2201 C2202 1.523 . S
C2202 C2186 1.368 . S
C2202 C2198 1.368 . S
C2202 C2201 1.523 . S
H2203 C2178 0.950 . S
H2204 C2180 0.950 . S
H2205 C2181 0.949 . S
H2206 C2183 0.950 . S
H2207 C2185 0.950 . S
C2208 C2209 1.349 . S
C2208 C2210 1.327 . S
C2208 H2233 0.950 . S
C2209 C2208 1.349 . S
C2209 C2225 1.349 . S
C2210 C2208 1.327 . S
C2210 C2229 1.429 . S
C2210 H2234 0.950 . S
C2211 C2228 1.574 . S
C2211 C2230 1.368 . S
C2211 H2235 0.949 . S
H2212 C2216 0.949 . S
C2213 C2214 1.349 . S
C2213 C2215 1.327 . S
C2213 H2236 0.960 . S
C2214 C2213 1.349 . S
C2214 C2226 1.349 . S
C2215 C2213 1.327 . S
C2215 C2231 1.429 . S
C2215 H2237 0.950 . S
C2216 H2212 0.949 . S
C2216 C2224 1.574 . S
C2216 C2232 1.368 . S
H2217 C2225 0.950 . S
H2218 C2223 0.950 . S
H2219 C2224 0.949 . S
H2220 C2226 0.950 . S
H2221 C2227 0.950 . S
H2222 C2228 0.949 . S
C2223 H2218 0.950 . S
C2223 C2225 1.327 . S
C2223 C2229 1.429 . S
C2224 C2216 1.574 . S
C2224 H2219 0.949 . S
C2224 C2230 1.368 . S
C2225 C2209 1.349 . S
C2225 H2217 0.950 . S
C2225 C2223 1.327 . S
C2226 C2214 1.349 . S
C2226 H2220 0.950 . S
C2226 C2227 1.327 . S
C2227 H2221 0.950 . S
C2227 C2226 1.327 . S
C2227 C2231 1.429 . S
C2228 C2211 1.574 . S
C2228 H2222 0.949 . S
C2228 C2232 1.368 . S
C2229 C2210 1.429 . S
C2229 C2223 1.429 . S
C2229 C2230 1.523 . S
C2230 C2211 1.368 . S
C2230 C2224 1.368 . S
C2230 C2229 1.523 . S
C2231 C2215 1.429 . S
C2231 C2227 1.429 . S
C2231 C2232 1.523 . S
C2232 C2216 1.368 . S
C2232 C2228 1.368 . S
C2232 C2231 1.523 . S
H2233 C2208 0.950 . S
H2234 C2210 0.950 . S
H2235 C2211 0.949 . S
H2236 C2213 0.960 . S
H2237 C2215 0.950 . S
C2238 C2239 1.349 . S
C2238 C2240 1.327 . S
C2238 H2263 0.950 . S
C2239 C2238 1.349 . S
C2239 C2255 1.349 . S
C2240 C2238 1.327 . S
C2240 C2259 1.429 . S
C2240 H2264 0.950 . S
C2241 C2258 1.574 . S
C2241 C2260 1.368 . S
C2241 H2265 0.949 . S
H2242 C2246 0.949 . S
C2243 C2244 1.349 . S
C2243 C2245 1.327 . S
C2243 H2266 0.950 . S
C2244 C2243 1.349 . S
C2244 C2256 1.349 . S
C2245 C2243 1.327 . S
C2245 C2261 1.429 . S
C2245 H2267 0.950 . S
C2246 H2242 0.949 . S
C2246 C2254 1.574 . S
C2246 C2262 1.368 . S
H2247 C2255 0.950 . S
H2248 C2253 0.950 . S
H2249 C2254 0.949 . S
H2250 C2256 0.950 . S
H2251 C2257 0.950 . S
H2252 C2258 0.949 . S
C2253 H2248 0.950 . S
C2253 C2255 1.327 . S
C2253 C2259 1.429 . S
C2254 C2246 1.574 . S
C2254 H2249 0.949 . S
C2254 C2260 1.368 . S
C2255 C2239 1.349 . S
C2255 H2247 0.950 . S
C2255 C2253 1.327 . S
C2256 C2244 1.349 . S
C2256 H2250 0.950 . S
C2256 C2257 1.327 . S
C2257 H2251 0.950 . S
C2257 C2256 1.327 . S
C2257 C2261 1.429 . S
C2258 C2241 1.574 . S
C2258 H2252 0.949 . S
C2258 C2262 1.368 . S
C2259 C2240 1.429 . S
C2259 C2253 1.429 . S
C2259 C2260 1.523 . S
C2260 C2241 1.368 . S
C2260 C2254 1.368 . S
C2260 C2259 1.523 . S
C2261 C2245 1.429 . S
C2261 C2257 1.429 . S
C2261 C2262 1.523 . S
C2262 C2246 1.368 . S
C2262 C2258 1.368 . S
C2262 C2261 1.523 . S
H2263 C2238 0.950 . S
H2264 C2240 0.950 . S
H2265 C2241 0.949 . S
H2266 C2243 0.950 . S
H2267 C2245 0.950 . S
C2268 C2269 1.349 1_655 S
C2268 C2270 1.327 . S
C2268 H2293 0.950 . S
C2269 C2268 1.349 1_455 S
C2269 C2285 1.349 . S
C2270 C2268 1.327 . S
C2270 C2289 1.429 1_655 S
C2270 H2294 0.950 . S
C2271 C2288 1.574 . S
C2271 C2290 1.368 . S
C2271 H2295 0.949 . S
H2272 C2276 0.949 . S
C2273 C2274 1.349 . S
C2273 C2275 1.327 . S
C2273 H2296 0.950 . S
C2274 C2273 1.349 . S
C2274 C2286 1.350 1_455 S
C2275 C2273 1.327 . S
C2275 C2291 1.429 . S
C2275 H2297 0.950 . S
C2276 H2272 0.949 . S
C2276 C2284 1.574 . S
C2276 C2292 1.368 1_655 S
H2277 C2285 0.950 . S
H2278 C2283 0.950 . S
H2279 C2284 0.949 . S
H2280 C2286 0.949 . S
H2281 C2287 0.950 . S
H2282 C2288 0.949 . S
C2283 H2278 0.950 . S
C2283 C2285 1.327 . S
C2283 C2289 1.429 . S
C2284 C2276 1.574 . S
C2284 H2279 0.949 . S
C2284 C2290 1.368 1_655 S
C2285 C2269 1.349 . S
C2285 H2277 0.950 . S
C2285 C2283 1.327 . S
C2286 C2274 1.350 1_655 S
C2286 H2280 0.949 . S
C2286 C2287 1.327 . S
C2287 H2281 0.950 . S
C2287 C2286 1.327 . S
C2287 C2291 1.429 1_655 S
C2288 C2271 1.574 . S
C2288 H2282 0.949 . S
C2288 C2292 1.368 . S
C2289 C2270 1.429 1_455 S
C2289 C2283 1.429 . S
C2289 C2290 1.523 . S
C2290 C2271 1.368 . S
C2290 C2284 1.368 1_455 S
C2290 C2289 1.523 . S
C2291 C2275 1.429 . S
C2291 C2287 1.429 1_455 S
C2291 C2292 1.523 . S
C2292 C2276 1.368 1_455 S
C2292 C2288 1.368 . S
C2292 C2291 1.523 . S
H2293 C2268 0.950 . S
H2294 C2270 0.950 . S
H2295 C2271 0.949 . S
H2296 C2273 0.950 . S
H2297 C2275 0.950 . S
C2298 C2299 1.349 . S
C2298 C2300 1.327 . S
C2298 H2323 0.950 . S
C2299 C2298 1.349 . S
C2299 C2315 1.349 . S
C2300 C2298 1.327 . S
C2300 C2319 1.429 . S
C2300 H2324 0.950 . S
C2301 C2318 1.574 . S
C2301 C2320 1.368 . S
C2301 H2325 0.949 . S
H2302 C2306 0.949 . S
C2303 C2304 1.349 . S
C2303 C2305 1.327 . S
C2303 H2326 0.950 . S
C2304 C2303 1.349 . S
C2304 C2316 1.349 . S
C2305 C2303 1.327 . S
C2305 C2321 1.429 . S
C2305 H2327 0.950 . S
C2306 H2302 0.949 . S
C2306 C2314 1.574 . S
C2306 C2322 1.368 . S
H2307 C2315 0.950 . S
H2308 C2313 0.950 . S
H2309 C2314 0.949 . S
H2310 C2316 0.950 . S
H2311 C2317 0.950 . S
H2312 C2318 0.949 . S
C2313 H2308 0.950 . S
C2313 C2315 1.327 . S
C2313 C2319 1.429 . S
C2314 C2306 1.574 . S
C2314 H2309 0.949 . S
C2314 C2320 1.368 . S
C2315 C2299 1.349 . S
C2315 H2307 0.950 . S
C2315 C2313 1.327 . S
C2316 C2304 1.349 . S
C2316 H2310 0.950 . S
C2316 C2317 1.327 . S
C2317 H2311 0.950 . S
C2317 C2316 1.327 . S
C2317 C2321 1.429 . S
C2318 C2301 1.574 . S
C2318 H2312 0.949 . S
C2318 C2322 1.368 . S
C2319 C2300 1.429 . S
C2319 C2313 1.429 . S
C2319 C2320 1.523 . S
C2320 C2301 1.368 . S
C2320 C2314 1.368 . S
C2320 C2319 1.523 . S
C2321 C2305 1.429 . S
C2321 C2317 1.429 . S
C2321 C2322 1.523 . S
C2322 C2306 1.368 . S
C2322 C2318 1.368 . S
C2322 C2321 1.523 . S
H2323 C2298 0.950 . S
H2324 C2300 0.950 . S
H2325 C2301 0.949 . S
H2326 C2303 0.950 . S
H2327 C2305 0.950 . S
C2328 C2329 1.349 . S
C2328 C2330 1.327 . S
C2328 H2353 0.950 . S
C2329 C2328 1.349 . S
C2329 C2345 1.349 . S
C2330 C2328 1.327 . S
C2330 C2349 1.429 . S
C2330 H2354 0.950 . S
C2331 C2348 1.574 . S
C2331 C2350 1.368 . S
C2331 H2355 0.949 . S
H2332 C2336 0.949 . S
C2333 C2334 1.349 . S
C2333 C2335 1.327 . S
C2333 H2356 0.950 . S
C2334 C2333 1.349 . S
C2334 C2346 1.349 . S
C2335 C2333 1.327 . S
C2335 C2351 1.429 . S
C2335 H2357 0.950 . S
C2336 H2332 0.949 . S
C2336 C2344 1.574 . S
C2336 C2352 1.368 . S
H2337 C2345 0.950 . S
H2338 C2343 0.950 . S
H2339 C2344 0.949 . S
H2340 C2346 0.950 . S
H2341 C2347 0.950 . S
H2342 C2348 0.949 . S
C2343 H2338 0.950 . S
C2343 C2345 1.327 . S
C2343 C2349 1.429 . S
C2344 C2336 1.574 . S
C2344 H2339 0.949 . S
C2344 C2350 1.368 . S
C2345 C2329 1.349 . S
C2345 H2337 0.950 . S
C2345 C2343 1.327 . S
C2346 C2334 1.349 . S
C2346 H2340 0.950 . S
C2346 C2347 1.327 . S
C2347 H2341 0.950 . S
C2347 C2346 1.327 . S
C2347 C2351 1.429 . S
C2348 C2331 1.574 . S
C2348 H2342 0.949 . S
C2348 C2352 1.368 . S
C2349 C2330 1.429 . S
C2349 C2343 1.429 . S
C2349 C2350 1.523 . S
C2350 C2331 1.368 . S
C2350 C2344 1.368 . S
C2350 C2349 1.523 . S
C2351 C2335 1.429 . S
C2351 C2347 1.429 . S
C2351 C2352 1.523 . S
C2352 C2336 1.368 . S
C2352 C2348 1.368 . S
C2352 C2351 1.523 . S
H2353 C2328 0.950 . S
H2354 C2330 0.950 . S
H2355 C2331 0.949 . S
H2356 C2333 0.950 . S
H2357 C2335 0.950 . S
C2358 C2359 1.349 . S
C2358 C2360 1.327 . S
C2358 H2383 0.950 . S
C2359 C2358 1.349 . S
C2359 C2375 1.349 . S
C2360 C2358 1.327 . S
C2360 C2379 1.429 . S
C2360 H2384 0.950 . S
C2361 C2378 1.574 . S
C2361 C2380 1.368 . S
C2361 H2385 0.949 . S
H2362 C2366 0.949 . S
C2363 C2364 1.349 . S
C2363 C2365 1.327 . S
C2363 H2386 0.950 . S
C2364 C2363 1.349 . S
C2364 C2376 1.349 . S
C2365 C2363 1.327 . S
C2365 C2381 1.429 . S
C2365 H2387 0.950 . S
C2366 H2362 0.949 . S
C2366 C2374 1.574 . S
C2366 C2382 1.368 . S
H2367 C2375 0.950 . S
H2368 C2373 0.950 . S
H2369 C2374 0.949 . S
H2370 C2376 0.950 . S
H2371 C2377 0.950 . S
H2372 C2378 0.949 . S
C2373 H2368 0.950 . S
C2373 C2375 1.327 . S
C2373 C2379 1.429 . S
C2374 C2366 1.574 . S
C2374 H2369 0.949 . S
C2374 C2380 1.368 . S
C2375 C2359 1.349 . S
C2375 H2367 0.950 . S
C2375 C2373 1.327 . S
C2376 C2364 1.349 . S
C2376 H2370 0.950 . S
C2376 C2377 1.327 . S
C2377 H2371 0.950 . S
C2377 C2376 1.327 . S
C2377 C2381 1.429 . S
C2378 C2361 1.574 . S
C2378 H2372 0.949 . S
C2378 C2382 1.368 . S
C2379 C2360 1.429 . S
C2379 C2373 1.429 . S
C2379 C2380 1.523 . S
C2380 C2361 1.368 . S
C2380 C2374 1.368 . S
C2380 C2379 1.523 . S
C2381 C2365 1.429 . S
C2381 C2377 1.429 . S
C2381 C2382 1.523 . S
C2382 C2366 1.368 . S
C2382 C2378 1.368 . S
C2382 C2381 1.523 . S
H2383 C2358 0.950 . S
H2384 C2360 0.950 . S
H2385 C2361 0.949 . S
H2386 C2363 0.950 . S
H2387 C2365 0.950 . S
C2388 C2389 1.349 . S
C2388 C2390 1.327 . S
C2388 H2413 0.950 . S
C2389 C2388 1.349 . S
C2389 C2405 1.349 . S
C2390 C2388 1.327 . S
C2390 C2409 1.429 . S
C2390 H2414 0.950 . S
C2391 C2408 1.574 . S
C2391 C2410 1.368 . S
C2391 H2415 0.949 . S
H2392 C2396 0.949 . S
C2393 C2394 1.349 . S
C2393 C2395 1.327 . S
C2393 H2416 0.950 . S
C2394 C2393 1.349 . S
C2394 C2406 1.349 . S
C2395 C2393 1.327 . S
C2395 C2411 1.429 . S
C2395 H2417 0.950 . S
C2396 H2392 0.949 . S
C2396 C2404 1.574 . S
C2396 C2412 1.368 . S
H2397 C2405 0.950 . S
H2398 C2403 0.950 . S
H2399 C2404 0.949 . S
H2400 C2406 0.950 . S
H2401 C2407 0.950 . S
H2402 C2408 0.949 . S
C2403 H2398 0.950 . S
C2403 C2405 1.327 . S
C2403 C2409 1.429 . S
C2404 C2396 1.574 . S
C2404 H2399 0.949 . S
C2404 C2410 1.368 . S
C2405 C2389 1.349 . S
C2405 H2397 0.950 . S
C2405 C2403 1.327 . S
C2406 C2394 1.349 . S
C2406 H2400 0.950 . S
C2406 C2407 1.327 . S
C2407 H2401 0.950 . S
C2407 C2406 1.327 . S
C2407 C2411 1.429 . S
C2408 C2391 1.574 . S
C2408 H2402 0.949 . S
C2408 C2412 1.368 . S
C2409 C2390 1.429 . S
C2409 C2403 1.429 . S
C2409 C2410 1.523 . S
C2410 C2391 1.368 . S
C2410 C2404 1.368 . S
C2410 C2409 1.523 . S
C2411 C2395 1.429 . S
C2411 C2407 1.429 . S
C2411 C2412 1.523 . S
C2412 C2396 1.368 . S
C2412 C2408 1.368 . S
C2412 C2411 1.523 . S
H2413 C2388 0.950 . S
H2414 C2390 0.950 . S
H2415 C2391 0.949 . S
H2416 C2393 0.950 . S
H2417 C2395 0.950 . S
C2418 C2419 1.349 . S
C2418 C2420 1.327 . S
C2418 H2443 0.950 . S
C2419 C2418 1.349 . S
C2419 C2435 1.349 . S
C2420 C2418 1.327 . S
C2420 C2439 1.429 . S
C2420 H2444 0.950 . S
C2421 C2438 1.574 . S
C2421 C2440 1.368 . S
C2421 H2445 0.949 . S
H2422 C2426 0.949 . S
C2423 C2424 1.349 . S
C2423 C2425 1.327 . S
C2423 H2446 0.950 . S
C2424 C2423 1.349 . S
C2424 C2436 1.349 . S
C2425 C2423 1.327 . S
C2425 C2441 1.429 . S
C2425 H2447 0.950 . S
C2426 H2422 0.949 . S
C2426 C2434 1.574 . S
C2426 C2442 1.368 . S
H2427 C2435 0.950 . S
H2428 C2433 0.950 . S
H2429 C2434 0.949 . S
H2430 C2436 0.950 . S
H2431 C2437 0.950 . S
H2432 C2438 0.949 . S
C2433 H2428 0.950 . S
C2433 C2435 1.327 . S
C2433 C2439 1.429 . S
C2434 C2426 1.574 . S
C2434 H2429 0.949 . S
C2434 C2440 1.368 . S
C2435 C2419 1.349 . S
C2435 H2427 0.950 . S
C2435 C2433 1.327 . S
C2436 C2424 1.349 . S
C2436 H2430 0.950 . S
C2436 C2437 1.327 . S
C2437 H2431 0.950 . S
C2437 C2436 1.327 . S
C2437 C2441 1.429 . S
C2438 C2421 1.574 . S
C2438 H2432 0.949 . S
C2438 C2442 1.368 . S
C2439 C2420 1.429 . S
C2439 C2433 1.429 . S
C2439 C2440 1.523 . S
C2440 C2421 1.368 . S
C2440 C2434 1.368 . S
C2440 C2439 1.523 . S
C2441 C2425 1.429 . S
C2441 C2437 1.429 . S
C2441 C2442 1.523 . S
C2442 C2426 1.368 . S
C2442 C2438 1.368 . S
C2442 C2441 1.523 . S
H2443 C2418 0.950 . S
H2444 C2420 0.950 . S
H2445 C2421 0.949 . S
H2446 C2423 0.950 . S
H2447 C2425 0.950 . S
C2448 C2449 1.349 . S
C2448 C2450 1.327 . S
C2448 H2473 0.950 . S
C2449 C2448 1.349 . S
C2449 C2465 1.349 . S
C2450 C2448 1.327 . S
C2450 C2469 1.429 . S
C2450 H2474 0.950 . S
C2451 C2468 1.574 . S
C2451 C2470 1.368 . S
C2451 H2475 0.949 . S
H2452 C2456 0.949 . S
C2453 C2454 1.349 . S
C2453 C2455 1.327 . S
C2453 H2476 0.950 . S
C2454 C2453 1.349 . S
C2454 C2466 1.349 . S
C2455 C2453 1.327 . S
C2455 C2471 1.429 . S
C2455 H2477 0.950 . S
C2456 H2452 0.949 . S
C2456 C2464 1.574 . S
C2456 C2472 1.368 . S
H2457 C2465 0.950 . S
H2458 C2463 0.950 . S
H2459 C2464 0.949 . S
H2460 C2466 0.950 . S
H2461 C2467 0.950 . S
H2462 C2468 0.949 . S
C2463 H2458 0.950 . S
C2463 C2465 1.327 . S
C2463 C2469 1.429 . S
C2464 C2456 1.574 . S
C2464 H2459 0.949 . S
C2464 C2470 1.368 . S
C2465 C2449 1.349 . S
C2465 H2457 0.950 . S
C2465 C2463 1.327 . S
C2466 C2454 1.349 . S
C2466 H2460 0.950 . S
C2466 C2467 1.327 . S
C2467 H2461 0.950 . S
C2467 C2466 1.327 . S
C2467 C2471 1.429 . S
C2468 C2451 1.574 . S
C2468 H2462 0.949 . S
C2468 C2472 1.368 . S
C2469 C2450 1.429 . S
C2469 C2463 1.429 . S
C2469 C2470 1.523 . S
C2470 C2451 1.368 . S
C2470 C2464 1.368 . S
C2470 C2469 1.523 . S
C2471 C2455 1.429 . S
C2471 C2467 1.429 . S
C2471 C2472 1.523 . S
C2472 C2456 1.368 . S
C2472 C2468 1.368 . S
C2472 C2471 1.523 . S
H2473 C2448 0.950 . S
H2474 C2450 0.950 . S
H2475 C2451 0.949 . S
H2476 C2453 0.950 . S
H2477 C2455 0.950 . S
C2478 C2479 1.349 . S
C2478 C2480 1.327 . S
C2478 H2503 0.950 . S
C2479 C2478 1.349 . S
C2479 C2495 1.349 . S
C2480 C2478 1.327 . S
C2480 C2499 1.429 . S
C2480 H2504 0.950 . S
C2481 C2498 1.574 . S
C2481 C2500 1.368 . S
C2481 H2505 0.949 . S
H2482 C2486 0.949 . S
C2483 C2484 1.349 . S
C2483 C2485 1.327 . S
C2483 H2506 0.950 . S
C2484 C2483 1.349 . S
C2484 C2496 1.349 . S
C2485 C2483 1.327 . S
C2485 C2501 1.429 . S
C2485 H2507 0.950 . S
C2486 H2482 0.949 . S
C2486 C2494 1.574 . S
C2486 C2502 1.368 . S
H2487 C2495 0.950 . S
H2488 C2493 0.950 . S
H2489 C2494 0.949 . S
H2490 C2496 0.950 . S
H2491 C2497 0.950 . S
H2492 C2498 0.949 . S
C2493 H2488 0.950 . S
C2493 C2495 1.327 . S
C2493 C2499 1.429 . S
C2494 C2486 1.574 . S
C2494 H2489 0.949 . S
C2494 C2500 1.368 . S
C2495 C2479 1.349 . S
C2495 H2487 0.950 . S
C2495 C2493 1.327 . S
C2496 C2484 1.349 . S
C2496 H2490 0.950 . S
C2496 C2497 1.327 . S
C2497 H2491 0.950 . S
C2497 C2496 1.327 . S
C2497 C2501 1.429 . S
C2498 C2481 1.574 . S
C2498 H2492 0.949 . S
C2498 C2502 1.368 . S
C2499 C2480 1.429 . S
C2499 C2493 1.429 . S
C2499 C2500 1.523 . S
C2500 C2481 1.368 . S
C2500 C2494 1.368 . S
C2500 C2499 1.523 . S
C2501 C2485 1.429 . S
C2501 C2497 1.429 . S
C2501 C2502 1.523 . S
C2502 C2486 1.368 . S
C2502 C2498 1.368 . S
C2502 C2501 1.523 . S
H2503 C2478 0.950 . S
H2504 C2480 0.950 . S
H2505 C2481 0.949 . S
H2506 C2483 0.950 . S
H2507 C2485 0.950 . S
C2508 C2509 1.349 . S
C2508 C2510 1.327 . S
C2508 H2533 0.950 . S
C2509 C2508 1.349 . S
C2509 C2525 1.349 . S
C2510 C2508 1.327 . S
C2510 C2529 1.429 . S
C2510 H2534 0.950 . S
C2511 C2528 1.574 . S
C2511 C2530 1.368 . S
C2511 H2535 0.949 . S
H2512 C2516 0.949 . S
C2513 C2514 1.349 . S
C2513 C2515 1.327 . S
C2513 H2536 0.950 . S
C2514 C2513 1.349 . S
C2514 C2526 1.349 . S
C2515 C2513 1.327 . S
C2515 C2531 1.429 . S
C2515 H2537 0.950 . S
C2516 H2512 0.949 . S
C2516 C2524 1.574 . S
C2516 C2532 1.368 . S
H2517 C2525 0.950 . S
H2518 C2523 0.950 . S
H2519 C2524 0.949 . S
H2520 C2526 0.950 . S
H2521 C2527 0.950 . S
H2522 C2528 0.949 . S
C2523 H2518 0.950 . S
C2523 C2525 1.327 . S
C2523 C2529 1.429 . S
C2524 C2516 1.574 . S
C2524 H2519 0.949 . S
C2524 C2530 1.368 . S
C2525 C2509 1.349 . S
C2525 H2517 0.950 . S
C2525 C2523 1.327 . S
C2526 C2514 1.349 . S
C2526 H2520 0.950 . S
C2526 C2527 1.327 . S
C2527 H2521 0.950 . S
C2527 C2526 1.327 . S
C2527 C2531 1.429 . S
C2528 C2511 1.574 . S
C2528 H2522 0.949 . S
C2528 C2532 1.368 . S
C2529 C2510 1.429 . S
C2529 C2523 1.429 . S
C2529 C2530 1.523 . S
C2530 C2511 1.368 . S
C2530 C2524 1.368 . S
C2530 C2529 1.523 . S
C2531 C2515 1.429 . S
C2531 C2527 1.429 . S
C2531 C2532 1.523 . S
C2532 C2516 1.368 . S
C2532 C2528 1.368 . S
C2532 C2531 1.523 . S
H2533 C2508 0.950 . S
H2534 C2510 0.950 . S
H2535 C2511 0.949 . S
H2536 C2513 0.950 . S
H2537 C2515 0.950 . S
C2538 C2539 1.349 . S
C2538 C2540 1.327 . S
C2538 H2563 0.950 . S
C2539 C2538 1.349 . S
C2539 C2555 1.349 . S
C2540 C2538 1.327 . S
C2540 C2559 1.429 . S
C2540 H2564 0.950 . S
C2541 C2558 1.574 . S
C2541 C2560 1.368 . S
C2541 H2565 0.949 . S
H2542 C2546 0.949 . S
C2543 C2544 1.349 . S
C2543 C2545 1.327 . S
C2543 H2566 0.950 . S
C2544 C2543 1.349 . S
C2544 C2556 1.349 . S
C2545 C2543 1.327 . S
C2545 C2561 1.429 . S
C2545 H2567 0.950 . S
C2546 H2542 0.949 . S
C2546 C2554 1.574 . S
C2546 C2562 1.368 . S
H2547 C2555 0.950 . S
H2548 C2553 0.950 . S
H2549 C2554 0.949 . S
H2550 C2556 0.950 . S
H2551 C2557 0.950 . S
H2552 C2558 0.949 . S
C2553 H2548 0.950 . S
C2553 C2555 1.327 . S
C2553 C2559 1.429 . S
C2554 C2546 1.574 . S
C2554 H2549 0.949 . S
C2554 C2560 1.368 . S
C2555 C2539 1.349 . S
C2555 H2547 0.950 . S
C2555 C2553 1.327 . S
C2556 C2544 1.349 . S
C2556 H2550 0.950 . S
C2556 C2557 1.327 . S
C2557 H2551 0.950 . S
C2557 C2556 1.327 . S
C2557 C2561 1.429 . S
C2558 C2541 1.574 . S
C2558 H2552 0.949 . S
C2558 C2562 1.368 . S
C2559 C2540 1.429 . S
C2559 C2553 1.429 . S
C2559 C2560 1.523 . S
C2560 C2541 1.368 . S
C2560 C2554 1.368 . S
C2560 C2559 1.523 . S
C2561 C2545 1.429 . S
C2561 C2557 1.429 . S
C2561 C2562 1.523 . S
C2562 C2546 1.368 . S
C2562 C2558 1.368 . S
C2562 C2561 1.523 . S
H2563 C2538 0.950 . S
H2564 C2540 0.950 . S
H2565 C2541 0.949 . S
H2566 C2543 0.950 . S
H2567 C2545 0.950 . S
C2568 C2569 1.349 . S
C2568 C2570 1.327 . S
C2568 H2593 0.950 . S
C2569 C2568 1.349 . S
C2569 C2585 1.349 . S
C2570 C2568 1.327 . S
C2570 C2589 1.429 . S
C2570 H2594 0.950 . S
C2571 C2588 1.574 . S
C2571 C2590 1.368 . S
C2571 H2595 0.949 . S
H2572 C2576 0.949 . S
C2573 C2574 1.349 . S
C2573 C2575 1.327 . S
C2573 H2596 0.950 . S
C2574 C2573 1.349 . S
C2574 C2586 1.349 . S
C2575 C2573 1.327 . S
C2575 C2591 1.429 . S
C2575 H2597 0.950 . S
C2576 H2572 0.949 . S
C2576 C2584 1.574 . S
C2576 C2592 1.368 . S
H2577 C2585 0.950 . S
H2578 C2583 0.950 . S
H2579 C2584 0.949 . S
H2580 C2586 0.950 . S
H2581 C2587 0.950 . S
H2582 C2588 0.949 . S
C2583 H2578 0.950 . S
C2583 C2585 1.327 . S
C2583 C2589 1.429 . S
C2584 C2576 1.574 . S
C2584 H2579 0.949 . S
C2584 C2590 1.368 . S
C2585 C2569 1.349 . S
C2585 H2577 0.950 . S
C2585 C2583 1.327 . S
C2586 C2574 1.349 . S
C2586 H2580 0.950 . S
C2586 C2587 1.327 . S
C2587 H2581 0.950 . S
C2587 C2586 1.327 . S
C2587 C2591 1.429 . S
C2588 C2571 1.574 . S
C2588 H2582 0.949 . S
C2588 C2592 1.368 . S
C2589 C2570 1.429 . S
C2589 C2583 1.429 . S
C2589 C2590 1.523 . S
C2590 C2571 1.368 . S
C2590 C2584 1.368 . S
C2590 C2589 1.523 . S
C2591 C2575 1.429 . S
C2591 C2587 1.429 . S
C2591 C2592 1.523 . S
C2592 C2576 1.368 . S
C2592 C2588 1.368 . S
C2592 C2591 1.523 . S
H2593 C2568 0.950 . S
H2594 C2570 0.950 . S
H2595 C2571 0.949 . S
H2596 C2573 0.950 . S
H2597 C2575 0.950 . S
C2598 C2599 1.349 . S
C2598 C2600 1.327 . S
C2598 H2623 0.950 . S
C2599 C2598 1.349 . S
C2599 C2615 1.349 . S
C2600 C2598 1.327 . S
C2600 C2619 1.429 . S
C2600 H2624 0.950 . S
C2601 C2618 1.574 . S
C2601 C2620 1.368 . S
C2601 H2625 0.949 . S
H2602 C2606 0.949 . S
C2603 C2604 1.349 . S
C2603 C2605 1.327 . S
C2603 H2626 0.950 . S
C2604 C2603 1.349 . S
C2604 C2616 1.349 . S
C2605 C2603 1.327 . S
C2605 C2621 1.429 . S
C2605 H2627 0.950 . S
C2606 H2602 0.949 . S
C2606 C2614 1.574 . S
C2606 C2622 1.368 . S
H2607 C2615 0.950 . S
H2608 C2613 0.950 . S
H2609 C2614 0.949 . S
H2610 C2616 0.950 . S
H2611 C2617 0.950 . S
H2612 C2618 0.949 . S
C2613 H2608 0.950 . S
C2613 C2615 1.327 . S
C2613 C2619 1.429 . S
C2614 C2606 1.574 . S
C2614 H2609 0.949 . S
C2614 C2620 1.368 . S
C2615 C2599 1.349 . S
C2615 H2607 0.950 . S
C2615 C2613 1.327 . S
C2616 C2604 1.349 . S
C2616 H2610 0.950 . S
C2616 C2617 1.327 . S
C2617 H2611 0.950 . S
C2617 C2616 1.327 . S
C2617 C2621 1.429 . S
C2618 C2601 1.574 . S
C2618 H2612 0.949 . S
C2618 C2622 1.368 . S
C2619 C2600 1.429 . S
C2619 C2613 1.429 . S
C2619 C2620 1.523 . S
C2620 C2601 1.368 . S
C2620 C2614 1.368 . S
C2620 C2619 1.523 . S
C2621 C2605 1.429 . S
C2621 C2617 1.429 . S
C2621 C2622 1.523 . S
C2622 C2606 1.368 . S
C2622 C2618 1.368 . S
C2622 C2621 1.523 . S
H2623 C2598 0.950 . S
H2624 C2600 0.950 . S
H2625 C2601 0.949 . S
H2626 C2603 0.950 . S
H2627 C2605 0.950 . S
C2628 C2629 1.349 . S
C2628 C2630 1.327 . S
C2628 H2653 0.950 . S
C2629 C2628 1.349 . S
C2629 C2645 1.349 . S
C2630 C2628 1.327 . S
C2630 C2649 1.429 . S
C2630 H2654 0.950 . S
C2631 C2648 1.574 . S
C2631 C2650 1.368 . S
C2631 H2655 0.949 . S
H2632 C2636 0.949 . S
C2633 C2634 1.349 . S
C2633 C2635 1.327 . S
C2633 H2656 0.950 . S
C2634 C2633 1.349 . S
C2634 C2646 1.349 . S
C2635 C2633 1.327 . S
C2635 C2651 1.429 . S
C2635 H2657 0.950 . S
C2636 H2632 0.949 . S
C2636 C2644 1.574 . S
C2636 C2652 1.368 . S
H2637 C2645 0.950 . S
H2638 C2643 0.950 . S
H2639 C2644 0.949 . S
H2640 C2646 0.950 . S
H2641 C2647 0.950 . S
H2642 C2648 0.949 . S
C2643 H2638 0.950 . S
C2643 C2645 1.327 . S
C2643 C2649 1.429 . S
C2644 C2636 1.574 . S
C2644 H2639 0.949 . S
C2644 C2650 1.368 . S
C2645 C2629 1.349 . S
C2645 H2637 0.950 . S
C2645 C2643 1.327 . S
C2646 C2634 1.349 . S
C2646 H2640 0.950 . S
C2646 C2647 1.327 . S
C2647 H2641 0.950 . S
C2647 C2646 1.327 . S
C2647 C2651 1.429 . S
C2648 C2631 1.574 . S
C2648 H2642 0.949 . S
C2648 C2652 1.368 . S
C2649 C2630 1.429 . S
C2649 C2643 1.429 . S
C2649 C2650 1.523 . S
C2650 C2631 1.368 . S
C2650 C2644 1.368 . S
C2650 C2649 1.523 . S
C2651 C2635 1.429 . S
C2651 C2647 1.429 . S
C2651 C2652 1.523 . S
C2652 C2636 1.368 . S
C2652 C2648 1.368 . S
C2652 C2651 1.523 . S
H2653 C2628 0.950 . S
H2654 C2630 0.950 . S
H2655 C2631 0.949 . S
H2656 C2633 0.950 . S
H2657 C2635 0.950 . S
C2658 C2659 1.349 1_556 S
C2658 C2660 1.327 . S
C2658 H2683 0.950 . S
C2659 C2658 1.349 1_554 S
C2659 C2675 1.349 . S
C2660 C2658 1.327 . S
C2660 C2679 1.429 1_556 S
C2660 H2684 0.950 . S
C2661 C2678 1.574 . S
C2661 C2680 1.368 . S
C2661 H2685 0.949 . S
H2662 C2666 0.949 . S
C2663 C2664 1.349 . S
C2663 C2665 1.327 . S
C2663 H2686 0.950 . S
C2664 C2663 1.349 . S
C2664 C2676 1.349 1_554 S
C2665 C2663 1.327 . S
C2665 C2681 1.429 . S
C2665 H2687 0.950 . S
C2666 H2662 0.949 . S
C2666 C2674 1.574 . S
C2666 C2682 1.368 1_556 S
H2667 C2675 0.950 . S
H2668 C2673 0.950 . S
H2669 C2674 0.949 . S
H2670 C2676 0.950 . S
H2671 C2677 0.950 . S
H2672 C2678 0.949 . S
C2673 H2668 0.950 . S
C2673 C2675 1.327 . S
C2673 C2679 1.429 . S
C2674 C2666 1.574 . S
C2674 H2669 0.949 . S
C2674 C2680 1.368 1_556 S
C2675 C2659 1.349 . S
C2675 H2667 0.950 . S
C2675 C2673 1.327 . S
C2676 C2664 1.349 1_556 S
C2676 H2670 0.950 . S
C2676 C2677 1.327 . S
C2677 H2671 0.950 . S
C2677 C2676 1.327 . S
C2677 C2681 1.429 1_556 S
C2678 C2661 1.574 . S
C2678 H2672 0.949 . S
C2678 C2682 1.368 . S
C2679 C2660 1.429 1_554 S
C2679 C2673 1.429 . S
C2679 C2680 1.523 . S
C2680 C2661 1.368 . S
C2680 C2674 1.368 1_554 S
C2680 C2679 1.523 . S
C2681 C2665 1.429 . S
C2681 C2677 1.429 1_554 S
C2681 C2682 1.523 . S
C2682 C2666 1.368 1_554 S
C2682 C2678 1.368 . S
C2682 C2681 1.523 . S
H2683 C2658 0.950 . S
H2684 C2660 0.950 . S
H2685 C2661 0.949 . S
H2686 C2663 0.950 . S
H2687 C2665 0.950 . S
C2688 C2689 1.349 . S
C2688 C2690 1.327 . S
C2688 H2713 0.950 . S
C2689 C2688 1.349 . S
C2689 C2705 1.349 . S
C2690 C2688 1.327 . S
C2690 C2709 1.429 . S
C2690 H2714 0.950 . S
C2691 C2708 1.574 . S
C2691 C2710 1.368 . S
C2691 H2715 0.949 . S
H2692 C2696 0.949 . S
C2693 C2694 1.349 . S
C2693 C2695 1.327 . S
C2693 H2716 0.950 . S
C2694 C2693 1.349 . S
C2694 C2706 1.349 . S
C2695 C2693 1.327 . S
C2695 C2711 1.429 . S
C2695 H2717 0.950 . S
C2696 H2692 0.949 . S
C2696 C2704 1.574 . S
C2696 C2712 1.368 . S
H2697 C2705 0.950 . S
H2698 C2703 0.950 . S
H2699 C2704 0.949 . S
H2700 C2706 0.950 . S
H2701 C2707 0.950 . S
H2702 C2708 0.949 . S
C2703 H2698 0.950 . S
C2703 C2705 1.327 . S
C2703 C2709 1.429 . S
C2704 C2696 1.574 . S
C2704 H2699 0.949 . S
C2704 C2710 1.368 . S
C2705 C2689 1.349 . S
C2705 H2697 0.950 . S
C2705 C2703 1.327 . S
C2706 C2694 1.349 . S
C2706 H2700 0.950 . S
C2706 C2707 1.327 . S
C2707 H2701 0.950 . S
C2707 C2706 1.327 . S
C2707 C2711 1.429 . S
C2708 C2691 1.574 . S
C2708 H2702 0.949 . S
C2708 C2712 1.368 . S
C2709 C2690 1.429 . S
C2709 C2703 1.429 . S
C2709 C2710 1.523 . S
C2710 C2691 1.368 . S
C2710 C2704 1.368 . S
C2710 C2709 1.523 . S
C2711 C2695 1.429 . S
C2711 C2707 1.429 . S
C2711 C2712 1.523 . S
C2712 C2696 1.368 . S
C2712 C2708 1.368 . S
C2712 C2711 1.523 . S
H2713 C2688 0.950 . S
H2714 C2690 0.950 . S
H2715 C2691 0.949 . S
H2716 C2693 0.950 . S
H2717 C2695 0.950 . S
C2718 C2719 1.349 . S
C2718 C2720 1.327 . S
C2718 H2743 0.950 . S
C2719 C2718 1.349 . S
C2719 C2735 1.349 1_554 S
C2720 C2718 1.327 . S
C2720 C2739 1.429 . S
C2720 H2744 0.950 . S
C2721 C2738 1.574 . S
C2721 C2740 1.368 1_556 S
C2721 H2745 0.949 . S
H2722 C2726 0.949 . S
C2723 C2724 1.349 . S
C2723 C2725 1.327 . S
C2723 H2746 0.950 . S
C2724 C2723 1.349 . S
C2724 C2736 1.349 1_556 S
C2725 C2723 1.327 . S
C2725 C2741 1.466 . S
C2725 H2747 0.950 . S
C2726 H2722 0.949 . S
C2726 C2734 1.574 . S
C2726 C2742 1.370 . S
H2727 C2735 0.950 . S
H2728 C2733 0.950 . S
H2729 C2734 0.949 . S
H2730 C2736 0.950 . S
H2731 C2737 0.950 . S
H2732 C2738 0.949 . S
C2733 H2728 0.950 . S
C2733 C2735 1.327 . S
C2733 C2739 1.429 1_556 S
C2734 C2726 1.574 . S
C2734 H2729 0.949 . S
C2734 C2740 1.368 . S
C2735 C2719 1.349 1_556 S
C2735 H2727 0.950 . S
C2735 C2733 1.327 . S
C2736 C2724 1.349 1_554 S
C2736 H2730 0.950 . S
C2736 C2737 1.327 . S
C2737 H2731 0.950 . S
C2737 C2736 1.327 . S
C2737 C2741 1.395 1_554 S
C2738 C2721 1.574 . S
C2738 H2732 0.949 . S
C2738 C2742 1.367 1_556 S
C2739 C2720 1.429 . S
C2739 C2733 1.429 1_554 S
C2739 C2740 1.523 . S
C2740 C2721 1.368 1_554 S
C2740 C2734 1.368 . S
C2740 C2739 1.523 . S
C2741 C2725 1.466 . S
C2741 C2737 1.395 1_556 S
C2741 C2742 1.521 1_556 S
C2742 C2726 1.370 . S
C2742 C2738 1.367 1_554 S
C2742 C2741 1.521 1_554 S
H2743 C2718 0.950 . S
H2744 C2720 0.950 . S
H2745 C2721 0.949 . S
H2746 C2723 0.950 . S
H2747 C2725 0.950 . S
C2748 C2749 1.349 . S
C2748 C2750 1.327 . S
C2748 H2773 0.950 . S
C2749 C2748 1.349 . S
C2749 C2765 1.349 . S
C2750 C2748 1.327 . S
C2750 C2769 1.429 . S
C2750 H2774 0.950 . S
C2751 C2768 1.574 . S
C2751 C2770 1.368 . S
C2751 H2775 0.949 . S
H2752 C2756 0.949 . S
C2753 C2754 1.349 . S
C2753 C2755 1.327 . S
C2753 H2776 0.950 . S
C2754 C2753 1.349 . S
C2754 C2766 1.349 . S
C2755 C2753 1.327 . S
C2755 C2771 1.429 . S
C2755 H2777 0.950 . S
C2756 H2752 0.949 . S
C2756 C2764 1.574 . S
C2756 C2772 1.368 . S
H2757 C2765 0.950 . S
H2758 C2763 0.950 . S
H2759 C2764 0.949 . S
H2760 C2766 0.950 . S
H2761 C2767 0.950 . S
H2762 C2768 0.949 . S
C2763 H2758 0.950 . S
C2763 C2765 1.327 . S
C2763 C2769 1.429 . S
C2764 C2756 1.574 . S
C2764 H2759 0.949 . S
C2764 C2770 1.368 . S
C2765 C2749 1.349 . S
C2765 H2757 0.950 . S
C2765 C2763 1.327 . S
C2766 C2754 1.349 . S
C2766 H2760 0.950 . S
C2766 C2767 1.327 . S
C2767 H2761 0.950 . S
C2767 C2766 1.327 . S
C2767 C2771 1.429 . S
C2768 C2751 1.574 . S
C2768 H2762 0.949 . S
C2768 C2772 1.368 . S
C2769 C2750 1.429 . S
C2769 C2763 1.429 . S
C2769 C2770 1.523 . S
C2770 C2751 1.368 . S
C2770 C2764 1.368 . S
C2770 C2769 1.523 . S
C2771 C2755 1.429 . S
C2771 C2767 1.429 . S
C2771 C2772 1.523 . S
C2772 C2756 1.368 . S
C2772 C2768 1.368 . S
C2772 C2771 1.523 . S
H2773 C2748 0.950 . S
H2774 C2750 0.950 . S
H2775 C2751 0.949 . S
H2776 C2753 0.950 . S
H2777 C2755 0.950 . S
C2778 C2779 1.349 . S
C2778 C2780 1.327 . S
C2778 H2803 0.950 . S
C2779 C2778 1.349 . S
C2779 C2795 1.349 . S
C2780 C2778 1.327 . S
C2780 C2799 1.429 . S
C2780 H2804 0.950 . S
C2781 C2798 1.574 . S
C2781 C2800 1.368 . S
C2781 H2805 0.949 . S
H2782 C2786 0.949 . S
C2783 C2784 1.349 . S
C2783 C2785 1.327 . S
C2783 H2806 0.950 . S
C2784 C2783 1.349 . S
C2784 C2796 1.349 . S
C2785 C2783 1.327 . S
C2785 C2801 1.429 . S
C2785 H2807 0.950 . S
C2786 H2782 0.949 . S
C2786 C2794 1.574 . S
C2786 C2802 1.368 . S
H2787 C2795 0.950 . S
H2788 C2793 0.950 . S
H2789 C2794 0.949 . S
H2790 C2796 0.950 . S
H2791 C2797 0.950 . S
H2792 C2798 0.949 . S
C2793 H2788 0.950 . S
C2793 C2795 1.327 . S
C2793 C2799 1.429 . S
C2794 C2786 1.574 . S
C2794 H2789 0.949 . S
C2794 C2800 1.368 . S
C2795 C2779 1.349 . S
C2795 H2787 0.950 . S
C2795 C2793 1.327 . S
C2796 C2784 1.349 . S
C2796 H2790 0.950 . S
C2796 C2797 1.327 . S
C2797 H2791 0.950 . S
C2797 C2796 1.327 . S
C2797 C2801 1.429 . S
C2798 C2781 1.574 . S
C2798 H2792 0.949 . S
C2798 C2802 1.368 . S
C2799 C2780 1.429 . S
C2799 C2793 1.429 . S
C2799 C2800 1.523 . S
C2800 C2781 1.368 . S
C2800 C2794 1.368 . S
C2800 C2799 1.523 . S
C2801 C2785 1.429 . S
C2801 C2797 1.429 . S
C2801 C2802 1.523 . S
C2802 C2786 1.368 . S
C2802 C2798 1.368 . S
C2802 C2801 1.523 . S
H2803 C2778 0.950 . S
H2804 C2780 0.950 . S
H2805 C2781 0.949 . S
H2806 C2783 0.950 . S
H2807 C2785 0.950 . S
C2808 C2809 1.349 . S
C2808 C2810 1.327 . S
C2808 H2833 0.950 . S
C2809 C2808 1.349 . S
C2809 C2825 1.349 . S
C2810 C2808 1.327 . S
C2810 C2829 1.429 . S
C2810 H2834 0.950 . S
C2811 C2828 1.574 . S
C2811 C2830 1.368 . S
C2811 H2835 0.949 . S
H2812 C2816 0.949 . S
C2813 C2814 1.349 . S
C2813 C2815 1.327 . S
C2813 H2836 0.950 . S
C2814 C2813 1.349 . S
C2814 C2826 1.349 . S
C2815 C2813 1.327 . S
C2815 C2831 1.429 . S
C2815 H2837 0.950 . S
C2816 H2812 0.949 . S
C2816 C2824 1.574 . S
C2816 C2832 1.368 . S
H2817 C2825 0.950 . S
H2818 C2823 0.950 . S
H2819 C2824 0.949 . S
H2820 C2826 0.950 . S
H2821 C2827 0.950 . S
H2822 C2828 0.949 . S
C2823 H2818 0.950 . S
C2823 C2825 1.327 . S
C2823 C2829 1.429 . S
C2824 C2816 1.574 . S
C2824 H2819 0.949 . S
C2824 C2830 1.368 . S
C2825 C2809 1.349 . S
C2825 H2817 0.950 . S
C2825 C2823 1.327 . S
C2826 C2814 1.349 . S
C2826 H2820 0.950 . S
C2826 C2827 1.327 . S
C2827 H2821 0.950 . S
C2827 C2826 1.327 . S
C2827 C2831 1.429 . S
C2828 C2811 1.574 . S
C2828 H2822 0.949 . S
C2828 C2832 1.368 . S
C2829 C2810 1.429 . S
C2829 C2823 1.429 . S
C2829 C2830 1.523 . S
C2830 C2811 1.368 . S
C2830 C2824 1.368 . S
C2830 C2829 1.523 . S
C2831 C2815 1.429 . S
C2831 C2827 1.429 . S
C2831 C2832 1.523 . S
C2832 C2816 1.368 . S
C2832 C2828 1.368 . S
C2832 C2831 1.523 . S
H2833 C2808 0.950 . S
H2834 C2810 0.950 . S
H2835 C2811 0.949 . S
H2836 C2813 0.950 . S
H2837 C2815 0.950 . S
C2838 C2839 1.349 . S
C2838 C2840 1.327 . S
C2838 H2863 0.950 . S
C2839 C2838 1.349 . S
C2839 C2855 1.349 . S
C2840 C2838 1.327 . S
C2840 C2859 1.429 . S
C2840 H2864 0.950 . S
C2841 C2858 1.574 . S
C2841 C2860 1.368 . S
C2841 H2865 0.949 . S
H2842 C2846 0.949 . S
C2843 C2844 1.349 . S
C2843 C2845 1.327 . S
C2843 H2866 0.950 . S
C2844 C2843 1.349 . S
C2844 C2856 1.349 . S
C2845 C2843 1.327 . S
C2845 C2861 1.429 . S
C2845 H2867 0.950 . S
C2846 H2842 0.949 . S
C2846 C2854 1.574 . S
C2846 C2862 1.368 . S
H2847 C2855 0.950 . S
H2848 C2853 0.950 . S
H2849 C2854 0.949 . S
H2850 C2856 0.950 . S
H2851 C2857 0.950 . S
H2852 C2858 0.949 . S
C2853 H2848 0.950 . S
C2853 C2855 1.327 . S
C2853 C2859 1.429 . S
C2854 C2846 1.574 . S
C2854 H2849 0.949 . S
C2854 C2860 1.368 . S
C2855 C2839 1.349 . S
C2855 H2847 0.950 . S
C2855 C2853 1.327 . S
C2856 C2844 1.349 . S
C2856 H2850 0.950 . S
C2856 C2857 1.327 . S
C2857 H2851 0.950 . S
C2857 C2856 1.327 . S
C2857 C2861 1.429 . S
C2858 C2841 1.574 . S
C2858 H2852 0.949 . S
C2858 C2862 1.368 . S
C2859 C2840 1.429 . S
C2859 C2853 1.429 . S
C2859 C2860 1.523 . S
C2860 C2841 1.368 . S
C2860 C2854 1.368 . S
C2860 C2859 1.523 . S
C2861 C2845 1.429 . S
C2861 C2857 1.429 . S
C2861 C2862 1.523 . S
C2862 C2846 1.368 . S
C2862 C2858 1.368 . S
C2862 C2861 1.523 . S
H2863 C2838 0.950 . S
H2864 C2840 0.950 . S
H2865 C2841 0.949 . S
H2866 C2843 0.950 . S
H2867 C2845 0.950 . S
C2868 C2869 1.349 . S
C2868 C2870 1.327 . S
C2868 H2893 0.950 . S
C2869 C2868 1.349 . S
C2869 C2885 1.349 1_455 S
C2870 C2868 1.327 . S
C2870 C2889 1.432 . S
C2870 H2894 0.950 . S
C2871 C2888 1.574 . S
C2871 C2890 1.385 . S
C2871 H2895 0.949 . S
H2872 C2876 0.949 . S
C2873 C2874 1.349 . S
C2873 C2875 1.327 . S
C2873 H2896 0.950 . S
C2874 C2873 1.349 . S
C2874 C2886 1.349 1_655 S
C2875 C2873 1.327 . S
C2875 C2891 1.429 . S
C2875 H2897 0.950 . S
C2876 H2872 0.949 . S
C2876 C2884 1.574 . S
C2876 C2892 1.368 1_455 S
H2877 C2885 0.950 . S
H2878 C2883 0.950 . S
H2879 C2884 0.949 . S
H2880 C2886 0.950 . S
H2881 C2887 0.950 . S
H2882 C2888 0.949 . S
C2883 H2878 0.950 . S
C2883 C2885 1.327 . S
C2883 C2889 1.425 1_655 S
C2884 C2876 1.574 . S
C2884 H2879 0.949 . S
C2884 C2890 1.354 1_455 S
C2885 C2869 1.349 1_655 S
C2885 H2877 0.950 . S
C2885 C2883 1.327 . S
C2886 C2874 1.349 1_455 S
C2886 H2880 0.950 . S
C2886 C2887 1.327 . S
C2887 H2881 0.950 . S
C2887 C2886 1.327 . S
C2887 C2891 1.429 1_455 S
C2888 C2871 1.574 . S
C2888 H2882 0.949 . S
C2888 C2892 1.368 . S
C2889 C2870 1.432 . S
C2889 C2883 1.425 1_455 S
C2889 C2890 1.522 1_455 S
C2890 C2871 1.385 . S
C2890 C2884 1.354 1_655 S
C2890 C2889 1.522 1_655 S
C2891 C2875 1.429 . S
C2891 C2887 1.429 1_655 S
C2891 C2892 1.523 . S
C2892 C2876 1.368 1_655 S
C2892 C2888 1.368 . S
C2892 C2891 1.523 . S
H2893 C2868 0.950 . S
H2894 C2870 0.950 . S
H2895 C2871 0.949 . S
H2896 C2873 0.950 . S
H2897 C2875 0.950 . S
C2898 C2899 1.349 . S
C2898 C2900 1.327 . S
C2898 H2923 0.950 . S
C2899 C2898 1.349 . S
C2899 C2915 1.349 . S
C2900 C2898 1.327 . S
C2900 C2919 1.429 . S
C2900 H2924 0.950 . S
C2901 C2918 1.574 . S
C2901 C2920 1.368 . S
C2901 H2925 0.949 . S
H2902 C2906 0.949 . S
C2903 C2904 1.349 . S
C2903 C2905 1.327 . S
C2903 H2926 0.950 . S
C2904 C2903 1.349 . S
C2904 C2916 1.349 . S
C2905 C2903 1.327 . S
C2905 C2921 1.429 . S
C2905 H2927 0.950 . S
C2906 H2902 0.949 . S
C2906 C2914 1.574 . S
C2906 C2922 1.368 . S
H2907 C2915 0.950 . S
H2908 C2913 0.950 . S
H2909 C2914 0.949 . S
H2910 C2916 0.950 . S
H2911 C2917 0.950 . S
H2912 C2918 0.949 . S
C2913 H2908 0.950 . S
C2913 C2915 1.327 . S
C2913 C2919 1.429 . S
C2914 C2906 1.574 . S
C2914 H2909 0.949 . S
C2914 C2920 1.368 . S
C2915 C2899 1.349 . S
C2915 H2907 0.950 . S
C2915 C2913 1.327 . S
C2916 C2904 1.349 . S
C2916 H2910 0.950 . S
C2916 C2917 1.327 . S
C2917 H2911 0.950 . S
C2917 C2916 1.327 . S
C2917 C2921 1.429 . S
C2918 C2901 1.574 . S
C2918 H2912 0.949 . S
C2918 C2922 1.368 . S
C2919 C2900 1.429 . S
C2919 C2913 1.429 . S
C2919 C2920 1.523 . S
C2920 C2901 1.368 . S
C2920 C2914 1.368 . S
C2920 C2919 1.523 . S
C2921 C2905 1.429 . S
C2921 C2917 1.429 . S
C2921 C2922 1.523 . S
C2922 C2906 1.368 . S
C2922 C2918 1.368 . S
C2922 C2921 1.523 . S
H2923 C2898 0.950 . S
H2924 C2900 0.950 . S
H2925 C2901 0.949 . S
H2926 C2903 0.950 . S
H2927 C2905 0.950 . S
C2928 C2929 1.349 . S
C2928 C2930 1.327 . S
C2928 H2953 0.950 . S
C2929 C2928 1.349 . S
C2929 C2945 1.349 . S
C2930 C2928 1.327 . S
C2930 C2949 1.429 . S
C2930 H2954 0.950 . S
C2931 C2948 1.574 . S
C2931 C2950 1.368 . S
C2931 H2955 0.949 . S
H2932 C2936 0.949 . S
C2933 C2934 1.349 . S
C2933 C2935 1.327 . S
C2933 H2956 0.950 . S
C2934 C2933 1.349 . S
C2934 C2946 1.349 . S
C2935 C2933 1.327 . S
C2935 C2951 1.429 . S
C2935 H2957 0.950 . S
C2936 H2932 0.949 . S
C2936 C2944 1.574 . S
C2936 C2952 1.368 . S
H2937 C2945 0.950 . S
H2938 C2943 0.950 . S
H2939 C2944 0.949 . S
H2940 C2946 0.950 . S
H2941 C2947 0.950 . S
H2942 C2948 0.949 . S
C2943 H2938 0.950 . S
C2943 C2945 1.327 . S
C2943 C2949 1.429 . S
C2944 C2936 1.574 . S
C2944 H2939 0.949 . S
C2944 C2950 1.368 . S
C2945 C2929 1.349 . S
C2945 H2937 0.950 . S
C2945 C2943 1.327 . S
C2946 C2934 1.349 . S
C2946 H2940 0.950 . S
C2946 C2947 1.327 . S
C2947 H2941 0.950 . S
C2947 C2946 1.327 . S
C2947 C2951 1.429 . S
C2948 C2931 1.574 . S
C2948 H2942 0.949 . S
C2948 C2952 1.368 . S
C2949 C2930 1.429 . S
C2949 C2943 1.429 . S
C2949 C2950 1.523 . S
C2950 C2931 1.368 . S
C2950 C2944 1.368 . S
C2950 C2949 1.523 . S
C2951 C2935 1.429 . S
C2951 C2947 1.429 . S
C2951 C2952 1.523 . S
C2952 C2936 1.368 . S
C2952 C2948 1.368 . S
C2952 C2951 1.523 . S
H2953 C2928 0.950 . S
H2954 C2930 0.950 . S
H2955 C2931 0.949 . S
H2956 C2933 0.950 . S
H2957 C2935 0.950 . S
C2958 C2959 1.349 . S
C2958 C2960 1.327 . S
C2958 H2983 0.950 . S
C2959 C2958 1.349 . S
C2959 C2975 1.349 . S
C2960 C2958 1.327 . S
C2960 C2979 1.429 . S
C2960 H2984 0.950 . S
C2961 C2978 1.574 . S
C2961 C2980 1.368 . S
C2961 H2985 0.949 . S
H2962 C2966 0.949 . S
C2963 C2964 1.349 . S
C2963 C2965 1.327 . S
C2963 H2986 0.950 . S
C2964 C2963 1.349 . S
C2964 C2976 1.349 . S
C2965 C2963 1.327 . S
C2965 C2981 1.429 . S
C2965 H2987 0.950 . S
C2966 H2962 0.949 . S
C2966 C2974 1.574 . S
C2966 C2982 1.368 . S
H2967 C2975 0.950 . S
H2968 C2973 0.950 . S
H2969 C2974 0.949 . S
H2970 C2976 0.950 . S
H2971 C2977 0.950 . S
H2972 C2978 0.949 . S
C2973 H2968 0.950 . S
C2973 C2975 1.327 . S
C2973 C2979 1.429 . S
C2974 C2966 1.574 . S
C2974 H2969 0.949 . S
C2974 C2980 1.368 . S
C2975 C2959 1.349 . S
C2975 H2967 0.950 . S
C2975 C2973 1.327 . S
C2976 C2964 1.349 . S
C2976 H2970 0.950 . S
C2976 C2977 1.327 . S
C2977 H2971 0.950 . S
C2977 C2976 1.327 . S
C2977 C2981 1.429 . S
C2978 C2961 1.574 . S
C2978 H2972 0.949 . S
C2978 C2982 1.368 . S
C2979 C2960 1.429 . S
C2979 C2973 1.429 . S
C2979 C2980 1.523 . S
C2980 C2961 1.368 . S
C2980 C2974 1.368 . S
C2980 C2979 1.523 . S
C2981 C2965 1.429 . S
C2981 C2977 1.429 . S
C2981 C2982 1.523 . S
C2982 C2966 1.368 . S
C2982 C2978 1.368 . S
C2982 C2981 1.523 . S
H2983 C2958 0.950 . S
H2984 C2960 0.950 . S
H2985 C2961 0.949 . S
H2986 C2963 0.950 . S
H2987 C2965 0.950 . S
C2988 C2989 1.349 1_655 S
C2988 C2990 1.327 . S
C2988 H3013 0.950 . S
C2989 C2988 1.349 1_455 S
C2989 C3005 1.349 . S
C2990 C2988 1.327 . S
C2990 C3009 1.412 1_655 S
C2990 H3014 0.950 . S
C2991 C3008 1.574 . S
C2991 C3010 1.356 1_455 S
C2991 H3015 0.949 . S
H2992 C2996 0.949 . S
C2993 C2994 1.349 1_455 S
C2993 C2995 1.327 . S
C2993 H3016 0.950 . S
C2994 C2993 1.349 1_655 S
C2994 C3006 1.349 . S
C2995 C2993 1.327 . S
C2995 C3011 1.429 1_455 S
C2995 H3017 0.950 . S
C2996 H2992 0.949 . S
C2996 C3004 1.574 . S
C2996 C3012 1.368 . S
H2997 C3005 0.950 . S
H2998 C3003 0.950 . S
H2999 C3004 0.949 . S
H3000 C3006 0.950 . S
H3001 C3007 0.950 . S
H3002 C3008 0.949 . S
C3003 H2998 0.950 . S
C3003 C3005 1.327 . S
C3003 C3009 1.448 . S
C3004 C2996 1.574 . S
C3004 H2999 0.949 . S
C3004 C3010 1.382 . S
C3005 C2989 1.349 . S
C3005 H2997 0.950 . S
C3005 C3003 1.327 . S
C3006 C2994 1.349 . S
C3006 H3000 0.950 . S
C3006 C3007 1.327 . S
C3007 H3001 0.950 . S
C3007 C3006 1.327 . S
C3007 C3011 1.429 . S
C3008 C2991 1.574 . S
C3008 H3002 0.949 . S
C3008 C3012 1.368 1_455 S
C3009 C2990 1.412 1_455 S
C3009 C3003 1.448 . S
C3009 C3010 1.521 1_455 S
C3010 C2991 1.356 1_655 S
C3010 C3004 1.382 . S
C3010 C3009 1.521 1_655 S
C3011 C2995 1.429 1_655 S
C3011 C3007 1.429 . S
C3011 C3012 1.523 . S
C3012 C2996 1.368 . S
C3012 C3008 1.368 1_655 S
C3012 C3011 1.523 . S
H3013 C2988 0.950 . S
H3014 C2990 0.950 . S
H3015 C2991 0.949 . S
H3016 C2993 0.950 . S
H3017 C2995 0.950 . S
C3018 C3019 1.349 . S
C3018 C3020 1.327 . S
C3018 H3043 0.950 . S
C3019 C3018 1.349 . S
C3019 C3035 1.349 . S
C3020 C3018 1.327 . S
C3020 C3039 1.429 . S
C3020 H3044 0.950 . S
C3021 C3038 1.574 . S
C3021 C3040 1.368 . S
C3021 H3045 0.949 . S
H3022 C3026 0.949 . S
C3023 C3024 1.349 . S
C3023 C3025 1.327 . S
C3023 H3046 0.950 . S
C3024 C3023 1.349 . S
C3024 C3036 1.349 . S
C3025 C3023 1.327 . S
C3025 C3041 1.429 . S
C3025 H3047 0.950 . S
C3026 H3022 0.949 . S
C3026 C3034 1.574 . S
C3026 C3042 1.368 . S
H3027 C3035 0.950 . S
H3028 C3033 0.950 . S
H3029 C3034 0.949 . S
H3030 C3036 0.950 . S
H3031 C3037 0.950 . S
H3032 C3038 0.949 . S
C3033 H3028 0.950 . S
C3033 C3035 1.327 . S
C3033 C3039 1.429 . S
C3034 C3026 1.574 . S
C3034 H3029 0.949 . S
C3034 C3040 1.368 . S
C3035 C3019 1.349 . S
C3035 H3027 0.950 . S
C3035 C3033 1.327 . S
C3036 C3024 1.349 . S
C3036 H3030 0.950 . S
C3036 C3037 1.327 . S
C3037 H3031 0.950 . S
C3037 C3036 1.327 . S
C3037 C3041 1.429 . S
C3038 C3021 1.574 . S
C3038 H3032 0.949 . S
C3038 C3042 1.368 . S
C3039 C3020 1.429 . S
C3039 C3033 1.429 . S
C3039 C3040 1.523 . S
C3040 C3021 1.368 . S
C3040 C3034 1.368 . S
C3040 C3039 1.523 . S
C3041 C3025 1.429 . S
C3041 C3037 1.429 . S
C3041 C3042 1.523 . S
C3042 C3026 1.368 . S
C3042 C3038 1.368 . S
C3042 C3041 1.523 . S
H3043 C3018 0.950 . S
H3044 C3020 0.950 . S
H3045 C3021 0.949 . S
H3046 C3023 0.950 . S
H3047 C3025 0.950 . S
C3048 C3049 1.349 . S
C3048 C3050 1.327 . S
C3048 H3073 0.950 . S
C3049 C3048 1.349 . S
C3049 C3065 1.349 . S
C3050 C3048 1.327 . S
C3050 C3069 1.429 . S
C3050 H3074 0.950 . S
C3051 C3068 1.574 . S
C3051 C3070 1.368 . S
C3051 H3075 0.949 . S
H3052 C3056 0.949 . S
C3053 C3054 1.349 . S
C3053 C3055 1.327 . S
C3053 H3076 0.950 . S
C3054 C3053 1.349 . S
C3054 C3066 1.349 . S
C3055 C3053 1.327 . S
C3055 C3071 1.429 . S
C3055 H3077 0.950 . S
C3056 H3052 0.949 . S
C3056 C3064 1.574 . S
C3056 C3072 1.368 . S
H3057 C3065 0.950 . S
H3058 C3063 0.950 . S
H3059 C3064 0.949 . S
H3060 C3066 0.950 . S
H3061 C3067 0.950 . S
H3062 C3068 0.949 . S
C3063 H3058 0.950 . S
C3063 C3065 1.327 . S
C3063 C3069 1.429 . S
C3064 C3056 1.574 . S
C3064 H3059 0.949 . S
C3064 C3070 1.368 . S
C3065 C3049 1.349 . S
C3065 H3057 0.950 . S
C3065 C3063 1.327 . S
C3066 C3054 1.349 . S
C3066 H3060 0.950 . S
C3066 C3067 1.327 . S
C3067 H3061 0.950 . S
C3067 C3066 1.327 . S
C3067 C3071 1.429 . S
C3068 C3051 1.574 . S
C3068 H3062 0.949 . S
C3068 C3072 1.368 . S
C3069 C3050 1.429 . S
C3069 C3063 1.429 . S
C3069 C3070 1.523 . S
C3070 C3051 1.368 . S
C3070 C3064 1.368 . S
C3070 C3069 1.523 . S
C3071 C3055 1.429 . S
C3071 C3067 1.429 . S
C3071 C3072 1.523 . S
C3072 C3056 1.368 . S
C3072 C3068 1.368 . S
C3072 C3071 1.523 . S
H3073 C3048 0.950 . S
H3074 C3050 0.950 . S
H3075 C3051 0.949 . S
H3076 C3053 0.950 . S
H3077 C3055 0.950 . S
C3078 C3079 1.349 . S
C3078 C3080 1.327 . S
C3078 H3103 0.950 . S
C3079 C3078 1.349 . S
C3079 C3095 1.349 . S
C3080 C3078 1.327 . S
C3080 C3099 1.429 . S
C3080 H3104 0.950 . S
C3081 C3098 1.574 . S
C3081 C3100 1.368 . S
C3081 H3105 0.949 . S
H3082 C3086 0.949 . S
C3083 C3084 1.349 . S
C3083 C3085 1.327 . S
C3083 H3106 0.950 . S
C3084 C3083 1.349 . S
C3084 C3096 1.349 . S
C3085 C3083 1.327 . S
C3085 C3101 1.429 . S
C3085 H3107 0.950 . S
C3086 H3082 0.949 . S
C3086 C3094 1.574 . S
C3086 C3102 1.368 . S
H3087 C3095 0.950 . S
H3088 C3093 0.950 . S
H3089 C3094 0.949 . S
H3090 C3096 0.950 . S
H3091 C3097 0.950 . S
H3092 C3098 0.949 . S
C3093 H3088 0.950 . S
C3093 C3095 1.327 . S
C3093 C3099 1.429 . S
C3094 C3086 1.574 . S
C3094 H3089 0.949 . S
C3094 C3100 1.368 . S
C3095 C3079 1.349 . S
C3095 H3087 0.950 . S
C3095 C3093 1.327 . S
C3096 C3084 1.349 . S
C3096 H3090 0.950 . S
C3096 C3097 1.327 . S
C3097 H3091 0.950 . S
C3097 C3096 1.327 . S
C3097 C3101 1.429 . S
C3098 C3081 1.574 . S
C3098 H3092 0.949 . S
C3098 C3102 1.368 . S
C3099 C3080 1.429 . S
C3099 C3093 1.429 . S
C3099 C3100 1.523 . S
C3100 C3081 1.368 . S
C3100 C3094 1.368 . S
C3100 C3099 1.523 . S
C3101 C3085 1.429 . S
C3101 C3097 1.429 . S
C3101 C3102 1.523 . S
C3102 C3086 1.368 . S
C3102 C3098 1.368 . S
C3102 C3101 1.523 . S
H3103 C3078 0.950 . S
H3104 C3080 0.950 . S
H3105 C3081 0.949 . S
H3106 C3083 0.950 . S
H3107 C3085 0.950 . S
C3108 C3109 1.349 . S
C3108 C3110 1.327 . S
C3108 H3133 0.950 . S
C3109 C3108 1.349 . S
C3109 C3125 1.349 . S
C3110 C3108 1.327 . S
C3110 C3129 1.429 . S
C3110 H3134 0.950 . S
C3111 C3128 1.574 . S
C3111 C3130 1.368 . S
C3111 H3135 0.949 . S
H3112 C3116 0.949 . S
C3113 C3114 1.349 . S
C3113 C3115 1.327 . S
C3113 H3136 0.950 . S
C3114 C3113 1.349 . S
C3114 C3126 1.349 . S
C3115 C3113 1.327 . S
C3115 C3131 1.429 . S
C3115 H3137 0.950 . S
C3116 H3112 0.949 . S
C3116 C3124 1.574 . S
C3116 C3132 1.368 . S
H3117 C3125 0.950 . S
H3118 C3123 0.950 . S
H3119 C3124 0.949 . S
H3120 C3126 0.950 . S
H3121 C3127 0.950 . S
H3122 C3128 0.949 . S
C3123 H3118 0.950 . S
C3123 C3125 1.327 . S
C3123 C3129 1.429 . S
C3124 C3116 1.574 . S
C3124 H3119 0.949 . S
C3124 C3130 1.368 . S
C3125 C3109 1.349 . S
C3125 H3117 0.950 . S
C3125 C3123 1.327 . S
C3126 C3114 1.349 . S
C3126 H3120 0.950 . S
C3126 C3127 1.327 . S
C3127 H3121 0.950 . S
C3127 C3126 1.327 . S
C3127 C3131 1.429 . S
C3128 C3111 1.574 . S
C3128 H3122 0.949 . S
C3128 C3132 1.368 . S
C3129 C3110 1.429 . S
C3129 C3123 1.429 . S
C3129 C3130 1.523 . S
C3130 C3111 1.368 . S
C3130 C3124 1.368 . S
C3130 C3129 1.523 . S
C3131 C3115 1.429 . S
C3131 C3127 1.429 . S
C3131 C3132 1.523 . S
C3132 C3116 1.368 . S
C3132 C3128 1.368 . S
C3132 C3131 1.523 . S
H3133 C3108 0.950 . S
H3134 C3110 0.950 . S
H3135 C3111 0.949 . S
H3136 C3113 0.950 . S
H3137 C3115 0.950 . S
C3138 C3139 1.349 . S
C3138 C3140 1.327 . S
C3138 H3163 0.950 . S
C3139 C3138 1.349 . S
C3139 C3155 1.349 . S
C3140 C3138 1.327 . S
C3140 C3159 1.429 . S
C3140 H3164 0.950 . S
C3141 C3158 1.574 . S
C3141 C3160 1.368 . S
C3141 H3165 0.949 . S
H3142 C3146 0.949 . S
C3143 C3144 1.349 . S
C3143 C3145 1.327 . S
C3143 H3166 0.950 . S
C3144 C3143 1.349 . S
C3144 C3156 1.349 . S
C3145 C3143 1.327 . S
C3145 C3161 1.429 . S
C3145 H3167 0.950 . S
C3146 H3142 0.949 . S
C3146 C3154 1.574 . S
C3146 C3162 1.368 . S
H3147 C3155 0.950 . S
H3148 C3153 0.950 . S
H3149 C3154 0.949 . S
H3150 C3156 0.950 . S
H3151 C3157 0.950 . S
H3152 C3158 0.949 . S
C3153 H3148 0.950 . S
C3153 C3155 1.327 . S
C3153 C3159 1.429 . S
C3154 C3146 1.574 . S
C3154 H3149 0.949 . S
C3154 C3160 1.368 . S
C3155 C3139 1.349 . S
C3155 H3147 0.950 . S
C3155 C3153 1.327 . S
C3156 C3144 1.349 . S
C3156 H3150 0.950 . S
C3156 C3157 1.327 . S
C3157 H3151 0.950 . S
C3157 C3156 1.327 . S
C3157 C3161 1.429 . S
C3158 C3141 1.574 . S
C3158 H3152 0.949 . S
C3158 C3162 1.368 . S
C3159 C3140 1.429 . S
C3159 C3153 1.429 . S
C3159 C3160 1.523 . S
C3160 C3141 1.368 . S
C3160 C3154 1.368 . S
C3160 C3159 1.523 . S
C3161 C3145 1.429 . S
C3161 C3157 1.429 . S
C3161 C3162 1.523 . S
C3162 C3146 1.368 . S
C3162 C3158 1.368 . S
C3162 C3161 1.523 . S
H3163 C3138 0.950 . S
H3164 C3140 0.950 . S
H3165 C3141 0.949 . S
H3166 C3143 0.950 . S
H3167 C3145 0.950 . S
C3168 C3169 1.349 . S
C3168 C3170 1.327 . S
C3168 H3193 0.950 . S
C3169 C3168 1.349 . S
C3169 C3185 1.349 . S
C3170 C3168 1.327 . S
C3170 C3189 1.429 . S
C3170 H3194 0.950 . S
C3171 C3188 1.574 . S
C3171 C3190 1.368 . S
C3171 H3195 0.949 . S
H3172 C3176 0.949 . S
C3173 C3174 1.349 . S
C3173 C3175 1.327 . S
C3173 H3196 0.950 . S
C3174 C3173 1.349 . S
C3174 C3186 1.349 . S
C3175 C3173 1.327 . S
C3175 C3191 1.429 . S
C3175 H3197 0.950 . S
C3176 H3172 0.949 . S
C3176 C3184 1.574 . S
C3176 C3192 1.368 . S
H3177 C3185 0.950 . S
H3178 C3183 0.950 . S
H3179 C3184 0.949 . S
H3180 C3186 0.950 . S
H3181 C3187 0.950 . S
H3182 C3188 0.949 . S
C3183 H3178 0.950 . S
C3183 C3185 1.327 . S
C3183 C3189 1.429 . S
C3184 C3176 1.574 . S
C3184 H3179 0.949 . S
C3184 C3190 1.368 . S
C3185 C3169 1.349 . S
C3185 H3177 0.950 . S
C3185 C3183 1.327 . S
C3186 C3174 1.349 . S
C3186 H3180 0.950 . S
C3186 C3187 1.327 . S
C3187 H3181 0.950 . S
C3187 C3186 1.327 . S
C3187 C3191 1.429 . S
C3188 C3171 1.574 . S
C3188 H3182 0.949 . S
C3188 C3192 1.368 . S
C3189 C3170 1.429 . S
C3189 C3183 1.429 . S
C3189 C3190 1.523 . S
C3190 C3171 1.368 . S
C3190 C3184 1.368 . S
C3190 C3189 1.523 . S
C3191 C3175 1.429 . S
C3191 C3187 1.429 . S
C3191 C3192 1.523 . S
C3192 C3176 1.368 . S
C3192 C3188 1.368 . S
C3192 C3191 1.523 . S
H3193 C3168 0.950 . S
H3194 C3170 0.950 . S
H3195 C3171 0.949 . S
H3196 C3173 0.950 . S
H3197 C3175 0.950 . S
C3198 C3199 1.349 . S
C3198 C3200 1.327 . S
C3198 H3223 0.950 . S
C3199 C3198 1.349 . S
C3199 C3215 1.349 . S
C3200 C3198 1.327 . S
C3200 C3219 1.429 . S
C3200 H3224 0.950 . S
C3201 C3218 1.574 . S
C3201 C3220 1.368 . S
C3201 H3225 0.949 . S
H3202 C3206 0.949 . S
C3203 C3204 1.349 . S
C3203 C3205 1.327 . S
C3203 H3226 0.950 . S
C3204 C3203 1.349 . S
C3204 C3216 1.349 . S
C3205 C3203 1.327 . S
C3205 C3221 1.429 . S
C3205 H3227 0.950 . S
C3206 H3202 0.949 . S
C3206 C3214 1.574 . S
C3206 C3222 1.368 . S
H3207 C3215 0.950 . S
H3208 C3213 0.950 . S
H3209 C3214 0.949 . S
H3210 C3216 0.950 . S
H3211 C3217 0.950 . S
H3212 C3218 0.949 . S
C3213 H3208 0.950 . S
C3213 C3215 1.327 . S
C3213 C3219 1.429 . S
C3214 C3206 1.574 . S
C3214 H3209 0.949 . S
C3214 C3220 1.368 . S
C3215 C3199 1.349 . S
C3215 H3207 0.950 . S
C3215 C3213 1.327 . S
C3216 C3204 1.349 . S
C3216 H3210 0.950 . S
C3216 C3217 1.327 . S
C3217 H3211 0.950 . S
C3217 C3216 1.327 . S
C3217 C3221 1.429 . S
C3218 C3201 1.574 . S
C3218 H3212 0.949 . S
C3218 C3222 1.368 . S
C3219 C3200 1.429 . S
C3219 C3213 1.429 . S
C3219 C3220 1.523 . S
C3220 C3201 1.368 . S
C3220 C3214 1.368 . S
C3220 C3219 1.523 . S
C3221 C3205 1.429 . S
C3221 C3217 1.429 . S
C3221 C3222 1.523 . S
C3222 C3206 1.368 . S
C3222 C3218 1.368 . S
C3222 C3221 1.523 . S
H3223 C3198 0.950 . S
H3224 C3200 0.950 . S
H3225 C3201 0.949 . S
H3226 C3203 0.950 . S
H3227 C3205 0.950 . S
C3228 C3229 1.349 . S
C3228 C3230 1.327 . S
C3228 H3253 0.950 . S
C3229 C3228 1.349 . S
C3229 C3245 1.349 . S
C3230 C3228 1.327 . S
C3230 C3249 1.429 . S
C3230 H3254 0.950 . S
C3231 C3248 1.574 . S
C3231 C3250 1.368 . S
C3231 H3255 0.949 . S
H3232 C3236 0.949 . S
C3233 C3234 1.349 . S
C3233 C3235 1.327 . S
C3233 H3256 0.950 . S
C3234 C3233 1.349 . S
C3234 C3246 1.349 . S
C3235 C3233 1.327 . S
C3235 C3251 1.429 . S
C3235 H3257 0.950 . S
C3236 H3232 0.949 . S
C3236 C3244 1.574 . S
C3236 C3252 1.368 . S
H3237 C3245 0.950 . S
H3238 C3243 0.950 . S
H3239 C3244 0.949 . S
H3240 C3246 0.950 . S
H3241 C3247 0.950 . S
H3242 C3248 0.949 . S
C3243 H3238 0.950 . S
C3243 C3245 1.327 . S
C3243 C3249 1.429 . S
C3244 C3236 1.574 . S
C3244 H3239 0.949 . S
C3244 C3250 1.368 . S
C3245 C3229 1.349 . S
C3245 H3237 0.950 . S
C3245 C3243 1.327 . S
C3246 C3234 1.349 . S
C3246 H3240 0.950 . S
C3246 C3247 1.327 . S
C3247 H3241 0.950 . S
C3247 C3246 1.327 . S
C3247 C3251 1.429 . S
C3248 C3231 1.574 . S
C3248 H3242 0.949 . S
C3248 C3252 1.368 . S
C3249 C3230 1.429 . S
C3249 C3243 1.429 . S
C3249 C3250 1.523 . S
C3250 C3231 1.368 . S
C3250 C3244 1.368 . S
C3250 C3249 1.523 . S
C3251 C3235 1.429 . S
C3251 C3247 1.429 . S
C3251 C3252 1.523 . S
C3252 C3236 1.368 . S
C3252 C3248 1.368 . S
C3252 C3251 1.523 . S
H3253 C3228 0.950 . S
H3254 C3230 0.950 . S
H3255 C3231 0.949 . S
H3256 C3233 0.950 . S
H3257 C3235 0.950 . S
C3258 C3259 1.349 . S
C3258 C3260 1.327 . S
C3258 H3283 0.950 . S
C3259 C3258 1.349 . S
C3259 C3275 1.349 . S
C3260 C3258 1.327 . S
C3260 C3279 1.429 . S
C3260 H3284 0.950 . S
C3261 C3278 1.574 . S
C3261 C3280 1.368 . S
C3261 H3285 0.949 . S
H3262 C3266 0.949 . S
C3263 C3264 1.349 . S
C3263 C3265 1.327 . S
C3263 H3286 0.950 . S
C3264 C3263 1.349 . S
C3264 C3276 1.349 . S
C3265 C3263 1.327 . S
C3265 C3281 1.429 . S
C3265 H3287 0.950 . S
C3266 H3262 0.949 . S
C3266 C3274 1.574 . S
C3266 C3282 1.368 . S
H3267 C3275 0.950 . S
H3268 C3273 0.950 . S
H3269 C3274 0.949 . S
H3270 C3276 0.950 . S
H3271 C3277 0.950 . S
H3272 C3278 0.949 . S
C3273 H3268 0.950 . S
C3273 C3275 1.327 . S
C3273 C3279 1.429 . S
C3274 C3266 1.574 . S
C3274 H3269 0.949 . S
C3274 C3280 1.368 . S
C3275 C3259 1.349 . S
C3275 H3267 0.950 . S
C3275 C3273 1.327 . S
C3276 C3264 1.349 . S
C3276 H3270 0.950 . S
C3276 C3277 1.327 . S
C3277 H3271 0.950 . S
C3277 C3276 1.327 . S
C3277 C3281 1.429 . S
C3278 C3261 1.574 . S
C3278 H3272 0.949 . S
C3278 C3282 1.368 . S
C3279 C3260 1.429 . S
C3279 C3273 1.429 . S
C3279 C3280 1.523 . S
C3280 C3261 1.368 . S
C3280 C3274 1.368 . S
C3280 C3279 1.523 . S
C3281 C3265 1.429 . S
C3281 C3277 1.429 . S
C3281 C3282 1.523 . S
C3282 C3266 1.368 . S
C3282 C3278 1.368 . S
C3282 C3281 1.523 . S
H3283 C3258 0.950 . S
H3284 C3260 0.950 . S
H3285 C3261 0.949 . S
H3286 C3263 0.950 . S
H3287 C3265 0.950 . S
C3288 C3289 1.349 . S
C3288 C3290 1.327 . S
C3288 H3313 0.950 . S
C3289 C3288 1.349 . S
C3289 C3305 1.349 . S
C3290 C3288 1.327 . S
C3290 C3309 1.429 . S
C3290 H3314 0.950 . S
C3291 C3308 1.574 . S
C3291 C3310 1.368 . S
C3291 H3315 0.949 . S
H3292 C3296 0.949 . S
C3293 C3294 1.349 . S
C3293 C3295 1.327 . S
C3293 H3316 0.950 . S
C3294 C3293 1.349 . S
C3294 C3306 1.349 . S
C3295 C3293 1.327 . S
C3295 C3311 1.429 . S
C3295 H3317 0.950 . S
C3296 H3292 0.949 . S
C3296 C3304 1.574 . S
C3296 C3312 1.368 . S
H3297 C3305 0.950 . S
H3298 C3303 0.950 . S
H3299 C3304 0.949 . S
H3300 C3306 0.950 . S
H3301 C3307 0.950 . S
H3302 C3308 0.949 . S
C3303 H3298 0.950 . S
C3303 C3305 1.327 . S
C3303 C3309 1.429 . S
C3304 C3296 1.574 . S
C3304 H3299 0.949 . S
C3304 C3310 1.368 . S
C3305 C3289 1.349 . S
C3305 H3297 0.950 . S
C3305 C3303 1.327 . S
C3306 C3294 1.349 . S
C3306 H3300 0.950 . S
C3306 C3307 1.327 . S
C3307 H3301 0.950 . S
C3307 C3306 1.327 . S
C3307 C3311 1.429 . S
C3308 C3291 1.574 . S
C3308 H3302 0.949 . S
C3308 C3312 1.368 . S
C3309 C3290 1.429 . S
C3309 C3303 1.429 . S
C3309 C3310 1.523 . S
C3310 C3291 1.368 . S
C3310 C3304 1.368 . S
C3310 C3309 1.523 . S
C3311 C3295 1.429 . S
C3311 C3307 1.429 . S
C3311 C3312 1.523 . S
C3312 C3296 1.368 . S
C3312 C3308 1.368 . S
C3312 C3311 1.523 . S
H3313 C3288 0.950 . S
H3314 C3290 0.950 . S
H3315 C3291 0.949 . S
H3316 C3293 0.950 . S
H3317 C3295 0.950 . S
C3318 C3319 1.349 . S
C3318 C3320 1.327 . S
C3318 H3343 0.950 . S
C3319 C3318 1.349 . S
C3319 C3335 1.349 . S
C3320 C3318 1.327 . S
C3320 C3339 1.429 . S
C3320 H3344 0.950 . S
C3321 C3338 1.574 . S
C3321 C3340 1.368 . S
C3321 H3345 0.949 . S
H3322 C3326 0.949 . S
C3323 C3324 1.349 . S
C3323 C3325 1.327 . S
C3323 H3346 0.950 . S
C3324 C3323 1.349 . S
C3324 C3336 1.349 . S
C3325 C3323 1.327 . S
C3325 C3341 1.429 . S
C3325 H3347 0.950 . S
C3326 H3322 0.949 . S
C3326 C3334 1.574 . S
C3326 C3342 1.368 . S
H3327 C3335 0.950 . S
H3328 C3333 0.950 . S
H3329 C3334 0.949 . S
H3330 C3336 0.950 . S
H3331 C3337 0.950 . S
H3332 C3338 0.949 . S
C3333 H3328 0.950 . S
C3333 C3335 1.327 . S
C3333 C3339 1.429 . S
C3334 C3326 1.574 . S
C3334 H3329 0.949 . S
C3334 C3340 1.368 . S
C3335 C3319 1.349 . S
C3335 H3327 0.950 . S
C3335 C3333 1.327 . S
C3336 C3324 1.349 . S
C3336 H3330 0.950 . S
C3336 C3337 1.327 . S
C3337 H3331 0.950 . S
C3337 C3336 1.327 . S
C3337 C3341 1.429 . S
C3338 C3321 1.574 . S
C3338 H3332 0.949 . S
C3338 C3342 1.368 . S
C3339 C3320 1.429 . S
C3339 C3333 1.429 . S
C3339 C3340 1.523 . S
C3340 C3321 1.368 . S
C3340 C3334 1.368 . S
C3340 C3339 1.523 . S
C3341 C3325 1.429 . S
C3341 C3337 1.429 . S
C3341 C3342 1.523 . S
C3342 C3326 1.368 . S
C3342 C3338 1.368 . S
C3342 C3341 1.523 . S
H3343 C3318 0.950 . S
H3344 C3320 0.950 . S
H3345 C3321 0.949 . S
H3346 C3323 0.950 . S
H3347 C3325 0.950 . S
C3348 C3349 1.349 . S
C3348 C3350 1.327 . S
C3348 H3373 0.950 . S
C3349 C3348 1.349 . S
C3349 C3365 1.349 . S
C3350 C3348 1.327 . S
C3350 C3369 1.429 . S
C3350 H3374 0.950 . S
C3351 C3368 1.574 . S
C3351 C3370 1.368 . S
C3351 H3375 0.949 . S
H3352 C3356 0.949 . S
C3353 C3354 1.349 . S
C3353 C3355 1.327 . S
C3353 H3376 0.950 . S
C3354 C3353 1.349 . S
C3354 C3366 1.349 . S
C3355 C3353 1.327 . S
C3355 C3371 1.429 . S
C3355 H3377 0.950 . S
C3356 H3352 0.949 . S
C3356 C3364 1.574 . S
C3356 C3372 1.368 . S
H3357 C3365 0.950 . S
H3358 C3363 0.950 . S
H3359 C3364 0.949 . S
H3360 C3366 0.950 . S
H3361 C3367 0.950 . S
H3362 C3368 0.949 . S
C3363 H3358 0.950 . S
C3363 C3365 1.327 . S
C3363 C3369 1.429 . S
C3364 C3356 1.574 . S
C3364 H3359 0.949 . S
C3364 C3370 1.368 . S
C3365 C3349 1.349 . S
C3365 H3357 0.950 . S
C3365 C3363 1.327 . S
C3366 C3354 1.349 . S
C3366 H3360 0.950 . S
C3366 C3367 1.327 . S
C3367 H3361 0.950 . S
C3367 C3366 1.327 . S
C3367 C3371 1.429 . S
C3368 C3351 1.574 . S
C3368 H3362 0.949 . S
C3368 C3372 1.368 . S
C3369 C3350 1.429 . S
C3369 C3363 1.429 . S
C3369 C3370 1.523 . S
C3370 C3351 1.368 . S
C3370 C3364 1.368 . S
C3370 C3369 1.523 . S
C3371 C3355 1.429 . S
C3371 C3367 1.429 . S
C3371 C3372 1.523 . S
C3372 C3356 1.368 . S
C3372 C3368 1.368 . S
C3372 C3371 1.523 . S
H3373 C3348 0.950 . S
H3374 C3350 0.950 . S
H3375 C3351 0.949 . S
H3376 C3353 0.950 . S
H3377 C3355 0.950 . S
C3378 C3379 1.349 . S
C3378 C3380 1.327 . S
C3378 H3403 0.950 . S
C3379 C3378 1.349 . S
C3379 C3395 1.349 1_554 S
C3380 C3378 1.327 . S
C3380 C3399 1.429 . S
C3380 H3404 0.950 . S
C3381 C3398 1.574 . S
C3381 C3400 1.363 1_556 S
C3381 H3405 0.949 . S
H3382 C3386 0.949 . S
C3383 C3384 1.349 . S
C3383 C3385 1.327 . S
C3383 H3406 0.950 . S
C3384 C3383 1.349 . S
C3384 C3396 1.349 1_556 S
C3385 C3383 1.327 . S
C3385 C3401 1.429 . S
C3385 H3407 0.950 . S
C3386 H3382 0.949 . S
C3386 C3394 1.574 . S
C3386 C3402 1.368 1_554 S
H3387 C3395 0.950 . S
H3388 C3393 0.950 . S
H3389 C3394 0.949 . S
H3390 C3396 0.910 1_545 S
H3391 C3397 0.950 . S
H3392 C3398 0.949 . S
C3393 H3388 0.950 . S
C3393 C3395 1.327 . S
C3393 C3399 1.429 1_556 S
C3394 C3386 1.574 . S
C3394 H3389 0.949 . S
C3394 C3400 1.374 . S
C3395 C3379 1.349 1_556 S
C3395 H3387 0.950 . S
C3395 C3393 1.327 . S
C3396 C3384 1.349 1_554 S
C3396 H3390 0.910 1_565 S
C3396 C3397 1.327 . S
C3397 H3391 0.950 . S
C3397 C3396 1.327 . S
C3397 C3401 1.429 1_554 S
C3398 C3381 1.574 . S
C3398 H3392 0.949 . S
C3398 C3402 1.368 . S
C3399 C3380 1.429 . S
C3399 C3393 1.429 1_554 S
C3399 C3400 1.524 . S
C3400 C3381 1.363 1_554 S
C3400 C3394 1.374 . S
C3400 C3399 1.524 . S
C3401 C3385 1.429 . S
C3401 C3397 1.429 1_556 S
C3401 C3402 1.523 . S
C3402 C3386 1.368 1_556 S
C3402 C3398 1.368 . S
C3402 C3401 1.523 . S
H3403 C3378 0.950 . S
H3404 C3380 0.950 . S
H3405 C3381 0.949 . S
H3406 C3383 0.950 . S
H3407 C3385 0.950 . S
C3408 C3409 1.349 . S
C3408 C3410 1.327 . S
C3408 H3433 0.950 . S
C3409 C3408 1.349 . S
C3409 C3425 1.349 . S
C3410 C3408 1.327 . S
C3410 C3429 1.429 . S
C3410 H3434 0.950 . S
C3411 C3428 1.574 . S
C3411 C3430 1.368 . S
C3411 H3435 0.949 . S
H3412 C3416 0.949 . S
C3413 C3414 1.349 . S
C3413 C3415 1.327 . S
C3413 H3436 0.950 . S
C3414 C3413 1.349 . S
C3414 C3426 1.349 . S
C3415 C3413 1.327 . S
C3415 C3431 1.429 . S
C3415 H3437 0.950 . S
C3416 H3412 0.949 . S
C3416 C3424 1.574 . S
C3416 C3432 1.368 . S
H3417 C3425 0.950 . S
H3418 C3423 0.950 . S
H3419 C3424 0.949 . S
H3420 C3426 0.950 . S
H3421 C3427 0.950 . S
H3422 C3428 0.949 . S
C3423 H3418 0.950 . S
C3423 C3425 1.327 . S
C3423 C3429 1.429 . S
C3424 C3416 1.574 . S
C3424 H3419 0.949 . S
C3424 C3430 1.368 . S
C3425 C3409 1.349 . S
C3425 H3417 0.950 . S
C3425 C3423 1.327 . S
C3426 C3414 1.349 . S
C3426 H3420 0.950 . S
C3426 C3427 1.327 . S
C3427 H3421 0.950 . S
C3427 C3426 1.327 . S
C3427 C3431 1.429 . S
C3428 C3411 1.574 . S
C3428 H3422 0.949 . S
C3428 C3432 1.368 . S
C3429 C3410 1.429 . S
C3429 C3423 1.429 . S
C3429 C3430 1.523 . S
C3430 C3411 1.368 . S
C3430 C3424 1.368 . S
C3430 C3429 1.523 . S
C3431 C3415 1.429 . S
C3431 C3427 1.429 . S
C3431 C3432 1.523 . S
C3432 C3416 1.368 . S
C3432 C3428 1.368 . S
C3432 C3431 1.523 . S
H3433 C3408 0.950 . S
H3434 C3410 0.950 . S
H3435 C3411 0.949 . S
H3436 C3413 0.950 . S
H3437 C3415 0.950 . S
C3438 C3439 1.349 . S
C3438 C3440 1.327 . S
C3438 H3463 0.950 . S
C3439 C3438 1.349 . S
C3439 C3455 1.349 1_554 S
C3440 C3438 1.327 . S
C3440 C3459 1.429 . S
C3440 H3464 0.950 . S
C3441 C3458 1.574 . S
C3441 C3460 1.368 1_556 S
C3441 H3465 0.949 . S
H3442 C3446 0.949 . S
C3443 C3444 1.349 1_556 S
C3443 C3445 1.327 . S
C3443 H3466 0.950 . S
C3444 C3443 1.349 1_554 S
C3444 C3456 1.349 . S
C3445 C3443 1.327 . S
C3445 C3461 1.429 1_556 S
C3445 H3467 0.950 . S
C3446 H3442 0.949 . S
C3446 C3454 1.574 . S
C3446 C3462 1.368 . S
H3447 C3455 0.950 . S
H3448 C3453 0.950 . S
H3449 C3454 0.949 . S
H3450 C3456 0.950 . S
H3451 C3457 0.950 . S
H3452 C3458 0.949 . S
C3453 H3448 0.950 . S
C3453 C3455 1.327 . S
C3453 C3459 1.429 1_556 S
C3454 C3446 1.574 . S
C3454 H3449 0.949 . S
C3454 C3460 1.368 . S
C3455 C3439 1.349 1_556 S
C3455 H3447 0.950 . S
C3455 C3453 1.327 . S
C3456 C3444 1.349 . S
C3456 H3450 0.950 . S
C3456 C3457 1.327 . S
C3457 H3451 0.950 . S
C3457 C3456 1.327 . S
C3457 C3461 1.429 . S
C3458 C3441 1.574 . S
C3458 H3452 0.949 . S
C3458 C3462 1.368 1_556 S
C3459 C3440 1.429 . S
C3459 C3453 1.429 1_554 S
C3459 C3460 1.523 . S
C3460 C3441 1.368 1_554 S
C3460 C3454 1.368 . S
C3460 C3459 1.523 . S
C3461 C3445 1.429 1_554 S
C3461 C3457 1.429 . S
C3461 C3462 1.523 . S
C3462 C3446 1.368 . S
C3462 C3458 1.368 1_554 S
C3462 C3461 1.523 . S
H3463 C3438 0.950 . S
H3464 C3440 0.950 . S
H3465 C3441 0.949 . S
H3466 C3443 0.950 . S
H3467 C3445 0.950 . S
C3468 C3469 1.349 . S
C3468 C3470 1.327 . S
C3468 H3493 0.950 . S
C3469 C3468 1.349 . S
C3469 C3485 1.349 . S
C3470 C3468 1.327 . S
C3470 C3489 1.429 . S
C3470 H3494 0.950 . S
C3471 C3488 1.574 . S
C3471 C3490 1.368 . S
C3471 H3495 0.949 . S
H3472 C3476 0.949 . S
C3473 C3474 1.349 . S
C3473 C3475 1.327 . S
C3473 H3496 0.950 . S
C3474 C3473 1.349 . S
C3474 C3486 1.349 . S
C3475 C3473 1.327 . S
C3475 C3491 1.429 . S
C3475 H3497 0.950 . S
C3476 H3472 0.949 . S
C3476 C3484 1.574 . S
C3476 C3492 1.368 . S
H3477 C3485 0.950 . S
H3478 C3483 0.950 . S
H3479 C3484 0.949 . S
H3480 C3486 0.950 . S
H3481 C3487 0.950 . S
H3482 C3488 0.949 . S
C3483 H3478 0.950 . S
C3483 C3485 1.327 . S
C3483 C3489 1.429 . S
C3484 C3476 1.574 . S
C3484 H3479 0.949 . S
C3484 C3490 1.368 . S
C3485 C3469 1.349 . S
C3485 H3477 0.950 . S
C3485 C3483 1.327 . S
C3486 C3474 1.349 . S
C3486 H3480 0.950 . S
C3486 C3487 1.327 . S
C3487 H3481 0.950 . S
C3487 C3486 1.327 . S
C3487 C3491 1.429 . S
C3488 C3471 1.574 . S
C3488 H3482 0.949 . S
C3488 C3492 1.368 . S
C3489 C3470 1.429 . S
C3489 C3483 1.429 . S
C3489 C3490 1.523 . S
C3490 C3471 1.368 . S
C3490 C3484 1.368 . S
C3490 C3489 1.523 . S
C3491 C3475 1.429 . S
C3491 C3487 1.429 . S
C3491 C3492 1.523 . S
C3492 C3476 1.368 . S
C3492 C3488 1.368 . S
C3492 C3491 1.523 . S
H3493 C3468 0.950 . S
H3494 C3470 0.950 . S
H3495 C3471 0.949 . S
H3496 C3473 0.950 . S
H3497 C3475 0.950 . S
C3498 C3499 1.349 . S
C3498 C3500 1.327 . S
C3498 H3523 0.950 . S
C3499 C3498 1.349 . S
C3499 C3515 1.349 . S
C3500 C3498 1.327 . S
C3500 C3519 1.429 . S
C3500 H3524 0.950 . S
C3501 C3518 1.574 . S
C3501 C3520 1.368 . S
C3501 H3525 0.949 . S
H3502 C3506 0.949 . S
C3503 C3504 1.349 . S
C3503 C3505 1.327 . S
C3503 H3526 0.950 . S
C3504 C3503 1.349 . S
C3504 C3516 1.349 . S
C3505 C3503 1.327 . S
C3505 C3521 1.429 . S
C3505 H3527 0.950 . S
C3506 H3502 0.949 . S
C3506 C3514 1.574 . S
C3506 C3522 1.368 . S
H3507 C3515 0.950 . S
H3508 C3513 0.950 . S
H3509 C3514 0.949 . S
H3510 C3516 0.950 . S
H3511 C3517 0.950 . S
H3512 C3518 0.949 . S
C3513 H3508 0.950 . S
C3513 C3515 1.327 . S
C3513 C3519 1.429 . S
C3514 C3506 1.574 . S
C3514 H3509 0.949 . S
C3514 C3520 1.368 . S
C3515 C3499 1.349 . S
C3515 H3507 0.950 . S
C3515 C3513 1.327 . S
C3516 C3504 1.349 . S
C3516 H3510 0.950 . S
C3516 C3517 1.327 . S
C3517 H3511 0.950 . S
C3517 C3516 1.327 . S
C3517 C3521 1.429 . S
C3518 C3501 1.574 . S
C3518 H3512 0.949 . S
C3518 C3522 1.368 . S
C3519 C3500 1.429 . S
C3519 C3513 1.429 . S
C3519 C3520 1.523 . S
C3520 C3501 1.368 . S
C3520 C3514 1.368 . S
C3520 C3519 1.523 . S
C3521 C3505 1.429 . S
C3521 C3517 1.429 . S
C3521 C3522 1.523 . S
C3522 C3506 1.368 . S
C3522 C3518 1.368 . S
C3522 C3521 1.523 . S
H3523 C3498 0.950 . S
H3524 C3500 0.950 . S
H3525 C3501 0.949 . S
H3526 C3503 0.950 . S
H3527 C3505 0.950 . S
C654 C328 1.124 . S
C649 C10 1.230 . S
C679 C13 0.965 . S
C684 C348 0.971 . S
C709 C34 1.177 . S
C714 C370 1.107 . S
C744 C389 1.191 . S
C739 C44 1.197 . S
C769 C21 1.214 . S
C774 C410 1.218 . S
C804 C433 1.084 . S
C799 C26 1.145 . S
C834 C456 1.036 . S
C829 C49 1.059 . S
C859 C5 1.142 . S
C864 C474 1.134 . S
C889 C62 1.117 . S
C894 C330 1.089 . S
C919 C73 1.166 . S
C924 C350 1.171 . S
C954 C372 0.995 . S
C949 C88 1.016 . S
C984 C391 1.111 . S
C979 C99 1.181 . S
C1009 C60 1.189 . S
C1014 C412 1.126 . S
C1044 C435 0.944 . S
C1039 C75 0.961 . S
C1074 C452 1.159 . S
C1069 C86 1.156 . S
C1104 C476 1.102 . S
C1099 C101 1.125 . S
C1134 C326 1.133 . S
C1129 C96 1.135 . S
C1164 C498 0.950 . S
C1159 C104 0.945 . S
C1189 C122 1.098 . S
C1194 C515 1.092 . S
C1224 C538 1.101 . S
C1219 C130 1.164 . S
C1249 C57 1.086 . S
C1254 C472 1.025 . S
C1284 C368 1.195 . S
C1279 C70 1.200 . S
C1309 C117 0.891 . S
C1314 C561 0.890 . S
C1344 C577 0.971 . S
C1339 C143 1.013 . S
C1369 C164 1.253 . S
C1374 C325 1.171 . S
C1404 C578 1.160 . S
C1399 C169 1.155 . S
C1429 C192 1.382 . S
C1434 C367 1.258 . S
C1459 C200 1.136 . S
C1464 C558 1.128 . S
C1494 C411 1.162 . S
C1489 C179 1.198 . S
C1524 C514 1.137 . S
C1519 C182 1.213 . S
C1554 C455 1.306 . S
C1549 C203 1.302 . S
C1584 C599 1.313 . S
C1579 C161 1.300 . S
C1614 C329 1.261 . S
C1609 C216 1.259 1_545 S
C1639 C231 1.125 . S
C1644 C582 1.094 . S
C1674 C371 1.195 . S
C1669 C242 1.196 . S
C1699 C257 1.229 . S
C1704 C556 1.132 . S
C1729 C218 1.291 1_565 S
C1734 C409 1.186 . S
C1759 C229 1.221 . S
C1764 C518 1.220 . S
C1794 C453 1.073 . S
C1789 C244 1.101 . S
C1819 C255 1.158 . S
C1824 C603 1.147 . S
C1849 C252 1.189 . S
C1854 C327 1.179 . S
C1879 C260 1.194 1_556 S
C1884 C497 1.213 . S
C1909 C278 1.063 . S
C1914 C432 1.054 . S
C1939 C286 1.196 . S
C1944 C535 1.128 . S
C1974 C601 1.067 . S
C1969 C213 1.130 . S
C2004 C369 1.123 . S
C1999 C226 1.132 . S
C2034 C392 1.120 . S
C2029 C273 1.117 . S
C2064 C349 1.133 . S
C2059 C299 1.202 . S
C2089 C36 1.230 . S
C2094 C622 1.124 . S
C2124 C579 0.971 . S
C2119 C39 0.965 . S
C2154 C643 1.107 . S
C2149 C8 1.177 . S
C2179 C18 1.197 . S
C2184 C557 1.191 . S
C2209 C47 1.214 . S
C2214 C494 1.218 . S
C2244 C517 1.084 . S
C2239 C0 1.145 . S
C2274 C540 1.036 . S
C2269 C23 1.059 . S
C2304 C600 1.134 . S
C2299 C31 1.142 . S
C2334 C624 1.089 . S
C2329 C153 1.117 . S
C2359 C112 1.166 . S
C2364 C581 1.171 . S
C2389 C127 1.016 . S
C2394 C645 0.995 . S
C2424 C559 1.111 . S
C2419 C138 1.181 . S
C2454 C496 1.126 . S
C2449 C151 1.189 . S
C2479 C114 0.961 . S
C2484 C519 0.944 . S
C2514 C536 1.159 . S
C2509 C125 1.156 . S
C2539 C140 1.125 . S
C2544 C602 1.102 . S
C2574 C620 1.130 . S
C2569 C135 1.135 . S
C2604 C414 0.950 . S
C2599 C65 0.945 . S
C2634 C431 1.092 . S
C2629 C83 1.098 . S
C2659 C91 1.164 . S
C2664 C454 1.102 . S
C2694 C598 1.025 . S
C2689 C148 1.085 . S
C2719 C109 1.200 . S
C2724 C641 1.195 . S
C2754 C393 0.890 . S
C2749 C78 0.891 . S
C2784 C346 0.971 . S
C2779 C52 1.013 . S
C2809 C190 1.253 . S
C2814 C619 1.170 . S
C2844 C347 1.160 . S
C2839 C195 1.155 . S
C2874 C640 1.257 . S
C2869 C166 1.382 . S
C2899 C174 1.136 . S
C2904 C390 1.128 . S
C2929 C205 1.198 . S
C2934 C495 1.162 . S
C2959 C156 1.213 . S
C2964 C430 1.137 . S
C2989 C177 1.302 . S
C2994 C539 1.306 . S
C3019 C187 1.300 . S
C3024 C473 1.313 . S
C3054 C623 1.261 . S
C3049 C307 1.259 . S
C3079 C270 1.125 . S
C3084 C351 1.094 . S
C3114 C644 1.195 . S
C3109 C281 1.196 . S
C3139 C296 1.229 . S
C3144 C388 1.132 . S
C3169 C309 1.292 . S
C3174 C493 1.186 . S
C3204 C434 1.220 . S
C3199 C268 1.221 . S
C3229 C283 1.101 . S
C3234 C537 1.073 . S
C3264 C477 1.147 . S
C3259 C294 1.158 . S
C3294 C621 1.179 . S
C3289 C291 1.189 . S
C3324 C413 1.212 . S
C3319 C221 1.206 . S
C3349 C239 1.063 . S
C3354 C516 1.054 . S
C3384 C451 1.127 . S
C3379 C247 1.196 . S
C3414 C475 1.067 . S
C3409 C304 1.130 . S
C3439 C265 1.132 . S
C3444 C642 1.123 . S
C3474 C560 1.120 . S
C3469 C234 1.118 . S
C3504 C580 1.133 . S
C3499 C208 1.202 . S
