# Generated by pormake.
# Topology ocu, (6,8)-cn, num edge types: 1
# Building blocks:
#     Node 0, Type 0, BuildingBlock: KUMJIN_clean_sbu_0, # of connection points: 6
#     Node 1, Type 0, BuildingBlock: KUMJIN_clean_sbu_0, # of connection points: 6
#     Node 2, Type 0, BuildingBlock: KUMJIN_clean_sbu_0, # of connection points: 6
#     Node 3, Type 0, BuildingBlock: KUMJIN_clean_sbu_0, # of connection points: 6
#     Node 4, Type 0, BuildingBlock: KUMJIN_clean_sbu_0, # of connection points: 6
#     Node 5, Type 0, BuildingBlock: KUMJIN_clean_sbu_0, # of connection points: 6
#     Node 6, Type 0, BuildingBlock: KUMJIN_clean_sbu_0, # of connection points: 6
#     Node 7, Type 0, BuildingBlock: KUMJIN_clean_sbu_0, # of connection points: 6
#     Node 8, Type 1, BuildingBlock: GIZVER_clean_sbu_0, # of connection points: 8
#     Node 9, Type 1, BuildingBlock: GIZVER_clean_sbu_0, # of connection points: 8
#     Node 10, Type 1, BuildingBlock: GIZVER_clean_sbu_0, # of connection points: 8
#     Node 11, Type 1, BuildingBlock: GIZVER_clean_sbu_0, # of connection points: 8
#     Node 12, Type 1, BuildingBlock: GIZVER_clean_sbu_0, # of connection points: 8
#     Node 13, Type 1, BuildingBlock: GIZVER_clean_sbu_0, # of connection points: 8
#     Edge 14, Type (0, 1), BuildingBlock: XUDNAN_clean_linker_2, # of connection points: 2
#     Edge 15, Type (0, 1), BuildingBlock: XUDNAN_clean_linker_2, # of connection points: 2
#     Edge 16, Type (0, 1), BuildingBlock: XUDNAN_clean_linker_2, # of connection points: 2
#     Edge 17, Type (0, 1), BuildingBlock: XUDNAN_clean_linker_2, # of connection points: 2
#     Edge 18, Type (0, 1), BuildingBlock: XUDNAN_clean_linker_2, # of connection points: 2
#     Edge 19, Type (0, 1), BuildingBlock: XUDNAN_clean_linker_2, # of connection points: 2
#     Edge 20, Type (0, 1), BuildingBlock: XUDNAN_clean_linker_2, # of connection points: 2
#     Edge 21, Type (0, 1), BuildingBlock: XUDNAN_clean_linker_2, # of connection points: 2
#     Edge 22, Type (0, 1), BuildingBlock: XUDNAN_clean_linker_2, # of connection points: 2
#     Edge 23, Type (0, 1), BuildingBlock: XUDNAN_clean_linker_2, # of connection points: 2
#     Edge 24, Type (0, 1), BuildingBlock: XUDNAN_clean_linker_2, # of connection points: 2
#     Edge 25, Type (0, 1), BuildingBlock: XUDNAN_clean_linker_2, # of connection points: 2
#     Edge 26, Type (0, 1), BuildingBlock: XUDNAN_clean_linker_2, # of connection points: 2
#     Edge 27, Type (0, 1), BuildingBlock: XUDNAN_clean_linker_2, # of connection points: 2
#     Edge 28, Type (0, 1), BuildingBlock: XUDNAN_clean_linker_2, # of connection points: 2
#     Edge 29, Type (0, 1), BuildingBlock: XUDNAN_clean_linker_2, # of connection points: 2
#     Edge 30, Type (0, 1), BuildingBlock: XUDNAN_clean_linker_2, # of connection points: 2
#     Edge 31, Type (0, 1), BuildingBlock: XUDNAN_clean_linker_2, # of connection points: 2
#     Edge 32, Type (0, 1), BuildingBlock: XUDNAN_clean_linker_2, # of connection points: 2
#     Edge 33, Type (0, 1), BuildingBlock: XUDNAN_clean_linker_2, # of connection points: 2
#     Edge 34, Type (0, 1), BuildingBlock: XUDNAN_clean_linker_2, # of connection points: 2
#     Edge 35, Type (0, 1), BuildingBlock: XUDNAN_clean_linker_2, # of connection points: 2
#     Edge 36, Type (0, 1), BuildingBlock: XUDNAN_clean_linker_2, # of connection points: 2
#     Edge 37, Type (0, 1), BuildingBlock: XUDNAN_clean_linker_2, # of connection points: 2
#     Edge 38, Type (0, 1), BuildingBlock: XUDNAN_clean_linker_2, # of connection points: 2
#     Edge 39, Type (0, 1), BuildingBlock: XUDNAN_clean_linker_2, # of connection points: 2
#     Edge 40, Type (0, 1), BuildingBlock: XUDNAN_clean_linker_2, # of connection points: 2
#     Edge 41, Type (0, 1), BuildingBlock: XUDNAN_clean_linker_2, # of connection points: 2
#     Edge 42, Type (0, 1), BuildingBlock: XUDNAN_clean_linker_2, # of connection points: 2
#     Edge 43, Type (0, 1), BuildingBlock: XUDNAN_clean_linker_2, # of connection points: 2
#     Edge 44, Type (0, 1), BuildingBlock: XUDNAN_clean_linker_2, # of connection points: 2
#     Edge 45, Type (0, 1), BuildingBlock: XUDNAN_clean_linker_2, # of connection points: 2
#     Edge 46, Type (0, 1), BuildingBlock: XUDNAN_clean_linker_2, # of connection points: 2
#     Edge 47, Type (0, 1), BuildingBlock: XUDNAN_clean_linker_2, # of connection points: 2
#     Edge 48, Type (0, 1), BuildingBlock: XUDNAN_clean_linker_2, # of connection points: 2
#     Edge 49, Type (0, 1), BuildingBlock: XUDNAN_clean_linker_2, # of connection points: 2
#     Edge 50, Type (0, 1), BuildingBlock: XUDNAN_clean_linker_2, # of connection points: 2
#     Edge 51, Type (0, 1), BuildingBlock: XUDNAN_clean_linker_2, # of connection points: 2
#     Edge 52, Type (0, 1), BuildingBlock: XUDNAN_clean_linker_2, # of connection points: 2
#     Edge 53, Type (0, 1), BuildingBlock: XUDNAN_clean_linker_2, # of connection points: 2
#     Edge 54, Type (0, 1), BuildingBlock: XUDNAN_clean_linker_2, # of connection points: 2
#     Edge 55, Type (0, 1), BuildingBlock: XUDNAN_clean_linker_2, # of connection points: 2
#     Edge 56, Type (0, 1), BuildingBlock: XUDNAN_clean_linker_2, # of connection points: 2
#     Edge 57, Type (0, 1), BuildingBlock: XUDNAN_clean_linker_2, # of connection points: 2
#     Edge 58, Type (0, 1), BuildingBlock: XUDNAN_clean_linker_2, # of connection points: 2
#     Edge 59, Type (0, 1), BuildingBlock: XUDNAN_clean_linker_2, # of connection points: 2
#     Edge 60, Type (0, 1), BuildingBlock: XUDNAN_clean_linker_2, # of connection points: 2
#     Edge 61, Type (0, 1), BuildingBlock: XUDNAN_clean_linker_2, # of connection points: 2
# Relax obj value: 0.167
# Max RMSD: 0.298
# Mean RMSD: 0.214
data_MOF--net-ocu--node1-KUMJIN_clean_sbu_0--node2-GIZVER_clean_sbu_0--edge1-XUDNAN_clean_linker_2
_symmetry_space_group_name_H-M    P1
_symmetry_Int_Tables_number       1
_symmetry_cell_setting            triclinic
loop_
_symmetry_equiv_pos_as_xyz
'x, y, z'
_cell_length_a     42.768159
_cell_length_b     44.218391
_cell_length_c     35.014083
_cell_angle_alpha  77.555531
_cell_angle_beta   101.91456
_cell_angle_gamma 111.95722
loop_
_atom_site_label
_atom_site_type_symbol
_atom_site_fract_x
_atom_site_fract_y
_atom_site_fract_z
_atom_type_partial_charge
Eu0 Eu 0.27274 0.24029 0.21826 0.0
C1 C 0.38146 0.35024 0.29946 0.0
C2 C 0.41502 0.32337 0.34953 0.0
C3 C 0.44181 0.37942 0.31774 0.0
C4 C 0.38381 0.32273 0.32596 0.0
C5 C 0.41032 0.37914 0.29567 0.0
C6 C 0.44417 0.35157 0.34456 0.0
C7 C 0.37448 0.40595 0.25004 0.0
N8 N 0.35065 0.34907 0.27829 0.0
C9 C 0.34662 0.37667 0.25446 0.0
C10 C 0.40651 0.40712 0.27044 0.0
Eu11 Eu 0.30493 0.29822 0.28852 0.0
N12 N 0.35509 0.29612 0.33064 0.0
C13 C 0.35495 0.27091 0.36095 0.0
C14 C 0.41567 0.29613 0.37841 0.0
C15 C 0.38533 0.27004 0.38466 0.0
H16 H 0.32217 0.37609 0.2381 0.0
H17 H 0.38527 0.24944 0.4079 0.0
H18 H 0.46844 0.35242 0.36213 0.0
H19 H 0.37126 0.42756 0.23068 0.0
H20 H 0.33124 0.25141 0.36665 0.0
H21 H 0.14603 0.23625 0.145 0.0
H22 H 0.43914 0.29559 0.39701 0.0
H23 H 0.29889 0.17617 0.26611 0.0
H24 H 0.20806 0.2609 0.1645 0.0
H25 H 0.27418 0.11757 0.29125 0.0
H26 H 0.46433 0.40129 0.31491 0.0
H27 H 0.11658 0.17686 0.16693 0.0
H28 H 0.12021 0.12265 0.20408 0.0
H29 H 0.42804 0.42984 0.26686 0.0
H30 H 0.1549 0.09071 0.24472 0.0
N31 N 0.21338 0.21715 0.19791 0.0
C32 C 0.19524 0.23553 0.17475 0.0
C33 C 0.14373 0.18783 0.17567 0.0
C34 C 0.16259 0.16882 0.19882 0.0
C35 C 0.16022 0.22136 0.16338 0.0
C36 C 0.19789 0.18433 0.20934 0.0
H37 H 0.2121 0.08867 0.27783 0.0
N38 N 0.25141 0.18242 0.2417 0.0
C39 C 0.2578 0.1311 0.27513 0.0
C40 C 0.21746 0.16649 0.23224 0.0
C41 C 0.27176 0.16483 0.26142 0.0
C42 C 0.22281 0.11486 0.26734 0.0
C43 C 0.2022 0.1324 0.24509 0.0
O44 O 0.30368 0.22713 0.18689 0.0
O45 O 0.30439 0.24902 0.2786 0.0
O46 O 0.33886 0.31495 0.23969 0.0
O47 O 0.29748 0.29271 0.18974 0.0
O48 O 0.32405 0.23331 0.24209 0.0
O49 O 0.26028 0.23968 0.15416 0.0
O50 O 0.26557 0.30845 0.31008 0.0
O51 O 0.26953 0.28703 0.23149 0.0
O52 O 0.23456 0.22815 0.2606 0.0
O53 O 0.27452 0.24566 0.31358 0.0
O54 O 0.27299 0.32833 0.25236 0.0
O55 O 0.31192 0.30955 0.34831 0.0
C56 C 0.32963 0.24095 0.2768 0.0
C57 C 0.2762 0.20023 0.13167 0.0
C58 C 0.29577 0.16756 0.09905 0.0
C59 C 0.30249 0.19507 0.11802 0.0
C60 C 0.26207 0.14539 0.09408 0.0
C61 C 0.24299 0.17751 0.12635 0.0
C62 C 0.23607 0.15037 0.10764 0.0
C63 C 0.3285 0.31203 0.20188 0.0
C64 C 0.28439 0.22848 0.15302 0.0
C65 C 0.16704 0.11683 0.23497 0.0
C66 C 0.14729 0.13498 0.21176 0.0
C67 C 0.25756 0.31085 0.22455 0.0
C68 C 0.28612 0.34677 0.35527 0.0
C69 C 0.26047 0.34797 0.37405 0.0
C70 C 0.26203 0.37803 0.38405 0.0
C71 C 0.29008 0.4066 0.37497 0.0
C72 C 0.31379 0.37567 0.34716 0.0
C73 C 0.31571 0.40528 0.357 0.0
C74 C 0.24342 0.22796 0.29895 0.0
C75 C 0.28375 0.31554 0.34368 0.0
H76 H 0.32827 0.21227 0.1229 0.0
H77 H 0.25557 0.12439 0.07909 0.0
H78 H 0.22241 0.1806 0.13682 0.0
H79 H 0.21031 0.13304 0.10355 0.0
H80 H 0.23948 0.32544 0.38084 0.0
H81 H 0.29202 0.43034 0.38079 0.0
H82 H 0.33395 0.37542 0.33312 0.0
H83 H 0.33704 0.4275 0.35022 0.0
Eu84 Eu 0.79957 0.24658 0.26025 0.0
C85 C 0.71252 0.30409 0.30678 0.0
C86 C 0.65874 0.25913 0.30656 0.0
C87 C 0.67823 0.29275 0.35902 0.0
C88 C 0.68905 0.27774 0.29019 0.0
C89 C 0.70648 0.31319 0.34004 0.0
C90 C 0.65435 0.2656 0.3423 0.0
C91 C 0.75218 0.36501 0.32793 0.0
N92 N 0.73876 0.32351 0.28687 0.0
C93 C 0.75683 0.35484 0.29498 0.0
C94 C 0.72758 0.34363 0.35136 0.0
Eu95 Eu 0.75 0.30109 0.23702 0.0
N96 N 0.6939 0.2732 0.2551 0.0
C97 C 0.66718 0.25374 0.23219 0.0
C98 C 0.63291 0.23627 0.28517 0.0
C99 C 0.6367 0.23445 0.24717 0.0
H100 H 0.77589 0.37135 0.27686 0.0
H101 H 0.61614 0.21824 0.22933 0.0
H102 H 0.63164 0.25108 0.35587 0.0
H103 H 0.76741 0.38931 0.33518 0.0
H104 H 0.66893 0.25273 0.20229 0.0
H105 H 0.87781 0.23504 0.40473 0.0
H106 H 0.60924 0.22145 0.29664 0.0
H107 H 0.82383 0.26273 0.16976 0.0
H108 H 0.82457 0.22653 0.35859 0.0
H109 H 0.87655 0.28494 0.13994 0.0
H110 H 0.67355 0.29883 0.38519 0.0
H111 H 0.93324 0.26258 0.37982 0.0
H112 H 0.96563 0.28772 0.32212 0.0
H113 H 0.72377 0.35165 0.37665 0.0
H114 H 0.96531 0.30148 0.2502 0.0
N115 N 0.84926 0.25034 0.30756 0.0
C116 C 0.84846 0.23861 0.34703 0.0
C117 C 0.9099 0.25913 0.35928 0.0
C118 C 0.91066 0.2693 0.31869 0.0
C119 C 0.87867 0.24348 0.37344 0.0
C120 C 0.87954 0.26438 0.29316 0.0
H121 H 0.93231 0.29974 0.1822 0.0
N122 N 0.84903 0.26639 0.22875 0.0
C123 C 0.87774 0.28186 0.17166 0.0
C124 C 0.87939 0.27265 0.25263 0.0
C125 C 0.84779 0.26937 0.18883 0.0
C126 C 0.90915 0.29031 0.19561 0.0
C127 C 0.91032 0.28528 0.23663 0.0
O128 O 0.81171 0.20721 0.24469 0.0
O129 O 0.75031 0.2512 0.26501 0.0
O130 O 0.78863 0.31482 0.29218 0.0
O131 O 0.8257 0.28532 0.30153 0.0
O132 O 0.77404 0.23138 0.31574 0.0
O133 O 0.76472 0.19533 0.26636 0.0
O134 O 0.73865 0.346 0.20925 0.0
O135 O 0.79355 0.29146 0.2211 0.0
O136 O 0.7732 0.24895 0.19686 0.0
O137 O 0.72484 0.25641 0.20434 0.0
O138 O 0.80352 0.33786 0.23331 0.0
O139 O 0.73668 0.31201 0.17296 0.0
C140 C 0.74682 0.23831 0.30057 0.0
C141 C 0.78875 0.15401 0.27918 0.0
C142 C 0.81285 0.12795 0.34064 0.0
C143 C 0.80507 0.15517 0.31797 0.0
C144 C 0.80178 0.0985 0.32451 0.0
C145 C 0.77786 0.12464 0.2634 0.0
C146 C 0.78401 0.09684 0.28626 0.0
C147 C 0.81622 0.30804 0.31036 0.0
C148 C 0.78426 0.18379 0.25481 0.0
C149 C 0.94133 0.29139 0.26199 0.0
C150 C 0.94151 0.28351 0.30293 0.0
C151 C 0.81612 0.31977 0.22162 0.0
C152 C 0.76281 0.36793 0.14962 0.0
C153 C 0.75679 0.37004 0.10843 0.0
C154 C 0.7816 0.39207 0.08482 0.0
C155 C 0.81368 0.40982 0.10388 0.0
C156 C 0.79356 0.38894 0.16733 0.0
C157 C 0.81925 0.40879 0.14473 0.0
C158 C 0.74026 0.24323 0.18705 0.0
C159 C 0.7383 0.34171 0.17366 0.0
H160 H 0.8124 0.17769 0.33005 0.0
H161 H 0.80777 0.07712 0.34075 0.0
H162 H 0.76496 0.12336 0.23339 0.0
H163 H 0.77582 0.07421 0.27393 0.0
H164 H 0.732 0.35541 0.09516 0.0
H165 H 0.83401 0.42584 0.08716 0.0
H166 H 0.79823 0.38957 0.19873 0.0
H167 H 0.84348 0.42372 0.15888 0.0
Eu168 Eu 0.75463 0.75771 0.29597 0.0
C169 C 0.79792 0.84046 0.15358 0.0
C170 C 0.74853 0.82141 0.10516 0.0
C171 C 0.78076 0.87994 0.10162 0.0
C172 C 0.77041 0.81498 0.13959 0.0
C173 C 0.80407 0.87315 0.13384 0.0
C174 C 0.75296 0.85406 0.08734 0.0
C175 C 0.85847 0.88921 0.17488 0.0
N176 N 0.82037 0.83291 0.1841 0.0
C177 C 0.85146 0.8564 0.193 0.0
C178 C 0.83429 0.8978 0.1458 0.0
Eu179 Eu 0.80406 0.7771 0.21701 0.0
N180 N 0.76626 0.78367 0.15806 0.0
C181 C 0.74334 0.75762 0.14074 0.0
C182 C 0.7236 0.79478 0.08883 0.0
C183 C 0.72166 0.76278 0.10613 0.0
H184 H 0.8711 0.85006 0.21434 0.0
H185 H 0.70371 0.74213 0.09253 0.0
H186 H 0.73562 0.85937 0.06178 0.0
H187 H 0.8827 0.90776 0.18304 0.0
H188 H 0.7421 0.73273 0.15258 0.0
H189 H 0.85924 0.79448 0.41598 0.0
H190 H 0.7066 0.79867 0.06216 0.0
H191 H 0.68857 0.68396 0.29946 0.0
H192 H 0.81821 0.80276 0.35846 0.0
H193 H 0.67779 0.62662 0.3315 0.0
H194 H 0.78474 0.90495 0.08661 0.0
H195 H 0.85605 0.73795 0.44774 0.0
H196 H 0.82543 0.67711 0.45114 0.0
H197 H 0.83992 0.92317 0.13144 0.0
H198 H 0.77603 0.63123 0.42764 0.0
N199 N 0.79385 0.75175 0.35384 0.0
C200 C 0.81738 0.77805 0.3702 0.0
C201 C 0.83831 0.74151 0.42169 0.0
C202 C 0.81251 0.71462 0.40676 0.0
C203 C 0.84029 0.77341 0.40375 0.0
C204 C 0.78999 0.72061 0.37273 0.0
H205 H 0.72099 0.61216 0.38321 0.0
N206 N 0.73955 0.70188 0.32889 0.0
C207 C 0.70196 0.64543 0.3392 0.0
C208 C 0.76233 0.69484 0.35943 0.0
C209 C 0.70857 0.67805 0.32054 0.0
C210 C 0.72637 0.63738 0.36837 0.0
C211 C 0.75648 0.66236 0.37978 0.0
O212 O 0.71057 0.7461 0.32619 0.0
O213 O 0.76258 0.78929 0.23573 0.0
O214 O 0.83296 0.81398 0.25836 0.0
O215 O 0.79026 0.81069 0.29202 0.0
O216 O 0.71265 0.76295 0.24639 0.0
O217 O 0.74937 0.79424 0.32525 0.0
O218 O 0.84858 0.78794 0.18798 0.0
O219 O 0.79633 0.74547 0.27734 0.0
O220 O 0.72447 0.72113 0.25452 0.0
O221 O 0.76686 0.7247 0.21991 0.0
O222 O 0.84606 0.77366 0.26691 0.0
O223 O 0.81052 0.73925 0.19121 0.0
C224 C 0.73122 0.78426 0.22103 0.0
C225 C 0.71997 0.77426 0.38075 0.0
C226 C 0.7121 0.80088 0.43084 0.0
C227 C 0.715 0.80093 0.39144 0.0
C228 C 0.71463 0.774 0.45955 0.0
C229 C 0.72307 0.74792 0.41007 0.0
C230 C 0.72041 0.74788 0.44922 0.0
C231 C 0.8208 0.82549 0.28134 0.0
C232 C 0.72157 0.77438 0.33892 0.0
C233 C 0.77997 0.65606 0.41206 0.0
C234 C 0.80799 0.68215 0.4255 0.0
C235 C 0.82789 0.75143 0.2919 0.0
C236 C 0.8442 0.75546 0.13948 0.0
C237 C 0.85426 0.72936 0.13616 0.0
C238 C 0.86276 0.72691 0.10022 0.0
C239 C 0.85957 0.75089 0.06724 0.0
C240 C 0.84076 0.77858 0.10608 0.0
C241 C 0.84826 0.77612 0.07013 0.0
C242 C 0.73663 0.70974 0.23142 0.0
C243 C 0.83899 0.75853 0.17864 0.0
H244 H 0.71268 0.82139 0.36896 0.0
H245 H 0.71251 0.77342 0.49003 0.0
H246 H 0.72734 0.72733 0.4027 0.0
H247 H 0.72266 0.72742 0.47164 0.0
H248 H 0.8556 0.71115 0.16205 0.0
H249 H 0.86648 0.75087 0.03923 0.0
H250 H 0.83273 0.79868 0.10792 0.0
H251 H 0.84596 0.79427 0.04448 0.0
Eu252 Eu 0.30822 0.73842 0.27414 0.0
C253 C 0.24627 0.8271 0.13763 0.0
C254 C 0.2935 0.87666 0.12097 0.0
C255 C 0.24503 0.85766 0.07099 0.0
C256 C 0.27813 0.84908 0.14833 0.0
C257 C 0.22872 0.83189 0.09929 0.0
C258 C 0.27742 0.88007 0.08184 0.0
C259 C 0.17832 0.7895 0.12188 0.0
N260 N 0.23082 0.80344 0.16616 0.0
C261 C 0.19681 0.78584 0.15947 0.0
C262 C 0.19458 0.81203 0.09136 0.0
Eu263 Eu 0.26307 0.79815 0.22946 0.0
N264 N 0.29249 0.84537 0.18659 0.0
C265 C 0.3206 0.87006 0.2002 0.0
C266 C 0.32361 0.90084 0.13428 0.0
C267 C 0.33684 0.89782 0.17425 0.0
H268 H 0.18419 0.76821 0.18297 0.0
H269 H 0.35961 0.9168 0.18512 0.0
H270 H 0.28909 0.90077 0.06026 0.0
H271 H 0.15158 0.77495 0.11649 0.0
H272 H 0.33124 0.86825 0.23094 0.0
H273 H 0.21703 0.61829 0.32443 0.0
H274 H 0.33619 0.9224 0.11425 0.0
H275 H 0.3874 0.77463 0.3182 0.0
H276 H 0.24194 0.66686 0.27657 0.0
H277 H 0.42196 0.77074 0.38354 0.0
H278 H 0.23217 0.86146 0.04122 0.0
H279 H 0.24298 0.61467 0.3944 0.0
H280 H 0.29172 0.63822 0.44586 0.0
H281 H 0.18016 0.81499 0.06234 0.0
H282 H 0.34806 0.67963 0.46189 0.0
N283 N 0.28194 0.69117 0.31883 0.0
C284 C 0.25379 0.66581 0.30691 0.0
C285 C 0.25422 0.63615 0.37348 0.0
C286 C 0.28436 0.6611 0.38496 0.0
C287 C 0.2394 0.63815 0.33404 0.0
C288 C 0.29806 0.68837 0.35639 0.0
H289 H 0.39724 0.72859 0.43855 0.0
N290 N 0.3432 0.73547 0.33601 0.0
C291 C 0.39601 0.75394 0.37889 0.0
C292 C 0.32976 0.71132 0.36529 0.0
C293 C 0.37632 0.75601 0.34183 0.0
C294 C 0.38192 0.73022 0.4099 0.0
C295 C 0.34861 0.70814 0.40316 0.0
O296 O 0.35192 0.73129 0.25858 0.0
O297 O 0.30552 0.78098 0.22667 0.0
O298 O 0.24799 0.76015 0.18743 0.0
O299 O 0.26137 0.71685 0.23033 0.0
O300 O 0.35358 0.78103 0.25319 0.0
O301 O 0.30104 0.69764 0.24395 0.0
O302 O 0.21994 0.80823 0.24141 0.0
O303 O 0.26556 0.75536 0.27577 0.0
O304 O 0.31788 0.77298 0.31836 0.0
O305 O 0.30892 0.81832 0.27572 0.0
O306 O 0.21738 0.75648 0.25291 0.0
O307 O 0.27114 0.83902 0.26036 0.0
C308 C 0.33712 0.79658 0.2266 0.0
C309 C 0.34574 0.67656 0.25382 0.0
C310 C 0.37533 0.64473 0.23613 0.0
C311 C 0.36425 0.67206 0.22799 0.0
C312 C 0.36732 0.62187 0.27056 0.0
C313 C 0.33831 0.65364 0.28815 0.0
C314 C 0.34901 0.6264 0.29636 0.0
C315 C 0.24621 0.72879 0.19661 0.0
C316 C 0.33335 0.70459 0.24352 0.0
C317 C 0.33415 0.6823 0.43251 0.0
C318 C 0.30205 0.65876 0.4234 0.0
C319 C 0.23419 0.74019 0.27792 0.0
C320 C 0.2301 0.86477 0.24026 0.0
C321 C 0.22665 0.88346 0.2659 0.0
C322 C 0.21755 0.91162 0.2505 0.0
C323 C 0.21269 0.92133 0.20946 0.0
C324 C 0.22522 0.87494 0.19932 0.0
C325 C 0.21679 0.90318 0.18405 0.0
C326 C 0.32144 0.80476 0.31019 0.0
C327 C 0.23897 0.83493 0.25629 0.0
H328 H 0.36961 0.68967 0.20127 0.0
H329 H 0.3758 0.60084 0.27799 0.0
H330 H 0.32407 0.65666 0.3084 0.0
H331 H 0.34319 0.60876 0.3229 0.0
H332 H 0.23003 0.87562 0.29756 0.0
H333 H 0.20538 0.94279 0.19712 0.0
H334 H 0.2276 0.86095 0.17912 0.0
H335 H 0.21296 0.91074 0.15242 0.0
Eu336 Eu 0.32088 0.73892 0.77581 0.0
C337 C 0.18849 0.75695 0.76774 0.0
C338 C 0.14962 0.74957 0.70637 0.0
C339 C 0.12726 0.73137 0.76891 0.0
C340 C 0.18304 0.76015 0.72677 0.0
C341 C 0.16038 0.74336 0.78902 0.0
C342 C 0.1219 0.73442 0.72769 0.0
C343 C 0.19922 0.75682 0.84839 0.0
N344 N 0.22091 0.76843 0.78663 0.0
C345 C 0.22635 0.76974 0.82631 0.0
C346 C 0.16619 0.74299 0.82983 0.0
Eu347 Eu 0.26451 0.78664 0.74525 0.0
N348 N 0.21019 0.77505 0.70671 0.0
C349 C 0.20562 0.78246 0.66638 0.0
C350 C 0.14496 0.75515 0.66504 0.0
C351 C 0.17306 0.772 0.64501 0.0
H352 H 0.25139 0.77975 0.84201 0.0
H353 H 0.16967 0.77666 0.61312 0.0
H354 H 0.09612 0.72577 0.71252 0.0
H355 H 0.2039 0.75726 0.87988 0.0
H356 H 0.22735 0.79495 0.65069 0.0
H357 H 0.42836 0.85704 0.78735 0.0
H358 H 0.11973 0.74717 0.64835 0.0
H359 H 0.30939 0.683 0.71544 0.0
H360 H 0.37143 0.81906 0.79332 0.0
H361 H 0.34038 0.67269 0.67161 0.0
H362 H 0.10552 0.72043 0.78491 0.0
H363 H 0.46528 0.84528 0.75138 0.0
H364 H 0.47192 0.80954 0.7101 0.0
H365 H 0.14527 0.7329 0.84709 0.0
H366 H 0.44745 0.76058 0.67701 0.0
N367 N 0.37551 0.78144 0.76698 0.0
C368 C 0.38715 0.81118 0.78061 0.0
C369 C 0.4403 0.82728 0.75556 0.0
C370 C 0.42774 0.7984 0.73878 0.0
C371 C 0.41965 0.83391 0.77601 0.0
C372 C 0.39481 0.7757 0.74483 0.0
H373 H 0.39849 0.71034 0.66167 0.0
N374 N 0.34833 0.72815 0.72959 0.0
C375 C 0.35201 0.69426 0.68629 0.0
C376 C 0.38076 0.74845 0.72548 0.0
C377 C 0.33431 0.70071 0.71108 0.0
C378 C 0.38481 0.71543 0.68093 0.0
C379 C 0.39967 0.74278 0.70066 0.0
O380 O 0.31057 0.68621 0.78415 0.0
O381 O 0.26816 0.73838 0.77465 0.0
O382 O 0.29543 0.79808 0.80569 0.0
O383 O 0.33466 0.77014 0.82376 0.0
O384 O 0.29003 0.7209 0.82779 0.0
O385 O 0.34939 0.7155 0.82489 0.0
O386 O 0.29838 0.83681 0.75285 0.0
O387 O 0.3151 0.78516 0.74044 0.0
O388 O 0.28267 0.71941 0.7226 0.0
O389 O 0.24272 0.7461 0.70628 0.0
O390 O 0.2877 0.79924 0.68847 0.0
O391 O 0.24622 0.82812 0.72612 0.0
C392 C 0.26228 0.72467 0.80911 0.0
C393 C 0.31103 0.66396 0.85153 0.0
C394 C 0.3099 0.64591 0.92268 0.0
C395 C 0.32797 0.66286 0.89035 0.0
C396 C 0.27445 0.63009 0.91499 0.0
C397 C 0.27575 0.64667 0.84486 0.0
C398 C 0.25771 0.63007 0.87639 0.0
C399 C 0.32116 0.79104 0.82947 0.0
C400 C 0.32923 0.68581 0.81856 0.0
C401 C 0.4327 0.76465 0.69587 0.0
C402 C 0.44668 0.79242 0.71484 0.0
C403 C 0.31593 0.79426 0.70364 0.0
C404 C 0.28737 0.87843 0.70388 0.0
C405 C 0.27896 0.87441 0.66403 0.0
C406 C 0.28397 0.90194 0.63411 0.0
C407 C 0.30135 0.93361 0.64499 0.0
C408 C 0.30455 0.90998 0.71418 0.0
C409 C 0.31201 0.93744 0.68472 0.0
C410 C 0.25476 0.72383 0.70138 0.0
C411 C 0.27594 0.85014 0.73465 0.0
H412 H 0.35532 0.67489 0.89481 0.0
H413 H 0.25956 0.61713 0.93873 0.0
H414 H 0.2617 0.64683 0.81534 0.0
H415 H 0.23052 0.61735 0.87082 0.0
H416 H 0.26646 0.84983 0.65651 0.0
H417 H 0.30525 0.95566 0.62323 0.0
H418 H 0.31155 0.9134 0.74492 0.0
H419 H 0.32495 0.96187 0.69273 0.0
Eu420 Eu 0.26752 0.25548 0.78573 0.0
C421 C 0.35645 0.35487 0.66029 0.0
C422 C 0.31485 0.36632 0.60635 0.0
C423 C 0.37115 0.40765 0.61698 0.0
C424 C 0.3241 0.34518 0.63939 0.0
C425 C 0.38062 0.38593 0.64884 0.0
C426 C 0.3383 0.39788 0.59579 0.0
C427 C 0.42241 0.3706 0.69906 0.0
N428 N 0.36482 0.33319 0.69066 0.0
C429 C 0.39755 0.34004 0.70917 0.0
C430 C 0.41381 0.39385 0.6691 0.0
Eu431 Eu 0.32125 0.28253 0.70731 0.0
N432 N 0.30222 0.31445 0.65021 0.0
C433 C 0.27158 0.30239 0.62746 0.0
C434 C 0.28263 0.35479 0.58433 0.0
C435 C 0.26109 0.3225 0.59463 0.0
H436 H 0.40433 0.32225 0.73249 0.0
H437 H 0.23636 0.3131 0.57738 0.0
H438 H 0.33155 0.41458 0.57073 0.0
H439 H 0.44814 0.37625 0.71448 0.0
H440 H 0.25465 0.2775 0.6351 0.0
H441 H 0.35201 0.22475 0.91613 0.0
H442 H 0.27447 0.3703 0.55886 0.0
H443 H 0.18414 0.21642 0.76153 0.0
H444 H 0.33391 0.2604 0.85838 0.0
H445 H 0.14011 0.16268 0.77975 0.0
H446 H 0.38926 0.43175 0.60795 0.0
H447 H 0.31384 0.16756 0.93449 0.0
H448 H 0.25672 0.12338 0.92249 0.0
H449 H 0.43312 0.41748 0.66127 0.0
H450 H 0.19895 0.10647 0.88541 0.0
N451 N 0.28639 0.22347 0.84295 0.0
C452 C 0.31695 0.23551 0.86589 0.0
C453 C 0.30578 0.18308 0.90894 0.0
C454 C 0.27362 0.17158 0.88679 0.0
C455 C 0.32734 0.21537 0.89875 0.0
C456 C 0.26447 0.19275 0.8537 0.0
H457 H 0.15506 0.12112 0.83249 0.0
N458 N 0.22376 0.20502 0.80267 0.0
C459 C 0.16592 0.16807 0.79485 0.0
C460 C 0.23208 0.18322 0.8329 0.0
C461 C 0.19093 0.1985 0.78461 0.0
C462 C 0.17449 0.14464 0.82453 0.0
C463 C 0.20777 0.15228 0.84449 0.0
O464 O 0.22952 0.27409 0.79546 0.0
O465 O 0.27926 0.29064 0.72919 0.0
O466 O 0.33668 0.32554 0.7405 0.0
O467 O 0.31771 0.29597 0.79988 0.0
O468 O 0.22868 0.26782 0.73535 0.0
O469 O 0.27634 0.28089 0.83598 0.0
O470 O 0.35987 0.26543 0.69593 0.0
O471 O 0.30946 0.24759 0.76377 0.0
O472 O 0.25193 0.21251 0.75285 0.0
O473 O 0.27126 0.24157 0.69334 0.0
O474 O 0.36001 0.26963 0.75759 0.0
O475 O 0.31171 0.25608 0.65771 0.0
C476 C 0.24935 0.28962 0.71271 0.0
C477 C 0.22836 0.27933 0.86078 0.0
C478 C 0.20284 0.30031 0.9008 0.0
C479 C 0.2216 0.30551 0.8699 0.0
C480 C 0.19131 0.26852 0.92271 0.0
C481 C 0.21681 0.24787 0.88301 0.0
C482 C 0.19841 0.24257 0.91392 0.0
C483 C 0.33445 0.32342 0.77813 0.0
C484 C 0.24712 0.28539 0.82763 0.0
C485 C 0.21717 0.13047 0.87628 0.0
C486 C 0.25006 0.1401 0.89739 0.0
C487 C 0.33919 0.24823 0.78036 0.0
C488 C 0.35897 0.25872 0.63034 0.0
C489 C 0.36236 0.23194 0.61804 0.0
C490 C 0.37967 0.23697 0.58576 0.0
C491 C 0.39318 0.26925 0.56578 0.0
C492 C 0.37249 0.29063 0.60989 0.0
C493 C 0.38946 0.29579 0.57773 0.0
C494 C 0.25408 0.21443 0.71527 0.0
C495 C 0.34152 0.25287 0.66474 0.0
H496 H 0.2303 0.32975 0.85238 0.0
H497 H 0.177 0.2638 0.94684 0.0
H498 H 0.22192 0.22749 0.87642 0.0
H499 H 0.1895 0.21824 0.93104 0.0
H500 H 0.35212 0.20731 0.63413 0.0
H501 H 0.40638 0.27395 0.54067 0.0
H502 H 0.37 0.31147 0.61884 0.0
H503 H 0.39986 0.32049 0.56202 0.0
Eu504 Eu 0.80862 0.22918 0.77499 0.0
C505 C 0.74501 0.31634 0.63872 0.0
C506 C 0.79063 0.36599 0.61798 0.0
C507 C 0.74099 0.34371 0.57069 0.0
C508 C 0.77683 0.33933 0.64713 0.0
C509 C 0.7264 0.31852 0.60059 0.0
C510 C 0.77303 0.3675 0.57942 0.0
C511 C 0.67904 0.27297 0.62555 0.0
N512 N 0.73132 0.29307 0.66862 0.0
C513 C 0.69831 0.27224 0.66301 0.0
C514 C 0.69326 0.29601 0.59407 0.0
Eu515 Eu 0.7662 0.29161 0.7307 0.0
N516 N 0.79293 0.33725 0.68476 0.0
C517 C 0.82125 0.36263 0.69614 0.0
C518 C 0.82082 0.39113 0.62897 0.0
C519 C 0.83572 0.38979 0.66844 0.0
H520 H 0.6873 0.25426 0.68722 0.0
H521 H 0.85827 0.40971 0.67753 0.0
H522 H 0.78344 0.38755 0.55649 0.0
H523 H 0.65325 0.25581 0.621 0.0
H524 H 0.83308 0.36181 0.72655 0.0
H525 H 0.71853 0.10818 0.82405 0.0
H526 H 0.83216 0.41217 0.60758 0.0
H527 H 0.8859 0.26763 0.82199 0.0
H528 H 0.74503 0.15634 0.77617 0.0
H529 H 0.9178 0.26611 0.88929 0.0
H530 H 0.72724 0.34566 0.54111 0.0
H531 H 0.74211 0.10593 0.89487 0.0
H532 H 0.78764 0.13178 0.94805 0.0
H533 H 0.67817 0.29677 0.56517 0.0
H534 H 0.84229 0.17488 0.96586 0.0
N535 N 0.78177 0.18232 0.81964 0.0
C536 C 0.75512 0.15607 0.8071 0.0
C537 C 0.75343 0.12747 0.87408 0.0
C538 C 0.78222 0.15343 0.88639 0.0
C539 C 0.74016 0.12857 0.83412 0.0
C540 C 0.79631 0.18059 0.85793 0.0
H541 H 0.89147 0.22464 0.94392 0.0
N542 N 0.84156 0.22803 0.83851 0.0
C543 C 0.89232 0.24862 0.88367 0.0
C544 C 0.82727 0.20432 0.86774 0.0
C545 C 0.87421 0.24932 0.84554 0.0
C546 C 0.8773 0.22529 0.91446 0.0
C547 C 0.84466 0.2023 0.90656 0.0
O548 O 0.85176 0.21995 0.76189 0.0
O549 O 0.80826 0.27344 0.72985 0.0
O550 O 0.75535 0.25622 0.68681 0.0
O551 O 0.76219 0.20974 0.72945 0.0
O552 O 0.85552 0.27055 0.75326 0.0
O553 O 0.80057 0.18761 0.74533 0.0
O554 O 0.72546 0.30496 0.74331 0.0
O555 O 0.76487 0.24539 0.7721 0.0
O556 O 0.81493 0.26259 0.81923 0.0
O557 O 0.81316 0.31024 0.77628 0.0
O558 O 0.71964 0.25368 0.75719 0.0
O559 O 0.77804 0.33305 0.76211 0.0
C560 C 0.83978 0.28786 0.72839 0.0
C561 C 0.84339 0.16392 0.76284 0.0
C562 C 0.85953 0.1198 0.7506 0.0
C563 C 0.84855 0.14699 0.73637 0.0
C564 C 0.86459 0.10941 0.79156 0.0
C565 C 0.84846 0.1531 0.80359 0.0
C566 C 0.85887 0.12587 0.81781 0.0
C567 C 0.7508 0.22424 0.69498 0.0
C568 C 0.83289 0.19286 0.7477 0.0
C569 C 0.82951 0.17668 0.93576 0.0
C570 C 0.79837 0.15219 0.92565 0.0
C571 C 0.73425 0.23385 0.77856 0.0
C572 C 0.73945 0.36172 0.74524 0.0
C573 C 0.73527 0.37857 0.77253 0.0
C574 C 0.72823 0.40802 0.75941 0.0
C575 C 0.72593 0.42074 0.719 0.0
C576 C 0.73707 0.37477 0.70494 0.0
C577 C 0.73057 0.40426 0.69196 0.0
C578 C 0.82231 0.29502 0.81142 0.0
C579 C 0.74637 0.3307 0.75907 0.0
H580 H 0.84492 0.1555 0.70488 0.0
H581 H 0.87296 0.0885 0.80323 0.0
H582 H 0.84461 0.16581 0.82438 0.0
H583 H 0.86279 0.11767 0.84929 0.0
H584 H 0.73663 0.36841 0.80367 0.0
H585 H 0.7201 0.44319 0.70837 0.0
H586 H 0.73992 0.36207 0.6835 0.0
H587 H 0.72864 0.41412 0.6608 0.0
Eu588 Eu 0.78416 0.74232 0.71116 0.0
C589 C 0.86594 0.79825 0.8511 0.0
C590 C 0.86288 0.74775 0.8965 0.0
C591 C 0.91462 0.7957 0.9002 0.0
C592 C 0.84815 0.76562 0.86426 0.0
C593 C 0.89875 0.81411 0.8703 0.0
C594 C 0.89668 0.76257 0.91332 0.0
C595 C 0.89471 0.8662 0.83527 0.0
N596 N 0.84932 0.81558 0.82329 0.0
C597 C 0.86199 0.84939 0.81767 0.0
C598 C 0.91357 0.84838 0.86093 0.0
Eu599 Eu 0.79455 0.78478 0.79307 0.0
N600 N 0.81527 0.75235 0.84804 0.0
C601 C 0.79488 0.72247 0.8647 0.0
C602 C 0.84263 0.71619 0.91209 0.0
C603 C 0.80826 0.70386 0.89678 0.0
H604 H 0.84725 0.86319 0.79802 0.0
H605 H 0.79214 0.67989 0.9094 0.0
H606 H 0.90865 0.7492 0.93771 0.0
H607 H 0.90524 0.89285 0.82929 0.0
H608 H 0.7683 0.71278 0.85323 0.0
H609 H 0.82695 0.83532 0.5817 0.0
H610 H 0.85285 0.70158 0.9367 0.0
H611 H 0.70431 0.68517 0.71349 0.0
H612 H 0.83294 0.79517 0.64008 0.0
H613 H 0.64601 0.67911 0.683 0.0
H614 H 0.94005 0.8073 0.91482 0.0
H615 H 0.77026 0.83865 0.55308 0.0
H616 H 0.70726 0.81447 0.55233 0.0
H617 H 0.93871 0.86147 0.87505 0.0
H618 H 0.65787 0.77105 0.57921 0.0
N619 N 0.78088 0.77877 0.64961 0.0
C620 C 0.80825 0.79751 0.6301 0.0
C621 C 0.7729 0.82158 0.57982 0.0
C622 C 0.74439 0.79955 0.59679 0.0
C623 C 0.80489 0.81989 0.59597 0.0
C624 C 0.7492 0.7778 0.63177 0.0
H625 H 0.63481 0.72047 0.62739 0.0
N626 N 0.72683 0.7321 0.67951 0.0
C627 C 0.66687 0.70056 0.673 0.0
C628 C 0.7214 0.75352 0.64691 0.0
C629 C 0.70023 0.7047 0.69109 0.0
C630 C 0.66068 0.72381 0.6415 0.0
C631 C 0.68812 0.75023 0.62738 0.0
O632 O 0.76858 0.6904 0.70433 0.0
O633 O 0.80311 0.74158 0.77678 0.0
O634 O 0.84102 0.81298 0.76204 0.0
O635 O 0.83132 0.7874 0.70709 0.0
O636 O 0.83582 0.7402 0.74206 0.0
O637 O 0.80672 0.72701 0.67113 0.0
O638 O 0.78019 0.82417 0.80538 0.0
O639 O 0.76446 0.77588 0.73261 0.0
O640 O 0.7528 0.70731 0.75816 0.0
O641 O 0.74323 0.74371 0.78907 0.0
O642 O 0.78769 0.82442 0.74233 0.0
O643 O 0.76613 0.77724 0.84202 0.0
C644 C 0.83183 0.73816 0.77816 0.0
C645 C 0.77492 0.6779 0.64387 0.0
C646 C 0.78461 0.65063 0.59522 0.0
C647 C 0.79714 0.6699 0.62623 0.0
C648 C 0.74919 0.63981 0.58245 0.0
C649 C 0.74005 0.66741 0.62965 0.0
C650 C 0.72737 0.64848 0.59916 0.0
C651 C 0.84933 0.81056 0.72891 0.0
C652 C 0.78846 0.69599 0.67808 0.0
C653 C 0.68324 0.77296 0.59402 0.0
C654 C 0.71134 0.79769 0.57883 0.0
C655 C 0.76733 0.80566 0.71735 0.0
C656 C 0.77898 0.82431 0.87242 0.0
C657 C 0.75939 0.83932 0.88461 0.0
C658 C 0.77283 0.85796 0.91648 0.0
C659 C 0.80682 0.86202 0.93397 0.0
C660 C 0.81115 0.82655 0.8934 0.0
C661 C 0.82521 0.84577 0.9233 0.0
C662 C 0.73508 0.71403 0.77995 0.0
C663 C 0.76698 0.80749 0.83702 0.0
H664 H 0.82413 0.67879 0.63687 0.0
H665 H 0.7379 0.62401 0.55995 0.0
H666 H 0.72253 0.6734 0.64245 0.0
H667 H 0.70031 0.64001 0.58877 0.0
H668 H 0.73395 0.83613 0.86928 0.0
H669 H 0.81993 0.87787 0.95605 0.0
H670 H 0.82575 0.81386 0.8863 0.0
H671 H 0.85075 0.84838 0.9381 0.0
Co672 Co 0.07667 0.98493 0.44547 0.0
Co673 Co 0.06918 0.95451 0.51363 0.0
Co674 Co 0.04171 1.01268 0.50505 0.0
O675 O 0.07741 0.99786 0.49505 0.0
H676 H 0.10013 1.01102 0.50534 0.0
O677 O 1.00583 0.02755 0.51467 0.0
Co678 Co 1.00394 0.03984 0.56363 0.0
Co679 Co 1.01777 0.07135 0.49774 0.0
H680 H 0.98345 1.01611 0.50193 0.0
O681 O 0.10719 0.94507 0.53657 0.0
O682 O 0.08085 0.94146 0.47343 0.0
O683 O 1.02965 0.93242 0.54221 0.0
O684 O 1.03293 0.98084 0.55514 0.0
O685 O 0.07927 0.04427 0.53573 0.0
O686 O 0.99859 0.0494 0.60757 0.0
O687 O 0.9578 0.02722 0.55949 0.0
O688 O 0.05114 0.05456 0.57513 0.0
O689 O 0.05116 0.04509 0.45504 0.0
O690 O 0.05972 0.09233 0.47498 0.0
O691 O 1.00675 0.0856 0.53655 0.0
O692 O 0.98286 0.08358 0.47212 0.0
C693 C 0.11168 0.99087 0.40999 0.0
C694 C 1.00316 0.96331 0.45084 0.0
C695 C 1.02228 0.94932 0.56202 0.0
C696 C 0.10486 0.93763 0.5019 0.0
C697 C 0.96657 0.03833 0.59329 0.0
C698 C 0.0787 0.05679 0.56482 0.0
C699 C 0.06591 0.07631 0.45312 0.0
C700 C 0.98482 0.09149 0.50647 0.0
O701 O 0.07945 0.97534 0.40049 0.0
O702 O 0.12207 1.00334 0.44297 0.0
O703 O 1.00362 0.98078 0.47532 0.0
O704 O 1.03006 0.96448 0.44014 0.0
Co705 Co 0.57823 0.96417 0.99442 0.0
Co706 Co 0.57646 0.97061 0.0647 0.0
Co707 Co 0.53462 0.01767 0.9999 0.0
O708 O 0.57412 0.99924 0.01643 0.0
H709 H 0.59545 0.01752 0.01648 0.0
O710 O 0.49548 0.03661 0.98499 0.0
Co711 Co 0.49589 0.07633 0.00292 0.0
Co712 Co 0.49287 0.06258 0.93565 0.0
H713 H 0.47382 0.01906 0.98745 0.0
O714 O 0.61732 0.96398 0.09466 0.0
O715 O 0.58227 0.93533 0.04799 0.0
O716 O 0.53423 0.95547 0.08641 0.0
O717 O 0.50727 0.98663 0.04315 0.0
O718 O 0.56066 0.05201 0.03514 0.0
O719 O 0.49319 0.11006 0.02027 0.0
O720 O 0.45012 0.06373 0.0067 0.0
O721 O 0.54441 0.0948 0.00399 0.0
O722 O 0.5621 0.04804 0.95594 0.0
O723 O 0.53225 0.07455 0.90988 0.0
O724 O 0.48663 0.09967 0.94648 0.0
O725 O 0.45088 0.06307 0.90755 0.0
C726 C 0.61768 0.95394 0.98088 0.0
C727 C 0.50515 0.95258 0.97159 0.0
C728 C 0.50824 0.96412 0.07319 0.0
C729 C 0.60846 0.93898 0.07608 0.0
C730 C 0.46087 0.09287 0.01774 0.0
C731 C 0.56587 0.08309 0.02726 0.0
C732 C 0.55915 0.06766 0.92347 0.0
C733 C 0.45865 0.09051 0.92112 0.0
O734 O 0.58626 0.93496 0.9726 0.0
O735 O 0.62409 0.9799 0.9973 0.0
O736 O 0.5078 0.98309 0.96439 0.0
O737 O 0.5302 0.94326 0.98831 0.0
Co738 Co 0.06859 0.45719 0.9934 0.0
Co739 Co 0.07264 0.46562 0.06323 0.0
Co740 Co 1.03339 0.51445 0.99958 0.0
O741 O 0.07186 0.4949 0.01536 0.0
H742 H 0.09386 0.51205 0.01381 0.0
O743 O 0.99562 0.53448 0.98553 0.0
Co744 Co 0.99895 0.573 0.00727 0.0
Co745 Co 0.99315 0.56245 0.93838 0.0
H746 H 0.97362 0.51737 0.98769 0.0
O747 O 0.11278 0.46046 0.094 0.0
O748 O 0.07942 0.43045 0.04712 0.0
O749 O 1.03075 0.45121 0.08589 0.0
O750 O 1.00493 0.48277 0.04186 0.0
O751 O 0.05942 0.54658 0.03697 0.0
O752 O 0.99858 0.60518 0.02966 0.0
O753 O 0.95443 0.55996 0.01387 0.0
O754 O 0.04743 0.59132 0.00599 0.0
O755 O 0.0617 0.5463 0.95655 0.0
O756 O 1.03219 0.57468 0.91258 0.0
O757 O 0.98825 0.59898 0.95278 0.0
O758 O 0.95151 0.56463 0.9115 0.0
C759 C 0.1003 0.44262 0.97062 0.0
C760 C 1.00029 0.45012 0.97262 0.0
C761 C 1.00518 0.46043 0.07231 0.0
C762 C 0.10557 0.43569 0.07548 0.0
C763 C 0.96666 0.58708 0.02953 0.0
C764 C 0.06749 0.57795 0.02938 0.0
C765 C 0.05888 0.56721 0.92508 0.0
C766 C 0.96026 0.59129 0.92707 0.0
O767 O 0.06823 0.42512 0.97077 0.0
O768 O 0.11277 0.47018 0.98546 0.0
O769 O 1.00658 0.48125 0.9623 0.0
O770 O 1.02149 0.43922 0.99726 0.0
Co771 Co 0.58209 0.48775 0.94264 0.0
Co772 Co 0.56847 0.45126 0.00755 0.0
Co773 Co 0.54476 0.51119 0.00523 0.0
O774 O 0.58001 0.49587 0.99445 0.0
H775 H 0.60245 0.507 0.00755 0.0
O776 O 0.51027 0.52722 0.01655 0.0
Co777 Co 0.52337 0.56277 0.04661 0.0
Co778 Co 0.49893 0.55643 0.97335 0.0
H779 H 0.49009 0.50931 0.02409 0.0
O780 O 0.60351 0.43713 0.03158 0.0
O781 O 0.58202 0.44242 0.96646 0.0
O782 O 0.5235 0.42899 0.02226 0.0
O783 O 0.52756 0.47251 0.04803 0.0
O784 O 0.58022 0.53616 0.04469 0.0
O785 O 0.53236 0.59438 0.075 0.0
O786 O 0.48503 0.54965 0.07026 0.0
O787 O 0.56528 0.58021 0.02695 0.0
O788 O 0.56262 0.54801 0.96173 0.0
O789 O 0.52735 0.57511 0.93195 0.0
O790 O 0.50303 0.58806 1.00146 0.0
O791 O 0.45569 0.557 0.96626 0.0
C792 C 0.61906 0.49266 0.91039 0.0
C793 C 0.50813 0.47182 0.93988 0.0
C794 C 0.51276 0.44212 0.04339 0.0
C795 C 0.6048 0.43603 0.99509 0.0
C796 C 0.50198 0.57747 0.08391 0.0
C797 C 0.58664 0.56659 0.04538 0.0
C798 C 0.55442 0.56901 0.93435 0.0
C799 C 0.47036 0.57898 0.98975 0.0
O800 O 0.58697 0.48116 0.89686 0.0
O801 O 0.62813 0.50318 0.94457 0.0
O802 O 0.5079 0.48706 0.96651 0.0
O803 O 0.53532 0.47111 0.93206 0.0
Co804 Co 0.10343 0.48216 0.5395 0.0
Co805 Co 0.07577 0.48609 0.46648 0.0
Co806 Co 1.03667 0.51749 0.5053 0.0
O807 O 0.05769 0.48141 0.5121 0.0
H808 H 0.04095 0.45958 0.51655 0.0
O809 O 1.01439 0.55305 0.49841 0.0
Co810 Co 0.97319 0.55831 0.46063 0.0
Co811 Co 0.98673 0.54556 0.53718 0.0
H812 H 1.03194 0.57448 0.49943 0.0
O813 O 0.07243 0.44911 0.45004 0.0
O814 O 0.1172 0.48085 0.48799 0.0
O815 O 0.08364 0.52657 0.42943 0.0
O816 O 0.06825 0.55136 0.4675 0.0
O817 O 1.00297 0.49657 0.46118 0.0
O818 O 0.93756 0.56778 0.42639 0.0
O819 O 0.98229 0.60339 0.458 0.0
O820 O 0.95726 0.51173 0.45593 0.0
O821 O 1.00521 0.48327 0.54326 0.0
O822 O 0.97582 0.50359 0.57022 0.0
O823 O 0.94712 0.54919 0.50573 0.0
O824 O 0.9793 0.57898 0.55372 0.0
C825 C 0.1306 0.44868 0.56844 0.0
C826 C 0.1048 0.54578 0.5487 0.0
C827 C 0.08278 0.55245 0.43841 0.0
C828 C 0.10359 0.45597 0.46782 0.0
C829 C 0.95336 0.59783 0.43401 0.0
C830 C 0.97095 0.49129 0.45247 0.0
C831 C 0.98436 0.47995 0.5668 0.0
C832 C 0.95123 0.57001 0.52945 0.0
O833 O 0.14437 0.48063 0.56504 0.0
O834 O 0.09824 0.4366 0.55389 0.0
O835 O 0.07259 0.53841 0.54891 0.0
O836 O 0.11599 0.52948 0.53176 0.0
Co837 Co 0.60171 0.97567 0.54275 0.0
Co838 Co 0.57818 0.97988 0.4678 0.0
Co839 Co 0.53837 1.01463 0.50365 0.0
O840 O 0.55855 0.9782 0.51119 0.0
H841 H 0.54092 0.95681 0.51503 0.0
O842 O 0.51744 0.05079 0.49571 0.0
Co843 Co 0.47446 0.05389 0.46161 0.0
Co844 Co 0.49405 0.04581 0.5373 0.0
H845 H 0.53506 0.07228 0.494 0.0
O846 O 0.58079 0.94203 0.45586 0.0
O847 O 0.61996 0.97797 0.49373 0.0
O848 O 0.58522 0.01923 0.42927 0.0
O849 O 0.56803 0.04663 0.46253 0.0
O850 O 0.50264 0.99235 0.46186 0.0
O851 O 0.43686 0.06022 0.43098 0.0
O852 O 0.48413 0.10001 0.45185 0.0
O853 O 0.45742 1.00626 0.4639 0.0
O854 O 0.5086 0.98202 0.54457 0.0
O855 O 0.4823 1.00466 0.5725 0.0
O856 O 0.45461 0.05179 0.5098 0.0
O857 O 0.4946 0.08275 0.55285 0.0
C858 C 0.62225 0.93762 0.5713 0.0
C859 C 0.60704 0.04316 0.54754 0.0
C860 C 0.58254 0.04567 0.43438 0.0
C861 C 0.61111 0.9526 0.47543 0.0
C862 C 0.45307 0.09147 0.43253 0.0
C863 C 0.47047 0.98651 0.45689 0.0
C864 C 0.48909 0.9799 0.56922 0.0
C865 C 0.46512 0.07588 0.53082 0.0
O866 O 0.64003 0.96877 0.57224 0.0
O867 O 0.59104 0.93016 0.55262 0.0
O868 O 0.57492 0.03716 0.54543 0.0
O869 O 0.61869 0.02296 0.53893 0.0
H870 H 0.17404 0.19761 0.28577 0.0
H871 H 0.26294 0.20115 0.3735 0.0
H872 H 0.22699 0.15718 0.41818 0.0
H873 H 0.12134 0.19054 0.35558 0.0
H874 H 0.08299 0.16402 0.33047 0.0
H875 H 0.11615 0.19241 0.30279 0.0
H876 H 0.11788 0.14415 0.27432 0.0
H877 H 0.08555 0.11491 0.30265 0.0
H878 H 0.126 0.10956 0.3071 0.0
H879 H 0.18231 0.11447 0.45416 0.0
H880 H 0.12991 0.08102 0.48366 0.0
H881 H 0.06864 0.10858 0.37676 0.0
C882 C 0.18589 0.18876 0.3142 0.0
C883 C 0.22138 0.20225 0.32583 0.0
C884 C 0.23593 0.19079 0.36364 0.0
C885 C 0.21574 0.16571 0.38922 0.0
C886 C 0.18091 0.15285 0.37692 0.0
C887 C 0.1659 0.16436 0.3407 0.0
C888 C 0.1274 0.149 0.33689 0.0
C889 C 0.11102 0.17558 0.33111 0.0
C890 C 0.11339 0.12814 0.30325 0.0
C891 C 0.12322 0.12749 0.3769 0.0
C892 C 0.15455 0.12954 0.39899 0.0
C893 C 0.15763 0.11263 0.43721 0.0
C894 C 0.12789 0.09381 0.45376 0.0
C895 C 0.09572 0.09254 0.43244 0.0
C896 C 0.09316 0.10911 0.39335 0.0
H897 H 0.81196 0.08137 0.40728 0.0
H898 H 0.86726 0.1817 0.35905 0.0
H899 H 0.90788 0.18764 0.41954 0.0
H900 H 0.84245 0.08806 0.5201 0.0
H901 H 0.84713 0.04829 0.52704 0.0
H902 H 0.81364 0.05704 0.49109 0.0
H903 H 0.83596 0.04055 0.43759 0.0
H904 H 0.86889 0.03228 0.47401 0.0
H905 H 0.87985 0.06129 0.42977 0.0
H906 H 0.95019 0.17986 0.47344 0.0
H907 H 0.99503 0.15613 0.50257 0.0
H908 H 0.91935 0.0586 0.51147 0.0
C909 C 0.83198 0.10491 0.41017 0.0
C910 C 0.83525 0.13171 0.37915 0.0
C911 C 0.86256 0.1617 0.38347 0.0
C912 C 0.88604 0.16519 0.41787 0.0
C913 C 0.88283 0.13807 0.44757 0.0
C914 C 0.85673 0.10817 0.44366 0.0
C915 C 0.8644 0.08045 0.47307 0.0
C916 C 0.84049 0.06775 0.50472 0.0
C917 C 0.86222 0.05206 0.45234 0.0
C918 C 0.90051 0.09874 0.4905 0.0
C919 C 0.90959 0.1324 0.47782 0.0
C920 C 0.9432 0.15375 0.48462 0.0
C921 C 0.9686 0.14017 0.50143 0.0
C922 C 0.96012 0.1057 0.51036 0.0
C923 C 0.92576 0.08505 0.50713 0.0
H924 H 0.88907 0.84206 0.30016 0.0
H925 H 0.8038 0.86899 0.31041 0.0
H926 H 0.84113 0.90696 0.35693 0.0
H927 H 0.9216 0.83832 0.40017 0.0
H928 H 0.96571 0.85411 0.39286 0.0
H929 H 0.93358 0.83216 0.35678 0.0
H930 H 0.9531 0.88179 0.30148 0.0
H931 H 0.98604 0.90355 0.33706 0.0
H932 H 0.95607 0.92218 0.30795 0.0
H933 H 0.88715 0.93889 0.40584 0.0
H934 H 0.93983 0.96656 0.44832 0.0
H935 H 0.99303 0.9158 0.4071 0.0
C936 C 0.87854 0.85685 0.31102 0.0
C937 C 0.84384 0.85313 0.3014 0.0
C938 C 0.83056 0.87193 0.31728 0.0
C939 C 0.85145 0.89331 0.34385 0.0
C940 C 0.88529 0.89524 0.3542 0.0
C941 C 0.89879 0.87777 0.33794 0.0
C942 C 0.9353 0.88259 0.35549 0.0
C943 C 0.93925 0.84985 0.37763 0.0
C944 C 0.95902 0.89849 0.3236 0.0
C945 C 0.94045 0.90596 0.38374 0.0
C946 C 0.91133 0.91282 0.3829 0.0
C947 C 0.91019 0.93385 0.40664 0.0
C948 C 0.9401 0.94923 0.43086 0.0
C949 C 0.97049 0.94344 0.43077 0.0
C950 C 0.97025 0.92088 0.40764 0.0
H951 H 0.15614 0.91417 0.25347 0.0
H952 H 0.26167 0.94813 0.30634 0.0
H953 H 0.24768 0.97861 0.34867 0.0
H954 H 0.13637 0.98696 0.25387 0.0
H955 H 0.0944 0.96331 0.26682 0.0
H956 H 0.1137 0.94697 0.23885 0.0
H957 H 0.10547 0.89434 0.29149 0.0
H958 H 0.08574 0.91035 0.31916 0.0
H959 H 0.12203 0.89854 0.34252 0.0
H960 H 0.22054 1.00529 0.3854 0.0
H961 H 0.18245 0.01798 0.41938 0.0
H962 H 0.09513 0.96242 0.34384 0.0
C963 C 0.1763 0.92833 0.27373 0.0
C964 C 0.20994 0.92931 0.2766 0.0
C965 C 0.23573 0.94739 0.30385 0.0
C966 C 0.22804 0.96487 0.32768 0.0
C967 C 0.19442 0.9636 0.32395 0.0
C968 C 0.16897 0.94532 0.29797 0.0
C969 C 0.13444 0.9453 0.30165 0.0
C970 C 0.11882 0.96162 0.263 0.0
C971 C 0.11053 0.91005 0.31449 0.0
C972 C 0.1442 0.96624 0.33394 0.0
C973 C 0.17889 0.97719 0.34611 0.0
C974 C 0.19331 0.99655 0.37624 0.0
C975 C 0.17149 1.0036 0.39543 0.0
C976 C 0.1357 0.99032 0.38522 0.0
C977 C 0.1223 0.97264 0.35295 0.0
H978 H 0.22261 0.85544 0.61286 0.0
H979 H 0.30207 0.94057 0.56321 0.0
H980 H 0.26158 0.94716 0.50407 0.0
H981 H 0.16964 0.83429 0.5031 0.0
H982 H 0.13188 0.81865 0.52683 0.0
H983 H 0.17031 0.81149 0.5522 0.0
H984 H 0.16504 0.83696 0.61036 0.0
H985 H 0.12852 0.84573 0.58338 0.0
H986 H 0.16526 0.87882 0.60094 0.0
H987 H 0.21233 0.96086 0.47355 0.0
H988 H 0.16158 0.97434 0.46975 0.0
H989 H 0.10998 0.87748 0.52826 0.0
C990 C 0.23237 0.87406 0.58855 0.0
C991 C 0.26533 0.89812 0.59344 0.0
C992 C 0.27663 0.92245 0.56091 0.0
C993 C 0.25383 0.92604 0.52677 0.0
C994 C 0.22018 0.90435 0.52495 0.0
C995 C 0.20986 0.87758 0.55414 0.0
C996 C 0.17135 0.86175 0.54927 0.0
C997 C 0.16011 0.82965 0.53183 0.0
C998 C 0.15678 0.85558 0.58826 0.0
C999 C 0.16172 0.88801 0.51901 0.0
C1000 C 0.19017 0.91127 0.50346 0.0
C1001 C 0.18946 0.94173 0.48281 0.0
C1002 C 0.16003 0.94921 0.47979 0.0
C1003 C 0.13093 0.92599 0.49524 0.0
C1004 C 0.1314 0.89466 0.51395 0.0
H1005 H 0.1886 0.17464 0.71972 0.0
H1006 H 0.27653 0.19096 0.66477 0.0
H1007 H 0.24237 0.14656 0.62512 0.0
H1008 H 0.14924 0.08338 0.71984 0.0
H1009 H 0.10704 0.08567 0.70848 0.0
H1010 H 0.14014 0.11421 0.73745 0.0
H1011 H 0.12914 0.16306 0.6878 0.0
H1012 H 0.09645 0.13485 0.65838 0.0
H1013 H 0.13169 0.16617 0.63624 0.0
H1014 H 0.19722 0.10463 0.58704 0.0
H1015 H 0.14413 0.07015 0.55145 0.0
H1016 H 0.08596 0.08416 0.6301 0.0
C1017 C 0.20094 0.16792 0.70065 0.0
C1018 C 0.23506 0.18565 0.69558 0.0
C1019 C 0.25021 0.17742 0.66887 0.0
C1020 C 0.23115 0.15212 0.64657 0.0
C1021 C 0.19712 0.13553 0.65151 0.0
C1022 C 0.18217 0.14307 0.67797 0.0
C1023 C 0.14432 0.12468 0.6743 0.0
C1024 C 0.13463 0.10054 0.71227 0.0
C1025 C 0.12425 0.14863 0.66352 0.0
C1026 C 0.1401 0.1066 0.64058 0.0
C1027 C 0.17086 0.11252 0.62839 0.0
C1028 C 0.17297 0.09961 0.59645 0.0
C1029 C 0.14268 0.0804 0.57613 0.0
C1030 C 0.11086 0.07509 0.58738 0.0
C1031 C 0.10982 0.08791 0.6205 0.0
H1032 H 0.91789 0.10742 0.75479 0.0
H1033 H 0.81934 0.09567 0.68409 0.0
H1034 H 0.83348 0.06823 0.63848 0.0
H1035 H 0.96375 0.12829 0.67408 0.0
H1036 H 0.99318 0.10759 0.6991 0.0
H1037 H 0.9737 0.12357 0.72715 0.0
H1038 H 0.95096 0.06553 0.7684 0.0
H1039 H 0.97019 0.04934 0.74018 0.0
H1040 H 0.92529 0.03073 0.74354 0.0
H1041 H 0.85968 0.0421 0.60042 0.0
H1042 H 0.8975 0.02642 0.56946 0.0
H1043 H 0.97906 0.05853 0.66469 0.0
C1044 C 0.89909 0.09862 0.73003 0.0
C1045 C 0.86739 0.10321 0.72313 0.0
C1046 C 0.84376 0.09223 0.68984 0.0
C1047 C 0.85149 0.07647 0.664 0.0
C1048 C 0.88306 0.0722 0.67177 0.0
C1049 C 0.90657 0.08335 0.70382 0.0
C1050 C 0.93963 0.0782 0.70428 0.0
C1051 C 0.9693 0.11138 0.70093 0.0
C1052 C 0.94693 0.05454 0.7413 0.0
C1053 C 0.93128 0.06259 0.66739 0.0
C1054 C 0.89844 0.0588 0.6492 0.0
C1055 C 0.88555 0.04526 0.61425 0.0
C1056 C 0.90721 0.03646 0.59685 0.0
C1057 C 0.94152 0.0419 0.61408 0.0
C1058 C 0.9531 0.05424 0.65041 0.0
H1059 H 0.88797 0.80199 0.68209 0.0
H1060 H 0.88015 0.87499 0.74134 0.0
H1061 H 0.92813 0.91744 0.71002 0.0
H1062 H 0.98117 0.83538 0.68287 0.0
H1063 H 0.97763 0.82605 0.63418 0.0
H1064 H 0.94629 0.80063 0.66597 0.0
H1065 H 0.89842 0.81073 0.61164 0.0
H1066 H 0.9295 0.83634 0.57977 0.0
H1067 H 0.90033 0.85243 0.59181 0.0
H1068 H 0.97193 0.95284 0.66637 0.0
H1069 H 1.00938 0.97885 0.61505 0.0
H1070 H 0.98749 0.88288 0.58224 0.0
C1071 C 0.89665 0.82681 0.68895 0.0
C1072 C 0.8805 0.83518 0.71441 0.0
C1073 C 0.89263 0.86787 0.7227 0.0
C1074 C 0.91972 0.89217 0.70479 0.0
C1075 C 0.93437 0.88325 0.67887 0.0
C1076 C 0.9234 0.8513 0.67116 0.0
C1077 C 0.94144 0.8486 0.63976 0.0
C1078 C 0.96291 0.82635 0.65672 0.0
C1079 C 0.9159 0.83631 0.60362 0.0
C1080 C 0.96375 0.88426 0.63019 0.0
C1081 C 0.95949 0.90375 0.65337 0.0
C1082 C 0.97587 0.93777 0.6485 0.0
C1083 C 0.99704 0.95229 0.61908 0.0
C1084 C 1.00161 0.93288 0.59465 0.0
C1085 C 0.98493 0.89834 0.60071 0.0
H1086 H 0.30436 0.10835 0.09777 0.0
H1087 H 0.34999 0.21438 0.06493 0.0
H1088 H 0.39498 0.206 0.0389 0.0
H1089 H 0.3818 0.09097 0.12784 0.0
H1090 H 0.36606 0.05288 0.10779 0.0
H1091 H 0.337 0.06693 0.12357 0.0
H1092 H 0.30107 0.06414 0.05434 0.0
H1093 H 0.33008 0.05015 0.03829 0.0
H1094 H 0.32124 0.08632 0.01124 0.0
H1095 H 0.43564 0.1867 0.01735 0.0
H1096 H 0.47039 0.15801 0.00321 0.0
H1097 H 0.39841 0.06369 0.04723 0.0
C1098 C 0.32357 0.12988 0.08478 0.0
C1099 C 0.32342 0.16218 0.08375 0.0
C1100 C 0.34959 0.18947 0.06692 0.0
C1101 C 0.37517 0.18493 0.05164 0.0
C1102 C 0.37443 0.15289 0.05307 0.0
C1103 C 0.34934 0.12578 0.06918 0.0
C1104 C 0.35485 0.094 0.06743 0.0
C1105 C 0.36025 0.07509 0.10914 0.0
C1106 C 0.32503 0.07238 0.04126 0.0
C1107 C 0.38728 0.10753 0.04836 0.0
C1108 C 0.3979 0.14161 0.04022 0.0
C1109 C 0.42753 0.16005 0.02361 0.0
C1110 C 0.44718 0.14344 0.01579 0.0
C1111 C 0.43734 0.10855 0.02425 0.0
C1112 C 0.40654 0.09031 0.04017 0.0
H1113 H 0.88366 0.35655 0.23805 0.0
H1114 H 0.80488 0.32037 0.14234 0.0
H1115 H 0.84423 0.35387 0.09393 0.0
H1116 H 0.91894 0.43839 0.18969 0.0
H1117 H 0.96268 0.44313 0.20909 0.0
H1118 H 0.92913 0.41539 0.23673 0.0
H1119 H 0.94932 0.36619 0.23858 0.0
H1120 H 0.98399 0.39499 0.21331 0.0
H1121 H 0.95624 0.35849 0.19299 0.0
H1122 H 0.89006 0.39611 0.05579 0.0
H1123 H 0.94274 0.43552 0.03056 0.0
H1124 H 0.99445 0.44039 0.15058 0.0
C1125 C 0.8751 0.35523 0.20691 0.0
C1126 C 0.8415 0.33547 0.19381 0.0
C1127 C 0.83078 0.33478 0.15289 0.0
C1128 C 0.85288 0.35392 0.12522 0.0
C1129 C 0.8857 0.37362 0.13895 0.0
C1130 C 0.89713 0.37376 0.17887 0.0
C1131 C 0.93379 0.39689 0.18566 0.0
C1132 C 0.93627 0.42512 0.20653 0.0
C1133 C 0.95719 0.37798 0.20903 0.0
C1134 C 0.94125 0.40959 0.14336 0.0
C1135 C 0.91281 0.3965 0.11692 0.0
C1136 C 0.91266 0.40601 0.07624 0.0
C1137 C 0.94263 0.42861 0.06217 0.0
C1138 C 0.97274 0.44083 0.08853 0.0
C1139 C 0.97188 0.43128 0.12972 0.0
H1140 H 0.74422 0.85339 0.20917 0.0
H1141 H 0.67813 0.76318 0.16488 0.0
H1142 H 0.64322 0.79328 0.12002 0.0
H1143 H 0.67743 0.88117 0.21285 0.0
H1144 H 0.69962 0.92449 0.19831 0.0
H1145 H 0.72326 0.89775 0.22243 0.0
H1146 H 0.7582 0.91509 0.16364 0.0
H1147 H 0.73532 0.94291 0.14108 0.0
H1148 H 0.73568 0.91268 0.11416 0.0
H1149 H 0.61295 0.83295 0.08078 0.0
H1150 H 0.58788 0.87681 0.05564 0.0
H1151 H 0.66893 0.94165 0.12845 0.0
C1152 C 0.72318 0.8403 0.18892 0.0
C1153 C 0.71521 0.8058 0.18945 0.0
C1154 C 0.68586 0.78956 0.16419 0.0
C1155 C 0.66561 0.80656 0.13857 0.0
C1156 C 0.67386 0.84024 0.13878 0.0
C1157 C 0.70186 0.857 0.16351 0.0
C1158 C 0.70277 0.89247 0.16053 0.0
C1159 C 0.70064 0.89937 0.20094 0.0
C1160 C 0.73493 0.91725 0.1439 0.0
C1161 C 0.67073 0.89273 0.13114 0.0
C1162 C 0.65494 0.86248 0.11832 0.0
C1163 C 0.62521 0.85666 0.09087 0.0
C1164 C 0.61101 0.88193 0.07659 0.0
C1165 C 0.6258 0.91306 0.08989 0.0
C1166 C 0.65648 0.9183 0.11752 0.0
H1167 H 0.19527 0.73346 0.13322 0.0
H1168 H 0.24851 0.66759 0.19847 0.0
H1169 H 0.2122 0.625 0.15848 0.0
H1170 H 0.11295 0.67169 0.12935 0.0
H1171 H 0.09728 0.688 0.08052 0.0
H1172 H 0.13003 0.71515 0.11126 0.0
H1173 H 0.16862 0.73519 0.05612 0.0
H1174 H 0.13596 0.70778 0.0254 0.0
H1175 H 0.17811 0.70539 0.03683 0.0
H1176 H 0.16874 0.58796 0.11507 0.0
H1177 H 0.11838 0.55736 0.07291 0.0
H1178 H 0.0894 0.64472 0.03635 0.0
C1179 C 0.19954 0.71034 0.13898 0.0
C1180 C 0.22508 0.70439 0.16944 0.0
C1181 C 0.22943 0.67331 0.17561 0.0
C1182 C 0.20887 0.64873 0.15284 0.0
C1183 C 0.18362 0.65519 0.12382 0.0
C1184 C 0.17862 0.6851 0.11681 0.0
C1185 C 0.14774 0.68438 0.0857 0.0
C1186 C 0.12038 0.69014 0.10273 0.0
C1187 C 0.15825 0.7097 0.04882 0.0
C1188 C 0.13597 0.64922 0.077 0.0
C1189 C 0.15751 0.63315 0.09904 0.0
C1190 C 0.15174 0.60029 0.09751 0.0
C1191 C 0.12287 0.58306 0.07344 0.0
C1192 C 0.09962 0.59843 0.05125 0.0
C1193 C 0.1067 0.63224 0.05263 0.0
H1194 H 0.34618 0.85833 0.82273 0.0
H1195 H 0.3418 0.76922 0.90578 0.0
H1196 H 0.38345 0.80265 0.95441 0.0
H1197 H 0.43367 0.89482 0.84131 0.0
H1198 H 0.43469 0.93667 0.83552 0.0
H1199 H 0.39967 0.90683 0.81037 0.0
H1200 H 0.35716 0.91882 0.84277 0.0
H1201 H 0.39209 0.94888 0.86794 0.0
H1202 H 0.36225 0.9154 0.89578 0.0
H1203 H 0.43022 0.84432 0.99046 0.0
H1204 H 0.48009 0.89099 0.01147 0.0
H1205 H 0.45714 0.9543 0.90464 0.0
C1206 C 0.35284 0.8461 0.85189 0.0
C1207 C 0.33989 0.81124 0.86116 0.0
C1208 C 0.35072 0.79588 0.89863 0.0
C1209 C 0.37444 0.81471 0.92633 0.0
C1210 C 0.38756 0.84894 0.91592 0.0
C1211 C 0.37718 0.86458 0.87959 0.0
C1212 C 0.39847 0.90116 0.87396 0.0
C1213 C 0.41776 0.9104 0.83818 0.0
C1214 C 0.37615 0.92232 0.86988 0.0
C1215 C 0.42279 0.90356 0.91253 0.0
C1216 C 0.41566 0.87312 0.93637 0.0
C1217 C 0.43575 0.86831 0.97226 0.0
C1218 C 0.46415 0.895 0.98387 0.0
C1219 C 0.47252 0.92636 0.95983 0.0
C1220 C 0.45106 0.93082 0.92398 0.0
H1221 H 0.14108 0.29847 0.91303 0.0
H1222 H 0.24552 0.36387 0.90791 0.0
H1223 H 0.23107 0.40892 0.92319 0.0
H1224 H 0.10184 0.35885 0.86761 0.0
H1225 H 0.06851 0.34214 0.89846 0.0
H1226 H 0.08745 0.3155 0.88725 0.0
H1227 H 0.10251 0.2968 0.96214 0.0
H1228 H 0.08341 0.32324 0.97349 0.0
H1229 H 0.12691 0.32746 0.9936 0.0
H1230 H 0.20464 0.44622 0.94259 0.0
H1231 H 0.16851 0.472 0.96126 0.0
H1232 H 0.08174 0.38185 0.94987 0.0
C1233 C 0.16097 0.32222 0.91531 0.0
C1234 C 0.19445 0.32764 0.90952 0.0
C1235 C 0.21964 0.35925 0.91209 0.0
C1236 C 0.21169 0.38492 0.92088 0.0
C1237 C 0.17835 0.37867 0.92656 0.0
C1238 C 0.15342 0.34808 0.9236 0.0
C1239 C 0.1195 0.34746 0.93066 0.0
C1240 C 0.09276 0.34059 0.89379 0.0
C1241 C 0.10739 0.32225 0.96714 0.0
C1242 C 0.12913 0.38241 0.93819 0.0
C1243 C 0.16318 0.40014 0.93607 0.0
C1244 C 0.17785 0.43261 0.94388 0.0
C1245 C 0.15717 0.44711 0.95437 0.0
C1246 C 0.12219 0.42918 0.95657 0.0
C1247 C 0.10821 0.39657 0.94788 0.0
H1248 H 0.72685 0.21294 0.85728 0.0
H1249 H 0.69218 0.18307 0.74165 0.0
H1250 H 0.64833 0.13292 0.769 0.0
H1251 H 0.70547 0.12682 0.91999 0.0
H1252 H 0.69197 0.14157 0.95543 0.0
H1253 H 0.72508 0.16946 0.92711 0.0
H1254 H 0.68789 0.20747 0.90621 0.0
H1255 H 0.65443 0.17739 0.9322 0.0
H1256 H 0.6455 0.19147 0.88022 0.0
H1257 H 0.60383 0.09019 0.80601 0.0
H1258 H 0.56039 0.05824 0.8501 0.0
H1259 H 0.62131 0.11484 0.94298 0.0
C1260 C 0.71107 0.19489 0.83834 0.0
C1261 C 0.71423 0.20086 0.79764 0.0
C1262 C 0.69128 0.17815 0.77306 0.0
C1263 C 0.66618 0.14963 0.78842 0.0
C1264 C 0.66352 0.1444 0.82851 0.0
C1265 C 0.68529 0.16635 0.8533 0.0
C1266 C 0.6737 0.1571 0.89393 0.0
C1267 C 0.70071 0.14825 0.92598 0.0
C1268 C 0.66485 0.18502 0.90369 0.0
C1269 C 0.642 0.12684 0.88787 0.0
C1270 C 0.63688 0.11989 0.84993 0.0
C1271 C 0.60797 0.09492 0.83604 0.0
C1272 C 0.58345 0.07684 0.86126 0.0
C1273 C 0.58797 0.08345 0.90015 0.0
C1274 C 0.61786 0.10853 0.9138 0.0
H1275 H 0.89942 0.74444 0.80809 0.0
H1276 H 0.79613 0.67679 0.81417 0.0
H1277 H 0.81805 0.63492 0.8576 0.0
H1278 H 0.93447 0.68466 0.80238 0.0
H1279 H 0.97465 0.70208 0.83214 0.0
H1280 H 0.95118 0.72822 0.8051 0.0
H1281 H 0.95135 0.74798 0.86978 0.0
H1282 H 0.97555 0.7223 0.8965 0.0
H1283 H 0.93602 0.71775 0.91149 0.0
H1284 H 0.85112 0.59823 0.89638 0.0
H1285 H 0.89198 0.56942 0.92556 0.0
H1286 H 0.97567 0.65936 0.89665 0.0
C1287 C 0.88144 0.7211 0.8195 0.0
C1288 C 0.84571 0.7147 0.80888 0.0
C1289 C 0.82333 0.6831 0.82298 0.0
C1290 C 0.83569 0.65897 0.84761 0.0
C1291 C 0.87084 0.66617 0.85793 0.0
C1292 C 0.8935 0.69653 0.84438 0.0
C1293 C 0.93012 0.69697 0.85797 0.0
C1294 C 0.9487 0.70336 0.82227 0.0
C1295 C 0.94941 0.72281 0.88556 0.0
C1296 C 0.92457 0.66196 0.88048 0.0
C1297 C 0.89004 0.64483 0.88022 0.0
C1298 C 0.87815 0.61167 0.89706 0.0
C1299 C 0.90171 0.59541 0.91375 0.0
C1300 C 0.93732 0.61192 0.91445 0.0
C1301 C 0.94881 0.64603 0.89787 0.0
H1302 H 0.21445 0.33854 0.23656 0.0
H1303 H 0.24549 0.31329 0.1412 0.0
H1304 H 0.2067 0.33813 0.09301 0.0
H1305 H 0.12697 0.33123 0.19588 0.0
H1306 H 0.12971 0.36758 0.21371 0.0
H1307 H 0.15553 0.34341 0.23994 0.0
H1308 H 0.20969 0.39528 0.23429 0.0
H1309 H 0.18412 0.41963 0.20798 0.0
H1310 H 0.21838 0.41862 0.1863 0.0
H1311 H 0.1601 0.36577 0.05493 0.0
H1312 H 0.12304 0.39971 0.03244 0.0
H1313 H 0.13289 0.41648 0.15214 0.0
C1314 C 0.21243 0.33722 0.20557 0.0
C1315 C 0.23138 0.32125 0.19336 0.0
C1316 C 0.2296 0.32279 0.15207 0.0
C1317 C 0.20781 0.33741 0.12433 0.0
C1318 C 0.18908 0.35233 0.13779 0.0
C1319 C 0.19213 0.35297 0.17766 0.0
C1320 C 0.17308 0.37385 0.18499 0.0
C1321 C 0.14464 0.35276 0.21012 0.0
C1322 C 0.19779 0.4036 0.20454 0.0
C1323 C 0.15833 0.38486 0.14312 0.0
C1324 C 0.16697 0.37153 0.11622 0.0
C1325 C 0.15416 0.37674 0.07605 0.0
C1326 C 0.13297 0.3963 0.06328 0.0
C1327 C 0.12543 0.41197 0.08984 0.0
C1328 C 0.13843 0.40567 0.13052 0.0
H1329 H 0.24182 0.70131 0.88301 0.0
H1330 H 0.20676 0.69397 0.75892 0.0
H1331 H 0.15253 0.6515 0.7757 0.0
H1332 H 0.20215 0.61526 0.92558 0.0
H1333 H 0.1915 0.62662 0.96609 0.0
H1334 H 0.22757 0.65433 0.94247 0.0
H1335 H 0.19919 0.69966 0.93173 0.0
H1336 H 0.16329 0.66963 0.95394 0.0
H1337 H 0.15677 0.69147 0.90501 0.0
H1338 H 0.10265 0.6085 0.80577 0.0
H1339 H 0.05829 0.57143 0.84664 0.0
H1340 H 0.12383 0.60641 0.95186 0.0
C1341 C 0.22256 0.69081 0.85946 0.0
C1342 C 0.22852 0.70114 0.8195 0.0
C1343 C 0.20276 0.68681 0.78954 0.0
C1344 C 0.17187 0.66248 0.79888 0.0
C1345 C 0.16681 0.65274 0.83843 0.0
C1346 C 0.19115 0.6668 0.86831 0.0
C1347 C 0.17822 0.6529 0.90821 0.0
C1348 C 0.20135 0.63635 0.93725 0.0
C1349 C 0.17414 0.68004 0.92574 0.0
C1350 C 0.14381 0.62755 0.89627 0.0
C1351 C 0.13766 0.62819 0.8558 0.0
C1352 C 0.10731 0.6077 0.83749 0.0
C1353 C 0.08238 0.58649 0.86095 0.0
C1354 C 0.08798 0.58532 0.90246 0.0
C1355 C 0.11931 0.60597 0.92035 0.0
H1356 H 0.40186 0.25055 0.82368 0.0
H1357 H 0.30034 0.18178 0.79478 0.0
H1358 H 0.31903 0.13557 0.83178 0.0
H1359 H 0.4475 0.20135 0.81318 0.0
H1360 H 0.4805 0.21295 0.85412 0.0
H1361 H 0.45856 0.24084 0.82865 0.0
H1362 H 0.44199 0.24335 0.89461 0.0
H1363 H 0.46395 0.21547 0.92039 0.0
H1364 H 0.41977 0.20561 0.92442 0.0
H1365 H 0.3505 0.09587 0.8674 0.0
H1366 H 0.39031 0.0665 0.8989 0.0
H1367 H 0.47275 0.15996 0.9073 0.0
C1368 C 0.38336 0.22579 0.82576 0.0
C1369 C 0.34917 0.22018 0.80668 0.0
C1370 C 0.32624 0.18716 0.80962 0.0
C1371 C 0.33682 0.16063 0.83053 0.0
C1372 C 0.37066 0.16704 0.84867 0.0
C1373 C 0.39355 0.19892 0.8468 0.0
C1374 C 0.42877 0.19894 0.86787 0.0
C1375 C 0.45541 0.21445 0.83925 0.0
C1376 C 0.43925 0.21692 0.90396 0.0
C1377 C 0.42258 0.16205 0.88074 0.0
C1378 C 0.38871 0.14422 0.86954 0.0
C1379 C 0.37689 0.1098 0.87649 0.0
C1380 C 0.39995 0.09322 0.89452 0.0
C1381 C 0.43501 0.11048 0.90614 0.0
C1382 C 0.4462 0.14568 0.89957 0.0
H1383 H 0.85997 0.36183 0.80274 0.0
H1384 H 0.83385 0.27392 0.89066 0.0
H1385 H 0.87294 0.30566 0.94184 0.0
H1386 H 0.94687 0.39269 0.83816 0.0
H1387 H 0.9509 0.43562 0.82905 0.0
H1388 H 0.9184 0.40721 0.79956 0.0
H1389 H 0.87202 0.42347 0.81764 0.0
H1390 H 0.90416 0.45236 0.84706 0.0
H1391 H 0.86882 0.42089 0.86886 0.0
H1392 H 0.91788 0.34515 0.98247 0.0
H1393 H 0.96619 0.38986 0.01018 0.0
H1394 H 0.96327 0.45382 0.89753 0.0
C1395 C 0.86199 0.3494 0.8329 0.0
C1396 C 0.84385 0.31519 0.84254 0.0
C1397 C 0.84761 0.29991 0.88234 0.0
C1398 C 0.86965 0.31782 0.91174 0.0
C1399 C 0.88756 0.35125 0.90117 0.0
C1400 C 0.88386 0.36704 0.8628 0.0
C1401 C 0.90747 0.40289 0.85922 0.0
C1402 C 0.93242 0.41001 0.82977 0.0
C1403 C 0.88688 0.42629 0.8475 0.0
C1404 C 0.92574 0.40448 0.9013 0.0
C1405 C 0.91349 0.3744 0.92497 0.0
C1406 C 0.92739 0.3689 0.96434 0.0
C1407 C 0.95491 0.39448 0.9798 0.0
C1408 C 0.96839 0.42546 0.95619 0.0
C1409 C 0.9531 0.43067 0.91654 0.0
H1410 H 0.71287 0.87169 0.88073 0.0
H1411 H 0.78416 0.87779 0.99005 0.0
H1412 H 0.75624 0.90772 0.01303 0.0
H1413 H 0.69827 0.94757 0.87257 0.0
H1414 H 0.65296 0.93057 0.85793 0.0
H1415 H 0.68075 0.91262 0.84638 0.0
H1416 H 0.64663 0.85553 0.88214 0.0
H1417 H 0.61854 0.87323 0.89344 0.0
H1418 H 0.64039 0.85154 0.93261 0.0
H1419 H 0.72113 0.93711 0.02622 0.0
H1420 H 0.67664 0.95877 0.03056 0.0
H1421 H 0.62155 0.92564 0.91987 0.0
C1422 C 0.72274 0.87879 0.90969 0.0
C1423 C 0.75257 0.87338 0.93197 0.0
C1424 C 0.76331 0.88313 0.97022 0.0
C1425 C 0.747 0.89973 0.98441 0.0
C1426 C 0.71842 0.90501 0.96152 0.0
C1427 C 0.70568 0.89408 0.92549 0.0
C1428 C 0.67275 0.90079 0.90847 0.0
C1429 C 0.67642 0.92429 0.86899 0.0
C1430 C 0.6428 0.86834 0.90391 0.0
C1431 C 0.66936 0.91731 0.94057 0.0
C1432 C 0.69643 0.91999 0.97054 0.0
C1433 C 0.69971 0.93507 0.00299 0.0
C1434 C 0.67443 0.94747 0.00513 0.0
C1435 C 0.64576 0.94394 0.97558 0.0
C1436 C 0.64324 0.92864 0.94288 0.0
H1437 H 0.85988 0.69912 0.03432 0.0
H1438 H 0.8981 0.69489 0.15996 0.0
H1439 H 0.92052 0.65238 0.15624 0.0
H1440 H 0.84025 0.61392 0.02437 0.0
H1441 H 0.85728 0.62418 0.97838 0.0
H1442 H 0.83983 0.65127 0.99145 0.0
H1443 H 0.89812 0.70101 0.9856 0.0
H1444 H 0.91215 0.67311 0.96868 0.0
H1445 H 0.93673 0.69418 0.00966 0.0
H1446 H 0.94362 0.61387 0.13884 0.0
H1447 H 0.96912 0.58535 0.10738 0.0
H1448 H 0.91977 0.61636 0.99275 0.0
C1449 C 0.8729 0.68949 0.06126 0.0
C1450 C 0.87613 0.70041 0.09772 0.0
C1451 C 0.89361 0.68652 0.13185 0.0
C1452 C 0.90689 0.66234 0.13006 0.0
C1453 C 0.90322 0.65238 0.09382 0.0
C1454 C 0.88715 0.66586 0.05988 0.0
C1455 C 0.89002 0.65344 0.02393 0.0
C1456 C 0.85474 0.63458 0.00332 0.0
C1457 C 0.91045 0.6821 0.99522 0.0
C1458 C 0.90982 0.63059 0.04309 0.0
C1459 C 0.91706 0.6303 0.08352 0.0
C1460 C 0.93759 0.61342 0.10735 0.0
C1461 C 0.95183 0.59719 0.08931 0.0
C1462 C 0.94539 0.59779 0.04797 0.0
C1463 C 0.92378 0.61432 0.02461 0.0
H1464 H 0.39854 0.84355 0.23948 0.0
H1465 H 0.31747 0.80698 0.14605 0.0
H1466 H 0.35071 0.84986 0.09668 0.0
H1467 H 0.42582 0.93095 0.19875 0.0
H1468 H 0.47023 0.93678 0.21491 0.0
H1469 H 0.43833 0.90555 0.24231 0.0
H1470 H 0.46212 0.86132 0.23498 0.0
H1471 H 0.49394 0.89245 0.20756 0.0
H1472 H 0.46558 0.85644 0.18637 0.0
H1473 H 0.39352 0.89817 0.05802 0.0
H1474 H 0.4449 0.94014 0.03225 0.0
H1475 H 0.49979 0.9406 0.15104 0.0
C1476 C 0.38752 0.84503 0.20866 0.0
C1477 C 0.35478 0.82312 0.19661 0.0
C1478 C 0.34186 0.82458 0.15592 0.0
C1479 C 0.36068 0.8487 0.12778 0.0
C1480 C 0.39258 0.87067 0.14087 0.0
C1481 C 0.40608 0.86854 0.18036 0.0
C1482 C 0.44208 0.89279 0.18671 0.0
C1483 C 0.44423 0.91801 0.21218 0.0
C1484 C 0.46742 0.87466 0.20497 0.0
C1485 C 0.44704 0.90891 0.14457 0.0
C1486 C 0.41791 0.89646 0.11861 0.0
C1487 C 0.41641 0.90794 0.07814 0.0
C1488 C 0.44563 0.93199 0.0638 0.0
C1489 C 0.47623 0.94373 0.0897 0.0
C1490 C 0.4767 0.93219 0.13063 0.0
H1491 H 0.67497 0.23347 0.14726 0.0
H1492 H 0.75975 0.19839 0.16408 0.0
H1493 H 0.72533 0.15536 0.12286 0.0
H1494 H 0.60939 0.1551 0.15187 0.0
H1495 H 0.57947 0.16826 0.11412 0.0
H1496 H 0.61132 0.19741 0.14334 0.0
H1497 H 0.63248 0.23549 0.07959 0.0
H1498 H 0.60065 0.20645 0.05015 0.0
H1499 H 0.64491 0.21922 0.04446 0.0
H1500 H 0.68003 0.11293 0.08453 0.0
H1501 H 0.6285 0.07674 0.0482 0.0
H1502 H 0.57367 0.1406 0.05286 0.0
C1503 C 0.68638 0.21688 0.14214 0.0
C1504 C 0.72013 0.21935 0.15923 0.0
C1505 C 0.73408 0.19723 0.15131 0.0
C1506 C 0.71465 0.17257 0.12796 0.0
C1507 C 0.68134 0.17048 0.11211 0.0
C1508 C 0.66742 0.1923 0.11843 0.0
C1509 C 0.63083 0.1844 0.09829 0.0
C1510 C 0.60631 0.17578 0.12872 0.0
C1511 C 0.627 0.2131 0.06622 0.0
C1512 C 0.62617 0.1544 0.08024 0.0
C1513 C 0.65561 0.14673 0.08874 0.0
C1514 C 0.657 0.11899 0.07725 0.0
C1515 C 0.62758 0.0985 0.05672 0.0
C1516 C 0.59718 0.10598 0.0473 0.0
C1517 C 0.59671 0.13457 0.05895 0.0
H1518 H 0.68563 0.71962 0.81405 0.0
H1519 H 0.71962 0.64757 0.78435 0.0
H1520 H 0.67326 0.60261 0.81557 0.0
H1521 H 0.66572 0.67824 0.9079 0.0
H1522 H 0.62855 0.68914 0.90479 0.0
H1523 H 0.6625 0.7156 0.87713 0.0
H1524 H 0.61982 0.71175 0.81246 0.0
H1525 H 0.58566 0.68519 0.83994 0.0
H1526 H 0.59382 0.67181 0.79903 0.0
H1527 H 0.62716 0.56594 0.85495 0.0
H1528 H 0.5833 0.53965 0.89944 0.0
H1529 H 0.57775 0.63485 0.90254 0.0
C1530 C 0.68311 0.69438 0.81371 0.0
C1531 C 0.7062 0.68708 0.79667 0.0
C1532 C 0.70209 0.65375 0.79696 0.0
C1533 C 0.67582 0.62805 0.81458 0.0
C1534 C 0.6537 0.63611 0.8314 0.0
C1535 C 0.65688 0.66843 0.83092 0.0
C1536 C 0.63063 0.67036 0.85266 0.0
C1537 C 0.64789 0.68946 0.88769 0.0
C1538 C 0.60602 0.68568 0.82433 0.0
C1539 C 0.61282 0.63406 0.86653 0.0
C1540 C 0.62647 0.61479 0.85364 0.0
C1541 C 0.61596 0.58073 0.86471 0.0
C1542 C 0.59124 0.56603 0.89009 0.0
C1543 C 0.57723 0.58522 0.90407 0.0
C1544 C 0.58763 0.61961 0.89154 0.0
H1545 H 0.37107 0.68711 0.95589 0.0
H1546 H 0.2913 0.5932 0.9824 0.0
H1547 H 0.33002 0.57549 0.03453 0.0
H1548 H 0.42145 0.66477 0.94 0.0
H1549 H 0.46228 0.68834 0.96414 0.0
H1550 H 0.42837 0.70435 0.95314 0.0
H1551 H 0.43415 0.70968 0.02643 0.0
H1552 H 0.46867 0.69366 0.0378 0.0
H1553 H 0.43245 0.67446 0.06419 0.0
H1554 H 0.37414 0.55465 0.04609 0.0
H1555 H 0.41666 0.53898 0.02585 0.0
H1556 H 0.47548 0.64155 0.9929 0.0
C1557 C 0.36174 0.66318 0.97361 0.0
C1558 C 0.32856 0.64115 0.9633 0.0
C1559 C 0.31651 0.61089 0.98861 0.0
C1560 C 0.33871 0.60041 0.01886 0.0
C1561 C 0.37309 0.61987 0.02292 0.0
C1562 C 0.38452 0.65169 0.00241 0.0
C1563 C 0.42292 0.66392 0.00343 0.0
C1564 C 0.43432 0.68124 0.96274 0.0
C1565 C 0.44057 0.68676 0.03483 0.0
C1566 C 0.42915 0.63149 0.01685 0.0
C1567 C 0.4008 0.60708 0.03133 0.0
C1568 C 0.39689 0.57374 0.03653 0.0
C1569 C 0.4208 0.56492 0.02422 0.0
C1570 C 0.44885 0.58932 0.00782 0.0
C1571 C 0.45425 0.62288 0.00621 0.0
H1572 H 0.39948 0.36537 0.77359 0.0
H1573 H 0.31109 0.34457 0.82995 0.0
H1574 H 0.34468 0.38642 0.87301 0.0
H1575 H 0.45581 0.36981 0.85681 0.0
H1576 H 0.49119 0.40268 0.83677 0.0
H1577 H 0.45882 0.37651 0.80484 0.0
H1578 H 0.44784 0.42735 0.75997 0.0
H1579 H 0.48071 0.45394 0.79139 0.0
H1580 H 0.43847 0.45611 0.78131 0.0
H1581 H 0.38971 0.42399 0.91617 0.0
H1582 H 0.4428 0.45509 0.95543 0.0
H1583 H 0.50131 0.45047 0.87048 0.0
C1584 C 0.38691 0.37068 0.7937 0.0
C1585 C 0.35285 0.35208 0.79838 0.0
C1586 C 0.33737 0.35861 0.82622 0.0
C1587 C 0.35613 0.38249 0.85053 0.0
C1588 C 0.39022 0.39961 0.84634 0.0
C1589 C 0.40539 0.39423 0.81834 0.0
C1590 C 0.44325 0.41274 0.82299 0.0
C1591 C 0.46342 0.38901 0.83084 0.0
C1592 C 0.45314 0.43911 0.78676 0.0
C1593 C 0.44717 0.42817 0.85899 0.0
C1594 C 0.4163 0.42088 0.87166 0.0
C1595 C 0.41401 0.43049 0.90612 0.0
C1596 C 0.44422 0.44799 0.92828 0.0
C1597 C 0.47607 0.45511 0.91599 0.0
C1598 C 0.47733 0.44541 0.88065 0.0
H1599 H 0.6657 0.40529 0.76649 0.0
H1600 H 0.77203 0.44657 0.81356 0.0
H1601 H 0.75695 0.47597 0.85629 0.0
H1602 H 0.64234 0.47479 0.76274 0.0
H1603 H 0.60118 0.4509 0.77787 0.0
H1604 H 0.62077 0.43328 0.75194 0.0
H1605 H 0.61589 0.38392 0.80904 0.0
H1606 H 0.59568 0.40115 0.83465 0.0
H1607 H 0.63326 0.39191 0.85883 0.0
H1608 H 0.72857 0.50254 0.89225 0.0
H1609 H 0.68984 0.51828 0.92194 0.0
H1610 H 0.60333 0.45709 0.85085 0.0
C1611 C 0.68572 0.42044 0.78597 0.0
C1612 C 0.7199 0.42395 0.78693 0.0
C1613 C 0.74563 0.44373 0.81272 0.0
C1614 C 0.73729 0.46053 0.83685 0.0
C1615 C 0.70314 0.45696 0.8348 0.0
C1616 C 0.67782 0.43696 0.81031 0.0
C1617 C 0.64303 0.43624 0.81391 0.0
C1618 C 0.62584 0.44961 0.77426 0.0
C1619 C 0.62066 0.40124 0.83008 0.0
C1620 C 0.65254 0.45941 0.84368 0.0
C1621 C 0.68722 0.47132 0.85556 0.0
C1622 C 0.70135 0.49312 0.88321 0.0
C1623 C 0.67924 0.50199 0.89988 0.0
C1624 C 0.64355 0.48864 0.88919 0.0
C1625 C 0.63045 0.46785 0.85991 0.0
H1626 H 0.73349 0.35426 0.03148 0.0
H1627 H 0.80585 0.45298 0.04005 0.0
H1628 H 0.76959 0.47563 0.98957 0.0
H1629 H 0.6881 0.38466 0.91753 0.0
H1630 H 0.64825 0.35488 0.93096 0.0
H1631 H 0.68658 0.34467 0.94469 0.0
H1632 H 0.67502 0.32943 0.01724 0.0
H1633 H 0.63777 0.34068 0.00413 0.0
H1634 H 0.67123 0.36005 0.0411 0.0
H1635 H 0.71977 0.48589 0.99021 0.0
H1636 H 0.66499 0.48466 1.0016 0.0
H1637 H 0.61734 0.38484 0.97645 0.0
C1638 C 0.74225 0.3805 0.02106 0.0
C1639 C 0.77132 0.40181 0.04186 0.0
C1640 C 0.78332 0.43572 0.02601 0.0
C1641 C 0.76258 0.44909 0.99692 0.0
C1642 C 0.73034 0.42825 0.98358 0.0
C1643 C 0.72107 0.39422 0.99221 0.0
C1644 C 0.68292 0.37799 0.98023 0.0
C1645 C 0.67607 0.36479 0.94102 0.0
C1646 C 0.66579 0.35049 0.01266 0.0
C1647 C 0.67164 0.40756 0.9742 0.0
C1648 C 0.69969 0.4364 0.97558 0.0
C1649 C 0.69738 0.46454 0.98483 0.0
C1650 C 0.66605 0.46367 0.99137 0.0
C1651 C 0.63662 0.43578 0.986 0.0
C1652 C 0.63925 0.40732 0.97717 0.0
H1653 H 0.67455 0.70049 0.18895 0.0
H1654 H 0.75153 0.65512 0.23242 0.0
H1655 H 0.71922 0.61036 0.19235 0.0
H1656 H 0.59944 0.62366 0.17741 0.0
H1657 H 0.58123 0.64275 0.13205 0.0
H1658 H 0.60668 0.66728 0.16977 0.0
H1659 H 0.64722 0.70683 0.11919 0.0
H1660 H 0.62012 0.68257 0.08208 0.0
H1661 H 0.66489 0.68882 0.09104 0.0
H1662 H 0.68058 0.57326 0.14339 0.0
H1663 H 0.63936 0.54748 0.08854 0.0
H1664 H 0.59397 0.62321 0.07115 0.0
C1665 C 0.6837 0.68032 0.19112 0.0
C1666 C 0.71472 0.68032 0.21426 0.0
C1667 C 0.72725 0.65475 0.21524 0.0
C1668 C 0.70916 0.62941 0.19262 0.0
C1669 C 0.67909 0.63062 0.16882 0.0
C1670 C 0.66652 0.65551 0.16783 0.0
C1671 C 0.63604 0.6535 0.13642 0.0
C1672 C 0.60395 0.64636 0.15504 0.0
C1673 C 0.64251 0.68484 0.1054 0.0
C1674 C 0.63412 0.62431 0.11914 0.0
C1675 C 0.65847 0.61083 0.13879 0.0
C1676 C 0.66127 0.58352 0.1279 0.0
C1677 C 0.63799 0.56924 0.09657 0.0
C1678 C 0.61306 0.583 0.07597 0.0
C1679 C 0.61197 0.61144 0.08687 0.0
H1680 H 0.37087 0.5876 0.21156 0.0
H1681 H 0.42752 0.69284 0.20108 0.0
H1682 H 0.46395 0.6867 0.15929 0.0
H1683 H 0.44156 0.56162 0.21897 0.0
H1684 H 0.41925 0.52884 0.18987 0.0
H1685 H 0.39614 0.54148 0.21725 0.0
H1686 H 0.35655 0.55152 0.15328 0.0
H1687 H 0.37969 0.53971 0.12497 0.0
H1688 H 0.37441 0.57944 0.11133 0.0
H1689 H 0.49664 0.66926 0.12311 0.0
H1690 H 0.52255 0.64206 0.09117 0.0
H1691 H 0.4449 0.54755 0.12288 0.0
C1692 C 0.39092 0.60936 0.20042 0.0
C1693 C 0.39623 0.64079 0.20957 0.0
C1694 C 0.42257 0.66864 0.19407 0.0
C1695 C 0.44354 0.66537 0.17046 0.0
C1696 C 0.43782 0.6341 0.16236 0.0
C1697 C 0.41207 0.60657 0.17655 0.0
C1698 C 0.41188 0.57577 0.16367 0.0
C1699 C 0.41755 0.55044 0.19959 0.0
C1700 C 0.37867 0.56072 0.13669 0.0
C1701 C 0.44218 0.59025 0.14095 0.0
C1702 C 0.45659 0.62397 0.14063 0.0
C1703 C 0.48552 0.6429 0.12301 0.0
C1704 C 0.50023 0.62707 0.10522 0.0
C1705 C 0.48602 0.59254 0.10484 0.0
C1706 C 0.45639 0.57392 0.12278 0.0
H1707 H 0.39075 0.36245 0.2109 0.0
H1708 H 0.31801 0.30443 0.12468 0.0
H1709 H 0.35644 0.33308 0.07483 0.0
H1710 H 0.41694 0.43971 0.13876 0.0
H1711 H 0.46051 0.45204 0.16232 0.0
H1712 H 0.42659 0.42805 0.19117 0.0
H1713 H 0.45559 0.38419 0.21713 0.0
H1714 H 0.48945 0.40779 0.18808 0.0
H1715 H 0.46534 0.36539 0.18236 0.0
H1716 H 0.40407 0.36362 0.03618 0.0
H1717 H 0.45707 0.39828 0.00869 0.0
H1718 H 0.49787 0.44075 0.11695 0.0
C1719 C 0.38258 0.35629 0.18137 0.0
C1720 C 0.35117 0.33129 0.1718 0.0
C1721 C 0.34178 0.32357 0.13285 0.0
C1722 C 0.36345 0.33972 0.10421 0.0
C1723 C 0.39421 0.36405 0.11464 0.0
C1724 C 0.4036 0.37284 0.15198 0.0
C1725 C 0.43829 0.39989 0.15518 0.0
C1726 C 0.4354 0.43181 0.16227 0.0
C1727 C 0.46366 0.38862 0.18761 0.0
C1728 C 0.44742 0.40384 0.11429 0.0
C1729 C 0.42148 0.38287 0.09149 0.0
C1730 C 0.42439 0.38049 0.05348 0.0
C1731 C 0.45462 0.40009 0.03824 0.0
C1732 C 0.48138 0.42209 0.06074 0.0
C1733 C 0.47759 0.42431 0.09909 0.0
H1734 H 0.84627 0.64153 0.62874 0.0
H1735 H 0.77641 0.63809 0.5188 0.0
H1736 H 0.81052 0.61659 0.49079 0.0
H1737 H 0.92289 0.67109 0.57954 0.0
H1738 H 0.94435 0.64828 0.61767 0.0
H1739 H 0.91401 0.66292 0.62963 0.0
H1740 H 0.88026 0.60336 0.65957 0.0
H1741 H 0.91027 0.58848 0.64738 0.0
H1742 H 0.86558 0.57088 0.62971 0.0
H1743 H 0.8498 0.59089 0.47608 0.0
H1744 H 0.89479 0.56912 0.47404 0.0
H1745 H 0.94362 0.59719 0.58891 0.0
C1746 C 0.83827 0.63705 0.59848 0.0
C1747 C 0.80771 0.64094 0.57675 0.0
C1748 C 0.79867 0.63425 0.53717 0.0
C1749 C 0.81819 0.62236 0.52056 0.0
C1750 C 0.84757 0.61824 0.5431 0.0
C1751 C 0.85803 0.6261 0.58088 0.0
C1752 C 0.89111 0.62008 0.59849 0.0
C1753 C 0.91979 0.65253 0.60682 0.0
C1754 C 0.88651 0.59416 0.636 0.0
C1755 C 0.89716 0.60697 0.56503 0.0
C1756 C 0.87157 0.60579 0.53346 0.0
C1757 C 0.8704 0.59242 0.5003 0.0
C1758 C 0.89619 0.58019 0.49931 0.0
C1759 C 0.92346 0.58233 0.53066 0.0
C1760 C 0.92368 0.5959 0.56393 0.0
H1761 H 0.35396 0.85818 0.71131 0.0
H1762 H 0.34619 0.77866 0.65237 0.0
H1763 H 0.39495 0.81592 0.6174 0.0
H1764 H 0.36698 0.91827 0.62835 0.0
H1765 H 0.39582 0.95164 0.65397 0.0
H1766 H 0.36519 0.91739 0.67958 0.0
H1767 H 0.41233 0.90635 0.73332 0.0
H1768 H 0.44343 0.94105 0.7086 0.0
H1769 H 0.44791 0.90105 0.71903 0.0
H1770 H 0.44392 0.86395 0.5865 0.0
H1771 H 0.48228 0.91781 0.55739 0.0
H1772 H 0.45327 0.9669 0.63169 0.0
C1773 C 0.36324 0.84841 0.69189 0.0
C1774 C 0.34736 0.8151 0.68588 0.0
C1775 C 0.35889 0.80371 0.65855 0.0
C1776 C 0.38653 0.82478 0.63853 0.0
C1777 C 0.40183 0.85756 0.64527 0.0
C1778 C 0.39028 0.86931 0.67111 0.0
C1779 C 0.40821 0.90627 0.66992 0.0
C1780 C 0.38252 0.9245 0.65709 0.0
C1781 C 0.42921 0.91413 0.71011 0.0
C1782 C 0.43111 0.91381 0.63872 0.0
C1783 C 0.42779 0.88532 0.62554 0.0
C1784 C 0.44646 0.88634 0.59661 0.0
C1785 C 0.46822 0.91717 0.58009 0.0
C1786 C 0.4706 0.94694 0.59152 0.0
C1787 C 0.45212 0.94483 0.62193 0.0
H1788 H 0.18529 0.2877 0.67403 0.0
H1789 H 0.28838 0.35588 0.69555 0.0
H1790 H 0.26946 0.40193 0.65853 0.0
H1791 H 0.1622 0.32936 0.57428 0.0
H1792 H 0.11919 0.3211 0.58196 0.0
H1793 H 0.14125 0.29318 0.60719 0.0
H1794 H 0.13009 0.29972 0.67426 0.0
H1795 H 0.10812 0.32774 0.64933 0.0
H1796 H 0.14363 0.34039 0.68745 0.0
H1797 H 0.23841 0.44148 0.6214 0.0
H1798 H 0.19947 0.47126 0.58901 0.0
H1799 H 0.11421 0.37881 0.59159 0.0
C1800 C 0.20406 0.31228 0.67039 0.0
C1801 C 0.23885 0.31768 0.68704 0.0
C1802 C 0.26205 0.35054 0.68232 0.0
C1803 C 0.25132 0.37702 0.66146 0.0
C1804 C 0.21697 0.37077 0.64558 0.0
C1805 C 0.19363 0.33913 0.64979 0.0
C1806 C 0.1579 0.33939 0.63124 0.0
C1807 C 0.14433 0.31957 0.59661 0.0
C1808 C 0.13349 0.32601 0.66243 0.0
C1809 C 0.1645 0.37618 0.61654 0.0
C1810 C 0.19891 0.39364 0.62493 0.0
C1811 C 0.21152 0.42786 0.61486 0.0
C1812 C 0.18881 0.44469 0.59633 0.0
C1813 C 0.15314 0.42795 0.58749 0.0
C1814 C 0.14105 0.39281 0.59765 0.0
H1815 H 0.68197 0.1946 0.6722 0.0
H1816 H 0.78161 0.20484 0.64986 0.0
H1817 H 0.75482 0.16325 0.60469 0.0
H1818 H 0.64828 0.10837 0.67852 0.0
H1819 H 0.60581 0.10599 0.65547 0.0
H1820 H 0.63214 0.14001 0.6812 0.0
H1821 H 0.62441 0.18134 0.61837 0.0
H1822 H 0.59781 0.1474 0.59246 0.0
H1823 H 0.6348 0.17771 0.5726 0.0
H1824 H 0.71817 0.11768 0.56684 0.0
H1825 H 0.67452 0.06987 0.53974 0.0
H1826 H 0.5974 0.08608 0.5882 0.0
C1827 C 0.69798 0.18852 0.65706 0.0
C1828 C 0.73384 0.20324 0.66384 0.0
C1829 C 0.75409 0.19425 0.64431 0.0
C1830 C 0.73908 0.17062 0.61873 0.0
C1831 C 0.70369 0.15594 0.61324 0.0
C1832 C 0.68331 0.16449 0.63178 0.0
C1833 C 0.64619 0.14278 0.6234 0.0
C1834 C 0.6323 0.12313 0.66194 0.0
C1835 C 0.62452 0.16355 0.60033 0.0
C1836 C 0.649 0.12024 0.59796 0.0
C1837 C 0.68242 0.12868 0.59215 0.0
C1838 C 0.6919 0.11097 0.57101 0.0
C1839 C 0.6668 0.08365 0.55584 0.0
C1840 C 0.63235 0.07387 0.56185 0.0
C1841 C 0.62337 0.0929 0.58278 0.0
H1842 H 0.83084 0.37472 0.30554 0.0
H1843 H 0.85593 0.29236 0.37849 0.0
H1844 H 0.89834 0.33009 0.42215 0.0
H1845 H 0.9145 0.43469 0.31388 0.0
H1846 H 0.90072 0.46809 0.31595 0.0
H1847 H 0.87283 0.43455 0.2902 0.0
H1848 H 0.8266 0.42482 0.33252 0.0
H1849 H 0.85403 0.45742 0.35987 0.0
H1850 H 0.8353 0.4164 0.38564 0.0
H1851 H 0.94019 0.37777 0.45594 0.0
H1852 H 0.97504 0.43046 0.48031 0.0
H1853 H 0.91862 0.48146 0.38974 0.0
C1854 C 0.84454 0.3644 0.33124 0.0
C1855 C 0.83998 0.33031 0.33846 0.0
C1856 C 0.8595 0.31827 0.3717 0.0
C1857 C 0.88343 0.33959 0.39692 0.0
C1858 C 0.88738 0.37304 0.3888 0.0
C1859 C 0.8682 0.38534 0.35697 0.0
C1860 C 0.8774 0.42233 0.35474 0.0
C1861 C 0.89225 0.44101 0.31642 0.0
C1862 C 0.84648 0.43072 0.35846 0.0
C1863 C 0.90444 0.4289 0.39066 0.0
C1864 C 0.91022 0.40018 0.40944 0.0
C1865 C 0.93549 0.40026 0.44178 0.0
C1866 C 0.95524 0.43034 0.45535 0.0
C1867 C 0.94922 0.45995 0.43734 0.0
C1868 C 0.9233 0.45909 0.40463 0.0
H1869 H 0.65873 0.79746 0.46524 0.0
H1870 H 0.75061 0.86647 0.42023 0.0
H1871 H 0.73872 0.9128 0.43607 0.0
H1872 H 0.60819 0.84487 0.42295 0.0
H1873 H 0.5835 0.83363 0.46304 0.0
H1874 H 0.60236 0.80584 0.45487 0.0
H1875 H 0.6327 0.80486 0.52679 0.0
H1876 H 0.61463 0.83324 0.53536 0.0
H1877 H 0.6601 0.84295 0.54421 0.0
H1878 H 0.71491 0.95194 0.45386 0.0
H1879 H 0.67753 0.9807 0.46262 0.0
H1880 H 0.59871 0.88638 0.48954 0.0
C1881 C 0.67665 0.8223 0.45953 0.0
C1882 C 0.70576 0.82849 0.4419 0.0
C1883 C 0.72825 0.86132 0.43386 0.0
C1884 C 0.72182 0.88769 0.44307 0.0
C1885 C 0.69261 0.88085 0.46 0.0
C1886 C 0.67022 0.84893 0.4678 0.0
C1887 C 0.63865 0.84851 0.48155 0.0
C1888 C 0.60628 0.83227 0.45394 0.0
C1889 C 0.63642 0.83138 0.52455 0.0
C1890 C 0.64599 0.88515 0.47846 0.0
C1891 C 0.67782 0.9034 0.46753 0.0
C1892 C 0.68999 0.93785 0.46248 0.0
C1893 C 0.66868 0.95399 0.46758 0.0
C1894 C 0.63528 0.93568 0.47636 0.0
C1895 C 0.62412 0.90088 0.48256 0.0
H1896 H 0.17646 0.68726 0.26619 0.0
H1897 H 0.25381 0.73301 0.35792 0.0
H1898 H 0.22149 0.69162 0.40891 0.0
H1899 H 0.10485 0.66696 0.31596 0.0
H1900 H 0.08201 0.62781 0.29892 0.0
H1901 H 0.11113 0.66046 0.26942 0.0
H1902 H 0.14644 0.62289 0.26957 0.0
H1903 H 0.11427 0.59039 0.29529 0.0
H1904 H 0.15826 0.6001 0.31608 0.0
H1905 H 0.1778 0.64774 0.44971 0.0
H1906 H 0.13223 0.59902 0.47735 0.0
H1907 H 0.08635 0.57784 0.35932 0.0
C1908 C 0.18679 0.68813 0.29706 0.0
C1909 C 0.2179 0.71292 0.30826 0.0
C1910 C 0.23041 0.7138 0.34883 0.0
C1911 C 0.21203 0.69058 0.3779 0.0
C1912 C 0.18131 0.66649 0.36589 0.0
C1913 C 0.1692 0.66461 0.32638 0.0
C1914 C 0.13582 0.63597 0.32129 0.0
C1915 C 0.10674 0.64857 0.30015 0.0
C1916 C 0.13896 0.61091 0.29923 0.0
C1917 C 0.13127 0.62161 0.36411 0.0
C1918 C 0.15728 0.64019 0.38933 0.0
C1919 C 0.15766 0.63282 0.43017 0.0
C1920 C 0.13152 0.60523 0.44565 0.0
C1921 C 0.10582 0.58464 0.42057 0.0
C1922 C 0.10566 0.59315 0.3792 0.0
H1923 H 0.39532 0.23865 0.28796 0.0
H1924 H 0.3009 0.19531 0.33787 0.0
H1925 H 0.32396 0.15611 0.38521 0.0
H1926 H 0.41078 0.16477 0.29315 0.0
H1927 H 0.45624 0.18111 0.30708 0.0
H1928 H 0.43385 0.20802 0.27944 0.0
H1929 H 0.45814 0.24595 0.33322 0.0
H1930 H 0.48087 0.21928 0.36099 0.0
H1931 H 0.45213 0.22864 0.38383 0.0
H1932 H 0.35444 0.11678 0.42183 0.0
H1933 H 0.39093 0.08304 0.4481 0.0
H1934 H 0.46915 0.15228 0.37981 0.0
C1935 C 0.37991 0.22154 0.30969 0.0
C1936 C 0.34639 0.22117 0.30984 0.0
C1937 C 0.32688 0.19737 0.33799 0.0
C1938 C 0.33978 0.1746 0.36481 0.0
C1939 C 0.37265 0.17554 0.36376 0.0
C1940 C 0.39274 0.19872 0.33731 0.0
C1941 C 0.42693 0.19354 0.34191 0.0
C1942 C 0.43226 0.18644 0.30308 0.0
C1943 C 0.45627 0.22365 0.35581 0.0
C1944 C 0.42252 0.16321 0.37407 0.0
C1945 C 0.39085 0.15338 0.38608 0.0
C1946 C 0.37952 0.1248 0.41318 0.0
C1947 C 0.40064 0.10573 0.42817 0.0
C1948 C 0.43354 0.11513 0.4173 0.0
C1949 C 0.44468 0.14469 0.38988 0.0
H1950 H 0.77427 0.86536 0.66915 0.0
H1951 H 0.69752 0.77369 0.70978 0.0
H1952 H 0.65232 0.79555 0.67317 0.0
H1953 H 0.73321 0.9178 0.68065 0.0
H1954 H 0.74571 0.9476 0.63755 0.0
H1955 H 0.77169 0.92325 0.66232 0.0
H1956 H 0.76744 0.90251 0.59698 0.0
H1957 H 0.74156 0.92699 0.57187 0.0
H1958 H 0.72612 0.88328 0.57043 0.0
H1959 H 0.61463 0.82929 0.63235 0.0
H1960 H 0.58944 0.87174 0.59771 0.0
H1961 H 0.69067 0.94335 0.5882 0.0
C1962 C 0.74791 0.84956 0.66952 0.0
C1963 C 0.73968 0.81704 0.69115 0.0
C1964 C 0.70474 0.79799 0.69223 0.0
C1965 C 0.6788 0.81041 0.67164 0.0
C1966 C 0.68781 0.84246 0.65044 0.0
C1967 C 0.72167 0.86181 0.64945 0.0
C1968 C 0.72475 0.89625 0.62697 0.0
C1969 C 0.74504 0.92279 0.65346 0.0
C1970 C 0.74093 0.90264 0.58934 0.0
C1971 C 0.68751 0.89381 0.61665 0.0
C1972 C 0.6665 0.8623 0.62951 0.0
C1973 C 0.63107 0.85402 0.62255 0.0
C1974 C 0.61687 0.87841 0.6027 0.0
C1975 C 0.63779 0.91131 0.59052 0.0
C1976 C 0.67372 0.91873 0.59751 0.0
H1977 H 0.7262 0.21931 0.3744 0.0
H1978 H 0.69522 0.1993 0.25387 0.0
H1979 H 0.64587 0.15168 0.27432 0.0
H1980 H 0.70781 0.138 0.41975 0.0
H1981 H 0.69154 0.14162 0.4615 0.0
H1982 H 0.72167 0.17722 0.43689 0.0
H1983 H 0.67977 0.20917 0.42507 0.0
H1984 H 0.64964 0.17368 0.45013 0.0
H1985 H 0.63711 0.19151 0.40068 0.0
H1986 H 0.6053 0.10162 0.30868 0.0
H1987 H 0.57421 0.05393 0.35441 0.0
H1988 H 0.62833 0.10565 0.45352 0.0
C1989 C 0.70825 0.20555 0.3522 0.0
C1990 C 0.71394 0.21391 0.31218 0.0
C1991 C 0.69076 0.19436 0.2843 0.0
C1992 C 0.66271 0.16699 0.29575 0.0
C1993 C 0.65793 0.15919 0.33537 0.0
C1994 C 0.67977 0.17807 0.36321 0.0
C1995 C 0.66999 0.16273 0.40432 0.0
C1996 C 0.69951 0.1544 0.43225 0.0
C1997 C 0.65844 0.18564 0.42105 0.0
C1998 C 0.64027 0.13159 0.39541 0.0
C1999 C 0.63369 0.13028 0.35532 0.0
C2000 C 0.60964 0.10275 0.33999 0.0
C2001 C 0.59211 0.07573 0.36617 0.0
C2002 C 0.59822 0.07636 0.40733 0.0
C2003 C 0.62231 0.10494 0.42205 0.0
H2004 H 0.81384 0.68168 0.3068 0.0
H2005 H 0.88415 0.77389 0.34304 0.0
H2006 H 0.92155 0.745 0.38442 0.0
H2007 H 0.82917 0.6267 0.40386 0.0
H2008 H 0.82595 0.5942 0.37835 0.0
H2009 H 0.80253 0.6217 0.35678 0.0
H2010 H 0.8312 0.6347 0.29358 0.0
H2011 H 0.85558 0.60837 0.31649 0.0
H2012 H 0.87701 0.65097 0.29758 0.0
H2013 H 0.95449 0.70704 0.41919 0.0
H2014 H 0.97941 0.66315 0.44456 0.0
H2015 H 0.89062 0.59393 0.38583 0.0
C2016 C 0.83647 0.69551 0.3246 0.0
C2017 C 0.84513 0.73032 0.32247 0.0
C2018 C 0.87615 0.74736 0.34478 0.0
C2019 C 0.89783 0.73106 0.36839 0.0
C2020 C 0.88906 0.69717 0.36948 0.0
C2021 C 0.85901 0.6794 0.34839 0.0
C2022 C 0.8572 0.64345 0.35311 0.0
C2023 C 0.82688 0.62013 0.37425 0.0
C2024 C 0.85512 0.63381 0.31279 0.0
C2025 C 0.89105 0.64411 0.37919 0.0
C2026 C 0.90875 0.6754 0.38857 0.0
C2027 C 0.94065 0.68244 0.41202 0.0
C2028 C 0.9548 0.65718 0.42634 0.0
C2029 C 0.93758 0.62468 0.41737 0.0
C2030 C 0.90496 0.61835 0.39332 0.0
H2031 H 0.33705 0.87217 0.30387 0.0
H2032 H 0.3524 0.78789 0.38465 0.0
H2033 H 0.39164 0.82505 0.43066 0.0
H2034 H 0.42057 0.92968 0.31993 0.0
H2035 H 0.40738 0.96419 0.31857 0.0
H2036 H 0.38064 0.93099 0.29171 0.0
H2037 H 0.33046 0.92248 0.32824 0.0
H2038 H 0.35699 0.95575 0.35516 0.0
H2039 H 0.33611 0.91559 0.38148 0.0
H2040 H 0.43398 0.87217 0.46465 0.0
H2041 H 0.47002 0.92484 0.4885 0.0
H2042 H 0.42141 0.97803 0.3912 0.0
C2043 C 0.34849 0.86138 0.33127 0.0
C2044 C 0.34247 0.82694 0.33975 0.0
C2045 C 0.35755 0.81412 0.37649 0.0
C2046 C 0.37968 0.83508 0.4031 0.0
C2047 C 0.38575 0.86889 0.3933 0.0
C2048 C 0.36997 0.88189 0.3587 0.0
C2049 C 0.38017 0.91907 0.35576 0.0
C2050 C 0.39827 0.93703 0.31934 0.0
C2051 C 0.34908 0.92879 0.35513 0.0
C2052 C 0.40462 0.92503 0.39386 0.0
C2053 C 0.40779 0.89573 0.41476 0.0
C2054 C 0.431 0.89511 0.4491 0.0
C2055 C 0.45131 0.92509 0.46253 0.0
C2056 C 0.44771 0.95525 0.44251 0.0
C2057 C 0.42391 0.95516 0.40776 0.0
H2058 H 0.26614 0.4202 0.43537 0.0
H2059 H 0.19344 0.3422 0.37198 0.0
H2060 H 0.14676 0.34914 0.39564 0.0
H2061 H 0.2172 0.4041 0.51939 0.0
H2062 H 0.22886 0.44744 0.52098 0.0
H2063 H 0.25752 0.43256 0.50562 0.0
H2064 H 0.25884 0.47356 0.44013 0.0
H2065 H 0.23016 0.48838 0.45532 0.0
H2066 H 0.21936 0.47278 0.40903 0.0
H2067 H 0.10748 0.36746 0.4197 0.0
H2068 H 0.07739 0.39805 0.43882 0.0
H2069 H 0.17388 0.46797 0.48318 0.0
C2070 C 0.24048 0.40431 0.42656 0.0
C2071 C 0.23393 0.38033 0.40177 0.0
C2072 C 0.19971 0.3601 0.39161 0.0
C2073 C 0.1728 0.36399 0.4048 0.0
C2074 C 0.18019 0.38828 0.42821 0.0
C2075 C 0.21315 0.40817 0.43908 0.0
C2076 C 0.21364 0.43452 0.46127 0.0
C2077 C 0.2303 0.42934 0.50436 0.0
C2078 C 0.23155 0.46937 0.44016 0.0
C2079 C 0.17572 0.42742 0.45916 0.0
C2080 C 0.15711 0.39997 0.44097 0.0
C2081 C 0.12178 0.38888 0.43411 0.0
C2082 C 0.10491 0.40669 0.44503 0.0
C2083 C 0.12314 0.43583 0.46217 0.0
C2084 C 0.15914 0.44583 0.47026 0.0
H2085 H 0.43803 0.23479 0.56751 0.0
H2086 H 0.3323 0.1755 0.5767 0.0
H2087 H 0.34091 0.12881 0.55722 0.0
H2088 H 0.44561 0.2021 0.48299 0.0
H2089 H 0.48848 0.20339 0.50227 0.0
H2090 H 0.47291 0.23276 0.5133 0.0
H2091 H 0.48833 0.21481 0.58832 0.0
H2092 H 0.50395 0.18553 0.57742 0.0
H2093 H 0.47146 0.17189 0.60912 0.0
H2094 H 0.36231 0.08763 0.53853 0.0
H2095 H 0.39567 0.05501 0.52891 0.0
H2096 H 0.48716 0.1414 0.5342 0.0
C2097 C 0.41651 0.21219 0.56476 0.0
C2098 C 0.38442 0.2089 0.57337 0.0
C2099 C 0.35715 0.17856 0.57039 0.0
C2100 C 0.36174 0.15201 0.55902 0.0
C2101 C 0.39379 0.15609 0.55081 0.0
C2102 C 0.42073 0.18544 0.55379 0.0
C2103 C 0.45321 0.18299 0.54618 0.0
C2104 C 0.46578 0.20672 0.50897 0.0
C2105 C 0.48085 0.18916 0.58242 0.0
C2106 C 0.44067 0.14743 0.53951 0.0
C2107 C 0.40618 0.1324 0.5414 0.0
C2108 C 0.38929 0.09926 0.53687 0.0
C2109 C 0.40834 0.08094 0.53128 0.0
C2110 C 0.44389 0.09573 0.53081 0.0
C2111 C 0.45997 0.12948 0.5344 0.0
H2112 H 0.89935 0.33934 0.73934 0.0
H2113 H 0.81976 0.29495 0.64858 0.0
H2114 H 0.85098 0.33677 0.59714 0.0
H2115 H 0.91698 0.42522 0.69421 0.0
H2116 H 0.9618 0.43565 0.71114 0.0
H2117 H 0.93182 0.40191 0.73833 0.0
H2118 H 0.96548 0.36513 0.73215 0.0
H2119 H 0.99336 0.39893 0.70241 0.0
H2120 H 0.96974 0.36059 0.68373 0.0
H2121 H 0.89115 0.38364 0.55564 0.0
H2122 H 0.93378 0.43493 0.52757 0.0
H2123 H 0.98618 0.451 0.64518 0.0
C2124 C 0.88846 0.33871 0.70858 0.0
C2125 C 0.85676 0.31447 0.69782 0.0
C2126 C 0.84357 0.31381 0.65737 0.0
C2127 C 0.86133 0.33727 0.62802 0.0
C2128 C 0.89234 0.36116 0.63959 0.0
C2129 C 0.90565 0.36226 0.67896 0.0
C2130 C 0.93913 0.39089 0.68351 0.0
C2131 C 0.93726 0.41481 0.70825 0.0
C2132 C 0.96867 0.37811 0.70152 0.0
C2133 C 0.94192 0.40657 0.64068 0.0
C2134 C 0.91513 0.38846 0.61578 0.0
C2135 C 0.91224 0.39785 0.5749 0.0
C2136 C 0.93676 0.42684 0.55915 0.0
C2137 C 0.96363 0.44647 0.5841 0.0
C2138 C 0.96627 0.43608 0.62541 0.0
H2139 H 0.18519 0.6905 0.68585 0.0
H2140 H 0.2819 0.70698 0.64936 0.0
H2141 H 0.25318 0.66558 0.60461 0.0
H2142 H 0.15267 0.60371 0.68799 0.0
H2143 H 0.10926 0.60072 0.66909 0.0
H2144 H 0.13654 0.63385 0.69582 0.0
H2145 H 0.12484 0.67663 0.63685 0.0
H2146 H 0.0973 0.64363 0.60996 0.0
H2147 H 0.13254 0.67559 0.58852 0.0
H2148 H 0.2158 0.62044 0.56765 0.0
H2149 H 0.17171 0.57402 0.53898 0.0
H2150 H 0.09687 0.58438 0.59772 0.0
C2151 C 0.20011 0.68572 0.66786 0.0
C2152 C 0.23596 0.70176 0.67135 0.0
C2153 C 0.25464 0.6946 0.64771 0.0
C2154 C 0.23846 0.67127 0.62197 0.0
C2155 C 0.20338 0.65515 0.61999 0.0
C2156 C 0.18425 0.66205 0.64205 0.0
C2157 C 0.14709 0.63966 0.63548 0.0
C2158 C 0.13573 0.61821 0.67441 0.0
C2159 C 0.12407 0.6601 0.61657 0.0
C2160 C 0.14857 0.61881 0.6068 0.0
C2161 C 0.1814 0.62856 0.59828 0.0
C2162 C 0.18995 0.61274 0.57385 0.0
C2163 C 0.16452 0.58614 0.55777 0.0
C2164 C 0.13047 0.57521 0.56579 0.0
C2165 C 0.12245 0.59213 0.59058 0.0
loop_
_geom_bond_atom_site_label_1
_geom_bond_atom_site_label_2
_geom_bond_distance
_geom_bond_site_symmetry_2
_ccdc_geom_bond_type
Eu0 N31 2.657 . S
Eu0 N38 2.609 . S
Eu0 O44 2.558 . S
Eu0 O45 2.612 . S
Eu0 O47 2.339 . S
Eu0 O48 2.563 . S
Eu0 O49 2.419 . S
Eu0 O51 2.380 . S
Eu0 O52 2.432 . S
Eu0 C64 2.848 . S
C1 C4 1.429 . S
C1 C5 1.411 . S
C1 N8 1.377 . S
C2 C4 1.420 . S
C2 C6 1.423 . S
C2 C14 1.392 . S
C3 C5 1.420 . S
C3 C6 1.351 . S
C3 H26 0.931 . S
C4 C1 1.429 . S
C4 C2 1.420 . S
C4 N12 1.362 . S
C5 C1 1.411 . S
C5 C3 1.420 . S
C5 C10 1.395 . S
C6 C2 1.423 . S
C6 C3 1.351 . S
C6 H18 0.930 . S
C7 C9 1.400 . S
C7 C10 1.386 . S
C7 H19 0.930 . S
N8 C1 1.377 . S
N8 C9 1.321 . S
N8 Eu11 2.609 . S
C9 C7 1.400 . S
C9 N8 1.321 . S
C9 H16 0.930 . S
C10 C5 1.395 . S
C10 C7 1.386 . S
C10 H29 0.930 . S
Eu11 N8 2.609 . S
Eu11 N12 2.657 . S
Eu11 O45 2.380 . S
Eu11 O46 2.432 . S
Eu11 O50 2.558 . S
Eu11 O51 2.612 . S
Eu11 O53 2.339 . S
Eu11 O54 2.563 . S
Eu11 O55 2.419 . S
Eu11 C75 2.848 . S
N12 C4 1.362 . S
N12 Eu11 2.657 . S
N12 C13 1.334 . S
C13 N12 1.334 . S
C13 C15 1.413 . S
C13 H20 0.929 . S
C14 C2 1.392 . S
C14 C15 1.367 . S
C14 H22 0.930 . S
C15 C13 1.413 . S
C15 C14 1.367 . S
C15 H17 0.930 . S
H16 C9 0.930 . S
H17 C15 0.930 . S
H18 C6 0.930 . S
H19 C7 0.930 . S
H20 C13 0.929 . S
H21 C35 0.930 . S
H22 C14 0.930 . S
H23 C41 0.930 . S
H24 C32 0.929 . S
H25 C39 0.930 . S
H26 C3 0.931 . S
H27 C33 0.930 . S
H28 C66 0.930 . S
H29 C10 0.930 . S
H30 C65 0.931 . S
N31 Eu0 2.657 . S
N31 C32 1.334 . S
N31 C36 1.362 . S
C32 H24 0.929 . S
C32 N31 1.334 . S
C32 C35 1.413 . S
C33 H27 0.930 . S
C33 C34 1.392 . S
C33 C35 1.367 . S
C34 C33 1.392 . S
C34 C36 1.420 . S
C34 C66 1.423 . S
C35 H21 0.930 . S
C35 C32 1.413 . S
C35 C33 1.367 . S
C36 N31 1.362 . S
C36 C34 1.420 . S
C36 C40 1.429 . S
H37 C42 0.930 . S
N38 Eu0 2.609 . S
N38 C40 1.377 . S
N38 C41 1.321 . S
C39 H25 0.930 . S
C39 C41 1.400 . S
C39 C42 1.386 . S
C40 C36 1.429 . S
C40 N38 1.377 . S
C40 C43 1.411 . S
C41 H23 0.930 . S
C41 N38 1.321 . S
C41 C39 1.400 . S
C42 H37 0.930 . S
C42 C39 1.386 . S
C42 C43 1.395 . S
C43 C40 1.411 . S
C43 C42 1.395 . S
C43 C65 1.420 . S
O44 Eu0 2.558 . S
O44 C64 1.257 . S
O45 Eu0 2.612 . S
O45 Eu11 2.380 . S
O45 C56 1.276 . S
O46 Eu11 2.432 . S
O46 C63 1.264 . S
O47 Eu0 2.339 . S
O47 C63 1.254 . S
O48 Eu0 2.563 . S
O48 C56 1.235 . S
O49 Eu0 2.419 . S
O49 C64 1.249 . S
O50 Eu11 2.558 . S
O50 C75 1.257 . S
O51 Eu0 2.380 . S
O51 Eu11 2.612 . S
O51 C67 1.276 . S
O52 Eu0 2.432 . S
O52 C74 1.264 . S
O53 Eu11 2.339 . S
O53 C74 1.254 . S
O54 Eu11 2.563 . S
O54 C67 1.235 . S
O55 Eu11 2.419 . S
O55 C75 1.249 . S
C56 O45 1.276 . S
C56 O48 1.235 . S
C57 C59 1.393 . S
C57 C61 1.395 . S
C57 C64 1.492 . S
C58 C59 1.392 . S
C58 C60 1.386 . S
C59 C57 1.393 . S
C59 C58 1.392 . S
C59 H76 0.930 . S
C60 C58 1.386 . S
C60 C62 1.395 . S
C60 H77 0.930 . S
C61 C57 1.395 . S
C61 C62 1.379 . S
C61 H78 0.930 . S
C62 C60 1.395 . S
C62 C61 1.379 . S
C62 H79 0.930 . S
C63 O46 1.264 . S
C63 O47 1.254 . S
C64 Eu0 2.848 . S
C64 O44 1.257 . S
C64 O49 1.249 . S
C64 C57 1.492 . S
C65 H30 0.931 . S
C65 C43 1.420 . S
C65 C66 1.351 . S
C66 H28 0.930 . S
C66 C34 1.423 . S
C66 C65 1.351 . S
C67 O51 1.276 . S
C67 O54 1.235 . S
C68 C69 1.393 . S
C68 C72 1.395 . S
C68 C75 1.492 . S
C69 C68 1.393 . S
C69 C70 1.392 . S
C69 H80 0.930 . S
C70 C69 1.392 . S
C70 C71 1.386 . S
C71 C70 1.386 . S
C71 C73 1.395 . S
C71 H81 0.930 . S
C72 C68 1.395 . S
C72 C73 1.379 . S
C72 H82 0.930 . S
C73 C71 1.395 . S
C73 C72 1.379 . S
C73 H83 0.930 . S
C74 O52 1.264 . S
C74 O53 1.254 . S
C75 Eu11 2.848 . S
C75 O50 1.257 . S
C75 O55 1.249 . S
C75 C68 1.492 . S
H76 C59 0.930 . S
H77 C60 0.930 . S
H78 C61 0.930 . S
H79 C62 0.930 . S
H80 C69 0.930 . S
H81 C71 0.930 . S
H82 C72 0.930 . S
H83 C73 0.930 . S
Eu84 N115 2.657 . S
Eu84 N122 2.609 . S
Eu84 O128 2.558 . S
Eu84 O129 2.612 . S
Eu84 O131 2.339 . S
Eu84 O132 2.563 . S
Eu84 O133 2.419 . S
Eu84 O135 2.380 . S
Eu84 O136 2.432 . S
Eu84 C148 2.848 . S
C85 C88 1.429 . S
C85 C89 1.411 . S
C85 N92 1.377 . S
C86 C88 1.420 . S
C86 C90 1.423 . S
C86 C98 1.392 . S
C87 C89 1.420 . S
C87 C90 1.351 . S
C87 H110 0.931 . S
C88 C85 1.429 . S
C88 C86 1.420 . S
C88 N96 1.362 . S
C89 C85 1.411 . S
C89 C87 1.420 . S
C89 C94 1.395 . S
C90 C86 1.423 . S
C90 C87 1.351 . S
C90 H102 0.930 . S
C91 C93 1.400 . S
C91 C94 1.386 . S
C91 H103 0.930 . S
N92 C85 1.377 . S
N92 C93 1.321 . S
N92 Eu95 2.609 . S
C93 C91 1.400 . S
C93 N92 1.321 . S
C93 H100 0.930 . S
C94 C89 1.395 . S
C94 C91 1.386 . S
C94 H113 0.930 . S
Eu95 N92 2.609 . S
Eu95 N96 2.657 . S
Eu95 O129 2.380 . S
Eu95 O130 2.432 . S
Eu95 O134 2.558 . S
Eu95 O135 2.612 . S
Eu95 O137 2.339 . S
Eu95 O138 2.563 . S
Eu95 O139 2.419 . S
Eu95 C159 2.848 . S
N96 C88 1.362 . S
N96 Eu95 2.657 . S
N96 C97 1.334 . S
C97 N96 1.334 . S
C97 C99 1.413 . S
C97 H104 0.929 . S
C98 C86 1.392 . S
C98 C99 1.367 . S
C98 H106 0.930 . S
C99 C97 1.413 . S
C99 C98 1.367 . S
C99 H101 0.930 . S
H100 C93 0.930 . S
H101 C99 0.930 . S
H102 C90 0.930 . S
H103 C91 0.930 . S
H104 C97 0.929 . S
H105 C119 0.930 . S
H106 C98 0.930 . S
H107 C125 0.930 . S
H108 C116 0.929 . S
H109 C123 0.930 . S
H110 C87 0.931 . S
H111 C117 0.930 . S
H112 C150 0.930 . S
H113 C94 0.930 . S
H114 C149 0.931 . S
N115 Eu84 2.657 . S
N115 C116 1.334 . S
N115 C120 1.362 . S
C116 H108 0.929 . S
C116 N115 1.334 . S
C116 C119 1.413 . S
C117 H111 0.930 . S
C117 C118 1.392 . S
C117 C119 1.367 . S
C118 C117 1.392 . S
C118 C120 1.420 . S
C118 C150 1.423 . S
C119 H105 0.930 . S
C119 C116 1.413 . S
C119 C117 1.367 . S
C120 N115 1.362 . S
C120 C118 1.420 . S
C120 C124 1.429 . S
H121 C126 0.930 . S
N122 Eu84 2.609 . S
N122 C124 1.377 . S
N122 C125 1.321 . S
C123 H109 0.930 . S
C123 C125 1.400 . S
C123 C126 1.386 . S
C124 C120 1.429 . S
C124 N122 1.377 . S
C124 C127 1.411 . S
C125 H107 0.930 . S
C125 N122 1.321 . S
C125 C123 1.400 . S
C126 H121 0.930 . S
C126 C123 1.386 . S
C126 C127 1.395 . S
C127 C124 1.411 . S
C127 C126 1.395 . S
C127 C149 1.420 . S
O128 Eu84 2.558 . S
O128 C148 1.257 . S
O129 Eu84 2.612 . S
O129 Eu95 2.380 . S
O129 C140 1.276 . S
O130 Eu95 2.432 . S
O130 C147 1.264 . S
O131 Eu84 2.339 . S
O131 C147 1.254 . S
O132 Eu84 2.563 . S
O132 C140 1.235 . S
O133 Eu84 2.419 . S
O133 C148 1.249 . S
O134 Eu95 2.558 . S
O134 C159 1.257 . S
O135 Eu84 2.380 . S
O135 Eu95 2.612 . S
O135 C151 1.276 . S
O136 Eu84 2.432 . S
O136 C158 1.264 . S
O137 Eu95 2.339 . S
O137 C158 1.254 . S
O138 Eu95 2.563 . S
O138 C151 1.235 . S
O139 Eu95 2.419 . S
O139 C159 1.249 . S
C140 O129 1.276 . S
C140 O132 1.235 . S
C141 C143 1.393 . S
C141 C145 1.395 . S
C141 C148 1.492 . S
C142 C143 1.392 . S
C142 C144 1.386 . S
C143 C141 1.393 . S
C143 C142 1.392 . S
C143 H160 0.930 . S
C144 C142 1.386 . S
C144 C146 1.395 . S
C144 H161 0.930 . S
C145 C141 1.395 . S
C145 C146 1.379 . S
C145 H162 0.930 . S
C146 C144 1.395 . S
C146 C145 1.379 . S
C146 H163 0.930 . S
C147 O130 1.264 . S
C147 O131 1.254 . S
C148 Eu84 2.848 . S
C148 O128 1.257 . S
C148 O133 1.249 . S
C148 C141 1.492 . S
C149 H114 0.931 . S
C149 C127 1.420 . S
C149 C150 1.351 . S
C150 H112 0.930 . S
C150 C118 1.423 . S
C150 C149 1.351 . S
C151 O135 1.276 . S
C151 O138 1.235 . S
C152 C153 1.393 . S
C152 C156 1.395 . S
C152 C159 1.492 . S
C153 C152 1.393 . S
C153 C154 1.392 . S
C153 H164 0.930 . S
C154 C153 1.392 . S
C154 C155 1.386 . S
C155 C154 1.386 . S
C155 C157 1.395 . S
C155 H165 0.930 . S
C156 C152 1.395 . S
C156 C157 1.379 . S
C156 H166 0.930 . S
C157 C155 1.395 . S
C157 C156 1.379 . S
C157 H167 0.930 . S
C158 O136 1.264 . S
C158 O137 1.254 . S
C159 Eu95 2.848 . S
C159 O134 1.257 . S
C159 O139 1.249 . S
C159 C152 1.492 . S
H160 C143 0.930 . S
H161 C144 0.930 . S
H162 C145 0.930 . S
H163 C146 0.930 . S
H164 C153 0.930 . S
H165 C155 0.930 . S
H166 C156 0.930 . S
H167 C157 0.930 . S
Eu168 N199 2.657 . S
Eu168 N206 2.609 . S
Eu168 O212 2.558 . S
Eu168 O213 2.612 . S
Eu168 O215 2.339 . S
Eu168 O216 2.563 . S
Eu168 O217 2.419 . S
Eu168 O219 2.380 . S
Eu168 O220 2.432 . S
Eu168 C232 2.848 . S
C169 C172 1.429 . S
C169 C173 1.411 . S
C169 N176 1.377 . S
C170 C172 1.420 . S
C170 C174 1.423 . S
C170 C182 1.392 . S
C171 C173 1.420 . S
C171 C174 1.351 . S
C171 H194 0.931 . S
C172 C169 1.429 . S
C172 C170 1.420 . S
C172 N180 1.362 . S
C173 C169 1.411 . S
C173 C171 1.420 . S
C173 C178 1.395 . S
C174 C170 1.423 . S
C174 C171 1.351 . S
C174 H186 0.930 . S
C175 C177 1.400 . S
C175 C178 1.386 . S
C175 H187 0.930 . S
N176 C169 1.377 . S
N176 C177 1.321 . S
N176 Eu179 2.609 . S
C177 C175 1.400 . S
C177 N176 1.321 . S
C177 H184 0.930 . S
C178 C173 1.395 . S
C178 C175 1.386 . S
C178 H197 0.930 . S
Eu179 N176 2.609 . S
Eu179 N180 2.657 . S
Eu179 O213 2.380 . S
Eu179 O214 2.432 . S
Eu179 O218 2.558 . S
Eu179 O219 2.612 . S
Eu179 O221 2.339 . S
Eu179 O222 2.563 . S
Eu179 O223 2.419 . S
Eu179 C243 2.848 . S
N180 C172 1.362 . S
N180 Eu179 2.657 . S
N180 C181 1.334 . S
C181 N180 1.334 . S
C181 C183 1.413 . S
C181 H188 0.929 . S
C182 C170 1.392 . S
C182 C183 1.367 . S
C182 H190 0.930 . S
C183 C181 1.413 . S
C183 C182 1.367 . S
C183 H185 0.930 . S
H184 C177 0.930 . S
H185 C183 0.930 . S
H186 C174 0.930 . S
H187 C175 0.930 . S
H188 C181 0.929 . S
H189 C203 0.930 . S
H190 C182 0.930 . S
H191 C209 0.930 . S
H192 C200 0.929 . S
H193 C207 0.930 . S
H194 C171 0.931 . S
H195 C201 0.930 . S
H196 C234 0.930 . S
H197 C178 0.930 . S
H198 C233 0.931 . S
N199 Eu168 2.657 . S
N199 C200 1.334 . S
N199 C204 1.362 . S
C200 H192 0.929 . S
C200 N199 1.334 . S
C200 C203 1.413 . S
C201 H195 0.930 . S
C201 C202 1.392 . S
C201 C203 1.367 . S
C202 C201 1.392 . S
C202 C204 1.420 . S
C202 C234 1.423 . S
C203 H189 0.930 . S
C203 C200 1.413 . S
C203 C201 1.367 . S
C204 N199 1.362 . S
C204 C202 1.420 . S
C204 C208 1.429 . S
H205 C210 0.930 . S
N206 Eu168 2.609 . S
N206 C208 1.377 . S
N206 C209 1.321 . S
C207 H193 0.930 . S
C207 C209 1.400 . S
C207 C210 1.386 . S
C208 C204 1.429 . S
C208 N206 1.377 . S
C208 C211 1.411 . S
C209 H191 0.930 . S
C209 N206 1.321 . S
C209 C207 1.400 . S
C210 H205 0.930 . S
C210 C207 1.386 . S
C210 C211 1.395 . S
C211 C208 1.411 . S
C211 C210 1.395 . S
C211 C233 1.420 . S
O212 Eu168 2.558 . S
O212 C232 1.257 . S
O213 Eu168 2.612 . S
O213 Eu179 2.380 . S
O213 C224 1.276 . S
O214 Eu179 2.432 . S
O214 C231 1.264 . S
O215 Eu168 2.339 . S
O215 C231 1.254 . S
O216 Eu168 2.563 . S
O216 C224 1.235 . S
O217 Eu168 2.419 . S
O217 C232 1.249 . S
O218 Eu179 2.558 . S
O218 C243 1.257 . S
O219 Eu168 2.380 . S
O219 Eu179 2.612 . S
O219 C235 1.276 . S
O220 Eu168 2.432 . S
O220 C242 1.264 . S
O221 Eu179 2.339 . S
O221 C242 1.254 . S
O222 Eu179 2.563 . S
O222 C235 1.235 . S
O223 Eu179 2.419 . S
O223 C243 1.249 . S
C224 O213 1.276 . S
C224 O216 1.235 . S
C225 C227 1.393 . S
C225 C229 1.395 . S
C225 C232 1.492 . S
C226 C227 1.392 . S
C226 C228 1.386 . S
C227 C225 1.393 . S
C227 C226 1.392 . S
C227 H244 0.930 . S
C228 C226 1.386 . S
C228 C230 1.395 . S
C228 H245 0.930 . S
C229 C225 1.395 . S
C229 C230 1.379 . S
C229 H246 0.930 . S
C230 C228 1.395 . S
C230 C229 1.379 . S
C230 H247 0.930 . S
C231 O214 1.264 . S
C231 O215 1.254 . S
C232 Eu168 2.848 . S
C232 O212 1.257 . S
C232 O217 1.249 . S
C232 C225 1.492 . S
C233 H198 0.931 . S
C233 C211 1.420 . S
C233 C234 1.351 . S
C234 H196 0.930 . S
C234 C202 1.423 . S
C234 C233 1.351 . S
C235 O219 1.276 . S
C235 O222 1.235 . S
C236 C237 1.393 . S
C236 C240 1.395 . S
C236 C243 1.492 . S
C237 C236 1.393 . S
C237 C238 1.392 . S
C237 H248 0.930 . S
C238 C237 1.392 . S
C238 C239 1.386 . S
C239 C238 1.386 . S
C239 C241 1.395 . S
C239 H249 0.930 . S
C240 C236 1.395 . S
C240 C241 1.379 . S
C240 H250 0.930 . S
C241 C239 1.395 . S
C241 C240 1.379 . S
C241 H251 0.930 . S
C242 O220 1.264 . S
C242 O221 1.254 . S
C243 Eu179 2.848 . S
C243 O218 1.257 . S
C243 O223 1.249 . S
C243 C236 1.492 . S
H244 C227 0.930 . S
H245 C228 0.930 . S
H246 C229 0.930 . S
H247 C230 0.930 . S
H248 C237 0.930 . S
H249 C239 0.930 . S
H250 C240 0.930 . S
H251 C241 0.930 . S
Eu252 N283 2.657 . S
Eu252 N290 2.609 . S
Eu252 O296 2.558 . S
Eu252 O297 2.612 . S
Eu252 O299 2.339 . S
Eu252 O300 2.563 . S
Eu252 O301 2.419 . S
Eu252 O303 2.380 . S
Eu252 O304 2.432 . S
Eu252 C316 2.848 . S
C253 C256 1.429 . S
C253 C257 1.411 . S
C253 N260 1.377 . S
C254 C256 1.420 . S
C254 C258 1.423 . S
C254 C266 1.392 . S
C255 C257 1.420 . S
C255 C258 1.351 . S
C255 H278 0.931 . S
C256 C253 1.429 . S
C256 C254 1.420 . S
C256 N264 1.362 . S
C257 C253 1.411 . S
C257 C255 1.420 . S
C257 C262 1.395 . S
C258 C254 1.423 . S
C258 C255 1.351 . S
C258 H270 0.930 . S
C259 C261 1.400 . S
C259 C262 1.386 . S
C259 H271 0.930 . S
N260 C253 1.377 . S
N260 C261 1.321 . S
N260 Eu263 2.609 . S
C261 C259 1.400 . S
C261 N260 1.321 . S
C261 H268 0.930 . S
C262 C257 1.395 . S
C262 C259 1.386 . S
C262 H281 0.930 . S
Eu263 N260 2.609 . S
Eu263 N264 2.657 . S
Eu263 O297 2.380 . S
Eu263 O298 2.432 . S
Eu263 O302 2.558 . S
Eu263 O303 2.612 . S
Eu263 O305 2.339 . S
Eu263 O306 2.563 . S
Eu263 O307 2.419 . S
Eu263 C327 2.848 . S
N264 C256 1.362 . S
N264 Eu263 2.657 . S
N264 C265 1.334 . S
C265 N264 1.334 . S
C265 C267 1.413 . S
C265 H272 0.929 . S
C266 C254 1.392 . S
C266 C267 1.367 . S
C266 H274 0.930 . S
C267 C265 1.413 . S
C267 C266 1.367 . S
C267 H269 0.930 . S
H268 C261 0.930 . S
H269 C267 0.930 . S
H270 C258 0.930 . S
H271 C259 0.930 . S
H272 C265 0.929 . S
H273 C287 0.930 . S
H274 C266 0.930 . S
H275 C293 0.930 . S
H276 C284 0.929 . S
H277 C291 0.930 . S
H278 C255 0.931 . S
H279 C285 0.930 . S
H280 C318 0.930 . S
H281 C262 0.930 . S
H282 C317 0.931 . S
N283 Eu252 2.657 . S
N283 C284 1.334 . S
N283 C288 1.362 . S
C284 H276 0.929 . S
C284 N283 1.334 . S
C284 C287 1.413 . S
C285 H279 0.930 . S
C285 C286 1.392 . S
C285 C287 1.367 . S
C286 C285 1.392 . S
C286 C288 1.420 . S
C286 C318 1.423 . S
C287 H273 0.930 . S
C287 C284 1.413 . S
C287 C285 1.367 . S
C288 N283 1.362 . S
C288 C286 1.420 . S
C288 C292 1.429 . S
H289 C294 0.930 . S
N290 Eu252 2.609 . S
N290 C292 1.377 . S
N290 C293 1.321 . S
C291 H277 0.930 . S
C291 C293 1.400 . S
C291 C294 1.386 . S
C292 C288 1.429 . S
C292 N290 1.377 . S
C292 C295 1.411 . S
C293 H275 0.930 . S
C293 N290 1.321 . S
C293 C291 1.400 . S
C294 H289 0.930 . S
C294 C291 1.386 . S
C294 C295 1.395 . S
C295 C292 1.411 . S
C295 C294 1.395 . S
C295 C317 1.420 . S
O296 Eu252 2.558 . S
O296 C316 1.257 . S
O297 Eu252 2.612 . S
O297 Eu263 2.380 . S
O297 C308 1.276 . S
O298 Eu263 2.432 . S
O298 C315 1.264 . S
O299 Eu252 2.339 . S
O299 C315 1.254 . S
O300 Eu252 2.563 . S
O300 C308 1.235 . S
O301 Eu252 2.419 . S
O301 C316 1.249 . S
O302 Eu263 2.558 . S
O302 C327 1.257 . S
O303 Eu252 2.380 . S
O303 Eu263 2.612 . S
O303 C319 1.276 . S
O304 Eu252 2.432 . S
O304 C326 1.264 . S
O305 Eu263 2.339 . S
O305 C326 1.254 . S
O306 Eu263 2.563 . S
O306 C319 1.235 . S
O307 Eu263 2.419 . S
O307 C327 1.249 . S
C308 O297 1.276 . S
C308 O300 1.235 . S
C309 C311 1.393 . S
C309 C313 1.395 . S
C309 C316 1.492 . S
C310 C311 1.392 . S
C310 C312 1.386 . S
C311 C309 1.393 . S
C311 C310 1.392 . S
C311 H328 0.930 . S
C312 C310 1.386 . S
C312 C314 1.395 . S
C312 H329 0.930 . S
C313 C309 1.395 . S
C313 C314 1.379 . S
C313 H330 0.930 . S
C314 C312 1.395 . S
C314 C313 1.379 . S
C314 H331 0.930 . S
C315 O298 1.264 . S
C315 O299 1.254 . S
C316 Eu252 2.848 . S
C316 O296 1.257 . S
C316 O301 1.249 . S
C316 C309 1.492 . S
C317 H282 0.931 . S
C317 C295 1.420 . S
C317 C318 1.351 . S
C318 H280 0.930 . S
C318 C286 1.423 . S
C318 C317 1.351 . S
C319 O303 1.276 . S
C319 O306 1.235 . S
C320 C321 1.393 . S
C320 C324 1.395 . S
C320 C327 1.492 . S
C321 C320 1.393 . S
C321 C322 1.392 . S
C321 H332 0.930 . S
C322 C321 1.392 . S
C322 C323 1.386 . S
C323 C322 1.386 . S
C323 C325 1.395 . S
C323 H333 0.930 . S
C324 C320 1.395 . S
C324 C325 1.379 . S
C324 H334 0.930 . S
C325 C323 1.395 . S
C325 C324 1.379 . S
C325 H335 0.930 . S
C326 O304 1.264 . S
C326 O305 1.254 . S
C327 Eu263 2.848 . S
C327 O302 1.257 . S
C327 O307 1.249 . S
C327 C320 1.492 . S
H328 C311 0.930 . S
H329 C312 0.930 . S
H330 C313 0.930 . S
H331 C314 0.930 . S
H332 C321 0.930 . S
H333 C323 0.930 . S
H334 C324 0.930 . S
H335 C325 0.930 . S
Eu336 N367 2.657 . S
Eu336 N374 2.609 . S
Eu336 O380 2.558 . S
Eu336 O381 2.612 . S
Eu336 O383 2.339 . S
Eu336 O384 2.563 . S
Eu336 O385 2.419 . S
Eu336 O387 2.380 . S
Eu336 O388 2.432 . S
Eu336 C400 2.848 . S
C337 C340 1.429 . S
C337 C341 1.411 . S
C337 N344 1.377 . S
C338 C340 1.420 . S
C338 C342 1.423 . S
C338 C350 1.392 . S
C339 C341 1.420 . S
C339 C342 1.351 . S
C339 H362 0.931 . S
C340 C337 1.429 . S
C340 C338 1.420 . S
C340 N348 1.362 . S
C341 C337 1.411 . S
C341 C339 1.420 . S
C341 C346 1.395 . S
C342 C338 1.423 . S
C342 C339 1.351 . S
C342 H354 0.930 . S
C343 C345 1.400 . S
C343 C346 1.386 . S
C343 H355 0.930 . S
N344 C337 1.377 . S
N344 C345 1.321 . S
N344 Eu347 2.609 . S
C345 C343 1.400 . S
C345 N344 1.321 . S
C345 H352 0.930 . S
C346 C341 1.395 . S
C346 C343 1.386 . S
C346 H365 0.930 . S
Eu347 N344 2.609 . S
Eu347 N348 2.657 . S
Eu347 O381 2.380 . S
Eu347 O382 2.432 . S
Eu347 O386 2.558 . S
Eu347 O387 2.612 . S
Eu347 O389 2.339 . S
Eu347 O390 2.563 . S
Eu347 O391 2.419 . S
Eu347 C411 2.848 . S
N348 C340 1.362 . S
N348 Eu347 2.657 . S
N348 C349 1.334 . S
C349 N348 1.334 . S
C349 C351 1.413 . S
C349 H356 0.929 . S
C350 C338 1.392 . S
C350 C351 1.367 . S
C350 H358 0.930 . S
C351 C349 1.413 . S
C351 C350 1.367 . S
C351 H353 0.930 . S
H352 C345 0.930 . S
H353 C351 0.930 . S
H354 C342 0.930 . S
H355 C343 0.930 . S
H356 C349 0.929 . S
H357 C371 0.930 . S
H358 C350 0.930 . S
H359 C377 0.930 . S
H360 C368 0.929 . S
H361 C375 0.930 . S
H362 C339 0.931 . S
H363 C369 0.930 . S
H364 C402 0.930 . S
H365 C346 0.930 . S
H366 C401 0.931 . S
N367 Eu336 2.657 . S
N367 C368 1.334 . S
N367 C372 1.362 . S
C368 H360 0.929 . S
C368 N367 1.334 . S
C368 C371 1.413 . S
C369 H363 0.930 . S
C369 C370 1.392 . S
C369 C371 1.367 . S
C370 C369 1.392 . S
C370 C372 1.420 . S
C370 C402 1.423 . S
C371 H357 0.930 . S
C371 C368 1.413 . S
C371 C369 1.367 . S
C372 N367 1.362 . S
C372 C370 1.420 . S
C372 C376 1.429 . S
H373 C378 0.930 . S
N374 Eu336 2.609 . S
N374 C376 1.377 . S
N374 C377 1.321 . S
C375 H361 0.930 . S
C375 C377 1.400 . S
C375 C378 1.386 . S
C376 C372 1.429 . S
C376 N374 1.377 . S
C376 C379 1.411 . S
C377 H359 0.930 . S
C377 N374 1.321 . S
C377 C375 1.400 . S
C378 H373 0.930 . S
C378 C375 1.386 . S
C378 C379 1.395 . S
C379 C376 1.411 . S
C379 C378 1.395 . S
C379 C401 1.420 . S
O380 Eu336 2.558 . S
O380 C400 1.257 . S
O381 Eu336 2.612 . S
O381 Eu347 2.380 . S
O381 C392 1.276 . S
O382 Eu347 2.432 . S
O382 C399 1.264 . S
O383 Eu336 2.339 . S
O383 C399 1.254 . S
O384 Eu336 2.563 . S
O384 C392 1.235 . S
O385 Eu336 2.419 . S
O385 C400 1.249 . S
O386 Eu347 2.558 . S
O386 C411 1.257 . S
O387 Eu336 2.380 . S
O387 Eu347 2.612 . S
O387 C403 1.276 . S
O388 Eu336 2.432 . S
O388 C410 1.264 . S
O389 Eu347 2.339 . S
O389 C410 1.254 . S
O390 Eu347 2.563 . S
O390 C403 1.235 . S
O391 Eu347 2.419 . S
O391 C411 1.249 . S
C392 O381 1.276 . S
C392 O384 1.235 . S
C393 C395 1.393 . S
C393 C397 1.395 . S
C393 C400 1.492 . S
C394 C395 1.392 . S
C394 C396 1.386 . S
C395 C393 1.393 . S
C395 C394 1.392 . S
C395 H412 0.930 . S
C396 C394 1.386 . S
C396 C398 1.395 . S
C396 H413 0.930 . S
C397 C393 1.395 . S
C397 C398 1.379 . S
C397 H414 0.930 . S
C398 C396 1.395 . S
C398 C397 1.379 . S
C398 H415 0.930 . S
C399 O382 1.264 . S
C399 O383 1.254 . S
C400 Eu336 2.848 . S
C400 O380 1.257 . S
C400 O385 1.249 . S
C400 C393 1.492 . S
C401 H366 0.931 . S
C401 C379 1.420 . S
C401 C402 1.351 . S
C402 H364 0.930 . S
C402 C370 1.423 . S
C402 C401 1.351 . S
C403 O387 1.276 . S
C403 O390 1.235 . S
C404 C405 1.393 . S
C404 C408 1.395 . S
C404 C411 1.492 . S
C405 C404 1.393 . S
C405 C406 1.392 . S
C405 H416 0.930 . S
C406 C405 1.392 . S
C406 C407 1.386 . S
C407 C406 1.386 . S
C407 C409 1.395 . S
C407 H417 0.930 . S
C408 C404 1.395 . S
C408 C409 1.379 . S
C408 H418 0.930 . S
C409 C407 1.395 . S
C409 C408 1.379 . S
C409 H419 0.930 . S
C410 O388 1.264 . S
C410 O389 1.254 . S
C411 Eu347 2.848 . S
C411 O386 1.257 . S
C411 O391 1.249 . S
C411 C404 1.492 . S
H412 C395 0.930 . S
H413 C396 0.930 . S
H414 C397 0.930 . S
H415 C398 0.930 . S
H416 C405 0.930 . S
H417 C407 0.930 . S
H418 C408 0.930 . S
H419 C409 0.930 . S
Eu420 N451 2.657 . S
Eu420 N458 2.609 . S
Eu420 O464 2.558 . S
Eu420 O465 2.612 . S
Eu420 O467 2.339 . S
Eu420 O468 2.563 . S
Eu420 O469 2.419 . S
Eu420 O471 2.380 . S
Eu420 O472 2.432 . S
Eu420 C484 2.848 . S
C421 C424 1.429 . S
C421 C425 1.411 . S
C421 N428 1.377 . S
C422 C424 1.420 . S
C422 C426 1.423 . S
C422 C434 1.392 . S
C423 C425 1.420 . S
C423 C426 1.351 . S
C423 H446 0.931 . S
C424 C421 1.429 . S
C424 C422 1.420 . S
C424 N432 1.362 . S
C425 C421 1.411 . S
C425 C423 1.420 . S
C425 C430 1.395 . S
C426 C422 1.423 . S
C426 C423 1.351 . S
C426 H438 0.930 . S
C427 C429 1.400 . S
C427 C430 1.386 . S
C427 H439 0.930 . S
N428 C421 1.377 . S
N428 C429 1.321 . S
N428 Eu431 2.609 . S
C429 C427 1.400 . S
C429 N428 1.321 . S
C429 H436 0.930 . S
C430 C425 1.395 . S
C430 C427 1.386 . S
C430 H449 0.930 . S
Eu431 N428 2.609 . S
Eu431 N432 2.657 . S
Eu431 O465 2.380 . S
Eu431 O466 2.432 . S
Eu431 O470 2.558 . S
Eu431 O471 2.612 . S
Eu431 O473 2.339 . S
Eu431 O474 2.563 . S
Eu431 O475 2.419 . S
Eu431 C495 2.848 . S
N432 C424 1.362 . S
N432 Eu431 2.657 . S
N432 C433 1.334 . S
C433 N432 1.334 . S
C433 C435 1.413 . S
C433 H440 0.929 . S
C434 C422 1.392 . S
C434 C435 1.367 . S
C434 H442 0.930 . S
C435 C433 1.413 . S
C435 C434 1.367 . S
C435 H437 0.930 . S
H436 C429 0.930 . S
H437 C435 0.930 . S
H438 C426 0.930 . S
H439 C427 0.930 . S
H440 C433 0.929 . S
H441 C455 0.930 . S
H442 C434 0.930 . S
H443 C461 0.930 . S
H444 C452 0.929 . S
H445 C459 0.930 . S
H446 C423 0.931 . S
H447 C453 0.930 . S
H448 C486 0.930 . S
H449 C430 0.930 . S
H450 C485 0.931 . S
N451 Eu420 2.657 . S
N451 C452 1.334 . S
N451 C456 1.362 . S
C452 H444 0.929 . S
C452 N451 1.334 . S
C452 C455 1.413 . S
C453 H447 0.930 . S
C453 C454 1.392 . S
C453 C455 1.367 . S
C454 C453 1.392 . S
C454 C456 1.420 . S
C454 C486 1.423 . S
C455 H441 0.930 . S
C455 C452 1.413 . S
C455 C453 1.367 . S
C456 N451 1.362 . S
C456 C454 1.420 . S
C456 C460 1.429 . S
H457 C462 0.930 . S
N458 Eu420 2.609 . S
N458 C460 1.377 . S
N458 C461 1.321 . S
C459 H445 0.930 . S
C459 C461 1.400 . S
C459 C462 1.386 . S
C460 C456 1.429 . S
C460 N458 1.377 . S
C460 C463 1.411 . S
C461 H443 0.930 . S
C461 N458 1.321 . S
C461 C459 1.400 . S
C462 H457 0.930 . S
C462 C459 1.386 . S
C462 C463 1.395 . S
C463 C460 1.411 . S
C463 C462 1.395 . S
C463 C485 1.420 . S
O464 Eu420 2.558 . S
O464 C484 1.257 . S
O465 Eu420 2.612 . S
O465 Eu431 2.380 . S
O465 C476 1.276 . S
O466 Eu431 2.432 . S
O466 C483 1.264 . S
O467 Eu420 2.339 . S
O467 C483 1.254 . S
O468 Eu420 2.563 . S
O468 C476 1.235 . S
O469 Eu420 2.419 . S
O469 C484 1.249 . S
O470 Eu431 2.558 . S
O470 C495 1.257 . S
O471 Eu420 2.380 . S
O471 Eu431 2.612 . S
O471 C487 1.276 . S
O472 Eu420 2.432 . S
O472 C494 1.264 . S
O473 Eu431 2.339 . S
O473 C494 1.254 . S
O474 Eu431 2.563 . S
O474 C487 1.235 . S
O475 Eu431 2.419 . S
O475 C495 1.249 . S
C476 O465 1.276 . S
C476 O468 1.235 . S
C477 C479 1.393 . S
C477 C481 1.395 . S
C477 C484 1.492 . S
C478 C479 1.392 . S
C478 C480 1.386 . S
C479 C477 1.393 . S
C479 C478 1.392 . S
C479 H496 0.930 . S
C480 C478 1.386 . S
C480 C482 1.395 . S
C480 H497 0.930 . S
C481 C477 1.395 . S
C481 C482 1.379 . S
C481 H498 0.930 . S
C482 C480 1.395 . S
C482 C481 1.379 . S
C482 H499 0.930 . S
C483 O466 1.264 . S
C483 O467 1.254 . S
C484 Eu420 2.848 . S
C484 O464 1.257 . S
C484 O469 1.249 . S
C484 C477 1.492 . S
C485 H450 0.931 . S
C485 C463 1.420 . S
C485 C486 1.351 . S
C486 H448 0.930 . S
C486 C454 1.423 . S
C486 C485 1.351 . S
C487 O471 1.276 . S
C487 O474 1.235 . S
C488 C489 1.393 . S
C488 C492 1.395 . S
C488 C495 1.492 . S
C489 C488 1.393 . S
C489 C490 1.392 . S
C489 H500 0.930 . S
C490 C489 1.392 . S
C490 C491 1.386 . S
C491 C490 1.386 . S
C491 C493 1.395 . S
C491 H501 0.930 . S
C492 C488 1.395 . S
C492 C493 1.379 . S
C492 H502 0.930 . S
C493 C491 1.395 . S
C493 C492 1.379 . S
C493 H503 0.930 . S
C494 O472 1.264 . S
C494 O473 1.254 . S
C495 Eu431 2.848 . S
C495 O470 1.257 . S
C495 O475 1.249 . S
C495 C488 1.492 . S
H496 C479 0.930 . S
H497 C480 0.930 . S
H498 C481 0.930 . S
H499 C482 0.930 . S
H500 C489 0.930 . S
H501 C491 0.930 . S
H502 C492 0.930 . S
H503 C493 0.930 . S
Eu504 N535 2.657 . S
Eu504 N542 2.609 . S
Eu504 O548 2.558 . S
Eu504 O549 2.612 . S
Eu504 O551 2.339 . S
Eu504 O552 2.563 . S
Eu504 O553 2.419 . S
Eu504 O555 2.380 . S
Eu504 O556 2.432 . S
Eu504 C568 2.848 . S
C505 C508 1.429 . S
C505 C509 1.411 . S
C505 N512 1.377 . S
C506 C508 1.420 . S
C506 C510 1.423 . S
C506 C518 1.392 . S
C507 C509 1.420 . S
C507 C510 1.351 . S
C507 H530 0.931 . S
C508 C505 1.429 . S
C508 C506 1.420 . S
C508 N516 1.362 . S
C509 C505 1.411 . S
C509 C507 1.420 . S
C509 C514 1.395 . S
C510 C506 1.423 . S
C510 C507 1.351 . S
C510 H522 0.930 . S
C511 C513 1.400 . S
C511 C514 1.386 . S
C511 H523 0.930 . S
N512 C505 1.377 . S
N512 C513 1.321 . S
N512 Eu515 2.609 . S
C513 C511 1.400 . S
C513 N512 1.321 . S
C513 H520 0.930 . S
C514 C509 1.395 . S
C514 C511 1.386 . S
C514 H533 0.930 . S
Eu515 N512 2.609 . S
Eu515 N516 2.657 . S
Eu515 O549 2.380 . S
Eu515 O550 2.432 . S
Eu515 O554 2.558 . S
Eu515 O555 2.612 . S
Eu515 O557 2.339 . S
Eu515 O558 2.563 . S
Eu515 O559 2.419 . S
Eu515 C579 2.848 . S
N516 C508 1.362 . S
N516 Eu515 2.657 . S
N516 C517 1.334 . S
C517 N516 1.334 . S
C517 C519 1.413 . S
C517 H524 0.929 . S
C518 C506 1.392 . S
C518 C519 1.367 . S
C518 H526 0.930 . S
C519 C517 1.413 . S
C519 C518 1.367 . S
C519 H521 0.930 . S
H520 C513 0.930 . S
H521 C519 0.930 . S
H522 C510 0.930 . S
H523 C511 0.930 . S
H524 C517 0.929 . S
H525 C539 0.930 . S
H526 C518 0.930 . S
H527 C545 0.930 . S
H528 C536 0.929 . S
H529 C543 0.930 . S
H530 C507 0.931 . S
H531 C537 0.930 . S
H532 C570 0.930 . S
H533 C514 0.930 . S
H534 C569 0.931 . S
N535 Eu504 2.657 . S
N535 C536 1.334 . S
N535 C540 1.362 . S
C536 H528 0.929 . S
C536 N535 1.334 . S
C536 C539 1.413 . S
C537 H531 0.930 . S
C537 C538 1.392 . S
C537 C539 1.367 . S
C538 C537 1.392 . S
C538 C540 1.420 . S
C538 C570 1.423 . S
C539 H525 0.930 . S
C539 C536 1.413 . S
C539 C537 1.367 . S
C540 N535 1.362 . S
C540 C538 1.420 . S
C540 C544 1.429 . S
H541 C546 0.930 . S
N542 Eu504 2.609 . S
N542 C544 1.377 . S
N542 C545 1.321 . S
C543 H529 0.930 . S
C543 C545 1.400 . S
C543 C546 1.386 . S
C544 C540 1.429 . S
C544 N542 1.377 . S
C544 C547 1.411 . S
C545 H527 0.930 . S
C545 N542 1.321 . S
C545 C543 1.400 . S
C546 H541 0.930 . S
C546 C543 1.386 . S
C546 C547 1.395 . S
C547 C544 1.411 . S
C547 C546 1.395 . S
C547 C569 1.420 . S
O548 Eu504 2.558 . S
O548 C568 1.257 . S
O549 Eu504 2.612 . S
O549 Eu515 2.380 . S
O549 C560 1.276 . S
O550 Eu515 2.432 . S
O550 C567 1.264 . S
O551 Eu504 2.339 . S
O551 C567 1.254 . S
O552 Eu504 2.563 . S
O552 C560 1.235 . S
O553 Eu504 2.419 . S
O553 C568 1.249 . S
O554 Eu515 2.558 . S
O554 C579 1.257 . S
O555 Eu504 2.380 . S
O555 Eu515 2.612 . S
O555 C571 1.276 . S
O556 Eu504 2.432 . S
O556 C578 1.264 . S
O557 Eu515 2.339 . S
O557 C578 1.254 . S
O558 Eu515 2.563 . S
O558 C571 1.235 . S
O559 Eu515 2.419 . S
O559 C579 1.249 . S
C560 O549 1.276 . S
C560 O552 1.235 . S
C561 C563 1.393 . S
C561 C565 1.395 . S
C561 C568 1.492 . S
C562 C563 1.392 . S
C562 C564 1.386 . S
C563 C561 1.393 . S
C563 C562 1.392 . S
C563 H580 0.930 . S
C564 C562 1.386 . S
C564 C566 1.395 . S
C564 H581 0.930 . S
C565 C561 1.395 . S
C565 C566 1.379 . S
C565 H582 0.930 . S
C566 C564 1.395 . S
C566 C565 1.379 . S
C566 H583 0.930 . S
C567 O550 1.264 . S
C567 O551 1.254 . S
C568 Eu504 2.848 . S
C568 O548 1.257 . S
C568 O553 1.249 . S
C568 C561 1.492 . S
C569 H534 0.931 . S
C569 C547 1.420 . S
C569 C570 1.351 . S
C570 H532 0.930 . S
C570 C538 1.423 . S
C570 C569 1.351 . S
C571 O555 1.276 . S
C571 O558 1.235 . S
C572 C573 1.393 . S
C572 C576 1.395 . S
C572 C579 1.492 . S
C573 C572 1.393 . S
C573 C574 1.392 . S
C573 H584 0.930 . S
C574 C573 1.392 . S
C574 C575 1.386 . S
C575 C574 1.386 . S
C575 C577 1.395 . S
C575 H585 0.930 . S
C576 C572 1.395 . S
C576 C577 1.379 . S
C576 H586 0.930 . S
C577 C575 1.395 . S
C577 C576 1.379 . S
C577 H587 0.930 . S
C578 O556 1.264 . S
C578 O557 1.254 . S
C579 Eu515 2.848 . S
C579 O554 1.257 . S
C579 O559 1.249 . S
C579 C572 1.492 . S
H580 C563 0.930 . S
H581 C564 0.930 . S
H582 C565 0.930 . S
H583 C566 0.930 . S
H584 C573 0.930 . S
H585 C575 0.930 . S
H586 C576 0.930 . S
H587 C577 0.930 . S
Eu588 N619 2.657 . S
Eu588 N626 2.609 . S
Eu588 O632 2.558 . S
Eu588 O633 2.612 . S
Eu588 O635 2.339 . S
Eu588 O636 2.563 . S
Eu588 O637 2.419 . S
Eu588 O639 2.380 . S
Eu588 O640 2.432 . S
Eu588 C652 2.848 . S
C589 C592 1.429 . S
C589 C593 1.411 . S
C589 N596 1.377 . S
C590 C592 1.420 . S
C590 C594 1.423 . S
C590 C602 1.392 . S
C591 C593 1.420 . S
C591 C594 1.351 . S
C591 H614 0.931 . S
C592 C589 1.429 . S
C592 C590 1.420 . S
C592 N600 1.362 . S
C593 C589 1.411 . S
C593 C591 1.420 . S
C593 C598 1.395 . S
C594 C590 1.423 . S
C594 C591 1.351 . S
C594 H606 0.930 . S
C595 C597 1.400 . S
C595 C598 1.386 . S
C595 H607 0.930 . S
N596 C589 1.377 . S
N596 C597 1.321 . S
N596 Eu599 2.609 . S
C597 C595 1.400 . S
C597 N596 1.321 . S
C597 H604 0.930 . S
C598 C593 1.395 . S
C598 C595 1.386 . S
C598 H617 0.930 . S
Eu599 N596 2.609 . S
Eu599 N600 2.657 . S
Eu599 O633 2.380 . S
Eu599 O634 2.432 . S
Eu599 O638 2.558 . S
Eu599 O639 2.612 . S
Eu599 O641 2.339 . S
Eu599 O642 2.563 . S
Eu599 O643 2.419 . S
Eu599 C663 2.848 . S
N600 C592 1.362 . S
N600 Eu599 2.657 . S
N600 C601 1.334 . S
C601 N600 1.334 . S
C601 C603 1.413 . S
C601 H608 0.929 . S
C602 C590 1.392 . S
C602 C603 1.367 . S
C602 H610 0.930 . S
C603 C601 1.413 . S
C603 C602 1.367 . S
C603 H605 0.930 . S
H604 C597 0.930 . S
H605 C603 0.930 . S
H606 C594 0.930 . S
H607 C595 0.930 . S
H608 C601 0.929 . S
H609 C623 0.930 . S
H610 C602 0.930 . S
H611 C629 0.930 . S
H612 C620 0.929 . S
H613 C627 0.930 . S
H614 C591 0.931 . S
H615 C621 0.930 . S
H616 C654 0.930 . S
H617 C598 0.930 . S
H618 C653 0.931 . S
N619 Eu588 2.657 . S
N619 C620 1.334 . S
N619 C624 1.362 . S
C620 H612 0.929 . S
C620 N619 1.334 . S
C620 C623 1.413 . S
C621 H615 0.930 . S
C621 C622 1.392 . S
C621 C623 1.367 . S
C622 C621 1.392 . S
C622 C624 1.420 . S
C622 C654 1.423 . S
C623 H609 0.930 . S
C623 C620 1.413 . S
C623 C621 1.367 . S
C624 N619 1.362 . S
C624 C622 1.420 . S
C624 C628 1.429 . S
H625 C630 0.930 . S
N626 Eu588 2.609 . S
N626 C628 1.377 . S
N626 C629 1.321 . S
C627 H613 0.930 . S
C627 C629 1.400 . S
C627 C630 1.386 . S
C628 C624 1.429 . S
C628 N626 1.377 . S
C628 C631 1.411 . S
C629 H611 0.930 . S
C629 N626 1.321 . S
C629 C627 1.400 . S
C630 H625 0.930 . S
C630 C627 1.386 . S
C630 C631 1.395 . S
C631 C628 1.411 . S
C631 C630 1.395 . S
C631 C653 1.420 . S
O632 Eu588 2.558 . S
O632 C652 1.257 . S
O633 Eu588 2.612 . S
O633 Eu599 2.380 . S
O633 C644 1.276 . S
O634 Eu599 2.432 . S
O634 C651 1.264 . S
O635 Eu588 2.339 . S
O635 C651 1.254 . S
O636 Eu588 2.563 . S
O636 C644 1.235 . S
O637 Eu588 2.419 . S
O637 C652 1.249 . S
O638 Eu599 2.558 . S
O638 C663 1.257 . S
O639 Eu588 2.380 . S
O639 Eu599 2.612 . S
O639 C655 1.276 . S
O640 Eu588 2.432 . S
O640 C662 1.264 . S
O641 Eu599 2.339 . S
O641 C662 1.254 . S
O642 Eu599 2.563 . S
O642 C655 1.235 . S
O643 Eu599 2.419 . S
O643 C663 1.249 . S
C644 O633 1.276 . S
C644 O636 1.235 . S
C645 C647 1.393 . S
C645 C649 1.395 . S
C645 C652 1.492 . S
C646 C647 1.392 . S
C646 C648 1.386 . S
C647 C645 1.393 . S
C647 C646 1.392 . S
C647 H664 0.930 . S
C648 C646 1.386 . S
C648 C650 1.395 . S
C648 H665 0.930 . S
C649 C645 1.395 . S
C649 C650 1.379 . S
C649 H666 0.930 . S
C650 C648 1.395 . S
C650 C649 1.379 . S
C650 H667 0.930 . S
C651 O634 1.264 . S
C651 O635 1.254 . S
C652 Eu588 2.848 . S
C652 O632 1.257 . S
C652 O637 1.249 . S
C652 C645 1.492 . S
C653 H618 0.931 . S
C653 C631 1.420 . S
C653 C654 1.351 . S
C654 H616 0.930 . S
C654 C622 1.423 . S
C654 C653 1.351 . S
C655 O639 1.276 . S
C655 O642 1.235 . S
C656 C657 1.393 . S
C656 C660 1.395 . S
C656 C663 1.492 . S
C657 C656 1.393 . S
C657 C658 1.392 . S
C657 H668 0.930 . S
C658 C657 1.392 . S
C658 C659 1.386 . S
C659 C658 1.386 . S
C659 C661 1.395 . S
C659 H669 0.930 . S
C660 C656 1.395 . S
C660 C661 1.379 . S
C660 H670 0.930 . S
C661 C659 1.395 . S
C661 C660 1.379 . S
C661 H671 0.930 . S
C662 O640 1.264 . S
C662 O641 1.254 . S
C663 Eu599 2.848 . S
C663 O638 1.257 . S
C663 O643 1.249 . S
C663 C656 1.492 . S
H664 C647 0.930 . S
H665 C648 0.930 . S
H666 C649 0.930 . S
H667 C650 0.930 . S
H668 C657 0.930 . S
H669 C659 0.930 . S
H670 C660 0.930 . S
H671 C661 0.930 . S
Co672 O675 2.042 . S
Co672 O682 2.264 . S
Co672 O701 2.286 . S
Co672 O702 2.069 . S
Co672 O704 2.015 1_455 S
Co673 O675 2.122 . S
Co673 O681 2.073 . S
Co673 O682 2.327 . S
Co673 O683 1.976 1_455 S
Co674 O675 2.084 1_545 S
Co674 O677 2.090 1_455 S
Co674 O684 2.108 1_445 S
Co674 O685 2.148 . S
Co674 O689 2.115 . S
Co674 O703 2.139 1_445 S
O675 Co672 2.042 . S
O675 Co673 2.122 . S
O675 Co674 2.084 1_565 S
O675 H676 0.980 . S
H676 O675 0.980 . S
O677 Co674 2.090 1_655 S
O677 Co678 2.042 . S
O677 Co679 2.122 . S
O677 H680 0.980 . S
Co678 O677 2.042 . S
Co678 O686 2.286 . S
Co678 O687 2.069 . S
Co678 O688 2.015 1_655 S
Co678 O691 2.264 . S
Co679 O677 2.122 . S
Co679 O690 1.976 1_655 S
Co679 O691 2.327 . S
Co679 O692 2.073 . S
H680 O677 0.980 . S
O681 Co673 2.073 . S
O681 C696 1.245 . S
O682 Co672 2.264 . S
O682 Co673 2.327 . S
O682 C696 1.257 . S
O683 Co673 1.976 1_655 S
O683 C695 1.251 . S
O684 Co674 2.108 1_665 S
O684 C695 1.274 . S
O685 Co674 2.148 . S
O685 C698 1.246 . S
O686 Co678 2.286 . S
O686 C697 1.259 . S
O687 Co678 2.069 . S
O687 C697 1.289 . S
O688 Co678 2.015 1_455 S
O688 C698 1.257 . S
O689 Co674 2.115 . S
O689 C699 1.274 . S
O690 Co679 1.976 1_455 S
O690 C699 1.251 . S
O691 Co678 2.264 . S
O691 Co679 2.327 . S
O691 C700 1.257 . S
O692 Co679 2.073 . S
O692 C700 1.245 . S
C693 O701 1.259 . S
C693 O702 1.289 . S
C694 O703 1.246 . S
C694 O704 1.257 . S
C695 O683 1.251 . S
C695 O684 1.274 . S
C696 O681 1.245 . S
C696 O682 1.257 . S
C697 O686 1.259 . S
C697 O687 1.289 . S
C698 O685 1.246 . S
C698 O688 1.257 . S
C699 O689 1.274 . S
C699 O690 1.251 . S
C700 O691 1.257 . S
C700 O692 1.245 . S
O701 Co672 2.286 . S
O701 C693 1.259 . S
O702 Co672 2.069 . S
O702 C693 1.289 . S
O703 Co674 2.139 1_665 S
O703 C694 1.246 . S
O704 Co672 2.015 1_655 S
O704 C694 1.257 . S
Co705 O708 2.042 1_556 S
Co705 O715 2.264 1_556 S
Co705 O734 2.286 . S
Co705 O735 2.069 . S
Co705 O737 2.015 . S
Co706 O708 2.122 . S
Co706 O714 2.073 . S
Co706 O715 2.327 . S
Co706 O716 1.976 . S
Co707 O708 2.081 1_545 S
Co707 O710 2.093 1_554 S
Co707 O717 2.110 1_545 S
Co707 O718 2.147 . S
Co707 O722 2.113 1_554 S
Co707 O736 2.140 1_544 S
O708 Co705 2.042 1_554 S
O708 Co706 2.122 . S
O708 Co707 2.081 1_565 S
O708 H709 0.980 . S
H709 O708 0.980 . S
O710 Co707 2.093 1_556 S
O710 Co711 2.042 1_556 S
O710 Co712 2.122 . S
O710 H713 0.980 . S
Co711 O710 2.042 1_554 S
Co711 O719 2.286 . S
Co711 O720 2.069 . S
Co711 O721 2.015 . S
Co711 O724 2.264 1_554 S
Co712 O710 2.122 . S
Co712 O723 1.976 . S
Co712 O724 2.327 . S
Co712 O725 2.073 . S
H713 O710 0.980 . S
O714 Co706 2.073 . S
O714 C729 1.245 . S
O715 Co705 2.264 1_554 S
O715 Co706 2.327 . S
O715 C729 1.257 . S
O716 Co706 1.976 . S
O716 C728 1.251 . S
O717 Co707 2.110 1_565 S
O717 C728 1.274 . S
O718 Co707 2.147 . S
O718 C731 1.246 . S
O719 Co711 2.286 . S
O719 C730 1.259 . S
O720 Co711 2.069 . S
O720 C730 1.289 . S
O721 Co711 2.015 . S
O721 C731 1.257 . S
O722 Co707 2.113 1_556 S
O722 C732 1.274 . S
O723 Co712 1.976 . S
O723 C732 1.251 . S
O724 Co711 2.264 1_556 S
O724 Co712 2.327 . S
O724 C733 1.257 . S
O725 Co712 2.073 . S
O725 C733 1.245 . S
C726 O734 1.259 . S
C726 O735 1.289 . S
C727 O736 1.246 . S
C727 O737 1.257 . S
C728 O716 1.251 . S
C728 O717 1.274 . S
C729 O714 1.245 . S
C729 O715 1.257 . S
C730 O719 1.259 . S
C730 O720 1.289 . S
C731 O718 1.246 . S
C731 O721 1.257 . S
C732 O722 1.274 . S
C732 O723 1.251 . S
C733 O724 1.257 . S
C733 O725 1.245 . S
O734 Co705 2.286 . S
O734 C726 1.259 . S
O735 Co705 2.069 . S
O735 C726 1.289 . S
O736 Co707 2.140 1_566 S
O736 C727 1.246 . S
O737 Co705 2.015 . S
O737 C727 1.257 . S
Co738 O741 2.042 1_556 S
Co738 O748 2.264 1_556 S
Co738 O767 2.286 . S
Co738 O768 2.069 . S
Co738 O770 2.015 1_455 S
Co739 O741 2.122 . S
Co739 O747 2.073 . S
Co739 O748 2.327 . S
Co739 O749 1.976 1_455 S
Co740 O741 2.090 . S
Co740 O743 2.084 1_454 S
Co740 O750 2.109 1_455 S
Co740 O751 2.144 . S
Co740 O755 2.113 1_554 S
Co740 O769 2.143 1_454 S
O741 Co738 2.042 1_554 S
O741 Co739 2.122 . S
O741 Co740 2.090 . S
O741 H742 0.980 . S
H742 O741 0.980 . S
O743 Co740 2.084 1_656 S
O743 Co744 2.042 1_556 S
O743 Co745 2.122 . S
O743 H746 0.980 . S
Co744 O743 2.042 1_554 S
Co744 O752 2.286 . S
Co744 O753 2.069 . S
Co744 O754 2.015 1_655 S
Co744 O757 2.264 1_554 S
Co745 O743 2.122 . S
Co745 O756 1.976 1_655 S
Co745 O757 2.327 . S
Co745 O758 2.073 . S
H746 O743 0.980 . S
O747 Co739 2.073 . S
O747 C762 1.245 . S
O748 Co738 2.264 1_554 S
O748 Co739 2.327 . S
O748 C762 1.257 . S
O749 Co739 1.976 1_655 S
O749 C761 1.251 . S
O750 Co740 2.109 1_655 S
O750 C761 1.274 . S
O751 Co740 2.144 . S
O751 C764 1.246 . S
O752 Co744 2.286 . S
O752 C763 1.259 . S
O753 Co744 2.069 . S
O753 C763 1.289 . S
O754 Co744 2.015 1_455 S
O754 C764 1.257 . S
O755 Co740 2.113 1_556 S
O755 C765 1.274 . S
O756 Co745 1.976 1_455 S
O756 C765 1.251 . S
O757 Co744 2.264 1_556 S
O757 Co745 2.327 . S
O757 C766 1.257 . S
O758 Co745 2.073 . S
O758 C766 1.245 . S
C759 O767 1.259 . S
C759 O768 1.289 . S
C760 O769 1.246 . S
C760 O770 1.257 . S
C761 O749 1.251 . S
C761 O750 1.274 . S
C762 O747 1.245 . S
C762 O748 1.257 . S
C763 O752 1.259 . S
C763 O753 1.289 . S
C764 O751 1.246 . S
C764 O754 1.257 . S
C765 O755 1.274 . S
C765 O756 1.251 . S
C766 O757 1.257 . S
C766 O758 1.245 . S
O767 Co738 2.286 . S
O767 C759 1.259 . S
O768 Co738 2.069 . S
O768 C759 1.289 . S
O769 Co740 2.143 1_656 S
O769 C760 1.246 . S
O770 Co738 2.015 1_655 S
O770 C760 1.257 . S
Co771 O774 2.042 1_556 S
Co771 O781 2.264 1_556 S
Co771 O800 2.286 . S
Co771 O801 2.069 . S
Co771 O803 2.015 . S
Co772 O774 2.122 . S
Co772 O780 2.073 . S
Co772 O781 2.327 . S
Co772 O782 1.976 . S
Co773 O774 2.087 . S
Co773 O776 2.087 1_554 S
Co773 O783 2.111 . S
Co773 O784 2.143 . S
Co773 O788 2.111 1_554 S
Co773 O802 2.143 1_554 S
O774 Co771 2.042 1_554 S
O774 Co772 2.122 . S
O774 Co773 2.087 . S
O774 H775 0.980 . S
H775 O774 0.980 . S
O776 Co773 2.087 1_556 S
O776 Co777 2.042 1_556 S
O776 Co778 2.122 . S
O776 H779 0.980 . S
Co777 O776 2.042 1_554 S
Co777 O785 2.286 . S
Co777 O786 2.069 . S
Co777 O787 2.015 . S
Co777 O790 2.264 1_554 S
Co778 O776 2.122 . S
Co778 O789 1.976 . S
Co778 O790 2.327 . S
Co778 O791 2.073 . S
H779 O776 0.980 . S
O780 Co772 2.073 . S
O780 C795 1.245 . S
O781 Co771 2.264 1_554 S
O781 Co772 2.327 . S
O781 C795 1.257 . S
O782 Co772 1.976 . S
O782 C794 1.251 . S
O783 Co773 2.111 . S
O783 C794 1.274 . S
O784 Co773 2.143 . S
O784 C797 1.246 . S
O785 Co777 2.286 . S
O785 C796 1.259 . S
O786 Co777 2.069 . S
O786 C796 1.289 . S
O787 Co777 2.015 . S
O787 C797 1.257 . S
O788 Co773 2.111 1_556 S
O788 C798 1.274 . S
O789 Co778 1.976 . S
O789 C798 1.251 . S
O790 Co777 2.264 1_556 S
O790 Co778 2.327 . S
O790 C799 1.257 . S
O791 Co778 2.073 . S
O791 C799 1.245 . S
C792 O800 1.259 . S
C792 O801 1.289 . S
C793 O802 1.246 . S
C793 O803 1.257 . S
C794 O782 1.251 . S
C794 O783 1.274 . S
C795 O780 1.245 . S
C795 O781 1.257 . S
C796 O785 1.259 . S
C796 O786 1.289 . S
C797 O784 1.246 . S
C797 O787 1.257 . S
C798 O788 1.274 . S
C798 O789 1.251 . S
C799 O790 1.257 . S
C799 O791 1.245 . S
O800 Co771 2.286 . S
O800 C792 1.259 . S
O801 Co771 2.069 . S
O801 C792 1.289 . S
O802 Co773 2.143 1_556 S
O802 C793 1.246 . S
O803 Co771 2.015 . S
O803 C793 1.257 . S
Co804 O807 2.042 . S
Co804 O814 2.264 . S
Co804 O833 2.286 . S
Co804 O834 2.069 . S
Co804 O836 2.015 . S
Co805 O807 2.122 . S
Co805 O813 2.073 . S
Co805 O814 2.327 . S
Co805 O815 1.976 . S
Co806 O807 2.090 . S
Co806 O809 2.084 1_455 S
Co806 O816 2.112 . S
Co806 O817 2.142 1_455 S
Co806 O821 2.110 1_455 S
Co806 O835 2.145 . S
O807 Co804 2.042 . S
O807 Co805 2.122 . S
O807 Co806 2.090 . S
O807 H808 0.980 . S
H808 O807 0.980 . S
O809 Co806 2.084 1_655 S
O809 Co810 2.042 . S
O809 Co811 2.122 . S
O809 H812 0.980 . S
Co810 O809 2.042 . S
Co810 O818 2.286 . S
Co810 O819 2.069 . S
Co810 O820 2.015 . S
Co810 O823 2.264 . S
Co811 O809 2.122 . S
Co811 O822 1.976 . S
Co811 O823 2.327 . S
Co811 O824 2.073 . S
H812 O809 0.980 . S
O813 Co805 2.073 . S
O813 C828 1.245 . S
O814 Co804 2.264 . S
O814 Co805 2.327 . S
O814 C828 1.257 . S
O815 Co805 1.976 . S
O815 C827 1.251 . S
O816 Co806 2.112 . S
O816 C827 1.274 . S
O817 Co806 2.142 1_655 S
O817 C830 1.246 . S
O818 Co810 2.286 . S
O818 C829 1.259 . S
O819 Co810 2.069 . S
O819 C829 1.289 . S
O820 Co810 2.015 . S
O820 C830 1.257 . S
O821 Co806 2.110 1_655 S
O821 C831 1.274 . S
O822 Co811 1.976 . S
O822 C831 1.251 . S
O823 Co810 2.264 . S
O823 Co811 2.327 . S
O823 C832 1.257 . S
O824 Co811 2.073 . S
O824 C832 1.245 . S
C825 O833 1.259 . S
C825 O834 1.289 . S
C826 O835 1.246 . S
C826 O836 1.257 . S
C827 O815 1.251 . S
C827 O816 1.274 . S
C828 O813 1.245 . S
C828 O814 1.257 . S
C829 O818 1.259 . S
C829 O819 1.289 . S
C830 O817 1.246 . S
C830 O820 1.257 . S
C831 O821 1.274 . S
C831 O822 1.251 . S
C832 O823 1.257 . S
C832 O824 1.245 . S
O833 Co804 2.286 . S
O833 C825 1.259 . S
O834 Co804 2.069 . S
O834 C825 1.289 . S
O835 Co806 2.145 . S
O835 C826 1.246 . S
O836 Co804 2.015 . S
O836 C826 1.257 . S
Co837 O840 2.042 . S
Co837 O847 2.264 . S
Co837 O866 2.286 . S
Co837 O867 2.069 . S
Co837 O869 2.015 1_565 S
Co838 O840 2.122 . S
Co838 O846 2.073 . S
Co838 O847 2.327 . S
Co838 O848 1.976 1_565 S
Co839 O840 2.081 1_545 S
Co839 O842 2.093 . S
Co839 O849 2.115 . S
Co839 O850 2.141 1_545 S
Co839 O854 2.108 1_545 S
Co839 O868 2.146 . S
O840 Co837 2.042 . S
O840 Co838 2.122 . S
O840 Co839 2.081 1_565 S
O840 H841 0.980 . S
H841 O840 0.980 . S
O842 Co839 2.093 . S
O842 Co843 2.042 . S
O842 Co844 2.122 . S
O842 H845 0.980 . S
Co843 O842 2.042 . S
Co843 O851 2.286 . S
Co843 O852 2.069 . S
Co843 O853 2.015 1_545 S
Co843 O856 2.264 . S
Co844 O842 2.122 . S
Co844 O855 1.976 1_545 S
Co844 O856 2.327 . S
Co844 O857 2.073 . S
H845 O842 0.980 . S
O846 Co838 2.073 . S
O846 C861 1.245 . S
O847 Co837 2.264 . S
O847 Co838 2.327 . S
O847 C861 1.257 . S
O848 Co838 1.976 1_545 S
O848 C860 1.251 . S
O849 Co839 2.115 . S
O849 C860 1.274 . S
O850 Co839 2.141 1_565 S
O850 C863 1.246 . S
O851 Co843 2.286 . S
O851 C862 1.259 . S
O852 Co843 2.069 . S
O852 C862 1.289 . S
O853 Co843 2.015 1_565 S
O853 C863 1.257 . S
O854 Co839 2.108 1_565 S
O854 C864 1.274 . S
O855 Co844 1.976 1_565 S
O855 C864 1.251 . S
O856 Co843 2.264 . S
O856 Co844 2.327 . S
O856 C865 1.257 . S
O857 Co844 2.073 . S
O857 C865 1.245 . S
C858 O866 1.259 . S
C858 O867 1.289 . S
C859 O868 1.246 . S
C859 O869 1.257 . S
C860 O848 1.251 . S
C860 O849 1.274 . S
C861 O846 1.245 . S
C861 O847 1.257 . S
C862 O851 1.259 . S
C862 O852 1.289 . S
C863 O850 1.246 . S
C863 O853 1.257 . S
C864 O854 1.274 . S
C864 O855 1.251 . S
C865 O856 1.257 . S
C865 O857 1.245 . S
O866 Co837 2.286 . S
O866 C858 1.259 . S
O867 Co837 2.069 . S
O867 C858 1.289 . S
O868 Co839 2.146 . S
O868 C859 1.246 . S
O869 Co837 2.015 1_545 S
O869 C859 1.257 . S
H870 C882 0.930 . S
H871 C884 0.930 . S
H872 C885 0.930 . S
H873 C889 0.959 . S
H874 C889 0.959 . S
H875 C889 0.961 . S
H876 C890 0.960 . S
H877 C890 0.961 . S
H878 C890 0.959 . S
H879 C893 0.929 . S
H880 C894 0.931 . S
H881 C896 0.930 . S
C882 H870 0.930 . S
C882 C883 1.399 . S
C882 C887 1.399 . S
C883 C882 1.399 . S
C883 C884 1.376 . S
C884 H871 0.930 . S
C884 C883 1.376 . S
C884 C885 1.388 . S
C885 H872 0.930 . S
C885 C884 1.388 . S
C885 C886 1.390 . S
C886 C885 1.390 . S
C886 C887 1.394 . S
C886 C892 1.465 . S
C887 C882 1.399 . S
C887 C886 1.394 . S
C887 C888 1.516 . S
C888 C887 1.516 . S
C888 C889 1.502 . S
C888 C890 1.561 . S
C888 C891 1.526 . S
C889 H873 0.959 . S
C889 H874 0.959 . S
C889 H875 0.961 . S
C889 C888 1.502 . S
C890 H876 0.960 . S
C890 H877 0.961 . S
C890 H878 0.959 . S
C890 C888 1.561 . S
C891 C888 1.526 . S
C891 C892 1.396 . S
C891 C896 1.390 . S
C892 C886 1.465 . S
C892 C891 1.396 . S
C892 C893 1.399 . S
C893 H879 0.929 . S
C893 C892 1.399 . S
C893 C894 1.385 . S
C894 H880 0.931 . S
C894 C893 1.385 . S
C894 C895 1.389 . S
C895 C894 1.389 . S
C895 C896 1.387 . S
C896 H881 0.930 . S
C896 C891 1.390 . S
C896 C895 1.387 . S
H897 C909 0.930 . S
H898 C911 0.930 . S
H899 C912 0.930 . S
H900 C916 0.959 . S
H901 C916 0.959 . S
H902 C916 0.961 . S
H903 C917 0.960 . S
H904 C917 0.961 . S
H905 C917 0.959 . S
H906 C920 0.929 . S
H907 C921 0.931 . S
H908 C923 0.930 . S
C909 H897 0.930 . S
C909 C910 1.399 . S
C909 C914 1.399 . S
C910 C909 1.399 . S
C910 C911 1.376 . S
C911 H898 0.930 . S
C911 C910 1.376 . S
C911 C912 1.388 . S
C912 H899 0.930 . S
C912 C911 1.388 . S
C912 C913 1.390 . S
C913 C912 1.390 . S
C913 C914 1.394 . S
C913 C919 1.465 . S
C914 C909 1.399 . S
C914 C913 1.394 . S
C914 C915 1.516 . S
C915 C914 1.516 . S
C915 C916 1.502 . S
C915 C917 1.561 . S
C915 C918 1.526 . S
C916 H900 0.959 . S
C916 H901 0.959 . S
C916 H902 0.961 . S
C916 C915 1.502 . S
C917 H903 0.960 . S
C917 H904 0.961 . S
C917 H905 0.959 . S
C917 C915 1.561 . S
C918 C915 1.526 . S
C918 C919 1.396 . S
C918 C923 1.390 . S
C919 C913 1.465 . S
C919 C918 1.396 . S
C919 C920 1.399 . S
C920 H906 0.929 . S
C920 C919 1.399 . S
C920 C921 1.385 . S
C921 H907 0.931 . S
C921 C920 1.385 . S
C921 C922 1.389 . S
C922 C921 1.389 . S
C922 C923 1.387 . S
C923 H908 0.930 . S
C923 C918 1.390 . S
C923 C922 1.387 . S
H924 C936 0.930 . S
H925 C938 0.930 . S
H926 C939 0.930 . S
H927 C943 0.959 . S
H928 C943 0.959 . S
H929 C943 0.961 . S
H930 C944 0.960 . S
H931 C944 0.961 . S
H932 C944 0.959 . S
H933 C947 0.929 . S
H934 C948 0.931 . S
H935 C950 0.930 . S
C936 H924 0.930 . S
C936 C937 1.399 . S
C936 C941 1.399 . S
C937 C936 1.399 . S
C937 C938 1.376 . S
C938 H925 0.930 . S
C938 C937 1.376 . S
C938 C939 1.388 . S
C939 H926 0.930 . S
C939 C938 1.388 . S
C939 C940 1.390 . S
C940 C939 1.390 . S
C940 C941 1.394 . S
C940 C946 1.465 . S
C941 C936 1.399 . S
C941 C940 1.394 . S
C941 C942 1.516 . S
C942 C941 1.516 . S
C942 C943 1.502 . S
C942 C944 1.561 . S
C942 C945 1.526 . S
C943 H927 0.959 . S
C943 H928 0.959 . S
C943 H929 0.961 . S
C943 C942 1.502 . S
C944 H930 0.960 . S
C944 H931 0.961 . S
C944 H932 0.959 . S
C944 C942 1.561 . S
C945 C942 1.526 . S
C945 C946 1.396 . S
C945 C950 1.390 . S
C946 C940 1.465 . S
C946 C945 1.396 . S
C946 C947 1.399 . S
C947 H933 0.929 . S
C947 C946 1.399 . S
C947 C948 1.385 . S
C948 H934 0.931 . S
C948 C947 1.385 . S
C948 C949 1.389 . S
C949 C948 1.389 . S
C949 C950 1.387 . S
C950 H935 0.930 . S
C950 C945 1.390 . S
C950 C949 1.387 . S
H951 C963 0.930 . S
H952 C965 0.930 . S
H953 C966 0.930 . S
H954 C970 0.959 . S
H955 C970 0.959 . S
H956 C970 0.961 . S
H957 C971 0.960 . S
H958 C971 0.961 . S
H959 C971 0.959 . S
H960 C974 0.929 . S
H961 C975 0.931 . S
H962 C977 0.930 . S
C963 H951 0.930 . S
C963 C964 1.399 . S
C963 C968 1.399 . S
C964 C963 1.399 . S
C964 C965 1.376 . S
C965 H952 0.930 . S
C965 C964 1.376 . S
C965 C966 1.388 . S
C966 H953 0.930 . S
C966 C965 1.388 . S
C966 C967 1.390 . S
C967 C966 1.390 . S
C967 C968 1.394 . S
C967 C973 1.465 . S
C968 C963 1.399 . S
C968 C967 1.394 . S
C968 C969 1.516 . S
C969 C968 1.516 . S
C969 C970 1.502 . S
C969 C971 1.561 . S
C969 C972 1.526 . S
C970 H954 0.959 . S
C970 H955 0.959 . S
C970 H956 0.961 . S
C970 C969 1.502 . S
C971 H957 0.960 . S
C971 H958 0.961 . S
C971 H959 0.959 . S
C971 C969 1.561 . S
C972 C969 1.526 . S
C972 C973 1.396 . S
C972 C977 1.390 . S
C973 C967 1.465 . S
C973 C972 1.396 . S
C973 C974 1.399 . S
C974 H960 0.929 . S
C974 C973 1.399 . S
C974 C975 1.385 . S
C975 H961 0.931 . S
C975 C974 1.385 . S
C975 C976 1.389 . S
C976 C975 1.389 . S
C976 C977 1.387 . S
C977 H962 0.930 . S
C977 C972 1.390 . S
C977 C976 1.387 . S
H978 C990 0.930 . S
H979 C992 0.930 . S
H980 C993 0.930 . S
H981 C997 0.959 . S
H982 C997 0.959 . S
H983 C997 0.961 . S
H984 C998 0.960 . S
H985 C998 0.961 . S
H986 C998 0.959 . S
H987 C1001 0.929 . S
H988 C1002 0.931 . S
H989 C1004 0.930 . S
C990 H978 0.930 . S
C990 C991 1.399 . S
C990 C995 1.399 . S
C991 C990 1.399 . S
C991 C992 1.376 . S
C992 H979 0.930 . S
C992 C991 1.376 . S
C992 C993 1.388 . S
C993 H980 0.930 . S
C993 C992 1.388 . S
C993 C994 1.390 . S
C994 C993 1.390 . S
C994 C995 1.394 . S
C994 C1000 1.465 . S
C995 C990 1.399 . S
C995 C994 1.394 . S
C995 C996 1.516 . S
C996 C995 1.516 . S
C996 C997 1.502 . S
C996 C998 1.561 . S
C996 C999 1.526 . S
C997 H981 0.959 . S
C997 H982 0.959 . S
C997 H983 0.961 . S
C997 C996 1.502 . S
C998 H984 0.960 . S
C998 H985 0.961 . S
C998 H986 0.959 . S
C998 C996 1.561 . S
C999 C996 1.526 . S
C999 C1000 1.396 . S
C999 C1004 1.390 . S
C1000 C994 1.465 . S
C1000 C999 1.396 . S
C1000 C1001 1.399 . S
C1001 H987 0.929 . S
C1001 C1000 1.399 . S
C1001 C1002 1.385 . S
C1002 H988 0.931 . S
C1002 C1001 1.385 . S
C1002 C1003 1.389 . S
C1003 C1002 1.389 . S
C1003 C1004 1.387 . S
C1004 H989 0.930 . S
C1004 C999 1.390 . S
C1004 C1003 1.387 . S
H1005 C1017 0.930 . S
H1006 C1019 0.930 . S
H1007 C1020 0.930 . S
H1008 C1024 0.959 . S
H1009 C1024 0.959 . S
H1010 C1024 0.961 . S
H1011 C1025 0.960 . S
H1012 C1025 0.961 . S
H1013 C1025 0.959 . S
H1014 C1028 0.929 . S
H1015 C1029 0.931 . S
H1016 C1031 0.930 . S
C1017 H1005 0.930 . S
C1017 C1018 1.399 . S
C1017 C1022 1.399 . S
C1018 C1017 1.399 . S
C1018 C1019 1.376 . S
C1019 H1006 0.930 . S
C1019 C1018 1.376 . S
C1019 C1020 1.388 . S
C1020 H1007 0.930 . S
C1020 C1019 1.388 . S
C1020 C1021 1.390 . S
C1021 C1020 1.390 . S
C1021 C1022 1.394 . S
C1021 C1027 1.465 . S
C1022 C1017 1.399 . S
C1022 C1021 1.394 . S
C1022 C1023 1.516 . S
C1023 C1022 1.516 . S
C1023 C1024 1.502 . S
C1023 C1025 1.561 . S
C1023 C1026 1.526 . S
C1024 H1008 0.959 . S
C1024 H1009 0.959 . S
C1024 H1010 0.961 . S
C1024 C1023 1.502 . S
C1025 H1011 0.960 . S
C1025 H1012 0.961 . S
C1025 H1013 0.959 . S
C1025 C1023 1.561 . S
C1026 C1023 1.526 . S
C1026 C1027 1.396 . S
C1026 C1031 1.390 . S
C1027 C1021 1.465 . S
C1027 C1026 1.396 . S
C1027 C1028 1.399 . S
C1028 H1014 0.929 . S
C1028 C1027 1.399 . S
C1028 C1029 1.385 . S
C1029 H1015 0.931 . S
C1029 C1028 1.385 . S
C1029 C1030 1.389 . S
C1030 C1029 1.389 . S
C1030 C1031 1.387 . S
C1031 H1016 0.930 . S
C1031 C1026 1.390 . S
C1031 C1030 1.387 . S
H1032 C1044 0.930 . S
H1033 C1046 0.930 . S
H1034 C1047 0.930 . S
H1035 C1051 0.959 . S
H1036 C1051 0.959 . S
H1037 C1051 0.961 . S
H1038 C1052 0.960 . S
H1039 C1052 0.961 . S
H1040 C1052 0.959 . S
H1041 C1055 0.929 . S
H1042 C1056 0.931 . S
H1043 C1058 0.930 . S
C1044 H1032 0.930 . S
C1044 C1045 1.399 . S
C1044 C1049 1.399 . S
C1045 C1044 1.399 . S
C1045 C1046 1.376 . S
C1046 H1033 0.930 . S
C1046 C1045 1.376 . S
C1046 C1047 1.388 . S
C1047 H1034 0.930 . S
C1047 C1046 1.388 . S
C1047 C1048 1.390 . S
C1048 C1047 1.390 . S
C1048 C1049 1.394 . S
C1048 C1054 1.465 . S
C1049 C1044 1.399 . S
C1049 C1048 1.394 . S
C1049 C1050 1.516 . S
C1050 C1049 1.516 . S
C1050 C1051 1.502 . S
C1050 C1052 1.561 . S
C1050 C1053 1.526 . S
C1051 H1035 0.959 . S
C1051 H1036 0.959 . S
C1051 H1037 0.961 . S
C1051 C1050 1.502 . S
C1052 H1038 0.960 . S
C1052 H1039 0.961 . S
C1052 H1040 0.959 . S
C1052 C1050 1.561 . S
C1053 C1050 1.526 . S
C1053 C1054 1.396 . S
C1053 C1058 1.390 . S
C1054 C1048 1.465 . S
C1054 C1053 1.396 . S
C1054 C1055 1.399 . S
C1055 H1041 0.929 . S
C1055 C1054 1.399 . S
C1055 C1056 1.385 . S
C1056 H1042 0.931 . S
C1056 C1055 1.385 . S
C1056 C1057 1.389 . S
C1057 C1056 1.389 . S
C1057 C1058 1.387 . S
C1058 H1043 0.930 . S
C1058 C1053 1.390 . S
C1058 C1057 1.387 . S
H1059 C1071 0.930 . S
H1060 C1073 0.930 . S
H1061 C1074 0.930 . S
H1062 C1078 0.959 . S
H1063 C1078 0.959 . S
H1064 C1078 0.961 . S
H1065 C1079 0.960 . S
H1066 C1079 0.961 . S
H1067 C1079 0.959 . S
H1068 C1082 0.929 . S
H1069 C1083 0.931 . S
H1070 C1085 0.930 . S
C1071 H1059 0.930 . S
C1071 C1072 1.399 . S
C1071 C1076 1.399 . S
C1072 C1071 1.399 . S
C1072 C1073 1.376 . S
C1073 H1060 0.930 . S
C1073 C1072 1.376 . S
C1073 C1074 1.388 . S
C1074 H1061 0.930 . S
C1074 C1073 1.388 . S
C1074 C1075 1.390 . S
C1075 C1074 1.390 . S
C1075 C1076 1.394 . S
C1075 C1081 1.465 . S
C1076 C1071 1.399 . S
C1076 C1075 1.394 . S
C1076 C1077 1.516 . S
C1077 C1076 1.516 . S
C1077 C1078 1.502 . S
C1077 C1079 1.561 . S
C1077 C1080 1.526 . S
C1078 H1062 0.959 . S
C1078 H1063 0.959 . S
C1078 H1064 0.961 . S
C1078 C1077 1.502 . S
C1079 H1065 0.960 . S
C1079 H1066 0.961 . S
C1079 H1067 0.959 . S
C1079 C1077 1.561 . S
C1080 C1077 1.526 . S
C1080 C1081 1.396 . S
C1080 C1085 1.390 . S
C1081 C1075 1.465 . S
C1081 C1080 1.396 . S
C1081 C1082 1.399 . S
C1082 H1068 0.929 . S
C1082 C1081 1.399 . S
C1082 C1083 1.385 . S
C1083 H1069 0.931 . S
C1083 C1082 1.385 . S
C1083 C1084 1.389 . S
C1084 C1083 1.389 . S
C1084 C1085 1.387 . S
C1085 H1070 0.930 . S
C1085 C1080 1.390 . S
C1085 C1084 1.387 . S
H1086 C1098 0.930 . S
H1087 C1100 0.930 . S
H1088 C1101 0.930 . S
H1089 C1105 0.959 . S
H1090 C1105 0.959 . S
H1091 C1105 0.961 . S
H1092 C1106 0.960 . S
H1093 C1106 0.961 . S
H1094 C1106 0.959 . S
H1095 C1109 0.929 . S
H1096 C1110 0.909 1_556 S
H1097 C1112 0.930 . S
C1098 H1086 0.930 . S
C1098 C1099 1.399 . S
C1098 C1103 1.399 . S
C1099 C1098 1.399 . S
C1099 C1100 1.376 . S
C1100 H1087 0.930 . S
C1100 C1099 1.376 . S
C1100 C1101 1.388 . S
C1101 H1088 0.930 . S
C1101 C1100 1.388 . S
C1101 C1102 1.390 . S
C1102 C1101 1.390 . S
C1102 C1103 1.394 . S
C1102 C1108 1.465 . S
C1103 C1098 1.399 . S
C1103 C1102 1.394 . S
C1103 C1104 1.516 . S
C1104 C1103 1.516 . S
C1104 C1105 1.502 . S
C1104 C1106 1.561 . S
C1104 C1107 1.526 . S
C1105 H1089 0.959 . S
C1105 H1090 0.959 . S
C1105 H1091 0.961 . S
C1105 C1104 1.502 . S
C1106 H1092 0.960 . S
C1106 H1093 0.961 . S
C1106 H1094 0.959 . S
C1106 C1104 1.561 . S
C1107 C1104 1.526 . S
C1107 C1108 1.396 . S
C1107 C1112 1.390 . S
C1108 C1102 1.465 . S
C1108 C1107 1.396 . S
C1108 C1109 1.399 . S
C1109 H1095 0.929 . S
C1109 C1108 1.399 . S
C1109 C1110 1.385 . S
C1110 H1096 0.909 1_554 S
C1110 C1109 1.385 . S
C1110 C1111 1.389 . S
C1111 C1110 1.389 . S
C1111 C1112 1.387 . S
C1112 H1097 0.930 . S
C1112 C1107 1.390 . S
C1112 C1111 1.387 . S
H1113 C1125 0.930 . S
H1114 C1127 0.930 . S
H1115 C1128 0.930 . S
H1116 C1132 0.959 . S
H1117 C1132 0.959 . S
H1118 C1132 0.961 . S
H1119 C1133 0.960 . S
H1120 C1133 0.961 . S
H1121 C1133 0.959 . S
H1122 C1136 0.929 . S
H1123 C1137 0.931 . S
H1124 C1139 0.930 . S
C1125 H1113 0.930 . S
C1125 C1126 1.399 . S
C1125 C1130 1.399 . S
C1126 C1125 1.399 . S
C1126 C1127 1.376 . S
C1127 H1114 0.930 . S
C1127 C1126 1.376 . S
C1127 C1128 1.388 . S
C1128 H1115 0.930 . S
C1128 C1127 1.388 . S
C1128 C1129 1.390 . S
C1129 C1128 1.390 . S
C1129 C1130 1.394 . S
C1129 C1135 1.465 . S
C1130 C1125 1.399 . S
C1130 C1129 1.394 . S
C1130 C1131 1.516 . S
C1131 C1130 1.516 . S
C1131 C1132 1.502 . S
C1131 C1133 1.561 . S
C1131 C1134 1.526 . S
C1132 H1116 0.959 . S
C1132 H1117 0.959 . S
C1132 H1118 0.961 . S
C1132 C1131 1.502 . S
C1133 H1119 0.960 . S
C1133 H1120 0.961 . S
C1133 H1121 0.959 . S
C1133 C1131 1.561 . S
C1134 C1131 1.526 . S
C1134 C1135 1.396 . S
C1134 C1139 1.390 . S
C1135 C1129 1.465 . S
C1135 C1134 1.396 . S
C1135 C1136 1.399 . S
C1136 H1122 0.929 . S
C1136 C1135 1.399 . S
C1136 C1137 1.385 . S
C1137 H1123 0.931 . S
C1137 C1136 1.385 . S
C1137 C1138 1.389 . S
C1138 C1137 1.389 . S
C1138 C1139 1.387 . S
C1139 H1124 0.930 . S
C1139 C1134 1.390 . S
C1139 C1138 1.387 . S
H1140 C1152 0.930 . S
H1141 C1154 0.930 . S
H1142 C1155 0.930 . S
H1143 C1159 0.959 . S
H1144 C1159 0.959 . S
H1145 C1159 0.961 . S
H1146 C1160 0.960 . S
H1147 C1160 0.961 . S
H1148 C1160 0.959 . S
H1149 C1163 0.929 . S
H1150 C1164 0.931 . S
H1151 C1166 0.930 . S
C1152 H1140 0.930 . S
C1152 C1153 1.399 . S
C1152 C1157 1.399 . S
C1153 C1152 1.399 . S
C1153 C1154 1.376 . S
C1154 H1141 0.930 . S
C1154 C1153 1.376 . S
C1154 C1155 1.388 . S
C1155 H1142 0.930 . S
C1155 C1154 1.388 . S
C1155 C1156 1.390 . S
C1156 C1155 1.390 . S
C1156 C1157 1.394 . S
C1156 C1162 1.465 . S
C1157 C1152 1.399 . S
C1157 C1156 1.394 . S
C1157 C1158 1.516 . S
C1158 C1157 1.516 . S
C1158 C1159 1.502 . S
C1158 C1160 1.561 . S
C1158 C1161 1.526 . S
C1159 H1143 0.959 . S
C1159 H1144 0.959 . S
C1159 H1145 0.961 . S
C1159 C1158 1.502 . S
C1160 H1146 0.960 . S
C1160 H1147 0.961 . S
C1160 H1148 0.959 . S
C1160 C1158 1.561 . S
C1161 C1158 1.526 . S
C1161 C1162 1.396 . S
C1161 C1166 1.390 . S
C1162 C1156 1.465 . S
C1162 C1161 1.396 . S
C1162 C1163 1.399 . S
C1163 H1149 0.929 . S
C1163 C1162 1.399 . S
C1163 C1164 1.385 . S
C1164 H1150 0.931 . S
C1164 C1163 1.385 . S
C1164 C1165 1.389 . S
C1165 C1164 1.389 . S
C1165 C1166 1.387 . S
C1166 H1151 0.930 . S
C1166 C1161 1.390 . S
C1166 C1165 1.387 . S
H1167 C1179 0.930 . S
H1168 C1181 0.930 . S
H1169 C1182 0.930 . S
H1170 C1186 0.959 . S
H1171 C1186 0.959 . S
H1172 C1186 0.961 . S
H1173 C1187 0.960 . S
H1174 C1187 0.961 . S
H1175 C1187 0.959 . S
H1176 C1190 0.929 . S
H1177 C1191 0.931 . S
H1178 C1193 0.930 . S
C1179 H1167 0.930 . S
C1179 C1180 1.399 . S
C1179 C1184 1.399 . S
C1180 C1179 1.399 . S
C1180 C1181 1.376 . S
C1181 H1168 0.930 . S
C1181 C1180 1.376 . S
C1181 C1182 1.388 . S
C1182 H1169 0.930 . S
C1182 C1181 1.388 . S
C1182 C1183 1.390 . S
C1183 C1182 1.390 . S
C1183 C1184 1.394 . S
C1183 C1189 1.465 . S
C1184 C1179 1.399 . S
C1184 C1183 1.394 . S
C1184 C1185 1.516 . S
C1185 C1184 1.516 . S
C1185 C1186 1.502 . S
C1185 C1187 1.561 . S
C1185 C1188 1.526 . S
C1186 H1170 0.959 . S
C1186 H1171 0.959 . S
C1186 H1172 0.961 . S
C1186 C1185 1.502 . S
C1187 H1173 0.960 . S
C1187 H1174 0.961 . S
C1187 H1175 0.959 . S
C1187 C1185 1.561 . S
C1188 C1185 1.526 . S
C1188 C1189 1.396 . S
C1188 C1193 1.390 . S
C1189 C1183 1.465 . S
C1189 C1188 1.396 . S
C1189 C1190 1.399 . S
C1190 H1176 0.929 . S
C1190 C1189 1.399 . S
C1190 C1191 1.385 . S
C1191 H1177 0.931 . S
C1191 C1190 1.385 . S
C1191 C1192 1.389 . S
C1192 C1191 1.389 . S
C1192 C1193 1.387 . S
C1193 H1178 0.930 . S
C1193 C1188 1.390 . S
C1193 C1192 1.387 . S
H1194 C1206 0.930 . S
H1195 C1208 0.930 . S
H1196 C1209 0.930 . S
H1197 C1213 0.959 . S
H1198 C1213 0.959 . S
H1199 C1213 0.961 . S
H1200 C1214 0.960 . S
H1201 C1214 0.961 . S
H1202 C1214 0.959 . S
H1203 C1217 0.929 . S
H1204 C1218 0.931 . S
H1205 C1220 0.930 . S
C1206 H1194 0.930 . S
C1206 C1207 1.399 . S
C1206 C1211 1.399 . S
C1207 C1206 1.399 . S
C1207 C1208 1.376 . S
C1208 H1195 0.930 . S
C1208 C1207 1.376 . S
C1208 C1209 1.388 . S
C1209 H1196 0.930 . S
C1209 C1208 1.388 . S
C1209 C1210 1.390 . S
C1210 C1209 1.390 . S
C1210 C1211 1.394 . S
C1210 C1216 1.465 . S
C1211 C1206 1.399 . S
C1211 C1210 1.394 . S
C1211 C1212 1.516 . S
C1212 C1211 1.516 . S
C1212 C1213 1.502 . S
C1212 C1214 1.561 . S
C1212 C1215 1.526 . S
C1213 H1197 0.959 . S
C1213 H1198 0.959 . S
C1213 H1199 0.961 . S
C1213 C1212 1.502 . S
C1214 H1200 0.960 . S
C1214 H1201 0.961 . S
C1214 H1202 0.959 . S
C1214 C1212 1.561 . S
C1215 C1212 1.526 . S
C1215 C1216 1.396 . S
C1215 C1220 1.390 . S
C1216 C1210 1.465 . S
C1216 C1215 1.396 . S
C1216 C1217 1.399 . S
C1217 H1203 0.929 . S
C1217 C1216 1.399 . S
C1217 C1218 1.385 . S
C1218 H1204 0.931 . S
C1218 C1217 1.385 . S
C1218 C1219 1.389 . S
C1219 C1218 1.389 . S
C1219 C1220 1.387 . S
C1220 H1205 0.930 . S
C1220 C1215 1.390 . S
C1220 C1219 1.387 . S
H1221 C1233 0.930 . S
H1222 C1235 0.930 . S
H1223 C1236 0.930 . S
H1224 C1240 0.959 . S
H1225 C1240 0.959 . S
H1226 C1240 0.961 . S
H1227 C1241 0.960 . S
H1228 C1241 0.961 . S
H1229 C1241 0.959 . S
H1230 C1244 0.929 . S
H1231 C1245 0.931 . S
H1232 C1247 0.930 . S
C1233 H1221 0.930 . S
C1233 C1234 1.399 . S
C1233 C1238 1.399 . S
C1234 C1233 1.399 . S
C1234 C1235 1.376 . S
C1235 H1222 0.930 . S
C1235 C1234 1.376 . S
C1235 C1236 1.388 . S
C1236 H1223 0.930 . S
C1236 C1235 1.388 . S
C1236 C1237 1.390 . S
C1237 C1236 1.390 . S
C1237 C1238 1.394 . S
C1237 C1243 1.465 . S
C1238 C1233 1.399 . S
C1238 C1237 1.394 . S
C1238 C1239 1.516 . S
C1239 C1238 1.516 . S
C1239 C1240 1.502 . S
C1239 C1241 1.561 . S
C1239 C1242 1.526 . S
C1240 H1224 0.959 . S
C1240 H1225 0.959 . S
C1240 H1226 0.961 . S
C1240 C1239 1.502 . S
C1241 H1227 0.960 . S
C1241 H1228 0.961 . S
C1241 H1229 0.959 . S
C1241 C1239 1.561 . S
C1242 C1239 1.526 . S
C1242 C1243 1.396 . S
C1242 C1247 1.390 . S
C1243 C1237 1.465 . S
C1243 C1242 1.396 . S
C1243 C1244 1.399 . S
C1244 H1230 0.929 . S
C1244 C1243 1.399 . S
C1244 C1245 1.385 . S
C1245 H1231 0.931 . S
C1245 C1244 1.385 . S
C1245 C1246 1.389 . S
C1246 C1245 1.389 . S
C1246 C1247 1.387 . S
C1247 H1232 0.930 . S
C1247 C1242 1.390 . S
C1247 C1246 1.387 . S
H1248 C1260 0.930 . S
H1249 C1262 0.930 . S
H1250 C1263 0.930 . S
H1251 C1267 0.959 . S
H1252 C1267 0.959 . S
H1253 C1267 0.961 . S
H1254 C1268 0.960 . S
H1255 C1268 0.961 . S
H1256 C1268 0.959 . S
H1257 C1271 0.929 . S
H1258 C1272 0.931 . S
H1259 C1274 0.930 . S
C1260 H1248 0.930 . S
C1260 C1261 1.399 . S
C1260 C1265 1.399 . S
C1261 C1260 1.399 . S
C1261 C1262 1.376 . S
C1262 H1249 0.930 . S
C1262 C1261 1.376 . S
C1262 C1263 1.388 . S
C1263 H1250 0.930 . S
C1263 C1262 1.388 . S
C1263 C1264 1.390 . S
C1264 C1263 1.390 . S
C1264 C1265 1.394 . S
C1264 C1270 1.465 . S
C1265 C1260 1.399 . S
C1265 C1264 1.394 . S
C1265 C1266 1.516 . S
C1266 C1265 1.516 . S
C1266 C1267 1.502 . S
C1266 C1268 1.561 . S
C1266 C1269 1.526 . S
C1267 H1251 0.959 . S
C1267 H1252 0.959 . S
C1267 H1253 0.961 . S
C1267 C1266 1.502 . S
C1268 H1254 0.960 . S
C1268 H1255 0.961 . S
C1268 H1256 0.959 . S
C1268 C1266 1.561 . S
C1269 C1266 1.526 . S
C1269 C1270 1.396 . S
C1269 C1274 1.390 . S
C1270 C1264 1.465 . S
C1270 C1269 1.396 . S
C1270 C1271 1.399 . S
C1271 H1257 0.929 . S
C1271 C1270 1.399 . S
C1271 C1272 1.385 . S
C1272 H1258 0.931 . S
C1272 C1271 1.385 . S
C1272 C1273 1.389 . S
C1273 C1272 1.389 . S
C1273 C1274 1.387 . S
C1274 H1259 0.930 . S
C1274 C1269 1.390 . S
C1274 C1273 1.387 . S
H1275 C1287 0.930 . S
H1276 C1289 0.930 . S
H1277 C1290 0.930 . S
H1278 C1294 0.959 . S
H1279 C1294 0.959 . S
H1280 C1294 0.961 . S
H1281 C1295 0.960 . S
H1282 C1295 0.961 . S
H1283 C1295 0.959 . S
H1284 C1298 0.929 . S
H1285 C1299 0.931 . S
H1286 C1301 0.930 . S
C1287 H1275 0.930 . S
C1287 C1288 1.399 . S
C1287 C1292 1.399 . S
C1288 C1287 1.399 . S
C1288 C1289 1.376 . S
C1289 H1276 0.930 . S
C1289 C1288 1.376 . S
C1289 C1290 1.388 . S
C1290 H1277 0.930 . S
C1290 C1289 1.388 . S
C1290 C1291 1.390 . S
C1291 C1290 1.390 . S
C1291 C1292 1.394 . S
C1291 C1297 1.465 . S
C1292 C1287 1.399 . S
C1292 C1291 1.394 . S
C1292 C1293 1.516 . S
C1293 C1292 1.516 . S
C1293 C1294 1.502 . S
C1293 C1295 1.561 . S
C1293 C1296 1.526 . S
C1294 H1278 0.959 . S
C1294 H1279 0.959 . S
C1294 H1280 0.961 . S
C1294 C1293 1.502 . S
C1295 H1281 0.960 . S
C1295 H1282 0.961 . S
C1295 H1283 0.959 . S
C1295 C1293 1.561 . S
C1296 C1293 1.526 . S
C1296 C1297 1.396 . S
C1296 C1301 1.390 . S
C1297 C1291 1.465 . S
C1297 C1296 1.396 . S
C1297 C1298 1.399 . S
C1298 H1284 0.929 . S
C1298 C1297 1.399 . S
C1298 C1299 1.385 . S
C1299 H1285 0.931 . S
C1299 C1298 1.385 . S
C1299 C1300 1.389 . S
C1300 C1299 1.389 . S
C1300 C1301 1.387 . S
C1301 H1286 0.930 . S
C1301 C1296 1.390 . S
C1301 C1300 1.387 . S
H1302 C1314 0.930 . S
H1303 C1316 0.930 . S
H1304 C1317 0.930 . S
H1305 C1321 0.959 . S
H1306 C1321 0.959 . S
H1307 C1321 0.961 . S
H1308 C1322 0.960 . S
H1309 C1322 0.961 . S
H1310 C1322 0.959 . S
H1311 C1325 0.929 . S
H1312 C1326 0.931 . S
H1313 C1328 0.930 . S
C1314 H1302 0.930 . S
C1314 C1315 1.399 . S
C1314 C1319 1.399 . S
C1315 C1314 1.399 . S
C1315 C1316 1.376 . S
C1316 H1303 0.930 . S
C1316 C1315 1.376 . S
C1316 C1317 1.388 . S
C1317 H1304 0.930 . S
C1317 C1316 1.388 . S
C1317 C1318 1.390 . S
C1318 C1317 1.390 . S
C1318 C1319 1.394 . S
C1318 C1324 1.465 . S
C1319 C1314 1.399 . S
C1319 C1318 1.394 . S
C1319 C1320 1.516 . S
C1320 C1319 1.516 . S
C1320 C1321 1.502 . S
C1320 C1322 1.561 . S
C1320 C1323 1.526 . S
C1321 H1305 0.959 . S
C1321 H1306 0.959 . S
C1321 H1307 0.961 . S
C1321 C1320 1.502 . S
C1322 H1308 0.960 . S
C1322 H1309 0.961 . S
C1322 H1310 0.959 . S
C1322 C1320 1.561 . S
C1323 C1320 1.526 . S
C1323 C1324 1.396 . S
C1323 C1328 1.390 . S
C1324 C1318 1.465 . S
C1324 C1323 1.396 . S
C1324 C1325 1.399 . S
C1325 H1311 0.929 . S
C1325 C1324 1.399 . S
C1325 C1326 1.385 . S
C1326 H1312 0.931 . S
C1326 C1325 1.385 . S
C1326 C1327 1.389 . S
C1327 C1326 1.389 . S
C1327 C1328 1.387 . S
C1328 H1313 0.930 . S
C1328 C1323 1.390 . S
C1328 C1327 1.387 . S
H1329 C1341 0.930 . S
H1330 C1343 0.930 . S
H1331 C1344 0.930 . S
H1332 C1348 0.959 . S
H1333 C1348 0.959 . S
H1334 C1348 0.961 . S
H1335 C1349 0.960 . S
H1336 C1349 0.961 . S
H1337 C1349 0.959 . S
H1338 C1352 0.929 . S
H1339 C1353 0.931 . S
H1340 C1355 0.930 . S
C1341 H1329 0.930 . S
C1341 C1342 1.399 . S
C1341 C1346 1.399 . S
C1342 C1341 1.399 . S
C1342 C1343 1.376 . S
C1343 H1330 0.930 . S
C1343 C1342 1.376 . S
C1343 C1344 1.388 . S
C1344 H1331 0.930 . S
C1344 C1343 1.388 . S
C1344 C1345 1.390 . S
C1345 C1344 1.390 . S
C1345 C1346 1.394 . S
C1345 C1351 1.465 . S
C1346 C1341 1.399 . S
C1346 C1345 1.394 . S
C1346 C1347 1.516 . S
C1347 C1346 1.516 . S
C1347 C1348 1.502 . S
C1347 C1349 1.561 . S
C1347 C1350 1.526 . S
C1348 H1332 0.959 . S
C1348 H1333 0.959 . S
C1348 H1334 0.961 . S
C1348 C1347 1.502 . S
C1349 H1335 0.960 . S
C1349 H1336 0.961 . S
C1349 H1337 0.959 . S
C1349 C1347 1.561 . S
C1350 C1347 1.526 . S
C1350 C1351 1.396 . S
C1350 C1355 1.390 . S
C1351 C1345 1.465 . S
C1351 C1350 1.396 . S
C1351 C1352 1.399 . S
C1352 H1338 0.929 . S
C1352 C1351 1.399 . S
C1352 C1353 1.385 . S
C1353 H1339 0.931 . S
C1353 C1352 1.385 . S
C1353 C1354 1.389 . S
C1354 C1353 1.389 . S
C1354 C1355 1.387 . S
C1355 H1340 0.930 . S
C1355 C1350 1.390 . S
C1355 C1354 1.387 . S
H1356 C1368 0.930 . S
H1357 C1370 0.930 . S
H1358 C1371 0.930 . S
H1359 C1375 0.959 . S
H1360 C1375 0.959 . S
H1361 C1375 0.961 . S
H1362 C1376 0.960 . S
H1363 C1376 0.961 . S
H1364 C1376 0.959 . S
H1365 C1379 0.929 . S
H1366 C1380 0.931 . S
H1367 C1382 0.930 . S
C1368 H1356 0.930 . S
C1368 C1369 1.399 . S
C1368 C1373 1.399 . S
C1369 C1368 1.399 . S
C1369 C1370 1.376 . S
C1370 H1357 0.930 . S
C1370 C1369 1.376 . S
C1370 C1371 1.388 . S
C1371 H1358 0.930 . S
C1371 C1370 1.388 . S
C1371 C1372 1.390 . S
C1372 C1371 1.390 . S
C1372 C1373 1.394 . S
C1372 C1378 1.465 . S
C1373 C1368 1.399 . S
C1373 C1372 1.394 . S
C1373 C1374 1.516 . S
C1374 C1373 1.516 . S
C1374 C1375 1.502 . S
C1374 C1376 1.561 . S
C1374 C1377 1.526 . S
C1375 H1359 0.959 . S
C1375 H1360 0.959 . S
C1375 H1361 0.961 . S
C1375 C1374 1.502 . S
C1376 H1362 0.960 . S
C1376 H1363 0.961 . S
C1376 H1364 0.959 . S
C1376 C1374 1.561 . S
C1377 C1374 1.526 . S
C1377 C1378 1.396 . S
C1377 C1382 1.390 . S
C1378 C1372 1.465 . S
C1378 C1377 1.396 . S
C1378 C1379 1.399 . S
C1379 H1365 0.929 . S
C1379 C1378 1.399 . S
C1379 C1380 1.385 . S
C1380 H1366 0.931 . S
C1380 C1379 1.385 . S
C1380 C1381 1.389 . S
C1381 C1380 1.389 . S
C1381 C1382 1.387 . S
C1382 H1367 0.930 . S
C1382 C1377 1.390 . S
C1382 C1381 1.387 . S
H1383 C1395 0.930 . S
H1384 C1397 0.930 . S
H1385 C1398 0.930 . S
H1386 C1402 0.959 . S
H1387 C1402 0.959 . S
H1388 C1402 0.961 . S
H1389 C1403 0.960 . S
H1390 C1403 0.961 . S
H1391 C1403 0.959 . S
H1392 C1406 0.929 . S
H1393 C1407 0.931 . S
H1394 C1409 0.930 . S
C1395 H1383 0.930 . S
C1395 C1396 1.399 . S
C1395 C1400 1.399 . S
C1396 C1395 1.399 . S
C1396 C1397 1.376 . S
C1397 H1384 0.930 . S
C1397 C1396 1.376 . S
C1397 C1398 1.388 . S
C1398 H1385 0.930 . S
C1398 C1397 1.388 . S
C1398 C1399 1.390 . S
C1399 C1398 1.390 . S
C1399 C1400 1.394 . S
C1399 C1405 1.465 . S
C1400 C1395 1.399 . S
C1400 C1399 1.394 . S
C1400 C1401 1.516 . S
C1401 C1400 1.516 . S
C1401 C1402 1.502 . S
C1401 C1403 1.561 . S
C1401 C1404 1.526 . S
C1402 H1386 0.959 . S
C1402 H1387 0.959 . S
C1402 H1388 0.961 . S
C1402 C1401 1.502 . S
C1403 H1389 0.960 . S
C1403 H1390 0.961 . S
C1403 H1391 0.959 . S
C1403 C1401 1.561 . S
C1404 C1401 1.526 . S
C1404 C1405 1.396 . S
C1404 C1409 1.390 . S
C1405 C1399 1.465 . S
C1405 C1404 1.396 . S
C1405 C1406 1.399 . S
C1406 H1392 0.929 . S
C1406 C1405 1.399 . S
C1406 C1407 1.385 . S
C1407 H1393 0.931 . S
C1407 C1406 1.385 . S
C1407 C1408 1.389 . S
C1408 C1407 1.389 . S
C1408 C1409 1.387 . S
C1409 H1394 0.930 . S
C1409 C1404 1.390 . S
C1409 C1408 1.387 . S
H1410 C1422 0.930 . S
H1411 C1424 0.930 . S
H1412 C1425 0.930 . S
H1413 C1429 0.959 . S
H1414 C1429 0.959 . S
H1415 C1429 0.961 . S
H1416 C1430 0.960 . S
H1417 C1430 0.961 . S
H1418 C1430 0.959 . S
H1419 C1433 0.929 . S
H1420 C1434 0.931 1_554 S
H1421 C1436 0.930 . S
C1422 H1410 0.930 . S
C1422 C1423 1.399 . S
C1422 C1427 1.399 . S
C1423 C1422 1.399 . S
C1423 C1424 1.376 . S
C1424 H1411 0.930 . S
C1424 C1423 1.376 . S
C1424 C1425 1.388 . S
C1425 H1412 0.930 . S
C1425 C1424 1.388 . S
C1425 C1426 1.390 . S
C1426 C1425 1.390 . S
C1426 C1427 1.394 . S
C1426 C1432 1.465 . S
C1427 C1422 1.399 . S
C1427 C1426 1.394 . S
C1427 C1428 1.516 . S
C1428 C1427 1.516 . S
C1428 C1429 1.502 . S
C1428 C1430 1.561 . S
C1428 C1431 1.526 . S
C1429 H1413 0.959 . S
C1429 H1414 0.959 . S
C1429 H1415 0.961 . S
C1429 C1428 1.502 . S
C1430 H1416 0.960 . S
C1430 H1417 0.961 . S
C1430 H1418 0.959 . S
C1430 C1428 1.561 . S
C1431 C1428 1.526 . S
C1431 C1432 1.396 . S
C1431 C1436 1.390 . S
C1432 C1426 1.465 . S
C1432 C1431 1.396 . S
C1432 C1433 1.399 . S
C1433 H1419 0.929 . S
C1433 C1432 1.399 . S
C1433 C1434 1.385 . S
C1434 H1420 0.931 1_556 S
C1434 C1433 1.385 . S
C1434 C1435 1.389 . S
C1435 C1434 1.389 . S
C1435 C1436 1.387 . S
C1436 H1421 0.930 . S
C1436 C1431 1.390 . S
C1436 C1435 1.387 . S
H1437 C1449 0.930 . S
H1438 C1451 0.930 . S
H1439 C1452 0.930 . S
H1440 C1456 0.959 . S
H1441 C1456 0.959 . S
H1442 C1456 0.961 . S
H1443 C1457 0.960 . S
H1444 C1457 0.961 1_556 S
H1445 C1457 0.959 . S
H1446 C1460 0.929 . S
H1447 C1461 0.931 . S
H1448 C1463 0.930 . S
C1449 H1437 0.930 . S
C1449 C1450 1.399 . S
C1449 C1454 1.399 . S
C1450 C1449 1.399 . S
C1450 C1451 1.376 . S
C1451 H1438 0.930 . S
C1451 C1450 1.376 . S
C1451 C1452 1.388 . S
C1452 H1439 0.930 . S
C1452 C1451 1.388 . S
C1452 C1453 1.390 . S
C1453 C1452 1.390 . S
C1453 C1454 1.394 . S
C1453 C1459 1.465 . S
C1454 C1449 1.399 . S
C1454 C1453 1.394 . S
C1454 C1455 1.516 . S
C1455 C1454 1.516 . S
C1455 C1456 1.502 . S
C1455 C1457 1.561 . S
C1455 C1458 1.526 . S
C1456 H1440 0.959 . S
C1456 H1441 0.959 . S
C1456 H1442 0.961 . S
C1456 C1455 1.502 . S
C1457 H1443 0.960 . S
C1457 H1444 0.961 1_554 S
C1457 H1445 0.959 . S
C1457 C1455 1.561 . S
C1458 C1455 1.526 . S
C1458 C1459 1.396 . S
C1458 C1463 1.390 . S
C1459 C1453 1.465 . S
C1459 C1458 1.396 . S
C1459 C1460 1.399 . S
C1460 H1446 0.929 . S
C1460 C1459 1.399 . S
C1460 C1461 1.385 . S
C1461 H1447 0.931 . S
C1461 C1460 1.385 . S
C1461 C1462 1.389 . S
C1462 C1461 1.389 . S
C1462 C1463 1.387 . S
C1463 H1448 0.930 . S
C1463 C1458 1.390 . S
C1463 C1462 1.387 . S
H1464 C1476 0.930 . S
H1465 C1478 0.930 . S
H1466 C1479 0.930 . S
H1467 C1483 0.959 . S
H1468 C1483 0.959 . S
H1469 C1483 0.961 . S
H1470 C1484 0.960 . S
H1471 C1484 0.961 . S
H1472 C1484 0.959 . S
H1473 C1487 0.929 . S
H1474 C1488 0.931 . S
H1475 C1490 0.930 . S
C1476 H1464 0.930 . S
C1476 C1477 1.399 . S
C1476 C1481 1.399 . S
C1477 C1476 1.399 . S
C1477 C1478 1.376 . S
C1478 H1465 0.930 . S
C1478 C1477 1.376 . S
C1478 C1479 1.388 . S
C1479 H1466 0.930 . S
C1479 C1478 1.388 . S
C1479 C1480 1.390 . S
C1480 C1479 1.390 . S
C1480 C1481 1.394 . S
C1480 C1486 1.465 . S
C1481 C1476 1.399 . S
C1481 C1480 1.394 . S
C1481 C1482 1.516 . S
C1482 C1481 1.516 . S
C1482 C1483 1.502 . S
C1482 C1484 1.561 . S
C1482 C1485 1.526 . S
C1483 H1467 0.959 . S
C1483 H1468 0.959 . S
C1483 H1469 0.961 . S
C1483 C1482 1.502 . S
C1484 H1470 0.960 . S
C1484 H1471 0.961 . S
C1484 H1472 0.959 . S
C1484 C1482 1.561 . S
C1485 C1482 1.526 . S
C1485 C1486 1.396 . S
C1485 C1490 1.390 . S
C1486 C1480 1.465 . S
C1486 C1485 1.396 . S
C1486 C1487 1.399 . S
C1487 H1473 0.929 . S
C1487 C1486 1.399 . S
C1487 C1488 1.385 . S
C1488 H1474 0.931 . S
C1488 C1487 1.385 . S
C1488 C1489 1.389 . S
C1489 C1488 1.389 . S
C1489 C1490 1.387 . S
C1490 H1475 0.930 . S
C1490 C1485 1.390 . S
C1490 C1489 1.387 . S
H1491 C1503 0.930 . S
H1492 C1505 0.930 . S
H1493 C1506 0.930 . S
H1494 C1510 0.959 . S
H1495 C1510 0.959 . S
H1496 C1510 0.961 . S
H1497 C1511 0.960 . S
H1498 C1511 0.961 . S
H1499 C1511 0.959 . S
H1500 C1514 0.929 . S
H1501 C1515 0.931 . S
H1502 C1517 0.930 . S
C1503 H1491 0.930 . S
C1503 C1504 1.399 . S
C1503 C1508 1.399 . S
C1504 C1503 1.399 . S
C1504 C1505 1.376 . S
C1505 H1492 0.930 . S
C1505 C1504 1.376 . S
C1505 C1506 1.388 . S
C1506 H1493 0.930 . S
C1506 C1505 1.388 . S
C1506 C1507 1.390 . S
C1507 C1506 1.390 . S
C1507 C1508 1.394 . S
C1507 C1513 1.465 . S
C1508 C1503 1.399 . S
C1508 C1507 1.394 . S
C1508 C1509 1.516 . S
C1509 C1508 1.516 . S
C1509 C1510 1.502 . S
C1509 C1511 1.561 . S
C1509 C1512 1.526 . S
C1510 H1494 0.959 . S
C1510 H1495 0.959 . S
C1510 H1496 0.961 . S
C1510 C1509 1.502 . S
C1511 H1497 0.960 . S
C1511 H1498 0.961 . S
C1511 H1499 0.959 . S
C1511 C1509 1.561 . S
C1512 C1509 1.526 . S
C1512 C1513 1.396 . S
C1512 C1517 1.390 . S
C1513 C1507 1.465 . S
C1513 C1512 1.396 . S
C1513 C1514 1.399 . S
C1514 H1500 0.929 . S
C1514 C1513 1.399 . S
C1514 C1515 1.385 . S
C1515 H1501 0.931 . S
C1515 C1514 1.385 . S
C1515 C1516 1.389 . S
C1516 C1515 1.389 . S
C1516 C1517 1.387 . S
C1517 H1502 0.930 . S
C1517 C1512 1.390 . S
C1517 C1516 1.387 . S
H1518 C1530 0.930 . S
H1519 C1532 0.930 . S
H1520 C1533 0.930 . S
H1521 C1537 0.959 . S
H1522 C1537 0.959 . S
H1523 C1537 0.961 . S
H1524 C1538 0.960 . S
H1525 C1538 0.961 . S
H1526 C1538 0.959 . S
H1527 C1541 0.929 . S
H1528 C1542 0.931 . S
H1529 C1544 0.930 . S
C1530 H1518 0.930 . S
C1530 C1531 1.399 . S
C1530 C1535 1.399 . S
C1531 C1530 1.399 . S
C1531 C1532 1.376 . S
C1532 H1519 0.930 . S
C1532 C1531 1.376 . S
C1532 C1533 1.388 . S
C1533 H1520 0.930 . S
C1533 C1532 1.388 . S
C1533 C1534 1.390 . S
C1534 C1533 1.390 . S
C1534 C1535 1.394 . S
C1534 C1540 1.465 . S
C1535 C1530 1.399 . S
C1535 C1534 1.394 . S
C1535 C1536 1.516 . S
C1536 C1535 1.516 . S
C1536 C1537 1.502 . S
C1536 C1538 1.561 . S
C1536 C1539 1.526 . S
C1537 H1521 0.959 . S
C1537 H1522 0.959 . S
C1537 H1523 0.961 . S
C1537 C1536 1.502 . S
C1538 H1524 0.960 . S
C1538 H1525 0.961 . S
C1538 H1526 0.959 . S
C1538 C1536 1.561 . S
C1539 C1536 1.526 . S
C1539 C1540 1.396 . S
C1539 C1544 1.390 . S
C1540 C1534 1.465 . S
C1540 C1539 1.396 . S
C1540 C1541 1.399 . S
C1541 H1527 0.929 . S
C1541 C1540 1.399 . S
C1541 C1542 1.385 . S
C1542 H1528 0.931 . S
C1542 C1541 1.385 . S
C1542 C1543 1.389 . S
C1543 C1542 1.389 . S
C1543 C1544 1.387 . S
C1544 H1529 0.930 . S
C1544 C1539 1.390 . S
C1544 C1543 1.387 . S
H1545 C1557 0.930 . S
H1546 C1559 0.930 . S
H1547 C1560 0.930 . S
H1548 C1564 0.959 . S
H1549 C1564 0.959 . S
H1550 C1564 0.961 . S
H1551 C1565 0.960 . S
H1552 C1565 0.961 . S
H1553 C1565 0.959 . S
H1554 C1568 0.929 . S
H1555 C1569 0.931 . S
H1556 C1571 0.930 . S
C1557 H1545 0.930 . S
C1557 C1558 1.399 . S
C1557 C1562 1.399 . S
C1558 C1557 1.399 . S
C1558 C1559 1.376 . S
C1559 H1546 0.930 . S
C1559 C1558 1.376 . S
C1559 C1560 1.388 . S
C1560 H1547 0.930 . S
C1560 C1559 1.388 . S
C1560 C1561 1.390 . S
C1561 C1560 1.390 . S
C1561 C1562 1.394 . S
C1561 C1567 1.465 . S
C1562 C1557 1.399 . S
C1562 C1561 1.394 . S
C1562 C1563 1.516 . S
C1563 C1562 1.516 . S
C1563 C1564 1.502 . S
C1563 C1565 1.561 . S
C1563 C1566 1.526 . S
C1564 H1548 0.959 . S
C1564 H1549 0.959 . S
C1564 H1550 0.961 . S
C1564 C1563 1.502 . S
C1565 H1551 0.960 . S
C1565 H1552 0.961 . S
C1565 H1553 0.959 . S
C1565 C1563 1.561 . S
C1566 C1563 1.526 . S
C1566 C1567 1.396 . S
C1566 C1571 1.390 . S
C1567 C1561 1.465 . S
C1567 C1566 1.396 . S
C1567 C1568 1.399 . S
C1568 H1554 0.929 . S
C1568 C1567 1.399 . S
C1568 C1569 1.385 . S
C1569 H1555 0.931 . S
C1569 C1568 1.385 . S
C1569 C1570 1.389 . S
C1570 C1569 1.389 . S
C1570 C1571 1.387 . S
C1571 H1556 0.930 . S
C1571 C1566 1.390 . S
C1571 C1570 1.387 . S
H1572 C1584 0.930 . S
H1573 C1586 0.930 . S
H1574 C1587 0.930 . S
H1575 C1591 0.959 . S
H1576 C1591 0.959 . S
H1577 C1591 0.961 . S
H1578 C1592 0.960 . S
H1579 C1592 0.961 . S
H1580 C1592 0.959 . S
H1581 C1595 0.929 . S
H1582 C1596 0.931 . S
H1583 C1598 0.930 . S
C1584 H1572 0.930 . S
C1584 C1585 1.399 . S
C1584 C1589 1.399 . S
C1585 C1584 1.399 . S
C1585 C1586 1.376 . S
C1586 H1573 0.930 . S
C1586 C1585 1.376 . S
C1586 C1587 1.388 . S
C1587 H1574 0.930 . S
C1587 C1586 1.388 . S
C1587 C1588 1.390 . S
C1588 C1587 1.390 . S
C1588 C1589 1.394 . S
C1588 C1594 1.465 . S
C1589 C1584 1.399 . S
C1589 C1588 1.394 . S
C1589 C1590 1.516 . S
C1590 C1589 1.516 . S
C1590 C1591 1.502 . S
C1590 C1592 1.561 . S
C1590 C1593 1.526 . S
C1591 H1575 0.959 . S
C1591 H1576 0.959 . S
C1591 H1577 0.961 . S
C1591 C1590 1.502 . S
C1592 H1578 0.960 . S
C1592 H1579 0.961 . S
C1592 H1580 0.959 . S
C1592 C1590 1.561 . S
C1593 C1590 1.526 . S
C1593 C1594 1.396 . S
C1593 C1598 1.390 . S
C1594 C1588 1.465 . S
C1594 C1593 1.396 . S
C1594 C1595 1.399 . S
C1595 H1581 0.929 . S
C1595 C1594 1.399 . S
C1595 C1596 1.385 . S
C1596 H1582 0.931 . S
C1596 C1595 1.385 . S
C1596 C1597 1.389 . S
C1597 C1596 1.389 . S
C1597 C1598 1.387 . S
C1598 H1583 0.930 . S
C1598 C1593 1.390 . S
C1598 C1597 1.387 . S
H1599 C1611 0.930 . S
H1600 C1613 0.930 . S
H1601 C1614 0.930 . S
H1602 C1618 0.959 . S
H1603 C1618 0.959 . S
H1604 C1618 0.961 . S
H1605 C1619 0.960 . S
H1606 C1619 0.961 1_554 S
H1607 C1619 0.959 . S
H1608 C1622 0.929 . S
H1609 C1623 0.931 . S
H1610 C1625 0.930 . S
C1611 H1599 0.930 . S
C1611 C1612 1.399 . S
C1611 C1616 1.399 . S
C1612 C1611 1.399 . S
C1612 C1613 1.376 . S
C1613 H1600 0.930 . S
C1613 C1612 1.376 . S
C1613 C1614 1.388 . S
C1614 H1601 0.930 . S
C1614 C1613 1.388 . S
C1614 C1615 1.390 . S
C1615 C1614 1.390 . S
C1615 C1616 1.394 . S
C1615 C1621 1.465 . S
C1616 C1611 1.399 . S
C1616 C1615 1.394 . S
C1616 C1617 1.516 . S
C1617 C1616 1.516 . S
C1617 C1618 1.502 . S
C1617 C1619 1.561 . S
C1617 C1620 1.526 . S
C1618 H1602 0.959 . S
C1618 H1603 0.959 . S
C1618 H1604 0.961 . S
C1618 C1617 1.502 . S
C1619 H1605 0.960 . S
C1619 H1606 0.961 1_556 S
C1619 H1607 0.959 . S
C1619 C1617 1.561 . S
C1620 C1617 1.526 . S
C1620 C1621 1.396 . S
C1620 C1625 1.390 . S
C1621 C1615 1.465 . S
C1621 C1620 1.396 . S
C1621 C1622 1.399 . S
C1622 H1608 0.929 . S
C1622 C1621 1.399 . S
C1622 C1623 1.385 . S
C1623 H1609 0.931 . S
C1623 C1622 1.385 . S
C1623 C1624 1.389 . S
C1624 C1623 1.389 . S
C1624 C1625 1.387 . S
C1625 H1610 0.930 . S
C1625 C1620 1.390 . S
C1625 C1624 1.387 . S
H1626 C1638 0.930 . S
H1627 C1640 0.930 . S
H1628 C1641 0.930 . S
H1629 C1645 0.959 . S
H1630 C1645 0.959 1_556 S
H1631 C1645 0.961 . S
H1632 C1646 0.960 . S
H1633 C1646 0.961 . S
H1634 C1646 0.959 . S
H1635 C1649 0.929 . S
H1636 C1650 0.931 . S
H1637 C1652 0.930 . S
C1638 H1626 0.930 . S
C1638 C1639 1.399 . S
C1638 C1643 1.399 . S
C1639 C1638 1.399 . S
C1639 C1640 1.376 . S
C1640 H1627 0.930 . S
C1640 C1639 1.376 . S
C1640 C1641 1.388 . S
C1641 H1628 0.930 . S
C1641 C1640 1.388 . S
C1641 C1642 1.390 . S
C1642 C1641 1.390 . S
C1642 C1643 1.394 . S
C1642 C1648 1.465 . S
C1643 C1638 1.399 . S
C1643 C1642 1.394 . S
C1643 C1644 1.516 . S
C1644 C1643 1.516 . S
C1644 C1645 1.502 . S
C1644 C1646 1.561 . S
C1644 C1647 1.526 . S
C1645 H1629 0.959 . S
C1645 H1630 0.959 1_554 S
C1645 H1631 0.961 . S
C1645 C1644 1.502 . S
C1646 H1632 0.960 . S
C1646 H1633 0.961 . S
C1646 H1634 0.959 . S
C1646 C1644 1.561 . S
C1647 C1644 1.526 . S
C1647 C1648 1.396 . S
C1647 C1652 1.390 . S
C1648 C1642 1.465 . S
C1648 C1647 1.396 . S
C1648 C1649 1.399 . S
C1649 H1635 0.929 . S
C1649 C1648 1.399 . S
C1649 C1650 1.385 . S
C1650 H1636 0.931 . S
C1650 C1649 1.385 . S
C1650 C1651 1.389 . S
C1651 C1650 1.389 . S
C1651 C1652 1.387 . S
C1652 H1637 0.930 . S
C1652 C1647 1.390 . S
C1652 C1651 1.387 . S
H1653 C1665 0.930 . S
H1654 C1667 0.930 . S
H1655 C1668 0.930 . S
H1656 C1672 0.959 . S
H1657 C1672 0.959 . S
H1658 C1672 0.961 . S
H1659 C1673 0.960 . S
H1660 C1673 0.961 . S
H1661 C1673 0.959 . S
H1662 C1676 0.929 . S
H1663 C1677 0.931 . S
H1664 C1679 0.930 . S
C1665 H1653 0.930 . S
C1665 C1666 1.399 . S
C1665 C1670 1.399 . S
C1666 C1665 1.399 . S
C1666 C1667 1.376 . S
C1667 H1654 0.930 . S
C1667 C1666 1.376 . S
C1667 C1668 1.388 . S
C1668 H1655 0.930 . S
C1668 C1667 1.388 . S
C1668 C1669 1.390 . S
C1669 C1668 1.390 . S
C1669 C1670 1.394 . S
C1669 C1675 1.465 . S
C1670 C1665 1.399 . S
C1670 C1669 1.394 . S
C1670 C1671 1.516 . S
C1671 C1670 1.516 . S
C1671 C1672 1.502 . S
C1671 C1673 1.561 . S
C1671 C1674 1.526 . S
C1672 H1656 0.959 . S
C1672 H1657 0.959 . S
C1672 H1658 0.961 . S
C1672 C1671 1.502 . S
C1673 H1659 0.960 . S
C1673 H1660 0.961 . S
C1673 H1661 0.959 . S
C1673 C1671 1.561 . S
C1674 C1671 1.526 . S
C1674 C1675 1.396 . S
C1674 C1679 1.390 . S
C1675 C1669 1.465 . S
C1675 C1674 1.396 . S
C1675 C1676 1.399 . S
C1676 H1662 0.929 . S
C1676 C1675 1.399 . S
C1676 C1677 1.385 . S
C1677 H1663 0.931 . S
C1677 C1676 1.385 . S
C1677 C1678 1.389 . S
C1678 C1677 1.389 . S
C1678 C1679 1.387 . S
C1679 H1664 0.930 . S
C1679 C1674 1.390 . S
C1679 C1678 1.387 . S
H1680 C1692 0.930 . S
H1681 C1694 0.930 . S
H1682 C1695 0.930 . S
H1683 C1699 0.959 . S
H1684 C1699 0.959 . S
H1685 C1699 0.961 . S
H1686 C1700 0.960 . S
H1687 C1700 0.961 . S
H1688 C1700 0.959 . S
H1689 C1703 0.929 . S
H1690 C1704 0.931 1_556 S
H1691 C1706 0.930 . S
C1692 H1680 0.930 . S
C1692 C1693 1.399 . S
C1692 C1697 1.399 . S
C1693 C1692 1.399 . S
C1693 C1694 1.376 . S
C1694 H1681 0.930 . S
C1694 C1693 1.376 . S
C1694 C1695 1.388 . S
C1695 H1682 0.930 . S
C1695 C1694 1.388 . S
C1695 C1696 1.390 . S
C1696 C1695 1.390 . S
C1696 C1697 1.394 . S
C1696 C1702 1.465 . S
C1697 C1692 1.399 . S
C1697 C1696 1.394 . S
C1697 C1698 1.516 . S
C1698 C1697 1.516 . S
C1698 C1699 1.502 . S
C1698 C1700 1.561 . S
C1698 C1701 1.526 . S
C1699 H1683 0.959 . S
C1699 H1684 0.959 . S
C1699 H1685 0.961 . S
C1699 C1698 1.502 . S
C1700 H1686 0.960 . S
C1700 H1687 0.961 . S
C1700 H1688 0.959 . S
C1700 C1698 1.561 . S
C1701 C1698 1.526 . S
C1701 C1702 1.396 . S
C1701 C1706 1.390 . S
C1702 C1696 1.465 . S
C1702 C1701 1.396 . S
C1702 C1703 1.399 . S
C1703 H1689 0.929 . S
C1703 C1702 1.399 . S
C1703 C1704 1.385 . S
C1704 H1690 0.931 1_554 S
C1704 C1703 1.385 . S
C1704 C1705 1.389 . S
C1705 C1704 1.389 . S
C1705 C1706 1.387 . S
C1706 H1691 0.930 . S
C1706 C1701 1.390 . S
C1706 C1705 1.387 . S
H1707 C1719 0.930 . S
H1708 C1721 0.930 . S
H1709 C1722 0.930 . S
H1710 C1726 0.959 . S
H1711 C1726 0.959 . S
H1712 C1726 0.961 . S
H1713 C1727 0.960 . S
H1714 C1727 0.961 . S
H1715 C1727 0.959 . S
H1716 C1730 0.929 . S
H1717 C1731 0.931 . S
H1718 C1733 0.930 . S
C1719 H1707 0.930 . S
C1719 C1720 1.399 . S
C1719 C1724 1.399 . S
C1720 C1719 1.399 . S
C1720 C1721 1.376 . S
C1721 H1708 0.930 . S
C1721 C1720 1.376 . S
C1721 C1722 1.388 . S
C1722 H1709 0.930 . S
C1722 C1721 1.388 . S
C1722 C1723 1.390 . S
C1723 C1722 1.390 . S
C1723 C1724 1.394 . S
C1723 C1729 1.465 . S
C1724 C1719 1.399 . S
C1724 C1723 1.394 . S
C1724 C1725 1.516 . S
C1725 C1724 1.516 . S
C1725 C1726 1.502 . S
C1725 C1727 1.561 . S
C1725 C1728 1.526 . S
C1726 H1710 0.959 . S
C1726 H1711 0.959 . S
C1726 H1712 0.961 . S
C1726 C1725 1.502 . S
C1727 H1713 0.960 . S
C1727 H1714 0.961 . S
C1727 H1715 0.959 . S
C1727 C1725 1.561 . S
C1728 C1725 1.526 . S
C1728 C1729 1.396 . S
C1728 C1733 1.390 . S
C1729 C1723 1.465 . S
C1729 C1728 1.396 . S
C1729 C1730 1.399 . S
C1730 H1716 0.929 . S
C1730 C1729 1.399 . S
C1730 C1731 1.385 . S
C1731 H1717 0.931 . S
C1731 C1730 1.385 . S
C1731 C1732 1.389 . S
C1732 C1731 1.389 . S
C1732 C1733 1.387 . S
C1733 H1718 0.930 . S
C1733 C1728 1.390 . S
C1733 C1732 1.387 . S
H1734 C1746 0.930 . S
H1735 C1748 0.930 . S
H1736 C1749 0.930 . S
H1737 C1753 0.959 . S
H1738 C1753 0.959 . S
H1739 C1753 0.961 . S
H1740 C1754 0.960 . S
H1741 C1754 0.961 . S
H1742 C1754 0.959 . S
H1743 C1757 0.929 . S
H1744 C1758 0.931 . S
H1745 C1760 0.930 . S
C1746 H1734 0.930 . S
C1746 C1747 1.399 . S
C1746 C1751 1.399 . S
C1747 C1746 1.399 . S
C1747 C1748 1.376 . S
C1748 H1735 0.930 . S
C1748 C1747 1.376 . S
C1748 C1749 1.388 . S
C1749 H1736 0.930 . S
C1749 C1748 1.388 . S
C1749 C1750 1.390 . S
C1750 C1749 1.390 . S
C1750 C1751 1.394 . S
C1750 C1756 1.465 . S
C1751 C1746 1.399 . S
C1751 C1750 1.394 . S
C1751 C1752 1.516 . S
C1752 C1751 1.516 . S
C1752 C1753 1.502 . S
C1752 C1754 1.561 . S
C1752 C1755 1.526 . S
C1753 H1737 0.959 . S
C1753 H1738 0.959 . S
C1753 H1739 0.961 . S
C1753 C1752 1.502 . S
C1754 H1740 0.960 . S
C1754 H1741 0.961 . S
C1754 H1742 0.959 . S
C1754 C1752 1.561 . S
C1755 C1752 1.526 . S
C1755 C1756 1.396 . S
C1755 C1760 1.390 . S
C1756 C1750 1.465 . S
C1756 C1755 1.396 . S
C1756 C1757 1.399 . S
C1757 H1743 0.929 . S
C1757 C1756 1.399 . S
C1757 C1758 1.385 . S
C1758 H1744 0.931 . S
C1758 C1757 1.385 . S
C1758 C1759 1.389 . S
C1759 C1758 1.389 . S
C1759 C1760 1.387 . S
C1760 H1745 0.930 . S
C1760 C1755 1.390 . S
C1760 C1759 1.387 . S
H1761 C1773 0.930 . S
H1762 C1775 0.930 . S
H1763 C1776 0.930 . S
H1764 C1780 0.959 . S
H1765 C1780 0.959 . S
H1766 C1780 0.961 . S
H1767 C1781 0.960 . S
H1768 C1781 0.961 . S
H1769 C1781 0.959 . S
H1770 C1784 0.929 . S
H1771 C1785 0.931 . S
H1772 C1787 0.930 . S
C1773 H1761 0.930 . S
C1773 C1774 1.399 . S
C1773 C1778 1.399 . S
C1774 C1773 1.399 . S
C1774 C1775 1.376 . S
C1775 H1762 0.930 . S
C1775 C1774 1.376 . S
C1775 C1776 1.388 . S
C1776 H1763 0.930 . S
C1776 C1775 1.388 . S
C1776 C1777 1.390 . S
C1777 C1776 1.390 . S
C1777 C1778 1.394 . S
C1777 C1783 1.465 . S
C1778 C1773 1.399 . S
C1778 C1777 1.394 . S
C1778 C1779 1.516 . S
C1779 C1778 1.516 . S
C1779 C1780 1.502 . S
C1779 C1781 1.561 . S
C1779 C1782 1.526 . S
C1780 H1764 0.959 . S
C1780 H1765 0.959 . S
C1780 H1766 0.961 . S
C1780 C1779 1.502 . S
C1781 H1767 0.960 . S
C1781 H1768 0.961 . S
C1781 H1769 0.959 . S
C1781 C1779 1.561 . S
C1782 C1779 1.526 . S
C1782 C1783 1.396 . S
C1782 C1787 1.390 . S
C1783 C1777 1.465 . S
C1783 C1782 1.396 . S
C1783 C1784 1.399 . S
C1784 H1770 0.929 . S
C1784 C1783 1.399 . S
C1784 C1785 1.385 . S
C1785 H1771 0.931 . S
C1785 C1784 1.385 . S
C1785 C1786 1.389 . S
C1786 C1785 1.389 . S
C1786 C1787 1.387 . S
C1787 H1772 0.930 . S
C1787 C1782 1.390 . S
C1787 C1786 1.387 . S
H1788 C1800 0.930 . S
H1789 C1802 0.930 . S
H1790 C1803 0.930 . S
H1791 C1807 0.959 . S
H1792 C1807 0.959 . S
H1793 C1807 0.961 . S
H1794 C1808 0.960 . S
H1795 C1808 0.961 . S
H1796 C1808 0.959 . S
H1797 C1811 0.929 . S
H1798 C1812 0.931 . S
H1799 C1814 0.930 . S
C1800 H1788 0.930 . S
C1800 C1801 1.399 . S
C1800 C1805 1.399 . S
C1801 C1800 1.399 . S
C1801 C1802 1.376 . S
C1802 H1789 0.930 . S
C1802 C1801 1.376 . S
C1802 C1803 1.388 . S
C1803 H1790 0.930 . S
C1803 C1802 1.388 . S
C1803 C1804 1.390 . S
C1804 C1803 1.390 . S
C1804 C1805 1.394 . S
C1804 C1810 1.465 . S
C1805 C1800 1.399 . S
C1805 C1804 1.394 . S
C1805 C1806 1.516 . S
C1806 C1805 1.516 . S
C1806 C1807 1.502 . S
C1806 C1808 1.561 . S
C1806 C1809 1.526 . S
C1807 H1791 0.959 . S
C1807 H1792 0.959 . S
C1807 H1793 0.961 . S
C1807 C1806 1.502 . S
C1808 H1794 0.960 . S
C1808 H1795 0.961 . S
C1808 H1796 0.959 . S
C1808 C1806 1.561 . S
C1809 C1806 1.526 . S
C1809 C1810 1.396 . S
C1809 C1814 1.390 . S
C1810 C1804 1.465 . S
C1810 C1809 1.396 . S
C1810 C1811 1.399 . S
C1811 H1797 0.929 . S
C1811 C1810 1.399 . S
C1811 C1812 1.385 . S
C1812 H1798 0.931 . S
C1812 C1811 1.385 . S
C1812 C1813 1.389 . S
C1813 C1812 1.389 . S
C1813 C1814 1.387 . S
C1814 H1799 0.930 . S
C1814 C1809 1.390 . S
C1814 C1813 1.387 . S
H1815 C1827 0.930 . S
H1816 C1829 0.930 . S
H1817 C1830 0.930 . S
H1818 C1834 0.959 . S
H1819 C1834 0.959 . S
H1820 C1834 0.961 . S
H1821 C1835 0.960 . S
H1822 C1835 0.961 . S
H1823 C1835 0.959 . S
H1824 C1838 0.929 . S
H1825 C1839 0.931 . S
H1826 C1841 0.930 . S
C1827 H1815 0.930 . S
C1827 C1828 1.399 . S
C1827 C1832 1.399 . S
C1828 C1827 1.399 . S
C1828 C1829 1.376 . S
C1829 H1816 0.930 . S
C1829 C1828 1.376 . S
C1829 C1830 1.388 . S
C1830 H1817 0.930 . S
C1830 C1829 1.388 . S
C1830 C1831 1.390 . S
C1831 C1830 1.390 . S
C1831 C1832 1.394 . S
C1831 C1837 1.465 . S
C1832 C1827 1.399 . S
C1832 C1831 1.394 . S
C1832 C1833 1.516 . S
C1833 C1832 1.516 . S
C1833 C1834 1.502 . S
C1833 C1835 1.561 . S
C1833 C1836 1.526 . S
C1834 H1818 0.959 . S
C1834 H1819 0.959 . S
C1834 H1820 0.961 . S
C1834 C1833 1.502 . S
C1835 H1821 0.960 . S
C1835 H1822 0.961 . S
C1835 H1823 0.959 . S
C1835 C1833 1.561 . S
C1836 C1833 1.526 . S
C1836 C1837 1.396 . S
C1836 C1841 1.390 . S
C1837 C1831 1.465 . S
C1837 C1836 1.396 . S
C1837 C1838 1.399 . S
C1838 H1824 0.929 . S
C1838 C1837 1.399 . S
C1838 C1839 1.385 . S
C1839 H1825 0.931 . S
C1839 C1838 1.385 . S
C1839 C1840 1.389 . S
C1840 C1839 1.389 . S
C1840 C1841 1.387 . S
C1841 H1826 0.930 . S
C1841 C1836 1.390 . S
C1841 C1840 1.387 . S
H1842 C1854 0.930 . S
H1843 C1856 0.930 . S
H1844 C1857 0.930 . S
H1845 C1861 0.959 . S
H1846 C1861 0.959 . S
H1847 C1861 0.961 . S
H1848 C1862 0.960 . S
H1849 C1862 0.961 . S
H1850 C1862 0.959 . S
H1851 C1865 0.929 . S
H1852 C1866 0.931 . S
H1853 C1868 0.930 . S
C1854 H1842 0.930 . S
C1854 C1855 1.399 . S
C1854 C1859 1.399 . S
C1855 C1854 1.399 . S
C1855 C1856 1.376 . S
C1856 H1843 0.930 . S
C1856 C1855 1.376 . S
C1856 C1857 1.388 . S
C1857 H1844 0.930 . S
C1857 C1856 1.388 . S
C1857 C1858 1.390 . S
C1858 C1857 1.390 . S
C1858 C1859 1.394 . S
C1858 C1864 1.465 . S
C1859 C1854 1.399 . S
C1859 C1858 1.394 . S
C1859 C1860 1.516 . S
C1860 C1859 1.516 . S
C1860 C1861 1.502 . S
C1860 C1862 1.561 . S
C1860 C1863 1.526 . S
C1861 H1845 0.959 . S
C1861 H1846 0.959 . S
C1861 H1847 0.961 . S
C1861 C1860 1.502 . S
C1862 H1848 0.960 . S
C1862 H1849 0.961 . S
C1862 H1850 0.959 . S
C1862 C1860 1.561 . S
C1863 C1860 1.526 . S
C1863 C1864 1.396 . S
C1863 C1868 1.390 . S
C1864 C1858 1.465 . S
C1864 C1863 1.396 . S
C1864 C1865 1.399 . S
C1865 H1851 0.929 . S
C1865 C1864 1.399 . S
C1865 C1866 1.385 . S
C1866 H1852 0.931 . S
C1866 C1865 1.385 . S
C1866 C1867 1.389 . S
C1867 C1866 1.389 . S
C1867 C1868 1.387 . S
C1868 H1853 0.930 . S
C1868 C1863 1.390 . S
C1868 C1867 1.387 . S
H1869 C1881 0.930 . S
H1870 C1883 0.930 . S
H1871 C1884 0.930 . S
H1872 C1888 0.959 . S
H1873 C1888 0.959 . S
H1874 C1888 0.961 . S
H1875 C1889 0.960 . S
H1876 C1889 0.961 . S
H1877 C1889 0.959 . S
H1878 C1892 0.929 . S
H1879 C1893 0.931 . S
H1880 C1895 0.930 . S
C1881 H1869 0.930 . S
C1881 C1882 1.399 . S
C1881 C1886 1.399 . S
C1882 C1881 1.399 . S
C1882 C1883 1.376 . S
C1883 H1870 0.930 . S
C1883 C1882 1.376 . S
C1883 C1884 1.388 . S
C1884 H1871 0.930 . S
C1884 C1883 1.388 . S
C1884 C1885 1.390 . S
C1885 C1884 1.390 . S
C1885 C1886 1.394 . S
C1885 C1891 1.465 . S
C1886 C1881 1.399 . S
C1886 C1885 1.394 . S
C1886 C1887 1.516 . S
C1887 C1886 1.516 . S
C1887 C1888 1.502 . S
C1887 C1889 1.561 . S
C1887 C1890 1.526 . S
C1888 H1872 0.959 . S
C1888 H1873 0.959 . S
C1888 H1874 0.961 . S
C1888 C1887 1.502 . S
C1889 H1875 0.960 . S
C1889 H1876 0.961 . S
C1889 H1877 0.959 . S
C1889 C1887 1.561 . S
C1890 C1887 1.526 . S
C1890 C1891 1.396 . S
C1890 C1895 1.390 . S
C1891 C1885 1.465 . S
C1891 C1890 1.396 . S
C1891 C1892 1.399 . S
C1892 H1878 0.929 . S
C1892 C1891 1.399 . S
C1892 C1893 1.385 . S
C1893 H1879 0.931 . S
C1893 C1892 1.385 . S
C1893 C1894 1.389 . S
C1894 C1893 1.389 . S
C1894 C1895 1.387 . S
C1895 H1880 0.930 . S
C1895 C1890 1.390 . S
C1895 C1894 1.387 . S
H1896 C1908 0.930 . S
H1897 C1910 0.930 . S
H1898 C1911 0.930 . S
H1899 C1915 0.959 . S
H1900 C1915 0.959 . S
H1901 C1915 0.961 . S
H1902 C1916 0.960 . S
H1903 C1916 0.961 . S
H1904 C1916 0.959 . S
H1905 C1919 0.929 . S
H1906 C1920 0.931 . S
H1907 C1922 0.930 . S
C1908 H1896 0.930 . S
C1908 C1909 1.399 . S
C1908 C1913 1.399 . S
C1909 C1908 1.399 . S
C1909 C1910 1.376 . S
C1910 H1897 0.930 . S
C1910 C1909 1.376 . S
C1910 C1911 1.388 . S
C1911 H1898 0.930 . S
C1911 C1910 1.388 . S
C1911 C1912 1.390 . S
C1912 C1911 1.390 . S
C1912 C1913 1.394 . S
C1912 C1918 1.465 . S
C1913 C1908 1.399 . S
C1913 C1912 1.394 . S
C1913 C1914 1.516 . S
C1914 C1913 1.516 . S
C1914 C1915 1.502 . S
C1914 C1916 1.561 . S
C1914 C1917 1.526 . S
C1915 H1899 0.959 . S
C1915 H1900 0.959 . S
C1915 H1901 0.961 . S
C1915 C1914 1.502 . S
C1916 H1902 0.960 . S
C1916 H1903 0.961 . S
C1916 H1904 0.959 . S
C1916 C1914 1.561 . S
C1917 C1914 1.526 . S
C1917 C1918 1.396 . S
C1917 C1922 1.390 . S
C1918 C1912 1.465 . S
C1918 C1917 1.396 . S
C1918 C1919 1.399 . S
C1919 H1905 0.929 . S
C1919 C1918 1.399 . S
C1919 C1920 1.385 . S
C1920 H1906 0.931 . S
C1920 C1919 1.385 . S
C1920 C1921 1.389 . S
C1921 C1920 1.389 . S
C1921 C1922 1.387 . S
C1922 H1907 0.930 . S
C1922 C1917 1.390 . S
C1922 C1921 1.387 . S
H1923 C1935 0.930 . S
H1924 C1937 0.930 . S
H1925 C1938 0.930 . S
H1926 C1942 0.959 . S
H1927 C1942 0.959 . S
H1928 C1942 0.961 . S
H1929 C1943 0.960 . S
H1930 C1943 0.961 . S
H1931 C1943 0.959 . S
H1932 C1946 0.929 . S
H1933 C1947 0.931 . S
H1934 C1949 0.930 . S
C1935 H1923 0.930 . S
C1935 C1936 1.399 . S
C1935 C1940 1.399 . S
C1936 C1935 1.399 . S
C1936 C1937 1.376 . S
C1937 H1924 0.930 . S
C1937 C1936 1.376 . S
C1937 C1938 1.388 . S
C1938 H1925 0.930 . S
C1938 C1937 1.388 . S
C1938 C1939 1.390 . S
C1939 C1938 1.390 . S
C1939 C1940 1.394 . S
C1939 C1945 1.465 . S
C1940 C1935 1.399 . S
C1940 C1939 1.394 . S
C1940 C1941 1.516 . S
C1941 C1940 1.516 . S
C1941 C1942 1.502 . S
C1941 C1943 1.561 . S
C1941 C1944 1.526 . S
C1942 H1926 0.959 . S
C1942 H1927 0.959 . S
C1942 H1928 0.961 . S
C1942 C1941 1.502 . S
C1943 H1929 0.960 . S
C1943 H1930 0.961 . S
C1943 H1931 0.959 . S
C1943 C1941 1.561 . S
C1944 C1941 1.526 . S
C1944 C1945 1.396 . S
C1944 C1949 1.390 . S
C1945 C1939 1.465 . S
C1945 C1944 1.396 . S
C1945 C1946 1.399 . S
C1946 H1932 0.929 . S
C1946 C1945 1.399 . S
C1946 C1947 1.385 . S
C1947 H1933 0.931 . S
C1947 C1946 1.385 . S
C1947 C1948 1.389 . S
C1948 C1947 1.389 . S
C1948 C1949 1.387 . S
C1949 H1934 0.930 . S
C1949 C1944 1.390 . S
C1949 C1948 1.387 . S
H1950 C1962 0.930 . S
H1951 C1964 0.930 . S
H1952 C1965 0.930 . S
H1953 C1969 0.959 . S
H1954 C1969 0.959 . S
H1955 C1969 0.961 . S
H1956 C1970 0.960 . S
H1957 C1970 0.961 . S
H1958 C1970 0.959 . S
H1959 C1973 0.929 . S
H1960 C1974 0.931 . S
H1961 C1976 0.930 . S
C1962 H1950 0.930 . S
C1962 C1963 1.399 . S
C1962 C1967 1.399 . S
C1963 C1962 1.399 . S
C1963 C1964 1.376 . S
C1964 H1951 0.930 . S
C1964 C1963 1.376 . S
C1964 C1965 1.388 . S
C1965 H1952 0.930 . S
C1965 C1964 1.388 . S
C1965 C1966 1.390 . S
C1966 C1965 1.390 . S
C1966 C1967 1.394 . S
C1966 C1972 1.465 . S
C1967 C1962 1.399 . S
C1967 C1966 1.394 . S
C1967 C1968 1.516 . S
C1968 C1967 1.516 . S
C1968 C1969 1.502 . S
C1968 C1970 1.561 . S
C1968 C1971 1.526 . S
C1969 H1953 0.959 . S
C1969 H1954 0.959 . S
C1969 H1955 0.961 . S
C1969 C1968 1.502 . S
C1970 H1956 0.960 . S
C1970 H1957 0.961 . S
C1970 H1958 0.959 . S
C1970 C1968 1.561 . S
C1971 C1968 1.526 . S
C1971 C1972 1.396 . S
C1971 C1976 1.390 . S
C1972 C1966 1.465 . S
C1972 C1971 1.396 . S
C1972 C1973 1.399 . S
C1973 H1959 0.929 . S
C1973 C1972 1.399 . S
C1973 C1974 1.385 . S
C1974 H1960 0.931 . S
C1974 C1973 1.385 . S
C1974 C1975 1.389 . S
C1975 C1974 1.389 . S
C1975 C1976 1.387 . S
C1976 H1961 0.930 . S
C1976 C1971 1.390 . S
C1976 C1975 1.387 . S
H1977 C1989 0.930 . S
H1978 C1991 0.930 . S
H1979 C1992 0.930 . S
H1980 C1996 0.959 . S
H1981 C1996 0.959 . S
H1982 C1996 0.961 . S
H1983 C1997 0.960 . S
H1984 C1997 0.961 . S
H1985 C1997 0.959 . S
H1986 C2000 0.929 . S
H1987 C2001 0.931 . S
H1988 C2003 0.930 . S
C1989 H1977 0.930 . S
C1989 C1990 1.399 . S
C1989 C1994 1.399 . S
C1990 C1989 1.399 . S
C1990 C1991 1.376 . S
C1991 H1978 0.930 . S
C1991 C1990 1.376 . S
C1991 C1992 1.388 . S
C1992 H1979 0.930 . S
C1992 C1991 1.388 . S
C1992 C1993 1.390 . S
C1993 C1992 1.390 . S
C1993 C1994 1.394 . S
C1993 C1999 1.465 . S
C1994 C1989 1.399 . S
C1994 C1993 1.394 . S
C1994 C1995 1.516 . S
C1995 C1994 1.516 . S
C1995 C1996 1.502 . S
C1995 C1997 1.561 . S
C1995 C1998 1.526 . S
C1996 H1980 0.959 . S
C1996 H1981 0.959 . S
C1996 H1982 0.961 . S
C1996 C1995 1.502 . S
C1997 H1983 0.960 . S
C1997 H1984 0.961 . S
C1997 H1985 0.959 . S
C1997 C1995 1.561 . S
C1998 C1995 1.526 . S
C1998 C1999 1.396 . S
C1998 C2003 1.390 . S
C1999 C1993 1.465 . S
C1999 C1998 1.396 . S
C1999 C2000 1.399 . S
C2000 H1986 0.929 . S
C2000 C1999 1.399 . S
C2000 C2001 1.385 . S
C2001 H1987 0.931 . S
C2001 C2000 1.385 . S
C2001 C2002 1.389 . S
C2002 C2001 1.389 . S
C2002 C2003 1.387 . S
C2003 H1988 0.930 . S
C2003 C1998 1.390 . S
C2003 C2002 1.387 . S
H2004 C2016 0.930 . S
H2005 C2018 0.930 . S
H2006 C2019 0.930 . S
H2007 C2023 0.959 . S
H2008 C2023 0.959 . S
H2009 C2023 0.961 . S
H2010 C2024 0.960 . S
H2011 C2024 0.961 . S
H2012 C2024 0.959 . S
H2013 C2027 0.929 . S
H2014 C2028 0.931 . S
H2015 C2030 0.930 . S
C2016 H2004 0.930 . S
C2016 C2017 1.399 . S
C2016 C2021 1.399 . S
C2017 C2016 1.399 . S
C2017 C2018 1.376 . S
C2018 H2005 0.930 . S
C2018 C2017 1.376 . S
C2018 C2019 1.388 . S
C2019 H2006 0.930 . S
C2019 C2018 1.388 . S
C2019 C2020 1.390 . S
C2020 C2019 1.390 . S
C2020 C2021 1.394 . S
C2020 C2026 1.465 . S
C2021 C2016 1.399 . S
C2021 C2020 1.394 . S
C2021 C2022 1.516 . S
C2022 C2021 1.516 . S
C2022 C2023 1.502 . S
C2022 C2024 1.561 . S
C2022 C2025 1.526 . S
C2023 H2007 0.959 . S
C2023 H2008 0.959 . S
C2023 H2009 0.961 . S
C2023 C2022 1.502 . S
C2024 H2010 0.960 . S
C2024 H2011 0.961 . S
C2024 H2012 0.959 . S
C2024 C2022 1.561 . S
C2025 C2022 1.526 . S
C2025 C2026 1.396 . S
C2025 C2030 1.390 . S
C2026 C2020 1.465 . S
C2026 C2025 1.396 . S
C2026 C2027 1.399 . S
C2027 H2013 0.929 . S
C2027 C2026 1.399 . S
C2027 C2028 1.385 . S
C2028 H2014 0.931 . S
C2028 C2027 1.385 . S
C2028 C2029 1.389 . S
C2029 C2028 1.389 . S
C2029 C2030 1.387 . S
C2030 H2015 0.930 . S
C2030 C2025 1.390 . S
C2030 C2029 1.387 . S
H2031 C2043 0.930 . S
H2032 C2045 0.930 . S
H2033 C2046 0.930 . S
H2034 C2050 0.959 . S
H2035 C2050 0.959 . S
H2036 C2050 0.961 . S
H2037 C2051 0.960 . S
H2038 C2051 0.961 . S
H2039 C2051 0.959 . S
H2040 C2054 0.929 . S
H2041 C2055 0.931 . S
H2042 C2057 0.930 . S
C2043 H2031 0.930 . S
C2043 C2044 1.399 . S
C2043 C2048 1.399 . S
C2044 C2043 1.399 . S
C2044 C2045 1.376 . S
C2045 H2032 0.930 . S
C2045 C2044 1.376 . S
C2045 C2046 1.388 . S
C2046 H2033 0.930 . S
C2046 C2045 1.388 . S
C2046 C2047 1.390 . S
C2047 C2046 1.390 . S
C2047 C2048 1.394 . S
C2047 C2053 1.465 . S
C2048 C2043 1.399 . S
C2048 C2047 1.394 . S
C2048 C2049 1.516 . S
C2049 C2048 1.516 . S
C2049 C2050 1.502 . S
C2049 C2051 1.561 . S
C2049 C2052 1.526 . S
C2050 H2034 0.959 . S
C2050 H2035 0.959 . S
C2050 H2036 0.961 . S
C2050 C2049 1.502 . S
C2051 H2037 0.960 . S
C2051 H2038 0.961 . S
C2051 H2039 0.959 . S
C2051 C2049 1.561 . S
C2052 C2049 1.526 . S
C2052 C2053 1.396 . S
C2052 C2057 1.390 . S
C2053 C2047 1.465 . S
C2053 C2052 1.396 . S
C2053 C2054 1.399 . S
C2054 H2040 0.929 . S
C2054 C2053 1.399 . S
C2054 C2055 1.385 . S
C2055 H2041 0.931 . S
C2055 C2054 1.385 . S
C2055 C2056 1.389 . S
C2056 C2055 1.389 . S
C2056 C2057 1.387 . S
C2057 H2042 0.930 . S
C2057 C2052 1.390 . S
C2057 C2056 1.387 . S
H2058 C2070 0.930 . S
H2059 C2072 0.930 . S
H2060 C2073 0.930 . S
H2061 C2077 0.959 . S
H2062 C2077 0.959 . S
H2063 C2077 0.961 . S
H2064 C2078 0.960 . S
H2065 C2078 0.961 . S
H2066 C2078 0.959 . S
H2067 C2081 0.929 . S
H2068 C2082 0.931 . S
H2069 C2084 0.930 . S
C2070 H2058 0.930 . S
C2070 C2071 1.399 . S
C2070 C2075 1.399 . S
C2071 C2070 1.399 . S
C2071 C2072 1.376 . S
C2072 H2059 0.930 . S
C2072 C2071 1.376 . S
C2072 C2073 1.388 . S
C2073 H2060 0.930 . S
C2073 C2072 1.388 . S
C2073 C2074 1.390 . S
C2074 C2073 1.390 . S
C2074 C2075 1.394 . S
C2074 C2080 1.465 . S
C2075 C2070 1.399 . S
C2075 C2074 1.394 . S
C2075 C2076 1.516 . S
C2076 C2075 1.516 . S
C2076 C2077 1.502 . S
C2076 C2078 1.561 . S
C2076 C2079 1.526 . S
C2077 H2061 0.959 . S
C2077 H2062 0.959 . S
C2077 H2063 0.961 . S
C2077 C2076 1.502 . S
C2078 H2064 0.960 . S
C2078 H2065 0.961 . S
C2078 H2066 0.959 . S
C2078 C2076 1.561 . S
C2079 C2076 1.526 . S
C2079 C2080 1.396 . S
C2079 C2084 1.390 . S
C2080 C2074 1.465 . S
C2080 C2079 1.396 . S
C2080 C2081 1.399 . S
C2081 H2067 0.929 . S
C2081 C2080 1.399 . S
C2081 C2082 1.385 . S
C2082 H2068 0.931 . S
C2082 C2081 1.385 . S
C2082 C2083 1.389 . S
C2083 C2082 1.389 . S
C2083 C2084 1.387 . S
C2084 H2069 0.930 . S
C2084 C2079 1.390 . S
C2084 C2083 1.387 . S
H2085 C2097 0.930 . S
H2086 C2099 0.930 . S
H2087 C2100 0.930 . S
H2088 C2104 0.959 . S
H2089 C2104 0.959 . S
H2090 C2104 0.961 . S
H2091 C2105 0.960 . S
H2092 C2105 0.961 . S
H2093 C2105 0.959 . S
H2094 C2108 0.929 . S
H2095 C2109 0.931 . S
H2096 C2111 0.930 . S
C2097 H2085 0.930 . S
C2097 C2098 1.399 . S
C2097 C2102 1.399 . S
C2098 C2097 1.399 . S
C2098 C2099 1.376 . S
C2099 H2086 0.930 . S
C2099 C2098 1.376 . S
C2099 C2100 1.388 . S
C2100 H2087 0.930 . S
C2100 C2099 1.388 . S
C2100 C2101 1.390 . S
C2101 C2100 1.390 . S
C2101 C2102 1.394 . S
C2101 C2107 1.465 . S
C2102 C2097 1.399 . S
C2102 C2101 1.394 . S
C2102 C2103 1.516 . S
C2103 C2102 1.516 . S
C2103 C2104 1.502 . S
C2103 C2105 1.561 . S
C2103 C2106 1.526 . S
C2104 H2088 0.959 . S
C2104 H2089 0.959 . S
C2104 H2090 0.961 . S
C2104 C2103 1.502 . S
C2105 H2091 0.960 . S
C2105 H2092 0.961 . S
C2105 H2093 0.959 . S
C2105 C2103 1.561 . S
C2106 C2103 1.526 . S
C2106 C2107 1.396 . S
C2106 C2111 1.390 . S
C2107 C2101 1.465 . S
C2107 C2106 1.396 . S
C2107 C2108 1.399 . S
C2108 H2094 0.929 . S
C2108 C2107 1.399 . S
C2108 C2109 1.385 . S
C2109 H2095 0.931 . S
C2109 C2108 1.385 . S
C2109 C2110 1.389 . S
C2110 C2109 1.389 . S
C2110 C2111 1.387 . S
C2111 H2096 0.930 . S
C2111 C2106 1.390 . S
C2111 C2110 1.387 . S
H2112 C2124 0.930 . S
H2113 C2126 0.930 . S
H2114 C2127 0.930 . S
H2115 C2131 0.959 . S
H2116 C2131 0.959 . S
H2117 C2131 0.961 . S
H2118 C2132 0.960 . S
H2119 C2132 0.961 . S
H2120 C2132 0.959 . S
H2121 C2135 0.929 . S
H2122 C2136 0.931 . S
H2123 C2138 0.930 . S
C2124 H2112 0.930 . S
C2124 C2125 1.399 . S
C2124 C2129 1.399 . S
C2125 C2124 1.399 . S
C2125 C2126 1.376 . S
C2126 H2113 0.930 . S
C2126 C2125 1.376 . S
C2126 C2127 1.388 . S
C2127 H2114 0.930 . S
C2127 C2126 1.388 . S
C2127 C2128 1.390 . S
C2128 C2127 1.390 . S
C2128 C2129 1.394 . S
C2128 C2134 1.465 . S
C2129 C2124 1.399 . S
C2129 C2128 1.394 . S
C2129 C2130 1.516 . S
C2130 C2129 1.516 . S
C2130 C2131 1.502 . S
C2130 C2132 1.561 . S
C2130 C2133 1.526 . S
C2131 H2115 0.959 . S
C2131 H2116 0.959 . S
C2131 H2117 0.961 . S
C2131 C2130 1.502 . S
C2132 H2118 0.960 . S
C2132 H2119 0.961 . S
C2132 H2120 0.959 . S
C2132 C2130 1.561 . S
C2133 C2130 1.526 . S
C2133 C2134 1.396 . S
C2133 C2138 1.390 . S
C2134 C2128 1.465 . S
C2134 C2133 1.396 . S
C2134 C2135 1.399 . S
C2135 H2121 0.929 . S
C2135 C2134 1.399 . S
C2135 C2136 1.385 . S
C2136 H2122 0.931 . S
C2136 C2135 1.385 . S
C2136 C2137 1.389 . S
C2137 C2136 1.389 . S
C2137 C2138 1.387 . S
C2138 H2123 0.930 . S
C2138 C2133 1.390 . S
C2138 C2137 1.387 . S
H2139 C2151 0.930 . S
H2140 C2153 0.930 . S
H2141 C2154 0.930 . S
H2142 C2158 0.959 . S
H2143 C2158 0.959 . S
H2144 C2158 0.961 . S
H2145 C2159 0.960 . S
H2146 C2159 0.961 . S
H2147 C2159 0.959 . S
H2148 C2162 0.929 . S
H2149 C2163 0.931 . S
H2150 C2165 0.930 . S
C2151 H2139 0.930 . S
C2151 C2152 1.399 . S
C2151 C2156 1.399 . S
C2152 C2151 1.399 . S
C2152 C2153 1.376 . S
C2153 H2140 0.930 . S
C2153 C2152 1.376 . S
C2153 C2154 1.388 . S
C2154 H2141 0.930 . S
C2154 C2153 1.388 . S
C2154 C2155 1.390 . S
C2155 C2154 1.390 . S
C2155 C2156 1.394 . S
C2155 C2161 1.465 . S
C2156 C2151 1.399 . S
C2156 C2155 1.394 . S
C2156 C2157 1.516 . S
C2157 C2156 1.516 . S
C2157 C2158 1.502 . S
C2157 C2159 1.561 . S
C2157 C2160 1.526 . S
C2158 H2142 0.959 . S
C2158 H2143 0.959 . S
C2158 H2144 0.961 . S
C2158 C2157 1.502 . S
C2159 H2145 0.960 . S
C2159 H2146 0.961 . S
C2159 H2147 0.959 . S
C2159 C2157 1.561 . S
C2160 C2157 1.526 . S
C2160 C2161 1.396 . S
C2160 C2165 1.390 . S
C2161 C2155 1.465 . S
C2161 C2160 1.396 . S
C2161 C2162 1.399 . S
C2162 H2148 0.929 . S
C2162 C2161 1.399 . S
C2162 C2163 1.385 . S
C2163 H2149 0.931 . S
C2163 C2162 1.385 . S
C2163 C2164 1.389 . S
C2164 C2163 1.389 . S
C2164 C2165 1.387 . S
C2165 H2150 0.930 . S
C2165 C2160 1.390 . S
C2165 C2164 1.387 . S
C895 C699 1.345 . S
C883 C74 1.264 . S
C922 C700 0.493 . S
C910 C142 0.879 . S
C949 C694 1.295 . S
C937 C231 1.239 . S
C964 C322 1.187 . S
C976 C693 1.223 . S
C991 C406 0.637 . S
C1003 C696 0.409 . S
C1030 C698 1.229 . S
C1018 C494 1.149 . S
C1045 C562 1.079 . S
C1057 C697 1.193 . S
C1072 C651 1.303 . S
C1084 C695 1.245 . S
C1111 C730 1.585 . S
C1099 C58 1.459 . S
C1126 C151 1.657 . S
C1138 C761 1.597 . S
C1165 C729 2.542 . S
C1153 C224 2.413 . S
C1192 C764 1.219 . S
C1180 C315 1.135 . S
C1207 C399 1.510 . S
C1219 C727 1.509 . S
C1246 C759 1.552 . S
C1234 C478 1.433 . S
C1261 C571 1.208 . S
C1273 C732 1.264 . S
C1288 C644 2.448 . S
C1300 C766 2.538 . S
C1315 C67 2.446 . S
C1327 C762 2.549 . S
C1342 C392 1.656 . S
C1354 C765 1.581 . S
C1381 C733 2.524 . S
C1369 C487 2.446 . S
C1408 C760 1.245 . S
C1396 C578 1.225 . S
C1423 C658 1.465 . S
C1435 C726 1.590 . S
C1450 C238 1.373 . S
C1462 C763 1.517 . S
C1489 C728 1.331 . S
C1477 C308 1.321 . S
C1504 C158 1.462 . S
C1516 C731 1.540 . S
C1531 C662 1.268 . S
C1543 C798 1.213 . S
C1558 C394 0.936 . S
C1570 C799 0.421 . S
C1597 C793 1.445 . S
C1585 C483 1.428 . S
C1624 C792 1.539 . S
C1612 C574 1.380 . S
C1639 C154 0.827 . S
C1651 C795 0.295 . S
C1678 C797 1.432 . S
C1666 C242 1.425 . S
C1693 C310 1.434 . S
C1705 C796 1.541 . S
C1720 C63 1.271 . S
C1732 C794 1.276 . S
C1747 C646 1.479 . S
C1759 C832 1.637 . S
C1786 C864 1.253 . S
C1774 C403 1.256 . S
C1801 C476 2.294 . S
C1813 C825 2.455 . S
C1828 C567 1.534 . S
C1840 C859 1.576 . S
C1867 C830 1.353 . S
C1855 C147 1.290 . S
C1882 C226 1.668 . S
C1894 C861 1.653 . S
C1921 C827 1.563 . S
C1909 C319 1.564 . S
C1948 C862 2.488 . S
C1936 C56 2.240 . S
C1975 C858 2.485 . S
C1963 C655 2.267 . S
C1990 C140 1.204 . S
C2002 C860 1.169 . S
C2017 C235 2.307 . S
C2029 C829 2.466 . S
C2056 C863 1.549 . S
C2044 C326 1.450 . S
C2071 C70 1.484 . S
C2083 C828 1.570 . S
C2098 C490 1.658 . S
C2110 C865 1.701 . S
C2137 C831 1.478 . S
C2125 C560 1.577 . S
C2164 C826 1.352 . S
C2152 C410 1.284 . S
