# Generated by pormake.
# Topology soc, (4,6)-cn, num edge types: 1
# Building blocks:
#     Node 0, Type 0, BuildingBlock: ESEHIV_clean_sbu_0, # of connection points: 4
#     Node 1, Type 0, BuildingBlock: ESEHIV_clean_sbu_0, # of connection points: 4
#     Node 2, Type 0, BuildingBlock: ESEHIV_clean_sbu_0, # of connection points: 4
#     Node 3, Type 0, BuildingBlock: ESEHIV_clean_sbu_0, # of connection points: 4
#     Node 4, Type 0, BuildingBlock: ESEHIV_clean_sbu_0, # of connection points: 4
#     Node 5, Type 0, BuildingBlock: ESEHIV_clean_sbu_0, # of connection points: 4
#     Node 6, Type 0, BuildingBlock: ESEHIV_clean_sbu_0, # of connection points: 4
#     Node 7, Type 0, BuildingBlock: ESEHIV_clean_sbu_0, # of connection points: 4
#     Node 8, Type 0, BuildingBlock: ESEHIV_clean_sbu_0, # of connection points: 4
#     Node 9, Type 0, BuildingBlock: ESEHIV_clean_sbu_0, # of connection points: 4
#     Node 10, Type 0, BuildingBlock: ESEHIV_clean_sbu_0, # of connection points: 4
#     Node 11, Type 0, BuildingBlock: ESEHIV_clean_sbu_0, # of connection points: 4
#     Node 12, Type 1, BuildingBlock: BETDEL_clean_sbu_0, # of connection points: 6
#     Node 13, Type 1, BuildingBlock: BETDEL_clean_sbu_0, # of connection points: 6
#     Node 14, Type 1, BuildingBlock: BETDEL_clean_sbu_0, # of connection points: 6
#     Node 15, Type 1, BuildingBlock: BETDEL_clean_sbu_0, # of connection points: 6
#     Node 16, Type 1, BuildingBlock: BETDEL_clean_sbu_0, # of connection points: 6
#     Node 17, Type 1, BuildingBlock: BETDEL_clean_sbu_0, # of connection points: 6
#     Node 18, Type 1, BuildingBlock: BETDEL_clean_sbu_0, # of connection points: 6
#     Node 19, Type 1, BuildingBlock: BETDEL_clean_sbu_0, # of connection points: 6
#     Edge 20, Type (0, 1), BuildingBlock: AJUNOK_clean_linker_0, # of connection points: 2
#     Edge 21, Type (0, 1), BuildingBlock: AJUNOK_clean_linker_0, # of connection points: 2
#     Edge 22, Type (0, 1), BuildingBlock: AJUNOK_clean_linker_0, # of connection points: 2
#     Edge 23, Type (0, 1), BuildingBlock: AJUNOK_clean_linker_0, # of connection points: 2
#     Edge 24, Type (0, 1), BuildingBlock: AJUNOK_clean_linker_0, # of connection points: 2
#     Edge 25, Type (0, 1), BuildingBlock: AJUNOK_clean_linker_0, # of connection points: 2
#     Edge 26, Type (0, 1), BuildingBlock: AJUNOK_clean_linker_0, # of connection points: 2
#     Edge 27, Type (0, 1), BuildingBlock: AJUNOK_clean_linker_0, # of connection points: 2
#     Edge 28, Type (0, 1), BuildingBlock: AJUNOK_clean_linker_0, # of connection points: 2
#     Edge 29, Type (0, 1), BuildingBlock: AJUNOK_clean_linker_0, # of connection points: 2
#     Edge 30, Type (0, 1), BuildingBlock: AJUNOK_clean_linker_0, # of connection points: 2
#     Edge 31, Type (0, 1), BuildingBlock: AJUNOK_clean_linker_0, # of connection points: 2
#     Edge 32, Type (0, 1), BuildingBlock: AJUNOK_clean_linker_0, # of connection points: 2
#     Edge 33, Type (0, 1), BuildingBlock: AJUNOK_clean_linker_0, # of connection points: 2
#     Edge 34, Type (0, 1), BuildingBlock: AJUNOK_clean_linker_0, # of connection points: 2
#     Edge 35, Type (0, 1), BuildingBlock: AJUNOK_clean_linker_0, # of connection points: 2
#     Edge 36, Type (0, 1), BuildingBlock: AJUNOK_clean_linker_0, # of connection points: 2
#     Edge 37, Type (0, 1), BuildingBlock: AJUNOK_clean_linker_0, # of connection points: 2
#     Edge 38, Type (0, 1), BuildingBlock: AJUNOK_clean_linker_0, # of connection points: 2
#     Edge 39, Type (0, 1), BuildingBlock: AJUNOK_clean_linker_0, # of connection points: 2
#     Edge 40, Type (0, 1), BuildingBlock: AJUNOK_clean_linker_0, # of connection points: 2
#     Edge 41, Type (0, 1), BuildingBlock: AJUNOK_clean_linker_0, # of connection points: 2
#     Edge 42, Type (0, 1), BuildingBlock: AJUNOK_clean_linker_0, # of connection points: 2
#     Edge 43, Type (0, 1), BuildingBlock: AJUNOK_clean_linker_0, # of connection points: 2
#     Edge 44, Type (0, 1), BuildingBlock: AJUNOK_clean_linker_0, # of connection points: 2
#     Edge 45, Type (0, 1), BuildingBlock: AJUNOK_clean_linker_0, # of connection points: 2
#     Edge 46, Type (0, 1), BuildingBlock: AJUNOK_clean_linker_0, # of connection points: 2
#     Edge 47, Type (0, 1), BuildingBlock: AJUNOK_clean_linker_0, # of connection points: 2
#     Edge 48, Type (0, 1), BuildingBlock: AJUNOK_clean_linker_0, # of connection points: 2
#     Edge 49, Type (0, 1), BuildingBlock: AJUNOK_clean_linker_0, # of connection points: 2
#     Edge 50, Type (0, 1), BuildingBlock: AJUNOK_clean_linker_0, # of connection points: 2
#     Edge 51, Type (0, 1), BuildingBlock: AJUNOK_clean_linker_0, # of connection points: 2
#     Edge 52, Type (0, 1), BuildingBlock: AJUNOK_clean_linker_0, # of connection points: 2
#     Edge 53, Type (0, 1), BuildingBlock: AJUNOK_clean_linker_0, # of connection points: 2
#     Edge 54, Type (0, 1), BuildingBlock: AJUNOK_clean_linker_0, # of connection points: 2
#     Edge 55, Type (0, 1), BuildingBlock: AJUNOK_clean_linker_0, # of connection points: 2
#     Edge 56, Type (0, 1), BuildingBlock: AJUNOK_clean_linker_0, # of connection points: 2
#     Edge 57, Type (0, 1), BuildingBlock: AJUNOK_clean_linker_0, # of connection points: 2
#     Edge 58, Type (0, 1), BuildingBlock: AJUNOK_clean_linker_0, # of connection points: 2
#     Edge 59, Type (0, 1), BuildingBlock: AJUNOK_clean_linker_0, # of connection points: 2
#     Edge 60, Type (0, 1), BuildingBlock: AJUNOK_clean_linker_0, # of connection points: 2
#     Edge 61, Type (0, 1), BuildingBlock: AJUNOK_clean_linker_0, # of connection points: 2
#     Edge 62, Type (0, 1), BuildingBlock: AJUNOK_clean_linker_0, # of connection points: 2
#     Edge 63, Type (0, 1), BuildingBlock: AJUNOK_clean_linker_0, # of connection points: 2
#     Edge 64, Type (0, 1), BuildingBlock: AJUNOK_clean_linker_0, # of connection points: 2
#     Edge 65, Type (0, 1), BuildingBlock: AJUNOK_clean_linker_0, # of connection points: 2
#     Edge 66, Type (0, 1), BuildingBlock: AJUNOK_clean_linker_0, # of connection points: 2
#     Edge 67, Type (0, 1), BuildingBlock: AJUNOK_clean_linker_0, # of connection points: 2
# Relax obj value: 0.127
# Max RMSD: 0.179
# Mean RMSD: 0.152
data_MOF--net-soc--node1-ESEHIV_clean_sbu_0--node2-BETDEL_clean_sbu_0--edge1-AJUNOK_clean_linker_0
_symmetry_space_group_name_H-M    P1
_symmetry_Int_Tables_number       1
_symmetry_cell_setting            triclinic
loop_
_symmetry_equiv_pos_as_xyz
'x, y, z'
_cell_length_a     34.772567
_cell_length_b     33.846871
_cell_length_c     31.815959
_cell_angle_alpha  88.6708
_cell_angle_beta   90.33445
_cell_angle_gamma 77.150549
loop_
_atom_site_label
_atom_site_type_symbol
_atom_site_fract_x
_atom_site_fract_y
_atom_site_fract_z
_atom_type_partial_charge
Cu0 Cu 0.04838 0.03348 0.32649 0.0
N1 N 0.07446 0.0624 0.36254 0.0
N2 N 0.11145 0.10617 0.38023 0.0
C3 C 0.08964 0.09407 0.34982 0.0
C4 C 0.10951 0.08132 0.41364 0.0
C5 C 0.08688 0.05425 0.40257 0.0
O6 O 0.09093 0.99481 0.29801 0.0
C7 C 0.9836 0.09565 0.31472 0.0
O8 O 0.98257 0.08727 0.35511 0.0
H9 H 0.08638 0.10666 0.31807 0.0
H10 H 0.08121 0.02948 0.42185 0.0
N11 N 1.01537 1.00342 0.35304 0.0
N12 N 0.97014 0.96558 0.35743 0.0
C13 C 0.99517 0.98011 0.33222 0.0
C14 C 1.00291 1.00335 0.39305 0.0
C15 C 0.97498 0.98 0.39584 0.0
C16 C 0.10449 0.96019 0.31606 0.0
O17 O 0.08808 0.95117 0.35099 0.0
H18 H 0.99791 0.97491 0.29881 0.0
H19 H 1.01243 0.02009 0.41812 0.0
O20 O 1.01185 0.07551 0.29296 0.0
H21 H 0.12388 0.08216 0.44376 0.0
H22 H 0.95952 0.97406 0.42389 0.0
Cu23 Cu 0.03488 0.03365 0.73848 0.0
N24 N 1.00773 1.0052 0.70339 0.0
N25 N 0.96897 0.96229 0.68939 0.0
C26 C 0.99146 0.97521 0.71843 0.0
C27 C 0.97101 0.98531 0.65456 0.0
C28 C 0.99513 1.01167 0.66322 0.0
O29 O 0.9927 0.07406 0.76567 0.0
C30 C 0.0974 0.9692 0.74614 0.0
O31 O 0.09661 0.97961 0.7061 0.0
H32 H 0.99407 0.96496 0.75101 0.0
H33 H 1.00134 0.0351 0.64238 0.0
N34 N 0.06787 0.06308 0.71135 0.0
N35 N 0.11436 0.09922 0.70715 0.0
C36 C 0.08917 0.08506 0.73238 0.0
C37 C 0.0799 0.06343 0.67118 0.0
C38 C 0.10886 0.08556 0.66859 0.0
C39 C 0.97422 0.10061 0.73895 0.0
O40 O 0.98695 0.09888 0.7001 0.0
H41 H 0.0875 0.08897 0.76605 0.0
H42 H 0.06969 0.04731 0.646 0.0
O43 O 0.07127 0.98975 0.77019 0.0
H44 H 0.95516 0.98409 0.6254 0.0
H45 H 0.12498 0.09075 0.64075 0.0
Cu46 Cu 0.2925 0.03864 0.0402 0.0
N47 N 0.25422 0.02816 1.00427 0.0
N48 N 0.23478 1.00459 0.94522 0.0
C49 C 0.26554 1.00821 0.96921 0.0
C50 C 0.20227 0.0229 0.96617 0.0
C51 C 0.2145 0.03811 1.00276 0.0
O52 O 0.31857 0.98724 0.06866 0.0
C53 C 0.3001 0.09722 0.98358 0.0
O54 O 0.26268 0.1071 0.99373 0.0
H55 H 0.29615 0.9956 0.96201 0.0
H56 H 0.19592 0.05502 0.02634 0.0
N57 N 0.27206 0.07335 0.08219 0.0
N58 N 0.27493 0.11357 0.13556 0.0
C59 C 0.29209 0.09828 0.10003 0.0
C60 C 0.24091 0.07305 0.10696 0.0
C61 C 0.24252 0.09819 0.14008 0.0
C62 C 0.29545 0.9648 0.08101 0.0
O63 O 0.25772 0.9764 0.07175 0.0
H64 H 0.32018 0.10281 0.08883 0.0
H65 H 0.21999 0.05411 0.10264 0.0
O66 O 0.32264 0.06729 1.0031 0.0
H67 H 0.17214 0.02494 0.95595 0.0
H68 H 0.2223 0.10368 0.16613 0.0
Cu69 Cu 0.05277 0.32524 0.05763 0.0
N70 N 0.08087 0.35301 0.02215 0.0
N71 N 0.1266 0.35667 0.97396 0.0
C72 C 0.1088 0.33226 0.99714 0.0
C73 C 0.10972 0.39467 0.98552 0.0
C74 C 0.08126 0.39235 0.01537 0.0
O75 O 0.09326 0.29837 0.0998 0.0
C76 C 1.00634 0.31274 0.99028 0.0
O77 O 1.00758 0.35094 0.98434 0.0
H78 H 0.11621 0.29948 0.9965 0.0
H79 H 0.06235 0.41741 0.03085 0.0
N80 N 1.00961 0.35635 0.08507 0.0
N81 N 0.9544 0.36251 0.12265 0.0
C82 C 0.98072 0.33861 0.09802 0.0
C83 C 1.00132 0.39354 0.10141 0.0
C84 C 0.96721 0.39738 0.12485 0.0
C85 C 0.09305 0.30986 0.13796 0.0
O86 O 0.06123 0.33427 0.15188 0.0
H87 H 0.98031 0.30766 0.09083 0.0
H88 H 1.01995 0.41514 0.09886 0.0
O89 O 1.02658 0.29254 0.02071 0.0
H90 H 0.11693 0.42205 0.97282 0.0
H91 H 0.95464 0.42282 0.14414 0.0
Cu92 Cu 0.7639 0.02425 0.03316 0.0
N93 N 0.7333 0.07365 0.01419 0.0
N94 N 0.71774 0.13001 0.97455 0.0
C95 C 0.73995 0.09212 0.97804 0.0
C96 C 0.69662 0.13614 0.01009 0.0
C97 C 0.706 0.10095 0.03446 0.0
O98 O 0.81743 0.03183 0.04045 0.0
C99 C 0.73993 0.98408 0.96033 0.0
O100 O 0.71224 0.01722 0.95508 0.0
H101 H 0.76245 0.07889 0.95592 0.0
H102 H 0.69514 0.09645 0.06554 0.0
N103 N 0.74715 1.00785 0.08474 0.0
N104 N 0.73983 0.96496 0.13677 0.0
C105 C 0.74869 0.96907 0.09594 0.0
C106 C 0.73733 0.02918 0.1198 0.0
C107 C 0.73291 1.00267 0.15211 0.0
C108 C 0.83278 0.05451 0.064 0.0
O109 O 0.87098 0.05165 0.06178 0.0
H110 H 0.75858 0.9441 0.07509 0.0
H111 H 0.73538 0.06135 0.12229 0.0
O112 O 0.764 0.98115 0.99145 0.0
H113 H 0.67706 0.1644 0.01839 0.0
H114 H 0.72625 1.01031 0.18451 0.0
Cu115 Cu 0.03891 0.73259 0.01225 0.0
N116 N 1.01336 0.70851 0.9716 0.0
N117 N 0.96778 0.70889 0.92159 0.0
C118 C 0.97668 0.72535 0.95757 0.0
C119 C 1.00015 0.68018 0.91266 0.0
C120 C 1.02841 0.68026 0.94345 0.0
O121 O 0.99719 0.7577 0.05222 0.0
C122 C 0.10538 0.76601 0.98514 0.0
O123 O 0.1197 0.75766 0.02335 0.0
H124 H 0.95783 0.75122 0.97195 0.0
H125 H 0.05848 0.66276 0.94376 0.0
N126 N 0.07544 0.6962 0.04545 0.0
N127 N 0.12213 0.68258 0.09563 0.0
C128 C 0.08792 0.70714 0.0826 0.0
C129 C 0.10206 0.66277 0.03481 0.0
C130 C 0.13096 0.65428 0.06579 0.0
C131 C 0.97936 0.7319 0.06893 0.0
O132 O 0.99014 0.69407 0.05728 0.0
H133 H 0.07508 0.73588 0.09658 0.0
H134 H 0.10272 0.64815 1.00491 0.0
O135 O 0.06985 0.76347 0.97731 0.0
H136 H 1.00355 0.66119 0.88543 0.0
H137 H 0.15806 0.63128 0.06456 0.0
Cu138 Cu 0.53921 0.53575 0.83145 0.0
N139 N 0.56245 0.57094 0.86201 0.0
N140 N 0.59776 0.61782 0.8715 0.0
C141 C 0.57966 0.59867 0.84344 0.0
C142 C 0.59149 0.60178 0.90941 0.0
C143 C 0.56948 0.57291 0.90348 0.0
O144 O 0.5848 0.50278 0.80109 0.0
C145 C 0.46328 0.58565 0.8244 0.0
O146 O 0.46324 0.57254 0.86355 0.0
H147 H 0.58044 0.60337 0.80971 0.0
H148 H 0.56022 0.55412 0.92758 0.0
N149 N 0.51888 0.49922 0.8652 0.0
N150 N 0.48593 0.45084 0.87933 0.0
C151 C 0.48937 0.48182 0.85328 0.0
C152 C 0.53448 0.4787 0.90028 0.0
C153 C 0.51407 0.44892 0.90919 0.0
C154 C 0.59107 0.46418 0.798 0.0
O155 O 0.56171 0.44637 0.80487 0.0
H156 H 0.47283 0.48964 0.82418 0.0
H157 H 0.56045 0.48322 0.91661 0.0
O158 O 0.49395 0.57255 0.80208 0.0
H159 H 0.60252 0.60989 0.93914 0.0
H160 H 0.5205 0.42656 0.93462 0.0
Cu161 Cu 0.54819 0.52468 0.23303 0.0
N162 N 0.51631 0.49763 0.20142 0.0
N163 N 0.47378 0.45704 0.19375 0.0
C164 C 0.48544 0.48457 0.21799 0.0
C165 C 0.49805 0.45264 0.16045 0.0
C166 C 0.52417 0.47772 0.16518 0.0
O167 O 0.51153 0.56785 0.2625 0.0
C168 C 0.60786 0.45785 0.24385 0.0
O169 O 0.60891 0.46581 0.2034 0.0
H170 H 0.47398 0.49248 0.24898 0.0
H171 H 0.54896 0.47884 0.14522 0.0
N172 N 0.58389 0.54958 0.20354 0.0
N173 N 0.63346 0.58176 0.19624 0.0
C174 C 0.60866 0.56889 0.22314 0.0
C175 C 0.59308 0.55057 0.1625 0.0
C176 C 0.62371 0.57039 0.15794 0.0
C177 C 0.49948 0.60162 0.24238 0.0
O178 O 0.51389 0.60606 0.20495 0.0
H179 H 0.60889 0.57286 0.2568 0.0
H180 H 0.57886 0.53757 0.13772 0.0
O181 O 0.58223 0.48086 0.26634 0.0
H182 H 0.49817 0.43131 0.1356 0.0
H183 H 0.63725 0.57655 0.12867 0.0
Cu184 Cu 0.83106 0.54252 0.53636 0.0
N185 N 0.86616 0.55704 0.49816 0.0
N186 N 0.8852 0.58745 0.44162 0.0
C187 C 0.85462 0.58302 0.4656 0.0
C188 C 0.91742 0.5632 0.45969 0.0
C189 C 0.90549 0.5441 0.49452 0.0
O190 O 0.80531 0.59133 0.56735 0.0
C191 C 0.82089 0.47996 0.48821 0.0
O192 O 0.85871 0.47061 0.49759 0.0
H193 H 0.82435 0.59907 0.46013 0.0
H194 H 0.9241 0.52228 0.51547 0.0
N195 N 0.85577 0.50553 0.57761 0.0
N196 N 0.85902 0.45794 0.62794 0.0
C197 C 0.83756 0.47876 0.596 0.0
C198 C 0.89037 0.50141 0.5983 0.0
C199 C 0.89261 0.47163 0.62932 0.0
C200 C 0.82921 0.61117 0.58284 0.0
O201 O 0.86697 0.59854 0.57523 0.0
H202 H 0.80879 0.47498 0.58613 0.0
H203 H 0.91182 0.51953 0.59226 0.0
O204 O 0.79973 0.51278 0.50237 0.0
H205 H 0.94733 0.55961 0.44856 0.0
H206 H 0.91632 0.46189 0.65202 0.0
Cu207 Cu 0.55419 0.79699 0.55149 0.0
N208 N 0.59672 0.76712 0.52007 0.0
N209 N 0.64751 0.75657 0.47463 0.0
C210 C 0.62269 0.78388 0.49818 0.0
C211 C 0.63667 0.72116 0.48269 0.0
C212 C 0.6056 0.7277 0.51043 0.0
O213 O 0.57966 0.8275 0.59003 0.0
C214 C 0.50965 0.80864 0.48028 0.0
O215 O 0.52424 0.76939 0.48076 0.0
H216 H 0.62293 0.81569 0.49956 0.0
H217 H 0.58957 0.70554 0.52122 0.0
N218 N 0.52275 0.76689 0.58152 0.0
N219 N 0.47074 0.75384 0.61695 0.0
C220 C 0.48601 0.78214 0.59612 0.0
C221 C 0.53114 0.72761 0.59395 0.0
C222 C 0.49932 0.71954 0.61573 0.0
C223 C 0.58826 0.81534 0.62791 0.0
O224 O 0.5727 0.78656 0.64415 0.0
H225 H 0.47078 0.81352 0.59158 0.0
H226 H 0.55882 0.7065 0.58859 0.0
O227 O 0.51849 0.82958 0.51014 0.0
H228 H 0.64923 0.69258 0.4683 0.0
H229 H 0.49803 0.69087 0.63079 0.0
Cu230 Cu 0.28295 0.50961 0.52831 0.0
N231 N 0.31183 0.5409 0.4976 0.0
N232 N 0.32372 0.59322 0.45935 0.0
C233 C 0.29744 0.57924 0.48327 0.0
C234 C 0.35598 0.56249 0.45865 0.0
C235 C 0.34854 0.53024 0.4822 0.0
O236 O 0.25041 0.54513 0.56693 0.0
C237 C 0.24116 0.49709 0.4541 0.0
O238 O 0.24568 0.5329 0.44126 0.0
H239 H 0.26779 0.59616 0.48931 0.0
H240 H 0.36796 0.50066 0.4865 0.0
N241 N 0.31339 0.46768 0.56196 0.0
N242 N 0.32236 0.42243 0.61578 0.0
C243 C 0.29666 0.44391 0.58714 0.0
C244 C 0.35151 0.46033 0.57417 0.0
C245 C 0.35715 0.43227 0.60722 0.0
C246 C 0.27007 0.55396 0.59774 0.0
O247 O 0.3086 0.54143 0.59843 0.0
H248 H 0.26571 0.44357 0.58494 0.0
H249 H 0.37295 0.47631 0.5621 0.0
O250 O 0.25275 0.48395 0.49079 0.0
H251 H 0.38236 0.56264 0.4408 0.0
H252 H 0.38426 0.42166 0.62498 0.0
Cu253 Cu 0.52934 0.23599 0.51473 0.0
N254 N 0.56874 0.20806 0.47952 0.0
N255 N 0.62157 0.19826 0.43794 0.0
C256 C 0.59828 0.22374 0.46414 0.0
C257 C 0.60577 0.16532 0.4365 0.0
C258 C 0.57326 0.17139 0.46224 0.0
O259 O 0.55617 0.26676 0.55292 0.0
C260 C 0.47738 0.2581 0.44302 0.0
O261 O 0.50549 0.23317 0.4234 0.0
H262 H 0.60142 0.25411 0.47067 0.0
H263 H 0.55348 0.15117 0.46648 0.0
N264 N 0.50845 0.20171 0.55059 0.0
N265 N 0.47478 0.18606 0.60579 0.0
C266 C 0.48537 0.21594 0.58309 0.0
C267 C 0.51286 0.16113 0.55283 0.0
C268 C 0.49192 0.15139 0.5869 0.0
C269 C 0.58052 0.24434 0.57865 0.0
O270 O 0.5857 0.2048 0.57651 0.0
H271 H 0.47663 0.24783 0.59005 0.0
H272 H 0.53066 0.13994 0.53205 0.0
O273 O 0.48336 0.2664 0.48127 0.0
H274 H 0.6165 0.13905 0.4176 0.0
H275 H 0.49041 0.12119 0.59762 0.0
Dy276 Dy 0.25435 0.27509 0.32457 0.0
C277 C 0.3606 0.36113 0.24092 0.0
C278 C 0.20569 0.22618 0.35286 0.0
Dy279 Dy 0.3061 0.31841 0.26846 0.0
O280 O 0.24311 0.22088 0.36128 0.0
O281 O 0.19455 0.25915 0.33 0.0
O282 O 0.29045 0.28315 0.38132 0.0
O283 O 0.31744 0.27603 0.32238 0.0
C284 C 0.32248 0.28368 0.36057 0.0
C285 C 0.23896 0.30949 0.23104 0.0
O286 O 0.32639 0.25593 0.244 0.0
O287 O 0.27647 0.2304 0.27562 0.0
O288 O 0.32248 0.37414 0.23933 0.0
O289 O 0.36885 0.32454 0.25714 0.0
O290 O 0.27059 0.3124 0.21064 0.0
O291 O 0.24341 0.31659 0.26957 0.0
O292 O 0.2292 0.33767 0.34443 0.0
O293 O 0.28089 0.36375 0.31748 0.0
C294 C 0.30651 0.2271 0.24978 0.0
C295 C 0.24878 0.36689 0.3408 0.0
Dy296 Dy 0.79885 0.30252 0.30967 0.0
C297 C 0.78648 0.17969 0.18619 0.0
C298 C 0.79599 0.36011 0.37021 0.0
Dy299 Dy 0.78138 0.24197 0.24221 0.0
O300 O 0.8113 0.32154 0.375 0.0
O301 O 0.78254 0.36735 0.3319 0.0
O302 O 0.86321 0.27176 0.30861 0.0
O303 O 0.82078 0.23792 0.29665 0.0
C304 C 0.85734 0.23706 0.29667 0.0
C305 C 0.7239 0.30862 0.25387 0.0
O306 O 0.75345 0.2194 0.29832 0.0
O307 O 0.75229 0.27526 0.34018 0.0
O308 O 0.77167 0.21792 0.17769 0.0
O309 O 0.79863 0.17588 0.22513 0.0
O310 O 0.71706 0.27466 0.24072 0.0
O311 O 0.76055 0.30615 0.25497 0.0
O312 O 0.82178 0.32882 0.25292 0.0
O313 O 0.82731 0.27144 0.21205 0.0
C314 C 0.74183 0.24073 0.33227 0.0
C315 C 0.83508 0.30751 0.21953 0.0
Dy316 Dy 0.79052 0.73442 0.25547 0.0
C317 C 0.87116 0.85638 0.3106 0.0
C318 C 0.74521 0.67942 0.23852 0.0
Dy319 Dy 0.83099 0.7971 0.29339 0.0
O320 O 0.78308 0.67338 0.23196 0.0
O321 O 0.73298 0.71477 0.25454 0.0
O322 O 0.76853 0.77597 0.20085 0.0
O323 O 0.77585 0.80094 0.25926 0.0
C324 C 0.76793 0.80895 0.22085 0.0
C325 C 0.85431 0.72342 0.32896 0.0
O326 O 0.77902 0.80201 0.33733 0.0
O327 O 0.76906 0.73843 0.32205 0.0
O328 O 0.88633 0.82092 0.29614 0.0
O329 O 0.83336 0.85998 0.31545 0.0
O330 O 0.85459 0.75676 0.34798 0.0
O331 O 0.84587 0.73036 0.29036 0.0
O332 O 0.84303 0.72727 0.21271 0.0
O333 O 0.85604 0.78968 0.22781 0.0
C334 C 0.76248 0.77083 0.34577 0.0
C335 C 0.86175 0.75689 0.20447 0.0
Dy336 Dy 0.28156 0.7665 0.25673 0.0
C337 C 0.39003 0.83001 0.3534 0.0
C338 C 0.22822 0.73982 0.20734 0.0
Dy339 Dy 0.33351 0.80893 0.30369 0.0
O340 O 0.26525 0.73651 0.19908 0.0
O341 O 0.21994 0.75857 0.24248 0.0
O342 O 0.3233 0.7068 0.26702 0.0
O343 O 0.34636 0.75891 0.25947 0.0
C344 C 0.35482 0.72112 0.26826 0.0
C345 C 0.25899 0.85327 0.29356 0.0
O346 O 0.34365 0.83358 0.24015 0.0
O347 O 0.28908 0.81616 0.21072 0.0
O348 O 0.35306 0.83468 0.36288 0.0
O349 O 0.39587 0.8142 0.31654 0.0
O350 O 0.29011 0.86844 0.2945 0.0
O351 O 0.2688 0.81549 0.3017 0.0
O352 O 0.2742 0.74007 0.32062 0.0
O353 O 0.32922 0.75768 0.34845 0.0
C354 C 0.31793 0.83612 0.20892 0.0
C355 C 0.30159 0.73641 0.35047 0.0
Dy356 Dy 0.28718 0.80333 0.80209 0.0
C357 C 0.24009 0.67649 0.71793 0.0
C358 C 0.28439 0.87699 0.83464 0.0
Dy359 Dy 0.25557 0.73945 0.76125 0.0
O360 O 0.29706 0.8426 0.85472 0.0
O361 O 0.27482 0.8709 0.79636 0.0
O362 O 0.34881 0.76637 0.80706 0.0
O363 O 0.30127 0.73668 0.80972 0.0
C364 C 0.33861 0.73159 0.80654 0.0
C365 C 0.20646 0.81311 0.75969 0.0
O366 O 0.22684 0.7346 0.82357 0.0
O367 O 0.24073 0.7936 0.84839 0.0
O368 O 0.25631 0.67342 0.75511 0.0
O369 O 0.23266 0.71391 0.70448 0.0
O370 O 0.19449 0.7796 0.76305 0.0
O371 O 0.24318 0.80528 0.7535 0.0
O372 O 0.31989 0.80461 0.74196 0.0
O373 O 0.30739 0.74425 0.71941 0.0
C374 C 0.22214 0.76348 0.85176 0.0
C375 C 0.32695 0.7738 0.71607 0.0
Dy376 Dy 0.28072 0.23686 0.77782 0.0
C377 C 0.3878 0.33823 0.84256 0.0
C378 C 0.22869 0.19019 0.75783 0.0
Dy379 Dy 0.34172 0.28505 0.82428 0.0
O380 O 0.26697 0.1785 0.75514 0.0
O381 O 0.21939 0.22683 0.77173 0.0
O382 O 0.26535 0.28273 0.72309 0.0
O383 O 0.30209 0.29133 0.77102 0.0
C384 C 0.28725 0.30631 0.7367 0.0
C385 C 0.3379 0.21463 0.86508 0.0
O386 O 0.28389 0.31214 0.85522 0.0
O387 O 0.24888 0.26402 0.83474 0.0
O388 O 0.39999 0.2991 0.84081 0.0
O389 O 0.35013 0.3485 0.83394 0.0
O390 O 0.3595 0.23896 0.87788 0.0
O391 O 0.32085 0.22981 0.83151 0.0
O392 O 0.33866 0.20738 0.75014 0.0
O393 O 0.37408 0.25623 0.76781 0.0
C394 C 0.25239 0.29573 0.85708 0.0
C395 C 0.36963 0.22423 0.74613 0.0
Dy396 Dy 0.7552 0.27628 0.75552 0.0
C397 C 0.87769 0.29348 0.88109 0.0
C398 C 0.69102 0.27768 0.70339 0.0
Dy399 Dy 0.81563 0.29713 0.82532 0.0
O400 O 0.71874 0.29716 0.69632 0.0
O401 O 0.69843 0.2578 0.73907 0.0
O402 O 0.7966 0.22093 0.7297 0.0
O403 O 0.81499 0.25163 0.77831 0.0
C404 C 0.82572 0.22132 0.75542 0.0
C405 C 0.74741 0.35377 0.81071 0.0
O406 O 0.83632 0.32161 0.76616 0.0
O407 O 0.77777 0.3282 0.72765 0.0
O408 O 0.84043 0.30189 0.89079 0.0
O409 O 0.88076 0.28775 0.84083 0.0
O410 O 0.7796 0.36227 0.8256 0.0
O411 O 0.75261 0.31575 0.80921 0.0
O412 O 0.73628 0.24808 0.81388 0.0
O413 O 0.78985 0.25013 0.85841 0.0
C414 C 0.81275 0.33682 0.73413 0.0
C415 C 0.75692 0.23817 0.84933 0.0
Dy416 Dy 0.7484 0.7731 0.79537 0.0
C417 C 0.85955 0.86062 0.7282 0.0
C418 C 0.69795 0.72605 0.82249 0.0
Dy419 Dy 0.80305 0.81928 0.75157 0.0
O420 O 0.73606 0.71665 0.82573 0.0
O421 O 0.68698 0.76149 0.8039 0.0
O422 O 0.78716 0.76487 0.85206 0.0
O423 O 0.81305 0.76499 0.79251 0.0
C424 C 0.81964 0.76332 0.8318 0.0
C425 C 0.73212 0.82892 0.71437 0.0
O426 O 0.81759 0.7623 0.71481 0.0
O427 O 0.76287 0.7384 0.73511 0.0
O428 O 0.8223 0.87123 0.71866 0.0
O429 O 0.86608 0.82713 0.7506 0.0
O430 O 0.76444 0.82952 0.69441 0.0
O431 O 0.73858 0.82659 0.75373 0.0
O432 O 0.73421 0.82981 0.83374 0.0
O433 O 0.78616 0.85663 0.80904 0.0
C434 C 0.7937 0.73702 0.71019 0.0
C435 C 0.75663 0.85692 0.83531 0.0
C436 C 0.11976 0.1729 0.35251 0.0
C437 C 0.13449 0.13685 0.37604 0.0
C438 C 0.14241 0.20223 0.34632 0.0
C439 C 0.18093 0.19652 0.36301 0.0
H440 H 0.09047 0.1784 0.33867 0.0
H441 H 0.12991 0.22919 0.32755 0.0
S442 S 0.23386 0.10686 0.42584 0.0
N443 N 0.19044 0.09696 0.41544 0.0
N444 N 0.23283 0.15177 0.40391 0.0
C445 C 0.19591 0.16074 0.3868 0.0
C446 C 0.17277 0.13103 0.39331 0.0
C447 C 0.9126 0.12667 0.30227 0.0
C448 C 0.95225 0.12913 0.29739 0.0
C449 C 0.88165 0.16139 0.29908 0.0
C450 C 0.88935 0.20008 0.2922 0.0
H451 H 0.90563 0.09795 0.31106 0.0
H452 H 0.85181 0.15815 0.30483 0.0
S453 S 0.98774 0.22242 0.27339 0.0
N454 N 0.99719 0.17283 0.28188 0.0
N455 N 0.93936 0.23825 0.27663 0.0
C456 C 0.92868 0.20262 0.28481 0.0
C457 C 0.96007 0.16711 0.28728 0.0
C458 C 0.9581 0.90685 0.31906 0.0
C459 C 0.9443 0.93962 0.34543 0.0
C460 C 0.93395 0.88057 0.30768 0.0
C461 C 0.89474 0.8864 0.32158 0.0
H462 H 0.98815 0.90099 0.30789 0.0
H463 H 0.94626 0.85532 0.28794 0.0
S464 S 0.84349 0.96951 0.38879 0.0
N465 N 0.8884 0.97759 0.38368 0.0
N466 N 0.84275 0.92855 0.36179 0.0
C467 C 0.88018 0.91973 0.34703 0.0
C468 C 0.90504 0.94618 0.35916 0.0
C469 C 0.174 0.94693 0.28876 0.0
C470 C 0.14148 0.93197 0.30256 0.0
C471 C 0.21152 0.92095 0.28466 0.0
C472 C 0.21799 0.87891 0.29375 0.0
H473 H 0.17101 0.9792 0.28339 0.0
H474 H 0.23594 0.93418 0.27549 0.0
S475 S 0.14129 0.82385 0.32541 0.0
N476 N 0.11746 0.87182 0.32154 0.0
N477 N 0.1875 0.82325 0.31317 0.0
C478 C 0.18515 0.86328 0.30494 0.0
C479 C 0.1471 0.88974 0.30955 0.0
C480 C 0.16509 0.92602 0.74168 0.0
C481 C 0.1273 0.93246 0.75972 0.0
C482 C 0.1913 0.88787 0.74359 0.0
C483 C 0.18049 0.85431 0.76293 0.0
H484 H 0.17378 0.95033 0.72403 0.0
H485 H 0.21934 0.88421 0.72779 0.0
S486 S 0.08697 0.8558 0.81935 0.0
N487 N 0.08197 0.90279 0.80102 0.0
N488 N 0.13094 0.83088 0.80437 0.0
C489 C 0.14377 0.8608 0.78335 0.0
C490 C 0.11727 0.89994 0.78191 0.0
C491 C 0.182 0.1115 0.70622 0.0
C492 C 0.14264 0.12215 0.71974 0.0
C493 C 0.21007 0.13297 0.71944 0.0
C494 C 0.19949 0.16634 0.74588 0.0
H495 H 0.19119 0.08604 0.68581 0.0
H496 H 0.24005 0.12379 0.70834 0.0
S497 S 0.09992 0.20679 0.7891 0.0
N498 N 0.09455 0.16816 0.76068 0.0
N499 N 0.14672 0.20895 0.78487 0.0
C500 C 0.16014 0.17733 0.75933 0.0
C501 C 0.13187 0.15512 0.74644 0.0
C502 C 0.90848 0.13944 0.71419 0.0
C503 C 0.93619 0.12995 0.74743 0.0
C504 C 0.87348 0.16895 0.71773 0.0
C505 C 0.86431 0.1912 0.75449 0.0
H506 H 0.91383 0.12385 0.68471 0.0
H507 H 0.85352 0.17462 0.69089 0.0
S508 S 0.92585 0.17786 0.8517 0.0
N509 N 0.95151 0.14481 0.81921 0.0
N510 N 0.88532 0.20076 0.82582 0.0
C511 C 0.89133 0.18199 0.78845 0.0
C512 C 0.92723 0.15121 0.78499 0.0
C513 C 0.9046 0.94367 0.68031 0.0
C514 C 0.94331 0.93464 0.69668 0.0
C515 C 0.87801 0.91919 0.69025 0.0
C516 C 0.88918 0.88445 0.7166 0.0
H517 H 0.89435 0.97065 0.66081 0.0
H518 H 0.84825 0.92795 0.67761 0.0
S519 S 0.98823 0.8456 0.76473 0.0
N520 N 0.99222 0.8872 0.73856 0.0
N521 N 0.94238 0.84111 0.75709 0.0
C522 C 0.9282 0.8743 0.73207 0.0
C523 C 0.9552 0.89943 0.7222 0.0
C524 C 0.30302 0.17257 0.1497 0.0
C525 C 0.29041 0.13809 0.16439 0.0
C526 C 0.31338 0.19975 0.17796 0.0
C527 C 0.31169 0.19275 0.22153 0.0
H528 H 0.30232 0.17985 0.11634 0.0
H529 H 0.31922 0.22795 0.16572 0.0
S530 S 0.28896 0.10226 0.27504 0.0
N531 N 0.28293 0.09508 0.22448 0.0
N532 N 0.30267 0.14583 0.27775 0.0
C533 C 0.30314 0.15619 0.23623 0.0
C534 C 0.29221 0.12895 0.20759 0.0
C535 C 0.92619 0.30844 0.15574 0.0
C536 C 0.92317 0.34993 0.14578 0.0
C537 C 0.89677 0.29502 0.17808 0.0
C538 C 0.86335 0.32249 0.19229 0.0
H539 H 0.95197 0.28588 0.14722 0.0
H540 H 0.90102 0.26294 0.18562 0.0
S541 S 0.83914 0.43377 0.17296 0.0
N542 N 0.88214 0.41806 0.14999 0.0
N543 N 0.8277 0.39281 0.19387 0.0
C544 C 0.85948 0.36394 0.18255 0.0
C545 C 0.88916 0.37766 0.15893 0.0
C546 C 0.75951 0.92142 0.20024 0.0
C547 C 0.74247 0.9273 0.15969 0.0
C548 C 0.76652 0.88325 0.22074 0.0
C549 C 0.75689 0.84984 0.20118 0.0
H550 H 0.76892 0.946 0.21547 0.0
H551 H 0.78077 0.87958 0.25135 0.0
S552 S 0.70652 0.85107 0.09781 0.0
N553 N 0.71212 0.89787 0.10295 0.0
N554 N 0.72601 0.8261 0.14079 0.0
C555 C 0.73813 0.85591 0.16155 0.0
C556 C 0.73074 0.89467 0.14096 0.0
C557 C 0.18899 0.68851 0.117 0.0
C558 C 0.14877 0.69299 0.1263 0.0
C559 C 0.21434 0.70349 0.14367 0.0
C560 C 0.20055 0.72354 0.18073 0.0
H561 H 0.20072 0.67475 0.08805 0.0
H562 H 0.2449 0.69991 0.13469 0.0
S563 S 0.09846 0.74049 0.22105 0.0
N564 N 0.09682 0.71684 0.17645 0.0
N565 N 0.14446 0.74531 0.2265 0.0
C566 C 0.1607 0.72721 0.19112 0.0
C567 C 0.13484 0.71189 0.16393 0.0
C568 C 0.27066 0.97957 0.88189 0.0
C569 C 0.23868 0.97976 0.90902 0.0
C570 C 0.28462 0.94688 0.85586 0.0
C571 C 0.26662 0.91388 0.85621 0.0
H572 H 0.28684 1.00342 0.88337 0.0
H573 H 0.31079 0.94637 0.83737 0.0
S574 S 0.17715 0.90347 0.91401 0.0
N575 N 0.18607 0.94683 0.92962 0.0
N576 N 0.21177 0.88568 0.87969 0.0
C577 C 0.2322 0.91558 0.87951 0.0
C578 C 0.21809 0.94873 0.90608 0.0
C579 C 0.18968 0.36087 0.93969 0.0
C580 C 0.15645 0.34368 0.94275 0.0
C581 C 0.22054 0.34554 0.91184 0.0
C582 C 0.21919 0.31257 0.88589 0.0
H583 H 0.19232 0.38551 0.95981 0.0
H584 H 0.2458 0.35934 0.91108 0.0
S585 S 0.13609 0.25967 0.8798 0.0
N586 N 0.12241 0.29437 0.91548 0.0
N587 N 0.17981 0.26494 0.86411 0.0
C588 C 0.18522 0.2961 0.88804 0.0
C589 C 0.15406 0.3118 0.91616 0.0
C590 C 0.73461 0.19444 0.95446 0.0
C591 C 0.72221 0.15943 0.94302 0.0
C592 C 0.74517 0.22029 0.92376 0.0
C593 C 0.74273 0.21233 0.88073 0.0
H594 H 0.73791 0.20072 0.98736 0.0
H595 H 0.75581 0.24638 0.93374 0.0
S596 S 0.7103 0.12519 0.83506 0.0
N597 N 0.70726 0.11832 0.88642 0.0
N598 N 0.72575 0.16766 0.82834 0.0
C599 C 0.72884 0.17822 0.86896 0.0
C600 C 0.71898 0.15149 0.90027 0.0
C601 C 0.89576 0.73354 0.91895 0.0
C602 C 0.93158 0.7217 0.89766 0.0
C603 C 0.86014 0.74746 0.89709 0.0
C604 C 0.8587 0.75025 0.85287 0.0
H605 H 0.89522 0.73168 0.95296 0.0
H606 H 0.83342 0.75593 0.91522 0.0
S607 S 0.9445 0.72529 0.78198 0.0
N608 N 0.96381 0.71544 0.82969 0.0
N609 N 0.89647 0.74109 0.78841 0.0
C610 C 0.89432 0.73901 0.83098 0.0
C611 C 0.93083 0.72473 0.85339 0.0
C612 C 0.16747 0.29271 0.145 0.0
C613 C 0.13021 0.30325 0.164 0.0
C614 C 0.20235 0.29372 0.16739 0.0
C615 C 0.20165 0.30518 0.20981 0.0
H616 H 0.16968 0.28535 0.11202 0.0
H617 H 0.2301 0.28638 0.1509 0.0
S618 S 0.11242 0.33181 0.27566 0.0
N619 N 0.09541 0.32236 0.22927 0.0
N620 N 0.16066 0.32488 0.27057 0.0
C621 C 0.16492 0.31389 0.22978 0.0
C622 C 0.12937 0.31278 0.2071 0.0
C623 C 0.12876 0.75317 0.91053 0.0
C624 C 0.13333 0.76946 0.9502 0.0
C625 C 0.15792 0.75046 0.87935 0.0
C626 C 0.19261 0.76461 0.88611 0.0
H627 H 0.10306 0.74109 0.90396 0.0
H628 H 0.153 0.73753 0.8495 0.0
S629 S 0.21847 0.81118 0.98386 0.0
N630 N 0.17532 0.80049 0.99401 0.0
N631 N 0.22922 0.79644 0.93538 0.0
C632 C 0.19705 0.78189 0.92521 0.0
C633 C 0.16775 0.784 0.95717 0.0
C634 C 0.34832 0.13508 0.95318 0.0
C635 C 0.31368 0.12069 0.94904 0.0
C636 C 0.35673 0.16419 0.92447 0.0
C637 C 0.33117 0.17938 0.89031 0.0
H638 H 0.36774 0.12572 0.98006 0.0
H639 H 0.38278 0.176 0.92999 0.0
S640 S 0.23915 0.14731 0.86296 0.0
N641 N 0.25541 0.12093 0.90629 0.0
N642 N 0.27169 0.17487 0.85221 0.0
C643 C 0.2979 0.16307 0.88434 0.0
C644 C 0.28904 0.13394 0.91379 0.0
C645 C 0.98133 0.29428 0.9213 0.0
C646 C 0.97681 0.29736 0.96512 0.0
C647 C 0.94962 0.29116 0.8947 0.0
C648 C 0.91164 0.29231 0.91065 0.0
H649 H 1.00921 0.29612 0.90725 0.0
H650 H 0.95452 0.28975 0.86112 0.0
S651 S 0.8844 0.29919 0.02337 0.0
N652 N 0.93172 0.30005 0.02338 0.0
N653 N 0.87202 0.2951 0.97369 0.0
C654 C 0.90705 0.29413 0.9546 0.0
C655 C 0.93959 0.29652 0.98171 0.0
C656 C 0.75108 0.91015 0.94075 0.0
C657 C 0.7438 0.95152 0.92859 0.0
C658 C 0.75329 0.87959 0.91064 0.0
C659 C 0.74928 0.88924 0.86726 0.0
H660 H 0.75465 0.90137 0.97374 0.0
H661 H 0.75932 0.84816 0.92129 0.0
S662 S 0.73127 0.99253 0.81889 0.0
N663 N 0.73266 1.00011 0.86992 0.0
N664 N 0.73854 0.94296 0.81385 0.0
C665 C 0.74246 0.93034 0.85482 0.0
C666 C 0.73921 0.96136 0.88532 0.0
C667 C 0.92505 0.71297 0.11126 0.0
C668 C 0.9477 0.74181 0.10155 0.0
C669 C 0.89718 0.71849 0.1437 0.0
C670 C 0.89032 0.7532 0.16849 0.0
H671 H 0.92909 0.68523 0.09387 0.0
H672 H 0.88128 0.69485 0.14965 0.0
S673 S 0.94066 0.83904 0.15562 0.0
N674 N 0.96041 0.80717 0.11902 0.0
N675 N 0.9082 0.81789 0.17993 0.0
C676 C 0.91211 0.78292 0.15861 0.0
C677 C 0.9406 0.77721 0.12526 0.0
C678 C 0.28585 0.89831 0.10865 0.0
C679 C 0.30823 0.92824 0.10889 0.0
C680 C 0.29086 0.8675 0.13972 0.0
C681 C 0.31835 0.86522 0.17285 0.0
H682 H 0.26299 0.89956 0.08504 0.0
H683 H 0.27173 0.84629 0.13852 0.0
S684 S 0.3871 0.93416 0.1858 0.0
N685 N 0.3611 0.95201 0.14315 0.0
N686 N 0.37073 0.89419 0.20184 0.0
C687 C 0.34272 0.89357 0.17207 0.0
C688 C 0.33765 0.925 0.14005 0.0
C689 C 0.79323 0.12317 0.08252 0.0
C690 C 0.81062 0.08292 0.0949 0.0
C691 C 0.78362 0.15405 0.11234 0.0
C692 C 0.79158 0.14592 0.15563 0.0
H693 H 0.78932 0.13137 0.0494 0.0
H694 H 0.77175 0.18483 0.10114 0.0
S695 S 0.83351 0.04455 0.2043 0.0
N696 N 0.83293 0.03617 0.15339 0.0
N697 N 0.81482 0.09352 0.20926 0.0
C698 C 0.80693 0.1053 0.16841 0.0
C699 C 0.81659 0.07405 0.13811 0.0
C700 C 0.60868 0.67871 0.83309 0.0
C701 C 0.62205 0.64618 0.86179 0.0
C702 C 0.6329 0.70529 0.82138 0.0
C703 C 0.67168 0.69958 0.83717 0.0
H704 H 0.5793 0.68349 0.81958 0.0
H705 H 0.62153 0.72978 0.79901 0.0
S706 S 0.72079 0.61844 0.91269 0.0
N707 N 0.67632 0.6098 0.90565 0.0
N708 N 0.72212 0.65892 0.88324 0.0
C709 C 0.68526 0.66719 0.866 0.0
C710 C 0.66038 0.6407 0.87843 0.0
C711 C 0.4373 0.65608 0.7945 0.0
C712 C 0.42993 0.61946 0.8105 0.0
C713 C 0.40713 0.69168 0.7921 0.0
C714 C 0.36823 0.69208 0.80512 0.0
H715 H 0.46708 0.65794 0.7864 0.0
H716 H 0.4147 0.71949 0.78112 0.0
S717 S 0.33251 0.60271 0.84395 0.0
N718 N 0.38009 0.58493 0.83608 0.0
N719 N 0.32346 0.65135 0.83042 0.0
C720 C 0.35992 0.655 0.81828 0.0
C721 C 0.39075 0.61891 0.82135 0.0
C722 C 0.42193 0.43615 0.85906 0.0
C723 C 0.46144 0.42234 0.87222 0.0
C724 C 0.3981 0.40881 0.85 0.0
C725 C 0.41315 0.36664 0.85311 0.0
H726 H 0.40941 0.46838 0.85584 0.0
H727 H 0.36783 0.42082 0.84004 0.0
S728 S 0.51542 0.31505 0.88419 0.0
N729 N 0.51487 0.36383 0.88666 0.0
N730 N 0.47043 0.31247 0.86956 0.0
C731 C 0.45272 0.35249 0.86601 0.0
C732 C 0.47679 0.38031 0.87561 0.0
C733 C 0.6372 0.39576 0.79048 0.0
C734 C 0.63212 0.43807 0.79485 0.0
C735 C 0.67455 0.36913 0.7942 0.0
C736 C 0.70881 0.38333 0.80278 0.0
H737 H 0.61185 0.38272 0.78538 0.0
H738 H 0.67633 0.33692 0.79161 0.0
S739 S 0.71316 0.49137 0.81288 0.0
N740 N 0.66583 0.49293 0.8051 0.0
N741 N 0.73572 0.44297 0.81217 0.0
C742 C 0.70466 0.42563 0.80522 0.0
C743 C 0.66653 0.4529 0.8012 0.0
C744 C 0.67621 0.42073 0.25987 0.0
C745 C 0.63566 0.42127 0.26026 0.0
C746 C 0.70466 0.38405 0.26025 0.0
C747 C 0.69355 0.34651 0.26001 0.0
H748 H 0.68594 0.44889 0.25641 0.0
H749 H 0.73545 0.38524 0.25802 0.0
S750 S 0.5911 0.33157 0.26432 0.0
N751 N 0.58582 0.38132 0.26322 0.0
N752 N 0.63912 0.31224 0.26376 0.0
C753 C 0.65313 0.34664 0.26281 0.0
C754 C 0.62421 0.38407 0.26292 0.0
C755 C 0.65339 0.63605 0.23574 0.0
C756 C 0.66251 0.60476 0.20668 0.0
C757 C 0.68063 0.65941 0.24601 0.0
C758 C 0.71853 0.65205 0.22829 0.0
H759 H 0.62455 0.64311 0.25001 0.0
H760 H 0.67176 0.68364 0.268 0.0
S761 S 0.75799 0.57206 0.15225 0.0
N762 N 0.71265 0.56669 0.16127 0.0
N763 N 0.76417 0.6102 0.18113 0.0
C764 C 0.72847 0.62021 0.19991 0.0
C765 C 0.70038 0.59676 0.1889 0.0
C766 C 0.46009 0.67337 0.23821 0.0
C767 C 0.46618 0.63412 0.25693 0.0
C768 C 0.42518 0.70283 0.24441 0.0
C769 C 0.39473 0.69393 0.26906 0.0
H770 H 0.48182 0.68093 0.21705 0.0
H771 H 0.42107 0.73173 0.22768 0.0
S772 S 0.39775 0.59846 0.3302 0.0
N773 N 0.44028 0.5901 0.30535 0.0
N774 N 0.37454 0.64501 0.31631 0.0
C775 C 0.40148 0.65598 0.29034 0.0
C776 C 0.43724 0.6262 0.28453 0.0
C777 C 0.40632 0.4511 0.21314 0.0
C778 C 0.44584 0.43271 0.20478 0.0
C779 C 0.37879 0.42771 0.22397 0.0
C780 C 0.39001 0.38509 0.228 0.0
H781 H 0.39663 0.48378 0.21086 0.0
H782 H 0.34863 0.44321 0.22991 0.0
S783 S 0.49059 0.3226 0.2111 0.0
N784 N 0.49498 0.3696 0.20176 0.0
N785 N 0.44392 0.32575 0.22337 0.0
C786 C 0.42967 0.36649 0.22028 0.0
C787 C 0.45739 0.39024 0.20835 0.0
C788 C 0.78533 0.64818 0.6397 0.0
C789 C 0.81682 0.64606 0.61161 0.0
C790 C 0.77778 0.67777 0.6711 0.0
C791 C 0.80131 0.70662 0.67568 0.0
H792 H 0.76732 0.6259 0.63852 0.0
H793 H 0.75371 0.67746 0.69245 0.0
S794 S 0.88476 0.71666 0.60664 0.0
N795 N 0.86969 0.67742 0.58831 0.0
N796 N 0.85573 0.73249 0.64652 0.0
C797 C 0.83185 0.70567 0.64647 0.0
C798 C 0.8395 0.67563 0.61475 0.0
C799 C 0.41786 0.79548 0.65997 0.0
C800 C 0.43314 0.75953 0.6385 0.0
C801 C 0.38296 0.80034 0.6836 0.0
C802 C 0.36133 0.76965 0.68659 0.0
H803 H 0.43375 0.8196 0.65971 0.0
H804 H 0.37343 0.82819 0.70046 0.0
S805 S 0.3866 0.67108 0.63254 0.0
N806 N 0.42221 0.69388 0.61917 0.0
N807 N 0.35712 0.7027 0.66328 0.0
C808 C 0.37556 0.73413 0.6638 0.0
C809 C 0.41124 0.72914 0.63997 0.0
C810 C 0.34373 0.36305 0.66446 0.0
C811 C 0.31414 0.39608 0.64957 0.0
C812 C 0.33561 0.33533 0.69495 0.0
C813 C 0.29758 0.3395 0.71148 0.0
H814 H 0.373 0.35762 0.65129 0.0
H815 H 0.35874 0.3094 0.70391 0.0
S816 S 0.21106 0.42305 0.68825 0.0
N817 N 0.24632 0.4337 0.65847 0.0
N818 N 0.23094 0.38019 0.71359 0.0
C819 C 0.26822 0.37298 0.69834 0.0
C820 C 0.27652 0.40167 0.66801 0.0
C821 C 0.62941 0.28467 0.60209 0.0
C822 C 0.60245 0.26051 0.61203 0.0
C823 C 0.65697 0.29167 0.63231 0.0
C824 C 0.65849 0.27477 0.67348 0.0
H825 H 0.63081 0.29617 0.5702 0.0
H826 H 0.67832 0.30897 0.6228 0.0
S827 S 0.59084 0.21335 0.71622 0.0
N828 N 0.57678 0.22261 0.66663 0.0
N829 N 0.62778 0.23598 0.72317 0.0
C830 C 0.63004 0.25262 0.68422 0.0
C831 C 0.6023 0.2454 0.65356 0.0
C832 C 0.78904 0.46249 0.42192 0.0
C833 C 0.80524 0.45111 0.4622 0.0
C834 C 0.78455 0.43296 0.39271 0.0
C835 C 0.79621 0.39112 0.40278 0.0
H836 H 0.7822 0.49413 0.41201 0.0
H837 H 0.77352 0.44295 0.36144 0.0
S838 S 0.83576 0.34625 0.50608 0.0
N839 N 0.82972 0.3956 0.51181 0.0
N840 N 0.82102 0.34047 0.45762 0.0
C841 C 0.81013 0.37973 0.44389 0.0
C842 C 0.81474 0.40963 0.47336 0.0
C843 C 0.70939 0.73012 0.4357 0.0
C844 C 0.67807 0.76284 0.44547 0.0
C845 C 0.73727 0.73374 0.40483 0.0
C846 C 0.73592 0.77048 0.38255 0.0
H847 H 0.71218 0.701 0.45159 0.0
H848 H 0.75987 0.70712 0.39783 0.0
S849 S 0.6611 0.86602 0.39571 0.0
N850 N 0.64799 0.83387 0.42962 0.0
N851 N 0.70136 0.84067 0.37291 0.0
C852 C 0.70596 0.804 0.39291 0.0
C853 C 0.67691 0.80022 0.42398 0.0
C854 C 0.28159 0.64561 0.4132 0.0
C855 C 0.31715 0.6311 0.43562 0.0
C856 C 0.27607 0.68059 0.38707 0.0
C857 C 0.30565 0.7029 0.38283 0.0
H858 H 0.25846 0.62886 0.41462 0.0
H859 H 0.24875 0.68959 0.36927 0.0
S860 S 0.40295 0.6792 0.43834 0.0
N861 N 0.3813 0.6428 0.45412 0.0
N862 N 0.37122 0.70863 0.40592 0.0
C863 C 0.34071 0.68953 0.4068 0.0
C864 C 0.34642 0.65362 0.43283 0.0
C865 C 0.43381 0.26357 0.37869 0.0
C866 C 0.43769 0.27096 0.42189 0.0
C867 C 0.39667 0.26934 0.35872 0.0
C868 C 0.36156 0.28248 0.38105 0.0
H869 H 0.45973 0.25201 0.36016 0.0
H870 H 0.39553 0.26198 0.32585 0.0
S871 S 0.35471 0.31046 0.49344 0.0
N872 N 0.40258 0.29544 0.48539 0.0
N873 N 0.33301 0.30615 0.44799 0.0
C874 C 0.36487 0.29198 0.42368 0.0
C875 C 0.40278 0.28632 0.44402 0.0
C876 C 0.62617 0.82062 0.69416 0.0
C877 C 0.62212 0.82609 0.65016 0.0
C878 C 0.66106 0.82364 0.7152 0.0
C879 C 0.69359 0.83113 0.69292 0.0
H880 H 0.60258 0.81284 0.71241 0.0
H881 H 0.66299 0.81875 0.74892 0.0
S882 S 0.69732 0.85057 0.5777 0.0
N883 N 0.65291 0.8422 0.58545 0.0
N884 N 0.7185 0.8468 0.62461 0.0
C885 C 0.6893 0.83841 0.64915 0.0
C886 C 0.65358 0.83615 0.62787 0.0
C887 C 0.65969 0.19234 0.37204 0.0
C888 C 0.65384 0.20643 0.41332 0.0
C889 C 0.68905 0.20244 0.34651 0.0
C890 C 0.71367 0.22715 0.36121 0.0
H891 H 0.64056 0.17448 0.35884 0.0
H892 H 0.69152 0.1919 0.31455 0.0
S893 S 0.71383 0.26742 0.46882 0.0
N894 N 0.67773 0.24294 0.46908 0.0
N895 N 0.73238 0.26255 0.42108 0.0
C896 C 0.70912 0.24013 0.403 0.0
C897 C 0.67937 0.22964 0.42902 0.0
C898 C 0.85228 0.62151 0.37745 0.0
C899 C 0.88321 0.61624 0.40731 0.0
C900 C 0.84517 0.65448 0.34865 0.0
C901 C 0.86833 0.68351 0.34964 0.0
H902 H 0.83243 0.60097 0.37772 0.0
H903 H 0.81972 0.65889 0.32783 0.0
S904 S 0.95466 0.68178 0.41914 0.0
N905 N 0.93883 0.64108 0.43372 0.0
N906 N 0.92509 0.7034 0.38032 0.0
C907 C 0.90067 0.67725 0.37759 0.0
C908 C 0.90828 0.64345 0.40628 0.0
C909 C 0.4417 0.84191 0.45605 0.0
C910 C 0.48139 0.82585 0.44653 0.0
C911 C 0.41219 0.84598 0.42483 0.0
C912 C 0.42162 0.83423 0.38324 0.0
H913 H 0.43307 0.84818 0.48832 0.0
H914 H 0.38167 0.85595 0.43394 0.0
S915 S 0.52224 0.79641 0.34169 0.0
N916 N 0.5292 0.80239 0.39232 0.0
N917 N 0.47415 0.81075 0.33347 0.0
C918 C 0.46163 0.82156 0.37282 0.0
C919 C 0.49145 0.81712 0.4046 0.0
C920 C 0.24355 0.47183 0.3811 0.0
C921 C 0.23303 0.46788 0.42335 0.0
C922 C 0.24619 0.43965 0.35363 0.0
C923 C 0.23762 0.40277 0.36722 0.0
H924 H 0.25269 0.49875 0.36988 0.0
H925 H 0.25682 0.44303 0.32209 0.0
S926 S 0.20291 0.37936 0.473 0.0
N927 N 0.20972 0.42595 0.4762 0.0
N928 N 0.21409 0.36563 0.42432 0.0
C929 C 0.22367 0.39971 0.40827 0.0
C930 C 0.22152 0.43227 0.43643 0.0
C931 C 0.45571 0.22035 0.67229 0.0
C932 C 0.45108 0.19123 0.64309 0.0
C933 C 0.43043 0.22924 0.70651 0.0
C934 C 0.39909 0.20962 0.7129 0.0
H935 H 0.47878 0.23693 0.6682 0.0
H936 H 0.43495 0.25272 0.72732 0.0
S937 S 0.3758 0.12906 0.64613 0.0
N938 N 0.4142 0.14139 0.62337 0.0
N939 N 0.36641 0.15779 0.68772 0.0
C940 C 0.39515 0.1791 0.68471 0.0
C941 C 0.4212 0.16997 0.64985 0.0
C942 C 0.8752 0.39392 0.66978 0.0
C943 C 0.84737 0.42849 0.65553 0.0
C944 C 0.86387 0.36413 0.69524 0.0
C945 C 0.82428 0.36782 0.7068 0.0
H946 H 0.90576 0.38959 0.66059 0.0
H947 H 0.88609 0.3378 0.70543 0.0
S948 S 0.74119 0.45517 0.68288 0.0
N949 N 0.77936 0.46667 0.65884 0.0
N950 N 0.75797 0.41018 0.70543 0.0
C951 C 0.79641 0.40268 0.69371 0.0
C952 C 0.80798 0.43317 0.66837 0.0
C953 C 0.2291 0.61935 0.62028 0.0
C954 C 0.25178 0.58071 0.63087 0.0
C955 C 0.22244 0.64983 0.65011 0.0
C956 C 0.23806 0.6422 0.69119 0.0
H957 H 0.21958 0.62706 0.58805 0.0
H958 H 0.20741 0.68017 0.64008 0.0
S959 S 0.2924 0.54324 0.73587 0.0
N960 N 0.28474 0.53446 0.68602 0.0
N961 N 0.27165 0.59152 0.74245 0.0
C962 C 0.25696 0.60243 0.70315 0.0
C963 C 0.26405 0.57164 0.67273 0.0
loop_
_geom_bond_atom_site_label_1
_geom_bond_atom_site_label_2
_geom_bond_distance
_geom_bond_site_symmetry_2
_ccdc_geom_bond_type
Cu0 N1 1.978 1_565 S
Cu0 O6 1.987 . S
Cu0 N11 2.006 1_455 S
Cu0 O20 1.945 1_465 S
N1 Cu0 1.978 1_545 S
N1 C3 1.263 . S
N1 C5 1.389 . S
N2 C3 1.358 . S
N2 C4 1.400 . S
C3 N1 1.263 . S
C3 N2 1.358 . S
C3 H9 0.930 . S
C4 N2 1.400 . S
C4 C5 1.351 . S
C4 H21 0.930 . S
C5 N1 1.389 . S
C5 C4 1.351 . S
C5 H10 0.930 . S
O6 Cu0 1.987 . S
O6 C16 1.282 . S
C7 O8 1.261 . S
C7 O20 1.251 . S
O8 C7 1.261 . S
H9 C3 0.930 . S
H10 C5 0.930 . S
N11 Cu0 2.006 1_655 S
N11 C13 1.335 . S
N11 C14 1.390 1_655 S
N12 C13 1.345 . S
N12 C15 1.336 . S
C13 N11 1.335 . S
C13 N12 1.345 . S
C13 H18 0.930 . S
C14 N11 1.390 1_455 S
C14 C15 1.346 1_455 S
C14 H19 0.930 . S
C15 N12 1.336 . S
C15 C14 1.346 1_655 S
C15 H22 0.929 . S
C16 O6 1.282 . S
C16 O17 1.216 . S
O17 C16 1.216 . S
H18 C13 0.930 . S
H19 C14 0.930 . S
O20 Cu0 1.945 1_645 S
O20 C7 1.251 . S
H21 C4 0.930 . S
H22 C15 0.929 . S
Cu23 N24 1.999 1_445 S
Cu23 O29 1.974 1_455 S
Cu23 N34 1.985 . S
Cu23 O43 1.959 1_545 S
N24 Cu23 1.999 1_665 S
N24 C26 1.263 . S
N24 C28 1.389 . S
N25 C26 1.358 . S
N25 C27 1.400 . S
C26 N24 1.263 . S
C26 N25 1.358 . S
C26 H32 0.930 1_565 S
C27 N25 1.400 . S
C27 C28 1.351 . S
C27 H44 0.930 . S
C28 N24 1.389 . S
C28 C27 1.351 . S
C28 H33 0.930 . S
O29 Cu23 1.974 1_655 S
O29 C39 1.282 . S
C30 O31 1.261 . S
C30 O43 1.251 . S
O31 C30 1.261 . S
H32 C26 0.930 1_545 S
H33 C28 0.930 . S
N34 Cu23 1.985 . S
N34 C36 1.335 . S
N34 C37 1.390 . S
N35 C36 1.345 . S
N35 C38 1.336 . S
C36 N34 1.335 . S
C36 N35 1.345 . S
C36 H41 0.930 . S
C37 N34 1.390 . S
C37 C38 1.346 . S
C37 H42 0.945 . S
C38 N35 1.336 . S
C38 C37 1.346 . S
C38 H45 0.929 . S
C39 O29 1.282 . S
C39 O40 1.216 . S
O40 C39 1.216 . S
H41 C36 0.930 . S
H42 C37 0.945 . S
O43 Cu23 1.959 1_565 S
O43 C30 1.251 . S
H44 C27 0.930 . S
H45 C38 0.929 . S
Cu46 N47 1.999 1_545 S
Cu46 O52 1.974 1_545 S
Cu46 N57 1.985 . S
Cu46 O66 1.959 . S
N47 Cu46 1.999 1_565 S
N47 C49 1.263 . S
N47 C51 1.389 1_554 S
N48 C49 1.358 1_556 S
N48 C50 1.400 . S
C49 N47 1.263 . S
C49 N48 1.358 1_554 S
C49 H55 0.930 . S
C50 N48 1.400 . S
C50 C51 1.351 . S
C50 H67 0.930 . S
C51 N47 1.389 1_556 S
C51 C50 1.351 . S
C51 H56 0.930 . S
O52 Cu46 1.974 1_565 S
O52 C62 1.282 . S
C53 O54 1.256 1_556 S
C53 O66 1.242 1_556 S
O54 C53 1.256 1_554 S
H55 C49 0.930 . S
H56 C51 0.930 . S
N57 Cu46 1.985 . S
N57 C59 1.335 . S
N57 C60 1.390 . S
N58 C59 1.345 . S
N58 C61 1.336 . S
C59 N57 1.335 . S
C59 N58 1.345 . S
C59 H64 0.930 . S
C60 N57 1.390 . S
C60 C61 1.346 . S
C60 H65 0.930 . S
C61 N58 1.336 . S
C61 C60 1.346 . S
C61 H68 0.929 . S
C62 O52 1.282 . S
C62 O63 1.216 . S
O63 C62 1.216 . S
H64 C59 0.930 . S
H65 C60 0.930 . S
O66 Cu46 1.959 . S
O66 C53 1.242 1_554 S
H67 C50 0.930 . S
H68 C61 0.929 . S
Cu69 N70 1.999 1_554 S
Cu69 O75 1.974 . S
Cu69 N80 1.985 1_455 S
Cu69 O89 1.944 1_454 S
N70 Cu69 1.999 1_556 S
N70 C72 1.263 . S
N70 C74 1.389 . S
N71 C72 1.358 . S
N71 C73 1.400 . S
C72 N70 1.263 . S
C72 N71 1.358 . S
C72 H78 0.930 1_556 S
C73 N71 1.400 . S
C73 C74 1.351 . S
C73 H90 0.930 . S
C74 N70 1.389 . S
C74 C73 1.351 . S
C74 H79 0.930 . S
O75 Cu69 1.974 . S
O75 C85 1.282 . S
C76 O77 1.261 . S
C76 O89 1.259 . S
O77 C76 1.261 . S
H78 C72 0.930 1_554 S
H79 C74 0.930 . S
N80 Cu69 1.985 1_655 S
N80 C82 1.335 . S
N80 C83 1.390 . S
N81 C82 1.345 . S
N81 C84 1.336 . S
C82 N80 1.335 . S
C82 N81 1.345 . S
C82 H87 0.930 . S
C83 N80 1.390 . S
C83 C84 1.346 . S
C83 H88 0.930 1_655 S
C84 N81 1.336 . S
C84 C83 1.346 . S
C84 H91 0.929 . S
C85 O75 1.282 . S
C85 O86 1.216 . S
O86 C85 1.216 . S
H87 C82 0.930 . S
H88 C83 0.930 1_455 S
O89 Cu69 1.944 1_656 S
O89 C76 1.259 . S
H90 C73 0.930 . S
H91 C84 0.929 . S
Cu92 N93 1.999 1_554 S
Cu92 O98 1.974 . S
Cu92 N103 1.985 1_545 S
Cu92 O112 1.959 1_544 S
N93 Cu92 1.999 1_556 S
N93 C95 1.263 . S
N93 C97 1.389 . S
N94 C95 1.358 . S
N94 C96 1.400 . S
C95 N93 1.263 . S
C95 N94 1.358 . S
C95 H101 0.930 . S
C96 N94 1.400 . S
C96 C97 1.351 . S
C96 H113 0.930 . S
C97 N93 1.389 . S
C97 C96 1.351 . S
C97 H102 0.930 . S
O98 Cu92 1.974 . S
O98 C108 1.282 . S
C99 O100 1.261 . S
C99 O112 1.251 . S
O100 C99 1.261 . S
H101 C95 0.930 . S
H102 C97 0.930 . S
N103 Cu92 1.985 1_565 S
N103 C105 1.335 . S
N103 C106 1.390 . S
N104 C105 1.345 . S
N104 C107 1.336 . S
C105 N103 1.335 . S
C105 N104 1.345 . S
C105 H110 0.930 . S
C106 N103 1.390 . S
C106 C107 1.346 . S
C106 H111 0.930 1_565 S
C107 N104 1.336 . S
C107 C106 1.346 . S
C107 H114 0.929 . S
C108 O98 1.282 . S
C108 O109 1.216 . S
O109 C108 1.216 . S
H110 C105 0.930 . S
H111 C106 0.930 1_545 S
O112 Cu92 1.959 1_566 S
O112 C99 1.251 . S
H113 C96 0.930 . S
H114 C107 0.929 . S
Cu115 N116 1.999 1_454 S
Cu115 O121 1.974 1_455 S
Cu115 N126 1.985 . S
Cu115 O135 1.959 1_554 S
N116 Cu115 1.999 1_656 S
N116 C118 1.263 . S
N116 C120 1.389 . S
N117 C118 1.358 . S
N117 C119 1.400 . S
C118 N116 1.263 . S
C118 N117 1.358 . S
C118 H124 0.930 . S
C119 N117 1.400 . S
C119 C120 1.351 . S
C119 H136 0.930 . S
C120 N116 1.389 . S
C120 C119 1.351 . S
C120 H125 0.930 1_655 S
O121 Cu115 1.974 1_655 S
O121 C131 1.282 . S
C122 O123 1.261 . S
C122 O135 1.251 . S
O123 C122 1.261 . S
H124 C118 0.930 . S
H125 C120 0.930 1_455 S
N126 Cu115 1.985 . S
N126 C128 1.335 . S
N126 C129 1.390 . S
N127 C128 1.345 . S
N127 C130 1.336 . S
C128 N126 1.335 . S
C128 N127 1.345 . S
C128 H133 0.930 . S
C129 N126 1.390 . S
C129 C130 1.346 . S
C129 H134 0.930 . S
C130 N127 1.336 . S
C130 C129 1.346 . S
C130 H137 0.929 . S
C131 O121 1.282 . S
C131 O132 1.216 . S
O132 C131 1.216 . S
H133 C128 0.930 . S
H134 C129 0.930 . S
O135 Cu115 1.959 1_556 S
O135 C122 1.251 . S
H136 C119 0.930 . S
H137 C130 0.929 . S
Cu138 N139 1.999 . S
Cu138 O144 1.974 . S
Cu138 N149 1.985 . S
Cu138 O158 1.959 . S
N139 Cu138 1.999 . S
N139 C141 1.263 . S
N139 C143 1.389 . S
N140 C141 1.358 . S
N140 C142 1.400 . S
C141 N139 1.263 . S
C141 N140 1.358 . S
C141 H147 0.930 . S
C142 N140 1.400 . S
C142 C143 1.351 . S
C142 H159 0.930 . S
C143 N139 1.389 . S
C143 C142 1.351 . S
C143 H148 0.930 . S
O144 Cu138 1.974 . S
O144 C154 1.282 . S
C145 O146 1.261 . S
C145 O158 1.251 . S
O146 C145 1.261 . S
H147 C141 0.930 . S
H148 C143 0.930 . S
N149 Cu138 1.985 . S
N149 C151 1.335 . S
N149 C152 1.390 . S
N150 C151 1.345 . S
N150 C153 1.336 . S
C151 N149 1.335 . S
C151 N150 1.345 . S
C151 H156 0.930 . S
C152 N149 1.390 . S
C152 C153 1.346 . S
C152 H157 0.930 . S
C153 N150 1.336 . S
C153 C152 1.346 . S
C153 H160 0.929 . S
C154 O144 1.282 . S
C154 O155 1.216 . S
O155 C154 1.216 . S
H156 C151 0.930 . S
H157 C152 0.930 . S
O158 Cu138 1.959 . S
O158 C145 1.251 . S
H159 C142 0.930 . S
H160 C153 0.929 . S
Cu161 N162 1.999 . S
Cu161 O167 1.974 . S
Cu161 N172 1.985 . S
Cu161 O181 1.959 . S
N162 Cu161 1.999 . S
N162 C164 1.263 . S
N162 C166 1.389 . S
N163 C164 1.358 . S
N163 C165 1.400 . S
C164 N162 1.263 . S
C164 N163 1.358 . S
C164 H170 0.930 . S
C165 N163 1.400 . S
C165 C166 1.351 . S
C165 H182 0.930 . S
C166 N162 1.389 . S
C166 C165 1.351 . S
C166 H171 0.930 . S
O167 Cu161 1.974 . S
O167 C177 1.282 . S
C168 O169 1.261 . S
C168 O181 1.251 . S
O169 C168 1.261 . S
H170 C164 0.930 . S
H171 C166 0.930 . S
N172 Cu161 1.985 . S
N172 C174 1.335 . S
N172 C175 1.390 . S
N173 C174 1.345 . S
N173 C176 1.336 . S
C174 N172 1.335 . S
C174 N173 1.345 . S
C174 H179 0.930 . S
C175 N172 1.390 . S
C175 C176 1.346 . S
C175 H180 0.930 . S
C176 N173 1.336 . S
C176 C175 1.346 . S
C176 H183 0.929 . S
C177 O167 1.282 . S
C177 O178 1.216 . S
O178 C177 1.216 . S
H179 C174 0.930 . S
H180 C175 0.930 . S
O181 Cu161 1.959 . S
O181 C168 1.251 . S
H182 C165 0.930 . S
H183 C176 0.929 . S
Cu184 N185 1.999 . S
Cu184 O190 1.974 . S
Cu184 N195 1.985 . S
Cu184 O204 1.959 . S
N185 Cu184 1.999 . S
N185 C187 1.263 . S
N185 C189 1.389 . S
N186 C187 1.358 . S
N186 C188 1.400 . S
C187 N185 1.263 . S
C187 N186 1.358 . S
C187 H193 0.930 . S
C188 N186 1.400 . S
C188 C189 1.351 . S
C188 H205 0.930 . S
C189 N185 1.389 . S
C189 C188 1.351 . S
C189 H194 0.930 . S
O190 Cu184 1.974 . S
O190 C200 1.282 . S
C191 O192 1.261 . S
C191 O204 1.251 . S
O192 C191 1.261 . S
H193 C187 0.930 . S
H194 C189 0.930 . S
N195 Cu184 1.985 . S
N195 C197 1.335 . S
N195 C198 1.390 . S
N196 C197 1.345 . S
N196 C199 1.336 . S
C197 N195 1.335 . S
C197 N196 1.345 . S
C197 H202 0.930 . S
C198 N195 1.390 . S
C198 C199 1.346 . S
C198 H203 0.930 . S
C199 N196 1.336 . S
C199 C198 1.346 . S
C199 H206 0.929 . S
C200 O190 1.282 . S
C200 O201 1.216 . S
O201 C200 1.216 . S
H202 C197 0.930 . S
H203 C198 0.930 . S
O204 Cu184 1.959 . S
O204 C191 1.251 . S
H205 C188 0.930 . S
H206 C199 0.929 . S
Cu207 N208 1.999 . S
Cu207 O213 1.974 . S
Cu207 N218 1.985 . S
Cu207 O227 1.959 . S
N208 Cu207 1.999 . S
N208 C210 1.263 . S
N208 C212 1.389 . S
N209 C210 1.358 . S
N209 C211 1.400 . S
C210 N208 1.263 . S
C210 N209 1.358 . S
C210 H216 0.930 . S
C211 N209 1.400 . S
C211 C212 1.351 . S
C211 H228 0.930 . S
C212 N208 1.389 . S
C212 C211 1.351 . S
C212 H217 0.930 . S
O213 Cu207 1.974 . S
O213 C223 1.282 . S
C214 O215 1.261 . S
C214 O227 1.251 . S
O215 C214 1.261 . S
H216 C210 0.930 . S
H217 C212 0.930 . S
N218 Cu207 1.985 . S
N218 C220 1.335 . S
N218 C221 1.390 . S
N219 C220 1.345 . S
N219 C222 1.336 . S
C220 N218 1.335 . S
C220 N219 1.345 . S
C220 H225 0.930 . S
C221 N218 1.390 . S
C221 C222 1.346 . S
C221 H226 0.930 . S
C222 N219 1.336 . S
C222 C221 1.346 . S
C222 H229 0.929 . S
C223 O213 1.282 . S
C223 O224 1.216 . S
O224 C223 1.216 . S
H225 C220 0.930 . S
H226 C221 0.930 . S
O227 Cu207 1.959 . S
O227 C214 1.251 . S
H228 C211 0.930 . S
H229 C222 0.929 . S
Cu230 N231 1.999 . S
Cu230 O236 1.974 . S
Cu230 N241 1.985 . S
Cu230 O250 1.959 . S
N231 Cu230 1.999 . S
N231 C233 1.263 . S
N231 C235 1.389 . S
N232 C233 1.358 . S
N232 C234 1.400 . S
C233 N231 1.263 . S
C233 N232 1.358 . S
C233 H239 0.930 . S
C234 N232 1.400 . S
C234 C235 1.351 . S
C234 H251 0.930 . S
C235 N231 1.389 . S
C235 C234 1.351 . S
C235 H240 0.930 . S
O236 Cu230 1.974 . S
O236 C246 1.282 . S
C237 O238 1.261 . S
C237 O250 1.251 . S
O238 C237 1.261 . S
H239 C233 0.930 . S
H240 C235 0.930 . S
N241 Cu230 1.985 . S
N241 C243 1.335 . S
N241 C244 1.390 . S
N242 C243 1.345 . S
N242 C245 1.336 . S
C243 N241 1.335 . S
C243 N242 1.345 . S
C243 H248 0.930 . S
C244 N241 1.390 . S
C244 C245 1.346 . S
C244 H249 0.930 . S
C245 N242 1.336 . S
C245 C244 1.346 . S
C245 H252 0.929 . S
C246 O236 1.282 . S
C246 O247 1.216 . S
O247 C246 1.216 . S
H248 C243 0.930 . S
H249 C244 0.930 . S
O250 Cu230 1.959 . S
O250 C237 1.251 . S
H251 C234 0.930 . S
H252 C245 0.929 . S
Cu253 N254 1.999 . S
Cu253 O259 1.974 . S
Cu253 N264 1.985 . S
Cu253 O273 1.959 . S
N254 Cu253 1.999 . S
N254 C256 1.263 . S
N254 C258 1.389 . S
N255 C256 1.358 . S
N255 C257 1.400 . S
C256 N254 1.263 . S
C256 N255 1.358 . S
C256 H262 0.930 . S
C257 N255 1.400 . S
C257 C258 1.351 . S
C257 H274 0.930 . S
C258 N254 1.389 . S
C258 C257 1.351 . S
C258 H263 0.930 . S
O259 Cu253 1.974 . S
O259 C269 1.282 . S
C260 O261 1.261 . S
C260 O273 1.251 . S
O261 C260 1.261 . S
H262 C256 0.930 . S
H263 C258 0.930 . S
N264 Cu253 1.985 . S
N264 C266 1.335 . S
N264 C267 1.390 . S
N265 C266 1.345 . S
N265 C268 1.336 . S
C266 N264 1.335 . S
C266 N265 1.345 . S
C266 H271 0.930 . S
C267 N264 1.390 . S
C267 C268 1.346 . S
C267 H272 0.930 . S
C268 N265 1.336 . S
C268 C267 1.346 . S
C268 H275 0.929 . S
C269 O259 1.282 . S
C269 O270 1.216 . S
O270 C269 1.216 . S
H271 C266 0.930 . S
H272 C267 0.930 . S
O273 Cu253 1.959 . S
O273 C260 1.251 . S
H274 C257 0.930 . S
H275 C268 0.929 . S
Dy276 O280 2.398 . S
Dy276 O281 2.491 . S
Dy276 O282 2.403 . S
Dy276 O283 2.664 . S
Dy276 O287 2.326 . S
Dy276 O291 2.310 . S
Dy276 O292 2.351 . S
C277 O288 1.185 . S
C277 O289 1.355 . S
C278 O280 1.185 . S
C278 O281 1.355 . S
Dy279 O283 2.310 . S
Dy279 O286 2.351 . S
Dy279 O288 2.398 . S
Dy279 O289 2.491 . S
Dy279 O290 2.403 . S
Dy279 O291 2.664 . S
Dy279 O293 2.326 . S
O280 Dy276 2.398 . S
O280 C278 1.185 . S
O281 Dy276 2.491 . S
O281 C278 1.355 . S
O282 Dy276 2.403 . S
O282 C284 1.254 . S
O283 Dy276 2.664 . S
O283 Dy279 2.310 . S
O283 C284 1.268 . S
C284 O282 1.254 . S
C284 O283 1.268 . S
C285 O290 1.254 . S
C285 O291 1.268 . S
O286 Dy279 2.351 . S
O286 C294 1.249 . S
O287 Dy276 2.326 . S
O287 C294 1.267 . S
O288 C277 1.185 . S
O288 Dy279 2.398 . S
O289 C277 1.355 . S
O289 Dy279 2.491 . S
O290 Dy279 2.403 . S
O290 C285 1.254 . S
O291 Dy276 2.310 . S
O291 Dy279 2.664 . S
O291 C285 1.268 . S
O292 Dy276 2.351 . S
O292 C295 1.249 . S
O293 Dy279 2.326 . S
O293 C295 1.267 . S
C294 O286 1.249 . S
C294 O287 1.267 . S
C295 O292 1.249 . S
C295 O293 1.267 . S
Dy296 O300 2.398 . S
Dy296 O301 2.491 . S
Dy296 O302 2.403 . S
Dy296 O303 2.664 . S
Dy296 O307 2.326 . S
Dy296 O311 2.310 . S
Dy296 O312 2.351 . S
C297 O308 1.185 . S
C297 O309 1.355 . S
C298 O300 1.185 . S
C298 O301 1.355 . S
Dy299 O303 2.310 . S
Dy299 O306 2.351 . S
Dy299 O308 2.398 . S
Dy299 O309 2.491 . S
Dy299 O310 2.403 . S
Dy299 O311 2.664 . S
Dy299 O313 2.326 . S
O300 Dy296 2.398 . S
O300 C298 1.185 . S
O301 Dy296 2.491 . S
O301 C298 1.355 . S
O302 Dy296 2.403 . S
O302 C304 1.254 . S
O303 Dy296 2.664 . S
O303 Dy299 2.310 . S
O303 C304 1.268 . S
C304 O302 1.254 . S
C304 O303 1.268 . S
C305 O310 1.254 . S
C305 O311 1.268 . S
O306 Dy299 2.351 . S
O306 C314 1.249 . S
O307 Dy296 2.326 . S
O307 C314 1.267 . S
O308 C297 1.185 . S
O308 Dy299 2.398 . S
O309 C297 1.355 . S
O309 Dy299 2.491 . S
O310 Dy299 2.403 . S
O310 C305 1.254 . S
O311 Dy296 2.310 . S
O311 Dy299 2.664 . S
O311 C305 1.268 . S
O312 Dy296 2.351 . S
O312 C315 1.249 . S
O313 Dy299 2.326 . S
O313 C315 1.267 . S
C314 O306 1.249 . S
C314 O307 1.267 . S
C315 O312 1.249 . S
C315 O313 1.267 . S
Dy316 O320 2.398 . S
Dy316 O321 2.491 . S
Dy316 O322 2.403 . S
Dy316 O323 2.664 . S
Dy316 O327 2.326 . S
Dy316 O331 2.310 . S
Dy316 O332 2.351 . S
C317 O328 1.185 . S
C317 O329 1.355 . S
C318 O320 1.185 . S
C318 O321 1.355 . S
Dy319 O323 2.310 . S
Dy319 O326 2.351 . S
Dy319 O328 2.398 . S
Dy319 O329 2.491 . S
Dy319 O330 2.403 . S
Dy319 O331 2.664 . S
Dy319 O333 2.326 . S
O320 Dy316 2.398 . S
O320 C318 1.185 . S
O321 Dy316 2.491 . S
O321 C318 1.355 . S
O322 Dy316 2.403 . S
O322 C324 1.254 . S
O323 Dy316 2.664 . S
O323 Dy319 2.310 . S
O323 C324 1.268 . S
C324 O322 1.254 . S
C324 O323 1.268 . S
C325 O330 1.254 . S
C325 O331 1.268 . S
O326 Dy319 2.351 . S
O326 C334 1.249 . S
O327 Dy316 2.326 . S
O327 C334 1.267 . S
O328 C317 1.185 . S
O328 Dy319 2.398 . S
O329 C317 1.355 . S
O329 Dy319 2.491 . S
O330 Dy319 2.403 . S
O330 C325 1.254 . S
O331 Dy316 2.310 . S
O331 Dy319 2.664 . S
O331 C325 1.268 . S
O332 Dy316 2.351 . S
O332 C335 1.249 . S
O333 Dy319 2.326 . S
O333 C335 1.267 . S
C334 O326 1.249 . S
C334 O327 1.267 . S
C335 O332 1.249 . S
C335 O333 1.267 . S
Dy336 O340 2.398 . S
Dy336 O341 2.491 . S
Dy336 O342 2.403 . S
Dy336 O343 2.664 . S
Dy336 O347 2.326 . S
Dy336 O351 2.310 . S
Dy336 O352 2.351 . S
C337 O348 1.185 . S
C337 O349 1.355 . S
C338 O340 1.185 . S
C338 O341 1.355 . S
Dy339 O343 2.310 . S
Dy339 O346 2.351 . S
Dy339 O348 2.398 . S
Dy339 O349 2.491 . S
Dy339 O350 2.403 . S
Dy339 O351 2.664 . S
Dy339 O353 2.326 . S
O340 Dy336 2.398 . S
O340 C338 1.185 . S
O341 Dy336 2.491 . S
O341 C338 1.355 . S
O342 Dy336 2.403 . S
O342 C344 1.254 . S
O343 Dy336 2.664 . S
O343 Dy339 2.310 . S
O343 C344 1.268 . S
C344 O342 1.254 . S
C344 O343 1.268 . S
C345 O350 1.254 . S
C345 O351 1.268 . S
O346 Dy339 2.351 . S
O346 C354 1.249 . S
O347 Dy336 2.326 . S
O347 C354 1.267 . S
O348 C337 1.185 . S
O348 Dy339 2.398 . S
O349 C337 1.355 . S
O349 Dy339 2.491 . S
O350 Dy339 2.403 . S
O350 C345 1.254 . S
O351 Dy336 2.310 . S
O351 Dy339 2.664 . S
O351 C345 1.268 . S
O352 Dy336 2.351 . S
O352 C355 1.249 . S
O353 Dy339 2.326 . S
O353 C355 1.267 . S
C354 O346 1.249 . S
C354 O347 1.267 . S
C355 O352 1.249 . S
C355 O353 1.267 . S
Dy356 O360 2.398 . S
Dy356 O361 2.491 . S
Dy356 O362 2.403 . S
Dy356 O363 2.664 . S
Dy356 O367 2.326 . S
Dy356 O371 2.310 . S
Dy356 O372 2.351 . S
C357 O368 1.185 . S
C357 O369 1.355 . S
C358 O360 1.185 . S
C358 O361 1.355 . S
Dy359 O363 2.310 . S
Dy359 O366 2.351 . S
Dy359 O368 2.398 . S
Dy359 O369 2.491 . S
Dy359 O370 2.403 . S
Dy359 O371 2.664 . S
Dy359 O373 2.326 . S
O360 Dy356 2.398 . S
O360 C358 1.185 . S
O361 Dy356 2.491 . S
O361 C358 1.355 . S
O362 Dy356 2.403 . S
O362 C364 1.254 . S
O363 Dy356 2.664 . S
O363 Dy359 2.310 . S
O363 C364 1.268 . S
C364 O362 1.254 . S
C364 O363 1.268 . S
C365 O370 1.254 . S
C365 O371 1.268 . S
O366 Dy359 2.351 . S
O366 C374 1.249 . S
O367 Dy356 2.326 . S
O367 C374 1.267 . S
O368 C357 1.185 . S
O368 Dy359 2.398 . S
O369 C357 1.355 . S
O369 Dy359 2.491 . S
O370 Dy359 2.403 . S
O370 C365 1.254 . S
O371 Dy356 2.310 . S
O371 Dy359 2.664 . S
O371 C365 1.268 . S
O372 Dy356 2.351 . S
O372 C375 1.249 . S
O373 Dy359 2.326 . S
O373 C375 1.267 . S
C374 O366 1.249 . S
C374 O367 1.267 . S
C375 O372 1.249 . S
C375 O373 1.267 . S
Dy376 O380 2.398 . S
Dy376 O381 2.491 . S
Dy376 O382 2.403 . S
Dy376 O383 2.664 . S
Dy376 O387 2.326 . S
Dy376 O391 2.310 . S
Dy376 O392 2.351 . S
C377 O388 1.185 . S
C377 O389 1.355 . S
C378 O380 1.185 . S
C378 O381 1.355 . S
Dy379 O383 2.310 . S
Dy379 O386 2.351 . S
Dy379 O388 2.398 . S
Dy379 O389 2.491 . S
Dy379 O390 2.403 . S
Dy379 O391 2.664 . S
Dy379 O393 2.326 . S
O380 Dy376 2.398 . S
O380 C378 1.185 . S
O381 Dy376 2.491 . S
O381 C378 1.355 . S
O382 Dy376 2.403 . S
O382 C384 1.254 . S
O383 Dy376 2.664 . S
O383 Dy379 2.310 . S
O383 C384 1.268 . S
C384 O382 1.254 . S
C384 O383 1.268 . S
C385 O390 1.254 . S
C385 O391 1.268 . S
O386 Dy379 2.351 . S
O386 C394 1.249 . S
O387 Dy376 2.326 . S
O387 C394 1.267 . S
O388 C377 1.185 . S
O388 Dy379 2.398 . S
O389 C377 1.355 . S
O389 Dy379 2.491 . S
O390 Dy379 2.403 . S
O390 C385 1.254 . S
O391 Dy376 2.310 . S
O391 Dy379 2.664 . S
O391 C385 1.268 . S
O392 Dy376 2.351 . S
O392 C395 1.249 . S
O393 Dy379 2.326 . S
O393 C395 1.267 . S
C394 O386 1.249 . S
C394 O387 1.267 . S
C395 O392 1.249 . S
C395 O393 1.267 . S
Dy396 O400 2.398 . S
Dy396 O401 2.491 . S
Dy396 O402 2.403 . S
Dy396 O403 2.664 . S
Dy396 O407 2.326 . S
Dy396 O411 2.310 . S
Dy396 O412 2.351 . S
C397 O408 1.185 . S
C397 O409 1.355 . S
C398 O400 1.185 . S
C398 O401 1.355 . S
Dy399 O403 2.310 . S
Dy399 O406 2.351 . S
Dy399 O408 2.398 . S
Dy399 O409 2.491 . S
Dy399 O410 2.403 . S
Dy399 O411 2.664 . S
Dy399 O413 2.326 . S
O400 Dy396 2.398 . S
O400 C398 1.185 . S
O401 Dy396 2.491 . S
O401 C398 1.355 . S
O402 Dy396 2.403 . S
O402 C404 1.254 . S
O403 Dy396 2.664 . S
O403 Dy399 2.310 . S
O403 C404 1.268 . S
C404 O402 1.254 . S
C404 O403 1.268 . S
C405 O410 1.254 . S
C405 O411 1.268 . S
O406 Dy399 2.351 . S
O406 C414 1.249 . S
O407 Dy396 2.326 . S
O407 C414 1.267 . S
O408 C397 1.185 . S
O408 Dy399 2.398 . S
O409 C397 1.355 . S
O409 Dy399 2.491 . S
O410 Dy399 2.403 . S
O410 C405 1.254 . S
O411 Dy396 2.310 . S
O411 Dy399 2.664 . S
O411 C405 1.268 . S
O412 Dy396 2.351 . S
O412 C415 1.249 . S
O413 Dy399 2.326 . S
O413 C415 1.267 . S
C414 O406 1.249 . S
C414 O407 1.267 . S
C415 O412 1.249 . S
C415 O413 1.267 . S
Dy416 O420 2.398 . S
Dy416 O421 2.491 . S
Dy416 O422 2.403 . S
Dy416 O423 2.664 . S
Dy416 O427 2.326 . S
Dy416 O431 2.310 . S
Dy416 O432 2.351 . S
C417 O428 1.185 . S
C417 O429 1.355 . S
C418 O420 1.185 . S
C418 O421 1.355 . S
Dy419 O423 2.310 . S
Dy419 O426 2.351 . S
Dy419 O428 2.398 . S
Dy419 O429 2.491 . S
Dy419 O430 2.403 . S
Dy419 O431 2.664 . S
Dy419 O433 2.326 . S
O420 Dy416 2.398 . S
O420 C418 1.185 . S
O421 Dy416 2.491 . S
O421 C418 1.355 . S
O422 Dy416 2.403 . S
O422 C424 1.254 . S
O423 Dy416 2.664 . S
O423 Dy419 2.310 . S
O423 C424 1.268 . S
C424 O422 1.254 . S
C424 O423 1.268 . S
C425 O430 1.254 . S
C425 O431 1.268 . S
O426 Dy419 2.351 . S
O426 C434 1.249 . S
O427 Dy416 2.326 . S
O427 C434 1.267 . S
O428 C417 1.185 . S
O428 Dy419 2.398 . S
O429 C417 1.355 . S
O429 Dy419 2.491 . S
O430 Dy419 2.403 . S
O430 C425 1.254 . S
O431 Dy416 2.310 . S
O431 Dy419 2.664 . S
O431 C425 1.268 . S
O432 Dy416 2.351 . S
O432 C435 1.249 . S
O433 Dy419 2.326 . S
O433 C435 1.267 . S
C434 O426 1.249 . S
C434 O427 1.267 . S
C435 O432 1.249 . S
C435 O433 1.267 . S
C436 C437 1.369 . S
C436 C438 1.419 . S
C436 H440 0.930 . S
C437 C436 1.369 . S
C437 C446 1.429 . S
C438 C436 1.419 . S
C438 C439 1.363 . S
C438 H441 0.929 . S
C439 C438 1.363 . S
C439 C445 1.428 . S
H440 C436 0.930 . S
H441 C438 0.929 . S
S442 N443 1.613 . S
S442 N444 1.610 . S
N443 S442 1.613 . S
N443 C446 1.350 . S
N444 S442 1.610 . S
N444 C445 1.351 . S
C445 C439 1.428 . S
C445 N444 1.351 . S
C445 C446 1.434 . S
C446 C437 1.429 . S
C446 N443 1.350 . S
C446 C445 1.434 . S
C447 C448 1.369 . S
C447 C449 1.419 . S
C447 H451 0.930 . S
C448 C447 1.369 . S
C448 C457 1.429 . S
C449 C447 1.419 . S
C449 C450 1.363 . S
C449 H452 0.929 . S
C450 C449 1.363 . S
C450 C456 1.428 . S
H451 C447 0.930 . S
H452 C449 0.929 . S
S453 N454 1.613 . S
S453 N455 1.610 . S
N454 S453 1.613 . S
N454 C457 1.350 . S
N455 S453 1.610 . S
N455 C456 1.351 . S
C456 C450 1.428 . S
C456 N455 1.351 . S
C456 C457 1.434 . S
C457 C448 1.429 . S
C457 N454 1.350 . S
C457 C456 1.434 . S
C458 C459 1.369 . S
C458 C460 1.419 . S
C458 H462 0.930 . S
C459 C458 1.369 . S
C459 C468 1.429 . S
C460 C458 1.419 . S
C460 C461 1.363 . S
C460 H463 0.929 . S
C461 C460 1.363 . S
C461 C467 1.428 . S
H462 C458 0.930 . S
H463 C460 0.929 . S
S464 N465 1.613 . S
S464 N466 1.610 . S
N465 S464 1.613 . S
N465 C468 1.350 . S
N466 S464 1.610 . S
N466 C467 1.351 . S
C467 C461 1.428 . S
C467 N466 1.351 . S
C467 C468 1.434 . S
C468 C459 1.429 . S
C468 N465 1.350 . S
C468 C467 1.434 . S
C469 C470 1.369 . S
C469 C471 1.419 . S
C469 H473 0.930 . S
C470 C469 1.369 . S
C470 C479 1.429 . S
C471 C469 1.419 . S
C471 C472 1.363 . S
C471 H474 0.929 . S
C472 C471 1.363 . S
C472 C478 1.428 . S
H473 C469 0.930 . S
H474 C471 0.929 . S
S475 N476 1.613 . S
S475 N477 1.610 . S
N476 S475 1.613 . S
N476 C479 1.350 . S
N477 S475 1.610 . S
N477 C478 1.351 . S
C478 C472 1.428 . S
C478 N477 1.351 . S
C478 C479 1.434 . S
C479 C470 1.429 . S
C479 N476 1.350 . S
C479 C478 1.434 . S
C480 C481 1.369 . S
C480 C482 1.419 . S
C480 H484 0.930 . S
C481 C480 1.369 . S
C481 C490 1.429 . S
C482 C480 1.419 . S
C482 C483 1.363 . S
C482 H485 0.929 . S
C483 C482 1.363 . S
C483 C489 1.428 . S
H484 C480 0.930 . S
H485 C482 0.929 . S
S486 N487 1.613 . S
S486 N488 1.610 . S
N487 S486 1.613 . S
N487 C490 1.350 . S
N488 S486 1.610 . S
N488 C489 1.351 . S
C489 C483 1.428 . S
C489 N488 1.351 . S
C489 C490 1.434 . S
C490 C481 1.429 . S
C490 N487 1.350 . S
C490 C489 1.434 . S
C491 C492 1.369 . S
C491 C493 1.419 . S
C491 H495 0.930 . S
C492 C491 1.369 . S
C492 C501 1.429 . S
C493 C491 1.419 . S
C493 C494 1.363 . S
C493 H496 0.929 . S
C494 C493 1.363 . S
C494 C500 1.428 . S
H495 C491 0.930 . S
H496 C493 0.929 . S
S497 N498 1.613 . S
S497 N499 1.610 . S
N498 S497 1.613 . S
N498 C501 1.350 . S
N499 S497 1.610 . S
N499 C500 1.351 . S
C500 C494 1.428 . S
C500 N499 1.351 . S
C500 C501 1.434 . S
C501 C492 1.429 . S
C501 N498 1.350 . S
C501 C500 1.434 . S
C502 C503 1.369 . S
C502 C504 1.419 . S
C502 H506 0.930 . S
C503 C502 1.369 . S
C503 C512 1.429 . S
C504 C502 1.419 . S
C504 C505 1.363 . S
C504 H507 0.929 . S
C505 C504 1.363 . S
C505 C511 1.428 . S
H506 C502 0.930 . S
H507 C504 0.929 . S
S508 N509 1.613 . S
S508 N510 1.610 . S
N509 S508 1.613 . S
N509 C512 1.350 . S
N510 S508 1.610 . S
N510 C511 1.351 . S
C511 C505 1.428 . S
C511 N510 1.351 . S
C511 C512 1.434 . S
C512 C503 1.429 . S
C512 N509 1.350 . S
C512 C511 1.434 . S
C513 C514 1.369 . S
C513 C515 1.419 . S
C513 H517 0.930 . S
C514 C513 1.369 . S
C514 C523 1.429 . S
C515 C513 1.419 . S
C515 C516 1.363 . S
C515 H518 0.929 . S
C516 C515 1.363 . S
C516 C522 1.428 . S
H517 C513 0.930 . S
H518 C515 0.929 . S
S519 N520 1.613 . S
S519 N521 1.610 . S
N520 S519 1.613 . S
N520 C523 1.350 . S
N521 S519 1.610 . S
N521 C522 1.351 . S
C522 C516 1.428 . S
C522 N521 1.351 . S
C522 C523 1.434 . S
C523 C514 1.429 . S
C523 N520 1.350 . S
C523 C522 1.434 . S
C524 C525 1.369 . S
C524 C526 1.419 . S
C524 H528 0.930 . S
C525 C524 1.369 . S
C525 C534 1.429 . S
C526 C524 1.419 . S
C526 C527 1.363 . S
C526 H529 0.929 . S
C527 C526 1.363 . S
C527 C533 1.428 . S
H528 C524 0.930 . S
H529 C526 0.929 . S
S530 N531 1.613 . S
S530 N532 1.610 . S
N531 S530 1.613 . S
N531 C534 1.350 . S
N532 S530 1.610 . S
N532 C533 1.351 . S
C533 C527 1.428 . S
C533 N532 1.351 . S
C533 C534 1.434 . S
C534 C525 1.429 . S
C534 N531 1.350 . S
C534 C533 1.434 . S
C535 C536 1.369 . S
C535 C537 1.419 . S
C535 H539 0.930 . S
C536 C535 1.369 . S
C536 C545 1.429 . S
C537 C535 1.419 . S
C537 C538 1.363 . S
C537 H540 0.929 . S
C538 C537 1.363 . S
C538 C544 1.428 . S
H539 C535 0.930 . S
H540 C537 0.929 . S
S541 N542 1.613 . S
S541 N543 1.610 . S
N542 S541 1.613 . S
N542 C545 1.350 . S
N543 S541 1.610 . S
N543 C544 1.351 . S
C544 C538 1.428 . S
C544 N543 1.351 . S
C544 C545 1.434 . S
C545 C536 1.429 . S
C545 N542 1.350 . S
C545 C544 1.434 . S
C546 C547 1.369 . S
C546 C548 1.419 . S
C546 H550 0.930 . S
C547 C546 1.369 . S
C547 C556 1.429 . S
C548 C546 1.419 . S
C548 C549 1.363 . S
C548 H551 0.929 . S
C549 C548 1.363 . S
C549 C555 1.428 . S
H550 C546 0.930 . S
H551 C548 0.929 . S
S552 N553 1.613 . S
S552 N554 1.610 . S
N553 S552 1.613 . S
N553 C556 1.350 . S
N554 S552 1.610 . S
N554 C555 1.351 . S
C555 C549 1.428 . S
C555 N554 1.351 . S
C555 C556 1.434 . S
C556 C547 1.429 . S
C556 N553 1.350 . S
C556 C555 1.434 . S
C557 C558 1.369 . S
C557 C559 1.419 . S
C557 H561 0.930 . S
C558 C557 1.369 . S
C558 C567 1.429 . S
C559 C557 1.419 . S
C559 C560 1.363 . S
C559 H562 0.929 . S
C560 C559 1.363 . S
C560 C566 1.428 . S
H561 C557 0.930 . S
H562 C559 0.929 . S
S563 N564 1.613 . S
S563 N565 1.610 . S
N564 S563 1.613 . S
N564 C567 1.350 . S
N565 S563 1.610 . S
N565 C566 1.351 . S
C566 C560 1.428 . S
C566 N565 1.351 . S
C566 C567 1.434 . S
C567 C558 1.429 . S
C567 N564 1.350 . S
C567 C566 1.434 . S
C568 C569 1.369 . S
C568 C570 1.419 . S
C568 H572 0.930 . S
C569 C568 1.369 . S
C569 C578 1.429 . S
C570 C568 1.419 . S
C570 C571 1.363 . S
C570 H573 0.929 . S
C571 C570 1.363 . S
C571 C577 1.428 . S
H572 C568 0.930 . S
H573 C570 0.929 . S
S574 N575 1.613 . S
S574 N576 1.610 . S
N575 S574 1.613 . S
N575 C578 1.350 . S
N576 S574 1.610 . S
N576 C577 1.351 . S
C577 C571 1.428 . S
C577 N576 1.351 . S
C577 C578 1.434 . S
C578 C569 1.429 . S
C578 N575 1.350 . S
C578 C577 1.434 . S
C579 C580 1.369 . S
C579 C581 1.419 . S
C579 H583 0.930 . S
C580 C579 1.369 . S
C580 C589 1.429 . S
C581 C579 1.419 . S
C581 C582 1.363 . S
C581 H584 0.929 . S
C582 C581 1.363 . S
C582 C588 1.428 . S
H583 C579 0.930 . S
H584 C581 0.929 . S
S585 N586 1.613 . S
S585 N587 1.610 . S
N586 S585 1.613 . S
N586 C589 1.350 . S
N587 S585 1.610 . S
N587 C588 1.351 . S
C588 C582 1.428 . S
C588 N587 1.351 . S
C588 C589 1.434 . S
C589 C580 1.429 . S
C589 N586 1.350 . S
C589 C588 1.434 . S
C590 C591 1.369 . S
C590 C592 1.419 . S
C590 H594 0.930 . S
C591 C590 1.369 . S
C591 C600 1.429 . S
C592 C590 1.419 . S
C592 C593 1.363 . S
C592 H595 0.929 . S
C593 C592 1.363 . S
C593 C599 1.428 . S
H594 C590 0.930 . S
H595 C592 0.929 . S
S596 N597 1.613 . S
S596 N598 1.610 . S
N597 S596 1.613 . S
N597 C600 1.350 . S
N598 S596 1.610 . S
N598 C599 1.351 . S
C599 C593 1.428 . S
C599 N598 1.351 . S
C599 C600 1.434 . S
C600 C591 1.429 . S
C600 N597 1.350 . S
C600 C599 1.434 . S
C601 C602 1.369 . S
C601 C603 1.419 . S
C601 H605 0.930 . S
C602 C601 1.369 . S
C602 C611 1.429 . S
C603 C601 1.419 . S
C603 C604 1.363 . S
C603 H606 0.929 . S
C604 C603 1.363 . S
C604 C610 1.428 . S
H605 C601 0.930 . S
H606 C603 0.929 . S
S607 N608 1.613 . S
S607 N609 1.610 . S
N608 S607 1.613 . S
N608 C611 1.350 . S
N609 S607 1.610 . S
N609 C610 1.351 . S
C610 C604 1.428 . S
C610 N609 1.351 . S
C610 C611 1.434 . S
C611 C602 1.429 . S
C611 N608 1.350 . S
C611 C610 1.434 . S
C612 C613 1.369 . S
C612 C614 1.419 . S
C612 H616 0.930 . S
C613 C612 1.369 . S
C613 C622 1.429 . S
C614 C612 1.419 . S
C614 C615 1.363 . S
C614 H617 0.929 . S
C615 C614 1.363 . S
C615 C621 1.428 . S
H616 C612 0.930 . S
H617 C614 0.929 . S
S618 N619 1.613 . S
S618 N620 1.610 . S
N619 S618 1.613 . S
N619 C622 1.350 . S
N620 S618 1.610 . S
N620 C621 1.351 . S
C621 C615 1.428 . S
C621 N620 1.351 . S
C621 C622 1.434 . S
C622 C613 1.429 . S
C622 N619 1.350 . S
C622 C621 1.434 . S
C623 C624 1.369 . S
C623 C625 1.419 . S
C623 H627 0.930 . S
C624 C623 1.369 . S
C624 C633 1.429 . S
C625 C623 1.419 . S
C625 C626 1.363 . S
C625 H628 0.929 . S
C626 C625 1.363 . S
C626 C632 1.428 . S
H627 C623 0.930 . S
H628 C625 0.929 . S
S629 N630 1.613 . S
S629 N631 1.610 . S
N630 S629 1.613 . S
N630 C633 1.350 . S
N631 S629 1.610 . S
N631 C632 1.351 . S
C632 C626 1.428 . S
C632 N631 1.351 . S
C632 C633 1.434 . S
C633 C624 1.429 . S
C633 N630 1.350 . S
C633 C632 1.434 . S
C634 C635 1.369 . S
C634 C636 1.419 . S
C634 H638 0.930 . S
C635 C634 1.369 . S
C635 C644 1.429 . S
C636 C634 1.419 . S
C636 C637 1.363 . S
C636 H639 0.929 . S
C637 C636 1.363 . S
C637 C643 1.428 . S
H638 C634 0.930 . S
H639 C636 0.929 . S
S640 N641 1.613 . S
S640 N642 1.610 . S
N641 S640 1.613 . S
N641 C644 1.350 . S
N642 S640 1.610 . S
N642 C643 1.351 . S
C643 C637 1.428 . S
C643 N642 1.351 . S
C643 C644 1.434 . S
C644 C635 1.429 . S
C644 N641 1.350 . S
C644 C643 1.434 . S
C645 C646 1.369 . S
C645 C647 1.419 . S
C645 H649 0.930 . S
C646 C645 1.369 . S
C646 C655 1.429 . S
C647 C645 1.419 . S
C647 C648 1.363 . S
C647 H650 0.929 . S
C648 C647 1.363 . S
C648 C654 1.428 . S
H649 C645 0.930 . S
H650 C647 0.929 . S
S651 N652 1.613 . S
S651 N653 1.610 1_554 S
N652 S651 1.613 . S
N652 C655 1.350 1_554 S
N653 S651 1.610 1_556 S
N653 C654 1.351 . S
C654 C648 1.428 . S
C654 N653 1.351 . S
C654 C655 1.434 . S
C655 C646 1.429 . S
C655 N652 1.350 1_556 S
C655 C654 1.434 . S
C656 C657 1.369 . S
C656 C658 1.419 . S
C656 H660 0.930 . S
C657 C656 1.369 . S
C657 C666 1.429 . S
C658 C656 1.419 . S
C658 C659 1.363 . S
C658 H661 0.929 . S
C659 C658 1.363 . S
C659 C665 1.428 . S
H660 C656 0.930 . S
H661 C658 0.929 . S
S662 N663 1.613 . S
S662 N664 1.610 . S
N663 S662 1.613 . S
N663 C666 1.350 . S
N664 S662 1.610 . S
N664 C665 1.351 . S
C665 C659 1.428 . S
C665 N664 1.351 . S
C665 C666 1.434 . S
C666 C657 1.429 . S
C666 N663 1.350 . S
C666 C665 1.434 . S
C667 C668 1.369 . S
C667 C669 1.419 . S
C667 H671 0.930 . S
C668 C667 1.369 . S
C668 C677 1.429 . S
C669 C667 1.419 . S
C669 C670 1.363 . S
C669 H672 0.929 . S
C670 C669 1.363 . S
C670 C676 1.428 . S
H671 C667 0.930 . S
H672 C669 0.929 . S
S673 N674 1.613 . S
S673 N675 1.610 . S
N674 S673 1.613 . S
N674 C677 1.350 . S
N675 S673 1.610 . S
N675 C676 1.351 . S
C676 C670 1.428 . S
C676 N675 1.351 . S
C676 C677 1.434 . S
C677 C668 1.429 . S
C677 N674 1.350 . S
C677 C676 1.434 . S
C678 C679 1.369 . S
C678 C680 1.419 . S
C678 H682 0.930 . S
C679 C678 1.369 . S
C679 C688 1.429 . S
C680 C678 1.419 . S
C680 C681 1.363 . S
C680 H683 0.929 . S
C681 C680 1.363 . S
C681 C687 1.428 . S
H682 C678 0.930 . S
H683 C680 0.929 . S
S684 N685 1.613 . S
S684 N686 1.610 . S
N685 S684 1.613 . S
N685 C688 1.350 . S
N686 S684 1.610 . S
N686 C687 1.351 . S
C687 C681 1.428 . S
C687 N686 1.351 . S
C687 C688 1.434 . S
C688 C679 1.429 . S
C688 N685 1.350 . S
C688 C687 1.434 . S
C689 C690 1.369 . S
C689 C691 1.419 . S
C689 H693 0.930 . S
C690 C689 1.369 . S
C690 C699 1.429 . S
C691 C689 1.419 . S
C691 C692 1.363 . S
C691 H694 0.929 . S
C692 C691 1.363 . S
C692 C698 1.428 . S
H693 C689 0.930 . S
H694 C691 0.929 . S
S695 N696 1.613 . S
S695 N697 1.610 . S
N696 S695 1.613 . S
N696 C699 1.350 . S
N697 S695 1.610 . S
N697 C698 1.351 . S
C698 C692 1.428 . S
C698 N697 1.351 . S
C698 C699 1.434 . S
C699 C690 1.429 . S
C699 N696 1.350 . S
C699 C698 1.434 . S
C700 C701 1.369 . S
C700 C702 1.419 . S
C700 H704 0.930 . S
C701 C700 1.369 . S
C701 C710 1.429 . S
C702 C700 1.419 . S
C702 C703 1.363 . S
C702 H705 0.929 . S
C703 C702 1.363 . S
C703 C709 1.428 . S
H704 C700 0.930 . S
H705 C702 0.929 . S
S706 N707 1.613 . S
S706 N708 1.610 . S
N707 S706 1.613 . S
N707 C710 1.350 . S
N708 S706 1.610 . S
N708 C709 1.351 . S
C709 C703 1.428 . S
C709 N708 1.351 . S
C709 C710 1.434 . S
C710 C701 1.429 . S
C710 N707 1.350 . S
C710 C709 1.434 . S
C711 C712 1.369 . S
C711 C713 1.419 . S
C711 H715 0.930 . S
C712 C711 1.369 . S
C712 C721 1.429 . S
C713 C711 1.419 . S
C713 C714 1.363 . S
C713 H716 0.929 . S
C714 C713 1.363 . S
C714 C720 1.428 . S
H715 C711 0.930 . S
H716 C713 0.929 . S
S717 N718 1.613 . S
S717 N719 1.610 . S
N718 S717 1.613 . S
N718 C721 1.350 . S
N719 S717 1.610 . S
N719 C720 1.351 . S
C720 C714 1.428 . S
C720 N719 1.351 . S
C720 C721 1.434 . S
C721 C712 1.429 . S
C721 N718 1.350 . S
C721 C720 1.434 . S
C722 C723 1.369 . S
C722 C724 1.419 . S
C722 H726 0.930 . S
C723 C722 1.369 . S
C723 C732 1.429 . S
C724 C722 1.419 . S
C724 C725 1.363 . S
C724 H727 0.929 . S
C725 C724 1.363 . S
C725 C731 1.428 . S
H726 C722 0.930 . S
H727 C724 0.929 . S
S728 N729 1.613 . S
S728 N730 1.610 . S
N729 S728 1.613 . S
N729 C732 1.350 . S
N730 S728 1.610 . S
N730 C731 1.351 . S
C731 C725 1.428 . S
C731 N730 1.351 . S
C731 C732 1.434 . S
C732 C723 1.429 . S
C732 N729 1.350 . S
C732 C731 1.434 . S
C733 C734 1.369 . S
C733 C735 1.419 . S
C733 H737 0.930 . S
C734 C733 1.369 . S
C734 C743 1.429 . S
C735 C733 1.419 . S
C735 C736 1.363 . S
C735 H738 0.929 . S
C736 C735 1.363 . S
C736 C742 1.428 . S
H737 C733 0.930 . S
H738 C735 0.929 . S
S739 N740 1.613 . S
S739 N741 1.610 . S
N740 S739 1.613 . S
N740 C743 1.350 . S
N741 S739 1.610 . S
N741 C742 1.351 . S
C742 C736 1.428 . S
C742 N741 1.351 . S
C742 C743 1.434 . S
C743 C734 1.429 . S
C743 N740 1.350 . S
C743 C742 1.434 . S
C744 C745 1.369 . S
C744 C746 1.419 . S
C744 H748 0.930 . S
C745 C744 1.369 . S
C745 C754 1.429 . S
C746 C744 1.419 . S
C746 C747 1.363 . S
C746 H749 0.929 . S
C747 C746 1.363 . S
C747 C753 1.428 . S
H748 C744 0.930 . S
H749 C746 0.929 . S
S750 N751 1.613 . S
S750 N752 1.610 . S
N751 S750 1.613 . S
N751 C754 1.350 . S
N752 S750 1.610 . S
N752 C753 1.351 . S
C753 C747 1.428 . S
C753 N752 1.351 . S
C753 C754 1.434 . S
C754 C745 1.429 . S
C754 N751 1.350 . S
C754 C753 1.434 . S
C755 C756 1.369 . S
C755 C757 1.419 . S
C755 H759 0.930 . S
C756 C755 1.369 . S
C756 C765 1.429 . S
C757 C755 1.419 . S
C757 C758 1.363 . S
C757 H760 0.929 . S
C758 C757 1.363 . S
C758 C764 1.428 . S
H759 C755 0.930 . S
H760 C757 0.929 . S
S761 N762 1.613 . S
S761 N763 1.610 . S
N762 S761 1.613 . S
N762 C765 1.350 . S
N763 S761 1.610 . S
N763 C764 1.351 . S
C764 C758 1.428 . S
C764 N763 1.351 . S
C764 C765 1.434 . S
C765 C756 1.429 . S
C765 N762 1.350 . S
C765 C764 1.434 . S
C766 C767 1.369 . S
C766 C768 1.419 . S
C766 H770 0.930 . S
C767 C766 1.369 . S
C767 C776 1.429 . S
C768 C766 1.419 . S
C768 C769 1.363 . S
C768 H771 0.929 . S
C769 C768 1.363 . S
C769 C775 1.428 . S
H770 C766 0.930 . S
H771 C768 0.929 . S
S772 N773 1.613 . S
S772 N774 1.610 . S
N773 S772 1.613 . S
N773 C776 1.350 . S
N774 S772 1.610 . S
N774 C775 1.351 . S
C775 C769 1.428 . S
C775 N774 1.351 . S
C775 C776 1.434 . S
C776 C767 1.429 . S
C776 N773 1.350 . S
C776 C775 1.434 . S
C777 C778 1.369 . S
C777 C779 1.419 . S
C777 H781 0.930 . S
C778 C777 1.369 . S
C778 C787 1.429 . S
C779 C777 1.419 . S
C779 C780 1.363 . S
C779 H782 0.929 . S
C780 C779 1.363 . S
C780 C786 1.428 . S
H781 C777 0.930 . S
H782 C779 0.929 . S
S783 N784 1.613 . S
S783 N785 1.610 . S
N784 S783 1.613 . S
N784 C787 1.350 . S
N785 S783 1.610 . S
N785 C786 1.351 . S
C786 C780 1.428 . S
C786 N785 1.351 . S
C786 C787 1.434 . S
C787 C778 1.429 . S
C787 N784 1.350 . S
C787 C786 1.434 . S
C788 C789 1.369 . S
C788 C790 1.419 . S
C788 H792 0.930 . S
C789 C788 1.369 . S
C789 C798 1.429 . S
C790 C788 1.419 . S
C790 C791 1.363 . S
C790 H793 0.929 . S
C791 C790 1.363 . S
C791 C797 1.428 . S
H792 C788 0.930 . S
H793 C790 0.929 . S
S794 N795 1.613 . S
S794 N796 1.610 . S
N795 S794 1.613 . S
N795 C798 1.350 . S
N796 S794 1.610 . S
N796 C797 1.351 . S
C797 C791 1.428 . S
C797 N796 1.351 . S
C797 C798 1.434 . S
C798 C789 1.429 . S
C798 N795 1.350 . S
C798 C797 1.434 . S
C799 C800 1.369 . S
C799 C801 1.419 . S
C799 H803 0.930 . S
C800 C799 1.369 . S
C800 C809 1.429 . S
C801 C799 1.419 . S
C801 C802 1.363 . S
C801 H804 0.929 . S
C802 C801 1.363 . S
C802 C808 1.428 . S
H803 C799 0.930 . S
H804 C801 0.929 . S
S805 N806 1.613 . S
S805 N807 1.610 . S
N806 S805 1.613 . S
N806 C809 1.350 . S
N807 S805 1.610 . S
N807 C808 1.351 . S
C808 C802 1.428 . S
C808 N807 1.351 . S
C808 C809 1.434 . S
C809 C800 1.429 . S
C809 N806 1.350 . S
C809 C808 1.434 . S
C810 C811 1.369 . S
C810 C812 1.419 . S
C810 H814 0.930 . S
C811 C810 1.369 . S
C811 C820 1.429 . S
C812 C810 1.419 . S
C812 C813 1.363 . S
C812 H815 0.929 . S
C813 C812 1.363 . S
C813 C819 1.428 . S
H814 C810 0.930 . S
H815 C812 0.929 . S
S816 N817 1.613 . S
S816 N818 1.610 . S
N817 S816 1.613 . S
N817 C820 1.350 . S
N818 S816 1.610 . S
N818 C819 1.351 . S
C819 C813 1.428 . S
C819 N818 1.351 . S
C819 C820 1.434 . S
C820 C811 1.429 . S
C820 N817 1.350 . S
C820 C819 1.434 . S
C821 C822 1.369 . S
C821 C823 1.419 . S
C821 H825 0.930 . S
C822 C821 1.369 . S
C822 C831 1.429 . S
C823 C821 1.419 . S
C823 C824 1.363 . S
C823 H826 0.929 . S
C824 C823 1.363 . S
C824 C830 1.428 . S
H825 C821 0.930 . S
H826 C823 0.929 . S
S827 N828 1.613 . S
S827 N829 1.610 . S
N828 S827 1.613 . S
N828 C831 1.350 . S
N829 S827 1.610 . S
N829 C830 1.351 . S
C830 C824 1.428 . S
C830 N829 1.351 . S
C830 C831 1.434 . S
C831 C822 1.429 . S
C831 N828 1.350 . S
C831 C830 1.434 . S
C832 C833 1.369 . S
C832 C834 1.419 . S
C832 H836 0.930 . S
C833 C832 1.369 . S
C833 C842 1.429 . S
C834 C832 1.419 . S
C834 C835 1.363 . S
C834 H837 0.929 . S
C835 C834 1.363 . S
C835 C841 1.428 . S
H836 C832 0.930 . S
H837 C834 0.929 . S
S838 N839 1.613 . S
S838 N840 1.610 . S
N839 S838 1.613 . S
N839 C842 1.350 . S
N840 S838 1.610 . S
N840 C841 1.351 . S
C841 C835 1.428 . S
C841 N840 1.351 . S
C841 C842 1.434 . S
C842 C833 1.429 . S
C842 N839 1.350 . S
C842 C841 1.434 . S
C843 C844 1.369 . S
C843 C845 1.419 . S
C843 H847 0.930 . S
C844 C843 1.369 . S
C844 C853 1.429 . S
C845 C843 1.419 . S
C845 C846 1.363 . S
C845 H848 0.929 . S
C846 C845 1.363 . S
C846 C852 1.428 . S
H847 C843 0.930 . S
H848 C845 0.929 . S
S849 N850 1.613 . S
S849 N851 1.610 . S
N850 S849 1.613 . S
N850 C853 1.350 . S
N851 S849 1.610 . S
N851 C852 1.351 . S
C852 C846 1.428 . S
C852 N851 1.351 . S
C852 C853 1.434 . S
C853 C844 1.429 . S
C853 N850 1.350 . S
C853 C852 1.434 . S
C854 C855 1.369 . S
C854 C856 1.419 . S
C854 H858 0.930 . S
C855 C854 1.369 . S
C855 C864 1.429 . S
C856 C854 1.419 . S
C856 C857 1.363 . S
C856 H859 0.929 . S
C857 C856 1.363 . S
C857 C863 1.428 . S
H858 C854 0.930 . S
H859 C856 0.929 . S
S860 N861 1.613 . S
S860 N862 1.610 . S
N861 S860 1.613 . S
N861 C864 1.350 . S
N862 S860 1.610 . S
N862 C863 1.351 . S
C863 C857 1.428 . S
C863 N862 1.351 . S
C863 C864 1.434 . S
C864 C855 1.429 . S
C864 N861 1.350 . S
C864 C863 1.434 . S
C865 C866 1.369 . S
C865 C867 1.419 . S
C865 H869 0.930 . S
C866 C865 1.369 . S
C866 C875 1.429 . S
C867 C865 1.419 . S
C867 C868 1.363 . S
C867 H870 0.929 . S
C868 C867 1.363 . S
C868 C874 1.428 . S
H869 C865 0.930 . S
H870 C867 0.929 . S
S871 N872 1.613 . S
S871 N873 1.610 . S
N872 S871 1.613 . S
N872 C875 1.350 . S
N873 S871 1.610 . S
N873 C874 1.351 . S
C874 C868 1.428 . S
C874 N873 1.351 . S
C874 C875 1.434 . S
C875 C866 1.429 . S
C875 N872 1.350 . S
C875 C874 1.434 . S
C876 C877 1.369 . S
C876 C878 1.419 . S
C876 H880 0.930 . S
C877 C876 1.369 . S
C877 C886 1.429 . S
C878 C876 1.419 . S
C878 C879 1.363 . S
C878 H881 0.929 . S
C879 C878 1.363 . S
C879 C885 1.428 . S
H880 C876 0.930 . S
H881 C878 0.929 . S
S882 N883 1.613 . S
S882 N884 1.610 . S
N883 S882 1.613 . S
N883 C886 1.350 . S
N884 S882 1.610 . S
N884 C885 1.351 . S
C885 C879 1.428 . S
C885 N884 1.351 . S
C885 C886 1.434 . S
C886 C877 1.429 . S
C886 N883 1.350 . S
C886 C885 1.434 . S
C887 C888 1.369 . S
C887 C889 1.419 . S
C887 H891 0.930 . S
C888 C887 1.369 . S
C888 C897 1.429 . S
C889 C887 1.419 . S
C889 C890 1.363 . S
C889 H892 0.929 . S
C890 C889 1.363 . S
C890 C896 1.428 . S
H891 C887 0.930 . S
H892 C889 0.929 . S
S893 N894 1.613 . S
S893 N895 1.610 . S
N894 S893 1.613 . S
N894 C897 1.350 . S
N895 S893 1.610 . S
N895 C896 1.351 . S
C896 C890 1.428 . S
C896 N895 1.351 . S
C896 C897 1.434 . S
C897 C888 1.429 . S
C897 N894 1.350 . S
C897 C896 1.434 . S
C898 C899 1.369 . S
C898 C900 1.419 . S
C898 H902 0.930 . S
C899 C898 1.369 . S
C899 C908 1.429 . S
C900 C898 1.419 . S
C900 C901 1.363 . S
C900 H903 0.929 . S
C901 C900 1.363 . S
C901 C907 1.428 . S
H902 C898 0.930 . S
H903 C900 0.929 . S
S904 N905 1.613 . S
S904 N906 1.610 . S
N905 S904 1.613 . S
N905 C908 1.350 . S
N906 S904 1.610 . S
N906 C907 1.351 . S
C907 C901 1.428 . S
C907 N906 1.351 . S
C907 C908 1.434 . S
C908 C899 1.429 . S
C908 N905 1.350 . S
C908 C907 1.434 . S
C909 C910 1.369 . S
C909 C911 1.419 . S
C909 H913 0.930 . S
C910 C909 1.369 . S
C910 C919 1.429 . S
C911 C909 1.419 . S
C911 C912 1.363 . S
C911 H914 0.929 . S
C912 C911 1.363 . S
C912 C918 1.428 . S
H913 C909 0.930 . S
H914 C911 0.929 . S
S915 N916 1.613 . S
S915 N917 1.610 . S
N916 S915 1.613 . S
N916 C919 1.350 . S
N917 S915 1.610 . S
N917 C918 1.351 . S
C918 C912 1.428 . S
C918 N917 1.351 . S
C918 C919 1.434 . S
C919 C910 1.429 . S
C919 N916 1.350 . S
C919 C918 1.434 . S
C920 C921 1.369 . S
C920 C922 1.419 . S
C920 H924 0.930 . S
C921 C920 1.369 . S
C921 C930 1.429 . S
C922 C920 1.419 . S
C922 C923 1.363 . S
C922 H925 0.929 . S
C923 C922 1.363 . S
C923 C929 1.428 . S
H924 C920 0.930 . S
H925 C922 0.929 . S
S926 N927 1.613 . S
S926 N928 1.610 . S
N927 S926 1.613 . S
N927 C930 1.350 . S
N928 S926 1.610 . S
N928 C929 1.351 . S
C929 C923 1.428 . S
C929 N928 1.351 . S
C929 C930 1.434 . S
C930 C921 1.429 . S
C930 N927 1.350 . S
C930 C929 1.434 . S
C931 C932 1.369 . S
C931 C933 1.419 . S
C931 H935 0.930 . S
C932 C931 1.369 . S
C932 C941 1.429 . S
C933 C931 1.419 . S
C933 C934 1.363 . S
C933 H936 0.929 . S
C934 C933 1.363 . S
C934 C940 1.428 . S
H935 C931 0.930 . S
H936 C933 0.929 . S
S937 N938 1.613 . S
S937 N939 1.610 . S
N938 S937 1.613 . S
N938 C941 1.350 . S
N939 S937 1.610 . S
N939 C940 1.351 . S
C940 C934 1.428 . S
C940 N939 1.351 . S
C940 C941 1.434 . S
C941 C932 1.429 . S
C941 N938 1.350 . S
C941 C940 1.434 . S
C942 C943 1.369 . S
C942 C944 1.419 . S
C942 H946 0.930 . S
C943 C942 1.369 . S
C943 C952 1.429 . S
C944 C942 1.419 . S
C944 C945 1.363 . S
C944 H947 0.929 . S
C945 C944 1.363 . S
C945 C951 1.428 . S
H946 C942 0.930 . S
H947 C944 0.929 . S
S948 N949 1.613 . S
S948 N950 1.610 . S
N949 S948 1.613 . S
N949 C952 1.350 . S
N950 S948 1.610 . S
N950 C951 1.351 . S
C951 C945 1.428 . S
C951 N950 1.351 . S
C951 C952 1.434 . S
C952 C943 1.429 . S
C952 N949 1.350 . S
C952 C951 1.434 . S
C953 C954 1.369 . S
C953 C955 1.419 . S
C953 H957 0.930 . S
C954 C953 1.369 . S
C954 C963 1.429 . S
C955 C953 1.419 . S
C955 C956 1.363 . S
C955 H958 0.929 . S
C956 C955 1.363 . S
C956 C962 1.428 . S
H957 C953 0.930 . S
H958 C955 0.929 . S
S959 N960 1.613 . S
S959 N961 1.610 . S
N960 S959 1.613 . S
N960 C963 1.350 . S
N961 S959 1.610 . S
N961 C962 1.351 . S
C962 C956 1.428 . S
C962 N961 1.351 . S
C962 C963 1.434 . S
C963 C954 1.429 . S
C963 N960 1.350 . S
C963 C962 1.434 . S
C439 C278 1.626 . S
C437 N2 1.654 . S
C450 C304 2.210 . S
C448 C7 2.234 . S
C461 C317 1.693 . S
C459 N12 1.652 . S
C470 C16 1.687 . S
C472 C345 1.714 . S
C483 C365 2.324 . S
C481 C30 2.319 . S
C494 C378 1.518 . S
C492 N35 1.510 . S
C503 C39 1.872 . S
C505 C404 1.829 . S
C516 C417 1.465 . S
C514 N25 1.394 . S
C527 C294 1.306 . S
C525 N58 1.223 . S
C536 N81 1.517 . S
C538 C315 1.523 . S
C549 C324 1.355 . S
C547 N104 1.308 . S
C558 N127 1.348 . S
C560 C338 1.310 . S
C571 C358 1.103 . S
C569 N48 1.197 . S
C582 C394 1.577 . S
C580 N71 1.566 . S
C591 N94 1.253 . S
C593 C415 1.190 . S
C604 C424 1.662 . S
C602 N117 1.675 . S
C613 C85 2.121 . S
C615 C285 2.076 . S
C624 C122 1.903 . S
C626 C374 1.881 . S
C635 C53 1.897 . S
C637 C385 1.816 . S
C648 C397 1.517 . S
C646 C76 1.594 . S
C659 C435 1.760 . S
C657 C99 1.750 . S
C670 C335 1.922 . S
C668 C131 1.885 . S
C681 C354 1.439 . S
C679 C62 1.450 . S
C690 C108 1.360 . S
C692 C297 1.319 . S
C703 C418 1.692 . S
C701 N140 1.754 . S
C712 C145 2.232 . S
C714 C364 2.202 . S
C725 C377 1.616 . S
C723 N150 1.539 . S
C734 C154 1.685 . S
C736 C405 1.706 . S
C747 C305 2.317 . S
C745 C168 2.315 . S
C756 N173 1.410 . S
C758 C318 1.422 . S
C769 C344 1.818 . S
C767 C177 1.879 . S
C780 C277 1.526 . S
C778 N163 1.470 . S
C791 C434 1.738 . S
C789 C200 1.757 . S
C802 C375 1.805 . S
C800 N219 1.794 . S
C811 N242 1.534 . S
C813 C384 1.582 . S
C824 C398 1.532 . S
C822 C269 1.676 . S
C835 C298 1.372 . S
C833 C191 1.470 . S
C844 N209 1.773 . S
C846 C334 1.796 . S
C855 N232 1.546 . S
C857 C355 1.472 . S
C866 C260 2.154 . S
C868 C284 2.127 . S
C877 C223 1.844 . S
C879 C425 1.800 . S
C888 N255 1.437 . S
C890 C314 1.477 . S
C899 N186 1.367 . S
C901 C325 1.351 . S
C912 C337 1.205 . S
C910 C214 1.275 . S
C923 C295 1.468 . S
C921 C237 1.467 . S
C934 C395 1.498 . S
C932 N265 1.426 . S
C945 C414 1.099 . S
C943 N196 1.099 . S
C956 C357 1.005 . S
C954 C246 1.040 . S
