# Generated by pormake.
# Topology gar, (4,6)-cn, num edge types: 1
# Building blocks:
#     Node 0, Type 0, BuildingBlock: QUQFOY_clean_sbu_1, # of connection points: 4
#     Node 1, Type 0, BuildingBlock: QUQFOY_clean_sbu_1, # of connection points: 4
#     Node 2, Type 0, BuildingBlock: QUQFOY_clean_sbu_1, # of connection points: 4
#     Node 3, Type 0, BuildingBlock: QUQFOY_clean_sbu_1, # of connection points: 4
#     Node 4, Type 0, BuildingBlock: QUQFOY_clean_sbu_1, # of connection points: 4
#     Node 5, Type 0, BuildingBlock: QUQFOY_clean_sbu_1, # of connection points: 4
#     Node 6, Type 0, BuildingBlock: QUQFOY_clean_sbu_1, # of connection points: 4
#     Node 7, Type 0, BuildingBlock: QUQFOY_clean_sbu_1, # of connection points: 4
#     Node 8, Type 0, BuildingBlock: QUQFOY_clean_sbu_1, # of connection points: 4
#     Node 9, Type 0, BuildingBlock: QUQFOY_clean_sbu_1, # of connection points: 4
#     Node 10, Type 0, BuildingBlock: QUQFOY_clean_sbu_1, # of connection points: 4
#     Node 11, Type 0, BuildingBlock: QUQFOY_clean_sbu_1, # of connection points: 4
#     Node 12, Type 0, BuildingBlock: QUQFOY_clean_sbu_1, # of connection points: 4
#     Node 13, Type 0, BuildingBlock: QUQFOY_clean_sbu_1, # of connection points: 4
#     Node 14, Type 0, BuildingBlock: QUQFOY_clean_sbu_1, # of connection points: 4
#     Node 15, Type 0, BuildingBlock: QUQFOY_clean_sbu_1, # of connection points: 4
#     Node 16, Type 0, BuildingBlock: QUQFOY_clean_sbu_1, # of connection points: 4
#     Node 17, Type 0, BuildingBlock: QUQFOY_clean_sbu_1, # of connection points: 4
#     Node 18, Type 0, BuildingBlock: QUQFOY_clean_sbu_1, # of connection points: 4
#     Node 19, Type 0, BuildingBlock: QUQFOY_clean_sbu_1, # of connection points: 4
#     Node 20, Type 0, BuildingBlock: QUQFOY_clean_sbu_1, # of connection points: 4
#     Node 21, Type 0, BuildingBlock: QUQFOY_clean_sbu_1, # of connection points: 4
#     Node 22, Type 0, BuildingBlock: QUQFOY_clean_sbu_1, # of connection points: 4
#     Node 23, Type 0, BuildingBlock: QUQFOY_clean_sbu_1, # of connection points: 4
#     Node 24, Type 1, BuildingBlock: GEDQOX_clean_sbu_0, # of connection points: 6
#     Node 25, Type 1, BuildingBlock: GEDQOX_clean_sbu_0, # of connection points: 6
#     Node 26, Type 1, BuildingBlock: GEDQOX_clean_sbu_0, # of connection points: 6
#     Node 27, Type 1, BuildingBlock: GEDQOX_clean_sbu_0, # of connection points: 6
#     Node 28, Type 1, BuildingBlock: GEDQOX_clean_sbu_0, # of connection points: 6
#     Node 29, Type 1, BuildingBlock: GEDQOX_clean_sbu_0, # of connection points: 6
#     Node 30, Type 1, BuildingBlock: GEDQOX_clean_sbu_0, # of connection points: 6
#     Node 31, Type 1, BuildingBlock: GEDQOX_clean_sbu_0, # of connection points: 6
#     Node 32, Type 1, BuildingBlock: GEDQOX_clean_sbu_0, # of connection points: 6
#     Node 33, Type 1, BuildingBlock: GEDQOX_clean_sbu_0, # of connection points: 6
#     Node 34, Type 1, BuildingBlock: GEDQOX_clean_sbu_0, # of connection points: 6
#     Node 35, Type 1, BuildingBlock: GEDQOX_clean_sbu_0, # of connection points: 6
#     Node 36, Type 1, BuildingBlock: GEDQOX_clean_sbu_0, # of connection points: 6
#     Node 37, Type 1, BuildingBlock: GEDQOX_clean_sbu_0, # of connection points: 6
#     Node 38, Type 1, BuildingBlock: GEDQOX_clean_sbu_0, # of connection points: 6
#     Node 39, Type 1, BuildingBlock: GEDQOX_clean_sbu_0, # of connection points: 6
#     Edge 40, Type (0, 1), BuildingBlock: EZIPEK_clean_linker_0, # of connection points: 2
#     Edge 41, Type (0, 1), BuildingBlock: EZIPEK_clean_linker_0, # of connection points: 2
#     Edge 42, Type (0, 1), BuildingBlock: EZIPEK_clean_linker_0, # of connection points: 2
#     Edge 43, Type (0, 1), BuildingBlock: EZIPEK_clean_linker_0, # of connection points: 2
#     Edge 44, Type (0, 1), BuildingBlock: EZIPEK_clean_linker_0, # of connection points: 2
#     Edge 45, Type (0, 1), BuildingBlock: EZIPEK_clean_linker_0, # of connection points: 2
#     Edge 46, Type (0, 1), BuildingBlock: EZIPEK_clean_linker_0, # of connection points: 2
#     Edge 47, Type (0, 1), BuildingBlock: EZIPEK_clean_linker_0, # of connection points: 2
#     Edge 48, Type (0, 1), BuildingBlock: EZIPEK_clean_linker_0, # of connection points: 2
#     Edge 49, Type (0, 1), BuildingBlock: EZIPEK_clean_linker_0, # of connection points: 2
#     Edge 50, Type (0, 1), BuildingBlock: EZIPEK_clean_linker_0, # of connection points: 2
#     Edge 51, Type (0, 1), BuildingBlock: EZIPEK_clean_linker_0, # of connection points: 2
#     Edge 52, Type (0, 1), BuildingBlock: EZIPEK_clean_linker_0, # of connection points: 2
#     Edge 53, Type (0, 1), BuildingBlock: EZIPEK_clean_linker_0, # of connection points: 2
#     Edge 54, Type (0, 1), BuildingBlock: EZIPEK_clean_linker_0, # of connection points: 2
#     Edge 55, Type (0, 1), BuildingBlock: EZIPEK_clean_linker_0, # of connection points: 2
#     Edge 56, Type (0, 1), BuildingBlock: EZIPEK_clean_linker_0, # of connection points: 2
#     Edge 57, Type (0, 1), BuildingBlock: EZIPEK_clean_linker_0, # of connection points: 2
#     Edge 58, Type (0, 1), BuildingBlock: EZIPEK_clean_linker_0, # of connection points: 2
#     Edge 59, Type (0, 1), BuildingBlock: EZIPEK_clean_linker_0, # of connection points: 2
#     Edge 60, Type (0, 1), BuildingBlock: EZIPEK_clean_linker_0, # of connection points: 2
#     Edge 61, Type (0, 1), BuildingBlock: EZIPEK_clean_linker_0, # of connection points: 2
#     Edge 62, Type (0, 1), BuildingBlock: EZIPEK_clean_linker_0, # of connection points: 2
#     Edge 63, Type (0, 1), BuildingBlock: EZIPEK_clean_linker_0, # of connection points: 2
#     Edge 64, Type (0, 1), BuildingBlock: EZIPEK_clean_linker_0, # of connection points: 2
#     Edge 65, Type (0, 1), BuildingBlock: EZIPEK_clean_linker_0, # of connection points: 2
#     Edge 66, Type (0, 1), BuildingBlock: EZIPEK_clean_linker_0, # of connection points: 2
#     Edge 67, Type (0, 1), BuildingBlock: EZIPEK_clean_linker_0, # of connection points: 2
#     Edge 68, Type (0, 1), BuildingBlock: EZIPEK_clean_linker_0, # of connection points: 2
#     Edge 69, Type (0, 1), BuildingBlock: EZIPEK_clean_linker_0, # of connection points: 2
#     Edge 70, Type (0, 1), BuildingBlock: EZIPEK_clean_linker_0, # of connection points: 2
#     Edge 71, Type (0, 1), BuildingBlock: EZIPEK_clean_linker_0, # of connection points: 2
#     Edge 72, Type (0, 1), BuildingBlock: EZIPEK_clean_linker_0, # of connection points: 2
#     Edge 73, Type (0, 1), BuildingBlock: EZIPEK_clean_linker_0, # of connection points: 2
#     Edge 74, Type (0, 1), BuildingBlock: EZIPEK_clean_linker_0, # of connection points: 2
#     Edge 75, Type (0, 1), BuildingBlock: EZIPEK_clean_linker_0, # of connection points: 2
#     Edge 76, Type (0, 1), BuildingBlock: EZIPEK_clean_linker_0, # of connection points: 2
#     Edge 77, Type (0, 1), BuildingBlock: EZIPEK_clean_linker_0, # of connection points: 2
#     Edge 78, Type (0, 1), BuildingBlock: EZIPEK_clean_linker_0, # of connection points: 2
#     Edge 79, Type (0, 1), BuildingBlock: EZIPEK_clean_linker_0, # of connection points: 2
#     Edge 80, Type (0, 1), BuildingBlock: EZIPEK_clean_linker_0, # of connection points: 2
#     Edge 81, Type (0, 1), BuildingBlock: EZIPEK_clean_linker_0, # of connection points: 2
#     Edge 82, Type (0, 1), BuildingBlock: EZIPEK_clean_linker_0, # of connection points: 2
#     Edge 83, Type (0, 1), BuildingBlock: EZIPEK_clean_linker_0, # of connection points: 2
#     Edge 84, Type (0, 1), BuildingBlock: EZIPEK_clean_linker_0, # of connection points: 2
#     Edge 85, Type (0, 1), BuildingBlock: EZIPEK_clean_linker_0, # of connection points: 2
#     Edge 86, Type (0, 1), BuildingBlock: EZIPEK_clean_linker_0, # of connection points: 2
#     Edge 87, Type (0, 1), BuildingBlock: EZIPEK_clean_linker_0, # of connection points: 2
#     Edge 88, Type (0, 1), BuildingBlock: EZIPEK_clean_linker_0, # of connection points: 2
#     Edge 89, Type (0, 1), BuildingBlock: EZIPEK_clean_linker_0, # of connection points: 2
#     Edge 90, Type (0, 1), BuildingBlock: EZIPEK_clean_linker_0, # of connection points: 2
#     Edge 91, Type (0, 1), BuildingBlock: EZIPEK_clean_linker_0, # of connection points: 2
#     Edge 92, Type (0, 1), BuildingBlock: EZIPEK_clean_linker_0, # of connection points: 2
#     Edge 93, Type (0, 1), BuildingBlock: EZIPEK_clean_linker_0, # of connection points: 2
#     Edge 94, Type (0, 1), BuildingBlock: EZIPEK_clean_linker_0, # of connection points: 2
#     Edge 95, Type (0, 1), BuildingBlock: EZIPEK_clean_linker_0, # of connection points: 2
#     Edge 96, Type (0, 1), BuildingBlock: EZIPEK_clean_linker_0, # of connection points: 2
#     Edge 97, Type (0, 1), BuildingBlock: EZIPEK_clean_linker_0, # of connection points: 2
#     Edge 98, Type (0, 1), BuildingBlock: EZIPEK_clean_linker_0, # of connection points: 2
#     Edge 99, Type (0, 1), BuildingBlock: EZIPEK_clean_linker_0, # of connection points: 2
#     Edge 100, Type (0, 1), BuildingBlock: EZIPEK_clean_linker_0, # of connection points: 2
#     Edge 101, Type (0, 1), BuildingBlock: EZIPEK_clean_linker_0, # of connection points: 2
#     Edge 102, Type (0, 1), BuildingBlock: EZIPEK_clean_linker_0, # of connection points: 2
#     Edge 103, Type (0, 1), BuildingBlock: EZIPEK_clean_linker_0, # of connection points: 2
#     Edge 104, Type (0, 1), BuildingBlock: EZIPEK_clean_linker_0, # of connection points: 2
#     Edge 105, Type (0, 1), BuildingBlock: EZIPEK_clean_linker_0, # of connection points: 2
#     Edge 106, Type (0, 1), BuildingBlock: EZIPEK_clean_linker_0, # of connection points: 2
#     Edge 107, Type (0, 1), BuildingBlock: EZIPEK_clean_linker_0, # of connection points: 2
#     Edge 108, Type (0, 1), BuildingBlock: EZIPEK_clean_linker_0, # of connection points: 2
#     Edge 109, Type (0, 1), BuildingBlock: EZIPEK_clean_linker_0, # of connection points: 2
#     Edge 110, Type (0, 1), BuildingBlock: EZIPEK_clean_linker_0, # of connection points: 2
#     Edge 111, Type (0, 1), BuildingBlock: EZIPEK_clean_linker_0, # of connection points: 2
#     Edge 112, Type (0, 1), BuildingBlock: EZIPEK_clean_linker_0, # of connection points: 2
#     Edge 113, Type (0, 1), BuildingBlock: EZIPEK_clean_linker_0, # of connection points: 2
#     Edge 114, Type (0, 1), BuildingBlock: EZIPEK_clean_linker_0, # of connection points: 2
#     Edge 115, Type (0, 1), BuildingBlock: EZIPEK_clean_linker_0, # of connection points: 2
#     Edge 116, Type (0, 1), BuildingBlock: EZIPEK_clean_linker_0, # of connection points: 2
#     Edge 117, Type (0, 1), BuildingBlock: EZIPEK_clean_linker_0, # of connection points: 2
#     Edge 118, Type (0, 1), BuildingBlock: EZIPEK_clean_linker_0, # of connection points: 2
#     Edge 119, Type (0, 1), BuildingBlock: EZIPEK_clean_linker_0, # of connection points: 2
#     Edge 120, Type (0, 1), BuildingBlock: EZIPEK_clean_linker_0, # of connection points: 2
#     Edge 121, Type (0, 1), BuildingBlock: EZIPEK_clean_linker_0, # of connection points: 2
#     Edge 122, Type (0, 1), BuildingBlock: EZIPEK_clean_linker_0, # of connection points: 2
#     Edge 123, Type (0, 1), BuildingBlock: EZIPEK_clean_linker_0, # of connection points: 2
#     Edge 124, Type (0, 1), BuildingBlock: EZIPEK_clean_linker_0, # of connection points: 2
#     Edge 125, Type (0, 1), BuildingBlock: EZIPEK_clean_linker_0, # of connection points: 2
#     Edge 126, Type (0, 1), BuildingBlock: EZIPEK_clean_linker_0, # of connection points: 2
#     Edge 127, Type (0, 1), BuildingBlock: EZIPEK_clean_linker_0, # of connection points: 2
#     Edge 128, Type (0, 1), BuildingBlock: EZIPEK_clean_linker_0, # of connection points: 2
#     Edge 129, Type (0, 1), BuildingBlock: EZIPEK_clean_linker_0, # of connection points: 2
#     Edge 130, Type (0, 1), BuildingBlock: EZIPEK_clean_linker_0, # of connection points: 2
#     Edge 131, Type (0, 1), BuildingBlock: EZIPEK_clean_linker_0, # of connection points: 2
#     Edge 132, Type (0, 1), BuildingBlock: EZIPEK_clean_linker_0, # of connection points: 2
#     Edge 133, Type (0, 1), BuildingBlock: EZIPEK_clean_linker_0, # of connection points: 2
#     Edge 134, Type (0, 1), BuildingBlock: EZIPEK_clean_linker_0, # of connection points: 2
#     Edge 135, Type (0, 1), BuildingBlock: EZIPEK_clean_linker_0, # of connection points: 2
# Relax obj value: 0.349
# Max RMSD: 0.521
# Mean RMSD: 0.211
data_MOF--net-gar--node1-QUQFOY_clean_sbu_1--node2-GEDQOX_clean_sbu_0--edge1-EZIPEK_clean_linker_0
_symmetry_space_group_name_H-M    P1
_symmetry_Int_Tables_number       1
_symmetry_cell_setting            triclinic
loop_
_symmetry_equiv_pos_as_xyz
'x, y, z'
_cell_length_a     46.323502
_cell_length_b     45.285138
_cell_length_c     40.353924
_cell_angle_alpha  100.32349
_cell_angle_beta   98.174807
_cell_angle_gamma 100.81955
loop_
_atom_site_label
_atom_site_type_symbol
_atom_site_fract_x
_atom_site_fract_y
_atom_site_fract_z
_atom_type_partial_charge
O0 O 0.20157 0.33397 0.51295 0.0
Cd1 Cd 0.19423 0.35796 0.47475 0.0
Cd2 Cd 0.18922 0.41068 0.56114 0.0
O3 O 0.21337 0.37975 0.54463 0.0
O4 O 0.1771 0.32765 0.43102 0.0
O5 O 0.22015 0.36186 0.43969 0.0
C6 C 0.19966 0.34035 0.41928 0.0
C7 C 0.1981 0.44936 0.60938 0.0
C8 C 0.20628 0.35094 0.54258 0.0
C9 C 0.15014 0.40461 0.49178 0.0
O10 O 0.15707 0.41633 0.52372 0.0
O11 O 0.16328 0.38528 0.47679 0.0
O12 O 0.21239 0.45229 0.58441 0.0
O13 O 0.18147 0.42263 0.60825 0.0
O14 O 1.00009 0.70929 0.628 0.0
Cd15 Cd 1.02377 0.75242 0.65446 0.0
Cd16 Cd 1.03316 0.7612 0.59418 0.0
O17 O 1.01449 0.71511 0.57959 0.0
O18 O 1.01491 0.75792 0.70179 0.0
O19 O 1.01148 0.7923 0.66964 0.0
C20 C 1.01071 0.78477 0.69896 0.0
C21 C 1.01561 0.79701 0.56659 0.0
C22 C 1.00234 0.69773 0.59753 0.0
C23 C 0.08679 0.76481 0.64429 0.0
O24 O 0.07771 0.77106 0.61573 0.0
O25 O 0.06855 0.75534 0.66264 0.0
O26 O 1.03051 0.7785 0.55235 0.0
O27 O 1.01021 0.79447 0.59662 0.0
O28 O 0.69408 0.87806 0.93904 0.0
Cd29 Cd 0.68555 0.89149 0.989 0.0
Cd30 Cd 0.70422 0.94372 0.95841 0.0
O31 O 0.72953 0.91673 0.93565 0.0
O32 O 0.6988 0.8646 0.01965 0.0
O33 O 0.65173 0.85948 0.99464 0.0
C34 C 0.67107 0.85055 0.01464 0.0
C35 C 0.65774 0.93979 0.92649 0.0
C36 C 0.71458 0.8894 0.92404 0.0
C37 C 0.69548 0.96071 0.02602 0.0
O38 O 0.71354 0.96939 0.007 0.0
O39 O 0.68035 0.93307 0.01821 0.0
O40 O 0.68007 0.96073 0.92416 0.0
O41 O 0.66182 0.92202 0.94745 0.0
O42 O 0.511 0.22926 0.17337 0.0
Cd43 Cd 0.52819 0.2747 0.20134 0.0
Cd44 Cd 0.55821 0.26662 0.11876 0.0
O45 O 0.51891 0.25229 0.13227 0.0
O46 O 0.53447 0.27743 0.25181 0.0
O47 O 0.50396 0.30141 0.22538 0.0
C48 C 0.51772 0.29713 0.25376 0.0
C49 C 0.56837 0.29688 0.08071 0.0
C50 C 0.51743 0.22792 0.14373 0.0
C51 C 0.59221 0.28895 0.18784 0.0
O52 O 0.59217 0.27273 0.15862 0.0
O53 O 0.56946 0.29949 0.19436 0.0
O54 O 0.56773 0.26778 0.07233 0.0
O55 O 0.56055 0.3077 0.10905 0.0
O56 O 0.09149 0.75931 0.25572 0.0
Cd57 Cd 0.09564 0.80238 0.28853 0.0
Cd58 Cd 0.11388 0.82278 0.23391 0.0
O59 O 0.09508 0.7778 0.20926 0.0
O60 O 0.06321 0.79997 0.32055 0.0
O61 O 0.05948 0.82386 0.27851 0.0
C62 C 0.04725 0.8143 0.3027 0.0
C63 C 0.09923 0.86004 0.20532 0.0
C64 C 0.09143 0.75487 0.22354 0.0
C65 C 0.16519 0.82598 0.29181 0.0
O66 O 0.15735 0.82881 0.26114 0.0
O67 O 0.1445 0.81923 0.30951 0.0
O68 O 0.11819 0.84461 0.19514 0.0
O69 O 0.08925 0.85529 0.23262 0.0
O70 O 0.67794 0.85161 0.39649 0.0
Cd71 Cd 0.64842 0.85231 0.43019 0.0
Cd72 Cd 0.60784 0.86785 0.36883 0.0
O73 O 0.65013 0.85793 0.34953 0.0
O74 O 0.67092 0.8418 0.4711 0.0
O75 O 0.6274 0.81339 0.44261 0.0
C76 C 0.6495 0.81825 0.46776 0.0
C77 C 0.55177 0.85446 0.34801 0.0
C78 C 0.67534 0.85381 0.36529 0.0
C79 C 0.62836 0.91367 0.43891 0.0
O80 O 0.61638 0.90823 0.40728 0.0
O81 O 0.64052 0.89418 0.45139 0.0
O82 O 0.57032 0.8712 0.334 0.0
O83 O 0.5649 0.84211 0.37076 0.0
O84 O 0.59601 0.25217 0.74381 0.0
Cd85 Cd 0.60052 0.2951 0.77819 0.0
Cd86 Cd 0.62382 0.31527 0.72384 0.0
O87 O 0.61086 0.26978 0.69983 0.0
O88 O 0.56748 0.28997 0.8097 0.0
O89 O 0.56424 0.31744 0.77101 0.0
C90 C 0.55174 0.3058 0.7939 0.0
C91 C 0.60629 0.35121 0.69557 0.0
C92 C 0.60142 0.24739 0.71328 0.0
C93 C 0.67179 0.32184 0.78541 0.0
O94 O 0.66562 0.32517 0.75472 0.0
O95 O 0.64973 0.31319 0.80082 0.0
O96 O 0.59526 0.34383 0.72137 0.0
O97 O 0.62756 0.33876 0.68643 0.0
O98 O 0.1266 0.29934 0.91015 0.0
Cd99 Cd 0.12437 0.32661 0.87282 0.0
Cd100 Cd 0.10288 0.36309 0.935 0.0
O101 O 0.11648 0.32844 0.95557 0.0
O102 O 0.15342 0.31048 0.84128 0.0
O103 O 0.1668 0.35538 0.87548 0.0
C104 C 0.17486 0.33423 0.85496 0.0
C105 C 0.11434 0.41119 0.97303 0.0
C106 C 0.12441 0.30451 0.94176 0.0
C107 C 0.05681 0.3413 0.86744 0.0
O108 O 0.06356 0.3533 0.89935 0.0
O109 O 0.07713 0.33142 0.85174 0.0
O110 O 0.09329 0.38926 0.97576 0.0
O111 O 0.12906 0.40609 0.94849 0.0
O112 O 0.51341 0.14004 0.2687 0.0
Cd113 Cd 0.48662 0.15825 0.29973 0.0
Cd114 Cd 0.53331 0.13268 0.34842 0.0
O115 O 0.55194 0.13339 0.30406 0.0
O116 O 0.45766 0.17517 0.2704 0.0
O117 O 0.48851 0.20322 0.31693 0.0
C118 C 0.46643 0.20086 0.2924 0.0
C119 C 0.56098 0.12922 0.4013 0.0
C120 C 0.53883 0.13301 0.27384 0.0
C121 C 0.46415 0.10729 0.33278 0.0
O122 O 0.49095 0.10615 0.34368 0.0
O123 O 0.45785 0.12734 0.31656 0.0
O124 O 0.55622 0.10764 0.37437 0.0
O125 O 0.55272 0.15433 0.39771 0.0
O126 O 0.35939 0.16137 0.51877 0.0
Cd127 Cd 0.32908 0.12465 0.4874 0.0
Cd128 Cd 0.30173 0.17564 0.47346 0.0
O129 O 0.33808 0.19934 0.50996 0.0
O130 O 0.34901 0.09246 0.50065 0.0
O131 O 0.34409 0.10108 0.44819 0.0
C132 C 0.35523 0.08715 0.47045 0.0
C133 C 0.29622 0.20256 0.42989 0.0
C134 C 0.35962 0.1898 0.5244 0.0
C135 C 0.26635 0.12505 0.50114 0.0
O136 O 0.26679 0.14955 0.4897 0.0
O137 O 0.28831 0.11191 0.50166 0.0
O138 O 0.28626 0.21008 0.45771 0.0
O139 O 0.30639 0.17773 0.42518 0.0
O140 O 0.24728 0.06253 0.79431 0.0
Cd141 Cd 0.28641 0.06443 0.83017 0.0
Cd142 Cd 0.23794 0.1023 0.87367 0.0
O143 O 0.21438 0.08131 0.82303 0.0
O144 O 0.31052 0.03152 0.80756 0.0
O145 O 0.29235 0.02533 0.85268 0.0
C146 C 0.3063 1.0141 0.82944 0.0
C147 C 0.20844 0.10187 0.92229 0.0
C148 C 0.22198 0.07035 0.79467 0.0
C149 C 0.29847 0.1405 0.85431 0.0
O150 O 0.27484 0.13883 0.86844 0.0
O151 O 0.307 0.11538 0.84196 0.0
O152 O 0.2067 0.12005 0.90114 0.0
O153 O 0.22742 0.08467 0.91718 0.0
O154 O 0.29307 0.92822 0.14521 0.0
Cd155 Cd 0.28002 0.95987 0.1172 0.0
Cd156 Cd 0.3097 0.91176 0.06382 0.0
O157 O 0.3133 0.89683 0.11032 0.0
O158 O 0.26669 0.99136 0.15057 0.0
O159 O 0.23827 0.96625 0.1014 0.0
C160 C 0.24266 0.98778 0.1285 0.0
C161 C 0.31181 0.87959 0.01054 0.0
C162 C 0.3064 0.90596 0.13949 0.0
C163 C 0.33205 0.98288 0.08291 0.0
O164 O 0.3321 0.95608 0.06683 0.0
O165 O 0.31386 0.98793 0.10282 0.0
O166 O 0.3344 0.88847 0.03528 0.0
O167 O 0.28716 0.887 0.01652 0.0
O168 O 0.42348 0.49903 0.24002 0.0
Cd169 Cd 0.42779 0.53922 0.22105 0.0
Cd170 Cd 0.41048 0.4982 0.15867 0.0
O171 O 0.40242 0.46771 0.1902 0.0
O172 O 0.4083 0.57206 0.24457 0.0
O173 O 0.38955 0.54145 0.19399 0.0
C174 C 0.38711 0.56311 0.21802 0.0
C175 C 0.37741 0.49114 0.10744 0.0
C176 C 0.41088 0.4722 0.22239 0.0
C177 C 0.47232 0.53957 0.17391 0.0
O178 O 0.45387 0.51613 0.15535 0.0
O179 O 0.46604 0.55415 0.2011 0.0
O180 O 0.39464 0.4725 0.11219 0.0
O181 O 0.37788 0.51358 0.13211 0.0
O182 O 0.93256 0.25458 0.13271 0.0
Cd183 Cd 0.93381 0.22113 0.08995 0.0
Cd184 Cd 0.89304 0.25019 0.05804 0.0
O185 O 0.90042 0.27756 0.10686 0.0
O186 O 0.96082 0.19565 0.10696 0.0
O187 O 0.96881 0.21847 0.06449 0.0
C188 C 0.97594 0.19969 0.08316 0.0
C189 C 0.8903 0.27024 0.00874 0.0
C190 C 0.91667 0.27483 0.13389 0.0
C191 C 0.87085 0.18465 0.06128 0.0
O192 O 0.86465 0.20816 0.05142 0.0
O193 O 0.89685 0.18598 0.07692 0.0
O194 O 0.8698 0.2706 0.02717 0.0
O195 O 0.91342 0.25999 0.01921 0.0
O196 O 0.18526 0.50621 0.29197 0.0
Cd197 Cd 0.21572 0.50519 0.33517 0.0
Cd198 Cd 0.1806 0.54547 0.36274 0.0
O199 O 0.15333 0.52995 0.31507 0.0
O200 O 0.24213 0.47888 0.31545 0.0
O201 O 0.21648 0.4661 0.35425 0.0
C202 C 0.23543 0.46007 0.33492 0.0
C203 C 0.16164 0.54883 0.41444 0.0
C204 C 0.16122 0.51613 0.28856 0.0
C205 C 0.24352 0.57217 0.35555 0.0
O206 O 0.21806 0.5772 0.35976 0.0
O207 O 0.24821 0.54514 0.35218 0.0
O208 O 0.15804 0.56771 0.39456 0.0
O209 O 0.17566 0.52756 0.40487 0.0
O210 O 0.91422 1.00458 0.73376 0.0
Cd211 Cd 0.92264 0.04766 0.7211 0.0
Cd212 Cd 0.90861 1.01216 0.65509 0.0
O213 O 0.90216 0.97677 0.6808 0.0
O214 O 0.90311 0.07953 0.74591 0.0
O215 O 0.88835 0.0552 0.69166 0.0
C216 C 0.88476 0.07473 0.7172 0.0
C217 C 0.8757 1.0057 0.60386 0.0
C218 C 0.90575 0.97853 0.71293 0.0
C219 C 0.97055 0.05429 0.67914 0.0
O220 O 0.95176 0.03458 0.65586 0.0
O221 O 0.9638 0.06383 0.7081 0.0
O222 O 0.89625 0.9903 0.60663 0.0
O223 O 0.8733 0.02506 0.6302 0.0
O224 O 0.98641 0.10027 0.26265 0.0
Cd225 Cd 0.95073 0.10114 0.29491 0.0
Cd226 Cd 1.00229 0.07121 0.33298 0.0
O227 O 1.02188 0.0816 0.29005 0.0
O228 O 0.92237 0.13116 0.27858 0.0
O229 O 0.95171 0.14549 0.32753 0.0
C230 C 0.93251 0.15291 0.30565 0.0
C231 C 1.02955 0.0835 0.39101 0.0
C232 C 1.01204 0.09229 0.26428 0.0
C233 C 0.93759 0.02994 0.31332 0.0
O234 O 0.96559 0.03346 0.32404 0.0
O235 O 0.92775 0.05292 0.30319 0.0
O236 O 1.03352 0.06143 0.36829 0.0
O237 O 1.01135 0.0998 0.38079 0.0
O238 O 0.44487 0.76144 0.63878 0.0
Cd239 Cd 0.43718 0.72616 0.59535 0.0
Cd240 Cd 0.40563 0.76459 0.56562 0.0
O241 O 0.41547 0.78898 0.61641 0.0
O242 O 0.45764 0.69361 0.60853 0.0
O243 O 0.47003 0.71723 0.56826 0.0
C244 C 0.47394 0.69654 0.58559 0.0
C245 C 0.40216 0.78543 0.5167 0.0
C246 C 0.43063 0.78303 0.64241 0.0
C247 C 0.37027 0.70501 0.57199 0.0
O248 O 0.37065 0.72821 0.55859 0.0
O249 O 0.39415 0.70024 0.58756 0.0
O250 O 0.38498 0.78996 0.5386 0.0
O251 O 0.42345 0.77161 0.524 0.0
O252 O 0.48199 0.59512 0.76138 0.0
Cd253 Cd 0.44656 0.59536 0.7939 0.0
Cd254 Cd 0.49856 0.56915 0.83412 0.0
O255 O 0.51821 0.57974 0.79173 0.0
O256 O 0.41745 0.62462 0.77763 0.0
O257 O 0.44651 0.63909 0.82687 0.0
C258 C 0.42707 0.64616 0.80496 0.0
C259 C 0.52672 0.58167 0.89188 0.0
C260 C 0.50828 0.58868 0.76473 0.0
C261 C 0.43569 0.52456 0.81238 0.0
O262 O 0.46368 0.52955 0.82413 0.0
O263 O 0.42484 0.54671 0.80159 0.0
O264 O 0.53132 0.56061 0.8684 0.0
O265 O 0.5071 0.59684 0.88252 0.0
O266 O 0.69847 1.02209 0.77747 0.0
Cd267 Cd 0.72463 1.01685 0.82268 0.0
Cd268 Cd 0.68738 0.05763 0.84557 0.0
O269 O 0.66069 0.03626 0.79904 0.0
O270 O 0.75428 0.99375 0.80563 0.0
O271 O 0.72466 0.97648 0.83903 0.0
C272 C 0.74662 0.97355 0.82323 0.0
C273 C 0.66694 0.07137 0.8944 0.0
C274 C 0.67285 0.02897 0.77329 0.0
C275 C 0.75173 0.08197 0.84538 0.0
O276 O 0.72559 0.08703 0.84096 0.0
O277 O 0.75562 0.05568 0.84878 0.0
O278 O 0.66456 0.08568 0.86965 0.0
O279 O 0.68031 0.04869 0.89131 0.0
O280 O 0.87168 0.69056 0.02933 0.0
Cd281 Cd 0.83962 0.65221 1.00327 0.0
Cd282 Cd 0.81191 0.70562 0.98753 0.0
O283 O 0.84957 0.72848 0.02221 0.0
O284 O 0.85732 0.62196 0.02452 0.0
O285 O 0.85312 0.62123 0.96919 0.0
C286 C 0.86244 0.6103 0.99513 0.0
C287 C 0.80632 0.7319 0.94334 0.0
C288 C 0.87204 0.71907 0.03456 0.0
C289 C 0.776 0.65604 0.01614 0.0
O290 O 0.77678 0.68055 1.00463 0.0
O291 O 0.79786 0.6427 0.01672 0.0
O292 O 0.79749 0.74052 0.97168 0.0
O293 O 0.8154 0.70641 0.93866 0.0
O294 O 1.01996 0.64892 0.7878 0.0
Cd295 Cd 0.98842 0.66422 0.8143 0.0
Cd296 Cd 1.0296 0.63616 0.87046 0.0
O297 O 0.0479 0.63055 0.82576 0.0
O298 O 0.96094 0.67825 0.78007 0.0
O299 O 0.98495 0.70834 0.8293 0.0
C300 C 0.96542 0.70398 0.80165 0.0
C301 C 0.05596 0.62877 0.92299 0.0
C302 C 1.04108 0.63552 0.79572 0.0
C303 C 0.96071 0.61302 0.84715 0.0
O304 O 0.98585 0.61294 0.86438 0.0
O305 O 0.95783 0.63093 0.8267 0.0
O306 O 0.04915 0.60807 0.89518 0.0
O307 O 0.05018 0.65519 0.92086 0.0
O308 O 0.8001 0.43428 0.64868 0.0
Cd309 Cd 0.78404 0.46432 0.62038 0.0
Cd310 Cd 0.8156 0.41665 0.56593 0.0
O311 O 0.82078 0.40361 0.61352 0.0
O312 O 0.76917 0.49499 0.65274 0.0
O313 O 0.74068 0.46592 0.60527 0.0
C314 C 0.74425 0.48828 0.63139 0.0
C315 C 0.82674 0.38702 0.5161 0.0
C316 C 0.8142 0.41268 0.64286 0.0
C317 C 0.82983 0.48908 0.57945 0.0
O318 O 0.83073 0.46204 0.56499 0.0
O319 O 0.81444 0.49377 0.60262 0.0
O320 O 0.84686 0.39982 0.5428 0.0
O321 O 0.79951 0.38845 0.5184 0.0
O322 O 0.74778 0.56639 0.29817 0.0
Cd323 Cd 0.78779 0.57026 0.33339 0.0
Cd324 Cd 0.73659 0.60359 0.37795 0.0
O325 O 0.7136 0.58235 0.32689 0.0
O326 O 0.81304 0.53882 0.30992 0.0
O327 O 0.79631 0.5316 0.35558 0.0
C328 C 0.81018 0.52119 0.33182 0.0
C329 C 0.70706 0.60212 0.42668 0.0
C330 C 0.72175 0.57244 0.29849 0.0
C331 C 0.79514 0.64586 0.3583 0.0
O332 O 0.77205 0.64171 0.37327 0.0
O333 O 0.80533 0.62207 0.34511 0.0
O334 O 0.70459 0.62004 0.40534 0.0
O335 O 0.72663 0.58565 0.42158 0.0
Nd336 Nd 0.13041 0.12181 0.10341 0.0
Nd337 Nd 0.09314 0.06739 0.08329 0.0
C338 C 0.16512 0.17747 0.11792 0.0
C339 C 0.16628 0.19901 0.09387 0.0
C340 C 0.15509 0.22585 0.10091 0.0
C341 C 0.15009 0.24284 0.07558 0.0
C342 C 0.15619 0.2334 0.04266 0.0
C343 C 0.16859 0.20742 0.03597 0.0
C344 C 0.17365 0.19046 0.06127 0.0
C345 C 0.13309 0.09998 0.03378 0.0
C346 C 0.06443 0.12498 0.0737 0.0
C347 C 0.06114 1.01085 0.05817 0.0
C348 C 0.06086 0.98435 0.07543 0.0
C349 C 0.08419 0.96837 0.07491 0.0
C350 C 0.08714 0.94733 0.096 0.0
C351 C 0.06684 0.94169 0.11799 0.0
C352 C 1.04269 0.95637 0.11748 0.0
C353 C 1.03972 0.97751 0.09639 0.0
C354 C 0.08794 0.08813 0.15283 0.0
C355 C 0.15752 0.06616 0.12287 0.0
O356 O 0.13999 0.17142 0.1289 0.0
O357 O 0.17532 0.15269 0.10971 0.0
O358 O 0.12622 0.12555 0.04604 0.0
O359 O 0.1328 0.08444 0.05721 0.0
O360 O 0.0876 0.13899 0.0973 0.0
O361 O 0.06312 0.09643 0.05801 0.0
O362 O 0.08595 1.02154 0.04848 0.0
O363 O 0.04977 0.03303 0.07226 0.0
O364 O 0.09133 0.06114 0.13915 0.0
O365 O 0.09088 0.10474 0.13036 0.0
O366 O 0.13536 0.05047 0.09867 0.0
O367 O 0.15808 0.09529 0.1353 0.0
H368 H 0.14889 0.23289 0.12553 0.0
H369 H 0.14054 0.26284 0.08131 0.0
H370 H 0.17348 0.1997 0.01079 0.0
H371 H 0.18204 0.16981 0.05464 0.0
H372 H 0.10094 0.97296 0.05921 0.0
H373 H 0.10578 0.93602 0.09584 0.0
H374 H 1.02666 0.95209 0.1341 0.0
H375 H 1.02151 0.98936 0.09748 0.0
Nd376 Nd 0.36392 0.86608 0.34027 0.0
Nd377 Nd 0.34909 0.80758 0.30489 0.0
C378 C 0.36893 0.91946 0.38285 0.0
C379 C 0.36852 0.95097 0.37977 0.0
C380 C 0.38824 0.97493 0.40395 0.0
C381 C 0.39612 1.00372 0.39612 0.0
C382 C 0.38408 1.00868 0.36427 0.0
C383 C 0.36146 0.98591 0.34193 0.0
C384 C 0.35387 0.9569 0.34954 0.0
C385 C 0.41743 0.84969 0.32383 0.0
C386 C 0.34812 0.8603 0.25995 0.0
C387 C 0.34179 0.7506 0.26965 0.0
C388 C 0.3348 0.72132 0.28114 0.0
C389 C 0.35074 0.71722 0.31181 0.0
C390 C 0.34032 0.69209 0.32593 0.0
C391 C 0.31356 0.67107 0.30994 0.0
C392 C 0.29849 0.67432 0.2785 0.0
C393 C 0.30904 0.69923 0.26421 0.0
C394 C 0.29637 0.82504 0.32224 0.0
C395 C 0.36525 0.81419 0.38529 0.0
O396 O 0.34389 0.89906 0.37235 0.0
O397 O 0.39151 0.90955 0.37272 0.0
O398 O 0.40872 0.87482 0.32031 0.0
O399 O 0.39639 0.83299 0.33414 0.0
O400 O 0.34839 0.87854 0.28925 0.0
O401 O 0.35343 0.83264 0.25974 0.0
O402 O 0.36803 0.76853 0.28222 0.0
O403 O 0.32066 0.76581 0.26941 0.0
O404 O 0.3051 0.80032 0.32739 0.0
O405 O 0.31691 0.84087 0.31057 0.0
O406 O 0.36416 0.79549 0.35623 0.0
O407 O 0.36078 0.84186 0.38537 0.0
H408 H 0.39982 0.97058 0.42727 0.0
H409 H 0.41391 1.02102 0.41322 0.0
H410 H 0.35226 0.98948 0.31711 0.0
H411 H 0.33876 0.9385 0.33048 0.0
H412 H 0.37053 0.73405 0.32565 0.0
H413 H 0.35242 0.6897 0.34998 0.0
H414 H 0.27802 0.65806 0.26553 0.0
H415 H 0.2963 0.702 0.24072 0.0
Nd416 Nd 0.64881 0.09063 0.58828 0.0
Nd417 Nd 0.58808 0.06498 0.58239 0.0
C418 C 0.70623 0.11106 0.58779 0.0
C419 C 0.73409 0.11785 0.61311 0.0
C420 C 0.76012 0.11206 0.60179 0.0
C421 C 0.785 0.11109 0.62524 0.0
C422 C 0.78423 0.11593 0.66039 0.0
C423 C 0.75901 0.12397 0.67206 0.0
C424 C 0.73393 0.12468 0.64849 0.0
C425 C 0.63892 0.06726 0.64598 0.0
C426 C 0.62394 0.0234 0.53741 0.0
C427 C 0.53232 0.03397 0.57575 0.0
C428 C 0.50369 0.03499 0.55483 0.0
C429 C 0.48767 0.05729 0.56554 0.0
C430 C 0.4623 0.05997 0.54409 0.0
C431 C 0.45244 0.04039 0.51167 0.0
C432 C 0.46777 1.01754 0.50115 0.0
C433 C 0.4931 1.01471 0.52269 0.0
C434 C 0.59618 0.10358 0.53602 0.0
C435 C 0.61114 0.13246 0.62783 0.0
O436 O 0.69278 0.08209 0.57964 0.0
O437 O 0.68759 0.12931 0.59168 0.0
O438 O 0.65598 0.09313 0.64607 0.0
O439 O 0.62684 0.05386 0.61559 0.0
O440 O 0.64601 0.04789 0.546 0.0
O441 O 0.59965 0.02313 0.55063 0.0
O442 O 0.54481 0.05732 0.60104 0.0
O443 O 0.55173 0.02439 0.55857 0.0
O444 O 0.57576 0.10233 0.55467 0.0
O445 O 0.61207 0.08485 0.54254 0.0
O446 O 0.59483 0.10544 0.62834 0.0
O447 O 0.63078 0.1338 0.60712 0.0
H448 H 0.76056 0.10641 0.57463 0.0
H449 H 0.80429 0.1049 0.61581 0.0
H450 H 0.75806 0.12774 0.69912 0.0
H451 H 0.71394 0.12888 0.65776 0.0
H452 H 0.49512 0.07319 0.5901 0.0
H453 H 0.45067 0.0778 0.55247 0.0
H454 H 0.46045 1.00236 0.47612 0.0
H455 H 0.50487 0.99718 0.51378 0.0
Nd456 Nd 0.37631 0.34011 0.85492 0.0
Nd457 Nd 0.35592 0.32094 0.79664 0.0
C458 C 0.38684 0.3583 0.92236 0.0
C459 C 0.37908 0.3841 0.94362 0.0
C460 C 0.38503 0.38834 0.97922 0.0
C461 C 0.37611 0.4122 0.99918 0.0
C462 C 0.36087 0.43171 0.98367 0.0
C463 C 0.35477 0.42733 0.94796 0.0
C464 C 0.36429 0.40383 0.92804 0.0
C465 C 0.38735 0.3932 0.82487 0.0
C466 C 0.30291 0.33605 0.83385 0.0
C467 C 0.34571 0.30859 0.72877 0.0
C468 C 0.35842 0.29386 0.70068 0.0
C469 C 0.33891 0.2743 0.67227 0.0
C470 C 0.35017 0.26035 0.64484 0.0
C471 C 0.38106 0.26584 0.64546 0.0
C472 C 0.40077 0.2853 0.67385 0.0
C473 C 0.38948 0.29923 0.70149 0.0
C474 C 0.34304 0.2684 0.82726 0.0
C475 C 0.42766 0.31948 0.81752 0.0
O476 O 0.36403 0.33702 0.9054 0.0
O477 O 0.4064 0.36563 0.90343 0.0
O478 O 0.40698 0.38314 0.84322 0.0
O479 O 0.36252 0.37329 0.82001 0.0
O480 O 0.32453 0.33545 0.85887 0.0
O481 O 0.31091 0.33511 0.80384 0.0
O482 O 0.3617 0.33445 0.74761 0.0
O483 O 0.33273 0.29067 0.74667 0.0
O484 O 0.32434 0.27789 0.8068 0.0
O485 O 0.36828 0.28783 0.83271 0.0
O486 O 0.40694 0.32154 0.79244 0.0
O487 O 0.41967 0.32176 0.8477 0.0
H488 H 0.39635 0.37319 0.99148 0.0
H489 H 0.38099 0.41543 0.02683 0.0
H490 H 0.34298 0.44214 0.93568 0.0
H491 H 0.35981 0.40062 0.90045 0.0
H492 H 0.31495 0.26995 0.67124 0.0
H493 H 0.33476 0.24535 0.62294 0.0
H494 H 0.42467 0.2897 0.6745 0.0
H495 H 0.40496 0.31429 0.72323 0.0
Nd496 Nd 0.12653 0.12244 0.61108 0.0
Nd497 Nd 0.11751 0.04817 0.58177 0.0
C498 C 0.12136 0.17814 0.63854 0.0
C499 C 0.13107 0.20804 0.62954 0.0
C500 C 0.13554 0.23556 0.65394 0.0
C501 C 0.14709 0.26378 0.64589 0.0
C502 C 0.15436 0.26458 0.61339 0.0
C503 C 0.14954 0.23708 0.58896 0.0
C504 C 0.13809 0.20901 0.59699 0.0
C505 C 0.17079 0.11001 0.57475 0.0
C506 C 0.08857 0.09065 0.5319 0.0
C507 C 0.12084 0.993 0.55072 0.0
C508 C 0.09915 0.96339 0.54268 0.0
C509 C 0.10852 0.93716 0.54978 0.0
C510 C 0.08752 0.91 0.5473 0.0
C511 C 0.05694 0.90878 0.53763 0.0
C512 C 0.04756 0.93449 0.52887 0.0
C513 C 0.06854 0.96177 0.53167 0.0
C514 C 0.07281 0.0611 0.61716 0.0
C515 C 0.15494 0.07891 0.66058 0.0
O516 O 0.09987 0.15828 0.61634 0.0
O517 O 0.14312 0.16579 0.65003 0.0
O518 O 0.16936 0.13756 0.58919 0.0
O519 O 0.14958 0.0911 0.58062 0.0
O520 O 0.09681 0.11553 0.55726 0.0
O521 O 0.09439 0.06361 0.5352 0.0
O522 O 0.13134 1.00413 0.58339 0.0
O523 O 0.11419 1.01388 0.5341 0.0
O524 O 0.07392 0.03335 0.60287 0.0
O525 O 0.09437 0.07951 0.61136 0.0
O526 O 0.14985 0.05586 0.63347 0.0
O527 O 0.14582 0.10488 0.65864 0.0
H528 H 0.13054 0.23517 0.6793 0.0
H529 H 0.15068 0.28486 0.66498 0.0
H530 H 0.15504 0.23734 0.56378 0.0
H531 H 0.13515 0.18798 0.57795 0.0
H532 H 0.13195 0.93804 0.55854 0.0
H533 H 0.09502 0.89022 0.55403 0.0
H534 H 1.02401 0.93378 0.5213 0.0
H535 H 0.06072 0.98185 0.52644 0.0
Nd536 Nd 0.39121 0.84482 0.84623 0.0
Nd537 Nd 0.34173 0.81545 0.80227 0.0
C538 C 0.44097 0.88448 0.87741 0.0
C539 C 0.47293 0.89184 0.87707 0.0
C540 C 0.48383 0.89035 0.84614 0.0
C541 C 0.51438 0.89962 0.84671 0.0
C542 C 0.5341 0.90995 0.87817 0.0
C543 C 0.5232 0.91128 0.90893 0.0
C544 C 0.49273 0.90233 0.90838 0.0
C545 C 0.34678 0.82968 0.88385 0.0
C546 C 0.38844 0.77044 0.82443 0.0
C547 C 0.29285 0.77699 0.76555 0.0
C548 C 0.26239 0.77436 0.74812 0.0
C549 C 0.24247 0.78987 0.7632 0.0
C550 C 0.21417 0.78802 0.7445 0.0
C551 C 0.20593 0.77099 0.71062 0.0
C552 C 0.22592 0.75561 0.69565 0.0
C553 C 0.25392 0.75712 0.71442 0.0
C554 C 0.38698 0.83011 0.76576 0.0
C555 C 0.34441 0.88987 0.82189 0.0
O556 O 0.42349 0.88817 0.85079 0.0
O557 O 0.43052 0.85998 0.88863 0.0
O558 O 0.37374 0.82542 0.89012 0.0
O559 O 0.34374 0.84046 0.857 0.0
O560 O 0.4075 0.79761 0.83506 0.0
O561 O 0.35994 0.77165 0.81541 0.0
O562 O 0.29872 0.7824 0.79902 0.0
O563 O 0.3135 0.79212 0.7525 0.0
O564 O 0.36105 0.83698 0.76028 0.0
O565 O 0.38938 0.81923 0.79249 0.0
O566 O 0.32603 0.86294 0.80733 0.0
O567 O 0.37183 0.88867 0.83605 0.0
H568 H 0.46878 0.88232 0.82167 0.0
H569 H 0.5227 0.89844 0.82285 0.0
H570 H 0.53836 0.91919 0.93336 0.0
H571 H 0.48458 0.90381 0.93237 0.0
H572 H 0.24885 0.80358 0.78907 0.0
H573 H 0.19881 0.80001 0.75622 0.0
H574 H 0.21977 0.74241 0.66952 0.0
H575 H 0.26923 0.74523 0.70244 0.0
Nd576 Nd 0.58237 0.0753 0.06823 0.0
Nd577 Nd 0.63639 0.11826 0.1046 0.0
C578 C 0.52815 0.04462 0.03854 0.0
C579 C 0.49769 0.04409 0.04462 0.0
C580 C 0.4882 0.07145 0.05532 0.0
C581 C 0.45925 0.07021 0.06188 0.0
C582 C 0.43998 0.04163 0.05864 0.0
C583 C 0.44938 1.01442 0.0476 0.0
C584 C 0.47804 1.01565 0.0405 0.0
C585 C 0.63158 0.04852 0.06926 0.0
C586 C 0.58715 0.09695 0.15106 0.0
C587 C 0.68923 0.14608 0.14241 0.0
C588 C 0.72008 0.1457 0.13778 0.0
C589 C 0.72976 0.11788 0.13173 0.0
C590 C 0.75564 0.11655 0.1181 0.0
C591 C 0.77266 0.14324 0.11174 0.0
C592 C 0.76478 0.17158 0.12133 0.0
C593 C 0.73856 0.17279 0.13416 0.0
C594 C 0.59087 0.14778 0.08721 0.0
C595 C 0.62589 0.10242 0.02292 0.0
O596 O 0.54174 0.06932 0.02978 0.0
O597 O 0.54537 0.03447 0.0605 0.0
O598 O 0.60987 0.04292 0.04361 0.0
O599 O 0.62616 0.06633 0.0943 0.0
O600 O 0.57126 0.07833 0.12269 0.0
O601 O 0.61284 0.11524 0.15083 0.0
O602 O 0.67322 0.12075 0.14726 0.0
O603 O 0.67435 0.15864 0.12091 0.0
O604 O 0.61819 0.15663 0.08299 0.0
O605 O 0.58864 0.1235 0.09836 0.0
O606 O 0.64634 0.10566 0.05022 0.0
O607 O 0.59793 0.1 0.02675 0.0
H608 H 0.50319 0.09367 0.05899 0.0
H609 H 0.45216 0.09135 0.07033 0.0
H610 H 0.43459 0.9922 0.0449 0.0
H611 H 0.48504 0.99439 0.0323 0.0
H612 H 0.71629 0.09673 0.13512 0.0
H613 H 0.76158 0.09455 0.111 0.0
H614 H 0.77791 0.19244 0.11676 0.0
H615 H 0.73173 0.19454 0.13908 0.0
Nd616 Nd 0.32855 0.31032 0.28128 0.0
Nd617 Nd 0.36928 0.34678 0.34238 0.0
C618 C 0.28394 0.29011 0.2288 0.0
C619 C 0.25288 0.29243 0.23241 0.0
C620 C 0.24642 0.32179 0.24039 0.0
C621 C 0.2279 0.3276 0.26419 0.0
C622 C 0.21526 0.30397 0.27935 0.0
C623 C 0.21591 0.2735 0.26513 0.0
C624 C 0.23445 0.26769 0.24134 0.0
C625 C 0.32488 0.28114 0.33514 0.0
C626 C 0.30594 0.36612 0.32822 0.0
C627 C 0.40845 0.37706 0.39704 0.0
C628 C 0.44091 0.38144 0.39666 0.0
C629 C 0.45671 0.36143 0.41003 0.0
C630 C 0.48154 0.35442 0.39692 0.0
C631 C 0.49208 0.36798 0.3706 0.0
C632 C 0.4778 0.39079 0.36041 0.0
C633 C 0.45312 0.3978 0.37367 0.0
C634 C 0.38199 0.36593 0.2834 0.0
C635 C 0.39014 0.28994 0.29855 0.0
O636 O 0.30344 0.31589 0.23205 0.0
O637 O 0.29478 0.27194 0.24641 0.0
O638 O 0.32537 0.26783 0.30421 0.0
O639 O 0.32708 0.30995 0.33797 0.0
O640 O 0.29944 0.34298 0.30151 0.0
O641 O 0.33132 0.37193 0.35 0.0
O642 O 0.39468 0.34855 0.39404 0.0
O643 O 0.39353 0.39108 0.37728 0.0
O644 O 0.40154 0.36049 0.30633 0.0
O645 O 0.35651 0.35832 0.29064 0.0
O646 O 0.39005 0.30492 0.32966 0.0
O647 O 0.37167 0.29367 0.27212 0.0
H648 H 0.25913 0.34117 0.23264 0.0
H649 H 0.22667 0.3511 0.274 0.0
H650 H 0.20573 0.25483 0.27603 0.0
H651 H 0.23813 0.2446 0.23473 0.0
H652 H 0.44781 0.34835 0.42774 0.0
H653 H 0.49008 0.33626 0.40589 0.0
H654 H 0.48329 0.40142 0.33956 0.0
H655 H 0.44161 0.41347 0.36263 0.0
Nd656 Nd 0.62627 0.6189 0.11162 0.0
Nd657 Nd 0.62631 0.55675 0.08067 0.0
C658 C 0.61602 0.67432 0.13037 0.0
C659 C 0.62233 0.70055 0.11381 0.0
C660 C 0.61003 0.72635 0.12197 0.0
C661 C 0.61657 0.75112 0.10586 0.0
C662 C 0.63564 0.75029 0.08168 0.0
C663 C 0.64765 0.7243 0.07339 0.0
C664 C 0.6409 0.69955 0.08917 0.0
C665 C 0.67608 0.61608 0.08185 0.0
C666 C 0.5924 0.59201 0.03091 0.0
C667 C 0.63906 0.5046 0.05215 0.0
C668 C 0.63514 0.47244 0.05472 0.0
C669 C 0.62111 0.46204 0.08032 0.0
C670 C 0.61263 0.43056 0.07891 0.0
C671 C 0.61802 0.40934 0.05186 0.0
C672 C 0.63295 0.41976 0.0269 0.0
C673 C 0.64148 0.45127 0.02835 0.0
C674 C 0.57631 0.56037 0.11015 0.0
C675 C 0.65652 0.58059 0.1632 0.0
O676 O 0.59532 0.65095 0.11258 0.0
O677 O 0.63965 0.66593 0.14393 0.0
O678 O 0.67632 0.63324 0.11111 0.0
O679 O 0.64992 0.60102 0.0689 0.0
O680 O 0.59225 0.61088 0.05998 0.0
O681 O 0.60884 0.57137 0.03133 0.0
O682 O 0.65779 0.52524 0.07647 0.0
O683 O 0.61425 0.51301 0.04279 0.0
O684 O 0.57626 0.54124 0.08219 0.0
O685 O 0.60245 0.57518 0.12318 0.0
O686 O 0.65453 0.56002 0.13461 0.0
O687 O 0.6442 0.60458 0.16168 0.0
H688 H 0.5955 0.72735 0.14076 0.0
H689 H 0.60704 0.77102 0.1124 0.0
H690 H 0.66227 0.72322 0.0547 0.0
H691 H 0.65033 0.67963 0.08228 0.0
H692 H 0.61569 0.47818 0.10051 0.0
H693 H 0.60108 0.42268 0.09832 0.0
H694 H 0.63717 0.40354 1.00591 0.0
H695 H 0.65191 0.45909 0.00815 0.0
Nd696 Nd 0.90305 0.35468 0.34073 0.0
Nd697 Nd 0.84731 0.3235 0.30827 0.0
C698 C 0.95539 0.39382 0.35961 0.0
C699 C 0.98779 0.39777 0.36523 0.0
C700 C 1.00085 0.37261 0.368 0.0
C701 C 1.03052 0.37761 0.38422 0.0
C702 C 0.04714 0.40773 0.39767 0.0
C703 C 1.035 0.43279 0.39169 0.0
C704 C 1.00532 0.42777 0.37546 0.0
C705 C 0.8674 0.34431 0.38878 0.0
C706 C 0.89671 0.27886 0.32456 0.0
C707 C 0.79337 0.28771 0.289 0.0
C708 C 0.76332 0.29318 0.2838 0.0
C709 C 0.75856 0.32298 0.29367 0.0
C710 C 0.73078 0.32926 0.28309 0.0
C711 C 0.70784 0.30571 0.26262 0.0
C712 C 0.71229 0.2757 0.25404 0.0
C713 C 0.74 0.26947 0.26453 0.0
C714 C 0.88367 0.33176 0.2603 0.0
C715 C 0.85252 0.39877 0.32278 0.0
O716 O 0.94051 0.38707 0.32819 0.0
O717 O 0.94195 0.37918 0.38016 0.0
O718 O 0.89397 0.33869 0.39003 0.0
O719 O 0.85995 0.3535 0.36161 0.0
O720 O 0.9165 0.30573 0.33198 0.0
O721 O 0.86797 0.28029 0.31859 0.0
O722 O 0.80784 0.29439 0.32057 0.0
O723 O 0.80956 0.29753 0.26766 0.0
O724 O 0.85733 0.33797 0.25849 0.0
O725 O 0.89069 0.3238 0.28826 0.0
O726 O 0.83327 0.37176 0.31272 0.0
O727 O 0.8811 0.39782 0.3324 0.0
H728 H 0.98745 0.34933 0.36042 0.0
H729 H 1.0397 0.35811 0.3889 0.0
H730 H 0.04757 0.45612 0.4022 0.0
H731 H 0.99535 0.44739 0.37369 0.0
H732 H 0.77659 0.34153 0.30836 0.0
H733 H 0.72741 0.35245 0.28993 0.0
H734 H 0.69454 0.25735 0.23831 0.0
H735 H 0.74358 0.24649 0.25646 0.0
Nd736 Nd 0.0791 0.54646 0.59861 0.0
Nd737 Nd 0.12315 0.60195 0.62182 0.0
C738 C 1.02775 0.50588 0.58204 0.0
C739 C 0.99764 0.51134 0.57484 0.0
C740 C 0.99377 0.54022 0.56915 0.0
C741 C 0.96541 0.54683 0.56567 0.0
C742 C 0.94078 0.52457 0.56798 0.0
C743 C 0.94457 0.49547 0.57277 0.0
C744 C 0.97292 0.4889 0.57628 0.0
C745 C 0.13407 0.53365 0.61757 0.0
C746 C 0.08918 0.58381 0.67967 0.0
C747 C 0.17018 0.64773 0.63338 0.0
C748 C 0.19923 0.65151 0.62218 0.0
C749 C 0.2202 0.63443 0.63204 0.0
C750 C 0.24759 0.63828 0.62105 0.0
C751 C 0.25441 0.65942 0.60041 0.0
C752 C 0.23338 0.67601 0.58993 0.0
C753 C 0.20593 0.67207 0.60074 0.0
C754 C 0.0661 0.61197 0.60564 0.0
C755 C 0.118 0.5646 0.54419 0.0
O756 O 1.04462 0.51207 0.55985 0.0
O757 O 1.04157 0.51676 0.61359 0.0
O758 O 0.11366 0.51695 0.59262 0.0
O759 O 0.12444 0.55515 0.63368 0.0
O760 O 0.07013 0.5662 0.65267 0.0
O761 O 0.11478 0.59898 0.67508 0.0
O762 O 0.16553 0.62919 0.65438 0.0
O763 O 0.14693 0.64467 0.60953 0.0
O764 O 0.08534 0.62691 0.6326 0.0
O765 O 0.07724 0.59279 0.58783 0.0
O766 O 0.13705 0.57974 0.57208 0.0
O767 O 0.09022 0.55351 0.54652 0.0
H768 H 1.01281 0.55781 0.56816 0.0
H769 H 0.96275 0.56937 0.56204 0.0
H770 H 0.9256 0.4781 0.57456 0.0
H771 H 0.97565 0.46665 0.58091 0.0
H772 H 0.21574 0.61852 0.6487 0.0
H773 H 0.26396 0.62584 0.62985 0.0
H774 H 0.2387 0.69283 0.57446 0.0
H775 H 0.19012 0.68544 0.59284 0.0
Nd776 Nd 0.86969 0.84758 0.35771 0.0
Nd777 Nd 0.85093 0.82648 0.29872 0.0
C778 C 0.87564 0.86405 0.42494 0.0
C779 C 0.86509 0.88826 0.44561 0.0
C780 C 0.87402 0.8955 0.48115 0.0
C781 C 0.8652 0.91981 0.50049 0.0
C782 C 0.84727 0.93691 0.48445 0.0
C783 C 0.83753 0.92904 0.44897 0.0
C784 C 0.84672 0.90498 0.4296 0.0
C785 C 0.88551 0.8997 0.32759 0.0
C786 C 0.79645 0.84444 0.33232 0.0
C787 C 0.84094 0.80968 0.23092 0.0
C788 C 0.85771 0.80609 0.20303 0.0
C789 C 0.8427 0.78782 0.17141 0.0
C790 C 0.85849 0.78079 0.14535 0.0
C791 C 0.88952 0.79187 0.15063 0.0
C792 C 0.90457 0.81121 0.18183 0.0
C793 C 0.88863 0.81833 0.20807 0.0
C794 C 0.83648 0.7759 0.3319 0.0
C795 C 0.92264 0.82819 0.32279 0.0
O796 O 0.8547 0.84153 0.40624 0.0
O797 O 0.8962 0.87361 0.40806 0.0
O798 O 0.90268 0.89047 0.34988 0.0
O799 O 0.86025 0.87987 0.31983 0.0
O800 O 0.81854 0.84963 0.35878 0.0
O801 O 0.80349 0.83615 0.3022 0.0
O802 O 0.84239 0.83757 0.24729 0.0
O803 O 0.84275 0.79062 0.25127 0.0
O804 O 0.81803 0.78592 0.31168 0.0
O805 O 0.86189 0.79494 0.33695 0.0
O806 O 0.90254 0.83005 0.29698 0.0
O807 O 0.91369 0.83016 0.35246 0.0
H808 H 0.88824 0.88284 0.49379 0.0
H809 H 0.87292 0.92578 0.52798 0.0
H810 H 0.82378 0.9421 0.43631 0.0
H811 H 0.84017 0.89993 0.40208 0.0
H812 H 0.81889 0.77819 0.16722 0.0
H813 H 0.84663 0.76582 0.12131 0.0
H814 H 0.92852 0.81992 0.18612 0.0
H815 H 0.90048 0.83265 0.23241 0.0
Nd816 Nd 0.87374 0.36511 0.83959 0.0
Nd817 Nd 0.85699 0.30957 0.80183 0.0
C818 C 0.88212 0.4177 0.8849 0.0
C819 C 0.87834 0.44904 0.8851 0.0
C820 C 0.89845 0.47318 0.9087 0.0
C821 C 0.90269 0.50292 0.90275 0.0
C822 C 0.88679 0.50861 0.87318 0.0
C823 C 0.86368 0.48535 0.85218 0.0
C824 C 0.85974 0.45542 0.85787 0.0
C825 C 0.92691 0.34588 0.82653 0.0
C826 C 0.85767 0.36468 0.76081 0.0
C827 C 0.84797 0.25472 0.76118 0.0
C828 C 0.84542 0.22471 0.77077 0.0
C829 C 0.86266 0.22202 0.80131 0.0
C830 C 0.85406 0.19701 0.81628 0.0
C831 C 0.82812 0.17464 0.80087 0.0
C832 C 0.81252 0.17587 0.76888 0.0
C833 C 0.82104 0.20087 0.75398 0.0
C834 C 0.80433 0.32754 0.81855 0.0
C835 C 0.86906 0.31022 0.88087 0.0
O836 O 0.85809 0.39592 0.87943 0.0
O837 O 0.90216 0.40976 0.86772 0.0
O838 O 0.91931 0.37083 0.82031 0.0
O839 O 0.90433 0.32979 0.83494 0.0
O840 O 0.85794 0.38128 0.79099 0.0
O841 O 0.86267 0.33682 0.75879 0.0
O842 O 0.87407 0.2736 0.76994 0.0
O843 O 0.82649 0.26827 0.76806 0.0
O844 O 0.81216 0.30204 0.82202 0.0
O845 O 0.82598 0.34397 0.80897 0.0
O846 O 0.86862 0.29284 0.85115 0.0
O847 O 0.86709 0.33888 0.88266 0.0
H848 H 0.91294 0.46856 0.92982 0.0
H849 H 0.92047 0.52074 0.91928 0.0
H850 H 0.85128 0.48952 0.82925 0.0
H851 H 0.84422 0.43694 0.83931 0.0
H852 H 0.88143 0.24028 0.81493 0.0
H853 H 0.86638 0.19618 0.84089 0.0
H854 H 0.79257 0.15853 0.75659 0.0
H855 H 0.80726 0.20273 0.73071 0.0
Nd856 Nd 0.83168 0.81989 0.78051 0.0
Nd857 Nd 0.87999 0.85523 0.83536 0.0
C858 C 0.78518 0.79433 0.73253 0.0
C859 C 0.75636 0.80182 0.73913 0.0
C860 C 0.75537 0.83312 0.74713 0.0
C861 C 0.74168 0.84392 0.77401 0.0
C862 C 0.72665 0.82344 0.79145 0.0
C863 C 0.72102 0.79172 0.7773 0.0
C864 C 0.73641 0.78089 0.75172 0.0
C865 C 0.82441 0.80849 0.84429 0.0
C866 C 0.82067 0.88296 0.82367 0.0
C867 C 0.92699 0.87904 0.88295 0.0
C868 C 0.95553 0.87186 0.87448 0.0
C869 C 0.95691 0.8407 0.86513 0.0
C870 C 0.97252 0.83123 0.83948 0.0
C871 C 0.98843 0.85286 0.82411 0.0
C872 C 0.99217 0.88433 0.83841 0.0
C873 C 0.97554 0.8938 0.86327 0.0
C874 C 0.88673 0.87036 0.77308 0.0
C875 C 0.88975 0.79138 0.79261 0.0
O876 O 0.80561 0.81712 0.72867 0.0
O877 O 0.79632 0.77879 0.75353 0.0
O878 O 0.8035 0.81289 0.8222 0.0
O879 O 0.84827 0.81075 0.83269 0.0
O880 O 0.81435 0.86329 0.79412 0.0
O881 O 0.84329 0.88223 0.84744 0.0
O882 O 0.90678 0.8558 0.88616 0.0
O883 O 0.91525 0.89589 0.86408 0.0
O884 O 0.90669 0.86126 0.79209 0.0
O885 O 0.86264 0.86614 0.7844 0.0
O886 O 0.89533 0.81028 0.82257 0.0
O887 O 0.86825 0.79319 0.76829 0.0
H888 H 0.76922 0.84998 0.7368 0.0
H889 H 0.74501 0.86853 0.78299 0.0
H890 H 0.70789 0.77537 0.7889 0.0
H891 H 0.73591 0.75649 0.74539 0.0
H892 H 0.9428 0.82306 0.87413 0.0
H893 H 0.97033 0.80683 0.82986 0.0
H894 H 1.0053 0.90145 0.82774 0.0
H895 H 0.97548 0.91802 0.87035 0.0
Nd896 Nd 0.62802 0.61941 0.60831 0.0
Nd897 Nd 0.59107 0.56486 0.58641 0.0
C898 C 0.66309 0.67474 0.63044 0.0
C899 C 0.66275 0.701 0.6132 0.0
C900 C 0.63558 0.70931 0.6028 0.0
C901 C 0.63395 0.72967 0.5807 0.0
C902 C 0.65939 0.74212 0.56851 0.0
C903 C 0.68682 0.73493 0.57984 0.0
C904 C 0.68849 0.71451 0.60203 0.0
C905 C 0.63258 0.59943 0.53903 0.0
C906 C 0.56243 0.62184 0.5743 0.0
C907 C 0.55747 0.50885 0.56282 0.0
C908 C 0.56021 0.48091 0.57644 0.0
C909 C 0.58701 0.47034 0.57808 0.0
C910 C 0.59158 0.44767 0.59644 0.0
C911 C 0.56961 0.43526 0.61371 0.0
C912 C 0.54237 0.44477 0.61108 0.0
C913 C 0.5377 0.46737 0.59253 0.0
C914 C 0.58693 0.58549 0.65627 0.0
C915 C 0.6553 0.56241 0.62376 0.0
O916 O 0.63959 0.66551 0.64336 0.0
O917 O 0.67192 0.6517 0.61377 0.0
O918 O 0.62642 0.6253 0.55196 0.0
O919 O 0.63143 0.58289 0.56163 0.0
O920 O 0.58537 0.63678 0.59789 0.0
O921 O 0.56129 0.59303 0.56001 0.0
O922 O 0.57903 0.52041 0.54818 0.0
O923 O 0.54925 0.53015 0.58317 0.0
O924 O 0.59182 0.55921 0.64248 0.0
O925 O 0.58793 0.60162 0.63329 0.0
O926 O 0.63352 0.54735 0.59879 0.0
O927 O 0.65505 0.5909 0.63795 0.0
H928 H 0.61519 0.6991 0.61047 0.0
H929 H 0.6126 0.73494 0.57219 0.0
H930 H 0.70668 0.74435 0.57063 0.0
H931 H 0.70956 0.70819 0.60922 0.0
H932 H 0.60502 0.48042 0.5664 0.0
H933 H 0.61271 0.44055 0.59815 0.0
H934 H 0.52514 0.43536 0.6242 0.0
H935 H 0.51697 0.47523 0.59199 0.0
Nd936 Nd 0.14003 0.59251 0.11646 0.0
Nd937 Nd 0.08044 0.56229 0.10616 0.0
C938 C 0.1979 0.61487 0.11951 0.0
C939 C 0.22605 0.61181 0.13955 0.0
C940 C 0.25116 0.61127 0.1239 0.0
C941 C 0.27744 0.60631 0.14162 0.0
C942 C 0.27905 0.60186 0.17532 0.0
C943 C 0.25427 0.60334 0.19147 0.0
C944 C 0.22786 0.60806 0.17362 0.0
C945 C 0.12772 0.5643 0.17073 0.0
C946 C 0.12179 0.52401 0.07009 0.0
C947 C 1.02403 0.53688 0.10592 0.0
C948 C 0.9957 0.53971 0.0859 0.0
C949 C 0.98498 0.5668 0.09291 0.0
C950 C 0.96067 0.57102 0.07102 0.0
C951 C 0.94659 0.54832 0.04181 0.0
C952 C 0.9564 0.52078 0.03526 0.0
C953 C 0.9807 0.51643 0.0573 0.0
C954 C 0.09016 0.58463 0.04783 0.0
C955 C 0.09827 0.6348 0.14519 0.0
O956 O 0.18258 0.59032 0.09749 0.0
O957 O 0.1809 0.62952 0.13617 0.0
O958 O 0.14347 0.59164 0.17406 0.0
O959 O 0.11907 0.55248 0.13944 0.0
O960 O 0.13895 0.55133 0.07337 0.0
O961 O 0.10013 0.52088 0.08785 0.0
O962 O 1.03931 0.56091 0.12893 0.0
O963 O 1.04112 0.52345 0.0882 0.0
O964 O 0.07268 0.55946 0.04935 0.0
O965 O 0.10123 0.59956 0.07835 0.0
O966 O 0.0801 0.60805 0.14288 0.0
O967 O 0.12204 0.63554 0.13083 0.0
H968 H 0.25022 0.61404 0.09767 0.0
H969 H 0.29632 0.60516 0.12874 0.0
H970 H 0.25511 0.59986 0.21744 0.0
H971 H 0.20871 0.60817 0.1862 0.0
H972 H 0.99592 0.58519 0.11465 0.0
H973 H 0.95324 0.59241 0.0764 0.0
H974 H 0.9457 0.50306 0.0128 0.0
H975 H 0.98844 0.49529 0.05132 0.0
C976 C 0.10979 0.26402 0.97554 0.0
C977 C 0.13253 0.28316 0.964 0.0
C978 C 0.17091 0.26977 1.004 0.0
C979 C 0.14822 0.24985 0.01472 0.0
N980 N 0.09666 0.22319 0.00603 0.0
N981 N 0.18477 0.30046 0.96276 0.0
C982 C 0.1178 0.24558 0.99909 0.0
C983 C 0.16312 0.28468 0.97673 0.0
N984 N 0.08048 0.26392 0.9644 0.0
N985 N 0.19978 0.27553 0.02098 0.0
H986 H 0.17998 0.31241 0.94359 0.0
H987 H 0.20726 0.29982 0.96816 0.0
H988 H 0.20633 0.26497 0.04087 0.0
H989 H 0.21689 0.29239 0.01723 0.0
H990 H 0.06295 0.2536 0.97491 0.0
H991 H 0.07372 0.27568 0.94572 0.0
H992 H 0.07466 0.21662 0.99293 0.0
H993 H 0.10166 0.20926 0.02305 0.0
C994 C 0.21873 0.84801 0.32916 0.0
C995 C 0.19836 0.82494 0.30312 0.0
C996 C 0.24232 0.80436 0.28771 0.0
C997 C 0.26264 0.826 0.3152 0.0
N998 N 0.26833 0.86571 0.36544 0.0
N999 N 0.19122 0.77696 0.26273 0.0
C1000 C 0.2502 0.84707 0.33681 0.0
C1001 C 0.21044 0.80199 0.284 0.0
N1002 N 0.20821 0.87151 0.34601 0.0
N1003 N 0.25349 0.78667 0.26383 0.0
H1004 H 0.16802 0.7739 0.25967 0.0
H1005 H 0.19806 0.75772 0.25093 0.0
H1006 H 0.27626 0.78805 0.26509 0.0
H1007 H 0.24058 0.77314 0.24101 0.0
H1008 H 0.22194 0.89098 0.3625 0.0
H1009 H 0.18565 0.87232 0.34168 0.0
H1010 H 0.26061 0.87942 0.38429 0.0
H1011 H 0.29092 0.86555 0.37164 0.0
C1012 C 0.61529 0.93946 0.49364 0.0
C1013 C 0.62632 0.94218 0.46294 0.0
C1014 C 0.63298 0.99839 0.47937 0.0
C1015 C 0.62585 0.9957 0.51203 0.0
N1016 N 0.61637 0.96331 0.55252 0.0
N1017 N 0.65076 0.975 0.42953 0.0
C1018 C 0.61875 0.96612 0.5198 0.0
C1019 C 0.63656 0.97188 0.45655 0.0
N1020 N 0.60026 0.91157 0.49734 0.0
N1021 N 0.6349 0.02584 0.46931 0.0
H1022 H 0.65435 0.95631 0.41264 0.0
H1023 H 0.66143 0.99623 0.42582 0.0
H1024 H 0.6313 0.04551 0.48453 0.0
H1025 H 0.63699 0.02825 0.44451 0.0
H1026 H 0.58927 0.90891 0.51778 0.0
H1027 H 0.59578 0.89166 0.47818 0.0
H1028 H 0.61433 0.94237 0.56025 0.0
H1029 H 0.61962 0.98216 0.57276 0.0
C1030 C 0.5121 0.33884 0.80594 0.0
C1031 C 0.51998 0.30945 0.80072 0.0
C1032 C 0.46829 0.28713 0.80974 0.0
C1033 C 0.45968 0.31601 0.81201 0.0
N1034 N 0.4737 0.36912 0.80877 0.0
N1035 N 0.50203 0.25456 0.79153 0.0
C1036 C 0.48174 0.34165 0.80891 0.0
C1037 C 0.49709 0.2834 0.80127 0.0
N1038 N 0.53413 0.36461 0.81008 0.0
N1039 N 0.4489 0.2629 0.81592 0.0
H1040 H 0.52182 0.25056 0.78405 0.0
H1041 H 0.48553 0.23455 0.78751 0.0
H1042 H 0.42758 0.26428 0.8207 0.0
H1043 H 0.45469 0.24228 0.81892 0.0
H1044 H 0.53114 0.38687 0.81766 0.0
H1045 H 0.55634 0.36379 0.80915 0.0
H1046 H 0.48678 0.38771 0.80212 0.0
H1047 H 0.45292 0.37265 0.81331 0.0
C1048 C 1.00696 0.85066 0.57295 0.0
C1049 C 1.01033 0.82372 0.55151 0.0
C1050 C 1.03064 0.85411 0.5125 0.0
C1051 C 1.03499 0.88081 0.53873 0.0
N1052 N 1.02504 0.90565 0.59283 0.0
N1053 N 1.00975 0.79906 0.49362 0.0
C1054 C 1.02173 0.87961 0.56826 0.0
C1055 C 1.01704 0.82523 0.51865 0.0
N1056 N 0.98901 0.84844 0.59682 0.0
N1057 N 1.04098 0.85638 0.48278 0.0
H1058 H 0.998 0.77838 0.49777 0.0
H1059 H 1.01257 0.79831 0.4684 0.0
H1060 H 0.04985 0.87754 0.4773 0.0
H1061 H 1.04139 0.83757 0.46394 0.0
H1062 H 0.98409 0.86741 0.61188 0.0
H1063 H 0.97585 0.82742 0.59809 0.0
H1064 H 1.01904 0.90546 0.61672 0.0
H1065 H 1.03529 0.9274 0.59009 0.0
C1066 C 0.61162 0.95793 0.90632 0.0
C1067 C 0.62813 0.93449 0.9048 0.0
C1068 C 0.58317 0.89541 0.87691 0.0
C1069 C 0.56655 0.91862 0.87982 0.0
N1070 N 0.56506 0.97207 0.88696 0.0
N1071 N 0.63184 0.88317 0.87945 0.0
C1072 C 0.58097 0.95003 0.89084 0.0
C1073 C 0.61459 0.90397 0.88679 0.0
N1074 N 0.62434 0.98699 0.92481 0.0
N1075 N 0.56885 0.86509 0.86703 0.0
H1076 H 0.65494 0.88863 0.88698 0.0
H1077 H 0.62367 0.86158 0.86335 0.0
H1078 H 0.5458 0.85783 0.85882 0.0
H1079 H 0.57956 0.84703 0.86887 0.0
H1080 H 0.61215 1.00373 0.93048 0.0
H1081 H 0.64671 0.99394 0.93665 0.0
H1082 H 0.57485 0.99539 0.89166 0.0
H1083 H 0.54246 0.96663 0.87576 0.0
C1084 C 0.56298 0.20399 0.14995 0.0
C1085 C 0.53543 0.20571 0.13025 0.0
C1086 C 0.54511 0.17009 0.08117 0.0
C1087 C 0.57339 0.17033 0.10012 0.0
N1088 N 0.6112 0.19065 0.15115 0.0
N1089 N 0.5015 0.1926 0.07594 0.0
C1090 C 0.58287 0.18827 0.134 0.0
C1091 C 0.52694 0.1894 0.09547 0.0
N1092 N 0.57023 0.21669 0.18423 0.0
N1093 N 0.5353 0.15074 0.04976 0.0
H1094 H 0.48641 0.20455 0.08594 0.0
H1095 H 0.49597 0.18471 0.0495 0.0
H1096 H 0.5486 0.13746 0.03792 0.0
H1097 H 0.51354 0.14642 0.03625 0.0
H1098 H 0.58743 0.21202 0.20069 0.0
H1099 H 0.55785 0.22984 0.19744 0.0
H1100 H 0.62112 0.20719 0.17329 0.0
H1101 H 0.62599 0.17782 0.14225 0.0
C1102 C 0.22543 0.31485 0.37628 0.0
C1103 C 0.20231 0.32994 0.38332 0.0
C1104 C 0.18461 0.32429 0.32165 0.0
C1105 C 0.20964 0.31198 0.31492 0.0
N1106 N 0.25774 0.3027 0.33687 0.0
N1107 N 0.16189 0.35294 0.36372 0.0
C1108 C 0.23104 0.3091 0.34249 0.0
C1109 C 0.18229 0.33566 0.35627 0.0
N1110 N 0.24167 0.30526 0.40174 0.0
N1111 N 0.16296 0.32464 0.29503 0.0
H1112 H 0.1596 0.36161 0.38873 0.0
H1113 H 0.14882 0.36068 0.34534 0.0
H1114 H 0.16432 0.31667 0.2695 0.0
H1115 H 0.14273 0.33056 0.29825 0.0
H1116 H 0.25645 0.29089 0.3971 0.0
H1117 H 0.23831 0.30913 0.42704 0.0
H1118 H 0.27542 0.30475 0.35678 0.0
H1119 H 0.26343 0.29859 0.31272 0.0
C1120 C 0.06081 0.11141 0.24093 0.0
C1121 C 1.03063 0.09373 0.23481 0.0
C1122 C 1.03729 0.07431 0.1746 0.0
C1123 C 0.06748 0.09192 0.18059 0.0
N1124 N 0.10577 0.1311 0.21887 0.0
N1125 N 0.98967 0.06025 0.19363 0.0
C1126 C 0.07844 0.11158 0.21366 0.0
C1127 C 1.01888 0.07585 0.20094 0.0
N1128 N 0.0729 0.12806 0.27327 0.0
N1129 N 1.02595 0.05575 0.14314 0.0
H1130 H 0.97626 0.05859 0.21214 0.0
H1131 H 0.97797 0.04999 0.16905 0.0
H1132 H 1.03628 0.05791 0.12228 0.0
H1133 H 1.00673 0.03834 0.13758 0.0
H1134 H 0.09543 0.13847 0.28136 0.0
H1135 H 0.06044 0.13047 0.29278 0.0
H1136 H 0.11452 0.14839 0.24062 0.0
H1137 H 0.11904 0.13141 0.20003 0.0
C1138 C 0.41078 0.81767 0.47289 0.0
C1139 C 0.39441 0.79168 0.48211 0.0
C1140 C 0.35844 0.78048 0.42804 0.0
C1141 C 0.37547 0.8058 0.41819 0.0
N1142 N 0.42143 0.84418 0.42746 0.0
N1143 N 0.3564 0.74468 0.46616 0.0
C1144 C 0.40267 0.82323 0.43957 0.0
C1145 C 0.36934 0.77197 0.45895 0.0
N1146 N 0.43351 0.83753 0.49632 0.0
N1147 N 0.33128 0.76537 0.40861 0.0
H1148 H 0.36372 0.73764 0.48853 0.0
H1149 H 0.3402 0.72778 0.44875 0.0
H1150 H 0.32263 0.77085 0.38575 0.0
H1151 H 0.31622 0.74904 0.4164 0.0
H1152 H 0.44402 0.85882 0.49264 0.0
H1153 H 0.44052 0.83364 0.5206 0.0
H1154 H 0.44295 0.85513 0.44033 0.0
H1155 H 0.41668 0.84862 0.40304 0.0
C1156 C 0.65702 1.01497 0.70835 0.0
C1157 C 0.66073 0.03624 0.73995 0.0
C1158 C 0.64098 0.07213 0.70877 0.0
C1159 C 0.64182 0.05328 0.67697 0.0
N1160 N 0.65567 1.00816 0.64714 0.0
N1161 N 0.66381 0.08902 0.76828 0.0
C1162 C 0.65087 0.02483 0.67677 0.0
C1163 C 0.65455 0.06583 0.73971 0.0
N1164 N 0.65911 0.98531 0.70843 0.0
N1165 N 0.62729 0.0964 0.70957 0.0
H1166 H 0.67629 0.08682 0.79093 0.0
H1167 H 0.66242 0.11171 0.76811 0.0
H1168 H 0.61663 0.10154 0.68751 0.0
H1169 H 0.62366 0.10915 0.7322 0.0
H1170 H 0.65377 0.968 0.68632 0.0
H1171 H 0.66346 0.97744 0.73101 0.0
H1172 H 0.66537 0.98913 0.64637 0.0
H1173 H 0.65255 1.01478 0.62374 0.0
C1174 C 0.37515 0.50241 0.05021 0.0
C1175 C 0.36022 0.48806 0.07318 0.0
C1176 C 0.33066 0.44778 0.02609 0.0
C1177 C 0.35209 0.45666 0.00606 0.0
N1178 N 0.39022 0.49548 0.9946 0.0
N1179 N 0.31916 0.45231 0.08354 0.0
C1180 C 0.37222 0.48567 0.01625 0.0
C1181 C 0.3357 0.46287 0.06099 0.0
N1182 N 0.39339 0.53094 0.06182 0.0
N1183 N 0.30711 0.42364 0.012 0.0
H1184 H 0.3227 0.46403 0.10906 0.0
H1185 H 0.30243 0.43233 0.07729 0.0
H1186 H 0.30396 0.41253 0.9863 0.0
H1187 H 0.28997 0.4162 0.02467 0.0
H1188 H 0.40424 0.54353 0.04626 0.0
H1189 H 0.3956 0.54295 0.087 0.0
H1190 H 0.4077 0.51482 1.00158 0.0
H1191 H 0.3877 0.48373 0.9693 0.0
C1192 C 0.07353 0.1055 0.44048 0.0
C1193 C 1.04374 0.08823 0.4282 0.0
C1194 C 1.04241 0.07483 0.48493 0.0
C1195 C 0.07208 0.09251 0.49744 0.0
N1196 N 0.11402 0.129 0.4889 0.0
N1197 N 0.99807 0.06041 0.44003 0.0
C1198 C 0.08698 0.1093 0.47576 0.0
C1199 C 1.02768 0.07415 0.45092 0.0
N1200 N 0.08934 0.11751 0.41803 0.0
N1201 N 1.02839 0.05827 0.50555 0.0
H1202 H 0.98685 0.05873 0.41523 0.0
H1203 H 0.98398 0.0525 0.45597 0.0
H1204 H 1.03735 0.06003 0.53123 0.0
H1205 H 1.00851 0.0418 0.49706 0.0
H1206 H 0.11216 0.12714 0.42381 0.0
H1207 H 0.07991 0.11616 0.39258 0.0
H1208 H 0.12472 0.14437 0.47586 0.0
H1209 H 0.12505 0.13165 0.51397 0.0
C1210 C 0.40712 0.77464 0.69338 0.0
C1211 C 0.42431 0.79528 0.6771 0.0
C1212 C 0.42005 0.83885 0.72168 0.0
C1213 C 0.40068 0.81831 0.73586 0.0
N1214 N 0.37395 0.7656 0.73176 0.0
N1215 N 0.44598 0.84722 0.67447 0.0
C1216 C 0.394 0.78623 0.72109 0.0
C1217 C 0.43052 0.82749 0.69102 0.0
N1218 N 0.40143 0.74344 0.68145 0.0
N1219 N 0.42897 0.8691 0.73802 0.0
H1220 H 0.45538 0.83953 0.65341 0.0
H1221 H 0.44849 0.87099 0.68057 0.0
H1222 H 0.42143 0.878 0.76007 0.0
H1223 H 0.44528 0.88492 0.7313 0.0
H1224 H 0.38928 0.72781 0.69322 0.0
H1225 H 0.40849 0.73264 0.66008 0.0
H1226 H 0.36167 0.77118 0.75071 0.0
H1227 H 0.36167 0.77118 0.75071 0.0
C1228 C 0.62508 0.07054 0.92758 0.0
C1229 C 0.65539 0.08144 0.926 0.0
C1230 C 0.66281 0.11291 0.98393 0.0
C1231 C 0.63429 0.0973 0.98811 0.0
N1232 N 0.59034 0.05596 0.96382 0.0
N1233 N 0.7042 0.11171 0.95342 0.0
C1234 C 0.61569 0.07495 0.95982 0.0
C1235 C 0.67462 0.10222 0.95445 0.0
N1236 N 0.6052 0.05572 0.89835 0.0
N1237 N 0.67804 0.13885 0.00728 0.0
H1238 H 0.71344 0.10531 0.93182 0.0
H1239 H 0.71991 0.12405 0.97482 0.0
H1240 H 0.66913 0.14882 0.02772 0.0
H1241 H 0.69775 0.15254 1.00406 0.0
H1242 H 0.58216 0.0509 0.89745 0.0
H1243 H 0.61149 0.05094 0.87447 0.0
H1244 H 0.57768 0.03793 0.9444 0.0
H1245 H 0.58348 0.05529 0.9871 0.0
C1246 C 0.41574 0.41885 0.22837 0.0
C1247 C 0.40489 0.44567 0.2393 0.0
C1248 C 0.38239 0.42155 0.2819 0.0
C1249 C 0.38988 0.39332 0.26808 0.0
N1250 N 0.41012 0.36395 0.22485 0.0
N1251 N 0.37263 0.47005 0.27179 0.0
C1252 C 0.40564 0.39167 0.2404 0.0
C1253 C 0.38678 0.44635 0.26478 0.0
N1254 N 0.43645 0.41965 0.20737 0.0
N1255 N 0.37232 0.42542 0.31226 0.0
H1256 H 0.37506 0.48873 0.25987 0.0
H1257 H 0.35624 0.46971 0.28703 0.0
H1258 H 0.36977 0.40853 0.32659 0.0
H1259 H 0.36962 0.44654 0.32512 0.0
H1260 H 0.4474 0.40186 0.20129 0.0
H1261 H 0.44485 0.43931 0.19868 0.0
H1262 H 0.41882 0.36063 0.20241 0.0
H1263 H 0.40251 0.34362 0.23272 0.0
C1264 C 0.23249 0.04119 0.13218 0.0
C1265 C 0.22212 1.00959 0.13269 0.0
C1266 C 0.17273 1.01979 0.13955 0.0
C1267 C 0.18163 0.04995 0.13371 0.0
N1268 N 0.22035 0.08955 0.12399 0.0
N1269 N 0.18219 0.96843 0.13632 0.0
C1270 C 0.2118 0.06097 0.13068 0.0
C1271 C 0.19218 0.99883 0.13634 0.0
N1272 N 0.26211 0.05232 0.13244 0.0
N1273 N 0.14576 1.01153 0.14917 0.0
H1274 H 0.1962 0.95289 0.13626 0.0
H1275 H 0.15979 0.95817 0.13452 0.0
H1276 H 0.13163 0.02676 0.15306 0.0
H1277 H 0.13879 0.99097 0.15672 0.0
H1278 H 0.27189 0.07566 0.13695 0.0
H1279 H 0.27759 0.03845 0.1301 0.0
H1280 H 0.24044 0.09719 0.11626 0.0
H1281 H 0.20681 0.10543 0.12435 0.0
C1282 C 0.75497 0.63839 0.06538 0.0
C1283 C 0.75009 0.6438 0.03158 0.0
C1284 C 0.69596 0.63129 0.03011 0.0
C1285 C 0.70084 0.62285 0.06249 0.0
N1286 N 0.73518 0.61175 0.10697 0.0
N1287 N 0.71569 0.63821 0.97888 0.0
C1288 C 0.73044 0.62426 0.0788 0.0
C1289 C 0.72049 0.638 0.01303 0.0
N1290 N 0.78268 0.6484 0.08561 0.0
N1291 N 0.66851 0.63506 0.01654 0.0
H1292 H 0.73305 0.64242 0.96531 0.0
H1293 H 0.69458 0.63108 0.9634 0.0
H1294 H 0.65026 0.63219 0.02877 0.0
H1295 H 0.66471 0.64434 0.9949 0.0
H1296 H 0.78665 0.64782 0.11153 0.0
H1297 H 0.80107 0.6604 0.07775 0.0
H1298 H 0.75621 0.60941 0.11784 0.0
H1299 H 0.71778 0.60082 0.11731 0.0
C1300 C 0.83925 0.48289 0.35789 0.0
C1301 C 0.8215 0.48986 0.32929 0.0
C1302 C 0.82609 0.43833 0.29561 0.0
C1303 C 0.84187 0.43042 0.32488 0.0
N1304 N 0.85796 0.44477 0.38593 0.0
N1305 N 0.794 0.46958 0.27186 0.0
C1306 C 0.84696 0.4528 0.35644 0.0
C1307 C 0.81406 0.46625 0.29844 0.0
N1308 N 0.85007 0.50562 0.38656 0.0
N1309 N 0.82334 0.41955 0.26431 0.0
H1310 H 0.7844 0.4887 0.27277 0.0
H1311 H 0.78465 0.45222 0.25028 0.0
H1312 H 0.83145 0.39943 0.26114 0.0
H1313 H 0.81551 0.42521 0.2413 0.0
H1314 H 0.86578 0.50382 0.40686 0.0
H1315 H 0.84554 0.52751 0.38866 0.0
H1316 H 0.85914 0.45784 0.4103 0.0
H1317 H 0.86311 0.42339 0.38604 0.0
C1318 C 0.85883 0.51067 0.53908 0.0
C1319 C 0.85112 0.51481 0.572 0.0
C1320 C 0.90178 0.54233 0.59799 0.0
C1321 C 0.91075 0.53123 0.56681 0.0
N1322 N 0.89877 0.51385 0.50568 0.0
N1323 N 0.86023 0.54906 0.62707 0.0
C1324 C 0.88937 0.51903 0.53636 0.0
C1325 C 0.87093 0.53583 0.59964 0.0
N1326 N 0.83689 0.49708 0.51129 0.0
N1327 N 0.92284 0.55692 0.62631 0.0
H1328 H 0.83735 0.54599 0.62717 0.0
H1329 H 0.87345 0.56575 0.64746 0.0
H1330 H 0.94554 0.56282 0.62529 0.0
H1331 H 0.91799 0.56232 0.6508 0.0
H1332 H 0.8404 0.49222 0.48619 0.0
H1333 H 0.8145 0.49155 0.51388 0.0
H1334 H 0.88468 0.50423 0.48224 0.0
H1335 H 0.92123 0.52035 0.50382 0.0
C1336 C 0.43055 0.22754 0.31968 0.0
C1337 C 0.44774 0.22428 0.29341 0.0
C1338 C 0.42822 0.26495 0.27039 0.0
C1339 C 0.40904 0.26632 0.29494 0.0
N1340 N 0.38666 0.24196 0.33667 0.0
N1341 N 0.45942 0.23605 0.24028 0.0
C1342 C 0.40893 0.24585 0.318 0.0
C1343 C 0.44528 0.24164 0.26749 0.0
N1344 N 0.4342 0.21257 0.34608 0.0
N1345 N 0.43148 0.28689 0.25119 0.0
H1346 H 0.47332 0.22041 0.23834 0.0
H1347 H 0.45589 0.24548 0.21872 0.0
H1348 H 0.42051 0.305 0.2538 0.0
H1349 H 0.44702 0.28879 0.23502 0.0
H1350 H 0.42558 0.21782 0.36837 0.0
H1351 H 0.44727 0.19627 0.34702 0.0
H1352 H 0.38342 0.22497 0.35092 0.0
H1353 H 0.36911 0.25301 0.33456 0.0
C1354 C 0.37305 0.03924 0.47165 0.0
C1355 C 0.37805 0.06901 0.46445 0.0
C1356 C 0.43183 0.07131 0.47287 0.0
C1357 C 0.42701 0.04563 0.48845 0.0
N1358 N 0.39345 1.00281 0.50011 0.0
N1359 N 0.41211 0.11321 0.45586 0.0
C1360 C 0.39769 0.02838 0.48633 0.0
C1361 C 0.40736 0.08457 0.46318 0.0
N1362 N 0.34455 1.02199 0.46511 0.0
N1363 N 0.45991 0.08323 0.46809 0.0
H1364 H 0.39481 0.12344 0.44776 0.0
H1365 H 0.43322 0.12739 0.45907 0.0
H1366 H 0.47823 0.07406 0.47563 0.0
H1367 H 0.4645 0.10008 0.45392 0.0
H1368 H 0.33925 0.99914 0.46734 0.0
H1369 H 0.32649 0.03003 0.45425 0.0
H1370 H 0.37259 0.9911 0.50273 0.0
H1371 H 0.41115 0.99394 0.51024 0.0
C1372 C 0.83836 0.69243 0.3529 0.0
C1373 C 0.80743 0.67947 0.35248 0.0
C1374 C 0.79829 0.73159 0.34605 0.0
C1375 C 0.82812 0.74322 0.34152 0.0
N1376 N 0.87495 0.72939 0.33421 0.0
N1377 N 0.75739 0.68708 0.33626 0.0
C1378 C 0.84772 0.72212 0.34336 0.0
C1379 C 0.78737 0.69929 0.3457 0.0
N1380 N 0.85934 0.67698 0.36341 0.0
N1381 N 0.78 0.7516 0.35188 0.0
H1382 H 0.74824 0.66358 0.33155 0.0
H1383 H 0.74215 0.69976 0.32821 0.0
H1384 H 0.78725 0.77531 0.35481 0.0
H1385 H 0.75902 0.74507 0.35824 0.0
H1386 H 0.88223 0.68628 0.36763 0.0
H1387 H 0.85383 0.65629 0.37134 0.0
H1388 H 0.88913 0.7141 0.33165 0.0
H1389 H 0.88185 0.74937 0.32551 0.0
C1390 C 0.9162 0.59215 0.87143 0.0
C1391 C 0.93525 0.58819 0.84727 0.0
C1392 C 0.91752 0.53259 0.83498 0.0
C1393 C 0.89943 0.53604 0.86052 0.0
N1394 N 0.87692 0.56811 0.89863 0.0
N1395 N 0.94644 0.55703 0.79799 0.0
C1396 C 0.89705 0.56567 0.87713 0.0
C1397 C 0.93319 0.55914 0.82624 0.0
N1398 N 0.91696 0.62112 0.88899 0.0
N1399 N 0.92177 0.5042 0.82105 0.0
H1400 H 0.95802 0.57633 0.791 0.0
H1401 H 0.94325 0.53679 0.77963 0.0
H1402 H 0.91141 0.4838 0.82689 0.0
H1403 H 0.93763 0.50096 0.80566 0.0
H1404 H 0.90442 0.62612 0.90778 0.0
H1405 H 0.93035 0.64066 0.88433 0.0
H1406 H 0.87294 0.5888 0.9108 0.0
H1407 H 0.86277 0.54889 0.90292 0.0
C1408 C 0.09348 0.91307 0.19825 0.0
C1409 C 0.08784 0.88093 0.18454 0.0
C1410 C 0.06303 0.88849 0.12946 0.0
C1411 C 0.07155 0.92077 0.14197 0.0
N1412 N 0.09449 0.96449 0.18773 0.0
N1413 N 0.06666 0.83742 0.13774 0.0
C1414 C 0.08632 0.93324 0.17641 0.0
C1415 C 0.07233 0.86848 0.15032 0.0
N1416 N 0.10589 0.92429 0.23209 0.0
N1417 N 0.04525 0.87708 0.09791 0.0
H1418 H 0.07039 0.8217 0.15298 0.0
H1419 H 0.05913 0.82704 0.112 0.0
H1420 H 1.0381 0.89116 0.08209 0.0
H1421 H 1.03564 0.85389 0.08821 0.0
H1422 H 0.10767 0.94682 0.24486 0.0
H1423 H 0.11319 0.91061 0.24828 0.0
H1424 H 0.10833 0.97551 0.21097 0.0
H1425 H 0.08853 0.97986 0.173 0.0
C1426 C 1.01469 0.36965 0.85486 0.0
C1427 C 1.02445 0.34135 0.85019 0.0
C1428 C 0.97041 0.31531 0.82719 0.0
C1429 C 0.96047 0.34349 0.83563 0.0
N1430 N 0.97543 0.39589 0.86814 0.0
N1431 N 1.00959 0.28624 0.8353 0.0
C1432 C 0.98334 0.37022 0.85208 0.0
C1433 C 1.00166 0.31393 0.83707 0.0
N1434 N 1.03566 0.3966 0.86204 0.0
N1435 N 0.95012 0.2897 0.80897 0.0
H1436 H 1.03178 0.28445 0.8412 0.0
H1437 H 0.99418 0.26531 0.8301 0.0
H1438 H 0.9276 0.28965 0.80204 0.0
H1439 H 0.95592 0.26933 0.79863 0.0
H1440 H 1.0302 0.41794 0.86234 0.0
H1441 H 0.05849 0.39723 0.86385 0.0
H1442 H 0.99091 0.415 0.88316 0.0
H1443 H 0.95356 0.39642 0.8709 0.0
C1444 C 0.63122 0.2084 0.69497 0.0
C1445 C 0.60281 0.21597 0.69515 0.0
C1446 C 0.57975 0.16917 0.6509 0.0
C1447 C 0.6081 0.16104 0.65139 0.0
N1448 N 0.65962 0.16996 0.67921 0.0
N1449 N 0.54944 0.2014 0.67816 0.0
C1450 C 0.6335 0.17988 0.67489 0.0
C1451 C 0.57686 0.19554 0.67472 0.0
N1452 N 0.65631 0.2289 0.71359 0.0
N1453 N 0.55591 0.15273 0.62639 0.0
H1454 H 0.54683 0.22074 0.6949 0.0
H1455 H 0.52935 0.18602 0.66675 0.0
H1456 H 0.55711 0.13378 0.60814 0.0
H1457 H 0.53555 0.15925 0.62219 0.0
H1458 H 0.67794 0.227 0.71086 0.0
H1459 H 0.6556 0.24891 0.73061 0.0
H1460 H 0.6777 0.18056 0.69883 0.0
H1461 H 0.66254 0.14957 0.66499 0.0
C1462 C 0.70849 0.82731 0.3278 0.0
C1463 C 0.70435 0.85389 0.34999 0.0
C1464 C 0.75925 0.87606 0.35524 0.0
C1465 C 0.76419 0.84801 0.33673 0.0
N1466 N 0.74219 0.79579 0.30674 0.0
N1467 N 0.72741 0.90324 0.38666 0.0
C1468 C 0.73828 0.82352 0.32299 0.0
C1469 C 0.73029 0.87809 0.36405 0.0
N1470 N 0.68373 0.80543 0.3112 0.0
N1471 N 0.78201 0.9016 0.36299 0.0
H1472 H 0.70672 0.90695 0.3916 0.0
H1473 H 0.74553 0.91959 0.40176 0.0
H1474 H 0.80267 0.90145 0.35562 0.0
H1475 H 0.77955 0.92356 0.37336 0.0
H1476 H 0.6841 0.78687 0.29201 0.0
H1477 H 0.66222 0.80739 0.31467 0.0
H1478 H 0.72543 0.77584 0.2998 0.0
H1479 H 0.76291 0.79205 0.30228 0.0
C1480 C 0.21123 0.32883 0.5948 0.0
C1481 C 0.19261 0.3377 0.56916 0.0
C1482 C 0.14828 0.30755 0.5838 0.0
C1483 C 0.16724 0.29392 0.60413 0.0
N1484 N 0.21654 0.29208 0.63111 0.0
N1485 N 0.1435 0.33818 0.54055 0.0
C1486 C 0.19869 0.3052 0.61089 0.0
C1487 C 0.16105 0.32831 0.56454 0.0
N1488 N 0.2409 0.34273 0.60316 0.0
N1489 N 0.11812 0.30029 0.58281 0.0
H1490 H 0.15228 0.35455 0.52741 0.0
H1491 H 0.12059 0.32958 0.53277 0.0
H1492 H 0.10837 0.28504 0.59671 0.0
H1493 H 0.10305 0.31109 0.57071 0.0
H1494 H 0.2555 0.33917 0.62343 0.0
H1495 H 0.25035 0.36004 0.5915 0.0
H1496 H 0.23972 0.29662 0.63396 0.0
H1497 H 0.20796 0.27542 0.64407 0.0
C1498 C 0.64538 0.31724 0.19906 0.0
C1499 C 0.62115 0.30118 0.21125 0.0
C1500 C 0.65443 0.30247 0.26442 0.0
C1501 C 0.67898 0.31181 0.24886 0.0
N1502 N 0.69903 0.3292 0.20205 0.0
N1503 N 0.60263 0.27689 0.25501 0.0
C1504 C 0.67486 0.32015 0.2166 0.0
C1505 C 0.62548 0.29404 0.24421 0.0
N1506 N 0.64008 0.32967 0.17092 0.0
N1507 N 0.65906 0.30079 0.29816 0.0
H1508 H 0.58145 0.26923 0.24021 0.0
H1509 H 0.60528 0.26801 0.27707 0.0
H1510 H 0.68038 0.30666 0.31329 0.0
H1511 H 0.6418 0.29666 0.31183 0.0
H1512 H 0.65667 0.34369 0.16234 0.0
H1513 H 0.61852 0.32841 0.15808 0.0
H1514 H 0.69733 0.3319 0.1768 0.0
H1515 H 0.72098 0.33261 0.21486 0.0
C1516 C 0.66108 0.97565 0.06662 0.0
C1517 C 0.68652 0.98416 0.05168 0.0
C1518 C 0.68252 0.03797 0.06529 0.0
C1519 C 0.65323 0.02817 0.07159 0.0
N1520 N 0.61544 0.98832 0.08206 0.0
N1521 N 0.72941 0.02454 0.05531 0.0
C1522 C 0.64297 0.99725 0.07403 0.0
C1523 C 0.69981 1.01582 0.05662 0.0
N1524 N 0.65541 0.94771 0.07552 0.0
N1525 N 0.69329 0.06829 0.06638 0.0
H1526 H 0.74309 1.00869 0.05309 0.0
H1527 H 0.74116 0.04732 0.06057 0.0
H1528 H 0.68335 0.08512 0.07806 0.0
H1529 H 0.71196 0.07661 0.05638 0.0
H1530 H 0.63831 0.94084 0.08852 0.0
H1531 H 0.67045 0.93322 0.07409 0.0
H1532 H 0.60505 0.96541 0.07999 0.0
H1533 H 0.60245 1.00396 0.08949 0.0
C1534 C 1.02839 0.81057 0.76085 0.0
C1535 C 1.00802 0.80705 0.72977 0.0
C1536 C 0.98224 0.84341 0.75956 0.0
C1537 C 0.99869 0.84173 0.79155 0.0
N1538 N 1.03778 0.82389 0.8229 0.0
N1539 N 0.96485 0.81994 0.69938 0.0
C1540 C 1.02199 0.82546 0.79221 0.0
C1541 C 0.98516 0.82398 0.72886 0.0
N1542 N 0.05466 0.80103 0.76015 0.0
N1543 N 0.96357 0.86334 0.75844 0.0
H1544 H 0.96526 0.80514 0.67661 0.0
H1545 H 0.94564 0.82878 0.69817 0.0
H1546 H 0.96019 0.87729 0.78023 0.0
H1547 H 0.9536 0.86826 0.73588 0.0
H1548 H 0.0716 0.80546 0.78148 0.0
H1549 H 0.06107 0.79184 0.73745 0.0
H1550 H 0.05226 0.80904 0.82527 0.0
H1551 H 1.03527 0.83642 0.84626 0.0
C1552 C 0.20186 0.10101 0.98548 0.0
C1553 C 0.18901 0.10042 0.95088 0.0
C1554 C 0.13999 0.1002 0.97094 0.0
C1555 C 0.15222 0.09803 1.00483 0.0
N1556 N 0.19577 0.09319 0.04248 0.0
N1557 N 0.14343 0.09309 0.91036 0.0
C1558 C 0.18334 0.09721 0.01131 0.0
C1559 C 0.15743 0.09845 0.94371 0.0
N1560 N 0.2323 0.1074 0.99459 0.0
N1561 N 0.11137 0.10417 0.96447 0.0
H1562 H 0.15471 0.09054 0.88981 0.0
H1563 H 0.12029 0.08796 0.90279 0.0
H1564 H 0.09729 0.10365 0.98246 0.0
H1565 H 0.10226 0.11006 0.94209 0.0
H1566 H 0.24354 0.11197 0.01982 0.0
H1567 H 0.24658 0.11134 0.97734 0.0
H1568 H 0.21665 0.08784 0.04734 0.0
H1569 H 0.1846 0.09321 0.06304 0.0
C1570 C 0.85106 0.41736 0.69703 0.0
C1571 C 0.82593 0.39968 0.67227 0.0
C1572 C 0.82135 0.35921 0.70577 0.0
C1573 C 0.84775 0.37586 0.72926 0.0
N1574 N 0.89031 0.41851 0.7445 0.0
N1575 N 0.79001 0.35181 0.65001 0.0
C1576 C 0.86327 0.40438 0.72415 0.0
C1577 C 0.81209 0.36992 0.67563 0.0
N1578 N 0.86318 0.44674 0.69476 0.0
N1579 N 0.8039 0.33426 0.71329 0.0
H1580 H 0.78172 0.35934 0.62835 0.0
H1581 H 0.78148 0.32862 0.64898 0.0
H1582 H 0.80915 0.32599 0.73537 0.0
H1583 H 0.78272 0.32343 0.69933 0.0
H1584 H 0.87897 0.4622 0.71409 0.0
H1585 H 0.85614 0.45647 0.67433 0.0
H1586 H 0.90434 0.43771 0.74017 0.0
H1587 H 0.90008 0.40945 0.76418 0.0
C1588 C 0.59685 0.14196 0.45846 0.0
C1589 C 0.57101 0.12307 0.43587 0.0
C1590 C 0.56534 0.08896 0.47673 0.0
C1591 C 0.58918 0.10952 0.50084 0.0
N1592 N 0.62623 0.157 0.51625 0.0
N1593 N 0.52686 0.08238 0.4271 0.0
C1594 C 0.6046 0.13643 0.49212 0.0
C1595 C 0.55428 0.09752 0.44594 0.0
N1596 N 0.61454 0.16447 0.44734 0.0
N1597 N 0.55346 0.0609 0.48296 0.0
H1598 H 0.51695 0.08879 0.40543 0.0
H1599 H 0.51245 0.06546 0.43485 0.0
H1600 H 0.56089 0.0536 0.50508 0.0
H1601 H 0.5383 0.04364 0.46477 0.0
H1602 H 0.63525 0.17704 0.46112 0.0
H1603 H 0.60954 0.16898 0.42297 0.0
H1604 H 0.63609 0.17867 0.51302 0.0
H1605 H 0.63307 0.15305 0.54055 0.0
C1606 C 0.89812 0.77322 0.0614 0.0
C1607 C 0.89638 0.74149 0.05989 0.0
C1608 C 0.91239 0.75158 0.12163 0.0
C1609 C 0.90527 0.78083 0.12326 0.0
N1610 N 0.90076 0.82318 0.09593 0.0
N1611 N 0.91975 0.70565 0.08512 0.0
C1612 C 0.90222 0.79313 0.09355 0.0
C1613 C 0.90978 0.73232 0.08896 0.0
N1614 N 0.89437 0.78444 0.03241 0.0
N1615 N 0.91902 0.74153 0.15113 0.0
H1616 H 0.91994 0.69287 0.06094 0.0
H1617 H 0.93094 0.69835 0.10533 0.0
H1618 H 0.92181 0.75589 0.17519 0.0
H1619 H 0.92102 0.71909 0.1517 0.0
H1620 H 0.89197 0.77075 0.00798 0.0
H1621 H 0.89197 0.77075 0.00798 0.0
H1622 H 0.89736 0.83273 0.07436 0.0
H1623 H 0.90369 0.83822 0.11962 0.0
C1624 C 0.18462 0.09281 0.75779 0.0
C1625 C 0.20264 0.07057 0.76061 0.0
C1626 C 0.19288 0.05691 0.69718 0.0
C1627 C 0.17103 0.0753 0.69496 0.0
N1628 N 0.13945 0.10159 0.72712 0.0
N1629 N 0.2151 0.02473 0.73051 0.0
C1630 C 0.16475 0.09034 0.72643 0.0
C1631 C 0.20401 0.05049 0.72956 0.0
N1632 N 0.18765 0.11783 0.78361 0.0
N1633 N 0.20464 0.0469 0.66919 0.0
H1634 H 0.22095 1.01759 0.75322 0.0
H1635 H 0.21458 1.00847 0.70844 0.0
H1636 H 0.20007 0.05371 0.64603 0.0
H1637 H 0.22213 0.03538 0.67057 0.0
H1638 H 0.17603 0.13517 0.78105 0.0
H1639 H 0.20466 0.12394 0.805 0.0
H1640 H 0.13338 0.11086 0.75004 0.0
H1641 H 0.12269 0.09783 0.70572 0.0
C1642 C 0.85634 0.39616 0.46989 0.0
C1643 C 0.83569 0.37563 0.48264 0.0
C1644 C 0.83338 0.33511 0.43177 0.0
C1645 C 0.8563 0.35483 0.42108 0.0
N1646 N 0.89318 0.40262 0.43348 0.0
N1647 N 0.80667 0.32451 0.47766 0.0
C1648 C 0.86884 0.38485 0.44124 0.0
C1649 C 0.82458 0.34483 0.46395 0.0
N1650 N 0.86284 0.427 0.48396 0.0
N1651 N 0.81994 0.30715 0.41106 0.0
H1652 H 0.79993 0.33085 0.501 0.0
H1653 H 0.80025 0.301 0.4673 0.0
H1654 H 0.82681 0.2989 0.38832 0.0
H1655 H 0.80094 0.293 0.41523 0.0
H1656 H 0.87506 0.44347 0.47334 0.0
H1657 H 0.85338 0.43665 0.50406 0.0
H1658 H 0.90575 0.4228 0.44986 0.0
H1659 H 0.90193 0.39639 0.41155 0.0
C1660 C 0.54635 0.13659 0.21395 0.0
C1661 C 0.55262 0.12371 0.24316 0.0
C1662 C 0.58258 0.09289 0.21174 0.0
C1663 C 0.57308 0.10313 0.18171 0.0
N1664 N 0.53883 0.12819 0.15221 0.0
N1665 N 0.56978 0.08212 0.26497 0.0
C1666 C 0.55249 0.12269 0.18209 0.0
C1667 C 0.56899 0.09985 0.24093 0.0
N1668 N 0.53581 0.16302 0.21685 0.0
N1669 N 0.60423 0.07617 0.21236 0.0
H1670 H 0.55782 0.0839 0.28492 0.0
H1671 H 0.57929 0.0629 0.2626 0.0
H1672 H 0.61352 0.06937 0.19091 0.0
H1673 H 0.61425 0.07097 0.23476 0.0
H1674 H 0.53057 0.17319 0.19631 0.0
H1675 H 0.53558 0.17681 0.24042 0.0
H1676 H 0.52142 0.13977 0.15095 0.0
H1677 H 0.54246 0.11836 0.12824 0.0
C1678 C 0.7957 0.74044 0.88342 0.0
C1679 C 0.80882 0.75225 0.91833 0.0
C1680 C 0.82805 0.8024 0.90505 0.0
C1681 C 0.81808 0.7894 0.86974 0.0
N1682 N 0.797 0.74435 0.82468 0.0
N1683 N 0.8421 0.79319 0.96167 0.0
C1684 C 0.80304 0.75796 0.8587 0.0
C1685 C 0.82606 0.78299 0.92908 0.0
N1686 N 0.77554 0.71286 0.87397 0.0
N1687 N 0.83912 0.83339 0.91571 0.0
H1688 H 0.84211 0.77975 0.98007 0.0
H1689 H 0.85769 0.81403 0.96961 0.0
H1690 H 0.84143 0.8482 0.89874 0.0
H1691 H 0.84359 0.84474 0.94133 0.0
H1692 H 0.76289 0.70458 0.84941 0.0
H1693 H 0.76923 0.69967 0.89152 0.0
H1694 H 0.789 0.72079 0.81549 0.0
H1695 H 0.80282 0.75606 0.80584 0.0
C1696 C 1.00495 0.16862 0.04506 0.0
C1697 C 1.00006 0.18227 0.07812 0.0
C1698 C 1.02922 0.14976 0.10343 0.0
C1699 C 1.03827 0.13987 0.07203 0.0
N1700 N 1.03807 0.14386 0.01336 0.0
N1701 N 1.01734 0.19245 0.13938 0.0
C1702 C 1.02716 0.15049 0.04284 0.0
C1703 C 1.01529 0.17492 0.10748 0.0
N1704 N 0.98769 0.17133 0.01588 0.0
N1705 N 1.03309 0.13442 0.12924 0.0
H1706 H 1.00976 0.21288 0.1433 0.0
H1707 H 1.03002 0.18878 0.16117 0.0
H1708 H 1.04002 0.11375 0.12523 0.0
H1709 H 1.02522 0.13968 0.15208 0.0
H1710 H 0.98875 0.15937 0.99164 0.0
H1711 H 0.97037 0.18298 0.01579 0.0
H1712 H 1.0332 0.15384 0.99247 0.0
H1713 H 0.05359 0.12999 0.01088 0.0
C1714 C 0.49822 0.56042 0.12982 0.0
C1715 C 0.50031 0.55053 0.16142 0.0
C1716 C 0.55264 0.54783 0.16012 0.0
C1717 C 0.55073 0.55828 0.12882 0.0
N1718 N 0.52369 0.57956 0.08682 0.0
N1719 N 0.53062 0.54058 0.21006 0.0
C1720 C 0.52406 0.56604 0.11454 0.0
C1721 C 0.528 0.54637 0.1778 0.0
N1722 N 0.47123 0.56385 0.11408 0.0
N1723 N 0.57712 0.53721 0.17172 0.0
H1724 H 0.51278 0.53826 0.2232 0.0
H1725 H 0.55092 0.54062 0.22494 0.0
H1726 H 0.5952 0.53686 0.15907 0.0
H1727 H 0.57858 0.52625 0.19227 0.0
H1728 H 0.46696 0.5667 0.08896 0.0
H1729 H 0.45247 0.56257 0.12578 0.0
H1730 H 0.50617 0.5889 0.07731 0.0
H1731 H 0.54197 0.58359 0.07464 0.0
C1732 C 0.42552 0.7005 0.79021 0.0
C1733 C 0.41716 0.67818 0.81028 0.0
C1734 C 0.38893 0.71555 0.83867 0.0
C1735 C 0.39894 0.73871 0.82018 0.0
N1736 N 0.43097 0.75317 0.78107 0.0
N1737 N 0.39304 0.66737 0.85698 0.0
C1738 C 0.41846 0.731 0.79685 0.0
C1739 C 0.39952 0.68676 0.83545 0.0
N1740 N 0.44014 0.69246 0.76402 0.0
N1741 N 0.36885 0.72092 0.8595 0.0
H1742 H 0.39898 0.64609 0.85455 0.0
H1743 H 0.38357 0.67303 0.87849 0.0
H1744 H 0.36214 0.74178 0.86418 0.0
H1745 H 0.35751 0.7043 0.87059 0.0
H1746 H 0.44357 0.70521 0.74533 0.0
H1747 H 0.4471 0.67174 0.7595 0.0
H1748 H 0.44794 0.75106 0.76705 0.0
H1749 H 0.42595 0.77484 0.78401 0.0
C1750 C 0.32444 0.66241 0.56072 0.0
C1751 C 0.34169 0.69098 0.58033 0.0
C1752 C 0.30416 0.69475 0.61685 0.0
C1753 C 0.28524 0.66833 0.59468 0.0
N1754 N 0.27574 0.62721 0.54486 0.0
N1755 N 0.34681 0.73657 0.6245 0.0
C1756 C 0.29498 0.65198 0.5665 0.0
C1757 C 0.3313 0.7077 0.60781 0.0
N1758 N 0.3363 0.64546 0.53679 0.0
N1759 N 0.29635 0.70722 0.64689 0.0
H1760 H 0.36745 0.74684 0.61981 0.0
H1761 H 0.3383 0.75136 0.64148 0.0
H1762 H 0.27628 0.69874 0.65431 0.0
H1763 H 0.31088 0.72422 0.66599 0.0
H1764 H 0.326 0.62317 0.52364 0.0
H1765 H 0.35762 0.65305 0.53176 0.0
H1766 H 0.28026 0.61611 0.5219 0.0
H1767 H 0.25431 0.61868 0.54903 0.0
C1768 C 0.77357 0.93622 0.79482 0.0
C1769 C 0.76335 0.94837 0.82473 0.0
C1770 C 0.78993 0.91601 0.85552 0.0
C1771 C 0.80356 0.90793 0.82682 0.0
N1772 N 0.81497 0.9196 0.77328 0.0
N1773 N 0.76758 0.95416 0.88629 0.0
C1774 C 0.79741 0.9209 0.79775 0.0
C1775 C 0.77302 0.93945 0.85597 0.0
N1776 N 0.75996 0.93834 0.76327 0.0
N1777 N 0.79222 0.90086 0.8818 0.0
H1778 H 0.75629 0.97203 0.88832 0.0
H1779 H 0.77686 0.95054 0.9099 0.0
H1780 H 0.80367 0.88314 0.88197 0.0
H1781 H 0.78057 0.90412 0.90194 0.0
H1782 H 0.76536 0.92757 0.7406 0.0
H1783 H 0.74089 0.94736 0.75967 0.0
H1784 H 0.81248 0.93075 0.75291 0.0
H1785 H 0.83429 0.91094 0.77585 0.0
C1786 C 0.82977 0.07017 0.70786 0.0
C1787 C 0.85874 0.08921 0.71318 0.0
C1788 C 0.83698 0.12988 0.6934 0.0
C1789 C 0.80871 0.10903 0.68384 0.0
N1790 N 0.77729 0.06025 0.68526 0.0
N1791 N 0.89059 0.13778 0.71355 0.0
C1792 C 0.8048 0.07976 0.6926 0.0
C1793 C 0.86248 0.11959 0.70739 0.0
N1794 N 0.82537 0.04204 0.71629 0.0
N1795 N 0.8392 0.15934 0.6888 0.0
H1796 H 0.90934 0.13105 0.72476 0.0
H1797 H 0.89571 0.1591 0.70702 0.0
H1798 H 0.82079 0.16716 0.67854 0.0
H1799 H 0.85845 0.17665 0.69712 0.0
H1800 H 0.84233 0.03327 0.72834 0.0
H1801 H 0.84233 0.03327 0.72834 0.0
H1802 H 0.77379 0.03845 0.69107 0.0
H1803 H 0.75804 0.06572 0.67351 0.0
C1804 C 0.39681 0.48377 0.83282 0.0
C1805 C 0.41723 0.49089 0.81028 0.0
C1806 C 0.41441 0.4336 0.7939 0.0
C1807 C 0.39404 0.4264 0.81643 0.0
N1808 N 0.36146 0.44561 0.85199 0.0
N1809 N 0.44048 0.47048 0.76448 0.0
C1810 C 0.3839 0.45188 0.83408 0.0
C1811 C 0.42446 0.46502 0.78954 0.0
N1812 N 0.39071 0.50769 0.85445 0.0
N1813 N 0.4245 0.41003 0.77644 0.0
H1814 H 0.44765 0.49253 0.76025 0.0
H1815 H 0.44443 0.4533 0.74596 0.0
H1816 H 0.41556 0.38702 0.77606 0.0
H1817 H 0.44231 0.41311 0.76344 0.0
H1818 H 0.37921 0.50507 0.87446 0.0
H1819 H 0.39881 0.53057 0.8535 0.0
H1820 H 0.35082 0.46206 0.86321 0.0
H1821 H 0.35154 0.42318 0.85285 0.0
C1822 C 0.27345 0.6267 0.36856 0.0
C1823 C 0.26573 0.59678 0.34733 0.0
C1824 C 0.29762 0.615 0.30832 0.0
C1825 C 0.30061 0.64565 0.32587 0.0
N1826 N 0.28868 0.68139 0.37129 0.0
N1827 N 0.26554 0.5645 0.29211 0.0
C1828 C 0.28809 0.65178 0.35591 0.0
C1829 C 0.27676 0.59125 0.31605 0.0
N1830 N 0.26703 0.63106 0.40086 0.0
N1831 N 0.31458 0.60857 0.28403 0.0
H1832 H 0.24828 0.54715 0.29466 0.0
H1833 H 0.27092 0.5611 0.26768 0.0
H1834 H 0.33035 0.62554 0.27804 0.0
H1835 H 0.31529 0.58617 0.27286 0.0
H1836 H 0.27455 0.65184 0.41864 0.0
H1837 H 0.25673 0.61303 0.41096 0.0
H1838 H 0.2771 0.687 0.391 0.0
H1839 H 0.29872 0.70042 0.36262 0.0
C1840 C 0.65074 0.81046 0.52801 0.0
C1841 C 0.65026 0.79803 0.49293 0.0
C1842 C 0.65415 0.74815 0.5072 0.0
C1843 C 0.65677 0.76146 0.5425 0.0
N1844 N 0.65785 0.80548 0.5868 0.0
N1845 N 0.65561 0.75628 0.44953 0.0
C1846 C 0.65525 0.79261 0.55288 0.0
C1847 C 0.65286 0.76709 0.48255 0.0
N1848 N 0.64662 0.83943 0.5387 0.0
N1849 N 0.6519 0.71718 0.49716 0.0
H1850 H 0.65467 0.76934 0.43074 0.0
H1851 H 0.66109 0.73526 0.44124 0.0
H1852 H 0.65321 0.70267 0.51444 0.0
H1853 H 0.64648 0.70539 0.4717 0.0
H1854 H 0.6421 0.85413 0.5224 0.0
H1855 H 0.6421 0.85413 0.5224 0.0
H1856 H 0.65682 0.82836 0.59538 0.0
H1857 H 0.66159 0.79352 0.60626 0.0
C1858 C 0.72672 0.35146 0.79377 0.0
C1859 C 0.70564 0.327 0.80087 0.0
C1860 C 0.74993 0.31048 0.82882 0.0
C1861 C 0.77079 0.33055 0.8151 0.0
N1862 N 0.77584 0.37041 0.78181 0.0
N1863 N 0.69949 0.27986 0.82168 0.0
C1864 C 0.75828 0.35119 0.79698 0.0
C1865 C 0.71794 0.30571 0.8176 0.0
N1866 N 0.71676 0.37613 0.7852 0.0
N1867 N 0.76043 0.2969 0.85423 0.0
H1868 H 0.6764 0.27497 0.81377 0.0
H1869 H 0.70751 0.26195 0.83009 0.0
H1870 H 0.78285 0.30219 0.86594 0.0
H1871 H 0.74642 0.28406 0.86702 0.0
H1872 H 0.731 0.3962 0.78315 0.0
H1873 H 0.69457 0.37803 0.78431 0.0
H1874 H 0.76707 0.38193 0.76397 0.0
H1875 H 0.7989 0.37401 0.78534 0.0
C1876 C 0.1284 0.44221 0.03336 0.0
C1877 C 0.12111 0.44126 0.99774 0.0
C1878 C 0.12393 0.49691 0.01014 0.0
C1879 C 0.12585 0.49679 0.04569 0.0
N1880 N 0.13159 0.46971 0.09169 0.0
N1881 N 0.10844 0.46699 0.95207 0.0
C1882 C 0.12862 0.4695 0.05744 0.0
C1883 C 0.11841 0.46849 0.98603 0.0
N1884 N 0.13615 0.4173 0.04407 0.0
N1885 N 0.12725 0.52392 0.99901 0.0
H1886 H 0.10368 0.4467 0.93347 0.0
H1887 H 0.10224 0.48533 0.94271 0.0
H1888 H 0.12967 0.54536 0.0148 0.0
H1889 H 0.12979 0.52531 0.97406 0.0
H1890 H 0.14446 0.41733 0.06943 0.0
H1891 H 0.13693 0.39729 0.02708 0.0
H1892 H 0.12963 0.44989 0.10162 0.0
H1893 H 0.1351 0.48984 0.11035 0.0
C1894 C 0.99447 0.79413 0.3165 0.0
C1895 C 1.01545 0.81833 0.30867 0.0
C1896 C 0.97464 0.84799 0.30721 0.0
C1897 C 0.95493 0.82508 0.31853 0.0
N1898 N 0.94997 0.77855 0.34033 0.0
N1899 N 1.02577 0.87145 0.30389 0.0
C1900 C 0.96622 0.79904 0.32534 0.0
C1901 C 1.00543 0.84602 0.30581 0.0
N1902 N 1.00032 0.76539 0.31318 0.0
N1903 N 0.9642 0.87219 0.29805 0.0
H1904 H 0.04841 0.87177 0.30472 0.0
H1905 H 1.02096 0.89316 0.30536 0.0
H1906 H 0.94312 0.87597 0.30104 0.0
H1907 H 0.97573 0.88743 0.28544 0.0
H1908 H 0.98475 0.74612 0.31487 0.0
H1909 H 1.01919 0.75987 0.30458 0.0
H1910 H 0.95831 0.76117 0.34958 0.0
H1911 H 0.92924 0.78059 0.34636 0.0
C1912 C 0.56282 0.335 0.04438 0.0
C1913 C 0.58144 0.31873 0.06119 0.0
C1914 C 0.62564 0.35877 0.06376 0.0
C1915 C 0.6067 0.37616 0.04937 0.0
N1916 N 0.5594 0.37835 0.01738 0.0
N1917 N 0.63059 0.30996 0.07817 0.0
C1918 C 0.57592 0.36327 0.03657 0.0
C1919 C 0.61297 0.32879 0.06755 0.0
N1920 N 0.53257 0.32396 0.03748 0.0
N1921 N 0.65529 0.37172 0.07571 0.0
H1922 H 0.62184 0.28803 0.08165 0.0
H1923 H 0.65376 0.31483 0.08069 0.0
H1924 H 0.66541 0.39333 0.07241 0.0
H1925 H 0.66963 0.36186 0.09033 0.0
H1926 H 0.5172 0.33625 0.02893 0.0
H1927 H 0.52279 0.30244 0.04141 0.0
H1928 H 0.53738 0.36922 1.00507 0.0
H1929 H 0.5686 0.39921 0.01148 0.0
C1930 C 0.09561 0.40444 0.47933 0.0
C1931 C 0.12451 0.41164 0.47104 0.0
C1932 C 0.10298 0.41944 0.41508 0.0
C1933 C 0.07429 0.4127 0.42374 0.0
N1934 N 1.0439 0.40799 0.46723 0.0
N1935 N 0.15651 0.43388 0.43559 0.0
C1936 C 0.07087 0.4084 0.45702 0.0
C1937 C 0.12845 0.42171 0.44029 0.0
N1938 N 0.0913 0.39158 0.50693 0.0
N1939 N 0.10578 0.42272 0.38261 0.0
H1940 H 0.17554 0.43642 0.45405 0.0
H1941 H 0.16065 0.44415 0.41512 0.0
H1942 H 0.0875 0.42206 0.3639 0.0
H1943 H 0.1259 0.42424 0.37366 0.0
H1944 H 0.0702 0.3825 0.51148 0.0
H1945 H 0.10851 0.38732 0.52375 0.0
H1946 H 1.04103 0.40816 0.4924 0.0
H1947 H 1.02506 0.41054 0.45141 0.0
C1948 C 0.99839 0.64585 0.61231 0.0
C1949 C 1.00091 0.66395 0.58741 0.0
C1950 C 1.03574 0.6352 0.56379 0.0
C1951 C 1.03871 0.62275 0.59382 0.0
N1952 N 1.01492 0.60903 0.64067 0.0
N1953 N 1.00673 0.66213 0.52913 0.0
C1954 C 1.01743 0.62542 0.61576 0.0
C1955 C 1.01431 0.65365 0.55939 0.0
N1956 N 0.97817 0.64798 0.63347 0.0
N1957 N 0.05463 0.63167 0.54102 0.0
H1958 H 0.99041 0.675 0.52602 0.0
H1959 H 1.01403 0.65379 0.50675 0.0
H1960 H 0.07022 0.61794 0.54256 0.0
H1961 H 0.05572 0.64355 0.52124 0.0
H1962 H 0.96238 0.66153 0.63113 0.0
H1963 H 0.96238 0.66153 0.63113 0.0
H1964 H 1.02715 0.59237 0.64418 0.0
H1965 H 1.02715 0.59237 0.64418 0.0
C1966 C 0.72782 0.84405 0.8885 0.0
C1967 C 0.7177 0.87185 0.89039 0.0
C1968 C 0.70459 0.86091 0.82775 0.0
C1969 C 0.71936 0.83613 0.82548 0.0
N1970 N 0.74826 0.80599 0.85524 0.0
N1971 N 0.70094 0.90941 0.86098 0.0
C1972 C 0.73157 0.82789 0.85623 0.0
C1973 C 0.70752 0.88114 0.85978 0.0
N1974 N 0.73429 0.83322 0.9176 0.0
N1975 N 0.68709 0.86465 0.79921 0.0
H1976 H 0.70261 0.92511 0.88373 0.0
H1977 H 0.69621 0.91824 0.8392 0.0
H1978 H 0.6836 0.84941 0.77559 0.0
H1979 H 0.67351 0.88059 0.79989 0.0
H1980 H 0.73792 0.81117 0.91732 0.0
H1981 H 0.73406 0.84547 0.94201 0.0
H1982 H 0.76059 0.80208 0.87705 0.0
H1983 H 0.75176 0.79302 0.83285 0.0
C1984 C 0.53922 0.56264 0.72453 0.0
C1985 C 0.5277 0.58902 0.73608 0.0
C1986 C 0.55805 0.61581 0.69844 0.0
C1987 C 0.56912 0.58889 0.68673 0.0
N1988 N 0.58007 0.54316 0.70407 0.0
N1989 N 0.52583 0.64099 0.73233 0.0
C1990 C 0.56238 0.56414 0.70408 0.0
C1991 C 0.53705 0.61566 0.72238 0.0
N1992 N 0.52713 0.53517 0.73187 0.0
N1993 N 0.56974 0.64251 0.68921 0.0
H1994 H 0.5123 0.64231 0.75084 0.0
H1995 H 0.52866 0.66029 0.72155 0.0
H1996 H 0.58704 0.64439 0.67533 0.0
H1997 H 0.56477 0.66367 0.69787 0.0
H1998 H 0.53212 0.51446 0.72105 0.0
H1999 H 0.50955 0.53241 0.74536 0.0
H2000 H 0.57777 0.52609 0.71834 0.0
H2001 H 0.60012 0.5459 0.69494 0.0
C2002 C 0.86115 0.26309 0.9496 0.0
C2003 C 0.88609 0.27945 0.97526 0.0
C2004 C 0.90204 0.31283 0.9367 0.0
C2005 C 0.8752 0.29889 0.9128 0.0
N2006 N 0.82724 0.26349 0.89822 0.0
N2007 N 0.92831 0.32234 0.99531 0.0
C2008 C 0.85426 0.27465 0.91962 0.0
C2009 C 0.90613 0.30491 0.96934 0.0
N2010 N 0.8447 0.23582 0.95324 0.0
N2011 N 0.9241 0.33288 0.92779 0.0
H2012 H 0.93203 0.31726 0.01956 0.0
H2013 H 0.94145 0.34321 0.99374 0.0
H2014 H 0.92215 0.33911 0.90406 0.0
H2015 H 0.94538 0.34118 0.94263 0.0
H2016 H 0.82829 0.22127 0.93377 0.0
H2017 H 0.84935 0.22621 0.9745 0.0
H2018 H 0.80954 0.2489 0.9044 0.0
H2019 H 0.82161 0.27078 0.87555 0.0
C2020 C 0.16058 0.51323 0.22483 0.0
C2021 C 0.14592 0.51775 0.25336 0.0
C2022 C 0.11322 0.5447 0.22206 0.0
C2023 C 0.13218 0.54581 0.19737 0.0
N2024 N 0.17486 0.53192 0.17562 0.0
N2025 N 0.09953 0.52392 0.27071 0.0
C2026 C 0.1559 0.52996 0.19858 0.0
C2027 C 0.11951 0.52946 0.24952 0.0
N2028 N 0.17713 0.49125 0.22143 0.0
N2029 N 0.08978 0.55905 0.21976 0.0
H2030 H 0.10219 0.50975 0.28815 0.0
H2031 H 0.07889 0.53 0.26846 0.0
H2032 H 0.08365 0.56871 0.19894 0.0
H2033 H 0.07711 0.56249 0.23885 0.0
H2034 H 0.18663 0.48543 0.19995 0.0
H2035 H 0.17729 0.47554 0.23742 0.0
H2036 H 0.19467 0.52412 0.17803 0.0
H2037 H 0.17205 0.54342 0.15559 0.0
C2038 C 0.86885 1.01158 0.54438 0.0
C2039 C 0.85596 1.00081 0.57076 0.0
C2040 C 0.82188 0.95867 0.52939 0.0
C2041 C 0.84091 0.9641 0.50572 0.0
N2042 N 0.87692 0.99898 0.48576 0.0
N2043 N 0.81564 0.97008 0.58891 0.0
C2044 C 0.86192 0.99234 0.51122 0.0
C2045 C 0.83018 0.9768 0.56315 0.0
N2046 N 0.88892 0.03915 0.55206 0.0
N2047 N 0.79743 0.93488 0.51979 0.0
H2048 H 0.82161 0.98391 0.61356 0.0
H2049 H 0.79801 0.9513 0.58609 0.0
H2050 H 0.79186 0.92159 0.49485 0.0
H2051 H 0.78194 0.92962 0.53532 0.0
H2052 H 0.89887 0.04923 0.53409 0.0
H2053 H 0.89393 0.0529 0.57676 0.0
H2054 H 0.89456 1.01779 0.48879 0.0
H2055 H 0.87142 0.98524 0.46113 0.0
C2056 C 0.55945 0.61496 0.94766 0.0
C2057 C 0.54154 0.586 0.92892 0.0
C2058 C 0.55181 0.56404 0.98019 0.0
C2059 C 0.57249 0.59175 0.99753 0.0
N2060 N 0.59504 0.64443 0.99871 0.0
N2061 N 0.52025 0.53282 0.92774 0.0
C2062 C 0.57568 0.61761 0.98168 0.0
C2063 C 0.53769 0.56056 0.94538 0.0
N2064 N 0.56116 0.63992 0.93276 0.0
N2065 N 0.54418 0.54156 0.9979 0.0
H2066 H 0.50638 0.52993 0.90414 0.0
H2067 H 0.52026 0.51225 0.93582 0.0
H2068 H 0.55296 0.54384 0.02364 0.0
H2069 H 0.52701 0.52214 0.98849 0.0
H2070 H 0.5709 0.66239 0.94566 0.0
H2071 H 0.55157 0.63848 0.90739 0.0
H2072 H 0.6016 0.66312 0.98774 0.0
H2073 H 0.60546 0.64787 0.02414 0.0
C2074 C 0.88916 0.2719 0.18268 0.0
C2075 C 0.91047 0.28936 0.16761 0.0
C2076 C 0.91346 0.33522 0.21252 0.0
C2077 C 0.89323 0.31735 0.22847 0.0
N2078 N 0.86464 0.26763 0.2312 0.0
N2079 N 0.94544 0.33631 0.16942 0.0
C2080 C 0.882 0.28539 0.21428 0.0
C2081 C 0.92336 0.32071 0.18292 0.0
N2082 N 0.8745 0.24275 0.16582 0.0
N2083 N 0.9227 0.36618 0.22536 0.0
H2084 H 0.95277 0.32624 0.14773 0.0
H2085 H 0.95787 0.35834 0.18075 0.0
H2086 H 0.91641 0.3772 0.24733 0.0
H2087 H 0.9351 0.3813 0.21339 0.0
H2088 H 0.85588 0.23034 0.17283 0.0
H2089 H 0.8794 0.23147 0.1431 0.0
H2090 H 0.85967 0.24368 0.22524 0.0
H2091 H 0.85661 0.27658 0.25273 0.0
C2092 C 0.15921 0.58104 0.47151 0.0
C2093 C 0.15067 0.55229 0.4478 0.0
C2094 C 0.12265 0.53055 0.48856 0.0
C2095 C 0.12831 0.56023 0.51039 0.0
N2096 N 0.14654 0.61506 0.51801 0.0
N2097 N 0.11928 0.50118 0.43116 0.0
C2098 C 0.14511 0.58586 0.50057 0.0
C2099 C 0.13102 0.52743 0.45561 0.0
N2100 N 0.1817 0.60347 0.46712 0.0
N2101 N 0.1106 0.50502 0.49974 0.0
H2102 H 0.12453 0.49794 0.40667 0.0
H2103 H 0.10208 0.48397 0.43414 0.0
H2104 H 0.10488 0.50597 0.52388 0.0
H2105 H 0.10904 0.48268 0.48637 0.0
H2106 H 0.19098 0.62358 0.48554 0.0
H2107 H 0.1933 0.60062 0.44685 0.0
H2108 H 0.15613 0.63466 0.50999 0.0
H2109 H 0.13523 0.61982 0.53822 0.0
C2110 C 0.92521 0.94552 0.75044 0.0
C2111 C 0.90198 0.94966 0.72616 0.0
C2112 C 0.87391 0.89786 0.72596 0.0
C2113 C 0.89439 0.89635 0.75505 0.0
N2114 N 0.93678 0.92469 0.79975 0.0
N2115 N 0.85165 0.93098 0.69404 0.0
C2116 C 0.91945 0.92163 0.76855 0.0
C2117 C 0.87562 0.92607 0.71458 0.0
N2118 N 0.95317 0.96395 0.75589 0.0
N2119 N 0.85307 0.87218 0.70883 0.0
H2120 H 0.85155 0.95164 0.68607 0.0
H2121 H 0.83089 0.9157 0.68778 0.0
H2122 H 0.85226 0.8509 0.71557 0.0
H2123 H 0.83908 0.87125 0.68586 0.0
H2124 H 0.97155 0.95971 0.77096 0.0
H2125 H 0.95873 0.98112 0.74232 0.0
H2126 H 0.95279 0.94461 0.81173 0.0
H2127 H 0.93367 0.90913 0.81536 0.0
C2128 C 0.69323 0.49722 0.64001 0.0
C2129 C 0.72237 0.50865 0.63424 0.0
C2130 C 0.70981 0.55887 0.63118 0.0
C2131 C 0.67986 0.54661 0.63389 0.0
N2132 N 0.6449 0.50735 0.64936 0.0
N2133 N 0.75756 0.54888 0.62004 0.0
C2134 C 0.67213 0.5166 0.64068 0.0
C2135 C 0.73061 0.53927 0.62933 0.0
N2136 N 0.68559 0.46753 0.64391 0.0
N2137 N 0.71862 0.58928 0.63055 0.0
H2138 H 0.77343 0.53543 0.61793 0.0
H2139 H 0.76339 0.56915 0.61146 0.0
H2140 H 0.70425 0.60435 0.63061 0.0
H2141 H 0.74082 0.60048 0.63294 0.0
H2142 H 0.66401 0.45621 0.64446 0.0
H2143 H 0.70094 0.45342 0.64528 0.0
H2144 H 0.63831 0.487 0.65741 0.0
H2145 H 0.62958 0.52146 0.65136 0.0
C2146 C 0.2132 0.0998 0.50121 0.0
C2147 C 0.24219 0.11472 0.51961 0.0
C2148 C 0.22452 0.11331 0.57391 0.0
C2149 C 0.19482 0.10361 0.5557 0.0
N2150 N 0.16023 0.08503 0.50234 0.0
N2151 N 0.27588 0.13687 0.57358 0.0
C2152 C 0.18899 0.09553 0.51936 0.0
C2153 C 0.24813 0.12129 0.55604 0.0
N2154 N 0.20902 0.08958 0.46652 0.0
N2155 N 0.22996 0.11474 0.60842 0.0
H2156 H 0.29393 0.14319 0.56165 0.0
H2157 H 0.2806 0.14554 0.59992 0.0
H2158 H 0.21286 0.10855 0.62182 0.0
H2159 H 0.2513 0.11893 0.62301 0.0
H2160 H 0.18906 0.07622 0.45167 0.0
H2161 H 0.22641 0.09262 0.45276 0.0
H2162 H 0.15367 0.08231 0.47602 0.0
H2163 H 0.14263 0.07968 0.51511 0.0
C2164 C 0.33176 0.97405 0.85679 0.0
C2165 C 0.31624 0.98213 0.82743 0.0
C2166 C 0.32102 0.93075 0.79384 0.0
C2167 C 0.3343 0.92167 0.8237 0.0
N2168 N 0.34656 0.93439 0.88528 0.0
N2169 N 0.29134 0.96327 0.76871 0.0
C2170 C 0.33809 0.94341 0.85552 0.0
C2171 C 0.30977 0.95906 0.79621 0.0
N2172 N 0.34192 0.99622 0.88606 0.0
N2173 N 0.32012 0.91285 0.7625 0.0
H2174 H 0.28212 0.98261 0.76925 0.0
H2175 H 0.28275 0.94629 0.7466 0.0
H2176 H 0.32801 0.89261 0.75951 0.0
H2177 H 0.31423 0.91949 0.73951 0.0
H2178 H 0.35622 0.99347 0.90711 0.0
H2179 H 0.33852 1.01853 0.88807 0.0
H2180 H 0.3464 0.94716 0.90942 0.0
H2181 H 0.35085 0.91268 0.88581 0.0
C2182 C 0.35688 1.01573 0.04767 0.0
C2183 C 0.35584 1.00833 0.08015 0.0
C2184 C 0.40694 0.038 0.10166 0.0
C2185 C 0.40993 0.03906 0.06747 0.0
N2186 N 0.38806 0.03313 0.00833 0.0
N2187 N 0.37872 1.01339 0.13915 0.0
C2188 C 0.38472 0.02985 0.04067 0.0
C2189 C 0.38021 1.02059 0.10784 0.0
N2190 N 0.33126 1.00872 0.02369 0.0
N2191 N 0.43003 0.0528 0.12787 0.0
H2192 H 0.35939 1.00116 0.145 0.0
H2193 H 0.39702 1.01817 0.159 0.0
H2194 H 0.45012 0.06517 0.12383 0.0
H2195 H 0.42841 0.05523 0.15364 0.0
H2196 H 0.32985 1.01511 1.0001 0.0
H2197 H 0.31064 0.99853 0.02876 0.0
H2198 H 0.37159 0.0238 0.98666 0.0
H2199 H 0.40805 0.04479 1.00317 0.0
C2200 C 0.92383 0.72773 0.81962 0.0
C2201 C 0.94493 0.72526 0.79742 0.0
C2202 C 0.92484 0.76131 0.76645 0.0
C2203 C 0.90512 0.76518 0.78981 0.0
N2204 N 0.87928 0.74542 0.83155 0.0
N2205 N 0.96433 0.7392 0.74817 0.0
C2206 C 0.90283 0.7465 0.81449 0.0
C2207 C 0.94478 0.74136 0.77022 0.0
N2208 N 0.92387 0.71215 0.84573 0.0
N2209 N 0.92485 0.77674 0.74039 0.0
H2210 H 0.98042 0.72591 0.74945 0.0
H2211 H 0.98042 0.72591 0.74945 0.0
H2212 H 0.9113 0.79232 0.73701 0.0
H2213 H 0.93768 0.77276 0.7215 0.0
H2214 H 0.9121 0.71621 0.8656 0.0
H2215 H 0.93679 0.69596 0.84869 0.0
H2216 H 0.87434 0.73038 0.84767 0.0
H2217 H 0.86256 0.7574 0.82668 0.0
C2218 C 0.87073 0.56021 0.00607 0.0
C2219 C 0.88053 0.58663 0.99303 0.0
C2220 C 0.93053 0.57584 0.99687 0.0
C2221 C 0.92247 0.55485 0.01779 0.0
N2222 N 0.88465 0.52456 0.04048 0.0
N2223 N 0.92002 0.62002 0.97558 0.0
C2224 C 0.89227 0.54566 0.02114 0.0
C2225 C 0.91028 0.59404 0.98718 0.0
N2226 N 0.84085 0.54973 1.00464 0.0
N2227 N 0.95789 0.57893 0.98734 0.0
H2228 H 0.90603 0.63423 0.96855 0.0
H2229 H 0.94236 0.62851 0.97478 0.0
H2230 H 0.97309 0.56589 0.9946 0.0
H2231 H 0.96417 0.59193 0.96966 0.0
H2232 H 0.83186 0.52931 0.01146 0.0
H2233 H 0.8249 0.56026 0.99346 0.0
H2234 H 0.86373 0.51952 0.04731 0.0
H2235 H 0.89988 0.51291 0.05094 0.0
C2236 C 0.31244 0.17847 0.81387 0.0
C2237 C 0.3137 0.17277 0.84788 0.0
C2238 C 0.33638 0.22973 0.86907 0.0
C2239 C 0.33621 0.23504 0.83504 0.0
N2240 N 0.32948 0.2114 0.77543 0.0
N2241 N 0.33135 0.19376 0.90789 0.0
C2242 C 0.32575 0.20841 0.80773 0.0
C2243 C 0.32696 0.19878 0.87537 0.0
N2244 N 0.29688 0.1556 0.78694 0.0
N2245 N 0.34452 0.25463 0.89572 0.0
H2246 H 0.32486 0.17204 0.91325 0.0
H2247 H 0.34347 0.2103 0.92907 0.0
H2248 H 0.35236 0.27678 0.89226 0.0
H2249 H 0.34192 0.25375 0.92074 0.0
H2250 H 0.29158 0.15897 0.76214 0.0
H2251 H 0.28688 0.13381 0.7898 0.0
H2252 H 0.32567 0.19282 0.75479 0.0
H2253 H 0.33946 0.2322 0.77 0.0
C2254 C 0.43997 0.05209 0.32085 0.0
C2255 C 0.44 0.08266 0.33639 0.0
C2256 C 0.39715 0.06438 0.36221 0.0
C2257 C 0.40062 0.03395 0.35136 0.0
N2258 N 0.4274 0.99855 0.32342 0.0
N2259 N 0.41931 0.11896 0.372 0.0
C2260 C 0.42235 0.02762 0.33116 0.0
C2261 C 0.41847 0.08923 0.35676 0.0
N2262 N 0.45638 0.0465 0.29569 0.0
N2263 N 0.37358 0.06929 0.37769 0.0
H2264 H 0.43479 0.13766 0.36877 0.0
H2265 H 0.40572 0.1252 0.38923 0.0
H2266 H 0.35796 0.05134 0.38226 0.0
H2267 H 0.36813 0.09065 0.38362 0.0
H2268 H 0.45476 0.02467 0.28095 0.0
H2269 H 0.46926 0.06403 0.28703 0.0
H2270 H 0.44548 0.9936 0.31253 0.0
H2271 H 0.41508 0.97957 0.33024 0.0
C2272 C 0.59663 0.4036 0.69144 0.0
C2273 C 0.59411 0.37229 0.67568 0.0
C2274 C 0.57085 0.38145 0.62071 0.0
C2275 C 0.57589 0.41321 0.63569 0.0
N2276 N 0.59324 0.45526 0.68463 0.0
N2277 N 0.5785 0.33073 0.62588 0.0
C2278 C 0.58839 0.42443 0.67102 0.0
C2279 C 0.58103 0.36103 0.64045 0.0
N2280 N 0.60716 0.41343 0.72589 0.0
N2281 N 0.55558 0.37083 0.58778 0.0
H2282 H 0.58295 0.31442 0.64001 0.0
H2283 H 0.57288 0.32163 0.59967 0.0
H2284 H 0.54811 0.38525 0.57262 0.0
H2285 H 0.54842 0.34769 0.57597 0.0
H2286 H 0.60662 0.43488 0.73992 0.0
H2287 H 0.61537 0.39954 0.74123 0.0
H2288 H 0.60525 0.4659 0.70897 0.0
H2289 H 0.58633 0.4709 0.67087 0.0
C2290 C 0.49588 0.82493 0.34334 0.0
C2291 C 0.51694 0.85142 0.34005 0.0
C2292 C 0.47234 0.87046 0.31716 0.0
C2293 C 0.45134 0.84757 0.32705 0.0
N2294 N 0.44643 0.80262 0.35264 0.0
N2295 N 0.52162 0.90386 0.33234 0.0
C2296 C 0.46411 0.82481 0.34117 0.0
C2297 C 0.50409 0.87537 0.32937 0.0
N2298 N 0.50561 0.79874 0.34644 0.0
N2299 N 0.46248 0.8869 0.29437 0.0
H2300 H 0.544 0.91006 0.34414 0.0
H2301 H 0.51276 0.92251 0.32742 0.0
H2302 H 0.44056 0.88166 0.28104 0.0
H2303 H 0.47705 0.90229 0.28472 0.0
H2304 H 0.49121 0.77782 0.34542 0.0
H2305 H 0.52755 0.79679 0.34562 0.0
H2306 H 0.45515 0.78877 0.36768 0.0
H2307 H 0.42331 0.79868 0.34872 0.0
C2308 C 0.07485 0.69601 0.20996 0.0
C2309 C 0.09092 0.72348 0.20282 0.0
C2310 C 0.10273 0.69198 0.15259 0.0
C2311 C 0.09258 0.66455 0.16381 0.0
N2312 N 0.07427 0.64248 0.20952 0.0
N2313 N 0.1293 0.74444 0.17272 0.0
C2314 C 0.0799 0.66696 0.1942 0.0
C2315 C 0.10742 0.72069 0.17559 0.0
N2316 N 0.05423 0.69724 0.2309 0.0
N2317 N 0.1074 0.69098 0.11981 0.0
H2318 H 0.13712 0.76454 0.19151 0.0
H2319 H 0.14276 0.74211 0.15418 0.0
H2320 H 0.10146 0.67067 0.10112 0.0
H2321 H 0.11321 0.71085 0.11036 0.0
H2322 H 1.04038 0.67755 0.23454 0.0
H2323 H 0.04842 0.71766 0.24114 0.0
H2324 H 0.06748 0.64431 0.23322 0.0
H2325 H 0.07974 0.62155 0.201 0.0
C2326 C 0.23313 0.34942 0.87616 0.0
C2327 C 0.20785 0.33602 0.84911 0.0
C2328 C 0.24459 0.31933 0.81357 0.0
C2329 C 0.26999 0.33629 0.83899 0.0
N2330 N 0.28588 0.37435 0.89178 0.0
N2331 N 0.1925 0.31464 0.78851 0.0
C2332 C 0.26341 0.35325 0.86946 0.0
C2333 C 0.21455 0.32286 0.81685 0.0
N2334 N 0.22877 0.35715 0.90907 0.0
N2335 N 0.24855 0.29823 0.78682 0.0
H2336 H 0.17099 0.31825 0.78905 0.0
H2337 H 0.19656 0.30777 0.76385 0.0
H2338 H 0.26919 0.29305 0.78429 0.0
H2339 H 0.23077 0.28316 0.76952 0.0
H2340 H 0.24631 0.36404 0.93001 0.0
H2341 H 0.20783 0.35317 0.91603 0.0
H2342 H 0.28218 0.38943 0.9127 0.0
H2343 H 0.3075 0.37941 0.8869 0.0
C2344 C 0.64493 0.79615 0.01225 0.0
C2345 C 0.66149 0.82512 0.03192 0.0
C2346 C 0.66231 0.80462 0.08419 0.0
C2347 C 0.64342 0.77662 0.06495 0.0
N2348 N 0.61183 0.74779 0.01189 0.0
N2349 N 0.68012 0.859 0.08743 0.0
C2350 C 0.63321 0.77301 0.0293 0.0
C2351 C 0.66858 0.82997 0.06816 0.0
N2352 N 0.6416 0.79017 0.97732 0.0
N2353 N 0.67521 0.80669 0.11741 0.0
H2354 H 0.68426 0.87839 0.0768 0.0
H2355 H 0.68274 0.86426 0.11404 0.0
H2356 H 0.67143 0.78859 0.1301 0.0
H2357 H 0.69174 0.82542 0.13139 0.0
H2358 H 0.63245 0.76841 0.96193 0.0
H2359 H 0.65062 0.80615 0.96382 0.0
H2360 H 0.60135 0.74544 0.98666 0.0
H2361 H 0.60249 0.73049 0.02362 0.0
C2362 C 0.13942 0.79476 0.66526 0.0
C2363 C 0.11856 0.76614 0.65581 0.0
C2364 C 0.15488 0.74073 0.68224 0.0
C2365 C 0.17618 0.76908 0.69065 0.0
N2366 N 0.19143 0.82109 0.68316 0.0
N2367 N 0.10852 0.71079 0.64656 0.0
C2368 C 0.16931 0.79553 0.67993 0.0
C2369 C 0.12701 0.73873 0.66149 0.0
N2370 N 0.1304 0.82128 0.66182 0.0
N2371 N 0.16067 0.71618 0.69538 0.0
H2372 H 0.08805 0.70852 0.63062 0.0
H2373 H 0.11481 0.68994 0.64708 0.0
H2374 H 0.18069 0.71682 0.71129 0.0
H2375 H 0.14466 0.69604 0.69298 0.0
H2376 H 0.14382 0.84312 0.67203 0.0
H2377 H 0.10871 0.82162 0.65084 0.0
H2378 H 0.18827 0.8399 0.67269 0.0
H2379 H 0.21368 0.82237 0.69363 0.0
C2380 C 0.20578 0.5065 0.62598 0.0
C2381 C 0.19402 0.4774 0.63248 0.0
C2382 C 0.15075 0.49543 0.64915 0.0
C2383 C 0.15823 0.52042 0.63291 0.0
N2384 N 0.19511 0.55407 0.61268 0.0
N2385 N 0.16596 0.45172 0.66849 0.0
C2386 C 0.18695 0.52784 0.6244 0.0
C2387 C 0.17003 0.47451 0.65054 0.0
N2388 N 0.2346 0.51308 0.62106 0.0
N2389 N 0.12444 0.4908 0.661 0.0
H2390 H 0.18117 0.43749 0.67056 0.0
H2391 H 0.14972 0.44892 0.68372 0.0
H2392 H 0.11067 0.50662 0.66134 0.0
H2393 H 0.11601 0.47126 0.66979 0.0
H2394 H 0.24536 0.53438 0.61768 0.0
H2395 H 0.24846 0.49759 0.62369 0.0
H2396 H 0.21442 0.55946 0.60258 0.0
H2397 H 0.18191 0.57037 0.61282 0.0
C2398 C 0.52402 0.34994 0.29111 0.0
C2399 C 0.51796 0.31726 0.28746 0.0
C2400 C 0.51768 0.32487 0.34904 0.0
C2401 C 0.51299 0.35476 0.34918 0.0
N2402 N 0.53445 0.39974 0.33055 0.0
N2403 N 0.51195 0.27392 0.31568 0.0
C2404 C 0.52295 0.36879 0.32306 0.0
C2405 C 0.51601 0.30478 0.31727 0.0
N2406 N 0.53117 0.36302 0.26452 0.0
N2407 N 0.52872 0.3176 0.37893 0.0
H2408 H 0.51028 0.25785 0.2932 0.0
H2409 H 0.50782 0.26431 0.33663 0.0
H2410 H 0.53559 0.33437 0.40158 0.0
H2411 H 0.5352 0.2969 0.38001 0.0
H2412 H 0.53158 0.38602 0.26412 0.0
H2413 H 0.53655 0.35088 0.24262 0.0
H2414 H 0.54475 0.41164 0.31406 0.0
H2415 H 0.5361 0.41285 0.35514 0.0
C2416 C 0.70085 0.60056 0.48997 0.0
C2417 C 0.68781 0.60021 0.45546 0.0
C2418 C 0.63893 0.59965 0.476 0.0
C2419 C 0.65139 0.59735 0.50977 0.0
N2420 N 0.695 0.59209 0.54688 0.0
N2421 N 0.64193 0.59268 0.41533 0.0
C2422 C 0.68248 0.59646 0.51591 0.0
C2423 C 0.65618 0.59807 0.44859 0.0
N2424 N 0.73129 0.60702 0.49892 0.0
N2425 N 0.61028 0.60359 0.46985 0.0
H2426 H 0.65304 0.59009 0.39463 0.0
H2427 H 0.61877 0.58748 0.40799 0.0
H2428 H 0.59637 0.60296 0.48801 0.0
H2429 H 0.601 0.60955 0.4476 0.0
H2430 H 0.74262 0.61133 0.52408 0.0
H2431 H 0.74548 0.6113 0.48166 0.0
H2432 H 0.71597 0.58689 0.5516 0.0
H2433 H 0.68375 0.59153 0.56735 0.0
C2434 C 0.34305 0.91096 0.19388 0.0
C2435 C 0.31794 0.89313 0.16915 0.0
C2436 C 0.31309 0.85315 0.2033 0.0
C2437 C 0.3391 0.87024 0.22721 0.0
N2438 N 0.38194 0.91257 0.24191 0.0
N2439 N 0.28231 0.84509 0.14702 0.0
C2440 C 0.35491 0.89841 0.22155 0.0
C2441 C 0.30412 0.86347 0.17277 0.0
N2442 N 0.35551 0.94007 0.19105 0.0
N2443 N 0.29574 0.82814 0.21074 0.0
H2444 H 0.2743 0.85237 0.12506 0.0
H2445 H 0.27376 0.82195 0.1462 0.0
H2446 H 0.30104 0.82001 0.23286 0.0
H2447 H 0.27474 0.81695 0.19653 0.0
H2448 H 0.37122 0.95572 0.2103 0.0
H2449 H 0.34892 0.94942 0.17014 0.0
H2450 H 0.39617 0.93147 0.23728 0.0
H2451 H 0.39153 0.9037 0.26187 0.0
C2452 C 0.09053 0.63818 0.98178 0.0
C2453 C 0.06588 0.62014 0.95644 0.0
C2454 C 0.06586 0.57775 0.98608 0.0
C2455 C 0.08615 0.597 0.0152 0.0
N2456 N 0.11981 0.64642 0.03907 0.0
N2457 N 1.02409 0.57635 0.94274 0.0
C2458 C 0.09899 0.62765 0.01272 0.0
C2459 C 0.05169 0.59114 0.96123 0.0
N2460 N 0.10681 0.6644 0.97562 0.0
N2461 N 0.06105 0.54642 0.98057 0.0
H2462 H 1.01156 0.58629 0.92605 0.0
H2463 H 1.01226 0.55602 0.94751 0.0
H2464 H 0.07376 0.53493 0.99498 0.0
H2465 H 0.04764 0.53211 0.9584 0.0
H2466 H 0.12677 0.67693 0.99125 0.0
H2467 H 0.10162 0.67234 0.95329 0.0
H2468 H 0.12661 0.67002 0.04094 0.0
H2469 H 0.13019 0.63849 0.05924 0.0
C2470 C 0.39448 0.20191 0.58111 0.0
C2471 C 0.38245 0.21179 0.55187 0.0
C2472 C 0.38922 0.26365 0.58569 0.0
C2473 C 0.39181 0.25109 0.61542 0.0
N2474 N 0.40214 0.21034 0.64309 0.0
N2475 N 0.3839 0.254 0.5235 0.0
C2476 C 0.397 0.22106 0.61374 0.0
C2477 C 0.38528 0.24361 0.55328 0.0
N2478 N 0.40396 0.17495 0.5775 0.0
N2479 N 0.38829 0.29396 0.58867 0.0
H2480 H 0.38224 0.23903 0.50003 0.0
H2481 H 0.38678 0.27707 0.52219 0.0
H2482 H 0.39207 0.30897 0.61249 0.0
H2483 H 0.38362 0.30417 0.56798 0.0
H2484 H 0.41438 0.16732 0.59793 0.0
H2485 H 0.40503 0.16241 0.55352 0.0
H2486 H 0.40245 0.18744 0.64333 0.0
H2487 H 0.40508 0.22442 0.66734 0.0
C2488 C 0.68207 0.59204 0.26091 0.0
C2489 C 0.70208 0.57171 0.26422 0.0
C2490 C 0.6947 0.55934 0.2008 0.0
C2491 C 0.67147 0.57605 0.19777 0.0
N2492 N 0.63617 0.59748 0.22838 0.0
N2493 N 0.71793 0.52794 0.23435 0.0
C2494 C 0.66294 0.58896 0.22882 0.0
C2495 C 0.70537 0.55278 0.23325 0.0
N2496 N 0.6823 0.61592 0.28704 0.0
N2497 N 0.70816 0.55109 0.17366 0.0
H2498 H 0.72351 0.52059 0.25701 0.0
H2499 H 0.71889 0.51242 0.21228 0.0
H2500 H 0.70394 0.55807 0.15059 0.0
H2501 H 0.72656 0.54091 0.17586 0.0
H2502 H 0.66924 0.63204 0.28411 0.0
H2503 H 0.69821 0.62261 0.30941 0.0
H2504 H 0.62857 0.60512 0.25084 0.0
H2505 H 0.61993 0.59273 0.20632 0.0
C2506 C 0.30804 0.87427 0.9461 0.0
C2507 C 0.31488 0.86256 0.97605 0.0
C2508 C 0.3349 0.82266 0.9421 0.0
C2509 C 0.32957 0.83568 0.91276 0.0
N2510 N 0.29717 0.86293 0.8841 0.0
N2511 N 0.32733 0.82075 1.00031 0.0
C2512 C 0.31176 0.85806 0.9138 0.0
C2513 C 0.3261 0.83522 0.97334 0.0
N2514 N 0.29957 0.90178 0.94847 0.0
N2515 N 0.34806 0.79796 0.93985 0.0
H2516 H 0.32024 0.82889 0.02296 0.0
H2517 H 0.3329 0.79946 0.99949 0.0
H2518 H 0.35042 0.78541 0.91643 0.0
H2519 H 0.35662 0.78989 0.96091 0.0
H2520 H 0.29761 0.91286 0.92801 0.0
H2521 H 0.29723 0.91497 0.97149 0.0
H2522 H 0.28244 0.8777 0.88353 0.0
H2523 H 0.29606 0.84871 0.86039 0.0
C2524 C 0.08542 0.63008 0.76707 0.0
C2525 C 0.05461 0.62039 0.76774 0.0
C2526 C 0.05017 0.57845 0.71786 0.0
C2527 C 0.07955 0.59121 0.71392 0.0
N2528 N 0.12867 0.61723 0.74545 0.0
N2529 N 1.00708 0.58524 0.74347 0.0
C2530 C 0.09837 0.61371 0.74159 0.0
C2531 C 1.03684 0.59449 0.74307 0.0
N2532 N 0.10206 0.6557 0.78989 0.0
N2533 N 1.03628 0.54944 0.70013 0.0
H2534 H 0.99668 0.59471 0.76272 0.0
H2535 H 0.99223 0.56944 0.72351 0.0
H2536 H 0.04748 0.53517 0.68607 0.0
H2537 H 1.01568 0.53774 0.70353 0.0
H2538 H 0.12368 0.6661 0.78815 0.0
H2539 H 0.09336 0.66809 0.80897 0.0
H2540 H 0.14359 0.63165 0.76637 0.0
H2541 H 0.13864 0.60215 0.73064 0.0
C2542 C 0.32363 0.25138 0.41792 0.0
C2543 C 0.30054 0.22441 0.40679 0.0
C2544 C 0.28944 0.23822 0.35098 0.0
C2545 C 0.31516 0.26295 0.36068 0.0
N2546 N 0.36073 0.28722 0.40056 0.0
N2547 N 0.26271 0.19046 0.36209 0.0
C2548 C 0.33307 0.2683 0.3936 0.0
C2549 C 0.28377 0.21734 0.37311 0.0
N2550 N 0.33734 0.26049 0.45153 0.0
N2551 N 0.26995 0.23505 0.32111 0.0
H2552 H 0.25694 0.17555 0.3782 0.0
H2553 H 0.25227 0.18204 0.33663 0.0
H2554 H 0.27308 0.24958 0.30406 0.0
H2555 H 0.24924 0.21973 0.31459 0.0
H2556 H 0.3518 0.28184 0.46149 0.0
H2557 H 0.3326 0.24803 0.47015 0.0
H2558 H 0.37624 0.28969 0.42283 0.0
H2559 H 0.36957 0.29696 0.38187 0.0
C2560 C 0.50469 0.66773 0.5476 0.0
C2561 C 0.49618 0.67652 0.58013 0.0
C2562 C 0.52197 0.63913 0.60095 0.0
C2563 C 0.53554 0.63542 0.57179 0.0
N2564 N 0.54209 0.64893 0.51798 0.0
N2565 N 0.5067 0.6764 0.64086 0.0
C2566 C 0.52764 0.6506 0.54522 0.0
C2567 C 0.50752 0.66378 0.60771 0.0
N2568 N 0.49007 0.67393 0.51869 0.0
N2569 N 0.52283 0.61906 0.62234 0.0
H2570 H 0.5007 0.69737 0.64804 0.0
H2571 H 0.51631 0.66841 0.66151 0.0
H2572 H 0.53194 0.59974 0.61691 0.0
H2573 H 0.51109 0.61964 0.6426 0.0
H2574 H 0.49417 0.66583 0.49434 0.0
H2575 H 0.47146 0.68372 0.51821 0.0
H2576 H 0.53949 0.66222 0.49963 0.0
H2577 H 0.55802 0.63558 0.51511 0.0
C2578 C 1.0028 0.08145 0.64421 0.0
C2579 C 1.00059 0.06546 0.67131 0.0
C2580 C 0.05048 0.05512 0.66909 0.0
C2581 C 0.05128 0.06831 0.63974 0.0
N2582 N 1.03262 0.10047 0.60427 0.0
N2583 N 1.02432 0.04347 0.71499 0.0
C2584 C 1.02896 0.08391 0.62914 0.0
C2585 C 1.0253 0.05468 0.68579 0.0
N2586 N 0.97919 0.09313 0.63215 0.0
N2587 N 0.07347 0.04214 0.68012 0.0
H2588 H 1.00598 0.0423 0.72734 0.0
H2589 H 1.04217 0.03715 0.72851 0.0
H2590 H 0.09303 0.04403 0.66988 0.0
H2591 H 0.07333 0.02912 0.69888 0.0
H2592 H 0.9774 0.10203 0.6101 0.0
H2593 H 0.96068 0.09332 0.64417 0.0
H2594 H 1.01839 0.11425 0.59675 0.0
H2595 H 0.05129 0.10212 0.5925 0.0
C2596 C 0.9285 0.2057 0.28752 0.0
C2597 C 0.92333 0.18541 0.31076 0.0
C2598 C 0.89965 0.22569 0.34231 0.0
C2599 C 0.90649 0.24673 0.32031 0.0
N2600 N 0.93076 0.25649 0.27332 0.0
N2601 N 0.90599 0.17907 0.36296 0.0
C2602 C 0.92188 0.23647 0.29341 0.0
C2603 C 0.90956 0.1965 0.3389 0.0
N2604 N 0.93973 0.19549 0.25914 0.0
N2605 N 0.88309 0.23343 0.36661 0.0
H2606 H 0.91094 0.15735 0.3605 0.0
H2607 H 0.89982 0.18668 0.38626 0.0
H2608 H 0.877 0.25462 0.37115 0.0
H2609 H 0.87382 0.21837 0.38089 0.0
H2610 H 0.94043 0.20641 0.23859 0.0
H2611 H 0.94687 0.17486 0.25507 0.0
H2612 H 0.94503 0.25286 0.25602 0.0
H2613 H 0.92539 0.278 0.27546 0.0
C2614 C 0.81745 0.15689 0.04297 0.0
C2615 C 0.84609 0.15858 0.06165 0.0
C2616 C 0.82459 0.13702 0.10594 0.0
C2617 C 0.79654 0.14156 0.09125 0.0
N2618 N 0.76385 0.14769 0.04203 0.0
N2619 N 0.87417 0.13211 0.09658 0.0
C2620 C 0.79207 0.14823 0.058 0.0
C2621 C 0.84881 0.14245 0.08844 0.0
N2622 N 0.81512 0.16365 0.01118 0.0
N2623 N 0.82871 0.12979 0.13746 0.0
H2624 H 0.89092 0.13366 0.08179 0.0
H2625 H 0.87664 0.11856 0.11467 0.0
H2626 H 0.81146 0.12568 0.15116 0.0
H2627 H 0.84966 0.12978 0.15086 0.0
H2628 H 0.79508 0.16274 0.99531 0.0
H2629 H 0.83394 0.16839 0.99987 0.0
H2630 H 0.75906 0.15509 0.01936 0.0
H2631 H 0.74488 0.1396 0.05178 0.0
C2632 C 0.2604 0.42289 0.36424 0.0
C2633 C 0.24942 0.43262 0.33401 0.0
C2634 C 0.27736 0.40058 0.30162 0.0
C2635 C 0.28589 0.38839 0.33065 0.0
N2636 N 0.27957 0.38306 0.38768 0.0
N2637 N 0.23914 0.42091 0.27212 0.0
C2638 C 0.27549 0.39796 0.36139 0.0
C2639 C 0.25526 0.41833 0.30215 0.0
N2640 N 0.25831 0.43836 0.39582 0.0
N2641 N 0.29136 0.39682 0.27404 0.0
H2642 H 0.22122 0.43186 0.2713 0.0
H2643 H 0.24114 0.40877 0.24832 0.0
H2644 H 0.30913 0.38577 0.27309 0.0
H2645 H 0.2875 0.40779 0.25374 0.0
H2646 H 0.2687 0.43401 0.41853 0.0
H2647 H 0.24875 0.45743 0.39966 0.0
H2648 H 0.2698 0.38699 0.40931 0.0
H2649 H 0.29025 0.36465 0.38628 0.0
C2650 C 0.36054 0.60644 0.21232 0.0
C2651 C 0.3595 0.57545 0.21504 0.0
C2652 C 0.30519 0.56251 0.19515 0.0
C2653 C 0.30611 0.59348 0.19246 0.0
N2654 N 0.3329 0.64636 0.2062 0.0
N2655 N 0.33037 0.52663 0.21887 0.0
C2656 C 0.33329 0.61595 0.20361 0.0
C2657 C 0.3316 0.55436 0.2096 0.0
N2658 N 0.38749 0.62629 0.21607 0.0
N2659 N 0.27953 0.5405 0.18227 0.0
H2660 H 0.34933 0.52025 0.23007 0.0
H2661 H 0.31045 0.51146 0.21884 0.0
H2662 H 0.2596 0.54533 0.17147 0.0
H2663 H 0.27856 0.51703 0.17983 0.0
H2664 H 0.38977 0.64807 0.21042 0.0
H2665 H 0.40784 0.6203 0.22284 0.0
H2666 H 0.35133 0.66413 0.21751 0.0
H2667 H 0.3133 0.65391 0.19983 0.0
C2668 C 0.90687 0.97316 0.28603 0.0
C2669 C 0.91745 0.99811 0.31534 0.0
C2670 C 0.90031 0.9596 0.35084 0.0
C2671 C 0.89283 0.93398 0.32212 0.0
N2672 N 0.89118 0.91752 0.26186 0.0
N2673 N 0.92557 1.01301 0.37672 0.0
C2674 C 0.89639 0.94133 0.28954 0.0
C2675 C 0.91431 0.99052 0.34789 0.0
N2676 N 0.90693 0.97989 0.25441 0.0
N2677 N 0.89299 0.95461 0.3813 0.0
H2678 H 0.93375 0.03589 0.37581 0.0
H2679 H 0.9283 1.00882 0.40138 0.0
H2680 H 0.8825 0.93305 0.38432 0.0
H2681 H 0.89449 0.97211 0.40248 0.0
H2682 H 0.89728 0.96422 0.23157 0.0
H2683 H 0.91469 1.00219 0.2512 0.0
H2684 H 0.8963 0.91988 0.23807 0.0
H2685 H 0.88319 0.89476 0.26337 0.0
C2686 C 0.78138 0.13601 0.85761 0.0
C2687 C 0.77678 0.10505 0.83994 0.0
C2688 C 0.81544 0.12039 0.80703 0.0
C2689 C 0.81507 0.15146 0.81923 0.0
N2690 N 0.79623 0.18951 0.85492 0.0
N2691 N 0.78632 0.06852 0.79293 0.0
C2692 C 0.79803 0.15959 0.84466 0.0
C2693 C 0.79338 0.09718 0.81377 0.0
N2694 N 0.76985 0.14278 0.88668 0.0
N2695 N 0.83648 0.11312 0.78843 0.0
H2696 H 0.7687 0.05113 0.79446 0.0
H2697 H 0.79591 0.06306 0.77142 0.0
H2698 H 0.85273 0.1299 0.78283 0.0
H2699 H 0.83971 0.09078 0.78213 0.0
H2700 H 0.77474 0.16469 0.90234 0.0
H2701 H 0.75787 0.12579 0.89693 0.0
H2702 H 0.78125 0.19611 0.87021 0.0
H2703 H 0.80814 0.20756 0.84617 0.0
loop_
_geom_bond_atom_site_label_1
_geom_bond_atom_site_label_2
_geom_bond_distance
_geom_bond_site_symmetry_2
_ccdc_geom_bond_type
O0 Cd1 2.223 . S
O0 C8 1.315 . S
Cd1 O0 2.223 . S
Cd1 O4 2.297 . S
Cd1 O5 2.439 . S
Cd1 O11 2.240 . S
Cd2 O3 2.240 . S
Cd2 O10 2.223 . S
Cd2 O12 2.297 . S
Cd2 O13 2.439 . S
O3 Cd2 2.240 . S
O3 C8 1.279 . S
O4 Cd1 2.297 . S
O4 C6 1.247 . S
O5 Cd1 2.439 . S
O5 C6 1.208 . S
C6 O4 1.247 . S
C6 O5 1.208 . S
C7 O12 1.247 . S
C7 O13 1.208 . S
C8 O0 1.315 . S
C8 O3 1.279 . S
C9 O10 1.315 . S
C9 O11 1.279 . S
O10 Cd2 2.223 . S
O10 C9 1.315 . S
O11 Cd1 2.240 . S
O11 C9 1.279 . S
O12 Cd2 2.297 . S
O12 C7 1.247 . S
O13 Cd2 2.439 . S
O13 C7 1.208 . S
O14 Cd15 2.218 1_455 S
O14 C22 1.314 1_455 S
Cd15 O14 2.218 1_655 S
Cd15 O18 2.297 . S
Cd15 O19 2.439 . S
Cd15 O25 2.240 1_655 S
Cd16 O17 2.240 1_455 S
Cd16 O24 2.223 . S
Cd16 O26 2.297 . S
Cd16 O27 2.439 1_455 S
O17 Cd16 2.240 1_655 S
O17 C22 1.279 . S
O18 Cd15 2.297 . S
O18 C20 1.247 . S
O19 Cd15 2.439 . S
O19 C20 1.208 . S
C20 O18 1.247 . S
C20 O19 1.208 . S
C21 O26 1.247 . S
C21 O27 1.208 1_455 S
C22 O14 1.314 1_655 S
C22 O17 1.279 . S
C23 O24 1.315 . S
C23 O25 1.279 . S
O24 Cd16 2.223 . S
O24 C23 1.315 . S
O25 Cd15 2.240 1_455 S
O25 C23 1.279 . S
O26 Cd16 2.297 . S
O26 C21 1.247 . S
O27 Cd16 2.439 1_655 S
O27 C21 1.208 1_655 S
O28 Cd29 2.223 . S
O28 C36 1.315 1_554 S
Cd29 O28 2.223 . S
Cd29 O32 2.297 . S
Cd29 O33 2.439 . S
Cd29 O39 2.240 . S
Cd30 O31 2.240 . S
Cd30 O38 2.223 . S
Cd30 O40 2.297 . S
Cd30 O41 2.439 . S
O31 Cd30 2.240 . S
O31 C36 1.279 . S
O32 Cd29 2.297 . S
O32 C34 1.247 . S
O33 Cd29 2.439 . S
O33 C34 1.208 . S
C34 O32 1.247 . S
C34 O33 1.208 . S
C35 O40 1.247 . S
C35 O41 1.208 . S
C36 O28 1.315 1_556 S
C36 O31 1.279 . S
C37 O38 1.315 1_554 S
C37 O39 1.279 . S
O38 Cd30 2.223 . S
O38 C37 1.315 1_556 S
O39 Cd29 2.240 . S
O39 C37 1.279 . S
O40 Cd30 2.297 . S
O40 C35 1.247 . S
O41 Cd30 2.439 . S
O41 C35 1.208 . S
O42 Cd43 2.223 . S
O42 C50 1.315 . S
Cd43 O42 2.223 . S
Cd43 O46 2.297 . S
Cd43 O47 2.439 . S
Cd43 O53 2.240 . S
Cd44 O45 2.240 . S
Cd44 O52 2.223 . S
Cd44 O54 2.297 . S
Cd44 O55 2.439 . S
O45 Cd44 2.240 . S
O45 C50 1.279 . S
O46 Cd43 2.297 . S
O46 C48 1.247 . S
O47 Cd43 2.439 . S
O47 C48 1.208 . S
C48 O46 1.247 . S
C48 O47 1.208 . S
C49 O54 1.247 . S
C49 O55 1.208 . S
C50 O42 1.315 . S
C50 O45 1.279 . S
C51 O52 1.315 . S
C51 O53 1.279 . S
O52 Cd44 2.223 . S
O52 C51 1.315 . S
O53 Cd43 2.240 . S
O53 C51 1.279 . S
O54 Cd44 2.297 . S
O54 C49 1.247 . S
O55 Cd44 2.439 . S
O55 C49 1.208 . S
O56 Cd57 2.223 . S
O56 C64 1.315 . S
Cd57 O56 2.223 . S
Cd57 O60 2.297 . S
Cd57 O61 2.439 . S
Cd57 O67 2.240 . S
Cd58 O59 2.240 . S
Cd58 O66 2.223 . S
Cd58 O68 2.297 . S
Cd58 O69 2.439 . S
O59 Cd58 2.240 . S
O59 C64 1.279 . S
O60 Cd57 2.297 . S
O60 C62 1.247 . S
O61 Cd57 2.439 . S
O61 C62 1.208 . S
C62 O60 1.247 . S
C62 O61 1.208 . S
C63 O68 1.247 . S
C63 O69 1.208 . S
C64 O56 1.315 . S
C64 O59 1.279 . S
C65 O66 1.315 . S
C65 O67 1.279 . S
O66 Cd58 2.223 . S
O66 C65 1.315 . S
O67 Cd57 2.240 . S
O67 C65 1.279 . S
O68 Cd58 2.297 . S
O68 C63 1.247 . S
O69 Cd58 2.439 . S
O69 C63 1.208 . S
O70 Cd71 2.223 . S
O70 C78 1.315 . S
Cd71 O70 2.223 . S
Cd71 O74 2.297 . S
Cd71 O75 2.439 . S
Cd71 O81 2.240 . S
Cd72 O73 2.240 . S
Cd72 O80 2.223 . S
Cd72 O82 2.297 . S
Cd72 O83 2.439 . S
O73 Cd72 2.240 . S
O73 C78 1.279 . S
O74 Cd71 2.297 . S
O74 C76 1.247 . S
O75 Cd71 2.439 . S
O75 C76 1.208 . S
C76 O74 1.247 . S
C76 O75 1.208 . S
C77 O82 1.247 . S
C77 O83 1.208 . S
C78 O70 1.315 . S
C78 O73 1.279 . S
C79 O80 1.315 . S
C79 O81 1.279 . S
O80 Cd72 2.223 . S
O80 C79 1.315 . S
O81 Cd71 2.240 . S
O81 C79 1.279 . S
O82 Cd72 2.297 . S
O82 C77 1.247 . S
O83 Cd72 2.439 . S
O83 C77 1.208 . S
O84 Cd85 2.223 . S
O84 C92 1.315 . S
Cd85 O84 2.223 . S
Cd85 O88 2.297 . S
Cd85 O89 2.439 . S
Cd85 O95 2.240 . S
Cd86 O87 2.240 . S
Cd86 O94 2.223 . S
Cd86 O96 2.297 . S
Cd86 O97 2.439 . S
O87 Cd86 2.240 . S
O87 C92 1.279 . S
O88 Cd85 2.297 . S
O88 C90 1.247 . S
O89 Cd85 2.439 . S
O89 C90 1.208 . S
C90 O88 1.247 . S
C90 O89 1.208 . S
C91 O96 1.247 . S
C91 O97 1.208 . S
C92 O84 1.315 . S
C92 O87 1.279 . S
C93 O94 1.315 . S
C93 O95 1.279 . S
O94 Cd86 2.223 . S
O94 C93 1.315 . S
O95 Cd85 2.240 . S
O95 C93 1.279 . S
O96 Cd86 2.297 . S
O96 C91 1.247 . S
O97 Cd86 2.439 . S
O97 C91 1.208 . S
O98 Cd99 2.223 . S
O98 C106 1.315 . S
Cd99 O98 2.223 . S
Cd99 O102 2.297 . S
Cd99 O103 2.439 . S
Cd99 O109 2.240 . S
Cd100 O101 2.240 . S
Cd100 O108 2.223 . S
Cd100 O110 2.297 . S
Cd100 O111 2.439 . S
O101 Cd100 2.240 . S
O101 C106 1.279 . S
O102 Cd99 2.297 . S
O102 C104 1.247 . S
O103 Cd99 2.439 . S
O103 C104 1.208 . S
C104 O102 1.247 . S
C104 O103 1.208 . S
C105 O110 1.247 . S
C105 O111 1.208 . S
C106 O98 1.315 . S
C106 O101 1.279 . S
C107 O108 1.315 . S
C107 O109 1.279 . S
O108 Cd100 2.223 . S
O108 C107 1.315 . S
O109 Cd99 2.240 . S
O109 C107 1.279 . S
O110 Cd100 2.297 . S
O110 C105 1.247 . S
O111 Cd100 2.439 . S
O111 C105 1.208 . S
O112 Cd113 2.223 . S
O112 C120 1.315 . S
Cd113 O112 2.223 . S
Cd113 O116 2.297 . S
Cd113 O117 2.439 . S
Cd113 O123 2.240 . S
Cd114 O115 2.240 . S
Cd114 O122 2.223 . S
Cd114 O124 2.297 . S
Cd114 O125 2.439 . S
O115 Cd114 2.240 . S
O115 C120 1.279 . S
O116 Cd113 2.297 . S
O116 C118 1.247 . S
O117 Cd113 2.439 . S
O117 C118 1.208 . S
C118 O116 1.247 . S
C118 O117 1.208 . S
C119 O124 1.247 . S
C119 O125 1.208 . S
C120 O112 1.315 . S
C120 O115 1.279 . S
C121 O122 1.315 . S
C121 O123 1.279 . S
O122 Cd114 2.223 . S
O122 C121 1.315 . S
O123 Cd113 2.240 . S
O123 C121 1.279 . S
O124 Cd114 2.297 . S
O124 C119 1.247 . S
O125 Cd114 2.439 . S
O125 C119 1.208 . S
O126 Cd127 2.223 . S
O126 C134 1.315 . S
Cd127 O126 2.223 . S
Cd127 O130 2.297 . S
Cd127 O131 2.439 . S
Cd127 O137 2.240 . S
Cd128 O129 2.240 . S
Cd128 O136 2.223 . S
Cd128 O138 2.297 . S
Cd128 O139 2.439 . S
O129 Cd128 2.240 . S
O129 C134 1.279 . S
O130 Cd127 2.297 . S
O130 C132 1.247 . S
O131 Cd127 2.439 . S
O131 C132 1.208 . S
C132 O130 1.247 . S
C132 O131 1.208 . S
C133 O138 1.247 . S
C133 O139 1.208 . S
C134 O126 1.315 . S
C134 O129 1.279 . S
C135 O136 1.315 . S
C135 O137 1.279 . S
O136 Cd128 2.223 . S
O136 C135 1.315 . S
O137 Cd127 2.240 . S
O137 C135 1.279 . S
O138 Cd128 2.297 . S
O138 C133 1.247 . S
O139 Cd128 2.439 . S
O139 C133 1.208 . S
O140 Cd141 2.223 . S
O140 C148 1.315 . S
Cd141 O140 2.223 . S
Cd141 O144 2.297 1_545 S
Cd141 O145 2.439 1_545 S
Cd141 O151 2.240 . S
Cd142 O143 2.240 . S
Cd142 O150 2.223 . S
Cd142 O152 2.297 . S
Cd142 O153 2.439 . S
O143 Cd142 2.240 . S
O143 C148 1.279 . S
O144 Cd141 2.297 1_565 S
O144 C146 1.247 . S
O145 Cd141 2.439 1_565 S
O145 C146 1.208 . S
C146 O144 1.247 . S
C146 O145 1.208 . S
C147 O152 1.247 . S
C147 O153 1.208 . S
C148 O140 1.315 . S
C148 O143 1.279 . S
C149 O150 1.315 . S
C149 O151 1.279 . S
O150 Cd142 2.223 . S
O150 C149 1.315 . S
O151 Cd141 2.240 . S
O151 C149 1.279 . S
O152 Cd142 2.297 . S
O152 C147 1.247 . S
O153 Cd142 2.439 . S
O153 C147 1.208 . S
O154 Cd155 2.223 . S
O154 C162 1.315 . S
Cd155 O154 2.223 . S
Cd155 O158 2.297 . S
Cd155 O159 2.439 . S
Cd155 O165 2.240 . S
Cd156 O157 2.240 . S
Cd156 O164 2.223 . S
Cd156 O166 2.297 1_554 S
Cd156 O167 2.439 1_554 S
O157 Cd156 2.240 . S
O157 C162 1.279 . S
O158 Cd155 2.297 . S
O158 C160 1.247 . S
O159 Cd155 2.439 . S
O159 C160 1.208 . S
C160 O158 1.247 . S
C160 O159 1.208 . S
C161 O166 1.247 . S
C161 O167 1.208 . S
C162 O154 1.315 . S
C162 O157 1.279 . S
C163 O164 1.315 . S
C163 O165 1.279 . S
O164 Cd156 2.223 . S
O164 C163 1.315 . S
O165 Cd155 2.240 . S
O165 C163 1.279 . S
O166 Cd156 2.297 1_556 S
O166 C161 1.247 . S
O167 Cd156 2.439 1_556 S
O167 C161 1.208 . S
O168 Cd169 2.223 . S
O168 C176 1.315 . S
Cd169 O168 2.223 . S
Cd169 O172 2.297 . S
Cd169 O173 2.439 . S
Cd169 O179 2.240 . S
Cd170 O171 2.240 . S
Cd170 O178 2.223 . S
Cd170 O180 2.297 . S
Cd170 O181 2.439 . S
O171 Cd170 2.240 . S
O171 C176 1.279 . S
O172 Cd169 2.297 . S
O172 C174 1.247 . S
O173 Cd169 2.439 . S
O173 C174 1.208 . S
C174 O172 1.247 . S
C174 O173 1.208 . S
C175 O180 1.247 . S
C175 O181 1.208 . S
C176 O168 1.315 . S
C176 O171 1.279 . S
C177 O178 1.315 . S
C177 O179 1.279 . S
O178 Cd170 2.223 . S
O178 C177 1.315 . S
O179 Cd169 2.240 . S
O179 C177 1.279 . S
O180 Cd170 2.297 . S
O180 C175 1.247 . S
O181 Cd170 2.439 . S
O181 C175 1.208 . S
O182 Cd183 2.223 . S
O182 C190 1.315 . S
Cd183 O182 2.223 . S
Cd183 O186 2.297 . S
Cd183 O187 2.439 . S
Cd183 O193 2.240 . S
Cd184 O185 2.240 . S
Cd184 O192 2.223 . S
Cd184 O194 2.297 . S
Cd184 O195 2.439 . S
O185 Cd184 2.240 . S
O185 C190 1.279 . S
O186 Cd183 2.297 . S
O186 C188 1.247 . S
O187 Cd183 2.439 . S
O187 C188 1.208 . S
C188 O186 1.247 . S
C188 O187 1.208 . S
C189 O194 1.247 1_556 S
C189 O195 1.208 1_556 S
C190 O182 1.315 . S
C190 O185 1.279 . S
C191 O192 1.315 . S
C191 O193 1.279 . S
O192 Cd184 2.223 . S
O192 C191 1.315 . S
O193 Cd183 2.240 . S
O193 C191 1.279 . S
O194 Cd184 2.297 . S
O194 C189 1.247 1_554 S
O195 Cd184 2.439 . S
O195 C189 1.208 1_554 S
O196 Cd197 2.223 . S
O196 C204 1.315 . S
Cd197 O196 2.223 . S
Cd197 O200 2.297 . S
Cd197 O201 2.439 . S
Cd197 O207 2.240 . S
Cd198 O199 2.240 . S
Cd198 O206 2.223 . S
Cd198 O208 2.297 . S
Cd198 O209 2.439 . S
O199 Cd198 2.240 . S
O199 C204 1.279 . S
O200 Cd197 2.297 . S
O200 C202 1.247 . S
O201 Cd197 2.439 . S
O201 C202 1.208 . S
C202 O200 1.247 . S
C202 O201 1.208 . S
C203 O208 1.247 . S
C203 O209 1.208 . S
C204 O196 1.315 . S
C204 O199 1.279 . S
C205 O206 1.315 . S
C205 O207 1.279 . S
O206 Cd198 2.223 . S
O206 C205 1.315 . S
O207 Cd197 2.240 . S
O207 C205 1.279 . S
O208 Cd198 2.297 . S
O208 C203 1.247 . S
O209 Cd198 2.439 . S
O209 C203 1.208 . S
O210 Cd211 2.223 . S
O210 C218 1.315 1_545 S
Cd211 O210 2.223 . S
Cd211 O214 2.297 . S
Cd211 O215 2.439 . S
Cd211 O221 2.240 . S
Cd212 O213 2.240 . S
Cd212 O220 2.223 . S
Cd212 O222 2.297 . S
Cd212 O223 2.439 . S
O213 Cd212 2.240 . S
O213 C218 1.279 . S
O214 Cd211 2.297 . S
O214 C216 1.247 . S
O215 Cd211 2.439 . S
O215 C216 1.208 . S
C216 O214 1.247 . S
C216 O215 1.208 . S
C217 O222 1.247 . S
C217 O223 1.208 . S
C218 O210 1.315 1_565 S
C218 O213 1.279 . S
C219 O220 1.315 1_545 S
C219 O221 1.279 . S
O220 Cd212 2.223 . S
O220 C219 1.315 1_565 S
O221 Cd211 2.240 . S
O221 C219 1.279 . S
O222 Cd212 2.297 . S
O222 C217 1.247 . S
O223 Cd212 2.439 . S
O223 C217 1.208 . S
O224 Cd225 2.223 . S
O224 C232 1.315 . S
Cd225 O224 2.223 . S
Cd225 O228 2.297 . S
Cd225 O229 2.439 . S
Cd225 O235 2.240 . S
Cd226 O227 2.240 . S
Cd226 O234 2.223 . S
Cd226 O236 2.297 . S
Cd226 O237 2.439 . S
O227 Cd226 2.240 . S
O227 C232 1.279 . S
O228 Cd225 2.297 . S
O228 C230 1.247 . S
O229 Cd225 2.439 . S
O229 C230 1.208 . S
C230 O228 1.247 . S
C230 O229 1.208 . S
C231 O236 1.247 . S
C231 O237 1.208 . S
C232 O224 1.315 . S
C232 O227 1.279 . S
C233 O234 1.315 . S
C233 O235 1.279 . S
O234 Cd226 2.223 . S
O234 C233 1.315 . S
O235 Cd225 2.240 . S
O235 C233 1.279 . S
O236 Cd226 2.297 . S
O236 C231 1.247 . S
O237 Cd226 2.439 . S
O237 C231 1.208 . S
O238 Cd239 2.223 . S
O238 C246 1.315 . S
Cd239 O238 2.223 . S
Cd239 O242 2.297 . S
Cd239 O243 2.439 . S
Cd239 O249 2.240 . S
Cd240 O241 2.240 . S
Cd240 O248 2.223 . S
Cd240 O250 2.297 . S
Cd240 O251 2.439 . S
O241 Cd240 2.240 . S
O241 C246 1.279 . S
O242 Cd239 2.297 . S
O242 C244 1.247 . S
O243 Cd239 2.439 . S
O243 C244 1.208 . S
C244 O242 1.247 . S
C244 O243 1.208 . S
C245 O250 1.247 . S
C245 O251 1.208 . S
C246 O238 1.315 . S
C246 O241 1.279 . S
C247 O248 1.315 . S
C247 O249 1.279 . S
O248 Cd240 2.223 . S
O248 C247 1.315 . S
O249 Cd239 2.240 . S
O249 C247 1.279 . S
O250 Cd240 2.297 . S
O250 C245 1.247 . S
O251 Cd240 2.439 . S
O251 C245 1.208 . S
O252 Cd253 2.223 . S
O252 C260 1.315 . S
Cd253 O252 2.223 . S
Cd253 O256 2.297 . S
Cd253 O257 2.439 . S
Cd253 O263 2.240 . S
Cd254 O255 2.240 . S
Cd254 O262 2.223 . S
Cd254 O264 2.297 . S
Cd254 O265 2.439 . S
O255 Cd254 2.240 . S
O255 C260 1.279 . S
O256 Cd253 2.297 . S
O256 C258 1.247 . S
O257 Cd253 2.439 . S
O257 C258 1.208 . S
C258 O256 1.247 . S
C258 O257 1.208 . S
C259 O264 1.247 . S
C259 O265 1.208 . S
C260 O252 1.315 . S
C260 O255 1.279 . S
C261 O262 1.315 . S
C261 O263 1.279 . S
O262 Cd254 2.223 . S
O262 C261 1.315 . S
O263 Cd253 2.240 . S
O263 C261 1.279 . S
O264 Cd254 2.297 . S
O264 C259 1.247 . S
O265 Cd254 2.439 . S
O265 C259 1.208 . S
O266 Cd267 2.206 1_545 S
O266 C274 1.315 1_545 S
Cd267 O266 2.206 1_565 S
Cd267 O270 2.297 . S
Cd267 O271 2.439 . S
Cd267 O277 2.240 1_565 S
Cd268 O269 2.240 1_545 S
Cd268 O276 2.223 . S
Cd268 O278 2.297 . S
Cd268 O279 2.439 1_545 S
O269 Cd268 2.240 1_565 S
O269 C274 1.279 . S
O270 Cd267 2.297 . S
O270 C272 1.247 . S
O271 Cd267 2.439 . S
O271 C272 1.208 . S
C272 O270 1.247 . S
C272 O271 1.208 . S
C273 O278 1.247 . S
C273 O279 1.208 1_545 S
C274 O266 1.315 1_565 S
C274 O269 1.279 . S
C275 O276 1.315 . S
C275 O277 1.279 . S
O276 Cd268 2.223 . S
O276 C275 1.315 . S
O277 Cd267 2.240 1_545 S
O277 C275 1.279 . S
O278 Cd268 2.297 . S
O278 C273 1.247 . S
O279 Cd268 2.439 1_565 S
O279 C273 1.208 1_565 S
O280 Cd281 2.223 . S
O280 C288 1.315 . S
Cd281 O280 2.223 . S
Cd281 O284 2.297 . S
Cd281 O285 2.439 1_554 S
Cd281 O291 2.240 1_554 S
Cd282 O283 2.240 1_556 S
Cd282 O290 2.212 1_556 S
Cd282 O292 2.297 . S
Cd282 O293 2.439 . S
O283 Cd282 2.240 1_554 S
O283 C288 1.279 . S
O284 Cd281 2.297 . S
O284 C286 1.247 . S
O285 Cd281 2.439 1_556 S
O285 C286 1.208 1_556 S
C286 O284 1.247 . S
C286 O285 1.208 1_554 S
C287 O292 1.247 . S
C287 O293 1.208 . S
C288 O280 1.315 . S
C288 O283 1.279 . S
C289 O290 1.315 1_556 S
C289 O291 1.279 . S
O290 Cd282 2.212 1_554 S
O290 C289 1.315 1_554 S
O291 Cd281 2.240 1_556 S
O291 C289 1.279 . S
O292 Cd282 2.297 . S
O292 C287 1.247 . S
O293 Cd282 2.439 . S
O293 C287 1.208 . S
O294 Cd295 2.223 . S
O294 C302 1.315 1_655 S
Cd295 O294 2.223 . S
Cd295 O298 2.297 . S
Cd295 O299 2.439 . S
Cd295 O305 2.240 . S
Cd296 O297 2.240 . S
Cd296 O304 2.223 . S
Cd296 O306 2.297 . S
Cd296 O307 2.439 . S
O297 Cd296 2.240 . S
O297 C302 1.279 . S
O298 Cd295 2.297 . S
O298 C300 1.247 . S
O299 Cd295 2.439 . S
O299 C300 1.208 . S
C300 O298 1.247 . S
C300 O299 1.208 . S
C301 O306 1.247 . S
C301 O307 1.208 . S
C302 O294 1.315 1_455 S
C302 O297 1.279 . S
C303 O304 1.315 1_655 S
C303 O305 1.279 . S
O304 Cd296 2.223 . S
O304 C303 1.315 1_455 S
O305 Cd295 2.240 . S
O305 C303 1.279 . S
O306 Cd296 2.297 . S
O306 C301 1.247 . S
O307 Cd296 2.439 . S
O307 C301 1.208 . S
O308 Cd309 2.223 . S
O308 C316 1.315 . S
Cd309 O308 2.223 . S
Cd309 O312 2.297 . S
Cd309 O313 2.439 . S
Cd309 O319 2.240 . S
Cd310 O311 2.240 . S
Cd310 O318 2.223 . S
Cd310 O320 2.297 . S
Cd310 O321 2.439 . S
O311 Cd310 2.240 . S
O311 C316 1.279 . S
O312 Cd309 2.297 . S
O312 C314 1.247 . S
O313 Cd309 2.439 . S
O313 C314 1.208 . S
C314 O312 1.247 . S
C314 O313 1.208 . S
C315 O320 1.247 . S
C315 O321 1.208 . S
C316 O308 1.315 . S
C316 O311 1.279 . S
C317 O318 1.315 . S
C317 O319 1.279 . S
O318 Cd310 2.223 . S
O318 C317 1.315 . S
O319 Cd309 2.240 . S
O319 C317 1.279 . S
O320 Cd310 2.297 . S
O320 C315 1.247 . S
O321 Cd310 2.439 . S
O321 C315 1.208 . S
O322 Cd323 2.223 . S
O322 C330 1.315 . S
Cd323 O322 2.223 . S
Cd323 O326 2.297 . S
Cd323 O327 2.439 . S
Cd323 O333 2.240 . S
Cd324 O325 2.240 . S
Cd324 O332 2.223 . S
Cd324 O334 2.297 . S
Cd324 O335 2.439 . S
O325 Cd324 2.240 . S
O325 C330 1.279 . S
O326 Cd323 2.297 . S
O326 C328 1.247 . S
O327 Cd323 2.439 . S
O327 C328 1.208 . S
C328 O326 1.247 . S
C328 O327 1.208 . S
C329 O334 1.247 . S
C329 O335 1.208 . S
C330 O322 1.315 . S
C330 O325 1.279 . S
C331 O332 1.315 . S
C331 O333 1.279 . S
O332 Cd324 2.223 . S
O332 C331 1.315 . S
O333 Cd323 2.240 . S
O333 C331 1.279 . S
O334 Cd324 2.297 . S
O334 C329 1.247 . S
O335 Cd324 2.439 . S
O335 C329 1.208 . S
Nd336 C338 2.836 . S
Nd336 O356 2.500 . S
Nd336 O357 2.492 . S
Nd336 O358 2.487 . S
Nd336 O359 2.682 . S
Nd336 O360 2.410 . S
Nd336 O365 2.414 . S
Nd336 O367 2.424 . S
Nd337 C347 2.836 1_545 S
Nd337 O359 2.414 . S
Nd337 O361 2.424 . S
Nd337 O362 2.500 1_545 S
Nd337 O363 2.492 1_545 S
Nd337 O364 2.487 . S
Nd337 O365 2.682 . S
Nd337 O366 2.410 . S
C338 Nd336 2.836 . S
C338 C339 1.498 . S
C338 O356 1.258 . S
C338 O357 1.239 . S
C339 C338 1.498 . S
C339 C340 1.366 . S
C339 C344 1.407 . S
C340 C339 1.366 . S
C340 C341 1.392 . S
C340 H368 0.930 . S
C341 C340 1.392 . S
C341 C342 1.398 . S
C341 H369 0.929 . S
C342 C341 1.398 . S
C342 C343 1.352 . S
C343 C342 1.352 . S
C343 C344 1.384 . S
C343 H370 0.930 . S
C344 C339 1.407 . S
C344 C343 1.384 . S
C344 H371 0.929 . S
C345 O358 1.241 . S
C345 O359 1.273 . S
C346 O360 1.251 . S
C346 O361 1.268 . S
C347 Nd337 2.836 1_565 S
C347 C348 1.498 . S
C347 O362 1.258 . S
C347 O363 1.239 . S
C348 C347 1.498 . S
C348 C349 1.366 . S
C348 C353 1.407 . S
C349 C348 1.366 . S
C349 C350 1.392 . S
C349 H372 0.930 . S
C350 C349 1.392 . S
C350 C351 1.398 . S
C350 H373 0.929 . S
C351 C350 1.398 . S
C351 C352 1.352 . S
C352 C351 1.352 . S
C352 C353 1.384 . S
C352 H374 0.930 . S
C353 C348 1.407 . S
C353 C352 1.384 . S
C353 H375 0.929 . S
C354 O364 1.241 . S
C354 O365 1.273 . S
C355 O366 1.251 . S
C355 O367 1.268 . S
O356 Nd336 2.500 . S
O356 C338 1.258 . S
O357 Nd336 2.492 . S
O357 C338 1.239 . S
O358 Nd336 2.487 . S
O358 C345 1.241 . S
O359 Nd336 2.682 . S
O359 Nd337 2.414 . S
O359 C345 1.273 . S
O360 Nd336 2.410 . S
O360 C346 1.251 . S
O361 Nd337 2.424 . S
O361 C346 1.268 . S
O362 Nd337 2.500 1_565 S
O362 C347 1.258 . S
O363 Nd337 2.492 1_565 S
O363 C347 1.239 . S
O364 Nd337 2.487 . S
O364 C354 1.241 . S
O365 Nd336 2.414 . S
O365 Nd337 2.682 . S
O365 C354 1.273 . S
O366 Nd337 2.410 . S
O366 C355 1.251 . S
O367 Nd336 2.424 . S
O367 C355 1.268 . S
H368 C340 0.930 . S
H369 C341 0.929 . S
H370 C343 0.930 . S
H371 C344 0.929 . S
H372 C349 0.930 . S
H373 C350 0.929 . S
H374 C352 0.930 . S
H375 C353 0.929 . S
Nd376 C378 2.836 . S
Nd376 O396 2.500 . S
Nd376 O397 2.492 . S
Nd376 O398 2.487 . S
Nd376 O399 2.682 . S
Nd376 O400 2.410 . S
Nd376 O405 2.414 . S
Nd376 O407 2.424 . S
Nd377 C387 2.836 . S
Nd377 O399 2.414 . S
Nd377 O401 2.424 . S
Nd377 O402 2.500 . S
Nd377 O403 2.492 . S
Nd377 O404 2.487 . S
Nd377 O405 2.682 . S
Nd377 O406 2.410 . S
C378 Nd376 2.836 . S
C378 C379 1.498 . S
C378 O396 1.258 . S
C378 O397 1.239 . S
C379 C378 1.498 . S
C379 C380 1.366 . S
C379 C384 1.407 . S
C380 C379 1.366 . S
C380 C381 1.392 . S
C380 H408 0.930 . S
C381 C380 1.392 . S
C381 C382 1.398 1_565 S
C381 H409 0.929 . S
C382 C381 1.398 1_545 S
C382 C383 1.352 1_545 S
C383 C382 1.352 1_565 S
C383 C384 1.384 . S
C383 H410 0.930 1_565 S
C384 C379 1.407 . S
C384 C383 1.384 . S
C384 H411 0.929 . S
C385 O398 1.241 . S
C385 O399 1.273 . S
C386 O400 1.251 . S
C386 O401 1.268 . S
C387 Nd377 2.836 . S
C387 C388 1.498 . S
C387 O402 1.258 . S
C387 O403 1.239 . S
C388 C387 1.498 . S
C388 C389 1.366 . S
C388 C393 1.407 . S
C389 C388 1.366 . S
C389 C390 1.392 . S
C389 H412 0.930 . S
C390 C389 1.392 . S
C390 C391 1.398 . S
C390 H413 0.929 . S
C391 C390 1.398 . S
C391 C392 1.352 . S
C392 C391 1.352 . S
C392 C393 1.384 . S
C392 H414 0.930 . S
C393 C388 1.407 . S
C393 C392 1.384 . S
C393 H415 0.929 . S
C394 O404 1.241 . S
C394 O405 1.273 . S
C395 O406 1.251 . S
C395 O407 1.268 . S
O396 Nd376 2.500 . S
O396 C378 1.258 . S
O397 Nd376 2.492 . S
O397 C378 1.239 . S
O398 Nd376 2.487 . S
O398 C385 1.241 . S
O399 Nd376 2.682 . S
O399 Nd377 2.414 . S
O399 C385 1.273 . S
O400 Nd376 2.410 . S
O400 C386 1.251 . S
O401 Nd377 2.424 . S
O401 C386 1.268 . S
O402 Nd377 2.500 . S
O402 C387 1.258 . S
O403 Nd377 2.492 . S
O403 C387 1.239 . S
O404 Nd377 2.487 . S
O404 C394 1.241 . S
O405 Nd376 2.414 . S
O405 Nd377 2.682 . S
O405 C394 1.273 . S
O406 Nd377 2.410 . S
O406 C395 1.251 . S
O407 Nd376 2.424 . S
O407 C395 1.268 . S
H408 C380 0.930 . S
H409 C381 0.929 . S
H410 C383 0.930 1_545 S
H411 C384 0.929 . S
H412 C389 0.930 . S
H413 C390 0.929 . S
H414 C392 0.930 . S
H415 C393 0.929 . S
Nd416 C418 2.836 . S
Nd416 O436 2.500 . S
Nd416 O437 2.492 . S
Nd416 O438 2.487 . S
Nd416 O439 2.682 . S
Nd416 O440 2.410 . S
Nd416 O445 2.414 . S
Nd416 O447 2.424 . S
Nd417 C427 2.836 . S
Nd417 O439 2.414 . S
Nd417 O441 2.424 . S
Nd417 O442 2.500 . S
Nd417 O443 2.492 . S
Nd417 O444 2.487 . S
Nd417 O445 2.682 . S
Nd417 O446 2.410 . S
C418 Nd416 2.836 . S
C418 C419 1.498 . S
C418 O436 1.258 . S
C418 O437 1.239 . S
C419 C418 1.498 . S
C419 C420 1.366 . S
C419 C424 1.407 . S
C420 C419 1.366 . S
C420 C421 1.392 . S
C420 H448 0.930 . S
C421 C420 1.392 . S
C421 C422 1.398 . S
C421 H449 0.929 . S
C422 C421 1.398 . S
C422 C423 1.352 . S
C423 C422 1.352 . S
C423 C424 1.384 . S
C423 H450 0.930 . S
C424 C419 1.407 . S
C424 C423 1.384 . S
C424 H451 0.929 . S
C425 O438 1.241 . S
C425 O439 1.273 . S
C426 O440 1.251 . S
C426 O441 1.268 . S
C427 Nd417 2.836 . S
C427 C428 1.498 . S
C427 O442 1.258 . S
C427 O443 1.239 . S
C428 C427 1.498 . S
C428 C429 1.366 . S
C428 C433 1.407 . S
C429 C428 1.366 . S
C429 C430 1.392 . S
C429 H452 0.930 . S
C430 C429 1.392 . S
C430 C431 1.398 . S
C430 H453 0.929 . S
C431 C430 1.398 . S
C431 C432 1.352 . S
C432 C431 1.352 . S
C432 C433 1.384 . S
C432 H454 0.930 . S
C433 C428 1.407 . S
C433 C432 1.384 . S
C433 H455 0.929 . S
C434 O444 1.241 . S
C434 O445 1.273 . S
C435 O446 1.251 . S
C435 O447 1.268 . S
O436 Nd416 2.500 . S
O436 C418 1.258 . S
O437 Nd416 2.492 . S
O437 C418 1.239 . S
O438 Nd416 2.487 . S
O438 C425 1.241 . S
O439 Nd416 2.682 . S
O439 Nd417 2.414 . S
O439 C425 1.273 . S
O440 Nd416 2.410 . S
O440 C426 1.251 . S
O441 Nd417 2.424 . S
O441 C426 1.268 . S
O442 Nd417 2.500 . S
O442 C427 1.258 . S
O443 Nd417 2.492 . S
O443 C427 1.239 . S
O444 Nd417 2.487 . S
O444 C434 1.241 . S
O445 Nd416 2.414 . S
O445 Nd417 2.682 . S
O445 C434 1.273 . S
O446 Nd417 2.410 . S
O446 C435 1.251 . S
O447 Nd416 2.424 . S
O447 C435 1.268 . S
H448 C420 0.930 . S
H449 C421 0.929 . S
H450 C423 0.930 . S
H451 C424 0.929 . S
H452 C429 0.930 . S
H453 C430 0.929 . S
H454 C432 0.930 . S
H455 C433 0.929 . S
Nd456 C458 2.836 . S
Nd456 O476 2.500 . S
Nd456 O477 2.492 . S
Nd456 O478 2.487 . S
Nd456 O479 2.682 . S
Nd456 O480 2.410 . S
Nd456 O485 2.414 . S
Nd456 O487 2.424 . S
Nd457 C467 2.836 . S
Nd457 O479 2.414 . S
Nd457 O481 2.424 . S
Nd457 O482 2.500 . S
Nd457 O483 2.492 . S
Nd457 O484 2.487 . S
Nd457 O485 2.682 . S
Nd457 O486 2.410 . S
C458 Nd456 2.836 . S
C458 C459 1.498 . S
C458 O476 1.258 . S
C458 O477 1.239 . S
C459 C458 1.498 . S
C459 C460 1.366 . S
C459 C464 1.407 . S
C460 C459 1.366 . S
C460 C461 1.392 1_556 S
C460 H488 0.930 . S
C461 C460 1.392 1_554 S
C461 C462 1.398 . S
C461 H489 0.929 . S
C462 C461 1.398 . S
C462 C463 1.352 . S
C463 C462 1.352 . S
C463 C464 1.384 1_554 S
C463 H490 0.930 . S
C464 C459 1.407 . S
C464 C463 1.384 1_556 S
C464 H491 0.929 . S
C465 O478 1.241 . S
C465 O479 1.273 . S
C466 O480 1.251 . S
C466 O481 1.268 . S
C467 Nd457 2.836 . S
C467 C468 1.498 . S
C467 O482 1.258 . S
C467 O483 1.239 . S
C468 C467 1.498 . S
C468 C469 1.366 . S
C468 C473 1.407 . S
C469 C468 1.366 . S
C469 C470 1.392 . S
C469 H492 0.930 . S
C470 C469 1.392 . S
C470 C471 1.398 . S
C470 H493 0.929 . S
C471 C470 1.398 . S
C471 C472 1.352 . S
C472 C471 1.352 . S
C472 C473 1.384 . S
C472 H494 0.930 . S
C473 C468 1.407 . S
C473 C472 1.384 . S
C473 H495 0.929 . S
C474 O484 1.241 . S
C474 O485 1.273 . S
C475 O486 1.251 . S
C475 O487 1.268 . S
O476 Nd456 2.500 . S
O476 C458 1.258 . S
O477 Nd456 2.492 . S
O477 C458 1.239 . S
O478 Nd456 2.487 . S
O478 C465 1.241 . S
O479 Nd456 2.682 . S
O479 Nd457 2.414 . S
O479 C465 1.273 . S
O480 Nd456 2.410 . S
O480 C466 1.251 . S
O481 Nd457 2.424 . S
O481 C466 1.268 . S
O482 Nd457 2.500 . S
O482 C467 1.258 . S
O483 Nd457 2.492 . S
O483 C467 1.239 . S
O484 Nd457 2.487 . S
O484 C474 1.241 . S
O485 Nd456 2.414 . S
O485 Nd457 2.682 . S
O485 C474 1.273 . S
O486 Nd457 2.410 . S
O486 C475 1.251 . S
O487 Nd456 2.424 . S
O487 C475 1.268 . S
H488 C460 0.930 . S
H489 C461 0.929 . S
H490 C463 0.930 . S
H491 C464 0.929 . S
H492 C469 0.930 . S
H493 C470 0.929 . S
H494 C472 0.930 . S
H495 C473 0.929 . S
Nd496 C498 2.836 . S
Nd496 O516 2.500 . S
Nd496 O517 2.492 . S
Nd496 O518 2.487 . S
Nd496 O519 2.682 . S
Nd496 O520 2.410 . S
Nd496 O525 2.414 . S
Nd496 O527 2.424 . S
Nd497 C507 2.836 1_545 S
Nd497 O519 2.414 . S
Nd497 O521 2.424 . S
Nd497 O522 2.500 1_545 S
Nd497 O523 2.492 1_545 S
Nd497 O524 2.487 . S
Nd497 O525 2.682 . S
Nd497 O526 2.410 . S
C498 Nd496 2.836 . S
C498 C499 1.498 . S
C498 O516 1.258 . S
C498 O517 1.239 . S
C499 C498 1.498 . S
C499 C500 1.366 . S
C499 C504 1.407 . S
C500 C499 1.366 . S
C500 C501 1.392 . S
C500 H528 0.930 . S
C501 C500 1.392 . S
C501 C502 1.398 . S
C501 H529 0.929 . S
C502 C501 1.398 . S
C502 C503 1.352 . S
C503 C502 1.352 . S
C503 C504 1.384 . S
C503 H530 0.930 . S
C504 C499 1.407 . S
C504 C503 1.384 . S
C504 H531 0.929 . S
C505 O518 1.241 . S
C505 O519 1.273 . S
C506 O520 1.251 . S
C506 O521 1.268 . S
C507 Nd497 2.836 1_565 S
C507 C508 1.498 . S
C507 O522 1.258 . S
C507 O523 1.239 . S
C508 C507 1.498 . S
C508 C509 1.366 . S
C508 C513 1.407 . S
C509 C508 1.366 . S
C509 C510 1.392 . S
C509 H532 0.930 . S
C510 C509 1.392 . S
C510 C511 1.398 . S
C510 H533 0.929 . S
C511 C510 1.398 . S
C511 C512 1.352 . S
C512 C511 1.352 . S
C512 C513 1.384 . S
C512 H534 0.930 . S
C513 C508 1.407 . S
C513 C512 1.384 . S
C513 H535 0.929 . S
C514 O524 1.241 . S
C514 O525 1.273 . S
C515 O526 1.251 . S
C515 O527 1.268 . S
O516 Nd496 2.500 . S
O516 C498 1.258 . S
O517 Nd496 2.492 . S
O517 C498 1.239 . S
O518 Nd496 2.487 . S
O518 C505 1.241 . S
O519 Nd496 2.682 . S
O519 Nd497 2.414 . S
O519 C505 1.273 . S
O520 Nd496 2.410 . S
O520 C506 1.251 . S
O521 Nd497 2.424 . S
O521 C506 1.268 . S
O522 Nd497 2.500 1_565 S
O522 C507 1.258 . S
O523 Nd497 2.492 1_565 S
O523 C507 1.239 . S
O524 Nd497 2.487 . S
O524 C514 1.241 . S
O525 Nd496 2.414 . S
O525 Nd497 2.682 . S
O525 C514 1.273 . S
O526 Nd497 2.410 . S
O526 C515 1.251 . S
O527 Nd496 2.424 . S
O527 C515 1.268 . S
H528 C500 0.930 . S
H529 C501 0.929 . S
H530 C503 0.930 . S
H531 C504 0.929 . S
H532 C509 0.930 . S
H533 C510 0.929 . S
H534 C512 0.930 . S
H535 C513 0.929 . S
Nd536 C538 2.836 . S
Nd536 O556 2.500 . S
Nd536 O557 2.492 . S
Nd536 O558 2.487 . S
Nd536 O559 2.682 . S
Nd536 O560 2.410 . S
Nd536 O565 2.414 . S
Nd536 O567 2.424 . S
Nd537 C547 2.836 . S
Nd537 O559 2.414 . S
Nd537 O561 2.424 . S
Nd537 O562 2.500 . S
Nd537 O563 2.492 . S
Nd537 O564 2.487 . S
Nd537 O565 2.682 . S
Nd537 O566 2.410 . S
C538 Nd536 2.836 . S
C538 C539 1.498 . S
C538 O556 1.258 . S
C538 O557 1.239 . S
C539 C538 1.498 . S
C539 C540 1.366 . S
C539 C544 1.407 . S
C540 C539 1.366 . S
C540 C541 1.392 . S
C540 H568 0.930 . S
C541 C540 1.392 . S
C541 C542 1.398 . S
C541 H569 0.929 . S
C542 C541 1.398 . S
C542 C543 1.352 . S
C543 C542 1.352 . S
C543 C544 1.384 . S
C543 H570 0.930 . S
C544 C539 1.407 . S
C544 C543 1.384 . S
C544 H571 0.929 . S
C545 O558 1.241 . S
C545 O559 1.273 . S
C546 O560 1.251 . S
C546 O561 1.268 . S
C547 Nd537 2.836 . S
C547 C548 1.498 . S
C547 O562 1.258 . S
C547 O563 1.239 . S
C548 C547 1.498 . S
C548 C549 1.366 . S
C548 C553 1.407 . S
C549 C548 1.366 . S
C549 C550 1.392 . S
C549 H572 0.930 . S
C550 C549 1.392 . S
C550 C551 1.398 . S
C550 H573 0.929 . S
C551 C550 1.398 . S
C551 C552 1.352 . S
C552 C551 1.352 . S
C552 C553 1.384 . S
C552 H574 0.930 . S
C553 C548 1.407 . S
C553 C552 1.384 . S
C553 H575 0.929 . S
C554 O564 1.241 . S
C554 O565 1.273 . S
C555 O566 1.251 . S
C555 O567 1.268 . S
O556 Nd536 2.500 . S
O556 C538 1.258 . S
O557 Nd536 2.492 . S
O557 C538 1.239 . S
O558 Nd536 2.487 . S
O558 C545 1.241 . S
O559 Nd536 2.682 . S
O559 Nd537 2.414 . S
O559 C545 1.273 . S
O560 Nd536 2.410 . S
O560 C546 1.251 . S
O561 Nd537 2.424 . S
O561 C546 1.268 . S
O562 Nd537 2.500 . S
O562 C547 1.258 . S
O563 Nd537 2.492 . S
O563 C547 1.239 . S
O564 Nd537 2.487 . S
O564 C554 1.241 . S
O565 Nd536 2.414 . S
O565 Nd537 2.682 . S
O565 C554 1.273 . S
O566 Nd537 2.410 . S
O566 C555 1.251 . S
O567 Nd536 2.424 . S
O567 C555 1.268 . S
H568 C540 0.930 . S
H569 C541 0.929 . S
H570 C543 0.930 . S
H571 C544 0.929 . S
H572 C549 0.930 . S
H573 C550 0.929 . S
H574 C552 0.930 . S
H575 C553 0.929 . S
Nd576 C578 2.836 . S
Nd576 O596 2.500 . S
Nd576 O597 2.492 . S
Nd576 O598 2.487 1_545 S
Nd576 O599 2.682 . S
Nd576 O600 2.410 . S
Nd576 O605 2.414 . S
Nd576 O607 2.424 . S
Nd577 C587 2.836 . S
Nd577 O599 2.414 . S
Nd577 O601 2.424 . S
Nd577 O602 2.500 . S
Nd577 O603 2.492 . S
Nd577 O604 2.487 . S
Nd577 O605 2.682 . S
Nd577 O606 2.410 . S
C578 Nd576 2.836 . S
C578 C579 1.498 . S
C578 O596 1.258 . S
C578 O597 1.239 . S
C579 C578 1.498 . S
C579 C580 1.366 . S
C579 C584 1.407 1_545 S
C580 C579 1.366 . S
C580 C581 1.392 . S
C580 H608 0.930 . S
C581 C580 1.392 . S
C581 C582 1.398 1_545 S
C581 H609 0.929 . S
C582 C581 1.398 1_565 S
C582 C583 1.352 . S
C583 C582 1.352 . S
C583 C584 1.384 . S
C583 H610 0.930 . S
C584 C579 1.407 1_565 S
C584 C583 1.384 . S
C584 H611 0.929 . S
C585 O598 1.241 1_545 S
C585 O599 1.273 . S
C586 O600 1.251 . S
C586 O601 1.268 . S
C587 Nd577 2.836 . S
C587 C588 1.498 . S
C587 O602 1.258 . S
C587 O603 1.239 . S
C588 C587 1.498 . S
C588 C589 1.366 . S
C588 C593 1.407 . S
C589 C588 1.366 . S
C589 C590 1.392 . S
C589 H612 0.930 . S
C590 C589 1.392 . S
C590 C591 1.398 . S
C590 H613 0.929 . S
C591 C590 1.398 . S
C591 C592 1.352 . S
C592 C591 1.352 . S
C592 C593 1.384 . S
C592 H614 0.930 . S
C593 C588 1.407 . S
C593 C592 1.384 . S
C593 H615 0.929 . S
C594 O604 1.241 . S
C594 O605 1.273 . S
C595 O606 1.251 . S
C595 O607 1.268 . S
O596 Nd576 2.500 . S
O596 C578 1.258 . S
O597 Nd576 2.492 . S
O597 C578 1.239 . S
O598 Nd576 2.487 1_565 S
O598 C585 1.241 1_565 S
O599 Nd576 2.682 . S
O599 Nd577 2.414 . S
O599 C585 1.273 . S
O600 Nd576 2.410 . S
O600 C586 1.251 . S
O601 Nd577 2.424 . S
O601 C586 1.268 . S
O602 Nd577 2.500 . S
O602 C587 1.258 . S
O603 Nd577 2.492 . S
O603 C587 1.239 . S
O604 Nd577 2.487 . S
O604 C594 1.241 . S
O605 Nd576 2.414 . S
O605 Nd577 2.682 . S
O605 C594 1.273 . S
O606 Nd577 2.410 . S
O606 C595 1.251 . S
O607 Nd576 2.424 . S
O607 C595 1.268 . S
H608 C580 0.930 . S
H609 C581 0.929 . S
H610 C583 0.930 . S
H611 C584 0.929 . S
H612 C589 0.930 . S
H613 C590 0.929 . S
H614 C592 0.930 . S
H615 C593 0.929 . S
Nd616 C618 2.836 . S
Nd616 O636 2.500 . S
Nd616 O637 2.492 . S
Nd616 O638 2.487 . S
Nd616 O639 2.682 . S
Nd616 O640 2.410 . S
Nd616 O645 2.414 . S
Nd616 O647 2.424 . S
Nd617 C627 2.836 . S
Nd617 O639 2.414 . S
Nd617 O641 2.424 . S
Nd617 O642 2.500 . S
Nd617 O643 2.492 . S
Nd617 O644 2.487 . S
Nd617 O645 2.682 . S
Nd617 O646 2.410 . S
C618 Nd616 2.836 . S
C618 C619 1.498 . S
C618 O636 1.258 . S
C618 O637 1.239 . S
C619 C618 1.498 . S
C619 C620 1.366 . S
C619 C624 1.407 . S
C620 C619 1.366 . S
C620 C621 1.392 . S
C620 H648 0.930 . S
C621 C620 1.392 . S
C621 C622 1.398 . S
C621 H649 0.929 . S
C622 C621 1.398 . S
C622 C623 1.352 . S
C623 C622 1.352 . S
C623 C624 1.384 . S
C623 H650 0.930 . S
C624 C619 1.407 . S
C624 C623 1.384 . S
C624 H651 0.929 . S
C625 O638 1.241 . S
C625 O639 1.273 . S
C626 O640 1.251 . S
C626 O641 1.268 . S
C627 Nd617 2.836 . S
C627 C628 1.498 . S
C627 O642 1.258 . S
C627 O643 1.239 . S
C628 C627 1.498 . S
C628 C629 1.366 . S
C628 C633 1.407 . S
C629 C628 1.366 . S
C629 C630 1.392 . S
C629 H652 0.930 . S
C630 C629 1.392 . S
C630 C631 1.398 . S
C630 H653 0.929 . S
C631 C630 1.398 . S
C631 C632 1.352 . S
C632 C631 1.352 . S
C632 C633 1.384 . S
C632 H654 0.930 . S
C633 C628 1.407 . S
C633 C632 1.384 . S
C633 H655 0.929 . S
C634 O644 1.241 . S
C634 O645 1.273 . S
C635 O646 1.251 . S
C635 O647 1.268 . S
O636 Nd616 2.500 . S
O636 C618 1.258 . S
O637 Nd616 2.492 . S
O637 C618 1.239 . S
O638 Nd616 2.487 . S
O638 C625 1.241 . S
O639 Nd616 2.682 . S
O639 Nd617 2.414 . S
O639 C625 1.273 . S
O640 Nd616 2.410 . S
O640 C626 1.251 . S
O641 Nd617 2.424 . S
O641 C626 1.268 . S
O642 Nd617 2.500 . S
O642 C627 1.258 . S
O643 Nd617 2.492 . S
O643 C627 1.239 . S
O644 Nd617 2.487 . S
O644 C634 1.241 . S
O645 Nd616 2.414 . S
O645 Nd617 2.682 . S
O645 C634 1.273 . S
O646 Nd617 2.410 . S
O646 C635 1.251 . S
O647 Nd616 2.424 . S
O647 C635 1.268 . S
H648 C620 0.930 . S
H649 C621 0.929 . S
H650 C623 0.930 . S
H651 C624 0.929 . S
H652 C629 0.930 . S
H653 C630 0.929 . S
H654 C632 0.930 . S
H655 C633 0.929 . S
Nd656 C658 2.836 . S
Nd656 O676 2.500 . S
Nd656 O677 2.492 . S
Nd656 O678 2.487 . S
Nd656 O679 2.682 . S
Nd656 O680 2.410 . S
Nd656 O685 2.414 . S
Nd656 O687 2.424 . S
Nd657 C667 2.836 . S
Nd657 O679 2.414 . S
Nd657 O681 2.424 . S
Nd657 O682 2.500 . S
Nd657 O683 2.492 . S
Nd657 O684 2.487 . S
Nd657 O685 2.682 . S
Nd657 O686 2.410 . S
C658 Nd656 2.836 . S
C658 C659 1.498 . S
C658 O676 1.258 . S
C658 O677 1.239 . S
C659 C658 1.498 . S
C659 C660 1.366 . S
C659 C664 1.407 . S
C660 C659 1.366 . S
C660 C661 1.392 . S
C660 H688 0.930 . S
C661 C660 1.392 . S
C661 C662 1.398 . S
C661 H689 0.929 . S
C662 C661 1.398 . S
C662 C663 1.352 . S
C663 C662 1.352 . S
C663 C664 1.384 . S
C663 H690 0.930 . S
C664 C659 1.407 . S
C664 C663 1.384 . S
C664 H691 0.929 . S
C665 O678 1.241 . S
C665 O679 1.273 . S
C666 O680 1.251 . S
C666 O681 1.268 . S
C667 Nd657 2.836 . S
C667 C668 1.498 . S
C667 O682 1.258 . S
C667 O683 1.239 . S
C668 C667 1.498 . S
C668 C669 1.366 . S
C668 C673 1.407 . S
C669 C668 1.366 . S
C669 C670 1.392 . S
C669 H692 0.930 . S
C670 C669 1.392 . S
C670 C671 1.398 . S
C670 H693 0.929 . S
C671 C670 1.398 . S
C671 C672 1.352 . S
C672 C671 1.352 . S
C672 C673 1.384 . S
C672 H694 0.930 . S
C673 C668 1.407 . S
C673 C672 1.384 . S
C673 H695 0.929 . S
C674 O684 1.241 . S
C674 O685 1.273 . S
C675 O686 1.251 . S
C675 O687 1.268 . S
O676 Nd656 2.500 . S
O676 C658 1.258 . S
O677 Nd656 2.492 . S
O677 C658 1.239 . S
O678 Nd656 2.487 . S
O678 C665 1.241 . S
O679 Nd656 2.682 . S
O679 Nd657 2.414 . S
O679 C665 1.273 . S
O680 Nd656 2.410 . S
O680 C666 1.251 . S
O681 Nd657 2.424 . S
O681 C666 1.268 . S
O682 Nd657 2.500 . S
O682 C667 1.258 . S
O683 Nd657 2.492 . S
O683 C667 1.239 . S
O684 Nd657 2.487 . S
O684 C674 1.241 . S
O685 Nd656 2.414 . S
O685 Nd657 2.682 . S
O685 C674 1.273 . S
O686 Nd657 2.410 . S
O686 C675 1.251 . S
O687 Nd656 2.424 . S
O687 C675 1.268 . S
H688 C660 0.930 . S
H689 C661 0.929 . S
H690 C663 0.930 . S
H691 C664 0.929 . S
H692 C669 0.930 . S
H693 C670 0.929 . S
H694 C672 0.930 . S
H695 C673 0.929 . S
Nd696 C698 2.836 . S
Nd696 O716 2.500 . S
Nd696 O717 2.492 . S
Nd696 O718 2.487 . S
Nd696 O719 2.682 . S
Nd696 O720 2.410 . S
Nd696 O725 2.414 . S
Nd696 O727 2.424 . S
Nd697 C707 2.836 . S
Nd697 O719 2.414 . S
Nd697 O721 2.424 . S
Nd697 O722 2.500 . S
Nd697 O723 2.492 . S
Nd697 O724 2.487 . S
Nd697 O725 2.682 . S
Nd697 O726 2.410 . S
C698 Nd696 2.836 . S
C698 C699 1.498 . S
C698 O716 1.258 . S
C698 O717 1.239 . S
C699 C698 1.498 . S
C699 C700 1.366 . S
C699 C704 1.407 . S
C700 C699 1.366 . S
C700 C701 1.392 . S
C700 H728 0.930 . S
C701 C700 1.392 . S
C701 C702 1.398 . S
C701 H729 0.929 . S
C702 C701 1.398 . S
C702 C703 1.352 . S
C703 C702 1.352 . S
C703 C704 1.384 . S
C703 H730 0.930 . S
C704 C699 1.407 . S
C704 C703 1.384 . S
C704 H731 0.929 . S
C705 O718 1.241 . S
C705 O719 1.273 . S
C706 O720 1.251 . S
C706 O721 1.268 . S
C707 Nd697 2.836 . S
C707 C708 1.498 . S
C707 O722 1.258 . S
C707 O723 1.239 . S
C708 C707 1.498 . S
C708 C709 1.366 . S
C708 C713 1.407 . S
C709 C708 1.366 . S
C709 C710 1.392 . S
C709 H732 0.930 . S
C710 C709 1.392 . S
C710 C711 1.398 . S
C710 H733 0.929 . S
C711 C710 1.398 . S
C711 C712 1.352 . S
C712 C711 1.352 . S
C712 C713 1.384 . S
C712 H734 0.930 . S
C713 C708 1.407 . S
C713 C712 1.384 . S
C713 H735 0.929 . S
C714 O724 1.241 . S
C714 O725 1.273 . S
C715 O726 1.251 . S
C715 O727 1.268 . S
O716 Nd696 2.500 . S
O716 C698 1.258 . S
O717 Nd696 2.492 . S
O717 C698 1.239 . S
O718 Nd696 2.487 . S
O718 C705 1.241 . S
O719 Nd696 2.682 . S
O719 Nd697 2.414 . S
O719 C705 1.273 . S
O720 Nd696 2.410 . S
O720 C706 1.251 . S
O721 Nd697 2.424 . S
O721 C706 1.268 . S
O722 Nd697 2.500 . S
O722 C707 1.258 . S
O723 Nd697 2.492 . S
O723 C707 1.239 . S
O724 Nd697 2.487 . S
O724 C714 1.241 . S
O725 Nd696 2.414 . S
O725 Nd697 2.682 . S
O725 C714 1.273 . S
O726 Nd697 2.410 . S
O726 C715 1.251 . S
O727 Nd696 2.424 . S
O727 C715 1.268 . S
H728 C700 0.930 . S
H729 C701 0.929 . S
H730 C703 0.930 . S
H731 C704 0.929 . S
H732 C709 0.930 . S
H733 C710 0.929 . S
H734 C712 0.930 . S
H735 C713 0.929 . S
Nd736 C738 2.836 1_455 S
Nd736 O756 2.500 1_455 S
Nd736 O757 2.492 1_455 S
Nd736 O758 2.487 . S
Nd736 O759 2.682 . S
Nd736 O760 2.410 . S
Nd736 O765 2.414 . S
Nd736 O767 2.424 . S
Nd737 C747 2.836 . S
Nd737 O759 2.414 . S
Nd737 O761 2.424 . S
Nd737 O762 2.500 . S
Nd737 O763 2.492 . S
Nd737 O764 2.487 . S
Nd737 O765 2.682 . S
Nd737 O766 2.410 . S
C738 Nd736 2.836 1_655 S
C738 C739 1.498 . S
C738 O756 1.258 . S
C738 O757 1.239 . S
C739 C738 1.498 . S
C739 C740 1.366 . S
C739 C744 1.407 . S
C740 C739 1.366 . S
C740 C741 1.392 . S
C740 H768 0.930 . S
C741 C740 1.392 . S
C741 C742 1.398 . S
C741 H769 0.929 . S
C742 C741 1.398 . S
C742 C743 1.352 . S
C743 C742 1.352 . S
C743 C744 1.384 . S
C743 H770 0.930 . S
C744 C739 1.407 . S
C744 C743 1.384 . S
C744 H771 0.929 . S
C745 O758 1.241 . S
C745 O759 1.273 . S
C746 O760 1.251 . S
C746 O761 1.268 . S
C747 Nd737 2.836 . S
C747 C748 1.498 . S
C747 O762 1.258 . S
C747 O763 1.239 . S
C748 C747 1.498 . S
C748 C749 1.366 . S
C748 C753 1.407 . S
C749 C748 1.366 . S
C749 C750 1.392 . S
C749 H772 0.930 . S
C750 C749 1.392 . S
C750 C751 1.398 . S
C750 H773 0.929 . S
C751 C750 1.398 . S
C751 C752 1.352 . S
C752 C751 1.352 . S
C752 C753 1.384 . S
C752 H774 0.930 . S
C753 C748 1.407 . S
C753 C752 1.384 . S
C753 H775 0.929 . S
C754 O764 1.241 . S
C754 O765 1.273 . S
C755 O766 1.251 . S
C755 O767 1.268 . S
O756 Nd736 2.500 1_655 S
O756 C738 1.258 . S
O757 Nd736 2.492 1_655 S
O757 C738 1.239 . S
O758 Nd736 2.487 . S
O758 C745 1.241 . S
O759 Nd736 2.682 . S
O759 Nd737 2.414 . S
O759 C745 1.273 . S
O760 Nd736 2.410 . S
O760 C746 1.251 . S
O761 Nd737 2.424 . S
O761 C746 1.268 . S
O762 Nd737 2.500 . S
O762 C747 1.258 . S
O763 Nd737 2.492 . S
O763 C747 1.239 . S
O764 Nd737 2.487 . S
O764 C754 1.241 . S
O765 Nd736 2.414 . S
O765 Nd737 2.682 . S
O765 C754 1.273 . S
O766 Nd737 2.410 . S
O766 C755 1.251 . S
O767 Nd736 2.424 . S
O767 C755 1.268 . S
H768 C740 0.930 . S
H769 C741 0.929 . S
H770 C743 0.930 . S
H771 C744 0.929 . S
H772 C749 0.930 . S
H773 C750 0.929 . S
H774 C752 0.930 . S
H775 C753 0.929 . S
Nd776 C778 2.836 . S
Nd776 O796 2.500 . S
Nd776 O797 2.492 . S
Nd776 O798 2.487 . S
Nd776 O799 2.682 . S
Nd776 O800 2.410 . S
Nd776 O805 2.414 . S
Nd776 O807 2.424 . S
Nd777 C787 2.836 . S
Nd777 O799 2.414 . S
Nd777 O801 2.424 . S
Nd777 O802 2.500 . S
Nd777 O803 2.492 . S
Nd777 O804 2.487 . S
Nd777 O805 2.682 . S
Nd777 O806 2.410 . S
C778 Nd776 2.836 . S
C778 C779 1.498 . S
C778 O796 1.258 . S
C778 O797 1.239 . S
C779 C778 1.498 . S
C779 C780 1.366 . S
C779 C784 1.407 . S
C780 C779 1.366 . S
C780 C781 1.392 . S
C780 H808 0.930 . S
C781 C780 1.392 . S
C781 C782 1.398 . S
C781 H809 0.929 . S
C782 C781 1.398 . S
C782 C783 1.352 . S
C783 C782 1.352 . S
C783 C784 1.384 . S
C783 H810 0.930 . S
C784 C779 1.407 . S
C784 C783 1.384 . S
C784 H811 0.929 . S
C785 O798 1.241 . S
C785 O799 1.273 . S
C786 O800 1.251 . S
C786 O801 1.268 . S
C787 Nd777 2.836 . S
C787 C788 1.498 . S
C787 O802 1.258 . S
C787 O803 1.239 . S
C788 C787 1.498 . S
C788 C789 1.366 . S
C788 C793 1.407 . S
C789 C788 1.366 . S
C789 C790 1.392 . S
C789 H812 0.930 . S
C790 C789 1.392 . S
C790 C791 1.398 . S
C790 H813 0.929 . S
C791 C790 1.398 . S
C791 C792 1.352 . S
C792 C791 1.352 . S
C792 C793 1.384 . S
C792 H814 0.930 . S
C793 C788 1.407 . S
C793 C792 1.384 . S
C793 H815 0.929 . S
C794 O804 1.241 . S
C794 O805 1.273 . S
C795 O806 1.251 . S
C795 O807 1.268 . S
O796 Nd776 2.500 . S
O796 C778 1.258 . S
O797 Nd776 2.492 . S
O797 C778 1.239 . S
O798 Nd776 2.487 . S
O798 C785 1.241 . S
O799 Nd776 2.682 . S
O799 Nd777 2.414 . S
O799 C785 1.273 . S
O800 Nd776 2.410 . S
O800 C786 1.251 . S
O801 Nd777 2.424 . S
O801 C786 1.268 . S
O802 Nd777 2.500 . S
O802 C787 1.258 . S
O803 Nd777 2.492 . S
O803 C787 1.239 . S
O804 Nd777 2.487 . S
O804 C794 1.241 . S
O805 Nd776 2.414 . S
O805 Nd777 2.682 . S
O805 C794 1.273 . S
O806 Nd777 2.410 . S
O806 C795 1.251 . S
O807 Nd776 2.424 . S
O807 C795 1.268 . S
H808 C780 0.930 . S
H809 C781 0.929 . S
H810 C783 0.930 . S
H811 C784 0.929 . S
H812 C789 0.930 . S
H813 C790 0.929 . S
H814 C792 0.930 . S
H815 C793 0.929 . S
Nd816 C818 2.836 . S
Nd816 O836 2.500 . S
Nd816 O837 2.492 . S
Nd816 O838 2.487 . S
Nd816 O839 2.682 . S
Nd816 O840 2.410 . S
Nd816 O845 2.414 . S
Nd816 O847 2.424 . S
Nd817 C827 2.836 . S
Nd817 O839 2.414 . S
Nd817 O841 2.424 . S
Nd817 O842 2.500 . S
Nd817 O843 2.492 . S
Nd817 O844 2.487 . S
Nd817 O845 2.682 . S
Nd817 O846 2.410 . S
C818 Nd816 2.836 . S
C818 C819 1.498 . S
C818 O836 1.258 . S
C818 O837 1.239 . S
C819 C818 1.498 . S
C819 C820 1.366 . S
C819 C824 1.407 . S
C820 C819 1.366 . S
C820 C821 1.392 . S
C820 H848 0.930 . S
C821 C820 1.392 . S
C821 C822 1.398 . S
C821 H849 0.929 . S
C822 C821 1.398 . S
C822 C823 1.352 . S
C823 C822 1.352 . S
C823 C824 1.384 . S
C823 H850 0.930 . S
C824 C819 1.407 . S
C824 C823 1.384 . S
C824 H851 0.929 . S
C825 O838 1.241 . S
C825 O839 1.273 . S
C826 O840 1.251 . S
C826 O841 1.268 . S
C827 Nd817 2.836 . S
C827 C828 1.498 . S
C827 O842 1.258 . S
C827 O843 1.239 . S
C828 C827 1.498 . S
C828 C829 1.366 . S
C828 C833 1.407 . S
C829 C828 1.366 . S
C829 C830 1.392 . S
C829 H852 0.930 . S
C830 C829 1.392 . S
C830 C831 1.398 . S
C830 H853 0.929 . S
C831 C830 1.398 . S
C831 C832 1.352 . S
C832 C831 1.352 . S
C832 C833 1.384 . S
C832 H854 0.930 . S
C833 C828 1.407 . S
C833 C832 1.384 . S
C833 H855 0.929 . S
C834 O844 1.241 . S
C834 O845 1.273 . S
C835 O846 1.251 . S
C835 O847 1.268 . S
O836 Nd816 2.500 . S
O836 C818 1.258 . S
O837 Nd816 2.492 . S
O837 C818 1.239 . S
O838 Nd816 2.487 . S
O838 C825 1.241 . S
O839 Nd816 2.682 . S
O839 Nd817 2.414 . S
O839 C825 1.273 . S
O840 Nd816 2.410 . S
O840 C826 1.251 . S
O841 Nd817 2.424 . S
O841 C826 1.268 . S
O842 Nd817 2.500 . S
O842 C827 1.258 . S
O843 Nd817 2.492 . S
O843 C827 1.239 . S
O844 Nd817 2.487 . S
O844 C834 1.241 . S
O845 Nd816 2.414 . S
O845 Nd817 2.682 . S
O845 C834 1.273 . S
O846 Nd817 2.410 . S
O846 C835 1.251 . S
O847 Nd816 2.424 . S
O847 C835 1.268 . S
H848 C820 0.930 . S
H849 C821 0.929 . S
H850 C823 0.930 . S
H851 C824 0.929 . S
H852 C829 0.930 . S
H853 C830 0.929 . S
H854 C832 0.930 . S
H855 C833 0.929 . S
Nd856 C858 2.836 . S
Nd856 O876 2.500 . S
Nd856 O877 2.492 . S
Nd856 O878 2.487 . S
Nd856 O879 2.682 . S
Nd856 O880 2.410 . S
Nd856 O885 2.414 . S
Nd856 O887 2.424 . S
Nd857 C867 2.836 . S
Nd857 O879 2.414 . S
Nd857 O881 2.424 . S
Nd857 O882 2.500 . S
Nd857 O883 2.492 . S
Nd857 O884 2.487 . S
Nd857 O885 2.682 . S
Nd857 O886 2.410 . S
C858 Nd856 2.836 . S
C858 C859 1.498 . S
C858 O876 1.258 . S
C858 O877 1.239 . S
C859 C858 1.498 . S
C859 C860 1.366 . S
C859 C864 1.407 . S
C860 C859 1.366 . S
C860 C861 1.392 . S
C860 H888 0.930 . S
C861 C860 1.392 . S
C861 C862 1.398 . S
C861 H889 0.929 . S
C862 C861 1.398 . S
C862 C863 1.352 . S
C863 C862 1.352 . S
C863 C864 1.384 . S
C863 H890 0.930 . S
C864 C859 1.407 . S
C864 C863 1.384 . S
C864 H891 0.929 . S
C865 O878 1.241 . S
C865 O879 1.273 . S
C866 O880 1.251 . S
C866 O881 1.268 . S
C867 Nd857 2.836 . S
C867 C868 1.498 . S
C867 O882 1.258 . S
C867 O883 1.239 . S
C868 C867 1.498 . S
C868 C869 1.366 . S
C868 C873 1.407 . S
C869 C868 1.366 . S
C869 C870 1.392 . S
C869 H892 0.930 . S
C870 C869 1.392 . S
C870 C871 1.398 . S
C870 H893 0.929 . S
C871 C870 1.398 . S
C871 C872 1.352 . S
C872 C871 1.352 . S
C872 C873 1.384 . S
C872 H894 0.930 . S
C873 C868 1.407 . S
C873 C872 1.384 . S
C873 H895 0.929 . S
C874 O884 1.241 . S
C874 O885 1.273 . S
C875 O886 1.251 . S
C875 O887 1.268 . S
O876 Nd856 2.500 . S
O876 C858 1.258 . S
O877 Nd856 2.492 . S
O877 C858 1.239 . S
O878 Nd856 2.487 . S
O878 C865 1.241 . S
O879 Nd856 2.682 . S
O879 Nd857 2.414 . S
O879 C865 1.273 . S
O880 Nd856 2.410 . S
O880 C866 1.251 . S
O881 Nd857 2.424 . S
O881 C866 1.268 . S
O882 Nd857 2.500 . S
O882 C867 1.258 . S
O883 Nd857 2.492 . S
O883 C867 1.239 . S
O884 Nd857 2.487 . S
O884 C874 1.241 . S
O885 Nd856 2.414 . S
O885 Nd857 2.682 . S
O885 C874 1.273 . S
O886 Nd857 2.410 . S
O886 C875 1.251 . S
O887 Nd856 2.424 . S
O887 C875 1.268 . S
H888 C860 0.930 . S
H889 C861 0.929 . S
H890 C863 0.930 . S
H891 C864 0.929 . S
H892 C869 0.930 . S
H893 C870 0.929 . S
H894 C872 0.930 . S
H895 C873 0.929 . S
Nd896 C898 2.836 . S
Nd896 O916 2.500 . S
Nd896 O917 2.492 . S
Nd896 O918 2.487 . S
Nd896 O919 2.682 . S
Nd896 O920 2.410 . S
Nd896 O925 2.414 . S
Nd896 O927 2.424 . S
Nd897 C907 2.836 . S
Nd897 O919 2.414 . S
Nd897 O921 2.424 . S
Nd897 O922 2.500 . S
Nd897 O923 2.492 . S
Nd897 O924 2.487 . S
Nd897 O925 2.682 . S
Nd897 O926 2.410 . S
C898 Nd896 2.836 . S
C898 C899 1.498 . S
C898 O916 1.258 . S
C898 O917 1.239 . S
C899 C898 1.498 . S
C899 C900 1.366 . S
C899 C904 1.407 . S
C900 C899 1.366 . S
C900 C901 1.392 . S
C900 H928 0.930 . S
C901 C900 1.392 . S
C901 C902 1.398 . S
C901 H929 0.929 . S
C902 C901 1.398 . S
C902 C903 1.352 . S
C903 C902 1.352 . S
C903 C904 1.384 . S
C903 H930 0.930 . S
C904 C899 1.407 . S
C904 C903 1.384 . S
C904 H931 0.929 . S
C905 O918 1.241 . S
C905 O919 1.273 . S
C906 O920 1.251 . S
C906 O921 1.268 . S
C907 Nd897 2.836 . S
C907 C908 1.498 . S
C907 O922 1.258 . S
C907 O923 1.239 . S
C908 C907 1.498 . S
C908 C909 1.366 . S
C908 C913 1.407 . S
C909 C908 1.366 . S
C909 C910 1.392 . S
C909 H932 0.930 . S
C910 C909 1.392 . S
C910 C911 1.398 . S
C910 H933 0.929 . S
C911 C910 1.398 . S
C911 C912 1.352 . S
C912 C911 1.352 . S
C912 C913 1.384 . S
C912 H934 0.930 . S
C913 C908 1.407 . S
C913 C912 1.384 . S
C913 H935 0.929 . S
C914 O924 1.241 . S
C914 O925 1.273 . S
C915 O926 1.251 . S
C915 O927 1.268 . S
O916 Nd896 2.500 . S
O916 C898 1.258 . S
O917 Nd896 2.492 . S
O917 C898 1.239 . S
O918 Nd896 2.487 . S
O918 C905 1.241 . S
O919 Nd896 2.682 . S
O919 Nd897 2.414 . S
O919 C905 1.273 . S
O920 Nd896 2.410 . S
O920 C906 1.251 . S
O921 Nd897 2.424 . S
O921 C906 1.268 . S
O922 Nd897 2.500 . S
O922 C907 1.258 . S
O923 Nd897 2.492 . S
O923 C907 1.239 . S
O924 Nd897 2.487 . S
O924 C914 1.241 . S
O925 Nd896 2.414 . S
O925 Nd897 2.682 . S
O925 C914 1.273 . S
O926 Nd897 2.410 . S
O926 C915 1.251 . S
O927 Nd896 2.424 . S
O927 C915 1.268 . S
H928 C900 0.930 . S
H929 C901 0.929 . S
H930 C903 0.930 . S
H931 C904 0.929 . S
H932 C909 0.930 . S
H933 C910 0.929 . S
H934 C912 0.930 . S
H935 C913 0.929 . S
Nd936 C938 2.836 . S
Nd936 O956 2.500 . S
Nd936 O957 2.492 . S
Nd936 O958 2.487 . S
Nd936 O959 2.682 . S
Nd936 O960 2.410 . S
Nd936 O965 2.414 . S
Nd936 O967 2.424 . S
Nd937 C947 2.836 1_455 S
Nd937 O959 2.414 . S
Nd937 O961 2.424 . S
Nd937 O962 2.531 . S
Nd937 O963 2.492 1_455 S
Nd937 O964 2.487 . S
Nd937 O965 2.682 . S
Nd937 O966 2.410 . S
C938 Nd936 2.836 . S
C938 C939 1.498 . S
C938 O956 1.258 . S
C938 O957 1.239 . S
C939 C938 1.498 . S
C939 C940 1.366 . S
C939 C944 1.407 . S
C940 C939 1.366 . S
C940 C941 1.392 . S
C940 H968 0.930 . S
C941 C940 1.392 . S
C941 C942 1.398 . S
C941 H969 0.929 . S
C942 C941 1.398 . S
C942 C943 1.352 . S
C943 C942 1.352 . S
C943 C944 1.384 . S
C943 H970 0.930 . S
C944 C939 1.407 . S
C944 C943 1.384 . S
C944 H971 0.929 . S
C945 O958 1.241 . S
C945 O959 1.273 . S
C946 O960 1.251 . S
C946 O961 1.268 . S
C947 Nd937 2.836 1_655 S
C947 C948 1.498 . S
C947 O962 1.237 1_655 S
C947 O963 1.239 . S
C948 C947 1.498 . S
C948 C949 1.366 . S
C948 C953 1.407 . S
C949 C948 1.366 . S
C949 C950 1.392 . S
C949 H972 0.930 . S
C950 C949 1.392 . S
C950 C951 1.398 . S
C950 H973 0.929 . S
C951 C950 1.398 . S
C951 C952 1.352 . S
C952 C951 1.352 . S
C952 C953 1.384 . S
C952 H974 0.930 . S
C953 C948 1.407 . S
C953 C952 1.384 . S
C953 H975 0.929 . S
C954 O964 1.241 . S
C954 O965 1.273 . S
C955 O966 1.251 . S
C955 O967 1.268 . S
O956 Nd936 2.500 . S
O956 C938 1.258 . S
O957 Nd936 2.492 . S
O957 C938 1.239 . S
O958 Nd936 2.487 . S
O958 C945 1.241 . S
O959 Nd936 2.682 . S
O959 Nd937 2.414 . S
O959 C945 1.273 . S
O960 Nd936 2.410 . S
O960 C946 1.251 . S
O961 Nd937 2.424 . S
O961 C946 1.268 . S
O962 Nd937 2.531 . S
O962 C947 1.237 1_455 S
O963 Nd937 2.492 1_655 S
O963 C947 1.239 . S
O964 Nd937 2.487 . S
O964 C954 1.241 . S
O965 Nd936 2.414 . S
O965 Nd937 2.682 . S
O965 C954 1.273 . S
O966 Nd937 2.410 . S
O966 C955 1.251 . S
O967 Nd936 2.424 . S
O967 C955 1.268 . S
H968 C940 0.930 . S
H969 C941 0.929 . S
H970 C943 0.930 . S
H971 C944 0.929 . S
H972 C949 0.930 . S
H973 C950 0.929 . S
H974 C952 0.930 . S
H975 C953 0.929 . S
C976 C977 1.363 . S
C976 C982 1.379 1_556 S
C976 N984 1.356 . S
C977 C976 1.363 . S
C977 C983 1.363 . S
C978 C979 1.363 . S
C978 C983 1.379 1_554 S
C978 N985 1.356 . S
C979 C978 1.363 . S
C979 C982 1.363 . S
N980 C982 1.356 . S
N980 H992 0.984 . S
N980 H993 0.985 . S
N981 C983 1.356 . S
N981 H986 0.984 . S
N981 H987 0.985 . S
C982 C976 1.379 1_554 S
C982 C979 1.363 . S
C982 N980 1.356 . S
C983 C977 1.363 . S
C983 C978 1.379 1_556 S
C983 N981 1.356 . S
N984 C976 1.356 . S
N984 H990 0.984 . S
N984 H991 0.984 . S
N985 C978 1.356 . S
N985 H988 0.984 . S
N985 H989 0.985 . S
H986 N981 0.984 . S
H987 N981 0.985 . S
H988 N985 0.984 . S
H989 N985 0.985 . S
H990 N984 0.984 . S
H991 N984 0.984 . S
H992 N980 0.984 . S
H993 N980 0.985 . S
C994 C995 1.363 . S
C994 C1000 1.379 . S
C994 N1002 1.356 . S
C995 C994 1.363 . S
C995 C1001 1.363 . S
C996 C997 1.363 . S
C996 C1001 1.379 . S
C996 N1003 1.356 . S
C997 C996 1.363 . S
C997 C1000 1.363 . S
N998 C1000 1.356 . S
N998 H1010 0.984 . S
N998 H1011 0.985 . S
N999 C1001 1.356 . S
N999 H1004 0.984 . S
N999 H1005 0.985 . S
C1000 C994 1.379 . S
C1000 C997 1.363 . S
C1000 N998 1.356 . S
C1001 C995 1.363 . S
C1001 C996 1.379 . S
C1001 N999 1.356 . S
N1002 C994 1.356 . S
N1002 H1008 0.984 . S
N1002 H1009 0.984 . S
N1003 C996 1.356 . S
N1003 H1006 0.984 . S
N1003 H1007 0.985 . S
H1004 N999 0.984 . S
H1005 N999 0.985 . S
H1006 N1003 0.984 . S
H1007 N1003 0.985 . S
H1008 N1002 0.984 . S
H1009 N1002 0.984 . S
H1010 N998 0.984 . S
H1011 N998 0.985 . S
C1012 C1013 1.363 . S
C1012 C1018 1.379 . S
C1012 N1020 1.356 . S
C1013 C1012 1.363 . S
C1013 C1019 1.363 . S
C1014 C1015 1.363 . S
C1014 C1019 1.379 . S
C1014 N1021 1.356 1_565 S
C1015 C1014 1.363 . S
C1015 C1018 1.363 . S
N1016 C1018 1.356 . S
N1016 H1028 0.984 . S
N1016 H1029 0.985 . S
N1017 C1019 1.356 . S
N1017 H1022 0.984 . S
N1017 H1023 0.985 . S
C1018 C1012 1.379 . S
C1018 C1015 1.363 . S
C1018 N1016 1.356 . S
C1019 C1013 1.363 . S
C1019 C1014 1.379 . S
C1019 N1017 1.356 . S
N1020 C1012 1.356 . S
N1020 H1026 0.984 . S
N1020 H1027 0.984 . S
N1021 C1014 1.356 1_545 S
N1021 H1024 0.984 . S
N1021 H1025 0.985 . S
H1022 N1017 0.984 . S
H1023 N1017 0.985 . S
H1024 N1021 0.984 . S
H1025 N1021 0.985 . S
H1026 N1020 0.984 . S
H1027 N1020 0.984 . S
H1028 N1016 0.984 . S
H1029 N1016 0.985 . S
C1030 C1031 1.363 . S
C1030 C1036 1.379 . S
C1030 N1038 1.356 . S
C1031 C1030 1.363 . S
C1031 C1037 1.363 . S
C1032 C1033 1.363 . S
C1032 C1037 1.379 . S
C1032 N1039 1.356 . S
C1033 C1032 1.363 . S
C1033 C1036 1.363 . S
N1034 C1036 1.356 . S
N1034 H1046 0.984 . S
N1034 H1047 0.985 . S
N1035 C1037 1.356 . S
N1035 H1040 0.984 . S
N1035 H1041 0.985 . S
C1036 C1030 1.379 . S
C1036 C1033 1.363 . S
C1036 N1034 1.356 . S
C1037 C1031 1.363 . S
C1037 C1032 1.379 . S
C1037 N1035 1.356 . S
N1038 C1030 1.356 . S
N1038 H1044 0.984 . S
N1038 H1045 0.984 . S
N1039 C1032 1.356 . S
N1039 H1042 0.984 . S
N1039 H1043 0.985 . S
H1040 N1035 0.984 . S
H1041 N1035 0.985 . S
H1042 N1039 0.984 . S
H1043 N1039 0.985 . S
H1044 N1038 0.984 . S
H1045 N1038 0.984 . S
H1046 N1034 0.984 . S
H1047 N1034 0.985 . S
C1048 C1049 1.363 . S
C1048 C1054 1.379 . S
C1048 N1056 1.356 1_455 S
C1049 C1048 1.363 . S
C1049 C1055 1.363 . S
C1050 C1051 1.363 . S
C1050 C1055 1.379 . S
C1050 N1057 1.356 . S
C1051 C1050 1.363 . S
C1051 C1054 1.363 . S
N1052 C1054 1.356 . S
N1052 H1064 0.984 . S
N1052 H1065 0.985 . S
N1053 C1055 1.356 . S
N1053 H1058 0.984 . S
N1053 H1059 0.985 . S
C1054 C1048 1.379 . S
C1054 C1051 1.363 . S
C1054 N1052 1.356 . S
C1055 C1049 1.363 . S
C1055 C1050 1.379 . S
C1055 N1053 1.356 . S
N1056 C1048 1.356 1_655 S
N1056 H1062 0.984 . S
N1056 H1063 0.984 . S
N1057 C1050 1.356 . S
N1057 H1060 0.984 . S
N1057 H1061 0.985 . S
H1058 N1053 0.984 . S
H1059 N1053 0.985 . S
H1060 N1057 0.984 . S
H1061 N1057 0.985 . S
H1062 N1056 0.984 . S
H1063 N1056 0.984 . S
H1064 N1052 0.984 . S
H1065 N1052 0.985 . S
C1066 C1067 1.363 . S
C1066 C1072 1.379 . S
C1066 N1074 1.356 . S
C1067 C1066 1.363 . S
C1067 C1073 1.363 . S
C1068 C1069 1.363 . S
C1068 C1073 1.379 . S
C1068 N1075 1.356 . S
C1069 C1068 1.363 . S
C1069 C1072 1.363 . S
N1070 C1072 1.356 . S
N1070 H1082 0.984 . S
N1070 H1083 0.985 . S
N1071 C1073 1.356 . S
N1071 H1076 0.984 . S
N1071 H1077 0.985 . S
C1072 C1066 1.379 . S
C1072 C1069 1.363 . S
C1072 N1070 1.356 . S
C1073 C1067 1.363 . S
C1073 C1068 1.379 . S
C1073 N1071 1.356 . S
N1074 C1066 1.356 . S
N1074 H1080 0.984 . S
N1074 H1081 0.984 . S
N1075 C1068 1.356 . S
N1075 H1078 0.984 . S
N1075 H1079 0.985 . S
H1076 N1071 0.984 . S
H1077 N1071 0.985 . S
H1078 N1075 0.984 . S
H1079 N1075 0.985 . S
H1080 N1074 0.984 . S
H1081 N1074 0.984 . S
H1082 N1070 0.984 . S
H1083 N1070 0.985 . S
C1084 C1085 1.363 . S
C1084 C1090 1.379 . S
C1084 N1092 1.356 . S
C1085 C1084 1.363 . S
C1085 C1091 1.363 . S
C1086 C1087 1.363 . S
C1086 C1091 1.379 . S
C1086 N1093 1.356 . S
C1087 C1086 1.363 . S
C1087 C1090 1.363 . S
N1088 C1090 1.356 . S
N1088 H1100 0.984 . S
N1088 H1101 0.985 . S
N1089 C1091 1.356 . S
N1089 H1094 0.984 . S
N1089 H1095 0.990 . S
C1090 C1084 1.379 . S
C1090 C1087 1.363 . S
C1090 N1088 1.356 . S
C1091 C1085 1.363 . S
C1091 C1086 1.379 . S
C1091 N1089 1.356 . S
N1092 C1084 1.356 . S
N1092 H1098 0.984 . S
N1092 H1099 0.984 . S
N1093 C1086 1.356 . S
N1093 H1096 0.984 . S
N1093 H1097 0.985 . S
H1094 N1089 0.984 . S
H1095 N1089 0.990 . S
H1096 N1093 0.984 . S
H1097 N1093 0.985 . S
H1098 N1092 0.984 . S
H1099 N1092 0.984 . S
H1100 N1088 0.984 . S
H1101 N1088 0.985 . S
C1102 C1103 1.363 . S
C1102 C1108 1.379 . S
C1102 N1110 1.356 . S
C1103 C1102 1.363 . S
C1103 C1109 1.363 . S
C1104 C1105 1.363 . S
C1104 C1109 1.379 . S
C1104 N1111 1.356 . S
C1105 C1104 1.363 . S
C1105 C1108 1.363 . S
N1106 C1108 1.356 . S
N1106 H1118 0.984 . S
N1106 H1119 0.985 . S
N1107 C1109 1.356 . S
N1107 H1112 0.984 . S
N1107 H1113 0.985 . S
C1108 C1102 1.379 . S
C1108 C1105 1.363 . S
C1108 N1106 1.356 . S
C1109 C1103 1.363 . S
C1109 C1104 1.379 . S
C1109 N1107 1.356 . S
N1110 C1102 1.356 . S
N1110 H1116 0.984 . S
N1110 H1117 0.984 . S
N1111 C1104 1.356 . S
N1111 H1114 0.984 . S
N1111 H1115 0.985 . S
H1112 N1107 0.984 . S
H1113 N1107 0.985 . S
H1114 N1111 0.984 . S
H1115 N1111 0.985 . S
H1116 N1110 0.984 . S
H1117 N1110 0.984 . S
H1118 N1106 0.984 . S
H1119 N1106 0.985 . S
C1120 C1121 1.363 1_455 S
C1120 C1126 1.379 . S
C1120 N1128 1.356 . S
C1121 C1120 1.363 1_655 S
C1121 C1127 1.363 . S
C1122 C1123 1.363 1_655 S
C1122 C1127 1.379 . S
C1122 N1129 1.356 . S
C1123 C1122 1.363 1_455 S
C1123 C1126 1.363 . S
N1124 C1126 1.356 . S
N1124 H1136 0.984 . S
N1124 H1137 0.985 . S
N1125 C1127 1.356 . S
N1125 H1130 0.984 . S
N1125 H1131 0.985 . S
C1126 C1120 1.379 . S
C1126 C1123 1.363 . S
C1126 N1124 1.356 . S
C1127 C1121 1.363 . S
C1127 C1122 1.379 . S
C1127 N1125 1.356 . S
N1128 C1120 1.356 . S
N1128 H1134 0.984 . S
N1128 H1135 0.984 1_455 S
N1129 C1122 1.356 . S
N1129 H1132 0.984 1_655 S
N1129 H1133 0.985 . S
H1130 N1125 0.984 . S
H1131 N1125 0.985 . S
H1132 N1129 0.984 1_455 S
H1133 N1129 0.985 . S
H1134 N1128 0.984 . S
H1135 N1128 0.984 1_655 S
H1136 N1124 0.984 . S
H1137 N1124 0.985 . S
C1138 C1139 1.363 . S
C1138 C1144 1.379 . S
C1138 N1146 1.356 . S
C1139 C1138 1.363 . S
C1139 C1145 1.363 . S
C1140 C1141 1.363 . S
C1140 C1145 1.379 . S
C1140 N1147 1.356 . S
C1141 C1140 1.363 . S
C1141 C1144 1.363 . S
N1142 C1144 1.356 . S
N1142 H1154 0.984 . S
N1142 H1155 0.985 . S
N1143 C1145 1.356 . S
N1143 H1148 0.984 . S
N1143 H1149 0.985 . S
C1144 C1138 1.379 . S
C1144 C1141 1.363 . S
C1144 N1142 1.356 . S
C1145 C1139 1.363 . S
C1145 C1140 1.379 . S
C1145 N1143 1.356 . S
N1146 C1138 1.356 . S
N1146 H1152 0.984 . S
N1146 H1153 0.984 . S
N1147 C1140 1.356 . S
N1147 H1150 0.984 . S
N1147 H1151 0.985 . S
H1148 N1143 0.984 . S
H1149 N1143 0.985 . S
H1150 N1147 0.984 . S
H1151 N1147 0.985 . S
H1152 N1146 0.984 . S
H1153 N1146 0.984 . S
H1154 N1142 0.984 . S
H1155 N1142 0.985 . S
C1156 C1157 1.363 1_565 S
C1156 C1162 1.379 1_565 S
C1156 N1164 1.356 . S
C1157 C1156 1.363 1_545 S
C1157 C1163 1.363 . S
C1158 C1159 1.363 . S
C1158 C1163 1.379 . S
C1158 N1165 1.356 . S
C1159 C1158 1.363 . S
C1159 C1162 1.363 . S
N1160 C1162 1.356 . S
N1160 H1172 0.984 1_545 S
N1160 H1173 0.985 . S
N1161 C1163 1.356 . S
N1161 H1166 0.984 . S
N1161 H1167 0.985 . S
C1162 C1156 1.379 1_545 S
C1162 C1159 1.363 . S
C1162 N1160 1.356 . S
C1163 C1157 1.363 . S
C1163 C1158 1.379 . S
C1163 N1161 1.356 . S
N1164 C1156 1.356 . S
N1164 H1170 0.984 . S
N1164 H1171 0.984 . S
N1165 C1158 1.356 . S
N1165 H1168 0.984 . S
N1165 H1169 0.985 . S
H1166 N1161 0.984 . S
H1167 N1161 0.985 . S
H1168 N1165 0.984 . S
H1169 N1165 0.985 . S
H1170 N1164 0.984 . S
H1171 N1164 0.984 . S
H1172 N1160 0.984 1_565 S
H1173 N1160 0.985 . S
C1174 C1175 1.363 . S
C1174 C1180 1.379 . S
C1174 N1182 1.356 . S
C1175 C1174 1.363 . S
C1175 C1181 1.363 . S
C1176 C1177 1.363 . S
C1176 C1181 1.379 . S
C1176 N1183 1.356 . S
C1177 C1176 1.363 . S
C1177 C1180 1.363 . S
N1178 C1180 1.356 . S
N1178 H1190 0.984 1_554 S
N1178 H1191 0.985 . S
N1179 C1181 1.356 . S
N1179 H1184 0.984 . S
N1179 H1185 0.985 . S
C1180 C1174 1.379 . S
C1180 C1177 1.363 . S
C1180 N1178 1.356 . S
C1181 C1175 1.363 . S
C1181 C1176 1.379 . S
C1181 N1179 1.356 . S
N1182 C1174 1.356 . S
N1182 H1188 0.984 . S
N1182 H1189 0.984 . S
N1183 C1176 1.356 . S
N1183 H1186 0.984 . S
N1183 H1187 0.985 . S
H1184 N1179 0.984 . S
H1185 N1179 0.985 . S
H1186 N1183 0.984 . S
H1187 N1183 0.985 . S
H1188 N1182 0.984 . S
H1189 N1182 0.984 . S
H1190 N1178 0.984 1_556 S
H1191 N1178 0.985 . S
C1192 C1193 1.363 1_455 S
C1192 C1198 1.379 . S
C1192 N1200 1.356 . S
C1193 C1192 1.363 1_655 S
C1193 C1199 1.363 . S
C1194 C1195 1.357 1_655 S
C1194 C1199 1.384 . S
C1194 N1201 1.355 . S
C1195 C1194 1.357 1_455 S
C1195 C1198 1.363 . S
N1196 C1198 1.356 . S
N1196 H1208 0.984 . S
N1196 H1209 0.985 . S
N1197 C1199 1.356 . S
N1197 H1202 0.984 . S
N1197 H1203 0.985 . S
C1198 C1192 1.379 . S
C1198 C1195 1.363 . S
C1198 N1196 1.356 . S
C1199 C1193 1.363 . S
C1199 C1194 1.384 . S
C1199 N1197 1.356 . S
N1200 C1192 1.356 . S
N1200 H1206 0.984 . S
N1200 H1207 0.984 1_455 S
N1201 C1194 1.355 . S
N1201 H1204 0.984 1_655 S
N1201 H1205 0.985 . S
H1202 N1197 0.984 . S
H1203 N1197 0.985 . S
H1204 N1201 0.984 1_455 S
H1205 N1201 0.985 . S
H1206 N1200 0.984 . S
H1207 N1200 0.984 1_655 S
H1208 N1196 0.984 . S
H1209 N1196 0.985 . S
C1210 C1211 1.363 . S
C1210 C1216 1.379 . S
C1210 N1218 1.356 . S
C1211 C1210 1.363 . S
C1211 C1217 1.363 . S
C1212 C1213 1.363 . S
C1212 C1217 1.379 . S
C1212 N1219 1.356 . S
C1213 C1212 1.363 . S
C1213 C1216 1.363 . S
N1214 C1216 1.356 . S
N1214 H1226 0.984 . S
N1214 H1227 0.985 . S
N1215 C1217 1.356 . S
N1215 H1220 0.984 . S
N1215 H1221 0.985 . S
C1216 C1210 1.379 . S
C1216 C1213 1.363 . S
C1216 N1214 1.356 . S
C1217 C1211 1.363 . S
C1217 C1212 1.379 . S
C1217 N1215 1.356 . S
N1218 C1210 1.356 . S
N1218 H1224 0.984 . S
N1218 H1225 0.984 . S
N1219 C1212 1.356 . S
N1219 H1222 0.984 . S
N1219 H1223 0.985 . S
H1220 N1215 0.984 . S
H1221 N1215 0.985 . S
H1222 N1219 0.984 . S
H1223 N1219 0.985 . S
H1224 N1218 0.984 . S
H1225 N1218 0.984 . S
H1226 N1214 0.984 . S
H1227 N1214 0.985 . S
C1228 C1229 1.363 . S
C1228 C1234 1.379 . S
C1228 N1236 1.356 1_545 S
C1229 C1228 1.363 . S
C1229 C1235 1.363 . S
C1230 C1231 1.363 . S
C1230 C1235 1.379 . S
C1230 N1237 1.356 . S
C1231 C1230 1.363 . S
C1231 C1234 1.363 . S
N1232 C1234 1.356 1_554 S
N1232 H1244 0.984 1_545 S
N1232 H1245 0.985 . S
N1233 C1235 1.356 . S
N1233 H1238 0.984 . S
N1233 H1239 0.985 . S
C1234 C1228 1.379 . S
C1234 C1231 1.363 . S
C1234 N1232 1.356 1_556 S
C1235 C1229 1.363 . S
C1235 C1230 1.379 . S
C1235 N1233 1.356 . S
N1236 C1228 1.356 1_565 S
N1236 H1242 0.984 . S
N1236 H1243 0.984 . S
N1237 C1230 1.356 . S
N1237 H1240 0.984 1_556 S
N1237 H1241 0.985 . S
H1238 N1233 0.984 . S
H1239 N1233 0.985 . S
H1240 N1237 0.984 1_554 S
H1241 N1237 0.985 . S
H1242 N1236 0.984 . S
H1243 N1236 0.984 . S
H1244 N1232 0.984 1_565 S
H1245 N1232 0.985 . S
C1246 C1247 1.363 . S
C1246 C1252 1.379 . S
C1246 N1254 1.356 . S
C1247 C1246 1.363 . S
C1247 C1253 1.363 . S
C1248 C1249 1.363 . S
C1248 C1253 1.379 . S
C1248 N1255 1.356 . S
C1249 C1248 1.363 . S
C1249 C1252 1.363 . S
N1250 C1252 1.356 . S
N1250 H1262 0.984 . S
N1250 H1263 0.985 . S
N1251 C1253 1.356 . S
N1251 H1256 0.984 . S
N1251 H1257 0.985 . S
C1252 C1246 1.379 . S
C1252 C1249 1.363 . S
C1252 N1250 1.356 . S
C1253 C1247 1.363 . S
C1253 C1248 1.379 . S
C1253 N1251 1.356 . S
N1254 C1246 1.356 . S
N1254 H1260 0.984 . S
N1254 H1261 0.984 . S
N1255 C1248 1.356 . S
N1255 H1258 0.984 . S
N1255 H1259 0.985 . S
H1256 N1251 0.984 . S
H1257 N1251 0.985 . S
H1258 N1255 0.984 . S
H1259 N1255 0.985 . S
H1260 N1254 0.984 . S
H1261 N1254 0.984 . S
H1262 N1250 0.984 . S
H1263 N1250 0.985 . S
C1264 C1265 1.363 . S
C1264 C1270 1.379 1_565 S
C1264 N1272 1.356 . S
C1265 C1264 1.363 . S
C1265 C1271 1.363 . S
C1266 C1267 1.363 1_565 S
C1266 C1271 1.379 . S
C1266 N1273 1.356 . S
C1267 C1266 1.363 1_545 S
C1267 C1270 1.363 . S
N1268 C1270 1.356 . S
N1268 H1280 0.984 . S
N1268 H1281 0.985 . S
N1269 C1271 1.356 . S
N1269 H1274 0.984 . S
N1269 H1275 0.985 . S
C1270 C1264 1.379 1_545 S
C1270 C1267 1.363 . S
C1270 N1268 1.356 . S
C1271 C1265 1.363 . S
C1271 C1266 1.379 . S
C1271 N1269 1.356 . S
N1272 C1264 1.356 . S
N1272 H1278 0.984 . S
N1272 H1279 0.984 . S
N1273 C1266 1.356 . S
N1273 H1276 0.984 1_565 S
N1273 H1277 0.985 . S
H1274 N1269 0.984 . S
H1275 N1269 0.985 . S
H1276 N1273 0.984 1_545 S
H1277 N1273 0.985 . S
H1278 N1272 0.984 . S
H1279 N1272 0.984 . S
H1280 N1268 0.984 . S
H1281 N1268 0.985 . S
C1282 C1283 1.363 . S
C1282 C1288 1.379 . S
C1282 N1290 1.356 . S
C1283 C1282 1.363 . S
C1283 C1289 1.363 1_554 S
C1284 C1285 1.363 . S
C1284 C1289 1.379 1_554 S
C1284 N1291 1.356 . S
C1285 C1284 1.363 . S
C1285 C1288 1.363 . S
N1286 C1288 1.356 . S
N1286 H1298 0.984 . S
N1286 H1299 0.985 . S
N1287 C1289 1.356 . S
N1287 H1292 0.984 . S
N1287 H1293 0.985 . S
C1288 C1282 1.379 . S
C1288 C1285 1.363 . S
C1288 N1286 1.356 . S
C1289 C1283 1.363 1_556 S
C1289 C1284 1.379 1_556 S
C1289 N1287 1.356 . S
N1290 C1282 1.356 . S
N1290 H1296 0.984 . S
N1290 H1297 0.984 . S
N1291 C1284 1.356 . S
N1291 H1294 0.984 . S
N1291 H1295 0.985 1_554 S
H1292 N1287 0.984 . S
H1293 N1287 0.985 . S
H1294 N1291 0.984 . S
H1295 N1291 0.985 1_556 S
H1296 N1290 0.984 . S
H1297 N1290 0.984 . S
H1298 N1286 0.984 . S
H1299 N1286 0.985 . S
C1300 C1301 1.363 . S
C1300 C1306 1.379 . S
C1300 N1308 1.356 . S
C1301 C1300 1.363 . S
C1301 C1307 1.363 . S
C1302 C1303 1.363 . S
C1302 C1307 1.379 . S
C1302 N1309 1.356 . S
C1303 C1302 1.363 . S
C1303 C1306 1.363 . S
N1304 C1306 1.356 . S
N1304 H1316 0.984 . S
N1304 H1317 0.985 . S
N1305 C1307 1.356 . S
N1305 H1310 0.984 . S
N1305 H1311 0.985 . S
C1306 C1300 1.379 . S
C1306 C1303 1.363 . S
C1306 N1304 1.356 . S
C1307 C1301 1.363 . S
C1307 C1302 1.379 . S
C1307 N1305 1.356 . S
N1308 C1300 1.356 . S
N1308 H1314 0.984 . S
N1308 H1315 0.984 . S
N1309 C1302 1.356 . S
N1309 H1312 0.984 . S
N1309 H1313 0.985 . S
H1310 N1305 0.984 . S
H1311 N1305 0.985 . S
H1312 N1309 0.984 . S
H1313 N1309 0.985 . S
H1314 N1308 0.984 . S
H1315 N1308 0.984 . S
H1316 N1304 0.984 . S
H1317 N1304 0.985 . S
C1318 C1319 1.363 . S
C1318 C1324 1.379 . S
C1318 N1326 1.356 . S
C1319 C1318 1.363 . S
C1319 C1325 1.363 . S
C1320 C1321 1.363 . S
C1320 C1325 1.379 . S
C1320 N1327 1.356 . S
C1321 C1320 1.363 . S
C1321 C1324 1.363 . S
N1322 C1324 1.356 . S
N1322 H1334 0.984 . S
N1322 H1335 0.985 . S
N1323 C1325 1.356 . S
N1323 H1328 0.984 . S
N1323 H1329 0.985 . S
C1324 C1318 1.379 . S
C1324 C1321 1.363 . S
C1324 N1322 1.356 . S
C1325 C1319 1.363 . S
C1325 C1320 1.379 . S
C1325 N1323 1.356 . S
N1326 C1318 1.356 . S
N1326 H1332 0.984 . S
N1326 H1333 0.984 . S
N1327 C1320 1.356 . S
N1327 H1330 0.984 . S
N1327 H1331 0.985 . S
H1328 N1323 0.984 . S
H1329 N1323 0.985 . S
H1330 N1327 0.984 . S
H1331 N1327 0.985 . S
H1332 N1326 0.984 . S
H1333 N1326 0.984 . S
H1334 N1322 0.984 . S
H1335 N1322 0.985 . S
C1336 C1337 1.363 . S
C1336 C1342 1.379 . S
C1336 N1344 1.356 . S
C1337 C1336 1.363 . S
C1337 C1343 1.363 . S
C1338 C1339 1.363 . S
C1338 C1343 1.379 . S
C1338 N1345 1.356 . S
C1339 C1338 1.363 . S
C1339 C1342 1.363 . S
N1340 C1342 1.356 . S
N1340 H1352 0.984 . S
N1340 H1353 0.985 . S
N1341 C1343 1.356 . S
N1341 H1346 0.984 . S
N1341 H1347 0.985 . S
C1342 C1336 1.379 . S
C1342 C1339 1.363 . S
C1342 N1340 1.356 . S
C1343 C1337 1.363 . S
C1343 C1338 1.379 . S
C1343 N1341 1.356 . S
N1344 C1336 1.356 . S
N1344 H1350 0.984 . S
N1344 H1351 0.984 . S
N1345 C1338 1.356 . S
N1345 H1348 0.984 . S
N1345 H1349 0.985 . S
H1346 N1341 0.984 . S
H1347 N1341 0.985 . S
H1348 N1345 0.984 . S
H1349 N1345 0.985 . S
H1350 N1344 0.984 . S
H1351 N1344 0.984 . S
H1352 N1340 0.984 . S
H1353 N1340 0.985 . S
C1354 C1355 1.363 . S
C1354 C1360 1.379 . S
C1354 N1362 1.356 . S
C1355 C1354 1.363 . S
C1355 C1361 1.363 . S
C1356 C1357 1.363 . S
C1356 C1361 1.379 . S
C1356 N1363 1.356 . S
C1357 C1356 1.363 . S
C1357 C1360 1.363 . S
N1358 C1360 1.356 . S
N1358 H1370 0.984 . S
N1358 H1371 0.985 . S
N1359 C1361 1.356 . S
N1359 H1364 0.984 . S
N1359 H1365 0.985 . S
C1360 C1354 1.379 . S
C1360 C1357 1.363 . S
C1360 N1358 1.356 . S
C1361 C1355 1.363 . S
C1361 C1356 1.379 . S
C1361 N1359 1.356 . S
N1362 C1354 1.356 . S
N1362 H1368 0.984 . S
N1362 H1369 0.984 . S
N1363 C1356 1.356 . S
N1363 H1366 0.984 . S
N1363 H1367 0.985 . S
H1364 N1359 0.984 . S
H1365 N1359 0.985 . S
H1366 N1363 0.984 . S
H1367 N1363 0.985 . S
H1368 N1362 0.984 . S
H1369 N1362 0.984 . S
H1370 N1358 0.984 . S
H1371 N1358 0.985 . S
C1372 C1373 1.363 . S
C1372 C1378 1.379 . S
C1372 N1380 1.356 . S
C1373 C1372 1.363 . S
C1373 C1379 1.363 . S
C1374 C1375 1.363 . S
C1374 C1379 1.379 . S
C1374 N1381 1.356 . S
C1375 C1374 1.363 . S
C1375 C1378 1.363 . S
N1376 C1378 1.356 . S
N1376 H1388 0.984 . S
N1376 H1389 0.985 . S
N1377 C1379 1.356 . S
N1377 H1382 0.984 . S
N1377 H1383 0.985 . S
C1378 C1372 1.379 . S
C1378 C1375 1.363 . S
C1378 N1376 1.356 . S
C1379 C1373 1.363 . S
C1379 C1374 1.379 . S
C1379 N1377 1.356 . S
N1380 C1372 1.356 . S
N1380 H1386 0.984 . S
N1380 H1387 0.984 . S
N1381 C1374 1.356 . S
N1381 H1384 0.984 . S
N1381 H1385 0.985 . S
H1382 N1377 0.984 . S
H1383 N1377 0.985 . S
H1384 N1381 0.984 . S
H1385 N1381 0.985 . S
H1386 N1380 0.984 . S
H1387 N1380 0.984 . S
H1388 N1376 0.984 . S
H1389 N1376 0.985 . S
C1390 C1391 1.363 . S
C1390 C1396 1.379 . S
C1390 N1398 1.356 . S
C1391 C1390 1.363 . S
C1391 C1397 1.363 . S
C1392 C1393 1.363 . S
C1392 C1397 1.379 . S
C1392 N1399 1.356 . S
C1393 C1392 1.363 . S
C1393 C1396 1.363 . S
N1394 C1396 1.356 . S
N1394 H1406 0.984 . S
N1394 H1407 0.985 . S
N1395 C1397 1.356 . S
N1395 H1400 0.984 . S
N1395 H1401 0.985 . S
C1396 C1390 1.379 . S
C1396 C1393 1.363 . S
C1396 N1394 1.356 . S
C1397 C1391 1.363 . S
C1397 C1392 1.379 . S
C1397 N1395 1.356 . S
N1398 C1390 1.356 . S
N1398 H1404 0.984 . S
N1398 H1405 0.984 . S
N1399 C1392 1.356 . S
N1399 H1402 0.984 . S
N1399 H1403 0.985 . S
H1400 N1395 0.984 . S
H1401 N1395 0.985 . S
H1402 N1399 0.984 . S
H1403 N1399 0.985 . S
H1404 N1398 0.984 . S
H1405 N1398 0.984 . S
H1406 N1394 0.984 . S
H1407 N1394 0.985 . S
C1408 C1409 1.363 . S
C1408 C1414 1.379 . S
C1408 N1416 1.356 . S
C1409 C1408 1.363 . S
C1409 C1415 1.363 . S
C1410 C1411 1.363 . S
C1410 C1415 1.379 . S
C1410 N1417 1.356 . S
C1411 C1410 1.363 . S
C1411 C1414 1.363 . S
N1412 C1414 1.356 . S
N1412 H1424 0.984 . S
N1412 H1425 0.985 . S
N1413 C1415 1.356 . S
N1413 H1418 0.984 . S
N1413 H1419 0.985 . S
C1414 C1408 1.379 . S
C1414 C1411 1.363 . S
C1414 N1412 1.356 . S
C1415 C1409 1.363 . S
C1415 C1410 1.379 . S
C1415 N1413 1.356 . S
N1416 C1408 1.356 . S
N1416 H1422 0.984 . S
N1416 H1423 0.984 . S
N1417 C1410 1.356 . S
N1417 H1420 0.984 . S
N1417 H1421 0.985 . S
H1418 N1413 0.984 . S
H1419 N1413 0.985 . S
H1420 N1417 0.984 . S
H1421 N1417 0.985 . S
H1422 N1416 0.984 . S
H1423 N1416 0.984 . S
H1424 N1412 0.984 . S
H1425 N1412 0.985 . S
C1426 C1427 1.363 . S
C1426 C1432 1.379 . S
C1426 N1434 1.356 . S
C1427 C1426 1.363 . S
C1427 C1433 1.363 . S
C1428 C1429 1.363 . S
C1428 C1433 1.379 . S
C1428 N1435 1.356 . S
C1429 C1428 1.363 . S
C1429 C1432 1.363 . S
N1430 C1432 1.356 . S
N1430 H1442 0.984 . S
N1430 H1443 0.985 . S
N1431 C1433 1.356 . S
N1431 H1436 0.984 1_655 S
N1431 H1437 0.985 . S
C1432 C1426 1.379 . S
C1432 C1429 1.363 . S
C1432 N1430 1.356 . S
C1433 C1427 1.363 . S
C1433 C1428 1.379 . S
C1433 N1431 1.356 . S
N1434 C1426 1.356 . S
N1434 H1440 0.984 . S
N1434 H1441 0.984 1_655 S
N1435 C1428 1.356 . S
N1435 H1438 0.984 . S
N1435 H1439 0.985 . S
H1436 N1431 0.984 1_455 S
H1437 N1431 0.985 . S
H1438 N1435 0.984 . S
H1439 N1435 0.985 . S
H1440 N1434 0.984 . S
H1441 N1434 0.984 1_455 S
H1442 N1430 0.984 . S
H1443 N1430 0.985 . S
C1444 C1445 1.363 . S
C1444 C1450 1.379 . S
C1444 N1452 1.356 . S
C1445 C1444 1.363 . S
C1445 C1451 1.363 . S
C1446 C1447 1.363 . S
C1446 C1451 1.379 . S
C1446 N1453 1.356 . S
C1447 C1446 1.363 . S
C1447 C1450 1.363 . S
N1448 C1450 1.356 . S
N1448 H1460 0.984 . S
N1448 H1461 0.985 . S
N1449 C1451 1.356 . S
N1449 H1454 0.984 . S
N1449 H1455 0.985 . S
C1450 C1444 1.379 . S
C1450 C1447 1.363 . S
C1450 N1448 1.356 . S
C1451 C1445 1.363 . S
C1451 C1446 1.379 . S
C1451 N1449 1.356 . S
N1452 C1444 1.356 . S
N1452 H1458 0.984 . S
N1452 H1459 0.984 . S
N1453 C1446 1.356 . S
N1453 H1456 0.984 . S
N1453 H1457 0.985 . S
H1454 N1449 0.984 . S
H1455 N1449 0.985 . S
H1456 N1453 0.984 . S
H1457 N1453 0.985 . S
H1458 N1452 0.984 . S
H1459 N1452 0.984 . S
H1460 N1448 0.984 . S
H1461 N1448 0.985 . S
C1462 C1463 1.363 . S
C1462 C1468 1.379 . S
C1462 N1470 1.356 . S
C1463 C1462 1.363 . S
C1463 C1469 1.363 . S
C1464 C1465 1.363 . S
C1464 C1469 1.379 . S
C1464 N1471 1.356 . S
C1465 C1464 1.363 . S
C1465 C1468 1.363 . S
N1466 C1468 1.356 . S
N1466 H1478 0.984 . S
N1466 H1479 0.985 . S
N1467 C1469 1.356 . S
N1467 H1472 0.984 . S
N1467 H1473 0.985 . S
C1468 C1462 1.379 . S
C1468 C1465 1.363 . S
C1468 N1466 1.356 . S
C1469 C1463 1.363 . S
C1469 C1464 1.379 . S
C1469 N1467 1.356 . S
N1470 C1462 1.356 . S
N1470 H1476 0.984 . S
N1470 H1477 0.984 . S
N1471 C1464 1.356 . S
N1471 H1474 0.984 . S
N1471 H1475 0.985 . S
H1472 N1467 0.984 . S
H1473 N1467 0.985 . S
H1474 N1471 0.984 . S
H1475 N1471 0.985 . S
H1476 N1470 0.984 . S
H1477 N1470 0.984 . S
H1478 N1466 0.984 . S
H1479 N1466 0.985 . S
C1480 C1481 1.363 . S
C1480 C1486 1.379 . S
C1480 N1488 1.356 . S
C1481 C1480 1.363 . S
C1481 C1487 1.363 . S
C1482 C1483 1.363 . S
C1482 C1487 1.379 . S
C1482 N1489 1.356 . S
C1483 C1482 1.363 . S
C1483 C1486 1.363 . S
N1484 C1486 1.356 . S
N1484 H1496 0.984 . S
N1484 H1497 0.985 . S
N1485 C1487 1.356 . S
N1485 H1490 0.984 . S
N1485 H1491 0.985 . S
C1486 C1480 1.379 . S
C1486 C1483 1.363 . S
C1486 N1484 1.356 . S
C1487 C1481 1.363 . S
C1487 C1482 1.379 . S
C1487 N1485 1.356 . S
N1488 C1480 1.356 . S
N1488 H1494 0.984 . S
N1488 H1495 0.984 . S
N1489 C1482 1.356 . S
N1489 H1492 0.984 . S
N1489 H1493 0.985 . S
H1490 N1485 0.984 . S
H1491 N1485 0.985 . S
H1492 N1489 0.984 . S
H1493 N1489 0.985 . S
H1494 N1488 0.984 . S
H1495 N1488 0.984 . S
H1496 N1484 0.984 . S
H1497 N1484 0.985 . S
C1498 C1499 1.363 . S
C1498 C1504 1.379 . S
C1498 N1506 1.356 . S
C1499 C1498 1.363 . S
C1499 C1505 1.363 . S
C1500 C1501 1.363 . S
C1500 C1505 1.379 . S
C1500 N1507 1.356 . S
C1501 C1500 1.363 . S
C1501 C1504 1.363 . S
N1502 C1504 1.356 . S
N1502 H1514 0.984 . S
N1502 H1515 0.985 . S
N1503 C1505 1.356 . S
N1503 H1508 0.984 . S
N1503 H1509 0.985 . S
C1504 C1498 1.379 . S
C1504 C1501 1.363 . S
C1504 N1502 1.356 . S
C1505 C1499 1.363 . S
C1505 C1500 1.379 . S
C1505 N1503 1.356 . S
N1506 C1498 1.356 . S
N1506 H1512 0.984 . S
N1506 H1513 0.984 . S
N1507 C1500 1.356 . S
N1507 H1510 0.984 . S
N1507 H1511 0.985 . S
H1508 N1503 0.984 . S
H1509 N1503 0.985 . S
H1510 N1507 0.984 . S
H1511 N1507 0.985 . S
H1512 N1506 0.984 . S
H1513 N1506 0.984 . S
H1514 N1502 0.984 . S
H1515 N1502 0.985 . S
C1516 C1517 1.363 . S
C1516 C1522 1.379 . S
C1516 N1524 1.356 . S
C1517 C1516 1.363 . S
C1517 C1523 1.363 . S
C1518 C1519 1.363 1_545 S
C1518 C1523 1.379 1_545 S
C1518 N1525 1.356 . S
C1519 C1518 1.363 1_565 S
C1519 C1522 1.363 . S
N1520 C1522 1.356 . S
N1520 H1532 0.984 . S
N1520 H1533 0.985 . S
N1521 C1523 1.358 . S
N1521 H1526 0.994 . S
N1521 H1527 0.974 1_565 S
C1522 C1516 1.379 . S
C1522 C1519 1.363 . S
C1522 N1520 1.356 . S
C1523 C1517 1.363 . S
C1523 C1518 1.379 1_565 S
C1523 N1521 1.358 . S
N1524 C1516 1.356 . S
N1524 H1530 0.984 . S
N1524 H1531 0.984 . S
N1525 C1518 1.356 . S
N1525 H1528 0.984 . S
N1525 H1529 0.985 . S
H1526 N1521 0.994 . S
H1527 N1521 0.974 1_545 S
H1528 N1525 0.984 . S
H1529 N1525 0.985 . S
H1530 N1524 0.984 . S
H1531 N1524 0.984 . S
H1532 N1520 0.984 . S
H1533 N1520 0.985 . S
C1534 C1535 1.363 . S
C1534 C1540 1.379 . S
C1534 N1542 1.356 . S
C1535 C1534 1.363 . S
C1535 C1541 1.363 . S
C1536 C1537 1.363 . S
C1536 C1541 1.379 . S
C1536 N1543 1.356 . S
C1537 C1536 1.363 . S
C1537 C1540 1.363 . S
N1538 C1540 1.342 1_455 S
N1538 H1550 1.003 . S
N1538 H1551 0.982 . S
N1539 C1541 1.356 . S
N1539 H1544 0.984 . S
N1539 H1545 0.985 . S
C1540 C1534 1.379 . S
C1540 C1537 1.363 . S
C1540 N1538 1.342 1_655 S
C1541 C1535 1.363 . S
C1541 C1536 1.379 . S
C1541 N1539 1.356 . S
N1542 C1534 1.356 . S
N1542 H1548 0.984 . S
N1542 H1549 0.984 . S
N1543 C1536 1.356 . S
N1543 H1546 0.984 . S
N1543 H1547 0.985 . S
H1544 N1539 0.984 . S
H1545 N1539 0.985 . S
H1546 N1543 0.984 . S
H1547 N1543 0.985 . S
H1548 N1542 0.984 . S
H1549 N1542 0.984 . S
H1550 N1538 1.003 . S
H1551 N1538 0.982 . S
C1552 C1553 1.363 . S
C1552 C1558 1.379 . S
C1552 N1560 1.356 . S
C1553 C1552 1.363 . S
C1553 C1559 1.363 . S
C1554 C1555 1.363 . S
C1554 C1559 1.379 . S
C1554 N1561 1.356 . S
C1555 C1554 1.363 . S
C1555 C1558 1.363 . S
N1556 C1558 1.356 1_554 S
N1556 H1568 0.984 . S
N1556 H1569 0.985 . S
N1557 C1559 1.356 . S
N1557 H1562 0.984 . S
N1557 H1563 0.985 1_545 S
C1558 C1552 1.379 . S
C1558 C1555 1.363 . S
C1558 N1556 1.356 1_556 S
C1559 C1553 1.363 . S
C1559 C1554 1.379 . S
C1559 N1557 1.356 . S
N1560 C1552 1.356 . S
N1560 H1566 0.984 . S
N1560 H1567 0.984 . S
N1561 C1554 1.356 . S
N1561 H1564 0.984 . S
N1561 H1565 0.985 1_545 S
H1562 N1557 0.984 . S
H1563 N1557 0.985 1_565 S
H1564 N1561 0.984 . S
H1565 N1561 0.985 1_565 S
H1566 N1560 0.984 . S
H1567 N1560 0.984 . S
H1568 N1556 0.984 . S
H1569 N1556 0.985 . S
C1570 C1571 1.363 . S
C1570 C1576 1.379 . S
C1570 N1578 1.356 . S
C1571 C1570 1.363 . S
C1571 C1577 1.363 . S
C1572 C1573 1.363 . S
C1572 C1577 1.379 . S
C1572 N1579 1.356 . S
C1573 C1572 1.363 . S
C1573 C1576 1.363 . S
N1574 C1576 1.356 . S
N1574 H1586 0.984 . S
N1574 H1587 0.985 . S
N1575 C1577 1.356 . S
N1575 H1580 0.984 . S
N1575 H1581 0.985 . S
C1576 C1570 1.379 . S
C1576 C1573 1.363 . S
C1576 N1574 1.356 . S
C1577 C1571 1.363 . S
C1577 C1572 1.379 . S
C1577 N1575 1.356 . S
N1578 C1570 1.356 . S
N1578 H1584 0.984 . S
N1578 H1585 0.984 . S
N1579 C1572 1.356 . S
N1579 H1582 0.984 . S
N1579 H1583 0.985 . S
H1580 N1575 0.984 . S
H1581 N1575 0.985 . S
H1582 N1579 0.984 . S
H1583 N1579 0.985 . S
H1584 N1578 0.984 . S
H1585 N1578 0.984 . S
H1586 N1574 0.984 . S
H1587 N1574 0.985 . S
C1588 C1589 1.363 . S
C1588 C1594 1.379 . S
C1588 N1596 1.356 . S
C1589 C1588 1.363 . S
C1589 C1595 1.363 . S
C1590 C1591 1.363 . S
C1590 C1595 1.379 . S
C1590 N1597 1.356 . S
C1591 C1590 1.363 . S
C1591 C1594 1.363 . S
N1592 C1594 1.356 . S
N1592 H1604 0.984 . S
N1592 H1605 0.985 . S
N1593 C1595 1.356 . S
N1593 H1598 0.984 . S
N1593 H1599 0.985 . S
C1594 C1588 1.379 . S
C1594 C1591 1.363 . S
C1594 N1592 1.356 . S
C1595 C1589 1.363 . S
C1595 C1590 1.379 . S
C1595 N1593 1.356 . S
N1596 C1588 1.356 . S
N1596 H1602 0.984 . S
N1596 H1603 0.984 . S
N1597 C1590 1.356 . S
N1597 H1600 0.984 . S
N1597 H1601 0.985 . S
H1598 N1593 0.984 . S
H1599 N1593 0.985 . S
H1600 N1597 0.984 . S
H1601 N1597 0.985 . S
H1602 N1596 0.984 . S
H1603 N1596 0.984 . S
H1604 N1592 0.984 . S
H1605 N1592 0.985 . S
C1606 C1607 1.363 . S
C1606 C1612 1.379 . S
C1606 N1614 1.356 . S
C1607 C1606 1.363 . S
C1607 C1613 1.363 . S
C1608 C1609 1.363 . S
C1608 C1613 1.379 . S
C1608 N1615 1.356 . S
C1609 C1608 1.363 . S
C1609 C1612 1.363 . S
N1610 C1612 1.356 . S
N1610 H1622 0.984 . S
N1610 H1623 0.985 . S
N1611 C1613 1.356 . S
N1611 H1616 0.984 . S
N1611 H1617 0.985 . S
C1612 C1606 1.379 . S
C1612 C1609 1.363 . S
C1612 N1610 1.356 . S
C1613 C1607 1.363 . S
C1613 C1608 1.379 . S
C1613 N1611 1.356 . S
N1614 C1606 1.356 . S
N1614 H1620 0.984 . S
N1614 H1621 0.984 . S
N1615 C1608 1.356 . S
N1615 H1618 0.984 . S
N1615 H1619 0.985 . S
H1616 N1611 0.984 . S
H1617 N1611 0.985 . S
H1618 N1615 0.984 . S
H1619 N1615 0.985 . S
H1620 N1614 0.984 . S
H1621 N1614 0.984 . S
H1622 N1610 0.984 . S
H1623 N1610 0.985 . S
C1624 C1625 1.363 . S
C1624 C1630 1.379 . S
C1624 N1632 1.356 . S
C1625 C1624 1.363 . S
C1625 C1631 1.363 . S
C1626 C1627 1.363 . S
C1626 C1631 1.379 . S
C1626 N1633 1.356 . S
C1627 C1626 1.363 . S
C1627 C1630 1.363 . S
N1628 C1630 1.356 . S
N1628 H1640 0.984 . S
N1628 H1641 0.985 . S
N1629 C1631 1.356 . S
N1629 H1634 0.984 . S
N1629 H1635 0.985 1_545 S
C1630 C1624 1.379 . S
C1630 C1627 1.363 . S
C1630 N1628 1.356 . S
C1631 C1625 1.363 . S
C1631 C1626 1.379 . S
C1631 N1629 1.356 . S
N1632 C1624 1.356 . S
N1632 H1638 0.984 . S
N1632 H1639 0.984 . S
N1633 C1626 1.356 . S
N1633 H1636 0.984 . S
N1633 H1637 0.985 1_545 S
H1634 N1629 0.984 . S
H1635 N1629 0.985 1_565 S
H1636 N1633 0.984 . S
H1637 N1633 0.985 1_565 S
H1638 N1632 0.984 . S
H1639 N1632 0.984 . S
H1640 N1628 0.984 . S
H1641 N1628 0.985 . S
C1642 C1643 1.363 . S
C1642 C1648 1.379 . S
C1642 N1650 1.356 . S
C1643 C1642 1.363 . S
C1643 C1649 1.363 . S
C1644 C1645 1.363 . S
C1644 C1649 1.379 . S
C1644 N1651 1.356 . S
C1645 C1644 1.363 . S
C1645 C1648 1.363 . S
N1646 C1648 1.356 . S
N1646 H1658 0.984 . S
N1646 H1659 0.985 . S
N1647 C1649 1.356 . S
N1647 H1652 0.984 . S
N1647 H1653 0.985 . S
C1648 C1642 1.379 . S
C1648 C1645 1.363 . S
C1648 N1646 1.356 . S
C1649 C1643 1.363 . S
C1649 C1644 1.379 . S
C1649 N1647 1.356 . S
N1650 C1642 1.356 . S
N1650 H1656 0.984 . S
N1650 H1657 0.984 . S
N1651 C1644 1.356 . S
N1651 H1654 0.984 . S
N1651 H1655 0.985 . S
H1652 N1647 0.984 . S
H1653 N1647 0.985 . S
H1654 N1651 0.984 . S
H1655 N1651 0.985 . S
H1656 N1650 0.984 . S
H1657 N1650 0.984 . S
H1658 N1646 0.984 . S
H1659 N1646 0.985 . S
C1660 C1661 1.363 . S
C1660 C1666 1.379 . S
C1660 N1668 1.356 . S
C1661 C1660 1.363 . S
C1661 C1667 1.363 . S
C1662 C1663 1.363 . S
C1662 C1667 1.379 . S
C1662 N1669 1.356 . S
C1663 C1662 1.363 . S
C1663 C1666 1.363 . S
N1664 C1666 1.356 . S
N1664 H1676 0.984 . S
N1664 H1677 0.985 . S
N1665 C1667 1.356 . S
N1665 H1670 0.984 . S
N1665 H1671 0.985 . S
C1666 C1660 1.379 . S
C1666 C1663 1.363 . S
C1666 N1664 1.356 . S
C1667 C1661 1.363 . S
C1667 C1662 1.379 . S
C1667 N1665 1.356 . S
N1668 C1660 1.356 . S
N1668 H1674 0.984 . S
N1668 H1675 0.984 . S
N1669 C1662 1.356 . S
N1669 H1672 0.984 . S
N1669 H1673 0.985 . S
H1670 N1665 0.984 . S
H1671 N1665 0.985 . S
H1672 N1669 0.984 . S
H1673 N1669 0.985 . S
H1674 N1668 0.984 . S
H1675 N1668 0.984 . S
H1676 N1664 0.984 . S
H1677 N1664 0.985 . S
C1678 C1679 1.363 . S
C1678 C1684 1.379 . S
C1678 N1686 1.356 . S
C1679 C1678 1.363 . S
C1679 C1685 1.363 . S
C1680 C1681 1.363 . S
C1680 C1685 1.379 . S
C1680 N1687 1.356 . S
C1681 C1680 1.363 . S
C1681 C1684 1.363 . S
N1682 C1684 1.356 . S
N1682 H1694 0.984 . S
N1682 H1695 0.985 . S
N1683 C1685 1.356 . S
N1683 H1688 0.984 . S
N1683 H1689 0.985 . S
C1684 C1678 1.379 . S
C1684 C1681 1.363 . S
C1684 N1682 1.356 . S
C1685 C1679 1.363 . S
C1685 C1680 1.379 . S
C1685 N1683 1.356 . S
N1686 C1678 1.356 . S
N1686 H1692 0.984 . S
N1686 H1693 0.984 . S
N1687 C1680 1.356 . S
N1687 H1690 0.984 . S
N1687 H1691 0.985 . S
H1688 N1683 0.984 . S
H1689 N1683 0.985 . S
H1690 N1687 0.984 . S
H1691 N1687 0.985 . S
H1692 N1686 0.984 . S
H1693 N1686 0.984 . S
H1694 N1682 0.984 . S
H1695 N1682 0.985 . S
C1696 C1697 1.363 . S
C1696 C1702 1.379 . S
C1696 N1704 1.356 . S
C1697 C1696 1.363 . S
C1697 C1703 1.363 . S
C1698 C1699 1.363 . S
C1698 C1703 1.379 . S
C1698 N1705 1.356 . S
C1699 C1698 1.363 . S
C1699 C1702 1.363 . S
N1700 C1702 1.356 1_455 S
N1700 H1712 0.984 1_554 S
N1700 H1713 0.985 . S
N1701 C1703 1.356 . S
N1701 H1706 0.984 . S
N1701 H1707 0.985 . S
C1702 C1696 1.379 . S
C1702 C1699 1.363 . S
C1702 N1700 1.356 1_655 S
C1703 C1697 1.363 . S
C1703 C1698 1.379 . S
C1703 N1701 1.356 . S
N1704 C1696 1.356 . S
N1704 H1710 0.984 . S
N1704 H1711 0.984 . S
N1705 C1698 1.356 . S
N1705 H1708 0.982 . S
N1705 H1709 0.985 . S
H1706 N1701 0.984 . S
H1707 N1701 0.985 . S
H1708 N1705 0.982 . S
H1709 N1705 0.985 . S
H1710 N1704 0.984 . S
H1711 N1704 0.984 . S
H1712 N1700 0.984 1_556 S
H1713 N1700 0.985 . S
C1714 C1715 1.363 . S
C1714 C1720 1.379 . S
C1714 N1722 1.356 . S
C1715 C1714 1.363 . S
C1715 C1721 1.363 . S
C1716 C1717 1.363 . S
C1716 C1721 1.379 . S
C1716 N1723 1.356 . S
C1717 C1716 1.363 . S
C1717 C1720 1.363 . S
N1718 C1720 1.356 . S
N1718 H1730 0.984 . S
N1718 H1731 0.985 . S
N1719 C1721 1.356 . S
N1719 H1724 0.984 . S
N1719 H1725 0.985 . S
C1720 C1714 1.379 . S
C1720 C1717 1.363 . S
C1720 N1718 1.356 . S
C1721 C1715 1.363 . S
C1721 C1716 1.379 . S
C1721 N1719 1.356 . S
N1722 C1714 1.356 . S
N1722 H1728 0.984 . S
N1722 H1729 0.984 . S
N1723 C1716 1.356 . S
N1723 H1726 0.984 . S
N1723 H1727 0.985 . S
H1724 N1719 0.984 . S
H1725 N1719 0.985 . S
H1726 N1723 0.984 . S
H1727 N1723 0.985 . S
H1728 N1722 0.984 . S
H1729 N1722 0.984 . S
H1730 N1718 0.984 . S
H1731 N1718 0.985 . S
C1732 C1733 1.363 . S
C1732 C1738 1.379 . S
C1732 N1740 1.356 . S
C1733 C1732 1.363 . S
C1733 C1739 1.363 . S
C1734 C1735 1.363 . S
C1734 C1739 1.379 . S
C1734 N1741 1.356 . S
C1735 C1734 1.363 . S
C1735 C1738 1.363 . S
N1736 C1738 1.356 . S
N1736 H1748 0.984 . S
N1736 H1749 0.985 . S
N1737 C1739 1.356 . S
N1737 H1742 0.984 . S
N1737 H1743 0.985 . S
C1738 C1732 1.379 . S
C1738 C1735 1.363 . S
C1738 N1736 1.356 . S
C1739 C1733 1.363 . S
C1739 C1734 1.379 . S
C1739 N1737 1.356 . S
N1740 C1732 1.356 . S
N1740 H1746 0.984 . S
N1740 H1747 0.984 . S
N1741 C1734 1.356 . S
N1741 H1744 0.984 . S
N1741 H1745 0.985 . S
H1742 N1737 0.984 . S
H1743 N1737 0.985 . S
H1744 N1741 0.984 . S
H1745 N1741 0.985 . S
H1746 N1740 0.984 . S
H1747 N1740 0.984 . S
H1748 N1736 0.984 . S
H1749 N1736 0.985 . S
C1750 C1751 1.363 . S
C1750 C1756 1.379 . S
C1750 N1758 1.356 . S
C1751 C1750 1.363 . S
C1751 C1757 1.363 . S
C1752 C1753 1.363 . S
C1752 C1757 1.379 . S
C1752 N1759 1.356 . S
C1753 C1752 1.363 . S
C1753 C1756 1.363 . S
N1754 C1756 1.356 . S
N1754 H1766 0.984 . S
N1754 H1767 0.985 . S
N1755 C1757 1.356 . S
N1755 H1760 0.984 . S
N1755 H1761 0.985 . S
C1756 C1750 1.379 . S
C1756 C1753 1.363 . S
C1756 N1754 1.356 . S
C1757 C1751 1.363 . S
C1757 C1752 1.379 . S
C1757 N1755 1.356 . S
N1758 C1750 1.356 . S
N1758 H1764 0.984 . S
N1758 H1765 0.984 . S
N1759 C1752 1.356 . S
N1759 H1762 0.984 . S
N1759 H1763 0.985 . S
H1760 N1755 0.984 . S
H1761 N1755 0.985 . S
H1762 N1759 0.984 . S
H1763 N1759 0.985 . S
H1764 N1758 0.984 . S
H1765 N1758 0.984 . S
H1766 N1754 0.984 . S
H1767 N1754 0.985 . S
C1768 C1769 1.363 . S
C1768 C1774 1.379 . S
C1768 N1776 1.356 . S
C1769 C1768 1.363 . S
C1769 C1775 1.363 . S
C1770 C1771 1.363 . S
C1770 C1775 1.379 . S
C1770 N1777 1.356 . S
C1771 C1770 1.363 . S
C1771 C1774 1.363 . S
N1772 C1774 1.356 . S
N1772 H1784 0.984 . S
N1772 H1785 0.985 . S
N1773 C1775 1.356 . S
N1773 H1778 0.984 . S
N1773 H1779 0.985 . S
C1774 C1768 1.379 . S
C1774 C1771 1.363 . S
C1774 N1772 1.356 . S
C1775 C1769 1.363 . S
C1775 C1770 1.379 . S
C1775 N1773 1.356 . S
N1776 C1768 1.356 . S
N1776 H1782 0.984 . S
N1776 H1783 0.984 . S
N1777 C1770 1.356 . S
N1777 H1780 0.984 . S
N1777 H1781 0.985 . S
H1778 N1773 0.984 . S
H1779 N1773 0.985 . S
H1780 N1777 0.984 . S
H1781 N1777 0.985 . S
H1782 N1776 0.984 . S
H1783 N1776 0.984 . S
H1784 N1772 0.984 . S
H1785 N1772 0.985 . S
C1786 C1787 1.363 . S
C1786 C1792 1.379 . S
C1786 N1794 1.356 . S
C1787 C1786 1.363 . S
C1787 C1793 1.363 . S
C1788 C1789 1.363 . S
C1788 C1793 1.379 . S
C1788 N1795 1.356 . S
C1789 C1788 1.363 . S
C1789 C1792 1.363 . S
N1790 C1792 1.356 . S
N1790 H1802 0.984 1_545 S
N1790 H1803 0.985 . S
N1791 C1793 1.356 . S
N1791 H1796 0.984 . S
N1791 H1797 0.985 . S
C1792 C1786 1.379 . S
C1792 C1789 1.363 . S
C1792 N1790 1.356 . S
C1793 C1787 1.363 . S
C1793 C1788 1.379 . S
C1793 N1791 1.356 . S
N1794 C1786 1.356 . S
N1794 H1800 0.984 1_545 S
N1794 H1801 0.984 . S
N1795 C1788 1.356 . S
N1795 H1798 0.984 . S
N1795 H1799 0.985 . S
H1796 N1791 0.984 . S
H1797 N1791 0.985 . S
H1798 N1795 0.984 . S
H1799 N1795 0.985 . S
H1800 N1794 0.984 1_565 S
H1801 N1794 0.984 . S
H1802 N1790 0.984 1_565 S
H1803 N1790 0.985 . S
C1804 C1805 1.363 . S
C1804 C1810 1.379 . S
C1804 N1812 1.356 . S
C1805 C1804 1.363 . S
C1805 C1811 1.363 . S
C1806 C1807 1.363 . S
C1806 C1811 1.379 . S
C1806 N1813 1.356 . S
C1807 C1806 1.363 . S
C1807 C1810 1.363 . S
N1808 C1810 1.356 . S
N1808 H1820 0.984 . S
N1808 H1821 0.985 . S
N1809 C1811 1.356 . S
N1809 H1814 0.984 . S
N1809 H1815 0.985 . S
C1810 C1804 1.379 . S
C1810 C1807 1.363 . S
C1810 N1808 1.356 . S
C1811 C1805 1.363 . S
C1811 C1806 1.379 . S
C1811 N1809 1.356 . S
N1812 C1804 1.356 . S
N1812 H1818 0.984 . S
N1812 H1819 0.984 . S
N1813 C1806 1.356 . S
N1813 H1816 0.984 . S
N1813 H1817 0.985 . S
H1814 N1809 0.984 . S
H1815 N1809 0.985 . S
H1816 N1813 0.984 . S
H1817 N1813 0.985 . S
H1818 N1812 0.984 . S
H1819 N1812 0.984 . S
H1820 N1808 0.984 . S
H1821 N1808 0.985 . S
C1822 C1823 1.363 . S
C1822 C1828 1.379 . S
C1822 N1830 1.356 . S
C1823 C1822 1.363 . S
C1823 C1829 1.363 . S
C1824 C1825 1.363 . S
C1824 C1829 1.379 . S
C1824 N1831 1.356 . S
C1825 C1824 1.363 . S
C1825 C1828 1.363 . S
N1826 C1828 1.356 . S
N1826 H1838 0.984 . S
N1826 H1839 0.985 . S
N1827 C1829 1.356 . S
N1827 H1832 0.984 . S
N1827 H1833 0.985 . S
C1828 C1822 1.379 . S
C1828 C1825 1.363 . S
C1828 N1826 1.356 . S
C1829 C1823 1.363 . S
C1829 C1824 1.379 . S
C1829 N1827 1.356 . S
N1830 C1822 1.356 . S
N1830 H1836 0.984 . S
N1830 H1837 0.984 . S
N1831 C1824 1.356 . S
N1831 H1834 0.984 . S
N1831 H1835 0.985 . S
H1832 N1827 0.984 . S
H1833 N1827 0.985 . S
H1834 N1831 0.984 . S
H1835 N1831 0.985 . S
H1836 N1830 0.984 . S
H1837 N1830 0.984 . S
H1838 N1826 0.984 . S
H1839 N1826 0.985 . S
C1840 C1841 1.363 . S
C1840 C1846 1.379 . S
C1840 N1848 1.356 . S
C1841 C1840 1.363 . S
C1841 C1847 1.363 . S
C1842 C1843 1.363 . S
C1842 C1847 1.379 . S
C1842 N1849 1.356 . S
C1843 C1842 1.363 . S
C1843 C1846 1.363 . S
N1844 C1846 1.356 . S
N1844 H1856 0.984 . S
N1844 H1857 0.985 . S
N1845 C1847 1.356 . S
N1845 H1850 0.984 . S
N1845 H1851 0.985 . S
C1846 C1840 1.379 . S
C1846 C1843 1.363 . S
C1846 N1844 1.356 . S
C1847 C1841 1.363 . S
C1847 C1842 1.379 . S
C1847 N1845 1.356 . S
N1848 C1840 1.356 . S
N1848 H1854 0.984 . S
N1848 H1855 0.984 . S
N1849 C1842 1.356 . S
N1849 H1852 0.984 . S
N1849 H1853 0.985 . S
H1850 N1845 0.984 . S
H1851 N1845 0.985 . S
H1852 N1849 0.984 . S
H1853 N1849 0.985 . S
H1854 N1848 0.984 . S
H1855 N1848 0.984 . S
H1856 N1844 0.984 . S
H1857 N1844 0.985 . S
C1858 C1859 1.363 . S
C1858 C1864 1.379 . S
C1858 N1866 1.356 . S
C1859 C1858 1.363 . S
C1859 C1865 1.363 . S
C1860 C1861 1.363 . S
C1860 C1865 1.379 . S
C1860 N1867 1.356 . S
C1861 C1860 1.363 . S
C1861 C1864 1.363 . S
N1862 C1864 1.356 . S
N1862 H1874 0.984 . S
N1862 H1875 0.985 . S
N1863 C1865 1.356 . S
N1863 H1868 0.984 . S
N1863 H1869 0.985 . S
C1864 C1858 1.379 . S
C1864 C1861 1.363 . S
C1864 N1862 1.356 . S
C1865 C1859 1.363 . S
C1865 C1860 1.379 . S
C1865 N1863 1.356 . S
N1866 C1858 1.356 . S
N1866 H1872 0.984 . S
N1866 H1873 0.984 . S
N1867 C1860 1.356 . S
N1867 H1870 0.984 . S
N1867 H1871 0.985 . S
H1868 N1863 0.984 . S
H1869 N1863 0.985 . S
H1870 N1867 0.984 . S
H1871 N1867 0.985 . S
H1872 N1866 0.984 . S
H1873 N1866 0.984 . S
H1874 N1862 0.984 . S
H1875 N1862 0.985 . S
C1876 C1877 1.363 1_554 S
C1876 C1882 1.379 . S
C1876 N1884 1.356 . S
C1877 C1876 1.363 1_556 S
C1877 C1883 1.363 . S
C1878 C1879 1.363 . S
C1878 C1883 1.379 1_554 S
C1878 N1885 1.356 . S
C1879 C1878 1.363 . S
C1879 C1882 1.363 . S
N1880 C1882 1.356 . S
N1880 H1892 0.984 . S
N1880 H1893 0.985 . S
N1881 C1883 1.356 . S
N1881 H1886 0.984 . S
N1881 H1887 0.985 . S
C1882 C1876 1.379 . S
C1882 C1879 1.363 . S
C1882 N1880 1.356 . S
C1883 C1877 1.363 . S
C1883 C1878 1.379 1_556 S
C1883 N1881 1.356 . S
N1884 C1876 1.356 . S
N1884 H1890 0.984 . S
N1884 H1891 0.984 1_554 S
N1885 C1878 1.356 . S
N1885 H1888 0.984 . S
N1885 H1889 0.985 . S
H1886 N1881 0.984 . S
H1887 N1881 0.985 . S
H1888 N1885 0.984 . S
H1889 N1885 0.985 . S
H1890 N1884 0.984 . S
H1891 N1884 0.984 1_556 S
H1892 N1880 0.984 . S
H1893 N1880 0.985 . S
C1894 C1895 1.363 . S
C1894 C1900 1.379 . S
C1894 N1902 1.356 . S
C1895 C1894 1.363 . S
C1895 C1901 1.363 . S
C1896 C1897 1.363 . S
C1896 C1901 1.379 . S
C1896 N1903 1.356 . S
C1897 C1896 1.363 . S
C1897 C1900 1.363 . S
N1898 C1900 1.356 . S
N1898 H1910 0.984 . S
N1898 H1911 0.985 . S
N1899 C1901 1.356 . S
N1899 H1904 0.984 . S
N1899 H1905 0.985 . S
C1900 C1894 1.379 . S
C1900 C1897 1.363 . S
C1900 N1898 1.356 . S
C1901 C1895 1.363 . S
C1901 C1896 1.379 . S
C1901 N1899 1.356 . S
N1902 C1894 1.356 . S
N1902 H1908 0.984 . S
N1902 H1909 0.984 . S
N1903 C1896 1.356 . S
N1903 H1906 0.984 . S
N1903 H1907 0.985 . S
H1904 N1899 0.984 . S
H1905 N1899 0.985 . S
H1906 N1903 0.984 . S
H1907 N1903 0.985 . S
H1908 N1902 0.984 . S
H1909 N1902 0.984 . S
H1910 N1898 0.984 . S
H1911 N1898 0.985 . S
C1912 C1913 1.363 . S
C1912 C1918 1.379 . S
C1912 N1920 1.356 . S
C1913 C1912 1.363 . S
C1913 C1919 1.363 . S
C1914 C1915 1.363 . S
C1914 C1919 1.379 . S
C1914 N1921 1.356 . S
C1915 C1914 1.363 . S
C1915 C1918 1.363 . S
N1916 C1918 1.356 . S
N1916 H1928 0.984 . S
N1916 H1929 0.985 . S
N1917 C1919 1.356 . S
N1917 H1922 0.984 . S
N1917 H1923 0.985 . S
C1918 C1912 1.379 . S
C1918 C1915 1.363 . S
C1918 N1916 1.356 . S
C1919 C1913 1.363 . S
C1919 C1914 1.379 . S
C1919 N1917 1.356 . S
N1920 C1912 1.356 . S
N1920 H1926 0.984 . S
N1920 H1927 0.984 . S
N1921 C1914 1.356 . S
N1921 H1924 0.984 . S
N1921 H1925 0.985 . S
H1922 N1917 0.984 . S
H1923 N1917 0.985 . S
H1924 N1921 0.984 . S
H1925 N1921 0.985 . S
H1926 N1920 0.984 . S
H1927 N1920 0.984 . S
H1928 N1916 0.984 . S
H1929 N1916 0.985 . S
C1930 C1931 1.363 . S
C1930 C1936 1.379 . S
C1930 N1938 1.356 . S
C1931 C1930 1.363 . S
C1931 C1937 1.363 . S
C1932 C1933 1.363 . S
C1932 C1937 1.379 . S
C1932 N1939 1.356 . S
C1933 C1932 1.363 . S
C1933 C1936 1.363 . S
N1934 C1936 1.356 . S
N1934 H1946 0.984 . S
N1934 H1947 0.985 . S
N1935 C1937 1.356 . S
N1935 H1940 0.984 . S
N1935 H1941 0.985 . S
C1936 C1930 1.379 . S
C1936 C1933 1.363 . S
C1936 N1934 1.356 . S
C1937 C1931 1.363 . S
C1937 C1932 1.379 . S
C1937 N1935 1.356 . S
N1938 C1930 1.356 . S
N1938 H1944 0.984 . S
N1938 H1945 0.984 . S
N1939 C1932 1.356 . S
N1939 H1942 0.984 . S
N1939 H1943 0.985 . S
H1940 N1935 0.984 . S
H1941 N1935 0.985 . S
H1942 N1939 0.984 . S
H1943 N1939 0.985 . S
H1944 N1938 0.984 . S
H1945 N1938 0.984 . S
H1946 N1934 0.984 . S
H1947 N1934 0.985 . S
C1948 C1949 1.363 1_455 S
C1948 C1954 1.379 . S
C1948 N1956 1.356 . S
C1949 C1948 1.363 1_655 S
C1949 C1955 1.348 1_655 S
C1950 C1951 1.363 . S
C1950 C1955 1.402 . S
C1950 N1957 1.356 . S
C1951 C1950 1.363 . S
C1951 C1954 1.363 . S
N1952 C1954 1.356 . S
N1952 H1964 0.984 . S
N1952 H1965 0.985 . S
N1953 C1955 1.341 1_655 S
N1953 H1958 0.984 . S
N1953 H1959 0.985 . S
C1954 C1948 1.379 . S
C1954 C1951 1.363 . S
C1954 N1952 1.356 . S
C1955 C1949 1.348 1_455 S
C1955 C1950 1.402 . S
C1955 N1953 1.341 1_455 S
N1956 C1948 1.356 . S
N1956 H1962 0.984 . S
N1956 H1963 0.985 1_455 S
N1957 C1950 1.356 . S
N1957 H1960 0.984 . S
N1957 H1961 0.985 . S
H1958 N1953 0.984 . S
H1959 N1953 0.985 . S
H1960 N1957 0.984 . S
H1961 N1957 0.985 . S
H1962 N1956 0.984 . S
H1963 N1956 0.985 1_655 S
H1964 N1952 0.984 . S
H1965 N1952 0.985 . S
C1966 C1967 1.363 . S
C1966 C1972 1.379 . S
C1966 N1974 1.356 . S
C1967 C1966 1.363 . S
C1967 C1973 1.363 . S
C1968 C1969 1.363 . S
C1968 C1973 1.379 . S
C1968 N1975 1.356 . S
C1969 C1968 1.363 . S
C1969 C1972 1.363 . S
N1970 C1972 1.356 . S
N1970 H1982 0.984 . S
N1970 H1983 0.985 . S
N1971 C1973 1.356 . S
N1971 H1976 0.984 . S
N1971 H1977 0.985 . S
C1972 C1966 1.379 . S
C1972 C1969 1.363 . S
C1972 N1970 1.356 . S
C1973 C1967 1.363 . S
C1973 C1968 1.379 . S
C1973 N1971 1.356 . S
N1974 C1966 1.356 . S
N1974 H1980 0.984 . S
N1974 H1981 0.984 . S
N1975 C1968 1.356 . S
N1975 H1978 0.984 . S
N1975 H1979 0.985 . S
H1976 N1971 0.984 . S
H1977 N1971 0.985 . S
H1978 N1975 0.984 . S
H1979 N1975 0.985 . S
H1980 N1974 0.984 . S
H1981 N1974 0.984 . S
H1982 N1970 0.984 . S
H1983 N1970 0.985 . S
C1984 C1985 1.363 . S
C1984 C1990 1.379 . S
C1984 N1992 1.356 . S
C1985 C1984 1.363 . S
C1985 C1991 1.363 . S
C1986 C1987 1.363 . S
C1986 C1991 1.379 . S
C1986 N1993 1.356 . S
C1987 C1986 1.363 . S
C1987 C1990 1.363 . S
N1988 C1990 1.356 . S
N1988 H2000 0.984 . S
N1988 H2001 0.985 . S
N1989 C1991 1.356 . S
N1989 H1994 0.984 . S
N1989 H1995 0.985 . S
C1990 C1984 1.379 . S
C1990 C1987 1.363 . S
C1990 N1988 1.356 . S
C1991 C1985 1.363 . S
C1991 C1986 1.379 . S
C1991 N1989 1.356 . S
N1992 C1984 1.356 . S
N1992 H1998 0.984 . S
N1992 H1999 0.984 . S
N1993 C1986 1.356 . S
N1993 H1996 0.984 . S
N1993 H1997 0.985 . S
H1994 N1989 0.984 . S
H1995 N1989 0.985 . S
H1996 N1993 0.984 . S
H1997 N1993 0.985 . S
H1998 N1992 0.984 . S
H1999 N1992 0.984 . S
H2000 N1988 0.984 . S
H2001 N1988 0.985 . S
C2002 C2003 1.363 . S
C2002 C2008 1.379 . S
C2002 N2010 1.356 . S
C2003 C2002 1.363 . S
C2003 C2009 1.363 . S
C2004 C2005 1.363 . S
C2004 C2009 1.379 . S
C2004 N2011 1.356 . S
C2005 C2004 1.363 . S
C2005 C2008 1.363 . S
N2006 C2008 1.356 . S
N2006 H2018 0.984 . S
N2006 H2019 0.985 . S
N2007 C2009 1.356 . S
N2007 H2012 0.984 . S
N2007 H2013 0.985 . S
C2008 C2002 1.379 . S
C2008 C2005 1.363 . S
C2008 N2006 1.356 . S
C2009 C2003 1.363 . S
C2009 C2004 1.379 . S
C2009 N2007 1.356 . S
N2010 C2002 1.356 . S
N2010 H2016 0.984 . S
N2010 H2017 0.984 1_556 S
N2011 C2004 1.356 . S
N2011 H2014 0.984 . S
N2011 H2015 0.985 . S
H2012 N2007 0.984 . S
H2013 N2007 0.985 . S
H2014 N2011 0.984 . S
H2015 N2011 0.985 . S
H2016 N2010 0.984 . S
H2017 N2010 0.984 1_554 S
H2018 N2006 0.984 . S
H2019 N2006 0.985 . S
C2020 C2021 1.363 . S
C2020 C2026 1.379 . S
C2020 N2028 1.356 . S
C2021 C2020 1.363 . S
C2021 C2027 1.363 . S
C2022 C2023 1.363 . S
C2022 C2027 1.379 . S
C2022 N2029 1.356 . S
C2023 C2022 1.363 . S
C2023 C2026 1.363 . S
N2024 C2026 1.356 . S
N2024 H2036 0.984 . S
N2024 H2037 0.985 . S
N2025 C2027 1.356 . S
N2025 H2030 0.984 . S
N2025 H2031 0.985 . S
C2026 C2020 1.379 . S
C2026 C2023 1.363 . S
C2026 N2024 1.356 . S
C2027 C2021 1.363 . S
C2027 C2022 1.379 . S
C2027 N2025 1.356 . S
N2028 C2020 1.356 . S
N2028 H2034 0.984 . S
N2028 H2035 0.984 . S
N2029 C2022 1.356 . S
N2029 H2032 0.984 . S
N2029 H2033 0.985 . S
H2030 N2025 0.984 . S
H2031 N2025 0.985 . S
H2032 N2029 0.984 . S
H2033 N2029 0.985 . S
H2034 N2028 0.984 . S
H2035 N2028 0.984 . S
H2036 N2024 0.984 . S
H2037 N2024 0.985 . S
C2038 C2039 1.363 . S
C2038 C2044 1.379 . S
C2038 N2046 1.356 . S
C2039 C2038 1.363 . S
C2039 C2045 1.363 . S
C2040 C2041 1.363 . S
C2040 C2045 1.379 . S
C2040 N2047 1.356 . S
C2041 C2040 1.363 . S
C2041 C2044 1.363 . S
N2042 C2044 1.356 . S
N2042 H2054 0.984 . S
N2042 H2055 0.985 . S
N2043 C2045 1.356 . S
N2043 H2048 0.984 . S
N2043 H2049 0.985 . S
C2044 C2038 1.379 . S
C2044 C2041 1.363 . S
C2044 N2042 1.356 . S
C2045 C2039 1.363 . S
C2045 C2040 1.379 . S
C2045 N2043 1.356 . S
N2046 C2038 1.356 . S
N2046 H2052 0.984 . S
N2046 H2053 0.984 . S
N2047 C2040 1.356 . S
N2047 H2050 0.984 . S
N2047 H2051 0.985 . S
H2048 N2043 0.984 . S
H2049 N2043 0.985 . S
H2050 N2047 0.984 . S
H2051 N2047 0.985 . S
H2052 N2046 0.984 . S
H2053 N2046 0.984 . S
H2054 N2042 0.984 . S
H2055 N2042 0.985 . S
C2056 C2057 1.363 . S
C2056 C2062 1.379 . S
C2056 N2064 1.356 . S
C2057 C2056 1.363 . S
C2057 C2063 1.363 . S
C2058 C2059 1.363 . S
C2058 C2063 1.379 . S
C2058 N2065 1.356 . S
C2059 C2058 1.363 . S
C2059 C2062 1.363 . S
N2060 C2062 1.356 . S
N2060 H2072 0.984 . S
N2060 H2073 0.985 1_556 S
N2061 C2063 1.356 . S
N2061 H2066 0.984 . S
N2061 H2067 0.985 . S
C2062 C2056 1.379 . S
C2062 C2059 1.363 . S
C2062 N2060 1.356 . S
C2063 C2057 1.363 . S
C2063 C2058 1.379 . S
C2063 N2061 1.356 . S
N2064 C2056 1.356 . S
N2064 H2070 0.984 . S
N2064 H2071 0.984 . S
N2065 C2058 1.356 . S
N2065 H2068 0.984 1_556 S
N2065 H2069 0.985 . S
H2066 N2061 0.984 . S
H2067 N2061 0.985 . S
H2068 N2065 0.984 1_554 S
H2069 N2065 0.985 . S
H2070 N2064 0.984 . S
H2071 N2064 0.984 . S
H2072 N2060 0.984 . S
H2073 N2060 0.985 1_554 S
C2074 C2075 1.363 . S
C2074 C2080 1.379 . S
C2074 N2082 1.356 . S
C2075 C2074 1.363 . S
C2075 C2081 1.363 . S
C2076 C2077 1.363 . S
C2076 C2081 1.379 . S
C2076 N2083 1.356 . S
C2077 C2076 1.363 . S
C2077 C2080 1.363 . S
N2078 C2080 1.356 . S
N2078 H2090 0.984 . S
N2078 H2091 0.985 . S
N2079 C2081 1.356 . S
N2079 H2084 0.984 . S
N2079 H2085 0.985 . S
C2080 C2074 1.379 . S
C2080 C2077 1.363 . S
C2080 N2078 1.356 . S
C2081 C2075 1.363 . S
C2081 C2076 1.379 . S
C2081 N2079 1.356 . S
N2082 C2074 1.356 . S
N2082 H2088 0.984 . S
N2082 H2089 0.984 . S
N2083 C2076 1.356 . S
N2083 H2086 0.984 . S
N2083 H2087 0.985 . S
H2084 N2079 0.984 . S
H2085 N2079 0.985 . S
H2086 N2083 0.984 . S
H2087 N2083 0.985 . S
H2088 N2082 0.984 . S
H2089 N2082 0.984 . S
H2090 N2078 0.984 . S
H2091 N2078 0.985 . S
C2092 C2093 1.363 . S
C2092 C2098 1.379 . S
C2092 N2100 1.356 . S
C2093 C2092 1.363 . S
C2093 C2099 1.363 . S
C2094 C2095 1.363 . S
C2094 C2099 1.379 . S
C2094 N2101 1.356 . S
C2095 C2094 1.363 . S
C2095 C2098 1.363 . S
N2096 C2098 1.356 . S
N2096 H2108 0.984 . S
N2096 H2109 0.985 . S
N2097 C2099 1.356 . S
N2097 H2102 0.984 . S
N2097 H2103 0.985 . S
C2098 C2092 1.379 . S
C2098 C2095 1.363 . S
C2098 N2096 1.356 . S
C2099 C2093 1.363 . S
C2099 C2094 1.379 . S
C2099 N2097 1.356 . S
N2100 C2092 1.356 . S
N2100 H2106 0.984 . S
N2100 H2107 0.984 . S
N2101 C2094 1.356 . S
N2101 H2104 0.984 . S
N2101 H2105 0.985 . S
H2102 N2097 0.984 . S
H2103 N2097 0.985 . S
H2104 N2101 0.984 . S
H2105 N2101 0.985 . S
H2106 N2100 0.984 . S
H2107 N2100 0.984 . S
H2108 N2096 0.984 . S
H2109 N2096 0.985 . S
C2110 C2111 1.363 . S
C2110 C2116 1.379 . S
C2110 N2118 1.356 . S
C2111 C2110 1.363 . S
C2111 C2117 1.363 . S
C2112 C2113 1.363 . S
C2112 C2117 1.379 . S
C2112 N2119 1.356 . S
C2113 C2112 1.363 . S
C2113 C2116 1.363 . S
N2114 C2116 1.356 . S
N2114 H2126 0.984 . S
N2114 H2127 0.985 . S
N2115 C2117 1.356 . S
N2115 H2120 0.984 . S
N2115 H2121 0.985 . S
C2116 C2110 1.379 . S
C2116 C2113 1.363 . S
C2116 N2114 1.356 . S
C2117 C2111 1.363 . S
C2117 C2112 1.379 . S
C2117 N2115 1.356 . S
N2118 C2110 1.356 . S
N2118 H2124 0.984 . S
N2118 H2125 0.984 . S
N2119 C2112 1.356 . S
N2119 H2122 0.984 . S
N2119 H2123 0.985 . S
H2120 N2115 0.984 . S
H2121 N2115 0.985 . S
H2122 N2119 0.984 . S
H2123 N2119 0.985 . S
H2124 N2118 0.984 . S
H2125 N2118 0.984 . S
H2126 N2114 0.984 . S
H2127 N2114 0.985 . S
C2128 C2129 1.363 . S
C2128 C2134 1.379 . S
C2128 N2136 1.356 . S
C2129 C2128 1.363 . S
C2129 C2135 1.363 . S
C2130 C2131 1.363 . S
C2130 C2135 1.379 . S
C2130 N2137 1.356 . S
C2131 C2130 1.363 . S
C2131 C2134 1.363 . S
N2132 C2134 1.356 . S
N2132 H2144 0.984 . S
N2132 H2145 0.985 . S
N2133 C2135 1.356 . S
N2133 H2138 0.984 . S
N2133 H2139 0.985 . S
C2134 C2128 1.379 . S
C2134 C2131 1.363 . S
C2134 N2132 1.356 . S
C2135 C2129 1.363 . S
C2135 C2130 1.379 . S
C2135 N2133 1.356 . S
N2136 C2128 1.356 . S
N2136 H2142 0.984 . S
N2136 H2143 0.984 . S
N2137 C2130 1.356 . S
N2137 H2140 0.984 . S
N2137 H2141 0.985 . S
H2138 N2133 0.984 . S
H2139 N2133 0.985 . S
H2140 N2137 0.984 . S
H2141 N2137 0.985 . S
H2142 N2136 0.984 . S
H2143 N2136 0.984 . S
H2144 N2132 0.984 . S
H2145 N2132 0.985 . S
C2146 C2147 1.363 . S
C2146 C2152 1.379 . S
C2146 N2154 1.356 . S
C2147 C2146 1.363 . S
C2147 C2153 1.363 . S
C2148 C2149 1.363 . S
C2148 C2153 1.379 . S
C2148 N2155 1.356 . S
C2149 C2148 1.363 . S
C2149 C2152 1.363 . S
N2150 C2152 1.356 . S
N2150 H2162 0.984 . S
N2150 H2163 0.985 . S
N2151 C2153 1.356 . S
N2151 H2156 0.984 . S
N2151 H2157 0.985 . S
C2152 C2146 1.379 . S
C2152 C2149 1.363 . S
C2152 N2150 1.356 . S
C2153 C2147 1.363 . S
C2153 C2148 1.379 . S
C2153 N2151 1.356 . S
N2154 C2146 1.356 . S
N2154 H2160 0.984 . S
N2154 H2161 0.984 . S
N2155 C2148 1.356 . S
N2155 H2158 0.984 . S
N2155 H2159 0.985 . S
H2156 N2151 0.984 . S
H2157 N2151 0.985 . S
H2158 N2155 0.984 . S
H2159 N2155 0.985 . S
H2160 N2154 0.984 . S
H2161 N2154 0.984 . S
H2162 N2150 0.984 . S
H2163 N2150 0.985 . S
C2164 C2165 1.363 . S
C2164 C2170 1.379 . S
C2164 N2172 1.356 . S
C2165 C2164 1.363 . S
C2165 C2171 1.363 . S
C2166 C2167 1.363 . S
C2166 C2171 1.379 . S
C2166 N2173 1.356 . S
C2167 C2166 1.363 . S
C2167 C2170 1.363 . S
N2168 C2170 1.356 . S
N2168 H2180 0.984 . S
N2168 H2181 0.985 . S
N2169 C2171 1.356 . S
N2169 H2174 0.984 . S
N2169 H2175 0.985 . S
C2170 C2164 1.379 . S
C2170 C2167 1.363 . S
C2170 N2168 1.356 . S
C2171 C2165 1.363 . S
C2171 C2166 1.379 . S
C2171 N2169 1.356 . S
N2172 C2164 1.356 . S
N2172 H2178 0.984 . S
N2172 H2179 0.984 . S
N2173 C2166 1.356 . S
N2173 H2176 0.984 . S
N2173 H2177 0.985 . S
H2174 N2169 0.984 . S
H2175 N2169 0.985 . S
H2176 N2173 0.984 . S
H2177 N2173 0.985 . S
H2178 N2172 0.984 . S
H2179 N2172 0.984 . S
H2180 N2168 0.984 . S
H2181 N2168 0.985 . S
C2182 C2183 1.363 . S
C2182 C2188 1.379 . S
C2182 N2190 1.356 . S
C2183 C2182 1.363 . S
C2183 C2189 1.363 . S
C2184 C2185 1.363 . S
C2184 C2189 1.379 . S
C2184 N2191 1.356 1_565 S
C2185 C2184 1.363 . S
C2185 C2188 1.363 . S
N2186 C2188 1.356 . S
N2186 H2198 0.984 . S
N2186 H2199 0.985 . S
N2187 C2189 1.356 . S
N2187 H2192 0.984 . S
N2187 H2193 0.985 . S
C2188 C2182 1.379 . S
C2188 C2185 1.363 . S
C2188 N2186 1.356 . S
C2189 C2183 1.363 . S
C2189 C2184 1.379 . S
C2189 N2187 1.356 . S
N2190 C2182 1.356 . S
N2190 H2196 0.984 . S
N2190 H2197 0.984 . S
N2191 C2184 1.356 1_545 S
N2191 H2194 0.984 . S
N2191 H2195 0.985 . S
H2192 N2187 0.984 . S
H2193 N2187 0.985 . S
H2194 N2191 0.984 . S
H2195 N2191 0.985 . S
H2196 N2190 0.984 . S
H2197 N2190 0.984 . S
H2198 N2186 0.984 . S
H2199 N2186 0.985 . S
C2200 C2201 1.363 . S
C2200 C2206 1.379 . S
C2200 N2208 1.356 . S
C2201 C2200 1.363 . S
C2201 C2207 1.363 . S
C2202 C2203 1.363 . S
C2202 C2207 1.379 . S
C2202 N2209 1.356 . S
C2203 C2202 1.363 . S
C2203 C2206 1.363 . S
N2204 C2206 1.356 . S
N2204 H2216 0.984 . S
N2204 H2217 0.985 . S
N2205 C2207 1.356 . S
N2205 H2210 0.984 . S
N2205 H2211 0.985 . S
C2206 C2200 1.379 . S
C2206 C2203 1.363 . S
C2206 N2204 1.356 . S
C2207 C2201 1.363 . S
C2207 C2202 1.379 . S
C2207 N2205 1.356 . S
N2208 C2200 1.356 . S
N2208 H2214 0.984 . S
N2208 H2215 0.984 . S
N2209 C2202 1.356 . S
N2209 H2212 0.984 . S
N2209 H2213 0.985 . S
H2210 N2205 0.984 . S
H2211 N2205 0.985 . S
H2212 N2209 0.984 . S
H2213 N2209 0.985 . S
H2214 N2208 0.984 . S
H2215 N2208 0.984 . S
H2216 N2204 0.984 . S
H2217 N2204 0.985 . S
C2218 C2219 1.363 . S
C2218 C2224 1.379 . S
C2218 N2226 1.356 . S
C2219 C2218 1.363 . S
C2219 C2225 1.363 . S
C2220 C2221 1.363 . S
C2220 C2225 1.379 . S
C2220 N2227 1.356 . S
C2221 C2220 1.363 . S
C2221 C2224 1.363 . S
N2222 C2224 1.356 . S
N2222 H2234 0.984 . S
N2222 H2235 0.985 . S
N2223 C2225 1.356 . S
N2223 H2228 0.984 . S
N2223 H2229 0.985 . S
C2224 C2218 1.379 . S
C2224 C2221 1.363 . S
C2224 N2222 1.356 . S
C2225 C2219 1.363 . S
C2225 C2220 1.379 . S
C2225 N2223 1.356 . S
N2226 C2218 1.356 . S
N2226 H2232 0.984 . S
N2226 H2233 0.984 . S
N2227 C2220 1.356 . S
N2227 H2230 0.984 . S
N2227 H2231 0.985 . S
H2228 N2223 0.984 . S
H2229 N2223 0.985 . S
H2230 N2227 0.984 . S
H2231 N2227 0.985 . S
H2232 N2226 0.984 . S
H2233 N2226 0.984 . S
H2234 N2222 0.984 . S
H2235 N2222 0.985 . S
C2236 C2237 1.363 . S
C2236 C2242 1.379 . S
C2236 N2244 1.356 . S
C2237 C2236 1.363 . S
C2237 C2243 1.363 . S
C2238 C2239 1.363 . S
C2238 C2243 1.379 . S
C2238 N2245 1.356 . S
C2239 C2238 1.363 . S
C2239 C2242 1.363 . S
N2240 C2242 1.356 . S
N2240 H2252 0.984 . S
N2240 H2253 0.985 . S
N2241 C2243 1.356 . S
N2241 H2246 0.984 . S
N2241 H2247 0.985 . S
C2242 C2236 1.379 . S
C2242 C2239 1.363 . S
C2242 N2240 1.356 . S
C2243 C2237 1.363 . S
C2243 C2238 1.379 . S
C2243 N2241 1.356 . S
N2244 C2236 1.356 . S
N2244 H2250 0.984 . S
N2244 H2251 0.984 . S
N2245 C2238 1.356 . S
N2245 H2248 0.984 . S
N2245 H2249 0.985 . S
H2246 N2241 0.984 . S
H2247 N2241 0.985 . S
H2248 N2245 0.984 . S
H2249 N2245 0.985 . S
H2250 N2244 0.984 . S
H2251 N2244 0.984 . S
H2252 N2240 0.984 . S
H2253 N2240 0.985 . S
C2254 C2255 1.363 . S
C2254 C2260 1.379 . S
C2254 N2262 1.356 . S
C2255 C2254 1.363 . S
C2255 C2261 1.363 . S
C2256 C2257 1.363 . S
C2256 C2261 1.379 . S
C2256 N2263 1.356 . S
C2257 C2256 1.363 . S
C2257 C2260 1.363 . S
N2258 C2260 1.356 . S
N2258 H2270 0.984 . S
N2258 H2271 0.985 . S
N2259 C2261 1.356 . S
N2259 H2264 0.984 . S
N2259 H2265 0.985 . S
C2260 C2254 1.379 . S
C2260 C2257 1.363 . S
C2260 N2258 1.356 . S
C2261 C2255 1.363 . S
C2261 C2256 1.379 . S
C2261 N2259 1.356 . S
N2262 C2254 1.356 . S
N2262 H2268 0.984 . S
N2262 H2269 0.984 . S
N2263 C2256 1.356 . S
N2263 H2266 0.984 . S
N2263 H2267 0.985 . S
H2264 N2259 0.984 . S
H2265 N2259 0.985 . S
H2266 N2263 0.984 . S
H2267 N2263 0.985 . S
H2268 N2262 0.984 . S
H2269 N2262 0.984 . S
H2270 N2258 0.984 . S
H2271 N2258 0.985 . S
C2272 C2273 1.363 . S
C2272 C2278 1.379 . S
C2272 N2280 1.356 . S
C2273 C2272 1.363 . S
C2273 C2279 1.363 . S
C2274 C2275 1.363 . S
C2274 C2279 1.379 . S
C2274 N2281 1.356 . S
C2275 C2274 1.363 . S
C2275 C2278 1.363 . S
N2276 C2278 1.356 . S
N2276 H2288 0.984 . S
N2276 H2289 0.985 . S
N2277 C2279 1.356 . S
N2277 H2282 0.984 . S
N2277 H2283 0.985 . S
C2278 C2272 1.379 . S
C2278 C2275 1.363 . S
C2278 N2276 1.356 . S
C2279 C2273 1.363 . S
C2279 C2274 1.379 . S
C2279 N2277 1.356 . S
N2280 C2272 1.356 . S
N2280 H2286 0.984 . S
N2280 H2287 0.984 . S
N2281 C2274 1.356 . S
N2281 H2284 0.984 . S
N2281 H2285 0.985 . S
H2282 N2277 0.984 . S
H2283 N2277 0.985 . S
H2284 N2281 0.984 . S
H2285 N2281 0.985 . S
H2286 N2280 0.984 . S
H2287 N2280 0.984 . S
H2288 N2276 0.984 . S
H2289 N2276 0.985 . S
C2290 C2291 1.363 . S
C2290 C2296 1.379 . S
C2290 N2298 1.356 . S
C2291 C2290 1.363 . S
C2291 C2297 1.363 . S
C2292 C2293 1.363 . S
C2292 C2297 1.379 . S
C2292 N2299 1.356 . S
C2293 C2292 1.363 . S
C2293 C2296 1.363 . S
N2294 C2296 1.356 . S
N2294 H2306 0.984 . S
N2294 H2307 0.985 . S
N2295 C2297 1.356 . S
N2295 H2300 0.984 . S
N2295 H2301 0.985 . S
C2296 C2290 1.379 . S
C2296 C2293 1.363 . S
C2296 N2294 1.356 . S
C2297 C2291 1.363 . S
C2297 C2292 1.379 . S
C2297 N2295 1.356 . S
N2298 C2290 1.356 . S
N2298 H2304 0.984 . S
N2298 H2305 0.984 . S
N2299 C2292 1.356 . S
N2299 H2302 0.984 . S
N2299 H2303 0.985 . S
H2300 N2295 0.984 . S
H2301 N2295 0.985 . S
H2302 N2299 0.984 . S
H2303 N2299 0.985 . S
H2304 N2298 0.984 . S
H2305 N2298 0.984 . S
H2306 N2294 0.984 . S
H2307 N2294 0.985 . S
C2308 C2309 1.363 . S
C2308 C2314 1.379 . S
C2308 N2316 1.356 . S
C2309 C2308 1.363 . S
C2309 C2315 1.363 . S
C2310 C2311 1.363 . S
C2310 C2315 1.379 . S
C2310 N2317 1.356 . S
C2311 C2310 1.363 . S
C2311 C2314 1.363 . S
N2312 C2314 1.356 . S
N2312 H2324 0.984 . S
N2312 H2325 0.985 . S
N2313 C2315 1.356 . S
N2313 H2318 0.984 . S
N2313 H2319 0.985 . S
C2314 C2308 1.379 . S
C2314 C2311 1.363 . S
C2314 N2312 1.356 . S
C2315 C2309 1.363 . S
C2315 C2310 1.379 . S
C2315 N2313 1.356 . S
N2316 C2308 1.356 . S
N2316 H2322 0.984 1_455 S
N2316 H2323 0.984 . S
N2317 C2310 1.356 . S
N2317 H2320 0.984 . S
N2317 H2321 0.985 . S
H2318 N2313 0.984 . S
H2319 N2313 0.985 . S
H2320 N2317 0.984 . S
H2321 N2317 0.985 . S
H2322 N2316 0.984 1_655 S
H2323 N2316 0.984 . S
H2324 N2312 0.984 . S
H2325 N2312 0.985 . S
C2326 C2327 1.363 . S
C2326 C2332 1.379 . S
C2326 N2334 1.356 . S
C2327 C2326 1.363 . S
C2327 C2333 1.363 . S
C2328 C2329 1.363 . S
C2328 C2333 1.379 . S
C2328 N2335 1.356 . S
C2329 C2328 1.363 . S
C2329 C2332 1.363 . S
N2330 C2332 1.356 . S
N2330 H2342 0.984 . S
N2330 H2343 0.985 . S
N2331 C2333 1.356 . S
N2331 H2336 0.984 . S
N2331 H2337 0.985 . S
C2332 C2326 1.379 . S
C2332 C2329 1.363 . S
C2332 N2330 1.356 . S
C2333 C2327 1.363 . S
C2333 C2328 1.379 . S
C2333 N2331 1.356 . S
N2334 C2326 1.356 . S
N2334 H2340 0.984 . S
N2334 H2341 0.984 . S
N2335 C2328 1.356 . S
N2335 H2338 0.984 . S
N2335 H2339 0.985 . S
H2336 N2331 0.984 . S
H2337 N2331 0.985 . S
H2338 N2335 0.984 . S
H2339 N2335 0.985 . S
H2340 N2334 0.984 . S
H2341 N2334 0.984 . S
H2342 N2330 0.984 . S
H2343 N2330 0.985 . S
C2344 C2345 1.363 . S
C2344 C2350 1.379 . S
C2344 N2352 1.356 1_554 S
C2345 C2344 1.363 . S
C2345 C2351 1.363 . S
C2346 C2347 1.363 . S
C2346 C2351 1.379 . S
C2346 N2353 1.356 . S
C2347 C2346 1.363 . S
C2347 C2350 1.363 . S
N2348 C2350 1.356 1_556 S
N2348 H2360 0.984 . S
N2348 H2361 0.985 1_556 S
N2349 C2351 1.356 . S
N2349 H2354 0.984 . S
N2349 H2355 0.985 . S
C2350 C2344 1.379 . S
C2350 C2347 1.363 . S
C2350 N2348 1.356 1_554 S
C2351 C2345 1.363 . S
C2351 C2346 1.379 . S
C2351 N2349 1.356 . S
N2352 C2344 1.356 1_556 S
N2352 H2358 0.984 . S
N2352 H2359 0.984 . S
N2353 C2346 1.356 . S
N2353 H2356 0.984 . S
N2353 H2357 0.985 . S
H2354 N2349 0.984 . S
H2355 N2349 0.985 . S
H2356 N2353 0.984 . S
H2357 N2353 0.985 . S
H2358 N2352 0.984 . S
H2359 N2352 0.984 . S
H2360 N2348 0.984 . S
H2361 N2348 0.985 1_554 S
C2362 C2363 1.363 . S
C2362 C2368 1.379 . S
C2362 N2370 1.356 . S
C2363 C2362 1.363 . S
C2363 C2369 1.363 . S
C2364 C2365 1.363 . S
C2364 C2369 1.379 . S
C2364 N2371 1.356 . S
C2365 C2364 1.363 . S
C2365 C2368 1.363 . S
N2366 C2368 1.356 . S
N2366 H2378 0.984 . S
N2366 H2379 0.985 . S
N2367 C2369 1.356 . S
N2367 H2372 0.984 . S
N2367 H2373 0.985 . S
C2368 C2362 1.379 . S
C2368 C2365 1.363 . S
C2368 N2366 1.356 . S
C2369 C2363 1.363 . S
C2369 C2364 1.379 . S
C2369 N2367 1.356 . S
N2370 C2362 1.356 . S
N2370 H2376 0.984 . S
N2370 H2377 0.984 . S
N2371 C2364 1.356 . S
N2371 H2374 0.984 . S
N2371 H2375 0.985 . S
H2372 N2367 0.984 . S
H2373 N2367 0.985 . S
H2374 N2371 0.984 . S
H2375 N2371 0.985 . S
H2376 N2370 0.984 . S
H2377 N2370 0.984 . S
H2378 N2366 0.984 . S
H2379 N2366 0.985 . S
C2380 C2381 1.363 . S
C2380 C2386 1.379 . S
C2380 N2388 1.356 . S
C2381 C2380 1.363 . S
C2381 C2387 1.363 . S
C2382 C2383 1.363 . S
C2382 C2387 1.379 . S
C2382 N2389 1.356 . S
C2383 C2382 1.363 . S
C2383 C2386 1.363 . S
N2384 C2386 1.356 . S
N2384 H2396 0.984 . S
N2384 H2397 0.985 . S
N2385 C2387 1.356 . S
N2385 H2390 0.984 . S
N2385 H2391 0.985 . S
C2386 C2380 1.379 . S
C2386 C2383 1.363 . S
C2386 N2384 1.356 . S
C2387 C2381 1.363 . S
C2387 C2382 1.379 . S
C2387 N2385 1.356 . S
N2388 C2380 1.356 . S
N2388 H2394 0.984 . S
N2388 H2395 0.984 . S
N2389 C2382 1.356 . S
N2389 H2392 0.984 . S
N2389 H2393 0.985 . S
H2390 N2385 0.984 . S
H2391 N2385 0.985 . S
H2392 N2389 0.984 . S
H2393 N2389 0.985 . S
H2394 N2388 0.984 . S
H2395 N2388 0.984 . S
H2396 N2384 0.984 . S
H2397 N2384 0.985 . S
C2398 C2399 1.363 . S
C2398 C2404 1.379 . S
C2398 N2406 1.356 . S
C2399 C2398 1.363 . S
C2399 C2405 1.363 . S
C2400 C2401 1.363 . S
C2400 C2405 1.379 . S
C2400 N2407 1.356 . S
C2401 C2400 1.363 . S
C2401 C2404 1.363 . S
N2402 C2404 1.356 . S
N2402 H2414 0.984 . S
N2402 H2415 0.985 . S
N2403 C2405 1.356 . S
N2403 H2408 0.984 . S
N2403 H2409 0.985 . S
C2404 C2398 1.379 . S
C2404 C2401 1.363 . S
C2404 N2402 1.356 . S
C2405 C2399 1.363 . S
C2405 C2400 1.379 . S
C2405 N2403 1.356 . S
N2406 C2398 1.356 . S
N2406 H2412 0.984 . S
N2406 H2413 0.984 . S
N2407 C2400 1.356 . S
N2407 H2410 0.984 . S
N2407 H2411 0.985 . S
H2408 N2403 0.984 . S
H2409 N2403 0.985 . S
H2410 N2407 0.984 . S
H2411 N2407 0.985 . S
H2412 N2406 0.984 . S
H2413 N2406 0.984 . S
H2414 N2402 0.984 . S
H2415 N2402 0.985 . S
C2416 C2417 1.363 . S
C2416 C2422 1.379 . S
C2416 N2424 1.356 . S
C2417 C2416 1.363 . S
C2417 C2423 1.363 . S
C2418 C2419 1.363 . S
C2418 C2423 1.379 . S
C2418 N2425 1.356 . S
C2419 C2418 1.363 . S
C2419 C2422 1.363 . S
N2420 C2422 1.356 . S
N2420 H2432 0.984 . S
N2420 H2433 0.985 . S
N2421 C2423 1.356 . S
N2421 H2426 0.984 . S
N2421 H2427 0.985 . S
C2422 C2416 1.379 . S
C2422 C2419 1.363 . S
C2422 N2420 1.356 . S
C2423 C2417 1.363 . S
C2423 C2418 1.379 . S
C2423 N2421 1.356 . S
N2424 C2416 1.356 . S
N2424 H2430 0.984 . S
N2424 H2431 0.984 . S
N2425 C2418 1.356 . S
N2425 H2428 0.984 . S
N2425 H2429 0.985 . S
H2426 N2421 0.984 . S
H2427 N2421 0.985 . S
H2428 N2425 0.984 . S
H2429 N2425 0.985 . S
H2430 N2424 0.984 . S
H2431 N2424 0.984 . S
H2432 N2420 0.984 . S
H2433 N2420 0.985 . S
C2434 C2435 1.363 . S
C2434 C2440 1.379 . S
C2434 N2442 1.356 . S
C2435 C2434 1.363 . S
C2435 C2441 1.363 . S
C2436 C2437 1.363 . S
C2436 C2441 1.379 . S
C2436 N2443 1.356 . S
C2437 C2436 1.363 . S
C2437 C2440 1.363 . S
N2438 C2440 1.356 . S
N2438 H2450 0.984 . S
N2438 H2451 0.985 . S
N2439 C2441 1.356 . S
N2439 H2444 0.984 . S
N2439 H2445 0.985 . S
C2440 C2434 1.379 . S
C2440 C2437 1.363 . S
C2440 N2438 1.356 . S
C2441 C2435 1.363 . S
C2441 C2436 1.379 . S
C2441 N2439 1.356 . S
N2442 C2434 1.356 . S
N2442 H2448 0.984 . S
N2442 H2449 0.984 . S
N2443 C2436 1.356 . S
N2443 H2446 0.984 . S
N2443 H2447 0.985 . S
H2444 N2439 0.984 . S
H2445 N2439 0.985 . S
H2446 N2443 0.984 . S
H2447 N2443 0.985 . S
H2448 N2442 0.984 . S
H2449 N2442 0.984 . S
H2450 N2438 0.984 . S
H2451 N2438 0.985 . S
C2452 C2453 1.363 1_554 S
C2452 C2458 1.379 . S
C2452 N2460 1.356 1_554 S
C2453 C2452 1.363 1_556 S
C2453 C2459 1.363 . S
C2454 C2455 1.363 1_556 S
C2454 C2459 1.379 . S
C2454 N2461 1.356 . S
C2455 C2454 1.363 1_554 S
C2455 C2458 1.363 . S
N2456 C2458 1.356 . S
N2456 H2468 0.984 . S
N2456 H2469 0.985 . S
N2457 C2459 1.356 . S
N2457 H2462 0.984 . S
N2457 H2463 0.985 . S
C2458 C2452 1.379 . S
C2458 C2455 1.363 . S
C2458 N2456 1.356 . S
C2459 C2453 1.363 . S
C2459 C2454 1.379 . S
C2459 N2457 1.356 . S
N2460 C2452 1.356 1_556 S
N2460 H2466 0.984 1_556 S
N2460 H2467 0.984 . S
N2461 C2454 1.356 . S
N2461 H2464 0.984 1_556 S
N2461 H2465 0.985 . S
H2462 N2457 0.984 . S
H2463 N2457 0.985 . S
H2464 N2461 0.984 1_554 S
H2465 N2461 0.985 . S
H2466 N2460 0.984 1_554 S
H2467 N2460 0.984 . S
H2468 N2456 0.984 . S
H2469 N2456 0.985 . S
C2470 C2471 1.363 . S
C2470 C2476 1.379 . S
C2470 N2478 1.356 . S
C2471 C2470 1.363 . S
C2471 C2477 1.363 . S
C2472 C2473 1.363 . S
C2472 C2477 1.379 . S
C2472 N2479 1.356 . S
C2473 C2472 1.363 . S
C2473 C2476 1.363 . S
N2474 C2476 1.356 . S
N2474 H2486 0.984 . S
N2474 H2487 0.985 . S
N2475 C2477 1.356 . S
N2475 H2480 0.984 . S
N2475 H2481 0.985 . S
C2476 C2470 1.379 . S
C2476 C2473 1.363 . S
C2476 N2474 1.356 . S
C2477 C2471 1.363 . S
C2477 C2472 1.379 . S
C2477 N2475 1.356 . S
N2478 C2470 1.356 . S
N2478 H2484 0.984 . S
N2478 H2485 0.984 . S
N2479 C2472 1.356 . S
N2479 H2482 0.984 . S
N2479 H2483 0.985 . S
H2480 N2475 0.984 . S
H2481 N2475 0.985 . S
H2482 N2479 0.984 . S
H2483 N2479 0.985 . S
H2484 N2478 0.984 . S
H2485 N2478 0.984 . S
H2486 N2474 0.984 . S
H2487 N2474 0.985 . S
C2488 C2489 1.363 . S
C2488 C2494 1.379 . S
C2488 N2496 1.356 . S
C2489 C2488 1.363 . S
C2489 C2495 1.363 . S
C2490 C2491 1.363 . S
C2490 C2495 1.379 . S
C2490 N2497 1.356 . S
C2491 C2490 1.363 . S
C2491 C2494 1.363 . S
N2492 C2494 1.356 . S
N2492 H2504 0.984 . S
N2492 H2505 0.985 . S
N2493 C2495 1.356 . S
N2493 H2498 0.984 . S
N2493 H2499 0.985 . S
C2494 C2488 1.379 . S
C2494 C2491 1.363 . S
C2494 N2492 1.356 . S
C2495 C2489 1.363 . S
C2495 C2490 1.379 . S
C2495 N2493 1.356 . S
N2496 C2488 1.356 . S
N2496 H2502 0.984 . S
N2496 H2503 0.984 . S
N2497 C2490 1.356 . S
N2497 H2500 0.984 . S
N2497 H2501 0.985 . S
H2498 N2493 0.984 . S
H2499 N2493 0.985 . S
H2500 N2497 0.984 . S
H2501 N2497 0.985 . S
H2502 N2496 0.984 . S
H2503 N2496 0.984 . S
H2504 N2492 0.984 . S
H2505 N2492 0.985 . S
C2506 C2507 1.363 . S
C2506 C2512 1.379 . S
C2506 N2514 1.356 . S
C2507 C2506 1.363 . S
C2507 C2513 1.363 . S
C2508 C2509 1.363 . S
C2508 C2513 1.379 . S
C2508 N2515 1.356 . S
C2509 C2508 1.363 . S
C2509 C2512 1.363 . S
N2510 C2512 1.356 . S
N2510 H2522 0.984 . S
N2510 H2523 0.985 . S
N2511 C2513 1.356 . S
N2511 H2516 0.984 . S
N2511 H2517 0.985 . S
C2512 C2506 1.379 . S
C2512 C2509 1.363 . S
C2512 N2510 1.356 . S
C2513 C2507 1.363 . S
C2513 C2508 1.379 . S
C2513 N2511 1.356 . S
N2514 C2506 1.356 . S
N2514 H2520 0.984 . S
N2514 H2521 0.984 . S
N2515 C2508 1.356 . S
N2515 H2518 0.984 . S
N2515 H2519 0.985 . S
H2516 N2511 0.984 . S
H2517 N2511 0.985 . S
H2518 N2515 0.984 . S
H2519 N2515 0.985 . S
H2520 N2514 0.984 . S
H2521 N2514 0.984 . S
H2522 N2510 0.984 . S
H2523 N2510 0.985 . S
C2524 C2525 1.363 . S
C2524 C2530 1.379 . S
C2524 N2532 1.356 . S
C2525 C2524 1.363 . S
C2525 C2531 1.363 . S
C2526 C2527 1.363 . S
C2526 C2531 1.379 . S
C2526 N2533 1.356 . S
C2527 C2526 1.363 . S
C2527 C2530 1.363 . S
N2528 C2530 1.356 . S
N2528 H2540 0.984 . S
N2528 H2541 0.985 . S
N2529 C2531 1.356 1_655 S
N2529 H2534 0.984 . S
N2529 H2535 0.985 . S
C2530 C2524 1.379 . S
C2530 C2527 1.363 . S
C2530 N2528 1.356 . S
C2531 C2525 1.363 . S
C2531 C2526 1.379 . S
C2531 N2529 1.356 1_455 S
N2532 C2524 1.356 . S
N2532 H2538 0.984 . S
N2532 H2539 0.984 . S
N2533 C2526 1.356 . S
N2533 H2536 0.984 . S
N2533 H2537 0.985 1_455 S
H2534 N2529 0.984 . S
H2535 N2529 0.985 . S
H2536 N2533 0.984 . S
H2537 N2533 0.985 1_655 S
H2538 N2532 0.984 . S
H2539 N2532 0.984 . S
H2540 N2528 0.984 . S
H2541 N2528 0.985 . S
C2542 C2543 1.363 . S
C2542 C2548 1.379 . S
C2542 N2550 1.356 . S
C2543 C2542 1.363 . S
C2543 C2549 1.363 . S
C2544 C2545 1.363 . S
C2544 C2549 1.379 . S
C2544 N2551 1.356 . S
C2545 C2544 1.363 . S
C2545 C2548 1.363 . S
N2546 C2548 1.356 . S
N2546 H2558 0.984 . S
N2546 H2559 0.985 . S
N2547 C2549 1.356 . S
N2547 H2552 0.984 . S
N2547 H2553 0.985 . S
C2548 C2542 1.379 . S
C2548 C2545 1.363 . S
C2548 N2546 1.356 . S
C2549 C2543 1.363 . S
C2549 C2544 1.379 . S
C2549 N2547 1.356 . S
N2550 C2542 1.356 . S
N2550 H2556 0.984 . S
N2550 H2557 0.984 . S
N2551 C2544 1.356 . S
N2551 H2554 0.984 . S
N2551 H2555 0.985 . S
H2552 N2547 0.984 . S
H2553 N2547 0.985 . S
H2554 N2551 0.984 . S
H2555 N2551 0.985 . S
H2556 N2550 0.984 . S
H2557 N2550 0.984 . S
H2558 N2546 0.984 . S
H2559 N2546 0.985 . S
C2560 C2561 1.363 . S
C2560 C2566 1.379 . S
C2560 N2568 1.356 . S
C2561 C2560 1.363 . S
C2561 C2567 1.363 . S
C2562 C2563 1.363 . S
C2562 C2567 1.379 . S
C2562 N2569 1.356 . S
C2563 C2562 1.363 . S
C2563 C2566 1.363 . S
N2564 C2566 1.356 . S
N2564 H2576 0.984 . S
N2564 H2577 0.985 . S
N2565 C2567 1.356 . S
N2565 H2570 0.984 . S
N2565 H2571 0.985 . S
C2566 C2560 1.379 . S
C2566 C2563 1.363 . S
C2566 N2564 1.356 . S
C2567 C2561 1.363 . S
C2567 C2562 1.379 . S
C2567 N2565 1.356 . S
N2568 C2560 1.356 . S
N2568 H2574 0.984 . S
N2568 H2575 0.984 . S
N2569 C2562 1.356 . S
N2569 H2572 0.984 . S
N2569 H2573 0.985 . S
H2570 N2565 0.984 . S
H2571 N2565 0.985 . S
H2572 N2569 0.984 . S
H2573 N2569 0.985 . S
H2574 N2568 0.984 . S
H2575 N2568 0.984 . S
H2576 N2564 0.984 . S
H2577 N2564 0.985 . S
C2578 C2579 1.363 . S
C2578 C2584 1.379 . S
C2578 N2586 1.356 . S
C2579 C2578 1.363 . S
C2579 C2585 1.363 . S
C2580 C2581 1.363 1_455 S
C2580 C2585 1.379 1_455 S
C2580 N2587 1.356 . S
C2581 C2580 1.363 1_655 S
C2581 C2584 1.363 . S
N2582 C2584 1.356 . S
N2582 H2594 0.984 . S
N2582 H2595 0.985 . S
N2583 C2585 1.356 . S
N2583 H2588 0.984 . S
N2583 H2589 0.985 1_655 S
C2584 C2578 1.379 . S
C2584 C2581 1.363 . S
C2584 N2582 1.356 . S
C2585 C2579 1.363 . S
C2585 C2580 1.379 1_655 S
C2585 N2583 1.356 . S
N2586 C2578 1.356 . S
N2586 H2592 0.984 . S
N2586 H2593 0.984 . S
N2587 C2580 1.356 . S
N2587 H2590 0.984 . S
N2587 H2591 0.985 . S
H2588 N2583 0.984 . S
H2589 N2583 0.985 1_455 S
H2590 N2587 0.984 . S
H2591 N2587 0.985 . S
H2592 N2586 0.984 . S
H2593 N2586 0.984 . S
H2594 N2582 0.984 . S
H2595 N2582 0.985 . S
C2596 C2597 1.363 . S
C2596 C2602 1.379 . S
C2596 N2604 1.356 . S
C2597 C2596 1.363 . S
C2597 C2603 1.363 . S
C2598 C2599 1.363 . S
C2598 C2603 1.379 . S
C2598 N2605 1.356 . S
C2599 C2598 1.363 . S
C2599 C2602 1.363 . S
N2600 C2602 1.356 . S
N2600 H2612 0.984 . S
N2600 H2613 0.985 . S
N2601 C2603 1.356 . S
N2601 H2606 0.984 . S
N2601 H2607 0.985 . S
C2602 C2596 1.379 . S
C2602 C2599 1.363 . S
C2602 N2600 1.356 . S
C2603 C2597 1.363 . S
C2603 C2598 1.379 . S
C2603 N2601 1.356 . S
N2604 C2596 1.356 . S
N2604 H2610 0.984 . S
N2604 H2611 0.984 . S
N2605 C2598 1.356 . S
N2605 H2608 0.984 . S
N2605 H2609 0.985 . S
H2606 N2601 0.984 . S
H2607 N2601 0.985 . S
H2608 N2605 0.984 . S
H2609 N2605 0.985 . S
H2610 N2604 0.984 . S
H2611 N2604 0.984 . S
H2612 N2600 0.984 . S
H2613 N2600 0.985 . S
C2614 C2615 1.363 . S
C2614 C2620 1.379 . S
C2614 N2622 1.356 . S
C2615 C2614 1.363 . S
C2615 C2621 1.363 . S
C2616 C2617 1.363 . S
C2616 C2621 1.379 . S
C2616 N2623 1.356 . S
C2617 C2616 1.363 . S
C2617 C2620 1.363 . S
N2618 C2620 1.356 . S
N2618 H2630 0.984 . S
N2618 H2631 0.985 . S
N2619 C2621 1.356 . S
N2619 H2624 0.984 . S
N2619 H2625 0.985 . S
C2620 C2614 1.379 . S
C2620 C2617 1.363 . S
C2620 N2618 1.356 . S
C2621 C2615 1.363 . S
C2621 C2616 1.379 . S
C2621 N2619 1.356 . S
N2622 C2614 1.356 . S
N2622 H2628 0.984 . S
N2622 H2629 0.984 . S
N2623 C2616 1.356 . S
N2623 H2626 0.984 . S
N2623 H2627 0.985 . S
H2624 N2619 0.984 . S
H2625 N2619 0.985 . S
H2626 N2623 0.984 . S
H2627 N2623 0.985 . S
H2628 N2622 0.984 . S
H2629 N2622 0.984 . S
H2630 N2618 0.984 . S
H2631 N2618 0.985 . S
C2632 C2633 1.363 . S
C2632 C2638 1.379 . S
C2632 N2640 1.356 . S
C2633 C2632 1.363 . S
C2633 C2639 1.363 . S
C2634 C2635 1.363 . S
C2634 C2639 1.379 . S
C2634 N2641 1.356 . S
C2635 C2634 1.363 . S
C2635 C2638 1.363 . S
N2636 C2638 1.356 . S
N2636 H2648 0.984 . S
N2636 H2649 0.985 . S
N2637 C2639 1.356 . S
N2637 H2642 0.984 . S
N2637 H2643 0.985 . S
C2638 C2632 1.379 . S
C2638 C2635 1.363 . S
C2638 N2636 1.356 . S
C2639 C2633 1.363 . S
C2639 C2634 1.379 . S
C2639 N2637 1.356 . S
N2640 C2632 1.356 . S
N2640 H2646 0.984 . S
N2640 H2647 0.984 . S
N2641 C2634 1.356 . S
N2641 H2644 0.984 . S
N2641 H2645 0.985 . S
H2642 N2637 0.984 . S
H2643 N2637 0.985 . S
H2644 N2641 0.984 . S
H2645 N2641 0.985 . S
H2646 N2640 0.984 . S
H2647 N2640 0.984 . S
H2648 N2636 0.984 . S
H2649 N2636 0.985 . S
C2650 C2651 1.363 . S
C2650 C2656 1.379 . S
C2650 N2658 1.356 . S
C2651 C2650 1.363 . S
C2651 C2657 1.363 . S
C2652 C2653 1.363 . S
C2652 C2657 1.379 . S
C2652 N2659 1.356 . S
C2653 C2652 1.363 . S
C2653 C2656 1.363 . S
N2654 C2656 1.356 . S
N2654 H2666 0.984 . S
N2654 H2667 0.985 . S
N2655 C2657 1.356 . S
N2655 H2660 0.984 . S
N2655 H2661 0.985 . S
C2656 C2650 1.379 . S
C2656 C2653 1.363 . S
C2656 N2654 1.356 . S
C2657 C2651 1.363 . S
C2657 C2652 1.379 . S
C2657 N2655 1.356 . S
N2658 C2650 1.356 . S
N2658 H2664 0.984 . S
N2658 H2665 0.984 . S
N2659 C2652 1.356 . S
N2659 H2662 0.984 . S
N2659 H2663 0.985 . S
H2660 N2655 0.984 . S
H2661 N2655 0.985 . S
H2662 N2659 0.984 . S
H2663 N2659 0.985 . S
H2664 N2658 0.984 . S
H2665 N2658 0.984 . S
H2666 N2654 0.984 . S
H2667 N2654 0.985 . S
C2668 C2669 1.363 . S
C2668 C2674 1.379 . S
C2668 N2676 1.356 . S
C2669 C2668 1.363 . S
C2669 C2675 1.363 . S
C2670 C2671 1.363 . S
C2670 C2675 1.379 . S
C2670 N2677 1.356 . S
C2671 C2670 1.363 . S
C2671 C2674 1.363 . S
N2672 C2674 1.356 . S
N2672 H2684 0.984 . S
N2672 H2685 0.985 . S
N2673 C2675 1.356 . S
N2673 H2678 0.984 1_565 S
N2673 H2679 0.985 . S
C2674 C2668 1.379 . S
C2674 C2671 1.363 . S
C2674 N2672 1.356 . S
C2675 C2669 1.363 . S
C2675 C2670 1.379 . S
C2675 N2673 1.356 . S
N2676 C2668 1.356 . S
N2676 H2682 0.984 . S
N2676 H2683 0.984 . S
N2677 C2670 1.356 . S
N2677 H2680 0.984 . S
N2677 H2681 0.985 . S
H2678 N2673 0.984 1_545 S
H2679 N2673 0.985 . S
H2680 N2677 0.984 . S
H2681 N2677 0.985 . S
H2682 N2676 0.984 . S
H2683 N2676 0.984 . S
H2684 N2672 0.984 . S
H2685 N2672 0.985 . S
C2686 C2687 1.363 . S
C2686 C2692 1.379 . S
C2686 N2694 1.356 . S
C2687 C2686 1.363 . S
C2687 C2693 1.363 . S
C2688 C2689 1.363 . S
C2688 C2693 1.379 . S
C2688 N2695 1.356 . S
C2689 C2688 1.363 . S
C2689 C2692 1.363 . S
N2690 C2692 1.356 . S
N2690 H2702 0.984 . S
N2690 H2703 0.985 . S
N2691 C2693 1.356 . S
N2691 H2696 0.984 . S
N2691 H2697 0.985 . S
C2692 C2686 1.379 . S
C2692 C2689 1.363 . S
C2692 N2690 1.356 . S
C2693 C2687 1.363 . S
C2693 C2688 1.379 . S
C2693 N2691 1.356 . S
N2694 C2686 1.356 . S
N2694 H2700 0.984 . S
N2694 H2701 0.984 . S
N2695 C2688 1.356 . S
N2695 H2698 0.984 . S
N2695 H2699 0.985 . S
H2696 N2691 0.984 . S
H2697 N2691 0.985 . S
H2698 N2695 0.984 . S
H2699 N2695 0.985 . S
H2700 N2694 0.984 . S
H2701 N2694 0.984 . S
H2702 N2690 0.984 . S
H2703 N2690 0.985 . S
C977 C106 1.928 . S
C979 C342 1.753 . S
C995 C65 2.071 . S
C997 C394 1.985 . S
C1013 C79 1.925 . S
C1015 C426 1.989 1_565 S
C1033 C475 2.402 . S
C1031 C90 2.433 . S
C1049 C21 1.346 . S
C1051 C511 1.281 . S
C1069 C542 0.775 . S
C1067 C35 0.771 . S
C1087 C594 0.652 . S
C1085 C50 0.712 . S
C1103 C6 2.668 . S
C1105 C622 2.752 . S
C1123 C354 2.331 . S
C1121 C232 2.584 . S
C1139 C245 1.689 . S
C1141 C395 1.815 . S
C1159 C425 1.877 . S
C1157 C274 2.079 1_545 S
C1177 C462 0.997 . S
C1175 C175 0.980 . S
C1193 C231 1.569 . S
C1195 C506 1.623 . S
C1213 C554 2.011 . S
C1211 C246 1.996 . S
C1231 C595 1.643 1_556 S
C1229 C273 1.563 . S
C1249 C634 2.335 . S
C1247 C176 2.559 . S
C1267 C355 2.435 . S
C1265 C160 2.285 . S
C1283 C289 1.642 1_554 S
C1285 C665 1.565 . S
C1303 C715 2.483 . S
C1301 C328 2.427 . S
C1321 C742 1.211 . S
C1319 C317 1.257 . S
C1337 C118 2.747 . S
C1339 C635 2.867 . S
C1355 C132 1.917 . S
C1357 C431 1.821 . S
C1373 C331 2.625 . S
C1375 C794 2.496 . S
C1393 C822 1.631 . S
C1391 C303 1.793 . S
C1411 C351 1.596 . S
C1409 C63 1.602 . S
C1429 C825 2.251 . S
C1427 C107 2.381 1_655 S
C1445 C92 1.443 . S
C1447 C435 1.438 . S
C1463 C78 2.846 . S
C1465 C786 2.932 . S
C1483 C502 1.290 . S
C1481 C8 1.275 . S
C1499 C51 1.052 . S
C1501 C711 1.021 . S
C1519 C585 0.991 1_565 S
C1517 C37 0.997 . S
C1537 C871 2.823 . S
C1535 C20 2.805 . S
C1555 C345 2.011 1_556 S
C1553 C147 2.091 . S
C1573 C826 2.087 . S
C1571 C316 2.086 . S
C1589 C119 1.932 . S
C1591 C434 1.910 . S
C1607 C288 0.924 . S
C1609 C791 0.869 . S
C1625 C148 1.976 . S
C1627 C515 1.964 . S
C1645 C705 1.995 . S
C1643 C315 1.898 . S
C1661 C120 2.137 . S
C1663 C586 2.135 . S
C1679 C287 2.024 . S
C1681 C865 2.009 . S
C1697 C188 2.169 . S
C1699 C346 2.284 1_655 S
C1715 C177 2.172 . S
C1717 C674 2.297 . S
C1733 C258 2.574 . S
C1735 C546 2.635 . S
C1751 C247 1.149 . S
C1753 C751 1.154 . S
C1771 C866 2.614 . S
C1769 C272 2.537 . S
C1787 C216 1.891 . S
C1789 C422 1.734 . S
C1807 C465 2.758 . S
C1805 C261 2.781 . S
C1825 C391 1.634 . S
C1823 C205 1.792 . S
C1841 C76 1.569 . S
C1843 C902 1.591 . S
C1861 C834 2.112 . S
C1859 C93 2.236 . S
C1877 C105 1.558 . S
C1879 C946 1.700 . S
C1895 C62 2.429 1_655 S
C1897 C795 2.408 . S
C1913 C49 1.376 . S
C1915 C671 1.279 . S
C1933 C702 1.239 1_455 S
C1931 C9 1.343 . S
C1951 C754 0.897 . S
C1949 C22 0.792 . S
C1969 C862 2.069 . S
C1967 C36 2.242 . S
C1987 C914 2.227 . S
C1985 C260 2.483 . S
C2003 C189 1.657 . S
C2005 C835 1.751 . S
C2023 C945 1.868 . S
C2021 C204 2.029 . S
C2041 C782 0.823 . S
C2039 C217 0.825 . S
C2059 C666 2.061 1_556 S
C2057 C259 1.951 . S
C2075 C190 2.152 . S
C2077 C714 2.130 . S
C2095 C755 1.920 . S
C2093 C203 1.816 . S
C2111 C218 2.529 . S
C2113 C874 2.284 . S
C2131 C915 2.409 . S
C2129 C314 2.241 . S
C2147 C135 1.963 . S
C2149 C505 1.959 . S
C2167 C555 2.390 . S
C2165 C146 2.328 . S
C2185 C582 1.276 . S
C2183 C163 1.316 . S
C2203 C875 2.833 . S
C2201 C300 2.712 . S
C2219 C286 1.636 . S
C2221 C951 1.538 . S
C2239 C474 2.484 . S
C2237 C149 2.613 . S
C2257 C382 1.658 . S
C2255 C121 1.846 . S
C2273 C91 1.422 . S
C2275 C911 1.432 . S
C2293 C385 1.946 . S
C2291 C77 2.143 . S
C2309 C64 1.407 . S
C2311 C955 1.405 . S
C2327 C104 2.514 . S
C2329 C466 2.535 . S
C2345 C34 1.126 . S
C2347 C662 1.078 . S
C2365 C551 0.935 . S
C2363 C23 0.951 . S
C2381 C7 0.668 . S
C2383 C745 0.562 . S
C2399 C48 2.316 . S
C2401 C631 2.384 . S
C2419 C905 1.952 . S
C2417 C329 2.033 . S
C2435 C162 2.108 . S
C2437 C386 2.114 . S
C2455 C954 1.950 . S
C2453 C301 1.975 . S
C2471 C134 1.122 . S
C2473 C471 1.053 . S
C2489 C330 2.006 . S
C2491 C675 2.002 . S
C2509 C545 2.094 . S
C2507 C161 2.038 . S
C2525 C302 1.993 . S
C2527 C746 2.005 . S
C2545 C625 1.942 . S
C2543 C133 1.931 . S
C2563 C906 2.474 . S
C2561 C244 2.364 . S
C2581 C514 2.407 1_655 S
C2579 C219 2.264 . S
C2597 C230 2.305 . S
C2599 C706 2.347 . S
C2617 C591 1.229 . S
C2615 C191 1.261 . S
C2633 C202 2.665 . S
C2635 C626 2.748 . S
C2651 C174 1.753 . S
C2653 C942 1.610 . S
C2671 C785 2.823 . S
C2669 C233 2.818 1_565 S
C2689 C831 1.590 . S
C2687 C275 1.777 . S
