# Generated by pormake.
# Topology zzz, (3,6)-cn, num edge types: 1
# Building blocks:
#     Node 0, Type 0, BuildingBlock: OLANEW_clean_sbu_2, # of connection points: 3
#     Node 1, Type 0, BuildingBlock: OLANEW_clean_sbu_2, # of connection points: 3
#     Node 2, Type 0, BuildingBlock: OLANEW_clean_sbu_2, # of connection points: 3
#     Node 3, Type 0, BuildingBlock: OLANEW_clean_sbu_2, # of connection points: 3
#     Node 4, Type 0, BuildingBlock: OLANEW_clean_sbu_2, # of connection points: 3
#     Node 5, Type 0, BuildingBlock: OLANEW_clean_sbu_2, # of connection points: 3
#     Node 6, Type 0, BuildingBlock: OLANEW_clean_sbu_2, # of connection points: 3
#     Node 7, Type 0, BuildingBlock: OLANEW_clean_sbu_2, # of connection points: 3
#     Node 8, Type 1, BuildingBlock: FUNLAD_clean_sbu_0, # of connection points: 6
#     Node 9, Type 1, BuildingBlock: FUNLAD_clean_sbu_0, # of connection points: 6
#     Node 10, Type 1, BuildingBlock: FUNLAD_clean_sbu_0, # of connection points: 6
#     Node 11, Type 1, BuildingBlock: FUNLAD_clean_sbu_0, # of connection points: 6
#     Edge 12, Type (0, 1), BuildingBlock: AJUNOK_clean_linker_0, # of connection points: 2
#     Edge 13, Type (0, 1), BuildingBlock: AJUNOK_clean_linker_0, # of connection points: 2
#     Edge 14, Type (0, 1), BuildingBlock: AJUNOK_clean_linker_0, # of connection points: 2
#     Edge 15, Type (0, 1), BuildingBlock: AJUNOK_clean_linker_0, # of connection points: 2
#     Edge 16, Type (0, 1), BuildingBlock: AJUNOK_clean_linker_0, # of connection points: 2
#     Edge 17, Type (0, 1), BuildingBlock: AJUNOK_clean_linker_0, # of connection points: 2
#     Edge 18, Type (0, 1), BuildingBlock: AJUNOK_clean_linker_0, # of connection points: 2
#     Edge 19, Type (0, 1), BuildingBlock: AJUNOK_clean_linker_0, # of connection points: 2
#     Edge 20, Type (0, 1), BuildingBlock: AJUNOK_clean_linker_0, # of connection points: 2
#     Edge 21, Type (0, 1), BuildingBlock: AJUNOK_clean_linker_0, # of connection points: 2
#     Edge 22, Type (0, 1), BuildingBlock: AJUNOK_clean_linker_0, # of connection points: 2
#     Edge 23, Type (0, 1), BuildingBlock: AJUNOK_clean_linker_0, # of connection points: 2
#     Edge 24, Type (0, 1), BuildingBlock: AJUNOK_clean_linker_0, # of connection points: 2
#     Edge 25, Type (0, 1), BuildingBlock: AJUNOK_clean_linker_0, # of connection points: 2
#     Edge 26, Type (0, 1), BuildingBlock: AJUNOK_clean_linker_0, # of connection points: 2
#     Edge 27, Type (0, 1), BuildingBlock: AJUNOK_clean_linker_0, # of connection points: 2
#     Edge 28, Type (0, 1), BuildingBlock: AJUNOK_clean_linker_0, # of connection points: 2
#     Edge 29, Type (0, 1), BuildingBlock: AJUNOK_clean_linker_0, # of connection points: 2
#     Edge 30, Type (0, 1), BuildingBlock: AJUNOK_clean_linker_0, # of connection points: 2
#     Edge 31, Type (0, 1), BuildingBlock: AJUNOK_clean_linker_0, # of connection points: 2
#     Edge 32, Type (0, 1), BuildingBlock: AJUNOK_clean_linker_0, # of connection points: 2
#     Edge 33, Type (0, 1), BuildingBlock: AJUNOK_clean_linker_0, # of connection points: 2
#     Edge 34, Type (0, 1), BuildingBlock: AJUNOK_clean_linker_0, # of connection points: 2
#     Edge 35, Type (0, 1), BuildingBlock: AJUNOK_clean_linker_0, # of connection points: 2
# Relax obj value: 0.105
# Max RMSD: 0.172
# Mean RMSD: 0.098
data_MOF--net-zzz--node1-OLANEW_clean_sbu_2--node2-FUNLAD_clean_sbu_0--edge1-AJUNOK_clean_linker_0
_symmetry_space_group_name_H-M    P1
_symmetry_Int_Tables_number       1
_symmetry_cell_setting            triclinic
loop_
_symmetry_equiv_pos_as_xyz
'x, y, z'
_cell_length_a     42.124235
_cell_length_b     47.487211
_cell_length_c     14.82466
_cell_angle_alpha  84.183851
_cell_angle_beta   84.489789
_cell_angle_gamma 89.779197
loop_
_atom_site_label
_atom_site_type_symbol
_atom_site_fract_x
_atom_site_fract_y
_atom_site_fract_z
_atom_type_partial_charge
O0 O 0.83626 0.53086 0.07884 0.0
Cd1 Cd 0.78516 0.54281 0.15431 0.0
O2 O 0.83666 0.49271 0.175 0.0
Cd3 Cd 0.86445 0.4611 0.24785 0.0
O4 O 0.89769 0.46214 0.35014 0.0
C5 C 0.90832 0.48659 0.35968 0.0
O6 O 0.89943 0.50834 0.30611 0.0
C7 C 0.85016 0.5085 0.1082 0.0
C8 C 0.73714 0.51906 0.07094 0.0
O9 O 0.74833 0.54377 0.04245 0.0
O10 O 0.74855 0.50571 0.14001 0.0
O11 O 0.94353 0.81641 0.85792 0.0
Cd12 Cd 0.91071 0.77418 0.89806 0.0
O13 O 0.94814 0.81724 0.00284 0.0
Cd14 Cd 0.96253 0.82857 0.13223 0.0
O15 O 0.95975 0.81065 0.28163 0.0
C16 C 0.95423 0.82326 0.35393 0.0
O17 O 0.95991 0.80968 0.28215 0.0
C18 C 0.95523 0.82786 0.92121 0.0
C19 C 0.94595 0.72647 0.85913 0.0
O20 O 0.9279 0.73838 0.80182 0.0
O21 O 0.94697 0.73698 0.93507 0.0
O22 O 0.71806 0.99053 0.97395 0.0
Cd23 Cd 0.7651 0.98667 0.06098 0.0
O24 O 0.69344 0.02135 0.05719 0.0
Cd25 Cd 0.7178 0.01113 0.1791 0.0
O26 O 0.68574 0.00081 0.30379 0.0
C27 C 0.65637 0.00411 0.2918 0.0
O28 O 0.64874 0.01287 0.20982 0.0
C29 C 0.69493 0.00733 0.98846 0.0
C30 C 0.82505 -0.00587 0.95955 0.0
O31 O 0.81039 0.97025 0.96856 0.0
O32 O 0.81102 0.01475 -0.00393 0.0
O33 O 0.55178 0.66332 0.84325 0.0
Cd34 Cd 0.58838 0.7029 0.8454 0.0
O35 O 0.55604 0.65813 0.98961 0.0
Cd36 Cd 0.54795 0.63712 0.12698 0.0
O37 O 0.54035 0.61268 0.2588 0.0
C38 C 0.5624 0.5978 0.29182 0.0
O39 O 0.59055 0.5976 0.24533 0.0
C40 C 0.54561 0.64911 0.92012 0.0
C41 C 0.56141 0.75654 0.8373 0.0
O42 O 0.57236 0.74576 0.76481 0.0
O43 O 0.56247 0.74154 0.91385 0.0
O44 O 0.19007 0.5315 0.33359 0.0
Cd45 Cd 0.24057 0.53946 0.24152 0.0
O46 O 0.20555 0.48844 0.37661 0.0
Cd47 Cd 0.23087 0.48803 0.24217 0.0
O48 O 0.19892 0.49377 0.13522 0.0
C49 C 0.17202 0.48165 0.15682 0.0
O50 O 0.16747 0.46571 0.23478 0.0
C51 C 0.18668 0.50901 0.38811 0.0
C52 C 0.28464 0.53205 0.37011 0.0
O53 O 0.27395 0.55672 0.34631 0.0
O54 O 0.27593 0.51135 0.32906 0.0
O55 O 0.02182 0.18204 0.54777 0.0
Cd56 Cd 0.0292 0.23066 0.48102 0.0
O57 O 0.07113 0.17417 0.49463 0.0
Cd58 Cd 0.10688 0.1435 0.45312 0.0
O59 O 0.11193 0.11331 0.35206 0.0
C60 C 0.10112 0.08824 0.37042 0.0
O61 O 0.09034 0.07965 0.45473 0.0
C62 C 0.04483 0.16507 0.53634 0.0
C63 C 0.03417 0.26944 0.60766 0.0
O64 O 0.00693 0.26193 0.58604 0.0
O65 O 0.05909 0.25797 0.5708 0.0
O66 O 0.32249 0.98403 0.50468 0.0
Cd67 Cd 0.27597 0.99074 0.41657 0.0
O68 O 0.34404 0.02241 0.42778 0.0
Cd69 Cd 0.3183 0.02238 0.30783 0.0
O70 O 0.35211 0.02048 0.18682 0.0
C71 C 0.37712 0.00615 0.20046 0.0
O72 O 0.37947 0.99293 0.28175 0.0
C73 C 0.34441 0.00279 0.49267 0.0
C74 C 0.21597 0.98703 0.51764 0.0
O75 O 0.22772 0.96588 0.4788 0.0
O76 O 0.23277 0.00973 0.51039 0.0
O77 O 0.50227 0.33103 0.46763 0.0
Cd78 Cd 0.48994 0.29055 0.38832 0.0
O79 O 0.45331 0.34692 0.45929 0.0
Cd80 Cd 0.44082 0.32048 0.35676 0.0
O81 O 0.44891 0.34601 0.22621 0.0
C82 C 0.43216 0.36799 0.21038 0.0
O83 O 0.40734 0.37269 0.26744 0.0
C84 C 0.48085 0.34899 0.48654 0.0
C85 C 0.50354 0.23901 0.48397 0.0
O86 O 0.52414 0.25156 0.4242 0.0
O87 O 0.47658 0.25111 0.49933 0.0
C88 C 0.01591 0.93587 0.81133 0.0
N89 N 0.00243 0.97055 0.55162 0.0
C90 C 0.02261 0.95048 0.52008 0.0
C91 C 0.01342 0.93285 0.45778 0.0
C92 C 0.98271 0.93507 0.42941 0.0
C93 C 0.96287 0.95694 0.45818 0.0
C94 C 0.97345 0.97483 0.51899 0.0
Zn95 Zn 0.01363 0.98628 0.66958 0.0
C96 C 0.9564 -0.00246 0.79493 0.0
N97 N 0.03964 0.00924 0.92307 0.0
C98 C 0.06139 -0.0057 0.97049 0.0
C99 C 0.0274 0.03391 0.95008 0.0
C100 C 0.03779 0.04495 0.02579 0.0
C101 C 0.06083 0.03039 0.07449 0.0
C102 C 0.07232 0.00452 0.04715 0.0
Zn103 Zn 0.02725 -0.00381 0.80433 0.0
O104 O 0.01297 0.94421 0.72859 0.0
C105 C 0.08458 0.98587 0.68003 0.0
O106 O 0.02202 0.95385 0.86518 0.0
H107 H 0.01012 0.04541 0.91147 0.0
H108 H 0.04492 0.9462 0.54876 0.0
H109 H 0.07093 0.97482 0.94738 0.0
O110 O 0.0632 0.98378 0.6263 0.0
O111 O 0.07635 0.98992 0.76237 0.0
H112 H 0.95746 0.99053 0.54548 0.0
O113 O 0.03204 0.03797 0.74129 0.0
O114 O 0.01431 0.02898 0.61205 0.0
O115 O 0.9781 0.00296 0.84479 0.0
O116 O 0.96426 0.98927 0.71692 0.0
C117 C 0.02509 0.04646 0.66152 0.0
H118 H 0.02905 0.91573 0.43951 0.0
H119 H 0.93877 0.95894 0.43871 0.0
H120 H 0.02829 0.06491 0.04537 0.0
H121 H 0.09037 0.9929 0.08256 0.0
C122 C 0.46274 -0.00286 0.66636 0.0
N123 N 0.51786 0.06658 0.70368 0.0
C124 C 0.51433 0.07527 0.61487 0.0
C125 C 0.51434 0.10393 0.58438 0.0
C126 C 0.51767 0.12399 0.64583 0.0
C127 C 0.52056 0.11471 0.73762 0.0
C128 C 0.52086 0.0856 0.76525 0.0
Zn129 Zn 0.51836 0.02375 0.73717 0.0
C130 C 0.48004 0.00456 0.90979 0.0
N131 N 0.51871 0.93375 0.78953 0.0
C132 C 0.5108 0.91788 0.72352 0.0
C133 C 0.52883 0.92145 0.86859 0.0
C134 C 0.5325 0.8921 0.88198 0.0
C135 C 0.52524 0.87528 0.81385 0.0
C136 C 0.51369 0.88852 0.7346 0.0
Zn137 Zn 0.51815 0.97677 0.76275 0.0
O138 O 0.47692 0.02039 0.67086 0.0
C139 C 0.55666 -0.00424 0.59093 0.0
O140 O 0.47498 0.97427 0.69878 0.0
H141 H 0.53508 0.93447 0.92007 0.0
H142 H 0.51146 0.05993 0.56714 0.0
H143 H 0.50311 0.92805 0.6608 0.0
O144 O 0.54774 0.01959 0.61533 0.0
O145 O 0.5469 0.97324 0.6388 0.0
H146 H 0.52351 0.07821 0.83555 0.0
O147 O 0.56097 0.98029 0.82502 0.0
O148 O 0.56029 0.02673 0.80426 0.0
O149 O 0.49 0.98069 0.88721 0.0
O150 O 0.48869 0.02704 0.85938 0.0
C151 C 0.57406 0.00399 0.83159 0.0
H152 H 0.51144 0.1104 0.51343 0.0
H153 H 0.52294 0.12976 0.78682 0.0
H154 H 0.54216 0.88286 0.94326 0.0
H155 H 0.50769 0.87633 0.6806 0.0
C156 C 0.50472 0.44583 0.6787 0.0
N157 N 0.43389 0.50603 0.71405 0.0
C158 C 0.435 0.50503 0.62232 0.0
C159 C 0.40786 0.50966 0.57716 0.0
C160 C 0.37914 0.51553 0.62637 0.0
C161 C 0.37814 0.51672 0.72079 0.0
C162 C 0.40618 0.51179 0.76392 0.0
Zn163 Zn 0.47667 0.49786 0.76577 0.0
C164 C 0.47505 0.45678 0.9248 0.0
N165 N 0.56977 0.47879 0.83661 0.0
C166 C 0.59689 0.47731 0.77952 0.0
C167 C 0.57087 0.47974 0.9277 0.0
C168 C 0.59998 0.48055 0.9642 0.0
C169 C 0.6283 0.48059 0.90644 0.0
C170 C 0.62669 0.47837 0.81326 0.0
Zn171 Zn 0.52644 0.48591 0.78899 0.0
O172 O 0.48118 0.46225 0.69066 0.0
C173 C 0.52823 0.52611 0.62851 0.0
O174 O 0.53006 0.44994 0.71566 0.0
H175 H 0.54917 0.4817 0.97172 0.0
H176 H 0.45706 0.5005 0.58338 0.0
H177 H 0.59546 0.47681 0.70725 0.0
O178 O 0.49867 0.52417 0.65416 0.0
O179 O 0.54765 0.51143 0.67361 0.0
H180 H 0.40582 0.51247 0.83672 0.0
O181 O 0.52256 0.52237 0.8611 0.0
O182 O 0.47315 0.53374 0.83952 0.0
O183 O 0.50467 0.46017 0.90148 0.0
O184 O 0.45526 0.47111 0.87941 0.0
C185 C 0.49909 0.53898 0.87201 0.0
H186 H 0.40926 0.50857 0.50419 0.0
H187 H 0.35605 0.52118 0.76031 0.0
H188 H 0.60026 0.48304 0.03597 0.0
H189 H 0.64818 0.47859 0.76676 0.0
C190 C 0.07948 0.50273 0.66678 0.0
N191 N 0.0302 0.4307 0.7935 0.0
C192 C 0.03861 0.42281 0.70877 0.0
C193 C 0.04194 0.39444 0.69516 0.0
C194 C 0.03594 0.37378 0.76889 0.0
C195 C 0.02666 0.38211 0.85564 0.0
C196 C 0.02424 0.41106 0.86675 0.0
Zn197 Zn 0.02694 0.47341 0.80015 0.0
C198 C 0.06809 0.49425 0.92622 0.0
N199 N 0.02335 0.5631 0.78819 0.0
C200 C 0.02188 0.58076 0.71046 0.0
C201 C 0.01863 0.57284 0.87159 0.0
C202 C 0.01066 0.60103 0.87943 0.0
C203 C 0.0078 0.61954 0.80067 0.0
C204 C 0.01407 0.60926 0.7152 0.0
Zn205 Zn 0.02716 0.52039 0.7846 0.0
O206 O 0.06836 0.4792 0.705 0.0
C207 C 0.98756 0.49822 0.65447 0.0
O208 O 0.06583 0.52545 0.68642 0.0
H209 H 0.01951 0.55839 0.93253 0.0
H210 H 0.04247 0.43853 0.6508 0.0
H211 H 0.02553 0.57252 0.64488 0.0
O212 O -0.0024 0.47545 0.69386 0.0
O213 O -0.00437 0.52173 0.67985 0.0
H214 H 0.01738 0.4178 0.93337 0.0
O215 O 0.98792 0.51528 0.88315 0.0
O216 O 0.98557 0.46896 0.8953 0.0
O217 O 0.05965 0.51783 0.88715 0.0
O218 O 0.05645 0.47137 0.90581 0.0
C219 C 0.9743 0.49241 0.91793 0.0
H220 H 0.04844 0.38864 0.62699 0.0
H221 H 0.02145 0.3665 0.91363 0.0
H222 H 0.00519 0.60784 0.94669 0.0
H223 H 0.01206 0.6229 0.6529 0.0
C224 C 0.16008 0.96824 0.53611 0.0
C225 C 0.18323 0.98574 0.56489 0.0
C226 C 0.1283 0.96817 0.5745 0.0
C227 C 0.11865 0.98497 0.64499 0.0
H228 H 0.1663 0.95514 0.4814 0.0
H229 H 0.11111 0.95492 0.5485 0.0
S230 S 0.17007 0.03388 0.74703 0.0
N231 N 0.19429 0.02012 0.66893 0.0
N232 N 0.13479 0.01926 0.74304 0.0
C233 C 0.14168 0.00198 0.67619 0.0
C234 C 0.1739 0.00258 0.6356 0.0
C235 C 0.48925 0.19953 0.60637 0.0
C236 C 0.50995 0.21077 0.53105 0.0
C237 C 0.49296 0.17185 0.64687 0.0
C238 C 0.51728 0.1544 0.61281 0.0
H239 H 0.46954 0.21193 0.63304 0.0
H240 H 0.47586 0.16364 0.70249 0.0
S241 S 0.57929 0.17399 0.42241 0.0
N242 N 0.55702 0.20255 0.42828 0.0
N243 N 0.56356 0.15052 0.50408 0.0
C244 C 0.53888 0.16563 0.54023 0.0
C245 C 0.53535 0.19384 0.49949 0.0
C246 C 0.32176 0.55088 0.47197 0.0
C247 C 0.30629 0.52758 0.44321 0.0
C248 C 0.34386 0.54703 0.53704 0.0
C249 C 0.35077 0.51985 0.57636 0.0
H250 H 0.31771 0.57215 0.44165 0.0
H251 H 0.35667 0.56526 0.55369 0.0
S252 S 0.31501 0.45219 0.53179 0.0
N253 N 0.29802 0.47646 0.46468 0.0
N254 N 0.33969 0.46954 0.58668 0.0
C255 C 0.33457 0.49656 0.55161 0.0
C256 C 0.31224 0.50035 0.48511 0.0
C257 C 0.00868 0.3031 0.71164 0.0
C258 C 0.0366 0.2926 0.66669 0.0
C259 C 0.00915 0.32829 0.75325 0.0
C260 C 0.03751 0.34383 0.75095 0.0
H261 H 0.98594 0.29263 0.71058 0.0
H262 H 0.98682 0.33672 0.78139 0.0
S263 S 0.11779 0.3239 0.65422 0.0
N264 N 0.09412 0.29831 0.63229 0.0
N265 N 0.09461 0.34588 0.70949 0.0
C266 C 0.06594 0.33258 0.71278 0.0
C267 C 0.0656 0.30685 0.671 0.0
C268 C 0.86893 0.97771 0.85066 0.0
C269 C 0.85779 -0.00279 0.91185 0.0
C270 C 0.90049 0.97877 0.80991 0.0
C271 C 0.92236 -0.00106 0.83046 0.0
H272 H 0.85326 0.96125 0.83482 0.0
H273 H 0.90813 0.96296 0.76474 0.0
S274 S 0.90506 0.05576 0.98192 0.0
N275 N 0.87096 0.03836 0.98678 0.0
N276 N 0.9304 0.03972 0.91232 0.0
C277 C 0.91142 0.01896 0.8897 0.0
C278 C 0.87912 0.01829 0.92972 0.0
C279 C 0.55681 0.80415 0.75175 0.0
C280 C 0.54978 0.78611 0.83244 0.0
C281 C 0.54834 0.83273 0.74636 0.0
C282 C 0.53224 0.84449 0.82117 0.0
H283 H 0.56977 0.79638 0.69267 0.0
H284 H 0.55526 0.8459 0.68357 0.0
S285 S 0.5055 0.80583 0.04558 0.0
N286 N 0.52412 0.78173 0.98758 0.0
N287 N 0.50759 0.83546 0.97653 0.0
C288 C 0.52415 0.82656 0.90151 0.0
C289 C 0.53301 0.79739 0.9073 0.0
C290 C 0.70249 0.52039 0.94325 0.0
C291 C 0.71136 0.50677 0.02584 0.0
C292 C 0.67671 0.51064 0.90204 0.0
C293 C 0.65872 0.48701 0.94212 0.0
H294 H 0.71506 0.53918 0.91101 0.0
H295 H 0.66987 0.52253 0.84067 0.0
S296 S 0.67345 0.44224 0.1534 0.0
N297 N 0.70122 0.46712 0.14289 0.0
N298 N 0.65259 0.44897 0.06499 0.0
C299 C 0.66804 0.47244 0.02242 0.0
C300 C 0.69442 0.48225 0.06433 0.0
C301 C 0.95454 0.68383 0.77408 0.0
C302 C 0.96415 0.70071 0.83942 0.0
C303 C 0.96969 0.65816 0.75926 0.0
C304 C -0.00481 0.64851 0.80867 0.0
H305 H 0.93441 0.68995 0.73632 0.0
H306 H 0.96047 0.64524 0.71138 0.0
S307 S 0.03256 0.68681 0.97759 0.0
N308 N 0.00275 0.70726 0.94768 0.0
N309 N 0.03161 0.65927 0.91827 0.0
C310 C 0.00615 0.66591 0.8706 0.0
C311 C 0.99055 0.69193 0.88634 0.0
C312 C 0.01406 0.11998 0.54345 0.0
C313 C 0.04047 0.13476 0.56671 0.0
C314 C 0.00957 0.09105 0.57198 0.0
C315 C 0.03086 0.07636 0.62689 0.0
H316 H -0.00305 0.1308 0.5023 0.0
H317 H 0.98895 0.08032 0.55293 0.0
S318 S 0.10391 0.10554 0.70504 0.0
N319 N 0.08843 0.13263 0.64571 0.0
N320 N 0.07967 0.07852 0.7015 0.0
C321 C 0.05735 0.09098 0.65041 0.0
C322 C 0.06226 0.12016 0.61971 0.0
C323 C 0.39361 0.02418 0.53759 0.0
C324 C 0.37254 0.00092 0.54612 0.0
C325 C 0.42252 0.02252 0.57655 0.0
C326 C 0.43187 -0.00251 0.62583 0.0
H327 H 0.38808 0.04388 0.4989 0.0
H328 H 0.43785 0.04107 0.56665 0.0
S329 S 0.38468 0.93088 0.67344 0.0
N330 N 0.36246 0.95227 0.61119 0.0
N331 N 0.41703 0.94918 0.68509 0.0
C332 C 0.41078 0.97418 0.63718 0.0
C333 C 0.38105 0.97592 0.59752 0.0
C334 C 0.51042 0.37234 0.59845 0.0
C335 C 0.48846 0.37395 0.53231 0.0
C336 C 0.51675 0.39603 0.64378 0.0
C337 C 0.50144 0.42198 0.62363 0.0
H338 H 0.52207 0.35251 0.61702 0.0
H339 H 0.53281 0.39375 0.69688 0.0
S340 S 0.44647 0.43835 0.44427 0.0
N341 N 0.45448 0.40441 0.44134 0.0
N342 N 0.46654 0.4487 0.52538 0.0
C343 C 0.4809 0.42415 0.55395 0.0
C344 C 0.47434 0.40017 0.50857 0.0
C345 C 0.1421 0.53079 0.47946 0.0
C346 C 0.16037 0.50672 0.46216 0.0
C347 C 0.11632 0.52931 0.54651 0.0
C348 C 0.1076 0.50366 0.59875 0.0
H349 H 0.14758 0.55104 0.4406 0.0
H350 H 0.10289 0.54844 0.55642 0.0
S351 S 0.14809 0.43447 0.58223 0.0
N352 N 0.16831 0.45643 0.50422 0.0
N353 N 0.11974 0.45364 0.63032 0.0
C354 C 0.12586 0.47942 0.58313 0.0
C355 C 0.15227 0.48096 0.51492 0.0
C356 C 0.97732 0.87369 0.96056 0.0
C357 C 0.97583 0.85329 0.89845 0.0
C358 C 0.9929 0.89974 0.93443 0.0
C359 C 0.00723 0.90631 0.8451 0.0
H360 H 0.96468 0.87042 0.02779 0.0
H361 H 0.99172 0.91552 0.98256 0.0
S362 S 0.01413 0.8586 0.66088 0.0
N363 N 0.99334 0.84022 0.74704 0.0
N364 N 0.02218 0.88914 0.69794 0.0
C365 C 0.00786 0.88533 0.78455 0.0
C366 C 0.99218 0.85887 0.81112 0.0
C367 C 0.6457 0.03064 0.93598 0.0
C368 C 0.66671 0.00748 0.93581 0.0
C369 C 0.61603 0.02953 0.9009 0.0
C370 C 0.60589 0.00499 0.86603 0.0
H371 H 0.6519 0.04959 0.96555 0.0
H372 H 0.60056 0.04777 0.90358 0.0
S373 S 0.65257 0.93905 0.84502 0.0
N374 N 0.67586 0.95977 0.89318 0.0
N375 N 0.61996 0.95748 0.82868 0.0
C376 C 0.62702 0.98196 0.86295 0.0
C377 C 0.65747 0.98328 0.89722 0.0
C378 C 0.50314 0.61815 0.87538 0.0
C379 C 0.52929 0.62139 0.92584 0.0
C380 C 0.49092 0.59121 0.86626 0.0
C381 C 0.50493 0.56659 0.90581 0.0
H382 H 0.49299 0.6365 0.83933 0.0
H383 H 0.47213 0.58962 0.82199 0.0
S384 S 0.57257 0.56366 0.04928 0.0
N385 N 0.56779 0.59774 0.01921 0.0
N386 N 0.54456 0.5473 0.00353 0.0
C387 C 0.52973 0.5697 0.96125 0.0
C388 C 0.54207 0.59706 0.97072 0.0
C389 C 0.90463 0.52505 0.04919 0.0
C390 C 0.88278 0.50262 0.06973 0.0
C391 C 0.9348 0.52095 0.00482 0.0
C392 C 0.94421 0.49429 0.97771 0.0
H393 H 0.89817 0.54612 0.06629 0.0
H394 H 0.95045 0.5392 0.98909 0.0
S395 S 0.89562 0.42842 0.01807 0.0
N396 N 0.87247 0.45263 0.06257 0.0
N397 N 0.92937 0.44479 0.97817 0.0
C398 C 0.92292 0.47137 0.00084 0.0
C399 C 0.89212 0.47558 0.04693 0.0
C400 C 0.09599 0.08494 0.20563 0.0
C401 C 0.09481 0.07144 0.29498 0.0
C402 C 0.08558 0.07119 0.13474 0.0
C403 C 0.07395 0.04328 0.14991 0.0
H404 H 0.10382 0.10676 0.1906 0.0
H405 H 0.08616 0.08269 0.0676 0.0
S406 S 0.06884 -0.00264 0.36848 0.0
N407 N 0.08316 0.02769 0.39311 0.0
N408 N 0.06373 0.00179 0.25886 0.0
C409 C 0.07411 0.02892 0.23751 0.0
C410 C 0.08449 0.04303 0.31029 0.0
C411 C 0.40652 0.02652 0.05347 0.0
C412 C 0.40399 0.00558 0.12815 0.0
C413 C 0.43203 0.02674 0.98518 0.0
C414 C 0.45567 0.00574 0.9881 0.0
H415 H 0.38874 0.04298 0.04773 0.0
H416 H 0.43266 0.04301 0.92822 0.0
S417 S 0.46074 0.94663 0.16974 0.0
N418 N 0.42806 0.96372 0.20201 0.0
N419 N 0.47549 0.96389 0.07258 0.0
C420 C 0.45365 0.98485 0.06263 0.0
C421 C 0.42796 0.98484 0.13291 0.0
C422 C 0.42133 0.40836 0.09497 0.0
C423 C 0.44324 0.39012 0.1367 0.0
C424 C 0.43167 0.43011 0.02714 0.0
C425 C 0.46435 0.43472 -8e-05 0.0
H426 H 0.39598 0.40564 0.11421 0.0
H427 H 0.41391 0.4433 -0.00427 0.0
S428 S 0.53146 0.39403 0.09467 0.0
N429 N 0.49904 0.37887 0.14953 0.0
N430 N 0.51865 0.41973 0.02412 0.0
C431 C 0.48651 0.41692 0.04316 0.0
C432 C 0.47592 0.39462 0.11091 0.0
C433 C 0.11992 0.46664 0.10987 0.0
C434 C 0.14565 0.48591 0.09784 0.0
C435 C 0.09451 0.46993 0.05552 0.0
C436 C 0.09351 0.49294 0.98838 0.0
H437 H 0.11961 0.44854 0.16068 0.0
H438 H 0.07559 0.45421 0.06585 0.0
S439 S 0.15442 0.54979 0.93081 0.0
N440 N 0.1683 0.5291 0.01427 0.0
N441 N 0.12019 0.5355 0.91302 0.0
C442 C 0.11868 0.51273 0.97675 0.0
C443 C 0.14488 0.50913 0.03111 0.0
C444 C 0.9391 0.86679 0.42287 0.0
C445 C 0.95692 0.85428 0.35276 0.0
C446 C 0.94518 0.89458 0.44038 0.0
C447 C 0.96984 0.91068 0.38935 0.0
H448 H 0.92145 0.85443 0.46815 0.0
H449 H 0.93239 0.90254 0.49942 0.0
S450 S 0.0216 0.88891 0.19222 0.0
N451 N -0.00131 0.86098 0.2268 0.0
N452 N 0.01022 0.91329 0.26035 0.0
C453 C 0.9864 0.89919 0.31478 0.0
C454 C 0.97997 0.87091 0.29625 0.0
C455 C 0.60095 0.0127 0.35844 0.0
C456 C 0.63088 -6e-05 0.36824 0.0
C457 C 0.57661 0.01054 0.43012 0.0
C458 C 0.58092 -0.0052 0.51319 0.0
H459 H 0.5965 0.02522 0.29574 0.0
H460 H 0.55438 0.02153 0.42088 0.0
S461 S 0.65409 0.9569 0.57453 0.0
N462 N 0.66319 0.97087 0.46855 0.0
N463 N 0.61686 0.96615 0.60232 0.0
C464 C 0.61024 0.98129 0.52362 0.0
C465 C 0.63539 0.98403 0.45136 0.0
C466 C 0.52521 0.58152 0.42775 0.0
C467 C 0.55561 0.58022 0.38006 0.0
C468 C 0.51707 0.56434 0.50863 0.0
C469 C 0.53895 0.54509 0.54589 0.0
H470 H 0.50721 0.5957 0.40202 0.0
H471 H 0.49315 0.56607 0.54167 0.0
S472 S 0.62217 0.53398 0.45 0.0
N473 N 0.60817 0.55857 0.37751 0.0
N474 N 0.59273 0.5262 0.53044 0.0
C475 C 0.56975 0.54396 0.50047 0.0
C476 C 0.57809 0.56151 0.41739 0.0
C477 C 0.93524 0.4673 0.49514 0.0
C478 C 0.92891 0.49056 0.43314 0.0
C479 C 0.95391 0.47024 0.56657 0.0
C480 C 0.96708 0.49658 0.57942 0.0
H481 H 0.92561 0.44653 0.489 0.0
H482 H 0.95796 0.45156 0.61225 0.0
S483 S 0.9586 0.56411 0.43465 0.0
N484 N 0.93788 0.54092 0.38818 0.0
N485 N 0.97303 0.54636 0.52311 0.0
C486 C 0.96107 0.52009 0.51799 0.0
C487 C 0.94204 0.51709 0.44468 0.0
loop_
_geom_bond_atom_site_label_1
_geom_bond_atom_site_label_2
_geom_bond_distance
_geom_bond_site_symmetry_2
_ccdc_geom_bond_type
O0 Cd1 2.300 . S
O0 C7 1.275 . S
Cd1 O0 2.300 . S
Cd1 O9 2.381 . S
Cd1 O10 2.378 . S
O2 Cd3 2.385 . S
O2 C7 1.255 . S
Cd3 O2 2.385 . S
Cd3 O4 2.317 . S
O4 Cd3 2.317 . S
O4 C5 1.232 . S
C5 O4 1.232 . S
C5 O6 1.218 . S
O6 C5 1.218 . S
C7 O0 1.275 . S
C7 O2 1.255 . S
C8 O9 1.258 . S
C8 O10 1.256 . S
O9 Cd1 2.381 . S
O9 C8 1.258 . S
O10 Cd1 2.378 . S
O10 C8 1.256 . S
O11 Cd12 2.300 . S
O11 C18 1.275 . S
Cd12 O11 2.300 . S
Cd12 O20 2.381 . S
Cd12 O21 2.378 . S
O13 Cd14 2.388 1_556 S
O13 C18 1.252 1_455 S
Cd14 O13 2.388 1_554 S
Cd14 O15 2.317 1_455 S
O15 Cd14 2.317 1_655 S
O15 C16 1.232 . S
C16 O15 1.232 . S
C16 O17 1.211 1_655 S
O17 C16 1.211 1_455 S
C18 O11 1.275 . S
C18 O13 1.252 1_655 S
C19 O20 1.258 . S
C19 O21 1.256 . S
O20 Cd12 2.381 . S
O20 C19 1.258 . S
O21 Cd12 2.378 . S
O21 C19 1.256 . S
O22 Cd23 2.300 1_566 S
O22 C29 1.275 1_565 S
Cd23 O22 2.300 1_544 S
Cd23 O31 2.381 1_544 S
Cd23 O32 2.378 . S
O24 Cd25 2.385 . S
O24 C29 1.255 1_554 S
Cd25 O24 2.385 . S
Cd25 O26 2.317 . S
O26 Cd25 2.317 . S
O26 C27 1.232 . S
C27 O26 1.232 . S
C27 O28 1.218 . S
O28 C27 1.218 . S
C29 O22 1.275 1_545 S
C29 O24 1.255 1_556 S
C30 O31 1.254 1_544 S
C30 O32 1.261 . S
O31 Cd23 2.381 1_566 S
O31 C30 1.254 1_566 S
O32 Cd23 2.378 . S
O32 C30 1.261 . S
O33 Cd34 2.300 1_556 S
O33 C40 1.275 1_556 S
Cd34 O33 2.300 1_554 S
Cd34 O42 2.381 1_554 S
Cd34 O43 2.378 . S
O35 Cd36 2.385 . S
O35 C40 1.255 . S
Cd36 O35 2.385 . S
Cd36 O37 2.317 . S
O37 Cd36 2.317 . S
O37 C38 1.232 . S
C38 O37 1.232 . S
C38 O39 1.218 . S
O39 C38 1.218 . S
C40 O33 1.275 1_554 S
C40 O35 1.255 . S
C41 O42 1.258 1_554 S
C41 O43 1.256 . S
O42 Cd34 2.381 1_556 S
O42 C41 1.258 1_556 S
O43 Cd34 2.378 . S
O43 C41 1.256 . S
O44 Cd45 2.300 . S
O44 C51 1.275 . S
Cd45 O44 2.300 . S
Cd45 O53 2.381 . S
Cd45 O54 2.378 . S
O46 Cd47 2.385 . S
O46 C51 1.255 . S
Cd47 O46 2.385 . S
Cd47 O48 2.317 . S
O48 Cd47 2.317 . S
O48 C49 1.232 . S
C49 O48 1.232 . S
C49 O50 1.218 . S
O50 C49 1.218 . S
C51 O44 1.275 . S
C51 O46 1.255 . S
C52 O53 1.258 . S
C52 O54 1.256 . S
O53 Cd45 2.381 . S
O53 C52 1.258 . S
O54 Cd45 2.378 . S
O54 C52 1.256 . S
O55 Cd56 2.300 . S
O55 C62 1.275 . S
Cd56 O55 2.300 . S
Cd56 O64 2.381 . S
Cd56 O65 2.378 . S
O57 Cd58 2.385 . S
O57 C62 1.255 . S
Cd58 O57 2.385 . S
Cd58 O59 2.317 . S
O59 Cd58 2.317 . S
O59 C60 1.232 . S
C60 O59 1.232 . S
C60 O61 1.218 . S
O61 C60 1.218 . S
C62 O55 1.275 . S
C62 O57 1.255 . S
C63 O64 1.258 . S
C63 O65 1.256 . S
O64 Cd56 2.381 . S
O64 C63 1.258 . S
O65 Cd56 2.378 . S
O65 C63 1.256 . S
O66 Cd67 2.300 1_565 S
O66 C73 1.275 1_565 S
Cd67 O66 2.300 1_545 S
Cd67 O75 2.381 1_545 S
Cd67 O76 2.378 . S
O68 Cd69 2.385 . S
O68 C73 1.255 . S
Cd69 O68 2.385 . S
Cd69 O70 2.317 . S
O70 Cd69 2.317 . S
O70 C71 1.232 . S
C71 O70 1.232 . S
C71 O72 1.218 . S
O72 C71 1.218 . S
C73 O66 1.275 1_545 S
C73 O68 1.255 . S
C74 O75 1.258 1_545 S
C74 O76 1.256 . S
O75 Cd67 2.381 1_565 S
O75 C74 1.258 1_565 S
O76 Cd67 2.378 . S
O76 C74 1.256 . S
O77 Cd78 2.300 . S
O77 C84 1.275 . S
Cd78 O77 2.300 . S
Cd78 O86 2.381 . S
Cd78 O87 2.378 . S
O79 Cd80 2.385 . S
O79 C84 1.255 . S
Cd80 O79 2.385 . S
Cd80 O81 2.317 . S
O81 Cd80 2.317 . S
O81 C82 1.232 . S
C82 O81 1.232 . S
C82 O83 1.218 . S
O83 C82 1.218 . S
C84 O77 1.275 . S
C84 O79 1.255 . S
C85 O86 1.258 . S
C85 O87 1.256 . S
O86 Cd78 2.381 . S
O86 C85 1.258 . S
O87 Cd78 2.378 . S
O87 C85 1.256 . S
C88 O104 1.251 . S
C88 O106 1.254 . S
N89 C90 1.333 . S
N89 C94 1.307 1_455 S
N89 Zn95 2.020 . S
C90 N89 1.333 . S
C90 C91 1.379 . S
C90 H108 0.952 . S
C91 C90 1.379 . S
C91 C92 1.390 1_455 S
C91 H118 0.949 . S
C92 C91 1.390 1_655 S
C92 C93 1.357 . S
C93 C92 1.357 . S
C93 C94 1.370 . S
C93 H119 0.950 . S
C94 N89 1.307 1_655 S
C94 C93 1.370 . S
C94 H112 0.948 1_565 S
Zn95 N89 2.020 . S
Zn95 O104 2.039 . S
Zn95 O110 2.034 . S
Zn95 O114 2.025 1_565 S
Zn95 O116 2.024 1_455 S
C96 O115 1.246 . S
C96 O116 1.249 1_545 S
N97 C98 1.307 1_556 S
N97 C99 1.333 . S
N97 Zn103 2.020 . S
C98 N97 1.307 1_554 S
C98 C102 1.370 . S
C98 H109 0.948 1_545 S
C99 N97 1.333 . S
C99 C100 1.379 1_556 S
C99 H107 0.952 . S
C100 C99 1.379 1_554 S
C100 C101 1.390 . S
C100 H120 0.949 . S
C101 C100 1.390 . S
C101 C102 1.357 . S
C102 C98 1.370 . S
C102 C101 1.357 . S
C102 H121 0.950 . S
Zn103 N97 2.020 . S
Zn103 O106 2.025 1_545 S
Zn103 O111 2.024 . S
Zn103 O113 2.039 . S
Zn103 O115 2.034 1_455 S
O104 C88 1.251 . S
O104 Zn95 2.039 . S
C105 O110 1.246 . S
C105 O111 1.249 1_565 S
O106 C88 1.254 . S
O106 Zn103 2.025 1_565 S
H107 C99 0.952 . S
H108 C90 0.952 . S
H109 C98 0.948 1_565 S
O110 Zn95 2.034 . S
O110 C105 1.246 . S
O111 Zn103 2.024 . S
O111 C105 1.249 1_545 S
H112 C94 0.948 1_545 S
O113 Zn103 2.039 . S
O113 C117 1.251 . S
O114 Zn95 2.025 1_545 S
O114 C117 1.254 . S
O115 C96 1.246 . S
O115 Zn103 2.034 1_655 S
O116 Zn95 2.024 1_655 S
O116 C96 1.249 1_565 S
C117 O113 1.251 . S
C117 O114 1.254 . S
H118 C91 0.949 . S
H119 C93 0.950 . S
H120 C100 0.949 . S
H121 C102 0.950 . S
C122 O138 1.251 1_565 S
C122 O140 1.254 . S
N123 C124 1.333 . S
N123 C128 1.307 . S
N123 Zn129 2.020 . S
C124 N123 1.333 . S
C124 C125 1.379 . S
C124 H142 0.952 . S
C125 C124 1.379 . S
C125 C126 1.390 . S
C125 H152 0.949 . S
C126 C125 1.390 . S
C126 C127 1.357 . S
C127 C126 1.357 . S
C127 C128 1.370 . S
C127 H153 0.950 . S
C128 N123 1.307 . S
C128 C127 1.370 . S
C128 H146 0.948 . S
Zn129 N123 2.020 . S
Zn129 O138 2.039 . S
Zn129 O144 2.034 . S
Zn129 O148 2.025 . S
Zn129 O150 2.024 . S
C130 O149 1.246 1_545 S
C130 O150 1.249 . S
N131 C132 1.307 . S
N131 C133 1.333 . S
N131 Zn137 2.020 . S
C132 N131 1.307 . S
C132 C136 1.370 . S
C132 H143 0.948 . S
C133 N131 1.333 . S
C133 C134 1.379 . S
C133 H141 0.952 . S
C134 C133 1.379 . S
C134 C135 1.390 . S
C134 H154 0.949 . S
C135 C134 1.390 . S
C135 C136 1.357 . S
C136 C132 1.370 . S
C136 C135 1.357 . S
C136 H155 0.950 . S
Zn137 N131 2.020 . S
Zn137 O140 2.025 . S
Zn137 O145 2.024 . S
Zn137 O147 2.039 . S
Zn137 O149 2.034 . S
O138 C122 1.251 1_545 S
O138 Zn129 2.039 . S
C139 O144 1.246 1_565 S
C139 O145 1.249 . S
O140 C122 1.254 . S
O140 Zn137 2.025 . S
H141 C133 0.952 . S
H142 C124 0.952 . S
H143 C132 0.948 . S
O144 Zn129 2.034 . S
O144 C139 1.246 1_545 S
O145 Zn137 2.024 . S
O145 C139 1.249 . S
H146 C128 0.948 . S
O147 Zn137 2.039 . S
O147 C151 1.251 1_565 S
O148 Zn129 2.025 . S
O148 C151 1.254 . S
O149 C130 1.246 1_565 S
O149 Zn137 2.034 . S
O150 Zn129 2.024 . S
O150 C130 1.249 . S
C151 O147 1.251 1_545 S
C151 O148 1.254 . S
H152 C125 0.949 . S
H153 C127 0.950 . S
H154 C134 0.949 . S
H155 C136 0.950 . S
C156 O172 1.251 . S
C156 O174 1.254 . S
N157 C158 1.333 . S
N157 C162 1.307 . S
N157 Zn163 2.020 . S
C158 N157 1.333 . S
C158 C159 1.379 . S
C158 H176 0.952 . S
C159 C158 1.379 . S
C159 C160 1.390 . S
C159 H186 0.949 . S
C160 C159 1.390 . S
C160 C161 1.357 . S
C161 C160 1.357 . S
C161 C162 1.370 . S
C161 H187 0.950 . S
C162 N157 1.307 . S
C162 C161 1.370 . S
C162 H180 0.948 . S
Zn163 N157 2.020 . S
Zn163 O172 2.039 . S
Zn163 O178 2.034 . S
Zn163 O182 2.025 . S
Zn163 O184 2.024 . S
C164 O183 1.246 . S
C164 O184 1.249 . S
N165 C166 1.307 . S
N165 C167 1.333 . S
N165 Zn171 2.020 . S
C166 N165 1.307 . S
C166 C170 1.370 . S
C166 H177 0.948 . S
C167 N165 1.333 . S
C167 C168 1.379 . S
C167 H175 0.952 . S
C168 C167 1.379 . S
C168 C169 1.390 . S
C168 H188 0.949 . S
C169 C168 1.390 . S
C169 C170 1.357 . S
C170 C166 1.370 . S
C170 C169 1.357 . S
C170 H189 0.950 . S
Zn171 N165 2.020 . S
Zn171 O174 2.025 . S
Zn171 O179 2.024 . S
Zn171 O181 2.039 . S
Zn171 O183 2.034 . S
O172 C156 1.251 . S
O172 Zn163 2.039 . S
C173 O178 1.246 . S
C173 O179 1.249 . S
O174 C156 1.254 . S
O174 Zn171 2.025 . S
H175 C167 0.952 . S
H176 C158 0.952 . S
H177 C166 0.948 . S
O178 Zn163 2.034 . S
O178 C173 1.246 . S
O179 Zn171 2.024 . S
O179 C173 1.249 . S
H180 C162 0.948 . S
O181 Zn171 2.039 . S
O181 C185 1.251 . S
O182 Zn163 2.025 . S
O182 C185 1.254 . S
O183 C164 1.246 . S
O183 Zn171 2.034 . S
O184 Zn163 2.024 . S
O184 C164 1.249 . S
C185 O181 1.251 . S
C185 O182 1.254 . S
H186 C159 0.949 . S
H187 C161 0.950 . S
H188 C168 0.949 . S
H189 C170 0.950 . S
C190 O206 1.251 . S
C190 O208 1.254 . S
N191 C192 1.333 . S
N191 C196 1.307 . S
N191 Zn197 2.020 . S
C192 N191 1.333 . S
C192 C193 1.379 . S
C192 H210 0.952 . S
C193 C192 1.379 . S
C193 C194 1.390 . S
C193 H220 0.949 . S
C194 C193 1.390 . S
C194 C195 1.357 . S
C195 C194 1.357 . S
C195 C196 1.370 . S
C195 H221 0.950 . S
C196 N191 1.307 . S
C196 C195 1.370 . S
C196 H214 0.948 . S
Zn197 N191 2.020 . S
Zn197 O206 2.039 . S
Zn197 O212 2.034 1_455 S
Zn197 O216 2.025 1_455 S
Zn197 O218 2.024 . S
C198 O217 1.246 . S
C198 O218 1.249 . S
N199 C200 1.307 . S
N199 C201 1.333 . S
N199 Zn205 2.020 . S
C200 N199 1.307 . S
C200 C204 1.370 . S
C200 H211 0.948 . S
C201 N199 1.333 . S
C201 C202 1.379 1_455 S
C201 H209 0.952 1_455 S
C202 C201 1.379 1_655 S
C202 C203 1.390 1_655 S
C202 H222 0.949 . S
C203 C202 1.390 1_455 S
C203 C204 1.357 . S
C204 C200 1.370 . S
C204 C203 1.357 . S
C204 H223 0.950 . S
Zn205 N199 2.020 . S
Zn205 O208 2.025 . S
Zn205 O213 2.024 1_455 S
Zn205 O215 2.039 1_455 S
Zn205 O217 2.034 . S
O206 C190 1.251 . S
O206 Zn197 2.039 . S
C207 O212 1.246 . S
C207 O213 1.249 . S
O208 C190 1.254 . S
O208 Zn205 2.025 . S
H209 C201 0.952 1_655 S
H210 C192 0.952 . S
H211 C200 0.948 . S
O212 Zn197 2.034 1_655 S
O212 C207 1.246 . S
O213 Zn205 2.024 1_655 S
O213 C207 1.249 . S
H214 C196 0.948 . S
O215 Zn205 2.039 1_655 S
O215 C219 1.251 . S
O216 Zn197 2.025 1_655 S
O216 C219 1.254 . S
O217 C198 1.246 . S
O217 Zn205 2.034 . S
O218 Zn197 2.024 . S
O218 C198 1.249 . S
C219 O215 1.251 . S
C219 O216 1.254 . S
H220 C193 0.949 . S
H221 C195 0.950 . S
H222 C202 0.949 . S
H223 C204 0.950 . S
C224 C225 1.369 . S
C224 C226 1.419 . S
C224 H228 0.930 . S
C225 C224 1.369 . S
C225 C234 1.429 1_565 S
C226 C224 1.419 . S
C226 C227 1.363 . S
C226 H229 0.929 . S
C227 C226 1.363 . S
C227 C233 1.428 1_565 S
H228 C224 0.930 . S
H229 C226 0.929 . S
S230 N231 1.613 . S
S230 N232 1.610 . S
N231 S230 1.613 . S
N231 C234 1.350 . S
N232 S230 1.610 . S
N232 C233 1.351 . S
C233 C227 1.428 1_545 S
C233 N232 1.351 . S
C233 C234 1.434 . S
C234 C225 1.429 1_545 S
C234 N231 1.350 . S
C234 C233 1.434 . S
C235 C236 1.369 . S
C235 C237 1.419 . S
C235 H239 0.930 . S
C236 C235 1.369 . S
C236 C245 1.429 . S
C237 C235 1.419 . S
C237 C238 1.363 . S
C237 H240 0.929 . S
C238 C237 1.363 . S
C238 C244 1.428 . S
H239 C235 0.930 . S
H240 C237 0.929 . S
S241 N242 1.613 . S
S241 N243 1.610 . S
N242 S241 1.613 . S
N242 C245 1.350 . S
N243 S241 1.610 . S
N243 C244 1.351 . S
C244 C238 1.428 . S
C244 N243 1.351 . S
C244 C245 1.434 . S
C245 C236 1.429 . S
C245 N242 1.350 . S
C245 C244 1.434 . S
C246 C247 1.369 . S
C246 C248 1.419 . S
C246 H250 0.930 . S
C247 C246 1.369 . S
C247 C256 1.429 . S
C248 C246 1.419 . S
C248 C249 1.363 . S
C248 H251 0.929 . S
C249 C248 1.363 . S
C249 C255 1.428 . S
H250 C246 0.930 . S
H251 C248 0.929 . S
S252 N253 1.613 . S
S252 N254 1.610 . S
N253 S252 1.613 . S
N253 C256 1.350 . S
N254 S252 1.610 . S
N254 C255 1.351 . S
C255 C249 1.428 . S
C255 N254 1.351 . S
C255 C256 1.434 . S
C256 C247 1.429 . S
C256 N253 1.350 . S
C256 C255 1.434 . S
C257 C258 1.369 . S
C257 C259 1.419 . S
C257 H261 0.930 . S
C258 C257 1.369 . S
C258 C267 1.429 . S
C259 C257 1.419 . S
C259 C260 1.363 . S
C259 H262 0.929 . S
C260 C259 1.363 . S
C260 C266 1.428 . S
H261 C257 0.930 . S
H262 C259 0.929 . S
S263 N264 1.613 . S
S263 N265 1.610 . S
N264 S263 1.613 . S
N264 C267 1.350 . S
N265 S263 1.610 . S
N265 C266 1.351 . S
C266 C260 1.428 . S
C266 N265 1.351 . S
C266 C267 1.434 . S
C267 C258 1.429 . S
C267 N264 1.350 . S
C267 C266 1.434 . S
C268 C269 1.369 1_565 S
C268 C270 1.419 . S
C268 H272 0.930 . S
C269 C268 1.369 1_545 S
C269 C278 1.429 . S
C270 C268 1.419 . S
C270 C271 1.363 1_565 S
C270 H273 0.929 . S
C271 C270 1.363 1_545 S
C271 C277 1.428 . S
H272 C268 0.930 . S
H273 C270 0.929 . S
S274 N275 1.613 . S
S274 N276 1.610 . S
N275 S274 1.613 . S
N275 C278 1.350 . S
N276 S274 1.610 . S
N276 C277 1.351 . S
C277 C271 1.428 . S
C277 N276 1.351 . S
C277 C278 1.434 . S
C278 C269 1.429 . S
C278 N275 1.350 . S
C278 C277 1.434 . S
C279 C280 1.369 . S
C279 C281 1.419 . S
C279 H283 0.930 . S
C280 C279 1.369 . S
C280 C289 1.429 1_556 S
C281 C279 1.419 . S
C281 C282 1.363 . S
C281 H284 0.929 . S
C282 C281 1.363 . S
C282 C288 1.428 . S
H283 C279 0.930 . S
H284 C281 0.929 . S
S285 N286 1.613 . S
S285 N287 1.610 . S
N286 S285 1.613 . S
N286 C289 1.350 . S
N287 S285 1.610 . S
N287 C288 1.351 1_554 S
C288 C282 1.428 . S
C288 N287 1.351 1_556 S
C288 C289 1.434 1_556 S
C289 C280 1.429 1_554 S
C289 N286 1.350 . S
C289 C288 1.434 1_554 S
C290 C291 1.369 1_556 S
C290 C292 1.419 . S
C290 H294 0.930 . S
C291 C290 1.369 1_554 S
C291 C300 1.429 . S
C292 C290 1.419 . S
C292 C293 1.363 . S
C292 H295 0.929 . S
C293 C292 1.363 . S
C293 C299 1.428 . S
H294 C290 0.930 . S
H295 C292 0.929 . S
S296 N297 1.613 . S
S296 N298 1.610 . S
N297 S296 1.613 . S
N297 C300 1.350 . S
N298 S296 1.610 . S
N298 C299 1.351 1_554 S
C299 C293 1.428 . S
C299 N298 1.351 1_556 S
C299 C300 1.434 1_556 S
C300 C291 1.429 . S
C300 N297 1.350 . S
C300 C299 1.434 1_554 S
C301 C302 1.369 . S
C301 C303 1.419 . S
C301 H305 0.930 . S
C302 C301 1.369 . S
C302 C311 1.429 1_655 S
C303 C301 1.419 . S
C303 C304 1.351 1_655 S
C303 H306 0.929 . S
C304 C303 1.351 1_455 S
C304 C310 1.437 . S
H305 C301 0.930 . S
H306 C303 0.929 . S
S307 N308 1.613 . S
S307 N309 1.610 . S
N308 S307 1.613 . S
N308 C311 1.350 . S
N309 S307 1.610 . S
N309 C310 1.351 . S
C310 C304 1.437 . S
C310 N309 1.351 . S
C310 C311 1.434 . S
C311 C302 1.429 1_455 S
C311 N308 1.350 . S
C311 C310 1.434 . S
C312 C313 1.369 . S
C312 C314 1.419 . S
C312 H316 0.930 . S
C313 C312 1.369 . S
C313 C322 1.429 . S
C314 C312 1.419 . S
C314 C315 1.363 . S
C314 H317 0.929 . S
C315 C314 1.363 . S
C315 C321 1.428 . S
H316 C312 0.930 . S
H317 C314 0.929 . S
S318 N319 1.613 . S
S318 N320 1.610 . S
N319 S318 1.613 . S
N319 C322 1.350 . S
N320 S318 1.610 . S
N320 C321 1.351 . S
C321 C315 1.428 . S
C321 N320 1.351 . S
C321 C322 1.434 . S
C322 C313 1.429 . S
C322 N319 1.350 . S
C322 C321 1.434 . S
C323 C324 1.367 1_545 S
C323 C325 1.419 . S
C323 H327 0.930 . S
C324 C323 1.367 1_565 S
C324 C333 1.432 . S
C325 C323 1.419 . S
C325 C326 1.363 1_545 S
C325 H328 0.929 . S
C326 C325 1.363 1_565 S
C326 C332 1.428 . S
H327 C323 0.930 . S
H328 C325 0.929 . S
S329 N330 1.613 . S
S329 N331 1.610 . S
N330 S329 1.613 . S
N330 C333 1.350 . S
N331 S329 1.610 . S
N331 C332 1.351 . S
C332 C326 1.428 . S
C332 N331 1.351 . S
C332 C333 1.434 . S
C333 C324 1.432 . S
C333 N330 1.350 . S
C333 C332 1.434 . S
C334 C335 1.369 . S
C334 C336 1.419 . S
C334 H338 0.930 . S
C335 C334 1.369 . S
C335 C344 1.429 . S
C336 C334 1.419 . S
C336 C337 1.363 . S
C336 H339 0.929 . S
C337 C336 1.363 . S
C337 C343 1.428 . S
H338 C334 0.930 . S
H339 C336 0.929 . S
S340 N341 1.613 . S
S340 N342 1.610 . S
N341 S340 1.613 . S
N341 C344 1.350 . S
N342 S340 1.610 . S
N342 C343 1.351 . S
C343 C337 1.428 . S
C343 N342 1.351 . S
C343 C344 1.434 . S
C344 C335 1.429 . S
C344 N341 1.350 . S
C344 C343 1.434 . S
C345 C346 1.369 . S
C345 C347 1.419 . S
C345 H349 0.930 . S
C346 C345 1.369 . S
C346 C355 1.429 . S
C347 C345 1.419 . S
C347 C348 1.363 . S
C347 H350 0.929 . S
C348 C347 1.363 . S
C348 C354 1.428 . S
H349 C345 0.930 . S
H350 C347 0.929 . S
S351 N352 1.613 . S
S351 N353 1.610 . S
N352 S351 1.613 . S
N352 C355 1.350 . S
N353 S351 1.610 . S
N353 C354 1.351 . S
C354 C348 1.428 . S
C354 N353 1.351 . S
C354 C355 1.434 . S
C355 C346 1.429 . S
C355 N352 1.350 . S
C355 C354 1.434 . S
C356 C357 1.369 . S
C356 C358 1.419 1_655 S
C356 H360 0.930 1_556 S
C357 C356 1.369 . S
C357 C366 1.429 . S
C358 C356 1.419 1_455 S
C358 C359 1.363 . S
C358 H361 0.929 1_556 S
C359 C358 1.363 . S
C359 C365 1.428 . S
H360 C356 0.930 1_554 S
H361 C358 0.929 1_554 S
S362 N363 1.613 . S
S362 N364 1.610 1_655 S
N363 S362 1.613 . S
N363 C366 1.350 . S
N364 S362 1.610 1_455 S
N364 C365 1.351 . S
C365 C359 1.428 . S
C365 N364 1.351 . S
C365 C366 1.434 1_455 S
C366 C357 1.429 . S
C366 N363 1.350 . S
C366 C365 1.434 1_655 S
C367 C368 1.387 . S
C367 C369 1.419 . S
C367 H371 0.930 . S
C368 C367 1.387 . S
C368 C377 1.411 1_545 S
C369 C367 1.419 . S
C369 C370 1.363 . S
C369 H372 0.929 . S
C370 C369 1.363 . S
C370 C376 1.428 1_545 S
H371 C367 0.930 . S
H372 C369 0.929 . S
S373 N374 1.613 . S
S373 N375 1.610 . S
N374 S373 1.613 . S
N374 C377 1.350 . S
N375 S373 1.610 . S
N375 C376 1.351 . S
C376 C370 1.428 1_565 S
C376 N375 1.351 . S
C376 C377 1.434 . S
C377 C368 1.411 1_565 S
C377 N374 1.350 . S
C377 C376 1.434 . S
C378 C379 1.369 . S
C378 C380 1.419 . S
C378 H382 0.930 . S
C379 C378 1.369 . S
C379 C388 1.429 1_556 S
C380 C378 1.419 . S
C380 C381 1.363 . S
C380 H383 0.929 . S
C381 C380 1.363 . S
C381 C387 1.428 . S
H382 C378 0.930 . S
H383 C380 0.929 . S
S384 N385 1.613 . S
S384 N386 1.610 . S
N385 S384 1.613 . S
N385 C388 1.350 . S
N386 S384 1.610 . S
N386 C387 1.351 1_554 S
C387 C381 1.428 . S
C387 N386 1.351 1_556 S
C387 C388 1.434 1_556 S
C388 C379 1.429 1_554 S
C388 N385 1.350 . S
C388 C387 1.434 1_554 S
C389 C390 1.369 . S
C389 C391 1.419 1_554 S
C389 H393 0.930 . S
C390 C389 1.369 . S
C390 C399 1.429 1_554 S
C391 C389 1.419 1_556 S
C391 C392 1.363 . S
C391 H394 0.929 1_556 S
C392 C391 1.363 . S
C392 C398 1.428 . S
H393 C389 0.930 . S
H394 C391 0.929 1_554 S
S395 N396 1.613 . S
S395 N397 1.610 . S
N396 S395 1.613 . S
N396 C399 1.350 . S
N397 S395 1.610 . S
N397 C398 1.351 . S
C398 C392 1.428 . S
C398 N397 1.351 . S
C398 C399 1.434 . S
C399 C390 1.429 1_556 S
C399 N396 1.350 . S
C399 C398 1.434 . S
C400 C401 1.369 . S
C400 C402 1.419 . S
C400 H404 0.930 . S
C401 C400 1.369 . S
C401 C410 1.429 . S
C402 C400 1.419 . S
C402 C403 1.363 . S
C402 H405 0.929 . S
C403 C402 1.363 . S
C403 C409 1.428 . S
H404 C400 0.930 . S
H405 C402 0.929 . S
S406 N407 1.613 . S
S406 N408 1.610 . S
N407 S406 1.613 . S
N407 C410 1.350 . S
N408 S406 1.610 . S
N408 C409 1.351 . S
C409 C403 1.428 . S
C409 N408 1.351 . S
C409 C410 1.434 . S
C410 C401 1.429 . S
C410 N407 1.350 . S
C410 C409 1.434 . S
C411 C412 1.371 . S
C411 C413 1.419 1_554 S
C411 H415 0.930 . S
C412 C411 1.371 . S
C412 C421 1.427 1_545 S
C413 C411 1.419 1_556 S
C413 C414 1.363 . S
C413 H416 0.929 . S
C414 C413 1.363 . S
C414 C420 1.428 1_546 S
H415 C411 0.930 . S
H416 C413 0.929 . S
S417 N418 1.613 . S
S417 N419 1.610 . S
N418 S417 1.613 . S
N418 C421 1.350 . S
N419 S417 1.610 . S
N419 C420 1.352 . S
C420 C414 1.428 1_564 S
C420 N419 1.352 . S
C420 C421 1.433 . S
C421 C412 1.427 1_565 S
C421 N418 1.350 . S
C421 C420 1.433 . S
C422 C423 1.369 . S
C422 C424 1.419 1_554 S
C422 H426 0.930 . S
C423 C422 1.369 . S
C423 C432 1.429 . S
C424 C422 1.419 1_556 S
C424 C425 1.363 . S
C424 H427 0.929 . S
C425 C424 1.363 . S
C425 C431 1.428 1_556 S
H426 C422 0.930 . S
H427 C424 0.929 . S
S428 N429 1.613 . S
S428 N430 1.610 . S
N429 S428 1.613 . S
N429 C432 1.350 . S
N430 S428 1.610 . S
N430 C431 1.351 . S
C431 C425 1.428 1_554 S
C431 N430 1.351 . S
C431 C432 1.434 . S
C432 C423 1.429 . S
C432 N429 1.350 . S
C432 C431 1.434 . S
C433 C434 1.369 . S
C433 C435 1.419 . S
C433 H437 0.930 . S
C434 C433 1.369 . S
C434 C443 1.429 1_554 S
C435 C433 1.419 . S
C435 C436 1.363 1_554 S
C435 H438 0.929 . S
C436 C435 1.363 1_556 S
C436 C442 1.428 . S
H437 C433 0.930 . S
H438 C435 0.929 . S
S439 N440 1.613 . S
S439 N441 1.610 . S
N440 S439 1.613 . S
N440 C443 1.350 . S
N441 S439 1.610 . S
N441 C442 1.351 . S
C442 C436 1.428 . S
C442 N441 1.351 . S
C442 C443 1.434 . S
C443 C434 1.429 1_556 S
C443 N440 1.350 . S
C443 C442 1.434 . S
C444 C445 1.369 . S
C444 C446 1.419 . S
C444 H448 0.930 . S
C445 C444 1.369 . S
C445 C454 1.429 . S
C446 C444 1.419 . S
C446 C447 1.363 . S
C446 H449 0.929 . S
C447 C446 1.363 . S
C447 C453 1.428 1_655 S
H448 C444 0.930 . S
H449 C446 0.929 . S
S450 N451 1.613 . S
S450 N452 1.610 . S
N451 S450 1.613 . S
N451 C454 1.350 1_455 S
N452 S450 1.610 . S
N452 C453 1.351 . S
C453 C447 1.428 1_455 S
C453 N452 1.351 . S
C453 C454 1.434 1_455 S
C454 C445 1.429 . S
C454 N451 1.350 1_655 S
C454 C453 1.434 1_655 S
C455 C456 1.365 1_545 S
C455 C457 1.419 . S
C455 H459 0.930 . S
C456 C455 1.365 1_565 S
C456 C465 1.433 . S
C457 C455 1.419 . S
C457 C458 1.363 1_545 S
C457 H460 0.929 . S
C458 C457 1.363 1_565 S
C458 C464 1.428 . S
H459 C455 0.930 . S
H460 C457 0.929 . S
S461 N462 1.613 . S
S461 N463 1.610 . S
N462 S461 1.613 . S
N462 C465 1.350 . S
N463 S461 1.610 . S
N463 C464 1.351 . S
C464 C458 1.428 . S
C464 N463 1.351 . S
C464 C465 1.434 . S
C465 C456 1.433 . S
C465 N462 1.350 . S
C465 C464 1.434 . S
C466 C467 1.369 . S
C466 C468 1.419 . S
C466 H470 0.930 . S
C467 C466 1.369 . S
C467 C476 1.429 . S
C468 C466 1.419 . S
C468 C469 1.363 . S
C468 H471 0.929 . S
C469 C468 1.363 . S
C469 C475 1.428 . S
H470 C466 0.930 . S
H471 C468 0.929 . S
S472 N473 1.613 . S
S472 N474 1.610 . S
N473 S472 1.613 . S
N473 C476 1.350 . S
N474 S472 1.610 . S
N474 C475 1.351 . S
C475 C469 1.428 . S
C475 N474 1.351 . S
C475 C476 1.434 . S
C476 C467 1.429 . S
C476 N473 1.350 . S
C476 C475 1.434 . S
C477 C478 1.369 . S
C477 C479 1.419 . S
C477 H481 0.930 . S
C478 C477 1.369 . S
C478 C487 1.429 . S
C479 C477 1.419 . S
C479 C480 1.363 . S
C479 H482 0.929 . S
C480 C479 1.363 . S
C480 C486 1.428 . S
H481 C477 0.930 . S
H482 C479 0.929 . S
S483 N484 1.613 . S
S483 N485 1.610 . S
N484 S483 1.613 . S
N484 C487 1.350 . S
N485 S483 1.610 . S
N485 C486 1.351 . S
C486 C480 1.428 . S
C486 N485 1.351 . S
C486 C487 1.434 . S
C487 C478 1.429 . S
C487 N484 1.350 . S
C487 C486 1.434 . S
C225 C74 1.829 1_565 S
C227 C105 1.842 . S
C238 C126 1.527 . S
C236 C85 1.523 . S
C249 C160 1.423 . S
C247 C52 1.408 . S
C260 C194 1.572 . S
C258 C63 1.579 . S
C271 C96 1.842 . S
C269 C30 1.816 1_556 S
C280 C41 1.495 1_556 S
C282 C135 1.532 . S
C291 C8 1.406 . S
C293 C169 1.419 . S
C302 C19 1.523 . S
C304 C203 1.578 . S
C315 C117 0.930 . S
C313 C62 0.959 . S
C326 C122 1.304 . S
C324 C73 1.293 1_565 S
C337 C156 1.222 . S
C335 C84 1.239 . S
C346 C51 0.616 . S
C348 C190 0.612 . S
C357 C18 0.898 . S
C359 C88 0.937 . S
C370 C151 1.304 . S
C368 C29 1.290 . S
C381 C185 1.220 . S
C379 C40 1.173 1_556 S
C390 C7 0.624 . S
C392 C219 0.615 . S
C401 C60 1.169 . S
C403 C101 1.353 . S
C412 C71 1.470 . S
C414 C130 1.755 . S
C425 C164 1.531 . S
C423 C82 1.324 . S
C436 C198 1.595 . S
C434 C49 1.313 . S
C445 C16 1.050 . S
C447 C92 1.357 . S
C458 C139 1.755 . S
C456 C27 1.477 1_565 S
C469 C173 1.532 . S
C467 C38 1.267 . S
C478 C5 1.365 . S
C480 C207 1.595 . S
