# Generated by pormake.
# Topology ibd, (4,6)-cn, num edge types: 1
# Building blocks:
#     Node 0, Type 0, BuildingBlock: CEKHIL_clean_sbu_0, # of connection points: 4
#     Node 1, Type 0, BuildingBlock: CEKHIL_clean_sbu_0, # of connection points: 4
#     Node 2, Type 0, BuildingBlock: CEKHIL_clean_sbu_0, # of connection points: 4
#     Node 3, Type 0, BuildingBlock: CEKHIL_clean_sbu_0, # of connection points: 4
#     Node 4, Type 0, BuildingBlock: CEKHIL_clean_sbu_0, # of connection points: 4
#     Node 5, Type 0, BuildingBlock: CEKHIL_clean_sbu_0, # of connection points: 4
#     Node 6, Type 0, BuildingBlock: CEKHIL_clean_sbu_0, # of connection points: 4
#     Node 7, Type 0, BuildingBlock: CEKHIL_clean_sbu_0, # of connection points: 4
#     Node 8, Type 0, BuildingBlock: CEKHIL_clean_sbu_0, # of connection points: 4
#     Node 9, Type 0, BuildingBlock: CEKHIL_clean_sbu_0, # of connection points: 4
#     Node 10, Type 0, BuildingBlock: CEKHIL_clean_sbu_0, # of connection points: 4
#     Node 11, Type 0, BuildingBlock: CEKHIL_clean_sbu_0, # of connection points: 4
#     Node 12, Type 0, BuildingBlock: CEKHIL_clean_sbu_0, # of connection points: 4
#     Node 13, Type 0, BuildingBlock: CEKHIL_clean_sbu_0, # of connection points: 4
#     Node 14, Type 0, BuildingBlock: CEKHIL_clean_sbu_0, # of connection points: 4
#     Node 15, Type 0, BuildingBlock: CEKHIL_clean_sbu_0, # of connection points: 4
#     Node 16, Type 0, BuildingBlock: CEKHIL_clean_sbu_0, # of connection points: 4
#     Node 17, Type 0, BuildingBlock: CEKHIL_clean_sbu_0, # of connection points: 4
#     Node 18, Type 0, BuildingBlock: CEKHIL_clean_sbu_0, # of connection points: 4
#     Node 19, Type 0, BuildingBlock: CEKHIL_clean_sbu_0, # of connection points: 4
#     Node 20, Type 0, BuildingBlock: CEKHIL_clean_sbu_0, # of connection points: 4
#     Node 21, Type 0, BuildingBlock: CEKHIL_clean_sbu_0, # of connection points: 4
#     Node 22, Type 0, BuildingBlock: CEKHIL_clean_sbu_0, # of connection points: 4
#     Node 23, Type 0, BuildingBlock: CEKHIL_clean_sbu_0, # of connection points: 4
#     Node 24, Type 1, BuildingBlock: OJICUG_clean_sbu_0, # of connection points: 6
#     Node 25, Type 1, BuildingBlock: OJICUG_clean_sbu_0, # of connection points: 6
#     Node 26, Type 1, BuildingBlock: OJICUG_clean_sbu_0, # of connection points: 6
#     Node 27, Type 1, BuildingBlock: OJICUG_clean_sbu_0, # of connection points: 6
#     Node 28, Type 1, BuildingBlock: OJICUG_clean_sbu_0, # of connection points: 6
#     Node 29, Type 1, BuildingBlock: OJICUG_clean_sbu_0, # of connection points: 6
#     Node 30, Type 1, BuildingBlock: OJICUG_clean_sbu_0, # of connection points: 6
#     Node 31, Type 1, BuildingBlock: OJICUG_clean_sbu_0, # of connection points: 6
#     Node 32, Type 1, BuildingBlock: OJICUG_clean_sbu_0, # of connection points: 6
#     Node 33, Type 1, BuildingBlock: OJICUG_clean_sbu_0, # of connection points: 6
#     Node 34, Type 1, BuildingBlock: OJICUG_clean_sbu_0, # of connection points: 6
#     Node 35, Type 1, BuildingBlock: OJICUG_clean_sbu_0, # of connection points: 6
#     Node 36, Type 1, BuildingBlock: OJICUG_clean_sbu_0, # of connection points: 6
#     Node 37, Type 1, BuildingBlock: OJICUG_clean_sbu_0, # of connection points: 6
#     Node 38, Type 1, BuildingBlock: OJICUG_clean_sbu_0, # of connection points: 6
#     Node 39, Type 1, BuildingBlock: OJICUG_clean_sbu_0, # of connection points: 6
#     Edge 40, Type (0, 1), None
#     Edge 41, Type (0, 1), None
#     Edge 42, Type (0, 1), None
#     Edge 43, Type (0, 1), None
#     Edge 44, Type (0, 1), None
#     Edge 45, Type (0, 1), None
#     Edge 46, Type (0, 1), None
#     Edge 47, Type (0, 1), None
#     Edge 48, Type (0, 1), None
#     Edge 49, Type (0, 1), None
#     Edge 50, Type (0, 1), None
#     Edge 51, Type (0, 1), None
#     Edge 52, Type (0, 1), None
#     Edge 53, Type (0, 1), None
#     Edge 54, Type (0, 1), None
#     Edge 55, Type (0, 1), None
#     Edge 56, Type (0, 1), None
#     Edge 57, Type (0, 1), None
#     Edge 58, Type (0, 1), None
#     Edge 59, Type (0, 1), None
#     Edge 60, Type (0, 1), None
#     Edge 61, Type (0, 1), None
#     Edge 62, Type (0, 1), None
#     Edge 63, Type (0, 1), None
#     Edge 64, Type (0, 1), None
#     Edge 65, Type (0, 1), None
#     Edge 66, Type (0, 1), None
#     Edge 67, Type (0, 1), None
#     Edge 68, Type (0, 1), None
#     Edge 69, Type (0, 1), None
#     Edge 70, Type (0, 1), None
#     Edge 71, Type (0, 1), None
#     Edge 72, Type (0, 1), None
#     Edge 73, Type (0, 1), None
#     Edge 74, Type (0, 1), None
#     Edge 75, Type (0, 1), None
#     Edge 76, Type (0, 1), None
#     Edge 77, Type (0, 1), None
#     Edge 78, Type (0, 1), None
#     Edge 79, Type (0, 1), None
#     Edge 80, Type (0, 1), None
#     Edge 81, Type (0, 1), None
#     Edge 82, Type (0, 1), None
#     Edge 83, Type (0, 1), None
#     Edge 84, Type (0, 1), None
#     Edge 85, Type (0, 1), None
#     Edge 86, Type (0, 1), None
#     Edge 87, Type (0, 1), None
#     Edge 88, Type (0, 1), None
#     Edge 89, Type (0, 1), None
#     Edge 90, Type (0, 1), None
#     Edge 91, Type (0, 1), None
#     Edge 92, Type (0, 1), None
#     Edge 93, Type (0, 1), None
#     Edge 94, Type (0, 1), None
#     Edge 95, Type (0, 1), None
#     Edge 96, Type (0, 1), None
#     Edge 97, Type (0, 1), None
#     Edge 98, Type (0, 1), None
#     Edge 99, Type (0, 1), None
#     Edge 100, Type (0, 1), None
#     Edge 101, Type (0, 1), None
#     Edge 102, Type (0, 1), None
#     Edge 103, Type (0, 1), None
#     Edge 104, Type (0, 1), None
#     Edge 105, Type (0, 1), None
#     Edge 106, Type (0, 1), None
#     Edge 107, Type (0, 1), None
#     Edge 108, Type (0, 1), None
#     Edge 109, Type (0, 1), None
#     Edge 110, Type (0, 1), None
#     Edge 111, Type (0, 1), None
#     Edge 112, Type (0, 1), None
#     Edge 113, Type (0, 1), None
#     Edge 114, Type (0, 1), None
#     Edge 115, Type (0, 1), None
#     Edge 116, Type (0, 1), None
#     Edge 117, Type (0, 1), None
#     Edge 118, Type (0, 1), None
#     Edge 119, Type (0, 1), None
#     Edge 120, Type (0, 1), None
#     Edge 121, Type (0, 1), None
#     Edge 122, Type (0, 1), None
#     Edge 123, Type (0, 1), None
#     Edge 124, Type (0, 1), None
#     Edge 125, Type (0, 1), None
#     Edge 126, Type (0, 1), None
#     Edge 127, Type (0, 1), None
#     Edge 128, Type (0, 1), None
#     Edge 129, Type (0, 1), None
#     Edge 130, Type (0, 1), None
#     Edge 131, Type (0, 1), None
#     Edge 132, Type (0, 1), None
#     Edge 133, Type (0, 1), None
#     Edge 134, Type (0, 1), None
#     Edge 135, Type (0, 1), None
# Relax obj value: 0.372
# Max RMSD: 0.284
# Mean RMSD: 0.280
data_MOF--net-ibd--node1-CEKHIL_clean_sbu_0--node2-OJICUG_clean_sbu_0--edge1-none
_symmetry_space_group_name_H-M    P1
_symmetry_Int_Tables_number       1
_symmetry_cell_setting            triclinic
loop_
_symmetry_equiv_pos_as_xyz
'x, y, z'
_cell_length_a     23.600331
_cell_length_b     23.59941
_cell_length_c     23.686089
_cell_angle_alpha  90.226307
_cell_angle_beta   90.220081
_cell_angle_gamma 92.212747
loop_
_atom_site_label
_atom_site_type_symbol
_atom_site_fract_x
_atom_site_fract_y
_atom_site_fract_z
_atom_type_partial_charge
Co0 Co -0.02001 0.24555 0.34989 0.0
O1 O -0.01963 0.2987 0.28811 0.0
O2 O 0.90685 0.24315 0.31323 0.0
C3 C 0.02706 0.30308 0.41464 0.0
O4 O 0.95322 0.18938 0.40971 0.0
Co5 Co 0.08112 0.19655 0.40844 0.0
O6 O 0.02556 0.1672 0.46481 0.0
C7 C 0.05836 0.16381 0.29245 0.0
C8 C 0.9279 0.28114 0.27956 0.0
C9 C 0.97271 0.16586 0.45364 0.0
O10 O 0.0089 0.18522 0.29729 0.0
O11 O 0.09587 0.16642 0.33131 0.0
O12 O 0.97277 0.30733 0.40545 0.0
O13 O 0.05104 0.2671 0.38279 0.0
Co14 Co 0.95983 0.73632 0.61471 0.0
O15 O 0.90376 0.72707 0.67325 0.0
O16 O 0.95169 0.80725 0.6531 0.0
C17 C 0.91185 0.69009 0.54566 0.0
O18 O 0.01657 0.76842 0.55905 0.0
Co19 Co 0.02058 0.63866 0.55295 0.0
O20 O 0.03409 0.70004 0.49659 0.0
C21 C 0.03928 0.66011 0.67404 0.0
C22 C 0.91357 0.78102 0.68324 0.0
C23 C 0.03312 0.75209 0.5108 0.0
O24 O 0.0202 0.7105 0.66852 0.0
O25 O 0.03865 0.62335 0.63418 0.0
O26 O 0.90019 0.74215 0.55822 0.0
O27 O 0.9484 0.66668 0.57744 0.0
Co28 Co 0.47999 0.74555 0.84989 0.0
O29 O 0.48037 0.7987 0.78811 0.0
O30 O 0.40685 0.74315 0.81323 0.0
C31 C 0.52706 0.80308 0.91464 0.0
O32 O 0.45322 0.68938 0.90971 0.0
Co33 Co 0.58112 0.69655 0.90844 0.0
O34 O 0.52556 0.6672 0.96481 0.0
C35 C 0.55836 0.66381 0.79245 0.0
C36 C 0.4279 0.78114 0.77956 0.0
C37 C 0.47271 0.66586 0.95364 0.0
O38 O 0.5089 0.68522 0.79729 0.0
O39 O 0.59587 0.66642 0.83131 0.0
O40 O 0.47277 0.80733 0.90545 0.0
O41 O 0.55104 0.7671 0.88279 0.0
Co42 Co 0.45983 0.23632 0.11471 0.0
O43 O 0.40376 0.22708 0.17325 0.0
O44 O 0.45169 0.30725 0.1531 0.0
C45 C 0.41185 0.19009 0.04565 0.0
O46 O 0.51657 0.26842 0.05905 0.0
Co47 Co 0.52058 0.13866 0.05295 0.0
O48 O 0.53409 0.20004 -0.00341 0.0
C49 C 0.53928 0.16011 0.17404 0.0
C50 C 0.41358 0.28102 0.18324 0.0
C51 C 0.53312 0.25209 0.0108 0.0
O52 O 0.5202 0.2105 0.16852 0.0
O53 O 0.53865 0.12335 0.13418 0.0
O54 O 0.40019 0.24215 0.05822 0.0
O55 O 0.4484 0.16668 0.07744 0.0
Co56 Co 0.97657 0.75309 0.09684 0.0
O57 O -0.01418 0.80917 0.03831 0.0
O58 O 0.90565 0.76123 0.05847 0.0
C59 C 0.02281 0.80107 0.1659 0.0
O60 O 0.94447 0.69635 0.15249 0.0
Co61 Co 0.07423 0.69233 0.15858 0.0
O62 O 0.01285 0.67881 0.21495 0.0
C63 C 0.05278 0.67365 0.03749 0.0
C64 C 0.93187 0.79935 0.02833 0.0
C65 C 0.9608 0.67978 0.20074 0.0
O66 O 0.00239 0.69272 0.04302 0.0
O67 O 0.08954 0.67427 0.07734 0.0
O68 O 0.97075 0.81273 0.15334 0.0
O69 O 0.04621 0.76451 0.1341 0.0
Co70 Co 0.46742 0.73294 0.36166 0.0
O71 O 0.41428 0.73255 0.42345 0.0
O72 O 0.46983 0.80607 0.39833 0.0
C73 C 0.40989 0.68587 0.29691 0.0
O74 O 0.52359 0.7597 0.30184 0.0
Co75 Co 0.51642 0.63181 0.3031 0.0
O76 O 0.54576 0.68737 0.24672 0.0
C77 C 0.54915 0.65454 0.41909 0.0
C78 C 0.43184 0.78502 0.43201 0.0
C79 C 0.5471 0.74022 0.2579 0.0
O80 O 0.52775 0.70401 0.41425 0.0
O81 O 0.54654 0.61704 0.38022 0.0
O82 O 0.40564 0.74016 0.30611 0.0
O83 O 0.44586 0.66189 0.32875 0.0
Co84 Co 0.47657 0.25309 0.59684 0.0
O85 O 0.48582 0.30917 0.53831 0.0
O86 O 0.40565 0.26123 0.55847 0.0
C87 C 0.52281 0.30107 0.6659 0.0
O88 O 0.44447 0.19635 0.65249 0.0
Co89 Co 0.57423 0.19233 0.65858 0.0
O90 O 0.51285 0.17881 0.71495 0.0
C91 C 0.55278 0.17365 0.53749 0.0
C92 C 0.43187 0.29935 0.52833 0.0
C93 C 0.4608 0.17979 0.70074 0.0
O94 O 0.50239 0.19272 0.54302 0.0
O95 O 0.58954 0.17427 0.57735 0.0
O96 O 0.47075 0.31273 0.65334 0.0
O97 O 0.54621 0.26451 0.6341 0.0
Co98 Co 0.96743 0.23294 0.86166 0.0
O99 O 0.91428 0.23255 0.92345 0.0
O100 O 0.96983 0.30607 0.89833 0.0
C101 C 0.90989 0.18587 0.79691 0.0
O102 O 0.02359 0.2597 0.80184 0.0
Co103 Co 0.01642 0.13181 0.8031 0.0
O104 O 0.04576 0.18736 0.74672 0.0
C105 C 0.04915 0.15454 0.91909 0.0
C106 C 0.93185 0.28502 0.93201 0.0
C107 C 0.0471 0.24022 0.7579 0.0
O108 O 0.02775 0.20401 0.91425 0.0
O109 O 0.04654 0.11704 0.88022 0.0
O110 O 0.90564 0.24016 0.80611 0.0
O111 O 0.94586 0.16189 0.82875 0.0
Co112 Co 0.36174 0.97349 0.20688 0.0
O113 O 0.42706 -0.01872 0.15802 0.0
O114 O 0.39417 0.9 0.19303 0.0
C115 C 0.30343 0.03012 0.15659 0.0
O116 O 0.29665 0.94223 0.2543 0.0
Co117 Co 0.30035 0.07102 0.2698 0.0
O118 O 0.24128 0.01164 0.28386 0.0
C119 C 0.41384 0.03577 0.30694 0.0
C120 C 0.43099 0.92636 0.16141 0.0
C121 C 0.25164 0.95957 0.2774 0.0
O122 O 0.41128 -0.00961 0.27588 0.0
O123 O 0.37626 0.07337 0.30645 0.0
O124 O 0.31094 0.97774 0.14164 0.0
O125 O 0.33322 0.0472 0.19919 0.0
Co126 Co 0.24001 0.10494 0.50192 0.0
O127 O 0.23859 0.05109 0.56339 0.0
O128 O 0.31102 0.06812 0.50566 0.0
C129 C 0.19581 0.17894 0.5445 0.0
O130 O 0.26867 0.1555 0.43841 0.0
Co131 Co 0.13913 0.15413 0.44151 0.0
O132 O 0.19714 0.20426 0.40501 0.0
C133 C 0.15351 0.03373 0.43802 0.0
C134 C 0.28927 0.03859 0.54631 0.0
C135 C 0.24991 0.19494 0.408 0.0
O136 O 0.20636 0.04297 0.45109 0.0
O137 O 0.11766 0.07257 0.43615 0.0
O138 O 0.24973 0.17133 0.55364 0.0
O139 O 0.17093 0.14021 0.51481 0.0
Co140 Co 0.10798 0.9729 0.70961 0.0
O141 O 0.16187 0.97439 0.64817 0.0
O142 O 0.14481 0.9019 0.70582 0.0
C143 C 0.034 0.01712 0.66704 0.0
O144 O 0.05738 0.94417 0.77307 0.0
Co145 Co 0.05879 0.07372 0.77011 0.0
O146 O 0.00874 0.0157 0.80668 0.0
C147 C 0.17917 0.05937 0.77356 0.0
C148 C 0.17437 0.9237 0.66522 0.0
C149 C 0.01802 0.96292 0.80359 0.0
O150 O 0.16992 0.00652 0.76049 0.0
O151 O 0.14033 0.09522 0.77543 0.0
O152 O 0.04162 0.9632 0.65786 0.0
O153 O 0.0727 0.04199 0.69676 0.0
Co154 Co 0.23944 0.85116 0.00467 0.0
O155 O 0.23166 0.78585 0.05354 0.0
O156 O 0.31293 0.81874 0.01851 0.0
C157 C 0.18281 0.90948 0.05497 0.0
O158 O 0.2707 0.91624 0.95724 0.0
Co159 Co 0.1419 0.91256 0.94177 0.0
O160 O 0.20129 0.97162 0.9277 0.0
C161 C 0.17716 0.79906 0.90461 0.0
C162 C 0.28657 0.78193 0.05014 0.0
C163 C 0.25336 0.96126 0.93415 0.0
O164 O 0.22253 0.80161 0.93568 0.0
O165 O 0.13957 0.83665 0.9051 0.0
O166 O 0.23519 0.90197 0.06991 0.0
O167 O 0.16573 0.87968 0.01237 0.0
Co168 Co 0.24935 0.35994 0.97589 0.0
O169 O 0.31364 0.31212 0.97474 0.0
O170 O 0.25448 0.3254 0.90312 0.0
C171 C 0.29564 0.43201 0.02152 0.0
O172 O 0.1815 0.40486 0.9526 0.0
Co173 Co 0.18925 0.40944 0.07826 0.0
O174 O 0.16515 0.46601 0.02145 0.0
C175 C 0.18 0.28673 0.05484 0.0
C176 C 0.29838 0.30101 0.92276 0.0
C177 C 0.16137 0.45109 0.96978 0.0
O178 O 0.20066 0.29512 0.00513 0.0
O179 O 0.17392 0.3262 0.09127 0.0
O180 O 0.30009 0.42651 0.96687 0.0
O181 O 0.26348 0.39477 0.04653 0.0
Co182 Co 0.74675 0.10562 0.9716 0.0
O183 O 0.79956 0.04753 -0.0098 0.0
O184 O 0.76479 0.06603 0.90511 0.0
C185 C 0.78663 0.17903 0.02075 0.0
O186 O 0.69832 0.15731 0.92717 0.0
Co187 Co 0.66765 0.16681 0.05183 0.0
O188 O 0.65149 0.21382 -0.01595 0.0
C189 C 0.65904 0.04331 0.03947 0.0
C190 C 0.79622 0.03556 0.93626 0.0
C191 C 0.66688 0.19885 0.93495 0.0
O192 O 0.68214 0.04977 -0.0096 0.0
O193 O 0.65377 0.08481 0.07372 0.0
O194 O 0.80731 0.16433 0.97212 0.0
O195 O 0.74607 0.14672 0.04013 0.0
Co196 Co 0.10734 0.4662 0.23996 0.0
O197 O 0.16546 0.4134 0.22136 0.0
O198 O 0.14692 0.44818 0.30645 0.0
C199 C 0.03395 0.42629 0.19079 0.0
O200 O 0.05563 0.51461 0.28437 0.0
Co201 Co 0.04615 0.54527 0.15971 0.0
O202 O -0.0009 0.5614 0.22748 0.0
C203 C 0.16964 0.55391 0.17209 0.0
C204 C 0.17741 0.41676 0.27531 0.0
C205 C 0.01407 0.54603 0.27659 0.0
O206 O 0.16317 0.53082 0.22116 0.0
O207 O 0.12814 0.55917 0.13784 0.0
O208 O 0.04864 0.40562 0.23942 0.0
O209 O 0.06626 0.46686 0.17142 0.0
Co210 Co 0.74935 0.85994 0.47589 0.0
O211 O 0.81364 0.81212 0.47474 0.0
O212 O 0.75448 0.8254 0.40312 0.0
C213 C 0.79564 0.93201 0.52152 0.0
O214 O 0.6815 0.90486 0.4526 0.0
Co215 Co 0.68925 0.90944 0.57826 0.0
O216 O 0.66515 0.96601 0.52145 0.0
C217 C 0.68 0.78673 0.55484 0.0
C218 C 0.79838 0.80101 0.42275 0.0
C219 C 0.66137 0.95109 0.46978 0.0
O220 O 0.70066 0.79512 0.50513 0.0
O221 O 0.67392 0.8262 0.59127 0.0
O222 O 0.80009 0.92651 0.46687 0.0
O223 O 0.76348 0.89477 0.54653 0.0
Co224 Co 0.85299 0.96355 0.23566 0.0
O225 O 0.90079 0.89925 0.23682 0.0
O226 O 0.88751 0.95843 0.30843 0.0
C227 C 0.78092 0.91726 0.19002 0.0
O228 O 0.80807 0.03141 0.25894 0.0
Co229 Co 0.80349 0.02364 0.13328 0.0
O230 O 0.74691 0.04771 0.19009 0.0
C231 C 0.9262 0.03289 0.15671 0.0
C232 C 0.91189 0.91451 0.2888 0.0
C233 C 0.76182 0.05151 0.24177 0.0
O234 O 0.91781 0.01224 0.20641 0.0
O235 O 0.88673 0.03897 0.12028 0.0
O236 O 0.78641 0.91281 0.24467 0.0
O237 O 0.81817 0.94941 0.16502 0.0
Co238 Co 0.24675 0.60562 0.4716 0.0
O239 O 0.29957 0.54752 0.4902 0.0
O240 O 0.26479 0.56603 0.40511 0.0
C241 C 0.28663 0.67903 0.52075 0.0
O242 O 0.19833 0.65731 0.42717 0.0
Co243 Co 0.16765 0.66681 0.55183 0.0
O244 O 0.15149 0.71382 0.48405 0.0
C245 C 0.15904 0.54331 0.53947 0.0
C246 C 0.29622 0.53556 0.43626 0.0
C247 C 0.16688 0.69885 0.43495 0.0
O248 O 0.18214 0.54977 0.4904 0.0
O249 O 0.15377 0.58481 0.57372 0.0
O250 O 0.30731 0.66433 0.47213 0.0
O251 O 0.24607 0.64672 0.54013 0.0
Co252 Co 0.35299 0.46354 0.73566 0.0
O253 O 0.40079 0.39925 0.73682 0.0
O254 O 0.38751 0.45842 0.80843 0.0
C255 C 0.28092 0.41726 0.69002 0.0
O256 O 0.30807 0.53141 0.75894 0.0
Co257 Co 0.30349 0.52364 0.63328 0.0
O258 O 0.24691 0.54771 0.69009 0.0
C259 C 0.4262 0.53289 0.65671 0.0
C260 C 0.41189 0.41451 0.7888 0.0
C261 C 0.26182 0.55151 0.74177 0.0
O262 O 0.41781 0.51224 0.70641 0.0
O263 O 0.38673 0.53897 0.62028 0.0
O264 O 0.28641 0.41281 0.74467 0.0
O265 O 0.31817 0.44941 0.66502 0.0
Co266 Co 0.60734 0.9662 0.73996 0.0
O267 O 0.66546 0.9134 0.72136 0.0
O268 O 0.64692 0.94818 0.80645 0.0
C269 C 0.53395 0.92629 0.69079 0.0
O270 O 0.55563 0.01462 0.78437 0.0
Co271 Co 0.54615 0.04527 0.65971 0.0
O272 O 0.4991 0.0614 0.72748 0.0
C273 C 0.66964 0.05391 0.67209 0.0
C274 C 0.67741 0.91676 0.77531 0.0
C275 C 0.51407 0.04603 0.77658 0.0
O276 O 0.66317 0.03082 0.72116 0.0
O277 O 0.62814 0.05917 0.63784 0.0
O278 O 0.54864 0.90562 0.73942 0.0
O279 O 0.56626 0.96687 0.67142 0.0
Co280 Co 0.74001 0.60494 0.00192 0.0
O281 O 0.73859 0.55109 0.06339 0.0
O282 O 0.81102 0.56812 0.00566 0.0
C283 C 0.69581 0.67894 0.0445 0.0
O284 O 0.76867 0.6555 0.93841 0.0
Co285 Co 0.63913 0.65413 0.94151 0.0
O286 O 0.69714 0.70426 0.90501 0.0
C287 C 0.65351 0.53373 0.93802 0.0
C288 C 0.78928 0.53859 0.04631 0.0
C289 C 0.74991 0.69494 0.908 0.0
O290 O 0.70636 0.54297 0.95109 0.0
O291 O 0.61766 0.57257 0.93615 0.0
O292 O 0.74974 0.67133 0.05364 0.0
O293 O 0.67093 0.64021 0.01482 0.0
Co294 Co 0.86174 0.47349 0.70688 0.0
O295 O 0.92706 0.48128 0.65802 0.0
O296 O 0.89417 0.4 0.69303 0.0
C297 C 0.80343 0.53012 0.65659 0.0
O298 O 0.79665 0.44223 0.7543 0.0
Co299 Co 0.80035 0.57103 0.7698 0.0
O300 O 0.74128 0.51164 0.78386 0.0
C301 C 0.91384 0.53577 0.80694 0.0
C302 C 0.93099 0.42636 0.66141 0.0
C303 C 0.75164 0.45957 0.7774 0.0
O304 O 0.91128 0.49039 0.77588 0.0
O305 O 0.87626 0.57337 0.80645 0.0
O306 O 0.81094 0.47774 0.64164 0.0
O307 O 0.83322 0.5472 0.69919 0.0
Co308 Co 0.73944 0.35116 0.50467 0.0
O309 O 0.73166 0.28585 0.55354 0.0
O310 O 0.81293 0.31874 0.51851 0.0
C311 C 0.68281 0.40948 0.55497 0.0
O312 O 0.7707 0.41624 0.45724 0.0
Co313 Co 0.6419 0.41256 0.44177 0.0
O314 O 0.70129 0.47162 0.4277 0.0
C315 C 0.67716 0.29906 0.40461 0.0
C316 C 0.78657 0.28193 0.55014 0.0
C317 C 0.75336 0.46126 0.43415 0.0
O318 O 0.72253 0.30161 0.43568 0.0
O319 O 0.63957 0.33665 0.4051 0.0
O320 O 0.73519 0.40197 0.56991 0.0
O321 O 0.66573 0.37968 0.51237 0.0
Co322 Co 0.60798 0.4729 0.20961 0.0
O323 O 0.66187 0.47439 0.14817 0.0
O324 O 0.64481 0.4019 0.20582 0.0
C325 C 0.534 0.51712 0.16704 0.0
O326 O 0.55738 0.44417 0.27307 0.0
Co327 Co 0.55879 0.57372 0.27011 0.0
O328 O 0.50874 0.5157 0.30668 0.0
C329 C 0.67917 0.55937 0.27356 0.0
C330 C 0.67437 0.4237 0.16521 0.0
C331 C 0.51802 0.46292 0.30359 0.0
O332 O 0.66992 0.50652 0.26049 0.0
O333 O 0.64033 0.59522 0.27543 0.0
O334 O 0.54162 0.4632 0.15786 0.0
O335 O 0.5727 0.54199 0.19676 0.0
Sc336 Sc 0.05698 0.15593 0.10577 0.0
Sc337 Sc 0.11633 0.0383 0.16815 0.0
Sc338 Sc 0.17463 0.0966 0.0434 0.0
O339 O 0.11646 0.09646 0.10577 0.0
C340 C 0.07337 0.13936 0.97374 0.0
C341 C -0.01632 0.05241 0.14205 0.0
C342 C 0.15665 0.96348 0.06751 0.0
C343 C 0.07355 0.13957 0.2378 0.0
C344 C 0.16049 0.22925 0.0695 0.0
C345 C 0.24944 0.05629 0.14404 0.0
O346 O 0.05365 0.16422 0.01624 0.0
O347 O 0.02456 0.03143 0.16926 0.0
O348 O 0.17555 0.00584 0.03946 0.0
O349 O 0.04868 0.15928 0.1953 0.0
O350 O 0.18149 0.18837 0.0423 0.0
O351 O 0.20708 0.03739 0.1721 0.0
O352 O 0.12123 0.22265 0.10591 0.0
O353 O 0.11145 0.10268 0.23377 0.0
O354 O 0.2454 0.08888 0.10139 0.0
O355 O -0.00972 0.09166 0.10563 0.0
O356 O 0.11027 0.10146 0.97777 0.0
O357 O 0.12405 0.96752 0.11016 0.0
Sc358 Sc 0.15679 0.8535 0.40434 0.0
Sc359 Sc 0.03716 0.7883 0.34188 0.0
Sc360 Sc 0.0792 0.92213 0.30265 0.0
O361 O 0.09172 0.85517 0.35038 0.0
C362 C 0.1349 0.97971 0.41379 0.0
C363 C 0.04904 0.79439 0.46874 0.0
C364 C 0.95838 0.89098 0.31985 0.0
C365 C 0.14808 0.73017 0.38516 0.0
C366 C 0.20845 0.91858 0.29591 0.0
C367 C 0.0482 0.81873 0.21957 0.0
O368 O 0.14284 0.9344 0.44081 0.0
O369 O 0.01424 0.79878 0.42785 0.0
O370 O -0.00364 0.92605 0.33766 0.0
O371 O 0.17764 0.77342 0.3705 0.0
O372 O 0.16205 0.91884 0.26858 0.0
O373 O 0.06146 0.78065 0.25491 0.0
O374 O 0.21322 0.89839 0.34563 0.0
O375 O 0.09532 0.72719 0.37476 0.0
O376 O 0.04541 0.87081 0.23306 0.0
O377 O 0.10154 0.81021 0.46602 0.0
O378 O 0.11287 -0.01909 0.36481 0.0
O379 O 0.96853 0.83915 0.31206 0.0
Sc380 Sc 0.41494 0.79799 0.60579 0.0
Sc381 Sc 0.30055 0.86067 0.5415 0.0
Sc382 Sc 0.35231 0.91244 0.67004 0.0
O383 O 0.35604 0.85693 0.60578 0.0
C384 C 0.39505 0.80132 0.73189 0.0
C385 C 0.30637 0.73115 0.55005 0.0
C386 C 0.2256 0.89639 0.64652 0.0
C387 C 0.41167 0.81787 0.47968 0.0
C388 C 0.48183 0.90656 0.66151 0.0
C389 C 0.31661 -0.01261 0.56501 0.0
O390 O 0.39022 0.76975 0.68838 0.0
O391 O 0.27343 0.77279 0.55263 0.0
O392 O 0.26425 0.88746 0.68305 0.0
O393 O 0.44323 0.82268 0.5232 0.0
O394 O 0.44021 0.93953 0.6589 0.0
O395 O 0.32557 0.94873 0.52848 0.0
O396 O 0.4778 0.85441 0.64711 0.0
O397 O 0.35931 0.82839 0.4804 0.0
O398 O 0.32081 0.97934 0.61778 0.0
O399 O 0.35851 0.73516 0.56447 0.0
O400 O 0.38457 0.85369 0.73115 0.0
O401 O 0.23365 0.89219 0.59375 0.0
Sc402 Sc 0.3594 0.0561 0.80719 0.0
Sc403 Sc 0.4246 0.17574 0.86966 0.0
Sc404 Sc 0.29078 0.13369 0.90892 0.0
O405 O 0.35773 0.12117 0.86116 0.0
C406 C 0.23319 0.07798 0.79779 0.0
C407 C 0.4185 0.16386 0.7428 0.0
C408 C 0.32191 0.25451 0.89171 0.0
C409 C 0.48273 0.06482 0.82636 0.0
C410 C 0.29435 0.00443 0.91564 0.0
C411 C 0.39418 0.16471 -0.00802 0.0
O412 O 0.2785 0.07006 0.77074 0.0
O413 O 0.41411 0.19866 0.78369 0.0
O414 O 0.28684 0.21653 0.87392 0.0
O415 O 0.43948 0.03526 0.84101 0.0
O416 O 0.2941 0.05084 0.94298 0.0
O417 O 0.43225 0.15144 0.95663 0.0
O418 O 0.31452 -0.00033 0.8659 0.0
O419 O 0.4857 0.11758 0.83677 0.0
O420 O 0.3421 0.16749 -0.0215 0.0
O421 O 0.40269 0.11136 0.74552 0.0
O422 O 0.23199 0.09999 0.84677 0.0
O423 O 0.37374 0.24437 0.89949 0.0
Sc424 Sc 0.65679 0.3535 0.90434 0.0
Sc425 Sc 0.53716 0.2883 0.84188 0.0
Sc426 Sc 0.5792 0.42213 0.80265 0.0
O427 O 0.59172 0.35517 0.85038 0.0
C428 C 0.6349 0.47971 0.91379 0.0
C429 C 0.54904 0.29439 0.96874 0.0
C430 C 0.45838 0.39098 0.81985 0.0
C431 C 0.64808 0.23017 0.88516 0.0
C432 C 0.70845 0.41858 0.79591 0.0
C433 C 0.5482 0.31873 0.71957 0.0
O434 O 0.64284 0.4344 0.94081 0.0
O435 O 0.51424 0.29877 0.92785 0.0
O436 O 0.49636 0.42605 0.83766 0.0
O437 O 0.67764 0.27342 0.8705 0.0
O438 O 0.66205 0.41884 0.76858 0.0
O439 O 0.56147 0.28065 0.75491 0.0
O440 O 0.71322 0.39839 0.84563 0.0
O441 O 0.59533 0.22719 0.87476 0.0
O442 O 0.54541 0.37081 0.73306 0.0
O443 O 0.60154 0.31021 0.96602 0.0
O444 O 0.61287 0.48091 0.86481 0.0
O445 O 0.46853 0.33915 0.81206 0.0
Sc446 Sc 0.91494 0.29799 0.10579 0.0
Sc447 Sc 0.85231 0.41244 0.17004 0.0
Sc448 Sc 0.80056 0.36067 0.0415 0.0
O449 O 0.85604 0.35693 0.10577 0.0
C450 C 0.91167 0.31787 -0.02032 0.0
C451 C -0.01817 0.40656 0.16151 0.0
C452 C 0.81662 0.48739 0.06501 0.0
C453 C 0.89505 0.30132 0.23189 0.0
C454 C 0.80637 0.23115 0.05005 0.0
C455 C 0.7256 0.3964 0.14652 0.0
O456 O 0.94323 0.32268 0.0232 0.0
O457 O 0.94021 0.43953 0.1589 0.0
O458 O 0.82557 0.44873 0.02848 0.0
O459 O 0.89022 0.26975 0.18837 0.0
O460 O 0.77343 0.27279 0.05263 0.0
O461 O 0.76425 0.38746 0.18305 0.0
O462 O 0.85851 0.23516 0.06447 0.0
O463 O 0.88457 0.35369 0.23115 0.0
O464 O 0.73365 0.39219 0.09375 0.0
O465 O 0.9778 0.35441 0.14711 0.0
O466 O 0.85931 0.32839 -0.0196 0.0
O467 O 0.82081 0.47934 0.11778 0.0
Sc468 Sc 0.8594 0.5561 0.30719 0.0
Sc469 Sc 0.9246 0.67574 0.36966 0.0
Sc470 Sc 0.79078 0.63369 0.40892 0.0
O471 O 0.85773 0.62117 0.36116 0.0
C472 C 0.73319 0.57798 0.29779 0.0
C473 C 0.9185 0.66386 0.2428 0.0
C474 C 0.82191 0.75451 0.39171 0.0
C475 C -0.01727 0.56482 0.32637 0.0
C476 C 0.79435 0.50444 0.41564 0.0
C477 C 0.89418 0.66471 0.49198 0.0
O478 O 0.7785 0.57006 0.27074 0.0
O479 O 0.91411 0.69866 0.28369 0.0
O480 O 0.78684 0.71653 0.37392 0.0
O481 O 0.93948 0.53526 0.34101 0.0
O482 O 0.7941 0.55084 0.44298 0.0
O483 O 0.93225 0.65144 0.45663 0.0
O484 O 0.81452 0.49967 0.3659 0.0
O485 O -0.0143 0.61758 0.33677 0.0
O486 O 0.8421 0.66749 0.4785 0.0
O487 O 0.90269 0.61135 0.24552 0.0
O488 O 0.73199 0.6 0.34677 0.0
O489 O 0.87374 0.74437 0.39949 0.0
Sc490 Sc 0.9085 0.80438 0.85578 0.0
Sc491 Sc 0.79327 0.86172 0.91328 0.0
Sc492 Sc 0.85127 0.91966 0.79831 0.0
O493 O 0.8512 0.86171 0.85578 0.0
C494 C 0.97316 0.92351 0.8251 0.0
C495 C 0.90394 0.82298 -0.02074 0.0
C496 C 0.81802 -0.01518 0.911 0.0
C497 C 0.78932 0.7398 0.88651 0.0
C498 C 0.88994 0.80896 0.73231 0.0
C499 C 0.72815 0.89498 0.80057 0.0
O500 O 0.97349 0.86876 0.82121 0.0
O501 O 0.84962 0.82201 0.97557 0.0
O502 O 0.81458 0.97989 0.85708 0.0
O503 O 0.84407 0.73943 0.89035 0.0
O504 O 0.89095 0.86328 0.73602 0.0
O505 O 0.73307 0.89842 0.85449 0.0
O506 O 0.88142 0.77779 0.77467 0.0
O507 O 0.76462 0.78503 0.87804 0.0
O508 O 0.77059 0.88974 0.76885 0.0
O509 O 0.93511 0.83145 0.93689 0.0
O510 O 0.92795 0.94823 0.83361 0.0
O511 O 0.82326 0.94238 0.94271 0.0
Sc512 Sc 0.80956 0.10685 0.54752 0.0
Sc513 Sc 0.92149 0.16379 0.62172 0.0
Sc514 Sc 0.85178 0.04472 0.67073 0.0
O515 O 0.86041 0.10523 0.61367 0.0
C516 C 0.72765 0.069 0.65217 0.0
C517 C 0.81459 0.23142 0.57163 0.0
C518 C 0.89004 0.15794 0.74379 0.0
C519 C 0.9332 0.14464 0.49763 0.0
C520 C 0.8188 -0.01815 0.55226 0.0
C521 C -0.01974 0.04644 0.6563 0.0
O522 O 0.73713 0.07316 0.59876 0.0
O523 O 0.86851 0.22987 0.58052 0.0
O524 O 0.88577 0.10335 0.7393 0.0
O525 O 0.87882 0.14314 0.49171 0.0
O526 O 0.81699 -0.0164 0.60653 0.0
O527 O -0.02046 0.10109 0.65938 0.0
O528 O 0.8328 0.02474 0.52307 0.0
O529 O 0.95612 0.13812 0.54497 0.0
O530 O 0.93492 0.01621 0.65212 0.0
O531 O 0.78316 0.18723 0.5718 0.0
O532 O 0.76752 0.06942 0.68844 0.0
O533 O 0.8889 0.18944 0.70089 0.0
Sc534 Sc 0.59043 0.03628 0.31118 0.0
Sc535 Sc 0.67662 0.12247 0.40035 0.0
Sc536 Sc 0.54653 0.16639 0.35576 0.0
O537 O 0.60507 0.10784 0.35577 0.0
C538 C 0.55666 0.14172 0.23037 0.0
C539 C 0.71866 0.06533 0.28393 0.0
C540 C 0.65838 0.24522 0.37846 0.0
C541 C 0.64755 -0.00575 0.42761 0.0
C542 C 0.46769 0.05455 0.33308 0.0
C543 C 0.57118 0.15626 0.48116 0.0
O544 O 0.5593 0.08821 0.24059 0.0
O545 O 0.7306 0.09072 0.33089 0.0
O546 O 0.60518 0.23493 0.37804 0.0
O547 O 0.62217 -0.0177 0.38065 0.0
O548 O 0.47798 0.10775 0.33349 0.0
O549 O 0.62469 0.15362 0.47094 0.0
O550 O 0.50622 0.01986 0.34116 0.0
O551 O 0.66813 0.0429 0.43927 0.0
O552 O 0.53317 0.1522 0.44302 0.0
O553 O 0.67001 0.04475 0.27227 0.0
O554 O 0.56073 0.17973 0.2685 0.0
O555 O 0.69306 0.20667 0.37038 0.0
Sc556 Sc 0.66821 0.86116 0.04081 0.0
Sc557 Sc 0.54914 0.79146 0.08982 0.0
Sc558 Sc 0.60608 0.90338 0.16403 0.0
O559 O 0.6077 0.85253 0.09788 0.0
C560 C 0.73107 0.89413 0.15928 0.0
C561 C 0.6665 0.73269 0.05523 0.0
C562 C 0.5683 0.77974 0.21391 0.0
C563 C 0.55499 0.82292 0.96776 0.0
C564 C 0.64393 -0.0147 0.05939 0.0
C565 C 0.48151 0.89835 0.13993 0.0
O566 O 0.72933 0.89594 0.10501 0.0
O567 O 0.61185 0.7334 0.05215 0.0
O568 O 0.56979 0.83411 0.21984 0.0
O569 O 0.60958 0.82719 0.97225 0.0
O570 O 0.63977 0.97582 0.1128 0.0
O571 O 0.48306 0.84442 0.13104 0.0
O572 O 0.64351 0.94543 0.02311 0.0
O573 O 0.5235 0.82404 0.01067 0.0
O574 O 0.52569 0.92979 0.13977 0.0
O575 O 0.69672 0.77802 0.05941 0.0
O576 O 0.68818 0.88014 0.18847 0.0
O577 O 0.57482 0.75682 0.16657 0.0
Sc578 Sc 0.30956 0.60685 0.04752 0.0
Sc579 Sc 0.42149 0.66379 0.12172 0.0
Sc580 Sc 0.35178 0.54472 0.17073 0.0
O581 O 0.36041 0.60523 0.11367 0.0
C582 C 0.22765 0.569 0.15217 0.0
C583 C 0.31459 0.73142 0.07164 0.0
C584 C 0.39004 0.65794 0.24379 0.0
C585 C 0.4332 0.64464 -0.00237 0.0
C586 C 0.3188 0.48185 0.05226 0.0
C587 C 0.48026 0.54644 0.1563 0.0
O588 O 0.23713 0.57316 0.09876 0.0
O589 O 0.36851 0.72987 0.08052 0.0
O590 O 0.38577 0.60335 0.2393 0.0
O591 O 0.37882 0.64314 -0.00829 0.0
O592 O 0.31699 0.4836 0.10653 0.0
O593 O 0.47954 0.60109 0.15939 0.0
O594 O 0.3328 0.52474 0.02307 0.0
O595 O 0.45612 0.63812 0.04497 0.0
O596 O 0.43492 0.51621 0.15212 0.0
O597 O 0.28316 0.68723 0.0718 0.0
O598 O 0.26752 0.56942 0.18844 0.0
O599 O 0.3889 0.68944 0.20089 0.0
Sc600 Sc 0.09043 0.53628 0.81118 0.0
Sc601 Sc 0.17662 0.62247 0.90035 0.0
Sc602 Sc 0.04653 0.66639 0.85576 0.0
O603 O 0.10507 0.60784 0.85577 0.0
C604 C 0.05666 0.64172 0.73037 0.0
C605 C 0.21866 0.56533 0.78393 0.0
C606 C 0.15838 0.74522 0.87846 0.0
C607 C 0.14755 0.49425 0.92761 0.0
C608 C 0.96769 0.55455 0.83308 0.0
C609 C 0.07118 0.65626 -0.01884 0.0
O610 O 0.0593 0.58821 0.74059 0.0
O611 O 0.2306 0.59072 0.83089 0.0
O612 O 0.10518 0.73493 0.87804 0.0
O613 O 0.12217 0.4823 0.88065 0.0
O614 O 0.97798 0.60775 0.83348 0.0
O615 O 0.12469 0.65362 0.97094 0.0
O616 O 0.00622 0.51986 0.84116 0.0
O617 O 0.16813 0.5429 0.93927 0.0
O618 O 0.03317 0.6522 0.94302 0.0
O619 O 0.17001 0.54475 0.77227 0.0
O620 O 0.06073 0.67973 0.7685 0.0
O621 O 0.19306 0.70667 0.87038 0.0
Sc622 Sc 0.16821 0.36116 0.54081 0.0
Sc623 Sc 0.04914 0.29146 0.58982 0.0
Sc624 Sc 0.10608 0.40338 0.66403 0.0
O625 O 0.1077 0.35253 0.59788 0.0
C626 C 0.23107 0.39413 0.65928 0.0
C627 C 0.16649 0.23269 0.55523 0.0
C628 C 0.0683 0.27974 0.71391 0.0
C629 C 0.05499 0.32292 0.46776 0.0
C630 C 0.14393 0.4853 0.55939 0.0
C631 C -0.01849 0.39835 0.63992 0.0
O632 O 0.22933 0.39594 0.60501 0.0
O633 O 0.11185 0.2334 0.55215 0.0
O634 O 0.06979 0.33411 0.71984 0.0
O635 O 0.10958 0.32719 0.47225 0.0
O636 O 0.13977 0.47582 0.6128 0.0
O637 O -0.01694 0.34442 0.63104 0.0
O638 O 0.14351 0.44543 0.52311 0.0
O639 O 0.0235 0.32404 0.51067 0.0
O640 O 0.02569 0.42979 0.63977 0.0
O641 O 0.19672 0.27802 0.55941 0.0
O642 O 0.18818 0.38014 0.68847 0.0
O643 O 0.07482 0.25682 0.66657 0.0
Sc644 Sc 0.55698 0.65593 0.60577 0.0
Sc645 Sc 0.61633 0.5383 0.66815 0.0
Sc646 Sc 0.67463 0.59659 0.5434 0.0
O647 O 0.61646 0.59646 0.60577 0.0
C648 C 0.57337 0.63936 0.47374 0.0
C649 C 0.48368 0.55241 0.64205 0.0
C650 C 0.65665 0.46348 0.56752 0.0
C651 C 0.57355 0.63957 0.7378 0.0
C652 C 0.66049 0.72925 0.5695 0.0
C653 C 0.74944 0.55629 0.64404 0.0
O654 O 0.55365 0.66422 0.51624 0.0
O655 O 0.52456 0.53143 0.66926 0.0
O656 O 0.67555 0.50584 0.53946 0.0
O657 O 0.54868 0.65928 0.6953 0.0
O658 O 0.68149 0.68837 0.5423 0.0
O659 O 0.70708 0.53739 0.6721 0.0
O660 O 0.62123 0.72265 0.60591 0.0
O661 O 0.61145 0.60268 0.73377 0.0
O662 O 0.7454 0.58888 0.60139 0.0
O663 O 0.49028 0.59166 0.60563 0.0
O664 O 0.61027 0.60146 0.47777 0.0
O665 O 0.62405 0.46752 0.61016 0.0
Sc666 Sc 0.29327 0.36172 0.41327 0.0
Sc667 Sc 0.35127 0.41966 0.29831 0.0
Sc668 Sc 0.4085 0.30438 0.35578 0.0
O669 O 0.3512 0.36171 0.35578 0.0
C670 C 0.40394 0.32298 0.47926 0.0
C671 C 0.31802 0.48482 0.411 0.0
C672 C 0.47316 0.42351 0.3251 0.0
C673 C 0.22815 0.39498 0.30057 0.0
C674 C 0.28932 0.2398 0.38651 0.0
C675 C 0.38994 0.30896 0.23231 0.0
O676 O 0.34962 0.32201 0.47557 0.0
O677 O 0.31458 0.47989 0.35708 0.0
O678 O 0.4735 0.36876 0.32121 0.0
O679 O 0.23307 0.39842 0.35449 0.0
O680 O 0.34407 0.23943 0.39035 0.0
O681 O 0.39095 0.36328 0.23602 0.0
O682 O 0.26462 0.28502 0.37804 0.0
O683 O 0.2706 0.38974 0.26885 0.0
O684 O 0.38142 0.27779 0.27467 0.0
O685 O 0.32326 0.44238 0.44271 0.0
O686 O 0.43511 0.33145 0.43689 0.0
O687 O 0.42796 0.44823 0.33361 0.0
loop_
_geom_bond_atom_site_label_1
_geom_bond_atom_site_label_2
_geom_bond_distance
_geom_bond_site_symmetry_2
_ccdc_geom_bond_type
Co0 O1 2.216 1_655 S
Co0 O2 2.091 . S
Co0 O4 2.004 . S
Co0 O10 2.021 1_655 S
Co0 O12 2.138 . S
Co0 O13 2.244 1_655 S
O1 Co0 2.216 1_455 S
O1 C8 1.247 1_455 S
O2 Co0 2.091 . S
O2 C8 1.261 . S
C3 O12 1.239 1_455 S
C3 O13 1.272 . S
O4 Co0 2.004 . S
O4 C9 1.259 . S
Co5 O6 2.061 . S
Co5 O11 2.052 . S
Co5 O13 2.135 . S
O6 Co5 2.061 . S
O6 C9 1.235 1_455 S
C7 O10 1.238 . S
C7 O11 1.241 . S
C8 O1 1.247 1_655 S
C8 O2 1.261 . S
C9 O4 1.259 . S
C9 O6 1.235 1_655 S
O10 Co0 2.021 1_455 S
O10 C7 1.238 . S
O11 Co5 2.052 . S
O11 C7 1.241 . S
O12 Co0 2.138 . S
O12 C3 1.239 1_655 S
O13 Co0 2.244 1_455 S
O13 C3 1.272 . S
O13 Co5 2.135 . S
Co14 O15 2.216 . S
Co14 O16 2.091 . S
Co14 O18 2.004 1_655 S
Co14 O24 2.021 1_655 S
Co14 O26 2.137 . S
Co14 O27 2.244 . S
O15 Co14 2.216 . S
O15 C22 1.247 . S
O16 Co14 2.091 . S
O16 C22 1.261 . S
C17 O26 1.247 . S
C17 O27 1.272 . S
O18 Co14 2.004 1_455 S
O18 C23 1.259 . S
Co19 O20 2.061 . S
Co19 O25 2.052 . S
Co19 O27 2.135 1_455 S
O20 Co19 2.061 . S
O20 C23 1.235 . S
C21 O24 1.238 . S
C21 O25 1.241 . S
C22 O15 1.247 . S
C22 O16 1.261 . S
C23 O18 1.259 . S
C23 O20 1.235 . S
O24 Co14 2.021 1_455 S
O24 C21 1.238 . S
O25 Co19 2.052 . S
O25 C21 1.241 . S
O26 Co14 2.137 . S
O26 C17 1.247 . S
O27 Co14 2.244 . S
O27 C17 1.272 . S
O27 Co19 2.135 1_655 S
Co28 O29 2.216 . S
Co28 O30 2.091 . S
Co28 O32 2.004 . S
Co28 O38 2.021 . S
Co28 O40 2.137 . S
Co28 O41 2.244 . S
O29 Co28 2.216 . S
O29 C36 1.247 . S
O30 Co28 2.091 . S
O30 C36 1.261 . S
C31 O40 1.247 . S
C31 O41 1.272 . S
O32 Co28 2.004 . S
O32 C37 1.259 . S
Co33 O34 2.061 . S
Co33 O39 2.052 . S
Co33 O41 2.135 . S
O34 Co33 2.061 . S
O34 C37 1.235 . S
C35 O38 1.238 . S
C35 O39 1.241 . S
C36 O29 1.247 . S
C36 O30 1.261 . S
C37 O32 1.259 . S
C37 O34 1.235 . S
O38 Co28 2.021 . S
O38 C35 1.238 . S
O39 Co33 2.052 . S
O39 C35 1.241 . S
O40 Co28 2.137 . S
O40 C31 1.247 . S
O41 Co28 2.244 . S
O41 C31 1.272 . S
O41 Co33 2.135 . S
Co42 O43 2.216 . S
Co42 O44 2.091 . S
Co42 O46 2.004 . S
Co42 O52 2.021 . S
Co42 O54 2.137 . S
Co42 O55 2.244 . S
O43 Co42 2.216 . S
O43 C50 1.247 . S
O44 Co42 2.091 . S
O44 C50 1.261 . S
C45 O54 1.247 . S
C45 O55 1.272 . S
O46 Co42 2.004 . S
O46 C51 1.259 . S
Co47 O48 2.061 . S
Co47 O53 2.052 . S
Co47 O55 2.135 . S
O48 Co47 2.061 . S
O48 C51 1.235 . S
C49 O52 1.238 . S
C49 O53 1.241 . S
C50 O43 1.247 . S
C50 O44 1.261 . S
C51 O46 1.259 . S
C51 O48 1.235 . S
O52 Co42 2.021 . S
O52 C49 1.238 . S
O53 Co47 2.052 . S
O53 C49 1.241 . S
O54 Co42 2.137 . S
O54 C45 1.247 . S
O55 Co42 2.244 . S
O55 C45 1.272 . S
O55 Co47 2.135 . S
Co56 O57 2.216 1_655 S
Co56 O58 2.091 . S
Co56 O60 2.004 . S
Co56 O66 2.021 1_655 S
Co56 O68 2.137 . S
Co56 O69 2.244 1_655 S
O57 Co56 2.216 1_455 S
O57 C64 1.247 1_455 S
O58 Co56 2.091 . S
O58 C64 1.261 . S
C59 O68 1.247 1_455 S
C59 O69 1.272 . S
O60 Co56 2.004 . S
O60 C65 1.259 . S
Co61 O62 2.061 . S
Co61 O67 2.052 . S
Co61 O69 2.135 . S
O62 Co61 2.061 . S
O62 C65 1.235 1_455 S
C63 O66 1.238 . S
C63 O67 1.241 . S
C64 O57 1.247 1_655 S
C64 O58 1.261 . S
C65 O60 1.259 . S
C65 O62 1.235 1_655 S
O66 Co56 2.021 1_455 S
O66 C63 1.238 . S
O67 Co61 2.052 . S
O67 C63 1.241 . S
O68 Co56 2.137 . S
O68 C59 1.247 1_655 S
O69 Co56 2.244 1_455 S
O69 C59 1.272 . S
O69 Co61 2.135 . S
Co70 O71 2.216 . S
Co70 O72 2.091 . S
Co70 O74 2.004 . S
Co70 O80 2.021 . S
Co70 O82 2.137 . S
Co70 O83 2.244 . S
O71 Co70 2.216 . S
O71 C78 1.247 . S
O72 Co70 2.091 . S
O72 C78 1.261 . S
C73 O82 1.247 . S
C73 O83 1.272 . S
O74 Co70 2.004 . S
O74 C79 1.259 . S
Co75 O76 2.061 . S
Co75 O81 2.052 . S
Co75 O83 2.135 . S
O76 Co75 2.061 . S
O76 C79 1.235 . S
C77 O80 1.238 . S
C77 O81 1.241 . S
C78 O71 1.247 . S
C78 O72 1.261 . S
C79 O74 1.259 . S
C79 O76 1.235 . S
O80 Co70 2.021 . S
O80 C77 1.238 . S
O81 Co75 2.052 . S
O81 C77 1.241 . S
O82 Co70 2.137 . S
O82 C73 1.247 . S
O83 Co70 2.244 . S
O83 C73 1.272 . S
O83 Co75 2.135 . S
Co84 O85 2.216 . S
Co84 O86 2.091 . S
Co84 O88 2.004 . S
Co84 O94 2.021 . S
Co84 O96 2.137 . S
Co84 O97 2.244 . S
O85 Co84 2.216 . S
O85 C92 1.247 . S
O86 Co84 2.091 . S
O86 C92 1.261 . S
C87 O96 1.247 . S
C87 O97 1.272 . S
O88 Co84 2.004 . S
O88 C93 1.259 . S
Co89 O90 2.061 . S
Co89 O95 2.052 . S
Co89 O97 2.135 . S
O90 Co89 2.061 . S
O90 C93 1.235 . S
C91 O94 1.238 . S
C91 O95 1.241 . S
C92 O85 1.247 . S
C92 O86 1.261 . S
C93 O88 1.259 . S
C93 O90 1.235 . S
O94 Co84 2.021 . S
O94 C91 1.238 . S
O95 Co89 2.052 . S
O95 C91 1.241 . S
O96 Co84 2.137 . S
O96 C87 1.247 . S
O97 Co84 2.244 . S
O97 C87 1.272 . S
O97 Co89 2.135 . S
Co98 O99 2.216 . S
Co98 O100 2.091 . S
Co98 O102 2.004 1_655 S
Co98 O108 2.021 1_655 S
Co98 O110 2.137 . S
Co98 O111 2.244 . S
O99 Co98 2.216 . S
O99 C106 1.247 . S
O100 Co98 2.091 . S
O100 C106 1.261 . S
C101 O110 1.247 . S
C101 O111 1.272 . S
O102 Co98 2.004 1_455 S
O102 C107 1.259 . S
Co103 O104 2.061 . S
Co103 O109 2.052 . S
Co103 O111 2.135 1_455 S
O104 Co103 2.061 . S
O104 C107 1.235 . S
C105 O108 1.238 . S
C105 O109 1.241 . S
C106 O99 1.247 . S
C106 O100 1.261 . S
C107 O102 1.259 . S
C107 O104 1.235 . S
O108 Co98 2.021 1_455 S
O108 C105 1.238 . S
O109 Co103 2.052 . S
O109 C105 1.241 . S
O110 Co98 2.137 . S
O110 C101 1.247 . S
O111 Co98 2.244 . S
O111 C101 1.272 . S
O111 Co103 2.135 1_655 S
Co112 O113 2.216 1_565 S
Co112 O114 2.091 . S
Co112 O116 2.004 . S
Co112 O122 2.021 1_565 S
Co112 O124 2.137 . S
Co112 O125 2.244 1_565 S
O113 Co112 2.216 1_545 S
O113 C120 1.247 1_545 S
O114 Co112 2.091 . S
O114 C120 1.261 . S
C115 O124 1.247 1_545 S
C115 O125 1.272 . S
O116 Co112 2.004 . S
O116 C121 1.259 . S
Co117 O118 2.061 . S
Co117 O123 2.052 . S
Co117 O125 2.135 . S
O118 Co117 2.061 . S
O118 C121 1.235 1_545 S
C119 O122 1.238 . S
C119 O123 1.241 . S
C120 O113 1.247 1_565 S
C120 O114 1.261 . S
C121 O116 1.259 . S
C121 O118 1.235 1_565 S
O122 Co112 2.021 1_545 S
O122 C119 1.238 . S
O123 Co117 2.052 . S
O123 C119 1.241 . S
O124 Co112 2.137 . S
O124 C115 1.247 1_565 S
O125 Co112 2.244 1_545 S
O125 C115 1.272 . S
O125 Co117 2.135 . S
Co126 O127 2.216 . S
Co126 O128 2.091 . S
Co126 O130 2.004 . S
Co126 O136 2.021 . S
Co126 O138 2.137 . S
Co126 O139 2.244 . S
O127 Co126 2.216 . S
O127 C134 1.247 . S
O128 Co126 2.091 . S
O128 C134 1.261 . S
C129 O138 1.247 . S
C129 O139 1.272 . S
O130 Co126 2.004 . S
O130 C135 1.259 . S
Co131 O132 2.061 . S
Co131 O137 2.052 . S
Co131 O139 2.135 . S
O132 Co131 2.061 . S
O132 C135 1.235 . S
C133 O136 1.238 . S
C133 O137 1.241 . S
C134 O127 1.247 . S
C134 O128 1.261 . S
C135 O130 1.259 . S
C135 O132 1.235 . S
O136 Co126 2.021 . S
O136 C133 1.238 . S
O137 Co131 2.052 . S
O137 C133 1.241 . S
O138 Co126 2.137 . S
O138 C129 1.247 . S
O139 Co126 2.244 . S
O139 C129 1.272 . S
O139 Co131 2.135 . S
Co140 O141 2.216 1_565 S
Co140 O142 2.091 . S
Co140 O144 2.004 . S
Co140 O150 2.021 1_565 S
Co140 O152 2.137 . S
Co140 O153 2.244 1_565 S
O141 Co140 2.216 1_545 S
O141 C148 1.247 1_545 S
O142 Co140 2.091 . S
O142 C148 1.261 . S
C143 O152 1.247 1_545 S
C143 O153 1.272 . S
O144 Co140 2.004 . S
O144 C149 1.259 . S
Co145 O146 2.061 . S
Co145 O151 2.052 . S
Co145 O153 2.135 . S
O146 Co145 2.061 . S
O146 C149 1.235 1_545 S
C147 O150 1.238 . S
C147 O151 1.241 . S
C148 O141 1.247 1_565 S
C148 O142 1.261 . S
C149 O144 1.259 . S
C149 O146 1.235 1_565 S
O150 Co140 2.021 1_545 S
O150 C147 1.238 . S
O151 Co145 2.052 . S
O151 C147 1.241 . S
O152 Co140 2.137 . S
O152 C143 1.247 1_565 S
O153 Co140 2.244 1_545 S
O153 C143 1.272 . S
O153 Co145 2.135 . S
Co154 O155 2.216 . S
Co154 O156 2.091 . S
Co154 O158 2.004 1_554 S
Co154 O164 2.021 1_554 S
Co154 O166 2.137 . S
Co154 O167 2.244 . S
O155 Co154 2.216 . S
O155 C162 1.247 . S
O156 Co154 2.091 . S
O156 C162 1.261 . S
C157 O166 1.247 . S
C157 O167 1.272 . S
O158 Co154 2.004 1_556 S
O158 C163 1.259 . S
Co159 O160 2.061 . S
Co159 O165 2.052 . S
Co159 O167 2.135 1_556 S
O160 Co159 2.061 . S
O160 C163 1.235 . S
C161 O164 1.238 . S
C161 O165 1.241 . S
C162 O155 1.247 . S
C162 O156 1.261 . S
C163 O158 1.259 . S
C163 O160 1.235 . S
O164 Co154 2.021 1_556 S
O164 C161 1.238 . S
O165 Co159 2.052 . S
O165 C161 1.241 . S
O166 Co154 2.137 . S
O166 C157 1.247 . S
O167 Co154 2.244 . S
O167 C157 1.272 . S
O167 Co159 2.135 1_554 S
Co168 O169 2.216 1_556 S
Co168 O170 2.091 . S
Co168 O172 2.004 . S
Co168 O178 2.021 1_556 S
Co168 O180 2.140 . S
Co168 O181 2.244 1_556 S
O169 Co168 2.216 1_554 S
O169 C176 1.247 1_554 S
O170 Co168 2.091 . S
O170 C176 1.261 . S
C171 O180 1.228 1_554 S
C171 O181 1.272 . S
O172 Co168 2.004 . S
O172 C177 1.259 . S
Co173 O174 2.061 . S
Co173 O179 2.052 . S
Co173 O181 2.135 . S
O174 Co173 2.061 . S
O174 C177 1.235 1_554 S
C175 O178 1.238 . S
C175 O179 1.241 . S
C176 O169 1.247 1_556 S
C176 O170 1.261 . S
C177 O172 1.259 . S
C177 O174 1.235 1_556 S
O178 Co168 2.021 1_554 S
O178 C175 1.238 . S
O179 Co173 2.052 . S
O179 C175 1.241 . S
O180 Co168 2.140 . S
O180 C171 1.228 1_556 S
O181 Co168 2.244 1_554 S
O181 C171 1.272 . S
O181 Co173 2.135 . S
Co182 O183 2.216 1_556 S
Co182 O184 2.091 . S
Co182 O186 2.004 . S
Co182 O192 2.021 1_556 S
Co182 O194 2.137 . S
Co182 O195 2.244 1_556 S
O183 Co182 2.216 1_554 S
O183 C190 1.247 1_554 S
O184 Co182 2.091 . S
O184 C190 1.261 . S
C185 O194 1.247 1_554 S
C185 O195 1.272 . S
O186 Co182 2.004 . S
O186 C191 1.259 . S
Co187 O188 2.061 . S
Co187 O193 2.052 . S
Co187 O195 2.135 . S
O188 Co187 2.061 . S
O188 C191 1.235 1_554 S
C189 O192 1.238 . S
C189 O193 1.241 . S
C190 O183 1.247 1_556 S
C190 O184 1.261 . S
C191 O186 1.259 . S
C191 O188 1.235 1_556 S
O192 Co182 2.021 1_554 S
O192 C189 1.238 . S
O193 Co187 2.052 . S
O193 C189 1.241 . S
O194 Co182 2.137 . S
O194 C185 1.247 1_556 S
O195 Co182 2.244 1_554 S
O195 C185 1.272 . S
O195 Co187 2.135 . S
Co196 O197 2.216 . S
Co196 O198 2.091 . S
Co196 O200 2.004 . S
Co196 O206 2.021 . S
Co196 O208 2.137 . S
Co196 O209 2.244 . S
O197 Co196 2.216 . S
O197 C204 1.247 . S
O198 Co196 2.091 . S
O198 C204 1.261 . S
C199 O208 1.247 . S
C199 O209 1.272 . S
O200 Co196 2.004 . S
O200 C205 1.259 . S
Co201 O202 2.061 . S
Co201 O207 2.052 . S
Co201 O209 2.135 . S
O202 Co201 2.061 . S
O202 C205 1.235 . S
C203 O206 1.238 . S
C203 O207 1.241 . S
C204 O197 1.247 . S
C204 O198 1.261 . S
C205 O200 1.259 . S
C205 O202 1.235 . S
O206 Co196 2.021 . S
O206 C203 1.238 . S
O207 Co201 2.052 . S
O207 C203 1.241 . S
O208 Co196 2.137 . S
O208 C199 1.247 . S
O209 Co196 2.244 . S
O209 C199 1.272 . S
O209 Co201 2.135 . S
Co210 O211 2.216 . S
Co210 O212 2.091 . S
Co210 O214 2.004 . S
Co210 O220 2.021 . S
Co210 O222 2.137 . S
Co210 O223 2.244 . S
O211 Co210 2.216 . S
O211 C218 1.247 . S
O212 Co210 2.091 . S
O212 C218 1.261 . S
C213 O222 1.247 . S
C213 O223 1.272 . S
O214 Co210 2.004 . S
O214 C219 1.259 . S
Co215 O216 2.061 . S
Co215 O221 2.052 . S
Co215 O223 2.135 . S
O216 Co215 2.061 . S
O216 C219 1.235 . S
C217 O220 1.238 . S
C217 O221 1.241 . S
C218 O211 1.247 . S
C218 O212 1.261 . S
C219 O214 1.259 . S
C219 O216 1.235 . S
O220 Co210 2.021 . S
O220 C217 1.238 . S
O221 Co215 2.052 . S
O221 C217 1.241 . S
O222 Co210 2.137 . S
O222 C213 1.247 . S
O223 Co210 2.244 . S
O223 C213 1.272 . S
O223 Co215 2.135 . S
Co224 O225 2.216 . S
Co224 O226 2.091 . S
Co224 O228 2.004 1_565 S
Co224 O234 2.021 1_565 S
Co224 O236 2.137 . S
Co224 O237 2.244 . S
O225 Co224 2.216 . S
O225 C232 1.247 . S
O226 Co224 2.091 . S
O226 C232 1.261 . S
C227 O236 1.247 . S
C227 O237 1.272 . S
O228 Co224 2.004 1_545 S
O228 C233 1.259 . S
Co229 O230 2.061 . S
Co229 O235 2.052 . S
Co229 O237 2.135 1_545 S
O230 Co229 2.061 . S
O230 C233 1.235 . S
C231 O234 1.238 . S
C231 O235 1.241 . S
C232 O225 1.247 . S
C232 O226 1.261 . S
C233 O228 1.259 . S
C233 O230 1.235 . S
O234 Co224 2.021 1_545 S
O234 C231 1.238 . S
O235 Co229 2.052 . S
O235 C231 1.241 . S
O236 Co224 2.137 . S
O236 C227 1.247 . S
O237 Co224 2.244 . S
O237 C227 1.272 . S
O237 Co229 2.135 1_565 S
Co238 O239 2.216 . S
Co238 O240 2.091 . S
Co238 O242 2.004 . S
Co238 O248 2.021 . S
Co238 O250 2.137 . S
Co238 O251 2.244 . S
O239 Co238 2.216 . S
O239 C246 1.247 . S
O240 Co238 2.091 . S
O240 C246 1.261 . S
C241 O250 1.247 . S
C241 O251 1.272 . S
O242 Co238 2.004 . S
O242 C247 1.259 . S
Co243 O244 2.061 . S
Co243 O249 2.052 . S
Co243 O251 2.135 . S
O244 Co243 2.061 . S
O244 C247 1.235 . S
C245 O248 1.238 . S
C245 O249 1.241 . S
C246 O239 1.247 . S
C246 O240 1.261 . S
C247 O242 1.259 . S
C247 O244 1.235 . S
O248 Co238 2.021 . S
O248 C245 1.238 . S
O249 Co243 2.052 . S
O249 C245 1.241 . S
O250 Co238 2.137 . S
O250 C241 1.247 . S
O251 Co238 2.244 . S
O251 C241 1.272 . S
O251 Co243 2.135 . S
Co252 O253 2.216 . S
Co252 O254 2.091 . S
Co252 O256 2.004 . S
Co252 O262 2.021 . S
Co252 O264 2.137 . S
Co252 O265 2.244 . S
O253 Co252 2.216 . S
O253 C260 1.247 . S
O254 Co252 2.091 . S
O254 C260 1.261 . S
C255 O264 1.247 . S
C255 O265 1.272 . S
O256 Co252 2.004 . S
O256 C261 1.259 . S
Co257 O258 2.061 . S
Co257 O263 2.052 . S
Co257 O265 2.135 . S
O258 Co257 2.061 . S
O258 C261 1.235 . S
C259 O262 1.238 . S
C259 O263 1.241 . S
C260 O253 1.247 . S
C260 O254 1.261 . S
C261 O256 1.259 . S
C261 O258 1.235 . S
O262 Co252 2.021 . S
O262 C259 1.238 . S
O263 Co257 2.052 . S
O263 C259 1.241 . S
O264 Co252 2.137 . S
O264 C255 1.247 . S
O265 Co252 2.244 . S
O265 C255 1.272 . S
O265 Co257 2.135 . S
Co266 O267 2.216 . S
Co266 O268 2.091 . S
Co266 O270 2.004 1_565 S
Co266 O276 2.021 1_565 S
Co266 O278 2.137 . S
Co266 O279 2.244 . S
O267 Co266 2.216 . S
O267 C274 1.247 . S
O268 Co266 2.091 . S
O268 C274 1.261 . S
C269 O278 1.247 . S
C269 O279 1.272 . S
O270 Co266 2.004 1_545 S
O270 C275 1.259 . S
Co271 O272 2.061 . S
Co271 O277 2.052 . S
Co271 O279 2.135 1_545 S
O272 Co271 2.061 . S
O272 C275 1.235 . S
C273 O276 1.238 . S
C273 O277 1.241 . S
C274 O267 1.247 . S
C274 O268 1.261 . S
C275 O270 1.259 . S
C275 O272 1.235 . S
O276 Co266 2.021 1_545 S
O276 C273 1.238 . S
O277 Co271 2.052 . S
O277 C273 1.241 . S
O278 Co266 2.137 . S
O278 C269 1.247 . S
O279 Co266 2.244 . S
O279 C269 1.272 . S
O279 Co271 2.135 1_565 S
Co280 O281 2.216 . S
Co280 O282 2.091 . S
Co280 O284 2.004 1_554 S
Co280 O290 2.021 1_554 S
Co280 O292 2.137 . S
Co280 O293 2.244 . S
O281 Co280 2.216 . S
O281 C288 1.247 . S
O282 Co280 2.091 . S
O282 C288 1.261 . S
C283 O292 1.247 . S
C283 O293 1.272 . S
O284 Co280 2.004 1_556 S
O284 C289 1.259 . S
Co285 O286 2.061 . S
Co285 O291 2.052 . S
Co285 O293 2.135 1_556 S
O286 Co285 2.061 . S
O286 C289 1.235 . S
C287 O290 1.238 . S
C287 O291 1.241 . S
C288 O281 1.247 . S
C288 O282 1.261 . S
C289 O284 1.259 . S
C289 O286 1.235 . S
O290 Co280 2.021 1_556 S
O290 C287 1.238 . S
O291 Co285 2.052 . S
O291 C287 1.241 . S
O292 Co280 2.137 . S
O292 C283 1.247 . S
O293 Co280 2.244 . S
O293 C283 1.272 . S
O293 Co285 2.135 1_554 S
Co294 O295 2.216 . S
Co294 O296 2.091 . S
Co294 O298 2.004 . S
Co294 O304 2.021 . S
Co294 O306 2.137 . S
Co294 O307 2.244 . S
O295 Co294 2.216 . S
O295 C302 1.247 . S
O296 Co294 2.091 . S
O296 C302 1.261 . S
C297 O306 1.247 . S
C297 O307 1.272 . S
O298 Co294 2.004 . S
O298 C303 1.259 . S
Co299 O300 2.061 . S
Co299 O305 2.052 . S
Co299 O307 2.135 . S
O300 Co299 2.061 . S
O300 C303 1.235 . S
C301 O304 1.238 . S
C301 O305 1.241 . S
C302 O295 1.247 . S
C302 O296 1.261 . S
C303 O298 1.259 . S
C303 O300 1.235 . S
O304 Co294 2.021 . S
O304 C301 1.238 . S
O305 Co299 2.052 . S
O305 C301 1.241 . S
O306 Co294 2.137 . S
O306 C297 1.247 . S
O307 Co294 2.244 . S
O307 C297 1.272 . S
O307 Co299 2.135 . S
Co308 O309 2.216 . S
Co308 O310 2.091 . S
Co308 O312 2.004 . S
Co308 O318 2.021 . S
Co308 O320 2.137 . S
Co308 O321 2.244 . S
O309 Co308 2.216 . S
O309 C316 1.247 . S
O310 Co308 2.091 . S
O310 C316 1.261 . S
C311 O320 1.247 . S
C311 O321 1.272 . S
O312 Co308 2.004 . S
O312 C317 1.259 . S
Co313 O314 2.061 . S
Co313 O319 2.052 . S
Co313 O321 2.135 . S
O314 Co313 2.061 . S
O314 C317 1.235 . S
C315 O318 1.238 . S
C315 O319 1.241 . S
C316 O309 1.247 . S
C316 O310 1.261 . S
C317 O312 1.259 . S
C317 O314 1.235 . S
O318 Co308 2.021 . S
O318 C315 1.238 . S
O319 Co313 2.052 . S
O319 C315 1.241 . S
O320 Co308 2.137 . S
O320 C311 1.247 . S
O321 Co308 2.244 . S
O321 C311 1.272 . S
O321 Co313 2.135 . S
Co322 O323 2.216 . S
Co322 O324 2.091 . S
Co322 O326 2.004 . S
Co322 O332 2.021 . S
Co322 O334 2.137 . S
Co322 O335 2.244 . S
O323 Co322 2.216 . S
O323 C330 1.247 . S
O324 Co322 2.091 . S
O324 C330 1.261 . S
C325 O334 1.247 . S
C325 O335 1.272 . S
O326 Co322 2.004 . S
O326 C331 1.259 . S
Co327 O328 2.061 . S
Co327 O333 2.052 . S
Co327 O335 2.135 . S
O328 Co327 2.061 . S
O328 C331 1.235 . S
C329 O332 1.238 . S
C329 O333 1.241 . S
C330 O323 1.247 . S
C330 O324 1.261 . S
C331 O326 1.259 . S
C331 O328 1.235 . S
O332 Co322 2.021 . S
O332 C329 1.238 . S
O333 Co327 2.052 . S
O333 C329 1.241 . S
O334 Co322 2.137 . S
O334 C325 1.247 . S
O335 Co322 2.244 . S
O335 C325 1.272 . S
O335 Co327 2.135 . S
Sc336 O339 2.025 . S
Sc336 O346 2.105 . S
Sc336 O349 2.105 . S
Sc336 O352 2.105 . S
Sc336 O355 2.105 1_455 S
Sc337 O339 2.025 . S
Sc337 O347 2.105 . S
Sc337 O351 2.105 . S
Sc337 O353 2.105 . S
Sc337 O357 2.105 1_545 S
Sc338 O339 2.025 . S
Sc338 O348 2.105 . S
Sc338 O350 2.105 . S
Sc338 O354 2.105 . S
Sc338 O356 2.105 1_554 S
O339 Sc336 2.025 . S
O339 Sc337 2.025 . S
O339 Sc338 2.025 . S
C340 O346 1.268 1_556 S
C340 O356 1.268 . S
C341 O347 1.268 1_655 S
C341 O355 1.268 . S
C342 O348 1.268 1_565 S
C342 O357 1.268 . S
C343 O349 1.268 . S
C343 O353 1.268 . S
C344 O350 1.268 . S
C344 O352 1.268 . S
C345 O351 1.268 . S
C345 O354 1.268 . S
O346 Sc336 2.105 . S
O346 C340 1.268 1_554 S
O347 Sc337 2.105 . S
O347 C341 1.268 1_455 S
O348 Sc338 2.105 . S
O348 C342 1.268 1_545 S
O349 Sc336 2.105 . S
O349 C343 1.268 . S
O350 Sc338 2.105 . S
O350 C344 1.268 . S
O351 Sc337 2.105 . S
O351 C345 1.268 . S
O352 Sc336 2.105 . S
O352 C344 1.268 . S
O353 Sc337 2.105 . S
O353 C343 1.268 . S
O354 Sc338 2.105 . S
O354 C345 1.268 . S
O355 Sc336 2.105 1_655 S
O355 C341 1.268 . S
O356 Sc338 2.105 1_556 S
O356 C340 1.268 . S
O357 Sc337 2.105 1_565 S
O357 C342 1.268 . S
Sc358 O361 2.025 . S
Sc358 O368 2.105 . S
Sc358 O371 2.105 . S
Sc358 O374 2.105 . S
Sc358 O377 2.105 . S
Sc359 O361 2.025 . S
Sc359 O369 2.105 . S
Sc359 O373 2.105 . S
Sc359 O375 2.105 . S
Sc359 O379 2.105 1_455 S
Sc360 O361 2.025 . S
Sc360 O370 2.105 . S
Sc360 O372 2.105 . S
Sc360 O376 2.105 . S
Sc360 O378 2.105 1_565 S
O361 Sc358 2.025 . S
O361 Sc359 2.025 . S
O361 Sc360 2.025 . S
C362 O368 1.268 1_545 S
C362 O378 1.268 . S
C363 O369 1.268 . S
C363 O377 1.268 . S
C364 O370 1.268 1_655 S
C364 O379 1.268 . S
C365 O371 1.268 . S
C365 O375 1.268 . S
C366 O372 1.268 . S
C366 O374 1.268 . S
C367 O373 1.268 . S
C367 O376 1.268 . S
O368 Sc358 2.105 . S
O368 C362 1.268 1_565 S
O369 Sc359 2.105 . S
O369 C363 1.268 . S
O370 Sc360 2.105 . S
O370 C364 1.268 1_455 S
O371 Sc358 2.105 . S
O371 C365 1.268 . S
O372 Sc360 2.105 . S
O372 C366 1.268 . S
O373 Sc359 2.105 . S
O373 C367 1.268 . S
O374 Sc358 2.105 . S
O374 C366 1.268 . S
O375 Sc359 2.105 . S
O375 C365 1.268 . S
O376 Sc360 2.105 . S
O376 C367 1.268 . S
O377 Sc358 2.105 . S
O377 C363 1.268 . S
O378 Sc360 2.105 1_545 S
O378 C362 1.268 . S
O379 Sc359 2.105 1_655 S
O379 C364 1.268 . S
Sc380 O383 2.025 . S
Sc380 O390 2.105 . S
Sc380 O393 2.105 . S
Sc380 O396 2.105 . S
Sc380 O399 2.105 . S
Sc381 O383 2.025 . S
Sc381 O391 2.105 . S
Sc381 O395 2.105 . S
Sc381 O397 2.105 . S
Sc381 O401 2.105 . S
Sc382 O383 2.025 . S
Sc382 O392 2.105 . S
Sc382 O394 2.105 . S
Sc382 O398 2.105 1_565 S
Sc382 O400 2.105 . S
O383 Sc380 2.025 . S
O383 Sc381 2.025 . S
O383 Sc382 2.025 . S
C384 O390 1.268 . S
C384 O400 1.268 . S
C385 O391 1.268 . S
C385 O399 1.268 . S
C386 O392 1.268 . S
C386 O401 1.268 . S
C387 O393 1.268 . S
C387 O397 1.268 . S
C388 O394 1.268 . S
C388 O396 1.268 . S
C389 O395 1.268 1_545 S
C389 O398 1.268 . S
O390 Sc380 2.105 . S
O390 C384 1.268 . S
O391 Sc381 2.105 . S
O391 C385 1.268 . S
O392 Sc382 2.105 . S
O392 C386 1.268 . S
O393 Sc380 2.105 . S
O393 C387 1.268 . S
O394 Sc382 2.105 . S
O394 C388 1.268 . S
O395 Sc381 2.105 . S
O395 C389 1.268 1_565 S
O396 Sc380 2.105 . S
O396 C388 1.268 . S
O397 Sc381 2.105 . S
O397 C387 1.268 . S
O398 Sc382 2.105 1_545 S
O398 C389 1.268 . S
O399 Sc380 2.105 . S
O399 C385 1.268 . S
O400 Sc382 2.105 . S
O400 C384 1.268 . S
O401 Sc381 2.105 . S
O401 C386 1.268 . S
Sc402 O405 2.025 . S
Sc402 O412 2.105 . S
Sc402 O415 2.105 . S
Sc402 O418 2.105 1_545 S
Sc402 O421 2.105 . S
Sc403 O405 2.025 . S
Sc403 O413 2.105 . S
Sc403 O417 2.105 . S
Sc403 O419 2.105 . S
Sc403 O423 2.105 . S
Sc404 O405 2.025 . S
Sc404 O414 2.105 . S
Sc404 O416 2.105 . S
Sc404 O420 2.105 1_556 S
Sc404 O422 2.105 . S
O405 Sc402 2.025 . S
O405 Sc403 2.025 . S
O405 Sc404 2.025 . S
C406 O412 1.268 . S
C406 O422 1.268 . S
C407 O413 1.268 . S
C407 O421 1.268 . S
C408 O414 1.268 . S
C408 O423 1.268 . S
C409 O415 1.268 . S
C409 O419 1.268 . S
C410 O416 1.268 1_565 S
C410 O418 1.268 . S
C411 O417 1.268 1_554 S
C411 O420 1.268 . S
O412 Sc402 2.105 . S
O412 C406 1.268 . S
O413 Sc403 2.105 . S
O413 C407 1.268 . S
O414 Sc404 2.105 . S
O414 C408 1.268 . S
O415 Sc402 2.105 . S
O415 C409 1.268 . S
O416 Sc404 2.105 . S
O416 C410 1.268 1_545 S
O417 Sc403 2.105 . S
O417 C411 1.268 1_556 S
O418 Sc402 2.105 1_565 S
O418 C410 1.268 . S
O419 Sc403 2.105 . S
O419 C409 1.268 . S
O420 Sc404 2.105 1_554 S
O420 C411 1.268 . S
O421 Sc402 2.105 . S
O421 C407 1.268 . S
O422 Sc404 2.105 . S
O422 C406 1.268 . S
O423 Sc403 2.105 . S
O423 C408 1.268 . S
Sc424 O427 2.025 . S
Sc424 O434 2.105 . S
Sc424 O437 2.105 . S
Sc424 O440 2.105 . S
Sc424 O443 2.105 1_556 S
Sc425 O427 2.025 . S
Sc425 O435 2.105 . S
Sc425 O439 2.105 . S
Sc425 O441 2.105 . S
Sc425 O445 2.105 . S
Sc426 O427 2.025 . S
Sc426 O436 2.105 . S
Sc426 O438 2.105 . S
Sc426 O442 2.105 . S
Sc426 O444 2.105 . S
O427 Sc424 2.025 . S
O427 Sc425 2.025 . S
O427 Sc426 2.025 . S
C428 O434 1.268 . S
C428 O444 1.268 . S
C429 O435 1.268 1_554 S
C429 O443 1.268 . S
C430 O436 1.268 . S
C430 O445 1.268 . S
C431 O437 1.268 . S
C431 O441 1.268 . S
C432 O438 1.268 . S
C432 O440 1.268 . S
C433 O439 1.268 . S
C433 O442 1.268 . S
O434 Sc424 2.105 . S
O434 C428 1.268 . S
O435 Sc425 2.105 . S
O435 C429 1.268 1_556 S
O436 Sc426 2.105 . S
O436 C430 1.268 . S
O437 Sc424 2.105 . S
O437 C431 1.268 . S
O438 Sc426 2.105 . S
O438 C432 1.268 . S
O439 Sc425 2.105 . S
O439 C433 1.268 . S
O440 Sc424 2.105 . S
O440 C432 1.268 . S
O441 Sc425 2.105 . S
O441 C431 1.268 . S
O442 Sc426 2.105 . S
O442 C433 1.268 . S
O443 Sc424 2.105 1_554 S
O443 C429 1.268 . S
O444 Sc426 2.105 . S
O444 C428 1.268 . S
O445 Sc425 2.105 . S
O445 C430 1.268 . S
Sc446 O449 2.025 . S
Sc446 O456 2.105 . S
Sc446 O459 2.105 . S
Sc446 O462 2.105 . S
Sc446 O465 2.105 1_655 S
Sc447 O449 2.025 . S
Sc447 O457 2.105 . S
Sc447 O461 2.105 . S
Sc447 O463 2.105 . S
Sc447 O467 2.105 . S
Sc448 O449 2.025 . S
Sc448 O458 2.105 . S
Sc448 O460 2.105 . S
Sc448 O464 2.105 . S
Sc448 O466 2.105 1_554 S
O449 Sc446 2.025 . S
O449 Sc447 2.025 . S
O449 Sc448 2.025 . S
C450 O456 1.268 1_556 S
C450 O466 1.268 . S
C451 O457 1.268 1_455 S
C451 O465 1.268 . S
C452 O458 1.268 . S
C452 O467 1.268 . S
C453 O459 1.268 . S
C453 O463 1.268 . S
C454 O460 1.268 . S
C454 O462 1.268 . S
C455 O461 1.268 . S
C455 O464 1.268 . S
O456 Sc446 2.105 . S
O456 C450 1.268 1_554 S
O457 Sc447 2.105 . S
O457 C451 1.268 1_655 S
O458 Sc448 2.105 . S
O458 C452 1.268 . S
O459 Sc446 2.105 . S
O459 C453 1.268 . S
O460 Sc448 2.105 . S
O460 C454 1.268 . S
O461 Sc447 2.105 . S
O461 C455 1.268 . S
O462 Sc446 2.105 . S
O462 C454 1.268 . S
O463 Sc447 2.105 . S
O463 C453 1.268 . S
O464 Sc448 2.105 . S
O464 C455 1.268 . S
O465 Sc446 2.105 1_455 S
O465 C451 1.268 . S
O466 Sc448 2.105 1_556 S
O466 C450 1.268 . S
O467 Sc447 2.105 . S
O467 C452 1.268 . S
Sc468 O471 2.025 . S
Sc468 O478 2.105 . S
Sc468 O481 2.105 . S
Sc468 O484 2.105 . S
Sc468 O487 2.105 . S
Sc469 O471 2.025 . S
Sc469 O479 2.105 . S
Sc469 O483 2.105 . S
Sc469 O485 2.105 1_655 S
Sc469 O489 2.105 . S
Sc470 O471 2.025 . S
Sc470 O480 2.105 . S
Sc470 O482 2.105 . S
Sc470 O486 2.105 . S
Sc470 O488 2.105 . S
O471 Sc468 2.025 . S
O471 Sc469 2.025 . S
O471 Sc470 2.025 . S
C472 O478 1.268 . S
C472 O488 1.268 . S
C473 O479 1.268 . S
C473 O487 1.268 . S
C474 O480 1.268 . S
C474 O489 1.268 . S
C475 O481 1.268 1_455 S
C475 O485 1.268 . S
C476 O482 1.268 . S
C476 O484 1.268 . S
C477 O483 1.268 . S
C477 O486 1.268 . S
O478 Sc468 2.105 . S
O478 C472 1.268 . S
O479 Sc469 2.105 . S
O479 C473 1.268 . S
O480 Sc470 2.105 . S
O480 C474 1.268 . S
O481 Sc468 2.105 . S
O481 C475 1.268 1_655 S
O482 Sc470 2.105 . S
O482 C476 1.268 . S
O483 Sc469 2.105 . S
O483 C477 1.268 . S
O484 Sc468 2.105 . S
O484 C476 1.268 . S
O485 Sc469 2.105 1_455 S
O485 C475 1.268 . S
O486 Sc470 2.105 . S
O486 C477 1.268 . S
O487 Sc468 2.105 . S
O487 C473 1.268 . S
O488 Sc470 2.105 . S
O488 C472 1.268 . S
O489 Sc469 2.105 . S
O489 C474 1.268 . S
Sc490 O493 2.025 . S
Sc490 O500 2.105 1_655 S
Sc490 O503 2.105 . S
Sc490 O506 2.105 . S
Sc490 O509 2.105 . S
Sc491 O493 2.025 . S
Sc491 O501 2.105 1_556 S
Sc491 O505 2.105 . S
Sc491 O507 2.105 . S
Sc491 O511 2.105 . S
Sc492 O493 2.025 . S
Sc492 O502 2.105 1_565 S
Sc492 O504 2.105 . S
Sc492 O508 2.105 . S
Sc492 O510 2.105 . S
O493 Sc490 2.025 . S
O493 Sc491 2.025 . S
O493 Sc492 2.025 . S
C494 O500 1.268 . S
C494 O510 1.268 1_455 S
C495 O501 1.268 . S
C495 O509 1.268 1_554 S
C496 O502 1.268 . S
C496 O511 1.268 1_545 S
C497 O503 1.268 . S
C497 O507 1.268 . S
C498 O504 1.268 . S
C498 O506 1.268 . S
C499 O505 1.268 . S
C499 O508 1.268 . S
O500 Sc490 2.105 1_455 S
O500 C494 1.268 . S
O501 Sc491 2.105 1_554 S
O501 C495 1.268 . S
O502 Sc492 2.105 1_545 S
O502 C496 1.268 . S
O503 Sc490 2.105 . S
O503 C497 1.268 . S
O504 Sc492 2.105 . S
O504 C498 1.268 . S
O505 Sc491 2.105 . S
O505 C499 1.268 . S
O506 Sc490 2.105 . S
O506 C498 1.268 . S
O507 Sc491 2.105 . S
O507 C497 1.268 . S
O508 Sc492 2.105 . S
O508 C499 1.268 . S
O509 Sc490 2.105 . S
O509 C495 1.268 1_556 S
O510 Sc492 2.105 . S
O510 C494 1.268 1_655 S
O511 Sc491 2.105 . S
O511 C496 1.268 1_565 S
Sc512 O515 2.025 . S
Sc512 O522 2.105 . S
Sc512 O525 2.105 . S
Sc512 O528 2.105 . S
Sc512 O531 2.105 . S
Sc513 O515 2.025 . S
Sc513 O523 2.105 . S
Sc513 O527 2.105 1_655 S
Sc513 O529 2.105 . S
Sc513 O533 2.105 . S
Sc514 O515 2.025 . S
Sc514 O524 2.105 . S
Sc514 O526 2.105 1_545 S
Sc514 O530 2.105 . S
Sc514 O532 2.105 . S
O515 Sc512 2.025 . S
O515 Sc513 2.025 . S
O515 Sc514 2.025 . S
C516 O522 1.268 . S
C516 O532 1.268 . S
C517 O523 1.268 . S
C517 O531 1.268 . S
C518 O524 1.268 . S
C518 O533 1.268 . S
C519 O525 1.268 . S
C519 O529 1.268 . S
C520 O526 1.268 . S
C520 O528 1.268 1_565 S
C521 O527 1.268 . S
C521 O530 1.268 1_455 S
O522 Sc512 2.105 . S
O522 C516 1.268 . S
O523 Sc513 2.105 . S
O523 C517 1.268 . S
O524 Sc514 2.105 . S
O524 C518 1.268 . S
O525 Sc512 2.105 . S
O525 C519 1.268 . S
O526 Sc514 2.105 1_565 S
O526 C520 1.268 . S
O527 Sc513 2.105 1_455 S
O527 C521 1.268 . S
O528 Sc512 2.105 . S
O528 C520 1.268 1_545 S
O529 Sc513 2.105 . S
O529 C519 1.268 . S
O530 Sc514 2.105 . S
O530 C521 1.268 1_655 S
O531 Sc512 2.105 . S
O531 C517 1.268 . S
O532 Sc514 2.105 . S
O532 C516 1.268 . S
O533 Sc513 2.105 . S
O533 C518 1.268 . S
Sc534 O537 2.025 . S
Sc534 O544 2.105 . S
Sc534 O547 2.115 . S
Sc534 O550 2.105 . S
Sc534 O553 2.105 . S
Sc535 O537 2.025 . S
Sc535 O545 2.105 . S
Sc535 O549 2.105 . S
Sc535 O551 2.105 . S
Sc535 O555 2.105 . S
Sc536 O537 2.025 . S
Sc536 O546 2.105 . S
Sc536 O548 2.105 . S
Sc536 O552 2.105 . S
Sc536 O554 2.105 . S
O537 Sc534 2.025 . S
O537 Sc535 2.025 . S
O537 Sc536 2.025 . S
C538 O544 1.268 . S
C538 O554 1.268 . S
C539 O545 1.268 . S
C539 O553 1.268 . S
C540 O546 1.268 . S
C540 O555 1.268 . S
C541 O547 1.267 1_565 S
C541 O551 1.254 1_565 S
C542 O548 1.268 . S
C542 O550 1.268 . S
C543 O549 1.268 . S
C543 O552 1.268 . S
O544 Sc534 2.105 . S
O544 C538 1.268 . S
O545 Sc535 2.105 . S
O545 C539 1.268 . S
O546 Sc536 2.105 . S
O546 C540 1.268 . S
O547 Sc534 2.115 . S
O547 C541 1.267 1_545 S
O548 Sc536 2.105 . S
O548 C542 1.268 . S
O549 Sc535 2.105 . S
O549 C543 1.268 . S
O550 Sc534 2.105 . S
O550 C542 1.268 . S
O551 Sc535 2.105 . S
O551 C541 1.254 1_545 S
O552 Sc536 2.105 . S
O552 C543 1.268 . S
O553 Sc534 2.105 . S
O553 C539 1.268 . S
O554 Sc536 2.105 . S
O554 C538 1.268 . S
O555 Sc535 2.105 . S
O555 C540 1.268 . S
Sc556 O559 2.025 . S
Sc556 O566 2.105 . S
Sc556 O569 2.105 1_554 S
Sc556 O572 2.105 . S
Sc556 O575 2.105 . S
Sc557 O559 2.025 . S
Sc557 O567 2.105 . S
Sc557 O571 2.105 . S
Sc557 O573 2.105 . S
Sc557 O577 2.105 . S
Sc558 O559 2.025 . S
Sc558 O568 2.105 . S
Sc558 O570 2.105 1_565 S
Sc558 O574 2.105 . S
Sc558 O576 2.105 . S
O559 Sc556 2.025 . S
O559 Sc557 2.025 . S
O559 Sc558 2.025 . S
C560 O566 1.268 . S
C560 O576 1.268 . S
C561 O567 1.268 . S
C561 O575 1.268 . S
C562 O568 1.268 . S
C562 O577 1.268 . S
C563 O569 1.268 . S
C563 O573 1.268 1_556 S
C564 O570 1.268 . S
C564 O572 1.268 1_545 S
C565 O571 1.268 . S
C565 O574 1.268 . S
O566 Sc556 2.105 . S
O566 C560 1.268 . S
O567 Sc557 2.105 . S
O567 C561 1.268 . S
O568 Sc558 2.105 . S
O568 C562 1.268 . S
O569 Sc556 2.105 1_556 S
O569 C563 1.268 . S
O570 Sc558 2.105 1_545 S
O570 C564 1.268 . S
O571 Sc557 2.105 . S
O571 C565 1.268 . S
O572 Sc556 2.105 . S
O572 C564 1.268 1_565 S
O573 Sc557 2.105 . S
O573 C563 1.268 1_554 S
O574 Sc558 2.105 . S
O574 C565 1.268 . S
O575 Sc556 2.105 . S
O575 C561 1.268 . S
O576 Sc558 2.105 . S
O576 C560 1.268 . S
O577 Sc557 2.105 . S
O577 C562 1.268 . S
Sc578 O581 2.025 . S
Sc578 O588 2.105 . S
Sc578 O591 2.105 . S
Sc578 O594 2.105 . S
Sc578 O597 2.105 . S
Sc579 O581 2.025 . S
Sc579 O589 2.105 . S
Sc579 O593 2.105 . S
Sc579 O595 2.105 . S
Sc579 O599 2.105 . S
Sc580 O581 2.025 . S
Sc580 O590 2.105 . S
Sc580 O592 2.105 . S
Sc580 O596 2.105 . S
Sc580 O598 2.105 . S
O581 Sc578 2.025 . S
O581 Sc579 2.025 . S
O581 Sc580 2.025 . S
C582 O588 1.268 . S
C582 O598 1.268 . S
C583 O589 1.268 . S
C583 O597 1.268 . S
C584 O590 1.268 . S
C584 O599 1.268 . S
C585 O591 1.268 1_556 S
C585 O595 1.261 1_556 S
C586 O592 1.268 . S
C586 O594 1.268 . S
C587 O593 1.268 . S
C587 O596 1.268 . S
O588 Sc578 2.105 . S
O588 C582 1.268 . S
O589 Sc579 2.105 . S
O589 C583 1.268 . S
O590 Sc580 2.105 . S
O590 C584 1.268 . S
O591 Sc578 2.105 . S
O591 C585 1.268 1_554 S
O592 Sc580 2.105 . S
O592 C586 1.268 . S
O593 Sc579 2.105 . S
O593 C587 1.268 . S
O594 Sc578 2.105 . S
O594 C586 1.268 . S
O595 Sc579 2.105 . S
O595 C585 1.261 1_554 S
O596 Sc580 2.105 . S
O596 C587 1.268 . S
O597 Sc578 2.105 . S
O597 C583 1.268 . S
O598 Sc580 2.105 . S
O598 C582 1.268 . S
O599 Sc579 2.105 . S
O599 C584 1.268 . S
Sc600 O603 2.025 . S
Sc600 O610 2.105 . S
Sc600 O613 2.105 . S
Sc600 O616 2.105 . S
Sc600 O619 2.105 . S
Sc601 O603 2.025 . S
Sc601 O611 2.105 . S
Sc601 O615 2.105 1_556 S
Sc601 O617 2.105 . S
Sc601 O621 2.105 . S
Sc602 O603 2.025 . S
Sc602 O612 2.105 . S
Sc602 O614 2.105 1_455 S
Sc602 O618 2.105 . S
Sc602 O620 2.105 . S
O603 Sc600 2.025 . S
O603 Sc601 2.025 . S
O603 Sc602 2.025 . S
C604 O610 1.268 . S
C604 O620 1.268 . S
C605 O611 1.268 . S
C605 O619 1.268 . S
C606 O612 1.268 . S
C606 O621 1.268 . S
C607 O613 1.268 . S
C607 O617 1.268 . S
C608 O614 1.268 . S
C608 O616 1.268 1_655 S
C609 O615 1.268 . S
C609 O618 1.268 1_554 S
O610 Sc600 2.105 . S
O610 C604 1.268 . S
O611 Sc601 2.105 . S
O611 C605 1.268 . S
O612 Sc602 2.105 . S
O612 C606 1.268 . S
O613 Sc600 2.105 . S
O613 C607 1.268 . S
O614 Sc602 2.105 1_655 S
O614 C608 1.268 . S
O615 Sc601 2.105 1_554 S
O615 C609 1.268 . S
O616 Sc600 2.105 . S
O616 C608 1.268 1_455 S
O617 Sc601 2.105 . S
O617 C607 1.268 . S
O618 Sc602 2.105 . S
O618 C609 1.268 1_556 S
O619 Sc600 2.105 . S
O619 C605 1.268 . S
O620 Sc602 2.105 . S
O620 C604 1.268 . S
O621 Sc601 2.105 . S
O621 C606 1.268 . S
Sc622 O625 2.025 . S
Sc622 O632 2.105 . S
Sc622 O635 2.105 . S
Sc622 O638 2.105 . S
Sc622 O641 2.105 . S
Sc623 O625 2.025 . S
Sc623 O633 2.105 . S
Sc623 O637 2.108 . S
Sc623 O639 2.105 . S
Sc623 O643 2.105 . S
Sc624 O625 2.025 . S
Sc624 O634 2.105 . S
Sc624 O636 2.105 . S
Sc624 O640 2.105 . S
Sc624 O642 2.105 . S
O625 Sc622 2.025 . S
O625 Sc623 2.025 . S
O625 Sc624 2.025 . S
C626 O632 1.268 . S
C626 O642 1.268 . S
C627 O633 1.268 . S
C627 O641 1.268 . S
C628 O634 1.268 . S
C628 O643 1.268 . S
C629 O635 1.268 . S
C629 O639 1.268 . S
C630 O636 1.268 . S
C630 O638 1.268 . S
C631 O637 1.268 1_655 S
C631 O640 1.268 1_655 S
O632 Sc622 2.105 . S
O632 C626 1.268 . S
O633 Sc623 2.105 . S
O633 C627 1.268 . S
O634 Sc624 2.105 . S
O634 C628 1.268 . S
O635 Sc622 2.105 . S
O635 C629 1.268 . S
O636 Sc624 2.105 . S
O636 C630 1.268 . S
O637 Sc623 2.108 . S
O637 C631 1.268 1_455 S
O638 Sc622 2.105 . S
O638 C630 1.268 . S
O639 Sc623 2.105 . S
O639 C629 1.268 . S
O640 Sc624 2.105 . S
O640 C631 1.268 1_455 S
O641 Sc622 2.105 . S
O641 C627 1.268 . S
O642 Sc624 2.105 . S
O642 C626 1.268 . S
O643 Sc623 2.105 . S
O643 C628 1.268 . S
Sc644 O647 2.025 . S
Sc644 O654 2.105 . S
Sc644 O657 2.105 . S
Sc644 O660 2.105 . S
Sc644 O663 2.105 . S
Sc645 O647 2.025 . S
Sc645 O655 2.105 . S
Sc645 O659 2.105 . S
Sc645 O661 2.105 . S
Sc645 O665 2.105 . S
Sc646 O647 2.025 . S
Sc646 O656 2.105 . S
Sc646 O658 2.105 . S
Sc646 O662 2.105 . S
Sc646 O664 2.105 . S
O647 Sc644 2.025 . S
O647 Sc645 2.025 . S
O647 Sc646 2.025 . S
C648 O654 1.268 . S
C648 O664 1.268 . S
C649 O655 1.268 . S
C649 O663 1.268 . S
C650 O656 1.268 . S
C650 O665 1.268 . S
C651 O657 1.268 . S
C651 O661 1.268 . S
C652 O658 1.268 . S
C652 O660 1.268 . S
C653 O659 1.268 . S
C653 O662 1.268 . S
O654 Sc644 2.105 . S
O654 C648 1.268 . S
O655 Sc645 2.105 . S
O655 C649 1.268 . S
O656 Sc646 2.105 . S
O656 C650 1.268 . S
O657 Sc644 2.105 . S
O657 C651 1.268 . S
O658 Sc646 2.105 . S
O658 C652 1.268 . S
O659 Sc645 2.105 . S
O659 C653 1.268 . S
O660 Sc644 2.105 . S
O660 C652 1.268 . S
O661 Sc645 2.105 . S
O661 C651 1.268 . S
O662 Sc646 2.105 . S
O662 C653 1.268 . S
O663 Sc644 2.105 . S
O663 C649 1.268 . S
O664 Sc646 2.105 . S
O664 C648 1.268 . S
O665 Sc645 2.105 . S
O665 C650 1.268 . S
Sc666 O669 2.025 . S
Sc666 O676 2.105 . S
Sc666 O679 2.105 . S
Sc666 O682 2.105 . S
Sc666 O685 2.105 . S
Sc667 O669 2.025 . S
Sc667 O677 2.105 . S
Sc667 O681 2.105 . S
Sc667 O683 2.105 . S
Sc667 O687 2.105 . S
Sc668 O669 2.025 . S
Sc668 O678 2.105 . S
Sc668 O680 2.105 . S
Sc668 O684 2.105 . S
Sc668 O686 2.105 . S
O669 Sc666 2.025 . S
O669 Sc667 2.025 . S
O669 Sc668 2.025 . S
C670 O676 1.268 . S
C670 O686 1.268 . S
C671 O677 1.268 . S
C671 O685 1.268 . S
C672 O678 1.268 . S
C672 O687 1.268 . S
C673 O679 1.268 . S
C673 O683 1.268 . S
C674 O680 1.268 . S
C674 O682 1.268 . S
C675 O681 1.268 . S
C675 O684 1.268 . S
O676 Sc666 2.105 . S
O676 C670 1.268 . S
O677 Sc667 2.105 . S
O677 C671 1.268 . S
O678 Sc668 2.105 . S
O678 C672 1.268 . S
O679 Sc666 2.105 . S
O679 C673 1.268 . S
O680 Sc668 2.105 . S
O680 C674 1.268 . S
O681 Sc667 2.105 . S
O681 C675 1.268 . S
O682 Sc666 2.105 . S
O682 C674 1.268 . S
O683 Sc667 2.105 . S
O683 C673 1.268 . S
O684 Sc668 2.105 . S
O684 C675 1.268 . S
O685 Sc666 2.105 . S
O685 C671 1.268 . S
O686 Sc668 2.105 . S
O686 C670 1.268 . S
O687 Sc667 2.105 . S
O687 C672 1.268 . S
C343 C7 1.525 . S
C23 C363 1.529 . S
C384 C36 1.298 . S
C411 C45 1.376 . S
C367 C59 1.376 . S
C78 C387 1.298 . S
C407 C93 1.529 . S
C105 C340 1.525 . S
C115 C345 1.529 . S
C362 C133 1.372 . S
C386 C148 1.390 . S
C410 C163 1.432 . S
C366 C121 1.432 . S
C389 C134 1.390 . S
C147 C406 1.372 . S
C342 C157 1.529 . S
C175 C344 1.499 . S
C191 C431 1.553 . S
C451 C199 1.346 . S
C474 C218 1.311 . S
C231 C341 1.499 . S
C241 C385 1.345 . S
C475 C205 1.553 . S
C430 C260 1.312 . S
C498 C22 1.059 . S
C519 C9 1.280 . S
C49 C538 1.333 . S
C31 C563 1.164 . S
C101 C518 1.164 . S
C91 C543 1.333 . S
C562 C79 1.280 . S
C64 C495 1.059 . S
C274 C499 1.065 . S
C520 C213 1.165 . S
C539 C233 1.305 . S
C564 C189 1.300 . S
C516 C273 1.299 . S
C541 C219 1.317 . S
C560 C227 1.165 . S
C190 C496 1.064 . S
C497 C289 1.106 . S
C162 C583 1.228 . S
C608 C301 1.198 . S
C129 C627 1.254 . S
C494 C149 1.106 . S
C540 C315 1.198 . S
C631 C302 1.228 . S
C325 C587 1.254 . S
C35 C651 1.525 . S
C51 C429 1.529 . S
C453 C8 1.298 . S
C17 C477 1.376 . S
C87 C433 1.376 . S
C106 C450 1.298 . S
C473 C65 1.529 . S
C648 C77 1.525 . S
C653 C297 1.529 . S
C428 C287 1.371 . S
C455 C330 1.390 . S
C317 C476 1.432 . S
C432 C303 1.432 . S
C288 C452 1.390 . S
C472 C329 1.372 . S
C311 C650 1.529 . S
C652 C217 1.499 . S
C247 C365 1.553 . S
C388 C269 1.345 . S
C176 C408 1.311 . S
C649 C259 1.499 . S
C454 C185 1.345 . S
C409 C275 1.553 . S
C364 C232 1.312 . S
C50 C675 1.059 . S
C37 C585 1.287 . S
C21 C604 1.333 . S
C629 C3 1.164 . S
C584 C73 1.164 . S
C63 C609 1.333 . S
C628 C107 1.280 . S
C92 C670 1.059 . S
C673 C204 1.064 . S
C171 C586 1.165 . S
C261 C605 1.305 . S
C630 C245 1.300 . S
C582 C203 1.300 . S
C177 C607 1.305 . S
C626 C255 1.165 . S
C671 C246 1.064 . S
C674 C135 1.106 . S
C517 C316 1.228 . S
C119 C542 1.198 . S
C283 C561 1.253 . S
C672 C331 1.106 . S
C606 C161 1.198 . S
C565 C120 1.228 . S
C521 C143 1.254 . S
