# Generated by pormake.
# Topology gar, (4,6)-cn, num edge types: 1
# Building blocks:
#     Node 0, Type 0, BuildingBlock: AZAVOO_clean_sbu_0, # of connection points: 4
#     Node 1, Type 0, BuildingBlock: AZAVOO_clean_sbu_0, # of connection points: 4
#     Node 2, Type 0, BuildingBlock: AZAVOO_clean_sbu_0, # of connection points: 4
#     Node 3, Type 0, BuildingBlock: AZAVOO_clean_sbu_0, # of connection points: 4
#     Node 4, Type 0, BuildingBlock: AZAVOO_clean_sbu_0, # of connection points: 4
#     Node 5, Type 0, BuildingBlock: AZAVOO_clean_sbu_0, # of connection points: 4
#     Node 6, Type 0, BuildingBlock: AZAVOO_clean_sbu_0, # of connection points: 4
#     Node 7, Type 0, BuildingBlock: AZAVOO_clean_sbu_0, # of connection points: 4
#     Node 8, Type 0, BuildingBlock: AZAVOO_clean_sbu_0, # of connection points: 4
#     Node 9, Type 0, BuildingBlock: AZAVOO_clean_sbu_0, # of connection points: 4
#     Node 10, Type 0, BuildingBlock: AZAVOO_clean_sbu_0, # of connection points: 4
#     Node 11, Type 0, BuildingBlock: AZAVOO_clean_sbu_0, # of connection points: 4
#     Node 12, Type 0, BuildingBlock: AZAVOO_clean_sbu_0, # of connection points: 4
#     Node 13, Type 0, BuildingBlock: AZAVOO_clean_sbu_0, # of connection points: 4
#     Node 14, Type 0, BuildingBlock: AZAVOO_clean_sbu_0, # of connection points: 4
#     Node 15, Type 0, BuildingBlock: AZAVOO_clean_sbu_0, # of connection points: 4
#     Node 16, Type 0, BuildingBlock: AZAVOO_clean_sbu_0, # of connection points: 4
#     Node 17, Type 0, BuildingBlock: AZAVOO_clean_sbu_0, # of connection points: 4
#     Node 18, Type 0, BuildingBlock: AZAVOO_clean_sbu_0, # of connection points: 4
#     Node 19, Type 0, BuildingBlock: AZAVOO_clean_sbu_0, # of connection points: 4
#     Node 20, Type 0, BuildingBlock: AZAVOO_clean_sbu_0, # of connection points: 4
#     Node 21, Type 0, BuildingBlock: AZAVOO_clean_sbu_0, # of connection points: 4
#     Node 22, Type 0, BuildingBlock: AZAVOO_clean_sbu_0, # of connection points: 4
#     Node 23, Type 0, BuildingBlock: AZAVOO_clean_sbu_0, # of connection points: 4
#     Node 24, Type 1, BuildingBlock: KUMBOL_clean_sbu_1, # of connection points: 6
#     Node 25, Type 1, BuildingBlock: KUMBOL_clean_sbu_1, # of connection points: 6
#     Node 26, Type 1, BuildingBlock: KUMBOL_clean_sbu_1, # of connection points: 6
#     Node 27, Type 1, BuildingBlock: KUMBOL_clean_sbu_1, # of connection points: 6
#     Node 28, Type 1, BuildingBlock: KUMBOL_clean_sbu_1, # of connection points: 6
#     Node 29, Type 1, BuildingBlock: KUMBOL_clean_sbu_1, # of connection points: 6
#     Node 30, Type 1, BuildingBlock: KUMBOL_clean_sbu_1, # of connection points: 6
#     Node 31, Type 1, BuildingBlock: KUMBOL_clean_sbu_1, # of connection points: 6
#     Node 32, Type 1, BuildingBlock: KUMBOL_clean_sbu_1, # of connection points: 6
#     Node 33, Type 1, BuildingBlock: KUMBOL_clean_sbu_1, # of connection points: 6
#     Node 34, Type 1, BuildingBlock: KUMBOL_clean_sbu_1, # of connection points: 6
#     Node 35, Type 1, BuildingBlock: KUMBOL_clean_sbu_1, # of connection points: 6
#     Node 36, Type 1, BuildingBlock: KUMBOL_clean_sbu_1, # of connection points: 6
#     Node 37, Type 1, BuildingBlock: KUMBOL_clean_sbu_1, # of connection points: 6
#     Node 38, Type 1, BuildingBlock: KUMBOL_clean_sbu_1, # of connection points: 6
#     Node 39, Type 1, BuildingBlock: KUMBOL_clean_sbu_1, # of connection points: 6
#     Edge 40, Type (0, 1), BuildingBlock: MIFKUJ_clean_linker_0, # of connection points: 2
#     Edge 41, Type (0, 1), BuildingBlock: MIFKUJ_clean_linker_0, # of connection points: 2
#     Edge 42, Type (0, 1), BuildingBlock: MIFKUJ_clean_linker_0, # of connection points: 2
#     Edge 43, Type (0, 1), BuildingBlock: MIFKUJ_clean_linker_0, # of connection points: 2
#     Edge 44, Type (0, 1), BuildingBlock: MIFKUJ_clean_linker_0, # of connection points: 2
#     Edge 45, Type (0, 1), BuildingBlock: MIFKUJ_clean_linker_0, # of connection points: 2
#     Edge 46, Type (0, 1), BuildingBlock: MIFKUJ_clean_linker_0, # of connection points: 2
#     Edge 47, Type (0, 1), BuildingBlock: MIFKUJ_clean_linker_0, # of connection points: 2
#     Edge 48, Type (0, 1), BuildingBlock: MIFKUJ_clean_linker_0, # of connection points: 2
#     Edge 49, Type (0, 1), BuildingBlock: MIFKUJ_clean_linker_0, # of connection points: 2
#     Edge 50, Type (0, 1), BuildingBlock: MIFKUJ_clean_linker_0, # of connection points: 2
#     Edge 51, Type (0, 1), BuildingBlock: MIFKUJ_clean_linker_0, # of connection points: 2
#     Edge 52, Type (0, 1), BuildingBlock: MIFKUJ_clean_linker_0, # of connection points: 2
#     Edge 53, Type (0, 1), BuildingBlock: MIFKUJ_clean_linker_0, # of connection points: 2
#     Edge 54, Type (0, 1), BuildingBlock: MIFKUJ_clean_linker_0, # of connection points: 2
#     Edge 55, Type (0, 1), BuildingBlock: MIFKUJ_clean_linker_0, # of connection points: 2
#     Edge 56, Type (0, 1), BuildingBlock: MIFKUJ_clean_linker_0, # of connection points: 2
#     Edge 57, Type (0, 1), BuildingBlock: MIFKUJ_clean_linker_0, # of connection points: 2
#     Edge 58, Type (0, 1), BuildingBlock: MIFKUJ_clean_linker_0, # of connection points: 2
#     Edge 59, Type (0, 1), BuildingBlock: MIFKUJ_clean_linker_0, # of connection points: 2
#     Edge 60, Type (0, 1), BuildingBlock: MIFKUJ_clean_linker_0, # of connection points: 2
#     Edge 61, Type (0, 1), BuildingBlock: MIFKUJ_clean_linker_0, # of connection points: 2
#     Edge 62, Type (0, 1), BuildingBlock: MIFKUJ_clean_linker_0, # of connection points: 2
#     Edge 63, Type (0, 1), BuildingBlock: MIFKUJ_clean_linker_0, # of connection points: 2
#     Edge 64, Type (0, 1), BuildingBlock: MIFKUJ_clean_linker_0, # of connection points: 2
#     Edge 65, Type (0, 1), BuildingBlock: MIFKUJ_clean_linker_0, # of connection points: 2
#     Edge 66, Type (0, 1), BuildingBlock: MIFKUJ_clean_linker_0, # of connection points: 2
#     Edge 67, Type (0, 1), BuildingBlock: MIFKUJ_clean_linker_0, # of connection points: 2
#     Edge 68, Type (0, 1), BuildingBlock: MIFKUJ_clean_linker_0, # of connection points: 2
#     Edge 69, Type (0, 1), BuildingBlock: MIFKUJ_clean_linker_0, # of connection points: 2
#     Edge 70, Type (0, 1), BuildingBlock: MIFKUJ_clean_linker_0, # of connection points: 2
#     Edge 71, Type (0, 1), BuildingBlock: MIFKUJ_clean_linker_0, # of connection points: 2
#     Edge 72, Type (0, 1), BuildingBlock: MIFKUJ_clean_linker_0, # of connection points: 2
#     Edge 73, Type (0, 1), BuildingBlock: MIFKUJ_clean_linker_0, # of connection points: 2
#     Edge 74, Type (0, 1), BuildingBlock: MIFKUJ_clean_linker_0, # of connection points: 2
#     Edge 75, Type (0, 1), BuildingBlock: MIFKUJ_clean_linker_0, # of connection points: 2
#     Edge 76, Type (0, 1), BuildingBlock: MIFKUJ_clean_linker_0, # of connection points: 2
#     Edge 77, Type (0, 1), BuildingBlock: MIFKUJ_clean_linker_0, # of connection points: 2
#     Edge 78, Type (0, 1), BuildingBlock: MIFKUJ_clean_linker_0, # of connection points: 2
#     Edge 79, Type (0, 1), BuildingBlock: MIFKUJ_clean_linker_0, # of connection points: 2
#     Edge 80, Type (0, 1), BuildingBlock: MIFKUJ_clean_linker_0, # of connection points: 2
#     Edge 81, Type (0, 1), BuildingBlock: MIFKUJ_clean_linker_0, # of connection points: 2
#     Edge 82, Type (0, 1), BuildingBlock: MIFKUJ_clean_linker_0, # of connection points: 2
#     Edge 83, Type (0, 1), BuildingBlock: MIFKUJ_clean_linker_0, # of connection points: 2
#     Edge 84, Type (0, 1), BuildingBlock: MIFKUJ_clean_linker_0, # of connection points: 2
#     Edge 85, Type (0, 1), BuildingBlock: MIFKUJ_clean_linker_0, # of connection points: 2
#     Edge 86, Type (0, 1), BuildingBlock: MIFKUJ_clean_linker_0, # of connection points: 2
#     Edge 87, Type (0, 1), BuildingBlock: MIFKUJ_clean_linker_0, # of connection points: 2
#     Edge 88, Type (0, 1), BuildingBlock: MIFKUJ_clean_linker_0, # of connection points: 2
#     Edge 89, Type (0, 1), BuildingBlock: MIFKUJ_clean_linker_0, # of connection points: 2
#     Edge 90, Type (0, 1), BuildingBlock: MIFKUJ_clean_linker_0, # of connection points: 2
#     Edge 91, Type (0, 1), BuildingBlock: MIFKUJ_clean_linker_0, # of connection points: 2
#     Edge 92, Type (0, 1), BuildingBlock: MIFKUJ_clean_linker_0, # of connection points: 2
#     Edge 93, Type (0, 1), BuildingBlock: MIFKUJ_clean_linker_0, # of connection points: 2
#     Edge 94, Type (0, 1), BuildingBlock: MIFKUJ_clean_linker_0, # of connection points: 2
#     Edge 95, Type (0, 1), BuildingBlock: MIFKUJ_clean_linker_0, # of connection points: 2
#     Edge 96, Type (0, 1), BuildingBlock: MIFKUJ_clean_linker_0, # of connection points: 2
#     Edge 97, Type (0, 1), BuildingBlock: MIFKUJ_clean_linker_0, # of connection points: 2
#     Edge 98, Type (0, 1), BuildingBlock: MIFKUJ_clean_linker_0, # of connection points: 2
#     Edge 99, Type (0, 1), BuildingBlock: MIFKUJ_clean_linker_0, # of connection points: 2
#     Edge 100, Type (0, 1), BuildingBlock: MIFKUJ_clean_linker_0, # of connection points: 2
#     Edge 101, Type (0, 1), BuildingBlock: MIFKUJ_clean_linker_0, # of connection points: 2
#     Edge 102, Type (0, 1), BuildingBlock: MIFKUJ_clean_linker_0, # of connection points: 2
#     Edge 103, Type (0, 1), BuildingBlock: MIFKUJ_clean_linker_0, # of connection points: 2
#     Edge 104, Type (0, 1), BuildingBlock: MIFKUJ_clean_linker_0, # of connection points: 2
#     Edge 105, Type (0, 1), BuildingBlock: MIFKUJ_clean_linker_0, # of connection points: 2
#     Edge 106, Type (0, 1), BuildingBlock: MIFKUJ_clean_linker_0, # of connection points: 2
#     Edge 107, Type (0, 1), BuildingBlock: MIFKUJ_clean_linker_0, # of connection points: 2
#     Edge 108, Type (0, 1), BuildingBlock: MIFKUJ_clean_linker_0, # of connection points: 2
#     Edge 109, Type (0, 1), BuildingBlock: MIFKUJ_clean_linker_0, # of connection points: 2
#     Edge 110, Type (0, 1), BuildingBlock: MIFKUJ_clean_linker_0, # of connection points: 2
#     Edge 111, Type (0, 1), BuildingBlock: MIFKUJ_clean_linker_0, # of connection points: 2
#     Edge 112, Type (0, 1), BuildingBlock: MIFKUJ_clean_linker_0, # of connection points: 2
#     Edge 113, Type (0, 1), BuildingBlock: MIFKUJ_clean_linker_0, # of connection points: 2
#     Edge 114, Type (0, 1), BuildingBlock: MIFKUJ_clean_linker_0, # of connection points: 2
#     Edge 115, Type (0, 1), BuildingBlock: MIFKUJ_clean_linker_0, # of connection points: 2
#     Edge 116, Type (0, 1), BuildingBlock: MIFKUJ_clean_linker_0, # of connection points: 2
#     Edge 117, Type (0, 1), BuildingBlock: MIFKUJ_clean_linker_0, # of connection points: 2
#     Edge 118, Type (0, 1), BuildingBlock: MIFKUJ_clean_linker_0, # of connection points: 2
#     Edge 119, Type (0, 1), BuildingBlock: MIFKUJ_clean_linker_0, # of connection points: 2
#     Edge 120, Type (0, 1), BuildingBlock: MIFKUJ_clean_linker_0, # of connection points: 2
#     Edge 121, Type (0, 1), BuildingBlock: MIFKUJ_clean_linker_0, # of connection points: 2
#     Edge 122, Type (0, 1), BuildingBlock: MIFKUJ_clean_linker_0, # of connection points: 2
#     Edge 123, Type (0, 1), BuildingBlock: MIFKUJ_clean_linker_0, # of connection points: 2
#     Edge 124, Type (0, 1), BuildingBlock: MIFKUJ_clean_linker_0, # of connection points: 2
#     Edge 125, Type (0, 1), BuildingBlock: MIFKUJ_clean_linker_0, # of connection points: 2
#     Edge 126, Type (0, 1), BuildingBlock: MIFKUJ_clean_linker_0, # of connection points: 2
#     Edge 127, Type (0, 1), BuildingBlock: MIFKUJ_clean_linker_0, # of connection points: 2
#     Edge 128, Type (0, 1), BuildingBlock: MIFKUJ_clean_linker_0, # of connection points: 2
#     Edge 129, Type (0, 1), BuildingBlock: MIFKUJ_clean_linker_0, # of connection points: 2
#     Edge 130, Type (0, 1), BuildingBlock: MIFKUJ_clean_linker_0, # of connection points: 2
#     Edge 131, Type (0, 1), BuildingBlock: MIFKUJ_clean_linker_0, # of connection points: 2
#     Edge 132, Type (0, 1), BuildingBlock: MIFKUJ_clean_linker_0, # of connection points: 2
#     Edge 133, Type (0, 1), BuildingBlock: MIFKUJ_clean_linker_0, # of connection points: 2
#     Edge 134, Type (0, 1), BuildingBlock: MIFKUJ_clean_linker_0, # of connection points: 2
#     Edge 135, Type (0, 1), BuildingBlock: MIFKUJ_clean_linker_0, # of connection points: 2
# Relax obj value: 0.086
# Max RMSD: 0.202
# Mean RMSD: 0.150
data_MOF--net-gar--node1-AZAVOO_clean_sbu_0--node2-KUMBOL_clean_sbu_1--edge1-MIFKUJ_clean_linker_0
_symmetry_space_group_name_H-M    P1
_symmetry_Int_Tables_number       1
_symmetry_cell_setting            triclinic
loop_
_symmetry_equiv_pos_as_xyz
'x, y, z'
_cell_length_a     77.735985
_cell_length_b     75.254503
_cell_length_c     71.876842
_cell_angle_alpha  97.916175
_cell_angle_beta   95.413361
_cell_angle_gamma 101.65548
loop_
_atom_site_label
_atom_site_type_symbol
_atom_site_fract_x
_atom_site_fract_y
_atom_site_fract_z
_atom_type_partial_charge
Mg0 Mg 0.03139 0.28799 0.34121 0.0
O1 O 0.03432 0.31572 0.36299 0.0
O2 O 0.00944 0.31168 0.37676 0.0
Mg3 Mg 0.99087 0.28386 0.3667 0.0
C4 C 0.02428 0.32154 0.3746 0.0
C5 C 0.06715 0.28775 0.31997 0.0
O6 O 0.05472 0.27852 0.30645 0.0
O7 O 0.03683 0.27061 0.3654 0.0
O8 O 0.01093 0.26837 0.37692 0.0
O9 O 0.01207 0.29703 0.31824 0.0
O10 O 0.00287 0.28267 0.3406 0.0
C11 C 0.02593 0.26406 0.37643 0.0
C12 C 0.99877 0.2897 0.32618 0.0
O13 O 0.06226 0.29421 0.33565 0.0
Mg14 Mg 0.01309 0.75399 0.69173 0.0
O15 O 0.0093 0.72624 0.6706 0.0
O16 O 0.98582 0.72464 0.64953 0.0
Mg17 Mg 0.97101 0.74734 0.65925 0.0
C18 C 0.9991 0.71837 0.65538 0.0
C19 C 0.05442 0.7649 0.71242 0.0
O20 O 0.0494 0.7798 0.7195 0.0
O21 O 0.01965 0.77242 0.66827 0.0
O22 O 0.9929 0.76951 0.65182 0.0
O23 O 0.99454 0.74359 0.71367 0.0
O24 O 0.98491 0.75288 0.68828 0.0
C25 C 0.00939 0.77691 0.65545 0.0
C26 C 0.98136 0.74727 0.70375 0.0
O27 O 0.0431 0.75243 0.70106 0.0
Mg28 Mg 0.53031 0.78808 0.84056 0.0
O29 O 0.53303 0.81535 0.86305 0.0
O30 O 0.50812 0.81054 0.87681 0.0
Mg31 Mg 0.48995 0.78246 0.86599 0.0
C32 C 0.5229 0.82072 0.87484 0.0
C33 C 0.56597 0.78424 0.82152 0.0
O34 O 0.55405 0.77025 0.81196 0.0
O35 O 0.53639 0.77046 0.86426 0.0
O36 O 0.51067 0.76766 0.87619 0.0
O37 O 0.51178 0.79781 0.81789 0.0
O38 O 0.50192 0.78319 0.84001 0.0
C39 C 0.52586 0.76383 0.87559 0.0
C40 C 0.49833 0.79096 0.82591 0.0
O41 O 0.56082 0.79494 0.83433 0.0
Mg42 Mg 0.51323 0.25458 0.19163 0.0
O43 O 0.50978 0.22656 0.17127 0.0
O44 O 0.48628 0.22358 0.14973 0.0
Mg45 Mg 0.47138 0.24652 0.15842 0.0
C46 C 0.49967 0.21793 0.15631 0.0
C47 C 0.554 0.26391 0.21441 0.0
O48 O 0.54809 0.27681 0.22448 0.0
O49 O 0.51959 0.27263 0.16784 0.0
O50 O 0.49316 0.2685 0.15035 0.0
O51 O 0.49447 0.24432 0.21349 0.0
O52 O 0.48493 0.25319 0.18782 0.0
C53 C 0.50951 0.27639 0.15436 0.0
C54 C 0.48129 0.24777 0.20336 0.0
O55 O 0.54342 0.25331 0.20075 0.0
Mg56 Mg 0.05016 0.79271 0.11594 0.0
O57 O 0.04692 0.76368 0.0967 0.0
O58 O 0.02022 0.75787 0.07999 0.0
Mg59 Mg 0.00545 0.78094 0.08835 0.0
C60 C 0.03473 0.7531 0.0845 0.0
C61 C 0.08405 0.79155 0.14251 0.0
O62 O 0.07106 0.79011 0.153 0.0
O63 O 0.05289 0.81198 0.09178 0.0
O64 O 0.02437 0.80508 0.07967 0.0
O65 O 0.0361 0.77973 0.13909 0.0
O66 O 0.02199 0.7889 0.11588 0.0
C67 C 0.03991 0.81521 0.0811 0.0
C68 C 0.0213 0.78204 0.13118 0.0
O69 O 0.08058 0.79377 0.1253 0.0
Mg70 Mg 0.49767 0.75454 0.41741 0.0
O71 O 0.50184 0.78305 0.4365 0.0
O72 O 0.47939 0.78134 0.4538 0.0
Mg73 Mg 0.46002 0.75288 0.44342 0.0
C74 C 0.49366 0.79032 0.44908 0.0
C75 C 0.52829 0.76016 0.394 0.0
O76 O 0.51388 0.75574 0.38172 0.0
O77 O 0.50402 0.7377 0.44123 0.0
O78 O 0.478 0.73326 0.45249 0.0
O79 O 0.48351 0.76578 0.39473 0.0
O80 O 0.4695 0.75102 0.41512 0.0
C81 C 0.49319 0.72936 0.4512 0.0
C82 C 0.4687 0.75971 0.40088 0.0
O83 O 0.52664 0.76098 0.41153 0.0
Mg84 Mg 0.5498 0.29275 0.61644 0.0
O85 O 0.54686 0.26403 0.59758 0.0
O86 O 0.52103 0.25782 0.57902 0.0
Mg87 Mg 0.50637 0.28119 0.5871 0.0
C88 C 0.53548 0.25348 0.58464 0.0
C89 C 0.58417 0.29475 0.64338 0.0
O90 O 0.57218 0.29728 0.65459 0.0
O91 O 0.55316 0.31158 0.59261 0.0
O92 O 0.5255 0.30507 0.57753 0.0
O93 O 0.53594 0.27968 0.63906 0.0
O94 O 0.52181 0.28896 0.61564 0.0
C95 C 0.54135 0.31469 0.58038 0.0
C96 C 0.52115 0.28182 0.63086 0.0
O97 O 0.57981 0.29328 0.62554 0.0
Mg98 Mg 0.99711 0.25525 0.91584 0.0
O99 O 0.00112 0.28324 0.93663 0.0
O100 O 0.97719 0.28048 0.95163 0.0
Mg101 Mg 0.95916 0.25133 0.94155 0.0
C102 C 0.99176 0.29011 0.94824 0.0
C103 C 0.02958 0.25248 0.89542 0.0
O104 O 0.01706 0.23863 0.8866 0.0
O105 O 0.00349 0.23682 0.93851 0.0
O106 O 0.97813 0.23267 0.95107 0.0
O107 O 0.98221 0.26728 0.89405 0.0
O108 O 0.96882 0.25046 0.91341 0.0
C109 C 0.9932 0.22865 0.94916 0.0
C110 C 0.96762 0.26009 0.90002 0.0
O111 O 0.02605 0.26272 0.90955 0.0
Mg112 Mg 0.38229 0.02902 0.28622 0.0
O113 O 0.37611 0.9984 0.28026 0.0
O114 O 0.3628 0.99311 0.30603 0.0
Mg115 Mg 0.37052 0.01526 0.33123 0.0
C116 C 0.36613 0.98811 0.28933 0.0
C117 C 0.38134 0.0252 0.23949 0.0
O118 O 0.37331 0.02858 0.22387 0.0
O119 O 0.35306 0.02407 0.28828 0.0
O120 O 0.3523 0.03136 0.31903 0.0
O121 O 0.41107 0.02878 0.29596 0.0
O122 O 0.38957 0.02835 0.31379 0.0
C123 C 0.3473 0.03257 0.30197 0.0
C124 C 0.40541 0.02703 0.31213 0.0
O125 O 0.37647 0.03089 0.25514 0.0
Mg126 Mg 0.26313 0.15638 0.49821 0.0
O127 O 0.26657 0.17508 0.52709 0.0
O128 O 0.29241 0.19525 0.53039 0.0
Mg129 Mg 0.30693 0.18715 0.50514 0.0
C130 C 0.27789 0.18883 0.53644 0.0
C131 C 0.22328 0.13602 0.48829 0.0
O132 O 0.22879 0.13124 0.47199 0.0
O133 O 0.25943 0.17908 0.48063 0.0
O134 O 0.28735 0.19546 0.4839 0.0
O135 O 0.27562 0.13629 0.51139 0.0
O136 O 0.29032 0.15899 0.49878 0.0
C137 C 0.27121 0.19196 0.47642 0.0
C138 C 0.2905 0.14493 0.50706 0.0
O139 O 0.23396 0.14696 0.50135 0.0
Mg140 Mg 0.12491 0.02798 0.77844 0.0
O141 O 0.14459 0.05581 0.78193 0.0
O142 O 0.16144 0.05948 0.80969 0.0
Mg143 Mg 0.1518 0.0352 0.82496 0.0
C144 C 0.15727 0.06506 0.79424 0.0
C145 C 0.10103 0.02418 0.74128 0.0
O146 O 0.09019 0.01773 0.75294 0.0
O147 O 0.1467 0.01225 0.77286 0.0
O148 O 0.15961 0.01472 0.8027 0.0
O149 O 0.10475 0.03973 0.79423 0.0
O150 O 0.12618 0.02877 0.80741 0.0
C151 C 0.15758 0.00803 0.78512 0.0
C152 C 0.11254 0.03561 0.80927 0.0
O153 O 0.11744 0.02956 0.74729 0.0
Mg154 Mg 0.29257 0.9361 0.01095 0.0
O155 O 0.29134 0.91509 0.9851 0.0
O156 O 0.31665 0.90504 0.98595 0.0
Mg157 Mg 0.33363 0.91967 0.01334 0.0
C158 C 0.3013 0.90519 0.97806 0.0
C159 C 0.26265 0.95154 0.00508 0.0
O160 O 0.27647 0.9648 0.012 0.0
O161 O 0.28739 0.91337 0.0277 0.0
O162 O 0.31286 0.90374 0.02884 0.0
O163 O 0.30452 0.95759 0.99536 0.0
O164 O 0.31902 0.94164 0.01295 0.0
C165 C 0.29702 0.90263 0.03275 0.0
C166 C 0.31899 0.95289 0.00099 0.0
O167 O 0.26419 0.93503 0.00386 0.0
Mg168 Mg 0.28492 0.38671 0.03628 0.0
O169 O 0.28255 0.36615 0.00855 0.0
O170 O 0.30676 0.35451 0.01098 0.0
Mg171 Mg 0.32286 0.36532 0.04018 0.0
C172 C 0.29247 0.35599 0.00162 0.0
C173 C 0.25642 0.40723 0.03258 0.0
O174 O 0.27124 0.41926 0.03911 0.0
O175 O 0.27645 0.36445 0.05404 0.0
O176 O 0.30076 0.35291 0.05707 0.0
O177 O 0.30141 0.40828 0.0232 0.0
O178 O 0.31235 0.39037 0.04099 0.0
C179 C 0.28518 0.35368 0.06094 0.0
C180 C 0.315 0.40321 0.03083 0.0
O181 O 0.25686 0.39031 0.02928 0.0
Mg182 Mg 0.76655 0.11397 0.02932 0.0
O183 O 0.76128 0.1324 0.05434 0.0
O184 O 0.786 0.15454 0.06217 0.0
Mg185 Mg 0.80727 0.1481 0.04461 0.0
C186 C 0.77008 0.14737 0.06412 0.0
C187 C 0.73188 0.08821 0.02548 0.0
O188 O 0.74223 0.07823 0.0323 0.0
O189 O 0.7651 0.13514 0.0118 0.0
O190 O 0.79121 0.15518 0.01945 0.0
O191 O 0.77526 0.09596 0.04804 0.0
O192 O 0.79215 0.1197 0.03873 0.0
C193 C 0.77594 0.14952 0.00984 0.0
C194 C 0.79087 0.10577 0.04744 0.0
O195 O 0.7384 0.10375 0.02158 0.0
Mg196 Mg 0.16004 0.52009 0.24061 0.0
O197 O 0.17389 0.5496 0.24878 0.0
O198 O 0.18356 0.55724 0.27982 0.0
Mg199 Mg 0.18663 0.52927 0.28546 0.0
C200 C 0.18052 0.56143 0.2634 0.0
C201 C 0.13841 0.51679 0.20675 0.0
O202 O 0.13032 0.50531 0.21701 0.0
O203 O 0.18465 0.51266 0.23308 0.0
O204 O 0.19988 0.53068 0.25823 0.0
O205 O 0.13788 0.52688 0.25328 0.0
O206 O 0.16012 0.51823 0.26908 0.0
C207 C 0.19897 0.51825 0.24407 0.0
C208 C 0.14606 0.52499 0.26917 0.0
O209 O 0.15417 0.52527 0.2122 0.0
Mg210 Mg 0.784 0.88728 0.53463 0.0
O211 O 0.78161 0.86671 0.50672 0.0
O212 O 0.80528 0.85427 0.50917 0.0
Mg213 Mg 0.82225 0.86596 0.53784 0.0
C214 C 0.79108 0.85601 0.4998 0.0
C215 C 0.75275 0.90467 0.53857 0.0
O216 O 0.7647 0.91306 0.55291 0.0
O217 O 0.77598 0.86494 0.55303 0.0
O218 O 0.80088 0.85434 0.55564 0.0
O219 O 0.80061 0.90912 0.52182 0.0
O220 O 0.81126 0.89061 0.53892 0.0
C221 C 0.78541 0.85478 0.56009 0.0
C222 C 0.81414 0.90381 0.52927 0.0
O223 O 0.75604 0.89139 0.52753 0.0
Mg224 Mg 0.92766 0.02023 0.25758 0.0
O225 O 0.90861 0.99207 0.2542 0.0
O226 O 0.89368 0.99287 0.27942 0.0
Mg227 Mg 0.90452 0.01959 0.2999 0.0
C228 C 0.89674 0.98483 0.26366 0.0
C229 C 0.94446 0.00923 0.22116 0.0
O230 O 0.95446 0.00308 0.23343 0.0
O231 O 0.90488 0.03386 0.25085 0.0
O232 O 0.89388 0.03562 0.27863 0.0
O233 O 0.949 0.01025 0.27421 0.0
O234 O 0.92869 0.02311 0.28646 0.0
C235 C 0.89433 0.0392 0.26182 0.0
C236 C 0.94206 0.01586 0.28902 0.0
O237 O 0.93186 0.01615 0.22664 0.0
Mg238 Mg 0.26668 0.61151 0.52817 0.0
O239 O 0.26325 0.63181 0.55285 0.0
O240 O 0.28957 0.65131 0.56133 0.0
Mg241 Mg 0.30922 0.64258 0.54279 0.0
C242 C 0.27326 0.6459 0.56306 0.0
C243 C 0.23094 0.58891 0.52616 0.0
O244 O 0.24056 0.57762 0.53151 0.0
O245 O 0.26699 0.63227 0.50985 0.0
O246 O 0.29324 0.65169 0.51882 0.0
O247 O 0.273 0.5938 0.54797 0.0
O248 O 0.29245 0.61472 0.5373 0.0
C249 C 0.27821 0.64666 0.50863 0.0
C250 C 0.28923 0.60214 0.54775 0.0
O251 O 0.23822 0.60398 0.52171 0.0
Mg252 Mg 0.42634 0.52052 0.75746 0.0
O253 O 0.408 0.49174 0.75378 0.0
O254 O 0.39267 0.49166 0.77867 0.0
Mg255 Mg 0.40199 0.51881 0.79872 0.0
C256 C 0.39632 0.48387 0.76309 0.0
C257 C 0.44409 0.51021 0.72169 0.0
O258 O 0.45475 0.50557 0.73456 0.0
O259 O 0.40341 0.5336 0.75031 0.0
O260 O 0.39029 0.53373 0.77675 0.0
O261 O 0.44788 0.51134 0.77404 0.0
O262 O 0.42704 0.52327 0.78646 0.0
C263 C 0.39165 0.53785 0.76022 0.0
C264 C 0.44074 0.51639 0.7889 0.0
O265 O 0.43082 0.51623 0.72663 0.0
Mg266 Mg 0.65579 0.01864 0.74491 0.0
O267 O 0.67146 0.0473 0.7451 0.0
O268 O 0.68831 0.05653 0.77323 0.0
Mg269 Mg 0.68321 0.03377 0.79068 0.0
C270 C 0.68289 0.05909 0.75674 0.0
C271 C 0.63397 0.01721 0.7094 0.0
O272 O 0.62251 0.01511 0.72164 0.0
O273 O 0.67965 0.00825 0.74062 0.0
O274 O 0.69563 0.01726 0.76904 0.0
O275 O 0.63503 0.03073 0.7563 0.0
O276 O 0.65715 0.02383 0.7738 0.0
C277 C 0.69354 0.00937 0.75185 0.0
C278 C 0.64375 0.03145 0.77271 0.0
O279 O 0.64983 0.0166 0.71411 0.0
Mg280 Mg 0.76292 0.65848 0.99725 0.0
O281 O 0.76688 0.67741 0.02618 0.0
O282 O 0.79437 0.69438 0.03024 0.0
Mg283 Mg 0.80833 0.68596 0.00469 0.0
C284 C 0.77933 0.68977 0.03606 0.0
C285 C 0.72728 0.63323 0.99555 0.0
O286 O 0.73818 0.62258 0.99086 0.0
O287 O 0.76107 0.68177 0.97994 0.0
O288 O 0.78974 0.69582 0.98384 0.0
O289 O 0.77428 0.63725 0.0106 0.0
O290 O 0.78974 0.65927 0.99776 0.0
C291 C 0.77384 0.69382 0.97609 0.0
C292 C 0.78927 0.6451 0.00588 0.0
O293 O 0.73327 0.65052 -0.00101 0.0
Mg294 Mg 0.88708 0.52447 0.79371 0.0
O295 O 0.87111 0.49587 0.79144 0.0
O296 O 0.86215 0.492 0.81965 0.0
Mg297 Mg 0.87185 0.51905 0.83967 0.0
C298 C 0.863 0.48613 0.80233 0.0
C299 C 0.90214 0.52399 0.75953 0.0
O300 O 0.91454 0.53247 0.77337 0.0
O301 O 0.86231 0.53375 0.79244 0.0
O302 O 0.85427 0.53238 0.82141 0.0
O303 O 0.91085 0.51497 0.80262 0.0
O304 O 0.89284 0.52539 0.82183 0.0
C305 C 0.85194 0.53617 0.80472 0.0
C306 C 0.90583 0.51748 0.81923 0.0
O307 O 0.88621 0.52016 0.76264 0.0
Mg308 Mg 0.7945 0.43716 0.512 0.0
O309 O 0.79122 0.41668 0.48543 0.0
O310 O 0.81538 0.40471 0.48475 0.0
Mg311 Mg 0.8344 0.41878 0.51087 0.0
C312 C 0.80007 0.40593 0.47771 0.0
C313 C 0.76401 0.45225 0.50545 0.0
O314 O 0.77762 0.46621 0.51015 0.0
O315 O 0.78977 0.41422 0.52833 0.0
O316 O 0.81447 0.40322 0.52746 0.0
O317 O 0.80603 0.45858 0.49617 0.0
O318 O 0.82079 0.44169 0.51221 0.0
C319 C 0.79904 0.40283 0.53232 0.0
C320 C 0.82041 0.45314 0.50051 0.0
O321 O 0.76607 0.43623 0.50671 0.0
Mg322 Mg 0.62422 0.52766 0.27935 0.0
O323 O 0.64301 0.55591 0.28133 0.0
O324 O 0.66239 0.55984 0.30737 0.0
Mg325 Mg 0.65361 0.53641 0.32404 0.0
C326 C 0.65665 0.56515 0.29234 0.0
C327 C 0.59969 0.52284 0.24216 0.0
O328 O 0.58854 0.5174 0.25395 0.0
O329 O 0.64569 0.51201 0.27305 0.0
O330 O 0.6615 0.51589 0.30166 0.0
O331 O 0.60465 0.53962 0.29505 0.0
O332 O 0.62668 0.52948 0.30848 0.0
C333 C 0.65801 0.50868 0.28421 0.0
C334 C 0.61297 0.53636 0.31026 0.0
O335 O 0.61608 0.52796 0.24824 0.0
C336 C 0.98383 0.96991 0.9805 0.0
C337 C 0.96639 0.95496 0.00265 0.0
C338 C 0.97748 0.9706 0.99801 0.0
C339 C 0.96163 0.93869 0.98944 0.0
C340 C 0.97866 0.95366 0.96704 0.0
C341 C 0.96765 0.93807 0.97166 0.0
N342 N 0.99416 0.98535 0.97621 0.0
C343 C 0.99891 0.98561 0.9584 0.0
C344 C 0.98416 0.95372 0.94907 0.0
C345 C 0.99422 0.9698 0.9447 0.0
Gd346 Gd 0.04691 0.0321 0.02533 0.0
Gd347 Gd 0.99793 0.01183 -0.00088 0.0
N348 N 0.98181 0.98668 0.01036 0.0
C349 C 0.96011 0.95625 0.02031 0.0
C350 C 0.97491 0.98831 0.0271 0.0
C351 C 0.96438 0.97302 0.03258 0.0
H352 H 0.97717 0.00145 0.03605 0.0
H353 H 0.95928 0.97425 0.04608 0.0
H354 H 0.06562 0.04301 0.98624 0.0
H355 H 0.00538 0.99819 0.95424 0.0
H356 H 0.08309 0.07021 0.97635 0.0
H357 H 0.95166 0.94451 0.02443 0.0
H358 H 0.95303 0.92658 0.99271 0.0
H359 H 0.03795 0.04605 0.06908 0.0
H360 H 0.98029 0.94158 0.9383 0.0
H361 H 0.99797 0.97019 0.93061 0.0
H362 H 0.09113 0.11724 0.03056 0.0
H363 H 0.96352 0.92552 0.96146 0.0
H364 H 0.06401 0.1025 0.08516 0.0
H365 H 0.04567 0.07418 0.09274 0.0
N366 N 0.05027 0.05865 0.04754 0.0
C367 C 0.0609 0.07387 0.04324 0.0
C368 C 0.04507 0.05852 0.06514 0.0
C369 C 0.06022 0.09029 0.07447 0.0
C370 C 0.04978 0.07437 0.07878 0.0
C371 C 0.06599 0.09018 0.05659 0.0
H372 H 0.08103 0.11833 0.06198 0.0
N373 N 0.06229 0.05705 0.01297 0.0
C374 C 0.06695 0.0731 0.0255 0.0
C375 C 0.08342 0.08778 0.00275 0.0
C376 C 0.0778 0.08883 0.02073 0.0
C377 C 0.06822 0.05584 0.99566 0.0
C378 C 0.07855 0.07123 0.99016 0.0
O379 O 0.01033 0.99251 0.01555 0.0
O380 O 0.04013 0.00137 0.0138 0.0
O381 O 0.07526 0.03477 0.02916 0.0
O382 O 0.0597 0.02556 0.05093 0.0
O383 O 0.00129 0.02863 0.02827 0.0
O384 O 0.02579 0.02077 0.04229 0.0
O385 O 0.0301 0.05323 0.01978 0.0
O386 O 0.0111 0.03973 0.99273 0.0
O387 O 0.97453 0.02292 0.00371 0.0
O388 O 0.97755 0.00877 0.97572 0.0
O389 O 0.04575 0.01723 0.99553 0.0
O390 O 0.01914 0.021 0.98127 0.0
C391 C 0.02636 0.98907 0.01671 0.0
C392 C 0.01044 0.02526 0.04316 0.0
C393 C 0.08687 0.0163 0.04912 0.0
C394 C 0.10869 0.99914 0.03957 0.0
C395 C 0.10234 0.00225 0.07203 0.0
C396 C 0.08993 0.01257 0.06762 0.0
C397 C 0.1116 0.9954 0.05803 0.0
C398 C 0.09633 0.00953 0.03508 0.0
C399 C 0.07535 0.02897 0.04542 0.0
C400 C 0.08273 0.10509 0.03398 0.0
C401 C 0.07693 0.10573 0.05186 0.0
H402 H 0.09164 0.0996 0.99852 0.0
C403 C 0.01951 0.05443 0.0047 0.0
C404 C 0.03489 0.01743 0.98039 0.0
C405 C 0.95094 0.02001 0.97781 0.0
C406 C 0.92584 0.03416 0.9809 0.0
C407 C 0.92769 0.01503 0.95141 0.0
C408 C 0.94375 0.01193 0.95915 0.0
C409 C 0.9187 0.02609 0.96222 0.0
C410 C 0.94201 0.03117 0.98852 0.0
C411 C 0.96795 0.01731 0.98596 0.0
H412 H 0.10519 1.00005 0.08643 0.0
H413 H 0.08313 0.01812 0.07877 0.0
H414 H 0.12155 0.98784 0.06176 0.0
H415 H 0.09462 0.01279 0.02089 0.0
H416 H 0.92214 0.00875 0.93707 0.0
H417 H 0.95052 0.00327 0.95056 0.0
H418 H 0.90604 0.02799 0.95615 0.0
H419 H 0.94769 0.03765 0.00281 0.0
C420 C 0.2999 0.73478 0.22197 0.0
C421 C 0.27389 0.7179 0.20075 0.0
C422 C 0.28245 0.73324 0.21447 0.0
C423 C 0.28306 0.70429 0.19482 0.0
C424 C 0.30912 0.72106 0.21611 0.0
C425 C 0.30063 0.70588 0.20245 0.0
N426 N 0.30769 0.74937 0.23547 0.0
C427 C 0.32467 0.75121 0.24357 0.0
C428 C 0.32656 0.7229 0.22434 0.0
C429 C 0.33437 0.73805 0.23814 0.0
Gd430 Gd 0.26466 0.77551 0.29195 0.0
Gd431 Gd 0.29093 0.77119 0.24367 0.0
N432 N 0.27381 0.74655 0.22072 0.0
C433 C 0.25636 0.71665 0.19332 0.0
C434 C 0.25697 0.74573 0.21257 0.0
C435 C 0.24794 0.73071 0.19916 0.0
H436 H 0.25032 0.75664 0.21561 0.0
H437 H 0.23453 0.73017 0.19311 0.0
H438 H 0.30544 0.78967 0.31951 0.0
H439 H 0.33085 0.76301 0.254 0.0
H440 H 0.32173 0.81622 0.34179 0.0
H441 H 0.24932 0.70509 0.18283 0.0
H442 H 0.27666 0.69247 0.18431 0.0
H443 H 0.22508 0.78436 0.28131 0.0
H444 H 0.33409 0.71268 0.22019 0.0
H445 H 0.34786 0.73962 0.24457 0.0
H446 H 0.28056 0.85519 0.34983 0.0
H447 H 0.30751 0.69524 0.19778 0.0
H448 H 0.22282 0.8354 0.3145 0.0
H449 H 0.20853 0.80825 0.29058 0.0
N450 N 0.24844 0.79793 0.29961 0.0
C451 C 0.25654 0.81266 0.31285 0.0
C452 C 0.23146 0.79624 0.2916 0.0
C453 C 0.23014 0.82497 0.31045 0.0
C454 C 0.22204 0.80969 0.29691 0.0
C455 C 0.24761 0.82666 0.31854 0.0
H456 H 0.24973 0.8528 0.33651 0.0
N457 N 0.28235 0.80035 0.3142 0.0
C458 C 0.27402 0.81401 0.32022 0.0
C459 C 0.30032 0.83035 0.34118 0.0
C460 C 0.28285 0.82941 0.33371 0.0
C461 C 0.29911 0.80088 0.32238 0.0
C462 C 0.3084 0.81593 0.33561 0.0
O463 O 0.28542 0.74534 0.25545 0.0
O464 O 0.26212 0.7537 0.2668 0.0
O465 O 0.26531 0.76113 0.31583 0.0
O466 O 0.23975 0.76269 0.30113 0.0
O467 O 0.26402 0.77979 0.24041 0.0
O468 O 0.24703 0.76903 0.26346 0.0
O469 O 0.26985 0.80153 0.28025 0.0
O470 O 0.29191 0.79107 0.26959 0.0
O471 O 0.2902 0.78724 0.22121 0.0
O472 O 0.31585 0.78468 0.23485 0.0
O473 O 0.29122 0.76608 0.29499 0.0
O474 O 0.30845 0.77703 0.2722 0.0
C475 C 0.27209 0.74177 0.26493 0.0
C476 C 0.24874 0.77619 0.24762 0.0
C477 C 0.23921 0.74669 0.32824 0.0
C478 C 0.24133 0.73019 0.35455 0.0
C479 C 0.2127 0.73404 0.34151 0.0
C480 C 0.22078 0.74379 0.32829 0.0
C481 C 0.22295 0.72719 0.35463 0.0
C482 C 0.2494 0.73986 0.34144 0.0
C483 C 0.24813 0.75718 0.31494 0.0
C484 C 0.27396 0.84331 0.33948 0.0
C485 C 0.25639 0.84193 0.33194 0.0
H486 H 0.30753 0.84193 0.35155 0.0
C487 C 0.283 0.80385 0.27052 0.0
C488 C 0.30654 0.76945 0.28779 0.0
C489 C 0.31601 0.80229 0.20888 0.0
C490 C 0.3137 0.81424 0.17936 0.0
C491 C 0.34245 0.81821 0.19777 0.0
C492 C 0.33443 0.8089 0.21131 0.0
C493 C 0.33216 0.82077 0.18176 0.0
C494 C 0.30574 0.80522 0.19304 0.0
C495 C 0.30735 0.79109 0.2218 0.0
H496 H 0.19852 0.73188 0.34165 0.0
H497 H 0.21269 0.74913 0.31826 0.0
H498 H 0.21664 0.71978 0.36494 0.0
H499 H 0.26366 0.7421 0.34169 0.0
H500 H 0.35665 0.82332 0.19962 0.0
H501 H 0.3426 0.80669 0.22347 0.0
H502 H 0.33857 0.8281 0.17144 0.0
H503 H 0.29152 0.79993 0.19095 0.0
C504 C 0.56489 0.06219 0.48942 0.0
C505 C 0.58402 0.08085 0.51683 0.0
C506 C 0.57135 0.06483 0.50861 0.0
C507 C 0.59011 0.09411 0.5056 0.0
C508 C 0.57091 0.07555 0.47816 0.0
C509 C 0.58356 0.09148 0.48635 0.0
N510 N 0.55254 0.04671 0.48187 0.0
C511 C 0.54599 0.04353 0.46315 0.0
C512 C 0.56401 0.0725 0.45899 0.0
C513 C 0.55152 0.05639 0.45146 0.0
Gd514 Gd 0.49874 0.02174 0.52518 0.0
Gd515 Gd 0.54533 0.02562 0.50246 0.0
N516 N 0.56495 0.05193 0.51928 0.0
C517 C 0.59023 0.08306 0.53612 0.0
C518 C 0.57136 0.05373 0.53789 0.0
C519 C 0.58393 0.0694 0.54666 0.0
H520 H 0.56716 0.04298 0.54593 0.0
H521 H 0.58892 0.07082 0.56148 0.0
H522 H 0.47531 0.00231 0.48313 0.0
H523 H 0.53696 0.0308 0.4571 0.0
H524 H 0.45299 0.97423 0.46952 0.0
H525 H 0.6 0.09516 0.54295 0.0
H526 H 0.59986 0.10649 0.51168 0.0
H527 H 0.50782 0.01972 0.57131 0.0
H528 H 0.56832 0.08242 0.44988 0.0
H529 H 0.54631 0.05378 0.4366 0.0
H530 H 0.44397 0.94179 0.52204 0.0
H531 H 0.58837 0.10186 0.4779 0.0
H532 H 0.47723 0.96912 0.58233 0.0
H533 H 0.49922 0.99827 0.59361 0.0
N534 N 0.49188 0.00235 0.54752 0.0
C535 C 0.47954 0.98657 0.54106 0.0
C536 C 0.49879 0.00673 0.56614 0.0
C537 C 0.48123 0.97833 0.57243 0.0
C538 C 0.4937 0.99474 0.57884 0.0
C539 C 0.47389 0.97412 0.55337 0.0
H540 H 0.45653 0.94827 0.5556 0.0
N541 N 0.47842 0.99498 0.5104 0.0
C542 C 0.47249 0.98286 0.52203 0.0
C543 C 0.45265 0.9635 0.49581 0.0
C544 C 0.45958 0.96668 0.51497 0.0
C545 C 0.47135 0.99222 0.49191 0.0
C546 C 0.4585 0.97639 0.48426 0.0
O547 O 0.53546 0.05239 0.50971 0.0
O548 O 0.51983 0.0479 0.53495 0.0
O549 O 0.47663 0.0347 0.51708 0.0
O550 O 0.48452 0.03245 0.54665 0.0
O551 O 0.54275 0.01399 0.52938 0.0
O552 O 0.52427 0.03011 0.54371 0.0
O553 O 0.50781 0.99472 0.51751 0.0
O554 O 0.52496 0.99873 0.49306 0.0
O555 O 0.56836 0.01366 0.50973 0.0
O556 O 0.55998 0.0165 0.4805 0.0
O557 O 0.50198 0.03235 0.49784 0.0
O558 O 0.5205 0.0167 0.48248 0.0
C559 C 0.52798 0.05889 0.5242 0.0
C560 C 0.53579 0.01973 0.54435 0.0
C561 C 0.46049 0.04778 0.54175 0.0
C562 C 0.43458 0.06106 0.5368 0.0
C563 C 0.44861 0.06205 0.56867 0.0
C564 C 0.46102 0.05296 0.56141 0.0
C565 C 0.43544 0.06602 0.55649 0.0
C566 C 0.44726 0.05205 0.52935 0.0
C567 C 0.47402 0.03818 0.53479 0.0
C568 C 0.45391 0.95428 0.52721 0.0
C569 C 0.46106 0.95797 0.54634 0.0
H570 H 0.44265 0.95128 0.48985 0.0
C571 C 0.5157 0.98815 0.50344 0.0
C572 C 0.50694 0.02457 0.48245 0.0
C573 C 0.58591 0.00379 0.48482 0.0
C574 C 0.60886 0.98596 0.48739 0.0
C575 C 0.60331 0.99908 0.45891 0.0
C576 C 0.59003 0.00644 0.46662 0.0
C577 C 0.61261 0.98887 0.46914 0.0
C578 C 0.5956 0.99371 0.49538 0.0
C579 C 0.57123 0.01137 0.49204 0.0
H580 H 0.44917 0.06599 0.58382 0.0
H581 H 0.4711 0.05006 0.57129 0.0
H582 H 0.42587 0.07307 0.56244 0.0
H583 H 0.44665 0.0482 0.51417 0.0
H584 H 0.60636 0.00123 0.4449 0.0
H585 H 0.58296 0.01424 0.45825 0.0
H586 H 0.6229 0.98331 0.4628 0.0
H587 H 0.59255 0.9915 0.5094 0.0
C588 C 0.23364 0.2883 0.72541 0.0
C589 C 0.21859 0.25905 0.70661 0.0
C590 C 0.22901 0.26927 0.72325 0.0
C591 C 0.2135 0.2682 0.69193 0.0
C592 C 0.22818 0.29758 0.71092 0.0
C593 C 0.21833 0.28742 0.69405 0.0
N594 N 0.24298 0.29777 0.74197 0.0
C595 C 0.24623 0.31647 0.74548 0.0
C596 C 0.23243 0.31683 0.714 0.0
C597 C 0.24131 0.32631 0.73146 0.0
Gd598 Gd 0.29946 0.26374 0.76908 0.0
Gd599 Gd 0.25185 0.28023 0.76412 0.0
N600 N 0.23426 0.26081 0.73769 0.0
C601 C 0.21324 0.23999 0.70542 0.0
C602 C 0.22825 0.24241 0.737 0.0
C603 C 0.21788 0.23167 0.7208 0.0
H604 H 0.23095 0.23609 0.74909 0.0
H605 H 0.21327 0.21703 0.7203 0.0
H606 H 0.32244 0.30632 0.78731 0.0
H607 H 0.25239 0.32377 0.75924 0.0
H608 H 0.34497 0.32152 0.81427 0.0
H609 H 0.20512 0.23166 0.69293 0.0
H610 H 0.20557 0.26057 0.679 0.0
H611 H 0.2881 0.21921 0.77433 0.0
H612 H 0.22851 0.32447 0.70321 0.0
H613 H 0.24419 0.34118 0.73421 0.0
H614 H 0.35005 0.27346 0.8506 0.0
H615 H 0.21407 0.2943 0.68274 0.0
H616 H 0.31502 0.21308 0.82696 0.0
H617 H 0.29424 0.19971 0.79789 0.0
N618 N 0.30414 0.24377 0.79053 0.0
C619 C 0.3159 0.25133 0.80624 0.0
C620 C 0.29662 0.22541 0.78729 0.0
C621 C 0.3121 0.22182 0.81685 0.0
C622 C 0.30031 0.21423 0.80048 0.0
C623 C 0.3202 0.24053 0.81982 0.0
H624 H 0.33595 0.24058 0.84639 0.0
N625 N 0.31884 0.28012 0.79575 0.0
C626 C 0.32374 0.26994 0.80875 0.0
C627 C 0.34399 0.29687 0.82661 0.0
C628 C 0.33621 0.27813 0.82471 0.0
C629 C 0.32636 0.29837 0.79754 0.0
C630 C 0.3391 0.30701 0.8129 0.0
O631 O 0.2653 0.27549 0.73746 0.0
O632 O 0.27841 0.25219 0.74417 0.0
O633 O 0.32129 0.27212 0.75196 0.0
O634 O 0.31584 0.24506 0.76059 0.0
O635 O 0.25419 0.25525 0.77804 0.0
O636 O 0.27398 0.24224 0.76205 0.0
O637 O 0.29025 0.27425 0.79701 0.0
O638 O 0.26943 0.29189 0.79149 0.0
O639 O 0.22576 0.27089 0.77352 0.0
O640 O 0.23929 0.29969 0.77927 0.0
O641 O 0.29974 0.29075 0.75876 0.0
O642 O 0.27595 0.30371 0.76713 0.0
C643 C 0.27286 0.26185 0.73195 0.0
C644 C 0.26083 0.241 0.77236 0.0
C645 C 0.34048 0.25041 0.74231 0.0
C646 C 0.36619 0.25531 0.72457 0.0
C647 C 0.3561 0.22587 0.73462 0.0
C648 C 0.34262 0.23234 0.74289 0.0
C649 C 0.36775 0.23721 0.72554 0.0
C650 C 0.35248 0.26205 0.73307 0.0
C651 C 0.32577 0.25629 0.75178 0.0
C652 C 0.34053 0.2674 0.83823 0.0
C653 C 0.33249 0.24868 0.83583 0.0
H654 H 0.35369 0.30365 0.83862 0.0
C655 C 0.28001 0.28537 0.8028 0.0
C656 C 0.29188 0.3047 0.7616 0.0
C657 C 0.20891 0.29353 0.78435 0.0
C658 C 0.18353 0.29306 0.80227 0.0
C659 C 0.19232 0.31763 0.78407 0.0
C660 C 0.20609 0.30977 0.77821 0.0
C661 C 0.18125 0.30948 0.79615 0.0
C662 C 0.1973 0.28496 0.79609 0.0
C663 C 0.2256 0.28745 0.78165 0.0
H664 H 0.35752 0.21195 0.73527 0.0
H665 H 0.33383 0.22303 0.74983 0.0
H666 H 0.37817 0.23182 0.71924 0.0
H667 H 0.3512 0.27603 0.73246 0.0
H668 H 0.19045 0.33033 0.77956 0.0
H669 H 0.21491 0.31676 0.76942 0.0
H670 H 0.1708 0.316 0.80072 0.0
H671 H 0.19957 0.27266 0.80126 0.0
C672 C 0.00242 0.06714 0.55486 0.0
C673 C 0.02994 0.08594 0.57197 0.0
C674 C 0.02061 0.07351 0.55603 0.0
C675 C 0.02075 0.09168 0.58679 0.0
C676 C 0.99314 0.07285 0.56971 0.0
C677 C 0.00241 0.08513 0.58568 0.0
N678 N 0.99387 0.05503 0.53939 0.0
C679 C 0.97604 0.04833 0.53762 0.0
C680 C 0.97484 0.06591 0.5681 0.0
C681 C 0.96627 0.05366 0.55194 0.0
Gd682 Gd 0.02697 0.9965 0.51382 0.0
Gd683 Gd 0.01145 0.04609 0.51671 0.0
N684 N 0.02921 0.06724 0.5417 0.0
C685 C 0.04822 0.09222 0.57252 0.0
C686 C 0.04687 0.07393 0.5418 0.0
C687 C 0.05669 0.08633 0.55727 0.0
H688 H 0.05342 0.07007 0.52988 0.0
H689 H 0.07075 0.09145 0.55735 0.0
H690 H 0.98441 0.97425 0.50025 0.0
H691 H 0.96933 0.03895 0.52512 0.0
H692 H 0.96683 0.95285 0.47294 0.0
H693 H 0.05587 0.1018 0.5845 0.0
H694 H 0.0277 0.10118 0.59919 0.0
H695 H 0.06874 0.00505 0.50376 0.0
H696 H 0.96723 0.06993 0.5792 0.0
H697 H 0.95213 0.04834 0.55048 0.0
H698 H 0.0095 0.94189 0.4311 0.0
H699 H 0.99551 0.08964 0.59725 0.0
H700 H 0.06992 0.97371 0.44965 0.0
H701 H 0.08534 0.996 0.4777 0.0
N702 N 0.04408 0.98847 0.49026 0.0
C703 C 0.03534 0.97608 0.47505 0.0
C704 C 0.06182 0.99553 0.49144 0.0
C705 C 0.06254 0.97768 0.461 0.0
C706 C 0.0713 0.99031 0.47679 0.0
C707 C 0.04435 0.9704 0.45996 0.0
H708 H 0.04161 0.95342 0.43248 0.0
N709 N 0.00862 0.97639 0.48848 0.0
C710 C 0.01711 0.96978 0.47418 0.0
C711 C 0.98928 0.95138 0.45784 0.0
C712 C 0.0076 0.95735 0.45832 0.0
C713 C 0.99089 0.9701 0.48839 0.0
C714 C 0.98093 0.95768 0.47301 0.0
O715 O 0.01714 0.03592 0.54474 0.0
O716 O 0.03828 0.01948 0.538 0.0
O717 O 0.01874 0.97343 0.52947 0.0
O718 O 0.04595 0.98135 0.52324 0.0
O719 O 0.03703 0.04381 0.50461 0.0
O720 O 0.04843 0.02257 0.51971 0.0
O721 O 0.02235 0.00718 0.48605 0.0
O722 O 0.00093 0.02189 0.494 0.0
O723 O 0.01961 0.06812 0.50016 0.0
O724 O 0.99204 0.05881 0.50348 0.0
O725 O 0.00179 0.99885 0.52694 0.0
O726 O 0.99036 0.01996 0.51185 0.0
C727 C 0.02938 0.02723 0.55011 0.0
C728 C 0.05026 0.03643 0.51008 0.0
C729 C 0.0403 0.95575 0.54062 0.0
C730 C 0.03456 0.92749 0.55476 0.0
C731 C 0.06473 0.94274 0.55204 0.0
C732 C 0.05853 0.95618 0.54363 0.0
C733 C 0.05291 0.92855 0.55754 0.0
C734 C 0.02819 0.94136 0.54648 0.0
C735 C 0.03466 0.97026 0.53089 0.0
C736 C 0.0166 0.95142 0.44341 0.0
C737 C 0.0349 0.95796 0.4442 0.0
H738 H 0.98151 0.94181 0.44593 0.0
C739 C 0.01036 0.01626 0.48133 0.0
C740 C 0.98868 0.00675 0.52227 0.0
C741 C 1.00025 0.08891 0.49573 0.0
C742 C 0.0025 0.11605 0.47982 0.0
C743 C 0.98231 0.11122 0.50348 0.0
C744 C 0.98758 0.09504 0.50622 0.0
C745 C 0.98957 0.12156 0.49033 0.0
C746 C 0.00792 0.09969 0.4827 0.0
C747 C 0.00349 0.07021 0.49629 0.0
H748 H 0.07881 0.94331 0.55429 0.0
H749 H 0.06816 0.96698 0.53946 0.0
H750 H 0.05815 0.91827 0.56404 0.0
H751 H 0.01409 0.94069 0.54419 0.0
H752 H 0.97235 0.11565 0.51142 0.0
H753 H 0.98136 0.08707 0.51619 0.0
H754 H 0.98513 0.13402 0.48843 0.0
H755 H 0.01746 0.09497 0.47427 0.0
C756 C 0.23908 0.72844 0.79905 0.0
C757 C 0.21966 0.70681 0.77384 0.0
C758 C 0.23517 0.72058 0.78012 0.0
C759 C 0.20785 0.7016 0.78674 0.0
C760 C 0.22771 0.72247 0.81223 0.0
C761 C 0.21188 0.70938 0.8059 0.0
N762 N 0.25461 0.74087 0.80481 0.0
C763 C 0.26024 0.74649 0.82373 0.0
C764 C 0.23292 0.72921 0.8315 0.0
C765 C 0.2494 0.74103 0.83728 0.0
Gd766 Gd 0.27855 0.79611 0.75781 0.0
Gd767 Gd 0.27234 0.74862 0.78092 0.0
N768 N 0.24701 0.72563 0.76804 0.0
C769 C 0.21676 0.69823 0.75491 0.0
C770 C 0.24473 0.71651 0.74987 0.0
C771 C 0.22947 0.70296 0.74293 0.0
H772 H 0.25443 0.72011 0.74061 0.0
H773 H 0.22755 0.69616 0.72837 0.0
H774 H 0.30406 0.81435 0.80034 0.0
H775 H 0.27313 0.7554 0.82844 0.0
H776 H 0.33147 0.83721 0.81184 0.0
H777 H 0.205 0.68764 0.74955 0.0
H778 H 0.19582 0.69116 0.78214 0.0
H779 H 0.27606 0.79037 0.71072 0.0
H780 H 0.2246 0.72489 0.84204 0.0
H781 H 0.25383 0.74586 0.85219 0.0
H782 H 0.35469 0.85297 0.75536 0.0
H783 H 0.20293 0.70477 0.8158 0.0
H784 H 0.32366 0.82123 0.69566 0.0
H785 H 0.2945 0.7999 0.68621 0.0
N786 N 0.29545 0.80387 0.73367 0.0
C787 C 0.31106 0.81621 0.7392 0.0
C788 C 0.28924 0.79848 0.71495 0.0
C789 C 0.31586 0.81647 0.70644 0.0
C790 C 0.29947 0.80435 0.70105 0.0
C791 C 0.32169 0.82285 0.72568 0.0
H792 H 0.34571 0.84142 0.72152 0.0
N793 N 0.30587 0.81578 0.77116 0.0
C794 C 0.31631 0.82251 0.75842 0.0
C795 C 0.33763 0.84111 0.78392 0.0
C796 C 0.33236 0.83552 0.76448 0.0
C797 C 0.31141 0.82061 0.79014 0.0
C798 C 0.32725 0.83338 0.79678 0.0
O799 O 0.24828 0.75258 0.76237 0.0
O800 O 0.25238 0.78388 0.76767 0.0
O801 O 0.27378 0.82393 0.76139 0.0
O802 O 0.26041 0.80333 0.73679 0.0
O803 O 0.28392 0.75037 0.75359 0.0
O804 O 0.27 0.76934 0.73789 0.0
O805 O 0.30297 0.78396 0.76212 0.0
O806 O 0.2971 0.77185 0.78893 0.0
O807 O 0.28319 0.72396 0.77315 0.0
O808 O 0.28692 0.73841 0.80226 0.0
O809 O 0.27443 0.79996 0.78812 0.0
O810 O 0.26973 0.773 0.80155 0.0
C811 C 0.24204 0.76754 0.76192 0.0
C812 C 0.27667 0.75463 0.73805 0.0
C813 C 0.2535 0.83348 0.73876 0.0
C814 C 0.23961 0.85964 0.74415 0.0
C815 C 0.23914 0.84399 0.71219 0.0
C816 C 0.2484 0.8318 0.71922 0.0
C817 C 0.23474 0.85783 0.72457 0.0
C818 C 0.24905 0.84746 0.75128 0.0
C819 C 0.26261 0.82001 0.74591 0.0
C820 C 0.34267 0.8425 0.75102 0.0
C821 C 0.3375 0.836 0.73171 0.0
H822 H 0.34984 0.8511 0.78914 0.0
C823 C 0.3084 0.77747 0.77726 0.0
C824 C 0.27118 0.79082 0.80217 0.0
C825 C 0.29866 0.7113 0.79808 0.0
C826 C 0.31235 0.68507 0.79312 0.0
C827 C 0.30955 0.69851 0.825 0.0
C828 C 0.3014 0.71141 0.81775 0.0
C829 C 0.31496 0.68532 0.81274 0.0
C830 C 0.30428 0.6981 0.78575 0.0
C831 C 0.28931 0.72454 0.79079 0.0
H832 H 0.23528 0.84265 0.69711 0.0
H833 H 0.25159 0.82105 0.70937 0.0
H834 H 0.22743 0.86713 0.71887 0.0
H835 H 0.25272 0.84877 0.76642 0.0
H836 H 0.31156 0.69865 0.84013 0.0
H837 H 0.29707 0.72135 0.82758 0.0
H838 H 0.32123 0.6753 0.81853 0.0
H839 H 0.30219 0.69776 0.77056 0.0
C840 C 0.55378 0.99479 0.06244 0.0
C841 C 0.56968 0.02047 0.08597 0.0
C842 C 0.55513 0.01237 0.07203 0.0
C843 C 0.5829 0.01075 0.08982 0.0
C844 C 0.56689 0.98486 0.06639 0.0
C845 C 0.5815 0.99297 0.08006 0.0
N846 N 0.53993 0.98765 0.04875 0.0
C847 C 0.53793 0.97036 0.03894 0.0
C848 C 0.56506 0.96719 0.05623 0.0
C849 C 0.55044 0.95986 0.04254 0.0
Gd850 Gd 0.52226 0.03541 0.99196 0.0
Gd851 Gd 0.52088 0.00681 0.04138 0.0
N852 N 0.54244 0.02165 0.06742 0.0
C853 C 0.57061 0.03818 0.09552 0.0
C854 C 0.54287 0.03856 0.0775 0.0
C855 C 0.55701 0.04714 0.09146 0.0
H856 H 0.53239 0.04564 0.07521 0.0
H857 H 0.55736 0.06067 0.09911 0.0
H858 H 0.51324 0.99679 0.9584 0.0
H859 H 0.52676 0.96469 0.02818 0.0
H860 H 0.48976 0.9813 0.93277 0.0
H861 H 0.5816 0.04492 0.10625 0.0
H862 H 0.59425 0.01685 0.10032 0.0
H863 H 0.51411 0.07709 0.00489 0.0
H864 H 0.57486 0.95912 0.05882 0.0
H865 H 0.54889 0.9462 0.03461 0.0
H866 H 0.4517 0.0238 0.92854 0.0
H867 H 0.5918 0.98564 0.08315 0.0
H868 H 0.46744 0.08129 0.97075 0.0
H869 H 0.49188 0.09476 0.99655 0.0
N870 N 0.50246 0.05381 0.98407 0.0
C871 C 0.48961 0.04648 0.96924 0.0
C872 C 0.5035 0.07102 0.99367 0.0
C873 C 0.47726 0.07351 0.97423 0.0
C874 C 0.49097 0.08112 0.98889 0.0
C875 C 0.47644 0.05599 0.96419 0.0
H876 H 0.45245 0.05468 0.94556 0.0
N877 N 0.50187 0.02001 0.96524 0.0
C878 C 0.48926 0.02905 0.95958 0.0
C879 C 0.47568 0.00321 0.93524 0.0
C880 C 0.47563 0.02073 0.94469 0.0
C881 C 0.50252 0.00339 0.95526 0.0
C882 C 0.48933 0.99464 0.94036 0.0
O883 O 0.54672 0.01214 0.0304 0.0
O884 O 0.54087 0.03683 0.01853 0.0
O885 O 0.54205 0.0344 0.97313 0.0
O886 O 0.53636 0.06067 0.98396 0.0
O887 O 0.51587 0.0362 0.04574 0.0
O888 O 0.52376 0.05327 0.02112 0.0
O889 O 0.49428 0.0251 0.99651 0.0
O890 O 0.51108 0.0165 0.01695 0.0
O891 O 0.50067 0.00821 0.05989 0.0
O892 O 0.50257 0.98187 0.04482 0.0
O893 O 0.5284 0.00631 0.9892 0.0
O894 O 0.51632 0.98888 0.01196 0.0
C895 C 0.55142 0.02557 0.02092 0.0
C896 C 0.51888 0.05175 0.03832 0.0
C897 C 0.54645 0.05748 0.95382 0.0
C898 C 0.55424 0.05078 0.92227 0.0
C899 C 0.54989 0.08115 0.9338 0.0
C900 C 0.54625 0.07558 0.95104 0.0
C901 C 0.55394 0.06879 0.91941 0.0
C902 C 0.55039 0.04515 0.93929 0.0
C903 C 0.54492 0.05197 0.97244 0.0
C904 C 0.46235 0.03007 0.93981 0.0
C905 C 0.46278 0.04766 0.9495 0.0
H906 H 0.46541 0.99633 0.92378 0.0
C907 C 0.49517 0.01664 0.0106 0.0
C908 C 0.5236 0.99061 0.996 0.0
C909 C 0.49387 0.98289 0.07576 0.0
C910 C 0.48494 0.98524 0.10737 0.0
C911 C 0.49794 0.95992 0.09548 0.0
C912 C 0.49956 0.96671 0.07845 0.0
C913 C 0.49064 0.96912 0.1099 0.0
C914 C 0.48655 0.99208 0.09035 0.0
C915 C 0.49541 0.99043 0.05799 0.0
H916 H 0.55004 0.09516 0.93177 0.0
H917 H 0.54374 0.08551 0.96229 0.0
H918 H 0.55748 0.07344 0.90639 0.0
H919 H 0.55131 0.03136 0.9414 0.0
H920 H 0.50227 0.94744 0.09747 0.0
H921 H 0.50525 0.95932 0.06746 0.0
H922 H 0.48928 0.96358 0.12296 0.0
H923 H 0.48188 0.00443 0.0884 0.0
C924 C 0.32912 0.32143 0.30368 0.0
C925 C 0.34489 0.33457 0.27952 0.0
C926 C 0.32938 0.32447 0.28508 0.0
C927 C 0.36006 0.34134 0.29278 0.0
C928 C 0.34429 0.32848 0.31712 0.0
C929 C 0.35975 0.33835 0.31154 0.0
N930 N 0.31391 0.31209 0.30878 0.0
C931 C 0.31294 0.30967 0.32715 0.0
C932 C 0.34337 0.32578 0.33591 0.0
C933 C 0.32758 0.3164 0.34096 0.0
Gd934 Gd 0.27112 0.25364 0.25682 0.0
Gd935 Gd 0.28929 0.30332 0.28515 0.0
N936 N 0.31435 0.31807 0.2726 0.0
C937 C 0.34457 0.33804 0.2609 0.0
C938 C 0.3138 0.32241 0.25478 0.0
C939 C 0.32889 0.33206 0.24856 0.0
H940 H 0.30169 0.31925 0.24547 0.0
H941 H 0.32827 0.33528 0.23437 0.0
H942 H 0.25535 0.24145 0.29692 0.0
H943 H 0.30058 0.30359 0.33138 0.0
H944 H 0.22881 0.22306 0.30599 0.0
H945 H 0.35617 0.34578 0.25609 0.0
H946 H 0.37203 0.34918 0.28874 0.0
H947 H 0.26103 0.25689 0.21103 0.0
H948 H 0.35466 0.33116 0.34667 0.0
H949 H 0.32654 0.31467 0.35554 0.0
H950 H 0.18969 0.20345 0.24794 0.0
H951 H 0.37148 0.3439 0.32169 0.0
H952 H 0.20881 0.22495 0.19206 0.0
H953 H 0.23628 0.24485 0.18552 0.0
N954 N 0.24746 0.24511 0.23215 0.0
C955 C 0.23243 0.23432 0.23607 0.0
C956 C 0.24886 0.24905 0.21429 0.0
C957 C 0.21951 0.23062 0.20343 0.0
C958 C 0.23495 0.24191 0.19971 0.0
C959 C 0.21806 0.22673 0.22178 0.0
H960 H 0.19169 0.20936 0.21534 0.0
N961 N 0.24539 0.23848 0.26796 0.0
C962 C 0.23137 0.23088 0.25446 0.0
C963 C 0.21494 0.21707 0.27773 0.0
C964 C 0.21581 0.2199 0.25899 0.0
C965 C 0.24449 0.23572 0.28623 0.0
C966 C 0.22932 0.22513 0.29143 0.0
O967 O 0.31063 0.28672 0.27952 0.0
O968 O 0.29793 0.26913 0.25132 0.0
O969 O 0.28131 0.22954 0.26224 0.0
O970 O 0.27333 0.23378 0.23326 0.0
O971 O 0.27475 0.30093 0.25531 0.0
O972 O 0.28138 0.27512 0.23977 0.0
O973 O 0.24971 0.26978 0.26278 0.0
O974 O 0.26199 0.28851 0.29078 0.0
O975 O 0.28039 0.32788 0.27967 0.0
O976 O 0.28737 0.32361 0.30882 0.0
O977 O 0.28472 0.25549 0.28679 0.0
O978 O 0.28037 0.28227 0.30345 0.0
C979 C 0.312 0.27606 0.26379 0.0
C980 C 0.27644 0.29066 0.23949 0.0
C981 C 0.28542 0.2074 0.23573 0.0
C982 C 0.29567 0.17993 0.23991 0.0
C983 C 0.29426 0.18942 0.20905 0.0
C984 C 0.28794 0.20462 0.21651 0.0
C985 C 0.2981 0.17702 0.22071 0.0
C986 C 0.28934 0.19505 0.24736 0.0
C987 C 0.28018 0.22391 0.24404 0.0
C988 C 0.20164 0.21207 0.24473 0.0
C989 C 0.20277 0.21545 0.22617 0.0
H990 H 0.20324 0.20873 0.28177 0.0
C991 C 0.248 0.28017 0.27854 0.0
C992 C 0.28384 0.26586 0.30287 0.0
C993 C 0.2776 0.35141 0.30523 0.0
C994 C 0.26218 0.37553 0.30039 0.0
C995 C 0.27622 0.37457 0.33174 0.0
C996 C 0.28183 0.35881 0.32455 0.0
C997 C 0.26632 0.38289 0.31974 0.0
C998 C 0.26795 0.3599 0.29322 0.0
C999 C 0.28176 0.334 0.29777 0.0
H1000 H 0.29636 0.18737 0.1943 0.0
H1001 H 0.28533 0.21432 0.20736 0.0
H1002 H 0.30324 0.16539 0.21488 0.0
H1003 H 0.28763 0.19724 0.26226 0.0
H1004 H 0.27943 0.38024 0.34663 0.0
H1005 H 0.28922 0.35229 0.3341 0.0
H1006 H 0.26205 0.39513 0.32549 0.0
H1007 H 0.26434 0.354 0.27837 0.0
C1008 C 0.50199 0.56549 0.05881 0.0
C1009 C 0.5291 0.58466 0.07659 0.0
C1010 C 0.5203 0.57195 0.06061 0.0
C1011 C 0.51936 0.59059 0.09081 0.0
C1012 C 0.49226 0.57119 0.07323 0.0
C1013 C 0.50104 0.58376 0.08922 0.0
N1014 N 0.49371 0.55372 0.04294 0.0
C1015 C 0.47582 0.5471 0.04061 0.0
C1016 C 0.47394 0.56421 0.07108 0.0
C1017 C 0.46571 0.55209 0.05472 0.0
Gd1018 Gd 0.52697 0.49795 0.01373 0.0
Gd1019 Gd 0.51198 0.54747 0.01996 0.0
N1020 N 0.52948 0.56579 0.04674 0.0
C1021 C 0.5474 0.59125 0.07766 0.0
C1022 C 0.54727 0.57224 0.04768 0.0
C1023 C 0.55653 0.58491 0.06322 0.0
H1024 H 0.55431 0.56808 0.03631 0.0
H1025 H 0.57066 0.59008 0.06387 0.0
H1026 H 0.48569 0.47253 0.00302 0.0
H1027 H 0.46923 0.53834 0.02768 0.0
H1028 H 0.46722 0.45118 0.97606 0.0
H1029 H 0.55457 0.60144 0.0894 0.0
H1030 H 0.52587 0.60047 0.10312 0.0
H1031 H 0.56872 0.50326 0.00387 0.0
H1032 H 0.46601 0.56822 0.08188 0.0
H1033 H 0.45153 0.5468 0.05286 0.0
H1034 H 0.50773 0.44376 0.93061 0.0
H1035 H 0.49375 0.58841 0.10036 0.0
H1036 H 0.56846 0.47469 0.94812 0.0
H1037 H 0.58484 0.49469 0.97723 0.0
N1038 N 0.54348 0.48965 0.98951 0.0
C1039 C 0.53431 0.47818 0.97392 0.0
C1040 C 0.56143 0.49529 0.99095 0.0
C1041 C 0.56131 0.47879 0.95962 0.0
C1042 C 0.5706 0.49012 0.976 0.0
C1043 C 0.54297 0.47247 0.95851 0.0
H1044 H 0.53957 0.45577 0.93079 0.0
N1045 N 0.50837 0.47749 0.9888 0.0
C1046 C 0.51623 0.4718 0.97359 0.0
C1047 C 0.48848 0.45205 0.9588 0.0
C1048 C 0.50643 0.45917 0.95804 0.0
C1049 C 0.49122 0.4697 0.9901 0.0
C1050 C 0.4809 0.45719 0.975 0.0
O1051 O 0.51848 0.53527 0.04635 0.0
O1052 O 0.53995 0.52012 0.03788 0.0
O1053 O 0.51887 0.47601 0.03105 0.0
O1054 O 0.54503 0.48133 0.02163 0.0
O1055 O 0.53686 0.54566 0.00642 0.0
O1056 O 0.5494 0.5233 0.01818 0.0
O1057 O 0.52021 0.5095 0.98695 0.0
O1058 O 0.49962 0.52679 0.99422 0.0
O1059 O 0.52134 0.56987 0.00425 0.0
O1060 O 0.49623 0.56746 0.01526 0.0
O1061 O 0.50177 0.50064 0.02683 0.0
O1062 O 0.49003 0.52213 0.0125 0.0
C1063 C 0.53147 0.52727 0.05076 0.0
C1064 C 0.55056 0.53844 0.01048 0.0
C1065 C 0.5401 0.45711 0.04072 0.0
C1066 C 0.53506 0.42991 0.05669 0.0
C1067 C 0.56476 0.44389 0.0512 0.0
C1068 C 0.55829 0.45707 0.04258 0.0
C1069 C 0.55329 0.43042 0.05814 0.0
C1070 C 0.52837 0.44342 0.04801 0.0
C1071 C 0.53423 0.47154 0.03094 0.0
C1072 C 0.51497 0.4536 0.94258 0.0
C1073 C 0.53315 0.46035 0.94274 0.0
H1074 H 0.48056 0.44208 0.94729 0.0
C1075 C 0.5078 0.51813 0.98192 0.0
C1076 C 0.48832 0.50765 0.02113 0.0
C1077 C 0.4997 0.5841 0.98947 0.0
C1078 C 0.50045 0.60921 0.9707 0.0
C1079 C 0.47405 0.58472 0.96764 0.0
C1080 C 0.48233 0.57624 0.98088 0.0
C1081 C 0.48294 0.60111 0.96271 0.0
C1082 C 0.50888 0.6005 0.98403 0.0
C1083 C 0.50732 0.57672 0.00576 0.0
H1084 H 0.57879 0.44408 0.05245 0.0
H1085 H 0.56768 0.46731 0.03734 0.0
H1086 H 0.55869 0.42026 0.0647 0.0
H1087 H 0.51431 0.4431 0.04671 0.0
H1088 H 0.46056 0.57869 0.96135 0.0
H1089 H 0.47493 0.56378 0.98479 0.0
H1090 H 0.4761 0.60745 0.9525 0.0
H1091 H 0.52219 0.60686 0.99075 0.0
C1092 C 0.73979 0.22763 0.29725 0.0
C1093 C 0.72006 0.20755 0.27127 0.0
C1094 C 0.73604 0.22037 0.27825 0.0
C1095 C 0.70747 0.20303 0.28361 0.0
C1096 C 0.72773 0.22217 0.30995 0.0
C1097 C 0.71129 0.21034 0.30293 0.0
N1098 N 0.7559 0.23878 0.30354 0.0
C1099 C 0.76163 0.243 0.32248 0.0
C1100 C 0.7329 0.22809 0.32937 0.0
C1101 C 0.7501 0.23817 0.33568 0.0
Gd1102 Gd 0.77819 0.29687 0.25866 0.0
Gd1103 Gd 0.7735 0.24829 0.28019 0.0
N1104 N 0.74853 0.22504 0.26677 0.0
C1105 C 0.71752 0.19923 0.25227 0.0
C1106 C 0.74659 0.21613 0.24856 0.0
C1107 C 0.731 0.20329 0.24096 0.0
H1108 H 0.75693 0.21921 0.23985 0.0
H1109 H 0.72939 0.19658 0.22639 0.0
H1110 H 0.79882 0.32122 0.30123 0.0
H1111 H 0.77512 0.25026 0.32739 0.0
H1112 H 0.82625 0.34389 0.31331 0.0
H1113 H 0.70546 0.18928 0.24636 0.0
H1114 H 0.695 0.19342 0.27847 0.0
H1115 H 0.77984 0.28565 0.21213 0.0
H1116 H 0.72403 0.22423 0.3396 0.0
H1117 H 0.75454 0.2421 0.35069 0.0
H1118 H 0.85652 0.35083 0.25885 0.0
H1119 H 0.70173 0.20622 0.31242 0.0
H1120 H 0.82909 0.31514 0.1992 0.0
H1121 H 0.80049 0.29302 0.18892 0.0
N1122 N 0.79705 0.30227 0.23556 0.0
C1123 C 0.81237 0.31503 0.24141 0.0
C1124 C 0.79254 0.29472 0.21693 0.0
C1125 C 0.82018 0.31171 0.20952 0.0
C1126 C 0.80409 0.29914 0.20367 0.0
C1127 C 0.82445 0.31993 0.22854 0.0
H1128 H 0.84978 0.33678 0.2253 0.0
N1129 N 0.80437 0.31793 0.27262 0.0
C1130 C 0.81611 0.32313 0.2604 0.0
C1131 C 0.83561 0.34374 0.28607 0.0
C1132 C 0.83211 0.33609 0.26688 0.0
C1133 C 0.80791 0.32518 0.29143 0.0
C1134 C 0.82355 0.33813 0.29841 0.0
O1135 O 0.74888 0.25264 0.26261 0.0
O1136 O 0.75221 0.28401 0.26855 0.0
O1137 O 0.77243 0.3241 0.26298 0.0
O1138 O 0.76234 0.30527 0.23621 0.0
O1139 O 0.78458 0.25361 0.25341 0.0
O1140 O 0.76842 0.2707 0.23836 0.0
O1141 O 0.80337 0.28613 0.26391 0.0
O1142 O 0.79748 0.27216 0.2896 0.0
O1143 O 0.78461 0.2247 0.27034 0.0
O1144 O 0.79158 0.23907 0.29917 0.0
O1145 O 0.77325 0.29834 0.28881 0.0
O1146 O 0.77152 0.27156 0.3024 0.0
C1147 C 0.74216 0.26744 0.26308 0.0
C1148 C 0.77542 0.25628 0.2383 0.0
C1149 C 0.75442 0.33512 0.23958 0.0
C1150 C 0.73963 0.36051 0.24561 0.0
C1151 C 0.74205 0.34766 0.21335 0.0
C1152 C 0.75092 0.335 0.22004 0.0
C1153 C 0.73647 0.36039 0.22605 0.0
C1154 C 0.74875 0.34796 0.25242 0.0
C1155 C 0.76306 0.32119 0.24641 0.0
C1156 C 0.84416 0.34093 0.25409 0.0
C1157 C 0.84034 0.33288 0.23499 0.0
H1158 H 0.84754 0.35401 0.29149 0.0
C1159 C 0.80888 0.27912 0.27862 0.0
C1160 C 0.77141 0.28911 0.30304 0.0
C1161 C 0.79494 0.20846 0.29387 0.0
C1162 C 0.80855 0.18213 0.29141 0.0
C1163 C 0.79609 0.19118 0.31998 0.0
C1164 C 0.79107 0.20561 0.31212 0.0
C1165 C 0.80503 0.1796 0.30977 0.0
C1166 C 0.80331 0.19638 0.28342 0.0
C1167 C 0.79346 0.22552 0.28685 0.0
H1168 H 0.73938 0.34752 0.19827 0.0
H1169 H 0.75504 0.32511 0.20995 0.0
H1170 H 0.72948 0.37006 0.22063 0.0
H1171 H 0.7511 0.34799 0.26754 0.0
H1172 H 0.79342 0.18924 0.33416 0.0
H1173 H 0.78478 0.2149 0.32057 0.0
H1174 H 0.80924 0.16871 0.31617 0.0
H1175 H 0.8067 0.19871 0.26952 0.0
C1176 C 0.0603 0.49558 0.55719 0.0
C1177 C 0.0755 0.51984 0.58254 0.0
C1178 C 0.06113 0.51231 0.56825 0.0
C1179 C 0.08942 0.51065 0.5848 0.0
C1180 C 0.07383 0.48588 0.55989 0.0
C1181 C 0.08855 0.49367 0.57353 0.0
N1182 N 0.04605 0.48865 0.54396 0.0
C1183 C 0.04392 0.47157 0.53362 0.0
C1184 C 0.07201 0.46857 0.54893 0.0
C1185 C 0.05689 0.4613 0.53588 0.0
Gd1186 Gd 0.01894 0.53407 0.49083 0.0
Gd1187 Gd 0.02509 0.50678 0.54029 0.0
N1188 N 0.04733 0.52064 0.56579 0.0
C1189 C 0.07508 0.53596 0.5946 0.0
C1190 C 0.04599 0.53511 0.57884 0.0
C1191 C 0.06004 0.54338 0.59303 0.0
H1192 H 0.0339 0.54003 0.57877 0.0
H1193 H 0.05908 0.55521 0.60299 0.0
H1194 H 0.00698 0.49411 0.45935 0.0
H1195 H 0.03219 0.46579 0.52365 0.0
H1196 H 0.9821 0.47823 0.43554 0.0
H1197 H 0.08586 0.54223 0.60573 0.0
H1198 H 0.10065 0.51631 0.59558 0.0
H1199 H 0.01272 0.57672 0.50259 0.0
H1200 H 0.08205 0.46061 0.55064 0.0
H1201 H 0.05521 0.44781 0.52754 0.0
H1202 H 0.9451 0.52176 0.43212 0.0
H1203 H 0.09918 0.48651 0.5757 0.0
H1204 H 0.96452 0.58081 0.47111 0.0
H1205 H 0.99064 0.5948 0.4948 0.0
N1206 N 0.99887 0.55247 0.48411 0.0
C1207 C 0.98493 0.5447 0.47059 0.0
C1208 C 0.00117 0.57031 0.49254 0.0
C1209 C 0.9741 0.57274 0.47459 0.0
C1210 C 0.9888 0.58067 0.488 0.0
C1211 C 0.97206 0.55458 0.46561 0.0
H1212 H 0.94758 0.55348 0.44789 0.0
N1213 N 0.99626 0.51764 0.46674 0.0
C1214 C 0.98356 0.52679 0.46167 0.0
C1215 C 0.96852 0.50053 0.43845 0.0
C1216 C 0.96924 0.51836 0.44757 0.0
C1217 C 0.99616 0.50071 0.45698 0.0
C1218 C 0.98218 0.49178 0.443 0.0
O1219 O 0.04818 0.51144 0.52469 0.0
O1220 O 0.04105 0.53651 0.51453 0.0
O1221 O 0.03374 0.53188 0.46705 0.0
O1222 O 0.03277 0.55912 0.48193 0.0
O1223 O 0.02244 0.53718 0.54647 0.0
O1224 O 0.02117 0.55266 0.5197 0.0
O1225 O 0.99226 0.52405 0.49927 0.0
O1226 O 0.01145 0.51679 0.51823 0.0
O1227 O 0.00859 0.50683 0.56251 0.0
O1228 O 0.0086 0.48077 0.54443 0.0
O1229 O 0.02608 0.50547 0.48753 0.0
O1230 O 0.01624 0.48868 0.5114 0.0
C1231 C 0.05185 0.52525 0.51544 0.0
C1232 C 0.0215 0.55199 0.53825 0.0
C1233 C 0.04925 0.55808 0.4549 0.0
C1234 C 0.06537 0.55439 0.42808 0.0
C1235 C 0.06346 0.58488 0.44236 0.0
C1236 C 0.05335 0.57723 0.45552 0.0
C1237 C 0.06948 0.57348 0.42862 0.0
C1238 C 0.05534 0.54672 0.44113 0.0
C1239 C 0.03824 0.54966 0.46807 0.0
C1240 C 0.95622 0.52805 0.44284 0.0
C1241 C 0.95765 0.54612 0.45181 0.0
H1242 H 0.95775 0.49359 0.42756 0.0
C1243 C 0.995 0.51654 0.51385 0.0
C1244 C 0.02229 0.48999 0.49486 0.0
C1245 C 0.99052 0.47964 0.57019 0.0
C1246 C 0.97812 0.48224 0.59967 0.0
C1247 C 0.98 0.45228 0.58371 0.0
C1248 C 0.9876 0.46049 0.5693 0.0
C1249 C 0.97552 0.46314 0.59907 0.0
C1250 C 0.9849 0.49029 0.58491 0.0
C1251 C 0.00306 0.48903 0.55905 0.0
H1252 H 0.06656 0.59962 0.44275 0.0
H1253 H 0.04865 0.58623 0.46602 0.0
H1254 H 0.07721 0.57948 0.41836 0.0
H1255 H 0.05223 0.53191 0.4404 0.0
H1256 H 0.97813 0.43758 0.58332 0.0
H1257 H 0.99213 0.45206 0.55815 0.0
H1258 H 0.97018 0.45672 0.6105 0.0
H1259 H 0.98737 0.50513 0.58592 0.0
C1260 C 0.73451 0.78816 0.22508 0.0
C1261 C 0.71523 0.75977 0.20866 0.0
C1262 C 0.72749 0.76959 0.22421 0.0
C1263 C 0.71073 0.76876 0.19364 0.0
C1264 C 0.72926 0.79746 0.21048 0.0
C1265 C 0.71775 0.78757 0.19454 0.0
N1266 N 0.74503 0.79745 0.24103 0.0
C1267 C 0.74893 0.81622 0.24418 0.0
C1268 C 0.73487 0.8166 0.21288 0.0
C1269 C 0.74441 0.82606 0.23001 0.0
Gd1270 Gd 0.80076 0.7643 0.26945 0.0
Gd1271 Gd 0.75228 0.77977 0.26409 0.0
N1272 N 0.73181 0.76138 0.23917 0.0
C1273 C 0.70729 0.74142 0.20906 0.0
C1274 C 0.72315 0.74393 0.24022 0.0
C1275 C 0.71107 0.73355 0.22505 0.0
H1276 H 0.72572 0.73801 0.25271 0.0
H1277 H 0.70458 0.71956 0.22576 0.0
H1278 H 0.82009 0.808 0.29058 0.0
H1279 H 0.75512 0.82362 0.25792 0.0
H1280 H 0.84123 0.82332 0.31836 0.0
H1281 H 0.69781 0.73342 0.19739 0.0
H1282 H 0.70134 0.76143 0.1816 0.0
H1283 H 0.79167 0.71943 0.27345 0.0
H1284 H 0.7311 0.82426 0.20203 0.0
H1285 H 0.74794 0.84093 0.23249 0.0
H1286 H 0.85042 0.77443 0.35166 0.0
H1287 H 0.71365 0.79448 0.18317 0.0
H1288 H 0.8181 0.71338 0.3263 0.0
H1289 H 0.79817 0.69977 0.2967 0.0
N1290 N 0.80609 0.74423 0.29051 0.0
C1291 C 0.81762 0.75191 0.30635 0.0
C1292 C 0.79958 0.72569 0.2867 0.0
C1293 C 0.81492 0.72216 0.31633 0.0
C1294 C 0.80359 0.71444 0.29969 0.0
C1295 C 0.8223 0.74105 0.31972 0.0
H1296 H 0.83795 0.74117 0.34637 0.0
N1297 N 0.81926 0.78103 0.29671 0.0
C1298 C 0.82468 0.77074 0.30933 0.0
C1299 C 0.84277 0.79815 0.32881 0.0
C1300 C 0.83654 0.77907 0.32578 0.0
C1301 C 0.82489 0.7997 0.29997 0.0
C1302 C 0.83679 0.80851 0.31593 0.0
O1303 O 0.75809 0.76006 0.2398 0.0
O1304 O 0.78796 0.77039 0.24205 0.0
O1305 O 0.82799 0.77088 0.26219 0.0
O1306 O 0.811 0.7435 0.2526 0.0
O1307 O 0.75607 0.75546 0.27818 0.0
O1308 O 0.77577 0.74164 0.26265 0.0
O1309 O 0.78879 0.77186 0.29653 0.0
O1310 O 0.77389 0.79345 0.28796 0.0
O1311 O 0.73254 0.77212 0.28399 0.0
O1312 O 0.73499 0.79736 0.27196 0.0
O1313 O 0.80245 0.79229 0.26148 0.0
O1314 O 0.77613 0.80303 0.26251 0.0
C1315 C 0.77295 0.7612 0.2323 0.0
C1316 C 0.76106 0.74066 0.27065 0.0
C1317 C 0.84076 0.74809 0.24327 0.0
C1318 C 0.86725 0.75306 0.22677 0.0
C1319 C 0.85435 0.7226 0.23307 0.0
C1320 C 0.84119 0.72939 0.24173 0.0
C1321 C 0.86725 0.7343 0.22563 0.0
C1322 C 0.85398 0.76007 0.23578 0.0
C1323 C 0.82636 0.75446 0.25272 0.0
C1324 C 0.84136 0.76825 0.33896 0.0
C1325 C 0.83421 0.74931 0.33598 0.0
H1326 H 0.85186 0.80505 0.34126 0.0
C1327 C 0.7802 0.785 0.30098 0.0
C1328 C 0.79324 0.80511 0.26044 0.0
C1329 C 0.71345 0.79394 0.29353 0.0
C1330 C 0.68707 0.78949 0.30983 0.0
C1331 C 0.7006 0.81993 0.3042 0.0
C1332 C 0.71353 0.81285 0.29544 0.0
C1333 C 0.68742 0.80834 0.31129 0.0
C1334 C 0.70018 0.78219 0.30098 0.0
C1335 C 0.72682 0.7871 0.2828 0.0
H1336 H 0.85455 0.70817 0.23208 0.0
H1337 H 0.83136 0.71995 0.24741 0.0
H1338 H 0.87731 0.72866 0.2189 0.0
H1339 H 0.85386 0.77454 0.23678 0.0
H1340 H 0.70075 0.83445 0.3054 0.0
H1341 H 0.72353 0.82226 0.28996 0.0
H1342 H 0.6774 0.81411 0.31795 0.0
H1343 H 0.69982 0.76759 0.29957 0.0
C1344 C 0.80122 0.2344 0.72253 0.0
C1345 C 0.77628 0.21713 0.70006 0.0
C1346 C 0.78393 0.23229 0.71431 0.0
C1347 C 0.78629 0.20428 0.69418 0.0
C1348 C 0.81128 0.22144 0.71682 0.0
C1349 C 0.80373 0.20641 0.70257 0.0
N1350 N 0.80819 0.24907 0.73623 0.0
C1351 C 0.82519 0.25182 0.74464 0.0
C1352 C 0.82865 0.224 0.72558 0.0
C1353 C 0.83563 0.23926 0.73957 0.0
Gd1354 Gd 0.76451 0.27739 0.79311 0.0
Gd1355 Gd 0.79053 0.27032 0.74272 0.0
N1356 N 0.77454 0.2449 0.7204 0.0
C1357 C 0.75879 0.2153 0.69211 0.0
C1358 C 0.75725 0.24277 0.71302 0.0
C1359 C 0.74921 0.22812 0.69872 0.0
H1360 H 0.7494 0.25219 0.71784 0.0
H1361 H 0.7356 0.22679 0.69278 0.0
H1362 H 0.80125 0.28585 0.82533 0.0
H1363 H 0.83086 0.26384 0.75508 0.0
H1364 H 0.8179 0.311 0.84987 0.0
H1365 H 0.75254 0.20399 0.68096 0.0
H1366 H 0.78062 0.19261 0.68322 0.0
H1367 H 0.72379 0.28521 0.78598 0.0
H1368 H 0.8368 0.21435 0.7216 0.0
H1369 H 0.84911 0.24146 0.7463 0.0
H1370 H 0.78 0.354 0.85559 0.0
H1371 H 0.81127 0.19635 0.69794 0.0
H1372 H 0.72296 0.3371 0.8183 0.0
H1373 H 0.70788 0.30974 0.79498 0.0
N1374 N 0.74787 0.29918 0.80249 0.0
C1375 C 0.75596 0.31343 0.8163 0.0
C1376 C 0.73065 0.29747 0.79534 0.0
C1377 C 0.73005 0.3265 0.81408 0.0
C1378 C 0.72152 0.31115 0.80083 0.0
C1379 C 0.7474 0.32767 0.82221 0.0
H1380 H 0.75002 0.3536 0.84078 0.0
N1381 N 0.7804 0.29936 0.81895 0.0
C1382 C 0.77271 0.3135 0.82487 0.0
C1383 C 0.79822 0.32734 0.84794 0.0
C1384 C 0.78153 0.32803 0.83928 0.0
C1385 C 0.79601 0.29794 0.82842 0.0
C1386 C 0.80533 0.31204 0.84273 0.0
O1387 O 0.7835 0.24519 0.75561 0.0
O1388 O 0.76109 0.25604 0.76697 0.0
O1389 O 0.76577 0.25905 0.81346 0.0
O1390 O 0.74006 0.26407 0.80272 0.0
O1391 O 0.76368 0.27889 0.73839 0.0
O1392 O 0.74732 0.27736 0.76479 0.0
O1393 O 0.779 0.30514 0.78909 0.0
O1394 O 0.78165 0.28591 0.76563 0.0
O1395 O 0.79117 0.28273 0.7176 0.0
O1396 O 0.81501 0.28877 0.7386 0.0
O1397 O 0.7915 0.26859 0.79472 0.0
O1398 O 0.80856 0.27787 0.77077 0.0
C1399 C 0.77004 0.24305 0.7653 0.0
C1400 C 0.74898 0.27933 0.74668 0.0
C1401 C 0.7402 0.24376 0.82612 0.0
C1402 C 0.74293 0.22935 0.85387 0.0
C1403 C 0.71385 0.22827 0.83779 0.0
C1404 C 0.72167 0.23828 0.82462 0.0
C1405 C 0.72445 0.22395 0.85254 0.0
C1406 C 0.75076 0.23894 0.84058 0.0
C1407 C 0.74873 0.25594 0.81398 0.0
C1408 C 0.77336 0.34263 0.84468 0.0
C1409 C 0.7563 0.34242 0.83622 0.0
H1410 H 0.80547 0.33825 0.85902 0.0
C1411 C 0.78549 0.30287 0.7735 0.0
C1412 C 0.80674 0.27235 0.78737 0.0
C1413 C 0.81677 0.30304 0.71026 0.0
C1414 C 0.81445 0.31803 0.68284 0.0
C1415 C 0.84324 0.31538 0.69683 0.0
C1416 C 0.8352 0.30615 0.71043 0.0
C1417 C 0.83286 0.3211 0.68284 0.0
C1418 C 0.80654 0.30946 0.69676 0.0
C1419 C 0.80772 0.29112 0.7223 0.0
H1420 H 0.69958 0.22418 0.83677 0.0
H1421 H 0.71329 0.242 0.81356 0.0
H1422 H 0.71831 0.21657 0.86298 0.0
H1423 H 0.76508 0.24335 0.84211 0.0
H1424 H 0.85743 0.31762 0.6968 0.0
H1425 H 0.84324 0.30091 0.72059 0.0
H1426 H 0.83909 0.32768 0.67196 0.0
H1427 H 0.79225 0.30694 0.69639 0.0
C1428 C 0.82909 0.81846 0.80236 0.0
C1429 C 0.84507 0.83332 0.77913 0.0
C1430 C 0.82952 0.82268 0.78401 0.0
C1431 C 0.85993 0.83996 0.79284 0.0
C1432 C 0.8441 0.82503 0.81606 0.0
C1433 C 0.85943 0.83588 0.81123 0.0
N1434 N 0.81396 0.80823 0.80688 0.0
C1435 C 0.81299 0.80408 0.82473 0.0
C1436 C 0.84318 0.82077 0.83435 0.0
C1437 C 0.82759 0.8102 0.83867 0.0
Gd1438 Gd 0.77021 0.75237 0.75763 0.0
Gd1439 Gd 0.7895 0.80348 0.78374 0.0
N1440 N 0.81477 0.81655 0.77104 0.0
C1441 C 0.84516 0.83729 0.76068 0.0
C1442 C 0.81467 0.82085 0.75322 0.0
C1443 C 0.82991 0.83098 0.74767 0.0
H1444 H 0.80277 0.81719 0.74341 0.0
H1445 H 0.82974 0.83435 0.7335 0.0
H1446 H 0.75891 0.73179 0.7941 0.0
H1447 H 0.8007 0.79703 0.82863 0.0
H1448 H 0.73243 0.71296 0.80377 0.0
H1449 H 0.85684 0.84545 0.75642 0.0
H1450 H 0.87188 0.84836 0.78939 0.0
H1451 H 0.75986 0.75604 0.71177 0.0
H1452 H 0.85438 0.82572 0.84529 0.0
H1453 H 0.82666 0.80715 0.85287 0.0
H1454 H 0.68864 0.70345 0.74959 0.0
H1455 H 0.87099 0.84122 0.82165 0.0
H1456 H 0.70601 0.72832 0.6947 0.0
H1457 H 0.7342 0.74613 0.6874 0.0
N1458 N 0.74615 0.74557 0.73356 0.0
C1459 C 0.73101 0.73502 0.73771 0.0
C1460 C 0.74745 0.74931 0.71563 0.0
C1461 C 0.71713 0.73313 0.70575 0.0
C1462 C 0.73296 0.74332 0.70157 0.0
C1463 C 0.71605 0.72864 0.72392 0.0
H1464 H 0.68916 0.71246 0.71801 0.0
N1465 N 0.74551 0.7356 0.76841 0.0
C1466 C 0.73075 0.72973 0.75553 0.0
C1467 C 0.71599 0.71262 0.77779 0.0
C1468 C 0.71551 0.7182 0.75998 0.0
C1469 C 0.7465 0.72905 0.78512 0.0
C1470 C 0.73165 0.71788 0.79032 0.0
O1471 O 0.80954 0.78512 0.77798 0.0
O1472 O 0.79688 0.76622 0.75026 0.0
O1473 O 0.78166 0.72975 0.76456 0.0
O1474 O 0.76821 0.7287 0.73634 0.0
O1475 O 0.7749 0.8004 0.75406 0.0
O1476 O 0.77962 0.77308 0.73909 0.0
O1477 O 0.74833 0.76608 0.76805 0.0
O1478 O 0.75995 0.7952 0.78539 0.0
O1479 O 0.78651 0.83085 0.77986 0.0
O1480 O 0.79109 0.82428 0.80804 0.0
O1481 O 0.78406 0.75781 0.78773 0.0
O1482 O 0.77707 0.78404 0.80209 0.0
C1483 C 0.81101 0.77434 0.76232 0.0
C1484 C 0.77563 0.78914 0.73856 0.0
C1485 C 0.79064 0.71212 0.73897 0.0
C1486 C 0.80743 0.68852 0.74008 0.0
C1487 C 0.80638 0.70387 0.71262 0.0
C1488 C 0.79554 0.71455 0.72099 0.0
C1489 C 0.81215 0.69066 0.72201 0.0
C1490 C 0.79689 0.6994 0.74852 0.0
C1491 C 0.77738 0.72076 0.74731 0.0
C1492 C 0.70046 0.7123 0.74643 0.0
C1493 C 0.70075 0.71747 0.72845 0.0
H1494 H 0.70456 0.70379 0.78175 0.0
C1495 C 0.74647 0.78147 0.77821 0.0
C1496 C 0.77936 0.76735 0.80232 0.0
C1497 C 0.7734 0.84571 0.80428 0.0
C1498 C 0.75527 0.8677 0.79936 0.0
C1499 C 0.75558 0.85487 0.82844 0.0
C1500 C 0.76753 0.84452 0.82212 0.0
C1501 C 0.74959 0.86662 0.81719 0.0
C1502 C 0.76699 0.85716 0.79289 0.0
C1503 C 0.78715 0.8363 0.79801 0.0
H1504 H 0.80996 0.70552 0.69867 0.0
H1505 H 0.7907 0.7243 0.71327 0.0
H1506 H 0.82012 0.68207 0.7152 0.0
H1507 H 0.79265 0.69717 0.76214 0.0
H1508 H 0.75125 0.85406 0.84224 0.0
H1509 H 0.77236 0.83588 0.83133 0.0
H1510 H 0.7407 0.87499 0.82242 0.0
H1511 H 0.77172 0.85855 0.77932 0.0
C1512 C 0.48314 0.46723 0.4807 0.0
C1513 C 0.46923 0.45152 0.50459 0.0
C1514 C 0.47908 0.4675 0.49923 0.0
C1515 C 0.4635 0.43541 0.49122 0.0
C1516 C 0.4774 0.45103 0.46727 0.0
C1517 C 0.46754 0.43518 0.47263 0.0
N1518 N 0.49221 0.48292 0.47564 0.0
C1519 C 0.49598 0.4833 0.45751 0.0
C1520 C 0.48137 0.45132 0.4487 0.0
C1521 C 0.49074 0.46751 0.44383 0.0
Gd1522 Gd 0.5447 0.53203 0.52455 0.0
Gd1523 Gd 0.49662 0.50921 0.49866 0.0
N1524 N 0.48425 0.48347 0.51181 0.0
C1525 C 0.46493 0.45231 0.52311 0.0
C1526 C 0.47927 0.48448 0.52954 0.0
C1527 C 0.46993 0.46889 0.53561 0.0
H1528 H 0.4816 0.49738 0.53875 0.0
H1529 H 0.4661 0.46982 0.54975 0.0
H1530 H 0.55836 0.54584 0.48466 0.0
H1531 H 0.50211 0.49596 0.45325 0.0
H1532 H 0.5758 0.57346 0.47538 0.0
H1533 H 0.45734 0.44035 0.52774 0.0
H1534 H 0.45575 0.4231 0.49506 0.0
H1535 H 0.53841 0.54384 0.57024 0.0
H1536 H 0.47705 0.43919 0.43797 0.0
H1537 H 0.49355 0.46797 0.42941 0.0
H1538 H 0.58939 0.61723 0.53268 0.0
H1539 H 0.46286 0.42269 0.46244 0.0
H1540 H 0.56565 0.59966 0.58815 0.0
H1541 H 0.54756 0.57092 0.59503 0.0
N1542 N 0.54955 0.55748 0.54869 0.0
C1543 C 0.55969 0.57312 0.5446 0.0
C1544 C 0.54526 0.55655 0.56658 0.0
C1545 C 0.56114 0.58797 0.57693 0.0
C1546 C 0.55083 0.57181 0.58087 0.0
C1547 C 0.5658 0.58876 0.55868 0.0
H1548 H 0.58151 0.61663 0.56494 0.0
N1549 N 0.55794 0.55829 0.51284 0.0
C1550 C 0.56426 0.57342 0.52631 0.0
C1551 C 0.57889 0.58943 0.50321 0.0
C1552 C 0.57489 0.58942 0.5218 0.0
C1553 C 0.56225 0.5581 0.49488 0.0
C1554 C 0.57251 0.57371 0.4897 0.0
O1555 O 0.51459 0.48923 0.50456 0.0
O1556 O 0.53337 0.50361 0.53153 0.0
O1557 O 0.56959 0.52567 0.51786 0.0
O1558 O 0.56617 0.5353 0.5469 0.0
O1559 O 0.49924 0.52587 0.52809 0.0
O1560 O 0.52489 0.52082 0.5427 0.0
O1561 O 0.52838 0.55288 0.51711 0.0
O1562 O 0.50636 0.53825 0.49261 0.0
O1563 O 0.47112 0.51473 0.50443 0.0
O1564 O 0.47557 0.50548 0.47573 0.0
O1565 O 0.54184 0.51563 0.49508 0.0
O1566 O 0.5162 0.52049 0.48013 0.0
C1567 C 0.52487 0.48852 0.52003 0.0
C1568 C 0.5093 0.52468 0.54341 0.0
C1569 C 0.58827 0.51837 0.5424 0.0
C1570 C 0.61291 0.50414 0.53723 0.0
C1571 C 0.60213 0.50578 0.56779 0.0
C1572 C 0.58931 0.51479 0.56115 0.0
C1573 C 0.61395 0.50043 0.55584 0.0
C1574 C 0.60013 0.51299 0.53056 0.0
C1575 C 0.57672 0.52978 0.53553 0.0
C1576 C 0.58111 0.60489 0.53588 0.0
C1577 C 0.57658 0.60456 0.55424 0.0
H1578 H 0.58697 0.60146 0.49919 0.0
C1579 C 0.51613 0.55332 0.50319 0.0
C1580 C 0.53206 0.51716 0.47969 0.0
C1581 C 0.45524 0.52464 0.4795 0.0
C1582 C 0.43186 0.54126 0.48298 0.0
C1583 C 0.44622 0.54085 0.45453 0.0
C1584 C 0.45703 0.52994 0.46162 0.0
C1585 C 0.4335 0.54635 0.46509 0.0
C1586 C 0.44281 0.53061 0.4902 0.0
C1587 C 0.46482 0.5115 0.48652 0.0
H1588 H 0.60305 0.50318 0.58225 0.0
H1589 H 0.58054 0.51926 0.57077 0.0
H1590 H 0.62401 0.49364 0.56111 0.0
H1591 H 0.59974 0.51607 0.51622 0.0
H1592 H 0.44748 0.54475 0.4407 0.0
H1593 H 0.46648 0.52542 0.45296 0.0
H1594 H 0.4249 0.55446 0.45931 0.0
H1595 H 0.44106 0.52626 0.50382 0.0
C1596 C 0.06876 0.56362 0.98558 0.0
C1597 C 0.08775 0.58292 0.01274 0.0
C1598 C 0.07558 0.5665 0.00464 0.0
C1599 C 0.09235 0.59675 0.00169 0.0
C1600 C 0.0743 0.57703 0.97419 0.0
C1601 C 0.08564 0.59381 0.98247 0.0
N1602 N 0.05801 0.54713 0.97786 0.0
C1603 C 0.05473 0.54222 0.95855 0.0
C1604 C 0.06904 0.57282 0.95463 0.0
C1605 C 0.05961 0.55516 0.94673 0.0
Gd1606 Gd 0.99423 0.51821 0.01968 0.0
Gd1607 Gd 0.04922 0.52771 6e-05 0.0
N1608 N 0.07114 0.55281 0.01498 0.0
C1609 C 0.09538 0.58471 0.03154 0.0
C1610 C 0.0792 0.55401 0.03288 0.0
C1611 C 0.0913 0.57006 0.04156 0.0
H1612 H 0.07642 0.54243 0.04027 0.0
H1613 H 0.09751 0.57109 0.0559 0.0
H1614 H 0.9697 0.49407 0.97912 0.0
H1615 H 0.04783 0.52842 0.95221 0.0
H1616 H 0.94726 0.46549 0.96943 0.0
H1617 H 0.1048 0.59712 0.03827 0.0
H1618 H 0.10156 0.60953 0.00773 0.0
H1619 H 0.99643 0.52554 0.06849 0.0
H1620 H 0.07298 0.58277 0.94543 0.0
H1621 H 0.05625 0.55144 0.93154 0.0
H1622 H 0.94301 0.43864 0.02583 0.0
H1623 H 0.08986 0.60431 0.97395 0.0
H1624 H 0.97252 0.47434 0.0843 0.0
H1625 H 0.98893 0.50661 0.09325 0.0
N1626 N 0.98631 0.50345 0.04562 0.0
C1627 C 0.97582 0.48623 0.04038 0.0
C1628 C 0.98959 0.5113 0.06438 0.0
C1629 C 0.97608 0.48245 0.07334 0.0
C1630 C 0.98531 0.50067 0.07845 0.0
C1631 C 0.97055 0.47528 0.05421 0.0
H1632 H 0.95527 0.44927 0.05913 0.0
N1633 N 0.97374 0.49067 0.00802 0.0
C1634 C 0.9691 0.47991 0.02128 0.0
C1635 C 0.94886 0.45777 0.99719 0.0
C1636 C 0.95675 0.46293 0.01603 0.0
C1637 C 0.96592 0.48574 0.98965 0.0
C1638 C 0.95331 0.46934 0.98402 0.0
O1639 O 0.04097 0.55284 0.01575 0.0
O1640 O 0.01228 0.54729 0.02623 0.0
O1641 O 0.96633 0.51997 0.01481 0.0
O1642 O 0.98667 0.5445 0.02185 0.0
O1643 O 0.03781 0.52285 0.02676 0.0
O1644 O 0.01413 0.51726 0.04329 0.0
O1645 O 0.00263 0.49668 0.99809 0.0
O1646 O 0.03334 0.49953 0.00461 0.0
O1647 O 0.0743 0.51942 0.00731 0.0
O1648 O 0.05741 0.5084 0.97996 0.0
O1649 O 0.01279 0.52387 -0.00086 0.0
O1650 O 0.02899 0.52943 0.97718 0.0
C1651 C 0.02765 0.55813 0.02393 0.0
C1652 C 0.03109 0.51999 0.04239 0.0
C1653 C 0.95915 0.54594 0.03235 0.0
C1654 C 0.93403 0.56024 0.03708 0.0
C1655 C 0.95466 0.55846 0.06408 0.0
C1656 C 0.96447 0.54959 0.05198 0.0
C1657 C 0.93957 0.56381 0.05671 0.0
C1658 C 0.9439 0.55117 0.02503 0.0
C1659 C 0.9698 0.53772 0.01908 0.0
C1660 C 0.95225 0.45181 0.02972 0.0
C1661 C 0.95926 0.45787 0.04869 0.0
H1662 H 0.9392 0.44495 0.99272 0.0
C1663 C 0.01692 0.48937 -1e-05 0.0
C1664 C 0.01384 0.52927 0.98283 0.0
C1665 C 0.08485 0.49852 0.98374 0.0
C1666 C 0.10858 0.48248 0.98911 0.0
C1667 C 0.09747 0.48489 0.95709 0.0
C1668 C 0.08544 0.4947 0.96413 0.0
C1669 C 0.10898 0.47876 0.96951 0.0
C1670 C 0.09656 0.49246 0.99628 0.0
C1671 C 0.07208 0.50895 0.99076 0.0
H1672 H 0.95889 0.56144 0.07918 0.0
H1673 H 0.97632 0.54585 0.0579 0.0
H1674 H 0.93248 0.57111 0.06633 0.0
H1675 H 0.93983 0.54831 0.00988 0.0
H1676 H 0.09789 0.48204 0.94198 0.0
H1677 H 0.07666 0.49941 0.95422 0.0
H1678 H 0.11826 0.47112 0.96384 0.0
H1679 H 0.09627 0.49535 0.01143 0.0
H1680 H 0.02454 0.216 0.95115 0.0
H1681 H 0.02995 0.18789 0.96204 0.0
H1682 H 0.97648 0.17521 0.97574 0.0
H1683 H 0.97133 0.20356 0.96576 0.0
H1684 H 0.99472 0.16467 0.00092 0.0
H1685 H 0.99297 0.15397 0.93329 0.0
H1686 H 0.00164 0.15971 0.90215 0.0
H1687 H 0.05465 0.15514 0.91997 0.0
H1688 H 0.04635 0.14961 0.95132 0.0
H1689 H 0.98871 0.06681 -0.00045 0.0
H1690 H 0.98495 0.09693 0.99215 0.0
H1691 H 0.04129 0.11379 0.99197 0.0
H1692 H 0.04491 0.08386 -0.00062 0.0
H1693 H 0.02223 0.12218 0.96064 0.0
H1694 H 0.02268 0.13105 0.02796 0.0
H1695 H 0.01332 0.12528 0.05881 0.0
H1696 H 0.96135 0.13257 0.04073 0.0
H1697 H 0.97024 0.13799 0.00959 0.0
C1698 C 0.01398 0.20737 0.9567 0.0
C1699 C 0.99747 0.21235 0.9575 0.0
C1700 C 0.01702 0.19103 0.96277 0.0
C1701 C 0.00354 0.1788 0.96944 0.0
C1702 C 0.98724 0.18408 0.97072 0.0
C1703 C 0.98429 0.20049 0.96494 0.0
C1704 C 0.00616 0.16056 0.97491 0.0
C1705 C 0.00051 0.15534 0.99187 0.0
C1706 C 0.01403 0.14815 0.96354 0.0
C1707 C 0.01907 0.15156 0.94473 0.0
C1708 C 0.00651 0.15432 0.93062 0.0
C1709 C 0.01135 0.15752 0.91292 0.0
C1710 C 0.0287 0.15784 0.9091 0.0
C1711 C 0.04122 0.15493 0.92296 0.0
C1712 C 0.03645 0.15175 0.94069 0.0
C1713 C 1.00031 0.07703 0.99812 0.0
C1714 C 0.01724 0.07299 0.00061 0.0
C1715 C 0.99816 0.09432 0.99391 0.0
C1716 C 0.01284 0.10797 0.9916 0.0
C1717 C 0.02969 0.10376 0.99377 0.0
C1718 C 0.03184 0.08663 0.99832 0.0
C1719 C 0.01066 0.12635 0.98648 0.0
C1720 C 0.01639 0.13155 0.9696 0.0
C1721 C 0.00267 0.1386 0.9978 0.0
C1722 C 0.99709 0.13471 0.01631 0.0
C1723 C 0.00917 0.13115 0.03043 0.0
C1724 C 0.00396 0.12799 0.048 0.0
C1725 C 0.98672 0.12847 0.05169 0.0
C1726 C 0.97466 0.1321 0.03781 0.0
C1727 C 0.97978 0.13522 0.02019 0.0
H1728 H 0.98272 0.1261 0.06533 0.0
H1729 H 0.03242 0.1603 0.89539 0.0
H1730 H 0.09118 0.7769 0.17404 0.0
H1731 H 0.11945 0.77468 0.18983 0.0
H1732 H 0.14624 0.80014 0.14724 0.0
H1733 H 0.11742 0.80185 0.13073 0.0
H1734 H 0.1619 0.77345 0.15703 0.0
H1735 H 0.14569 0.82462 0.19318 0.0
H1736 H 0.1257 0.8406 0.21029 0.0
H1737 H 0.12177 0.80196 0.24926 0.0
H1738 H 0.14161 0.78563 0.23226 0.0
H1739 H 0.24589 0.79266 0.2158 0.0
H1740 H 0.21898 0.79513 0.19662 0.0
H1741 H 0.18708 0.76625 0.23354 0.0
H1742 H 0.21386 0.76329 0.25249 0.0
H1743 H 0.17517 0.79659 0.22604 0.0
H1744 H 0.18857 0.74409 0.18914 0.0
H1745 H 0.20711 0.72638 0.1717 0.0
H1746 H 0.21628 0.76691 0.13505 0.0
H1747 H 0.19755 0.78474 0.15214 0.0
C1748 C 0.10301 0.78209 0.16789 0.0
C1749 C 0.10188 0.78979 0.15113 0.0
C1750 C 0.11932 0.78088 0.1771 0.0
C1751 C 0.13525 0.78772 0.1702 0.0
C1752 C 0.13424 0.79491 0.15307 0.0
C1753 C 0.11773 0.79591 0.14361 0.0
C1754 C 0.15268 0.7873 0.18112 0.0
C1755 C 0.16491 0.77888 0.17203 0.0
C1756 C 0.15667 0.79387 0.20089 0.0
C1757 C 0.14502 0.80384 0.21137 0.0
C1758 C 0.1405 0.81949 0.20536 0.0
C1759 C 0.12921 0.82862 0.21503 0.0
C1760 C 0.12244 0.82228 0.23082 0.0
C1761 C 0.12702 0.80685 0.23702 0.0
C1762 C 0.13831 0.79768 0.2274 0.0
C1763 C 0.23318 0.78678 0.21988 0.0
C1764 C 0.23223 0.77795 0.23596 0.0
C1765 C 0.21773 0.78814 0.20878 0.0
C1766 C 0.20086 0.78084 0.21349 0.0
C1767 C 0.19986 0.7721 0.22957 0.0
C1768 C 0.21529 0.77052 0.24052 0.0
C1769 C 0.18429 0.78268 0.20197 0.0
C1770 C 0.17223 0.79135 0.21099 0.0
C1771 C 0.18047 0.77632 0.1822 0.0
C1772 C 0.19186 0.76582 0.17202 0.0
C1773 C 0.19465 0.74928 0.17744 0.0
C1774 C 0.20515 0.7392 0.1676 0.0
C1775 C 0.213 0.7456 0.15238 0.0
C1776 C 0.21023 0.76201 0.14687 0.0
C1777 C 0.19961 0.77206 0.15657 0.0
H1778 H 0.22117 0.7378 0.14482 0.0
H1779 H 0.11366 0.82934 0.23827 0.0
H1780 H 0.50764 0.80964 0.48462 0.0
H1781 H 0.5141 0.84313 0.4947 0.0
H1782 H 0.49583 0.85008 0.4381 0.0
H1783 H 0.49068 0.81684 0.42788 0.0
H1784 H 0.52134 0.8768 0.45025 0.0
H1785 H 0.47028 0.85084 0.47995 0.0
H1786 H 0.45518 0.83042 0.50029 0.0
H1787 H 0.49395 0.85704 0.54768 0.0
H1788 H 0.50938 0.87749 0.52755 0.0
H1789 H 0.50583 0.9668 0.46859 0.0
H1790 H 0.50309 0.9336 0.46027 0.0
H1791 H 0.51936 0.93064 0.51868 0.0
H1792 H 0.52061 0.96364 0.52713 0.0
H1793 H 0.49704 0.90204 0.50696 0.0
H1794 H 0.54741 0.92913 0.47851 0.0
H1795 H 0.56378 0.94897 0.45847 0.0
H1796 H 0.52805 0.92027 0.40942 0.0
H1797 H 0.51136 0.90039 0.42919 0.0
C1798 C 0.50523 0.81839 0.47434 0.0
C1799 C 0.49871 0.81062 0.45545 0.0
C1800 C 0.50873 0.8376 0.48013 0.0
C1801 C 0.50505 0.84945 0.46736 0.0
C1802 C 0.49883 0.84153 0.44838 0.0
C1803 C 0.49584 0.82245 0.44251 0.0
C1804 C 0.50723 0.86993 0.47358 0.0
C1805 C 0.51583 0.88224 0.46255 0.0
C1806 C 0.50065 0.87744 0.48999 0.0
C1807 C 0.49104 0.86558 0.50222 0.0
C1808 C 0.47558 0.85231 0.4947 0.0
C1809 C 0.46698 0.84073 0.50619 0.0
C1810 C 0.47363 0.8424 0.52525 0.0
C1811 C 0.48883 0.85575 0.5329 0.0
C1812 C 0.49749 0.86735 0.52147 0.0
C1813 C 0.50874 0.959 0.47964 0.0
C1814 C 0.51351 0.96784 0.4985 0.0
C1815 C 0.50738 0.93996 0.47485 0.0
C1816 C 0.51156 0.92932 0.48865 0.0
C1817 C 0.5161 0.93825 0.5076 0.0
C1818 C 0.51685 0.95719 0.51247 0.0
C1819 C 0.51092 0.90897 0.48345 0.0
C1820 C 0.50264 0.89667 0.49469 0.0
C1821 C 0.51794 0.9015 0.46731 0.0
C1822 C 0.52806 0.91336 0.45537 0.0
C1823 C 0.543 0.92711 0.46346 0.0
C1824 C 0.55234 0.93835 0.45215 0.0
C1825 C 0.54694 0.9359 0.4327 0.0
C1826 C 0.53221 0.92216 0.4245 0.0
C1827 C 0.52283 0.91089 0.43574 0.0
H1828 H 0.55417 0.94462 0.42397 0.0
H1829 H 0.46698 0.83339 0.5341 0.0
H1830 H 0.519 0.28974 0.66835 0.0
H1831 H 0.49251 0.28956 0.68401 0.0
H1832 H 0.45985 0.2677 0.63055 0.0
H1833 H 0.48659 0.26948 0.6146 0.0
H1834 H 0.445 0.29046 0.6478 0.0
H1835 H 0.46835 0.24122 0.66931 0.0
H1836 H 0.49184 0.22764 0.68333 0.0
H1837 H 0.49706 0.2655 0.73506 0.0
H1838 H 0.47373 0.27945 0.72126 0.0
H1839 H 0.36652 0.25338 0.68666 0.0
H1840 H 0.39258 0.26183 0.67056 0.0
H1841 H 0.42293 0.2885 0.72401 0.0
H1842 H 0.39676 0.2797 0.74014 0.0
H1843 H 0.43922 0.26486 0.70744 0.0
H1844 H 0.41418 0.31286 0.68554 0.0
H1845 H 0.39092 0.32617 0.67059 0.0
H1846 H 0.38824 0.28913 0.61878 0.0
H1847 H 0.41138 0.27551 0.63347 0.0
C1848 C 0.50616 0.28464 0.65998 0.0
C1849 C 0.50486 0.27929 0.6403 0.0
C1850 C 0.49094 0.28447 0.66898 0.0
C1851 C 0.47395 0.27809 0.6587 0.0
C1852 C 0.47268 0.27262 0.63896 0.0
C1853 C 0.48797 0.27345 0.62983 0.0
C1854 C 0.45761 0.27743 0.66847 0.0
C1855 C 0.44368 0.2846 0.6607 0.0
C1856 C 0.45585 0.27028 0.68564 0.0
C1857 C 0.46939 0.26145 0.6942 0.0
C1858 C 0.47452 0.24666 0.68367 0.0
C1859 C 0.48782 0.23891 0.69156 0.0
C1860 C 0.49596 0.24573 0.71005 0.0
C1861 C 0.49075 0.26024 0.72073 0.0
C1862 C 0.47747 0.26805 0.71289 0.0
C1863 C 0.37851 0.26187 0.69482 0.0
C1864 C 0.37945 0.26629 0.7146 0.0
C1865 C 0.39351 0.26661 0.68561 0.0
C1866 C 0.40988 0.27589 0.69597 0.0
C1867 C 0.41052 0.28137 0.71562 0.0
C1868 C 0.39548 0.2766 0.72483 0.0
C1869 C 0.42657 0.2778 0.68673 0.0
C1870 C 0.44056 0.27079 0.69459 0.0
C1871 C 0.42827 0.28488 0.66954 0.0
C1872 C 0.41439 0.29307 0.66067 0.0
C1873 C 0.40854 0.30748 0.671 0.0
C1874 C 0.39541 0.3151 0.66256 0.0
C1875 C 0.38807 0.30846 0.64377 0.0
C1876 C 0.39392 0.29424 0.63334 0.0
C1877 C 0.40707 0.2866 0.6417 0.0
H1878 H 0.37788 0.31435 0.63727 0.0
H1879 H 0.50629 0.23975 0.71612 0.0
H1880 H 0.02057 0.77869 0.62059 0.0
H1881 H 0.02299 0.80513 0.60355 0.0
H1882 H 0.01144 0.83819 0.65279 0.0
H1883 H 0.00941 0.81191 0.66986 0.0
H1884 H 0.99035 0.84047 0.62056 0.0
H1885 H 0.0516 0.84727 0.64048 0.0
H1886 H 0.08035 0.8384 0.64506 0.0
H1887 H 0.07967 0.82597 0.58483 0.0
H1888 H 0.05074 0.83444 0.57989 0.0
H1889 H 0.01287 0.92663 0.58318 0.0
H1890 H 0.00609 0.90085 0.60079 0.0
H1891 H 0.02301 0.86571 0.5568 0.0
H1892 H 0.03091 0.89168 0.54005 0.0
H1893 H 0.04152 0.86588 0.58879 0.0
H1894 H 0.97911 0.85958 0.56946 0.0
H1895 H 0.95072 0.8694 0.56628 0.0
H1896 H 0.95406 0.88248 0.62675 0.0
H1897 H 0.98261 0.87301 0.6303 0.0
C1898 C 0.01925 0.79182 0.62796 0.0
C1899 C 0.01537 0.79344 0.64673 0.0
C1900 C 0.02043 0.80688 0.61818 0.0
C1901 C 0.01736 0.82373 0.62684 0.0
C1902 C 0.01386 0.82541 0.64575 0.0
C1903 C 0.01297 0.81046 0.65559 0.0
C1904 C 0.01708 0.83927 0.61592 0.0
C1905 C 0.00161 0.84619 0.61376 0.0
C1906 C 0.03165 0.8467 0.6069 0.0
C1907 C 0.04889 0.84126 0.60982 0.0
C1908 C 0.05747 0.84242 0.62821 0.0
C1909 C 0.07383 0.83751 0.63087 0.0
C1910 C 0.08181 0.83156 0.61525 0.0
C1911 C 0.07345 0.83053 0.59692 0.0
C1912 C 0.05707 0.83538 0.59418 0.0
C1913 C 0.01478 0.9133 0.57711 0.0
C1914 C 0.02302 0.91134 0.56058 0.0
C1915 C 0.01078 0.89848 0.58715 0.0
C1916 C 0.01443 0.8813 0.58042 0.0
C1917 C 0.0204 0.87884 0.56257 0.0
C1918 C 0.02469 0.89366 0.55283 0.0
C1919 C 0.01454 0.86673 0.59273 0.0
C1920 C 0.03014 0.86012 0.59539 0.0
C1921 C 1.00012 0.85977 0.6023 0.0
C1922 C 0.98312 0.8658 0.60013 0.0
C1923 C 0.9739 0.86475 0.58207 0.0
C1924 C 0.95775 0.87021 0.58021 0.0
C1925 C 0.95062 0.87661 0.5963 0.0
C1926 C 0.95962 0.87756 0.6143 0.0
C1927 C 0.97578 0.87215 0.61624 0.0
H1928 H 0.9381 0.8808 0.59482 0.0
H1929 H 0.09449 0.8278 0.61733 0.0
H1930 H 0.47331 0.79867 0.84827 0.0
H1931 H 0.44159 0.795 0.83935 0.0
H1932 H 0.44843 0.78157 0.78065 0.0
H1933 H 0.48046 0.78503 0.78971 0.0
H1934 H 0.42568 0.80344 0.78398 0.0
H1935 H 0.43008 0.74778 0.80726 0.0
H1936 H 0.43916 0.72866 0.82999 0.0
H1937 H 0.41073 0.75307 0.87126 0.0
H1938 H 0.40162 0.77249 0.84883 0.0
H1939 H 0.33346 0.77736 0.75292 0.0
H1940 H 0.36501 0.77852 0.75998 0.0
H1941 H 0.35965 0.78215 0.81952 0.0
H1942 H 0.32769 0.77957 0.81219 0.0
H1943 H 0.38207 0.76356 0.81489 0.0
H1944 H 0.38274 0.82277 0.79521 0.0
H1945 H 0.37694 0.84526 0.77498 0.0
H1946 H 0.39613 0.81574 0.72875 0.0
H1947 H 0.40291 0.79352 0.74914 0.0
C1948 C 0.46812 0.79474 0.83346 0.0
C1949 C 0.47953 0.79182 0.81979 0.0
C1950 C 0.44984 0.79263 0.82834 0.0
C1951 C 0.44225 0.78743 0.80932 0.0
C1952 C 0.45375 0.78536 0.79547 0.0
C1953 C 0.47215 0.78751 0.80063 0.0
C1954 C 0.42249 0.78466 0.80399 0.0
C1955 C 0.41618 0.79443 0.79053 0.0
C1956 C 0.40983 0.77336 0.81283 0.0
C1957 C 0.41529 0.76172 0.82639 0.0
C1958 C 0.42587 0.74918 0.82123 0.0
C1959 C 0.43099 0.73826 0.83405 0.0
C1960 C 0.42556 0.73968 0.85207 0.0
C1961 C 0.41494 0.75199 0.8573 0.0
C1962 C 0.40977 0.76294 0.84452 0.0
C1963 C 0.33898 0.77841 0.76754 0.0
C1964 C 0.32789 0.77842 0.78195 0.0
C1965 C 0.35724 0.77933 0.77166 0.0
C1966 C 0.3653 0.78103 0.79045 0.0
C1967 C 0.35413 0.78091 0.80487 0.0
C1968 C 0.33573 0.77948 0.80068 0.0
C1969 C 0.38515 0.78263 0.79499 0.0
C1970 C 0.39151 0.77255 0.80827 0.0
C1971 C 0.39794 0.79379 0.78616 0.0
C1972 C 0.39304 0.80639 0.77356 0.0
C1973 C 0.38554 0.82099 0.78067 0.0
C1974 C 0.38216 0.83373 0.76919 0.0
C1975 C 0.38582 0.83177 0.75044 0.0
C1976 C 0.39318 0.81718 0.74323 0.0
C1977 C 0.39696 0.80461 0.75479 0.0
H1978 H 0.38312 0.84163 0.74156 0.0
H1979 H 0.42954 0.73121 0.86198 0.0
H1980 H 0.49169 0.18247 0.16311 0.0
H1981 H 0.49651 0.15479 0.14373 0.0
H1982 H 0.52212 0.18834 0.10587 0.0
H1983 H 0.51671 0.21587 0.12496 0.0
H1984 H 0.50131 0.16053 0.08548 0.0
H1985 H 0.54525 0.16574 0.13831 0.0
H1986 H 0.55793 0.16843 0.17162 0.0
H1987 H 0.52299 0.11764 0.1763 0.0
H1988 H 0.50999 0.11471 0.14307 0.0
H1989 H 0.53288 0.08751 0.03443 0.0
H1990 H 0.53073 0.1158 0.05436 0.0
H1991 H 0.50061 0.08401 0.09057 0.0
H1992 H 0.50247 0.05559 0.07051 0.0
H1993 H 0.52498 0.11135 0.11144 0.0
H1994 H 0.48125 0.10676 0.05776 0.0
H1995 H 0.47002 0.10422 0.02403 0.0
H1996 H 0.50638 0.15451 0.02065 0.0
H1997 H 0.51801 0.15724 0.05431 0.0
C1998 C 0.49853 0.18389 0.15077 0.0
C1999 C 0.50394 0.20131 0.14561 0.0
C2000 C 0.50138 0.16806 0.13969 0.0
C2001 C 0.50992 0.16928 0.12329 0.0
C2002 C 0.51551 0.18683 0.11835 0.0
C2003 C 0.5125 0.20261 0.12932 0.0
C2004 C 0.51222 0.15232 0.11082 0.0
C2005 C 0.50677 0.14995 0.0912 0.0
C2006 C 0.51903 0.13816 0.11808 0.0
C2007 C 0.52651 0.14011 0.13824 0.0
C2008 C 0.54014 0.15524 0.1465 0.0
C2009 C 0.54743 0.15678 0.16535 0.0
C2010 C 0.54124 0.14324 0.17608 0.0
C2011 C 0.52776 0.12813 0.16798 0.0
C2012 C 0.52044 0.12651 0.14913 0.0
C2013 C 0.52554 0.08645 0.04645 0.0
C2014 C 0.51766 0.06911 0.05063 0.0
C2015 C 0.52437 0.10274 0.05792 0.0
C2016 C 0.51529 0.1022 0.07394 0.0
C2017 C 0.50766 0.08491 0.07832 0.0
C2018 C 0.50874 0.06861 0.06678 0.0
C2019 C 0.51391 0.11957 0.08625 0.0
C2020 C 0.51957 0.12199 0.10579 0.0
C2021 C 0.50746 0.13386 0.07889 0.0
C2022 C 0.50062 0.13212 0.05855 0.0
C2023 C 0.48697 0.1172 0.0498 0.0
C2024 C 0.48049 0.11575 0.0307 0.0
C2025 C 0.48748 0.1292 0.02021 0.0
C2026 C 0.50098 0.14411 0.02879 0.0
C2027 C 0.5075 0.14562 0.04789 0.0
H2028 H 0.48244 0.12805 0.00543 0.0
H2029 H 0.54692 0.14445 0.19067 0.0
H2030 H 0.08002 0.27813 0.28671 0.0
H2031 H 0.11034 0.27835 0.28069 0.0
H2032 H 0.12904 0.30099 0.33915 0.0
H2033 H 0.09834 0.30105 0.3453 0.0
H2034 H 0.15241 0.31627 0.31659 0.0
H2035 H 0.12564 0.25477 0.32227 0.0
H2036 H 0.102 0.22661 0.31556 0.0
H2037 H 0.10969 0.22033 0.25683 0.0
H2038 H 0.13326 0.24862 0.26317 0.0
H2039 H 0.23829 0.29596 0.31192 0.0
H2040 H 0.20873 0.29791 0.31972 0.0
H2041 H 0.18607 0.26965 0.26379 0.0
H2042 H 0.2156 0.26694 0.25624 0.0
H2043 H 0.16469 0.25767 0.28607 0.0
H2044 H 0.19324 0.32032 0.28205 0.0
H2045 H 0.21732 0.34805 0.29096 0.0
H2046 H 0.20646 0.35211 0.34869 0.0
H2047 H 0.18259 0.32424 0.34022 0.0
C2048 C 0.09048 0.28327 0.29842 0.0
C2049 C 0.08639 0.28943 0.31662 0.0
C2050 C 0.108 0.28331 0.2949 0.0
C2051 C 0.12231 0.28933 0.30945 0.0
C2052 C 0.11843 0.29615 0.32756 0.0
C2053 C 0.10076 0.29616 0.33111 0.0
C2054 C 0.14099 0.28784 0.30569 0.0
C2055 C 0.15509 0.30338 0.31011 0.0
C2056 C 0.14483 0.27119 0.29697 0.0
C2057 C 0.13112 0.25386 0.29317 0.0
C2058 C 0.12225 0.24741 0.30791 0.0
C2059 C 0.10886 0.23144 0.30418 0.0
C2060 C 0.10432 0.22171 0.28577 0.0
C2061 C 0.11322 0.22789 0.27108 0.0
C2062 C 0.12662 0.24387 0.27474 0.0
C2063 C 0.22706 0.29015 0.3012 0.0
C2064 C 0.22963 0.2814 0.28332 0.0
C2065 C 0.20998 0.29143 0.30566 0.0
C2066 C 0.19475 0.28441 0.29228 0.0
C2067 C 0.19731 0.27539 0.27451 0.0
C2068 C 0.21438 0.27388 0.27013 0.0
C2069 C 0.17627 0.28618 0.2968 0.0
C2070 C 0.16212 0.27064 0.29246 0.0
C2071 C 0.17246 0.30284 0.30574 0.0
C2072 C 0.18626 0.32008 0.31054 0.0
C2073 C 0.19602 0.32712 0.29665 0.0
C2074 C 0.20965 0.34285 0.30163 0.0
C2075 C 0.21347 0.35175 0.32041 0.0
C2076 C 0.20352 0.34514 0.33417 0.0
C2077 C 0.18995 0.32939 0.32929 0.0
H2078 H 0.22419 0.36371 0.3244 0.0
H2079 H 0.09392 0.20937 0.2829 0.0
H2080 H 0.96495 0.98947 0.20211 0.0
H2081 H 0.97412 0.99228 0.17087 0.0
H2082 H 0.9441 0.03409 0.16551 0.0
H2083 H 0.93424 0.03074 0.1964 0.0
H2084 H 0.94126 0.01298 0.13247 0.0
H2085 H 0.99004 0.0455 0.17916 0.0
H2086 H 0.01181 0.04906 0.20745 0.0
H2087 H 0.03292 0.00485 0.18096 0.0
H2088 H 0.0112 0.00095 0.15256 0.0
H2089 H 0.98732 0.04501 0.05728 0.0
H2090 H 0.97454 0.04316 0.0871 0.0
H2091 H 0.00234 0.00069 0.09795 0.0
H2092 H 0.01562 0.00309 0.06878 0.0
H2093 H 0.00582 0.0246 0.12845 0.0
H2094 H 0.95633 0.99218 0.08137 0.0
H2095 H 0.93487 0.98978 0.05303 0.0
H2096 H 0.91544 0.03495 0.08001 0.0
H2097 H 0.93683 0.03773 0.10846 0.0
C2098 C 0.96017 0.99912 0.19419 0.0
C2099 C 0.94897 0.00994 0.20173 0.0
C2100 C 0.96549 0.0008 0.17638 0.0
C2101 C 0.96012 0.0137 0.16601 0.0
C2102 C 0.94845 0.02409 0.17326 0.0
C2103 C 0.94286 0.02217 0.19093 0.0
C2104 C 0.96722 0.0168 0.14799 0.0
C2105 C 0.95538 0.01571 0.13161 0.0
C2106 C 0.98565 0.02033 0.14683 0.0
C2107 C 0.99893 0.02287 0.16378 0.0
C2108 C 0.99929 0.0365 0.1794 0.0
C2109 C 0.01163 0.03859 0.19545 0.0
C2110 C 0.02372 0.02717 0.19602 0.0
C2111 C 0.02355 0.01369 0.1805 0.0
C2112 C 0.01126 0.01156 0.16441 0.0
C2113 C 0.99065 0.03533 0.06611 0.0
C2114 C 0.0025 0.02429 0.06088 0.0
C2115 C 0.98329 0.03419 0.08304 0.0
C2116 C 0.98735 0.02164 0.09468 0.0
C2117 C 0.99908 0.01053 0.08927 0.0
C2118 C 0.00668 0.01193 0.07262 0.0
C2119 C 0.97987 0.02026 0.11279 0.0
C2120 C 0.99169 0.02184 0.12926 0.0
C2121 C 0.96146 0.01728 0.11397 0.0
C2122 C 0.94828 0.01525 0.09702 0.0
C2123 C 0.94752 0.00164 0.08125 0.0
C2124 C 0.93538 1.00021 0.06516 0.0
C2125 C 0.92386 0.01224 0.0647 0.0
C2126 C 0.92438 0.02565 0.08038 0.0
C2127 C 0.93648 0.02714 0.0965 0.0
H2128 H 0.91452 0.01114 0.05222 0.0
H2129 H 0.03324 0.02878 0.20847 0.0
H2130 H 0.25982 0.63328 0.47422 0.0
H2131 H 0.25521 0.65062 0.44856 0.0
H2132 H 0.28096 0.70113 0.48544 0.0
H2133 H 0.28601 0.68375 0.5112 0.0
H2134 H 0.24823 0.70004 0.4569 0.0
H2135 H 0.30636 0.68492 0.46464 0.0
H2136 H 0.32431 0.662 0.46913 0.0
H2137 H 0.29989 0.62992 0.41561 0.0
H2138 H 0.2813 0.65236 0.41113 0.0
H2139 H 0.26079 0.75084 0.386 0.0
H2140 H 0.27373 0.73923 0.41306 0.0
H2141 H 0.25946 0.68414 0.38145 0.0
H2142 H 0.24656 0.6958 0.35441 0.0
H2143 H 0.28859 0.68914 0.40888 0.0
H2144 H 0.22941 0.69918 0.40125 0.0
H2145 H 0.20602 0.71652 0.39687 0.0
H2146 H 0.22764 0.753 0.44883 0.0
H2147 H 0.25144 0.73612 0.45329 0.0
C2148 C 0.26423 0.64811 0.47691 0.0
C2149 C 0.27371 0.65731 0.4943 0.0
C2150 C 0.26149 0.65792 0.46237 0.0
C2151 C 0.26803 0.67694 0.4653 0.0
C2152 C 0.27602 0.68637 0.48315 0.0
C2153 C 0.27908 0.6765 0.49764 0.0
C2154 C 0.26887 0.68648 0.44905 0.0
C2155 C 0.25729 0.69809 0.44657 0.0
C2156 C 0.28036 0.68313 0.43551 0.0
C2157 C 0.29234 0.67026 0.43762 0.0
C2158 C 0.30472 0.67292 0.45389 0.0
C2159 C 0.31499 0.65999 0.45645 0.0
C2160 C 0.31322 0.64449 0.44268 0.0
C2161 C 0.30122 0.64193 0.42628 0.0
C2162 C 0.2908 0.65474 0.42373 0.0
C2163 C 0.26098 0.73636 0.38476 0.0
C2164 C 0.25228 0.72395 0.36873 0.0
C2165 C 0.26848 0.72982 0.40003 0.0
C2166 C 0.26706 0.71085 0.39924 0.0
C2167 C 0.26049 0.69881 0.38224 0.0
C2168 C 0.25293 0.70536 0.367 0.0
C2169 C 0.26818 0.70321 0.41684 0.0
C2170 C 0.27992 0.69165 0.41946 0.0
C2171 C 0.25648 0.70621 0.43034 0.0
C2172 C 0.24244 0.71665 0.42739 0.0
C2173 C 0.22938 0.7111 0.41156 0.0
C2174 C 0.21602 0.72082 0.40909 0.0
C2175 C 0.21543 0.73594 0.42248 0.0
C2176 C 0.22819 0.74136 0.4384 0.0
C2177 C 0.24164 0.73175 0.44088 0.0
H2178 H 0.20503 0.74339 0.42058 0.0
H2179 H 0.32118 0.63449 0.44469 0.0
H2180 H 0.64251 0.00795 0.6744 0.0
H2181 H 0.63141 0.01814 0.64573 0.0
H2182 H 0.60727 0.0562 0.67938 0.0
H2183 H 0.6175 0.04515 0.70791 0.0
H2184 H 0.58383 0.02859 0.65961 0.0
H2185 H 0.63389 0.07073 0.64484 0.0
H2186 H 0.66517 0.08183 0.64067 0.0
H2187 H 0.66189 0.03524 0.59761 0.0
H2188 H 0.63067 0.02379 0.60161 0.0
H2189 H 0.53572 0.04223 0.57706 0.0
H2190 H 0.55551 0.04553 0.60602 0.0
H2191 H 0.57755 0.00071 0.58171 0.0
H2192 H 0.5573 0.99687 0.55248 0.0
H2193 H 0.6022 0.03593 0.59639 0.0
H2194 H 0.55518 0.99174 0.61286 0.0
H2195 H 0.52384 0.979 0.61531 0.0
H2196 H 0.52224 0.02665 0.65497 0.0
H2197 H 0.5535 0.03992 0.6524 0.0
C2198 C 0.63512 0.01873 0.67555 0.0
C2199 C 0.6299 0.02516 0.69283 0.0
C2200 C 0.6292 0.02491 0.65932 0.0
C2201 C 0.61841 0.0378 0.66054 0.0
C2202 C 0.61551 0.04616 0.67827 0.0
C2203 C 0.62093 0.03956 0.69439 0.0
C2204 C 0.60577 0.03747 0.6441 0.0
C2205 C 0.58785 0.0308 0.6459 0.0
C2206 C 0.61118 0.0394 0.62616 0.0
C2207 C 0.62994 0.04637 0.6236 0.0
C2208 C 0.63986 0.06281 0.63455 0.0
C2209 C 0.65758 0.06917 0.63219 0.0
C2210 C 0.66552 0.05923 0.6189 0.0
C2211 C 0.65573 0.04294 0.60788 0.0
C2212 C 0.638 0.03654 0.61015 0.0
C2213 C 0.54433 0.03265 0.57802 0.0
C2214 C 0.54511 0.0193 0.56263 0.0
C2215 C 0.5557 0.0347 0.59446 0.0
C2216 C 0.56787 0.02346 0.59558 0.0
C2217 C 0.56818 0.00952 0.58069 0.0
C2218 C 0.55664 0.00732 0.56422 0.0
C2219 C 0.58076 0.02701 0.61222 0.0
C2220 C 0.59843 0.03419 0.6103 0.0
C2221 C 0.57527 0.02521 0.63005 0.0
C2222 C 0.55666 0.01694 0.63227 0.0
C2223 C 0.54813 0.99958 0.62201 0.0
C2224 C 0.53037 0.99225 0.62342 0.0
C2225 C 0.52104 0.00203 0.63525 0.0
C2226 C 0.52949 0.01911 0.64578 0.0
C2227 C 0.54723 0.02655 0.64436 0.0
H2228 H 0.50728 0.99635 0.63629 0.0
H2229 H 0.67925 0.06416 0.61714 0.0
H2230 H 0.26028 0.33946 0.98043 0.0
H2231 H 0.25503 0.32654 0.94638 0.0
H2232 H 0.31104 0.34198 0.94308 0.0
H2233 H 0.31635 0.35424 0.97686 0.0
H2234 H 0.28983 0.35247 0.91427 0.0
H2235 H 0.29313 0.29975 0.94502 0.0
H2236 H 0.28361 0.27738 0.96602 0.0
H2237 H 0.23246 0.26049 0.93288 0.0
H2238 H 0.24154 0.28312 0.91192 0.0
H2239 H 0.30817 0.30329 0.82941 0.0
H2240 H 0.30743 0.31509 0.86283 0.0
H2241 H 0.25121 0.29261 0.85626 0.0
H2242 H 0.25197 0.28114 0.82273 0.0
H2243 H 0.26812 0.28603 0.88951 0.0
H2244 H 0.2648 0.33668 0.85756 0.0
H2245 H 0.2725 0.36074 0.8378 0.0
H2246 H 0.32196 0.3823 0.87336 0.0
H2247 H 0.31475 0.35817 0.89311 0.0
C2248 C 0.27143 0.33994 0.97239 0.0
C2249 C 0.28875 0.34764 0.98133 0.0
C2250 C 0.26843 0.33259 0.95298 0.0
C2251 C 0.28267 0.33329 0.94216 0.0
C2252 C 0.29987 0.34125 0.9511 0.0
C2253 C 0.30289 0.34813 0.97046 0.0
C2254 C 0.28003 0.32582 0.92153 0.0
C2255 C 0.28522 0.33792 0.90885 0.0
C2256 C 0.27341 0.30692 0.91438 0.0
C2257 C 0.26794 0.29335 0.92705 0.0
C2258 C 0.27977 0.29146 0.94234 0.0
C2259 C 0.27447 0.2787 0.95422 0.0
C2260 C 0.25742 0.26757 0.95083 0.0
C2261 C 0.24565 0.26917 0.93553 0.0
C2262 C 0.25086 0.28198 0.92366 0.0
C2263 C 0.29575 0.30066 0.83514 0.0
C2264 C 0.28018 0.29123 0.82345 0.0
C2265 C 0.29527 0.30756 0.85423 0.0
C2266 C 0.27921 0.3049 0.8621 0.0
C2267 C 0.26374 0.29492 0.85057 0.0
C2268 C 0.26419 0.28838 0.83141 0.0
C2269 C 0.27856 0.31262 0.88227 0.0
C2270 C 0.27265 0.3006 0.89485 0.0
C2271 C 0.28443 0.33165 0.88934 0.0
C2272 C 0.28929 0.34546 0.87673 0.0
C2273 C 0.27746 0.34634 0.86099 0.0
C2274 C 0.2817 0.36005 0.84983 0.0
C2275 C 0.2977 0.37304 0.85435 0.0
C2276 C 0.30957 0.37223 0.86989 0.0
C2277 C 0.30542 0.35852 0.88105 0.0
H2278 H 0.30086 0.38383 0.84592 0.0
H2279 H 0.25335 0.25766 0.96002 0.0
H2280 H 0.96453 0.9945 0.3008 0.0
H2281 H 0.97659 0.9943 0.33369 0.0
H2282 H 0.94786 0.0351 0.3535 0.0
H2283 H 0.93579 0.0353 0.32112 0.0
H2284 H 0.98258 0.04392 0.36914 0.0
H2285 H 0.93273 0.99451 0.3599 0.0
H2286 H 0.91276 0.96581 0.34343 0.0
H2287 H 0.95403 0.9364 0.35195 0.0
H2288 H 0.97439 0.96504 0.36818 0.0
H2289 H 0.98845 0.03667 0.46763 0.0
H2290 H 0.97791 0.03698 0.43467 0.0
H2291 H 0.00882 0.99771 0.41657 0.0
H2292 H 0.01982 0.99765 0.44961 0.0
H2293 H 0.97305 0.98825 0.39995 0.0
H2294 H 0.02219 0.04173 0.41202 0.0
H2295 H 0.03908 0.07214 0.42826 0.0
H2296 H 0.99426 0.09569 0.41577 0.0
H2297 H 0.97699 0.06536 0.39969 0.0
C2298 C 0.96079 0.00333 0.31222 0.0
C2299 C 0.94918 0.01481 0.30844 0.0
C2300 C 0.96762 0.00319 0.33093 0.0
C2301 C 0.96308 0.01472 0.34593 0.0
C2302 C 0.95154 0.02617 0.3421 0.0
C2303 C 0.94457 0.02613 0.32358 0.0
C2304 C 0.97043 0.01511 0.36572 0.0
C2305 C 0.98044 0.0318 0.37596 0.0
C2306 C 0.96742 0.99931 0.37453 0.0
C2307 C 0.95518 0.98198 0.36503 0.0
C2308 C 0.93762 0.98196 0.3581 0.0
C2309 C 0.92621 0.9657 0.34883 0.0
C2310 C 0.93214 0.9493 0.34658 0.0
C2311 C 0.94947 0.94913 0.35367 0.0
C2312 C 0.96096 0.96537 0.3629 0.0
C2313 C 0.99316 0.02821 0.45667 0.0
C2314 C 0.0049 0.01702 0.46126 0.0
C2315 C 0.98713 0.02844 0.43783 0.0
C2316 C 0.99264 0.01742 0.42322 0.0
C2317 C 0.00444 0.00632 0.4277 0.0
C2318 C 0.0107 0.00629 0.44657 0.0
C2319 C 0.9856 0.017 0.40329 0.0
C2320 C 0.97541 1.00033 0.39308 0.0
C2321 C 0.98794 0.03303 0.39473 0.0
C2322 C 0.99823 0.05119 0.40482 0.0
C2323 C 0.01586 0.05333 0.41293 0.0
C2324 C 0.02551 0.07058 0.42206 0.0
C2325 C 0.01773 0.08583 0.42309 0.0
C2326 C 1.00026 0.08386 0.41499 0.0
C2327 C 0.99054 0.06665 0.40586 0.0
H2328 H 0.02524 0.09917 0.43012 0.0
H2329 H 0.9233 0.93672 0.33939 0.0
H2330 H 0.276 0.6824 0.57052 0.0
H2331 H 0.27232 0.69959 0.60075 0.0
H2332 H 0.25238 0.64865 0.62057 0.0
H2333 H 0.25539 0.63141 0.58993 0.0
H2334 H 0.238 0.67773 0.63601 0.0
H2335 H 0.2958 0.66501 0.62781 0.0
H2336 H 0.32291 0.66481 0.61254 0.0
H2337 H 0.33306 0.72357 0.61692 0.0
H2338 H 0.30593 0.7241 0.63205 0.0
H2339 H 0.2845 0.72059 0.73291 0.0
H2340 H 0.28048 0.69938 0.70301 0.0
H2341 H 0.26743 0.74143 0.6727 0.0
H2342 H 0.26839 0.76137 0.70233 0.0
H2343 H 0.29782 0.71328 0.66485 0.0
H2344 H 0.23731 0.72526 0.66766 0.0
H2345 H 0.2114 0.72637 0.68461 0.0
H2346 H 0.20586 0.66935 0.6896 0.0
H2347 H 0.23248 0.66824 0.6736 0.0
C2348 C 0.27022 0.67499 0.58112 0.0
C2349 C 0.26628 0.65577 0.57835 0.0
C2350 C 0.26817 0.68473 0.5983 0.0
C2351 C 0.26268 0.67524 0.61291 0.0
C2352 C 0.25681 0.65608 0.6094 0.0
C2353 C 0.25852 0.64631 0.592 0.0
C2354 C 0.26561 0.68512 0.63233 0.0
C2355 C 0.25108 0.68535 0.64241 0.0
C2356 C 0.28275 0.69496 0.64057 0.0
C2357 C 0.29877 0.69457 0.63094 0.0
C2358 C 0.30373 0.67786 0.62535 0.0
C2359 C 0.31912 0.6777 0.61677 0.0
C2360 C 0.32969 0.69416 0.61375 0.0
C2361 C 0.32487 0.71083 0.61927 0.0
C2362 C 0.3095 0.71107 0.62785 0.0
C2363 C 0.28056 0.72526 0.71989 0.0
C2364 C 0.2766 0.74273 0.72005 0.0
C2365 C 0.27831 0.71315 0.70293 0.0
C2366 C 0.27307 0.71884 0.68599 0.0
C2367 C 0.27083 0.73674 0.68588 0.0
C2368 C 0.27186 0.74834 0.70285 0.0
C2369 C 0.27019 0.70632 0.66814 0.0
C2370 C 0.28479 0.70548 0.65847 0.0
C2371 C 0.25314 0.69615 0.66025 0.0
C2372 C 0.2373 0.69687 0.67007 0.0
C2373 C 0.23097 0.71313 0.67293 0.0
C2374 C 0.21608 0.71374 0.68228 0.0
C2375 C 0.20708 0.69798 0.68834 0.0
C2376 C 0.21296 0.6816 0.68506 0.0
C2377 C 0.22803 0.68101 0.67598 0.0
H2378 H 0.19547 0.69844 0.69546 0.0
H2379 H 0.34163 0.69401 0.60716 0.0
H2380 H 0.6114 0.03863 0.77567 0.0
H2381 H 0.59824 0.04236 0.80485 0.0
H2382 H 0.64887 0.04623 0.83735 0.0
H2383 H 0.6621 0.0422 0.80819 0.0
H2384 H 0.62323 0.01672 0.84223 0.0
H2385 H 0.62992 0.08115 0.84454 0.0
H2386 H 0.6292 0.10853 0.82945 0.0
H2387 H 0.57292 0.09054 0.81473 0.0
H2388 H 0.57332 0.06288 0.82947 0.0
H2389 H 0.58502 0.03996 0.92751 0.0
H2390 H 0.60126 0.02954 0.9022 0.0
H2391 H 0.55519 0.02391 0.8615 0.0
H2392 H 0.53915 0.03504 0.88677 0.0
H2393 H 0.58196 0.05544 0.86324 0.0
H2394 H 0.57592 0.99028 0.8613 0.0
H2395 H 0.57795 0.96147 0.87313 0.0
H2396 H 0.63427 0.98031 0.88654 0.0
H2397 H 0.63257 0.00944 0.87524 0.0
C2398 C 0.61988 0.0409 0.78902 0.0
C2399 C 0.63759 0.03939 0.78975 0.0
C2400 C 0.61237 0.04309 0.80566 0.0
C2401 C 0.62265 0.04421 0.82305 0.0
C2402 C 0.64082 0.04507 0.8239 0.0
C2403 C 0.6483 0.0427 0.80724 0.0
C2404 C 0.61374 0.04141 0.83967 0.0
C2405 C 0.61448 0.02535 0.8473 0.0
C2406 C 0.60221 0.05257 0.84563 0.0
C2407 C 0.60166 0.06992 0.83812 0.0
C2408 C 0.61738 0.08306 0.83814 0.0
C2409 C 0.61704 0.0986 0.82959 0.0
C2410 C 0.60103 0.10127 0.82112 0.0
C2411 C 0.5853 0.08847 0.82133 0.0
C2412 C 0.58557 0.07288 0.82983 0.0
C2413 C 0.57817 0.03565 0.91325 0.0
C2414 C 0.56121 0.03878 0.90866 0.0
C2415 C 0.58734 0.02947 0.89889 0.0
C2416 C 0.57944 0.02642 0.88008 0.0
C2417 C 0.56142 0.0264 0.87603 0.0
C2418 C 0.55238 0.03295 0.89032 0.0
C2419 C 0.59088 0.03028 0.86549 0.0
C2420 C 0.59079 0.04679 0.85843 0.0
C2421 C 0.60314 0.01959 0.86032 0.0
C2422 C 0.60407 0.00223 0.86766 0.0
C2423 C 0.58871 0.98845 0.86706 0.0
C2424 C 0.58981 0.97201 0.87361 0.0
C2425 C 0.60622 0.96909 0.88064 0.0
C2426 C 0.62156 0.98261 0.88114 0.0
C2427 C 0.62053 0.9991 0.87468 0.0
H2428 H 0.60705 0.95633 0.88565 0.0
H2429 H 0.6008 0.11325 0.81441 0.0
H2430 H 0.28939 0.32056 0.07011 0.0
H2431 H 0.28461 0.30957 0.10027 0.0
H2432 H 0.26393 0.35709 0.11893 0.0
H2433 H 0.26804 0.36776 0.08865 0.0
H2434 H 0.29416 0.35041 0.14376 0.0
H2435 H 0.23579 0.32091 0.11217 0.0
H2436 H 0.21499 0.30146 0.08567 0.0
H2437 H 0.23792 0.2554 0.09416 0.0
H2438 H 0.25902 0.27466 0.12059 0.0
H2439 H 0.26501 0.32135 0.23065 0.0
H2440 H 0.26468 0.33255 0.2 0.0
H2441 H 0.28626 0.28725 0.17642 0.0
H2442 H 0.2876 0.27664 0.20683 0.0
H2443 H 0.254 0.29343 0.15428 0.0
H2444 H 0.31445 0.32158 0.17982 0.0
H2445 H 0.33897 0.33992 0.20335 0.0
H2446 H 0.31458 0.38639 0.20509 0.0
H2447 H 0.29009 0.36838 0.18121 0.0
C2448 C 0.28333 0.32834 0.08044 0.0
C2449 C 0.27892 0.3449 0.07697 0.0
C2450 C 0.2807 0.32213 0.09767 0.0
C2451 C 0.27405 0.33263 0.11185 0.0
C2452 C 0.26908 0.34882 0.10816 0.0
C2453 C 0.27126 0.35478 0.09078 0.0
C2454 C 0.2733 0.32729 0.13092 0.0
C2455 C 0.2851 0.33817 0.14616 0.0
C2456 C 0.26195 0.311 0.13386 0.0
C2457 C 0.24906 0.29926 0.11826 0.0
C2458 C 0.23647 0.30666 0.10831 0.0
C2459 C 0.22461 0.29567 0.09332 0.0
C2460 C 0.22516 0.27721 0.08821 0.0
C2461 C 0.23752 0.2697 0.09813 0.0
C2462 C 0.24941 0.28064 0.11314 0.0
C2463 C 0.26967 0.3138 0.21893 0.0
C2464 C 0.27585 0.2978 0.22115 0.0
C2465 C 0.26949 0.3202 0.20146 0.0
C2466 C 0.27523 0.31054 0.18591 0.0
C2467 C 0.28154 0.29474 0.18815 0.0
C2468 C 0.28214 0.28863 0.2056 0.0
C2469 C 0.27466 0.31673 0.16718 0.0
C2470 C 0.26277 0.30589 0.15197 0.0
C2471 C 0.28613 0.33289 0.16415 0.0
C2472 C 0.30035 0.34359 0.17899 0.0
C2473 C 0.31425 0.33566 0.18537 0.0
C2474 C 0.32819 0.34602 0.19865 0.0
C2475 C 0.32826 0.36426 0.20585 0.0
C2476 C 0.31447 0.37223 0.19958 0.0
C2477 C 0.30061 0.36199 0.18609 0.0
H2478 H 0.33902 0.37223 0.21621 0.0
H2479 H 0.21598 0.26873 0.07658 0.0
H2480 H 0.23103 0.92756 0.99271 0.0
H2481 H 0.20219 0.9356 0.9876 0.0
H2482 H 0.22764 0.9932 0.99837 0.0
H2483 H 0.25639 0.98541 0.00365 0.0
H2484 H 0.20541 0.97979 0.02482 0.0
H2485 H 0.20576 0.97765 0.95735 0.0
H2486 H 0.20938 0.96159 0.92616 0.0
H2487 H 0.16492 0.91833 0.92957 0.0
H2488 H 0.16118 0.93403 0.96094 0.0
H2489 H 0.136 0.02218 0.02935 0.0
H2490 H 0.16014 0.01335 0.01331 0.0
H2491 H 0.13203 0.95659 0.00359 0.0
H2492 H 0.10794 0.96543 0.02 0.0
H2493 H 0.15455 0.96776 0.97417 0.0
H2494 H 0.15459 0.96807 0.041 0.0
H2495 H 0.15385 0.97928 0.07469 0.0
H2496 H 0.20014 0.02159 0.07493 0.0
H2497 H 0.20076 0.01109 0.04102 0.0
C2498 C 0.23047 0.94191 0.99358 0.0
C2499 C 0.24577 0.95592 -0.00087 0.0
C2500 C 0.21408 0.94643 0.99041 0.0
C2501 C 0.21301 0.96493 0.99265 0.0
C2502 C 0.2284 0.97885 0.99653 0.0
C2503 C 0.24473 0.97437 -0.00024 0.0
C2504 C 0.19612 0.96986 0.99535 0.0
C2505 C 0.19439 0.97763 0.01368 0.0
C2506 C 0.1817 0.96586 0.9809 0.0
C2507 C 0.18321 0.957 0.96153 0.0
C2508 C 0.19675 0.96471 0.95146 0.0
C2509 C 0.19884 0.95566 0.93376 0.0
C2510 C 0.1874 0.93894 0.92589 0.0
C2511 C 0.17377 0.9313 0.93567 0.0
C2512 C 0.17162 0.94029 0.9534 0.0
C2513 C 0.13474 0.00795 0.02313 0.0
C2514 C 0.12041 0.99437 0.02588 0.0
C2515 C 0.14842 0.00294 0.01396 0.0
C2516 C 0.14778 0.98435 0.0075 0.0
C2517 C 0.13259 0.971 0.00847 0.0
C2518 C 0.11898 0.97599 0.01789 0.0
C2519 C 0.16419 0.97868 0.00354 0.0
C2520 C 0.1657 0.97037 0.98519 0.0
C2521 C 0.17856 0.98192 0.01811 0.0
C2522 C 0.17743 0.98905 0.03824 0.0
C2523 C 0.16432 0.98008 0.04804 0.0
C2524 C 0.16399 0.98625 0.06725 0.0
C2525 C 0.17688 0.0012 0.07692 0.0
C2526 C 0.19009 0.01008 0.0674 0.0
C2527 C 0.19038 0.00408 0.04816 0.0
H2528 H 0.17669 0.00585 0.09182 0.0
H2529 H 0.18908 0.93191 0.91222 0.0
H2530 H 0.70031 0.65073 0.00329 0.0
H2531 H 0.66952 0.63636 0.00584 0.0
H2532 H 0.68168 0.58273 0.99471 0.0
H2533 H 0.71213 0.59685 0.99181 0.0
H2534 H 0.65237 0.58316 0.97396 0.0
H2535 H 0.67636 0.60255 0.0393 0.0
H2536 H 0.69075 0.62391 0.06826 0.0
H2537 H 0.64966 0.65419 0.06407 0.0
H2538 H 0.63516 0.63318 0.03491 0.0
H2539 H 0.58317 0.53042 0.01897 0.0
H2540 H 0.61205 0.54783 0.01429 0.0
H2541 H 0.58765 0.58969 0.99508 0.0
H2542 H 0.55845 0.57153 0.99785 0.0
H2543 H 0.62153 0.59687 0.02981 0.0
H2544 H 0.59771 0.57562 0.9635 0.0
H2545 H 0.58367 0.5522 0.93595 0.0
H2546 H 0.62565 0.52353 0.94357 0.0
H2547 H 0.63969 0.54653 0.97152 0.0
C2548 C 0.69639 0.63588 0.0014 0.0
C2549 C 0.70865 0.62494 0.99727 0.0
C2550 C 0.67883 0.6277 0.00296 0.0
C2551 C 0.67332 0.60846 0.00057 0.0
C2552 C 0.68559 0.59759 0.99654 0.0
C2553 C 0.70304 0.60571 0.99491 0.0
C2554 C 0.65468 0.59943 0.0016 0.0
C2555 C 0.6457 0.58614 0.98624 0.0
C2556 C 0.64583 0.60349 0.01749 0.0
C2557 C 0.65482 0.61645 0.03473 0.0
C2558 C 0.67052 0.61391 0.0444 0.0
C2559 C 0.67867 0.62592 0.06089 0.0
C2560 C 0.67117 0.64044 0.06796 0.0
C2561 C 0.65549 0.64297 0.05855 0.0
C2562 C 0.64731 0.63102 0.04203 0.0
C2563 C 0.58374 0.54285 0.01294 0.0
C2564 C 0.56828 0.54905 0.008 0.0
C2565 C 0.60034 0.55297 0.01061 0.0
C2566 C 0.60185 0.56984 0.00408 0.0
C2567 C 0.58664 0.57651 -0.00016 0.0
C2568 C 0.56997 0.56606 0.00144 0.0
C2569 C 0.61949 0.5807 0.00226 0.0
C2570 C 0.62824 0.59418 0.01749 0.0
C2571 C 0.62823 0.5767 0.98638 0.0
C2572 C 0.61956 0.56261 0.96986 0.0
C2573 C 0.60376 0.56412 0.95956 0.0
C2574 C 0.59585 0.55097 0.94381 0.0
C2575 C 0.60371 0.53633 0.93807 0.0
C2576 C 0.61952 0.53483 0.94808 0.0
C2577 C 0.62745 0.54791 0.9639 0.0
H2578 H 0.59761 0.5262 0.92582 0.0
H2579 H 0.67747 0.64969 0.08075 0.0
H2580 H 0.69297 0.50926 0.28328 0.0
H2581 H 0.70645 0.48234 0.27915 0.0
H2582 H 0.65453 0.44647 0.26996 0.0
H2583 H 0.64104 0.47339 0.27332 0.0
H2584 H 0.68029 0.43865 0.29885 0.0
H2585 H 0.67234 0.44656 0.23416 0.0
H2586 H 0.67384 0.46374 0.20732 0.0
H2587 H 0.73054 0.47836 0.21915 0.0
H2588 H 0.72935 0.46145 0.24626 0.0
H2589 H 0.70767 0.35624 0.25862 0.0
H2590 H 0.69372 0.38129 0.27065 0.0
H2591 H 0.7432 0.4202 0.27258 0.0
H2592 H 0.75691 0.39521 0.26018 0.0
H2593 H 0.71692 0.42565 0.24789 0.0
H2594 H 0.72403 0.41544 0.31261 0.0
H2595 H 0.72115 0.39847 0.33954 0.0
H2596 H 0.66452 0.38694 0.32723 0.0
H2597 H 0.66704 0.4036 0.30002 0.0
C2598 C 0.68451 0.49562 0.27981 0.0
C2599 C 0.66606 0.49325 0.27816 0.0
C2600 C 0.69215 0.48032 0.27766 0.0
C2601 C 0.68142 0.46251 0.27441 0.0
C2602 C 0.66296 0.46014 0.2725 0.0
C2603 C 0.65531 0.47545 0.27414 0.0
C2604 C 0.68962 0.44644 0.27323 0.0
C2605 C 0.68814 0.43555 0.28761 0.0
C2606 C 0.69993 0.44272 0.25867 0.0
C2607 C 0.70074 0.45292 0.24238 0.0
C2608 C 0.68512 0.45359 0.23116 0.0
C2609 C 0.68591 0.46324 0.21587 0.0
C2610 C 0.70227 0.47219 0.21156 0.0
C2611 C 0.71787 0.47145 0.22252 0.0
C2612 C 0.71715 0.46182 0.23784 0.0
C2613 C 0.71564 0.37008 0.26235 0.0
C2614 C 0.73324 0.37398 0.25847 0.0
C2615 C 0.70773 0.38434 0.26929 0.0
C2616 C 0.71742 0.4026 0.2724 0.0
C2617 C 0.73552 0.40619 0.27027 0.0
C2618 C 0.74336 0.39196 0.26327 0.0
C2619 C 0.70811 0.41795 0.27384 0.0
C2620 C 0.70919 0.42867 0.25927 0.0
C2621 C 0.69727 0.42125 0.28813 0.0
C2622 C 0.69575 0.41061 0.30409 0.0
C2623 C 0.71096 0.40907 0.31546 0.0
C2624 C 0.70939 0.39958 0.33085 0.0
C2625 C 0.69267 0.39161 0.33509 0.0
C2626 C 0.67747 0.3931 0.32392 0.0
C2627 C 0.67897 0.40257 0.30852 0.0
H2628 H 0.6915 0.38432 0.34704 0.0
H2629 H 0.70286 0.47965 0.19972 0.0
H2630 H 0.83915 0.48759 0.50686 0.0
H2631 H 0.8711 0.49537 0.50658 0.0
H2632 H 0.86952 0.4407 0.4776 0.0
H2633 H 0.83745 0.4329 0.47804 0.0
H2634 H 0.89062 0.45112 0.51397 0.0
H2635 H 0.88412 0.47268 0.45485 0.0
H2636 H 0.86607 0.48765 0.43454 0.0
H2637 H 0.88271 0.53827 0.47356 0.0
H2638 H 0.90066 0.52351 0.49428 0.0
H2639 H 0.98371 0.48012 0.51178 0.0
H2640 H 0.95255 0.46612 0.5096 0.0
H2641 H 0.94184 0.51872 0.53118 0.0
H2642 H 0.9733 0.53285 0.53326 0.0
H2643 H 0.9275 0.50537 0.49387 0.0
H2644 H 0.93025 0.48374 0.55412 0.0
H2645 H 0.94292 0.46814 0.5782 0.0
H2646 H 0.93148 0.41771 0.53873 0.0
H2647 H 0.91871 0.43307 0.51431 0.0
C2648 C 0.84555 0.47766 0.4995 0.0
C2649 C 0.83629 0.45972 0.49261 0.0
C2650 C 0.8637 0.48197 0.49953 0.0
C2651 C 0.8724 0.46842 0.49226 0.0
C2652 C 0.86283 0.45112 0.48338 0.0
C2653 C 0.84466 0.44679 0.48348 0.0
C2654 C 0.89157 0.47203 0.49609 0.0
C2655 C 0.89892 0.4626 0.5092 0.0
C2656 C 0.90191 0.4872 0.49 0.0
C2657 C 0.89389 0.49703 0.47605 0.0
C2658 C 0.88419 0.48711 0.45893 0.0
C2659 C 0.87384 0.4955 0.44743 0.0
C2660 C 0.87325 0.51391 0.45276 0.0
C2661 C 0.88325 0.52403 0.46943 0.0
C2662 C 0.89359 0.51568 0.48102 0.0
C2663 C 0.97498 0.48842 0.51741 0.0
C2664 C 0.98064 0.50746 0.5227 0.0
C2665 C 0.95711 0.48045 0.51591 0.0
C2666 C 0.94508 0.49158 0.51986 0.0
C2667 C 0.95111 0.51009 0.52791 0.0
C2668 C 0.96899 0.51806 0.52937 0.0
C2669 C 0.92651 0.48478 0.51229 0.0
C2670 C 0.91939 0.49357 0.49831 0.0
C2671 C 0.91639 0.46897 0.51756 0.0
C2672 C 0.92355 0.45955 0.53238 0.0
C2673 C 0.93047 0.46933 0.55055 0.0
C2674 C 0.93768 0.46053 0.56426 0.0
C2675 C 0.93801 0.44193 0.56001 0.0
C2676 C 0.93116 0.4321 0.54201 0.0
C2677 C 0.92387 0.44083 0.52824 0.0
H2678 H 0.94348 0.43508 0.57068 0.0
H2679 H 0.86504 0.52032 0.44397 0.0
H2680 H 0.32611 0.03858 0.27264 0.0
H2681 H 0.3241 0.06872 0.26453 0.0
H2682 H 0.36048 0.09524 0.31443 0.0
H2683 H 0.3619 0.06542 0.32299 0.0
H2684 H 0.3303 0.10544 0.31324 0.0
H2685 H 0.37283 0.09927 0.27088 0.0
H2686 H 0.38661 0.0839 0.24558 0.0
H2687 H 0.34091 0.08073 0.20575 0.0
H2688 H 0.32669 0.09577 0.23083 0.0
H2689 H 0.31926 0.18867 0.27178 0.0
H2690 H 0.33062 0.16682 0.28937 0.0
H2691 H 0.29351 0.12188 0.25361 0.0
H2692 H 0.28228 0.14357 0.23593 0.0
H2693 H 0.33238 0.12682 0.25119 0.0
H2694 H 0.28739 0.12436 0.2933 0.0
H2695 H 0.27 0.13121 0.31924 0.0
H2696 H 0.31718 0.14464 0.35918 0.0
H2697 H 0.33496 0.13847 0.33338 0.0
C2698 C 0.33332 0.05094 0.28197 0.0
C2699 C 0.34351 0.04993 0.29874 0.0
C2700 C 0.33264 0.06798 0.27708 0.0
C2701 C 0.34251 0.08396 0.28874 0.0
C2702 C 0.35299 0.08291 0.30526 0.0
C2703 C 0.35335 0.06597 0.31036 0.0
C2704 C 0.33909 0.10164 0.28572 0.0
C2705 C 0.33132 0.11064 0.29993 0.0
C2706 C 0.34008 0.10768 0.26809 0.0
C2707 C 0.34866 0.09868 0.25283 0.0
C2708 C 0.36565 0.09521 0.25677 0.0
C2709 C 0.37355 0.08655 0.24244 0.0
C2710 C 0.36464 0.08135 0.22408 0.0
C2711 C 0.34781 0.0848 0.21998 0.0
C2712 C 0.33984 0.09343 0.23425 0.0
C2713 C 0.31325 0.17414 0.26814 0.0
C2714 C 0.30028 0.16749 0.25238 0.0
C2715 C 0.31958 0.16181 0.27825 0.0
C2716 C 0.31278 0.14297 0.27264 0.0
C2717 C 0.29872 0.1365 0.25803 0.0
C2718 C 0.29251 0.14875 0.24787 0.0
C2719 C 0.32283 0.12996 0.27846 0.0
C2720 C 0.33205 0.12209 0.26478 0.0
C2721 C 0.32283 0.12462 0.29646 0.0
C2722 C 0.3126 0.13143 0.31126 0.0
C2723 C 0.29418 0.12941 0.30747 0.0
C2724 C 0.2842 0.13295 0.32222 0.0
C2725 C 0.29246 0.13828 0.34086 0.0
C2726 C 0.31078 0.14047 0.34475 0.0
C2727 C 0.32083 0.13713 0.33005 0.0
H2728 H 0.28468 0.14084 0.35226 0.0
H2729 H 0.37079 0.07465 0.21302 0.0
H2730 H 0.29535 0.11605 0.52455 0.0
H2731 H 0.32107 0.10202 0.52525 0.0
H2732 H 0.3478 0.14302 0.49515 0.0
H2733 H 0.32205 0.15709 0.49424 0.0
H2734 H 0.35079 0.10785 0.48061 0.0
H2735 H 0.36061 0.14679 0.54031 0.0
H2736 H 0.35181 0.16033 0.57019 0.0
H2737 H 0.3417 0.10736 0.58785 0.0
H2738 H 0.35017 0.09342 0.55791 0.0
H2739 H 0.43679 0.0866 0.513 0.0
H2740 H 0.41238 0.10065 0.50231 0.0
H2741 H 0.37556 0.06042 0.52449 0.0
H2742 H 0.39975 0.0464 0.535 0.0
H2743 H 0.3799 0.09834 0.54178 0.0
H2744 H 0.36967 0.05972 0.48045 0.0
H2745 H 0.37702 0.04697 0.44948 0.0
H2746 H 0.38861 0.10105 0.43452 0.0
H2747 H 0.38158 0.11418 0.46554 0.0
C2748 C 0.30677 0.12223 0.51829 0.0
C2749 C 0.30674 0.13777 0.50951 0.0
C2750 C 0.32142 0.11416 0.51863 0.0
C2751 C 0.33633 0.12154 0.51029 0.0
C2752 C 0.3364 0.13712 0.50162 0.0
C2753 C 0.32175 0.14524 0.50131 0.0
C2754 C 0.35188 0.11302 0.51099 0.0
C2755 C 0.35742 0.10602 0.49397 0.0
C2756 C 0.36038 0.11064 0.52843 0.0
C2757 C 0.35593 0.11904 0.5468 0.0
C2758 C 0.35645 0.13801 0.55054 0.0
C2759 C 0.35151 0.14576 0.56748 0.0
C2760 C 0.34616 0.13471 0.5809 0.0
C2761 C 0.34584 0.1159 0.57744 0.0
C2762 C 0.35074 0.10807 0.56049 0.0
C2763 C 0.42334 0.08028 0.51473 0.0
C2764 C 0.42004 0.06544 0.52476 0.0
C2765 C 0.40946 0.08835 0.50873 0.0
C2766 C 0.39224 0.08162 0.51278 0.0
C2767 C 0.38877 0.06579 0.52125 0.0
C2768 C 0.40254 0.05773 0.52715 0.0
C2769 C 0.37854 0.09263 0.51137 0.0
C2770 C 0.37345 0.10029 0.52838 0.0
C2771 C 0.37069 0.0958 0.49392 0.0
C2772 C 0.3754 0.08797 0.47548 0.0
C2773 C 0.37406 0.06894 0.47069 0.0
C2774 C 0.37809 0.06163 0.45308 0.0
C2775 C 0.38337 0.0732 0.44007 0.0
C2776 C 0.38458 0.09211 0.44463 0.0
C2777 C 0.38058 0.09949 0.46223 0.0
H2778 H 0.38645 0.06751 0.42644 0.0
H2779 H 0.3423 0.14072 0.59399 0.0
H2780 H 0.64443 0.59626 0.28967 0.0
H2781 H 0.66137 0.62606 0.28466 0.0
H2782 H 0.7072 0.60252 0.27833 0.0
H2783 H 0.69055 0.5732 0.28474 0.0
H2784 H 0.71765 0.63271 0.29929 0.0
H2785 H 0.67965 0.61561 0.23967 0.0
H2786 H 0.65128 0.606 0.21867 0.0
H2787 H 0.63494 0.65423 0.2433 0.0
H2788 H 0.66314 0.66404 0.26455 0.0
H2789 H 0.76492 0.70624 0.25522 0.0
H2790 H 0.74695 0.67639 0.25857 0.0
H2791 H 0.71319 0.70364 0.29105 0.0
H2792 H 0.73177 0.73347 0.28908 0.0
H2793 H 0.69664 0.67247 0.25661 0.0
H2794 H 0.73483 0.68889 0.31621 0.0
H2795 H 0.76333 0.69823 0.33689 0.0
H2796 H 0.7794 0.65021 0.31126 0.0
H2797 H 0.75113 0.6408 0.29008 0.0
C2798 C 0.65809 0.59752 0.28704 0.0
C2799 C 0.66626 0.58257 0.28758 0.0
C2800 C 0.66775 0.6145 0.28402 0.0
C2801 C 0.6856 0.61663 0.28081 0.0
C2802 C 0.69352 0.60138 0.28083 0.0
C2803 C 0.68402 0.58461 0.28442 0.0
C2804 C 0.69643 0.6349 0.27868 0.0
C2805 C 0.7131 0.64116 0.28964 0.0
C2806 C 0.69042 0.64638 0.26657 0.0
C2807 C 0.67344 0.64046 0.25382 0.0
C2808 C 0.66995 0.6241 0.24069 0.0
C2809 C 0.65392 0.61864 0.22872 0.0
C2810 C 0.6413 0.62948 0.22968 0.0
C2811 C 0.64472 0.64584 0.24258 0.0
C2812 C 0.66073 0.65137 0.25456 0.0
C2813 C 0.75398 0.70595 0.2635 0.0
C2814 C 0.75012 0.72236 0.27223 0.0
C2815 C 0.74359 0.68885 0.26519 0.0
C2816 C 0.7288 0.68786 0.2751 0.0
C2817 C 0.72459 0.70414 0.28338 0.0
C2818 C 0.73529 0.72119 0.28226 0.0
C2819 C 0.71775 0.66981 0.27691 0.0
C2820 C 0.70111 0.66375 0.26602 0.0
C2821 C 0.72379 0.65842 0.28894 0.0
C2822 C 0.74099 0.66432 0.3013 0.0
C2823 C 0.74456 0.68049 0.31473 0.0
C2824 C 0.76065 0.68576 0.32661 0.0
C2825 C 0.7732 0.67487 0.32533 0.0
C2826 C 0.76969 0.65868 0.31218 0.0
C2827 C 0.75365 0.65339 0.30022 0.0
H2828 H 0.78563 0.67895 0.33458 0.0
H2829 H 0.6289 0.62522 0.22041 0.0
H2830 H 0.84159 0.47269 0.76941 0.0
H2831 H 0.82926 0.44009 0.75656 0.0
H2832 H 0.85612 0.42459 0.80518 0.0
H2833 H 0.86801 0.45703 0.8182 0.0
H2834 H 0.85968 0.40462 0.77102 0.0
H2835 H 0.81677 0.42696 0.80512 0.0
H2836 H 0.79681 0.44773 0.81267 0.0
H2837 H 0.76537 0.42709 0.75875 0.0
H2838 H 0.78566 0.40674 0.75047 0.0
H2839 H 0.81563 0.3218 0.79333 0.0
H2840 H 0.82987 0.35297 0.79039 0.0
H2841 H 0.79556 0.34922 0.73842 0.0
H2842 H 0.7808 0.31786 0.7418 0.0
H2843 H 0.79506 0.37909 0.7663 0.0
H2844 H 0.8404 0.35167 0.73784 0.0
H2845 H 0.86071 0.33036 0.73851 0.0
H2846 H 0.8867 0.3594 0.79265 0.0
H2847 H 0.86665 0.38089 0.7924 0.0
C2848 C 0.84472 0.4622 0.77727 0.0
C2849 C 0.85536 0.46701 0.79483 0.0
C2850 C 0.8378 0.44377 0.76993 0.0
C2851 C 0.84187 0.43018 0.78001 0.0
C2852 C 0.85293 0.43504 0.7973 0.0
C2853 C 0.8595 0.45342 0.8048 0.0
C2854 C 0.83401 0.41079 0.77316 0.0
C2855 C 0.84553 0.399 0.76969 0.0
C2856 C 0.81557 0.40374 0.77175 0.0
C2857 C 0.80306 0.41564 0.77693 0.0
C2858 C 0.80582 0.42707 0.79468 0.0
C2859 C 0.79443 0.43877 0.79912 0.0
C2860 C 0.77991 0.43884 0.78613 0.0
C2861 C 0.77671 0.42712 0.76873 0.0
C2862 C 0.78821 0.41556 0.76412 0.0
C2863 C 0.81173 0.32738 0.78085 0.0
C2864 C 0.79752 0.31765 0.76759 0.0
C2865 C 0.81976 0.34515 0.77921 0.0
C2866 C 0.81385 0.35323 0.76406 0.0
C2867 C 0.80033 0.34303 0.75007 0.0
C2868 C 0.79216 0.32515 0.75181 0.0
C2869 C 0.82079 0.37287 0.76422 0.0
C2870 C 0.80911 0.38476 0.76666 0.0
C2871 C 0.83919 0.38004 0.76568 0.0
C2872 C 0.85209 0.36796 0.76503 0.0
C2873 C 0.85052 0.35358 0.74983 0.0
C2874 C 0.86192 0.34142 0.75018 0.0
C2875 C 0.8749 0.34347 0.76561 0.0
C2876 C 0.87666 0.35783 0.78068 0.0
C2877 C 0.86536 0.37008 0.7804 0.0
H2878 H 0.88361 0.33395 0.76588 0.0
H2879 H 0.77107 0.44789 0.7896 0.0
H2880 H 0.01276 0.83136 0.07187 0.0
H2881 H 0.01291 0.8601 0.06065 0.0
H2882 H 0.06937 0.86922 0.06012 0.0
H2883 H 0.06948 0.84017 0.07264 0.0
H2884 H 0.06061 0.90119 0.07236 0.0
H2885 H 0.03773 0.85564 0.01705 0.0
H2886 H 0.01832 0.82676 5e-05 0.0
H2887 H 0.97242 0.84759 0.0123 0.0
H2888 H 0.99156 0.87655 0.02946 0.0
H2889 H 0.0574 0.97657 0.02151 0.0
H2890 H 0.0616 0.94753 0.03101 0.0
H2891 H 0.00568 0.93144 0.0344 0.0
H2892 H 0.00146 0.96041 0.02505 0.0
H2893 H 0.01619 0.9025 0.01857 0.0
H2894 H 0.03695 0.9457 0.07507 0.0
H2895 H 0.05453 0.97338 0.09607 0.0
H2896 H 0.10256 0.95699 0.0837 0.0
H2897 H 0.08523 0.92922 0.0625 0.0
C2898 C 0.02535 0.83916 0.06921 0.0
C2899 C 0.04111 0.83288 0.07291 0.0
C2900 C 0.02535 0.85582 0.06262 0.0
C2901 C 0.04101 0.8669 0.05877 0.0
C2902 C 0.05696 0.86097 0.06268 0.0
C2903 C 0.05703 0.84423 0.06976 0.0
C2904 C 0.04031 0.88458 0.05102 0.0
C2905 C 0.0512 0.90134 0.06028 0.0
C2906 C 0.02762 0.88526 0.03563 0.0
C2907 C 0.01608 0.86823 0.02457 0.0
C2908 C 0.02349 0.85406 0.01609 0.0
C2909 C 0.01254 0.83767 0.00644 0.0
C2910 C 0.99415 0.83533 0.00512 0.0
C2911 C 0.98667 0.84943 0.01332 0.0
C2912 C 0.99756 0.86586 0.02294 0.0
C2913 C 0.04594 0.96687 0.0242 0.0
C2914 C 0.02901 0.97102 0.02221 0.0
C2915 C 0.04839 0.95018 0.02979 0.0
C2916 C 0.03401 0.93703 0.03365 0.0
C2917 C 0.01709 0.94109 0.0315 0.0
C2918 C 0.01466 0.95781 0.02604 0.0
C2919 C 0.03653 0.91914 0.03991 0.0
C2920 C 0.02587 0.90234 0.03041 0.0
C2921 C 0.04931 0.91846 0.05515 0.0
C2922 C 0.05982 0.93547 0.06715 0.0
C2923 C 0.05126 0.9481 0.07668 0.0
C2924 C 0.06117 0.96375 0.08866 0.0
C2925 C 0.07962 0.96683 0.09133 0.0
C2926 C 0.08825 0.95448 0.08172 0.0
C2927 C 0.0784 0.93878 0.06973 0.0
H2928 H 0.0872 0.97874 0.10097 0.0
H2929 H 0.9857 0.82261 0.99772 0.0
H2930 H 0.94727 0.23347 0.87309 0.0
H2931 H 0.9199 0.23459 0.85363 0.0
H2932 H 0.92173 0.2888 0.88366 0.0
H2933 H 0.94933 0.28772 0.90297 0.0
H2934 H 0.88796 0.26676 0.87853 0.0
H2935 H 0.93392 0.28339 0.83982 0.0
H2936 H 0.95955 0.27933 0.82323 0.0
H2937 H 0.92873 0.22928 0.78996 0.0
H2938 H 0.90297 0.2329 0.80656 0.0
H2939 H 0.82968 0.29818 0.81359 0.0
H2940 H 0.85608 0.29442 0.83297 0.0
H2941 H 0.84815 0.23851 0.80467 0.0
H2942 H 0.82111 0.242 0.78595 0.0
H2943 H 0.88444 0.25971 0.80853 0.0
H2944 H 0.83889 0.24229 0.84641 0.0
H2945 H 0.81328 0.24442 0.86372 0.0
H2946 H 0.84303 0.29406 0.89866 0.0
H2947 H 0.86877 0.29234 0.8814 0.0
C2948 C 0.9417 0.24554 0.87563 0.0
C2949 C 0.95029 0.26044 0.88963 0.0
C2950 C 0.92613 0.24624 0.86441 0.0
C2951 C 0.91873 0.26186 0.86697 0.0
C2952 C 0.92713 0.2766 0.88132 0.0
C2953 C 0.94287 0.27599 0.89239 0.0
C2954 C 0.9023 0.26281 0.85468 0.0
C2955 C 0.88732 0.2655 0.86325 0.0
C2956 C 0.90111 0.2605 0.83462 0.0
C2957 C 0.91657 0.25831 0.82459 0.0
C2958 C 0.93265 0.27142 0.82909 0.0
C2959 C 0.9472 0.26922 0.81966 0.0
C2960 C 0.94579 0.25402 0.80559 0.0
C2961 C 0.92981 0.24103 0.80089 0.0
C2962 C 0.91523 0.24315 0.81029 0.0
C2963 C 0.83339 0.285 0.81176 0.0
C2964 C 0.82308 0.27024 0.79864 0.0
C2965 C 0.84856 0.28288 0.82275 0.0
C2966 C 0.85409 0.26611 0.82049 0.0
C2967 C 0.84414 0.25154 0.80682 0.0
C2968 C 0.82869 0.25353 0.79615 0.0
C2969 C 0.87021 0.26395 0.83245 0.0
C2970 C 0.88511 0.261 0.82381 0.0
C2971 C 0.8713 0.26586 0.85245 0.0
C2972 C 0.85567 0.26733 0.86242 0.0
C2973 C 0.83989 0.2538 0.8576 0.0
C2974 C 0.82537 0.25489 0.86746 0.0
C2975 C 0.8265 0.2694 0.88223 0.0
C2976 C 0.84216 0.28285 0.88718 0.0
C2977 C 0.85672 0.28182 0.87737 0.0
H2978 H 0.81527 0.27018 0.88988 0.0
H2979 H 0.95707 0.25234 0.79831 0.0
H2980 H 0.52523 0.22395 0.60175 0.0
H2981 H 0.52583 0.1918 0.591 0.0
H2982 H 0.55046 0.20732 0.54258 0.0
H2983 H 0.54929 0.23959 0.55318 0.0
H2984 H 0.52646 0.17764 0.5312 0.0
H2985 H 0.57373 0.19308 0.582 0.0
H2986 H 0.58874 0.20534 0.61437 0.0
H2987 H 0.55081 0.16676 0.63676 0.0
H2988 H 0.53551 0.15433 0.60453 0.0
H2989 H 0.54345 0.08707 0.50598 0.0
H2990 H 0.54637 0.12024 0.51522 0.0
H2991 H 0.51913 0.11033 0.56357 0.0
H2992 H 0.51646 0.07732 0.55464 0.0
H2993 H 0.54677 0.13779 0.57417 0.0
H2994 H 0.49928 0.1231 0.52225 0.0
H2995 H 0.48423 0.11249 0.48963 0.0
H2996 H 0.5238 0.15071 0.46889 0.0
H2997 H 0.53919 0.1614 0.50133 0.0
C2998 C 0.53097 0.22051 0.58893 0.0
C2999 C 0.5374 0.23431 0.57843 0.0
C3000 C 0.53141 0.20208 0.5828 0.0
C3001 C 0.5385 0.19688 0.56607 0.0
C3002 C 0.54498 0.21078 0.55556 0.0
C3003 C 0.54441 0.22927 0.56165 0.0
C3004 C 0.5384 0.17695 0.55927 0.0
C3005 C 0.53125 0.16904 0.54053 0.0
C3006 C 0.54428 0.1654 0.5714 0.0
C3007 C 0.55339 0.17287 0.59085 0.0
C3008 C 0.56852 0.18729 0.59384 0.0
C3009 C 0.57711 0.19424 0.61216 0.0
C3010 C 0.57071 0.18686 0.62761 0.0
C3011 C 0.55575 0.17247 0.62477 0.0
C3012 C 0.54714 0.16543 0.60648 0.0
C3013 C 0.53815 0.0919 0.51863 0.0
C3014 C 0.52984 0.0793 0.52958 0.0
C3015 C 0.53968 0.11098 0.52384 0.0
C3016 C 0.53285 0.11803 0.54009 0.0
C3017 C 0.52457 0.10545 0.55101 0.0
C3018 C 0.52304 0.08644 0.54582 0.0
C3019 C 0.53465 0.13842 0.54613 0.0
C3020 C 0.54213 0.14641 0.56477 0.0
C3021 C 0.52924 0.15007 0.53383 0.0
C3022 C 0.52052 0.14288 0.51421 0.0
C3023 C 0.50492 0.12905 0.5107 0.0
C3024 C 0.49628 0.12308 0.49225 0.0
C3025 C 0.50309 0.1309 0.4772 0.0
C3026 C 0.51857 0.14464 0.48055 0.0
C3027 C 0.52725 0.15065 0.49896 0.0
H3028 H 0.49637 0.12639 0.46295 0.0
H3029 H 0.57738 0.19227 0.64178 0.0
H3030 H 0.56132 0.76501 0.41426 0.0
H3031 H 0.58987 0.76806 0.40159 0.0
H3032 H 0.56334 0.76604 0.3456 0.0
H3033 H 0.53503 0.7628 0.35798 0.0
H3034 H 0.58407 0.7424 0.34496 0.0
H3035 H 0.58904 0.80546 0.37087 0.0
H3036 H 0.59019 0.83239 0.39511 0.0
H3037 H 0.63543 0.821 0.42645 0.0
H3038 H 0.63435 0.79377 0.40257 0.0
H3039 H 0.65365 0.77575 0.29263 0.0
H3040 H 0.6275 0.76706 0.30854 0.0
H3041 H 0.66116 0.77084 0.36089 0.0
H3042 H 0.68734 0.77992 0.34491 0.0
H3043 H 0.63802 0.79157 0.36586 0.0
H3044 H 0.63299 0.72865 0.33714 0.0
H3045 H 0.63091 0.70266 0.31143 0.0
H3046 H 0.58486 0.71567 0.28337 0.0
H3047 H 0.58676 0.74183 0.3088 0.0
C3048 C 0.56164 0.76538 0.39929 0.0
C3049 C 0.54587 0.76345 0.3871 0.0
C3050 C 0.57796 0.76719 0.39207 0.0
C3051 C 0.57875 0.76721 0.37261 0.0
C3052 C 0.56307 0.7659 0.36062 0.0
C3053 C 0.54685 0.76404 0.36776 0.0
C3054 C 0.59557 0.76741 0.36426 0.0
C3055 C 0.59584 0.75325 0.34945 0.0
C3056 C 0.61107 0.7813 0.37042 0.0
C3057 C 0.61143 0.79737 0.38508 0.0
C3058 C 0.59907 0.80852 0.38307 0.0
C3059 C 0.59975 0.82388 0.39672 0.0
C3060 C 0.61283 0.82836 0.41235 0.0
C3061 C 0.62527 0.81748 0.41437 0.0
C3062 C 0.62462 0.80207 0.40079 0.0
C3063 C 0.65543 0.77385 0.30731 0.0
C3064 C 0.67245 0.77812 0.31749 0.0
C3065 C 0.64048 0.76897 0.31646 0.0
C3066 C 0.64228 0.76822 0.33597 0.0
C3067 C 0.65939 0.77128 0.34585 0.0
C3068 C 0.67436 0.77622 0.33668 0.0
C3069 C 0.62647 0.76662 0.34639 0.0
C3070 C 0.62636 0.78056 0.36157 0.0
C3071 C 0.61097 0.7527 0.34037 0.0
C3072 C 0.61012 0.73728 0.32481 0.0
C3073 C 0.62253 0.72607 0.3254 0.0
C3074 C 0.62135 0.71128 0.3109 0.0
C3075 C 0.60778 0.70754 0.29576 0.0
C3076 C 0.59536 0.71858 0.29509 0.0
C3077 C 0.59648 0.73338 0.30955 0.0
H3078 H 0.60687 0.69606 0.28458 0.0
H3079 H 0.61336 0.84029 0.42287 0.0
H3080 H 0.0009 0.24128 0.39078 0.0
H3081 H 0.00363 0.21634 0.40761 0.0
H3082 H 0.05976 0.22679 0.40423 0.0
H3083 H 0.05703 0.2521 0.38623 0.0
H3084 H 0.04394 0.18916 0.39777 0.0
H3085 H 0.04401 0.23997 0.44631 0.0
H3086 H 0.03315 0.26664 0.46069 0.0
H3087 H 0.98233 0.2318 0.46192 0.0
H3088 H 0.99276 0.205 0.4473 0.0
H3089 H 0.03721 0.13191 0.47738 0.0
H3090 H 0.04781 0.15607 0.45859 0.0
H3091 H 0.99439 0.15086 0.43263 0.0
H3092 H 0.98384 0.12678 0.45109 0.0
H3093 H 0.01663 0.18798 0.45736 0.0
H3094 H 0.0136 0.13942 0.40469 0.0
H3095 H 0.02175 0.11237 0.38741 0.0
H3096 H 0.07564 0.14224 0.39197 0.0
H3097 H 0.06788 0.16936 0.40977 0.0
C3098 C 0.014 0.23863 0.39364 0.0
C3099 C 0.02885 0.24915 0.38735 0.0
C3100 C 0.0155 0.2242 0.4034 0.0
C3101 C 0.03195 0.21991 0.40778 0.0
C3102 C 0.04691 0.22999 0.40125 0.0
C3103 C 0.04537 0.24449 0.39104 0.0
C3104 C 0.03283 0.20476 0.41908 0.0
C3105 C 0.03844 0.18911 0.41108 0.0
C3106 C 0.0253 0.20442 0.43631 0.0
C3107 C 0.0192 0.22047 0.44569 0.0
C3108 C 0.03051 0.23801 0.44962 0.0
C3109 C 0.02442 0.25315 0.4578 0.0
C3110 C 0.00706 0.25092 0.46221 0.0
C3111 C 0.99578 0.23351 0.45852 0.0
C3112 C 0.00179 0.21834 0.45033 0.0
C3113 C 0.02786 0.13551 0.46718 0.0
C3114 C 0.00968 0.12754 0.46579 0.0
C3115 C 0.03392 0.14933 0.45648 0.0
C3116 C 0.02189 0.15525 0.44416 0.0
C3117 C 0.00392 0.14648 0.44197 0.0
C3118 C 0.9979 0.13274 0.45256 0.0
C3119 C 0.02722 0.17227 0.43577 0.0
C3120 C 0.0227 0.18827 0.44439 0.0
C3121 C 0.03549 0.17277 0.41906 0.0
C3122 C 0.04025 0.15627 0.40898 0.0
C3123 C 0.02726 0.14011 0.40241 0.0
C3124 C 0.03179 0.12479 0.3924 0.0
C3125 C 0.04922 0.12554 0.38868 0.0
C3126 C 0.06216 0.14164 0.39495 0.0
C3127 C 0.05771 0.15697 0.40503 0.0
H3128 H 0.05268 0.11369 0.38087 0.0
H3129 H 0.00236 0.26267 0.46849 0.0
H3130 H 0.57105 0.23667 0.20019 0.0
H3131 H 0.60218 0.235 0.20811 0.0
H3132 H 0.61102 0.28584 0.24701 0.0
H3133 H 0.58022 0.28752 0.23936 0.0
H3134 H 0.63687 0.28663 0.22459 0.0
H3135 H 0.6084 0.24454 0.2625 0.0
H3136 H 0.58797 0.21716 0.26906 0.0
H3137 H 0.61273 0.18222 0.23303 0.0
H3138 H 0.63315 0.20942 0.22601 0.0
H3139 H 0.72225 0.29293 0.27202 0.0
H3140 H 0.69063 0.29051 0.26374 0.0
H3141 H 0.68555 0.23559 0.23382 0.0
H3142 H 0.71724 0.23774 0.24285 0.0
H3143 H 0.65749 0.23532 0.24951 0.0
H3144 H 0.68653 0.27755 0.21209 0.0
H3145 H 0.70631 0.30512 0.20488 0.0
H3146 H 0.67969 0.33978 0.23887 0.0
H3147 H 0.66018 0.3125 0.24679 0.0
C3148 C 0.57961 0.24747 0.21048 0.0
C3149 C 0.57293 0.26228 0.21903 0.0
C3150 C 0.59746 0.24645 0.21509 0.0
C3151 C 0.60918 0.26028 0.22827 0.0
C3152 C 0.60246 0.27497 0.2368 0.0
C3153 C 0.58469 0.27589 0.23237 0.0
C3154 C 0.62857 0.26013 0.23276 0.0
C3155 C 0.64133 0.27545 0.23023 0.0
C3156 C 0.63466 0.24538 0.23961 0.0
C3157 C 0.62215 0.22905 0.24351 0.0
C3158 C 0.60935 0.23104 0.25577 0.0
C3159 C 0.5978 0.21554 0.25963 0.0
C3160 C 0.599 0.19796 0.25141 0.0
C3161 C 0.61178 0.19585 0.23934 0.0
C3162 C 0.62334 0.2113 0.23542 0.0
C3163 C 0.71446 0.28029 0.26368 0.0
C3164 C 0.72252 0.26556 0.25812 0.0
C3165 C 0.69623 0.27895 0.25876 0.0
C3166 C 0.68539 0.26303 0.2476 0.0
C3167 C 0.69337 0.24813 0.24232 0.0
C3168 C 0.71161 0.24936 0.24753 0.0
C3169 C 0.66589 0.26201 0.24156 0.0
C3170 C 0.6531 0.24647 0.24376 0.0
C3171 C 0.6597 0.27656 0.2343 0.0
C3172 C 0.67197 0.29296 0.23015 0.0
C3173 C 0.68507 0.29105 0.21824 0.0
C3174 C 0.69624 0.30664 0.21404 0.0
C3175 C 0.69429 0.32417 0.22146 0.0
C3176 C 0.68127 0.32619 0.23322 0.0
C3177 C 0.67017 0.31069 0.2376 0.0
H3178 H 0.70275 0.3362 0.21798 0.0
H3179 H 0.59008 0.18598 0.25444 0.0
H3180 H 0.5548 0.84161 0.8946 0.0
H3181 H 0.55923 0.87167 0.91537 0.0
H3182 H 0.50435 0.87243 0.9005 0.0
H3183 H 0.49997 0.84284 0.88016 0.0
H3184 H 0.52423 0.90524 0.90034 0.0
H3185 H 0.52048 0.85977 0.94208 0.0
H3186 H 0.52995 0.83534 0.95736 0.0
H3187 H 0.57977 0.87189 0.97961 0.0
H3188 H 0.57072 0.89645 0.96413 0.0
H3189 H 0.4983 0.96514 0.97196 0.0
H3190 H 0.50217 0.9378 0.95118 0.0
H3191 H 0.55765 0.95007 0.9728 0.0
H3192 H 0.55377 0.97764 0.99338 0.0
H3193 H 0.54287 0.91284 0.96938 0.0
H3194 H 0.54539 0.95902 0.92967 0.0
H3195 H 0.53565 0.98334 0.91441 0.0
H3196 H 0.48786 0.94516 0.88845 0.0
H3197 H 0.49719 0.92068 0.90378 0.0
C3198 C 0.54381 0.84839 0.89561 0.0
C3199 C 0.52702 0.8398 0.88573 0.0
C3200 C 0.54629 0.86549 0.90762 0.0
C3201 C 0.53206 0.87438 0.90975 0.0
C3202 C 0.51556 0.86601 0.89927 0.0
C3203 C 0.51306 0.84899 0.8876 0.0
C3204 C 0.5338 0.89224 0.92285 0.0
C3205 C 0.52824 0.9068 0.91545 0.0
C3206 C 0.53952 0.8947 0.94257 0.0
C3207 C 0.54504 0.87985 0.95166 0.0
C3208 C 0.53354 0.86253 0.95002 0.0
C3209 C 0.53882 0.84867 0.95875 0.0
C3210 C 0.55548 0.85203 0.96937 0.0
C3211 C 0.56689 0.86928 0.97131 0.0
C3212 C 0.56171 0.88316 0.96254 0.0
C3213 C 0.51129 0.96194 0.97229 0.0
C3214 C 0.52575 0.97353 0.98419 0.0
C3215 C 0.51354 0.94635 0.96035 0.0
C3216 C 0.53027 0.94185 0.96017 0.0
C3217 C 0.54463 0.95318 0.97254 0.0
C3218 C 0.54243 0.96896 0.98427 0.0
C3219 C 0.53268 0.92549 0.94689 0.0
C3220 C 0.53907 0.91132 0.95424 0.0
C3221 C 0.52766 0.92329 0.92709 0.0
C3222 C 0.52192 0.93806 0.91804 0.0
C3223 C 0.53273 0.95585 0.92086 0.0
C3224 C 0.5273 0.96966 0.91216 0.0
C3225 C 0.51113 0.96581 0.9005 0.0
C3226 C 0.50037 0.94814 0.8975 0.0
C3227 C 0.50572 0.93429 0.90619 0.0
H3228 H 0.50695 0.97651 0.89378 0.0
H3229 H 0.55952 0.84129 0.97616 0.0
H3230 H 0.94772 0.73421 0.68467 0.0
H3231 H 0.9195 0.7379 0.69547 0.0
H3232 H 0.9474 0.76778 0.749 0.0
H3233 H 0.97533 0.76239 0.73875 0.0
H3234 H 0.91964 0.7522 0.75751 0.0
H3235 H 0.92778 0.7873 0.70695 0.0
H3236 H 0.93293 0.79288 0.67469 0.0
H3237 H 0.88545 0.75284 0.65157 0.0
H3238 H 0.88012 0.74687 0.68367 0.0
H3239 H 0.84455 0.79005 0.78192 0.0
H3240 H 0.87341 0.78584 0.77327 0.0
H3241 H 0.84737 0.74769 0.72355 0.0
H3242 H 0.81867 0.75233 0.73175 0.0
H3243 H 0.8746 0.76907 0.71387 0.0
H3244 H 0.86739 0.7352 0.76653 0.0
H3245 H 0.86389 0.73067 0.79942 0.0
H3246 H 0.91133 0.77185 0.81956 0.0
H3247 H 0.91501 0.77677 0.7868 0.0
C3248 C 0.94777 0.74127 0.69887 0.0
C3249 C 0.96385 0.74779 0.71088 0.0
C3250 C 0.93155 0.74374 0.70501 0.0
C3251 C 0.93092 0.75378 0.723 0.0
C3252 C 0.94708 0.76001 0.73508 0.0
C3253 C 0.9632 0.75688 0.72921 0.0
C3254 C 0.91363 0.75772 0.72926 0.0
C3255 C 0.91001 0.75621 0.74794 0.0
C3256 C 0.90056 0.7628 0.71703 0.0
C3257 C 0.90363 0.76653 0.69772 0.0
C3258 C 0.91847 0.77964 0.69498 0.0
C3259 C 0.92143 0.78287 0.67672 0.0
C3260 C 0.90955 0.77319 0.66109 0.0
C3261 C 0.89465 0.76031 0.66369 0.0
C3262 C 0.89165 0.75701 0.68191 0.0
C3263 C 0.8449 0.78081 0.76909 0.0
C3264 C 0.829 0.77166 0.75755 0.0
C3265 C 0.86156 0.77825 0.7642 0.0
C3266 C 0.86291 0.76624 0.74773 0.0
C3267 C 0.84701 0.75708 0.73628 0.0
C3268 C 0.83044 0.75973 0.74108 0.0
C3269 C 0.88064 0.7634 0.742 0.0
C3270 C 0.88434 0.76519 0.72342 0.0
C3271 C 0.89394 0.75902 0.75446 0.0
C3272 C 0.89135 0.7565 0.7742 0.0
C3273 C 0.87696 0.74344 0.77798 0.0
C3274 C 0.87497 0.74077 0.79661 0.0
C3275 C 0.88735 0.751 0.81157 0.0
C3276 C 0.90173 0.76395 0.80796 0.0
C3277 C 0.90377 0.76669 0.78937 0.0
H3278 H 0.88582 0.74886 0.82597 0.0
H3279 H 0.91186 0.7757 0.64697 0.0
H3280 H 0.0826 0.04728 0.81838 0.0
H3281 H 0.06839 0.04345 0.84713 0.0
H3282 H 0.11107 0.02057 0.86939 0.0
H3283 H 0.12524 0.0243 0.84108 0.0
H3284 H 0.07822 0.99918 0.87178 0.0
H3285 H 0.10958 0.0623 0.88737 0.0
H3286 H 0.1183 0.09446 0.88224 0.0
H3287 H 0.06424 0.09974 0.88108 0.0
H3288 H 0.05517 0.0675 0.88593 0.0
H3289 H 0.06338 0.00417 0.96938 0.0
H3290 H 0.07562 0.00604 0.93928 0.0
H3291 H 0.03369 0.03131 0.91959 0.0
H3292 H 0.02177 0.03001 0.94953 0.0
H3293 H 0.06539 0.05072 0.91523 0.0
H3294 H 0.03421 0.98747 0.90121 0.0
H3295 H 0.02611 0.95561 0.90741 0.0
H3296 H 0.08008 0.95054 0.90656 0.0
H3297 H 0.08855 0.98248 0.9006 0.0
C3298 C 0.08909 0.04177 0.82957 0.0
C3299 C 0.1051 0.03623 0.82747 0.0
C3300 C 0.08092 0.03948 0.8459 0.0
C3301 C 0.08865 0.03157 0.86027 0.0
C3302 C 0.10483 0.02653 0.85839 0.0
C3303 C 0.11301 0.02891 0.84223 0.0
C3304 C 0.07997 0.02844 0.87734 0.0
C3305 C 0.0755 0.01044 0.88137 0.0
C3306 C 0.07627 0.04309 0.88967 0.0
C3307 C 0.08167 0.06245 0.88678 0.0
C3308 C 0.09954 0.07028 0.88584 0.0
C3309 C 0.10455 0.08852 0.88302 0.0
C3310 C 0.09182 0.09912 0.88128 0.0
C3311 C 0.07407 0.0915 0.8824 0.0
C3312 C 0.06899 0.07325 0.88519 0.0
C3313 C 0.05674 0.00999 0.95855 0.0
C3314 C 0.04166 0.01696 0.96185 0.0
C3315 C 0.06366 0.01095 0.94135 0.0
C3316 C 0.05551 0.01879 0.92722 0.0
C3317 C 0.04019 0.02526 0.93033 0.0
C3318 C 0.03336 0.0244 0.94745 0.0
C3319 C 0.06349 0.02145 0.90966 0.0
C3320 C 0.06793 0.0394 0.90557 0.0
C3321 C 0.06716 0.00673 0.89734 0.0
C3322 C 0.06204 0.98742 0.90059 0.0
C3323 C 0.04437 0.9796 0.90245 0.0
C3324 C 0.03971 0.96152 0.9059 0.0
C3325 C 0.05258 0.95107 0.9074 0.0
C3326 C 0.07013 0.95866 0.9054 0.0
C3327 C 0.07486 0.97674 0.90195 0.0
H3328 H 0.04895 0.93708 0.91009 0.0
H3329 H 0.09573 0.11325 0.8791 0.0
H3330 H 0.78019 0.40919 0.56104 0.0
H3331 H 0.7739 0.39006 0.58538 0.0
H3332 H 0.7963 0.34826 0.55539 0.0
H3333 H 0.8032 0.36771 0.5311 0.0
H3334 H 0.76289 0.33702 0.57556 0.0
H3335 H 0.82296 0.37112 0.58239 0.0
H3336 H 0.84699 0.39831 0.58357 0.0
H3337 H 0.82811 0.42602 0.63117 0.0
H3338 H 0.80352 0.3992 0.62983 0.0
H3339 H 0.80639 0.29979 0.6471 0.0
H3340 H 0.79067 0.30933 0.6204 0.0
H3341 H 0.78081 0.35506 0.65807 0.0
H3342 H 0.79654 0.34539 0.68482 0.0
H3343 H 0.80445 0.36453 0.6338 0.0
H3344 H 0.74537 0.32737 0.62785 0.0
H3345 H 0.72141 0.29965 0.62463 0.0
H3346 H 0.7409 0.27566 0.57538 0.0
H3347 H 0.76499 0.30318 0.57835 0.0
C3348 C 0.78334 0.39572 0.55939 0.0
C3349 C 0.79239 0.38989 0.54455 0.0
C3350 C 0.77972 0.38486 0.57321 0.0
C3351 C 0.78481 0.36801 0.57204 0.0
C3352 C 0.79234 0.36133 0.55631 0.0
C3353 C 0.79638 0.37242 0.54266 0.0
C3354 C 0.7847 0.35891 0.58863 0.0
C3355 C 0.772 0.34281 0.58834 0.0
C3356 C 0.79652 0.36693 0.60513 0.0
C3357 C 0.81109 0.38329 0.60569 0.0
C3358 C 0.82365 0.38316 0.59282 0.0
C3359 C 0.83744 0.39848 0.59358 0.0
C3360 C 0.83901 0.41394 0.60736 0.0
C3361 C 0.8268 0.41408 0.62042 0.0
C3362 C 0.8129 0.39884 0.61963 0.0
C3363 C 0.8005 0.31164 0.6496 0.0
C3364 C 0.80314 0.32242 0.66755 0.0
C3365 C 0.79118 0.31682 0.63451 0.0
C3366 C 0.78466 0.33291 0.63732 0.0
C3367 C 0.78569 0.34253 0.65572 0.0
C3368 C 0.79491 0.33726 0.67084 0.0
C3369 C 0.78238 0.34248 0.62111 0.0
C3370 C 0.79496 0.35877 0.62129 0.0
C3371 C 0.77076 0.33432 0.60445 0.0
C3372 C 0.75707 0.31726 0.60344 0.0
C3373 C 0.74469 0.31607 0.61651 0.0
C3374 C 0.73102 0.30043 0.61465 0.0
C3375 C 0.72965 0.28589 0.59983 0.0
C3376 C 0.74197 0.28692 0.58686 0.0
C3377 C 0.75561 0.30254 0.58861 0.0
H3378 H 0.71902 0.27384 0.59838 0.0
H3379 H 0.84975 0.42576 0.60798 0.0
H3380 H 0.43569 0.01289 0.31305 0.0
H3381 H 0.45141 0.00552 0.34158 0.0
H3382 H 0.41129 0.02032 0.37444 0.0
H3383 H 0.39758 0.03022 0.34773 0.0
H3384 H 0.44419 0.04276 0.38365 0.0
H3385 H 0.41469 0.97843 0.37339 0.0
H3386 H 0.40557 0.94613 0.35757 0.0
H3387 H 0.46008 0.94337 0.3561 0.0
H3388 H 0.46949 0.97565 0.37184 0.0
H3389 H 0.47743 0.03822 0.47685 0.0
H3390 H 0.45806 0.0341 0.4474 0.0
H3391 H 0.49412 0.00711 0.41796 0.0
H3392 H 0.51201 0.0085 0.44775 0.0
H3393 H 0.46275 0.98963 0.40679 0.0
H3394 H 0.49096 0.05645 0.41846 0.0
H3395 H 0.49737 0.08693 0.43872 0.0
H3396 H 0.44171 0.08366 0.44001 0.0
H3397 H 0.435 0.05321 0.41983 0.0
C3398 C 0.4304 0.01456 0.32643 0.0
C3399 C 0.41535 0.02198 0.32812 0.0
C3400 C 0.43902 0.00989 0.34245 0.0
C3401 C 0.43221 0.0122 0.35983 0.0
C3402 C 0.41648 0.01817 0.36101 0.0
C3403 C 0.40861 0.02376 0.34559 0.0
C3404 C 0.44336 0.01363 0.37761 0.0
C3405 C 0.44829 0.03113 0.38873 0.0
C3406 C 0.44848 0.99845 0.38405 0.0
C3407 C 0.44277 0.97953 0.37344 0.0
C3408 C 0.4247 0.97102 0.36938 0.0
C3409 C 0.41949 0.95268 0.36056 0.0
C3410 C 0.43223 0.94274 0.35575 0.0
C3411 C 0.45022 0.9511 0.35976 0.0
C3412 C 0.4555 0.9694 0.36864 0.0
C3413 C 0.48126 0.03144 0.46409 0.0
C3414 C 0.49645 0.02404 0.46448 0.0
C3415 C 0.47026 0.02926 0.44727 0.0
C3416 C 0.47501 0.0208 0.43052 0.0
C3417 C 0.49036 0.01379 0.43082 0.0
C3418 C 0.50078 0.01497 0.44778 0.0
C3419 C 0.46389 0.0188 0.41257 0.0
C3420 C 0.45888 0.00127 0.40151 0.0
C3421 C 0.45836 0.03391 0.40627 0.0
C3422 C 0.4625 0.05258 0.41768 0.0
C3423 C 0.48011 0.06229 0.42303 0.0
C3424 C 0.48379 0.07953 0.43451 0.0
C3425 C 0.46995 0.08719 0.44064 0.0
C3426 C 0.45241 0.07771 0.43522 0.0
C3427 C 0.44866 0.06051 0.42371 0.0
H3428 H 0.47278 0.10047 0.4496 0.0
H3429 H 0.42818 0.92853 0.34897 0.0
H3430 H 0.80265 0.71672 0.06099 0.0
H3431 H 0.79957 0.72876 0.0935 0.0
H3432 H 0.7473 0.69414 0.08779 0.0
H3433 H 0.75018 0.68205 0.05503 0.0
H3434 H 0.74903 0.72892 0.10776 0.0
H3435 H 0.7808 0.68094 0.11055 0.0
H3436 H 0.80417 0.66459 0.1022 0.0
H3437 H 0.84407 0.71221 0.12767 0.0
H3438 H 0.8209 0.72892 0.13597 0.0
H3439 H 0.7451 0.73897 0.20794 0.0
H3440 H 0.74431 0.72735 0.17434 0.0
H3441 H 0.79892 0.75508 0.17652 0.0
H3442 H 0.79978 0.76666 0.21013 0.0
H3443 H 0.79449 0.72211 0.15796 0.0
H3444 H 0.76276 0.77047 0.15442 0.0
H3445 H 0.73954 0.78805 0.15924 0.0
H3446 H 0.69955 0.74038 0.13416 0.0
H3447 H 0.72252 0.72248 0.12931 0.0
C3448 C 0.79041 0.71171 0.06652 0.0
C3449 C 0.77673 0.69824 0.05534 0.0
C3450 C 0.7887 0.7186 0.08519 0.0
C3451 C 0.77333 0.71215 0.09326 0.0
C3452 C 0.75932 0.69928 0.08194 0.0
C3453 C 0.76102 0.69235 0.06319 0.0
C3454 C 0.7723 0.71835 0.11371 0.0
C3455 C 0.75879 0.72718 0.11879 0.0
C3456 C 0.78518 0.71638 0.12812 0.0
C3457 C 0.79914 0.7062 0.12377 0.0
C3458 C 0.79456 0.68793 0.11432 0.0
C3459 C 0.80776 0.67861 0.10959 0.0
C3460 C 0.82559 0.68737 0.11436 0.0
C3461 C 0.83025 0.70544 0.12398 0.0
C3462 C 0.81709 0.71484 0.12873 0.0
C3463 C 0.75687 0.74282 0.20124 0.0
C3464 C 0.77242 0.75399 0.21179 0.0
C3465 C 0.7564 0.73615 0.18194 0.0
C3466 C 0.77148 0.74051 0.17265 0.0
C3467 C 0.78707 0.75152 0.18323 0.0
C3468 C 0.78754 0.75817 0.20252 0.0
C3469 C 0.77133 0.73307 0.15217 0.0
C3470 C 0.78463 0.72385 0.14704 0.0
C3471 C 0.7582 0.73469 0.13776 0.0
C3472 C 0.74434 0.7451 0.14167 0.0
C3473 C 0.749 0.76368 0.15015 0.0
C3474 C 0.73589 0.77372 0.15278 0.0
C3475 C 0.71809 0.76535 0.14692 0.0
C3476 C 0.71334 0.74686 0.13862 0.0
C3477 C 0.72639 0.73676 0.13593 0.0
H3478 H 0.70797 0.77318 0.14886 0.0
H3479 H 0.8358 0.68015 0.11064 0.0
H3480 H 0.11915 0.03873 0.71387 0.0
H3481 H 0.10705 0.04108 0.68177 0.0
H3482 H 0.0549 0.0155 0.69263 0.0
H3483 H 0.06686 0.01293 0.72452 0.0
H3484 H 0.06285 1.00014 0.65942 0.0
H3485 H 0.06706 0.06213 0.69142 0.0
H3486 H 0.08254 0.09209 0.70998 0.0
H3487 H 0.11744 0.1004 0.66757 0.0
H3488 H 0.10232 0.07038 0.64889 0.0
H3489 H 0.01097 0.01852 0.57928 0.0
H3490 H 0.0235 0.01835 0.61205 0.0
H3491 H 0.07567 0.04071 0.59875 0.0
H3492 H 0.06327 0.04038 0.56603 0.0
H3493 H 0.06847 0.05823 0.63298 0.0
H3494 H 0.06857 0.99913 0.60238 0.0
H3495 H 0.06106 0.96729 0.58566 0.0
H3496 H 0.02399 0.95222 0.62443 0.0
H3497 H 0.03116 0.98416 0.64138 0.0
C3498 C 0.10511 0.03363 0.70942 0.0
C3499 C 0.09398 0.02563 0.72177 0.0
C3500 C 0.09819 0.03511 0.69111 0.0
C3501 C 0.08002 0.02867 0.68486 0.0
C3502 C 0.06894 0.02063 0.69716 0.0
C3503 C 0.07582 0.01917 0.71541 0.0
C3504 C 0.07254 0.02944 0.66523 0.0
C3505 C 0.06368 0.01291 0.65378 0.0
C3506 C 0.07451 0.04597 0.65755 0.0
C3507 C 0.08366 0.06394 0.66885 0.0
C3508 C 0.07813 0.07028 0.68614 0.0
C3509 C 0.08682 0.08728 0.69666 0.0
C3510 C 0.10098 0.09812 0.68998 0.0
C3511 C 0.10648 0.09199 0.67275 0.0
C3512 C 0.09785 0.07498 0.66218 0.0
C3513 C 0.02506 0.02362 0.58352 0.0
C3514 C 0.03619 0.02955 0.5703 0.0
C3515 C 0.03222 0.02336 0.60212 0.0
C3516 C 0.05054 0.02939 0.60778 0.0
C3517 C 0.06153 0.03596 0.59468 0.0
C3518 C 0.05445 0.03581 0.57605 0.0
C3519 C 0.0583 0.02895 0.62736 0.0
C3520 C 0.06731 0.04551 0.63874 0.0
C3521 C 0.05684 0.01238 0.63488 0.0
C3522 C 0.05023 0.99411 0.62299 0.0
C3523 C 0.05841 0.9892 0.60701 0.0
C3524 C 0.05433 0.97109 0.59759 0.0
C3525 C 0.04213 0.95776 0.60402 0.0
C3526 C 0.03347 0.9626 0.6195 0.0
C3527 C 0.03752 0.98071 0.629 0.0
H3528 H 0.03973 0.94364 0.59723 0.0
H3529 H 0.10768 0.1113 0.69814 0.0
H3530 H 0.79379 0.41596 0.44357 0.0
H3531 H 0.78322 0.39517 0.41347 0.0
H3532 H 0.777 0.34867 0.44337 0.0
H3533 H 0.78835 0.36943 0.47327 0.0
H3534 H 0.79893 0.34683 0.41719 0.0
H3535 H 0.7393 0.35996 0.41846 0.0
H3536 H 0.71768 0.37993 0.41964 0.0
H3537 H 0.73768 0.40368 0.37284 0.0
H3538 H 0.75929 0.38377 0.37132 0.0
H3539 H 0.77145 0.27841 0.3381 0.0
H3540 H 0.77209 0.29765 0.36818 0.0
H3541 H 0.77081 0.34419 0.33937 0.0
H3542 H 0.76834 0.3247 0.30921 0.0
H3543 H 0.75187 0.34587 0.36524 0.0
H3544 H 0.81036 0.33551 0.36183 0.0
H3545 H 0.83356 0.31769 0.35827 0.0
H3546 H 0.82017 0.29315 0.40698 0.0
H3547 H 0.79674 0.31065 0.41069 0.0
C3548 C 0.78986 0.4013 0.44356 0.0
C3549 C 0.79201 0.39399 0.46029 0.0
C3550 C 0.78364 0.38952 0.42653 0.0
C3551 C 0.77922 0.37048 0.42636 0.0
C3552 C 0.78034 0.36337 0.44336 0.0
C3553 C 0.78689 0.3751 0.46028 0.0
C3554 C 0.77648 0.35787 0.40843 0.0
C3555 C 0.78842 0.34631 0.40592 0.0
C3556 C 0.76347 0.35813 0.39348 0.0
C3557 C 0.75097 0.37054 0.39492 0.0
C3558 C 0.73916 0.36956 0.40855 0.0
C3559 C 0.72685 0.38079 0.4092 0.0
C3560 C 0.72631 0.39307 0.39632 0.0
C3561 C 0.73807 0.39414 0.38276 0.0
C3562 C 0.75031 0.38287 0.38198 0.0
C3563 C 0.77083 0.29253 0.33804 0.0
C3564 C 0.77005 0.29994 0.32119 0.0
C3565 C 0.77151 0.30362 0.35531 0.0
C3566 C 0.77202 0.3224 0.35594 0.0
C3567 C 0.77055 0.32971 0.33915 0.0
C3568 C 0.76927 0.31852 0.32191 0.0
C3569 C 0.77412 0.33457 0.37408 0.0
C3570 C 0.76226 0.3462 0.37656 0.0
C3571 C 0.78766 0.33489 0.38875 0.0
C3572 C 0.80166 0.32423 0.3864 0.0
C3573 C 0.81226 0.32619 0.37168 0.0
C3574 C 0.82547 0.31618 0.36966 0.0
C3575 C 0.8283 0.30426 0.38236 0.0
C3576 C 0.81794 0.30236 0.39713 0.0
C3577 C 0.80471 0.31233 0.39921 0.0
H3578 H 0.83854 0.29652 0.38078 0.0
H3579 H 0.71677 0.40174 0.39685 0.0
H3580 H 0.41566 0.03773 0.25536 0.0
H3581 H 0.44051 0.02995 0.23978 0.0
H3582 H 0.40458 0.98452 0.20345 0.0
H3583 H 0.38 0.99214 0.21909 0.0
H3584 H 0.4376 0.97926 0.204 0.0
H3585 H 0.40634 0.02744 0.19417 0.0
H3586 H 0.3957 0.05548 0.2046 0.0
H3587 H 0.44935 0.08563 0.22104 0.0
H3588 H 0.46027 0.05763 0.21099 0.0
H3589 H 0.45017 0.97815 0.1112 0.0
H3590 H 0.43662 0.98804 0.13904 0.0
H3591 H 0.48712 0.02145 0.16533 0.0
H3592 H 0.50069 0.01175 0.13711 0.0
H3593 H 0.45259 0.03482 0.17341 0.0
H3594 H 0.48233 0.98376 0.17591 0.0
H3595 H 0.48856 0.95542 0.15895 0.0
H3596 H 0.43316 0.93 0.15124 0.0
H3597 H 0.42659 0.95835 0.16787 0.0
C3598 C 0.41333 0.02538 0.24492 0.0
C3599 C 0.39599 0.01572 0.23803 0.0
C3600 C 0.42749 0.02102 0.23591 0.0
C3601 C 0.42423 0.00714 0.21993 0.0
C3602 C 0.40739 0.99547 0.21552 0.0
C3603 C 0.3933 0.99982 0.22447 0.0
C3604 C 0.43626 0.00772 0.20509 0.0
C3605 C 0.44116 0.99151 0.1976 0.0
C3606 C 0.44058 0.02358 0.19632 0.0
C3607 C 0.4341 0.04044 0.2021 0.0
C3608 C 0.41584 0.04004 0.20012 0.0
C3609 C 0.40976 0.0559 0.20597 0.0
C3610 C 0.42183 0.07231 0.21356 0.0
C3611 C 0.44001 0.07289 0.21524 0.0
C3612 C 0.44616 0.05703 0.20949 0.0
C3613 C 0.45819 0.98815 0.1226 0.0
C3614 C 0.47639 0.99418 0.12223 0.0
C3615 C 0.45047 0.9938 0.13846 0.0
C3616 C 0.46097 0.00527 0.15424 0.0
C3617 C 0.47887 0.01261 0.15323 0.0
C3618 C 0.4866 0.007 0.13726 0.0
C3619 C 0.45397 0.00651 0.17264 0.0
C3620 C 0.44978 0.0229 0.18047 0.0
C3621 C 0.44994 0.99074 0.18144 0.0
C3622 C 0.45399 0.97312 0.17319 0.0
C3623 C 0.4715 0.97207 0.17069 0.0
C3624 C 0.47508 0.95605 0.16106 0.0
C3625 C 0.46127 0.94092 0.15402 0.0
C3626 C 0.44385 0.94173 0.15673 0.0
C3627 C 0.44019 0.95775 0.16631 0.0
H3628 H 0.46406 0.92856 0.14647 0.0
H3629 H 0.4171 0.08458 0.21808 0.0
H3630 H 0.74687 0.68502 0.94638 0.0
H3631 H 0.74679 0.69741 0.91653 0.0
H3632 H 0.79594 0.73591 0.93858 0.0
H3633 H 0.79576 0.72417 0.96838 0.0
H3634 H 0.77688 0.75247 0.92024 0.0
H3635 H 0.79282 0.6944 0.90761 0.0
H3636 H 0.79064 0.66094 0.90409 0.0
H3637 H 0.7445 0.65181 0.86319 0.0
H3638 H 0.74619 0.68519 0.86674 0.0
H3639 H 0.80648 0.76096 0.82554 0.0
H3640 H 0.80462 0.74941 0.85594 0.0
H3641 H 0.7481 0.74479 0.84887 0.0
H3642 H 0.75016 0.7578 0.81943 0.0
H3643 H 0.77091 0.71118 0.85885 0.0
H3644 H 0.75647 0.77226 0.87506 0.0
H3645 H 0.76342 0.80598 0.87763 0.0
H3646 H 0.81227 0.80903 0.91248 0.0
H3647 H 0.80591 0.7752 0.90944 0.0
C3648 C 0.75738 0.69648 0.94503 0.0
C3649 C 0.77132 0.7036 0.9598 0.0
C3650 C 0.75749 0.70333 0.92782 0.0
C3651 C 0.77158 0.71734 0.92509 0.0
C3652 C 0.78496 0.72505 0.94021 0.0
C3653 C 0.78481 0.71833 0.95734 0.0
C3654 C 0.77256 0.72425 0.90666 0.0
C3655 C 0.77563 0.74333 0.90688 0.0
C3656 C 0.77101 0.71246 0.88909 0.0
C3657 C 0.76946 0.69232 0.8877 0.0
C3658 C 0.78203 0.68525 0.89811 0.0
C3659 C 0.78092 0.66629 0.89605 0.0
C3660 C 0.7674 0.65425 0.88348 0.0
C3661 C 0.75493 0.66114 0.87298 0.0
C3662 C 0.75594 0.68008 0.87504 0.0
C3663 C 0.79372 0.75754 0.83062 0.0
C3664 C 0.77843 0.76008 0.82025 0.0
C3665 C 0.79267 0.75099 0.84789 0.0
C3666 C 0.77623 0.74636 0.85462 0.0
C3667 C 0.76091 0.7485 0.84399 0.0
C3668 C 0.76208 0.75585 0.82722 0.0
C3669 C 0.77492 0.73914 0.87267 0.0
C3670 C 0.77197 0.7201 0.87231 0.0
C3671 C 0.77697 0.75091 0.89018 0.0
C3672 C 0.78093 0.77117 0.89158 0.0
C3673 C 0.76891 0.78006 0.88284 0.0
C3674 C 0.7727 0.79921 0.88447 0.0
C3675 C 0.78834 0.80964 0.89511 0.0
C3676 C 0.80022 0.80093 0.90413 0.0
C3677 C 0.79656 0.78177 0.90239 0.0
H3678 H 0.7912 0.82448 0.89645 0.0
H3679 H 0.76661 0.63958 0.88184 0.0
H3680 H 0.80371 0.09767 0.01581 0.0
H3681 H 0.82794 0.08289 0.01098 0.0
H3682 H 0.83322 0.0759 0.06983 0.0
H3683 H 0.80872 0.09187 0.075 0.0
H3684 H 0.86413 0.0924 0.05649 0.0
H3685 H 0.81685 0.039 0.03497 0.0
H3686 H 0.78767 0.02404 0.01712 0.0
H3687 H 0.80736 0.03509 0.96513 0.0
H3688 H 0.8365 0.05049 0.98262 0.0
H3689 H 0.92117 0.03223 0.01766 0.0
H3690 H 0.90148 0.04674 0.03604 0.0
H3691 H 0.88817 0.07392 0.98936 0.0
H3692 H 0.9085 0.06013 0.97106 0.0
H3693 H 0.86146 0.04281 0.00246 0.0
H3694 H 0.90186 0.10047 0.01887 0.0
H3695 H 0.92864 0.12381 0.03237 0.0
H3696 H 0.9202 0.11274 0.08822 0.0
H3697 H 0.89357 0.08885 0.07496 0.0
C3698 C 0.81008 0.09306 0.02779 0.0
C3699 C 0.80496 0.09617 0.04588 0.0
C3700 C 0.82364 0.0843 0.02492 0.0
C3701 C 0.83189 0.07791 0.03995 0.0
C3702 C 0.8266 0.08057 0.0581 0.0
C3703 C 0.81286 0.08964 0.06106 0.0
C3704 C 0.8473 0.0704 0.03647 0.0
C3705 C 0.86369 0.08105 0.04523 0.0
C3706 C 0.84627 0.05632 0.02093 0.0
C3707 C 0.82901 0.04581 0.01019 0.0
C3708 C 0.81501 0.03819 0.01973 0.0
C3709 C 0.79842 0.0297 0.00966 0.0
C3710 C 0.79567 0.02858 0.99001 0.0
C3711 C 0.80952 0.0359 0.98035 0.0
C3712 C 0.8261 0.04447 0.99034 0.0
C3713 C 0.91462 0.0419 0.01158 0.0
C3714 C 0.91608 0.04492 0.99285 0.0
C3715 C 0.9035 0.05021 0.02214 0.0
C3716 C 0.8937 0.06141 0.01399 0.0
C3717 C 0.89596 0.06543 0.99581 0.0
C3718 C 0.90727 0.05734 0.98532 0.0
C3719 C 0.87822 0.06503 0.02233 0.0
C3720 C 0.86194 0.05358 0.01435 0.0
C3721 C 0.87929 0.07891 0.03795 0.0
C3722 C 0.89599 0.09238 0.04582 0.0
C3723 C 0.90597 0.10255 0.03396 0.0
C3724 C 0.92109 0.11602 0.0416 0.0
C3725 C 0.92626 0.11963 0.06114 0.0
C3726 C 0.91629 0.10981 0.07307 0.0
C3727 C 0.90121 0.09626 0.06549 0.0
H3728 H 0.93791 0.13014 0.06704 0.0
H3729 H 0.78281 0.02206 0.98226 0.0
H3730 H 0.33214 0.40588 -0.00038 0.0
H3731 H 0.36239 0.42344 -0.00126 0.0
H3732 H 0.36784 0.44113 0.05913 0.0
H3733 H 0.33796 0.42313 0.06008 0.0
H3734 H 0.37786 0.46994 0.03787 0.0
H3735 H 0.38867 0.41136 0.04607 0.0
H3736 H 0.38442 0.37766 0.03918 0.0
H3737 H 0.40039 0.38145 0.98402 0.0
H3738 H 0.40443 0.4152 0.99046 0.0
H3739 H 0.47397 0.50093 0.05318 0.0
H3740 H 0.44394 0.48347 0.05525 0.0
H3741 H 0.43295 0.47385 0.99431 0.0
H3742 H 0.46243 0.49231 0.9923 0.0
H3743 H 0.42613 0.44084 0.01681 0.0
H3744 H 0.41462 0.50048 0.00966 0.0
H3745 H 0.41875 0.53407 0.01797 0.0
H3746 H 0.40414 0.52795 0.07326 0.0
H3747 H 0.40037 0.49431 0.06543 0.0
C3748 C 0.33993 0.41348 0.01263 0.0
C3749 C 0.333 0.41324 0.02991 0.0
C3750 C 0.3571 0.42343 0.01216 0.0
C3751 C 0.36727 0.43353 0.0289 0.0
C3752 C 0.36018 0.4334 0.04611 0.0
C3753 C 0.34323 0.42311 0.04664 0.0
C3754 C 0.38526 0.44442 0.02845 0.0
C3755 C 0.38848 0.46358 0.03347 0.0
C3756 C 0.39899 0.43606 0.0226 0.0
C3757 C 0.39664 0.41579 0.01865 0.0
C3758 C 0.39109 0.405 0.03239 0.0
C3759 C 0.38875 0.38589 0.02858 0.0
C3760 C 0.39208 0.37741 0.01115 0.0
C3761 C 0.39779 0.38804 0.9975 0.0
C3762 C 0.40011 0.40716 0.00122 0.0
C3763 C 0.46503 0.49514 0.04031 0.0
C3764 C 0.47035 0.49771 0.02259 0.0
C3765 C 0.44799 0.48522 0.04148 0.0
C3766 C 0.4364 0.47732 0.02491 0.0
C3767 C 0.44178 0.47984 0.00721 0.0
C3768 C 0.4585 0.49039 0.00609 0.0
C3769 C 0.41862 0.46635 0.026 0.0
C3770 C 0.41549 0.44717 0.02119 0.0
C3771 C 0.40501 0.47468 0.03224 0.0
C3772 C 0.40752 0.4949 0.03707 0.0
C3773 C 0.41258 0.5063 0.0237 0.0
C3774 C 0.41479 0.52535 0.02829 0.0
C3775 C 0.41175 0.53314 0.04615 0.0
C3776 C 0.40653 0.5219 0.05945 0.0
C3777 C 0.40438 0.50284 0.05495 0.0
H3778 H 0.41343 0.54789 0.04966 0.0
H3779 H 0.39027 0.36261 0.00823 0.0
H3780 H 0.35769 0.5388 0.76534 0.0
H3781 H 0.34362 0.56483 0.7627 0.0
H3782 H 0.38943 0.59316 0.74082 0.0
H3783 H 0.4034 0.56698 0.74301 0.0
H3784 H 0.37875 0.61194 0.77517 0.0
H3785 H 0.35481 0.58212 0.71138 0.0
H3786 H 0.34018 0.55419 0.68885 0.0
H3787 H 0.29431 0.549 0.71831 0.0
H3788 H 0.30876 0.57682 0.74114 0.0
H3789 H 0.3416 0.68921 0.77506 0.0
H3790 H 0.35468 0.66432 0.76074 0.0
H3791 H 0.30934 0.62435 0.77012 0.0
H3792 H 0.29632 0.6492 0.78428 0.0
H3793 H 0.32179 0.61274 0.73807 0.0
H3794 H 0.34398 0.6382 0.80258 0.0
H3795 H 0.35795 0.6621 0.82975 0.0
H3796 H 0.40612 0.67186 0.80438 0.0
H3797 H 0.39227 0.64832 0.77678 0.0
C3798 C 0.36445 0.55033 0.75937 0.0
C3799 C 0.3815 0.55093 0.75425 0.0
C3800 C 0.35649 0.56516 0.75794 0.0
C3801 C 0.3656 0.58081 0.75163 0.0
C3802 C 0.38226 0.5811 0.74566 0.0
C3803 C 0.3901 0.5661 0.74672 0.0
C3804 C 0.35826 0.5974 0.7529 0.0
C3805 C 0.36659 0.61245 0.76671 0.0
C3806 C 0.34205 0.59748 0.74236 0.0
C3807 C 0.33285 0.58155 0.72793 0.0
C3808 C 0.34158 0.57505 0.713 0.0
C3809 C 0.33334 0.55922 0.70021 0.0
C3810 C 0.31633 0.54983 0.70215 0.0
C3811 C 0.30747 0.55632 0.71681 0.0
C3812 C 0.31566 0.57215 0.72964 0.0
C3813 C 0.33425 0.67511 0.7734 0.0
C3814 C 0.31807 0.6709 0.78066 0.0
C3815 C 0.34171 0.66096 0.76535 0.0
C3816 C 0.33306 0.64255 0.76466 0.0
C3817 C 0.31619 0.63847 0.77052 0.0
C3818 C 0.30879 0.6526 0.77861 0.0
C3819 C 0.34239 0.62756 0.76025 0.0
C3820 C 0.3343 0.61264 0.74608 0.0
C3821 C 0.35865 0.62739 0.77088 0.0
C3822 C 0.36695 0.64174 0.7874 0.0
C3823 C 0.35746 0.64562 0.80264 0.0
C3824 C 0.36537 0.65908 0.81815 0.0
C3825 C 0.38288 0.66856 0.81875 0.0
C3826 C 0.39252 0.66457 0.80385 0.0
C3827 C 0.38463 0.6512 0.78824 0.0
H3828 H 0.389 0.67894 0.83079 0.0
H3829 H 0.31001 0.53752 0.69229 0.0
H3830 H 0.20582 0.6024 0.5081 0.0
H3831 H 0.17519 0.59901 0.51412 0.0
H3832 H 0.18542 0.56932 0.55986 0.0
H3833 H 0.21608 0.57215 0.55343 0.0
H3834 H 0.16488 0.549 0.52951 0.0
H3835 H 0.16681 0.60691 0.56781 0.0
H3836 H 0.17509 0.64066 0.5764 0.0
H3837 H 0.14545 0.64634 0.52487 0.0
H3838 H 0.13717 0.61265 0.51583 0.0
H3839 H 0.07888 0.51637 0.53589 0.0
H3840 H 0.1089 0.53281 0.54157 0.0
H3841 H 0.09856 0.56603 0.49904 0.0
H3842 H 0.06699 0.55104 0.49529 0.0
H3843 H 0.11889 0.58609 0.52977 0.0
H3844 H 0.11918 0.52953 0.48978 0.0
H3845 H 0.11076 0.4959 0.47999 0.0
H3846 H 0.13761 0.48825 0.53232 0.0
H3847 H 0.14594 0.52179 0.54257 0.0
C3848 C 0.2015 0.59531 0.51955 0.0
C3849 C 0.2128 0.58682 0.52984 0.0
C3850 C 0.18424 0.5939 0.52335 0.0
C3851 C 0.1783 0.5841 0.53754 0.0
C3852 C 0.19004 0.57708 0.54899 0.0
C3853 C 0.20724 0.57818 0.54494 0.0
C3854 C 0.15953 0.57613 0.53588 0.0
C3855 C 0.15478 0.55707 0.5301 0.0
C3856 C 0.1467 0.58693 0.53553 0.0
C3857 C 0.15141 0.60722 0.54112 0.0
C3858 C 0.16213 0.61535 0.55826 0.0
C3859 C 0.16681 0.63448 0.56322 0.0
C3860 C 0.16082 0.64564 0.55118 0.0
C3861 C 0.15007 0.63769 0.53419 0.0
C3862 C 0.14534 0.61857 0.52917 0.0
C3863 C 0.08271 0.52716 0.52774 0.0
C3864 C 0.07053 0.5326 0.51529 0.0
C3865 C 0.10003 0.53646 0.53089 0.0
C3866 C 0.10587 0.55021 0.52035 0.0
C3867 C 0.09406 0.55529 0.50719 0.0
C3868 C 0.07625 0.54662 0.50486 0.0
C3869 C 0.12447 0.55911 0.52357 0.0
C3870 C 0.1291 0.57816 0.52942 0.0
C3871 C 0.13742 0.54841 0.52356 0.0
C3872 C 0.13318 0.52821 0.51694 0.0
C3873 C 0.1233 0.52068 0.49919 0.0
C3874 C 0.1185 0.50162 0.49358 0.0
C3875 C 0.12364 0.48995 0.50552 0.0
C3876 C 0.13366 0.4973 0.52307 0.0
C3877 C 0.13846 0.51634 0.52877 0.0
H3878 H 0.11986 0.4752 0.50117 0.0
H3879 H 0.16449 0.66044 0.55503 0.0
H3880 H 0.72464 0.00827 0.77147 0.0
H3881 H 0.73794 0.98191 0.76854 0.0
H3882 H 0.70441 0.9588 0.71583 0.0
H3883 H 0.69008 0.98487 0.71924 0.0
H3884 H 0.70062 0.93703 0.7439 0.0
H3885 H 0.74913 0.96891 0.71549 0.0
H3886 H 0.76791 0.99951 0.71545 0.0
H3887 H 0.79071 0.0006 0.77249 0.0
H3888 H 0.77196 0.97008 0.77294 0.0
H3889 H 0.73633 0.8609 0.76445 0.0
H3890 H 0.72939 0.88388 0.74537 0.0
H3891 H 0.75772 0.92733 0.7899 0.0
H3892 H 0.76455 0.90444 0.80886 0.0
H3893 H 0.76419 0.93529 0.75521 0.0
H3894 H 0.71558 0.91076 0.78768 0.0
H3895 H 0.69222 0.88665 0.7956 0.0
H3896 H 0.66613 0.87738 0.73867 0.0
H3897 H 0.68977 0.9009 0.73014 0.0
C3898 C 0.72047 0.99794 0.75891 0.0
C3899 C 0.70592 0.99819 0.74599 0.0
C3900 C 0.7282 0.98291 0.75716 0.0
C3901 C 0.72208 0.96849 0.74195 0.0
C3902 C 0.70915 0.96987 0.72766 0.0
C3903 C 0.70113 0.9848 0.7296 0.0
C3904 C 0.72747 0.9511 0.74286 0.0
C3905 C 0.71444 0.93617 0.74553 0.0
C3906 C 0.74554 0.95064 0.7457 0.0
C3907 C 0.75933 0.96704 0.74413 0.0
C3908 C 0.75847 0.97548 0.72786 0.0
C3909 C 0.76897 0.9929 0.72784 0.0
C3910 C 0.78053 0.00197 0.74394 0.0
C3911 C 0.78184 0.9935 0.75998 0.0
C3912 C 0.77138 0.97606 0.76008 0.0
C3913 C 0.74099 0.87539 0.77002 0.0
C3914 C 0.75054 0.88114 0.78814 0.0
C3915 C 0.73722 0.8884 0.75913 0.0
C3916 C 0.7431 0.90719 0.76631 0.0
C3917 C 0.75319 0.91285 0.78415 0.0
C3918 C 0.7568 0.89988 0.79506 0.0
C3919 C 0.73731 0.92109 0.75634 0.0
C3920 C 0.75029 0.93547 0.75229 0.0
C3921 C 0.71912 0.9213 0.75279 0.0
C3922 C 0.7048 0.90724 0.75808 0.0
C3923 C 0.70508 0.90335 0.77671 0.0
C3924 C 0.69176 0.88979 0.78134 0.0
C3925 C 0.6778 0.88037 0.76759 0.0
C3926 C 0.67706 0.88457 0.74925 0.0
C3927 C 0.69047 0.89794 0.74448 0.0
H3928 H 0.66751 0.86987 0.77116 0.0
H3929 H 0.78844 0.01559 0.74401 0.0
H3930 H 0.72986 0.8979 0.50565 0.0
H3931 H 0.70409 0.91131 0.49919 0.0
H3932 H 0.71345 0.94087 0.55632 0.0
H3933 H 0.73916 0.92762 0.56284 0.0
H3934 H 0.67885 0.92454 0.54602 0.0
H3935 H 0.7249 0.96224 0.52049 0.0
H3936 H 0.74862 0.97005 0.50064 0.0
H3937 H 0.7116 0.94895 0.45046 0.0
H3938 H 0.68771 0.9406 0.47 0.0
H3939 H 0.6284 0.99504 0.52263 0.0
H3940 H 0.65089 0.97929 0.53496 0.0
H3941 H 0.63561 0.93649 0.48633 0.0
H3942 H 0.61303 0.95181 0.47426 0.0
H3943 H 0.67346 0.96061 0.49385 0.0
H3944 H 0.62783 0.92167 0.51987 0.0
H3945 H 0.60459 0.91325 0.5401 0.0
H3946 H 0.64147 0.9372 0.58979 0.0
H3947 H 0.66487 0.94615 0.56984 0.0
C3948 C 0.72633 0.90714 0.51686 0.0
C3949 C 0.73651 0.91168 0.53477 0.0
C3950 C 0.7117 0.9149 0.51311 0.0
C3951 C 0.70697 0.92722 0.52723 0.0
C3952 C 0.7169 0.93144 0.54521 0.0
C3953 C 0.73159 0.92386 0.5489 0.0
C3954 C 0.69152 0.93557 0.52343 0.0
C3955 C 0.67777 0.93265 0.53477 0.0
C3956 C 0.69005 0.94592 0.50857 0.0
C3957 C 0.70453 0.95053 0.49676 0.0
C3958 C 0.72184 0.959 0.50523 0.0
C3959 C 0.73532 0.96358 0.49402 0.0
C3960 C 0.73163 0.95994 0.4743 0.0
C3961 C 0.71445 0.95171 0.46574 0.0
C3962 C 0.70094 0.94703 0.47688 0.0
C3963 C 0.62941 0.98191 0.515 0.0
C3964 C 0.61911 0.9747 0.49742 0.0
C3965 C 0.64228 0.97298 0.522 0.0
C3966 C 0.64491 0.95678 0.51148 0.0
C3967 C 0.63377 0.94896 0.49464 0.0
C3968 C 0.6209 0.95773 0.48777 0.0
C3969 C 0.66075 0.9494 0.51629 0.0
C3970 C 0.67461 0.95258 0.50515 0.0
C3971 C 0.66235 0.93936 0.53136 0.0
C3972 C 0.64801 0.93497 0.54331 0.0
C3973 C 0.6309 0.92554 0.53508 0.0
C3974 C 0.61772 0.92055 0.54652 0.0
C3975 C 0.62152 0.92478 0.56621 0.0
C3976 C 0.63851 0.93402 0.57453 0.0
C3977 C 0.65173 0.93908 0.56316 0.0
H3978 H 0.61131 0.92081 0.57504 0.0
H3979 H 0.74207 0.96355 0.46565 0.0
H3980 H 0.40819 0.453 0.76679 0.0
H3981 H 0.39027 0.42154 0.76176 0.0
H3982 H 0.34506 0.44083 0.73956 0.0
H3983 H 0.36289 0.47237 0.74529 0.0
H3984 H 0.33736 0.42203 0.76709 0.0
H3985 H 0.36625 0.41105 0.71055 0.0
H3986 H 0.39244 0.41133 0.69356 0.0
H3987 H 0.41183 0.37743 0.73037 0.0
H3988 H 0.38579 0.377 0.74759 0.0
H3989 H 0.27974 0.33556 0.75511 0.0
H3990 H 0.29653 0.36453 0.74928 0.0
H3991 H 0.3447 0.34469 0.75713 0.0
H3992 H 0.32745 0.31464 0.75915 0.0
H3993 H 0.35045 0.36459 0.73486 0.0
H3994 H 0.32453 0.37605 0.793 0.0
H3995 H 0.29988 0.37577 0.81222 0.0
H3996 H 0.27783 0.40992 0.77769 0.0
H3997 H 0.30207 0.4099 0.75786 0.0
C3998 C 0.39456 0.45033 0.76031 0.0
C3999 C 0.38685 0.46486 0.75619 0.0
C4000 C 0.38434 0.43239 0.75739 0.0
C4001 C 0.36633 0.42877 0.75012 0.0
C4002 C 0.35892 0.44328 0.74514 0.0
C4003 C 0.36908 0.46123 0.74829 0.0
C4004 C 0.35474 0.41042 0.74978 0.0
C4005 C 0.34004 0.40944 0.75982 0.0
C4006 C 0.35863 0.39399 0.74094 0.0
C4007 C 0.37412 0.39405 0.73037 0.0
C4008 C 0.37613 0.4037 0.71503 0.0
C4009 C 0.39094 0.40387 0.70536 0.0
C4010 C 0.4038 0.39442 0.7109 0.0
C4011 C 0.40185 0.38472 0.72608 0.0
C4012 C 0.38705 0.38446 0.73576 0.0
C4013 C 0.29379 0.33721 0.7554 0.0
C4014 C 0.30209 0.32275 0.75835 0.0
C4015 C 0.30357 0.35407 0.75239 0.0
C4016 C 0.32216 0.35742 0.75372 0.0
C4017 C 0.33045 0.34282 0.75623 0.0
C4018 C 0.32051 0.32559 0.75786 0.0
C4019 C 0.33302 0.37596 0.75254 0.0
C4020 C 0.34763 0.37706 0.7422 0.0
C4021 C 0.32937 0.39253 0.76166 0.0
C4022 C 0.31504 0.39286 0.77388 0.0
C4023 C 0.31441 0.38346 0.78949 0.0
C4024 C 0.30049 0.38335 0.80049 0.0
C4025 C 0.28733 0.39289 0.79625 0.0
C4026 C 0.28804 0.40254 0.78097 0.0
C4027 C 0.30183 0.40256 0.76982 0.0
H4028 H 0.27658 0.39279 0.8048 0.0
H4029 H 0.41526 0.3946 0.70342 0.0
H4030 H 0.19617 0.57043 0.2333 0.0
H4031 H 0.21115 0.60102 0.22884 0.0
H4032 H 0.19643 0.6242 0.28181 0.0
H4033 H 0.1816 0.59342 0.28659 0.0
H4034 H 0.1912 0.64296 0.24969 0.0
H4035 H 0.23392 0.6142 0.28191 0.0
H4036 H 0.25297 0.59212 0.28575 0.0
H4037 H 0.27712 0.60549 0.23669 0.0
H4038 H 0.25786 0.62728 0.23224 0.0
H4039 H 0.24626 0.72803 0.28499 0.0
H4040 H 0.22932 0.69637 0.2801 0.0
H4041 H 0.26162 0.68153 0.2372 0.0
H4042 H 0.27979 0.71226 0.24377 0.0
H4043 H 0.25686 0.65731 0.25702 0.0
H4044 H 0.21771 0.68926 0.22691 0.0
H4045 H 0.20055 0.71322 0.22425 0.0
H4046 H 0.17089 0.69535 0.26829 0.0
H4047 H 0.18806 0.67154 0.27147 0.0
C4048 C 0.19587 0.58213 0.24382 0.0
C4049 C 0.18777 0.57987 0.26026 0.0
C4050 C 0.20446 0.59943 0.24127 0.0
C4051 C 0.20478 0.6145 0.25504 0.0
C4052 C 0.19614 0.61244 0.27112 0.0
C4053 C 0.18781 0.59505 0.27387 0.0
C4054 C 0.21486 0.63244 0.25325 0.0
C4055 C 0.20557 0.64627 0.25122 0.0
C4056 C 0.23348 0.63615 0.25448 0.0
C4057 C 0.24411 0.62205 0.25648 0.0
C4058 C 0.24297 0.61211 0.27167 0.0
C4059 C 0.25389 0.59972 0.27402 0.0
C4060 C 0.26617 0.59733 0.26141 0.0
C4061 C 0.26752 0.60727 0.24638 0.0
C4062 C 0.25656 0.61958 0.2439 0.0
C4063 C 0.2499 0.71785 0.27486 0.0
C4064 C 0.26399 0.72259 0.26445 0.0
C4065 C 0.24004 0.69997 0.27177 0.0
C4066 C 0.24379 0.68698 0.25767 0.0
C4067 C 0.25835 0.69153 0.24788 0.0
C4068 C 0.26869 0.70912 0.25163 0.0
C4069 C 0.23331 0.66823 0.25403 0.0
C4070 C 0.24249 0.65412 0.25487 0.0
C4071 C 0.2146 0.66429 0.25146 0.0
C4072 C 0.20422 0.67862 0.24945 0.0
C4073 C 0.20759 0.6905 0.2361 0.0
C4074 C 0.19786 0.70407 0.2345 0.0
C4075 C 0.18464 0.7058 0.24609 0.0
C4076 C 0.18112 0.69398 0.2593 0.0
C4077 C 0.19083 0.68044 0.261 0.0
H4078 H 0.17711 0.71631 0.24483 0.0
H4079 H 0.27471 0.58783 0.26335 0.0
H4080 H 0.46944 0.69748 0.45079 0.0
H4081 H 0.47437 0.66861 0.4592 0.0
H4082 H 0.52954 0.69339 0.47708 0.0
H4083 H 0.52485 0.72221 0.46683 0.0
H4084 H 0.52812 0.66032 0.46177 0.0
H4085 H 0.49642 0.68111 0.51249 0.0
H4086 H 0.47257 0.69544 0.52368 0.0
H4087 H 0.43366 0.65279 0.48778 0.0
H4088 H 0.45724 0.63776 0.47705 0.0
H4089 H 0.53847 0.58753 0.51446 0.0
H4090 H 0.53577 0.617 0.50567 0.0
H4091 H 0.48492 0.59164 0.47387 0.0
H4092 H 0.48817 0.56162 0.48172 0.0
H4093 H 0.48521 0.62549 0.49771 0.0
H4094 H 0.51898 0.60282 0.45078 0.0
H4095 H 0.54376 0.59071 0.43888 0.0
H4096 H 0.58058 0.63932 0.46774 0.0
H4097 H 0.55605 0.65158 0.48011 0.0
C4098 C 0.48262 0.69697 0.45677 0.0
C4099 C 0.49665 0.71243 0.45847 0.0
C4100 C 0.48543 0.68032 0.4618 0.0
C4101 C 0.50221 0.67864 0.46966 0.0
C4102 C 0.51637 0.6941 0.47131 0.0
C4103 C 0.51367 0.7107 0.46557 0.0
C4104 C 0.50479 0.66066 0.47564 0.0
C4105 C 0.51889 0.65295 0.46994 0.0
C4106 C 0.49277 0.65053 0.4861 0.0
C4107 C 0.47853 0.65835 0.49401 0.0
C4108 C 0.48274 0.67465 0.50725 0.0
C4109 C 0.46928 0.68285 0.51355 0.0
C4110 C 0.4516 0.67496 0.50653 0.0
C4111 C 0.44734 0.65874 0.49339 0.0
C4112 C 0.46071 0.65023 0.48739 0.0
C4113 C 0.52691 0.58793 0.50527 0.0
C4114 C 0.51388 0.57178 0.49848 0.0
C4115 C 0.52529 0.60502 0.50031 0.0
C4116 C 0.51022 0.60674 0.48886 0.0
C4117 C 0.49679 0.5908 0.48257 0.0
C4118 C 0.4987 0.57355 0.48707 0.0
C4119 C 0.50847 0.62515 0.48374 0.0
C4120 C 0.49453 0.63295 0.48968 0.0
C4121 C 0.52088 0.63545 0.47381 0.0
C4122 C 0.53568 0.628 0.46659 0.0
C4123 C 0.53238 0.61083 0.45479 0.0
C4124 C 0.54638 0.60396 0.44791 0.0
C4125 C 0.56374 0.61421 0.4526 0.0
C4126 C 0.56713 0.63137 0.46415 0.0
C4127 C 0.55318 0.63828 0.47111 0.0
H4128 H 0.57456 0.60887 0.44724 0.0
H4129 H 0.4412 0.68146 0.51122 0.0
H4130 H 0.6118 0.28456 0.62559 0.0
H4131 H 0.64039 0.28091 0.64074 0.0
H4132 H 0.62497 0.29654 0.69567 0.0
H4133 H 0.59684 0.30034 0.68082 0.0
H4134 H 0.65698 0.31425 0.69491 0.0
H4135 H 0.62568 0.2521 0.67755 0.0
H4136 H 0.60948 0.22331 0.65735 0.0
H4137 H 0.65454 0.2215 0.62748 0.0
H4138 H 0.67089 0.25054 0.64719 0.0
H4139 H 0.71559 0.28022 0.75635 0.0
H4140 H 0.68952 0.28331 0.73687 0.0
H4141 H 0.71813 0.28355 0.68844 0.0
H4142 H 0.74498 0.28181 0.70837 0.0
H4143 H 0.68119 0.25813 0.68383 0.0
H4144 H 0.71227 0.32124 0.70433 0.0
H4145 H 0.72735 0.34836 0.72768 0.0
H4146 H 0.6804 0.34592 0.75514 0.0
H4147 H 0.66515 0.31853 0.73218 0.0
C4148 C 0.61456 0.28729 0.64088 0.0
C4149 C 0.60195 0.29287 0.65191 0.0
C4150 C 0.63088 0.28505 0.64957 0.0
C4151 C 0.63496 0.28838 0.66945 0.0
C4152 C 0.62233 0.29394 0.68035 0.0
C4153 C 0.60613 0.2961 0.67176 0.0
C4154 C 0.65246 0.28685 0.67919 0.0
C4155 C 0.66214 0.30188 0.69247 0.0
C4156 C 0.6595 0.27083 0.67603 0.0
C4157 C 0.64942 0.25373 0.66365 0.0
C4158 C 0.63205 0.24576 0.66646 0.0
C4159 C 0.62285 0.22935 0.65514 0.0
C4160 C 0.63095 0.22063 0.64109 0.0
C4161 C 0.64826 0.22831 0.63831 0.0
C4162 C 0.65748 0.24477 0.64953 0.0
C4163 C 0.71672 0.28143 0.74181 0.0
C4164 C 0.73281 0.28117 0.73437 0.0
C4165 C 0.70156 0.28293 0.7305 0.0
C4166 C 0.70178 0.28368 0.71115 0.0
C4167 C 0.7176 0.28299 0.70336 0.0
C4168 C 0.73299 0.28204 0.71487 0.0
C4169 C 0.68549 0.28551 0.69936 0.0
C4170 C 0.67604 0.27053 0.6859 0.0
C4171 C 0.67838 0.30139 0.70264 0.0
C4172 C 0.68763 0.31771 0.71663 0.0
C4173 C 0.70523 0.32633 0.71548 0.0
C4174 C 0.7138 0.34179 0.72863 0.0
C4175 C 0.70485 0.34884 0.74291 0.0
C4176 C 0.68732 0.34043 0.74409 0.0
C4177 C 0.67872 0.32494 0.73101 0.0
H4178 H 0.71149 0.36084 0.75304 0.0
H4179 H 0.62383 0.20788 0.63239 0.0
H4180 H 0.96977 0.31193 0.96124 0.0
H4181 H 0.97614 0.34527 0.97061 0.0
H4182 H 0.03075 0.34832 0.96242 0.0
H4183 H 0.02434 0.31472 0.95239 0.0
H4184 H 0.02523 0.37205 0.99683 0.0
H4185 H 0.00888 0.36126 0.93028 0.0
H4186 H 0.99097 0.34652 0.89988 0.0
H4187 H 0.946 0.36544 0.91863 0.0
H4188 H 0.9636 0.38011 0.94928 0.0
H4189 H 0.04345 0.47 0.99796 0.0
H4190 H 0.04104 0.43689 0.99091 0.0
H4191 H 0.98416 0.42813 0.98566 0.0
H4192 H 0.98657 0.46128 0.99231 0.0
H4193 H 0.99304 0.4071 0.95749 0.0
H4194 H 0.01075 0.41783 0.0251 0.0
H4195 H 0.02945 0.43127 0.05542 0.0
H4196 H 0.07352 0.41256 0.03402 0.0
H4197 H 0.05511 0.3991 0.00351 0.0
C4198 C 0.98323 0.31955 0.96162 0.0
C4199 C 0.99652 0.31039 0.95604 0.0
C4200 C 0.98684 0.33875 0.96694 0.0
C4201 C 0.00393 0.34953 0.96721 0.0
C4202 C 0.01745 0.34043 0.96238 0.0
C4203 C 0.01375 0.32116 0.95661 0.0
C4204 C 0.00719 0.37022 0.97172 0.0
C4205 C 0.01841 0.37976 0.98808 0.0
C4206 C 0.99821 0.38044 0.96051 0.0
C4207 C 0.98751 0.37161 0.94216 0.0
C4208 C 0.99512 0.36213 0.928 0.0
C4209 C 0.98504 0.35382 0.9107 0.0
C4210 C 0.96734 0.355 0.90735 0.0
C4211 C 0.9597 0.36452 0.92127 0.0
C4212 C 0.96973 0.37285 0.9386 0.0
C4213 C 0.03034 0.46114 0.99541 0.0
C4214 C 0.01513 0.46873 0.99579 0.0
C4215 C 0.02901 0.442 0.99147 0.0
C4216 C 0.01241 0.42964 0.98791 0.0
C4217 C 0.9972 0.43714 0.98832 0.0
C4218 C 0.99856 0.4563 0.99219 0.0
C4219 C 0.01083 0.40909 0.98292 0.0
C4220 C 0.99992 0.39951 0.96634 0.0
C4221 C 0.02032 0.39894 0.99386 0.0
C4222 C 0.03158 0.40762 0.01194 0.0
C4223 C 0.02447 0.41676 0.02678 0.0
C4224 C 0.03501 0.42432 0.04403 0.0
C4225 C 0.05266 0.42279 0.04663 0.0
C4226 C 0.05984 0.41374 0.03198 0.0
C4227 C 0.04936 0.40612 0.01472 0.0
H4228 H 0.06075 0.42856 0.06002 0.0
H4229 H 0.95955 0.34856 0.89395 0.0
H4230 H 0.98706 0.77876 0.11514 0.0
H4231 H 0.9605 0.77726 0.13105 0.0
H4232 H 0.99182 0.77918 0.18446 0.0
H4233 H 0.01821 0.77969 0.16837 0.0
H4234 H 0.96325 0.75625 0.18362 0.0
H4235 H 0.97508 0.81777 0.16864 0.0
H4236 H 0.98025 0.84096 0.14748 0.0
H4237 H 0.92911 0.81774 0.11581 0.0
H4238 H 0.92371 0.79427 0.13665 0.0
H4239 H 0.90039 0.77023 0.24353 0.0
H4240 H 0.9263 0.77958 0.22727 0.0
H4241 H 0.89257 0.76884 0.17401 0.0
H4242 H 0.86662 0.7597 0.19037 0.0
H4243 H 0.92175 0.79732 0.17426 0.0
H4244 H 0.91039 0.73584 0.18846 0.0
H4245 H 0.9053 0.71184 0.20869 0.0
H4246 H 0.95625 0.7347 0.24095 0.0
H4247 H 0.96149 0.75909 0.22114 0.0
C4248 C 0.98826 0.77862 0.13023 0.0
C4249 C 0.0048 0.7792 0.14042 0.0
C4250 C 0.97305 0.77804 0.13941 0.0
C4251 C 0.97404 0.77856 0.15915 0.0
C4252 C 0.99054 0.77881 0.16926 0.0
C4253 C 0.00567 0.77901 0.16002 0.0
C4254 C 0.95795 0.77823 0.16928 0.0
C4255 C 0.95444 0.76554 0.18179 0.0
C4256 C 0.94592 0.78987 0.16654 0.0
C4257 C 0.94904 0.80416 0.15415 0.0
C4258 C 0.96497 0.81755 0.15712 0.0
C4259 C 0.96794 0.83075 0.14518 0.0
C4260 C 0.95503 0.8308 0.13029 0.0
C4261 C 0.9391 0.81768 0.12734 0.0
C4262 C 0.93607 0.80444 0.13923 0.0
C4263 C 0.89844 0.77069 0.22849 0.0
C4264 C 0.88145 0.7645 0.21827 0.0
C4265 C 0.91328 0.77584 0.21914 0.0
C4266 C 0.91152 0.7746 0.19929 0.0
C4267 C 0.89436 0.76993 0.18928 0.0
C4268 C 0.8795 0.7648 0.19866 0.0
C4269 C 0.92748 0.77567 0.1889 0.0
C4270 C 0.93079 0.78829 0.17623 0.0
C4271 C 0.93943 0.76399 0.19144 0.0
C4272 C 0.93624 0.74942 0.20346 0.0
C4273 C 0.92043 0.73587 0.19999 0.0
C4274 C 0.91753 0.72218 0.21136 0.0
C4275 C 0.93042 0.72177 0.22612 0.0
C4276 C 0.94625 0.73506 0.22954 0.0
C4277 C 0.94919 0.74883 0.21826 0.0
H4278 H 0.92817 0.71113 0.23488 0.0
H4279 H 0.95736 0.84102 0.12105 0.0
H4280 H 0.51588 0.2774 0.11766 0.0
H4281 H 0.51858 0.30425 0.10122 0.0
H4282 H 0.51629 0.33874 0.15364 0.0
H4283 H 0.51424 0.31203 0.17015 0.0
H4284 H 0.4921 0.34291 0.1234 0.0
H4285 H 0.5535 0.34467 0.13681 0.0
H4286 H 0.58094 0.333 0.13789 0.0
H4287 H 0.57427 0.32056 0.07718 0.0
H4288 H 0.5466 0.33189 0.07575 0.0
H4289 H 0.52227 0.43079 0.09095 0.0
H4290 H 0.51458 0.40425 0.10743 0.0
H4291 H 0.51751 0.36782 0.05658 0.0
H4292 H 0.52497 0.39425 0.04015 0.0
H4293 H 0.54095 0.36511 0.087 0.0
H4294 H 0.47922 0.36422 0.07406 0.0
H4295 H 0.45185 0.37603 0.07382 0.0
H4296 H 0.45956 0.38784 0.13457 0.0
H4297 H 0.48712 0.37632 0.13517 0.0
C4298 C 0.51664 0.29085 0.12576 0.0
C4299 C 0.51544 0.29275 0.14529 0.0
C4300 C 0.51798 0.30616 0.11634 0.0
C4301 C 0.51758 0.32359 0.12615 0.0
C4302 C 0.51665 0.32551 0.14574 0.0
C4303 C 0.51575 0.31029 0.15522 0.0
C4304 C 0.51753 0.33958 0.11582 0.0
C4305 C 0.5029 0.34795 0.11564 0.0
C4306 C 0.53142 0.34601 0.10541 0.0
C4307 C 0.54786 0.33889 0.10619 0.0
C4308 C 0.55776 0.33923 0.1237 0.0
C4309 C 0.57339 0.33273 0.12437 0.0
C4310 C 0.57932 0.32598 0.10762 0.0
C4311 C 0.56964 0.32575 0.09015 0.0
C4312 C 0.55398 0.3322 0.0894 0.0
C4313 C 0.52032 0.41705 0.08304 0.0
C4314 C 0.52392 0.41459 0.06415 0.0
C4315 C 0.51609 0.40186 0.09252 0.0
C4316 C 0.5156 0.38396 0.08333 0.0
C4317 C 0.51783 0.38144 0.06403 0.0
C4318 C 0.52188 0.39655 0.05455 0.0
C4319 C 0.5154 0.36835 0.09428 0.0
C4320 C 0.53009 0.36009 0.09468 0.0
C4321 C 0.50162 0.36217 0.10498 0.0
C4322 C 0.48537 0.36965 0.10464 0.0
C4323 C 0.47522 0.36958 0.08736 0.0
C4324 C 0.45962 0.37614 0.08716 0.0
C4325 C 0.454 0.38274 0.10416 0.0
C4326 C 0.46395 0.38277 0.1214 0.0
C4327 C 0.47956 0.37622 0.12168 0.0
H4328 H 0.4419 0.38778 0.10398 0.0
H4329 H 0.59144 0.32098 0.10816 0.0
H4330 H 0.96978 0.27129 0.33958 0.0
H4331 H 0.93875 0.27016 0.331 0.0
H4332 H 0.95177 0.30381 0.28822 0.0
H4333 H 0.98357 0.30611 0.29791 0.0
H4334 H 0.92586 0.3141 0.30396 0.0
H4335 H 0.93314 0.2542 0.27886 0.0
H4336 H 0.94265 0.22495 0.27974 0.0
H4337 H 0.90896 0.21236 0.32233 0.0
H4338 H 0.89942 0.24165 0.32189 0.0
H4339 H 0.83622 0.29484 0.26033 0.0
H4340 H 0.86788 0.29678 0.26745 0.0
H4341 H 0.85823 0.2671 0.31394 0.0
H4342 H 0.82631 0.2653 0.30698 0.0
H4343 H 0.88243 0.2545 0.29484 0.0
H4344 H 0.87608 0.31448 0.32085 0.0
H4345 H 0.86792 0.34456 0.32177 0.0
H4346 H 0.90011 0.35693 0.27787 0.0
H4347 H 0.90831 0.32682 0.27655 0.0
C4348 C 0.9663 0.27887 0.32861 0.0
C4349 C 0.97954 0.28917 0.31982 0.0
C4350 C 0.94825 0.27783 0.32336 0.0
C4351 C 0.94249 0.28649 0.30857 0.0
C4352 C 0.95563 0.29685 0.29963 0.0
C4353 C 0.97391 0.29815 0.30515 0.0
C4354 C 0.92285 0.28494 0.30296 0.0
C4355 C 0.91647 0.30097 0.30158 0.0
C4356 C 0.91019 0.26794 0.30036 0.0
C4357 C 0.91567 0.25019 0.30043 0.0
C4358 C 0.92783 0.24523 0.28847 0.0
C4359 C 0.93322 0.22864 0.28889 0.0
C4360 C 0.92644 0.21683 0.30111 0.0
C4361 C 0.9142 0.22154 0.31288 0.0
C4362 C 0.90878 0.23812 0.31253 0.0
C4363 C 0.84072 0.28889 0.27225 0.0
C4364 C 0.82846 0.28016 0.28322 0.0
C4365 C 0.85901 0.29002 0.27633 0.0
C4366 C 0.86578 0.28235 0.29147 0.0
C4367 C 0.85355 0.27327 0.30224 0.0
C4368 C 0.8352 0.27229 0.29826 0.0
C4369 C 0.8855 0.28368 0.29586 0.0
C4370 C 0.89186 0.26759 0.29705 0.0
C4371 C 0.89815 0.3006 0.29825 0.0
C4372 C 0.89269 0.31836 0.2985 0.0
C4373 C 0.88126 0.32353 0.31125 0.0
C4374 C 0.8767 0.34062 0.31191 0.0
C4375 C 0.88356 0.35267 0.29994 0.0
C4376 C 0.89486 0.3476 0.28717 0.0
C4377 C 0.89947 0.33054 0.28647 0.0
H4378 H 0.88011 0.36595 0.30055 0.0
H4379 H 0.93065 0.204 0.30143 0.0
H4380 H 0.98632 0.70388 0.61839 0.0
H4381 H 0.99187 0.67683 0.59913 0.0
H4382 H 0.02573 0.66755 0.64621 0.0
H4383 H 0.0207 0.69521 0.6655 0.0
H4384 H 0.03959 0.65989 0.61411 0.0
H4385 H 0.98153 0.64179 0.63307 0.0
H4386 H 0.95114 0.6454 0.63681 0.0
H4387 H 0.93955 0.64198 0.57665 0.0
H4388 H 0.96993 0.63852 0.57258 0.0
H4389 H 0.0413 0.56882 0.57243 0.0
H4390 H 0.03801 0.59612 0.59309 0.0
H4391 H 0.99771 0.60385 0.55126 0.0
H4392 H 0.99937 0.57506 0.53192 0.0
H4393 H 0.98759 0.61239 0.58191 0.0
H4394 H 0.04543 0.63088 0.56234 0.0
H4395 H 0.07595 0.628 0.55818 0.0
H4396 H 0.0883 0.63137 0.61824 0.0
H4397 H 0.05782 0.63413 0.62274 0.0
C4398 C 0.99494 0.69613 0.62476 0.0
C4399 C 0.00285 0.70173 0.6437 0.0
C4400 C 0.99809 0.68053 0.61366 0.0
C4401 C 0.00892 0.66969 0.6212 0.0
C4402 C 0.01723 0.67549 0.63997 0.0
C4403 C 0.01428 0.69132 0.65106 0.0
C4404 C 0.01113 0.65219 0.6096 0.0
C4405 C 0.02821 0.64941 0.60726 0.0
C4406 C 0.9964 0.63852 0.60019 0.0
C4407 C 0.978 0.64 0.60254 0.0
C4408 C 0.97249 0.64184 0.62065 0.0
C4409 C 0.95528 0.64387 0.62283 0.0
C4410 C 0.94343 0.64396 0.60698 0.0
C4411 C 0.94874 0.64191 0.58891 0.0
C4412 C 0.96594 0.63988 0.58665 0.0
C4413 C 0.03126 0.57587 0.56796 0.0
C4414 C 0.02034 0.56934 0.55062 0.0
C4415 C 0.02977 0.59201 0.57956 0.0
C4416 C 0.01785 0.60263 0.57379 0.0
C4417 C 0.00708 0.59618 0.55628 0.0
C4418 C 0.00822 0.57976 0.54499 0.0
C4419 C 0.0161 0.62005 0.58606 0.0
C4420 C 0.99906 0.62283 0.58863 0.0
C4421 C 0.03089 0.63376 0.5955 0.0
C4422 C 0.04932 0.63257 0.59285 0.0
C4423 C 0.05465 0.63096 0.57465 0.0
C4424 C 0.07194 0.62935 0.57223 0.0
C4425 C 0.08404 0.62945 0.58793 0.0
C4426 C 0.07891 0.63128 0.60609 0.0
C4427 C 0.06165 0.63291 0.60859 0.0
H4428 H 0.0974 0.62815 0.58603 0.0
H4429 H 0.93013 0.64558 0.6087 0.0
H4430 H 0.5955 0.81317 0.83452 0.0
H4431 H 0.62628 0.81508 0.82757 0.0
H4432 H 0.61041 0.76197 0.7923 0.0
H4433 H 0.58003 0.76007 0.79892 0.0
H4434 H 0.63977 0.76336 0.81595 0.0
H4435 H 0.62228 0.80138 0.77154 0.0
H4436 H 0.61064 0.82742 0.76204 0.0
H4437 H 0.65076 0.86528 0.80163 0.0
H4438 H 0.66271 0.83944 0.81122 0.0
H4439 H 0.71443 0.75633 0.76783 0.0
H4440 H 0.6852 0.7586 0.77608 0.0
H4441 H 0.70687 0.81304 0.80701 0.0
H4442 H 0.73635 0.81071 0.79891 0.0
H4443 H 0.67557 0.81279 0.78794 0.0
H4444 H 0.69538 0.77487 0.82942 0.0
H4445 H 0.70687 0.74894 0.83931 0.0
H4446 H 0.66188 0.71078 0.80701 0.0
H4447 H 0.6503 0.73647 0.7966 0.0
C4448 C 0.59854 0.80193 0.82523 0.0
C4449 C 0.58502 0.78641 0.81744 0.0
C4450 C 0.61622 0.80307 0.82115 0.0
C4451 C 0.62094 0.78865 0.80932 0.0
C4452 C 0.6074 0.77331 0.8015 0.0
C4453 C 0.58985 0.77227 0.80534 0.0
C4454 C 0.63989 0.78884 0.80559 0.0
C4455 C 0.64747 0.7741 0.80962 0.0
C4456 C 0.65043 0.80302 0.79785 0.0
C4457 C 0.64323 0.81851 0.79224 0.0
C4458 C 0.62853 0.81526 0.77828 0.0
C4459 C 0.62193 0.82997 0.77283 0.0
C4460 C 0.62992 0.84799 0.78127 0.0
C4461 C 0.64457 0.85132 0.79512 0.0
C4462 C 0.65131 0.83666 0.80051 0.0
C4463 C 0.71319 0.76873 0.77654 0.0
C4464 C 0.72816 0.78314 0.78284 0.0
C4465 C 0.69626 0.77005 0.7813 0.0
C4466 C 0.69354 0.78591 0.79252 0.0
C4467 C 0.70836 0.80056 0.79844 0.0
C4468 C 0.72536 0.79917 0.7938 0.0
C4469 C 0.67535 0.78708 0.79801 0.0
C4470 C 0.66792 0.80206 0.79433 0.0
C4471 C 0.66492 0.77311 0.80617 0.0
C4472 C 0.67207 0.7576 0.81204 0.0
C4473 C 0.68804 0.76094 0.82423 0.0
C4474 C 0.69455 0.74629 0.82997 0.0
C4475 C 0.68513 0.72823 0.82376 0.0
C4476 C 0.66919 0.72478 0.81178 0.0
C4477 C 0.66265 0.73938 0.80595 0.0
H4478 H 0.69017 0.7169 0.82826 0.0
H4479 H 0.62479 0.85936 0.77704 0.0
H4480 H 0.42908 0.52569 0.69383 0.0
H4481 H 0.43839 0.52829 0.66262 0.0
H4482 H 0.4779 0.49696 0.67395 0.0
H4483 H 0.46903 0.49482 0.7054 0.0
H4484 H 0.49212 0.52672 0.66196 0.0
H4485 H 0.43899 0.48005 0.6417 0.0
H4486 H 0.40709 0.46603 0.63817 0.0
H4487 H 0.39549 0.50982 0.61009 0.0
H4488 H 0.4273 0.52429 0.61375 0.0
H4489 H 0.51929 0.50843 0.57277 0.0
H4490 H 0.50688 0.50725 0.60242 0.0
H4491 H 0.4706 0.54025 0.58542 0.0
H4492 H 0.48274 0.54099 0.55508 0.0
H4493 H 0.45402 0.51214 0.60013 0.0
H4494 H 0.50708 0.55927 0.62172 0.0
H4495 H 0.53898 0.57357 0.62618 0.0
H4496 H 0.5505 0.52788 0.65099 0.0
H4497 H 0.51862 0.51355 0.64713 0.0
C4498 C 0.4396 0.51914 0.68958 0.0
C4499 C 0.4484 0.51012 0.70211 0.0
C4500 C 0.44484 0.52056 0.67167 0.0
C4501 C 0.45876 0.51271 0.66587 0.0
C4502 C 0.46713 0.50316 0.67814 0.0
C4503 C 0.46205 0.50192 0.6961 0.0
C4504 C 0.46566 0.51573 0.64775 0.0
C4505 C 0.48379 0.52328 0.64842 0.0
C4506 C 0.45469 0.51195 0.63015 0.0
C4507 C 0.43553 0.50338 0.62823 0.0
C4508 C 0.42963 0.48681 0.63497 0.0
C4509 C 0.41156 0.47876 0.63291 0.0
C4510 C 0.39926 0.48706 0.62397 0.0
C4511 C 0.40502 0.50343 0.61706 0.0
C4512 C 0.42307 0.51156 0.61913 0.0
C4513 C 0.50882 0.51567 0.57538 0.0
C4514 C 0.5021 0.52501 0.5617 0.0
C4515 C 0.50178 0.51504 0.59242 0.0
C4516 C 0.4881 0.52403 0.59636 0.0
C4517 C 0.48128 0.53335 0.58271 0.0
C4518 C 0.48821 0.53379 0.56545 0.0
C4519 C 0.48049 0.5228 0.6144 0.0
C4520 C 0.46227 0.51566 0.61372 0.0
C4521 C 0.49133 0.5269 0.63205 0.0
C4522 C 0.51051 0.53529 0.63399 0.0
C4523 C 0.51644 0.55223 0.628 0.0
C4524 C 0.53451 0.56035 0.63047 0.0
C4525 C 0.54678 0.55154 0.63865 0.0
C4526 C 0.54099 0.53467 0.64459 0.0
C4527 C 0.52292 0.5266 0.64239 0.0
H4528 H 0.56077 0.55784 0.64048 0.0
H4529 H 0.38528 0.48079 0.62236 0.0
H4530 H 0.76498 0.1814 0.00941 0.0
H4531 H 0.759 0.19528 0.98105 0.0
H4532 H 0.77109 0.14907 0.94604 0.0
H4533 H 0.77679 0.13519 0.97421 0.0
H4534 H 0.79305 0.18416 0.94578 0.0
H4535 H 0.73281 0.15296 0.93858 0.0
H4536 H 0.703 0.1425 0.9474 0.0
H4537 H 0.69677 0.19828 0.9574 0.0
H4538 H 0.72671 0.20915 0.94901 0.0
H4539 H 0.76152 0.20265 0.85408 0.0
H4540 H 0.77415 0.19272 0.88244 0.0
H4541 H 0.76231 0.2391 0.91731 0.0
H4542 H 0.74946 0.24883 0.88901 0.0
H4543 H 0.74059 0.20367 0.91772 0.0
H4544 H 0.80212 0.23402 0.92369 0.0
H4545 H 0.83224 0.24274 0.91494 0.0
H4546 H 0.83556 0.186 0.90566 0.0
H4547 H 0.80535 0.17689 0.914 0.0
C4548 C 0.76617 0.17431 0.99557 0.0
C4549 C 0.77175 0.15771 0.99359 0.0
C4550 C 0.76254 0.18199 0.97952 0.0
C4551 C 0.76469 0.17306 0.96172 0.0
C4552 C 0.76938 0.15598 0.95978 0.0
C4553 C 0.77279 0.14825 0.97573 0.0
C4554 C 0.76511 0.18294 0.94573 0.0
C4555 C 0.78157 0.18828 0.93935 0.0
C4556 C 0.75009 0.18838 0.93797 0.0
C4557 C 0.73217 0.18191 0.94343 0.0
C4558 C 0.72522 0.16305 0.94294 0.0
C4559 C 0.70825 0.15703 0.94779 0.0
C4560 C 0.69802 0.16972 0.95303 0.0
C4561 C 0.70473 0.18846 0.95339 0.0
C4562 C 0.72171 0.19456 0.94859 0.0
C4563 C 0.76223 0.21096 0.86781 0.0
C4564 C 0.7541 0.22598 0.86982 0.0
C4565 C 0.76965 0.20551 0.88387 0.0
C4566 C 0.76889 0.21514 0.9018 0.0
C4567 C 0.76292 0.23159 0.90349 0.0
C4568 C 0.7554 0.23695 0.88747 0.0
C4569 C 0.76869 0.20529 0.91791 0.0
C4570 C 0.75215 0.19973 0.9242 0.0
C4571 C 0.78358 0.19936 0.92534 0.0
C4572 C 0.80134 0.20476 0.91924 0.0
C4573 C 0.80914 0.22337 0.91946 0.0
C4574 C 0.82628 0.22839 0.91467 0.0
C4575 C 0.83579 0.21493 0.90971 0.0
C4576 C 0.82817 0.19641 0.90947 0.0
C4577 C 0.81104 0.19132 0.91422 0.0
H4578 H 0.84909 0.21885 0.90609 0.0
H4579 H 0.68488 0.16504 0.95675 0.0
H4580 H 0.14791 0.54646 0.18937 0.0
H4581 H 0.13219 0.55297 0.16081 0.0
H4582 H 0.09171 0.50402 0.15953 0.0
H4583 H 0.10724 0.49733 0.18786 0.0
H4584 H 0.10995 0.5066 0.12673 0.0
H4585 H 0.08311 0.54222 0.17335 0.0
H4586 H 0.08234 0.56762 0.19863 0.0
H4587 H 0.10165 0.60689 0.16328 0.0
H4588 H 0.10294 0.58169 0.13793 0.0
H4589 H 0.03259 0.4953 0.066 0.0
H4590 H 0.05426 0.49943 0.09423 0.0
H4591 H 0.07656 0.55455 0.08497 0.0
H4592 H 0.05371 0.55094 0.05813 0.0
H4593 H 0.07496 0.55411 0.11988 0.0
H4594 H 0.09623 0.51591 0.07089 0.0
H4595 H 0.09374 0.48898 0.04611 0.0
H4596 H 0.08178 0.45282 0.08665 0.0
H4597 H 0.08405 0.47945 0.11159 0.0
C4598 C 0.13565 0.53712 0.18293 0.0
C4599 C 0.12887 0.52115 0.19034 0.0
C4600 C 0.1267 0.54097 0.16687 0.0
C4601 C 0.11108 0.52883 0.15832 0.0
C4602 C 0.10391 0.51337 0.16615 0.0
C4603 C 0.11276 0.50956 0.18219 0.0
C4604 C 0.10273 0.53095 0.14019 0.0
C4605 C 0.10237 0.51703 0.12502 0.0
C4606 C 0.0935 0.54499 0.13824 0.0
C4607 C 0.09352 0.56006 0.1539 0.0
C4608 C 0.08756 0.55625 0.1711 0.0
C4609 C 0.08694 0.57063 0.18542 0.0
C4610 C 0.09204 0.58886 0.18261 0.0
C4611 C 0.0978 0.59277 0.16549 0.0
C4612 C 0.09852 0.57845 0.15116 0.0
C4613 C 0.04213 0.50824 0.07026 0.0
C4614 C 0.04261 0.52252 0.0597 0.0
C4615 C 0.05452 0.51053 0.08606 0.0
C4616 C 0.06748 0.52694 0.09088 0.0
C4617 C 0.06696 0.54162 0.08102 0.0
C4618 C 0.0542 0.53951 0.06569 0.0
C4619 C 0.08125 0.52905 0.10667 0.0
C4620 C 0.08295 0.54397 0.12123 0.0
C4621 C 0.0915 0.51571 0.1082 0.0
C4622 C 0.09033 0.49971 0.09312 0.0
C4623 C 0.09304 0.50222 0.0745 0.0
C4624 C 0.09166 0.487 0.06042 0.0
C4625 C 0.0876 0.46921 0.06479 0.0
C4626 C 0.08494 0.46659 0.08326 0.0
C4627 C 0.08633 0.48174 0.09738 0.0
H4628 H 0.08653 0.45746 0.05387 0.0
H4629 H 0.09145 0.59997 0.19367 0.0
H4630 H 0.81153 0.83792 0.47853 0.0
H4631 H 0.80628 0.82595 0.44476 0.0
H4632 H 0.75566 0.84112 0.44094 0.0
H4633 H 0.76088 0.85345 0.47499 0.0
H4634 H 0.75579 0.8053 0.41914 0.0
H4635 H 0.78563 0.86812 0.42533 0.0
H4636 H 0.80837 0.8956 0.43996 0.0
H4637 H 0.84932 0.86825 0.42361 0.0
H4638 H 0.82679 0.84051 0.409 0.0
H4639 H 0.75404 0.79965 0.31619 0.0
H4640 H 0.75243 0.81074 0.34968 0.0
H4641 H 0.80247 0.79699 0.36517 0.0
H4642 H 0.8035 0.78492 0.3321 0.0
H4643 H 0.79978 0.83429 0.38044 0.0
H4644 H 0.76943 0.77093 0.37582 0.0
H4645 H 0.74656 0.74279 0.36376 0.0
H4646 H 0.7059 0.77145 0.37794 0.0
H4647 H 0.72855 0.79985 0.38992 0.0
C4648 C 0.79914 0.83856 0.47067 0.0
C4649 C 0.78667 0.84679 0.47961 0.0
C4650 C 0.79619 0.83173 0.45127 0.0
C4651 C 0.78066 0.83278 0.44021 0.0
C4652 C 0.76776 0.84019 0.44915 0.0
C4653 C 0.77079 0.84726 0.46864 0.0
C4654 C 0.77859 0.82697 0.41923 0.0
C4655 C 0.76516 0.81187 0.41058 0.0
C4656 C 0.79093 0.83538 0.40806 0.0
C4657 C 0.80453 0.85221 0.41617 0.0
C4658 C 0.79949 0.86795 0.42489 0.0
C4659 C 0.81234 0.88357 0.43317 0.0
C4660 C 0.83029 0.88365 0.43275 0.0
C4661 C 0.83541 0.86815 0.42392 0.0
C4662 C 0.8226 0.85249 0.41559 0.0
C4663 C 0.76465 0.7989 0.32675 0.0
C4664 C 0.77905 0.79155 0.32133 0.0
C4665 C 0.76369 0.80522 0.34591 0.0
C4666 C 0.77738 0.80481 0.36 0.0
C4667 C 0.79175 0.79752 0.3546 0.0
C4668 C 0.79238 0.79064 0.3356 0.0
C4669 C 0.77712 0.81238 0.38031 0.0
C4670 C 0.79018 0.82788 0.38887 0.0
C4671 C 0.76433 0.80441 0.3913 0.0
C4672 C 0.75067 0.78758 0.38347 0.0
C4673 C 0.7556 0.77131 0.3761 0.0
C4674 C 0.74268 0.75528 0.36937 0.0
C4675 C 0.72479 0.75535 0.37002 0.0
C4676 C 0.71977 0.77144 0.37741 0.0
C4677 C 0.73264 0.78749 0.38417 0.0
H4678 H 0.71481 0.74291 0.36486 0.0
H4679 H 0.84022 0.89573 0.43924 0.0
H4680 H 0.42794 0.52587 0.82194 0.0
H4681 H 0.44113 0.52603 0.85389 0.0
H4682 H 0.48452 0.50574 0.83195 0.0
H4683 H 0.47089 0.50481 0.79953 0.0
H4684 H 0.47254 0.48828 0.85986 0.0
H4685 H 0.48889 0.55183 0.85135 0.0
H4686 H 0.48293 0.58095 0.8431 0.0
H4687 H 0.4489 0.58363 0.88664 0.0
H4688 H 0.45447 0.55442 0.895 0.0
H4689 H 0.52285 0.50515 0.95124 0.0
H4690 H 0.51278 0.50438 0.91779 0.0
H4691 H 0.46867 0.52747 0.93336 0.0
H4692 H 0.47867 0.52849 0.96665 0.0
H4693 H 0.48362 0.54467 0.90792 0.0
H4694 H 0.46239 0.48196 0.91407 0.0
H4695 H 0.46246 0.45074 0.92078 0.0
H4696 H 0.50071 0.44524 0.88219 0.0
H4697 H 0.5008 0.47646 0.87519 0.0
C4698 C 0.44013 0.52115 0.82377 0.0
C4699 C 0.44829 0.51518 0.80815 0.0
C4700 C 0.44781 0.52153 0.84213 0.0
C4701 C 0.46402 0.51635 0.84529 0.0
C4702 C 0.47207 0.50998 0.82976 0.0
C4703 C 0.46425 0.50939 0.81129 0.0
C4704 C 0.47217 0.51705 0.86488 0.0
C4705 C 0.47539 0.50071 0.87028 0.0
C4706 C 0.47516 0.53313 0.8786 0.0
C4707 C 0.47205 0.55088 0.87375 0.0
C4708 C 0.48008 0.55858 0.85911 0.0
C4709 C 0.47677 0.57511 0.85442 0.0
C4710 C 0.46553 0.58412 0.86432 0.0
C4711 C 0.45761 0.57664 0.87898 0.0
C4712 C 0.46087 0.56012 0.88373 0.0
C4713 C 0.51092 0.50989 0.94753 0.0
C4714 C 0.50156 0.51683 0.96162 0.0
C4715 C 0.50518 0.50944 0.92841 0.0
C4716 C 0.48993 0.5158 0.92309 0.0
C4717 C 0.48051 0.52258 0.93714 0.0
C4718 C 0.48625 0.5231 0.95619 0.0
C4719 C 0.48392 0.51583 0.90292 0.0
C4720 C 0.4811 0.53231 0.89743 0.0
C4721 C 0.48088 0.49981 0.88919 0.0
C4722 C 0.48175 0.48158 0.89427 0.0
C4723 C 0.47099 0.47418 0.90721 0.0
C4724 C 0.47092 0.45645 0.91098 0.0
C4725 C 0.48156 0.446 0.9019 0.0
C4726 C 0.49243 0.45333 0.88917 0.0
C4727 C 0.49248 0.47102 0.88527 0.0
H4728 H 0.4814 0.43222 0.90475 0.0
H4729 H 0.46298 0.5969 0.86065 0.0
H4730 H 0.76066 0.13211 0.09421 0.0
H4731 H 0.7586 0.14932 0.12498 0.0
H4732 H 0.76088 0.19864 0.09992 0.0
H4733 H 0.76406 0.18155 0.06937 0.0
H4734 H 0.78711 0.20301 0.12685 0.0
H4735 H 0.72421 0.17835 0.12023 0.0
H4736 H 0.69746 0.15334 0.11351 0.0
H4737 H 0.71603 0.12921 0.16015 0.0
H4738 H 0.74303 0.15395 0.16698 0.0
H4739 H 0.75871 0.25797 0.20368 0.0
H4740 H 0.75807 0.23745 0.17413 0.0
H4741 H 0.78878 0.20569 0.20344 0.0
H4742 H 0.79102 0.22708 0.23275 0.0
H4743 H 0.74811 0.19076 0.17653 0.0
H4744 H 0.81132 0.21648 0.18284 0.0
H4745 H 0.8374 0.24222 0.18923 0.0
H4746 H 0.81766 0.26486 0.14203 0.0
H4747 H 0.79109 0.23958 0.1358 0.0
C4748 C 0.75997 0.14645 0.09523 0.0
C4749 C 0.76262 0.15575 0.07983 0.0
C4750 C 0.75879 0.15625 0.11273 0.0
C4751 C 0.75974 0.17524 0.11464 0.0
C4752 C 0.7603 0.18401 0.09864 0.0
C4753 C 0.76199 0.17431 0.08128 0.0
C4754 C 0.76308 0.18638 0.13352 0.0
C4755 C 0.77844 0.20047 0.13763 0.0
C4756 C 0.75217 0.18247 0.14772 0.0
C4757 C 0.7357 0.16791 0.144 0.0
C4758 C 0.72263 0.16766 0.129 0.0
C4759 C 0.70742 0.15353 0.12517 0.0
C4760 C 0.70507 0.13966 0.13637 0.0
C4761 C 0.71788 0.13995 0.15148 0.0
C4762 C 0.73313 0.15404 0.15535 0.0
C4763 C 0.76581 0.247 0.20376 0.0
C4764 C 0.77513 0.24428 0.22044 0.0
C4765 C 0.7653 0.23526 0.18697 0.0
C4766 C 0.77358 0.22041 0.18687 0.0
C4767 C 0.78264 0.21739 0.20343 0.0
C4768 C 0.7838 0.22956 0.22008 0.0
C4769 C 0.77171 0.20753 0.16944 0.0
C4770 C 0.75674 0.1931 0.16567 0.0
C4771 C 0.78292 0.21117 0.15552 0.0
C4772 C 0.79898 0.22634 0.15915 0.0
C4773 C 0.81232 0.22714 0.17408 0.0
C4774 C 0.82724 0.24162 0.17762 0.0
C4775 C 0.82913 0.25524 0.16612 0.0
C4776 C 0.81613 0.25436 0.151 0.0
C4777 C 0.80112 0.23997 0.14749 0.0
H4778 H 0.84071 0.26642 0.16886 0.0
H4779 H 0.69331 0.12871 0.13335 0.0
H4780 H 0.11382 0.53217 0.27268 0.0
H4781 H 0.10103 0.53803 0.30169 0.0
H4782 H 0.15101 0.53942 0.33437 0.0
H4783 H 0.16368 0.53243 0.30516 0.0
H4784 H 0.12629 0.51421 0.3424 0.0
H4785 H 0.13055 0.57775 0.33733 0.0
H4786 H 0.12753 0.60413 0.32134 0.0
H4787 H 0.07129 0.58351 0.30987 0.0
H4788 H 0.07397 0.55692 0.32562 0.0
H4789 H 0.09708 0.54507 0.42912 0.0
H4790 H 0.10994 0.53321 0.40154 0.0
H4791 H 0.0596 0.52526 0.36697 0.0
H4792 H 0.0468 0.53727 0.39464 0.0
H4793 H 0.08481 0.5538 0.36028 0.0
H4794 H 0.08063 0.49019 0.36472 0.0
H4795 H 0.08369 0.46292 0.37917 0.0
H4796 H 0.13988 0.48373 0.39146 0.0
H4797 H 0.13714 0.51119 0.37724 0.0
C4798 C 0.12221 0.53403 0.28603 0.0
C4799 C 0.13958 0.53131 0.28674 0.0
C4800 C 0.11495 0.5377 0.30262 0.0
C4801 C 0.12511 0.53917 0.32013 0.0
C4802 C 0.14299 0.53821 0.32089 0.0
C4803 C 0.15016 0.53409 0.30424 0.0
C4804 C 0.11612 0.53794 0.33707 0.0
C4805 C 0.11754 0.52316 0.34666 0.0
C4806 C 0.10415 0.54911 0.3419 0.0
C4807 C 0.10249 0.56527 0.3326 0.0
C4808 C 0.11755 0.57878 0.33132 0.0
C4809 C 0.11589 0.5938 0.32231 0.0
C4810 C 0.09923 0.59548 0.31457 0.0
C4811 C 0.08418 0.58219 0.31588 0.0
C4812 C 0.08576 0.56718 0.3249 0.0
C4813 C 0.08868 0.54004 0.41575 0.0
C4814 C 0.07128 0.54244 0.41351 0.0
C4815 C 0.09591 0.53306 0.40011 0.0
C4816 C 0.08572 0.5287 0.38227 0.0
C4817 C 0.06759 0.52866 0.38069 0.0
C4818 C 0.06037 0.53564 0.39635 0.0
C4819 C 0.09494 0.53 0.36552 0.0
C4820 C 0.09362 0.5449 0.35604 0.0
C4821 C 0.10705 0.51901 0.36086 0.0
C4822 C 0.10864 0.50284 0.37008 0.0
C4823 C 0.09361 0.48906 0.37072 0.0
C4824 C 0.0953 0.47353 0.37879 0.0
C4825 C 0.11196 0.47161 0.38626 0.0
C4826 C 0.12698 0.48523 0.38568 0.0
C4827 C 0.12536 0.50077 0.37759 0.0
H4828 H 0.11325 0.45956 0.39247 0.0
H4829 H 0.09799 0.60709 0.30757 0.0
H4830 H 0.76427 0.86499 0.58627 0.0
H4831 H 0.76096 0.85412 0.61667 0.0
H4832 H 0.79204 0.8141 0.60176 0.0
H4833 H 0.79546 0.82492 0.57151 0.0
H4834 H 0.7639 0.79948 0.61785 0.0
H4835 H 0.81035 0.85335 0.63114 0.0
H4836 H 0.82548 0.88583 0.63343 0.0
H4837 H 0.78827 0.90234 0.66904 0.0
H4838 H 0.77271 0.86997 0.6667 0.0
H4839 H 0.78936 0.77665 0.70699 0.0
H4840 H 0.78825 0.7872 0.67646 0.0
H4841 H 0.7591 0.82726 0.69718 0.0
H4842 H 0.76033 0.8168 0.7281 0.0
H4843 H 0.78471 0.8423 0.67831 0.0
H4844 H 0.73689 0.78777 0.66201 0.0
H4845 H 0.72224 0.755 0.65866 0.0
H4846 H 0.76429 0.73986 0.62972 0.0
H4847 H 0.77883 0.77261 0.63228 0.0
C4848 C 0.77002 0.85357 0.58927 0.0
C4849 C 0.78005 0.84575 0.5764 0.0
C4850 C 0.76835 0.84756 0.60678 0.0
C4851 C 0.77652 0.83351 0.61167 0.0
C4852 C 0.78572 0.82505 0.5984 0.0
C4853 C 0.78758 0.83118 0.58104 0.0
C4854 C 0.77551 0.82746 0.63051 0.0
C4855 C 0.76859 0.80886 0.63105 0.0
C4856 C 0.78135 0.8397 0.64782 0.0
C4857 C 0.79017 0.85924 0.64847 0.0
C4858 C 0.8052 0.86392 0.63919 0.0
C4859 C 0.8139 0.88231 0.64057 0.0
C4860 C 0.8078 0.89614 0.65131 0.0
C4861 C 0.79295 0.89161 0.66067 0.0
C4862 C 0.78417 0.87325 0.65931 0.0
C4863 C 0.78248 0.78756 0.70505 0.0
C4864 C 0.77467 0.7957 0.71995 0.0
C4865 C 0.78181 0.79354 0.68748 0.0
C4866 C 0.77323 0.80776 0.68427 0.0
C4867 C 0.76565 0.81614 0.69922 0.0
C4868 C 0.76636 0.81018 0.71689 0.0
C4869 C 0.77296 0.81435 0.6656 0.0
C4870 C 0.77979 0.83301 0.66509 0.0
C4871 C 0.7672 0.80219 0.64827 0.0
C4872 C 0.75901 0.78255 0.64754 0.0
C4873 C 0.74306 0.77742 0.65507 0.0
C4874 C 0.73472 0.75887 0.65319 0.0
C4875 C 0.74243 0.74534 0.64419 0.0
C4876 C 0.75837 0.75034 0.63678 0.0
C4877 C 0.76658 0.7689 0.63829 0.0
H4878 H 0.736 0.73097 0.64287 0.0
H4879 H 0.8146 0.91036 0.65242 0.0
H4880 H 0.73223 0.42794 0.50088 0.0
H4881 H 0.70319 0.43508 0.49408 0.0
H4882 H 0.7284 0.48971 0.48635 0.0
H4883 H 0.75736 0.48292 0.49349 0.0
H4884 H 0.71046 0.48586 0.51888 0.0
H4885 H 0.70102 0.46306 0.45042 0.0
H4886 H 0.70032 0.43758 0.42457 0.0
H4887 H 0.65941 0.40302 0.44755 0.0
H4888 H 0.65998 0.42825 0.47363 0.0
H4889 H 0.6411 0.52671 0.52728 0.0
H4890 H 0.66421 0.51708 0.50985 0.0
H4891 H 0.63519 0.46062 0.50209 0.0
H4892 H 0.61169 0.47082 0.51807 0.0
H4893 H 0.65449 0.46387 0.47519 0.0
H4894 H 0.6629 0.47967 0.54205 0.0
H4895 H 0.66516 0.49791 0.57376 0.0
H4896 H 0.70886 0.5373 0.56102 0.0
H4897 H 0.70657 0.51956 0.52903 0.0
C4898 C 0.73152 0.44131 0.49728 0.0
C4899 C 0.74685 0.45517 0.49836 0.0
C4900 C 0.715 0.44523 0.49311 0.0
C4901 C 0.7139 0.46287 0.48977 0.0
C4902 C 0.72921 0.476 0.48883 0.0
C4903 C 0.74566 0.4722 0.49322 0.0
C4904 C 0.69773 0.46923 0.49249 0.0
C4905 C 0.69832 0.48156 0.50907 0.0
C4906 C 0.68179 0.46221 0.48038 0.0
C4907 C 0.68051 0.44756 0.46393 0.0
C4908 C 0.69182 0.45005 0.4499 0.0
C4909 C 0.69148 0.43564 0.43524 0.0
C4910 C 0.67983 0.41869 0.43442 0.0
C4911 C 0.6684 0.41617 0.44818 0.0
C4912 C 0.66867 0.43054 0.46286 0.0
C4913 C 0.63961 0.51236 0.52137 0.0
C4914 C 0.62535 0.49908 0.52471 0.0
C4915 C 0.65263 0.50689 0.51138 0.0
C4916 C 0.65162 0.48808 0.50538 0.0
C4917 C 0.63634 0.47516 0.5069 0.0
C4918 C 0.62318 0.48077 0.51643 0.0
C4919 C 0.66755 0.48166 0.50102 0.0
C4920 C 0.66679 0.46881 0.48462 0.0
C4921 C 0.68331 0.48743 0.51387 0.0
C4922 C 0.68435 0.49844 0.53298 0.0
C4923 C 0.67282 0.49236 0.54589 0.0
C4924 C 0.67413 0.50259 0.56394 0.0
C4925 C 0.6871 0.51879 0.56938 0.0
C4926 C 0.69877 0.5248 0.55676 0.0
C4927 C 0.69743 0.51469 0.53865 0.0
H4928 H 0.68814 0.52666 0.58339 0.0
H4929 H 0.67966 0.40752 0.42313 0.0
H4930 H 0.19349 0.12417 0.46288 0.0
H4931 H 0.16407 0.10865 0.46878 0.0
H4932 H 0.18351 0.11214 0.52767 0.0
H4933 H 0.21286 0.12815 0.52197 0.0
H4934 H 0.16419 0.0761 0.50881 0.0
H4935 H 0.15792 0.13844 0.52001 0.0
H4936 H 0.1601 0.16984 0.51275 0.0
H4937 H 0.1242 0.14861 0.46172 0.0
H4938 H 0.12197 0.11703 0.46859 0.0
H4939 H 0.07988 0.04142 0.5352 0.0
H4940 H 0.10923 0.05983 0.53353 0.0
H4941 H 0.0907 0.07175 0.47902 0.0
H4942 H 0.06097 0.05428 0.48132 0.0
H4943 H 0.1104 0.10118 0.49802 0.0
H4944 H 0.11789 0.03855 0.48579 0.0
H4945 H 0.1163 0.00707 0.4927 0.0
H4946 H 0.15014 0.02849 0.54505 0.0
H4947 H 0.15191 0.06011 0.53849 0.0
C4948 C 0.19143 0.12177 0.4771 0.0
C4949 C 0.20537 0.12745 0.49198 0.0
C4950 C 0.17465 0.11294 0.48046 0.0
C4951 C 0.17166 0.10932 0.49866 0.0
C4952 C 0.18558 0.11488 0.51354 0.0
C4953 C 0.20227 0.1241 0.51029 0.0
C4954 C 0.15404 0.09927 0.50191 0.0
C4955 C 0.15243 0.08165 0.50674 0.0
C4956 C 0.13874 0.10643 0.49885 0.0
C4957 C 0.1399 0.12537 0.49473 0.0
C4958 C 0.15059 0.14046 0.50717 0.0
C4959 C 0.15181 0.15829 0.50314 0.0
C4960 C 0.14233 0.16121 0.48676 0.0
C4961 C 0.13155 0.14632 0.4744 0.0
C4962 C 0.13028 0.12845 0.47837 0.0
C4963 C 0.08216 0.04783 0.52278 0.0
C4964 C 0.06828 0.04628 0.50827 0.0
C4965 C 0.09895 0.05832 0.52181 0.0
C4966 C 0.10237 0.0669 0.50595 0.0
C4967 C 0.08845 0.06527 0.49139 0.0
C4968 C 0.07152 0.0552 0.49263 0.0
C4969 C 0.12036 0.0777 0.50457 0.0
C4970 C 0.1221 0.09554 0.50013 0.0
C4971 C 0.13579 0.07068 0.50789 0.0
C4972 C 0.13493 0.05168 0.51171 0.0
C4973 C 0.12493 0.03654 0.49881 0.0
C4974 C 0.12399 0.01868 0.50266 0.0
C4975 C 0.13304 0.01579 0.51933 0.0
C4976 C 0.14312 0.03075 0.53215 0.0
C4977 C 0.14414 0.04864 0.52835 0.0
H4978 H 0.13227 0.00195 0.52229 0.0
H4979 H 0.1433 0.17503 0.48366 0.0
H4980 H 0.14686 0.97535 0.79553 0.0
H4981 H 0.16094 0.94904 0.79183 0.0
H4982 H 0.19949 0.97842 0.76114 0.0
H4983 H 0.18499 0.00475 0.7645 0.0
H4984 H 0.18786 0.94277 0.74525 0.0
H4985 H 0.20882 0.97608 0.80846 0.0
H4986 H 0.20477 0.99046 0.84024 0.0
H4987 H 0.17718 0.93827 0.85128 0.0
H4988 H 0.18086 0.9236 0.81944 0.0
H4989 H 0.25399 0.89584 0.74826 0.0
H4990 H 0.24024 0.92079 0.76054 0.0
H4991 H 0.19952 0.88173 0.77924 0.0
H4992 H 0.21341 0.85661 0.76695 0.0
H4993 H 0.21052 0.92044 0.80266 0.0
H4994 H 0.18864 0.88712 0.74026 0.0
H4995 H 0.19109 0.87222 0.70816 0.0
H4996 H 0.21822 0.9239 0.69543 0.0
H4997 H 0.2163 0.93903 0.72765 0.0
C4998 C 0.15818 0.976 0.78773 0.0
C4999 C 0.16491 0.99186 0.7802 0.0
C5000 C 0.16629 0.9611 0.7858 0.0
C5001 C 0.18149 0.96198 0.77663 0.0
C5002 C 0.18783 0.97758 0.76841 0.0
C5003 C 0.17957 0.99251 0.77021 0.0
C5004 C 0.19078 0.94664 0.7757 0.0
C5005 C 0.19301 0.93807 0.75781 0.0
C5006 C 0.19684 0.94005 0.79214 0.0
C5007 C 0.195 0.94877 0.81149 0.0
C5008 C 0.20181 0.96768 0.81762 0.0
C5009 C 0.19958 0.97588 0.83565 0.0
C5010 C 0.19068 0.9653 0.84775 0.0
C5011 C 0.18406 0.94646 0.84188 0.0
C5012 C 0.18623 0.93818 0.82385 0.0
C5013 C 0.24255 0.89272 0.75572 0.0
C5014 C 0.23466 0.87446 0.75666 0.0
C5015 C 0.23471 0.90692 0.7627 0.0
C5016 C 0.21877 0.903 0.77052 0.0
C5017 C 0.21186 0.88497 0.77329 0.0
C5018 C 0.21976 0.87068 0.76628 0.0
C5019 C 0.20796 0.91703 0.77223 0.0
C5020 C 0.20534 0.92521 0.79016 0.0
C5021 C 0.20129 0.9232 0.75584 0.0
C5022 C 0.20256 0.91415 0.73647 0.0
C5023 C 0.19534 0.89526 0.73071 0.0
C5024 C 0.19658 0.88678 0.71247 0.0
C5025 C 0.20485 0.89709 0.69978 0.0
C5026 C 0.21186 0.91592 0.70529 0.0
C5027 C 0.21071 0.92445 0.72355 0.0
H5028 H 0.20578 0.89051 0.68565 0.0
H5029 H 0.18895 0.97168 0.86169 0.0
H5030 H 0.338 0.98736 0.0082 0.0
H5031 H 0.37016 0.99502 0.00874 0.0
H5032 H 0.36879 0.94032 0.98007 0.0
H5033 H 0.33656 0.9329 0.97894 0.0
H5034 H 0.3905 0.95344 0.01908 0.0
H5035 H 0.38259 0.96719 0.95603 0.0
H5036 H 0.36506 0.97958 0.9326 0.0
H5037 H 0.38135 0.03345 0.96587 0.0
H5038 H 0.3988 0.02129 0.98966 0.0
H5039 H 0.4828 0.9805 0.00853 0.0
H5040 H 0.4518 0.96653 0.00884 0.0
H5041 H 0.44155 0.02 0.02773 0.0
H5042 H 0.47278 0.03404 0.02748 0.0
H5043 H 0.42602 0.00304 0.99082 0.0
H5044 H 0.43383 0.989 0.05404 0.0
H5045 H 0.45018 0.97641 0.0781 0.0
H5046 H 0.43366 0.92242 0.04524 0.0
H5047 H 0.41752 0.9348 0.02056 0.0
C5048 C 0.34453 0.97739 0.00115 0.0
C5049 C 0.33524 0.95956 0.99378 0.0
C5050 C 0.36277 0.98159 0.00178 0.0
C5051 C 0.37149 0.96792 0.99493 0.0
C5052 C 0.36203 0.95073 0.98574 0.0
C5053 C 0.34378 0.94663 0.98494 0.0
C5054 C 0.3906 0.9717 0.99836 0.0
C5055 C 0.39849 0.96394 0.01268 0.0
C5056 C 0.40051 0.98548 0.98998 0.0
C5057 C 0.39207 0.99336 0.97458 0.0
C5058 C 0.38259 0.98172 0.95824 0.0
C5059 C 0.37258 0.98867 0.94496 0.0
C5060 C 0.37208 0.00729 0.94775 0.0
C5061 C 0.38179 0.01903 0.96371 0.0
C5062 C 0.3918 0.01214 0.97707 0.0
C5063 C 0.47416 0.98906 0.01392 0.0
C5064 C 0.47978 0.00816 0.01813 0.0
C5065 C 0.4565 0.98112 0.01394 0.0
C5066 C 0.44467 0.99242 0.01807 0.0
C5067 C 0.45074 0.01128 0.02448 0.0
C5068 C 0.46841 0.0192 0.02444 0.0
C5069 C 0.42595 0.98524 0.01206 0.0
C5070 C 0.4182 0.99229 0.99707 0.0
C5071 C 0.41629 0.97069 0.01976 0.0
C5072 C 0.42455 0.96287 0.03535 0.0
C5073 C 0.43367 0.97443 0.0519 0.0
C5074 C 0.44297 0.96734 0.06564 0.0
C5075 C 0.44305 0.94863 0.06322 0.0
C5076 C 0.43363 0.93693 0.04709 0.0
C5077 C 0.42438 0.94398 0.0332 0.0
H5078 H 0.45037 0.94321 0.07385 0.0
H5079 H 0.36418 0.01262 0.93755 0.0
H5080 H 0.84482 0.56253 0.83008 0.0
H5081 H 0.83754 0.59067 0.82199 0.0
H5082 H 0.82692 0.56653 0.76287 0.0
H5083 H 0.83484 0.53836 0.7708 0.0
H5084 H 0.85122 0.60204 0.77145 0.0
H5085 H 0.79224 0.57122 0.78145 0.0
H5086 H 0.77693 0.55048 0.80134 0.0
H5087 H 0.79488 0.59204 0.8504 0.0
H5088 H 0.81049 0.61296 0.83076 0.0
H5089 H 0.80033 0.65237 0.72583 0.0
H5090 H 0.8057 0.62736 0.74247 0.0
H5091 H 0.82829 0.66645 0.79281 0.0
H5092 H 0.82307 0.69167 0.77615 0.0
H5093 H 0.80015 0.6262 0.79295 0.0
H5094 H 0.858 0.65861 0.77944 0.0
H5095 H 0.8759 0.67535 0.75817 0.0
H5096 H 0.86125 0.62798 0.71456 0.0
H5097 H 0.84298 0.61108 0.73549 0.0
C5098 C 0.84018 0.5629 0.81547 0.0
C5099 C 0.84038 0.54845 0.801 0.0
C5100 C 0.83642 0.57907 0.81085 0.0
C5101 C 0.83214 0.58055 0.79187 0.0
C5102 C 0.83061 0.56553 0.77755 0.0
C5103 C 0.83466 0.54942 0.78212 0.0
C5104 C 0.82877 0.59776 0.78707 0.0
C5105 C 0.84014 0.60742 0.77615 0.0
C5106 C 0.81444 0.60456 0.79355 0.0
C5107 C 0.80222 0.59377 0.8046 0.0
C5108 C 0.79252 0.57609 0.7964 0.0
C5109 C 0.78398 0.56423 0.80766 0.0
C5110 C 0.78489 0.56997 0.82712 0.0
C5111 C 0.79411 0.58768 0.8353 0.0
C5112 C 0.80272 0.5996 0.8241 0.0
C5113 C 0.80661 0.65559 0.74037 0.0
C5114 C 0.81176 0.67379 0.74966 0.0
C5115 C 0.8093 0.64138 0.74991 0.0
C5116 C 0.81718 0.64529 0.76877 0.0
C5117 C 0.82195 0.66338 0.7783 0.0
C5118 C 0.81925 0.67764 0.76874 0.0
C5119 C 0.82262 0.63052 0.77725 0.0
C5120 C 0.81154 0.62115 0.78872 0.0
C5121 C 0.83726 0.62391 0.77122 0.0
C5122 C 0.84905 0.63363 0.75899 0.0
C5123 C 0.85855 0.65179 0.76529 0.0
C5124 C 0.86875 0.66131 0.7533 0.0
C5125 C 0.86969 0.65275 0.73501 0.0
C5126 C 0.86051 0.6346 0.72873 0.0
C5127 C 0.85025 0.62503 0.74066 0.0
H5128 H 0.87754 0.66016 0.72572 0.0
H5129 H 0.77848 0.56067 0.83586 0.0
H5130 H 0.80153 0.62847 0.03447 0.0
H5131 H 0.82778 0.6148 0.03559 0.0
H5132 H 0.83758 0.62913 0.98088 0.0
H5133 H 0.81193 0.64335 0.98003 0.0
H5134 H 0.83813 0.59143 0.98523 0.0
H5135 H 0.86356 0.65313 0.01276 0.0
H5136 H 0.86651 0.68246 0.03408 0.0
H5137 H 0.87431 0.65579 0.08234 0.0
H5138 H 0.87103 0.62619 0.06131 0.0
H5139 H 0.93046 0.57644 0.00538 0.0
H5140 H 0.90584 0.58992 0.99454 0.0
H5141 H 0.87819 0.57268 0.04042 0.0
H5142 H 0.90236 0.5587 0.05103 0.0
H5143 H 0.88926 0.61459 0.03542 0.0
H5144 H 0.85934 0.55178 0.00601 0.0
H5145 H 0.85524 0.52299 0.98347 0.0
H5146 H 0.85668 0.5533 0.937 0.0
H5147 H 0.86105 0.58233 0.95933 0.0
C5148 C 0.8094 0.62876 0.02281 0.0
C5149 C 0.80492 0.63704 0.00728 0.0
C5150 C 0.82431 0.621 0.02343 0.0
C5151 C 0.83453 0.62106 0.0083 0.0
C5152 C 0.82985 0.62904 0.99266 0.0
C5153 C 0.81531 0.63722 0.99228 0.0
C5154 C 0.85007 0.61263 0.00881 0.0
C5155 C 0.84947 0.59662 0.996 0.0
C5156 C 0.86485 0.61961 0.02272 0.0
C5157 C 0.86682 0.63738 0.03545 0.0
C5158 C 0.86569 0.65346 0.02792 0.0
C5159 C 0.86746 0.67015 0.03996 0.0
C5160 C 0.87054 0.67098 0.05956 0.0
C5161 C 0.87189 0.65512 0.06715 0.0
C5162 C 0.87007 0.63838 0.05518 0.0
C5163 C 0.91892 0.57507 0.01286 0.0
C5164 C 0.91843 0.56666 0.0292 0.0
C5165 C 0.90491 0.58279 0.00664 0.0
C5166 C 0.89027 0.58218 0.01668 0.0
C5167 C 0.88942 0.57319 0.0325 0.0
C5168 C 0.9033 0.56537 0.03863 0.0
C5169 C 0.87689 0.59288 0.01248 0.0
C5170 C 0.87804 0.60953 0.02448 0.0
C5171 C 0.86274 0.58658 0.99769 0.0
C5172 C 0.86094 0.56925 0.98437 0.0
C5173 C 0.85915 0.55235 0.99102 0.0
C5174 C 0.85666 0.53597 0.97827 0.0
C5175 C 0.85581 0.53632 0.95882 0.0
C5176 C 0.85742 0.55306 0.95207 0.0
C5177 C 0.85993 0.56947 0.96477 0.0
H5178 H 0.85383 0.52363 0.94898 0.0
H5179 H 0.87192 0.68392 0.06886 0.0
H5180 H 0.1607 0.07708 0.76012 0.0
H5181 H 0.1778 0.10665 0.75456 0.0
H5182 H 0.19355 0.12299 0.81464 0.0
H5183 H 0.17675 0.09351 0.8203 0.0
H5184 H 0.18121 0.14982 0.79692 0.0
H5185 H 0.22159 0.10885 0.78739 0.0
H5186 H 0.23105 0.08171 0.77195 0.0
H5187 H 0.22531 0.10029 0.71829 0.0
H5188 H 0.21551 0.12739 0.73337 0.0
H5189 H 0.24812 0.22966 0.80378 0.0
H5190 H 0.23044 0.19944 0.80628 0.0
H5191 H 0.23173 0.18147 0.74676 0.0
H5192 H 0.25103 0.21097 0.74494 0.0
H5193 H 0.23328 0.15482 0.76157 0.0
H5194 H 0.19372 0.19576 0.7692 0.0
H5195 H 0.18267 0.22258 0.78287 0.0
H5196 H 0.18418 0.20427 0.83689 0.0
H5197 H 0.19548 0.17751 0.82363 0.0
C5198 C 0.1678 0.08699 0.77214 0.0
C5199 C 0.16742 0.08293 0.79066 0.0
C5200 C 0.17762 0.10383 0.76892 0.0
C5201 C 0.18702 0.11696 0.78419 0.0
C5202 C 0.18643 0.11303 0.80266 0.0
C5203 C 0.17687 0.09614 0.80587 0.0
C5204 C 0.1974 0.13495 0.78113 0.0
C5205 C 0.19269 0.151 0.7893 0.0
C5206 C 0.21191 0.1364 0.77054 0.0
C5207 C 0.21758 0.12 0.76147 0.0
C5208 C 0.22214 0.10703 0.77226 0.0
C5209 C 0.2276 0.09168 0.76358 0.0
C5210 C 0.22872 0.08924 0.74414 0.0
C5211 C 0.22439 0.10217 0.73334 0.0
C5212 C 0.21887 0.11751 0.74194 0.0
C5213 C 0.24472 0.21912 0.79134 0.0
C5214 C 0.2508 0.22259 0.77417 0.0
C5215 C 0.23438 0.20192 0.79266 0.0
C5216 C 0.22909 0.18818 0.77656 0.0
C5217 C 0.23548 0.19169 0.75944 0.0
C5218 C 0.24652 0.20856 0.75838 0.0
C5219 C 0.21732 0.17006 0.7776 0.0
C5220 C 0.2217 0.15388 0.76901 0.0
C5221 C 0.2022 0.1685 0.78743 0.0
C5222 C 0.19559 0.18471 0.79545 0.0
C5223 C 0.19182 0.19753 0.78403 0.0
C5224 C 0.18549 0.21271 0.7917 0.0
C5225 C 0.18275 0.21514 0.81074 0.0
C5226 C 0.18632 0.20239 0.82215 0.0
C5227 C 0.19268 0.18721 0.81456 0.0
H5228 H 0.17783 0.22689 0.81664 0.0
H5229 H 0.23299 0.07737 0.73745 0.0
H5230 H 0.33252 0.97126 0.28881 0.0
H5231 H 0.32169 0.93811 0.28531 0.0
H5232 H 0.37193 0.92972 0.26908 0.0
H5233 H 0.38295 0.96319 0.27274 0.0
H5234 H 0.34109 0.90768 0.24723 0.0
H5235 H 0.36598 0.92616 0.31158 0.0
H5236 H 0.37171 0.94427 0.34366 0.0
H5237 H 0.3171 0.92676 0.35119 0.0
H5238 H 0.31088 0.9089 0.31898 0.0
H5239 H 0.31474 0.81443 0.25829 0.0
H5240 H 0.33115 0.8458 0.2598 0.0
H5241 H 0.28736 0.86627 0.28065 0.0
H5242 H 0.2706 0.83481 0.27884 0.0
H5243 H 0.32008 0.88113 0.30267 0.0
H5244 H 0.29374 0.87005 0.2378 0.0
H5245 H 0.28605 0.85665 0.204 0.0
H5246 H 0.3412 0.86291 0.19761 0.0
H5247 H 0.34924 0.8761 0.23141 0.0
C5248 C 0.34103 0.96225 0.28402 0.0
C5249 C 0.3585 0.96934 0.28118 0.0
C5250 C 0.335 0.94352 0.28238 0.0
C5251 C 0.34644 0.93192 0.27786 0.0
C5252 C 0.3633 0.93884 0.27313 0.0
C5253 C 0.3694 0.95772 0.27483 0.0
C5254 C 0.34015 0.91242 0.27726 0.0
C5255 C 0.33696 0.90165 0.25941 0.0
C5256 C 0.33432 0.9052 0.29329 0.0
C5257 C 0.33794 0.91624 0.31268 0.0
C5258 C 0.35512 0.92633 0.31994 0.0
C5259 C 0.35847 0.93653 0.3382 0.0
C5260 C 0.34478 0.93668 0.34945 0.0
C5261 C 0.3277 0.92664 0.34246 0.0
C5262 C 0.32425 0.91647 0.32418 0.0
C5263 C 0.30838 0.82557 0.26262 0.0
C5264 C 0.29142 0.82231 0.26831 0.0
C5265 C 0.31782 0.8434 0.26366 0.0
C5266 C 0.31034 0.85802 0.2704 0.0
C5267 C 0.2932 0.85491 0.27551 0.0
C5268 C 0.28366 0.83705 0.27431 0.0
C5269 C 0.32065 0.87665 0.27248 0.0
C5270 C 0.32462 0.88712 0.29062 0.0
C5271 C 0.32695 0.88383 0.25674 0.0
C5272 C 0.32207 0.87388 0.23713 0.0
C5273 C 0.30421 0.86817 0.22929 0.0
C5274 C 0.2998 0.86072 0.21013 0.0
C5275 C 0.31317 0.85903 0.19875 0.0
C5276 C 0.33091 0.86427 0.20651 0.0
C5277 C 0.33539 0.87169 0.22564 0.0
H5278 H 0.30986 0.85395 0.18384 0.0
H5279 H 0.34742 0.94455 0.3636 0.0
H5280 H 0.54671 0.34892 0.60069 0.0
H5281 H 0.54328 0.37735 0.58909 0.0
H5282 H 0.53727 0.34947 0.53159 0.0
H5283 H 0.5399 0.3207 0.54326 0.0
H5284 H 0.55912 0.38589 0.53744 0.0
H5285 H 0.50221 0.35586 0.54798 0.0
H5286 H 0.47955 0.34013 0.56545 0.0
H5287 H 0.48757 0.38875 0.60706 0.0
H5288 H 0.51059 0.40469 0.59003 0.0
H5289 H 0.52384 0.45598 0.49641 0.0
H5290 H 0.52739 0.4263 0.50516 0.0
H5291 H 0.53212 0.44926 0.56419 0.0
H5292 H 0.52931 0.47909 0.55551 0.0
H5293 H 0.50943 0.41392 0.55582 0.0
H5294 H 0.56883 0.44128 0.54895 0.0
H5295 H 0.59513 0.45509 0.5357 0.0
H5296 H 0.58294 0.41119 0.4881 0.0
H5297 H 0.55662 0.39672 0.50173 0.0
C5298 C 0.5452 0.34896 0.58556 0.0
C5299 C 0.54407 0.33258 0.57293 0.0
C5300 C 0.54296 0.36521 0.57892 0.0
C5301 C 0.53982 0.36569 0.5594 0.0
C5302 C 0.53962 0.34958 0.5467 0.0
C5303 C 0.54132 0.33314 0.55338 0.0
C5304 C 0.53633 0.38282 0.55237 0.0
C5305 C 0.548 0.39175 0.54114 0.0
C5306 C 0.52207 0.3909 0.55745 0.0
C5307 C 0.5083 0.38141 0.56784 0.0
C5308 C 0.49931 0.36315 0.56098 0.0
C5309 C 0.48637 0.3542 0.57078 0.0
C5310 C 0.48216 0.36342 0.58739 0.0
C5311 C 0.49088 0.38162 0.59421 0.0
C5312 C 0.50388 0.39062 0.58449 0.0
C5313 C 0.52568 0.45473 0.51126 0.0
C5314 C 0.52642 0.47009 0.52522 0.0
C5315 C 0.52775 0.4377 0.51629 0.0
C5316 C 0.5301 0.43531 0.53543 0.0
C5317 C 0.53037 0.45054 0.54934 0.0
C5318 C 0.52882 0.46769 0.54434 0.0
C5319 C 0.53236 0.4171 0.54096 0.0
C5320 C 0.5204 0.40793 0.5519 0.0
C5321 C 0.54629 0.40868 0.53557 0.0
C5322 C 0.56064 0.41818 0.52613 0.0
C5323 C 0.57155 0.43479 0.53545 0.0
C5324 C 0.58657 0.44266 0.52789 0.0
C5325 C 0.59067 0.43419 0.51078 0.0
C5326 C 0.57969 0.4178 0.50126 0.0
C5327 C 0.56477 0.4097 0.50896 0.0
H5328 H 0.60244 0.4401 0.50496 0.0
H5329 H 0.47211 0.35647 0.59495 0.0
H5330 H 0.46388 0.77228 0.36742 0.0
H5331 H 0.43625 0.77283 0.3488 0.0
H5332 H 0.4069 0.75116 0.39173 0.0
H5333 H 0.43476 0.74992 0.41028 0.0
H5334 H 0.39091 0.73467 0.35727 0.0
H5335 H 0.41386 0.7981 0.3859 0.0
H5336 H 0.43695 0.8267 0.39384 0.0
H5337 H 0.4392 0.8288 0.33469 0.0
H5338 H 0.41627 0.8001 0.32641 0.0
H5339 H 0.30909 0.75312 0.31975 0.0
H5340 H 0.33586 0.75106 0.33931 0.0
H5341 H 0.36795 0.7783 0.30139 0.0
H5342 H 0.34136 0.78171 0.28274 0.0
H5343 H 0.38243 0.7918 0.33414 0.0
H5344 H 0.36087 0.72919 0.30453 0.0
H5345 H 0.33921 0.6997 0.29502 0.0
H5346 H 0.33556 0.6949 0.35343 0.0
H5347 H 0.35705 0.72448 0.3633 0.0
C5348 C 0.4516 0.76777 0.37308 0.0
C5349 C 0.45163 0.76125 0.39053 0.0
C5350 C 0.43572 0.76813 0.36236 0.0
C5351 C 0.41935 0.76238 0.36891 0.0
C5352 C 0.4193 0.75578 0.38633 0.0
C5353 C 0.43526 0.7552 0.39702 0.0
C5354 C 0.40243 0.76322 0.35748 0.0
C5355 C 0.38893 0.74724 0.35247 0.0
C5356 C 0.39996 0.77941 0.35058 0.0
C5357 C 0.41342 0.79692 0.35555 0.0
C5358 C 0.41932 0.80464 0.3746 0.0
C5359 C 0.43238 0.82086 0.37915 0.0
C5360 C 0.43955 0.82955 0.36478 0.0
C5361 C 0.43363 0.82206 0.34581 0.0
C5362 C 0.42058 0.80584 0.34118 0.0
C5363 C 0.32183 0.75863 0.3155 0.0
C5364 C 0.32289 0.76729 0.29933 0.0
C5365 C 0.33723 0.75728 0.32666 0.0
C5366 C 0.35415 0.76416 0.32176 0.0
C5367 C 0.35519 0.77275 0.30558 0.0
C5368 C 0.33984 0.77445 0.29467 0.0
C5369 C 0.37076 0.7632 0.3338 0.0
C5370 C 0.38427 0.77918 0.33893 0.0
C5371 C 0.37332 0.74693 0.34055 0.0
C5372 C 0.36043 0.72914 0.33465 0.0
C5373 C 0.35535 0.72191 0.31535 0.0
C5374 C 0.34313 0.70516 0.30989 0.0
C5375 C 0.33598 0.69546 0.32361 0.0
C5376 C 0.34109 0.70244 0.34282 0.0
C5377 C 0.3533 0.71919 0.34835 0.0
H5378 H 0.32651 0.6825 0.31936 0.0
H5379 H 0.44968 0.84209 0.36834 0.0
H5380 H 0.00952 0.72586 0.06192 0.0
H5381 H 0.01035 0.69384 0.05176 0.0
H5382 H 0.0639 0.70377 0.07909 0.0
H5383 H 0.06317 0.73614 0.08962 0.0
H5384 H 0.05825 0.68064 0.04279 0.0
H5385 H 0.03222 0.68244 0.10079 0.0
H5386 H 0.01145 0.69107 0.12249 0.0
H5387 H 0.9674 0.66148 0.0819 0.0
H5388 H 0.98793 0.65283 0.05986 0.0
H5389 H 0.05806 0.58446 0.03763 0.0
H5390 H 0.06115 0.61761 0.04709 0.0
H5391 H 0.00486 0.61121 0.03269 0.0
H5392 H 0.00179 0.57821 0.02363 0.0
H5393 H 0.01341 0.63318 0.06367 0.0
H5394 H 0.03858 0.63172 0.00519 0.0
H5395 H 0.05869 0.62517 0.98182 0.0
H5396 H 0.10352 0.65452 0.02148 0.0
H5397 H 0.08369 0.66108 0.04517 0.0
C5398 C 0.02162 0.72145 0.06571 0.0
C5399 C 0.03628 0.73387 0.07673 0.0
C5400 C 0.02202 0.70295 0.05989 0.0
C5401 C 0.0371 0.69613 0.06477 0.0
C5402 C 0.05205 0.70857 0.07513 0.0
C5403 C 0.05161 0.72715 0.08117 0.0
C5404 C 0.03679 0.67594 0.05955 0.0
C5405 C 0.04865 0.67026 0.04761 0.0
C5406 C 0.02398 0.66222 0.06533 0.0
C5407 C 0.0116 0.66713 0.07863 0.0
C5408 C 0.0181 0.67786 0.09645 0.0
C5409 C 0.00637 0.68274 0.10882 0.0
C5410 C 0.98811 0.67686 0.10356 0.0
C5411 C 0.98154 0.66603 0.08595 0.0
C5412 C 0.99322 0.66111 0.07353 0.0
C5413 C 0.04636 0.59012 0.03644 0.0
C5414 C 0.02966 0.57843 0.0301 0.0
C5415 C 0.04813 0.60921 0.04177 0.0
C5416 C 0.03327 0.61728 0.04056 0.0
C5417 C 0.0166 0.60558 0.03401 0.0
C5418 C 0.01483 0.58652 0.0289 0.0
C5419 C 0.03481 0.63766 0.04666 0.0
C5420 C 0.02312 0.64345 0.05882 0.0
C5421 C 0.0477 0.65143 0.04091 0.0
C5422 C 0.05966 0.64679 0.02699 0.0
C5423 C 0.05273 0.63661 0.009 0.0
C5424 C 0.06408 0.63296 0.99567 0.0
C5425 C 0.08235 0.63953 0.00014 0.0
C5426 C 0.08935 0.64953 0.01802 0.0
C5427 C 0.07807 0.65322 0.03139 0.0
H5428 H 0.09111 0.63686 0.98975 0.0
H5429 H 0.97906 0.68068 0.11314 0.0
H5430 H 0.04349 0.22854 0.8727 0.0
H5431 H 0.07163 0.23428 0.8597 0.0
H5432 H 0.08348 0.29032 0.88847 0.0
H5433 H 0.05525 0.28458 0.90186 0.0
H5434 H 0.08903 0.28607 0.84901 0.0
H5435 H 0.10674 0.26464 0.90589 0.0
H5436 H 0.10281 0.24366 0.92941 0.0
H5437 H 0.10532 0.19835 0.8871 0.0
H5438 H 0.10917 0.21909 0.86328 0.0
H5439 H 0.1786 0.30969 0.83675 0.0
H5440 H 0.15452 0.30002 0.85528 0.0
H5441 H 0.13712 0.24922 0.8162 0.0
H5442 H 0.16131 0.25894 0.79747 0.0
H5443 H 0.135 0.25048 0.8617 0.0
H5444 H 0.1158 0.27281 0.80438 0.0
H5445 H 0.11919 0.29458 0.7816 0.0
H5446 H 0.11891 0.33905 0.82588 0.0
H5447 H 0.11586 0.31755 0.84901 0.0
C5448 C 0.05209 0.24208 0.87639 0.0
C5449 C 0.04714 0.25608 0.8884 0.0
C5450 C 0.06821 0.24532 0.86895 0.0
C5451 C 0.0797 0.2627 0.87314 0.0
C5452 C 0.07481 0.2768 0.88506 0.0
C5453 C 0.05875 0.27347 0.89279 0.0
C5454 C 0.09668 0.26598 0.86481 0.0
C5455 C 0.09915 0.27845 0.85198 0.0
C5456 C 0.10978 0.25582 0.86841 0.0
C5457 C 0.1082 0.2434 0.88279 0.0
C5458 C 0.10645 0.2502 0.9016 0.0
C5459 C 0.10423 0.23836 0.91499 0.0
C5460 C 0.1038 0.21968 0.90975 0.0
C5461 C 0.10568 0.21283 0.89114 0.0
C5462 C 0.10794 0.22464 0.8777 0.0
C5463 C 0.16992 0.29626 0.83238 0.0
C5464 C 0.17168 0.28516 0.81556 0.0
C5465 C 0.15621 0.29072 0.84301 0.0
C5466 C 0.14396 0.27398 0.83706 0.0
C5467 C 0.14651 0.26215 0.82111 0.0
C5468 C 0.1603 0.26771 0.81041 0.0
C5469 C 0.12722 0.27047 0.84579 0.0
C5470 C 0.12484 0.25804 0.85872 0.0
C5471 C 0.11416 0.28069 0.84234 0.0
C5472 C 0.1158 0.29362 0.82845 0.0
C5473 C 0.11665 0.28726 0.80929 0.0
C5474 C 0.11848 0.29954 0.79631 0.0
C5475 C 0.11931 0.3182 0.8023 0.0
C5476 C 0.11829 0.3246 0.82127 0.0
C5477 C 0.11651 0.31237 0.83432 0.0
H5478 H 0.1207 0.32769 0.79223 0.0
H5479 H 0.10202 0.21052 0.92011 0.0
H5480 H 0.55232 0.7435 0.8745 0.0
H5481 H 0.55521 0.71826 0.89243 0.0
H5482 H 0.51023 0.72709 0.92042 0.0
H5483 H 0.5078 0.75218 0.90364 0.0
H5484 H 0.53337 0.72197 0.94514 0.0
H5485 H 0.50826 0.69134 0.88163 0.0
H5486 H 0.508 0.68329 0.84713 0.0
H5487 H 0.55535 0.66291 0.85634 0.0
H5488 H 0.55596 0.67099 0.89092 0.0
H5489 H 0.48814 0.64068 0.97226 0.0
H5490 H 0.49931 0.668 0.95859 0.0
H5491 H 0.54354 0.64546 0.94246 0.0
H5492 H 0.53201 0.61769 0.95594 0.0
H5493 H 0.52909 0.65822 0.91333 0.0
H5494 H 0.54925 0.68637 0.97938 0.0
H5495 H 0.54598 0.69476 0.01313 0.0
H5496 H 0.50275 0.71958 0.99754 0.0
H5497 H 0.5058 0.71139 0.96378 0.0
C5498 C 0.54332 0.74024 0.88477 0.0
C5499 C 0.52986 0.75002 0.88755 0.0
C5500 C 0.54483 0.72565 0.89486 0.0
C5501 C 0.53285 0.72057 0.9078 0.0
C5502 C 0.51976 0.73065 0.91073 0.0
C5503 C 0.51837 0.74512 0.90095 0.0
C5504 C 0.53332 0.70488 0.91852 0.0
C5505 C 0.53247 0.70804 0.93811 0.0
C5506 C 0.53253 0.68666 0.90961 0.0
C5507 C 0.53229 0.68199 0.88884 0.0
C5508 C 0.5187 0.68529 0.87629 0.0
C5509 C 0.51847 0.68068 0.85673 0.0
C5510 C 0.53169 0.67265 0.84955 0.0
C5511 C 0.54514 0.66917 0.86192 0.0
C5512 C 0.54544 0.67375 0.8815 0.0
C5513 C 0.50042 0.64167 0.96611 0.0
C5514 C 0.5092 0.62701 0.96523 0.0
C5515 C 0.50692 0.65742 0.95837 0.0
C5516 C 0.52248 0.65909 0.94961 0.0
C5517 C 0.53158 0.64466 0.94919 0.0
C5518 C 0.52508 0.62884 0.95704 0.0
C5519 C 0.5283 0.67528 0.9398 0.0
C5520 C 0.53043 0.6722 0.92043 0.0
C5521 C 0.5297 0.69361 0.94876 0.0
C5522 C 0.52774 0.69821 0.96908 0.0
C5523 C 0.53901 0.69353 0.98317 0.0
C5524 C 0.53722 0.6983 0.0023 0.0
C5525 C 0.52417 0.70768 0.00747 0.0
C5526 C 0.51288 0.71234 0.99353 0.0
C5527 C 0.51468 0.70771 0.97442 0.0
H5528 H 0.5228 0.71135 0.02227 0.0
H5529 H 0.53147 0.66908 0.8344 0.0
H5530 H 0.06952 0.73435 0.70598 0.0
H5531 H 0.10053 0.7326 0.71465 0.0
H5532 H 0.113 0.78995 0.73913 0.0
H5533 H 0.08232 0.79173 0.73082 0.0
H5534 H 0.13707 0.78214 0.716 0.0
H5535 H 0.11008 0.7569 0.7667 0.0
H5536 H 0.08973 0.7354 0.78181 0.0
H5537 H 0.11096 0.69053 0.7571 0.0
H5538 H 0.13126 0.71173 0.74157 0.0
H5539 H 0.22351 0.79516 0.76394 0.0
H5540 H 0.19186 0.79285 0.75578 0.0
H5541 H 0.18409 0.73419 0.73955 0.0
H5542 H 0.21579 0.73643 0.7481 0.0
H5543 H 0.15731 0.74058 0.75695 0.0
H5544 H 0.18422 0.7655 0.70624 0.0
H5545 H 0.20477 0.78691 0.69119 0.0
H5546 H 0.1836 0.83195 0.71559 0.0
H5547 H 0.16304 0.81084 0.73096 0.0
C5548 C 0.07886 0.74657 0.71325 0.0
C5549 C 0.07324 0.76321 0.71757 0.0
C5550 C 0.09663 0.74554 0.71831 0.0
C5551 C 0.10932 0.76115 0.72764 0.0
C5552 C 0.10366 0.77767 0.73195 0.0
C5553 C 0.08596 0.77865 0.72716 0.0
C5554 C 0.12861 0.76078 0.7323 0.0
C5555 C 0.14144 0.77313 0.72511 0.0
C5556 C 0.13454 0.74873 0.74378 0.0
C5557 C 0.12201 0.73588 0.75271 0.0
C5558 C 0.11025 0.74242 0.76425 0.0
C5559 C 0.09876 0.73029 0.77296 0.0
C5560 C 0.099 0.7116 0.77035 0.0
C5561 C 0.11074 0.705 0.75906 0.0
C5562 C 0.12224 0.71707 0.75029 0.0
C5563 C 0.21514 0.78171 0.75866 0.0
C5564 C 0.22246 0.76597 0.75678 0.0
C5565 C 0.1969 0.78041 0.75385 0.0
C5566 C 0.1853 0.76336 0.74666 0.0
C5567 C 0.19253 0.74757 0.745 0.0
C5568 C 0.2108 0.74886 0.74991 0.0
C5569 C 0.16579 0.76212 0.74081 0.0
C5570 C 0.15293 0.74948 0.74773 0.0
C5571 C 0.15975 0.77385 0.72899 0.0
C5572 C 0.17218 0.7866 0.71986 0.0
C5573 C 0.18403 0.77999 0.7085 0.0
C5574 C 0.19566 0.79207 0.69989 0.0
C5575 C 0.19548 0.81077 0.70243 0.0
C5576 C 0.1837 0.81745 0.71362 0.0
C5577 C 0.17204 0.80543 0.72227 0.0
H5578 H 0.2044 0.82007 0.69565 0.0
H5579 H 0.09012 0.70224 0.77714 0.0
H5580 H 0.00189 0.34443 0.37803 0.0
H5581 H 0.00616 0.37408 0.39823 0.0
H5582 H 0.06016 0.37197 0.416 0.0
H5583 H 0.05585 0.34181 0.39541 0.0
H5584 H 0.04245 0.3821 0.44661 0.0
H5585 H 0.05293 0.40351 0.38851 0.0
H5586 H 0.04754 0.40417 0.35427 0.0
H5587 H 0.99665 0.41641 0.3609 0.0
H5588 H 0.00167 0.4157 0.39518 0.0
H5589 H 0.05261 0.47719 0.49335 0.0
H5590 H 0.05684 0.44922 0.47376 0.0
H5591 H 0.00174 0.43669 0.45062 0.0
H5592 H 0.99736 0.46411 0.47085 0.0
H5593 H 0.02537 0.43571 0.42278 0.0
H5594 H 0.0147 0.41248 0.48083 0.0
H5595 H 0.0199 0.41064 0.5148 0.0
H5596 H 0.07191 0.40154 0.50828 0.0
H5597 H 0.06716 0.40365 0.47429 0.0
C5598 C 0.0148 0.35035 0.38599 0.0
C5599 C 0.02855 0.34077 0.385 0.0
C5600 C 0.01725 0.3674 0.39756 0.0
C5601 C 0.03352 0.37546 0.40866 0.0
C5602 C 0.04748 0.3661 0.40756 0.0
C5603 C 0.04508 0.34896 0.39566 0.0
C5604 C 0.03526 0.39328 0.42172 0.0
C5605 C 0.03917 0.39401 0.44137 0.0
C5606 C 0.03068 0.40878 0.41501 0.0
C5607 C 0.02765 0.40947 0.39443 0.0
C5608 C 0.04055 0.40626 0.38266 0.0
C5609 C 0.03757 0.40667 0.36325 0.0
C5610 C 0.02175 0.4103 0.35541 0.0
C5611 C 0.00891 0.41361 0.36699 0.0
C5612 C 0.01184 0.41326 0.38643 0.0
C5613 C 0.0414 0.46833 0.48417 0.0
C5614 C 0.02469 0.47286 0.48345 0.0
C5615 C 0.04382 0.45235 0.47301 0.0
C5616 C 0.02963 0.44081 0.4606 0.0
C5617 C 0.01291 0.44536 0.46 0.0
C5618 C 0.01041 0.46104 0.47152 0.0
C5619 C 0.03219 0.4244 0.44769 0.0
C5620 C 0.02903 0.42397 0.42803 0.0
C5621 C 0.03761 0.40929 0.45445 0.0
C5622 C 0.04067 0.40851 0.47502 0.0
C5623 C 0.02735 0.41036 0.48667 0.0
C5624 C 0.03019 0.40918 0.50592 0.0
C5625 C 0.04624 0.40602 0.51371 0.0
C5626 C 0.0595 0.40403 0.50224 0.0
C5627 C 0.05674 0.40522 0.48298 0.0
H5628 H 0.04839 0.40508 0.52861 0.0
H5629 H 0.01945 0.41057 0.34037 0.0
H5630 H 0.44827 0.24044 0.18254 0.0
H5631 H 0.42016 0.24429 0.19336 0.0
H5632 H 0.44634 0.26196 0.25052 0.0
H5633 H 0.47415 0.25662 0.23983 0.0
H5634 H 0.41659 0.2459 0.25456 0.0
H5635 H 0.43248 0.29217 0.21577 0.0
H5636 H 0.44087 0.30445 0.18701 0.0
H5637 H 0.39231 0.27246 0.15529 0.0
H5638 H 0.38371 0.25984 0.18381 0.0
H5639 H 0.34525 0.28765 0.28516 0.0
H5640 H 0.3739 0.28261 0.27623 0.0
H5641 H 0.34804 0.25348 0.22173 0.0
H5642 H 0.31958 0.25832 0.23053 0.0
H5643 H 0.37793 0.27664 0.21732 0.0
H5644 H 0.36261 0.23103 0.25765 0.0
H5645 H 0.35538 0.21915 0.28693 0.0
H5646 H 0.4042 0.25228 0.31699 0.0
H5647 H 0.41164 0.26453 0.28793 0.0
C5648 C 0.448 0.24488 0.19747 0.0
C5649 C 0.4636 0.24809 0.21026 0.0
C5650 C 0.43184 0.24742 0.2037 0.0
C5651 C 0.43082 0.25413 0.22284 0.0
C5652 C 0.44639 0.25687 0.23569 0.0
C5653 C 0.46242 0.25374 0.22954 0.0
C5654 C 0.41373 0.25828 0.22944 0.0
C5655 C 0.40839 0.25294 0.24648 0.0
C5656 C 0.40247 0.26724 0.21905 0.0
C5657 C 0.40753 0.27494 0.20191 0.0
C5658 C 0.42363 0.28769 0.20264 0.0
C5659 C 0.42842 0.29472 0.18638 0.0
C5660 C 0.41715 0.2892 0.16933 0.0
C5661 C 0.40104 0.2767 0.16851 0.0
C5662 C 0.39619 0.26963 0.18472 0.0
C5663 C 0.34563 0.28014 0.27128 0.0
C5664 C 0.32986 0.27341 0.25866 0.0
C5665 C 0.36211 0.27717 0.26618 0.0
C5666 C 0.36339 0.26748 0.24825 0.0
C5667 C 0.34767 0.26099 0.23562 0.0
C5668 C 0.33125 0.26378 0.24075 0.0
C5669 C 0.38091 0.26425 0.24233 0.0
C5670 C 0.38628 0.26976 0.22543 0.0
C5671 C 0.39233 0.25577 0.25301 0.0
C5672 C 0.38758 0.24887 0.27064 0.0
C5673 C 0.3717 0.23596 0.27055 0.0
C5674 C 0.3676 0.22911 0.2871 0.0
C5675 C 0.3793 0.235 0.30382 0.0
C5676 C 0.39513 0.24776 0.30404 0.0
C5677 C 0.3993 0.25466 0.28753 0.0
H5678 H 0.37612 0.22964 0.3166 0.0
H5679 H 0.42089 0.29464 0.15676 0.0
H5680 H 0.57983 0.54058 0.3165 0.0
H5681 H 0.56579 0.53623 0.34505 0.0
H5682 H 0.6149 0.52934 0.37338 0.0
H5683 H 0.62889 0.53323 0.34479 0.0
H5684 H 0.58752 0.50276 0.3784 0.0
H5685 H 0.60012 0.5689 0.38368 0.0
H5686 H 0.59922 0.59802 0.37192 0.0
H5687 H 0.54238 0.58441 0.36559 0.0
H5688 H 0.54295 0.55508 0.37704 0.0
H5689 H 0.56389 0.5093 0.47222 0.0
H5690 H 0.57758 0.51186 0.44325 0.0
H5691 H 0.53072 0.5254 0.41684 0.0
H5692 H 0.51763 0.52444 0.44615 0.0
H5693 H 0.55716 0.54799 0.41049 0.0
H5694 H 0.54394 0.48202 0.40548 0.0
H5695 H 0.54442 0.45262 0.41681 0.0
H5696 H 0.60123 0.46498 0.42213 0.0
H5697 H 0.6011 0.49457 0.41105 0.0
C5698 C 0.58775 0.53855 0.32894 0.0
C5699 C 0.60551 0.53738 0.32842 0.0
C5700 C 0.57968 0.53594 0.34522 0.0
C5701 C 0.58931 0.53244 0.36135 0.0
C5702 C 0.6072 0.53189 0.36105 0.0
C5703 C 0.61523 0.53433 0.34475 0.0
C5704 C 0.58072 0.52916 0.37849 0.0
C5705 C 0.58101 0.5127 0.38556 0.0
C5706 C 0.57191 0.54193 0.38754 0.0
C5707 C 0.57158 0.55975 0.38108 0.0
C5708 C 0.58743 0.57209 0.37969 0.0
C5709 C 0.58698 0.58863 0.37308 0.0
C5710 C 0.57075 0.59305 0.36797 0.0
C5711 C 0.55494 0.58097 0.36953 0.0
C5712 C 0.55532 0.56439 0.3761 0.0
C5713 C 0.55644 0.51266 0.46018 0.0
C5714 C 0.5396 0.51653 0.4615 0.0
C5715 C 0.56424 0.51397 0.44354 0.0
C5716 C 0.55511 0.51859 0.4277 0.0
C5717 C 0.53805 0.52182 0.42883 0.0
C5718 C 0.53049 0.52105 0.4456 0.0
C5719 C 0.56369 0.52144 0.41041 0.0
C5720 C 0.56351 0.5379 0.40332 0.0
C5721 C 0.57245 0.50857 0.4013 0.0
C5722 C 0.57251 0.49058 0.40755 0.0
C5723 C 0.55654 0.4785 0.40913 0.0
C5724 C 0.55675 0.4618 0.41551 0.0
C5725 C 0.57284 0.45695 0.42022 0.0
C5726 C 0.58877 0.46876 0.41849 0.0
C5727 C 0.58863 0.48548 0.41213 0.0
H5728 H 0.57298 0.44403 0.42518 0.0
H5729 H 0.57043 0.60585 0.36284 0.0
H5730 H 0.30933 0.8724 0.03927 0.0
H5731 H 0.30002 0.85236 0.06205 0.0
H5732 H 0.25952 0.88209 0.07511 0.0
H5733 H 0.26873 0.90228 0.05235 0.0
H5734 H 0.28564 0.88121 0.1057 0.0
H5735 H 0.24582 0.83885 0.05544 0.0
H5736 H 0.24023 0.82183 0.02281 0.0
H5737 H 0.28092 0.79282 0.0358 0.0
H5738 H 0.28689 0.8098 0.06841 0.0
H5739 H 0.28319 0.82694 0.17889 0.0
H5740 H 0.26862 0.83774 0.15225 0.0
H5741 H 0.30365 0.81714 0.11576 0.0
H5742 H 0.31888 0.80733 0.14252 0.0
H5743 H 0.26967 0.81313 0.0977 0.0
H5744 H 0.31662 0.8567 0.13764 0.0
H5745 H 0.33366 0.87776 0.16549 0.0
H5746 H 0.29198 0.90735 0.1687 0.0
H5747 H 0.27451 0.88623 0.14095 0.0
C5748 C 0.29825 0.87447 0.04675 0.0
C5749 C 0.28991 0.88903 0.04432 0.0
C5750 C 0.29283 0.86292 0.05957 0.0
C5751 C 0.27902 0.86579 0.07003 0.0
C5752 C 0.27009 0.87969 0.06695 0.0
C5753 C 0.27541 0.89118 0.05402 0.0
C5754 C 0.27592 0.85607 0.08608 0.0
C5755 C 0.28142 0.86636 0.10417 0.0
C5756 C 0.27125 0.83672 0.08361 0.0
C5757 C 0.2667 0.82551 0.06443 0.0
C5758 C 0.2535 0.82876 0.05137 0.0
C5759 C 0.2503 0.81917 0.03285 0.0
C5760 C 0.26019 0.80623 0.02724 0.0
C5761 C 0.27322 0.80279 0.04017 0.0
C5762 C 0.27646 0.81234 0.0587 0.0
C5763 C 0.28755 0.82447 0.16508 0.0
C5764 C 0.30262 0.81711 0.16278 0.0
C5765 C 0.27918 0.83055 0.14995 0.0
C5766 C 0.28531 0.82842 0.13226 0.0
C5767 C 0.29889 0.81898 0.12944 0.0
C5768 C 0.30768 0.81357 0.14469 0.0
C5769 C 0.27974 0.83827 0.11737 0.0
C5770 C 0.27275 0.82803 0.09948 0.0
C5771 C 0.28413 0.85772 0.11983 0.0
C5772 C 0.29393 0.86942 0.13757 0.0
C5773 C 0.31082 0.86734 0.14456 0.0
C5774 C 0.32068 0.87945 0.16021 0.0
C5775 C 0.31383 0.89377 0.169 0.0
C5776 C 0.29717 0.8961 0.16203 0.0
C5777 C 0.28728 0.88404 0.14635 0.0
H5778 H 0.32148 0.90311 0.18112 0.0
H5779 H 0.25777 0.7989 0.01287 0.0
H5780 H 0.89041 0.49807 0.8445 0.0
H5781 H 0.90474 0.49613 0.87567 0.0
H5782 H 0.95523 0.52128 0.86 0.0
H5783 H 0.94084 0.52357 0.829 0.0
H5784 H 0.95672 0.49362 0.88015 0.0
H5785 H 0.93109 0.54729 0.88063 0.0
H5786 H 0.90851 0.56601 0.87949 0.0
H5787 H 0.88428 0.54037 0.92317 0.0
H5788 H 0.90655 0.52125 0.92431 0.0
H5789 H 0.01736 0.54391 0.95085 0.0
H5790 H 0.99406 0.53899 0.92453 0.0
H5791 H 0.9554 0.51844 0.96015 0.0
H5792 H 0.97909 0.52413 0.98665 0.0
H5793 H 0.94257 0.53581 0.93312 0.0
H5794 H 0.97502 0.48565 0.93341 0.0
H5795 H 0.00103 0.47143 0.93309 0.0
H5796 H 0.01672 0.49754 0.88599 0.0
H5797 H 0.99083 0.51182 0.88603 0.0
C5798 C 0.90456 0.50302 0.84776 0.0
C5799 C 0.91462 0.51153 0.83496 0.0
C5800 C 0.91266 0.5018 0.86538 0.0
C5801 C 0.93079 0.50898 0.87 0.0
C5802 C 0.94111 0.5158 0.85648 0.0
C5803 C 0.933 0.51701 0.83887 0.0
C5804 C 0.93911 0.51078 0.88925 0.0
C5805 C 0.95357 0.50269 0.89185 0.0
C5806 C 0.93459 0.52241 0.90434 0.0
C5807 C 0.92019 0.53249 0.90219 0.0
C5808 C 0.92068 0.5453 0.88964 0.0
C5809 C 0.90802 0.55609 0.88909 0.0
C5810 C 0.8949 0.55431 0.90116 0.0
C5811 C 0.89436 0.54166 0.91373 0.0
C5812 C 0.90696 0.5308 0.91428 0.0
C5813 C 0.00382 0.53879 0.95322 0.0
C5814 C 0.99973 0.53296 0.97031 0.0
C5815 C 0.99061 0.53592 0.93818 0.0
C5816 C 0.97343 0.52717 0.94031 0.0
C5817 C 0.96886 0.52451 0.95823 0.0
C5818 C 0.98218 0.52773 0.97334 0.0
C5819 C 0.96078 0.51955 0.92359 0.0
C5820 C 0.94534 0.52622 0.92165 0.0
C5821 C 0.96481 0.50727 0.90874 0.0
C5822 C 0.98106 0.49982 0.90979 0.0
C5823 C 0.98414 0.48849 0.92315 0.0
C5824 C 0.99881 0.48035 0.92293 0.0
C5825 C 0.01051 0.48357 0.90952 0.0
C5826 C 0.00765 0.49502 0.89636 0.0
C5827 C 0.99298 0.5031 0.89644 0.0
H5828 H 0.02179 0.47717 0.90932 0.0
H5829 H 0.88521 0.5628 0.90085 0.0
H5830 H 0.26621 0.17037 0.56439 0.0
H5831 H 0.2639 0.18317 0.59695 0.0
H5832 H 0.27919 0.23805 0.58382 0.0
H5833 H 0.28291 0.22508 0.55162 0.0
H5834 H 0.29587 0.23801 0.61501 0.0
H5835 H 0.23373 0.21488 0.59247 0.0
H5836 H 0.20728 0.19144 0.57752 0.0
H5837 H 0.21599 0.15759 0.61942 0.0
H5838 H 0.24256 0.18076 0.63453 0.0
H5839 H 0.27157 0.28108 0.70215 0.0
H5840 H 0.27152 0.26944 0.66841 0.0
H5841 H 0.2718 0.21536 0.6817 0.0
H5842 H 0.27233 0.22692 0.71529 0.0
H5843 H 0.24642 0.21581 0.65063 0.0
H5844 H 0.30804 0.23865 0.67294 0.0
H5845 H 0.33559 0.26079 0.68702 0.0
H5846 H 0.32829 0.29468 0.64478 0.0
H5847 H 0.30042 0.27296 0.63072 0.0
C5848 C 0.26888 0.18517 0.56844 0.0
C5849 C 0.2747 0.19675 0.55551 0.0
C5850 C 0.26741 0.19253 0.58707 0.0
C5851 C 0.271 0.21169 0.593 0.0
C5852 C 0.27635 0.22324 0.57979 0.0
C5853 C 0.27841 0.21586 0.56134 0.0
C5854 C 0.27037 0.21969 0.61318 0.0
C5855 C 0.2848 0.23342 0.62258 0.0
C5856 C 0.25629 0.21335 0.62351 0.0
C5857 C 0.2402 0.19951 0.61455 0.0
C5858 C 0.23004 0.2024 0.59844 0.0
C5859 C 0.21502 0.18917 0.58995 0.0
C5860 C 0.20998 0.17302 0.59749 0.0
C5861 C 0.21991 0.1701 0.61359 0.0
C5862 C 0.23492 0.1833 0.62214 0.0
C5863 C 0.27162 0.26672 0.69785 0.0
C5864 C 0.27208 0.25497 0.71142 0.0
C5865 C 0.27166 0.2601 0.67859 0.0
C5866 C 0.27177 0.24154 0.67253 0.0
C5867 C 0.27178 0.22973 0.68602 0.0
C5868 C 0.27213 0.2364 0.70525 0.0
C5869 C 0.27172 0.23428 0.65213 0.0
C5870 C 0.25725 0.22061 0.64282 0.0
C5871 C 0.28573 0.24072 0.64185 0.0
C5872 C 0.30196 0.2543 0.65096 0.0
C5873 C 0.31211 0.25098 0.66686 0.0
C5874 C 0.32785 0.26342 0.67478 0.0
C5875 C 0.33369 0.27914 0.66681 0.0
C5876 C 0.32373 0.28252 0.65097 0.0
C5877 C 0.30795 0.27017 0.64305 0.0
H5878 H 0.34594 0.28867 0.67288 0.0
H5879 H 0.19837 0.16279 0.59088 0.0
H5880 H 0.56546 0.51367 0.22527 0.0
H5881 H 0.55457 0.51495 0.19263 0.0
H5882 H 0.60807 0.53434 0.18129 0.0
H5883 H 0.61912 0.53334 0.21409 0.0
H5884 H 0.58584 0.55385 0.16674 0.0
H5885 H 0.58721 0.49057 0.16476 0.0
H5886 H 0.58141 0.46052 0.1757 0.0
H5887 H 0.52542 0.45691 0.16518 0.0
H5888 H 0.53089 0.48707 0.1544 0.0
H5889 H 0.56589 0.53378 0.0657 0.0
H5890 H 0.57761 0.53406 0.09861 0.0
H5891 H 0.52446 0.52348 0.11358 0.0
H5892 H 0.51266 0.5237 0.08063 0.0
H5893 H 0.54717 0.49919 0.12569 0.0
H5894 H 0.5463 0.56374 0.13076 0.0
H5895 H 0.55234 0.59445 0.12141 0.0
H5896 H 0.60785 0.59477 0.12503 0.0
H5897 H 0.60217 0.56419 0.135 0.0
C5898 C 0.57495 0.51817 0.21585 0.0
C5899 C 0.59317 0.52335 0.22227 0.0
C5900 C 0.56869 0.51883 0.19716 0.0
C5901 C 0.58053 0.52454 0.18447 0.0
C5902 C 0.59872 0.52986 0.19085 0.0
C5903 C 0.605 0.52922 0.20958 0.0
C5904 C 0.57381 0.52508 0.1646 0.0
C5905 C 0.57762 0.54182 0.15769 0.0
C5906 C 0.56284 0.50947 0.15287 0.0
C5907 C 0.55946 0.49114 0.15892 0.0
C5908 C 0.57366 0.48341 0.16487 0.0
C5909 C 0.57043 0.46635 0.17104 0.0
C5910 C 0.55306 0.45683 0.17118 0.0
C5911 C 0.53887 0.46431 0.16507 0.0
C5912 C 0.54202 0.48137 0.1589 0.0
C5913 C 0.55674 0.53165 0.07607 0.0
C5914 C 0.53841 0.52865 0.07075 0.0
C5915 C 0.56343 0.53185 0.09481 0.0
C5916 C 0.55188 0.52873 0.10844 0.0
C5917 C 0.53355 0.52589 0.1032 0.0
C5918 C 0.52685 0.52611 0.08449 0.0
C5919 C 0.55904 0.52798 0.12805 0.0
C5920 C 0.55541 0.51117 0.1348 0.0
C5921 C 0.57028 0.54345 0.13959 0.0
C5922 C 0.5738 0.56167 0.13344 0.0
C5923 C 0.55978 0.57033 0.12945 0.0
C5924 C 0.56314 0.58772 0.1241 0.0
C5925 C 0.58044 0.59648 0.12239 0.0
C5926 C 0.59445 0.58794 0.12629 0.0
C5927 C 0.59119 0.57064 0.13194 0.0
H5928 H 0.58299 0.60992 0.11813 0.0
H5929 H 0.55058 0.44364 0.17599 0.0
H5930 H 0.27857 0.87241 0.97251 0.0
H5931 H 0.26759 0.85224 0.94207 0.0
H5932 H 0.29796 0.89215 0.91323 0.0
H5933 H 0.30902 0.91224 0.94375 0.0
H5934 H 0.26392 0.87607 0.89419 0.0
H5935 H 0.31495 0.86009 0.92421 0.0
H5936 H 0.33318 0.85131 0.94987 0.0
H5937 H 0.29487 0.80079 0.94669 0.0
H5938 H 0.2761 0.80954 0.92139 0.0
H5939 H 0.2825 0.82775 0.81225 0.0
H5940 H 0.28255 0.84586 0.8426 0.0
H5941 H 0.25391 0.79809 0.8623 0.0
H5942 H 0.25437 0.7795 0.83177 0.0
H5943 H 0.28259 0.81642 0.88672 0.0
H5944 H 0.23356 0.83282 0.85176 0.0
H5945 H 0.2204 0.84178 0.82284 0.0
H5946 H 0.25989 0.8921 0.83225 0.0
H5947 H 0.27345 0.88335 0.86109 0.0
C5948 C 0.28276 0.87677 0.95958 0.0
C5949 C 0.2947 0.89348 0.9601 0.0
C5950 C 0.27645 0.86542 0.94234 0.0
C5951 C 0.28203 0.87083 0.9256 0.0
C5952 C 0.29349 0.88791 0.9261 0.0
C5953 C 0.29992 0.89919 0.94338 0.0
C5954 C 0.27732 0.85794 0.9078 0.0
C5955 C 0.26787 0.86297 0.8925 0.0
C5956 C 0.2826 0.84094 0.90586 0.0
C5957 C 0.2939 0.83566 0.92114 0.0
C5958 C 0.31024 0.84725 0.92918 0.0
C5959 C 0.3207 0.84226 0.94364 0.0
C5960 C 0.31514 0.82555 0.94998 0.0
C5961 C 0.29912 0.81378 0.94183 0.0
C5962 C 0.28853 0.81877 0.92746 0.0
C5963 C 0.27636 0.8209 0.823 0.0
C5964 C 0.26929 0.80188 0.81996 0.0
C5965 C 0.27614 0.83141 0.84028 0.0
C5966 C 0.2681 0.82328 0.85454 0.0
C5967 C 0.26027 0.80449 0.85138 0.0
C5968 C 0.26078 0.79385 0.83409 0.0
C5969 C 0.26903 0.8344 0.87312 0.0
C5970 C 0.278 0.82917 0.88857 0.0
C5971 C 0.26365 0.85136 0.87503 0.0
C5972 C 0.25449 0.85745 0.85869 0.0
C5973 C 0.23937 0.84586 0.84775 0.0
C5974 C 0.23189 0.85086 0.83131 0.0
C5975 C 0.2393 0.8675 0.82571 0.0
C5976 C 0.25412 0.87924 0.83664 0.0
C5977 C 0.26168 0.8743 0.85308 0.0
H5978 H 0.23356 0.87129 0.81292 0.0
H5979 H 0.32328 0.82168 0.96114 0.0
H5980 H 0.92506 0.50175 0.7565 0.0
H5981 H 0.93766 0.49206 0.72783 0.0
H5982 H 0.90344 0.51873 0.69571 0.0
H5983 H 0.88991 0.52699 0.72403 0.0
H5984 H 0.91097 0.49275 0.67383 0.0
H5985 H 0.94679 0.54177 0.72523 0.0
H5986 H 0.96265 0.55099 0.75767 0.0
H5987 H 0.99412 0.51086 0.74646 0.0
H5988 H 0.97829 0.50127 0.71408 0.0
H5989 H 0.95835 0.50835 0.60113 0.0
H5990 H 0.94835 0.52255 0.62976 0.0
H5991 H 0.98179 0.49672 0.66386 0.0
H5992 H 0.99228 0.48342 0.63556 0.0
H5993 H 0.97478 0.52317 0.68498 0.0
H5994 H 0.93938 0.47315 0.63504 0.0
H5995 H 0.92263 0.46122 0.60334 0.0
H5996 H 0.88991 0.5005 0.61224 0.0
H5997 H 0.90662 0.51281 0.64385 0.0
C5998 C 0.92001 0.50503 0.7431 0.0
C5999 C 0.90716 0.51564 0.74218 0.0
C6000 C 0.92712 0.4995 0.72685 0.0
C6001 C 0.92208 0.50556 0.71 0.0
C6002 C 0.90774 0.51428 0.70874 0.0
C6003 C 0.90015 0.51916 0.72484 0.0
C6004 C 0.93324 0.50582 0.69471 0.0
C6005 C 0.92492 0.49944 0.67622 0.0
C6006 C 0.95147 0.51443 0.69801 0.0
C6007 C 0.96132 0.52077 0.71729 0.0
C6008 C 0.95712 0.53496 0.72969 0.0
C6009 C 0.96606 0.5402 0.74808 0.0
C6010 C 0.97937 0.53151 0.75412 0.0
C6011 C 0.9838 0.51758 0.74178 0.0
C6012 C 0.97486 0.51224 0.72342 0.0
C6013 C 0.96395 0.50634 0.61487 0.0
C6014 C 0.97516 0.49401 0.61641 0.0
C6015 C 0.95836 0.5145 0.63114 0.0
C6016 C 0.96361 0.50975 0.64869 0.0
C6017 C 0.97716 0.50008 0.65035 0.0
C6018 C 0.98288 0.49216 0.63421 0.0
C6019 C 0.95244 0.51034 0.664 0.0
C6020 C 0.96078 0.51672 0.68255 0.0
C6021 C 0.93425 0.50151 0.66078 0.0
C6022 C 0.92442 0.49409 0.64166 0.0
C6023 C 0.9287 0.47931 0.63016 0.0
C6024 C 0.91923 0.47251 0.6122 0.0
C6025 C 0.9053 0.48018 0.60571 0.0
C6026 C 0.90077 0.49464 0.61721 0.0
C6027 C 0.91025 0.50156 0.63512 0.0
H6028 H 0.89797 0.47487 0.59183 0.0
H6029 H 0.98626 0.53557 0.76836 0.0
H6030 H 0.2833 0.22743 0.47169 0.0
H6031 H 0.28423 0.23903 0.44146 0.0
H6032 H 0.25377 0.18661 0.4123 0.0
H6033 H 0.25235 0.1751 0.44259 0.0
H6034 H 0.28877 0.20205 0.39835 0.0
H6035 H 0.23306 0.2181 0.41353 0.0
H6036 H 0.21506 0.23307 0.43461 0.0
H6037 H 0.25095 0.28513 0.43728 0.0
H6038 H 0.26924 0.27042 0.41637 0.0
H6039 H 0.28418 0.23012 0.30733 0.0
H6040 H 0.27969 0.21626 0.33559 0.0
H6041 H 0.28179 0.26981 0.36764 0.0
H6042 H 0.28144 0.28241 0.33876 0.0
H6043 H 0.25991 0.25114 0.37998 0.0
H6044 H 0.3181 0.23882 0.37065 0.0
H6045 H 0.33844 0.22752 0.34983 0.0
H6046 H 0.30345 0.17437 0.3376 0.0
H6047 H 0.28325 0.18501 0.35901 0.0
C6048 C 0.27629 0.21861 0.45891 0.0
C6049 C 0.26754 0.20046 0.45953 0.0
C6050 C 0.27701 0.22516 0.44163 0.0
C6051 C 0.26931 0.21357 0.42462 0.0
C6052 C 0.25991 0.19571 0.42526 0.0
C6053 C 0.25884 0.18927 0.4426 0.0
C6054 C 0.27144 0.22007 0.4062 0.0
C6055 C 0.28243 0.21273 0.3942 0.0
C6056 C 0.26365 0.23435 0.40108 0.0
C6057 C 0.25254 0.24315 0.4135 0.0
C6058 C 0.23715 0.23271 0.41872 0.0
C6059 C 0.22689 0.24116 0.43061 0.0
C6060 C 0.23187 0.26004 0.4373 0.0
C6061 C 0.2471 0.27052 0.43209 0.0
C6062 C 0.2574 0.26214 0.42019 0.0
C6063 C 0.28377 0.23895 0.32044 0.0
C6064 C 0.28402 0.25774 0.32069 0.0
C6065 C 0.28152 0.23101 0.33685 0.0
C6066 C 0.28099 0.24192 0.35432 0.0
C6067 C 0.28211 0.26082 0.3546 0.0
C6068 C 0.28273 0.26837 0.33797 0.0
C6069 C 0.27801 0.23385 0.37205 0.0
C6070 C 0.26666 0.2407 0.38399 0.0
C6071 C 0.28618 0.21976 0.37748 0.0
C6072 C 0.29922 0.21271 0.36643 0.0
C6073 C 0.31494 0.2246 0.36381 0.0
C6074 C 0.32645 0.21827 0.35197 0.0
C6075 C 0.32232 0.20012 0.34261 0.0
C6076 C 0.30679 0.18821 0.34526 0.0
C6077 C 0.29539 0.19434 0.35736 0.0
H6078 H 0.33108 0.1953 0.33319 0.0
H6079 H 0.22391 0.26655 0.44651 0.0
H6080 H 0.28924 0.57183 0.52542 0.0
H6081 H 0.31549 0.56115 0.51843 0.0
H6082 H 0.34576 0.59817 0.56722 0.0
H6083 H 0.31957 0.61109 0.57242 0.0
H6084 H 0.36199 0.59957 0.53674 0.0
H6085 H 0.33092 0.54925 0.56546 0.0
H6086 H 0.30168 0.52946 0.56647 0.0
H6087 H 0.30006 0.50565 0.50834 0.0
H6088 H 0.32909 0.52557 0.50684 0.0
H6089 H 0.43581 0.56188 0.51776 0.0
H6090 H 0.41208 0.5696 0.53547 0.0
H6091 H 0.37307 0.53774 0.48998 0.0
H6092 H 0.39675 0.52996 0.47243 0.0
H6093 H 0.3626 0.53319 0.52365 0.0
H6094 H 0.3892 0.58207 0.49223 0.0
H6095 H 0.41381 0.60542 0.48521 0.0
H6096 H 0.41948 0.63436 0.542 0.0
H6097 H 0.39546 0.61075 0.54967 0.0
C6098 C 0.30133 0.57713 0.53513 0.0
C6099 C 0.30255 0.59171 0.54984 0.0
C6100 C 0.31632 0.57108 0.53109 0.0
C6101 C 0.33233 0.57832 0.54281 0.0
C6102 C 0.33334 0.59223 0.5583 0.0
C6103 C 0.31846 0.59926 0.56156 0.0
C6104 C 0.34814 0.57199 0.53793 0.0
C6105 C 0.36249 0.58512 0.53449 0.0
C6106 C 0.34808 0.55304 0.53413 0.0
C6107 C 0.33232 0.53879 0.53611 0.0
C6108 C 0.32449 0.53953 0.55301 0.0
C6109 C 0.30785 0.52844 0.5536 0.0
C6110 C 0.29903 0.51629 0.53749 0.0
C6111 C 0.30694 0.51502 0.52083 0.0
C6112 C 0.32353 0.52615 0.52012 0.0
C6113 C 0.42213 0.55654 0.51171 0.0
C6114 C 0.41787 0.5458 0.49368 0.0
C6115 C 0.40868 0.56082 0.52179 0.0
C6116 C 0.39095 0.55434 0.51385 0.0
C6117 C 0.38673 0.54285 0.49624 0.0
C6118 C 0.40016 0.53866 0.48615 0.0
C6119 C 0.37678 0.56083 0.52292 0.0
C6120 C 0.36256 0.5477 0.52678 0.0
C6121 C 0.37673 0.57979 0.52662 0.0
C6122 C 0.39083 0.59429 0.52171 0.0
C6123 C 0.39586 0.59323 0.50334 0.0
C6124 C 0.40972 0.60652 0.49923 0.0
C6125 C 0.41831 0.62122 0.51323 0.0
C6126 C 0.41292 0.62284 0.53125 0.0
C6127 C 0.39925 0.60945 0.53551 0.0
H6128 H 0.42918 0.63134 0.51017 0.0
H6129 H 0.28606 0.50787 0.53791 0.0
H6130 H 0.82623 0.9229 0.50164 0.0
H6131 H 0.85663 0.93991 0.50103 0.0
H6132 H 0.87312 0.92351 0.55388 0.0
H6133 H 0.84302 0.90616 0.55434 0.0
H6134 H 0.88368 0.96219 0.55249 0.0
H6135 H 0.8858 0.90351 0.51889 0.0
H6136 H 0.87441 0.87594 0.49475 0.0
H6137 H 0.8803 0.90908 0.45071 0.0
H6138 H 0.89152 0.93694 0.47465 0.0
H6139 H 0.97791 0.98864 0.55095 0.0
H6140 H 0.94797 0.97115 0.55293 0.0
H6141 H 0.9293 0.98535 0.49967 0.0
H6142 H 0.95892 0.0031 0.49783 0.0
H6143 H 0.92019 0.947 0.50199 0.0
H6144 H 0.91607 0.00578 0.53597 0.0
H6145 H 0.92479 0.03346 0.56042 0.0
H6146 H 0.92243 0.99968 0.60401 0.0
H6147 H 0.91346 0.97177 0.57979 0.0
C6148 C 0.8364 0.92283 0.513 0.0
C6149 C 0.83238 0.91319 0.52796 0.0
C6150 C 0.85368 0.93251 0.51266 0.0
C6151 C 0.86699 0.93292 0.52744 0.0
C6152 C 0.86297 0.92333 0.54239 0.0
C6153 C 0.84584 0.91334 0.54253 0.0
C6154 C 0.88513 0.94351 0.52742 0.0
C6155 C 0.8918 0.95875 0.54163 0.0
C6156 C 0.89547 0.93906 0.51307 0.0
C6157 C 0.88933 0.92233 0.49856 0.0
C6158 C 0.88458 0.90494 0.50406 0.0
C6159 C 0.87817 0.88926 0.49042 0.0
C6160 C 0.87658 0.89077 0.4712 0.0
C6161 C 0.88152 0.90795 0.4656 0.0
C6162 C 0.88794 0.92369 0.4792 0.0
C6163 C 0.96733 0.98814 0.53981 0.0
C6164 C 0.97063 0.99725 0.52431 0.0
C6165 C 0.95031 0.9782 0.54094 0.0
C6166 C 0.93652 0.97701 0.52642 0.0
C6167 C 0.9398 0.98616 0.511 0.0
C6168 C 0.95668 0.99638 0.51005 0.0
C6169 C 0.91873 0.96582 0.52701 0.0
C6170 C 0.91212 0.95041 0.51291 0.0
C6171 C 0.90846 0.97006 0.54152 0.0
C6172 C 0.91434 0.98672 0.55608 0.0
C6173 C 0.91761 0.00426 0.55076 0.0
C6174 C 0.92253 0.01998 0.56457 0.0
C6175 C 0.92435 0.01833 0.58375 0.0
C6176 C 0.9211 0.00094 0.58915 0.0
C6177 C 0.91602 0.98517 0.5754 0.0
H6178 H 0.92817 0.03053 0.59441 0.0
H6179 H 0.87155 0.87862 0.46066 0.0
H6180 H 0.905 0.0741 0.27755 0.0
H6181 H 0.88908 0.09864 0.27541 0.0
H6182 H 0.84848 0.0619 0.23479 0.0
H6183 H 0.86476 0.03705 0.2368 0.0
H6184 H 0.85869 0.1004 0.22804 0.0
H6185 H 0.83973 0.06568 0.27663 0.0
H6186 H 0.84338 0.05024 0.30441 0.0
H6187 H 0.87149 0.10145 0.33772 0.0
H6188 H 0.86831 0.11716 0.31007 0.0
H6189 H 0.79657 0.15685 0.25974 0.0
H6190 H 0.81183 0.13343 0.2462 0.0
H6191 H 0.8582 0.15826 0.28631 0.0
H6192 H 0.84287 0.18134 0.30002 0.0
H6193 H 0.84091 0.12261 0.29004 0.0
H6194 H 0.86277 0.15696 0.24232 0.0
H6195 H 0.8618 0.17308 0.21475 0.0
H6196 H 0.83009 0.12405 0.1805 0.0
H6197 H 0.83068 0.10767 0.20794 0.0
C6198 C 0.89289 0.07142 0.26783 0.0
C6199 C 0.88593 0.05391 0.25736 0.0
C6200 C 0.88383 0.08536 0.26665 0.0
C6201 C 0.86755 0.08186 0.2552 0.0
C6202 C 0.86105 0.06467 0.24373 0.0
C6203 C 0.87026 0.0506 0.24486 0.0
C6204 C 0.85696 0.09591 0.2568 0.0
C6205 C 0.85437 0.10508 0.24141 0.0
C6206 C 0.85182 0.10207 0.27448 0.0
C6207 C 0.85387 0.09258 0.29117 0.0
C6208 C 0.84684 0.07363 0.28981 0.0
C6209 C 0.8488 0.06483 0.30556 0.0
C6210 C 0.85768 0.07485 0.3228 0.0
C6211 C 0.86462 0.0937 0.32435 0.0
C6212 C 0.86273 0.10256 0.30864 0.0
C6213 C 0.81019 0.15749 0.26522 0.0
C6214 C 0.81857 0.17044 0.28105 0.0
C6215 C 0.81891 0.14431 0.25741 0.0
C6216 C 0.83606 0.14421 0.26533 0.0
C6217 C 0.84495 0.15822 0.28005 0.0
C6218 C 0.8362 0.17123 0.28795 0.0
C6219 C 0.84317 0.12761 0.26147 0.0
C6220 C 0.84493 0.11783 0.27652 0.0
C6221 C 0.84761 0.12108 0.24356 0.0
C6222 C 0.8465 0.13117 0.2273 0.0
C6223 C 0.85532 0.1497 0.22901 0.0
C6224 C 0.85493 0.15885 0.21337 0.0
C6225 C 0.84583 0.14962 0.19591 0.0
C6226 C 0.83709 0.1312 0.19405 0.0
C6227 C 0.83745 0.12198 0.20965 0.0
H6228 H 0.84559 0.15672 0.1838 0.0
H6229 H 0.85916 0.06802 0.33498 0.0
H6230 H 0.70562 0.09508 0.00238 0.0
H6231 H 0.67467 0.09162 0.00778 0.0
H6232 H 0.68669 0.07284 0.0607 0.0
H6233 H 0.7175 0.07551 0.0549 0.0
H6234 H 0.66485 0.04781 0.03471 0.0
H6235 H 0.6686 0.11143 0.06065 0.0
H6236 H 0.67637 0.14503 0.06169 0.0
H6237 H 0.6447 0.13946 0.00806 0.0
H6238 H 0.63682 0.10584 0.00666 0.0
H6239 H 0.57738 0.02023 0.04598 0.0
H6240 H 0.60806 0.03587 0.05048 0.0
H6241 H 0.59934 0.0613 0.00107 0.0
H6242 H 0.56793 0.04739 0.99815 0.0
H6243 H 0.61942 0.08509 0.02834 0.0
H6244 H 0.61867 0.02377 -0.00112 0.0
H6245 H 0.61025 0.98992 0.9948 0.0
H6246 H 0.63715 0.99097 0.05008 0.0
H6247 H 0.64557 0.02483 0.05455 0.0
C6248 C 0.70151 0.09014 0.01509 0.0
C6249 C 0.71341 0.08476 0.02789 0.0
C6250 C 0.68409 0.08876 0.01844 0.0
C6251 C 0.6787 0.08232 0.03478 0.0
C6252 C 0.69089 0.07804 0.04815 0.0
C6253 C 0.70819 0.079 0.04457 0.0
C6254 C 0.66001 0.07514 0.03507 0.0
C6255 C 0.65491 0.05605 0.0339 0.0
C6256 C 0.64729 0.08589 0.0328 0.0
C6257 C 0.65219 0.1061 0.03353 0.0
C6258 C 0.6634 0.11736 0.04902 0.0
C6259 C 0.66778 0.13642 0.0497 0.0
C6260 C 0.66105 0.14437 0.03494 0.0
C6261 C 0.64989 0.13329 0.01949 0.0
C6262 C 0.64543 0.11424 0.01878 0.0
C6263 C 0.58187 0.02914 0.03609 0.0
C6264 C 0.57026 0.03259 0.02157 0.0
C6265 C 0.59944 0.03799 0.03862 0.0
C6266 C 0.60582 0.04941 0.02589 0.0
C6267 C 0.59446 0.05249 0.01101 0.0
C6268 C 0.57664 0.04432 0.00911 0.0
C6269 C 0.62449 0.05791 0.02815 0.0
C6270 C 0.62947 0.07705 0.02956 0.0
C6271 C 0.63728 0.04721 0.02998 0.0
C6272 C 0.63266 0.02681 0.02708 0.0
C6273 C 0.62275 0.01677 0.01017 0.0
C6274 C 0.61797 0.99759 0.0078 0.0
C6275 C 0.62314 0.9883 0.02218 0.0
C6276 C 0.63316 0.99818 0.03895 0.0
C6277 C 0.63797 0.01735 0.0414 0.0
H6278 H 0.61939 0.97346 0.02034 0.0
H6279 H 0.66446 0.15913 0.03549 0.0
H6280 H 0.19345 0.49778 0.27084 0.0
H6281 H 0.20179 0.46855 0.27221 0.0
H6282 H 0.23054 0.47533 0.22413 0.0
H6283 H 0.2209 0.50435 0.22186 0.0
H6284 H 0.21078 0.43874 0.22459 0.0
H6285 H 0.2523 0.48824 0.26657 0.0
H6286 H 0.25797 0.51596 0.29088 0.0
H6287 H 0.23219 0.48427 0.32967 0.0
H6288 H 0.22594 0.45646 0.30545 0.0
H6289 H 0.2699 0.38423 0.26621 0.0
H6290 H 0.25521 0.40288 0.24733 0.0
H6291 H 0.21652 0.40395 0.28648 0.0
H6292 H 0.23137 0.38593 0.30564 0.0
H6293 H 0.24438 0.43683 0.28624 0.0
H6294 H 0.20055 0.38916 0.24706 0.0
H6295 H 0.18839 0.36162 0.22317 0.0
H6296 H 0.21335 0.38851 0.18066 0.0
H6297 H 0.22608 0.4161 0.20442 0.0
C6298 C 0.20192 0.49322 0.26089 0.0
C6299 C 0.20747 0.50345 0.24688 0.0
C6300 C 0.20632 0.47646 0.26142 0.0
C6301 C 0.21705 0.47024 0.24853 0.0
C6302 C 0.22238 0.48024 0.23424 0.0
C6303 C 0.21735 0.49684 0.23326 0.0
C6304 C 0.22385 0.45411 0.25145 0.0
C6305 C 0.21851 0.43824 0.23782 0.0
C6306 C 0.23347 0.4538 0.26901 0.0
C6307 C 0.23868 0.47022 0.28415 0.0
C6308 C 0.2479 0.48716 0.2803 0.0
C6309 C 0.25113 0.50291 0.29404 0.0
C6310 C 0.24544 0.50187 0.31181 0.0
C6311 C 0.23661 0.48505 0.31591 0.0
C6312 C 0.23324 0.46928 0.30218 0.0
C6313 C 0.25791 0.38797 0.2704 0.0
C6314 C 0.25186 0.38405 0.28752 0.0
C6315 C 0.24942 0.3983 0.25946 0.0
C6316 C 0.23481 0.40451 0.26556 0.0
C6317 C 0.22769 0.39894 0.28155 0.0
C6318 C 0.23632 0.38895 0.29262 0.0
C6319 C 0.23087 0.4211 0.25962 0.0
C6320 C 0.23702 0.43725 0.27275 0.0
C6321 C 0.22174 0.42144 0.2418 0.0
C6322 C 0.21463 0.40459 0.22767 0.0
C6323 C 0.2038 0.3891 0.23273 0.0
C6324 C 0.1967 0.37349 0.21917 0.0
C6325 C 0.20018 0.37327 0.20043 0.0
C6326 C 0.21074 0.38867 0.19521 0.0
C6327 C 0.21793 0.40428 0.20873 0.0
H6328 H 0.19462 0.3612 0.18995 0.0
H6329 H 0.24789 0.5141 0.3224 0.0
H6330 H 0.25306 0.44208 0.03054 0.0
H6331 H 0.22592 0.45333 0.02668 0.0
H6332 H 0.19494 0.39838 0.02413 0.0
H6333 H 0.22228 0.38683 0.02748 0.0
H6334 H 0.18153 0.41661 0.99766 0.0
H6335 H 0.20016 0.42964 0.06523 0.0
H6336 H 0.22251 0.44168 0.09322 0.0
H6337 H 0.23064 0.49553 0.07758 0.0
H6338 H 0.2084 0.48378 0.04945 0.0
H6339 H 0.10374 0.44913 0.0003 0.0
H6340 H 0.12716 0.435 0.01306 0.0
H6341 H 0.16505 0.48639 0.01723 0.0
H6342 H 0.14155 0.50052 0.00475 0.0
H6343 H 0.17332 0.46765 0.04531 0.0
H6344 H 0.1577 0.456 0.97785 0.0
H6345 H 0.13753 0.44546 0.94803 0.0
H6346 H 0.12613 0.39061 0.96105 0.0
H6347 H 0.14596 0.40093 0.99118 0.0
C6348 C 0.24049 0.43234 0.02915 0.0
C6349 C 0.23978 0.41359 0.02948 0.0
C6350 C 0.22499 0.43882 0.02702 0.0
C6351 C 0.20844 0.42677 0.02558 0.0
C6352 C 0.20761 0.40792 0.02538 0.0
C6353 C 0.2232 0.40136 0.0273 0.0
C6354 C 0.19211 0.43404 0.02429 0.0
C6355 C 0.17948 0.42745 0.00829 0.0
C6356 C 0.18978 0.44857 0.03791 0.0
C6357 C 0.20262 0.45582 0.05524 0.0
C6358 C 0.2067 0.44405 0.06778 0.0
C6359 C 0.21936 0.45082 0.08366 0.0
C6360 C 0.22799 0.46936 0.08717 0.0
C6361 C 0.22392 0.48118 0.07486 0.0
C6362 C 0.21124 0.47449 0.05899 0.0
C6363 C 0.11695 0.45751 0.00468 0.0
C6364 C 0.12101 0.47582 0.00165 0.0
C6365 C 0.13031 0.44945 0.01182 0.0
C6366 C 0.14789 0.45956 0.0157 0.0
C6367 C 0.15158 0.47835 0.01428 0.0
C6368 C 0.1382 0.48641 0.0072 0.0
C6369 C 0.16267 0.45016 0.01871 0.0
C6370 C 0.1751 0.45647 0.03493 0.0
C6371 C 0.16497 0.43556 0.00512 0.0
C6372 C 0.15313 0.42929 0.98691 0.0
C6373 C 0.15076 0.44173 0.97445 0.0
C6374 C 0.1394 0.43579 0.95748 0.0
C6375 C 0.13051 0.41739 0.95268 0.0
C6376 C 0.13299 0.40488 0.96482 0.0
C6377 C 0.14427 0.41076 0.98185 0.0
H6378 H 0.12173 0.41281 0.93952 0.0
H6379 H 0.23783 0.47456 0.09943 0.0
H6380 H 0.86265 0.974 0.24743 0.0
H6381 H 0.84458 0.94254 0.24148 0.0
H6382 H 0.89019 0.92236 0.26092 0.0
H6383 H 0.90837 0.95368 0.26589 0.0
H6384 H 0.87073 0.89816 0.23362 0.0
H6385 H 0.85935 0.93402 0.29039 0.0
H6386 H 0.85042 0.96003 0.30886 0.0
H6387 H 0.79903 0.94509 0.27611 0.0
H6388 H 0.80778 0.91919 0.25721 0.0
H6389 H 0.82932 0.81649 0.26316 0.0
H6390 H 0.84644 0.84645 0.26077 0.0
H6391 H 0.79836 0.86425 0.24547 0.0
H6392 H 0.78116 0.83492 0.24989 0.0
H6393 H 0.8183 0.88974 0.26845 0.0
H6394 H 0.83004 0.85197 0.21263 0.0
H6395 H 0.83956 0.8252 0.19635 0.0
H6396 H 0.89079 0.84294 0.22924 0.0
H6397 H 0.88153 0.86969 0.24585 0.0
C6398 C 0.86882 0.9627 0.24988 0.0
C6399 C 0.88678 0.96601 0.25699 0.0
C6400 C 0.85852 0.94481 0.24666 0.0
C6401 C 0.86594 0.93016 0.25119 0.0
C6402 C 0.88417 0.93343 0.25736 0.0
C6403 C 0.89453 0.95127 0.26019 0.0
C6404 C 0.85459 0.91174 0.25097 0.0
C6405 C 0.85927 0.89629 0.24125 0.0
C6406 C 0.83954 0.9093 0.26079 0.0
C6407 C 0.8343 0.92483 0.27223 0.0
C6408 C 0.8462 0.93638 0.28703 0.0
C6409 C 0.84116 0.95109 0.29758 0.0
C6410 C 0.82419 0.95425 0.29362 0.0
C6411 C 0.81219 0.94266 0.27913 0.0
C6412 C 0.81718 0.92798 0.26849 0.0
C6413 C 0.8222 0.82678 0.25964 0.0
C6414 C 0.80354 0.8232 0.25737 0.0
C6415 C 0.83216 0.84392 0.25784 0.0
C6416 C 0.82378 0.85762 0.25254 0.0
C6417 C 0.80521 0.85396 0.24964 0.0
C6418 C 0.79525 0.83703 0.25221 0.0
C6419 C 0.83427 0.87605 0.25092 0.0
C6420 C 0.82952 0.89154 0.26046 0.0
C6421 C 0.84932 0.87848 0.24105 0.0
C6422 C 0.85506 0.86278 0.23052 0.0
C6423 C 0.84333 0.85015 0.21638 0.0
C6424 C 0.84867 0.83497 0.20712 0.0
C6425 C 0.86576 0.83236 0.21178 0.0
C6426 C 0.87757 0.84498 0.22564 0.0
C6427 C 0.87229 0.86017 0.23494 0.0
H6428 H 0.86985 0.82056 0.20465 0.0
H6429 H 0.82031 0.96564 0.30181 0.0
H6430 H 0.71569 0.06985 0.74778 0.0
H6431 H 0.73011 0.10127 0.74489 0.0
H6432 H 0.68103 0.11859 0.75171 0.0
H6433 H 0.66646 0.08694 0.75366 0.0
H6434 H 0.69918 0.1377 0.72904 0.0
H6435 H 0.71127 0.11973 0.78996 0.0
H6436 H 0.7218 0.10154 0.8129 0.0
H6437 H 0.77398 0.11403 0.79633 0.0
H6438 H 0.7637 0.13207 0.77308 0.0
H6439 H 0.73577 0.2306 0.77096 0.0
H6440 H 0.71986 0.19848 0.76602 0.0
H6441 H 0.76817 0.18107 0.75555 0.0
H6442 H 0.78425 0.21299 0.76078 0.0
H6443 H 0.75016 0.16225 0.77921 0.0
H6444 H 0.73592 0.17691 0.71508 0.0
H6445 H 0.72359 0.19311 0.69113 0.0
H6446 H 0.67529 0.18836 0.71619 0.0
H6447 H 0.68692 0.17129 0.73968 0.0
C6448 C 0.70797 0.08035 0.74804 0.0
C6449 C 0.6902 0.07644 0.7511 0.0
C6450 C 0.71615 0.09818 0.74649 0.0
C6451 C 0.7067 0.11218 0.74868 0.0
C6452 C 0.68851 0.1079 0.75014 0.0
C6453 C 0.68023 0.08996 0.75129 0.0
C6454 C 0.71611 0.13144 0.7516 0.0
C6455 C 0.71026 0.14313 0.74007 0.0
C6456 C 0.7306 0.13835 0.76599 0.0
C6457 C 0.73665 0.12706 0.77961 0.0
C6458 C 0.72494 0.11842 0.79105 0.0
C6459 C 0.73087 0.10818 0.80415 0.0
C6460 C 0.74853 0.10659 0.80604 0.0
C6461 C 0.7603 0.11524 0.79482 0.0
C6462 C 0.75442 0.12546 0.78168 0.0
C6463 C 0.74304 0.2199 0.76788 0.0
C6464 C 0.76116 0.22418 0.76598 0.0
C6465 C 0.73389 0.20165 0.76479 0.0
C6466 C 0.74282 0.18764 0.75985 0.0
C6467 C 0.76109 0.19185 0.75903 0.0
C6468 C 0.77023 0.21002 0.76214 0.0
C6469 C 0.73339 0.16841 0.75648 0.0
C6470 C 0.73918 0.15676 0.76807 0.0
C6471 C 0.71877 0.16162 0.74234 0.0
C6472 C 0.71237 0.17312 0.72927 0.0
C6473 C 0.72276 0.17955 0.71562 0.0
C6474 C 0.71588 0.18879 0.70208 0.0
C6475 C 0.69884 0.19209 0.70236 0.0
C6476 C 0.68853 0.18593 0.71606 0.0
C6477 C 0.69519 0.17633 0.72938 0.0
H6478 H 0.69358 0.19927 0.69187 0.0
H6479 H 0.75312 0.0987 0.81623 0.0
loop_
_geom_bond_atom_site_label_1
_geom_bond_atom_site_label_2
_geom_bond_distance
_geom_bond_site_symmetry_2
_ccdc_geom_bond_type
Mg0 O1 2.028 . S
Mg0 O7 1.986 . S
Mg0 O9 2.114 . S
Mg0 O10 2.251 . S
Mg0 O13 2.010 . S
O1 Mg0 2.028 . S
O1 C4 1.250 . S
O2 Mg3 2.024 1_455 S
O2 C4 1.248 . S
Mg3 O2 2.024 1_655 S
Mg3 O8 2.027 1_655 S
Mg3 O10 2.077 1_655 S
C4 O1 1.250 . S
C4 O2 1.248 . S
C5 O6 1.264 . S
C5 O13 1.249 . S
O6 C5 1.264 . S
O7 Mg0 1.986 . S
O7 C11 1.246 . S
O8 Mg3 2.027 1_455 S
O8 C11 1.259 . S
O9 Mg0 2.114 . S
O9 C12 1.252 . S
O10 Mg0 2.251 . S
O10 Mg3 2.077 1_455 S
O10 C12 1.273 . S
C11 O7 1.246 . S
C11 O8 1.259 . S
C12 O9 1.252 . S
C12 O10 1.273 . S
O13 Mg0 2.010 . S
O13 C5 1.249 . S
Mg14 O15 2.028 . S
Mg14 O21 1.986 . S
Mg14 O23 2.138 . S
Mg14 O24 2.251 1_455 S
Mg14 O27 2.010 . S
O15 Mg14 2.028 . S
O15 C18 1.250 . S
O16 Mg17 2.028 . S
O16 C18 1.248 1_655 S
Mg17 O16 2.028 . S
Mg17 O22 2.032 . S
Mg17 O24 2.079 . S
C18 O15 1.250 . S
C18 O16 1.248 1_455 S
C19 O20 1.264 . S
C19 O27 1.249 . S
O20 C19 1.264 . S
O21 Mg14 1.986 . S
O21 C25 1.246 . S
O22 Mg17 2.032 . S
O22 C25 1.259 1_655 S
O23 Mg14 2.138 . S
O23 C26 1.213 1_455 S
O24 Mg14 2.251 1_655 S
O24 Mg17 2.079 . S
O24 C26 1.273 . S
C25 O21 1.246 . S
C25 O22 1.259 1_455 S
C26 O23 1.213 1_655 S
C26 O24 1.273 . S
O27 Mg14 2.010 . S
O27 C19 1.249 . S
Mg28 O29 2.028 . S
Mg28 O35 1.986 . S
Mg28 O37 2.114 . S
Mg28 O38 2.251 . S
Mg28 O41 2.010 . S
O29 Mg28 2.028 . S
O29 C32 1.250 . S
O30 Mg31 2.028 . S
O30 C32 1.248 . S
Mg31 O30 2.028 . S
Mg31 O36 2.032 . S
Mg31 O38 2.079 . S
C32 O29 1.250 . S
C32 O30 1.248 . S
C33 O34 1.264 . S
C33 O41 1.249 . S
O34 C33 1.264 . S
O35 Mg28 1.986 . S
O35 C39 1.246 . S
O36 Mg31 2.032 . S
O36 C39 1.259 . S
O37 Mg28 2.114 . S
O37 C40 1.252 . S
O38 Mg28 2.251 . S
O38 Mg31 2.079 . S
O38 C40 1.273 . S
C39 O35 1.246 . S
C39 O36 1.259 . S
C40 O37 1.252 . S
C40 O38 1.273 . S
O41 Mg28 2.010 . S
O41 C33 1.249 . S
Mg42 O43 2.028 . S
Mg42 O49 1.986 . S
Mg42 O51 2.114 . S
Mg42 O52 2.251 . S
Mg42 O55 2.010 . S
O43 Mg42 2.028 . S
O43 C46 1.250 . S
O44 Mg45 2.028 . S
O44 C46 1.248 . S
Mg45 O44 2.028 . S
Mg45 O50 2.032 . S
Mg45 O52 2.079 . S
C46 O43 1.250 . S
C46 O44 1.248 . S
C47 O48 1.264 . S
C47 O55 1.249 . S
O48 C47 1.264 . S
O49 Mg42 1.986 . S
O49 C53 1.246 . S
O50 Mg45 2.032 . S
O50 C53 1.259 . S
O51 Mg42 2.114 . S
O51 C54 1.252 . S
O52 Mg42 2.251 . S
O52 Mg45 2.079 . S
O52 C54 1.273 . S
C53 O49 1.246 . S
C53 O50 1.259 . S
C54 O51 1.252 . S
C54 O52 1.273 . S
O55 Mg42 2.010 . S
O55 C47 1.249 . S
Mg56 O57 2.028 . S
Mg56 O63 1.986 . S
Mg56 O65 2.114 . S
Mg56 O66 2.251 . S
Mg56 O69 2.010 . S
O57 Mg56 2.028 . S
O57 C60 1.250 . S
O58 Mg59 2.028 . S
O58 C60 1.248 . S
Mg59 O58 2.028 . S
Mg59 O64 2.032 . S
Mg59 O66 2.079 . S
C60 O57 1.250 . S
C60 O58 1.248 . S
C61 O62 1.264 . S
C61 O69 1.249 . S
O62 C61 1.264 . S
O63 Mg56 1.986 . S
O63 C67 1.246 . S
O64 Mg59 2.032 . S
O64 C67 1.259 . S
O65 Mg56 2.114 . S
O65 C68 1.252 . S
O66 Mg56 2.251 . S
O66 Mg59 2.079 . S
O66 C68 1.273 . S
C67 O63 1.246 . S
C67 O64 1.259 . S
C68 O65 1.252 . S
C68 O66 1.273 . S
O69 Mg56 2.010 . S
O69 C61 1.249 . S
Mg70 O71 2.028 . S
Mg70 O77 1.986 . S
Mg70 O79 2.114 . S
Mg70 O80 2.251 . S
Mg70 O83 2.010 . S
O71 Mg70 2.028 . S
O71 C74 1.250 . S
O72 Mg73 2.028 . S
O72 C74 1.248 . S
Mg73 O72 2.028 . S
Mg73 O78 2.032 . S
Mg73 O80 2.079 . S
C74 O71 1.250 . S
C74 O72 1.248 . S
C75 O76 1.264 . S
C75 O83 1.249 . S
O76 C75 1.264 . S
O77 Mg70 1.986 . S
O77 C81 1.246 . S
O78 Mg73 2.032 . S
O78 C81 1.259 . S
O79 Mg70 2.114 . S
O79 C82 1.252 . S
O80 Mg70 2.251 . S
O80 Mg73 2.079 . S
O80 C82 1.273 . S
C81 O77 1.246 . S
C81 O78 1.259 . S
C82 O79 1.252 . S
C82 O80 1.273 . S
O83 Mg70 2.010 . S
O83 C75 1.249 . S
Mg84 O85 2.028 . S
Mg84 O91 1.986 . S
Mg84 O93 2.114 . S
Mg84 O94 2.251 . S
Mg84 O97 2.010 . S
O85 Mg84 2.028 . S
O85 C88 1.250 . S
O86 Mg87 2.028 . S
O86 C88 1.248 . S
Mg87 O86 2.028 . S
Mg87 O92 2.032 . S
Mg87 O94 2.079 . S
C88 O85 1.250 . S
C88 O86 1.248 . S
C89 O90 1.264 . S
C89 O97 1.249 . S
O90 C89 1.264 . S
O91 Mg84 1.986 . S
O91 C95 1.246 . S
O92 Mg87 2.032 . S
O92 C95 1.259 . S
O93 Mg84 2.114 . S
O93 C96 1.252 . S
O94 Mg84 2.251 . S
O94 Mg87 2.079 . S
O94 C96 1.273 . S
C95 O91 1.246 . S
C95 O92 1.259 . S
C96 O93 1.252 . S
C96 O94 1.273 . S
O97 Mg84 2.010 . S
O97 C89 1.249 . S
Mg98 O99 2.028 1_655 S
Mg98 O105 1.986 1_655 S
Mg98 O107 2.114 . S
Mg98 O108 2.251 . S
Mg98 O111 2.010 1_655 S
O99 Mg98 2.028 1_455 S
O99 C102 1.237 1_455 S
O100 Mg101 2.028 . S
O100 C102 1.267 . S
Mg101 O100 2.028 . S
Mg101 O106 2.032 . S
Mg101 O108 2.079 . S
C102 O99 1.237 1_655 S
C102 O100 1.267 . S
C103 O104 1.264 . S
C103 O111 1.249 . S
O104 C103 1.264 . S
O105 Mg98 1.986 1_455 S
O105 C109 1.246 1_455 S
O106 Mg101 2.032 . S
O106 C109 1.259 . S
O107 Mg98 2.114 . S
O107 C110 1.252 . S
O108 Mg98 2.251 . S
O108 Mg101 2.079 . S
O108 C110 1.273 . S
C109 O105 1.246 1_655 S
C109 O106 1.259 . S
C110 O107 1.252 . S
C110 O108 1.273 . S
O111 Mg98 2.010 1_455 S
O111 C103 1.249 . S
Mg112 O113 2.028 1_545 S
Mg112 O119 1.986 . S
Mg112 O121 2.114 . S
Mg112 O122 2.251 . S
Mg112 O125 2.010 . S
O113 Mg112 2.028 1_565 S
O113 C116 1.250 . S
O114 Mg115 2.028 1_565 S
O114 C116 1.248 . S
Mg115 O114 2.028 1_545 S
Mg115 O120 2.032 . S
Mg115 O122 2.079 . S
C116 O113 1.250 . S
C116 O114 1.248 . S
C117 O118 1.264 . S
C117 O125 1.249 . S
O118 C117 1.264 . S
O119 Mg112 1.986 . S
O119 C123 1.246 . S
O120 Mg115 2.032 . S
O120 C123 1.259 . S
O121 Mg112 2.114 . S
O121 C124 1.252 . S
O122 Mg112 2.251 . S
O122 Mg115 2.079 . S
O122 C124 1.273 . S
C123 O119 1.246 . S
C123 O120 1.259 . S
C124 O121 1.252 . S
C124 O122 1.273 . S
O125 Mg112 2.010 . S
O125 C117 1.249 . S
Mg126 O127 2.028 . S
Mg126 O133 1.986 . S
Mg126 O135 2.114 . S
Mg126 O136 2.251 . S
Mg126 O139 2.010 . S
O127 Mg126 2.028 . S
O127 C130 1.250 . S
O128 Mg129 2.028 . S
O128 C130 1.248 . S
Mg129 O128 2.028 . S
Mg129 O134 2.032 . S
Mg129 O136 2.079 . S
C130 O127 1.250 . S
C130 O128 1.248 . S
C131 O132 1.264 . S
C131 O139 1.249 . S
O132 C131 1.264 . S
O133 Mg126 1.986 . S
O133 C137 1.246 . S
O134 Mg129 2.032 . S
O134 C137 1.259 . S
O135 Mg126 2.114 . S
O135 C138 1.252 . S
O136 Mg126 2.251 . S
O136 Mg129 2.079 . S
O136 C138 1.273 . S
C137 O133 1.246 . S
C137 O134 1.259 . S
C138 O135 1.252 . S
C138 O136 1.273 . S
O139 Mg126 2.010 . S
O139 C131 1.249 . S
Mg140 O141 2.028 . S
Mg140 O147 1.986 . S
Mg140 O149 2.114 . S
Mg140 O150 2.251 . S
Mg140 O153 2.010 . S
O141 Mg140 2.028 . S
O141 C144 1.250 . S
O142 Mg143 2.028 . S
O142 C144 1.248 . S
Mg143 O142 2.028 . S
Mg143 O148 2.032 . S
Mg143 O150 2.079 . S
C144 O141 1.250 . S
C144 O142 1.248 . S
C145 O146 1.264 . S
C145 O153 1.249 . S
O146 C145 1.264 . S
O147 Mg140 1.986 . S
O147 C151 1.246 . S
O148 Mg143 2.032 . S
O148 C151 1.259 . S
O149 Mg140 2.114 . S
O149 C152 1.252 . S
O150 Mg140 2.251 . S
O150 Mg143 2.079 . S
O150 C152 1.273 . S
C151 O147 1.246 . S
C151 O148 1.259 . S
C152 O149 1.252 . S
C152 O150 1.273 . S
O153 Mg140 2.010 . S
O153 C145 1.249 . S
Mg154 O155 2.028 1_554 S
Mg154 O161 1.986 . S
Mg154 O163 2.114 1_554 S
Mg154 O164 2.251 . S
Mg154 O167 2.010 . S
O155 Mg154 2.028 1_556 S
O155 C158 1.250 . S
O156 Mg157 2.028 1_556 S
O156 C158 1.248 . S
Mg157 O156 2.028 1_554 S
Mg157 O162 2.032 . S
Mg157 O164 2.079 . S
C158 O155 1.250 . S
C158 O156 1.248 . S
C159 O160 1.264 . S
C159 O167 1.249 . S
O160 C159 1.264 . S
O161 Mg154 1.986 . S
O161 C165 1.246 . S
O162 Mg157 2.032 . S
O162 C165 1.259 . S
O163 Mg154 2.114 1_556 S
O163 C166 1.252 1_556 S
O164 Mg154 2.251 . S
O164 Mg157 2.079 . S
O164 C166 1.273 . S
C165 O161 1.246 . S
C165 O162 1.259 . S
C166 O163 1.252 1_554 S
C166 O164 1.273 . S
O167 Mg154 2.010 . S
O167 C159 1.249 . S
Mg168 O169 2.028 . S
Mg168 O175 1.986 . S
Mg168 O177 2.114 . S
Mg168 O178 2.251 . S
Mg168 O181 2.010 . S
O169 Mg168 2.028 . S
O169 C172 1.250 . S
O170 Mg171 2.028 . S
O170 C172 1.248 . S
Mg171 O170 2.028 . S
Mg171 O176 2.032 . S
Mg171 O178 2.079 . S
C172 O169 1.250 . S
C172 O170 1.248 . S
C173 O174 1.264 . S
C173 O181 1.249 . S
O174 C173 1.264 . S
O175 Mg168 1.986 . S
O175 C179 1.246 . S
O176 Mg171 2.032 . S
O176 C179 1.259 . S
O177 Mg168 2.114 . S
O177 C180 1.252 . S
O178 Mg168 2.251 . S
O178 Mg171 2.079 . S
O178 C180 1.273 . S
C179 O175 1.246 . S
C179 O176 1.259 . S
C180 O177 1.252 . S
C180 O178 1.273 . S
O181 Mg168 2.010 . S
O181 C173 1.249 . S
Mg182 O183 2.028 . S
Mg182 O189 1.986 . S
Mg182 O191 2.114 . S
Mg182 O192 2.251 . S
Mg182 O195 2.010 . S
O183 Mg182 2.028 . S
O183 C186 1.250 . S
O184 Mg185 2.028 . S
O184 C186 1.248 . S
Mg185 O184 2.028 . S
Mg185 O190 2.032 . S
Mg185 O192 2.079 . S
C186 O183 1.250 . S
C186 O184 1.248 . S
C187 O188 1.264 . S
C187 O195 1.249 . S
O188 C187 1.264 . S
O189 Mg182 1.986 . S
O189 C193 1.246 . S
O190 Mg185 2.032 . S
O190 C193 1.259 . S
O191 Mg182 2.114 . S
O191 C194 1.252 . S
O192 Mg182 2.251 . S
O192 Mg185 2.079 . S
O192 C194 1.273 . S
C193 O189 1.246 . S
C193 O190 1.259 . S
C194 O191 1.252 . S
C194 O192 1.273 . S
O195 Mg182 2.010 . S
O195 C187 1.249 . S
Mg196 O197 2.028 . S
Mg196 O203 1.986 . S
Mg196 O205 2.114 . S
Mg196 O206 2.251 . S
Mg196 O209 2.010 . S
O197 Mg196 2.028 . S
O197 C200 1.250 . S
O198 Mg199 2.028 . S
O198 C200 1.248 . S
Mg199 O198 2.028 . S
Mg199 O204 2.032 . S
Mg199 O206 2.079 . S
C200 O197 1.250 . S
C200 O198 1.248 . S
C201 O202 1.264 . S
C201 O209 1.249 . S
O202 C201 1.264 . S
O203 Mg196 1.986 . S
O203 C207 1.246 . S
O204 Mg199 2.032 . S
O204 C207 1.259 . S
O205 Mg196 2.114 . S
O205 C208 1.252 . S
O206 Mg196 2.251 . S
O206 Mg199 2.079 . S
O206 C208 1.273 . S
C207 O203 1.246 . S
C207 O204 1.259 . S
C208 O205 1.252 . S
C208 O206 1.273 . S
O209 Mg196 2.010 . S
O209 C201 1.249 . S
Mg210 O211 2.028 . S
Mg210 O217 1.986 . S
Mg210 O219 2.114 . S
Mg210 O220 2.251 . S
Mg210 O223 2.010 . S
O211 Mg210 2.028 . S
O211 C214 1.250 . S
O212 Mg213 2.028 . S
O212 C214 1.248 . S
Mg213 O212 2.028 . S
Mg213 O218 2.032 . S
Mg213 O220 2.079 . S
C214 O211 1.250 . S
C214 O212 1.248 . S
C215 O216 1.264 . S
C215 O223 1.249 . S
O216 C215 1.264 . S
O217 Mg210 1.986 . S
O217 C221 1.246 . S
O218 Mg213 2.032 . S
O218 C221 1.259 . S
O219 Mg210 2.114 . S
O219 C222 1.252 . S
O220 Mg210 2.251 . S
O220 Mg213 2.079 . S
O220 C222 1.273 . S
C221 O217 1.246 . S
C221 O218 1.259 . S
C222 O219 1.252 . S
C222 O220 1.273 . S
O223 Mg210 2.010 . S
O223 C215 1.249 . S
Mg224 O225 2.028 1_545 S
Mg224 O231 1.986 . S
Mg224 O233 2.114 . S
Mg224 O234 2.251 . S
Mg224 O237 2.010 . S
O225 Mg224 2.028 1_565 S
O225 C228 1.250 . S
O226 Mg227 2.028 1_565 S
O226 C228 1.248 . S
Mg227 O226 2.028 1_545 S
Mg227 O232 2.032 . S
Mg227 O234 2.079 . S
C228 O225 1.250 . S
C228 O226 1.248 . S
C229 O230 1.264 . S
C229 O237 1.249 . S
O230 C229 1.264 . S
O231 Mg224 1.986 . S
O231 C235 1.246 . S
O232 Mg227 2.032 . S
O232 C235 1.259 . S
O233 Mg224 2.114 . S
O233 C236 1.252 . S
O234 Mg224 2.251 . S
O234 Mg227 2.079 . S
O234 C236 1.273 . S
C235 O231 1.246 . S
C235 O232 1.259 . S
C236 O233 1.252 . S
C236 O234 1.273 . S
O237 Mg224 2.010 . S
O237 C229 1.249 . S
Mg238 O239 2.028 . S
Mg238 O245 1.986 . S
Mg238 O247 2.114 . S
Mg238 O248 2.251 . S
Mg238 O251 2.010 . S
O239 Mg238 2.028 . S
O239 C242 1.250 . S
O240 Mg241 2.028 . S
O240 C242 1.248 . S
Mg241 O240 2.028 . S
Mg241 O246 2.032 . S
Mg241 O248 2.079 . S
C242 O239 1.250 . S
C242 O240 1.248 . S
C243 O244 1.264 . S
C243 O251 1.249 . S
O244 C243 1.264 . S
O245 Mg238 1.986 . S
O245 C249 1.246 . S
O246 Mg241 2.032 . S
O246 C249 1.259 . S
O247 Mg238 2.114 . S
O247 C250 1.252 . S
O248 Mg238 2.251 . S
O248 Mg241 2.079 . S
O248 C250 1.273 . S
C249 O245 1.246 . S
C249 O246 1.259 . S
C250 O247 1.252 . S
C250 O248 1.273 . S
O251 Mg238 2.010 . S
O251 C243 1.249 . S
Mg252 O253 2.028 . S
Mg252 O259 1.986 . S
Mg252 O261 2.114 . S
Mg252 O262 2.251 . S
Mg252 O265 2.010 . S
O253 Mg252 2.028 . S
O253 C256 1.250 . S
O254 Mg255 2.028 . S
O254 C256 1.248 . S
Mg255 O254 2.028 . S
Mg255 O260 2.032 . S
Mg255 O262 2.079 . S
C256 O253 1.250 . S
C256 O254 1.248 . S
C257 O258 1.264 . S
C257 O265 1.249 . S
O258 C257 1.264 . S
O259 Mg252 1.986 . S
O259 C263 1.246 . S
O260 Mg255 2.032 . S
O260 C263 1.259 . S
O261 Mg252 2.114 . S
O261 C264 1.252 . S
O262 Mg252 2.251 . S
O262 Mg255 2.079 . S
O262 C264 1.273 . S
C263 O259 1.246 . S
C263 O260 1.259 . S
C264 O261 1.252 . S
C264 O262 1.273 . S
O265 Mg252 2.010 . S
O265 C257 1.249 . S
Mg266 O267 2.028 . S
Mg266 O273 1.986 . S
Mg266 O275 2.114 . S
Mg266 O276 2.251 . S
Mg266 O279 2.010 . S
O267 Mg266 2.028 . S
O267 C270 1.250 . S
O268 Mg269 2.028 . S
O268 C270 1.248 . S
Mg269 O268 2.028 . S
Mg269 O274 2.032 . S
Mg269 O276 2.079 . S
C270 O267 1.250 . S
C270 O268 1.248 . S
C271 O272 1.264 . S
C271 O279 1.249 . S
O272 C271 1.264 . S
O273 Mg266 1.986 . S
O273 C277 1.246 . S
O274 Mg269 2.032 . S
O274 C277 1.259 . S
O275 Mg266 2.114 . S
O275 C278 1.252 . S
O276 Mg266 2.251 . S
O276 Mg269 2.079 . S
O276 C278 1.273 . S
C277 O273 1.246 . S
C277 O274 1.259 . S
C278 O275 1.252 . S
C278 O276 1.273 . S
O279 Mg266 2.010 . S
O279 C271 1.249 . S
Mg280 O281 2.028 1_556 S
Mg280 O287 1.986 . S
Mg280 O289 2.114 1_556 S
Mg280 O290 2.251 . S
Mg280 O293 2.010 . S
O281 Mg280 2.028 1_554 S
O281 C284 1.250 . S
O282 Mg283 2.028 . S
O282 C284 1.248 . S
Mg283 O282 2.028 . S
Mg283 O288 2.032 1_554 S
Mg283 O290 2.079 1_554 S
C284 O281 1.250 . S
C284 O282 1.248 . S
C285 O286 1.264 . S
C285 O293 1.249 . S
O286 C285 1.264 . S
O287 Mg280 1.986 . S
O287 C291 1.246 . S
O288 Mg283 2.032 1_556 S
O288 C291 1.259 . S
O289 Mg280 2.114 1_554 S
O289 C292 1.252 . S
O290 Mg280 2.251 . S
O290 Mg283 2.079 1_556 S
O290 C292 1.273 1_556 S
C291 O287 1.246 . S
C291 O288 1.259 . S
C292 O289 1.252 . S
C292 O290 1.273 1_554 S
O293 Mg280 2.010 . S
O293 C285 1.249 . S
Mg294 O295 2.028 . S
Mg294 O301 1.986 . S
Mg294 O303 2.114 . S
Mg294 O304 2.251 . S
Mg294 O307 2.010 . S
O295 Mg294 2.028 . S
O295 C298 1.250 . S
O296 Mg297 2.028 . S
O296 C298 1.248 . S
Mg297 O296 2.028 . S
Mg297 O302 2.032 . S
Mg297 O304 2.079 . S
C298 O295 1.250 . S
C298 O296 1.248 . S
C299 O300 1.264 . S
C299 O307 1.249 . S
O300 C299 1.264 . S
O301 Mg294 1.986 . S
O301 C305 1.246 . S
O302 Mg297 2.032 . S
O302 C305 1.259 . S
O303 Mg294 2.114 . S
O303 C306 1.252 . S
O304 Mg294 2.251 . S
O304 Mg297 2.079 . S
O304 C306 1.273 . S
C305 O301 1.246 . S
C305 O302 1.259 . S
C306 O303 1.252 . S
C306 O304 1.273 . S
O307 Mg294 2.010 . S
O307 C299 1.249 . S
Mg308 O309 2.028 . S
Mg308 O315 1.986 . S
Mg308 O317 2.114 . S
Mg308 O318 2.251 . S
Mg308 O321 2.010 . S
O309 Mg308 2.028 . S
O309 C312 1.250 . S
O310 Mg311 2.028 . S
O310 C312 1.248 . S
Mg311 O310 2.028 . S
Mg311 O316 2.032 . S
Mg311 O318 2.079 . S
C312 O309 1.250 . S
C312 O310 1.248 . S
C313 O314 1.264 . S
C313 O321 1.249 . S
O314 C313 1.264 . S
O315 Mg308 1.986 . S
O315 C319 1.246 . S
O316 Mg311 2.032 . S
O316 C319 1.259 . S
O317 Mg308 2.114 . S
O317 C320 1.252 . S
O318 Mg308 2.251 . S
O318 Mg311 2.079 . S
O318 C320 1.273 . S
C319 O315 1.246 . S
C319 O316 1.259 . S
C320 O317 1.252 . S
C320 O318 1.273 . S
O321 Mg308 2.010 . S
O321 C313 1.249 . S
Mg322 O323 2.028 . S
Mg322 O329 1.986 . S
Mg322 O331 2.114 . S
Mg322 O332 2.251 . S
Mg322 O335 2.010 . S
O323 Mg322 2.028 . S
O323 C326 1.250 . S
O324 Mg325 2.028 . S
O324 C326 1.248 . S
Mg325 O324 2.028 . S
Mg325 O330 2.032 . S
Mg325 O332 2.079 . S
C326 O323 1.250 . S
C326 O324 1.248 . S
C327 O328 1.264 . S
C327 O335 1.249 . S
O328 C327 1.264 . S
O329 Mg322 1.986 . S
O329 C333 1.246 . S
O330 Mg325 2.032 . S
O330 C333 1.259 . S
O331 Mg322 2.114 . S
O331 C334 1.252 . S
O332 Mg322 2.251 . S
O332 Mg325 2.079 . S
O332 C334 1.273 . S
C333 O329 1.246 . S
C333 O330 1.259 . S
C334 O331 1.252 . S
C334 O332 1.273 . S
O335 Mg322 2.010 . S
O335 C327 1.249 . S
C336 C338 1.422 . S
C336 C340 1.415 . S
C336 N342 1.369 . S
C337 C338 1.409 1_554 S
C337 C339 1.401 1_554 S
C337 C349 1.451 . S
C338 C336 1.422 . S
C338 C337 1.409 1_556 S
C338 N348 1.359 1_556 S
C339 C337 1.401 1_556 S
C339 C341 1.329 . S
C339 H358 0.930 . S
C340 C336 1.415 . S
C340 C341 1.437 . S
C340 C344 1.413 . S
C341 C339 1.329 . S
C341 C340 1.437 . S
C341 H363 0.929 . S
N342 C336 1.369 . S
N342 C343 1.338 . S
N342 Gd347 2.622 1_565 S
C343 N342 1.338 . S
C343 C345 1.378 . S
C343 H355 0.929 . S
C344 C340 1.413 . S
C344 C345 1.348 . S
C344 H360 0.931 . S
C345 C343 1.378 . S
C345 C344 1.348 . S
C345 H361 0.930 . S
Gd346 N366 2.622 . S
Gd346 N373 2.570 . S
Gd346 O380 2.353 1_545 S
Gd346 O381 2.468 . S
Gd346 O382 2.427 . S
Gd346 O384 2.388 . S
Gd346 O385 2.386 . S
Gd346 O389 2.307 1_554 S
Gd346 C399 2.805 . S
Gd347 N342 2.622 1_545 S
Gd347 N348 2.570 1_546 S
Gd347 O379 2.386 1_646 S
Gd347 O383 2.307 1_656 S
Gd347 O386 2.353 1_656 S
Gd347 O387 2.468 1_556 S
Gd347 O388 2.427 . S
Gd347 O390 2.388 1_655 S
Gd347 C411 2.805 . S
N348 C338 1.359 1_554 S
N348 Gd347 2.570 1_564 S
N348 C350 1.343 . S
C349 C337 1.451 . S
C349 C351 1.321 . S
C349 H357 0.931 . S
C350 N348 1.343 . S
C350 C351 1.390 . S
C350 H352 0.931 . S
C351 C349 1.321 . S
C351 C350 1.390 . S
C351 H353 0.930 . S
H352 C350 0.931 . S
H353 C351 0.930 . S
H354 C377 0.901 1_556 S
H355 C343 0.929 . S
H356 C378 0.930 . S
H357 C349 0.931 . S
H358 C339 0.930 . S
H359 C368 0.929 . S
H360 C344 0.931 . S
H361 C345 0.930 . S
H362 C400 0.930 . S
H363 C341 0.929 . S
H364 C369 0.931 . S
H365 C370 0.930 . S
N366 Gd346 2.622 . S
N366 C367 1.369 . S
N366 C368 1.338 . S
C367 N366 1.369 . S
C367 C371 1.415 . S
C367 C374 1.422 . S
C368 H359 0.929 . S
C368 N366 1.338 . S
C368 C370 1.378 . S
C369 H364 0.931 . S
C369 C370 1.348 . S
C369 C371 1.413 . S
C370 H365 0.930 . S
C370 C368 1.378 . S
C370 C369 1.348 . S
C371 C367 1.415 . S
C371 C369 1.413 . S
C371 C401 1.437 . S
H372 C401 0.929 . S
N373 Gd346 2.570 . S
N373 C374 1.359 . S
N373 C377 1.401 . S
C374 C367 1.422 . S
C374 N373 1.359 . S
C374 C376 1.421 . S
C375 C376 1.422 . S
C375 C378 1.321 1_554 S
C375 H402 0.931 . S
C376 C374 1.421 . S
C376 C375 1.422 . S
C376 C400 1.417 . S
C377 H354 0.901 1_554 S
C377 N373 1.401 . S
C377 C378 1.363 1_554 S
C378 H356 0.930 . S
C378 C375 1.321 1_556 S
C378 C377 1.363 1_556 S
O379 Gd347 2.386 1_464 S
O379 C391 1.265 . S
O380 Gd346 2.353 1_565 S
O380 C391 1.242 . S
O381 Gd346 2.468 . S
O381 C399 1.263 . S
O382 Gd346 2.427 . S
O382 C399 1.252 . S
O383 Gd347 2.307 1_454 S
O383 C392 1.261 . S
O384 Gd346 2.388 . S
O384 C392 1.252 . S
O385 Gd346 2.386 . S
O385 C403 1.265 . S
O386 Gd347 2.353 1_454 S
O386 C403 1.242 . S
O387 Gd347 2.468 1_554 S
O387 C411 1.263 1_554 S
O388 Gd347 2.427 . S
O388 C411 1.252 . S
O389 Gd346 2.307 1_556 S
O389 C404 1.261 . S
O390 Gd347 2.388 1_455 S
O390 C404 1.252 . S
C391 O379 1.265 . S
C391 O380 1.242 . S
C392 O383 1.261 . S
C392 O384 1.252 . S
C393 C396 1.394 . S
C393 C398 1.370 . S
C393 C399 1.500 . S
C394 C397 1.396 1_565 S
C394 C398 1.374 1_565 S
C395 C396 1.396 . S
C395 C397 1.374 . S
C395 H412 0.929 . S
C396 C393 1.394 . S
C396 C395 1.396 . S
C396 H413 0.930 . S
C397 C394 1.396 1_545 S
C397 C395 1.374 . S
C397 H414 0.918 1_545 S
C398 C393 1.370 . S
C398 C394 1.374 1_545 S
C398 H415 0.930 . S
C399 Gd346 2.805 . S
C399 O381 1.263 . S
C399 O382 1.252 . S
C399 C393 1.500 . S
C400 H362 0.930 . S
C400 C376 1.417 . S
C400 C401 1.329 . S
C401 C371 1.437 . S
C401 H372 0.929 . S
C401 C400 1.329 . S
H402 C375 0.931 . S
C403 O385 1.265 . S
C403 O386 1.242 . S
C404 O389 1.261 . S
C404 O390 1.252 . S
C405 C408 1.394 . S
C405 C410 1.370 1_556 S
C405 C411 1.500 . S
C406 C409 1.378 . S
C406 C410 1.396 1_556 S
C407 C408 1.396 . S
C407 C409 1.365 . S
C407 H416 0.929 . S
C408 C405 1.394 . S
C408 C407 1.396 . S
C408 H417 0.930 . S
C409 C406 1.378 . S
C409 C407 1.365 . S
C409 H418 0.931 . S
C410 C405 1.370 1_554 S
C410 C406 1.396 1_554 S
C410 H419 0.930 . S
C411 Gd347 2.805 . S
C411 O387 1.263 1_556 S
C411 O388 1.252 . S
C411 C405 1.500 . S
H412 C395 0.929 . S
H413 C396 0.930 . S
H414 C397 0.918 1_565 S
H415 C398 0.930 . S
H416 C407 0.929 . S
H417 C408 0.930 . S
H418 C409 0.931 . S
H419 C410 0.930 . S
C420 C422 1.422 . S
C420 C424 1.415 . S
C420 N426 1.369 . S
C421 C422 1.421 . S
C421 C423 1.417 . S
C421 C433 1.422 . S
C422 C420 1.422 . S
C422 C421 1.421 . S
C422 N432 1.359 . S
C423 C421 1.417 . S
C423 C425 1.329 . S
C423 H442 0.930 . S
C424 C420 1.415 . S
C424 C425 1.437 . S
C424 C428 1.413 . S
C425 C423 1.329 . S
C425 C424 1.437 . S
C425 H447 0.929 . S
N426 C420 1.369 . S
N426 C427 1.338 . S
N426 Gd431 2.622 . S
C427 N426 1.338 . S
C427 C429 1.378 . S
C427 H439 0.929 . S
C428 C424 1.413 . S
C428 C429 1.348 . S
C428 H444 0.931 . S
C429 C427 1.378 . S
C429 C428 1.348 . S
C429 H445 0.930 . S
Gd430 N450 2.622 . S
Gd430 N457 2.570 . S
Gd430 O464 2.353 . S
Gd430 O465 2.468 . S
Gd430 O466 2.427 . S
Gd430 O468 2.388 . S
Gd430 O469 2.386 . S
Gd430 O473 2.307 . S
Gd430 C483 2.805 . S
Gd431 N426 2.622 . S
Gd431 N432 2.570 . S
Gd431 O463 2.386 . S
Gd431 O467 2.307 . S
Gd431 O470 2.353 . S
Gd431 O471 2.468 . S
Gd431 O472 2.427 . S
Gd431 O474 2.388 . S
Gd431 C495 2.805 . S
N432 C422 1.359 . S
N432 Gd431 2.570 . S
N432 C434 1.343 . S
C433 C421 1.422 . S
C433 C435 1.321 . S
C433 H441 0.931 . S
C434 N432 1.343 . S
C434 C435 1.390 . S
C434 H436 0.931 . S
C435 C433 1.321 . S
C435 C434 1.390 . S
C435 H437 0.930 . S
H436 C434 0.931 . S
H437 C435 0.930 . S
H438 C461 0.931 . S
H439 C427 0.929 . S
H440 C462 0.930 . S
H441 C433 0.931 . S
H442 C423 0.930 . S
H443 C452 0.929 . S
H444 C428 0.931 . S
H445 C429 0.930 . S
H446 C484 0.930 . S
H447 C425 0.929 . S
H448 C453 0.931 . S
H449 C454 0.930 . S
N450 Gd430 2.622 . S
N450 C451 1.369 . S
N450 C452 1.338 . S
C451 N450 1.369 . S
C451 C455 1.415 . S
C451 C458 1.422 . S
C452 H443 0.929 . S
C452 N450 1.338 . S
C452 C454 1.378 . S
C453 H448 0.931 . S
C453 C454 1.348 . S
C453 C455 1.413 . S
C454 H449 0.930 . S
C454 C452 1.378 . S
C454 C453 1.348 . S
C455 C451 1.415 . S
C455 C453 1.413 . S
C455 C485 1.437 . S
H456 C485 0.929 . S
N457 Gd430 2.570 . S
N457 C458 1.359 . S
N457 C461 1.343 . S
C458 C451 1.422 . S
C458 N457 1.359 . S
C458 C460 1.421 . S
C459 C460 1.422 . S
C459 C462 1.321 . S
C459 H486 0.931 . S
C460 C458 1.421 . S
C460 C459 1.422 . S
C460 C484 1.417 . S
C461 H438 0.931 . S
C461 N457 1.343 . S
C461 C462 1.390 . S
C462 H440 0.930 . S
C462 C459 1.321 . S
C462 C461 1.390 . S
O463 Gd431 2.386 . S
O463 C475 1.265 . S
O464 Gd430 2.353 . S
O464 C475 1.242 . S
O465 Gd430 2.468 . S
O465 C483 1.263 . S
O466 Gd430 2.427 . S
O466 C483 1.252 . S
O467 Gd431 2.307 . S
O467 C476 1.261 . S
O468 Gd430 2.388 . S
O468 C476 1.252 . S
O469 Gd430 2.386 . S
O469 C487 1.265 . S
O470 Gd431 2.353 . S
O470 C487 1.242 . S
O471 Gd431 2.468 . S
O471 C495 1.263 . S
O472 Gd431 2.427 . S
O472 C495 1.252 . S
O473 Gd430 2.307 . S
O473 C488 1.261 . S
O474 Gd431 2.388 . S
O474 C488 1.252 . S
C475 O463 1.265 . S
C475 O464 1.242 . S
C476 O467 1.261 . S
C476 O468 1.252 . S
C477 C480 1.394 . S
C477 C482 1.370 . S
C477 C483 1.500 . S
C478 C481 1.383 . S
C478 C482 1.395 . S
C479 C480 1.396 . S
C479 C481 1.365 . S
C479 H496 0.929 . S
C480 C477 1.394 . S
C480 C479 1.396 . S
C480 H497 0.930 . S
C481 C478 1.383 . S
C481 C479 1.365 . S
C481 H498 0.931 . S
C482 C477 1.370 . S
C482 C478 1.395 . S
C482 H499 0.930 . S
C483 Gd430 2.805 . S
C483 O465 1.263 . S
C483 O466 1.252 . S
C483 C477 1.500 . S
C484 H446 0.930 . S
C484 C460 1.417 . S
C484 C485 1.329 . S
C485 C455 1.437 . S
C485 H456 0.929 . S
C485 C484 1.329 . S
H486 C459 0.931 . S
C487 O469 1.265 . S
C487 O470 1.242 . S
C488 O473 1.261 . S
C488 O474 1.252 . S
C489 C492 1.394 . S
C489 C494 1.370 . S
C489 C495 1.500 . S
C490 C493 1.383 . S
C490 C494 1.395 . S
C491 C492 1.396 . S
C491 C493 1.365 . S
C491 H500 0.929 . S
C492 C489 1.394 . S
C492 C491 1.396 . S
C492 H501 0.930 . S
C493 C490 1.383 . S
C493 C491 1.365 . S
C493 H502 0.931 . S
C494 C489 1.370 . S
C494 C490 1.395 . S
C494 H503 0.930 . S
C495 Gd431 2.805 . S
C495 O471 1.263 . S
C495 O472 1.252 . S
C495 C489 1.500 . S
H496 C479 0.929 . S
H497 C480 0.930 . S
H498 C481 0.931 . S
H499 C482 0.930 . S
H500 C491 0.929 . S
H501 C492 0.930 . S
H502 C493 0.931 . S
H503 C494 0.930 . S
C504 C506 1.422 . S
C504 C508 1.415 . S
C504 N510 1.369 . S
C505 C506 1.421 . S
C505 C507 1.417 . S
C505 C517 1.422 . S
C506 C504 1.422 . S
C506 C505 1.421 . S
C506 N516 1.359 . S
C507 C505 1.417 . S
C507 C509 1.329 . S
C507 H526 0.930 . S
C508 C504 1.415 . S
C508 C509 1.437 . S
C508 C512 1.413 . S
C509 C507 1.329 . S
C509 C508 1.437 . S
C509 H531 0.929 . S
N510 C504 1.369 . S
N510 C511 1.338 . S
N510 Gd515 2.622 . S
C511 N510 1.338 . S
C511 C513 1.378 . S
C511 H523 0.929 . S
C512 C508 1.413 . S
C512 C513 1.348 . S
C512 H528 0.931 . S
C513 C511 1.378 . S
C513 C512 1.348 . S
C513 H529 0.930 . S
Gd514 N534 2.622 1_545 S
Gd514 N541 2.570 1_545 S
Gd514 O548 2.353 . S
Gd514 O549 2.468 . S
Gd514 O550 2.427 . S
Gd514 O552 2.388 . S
Gd514 O553 2.386 1_545 S
Gd514 O557 2.307 . S
Gd514 C567 2.805 . S
Gd515 N510 2.622 . S
Gd515 N516 2.570 . S
Gd515 O547 2.386 . S
Gd515 O551 2.307 . S
Gd515 O554 2.353 1_545 S
Gd515 O555 2.468 . S
Gd515 O556 2.427 . S
Gd515 O558 2.388 . S
Gd515 C579 2.805 . S
N516 C506 1.359 . S
N516 Gd515 2.570 . S
N516 C518 1.343 . S
C517 C505 1.422 . S
C517 C519 1.321 . S
C517 H525 0.931 . S
C518 N516 1.343 . S
C518 C519 1.390 . S
C518 H520 0.931 . S
C519 C517 1.321 . S
C519 C518 1.390 . S
C519 H521 0.930 . S
H520 C518 0.931 . S
H521 C519 0.930 . S
H522 C545 0.981 . S
H523 C511 0.929 . S
H524 C546 0.930 . S
H525 C517 0.931 . S
H526 C507 0.930 . S
H527 C536 0.969 . S
H528 C512 0.931 . S
H529 C513 0.930 . S
H530 C568 0.930 . S
H531 C509 0.929 . S
H532 C537 0.931 . S
H533 C538 0.930 . S
N534 Gd514 2.622 1_565 S
N534 C535 1.369 . S
N534 C536 1.343 1_565 S
C535 N534 1.369 . S
C535 C539 1.415 . S
C535 C542 1.422 . S
C536 H527 0.969 . S
C536 N534 1.343 1_545 S
C536 C538 1.337 1_545 S
C537 H532 0.931 . S
C537 C538 1.348 . S
C537 C539 1.413 . S
C538 H533 0.930 . S
C538 C536 1.337 1_565 S
C538 C537 1.348 . S
C539 C535 1.415 . S
C539 C537 1.413 . S
C539 C569 1.437 . S
H540 C569 0.929 . S
N541 Gd514 2.570 1_565 S
N541 C542 1.359 . S
N541 C545 1.343 . S
C542 C535 1.422 . S
C542 N541 1.359 . S
C542 C544 1.421 . S
C543 C544 1.422 . S
C543 C546 1.321 . S
C543 H570 0.931 . S
C544 C542 1.421 . S
C544 C543 1.422 . S
C544 C568 1.417 . S
C545 H522 0.981 . S
C545 N541 1.343 . S
C545 C546 1.390 . S
C546 H524 0.930 . S
C546 C543 1.321 . S
C546 C545 1.390 . S
O547 Gd515 2.386 . S
O547 C559 1.265 . S
O548 Gd514 2.353 . S
O548 C559 1.242 . S
O549 Gd514 2.468 . S
O549 C567 1.263 . S
O550 Gd514 2.427 . S
O550 C567 1.252 . S
O551 Gd515 2.307 . S
O551 C560 1.261 . S
O552 Gd514 2.388 . S
O552 C560 1.252 . S
O553 Gd514 2.386 1_565 S
O553 C571 1.265 . S
O554 Gd515 2.353 1_565 S
O554 C571 1.242 . S
O555 Gd515 2.468 . S
O555 C579 1.263 . S
O556 Gd515 2.427 . S
O556 C579 1.252 . S
O557 Gd514 2.307 . S
O557 C572 1.261 . S
O558 Gd515 2.388 . S
O558 C572 1.252 . S
C559 O547 1.265 . S
C559 O548 1.242 . S
C560 O551 1.261 . S
C560 O552 1.252 . S
C561 C564 1.394 . S
C561 C566 1.370 . S
C561 C567 1.500 . S
C562 C565 1.383 . S
C562 C566 1.395 . S
C563 C564 1.396 . S
C563 C565 1.365 . S
C563 H580 0.929 . S
C564 C561 1.394 . S
C564 C563 1.396 . S
C564 H581 0.930 . S
C565 C562 1.383 . S
C565 C563 1.365 . S
C565 H582 0.931 . S
C566 C561 1.370 . S
C566 C562 1.395 . S
C566 H583 0.930 . S
C567 Gd514 2.805 . S
C567 O549 1.263 . S
C567 O550 1.252 . S
C567 C561 1.500 . S
C568 H530 0.930 . S
C568 C544 1.417 . S
C568 C569 1.329 . S
C569 C539 1.437 . S
C569 H540 0.929 . S
C569 C568 1.329 . S
H570 C543 0.931 . S
C571 O553 1.265 . S
C571 O554 1.242 . S
C572 O557 1.261 . S
C572 O558 1.252 . S
C573 C576 1.394 . S
C573 C578 1.370 . S
C573 C579 1.500 1_565 S
C574 C577 1.383 . S
C574 C578 1.395 . S
C575 C576 1.396 . S
C575 C577 1.365 . S
C575 H584 0.929 . S
C576 C573 1.394 . S
C576 C575 1.396 . S
C576 H585 0.930 . S
C577 C574 1.383 . S
C577 C575 1.365 . S
C577 H586 0.931 . S
C578 C573 1.370 . S
C578 C574 1.395 . S
C578 H587 0.930 . S
C579 Gd515 2.805 . S
C579 O555 1.263 . S
C579 O556 1.252 . S
C579 C573 1.500 1_545 S
H580 C563 0.929 . S
H581 C564 0.930 . S
H582 C565 0.931 . S
H583 C566 0.930 . S
H584 C575 0.929 . S
H585 C576 0.930 . S
H586 C577 0.931 . S
H587 C578 0.930 . S
C588 C590 1.422 . S
C588 C592 1.415 . S
C588 N594 1.369 . S
C589 C590 1.421 . S
C589 C591 1.417 . S
C589 C601 1.422 . S
C590 C588 1.422 . S
C590 C589 1.421 . S
C590 N600 1.359 . S
C591 C589 1.417 . S
C591 C593 1.329 . S
C591 H610 0.930 . S
C592 C588 1.415 . S
C592 C593 1.437 . S
C592 C596 1.413 . S
C593 C591 1.329 . S
C593 C592 1.437 . S
C593 H615 0.929 . S
N594 C588 1.369 . S
N594 C595 1.338 . S
N594 Gd599 2.622 . S
C595 N594 1.338 . S
C595 C597 1.378 . S
C595 H607 0.929 . S
C596 C592 1.413 . S
C596 C597 1.348 . S
C596 H612 0.931 . S
C597 C595 1.378 . S
C597 C596 1.348 . S
C597 H613 0.930 . S
Gd598 N618 2.622 . S
Gd598 N625 2.570 . S
Gd598 O632 2.353 . S
Gd598 O633 2.468 . S
Gd598 O634 2.427 . S
Gd598 O636 2.388 . S
Gd598 O637 2.386 . S
Gd598 O641 2.307 . S
Gd598 C651 2.805 . S
Gd599 N594 2.622 . S
Gd599 N600 2.570 . S
Gd599 O631 2.386 . S
Gd599 O635 2.307 . S
Gd599 O638 2.353 . S
Gd599 O639 2.468 . S
Gd599 O640 2.427 . S
Gd599 O642 2.388 . S
Gd599 C663 2.805 . S
N600 C590 1.359 . S
N600 Gd599 2.570 . S
N600 C602 1.343 . S
C601 C589 1.422 . S
C601 C603 1.321 . S
C601 H609 0.931 . S
C602 N600 1.343 . S
C602 C603 1.390 . S
C602 H604 0.931 . S
C603 C601 1.321 . S
C603 C602 1.390 . S
C603 H605 0.930 . S
H604 C602 0.931 . S
H605 C603 0.930 . S
H606 C629 0.931 . S
H607 C595 0.929 . S
H608 C630 0.930 . S
H609 C601 0.931 . S
H610 C591 0.930 . S
H611 C620 0.929 . S
H612 C596 0.931 . S
H613 C597 0.930 . S
H614 C652 0.930 . S
H615 C593 0.929 . S
H616 C621 0.931 . S
H617 C622 0.930 . S
N618 Gd598 2.622 . S
N618 C619 1.369 . S
N618 C620 1.338 . S
C619 N618 1.369 . S
C619 C623 1.415 . S
C619 C626 1.422 . S
C620 H611 0.929 . S
C620 N618 1.338 . S
C620 C622 1.378 . S
C621 H616 0.931 . S
C621 C622 1.348 . S
C621 C623 1.413 . S
C622 H617 0.930 . S
C622 C620 1.378 . S
C622 C621 1.348 . S
C623 C619 1.415 . S
C623 C621 1.413 . S
C623 C653 1.437 . S
H624 C653 0.929 . S
N625 Gd598 2.570 . S
N625 C626 1.359 . S
N625 C629 1.343 . S
C626 C619 1.422 . S
C626 N625 1.359 . S
C626 C628 1.421 . S
C627 C628 1.422 . S
C627 C630 1.321 . S
C627 H654 0.931 . S
C628 C626 1.421 . S
C628 C627 1.422 . S
C628 C652 1.417 . S
C629 H606 0.931 . S
C629 N625 1.343 . S
C629 C630 1.390 . S
C630 H608 0.930 . S
C630 C627 1.321 . S
C630 C629 1.390 . S
O631 Gd599 2.386 . S
O631 C643 1.265 . S
O632 Gd598 2.353 . S
O632 C643 1.242 . S
O633 Gd598 2.468 . S
O633 C651 1.263 . S
O634 Gd598 2.427 . S
O634 C651 1.252 . S
O635 Gd599 2.307 . S
O635 C644 1.261 . S
O636 Gd598 2.388 . S
O636 C644 1.252 . S
O637 Gd598 2.386 . S
O637 C655 1.265 . S
O638 Gd599 2.353 . S
O638 C655 1.242 . S
O639 Gd599 2.468 . S
O639 C663 1.263 . S
O640 Gd599 2.427 . S
O640 C663 1.252 . S
O641 Gd598 2.307 . S
O641 C656 1.261 . S
O642 Gd599 2.388 . S
O642 C656 1.252 . S
C643 O631 1.265 . S
C643 O632 1.242 . S
C644 O635 1.261 . S
C644 O636 1.252 . S
C645 C648 1.394 . S
C645 C650 1.370 . S
C645 C651 1.500 . S
C646 C649 1.383 . S
C646 C650 1.395 . S
C647 C648 1.396 . S
C647 C649 1.365 . S
C647 H664 0.929 . S
C648 C645 1.394 . S
C648 C647 1.396 . S
C648 H665 0.930 . S
C649 C646 1.383 . S
C649 C647 1.365 . S
C649 H666 0.931 . S
C650 C645 1.370 . S
C650 C646 1.395 . S
C650 H667 0.930 . S
C651 Gd598 2.805 . S
C651 O633 1.263 . S
C651 O634 1.252 . S
C651 C645 1.500 . S
C652 H614 0.930 . S
C652 C628 1.417 . S
C652 C653 1.329 . S
C653 C623 1.437 . S
C653 H624 0.929 . S
C653 C652 1.329 . S
H654 C627 0.931 . S
C655 O637 1.265 . S
C655 O638 1.242 . S
C656 O641 1.261 . S
C656 O642 1.252 . S
C657 C660 1.394 . S
C657 C662 1.370 . S
C657 C663 1.500 . S
C658 C661 1.383 . S
C658 C662 1.395 . S
C659 C660 1.396 . S
C659 C661 1.365 . S
C659 H668 0.929 . S
C660 C657 1.394 . S
C660 C659 1.396 . S
C660 H669 0.930 . S
C661 C658 1.383 . S
C661 C659 1.365 . S
C661 H670 0.931 . S
C662 C657 1.370 . S
C662 C658 1.395 . S
C662 H671 0.930 . S
C663 Gd599 2.805 . S
C663 O639 1.263 . S
C663 O640 1.252 . S
C663 C657 1.500 . S
H664 C647 0.929 . S
H665 C648 0.930 . S
H666 C649 0.931 . S
H667 C650 0.930 . S
H668 C659 0.929 . S
H669 C660 0.930 . S
H670 C661 0.931 . S
H671 C662 0.930 . S
C672 C674 1.419 1_655 S
C672 C676 1.417 . S
C672 N678 1.370 . S
C673 C674 1.421 . S
C673 C675 1.417 . S
C673 C685 1.422 . S
C674 C672 1.419 1_455 S
C674 C673 1.421 . S
C674 N684 1.359 . S
C675 C673 1.417 . S
C675 C677 1.380 . S
C675 H694 0.930 . S
C676 C672 1.417 . S
C676 C677 1.421 1_655 S
C676 C680 1.413 . S
C677 C675 1.380 . S
C677 C676 1.421 1_455 S
C677 H699 0.897 1_455 S
N678 C672 1.370 . S
N678 C679 1.338 . S
N678 Gd683 2.622 1_655 S
C679 N678 1.338 . S
C679 C681 1.378 . S
C679 H691 0.929 . S
C680 C676 1.413 . S
C680 C681 1.348 . S
C680 H696 0.931 . S
C681 C679 1.378 . S
C681 C680 1.348 . S
C681 H697 0.930 . S
Gd682 N702 2.622 . S
Gd682 N709 2.570 . S
Gd682 O716 2.353 1_565 S
Gd682 O717 2.468 . S
Gd682 O718 2.427 . S
Gd682 O720 2.388 1_565 S
Gd682 O721 2.386 1_565 S
Gd682 O725 2.244 1_465 S
Gd682 C735 2.805 . S
Gd683 N678 2.622 1_455 S
Gd683 N684 2.570 . S
Gd683 O715 2.386 . S
Gd683 O719 2.307 . S
Gd683 O722 2.353 . S
Gd683 O723 2.468 . S
Gd683 O724 2.427 1_455 S
Gd683 O726 2.388 1_455 S
Gd683 C747 2.805 . S
N684 C674 1.359 . S
N684 Gd683 2.570 . S
N684 C686 1.343 . S
C685 C673 1.422 . S
C685 C687 1.321 . S
C685 H693 0.931 . S
C686 N684 1.343 . S
C686 C687 1.390 . S
C686 H688 0.931 . S
C687 C685 1.321 . S
C687 C686 1.390 . S
C687 H689 0.930 . S
H688 C686 0.931 . S
H689 C687 0.930 . S
H690 C713 0.931 . S
H691 C679 0.929 . S
H692 C714 0.930 . S
H693 C685 0.931 . S
H694 C675 0.930 . S
H695 C704 0.929 1_545 S
H696 C680 0.931 . S
H697 C681 0.930 . S
H698 C736 0.930 . S
H699 C677 0.897 1_655 S
H700 C705 0.931 . S
H701 C706 0.930 . S
N702 Gd682 2.622 . S
N702 C703 1.369 . S
N702 C704 1.338 . S
C703 N702 1.369 . S
C703 C707 1.415 . S
C703 C710 1.422 . S
C704 H695 0.929 1_565 S
C704 N702 1.338 . S
C704 C706 1.378 . S
C705 H700 0.931 . S
C705 C706 1.348 . S
C705 C707 1.413 . S
C706 H701 0.930 . S
C706 C704 1.378 . S
C706 C705 1.348 . S
C707 C703 1.415 . S
C707 C705 1.413 . S
C707 C737 1.437 . S
H708 C737 0.929 . S
N709 Gd682 2.570 . S
N709 C710 1.359 . S
N709 C713 1.343 1_455 S
C710 C703 1.422 . S
C710 N709 1.359 . S
C710 C712 1.421 . S
C711 C712 1.422 1_655 S
C711 C714 1.321 . S
C711 H738 0.931 . S
C712 C710 1.421 . S
C712 C711 1.422 1_455 S
C712 C736 1.417 . S
C713 H690 0.931 . S
C713 N709 1.343 1_655 S
C713 C714 1.390 . S
C714 H692 0.930 . S
C714 C711 1.321 . S
C714 C713 1.390 . S
O715 Gd683 2.386 . S
O715 C727 1.265 . S
O716 Gd682 2.353 1_545 S
O716 C727 1.242 . S
O717 Gd682 2.468 . S
O717 C735 1.263 . S
O718 Gd682 2.427 . S
O718 C735 1.252 . S
O719 Gd683 2.307 . S
O719 C728 1.261 . S
O720 Gd682 2.388 1_545 S
O720 C728 1.252 . S
O721 Gd682 2.386 1_545 S
O721 C739 1.265 . S
O722 Gd683 2.353 . S
O722 C739 1.242 . S
O723 Gd683 2.468 . S
O723 C747 1.263 . S
O724 Gd683 2.427 1_655 S
O724 C747 1.252 1_655 S
O725 Gd682 2.244 1_645 S
O725 C740 1.320 . S
O726 Gd683 2.388 1_655 S
O726 C740 1.252 . S
C727 O715 1.265 . S
C727 O716 1.242 . S
C728 O719 1.261 . S
C728 O720 1.252 . S
C729 C732 1.394 . S
C729 C734 1.370 . S
C729 C735 1.500 . S
C730 C733 1.383 . S
C730 C734 1.395 . S
C731 C732 1.396 . S
C731 C733 1.365 . S
C731 H748 0.929 . S
C732 C729 1.394 . S
C732 C731 1.396 . S
C732 H749 0.930 . S
C733 C730 1.383 . S
C733 C731 1.365 . S
C733 H750 0.931 . S
C734 C729 1.370 . S
C734 C730 1.395 . S
C734 H751 0.930 . S
C735 Gd682 2.805 . S
C735 O717 1.263 . S
C735 O718 1.252 . S
C735 C729 1.500 . S
C736 H698 0.930 . S
C736 C712 1.417 . S
C736 C737 1.329 . S
C737 C707 1.437 . S
C737 H708 0.929 . S
C737 C736 1.329 . S
H738 C711 0.931 . S
C739 O721 1.265 . S
C739 O722 1.242 . S
C740 O725 1.320 . S
C740 O726 1.252 . S
C741 C744 1.394 1_455 S
C741 C746 1.370 . S
C741 C747 1.500 . S
C742 C745 1.383 1_455 S
C742 C746 1.395 . S
C743 C744 1.396 . S
C743 C745 1.365 . S
C743 H752 0.929 . S
C744 C741 1.394 1_655 S
C744 C743 1.396 . S
C744 H753 0.930 . S
C745 C742 1.383 1_655 S
C745 C743 1.365 . S
C745 H754 0.931 . S
C746 C741 1.370 . S
C746 C742 1.395 . S
C746 H755 0.930 . S
C747 Gd683 2.805 . S
C747 O723 1.263 . S
C747 O724 1.252 1_455 S
C747 C741 1.500 . S
H748 C731 0.929 . S
H749 C732 0.930 . S
H750 C733 0.931 . S
H751 C734 0.930 . S
H752 C743 0.929 . S
H753 C744 0.930 . S
H754 C745 0.931 . S
H755 C746 0.930 . S
C756 C758 1.422 . S
C756 C760 1.415 . S
C756 N762 1.369 . S
C757 C758 1.421 . S
C757 C759 1.417 . S
C757 C769 1.422 . S
C758 C756 1.422 . S
C758 C757 1.421 . S
C758 N768 1.359 . S
C759 C757 1.417 . S
C759 C761 1.329 . S
C759 H778 0.930 . S
C760 C756 1.415 . S
C760 C761 1.437 . S
C760 C764 1.413 . S
C761 C759 1.329 . S
C761 C760 1.437 . S
C761 H783 0.929 . S
N762 C756 1.369 . S
N762 C763 1.338 . S
N762 Gd767 2.622 . S
C763 N762 1.338 . S
C763 C765 1.378 . S
C763 H775 0.929 . S
C764 C760 1.413 . S
C764 C765 1.348 . S
C764 H780 0.931 . S
C765 C763 1.378 . S
C765 C764 1.348 . S
C765 H781 0.930 . S
Gd766 N786 2.622 . S
Gd766 N793 2.570 . S
Gd766 O800 2.353 . S
Gd766 O801 2.468 . S
Gd766 O802 2.427 . S
Gd766 O804 2.388 . S
Gd766 O805 2.386 . S
Gd766 O809 2.307 . S
Gd766 C819 2.805 . S
Gd767 N762 2.622 . S
Gd767 N768 2.570 . S
Gd767 O799 2.386 . S
Gd767 O803 2.307 . S
Gd767 O806 2.353 . S
Gd767 O807 2.468 . S
Gd767 O808 2.427 . S
Gd767 O810 2.388 . S
Gd767 C831 2.805 . S
N768 C758 1.359 . S
N768 Gd767 2.570 . S
N768 C770 1.343 . S
C769 C757 1.422 . S
C769 C771 1.321 . S
C769 H777 0.931 . S
C770 N768 1.343 . S
C770 C771 1.390 . S
C770 H772 0.931 . S
C771 C769 1.321 . S
C771 C770 1.390 . S
C771 H773 0.930 . S
H772 C770 0.931 . S
H773 C771 0.930 . S
H774 C797 0.931 . S
H775 C763 0.929 . S
H776 C798 0.930 . S
H777 C769 0.931 . S
H778 C759 0.930 . S
H779 C788 0.929 . S
H780 C764 0.931 . S
H781 C765 0.930 . S
H782 C820 0.930 . S
H783 C761 0.929 . S
H784 C789 0.931 . S
H785 C790 0.930 . S
N786 Gd766 2.622 . S
N786 C787 1.369 . S
N786 C788 1.338 . S
C787 N786 1.369 . S
C787 C791 1.415 . S
C787 C794 1.422 . S
C788 H779 0.929 . S
C788 N786 1.338 . S
C788 C790 1.378 . S
C789 H784 0.931 . S
C789 C790 1.348 . S
C789 C791 1.413 . S
C790 H785 0.930 . S
C790 C788 1.378 . S
C790 C789 1.348 . S
C791 C787 1.415 . S
C791 C789 1.413 . S
C791 C821 1.437 . S
H792 C821 0.929 . S
N793 Gd766 2.570 . S
N793 C794 1.359 . S
N793 C797 1.343 . S
C794 C787 1.422 . S
C794 N793 1.359 . S
C794 C796 1.421 . S
C795 C796 1.422 . S
C795 C798 1.321 . S
C795 H822 0.931 . S
C796 C794 1.421 . S
C796 C795 1.422 . S
C796 C820 1.417 . S
C797 H774 0.931 . S
C797 N793 1.343 . S
C797 C798 1.390 . S
C798 H776 0.930 . S
C798 C795 1.321 . S
C798 C797 1.390 . S
O799 Gd767 2.386 . S
O799 C811 1.265 . S
O800 Gd766 2.353 . S
O800 C811 1.242 . S
O801 Gd766 2.468 . S
O801 C819 1.263 . S
O802 Gd766 2.427 . S
O802 C819 1.252 . S
O803 Gd767 2.307 . S
O803 C812 1.261 . S
O804 Gd766 2.388 . S
O804 C812 1.252 . S
O805 Gd766 2.386 . S
O805 C823 1.265 . S
O806 Gd767 2.353 . S
O806 C823 1.242 . S
O807 Gd767 2.468 . S
O807 C831 1.263 . S
O808 Gd767 2.427 . S
O808 C831 1.252 . S
O809 Gd766 2.307 . S
O809 C824 1.261 . S
O810 Gd767 2.388 . S
O810 C824 1.252 . S
C811 O799 1.265 . S
C811 O800 1.242 . S
C812 O803 1.261 . S
C812 O804 1.252 . S
C813 C816 1.394 . S
C813 C818 1.370 . S
C813 C819 1.500 . S
C814 C817 1.383 . S
C814 C818 1.395 . S
C815 C816 1.396 . S
C815 C817 1.365 . S
C815 H832 0.929 . S
C816 C813 1.394 . S
C816 C815 1.396 . S
C816 H833 0.930 . S
C817 C814 1.383 . S
C817 C815 1.365 . S
C817 H834 0.931 . S
C818 C813 1.370 . S
C818 C814 1.395 . S
C818 H835 0.930 . S
C819 Gd766 2.805 . S
C819 O801 1.263 . S
C819 O802 1.252 . S
C819 C813 1.500 . S
C820 H782 0.930 . S
C820 C796 1.417 . S
C820 C821 1.329 . S
C821 C791 1.437 . S
C821 H792 0.929 . S
C821 C820 1.329 . S
H822 C795 0.931 . S
C823 O805 1.265 . S
C823 O806 1.242 . S
C824 O809 1.261 . S
C824 O810 1.252 . S
C825 C828 1.394 . S
C825 C830 1.370 . S
C825 C831 1.500 . S
C826 C829 1.383 . S
C826 C830 1.395 . S
C827 C828 1.396 . S
C827 C829 1.365 . S
C827 H836 0.929 . S
C828 C825 1.394 . S
C828 C827 1.396 . S
C828 H837 0.930 . S
C829 C826 1.383 . S
C829 C827 1.365 . S
C829 H838 0.931 . S
C830 C825 1.370 . S
C830 C826 1.395 . S
C830 H839 0.930 . S
C831 Gd767 2.805 . S
C831 O807 1.263 . S
C831 O808 1.252 . S
C831 C825 1.500 . S
H832 C815 0.929 . S
H833 C816 0.930 . S
H834 C817 0.931 . S
H835 C818 0.930 . S
H836 C827 0.929 . S
H837 C828 0.930 . S
H838 C829 0.931 . S
H839 C830 0.930 . S
C840 C842 1.422 1_565 S
C840 C844 1.415 . S
C840 N846 1.369 . S
C841 C842 1.421 . S
C841 C843 1.417 . S
C841 C853 1.422 . S
C842 C840 1.422 1_545 S
C842 C841 1.421 . S
C842 N852 1.359 . S
C843 C841 1.417 . S
C843 C845 1.329 1_545 S
C843 H862 0.930 . S
C844 C840 1.415 . S
C844 C845 1.437 . S
C844 C848 1.413 . S
C845 C843 1.329 1_565 S
C845 C844 1.437 . S
C845 H867 0.929 . S
N846 C840 1.369 . S
N846 C847 1.338 . S
N846 Gd851 2.622 1_565 S
C847 N846 1.338 . S
C847 C849 1.378 . S
C847 H859 0.929 . S
C848 C844 1.413 . S
C848 C849 1.348 . S
C848 H864 0.931 . S
C849 C847 1.378 . S
C849 C848 1.348 . S
C849 H865 0.930 . S
Gd850 N870 2.622 . S
Gd850 N877 2.570 . S
Gd850 O884 2.353 1_556 S
Gd850 O885 2.468 . S
Gd850 O886 2.427 . S
Gd850 O888 2.388 1_556 S
Gd850 O889 2.386 1_556 S
Gd850 O893 2.307 . S
Gd850 C903 2.805 . S
Gd851 N846 2.622 1_545 S
Gd851 N852 2.570 . S
Gd851 O883 2.386 . S
Gd851 O887 2.307 . S
Gd851 O890 2.353 . S
Gd851 O891 2.468 . S
Gd851 O892 2.427 1_545 S
Gd851 O894 2.388 1_545 S
Gd851 C915 2.805 1_545 S
N852 C842 1.359 . S
N852 Gd851 2.570 . S
N852 C854 1.343 . S
C853 C841 1.422 . S
C853 C855 1.321 . S
C853 H861 0.931 . S
C854 N852 1.343 . S
C854 C855 1.390 . S
C854 H856 0.931 . S
C855 C853 1.321 . S
C855 C854 1.390 . S
C855 H857 0.930 . S
H856 C854 0.931 . S
H857 C855 0.930 . S
H858 C881 0.931 1_565 S
H859 C847 0.929 . S
H860 C882 0.930 . S
H861 C853 0.931 . S
H862 C843 0.930 . S
H863 C872 0.943 . S
H864 C848 0.931 . S
H865 C849 0.930 . S
H866 C904 0.930 . S
H867 C845 0.929 . S
H868 C873 0.931 . S
H869 C874 0.930 . S
N870 Gd850 2.622 . S
N870 C871 1.369 . S
N870 C872 1.338 . S
C871 N870 1.369 . S
C871 C875 1.415 . S
C871 C878 1.422 . S
C872 H863 0.943 . S
C872 N870 1.338 . S
C872 C874 1.378 . S
C873 H868 0.931 . S
C873 C874 1.348 . S
C873 C875 1.413 . S
C874 H869 0.930 . S
C874 C872 1.378 . S
C874 C873 1.348 . S
C875 C871 1.415 . S
C875 C873 1.413 . S
C875 C905 1.437 . S
H876 C905 0.929 . S
N877 Gd850 2.570 . S
N877 C878 1.359 . S
N877 C881 1.343 . S
C878 C871 1.422 . S
C878 N877 1.359 . S
C878 C880 1.421 . S
C879 C880 1.383 1_565 S
C879 C882 1.350 . S
C879 H906 0.942 . S
C880 C878 1.421 . S
C880 C879 1.383 1_545 S
C880 C904 1.417 . S
C881 H858 0.931 1_545 S
C881 N877 1.343 . S
C881 C882 1.390 1_545 S
C882 H860 0.930 . S
C882 C879 1.350 . S
C882 C881 1.390 1_565 S
O883 Gd851 2.386 . S
O883 C895 1.265 . S
O884 Gd850 2.353 1_554 S
O884 C895 1.242 . S
O885 Gd850 2.468 . S
O885 C903 1.263 . S
O886 Gd850 2.427 . S
O886 C903 1.252 . S
O887 Gd851 2.307 . S
O887 C896 1.261 . S
O888 Gd850 2.388 1_554 S
O888 C896 1.252 . S
O889 Gd850 2.386 1_554 S
O889 C907 1.265 . S
O890 Gd851 2.353 . S
O890 C907 1.242 . S
O891 Gd851 2.468 . S
O891 C915 1.263 1_545 S
O892 Gd851 2.427 1_565 S
O892 C915 1.252 . S
O893 Gd850 2.307 . S
O893 C908 1.279 1_545 S
O894 Gd851 2.388 1_565 S
O894 C908 1.206 1_554 S
C895 O883 1.265 . S
C895 O884 1.242 . S
C896 O887 1.261 . S
C896 O888 1.252 . S
C897 C900 1.394 . S
C897 C902 1.370 . S
C897 C903 1.500 . S
C898 C901 1.383 . S
C898 C902 1.395 . S
C899 C900 1.396 . S
C899 C901 1.365 . S
C899 H916 0.929 . S
C900 C897 1.394 . S
C900 C899 1.396 . S
C900 H917 0.930 . S
C901 C898 1.383 . S
C901 C899 1.365 . S
C901 H918 0.931 . S
C902 C897 1.370 . S
C902 C898 1.395 . S
C902 H919 0.930 . S
C903 Gd850 2.805 . S
C903 O885 1.263 . S
C903 O886 1.252 . S
C903 C897 1.500 . S
C904 H866 0.930 . S
C904 C880 1.417 . S
C904 C905 1.329 . S
C905 C875 1.437 . S
C905 H876 0.929 . S
C905 C904 1.329 . S
H906 C879 0.942 . S
C907 O889 1.265 . S
C907 O890 1.242 . S
C908 O893 1.279 1_565 S
C908 O894 1.206 1_556 S
C909 C912 1.394 . S
C909 C914 1.370 1_565 S
C909 C915 1.500 . S
C910 C913 1.368 1_545 S
C910 C914 1.400 . S
C911 C912 1.396 . S
C911 C913 1.365 . S
C911 H920 0.929 . S
C912 C909 1.394 . S
C912 C911 1.396 . S
C912 H921 0.930 . S
C913 C910 1.368 1_565 S
C913 C911 1.365 . S
C913 H922 0.931 . S
C914 C909 1.370 1_545 S
C914 C910 1.400 . S
C914 H923 0.930 . S
C915 Gd851 2.805 1_565 S
C915 O891 1.263 1_565 S
C915 O892 1.252 . S
C915 C909 1.500 . S
H916 C899 0.929 . S
H917 C900 0.930 . S
H918 C901 0.931 . S
H919 C902 0.930 . S
H920 C911 0.929 . S
H921 C912 0.930 . S
H922 C913 0.931 . S
H923 C914 0.930 . S
C924 C926 1.422 . S
C924 C928 1.415 . S
C924 N930 1.369 . S
C925 C926 1.421 . S
C925 C927 1.417 . S
C925 C937 1.422 . S
C926 C924 1.422 . S
C926 C925 1.421 . S
C926 N936 1.359 . S
C927 C925 1.417 . S
C927 C929 1.329 . S
C927 H946 0.930 . S
C928 C924 1.415 . S
C928 C929 1.437 . S
C928 C932 1.413 . S
C929 C927 1.329 . S
C929 C928 1.437 . S
C929 H951 0.929 . S
N930 C924 1.369 . S
N930 C931 1.338 . S
N930 Gd935 2.622 . S
C931 N930 1.338 . S
C931 C933 1.378 . S
C931 H943 0.929 . S
C932 C928 1.413 . S
C932 C933 1.348 . S
C932 H948 0.931 . S
C933 C931 1.378 . S
C933 C932 1.348 . S
C933 H949 0.930 . S
Gd934 N954 2.622 . S
Gd934 N961 2.570 . S
Gd934 O968 2.353 . S
Gd934 O969 2.468 . S
Gd934 O970 2.427 . S
Gd934 O972 2.388 . S
Gd934 O973 2.386 . S
Gd934 O977 2.307 . S
Gd934 C987 2.805 . S
Gd935 N930 2.622 . S
Gd935 N936 2.570 . S
Gd935 O967 2.386 . S
Gd935 O971 2.307 . S
Gd935 O974 2.353 . S
Gd935 O975 2.468 . S
Gd935 O976 2.427 . S
Gd935 O978 2.388 . S
Gd935 C999 2.805 . S
N936 C926 1.359 . S
N936 Gd935 2.570 . S
N936 C938 1.343 . S
C937 C925 1.422 . S
C937 C939 1.321 . S
C937 H945 0.931 . S
C938 N936 1.343 . S
C938 C939 1.390 . S
C938 H940 0.931 . S
C939 C937 1.321 . S
C939 C938 1.390 . S
C939 H941 0.930 . S
H940 C938 0.931 . S
H941 C939 0.930 . S
H942 C965 0.931 . S
H943 C931 0.929 . S
H944 C966 0.930 . S
H945 C937 0.931 . S
H946 C927 0.930 . S
H947 C956 0.929 . S
H948 C932 0.931 . S
H949 C933 0.930 . S
H950 C988 0.930 . S
H951 C929 0.929 . S
H952 C957 0.931 . S
H953 C958 0.930 . S
N954 Gd934 2.622 . S
N954 C955 1.369 . S
N954 C956 1.338 . S
C955 N954 1.369 . S
C955 C959 1.415 . S
C955 C962 1.422 . S
C956 H947 0.929 . S
C956 N954 1.338 . S
C956 C958 1.378 . S
C957 H952 0.931 . S
C957 C958 1.348 . S
C957 C959 1.413 . S
C958 H953 0.930 . S
C958 C956 1.378 . S
C958 C957 1.348 . S
C959 C955 1.415 . S
C959 C957 1.413 . S
C959 C989 1.437 . S
H960 C989 0.929 . S
N961 Gd934 2.570 . S
N961 C962 1.359 . S
N961 C965 1.343 . S
C962 C955 1.422 . S
C962 N961 1.359 . S
C962 C964 1.421 . S
C963 C964 1.422 . S
C963 C966 1.321 . S
C963 H990 0.931 . S
C964 C962 1.421 . S
C964 C963 1.422 . S
C964 C988 1.417 . S
C965 H942 0.931 . S
C965 N961 1.343 . S
C965 C966 1.390 . S
C966 H944 0.930 . S
C966 C963 1.321 . S
C966 C965 1.390 . S
O967 Gd935 2.386 . S
O967 C979 1.265 . S
O968 Gd934 2.353 . S
O968 C979 1.242 . S
O969 Gd934 2.468 . S
O969 C987 1.263 . S
O970 Gd934 2.427 . S
O970 C987 1.252 . S
O971 Gd935 2.307 . S
O971 C980 1.261 . S
O972 Gd934 2.388 . S
O972 C980 1.252 . S
O973 Gd934 2.386 . S
O973 C991 1.265 . S
O974 Gd935 2.353 . S
O974 C991 1.242 . S
O975 Gd935 2.468 . S
O975 C999 1.263 . S
O976 Gd935 2.427 . S
O976 C999 1.252 . S
O977 Gd934 2.307 . S
O977 C992 1.261 . S
O978 Gd935 2.388 . S
O978 C992 1.252 . S
C979 O967 1.265 . S
C979 O968 1.242 . S
C980 O971 1.261 . S
C980 O972 1.252 . S
C981 C984 1.394 . S
C981 C986 1.370 . S
C981 C987 1.500 . S
C982 C985 1.383 . S
C982 C986 1.395 . S
C983 C984 1.396 . S
C983 C985 1.365 . S
C983 H1000 0.929 . S
C984 C981 1.394 . S
C984 C983 1.396 . S
C984 H1001 0.930 . S
C985 C982 1.383 . S
C985 C983 1.365 . S
C985 H1002 0.931 . S
C986 C981 1.370 . S
C986 C982 1.395 . S
C986 H1003 0.930 . S
C987 Gd934 2.805 . S
C987 O969 1.263 . S
C987 O970 1.252 . S
C987 C981 1.500 . S
C988 H950 0.930 . S
C988 C964 1.417 . S
C988 C989 1.329 . S
C989 C959 1.437 . S
C989 H960 0.929 . S
C989 C988 1.329 . S
H990 C963 0.931 . S
C991 O973 1.265 . S
C991 O974 1.242 . S
C992 O977 1.261 . S
C992 O978 1.252 . S
C993 C996 1.394 . S
C993 C998 1.370 . S
C993 C999 1.500 . S
C994 C997 1.383 . S
C994 C998 1.395 . S
C995 C996 1.396 . S
C995 C997 1.365 . S
C995 H1004 0.929 . S
C996 C993 1.394 . S
C996 C995 1.396 . S
C996 H1005 0.930 . S
C997 C994 1.383 . S
C997 C995 1.365 . S
C997 H1006 0.931 . S
C998 C993 1.370 . S
C998 C994 1.395 . S
C998 H1007 0.930 . S
C999 Gd935 2.805 . S
C999 O975 1.263 . S
C999 O976 1.252 . S
C999 C993 1.500 . S
H1000 C983 0.929 . S
H1001 C984 0.930 . S
H1002 C985 0.931 . S
H1003 C986 0.930 . S
H1004 C995 0.929 . S
H1005 C996 0.930 . S
H1006 C997 0.931 . S
H1007 C998 0.930 . S
C1008 C1010 1.422 . S
C1008 C1012 1.415 . S
C1008 N1014 1.369 . S
C1009 C1010 1.421 . S
C1009 C1011 1.417 . S
C1009 C1021 1.422 . S
C1010 C1008 1.422 . S
C1010 C1009 1.421 . S
C1010 N1020 1.359 . S
C1011 C1009 1.417 . S
C1011 C1013 1.329 . S
C1011 H1030 0.930 . S
C1012 C1008 1.415 . S
C1012 C1013 1.437 . S
C1012 C1016 1.413 . S
C1013 C1011 1.329 . S
C1013 C1012 1.437 . S
C1013 H1035 0.929 . S
N1014 C1008 1.369 . S
N1014 C1015 1.338 . S
N1014 Gd1019 2.622 . S
C1015 N1014 1.338 . S
C1015 C1017 1.378 . S
C1015 H1027 0.929 . S
C1016 C1012 1.413 . S
C1016 C1017 1.348 . S
C1016 H1032 0.931 . S
C1017 C1015 1.378 . S
C1017 C1016 1.348 . S
C1017 H1033 0.930 . S
Gd1018 N1038 2.622 1_554 S
Gd1018 N1045 2.570 1_554 S
Gd1018 O1052 2.353 . S
Gd1018 O1053 2.468 . S
Gd1018 O1054 2.427 . S
Gd1018 O1056 2.388 . S
Gd1018 O1057 2.386 1_554 S
Gd1018 O1061 2.307 . S
Gd1018 C1071 2.805 . S
Gd1019 N1014 2.622 . S
Gd1019 N1020 2.570 . S
Gd1019 O1051 2.386 . S
Gd1019 O1055 2.307 . S
Gd1019 O1058 2.353 1_554 S
Gd1019 O1059 2.468 . S
Gd1019 O1060 2.427 . S
Gd1019 O1062 2.388 . S
Gd1019 C1083 2.805 . S
N1020 C1010 1.359 . S
N1020 Gd1019 2.570 . S
N1020 C1022 1.343 . S
C1021 C1009 1.422 . S
C1021 C1023 1.321 . S
C1021 H1029 0.931 . S
C1022 N1020 1.343 . S
C1022 C1023 1.390 . S
C1022 H1024 0.931 . S
C1023 C1021 1.321 . S
C1023 C1022 1.390 . S
C1023 H1025 0.930 . S
H1024 C1022 0.931 . S
H1025 C1023 0.930 . S
H1026 C1049 0.931 . S
H1027 C1015 0.929 . S
H1028 C1050 0.930 . S
H1029 C1021 0.931 . S
H1030 C1011 0.930 . S
H1031 C1040 0.929 . S
H1032 C1016 0.931 . S
H1033 C1017 0.930 . S
H1034 C1072 0.930 . S
H1035 C1013 0.929 . S
H1036 C1041 0.931 . S
H1037 C1042 0.930 . S
N1038 Gd1018 2.622 1_556 S
N1038 C1039 1.369 . S
N1038 C1040 1.338 . S
C1039 N1038 1.369 . S
C1039 C1043 1.415 . S
C1039 C1046 1.422 . S
C1040 H1031 0.929 . S
C1040 N1038 1.338 . S
C1040 C1042 1.378 . S
C1041 H1036 0.931 . S
C1041 C1042 1.348 . S
C1041 C1043 1.413 . S
C1042 H1037 0.930 . S
C1042 C1040 1.378 . S
C1042 C1041 1.348 . S
C1043 C1039 1.415 . S
C1043 C1041 1.413 . S
C1043 C1073 1.437 . S
H1044 C1073 0.929 . S
N1045 Gd1018 2.570 1_556 S
N1045 C1046 1.359 . S
N1045 C1049 1.343 . S
C1046 C1039 1.422 . S
C1046 N1045 1.359 . S
C1046 C1048 1.421 . S
C1047 C1048 1.422 . S
C1047 C1050 1.321 . S
C1047 H1074 0.931 . S
C1048 C1046 1.421 . S
C1048 C1047 1.422 . S
C1048 C1072 1.417 . S
C1049 H1026 0.931 . S
C1049 N1045 1.343 . S
C1049 C1050 1.390 . S
C1050 H1028 0.930 . S
C1050 C1047 1.321 . S
C1050 C1049 1.390 . S
O1051 Gd1019 2.386 . S
O1051 C1063 1.265 . S
O1052 Gd1018 2.353 . S
O1052 C1063 1.242 . S
O1053 Gd1018 2.468 . S
O1053 C1071 1.263 . S
O1054 Gd1018 2.427 . S
O1054 C1071 1.252 . S
O1055 Gd1019 2.307 . S
O1055 C1064 1.261 . S
O1056 Gd1018 2.388 . S
O1056 C1064 1.252 . S
O1057 Gd1018 2.386 1_556 S
O1057 C1075 1.265 . S
O1058 Gd1019 2.353 1_556 S
O1058 C1075 1.242 . S
O1059 Gd1019 2.468 . S
O1059 C1083 1.263 . S
O1060 Gd1019 2.427 . S
O1060 C1083 1.252 . S
O1061 Gd1018 2.307 . S
O1061 C1076 1.261 . S
O1062 Gd1019 2.388 . S
O1062 C1076 1.252 . S
C1063 O1051 1.265 . S
C1063 O1052 1.242 . S
C1064 O1055 1.261 . S
C1064 O1056 1.252 . S
C1065 C1068 1.394 . S
C1065 C1070 1.370 . S
C1065 C1071 1.500 . S
C1066 C1069 1.383 . S
C1066 C1070 1.395 . S
C1067 C1068 1.396 . S
C1067 C1069 1.365 . S
C1067 H1084 0.929 . S
C1068 C1065 1.394 . S
C1068 C1067 1.396 . S
C1068 H1085 0.930 . S
C1069 C1066 1.383 . S
C1069 C1067 1.365 . S
C1069 H1086 0.931 . S
C1070 C1065 1.370 . S
C1070 C1066 1.395 . S
C1070 H1087 0.930 . S
C1071 Gd1018 2.805 . S
C1071 O1053 1.263 . S
C1071 O1054 1.252 . S
C1071 C1065 1.500 . S
C1072 H1034 0.930 . S
C1072 C1048 1.417 . S
C1072 C1073 1.329 . S
C1073 C1043 1.437 . S
C1073 H1044 0.929 . S
C1073 C1072 1.329 . S
H1074 C1047 0.931 . S
C1075 O1057 1.265 . S
C1075 O1058 1.242 . S
C1076 O1061 1.261 . S
C1076 O1062 1.252 . S
C1077 C1080 1.394 . S
C1077 C1082 1.370 . S
C1077 C1083 1.500 1_556 S
C1078 C1081 1.383 . S
C1078 C1082 1.395 . S
C1079 C1080 1.396 . S
C1079 C1081 1.365 . S
C1079 H1088 0.929 . S
C1080 C1077 1.394 . S
C1080 C1079 1.396 . S
C1080 H1089 0.930 . S
C1081 C1078 1.383 . S
C1081 C1079 1.365 . S
C1081 H1090 0.931 . S
C1082 C1077 1.370 . S
C1082 C1078 1.395 . S
C1082 H1091 0.930 . S
C1083 Gd1019 2.805 . S
C1083 O1059 1.263 . S
C1083 O1060 1.252 . S
C1083 C1077 1.500 1_554 S
H1084 C1067 0.929 . S
H1085 C1068 0.930 . S
H1086 C1069 0.931 . S
H1087 C1070 0.930 . S
H1088 C1079 0.929 . S
H1089 C1080 0.930 . S
H1090 C1081 0.931 . S
H1091 C1082 0.930 . S
C1092 C1094 1.422 . S
C1092 C1096 1.415 . S
C1092 N1098 1.369 . S
C1093 C1094 1.421 . S
C1093 C1095 1.417 . S
C1093 C1105 1.422 . S
C1094 C1092 1.422 . S
C1094 C1093 1.421 . S
C1094 N1104 1.359 . S
C1095 C1093 1.417 . S
C1095 C1097 1.329 . S
C1095 H1114 0.930 . S
C1096 C1092 1.415 . S
C1096 C1097 1.437 . S
C1096 C1100 1.413 . S
C1097 C1095 1.329 . S
C1097 C1096 1.437 . S
C1097 H1119 0.929 . S
N1098 C1092 1.369 . S
N1098 C1099 1.338 . S
N1098 Gd1103 2.622 . S
C1099 N1098 1.338 . S
C1099 C1101 1.378 . S
C1099 H1111 0.929 . S
C1100 C1096 1.413 . S
C1100 C1101 1.348 . S
C1100 H1116 0.931 . S
C1101 C1099 1.378 . S
C1101 C1100 1.348 . S
C1101 H1117 0.930 . S
Gd1102 N1122 2.622 . S
Gd1102 N1129 2.570 . S
Gd1102 O1136 2.353 . S
Gd1102 O1137 2.468 . S
Gd1102 O1138 2.427 . S
Gd1102 O1140 2.388 . S
Gd1102 O1141 2.386 . S
Gd1102 O1145 2.307 . S
Gd1102 C1155 2.805 . S
Gd1103 N1098 2.622 . S
Gd1103 N1104 2.570 . S
Gd1103 O1135 2.386 . S
Gd1103 O1139 2.307 . S
Gd1103 O1142 2.353 . S
Gd1103 O1143 2.468 . S
Gd1103 O1144 2.427 . S
Gd1103 O1146 2.388 . S
Gd1103 C1167 2.805 . S
N1104 C1094 1.359 . S
N1104 Gd1103 2.570 . S
N1104 C1106 1.343 . S
C1105 C1093 1.422 . S
C1105 C1107 1.321 . S
C1105 H1113 0.931 . S
C1106 N1104 1.343 . S
C1106 C1107 1.390 . S
C1106 H1108 0.931 . S
C1107 C1105 1.321 . S
C1107 C1106 1.390 . S
C1107 H1109 0.930 . S
H1108 C1106 0.931 . S
H1109 C1107 0.930 . S
H1110 C1133 0.931 . S
H1111 C1099 0.929 . S
H1112 C1134 0.930 . S
H1113 C1105 0.931 . S
H1114 C1095 0.930 . S
H1115 C1124 0.929 . S
H1116 C1100 0.931 . S
H1117 C1101 0.930 . S
H1118 C1156 0.930 . S
H1119 C1097 0.929 . S
H1120 C1125 0.931 . S
H1121 C1126 0.930 . S
N1122 Gd1102 2.622 . S
N1122 C1123 1.369 . S
N1122 C1124 1.338 . S
C1123 N1122 1.369 . S
C1123 C1127 1.415 . S
C1123 C1130 1.422 . S
C1124 H1115 0.929 . S
C1124 N1122 1.338 . S
C1124 C1126 1.378 . S
C1125 H1120 0.931 . S
C1125 C1126 1.348 . S
C1125 C1127 1.413 . S
C1126 H1121 0.930 . S
C1126 C1124 1.378 . S
C1126 C1125 1.348 . S
C1127 C1123 1.415 . S
C1127 C1125 1.413 . S
C1127 C1157 1.437 . S
H1128 C1157 0.929 . S
N1129 Gd1102 2.570 . S
N1129 C1130 1.359 . S
N1129 C1133 1.343 . S
C1130 C1123 1.422 . S
C1130 N1129 1.359 . S
C1130 C1132 1.421 . S
C1131 C1132 1.422 . S
C1131 C1134 1.321 . S
C1131 H1158 0.931 . S
C1132 C1130 1.421 . S
C1132 C1131 1.422 . S
C1132 C1156 1.417 . S
C1133 H1110 0.931 . S
C1133 N1129 1.343 . S
C1133 C1134 1.390 . S
C1134 H1112 0.930 . S
C1134 C1131 1.321 . S
C1134 C1133 1.390 . S
O1135 Gd1103 2.386 . S
O1135 C1147 1.265 . S
O1136 Gd1102 2.353 . S
O1136 C1147 1.242 . S
O1137 Gd1102 2.468 . S
O1137 C1155 1.263 . S
O1138 Gd1102 2.427 . S
O1138 C1155 1.252 . S
O1139 Gd1103 2.307 . S
O1139 C1148 1.261 . S
O1140 Gd1102 2.388 . S
O1140 C1148 1.252 . S
O1141 Gd1102 2.386 . S
O1141 C1159 1.265 . S
O1142 Gd1103 2.353 . S
O1142 C1159 1.242 . S
O1143 Gd1103 2.468 . S
O1143 C1167 1.263 . S
O1144 Gd1103 2.427 . S
O1144 C1167 1.252 . S
O1145 Gd1102 2.307 . S
O1145 C1160 1.261 . S
O1146 Gd1103 2.388 . S
O1146 C1160 1.252 . S
C1147 O1135 1.265 . S
C1147 O1136 1.242 . S
C1148 O1139 1.261 . S
C1148 O1140 1.252 . S
C1149 C1152 1.394 . S
C1149 C1154 1.370 . S
C1149 C1155 1.500 . S
C1150 C1153 1.383 . S
C1150 C1154 1.395 . S
C1151 C1152 1.396 . S
C1151 C1153 1.365 . S
C1151 H1168 0.929 . S
C1152 C1149 1.394 . S
C1152 C1151 1.396 . S
C1152 H1169 0.930 . S
C1153 C1150 1.383 . S
C1153 C1151 1.365 . S
C1153 H1170 0.931 . S
C1154 C1149 1.370 . S
C1154 C1150 1.395 . S
C1154 H1171 0.930 . S
C1155 Gd1102 2.805 . S
C1155 O1137 1.263 . S
C1155 O1138 1.252 . S
C1155 C1149 1.500 . S
C1156 H1118 0.930 . S
C1156 C1132 1.417 . S
C1156 C1157 1.329 . S
C1157 C1127 1.437 . S
C1157 H1128 0.929 . S
C1157 C1156 1.329 . S
H1158 C1131 0.931 . S
C1159 O1141 1.265 . S
C1159 O1142 1.242 . S
C1160 O1145 1.261 . S
C1160 O1146 1.252 . S
C1161 C1164 1.394 . S
C1161 C1166 1.370 . S
C1161 C1167 1.500 . S
C1162 C1165 1.383 . S
C1162 C1166 1.395 . S
C1163 C1164 1.396 . S
C1163 C1165 1.365 . S
C1163 H1172 0.929 . S
C1164 C1161 1.394 . S
C1164 C1163 1.396 . S
C1164 H1173 0.930 . S
C1165 C1162 1.383 . S
C1165 C1163 1.365 . S
C1165 H1174 0.931 . S
C1166 C1161 1.370 . S
C1166 C1162 1.395 . S
C1166 H1175 0.930 . S
C1167 Gd1103 2.805 . S
C1167 O1143 1.263 . S
C1167 O1144 1.252 . S
C1167 C1161 1.500 . S
H1168 C1151 0.929 . S
H1169 C1152 0.930 . S
H1170 C1153 0.931 . S
H1171 C1154 0.930 . S
H1172 C1163 0.929 . S
H1173 C1164 0.930 . S
H1174 C1165 0.931 . S
H1175 C1166 0.930 . S
C1176 C1178 1.422 . S
C1176 C1180 1.415 . S
C1176 N1182 1.369 . S
C1177 C1178 1.421 . S
C1177 C1179 1.417 . S
C1177 C1189 1.422 . S
C1178 C1176 1.422 . S
C1178 C1177 1.421 . S
C1178 N1188 1.359 . S
C1179 C1177 1.417 . S
C1179 C1181 1.329 . S
C1179 H1198 0.930 . S
C1180 C1176 1.415 . S
C1180 C1181 1.437 . S
C1180 C1184 1.413 . S
C1181 C1179 1.329 . S
C1181 C1180 1.437 . S
C1181 H1203 0.929 . S
N1182 C1176 1.369 . S
N1182 C1183 1.338 . S
N1182 Gd1187 2.622 . S
C1183 N1182 1.338 . S
C1183 C1185 1.378 . S
C1183 H1195 0.929 . S
C1184 C1180 1.413 . S
C1184 C1185 1.348 . S
C1184 H1200 0.931 . S
C1185 C1183 1.378 . S
C1185 C1184 1.348 . S
C1185 H1201 0.930 . S
Gd1186 N1206 2.622 1_455 S
Gd1186 N1213 2.570 1_455 S
Gd1186 O1220 2.353 . S
Gd1186 O1221 2.468 . S
Gd1186 O1222 2.427 . S
Gd1186 O1224 2.388 . S
Gd1186 O1225 2.386 1_455 S
Gd1186 O1229 2.307 . S
Gd1186 C1239 2.805 . S
Gd1187 N1182 2.622 . S
Gd1187 N1188 2.570 . S
Gd1187 O1219 2.386 . S
Gd1187 O1223 2.307 . S
Gd1187 O1226 2.353 1_455 S
Gd1187 O1227 2.468 . S
Gd1187 O1228 2.427 . S
Gd1187 O1230 2.388 . S
Gd1187 C1251 2.805 . S
N1188 C1178 1.359 . S
N1188 Gd1187 2.570 . S
N1188 C1190 1.343 . S
C1189 C1177 1.422 . S
C1189 C1191 1.321 . S
C1189 H1197 0.931 . S
C1190 N1188 1.343 . S
C1190 C1191 1.390 . S
C1190 H1192 0.931 . S
C1191 C1189 1.321 . S
C1191 C1190 1.390 . S
C1191 H1193 0.930 . S
H1192 C1190 0.931 . S
H1193 C1191 0.930 . S
H1194 C1217 0.931 1_455 S
H1195 C1183 0.929 . S
H1196 C1218 0.930 . S
H1197 C1189 0.931 . S
H1198 C1179 0.930 . S
H1199 C1208 0.929 1_455 S
H1200 C1184 0.931 . S
H1201 C1185 0.930 . S
H1202 C1240 0.930 . S
H1203 C1181 0.929 . S
H1204 C1209 0.931 . S
H1205 C1210 0.930 . S
N1206 Gd1186 2.622 1_655 S
N1206 C1207 1.369 . S
N1206 C1208 1.337 . S
C1207 N1206 1.369 . S
C1207 C1211 1.415 . S
C1207 C1214 1.422 . S
C1208 H1199 0.929 1_655 S
C1208 N1206 1.337 . S
C1208 C1210 1.379 . S
C1209 H1204 0.931 . S
C1209 C1210 1.348 . S
C1209 C1211 1.413 . S
C1210 H1205 0.930 . S
C1210 C1208 1.379 . S
C1210 C1209 1.348 . S
C1211 C1207 1.415 . S
C1211 C1209 1.413 . S
C1211 C1241 1.437 . S
H1212 C1241 0.929 . S
N1213 Gd1186 2.570 1_655 S
N1213 C1214 1.359 . S
N1213 C1217 1.343 . S
C1214 C1207 1.422 . S
C1214 N1213 1.359 . S
C1214 C1216 1.421 . S
C1215 C1216 1.422 . S
C1215 C1218 1.321 . S
C1215 H1242 0.931 . S
C1216 C1214 1.421 . S
C1216 C1215 1.422 . S
C1216 C1240 1.417 . S
C1217 H1194 0.931 1_655 S
C1217 N1213 1.343 . S
C1217 C1218 1.390 . S
C1218 H1196 0.930 . S
C1218 C1215 1.321 . S
C1218 C1217 1.390 . S
O1219 Gd1187 2.386 . S
O1219 C1231 1.265 . S
O1220 Gd1186 2.353 . S
O1220 C1231 1.242 . S
O1221 Gd1186 2.468 . S
O1221 C1239 1.263 . S
O1222 Gd1186 2.427 . S
O1222 C1239 1.252 . S
O1223 Gd1187 2.307 . S
O1223 C1232 1.261 . S
O1224 Gd1186 2.388 . S
O1224 C1232 1.252 . S
O1225 Gd1186 2.386 1_655 S
O1225 C1243 1.265 . S
O1226 Gd1187 2.353 1_655 S
O1226 C1243 1.242 . S
O1227 Gd1187 2.468 . S
O1227 C1251 1.263 . S
O1228 Gd1187 2.427 . S
O1228 C1251 1.252 . S
O1229 Gd1186 2.307 . S
O1229 C1244 1.261 . S
O1230 Gd1187 2.388 . S
O1230 C1244 1.252 . S
C1231 O1219 1.265 . S
C1231 O1220 1.242 . S
C1232 O1223 1.261 . S
C1232 O1224 1.252 . S
C1233 C1236 1.394 . S
C1233 C1238 1.370 . S
C1233 C1239 1.500 . S
C1234 C1237 1.383 . S
C1234 C1238 1.395 . S
C1235 C1236 1.396 . S
C1235 C1237 1.365 . S
C1235 H1252 0.929 . S
C1236 C1233 1.394 . S
C1236 C1235 1.396 . S
C1236 H1253 0.930 . S
C1237 C1234 1.383 . S
C1237 C1235 1.365 . S
C1237 H1254 0.931 . S
C1238 C1233 1.370 . S
C1238 C1234 1.395 . S
C1238 H1255 0.930 . S
C1239 Gd1186 2.805 . S
C1239 O1221 1.263 . S
C1239 O1222 1.252 . S
C1239 C1233 1.500 . S
C1240 H1202 0.930 . S
C1240 C1216 1.417 . S
C1240 C1241 1.329 . S
C1241 C1211 1.437 . S
C1241 H1212 0.929 . S
C1241 C1240 1.329 . S
H1242 C1215 0.931 . S
C1243 O1225 1.265 . S
C1243 O1226 1.242 . S
C1244 O1229 1.261 . S
C1244 O1230 1.252 . S
C1245 C1248 1.394 . S
C1245 C1250 1.370 . S
C1245 C1251 1.500 1_655 S
C1246 C1249 1.383 . S
C1246 C1250 1.395 . S
C1247 C1248 1.396 . S
C1247 C1249 1.365 . S
C1247 H1256 0.929 . S
C1248 C1245 1.394 . S
C1248 C1247 1.396 . S
C1248 H1257 0.930 . S
C1249 C1246 1.383 . S
C1249 C1247 1.365 . S
C1249 H1258 0.931 . S
C1250 C1245 1.370 . S
C1250 C1246 1.395 . S
C1250 H1259 0.930 . S
C1251 Gd1187 2.805 . S
C1251 O1227 1.263 . S
C1251 O1228 1.252 . S
C1251 C1245 1.500 1_455 S
H1252 C1235 0.929 . S
H1253 C1236 0.930 . S
H1254 C1237 0.931 . S
H1255 C1238 0.930 . S
H1256 C1247 0.929 . S
H1257 C1248 0.930 . S
H1258 C1249 0.931 . S
H1259 C1250 0.930 . S
C1260 C1262 1.422 . S
C1260 C1264 1.415 . S
C1260 N1266 1.369 . S
C1261 C1262 1.421 . S
C1261 C1263 1.417 . S
C1261 C1273 1.422 . S
C1262 C1260 1.422 . S
C1262 C1261 1.421 . S
C1262 N1272 1.359 . S
C1263 C1261 1.417 . S
C1263 C1265 1.329 . S
C1263 H1282 0.930 . S
C1264 C1260 1.415 . S
C1264 C1265 1.437 . S
C1264 C1268 1.413 . S
C1265 C1263 1.329 . S
C1265 C1264 1.437 . S
C1265 H1287 0.929 . S
N1266 C1260 1.369 . S
N1266 C1267 1.338 . S
N1266 Gd1271 2.622 . S
C1267 N1266 1.338 . S
C1267 C1269 1.378 . S
C1267 H1279 0.929 . S
C1268 C1264 1.413 . S
C1268 C1269 1.348 . S
C1268 H1284 0.931 . S
C1269 C1267 1.378 . S
C1269 C1268 1.348 . S
C1269 H1285 0.930 . S
Gd1270 N1290 2.622 . S
Gd1270 N1297 2.570 . S
Gd1270 O1304 2.353 . S
Gd1270 O1305 2.468 . S
Gd1270 O1306 2.427 . S
Gd1270 O1308 2.388 . S
Gd1270 O1309 2.386 . S
Gd1270 O1313 2.307 . S
Gd1270 C1323 2.805 . S
Gd1271 N1266 2.622 . S
Gd1271 N1272 2.570 . S
Gd1271 O1303 2.386 . S
Gd1271 O1307 2.307 . S
Gd1271 O1310 2.353 . S
Gd1271 O1311 2.468 . S
Gd1271 O1312 2.427 . S
Gd1271 O1314 2.388 . S
Gd1271 C1335 2.805 . S
N1272 C1262 1.359 . S
N1272 Gd1271 2.570 . S
N1272 C1274 1.343 . S
C1273 C1261 1.422 . S
C1273 C1275 1.321 . S
C1273 H1281 0.931 . S
C1274 N1272 1.343 . S
C1274 C1275 1.390 . S
C1274 H1276 0.931 . S
C1275 C1273 1.321 . S
C1275 C1274 1.390 . S
C1275 H1277 0.930 . S
H1276 C1274 0.931 . S
H1277 C1275 0.930 . S
H1278 C1301 0.931 . S
H1279 C1267 0.929 . S
H1280 C1302 0.930 . S
H1281 C1273 0.931 . S
H1282 C1263 0.930 . S
H1283 C1292 0.929 . S
H1284 C1268 0.931 . S
H1285 C1269 0.930 . S
H1286 C1324 0.930 . S
H1287 C1265 0.929 . S
H1288 C1293 0.931 . S
H1289 C1294 0.930 . S
N1290 Gd1270 2.622 . S
N1290 C1291 1.369 . S
N1290 C1292 1.338 . S
C1291 N1290 1.369 . S
C1291 C1295 1.415 . S
C1291 C1298 1.422 . S
C1292 H1283 0.929 . S
C1292 N1290 1.338 . S
C1292 C1294 1.378 . S
C1293 H1288 0.931 . S
C1293 C1294 1.348 . S
C1293 C1295 1.413 . S
C1294 H1289 0.930 . S
C1294 C1292 1.378 . S
C1294 C1293 1.348 . S
C1295 C1291 1.415 . S
C1295 C1293 1.413 . S
C1295 C1325 1.437 . S
H1296 C1325 0.929 . S
N1297 Gd1270 2.570 . S
N1297 C1298 1.359 . S
N1297 C1301 1.343 . S
C1298 C1291 1.422 . S
C1298 N1297 1.359 . S
C1298 C1300 1.421 . S
C1299 C1300 1.422 . S
C1299 C1302 1.321 . S
C1299 H1326 0.931 . S
C1300 C1298 1.421 . S
C1300 C1299 1.422 . S
C1300 C1324 1.417 . S
C1301 H1278 0.931 . S
C1301 N1297 1.343 . S
C1301 C1302 1.390 . S
C1302 H1280 0.930 . S
C1302 C1299 1.321 . S
C1302 C1301 1.390 . S
O1303 Gd1271 2.386 . S
O1303 C1315 1.265 . S
O1304 Gd1270 2.353 . S
O1304 C1315 1.242 . S
O1305 Gd1270 2.468 . S
O1305 C1323 1.263 . S
O1306 Gd1270 2.427 . S
O1306 C1323 1.252 . S
O1307 Gd1271 2.307 . S
O1307 C1316 1.261 . S
O1308 Gd1270 2.388 . S
O1308 C1316 1.252 . S
O1309 Gd1270 2.386 . S
O1309 C1327 1.265 . S
O1310 Gd1271 2.353 . S
O1310 C1327 1.242 . S
O1311 Gd1271 2.468 . S
O1311 C1335 1.263 . S
O1312 Gd1271 2.427 . S
O1312 C1335 1.252 . S
O1313 Gd1270 2.307 . S
O1313 C1328 1.261 . S
O1314 Gd1271 2.388 . S
O1314 C1328 1.252 . S
C1315 O1303 1.265 . S
C1315 O1304 1.242 . S
C1316 O1307 1.261 . S
C1316 O1308 1.252 . S
C1317 C1320 1.394 . S
C1317 C1322 1.370 . S
C1317 C1323 1.500 . S
C1318 C1321 1.383 . S
C1318 C1322 1.395 . S
C1319 C1320 1.396 . S
C1319 C1321 1.365 . S
C1319 H1336 0.929 . S
C1320 C1317 1.394 . S
C1320 C1319 1.396 . S
C1320 H1337 0.930 . S
C1321 C1318 1.383 . S
C1321 C1319 1.365 . S
C1321 H1338 0.931 . S
C1322 C1317 1.370 . S
C1322 C1318 1.395 . S
C1322 H1339 0.930 . S
C1323 Gd1270 2.805 . S
C1323 O1305 1.263 . S
C1323 O1306 1.252 . S
C1323 C1317 1.500 . S
C1324 H1286 0.930 . S
C1324 C1300 1.417 . S
C1324 C1325 1.329 . S
C1325 C1295 1.437 . S
C1325 H1296 0.929 . S
C1325 C1324 1.329 . S
H1326 C1299 0.931 . S
C1327 O1309 1.265 . S
C1327 O1310 1.242 . S
C1328 O1313 1.261 . S
C1328 O1314 1.252 . S
C1329 C1332 1.394 . S
C1329 C1334 1.370 . S
C1329 C1335 1.500 . S
C1330 C1333 1.383 . S
C1330 C1334 1.395 . S
C1331 C1332 1.396 . S
C1331 C1333 1.365 . S
C1331 H1340 0.929 . S
C1332 C1329 1.394 . S
C1332 C1331 1.396 . S
C1332 H1341 0.930 . S
C1333 C1330 1.383 . S
C1333 C1331 1.365 . S
C1333 H1342 0.931 . S
C1334 C1329 1.370 . S
C1334 C1330 1.395 . S
C1334 H1343 0.930 . S
C1335 Gd1271 2.805 . S
C1335 O1311 1.263 . S
C1335 O1312 1.252 . S
C1335 C1329 1.500 . S
H1336 C1319 0.929 . S
H1337 C1320 0.930 . S
H1338 C1321 0.931 . S
H1339 C1322 0.930 . S
H1340 C1331 0.929 . S
H1341 C1332 0.930 . S
H1342 C1333 0.931 . S
H1343 C1334 0.930 . S
C1344 C1346 1.422 . S
C1344 C1348 1.415 . S
C1344 N1350 1.369 . S
C1345 C1346 1.421 . S
C1345 C1347 1.417 . S
C1345 C1357 1.422 . S
C1346 C1344 1.422 . S
C1346 C1345 1.421 . S
C1346 N1356 1.359 . S
C1347 C1345 1.417 . S
C1347 C1349 1.329 . S
C1347 H1366 0.930 . S
C1348 C1344 1.415 . S
C1348 C1349 1.437 . S
C1348 C1352 1.413 . S
C1349 C1347 1.329 . S
C1349 C1348 1.437 . S
C1349 H1371 0.929 . S
N1350 C1344 1.369 . S
N1350 C1351 1.338 . S
N1350 Gd1355 2.622 . S
C1351 N1350 1.338 . S
C1351 C1353 1.378 . S
C1351 H1363 0.929 . S
C1352 C1348 1.413 . S
C1352 C1353 1.348 . S
C1352 H1368 0.931 . S
C1353 C1351 1.378 . S
C1353 C1352 1.348 . S
C1353 H1369 0.930 . S
Gd1354 N1374 2.622 . S
Gd1354 N1381 2.570 . S
Gd1354 O1388 2.353 . S
Gd1354 O1389 2.468 . S
Gd1354 O1390 2.427 . S
Gd1354 O1392 2.388 . S
Gd1354 O1393 2.386 . S
Gd1354 O1397 2.307 . S
Gd1354 C1407 2.805 . S
Gd1355 N1350 2.622 . S
Gd1355 N1356 2.570 . S
Gd1355 O1387 2.386 . S
Gd1355 O1391 2.307 . S
Gd1355 O1394 2.353 . S
Gd1355 O1395 2.468 . S
Gd1355 O1396 2.427 . S
Gd1355 O1398 2.388 . S
Gd1355 C1419 2.805 . S
N1356 C1346 1.359 . S
N1356 Gd1355 2.570 . S
N1356 C1358 1.343 . S
C1357 C1345 1.422 . S
C1357 C1359 1.321 . S
C1357 H1365 0.931 . S
C1358 N1356 1.343 . S
C1358 C1359 1.390 . S
C1358 H1360 0.931 . S
C1359 C1357 1.321 . S
C1359 C1358 1.390 . S
C1359 H1361 0.930 . S
H1360 C1358 0.931 . S
H1361 C1359 0.930 . S
H1362 C1385 0.931 . S
H1363 C1351 0.929 . S
H1364 C1386 0.930 . S
H1365 C1357 0.931 . S
H1366 C1347 0.930 . S
H1367 C1376 0.929 . S
H1368 C1352 0.931 . S
H1369 C1353 0.930 . S
H1370 C1408 0.930 . S
H1371 C1349 0.929 . S
H1372 C1377 0.931 . S
H1373 C1378 0.930 . S
N1374 Gd1354 2.622 . S
N1374 C1375 1.369 . S
N1374 C1376 1.338 . S
C1375 N1374 1.369 . S
C1375 C1379 1.415 . S
C1375 C1382 1.422 . S
C1376 H1367 0.929 . S
C1376 N1374 1.338 . S
C1376 C1378 1.378 . S
C1377 H1372 0.931 . S
C1377 C1378 1.348 . S
C1377 C1379 1.413 . S
C1378 H1373 0.930 . S
C1378 C1376 1.378 . S
C1378 C1377 1.348 . S
C1379 C1375 1.415 . S
C1379 C1377 1.413 . S
C1379 C1409 1.437 . S
H1380 C1409 0.929 . S
N1381 Gd1354 2.570 . S
N1381 C1382 1.359 . S
N1381 C1385 1.343 . S
C1382 C1375 1.422 . S
C1382 N1381 1.359 . S
C1382 C1384 1.421 . S
C1383 C1384 1.422 . S
C1383 C1386 1.321 . S
C1383 H1410 0.931 . S
C1384 C1382 1.421 . S
C1384 C1383 1.422 . S
C1384 C1408 1.417 . S
C1385 H1362 0.931 . S
C1385 N1381 1.343 . S
C1385 C1386 1.390 . S
C1386 H1364 0.930 . S
C1386 C1383 1.321 . S
C1386 C1385 1.390 . S
O1387 Gd1355 2.386 . S
O1387 C1399 1.265 . S
O1388 Gd1354 2.353 . S
O1388 C1399 1.242 . S
O1389 Gd1354 2.468 . S
O1389 C1407 1.263 . S
O1390 Gd1354 2.427 . S
O1390 C1407 1.252 . S
O1391 Gd1355 2.307 . S
O1391 C1400 1.261 . S
O1392 Gd1354 2.388 . S
O1392 C1400 1.252 . S
O1393 Gd1354 2.386 . S
O1393 C1411 1.265 . S
O1394 Gd1355 2.353 . S
O1394 C1411 1.242 . S
O1395 Gd1355 2.468 . S
O1395 C1419 1.263 . S
O1396 Gd1355 2.427 . S
O1396 C1419 1.252 . S
O1397 Gd1354 2.307 . S
O1397 C1412 1.261 . S
O1398 Gd1355 2.388 . S
O1398 C1412 1.252 . S
C1399 O1387 1.265 . S
C1399 O1388 1.242 . S
C1400 O1391 1.261 . S
C1400 O1392 1.252 . S
C1401 C1404 1.394 . S
C1401 C1406 1.370 . S
C1401 C1407 1.500 . S
C1402 C1405 1.383 . S
C1402 C1406 1.395 . S
C1403 C1404 1.396 . S
C1403 C1405 1.365 . S
C1403 H1420 0.929 . S
C1404 C1401 1.394 . S
C1404 C1403 1.396 . S
C1404 H1421 0.930 . S
C1405 C1402 1.383 . S
C1405 C1403 1.365 . S
C1405 H1422 0.931 . S
C1406 C1401 1.370 . S
C1406 C1402 1.395 . S
C1406 H1423 0.930 . S
C1407 Gd1354 2.805 . S
C1407 O1389 1.263 . S
C1407 O1390 1.252 . S
C1407 C1401 1.500 . S
C1408 H1370 0.930 . S
C1408 C1384 1.417 . S
C1408 C1409 1.329 . S
C1409 C1379 1.437 . S
C1409 H1380 0.929 . S
C1409 C1408 1.329 . S
H1410 C1383 0.931 . S
C1411 O1393 1.265 . S
C1411 O1394 1.242 . S
C1412 O1397 1.261 . S
C1412 O1398 1.252 . S
C1413 C1416 1.394 . S
C1413 C1418 1.370 . S
C1413 C1419 1.500 . S
C1414 C1417 1.383 . S
C1414 C1418 1.395 . S
C1415 C1416 1.396 . S
C1415 C1417 1.365 . S
C1415 H1424 0.929 . S
C1416 C1413 1.394 . S
C1416 C1415 1.396 . S
C1416 H1425 0.930 . S
C1417 C1414 1.383 . S
C1417 C1415 1.365 . S
C1417 H1426 0.931 . S
C1418 C1413 1.370 . S
C1418 C1414 1.395 . S
C1418 H1427 0.930 . S
C1419 Gd1355 2.805 . S
C1419 O1395 1.263 . S
C1419 O1396 1.252 . S
C1419 C1413 1.500 . S
H1420 C1403 0.929 . S
H1421 C1404 0.930 . S
H1422 C1405 0.931 . S
H1423 C1406 0.930 . S
H1424 C1415 0.929 . S
H1425 C1416 0.930 . S
H1426 C1417 0.931 . S
H1427 C1418 0.930 . S
C1428 C1430 1.422 . S
C1428 C1432 1.415 . S
C1428 N1434 1.369 . S
C1429 C1430 1.421 . S
C1429 C1431 1.417 . S
C1429 C1441 1.422 . S
C1430 C1428 1.422 . S
C1430 C1429 1.421 . S
C1430 N1440 1.359 . S
C1431 C1429 1.417 . S
C1431 C1433 1.329 . S
C1431 H1450 0.930 . S
C1432 C1428 1.415 . S
C1432 C1433 1.437 . S
C1432 C1436 1.413 . S
C1433 C1431 1.329 . S
C1433 C1432 1.437 . S
C1433 H1455 0.929 . S
N1434 C1428 1.369 . S
N1434 C1435 1.338 . S
N1434 Gd1439 2.622 . S
C1435 N1434 1.338 . S
C1435 C1437 1.378 . S
C1435 H1447 0.929 . S
C1436 C1432 1.413 . S
C1436 C1437 1.348 . S
C1436 H1452 0.931 . S
C1437 C1435 1.378 . S
C1437 C1436 1.348 . S
C1437 H1453 0.930 . S
Gd1438 N1458 2.622 . S
Gd1438 N1465 2.570 . S
Gd1438 O1472 2.353 . S
Gd1438 O1473 2.468 . S
Gd1438 O1474 2.427 . S
Gd1438 O1476 2.388 . S
Gd1438 O1477 2.386 . S
Gd1438 O1481 2.307 . S
Gd1438 C1491 2.805 . S
Gd1439 N1434 2.622 . S
Gd1439 N1440 2.570 . S
Gd1439 O1471 2.386 . S
Gd1439 O1475 2.307 . S
Gd1439 O1478 2.353 . S
Gd1439 O1479 2.468 . S
Gd1439 O1480 2.427 . S
Gd1439 O1482 2.388 . S
Gd1439 C1503 2.805 . S
N1440 C1430 1.359 . S
N1440 Gd1439 2.570 . S
N1440 C1442 1.343 . S
C1441 C1429 1.422 . S
C1441 C1443 1.321 . S
C1441 H1449 0.931 . S
C1442 N1440 1.343 . S
C1442 C1443 1.390 . S
C1442 H1444 0.931 . S
C1443 C1441 1.321 . S
C1443 C1442 1.390 . S
C1443 H1445 0.930 . S
H1444 C1442 0.931 . S
H1445 C1443 0.930 . S
H1446 C1469 0.931 . S
H1447 C1435 0.929 . S
H1448 C1470 0.930 . S
H1449 C1441 0.931 . S
H1450 C1431 0.930 . S
H1451 C1460 0.929 . S
H1452 C1436 0.931 . S
H1453 C1437 0.930 . S
H1454 C1492 0.930 . S
H1455 C1433 0.929 . S
H1456 C1461 0.931 . S
H1457 C1462 0.930 . S
N1458 Gd1438 2.622 . S
N1458 C1459 1.369 . S
N1458 C1460 1.338 . S
C1459 N1458 1.369 . S
C1459 C1463 1.415 . S
C1459 C1466 1.422 . S
C1460 H1451 0.929 . S
C1460 N1458 1.338 . S
C1460 C1462 1.378 . S
C1461 H1456 0.931 . S
C1461 C1462 1.348 . S
C1461 C1463 1.413 . S
C1462 H1457 0.930 . S
C1462 C1460 1.378 . S
C1462 C1461 1.348 . S
C1463 C1459 1.415 . S
C1463 C1461 1.413 . S
C1463 C1493 1.437 . S
H1464 C1493 0.929 . S
N1465 Gd1438 2.570 . S
N1465 C1466 1.359 . S
N1465 C1469 1.343 . S
C1466 C1459 1.422 . S
C1466 N1465 1.359 . S
C1466 C1468 1.421 . S
C1467 C1468 1.422 . S
C1467 C1470 1.321 . S
C1467 H1494 0.931 . S
C1468 C1466 1.421 . S
C1468 C1467 1.422 . S
C1468 C1492 1.417 . S
C1469 H1446 0.931 . S
C1469 N1465 1.343 . S
C1469 C1470 1.390 . S
C1470 H1448 0.930 . S
C1470 C1467 1.321 . S
C1470 C1469 1.390 . S
O1471 Gd1439 2.386 . S
O1471 C1483 1.265 . S
O1472 Gd1438 2.353 . S
O1472 C1483 1.242 . S
O1473 Gd1438 2.468 . S
O1473 C1491 1.263 . S
O1474 Gd1438 2.427 . S
O1474 C1491 1.252 . S
O1475 Gd1439 2.307 . S
O1475 C1484 1.261 . S
O1476 Gd1438 2.388 . S
O1476 C1484 1.252 . S
O1477 Gd1438 2.386 . S
O1477 C1495 1.265 . S
O1478 Gd1439 2.353 . S
O1478 C1495 1.242 . S
O1479 Gd1439 2.468 . S
O1479 C1503 1.263 . S
O1480 Gd1439 2.427 . S
O1480 C1503 1.252 . S
O1481 Gd1438 2.307 . S
O1481 C1496 1.261 . S
O1482 Gd1439 2.388 . S
O1482 C1496 1.252 . S
C1483 O1471 1.265 . S
C1483 O1472 1.242 . S
C1484 O1475 1.261 . S
C1484 O1476 1.252 . S
C1485 C1488 1.394 . S
C1485 C1490 1.370 . S
C1485 C1491 1.500 . S
C1486 C1489 1.383 . S
C1486 C1490 1.395 . S
C1487 C1488 1.396 . S
C1487 C1489 1.365 . S
C1487 H1504 0.929 . S
C1488 C1485 1.394 . S
C1488 C1487 1.396 . S
C1488 H1505 0.930 . S
C1489 C1486 1.383 . S
C1489 C1487 1.365 . S
C1489 H1506 0.931 . S
C1490 C1485 1.370 . S
C1490 C1486 1.395 . S
C1490 H1507 0.930 . S
C1491 Gd1438 2.805 . S
C1491 O1473 1.263 . S
C1491 O1474 1.252 . S
C1491 C1485 1.500 . S
C1492 H1454 0.930 . S
C1492 C1468 1.417 . S
C1492 C1493 1.329 . S
C1493 C1463 1.437 . S
C1493 H1464 0.929 . S
C1493 C1492 1.329 . S
H1494 C1467 0.931 . S
C1495 O1477 1.265 . S
C1495 O1478 1.242 . S
C1496 O1481 1.261 . S
C1496 O1482 1.252 . S
C1497 C1500 1.394 . S
C1497 C1502 1.370 . S
C1497 C1503 1.500 . S
C1498 C1501 1.383 . S
C1498 C1502 1.395 . S
C1499 C1500 1.396 . S
C1499 C1501 1.365 . S
C1499 H1508 0.929 . S
C1500 C1497 1.394 . S
C1500 C1499 1.396 . S
C1500 H1509 0.930 . S
C1501 C1498 1.383 . S
C1501 C1499 1.365 . S
C1501 H1510 0.931 . S
C1502 C1497 1.370 . S
C1502 C1498 1.395 . S
C1502 H1511 0.930 . S
C1503 Gd1439 2.805 . S
C1503 O1479 1.263 . S
C1503 O1480 1.252 . S
C1503 C1497 1.500 . S
H1504 C1487 0.929 . S
H1505 C1488 0.930 . S
H1506 C1489 0.931 . S
H1507 C1490 0.930 . S
H1508 C1499 0.929 . S
H1509 C1500 0.930 . S
H1510 C1501 0.931 . S
H1511 C1502 0.930 . S
C1512 C1514 1.422 . S
C1512 C1516 1.415 . S
C1512 N1518 1.369 . S
C1513 C1514 1.421 . S
C1513 C1515 1.417 . S
C1513 C1525 1.422 . S
C1514 C1512 1.422 . S
C1514 C1513 1.421 . S
C1514 N1524 1.359 . S
C1515 C1513 1.417 . S
C1515 C1517 1.329 . S
C1515 H1534 0.930 . S
C1516 C1512 1.415 . S
C1516 C1517 1.437 . S
C1516 C1520 1.413 . S
C1517 C1515 1.329 . S
C1517 C1516 1.437 . S
C1517 H1539 0.929 . S
N1518 C1512 1.369 . S
N1518 C1519 1.338 . S
N1518 Gd1523 2.622 . S
C1519 N1518 1.338 . S
C1519 C1521 1.378 . S
C1519 H1531 0.929 . S
C1520 C1516 1.413 . S
C1520 C1521 1.348 . S
C1520 H1536 0.931 . S
C1521 C1519 1.378 . S
C1521 C1520 1.348 . S
C1521 H1537 0.930 . S
Gd1522 N1542 2.622 . S
Gd1522 N1549 2.570 . S
Gd1522 O1556 2.353 . S
Gd1522 O1557 2.468 . S
Gd1522 O1558 2.427 . S
Gd1522 O1560 2.388 . S
Gd1522 O1561 2.386 . S
Gd1522 O1565 2.307 . S
Gd1522 C1575 2.805 . S
Gd1523 N1518 2.622 . S
Gd1523 N1524 2.570 . S
Gd1523 O1555 2.386 . S
Gd1523 O1559 2.307 . S
Gd1523 O1562 2.353 . S
Gd1523 O1563 2.468 . S
Gd1523 O1564 2.427 . S
Gd1523 O1566 2.388 . S
Gd1523 C1587 2.805 . S
N1524 C1514 1.359 . S
N1524 Gd1523 2.570 . S
N1524 C1526 1.343 . S
C1525 C1513 1.422 . S
C1525 C1527 1.321 . S
C1525 H1533 0.931 . S
C1526 N1524 1.343 . S
C1526 C1527 1.390 . S
C1526 H1528 0.931 . S
C1527 C1525 1.321 . S
C1527 C1526 1.390 . S
C1527 H1529 0.930 . S
H1528 C1526 0.931 . S
H1529 C1527 0.930 . S
H1530 C1553 0.931 . S
H1531 C1519 0.929 . S
H1532 C1554 0.930 . S
H1533 C1525 0.931 . S
H1534 C1515 0.930 . S
H1535 C1544 0.929 . S
H1536 C1520 0.931 . S
H1537 C1521 0.930 . S
H1538 C1576 0.930 . S
H1539 C1517 0.929 . S
H1540 C1545 0.931 . S
H1541 C1546 0.930 . S
N1542 Gd1522 2.622 . S
N1542 C1543 1.369 . S
N1542 C1544 1.338 . S
C1543 N1542 1.369 . S
C1543 C1547 1.415 . S
C1543 C1550 1.422 . S
C1544 H1535 0.929 . S
C1544 N1542 1.338 . S
C1544 C1546 1.378 . S
C1545 H1540 0.931 . S
C1545 C1546 1.348 . S
C1545 C1547 1.413 . S
C1546 H1541 0.930 . S
C1546 C1544 1.378 . S
C1546 C1545 1.348 . S
C1547 C1543 1.415 . S
C1547 C1545 1.413 . S
C1547 C1577 1.437 . S
H1548 C1577 0.929 . S
N1549 Gd1522 2.570 . S
N1549 C1550 1.359 . S
N1549 C1553 1.343 . S
C1550 C1543 1.422 . S
C1550 N1549 1.359 . S
C1550 C1552 1.421 . S
C1551 C1552 1.422 . S
C1551 C1554 1.321 . S
C1551 H1578 0.931 . S
C1552 C1550 1.421 . S
C1552 C1551 1.422 . S
C1552 C1576 1.417 . S
C1553 H1530 0.931 . S
C1553 N1549 1.343 . S
C1553 C1554 1.390 . S
C1554 H1532 0.930 . S
C1554 C1551 1.321 . S
C1554 C1553 1.390 . S
O1555 Gd1523 2.386 . S
O1555 C1567 1.265 . S
O1556 Gd1522 2.353 . S
O1556 C1567 1.242 . S
O1557 Gd1522 2.468 . S
O1557 C1575 1.263 . S
O1558 Gd1522 2.427 . S
O1558 C1575 1.252 . S
O1559 Gd1523 2.307 . S
O1559 C1568 1.261 . S
O1560 Gd1522 2.388 . S
O1560 C1568 1.252 . S
O1561 Gd1522 2.386 . S
O1561 C1579 1.265 . S
O1562 Gd1523 2.353 . S
O1562 C1579 1.242 . S
O1563 Gd1523 2.468 . S
O1563 C1587 1.263 . S
O1564 Gd1523 2.427 . S
O1564 C1587 1.252 . S
O1565 Gd1522 2.307 . S
O1565 C1580 1.261 . S
O1566 Gd1523 2.388 . S
O1566 C1580 1.252 . S
C1567 O1555 1.265 . S
C1567 O1556 1.242 . S
C1568 O1559 1.261 . S
C1568 O1560 1.252 . S
C1569 C1572 1.394 . S
C1569 C1574 1.370 . S
C1569 C1575 1.500 . S
C1570 C1573 1.383 . S
C1570 C1574 1.395 . S
C1571 C1572 1.396 . S
C1571 C1573 1.365 . S
C1571 H1588 0.929 . S
C1572 C1569 1.394 . S
C1572 C1571 1.396 . S
C1572 H1589 0.930 . S
C1573 C1570 1.383 . S
C1573 C1571 1.365 . S
C1573 H1590 0.931 . S
C1574 C1569 1.370 . S
C1574 C1570 1.395 . S
C1574 H1591 0.930 . S
C1575 Gd1522 2.805 . S
C1575 O1557 1.263 . S
C1575 O1558 1.252 . S
C1575 C1569 1.500 . S
C1576 H1538 0.930 . S
C1576 C1552 1.417 . S
C1576 C1577 1.329 . S
C1577 C1547 1.437 . S
C1577 H1548 0.929 . S
C1577 C1576 1.329 . S
H1578 C1551 0.931 . S
C1579 O1561 1.265 . S
C1579 O1562 1.242 . S
C1580 O1565 1.261 . S
C1580 O1566 1.252 . S
C1581 C1584 1.394 . S
C1581 C1586 1.370 . S
C1581 C1587 1.500 . S
C1582 C1585 1.383 . S
C1582 C1586 1.395 . S
C1583 C1584 1.396 . S
C1583 C1585 1.365 . S
C1583 H1592 0.929 . S
C1584 C1581 1.394 . S
C1584 C1583 1.396 . S
C1584 H1593 0.930 . S
C1585 C1582 1.383 . S
C1585 C1583 1.365 . S
C1585 H1594 0.931 . S
C1586 C1581 1.370 . S
C1586 C1582 1.395 . S
C1586 H1595 0.930 . S
C1587 Gd1523 2.805 . S
C1587 O1563 1.263 . S
C1587 O1564 1.252 . S
C1587 C1581 1.500 . S
H1588 C1571 0.929 . S
H1589 C1572 0.930 . S
H1590 C1573 0.931 . S
H1591 C1574 0.930 . S
H1592 C1583 0.929 . S
H1593 C1584 0.930 . S
H1594 C1585 0.931 . S
H1595 C1586 0.930 . S
C1596 C1598 1.422 1_556 S
C1596 C1600 1.415 . S
C1596 N1602 1.369 . S
C1597 C1598 1.421 . S
C1597 C1599 1.417 1_554 S
C1597 C1609 1.422 . S
C1598 C1596 1.422 1_554 S
C1598 C1597 1.421 . S
C1598 N1608 1.359 . S
C1599 C1597 1.417 1_556 S
C1599 C1601 1.329 . S
C1599 H1618 0.930 1_556 S
C1600 C1596 1.415 . S
C1600 C1601 1.437 . S
C1600 C1604 1.413 . S
C1601 C1599 1.329 . S
C1601 C1600 1.437 . S
C1601 H1623 0.929 . S
N1602 C1596 1.369 . S
N1602 C1603 1.338 . S
N1602 Gd1607 2.622 1_556 S
C1603 N1602 1.338 . S
C1603 C1605 1.378 . S
C1603 H1615 0.929 . S
C1604 C1600 1.413 . S
C1604 C1605 1.348 . S
C1604 H1620 0.931 . S
C1605 C1603 1.378 . S
C1605 C1604 1.348 . S
C1605 H1621 0.930 . S
Gd1606 N1626 2.622 . S
Gd1606 N1633 2.570 . S
Gd1606 O1640 2.353 1_655 S
Gd1606 O1641 2.468 . S
Gd1606 O1642 2.427 . S
Gd1606 O1644 2.388 1_655 S
Gd1606 O1645 2.386 1_655 S
Gd1606 O1649 2.303 1_654 S
Gd1606 C1659 2.805 . S
Gd1607 N1602 2.622 1_554 S
Gd1607 N1608 2.570 . S
Gd1607 O1639 2.386 . S
Gd1607 O1643 2.307 . S
Gd1607 O1646 2.353 . S
Gd1607 O1647 2.468 . S
Gd1607 O1648 2.427 1_554 S
Gd1607 O1650 2.388 1_554 S
Gd1607 C1671 2.805 1_554 S
N1608 C1598 1.359 . S
N1608 Gd1607 2.570 . S
N1608 C1610 1.343 . S
C1609 C1597 1.422 . S
C1609 C1611 1.321 . S
C1609 H1617 0.931 . S
C1610 N1608 1.343 . S
C1610 C1611 1.390 . S
C1610 H1612 0.931 . S
C1611 C1609 1.321 . S
C1611 C1610 1.390 . S
C1611 H1613 0.930 . S
H1612 C1610 0.931 . S
H1613 C1611 0.930 . S
H1614 C1637 0.931 . S
H1615 C1603 0.929 . S
H1616 C1638 0.930 . S
H1617 C1609 0.931 . S
H1618 C1599 0.930 1_554 S
H1619 C1628 0.929 1_455 S
H1620 C1604 0.931 . S
H1621 C1605 0.930 . S
H1622 C1660 0.930 . S
H1623 C1601 0.929 . S
H1624 C1629 0.931 . S
H1625 C1630 0.930 . S
N1626 Gd1606 2.622 . S
N1626 C1627 1.369 . S
N1626 C1628 1.338 . S
C1627 N1626 1.369 . S
C1627 C1631 1.415 . S
C1627 C1634 1.422 . S
C1628 H1619 0.929 1_655 S
C1628 N1626 1.338 . S
C1628 C1630 1.378 . S
C1629 H1624 0.931 . S
C1629 C1630 1.348 . S
C1629 C1631 1.413 . S
C1630 H1625 0.930 . S
C1630 C1628 1.378 . S
C1630 C1629 1.348 . S
C1631 C1627 1.415 . S
C1631 C1629 1.413 . S
C1631 C1661 1.437 . S
H1632 C1661 0.929 . S
N1633 Gd1606 2.570 . S
N1633 C1634 1.359 . S
N1633 C1637 1.343 1_554 S
C1634 C1627 1.422 . S
C1634 N1633 1.359 . S
C1634 C1636 1.421 . S
C1635 C1636 1.424 1_556 S
C1635 C1638 1.320 . S
C1635 H1662 0.930 . S
C1636 C1634 1.421 . S
C1636 C1635 1.424 1_554 S
C1636 C1660 1.417 . S
C1637 H1614 0.931 . S
C1637 N1633 1.343 1_556 S
C1637 C1638 1.390 . S
C1638 H1616 0.930 . S
C1638 C1635 1.320 . S
C1638 C1637 1.390 . S
O1639 Gd1607 2.386 . S
O1639 C1651 1.265 . S
O1640 Gd1606 2.353 1_455 S
O1640 C1651 1.242 . S
O1641 Gd1606 2.468 . S
O1641 C1659 1.263 . S
O1642 Gd1606 2.427 . S
O1642 C1659 1.252 . S
O1643 Gd1607 2.307 . S
O1643 C1652 1.261 . S
O1644 Gd1606 2.388 1_455 S
O1644 C1652 1.252 . S
O1645 Gd1606 2.386 1_455 S
O1645 C1663 1.265 . S
O1646 Gd1607 2.353 . S
O1646 C1663 1.242 . S
O1647 Gd1607 2.468 . S
O1647 C1671 1.263 1_554 S
O1648 Gd1607 2.427 1_556 S
O1648 C1671 1.252 . S
O1649 Gd1606 2.303 1_456 S
O1649 C1664 1.268 . S
O1650 Gd1607 2.388 1_556 S
O1650 C1664 1.252 . S
C1651 O1639 1.265 . S
C1651 O1640 1.242 . S
C1652 O1643 1.261 . S
C1652 O1644 1.252 . S
C1653 C1656 1.394 . S
C1653 C1658 1.370 . S
C1653 C1659 1.500 . S
C1654 C1657 1.383 . S
C1654 C1658 1.395 . S
C1655 C1656 1.396 . S
C1655 C1657 1.365 . S
C1655 H1672 0.929 . S
C1656 C1653 1.394 . S
C1656 C1655 1.396 . S
C1656 H1673 0.930 . S
C1657 C1654 1.383 . S
C1657 C1655 1.365 . S
C1657 H1674 0.931 . S
C1658 C1653 1.370 . S
C1658 C1654 1.395 . S
C1658 H1675 0.930 . S
C1659 Gd1606 2.805 . S
C1659 O1641 1.263 . S
C1659 O1642 1.252 . S
C1659 C1653 1.500 . S
C1660 H1622 0.930 . S
C1660 C1636 1.417 . S
C1660 C1661 1.329 . S
C1661 C1631 1.437 . S
C1661 H1632 0.929 . S
C1661 C1660 1.329 . S
H1662 C1635 0.930 . S
C1663 O1645 1.265 . S
C1663 O1646 1.242 . S
C1664 O1649 1.268 . S
C1664 O1650 1.252 . S
C1665 C1668 1.394 . S
C1665 C1670 1.370 1_556 S
C1665 C1671 1.500 . S
C1666 C1669 1.383 1_554 S
C1666 C1670 1.395 . S
C1667 C1668 1.396 . S
C1667 C1669 1.365 . S
C1667 H1676 0.929 . S
C1668 C1665 1.394 . S
C1668 C1667 1.396 . S
C1668 H1677 0.930 . S
C1669 C1666 1.383 1_556 S
C1669 C1667 1.365 . S
C1669 H1678 0.931 . S
C1670 C1665 1.370 1_554 S
C1670 C1666 1.395 . S
C1670 H1679 0.930 . S
C1671 Gd1607 2.805 1_556 S
C1671 O1647 1.263 1_556 S
C1671 O1648 1.252 . S
C1671 C1665 1.500 . S
H1672 C1655 0.929 . S
H1673 C1656 0.930 . S
H1674 C1657 0.931 . S
H1675 C1658 0.930 . S
H1676 C1667 0.929 . S
H1677 C1668 0.930 . S
H1678 C1669 0.931 . S
H1679 C1670 0.930 . S
H1680 C1698 0.951 . S
H1681 C1700 0.951 . S
H1682 C1702 0.950 . S
H1683 C1703 0.950 . S
H1684 C1705 0.950 . S
H1685 C1708 0.950 1_655 S
H1686 C1709 0.950 . S
H1687 C1711 0.950 . S
H1688 C1712 0.950 . S
H1689 C1713 0.969 . S
H1690 C1715 0.951 . S
H1691 C1717 0.950 . S
H1692 C1718 0.951 . S
H1693 C1720 0.950 . S
H1694 C1723 0.950 . S
H1695 C1724 0.950 . S
H1696 C1726 0.950 . S
H1697 C1727 0.950 . S
C1698 H1680 0.951 . S
C1698 C1699 1.366 1_455 S
C1698 C1700 1.388 . S
C1699 C1698 1.366 1_655 S
C1699 C1703 1.385 . S
C1700 H1681 0.951 . S
C1700 C1698 1.388 . S
C1700 C1701 1.366 . S
C1701 C1700 1.366 . S
C1701 C1702 1.414 1_455 S
C1701 C1704 1.499 . S
C1702 H1682 0.950 . S
C1702 C1701 1.414 1_655 S
C1702 C1703 1.374 . S
C1703 H1683 0.950 . S
C1703 C1699 1.385 . S
C1703 C1702 1.374 . S
C1704 C1701 1.499 . S
C1704 C1705 1.373 1_455 S
C1704 C1706 1.389 . S
C1705 H1684 0.950 . S
C1705 C1704 1.373 1_655 S
C1705 C1721 1.365 1_655 S
C1706 C1704 1.389 . S
C1706 C1707 1.524 . S
C1706 C1720 1.377 . S
C1707 C1706 1.524 . S
C1707 C1708 1.397 . S
C1707 C1712 1.363 . S
C1708 H1685 0.950 1_455 S
C1708 C1707 1.397 . S
C1708 C1709 1.334 . S
C1709 H1686 0.950 . S
C1709 C1708 1.334 . S
C1709 C1710 1.287 . S
C1710 C1709 1.287 . S
C1710 C1711 1.524 . S
C1710 H1729 0.913 . S
C1711 H1687 0.950 . S
C1711 C1710 1.524 . S
C1711 C1712 1.415 . S
C1712 H1688 0.950 . S
C1712 C1707 1.363 . S
C1712 C1711 1.415 . S
C1713 H1689 0.969 . S
C1713 C1714 1.341 1_655 S
C1713 C1715 1.395 1_554 S
C1714 C1713 1.341 1_455 S
C1714 C1718 1.362 1_554 S
C1715 H1690 0.951 . S
C1715 C1713 1.395 1_556 S
C1715 C1716 1.366 1_655 S
C1716 C1715 1.366 1_455 S
C1716 C1717 1.414 . S
C1716 C1719 1.499 . S
C1717 H1691 0.950 . S
C1717 C1716 1.414 . S
C1717 C1718 1.399 . S
C1718 H1692 0.951 . S
C1718 C1714 1.362 1_556 S
C1718 C1717 1.399 . S
C1719 C1716 1.499 . S
C1719 C1720 1.373 . S
C1719 C1721 1.417 . S
C1720 H1693 0.950 . S
C1720 C1706 1.377 . S
C1720 C1719 1.373 . S
C1721 C1705 1.365 1_455 S
C1721 C1719 1.417 . S
C1721 C1722 1.510 1_456 S
C1722 C1721 1.510 1_654 S
C1722 C1723 1.397 1_655 S
C1722 C1727 1.363 . S
C1723 H1694 0.950 . S
C1723 C1722 1.397 1_455 S
C1723 C1724 1.334 . S
C1724 H1695 0.950 . S
C1724 C1723 1.334 . S
C1724 C1725 1.287 1_455 S
C1725 C1724 1.287 1_655 S
C1725 C1726 1.524 . S
C1725 H1728 0.999 . S
C1726 H1696 0.950 . S
C1726 C1725 1.524 . S
C1726 C1727 1.415 . S
C1727 H1697 0.950 . S
C1727 C1722 1.363 . S
C1727 C1726 1.415 . S
H1728 C1725 0.999 . S
H1729 C1710 0.913 . S
H1730 C1748 0.951 . S
H1731 C1750 0.951 . S
H1732 C1752 0.950 . S
H1733 C1753 0.950 . S
H1734 C1755 0.950 . S
H1735 C1758 0.950 . S
H1736 C1759 0.950 . S
H1737 C1761 0.950 . S
H1738 C1762 0.950 . S
H1739 C1763 0.951 . S
H1740 C1765 0.951 . S
H1741 C1767 0.950 . S
H1742 C1768 0.950 . S
H1743 C1770 0.950 . S
H1744 C1773 0.950 . S
H1745 C1774 0.950 . S
H1746 C1776 0.950 . S
H1747 C1777 0.950 . S
C1748 H1730 0.951 . S
C1748 C1749 1.366 . S
C1748 C1750 1.388 . S
C1749 C1748 1.366 . S
C1749 C1753 1.385 . S
C1750 H1731 0.951 . S
C1750 C1748 1.388 . S
C1750 C1751 1.366 . S
C1751 C1750 1.366 . S
C1751 C1752 1.414 . S
C1751 C1754 1.499 . S
C1752 H1732 0.950 . S
C1752 C1751 1.414 . S
C1752 C1753 1.374 . S
C1753 H1733 0.950 . S
C1753 C1749 1.385 . S
C1753 C1752 1.374 . S
C1754 C1751 1.499 . S
C1754 C1755 1.373 . S
C1754 C1756 1.389 . S
C1755 H1734 0.950 . S
C1755 C1754 1.373 . S
C1755 C1771 1.377 . S
C1756 C1754 1.389 . S
C1756 C1757 1.524 . S
C1756 C1770 1.377 . S
C1757 C1756 1.524 . S
C1757 C1758 1.397 . S
C1757 C1762 1.363 . S
C1758 H1735 0.950 . S
C1758 C1757 1.397 . S
C1758 C1759 1.334 . S
C1759 H1736 0.950 . S
C1759 C1758 1.334 . S
C1759 C1760 1.287 . S
C1760 C1759 1.287 . S
C1760 C1761 1.524 . S
C1760 H1779 0.913 . S
C1761 H1737 0.950 . S
C1761 C1760 1.524 . S
C1761 C1762 1.415 . S
C1762 H1738 0.950 . S
C1762 C1757 1.363 . S
C1762 C1761 1.415 . S
C1763 H1739 0.951 . S
C1763 C1764 1.366 . S
C1763 C1765 1.388 . S
C1764 C1763 1.366 . S
C1764 C1768 1.385 . S
C1765 H1740 0.951 . S
C1765 C1763 1.388 . S
C1765 C1766 1.366 . S
C1766 C1765 1.366 . S
C1766 C1767 1.414 . S
C1766 C1769 1.499 . S
C1767 H1741 0.950 . S
C1767 C1766 1.414 . S
C1767 C1768 1.374 . S
C1768 H1742 0.950 . S
C1768 C1764 1.385 . S
C1768 C1767 1.374 . S
C1769 C1766 1.499 . S
C1769 C1770 1.373 . S
C1769 C1771 1.389 . S
C1770 H1743 0.950 . S
C1770 C1756 1.377 . S
C1770 C1769 1.373 . S
C1771 C1755 1.377 . S
C1771 C1769 1.389 . S
C1771 C1772 1.524 . S
C1772 C1771 1.524 . S
C1772 C1773 1.397 . S
C1772 C1777 1.363 . S
C1773 H1744 0.950 . S
C1773 C1772 1.397 . S
C1773 C1774 1.334 . S
C1774 H1745 0.950 . S
C1774 C1773 1.334 . S
C1774 C1775 1.287 . S
C1775 C1774 1.287 . S
C1775 C1776 1.524 . S
C1775 H1778 0.999 . S
C1776 H1746 0.950 . S
C1776 C1775 1.524 . S
C1776 C1777 1.415 . S
C1777 H1747 0.950 . S
C1777 C1772 1.363 . S
C1777 C1776 1.415 . S
H1778 C1775 0.999 . S
H1779 C1760 0.913 . S
H1780 C1798 0.951 . S
H1781 C1800 0.951 . S
H1782 C1802 0.950 . S
H1783 C1803 0.950 . S
H1784 C1805 0.950 . S
H1785 C1808 0.950 . S
H1786 C1809 0.950 . S
H1787 C1811 0.950 . S
H1788 C1812 0.950 . S
H1789 C1813 0.951 . S
H1790 C1815 0.951 . S
H1791 C1817 0.950 . S
H1792 C1818 0.950 . S
H1793 C1820 0.950 . S
H1794 C1823 0.950 . S
H1795 C1824 0.950 . S
H1796 C1826 0.950 . S
H1797 C1827 0.950 . S
C1798 H1780 0.951 . S
C1798 C1799 1.366 . S
C1798 C1800 1.388 . S
C1799 C1798 1.366 . S
C1799 C1803 1.385 . S
C1800 H1781 0.951 . S
C1800 C1798 1.388 . S
C1800 C1801 1.366 . S
C1801 C1800 1.366 . S
C1801 C1802 1.414 . S
C1801 C1804 1.499 . S
C1802 H1782 0.950 . S
C1802 C1801 1.414 . S
C1802 C1803 1.374 . S
C1803 H1783 0.950 . S
C1803 C1799 1.385 . S
C1803 C1802 1.374 . S
C1804 C1801 1.499 . S
C1804 C1805 1.373 . S
C1804 C1806 1.389 . S
C1805 H1784 0.950 . S
C1805 C1804 1.373 . S
C1805 C1821 1.377 . S
C1806 C1804 1.389 . S
C1806 C1807 1.524 . S
C1806 C1820 1.377 . S
C1807 C1806 1.524 . S
C1807 C1808 1.397 . S
C1807 C1812 1.363 . S
C1808 H1785 0.950 . S
C1808 C1807 1.397 . S
C1808 C1809 1.334 . S
C1809 H1786 0.950 . S
C1809 C1808 1.334 . S
C1809 C1810 1.287 . S
C1810 C1809 1.287 . S
C1810 C1811 1.524 . S
C1810 H1829 0.913 . S
C1811 H1787 0.950 . S
C1811 C1810 1.524 . S
C1811 C1812 1.415 . S
C1812 H1788 0.950 . S
C1812 C1807 1.363 . S
C1812 C1811 1.415 . S
C1813 H1789 0.951 . S
C1813 C1814 1.366 . S
C1813 C1815 1.388 . S
C1814 C1813 1.366 . S
C1814 C1818 1.385 . S
C1815 H1790 0.951 . S
C1815 C1813 1.388 . S
C1815 C1816 1.366 . S
C1816 C1815 1.366 . S
C1816 C1817 1.414 . S
C1816 C1819 1.499 . S
C1817 H1791 0.950 . S
C1817 C1816 1.414 . S
C1817 C1818 1.374 . S
C1818 H1792 0.950 . S
C1818 C1814 1.385 . S
C1818 C1817 1.374 . S
C1819 C1816 1.499 . S
C1819 C1820 1.373 . S
C1819 C1821 1.389 . S
C1820 H1793 0.950 . S
C1820 C1806 1.377 . S
C1820 C1819 1.373 . S
C1821 C1805 1.377 . S
C1821 C1819 1.389 . S
C1821 C1822 1.524 . S
C1822 C1821 1.524 . S
C1822 C1823 1.397 . S
C1822 C1827 1.363 . S
C1823 H1794 0.950 . S
C1823 C1822 1.397 . S
C1823 C1824 1.334 . S
C1824 H1795 0.950 . S
C1824 C1823 1.334 . S
C1824 C1825 1.287 . S
C1825 C1824 1.287 . S
C1825 C1826 1.524 . S
C1825 H1828 0.999 . S
C1826 H1796 0.950 . S
C1826 C1825 1.524 . S
C1826 C1827 1.415 . S
C1827 H1797 0.950 . S
C1827 C1822 1.363 . S
C1827 C1826 1.415 . S
H1828 C1825 0.999 . S
H1829 C1810 0.913 . S
H1830 C1848 0.951 . S
H1831 C1850 0.951 . S
H1832 C1852 0.950 . S
H1833 C1853 0.950 . S
H1834 C1855 0.950 . S
H1835 C1858 0.950 . S
H1836 C1859 0.950 . S
H1837 C1861 0.950 . S
H1838 C1862 0.950 . S
H1839 C1863 0.951 . S
H1840 C1865 0.951 . S
H1841 C1867 0.950 . S
H1842 C1868 0.950 . S
H1843 C1870 0.950 . S
H1844 C1873 0.950 . S
H1845 C1874 0.950 . S
H1846 C1876 0.950 . S
H1847 C1877 0.950 . S
C1848 H1830 0.951 . S
C1848 C1849 1.366 . S
C1848 C1850 1.388 . S
C1849 C1848 1.366 . S
C1849 C1853 1.385 . S
C1850 H1831 0.951 . S
C1850 C1848 1.388 . S
C1850 C1851 1.366 . S
C1851 C1850 1.366 . S
C1851 C1852 1.414 . S
C1851 C1854 1.499 . S
C1852 H1832 0.950 . S
C1852 C1851 1.414 . S
C1852 C1853 1.374 . S
C1853 H1833 0.950 . S
C1853 C1849 1.385 . S
C1853 C1852 1.374 . S
C1854 C1851 1.499 . S
C1854 C1855 1.373 . S
C1854 C1856 1.389 . S
C1855 H1834 0.950 . S
C1855 C1854 1.373 . S
C1855 C1871 1.377 . S
C1856 C1854 1.389 . S
C1856 C1857 1.524 . S
C1856 C1870 1.377 . S
C1857 C1856 1.524 . S
C1857 C1858 1.397 . S
C1857 C1862 1.363 . S
C1858 H1835 0.950 . S
C1858 C1857 1.397 . S
C1858 C1859 1.334 . S
C1859 H1836 0.950 . S
C1859 C1858 1.334 . S
C1859 C1860 1.287 . S
C1860 C1859 1.287 . S
C1860 C1861 1.524 . S
C1860 H1879 0.913 . S
C1861 H1837 0.950 . S
C1861 C1860 1.524 . S
C1861 C1862 1.415 . S
C1862 H1838 0.950 . S
C1862 C1857 1.363 . S
C1862 C1861 1.415 . S
C1863 H1839 0.951 . S
C1863 C1864 1.366 . S
C1863 C1865 1.388 . S
C1864 C1863 1.366 . S
C1864 C1868 1.385 . S
C1865 H1840 0.951 . S
C1865 C1863 1.388 . S
C1865 C1866 1.366 . S
C1866 C1865 1.366 . S
C1866 C1867 1.414 . S
C1866 C1869 1.499 . S
C1867 H1841 0.950 . S
C1867 C1866 1.414 . S
C1867 C1868 1.374 . S
C1868 H1842 0.950 . S
C1868 C1864 1.385 . S
C1868 C1867 1.374 . S
C1869 C1866 1.499 . S
C1869 C1870 1.373 . S
C1869 C1871 1.389 . S
C1870 H1843 0.950 . S
C1870 C1856 1.377 . S
C1870 C1869 1.373 . S
C1871 C1855 1.377 . S
C1871 C1869 1.389 . S
C1871 C1872 1.524 . S
C1872 C1871 1.524 . S
C1872 C1873 1.397 . S
C1872 C1877 1.363 . S
C1873 H1844 0.950 . S
C1873 C1872 1.397 . S
C1873 C1874 1.334 . S
C1874 H1845 0.950 . S
C1874 C1873 1.334 . S
C1874 C1875 1.287 . S
C1875 C1874 1.287 . S
C1875 C1876 1.524 . S
C1875 H1878 0.999 . S
C1876 H1846 0.950 . S
C1876 C1875 1.524 . S
C1876 C1877 1.415 . S
C1877 H1847 0.950 . S
C1877 C1872 1.363 . S
C1877 C1876 1.415 . S
H1878 C1875 0.999 . S
H1879 C1860 0.913 . S
H1880 C1898 0.951 . S
H1881 C1900 0.951 . S
H1882 C1902 0.950 . S
H1883 C1903 0.950 . S
H1884 C1905 0.950 1_655 S
H1885 C1908 0.950 . S
H1886 C1909 0.950 . S
H1887 C1911 0.950 . S
H1888 C1912 0.950 . S
H1889 C1913 0.951 . S
H1890 C1915 0.951 . S
H1891 C1917 0.950 . S
H1892 C1918 0.950 . S
H1893 C1920 0.950 . S
H1894 C1923 0.950 . S
H1895 C1924 0.950 . S
H1896 C1926 0.950 . S
H1897 C1927 0.950 . S
C1898 H1880 0.951 . S
C1898 C1899 1.366 . S
C1898 C1900 1.388 . S
C1899 C1898 1.366 . S
C1899 C1903 1.385 . S
C1900 H1881 0.951 . S
C1900 C1898 1.388 . S
C1900 C1901 1.366 . S
C1901 C1900 1.366 . S
C1901 C1902 1.414 . S
C1901 C1904 1.499 . S
C1902 H1882 0.950 . S
C1902 C1901 1.414 . S
C1902 C1903 1.374 . S
C1903 H1883 0.950 . S
C1903 C1899 1.385 . S
C1903 C1902 1.374 . S
C1904 C1901 1.499 . S
C1904 C1905 1.373 . S
C1904 C1906 1.389 . S
C1905 H1884 0.950 1_455 S
C1905 C1904 1.373 . S
C1905 C1921 1.377 . S
C1906 C1904 1.389 . S
C1906 C1907 1.524 . S
C1906 C1920 1.377 . S
C1907 C1906 1.524 . S
C1907 C1908 1.397 . S
C1907 C1912 1.363 . S
C1908 H1885 0.950 . S
C1908 C1907 1.397 . S
C1908 C1909 1.334 . S
C1909 H1886 0.950 . S
C1909 C1908 1.334 . S
C1909 C1910 1.287 . S
C1910 C1909 1.287 . S
C1910 C1911 1.524 . S
C1910 H1929 0.913 . S
C1911 H1887 0.950 . S
C1911 C1910 1.524 . S
C1911 C1912 1.415 . S
C1912 H1888 0.950 . S
C1912 C1907 1.363 . S
C1912 C1911 1.415 . S
C1913 H1889 0.951 . S
C1913 C1914 1.366 . S
C1913 C1915 1.388 . S
C1914 C1913 1.366 . S
C1914 C1918 1.385 . S
C1915 H1890 0.951 . S
C1915 C1913 1.388 . S
C1915 C1916 1.366 . S
C1916 C1915 1.366 . S
C1916 C1917 1.414 . S
C1916 C1919 1.499 . S
C1917 H1891 0.950 . S
C1917 C1916 1.414 . S
C1917 C1918 1.374 . S
C1918 H1892 0.950 . S
C1918 C1914 1.385 . S
C1918 C1917 1.374 . S
C1919 C1916 1.499 . S
C1919 C1920 1.373 . S
C1919 C1921 1.389 . S
C1920 H1893 0.950 . S
C1920 C1906 1.377 . S
C1920 C1919 1.373 . S
C1921 C1905 1.377 . S
C1921 C1919 1.389 . S
C1921 C1922 1.524 1_455 S
C1922 C1921 1.524 1_655 S
C1922 C1923 1.397 . S
C1922 C1927 1.363 . S
C1923 H1894 0.950 . S
C1923 C1922 1.397 . S
C1923 C1924 1.334 . S
C1924 H1895 0.950 . S
C1924 C1923 1.334 . S
C1924 C1925 1.287 . S
C1925 C1924 1.287 . S
C1925 C1926 1.524 . S
C1925 H1928 0.999 . S
C1926 H1896 0.950 . S
C1926 C1925 1.524 . S
C1926 C1927 1.415 . S
C1927 H1897 0.950 . S
C1927 C1922 1.363 . S
C1927 C1926 1.415 . S
H1928 C1925 0.999 . S
H1929 C1910 0.913 . S
H1930 C1948 0.951 . S
H1931 C1950 0.951 . S
H1932 C1952 0.950 . S
H1933 C1953 0.950 . S
H1934 C1955 0.950 . S
H1935 C1958 0.950 . S
H1936 C1959 0.950 . S
H1937 C1961 0.950 . S
H1938 C1962 0.950 . S
H1939 C1963 0.951 . S
H1940 C1965 0.951 . S
H1941 C1967 0.950 . S
H1942 C1968 0.950 . S
H1943 C1970 0.950 . S
H1944 C1973 0.950 . S
H1945 C1974 0.950 . S
H1946 C1976 0.950 . S
H1947 C1977 0.950 . S
C1948 H1930 0.951 . S
C1948 C1949 1.366 . S
C1948 C1950 1.388 . S
C1949 C1948 1.366 . S
C1949 C1953 1.385 . S
C1950 H1931 0.951 . S
C1950 C1948 1.388 . S
C1950 C1951 1.366 . S
C1951 C1950 1.366 . S
C1951 C1952 1.414 . S
C1951 C1954 1.499 . S
C1952 H1932 0.950 . S
C1952 C1951 1.414 . S
C1952 C1953 1.374 . S
C1953 H1933 0.950 . S
C1953 C1949 1.385 . S
C1953 C1952 1.374 . S
C1954 C1951 1.499 . S
C1954 C1955 1.373 . S
C1954 C1956 1.389 . S
C1955 H1934 0.950 . S
C1955 C1954 1.373 . S
C1955 C1971 1.377 . S
C1956 C1954 1.389 . S
C1956 C1957 1.524 . S
C1956 C1970 1.377 . S
C1957 C1956 1.524 . S
C1957 C1958 1.397 . S
C1957 C1962 1.363 . S
C1958 H1935 0.950 . S
C1958 C1957 1.397 . S
C1958 C1959 1.334 . S
C1959 H1936 0.950 . S
C1959 C1958 1.334 . S
C1959 C1960 1.287 . S
C1960 C1959 1.287 . S
C1960 C1961 1.524 . S
C1960 H1979 0.913 . S
C1961 H1937 0.950 . S
C1961 C1960 1.524 . S
C1961 C1962 1.415 . S
C1962 H1938 0.950 . S
C1962 C1957 1.363 . S
C1962 C1961 1.415 . S
C1963 H1939 0.951 . S
C1963 C1964 1.366 . S
C1963 C1965 1.388 . S
C1964 C1963 1.366 . S
C1964 C1968 1.385 . S
C1965 H1940 0.951 . S
C1965 C1963 1.388 . S
C1965 C1966 1.366 . S
C1966 C1965 1.366 . S
C1966 C1967 1.414 . S
C1966 C1969 1.499 . S
C1967 H1941 0.950 . S
C1967 C1966 1.414 . S
C1967 C1968 1.374 . S
C1968 H1942 0.950 . S
C1968 C1964 1.385 . S
C1968 C1967 1.374 . S
C1969 C1966 1.499 . S
C1969 C1970 1.373 . S
C1969 C1971 1.389 . S
C1970 H1943 0.950 . S
C1970 C1956 1.377 . S
C1970 C1969 1.373 . S
C1971 C1955 1.377 . S
C1971 C1969 1.389 . S
C1971 C1972 1.524 . S
C1972 C1971 1.524 . S
C1972 C1973 1.397 . S
C1972 C1977 1.363 . S
C1973 H1944 0.950 . S
C1973 C1972 1.397 . S
C1973 C1974 1.334 . S
C1974 H1945 0.950 . S
C1974 C1973 1.334 . S
C1974 C1975 1.287 . S
C1975 C1974 1.287 . S
C1975 C1976 1.524 . S
C1975 H1978 0.999 . S
C1976 H1946 0.950 . S
C1976 C1975 1.524 . S
C1976 C1977 1.415 . S
C1977 H1947 0.950 . S
C1977 C1972 1.363 . S
C1977 C1976 1.415 . S
H1978 C1975 0.999 . S
H1979 C1960 0.913 . S
H1980 C1998 0.951 . S
H1981 C2000 0.951 . S
H1982 C2002 0.950 . S
H1983 C2003 0.950 . S
H1984 C2005 0.950 . S
H1985 C2008 0.950 . S
H1986 C2009 0.950 . S
H1987 C2011 0.950 . S
H1988 C2012 0.950 . S
H1989 C2013 0.951 . S
H1990 C2015 0.951 . S
H1991 C2017 0.950 . S
H1992 C2018 0.950 . S
H1993 C2020 0.950 . S
H1994 C2023 0.950 . S
H1995 C2024 0.950 . S
H1996 C2026 0.950 . S
H1997 C2027 0.950 . S
C1998 H1980 0.951 . S
C1998 C1999 1.366 . S
C1998 C2000 1.388 . S
C1999 C1998 1.366 . S
C1999 C2003 1.385 . S
C2000 H1981 0.951 . S
C2000 C1998 1.388 . S
C2000 C2001 1.366 . S
C2001 C2000 1.366 . S
C2001 C2002 1.414 . S
C2001 C2004 1.499 . S
C2002 H1982 0.950 . S
C2002 C2001 1.414 . S
C2002 C2003 1.374 . S
C2003 H1983 0.950 . S
C2003 C1999 1.385 . S
C2003 C2002 1.374 . S
C2004 C2001 1.499 . S
C2004 C2005 1.373 . S
C2004 C2006 1.389 . S
C2005 H1984 0.950 . S
C2005 C2004 1.373 . S
C2005 C2021 1.377 . S
C2006 C2004 1.389 . S
C2006 C2007 1.524 . S
C2006 C2020 1.377 . S
C2007 C2006 1.524 . S
C2007 C2008 1.397 . S
C2007 C2012 1.363 . S
C2008 H1985 0.950 . S
C2008 C2007 1.397 . S
C2008 C2009 1.334 . S
C2009 H1986 0.950 . S
C2009 C2008 1.334 . S
C2009 C2010 1.287 . S
C2010 C2009 1.287 . S
C2010 C2011 1.524 . S
C2010 H2029 0.913 . S
C2011 H1987 0.950 . S
C2011 C2010 1.524 . S
C2011 C2012 1.415 . S
C2012 H1988 0.950 . S
C2012 C2007 1.363 . S
C2012 C2011 1.415 . S
C2013 H1989 0.951 . S
C2013 C2014 1.366 . S
C2013 C2015 1.388 . S
C2014 C2013 1.366 . S
C2014 C2018 1.385 . S
C2015 H1990 0.951 . S
C2015 C2013 1.388 . S
C2015 C2016 1.366 . S
C2016 C2015 1.366 . S
C2016 C2017 1.414 . S
C2016 C2019 1.499 . S
C2017 H1991 0.950 . S
C2017 C2016 1.414 . S
C2017 C2018 1.374 . S
C2018 H1992 0.950 . S
C2018 C2014 1.385 . S
C2018 C2017 1.374 . S
C2019 C2016 1.499 . S
C2019 C2020 1.373 . S
C2019 C2021 1.389 . S
C2020 H1993 0.950 . S
C2020 C2006 1.377 . S
C2020 C2019 1.373 . S
C2021 C2005 1.377 . S
C2021 C2019 1.389 . S
C2021 C2022 1.524 . S
C2022 C2021 1.524 . S
C2022 C2023 1.397 . S
C2022 C2027 1.363 . S
C2023 H1994 0.950 . S
C2023 C2022 1.397 . S
C2023 C2024 1.334 . S
C2024 H1995 0.950 . S
C2024 C2023 1.334 . S
C2024 C2025 1.287 . S
C2025 C2024 1.287 . S
C2025 C2026 1.524 . S
C2025 H2028 0.999 . S
C2026 H1996 0.950 . S
C2026 C2025 1.524 . S
C2026 C2027 1.415 . S
C2027 H1997 0.950 . S
C2027 C2022 1.363 . S
C2027 C2026 1.415 . S
H2028 C2025 0.999 . S
H2029 C2010 0.913 . S
H2030 C2048 0.951 . S
H2031 C2050 0.951 . S
H2032 C2052 0.950 . S
H2033 C2053 0.950 . S
H2034 C2055 0.950 . S
H2035 C2058 0.950 . S
H2036 C2059 0.950 . S
H2037 C2061 0.950 . S
H2038 C2062 0.950 . S
H2039 C2063 0.951 . S
H2040 C2065 0.951 . S
H2041 C2067 0.950 . S
H2042 C2068 0.950 . S
H2043 C2070 0.950 . S
H2044 C2073 0.950 . S
H2045 C2074 0.950 . S
H2046 C2076 0.950 . S
H2047 C2077 0.950 . S
C2048 H2030 0.951 . S
C2048 C2049 1.366 . S
C2048 C2050 1.388 . S
C2049 C2048 1.366 . S
C2049 C2053 1.385 . S
C2050 H2031 0.951 . S
C2050 C2048 1.388 . S
C2050 C2051 1.366 . S
C2051 C2050 1.366 . S
C2051 C2052 1.414 . S
C2051 C2054 1.499 . S
C2052 H2032 0.950 . S
C2052 C2051 1.414 . S
C2052 C2053 1.374 . S
C2053 H2033 0.950 . S
C2053 C2049 1.385 . S
C2053 C2052 1.374 . S
C2054 C2051 1.499 . S
C2054 C2055 1.373 . S
C2054 C2056 1.389 . S
C2055 H2034 0.950 . S
C2055 C2054 1.373 . S
C2055 C2071 1.377 . S
C2056 C2054 1.389 . S
C2056 C2057 1.524 . S
C2056 C2070 1.377 . S
C2057 C2056 1.524 . S
C2057 C2058 1.397 . S
C2057 C2062 1.363 . S
C2058 H2035 0.950 . S
C2058 C2057 1.397 . S
C2058 C2059 1.334 . S
C2059 H2036 0.950 . S
C2059 C2058 1.334 . S
C2059 C2060 1.287 . S
C2060 C2059 1.287 . S
C2060 C2061 1.524 . S
C2060 H2079 0.913 . S
C2061 H2037 0.950 . S
C2061 C2060 1.524 . S
C2061 C2062 1.415 . S
C2062 H2038 0.950 . S
C2062 C2057 1.363 . S
C2062 C2061 1.415 . S
C2063 H2039 0.951 . S
C2063 C2064 1.366 . S
C2063 C2065 1.388 . S
C2064 C2063 1.366 . S
C2064 C2068 1.385 . S
C2065 H2040 0.951 . S
C2065 C2063 1.388 . S
C2065 C2066 1.366 . S
C2066 C2065 1.366 . S
C2066 C2067 1.414 . S
C2066 C2069 1.499 . S
C2067 H2041 0.950 . S
C2067 C2066 1.414 . S
C2067 C2068 1.374 . S
C2068 H2042 0.950 . S
C2068 C2064 1.385 . S
C2068 C2067 1.374 . S
C2069 C2066 1.499 . S
C2069 C2070 1.373 . S
C2069 C2071 1.389 . S
C2070 H2043 0.950 . S
C2070 C2056 1.377 . S
C2070 C2069 1.373 . S
C2071 C2055 1.377 . S
C2071 C2069 1.389 . S
C2071 C2072 1.524 . S
C2072 C2071 1.524 . S
C2072 C2073 1.397 . S
C2072 C2077 1.363 . S
C2073 H2044 0.950 . S
C2073 C2072 1.397 . S
C2073 C2074 1.334 . S
C2074 H2045 0.950 . S
C2074 C2073 1.334 . S
C2074 C2075 1.287 . S
C2075 C2074 1.287 . S
C2075 C2076 1.524 . S
C2075 H2078 0.999 . S
C2076 H2046 0.950 . S
C2076 C2075 1.524 . S
C2076 C2077 1.415 . S
C2077 H2047 0.950 . S
C2077 C2072 1.363 . S
C2077 C2076 1.415 . S
H2078 C2075 0.999 . S
H2079 C2060 0.913 . S
H2080 C2098 0.971 . S
H2081 C2100 0.951 1_565 S
H2082 C2102 0.950 . S
H2083 C2103 0.950 . S
H2084 C2105 0.950 . S
H2085 C2108 0.950 . S
H2086 C2109 0.950 . S
H2087 C2111 0.950 . S
H2088 C2112 0.948 . S
H2089 C2113 0.951 . S
H2090 C2115 0.951 . S
H2091 C2117 0.950 1_455 S
H2092 C2118 0.950 . S
H2093 C2120 0.950 1_455 S
H2094 C2123 0.950 1_565 S
H2095 C2124 0.962 . S
H2096 C2126 0.950 . S
H2097 C2127 0.950 . S
C2098 H2080 0.971 . S
C2098 C2099 1.350 1_565 S
C2098 C2100 1.384 1_565 S
C2099 C2098 1.350 1_545 S
C2099 C2103 1.385 . S
C2100 H2081 0.951 1_545 S
C2100 C2098 1.384 1_545 S
C2100 C2101 1.366 . S
C2101 C2100 1.366 . S
C2101 C2102 1.414 . S
C2101 C2104 1.499 . S
C2102 H2082 0.950 . S
C2102 C2101 1.414 . S
C2102 C2103 1.374 . S
C2103 H2083 0.950 . S
C2103 C2099 1.385 . S
C2103 C2102 1.374 . S
C2104 C2101 1.499 . S
C2104 C2105 1.373 . S
C2104 C2106 1.389 . S
C2105 H2084 0.950 . S
C2105 C2104 1.373 . S
C2105 C2121 1.377 . S
C2106 C2104 1.389 . S
C2106 C2107 1.524 . S
C2106 C2120 1.377 . S
C2107 C2106 1.524 . S
C2107 C2108 1.397 . S
C2107 C2112 1.363 1_655 S
C2108 H2085 0.950 . S
C2108 C2107 1.397 . S
C2108 C2109 1.334 1_655 S
C2109 H2086 0.950 . S
C2109 C2108 1.334 1_455 S
C2109 C2110 1.287 . S
C2110 C2109 1.287 . S
C2110 C2111 1.524 . S
C2110 H2129 0.913 . S
C2111 H2087 0.950 . S
C2111 C2110 1.524 . S
C2111 C2112 1.415 . S
C2112 H2088 0.948 . S
C2112 C2107 1.363 1_455 S
C2112 C2111 1.415 . S
C2113 H2089 0.951 . S
C2113 C2114 1.366 1_655 S
C2113 C2115 1.388 . S
C2114 C2113 1.366 1_455 S
C2114 C2118 1.385 . S
C2115 H2090 0.951 . S
C2115 C2113 1.388 . S
C2115 C2116 1.366 . S
C2116 C2115 1.366 . S
C2116 C2117 1.414 . S
C2116 C2119 1.499 . S
C2117 H2091 0.950 1_655 S
C2117 C2116 1.414 . S
C2117 C2118 1.374 1_655 S
C2118 H2092 0.950 . S
C2118 C2114 1.385 . S
C2118 C2117 1.374 1_455 S
C2119 C2116 1.499 . S
C2119 C2120 1.373 . S
C2119 C2121 1.389 . S
C2120 H2093 0.950 1_655 S
C2120 C2106 1.377 . S
C2120 C2119 1.373 . S
C2121 C2105 1.377 . S
C2121 C2119 1.389 . S
C2121 C2122 1.524 . S
C2122 C2121 1.524 . S
C2122 C2123 1.397 . S
C2122 C2127 1.363 . S
C2123 H2094 0.950 1_545 S
C2123 C2122 1.397 . S
C2123 C2124 1.336 1_545 S
C2124 H2095 0.962 . S
C2124 C2123 1.336 1_565 S
C2124 C2125 1.273 1_565 S
C2125 C2124 1.273 1_545 S
C2125 C2126 1.524 . S
C2125 H2128 0.999 . S
C2126 H2096 0.950 . S
C2126 C2125 1.524 . S
C2126 C2127 1.415 . S
C2127 H2097 0.950 . S
C2127 C2122 1.363 . S
C2127 C2126 1.415 . S
H2128 C2125 0.999 . S
H2129 C2110 0.913 . S
H2130 C2148 0.951 . S
H2131 C2150 0.951 . S
H2132 C2152 0.950 . S
H2133 C2153 0.950 . S
H2134 C2155 0.950 . S
H2135 C2158 0.950 . S
H2136 C2159 0.950 . S
H2137 C2161 0.950 . S
H2138 C2162 0.950 . S
H2139 C2163 0.951 . S
H2140 C2165 0.951 . S
H2141 C2167 0.950 . S
H2142 C2168 0.950 . S
H2143 C2170 0.950 . S
H2144 C2173 0.950 . S
H2145 C2174 0.950 . S
H2146 C2176 0.950 . S
H2147 C2177 0.950 . S
C2148 H2130 0.951 . S
C2148 C2149 1.366 . S
C2148 C2150 1.388 . S
C2149 C2148 1.366 . S
C2149 C2153 1.385 . S
C2150 H2131 0.951 . S
C2150 C2148 1.388 . S
C2150 C2151 1.366 . S
C2151 C2150 1.366 . S
C2151 C2152 1.414 . S
C2151 C2154 1.499 . S
C2152 H2132 0.950 . S
C2152 C2151 1.414 . S
C2152 C2153 1.374 . S
C2153 H2133 0.950 . S
C2153 C2149 1.385 . S
C2153 C2152 1.374 . S
C2154 C2151 1.499 . S
C2154 C2155 1.373 . S
C2154 C2156 1.389 . S
C2155 H2134 0.950 . S
C2155 C2154 1.373 . S
C2155 C2171 1.377 . S
C2156 C2154 1.389 . S
C2156 C2157 1.524 . S
C2156 C2170 1.377 . S
C2157 C2156 1.524 . S
C2157 C2158 1.397 . S
C2157 C2162 1.363 . S
C2158 H2135 0.950 . S
C2158 C2157 1.397 . S
C2158 C2159 1.334 . S
C2159 H2136 0.950 . S
C2159 C2158 1.334 . S
C2159 C2160 1.287 . S
C2160 C2159 1.287 . S
C2160 C2161 1.524 . S
C2160 H2179 0.913 . S
C2161 H2137 0.950 . S
C2161 C2160 1.524 . S
C2161 C2162 1.415 . S
C2162 H2138 0.950 . S
C2162 C2157 1.363 . S
C2162 C2161 1.415 . S
C2163 H2139 0.951 . S
C2163 C2164 1.366 . S
C2163 C2165 1.388 . S
C2164 C2163 1.366 . S
C2164 C2168 1.385 . S
C2165 H2140 0.951 . S
C2165 C2163 1.388 . S
C2165 C2166 1.366 . S
C2166 C2165 1.366 . S
C2166 C2167 1.414 . S
C2166 C2169 1.499 . S
C2167 H2141 0.950 . S
C2167 C2166 1.414 . S
C2167 C2168 1.374 . S
C2168 H2142 0.950 . S
C2168 C2164 1.385 . S
C2168 C2167 1.374 . S
C2169 C2166 1.499 . S
C2169 C2170 1.373 . S
C2169 C2171 1.389 . S
C2170 H2143 0.950 . S
C2170 C2156 1.377 . S
C2170 C2169 1.373 . S
C2171 C2155 1.377 . S
C2171 C2169 1.389 . S
C2171 C2172 1.524 . S
C2172 C2171 1.524 . S
C2172 C2173 1.397 . S
C2172 C2177 1.363 . S
C2173 H2144 0.950 . S
C2173 C2172 1.397 . S
C2173 C2174 1.334 . S
C2174 H2145 0.950 . S
C2174 C2173 1.334 . S
C2174 C2175 1.287 . S
C2175 C2174 1.287 . S
C2175 C2176 1.524 . S
C2175 H2178 0.999 . S
C2176 H2146 0.950 . S
C2176 C2175 1.524 . S
C2176 C2177 1.415 . S
C2177 H2147 0.950 . S
C2177 C2172 1.363 . S
C2177 C2176 1.415 . S
H2178 C2175 0.999 . S
H2179 C2160 0.913 . S
H2180 C2198 0.951 . S
H2181 C2200 0.951 . S
H2182 C2202 0.950 . S
H2183 C2203 0.950 . S
H2184 C2205 0.950 . S
H2185 C2208 0.950 . S
H2186 C2209 0.950 . S
H2187 C2211 0.950 . S
H2188 C2212 0.950 . S
H2189 C2213 0.951 . S
H2190 C2215 0.951 . S
H2191 C2217 0.950 . S
H2192 C2218 0.950 . S
H2193 C2220 0.950 . S
H2194 C2223 0.950 . S
H2195 C2224 0.950 . S
H2196 C2226 0.950 . S
H2197 C2227 0.950 . S
C2198 H2180 0.951 . S
C2198 C2199 1.366 . S
C2198 C2200 1.388 . S
C2199 C2198 1.366 . S
C2199 C2203 1.385 . S
C2200 H2181 0.951 . S
C2200 C2198 1.388 . S
C2200 C2201 1.366 . S
C2201 C2200 1.366 . S
C2201 C2202 1.414 . S
C2201 C2204 1.499 . S
C2202 H2182 0.950 . S
C2202 C2201 1.414 . S
C2202 C2203 1.374 . S
C2203 H2183 0.950 . S
C2203 C2199 1.385 . S
C2203 C2202 1.374 . S
C2204 C2201 1.499 . S
C2204 C2205 1.373 . S
C2204 C2206 1.389 . S
C2205 H2184 0.950 . S
C2205 C2204 1.373 . S
C2205 C2221 1.377 . S
C2206 C2204 1.389 . S
C2206 C2207 1.524 . S
C2206 C2220 1.377 . S
C2207 C2206 1.524 . S
C2207 C2208 1.397 . S
C2207 C2212 1.363 . S
C2208 H2185 0.950 . S
C2208 C2207 1.397 . S
C2208 C2209 1.334 . S
C2209 H2186 0.950 . S
C2209 C2208 1.334 . S
C2209 C2210 1.287 . S
C2210 C2209 1.287 . S
C2210 C2211 1.524 . S
C2210 H2229 0.913 . S
C2211 H2187 0.950 . S
C2211 C2210 1.524 . S
C2211 C2212 1.415 . S
C2212 H2188 0.950 . S
C2212 C2207 1.363 . S
C2212 C2211 1.415 . S
C2213 H2189 0.951 . S
C2213 C2214 1.366 . S
C2213 C2215 1.388 . S
C2214 C2213 1.366 . S
C2214 C2218 1.385 . S
C2215 H2190 0.951 . S
C2215 C2213 1.388 . S
C2215 C2216 1.366 . S
C2216 C2215 1.366 . S
C2216 C2217 1.414 . S
C2216 C2219 1.499 . S
C2217 H2191 0.950 . S
C2217 C2216 1.414 . S
C2217 C2218 1.374 . S
C2218 H2192 0.950 . S
C2218 C2214 1.385 . S
C2218 C2217 1.374 . S
C2219 C2216 1.499 . S
C2219 C2220 1.373 . S
C2219 C2221 1.389 . S
C2220 H2193 0.950 . S
C2220 C2206 1.377 . S
C2220 C2219 1.373 . S
C2221 C2205 1.377 . S
C2221 C2219 1.389 . S
C2221 C2222 1.524 . S
C2222 C2221 1.524 . S
C2222 C2223 1.396 1_545 S
C2222 C2227 1.363 . S
C2223 H2194 0.950 . S
C2223 C2222 1.396 1_565 S
C2223 C2224 1.334 . S
C2224 H2195 0.950 . S
C2224 C2223 1.334 . S
C2224 C2225 1.275 1_565 S
C2225 C2224 1.275 1_545 S
C2225 C2226 1.543 . S
C2225 H2228 0.995 1_545 S
C2226 H2196 0.950 . S
C2226 C2225 1.543 . S
C2226 C2227 1.415 . S
C2227 H2197 0.950 . S
C2227 C2222 1.363 . S
C2227 C2226 1.415 . S
H2228 C2225 0.995 1_565 S
H2229 C2210 0.913 . S
H2230 C2248 0.951 . S
H2231 C2250 0.951 . S
H2232 C2252 0.950 . S
H2233 C2253 0.950 . S
H2234 C2255 0.950 . S
H2235 C2258 0.950 . S
H2236 C2259 0.950 . S
H2237 C2261 0.950 . S
H2238 C2262 0.950 . S
H2239 C2263 0.951 . S
H2240 C2265 0.951 . S
H2241 C2267 0.950 . S
H2242 C2268 0.950 . S
H2243 C2270 0.950 . S
H2244 C2273 0.950 . S
H2245 C2274 0.950 . S
H2246 C2276 0.950 . S
H2247 C2277 0.950 . S
C2248 H2230 0.951 . S
C2248 C2249 1.366 . S
C2248 C2250 1.388 . S
C2249 C2248 1.366 . S
C2249 C2253 1.385 . S
C2250 H2231 0.951 . S
C2250 C2248 1.388 . S
C2250 C2251 1.366 . S
C2251 C2250 1.366 . S
C2251 C2252 1.414 . S
C2251 C2254 1.499 . S
C2252 H2232 0.950 . S
C2252 C2251 1.414 . S
C2252 C2253 1.374 . S
C2253 H2233 0.950 . S
C2253 C2249 1.385 . S
C2253 C2252 1.374 . S
C2254 C2251 1.499 . S
C2254 C2255 1.373 . S
C2254 C2256 1.389 . S
C2255 H2234 0.950 . S
C2255 C2254 1.373 . S
C2255 C2271 1.377 . S
C2256 C2254 1.389 . S
C2256 C2257 1.524 . S
C2256 C2270 1.377 . S
C2257 C2256 1.524 . S
C2257 C2258 1.397 . S
C2257 C2262 1.363 . S
C2258 H2235 0.950 . S
C2258 C2257 1.397 . S
C2258 C2259 1.334 . S
C2259 H2236 0.950 . S
C2259 C2258 1.334 . S
C2259 C2260 1.287 . S
C2260 C2259 1.287 . S
C2260 C2261 1.524 . S
C2260 H2279 0.913 . S
C2261 H2237 0.950 . S
C2261 C2260 1.524 . S
C2261 C2262 1.415 . S
C2262 H2238 0.950 . S
C2262 C2257 1.363 . S
C2262 C2261 1.415 . S
C2263 H2239 0.951 . S
C2263 C2264 1.366 . S
C2263 C2265 1.388 . S
C2264 C2263 1.366 . S
C2264 C2268 1.385 . S
C2265 H2240 0.951 . S
C2265 C2263 1.388 . S
C2265 C2266 1.366 . S
C2266 C2265 1.366 . S
C2266 C2267 1.414 . S
C2266 C2269 1.499 . S
C2267 H2241 0.950 . S
C2267 C2266 1.414 . S
C2267 C2268 1.374 . S
C2268 H2242 0.950 . S
C2268 C2264 1.385 . S
C2268 C2267 1.374 . S
C2269 C2266 1.499 . S
C2269 C2270 1.373 . S
C2269 C2271 1.389 . S
C2270 H2243 0.950 . S
C2270 C2256 1.377 . S
C2270 C2269 1.373 . S
C2271 C2255 1.377 . S
C2271 C2269 1.389 . S
C2271 C2272 1.524 . S
C2272 C2271 1.524 . S
C2272 C2273 1.397 . S
C2272 C2277 1.363 . S
C2273 H2244 0.950 . S
C2273 C2272 1.397 . S
C2273 C2274 1.334 . S
C2274 H2245 0.950 . S
C2274 C2273 1.334 . S
C2274 C2275 1.287 . S
C2275 C2274 1.287 . S
C2275 C2276 1.524 . S
C2275 H2278 0.999 . S
C2276 H2246 0.950 . S
C2276 C2275 1.524 . S
C2276 C2277 1.415 . S
C2277 H2247 0.950 . S
C2277 C2272 1.363 . S
C2277 C2276 1.415 . S
H2278 C2275 0.999 . S
H2279 C2260 0.913 . S
H2280 C2298 0.951 1_565 S
H2281 C2300 0.951 1_565 S
H2282 C2302 0.950 . S
H2283 C2303 0.950 . S
H2284 C2305 0.950 . S
H2285 C2308 0.950 . S
H2286 C2309 0.950 . S
H2287 C2311 0.950 . S
H2288 C2312 0.950 . S
H2289 C2313 0.951 . S
H2290 C2315 0.951 . S
H2291 C2317 0.952 1_565 S
H2292 C2318 0.950 1_565 S
H2293 C2320 0.950 1_565 S
H2294 C2323 0.950 . S
H2295 C2324 0.950 . S
H2296 C2326 0.950 . S
H2297 C2327 0.950 . S
C2298 H2280 0.951 1_545 S
C2298 C2299 1.366 . S
C2298 C2300 1.388 . S
C2299 C2298 1.366 . S
C2299 C2303 1.385 . S
C2300 H2281 0.951 1_545 S
C2300 C2298 1.388 . S
C2300 C2301 1.366 . S
C2301 C2300 1.366 . S
C2301 C2302 1.414 . S
C2301 C2304 1.499 . S
C2302 H2282 0.950 . S
C2302 C2301 1.414 . S
C2302 C2303 1.374 . S
C2303 H2283 0.950 . S
C2303 C2299 1.385 . S
C2303 C2302 1.374 . S
C2304 C2301 1.499 . S
C2304 C2305 1.373 . S
C2304 C2306 1.389 . S
C2305 H2284 0.950 . S
C2305 C2304 1.373 . S
C2305 C2321 1.377 . S
C2306 C2304 1.389 . S
C2306 C2307 1.524 1_545 S
C2306 C2320 1.377 . S
C2307 C2306 1.524 1_565 S
C2307 C2308 1.397 . S
C2307 C2312 1.363 . S
C2308 H2285 0.950 . S
C2308 C2307 1.397 . S
C2308 C2309 1.334 . S
C2309 H2286 0.950 . S
C2309 C2308 1.334 . S
C2309 C2310 1.287 . S
C2310 C2309 1.287 . S
C2310 C2311 1.524 . S
C2310 H2329 0.913 . S
C2311 H2287 0.950 . S
C2311 C2310 1.524 . S
C2311 C2312 1.415 . S
C2312 H2288 0.950 . S
C2312 C2307 1.363 . S
C2312 C2311 1.415 . S
C2313 H2289 0.951 . S
C2313 C2314 1.337 1_655 S
C2313 C2315 1.388 . S
C2314 C2313 1.337 1_455 S
C2314 C2318 1.403 . S
C2315 H2290 0.951 . S
C2315 C2313 1.388 . S
C2315 C2316 1.366 . S
C2316 C2315 1.366 . S
C2316 C2317 1.414 . S
C2316 C2319 1.499 . S
C2317 H2291 0.952 1_545 S
C2317 C2316 1.414 . S
C2317 C2318 1.374 1_655 S
C2318 H2292 0.950 1_545 S
C2318 C2314 1.403 . S
C2318 C2317 1.374 1_455 S
C2319 C2316 1.499 . S
C2319 C2320 1.373 . S
C2319 C2321 1.389 . S
C2320 H2293 0.950 1_545 S
C2320 C2306 1.377 . S
C2320 C2319 1.373 . S
C2321 C2305 1.377 . S
C2321 C2319 1.389 . S
C2321 C2322 1.524 . S
C2322 C2321 1.524 . S
C2322 C2323 1.397 1_655 S
C2322 C2327 1.363 . S
C2323 H2294 0.950 . S
C2323 C2322 1.397 1_455 S
C2323 C2324 1.334 . S
C2324 H2295 0.950 . S
C2324 C2323 1.334 . S
C2324 C2325 1.287 . S
C2325 C2324 1.287 . S
C2325 C2326 1.524 1_455 S
C2325 H2328 0.999 . S
C2326 H2296 0.950 . S
C2326 C2325 1.524 1_655 S
C2326 C2327 1.415 . S
C2327 H2297 0.950 . S
C2327 C2322 1.363 . S
C2327 C2326 1.415 . S
H2328 C2325 0.999 . S
H2329 C2310 0.913 . S
H2330 C2348 0.951 . S
H2331 C2350 0.951 . S
H2332 C2352 0.950 . S
H2333 C2353 0.950 . S
H2334 C2355 0.950 . S
H2335 C2358 0.950 . S
H2336 C2359 0.950 . S
H2337 C2361 0.950 . S
H2338 C2362 0.950 . S
H2339 C2363 0.951 . S
H2340 C2365 0.951 . S
H2341 C2367 0.950 . S
H2342 C2368 0.950 . S
H2343 C2370 0.950 . S
H2344 C2373 0.950 . S
H2345 C2374 0.950 . S
H2346 C2376 0.950 . S
H2347 C2377 0.950 . S
C2348 H2330 0.951 . S
C2348 C2349 1.366 . S
C2348 C2350 1.388 . S
C2349 C2348 1.366 . S
C2349 C2353 1.385 . S
C2350 H2331 0.951 . S
C2350 C2348 1.388 . S
C2350 C2351 1.366 . S
C2351 C2350 1.366 . S
C2351 C2352 1.414 . S
C2351 C2354 1.499 . S
C2352 H2332 0.950 . S
C2352 C2351 1.414 . S
C2352 C2353 1.374 . S
C2353 H2333 0.950 . S
C2353 C2349 1.385 . S
C2353 C2352 1.374 . S
C2354 C2351 1.499 . S
C2354 C2355 1.373 . S
C2354 C2356 1.389 . S
C2355 H2334 0.950 . S
C2355 C2354 1.373 . S
C2355 C2371 1.377 . S
C2356 C2354 1.389 . S
C2356 C2357 1.524 . S
C2356 C2370 1.377 . S
C2357 C2356 1.524 . S
C2357 C2358 1.397 . S
C2357 C2362 1.363 . S
C2358 H2335 0.950 . S
C2358 C2357 1.397 . S
C2358 C2359 1.334 . S
C2359 H2336 0.950 . S
C2359 C2358 1.334 . S
C2359 C2360 1.287 . S
C2360 C2359 1.287 . S
C2360 C2361 1.524 . S
C2360 H2379 0.913 . S
C2361 H2337 0.950 . S
C2361 C2360 1.524 . S
C2361 C2362 1.415 . S
C2362 H2338 0.950 . S
C2362 C2357 1.363 . S
C2362 C2361 1.415 . S
C2363 H2339 0.951 . S
C2363 C2364 1.366 . S
C2363 C2365 1.388 . S
C2364 C2363 1.366 . S
C2364 C2368 1.385 . S
C2365 H2340 0.951 . S
C2365 C2363 1.388 . S
C2365 C2366 1.366 . S
C2366 C2365 1.366 . S
C2366 C2367 1.414 . S
C2366 C2369 1.499 . S
C2367 H2341 0.950 . S
C2367 C2366 1.414 . S
C2367 C2368 1.374 . S
C2368 H2342 0.950 . S
C2368 C2364 1.385 . S
C2368 C2367 1.374 . S
C2369 C2366 1.499 . S
C2369 C2370 1.373 . S
C2369 C2371 1.389 . S
C2370 H2343 0.950 . S
C2370 C2356 1.377 . S
C2370 C2369 1.373 . S
C2371 C2355 1.377 . S
C2371 C2369 1.389 . S
C2371 C2372 1.524 . S
C2372 C2371 1.524 . S
C2372 C2373 1.397 . S
C2372 C2377 1.363 . S
C2373 H2344 0.950 . S
C2373 C2372 1.397 . S
C2373 C2374 1.334 . S
C2374 H2345 0.950 . S
C2374 C2373 1.334 . S
C2374 C2375 1.287 . S
C2375 C2374 1.287 . S
C2375 C2376 1.524 . S
C2375 H2378 0.999 . S
C2376 H2346 0.950 . S
C2376 C2375 1.524 . S
C2376 C2377 1.415 . S
C2377 H2347 0.950 . S
C2377 C2372 1.363 . S
C2377 C2376 1.415 . S
H2378 C2375 0.999 . S
H2379 C2360 0.913 . S
H2380 C2398 0.951 . S
H2381 C2400 0.951 . S
H2382 C2402 0.950 . S
H2383 C2403 0.950 . S
H2384 C2405 0.950 . S
H2385 C2408 0.950 . S
H2386 C2409 0.950 . S
H2387 C2411 0.950 . S
H2388 C2412 0.950 . S
H2389 C2413 0.951 . S
H2390 C2415 0.951 . S
H2391 C2417 0.950 . S
H2392 C2418 0.950 . S
H2393 C2420 0.950 . S
H2394 C2423 0.950 . S
H2395 C2424 0.950 . S
H2396 C2426 0.950 . S
H2397 C2427 0.959 . S
C2398 H2380 0.951 . S
C2398 C2399 1.366 . S
C2398 C2400 1.388 . S
C2399 C2398 1.366 . S
C2399 C2403 1.385 . S
C2400 H2381 0.951 . S
C2400 C2398 1.388 . S
C2400 C2401 1.366 . S
C2401 C2400 1.366 . S
C2401 C2402 1.414 . S
C2401 C2404 1.499 . S
C2402 H2382 0.950 . S
C2402 C2401 1.414 . S
C2402 C2403 1.374 . S
C2403 H2383 0.950 . S
C2403 C2399 1.385 . S
C2403 C2402 1.374 . S
C2404 C2401 1.499 . S
C2404 C2405 1.373 . S
C2404 C2406 1.389 . S
C2405 H2384 0.950 . S
C2405 C2404 1.373 . S
C2405 C2421 1.377 . S
C2406 C2404 1.389 . S
C2406 C2407 1.524 . S
C2406 C2420 1.377 . S
C2407 C2406 1.524 . S
C2407 C2408 1.397 . S
C2407 C2412 1.363 . S
C2408 H2385 0.950 . S
C2408 C2407 1.397 . S
C2408 C2409 1.334 . S
C2409 H2386 0.950 . S
C2409 C2408 1.334 . S
C2409 C2410 1.287 . S
C2410 C2409 1.287 . S
C2410 C2411 1.524 . S
C2410 H2429 0.913 . S
C2411 H2387 0.950 . S
C2411 C2410 1.524 . S
C2411 C2412 1.415 . S
C2412 H2388 0.950 . S
C2412 C2407 1.363 . S
C2412 C2411 1.415 . S
C2413 H2389 0.951 . S
C2413 C2414 1.366 . S
C2413 C2415 1.388 . S
C2414 C2413 1.366 . S
C2414 C2418 1.385 . S
C2415 H2390 0.951 . S
C2415 C2413 1.388 . S
C2415 C2416 1.366 . S
C2416 C2415 1.366 . S
C2416 C2417 1.414 . S
C2416 C2419 1.499 . S
C2417 H2391 0.950 . S
C2417 C2416 1.414 . S
C2417 C2418 1.374 . S
C2418 H2392 0.950 . S
C2418 C2414 1.385 . S
C2418 C2417 1.374 . S
C2419 C2416 1.499 . S
C2419 C2420 1.373 . S
C2419 C2421 1.389 . S
C2420 H2393 0.950 . S
C2420 C2406 1.377 . S
C2420 C2419 1.373 . S
C2421 C2405 1.377 . S
C2421 C2419 1.389 . S
C2421 C2422 1.524 . S
C2422 C2421 1.524 . S
C2422 C2423 1.397 1_545 S
C2422 C2427 1.371 . S
C2423 H2394 0.950 . S
C2423 C2422 1.397 1_565 S
C2423 C2424 1.334 . S
C2424 H2395 0.950 . S
C2424 C2423 1.334 . S
C2424 C2425 1.287 . S
C2425 C2424 1.287 . S
C2425 C2426 1.524 . S
C2425 H2428 0.999 . S
C2426 H2396 0.950 . S
C2426 C2425 1.524 . S
C2426 C2427 1.398 1_565 S
C2427 H2397 0.959 . S
C2427 C2422 1.371 . S
C2427 C2426 1.398 1_545 S
H2428 C2425 0.999 . S
H2429 C2410 0.913 . S
H2430 C2448 0.951 . S
H2431 C2450 0.951 . S
H2432 C2452 0.950 . S
H2433 C2453 0.950 . S
H2434 C2455 0.950 . S
H2435 C2458 0.950 . S
H2436 C2459 0.950 . S
H2437 C2461 0.950 . S
H2438 C2462 0.950 . S
H2439 C2463 0.951 . S
H2440 C2465 0.951 . S
H2441 C2467 0.950 . S
H2442 C2468 0.950 . S
H2443 C2470 0.950 . S
H2444 C2473 0.950 . S
H2445 C2474 0.950 . S
H2446 C2476 0.950 . S
H2447 C2477 0.950 . S
C2448 H2430 0.951 . S
C2448 C2449 1.366 . S
C2448 C2450 1.388 . S
C2449 C2448 1.366 . S
C2449 C2453 1.385 . S
C2450 H2431 0.951 . S
C2450 C2448 1.388 . S
C2450 C2451 1.366 . S
C2451 C2450 1.366 . S
C2451 C2452 1.414 . S
C2451 C2454 1.499 . S
C2452 H2432 0.950 . S
C2452 C2451 1.414 . S
C2452 C2453 1.374 . S
C2453 H2433 0.950 . S
C2453 C2449 1.385 . S
C2453 C2452 1.374 . S
C2454 C2451 1.499 . S
C2454 C2455 1.373 . S
C2454 C2456 1.389 . S
C2455 H2434 0.950 . S
C2455 C2454 1.373 . S
C2455 C2471 1.377 . S
C2456 C2454 1.389 . S
C2456 C2457 1.524 . S
C2456 C2470 1.377 . S
C2457 C2456 1.524 . S
C2457 C2458 1.397 . S
C2457 C2462 1.363 . S
C2458 H2435 0.950 . S
C2458 C2457 1.397 . S
C2458 C2459 1.334 . S
C2459 H2436 0.950 . S
C2459 C2458 1.334 . S
C2459 C2460 1.287 . S
C2460 C2459 1.287 . S
C2460 C2461 1.524 . S
C2460 H2479 0.913 . S
C2461 H2437 0.950 . S
C2461 C2460 1.524 . S
C2461 C2462 1.415 . S
C2462 H2438 0.950 . S
C2462 C2457 1.363 . S
C2462 C2461 1.415 . S
C2463 H2439 0.951 . S
C2463 C2464 1.366 . S
C2463 C2465 1.388 . S
C2464 C2463 1.366 . S
C2464 C2468 1.385 . S
C2465 H2440 0.951 . S
C2465 C2463 1.388 . S
C2465 C2466 1.366 . S
C2466 C2465 1.366 . S
C2466 C2467 1.414 . S
C2466 C2469 1.499 . S
C2467 H2441 0.950 . S
C2467 C2466 1.414 . S
C2467 C2468 1.374 . S
C2468 H2442 0.950 . S
C2468 C2464 1.385 . S
C2468 C2467 1.374 . S
C2469 C2466 1.499 . S
C2469 C2470 1.373 . S
C2469 C2471 1.389 . S
C2470 H2443 0.950 . S
C2470 C2456 1.377 . S
C2470 C2469 1.373 . S
C2471 C2455 1.377 . S
C2471 C2469 1.389 . S
C2471 C2472 1.524 . S
C2472 C2471 1.524 . S
C2472 C2473 1.397 . S
C2472 C2477 1.363 . S
C2473 H2444 0.950 . S
C2473 C2472 1.397 . S
C2473 C2474 1.334 . S
C2474 H2445 0.950 . S
C2474 C2473 1.334 . S
C2474 C2475 1.287 . S
C2475 C2474 1.287 . S
C2475 C2476 1.524 . S
C2475 H2478 0.999 . S
C2476 H2446 0.950 . S
C2476 C2475 1.524 . S
C2476 C2477 1.415 . S
C2477 H2447 0.950 . S
C2477 C2472 1.363 . S
C2477 C2476 1.415 . S
H2478 C2475 0.999 . S
H2479 C2460 0.913 . S
H2480 C2498 0.951 . S
H2481 C2500 0.951 . S
H2482 C2502 0.950 . S
H2483 C2503 0.950 . S
H2484 C2505 0.950 . S
H2485 C2508 0.950 . S
H2486 C2509 0.950 . S
H2487 C2511 0.950 . S
H2488 C2512 0.950 . S
H2489 C2513 0.951 . S
H2490 C2515 0.972 . S
H2491 C2517 0.950 . S
H2492 C2518 0.950 . S
H2493 C2520 0.950 . S
H2494 C2523 0.950 . S
H2495 C2524 0.950 . S
H2496 C2526 0.950 . S
H2497 C2527 0.950 . S
C2498 H2480 0.951 . S
C2498 C2499 1.366 . S
C2498 C2500 1.388 . S
C2499 C2498 1.366 . S
C2499 C2503 1.385 1_556 S
C2500 H2481 0.951 . S
C2500 C2498 1.388 . S
C2500 C2501 1.351 1_556 S
C2501 C2500 1.351 1_554 S
C2501 C2502 1.422 . S
C2501 C2504 1.511 . S
C2502 H2482 0.950 . S
C2502 C2501 1.422 . S
C2502 C2503 1.374 . S
C2503 H2483 0.950 . S
C2503 C2499 1.385 1_554 S
C2503 C2502 1.374 . S
C2504 C2501 1.511 . S
C2504 C2505 1.373 . S
C2504 C2506 1.389 1_554 S
C2505 H2484 0.950 . S
C2505 C2504 1.373 . S
C2505 C2521 1.377 . S
C2506 C2504 1.389 1_556 S
C2506 C2507 1.524 . S
C2506 C2520 1.377 . S
C2507 C2506 1.524 . S
C2507 C2508 1.397 . S
C2507 C2512 1.363 . S
C2508 H2485 0.950 . S
C2508 C2507 1.397 . S
C2508 C2509 1.334 . S
C2509 H2486 0.950 . S
C2509 C2508 1.334 . S
C2509 C2510 1.287 . S
C2510 C2509 1.287 . S
C2510 C2511 1.524 . S
C2510 H2529 0.913 . S
C2511 H2487 0.950 . S
C2511 C2510 1.524 . S
C2511 C2512 1.415 . S
C2512 H2488 0.950 . S
C2512 C2507 1.363 . S
C2512 C2511 1.415 . S
C2513 H2489 0.951 . S
C2513 C2514 1.366 1_545 S
C2513 C2515 1.412 . S
C2514 C2513 1.366 1_565 S
C2514 C2518 1.385 . S
C2515 H2490 0.972 . S
C2515 C2513 1.412 . S
C2515 C2516 1.322 1_545 S
C2516 C2515 1.322 1_565 S
C2516 C2517 1.414 . S
C2516 C2519 1.499 . S
C2517 H2491 0.950 . S
C2517 C2516 1.414 . S
C2517 C2518 1.374 . S
C2518 H2492 0.950 . S
C2518 C2514 1.385 . S
C2518 C2517 1.374 . S
C2519 C2516 1.499 . S
C2519 C2520 1.373 1_554 S
C2519 C2521 1.389 . S
C2520 H2493 0.950 . S
C2520 C2506 1.377 . S
C2520 C2519 1.373 1_556 S
C2521 C2505 1.377 . S
C2521 C2519 1.389 . S
C2521 C2522 1.524 . S
C2522 C2521 1.524 . S
C2522 C2523 1.397 . S
C2522 C2527 1.363 1_565 S
C2523 H2494 0.950 . S
C2523 C2522 1.397 . S
C2523 C2524 1.334 . S
C2524 H2495 0.950 . S
C2524 C2523 1.334 . S
C2524 C2525 1.287 . S
C2525 C2524 1.287 . S
C2525 C2526 1.524 1_565 S
C2525 H2528 0.999 1_565 S
C2526 H2496 0.950 . S
C2526 C2525 1.524 1_545 S
C2526 C2527 1.415 . S
C2527 H2497 0.950 . S
C2527 C2522 1.363 1_545 S
C2527 C2526 1.415 . S
H2528 C2525 0.999 1_545 S
H2529 C2510 0.913 . S
H2530 C2548 0.951 . S
H2531 C2550 0.951 . S
H2532 C2552 0.952 . S
H2533 C2553 0.950 . S
H2534 C2555 0.950 . S
H2535 C2558 0.950 . S
H2536 C2559 0.950 . S
H2537 C2561 0.950 . S
H2538 C2562 0.950 . S
H2539 C2563 0.951 . S
H2540 C2565 0.956 . S
H2541 C2567 0.950 . S
H2542 C2568 0.950 . S
H2543 C2570 0.950 . S
H2544 C2573 0.950 . S
H2545 C2574 0.950 . S
H2546 C2576 0.950 . S
H2547 C2577 0.950 . S
C2548 H2530 0.951 . S
C2548 C2549 1.378 . S
C2548 C2550 1.388 . S
C2549 C2548 1.378 . S
C2549 C2553 1.387 1_554 S
C2550 H2531 0.951 . S
C2550 C2548 1.388 . S
C2550 C2551 1.366 . S
C2551 C2550 1.366 . S
C2551 C2552 1.404 1_554 S
C2551 C2554 1.499 . S
C2552 H2532 0.952 . S
C2552 C2551 1.404 1_556 S
C2552 C2553 1.385 . S
C2553 H2533 0.950 . S
C2553 C2549 1.387 1_556 S
C2553 C2552 1.385 . S
C2554 C2551 1.499 . S
C2554 C2555 1.373 1_554 S
C2554 C2556 1.389 . S
C2555 H2534 0.950 . S
C2555 C2554 1.373 1_556 S
C2555 C2571 1.377 . S
C2556 C2554 1.389 . S
C2556 C2557 1.524 . S
C2556 C2570 1.377 . S
C2557 C2556 1.524 . S
C2557 C2558 1.397 . S
C2557 C2562 1.363 . S
C2558 H2535 0.950 . S
C2558 C2557 1.397 . S
C2558 C2559 1.334 . S
C2559 H2536 0.950 . S
C2559 C2558 1.334 . S
C2559 C2560 1.287 . S
C2560 C2559 1.287 . S
C2560 C2561 1.524 . S
C2560 H2579 0.913 . S
C2561 H2537 0.950 . S
C2561 C2560 1.524 . S
C2561 C2562 1.415 . S
C2562 H2538 0.950 . S
C2562 C2557 1.363 . S
C2562 C2561 1.415 . S
C2563 H2539 0.951 . S
C2563 C2564 1.366 . S
C2563 C2565 1.388 . S
C2564 C2563 1.366 . S
C2564 C2568 1.385 . S
C2565 H2540 0.956 . S
C2565 C2563 1.388 . S
C2565 C2566 1.366 . S
C2566 C2565 1.366 . S
C2566 C2567 1.414 . S
C2566 C2569 1.499 . S
C2567 H2541 0.950 . S
C2567 C2566 1.414 . S
C2567 C2568 1.374 . S
C2568 H2542 0.950 . S
C2568 C2564 1.385 . S
C2568 C2567 1.374 . S
C2569 C2566 1.499 . S
C2569 C2570 1.373 . S
C2569 C2571 1.389 1_554 S
C2570 H2543 0.950 . S
C2570 C2556 1.377 . S
C2570 C2569 1.373 . S
C2571 C2555 1.377 . S
C2571 C2569 1.389 1_556 S
C2571 C2572 1.524 . S
C2572 C2571 1.524 . S
C2572 C2573 1.397 . S
C2572 C2577 1.363 . S
C2573 H2544 0.950 . S
C2573 C2572 1.397 . S
C2573 C2574 1.334 . S
C2574 H2545 0.950 . S
C2574 C2573 1.334 . S
C2574 C2575 1.287 . S
C2575 C2574 1.287 . S
C2575 C2576 1.524 . S
C2575 H2578 0.999 . S
C2576 H2546 0.950 . S
C2576 C2575 1.524 . S
C2576 C2577 1.415 . S
C2577 H2547 0.950 . S
C2577 C2572 1.363 . S
C2577 C2576 1.415 . S
H2578 C2575 0.999 . S
H2579 C2560 0.913 . S
H2580 C2598 0.951 . S
H2581 C2600 0.951 . S
H2582 C2602 0.950 . S
H2583 C2603 0.950 . S
H2584 C2605 0.950 . S
H2585 C2608 0.950 . S
H2586 C2609 0.950 . S
H2587 C2611 0.950 . S
H2588 C2612 0.950 . S
H2589 C2613 0.951 . S
H2590 C2615 0.951 . S
H2591 C2617 0.950 . S
H2592 C2618 0.950 . S
H2593 C2620 0.950 . S
H2594 C2623 0.950 . S
H2595 C2624 0.950 . S
H2596 C2626 0.950 . S
H2597 C2627 0.950 . S
C2598 H2580 0.951 . S
C2598 C2599 1.366 . S
C2598 C2600 1.388 . S
C2599 C2598 1.366 . S
C2599 C2603 1.385 . S
C2600 H2581 0.951 . S
C2600 C2598 1.388 . S
C2600 C2601 1.366 . S
C2601 C2600 1.366 . S
C2601 C2602 1.414 . S
C2601 C2604 1.499 . S
C2602 H2582 0.950 . S
C2602 C2601 1.414 . S
C2602 C2603 1.374 . S
C2603 H2583 0.950 . S
C2603 C2599 1.385 . S
C2603 C2602 1.374 . S
C2604 C2601 1.499 . S
C2604 C2605 1.373 . S
C2604 C2606 1.389 . S
C2605 H2584 0.950 . S
C2605 C2604 1.373 . S
C2605 C2621 1.377 . S
C2606 C2604 1.389 . S
C2606 C2607 1.524 . S
C2606 C2620 1.377 . S
C2607 C2606 1.524 . S
C2607 C2608 1.397 . S
C2607 C2612 1.363 . S
C2608 H2585 0.950 . S
C2608 C2607 1.397 . S
C2608 C2609 1.334 . S
C2609 H2586 0.950 . S
C2609 C2608 1.334 . S
C2609 C2610 1.287 . S
C2610 C2609 1.287 . S
C2610 C2611 1.524 . S
C2610 H2629 0.913 . S
C2611 H2587 0.950 . S
C2611 C2610 1.524 . S
C2611 C2612 1.415 . S
C2612 H2588 0.950 . S
C2612 C2607 1.363 . S
C2612 C2611 1.415 . S
C2613 H2589 0.951 . S
C2613 C2614 1.366 . S
C2613 C2615 1.388 . S
C2614 C2613 1.366 . S
C2614 C2618 1.385 . S
C2615 H2590 0.951 . S
C2615 C2613 1.388 . S
C2615 C2616 1.366 . S
C2616 C2615 1.366 . S
C2616 C2617 1.414 . S
C2616 C2619 1.499 . S
C2617 H2591 0.950 . S
C2617 C2616 1.414 . S
C2617 C2618 1.374 . S
C2618 H2592 0.950 . S
C2618 C2614 1.385 . S
C2618 C2617 1.374 . S
C2619 C2616 1.499 . S
C2619 C2620 1.373 . S
C2619 C2621 1.389 . S
C2620 H2593 0.950 . S
C2620 C2606 1.377 . S
C2620 C2619 1.373 . S
C2621 C2605 1.377 . S
C2621 C2619 1.389 . S
C2621 C2622 1.524 . S
C2622 C2621 1.524 . S
C2622 C2623 1.397 . S
C2622 C2627 1.363 . S
C2623 H2594 0.950 . S
C2623 C2622 1.397 . S
C2623 C2624 1.334 . S
C2624 H2595 0.950 . S
C2624 C2623 1.334 . S
C2624 C2625 1.287 . S
C2625 C2624 1.287 . S
C2625 C2626 1.524 . S
C2625 H2628 0.999 . S
C2626 H2596 0.950 . S
C2626 C2625 1.524 . S
C2626 C2627 1.415 . S
C2627 H2597 0.950 . S
C2627 C2622 1.363 . S
C2627 C2626 1.415 . S
H2628 C2625 0.999 . S
H2629 C2610 0.913 . S
H2630 C2648 0.951 . S
H2631 C2650 0.951 . S
H2632 C2652 0.950 . S
H2633 C2653 0.950 . S
H2634 C2655 0.950 . S
H2635 C2658 0.950 . S
H2636 C2659 0.950 . S
H2637 C2661 0.950 . S
H2638 C2662 0.950 . S
H2639 C2663 0.951 . S
H2640 C2665 0.951 . S
H2641 C2667 0.950 . S
H2642 C2668 0.950 . S
H2643 C2670 0.950 . S
H2644 C2673 0.950 . S
H2645 C2674 0.950 . S
H2646 C2676 0.950 . S
H2647 C2677 0.950 . S
C2648 H2630 0.951 . S
C2648 C2649 1.366 . S
C2648 C2650 1.388 . S
C2649 C2648 1.366 . S
C2649 C2653 1.385 . S
C2650 H2631 0.951 . S
C2650 C2648 1.388 . S
C2650 C2651 1.366 . S
C2651 C2650 1.366 . S
C2651 C2652 1.414 . S
C2651 C2654 1.499 . S
C2652 H2632 0.950 . S
C2652 C2651 1.414 . S
C2652 C2653 1.374 . S
C2653 H2633 0.950 . S
C2653 C2649 1.385 . S
C2653 C2652 1.374 . S
C2654 C2651 1.499 . S
C2654 C2655 1.373 . S
C2654 C2656 1.389 . S
C2655 H2634 0.950 . S
C2655 C2654 1.373 . S
C2655 C2671 1.377 . S
C2656 C2654 1.389 . S
C2656 C2657 1.524 . S
C2656 C2670 1.377 . S
C2657 C2656 1.524 . S
C2657 C2658 1.397 . S
C2657 C2662 1.363 . S
C2658 H2635 0.950 . S
C2658 C2657 1.397 . S
C2658 C2659 1.334 . S
C2659 H2636 0.950 . S
C2659 C2658 1.334 . S
C2659 C2660 1.287 . S
C2660 C2659 1.287 . S
C2660 C2661 1.524 . S
C2660 H2679 0.913 . S
C2661 H2637 0.950 . S
C2661 C2660 1.524 . S
C2661 C2662 1.415 . S
C2662 H2638 0.950 . S
C2662 C2657 1.363 . S
C2662 C2661 1.415 . S
C2663 H2639 0.951 . S
C2663 C2664 1.366 . S
C2663 C2665 1.388 . S
C2664 C2663 1.366 . S
C2664 C2668 1.385 . S
C2665 H2640 0.951 . S
C2665 C2663 1.388 . S
C2665 C2666 1.366 . S
C2666 C2665 1.366 . S
C2666 C2667 1.414 . S
C2666 C2669 1.499 . S
C2667 H2641 0.950 . S
C2667 C2666 1.414 . S
C2667 C2668 1.374 . S
C2668 H2642 0.950 . S
C2668 C2664 1.385 . S
C2668 C2667 1.374 . S
C2669 C2666 1.499 . S
C2669 C2670 1.373 . S
C2669 C2671 1.389 . S
C2670 H2643 0.950 . S
C2670 C2656 1.377 . S
C2670 C2669 1.373 . S
C2671 C2655 1.377 . S
C2671 C2669 1.389 . S
C2671 C2672 1.524 . S
C2672 C2671 1.524 . S
C2672 C2673 1.397 . S
C2672 C2677 1.363 . S
C2673 H2644 0.950 . S
C2673 C2672 1.397 . S
C2673 C2674 1.334 . S
C2674 H2645 0.950 . S
C2674 C2673 1.334 . S
C2674 C2675 1.287 . S
C2675 C2674 1.287 . S
C2675 C2676 1.524 . S
C2675 H2678 0.999 . S
C2676 H2646 0.950 . S
C2676 C2675 1.524 . S
C2676 C2677 1.415 . S
C2677 H2647 0.950 . S
C2677 C2672 1.363 . S
C2677 C2676 1.415 . S
H2678 C2675 0.999 . S
H2679 C2660 0.913 . S
H2680 C2698 0.951 . S
H2681 C2700 0.951 . S
H2682 C2702 0.950 . S
H2683 C2703 0.950 . S
H2684 C2705 0.950 . S
H2685 C2708 0.950 . S
H2686 C2709 0.950 . S
H2687 C2711 0.950 . S
H2688 C2712 0.950 . S
H2689 C2713 0.951 . S
H2690 C2715 0.951 . S
H2691 C2717 0.950 . S
H2692 C2718 0.950 . S
H2693 C2720 0.950 . S
H2694 C2723 0.950 . S
H2695 C2724 0.950 . S
H2696 C2726 0.950 . S
H2697 C2727 0.950 . S
C2698 H2680 0.951 . S
C2698 C2699 1.366 . S
C2698 C2700 1.388 . S
C2699 C2698 1.366 . S
C2699 C2703 1.385 . S
C2700 H2681 0.951 . S
C2700 C2698 1.388 . S
C2700 C2701 1.366 . S
C2701 C2700 1.366 . S
C2701 C2702 1.414 . S
C2701 C2704 1.499 . S
C2702 H2682 0.950 . S
C2702 C2701 1.414 . S
C2702 C2703 1.374 . S
C2703 H2683 0.950 . S
C2703 C2699 1.385 . S
C2703 C2702 1.374 . S
C2704 C2701 1.499 . S
C2704 C2705 1.373 . S
C2704 C2706 1.389 . S
C2705 H2684 0.950 . S
C2705 C2704 1.373 . S
C2705 C2721 1.377 . S
C2706 C2704 1.389 . S
C2706 C2707 1.524 . S
C2706 C2720 1.377 . S
C2707 C2706 1.524 . S
C2707 C2708 1.397 . S
C2707 C2712 1.363 . S
C2708 H2685 0.950 . S
C2708 C2707 1.397 . S
C2708 C2709 1.334 . S
C2709 H2686 0.950 . S
C2709 C2708 1.334 . S
C2709 C2710 1.287 . S
C2710 C2709 1.287 . S
C2710 C2711 1.524 . S
C2710 H2729 0.913 . S
C2711 H2687 0.950 . S
C2711 C2710 1.524 . S
C2711 C2712 1.415 . S
C2712 H2688 0.950 . S
C2712 C2707 1.363 . S
C2712 C2711 1.415 . S
C2713 H2689 0.951 . S
C2713 C2714 1.366 . S
C2713 C2715 1.388 . S
C2714 C2713 1.366 . S
C2714 C2718 1.385 . S
C2715 H2690 0.951 . S
C2715 C2713 1.388 . S
C2715 C2716 1.366 . S
C2716 C2715 1.366 . S
C2716 C2717 1.414 . S
C2716 C2719 1.499 . S
C2717 H2691 0.950 . S
C2717 C2716 1.414 . S
C2717 C2718 1.374 . S
C2718 H2692 0.950 . S
C2718 C2714 1.385 . S
C2718 C2717 1.374 . S
C2719 C2716 1.499 . S
C2719 C2720 1.373 . S
C2719 C2721 1.389 . S
C2720 H2693 0.950 . S
C2720 C2706 1.377 . S
C2720 C2719 1.373 . S
C2721 C2705 1.377 . S
C2721 C2719 1.389 . S
C2721 C2722 1.524 . S
C2722 C2721 1.524 . S
C2722 C2723 1.397 . S
C2722 C2727 1.363 . S
C2723 H2694 0.950 . S
C2723 C2722 1.397 . S
C2723 C2724 1.334 . S
C2724 H2695 0.950 . S
C2724 C2723 1.334 . S
C2724 C2725 1.287 . S
C2725 C2724 1.287 . S
C2725 C2726 1.524 . S
C2725 H2728 0.999 . S
C2726 H2696 0.950 . S
C2726 C2725 1.524 . S
C2726 C2727 1.415 . S
C2727 H2697 0.950 . S
C2727 C2722 1.363 . S
C2727 C2726 1.415 . S
H2728 C2725 0.999 . S
H2729 C2710 0.913 . S
H2730 C2748 0.951 . S
H2731 C2750 0.951 . S
H2732 C2752 0.950 . S
H2733 C2753 0.950 . S
H2734 C2755 0.950 . S
H2735 C2758 0.950 . S
H2736 C2759 0.950 . S
H2737 C2761 0.950 . S
H2738 C2762 0.950 . S
H2739 C2763 0.951 . S
H2740 C2765 0.951 . S
H2741 C2767 0.950 . S
H2742 C2768 0.950 . S
H2743 C2770 0.950 . S
H2744 C2773 0.950 . S
H2745 C2774 0.950 . S
H2746 C2776 0.950 . S
H2747 C2777 0.950 . S
C2748 H2730 0.951 . S
C2748 C2749 1.366 . S
C2748 C2750 1.388 . S
C2749 C2748 1.366 . S
C2749 C2753 1.385 . S
C2750 H2731 0.951 . S
C2750 C2748 1.388 . S
C2750 C2751 1.366 . S
C2751 C2750 1.366 . S
C2751 C2752 1.414 . S
C2751 C2754 1.499 . S
C2752 H2732 0.950 . S
C2752 C2751 1.414 . S
C2752 C2753 1.374 . S
C2753 H2733 0.950 . S
C2753 C2749 1.385 . S
C2753 C2752 1.374 . S
C2754 C2751 1.499 . S
C2754 C2755 1.373 . S
C2754 C2756 1.389 . S
C2755 H2734 0.950 . S
C2755 C2754 1.373 . S
C2755 C2771 1.377 . S
C2756 C2754 1.389 . S
C2756 C2757 1.524 . S
C2756 C2770 1.377 . S
C2757 C2756 1.524 . S
C2757 C2758 1.397 . S
C2757 C2762 1.363 . S
C2758 H2735 0.950 . S
C2758 C2757 1.397 . S
C2758 C2759 1.334 . S
C2759 H2736 0.950 . S
C2759 C2758 1.334 . S
C2759 C2760 1.287 . S
C2760 C2759 1.287 . S
C2760 C2761 1.524 . S
C2760 H2779 0.913 . S
C2761 H2737 0.950 . S
C2761 C2760 1.524 . S
C2761 C2762 1.415 . S
C2762 H2738 0.950 . S
C2762 C2757 1.363 . S
C2762 C2761 1.415 . S
C2763 H2739 0.951 . S
C2763 C2764 1.366 . S
C2763 C2765 1.388 . S
C2764 C2763 1.366 . S
C2764 C2768 1.385 . S
C2765 H2740 0.951 . S
C2765 C2763 1.388 . S
C2765 C2766 1.366 . S
C2766 C2765 1.366 . S
C2766 C2767 1.414 . S
C2766 C2769 1.499 . S
C2767 H2741 0.950 . S
C2767 C2766 1.414 . S
C2767 C2768 1.374 . S
C2768 H2742 0.950 . S
C2768 C2764 1.385 . S
C2768 C2767 1.374 . S
C2769 C2766 1.499 . S
C2769 C2770 1.373 . S
C2769 C2771 1.389 . S
C2770 H2743 0.950 . S
C2770 C2756 1.377 . S
C2770 C2769 1.373 . S
C2771 C2755 1.377 . S
C2771 C2769 1.389 . S
C2771 C2772 1.524 . S
C2772 C2771 1.524 . S
C2772 C2773 1.397 . S
C2772 C2777 1.363 . S
C2773 H2744 0.950 . S
C2773 C2772 1.397 . S
C2773 C2774 1.334 . S
C2774 H2745 0.950 . S
C2774 C2773 1.334 . S
C2774 C2775 1.287 . S
C2775 C2774 1.287 . S
C2775 C2776 1.524 . S
C2775 H2778 0.999 . S
C2776 H2746 0.950 . S
C2776 C2775 1.524 . S
C2776 C2777 1.415 . S
C2777 H2747 0.950 . S
C2777 C2772 1.363 . S
C2777 C2776 1.415 . S
H2778 C2775 0.999 . S
H2779 C2760 0.913 . S
H2780 C2798 0.951 . S
H2781 C2800 0.951 . S
H2782 C2802 0.950 . S
H2783 C2803 0.950 . S
H2784 C2805 0.950 . S
H2785 C2808 0.950 . S
H2786 C2809 0.950 . S
H2787 C2811 0.950 . S
H2788 C2812 0.950 . S
H2789 C2813 0.951 . S
H2790 C2815 0.951 . S
H2791 C2817 0.950 . S
H2792 C2818 0.950 . S
H2793 C2820 0.950 . S
H2794 C2823 0.950 . S
H2795 C2824 0.950 . S
H2796 C2826 0.950 . S
H2797 C2827 0.950 . S
C2798 H2780 0.951 . S
C2798 C2799 1.366 . S
C2798 C2800 1.388 . S
C2799 C2798 1.366 . S
C2799 C2803 1.385 . S
C2800 H2781 0.951 . S
C2800 C2798 1.388 . S
C2800 C2801 1.366 . S
C2801 C2800 1.366 . S
C2801 C2802 1.414 . S
C2801 C2804 1.499 . S
C2802 H2782 0.950 . S
C2802 C2801 1.414 . S
C2802 C2803 1.374 . S
C2803 H2783 0.950 . S
C2803 C2799 1.385 . S
C2803 C2802 1.374 . S
C2804 C2801 1.499 . S
C2804 C2805 1.373 . S
C2804 C2806 1.389 . S
C2805 H2784 0.950 . S
C2805 C2804 1.373 . S
C2805 C2821 1.377 . S
C2806 C2804 1.389 . S
C2806 C2807 1.524 . S
C2806 C2820 1.377 . S
C2807 C2806 1.524 . S
C2807 C2808 1.397 . S
C2807 C2812 1.363 . S
C2808 H2785 0.950 . S
C2808 C2807 1.397 . S
C2808 C2809 1.334 . S
C2809 H2786 0.950 . S
C2809 C2808 1.334 . S
C2809 C2810 1.287 . S
C2810 C2809 1.287 . S
C2810 C2811 1.524 . S
C2810 H2829 0.913 . S
C2811 H2787 0.950 . S
C2811 C2810 1.524 . S
C2811 C2812 1.415 . S
C2812 H2788 0.950 . S
C2812 C2807 1.363 . S
C2812 C2811 1.415 . S
C2813 H2789 0.951 . S
C2813 C2814 1.366 . S
C2813 C2815 1.388 . S
C2814 C2813 1.366 . S
C2814 C2818 1.385 . S
C2815 H2790 0.951 . S
C2815 C2813 1.388 . S
C2815 C2816 1.366 . S
C2816 C2815 1.366 . S
C2816 C2817 1.414 . S
C2816 C2819 1.499 . S
C2817 H2791 0.950 . S
C2817 C2816 1.414 . S
C2817 C2818 1.374 . S
C2818 H2792 0.950 . S
C2818 C2814 1.385 . S
C2818 C2817 1.374 . S
C2819 C2816 1.499 . S
C2819 C2820 1.373 . S
C2819 C2821 1.389 . S
C2820 H2793 0.950 . S
C2820 C2806 1.377 . S
C2820 C2819 1.373 . S
C2821 C2805 1.377 . S
C2821 C2819 1.389 . S
C2821 C2822 1.524 . S
C2822 C2821 1.524 . S
C2822 C2823 1.397 . S
C2822 C2827 1.363 . S
C2823 H2794 0.950 . S
C2823 C2822 1.397 . S
C2823 C2824 1.334 . S
C2824 H2795 0.950 . S
C2824 C2823 1.334 . S
C2824 C2825 1.287 . S
C2825 C2824 1.287 . S
C2825 C2826 1.524 . S
C2825 H2828 0.999 . S
C2826 H2796 0.950 . S
C2826 C2825 1.524 . S
C2826 C2827 1.415 . S
C2827 H2797 0.950 . S
C2827 C2822 1.363 . S
C2827 C2826 1.415 . S
H2828 C2825 0.999 . S
H2829 C2810 0.913 . S
H2830 C2848 0.951 . S
H2831 C2850 0.951 . S
H2832 C2852 0.950 . S
H2833 C2853 0.950 . S
H2834 C2855 0.950 . S
H2835 C2858 0.950 . S
H2836 C2859 0.950 . S
H2837 C2861 0.950 . S
H2838 C2862 0.950 . S
H2839 C2863 0.951 . S
H2840 C2865 0.951 . S
H2841 C2867 0.950 . S
H2842 C2868 0.950 . S
H2843 C2870 0.950 . S
H2844 C2873 0.950 . S
H2845 C2874 0.950 . S
H2846 C2876 0.950 . S
H2847 C2877 0.950 . S
C2848 H2830 0.951 . S
C2848 C2849 1.366 . S
C2848 C2850 1.388 . S
C2849 C2848 1.366 . S
C2849 C2853 1.385 . S
C2850 H2831 0.951 . S
C2850 C2848 1.388 . S
C2850 C2851 1.366 . S
C2851 C2850 1.366 . S
C2851 C2852 1.414 . S
C2851 C2854 1.499 . S
C2852 H2832 0.950 . S
C2852 C2851 1.414 . S
C2852 C2853 1.374 . S
C2853 H2833 0.950 . S
C2853 C2849 1.385 . S
C2853 C2852 1.374 . S
C2854 C2851 1.499 . S
C2854 C2855 1.373 . S
C2854 C2856 1.389 . S
C2855 H2834 0.950 . S
C2855 C2854 1.373 . S
C2855 C2871 1.377 . S
C2856 C2854 1.389 . S
C2856 C2857 1.524 . S
C2856 C2870 1.377 . S
C2857 C2856 1.524 . S
C2857 C2858 1.397 . S
C2857 C2862 1.363 . S
C2858 H2835 0.950 . S
C2858 C2857 1.397 . S
C2858 C2859 1.334 . S
C2859 H2836 0.950 . S
C2859 C2858 1.334 . S
C2859 C2860 1.287 . S
C2860 C2859 1.287 . S
C2860 C2861 1.524 . S
C2860 H2879 0.913 . S
C2861 H2837 0.950 . S
C2861 C2860 1.524 . S
C2861 C2862 1.415 . S
C2862 H2838 0.950 . S
C2862 C2857 1.363 . S
C2862 C2861 1.415 . S
C2863 H2839 0.951 . S
C2863 C2864 1.366 . S
C2863 C2865 1.388 . S
C2864 C2863 1.366 . S
C2864 C2868 1.385 . S
C2865 H2840 0.951 . S
C2865 C2863 1.388 . S
C2865 C2866 1.366 . S
C2866 C2865 1.366 . S
C2866 C2867 1.414 . S
C2866 C2869 1.499 . S
C2867 H2841 0.950 . S
C2867 C2866 1.414 . S
C2867 C2868 1.374 . S
C2868 H2842 0.950 . S
C2868 C2864 1.385 . S
C2868 C2867 1.374 . S
C2869 C2866 1.499 . S
C2869 C2870 1.373 . S
C2869 C2871 1.389 . S
C2870 H2843 0.950 . S
C2870 C2856 1.377 . S
C2870 C2869 1.373 . S
C2871 C2855 1.377 . S
C2871 C2869 1.389 . S
C2871 C2872 1.524 . S
C2872 C2871 1.524 . S
C2872 C2873 1.397 . S
C2872 C2877 1.363 . S
C2873 H2844 0.950 . S
C2873 C2872 1.397 . S
C2873 C2874 1.334 . S
C2874 H2845 0.950 . S
C2874 C2873 1.334 . S
C2874 C2875 1.287 . S
C2875 C2874 1.287 . S
C2875 C2876 1.524 . S
C2875 H2878 0.999 . S
C2876 H2846 0.950 . S
C2876 C2875 1.524 . S
C2876 C2877 1.415 . S
C2877 H2847 0.950 . S
C2877 C2872 1.363 . S
C2877 C2876 1.415 . S
H2878 C2875 0.999 . S
H2879 C2860 0.913 . S
H2880 C2898 0.951 . S
H2881 C2900 0.951 . S
H2882 C2902 0.950 . S
H2883 C2903 0.950 . S
H2884 C2905 0.950 . S
H2885 C2908 0.950 . S
H2886 C2909 0.950 . S
H2887 C2911 0.950 . S
H2888 C2912 0.950 . S
H2889 C2913 0.951 . S
H2890 C2915 0.951 . S
H2891 C2917 0.950 . S
H2892 C2918 0.905 1_655 S
H2893 C2920 0.950 . S
H2894 C2923 0.950 . S
H2895 C2924 0.950 . S
H2896 C2926 0.950 . S
H2897 C2927 0.950 . S
C2898 H2880 0.951 . S
C2898 C2899 1.366 . S
C2898 C2900 1.388 . S
C2899 C2898 1.366 . S
C2899 C2903 1.385 . S
C2900 H2881 0.951 . S
C2900 C2898 1.388 . S
C2900 C2901 1.366 . S
C2901 C2900 1.366 . S
C2901 C2902 1.414 . S
C2901 C2904 1.499 . S
C2902 H2882 0.950 . S
C2902 C2901 1.414 . S
C2902 C2903 1.374 . S
C2903 H2883 0.950 . S
C2903 C2899 1.385 . S
C2903 C2902 1.374 . S
C2904 C2901 1.499 . S
C2904 C2905 1.373 . S
C2904 C2906 1.389 . S
C2905 H2884 0.950 . S
C2905 C2904 1.373 . S
C2905 C2921 1.377 . S
C2906 C2904 1.389 . S
C2906 C2907 1.524 . S
C2906 C2920 1.377 . S
C2907 C2906 1.524 . S
C2907 C2908 1.397 . S
C2907 C2912 1.363 1_455 S
C2908 H2885 0.950 . S
C2908 C2907 1.397 . S
C2908 C2909 1.334 . S
C2909 H2886 0.950 . S
C2909 C2908 1.334 . S
C2909 C2910 1.287 1_455 S
C2910 C2909 1.287 1_655 S
C2910 C2911 1.524 . S
C2910 H2929 0.929 . S
C2911 H2887 0.950 . S
C2911 C2910 1.524 . S
C2911 C2912 1.415 . S
C2912 H2888 0.950 . S
C2912 C2907 1.363 1_655 S
C2912 C2911 1.415 . S
C2913 H2889 0.951 . S
C2913 C2914 1.366 . S
C2913 C2915 1.388 . S
C2914 C2913 1.366 . S
C2914 C2918 1.385 . S
C2915 H2890 0.951 . S
C2915 C2913 1.388 . S
C2915 C2916 1.366 . S
C2916 C2915 1.366 . S
C2916 C2917 1.414 . S
C2916 C2919 1.499 . S
C2917 H2891 0.950 . S
C2917 C2916 1.414 . S
C2917 C2918 1.374 . S
C2918 H2892 0.905 1_455 S
C2918 C2914 1.385 . S
C2918 C2917 1.374 . S
C2919 C2916 1.499 . S
C2919 C2920 1.373 . S
C2919 C2921 1.389 . S
C2920 H2893 0.950 . S
C2920 C2906 1.377 . S
C2920 C2919 1.373 . S
C2921 C2905 1.377 . S
C2921 C2919 1.389 . S
C2921 C2922 1.524 . S
C2922 C2921 1.524 . S
C2922 C2923 1.397 . S
C2922 C2927 1.363 . S
C2923 H2894 0.950 . S
C2923 C2922 1.397 . S
C2923 C2924 1.334 . S
C2924 H2895 0.950 . S
C2924 C2923 1.334 . S
C2924 C2925 1.287 . S
C2925 C2924 1.287 . S
C2925 C2926 1.524 . S
C2925 H2928 0.999 . S
C2926 H2896 0.950 . S
C2926 C2925 1.524 . S
C2926 C2927 1.415 . S
C2927 H2897 0.950 . S
C2927 C2922 1.363 . S
C2927 C2926 1.415 . S
H2928 C2925 0.999 . S
H2929 C2910 0.929 . S
H2930 C2948 0.951 . S
H2931 C2950 0.951 . S
H2932 C2952 0.950 . S
H2933 C2953 0.950 . S
H2934 C2955 0.950 . S
H2935 C2958 0.950 . S
H2936 C2959 0.950 . S
H2937 C2961 0.950 . S
H2938 C2962 0.950 . S
H2939 C2963 0.951 . S
H2940 C2965 0.951 . S
H2941 C2967 0.950 . S
H2942 C2968 0.950 . S
H2943 C2970 0.950 . S
H2944 C2973 0.950 . S
H2945 C2974 0.950 . S
H2946 C2976 0.950 . S
H2947 C2977 0.950 . S
C2948 H2930 0.951 . S
C2948 C2949 1.366 . S
C2948 C2950 1.388 . S
C2949 C2948 1.366 . S
C2949 C2953 1.385 . S
C2950 H2931 0.951 . S
C2950 C2948 1.388 . S
C2950 C2951 1.366 . S
C2951 C2950 1.366 . S
C2951 C2952 1.414 . S
C2951 C2954 1.499 . S
C2952 H2932 0.950 . S
C2952 C2951 1.414 . S
C2952 C2953 1.374 . S
C2953 H2933 0.950 . S
C2953 C2949 1.385 . S
C2953 C2952 1.374 . S
C2954 C2951 1.499 . S
C2954 C2955 1.373 . S
C2954 C2956 1.389 . S
C2955 H2934 0.950 . S
C2955 C2954 1.373 . S
C2955 C2971 1.377 . S
C2956 C2954 1.389 . S
C2956 C2957 1.524 . S
C2956 C2970 1.377 . S
C2957 C2956 1.524 . S
C2957 C2958 1.397 . S
C2957 C2962 1.363 . S
C2958 H2935 0.950 . S
C2958 C2957 1.397 . S
C2958 C2959 1.334 . S
C2959 H2936 0.950 . S
C2959 C2958 1.334 . S
C2959 C2960 1.287 . S
C2960 C2959 1.287 . S
C2960 C2961 1.524 . S
C2960 H2979 0.913 . S
C2961 H2937 0.950 . S
C2961 C2960 1.524 . S
C2961 C2962 1.415 . S
C2962 H2938 0.950 . S
C2962 C2957 1.363 . S
C2962 C2961 1.415 . S
C2963 H2939 0.951 . S
C2963 C2964 1.366 . S
C2963 C2965 1.388 . S
C2964 C2963 1.366 . S
C2964 C2968 1.385 . S
C2965 H2940 0.951 . S
C2965 C2963 1.388 . S
C2965 C2966 1.366 . S
C2966 C2965 1.366 . S
C2966 C2967 1.414 . S
C2966 C2969 1.499 . S
C2967 H2941 0.950 . S
C2967 C2966 1.414 . S
C2967 C2968 1.374 . S
C2968 H2942 0.950 . S
C2968 C2964 1.385 . S
C2968 C2967 1.374 . S
C2969 C2966 1.499 . S
C2969 C2970 1.373 . S
C2969 C2971 1.389 . S
C2970 H2943 0.950 . S
C2970 C2956 1.377 . S
C2970 C2969 1.373 . S
C2971 C2955 1.377 . S
C2971 C2969 1.389 . S
C2971 C2972 1.524 . S
C2972 C2971 1.524 . S
C2972 C2973 1.397 . S
C2972 C2977 1.363 . S
C2973 H2944 0.950 . S
C2973 C2972 1.397 . S
C2973 C2974 1.334 . S
C2974 H2945 0.950 . S
C2974 C2973 1.334 . S
C2974 C2975 1.287 . S
C2975 C2974 1.287 . S
C2975 C2976 1.524 . S
C2975 H2978 0.999 . S
C2976 H2946 0.950 . S
C2976 C2975 1.524 . S
C2976 C2977 1.415 . S
C2977 H2947 0.950 . S
C2977 C2972 1.363 . S
C2977 C2976 1.415 . S
H2978 C2975 0.999 . S
H2979 C2960 0.913 . S
H2980 C2998 0.951 . S
H2981 C3000 0.951 . S
H2982 C3002 0.950 . S
H2983 C3003 0.950 . S
H2984 C3005 0.950 . S
H2985 C3008 0.950 . S
H2986 C3009 0.950 . S
H2987 C3011 0.950 . S
H2988 C3012 0.950 . S
H2989 C3013 0.951 . S
H2990 C3015 0.951 . S
H2991 C3017 0.950 . S
H2992 C3018 0.950 . S
H2993 C3020 0.950 . S
H2994 C3023 0.950 . S
H2995 C3024 0.950 . S
H2996 C3026 0.950 . S
H2997 C3027 0.950 . S
C2998 H2980 0.951 . S
C2998 C2999 1.366 . S
C2998 C3000 1.388 . S
C2999 C2998 1.366 . S
C2999 C3003 1.385 . S
C3000 H2981 0.951 . S
C3000 C2998 1.388 . S
C3000 C3001 1.366 . S
C3001 C3000 1.366 . S
C3001 C3002 1.414 . S
C3001 C3004 1.499 . S
C3002 H2982 0.950 . S
C3002 C3001 1.414 . S
C3002 C3003 1.374 . S
C3003 H2983 0.950 . S
C3003 C2999 1.385 . S
C3003 C3002 1.374 . S
C3004 C3001 1.499 . S
C3004 C3005 1.373 . S
C3004 C3006 1.389 . S
C3005 H2984 0.950 . S
C3005 C3004 1.373 . S
C3005 C3021 1.377 . S
C3006 C3004 1.389 . S
C3006 C3007 1.524 . S
C3006 C3020 1.377 . S
C3007 C3006 1.524 . S
C3007 C3008 1.397 . S
C3007 C3012 1.363 . S
C3008 H2985 0.950 . S
C3008 C3007 1.397 . S
C3008 C3009 1.334 . S
C3009 H2986 0.950 . S
C3009 C3008 1.334 . S
C3009 C3010 1.287 . S
C3010 C3009 1.287 . S
C3010 C3011 1.524 . S
C3010 H3029 0.913 . S
C3011 H2987 0.950 . S
C3011 C3010 1.524 . S
C3011 C3012 1.415 . S
C3012 H2988 0.950 . S
C3012 C3007 1.363 . S
C3012 C3011 1.415 . S
C3013 H2989 0.951 . S
C3013 C3014 1.366 . S
C3013 C3015 1.388 . S
C3014 C3013 1.366 . S
C3014 C3018 1.385 . S
C3015 H2990 0.951 . S
C3015 C3013 1.388 . S
C3015 C3016 1.366 . S
C3016 C3015 1.366 . S
C3016 C3017 1.414 . S
C3016 C3019 1.499 . S
C3017 H2991 0.950 . S
C3017 C3016 1.414 . S
C3017 C3018 1.374 . S
C3018 H2992 0.950 . S
C3018 C3014 1.385 . S
C3018 C3017 1.374 . S
C3019 C3016 1.499 . S
C3019 C3020 1.373 . S
C3019 C3021 1.389 . S
C3020 H2993 0.950 . S
C3020 C3006 1.377 . S
C3020 C3019 1.373 . S
C3021 C3005 1.377 . S
C3021 C3019 1.389 . S
C3021 C3022 1.524 . S
C3022 C3021 1.524 . S
C3022 C3023 1.397 . S
C3022 C3027 1.363 . S
C3023 H2994 0.950 . S
C3023 C3022 1.397 . S
C3023 C3024 1.334 . S
C3024 H2995 0.950 . S
C3024 C3023 1.334 . S
C3024 C3025 1.287 . S
C3025 C3024 1.287 . S
C3025 C3026 1.524 . S
C3025 H3028 0.999 . S
C3026 H2996 0.950 . S
C3026 C3025 1.524 . S
C3026 C3027 1.415 . S
C3027 H2997 0.950 . S
C3027 C3022 1.363 . S
C3027 C3026 1.415 . S
H3028 C3025 0.999 . S
H3029 C3010 0.913 . S
H3030 C3048 0.951 . S
H3031 C3050 0.951 . S
H3032 C3052 0.950 . S
H3033 C3053 0.950 . S
H3034 C3055 0.950 . S
H3035 C3058 0.950 . S
H3036 C3059 0.950 . S
H3037 C3061 0.950 . S
H3038 C3062 0.950 . S
H3039 C3063 0.951 . S
H3040 C3065 0.951 . S
H3041 C3067 0.950 . S
H3042 C3068 0.950 . S
H3043 C3070 0.950 . S
H3044 C3073 0.950 . S
H3045 C3074 0.950 . S
H3046 C3076 0.950 . S
H3047 C3077 0.950 . S
C3048 H3030 0.951 . S
C3048 C3049 1.366 . S
C3048 C3050 1.388 . S
C3049 C3048 1.366 . S
C3049 C3053 1.385 . S
C3050 H3031 0.951 . S
C3050 C3048 1.388 . S
C3050 C3051 1.366 . S
C3051 C3050 1.366 . S
C3051 C3052 1.414 . S
C3051 C3054 1.499 . S
C3052 H3032 0.950 . S
C3052 C3051 1.414 . S
C3052 C3053 1.374 . S
C3053 H3033 0.950 . S
C3053 C3049 1.385 . S
C3053 C3052 1.374 . S
C3054 C3051 1.499 . S
C3054 C3055 1.373 . S
C3054 C3056 1.389 . S
C3055 H3034 0.950 . S
C3055 C3054 1.373 . S
C3055 C3071 1.377 . S
C3056 C3054 1.389 . S
C3056 C3057 1.524 . S
C3056 C3070 1.377 . S
C3057 C3056 1.524 . S
C3057 C3058 1.397 . S
C3057 C3062 1.363 . S
C3058 H3035 0.950 . S
C3058 C3057 1.397 . S
C3058 C3059 1.334 . S
C3059 H3036 0.950 . S
C3059 C3058 1.334 . S
C3059 C3060 1.287 . S
C3060 C3059 1.287 . S
C3060 C3061 1.524 . S
C3060 H3079 0.913 . S
C3061 H3037 0.950 . S
C3061 C3060 1.524 . S
C3061 C3062 1.415 . S
C3062 H3038 0.950 . S
C3062 C3057 1.363 . S
C3062 C3061 1.415 . S
C3063 H3039 0.951 . S
C3063 C3064 1.366 . S
C3063 C3065 1.388 . S
C3064 C3063 1.366 . S
C3064 C3068 1.385 . S
C3065 H3040 0.951 . S
C3065 C3063 1.388 . S
C3065 C3066 1.366 . S
C3066 C3065 1.366 . S
C3066 C3067 1.414 . S
C3066 C3069 1.499 . S
C3067 H3041 0.950 . S
C3067 C3066 1.414 . S
C3067 C3068 1.374 . S
C3068 H3042 0.950 . S
C3068 C3064 1.385 . S
C3068 C3067 1.374 . S
C3069 C3066 1.499 . S
C3069 C3070 1.373 . S
C3069 C3071 1.389 . S
C3070 H3043 0.950 . S
C3070 C3056 1.377 . S
C3070 C3069 1.373 . S
C3071 C3055 1.377 . S
C3071 C3069 1.389 . S
C3071 C3072 1.524 . S
C3072 C3071 1.524 . S
C3072 C3073 1.397 . S
C3072 C3077 1.363 . S
C3073 H3044 0.950 . S
C3073 C3072 1.397 . S
C3073 C3074 1.334 . S
C3074 H3045 0.950 . S
C3074 C3073 1.334 . S
C3074 C3075 1.287 . S
C3075 C3074 1.287 . S
C3075 C3076 1.524 . S
C3075 H3078 0.999 . S
C3076 H3046 0.950 . S
C3076 C3075 1.524 . S
C3076 C3077 1.415 . S
C3077 H3047 0.950 . S
C3077 C3072 1.363 . S
C3077 C3076 1.415 . S
H3078 C3075 0.999 . S
H3079 C3060 0.913 . S
H3080 C3098 0.951 . S
H3081 C3100 0.951 . S
H3082 C3102 0.950 . S
H3083 C3103 0.950 . S
H3084 C3105 0.950 . S
H3085 C3108 0.950 . S
H3086 C3109 0.950 . S
H3087 C3111 0.950 . S
H3088 C3112 0.950 . S
H3089 C3113 0.951 . S
H3090 C3115 0.951 . S
H3091 C3117 0.950 1_655 S
H3092 C3118 0.950 1_655 S
H3093 C3120 0.950 . S
H3094 C3123 0.950 . S
H3095 C3124 0.950 . S
H3096 C3126 0.950 . S
H3097 C3127 0.950 . S
C3098 H3080 0.951 . S
C3098 C3099 1.366 . S
C3098 C3100 1.388 . S
C3099 C3098 1.366 . S
C3099 C3103 1.385 . S
C3100 H3081 0.951 . S
C3100 C3098 1.388 . S
C3100 C3101 1.366 . S
C3101 C3100 1.366 . S
C3101 C3102 1.414 . S
C3101 C3104 1.499 . S
C3102 H3082 0.950 . S
C3102 C3101 1.414 . S
C3102 C3103 1.374 . S
C3103 H3083 0.950 . S
C3103 C3099 1.385 . S
C3103 C3102 1.374 . S
C3104 C3101 1.499 . S
C3104 C3105 1.373 . S
C3104 C3106 1.389 . S
C3105 H3084 0.950 . S
C3105 C3104 1.373 . S
C3105 C3121 1.377 . S
C3106 C3104 1.389 . S
C3106 C3107 1.524 . S
C3106 C3120 1.377 . S
C3107 C3106 1.524 . S
C3107 C3108 1.397 . S
C3107 C3112 1.363 1_455 S
C3108 H3085 0.950 . S
C3108 C3107 1.397 . S
C3108 C3109 1.334 . S
C3109 H3086 0.950 . S
C3109 C3108 1.334 . S
C3109 C3110 1.287 . S
C3110 C3109 1.287 . S
C3110 C3111 1.524 1_455 S
C3110 H3129 0.913 . S
C3111 H3087 0.950 . S
C3111 C3110 1.524 1_655 S
C3111 C3112 1.415 . S
C3112 H3088 0.950 . S
C3112 C3107 1.363 1_655 S
C3112 C3111 1.415 . S
C3113 H3089 0.951 . S
C3113 C3114 1.366 . S
C3113 C3115 1.388 . S
C3114 C3113 1.366 . S
C3114 C3118 1.385 . S
C3115 H3090 0.951 . S
C3115 C3113 1.388 . S
C3115 C3116 1.366 . S
C3116 C3115 1.366 . S
C3116 C3117 1.414 . S
C3116 C3119 1.499 . S
C3117 H3091 0.950 1_455 S
C3117 C3116 1.414 . S
C3117 C3118 1.374 . S
C3118 H3092 0.950 1_455 S
C3118 C3114 1.385 . S
C3118 C3117 1.374 . S
C3119 C3116 1.499 . S
C3119 C3120 1.373 . S
C3119 C3121 1.389 . S
C3120 H3093 0.950 . S
C3120 C3106 1.377 . S
C3120 C3119 1.373 . S
C3121 C3105 1.377 . S
C3121 C3119 1.389 . S
C3121 C3122 1.524 . S
C3122 C3121 1.524 . S
C3122 C3123 1.397 . S
C3122 C3127 1.363 . S
C3123 H3094 0.950 . S
C3123 C3122 1.397 . S
C3123 C3124 1.334 . S
C3124 H3095 0.950 . S
C3124 C3123 1.334 . S
C3124 C3125 1.287 . S
C3125 C3124 1.287 . S
C3125 C3126 1.524 . S
C3125 H3128 0.999 . S
C3126 H3096 0.950 . S
C3126 C3125 1.524 . S
C3126 C3127 1.415 . S
C3127 H3097 0.950 . S
C3127 C3122 1.363 . S
C3127 C3126 1.415 . S
H3128 C3125 0.999 . S
H3129 C3110 0.913 . S
H3130 C3148 0.951 . S
H3131 C3150 0.951 . S
H3132 C3152 0.950 . S
H3133 C3153 0.950 . S
H3134 C3155 0.950 . S
H3135 C3158 0.950 . S
H3136 C3159 0.950 . S
H3137 C3161 0.950 . S
H3138 C3162 0.950 . S
H3139 C3163 0.951 . S
H3140 C3165 0.951 . S
H3141 C3167 0.950 . S
H3142 C3168 0.950 . S
H3143 C3170 0.950 . S
H3144 C3173 0.950 . S
H3145 C3174 0.950 . S
H3146 C3176 0.950 . S
H3147 C3177 0.950 . S
C3148 H3130 0.951 . S
C3148 C3149 1.366 . S
C3148 C3150 1.388 . S
C3149 C3148 1.366 . S
C3149 C3153 1.385 . S
C3150 H3131 0.951 . S
C3150 C3148 1.388 . S
C3150 C3151 1.366 . S
C3151 C3150 1.366 . S
C3151 C3152 1.414 . S
C3151 C3154 1.499 . S
C3152 H3132 0.950 . S
C3152 C3151 1.414 . S
C3152 C3153 1.374 . S
C3153 H3133 0.950 . S
C3153 C3149 1.385 . S
C3153 C3152 1.374 . S
C3154 C3151 1.499 . S
C3154 C3155 1.373 . S
C3154 C3156 1.389 . S
C3155 H3134 0.950 . S
C3155 C3154 1.373 . S
C3155 C3171 1.377 . S
C3156 C3154 1.389 . S
C3156 C3157 1.524 . S
C3156 C3170 1.377 . S
C3157 C3156 1.524 . S
C3157 C3158 1.397 . S
C3157 C3162 1.363 . S
C3158 H3135 0.950 . S
C3158 C3157 1.397 . S
C3158 C3159 1.334 . S
C3159 H3136 0.950 . S
C3159 C3158 1.334 . S
C3159 C3160 1.287 . S
C3160 C3159 1.287 . S
C3160 C3161 1.524 . S
C3160 H3179 0.913 . S
C3161 H3137 0.950 . S
C3161 C3160 1.524 . S
C3161 C3162 1.415 . S
C3162 H3138 0.950 . S
C3162 C3157 1.363 . S
C3162 C3161 1.415 . S
C3163 H3139 0.951 . S
C3163 C3164 1.366 . S
C3163 C3165 1.388 . S
C3164 C3163 1.366 . S
C3164 C3168 1.385 . S
C3165 H3140 0.951 . S
C3165 C3163 1.388 . S
C3165 C3166 1.366 . S
C3166 C3165 1.366 . S
C3166 C3167 1.414 . S
C3166 C3169 1.499 . S
C3167 H3141 0.950 . S
C3167 C3166 1.414 . S
C3167 C3168 1.374 . S
C3168 H3142 0.950 . S
C3168 C3164 1.385 . S
C3168 C3167 1.374 . S
C3169 C3166 1.499 . S
C3169 C3170 1.373 . S
C3169 C3171 1.389 . S
C3170 H3143 0.950 . S
C3170 C3156 1.377 . S
C3170 C3169 1.373 . S
C3171 C3155 1.377 . S
C3171 C3169 1.389 . S
C3171 C3172 1.524 . S
C3172 C3171 1.524 . S
C3172 C3173 1.397 . S
C3172 C3177 1.363 . S
C3173 H3144 0.950 . S
C3173 C3172 1.397 . S
C3173 C3174 1.334 . S
C3174 H3145 0.950 . S
C3174 C3173 1.334 . S
C3174 C3175 1.287 . S
C3175 C3174 1.287 . S
C3175 C3176 1.524 . S
C3175 H3178 0.999 . S
C3176 H3146 0.950 . S
C3176 C3175 1.524 . S
C3176 C3177 1.415 . S
C3177 H3147 0.950 . S
C3177 C3172 1.363 . S
C3177 C3176 1.415 . S
H3178 C3175 0.999 . S
H3179 C3160 0.913 . S
H3180 C3198 0.951 . S
H3181 C3200 0.951 . S
H3182 C3202 0.950 . S
H3183 C3203 0.950 . S
H3184 C3205 0.950 . S
H3185 C3208 0.950 . S
H3186 C3209 0.950 . S
H3187 C3211 0.950 . S
H3188 C3212 0.950 . S
H3189 C3213 0.951 . S
H3190 C3215 0.951 . S
H3191 C3217 0.950 . S
H3192 C3218 0.950 . S
H3193 C3220 0.950 . S
H3194 C3223 0.950 . S
H3195 C3224 0.950 . S
H3196 C3226 0.950 . S
H3197 C3227 0.950 . S
C3198 H3180 0.951 . S
C3198 C3199 1.366 . S
C3198 C3200 1.388 . S
C3199 C3198 1.366 . S
C3199 C3203 1.385 . S
C3200 H3181 0.951 . S
C3200 C3198 1.388 . S
C3200 C3201 1.366 . S
C3201 C3200 1.366 . S
C3201 C3202 1.414 . S
C3201 C3204 1.499 . S
C3202 H3182 0.950 . S
C3202 C3201 1.414 . S
C3202 C3203 1.374 . S
C3203 H3183 0.950 . S
C3203 C3199 1.385 . S
C3203 C3202 1.374 . S
C3204 C3201 1.499 . S
C3204 C3205 1.373 . S
C3204 C3206 1.389 . S
C3205 H3184 0.950 . S
C3205 C3204 1.373 . S
C3205 C3221 1.377 . S
C3206 C3204 1.389 . S
C3206 C3207 1.524 . S
C3206 C3220 1.377 . S
C3207 C3206 1.524 . S
C3207 C3208 1.397 . S
C3207 C3212 1.363 . S
C3208 H3185 0.950 . S
C3208 C3207 1.397 . S
C3208 C3209 1.334 . S
C3209 H3186 0.950 . S
C3209 C3208 1.334 . S
C3209 C3210 1.287 . S
C3210 C3209 1.287 . S
C3210 C3211 1.524 . S
C3210 H3229 0.913 . S
C3211 H3187 0.950 . S
C3211 C3210 1.524 . S
C3211 C3212 1.415 . S
C3212 H3188 0.950 . S
C3212 C3207 1.363 . S
C3212 C3211 1.415 . S
C3213 H3189 0.951 . S
C3213 C3214 1.366 . S
C3213 C3215 1.388 . S
C3214 C3213 1.366 . S
C3214 C3218 1.385 . S
C3215 H3190 0.951 . S
C3215 C3213 1.388 . S
C3215 C3216 1.366 . S
C3216 C3215 1.366 . S
C3216 C3217 1.414 . S
C3216 C3219 1.499 . S
C3217 H3191 0.950 . S
C3217 C3216 1.414 . S
C3217 C3218 1.374 . S
C3218 H3192 0.950 . S
C3218 C3214 1.385 . S
C3218 C3217 1.374 . S
C3219 C3216 1.499 . S
C3219 C3220 1.373 . S
C3219 C3221 1.389 . S
C3220 H3193 0.950 . S
C3220 C3206 1.377 . S
C3220 C3219 1.373 . S
C3221 C3205 1.377 . S
C3221 C3219 1.389 . S
C3221 C3222 1.524 . S
C3222 C3221 1.524 . S
C3222 C3223 1.397 . S
C3222 C3227 1.363 . S
C3223 H3194 0.950 . S
C3223 C3222 1.397 . S
C3223 C3224 1.334 . S
C3224 H3195 0.950 . S
C3224 C3223 1.334 . S
C3224 C3225 1.287 . S
C3225 C3224 1.287 . S
C3225 C3226 1.524 . S
C3225 H3228 0.999 . S
C3226 H3196 0.950 . S
C3226 C3225 1.524 . S
C3226 C3227 1.415 . S
C3227 H3197 0.950 . S
C3227 C3222 1.363 . S
C3227 C3226 1.415 . S
H3228 C3225 0.999 . S
H3229 C3210 0.913 . S
H3230 C3248 0.951 . S
H3231 C3250 0.951 . S
H3232 C3252 0.950 . S
H3233 C3253 0.950 . S
H3234 C3255 0.950 . S
H3235 C3258 0.950 . S
H3236 C3259 0.950 . S
H3237 C3261 0.950 . S
H3238 C3262 0.950 . S
H3239 C3263 0.951 . S
H3240 C3265 0.951 . S
H3241 C3267 0.950 . S
H3242 C3268 0.950 . S
H3243 C3270 0.950 . S
H3244 C3273 0.950 . S
H3245 C3274 0.950 . S
H3246 C3276 0.950 . S
H3247 C3277 0.950 . S
C3248 H3230 0.951 . S
C3248 C3249 1.366 . S
C3248 C3250 1.388 . S
C3249 C3248 1.366 . S
C3249 C3253 1.385 . S
C3250 H3231 0.951 . S
C3250 C3248 1.388 . S
C3250 C3251 1.366 . S
C3251 C3250 1.366 . S
C3251 C3252 1.414 . S
C3251 C3254 1.499 . S
C3252 H3232 0.950 . S
C3252 C3251 1.414 . S
C3252 C3253 1.374 . S
C3253 H3233 0.950 . S
C3253 C3249 1.385 . S
C3253 C3252 1.374 . S
C3254 C3251 1.499 . S
C3254 C3255 1.373 . S
C3254 C3256 1.389 . S
C3255 H3234 0.950 . S
C3255 C3254 1.373 . S
C3255 C3271 1.377 . S
C3256 C3254 1.389 . S
C3256 C3257 1.524 . S
C3256 C3270 1.377 . S
C3257 C3256 1.524 . S
C3257 C3258 1.397 . S
C3257 C3262 1.363 . S
C3258 H3235 0.950 . S
C3258 C3257 1.397 . S
C3258 C3259 1.334 . S
C3259 H3236 0.950 . S
C3259 C3258 1.334 . S
C3259 C3260 1.287 . S
C3260 C3259 1.287 . S
C3260 C3261 1.524 . S
C3260 H3279 0.913 . S
C3261 H3237 0.950 . S
C3261 C3260 1.524 . S
C3261 C3262 1.415 . S
C3262 H3238 0.950 . S
C3262 C3257 1.363 . S
C3262 C3261 1.415 . S
C3263 H3239 0.951 . S
C3263 C3264 1.366 . S
C3263 C3265 1.388 . S
C3264 C3263 1.366 . S
C3264 C3268 1.385 . S
C3265 H3240 0.951 . S
C3265 C3263 1.388 . S
C3265 C3266 1.366 . S
C3266 C3265 1.366 . S
C3266 C3267 1.414 . S
C3266 C3269 1.499 . S
C3267 H3241 0.950 . S
C3267 C3266 1.414 . S
C3267 C3268 1.374 . S
C3268 H3242 0.950 . S
C3268 C3264 1.385 . S
C3268 C3267 1.374 . S
C3269 C3266 1.499 . S
C3269 C3270 1.373 . S
C3269 C3271 1.389 . S
C3270 H3243 0.950 . S
C3270 C3256 1.377 . S
C3270 C3269 1.373 . S
C3271 C3255 1.377 . S
C3271 C3269 1.389 . S
C3271 C3272 1.524 . S
C3272 C3271 1.524 . S
C3272 C3273 1.397 . S
C3272 C3277 1.363 . S
C3273 H3244 0.950 . S
C3273 C3272 1.397 . S
C3273 C3274 1.334 . S
C3274 H3245 0.950 . S
C3274 C3273 1.334 . S
C3274 C3275 1.287 . S
C3275 C3274 1.287 . S
C3275 C3276 1.524 . S
C3275 H3278 0.999 . S
C3276 H3246 0.950 . S
C3276 C3275 1.524 . S
C3276 C3277 1.415 . S
C3277 H3247 0.950 . S
C3277 C3272 1.363 . S
C3277 C3276 1.415 . S
H3278 C3275 0.999 . S
H3279 C3260 0.913 . S
H3280 C3298 0.951 . S
H3281 C3300 0.951 . S
H3282 C3302 0.950 . S
H3283 C3303 0.950 . S
H3284 C3305 0.950 1_565 S
H3285 C3308 0.950 . S
H3286 C3309 0.950 . S
H3287 C3311 0.950 . S
H3288 C3312 0.950 . S
H3289 C3313 0.951 . S
H3290 C3315 0.951 . S
H3291 C3317 0.950 . S
H3292 C3318 0.950 . S
H3293 C3320 0.950 . S
H3294 C3323 0.950 . S
H3295 C3324 0.950 . S
H3296 C3326 0.950 . S
H3297 C3327 0.950 . S
C3298 H3280 0.951 . S
C3298 C3299 1.366 . S
C3298 C3300 1.388 . S
C3299 C3298 1.366 . S
C3299 C3303 1.385 . S
C3300 H3281 0.951 . S
C3300 C3298 1.388 . S
C3300 C3301 1.366 . S
C3301 C3300 1.366 . S
C3301 C3302 1.414 . S
C3301 C3304 1.499 . S
C3302 H3282 0.950 . S
C3302 C3301 1.414 . S
C3302 C3303 1.374 . S
C3303 H3283 0.950 . S
C3303 C3299 1.385 . S
C3303 C3302 1.374 . S
C3304 C3301 1.499 . S
C3304 C3305 1.373 . S
C3304 C3306 1.389 . S
C3305 H3284 0.950 1_545 S
C3305 C3304 1.373 . S
C3305 C3321 1.377 . S
C3306 C3304 1.389 . S
C3306 C3307 1.524 . S
C3306 C3320 1.377 . S
C3307 C3306 1.524 . S
C3307 C3308 1.397 . S
C3307 C3312 1.363 . S
C3308 H3285 0.950 . S
C3308 C3307 1.397 . S
C3308 C3309 1.334 . S
C3309 H3286 0.950 . S
C3309 C3308 1.334 . S
C3309 C3310 1.287 . S
C3310 C3309 1.287 . S
C3310 C3311 1.524 . S
C3310 H3329 0.913 . S
C3311 H3287 0.950 . S
C3311 C3310 1.524 . S
C3311 C3312 1.415 . S
C3312 H3288 0.950 . S
C3312 C3307 1.363 . S
C3312 C3311 1.415 . S
C3313 H3289 0.951 . S
C3313 C3314 1.366 . S
C3313 C3315 1.388 . S
C3314 C3313 1.366 . S
C3314 C3318 1.385 . S
C3315 H3290 0.951 . S
C3315 C3313 1.388 . S
C3315 C3316 1.366 . S
C3316 C3315 1.366 . S
C3316 C3317 1.414 . S
C3316 C3319 1.499 . S
C3317 H3291 0.950 . S
C3317 C3316 1.414 . S
C3317 C3318 1.374 . S
C3318 H3292 0.950 . S
C3318 C3314 1.385 . S
C3318 C3317 1.374 . S
C3319 C3316 1.499 . S
C3319 C3320 1.373 . S
C3319 C3321 1.389 . S
C3320 H3293 0.950 . S
C3320 C3306 1.377 . S
C3320 C3319 1.373 . S
C3321 C3305 1.377 . S
C3321 C3319 1.389 . S
C3321 C3322 1.524 1_545 S
C3322 C3321 1.524 1_565 S
C3322 C3323 1.397 . S
C3322 C3327 1.363 . S
C3323 H3294 0.950 . S
C3323 C3322 1.397 . S
C3323 C3324 1.334 . S
C3324 H3295 0.950 . S
C3324 C3323 1.334 . S
C3324 C3325 1.287 . S
C3325 C3324 1.287 . S
C3325 C3326 1.524 . S
C3325 H3328 0.999 . S
C3326 H3296 0.950 . S
C3326 C3325 1.524 . S
C3326 C3327 1.415 . S
C3327 H3297 0.950 . S
C3327 C3322 1.363 . S
C3327 C3326 1.415 . S
H3328 C3325 0.999 . S
H3329 C3310 0.913 . S
H3330 C3348 0.951 . S
H3331 C3350 0.951 . S
H3332 C3352 0.950 . S
H3333 C3353 0.950 . S
H3334 C3355 0.950 . S
H3335 C3358 0.950 . S
H3336 C3359 0.950 . S
H3337 C3361 0.950 . S
H3338 C3362 0.950 . S
H3339 C3363 0.951 . S
H3340 C3365 0.951 . S
H3341 C3367 0.950 . S
H3342 C3368 0.950 . S
H3343 C3370 0.950 . S
H3344 C3373 0.950 . S
H3345 C3374 0.950 . S
H3346 C3376 0.950 . S
H3347 C3377 0.950 . S
C3348 H3330 0.951 . S
C3348 C3349 1.366 . S
C3348 C3350 1.388 . S
C3349 C3348 1.366 . S
C3349 C3353 1.385 . S
C3350 H3331 0.951 . S
C3350 C3348 1.388 . S
C3350 C3351 1.366 . S
C3351 C3350 1.366 . S
C3351 C3352 1.414 . S
C3351 C3354 1.499 . S
C3352 H3332 0.950 . S
C3352 C3351 1.414 . S
C3352 C3353 1.374 . S
C3353 H3333 0.950 . S
C3353 C3349 1.385 . S
C3353 C3352 1.374 . S
C3354 C3351 1.499 . S
C3354 C3355 1.373 . S
C3354 C3356 1.389 . S
C3355 H3334 0.950 . S
C3355 C3354 1.373 . S
C3355 C3371 1.377 . S
C3356 C3354 1.389 . S
C3356 C3357 1.524 . S
C3356 C3370 1.377 . S
C3357 C3356 1.524 . S
C3357 C3358 1.397 . S
C3357 C3362 1.363 . S
C3358 H3335 0.950 . S
C3358 C3357 1.397 . S
C3358 C3359 1.334 . S
C3359 H3336 0.950 . S
C3359 C3358 1.334 . S
C3359 C3360 1.287 . S
C3360 C3359 1.287 . S
C3360 C3361 1.524 . S
C3360 H3379 0.913 . S
C3361 H3337 0.950 . S
C3361 C3360 1.524 . S
C3361 C3362 1.415 . S
C3362 H3338 0.950 . S
C3362 C3357 1.363 . S
C3362 C3361 1.415 . S
C3363 H3339 0.951 . S
C3363 C3364 1.366 . S
C3363 C3365 1.388 . S
C3364 C3363 1.366 . S
C3364 C3368 1.385 . S
C3365 H3340 0.951 . S
C3365 C3363 1.388 . S
C3365 C3366 1.366 . S
C3366 C3365 1.366 . S
C3366 C3367 1.414 . S
C3366 C3369 1.499 . S
C3367 H3341 0.950 . S
C3367 C3366 1.414 . S
C3367 C3368 1.374 . S
C3368 H3342 0.950 . S
C3368 C3364 1.385 . S
C3368 C3367 1.374 . S
C3369 C3366 1.499 . S
C3369 C3370 1.373 . S
C3369 C3371 1.389 . S
C3370 H3343 0.950 . S
C3370 C3356 1.377 . S
C3370 C3369 1.373 . S
C3371 C3355 1.377 . S
C3371 C3369 1.389 . S
C3371 C3372 1.524 . S
C3372 C3371 1.524 . S
C3372 C3373 1.397 . S
C3372 C3377 1.363 . S
C3373 H3344 0.950 . S
C3373 C3372 1.397 . S
C3373 C3374 1.334 . S
C3374 H3345 0.950 . S
C3374 C3373 1.334 . S
C3374 C3375 1.287 . S
C3375 C3374 1.287 . S
C3375 C3376 1.524 . S
C3375 H3378 0.999 . S
C3376 H3346 0.950 . S
C3376 C3375 1.524 . S
C3376 C3377 1.415 . S
C3377 H3347 0.950 . S
C3377 C3372 1.363 . S
C3377 C3376 1.415 . S
H3378 C3375 0.999 . S
H3379 C3360 0.913 . S
H3380 C3398 0.951 . S
H3381 C3400 0.951 . S
H3382 C3402 0.950 . S
H3383 C3403 0.950 . S
H3384 C3405 0.950 . S
H3385 C3408 0.950 . S
H3386 C3409 0.950 . S
H3387 C3411 0.950 . S
H3388 C3412 0.950 . S
H3389 C3413 0.951 . S
H3390 C3415 0.951 . S
H3391 C3417 0.950 . S
H3392 C3418 0.950 . S
H3393 C3420 0.950 1_565 S
H3394 C3423 0.950 . S
H3395 C3424 0.950 . S
H3396 C3426 0.950 . S
H3397 C3427 0.950 . S
C3398 H3380 0.951 . S
C3398 C3399 1.366 . S
C3398 C3400 1.388 . S
C3399 C3398 1.366 . S
C3399 C3403 1.385 . S
C3400 H3381 0.951 . S
C3400 C3398 1.388 . S
C3400 C3401 1.366 . S
C3401 C3400 1.366 . S
C3401 C3402 1.414 . S
C3401 C3404 1.499 . S
C3402 H3382 0.950 . S
C3402 C3401 1.414 . S
C3402 C3403 1.374 . S
C3403 H3383 0.950 . S
C3403 C3399 1.385 . S
C3403 C3402 1.374 . S
C3404 C3401 1.499 . S
C3404 C3405 1.373 . S
C3404 C3406 1.389 . S
C3405 H3384 0.950 . S
C3405 C3404 1.373 . S
C3405 C3421 1.377 . S
C3406 C3404 1.389 . S
C3406 C3407 1.524 1_545 S
C3406 C3420 1.377 . S
C3407 C3406 1.524 1_565 S
C3407 C3408 1.397 . S
C3407 C3412 1.363 . S
C3408 H3385 0.950 . S
C3408 C3407 1.397 . S
C3408 C3409 1.334 . S
C3409 H3386 0.950 . S
C3409 C3408 1.334 . S
C3409 C3410 1.287 . S
C3410 C3409 1.287 . S
C3410 C3411 1.524 . S
C3410 H3429 0.913 . S
C3411 H3387 0.950 . S
C3411 C3410 1.524 . S
C3411 C3412 1.415 . S
C3412 H3388 0.950 . S
C3412 C3407 1.363 . S
C3412 C3411 1.415 . S
C3413 H3389 0.951 . S
C3413 C3414 1.366 . S
C3413 C3415 1.388 . S
C3414 C3413 1.366 . S
C3414 C3418 1.385 . S
C3415 H3390 0.951 . S
C3415 C3413 1.388 . S
C3415 C3416 1.366 . S
C3416 C3415 1.366 . S
C3416 C3417 1.414 . S
C3416 C3419 1.499 . S
C3417 H3391 0.950 . S
C3417 C3416 1.414 . S
C3417 C3418 1.374 . S
C3418 H3392 0.950 . S
C3418 C3414 1.385 . S
C3418 C3417 1.374 . S
C3419 C3416 1.499 . S
C3419 C3420 1.373 . S
C3419 C3421 1.389 . S
C3420 H3393 0.950 1_545 S
C3420 C3406 1.377 . S
C3420 C3419 1.373 . S
C3421 C3405 1.377 . S
C3421 C3419 1.389 . S
C3421 C3422 1.524 . S
C3422 C3421 1.524 . S
C3422 C3423 1.397 . S
C3422 C3427 1.363 . S
C3423 H3394 0.950 . S
C3423 C3422 1.397 . S
C3423 C3424 1.334 . S
C3424 H3395 0.950 . S
C3424 C3423 1.334 . S
C3424 C3425 1.287 . S
C3425 C3424 1.287 . S
C3425 C3426 1.524 . S
C3425 H3428 0.999 . S
C3426 H3396 0.950 . S
C3426 C3425 1.524 . S
C3426 C3427 1.415 . S
C3427 H3397 0.950 . S
C3427 C3422 1.363 . S
C3427 C3426 1.415 . S
H3428 C3425 0.999 . S
H3429 C3410 0.913 . S
H3430 C3448 0.951 . S
H3431 C3450 0.951 . S
H3432 C3452 0.950 . S
H3433 C3453 0.950 . S
H3434 C3455 0.950 . S
H3435 C3458 0.950 . S
H3436 C3459 0.950 . S
H3437 C3461 0.950 . S
H3438 C3462 0.950 . S
H3439 C3463 0.951 . S
H3440 C3465 0.951 . S
H3441 C3467 0.950 . S
H3442 C3468 0.950 . S
H3443 C3470 0.950 . S
H3444 C3473 0.950 . S
H3445 C3474 0.950 . S
H3446 C3476 0.950 . S
H3447 C3477 0.950 . S
C3448 H3430 0.951 . S
C3448 C3449 1.366 . S
C3448 C3450 1.388 . S
C3449 C3448 1.366 . S
C3449 C3453 1.385 . S
C3450 H3431 0.951 . S
C3450 C3448 1.388 . S
C3450 C3451 1.366 . S
C3451 C3450 1.366 . S
C3451 C3452 1.414 . S
C3451 C3454 1.499 . S
C3452 H3432 0.950 . S
C3452 C3451 1.414 . S
C3452 C3453 1.374 . S
C3453 H3433 0.950 . S
C3453 C3449 1.385 . S
C3453 C3452 1.374 . S
C3454 C3451 1.499 . S
C3454 C3455 1.373 . S
C3454 C3456 1.389 . S
C3455 H3434 0.950 . S
C3455 C3454 1.373 . S
C3455 C3471 1.377 . S
C3456 C3454 1.389 . S
C3456 C3457 1.524 . S
C3456 C3470 1.377 . S
C3457 C3456 1.524 . S
C3457 C3458 1.397 . S
C3457 C3462 1.363 . S
C3458 H3435 0.950 . S
C3458 C3457 1.397 . S
C3458 C3459 1.334 . S
C3459 H3436 0.950 . S
C3459 C3458 1.334 . S
C3459 C3460 1.287 . S
C3460 C3459 1.287 . S
C3460 C3461 1.524 . S
C3460 H3479 0.913 . S
C3461 H3437 0.950 . S
C3461 C3460 1.524 . S
C3461 C3462 1.415 . S
C3462 H3438 0.950 . S
C3462 C3457 1.363 . S
C3462 C3461 1.415 . S
C3463 H3439 0.951 . S
C3463 C3464 1.366 . S
C3463 C3465 1.388 . S
C3464 C3463 1.366 . S
C3464 C3468 1.385 . S
C3465 H3440 0.951 . S
C3465 C3463 1.388 . S
C3465 C3466 1.366 . S
C3466 C3465 1.366 . S
C3466 C3467 1.414 . S
C3466 C3469 1.499 . S
C3467 H3441 0.950 . S
C3467 C3466 1.414 . S
C3467 C3468 1.374 . S
C3468 H3442 0.950 . S
C3468 C3464 1.385 . S
C3468 C3467 1.374 . S
C3469 C3466 1.499 . S
C3469 C3470 1.373 . S
C3469 C3471 1.389 . S
C3470 H3443 0.950 . S
C3470 C3456 1.377 . S
C3470 C3469 1.373 . S
C3471 C3455 1.377 . S
C3471 C3469 1.389 . S
C3471 C3472 1.524 . S
C3472 C3471 1.524 . S
C3472 C3473 1.397 . S
C3472 C3477 1.363 . S
C3473 H3444 0.950 . S
C3473 C3472 1.397 . S
C3473 C3474 1.334 . S
C3474 H3445 0.950 . S
C3474 C3473 1.334 . S
C3474 C3475 1.287 . S
C3475 C3474 1.287 . S
C3475 C3476 1.524 . S
C3475 H3478 0.999 . S
C3476 H3446 0.950 . S
C3476 C3475 1.524 . S
C3476 C3477 1.415 . S
C3477 H3447 0.950 . S
C3477 C3472 1.363 . S
C3477 C3476 1.415 . S
H3478 C3475 0.999 . S
H3479 C3460 0.913 . S
H3480 C3498 0.951 . S
H3481 C3500 0.951 . S
H3482 C3502 0.950 . S
H3483 C3503 0.950 . S
H3484 C3505 0.978 . S
H3485 C3508 0.950 . S
H3486 C3509 0.950 . S
H3487 C3511 0.950 . S
H3488 C3512 0.950 . S
H3489 C3513 0.951 . S
H3490 C3515 0.951 . S
H3491 C3517 0.950 . S
H3492 C3518 0.950 . S
H3493 C3520 0.950 . S
H3494 C3523 0.950 . S
H3495 C3524 0.950 . S
H3496 C3526 0.950 . S
H3497 C3527 0.950 . S
C3498 H3480 0.951 . S
C3498 C3499 1.366 . S
C3498 C3500 1.388 . S
C3499 C3498 1.366 . S
C3499 C3503 1.385 . S
C3500 H3481 0.951 . S
C3500 C3498 1.388 . S
C3500 C3501 1.366 . S
C3501 C3500 1.366 . S
C3501 C3502 1.414 . S
C3501 C3504 1.499 . S
C3502 H3482 0.950 . S
C3502 C3501 1.414 . S
C3502 C3503 1.374 . S
C3503 H3483 0.950 . S
C3503 C3499 1.385 . S
C3503 C3502 1.374 . S
C3504 C3501 1.499 . S
C3504 C3505 1.373 . S
C3504 C3506 1.389 . S
C3505 H3484 0.978 . S
C3505 C3504 1.373 . S
C3505 C3521 1.377 . S
C3506 C3504 1.389 . S
C3506 C3507 1.524 . S
C3506 C3520 1.377 . S
C3507 C3506 1.524 . S
C3507 C3508 1.397 . S
C3507 C3512 1.363 . S
C3508 H3485 0.950 . S
C3508 C3507 1.397 . S
C3508 C3509 1.334 . S
C3509 H3486 0.950 . S
C3509 C3508 1.334 . S
C3509 C3510 1.287 . S
C3510 C3509 1.287 . S
C3510 C3511 1.524 . S
C3510 H3529 0.913 . S
C3511 H3487 0.950 . S
C3511 C3510 1.524 . S
C3511 C3512 1.415 . S
C3512 H3488 0.950 . S
C3512 C3507 1.363 . S
C3512 C3511 1.415 . S
C3513 H3489 0.951 . S
C3513 C3514 1.366 . S
C3513 C3515 1.388 . S
C3514 C3513 1.366 . S
C3514 C3518 1.385 . S
C3515 H3490 0.951 . S
C3515 C3513 1.388 . S
C3515 C3516 1.366 . S
C3516 C3515 1.366 . S
C3516 C3517 1.414 . S
C3516 C3519 1.499 . S
C3517 H3491 0.950 . S
C3517 C3516 1.414 . S
C3517 C3518 1.374 . S
C3518 H3492 0.950 . S
C3518 C3514 1.385 . S
C3518 C3517 1.374 . S
C3519 C3516 1.499 . S
C3519 C3520 1.373 . S
C3519 C3521 1.389 . S
C3520 H3493 0.950 . S
C3520 C3506 1.377 . S
C3520 C3519 1.373 . S
C3521 C3505 1.377 . S
C3521 C3519 1.389 . S
C3521 C3522 1.524 1_545 S
C3522 C3521 1.524 1_565 S
C3522 C3523 1.397 . S
C3522 C3527 1.363 . S
C3523 H3494 0.950 . S
C3523 C3522 1.397 . S
C3523 C3524 1.334 . S
C3524 H3495 0.950 . S
C3524 C3523 1.334 . S
C3524 C3525 1.287 . S
C3525 C3524 1.287 . S
C3525 C3526 1.524 . S
C3525 H3528 0.999 . S
C3526 H3496 0.950 . S
C3526 C3525 1.524 . S
C3526 C3527 1.415 . S
C3527 H3497 0.950 . S
C3527 C3522 1.363 . S
C3527 C3526 1.415 . S
H3528 C3525 0.999 . S
H3529 C3510 0.913 . S
H3530 C3548 0.951 . S
H3531 C3550 0.951 . S
H3532 C3552 0.950 . S
H3533 C3553 0.950 . S
H3534 C3555 0.950 . S
H3535 C3558 0.950 . S
H3536 C3559 0.950 . S
H3537 C3561 0.950 . S
H3538 C3562 0.950 . S
H3539 C3563 0.951 . S
H3540 C3565 0.951 . S
H3541 C3567 0.950 . S
H3542 C3568 0.950 . S
H3543 C3570 0.950 . S
H3544 C3573 0.950 . S
H3545 C3574 0.950 . S
H3546 C3576 0.950 . S
H3547 C3577 0.950 . S
C3548 H3530 0.951 . S
C3548 C3549 1.366 . S
C3548 C3550 1.388 . S
C3549 C3548 1.366 . S
C3549 C3553 1.385 . S
C3550 H3531 0.951 . S
C3550 C3548 1.388 . S
C3550 C3551 1.366 . S
C3551 C3550 1.366 . S
C3551 C3552 1.414 . S
C3551 C3554 1.499 . S
C3552 H3532 0.950 . S
C3552 C3551 1.414 . S
C3552 C3553 1.374 . S
C3553 H3533 0.950 . S
C3553 C3549 1.385 . S
C3553 C3552 1.374 . S
C3554 C3551 1.499 . S
C3554 C3555 1.373 . S
C3554 C3556 1.389 . S
C3555 H3534 0.950 . S
C3555 C3554 1.373 . S
C3555 C3571 1.377 . S
C3556 C3554 1.389 . S
C3556 C3557 1.524 . S
C3556 C3570 1.377 . S
C3557 C3556 1.524 . S
C3557 C3558 1.397 . S
C3557 C3562 1.363 . S
C3558 H3535 0.950 . S
C3558 C3557 1.397 . S
C3558 C3559 1.334 . S
C3559 H3536 0.950 . S
C3559 C3558 1.334 . S
C3559 C3560 1.287 . S
C3560 C3559 1.287 . S
C3560 C3561 1.524 . S
C3560 H3579 0.913 . S
C3561 H3537 0.950 . S
C3561 C3560 1.524 . S
C3561 C3562 1.415 . S
C3562 H3538 0.950 . S
C3562 C3557 1.363 . S
C3562 C3561 1.415 . S
C3563 H3539 0.951 . S
C3563 C3564 1.366 . S
C3563 C3565 1.388 . S
C3564 C3563 1.366 . S
C3564 C3568 1.385 . S
C3565 H3540 0.951 . S
C3565 C3563 1.388 . S
C3565 C3566 1.366 . S
C3566 C3565 1.366 . S
C3566 C3567 1.414 . S
C3566 C3569 1.499 . S
C3567 H3541 0.950 . S
C3567 C3566 1.414 . S
C3567 C3568 1.374 . S
C3568 H3542 0.950 . S
C3568 C3564 1.385 . S
C3568 C3567 1.374 . S
C3569 C3566 1.499 . S
C3569 C3570 1.373 . S
C3569 C3571 1.389 . S
C3570 H3543 0.950 . S
C3570 C3556 1.377 . S
C3570 C3569 1.373 . S
C3571 C3555 1.377 . S
C3571 C3569 1.389 . S
C3571 C3572 1.524 . S
C3572 C3571 1.524 . S
C3572 C3573 1.397 . S
C3572 C3577 1.363 . S
C3573 H3544 0.950 . S
C3573 C3572 1.397 . S
C3573 C3574 1.334 . S
C3574 H3545 0.950 . S
C3574 C3573 1.334 . S
C3574 C3575 1.287 . S
C3575 C3574 1.287 . S
C3575 C3576 1.524 . S
C3575 H3578 0.999 . S
C3576 H3546 0.950 . S
C3576 C3575 1.524 . S
C3576 C3577 1.415 . S
C3577 H3547 0.950 . S
C3577 C3572 1.363 . S
C3577 C3576 1.415 . S
H3578 C3575 0.999 . S
H3579 C3560 0.913 . S
H3580 C3598 0.951 . S
H3581 C3600 0.951 . S
H3582 C3602 0.950 . S
H3583 C3603 0.950 . S
H3584 C3605 0.950 . S
H3585 C3608 0.950 . S
H3586 C3609 0.950 . S
H3587 C3611 0.950 . S
H3588 C3612 0.950 . S
H3589 C3613 0.951 . S
H3590 C3615 0.951 . S
H3591 C3617 0.950 . S
H3592 C3618 0.950 . S
H3593 C3620 0.950 . S
H3594 C3623 0.950 . S
H3595 C3624 0.950 . S
H3596 C3626 0.950 . S
H3597 C3627 0.950 . S
C3598 H3580 0.951 . S
C3598 C3599 1.366 . S
C3598 C3600 1.388 . S
C3599 C3598 1.366 . S
C3599 C3603 1.385 1_545 S
C3600 H3581 0.951 . S
C3600 C3598 1.388 . S
C3600 C3601 1.366 . S
C3601 C3600 1.366 . S
C3601 C3602 1.414 1_545 S
C3601 C3604 1.499 . S
C3602 H3582 0.950 . S
C3602 C3601 1.414 1_565 S
C3602 C3603 1.374 . S
C3603 H3583 0.950 . S
C3603 C3599 1.385 1_565 S
C3603 C3602 1.374 . S
C3604 C3601 1.499 . S
C3604 C3605 1.373 1_545 S
C3604 C3606 1.389 . S
C3605 H3584 0.950 . S
C3605 C3604 1.373 1_565 S
C3605 C3621 1.377 . S
C3606 C3604 1.389 . S
C3606 C3607 1.524 . S
C3606 C3620 1.377 . S
C3607 C3606 1.524 . S
C3607 C3608 1.397 . S
C3607 C3612 1.363 . S
C3608 H3585 0.950 . S
C3608 C3607 1.397 . S
C3608 C3609 1.334 . S
C3609 H3586 0.950 . S
C3609 C3608 1.334 . S
C3609 C3610 1.287 . S
C3610 C3609 1.287 . S
C3610 C3611 1.524 . S
C3610 H3629 0.913 . S
C3611 H3587 0.950 . S
C3611 C3610 1.524 . S
C3611 C3612 1.415 . S
C3612 H3588 0.950 . S
C3612 C3607 1.363 . S
C3612 C3611 1.415 . S
C3613 H3589 0.951 . S
C3613 C3614 1.366 1_565 S
C3613 C3615 1.388 . S
C3614 C3613 1.366 1_545 S
C3614 C3618 1.385 . S
C3615 H3590 0.951 . S
C3615 C3613 1.388 . S
C3615 C3616 1.366 1_565 S
C3616 C3615 1.366 1_545 S
C3616 C3617 1.414 . S
C3616 C3619 1.499 . S
C3617 H3591 0.950 . S
C3617 C3616 1.414 . S
C3617 C3618 1.374 . S
C3618 H3592 0.950 . S
C3618 C3614 1.385 . S
C3618 C3617 1.374 . S
C3619 C3616 1.499 . S
C3619 C3620 1.373 . S
C3619 C3621 1.389 1_545 S
C3620 H3593 0.950 . S
C3620 C3606 1.377 . S
C3620 C3619 1.373 . S
C3621 C3605 1.377 . S
C3621 C3619 1.389 1_565 S
C3621 C3622 1.524 . S
C3622 C3621 1.524 . S
C3622 C3623 1.397 . S
C3622 C3627 1.363 . S
C3623 H3594 0.950 . S
C3623 C3622 1.397 . S
C3623 C3624 1.334 . S
C3624 H3595 0.950 . S
C3624 C3623 1.334 . S
C3624 C3625 1.287 . S
C3625 C3624 1.287 . S
C3625 C3626 1.524 . S
C3625 H3628 0.999 . S
C3626 H3596 0.950 . S
C3626 C3625 1.524 . S
C3626 C3627 1.415 . S
C3627 H3597 0.950 . S
C3627 C3622 1.363 . S
C3627 C3626 1.415 . S
H3628 C3625 0.999 . S
H3629 C3610 0.913 . S
H3630 C3648 0.951 . S
H3631 C3650 0.951 . S
H3632 C3652 0.950 . S
H3633 C3653 0.950 . S
H3634 C3655 0.950 . S
H3635 C3658 0.950 . S
H3636 C3659 0.950 . S
H3637 C3661 0.950 . S
H3638 C3662 0.950 . S
H3639 C3663 0.951 . S
H3640 C3665 0.951 . S
H3641 C3667 0.950 . S
H3642 C3668 0.950 . S
H3643 C3670 0.950 . S
H3644 C3673 0.950 . S
H3645 C3674 0.950 . S
H3646 C3676 0.950 . S
H3647 C3677 0.950 . S
C3648 H3630 0.951 . S
C3648 C3649 1.366 . S
C3648 C3650 1.388 . S
C3649 C3648 1.366 . S
C3649 C3653 1.385 . S
C3650 H3631 0.951 . S
C3650 C3648 1.388 . S
C3650 C3651 1.366 . S
C3651 C3650 1.366 . S
C3651 C3652 1.414 . S
C3651 C3654 1.499 . S
C3652 H3632 0.950 . S
C3652 C3651 1.414 . S
C3652 C3653 1.374 . S
C3653 H3633 0.950 . S
C3653 C3649 1.385 . S
C3653 C3652 1.374 . S
C3654 C3651 1.499 . S
C3654 C3655 1.373 . S
C3654 C3656 1.389 . S
C3655 H3634 0.950 . S
C3655 C3654 1.373 . S
C3655 C3671 1.377 . S
C3656 C3654 1.389 . S
C3656 C3657 1.524 . S
C3656 C3670 1.377 . S
C3657 C3656 1.524 . S
C3657 C3658 1.397 . S
C3657 C3662 1.363 . S
C3658 H3635 0.950 . S
C3658 C3657 1.397 . S
C3658 C3659 1.334 . S
C3659 H3636 0.950 . S
C3659 C3658 1.334 . S
C3659 C3660 1.287 . S
C3660 C3659 1.287 . S
C3660 C3661 1.524 . S
C3660 H3679 0.913 . S
C3661 H3637 0.950 . S
C3661 C3660 1.524 . S
C3661 C3662 1.415 . S
C3662 H3638 0.950 . S
C3662 C3657 1.363 . S
C3662 C3661 1.415 . S
C3663 H3639 0.951 . S
C3663 C3664 1.366 . S
C3663 C3665 1.388 . S
C3664 C3663 1.366 . S
C3664 C3668 1.385 . S
C3665 H3640 0.951 . S
C3665 C3663 1.388 . S
C3665 C3666 1.366 . S
C3666 C3665 1.366 . S
C3666 C3667 1.414 . S
C3666 C3669 1.499 . S
C3667 H3641 0.950 . S
C3667 C3666 1.414 . S
C3667 C3668 1.374 . S
C3668 H3642 0.950 . S
C3668 C3664 1.385 . S
C3668 C3667 1.374 . S
C3669 C3666 1.499 . S
C3669 C3670 1.373 . S
C3669 C3671 1.389 . S
C3670 H3643 0.950 . S
C3670 C3656 1.377 . S
C3670 C3669 1.373 . S
C3671 C3655 1.377 . S
C3671 C3669 1.389 . S
C3671 C3672 1.524 . S
C3672 C3671 1.524 . S
C3672 C3673 1.397 . S
C3672 C3677 1.363 . S
C3673 H3644 0.950 . S
C3673 C3672 1.397 . S
C3673 C3674 1.334 . S
C3674 H3645 0.950 . S
C3674 C3673 1.334 . S
C3674 C3675 1.287 . S
C3675 C3674 1.287 . S
C3675 C3676 1.524 . S
C3675 H3678 0.999 . S
C3676 H3646 0.950 . S
C3676 C3675 1.524 . S
C3676 C3677 1.415 . S
C3677 H3647 0.950 . S
C3677 C3672 1.363 . S
C3677 C3676 1.415 . S
H3678 C3675 0.999 . S
H3679 C3660 0.913 . S
H3680 C3698 0.951 . S
H3681 C3700 0.951 . S
H3682 C3702 0.950 . S
H3683 C3703 0.950 . S
H3684 C3705 0.950 . S
H3685 C3708 0.950 . S
H3686 C3709 0.950 . S
H3687 C3711 0.950 . S
H3688 C3712 0.950 . S
H3689 C3713 0.951 . S
H3690 C3715 0.951 . S
H3691 C3717 0.950 . S
H3692 C3718 0.950 . S
H3693 C3720 0.949 . S
H3694 C3723 0.950 . S
H3695 C3724 0.950 . S
H3696 C3726 0.950 . S
H3697 C3727 0.950 . S
C3698 H3680 0.951 . S
C3698 C3699 1.366 . S
C3698 C3700 1.388 . S
C3699 C3698 1.366 . S
C3699 C3703 1.385 . S
C3700 H3681 0.951 . S
C3700 C3698 1.388 . S
C3700 C3701 1.366 . S
C3701 C3700 1.366 . S
C3701 C3702 1.414 . S
C3701 C3704 1.499 . S
C3702 H3682 0.950 . S
C3702 C3701 1.414 . S
C3702 C3703 1.374 . S
C3703 H3683 0.950 . S
C3703 C3699 1.385 . S
C3703 C3702 1.374 . S
C3704 C3701 1.499 . S
C3704 C3705 1.373 . S
C3704 C3706 1.389 . S
C3705 H3684 0.950 . S
C3705 C3704 1.373 . S
C3705 C3721 1.377 . S
C3706 C3704 1.389 . S
C3706 C3707 1.524 . S
C3706 C3720 1.377 . S
C3707 C3706 1.524 . S
C3707 C3708 1.397 . S
C3707 C3712 1.363 1_554 S
C3708 H3685 0.950 . S
C3708 C3707 1.397 . S
C3708 C3709 1.334 . S
C3709 H3686 0.950 . S
C3709 C3708 1.334 . S
C3709 C3710 1.287 1_554 S
C3710 C3709 1.287 1_556 S
C3710 C3711 1.524 . S
C3710 H3729 0.913 . S
C3711 H3687 0.950 . S
C3711 C3710 1.524 . S
C3711 C3712 1.415 . S
C3712 H3688 0.950 . S
C3712 C3707 1.363 1_556 S
C3712 C3711 1.415 . S
C3713 H3689 0.951 . S
C3713 C3714 1.366 . S
C3713 C3715 1.388 . S
C3714 C3713 1.366 . S
C3714 C3718 1.385 1_554 S
C3715 H3690 0.951 . S
C3715 C3713 1.388 . S
C3715 C3716 1.366 . S
C3716 C3715 1.366 . S
C3716 C3717 1.414 1_554 S
C3716 C3719 1.499 . S
C3717 H3691 0.950 . S
C3717 C3716 1.414 1_556 S
C3717 C3718 1.374 . S
C3718 H3692 0.950 . S
C3718 C3714 1.385 1_556 S
C3718 C3717 1.374 . S
C3719 C3716 1.499 . S
C3719 C3720 1.373 . S
C3719 C3721 1.389 . S
C3720 H3693 0.949 . S
C3720 C3706 1.377 . S
C3720 C3719 1.373 . S
C3721 C3705 1.377 . S
C3721 C3719 1.389 . S
C3721 C3722 1.524 . S
C3722 C3721 1.524 . S
C3722 C3723 1.397 . S
C3722 C3727 1.363 . S
C3723 H3694 0.950 . S
C3723 C3722 1.397 . S
C3723 C3724 1.334 . S
C3724 H3695 0.950 . S
C3724 C3723 1.334 . S
C3724 C3725 1.287 . S
C3725 C3724 1.287 . S
C3725 C3726 1.524 . S
C3725 H3728 0.999 . S
C3726 H3696 0.950 . S
C3726 C3725 1.524 . S
C3726 C3727 1.415 . S
C3727 H3697 0.950 . S
C3727 C3722 1.363 . S
C3727 C3726 1.415 . S
H3728 C3725 0.999 . S
H3729 C3710 0.913 . S
H3730 C3748 0.951 . S
H3731 C3750 0.951 . S
H3732 C3752 0.950 . S
H3733 C3753 0.950 . S
H3734 C3755 0.950 . S
H3735 C3758 0.950 . S
H3736 C3759 0.950 . S
H3737 C3761 0.950 . S
H3738 C3762 0.950 1_556 S
H3739 C3763 0.951 . S
H3740 C3765 0.951 . S
H3741 C3767 0.955 1_556 S
H3742 C3768 0.950 1_556 S
H3743 C3770 0.950 . S
H3744 C3773 0.950 . S
H3745 C3774 0.950 . S
H3746 C3776 0.950 . S
H3747 C3777 0.950 . S
C3748 H3730 0.951 . S
C3748 C3749 1.366 . S
C3748 C3750 1.388 . S
C3749 C3748 1.366 . S
C3749 C3753 1.385 . S
C3750 H3731 0.951 . S
C3750 C3748 1.388 . S
C3750 C3751 1.366 . S
C3751 C3750 1.366 . S
C3751 C3752 1.414 . S
C3751 C3754 1.499 . S
C3752 H3732 0.950 . S
C3752 C3751 1.414 . S
C3752 C3753 1.374 . S
C3753 H3733 0.950 . S
C3753 C3749 1.385 . S
C3753 C3752 1.374 . S
C3754 C3751 1.499 . S
C3754 C3755 1.373 . S
C3754 C3756 1.389 . S
C3755 H3734 0.950 . S
C3755 C3754 1.373 . S
C3755 C3771 1.377 . S
C3756 C3754 1.389 . S
C3756 C3757 1.524 . S
C3756 C3770 1.377 . S
C3757 C3756 1.524 . S
C3757 C3758 1.397 . S
C3757 C3762 1.363 . S
C3758 H3735 0.950 . S
C3758 C3757 1.397 . S
C3758 C3759 1.334 . S
C3759 H3736 0.950 . S
C3759 C3758 1.334 . S
C3759 C3760 1.287 . S
C3760 C3759 1.287 . S
C3760 C3761 1.524 1_554 S
C3760 H3779 0.913 . S
C3761 H3737 0.950 . S
C3761 C3760 1.524 1_556 S
C3761 C3762 1.415 1_556 S
C3762 H3738 0.950 1_554 S
C3762 C3757 1.363 . S
C3762 C3761 1.415 1_554 S
C3763 H3739 0.951 . S
C3763 C3764 1.366 . S
C3763 C3765 1.388 . S
C3764 C3763 1.366 . S
C3764 C3768 1.385 . S
C3765 H3740 0.951 . S
C3765 C3763 1.388 . S
C3765 C3766 1.366 . S
C3766 C3765 1.366 . S
C3766 C3767 1.414 . S
C3766 C3769 1.499 . S
C3767 H3741 0.955 1_554 S
C3767 C3766 1.414 . S
C3767 C3768 1.374 . S
C3768 H3742 0.950 1_554 S
C3768 C3764 1.385 . S
C3768 C3767 1.374 . S
C3769 C3766 1.499 . S
C3769 C3770 1.373 . S
C3769 C3771 1.389 . S
C3770 H3743 0.950 . S
C3770 C3756 1.377 . S
C3770 C3769 1.373 . S
C3771 C3755 1.377 . S
C3771 C3769 1.389 . S
C3771 C3772 1.524 . S
C3772 C3771 1.524 . S
C3772 C3773 1.397 . S
C3772 C3777 1.363 . S
C3773 H3744 0.950 . S
C3773 C3772 1.397 . S
C3773 C3774 1.334 . S
C3774 H3745 0.950 . S
C3774 C3773 1.334 . S
C3774 C3775 1.287 . S
C3775 C3774 1.287 . S
C3775 C3776 1.524 . S
C3775 H3778 0.999 . S
C3776 H3746 0.950 . S
C3776 C3775 1.524 . S
C3776 C3777 1.415 . S
C3777 H3747 0.950 . S
C3777 C3772 1.363 . S
C3777 C3776 1.415 . S
H3778 C3775 0.999 . S
H3779 C3760 0.913 . S
H3780 C3798 0.951 . S
H3781 C3800 0.951 . S
H3782 C3802 0.950 . S
H3783 C3803 0.950 . S
H3784 C3805 0.950 . S
H3785 C3808 0.950 . S
H3786 C3809 0.950 . S
H3787 C3811 0.950 . S
H3788 C3812 0.950 . S
H3789 C3813 0.951 . S
H3790 C3815 0.951 . S
H3791 C3817 0.950 . S
H3792 C3818 0.950 . S
H3793 C3820 0.950 . S
H3794 C3823 0.950 . S
H3795 C3824 0.950 . S
H3796 C3826 0.950 . S
H3797 C3827 0.950 . S
C3798 H3780 0.951 . S
C3798 C3799 1.366 . S
C3798 C3800 1.388 . S
C3799 C3798 1.366 . S
C3799 C3803 1.385 . S
C3800 H3781 0.951 . S
C3800 C3798 1.388 . S
C3800 C3801 1.366 . S
C3801 C3800 1.366 . S
C3801 C3802 1.414 . S
C3801 C3804 1.499 . S
C3802 H3782 0.950 . S
C3802 C3801 1.414 . S
C3802 C3803 1.374 . S
C3803 H3783 0.950 . S
C3803 C3799 1.385 . S
C3803 C3802 1.374 . S
C3804 C3801 1.499 . S
C3804 C3805 1.373 . S
C3804 C3806 1.389 . S
C3805 H3784 0.950 . S
C3805 C3804 1.373 . S
C3805 C3821 1.377 . S
C3806 C3804 1.389 . S
C3806 C3807 1.524 . S
C3806 C3820 1.377 . S
C3807 C3806 1.524 . S
C3807 C3808 1.397 . S
C3807 C3812 1.363 . S
C3808 H3785 0.950 . S
C3808 C3807 1.397 . S
C3808 C3809 1.334 . S
C3809 H3786 0.950 . S
C3809 C3808 1.334 . S
C3809 C3810 1.287 . S
C3810 C3809 1.287 . S
C3810 C3811 1.524 . S
C3810 H3829 0.913 . S
C3811 H3787 0.950 . S
C3811 C3810 1.524 . S
C3811 C3812 1.415 . S
C3812 H3788 0.950 . S
C3812 C3807 1.363 . S
C3812 C3811 1.415 . S
C3813 H3789 0.951 . S
C3813 C3814 1.366 . S
C3813 C3815 1.388 . S
C3814 C3813 1.366 . S
C3814 C3818 1.385 . S
C3815 H3790 0.951 . S
C3815 C3813 1.388 . S
C3815 C3816 1.366 . S
C3816 C3815 1.366 . S
C3816 C3817 1.414 . S
C3816 C3819 1.499 . S
C3817 H3791 0.950 . S
C3817 C3816 1.414 . S
C3817 C3818 1.374 . S
C3818 H3792 0.950 . S
C3818 C3814 1.385 . S
C3818 C3817 1.374 . S
C3819 C3816 1.499 . S
C3819 C3820 1.373 . S
C3819 C3821 1.389 . S
C3820 H3793 0.950 . S
C3820 C3806 1.377 . S
C3820 C3819 1.373 . S
C3821 C3805 1.377 . S
C3821 C3819 1.389 . S
C3821 C3822 1.524 . S
C3822 C3821 1.524 . S
C3822 C3823 1.397 . S
C3822 C3827 1.363 . S
C3823 H3794 0.950 . S
C3823 C3822 1.397 . S
C3823 C3824 1.334 . S
C3824 H3795 0.950 . S
C3824 C3823 1.334 . S
C3824 C3825 1.287 . S
C3825 C3824 1.287 . S
C3825 C3826 1.524 . S
C3825 H3828 0.999 . S
C3826 H3796 0.950 . S
C3826 C3825 1.524 . S
C3826 C3827 1.415 . S
C3827 H3797 0.950 . S
C3827 C3822 1.363 . S
C3827 C3826 1.415 . S
H3828 C3825 0.999 . S
H3829 C3810 0.913 . S
H3830 C3848 0.951 . S
H3831 C3850 0.951 . S
H3832 C3852 0.950 . S
H3833 C3853 0.950 . S
H3834 C3855 0.950 . S
H3835 C3858 0.950 . S
H3836 C3859 0.950 . S
H3837 C3861 0.950 . S
H3838 C3862 0.950 . S
H3839 C3863 0.951 . S
H3840 C3865 0.951 . S
H3841 C3867 0.950 . S
H3842 C3868 0.950 . S
H3843 C3870 0.950 . S
H3844 C3873 0.950 . S
H3845 C3874 0.950 . S
H3846 C3876 0.950 . S
H3847 C3877 0.950 . S
C3848 H3830 0.951 . S
C3848 C3849 1.366 . S
C3848 C3850 1.388 . S
C3849 C3848 1.366 . S
C3849 C3853 1.385 . S
C3850 H3831 0.951 . S
C3850 C3848 1.388 . S
C3850 C3851 1.366 . S
C3851 C3850 1.366 . S
C3851 C3852 1.414 . S
C3851 C3854 1.499 . S
C3852 H3832 0.950 . S
C3852 C3851 1.414 . S
C3852 C3853 1.374 . S
C3853 H3833 0.950 . S
C3853 C3849 1.385 . S
C3853 C3852 1.374 . S
C3854 C3851 1.499 . S
C3854 C3855 1.373 . S
C3854 C3856 1.389 . S
C3855 H3834 0.950 . S
C3855 C3854 1.373 . S
C3855 C3871 1.377 . S
C3856 C3854 1.389 . S
C3856 C3857 1.524 . S
C3856 C3870 1.377 . S
C3857 C3856 1.524 . S
C3857 C3858 1.397 . S
C3857 C3862 1.363 . S
C3858 H3835 0.950 . S
C3858 C3857 1.397 . S
C3858 C3859 1.334 . S
C3859 H3836 0.950 . S
C3859 C3858 1.334 . S
C3859 C3860 1.287 . S
C3860 C3859 1.287 . S
C3860 C3861 1.524 . S
C3860 H3879 0.913 . S
C3861 H3837 0.950 . S
C3861 C3860 1.524 . S
C3861 C3862 1.415 . S
C3862 H3838 0.950 . S
C3862 C3857 1.363 . S
C3862 C3861 1.415 . S
C3863 H3839 0.951 . S
C3863 C3864 1.366 . S
C3863 C3865 1.388 . S
C3864 C3863 1.366 . S
C3864 C3868 1.385 . S
C3865 H3840 0.951 . S
C3865 C3863 1.388 . S
C3865 C3866 1.366 . S
C3866 C3865 1.366 . S
C3866 C3867 1.414 . S
C3866 C3869 1.499 . S
C3867 H3841 0.950 . S
C3867 C3866 1.414 . S
C3867 C3868 1.374 . S
C3868 H3842 0.950 . S
C3868 C3864 1.385 . S
C3868 C3867 1.374 . S
C3869 C3866 1.499 . S
C3869 C3870 1.373 . S
C3869 C3871 1.389 . S
C3870 H3843 0.950 . S
C3870 C3856 1.377 . S
C3870 C3869 1.373 . S
C3871 C3855 1.377 . S
C3871 C3869 1.389 . S
C3871 C3872 1.524 . S
C3872 C3871 1.524 . S
C3872 C3873 1.397 . S
C3872 C3877 1.363 . S
C3873 H3844 0.950 . S
C3873 C3872 1.397 . S
C3873 C3874 1.334 . S
C3874 H3845 0.950 . S
C3874 C3873 1.334 . S
C3874 C3875 1.287 . S
C3875 C3874 1.287 . S
C3875 C3876 1.524 . S
C3875 H3878 0.999 . S
C3876 H3846 0.950 . S
C3876 C3875 1.524 . S
C3876 C3877 1.415 . S
C3877 H3847 0.950 . S
C3877 C3872 1.363 . S
C3877 C3876 1.415 . S
H3878 C3875 0.999 . S
H3879 C3860 0.913 . S
H3880 C3898 0.951 . S
H3881 C3900 0.951 . S
H3882 C3902 0.950 . S
H3883 C3903 0.950 . S
H3884 C3905 0.950 . S
H3885 C3908 0.950 . S
H3886 C3909 0.938 1_545 S
H3887 C3911 0.936 1_545 S
H3888 C3912 0.950 . S
H3889 C3913 0.951 . S
H3890 C3915 0.951 . S
H3891 C3917 0.950 . S
H3892 C3918 0.950 . S
H3893 C3920 0.950 . S
H3894 C3923 0.950 . S
H3895 C3924 0.950 . S
H3896 C3926 0.950 . S
H3897 C3927 0.950 . S
C3898 H3880 0.951 . S
C3898 C3899 1.366 . S
C3898 C3900 1.388 1_545 S
C3899 C3898 1.366 . S
C3899 C3903 1.385 1_545 S
C3900 H3881 0.951 . S
C3900 C3898 1.388 1_565 S
C3900 C3901 1.366 . S
C3901 C3900 1.366 . S
C3901 C3902 1.414 . S
C3901 C3904 1.499 . S
C3902 H3882 0.950 . S
C3902 C3901 1.414 . S
C3902 C3903 1.374 . S
C3903 H3883 0.950 . S
C3903 C3899 1.385 1_565 S
C3903 C3902 1.374 . S
C3904 C3901 1.499 . S
C3904 C3905 1.373 . S
C3904 C3906 1.389 . S
C3905 H3884 0.950 . S
C3905 C3904 1.373 . S
C3905 C3921 1.377 . S
C3906 C3904 1.389 . S
C3906 C3907 1.524 . S
C3906 C3920 1.377 . S
C3907 C3906 1.524 . S
C3907 C3908 1.397 . S
C3907 C3912 1.363 . S
C3908 H3885 0.950 . S
C3908 C3907 1.397 . S
C3908 C3909 1.334 . S
C3909 H3886 0.938 1_565 S
C3909 C3908 1.334 . S
C3909 C3910 1.287 1_565 S
C3910 C3909 1.287 1_545 S
C3910 C3911 1.502 1_545 S
C3910 H3929 0.913 . S
C3911 H3887 0.936 1_565 S
C3911 C3910 1.502 1_565 S
C3911 C3912 1.457 . S
C3912 H3888 0.950 . S
C3912 C3907 1.363 . S
C3912 C3911 1.457 . S
C3913 H3889 0.951 . S
C3913 C3914 1.366 . S
C3913 C3915 1.388 . S
C3914 C3913 1.366 . S
C3914 C3918 1.385 . S
C3915 H3890 0.951 . S
C3915 C3913 1.388 . S
C3915 C3916 1.366 . S
C3916 C3915 1.366 . S
C3916 C3917 1.414 . S
C3916 C3919 1.499 . S
C3917 H3891 0.950 . S
C3917 C3916 1.414 . S
C3917 C3918 1.374 . S
C3918 H3892 0.950 . S
C3918 C3914 1.385 . S
C3918 C3917 1.374 . S
C3919 C3916 1.499 . S
C3919 C3920 1.373 . S
C3919 C3921 1.389 . S
C3920 H3893 0.950 . S
C3920 C3906 1.377 . S
C3920 C3919 1.373 . S
C3921 C3905 1.377 . S
C3921 C3919 1.389 . S
C3921 C3922 1.524 . S
C3922 C3921 1.524 . S
C3922 C3923 1.397 . S
C3922 C3927 1.363 . S
C3923 H3894 0.950 . S
C3923 C3922 1.397 . S
C3923 C3924 1.334 . S
C3924 H3895 0.950 . S
C3924 C3923 1.334 . S
C3924 C3925 1.287 . S
C3925 C3924 1.287 . S
C3925 C3926 1.524 . S
C3925 H3928 0.999 . S
C3926 H3896 0.950 . S
C3926 C3925 1.524 . S
C3926 C3927 1.415 . S
C3927 H3897 0.950 . S
C3927 C3922 1.363 . S
C3927 C3926 1.415 . S
H3928 C3925 0.999 . S
H3929 C3910 0.913 . S
H3930 C3948 0.951 . S
H3931 C3950 0.951 . S
H3932 C3952 0.950 . S
H3933 C3953 0.950 . S
H3934 C3955 0.950 . S
H3935 C3958 0.950 . S
H3936 C3959 0.950 . S
H3937 C3961 0.950 . S
H3938 C3962 0.950 . S
H3939 C3963 0.951 . S
H3940 C3965 0.951 . S
H3941 C3967 0.950 . S
H3942 C3968 0.950 . S
H3943 C3970 0.950 . S
H3944 C3973 0.950 . S
H3945 C3974 0.950 . S
H3946 C3976 0.950 . S
H3947 C3977 0.950 . S
C3948 H3930 0.951 . S
C3948 C3949 1.366 . S
C3948 C3950 1.388 . S
C3949 C3948 1.366 . S
C3949 C3953 1.385 . S
C3950 H3931 0.951 . S
C3950 C3948 1.388 . S
C3950 C3951 1.366 . S
C3951 C3950 1.366 . S
C3951 C3952 1.414 . S
C3951 C3954 1.499 . S
C3952 H3932 0.950 . S
C3952 C3951 1.414 . S
C3952 C3953 1.374 . S
C3953 H3933 0.950 . S
C3953 C3949 1.385 . S
C3953 C3952 1.374 . S
C3954 C3951 1.499 . S
C3954 C3955 1.373 . S
C3954 C3956 1.389 . S
C3955 H3934 0.950 . S
C3955 C3954 1.373 . S
C3955 C3971 1.377 . S
C3956 C3954 1.389 . S
C3956 C3957 1.524 . S
C3956 C3970 1.377 . S
C3957 C3956 1.524 . S
C3957 C3958 1.397 . S
C3957 C3962 1.363 . S
C3958 H3935 0.950 . S
C3958 C3957 1.397 . S
C3958 C3959 1.334 . S
C3959 H3936 0.950 . S
C3959 C3958 1.334 . S
C3959 C3960 1.287 . S
C3960 C3959 1.287 . S
C3960 C3961 1.524 . S
C3960 H3979 0.913 . S
C3961 H3937 0.950 . S
C3961 C3960 1.524 . S
C3961 C3962 1.415 . S
C3962 H3938 0.950 . S
C3962 C3957 1.363 . S
C3962 C3961 1.415 . S
C3963 H3939 0.951 . S
C3963 C3964 1.366 . S
C3963 C3965 1.388 . S
C3964 C3963 1.366 . S
C3964 C3968 1.385 . S
C3965 H3940 0.951 . S
C3965 C3963 1.388 . S
C3965 C3966 1.366 . S
C3966 C3965 1.366 . S
C3966 C3967 1.414 . S
C3966 C3969 1.499 . S
C3967 H3941 0.950 . S
C3967 C3966 1.414 . S
C3967 C3968 1.374 . S
C3968 H3942 0.950 . S
C3968 C3964 1.385 . S
C3968 C3967 1.374 . S
C3969 C3966 1.499 . S
C3969 C3970 1.373 . S
C3969 C3971 1.389 . S
C3970 H3943 0.950 . S
C3970 C3956 1.377 . S
C3970 C3969 1.373 . S
C3971 C3955 1.377 . S
C3971 C3969 1.389 . S
C3971 C3972 1.524 . S
C3972 C3971 1.524 . S
C3972 C3973 1.397 . S
C3972 C3977 1.363 . S
C3973 H3944 0.950 . S
C3973 C3972 1.397 . S
C3973 C3974 1.334 . S
C3974 H3945 0.950 . S
C3974 C3973 1.334 . S
C3974 C3975 1.287 . S
C3975 C3974 1.287 . S
C3975 C3976 1.524 . S
C3975 H3978 0.999 . S
C3976 H3946 0.950 . S
C3976 C3975 1.524 . S
C3976 C3977 1.415 . S
C3977 H3947 0.950 . S
C3977 C3972 1.363 . S
C3977 C3976 1.415 . S
H3978 C3975 0.999 . S
H3979 C3960 0.913 . S
H3980 C3998 0.951 . S
H3981 C4000 0.951 . S
H3982 C4002 0.950 . S
H3983 C4003 0.950 . S
H3984 C4005 0.950 . S
H3985 C4008 0.950 . S
H3986 C4009 0.950 . S
H3987 C4011 0.950 . S
H3988 C4012 0.950 . S
H3989 C4013 0.951 . S
H3990 C4015 0.951 . S
H3991 C4017 0.950 . S
H3992 C4018 0.950 . S
H3993 C4020 0.950 . S
H3994 C4023 0.950 . S
H3995 C4024 0.950 . S
H3996 C4026 0.950 . S
H3997 C4027 0.950 . S
C3998 H3980 0.951 . S
C3998 C3999 1.366 . S
C3998 C4000 1.388 . S
C3999 C3998 1.366 . S
C3999 C4003 1.385 . S
C4000 H3981 0.951 . S
C4000 C3998 1.388 . S
C4000 C4001 1.366 . S
C4001 C4000 1.366 . S
C4001 C4002 1.414 . S
C4001 C4004 1.499 . S
C4002 H3982 0.950 . S
C4002 C4001 1.414 . S
C4002 C4003 1.374 . S
C4003 H3983 0.950 . S
C4003 C3999 1.385 . S
C4003 C4002 1.374 . S
C4004 C4001 1.499 . S
C4004 C4005 1.373 . S
C4004 C4006 1.389 . S
C4005 H3984 0.950 . S
C4005 C4004 1.373 . S
C4005 C4021 1.377 . S
C4006 C4004 1.389 . S
C4006 C4007 1.524 . S
C4006 C4020 1.377 . S
C4007 C4006 1.524 . S
C4007 C4008 1.397 . S
C4007 C4012 1.363 . S
C4008 H3985 0.950 . S
C4008 C4007 1.397 . S
C4008 C4009 1.334 . S
C4009 H3986 0.950 . S
C4009 C4008 1.334 . S
C4009 C4010 1.287 . S
C4010 C4009 1.287 . S
C4010 C4011 1.524 . S
C4010 H4029 0.913 . S
C4011 H3987 0.950 . S
C4011 C4010 1.524 . S
C4011 C4012 1.415 . S
C4012 H3988 0.950 . S
C4012 C4007 1.363 . S
C4012 C4011 1.415 . S
C4013 H3989 0.951 . S
C4013 C4014 1.366 . S
C4013 C4015 1.388 . S
C4014 C4013 1.366 . S
C4014 C4018 1.385 . S
C4015 H3990 0.951 . S
C4015 C4013 1.388 . S
C4015 C4016 1.366 . S
C4016 C4015 1.366 . S
C4016 C4017 1.414 . S
C4016 C4019 1.499 . S
C4017 H3991 0.950 . S
C4017 C4016 1.414 . S
C4017 C4018 1.374 . S
C4018 H3992 0.950 . S
C4018 C4014 1.385 . S
C4018 C4017 1.374 . S
C4019 C4016 1.499 . S
C4019 C4020 1.373 . S
C4019 C4021 1.389 . S
C4020 H3993 0.950 . S
C4020 C4006 1.377 . S
C4020 C4019 1.373 . S
C4021 C4005 1.377 . S
C4021 C4019 1.389 . S
C4021 C4022 1.524 . S
C4022 C4021 1.524 . S
C4022 C4023 1.397 . S
C4022 C4027 1.363 . S
C4023 H3994 0.950 . S
C4023 C4022 1.397 . S
C4023 C4024 1.334 . S
C4024 H3995 0.950 . S
C4024 C4023 1.334 . S
C4024 C4025 1.287 . S
C4025 C4024 1.287 . S
C4025 C4026 1.524 . S
C4025 H4028 0.999 . S
C4026 H3996 0.950 . S
C4026 C4025 1.524 . S
C4026 C4027 1.415 . S
C4027 H3997 0.950 . S
C4027 C4022 1.363 . S
C4027 C4026 1.415 . S
H4028 C4025 0.999 . S
H4029 C4010 0.913 . S
H4030 C4048 0.951 . S
H4031 C4050 0.951 . S
H4032 C4052 0.950 . S
H4033 C4053 0.950 . S
H4034 C4055 0.950 . S
H4035 C4058 0.950 . S
H4036 C4059 0.950 . S
H4037 C4061 0.950 . S
H4038 C4062 0.950 . S
H4039 C4063 0.951 . S
H4040 C4065 0.951 . S
H4041 C4067 0.950 . S
H4042 C4068 0.950 . S
H4043 C4070 0.950 . S
H4044 C4073 0.950 . S
H4045 C4074 0.950 . S
H4046 C4076 0.950 . S
H4047 C4077 0.950 . S
C4048 H4030 0.951 . S
C4048 C4049 1.366 . S
C4048 C4050 1.388 . S
C4049 C4048 1.366 . S
C4049 C4053 1.385 . S
C4050 H4031 0.951 . S
C4050 C4048 1.388 . S
C4050 C4051 1.366 . S
C4051 C4050 1.366 . S
C4051 C4052 1.414 . S
C4051 C4054 1.499 . S
C4052 H4032 0.950 . S
C4052 C4051 1.414 . S
C4052 C4053 1.374 . S
C4053 H4033 0.950 . S
C4053 C4049 1.385 . S
C4053 C4052 1.374 . S
C4054 C4051 1.499 . S
C4054 C4055 1.373 . S
C4054 C4056 1.389 . S
C4055 H4034 0.950 . S
C4055 C4054 1.373 . S
C4055 C4071 1.377 . S
C4056 C4054 1.389 . S
C4056 C4057 1.524 . S
C4056 C4070 1.377 . S
C4057 C4056 1.524 . S
C4057 C4058 1.397 . S
C4057 C4062 1.363 . S
C4058 H4035 0.950 . S
C4058 C4057 1.397 . S
C4058 C4059 1.334 . S
C4059 H4036 0.950 . S
C4059 C4058 1.334 . S
C4059 C4060 1.287 . S
C4060 C4059 1.287 . S
C4060 C4061 1.524 . S
C4060 H4079 0.913 . S
C4061 H4037 0.950 . S
C4061 C4060 1.524 . S
C4061 C4062 1.415 . S
C4062 H4038 0.950 . S
C4062 C4057 1.363 . S
C4062 C4061 1.415 . S
C4063 H4039 0.951 . S
C4063 C4064 1.366 . S
C4063 C4065 1.388 . S
C4064 C4063 1.366 . S
C4064 C4068 1.385 . S
C4065 H4040 0.951 . S
C4065 C4063 1.388 . S
C4065 C4066 1.366 . S
C4066 C4065 1.366 . S
C4066 C4067 1.414 . S
C4066 C4069 1.499 . S
C4067 H4041 0.950 . S
C4067 C4066 1.414 . S
C4067 C4068 1.374 . S
C4068 H4042 0.950 . S
C4068 C4064 1.385 . S
C4068 C4067 1.374 . S
C4069 C4066 1.499 . S
C4069 C4070 1.373 . S
C4069 C4071 1.389 . S
C4070 H4043 0.950 . S
C4070 C4056 1.377 . S
C4070 C4069 1.373 . S
C4071 C4055 1.377 . S
C4071 C4069 1.389 . S
C4071 C4072 1.524 . S
C4072 C4071 1.524 . S
C4072 C4073 1.397 . S
C4072 C4077 1.363 . S
C4073 H4044 0.950 . S
C4073 C4072 1.397 . S
C4073 C4074 1.334 . S
C4074 H4045 0.950 . S
C4074 C4073 1.334 . S
C4074 C4075 1.287 . S
C4075 C4074 1.287 . S
C4075 C4076 1.524 . S
C4075 H4078 0.999 . S
C4076 H4046 0.950 . S
C4076 C4075 1.524 . S
C4076 C4077 1.415 . S
C4077 H4047 0.950 . S
C4077 C4072 1.363 . S
C4077 C4076 1.415 . S
H4078 C4075 0.999 . S
H4079 C4060 0.913 . S
H4080 C4098 0.951 . S
H4081 C4100 0.951 . S
H4082 C4102 0.950 . S
H4083 C4103 0.950 . S
H4084 C4105 0.950 . S
H4085 C4108 0.950 . S
H4086 C4109 0.950 . S
H4087 C4111 0.950 . S
H4088 C4112 0.950 . S
H4089 C4113 0.951 . S
H4090 C4115 0.951 . S
H4091 C4117 0.950 . S
H4092 C4118 0.950 . S
H4093 C4120 0.950 . S
H4094 C4123 0.950 . S
H4095 C4124 0.950 . S
H4096 C4126 0.950 . S
H4097 C4127 0.950 . S
C4098 H4080 0.951 . S
C4098 C4099 1.366 . S
C4098 C4100 1.388 . S
C4099 C4098 1.366 . S
C4099 C4103 1.385 . S
C4100 H4081 0.951 . S
C4100 C4098 1.388 . S
C4100 C4101 1.366 . S
C4101 C4100 1.366 . S
C4101 C4102 1.414 . S
C4101 C4104 1.499 . S
C4102 H4082 0.950 . S
C4102 C4101 1.414 . S
C4102 C4103 1.374 . S
C4103 H4083 0.950 . S
C4103 C4099 1.385 . S
C4103 C4102 1.374 . S
C4104 C4101 1.499 . S
C4104 C4105 1.373 . S
C4104 C4106 1.389 . S
C4105 H4084 0.950 . S
C4105 C4104 1.373 . S
C4105 C4121 1.377 . S
C4106 C4104 1.389 . S
C4106 C4107 1.524 . S
C4106 C4120 1.377 . S
C4107 C4106 1.524 . S
C4107 C4108 1.397 . S
C4107 C4112 1.363 . S
C4108 H4085 0.950 . S
C4108 C4107 1.397 . S
C4108 C4109 1.334 . S
C4109 H4086 0.950 . S
C4109 C4108 1.334 . S
C4109 C4110 1.287 . S
C4110 C4109 1.287 . S
C4110 C4111 1.524 . S
C4110 H4129 0.913 . S
C4111 H4087 0.950 . S
C4111 C4110 1.524 . S
C4111 C4112 1.415 . S
C4112 H4088 0.950 . S
C4112 C4107 1.363 . S
C4112 C4111 1.415 . S
C4113 H4089 0.951 . S
C4113 C4114 1.366 . S
C4113 C4115 1.388 . S
C4114 C4113 1.366 . S
C4114 C4118 1.385 . S
C4115 H4090 0.951 . S
C4115 C4113 1.388 . S
C4115 C4116 1.366 . S
C4116 C4115 1.366 . S
C4116 C4117 1.414 . S
C4116 C4119 1.499 . S
C4117 H4091 0.950 . S
C4117 C4116 1.414 . S
C4117 C4118 1.374 . S
C4118 H4092 0.950 . S
C4118 C4114 1.385 . S
C4118 C4117 1.374 . S
C4119 C4116 1.499 . S
C4119 C4120 1.373 . S
C4119 C4121 1.389 . S
C4120 H4093 0.950 . S
C4120 C4106 1.377 . S
C4120 C4119 1.373 . S
C4121 C4105 1.377 . S
C4121 C4119 1.389 . S
C4121 C4122 1.524 . S
C4122 C4121 1.524 . S
C4122 C4123 1.397 . S
C4122 C4127 1.363 . S
C4123 H4094 0.950 . S
C4123 C4122 1.397 . S
C4123 C4124 1.334 . S
C4124 H4095 0.950 . S
C4124 C4123 1.334 . S
C4124 C4125 1.287 . S
C4125 C4124 1.287 . S
C4125 C4126 1.524 . S
C4125 H4128 0.999 . S
C4126 H4096 0.950 . S
C4126 C4125 1.524 . S
C4126 C4127 1.415 . S
C4127 H4097 0.950 . S
C4127 C4122 1.363 . S
C4127 C4126 1.415 . S
H4128 C4125 0.999 . S
H4129 C4110 0.913 . S
H4130 C4148 0.951 . S
H4131 C4150 0.951 . S
H4132 C4152 0.950 . S
H4133 C4153 0.950 . S
H4134 C4155 0.950 . S
H4135 C4158 0.950 . S
H4136 C4159 0.950 . S
H4137 C4161 0.950 . S
H4138 C4162 0.950 . S
H4139 C4163 0.951 . S
H4140 C4165 0.951 . S
H4141 C4167 0.950 . S
H4142 C4168 0.950 . S
H4143 C4170 0.950 . S
H4144 C4173 0.950 . S
H4145 C4174 0.950 . S
H4146 C4176 0.950 . S
H4147 C4177 0.950 . S
C4148 H4130 0.951 . S
C4148 C4149 1.366 . S
C4148 C4150 1.388 . S
C4149 C4148 1.366 . S
C4149 C4153 1.385 . S
C4150 H4131 0.951 . S
C4150 C4148 1.388 . S
C4150 C4151 1.366 . S
C4151 C4150 1.366 . S
C4151 C4152 1.414 . S
C4151 C4154 1.499 . S
C4152 H4132 0.950 . S
C4152 C4151 1.414 . S
C4152 C4153 1.374 . S
C4153 H4133 0.950 . S
C4153 C4149 1.385 . S
C4153 C4152 1.374 . S
C4154 C4151 1.499 . S
C4154 C4155 1.373 . S
C4154 C4156 1.389 . S
C4155 H4134 0.950 . S
C4155 C4154 1.373 . S
C4155 C4171 1.377 . S
C4156 C4154 1.389 . S
C4156 C4157 1.524 . S
C4156 C4170 1.377 . S
C4157 C4156 1.524 . S
C4157 C4158 1.397 . S
C4157 C4162 1.363 . S
C4158 H4135 0.950 . S
C4158 C4157 1.397 . S
C4158 C4159 1.334 . S
C4159 H4136 0.950 . S
C4159 C4158 1.334 . S
C4159 C4160 1.287 . S
C4160 C4159 1.287 . S
C4160 C4161 1.524 . S
C4160 H4179 0.913 . S
C4161 H4137 0.950 . S
C4161 C4160 1.524 . S
C4161 C4162 1.415 . S
C4162 H4138 0.950 . S
C4162 C4157 1.363 . S
C4162 C4161 1.415 . S
C4163 H4139 0.951 . S
C4163 C4164 1.366 . S
C4163 C4165 1.388 . S
C4164 C4163 1.366 . S
C4164 C4168 1.385 . S
C4165 H4140 0.951 . S
C4165 C4163 1.388 . S
C4165 C4166 1.366 . S
C4166 C4165 1.366 . S
C4166 C4167 1.414 . S
C4166 C4169 1.499 . S
C4167 H4141 0.950 . S
C4167 C4166 1.414 . S
C4167 C4168 1.374 . S
C4168 H4142 0.950 . S
C4168 C4164 1.385 . S
C4168 C4167 1.374 . S
C4169 C4166 1.499 . S
C4169 C4170 1.373 . S
C4169 C4171 1.389 . S
C4170 H4143 0.950 . S
C4170 C4156 1.377 . S
C4170 C4169 1.373 . S
C4171 C4155 1.377 . S
C4171 C4169 1.389 . S
C4171 C4172 1.524 . S
C4172 C4171 1.524 . S
C4172 C4173 1.397 . S
C4172 C4177 1.363 . S
C4173 H4144 0.950 . S
C4173 C4172 1.397 . S
C4173 C4174 1.334 . S
C4174 H4145 0.950 . S
C4174 C4173 1.334 . S
C4174 C4175 1.287 . S
C4175 C4174 1.287 . S
C4175 C4176 1.524 . S
C4175 H4178 0.999 . S
C4176 H4146 0.950 . S
C4176 C4175 1.524 . S
C4176 C4177 1.415 . S
C4177 H4147 0.950 . S
C4177 C4172 1.363 . S
C4177 C4176 1.415 . S
H4178 C4175 0.999 . S
H4179 C4160 0.913 . S
H4180 C4198 0.951 . S
H4181 C4200 0.951 . S
H4182 C4202 0.950 . S
H4183 C4203 0.950 . S
H4184 C4205 0.950 . S
H4185 C4208 0.950 1_455 S
H4186 C4209 0.950 . S
H4187 C4211 0.950 . S
H4188 C4212 0.950 . S
H4189 C4213 0.952 1_554 S
H4190 C4215 0.951 . S
H4191 C4217 0.950 . S
H4192 C4218 0.950 . S
H4193 C4220 0.971 . S
H4194 C4223 0.950 . S
H4195 C4224 0.950 . S
H4196 C4226 0.950 . S
H4197 C4227 0.950 . S
C4198 H4180 0.951 . S
C4198 C4199 1.366 1_655 S
C4198 C4200 1.388 . S
C4199 C4198 1.366 1_455 S
C4199 C4203 1.385 . S
C4200 H4181 0.951 . S
C4200 C4198 1.388 . S
C4200 C4201 1.366 1_655 S
C4201 C4200 1.366 1_455 S
C4201 C4202 1.414 . S
C4201 C4204 1.499 . S
C4202 H4182 0.950 . S
C4202 C4201 1.414 . S
C4202 C4203 1.374 . S
C4203 H4183 0.950 . S
C4203 C4199 1.385 . S
C4203 C4202 1.374 . S
C4204 C4201 1.499 . S
C4204 C4205 1.373 . S
C4204 C4206 1.389 1_455 S
C4205 H4184 0.950 . S
C4205 C4204 1.373 . S
C4205 C4221 1.377 . S
C4206 C4204 1.389 1_655 S
C4206 C4207 1.524 . S
C4206 C4220 1.370 . S
C4207 C4206 1.524 . S
C4207 C4208 1.397 . S
C4207 C4212 1.363 . S
C4208 H4185 0.950 1_655 S
C4208 C4207 1.397 . S
C4208 C4209 1.334 . S
C4209 H4186 0.950 . S
C4209 C4208 1.334 . S
C4209 C4210 1.287 . S
C4210 C4209 1.287 . S
C4210 C4211 1.524 . S
C4210 H4229 0.913 . S
C4211 H4187 0.950 . S
C4211 C4210 1.524 . S
C4211 C4212 1.415 . S
C4212 H4188 0.950 . S
C4212 C4207 1.363 . S
C4212 C4211 1.415 . S
C4213 H4189 0.952 1_556 S
C4213 C4214 1.359 1_556 S
C4213 C4215 1.394 . S
C4214 C4213 1.359 1_554 S
C4214 C4218 1.385 1_454 S
C4215 H4190 0.951 . S
C4215 C4213 1.394 . S
C4215 C4216 1.366 . S
C4216 C4215 1.366 . S
C4216 C4217 1.414 1_455 S
C4216 C4219 1.499 . S
C4217 H4191 0.950 . S
C4217 C4216 1.414 1_655 S
C4217 C4218 1.374 . S
C4218 H4192 0.950 . S
C4218 C4214 1.385 1_656 S
C4218 C4217 1.374 . S
C4219 C4216 1.499 . S
C4219 C4220 1.359 1_455 S
C4219 C4221 1.389 . S
C4220 H4193 0.971 . S
C4220 C4206 1.370 . S
C4220 C4219 1.359 1_655 S
C4221 C4205 1.377 . S
C4221 C4219 1.389 . S
C4221 C4222 1.524 1_556 S
C4222 C4221 1.524 1_554 S
C4222 C4223 1.397 . S
C4222 C4227 1.363 . S
C4223 H4194 0.950 . S
C4223 C4222 1.397 . S
C4223 C4224 1.334 . S
C4224 H4195 0.950 . S
C4224 C4223 1.334 . S
C4224 C4225 1.287 . S
C4225 C4224 1.287 . S
C4225 C4226 1.524 . S
C4225 H4228 0.999 . S
C4226 H4196 0.950 . S
C4226 C4225 1.524 . S
C4226 C4227 1.415 . S
C4227 H4197 0.950 . S
C4227 C4222 1.363 . S
C4227 C4226 1.415 . S
H4228 C4225 0.999 . S
H4229 C4210 0.913 . S
H4230 C4248 0.951 . S
H4231 C4250 0.951 . S
H4232 C4252 0.950 . S
H4233 C4253 0.950 . S
H4234 C4255 0.950 . S
H4235 C4258 0.950 . S
H4236 C4259 0.950 . S
H4237 C4261 0.950 . S
H4238 C4262 0.950 . S
H4239 C4263 0.951 . S
H4240 C4265 0.951 . S
H4241 C4267 0.950 . S
H4242 C4268 0.950 . S
H4243 C4270 0.950 . S
H4244 C4273 0.950 . S
H4245 C4274 0.950 . S
H4246 C4276 0.950 . S
H4247 C4277 0.950 . S
C4248 H4230 0.951 . S
C4248 C4249 1.366 1_655 S
C4248 C4250 1.388 . S
C4249 C4248 1.366 1_455 S
C4249 C4253 1.385 . S
C4250 H4231 0.951 . S
C4250 C4248 1.388 . S
C4250 C4251 1.366 . S
C4251 C4250 1.366 . S
C4251 C4252 1.414 . S
C4251 C4254 1.499 . S
C4252 H4232 0.950 . S
C4252 C4251 1.414 . S
C4252 C4253 1.374 1_655 S
C4253 H4233 0.950 . S
C4253 C4249 1.385 . S
C4253 C4252 1.374 1_455 S
C4254 C4251 1.499 . S
C4254 C4255 1.373 . S
C4254 C4256 1.389 . S
C4255 H4234 0.950 . S
C4255 C4254 1.373 . S
C4255 C4271 1.377 . S
C4256 C4254 1.389 . S
C4256 C4257 1.524 . S
C4256 C4270 1.377 . S
C4257 C4256 1.524 . S
C4257 C4258 1.397 . S
C4257 C4262 1.363 . S
C4258 H4235 0.950 . S
C4258 C4257 1.397 . S
C4258 C4259 1.334 . S
C4259 H4236 0.950 . S
C4259 C4258 1.334 . S
C4259 C4260 1.287 . S
C4260 C4259 1.287 . S
C4260 C4261 1.524 . S
C4260 H4279 0.913 . S
C4261 H4237 0.950 . S
C4261 C4260 1.524 . S
C4261 C4262 1.415 . S
C4262 H4238 0.950 . S
C4262 C4257 1.363 . S
C4262 C4261 1.415 . S
C4263 H4239 0.951 . S
C4263 C4264 1.366 . S
C4263 C4265 1.388 . S
C4264 C4263 1.366 . S
C4264 C4268 1.385 . S
C4265 H4240 0.951 . S
C4265 C4263 1.388 . S
C4265 C4266 1.366 . S
C4266 C4265 1.366 . S
C4266 C4267 1.414 . S
C4266 C4269 1.499 . S
C4267 H4241 0.950 . S
C4267 C4266 1.414 . S
C4267 C4268 1.374 . S
C4268 H4242 0.950 . S
C4268 C4264 1.385 . S
C4268 C4267 1.374 . S
C4269 C4266 1.499 . S
C4269 C4270 1.373 . S
C4269 C4271 1.389 . S
C4270 H4243 0.950 . S
C4270 C4256 1.377 . S
C4270 C4269 1.373 . S
C4271 C4255 1.377 . S
C4271 C4269 1.389 . S
C4271 C4272 1.524 . S
C4272 C4271 1.524 . S
C4272 C4273 1.397 . S
C4272 C4277 1.363 . S
C4273 H4244 0.950 . S
C4273 C4272 1.397 . S
C4273 C4274 1.334 . S
C4274 H4245 0.950 . S
C4274 C4273 1.334 . S
C4274 C4275 1.287 . S
C4275 C4274 1.287 . S
C4275 C4276 1.524 . S
C4275 H4278 0.999 . S
C4276 H4246 0.950 . S
C4276 C4275 1.524 . S
C4276 C4277 1.415 . S
C4277 H4247 0.950 . S
C4277 C4272 1.363 . S
C4277 C4276 1.415 . S
H4278 C4275 0.999 . S
H4279 C4260 0.913 . S
H4280 C4298 0.951 . S
H4281 C4300 0.951 . S
H4282 C4302 0.950 . S
H4283 C4303 0.950 . S
H4284 C4305 0.950 . S
H4285 C4308 0.950 . S
H4286 C4309 0.950 . S
H4287 C4311 0.950 . S
H4288 C4312 0.950 . S
H4289 C4313 0.951 . S
H4290 C4315 0.951 . S
H4291 C4317 0.950 . S
H4292 C4318 0.950 . S
H4293 C4320 0.950 . S
H4294 C4323 0.950 . S
H4295 C4324 0.950 . S
H4296 C4326 0.950 . S
H4297 C4327 0.950 . S
C4298 H4280 0.951 . S
C4298 C4299 1.366 . S
C4298 C4300 1.388 . S
C4299 C4298 1.366 . S
C4299 C4303 1.385 . S
C4300 H4281 0.951 . S
C4300 C4298 1.388 . S
C4300 C4301 1.366 . S
C4301 C4300 1.366 . S
C4301 C4302 1.414 . S
C4301 C4304 1.499 . S
C4302 H4282 0.950 . S
C4302 C4301 1.414 . S
C4302 C4303 1.374 . S
C4303 H4283 0.950 . S
C4303 C4299 1.385 . S
C4303 C4302 1.374 . S
C4304 C4301 1.499 . S
C4304 C4305 1.373 . S
C4304 C4306 1.389 . S
C4305 H4284 0.950 . S
C4305 C4304 1.373 . S
C4305 C4321 1.377 . S
C4306 C4304 1.389 . S
C4306 C4307 1.524 . S
C4306 C4320 1.377 . S
C4307 C4306 1.524 . S
C4307 C4308 1.397 . S
C4307 C4312 1.363 . S
C4308 H4285 0.950 . S
C4308 C4307 1.397 . S
C4308 C4309 1.334 . S
C4309 H4286 0.950 . S
C4309 C4308 1.334 . S
C4309 C4310 1.287 . S
C4310 C4309 1.287 . S
C4310 C4311 1.524 . S
C4310 H4329 0.913 . S
C4311 H4287 0.950 . S
C4311 C4310 1.524 . S
C4311 C4312 1.415 . S
C4312 H4288 0.950 . S
C4312 C4307 1.363 . S
C4312 C4311 1.415 . S
C4313 H4289 0.951 . S
C4313 C4314 1.366 . S
C4313 C4315 1.388 . S
C4314 C4313 1.366 . S
C4314 C4318 1.385 . S
C4315 H4290 0.951 . S
C4315 C4313 1.388 . S
C4315 C4316 1.366 . S
C4316 C4315 1.366 . S
C4316 C4317 1.414 . S
C4316 C4319 1.499 . S
C4317 H4291 0.950 . S
C4317 C4316 1.414 . S
C4317 C4318 1.374 . S
C4318 H4292 0.950 . S
C4318 C4314 1.385 . S
C4318 C4317 1.374 . S
C4319 C4316 1.499 . S
C4319 C4320 1.373 . S
C4319 C4321 1.389 . S
C4320 H4293 0.950 . S
C4320 C4306 1.377 . S
C4320 C4319 1.373 . S
C4321 C4305 1.377 . S
C4321 C4319 1.389 . S
C4321 C4322 1.524 . S
C4322 C4321 1.524 . S
C4322 C4323 1.397 . S
C4322 C4327 1.363 . S
C4323 H4294 0.950 . S
C4323 C4322 1.397 . S
C4323 C4324 1.334 . S
C4324 H4295 0.950 . S
C4324 C4323 1.334 . S
C4324 C4325 1.287 . S
C4325 C4324 1.287 . S
C4325 C4326 1.524 . S
C4325 H4328 0.999 . S
C4326 H4296 0.950 . S
C4326 C4325 1.524 . S
C4326 C4327 1.415 . S
C4327 H4297 0.950 . S
C4327 C4322 1.363 . S
C4327 C4326 1.415 . S
H4328 C4325 0.999 . S
H4329 C4310 0.913 . S
H4330 C4348 0.951 . S
H4331 C4350 0.951 . S
H4332 C4352 0.950 . S
H4333 C4353 0.950 . S
H4334 C4355 0.950 . S
H4335 C4358 0.950 . S
H4336 C4359 0.950 . S
H4337 C4361 0.950 . S
H4338 C4362 0.950 . S
H4339 C4363 0.951 . S
H4340 C4365 0.951 . S
H4341 C4367 0.950 . S
H4342 C4368 0.950 . S
H4343 C4370 0.950 . S
H4344 C4373 0.950 . S
H4345 C4374 0.950 . S
H4346 C4376 0.950 . S
H4347 C4377 0.950 . S
C4348 H4330 0.951 . S
C4348 C4349 1.366 . S
C4348 C4350 1.388 . S
C4349 C4348 1.366 . S
C4349 C4353 1.385 . S
C4350 H4331 0.951 . S
C4350 C4348 1.388 . S
C4350 C4351 1.366 . S
C4351 C4350 1.366 . S
C4351 C4352 1.414 . S
C4351 C4354 1.499 . S
C4352 H4332 0.950 . S
C4352 C4351 1.414 . S
C4352 C4353 1.374 . S
C4353 H4333 0.950 . S
C4353 C4349 1.385 . S
C4353 C4352 1.374 . S
C4354 C4351 1.499 . S
C4354 C4355 1.373 . S
C4354 C4356 1.389 . S
C4355 H4334 0.950 . S
C4355 C4354 1.373 . S
C4355 C4371 1.377 . S
C4356 C4354 1.389 . S
C4356 C4357 1.524 . S
C4356 C4370 1.377 . S
C4357 C4356 1.524 . S
C4357 C4358 1.397 . S
C4357 C4362 1.363 . S
C4358 H4335 0.950 . S
C4358 C4357 1.397 . S
C4358 C4359 1.334 . S
C4359 H4336 0.950 . S
C4359 C4358 1.334 . S
C4359 C4360 1.287 . S
C4360 C4359 1.287 . S
C4360 C4361 1.524 . S
C4360 H4379 0.913 . S
C4361 H4337 0.950 . S
C4361 C4360 1.524 . S
C4361 C4362 1.415 . S
C4362 H4338 0.950 . S
C4362 C4357 1.363 . S
C4362 C4361 1.415 . S
C4363 H4339 0.951 . S
C4363 C4364 1.366 . S
C4363 C4365 1.388 . S
C4364 C4363 1.366 . S
C4364 C4368 1.385 . S
C4365 H4340 0.951 . S
C4365 C4363 1.388 . S
C4365 C4366 1.366 . S
C4366 C4365 1.366 . S
C4366 C4367 1.414 . S
C4366 C4369 1.499 . S
C4367 H4341 0.950 . S
C4367 C4366 1.414 . S
C4367 C4368 1.374 . S
C4368 H4342 0.950 . S
C4368 C4364 1.385 . S
C4368 C4367 1.374 . S
C4369 C4366 1.499 . S
C4369 C4370 1.373 . S
C4369 C4371 1.389 . S
C4370 H4343 0.950 . S
C4370 C4356 1.377 . S
C4370 C4369 1.373 . S
C4371 C4355 1.377 . S
C4371 C4369 1.389 . S
C4371 C4372 1.524 . S
C4372 C4371 1.524 . S
C4372 C4373 1.397 . S
C4372 C4377 1.363 . S
C4373 H4344 0.950 . S
C4373 C4372 1.397 . S
C4373 C4374 1.334 . S
C4374 H4345 0.950 . S
C4374 C4373 1.334 . S
C4374 C4375 1.287 . S
C4375 C4374 1.287 . S
C4375 C4376 1.524 . S
C4375 H4378 0.999 . S
C4376 H4346 0.950 . S
C4376 C4375 1.524 . S
C4376 C4377 1.415 . S
C4377 H4347 0.950 . S
C4377 C4372 1.363 . S
C4377 C4376 1.415 . S
H4378 C4375 0.999 . S
H4379 C4360 0.913 . S
H4380 C4398 0.951 1_655 S
H4381 C4400 0.951 1_655 S
H4382 C4402 0.950 . S
H4383 C4403 0.950 . S
H4384 C4405 0.950 . S
H4385 C4408 0.950 . S
H4386 C4409 0.950 . S
H4387 C4411 0.950 . S
H4388 C4412 0.950 . S
H4389 C4413 0.951 . S
H4390 C4415 0.951 . S
H4391 C4417 0.950 . S
H4392 C4418 0.950 . S
H4393 C4420 0.950 . S
H4394 C4423 0.950 . S
H4395 C4424 0.950 . S
H4396 C4426 0.950 . S
H4397 C4427 0.950 . S
C4398 H4380 0.951 1_455 S
C4398 C4399 1.366 . S
C4398 C4400 1.388 . S
C4399 C4398 1.366 . S
C4399 C4403 1.385 . S
C4400 H4381 0.951 1_455 S
C4400 C4398 1.388 . S
C4400 C4401 1.366 . S
C4401 C4400 1.366 . S
C4401 C4402 1.414 . S
C4401 C4404 1.499 . S
C4402 H4382 0.950 . S
C4402 C4401 1.414 . S
C4402 C4403 1.374 . S
C4403 H4383 0.950 . S
C4403 C4399 1.385 . S
C4403 C4402 1.374 . S
C4404 C4401 1.499 . S
C4404 C4405 1.373 . S
C4404 C4406 1.389 1_455 S
C4405 H4384 0.950 . S
C4405 C4404 1.373 . S
C4405 C4421 1.377 . S
C4406 C4404 1.389 1_655 S
C4406 C4407 1.524 . S
C4406 C4420 1.377 . S
C4407 C4406 1.524 . S
C4407 C4408 1.397 . S
C4407 C4412 1.363 . S
C4408 H4385 0.950 . S
C4408 C4407 1.397 . S
C4408 C4409 1.334 . S
C4409 H4386 0.950 . S
C4409 C4408 1.334 . S
C4409 C4410 1.287 . S
C4410 C4409 1.287 . S
C4410 C4411 1.524 . S
C4410 H4429 0.913 . S
C4411 H4387 0.950 . S
C4411 C4410 1.524 . S
C4411 C4412 1.415 . S
C4412 H4388 0.950 . S
C4412 C4407 1.363 . S
C4412 C4411 1.415 . S
C4413 H4389 0.951 . S
C4413 C4414 1.366 . S
C4413 C4415 1.388 . S
C4414 C4413 1.366 . S
C4414 C4418 1.385 . S
C4415 H4390 0.951 . S
C4415 C4413 1.388 . S
C4415 C4416 1.366 . S
C4416 C4415 1.366 . S
C4416 C4417 1.414 . S
C4416 C4419 1.499 . S
C4417 H4391 0.950 . S
C4417 C4416 1.414 . S
C4417 C4418 1.374 . S
C4418 H4392 0.950 . S
C4418 C4414 1.385 . S
C4418 C4417 1.374 . S
C4419 C4416 1.499 . S
C4419 C4420 1.373 1_455 S
C4419 C4421 1.389 . S
C4420 H4393 0.950 . S
C4420 C4406 1.377 . S
C4420 C4419 1.373 1_655 S
C4421 C4405 1.377 . S
C4421 C4419 1.389 . S
C4421 C4422 1.524 . S
C4422 C4421 1.524 . S
C4422 C4423 1.397 . S
C4422 C4427 1.363 . S
C4423 H4394 0.950 . S
C4423 C4422 1.397 . S
C4423 C4424 1.334 . S
C4424 H4395 0.950 . S
C4424 C4423 1.334 . S
C4424 C4425 1.287 . S
C4425 C4424 1.287 . S
C4425 C4426 1.524 . S
C4425 H4428 0.999 . S
C4426 H4396 0.950 . S
C4426 C4425 1.524 . S
C4426 C4427 1.415 . S
C4427 H4397 0.950 . S
C4427 C4422 1.363 . S
C4427 C4426 1.415 . S
H4428 C4425 0.999 . S
H4429 C4410 0.913 . S
H4430 C4448 0.951 . S
H4431 C4450 0.951 . S
H4432 C4452 0.950 . S
H4433 C4453 0.950 . S
H4434 C4455 0.950 . S
H4435 C4458 0.950 . S
H4436 C4459 0.950 . S
H4437 C4461 0.950 . S
H4438 C4462 0.950 . S
H4439 C4463 0.951 . S
H4440 C4465 0.951 . S
H4441 C4467 0.950 . S
H4442 C4468 0.950 . S
H4443 C4470 0.950 . S
H4444 C4473 0.950 . S
H4445 C4474 0.950 . S
H4446 C4476 0.950 . S
H4447 C4477 0.950 . S
C4448 H4430 0.951 . S
C4448 C4449 1.366 . S
C4448 C4450 1.388 . S
C4449 C4448 1.366 . S
C4449 C4453 1.385 . S
C4450 H4431 0.951 . S
C4450 C4448 1.388 . S
C4450 C4451 1.366 . S
C4451 C4450 1.366 . S
C4451 C4452 1.414 . S
C4451 C4454 1.499 . S
C4452 H4432 0.950 . S
C4452 C4451 1.414 . S
C4452 C4453 1.374 . S
C4453 H4433 0.950 . S
C4453 C4449 1.385 . S
C4453 C4452 1.374 . S
C4454 C4451 1.499 . S
C4454 C4455 1.373 . S
C4454 C4456 1.389 . S
C4455 H4434 0.950 . S
C4455 C4454 1.373 . S
C4455 C4471 1.377 . S
C4456 C4454 1.389 . S
C4456 C4457 1.524 . S
C4456 C4470 1.377 . S
C4457 C4456 1.524 . S
C4457 C4458 1.397 . S
C4457 C4462 1.363 . S
C4458 H4435 0.950 . S
C4458 C4457 1.397 . S
C4458 C4459 1.334 . S
C4459 H4436 0.950 . S
C4459 C4458 1.334 . S
C4459 C4460 1.287 . S
C4460 C4459 1.287 . S
C4460 C4461 1.524 . S
C4460 H4479 0.913 . S
C4461 H4437 0.950 . S
C4461 C4460 1.524 . S
C4461 C4462 1.415 . S
C4462 H4438 0.950 . S
C4462 C4457 1.363 . S
C4462 C4461 1.415 . S
C4463 H4439 0.951 . S
C4463 C4464 1.366 . S
C4463 C4465 1.388 . S
C4464 C4463 1.366 . S
C4464 C4468 1.385 . S
C4465 H4440 0.951 . S
C4465 C4463 1.388 . S
C4465 C4466 1.366 . S
C4466 C4465 1.366 . S
C4466 C4467 1.414 . S
C4466 C4469 1.499 . S
C4467 H4441 0.950 . S
C4467 C4466 1.414 . S
C4467 C4468 1.374 . S
C4468 H4442 0.950 . S
C4468 C4464 1.385 . S
C4468 C4467 1.374 . S
C4469 C4466 1.499 . S
C4469 C4470 1.373 . S
C4469 C4471 1.389 . S
C4470 H4443 0.950 . S
C4470 C4456 1.377 . S
C4470 C4469 1.373 . S
C4471 C4455 1.377 . S
C4471 C4469 1.389 . S
C4471 C4472 1.524 . S
C4472 C4471 1.524 . S
C4472 C4473 1.397 . S
C4472 C4477 1.363 . S
C4473 H4444 0.950 . S
C4473 C4472 1.397 . S
C4473 C4474 1.334 . S
C4474 H4445 0.950 . S
C4474 C4473 1.334 . S
C4474 C4475 1.287 . S
C4475 C4474 1.287 . S
C4475 C4476 1.524 . S
C4475 H4478 0.999 . S
C4476 H4446 0.950 . S
C4476 C4475 1.524 . S
C4476 C4477 1.415 . S
C4477 H4447 0.950 . S
C4477 C4472 1.363 . S
C4477 C4476 1.415 . S
H4478 C4475 0.999 . S
H4479 C4460 0.913 . S
H4480 C4498 0.951 . S
H4481 C4500 0.951 . S
H4482 C4502 0.950 . S
H4483 C4503 0.950 . S
H4484 C4505 0.950 . S
H4485 C4508 0.950 . S
H4486 C4509 0.950 . S
H4487 C4511 0.950 . S
H4488 C4512 0.950 . S
H4489 C4513 0.951 . S
H4490 C4515 0.951 . S
H4491 C4517 0.950 . S
H4492 C4518 0.950 . S
H4493 C4520 0.950 . S
H4494 C4523 0.950 . S
H4495 C4524 0.950 . S
H4496 C4526 0.950 . S
H4497 C4527 0.950 . S
C4498 H4480 0.951 . S
C4498 C4499 1.366 . S
C4498 C4500 1.388 . S
C4499 C4498 1.366 . S
C4499 C4503 1.385 . S
C4500 H4481 0.951 . S
C4500 C4498 1.388 . S
C4500 C4501 1.366 . S
C4501 C4500 1.366 . S
C4501 C4502 1.414 . S
C4501 C4504 1.499 . S
C4502 H4482 0.950 . S
C4502 C4501 1.414 . S
C4502 C4503 1.374 . S
C4503 H4483 0.950 . S
C4503 C4499 1.385 . S
C4503 C4502 1.374 . S
C4504 C4501 1.499 . S
C4504 C4505 1.373 . S
C4504 C4506 1.389 . S
C4505 H4484 0.950 . S
C4505 C4504 1.373 . S
C4505 C4521 1.377 . S
C4506 C4504 1.389 . S
C4506 C4507 1.524 . S
C4506 C4520 1.377 . S
C4507 C4506 1.524 . S
C4507 C4508 1.397 . S
C4507 C4512 1.363 . S
C4508 H4485 0.950 . S
C4508 C4507 1.397 . S
C4508 C4509 1.334 . S
C4509 H4486 0.950 . S
C4509 C4508 1.334 . S
C4509 C4510 1.287 . S
C4510 C4509 1.287 . S
C4510 C4511 1.524 . S
C4510 H4529 0.913 . S
C4511 H4487 0.950 . S
C4511 C4510 1.524 . S
C4511 C4512 1.415 . S
C4512 H4488 0.950 . S
C4512 C4507 1.363 . S
C4512 C4511 1.415 . S
C4513 H4489 0.951 . S
C4513 C4514 1.366 . S
C4513 C4515 1.388 . S
C4514 C4513 1.366 . S
C4514 C4518 1.385 . S
C4515 H4490 0.951 . S
C4515 C4513 1.388 . S
C4515 C4516 1.366 . S
C4516 C4515 1.366 . S
C4516 C4517 1.414 . S
C4516 C4519 1.499 . S
C4517 H4491 0.950 . S
C4517 C4516 1.414 . S
C4517 C4518 1.374 . S
C4518 H4492 0.950 . S
C4518 C4514 1.385 . S
C4518 C4517 1.374 . S
C4519 C4516 1.499 . S
C4519 C4520 1.373 . S
C4519 C4521 1.389 . S
C4520 H4493 0.950 . S
C4520 C4506 1.377 . S
C4520 C4519 1.373 . S
C4521 C4505 1.377 . S
C4521 C4519 1.389 . S
C4521 C4522 1.524 . S
C4522 C4521 1.524 . S
C4522 C4523 1.397 . S
C4522 C4527 1.363 . S
C4523 H4494 0.950 . S
C4523 C4522 1.397 . S
C4523 C4524 1.334 . S
C4524 H4495 0.950 . S
C4524 C4523 1.334 . S
C4524 C4525 1.287 . S
C4525 C4524 1.287 . S
C4525 C4526 1.524 . S
C4525 H4528 0.999 . S
C4526 H4496 0.950 . S
C4526 C4525 1.524 . S
C4526 C4527 1.415 . S
C4527 H4497 0.950 . S
C4527 C4522 1.363 . S
C4527 C4526 1.415 . S
H4528 C4525 0.999 . S
H4529 C4510 0.913 . S
H4530 C4548 0.948 1_554 S
H4531 C4550 0.951 . S
H4532 C4552 0.950 . S
H4533 C4553 0.950 . S
H4534 C4555 0.950 . S
H4535 C4558 0.950 . S
H4536 C4559 0.950 . S
H4537 C4561 0.950 . S
H4538 C4562 0.950 . S
H4539 C4563 0.951 . S
H4540 C4565 0.951 . S
H4541 C4567 0.950 . S
H4542 C4568 0.950 . S
H4543 C4570 0.950 . S
H4544 C4573 0.950 . S
H4545 C4574 0.950 . S
H4546 C4576 0.950 . S
H4547 C4577 0.950 . S
C4548 H4530 0.948 1_556 S
C4548 C4549 1.365 1_556 S
C4548 C4550 1.391 . S
C4549 C4548 1.365 1_554 S
C4549 C4553 1.383 1_554 S
C4550 H4531 0.951 . S
C4550 C4548 1.391 . S
C4550 C4551 1.366 . S
C4551 C4550 1.366 . S
C4551 C4552 1.414 . S
C4551 C4554 1.499 . S
C4552 H4532 0.950 . S
C4552 C4551 1.414 . S
C4552 C4553 1.374 . S
C4553 H4533 0.950 . S
C4553 C4549 1.383 1_556 S
C4553 C4552 1.374 . S
C4554 C4551 1.499 . S
C4554 C4555 1.373 . S
C4554 C4556 1.389 . S
C4555 H4534 0.950 . S
C4555 C4554 1.373 . S
C4555 C4571 1.377 . S
C4556 C4554 1.389 . S
C4556 C4557 1.524 . S
C4556 C4570 1.377 . S
C4557 C4556 1.524 . S
C4557 C4558 1.397 . S
C4557 C4562 1.363 . S
C4558 H4535 0.950 . S
C4558 C4557 1.397 . S
C4558 C4559 1.334 . S
C4559 H4536 0.950 . S
C4559 C4558 1.334 . S
C4559 C4560 1.287 . S
C4560 C4559 1.287 . S
C4560 C4561 1.524 . S
C4560 H4579 0.913 . S
C4561 H4537 0.950 . S
C4561 C4560 1.524 . S
C4561 C4562 1.415 . S
C4562 H4538 0.950 . S
C4562 C4557 1.363 . S
C4562 C4561 1.415 . S
C4563 H4539 0.951 . S
C4563 C4564 1.366 . S
C4563 C4565 1.388 . S
C4564 C4563 1.366 . S
C4564 C4568 1.385 . S
C4565 H4540 0.951 . S
C4565 C4563 1.388 . S
C4565 C4566 1.366 . S
C4566 C4565 1.366 . S
C4566 C4567 1.414 . S
C4566 C4569 1.499 . S
C4567 H4541 0.950 . S
C4567 C4566 1.414 . S
C4567 C4568 1.374 . S
C4568 H4542 0.950 . S
C4568 C4564 1.385 . S
C4568 C4567 1.374 . S
C4569 C4566 1.499 . S
C4569 C4570 1.373 . S
C4569 C4571 1.389 . S
C4570 H4543 0.950 . S
C4570 C4556 1.377 . S
C4570 C4569 1.373 . S
C4571 C4555 1.377 . S
C4571 C4569 1.389 . S
C4571 C4572 1.524 . S
C4572 C4571 1.524 . S
C4572 C4573 1.397 . S
C4572 C4577 1.363 . S
C4573 H4544 0.950 . S
C4573 C4572 1.397 . S
C4573 C4574 1.334 . S
C4574 H4545 0.950 . S
C4574 C4573 1.334 . S
C4574 C4575 1.287 . S
C4575 C4574 1.287 . S
C4575 C4576 1.524 . S
C4575 H4578 0.999 . S
C4576 H4546 0.950 . S
C4576 C4575 1.524 . S
C4576 C4577 1.415 . S
C4577 H4547 0.950 . S
C4577 C4572 1.363 . S
C4577 C4576 1.415 . S
H4578 C4575 0.999 . S
H4579 C4560 0.913 . S
H4580 C4598 0.951 . S
H4581 C4600 0.951 . S
H4582 C4602 0.950 . S
H4583 C4603 0.950 . S
H4584 C4605 0.950 . S
H4585 C4608 0.950 . S
H4586 C4609 0.950 . S
H4587 C4611 0.950 . S
H4588 C4612 0.950 . S
H4589 C4613 0.951 . S
H4590 C4615 0.951 . S
H4591 C4617 0.950 . S
H4592 C4618 0.950 . S
H4593 C4620 0.950 . S
H4594 C4623 0.950 . S
H4595 C4624 0.950 . S
H4596 C4626 0.950 . S
H4597 C4627 0.950 . S
C4598 H4580 0.951 . S
C4598 C4599 1.366 . S
C4598 C4600 1.388 . S
C4599 C4598 1.366 . S
C4599 C4603 1.385 . S
C4600 H4581 0.951 . S
C4600 C4598 1.388 . S
C4600 C4601 1.366 . S
C4601 C4600 1.366 . S
C4601 C4602 1.414 . S
C4601 C4604 1.499 . S
C4602 H4582 0.950 . S
C4602 C4601 1.414 . S
C4602 C4603 1.374 . S
C4603 H4583 0.950 . S
C4603 C4599 1.385 . S
C4603 C4602 1.374 . S
C4604 C4601 1.499 . S
C4604 C4605 1.373 . S
C4604 C4606 1.389 . S
C4605 H4584 0.950 . S
C4605 C4604 1.373 . S
C4605 C4621 1.377 . S
C4606 C4604 1.389 . S
C4606 C4607 1.524 . S
C4606 C4620 1.377 . S
C4607 C4606 1.524 . S
C4607 C4608 1.397 . S
C4607 C4612 1.363 . S
C4608 H4585 0.950 . S
C4608 C4607 1.397 . S
C4608 C4609 1.334 . S
C4609 H4586 0.950 . S
C4609 C4608 1.334 . S
C4609 C4610 1.287 . S
C4610 C4609 1.287 . S
C4610 C4611 1.524 . S
C4610 H4629 0.913 . S
C4611 H4587 0.950 . S
C4611 C4610 1.524 . S
C4611 C4612 1.415 . S
C4612 H4588 0.950 . S
C4612 C4607 1.363 . S
C4612 C4611 1.415 . S
C4613 H4589 0.951 . S
C4613 C4614 1.366 . S
C4613 C4615 1.388 . S
C4614 C4613 1.366 . S
C4614 C4618 1.385 . S
C4615 H4590 0.951 . S
C4615 C4613 1.388 . S
C4615 C4616 1.366 . S
C4616 C4615 1.366 . S
C4616 C4617 1.414 . S
C4616 C4619 1.499 . S
C4617 H4591 0.950 . S
C4617 C4616 1.414 . S
C4617 C4618 1.374 . S
C4618 H4592 0.950 . S
C4618 C4614 1.385 . S
C4618 C4617 1.374 . S
C4619 C4616 1.499 . S
C4619 C4620 1.373 . S
C4619 C4621 1.389 . S
C4620 H4593 0.950 . S
C4620 C4606 1.377 . S
C4620 C4619 1.373 . S
C4621 C4605 1.377 . S
C4621 C4619 1.389 . S
C4621 C4622 1.524 . S
C4622 C4621 1.524 . S
C4622 C4623 1.397 . S
C4622 C4627 1.363 . S
C4623 H4594 0.950 . S
C4623 C4622 1.397 . S
C4623 C4624 1.334 . S
C4624 H4595 0.950 . S
C4624 C4623 1.334 . S
C4624 C4625 1.287 . S
C4625 C4624 1.287 . S
C4625 C4626 1.524 . S
C4625 H4628 0.999 . S
C4626 H4596 0.950 . S
C4626 C4625 1.524 . S
C4626 C4627 1.415 . S
C4627 H4597 0.950 . S
C4627 C4622 1.363 . S
C4627 C4626 1.415 . S
H4628 C4625 0.999 . S
H4629 C4610 0.913 . S
H4630 C4648 0.951 . S
H4631 C4650 0.951 . S
H4632 C4652 0.950 . S
H4633 C4653 0.950 . S
H4634 C4655 0.950 . S
H4635 C4658 0.950 . S
H4636 C4659 0.950 . S
H4637 C4661 0.950 . S
H4638 C4662 0.950 . S
H4639 C4663 0.951 . S
H4640 C4665 0.951 . S
H4641 C4667 0.950 . S
H4642 C4668 0.950 . S
H4643 C4670 0.950 . S
H4644 C4673 0.950 . S
H4645 C4674 0.950 . S
H4646 C4676 0.950 . S
H4647 C4677 0.950 . S
C4648 H4630 0.951 . S
C4648 C4649 1.366 . S
C4648 C4650 1.388 . S
C4649 C4648 1.366 . S
C4649 C4653 1.385 . S
C4650 H4631 0.951 . S
C4650 C4648 1.388 . S
C4650 C4651 1.366 . S
C4651 C4650 1.366 . S
C4651 C4652 1.414 . S
C4651 C4654 1.499 . S
C4652 H4632 0.950 . S
C4652 C4651 1.414 . S
C4652 C4653 1.374 . S
C4653 H4633 0.950 . S
C4653 C4649 1.385 . S
C4653 C4652 1.374 . S
C4654 C4651 1.499 . S
C4654 C4655 1.373 . S
C4654 C4656 1.389 . S
C4655 H4634 0.950 . S
C4655 C4654 1.373 . S
C4655 C4671 1.377 . S
C4656 C4654 1.389 . S
C4656 C4657 1.524 . S
C4656 C4670 1.377 . S
C4657 C4656 1.524 . S
C4657 C4658 1.397 . S
C4657 C4662 1.363 . S
C4658 H4635 0.950 . S
C4658 C4657 1.397 . S
C4658 C4659 1.334 . S
C4659 H4636 0.950 . S
C4659 C4658 1.334 . S
C4659 C4660 1.287 . S
C4660 C4659 1.287 . S
C4660 C4661 1.524 . S
C4660 H4679 0.913 . S
C4661 H4637 0.950 . S
C4661 C4660 1.524 . S
C4661 C4662 1.415 . S
C4662 H4638 0.950 . S
C4662 C4657 1.363 . S
C4662 C4661 1.415 . S
C4663 H4639 0.951 . S
C4663 C4664 1.366 . S
C4663 C4665 1.388 . S
C4664 C4663 1.366 . S
C4664 C4668 1.385 . S
C4665 H4640 0.951 . S
C4665 C4663 1.388 . S
C4665 C4666 1.366 . S
C4666 C4665 1.366 . S
C4666 C4667 1.414 . S
C4666 C4669 1.499 . S
C4667 H4641 0.950 . S
C4667 C4666 1.414 . S
C4667 C4668 1.374 . S
C4668 H4642 0.950 . S
C4668 C4664 1.385 . S
C4668 C4667 1.374 . S
C4669 C4666 1.499 . S
C4669 C4670 1.373 . S
C4669 C4671 1.389 . S
C4670 H4643 0.950 . S
C4670 C4656 1.377 . S
C4670 C4669 1.373 . S
C4671 C4655 1.377 . S
C4671 C4669 1.389 . S
C4671 C4672 1.524 . S
C4672 C4671 1.524 . S
C4672 C4673 1.397 . S
C4672 C4677 1.363 . S
C4673 H4644 0.950 . S
C4673 C4672 1.397 . S
C4673 C4674 1.334 . S
C4674 H4645 0.950 . S
C4674 C4673 1.334 . S
C4674 C4675 1.287 . S
C4675 C4674 1.287 . S
C4675 C4676 1.524 . S
C4675 H4678 0.999 . S
C4676 H4646 0.950 . S
C4676 C4675 1.524 . S
C4676 C4677 1.415 . S
C4677 H4647 0.950 . S
C4677 C4672 1.363 . S
C4677 C4676 1.415 . S
H4678 C4675 0.999 . S
H4679 C4660 0.913 . S
H4680 C4698 0.951 . S
H4681 C4700 0.951 . S
H4682 C4702 0.950 . S
H4683 C4703 0.950 . S
H4684 C4705 0.950 . S
H4685 C4708 0.950 . S
H4686 C4709 0.950 . S
H4687 C4711 0.950 . S
H4688 C4712 0.950 . S
H4689 C4713 0.951 . S
H4690 C4715 0.951 . S
H4691 C4717 0.950 . S
H4692 C4718 0.950 . S
H4693 C4720 0.950 . S
H4694 C4723 0.950 . S
H4695 C4724 0.950 . S
H4696 C4726 0.950 . S
H4697 C4727 0.950 . S
C4698 H4680 0.951 . S
C4698 C4699 1.366 . S
C4698 C4700 1.388 . S
C4699 C4698 1.366 . S
C4699 C4703 1.385 . S
C4700 H4681 0.951 . S
C4700 C4698 1.388 . S
C4700 C4701 1.366 . S
C4701 C4700 1.366 . S
C4701 C4702 1.414 . S
C4701 C4704 1.499 . S
C4702 H4682 0.950 . S
C4702 C4701 1.414 . S
C4702 C4703 1.374 . S
C4703 H4683 0.950 . S
C4703 C4699 1.385 . S
C4703 C4702 1.374 . S
C4704 C4701 1.499 . S
C4704 C4705 1.373 . S
C4704 C4706 1.389 . S
C4705 H4684 0.950 . S
C4705 C4704 1.373 . S
C4705 C4721 1.377 . S
C4706 C4704 1.389 . S
C4706 C4707 1.524 . S
C4706 C4720 1.377 . S
C4707 C4706 1.524 . S
C4707 C4708 1.397 . S
C4707 C4712 1.363 . S
C4708 H4685 0.950 . S
C4708 C4707 1.397 . S
C4708 C4709 1.334 . S
C4709 H4686 0.950 . S
C4709 C4708 1.334 . S
C4709 C4710 1.287 . S
C4710 C4709 1.287 . S
C4710 C4711 1.524 . S
C4710 H4729 0.913 . S
C4711 H4687 0.950 . S
C4711 C4710 1.524 . S
C4711 C4712 1.415 . S
C4712 H4688 0.950 . S
C4712 C4707 1.363 . S
C4712 C4711 1.415 . S
C4713 H4689 0.951 . S
C4713 C4714 1.366 . S
C4713 C4715 1.388 . S
C4714 C4713 1.366 . S
C4714 C4718 1.385 . S
C4715 H4690 0.951 . S
C4715 C4713 1.388 . S
C4715 C4716 1.366 . S
C4716 C4715 1.366 . S
C4716 C4717 1.414 . S
C4716 C4719 1.499 . S
C4717 H4691 0.950 . S
C4717 C4716 1.414 . S
C4717 C4718 1.374 . S
C4718 H4692 0.950 . S
C4718 C4714 1.385 . S
C4718 C4717 1.374 . S
C4719 C4716 1.499 . S
C4719 C4720 1.373 . S
C4719 C4721 1.389 . S
C4720 H4693 0.950 . S
C4720 C4706 1.377 . S
C4720 C4719 1.373 . S
C4721 C4705 1.377 . S
C4721 C4719 1.389 . S
C4721 C4722 1.524 . S
C4722 C4721 1.524 . S
C4722 C4723 1.397 . S
C4722 C4727 1.363 . S
C4723 H4694 0.950 . S
C4723 C4722 1.397 . S
C4723 C4724 1.334 . S
C4724 H4695 0.950 . S
C4724 C4723 1.334 . S
C4724 C4725 1.287 . S
C4725 C4724 1.287 . S
C4725 C4726 1.524 . S
C4725 H4728 0.999 . S
C4726 H4696 0.950 . S
C4726 C4725 1.524 . S
C4726 C4727 1.415 . S
C4727 H4697 0.950 . S
C4727 C4722 1.363 . S
C4727 C4726 1.415 . S
H4728 C4725 0.999 . S
H4729 C4710 0.913 . S
H4730 C4748 0.951 . S
H4731 C4750 0.951 . S
H4732 C4752 0.950 . S
H4733 C4753 0.950 . S
H4734 C4755 0.950 . S
H4735 C4758 0.950 . S
H4736 C4759 0.950 . S
H4737 C4761 0.950 . S
H4738 C4762 0.950 . S
H4739 C4763 0.951 . S
H4740 C4765 0.951 . S
H4741 C4767 0.950 . S
H4742 C4768 0.950 . S
H4743 C4770 0.950 . S
H4744 C4773 0.950 . S
H4745 C4774 0.950 . S
H4746 C4776 0.950 . S
H4747 C4777 0.950 . S
C4748 H4730 0.951 . S
C4748 C4749 1.366 . S
C4748 C4750 1.388 . S
C4749 C4748 1.366 . S
C4749 C4753 1.385 . S
C4750 H4731 0.951 . S
C4750 C4748 1.388 . S
C4750 C4751 1.366 . S
C4751 C4750 1.366 . S
C4751 C4752 1.414 . S
C4751 C4754 1.499 . S
C4752 H4732 0.950 . S
C4752 C4751 1.414 . S
C4752 C4753 1.374 . S
C4753 H4733 0.950 . S
C4753 C4749 1.385 . S
C4753 C4752 1.374 . S
C4754 C4751 1.499 . S
C4754 C4755 1.373 . S
C4754 C4756 1.389 . S
C4755 H4734 0.950 . S
C4755 C4754 1.373 . S
C4755 C4771 1.377 . S
C4756 C4754 1.389 . S
C4756 C4757 1.524 . S
C4756 C4770 1.377 . S
C4757 C4756 1.524 . S
C4757 C4758 1.397 . S
C4757 C4762 1.363 . S
C4758 H4735 0.950 . S
C4758 C4757 1.397 . S
C4758 C4759 1.334 . S
C4759 H4736 0.950 . S
C4759 C4758 1.334 . S
C4759 C4760 1.287 . S
C4760 C4759 1.287 . S
C4760 C4761 1.524 . S
C4760 H4779 0.913 . S
C4761 H4737 0.950 . S
C4761 C4760 1.524 . S
C4761 C4762 1.415 . S
C4762 H4738 0.950 . S
C4762 C4757 1.363 . S
C4762 C4761 1.415 . S
C4763 H4739 0.951 . S
C4763 C4764 1.366 . S
C4763 C4765 1.388 . S
C4764 C4763 1.366 . S
C4764 C4768 1.385 . S
C4765 H4740 0.951 . S
C4765 C4763 1.388 . S
C4765 C4766 1.366 . S
C4766 C4765 1.366 . S
C4766 C4767 1.414 . S
C4766 C4769 1.499 . S
C4767 H4741 0.950 . S
C4767 C4766 1.414 . S
C4767 C4768 1.374 . S
C4768 H4742 0.950 . S
C4768 C4764 1.385 . S
C4768 C4767 1.374 . S
C4769 C4766 1.499 . S
C4769 C4770 1.373 . S
C4769 C4771 1.389 . S
C4770 H4743 0.950 . S
C4770 C4756 1.377 . S
C4770 C4769 1.373 . S
C4771 C4755 1.377 . S
C4771 C4769 1.389 . S
C4771 C4772 1.524 . S
C4772 C4771 1.524 . S
C4772 C4773 1.397 . S
C4772 C4777 1.363 . S
C4773 H4744 0.950 . S
C4773 C4772 1.397 . S
C4773 C4774 1.334 . S
C4774 H4745 0.950 . S
C4774 C4773 1.334 . S
C4774 C4775 1.287 . S
C4775 C4774 1.287 . S
C4775 C4776 1.524 . S
C4775 H4778 0.999 . S
C4776 H4746 0.950 . S
C4776 C4775 1.524 . S
C4776 C4777 1.415 . S
C4777 H4747 0.950 . S
C4777 C4772 1.363 . S
C4777 C4776 1.415 . S
H4778 C4775 0.999 . S
H4779 C4760 0.913 . S
H4780 C4798 0.951 . S
H4781 C4800 0.951 . S
H4782 C4802 0.950 . S
H4783 C4803 0.950 . S
H4784 C4805 0.950 . S
H4785 C4808 0.950 . S
H4786 C4809 0.950 . S
H4787 C4811 0.950 . S
H4788 C4812 0.950 . S
H4789 C4813 0.951 . S
H4790 C4815 0.951 . S
H4791 C4817 0.950 . S
H4792 C4818 0.950 . S
H4793 C4820 0.950 . S
H4794 C4823 0.950 . S
H4795 C4824 0.950 . S
H4796 C4826 0.950 . S
H4797 C4827 0.950 . S
C4798 H4780 0.951 . S
C4798 C4799 1.366 . S
C4798 C4800 1.388 . S
C4799 C4798 1.366 . S
C4799 C4803 1.385 . S
C4800 H4781 0.951 . S
C4800 C4798 1.388 . S
C4800 C4801 1.366 . S
C4801 C4800 1.366 . S
C4801 C4802 1.414 . S
C4801 C4804 1.499 . S
C4802 H4782 0.950 . S
C4802 C4801 1.414 . S
C4802 C4803 1.374 . S
C4803 H4783 0.950 . S
C4803 C4799 1.385 . S
C4803 C4802 1.374 . S
C4804 C4801 1.499 . S
C4804 C4805 1.373 . S
C4804 C4806 1.389 . S
C4805 H4784 0.950 . S
C4805 C4804 1.373 . S
C4805 C4821 1.377 . S
C4806 C4804 1.389 . S
C4806 C4807 1.524 . S
C4806 C4820 1.377 . S
C4807 C4806 1.524 . S
C4807 C4808 1.397 . S
C4807 C4812 1.363 . S
C4808 H4785 0.950 . S
C4808 C4807 1.397 . S
C4808 C4809 1.334 . S
C4809 H4786 0.950 . S
C4809 C4808 1.334 . S
C4809 C4810 1.287 . S
C4810 C4809 1.287 . S
C4810 C4811 1.524 . S
C4810 H4829 0.913 . S
C4811 H4787 0.950 . S
C4811 C4810 1.524 . S
C4811 C4812 1.415 . S
C4812 H4788 0.950 . S
C4812 C4807 1.363 . S
C4812 C4811 1.415 . S
C4813 H4789 0.951 . S
C4813 C4814 1.366 . S
C4813 C4815 1.388 . S
C4814 C4813 1.366 . S
C4814 C4818 1.385 . S
C4815 H4790 0.951 . S
C4815 C4813 1.388 . S
C4815 C4816 1.366 . S
C4816 C4815 1.366 . S
C4816 C4817 1.414 . S
C4816 C4819 1.499 . S
C4817 H4791 0.950 . S
C4817 C4816 1.414 . S
C4817 C4818 1.374 . S
C4818 H4792 0.950 . S
C4818 C4814 1.385 . S
C4818 C4817 1.374 . S
C4819 C4816 1.499 . S
C4819 C4820 1.373 . S
C4819 C4821 1.389 . S
C4820 H4793 0.950 . S
C4820 C4806 1.377 . S
C4820 C4819 1.373 . S
C4821 C4805 1.377 . S
C4821 C4819 1.389 . S
C4821 C4822 1.524 . S
C4822 C4821 1.524 . S
C4822 C4823 1.397 . S
C4822 C4827 1.363 . S
C4823 H4794 0.950 . S
C4823 C4822 1.397 . S
C4823 C4824 1.334 . S
C4824 H4795 0.950 . S
C4824 C4823 1.334 . S
C4824 C4825 1.287 . S
C4825 C4824 1.287 . S
C4825 C4826 1.524 . S
C4825 H4828 0.999 . S
C4826 H4796 0.950 . S
C4826 C4825 1.524 . S
C4826 C4827 1.415 . S
C4827 H4797 0.950 . S
C4827 C4822 1.363 . S
C4827 C4826 1.415 . S
H4828 C4825 0.999 . S
H4829 C4810 0.913 . S
H4830 C4848 0.951 . S
H4831 C4850 0.951 . S
H4832 C4852 0.950 . S
H4833 C4853 0.950 . S
H4834 C4855 0.950 . S
H4835 C4858 0.950 . S
H4836 C4859 0.950 . S
H4837 C4861 0.950 . S
H4838 C4862 0.950 . S
H4839 C4863 0.951 . S
H4840 C4865 0.951 . S
H4841 C4867 0.950 . S
H4842 C4868 0.950 . S
H4843 C4870 0.950 . S
H4844 C4873 0.950 . S
H4845 C4874 0.950 . S
H4846 C4876 0.950 . S
H4847 C4877 0.950 . S
C4848 H4830 0.951 . S
C4848 C4849 1.366 . S
C4848 C4850 1.388 . S
C4849 C4848 1.366 . S
C4849 C4853 1.385 . S
C4850 H4831 0.951 . S
C4850 C4848 1.388 . S
C4850 C4851 1.366 . S
C4851 C4850 1.366 . S
C4851 C4852 1.414 . S
C4851 C4854 1.499 . S
C4852 H4832 0.950 . S
C4852 C4851 1.414 . S
C4852 C4853 1.374 . S
C4853 H4833 0.950 . S
C4853 C4849 1.385 . S
C4853 C4852 1.374 . S
C4854 C4851 1.499 . S
C4854 C4855 1.373 . S
C4854 C4856 1.389 . S
C4855 H4834 0.950 . S
C4855 C4854 1.373 . S
C4855 C4871 1.377 . S
C4856 C4854 1.389 . S
C4856 C4857 1.524 . S
C4856 C4870 1.377 . S
C4857 C4856 1.524 . S
C4857 C4858 1.397 . S
C4857 C4862 1.363 . S
C4858 H4835 0.950 . S
C4858 C4857 1.397 . S
C4858 C4859 1.334 . S
C4859 H4836 0.950 . S
C4859 C4858 1.334 . S
C4859 C4860 1.287 . S
C4860 C4859 1.287 . S
C4860 C4861 1.524 . S
C4860 H4879 0.913 . S
C4861 H4837 0.950 . S
C4861 C4860 1.524 . S
C4861 C4862 1.415 . S
C4862 H4838 0.950 . S
C4862 C4857 1.363 . S
C4862 C4861 1.415 . S
C4863 H4839 0.951 . S
C4863 C4864 1.366 . S
C4863 C4865 1.388 . S
C4864 C4863 1.366 . S
C4864 C4868 1.385 . S
C4865 H4840 0.951 . S
C4865 C4863 1.388 . S
C4865 C4866 1.366 . S
C4866 C4865 1.366 . S
C4866 C4867 1.414 . S
C4866 C4869 1.499 . S
C4867 H4841 0.950 . S
C4867 C4866 1.414 . S
C4867 C4868 1.374 . S
C4868 H4842 0.950 . S
C4868 C4864 1.385 . S
C4868 C4867 1.374 . S
C4869 C4866 1.499 . S
C4869 C4870 1.373 . S
C4869 C4871 1.389 . S
C4870 H4843 0.950 . S
C4870 C4856 1.377 . S
C4870 C4869 1.373 . S
C4871 C4855 1.377 . S
C4871 C4869 1.389 . S
C4871 C4872 1.524 . S
C4872 C4871 1.524 . S
C4872 C4873 1.397 . S
C4872 C4877 1.363 . S
C4873 H4844 0.950 . S
C4873 C4872 1.397 . S
C4873 C4874 1.334 . S
C4874 H4845 0.950 . S
C4874 C4873 1.334 . S
C4874 C4875 1.287 . S
C4875 C4874 1.287 . S
C4875 C4876 1.524 . S
C4875 H4878 0.999 . S
C4876 H4846 0.950 . S
C4876 C4875 1.524 . S
C4876 C4877 1.415 . S
C4877 H4847 0.950 . S
C4877 C4872 1.363 . S
C4877 C4876 1.415 . S
H4878 C4875 0.999 . S
H4879 C4860 0.913 . S
H4880 C4898 0.951 . S
H4881 C4900 0.951 . S
H4882 C4902 0.950 . S
H4883 C4903 0.950 . S
H4884 C4905 0.950 . S
H4885 C4908 0.950 . S
H4886 C4909 0.950 . S
H4887 C4911 0.950 . S
H4888 C4912 0.950 . S
H4889 C4913 0.951 . S
H4890 C4915 0.951 . S
H4891 C4917 0.950 . S
H4892 C4918 0.950 . S
H4893 C4920 0.950 . S
H4894 C4923 0.950 . S
H4895 C4924 0.950 . S
H4896 C4926 0.950 . S
H4897 C4927 0.950 . S
C4898 H4880 0.951 . S
C4898 C4899 1.366 . S
C4898 C4900 1.388 . S
C4899 C4898 1.366 . S
C4899 C4903 1.385 . S
C4900 H4881 0.951 . S
C4900 C4898 1.388 . S
C4900 C4901 1.366 . S
C4901 C4900 1.366 . S
C4901 C4902 1.414 . S
C4901 C4904 1.499 . S
C4902 H4882 0.950 . S
C4902 C4901 1.414 . S
C4902 C4903 1.374 . S
C4903 H4883 0.950 . S
C4903 C4899 1.385 . S
C4903 C4902 1.374 . S
C4904 C4901 1.499 . S
C4904 C4905 1.373 . S
C4904 C4906 1.389 . S
C4905 H4884 0.950 . S
C4905 C4904 1.373 . S
C4905 C4921 1.377 . S
C4906 C4904 1.389 . S
C4906 C4907 1.524 . S
C4906 C4920 1.377 . S
C4907 C4906 1.524 . S
C4907 C4908 1.397 . S
C4907 C4912 1.363 . S
C4908 H4885 0.950 . S
C4908 C4907 1.397 . S
C4908 C4909 1.334 . S
C4909 H4886 0.950 . S
C4909 C4908 1.334 . S
C4909 C4910 1.287 . S
C4910 C4909 1.287 . S
C4910 C4911 1.524 . S
C4910 H4929 0.913 . S
C4911 H4887 0.950 . S
C4911 C4910 1.524 . S
C4911 C4912 1.415 . S
C4912 H4888 0.950 . S
C4912 C4907 1.363 . S
C4912 C4911 1.415 . S
C4913 H4889 0.951 . S
C4913 C4914 1.366 . S
C4913 C4915 1.388 . S
C4914 C4913 1.366 . S
C4914 C4918 1.385 . S
C4915 H4890 0.951 . S
C4915 C4913 1.388 . S
C4915 C4916 1.366 . S
C4916 C4915 1.366 . S
C4916 C4917 1.414 . S
C4916 C4919 1.499 . S
C4917 H4891 0.950 . S
C4917 C4916 1.414 . S
C4917 C4918 1.374 . S
C4918 H4892 0.950 . S
C4918 C4914 1.385 . S
C4918 C4917 1.374 . S
C4919 C4916 1.499 . S
C4919 C4920 1.373 . S
C4919 C4921 1.389 . S
C4920 H4893 0.950 . S
C4920 C4906 1.377 . S
C4920 C4919 1.373 . S
C4921 C4905 1.377 . S
C4921 C4919 1.389 . S
C4921 C4922 1.524 . S
C4922 C4921 1.524 . S
C4922 C4923 1.397 . S
C4922 C4927 1.363 . S
C4923 H4894 0.950 . S
C4923 C4922 1.397 . S
C4923 C4924 1.334 . S
C4924 H4895 0.950 . S
C4924 C4923 1.334 . S
C4924 C4925 1.287 . S
C4925 C4924 1.287 . S
C4925 C4926 1.524 . S
C4925 H4928 0.999 . S
C4926 H4896 0.950 . S
C4926 C4925 1.524 . S
C4926 C4927 1.415 . S
C4927 H4897 0.950 . S
C4927 C4922 1.363 . S
C4927 C4926 1.415 . S
H4928 C4925 0.999 . S
H4929 C4910 0.913 . S
H4930 C4948 0.951 . S
H4931 C4950 0.951 . S
H4932 C4952 0.950 . S
H4933 C4953 0.950 . S
H4934 C4955 0.950 . S
H4935 C4958 0.950 . S
H4936 C4959 0.950 . S
H4937 C4961 0.950 . S
H4938 C4962 0.950 . S
H4939 C4963 0.951 . S
H4940 C4965 0.951 . S
H4941 C4967 0.950 . S
H4942 C4968 0.950 . S
H4943 C4970 0.950 . S
H4944 C4973 0.950 . S
H4945 C4974 0.950 . S
H4946 C4976 0.950 . S
H4947 C4977 0.950 . S
C4948 H4930 0.951 . S
C4948 C4949 1.366 . S
C4948 C4950 1.388 . S
C4949 C4948 1.366 . S
C4949 C4953 1.385 . S
C4950 H4931 0.951 . S
C4950 C4948 1.388 . S
C4950 C4951 1.366 . S
C4951 C4950 1.366 . S
C4951 C4952 1.414 . S
C4951 C4954 1.499 . S
C4952 H4932 0.950 . S
C4952 C4951 1.414 . S
C4952 C4953 1.374 . S
C4953 H4933 0.950 . S
C4953 C4949 1.385 . S
C4953 C4952 1.374 . S
C4954 C4951 1.499 . S
C4954 C4955 1.373 . S
C4954 C4956 1.389 . S
C4955 H4934 0.950 . S
C4955 C4954 1.373 . S
C4955 C4971 1.377 . S
C4956 C4954 1.389 . S
C4956 C4957 1.524 . S
C4956 C4970 1.377 . S
C4957 C4956 1.524 . S
C4957 C4958 1.397 . S
C4957 C4962 1.363 . S
C4958 H4935 0.950 . S
C4958 C4957 1.397 . S
C4958 C4959 1.334 . S
C4959 H4936 0.950 . S
C4959 C4958 1.334 . S
C4959 C4960 1.287 . S
C4960 C4959 1.287 . S
C4960 C4961 1.524 . S
C4960 H4979 0.913 . S
C4961 H4937 0.950 . S
C4961 C4960 1.524 . S
C4961 C4962 1.415 . S
C4962 H4938 0.950 . S
C4962 C4957 1.363 . S
C4962 C4961 1.415 . S
C4963 H4939 0.951 . S
C4963 C4964 1.366 . S
C4963 C4965 1.388 . S
C4964 C4963 1.366 . S
C4964 C4968 1.385 . S
C4965 H4940 0.951 . S
C4965 C4963 1.388 . S
C4965 C4966 1.366 . S
C4966 C4965 1.366 . S
C4966 C4967 1.414 . S
C4966 C4969 1.499 . S
C4967 H4941 0.950 . S
C4967 C4966 1.414 . S
C4967 C4968 1.374 . S
C4968 H4942 0.950 . S
C4968 C4964 1.385 . S
C4968 C4967 1.374 . S
C4969 C4966 1.499 . S
C4969 C4970 1.373 . S
C4969 C4971 1.389 . S
C4970 H4943 0.950 . S
C4970 C4956 1.377 . S
C4970 C4969 1.373 . S
C4971 C4955 1.377 . S
C4971 C4969 1.389 . S
C4971 C4972 1.524 . S
C4972 C4971 1.524 . S
C4972 C4973 1.397 . S
C4972 C4977 1.363 . S
C4973 H4944 0.950 . S
C4973 C4972 1.397 . S
C4973 C4974 1.334 . S
C4974 H4945 0.950 . S
C4974 C4973 1.334 . S
C4974 C4975 1.287 . S
C4975 C4974 1.287 . S
C4975 C4976 1.524 . S
C4975 H4978 0.999 . S
C4976 H4946 0.950 . S
C4976 C4975 1.524 . S
C4976 C4977 1.415 . S
C4977 H4947 0.950 . S
C4977 C4972 1.363 . S
C4977 C4976 1.415 . S
H4978 C4975 0.999 . S
H4979 C4960 0.913 . S
H4980 C4998 0.951 . S
H4981 C5000 0.951 . S
H4982 C5002 0.950 . S
H4983 C5003 0.950 1_545 S
H4984 C5005 0.950 . S
H4985 C5008 0.950 . S
H4986 C5009 0.950 . S
H4987 C5011 0.950 . S
H4988 C5012 0.950 . S
H4989 C5013 0.951 . S
H4990 C5015 0.951 . S
H4991 C5017 0.950 . S
H4992 C5018 0.950 . S
H4993 C5020 0.950 . S
H4994 C5023 0.950 . S
H4995 C5024 0.950 . S
H4996 C5026 0.950 . S
H4997 C5027 0.950 . S
C4998 H4980 0.951 . S
C4998 C4999 1.366 . S
C4998 C5000 1.388 . S
C4999 C4998 1.366 . S
C4999 C5003 1.385 . S
C5000 H4981 0.951 . S
C5000 C4998 1.388 . S
C5000 C5001 1.366 . S
C5001 C5000 1.366 . S
C5001 C5002 1.414 . S
C5001 C5004 1.499 . S
C5002 H4982 0.950 . S
C5002 C5001 1.414 . S
C5002 C5003 1.374 . S
C5003 H4983 0.950 1_565 S
C5003 C4999 1.385 . S
C5003 C5002 1.374 . S
C5004 C5001 1.499 . S
C5004 C5005 1.373 . S
C5004 C5006 1.389 . S
C5005 H4984 0.950 . S
C5005 C5004 1.373 . S
C5005 C5021 1.377 . S
C5006 C5004 1.389 . S
C5006 C5007 1.524 . S
C5006 C5020 1.377 . S
C5007 C5006 1.524 . S
C5007 C5008 1.397 . S
C5007 C5012 1.363 . S
C5008 H4985 0.950 . S
C5008 C5007 1.397 . S
C5008 C5009 1.334 . S
C5009 H4986 0.950 . S
C5009 C5008 1.334 . S
C5009 C5010 1.287 . S
C5010 C5009 1.287 . S
C5010 C5011 1.524 . S
C5010 H5029 0.913 . S
C5011 H4987 0.950 . S
C5011 C5010 1.524 . S
C5011 C5012 1.415 . S
C5012 H4988 0.950 . S
C5012 C5007 1.363 . S
C5012 C5011 1.415 . S
C5013 H4989 0.951 . S
C5013 C5014 1.366 . S
C5013 C5015 1.388 . S
C5014 C5013 1.366 . S
C5014 C5018 1.385 . S
C5015 H4990 0.951 . S
C5015 C5013 1.388 . S
C5015 C5016 1.366 . S
C5016 C5015 1.366 . S
C5016 C5017 1.414 . S
C5016 C5019 1.499 . S
C5017 H4991 0.950 . S
C5017 C5016 1.414 . S
C5017 C5018 1.374 . S
C5018 H4992 0.950 . S
C5018 C5014 1.385 . S
C5018 C5017 1.374 . S
C5019 C5016 1.499 . S
C5019 C5020 1.373 . S
C5019 C5021 1.389 . S
C5020 H4993 0.950 . S
C5020 C5006 1.377 . S
C5020 C5019 1.373 . S
C5021 C5005 1.377 . S
C5021 C5019 1.389 . S
C5021 C5022 1.524 . S
C5022 C5021 1.524 . S
C5022 C5023 1.397 . S
C5022 C5027 1.363 . S
C5023 H4994 0.950 . S
C5023 C5022 1.397 . S
C5023 C5024 1.334 . S
C5024 H4995 0.950 . S
C5024 C5023 1.334 . S
C5024 C5025 1.287 . S
C5025 C5024 1.287 . S
C5025 C5026 1.524 . S
C5025 H5028 0.999 . S
C5026 H4996 0.950 . S
C5026 C5025 1.524 . S
C5026 C5027 1.415 . S
C5027 H4997 0.950 . S
C5027 C5022 1.363 . S
C5027 C5026 1.415 . S
H5028 C5025 0.999 . S
H5029 C5010 0.913 . S
H5030 C5048 0.951 . S
H5031 C5050 0.951 . S
H5032 C5052 0.951 1_556 S
H5033 C5053 0.950 1_556 S
H5034 C5055 0.950 . S
H5035 C5058 0.950 . S
H5036 C5059 0.950 . S
H5037 C5061 0.950 . S
H5038 C5062 0.950 . S
H5039 C5063 0.951 . S
H5040 C5065 0.951 . S
H5041 C5067 0.950 . S
H5042 C5068 0.950 . S
H5043 C5070 0.955 . S
H5044 C5073 0.950 . S
H5045 C5074 0.950 . S
H5046 C5076 0.950 . S
H5047 C5077 0.950 . S
C5048 H5030 0.951 . S
C5048 C5049 1.366 . S
C5048 C5050 1.388 . S
C5049 C5048 1.366 . S
C5049 C5053 1.385 . S
C5050 H5031 0.951 . S
C5050 C5048 1.388 . S
C5050 C5051 1.366 . S
C5051 C5050 1.366 . S
C5051 C5052 1.414 . S
C5051 C5054 1.499 . S
C5052 H5032 0.951 1_554 S
C5052 C5051 1.414 . S
C5052 C5053 1.373 . S
C5053 H5033 0.950 1_554 S
C5053 C5049 1.385 . S
C5053 C5052 1.373 . S
C5054 C5051 1.499 . S
C5054 C5055 1.373 . S
C5054 C5056 1.389 1_554 S
C5055 H5034 0.950 . S
C5055 C5054 1.373 . S
C5055 C5071 1.377 . S
C5056 C5054 1.389 1_556 S
C5056 C5057 1.524 . S
C5056 C5070 1.377 . S
C5057 C5056 1.524 . S
C5057 C5058 1.397 . S
C5057 C5062 1.363 1_565 S
C5058 H5035 0.950 . S
C5058 C5057 1.397 . S
C5058 C5059 1.334 . S
C5059 H5036 0.950 . S
C5059 C5058 1.334 . S
C5059 C5060 1.349 . S
C5060 C5059 1.349 . S
C5060 C5061 1.489 1_565 S
C5060 H5079 0.884 1_565 S
C5061 H5037 0.950 . S
C5061 C5060 1.489 1_545 S
C5061 C5062 1.415 . S
C5062 H5038 0.950 . S
C5062 C5057 1.363 1_545 S
C5062 C5061 1.415 . S
C5063 H5039 0.951 . S
C5063 C5064 1.366 1_565 S
C5063 C5065 1.388 . S
C5064 C5063 1.366 1_545 S
C5064 C5068 1.385 . S
C5065 H5040 0.951 . S
C5065 C5063 1.388 . S
C5065 C5066 1.366 . S
C5066 C5065 1.366 . S
C5066 C5067 1.414 1_565 S
C5066 C5069 1.499 . S
C5067 H5041 0.950 . S
C5067 C5066 1.414 1_545 S
C5067 C5068 1.374 . S
C5068 H5042 0.950 . S
C5068 C5064 1.385 . S
C5068 C5067 1.374 . S
C5069 C5066 1.499 . S
C5069 C5070 1.373 1_554 S
C5069 C5071 1.389 . S
C5070 H5043 0.955 . S
C5070 C5056 1.377 . S
C5070 C5069 1.373 1_556 S
C5071 C5055 1.377 . S
C5071 C5069 1.389 . S
C5071 C5072 1.524 . S
C5072 C5071 1.524 . S
C5072 C5073 1.397 . S
C5072 C5077 1.363 . S
C5073 H5044 0.950 . S
C5073 C5072 1.397 . S
C5073 C5074 1.334 . S
C5074 H5045 0.950 . S
C5074 C5073 1.334 . S
C5074 C5075 1.287 . S
C5075 C5074 1.287 . S
C5075 C5076 1.524 . S
C5075 H5078 0.999 . S
C5076 H5046 0.950 . S
C5076 C5075 1.524 . S
C5076 C5077 1.415 . S
C5077 H5047 0.950 . S
C5077 C5072 1.363 . S
C5077 C5076 1.415 . S
H5078 C5075 0.999 . S
H5079 C5060 0.884 1_545 S
H5080 C5098 0.951 . S
H5081 C5100 0.951 . S
H5082 C5102 0.950 . S
H5083 C5103 0.950 . S
H5084 C5105 0.950 . S
H5085 C5108 0.950 . S
H5086 C5109 0.950 . S
H5087 C5111 0.950 . S
H5088 C5112 0.950 . S
H5089 C5113 0.951 . S
H5090 C5115 0.951 . S
H5091 C5117 0.950 . S
H5092 C5118 0.950 . S
H5093 C5120 0.950 . S
H5094 C5123 0.950 . S
H5095 C5124 0.950 . S
H5096 C5126 0.950 . S
H5097 C5127 0.950 . S
C5098 H5080 0.951 . S
C5098 C5099 1.366 . S
C5098 C5100 1.388 . S
C5099 C5098 1.366 . S
C5099 C5103 1.385 . S
C5100 H5081 0.951 . S
C5100 C5098 1.388 . S
C5100 C5101 1.366 . S
C5101 C5100 1.366 . S
C5101 C5102 1.414 . S
C5101 C5104 1.499 . S
C5102 H5082 0.950 . S
C5102 C5101 1.414 . S
C5102 C5103 1.374 . S
C5103 H5083 0.950 . S
C5103 C5099 1.385 . S
C5103 C5102 1.374 . S
C5104 C5101 1.499 . S
C5104 C5105 1.373 . S
C5104 C5106 1.389 . S
C5105 H5084 0.950 . S
C5105 C5104 1.373 . S
C5105 C5121 1.377 . S
C5106 C5104 1.389 . S
C5106 C5107 1.524 . S
C5106 C5120 1.377 . S
C5107 C5106 1.524 . S
C5107 C5108 1.397 . S
C5107 C5112 1.363 . S
C5108 H5085 0.950 . S
C5108 C5107 1.397 . S
C5108 C5109 1.334 . S
C5109 H5086 0.950 . S
C5109 C5108 1.334 . S
C5109 C5110 1.287 . S
C5110 C5109 1.287 . S
C5110 C5111 1.524 . S
C5110 H5129 0.913 . S
C5111 H5087 0.950 . S
C5111 C5110 1.524 . S
C5111 C5112 1.415 . S
C5112 H5088 0.950 . S
C5112 C5107 1.363 . S
C5112 C5111 1.415 . S
C5113 H5089 0.951 . S
C5113 C5114 1.366 . S
C5113 C5115 1.388 . S
C5114 C5113 1.366 . S
C5114 C5118 1.385 . S
C5115 H5090 0.951 . S
C5115 C5113 1.388 . S
C5115 C5116 1.366 . S
C5116 C5115 1.366 . S
C5116 C5117 1.414 . S
C5116 C5119 1.499 . S
C5117 H5091 0.950 . S
C5117 C5116 1.414 . S
C5117 C5118 1.374 . S
C5118 H5092 0.950 . S
C5118 C5114 1.385 . S
C5118 C5117 1.374 . S
C5119 C5116 1.499 . S
C5119 C5120 1.373 . S
C5119 C5121 1.389 . S
C5120 H5093 0.950 . S
C5120 C5106 1.377 . S
C5120 C5119 1.373 . S
C5121 C5105 1.377 . S
C5121 C5119 1.389 . S
C5121 C5122 1.524 . S
C5122 C5121 1.524 . S
C5122 C5123 1.397 . S
C5122 C5127 1.363 . S
C5123 H5094 0.950 . S
C5123 C5122 1.397 . S
C5123 C5124 1.334 . S
C5124 H5095 0.950 . S
C5124 C5123 1.334 . S
C5124 C5125 1.287 . S
C5125 C5124 1.287 . S
C5125 C5126 1.524 . S
C5125 H5128 0.999 . S
C5126 H5096 0.950 . S
C5126 C5125 1.524 . S
C5126 C5127 1.415 . S
C5127 H5097 0.950 . S
C5127 C5122 1.363 . S
C5127 C5126 1.415 . S
H5128 C5125 0.999 . S
H5129 C5110 0.913 . S
H5130 C5148 0.951 . S
H5131 C5150 0.951 . S
H5132 C5152 0.950 . S
H5133 C5153 0.950 . S
H5134 C5155 0.950 . S
H5135 C5158 0.950 . S
H5136 C5159 0.950 . S
H5137 C5161 0.950 . S
H5138 C5162 0.950 . S
H5139 C5163 0.951 1_556 S
H5140 C5165 0.899 1_556 S
H5141 C5167 0.950 . S
H5142 C5168 0.950 . S
H5143 C5170 0.950 . S
H5144 C5173 0.950 1_554 S
H5145 C5174 0.950 . S
H5146 C5176 0.950 . S
H5147 C5177 0.950 . S
C5148 H5130 0.951 . S
C5148 C5149 1.366 . S
C5148 C5150 1.388 . S
C5149 C5148 1.366 . S
C5149 C5153 1.385 1_554 S
C5150 H5131 0.951 . S
C5150 C5148 1.388 . S
C5150 C5151 1.366 . S
C5151 C5150 1.366 . S
C5151 C5152 1.414 1_554 S
C5151 C5154 1.499 . S
C5152 H5132 0.950 . S
C5152 C5151 1.414 1_556 S
C5152 C5153 1.374 . S
C5153 H5133 0.950 . S
C5153 C5149 1.385 1_556 S
C5153 C5152 1.374 . S
C5154 C5151 1.499 . S
C5154 C5155 1.373 1_554 S
C5154 C5156 1.389 . S
C5155 H5134 0.950 . S
C5155 C5154 1.373 1_556 S
C5155 C5171 1.377 1_556 S
C5156 C5154 1.389 . S
C5156 C5157 1.524 . S
C5156 C5170 1.377 . S
C5157 C5156 1.524 . S
C5157 C5158 1.397 . S
C5157 C5162 1.363 . S
C5158 H5135 0.950 . S
C5158 C5157 1.397 . S
C5158 C5159 1.334 . S
C5159 H5136 0.950 . S
C5159 C5158 1.334 . S
C5159 C5160 1.287 . S
C5160 C5159 1.287 . S
C5160 C5161 1.524 . S
C5160 H5179 0.913 . S
C5161 H5137 0.950 . S
C5161 C5160 1.524 . S
C5161 C5162 1.415 . S
C5162 H5138 0.950 . S
C5162 C5157 1.363 . S
C5162 C5161 1.415 . S
C5163 H5139 0.951 1_554 S
C5163 C5164 1.366 . S
C5163 C5165 1.394 . S
C5164 C5163 1.366 . S
C5164 C5168 1.385 . S
C5165 H5140 0.899 1_554 S
C5165 C5163 1.394 . S
C5165 C5166 1.412 . S
C5166 C5165 1.412 . S
C5166 C5167 1.414 . S
C5166 C5169 1.499 . S
C5167 H5141 0.950 . S
C5167 C5166 1.414 . S
C5167 C5168 1.374 . S
C5168 H5142 0.950 . S
C5168 C5164 1.385 . S
C5168 C5167 1.374 . S
C5169 C5166 1.499 . S
C5169 C5170 1.373 . S
C5169 C5171 1.386 . S
C5170 H5143 0.950 . S
C5170 C5156 1.377 . S
C5170 C5169 1.373 . S
C5171 C5155 1.377 1_554 S
C5171 C5169 1.386 . S
C5171 C5172 1.527 1_554 S
C5172 C5171 1.527 1_556 S
C5172 C5173 1.397 . S
C5172 C5177 1.363 . S
C5173 H5144 0.950 1_556 S
C5173 C5172 1.397 . S
C5173 C5174 1.334 . S
C5174 H5145 0.950 . S
C5174 C5173 1.334 . S
C5174 C5175 1.287 . S
C5175 C5174 1.287 . S
C5175 C5176 1.524 . S
C5175 H5178 0.999 . S
C5176 H5146 0.950 . S
C5176 C5175 1.524 . S
C5176 C5177 1.415 . S
C5177 H5147 0.950 . S
C5177 C5172 1.363 . S
C5177 C5176 1.415 . S
H5178 C5175 0.999 . S
H5179 C5160 0.913 . S
H5180 C5198 0.951 . S
H5181 C5200 0.951 . S
H5182 C5202 0.950 . S
H5183 C5203 0.950 . S
H5184 C5205 0.950 . S
H5185 C5208 0.950 . S
H5186 C5209 0.950 . S
H5187 C5211 0.950 . S
H5188 C5212 0.950 . S
H5189 C5213 0.951 . S
H5190 C5215 0.951 . S
H5191 C5217 0.950 . S
H5192 C5218 0.950 . S
H5193 C5220 0.950 . S
H5194 C5223 0.950 . S
H5195 C5224 0.950 . S
H5196 C5226 0.950 . S
H5197 C5227 0.950 . S
C5198 H5180 0.951 . S
C5198 C5199 1.366 . S
C5198 C5200 1.388 . S
C5199 C5198 1.366 . S
C5199 C5203 1.385 . S
C5200 H5181 0.951 . S
C5200 C5198 1.388 . S
C5200 C5201 1.366 . S
C5201 C5200 1.366 . S
C5201 C5202 1.414 . S
C5201 C5204 1.499 . S
C5202 H5182 0.950 . S
C5202 C5201 1.414 . S
C5202 C5203 1.374 . S
C5203 H5183 0.950 . S
C5203 C5199 1.385 . S
C5203 C5202 1.374 . S
C5204 C5201 1.499 . S
C5204 C5205 1.373 . S
C5204 C5206 1.389 . S
C5205 H5184 0.950 . S
C5205 C5204 1.373 . S
C5205 C5221 1.377 . S
C5206 C5204 1.389 . S
C5206 C5207 1.524 . S
C5206 C5220 1.377 . S
C5207 C5206 1.524 . S
C5207 C5208 1.397 . S
C5207 C5212 1.363 . S
C5208 H5185 0.950 . S
C5208 C5207 1.397 . S
C5208 C5209 1.334 . S
C5209 H5186 0.950 . S
C5209 C5208 1.334 . S
C5209 C5210 1.287 . S
C5210 C5209 1.287 . S
C5210 C5211 1.524 . S
C5210 H5229 0.913 . S
C5211 H5187 0.950 . S
C5211 C5210 1.524 . S
C5211 C5212 1.415 . S
C5212 H5188 0.950 . S
C5212 C5207 1.363 . S
C5212 C5211 1.415 . S
C5213 H5189 0.951 . S
C5213 C5214 1.366 . S
C5213 C5215 1.388 . S
C5214 C5213 1.366 . S
C5214 C5218 1.385 . S
C5215 H5190 0.951 . S
C5215 C5213 1.388 . S
C5215 C5216 1.366 . S
C5216 C5215 1.366 . S
C5216 C5217 1.414 . S
C5216 C5219 1.499 . S
C5217 H5191 0.950 . S
C5217 C5216 1.414 . S
C5217 C5218 1.374 . S
C5218 H5192 0.950 . S
C5218 C5214 1.385 . S
C5218 C5217 1.374 . S
C5219 C5216 1.499 . S
C5219 C5220 1.373 . S
C5219 C5221 1.389 . S
C5220 H5193 0.950 . S
C5220 C5206 1.377 . S
C5220 C5219 1.373 . S
C5221 C5205 1.377 . S
C5221 C5219 1.389 . S
C5221 C5222 1.524 . S
C5222 C5221 1.524 . S
C5222 C5223 1.397 . S
C5222 C5227 1.363 . S
C5223 H5194 0.950 . S
C5223 C5222 1.397 . S
C5223 C5224 1.334 . S
C5224 H5195 0.950 . S
C5224 C5223 1.334 . S
C5224 C5225 1.287 . S
C5225 C5224 1.287 . S
C5225 C5226 1.524 . S
C5225 H5228 0.999 . S
C5226 H5196 0.950 . S
C5226 C5225 1.524 . S
C5226 C5227 1.415 . S
C5227 H5197 0.950 . S
C5227 C5222 1.363 . S
C5227 C5226 1.415 . S
H5228 C5225 0.999 . S
H5229 C5210 0.913 . S
H5230 C5248 0.951 . S
H5231 C5250 0.951 . S
H5232 C5252 0.950 . S
H5233 C5253 0.950 . S
H5234 C5255 0.950 . S
H5235 C5258 0.950 . S
H5236 C5259 0.950 . S
H5237 C5261 0.950 . S
H5238 C5262 0.950 . S
H5239 C5263 0.951 . S
H5240 C5265 0.951 . S
H5241 C5267 0.950 . S
H5242 C5268 0.950 . S
H5243 C5270 0.950 . S
H5244 C5273 0.950 . S
H5245 C5274 0.950 . S
H5246 C5276 0.950 . S
H5247 C5277 0.950 . S
C5248 H5230 0.951 . S
C5248 C5249 1.366 . S
C5248 C5250 1.388 . S
C5249 C5248 1.366 . S
C5249 C5253 1.385 . S
C5250 H5231 0.951 . S
C5250 C5248 1.388 . S
C5250 C5251 1.366 . S
C5251 C5250 1.366 . S
C5251 C5252 1.414 . S
C5251 C5254 1.499 . S
C5252 H5232 0.950 . S
C5252 C5251 1.414 . S
C5252 C5253 1.374 . S
C5253 H5233 0.950 . S
C5253 C5249 1.385 . S
C5253 C5252 1.374 . S
C5254 C5251 1.499 . S
C5254 C5255 1.373 . S
C5254 C5256 1.389 . S
C5255 H5234 0.950 . S
C5255 C5254 1.373 . S
C5255 C5271 1.377 . S
C5256 C5254 1.389 . S
C5256 C5257 1.524 . S
C5256 C5270 1.377 . S
C5257 C5256 1.524 . S
C5257 C5258 1.397 . S
C5257 C5262 1.363 . S
C5258 H5235 0.950 . S
C5258 C5257 1.397 . S
C5258 C5259 1.334 . S
C5259 H5236 0.950 . S
C5259 C5258 1.334 . S
C5259 C5260 1.287 . S
C5260 C5259 1.287 . S
C5260 C5261 1.524 . S
C5260 H5279 0.913 . S
C5261 H5237 0.950 . S
C5261 C5260 1.524 . S
C5261 C5262 1.415 . S
C5262 H5238 0.950 . S
C5262 C5257 1.363 . S
C5262 C5261 1.415 . S
C5263 H5239 0.951 . S
C5263 C5264 1.366 . S
C5263 C5265 1.388 . S
C5264 C5263 1.366 . S
C5264 C5268 1.385 . S
C5265 H5240 0.951 . S
C5265 C5263 1.388 . S
C5265 C5266 1.366 . S
C5266 C5265 1.366 . S
C5266 C5267 1.414 . S
C5266 C5269 1.499 . S
C5267 H5241 0.950 . S
C5267 C5266 1.414 . S
C5267 C5268 1.374 . S
C5268 H5242 0.950 . S
C5268 C5264 1.385 . S
C5268 C5267 1.374 . S
C5269 C5266 1.499 . S
C5269 C5270 1.373 . S
C5269 C5271 1.389 . S
C5270 H5243 0.950 . S
C5270 C5256 1.377 . S
C5270 C5269 1.373 . S
C5271 C5255 1.377 . S
C5271 C5269 1.389 . S
C5271 C5272 1.524 . S
C5272 C5271 1.524 . S
C5272 C5273 1.397 . S
C5272 C5277 1.363 . S
C5273 H5244 0.950 . S
C5273 C5272 1.397 . S
C5273 C5274 1.334 . S
C5274 H5245 0.950 . S
C5274 C5273 1.334 . S
C5274 C5275 1.287 . S
C5275 C5274 1.287 . S
C5275 C5276 1.524 . S
C5275 H5278 0.999 . S
C5276 H5246 0.950 . S
C5276 C5275 1.524 . S
C5276 C5277 1.415 . S
C5277 H5247 0.950 . S
C5277 C5272 1.363 . S
C5277 C5276 1.415 . S
H5278 C5275 0.999 . S
H5279 C5260 0.913 . S
H5280 C5298 0.951 . S
H5281 C5300 0.951 . S
H5282 C5302 0.950 . S
H5283 C5303 0.950 . S
H5284 C5305 0.950 . S
H5285 C5308 0.950 . S
H5286 C5309 0.950 . S
H5287 C5311 0.950 . S
H5288 C5312 0.950 . S
H5289 C5313 0.951 . S
H5290 C5315 0.951 . S
H5291 C5317 0.950 . S
H5292 C5318 0.950 . S
H5293 C5320 0.950 . S
H5294 C5323 0.950 . S
H5295 C5324 0.950 . S
H5296 C5326 0.950 . S
H5297 C5327 0.950 . S
C5298 H5280 0.951 . S
C5298 C5299 1.366 . S
C5298 C5300 1.388 . S
C5299 C5298 1.366 . S
C5299 C5303 1.385 . S
C5300 H5281 0.951 . S
C5300 C5298 1.388 . S
C5300 C5301 1.366 . S
C5301 C5300 1.366 . S
C5301 C5302 1.414 . S
C5301 C5304 1.499 . S
C5302 H5282 0.950 . S
C5302 C5301 1.414 . S
C5302 C5303 1.374 . S
C5303 H5283 0.950 . S
C5303 C5299 1.385 . S
C5303 C5302 1.374 . S
C5304 C5301 1.499 . S
C5304 C5305 1.373 . S
C5304 C5306 1.389 . S
C5305 H5284 0.950 . S
C5305 C5304 1.373 . S
C5305 C5321 1.377 . S
C5306 C5304 1.389 . S
C5306 C5307 1.524 . S
C5306 C5320 1.377 . S
C5307 C5306 1.524 . S
C5307 C5308 1.397 . S
C5307 C5312 1.363 . S
C5308 H5285 0.950 . S
C5308 C5307 1.397 . S
C5308 C5309 1.334 . S
C5309 H5286 0.950 . S
C5309 C5308 1.334 . S
C5309 C5310 1.287 . S
C5310 C5309 1.287 . S
C5310 C5311 1.524 . S
C5310 H5329 0.913 . S
C5311 H5287 0.950 . S
C5311 C5310 1.524 . S
C5311 C5312 1.415 . S
C5312 H5288 0.950 . S
C5312 C5307 1.363 . S
C5312 C5311 1.415 . S
C5313 H5289 0.951 . S
C5313 C5314 1.366 . S
C5313 C5315 1.388 . S
C5314 C5313 1.366 . S
C5314 C5318 1.385 . S
C5315 H5290 0.951 . S
C5315 C5313 1.388 . S
C5315 C5316 1.366 . S
C5316 C5315 1.366 . S
C5316 C5317 1.414 . S
C5316 C5319 1.499 . S
C5317 H5291 0.950 . S
C5317 C5316 1.414 . S
C5317 C5318 1.374 . S
C5318 H5292 0.950 . S
C5318 C5314 1.385 . S
C5318 C5317 1.374 . S
C5319 C5316 1.499 . S
C5319 C5320 1.373 . S
C5319 C5321 1.389 . S
C5320 H5293 0.950 . S
C5320 C5306 1.377 . S
C5320 C5319 1.373 . S
C5321 C5305 1.377 . S
C5321 C5319 1.389 . S
C5321 C5322 1.524 . S
C5322 C5321 1.524 . S
C5322 C5323 1.397 . S
C5322 C5327 1.363 . S
C5323 H5294 0.950 . S
C5323 C5322 1.397 . S
C5323 C5324 1.334 . S
C5324 H5295 0.950 . S
C5324 C5323 1.334 . S
C5324 C5325 1.287 . S
C5325 C5324 1.287 . S
C5325 C5326 1.524 . S
C5325 H5328 0.999 . S
C5326 H5296 0.950 . S
C5326 C5325 1.524 . S
C5326 C5327 1.415 . S
C5327 H5297 0.950 . S
C5327 C5322 1.363 . S
C5327 C5326 1.415 . S
H5328 C5325 0.999 . S
H5329 C5310 0.913 . S
H5330 C5348 0.951 . S
H5331 C5350 0.951 . S
H5332 C5352 0.950 . S
H5333 C5353 0.950 . S
H5334 C5355 0.950 . S
H5335 C5358 0.950 . S
H5336 C5359 0.950 . S
H5337 C5361 0.950 . S
H5338 C5362 0.950 . S
H5339 C5363 0.951 . S
H5340 C5365 0.951 . S
H5341 C5367 0.950 . S
H5342 C5368 0.950 . S
H5343 C5370 0.950 . S
H5344 C5373 0.950 . S
H5345 C5374 0.950 . S
H5346 C5376 0.950 . S
H5347 C5377 0.950 . S
C5348 H5330 0.951 . S
C5348 C5349 1.366 . S
C5348 C5350 1.388 . S
C5349 C5348 1.366 . S
C5349 C5353 1.385 . S
C5350 H5331 0.951 . S
C5350 C5348 1.388 . S
C5350 C5351 1.366 . S
C5351 C5350 1.366 . S
C5351 C5352 1.414 . S
C5351 C5354 1.499 . S
C5352 H5332 0.950 . S
C5352 C5351 1.414 . S
C5352 C5353 1.374 . S
C5353 H5333 0.950 . S
C5353 C5349 1.385 . S
C5353 C5352 1.374 . S
C5354 C5351 1.499 . S
C5354 C5355 1.373 . S
C5354 C5356 1.389 . S
C5355 H5334 0.950 . S
C5355 C5354 1.373 . S
C5355 C5371 1.377 . S
C5356 C5354 1.389 . S
C5356 C5357 1.524 . S
C5356 C5370 1.377 . S
C5357 C5356 1.524 . S
C5357 C5358 1.397 . S
C5357 C5362 1.363 . S
C5358 H5335 0.950 . S
C5358 C5357 1.397 . S
C5358 C5359 1.334 . S
C5359 H5336 0.950 . S
C5359 C5358 1.334 . S
C5359 C5360 1.287 . S
C5360 C5359 1.287 . S
C5360 C5361 1.524 . S
C5360 H5379 0.913 . S
C5361 H5337 0.950 . S
C5361 C5360 1.524 . S
C5361 C5362 1.415 . S
C5362 H5338 0.950 . S
C5362 C5357 1.363 . S
C5362 C5361 1.415 . S
C5363 H5339 0.951 . S
C5363 C5364 1.366 . S
C5363 C5365 1.388 . S
C5364 C5363 1.366 . S
C5364 C5368 1.385 . S
C5365 H5340 0.951 . S
C5365 C5363 1.388 . S
C5365 C5366 1.366 . S
C5366 C5365 1.366 . S
C5366 C5367 1.414 . S
C5366 C5369 1.499 . S
C5367 H5341 0.950 . S
C5367 C5366 1.414 . S
C5367 C5368 1.374 . S
C5368 H5342 0.950 . S
C5368 C5364 1.385 . S
C5368 C5367 1.374 . S
C5369 C5366 1.499 . S
C5369 C5370 1.373 . S
C5369 C5371 1.389 . S
C5370 H5343 0.950 . S
C5370 C5356 1.377 . S
C5370 C5369 1.373 . S
C5371 C5355 1.377 . S
C5371 C5369 1.389 . S
C5371 C5372 1.524 . S
C5372 C5371 1.524 . S
C5372 C5373 1.397 . S
C5372 C5377 1.363 . S
C5373 H5344 0.950 . S
C5373 C5372 1.397 . S
C5373 C5374 1.334 . S
C5374 H5345 0.950 . S
C5374 C5373 1.334 . S
C5374 C5375 1.287 . S
C5375 C5374 1.287 . S
C5375 C5376 1.524 . S
C5375 H5378 0.999 . S
C5376 H5346 0.950 . S
C5376 C5375 1.524 . S
C5376 C5377 1.415 . S
C5377 H5347 0.950 . S
C5377 C5372 1.363 . S
C5377 C5376 1.415 . S
H5378 C5375 0.999 . S
H5379 C5360 0.913 . S
H5380 C5398 0.951 . S
H5381 C5400 0.951 . S
H5382 C5402 0.950 . S
H5383 C5403 0.950 . S
H5384 C5405 0.950 . S
H5385 C5408 0.950 . S
H5386 C5409 0.950 . S
H5387 C5411 0.950 . S
H5388 C5412 0.950 . S
H5389 C5413 0.951 . S
H5390 C5415 0.951 . S
H5391 C5417 0.950 . S
H5392 C5418 0.950 . S
H5393 C5420 0.950 . S
H5394 C5423 0.950 . S
H5395 C5424 0.950 . S
H5396 C5426 0.950 . S
H5397 C5427 0.950 . S
C5398 H5380 0.951 . S
C5398 C5399 1.366 . S
C5398 C5400 1.388 . S
C5399 C5398 1.366 . S
C5399 C5403 1.385 . S
C5400 H5381 0.951 . S
C5400 C5398 1.388 . S
C5400 C5401 1.366 . S
C5401 C5400 1.366 . S
C5401 C5402 1.414 . S
C5401 C5404 1.499 . S
C5402 H5382 0.950 . S
C5402 C5401 1.414 . S
C5402 C5403 1.374 . S
C5403 H5383 0.950 . S
C5403 C5399 1.385 . S
C5403 C5402 1.374 . S
C5404 C5401 1.499 . S
C5404 C5405 1.373 . S
C5404 C5406 1.389 . S
C5405 H5384 0.950 . S
C5405 C5404 1.373 . S
C5405 C5421 1.377 . S
C5406 C5404 1.389 . S
C5406 C5407 1.524 . S
C5406 C5420 1.377 . S
C5407 C5406 1.524 . S
C5407 C5408 1.397 . S
C5407 C5412 1.363 1_455 S
C5408 H5385 0.950 . S
C5408 C5407 1.397 . S
C5408 C5409 1.334 . S
C5409 H5386 0.950 . S
C5409 C5408 1.334 . S
C5409 C5410 1.287 1_455 S
C5410 C5409 1.287 1_655 S
C5410 C5411 1.524 . S
C5410 H5429 0.913 . S
C5411 H5387 0.950 . S
C5411 C5410 1.524 . S
C5411 C5412 1.415 . S
C5412 H5388 0.950 . S
C5412 C5407 1.363 1_655 S
C5412 C5411 1.415 . S
C5413 H5389 0.951 . S
C5413 C5414 1.366 . S
C5413 C5415 1.388 . S
C5414 C5413 1.366 . S
C5414 C5418 1.385 . S
C5415 H5390 0.951 . S
C5415 C5413 1.388 . S
C5415 C5416 1.366 . S
C5416 C5415 1.366 . S
C5416 C5417 1.414 . S
C5416 C5419 1.499 . S
C5417 H5391 0.950 . S
C5417 C5416 1.414 . S
C5417 C5418 1.374 . S
C5418 H5392 0.950 . S
C5418 C5414 1.385 . S
C5418 C5417 1.374 . S
C5419 C5416 1.499 . S
C5419 C5420 1.373 . S
C5419 C5421 1.389 . S
C5420 H5393 0.950 . S
C5420 C5406 1.377 . S
C5420 C5419 1.373 . S
C5421 C5405 1.377 . S
C5421 C5419 1.389 . S
C5421 C5422 1.524 . S
C5422 C5421 1.524 . S
C5422 C5423 1.397 . S
C5422 C5427 1.363 . S
C5423 H5394 0.950 . S
C5423 C5422 1.397 . S
C5423 C5424 1.334 1_554 S
C5424 H5395 0.950 . S
C5424 C5423 1.334 1_556 S
C5424 C5425 1.287 1_556 S
C5425 C5424 1.287 1_554 S
C5425 C5426 1.524 . S
C5425 H5428 0.999 1_554 S
C5426 H5396 0.950 . S
C5426 C5425 1.524 . S
C5426 C5427 1.415 . S
C5427 H5397 0.950 . S
C5427 C5422 1.363 . S
C5427 C5426 1.415 . S
H5428 C5425 0.999 1_556 S
H5429 C5410 0.913 . S
H5430 C5448 0.951 . S
H5431 C5450 0.951 . S
H5432 C5452 0.950 . S
H5433 C5453 0.950 . S
H5434 C5455 0.950 . S
H5435 C5458 0.950 . S
H5436 C5459 0.950 . S
H5437 C5461 0.950 . S
H5438 C5462 0.950 . S
H5439 C5463 0.951 . S
H5440 C5465 0.951 . S
H5441 C5467 0.950 . S
H5442 C5468 0.950 . S
H5443 C5470 0.950 . S
H5444 C5473 0.950 . S
H5445 C5474 0.950 . S
H5446 C5476 0.950 . S
H5447 C5477 0.950 . S
C5448 H5430 0.951 . S
C5448 C5449 1.366 . S
C5448 C5450 1.388 . S
C5449 C5448 1.366 . S
C5449 C5453 1.385 . S
C5450 H5431 0.951 . S
C5450 C5448 1.388 . S
C5450 C5451 1.366 . S
C5451 C5450 1.366 . S
C5451 C5452 1.414 . S
C5451 C5454 1.499 . S
C5452 H5432 0.950 . S
C5452 C5451 1.414 . S
C5452 C5453 1.374 . S
C5453 H5433 0.950 . S
C5453 C5449 1.385 . S
C5453 C5452 1.374 . S
C5454 C5451 1.499 . S
C5454 C5455 1.373 . S
C5454 C5456 1.389 . S
C5455 H5434 0.950 . S
C5455 C5454 1.373 . S
C5455 C5471 1.377 . S
C5456 C5454 1.389 . S
C5456 C5457 1.524 . S
C5456 C5470 1.377 . S
C5457 C5456 1.524 . S
C5457 C5458 1.397 . S
C5457 C5462 1.363 . S
C5458 H5435 0.950 . S
C5458 C5457 1.397 . S
C5458 C5459 1.334 . S
C5459 H5436 0.950 . S
C5459 C5458 1.334 . S
C5459 C5460 1.287 . S
C5460 C5459 1.287 . S
C5460 C5461 1.524 . S
C5460 H5479 0.913 . S
C5461 H5437 0.950 . S
C5461 C5460 1.524 . S
C5461 C5462 1.415 . S
C5462 H5438 0.950 . S
C5462 C5457 1.363 . S
C5462 C5461 1.415 . S
C5463 H5439 0.951 . S
C5463 C5464 1.366 . S
C5463 C5465 1.388 . S
C5464 C5463 1.366 . S
C5464 C5468 1.385 . S
C5465 H5440 0.951 . S
C5465 C5463 1.388 . S
C5465 C5466 1.366 . S
C5466 C5465 1.366 . S
C5466 C5467 1.414 . S
C5466 C5469 1.499 . S
C5467 H5441 0.950 . S
C5467 C5466 1.414 . S
C5467 C5468 1.374 . S
C5468 H5442 0.950 . S
C5468 C5464 1.385 . S
C5468 C5467 1.374 . S
C5469 C5466 1.499 . S
C5469 C5470 1.373 . S
C5469 C5471 1.389 . S
C5470 H5443 0.950 . S
C5470 C5456 1.377 . S
C5470 C5469 1.373 . S
C5471 C5455 1.377 . S
C5471 C5469 1.389 . S
C5471 C5472 1.524 . S
C5472 C5471 1.524 . S
C5472 C5473 1.397 . S
C5472 C5477 1.363 . S
C5473 H5444 0.950 . S
C5473 C5472 1.397 . S
C5473 C5474 1.334 . S
C5474 H5445 0.950 . S
C5474 C5473 1.334 . S
C5474 C5475 1.287 . S
C5475 C5474 1.287 . S
C5475 C5476 1.524 . S
C5475 H5478 0.999 . S
C5476 H5446 0.950 . S
C5476 C5475 1.524 . S
C5476 C5477 1.415 . S
C5477 H5447 0.950 . S
C5477 C5472 1.363 . S
C5477 C5476 1.415 . S
H5478 C5475 0.999 . S
H5479 C5460 0.913 . S
H5480 C5498 0.951 . S
H5481 C5500 0.951 . S
H5482 C5502 0.950 . S
H5483 C5503 0.950 . S
H5484 C5505 0.950 . S
H5485 C5508 0.950 . S
H5486 C5509 0.950 . S
H5487 C5511 0.950 . S
H5488 C5512 0.950 . S
H5489 C5513 0.951 . S
H5490 C5515 0.951 . S
H5491 C5517 0.950 . S
H5492 C5518 0.950 . S
H5493 C5520 0.950 . S
H5494 C5523 0.950 . S
H5495 C5524 0.950 1_554 S
H5496 C5526 0.950 . S
H5497 C5527 0.950 . S
C5498 H5480 0.951 . S
C5498 C5499 1.366 . S
C5498 C5500 1.388 . S
C5499 C5498 1.366 . S
C5499 C5503 1.385 . S
C5500 H5481 0.951 . S
C5500 C5498 1.388 . S
C5500 C5501 1.366 . S
C5501 C5500 1.366 . S
C5501 C5502 1.414 . S
C5501 C5504 1.499 . S
C5502 H5482 0.950 . S
C5502 C5501 1.414 . S
C5502 C5503 1.374 . S
C5503 H5483 0.950 . S
C5503 C5499 1.385 . S
C5503 C5502 1.374 . S
C5504 C5501 1.499 . S
C5504 C5505 1.373 . S
C5504 C5506 1.389 . S
C5505 H5484 0.950 . S
C5505 C5504 1.373 . S
C5505 C5521 1.377 . S
C5506 C5504 1.389 . S
C5506 C5507 1.524 . S
C5506 C5520 1.377 . S
C5507 C5506 1.524 . S
C5507 C5508 1.397 . S
C5507 C5512 1.363 . S
C5508 H5485 0.950 . S
C5508 C5507 1.397 . S
C5508 C5509 1.334 . S
C5509 H5486 0.950 . S
C5509 C5508 1.334 . S
C5509 C5510 1.287 . S
C5510 C5509 1.287 . S
C5510 C5511 1.524 . S
C5510 H5529 0.913 . S
C5511 H5487 0.950 . S
C5511 C5510 1.524 . S
C5511 C5512 1.415 . S
C5512 H5488 0.950 . S
C5512 C5507 1.363 . S
C5512 C5511 1.415 . S
C5513 H5489 0.951 . S
C5513 C5514 1.366 . S
C5513 C5515 1.388 . S
C5514 C5513 1.366 . S
C5514 C5518 1.385 . S
C5515 H5490 0.951 . S
C5515 C5513 1.388 . S
C5515 C5516 1.366 . S
C5516 C5515 1.366 . S
C5516 C5517 1.414 . S
C5516 C5519 1.499 . S
C5517 H5491 0.950 . S
C5517 C5516 1.414 . S
C5517 C5518 1.374 . S
C5518 H5492 0.950 . S
C5518 C5514 1.385 . S
C5518 C5517 1.374 . S
C5519 C5516 1.499 . S
C5519 C5520 1.373 . S
C5519 C5521 1.389 . S
C5520 H5493 0.950 . S
C5520 C5506 1.377 . S
C5520 C5519 1.373 . S
C5521 C5505 1.377 . S
C5521 C5519 1.389 . S
C5521 C5522 1.524 . S
C5522 C5521 1.524 . S
C5522 C5523 1.397 . S
C5522 C5527 1.363 . S
C5523 H5494 0.950 . S
C5523 C5522 1.397 . S
C5523 C5524 1.334 . S
C5524 H5495 0.950 1_556 S
C5524 C5523 1.334 . S
C5524 C5525 1.287 1_556 S
C5525 C5524 1.287 1_554 S
C5525 C5526 1.524 1_554 S
C5525 H5528 0.999 . S
C5526 H5496 0.950 . S
C5526 C5525 1.524 1_556 S
C5526 C5527 1.415 . S
C5527 H5497 0.950 . S
C5527 C5522 1.363 . S
C5527 C5526 1.415 . S
H5528 C5525 0.999 . S
H5529 C5510 0.913 . S
H5530 C5548 0.951 . S
H5531 C5550 0.951 . S
H5532 C5552 0.950 . S
H5533 C5553 0.950 . S
H5534 C5555 0.950 . S
H5535 C5558 0.950 . S
H5536 C5559 0.950 . S
H5537 C5561 0.950 . S
H5538 C5562 0.950 . S
H5539 C5563 0.951 . S
H5540 C5565 0.951 . S
H5541 C5567 0.950 . S
H5542 C5568 0.950 . S
H5543 C5570 0.950 . S
H5544 C5573 0.950 . S
H5545 C5574 0.950 . S
H5546 C5576 0.950 . S
H5547 C5577 0.950 . S
C5548 H5530 0.951 . S
C5548 C5549 1.366 . S
C5548 C5550 1.388 . S
C5549 C5548 1.366 . S
C5549 C5553 1.385 . S
C5550 H5531 0.951 . S
C5550 C5548 1.388 . S
C5550 C5551 1.366 . S
C5551 C5550 1.366 . S
C5551 C5552 1.414 . S
C5551 C5554 1.499 . S
C5552 H5532 0.950 . S
C5552 C5551 1.414 . S
C5552 C5553 1.374 . S
C5553 H5533 0.950 . S
C5553 C5549 1.385 . S
C5553 C5552 1.374 . S
C5554 C5551 1.499 . S
C5554 C5555 1.373 . S
C5554 C5556 1.389 . S
C5555 H5534 0.950 . S
C5555 C5554 1.373 . S
C5555 C5571 1.377 . S
C5556 C5554 1.389 . S
C5556 C5557 1.524 . S
C5556 C5570 1.377 . S
C5557 C5556 1.524 . S
C5557 C5558 1.397 . S
C5557 C5562 1.363 . S
C5558 H5535 0.950 . S
C5558 C5557 1.397 . S
C5558 C5559 1.334 . S
C5559 H5536 0.950 . S
C5559 C5558 1.334 . S
C5559 C5560 1.287 . S
C5560 C5559 1.287 . S
C5560 C5561 1.524 . S
C5560 H5579 0.913 . S
C5561 H5537 0.950 . S
C5561 C5560 1.524 . S
C5561 C5562 1.415 . S
C5562 H5538 0.950 . S
C5562 C5557 1.363 . S
C5562 C5561 1.415 . S
C5563 H5539 0.951 . S
C5563 C5564 1.366 . S
C5563 C5565 1.388 . S
C5564 C5563 1.366 . S
C5564 C5568 1.385 . S
C5565 H5540 0.951 . S
C5565 C5563 1.388 . S
C5565 C5566 1.366 . S
C5566 C5565 1.366 . S
C5566 C5567 1.414 . S
C5566 C5569 1.499 . S
C5567 H5541 0.950 . S
C5567 C5566 1.414 . S
C5567 C5568 1.374 . S
C5568 H5542 0.950 . S
C5568 C5564 1.385 . S
C5568 C5567 1.374 . S
C5569 C5566 1.499 . S
C5569 C5570 1.373 . S
C5569 C5571 1.389 . S
C5570 H5543 0.950 . S
C5570 C5556 1.377 . S
C5570 C5569 1.373 . S
C5571 C5555 1.377 . S
C5571 C5569 1.389 . S
C5571 C5572 1.524 . S
C5572 C5571 1.524 . S
C5572 C5573 1.397 . S
C5572 C5577 1.363 . S
C5573 H5544 0.950 . S
C5573 C5572 1.397 . S
C5573 C5574 1.334 . S
C5574 H5545 0.950 . S
C5574 C5573 1.334 . S
C5574 C5575 1.287 . S
C5575 C5574 1.287 . S
C5575 C5576 1.524 . S
C5575 H5578 0.999 . S
C5576 H5546 0.950 . S
C5576 C5575 1.524 . S
C5576 C5577 1.415 . S
C5577 H5547 0.950 . S
C5577 C5572 1.363 . S
C5577 C5576 1.415 . S
H5578 C5575 0.999 . S
H5579 C5560 0.913 . S
H5580 C5598 0.951 . S
H5581 C5600 0.951 . S
H5582 C5602 0.950 . S
H5583 C5603 0.950 . S
H5584 C5605 0.950 . S
H5585 C5608 0.950 . S
H5586 C5609 0.950 . S
H5587 C5611 0.950 1_655 S
H5588 C5612 0.999 . S
H5589 C5613 0.951 . S
H5590 C5615 0.951 . S
H5591 C5617 0.950 . S
H5592 C5618 0.950 . S
H5593 C5620 0.950 . S
H5594 C5623 0.950 . S
H5595 C5624 0.950 . S
H5596 C5626 0.950 . S
H5597 C5627 0.950 . S
C5598 H5580 0.951 . S
C5598 C5599 1.366 . S
C5598 C5600 1.388 . S
C5599 C5598 1.366 . S
C5599 C5603 1.385 . S
C5600 H5581 0.951 . S
C5600 C5598 1.388 . S
C5600 C5601 1.366 . S
C5601 C5600 1.366 . S
C5601 C5602 1.414 . S
C5601 C5604 1.499 . S
C5602 H5582 0.950 . S
C5602 C5601 1.414 . S
C5602 C5603 1.374 . S
C5603 H5583 0.950 . S
C5603 C5599 1.385 . S
C5603 C5602 1.374 . S
C5604 C5601 1.499 . S
C5604 C5605 1.373 . S
C5604 C5606 1.389 . S
C5605 H5584 0.950 . S
C5605 C5604 1.373 . S
C5605 C5621 1.377 . S
C5606 C5604 1.389 . S
C5606 C5607 1.524 . S
C5606 C5620 1.377 . S
C5607 C5606 1.524 . S
C5607 C5608 1.397 . S
C5607 C5612 1.363 . S
C5608 H5585 0.950 . S
C5608 C5607 1.397 . S
C5608 C5609 1.334 . S
C5609 H5586 0.950 . S
C5609 C5608 1.334 . S
C5609 C5610 1.287 . S
C5610 C5609 1.287 . S
C5610 C5611 1.524 . S
C5610 H5629 0.913 . S
C5611 H5587 0.950 1_455 S
C5611 C5610 1.524 . S
C5611 C5612 1.415 . S
C5612 H5588 0.999 . S
C5612 C5607 1.363 . S
C5612 C5611 1.415 . S
C5613 H5589 0.951 . S
C5613 C5614 1.366 . S
C5613 C5615 1.388 . S
C5614 C5613 1.366 . S
C5614 C5618 1.385 . S
C5615 H5590 0.951 . S
C5615 C5613 1.388 . S
C5615 C5616 1.366 . S
C5616 C5615 1.366 . S
C5616 C5617 1.414 . S
C5616 C5619 1.499 . S
C5617 H5591 0.950 . S
C5617 C5616 1.414 . S
C5617 C5618 1.374 . S
C5618 H5592 0.950 . S
C5618 C5614 1.385 . S
C5618 C5617 1.374 . S
C5619 C5616 1.499 . S
C5619 C5620 1.373 . S
C5619 C5621 1.389 . S
C5620 H5593 0.950 . S
C5620 C5606 1.377 . S
C5620 C5619 1.373 . S
C5621 C5605 1.377 . S
C5621 C5619 1.389 . S
C5621 C5622 1.524 . S
C5622 C5621 1.524 . S
C5622 C5623 1.397 . S
C5622 C5627 1.363 . S
C5623 H5594 0.950 . S
C5623 C5622 1.397 . S
C5623 C5624 1.334 . S
C5624 H5595 0.950 . S
C5624 C5623 1.334 . S
C5624 C5625 1.287 . S
C5625 C5624 1.287 . S
C5625 C5626 1.524 . S
C5625 H5628 0.999 . S
C5626 H5596 0.950 . S
C5626 C5625 1.524 . S
C5626 C5627 1.415 . S
C5627 H5597 0.950 . S
C5627 C5622 1.363 . S
C5627 C5626 1.415 . S
H5628 C5625 0.999 . S
H5629 C5610 0.913 . S
H5630 C5648 0.951 . S
H5631 C5650 0.951 . S
H5632 C5652 0.950 . S
H5633 C5653 0.950 . S
H5634 C5655 0.950 . S
H5635 C5658 0.950 . S
H5636 C5659 0.950 . S
H5637 C5661 0.950 . S
H5638 C5662 0.950 . S
H5639 C5663 0.951 . S
H5640 C5665 0.951 . S
H5641 C5667 0.950 . S
H5642 C5668 0.950 . S
H5643 C5670 0.950 . S
H5644 C5673 0.950 . S
H5645 C5674 0.950 . S
H5646 C5676 0.950 . S
H5647 C5677 0.950 . S
C5648 H5630 0.951 . S
C5648 C5649 1.366 . S
C5648 C5650 1.388 . S
C5649 C5648 1.366 . S
C5649 C5653 1.385 . S
C5650 H5631 0.951 . S
C5650 C5648 1.388 . S
C5650 C5651 1.366 . S
C5651 C5650 1.366 . S
C5651 C5652 1.414 . S
C5651 C5654 1.499 . S
C5652 H5632 0.950 . S
C5652 C5651 1.414 . S
C5652 C5653 1.374 . S
C5653 H5633 0.950 . S
C5653 C5649 1.385 . S
C5653 C5652 1.374 . S
C5654 C5651 1.499 . S
C5654 C5655 1.373 . S
C5654 C5656 1.389 . S
C5655 H5634 0.950 . S
C5655 C5654 1.373 . S
C5655 C5671 1.377 . S
C5656 C5654 1.389 . S
C5656 C5657 1.524 . S
C5656 C5670 1.377 . S
C5657 C5656 1.524 . S
C5657 C5658 1.397 . S
C5657 C5662 1.363 . S
C5658 H5635 0.950 . S
C5658 C5657 1.397 . S
C5658 C5659 1.334 . S
C5659 H5636 0.950 . S
C5659 C5658 1.334 . S
C5659 C5660 1.287 . S
C5660 C5659 1.287 . S
C5660 C5661 1.524 . S
C5660 H5679 0.913 . S
C5661 H5637 0.950 . S
C5661 C5660 1.524 . S
C5661 C5662 1.415 . S
C5662 H5638 0.950 . S
C5662 C5657 1.363 . S
C5662 C5661 1.415 . S
C5663 H5639 0.951 . S
C5663 C5664 1.366 . S
C5663 C5665 1.388 . S
C5664 C5663 1.366 . S
C5664 C5668 1.385 . S
C5665 H5640 0.951 . S
C5665 C5663 1.388 . S
C5665 C5666 1.366 . S
C5666 C5665 1.366 . S
C5666 C5667 1.414 . S
C5666 C5669 1.499 . S
C5667 H5641 0.950 . S
C5667 C5666 1.414 . S
C5667 C5668 1.374 . S
C5668 H5642 0.950 . S
C5668 C5664 1.385 . S
C5668 C5667 1.374 . S
C5669 C5666 1.499 . S
C5669 C5670 1.373 . S
C5669 C5671 1.389 . S
C5670 H5643 0.950 . S
C5670 C5656 1.377 . S
C5670 C5669 1.373 . S
C5671 C5655 1.377 . S
C5671 C5669 1.389 . S
C5671 C5672 1.524 . S
C5672 C5671 1.524 . S
C5672 C5673 1.397 . S
C5672 C5677 1.363 . S
C5673 H5644 0.950 . S
C5673 C5672 1.397 . S
C5673 C5674 1.334 . S
C5674 H5645 0.950 . S
C5674 C5673 1.334 . S
C5674 C5675 1.287 . S
C5675 C5674 1.287 . S
C5675 C5676 1.524 . S
C5675 H5678 0.999 . S
C5676 H5646 0.950 . S
C5676 C5675 1.524 . S
C5676 C5677 1.415 . S
C5677 H5647 0.950 . S
C5677 C5672 1.363 . S
C5677 C5676 1.415 . S
H5678 C5675 0.999 . S
H5679 C5660 0.913 . S
H5680 C5698 0.951 . S
H5681 C5700 0.951 . S
H5682 C5702 0.950 . S
H5683 C5703 0.950 . S
H5684 C5705 0.950 . S
H5685 C5708 0.950 . S
H5686 C5709 0.950 . S
H5687 C5711 0.950 . S
H5688 C5712 0.950 . S
H5689 C5713 0.951 . S
H5690 C5715 0.951 . S
H5691 C5717 0.950 . S
H5692 C5718 0.950 . S
H5693 C5720 0.950 . S
H5694 C5723 0.950 . S
H5695 C5724 0.950 . S
H5696 C5726 0.950 . S
H5697 C5727 0.950 . S
C5698 H5680 0.951 . S
C5698 C5699 1.366 . S
C5698 C5700 1.388 . S
C5699 C5698 1.366 . S
C5699 C5703 1.385 . S
C5700 H5681 0.951 . S
C5700 C5698 1.388 . S
C5700 C5701 1.366 . S
C5701 C5700 1.366 . S
C5701 C5702 1.414 . S
C5701 C5704 1.499 . S
C5702 H5682 0.950 . S
C5702 C5701 1.414 . S
C5702 C5703 1.374 . S
C5703 H5683 0.950 . S
C5703 C5699 1.385 . S
C5703 C5702 1.374 . S
C5704 C5701 1.499 . S
C5704 C5705 1.373 . S
C5704 C5706 1.389 . S
C5705 H5684 0.950 . S
C5705 C5704 1.373 . S
C5705 C5721 1.377 . S
C5706 C5704 1.389 . S
C5706 C5707 1.524 . S
C5706 C5720 1.377 . S
C5707 C5706 1.524 . S
C5707 C5708 1.397 . S
C5707 C5712 1.363 . S
C5708 H5685 0.950 . S
C5708 C5707 1.397 . S
C5708 C5709 1.334 . S
C5709 H5686 0.950 . S
C5709 C5708 1.334 . S
C5709 C5710 1.287 . S
C5710 C5709 1.287 . S
C5710 C5711 1.524 . S
C5710 H5729 0.913 . S
C5711 H5687 0.950 . S
C5711 C5710 1.524 . S
C5711 C5712 1.415 . S
C5712 H5688 0.950 . S
C5712 C5707 1.363 . S
C5712 C5711 1.415 . S
C5713 H5689 0.951 . S
C5713 C5714 1.366 . S
C5713 C5715 1.388 . S
C5714 C5713 1.366 . S
C5714 C5718 1.385 . S
C5715 H5690 0.951 . S
C5715 C5713 1.388 . S
C5715 C5716 1.366 . S
C5716 C5715 1.366 . S
C5716 C5717 1.414 . S
C5716 C5719 1.499 . S
C5717 H5691 0.950 . S
C5717 C5716 1.414 . S
C5717 C5718 1.374 . S
C5718 H5692 0.950 . S
C5718 C5714 1.385 . S
C5718 C5717 1.374 . S
C5719 C5716 1.499 . S
C5719 C5720 1.373 . S
C5719 C5721 1.389 . S
C5720 H5693 0.950 . S
C5720 C5706 1.377 . S
C5720 C5719 1.373 . S
C5721 C5705 1.377 . S
C5721 C5719 1.389 . S
C5721 C5722 1.524 . S
C5722 C5721 1.524 . S
C5722 C5723 1.397 . S
C5722 C5727 1.363 . S
C5723 H5694 0.950 . S
C5723 C5722 1.397 . S
C5723 C5724 1.334 . S
C5724 H5695 0.950 . S
C5724 C5723 1.334 . S
C5724 C5725 1.287 . S
C5725 C5724 1.287 . S
C5725 C5726 1.524 . S
C5725 H5728 0.999 . S
C5726 H5696 0.950 . S
C5726 C5725 1.524 . S
C5726 C5727 1.415 . S
C5727 H5697 0.950 . S
C5727 C5722 1.363 . S
C5727 C5726 1.415 . S
H5728 C5725 0.999 . S
H5729 C5710 0.913 . S
H5730 C5748 0.951 . S
H5731 C5750 0.951 . S
H5732 C5752 0.950 . S
H5733 C5753 0.950 . S
H5734 C5755 0.950 . S
H5735 C5758 0.950 . S
H5736 C5759 0.950 . S
H5737 C5761 0.950 . S
H5738 C5762 0.950 . S
H5739 C5763 0.951 . S
H5740 C5765 0.951 . S
H5741 C5767 0.950 . S
H5742 C5768 0.950 . S
H5743 C5770 0.950 . S
H5744 C5773 0.950 . S
H5745 C5774 0.950 . S
H5746 C5776 0.950 . S
H5747 C5777 0.950 . S
C5748 H5730 0.951 . S
C5748 C5749 1.366 . S
C5748 C5750 1.388 . S
C5749 C5748 1.366 . S
C5749 C5753 1.385 . S
C5750 H5731 0.951 . S
C5750 C5748 1.388 . S
C5750 C5751 1.366 . S
C5751 C5750 1.366 . S
C5751 C5752 1.414 . S
C5751 C5754 1.499 . S
C5752 H5732 0.950 . S
C5752 C5751 1.414 . S
C5752 C5753 1.374 . S
C5753 H5733 0.950 . S
C5753 C5749 1.385 . S
C5753 C5752 1.374 . S
C5754 C5751 1.499 . S
C5754 C5755 1.373 . S
C5754 C5756 1.389 . S
C5755 H5734 0.950 . S
C5755 C5754 1.373 . S
C5755 C5771 1.377 . S
C5756 C5754 1.389 . S
C5756 C5757 1.524 . S
C5756 C5770 1.377 . S
C5757 C5756 1.524 . S
C5757 C5758 1.397 . S
C5757 C5762 1.363 . S
C5758 H5735 0.950 . S
C5758 C5757 1.397 . S
C5758 C5759 1.334 . S
C5759 H5736 0.950 . S
C5759 C5758 1.334 . S
C5759 C5760 1.287 . S
C5760 C5759 1.287 . S
C5760 C5761 1.524 . S
C5760 H5779 0.913 . S
C5761 H5737 0.950 . S
C5761 C5760 1.524 . S
C5761 C5762 1.415 . S
C5762 H5738 0.950 . S
C5762 C5757 1.363 . S
C5762 C5761 1.415 . S
C5763 H5739 0.951 . S
C5763 C5764 1.366 . S
C5763 C5765 1.388 . S
C5764 C5763 1.366 . S
C5764 C5768 1.385 . S
C5765 H5740 0.951 . S
C5765 C5763 1.388 . S
C5765 C5766 1.366 . S
C5766 C5765 1.366 . S
C5766 C5767 1.414 . S
C5766 C5769 1.499 . S
C5767 H5741 0.950 . S
C5767 C5766 1.414 . S
C5767 C5768 1.374 . S
C5768 H5742 0.950 . S
C5768 C5764 1.385 . S
C5768 C5767 1.374 . S
C5769 C5766 1.499 . S
C5769 C5770 1.373 . S
C5769 C5771 1.389 . S
C5770 H5743 0.950 . S
C5770 C5756 1.377 . S
C5770 C5769 1.373 . S
C5771 C5755 1.377 . S
C5771 C5769 1.389 . S
C5771 C5772 1.524 . S
C5772 C5771 1.524 . S
C5772 C5773 1.397 . S
C5772 C5777 1.363 . S
C5773 H5744 0.950 . S
C5773 C5772 1.397 . S
C5773 C5774 1.334 . S
C5774 H5745 0.950 . S
C5774 C5773 1.334 . S
C5774 C5775 1.287 . S
C5775 C5774 1.287 . S
C5775 C5776 1.524 . S
C5775 H5778 0.999 . S
C5776 H5746 0.950 . S
C5776 C5775 1.524 . S
C5776 C5777 1.415 . S
C5777 H5747 0.950 . S
C5777 C5772 1.363 . S
C5777 C5776 1.415 . S
H5778 C5775 0.999 . S
H5779 C5760 0.913 . S
H5780 C5798 0.951 . S
H5781 C5800 0.951 . S
H5782 C5802 0.950 . S
H5783 C5803 0.950 . S
H5784 C5805 0.950 . S
H5785 C5808 0.950 . S
H5786 C5809 0.950 . S
H5787 C5811 0.950 . S
H5788 C5812 0.950 . S
H5789 C5813 0.951 . S
H5790 C5815 0.980 . S
H5791 C5817 0.950 . S
H5792 C5818 0.950 . S
H5793 C5820 0.950 . S
H5794 C5823 0.950 . S
H5795 C5824 0.950 . S
H5796 C5826 0.950 . S
H5797 C5827 0.950 . S
C5798 H5780 0.951 . S
C5798 C5799 1.366 . S
C5798 C5800 1.388 . S
C5799 C5798 1.366 . S
C5799 C5803 1.385 . S
C5800 H5781 0.951 . S
C5800 C5798 1.388 . S
C5800 C5801 1.366 . S
C5801 C5800 1.366 . S
C5801 C5802 1.414 . S
C5801 C5804 1.499 . S
C5802 H5782 0.950 . S
C5802 C5801 1.414 . S
C5802 C5803 1.374 . S
C5803 H5783 0.950 . S
C5803 C5799 1.385 . S
C5803 C5802 1.374 . S
C5804 C5801 1.499 . S
C5804 C5805 1.373 . S
C5804 C5806 1.389 . S
C5805 H5784 0.950 . S
C5805 C5804 1.373 . S
C5805 C5821 1.377 . S
C5806 C5804 1.389 . S
C5806 C5807 1.524 . S
C5806 C5820 1.377 . S
C5807 C5806 1.524 . S
C5807 C5808 1.397 . S
C5807 C5812 1.363 . S
C5808 H5785 0.950 . S
C5808 C5807 1.397 . S
C5808 C5809 1.334 . S
C5809 H5786 0.950 . S
C5809 C5808 1.334 . S
C5809 C5810 1.287 . S
C5810 C5809 1.287 . S
C5810 C5811 1.524 . S
C5810 H5829 0.913 . S
C5811 H5787 0.950 . S
C5811 C5810 1.524 . S
C5811 C5812 1.415 . S
C5812 H5788 0.950 . S
C5812 C5807 1.363 . S
C5812 C5811 1.415 . S
C5813 H5789 0.951 . S
C5813 C5814 1.366 1_455 S
C5813 C5815 1.388 1_455 S
C5814 C5813 1.366 1_655 S
C5814 C5818 1.385 . S
C5815 H5790 0.980 . S
C5815 C5813 1.388 1_655 S
C5815 C5816 1.366 . S
C5816 C5815 1.366 . S
C5816 C5817 1.414 . S
C5816 C5819 1.499 . S
C5817 H5791 0.950 . S
C5817 C5816 1.414 . S
C5817 C5818 1.374 . S
C5818 H5792 0.950 . S
C5818 C5814 1.385 . S
C5818 C5817 1.374 . S
C5819 C5816 1.499 . S
C5819 C5820 1.373 . S
C5819 C5821 1.389 . S
C5820 H5793 0.950 . S
C5820 C5806 1.377 . S
C5820 C5819 1.373 . S
C5821 C5805 1.377 . S
C5821 C5819 1.389 . S
C5821 C5822 1.524 . S
C5822 C5821 1.524 . S
C5822 C5823 1.397 . S
C5822 C5827 1.363 . S
C5823 H5794 0.950 . S
C5823 C5822 1.397 . S
C5823 C5824 1.334 . S
C5824 H5795 0.950 . S
C5824 C5823 1.334 . S
C5824 C5825 1.287 1_655 S
C5825 C5824 1.287 1_455 S
C5825 C5826 1.524 . S
C5825 H5828 0.999 . S
C5826 H5796 0.950 . S
C5826 C5825 1.524 . S
C5826 C5827 1.415 1_455 S
C5827 H5797 0.950 . S
C5827 C5822 1.363 . S
C5827 C5826 1.415 1_655 S
H5828 C5825 0.999 . S
H5829 C5810 0.913 . S
H5830 C5848 0.951 . S
H5831 C5850 0.951 . S
H5832 C5852 0.950 . S
H5833 C5853 0.950 . S
H5834 C5855 0.950 . S
H5835 C5858 0.950 . S
H5836 C5859 0.950 . S
H5837 C5861 0.950 . S
H5838 C5862 0.950 . S
H5839 C5863 0.951 . S
H5840 C5865 0.951 . S
H5841 C5867 0.950 . S
H5842 C5868 0.950 . S
H5843 C5870 0.950 . S
H5844 C5873 0.950 . S
H5845 C5874 0.950 . S
H5846 C5876 0.950 . S
H5847 C5877 0.950 . S
C5848 H5830 0.951 . S
C5848 C5849 1.366 . S
C5848 C5850 1.388 . S
C5849 C5848 1.366 . S
C5849 C5853 1.385 . S
C5850 H5831 0.951 . S
C5850 C5848 1.388 . S
C5850 C5851 1.366 . S
C5851 C5850 1.366 . S
C5851 C5852 1.414 . S
C5851 C5854 1.499 . S
C5852 H5832 0.950 . S
C5852 C5851 1.414 . S
C5852 C5853 1.374 . S
C5853 H5833 0.950 . S
C5853 C5849 1.385 . S
C5853 C5852 1.374 . S
C5854 C5851 1.499 . S
C5854 C5855 1.373 . S
C5854 C5856 1.389 . S
C5855 H5834 0.950 . S
C5855 C5854 1.373 . S
C5855 C5871 1.377 . S
C5856 C5854 1.389 . S
C5856 C5857 1.524 . S
C5856 C5870 1.377 . S
C5857 C5856 1.524 . S
C5857 C5858 1.397 . S
C5857 C5862 1.363 . S
C5858 H5835 0.950 . S
C5858 C5857 1.397 . S
C5858 C5859 1.334 . S
C5859 H5836 0.950 . S
C5859 C5858 1.334 . S
C5859 C5860 1.287 . S
C5860 C5859 1.287 . S
C5860 C5861 1.524 . S
C5860 H5879 0.913 . S
C5861 H5837 0.950 . S
C5861 C5860 1.524 . S
C5861 C5862 1.415 . S
C5862 H5838 0.950 . S
C5862 C5857 1.363 . S
C5862 C5861 1.415 . S
C5863 H5839 0.951 . S
C5863 C5864 1.366 . S
C5863 C5865 1.388 . S
C5864 C5863 1.366 . S
C5864 C5868 1.385 . S
C5865 H5840 0.951 . S
C5865 C5863 1.388 . S
C5865 C5866 1.366 . S
C5866 C5865 1.366 . S
C5866 C5867 1.414 . S
C5866 C5869 1.499 . S
C5867 H5841 0.950 . S
C5867 C5866 1.414 . S
C5867 C5868 1.374 . S
C5868 H5842 0.950 . S
C5868 C5864 1.385 . S
C5868 C5867 1.374 . S
C5869 C5866 1.499 . S
C5869 C5870 1.373 . S
C5869 C5871 1.389 . S
C5870 H5843 0.950 . S
C5870 C5856 1.377 . S
C5870 C5869 1.373 . S
C5871 C5855 1.377 . S
C5871 C5869 1.389 . S
C5871 C5872 1.524 . S
C5872 C5871 1.524 . S
C5872 C5873 1.397 . S
C5872 C5877 1.363 . S
C5873 H5844 0.950 . S
C5873 C5872 1.397 . S
C5873 C5874 1.334 . S
C5874 H5845 0.950 . S
C5874 C5873 1.334 . S
C5874 C5875 1.287 . S
C5875 C5874 1.287 . S
C5875 C5876 1.524 . S
C5875 H5878 0.999 . S
C5876 H5846 0.950 . S
C5876 C5875 1.524 . S
C5876 C5877 1.415 . S
C5877 H5847 0.950 . S
C5877 C5872 1.363 . S
C5877 C5876 1.415 . S
H5878 C5875 0.999 . S
H5879 C5860 0.913 . S
H5880 C5898 0.951 . S
H5881 C5900 0.951 . S
H5882 C5902 0.950 . S
H5883 C5903 0.950 . S
H5884 C5905 0.950 . S
H5885 C5908 0.950 . S
H5886 C5909 0.950 . S
H5887 C5911 0.950 . S
H5888 C5912 0.950 . S
H5889 C5913 0.951 . S
H5890 C5915 0.951 . S
H5891 C5917 0.950 . S
H5892 C5918 0.950 . S
H5893 C5920 0.950 . S
H5894 C5923 0.950 . S
H5895 C5924 0.950 . S
H5896 C5926 0.950 . S
H5897 C5927 0.950 . S
C5898 H5880 0.951 . S
C5898 C5899 1.366 . S
C5898 C5900 1.388 . S
C5899 C5898 1.366 . S
C5899 C5903 1.385 . S
C5900 H5881 0.951 . S
C5900 C5898 1.388 . S
C5900 C5901 1.366 . S
C5901 C5900 1.366 . S
C5901 C5902 1.414 . S
C5901 C5904 1.499 . S
C5902 H5882 0.950 . S
C5902 C5901 1.414 . S
C5902 C5903 1.374 . S
C5903 H5883 0.950 . S
C5903 C5899 1.385 . S
C5903 C5902 1.374 . S
C5904 C5901 1.499 . S
C5904 C5905 1.373 . S
C5904 C5906 1.389 . S
C5905 H5884 0.950 . S
C5905 C5904 1.373 . S
C5905 C5921 1.377 . S
C5906 C5904 1.389 . S
C5906 C5907 1.524 . S
C5906 C5920 1.377 . S
C5907 C5906 1.524 . S
C5907 C5908 1.397 . S
C5907 C5912 1.363 . S
C5908 H5885 0.950 . S
C5908 C5907 1.397 . S
C5908 C5909 1.334 . S
C5909 H5886 0.950 . S
C5909 C5908 1.334 . S
C5909 C5910 1.287 . S
C5910 C5909 1.287 . S
C5910 C5911 1.524 . S
C5910 H5929 0.913 . S
C5911 H5887 0.950 . S
C5911 C5910 1.524 . S
C5911 C5912 1.415 . S
C5912 H5888 0.950 . S
C5912 C5907 1.363 . S
C5912 C5911 1.415 . S
C5913 H5889 0.951 . S
C5913 C5914 1.366 . S
C5913 C5915 1.388 . S
C5914 C5913 1.366 . S
C5914 C5918 1.385 . S
C5915 H5890 0.951 . S
C5915 C5913 1.388 . S
C5915 C5916 1.366 . S
C5916 C5915 1.366 . S
C5916 C5917 1.414 . S
C5916 C5919 1.499 . S
C5917 H5891 0.950 . S
C5917 C5916 1.414 . S
C5917 C5918 1.374 . S
C5918 H5892 0.950 . S
C5918 C5914 1.385 . S
C5918 C5917 1.374 . S
C5919 C5916 1.499 . S
C5919 C5920 1.373 . S
C5919 C5921 1.389 . S
C5920 H5893 0.950 . S
C5920 C5906 1.377 . S
C5920 C5919 1.373 . S
C5921 C5905 1.377 . S
C5921 C5919 1.389 . S
C5921 C5922 1.524 . S
C5922 C5921 1.524 . S
C5922 C5923 1.397 . S
C5922 C5927 1.363 . S
C5923 H5894 0.950 . S
C5923 C5922 1.397 . S
C5923 C5924 1.334 . S
C5924 H5895 0.950 . S
C5924 C5923 1.334 . S
C5924 C5925 1.287 . S
C5925 C5924 1.287 . S
C5925 C5926 1.524 . S
C5925 H5928 0.999 . S
C5926 H5896 0.950 . S
C5926 C5925 1.524 . S
C5926 C5927 1.415 . S
C5927 H5897 0.950 . S
C5927 C5922 1.363 . S
C5927 C5926 1.415 . S
H5928 C5925 0.999 . S
H5929 C5910 0.913 . S
H5930 C5948 0.951 . S
H5931 C5950 0.951 . S
H5932 C5952 0.950 . S
H5933 C5953 0.950 . S
H5934 C5955 0.950 . S
H5935 C5958 0.950 . S
H5936 C5959 0.950 . S
H5937 C5961 0.950 . S
H5938 C5962 0.950 . S
H5939 C5963 0.951 . S
H5940 C5965 0.951 . S
H5941 C5967 0.950 . S
H5942 C5968 0.950 . S
H5943 C5970 0.950 . S
H5944 C5973 0.950 . S
H5945 C5974 0.950 . S
H5946 C5976 0.950 . S
H5947 C5977 0.950 . S
C5948 H5930 0.951 . S
C5948 C5949 1.366 . S
C5948 C5950 1.388 . S
C5949 C5948 1.366 . S
C5949 C5953 1.385 . S
C5950 H5931 0.951 . S
C5950 C5948 1.388 . S
C5950 C5951 1.366 . S
C5951 C5950 1.366 . S
C5951 C5952 1.414 . S
C5951 C5954 1.499 . S
C5952 H5932 0.950 . S
C5952 C5951 1.414 . S
C5952 C5953 1.374 . S
C5953 H5933 0.950 . S
C5953 C5949 1.385 . S
C5953 C5952 1.374 . S
C5954 C5951 1.499 . S
C5954 C5955 1.373 . S
C5954 C5956 1.389 . S
C5955 H5934 0.950 . S
C5955 C5954 1.373 . S
C5955 C5971 1.377 . S
C5956 C5954 1.389 . S
C5956 C5957 1.524 . S
C5956 C5970 1.377 . S
C5957 C5956 1.524 . S
C5957 C5958 1.397 . S
C5957 C5962 1.363 . S
C5958 H5935 0.950 . S
C5958 C5957 1.397 . S
C5958 C5959 1.334 . S
C5959 H5936 0.950 . S
C5959 C5958 1.334 . S
C5959 C5960 1.287 . S
C5960 C5959 1.287 . S
C5960 C5961 1.524 . S
C5960 H5979 0.913 . S
C5961 H5937 0.950 . S
C5961 C5960 1.524 . S
C5961 C5962 1.415 . S
C5962 H5938 0.950 . S
C5962 C5957 1.363 . S
C5962 C5961 1.415 . S
C5963 H5939 0.951 . S
C5963 C5964 1.366 . S
C5963 C5965 1.388 . S
C5964 C5963 1.366 . S
C5964 C5968 1.385 . S
C5965 H5940 0.951 . S
C5965 C5963 1.388 . S
C5965 C5966 1.366 . S
C5966 C5965 1.366 . S
C5966 C5967 1.414 . S
C5966 C5969 1.499 . S
C5967 H5941 0.950 . S
C5967 C5966 1.414 . S
C5967 C5968 1.374 . S
C5968 H5942 0.950 . S
C5968 C5964 1.385 . S
C5968 C5967 1.374 . S
C5969 C5966 1.499 . S
C5969 C5970 1.373 . S
C5969 C5971 1.389 . S
C5970 H5943 0.950 . S
C5970 C5956 1.377 . S
C5970 C5969 1.373 . S
C5971 C5955 1.377 . S
C5971 C5969 1.389 . S
C5971 C5972 1.524 . S
C5972 C5971 1.524 . S
C5972 C5973 1.397 . S
C5972 C5977 1.363 . S
C5973 H5944 0.950 . S
C5973 C5972 1.397 . S
C5973 C5974 1.334 . S
C5974 H5945 0.950 . S
C5974 C5973 1.334 . S
C5974 C5975 1.287 . S
C5975 C5974 1.287 . S
C5975 C5976 1.524 . S
C5975 H5978 0.999 . S
C5976 H5946 0.950 . S
C5976 C5975 1.524 . S
C5976 C5977 1.415 . S
C5977 H5947 0.950 . S
C5977 C5972 1.363 . S
C5977 C5976 1.415 . S
H5978 C5975 0.999 . S
H5979 C5960 0.913 . S
H5980 C5998 0.951 . S
H5981 C6000 0.951 . S
H5982 C6002 0.950 . S
H5983 C6003 0.950 . S
H5984 C6005 0.950 . S
H5985 C6008 0.950 . S
H5986 C6009 0.950 . S
H5987 C6011 0.950 . S
H5988 C6012 0.950 . S
H5989 C6013 0.951 . S
H5990 C6015 0.951 . S
H5991 C6017 0.950 . S
H5992 C6018 0.950 . S
H5993 C6020 0.950 . S
H5994 C6023 0.950 . S
H5995 C6024 0.950 . S
H5996 C6026 0.950 . S
H5997 C6027 0.950 . S
C5998 H5980 0.951 . S
C5998 C5999 1.366 . S
C5998 C6000 1.388 . S
C5999 C5998 1.366 . S
C5999 C6003 1.385 . S
C6000 H5981 0.951 . S
C6000 C5998 1.388 . S
C6000 C6001 1.366 . S
C6001 C6000 1.366 . S
C6001 C6002 1.414 . S
C6001 C6004 1.499 . S
C6002 H5982 0.950 . S
C6002 C6001 1.414 . S
C6002 C6003 1.374 . S
C6003 H5983 0.950 . S
C6003 C5999 1.385 . S
C6003 C6002 1.374 . S
C6004 C6001 1.499 . S
C6004 C6005 1.373 . S
C6004 C6006 1.389 . S
C6005 H5984 0.950 . S
C6005 C6004 1.373 . S
C6005 C6021 1.377 . S
C6006 C6004 1.389 . S
C6006 C6007 1.524 . S
C6006 C6020 1.377 . S
C6007 C6006 1.524 . S
C6007 C6008 1.397 . S
C6007 C6012 1.363 . S
C6008 H5985 0.950 . S
C6008 C6007 1.397 . S
C6008 C6009 1.334 . S
C6009 H5986 0.950 . S
C6009 C6008 1.334 . S
C6009 C6010 1.287 . S
C6010 C6009 1.287 . S
C6010 C6011 1.524 . S
C6010 H6029 0.913 . S
C6011 H5987 0.950 . S
C6011 C6010 1.524 . S
C6011 C6012 1.415 . S
C6012 H5988 0.950 . S
C6012 C6007 1.363 . S
C6012 C6011 1.415 . S
C6013 H5989 0.951 . S
C6013 C6014 1.366 . S
C6013 C6015 1.388 . S
C6014 C6013 1.366 . S
C6014 C6018 1.385 . S
C6015 H5990 0.951 . S
C6015 C6013 1.388 . S
C6015 C6016 1.366 . S
C6016 C6015 1.366 . S
C6016 C6017 1.414 . S
C6016 C6019 1.499 . S
C6017 H5991 0.950 . S
C6017 C6016 1.414 . S
C6017 C6018 1.374 . S
C6018 H5992 0.950 . S
C6018 C6014 1.385 . S
C6018 C6017 1.374 . S
C6019 C6016 1.499 . S
C6019 C6020 1.373 . S
C6019 C6021 1.389 . S
C6020 H5993 0.950 . S
C6020 C6006 1.377 . S
C6020 C6019 1.373 . S
C6021 C6005 1.377 . S
C6021 C6019 1.389 . S
C6021 C6022 1.524 . S
C6022 C6021 1.524 . S
C6022 C6023 1.397 . S
C6022 C6027 1.363 . S
C6023 H5994 0.950 . S
C6023 C6022 1.397 . S
C6023 C6024 1.334 . S
C6024 H5995 0.950 . S
C6024 C6023 1.334 . S
C6024 C6025 1.287 . S
C6025 C6024 1.287 . S
C6025 C6026 1.524 . S
C6025 H6028 0.999 . S
C6026 H5996 0.950 . S
C6026 C6025 1.524 . S
C6026 C6027 1.415 . S
C6027 H5997 0.950 . S
C6027 C6022 1.363 . S
C6027 C6026 1.415 . S
H6028 C6025 0.999 . S
H6029 C6010 0.913 . S
H6030 C6048 0.951 . S
H6031 C6050 0.951 . S
H6032 C6052 0.950 . S
H6033 C6053 0.950 . S
H6034 C6055 0.950 . S
H6035 C6058 0.950 . S
H6036 C6059 0.950 . S
H6037 C6061 0.950 . S
H6038 C6062 0.950 . S
H6039 C6063 0.951 . S
H6040 C6065 0.951 . S
H6041 C6067 0.950 . S
H6042 C6068 0.950 . S
H6043 C6070 0.950 . S
H6044 C6073 0.950 . S
H6045 C6074 0.950 . S
H6046 C6076 0.950 . S
H6047 C6077 0.950 . S
C6048 H6030 0.951 . S
C6048 C6049 1.366 . S
C6048 C6050 1.388 . S
C6049 C6048 1.366 . S
C6049 C6053 1.385 . S
C6050 H6031 0.951 . S
C6050 C6048 1.388 . S
C6050 C6051 1.366 . S
C6051 C6050 1.366 . S
C6051 C6052 1.414 . S
C6051 C6054 1.499 . S
C6052 H6032 0.950 . S
C6052 C6051 1.414 . S
C6052 C6053 1.374 . S
C6053 H6033 0.950 . S
C6053 C6049 1.385 . S
C6053 C6052 1.374 . S
C6054 C6051 1.499 . S
C6054 C6055 1.373 . S
C6054 C6056 1.389 . S
C6055 H6034 0.950 . S
C6055 C6054 1.373 . S
C6055 C6071 1.377 . S
C6056 C6054 1.389 . S
C6056 C6057 1.524 . S
C6056 C6070 1.377 . S
C6057 C6056 1.524 . S
C6057 C6058 1.397 . S
C6057 C6062 1.363 . S
C6058 H6035 0.950 . S
C6058 C6057 1.397 . S
C6058 C6059 1.334 . S
C6059 H6036 0.950 . S
C6059 C6058 1.334 . S
C6059 C6060 1.287 . S
C6060 C6059 1.287 . S
C6060 C6061 1.524 . S
C6060 H6079 0.913 . S
C6061 H6037 0.950 . S
C6061 C6060 1.524 . S
C6061 C6062 1.415 . S
C6062 H6038 0.950 . S
C6062 C6057 1.363 . S
C6062 C6061 1.415 . S
C6063 H6039 0.951 . S
C6063 C6064 1.366 . S
C6063 C6065 1.388 . S
C6064 C6063 1.366 . S
C6064 C6068 1.385 . S
C6065 H6040 0.951 . S
C6065 C6063 1.388 . S
C6065 C6066 1.366 . S
C6066 C6065 1.366 . S
C6066 C6067 1.414 . S
C6066 C6069 1.499 . S
C6067 H6041 0.950 . S
C6067 C6066 1.414 . S
C6067 C6068 1.374 . S
C6068 H6042 0.950 . S
C6068 C6064 1.385 . S
C6068 C6067 1.374 . S
C6069 C6066 1.499 . S
C6069 C6070 1.373 . S
C6069 C6071 1.389 . S
C6070 H6043 0.950 . S
C6070 C6056 1.377 . S
C6070 C6069 1.373 . S
C6071 C6055 1.377 . S
C6071 C6069 1.389 . S
C6071 C6072 1.524 . S
C6072 C6071 1.524 . S
C6072 C6073 1.397 . S
C6072 C6077 1.363 . S
C6073 H6044 0.950 . S
C6073 C6072 1.397 . S
C6073 C6074 1.334 . S
C6074 H6045 0.950 . S
C6074 C6073 1.334 . S
C6074 C6075 1.287 . S
C6075 C6074 1.287 . S
C6075 C6076 1.524 . S
C6075 H6078 0.999 . S
C6076 H6046 0.950 . S
C6076 C6075 1.524 . S
C6076 C6077 1.415 . S
C6077 H6047 0.950 . S
C6077 C6072 1.363 . S
C6077 C6076 1.415 . S
H6078 C6075 0.999 . S
H6079 C6060 0.913 . S
H6080 C6098 0.951 . S
H6081 C6100 0.951 . S
H6082 C6102 0.950 . S
H6083 C6103 0.950 . S
H6084 C6105 0.950 . S
H6085 C6108 0.950 . S
H6086 C6109 0.950 . S
H6087 C6111 0.950 . S
H6088 C6112 0.950 . S
H6089 C6113 0.951 . S
H6090 C6115 0.951 . S
H6091 C6117 0.950 . S
H6092 C6118 0.950 . S
H6093 C6120 0.950 . S
H6094 C6123 0.950 . S
H6095 C6124 0.950 . S
H6096 C6126 0.950 . S
H6097 C6127 0.950 . S
C6098 H6080 0.951 . S
C6098 C6099 1.366 . S
C6098 C6100 1.388 . S
C6099 C6098 1.366 . S
C6099 C6103 1.385 . S
C6100 H6081 0.951 . S
C6100 C6098 1.388 . S
C6100 C6101 1.366 . S
C6101 C6100 1.366 . S
C6101 C6102 1.414 . S
C6101 C6104 1.499 . S
C6102 H6082 0.950 . S
C6102 C6101 1.414 . S
C6102 C6103 1.374 . S
C6103 H6083 0.950 . S
C6103 C6099 1.385 . S
C6103 C6102 1.374 . S
C6104 C6101 1.499 . S
C6104 C6105 1.373 . S
C6104 C6106 1.389 . S
C6105 H6084 0.950 . S
C6105 C6104 1.373 . S
C6105 C6121 1.377 . S
C6106 C6104 1.389 . S
C6106 C6107 1.524 . S
C6106 C6120 1.377 . S
C6107 C6106 1.524 . S
C6107 C6108 1.397 . S
C6107 C6112 1.363 . S
C6108 H6085 0.950 . S
C6108 C6107 1.397 . S
C6108 C6109 1.334 . S
C6109 H6086 0.950 . S
C6109 C6108 1.334 . S
C6109 C6110 1.287 . S
C6110 C6109 1.287 . S
C6110 C6111 1.524 . S
C6110 H6129 0.913 . S
C6111 H6087 0.950 . S
C6111 C6110 1.524 . S
C6111 C6112 1.415 . S
C6112 H6088 0.950 . S
C6112 C6107 1.363 . S
C6112 C6111 1.415 . S
C6113 H6089 0.951 . S
C6113 C6114 1.366 . S
C6113 C6115 1.388 . S
C6114 C6113 1.366 . S
C6114 C6118 1.385 . S
C6115 H6090 0.951 . S
C6115 C6113 1.388 . S
C6115 C6116 1.366 . S
C6116 C6115 1.366 . S
C6116 C6117 1.414 . S
C6116 C6119 1.499 . S
C6117 H6091 0.950 . S
C6117 C6116 1.414 . S
C6117 C6118 1.374 . S
C6118 H6092 0.950 . S
C6118 C6114 1.385 . S
C6118 C6117 1.374 . S
C6119 C6116 1.499 . S
C6119 C6120 1.373 . S
C6119 C6121 1.389 . S
C6120 H6093 0.950 . S
C6120 C6106 1.377 . S
C6120 C6119 1.373 . S
C6121 C6105 1.377 . S
C6121 C6119 1.389 . S
C6121 C6122 1.524 . S
C6122 C6121 1.524 . S
C6122 C6123 1.397 . S
C6122 C6127 1.363 . S
C6123 H6094 0.950 . S
C6123 C6122 1.397 . S
C6123 C6124 1.334 . S
C6124 H6095 0.950 . S
C6124 C6123 1.334 . S
C6124 C6125 1.287 . S
C6125 C6124 1.287 . S
C6125 C6126 1.524 . S
C6125 H6128 0.999 . S
C6126 H6096 0.950 . S
C6126 C6125 1.524 . S
C6126 C6127 1.415 . S
C6127 H6097 0.950 . S
C6127 C6122 1.363 . S
C6127 C6126 1.415 . S
H6128 C6125 0.999 . S
H6129 C6110 0.913 . S
H6130 C6148 0.951 . S
H6131 C6150 0.951 . S
H6132 C6152 0.950 . S
H6133 C6153 0.950 . S
H6134 C6155 0.950 . S
H6135 C6158 0.950 . S
H6136 C6159 0.950 . S
H6137 C6161 0.950 . S
H6138 C6162 0.950 . S
H6139 C6163 0.951 . S
H6140 C6165 0.951 . S
H6141 C6167 0.950 . S
H6142 C6168 0.950 . S
H6143 C6170 0.950 . S
H6144 C6173 0.950 . S
H6145 C6174 0.950 . S
H6146 C6176 0.949 . S
H6147 C6177 0.950 . S
C6148 H6130 0.951 . S
C6148 C6149 1.366 . S
C6148 C6150 1.388 . S
C6149 C6148 1.366 . S
C6149 C6153 1.385 . S
C6150 H6131 0.951 . S
C6150 C6148 1.388 . S
C6150 C6151 1.366 . S
C6151 C6150 1.366 . S
C6151 C6152 1.414 . S
C6151 C6154 1.499 . S
C6152 H6132 0.950 . S
C6152 C6151 1.414 . S
C6152 C6153 1.374 . S
C6153 H6133 0.950 . S
C6153 C6149 1.385 . S
C6153 C6152 1.374 . S
C6154 C6151 1.499 . S
C6154 C6155 1.373 . S
C6154 C6156 1.389 . S
C6155 H6134 0.950 . S
C6155 C6154 1.373 . S
C6155 C6171 1.377 . S
C6156 C6154 1.389 . S
C6156 C6157 1.524 . S
C6156 C6170 1.377 . S
C6157 C6156 1.524 . S
C6157 C6158 1.397 . S
C6157 C6162 1.363 . S
C6158 H6135 0.950 . S
C6158 C6157 1.397 . S
C6158 C6159 1.334 . S
C6159 H6136 0.950 . S
C6159 C6158 1.334 . S
C6159 C6160 1.287 . S
C6160 C6159 1.287 . S
C6160 C6161 1.524 . S
C6160 H6179 0.913 . S
C6161 H6137 0.950 . S
C6161 C6160 1.524 . S
C6161 C6162 1.415 . S
C6162 H6138 0.950 . S
C6162 C6157 1.363 . S
C6162 C6161 1.415 . S
C6163 H6139 0.951 . S
C6163 C6164 1.366 . S
C6163 C6165 1.388 . S
C6164 C6163 1.366 . S
C6164 C6168 1.385 . S
C6165 H6140 0.951 . S
C6165 C6163 1.388 . S
C6165 C6166 1.366 . S
C6166 C6165 1.366 . S
C6166 C6167 1.414 . S
C6166 C6169 1.499 . S
C6167 H6141 0.950 . S
C6167 C6166 1.414 . S
C6167 C6168 1.374 . S
C6168 H6142 0.950 . S
C6168 C6164 1.385 . S
C6168 C6167 1.374 . S
C6169 C6166 1.499 . S
C6169 C6170 1.373 . S
C6169 C6171 1.389 . S
C6170 H6143 0.950 . S
C6170 C6156 1.377 . S
C6170 C6169 1.373 . S
C6171 C6155 1.377 . S
C6171 C6169 1.389 . S
C6171 C6172 1.524 . S
C6172 C6171 1.524 . S
C6172 C6173 1.397 1_565 S
C6172 C6177 1.363 . S
C6173 H6144 0.950 . S
C6173 C6172 1.397 1_545 S
C6173 C6174 1.334 . S
C6174 H6145 0.950 . S
C6174 C6173 1.334 . S
C6174 C6175 1.287 . S
C6175 C6174 1.287 . S
C6175 C6176 1.514 1_545 S
C6175 H6178 0.999 . S
C6176 H6146 0.949 . S
C6176 C6175 1.514 1_565 S
C6176 C6177 1.423 . S
C6177 H6147 0.950 . S
C6177 C6172 1.363 . S
C6177 C6176 1.423 . S
H6178 C6175 0.999 . S
H6179 C6160 0.913 . S
H6180 C6198 0.951 . S
H6181 C6200 0.951 . S
H6182 C6202 0.950 . S
H6183 C6203 0.950 . S
H6184 C6205 0.950 . S
H6185 C6208 0.950 . S
H6186 C6209 0.950 . S
H6187 C6211 0.950 . S
H6188 C6212 0.950 . S
H6189 C6213 0.951 . S
H6190 C6215 0.951 . S
H6191 C6217 0.950 . S
H6192 C6218 0.950 . S
H6193 C6220 0.950 . S
H6194 C6223 0.950 . S
H6195 C6224 0.950 . S
H6196 C6226 0.950 . S
H6197 C6227 0.950 . S
C6198 H6180 0.951 . S
C6198 C6199 1.366 . S
C6198 C6200 1.388 . S
C6199 C6198 1.366 . S
C6199 C6203 1.385 . S
C6200 H6181 0.951 . S
C6200 C6198 1.388 . S
C6200 C6201 1.366 . S
C6201 C6200 1.366 . S
C6201 C6202 1.414 . S
C6201 C6204 1.499 . S
C6202 H6182 0.950 . S
C6202 C6201 1.414 . S
C6202 C6203 1.374 . S
C6203 H6183 0.950 . S
C6203 C6199 1.385 . S
C6203 C6202 1.374 . S
C6204 C6201 1.499 . S
C6204 C6205 1.373 . S
C6204 C6206 1.389 . S
C6205 H6184 0.950 . S
C6205 C6204 1.373 . S
C6205 C6221 1.377 . S
C6206 C6204 1.389 . S
C6206 C6207 1.524 . S
C6206 C6220 1.377 . S
C6207 C6206 1.524 . S
C6207 C6208 1.397 . S
C6207 C6212 1.363 . S
C6208 H6185 0.950 . S
C6208 C6207 1.397 . S
C6208 C6209 1.334 . S
C6209 H6186 0.950 . S
C6209 C6208 1.334 . S
C6209 C6210 1.287 . S
C6210 C6209 1.287 . S
C6210 C6211 1.524 . S
C6210 H6229 0.913 . S
C6211 H6187 0.950 . S
C6211 C6210 1.524 . S
C6211 C6212 1.415 . S
C6212 H6188 0.950 . S
C6212 C6207 1.363 . S
C6212 C6211 1.415 . S
C6213 H6189 0.951 . S
C6213 C6214 1.366 . S
C6213 C6215 1.388 . S
C6214 C6213 1.366 . S
C6214 C6218 1.385 . S
C6215 H6190 0.951 . S
C6215 C6213 1.388 . S
C6215 C6216 1.366 . S
C6216 C6215 1.366 . S
C6216 C6217 1.414 . S
C6216 C6219 1.499 . S
C6217 H6191 0.950 . S
C6217 C6216 1.414 . S
C6217 C6218 1.374 . S
C6218 H6192 0.950 . S
C6218 C6214 1.385 . S
C6218 C6217 1.374 . S
C6219 C6216 1.499 . S
C6219 C6220 1.373 . S
C6219 C6221 1.389 . S
C6220 H6193 0.950 . S
C6220 C6206 1.377 . S
C6220 C6219 1.373 . S
C6221 C6205 1.377 . S
C6221 C6219 1.389 . S
C6221 C6222 1.524 . S
C6222 C6221 1.524 . S
C6222 C6223 1.397 . S
C6222 C6227 1.363 . S
C6223 H6194 0.950 . S
C6223 C6222 1.397 . S
C6223 C6224 1.334 . S
C6224 H6195 0.950 . S
C6224 C6223 1.334 . S
C6224 C6225 1.287 . S
C6225 C6224 1.287 . S
C6225 C6226 1.524 . S
C6225 H6228 0.999 . S
C6226 H6196 0.950 . S
C6226 C6225 1.524 . S
C6226 C6227 1.415 . S
C6227 H6197 0.950 . S
C6227 C6222 1.363 . S
C6227 C6226 1.415 . S
H6228 C6225 0.999 . S
H6229 C6210 0.913 . S
H6230 C6248 0.951 . S
H6231 C6250 0.951 . S
H6232 C6252 0.950 . S
H6233 C6253 0.950 . S
H6234 C6255 0.950 . S
H6235 C6258 0.950 . S
H6236 C6259 0.950 . S
H6237 C6261 0.950 . S
H6238 C6262 0.950 . S
H6239 C6263 0.951 . S
H6240 C6265 0.951 . S
H6241 C6267 0.966 . S
H6242 C6268 0.950 1_556 S
H6243 C6270 0.950 . S
H6244 C6273 0.950 . S
H6245 C6274 0.918 1_556 S
H6246 C6276 0.950 . S
H6247 C6277 0.950 . S
C6248 H6230 0.951 . S
C6248 C6249 1.366 . S
C6248 C6250 1.388 . S
C6249 C6248 1.366 . S
C6249 C6253 1.385 . S
C6250 H6231 0.951 . S
C6250 C6248 1.388 . S
C6250 C6251 1.366 . S
C6251 C6250 1.366 . S
C6251 C6252 1.414 . S
C6251 C6254 1.499 . S
C6252 H6232 0.950 . S
C6252 C6251 1.414 . S
C6252 C6253 1.374 . S
C6253 H6233 0.950 . S
C6253 C6249 1.385 . S
C6253 C6252 1.374 . S
C6254 C6251 1.499 . S
C6254 C6255 1.373 . S
C6254 C6256 1.389 . S
C6255 H6234 0.950 . S
C6255 C6254 1.373 . S
C6255 C6271 1.377 . S
C6256 C6254 1.389 . S
C6256 C6257 1.524 . S
C6256 C6270 1.377 . S
C6257 C6256 1.524 . S
C6257 C6258 1.397 . S
C6257 C6262 1.363 . S
C6258 H6235 0.950 . S
C6258 C6257 1.397 . S
C6258 C6259 1.334 . S
C6259 H6236 0.950 . S
C6259 C6258 1.334 . S
C6259 C6260 1.287 . S
C6260 C6259 1.287 . S
C6260 C6261 1.524 . S
C6260 H6279 0.913 . S
C6261 H6237 0.950 . S
C6261 C6260 1.524 . S
C6261 C6262 1.415 . S
C6262 H6238 0.950 . S
C6262 C6257 1.363 . S
C6262 C6261 1.415 . S
C6263 H6239 0.951 . S
C6263 C6264 1.366 . S
C6263 C6265 1.388 . S
C6264 C6263 1.366 . S
C6264 C6268 1.385 . S
C6265 H6240 0.951 . S
C6265 C6263 1.388 . S
C6265 C6266 1.366 . S
C6266 C6265 1.366 . S
C6266 C6267 1.414 . S
C6266 C6269 1.499 . S
C6267 H6241 0.966 . S
C6267 C6266 1.414 . S
C6267 C6268 1.374 . S
C6268 H6242 0.950 1_554 S
C6268 C6264 1.385 . S
C6268 C6267 1.374 . S
C6269 C6266 1.499 . S
C6269 C6270 1.373 . S
C6269 C6271 1.389 . S
C6270 H6243 0.950 . S
C6270 C6256 1.377 . S
C6270 C6269 1.373 . S
C6271 C6255 1.377 . S
C6271 C6269 1.389 . S
C6271 C6272 1.524 . S
C6272 C6271 1.524 . S
C6272 C6273 1.397 . S
C6272 C6277 1.363 . S
C6273 H6244 0.950 . S
C6273 C6272 1.397 . S
C6273 C6274 1.334 1_545 S
C6274 H6245 0.918 1_554 S
C6274 C6273 1.334 1_565 S
C6274 C6275 1.287 . S
C6275 C6274 1.287 . S
C6275 C6276 1.524 . S
C6275 H6278 0.999 . S
C6276 H6246 0.950 . S
C6276 C6275 1.524 . S
C6276 C6277 1.415 1_565 S
C6277 H6247 0.950 . S
C6277 C6272 1.363 . S
C6277 C6276 1.415 1_545 S
H6278 C6275 0.999 . S
H6279 C6260 0.913 . S
H6280 C6298 0.951 . S
H6281 C6300 0.951 . S
H6282 C6302 0.950 . S
H6283 C6303 0.950 . S
H6284 C6305 0.950 . S
H6285 C6308 0.950 . S
H6286 C6309 0.950 . S
H6287 C6311 0.950 . S
H6288 C6312 0.950 . S
H6289 C6313 0.951 . S
H6290 C6315 0.951 . S
H6291 C6317 0.950 . S
H6292 C6318 0.950 . S
H6293 C6320 0.950 . S
H6294 C6323 0.950 . S
H6295 C6324 0.950 . S
H6296 C6326 0.950 . S
H6297 C6327 0.950 . S
C6298 H6280 0.951 . S
C6298 C6299 1.366 . S
C6298 C6300 1.388 . S
C6299 C6298 1.366 . S
C6299 C6303 1.385 . S
C6300 H6281 0.951 . S
C6300 C6298 1.388 . S
C6300 C6301 1.366 . S
C6301 C6300 1.366 . S
C6301 C6302 1.414 . S
C6301 C6304 1.499 . S
C6302 H6282 0.950 . S
C6302 C6301 1.414 . S
C6302 C6303 1.374 . S
C6303 H6283 0.950 . S
C6303 C6299 1.385 . S
C6303 C6302 1.374 . S
C6304 C6301 1.499 . S
C6304 C6305 1.373 . S
C6304 C6306 1.389 . S
C6305 H6284 0.950 . S
C6305 C6304 1.373 . S
C6305 C6321 1.377 . S
C6306 C6304 1.389 . S
C6306 C6307 1.524 . S
C6306 C6320 1.377 . S
C6307 C6306 1.524 . S
C6307 C6308 1.397 . S
C6307 C6312 1.363 . S
C6308 H6285 0.950 . S
C6308 C6307 1.397 . S
C6308 C6309 1.334 . S
C6309 H6286 0.950 . S
C6309 C6308 1.334 . S
C6309 C6310 1.287 . S
C6310 C6309 1.287 . S
C6310 C6311 1.524 . S
C6310 H6329 0.913 . S
C6311 H6287 0.950 . S
C6311 C6310 1.524 . S
C6311 C6312 1.415 . S
C6312 H6288 0.950 . S
C6312 C6307 1.363 . S
C6312 C6311 1.415 . S
C6313 H6289 0.951 . S
C6313 C6314 1.366 . S
C6313 C6315 1.388 . S
C6314 C6313 1.366 . S
C6314 C6318 1.385 . S
C6315 H6290 0.951 . S
C6315 C6313 1.388 . S
C6315 C6316 1.366 . S
C6316 C6315 1.366 . S
C6316 C6317 1.414 . S
C6316 C6319 1.499 . S
C6317 H6291 0.950 . S
C6317 C6316 1.414 . S
C6317 C6318 1.374 . S
C6318 H6292 0.950 . S
C6318 C6314 1.385 . S
C6318 C6317 1.374 . S
C6319 C6316 1.499 . S
C6319 C6320 1.373 . S
C6319 C6321 1.389 . S
C6320 H6293 0.950 . S
C6320 C6306 1.377 . S
C6320 C6319 1.373 . S
C6321 C6305 1.377 . S
C6321 C6319 1.389 . S
C6321 C6322 1.524 . S
C6322 C6321 1.524 . S
C6322 C6323 1.397 . S
C6322 C6327 1.363 . S
C6323 H6294 0.950 . S
C6323 C6322 1.397 . S
C6323 C6324 1.334 . S
C6324 H6295 0.950 . S
C6324 C6323 1.334 . S
C6324 C6325 1.287 . S
C6325 C6324 1.287 . S
C6325 C6326 1.524 . S
C6325 H6328 0.999 . S
C6326 H6296 0.950 . S
C6326 C6325 1.524 . S
C6326 C6327 1.415 . S
C6327 H6297 0.950 . S
C6327 C6322 1.363 . S
C6327 C6326 1.415 . S
H6328 C6325 0.999 . S
H6329 C6310 0.913 . S
H6330 C6348 0.951 . S
H6331 C6350 0.951 . S
H6332 C6352 0.950 . S
H6333 C6353 0.950 . S
H6334 C6355 0.921 1_556 S
H6335 C6358 0.950 . S
H6336 C6359 0.950 . S
H6337 C6361 0.950 . S
H6338 C6362 0.950 . S
H6339 C6363 0.951 . S
H6340 C6365 0.951 . S
H6341 C6367 0.950 . S
H6342 C6368 0.950 . S
H6343 C6370 0.950 . S
H6344 C6373 0.950 . S
H6345 C6374 0.950 . S
H6346 C6376 0.950 . S
H6347 C6377 0.950 . S
C6348 H6330 0.951 . S
C6348 C6349 1.366 . S
C6348 C6350 1.388 . S
C6349 C6348 1.366 . S
C6349 C6353 1.385 . S
C6350 H6331 0.951 . S
C6350 C6348 1.388 . S
C6350 C6351 1.366 . S
C6351 C6350 1.366 . S
C6351 C6352 1.414 . S
C6351 C6354 1.499 . S
C6352 H6332 0.950 . S
C6352 C6351 1.414 . S
C6352 C6353 1.374 . S
C6353 H6333 0.950 . S
C6353 C6349 1.385 . S
C6353 C6352 1.374 . S
C6354 C6351 1.499 . S
C6354 C6355 1.373 . S
C6354 C6356 1.389 . S
C6355 H6334 0.921 1_554 S
C6355 C6354 1.373 . S
C6355 C6371 1.377 . S
C6356 C6354 1.389 . S
C6356 C6357 1.524 . S
C6356 C6370 1.377 . S
C6357 C6356 1.524 . S
C6357 C6358 1.397 . S
C6357 C6362 1.363 . S
C6358 H6335 0.950 . S
C6358 C6357 1.397 . S
C6358 C6359 1.334 . S
C6359 H6336 0.950 . S
C6359 C6358 1.334 . S
C6359 C6360 1.287 . S
C6360 C6359 1.287 . S
C6360 C6361 1.524 . S
C6360 H6379 0.913 . S
C6361 H6337 0.950 . S
C6361 C6360 1.524 . S
C6361 C6362 1.415 . S
C6362 H6338 0.950 . S
C6362 C6357 1.363 . S
C6362 C6361 1.415 . S
C6363 H6339 0.951 . S
C6363 C6364 1.366 . S
C6363 C6365 1.388 . S
C6364 C6363 1.366 . S
C6364 C6368 1.385 . S
C6365 H6340 0.951 . S
C6365 C6363 1.388 . S
C6365 C6366 1.366 . S
C6366 C6365 1.366 . S
C6366 C6367 1.414 . S
C6366 C6369 1.499 . S
C6367 H6341 0.950 . S
C6367 C6366 1.414 . S
C6367 C6368 1.374 . S
C6368 H6342 0.950 . S
C6368 C6364 1.385 . S
C6368 C6367 1.374 . S
C6369 C6366 1.499 . S
C6369 C6370 1.373 . S
C6369 C6371 1.389 . S
C6370 H6343 0.950 . S
C6370 C6356 1.377 . S
C6370 C6369 1.373 . S
C6371 C6355 1.377 . S
C6371 C6369 1.389 . S
C6371 C6372 1.524 1_554 S
C6372 C6371 1.524 1_556 S
C6372 C6373 1.397 . S
C6372 C6377 1.363 . S
C6373 H6344 0.950 . S
C6373 C6372 1.397 . S
C6373 C6374 1.334 . S
C6374 H6345 0.950 . S
C6374 C6373 1.334 . S
C6374 C6375 1.287 . S
C6375 C6374 1.287 . S
C6375 C6376 1.524 . S
C6375 H6378 0.999 . S
C6376 H6346 0.950 . S
C6376 C6375 1.524 . S
C6376 C6377 1.415 . S
C6377 H6347 0.950 . S
C6377 C6372 1.363 . S
C6377 C6376 1.415 . S
H6378 C6375 0.999 . S
H6379 C6360 0.913 . S
H6380 C6398 0.951 . S
H6381 C6400 0.951 . S
H6382 C6402 0.950 . S
H6383 C6403 0.950 . S
H6384 C6405 0.950 . S
H6385 C6408 0.950 . S
H6386 C6409 0.950 . S
H6387 C6411 0.950 . S
H6388 C6412 0.950 . S
H6389 C6413 0.951 . S
H6390 C6415 0.951 . S
H6391 C6417 0.950 . S
H6392 C6418 0.950 . S
H6393 C6420 0.950 . S
H6394 C6423 0.950 . S
H6395 C6424 0.950 . S
H6396 C6426 0.950 . S
H6397 C6427 0.950 . S
C6398 H6380 0.951 . S
C6398 C6399 1.366 . S
C6398 C6400 1.388 . S
C6399 C6398 1.366 . S
C6399 C6403 1.385 . S
C6400 H6381 0.951 . S
C6400 C6398 1.388 . S
C6400 C6401 1.366 . S
C6401 C6400 1.366 . S
C6401 C6402 1.414 . S
C6401 C6404 1.499 . S
C6402 H6382 0.950 . S
C6402 C6401 1.414 . S
C6402 C6403 1.374 . S
C6403 H6383 0.950 . S
C6403 C6399 1.385 . S
C6403 C6402 1.374 . S
C6404 C6401 1.499 . S
C6404 C6405 1.373 . S
C6404 C6406 1.389 . S
C6405 H6384 0.950 . S
C6405 C6404 1.373 . S
C6405 C6421 1.377 . S
C6406 C6404 1.389 . S
C6406 C6407 1.524 . S
C6406 C6420 1.377 . S
C6407 C6406 1.524 . S
C6407 C6408 1.397 . S
C6407 C6412 1.363 . S
C6408 H6385 0.950 . S
C6408 C6407 1.397 . S
C6408 C6409 1.334 . S
C6409 H6386 0.950 . S
C6409 C6408 1.334 . S
C6409 C6410 1.287 . S
C6410 C6409 1.287 . S
C6410 C6411 1.524 . S
C6410 H6429 0.913 . S
C6411 H6387 0.950 . S
C6411 C6410 1.524 . S
C6411 C6412 1.415 . S
C6412 H6388 0.950 . S
C6412 C6407 1.363 . S
C6412 C6411 1.415 . S
C6413 H6389 0.951 . S
C6413 C6414 1.366 . S
C6413 C6415 1.388 . S
C6414 C6413 1.366 . S
C6414 C6418 1.385 . S
C6415 H6390 0.951 . S
C6415 C6413 1.388 . S
C6415 C6416 1.366 . S
C6416 C6415 1.366 . S
C6416 C6417 1.414 . S
C6416 C6419 1.499 . S
C6417 H6391 0.950 . S
C6417 C6416 1.414 . S
C6417 C6418 1.374 . S
C6418 H6392 0.950 . S
C6418 C6414 1.385 . S
C6418 C6417 1.374 . S
C6419 C6416 1.499 . S
C6419 C6420 1.373 . S
C6419 C6421 1.389 . S
C6420 H6393 0.950 . S
C6420 C6406 1.377 . S
C6420 C6419 1.373 . S
C6421 C6405 1.377 . S
C6421 C6419 1.389 . S
C6421 C6422 1.524 . S
C6422 C6421 1.524 . S
C6422 C6423 1.397 . S
C6422 C6427 1.363 . S
C6423 H6394 0.950 . S
C6423 C6422 1.397 . S
C6423 C6424 1.334 . S
C6424 H6395 0.950 . S
C6424 C6423 1.334 . S
C6424 C6425 1.287 . S
C6425 C6424 1.287 . S
C6425 C6426 1.524 . S
C6425 H6428 0.999 . S
C6426 H6396 0.950 . S
C6426 C6425 1.524 . S
C6426 C6427 1.415 . S
C6427 H6397 0.950 . S
C6427 C6422 1.363 . S
C6427 C6426 1.415 . S
H6428 C6425 0.999 . S
H6429 C6410 0.913 . S
H6430 C6448 0.951 . S
H6431 C6450 0.951 . S
H6432 C6452 0.950 . S
H6433 C6453 0.950 . S
H6434 C6455 0.950 . S
H6435 C6458 0.950 . S
H6436 C6459 0.950 . S
H6437 C6461 0.950 . S
H6438 C6462 0.950 . S
H6439 C6463 0.951 . S
H6440 C6465 0.951 . S
H6441 C6467 0.950 . S
H6442 C6468 0.950 . S
H6443 C6470 0.950 . S
H6444 C6473 0.950 . S
H6445 C6474 0.950 . S
H6446 C6476 0.950 . S
H6447 C6477 0.950 . S
C6448 H6430 0.951 . S
C6448 C6449 1.366 . S
C6448 C6450 1.388 . S
C6449 C6448 1.366 . S
C6449 C6453 1.385 . S
C6450 H6431 0.951 . S
C6450 C6448 1.388 . S
C6450 C6451 1.366 . S
C6451 C6450 1.366 . S
C6451 C6452 1.414 . S
C6451 C6454 1.499 . S
C6452 H6432 0.950 . S
C6452 C6451 1.414 . S
C6452 C6453 1.374 . S
C6453 H6433 0.950 . S
C6453 C6449 1.385 . S
C6453 C6452 1.374 . S
C6454 C6451 1.499 . S
C6454 C6455 1.373 . S
C6454 C6456 1.389 . S
C6455 H6434 0.950 . S
C6455 C6454 1.373 . S
C6455 C6471 1.377 . S
C6456 C6454 1.389 . S
C6456 C6457 1.524 . S
C6456 C6470 1.377 . S
C6457 C6456 1.524 . S
C6457 C6458 1.397 . S
C6457 C6462 1.363 . S
C6458 H6435 0.950 . S
C6458 C6457 1.397 . S
C6458 C6459 1.334 . S
C6459 H6436 0.950 . S
C6459 C6458 1.334 . S
C6459 C6460 1.287 . S
C6460 C6459 1.287 . S
C6460 C6461 1.524 . S
C6460 H6479 0.913 . S
C6461 H6437 0.950 . S
C6461 C6460 1.524 . S
C6461 C6462 1.415 . S
C6462 H6438 0.950 . S
C6462 C6457 1.363 . S
C6462 C6461 1.415 . S
C6463 H6439 0.951 . S
C6463 C6464 1.366 . S
C6463 C6465 1.388 . S
C6464 C6463 1.366 . S
C6464 C6468 1.385 . S
C6465 H6440 0.951 . S
C6465 C6463 1.388 . S
C6465 C6466 1.366 . S
C6466 C6465 1.366 . S
C6466 C6467 1.414 . S
C6466 C6469 1.499 . S
C6467 H6441 0.950 . S
C6467 C6466 1.414 . S
C6467 C6468 1.374 . S
C6468 H6442 0.950 . S
C6468 C6464 1.385 . S
C6468 C6467 1.374 . S
C6469 C6466 1.499 . S
C6469 C6470 1.373 . S
C6469 C6471 1.389 . S
C6470 H6443 0.950 . S
C6470 C6456 1.377 . S
C6470 C6469 1.373 . S
C6471 C6455 1.377 . S
C6471 C6469 1.389 . S
C6471 C6472 1.524 . S
C6472 C6471 1.524 . S
C6472 C6473 1.397 . S
C6472 C6477 1.363 . S
C6473 H6444 0.950 . S
C6473 C6472 1.397 . S
C6473 C6474 1.334 . S
C6474 H6445 0.950 . S
C6474 C6473 1.334 . S
C6474 C6475 1.287 . S
C6475 C6474 1.287 . S
C6475 C6476 1.524 . S
C6475 H6478 0.999 . S
C6476 H6446 0.950 . S
C6476 C6475 1.524 . S
C6476 C6477 1.415 . S
C6477 H6447 0.950 . S
C6477 C6472 1.363 . S
C6477 C6476 1.415 . S
H6478 C6475 0.999 . S
H6479 C6460 0.913 . S
C1699 C109 1.856 . S
C1714 C403 1.856 . S
C1749 C61 1.560 . S
C1764 C476 1.762 . S
C1799 C74 1.735 . S
C1814 C571 1.777 . S
C1864 C646 1.470 . S
C1849 C96 1.594 . S
C1899 C25 1.503 . S
C1914 C730 1.390 . S
C1964 C823 1.779 . S
C1949 C40 1.758 . S
C2014 C896 1.864 . S
C1999 C46 1.867 . S
C2049 C5 1.624 . S
C2064 C991 1.957 . S
C2114 C392 1.417 . S
C2099 C229 1.199 . S
C2149 C249 0.795 . S
C2164 C478 0.785 . S
C2214 C560 0.890 . S
C2199 C271 0.818 . S
C2264 C655 1.686 . S
C2249 C172 1.639 1_556 S
C2299 C236 1.510 . S
C2314 C739 1.526 . S
C2364 C812 1.246 . S
C2349 C242 1.244 . S
C2414 C898 0.785 . S
C2399 C278 0.800 . S
C2464 C980 1.521 . S
C2449 C179 1.548 . S
C2514 C394 0.854 . S
C2499 C159 0.794 1_556 S
C2549 C285 1.378 1_554 S
C2564 C1064 1.579 . S
C2614 C1150 1.161 . S
C2599 C333 1.241 . S
C2664 C1243 0.725 . S
C2649 C320 0.725 . S
C2699 C123 0.809 . S
C2714 C982 0.796 . S
C2749 C138 1.389 . S
C2764 C562 1.298 . S
C2799 C326 1.723 . S
C2814 C1316 1.712 . S
C2864 C1411 0.796 . S
C2849 C298 0.793 . S
C2914 C391 1.837 . S
C2899 C67 1.787 . S
C2964 C1412 1.681 . S
C2949 C110 1.705 . S
C2999 C88 1.725 . S
C3014 C559 1.752 . S
C3049 C75 1.239 . S
C3064 C1330 1.372 . S
C3114 C742 1.346 . S
C3099 C11 1.443 . S
C3149 C47 1.528 . S
C3164 C1147 1.724 . S
C3214 C908 1.754 . S
C3199 C32 1.667 . S
C3264 C1483 1.948 . S
C3249 C26 1.931 . S
C3314 C404 1.495 . S
C3299 C152 1.535 . S
C3364 C1414 0.776 . S
C3349 C319 0.786 . S
C3399 C124 0.864 . S
C3414 C572 0.857 . S
C3449 C284 1.680 . S
C3464 C1315 1.696 . S
C3499 C145 1.270 . S
C3514 C727 1.445 . S
C3564 C1160 1.094 . S
C3549 C312 1.079 . S
C3599 C117 0.713 . S
C3614 C910 0.674 . S
C3649 C291 1.409 . S
C3664 C1496 1.394 . S
C3699 C194 0.888 . S
C3714 C406 0.872 1_554 S
C3749 C180 1.558 . S
C3764 C1076 1.532 . S
C3799 C263 1.122 . S
C3814 C826 1.073 . S
C3849 C243 0.702 . S
C3864 C1231 0.640 . S
C3914 C1498 0.812 . S
C3899 C277 0.815 . S
C3949 C215 1.152 . S
C3964 C574 1.266 . S
C4014 C656 1.601 . S
C3999 C256 1.560 . S
C4064 C475 0.857 . S
C4049 C200 0.852 . S
C4099 C81 1.855 . S
C4114 C1579 1.857 . S
C4164 C1400 1.762 . S
C4149 C89 1.558 . S
C4199 C102 1.733 1_455 S
C4214 C1663 1.784 . S
C4249 C68 1.594 . S
C4264 C1318 1.471 . S
C4299 C53 1.503 . S
C4314 C1066 1.390 . S
C4364 C1159 1.779 . S
C4349 C12 1.758 1_655 S
C4414 C1232 1.864 . S
C4399 C18 1.867 . S
C4464 C1495 1.957 . S
C4449 C33 1.623 . S
C4514 C1568 1.417 . S
C4499 C257 1.197 . S
C4549 C193 0.795 . S
C4564 C1402 0.782 . S
C4614 C1652 0.889 . S
C4599 C201 0.819 . S
C4664 C1327 1.686 . S
C4649 C214 1.640 . S
C4714 C1075 1.512 . S
C4699 C264 1.509 . S
C4749 C186 1.242 . S
C4764 C1148 1.244 . S
C4814 C1234 0.785 . S
C4799 C208 0.801 . S
C4849 C221 1.548 . S
C4864 C1484 1.521 . S
C4914 C1570 0.838 . S
C4899 C313 0.789 . S
C4949 C131 1.408 . S
C4964 C728 1.580 . S
C5014 C814 1.163 . S
C4999 C151 1.242 1_565 S
C5064 C907 0.725 . S
C5049 C166 0.726 . S
C5114 C1486 0.797 . S
C5099 C305 0.809 . S
C5149 C292 1.389 . S
C5164 C1654 1.299 . S
C5214 C644 1.712 . S
C5199 C144 1.723 . S
C5264 C487 0.797 . S
C5249 C116 0.794 . S
C5299 C95 1.787 . S
C5314 C1567 1.837 . S
C5364 C488 1.680 . S
C5349 C82 1.698 . S
C5399 C60 1.725 . S
C5414 C1651 1.752 . S
C5449 C103 1.239 . S
C5464 C658 1.367 . S
C5499 C39 1.443 . S
C5514 C1078 1.346 . S
C5564 C811 1.724 . S
C5549 C19 1.528 . S
C5599 C4 1.666 . S
C5614 C1244 1.728 . S
C5649 C54 1.931 . S
C5664 C979 1.948 . S
C5714 C1580 1.495 . S
C5699 C334 1.535 . S
C5749 C165 0.784 . S
C5764 C490 0.774 . S
C5814 C1664 0.859 1_655 S
C5799 C306 0.864 . S
C5849 C130 1.679 . S
C5864 C643 1.696 . S
C5899 C327 1.271 . S
C5914 C1063 1.445 . S
C5964 C824 1.093 . S
C5949 C158 1.087 . S
C5999 C299 0.714 . S
C6014 C1246 0.660 . S
C6064 C992 1.394 . S
C6049 C137 1.409 . S
C6114 C1582 0.868 . S
C6099 C250 0.887 . S
C6164 C740 1.532 1_565 S
C6149 C222 1.559 . S
C6199 C235 1.123 . S
C6214 C1162 1.071 . S
C6264 C895 0.641 . S
C6249 C187 0.703 . S
C6299 C207 0.816 . S
C6314 C994 0.810 . S
C6349 C173 1.153 . S
C6364 C1666 1.267 . S
C6414 C1328 1.601 . S
C6399 C228 1.562 . S
C6464 C1399 0.858 . S
C6449 C270 0.852 . S
