# Generated by pormake.
# Topology pyr, (3,6)-cn, num edge types: 1
# Building blocks:
#     Node 0, Type 0, BuildingBlock: OLANEW_clean_sbu_2, # of connection points: 3
#     Node 1, Type 0, BuildingBlock: OLANEW_clean_sbu_2, # of connection points: 3
#     Node 2, Type 0, BuildingBlock: OLANEW_clean_sbu_2, # of connection points: 3
#     Node 3, Type 0, BuildingBlock: OLANEW_clean_sbu_2, # of connection points: 3
#     Node 4, Type 0, BuildingBlock: OLANEW_clean_sbu_2, # of connection points: 3
#     Node 5, Type 0, BuildingBlock: OLANEW_clean_sbu_2, # of connection points: 3
#     Node 6, Type 0, BuildingBlock: OLANEW_clean_sbu_2, # of connection points: 3
#     Node 7, Type 0, BuildingBlock: OLANEW_clean_sbu_2, # of connection points: 3
#     Node 8, Type 1, BuildingBlock: MIDCAF_clean_sbu_0, # of connection points: 6
#     Node 9, Type 1, BuildingBlock: MIDCAF_clean_sbu_0, # of connection points: 6
#     Node 10, Type 1, BuildingBlock: MIDCAF_clean_sbu_0, # of connection points: 6
#     Node 11, Type 1, BuildingBlock: MIDCAF_clean_sbu_0, # of connection points: 6
#     Edge 12, Type (0, 1), BuildingBlock: AJUNOK_clean_linker_0, # of connection points: 2
#     Edge 13, Type (0, 1), BuildingBlock: AJUNOK_clean_linker_0, # of connection points: 2
#     Edge 14, Type (0, 1), BuildingBlock: AJUNOK_clean_linker_0, # of connection points: 2
#     Edge 15, Type (0, 1), BuildingBlock: AJUNOK_clean_linker_0, # of connection points: 2
#     Edge 16, Type (0, 1), BuildingBlock: AJUNOK_clean_linker_0, # of connection points: 2
#     Edge 17, Type (0, 1), BuildingBlock: AJUNOK_clean_linker_0, # of connection points: 2
#     Edge 18, Type (0, 1), BuildingBlock: AJUNOK_clean_linker_0, # of connection points: 2
#     Edge 19, Type (0, 1), BuildingBlock: AJUNOK_clean_linker_0, # of connection points: 2
#     Edge 20, Type (0, 1), BuildingBlock: AJUNOK_clean_linker_0, # of connection points: 2
#     Edge 21, Type (0, 1), BuildingBlock: AJUNOK_clean_linker_0, # of connection points: 2
#     Edge 22, Type (0, 1), BuildingBlock: AJUNOK_clean_linker_0, # of connection points: 2
#     Edge 23, Type (0, 1), BuildingBlock: AJUNOK_clean_linker_0, # of connection points: 2
#     Edge 24, Type (0, 1), BuildingBlock: AJUNOK_clean_linker_0, # of connection points: 2
#     Edge 25, Type (0, 1), BuildingBlock: AJUNOK_clean_linker_0, # of connection points: 2
#     Edge 26, Type (0, 1), BuildingBlock: AJUNOK_clean_linker_0, # of connection points: 2
#     Edge 27, Type (0, 1), BuildingBlock: AJUNOK_clean_linker_0, # of connection points: 2
#     Edge 28, Type (0, 1), BuildingBlock: AJUNOK_clean_linker_0, # of connection points: 2
#     Edge 29, Type (0, 1), BuildingBlock: AJUNOK_clean_linker_0, # of connection points: 2
#     Edge 30, Type (0, 1), BuildingBlock: AJUNOK_clean_linker_0, # of connection points: 2
#     Edge 31, Type (0, 1), BuildingBlock: AJUNOK_clean_linker_0, # of connection points: 2
#     Edge 32, Type (0, 1), BuildingBlock: AJUNOK_clean_linker_0, # of connection points: 2
#     Edge 33, Type (0, 1), BuildingBlock: AJUNOK_clean_linker_0, # of connection points: 2
#     Edge 34, Type (0, 1), BuildingBlock: AJUNOK_clean_linker_0, # of connection points: 2
#     Edge 35, Type (0, 1), BuildingBlock: AJUNOK_clean_linker_0, # of connection points: 2
# Relax obj value: 0.080
# Max RMSD: 0.155
# Mean RMSD: 0.117
data_MOF--net-pry--node1-OLANEW_clean_sbu_2--node2-MIDCAF_clean_sbu_0--edge1-AJUNOK_clean_linker_0
_symmetry_space_group_name_H-M    P1
_symmetry_Int_Tables_number       1
_symmetry_cell_setting            triclinic
loop_
_symmetry_equiv_pos_as_xyz
'x, y, z'
_cell_length_a     28.973167
_cell_length_b     28.763085
_cell_length_c     28.277916
_cell_angle_alpha  93.009631
_cell_angle_beta   88.025398
_cell_angle_gamma 94.868504
loop_
_atom_site_label
_atom_site_type_symbol
_atom_site_fract_x
_atom_site_fract_y
_atom_site_fract_z
_atom_type_partial_charge
O0 O 0.31577 0.23279 0.21298 0.0
Cd1 Cd 0.2529 0.27821 0.24753 0.0
O2 O 0.33007 0.19944 0.2788 0.0
Cd3 Cd 0.27499 0.22733 0.32381 0.0
O4 O 0.22161 0.2018 0.37497 0.0
C5 C 0.1955 0.16752 0.3584 0.0
O6 O 0.20105 0.15471 0.31342 0.0
C7 C 0.33886 0.20535 0.23506 0.0
C8 C 0.2057 0.33135 0.18633 0.0
O9 O 0.24021 0.34983 0.20985 0.0
O10 O 0.19455 0.28761 0.19042 0.0
O11 O 0.35118 0.79934 0.86647 0.0
Cd12 Cd 0.30991 0.75989 0.79854 0.0
O13 O 0.29923 0.85074 0.87956 0.0
Cd14 Cd 0.25239 0.83433 0.82016 0.0
O15 O 0.20344 0.84936 0.76581 0.0
C16 C 0.18173 0.88613 0.77093 0.0
O17 O 0.18825 0.91324 0.80937 0.0
C18 C 0.33639 0.83382 0.89088 0.0
C19 C 0.36336 0.70204 0.73946 0.0
O20 O 0.36365 0.74597 0.73368 0.0
O21 O 0.33812 0.68524 0.77364 0.0
O22 O 0.81197 0.35284 0.822 0.0
Cd23 Cd 0.74485 0.30565 0.7867 0.0
O24 O 0.83992 0.29348 0.85473 0.0
Cd25 Cd 0.77939 0.24284 0.84581 0.0
O26 O 0.72543 0.19247 0.87448 0.0
C27 C 0.72066 0.19232 0.91941 0.0
O28 O 0.74801 0.22153 0.94514 0.0
C29 C 0.84366 0.3363 0.8447 0.0
C30 C 0.6884 0.35334 0.72934 0.0
O31 O 0.68201 0.35305 0.77442 0.0
O32 O 0.72209 0.33168 0.71106 0.0
O33 O 0.87268 0.81964 0.30224 0.0
Cd34 Cd 0.83523 0.76667 0.24108 0.0
O35 O 0.84412 0.77568 0.35957 0.0
Cd36 Cd 0.80006 0.7244 0.31867 0.0
O37 O 0.75045 0.6707 0.34639 0.0
C38 C 0.70959 0.68029 0.35862 0.0
O39 O 0.69581 0.72072 0.34799 0.0
C40 C 0.86879 0.81142 0.34603 0.0
C41 C 0.89082 0.70038 0.1969 0.0
O42 O 0.88822 0.74027 0.17938 0.0
O43 O 0.86793 0.69235 0.23563 0.0
O44 O 0.94507 0.89274 0.85817 0.0
Cd45 Cd 0.90949 0.86268 0.93168 0.0
O46 O 0.94646 0.96518 0.88711 0.0
Cd47 Cd 0.90103 0.94874 0.94769 0.0
O48 O 0.83205 0.94923 0.98066 0.0
C49 C 0.81365 0.98783 0.98588 0.0
O50 O 0.83758 0.02626 0.97317 0.0
C51 C 0.95677 0.936 0.85391 0.0
C52 C 0.94738 0.78166 0.95644 0.0
O53 O 0.9107 0.77945 0.93208 0.0
O54 O 0.96596 0.82222 0.96917 0.0
O55 O 0.58942 0.98185 0.3873 0.0
Cd56 Cd 0.62563 0.95252 0.45615 0.0
O57 O 0.59501 0.05393 0.41713 0.0
Cd58 Cd 0.5883 0.12938 0.42406 0.0
O59 O 0.58525 0.20351 0.44594 0.0
C60 C 0.58004 0.21773 0.48907 0.0
O61 O 0.57584 0.187 0.52205 0.0
C62 C 0.58197 0.02454 0.38402 0.0
C63 C 0.72208 0.97011 0.46191 0.0
O64 O 0.70461 0.93012 0.44606 0.0
O65 O 0.69422 0.00129 0.4739 0.0
O66 O 0.54964 0.70305 0.13624 0.0
Cd67 Cd 0.57083 0.62538 0.15509 0.0
O68 O 0.47759 0.67755 0.1504 0.0
Cd69 Cd 0.40203 0.67381 0.15397 0.0
O70 O 0.3319 0.64076 0.14475 0.0
C71 C 0.32632 0.59716 0.134 0.0
O72 O 0.36292 0.57308 0.12968 0.0
C73 C 0.50694 0.71034 0.13782 0.0
C74 C 0.55363 0.60121 0.24909 0.0
O75 O 0.59438 0.61645 0.23499 0.0
O76 O 0.5211 0.5985 0.21924 0.0
O77 O 0.09529 0.53213 0.69992 0.0
Cd78 Cd 0.12757 0.56268 0.62589 0.0
O79 O 0.11389 0.46325 0.67313 0.0
Cd80 Cd 0.12193 0.38817 0.67008 0.0
O81 O 0.11972 0.31537 0.64272 0.0
C82 C 0.10904 0.30607 0.59979 0.0
O83 O 0.10076 0.34053 0.57341 0.0
C84 C 0.09713 0.48893 0.70634 0.0
C85 C 0.22143 0.54749 0.6151 0.0
O86 O 0.20917 0.58709 0.63157 0.0
O87 O 0.18951 0.51564 0.60382 0.0
Zn88 Zn 0.95841 0.06298 0.60006 0.0
Zn89 Zn 0.06919 0.94859 0.51507 0.0
Zn90 Zn 0.01368 0.00649 0.55703 0.0
C91 C 0.09368 0.03966 0.48377 0.0
C92 C 0.98195 0.9218 0.48205 0.0
O93 O 0.01084 0.99018 0.63247 0.0
O94 O 0.96091 0.03815 0.66376 0.0
C95 C 0.03033 0.12045 0.56552 0.0
O96 O 0.06503 0.05086 0.51737 0.0
O97 O 0.10044 -0.00269 0.47425 0.0
O98 O 0.0207 0.9054 0.48514 0.0
O99 O 0.97355 0.96052 0.50455 0.0
O100 O -0.00691 0.12313 0.58945 0.0
O101 O 0.04296 0.08044 0.54966 0.0
O102 O 0.94307 0.99161 0.52621 0.0
O103 O 0.90363 0.04668 0.56186 0.0
C104 C 0.90564 0.01291 0.53177 0.0
O105 O 0.04802 0.96776 0.61133 0.0
O106 O 0.10001 0.92825 0.57105 0.0
C107 C 0.98752 0.00626 0.66841 0.0
C108 C 0.08187 0.94115 0.61026 0.0
Zn109 Zn 0.48183 0.05064 0.02778 0.0
Zn110 Zn 0.56696 0.96986 0.13517 0.0
Zn111 Zn 0.52329 0.00768 0.0877 0.0
C112 C 0.62689 0.98409 0.06639 0.0
C113 C 0.49988 0.90475 0.11927 0.0
O114 O 0.48328 0.05727 0.13262 0.0
O115 O 0.45399 0.09381 0.0754 0.0
C116 C 0.57204 0.0729 0.00434 0.0
O117 O 0.59795 0.01561 0.06462 0.0
O118 O 0.61655 0.94927 0.09105 0.0
O119 O 0.51989 0.92015 0.1565 0.0
O120 O 0.50089 0.93109 0.08358 0.0
O121 O 0.53329 0.07756 0.98703 0.0
O122 O 0.57457 0.04861 0.04121 0.0
O123 O 0.47691 0.9533 0.04831 0.0
O124 O 0.4412 -0.00246 0.00215 0.0
C125 C 0.44684 0.95771 0.01659 0.0
O126 O 0.51391 0.03347 0.16348 0.0
O127 O 0.58525 0.02246 0.18075 0.0
C128 C 0.45862 0.08914 0.11911 0.0
C129 C 0.5475 0.03909 0.19263 0.0
Zn130 Zn 0.57618 0.56607 0.59739 0.0
Zn131 Zn 0.46201 0.46411 0.49143 0.0
Zn132 Zn 0.5191 0.51292 0.54558 0.0
C133 C 0.52446 0.40378 0.52129 0.0
C134 C 0.50666 0.52705 0.43305 0.0
O135 O 0.47732 0.55505 0.59738 0.0
O136 O 0.53059 0.60749 0.62649 0.0
C137 C 0.58652 0.47469 0.62118 0.0
O138 O 0.53677 0.4395 0.54884 0.0
O139 O 0.49392 0.40623 0.49101 0.0
O140 O 0.46979 0.50041 0.43352 0.0
O141 O 0.5308 0.53391 0.4707 0.0
O142 O 0.59585 0.51637 0.63629 0.0
O143 O 0.56057 0.46573 0.58502 0.0
O144 O 0.56402 0.55833 0.49921 0.0
O145 O 0.61899 0.58995 0.54616 0.0
C146 C 0.60243 0.5836 0.50544 0.0
O147 O 0.44634 0.52481 0.56955 0.0
O148 O 0.40456 0.46886 0.52976 0.0
C149 C 0.48865 0.59195 0.62387 0.0
C150 C 0.40686 0.50247 0.56028 0.0
Zn151 Zn 0.11281 0.55868 0.96366 0.0
Zn152 Zn -0.0034 0.46119 0.05897 0.0
Zn153 Zn 0.05295 0.51259 0.0112 0.0
C154 C 0.08293 0.43582 0.0808 0.0
C155 C 0.97294 0.44272 0.96547 0.0
O156 O 0.02945 0.58337 0.01285 0.0
O157 O 0.0761 0.61294 0.95632 0.0
C158 C 0.15936 0.54012 0.03985 0.0
O159 O 0.0937 0.47477 0.06075 0.0
O160 O 0.04166 0.41773 0.07998 0.0
O161 O 0.9542 0.4403 0.00632 0.0
O162 O 0.01357 0.4641 0.96001 0.0
O163 O 0.16343 0.56842 0.00725 0.0
O164 O 0.12205 0.51263 0.04473 0.0
O165 O 0.05157 0.4854 0.93539 0.0
O166 O 0.12021 0.51402 0.90914 0.0
C167 C 0.08376 0.4876 0.90269 0.0
O168 O 0.00757 0.56081 0.05166 0.0
O169 O 0.97781 0.51226 0.10453 0.0
C170 C 0.04181 0.6163 0.98467 0.0
C171 C 0.98413 0.5534 0.09061 0.0
C172 C 0.16471 0.14678 0.43974 0.0
C173 C 0.16444 0.13831 0.39009 0.0
C174 C 0.14027 0.11576 0.47038 0.0
C175 C 0.11526 0.07513 0.45232 0.0
H176 H 0.18516 0.17667 0.45518 0.0
H177 H 0.14266 0.12249 0.50829 0.0
S178 S 0.09752 0.04002 0.32585 0.0
N179 N 0.13218 0.08858 0.3248 0.0
N180 N 0.08743 0.03035 0.38242 0.0
C181 C 0.11267 0.06753 0.40305 0.0
C182 C 0.1369 0.09914 0.37191 0.0
C183 C 0.34408 0.89352 0.95828 0.0
C184 C 0.36362 0.85764 0.9305 0.0
C185 C 0.37069 0.92298 0.98966 0.0
C186 C 0.41791 0.91768 -0.00473 0.0
H187 H 0.3084 0.90072 0.95404 0.0
H188 H 0.35475 0.95201 0.0077 0.0
S189 S 0.48485 0.82565 0.93661 0.0
N190 N 0.43249 0.81542 0.91495 0.0
N191 N 0.48234 0.87132 0.97429 0.0
C192 C 0.43718 0.87975 0.97106 0.0
C193 C 0.41007 0.84959 0.9386 0.0
C194 C 0.6299 0.41166 0.72249 0.0
C195 C 0.65872 0.37965 0.69999 0.0
C196 C 0.60467 0.44027 0.69632 0.0
C197 C 0.60636 0.43762 0.6465 0.0
H198 H 0.62806 0.41605 0.76077 0.0
H199 H 0.58464 0.46581 0.71534 0.0
S200 S 0.67357 0.35773 0.56983 0.0
N201 N 0.68525 0.34527 0.62432 0.0
N202 N 0.63766 0.39946 0.5754 0.0
C203 C 0.63319 0.40446 0.62331 0.0
C204 C 0.65943 0.37543 0.64998 0.0
C205 C 0.93456 0.66983 0.12512 0.0
C206 C 0.91765 0.66397 0.17192 0.0
C207 C 0.95701 0.63458 0.09961 0.0
C208 C 0.96343 0.59191 0.11942 0.0
H209 H 0.92955 0.70148 0.10749 0.0
H210 H 0.9683 0.64047 0.06373 0.0
S211 S 0.93041 0.56098 0.24284 0.0
N212 N 0.91229 0.6134 0.23851 0.0
N213 N 0.95432 0.5475 0.19066 0.0
C214 C 0.94826 0.58633 0.16692 0.0
C215 C 0.92546 0.6222 0.19303 0.0
C216 C 0.38942 0.18982 0.16333 0.0
C217 C 0.37402 0.17787 0.20909 0.0
C218 C 0.41863 0.162 0.13595 0.0
C219 C 0.43366 0.12063 0.15275 0.0
H220 H 0.37806 0.22046 0.14795 0.0
H221 H 0.42849 0.17256 0.10054 0.0
S222 S 0.40528 0.07462 0.27125 0.0
N223 N 0.37809 0.1228 0.2712 0.0
N224 N 0.43222 0.07015 0.21902 0.0
C225 C 0.42013 0.10914 0.19916 0.0
C226 C 0.39049 0.13777 0.22741 0.0
C227 C 0.14231 0.8686 0.69352 0.0
C228 C 0.15196 0.8997 0.73273 0.0
C229 C 0.11784 0.88179 0.6551 0.0
C230 C 0.10169 0.92651 0.65427 0.0
H231 H 0.15461 0.83401 0.69189 0.0
H232 H 0.11235 0.85698 0.62523 0.0
S233 S 0.11803 0.02159 0.74733 0.0
N234 N 0.14258 0.97752 0.7683 0.0
N235 N 0.09778 0.0023 0.69543 0.0
C236 C 0.1101 0.9577 0.69349 0.0
C237 C 0.13491 0.94429 0.73285 0.0
C238 C 0.87248 0.41208 0.88518 0.0
C239 C 0.88181 0.36772 0.86567 0.0
C240 C 0.90409 0.43802 0.91492 0.0
C241 C 0.94669 0.42121 0.92498 0.0
H242 H 0.83912 0.42531 0.88045 0.0
H243 H 0.89411 0.47035 0.93216 0.0
S244 S -0.00921 0.31064 0.87727 0.0
N245 N 0.93878 0.3103 0.85494 0.0
N246 N -0.00133 0.36009 0.90953 0.0
C247 C 0.95815 0.37893 0.90261 0.0
C248 C 0.92557 0.35191 0.87324 0.0
C249 C 0.63396 0.65734 0.40025 0.0
C250 C 0.68126 0.65066 0.39195 0.0
C251 C 0.60791 0.63426 0.4361 0.0
C252 C 0.62848 0.6042 0.46508 0.0
H253 H 0.61714 0.6813 0.37958 0.0
H254 H 0.57189 0.64098 0.44208 0.0
S255 S 0.74949 0.57164 0.45622 0.0
N256 N 0.74646 0.609 0.41429 0.0
N257 N 0.69742 0.56659 0.48195 0.0
C258 C 0.67506 0.59604 0.4564 0.0
C259 C 0.70146 0.61887 0.41961 0.0
C260 C 0.14714 0.33715 0.12396 0.0
C261 C 0.17801 0.35968 0.15691 0.0
C262 C 0.11768 0.36238 0.09858 0.0
C263 C 0.11787 0.41124 0.10487 0.0
H264 H 0.14513 0.29951 0.11816 0.0
H265 H 0.09405 0.34332 0.07418 0.0
S266 S 0.18943 0.48693 0.18906 0.0
N267 N 0.20592 0.43406 0.19516 0.0
N268 N 0.14954 0.48095 0.14834 0.0
C269 C 0.14855 0.43436 0.13744 0.0
C270 C 0.17887 0.40873 0.16318 0.0
C271 C 0.66245 0.12225 0.9164 0.0
C272 C 0.68454 0.16041 0.94251 0.0
C273 C 0.62718 0.09266 0.93713 0.0
C274 C 0.61323 0.09979 0.98483 0.0
H275 H 0.67205 0.11544 0.87948 0.0
H276 H 0.61022 0.06444 0.91555 0.0
S277 S 0.65715 0.19575 0.06804 0.0
N278 N 0.68802 0.20432 0.0186 0.0
N279 N 0.62201 0.14846 0.05703 0.0
C280 C 0.63477 0.13752 0.01135 0.0
C281 C 0.67045 0.16783 0.99037 0.0
C282 C 0.91428 0.82057 0.41932 0.0
C283 C 0.89468 0.8415 0.38181 0.0
C284 C 0.94087 0.8473 0.45284 0.0
C285 C 0.94772 0.8961 0.45096 0.0
H286 H 0.91041 0.78297 0.42188 0.0
H287 H 0.95699 0.82953 0.47997 0.0
S288 S 0.90034 0.96842 0.36258 0.0
N289 N 0.88169 0.91424 0.34622 0.0
N290 N 0.93104 0.96475 0.41021 0.0
C291 C 0.92665 0.91783 0.41499 0.0
C292 C 0.90032 0.89043 0.38009 0.0
C293 C 0.42814 0.69369 0.67969 0.0
C294 C 0.39264 0.6723 0.70834 0.0
C295 C 0.45818 0.66714 0.65186 0.0
C296 C 0.4536 0.61805 0.65082 0.0
H297 H 0.43359 0.7314 0.67945 0.0
H298 H 0.48551 0.68531 0.63112 0.0
S299 S 0.36562 0.54442 0.71764 0.0
N300 N 0.3538 0.59852 0.73263 0.0
N301 N 0.41083 0.54881 0.68043 0.0
C302 C 0.41784 0.59596 0.67841 0.0
C303 C 0.38721 0.62303 0.70709 0.0
C304 C 0.97769 0.9226 0.76755 0.0
C305 C 0.97591 0.95333 0.80805 0.0
C306 C 0.98521 0.93968 0.72203 0.0
C307 C -0.00938 0.98793 0.71571 0.0
H308 H 0.97045 0.8853 0.77062 0.0
H309 H 0.98356 0.91521 0.69155 0.0
S310 S -0.00028 0.08245 0.80987 0.0
N311 N 0.98892 0.03407 0.83867 0.0
N312 N 0.00136 0.06572 0.75316 0.0
C313 C -0.00679 0.01866 0.75585 0.0
C314 C 0.98643 0.00145 0.80207 0.0
C315 C 0.58259 0.07609 0.3153 0.0
C316 C 0.56112 0.03886 0.34047 0.0
C317 C 0.57274 0.08091 0.26749 0.0
C318 C 0.54028 0.04946 0.24384 0.0
H319 H 0.6105 0.09858 0.33095 0.0
H320 H 0.59396 0.10642 0.24764 0.0
S321 S 0.4688 0.95148 0.29687 0.0
N322 N 0.50159 0.97409 0.34036 0.0
N323 N 0.48261 0.98379 0.25109 0.0
C324 C 0.51477 0.01573 0.27043 0.0
C325 C 0.52541 0.01018 0.31863 0.0
C326 C 0.49976 0.58861 0.31889 0.0
C327 C 0.54422 0.58577 0.2979 0.0
C328 C 0.48854 0.57093 0.36347 0.0
C329 C 0.5213 0.54965 0.38869 0.0
H330 H 0.4732 0.60417 0.30049 0.0
H331 H 0.45369 0.57329 0.37804 0.0
S332 S 0.64108 0.52941 0.34767 0.0
N333 N 0.62071 0.55837 0.30509 0.0
N334 N 0.59889 0.52377 0.38829 0.0
C335 C 0.56577 0.54629 0.36817 0.0
C336 C 0.57745 0.56482 0.32295 0.0
C337 C 0.04584 0.48796 0.77885 0.0
C338 C 0.08448 0.47149 0.75368 0.0
C339 C 0.04135 0.48579 0.82831 0.0
C340 C 0.07613 0.46832 0.85406 0.0
H341 H 0.02098 0.50617 0.7607 0.0
H342 H 0.01365 0.50307 0.84675 0.0
S343 S 0.1798 0.41398 0.80436 0.0
N344 N 0.15425 0.43083 0.75759 0.0
N345 N 0.14658 0.42819 0.85063 0.0
C346 C 0.11202 0.44709 0.82886 0.0
C347 C 0.11609 0.4484 0.7785 0.0
C348 C 0.73501 0.94815 0.00128 0.0
C349 C 0.7653 0.989 0.00431 0.0
C350 C 0.68953 0.94766 0.01969 0.0
C351 C 0.67253 0.98798 0.04168 0.0
H352 H 0.74656 0.91611 0.98486 0.0
H353 H 0.66767 0.91516 0.01741 0.0
S354 S 0.73872 0.10273 0.06221 0.0
N355 N 0.77547 0.07047 0.03251 0.0
N356 N 0.69 0.06901 0.06796 0.0
C357 C 0.70217 0.02912 0.04482 0.0
C358 C 0.74858 0.02974 0.02591 0.0
C359 C 0.79939 0.94349 0.48193 0.0
C360 C 0.77247 0.97949 0.46972 0.0
C361 C 0.84457 0.95367 0.49876 0.0
C362 C 0.86413 5e-05 0.50334 0.0
H363 H 0.78443 0.90767 0.48151 0.0
H364 H 0.86291 0.92557 0.51112 0.0
S365 S 0.81191 0.10539 0.46664 0.0
N366 N 0.77156 0.06223 0.45676 0.0
N367 N 0.85609 0.08115 0.48764 0.0
C368 C 0.83914 0.03557 0.4871 0.0
C369 C 0.79339 0.02535 0.47044 0.0
C370 C 0.27786 0.53611 0.08721 0.0
C371 C 0.28048 0.5756 0.11906 0.0
C372 C 0.2364 0.52091 0.06476 0.0
C373 C 0.19615 0.54401 0.0744 0.0
H374 H 0.30874 0.51892 0.07679 0.0
H375 H 0.23668 0.49317 0.03733 0.0
S376 S 0.18228 0.64348 0.16071 0.0
N377 N 0.2374 0.63341 0.16342 0.0
N378 N 0.15962 0.60441 0.12134 0.0
C379 C 0.19721 0.58069 0.10908 0.0
C380 C 0.23935 0.59654 0.13155 0.0
C381 C 0.28325 0.49228 0.60704 0.0
C382 C 0.27081 0.53851 0.60785 0.0
C383 C 0.32841 0.48153 0.59458 0.0
C384 C 0.3629 0.51653 0.58224 0.0
H385 H 0.25757 0.4639 0.6149 0.0
H386 H 0.336 0.44522 0.59293 0.0
S387 S 0.3484 0.64307 0.57867 0.0
N388 N 0.29711 0.61992 0.59674 0.0
N389 N 0.38162 0.59919 0.57107 0.0
C390 C 0.35143 0.56308 0.58413 0.0
C391 C 0.30547 0.57421 0.59763 0.0
C392 C 0.01566 0.74234 0.98128 0.0
C393 C 0.96914 0.73886 0.96766 0.0
C394 C 0.03857 0.70238 0.9882 0.0
C395 C 0.0155 0.65761 0.98288 0.0
H396 H 0.03513 0.77611 0.9851 0.0
H397 H 0.07483 0.70647 -0.00292 0.0
S398 S 0.89337 0.62886 0.95032 0.0
N399 N 0.90042 0.6865 0.95086 0.0
N400 N 0.94378 0.61152 0.9645 0.0
C401 C 0.96881 0.65342 0.97064 0.0
C402 C 0.9455 0.69404 0.96303 0.0
C403 C 0.51435 0.77907 0.087 0.0
C404 C 0.4931 0.75669 0.12619 0.0
C405 C 0.51082 0.82682 0.08112 0.0
C406 C 0.48686 0.854 0.11492 0.0
H407 H 0.5362 0.76019 0.06223 0.0
H408 H 0.53098 0.8434 0.05274 0.0
S409 S 0.42149 0.81127 0.22123 0.0
N410 N 0.44342 0.7643 0.19659 0.0
N411 N 0.43831 0.85443 0.18659 0.0
C412 C 0.46268 0.83131 0.15229 0.0
C413 C 0.4654 0.78249 0.15769 0.0
C414 C 0.06359 0.24692 0.54843 0.0
C415 C 0.09784 0.25703 0.58249 0.0
C416 C 0.04485 0.20098 0.53884 0.0
C417 C 0.06077 0.16359 0.56179 0.0
H418 H 0.04846 0.27489 0.53184 0.0
H419 H 0.01552 0.19505 0.51588 0.0
S420 S 0.15486 0.17024 0.64775 0.0
N421 N 0.15058 0.22508 0.63496 0.0
N422 N 0.11588 0.1386 0.61581 0.0
C423 C 0.0979 0.1726 0.59235 0.0
C424 C 0.11637 0.21943 0.60298 0.0
C425 C 0.55105 0.28107 0.54422 0.0
C426 C 0.57397 0.26776 0.50136 0.0
C427 C 0.53831 0.32693 0.55304 0.0
C428 C 0.54872 0.36087 0.51957 0.0
H429 H 0.54041 0.25532 0.56989 0.0
H430 H 0.51782 0.33505 0.5847 0.0
S431 S 0.61488 0.34667 0.40608 0.0
N432 N 0.61156 0.29443 0.42818 0.0
N433 N 0.58749 0.38017 0.44496 0.0
C434 C 0.57465 0.34909 0.47856 0.0
C435 C 0.58741 0.30264 0.46942 0.0
loop_
_geom_bond_atom_site_label_1
_geom_bond_atom_site_label_2
_geom_bond_distance
_geom_bond_site_symmetry_2
_ccdc_geom_bond_type
O0 Cd1 2.300 . S
O0 C7 1.275 . S
Cd1 O0 2.300 . S
Cd1 O9 2.381 . S
Cd1 O10 2.378 . S
O2 Cd3 2.385 . S
O2 C7 1.255 . S
Cd3 O2 2.385 . S
Cd3 O4 2.317 . S
O4 Cd3 2.317 . S
O4 C5 1.232 . S
C5 O4 1.232 . S
C5 O6 1.218 . S
O6 C5 1.218 . S
C7 O0 1.275 . S
C7 O2 1.255 . S
C8 O9 1.258 . S
C8 O10 1.256 . S
O9 Cd1 2.381 . S
O9 C8 1.258 . S
O10 Cd1 2.378 . S
O10 C8 1.256 . S
O11 Cd12 2.300 . S
O11 C18 1.275 . S
Cd12 O11 2.300 . S
Cd12 O20 2.381 . S
Cd12 O21 2.378 . S
O13 Cd14 2.385 . S
O13 C18 1.255 . S
Cd14 O13 2.385 . S
Cd14 O15 2.317 . S
O15 Cd14 2.317 . S
O15 C16 1.232 . S
C16 O15 1.232 . S
C16 O17 1.218 . S
O17 C16 1.218 . S
C18 O11 1.275 . S
C18 O13 1.255 . S
C19 O20 1.258 . S
C19 O21 1.256 . S
O20 Cd12 2.381 . S
O20 C19 1.258 . S
O21 Cd12 2.378 . S
O21 C19 1.256 . S
O22 Cd23 2.300 . S
O22 C29 1.275 . S
Cd23 O22 2.300 . S
Cd23 O31 2.381 . S
Cd23 O32 2.378 . S
O24 Cd25 2.385 . S
O24 C29 1.255 . S
Cd25 O24 2.385 . S
Cd25 O26 2.317 . S
O26 Cd25 2.317 . S
O26 C27 1.232 . S
C27 O26 1.232 . S
C27 O28 1.218 . S
O28 C27 1.218 . S
C29 O22 1.275 . S
C29 O24 1.255 . S
C30 O31 1.258 . S
C30 O32 1.256 . S
O31 Cd23 2.381 . S
O31 C30 1.258 . S
O32 Cd23 2.378 . S
O32 C30 1.256 . S
O33 Cd34 2.300 . S
O33 C40 1.275 . S
Cd34 O33 2.300 . S
Cd34 O42 2.381 . S
Cd34 O43 2.378 . S
O35 Cd36 2.385 . S
O35 C40 1.255 . S
Cd36 O35 2.385 . S
Cd36 O37 2.317 . S
O37 Cd36 2.317 . S
O37 C38 1.232 . S
C38 O37 1.232 . S
C38 O39 1.218 . S
O39 C38 1.218 . S
C40 O33 1.275 . S
C40 O35 1.255 . S
C41 O42 1.258 . S
C41 O43 1.256 . S
O42 Cd34 2.381 . S
O42 C41 1.258 . S
O43 Cd34 2.378 . S
O43 C41 1.256 . S
O44 Cd45 2.300 . S
O44 C51 1.275 . S
Cd45 O44 2.300 . S
Cd45 O53 2.381 1_655 S
Cd45 O54 2.378 1_656 S
O46 Cd47 2.385 1_566 S
O46 C51 1.255 . S
Cd47 O46 2.385 1_544 S
Cd47 O48 2.317 1_545 S
O48 Cd47 2.317 1_565 S
O48 C49 1.232 1_565 S
C49 O48 1.232 1_545 S
C49 O50 1.218 . S
O50 C49 1.218 . S
C51 O44 1.275 . S
C51 O46 1.255 . S
C52 O53 1.258 1_554 S
C52 O54 1.256 . S
O53 Cd45 2.381 1_455 S
O53 C52 1.258 1_556 S
O54 Cd45 2.378 1_454 S
O54 C52 1.256 . S
O55 Cd56 2.300 . S
O55 C62 1.275 . S
Cd56 O55 2.300 . S
Cd56 O64 2.381 . S
Cd56 O65 2.378 . S
O57 Cd58 2.385 . S
O57 C62 1.255 . S
Cd58 O57 2.385 . S
Cd58 O59 2.317 . S
O59 Cd58 2.317 . S
O59 C60 1.232 . S
C60 O59 1.232 . S
C60 O61 1.218 . S
O61 C60 1.218 . S
C62 O55 1.275 . S
C62 O57 1.255 . S
C63 O64 1.258 . S
C63 O65 1.256 . S
O64 Cd56 2.381 . S
O64 C63 1.258 . S
O65 Cd56 2.378 . S
O65 C63 1.256 . S
O66 Cd67 2.300 . S
O66 C73 1.275 . S
Cd67 O66 2.300 . S
Cd67 O75 2.381 . S
Cd67 O76 2.378 . S
O68 Cd69 2.385 . S
O68 C73 1.255 . S
Cd69 O68 2.385 . S
Cd69 O70 2.317 . S
O70 Cd69 2.317 . S
O70 C71 1.232 . S
C71 O70 1.232 . S
C71 O72 1.218 . S
O72 C71 1.218 . S
C73 O66 1.275 . S
C73 O68 1.255 . S
C74 O75 1.258 . S
C74 O76 1.256 . S
O75 Cd67 2.381 . S
O75 C74 1.258 . S
O76 Cd67 2.378 . S
O76 C74 1.256 . S
O77 Cd78 2.300 . S
O77 C84 1.275 . S
Cd78 O77 2.300 . S
Cd78 O86 2.381 . S
Cd78 O87 2.378 . S
O79 Cd80 2.385 . S
O79 C84 1.255 . S
Cd80 O79 2.385 . S
Cd80 O81 2.317 . S
O81 Cd80 2.317 . S
O81 C82 1.232 . S
C82 O81 1.232 . S
C82 O83 1.218 . S
O83 C82 1.218 . S
C84 O77 1.275 . S
C84 O79 1.255 . S
C85 O86 1.258 . S
C85 O87 1.256 . S
O86 Cd78 2.381 . S
O86 C85 1.258 . S
O87 Cd78 2.378 . S
O87 C85 1.256 . S
Zn88 O94 1.920 . S
Zn88 O100 1.898 . S
Zn88 O103 1.905 . S
Zn89 O97 1.905 1_565 S
Zn89 O98 1.898 . S
Zn89 O106 1.920 . S
Zn90 O93 2.080 1_445 S
Zn90 O96 2.114 . S
Zn90 O99 2.120 1_445 S
Zn90 O101 2.120 . S
Zn90 O102 2.114 1_455 S
Zn90 O105 2.084 . S
C91 O96 1.166 . S
C91 O97 1.182 . S
C92 O98 1.167 1_655 S
C92 O99 1.299 . S
O93 Zn90 2.080 1_665 S
O93 C107 1.305 1_565 S
O94 Zn88 1.920 . S
O94 C107 1.234 . S
C95 O100 1.167 1_455 S
C95 O101 1.299 . S
O96 Zn90 2.114 . S
O96 C91 1.166 . S
O97 Zn89 1.905 1_545 S
O97 C91 1.182 . S
O98 Zn89 1.898 . S
O98 C92 1.167 1_455 S
O99 Zn90 2.120 1_665 S
O99 C92 1.299 . S
O100 Zn88 1.898 . S
O100 C95 1.167 1_655 S
O101 Zn90 2.120 . S
O101 C95 1.299 . S
O102 Zn90 2.114 1_655 S
O102 C104 1.166 . S
O103 Zn88 1.905 . S
O103 C104 1.182 . S
C104 O102 1.166 . S
C104 O103 1.182 . S
O105 Zn90 2.084 . S
O105 C108 1.295 1_545 S
O106 Zn89 1.920 . S
O106 C108 1.234 . S
C107 O93 1.305 1_545 S
C107 O94 1.234 . S
C108 O105 1.295 1_565 S
C108 O106 1.234 . S
Zn109 O115 1.920 . S
Zn109 O121 1.898 . S
Zn109 O124 1.905 1_554 S
Zn110 O118 1.905 . S
Zn110 O119 1.898 . S
Zn110 O127 1.920 . S
Zn111 O114 2.080 . S
Zn111 O117 2.114 1_545 S
Zn111 O120 2.120 1_545 S
Zn111 O122 2.120 . S
Zn111 O123 2.114 1_545 S
Zn111 O126 2.080 . S
C112 O117 1.166 . S
C112 O118 1.182 . S
C113 O119 1.167 . S
C113 O120 1.299 . S
O114 Zn111 2.080 . S
O114 C128 1.305 . S
O115 Zn109 1.920 . S
O115 C128 1.234 . S
C116 O121 1.167 . S
C116 O122 1.299 . S
O117 Zn111 2.114 1_565 S
O117 C112 1.166 . S
O118 Zn110 1.905 . S
O118 C112 1.182 . S
O119 Zn110 1.898 . S
O119 C113 1.167 . S
O120 Zn111 2.120 1_565 S
O120 C113 1.299 . S
O121 Zn109 1.898 . S
O121 C116 1.167 . S
O122 Zn111 2.120 . S
O122 C116 1.299 . S
O123 Zn111 2.114 1_565 S
O123 C125 1.166 1_554 S
O124 Zn109 1.905 1_556 S
O124 C125 1.182 1_545 S
C125 O123 1.166 1_556 S
C125 O124 1.182 1_565 S
O126 Zn111 2.080 . S
O126 C129 1.305 . S
O127 Zn110 1.920 . S
O127 C129 1.234 1_565 S
C128 O114 1.305 . S
C128 O115 1.234 . S
C129 O126 1.305 . S
C129 O127 1.234 1_545 S
Zn130 O136 1.920 . S
Zn130 O142 1.898 . S
Zn130 O145 1.905 . S
Zn131 O139 1.905 . S
Zn131 O140 1.898 . S
Zn131 O148 1.920 . S
Zn132 O135 2.080 . S
Zn132 O138 2.114 . S
Zn132 O141 2.120 . S
Zn132 O143 2.120 . S
Zn132 O144 2.114 . S
Zn132 O147 2.080 . S
C133 O138 1.166 . S
C133 O139 1.182 . S
C134 O140 1.167 . S
C134 O141 1.299 . S
O135 Zn132 2.080 . S
O135 C149 1.305 . S
O136 Zn130 1.920 . S
O136 C149 1.234 . S
C137 O142 1.167 . S
C137 O143 1.299 . S
O138 Zn132 2.114 . S
O138 C133 1.166 . S
O139 Zn131 1.905 . S
O139 C133 1.182 . S
O140 Zn131 1.898 . S
O140 C134 1.167 . S
O141 Zn132 2.120 . S
O141 C134 1.299 . S
O142 Zn130 1.898 . S
O142 C137 1.167 . S
O143 Zn132 2.120 . S
O143 C137 1.299 . S
O144 Zn132 2.114 . S
O144 C146 1.166 . S
O145 Zn130 1.905 . S
O145 C146 1.182 . S
C146 O144 1.166 . S
C146 O145 1.182 . S
O147 Zn132 2.080 . S
O147 C150 1.305 . S
O148 Zn131 1.920 . S
O148 C150 1.234 . S
C149 O135 1.305 . S
C149 O136 1.234 . S
C150 O147 1.305 . S
C150 O148 1.234 . S
Zn151 O157 1.920 . S
Zn151 O163 1.898 . S
Zn151 O166 1.905 . S
Zn152 O160 1.905 1_655 S
Zn152 O161 1.898 . S
Zn152 O169 1.920 . S
Zn153 O156 2.080 1_554 S
Zn153 O159 2.114 . S
Zn153 O162 2.120 1_454 S
Zn153 O164 2.120 . S
Zn153 O165 2.114 1_554 S
Zn153 O168 2.080 . S
C154 O159 1.166 . S
C154 O160 1.182 . S
C155 O161 1.167 1_556 S
C155 O162 1.299 . S
O156 Zn153 2.080 1_556 S
O156 C170 1.305 . S
O157 Zn151 1.920 . S
O157 C170 1.234 . S
C158 O163 1.167 1_554 S
C158 O164 1.299 . S
O159 Zn153 2.114 . S
O159 C154 1.166 . S
O160 Zn152 1.905 1_455 S
O160 C154 1.182 . S
O161 Zn152 1.898 . S
O161 C155 1.167 1_554 S
O162 Zn153 2.120 1_656 S
O162 C155 1.299 . S
O163 Zn151 1.898 . S
O163 C158 1.167 1_556 S
O164 Zn153 2.120 . S
O164 C158 1.299 . S
O165 Zn153 2.114 1_556 S
O165 C167 1.166 . S
O166 Zn151 1.905 . S
O166 C167 1.182 . S
C167 O165 1.166 . S
C167 O166 1.182 . S
O168 Zn153 2.080 . S
O168 C171 1.314 . S
O169 Zn152 1.920 . S
O169 C171 1.228 1_655 S
C170 O156 1.305 . S
C170 O157 1.234 . S
C171 O168 1.314 . S
C171 O169 1.228 1_455 S
C172 C173 1.369 . S
C172 C174 1.419 . S
C172 H176 0.930 . S
C173 C172 1.369 . S
C173 C182 1.429 . S
C174 C172 1.419 . S
C174 C175 1.363 . S
C174 H177 0.929 . S
C175 C174 1.363 . S
C175 C181 1.428 . S
H176 C172 0.930 . S
H177 C174 0.929 . S
S178 N179 1.613 1_565 S
S178 N180 1.610 . S
N179 S178 1.613 1_545 S
N179 C182 1.350 . S
N180 S178 1.610 . S
N180 C181 1.351 1_565 S
C181 C175 1.428 . S
C181 N180 1.351 1_545 S
C181 C182 1.434 . S
C182 C173 1.429 . S
C182 N179 1.350 . S
C182 C181 1.434 . S
C183 C184 1.369 . S
C183 C185 1.419 . S
C183 H187 0.930 . S
C184 C183 1.369 . S
C184 C193 1.429 . S
C185 C183 1.419 . S
C185 C186 1.363 . S
C185 H188 0.929 . S
C186 C185 1.363 . S
C186 C192 1.428 . S
H187 C183 0.930 . S
H188 C185 0.929 . S
S189 N190 1.613 . S
S189 N191 1.610 . S
N190 S189 1.613 . S
N190 C193 1.350 . S
N191 S189 1.610 . S
N191 C192 1.351 . S
C192 C186 1.428 . S
C192 N191 1.351 . S
C192 C193 1.434 . S
C193 C184 1.429 . S
C193 N190 1.350 . S
C193 C192 1.434 . S
C194 C195 1.369 . S
C194 C196 1.419 . S
C194 H198 0.930 . S
C195 C194 1.369 . S
C195 C204 1.429 . S
C196 C194 1.419 . S
C196 C197 1.363 . S
C196 H199 0.929 . S
C197 C196 1.363 . S
C197 C203 1.428 . S
H198 C194 0.930 . S
H199 C196 0.929 . S
S200 N201 1.613 . S
S200 N202 1.610 . S
N201 S200 1.613 . S
N201 C204 1.350 . S
N202 S200 1.610 . S
N202 C203 1.351 . S
C203 C197 1.428 . S
C203 N202 1.351 . S
C203 C204 1.434 . S
C204 C195 1.429 . S
C204 N201 1.350 . S
C204 C203 1.434 . S
C205 C206 1.369 . S
C205 C207 1.419 1_655 S
C205 H209 0.930 . S
C206 C205 1.369 . S
C206 C215 1.429 . S
C207 C205 1.419 1_455 S
C207 C208 1.363 1_455 S
C207 H210 0.929 . S
C208 C207 1.363 1_655 S
C208 C214 1.428 . S
H209 C205 0.930 . S
H210 C207 0.929 . S
S211 N212 1.613 . S
S211 N213 1.610 . S
N212 S211 1.613 . S
N212 C215 1.350 . S
N213 S211 1.610 . S
N213 C214 1.351 . S
C214 C208 1.428 . S
C214 N213 1.351 . S
C214 C215 1.434 . S
C215 C206 1.429 . S
C215 N212 1.350 . S
C215 C214 1.434 . S
C216 C217 1.369 . S
C216 C218 1.419 . S
C216 H220 0.930 . S
C217 C216 1.369 . S
C217 C226 1.429 . S
C218 C216 1.419 . S
C218 C219 1.363 . S
C218 H221 0.929 . S
C219 C218 1.363 . S
C219 C225 1.428 . S
H220 C216 0.930 . S
H221 C218 0.929 . S
S222 N223 1.613 1_565 S
S222 N224 1.610 1_565 S
N223 S222 1.613 1_545 S
N223 C226 1.350 . S
N224 S222 1.610 1_545 S
N224 C225 1.351 . S
C225 C219 1.428 . S
C225 N224 1.351 . S
C225 C226 1.434 . S
C226 C217 1.429 . S
C226 N223 1.350 . S
C226 C225 1.434 . S
C227 C228 1.369 . S
C227 C229 1.419 . S
C227 H231 0.930 . S
C228 C227 1.369 . S
C228 C237 1.429 . S
C229 C227 1.419 . S
C229 C230 1.363 . S
C229 H232 0.929 . S
C230 C229 1.363 . S
C230 C236 1.428 . S
H231 C227 0.930 . S
H232 C229 0.929 . S
S233 N234 1.613 1_545 S
S233 N235 1.610 . S
N234 S233 1.613 1_565 S
N234 C237 1.350 . S
N235 S233 1.610 . S
N235 C236 1.351 1_545 S
C236 C230 1.428 . S
C236 N235 1.351 1_565 S
C236 C237 1.434 . S
C237 C228 1.429 . S
C237 N234 1.350 . S
C237 C236 1.434 . S
C238 C239 1.369 . S
C238 C240 1.419 . S
C238 H242 0.930 . S
C239 C238 1.369 . S
C239 C248 1.429 . S
C240 C238 1.419 . S
C240 C241 1.363 . S
C240 H243 0.929 . S
C241 C240 1.363 . S
C241 C247 1.428 . S
H242 C238 0.930 . S
H243 C240 0.929 . S
S244 N245 1.613 . S
S244 N246 1.610 . S
N245 S244 1.613 . S
N245 C248 1.350 . S
N246 S244 1.610 . S
N246 C247 1.351 . S
C247 C241 1.428 . S
C247 N246 1.351 . S
C247 C248 1.434 . S
C248 C239 1.429 . S
C248 N245 1.350 . S
C248 C247 1.434 . S
C249 C250 1.369 . S
C249 C251 1.419 . S
C249 H253 0.930 . S
C250 C249 1.369 . S
C250 C259 1.429 . S
C251 C249 1.419 . S
C251 C252 1.363 . S
C251 H254 0.929 . S
C252 C251 1.363 . S
C252 C258 1.428 . S
H253 C249 0.930 . S
H254 C251 0.929 . S
S255 N256 1.613 . S
S255 N257 1.610 . S
N256 S255 1.613 . S
N256 C259 1.350 . S
N257 S255 1.610 . S
N257 C258 1.351 . S
C258 C252 1.428 . S
C258 N257 1.351 . S
C258 C259 1.434 . S
C259 C250 1.429 . S
C259 N256 1.350 . S
C259 C258 1.434 . S
C260 C261 1.369 . S
C260 C262 1.419 . S
C260 H264 0.930 . S
C261 C260 1.369 . S
C261 C270 1.429 . S
C262 C260 1.419 . S
C262 C263 1.363 . S
C262 H265 0.929 . S
C263 C262 1.363 . S
C263 C269 1.428 . S
H264 C260 0.930 . S
H265 C262 0.929 . S
S266 N267 1.613 . S
S266 N268 1.610 . S
N267 S266 1.613 . S
N267 C270 1.350 . S
N268 S266 1.610 . S
N268 C269 1.351 . S
C269 C263 1.428 . S
C269 N268 1.351 . S
C269 C270 1.434 . S
C270 C261 1.429 . S
C270 N267 1.350 . S
C270 C269 1.434 . S
C271 C272 1.369 . S
C271 C273 1.419 . S
C271 H275 0.930 . S
C272 C271 1.369 . S
C272 C281 1.429 1_556 S
C273 C271 1.419 . S
C273 C274 1.363 1_556 S
C273 H276 0.929 . S
C274 C273 1.363 1_554 S
C274 C280 1.428 . S
H275 C271 0.930 . S
H276 C273 0.929 . S
S277 N278 1.613 . S
S277 N279 1.610 . S
N278 S277 1.613 . S
N278 C281 1.350 . S
N279 S277 1.610 . S
N279 C280 1.351 . S
C280 C274 1.428 . S
C280 N279 1.351 . S
C280 C281 1.434 . S
C281 C272 1.429 1_554 S
C281 N278 1.350 . S
C281 C280 1.434 . S
C282 C283 1.369 . S
C282 C284 1.419 . S
C282 H286 0.930 . S
C283 C282 1.369 . S
C283 C292 1.429 . S
C284 C282 1.419 . S
C284 C285 1.363 . S
C284 H287 0.929 . S
C285 C284 1.363 . S
C285 C291 1.428 . S
H286 C282 0.930 . S
H287 C284 0.929 . S
S288 N289 1.605 1_455 S
S288 N290 1.610 . S
N289 S288 1.605 1_655 S
N289 C292 1.358 . S
N290 S288 1.610 . S
N290 C291 1.351 1_455 S
C291 C285 1.428 . S
C291 N290 1.351 1_655 S
C291 C292 1.434 . S
C292 C283 1.429 . S
C292 N289 1.358 . S
C292 C291 1.434 . S
C293 C294 1.369 . S
C293 C295 1.419 . S
C293 H297 0.930 . S
C294 C293 1.369 . S
C294 C303 1.429 . S
C295 C293 1.419 . S
C295 C296 1.363 . S
C295 H298 0.929 . S
C296 C295 1.363 . S
C296 C302 1.428 . S
H297 C293 0.930 . S
H298 C295 0.929 . S
S299 N300 1.613 . S
S299 N301 1.610 . S
N300 S299 1.613 . S
N300 C303 1.350 . S
N301 S299 1.610 . S
N301 C302 1.351 . S
C302 C296 1.428 . S
C302 N301 1.351 . S
C302 C303 1.434 . S
C303 C294 1.429 . S
C303 N300 1.350 . S
C303 C302 1.434 . S
C304 C305 1.369 . S
C304 C306 1.419 . S
C304 H308 0.930 . S
C305 C304 1.369 . S
C305 C314 1.429 1_565 S
C306 C304 1.419 . S
C306 C307 1.363 . S
C306 H309 0.929 . S
C307 C306 1.363 . S
C307 C313 1.426 1_665 S
H308 C304 0.930 . S
H309 C306 0.929 . S
S310 N311 1.613 . S
S310 N312 1.610 . S
N311 S310 1.613 . S
N311 C314 1.350 1_455 S
N312 S310 1.610 . S
N312 C313 1.354 . S
C313 C307 1.426 1_445 S
C313 N312 1.354 . S
C313 C314 1.433 1_455 S
C314 C305 1.429 1_545 S
C314 N311 1.350 1_655 S
C314 C313 1.433 1_655 S
C315 C316 1.369 . S
C315 C317 1.419 . S
C315 H319 0.930 . S
C316 C315 1.369 . S
C316 C325 1.429 . S
C317 C315 1.419 . S
C317 C318 1.363 . S
C317 H320 0.929 . S
C318 C317 1.363 . S
C318 C324 1.428 . S
H319 C315 0.930 . S
H320 C317 0.929 . S
S321 N322 1.613 1_565 S
S321 N323 1.610 1_565 S
N322 S321 1.613 1_545 S
N322 C325 1.350 . S
N323 S321 1.610 1_545 S
N323 C324 1.351 . S
C324 C318 1.428 . S
C324 N323 1.351 . S
C324 C325 1.434 . S
C325 C316 1.429 . S
C325 N322 1.350 . S
C325 C324 1.434 . S
C326 C327 1.369 . S
C326 C328 1.419 . S
C326 H330 0.930 . S
C327 C326 1.369 . S
C327 C336 1.429 . S
C328 C326 1.419 . S
C328 C329 1.363 . S
C328 H331 0.929 . S
C329 C328 1.363 . S
C329 C335 1.428 . S
H330 C326 0.930 . S
H331 C328 0.929 . S
S332 N333 1.613 . S
S332 N334 1.610 . S
N333 S332 1.613 . S
N333 C336 1.350 . S
N334 S332 1.610 . S
N334 C335 1.351 . S
C335 C329 1.428 . S
C335 N334 1.351 . S
C335 C336 1.434 . S
C336 C327 1.429 . S
C336 N333 1.350 . S
C336 C335 1.434 . S
C337 C338 1.369 . S
C337 C339 1.419 . S
C337 H341 0.930 . S
C338 C337 1.369 . S
C338 C347 1.429 . S
C339 C337 1.419 . S
C339 C340 1.363 . S
C339 H342 0.929 . S
C340 C339 1.363 . S
C340 C346 1.428 . S
H341 C337 0.930 . S
H342 C339 0.929 . S
S343 N344 1.613 . S
S343 N345 1.610 . S
N344 S343 1.613 . S
N344 C347 1.350 . S
N345 S343 1.610 . S
N345 C346 1.351 . S
C346 C340 1.428 . S
C346 N345 1.351 . S
C346 C347 1.434 . S
C347 C338 1.429 . S
C347 N344 1.350 . S
C347 C346 1.434 . S
C348 C349 1.369 1_565 S
C348 C350 1.419 . S
C348 H352 0.930 . S
C349 C348 1.369 1_545 S
C349 C358 1.429 . S
C350 C348 1.419 . S
C350 C351 1.363 1_565 S
C350 H353 0.929 . S
C351 C350 1.363 1_545 S
C351 C357 1.428 . S
H352 C348 0.930 . S
H353 C350 0.929 . S
S354 N355 1.613 . S
S354 N356 1.610 . S
N355 S354 1.613 . S
N355 C358 1.350 . S
N356 S354 1.610 . S
N356 C357 1.351 . S
C357 C351 1.428 . S
C357 N356 1.351 . S
C357 C358 1.434 . S
C358 C349 1.429 . S
C358 N355 1.350 . S
C358 C357 1.434 . S
C359 C360 1.369 1_565 S
C359 C361 1.419 . S
C359 H363 0.930 . S
C360 C359 1.369 1_545 S
C360 C369 1.429 . S
C361 C359 1.419 . S
C361 C362 1.363 1_565 S
C361 H364 0.929 . S
C362 C361 1.363 1_545 S
C362 C368 1.428 . S
H363 C359 0.930 . S
H364 C361 0.929 . S
S365 N366 1.613 . S
S365 N367 1.610 . S
N366 S365 1.613 . S
N366 C369 1.350 . S
N367 S365 1.610 . S
N367 C368 1.351 . S
C368 C362 1.428 . S
C368 N367 1.351 . S
C368 C369 1.434 . S
C369 C360 1.429 . S
C369 N366 1.350 . S
C369 C368 1.434 . S
C370 C371 1.369 . S
C370 C372 1.419 . S
C370 H374 0.930 . S
C371 C370 1.369 . S
C371 C380 1.429 . S
C372 C370 1.419 . S
C372 C373 1.363 . S
C372 H375 0.929 . S
C373 C372 1.363 . S
C373 C379 1.428 . S
H374 C370 0.930 . S
H375 C372 0.929 . S
S376 N377 1.613 . S
S376 N378 1.610 . S
N377 S376 1.613 . S
N377 C380 1.350 . S
N378 S376 1.610 . S
N378 C379 1.351 . S
C379 C373 1.428 . S
C379 N378 1.351 . S
C379 C380 1.434 . S
C380 C371 1.429 . S
C380 N377 1.350 . S
C380 C379 1.434 . S
C381 C382 1.369 . S
C381 C383 1.419 . S
C381 H385 0.930 . S
C382 C381 1.369 . S
C382 C391 1.429 . S
C383 C381 1.419 . S
C383 C384 1.363 . S
C383 H386 0.929 . S
C384 C383 1.363 . S
C384 C390 1.428 . S
H385 C381 0.930 . S
H386 C383 0.929 . S
S387 N388 1.613 . S
S387 N389 1.610 . S
N388 S387 1.613 . S
N388 C391 1.350 . S
N389 S387 1.610 . S
N389 C390 1.351 . S
C390 C384 1.428 . S
C390 N389 1.351 . S
C390 C391 1.434 . S
C391 C382 1.429 . S
C391 N388 1.350 . S
C391 C390 1.434 . S
C392 C393 1.369 . S
C392 C394 1.419 . S
C392 H396 0.930 . S
C393 C392 1.369 . S
C393 C402 1.429 1_454 S
C394 C392 1.419 . S
C394 C395 1.363 . S
C394 H397 0.929 . S
C395 C394 1.363 . S
C395 C401 1.428 1_454 S
H396 C392 0.930 . S
H397 C394 0.929 . S
S398 N399 1.613 . S
S398 N400 1.610 . S
N399 S398 1.613 . S
N399 C402 1.350 . S
N400 S398 1.610 . S
N400 C401 1.351 . S
C401 C395 1.428 1_656 S
C401 N400 1.351 . S
C401 C402 1.434 . S
C402 C393 1.429 1_656 S
C402 N399 1.350 . S
C402 C401 1.434 . S
C403 C404 1.369 . S
C403 C405 1.419 . S
C403 H407 0.930 . S
C404 C403 1.369 . S
C404 C413 1.429 . S
C405 C403 1.419 . S
C405 C406 1.363 . S
C405 H408 0.929 . S
C406 C405 1.363 . S
C406 C412 1.428 . S
H407 C403 0.930 . S
H408 C405 0.929 . S
S409 N410 1.613 . S
S409 N411 1.610 . S
N410 S409 1.613 . S
N410 C413 1.350 . S
N411 S409 1.610 . S
N411 C412 1.351 . S
C412 C406 1.428 . S
C412 N411 1.351 . S
C412 C413 1.434 . S
C413 C404 1.429 . S
C413 N410 1.350 . S
C413 C412 1.434 . S
C414 C415 1.369 . S
C414 C416 1.419 . S
C414 H418 0.930 . S
C415 C414 1.369 . S
C415 C424 1.429 . S
C416 C414 1.419 . S
C416 C417 1.363 . S
C416 H419 0.929 . S
C417 C416 1.363 . S
C417 C423 1.428 . S
H418 C414 0.930 . S
H419 C416 0.929 . S
S420 N421 1.613 . S
S420 N422 1.610 . S
N421 S420 1.613 . S
N421 C424 1.350 . S
N422 S420 1.610 . S
N422 C423 1.351 . S
C423 C417 1.428 . S
C423 N422 1.351 . S
C423 C424 1.434 . S
C424 C415 1.429 . S
C424 N421 1.350 . S
C424 C423 1.434 . S
C425 C426 1.369 . S
C425 C427 1.419 . S
C425 H429 0.930 . S
C426 C425 1.369 . S
C426 C435 1.429 . S
C427 C425 1.419 . S
C427 C428 1.363 . S
C427 H430 0.929 . S
C428 C427 1.363 . S
C428 C434 1.428 . S
H429 C425 0.930 . S
H430 C427 0.929 . S
S431 N432 1.613 . S
S431 N433 1.610 . S
N432 S431 1.613 . S
N432 C435 1.350 . S
N433 S431 1.610 . S
N433 C434 1.351 . S
C434 C428 1.428 . S
C434 N433 1.351 . S
C434 C435 1.434 . S
C435 C426 1.429 . S
C435 N432 1.350 . S
C435 C434 1.434 . S
C173 C5 1.615 . S
C175 C91 1.665 . S
C184 C18 1.520 . S
C186 C125 1.471 . S
C197 C137 1.287 . S
C195 C30 1.349 . S
C206 C41 1.334 . S
C208 C171 1.292 1_655 S
C219 C128 1.652 . S
C217 C7 1.687 . S
C230 C108 1.673 . S
C228 C16 1.568 . S
C241 C155 1.398 . S
C239 C29 1.488 . S
C252 C146 1.138 . S
C250 C38 1.093 . S
C261 C8 1.657 . S
C263 C154 1.561 . S
C274 C116 1.612 . S
C272 C27 1.529 . S
C283 C40 1.472 . S
C285 C92 1.367 . S
C294 C19 1.309 . S
C296 C149 1.244 . S
C307 C107 1.573 1_565 S
C305 C51 1.676 . S
C316 C62 1.600 . S
C318 C129 1.615 . S
C327 C74 1.512 . S
C329 C134 1.521 . S
C338 C84 1.376 . S
C340 C167 1.462 . S
C349 C49 1.871 . S
C351 C112 1.820 1_545 S
C362 C104 1.546 . S
C360 C63 1.555 . S
C373 C158 1.441 . S
C371 C71 1.182 . S
C384 C150 1.352 . S
C382 C85 1.350 . S
C393 C52 1.688 . S
C395 C170 1.612 1_554 S
C406 C113 1.766 . S
C404 C73 1.719 . S
C417 C95 1.444 . S
C415 C82 1.138 . S
C426 C60 1.333 . S
C428 C133 1.640 . S
