# Generated by pormake.
# Topology ocu, (6,8)-cn, num edge types: 1
# Building blocks:
#     Node 0, Type 0, BuildingBlock: KUMBOL_clean_sbu_0, # of connection points: 6
#     Node 1, Type 0, BuildingBlock: KUMBOL_clean_sbu_0, # of connection points: 6
#     Node 2, Type 0, BuildingBlock: KUMBOL_clean_sbu_0, # of connection points: 6
#     Node 3, Type 0, BuildingBlock: KUMBOL_clean_sbu_0, # of connection points: 6
#     Node 4, Type 0, BuildingBlock: KUMBOL_clean_sbu_0, # of connection points: 6
#     Node 5, Type 0, BuildingBlock: KUMBOL_clean_sbu_0, # of connection points: 6
#     Node 6, Type 0, BuildingBlock: KUMBOL_clean_sbu_0, # of connection points: 6
#     Node 7, Type 0, BuildingBlock: KUMBOL_clean_sbu_0, # of connection points: 6
#     Node 8, Type 1, BuildingBlock: GIZVER_clean_sbu_0, # of connection points: 8
#     Node 9, Type 1, BuildingBlock: GIZVER_clean_sbu_0, # of connection points: 8
#     Node 10, Type 1, BuildingBlock: GIZVER_clean_sbu_0, # of connection points: 8
#     Node 11, Type 1, BuildingBlock: GIZVER_clean_sbu_0, # of connection points: 8
#     Node 12, Type 1, BuildingBlock: GIZVER_clean_sbu_0, # of connection points: 8
#     Node 13, Type 1, BuildingBlock: GIZVER_clean_sbu_0, # of connection points: 8
#     Edge 14, Type (0, 1), BuildingBlock: TEMPAE_clean_linker_10, # of connection points: 2
#     Edge 15, Type (0, 1), BuildingBlock: TEMPAE_clean_linker_10, # of connection points: 2
#     Edge 16, Type (0, 1), BuildingBlock: TEMPAE_clean_linker_10, # of connection points: 2
#     Edge 17, Type (0, 1), BuildingBlock: TEMPAE_clean_linker_10, # of connection points: 2
#     Edge 18, Type (0, 1), BuildingBlock: TEMPAE_clean_linker_10, # of connection points: 2
#     Edge 19, Type (0, 1), BuildingBlock: TEMPAE_clean_linker_10, # of connection points: 2
#     Edge 20, Type (0, 1), BuildingBlock: TEMPAE_clean_linker_10, # of connection points: 2
#     Edge 21, Type (0, 1), BuildingBlock: TEMPAE_clean_linker_10, # of connection points: 2
#     Edge 22, Type (0, 1), BuildingBlock: TEMPAE_clean_linker_10, # of connection points: 2
#     Edge 23, Type (0, 1), BuildingBlock: TEMPAE_clean_linker_10, # of connection points: 2
#     Edge 24, Type (0, 1), BuildingBlock: TEMPAE_clean_linker_10, # of connection points: 2
#     Edge 25, Type (0, 1), BuildingBlock: TEMPAE_clean_linker_10, # of connection points: 2
#     Edge 26, Type (0, 1), BuildingBlock: TEMPAE_clean_linker_10, # of connection points: 2
#     Edge 27, Type (0, 1), BuildingBlock: TEMPAE_clean_linker_10, # of connection points: 2
#     Edge 28, Type (0, 1), BuildingBlock: TEMPAE_clean_linker_10, # of connection points: 2
#     Edge 29, Type (0, 1), BuildingBlock: TEMPAE_clean_linker_10, # of connection points: 2
#     Edge 30, Type (0, 1), BuildingBlock: TEMPAE_clean_linker_10, # of connection points: 2
#     Edge 31, Type (0, 1), BuildingBlock: TEMPAE_clean_linker_10, # of connection points: 2
#     Edge 32, Type (0, 1), BuildingBlock: TEMPAE_clean_linker_10, # of connection points: 2
#     Edge 33, Type (0, 1), BuildingBlock: TEMPAE_clean_linker_10, # of connection points: 2
#     Edge 34, Type (0, 1), BuildingBlock: TEMPAE_clean_linker_10, # of connection points: 2
#     Edge 35, Type (0, 1), BuildingBlock: TEMPAE_clean_linker_10, # of connection points: 2
#     Edge 36, Type (0, 1), BuildingBlock: TEMPAE_clean_linker_10, # of connection points: 2
#     Edge 37, Type (0, 1), BuildingBlock: TEMPAE_clean_linker_10, # of connection points: 2
#     Edge 38, Type (0, 1), BuildingBlock: TEMPAE_clean_linker_10, # of connection points: 2
#     Edge 39, Type (0, 1), BuildingBlock: TEMPAE_clean_linker_10, # of connection points: 2
#     Edge 40, Type (0, 1), BuildingBlock: TEMPAE_clean_linker_10, # of connection points: 2
#     Edge 41, Type (0, 1), BuildingBlock: TEMPAE_clean_linker_10, # of connection points: 2
#     Edge 42, Type (0, 1), BuildingBlock: TEMPAE_clean_linker_10, # of connection points: 2
#     Edge 43, Type (0, 1), BuildingBlock: TEMPAE_clean_linker_10, # of connection points: 2
#     Edge 44, Type (0, 1), BuildingBlock: TEMPAE_clean_linker_10, # of connection points: 2
#     Edge 45, Type (0, 1), BuildingBlock: TEMPAE_clean_linker_10, # of connection points: 2
#     Edge 46, Type (0, 1), BuildingBlock: TEMPAE_clean_linker_10, # of connection points: 2
#     Edge 47, Type (0, 1), BuildingBlock: TEMPAE_clean_linker_10, # of connection points: 2
#     Edge 48, Type (0, 1), BuildingBlock: TEMPAE_clean_linker_10, # of connection points: 2
#     Edge 49, Type (0, 1), BuildingBlock: TEMPAE_clean_linker_10, # of connection points: 2
#     Edge 50, Type (0, 1), BuildingBlock: TEMPAE_clean_linker_10, # of connection points: 2
#     Edge 51, Type (0, 1), BuildingBlock: TEMPAE_clean_linker_10, # of connection points: 2
#     Edge 52, Type (0, 1), BuildingBlock: TEMPAE_clean_linker_10, # of connection points: 2
#     Edge 53, Type (0, 1), BuildingBlock: TEMPAE_clean_linker_10, # of connection points: 2
#     Edge 54, Type (0, 1), BuildingBlock: TEMPAE_clean_linker_10, # of connection points: 2
#     Edge 55, Type (0, 1), BuildingBlock: TEMPAE_clean_linker_10, # of connection points: 2
#     Edge 56, Type (0, 1), BuildingBlock: TEMPAE_clean_linker_10, # of connection points: 2
#     Edge 57, Type (0, 1), BuildingBlock: TEMPAE_clean_linker_10, # of connection points: 2
#     Edge 58, Type (0, 1), BuildingBlock: TEMPAE_clean_linker_10, # of connection points: 2
#     Edge 59, Type (0, 1), BuildingBlock: TEMPAE_clean_linker_10, # of connection points: 2
#     Edge 60, Type (0, 1), BuildingBlock: TEMPAE_clean_linker_10, # of connection points: 2
#     Edge 61, Type (0, 1), BuildingBlock: TEMPAE_clean_linker_10, # of connection points: 2
# Relax obj value: 0.190
# Max RMSD: 0.299
# Mean RMSD: 0.217
data_MOF--net-ocu--node1-KUMBOL_clean_sbu_0--node2-GIZVER_clean_sbu_0--edge1-TEMPAE_clean_linker_10
_symmetry_space_group_name_H-M    P1
_symmetry_Int_Tables_number       1
_symmetry_cell_setting            triclinic
loop_
_symmetry_equiv_pos_as_xyz
'x, y, z'
_cell_length_a     44.306022
_cell_length_b     44.284824
_cell_length_c     34.775417
_cell_angle_alpha  83.633624
_cell_angle_beta   95.388729
_cell_angle_gamma 112.20681
loop_
_atom_site_label
_atom_site_type_symbol
_atom_site_fract_x
_atom_site_fract_y
_atom_site_fract_z
_atom_type_partial_charge
Gd0 Gd 0.29213 0.31736 0.31902 0.0
Gd1 Gd 0.2616 0.26272 0.24827 0.0
C2 C 0.15656 0.21688 0.19892 0.0
C3 C 0.1388 0.16191 0.23108 0.0
C4 C 0.19339 0.20123 0.24544 0.0
C5 C 0.18716 0.22436 0.2194 0.0
C6 C 0.16893 0.17003 0.25249 0.0
C7 C 0.13265 0.18529 0.2043 0.0
C8 C 0.15072 0.24163 0.1744 0.0
C9 C 0.17503 0.27291 0.17107 0.0
N10 N 0.21042 0.25491 0.2161 0.0
C11 C 0.20497 0.27905 0.19207 0.0
H12 H 0.22436 0.30265 0.1879 0.0
C13 C 0.22774 0.1901 0.29658 0.0
N14 N 0.22223 0.21067 0.26687 0.0
C15 C 0.2043 0.15878 0.30447 0.0
C16 C 0.17492 0.14853 0.28206 0.0
H17 H 0.24988 0.19785 0.31486 0.0
H18 H 0.10904 0.17897 0.18865 0.0
H19 H 0.23579 0.33685 0.3627 0.0
H20 H 0.12754 0.2369 0.15813 0.0
H21 H 0.17092 0.29217 0.15194 0.0
H22 H 0.11977 0.13797 0.23588 0.0
H23 H 0.36254 0.30521 0.33499 0.0
H24 H 0.24017 0.30718 0.48301 0.0
H25 H 0.21572 0.33095 0.42697 0.0
H26 H 0.33098 0.27283 0.49927 0.0
H27 H 0.20882 0.14263 0.32807 0.0
H28 H 0.15668 0.12441 0.28858 0.0
H29 H 0.28282 0.28507 0.50958 0.0
H30 H 0.39388 0.28772 0.38907 0.0
N31 N 0.27112 0.315 0.38035 0.0
C32 C 0.24912 0.30936 0.45449 0.0
C33 C 0.23525 0.32277 0.42293 0.0
C34 C 0.27502 0.29985 0.44909 0.0
C35 C 0.28578 0.30315 0.4113 0.0
C36 C 0.24676 0.32579 0.38608 0.0
N37 N 0.32336 0.3006 0.36914 0.0
C38 C 0.31259 0.29566 0.40546 0.0
C39 C 0.3709 0.28954 0.39406 0.0
C40 C 0.35891 0.2819 0.43102 0.0
C41 C 0.35285 0.29915 0.36337 0.0
C42 C 0.32981 0.28558 0.43731 0.0
H43 H 0.37285 0.27427 0.45471 0.0
O44 O 0.30734 0.36854 0.2961 0.0
O45 O 0.26276 0.31407 0.25916 0.0
O46 O 0.29605 0.31228 0.22618 0.0
O47 O 0.32964 0.31784 0.27962 0.0
O48 O 0.24741 0.33195 0.30137 0.0
O49 O 0.33354 0.35506 0.34553 0.0
O50 O 0.27949 0.23414 0.21624 0.0
O51 O 0.29775 0.2711 0.3019 0.0
O52 O 0.24878 0.27628 0.34355 0.0
O53 O 0.22091 0.25525 0.287 0.0
O54 O 0.29353 0.23286 0.27343 0.0
O55 O 0.26411 0.27125 0.18544 0.0
C56 C 0.24063 0.32617 0.26527 0.0
C57 C 0.3183 0.28093 0.4746 0.0
C58 C 0.29092 0.28798 0.48047 0.0
C59 C 0.33111 0.37885 0.322 0.0
C60 C 0.33499 0.40869 0.33966 0.0
C61 C 0.36075 0.43787 0.32921 0.0
C62 C 0.31393 0.40823 0.36751 0.0
C63 C 0.31827 0.43688 0.38478 0.0
C64 C 0.36535 0.46642 0.34643 0.0
C65 C 0.34421 0.46602 0.37403 0.0
C66 C 0.32547 0.32476 0.24248 0.0
C67 C 0.30892 0.24699 0.30386 0.0
C68 C 0.27284 0.24675 0.18257 0.0
C69 C 0.25491 0.22319 0.15371 0.0
C70 C 0.22607 0.2236 0.13343 0.0
C71 C 0.26733 0.19977 0.14626 0.0
C72 C 0.25127 0.17665 0.11919 0.0
C73 C 0.20985 0.20061 0.1066 0.0
C74 C 0.22236 0.17728 0.09937 0.0
C75 C 0.22206 0.25835 0.32441 0.0
H76 H 0.37734 0.43851 0.30787 0.0
H77 H 0.29386 0.38579 0.37513 0.0
H78 H 0.38527 0.48892 0.33831 0.0
H79 H 0.34809 0.48845 0.38695 0.0
H80 H 0.2161 0.24163 0.13804 0.0
H81 H 0.29011 0.20009 0.16105 0.0
H82 H 0.18762 0.20104 0.09116 0.0
H83 H 0.20952 0.15982 0.0783 0.0
Gd84 Gd 0.7422 0.31761 0.28707 0.0
Gd85 Gd 0.79452 0.27296 0.26899 0.0
C86 C 0.90089 0.30965 0.23877 0.0
C87 C 0.89694 0.32052 0.16888 0.0
C88 C 0.84826 0.30307 0.20581 0.0
C89 C 0.86701 0.30218 0.23991 0.0
C90 C 0.86313 0.31213 0.16991 0.0
C91 C 0.9157 0.31897 0.20317 0.0
C92 C 0.91869 0.30609 0.27323 0.0
C93 C 0.90244 0.29349 0.30729 0.0
N94 N 0.85183 0.29135 0.27372 0.0
C95 C 0.86868 0.28502 0.30664 0.0
H96 H 0.85578 0.27332 0.33242 0.0
C97 C 0.79592 0.29069 0.17396 0.0
N98 N 0.81531 0.29296 0.20736 0.0
C99 C 0.80966 0.29996 0.13787 0.0
C100 C 0.84343 0.31104 0.13584 0.0
H101 H 0.7698 0.28214 0.17468 0.0
H102 H 0.94164 0.32472 0.20179 0.0
H103 H 0.68455 0.323 0.21957 0.0
H104 H 0.94473 0.31177 0.27353 0.0
H105 H 0.91579 0.28945 0.33378 0.0
H106 H 0.9087 0.32749 0.14158 0.0
H107 H 0.75759 0.30733 0.38523 0.0
H108 H 0.59055 0.26649 0.26276 0.0
H109 H 0.62442 0.30079 0.20985 0.0
H110 H 0.61563 0.23771 0.39525 0.0
H111 H 0.79415 0.29853 0.11163 0.0
H112 H 0.85397 0.31795 0.1078 0.0
H113 H 0.58754 0.24273 0.33186 0.0
H114 H 0.72755 0.27983 0.44229 0.0
N115 N 0.68478 0.30041 0.27693 0.0
C116 C 0.61692 0.2761 0.26711 0.0
C117 C 0.63592 0.29549 0.23724 0.0
C118 C 0.63213 0.2704 0.30277 0.0
C119 C 0.66657 0.28336 0.30694 0.0
C120 C 0.66992 0.30805 0.24291 0.0
N121 N 0.71552 0.29459 0.34561 0.0
C122 C 0.6824 0.28054 0.34247 0.0
C123 C 0.71452 0.2797 0.41434 0.0
C124 C 0.68074 0.26367 0.41105 0.0
C125 C 0.73155 0.29544 0.38139 0.0
C126 C 0.66416 0.26443 0.37497 0.0
H127 H 0.66765 0.25147 0.43664 0.0
O128 O 0.76889 0.36385 0.31253 0.0
O129 O 0.78479 0.31846 0.25886 0.0
O130 O 0.82509 0.31224 0.30782 0.0
O131 O 0.7864 0.3292 0.33077 0.0
O132 O 0.75664 0.34014 0.22651 0.0
O133 O 0.72615 0.35845 0.27473 0.0
O134 O 0.79224 0.23353 0.23523 0.0
O135 O 0.75052 0.27107 0.29586 0.0
O136 O 0.71604 0.28476 0.23904 0.0
O137 O 0.74645 0.25231 0.23351 0.0
O138 O 0.78091 0.25203 0.3299 0.0
O139 O 0.79829 0.22871 0.29794 0.0
C140 C 0.78361 0.33523 0.22763 0.0
C141 C 0.62997 0.25025 0.37065 0.0
C142 C 0.61397 0.25313 0.33458 0.0
C143 C 0.7523 0.37889 0.29129 0.0
C144 C 0.77149 0.40835 0.26704 0.0
C145 C 0.79895 0.43283 0.28295 0.0
C146 C 0.76329 0.41149 0.22722 0.0
C147 C 0.78206 0.43839 0.2033 0.0
C148 C 0.8176 0.45998 0.25933 0.0
C149 C 0.80903 0.46298 0.21972 0.0
C150 C 0.81611 0.32812 0.33179 0.0
C151 C 0.75331 0.25592 0.32793 0.0
C152 C 0.80095 0.21783 0.26555 0.0
C153 C 0.83105 0.21122 0.26356 0.0
C154 C 0.84634 0.21597 0.22852 0.0
C155 C 0.84707 0.20438 0.29819 0.0
C156 C 0.87881 0.2046 0.29865 0.0
C157 C 0.87742 0.21473 0.22856 0.0
C158 C 0.89378 0.20938 0.26346 0.0
C159 C 0.7207 0.2606 0.22449 0.0
H160 H 0.80598 0.43093 0.31353 0.0
H161 H 0.74166 0.39327 0.21466 0.0
H162 H 0.83862 0.47886 0.27183 0.0
H163 H 0.82309 0.48456 0.20206 0.0
H164 H 0.83478 0.22159 0.2013 0.0
H165 H 0.83528 0.20015 0.3253 0.0
H166 H 0.88921 0.2188 0.20155 0.0
H167 H 0.91827 0.2096 0.26302 0.0
Gd168 Gd 0.77204 0.76358 0.3283 0.0
Gd169 Gd 0.79743 0.8276 0.2554 0.0
C170 C 0.88789 0.86243 0.18485 0.0
C171 C 0.92196 0.91302 0.21286 0.0
C172 C 0.86833 0.88093 0.23707 0.0
C173 C 0.86397 0.85755 0.21146 0.0
C174 C 0.89737 0.90903 0.23784 0.0
C175 C 0.91714 0.88989 0.18625 0.0
C176 C 0.88121 0.84025 0.15663 0.0
C177 C 0.85116 0.8142 0.1551 0.0
N178 N 0.83548 0.83113 0.21079 0.0
C179 C 0.82846 0.80998 0.18251 0.0
H180 H 0.8053 0.7899 0.18048 0.0
C181 C 0.84652 0.90046 0.28412 0.0
N182 N 0.84378 0.87674 0.26033 0.0
C183 C 0.87499 0.92845 0.28613 0.0
C184 C 0.90062 0.93266 0.26313 0.0
H185 H 0.82761 0.89744 0.30318 0.0
H186 H 0.93592 0.89381 0.16633 0.0
H187 H 0.76029 0.80525 0.39576 0.0
H188 H 0.8988 0.84337 0.13542 0.0
H189 H 0.84553 0.79722 0.13295 0.0
H190 H 0.94446 0.93434 0.21321 0.0
H191 H 0.74649 0.68768 0.29671 0.0
H192 H 0.6601 0.76236 0.42416 0.0
H193 H 0.71546 0.80433 0.43369 0.0
H194 H 0.61843 0.66609 0.35481 0.0
H195 H 0.87725 0.94662 0.30576 0.0
H196 H 0.92263 0.95442 0.26475 0.0
H197 H 0.62372 0.71127 0.39349 0.0
H198 H 0.69596 0.63937 0.29211 0.0
N199 N 0.73025 0.76527 0.36384 0.0
C200 C 0.67962 0.76281 0.40726 0.0
C201 C 0.71085 0.78647 0.41281 0.0
C202 C 0.6744 0.73892 0.38153 0.0
C203 C 0.70075 0.74043 0.36053 0.0
C204 C 0.73608 0.7872 0.39092 0.0
N205 N 0.72493 0.71542 0.32286 0.0
C206 C 0.69799 0.71463 0.33947 0.0
C207 C 0.696 0.66056 0.30492 0.0
C208 C 0.66756 0.66027 0.31942 0.0
C209 C 0.72471 0.68821 0.30746 0.0
C210 C 0.66849 0.68717 0.33782 0.0
H211 H 0.64541 0.63868 0.31764 0.0
O212 O 0.81194 0.75276 0.36015 0.0
O213 O 0.80304 0.77853 0.27447 0.0
O214 O 0.76928 0.77898 0.23056 0.0
O215 O 0.73429 0.75201 0.2784 0.0
O216 O 0.79618 0.73382 0.30011 0.0
O217 O 0.76673 0.74139 0.38725 0.0
O218 O 0.79535 0.85612 0.20092 0.0
O219 O 0.76892 0.81356 0.31051 0.0
O220 O 0.80493 0.81134 0.35187 0.0
O221 O 0.83807 0.83488 0.30144 0.0
O222 O 0.77635 0.85886 0.28595 0.0
O223 O 0.7508 0.82721 0.22999 0.0
C224 C 0.81145 0.75321 0.27159 0.0
C225 C 0.64139 0.68681 0.3561 0.0
C226 C 0.64437 0.71259 0.37805 0.0
C227 C 0.79388 0.73657 0.38863 0.0
C228 C 0.79141 0.70259 0.39756 0.0
C229 C 0.76094 0.67636 0.3969 0.0
C230 C 0.82004 0.69609 0.40342 0.0
C231 C 0.81848 0.66381 0.40709 0.0
C232 C 0.75941 0.64413 0.40077 0.0
C233 C 0.78811 0.63779 0.40551 0.0
C234 C 0.74129 0.75704 0.24183 0.0
C235 C 0.76149 0.83918 0.31438 0.0
C236 C 0.76358 0.84565 0.19935 0.0
C237 C 0.74547 0.83713 0.16196 0.0
C238 C 0.76085 0.83715 0.12853 0.0
C239 C 0.71282 0.83422 0.15897 0.0
C240 C 0.69665 0.83664 0.12264 0.0
C241 C 0.74394 0.8359 0.09239 0.0
C242 C 0.71251 0.83666 0.08922 0.0
C243 C 0.83304 0.83142 0.33859 0.0
H244 H 0.73831 0.68062 0.3927 0.0
H245 H 0.8436 0.71614 0.40402 0.0
H246 H 0.73596 0.62407 0.39985 0.0
H247 H 0.78666 0.61267 0.40859 0.0
H248 H 0.78608 0.83923 0.1301 0.0
H249 H 0.70108 0.83255 0.18543 0.0
H250 H 0.75598 0.83641 0.0665 0.0
H251 H 0.70168 0.83896 0.0604 0.0
Gd252 Gd 0.2473 0.8073 0.268 0.0
Gd253 Gd 0.30103 0.7627 0.30275 0.0
C254 C 0.28843 0.68094 0.39957 0.0
C255 C 0.32958 0.70824 0.44857 0.0
C256 C 0.32214 0.73815 0.38769 0.0
C257 C 0.29671 0.71069 0.37605 0.0
C258 C 0.33929 0.73712 0.42382 0.0
C259 C 0.30433 0.68009 0.43633 0.0
C260 C 0.26561 0.65261 0.38465 0.0
C261 C 0.25187 0.6544 0.34712 0.0
N262 N 0.28171 0.71239 0.34047 0.0
C263 C 0.25984 0.68462 0.32558 0.0
H264 H 0.24893 0.68544 0.29671 0.0
C265 C 0.35939 0.79143 0.37061 0.0
N266 N 0.33155 0.76523 0.36251 0.0
C267 C 0.37698 0.79169 0.4062 0.0
C268 C 0.36657 0.76466 0.43324 0.0
H269 H 0.36771 0.8126 0.3501 0.0
H270 H 0.29793 0.65756 0.45501 0.0
H271 H 0.29776 0.88467 0.27932 0.0
H272 H 0.25935 0.62914 0.40136 0.0
H273 H 0.23561 0.63248 0.33433 0.0
H274 H 0.34227 0.70705 0.47656 0.0
H275 H 0.18151 0.76308 0.21613 0.0
H276 H 0.30366 0.94111 0.17085 0.0
H277 H 0.32038 0.93708 0.24043 0.0
H278 H 0.2256 0.86638 0.08821 0.0
H279 H 0.3986 0.81271 0.41269 0.0
H280 H 0.38039 0.76488 0.4607 0.0
H281 H 0.27044 0.91387 0.11328 0.0
H282 H 0.15535 0.76562 0.15013 0.0
N283 N 0.27118 0.85808 0.23196 0.0
C284 C 0.29492 0.91764 0.18749 0.0
C285 C 0.30406 0.91552 0.22684 0.0
C286 C 0.27291 0.88988 0.17066 0.0
C287 C 0.26092 0.86018 0.19412 0.0
C288 C 0.29145 0.88555 0.24882 0.0
N289 N 0.22225 0.80704 0.20511 0.0
C290 C 0.23575 0.83364 0.18008 0.0
C291 C 0.1783 0.7845 0.15807 0.0
C292 C 0.19325 0.81045 0.13105 0.0
C293 C 0.19309 0.78321 0.19527 0.0
C294 C 0.22189 0.83589 0.14217 0.0
H295 H 0.18163 0.81137 0.10233 0.0
O296 O 0.19888 0.80621 0.27592 0.0
O297 O 0.25299 0.76681 0.3093 0.0
O298 O 0.26187 0.73728 0.25756 0.0
O299 O 0.25303 0.78006 0.22003 0.0
O300 O 0.20677 0.75896 0.28538 0.0
O301 O 0.2415 0.8424 0.30266 0.0
O302 O 0.34841 0.76601 0.28718 0.0
O303 O 0.29471 0.80282 0.26188 0.0
O304 O 0.28516 0.83145 0.31527 0.0
O305 O 0.29611 0.78918 0.35187 0.0
O306 O 0.34101 0.81161 0.2856 0.0
O307 O 0.30471 0.72558 0.26967 0.0
C308 C 0.2237 0.74636 0.3092 0.0
C309 C 0.23562 0.86439 0.11761 0.0
C310 C 0.26109 0.89143 0.13189 0.0
C311 C 0.21037 0.8334 0.29307 0.0
C312 C 0.19962 0.85994 0.27623 0.0
C313 C 0.19219 0.86372 0.23626 0.0
C314 C 0.19862 0.88294 0.30012 0.0
C315 C 0.1908 0.90995 0.28433 0.0
C316 C 0.18539 0.89088 0.22021 0.0
C317 C 0.18489 0.91403 0.24399 0.0
C318 C 0.25169 0.74959 0.22478 0.0
C319 C 0.32357 0.82378 0.26219 0.0
C320 C 0.33606 0.7406 0.26689 0.0
C321 C 0.34822 0.7438 0.22826 0.0
C322 C 0.36153 0.77433 0.20731 0.0
C323 C 0.34771 0.71561 0.21304 0.0
C324 C 0.36252 0.71766 0.17824 0.0
C325 C 0.37535 0.7767 0.17221 0.0
C326 C 0.37646 0.74883 0.15809 0.0
C327 C 0.2972 0.81958 0.34717 0.0
H328 H 0.19163 0.84583 0.21735 0.0
H329 H 0.20323 0.87925 0.33111 0.0
H330 H 0.18024 0.89385 0.18928 0.0
H331 H 0.17941 0.93485 0.23086 0.0
H332 H 0.3618 0.79636 0.21832 0.0
H333 H 0.33614 0.69222 0.22909 0.0
H334 H 0.38611 0.80037 0.1564 0.0
H335 H 0.38918 0.75219 0.13195 0.0
Gd336 Gd 0.25788 0.79576 0.77482 0.0
Gd337 Gd 0.31089 0.75182 0.79891 0.0
C338 C 0.38863 0.75939 0.71677 0.0
C339 C 0.3671 0.7058 0.69156 0.0
C340 C 0.33842 0.71832 0.74015 0.0
C341 C 0.36164 0.74972 0.74013 0.0
C342 C 0.34112 0.69583 0.71622 0.0
C343 C 0.39085 0.7375 0.69188 0.0
C344 C 0.41303 0.79043 0.71993 0.0
C345 C 0.41072 0.81043 0.74692 0.0
N346 N 0.35872 0.77028 0.76442 0.0
C347 C 0.38343 0.79975 0.76935 0.0
H348 H 0.38188 0.81544 0.79007 0.0
C349 C 0.29198 0.67776 0.768 0.0
N350 N 0.31342 0.70962 0.76416 0.0
C351 C 0.29356 0.6547 0.74464 0.0
C352 C 0.31793 0.66387 0.71824 0.0
H353 H 0.27295 0.66998 0.78814 0.0
H354 H 0.4112 0.74461 0.6734 0.0
H355 H 0.20101 0.7667 0.83902 0.0
H356 H 0.43413 0.79879 0.70249 0.0
H357 H 0.42982 0.83417 0.75028 0.0
H358 H 0.36942 0.68896 0.67273 0.0
H359 H 0.30464 0.86585 0.72005 0.0
H360 H 0.20108 0.84524 0.90027 0.0
H361 H 0.17985 0.7861 0.89049 0.0
H362 H 0.27795 0.93981 0.83433 0.0
H363 H 0.27592 0.62983 0.747 0.0
H364 H 0.31905 0.64593 0.70019 0.0
H365 H 0.23794 0.90248 0.87923 0.0
H366 H 0.32643 0.92443 0.72452 0.0
N367 N 0.23508 0.81355 0.82172 0.0
C368 C 0.21054 0.83666 0.87787 0.0
C369 C 0.19863 0.80329 0.8726 0.0
C370 C 0.23395 0.85865 0.85351 0.0
C371 C 0.24539 0.84621 0.82472 0.0
C372 C 0.211 0.79222 0.84388 0.0
N373 N 0.27721 0.85411 0.77089 0.0
C374 C 0.26757 0.86709 0.79904 0.0
C375 C 0.31002 0.90857 0.74586 0.0
C376 C 0.30117 0.92191 0.77531 0.0
C377 C 0.29758 0.87467 0.74381 0.0
C378 C 0.27937 0.90122 0.80206 0.0
H379 H 0.31086 0.94821 0.77675 0.0
O380 O 0.22287 0.8077 0.73488 0.0
O381 O 0.30858 0.79782 0.76666 0.0
O382 O 0.32946 0.80274 0.81938 0.0
O383 O 0.28194 0.80666 0.83441 0.0
O384 O 0.28459 0.81016 0.71849 0.0
O385 O 0.20859 0.76032 0.76914 0.0
O386 O 0.30862 0.72656 0.85655 0.0
O387 O 0.26593 0.75783 0.81713 0.0
O388 O 0.23971 0.74774 0.74722 0.0
O389 O 0.2855 0.73603 0.74153 0.0
O390 O 0.2633 0.71072 0.81707 0.0
O391 O 0.35524 0.75326 0.83274 0.0
C392 C 0.31177 0.80714 0.73075 0.0
C393 C 0.2689 0.91371 0.83145 0.0
C394 C 0.24613 0.89248 0.85702 0.0
C395 C 0.1994 0.77959 0.74371 0.0
C396 C 0.1662 0.77915 0.74467 0.0
C397 C 0.14403 0.75909 0.77186 0.0
C398 C 0.15551 0.79667 0.71435 0.0
C399 C 0.12299 0.79432 0.71017 0.0
C400 C 0.11165 0.7572 0.76854 0.0
C401 C 0.10106 0.77471 0.7378 0.0
C402 C 0.31377 0.81491 0.83991 0.0
C403 C 0.24718 0.72808 0.82441 0.0
C404 C 0.33999 0.73749 0.86313 0.0
C405 C 0.35299 0.75175 0.90016 0.0
C406 C 0.33977 0.7711 0.91692 0.0
C407 C 0.37924 0.74529 0.91927 0.0
C408 C 0.3923 0.7575 0.95524 0.0
C409 C 0.35372 0.78477 0.95183 0.0
C410 C 0.37998 0.77804 0.97104 0.0
C411 C 0.25512 0.73239 0.73145 0.0
H412 H 0.15146 0.74457 0.79516 0.0
H413 H 0.17281 0.81226 0.69363 0.0
H414 H 0.09462 0.74181 0.78955 0.0
H415 H 0.07584 0.77271 0.73545 0.0
H416 H 0.31865 0.77539 0.90333 0.0
H417 H 0.38919 0.73007 0.90639 0.0
H418 H 0.34372 0.80002 0.96439 0.0
H419 H 0.38983 0.78784 0.99868 0.0
Gd420 Gd 0.31487 0.29276 0.74592 0.0
Gd421 Gd 0.27107 0.28305 0.83622 0.0
C422 C 0.30205 0.234 0.94802 0.0
C423 C 0.25229 0.1873 0.96161 0.0
C424 C 0.25401 0.2251 0.90477 0.0
C425 C 0.28628 0.24318 0.91417 0.0
C426 C 0.23635 0.19738 0.92888 0.0
C427 C 0.28509 0.20566 0.97123 0.0
C428 C 0.33399 0.2542 0.95838 0.0
C429 C 0.34898 0.28335 0.93601 0.0
N430 N 0.30158 0.27093 0.8916 0.0
C431 C 0.3322 0.29167 0.90306 0.0
H432 H 0.34466 0.31439 0.88666 0.0
C433 C 0.206 0.22252 0.86738 0.0
N434 N 0.23913 0.23621 0.87381 0.0
C435 C 0.18749 0.19458 0.88986 0.0
C436 C 0.20284 0.18161 0.92044 0.0
H437 H 0.19396 0.23307 0.84437 0.0
H438 H 0.29686 0.19846 0.99735 0.0
H439 H 0.24521 0.26336 0.68884 0.0
H440 H 0.34693 0.24799 0.98412 0.0
H441 H 0.37348 0.29953 0.94416 0.0
H442 H 0.23909 0.16604 0.98035 0.0
H443 H 0.39321 0.34159 0.742 0.0
H444 H 0.24659 0.33515 0.59609 0.0
H445 H 0.21899 0.28102 0.63056 0.0
H446 H 0.35262 0.41834 0.61206 0.0
H447 H 0.16139 0.18333 0.88387 0.0
H448 H 0.18843 0.16024 0.93824 0.0
H449 H 0.29569 0.38724 0.59073 0.0
H450 H 0.42744 0.39323 0.70692 0.0
N451 N 0.28711 0.30789 0.68996 0.0
C452 C 0.25803 0.32789 0.62246 0.0
C453 C 0.24255 0.29721 0.64162 0.0
C454 C 0.28888 0.3481 0.6364 0.0
C455 C 0.30315 0.33707 0.67031 0.0
C456 C 0.25771 0.28732 0.67503 0.0
N457 N 0.34894 0.34095 0.71196 0.0
C458 C 0.33511 0.35433 0.68195 0.0
C459 C 0.40144 0.38274 0.69978 0.0
C460 C 0.3871 0.39808 0.67057 0.0
C461 C 0.38203 0.35358 0.71957 0.0
C462 C 0.35372 0.38339 0.66052 0.0
H463 H 0.40223 0.42043 0.65489 0.0
O464 O 0.35417 0.27996 0.72744 0.0
O465 O 0.3071 0.2699 0.80708 0.0
O466 O 0.31616 0.32853 0.83339 0.0
O467 O 0.33789 0.34142 0.77232 0.0
O468 O 0.35448 0.28925 0.78969 0.0
O469 O 0.30434 0.2518 0.71094 0.0
O470 O 0.23084 0.29517 0.85299 0.0
O471 O 0.27799 0.30492 0.7747 0.0
O472 O 0.26805 0.24868 0.74756 0.0
O473 O 0.24716 0.23477 0.80923 0.0
O474 O 0.23063 0.28438 0.79286 0.0
O475 O 0.28031 0.32489 0.86917 0.0
C476 C 0.33636 0.2735 0.81782 0.0
C477 C 0.33886 0.39584 0.62858 0.0
C478 C 0.30648 0.37813 0.61642 0.0
C479 C 0.33475 0.25659 0.707 0.0
C480 C 0.34374 0.25633 0.66693 0.0
C481 C 0.33711 0.27745 0.63723 0.0
C482 C 0.35788 0.23434 0.65771 0.0
C483 C 0.36529 0.23362 0.619 0.0
C484 C 0.34393 0.27666 0.59914 0.0
C485 C 0.35772 0.25496 0.59003 0.0
C486 C 0.33655 0.34827 0.80805 0.0
C487 C 0.24832 0.29996 0.76433 0.0
C488 C 0.24966 0.31969 0.87216 0.0
C489 C 0.24002 0.32159 0.91125 0.0
C490 C 0.24716 0.30239 0.94287 0.0
C491 C 0.22447 0.3432 0.91747 0.0
C492 C 0.21612 0.34551 0.95518 0.0
C493 C 0.23933 0.3047 0.98004 0.0
C494 C 0.22416 0.32607 0.98623 0.0
C495 C 0.24748 0.22877 0.77279 0.0
H496 H 0.32625 0.29433 0.64336 0.0
H497 H 0.36329 0.21814 0.68061 0.0
H498 H 0.33829 0.29285 0.57645 0.0
H499 H 0.36207 0.25467 0.55998 0.0
H500 H 0.25914 0.28585 0.93891 0.0
H501 H 0.21867 0.35785 0.89299 0.0
H502 H 0.24527 0.28997 0.00429 0.0
H503 H 0.21908 0.32761 0.01566 0.0
Gd504 Gd 0.77701 0.29959 0.76935 0.0
Gd505 Gd 0.81131 0.24147 0.81504 0.0
C506 C 0.75488 0.13391 0.85081 0.0
C507 C 0.73805 0.13657 0.91445 0.0
C508 C 0.76888 0.18658 0.87648 0.0
C509 C 0.7695 0.16838 0.84677 0.0
C510 C 0.75345 0.17079 0.91083 0.0
C511 C 0.73856 0.11818 0.88442 0.0
C512 C 0.75823 0.11618 0.82167 0.0
C513 C 0.77725 0.13271 0.79054 0.0
N514 N 0.78605 0.18419 0.81497 0.0
C515 C 0.79201 0.16684 0.78833 0.0
H516 H 0.80731 0.17962 0.76463 0.0
C517 C 0.78609 0.23826 0.90189 0.0
N518 N 0.78425 0.21962 0.87235 0.0
C519 C 0.77122 0.22367 0.93652 0.0
C520 C 0.75465 0.18982 0.94092 0.0
H521 H 0.79872 0.26444 0.89876 0.0
H522 H 0.7271 0.09175 0.88798 0.0
H523 H 0.84633 0.36461 0.77066 0.0
H524 H 0.74722 0.0897 0.82362 0.0
H525 H 0.78076 0.11915 0.76843 0.0
H526 H 0.7263 0.12401 0.94073 0.0
H527 H 0.70572 0.26354 0.71972 0.0
H528 H 0.85904 0.41468 0.65753 0.0
H529 H 0.87565 0.41241 0.72717 0.0
H530 H 0.76606 0.34842 0.5827 0.0
H531 H 0.77244 0.23857 0.95971 0.0
H532 H 0.7432 0.1786 0.96781 0.0
H533 H 0.8188 0.38966 0.60326 0.0
H534 H 0.68186 0.26403 0.65282 0.0
N535 N 0.81109 0.34091 0.72688 0.0
C536 C 0.84551 0.3938 0.6766 0.0
C537 C 0.85536 0.39233 0.71579 0.0
C538 C 0.81754 0.36891 0.66284 0.0
C539 C 0.8002 0.34289 0.68926 0.0
C540 C 0.83825 0.36531 0.74048 0.0
N541 N 0.75254 0.29866 0.70567 0.0
C542 C 0.77025 0.32044 0.67804 0.0
C543 C 0.70683 0.27993 0.65943 0.0
C544 C 0.72544 0.30105 0.63028 0.0
C545 C 0.72048 0.27973 0.69732 0.0
C546 C 0.7572 0.32239 0.63963 0.0
H547 H 0.71462 0.30162 0.60107 0.0
O548 O 0.73426 0.31101 0.77642 0.0
O549 O 0.77272 0.26123 0.81837 0.0
O550 O 0.77073 0.21475 0.77066 0.0
O551 O 0.76589 0.25763 0.72865 0.0
O552 O 0.73001 0.25996 0.78693 0.0
O553 O 0.78225 0.34478 0.79283 0.0
O554 O 0.84476 0.23831 0.86388 0.0
O555 O 0.8216 0.28782 0.77715 0.0
O556 O 0.81364 0.32474 0.81899 0.0
O557 O 0.83745 0.28814 0.84666 0.0
O558 O 0.83473 0.25275 0.75742 0.0
O559 O 0.85383 0.2307 0.80641 0.0
C560 C 0.74204 0.2457 0.81473 0.0
C561 C 0.77554 0.34668 0.61239 0.0
C562 C 0.80554 0.37014 0.62409 0.0
C563 C 0.75136 0.33961 0.78854 0.0
C564 C 0.74318 0.36744 0.77106 0.0
C565 C 0.74146 0.37456 0.73082 0.0
C566 C 0.73776 0.38769 0.79553 0.0
C567 C 0.72963 0.41459 0.78022 0.0
C568 C 0.73418 0.40165 0.7153 0.0
C569 C 0.72814 0.42152 0.73975 0.0
C570 C 0.7598 0.2257 0.73719 0.0
C571 C 0.83534 0.28218 0.74996 0.0
C572 C 0.8607 0.22695 0.84348 0.0
C573 C 0.86282 0.19506 0.85796 0.0
C574 C 0.85611 0.18187 0.89632 0.0
C575 C 0.86933 0.17637 0.83219 0.0
C576 C 0.86799 0.14452 0.84364 0.0
C577 C 0.85563 0.15046 0.90823 0.0
C578 C 0.86148 0.13176 0.88204 0.0
C579 C 0.83448 0.31705 0.84464 0.0
H580 H 0.74564 0.35927 0.71148 0.0
H581 H 0.7398 0.38232 0.82664 0.0
H582 H 0.73276 0.40701 0.68419 0.0
H583 H 0.72148 0.44172 0.72693 0.0
H584 H 0.85081 0.19557 0.91693 0.0
H585 H 0.8751 0.18649 0.80274 0.0
H586 H 0.85032 0.14043 0.93775 0.0
H587 H 0.86053 0.1073 0.89157 0.0
Gd588 Gd 0.79188 0.80832 0.81847 0.0
Gd589 Gd 0.80189 0.7662 0.74222 0.0
C590 C 0.81073 0.8185 0.62054 0.0
C591 C 0.75429 0.81065 0.60125 0.0
C592 C 0.76799 0.78722 0.66399 0.0
C593 C 0.80081 0.801 0.65655 0.0
C594 C 0.74432 0.7914 0.63604 0.0
C595 C 0.78743 0.82413 0.59349 0.0
C596 C 0.84352 0.82849 0.61206 0.0
C597 C 0.86503 0.81921 0.63812 0.0
N598 N 0.8227 0.79489 0.68311 0.0
C599 C 0.85387 0.80139 0.67312 0.0
H600 H 0.87039 0.79373 0.69295 0.0
C601 C 0.72683 0.75218 0.70464 0.0
N602 N 0.75908 0.76867 0.69788 0.0
C603 C 0.70253 0.75581 0.67795 0.0
C604 C 0.7113 0.77584 0.64372 0.0
H605 H 0.71964 0.7364 0.73068 0.0
H606 H 0.79468 0.83799 0.56597 0.0
H607 H 0.76465 0.73929 0.87721 0.0
H608 H 0.85212 0.84203 0.58477 0.0
H609 H 0.89011 0.82556 0.63116 0.0
H610 H 0.7365 0.81458 0.57976 0.0
H611 H 0.83296 0.88918 0.82198 0.0
H612 H 0.83571 0.74482 0.97096 0.0
H613 H 0.78295 0.71434 0.93713 0.0
H614 H 0.91186 0.85525 0.95388 0.0
H615 H 0.67704 0.74317 0.68385 0.0
H616 H 0.69242 0.77865 0.62314 0.0
H617 H 0.88468 0.79711 0.97593 0.0
H618 H 0.88114 0.92659 0.85779 0.0
N619 N 0.80685 0.78304 0.87628 0.0
C620 C 0.82781 0.75583 0.94455 0.0
C621 C 0.79795 0.73861 0.92564 0.0
C622 C 0.8464 0.78763 0.93008 0.0
C623 C 0.83487 0.8009 0.89571 0.0
C624 C 0.78776 0.75271 0.8914 0.0
N625 N 0.83633 0.84606 0.8524 0.0
C626 C 0.85026 0.83349 0.88321 0.0
C627 C 0.87294 0.90043 0.86497 0.0
C628 C 0.88936 0.88758 0.89453 0.0
C629 C 0.8457 0.87927 0.84485 0.0
C630 C 0.87746 0.85384 0.90482 0.0
H631 H 0.91021 0.90405 0.9104 0.0
O632 O 0.77024 0.84432 0.82422 0.0
O633 O 0.77335 0.79688 0.7565 0.0
O634 O 0.84012 0.81672 0.73806 0.0
O635 O 0.84291 0.83545 0.79857 0.0
O636 O 0.79053 0.84533 0.76847 0.0
O637 O 0.75585 0.7998 0.86118 0.0
O638 O 0.7791 0.71915 0.71703 0.0
O639 O 0.80842 0.76715 0.80782 0.0
O640 O 0.74683 0.76269 0.81138 0.0
O641 O 0.76477 0.72939 0.7804 0.0
O642 O 0.84788 0.76891 0.7793 0.0
O643 O 0.8309 0.73854 0.72971 0.0
C644 C 0.77618 0.82594 0.74165 0.0
C645 C 0.89063 0.84014 0.93728 0.0
C646 C 0.87512 0.80705 0.94988 0.0
C647 C 0.75354 0.8283 0.85364 0.0
C648 C 0.75634 0.84737 0.88711 0.0
C649 C 0.78211 0.85131 0.91515 0.0
C650 C 0.73374 0.86231 0.89091 0.0
C651 C 0.73722 0.88131 0.92247 0.0
C652 C 0.78628 0.8707 0.94557 0.0
C653 C 0.76433 0.88581 0.94906 0.0
C654 C 0.85471 0.83712 0.76475 0.0
C655 C 0.83747 0.76664 0.81339 0.0
C656 C 0.80666 0.71571 0.71362 0.0
C657 C 0.81262 0.70731 0.67554 0.0
C658 C 0.80169 0.72071 0.6412 0.0
C659 C 0.83054 0.68701 0.67324 0.0
C660 C 0.83774 0.68046 0.63678 0.0
C661 C 0.80908 0.71492 0.60534 0.0
C662 C 0.82709 0.69532 0.60307 0.0
C663 C 0.7438 0.73376 0.80142 0.0
H664 H 0.79912 0.83944 0.91357 0.0
H665 H 0.71334 0.85863 0.8698 0.0
H666 H 0.80665 0.874 0.96663 0.0
H667 H 0.76872 0.90109 0.97281 0.0
H668 H 0.78766 0.73595 0.64201 0.0
H669 H 0.83856 0.67628 0.69978 0.0
H670 H 0.801 0.72591 0.57907 0.0
H671 H 0.83298 0.69225 0.57462 0.0
Co672 Co 0.06879 1.00724 0.505 0.0
Co673 Co 0.08787 0.02311 0.57647 0.0
Co674 Co 0.03402 0.05044 0.54523 0.0
O675 O 0.07292 0.04302 0.53233 0.0
H676 H 0.09022 0.06299 0.52359 0.0
O677 O 0.99559 0.05809 0.55926 0.0
Co678 Co 0.99873 0.09078 0.59213 0.0
Co679 Co 0.98244 0.0826 0.52149 0.0
H680 H 0.97757 0.03778 0.56504 0.0
O681 O 0.12692 0.01429 0.58174 0.0
O682 O 0.0791 0.985 0.55306 0.0
O683 O 0.06009 0.01052 0.6203 0.0
O684 O 1.01747 1.00938 0.58068 0.0
O685 O 0.06058 0.07385 0.58925 0.0
O686 O 0.99747 0.1179 0.62505 0.0
O687 O 0.95788 0.07104 0.60742 0.0
O688 O 0.04339 0.11489 0.5821 0.0
O689 O 0.05125 0.09152 0.50987 0.0
O690 O 1.00926 0.10059 0.47766 0.0
O691 O 0.98428 0.11658 0.54824 0.0
O692 O 0.94047 0.07971 0.51752 0.0
C693 C 0.09962 0.99648 0.47446 0.0
C694 C 1.00295 0.99632 0.49902 0.0
C695 C 1.02945 1.00144 0.61324 0.0
C696 C 0.10802 0.98764 0.56655 0.0
C697 C 0.96849 0.09548 0.62924 0.0
C698 C 0.0637 0.10225 0.59689 0.0
C699 C 0.03934 0.10509 0.48146 0.0
C700 C 0.95546 0.10863 0.53 0.0
O701 O 0.06967 0.97605 0.47811 0.0
O702 O 0.11038 0.02361 0.49159 0.0
O703 O 1.00665 0.02602 0.50117 0.0
O704 O 1.02442 0.98576 0.5147 0.0
Co705 Co 0.54191 0.99596 0.0054 0.0
Co706 Co 0.54584 0.01271 0.07586 0.0
Co707 Co 0.50769 0.05177 0.01933 0.0
O708 O 0.5438 0.03455 0.02794 0.0
H709 H 0.5648 0.05199 0.02448 0.0
O710 O 0.47174 0.06899 0.0085 0.0
Co711 Co 0.46318 0.09831 0.03812 0.0
Co712 Co 0.47727 0.10204 0.97014 0.0
H713 H 0.45154 0.05117 0.00255 0.0
O714 O 0.58333 1.00509 0.09667 0.0
O715 O 0.54318 0.97418 0.05728 0.0
O716 O 0.50809 1.0004 0.10438 0.0
O717 O 0.47756 0.01828 0.05964 0.0
O718 O 0.53063 0.08325 0.05966 0.0
O719 O 0.45083 0.1223 0.06597 0.0
O720 O 0.41949 0.07888 0.03332 0.0
O721 O 0.50882 0.12182 0.04857 0.0
O722 O 0.53799 0.08387 0.97988 0.0
O723 O 0.51991 0.12162 0.95018 0.0
O724 O 0.46219 0.12999 0.99075 0.0
O725 O 0.44241 0.10167 0.93759 0.0
C726 C 0.57604 0.97966 0.98684 0.0
C727 C 0.47673 0.99008 0.98624 0.0
C728 C 0.48063 1.00101 0.09122 0.0
C729 C 0.56935 0.97836 0.07932 0.0
C730 C 0.42208 0.10183 0.0553 0.0
C731 C 0.53184 0.11231 0.06221 0.0
C732 C 0.54191 0.10959 0.95674 0.0
C733 C 0.44299 0.12424 0.95895 0.0
O734 O 0.5449 0.96205 0.98435 0.0
O735 O 0.58576 1.00786 1.00178 0.0
O736 O 0.48508 0.02084 0.97881 0.0
O737 O 0.49594 0.97818 0.00562 0.0
Co738 Co 0.05754 0.49317 0.05158 0.0
Co739 Co 0.06084 0.50313 0.12029 0.0
Co740 Co 1.01852 0.55279 0.06558 0.0
O741 O 0.05728 0.53293 0.07541 0.0
H742 H 0.07821 0.5506 0.07262 0.0
O743 O 0.97969 0.57402 0.0603 0.0
Co744 Co 0.9763 0.61576 0.08754 0.0
Co745 Co 0.98568 0.60818 0.01945 0.0
H746 H 0.95836 0.55702 0.05708 0.0
O747 O 0.10043 0.49721 0.14746 0.0
O748 O 0.06839 0.46513 0.10389 0.0
O749 O 1.01909 0.49077 0.14363 0.0
O750 O 0.99365 0.52244 0.10977 0.0
O751 O 0.04162 0.58802 0.10076 0.0
O752 O 0.9729 0.65144 0.11507 0.0
O753 O 0.92954 0.61065 0.09839 0.0
O754 O 1.02409 0.63066 0.0871 0.0
O755 O 0.04639 0.58341 0.02046 0.0
O756 O 1.02819 0.62291 0.996 0.0
O757 O 0.97147 0.64155 0.03366 0.0
O758 O 0.95072 0.60817 0.98525 0.0
C759 C 0.09092 0.47945 0.02715 0.0
C760 C 0.99059 0.48548 0.03054 0.0
C761 C 0.99481 0.50006 0.13645 0.0
C762 C 0.09374 0.47055 0.13043 0.0
C763 C 0.94131 0.6382 0.11588 0.0
C764 C 0.04678 0.61868 0.09402 0.0
C765 C 0.04956 0.60983 0.9979 0.0
C766 C 0.95247 0.63401 1.00125 0.0
O767 O 0.05992 0.46162 0.02589 0.0
O768 O 0.10124 0.50705 0.04369 0.0
O769 O 0.99365 0.51609 0.0288 0.0
O770 O 1.00971 0.47448 0.0531 0.0
Co771 Co 0.58335 0.48996 0.98895 0.0
Co772 Co 0.56924 0.46836 0.05131 0.0
Co773 Co 0.55089 0.53123 0.03715 0.0
O774 O 0.58217 0.50973 0.03395 0.0
H775 H 0.60383 0.52212 0.04435 0.0
O776 O 0.52105 0.55494 0.03988 0.0
Co777 Co 0.51363 0.57281 0.08492 0.0
Co778 Co 0.54546 0.59776 0.02875 0.0
H779 H 0.50208 0.54779 0.02211 0.0
O780 O 0.5982 0.46013 0.08453 0.0
O781 O 0.58889 0.45082 0.02023 0.0
O782 O 0.52572 0.4503 0.06758 0.0
O783 O 0.52576 0.49886 0.08012 0.0
O784 O 0.58368 0.55802 0.07561 0.0
O785 O 0.50274 0.58779 0.1242 0.0
O786 O 0.47277 0.5707 0.06922 0.0
O787 O 0.55512 0.57821 0.10714 0.0
O788 O 0.57474 0.56186 0.99366 0.0
O789 O 0.5908 0.60985 0.01783 0.0
O790 O 0.53342 0.61959 0.06154 0.0
O791 O 0.52571 0.61942 0.99583 0.0
C792 C 0.6182 0.49403 0.95257 0.0
C793 C 0.51531 0.47872 0.98369 0.0
C794 C 0.51373 0.46733 0.08373 0.0
C795 C 0.60416 0.44892 0.0542 0.0
C796 C 0.47606 0.58302 0.10249 0.0
C797 C 0.58116 0.57391 0.10257 0.0
C798 C 0.59492 0.59122 0.99538 0.0
C799 C 0.52648 0.63252 0.02778 0.0
O800 O 0.58794 0.47499 0.94625 0.0
O801 O 0.62701 0.50959 0.98402 0.0
O802 O 0.51872 0.50525 0.99764 0.0
O803 O 0.53775 0.46723 0.98708 0.0
Co804 Co 0.11714 0.47055 0.58149 0.0
Co805 Co 0.10175 0.47398 0.50875 0.0
Co806 Co 0.05722 0.50311 0.5501 0.0
O807 O 0.07773 0.46947 0.55068 0.0
H808 H 0.0612 0.44766 0.55252 0.0
O809 O 0.03727 0.53643 0.55035 0.0
Co810 Co 0.99514 0.52935 0.52724 0.0
Co811 Co 1.02037 0.53661 0.59663 0.0
H812 H 0.05261 0.55821 0.54339 0.0
O813 O 0.10689 0.43853 0.49154 0.0
O814 O 0.13997 0.4734 0.53401 0.0
O815 O 0.11141 0.51355 0.47587 0.0
O816 O 0.08576 0.53626 0.50851 0.0
O817 O 1.02357 0.47951 0.50925 0.0
O818 O 0.95744 0.52661 0.50398 0.0
O819 O 1.00281 0.57154 0.51321 0.0
O820 O 0.98267 0.48344 0.53734 0.0
O821 O 1.02844 0.47099 0.59145 0.0
O822 O 1.01525 0.49907 0.63218 0.0
O823 O 0.97862 0.53343 0.57781 0.0
O824 O 1.01576 0.57407 0.61026 0.0
C825 C 0.13545 0.43635 0.60832 0.0
C826 C 0.12026 0.53513 0.59084 0.0
C827 C 0.10445 0.53791 0.48145 0.0
C828 C 0.1345 0.44989 0.51164 0.0
C829 C 0.97275 0.55815 0.49958 0.0
C830 C 0.99288 0.46989 0.51374 0.0
C831 C 1.01558 0.47234 0.6226 0.0
C832 C 0.98645 0.56048 0.59486 0.0
O833 O 0.15138 0.46749 0.61083 0.0
O834 O 0.10747 0.42636 0.58819 0.0
O835 O 0.08948 0.52694 0.59069 0.0
O836 O 0.13319 0.51673 0.57955 0.0
Co837 Co 0.61393 0.9788 0.54152 0.0
Co838 Co 0.59696 0.98199 0.47042 0.0
Co839 Co 0.54767 0.01762 0.51066 0.0
O840 O 0.56948 0.97969 0.51274 0.0
H841 H 0.55256 0.95814 0.51537 0.0
O842 O 0.52824 0.05786 0.50394 0.0
Co843 Co 0.48652 0.06798 0.4707 0.0
Co844 Co 0.49924 0.05167 0.54234 0.0
H845 H 0.54623 0.07848 0.50677 0.0
O846 O 0.59952 0.94667 0.44467 0.0
O847 O 0.63632 0.97383 0.48976 0.0
O848 O 0.60706 0.02401 0.44129 0.0
O849 O 0.57561 0.04525 0.46752 0.0
O850 O 0.51001 0.99481 0.47348 0.0
O851 O 0.44785 0.07594 0.44072 0.0
O852 O 0.48826 0.11656 0.46158 0.0
O853 O 0.47328 0.02064 0.47019 0.0
O854 O 0.5173 0.98711 0.55516 0.0
O855 O 0.4815 1.00892 0.56723 0.0
O856 O 0.46569 0.06449 0.51969 0.0
O857 O 0.50246 0.08659 0.56825 0.0
C858 C 0.63591 0.94402 0.5731 0.0
C859 C 0.61629 0.04635 0.55386 0.0
C860 C 0.59677 0.04698 0.44371 0.0
C861 C 0.6282 0.95249 0.46206 0.0
C862 C 0.45923 0.1074 0.44294 0.0
C863 C 0.48062 0.99499 0.46999 0.0
C864 C 0.49094 0.98505 0.57116 0.0
C865 C 0.4765 0.08533 0.54655 0.0
O866 O 0.65048 0.97568 0.57084 0.0
O867 O 0.60675 0.93287 0.55492 0.0
O868 O 0.58531 0.04162 0.54921 0.0
O869 O 0.62882 0.02818 0.53898 0.0
C870 C 0.16311 0.2218 0.32555 0.0
C871 C 0.19223 0.23994 0.34565 0.0
C872 C 0.13578 0.20103 0.34534 0.0
C873 C 0.13708 0.19948 0.38625 0.0
C874 C 0.16551 0.2196 0.40662 0.0
C875 C 0.19296 0.23913 0.38612 0.0
C876 C 0.10641 0.1793 0.32245 0.0
C877 C 0.16748 0.21944 0.45022 0.0
C878 C 0.05905 0.15776 0.43987 0.0
C879 C 0.06213 0.12812 0.45395 0.0
C880 C 0.08315 0.18131 0.41736 0.0
C881 C 0.11024 0.17445 0.40802 0.0
C882 C 0.11245 0.14382 0.42063 0.0
C883 C 0.08861 0.12123 0.44396 0.0
C884 C 0.08027 0.21389 0.40478 0.0
C885 C 0.14037 0.13513 0.4102 0.0
H886 H 0.16182 0.22302 0.29426 0.0
H887 H 0.21521 0.25303 0.40201 0.0
H888 H 0.10609 0.15396 0.32586 0.0
H889 H 0.08337 0.17851 0.33332 0.0
H890 H 0.10696 0.18747 0.29105 0.0
H891 H 0.18942 0.23963 0.46105 0.0
H892 H 0.1454 0.2217 0.46014 0.0
H893 H 0.16849 0.19586 0.46352 0.0
H894 H 0.03862 0.16308 0.44789 0.0
H895 H 0.09074 0.09812 0.45463 0.0
H896 H 0.08137 0.21882 0.37286 0.0
H897 H 0.10116 0.23373 0.41789 0.0
H898 H 0.0572 0.21497 0.41341 0.0
H899 H 0.1428 0.13893 0.37837 0.0
H900 H 0.13707 0.10935 0.41981 0.0
H901 H 0.16362 0.15141 0.4239 0.0
C902 C 0.89409 0.21648 0.36796 0.0
C903 C 0.89589 0.20023 0.33628 0.0
C904 C 0.90636 0.2095 0.40504 0.0
C905 C 0.92018 0.18527 0.4106 0.0
C906 C 0.92385 0.1702 0.37833 0.0
C907 C 0.91178 0.17802 0.34144 0.0
C908 C 0.90274 0.22671 0.43845 0.0
C909 C 0.93867 0.14428 0.38309 0.0
C910 C 0.96772 0.1645 0.498 0.0
C911 C 0.94447 0.13457 0.51177 0.0
C912 C 0.95941 0.18362 0.46709 0.0
C913 C 0.92719 0.17244 0.45021 0.0
C914 C 0.90273 0.14481 0.46786 0.0
C915 C 0.91172 0.12617 0.49861 0.0
C916 C 0.98596 0.21347 0.44972 0.0
C917 C 0.86788 0.13246 0.45124 0.0
H918 H 0.88216 0.23398 0.36403 0.0
H919 H 0.91314 0.16541 0.31706 0.0
H920 H 0.92481 0.23299 0.45854 0.0
H921 H 0.8983 0.24943 0.42827 0.0
H922 H 0.88172 0.21022 0.45512 0.0
H923 H 0.94173 0.13661 0.35482 0.0
H924 H 0.96288 0.15341 0.39901 0.0
H925 H 0.92277 0.12242 0.40044 0.0
H926 H 0.99311 0.17119 0.50822 0.0
H927 H 0.89368 0.10323 0.50968 0.0
H928 H 0.97666 0.23322 0.43987 0.0
H929 H 0.99459 0.20693 0.42407 0.0
H930 H 1.00719 0.22298 0.47071 0.0
H931 H 0.85115 0.11368 0.47139 0.0
H932 H 0.86667 0.12134 0.42377 0.0
H933 H 0.85903 0.15286 0.44447 0.0
C934 C 0.88855 0.87258 0.35339 0.0
C935 C 0.85638 0.85539 0.36393 0.0
C936 C 0.91036 0.89709 0.37565 0.0
C937 C 0.89978 0.90438 0.40944 0.0
C938 C 0.86726 0.88719 0.42015 0.0
C939 C 0.84595 0.86279 0.39731 0.0
C940 C 0.94482 0.91494 0.36318 0.0
C941 C 0.85506 0.8944 0.45586 0.0
C942 C 0.9671 0.93949 0.4857 0.0
C943 C 0.97387 0.9732 0.47896 0.0
C944 C 0.94227 0.91684 0.46419 0.0
C945 C 0.92361 0.92809 0.43509 0.0
C946 C 0.92921 0.96194 0.42924 0.0
C947 C 0.95433 0.9842 0.45139 0.0
C948 C 0.93693 0.88095 0.47157 0.0
C949 C 0.90963 0.97473 0.39852 0.0
H950 H 0.89663 0.86701 0.32751 0.0
H951 H 0.82094 0.84991 0.40529 0.0
H952 H 0.95069 0.94173 0.36026 0.0
H953 H 0.96231 0.91004 0.38561 0.0
H954 H 0.94865 0.90746 0.33514 0.0
H955 H 0.82851 0.88042 0.45869 0.0
H956 H 0.86849 0.88812 0.4821 0.0
H957 H 0.85979 0.92091 0.45508 0.0
H958 H 0.98181 0.93072 0.50734 0.0
H959 H 0.95946 0.0102 0.44609 0.0
H960 H 0.94281 0.87224 0.44558 0.0
H961 H 0.91093 0.86631 0.47691 0.0
H962 H 0.95228 0.87607 0.49677 0.0
H963 H 0.91607 0.97189 0.36942 0.0
H964 H 0.91431 1.00098 0.40065 0.0
H965 H 0.88313 0.9604 0.40079 0.0
C966 C 0.15955 0.94211 0.30294 0.0
C967 C 0.18612 0.93202 0.31032 0.0
C968 C 0.15123 0.95813 0.33027 0.0
C969 C 0.1696 0.96371 0.36609 0.0
C970 C 0.19792 0.95594 0.37256 0.0
C971 C 0.20598 0.94031 0.34442 0.0
C972 C 0.12112 0.96657 0.32204 0.0
C973 C 0.21823 0.96178 0.41031 0.0
C974 C 0.14575 0.01345 0.43084 0.0
C975 C 0.1211 0.98856 0.45103 0.0
C976 C 0.16321 1.00584 0.40423 0.0
C977 C 0.156 0.97264 0.39844 0.0
C978 C 0.13272 0.94748 0.4209 0.0
C979 C 0.11532 0.95579 0.44669 0.0
C980 C 0.18773 0.03328 0.38063 0.0
C981 C 0.12481 0.91174 0.41616 0.0
H982 H 0.14391 0.93568 0.27685 0.0
H983 H 0.22707 0.93338 0.34986 0.0
H984 H 0.12606 0.99166 0.32993 0.0
H985 H 0.11234 0.96495 0.29106 0.0
H986 H 0.10124 0.94939 0.3399 0.0
H987 H 0.22237 0.98629 0.41951 0.0
H988 H 0.20495 0.94335 0.43329 0.0
H989 H 0.24226 0.95975 0.40823 0.0
H990 H 0.15016 0.03884 0.43428 0.0
H991 H 0.09659 0.93657 0.46284 0.0
H992 H 0.17712 0.03532 0.35071 0.0
H993 H 0.21019 0.02822 0.37859 0.0
H994 H 0.19451 0.05718 0.39307 0.0
H995 H 0.11238 0.90564 0.38724 0.0
H996 H 0.10865 0.89538 0.43862 0.0
H997 H 0.14753 0.90656 0.41773 0.0
C998 C 0.09647 0.83374 0.68538 0.0
C999 C 0.11359 0.81437 0.67802 0.0
C1000 C 0.0952 0.85923 0.65843 0.0
C1001 C 0.11201 0.86565 0.62389 0.0
C1002 C 0.12657 0.8442 0.61466 0.0
C1003 C 0.12668 0.81839 0.64167 0.0
C1004 C 0.07815 0.8809 0.6684 0.0
C1005 C 0.14463 0.85013 0.57815 0.0
C1006 C 0.09336 0.92919 0.55642 0.0
C1007 C 0.11571 0.95785 0.57167 0.0
C1008 C 0.09361 0.89852 0.57057 0.0
C1009 C 0.11711 0.89675 0.60011 0.0
C1010 C 0.14255 0.92572 0.61148 0.0
C1011 C 0.14147 0.95615 0.59718 0.0
C1012 C 0.06643 0.86824 0.55711 0.0
C1013 C 0.16896 0.92459 0.64171 0.0
H1014 H 0.08618 0.83063 0.71329 0.0
H1015 H 0.13914 0.80274 0.63546 0.0
H1016 H 0.0966 0.90514 0.67512 0.0
H1017 H 0.06225 0.88496 0.64338 0.0
H1018 H 0.063 0.87028 0.69383 0.0
H1019 H 0.14744 0.82756 0.57083 0.0
H1020 H 0.1321 0.85925 0.55312 0.0
H1021 H 0.16938 0.86907 0.58256 0.0
H1022 H 0.07379 0.93036 0.53588 0.0
H1023 H 0.1592 0.97828 0.60842 0.0
H1024 H 0.04705 0.85967 0.57824 0.0
H1025 H 0.07521 0.84808 0.55543 0.0
H1026 H 0.05537 0.87327 0.52829 0.0
H1027 H 0.15859 0.91775 0.67068 0.0
H1028 H 0.18959 0.9486 0.64261 0.0
H1029 H 0.17853 0.90579 0.63601 0.0
C1030 C 0.22483 0.19066 0.72108 0.0
C1031 C 0.22045 0.2013 0.75594 0.0
C1032 C 0.19813 0.17228 0.69785 0.0
C1033 C 0.16624 0.16354 0.71028 0.0
C1034 C 0.16175 0.17147 0.74712 0.0
C1035 C 0.189 0.19044 0.7695 0.0
C1036 C 0.20401 0.16426 0.65877 0.0
C1037 C 0.1281 0.1618 0.76178 0.0
C1038 C 0.10028 0.15221 0.62922 0.0
C1039 C 0.08868 0.1183 0.62699 0.0
C1040 C 0.12501 0.16727 0.65705 0.0
C1041 C 0.1378 0.14776 0.68357 0.0
C1042 C 0.12517 0.11342 0.68242 0.0
C1043 C 0.10099 0.09915 0.65392 0.0
C1044 C 0.13826 0.2041 0.65726 0.0
C1045 C 0.13774 0.0918 0.71064 0.0
H1046 H 0.24912 0.19849 0.71064 0.0
H1047 H 0.18529 0.19849 0.79618 0.0
H1048 H 0.19138 0.13772 0.65539 0.0
H1049 H 0.19377 0.1775 0.6355 0.0
H1050 H 0.2304 0.1712 0.65447 0.0
H1051 H 0.12906 0.16547 0.79303 0.0
H1052 H 0.11539 0.17684 0.74519 0.0
H1053 H 0.11327 0.13579 0.75734 0.0
H1054 H 0.0907 0.16702 0.60856 0.0
H1055 H 0.09169 0.07281 0.65281 0.0
H1056 H 0.16439 0.21421 0.6505 0.0
H1057 H 0.1369 0.21118 0.68647 0.0
H1058 H 0.12477 0.2156 0.63583 0.0
H1059 H 0.16346 0.0965 0.70517 0.0
H1060 H 0.12314 0.06537 0.70824 0.0
H1061 H 0.13741 0.09756 0.74081 0.0
C1062 C 0.89757 0.11136 0.82307 0.0
C1063 C 0.87404 0.12553 0.8149 0.0
C1064 C 0.90875 0.10003 0.79327 0.0
C1065 C 0.89597 0.10301 0.75474 0.0
C1066 C 0.86986 0.11418 0.74721 0.0
C1067 C 0.85929 0.12539 0.77742 0.0
C1068 C 0.93637 0.08785 0.80247 0.0
C1069 C 0.85529 0.11746 0.70666 0.0
C1070 C 0.95649 0.12692 0.67663 0.0
C1071 C 0.94832 0.09748 0.65952 0.0
C1072 C 0.93944 0.12888 0.7075 0.0
C1073 C 0.91373 0.1006 0.72187 0.0
C1074 C 0.90505 0.07082 0.7045 0.0
C1075 C 0.9224 0.06965 0.67327 0.0
C1076 C 0.94917 0.16126 0.72494 0.0
C1077 C 0.87792 0.04019 0.71931 0.0
H1078 H 0.90895 0.11139 0.85206 0.0
H1079 H 0.84082 0.136 0.77119 0.0
H1080 H 0.93225 0.06611 0.78661 0.0
H1081 H 0.95949 0.10727 0.793 0.0
H1082 H 0.93941 0.0814 0.834 0.0
H1083 H 0.83173 0.12093 0.70673 0.0
H1084 H 0.87254 0.13898 0.69016 0.0
H1085 H 0.85124 0.09559 0.6911 0.0
H1086 H 0.97644 0.1485 0.66601 0.0
H1087 H 0.91624 0.04674 0.66034 0.0
H1088 H 0.95674 0.15862 0.75606 0.0
H1089 H 0.92801 0.16906 0.72313 0.0
H1090 H 0.96959 0.18093 0.71015 0.0
H1091 H 0.8841 0.03322 0.74979 0.0
H1092 H 0.87353 0.01927 0.70179 0.0
H1093 H 0.85493 0.04473 0.71909 0.0
C1094 C 0.90932 0.85441 0.7394 0.0
C1095 C 0.88613 0.86282 0.75555 0.0
C1096 C 0.93632 0.87848 0.72226 0.0
C1097 C 0.94015 0.91173 0.72167 0.0
C1098 C 0.91837 0.92048 0.74124 0.0
C1099 C 0.89136 0.89573 0.75792 0.0
C1100 C 0.95886 0.86805 0.70164 0.0
C1101 C 0.92187 0.95571 0.74152 0.0
C1102 C 1.01763 0.9746 0.6804 0.0
C1103 C 1.00688 0.97923 0.64175 0.0
C1104 C 0.99598 0.95338 0.70732 0.0
C1105 C 0.96309 0.93623 0.695 0.0
C1106 C 0.95211 0.941 0.6561 0.0
C1107 C 0.97408 0.96258 0.63005 0.0
C1108 C 1.0083 0.94895 0.7487 0.0
C1109 C 0.91728 0.92275 0.64167 0.0
H1110 H 0.90548 0.82882 0.73859 0.0
H1111 H 0.8732 0.90211 0.7702 0.0
H1112 H 0.95379 0.87103 0.66986 0.0
H1113 H 0.98475 0.8836 0.7081 0.0
H1114 H 0.9555 0.84205 0.70979 0.0
H1115 H 0.90717 0.95883 0.76387 0.0
H1116 H 0.94781 0.97171 0.74688 0.0
H1117 H 0.91339 0.96411 0.71277 0.0
H1118 H 0.04291 0.98764 0.68964 0.0
H1119 H 0.96558 0.96594 0.60021 0.0
H1120 H 1.00675 0.92335 0.75553 0.0
H1121 H 0.99274 0.95343 0.76886 0.0
H1122 H 0.034 0.96565 0.75421 0.0
H1123 H 0.91174 0.896 0.64513 0.0
H1124 H 0.91258 0.92978 0.61068 0.0
H1125 H 0.90008 0.92755 0.65908 0.0
C1126 C 0.2808 0.13884 0.14022 0.0
C1127 C 0.26634 0.15365 0.11025 0.0
C1128 C 0.30142 0.12319 0.13214 0.0
C1129 C 0.30766 0.12244 0.09318 0.0
C1130 C 0.29021 0.13398 0.06277 0.0
C1131 C 0.26978 0.14962 0.07169 0.0
C1132 C 0.31883 0.11028 0.16538 0.0
C1133 C 0.29568 0.13287 0.02083 0.0
C1134 C 0.395 0.13709 0.07493 0.0
C1135 C 0.3927 0.10619 0.06611 0.0
C1136 C 0.36738 0.14251 0.08359 0.0
C1137 C 0.3368 0.11612 0.08455 0.0
C1138 C 0.33439 0.08459 0.07662 0.0
C1139 C 0.36239 0.08009 0.06686 0.0
C1140 C 0.3709 0.1767 0.09112 0.0
C1141 C 0.30231 0.05581 0.07811 0.0
H1142 H 0.27742 0.14105 0.17012 0.0
H1143 H 0.25847 0.16078 0.04844 0.0
H1144 H 0.32005 0.08672 0.15923 0.0
H1145 H 0.34426 0.12803 0.16933 0.0
H1146 H 0.30667 0.10667 0.19297 0.0
H1147 H 0.31835 0.15357 0.0126 0.0
H1148 H 0.29886 0.10997 0.01598 0.0
H1149 H 0.27508 0.13485 1.00136 0.0
H1150 H 0.41834 0.15738 0.07404 0.0
H1151 H 0.36065 0.05612 0.06021 0.0
H1152 H 0.36289 0.17664 0.12041 0.0
H1153 H 0.35505 0.18533 0.06979 0.0
H1154 H 0.39644 0.19448 0.08912 0.0
H1155 H 0.29078 0.054 0.10569 0.0
H1156 H 0.30529 0.03234 0.07541 0.0
H1157 H 0.28523 0.05932 0.0542 0.0
C1158 C 0.83381 0.38251 0.243 0.0
C1159 C 0.81308 0.36271 0.21514 0.0
C1160 C 0.86204 0.40902 0.23259 0.0
C1161 C 0.87057 0.41483 0.19357 0.0
C1162 C 0.84909 0.39551 0.16505 0.0
C1163 C 0.81978 0.37052 0.17609 0.0
C1164 C 0.88303 0.43009 0.26361 0.0
C1165 C 0.8577 0.4003 0.12325 0.0
C1166 C 0.93768 0.49085 0.15198 0.0
C1167 C 0.96447 0.48093 0.15647 0.0
C1168 C 0.90716 0.47017 0.16534 0.0
C1169 C 0.90329 0.43868 0.18315 0.0
C1170 C 0.93075 0.4294 0.18979 0.0
C1171 C 0.96099 0.45075 0.17674 0.0
C1172 C 0.87955 0.48258 0.16124 0.0
C1173 C 0.92873 0.39688 0.21025 0.0
H1174 H 0.82764 0.37765 0.27301 0.0
H1175 H 0.80267 0.35649 0.15439 0.0
H1176 H 0.9037 0.42223 0.27319 0.0
H1177 H 0.89323 0.45622 0.25239 0.0
H1178 H 0.8691 0.4279 0.2894 0.0
H1179 H 0.83869 0.38269 0.10497 0.0
H1180 H 0.86093 0.42551 0.11117 0.0
H1181 H 0.88122 0.39715 0.12142 0.0
H1182 H 0.94033 0.51456 0.13732 0.0
H1183 H 0.98159 0.44295 0.18102 0.0
H1184 H 0.87822 0.49182 0.18916 0.0
H1185 H 0.85562 0.46305 0.15469 0.0
H1186 H 0.88363 0.50308 0.13832 0.0
H1187 H 0.93556 0.39991 0.24149 0.0
H1188 H 0.9463 0.38814 0.19882 0.0
H1189 H 0.90392 0.37783 0.20757 0.0
C1190 C 0.66041 0.86073 0.14941 0.0
C1191 C 0.66658 0.84488 0.11975 0.0
C1192 C 0.6371 0.87515 0.1439 0.0
C1193 C 0.62142 0.87638 0.10688 0.0
C1194 C 0.62405 0.85703 0.07851 0.0
C1195 C 0.64603 0.84075 0.08578 0.0
C1196 C 0.6316 0.89164 0.17691 0.0
C1197 C 0.60481 0.85406 0.04 0.0
C1198 C 0.56125 0.91944 0.08681 0.0
C1199 C 0.58249 0.95229 0.08488 0.0
C1200 C 0.57334 0.89418 0.09377 0.0
C1201 C 0.60754 0.90213 0.09676 0.0
C1202 C 0.62902 0.93555 0.09301 0.0
C1203 C 0.61612 0.96015 0.08786 0.0
C1204 C 0.54918 0.85935 0.09838 0.0
C1205 C 0.6658 0.94634 0.0955 0.0
H1206 H 0.67504 0.86431 0.17637 0.0
H1207 H 0.64834 0.82647 0.06369 0.0
H1208 H 0.64924 0.91732 0.17621 0.0
H1209 H 0.60649 0.89178 0.17485 0.0
H1210 H 0.63562 0.87916 0.20534 0.0
H1211 H 0.61821 0.84962 0.01716 0.0
H1212 H 0.5815 0.83268 0.0427 0.0
H1213 H 0.59896 0.87605 0.03039 0.0
H1214 H 0.53508 0.91347 0.08425 0.0
H1215 H 0.63246 0.98564 0.08568 0.0
H1216 H 0.55952 0.84284 0.11627 0.0
H1217 H 0.54146 0.85007 0.06929 0.0
H1218 H 0.5269 0.85815 0.11176 0.0
H1219 H 0.67458 0.92625 0.09372 0.0
H1220 H 0.67561 0.95754 0.12327 0.0
H1221 H 0.67628 0.96564 0.07193 0.0
C1222 C 0.22503 0.73907 0.15871 0.0
C1223 C 0.23095 0.727 0.19646 0.0
C1224 C 0.19824 0.72057 0.13545 0.0
C1225 C 0.17748 0.68929 0.15038 0.0
C1226 C 0.18604 0.67539 0.18631 0.0
C1227 C 0.21273 0.69451 0.20906 0.0
C1228 C 0.19053 0.73553 0.09644 0.0
C1229 C 0.16507 0.64167 0.20262 0.0
C1230 C 0.08605 0.6633 0.13065 0.0
C1231 C 0.08017 0.64087 0.10311 0.0
C1232 C 0.11772 0.67936 0.14616 0.0
C1233 C 0.14426 0.67386 0.1323 0.0
C1234 C 0.13844 0.65227 0.10298 0.0
C1235 C 0.10629 0.63565 0.08912 0.0
C1236 C 0.12144 0.69977 0.1796 0.0
C1237 C 0.16546 0.64432 0.0885 0.0
H1238 H 0.23973 0.76393 0.14856 0.0
H1239 H 0.21737 0.68484 0.23801 0.0
H1240 H 0.18902 0.71946 0.07347 0.0
H1241 H 0.16635 0.73768 0.09615 0.0
H1242 H 0.20918 0.76016 0.08907 0.0
H1243 H 0.17831 0.63201 0.22648 0.0
H1244 H 0.1431 0.64282 0.21433 0.0
H1245 H 0.15673 0.6243 0.17966 0.0
H1246 H 0.06564 0.66648 0.14225 0.0
H1247 H 0.10144 0.61764 0.0683 0.0
H1248 H 0.10834 0.71681 0.17206 0.0
H1249 H 0.14708 0.71393 0.18859 0.0
H1250 H 0.1097 0.68338 0.20495 0.0
H1251 H 0.18878 0.66576 0.08753 0.0
H1252 H 0.15885 0.63521 0.05916 0.0
H1253 H 0.16962 0.62479 0.10857 0.0
C1254 C 0.3672 0.85262 0.86589 0.0
C1255 C 0.33304 0.8411 0.8651 0.0
C1256 C 0.38643 0.87814 0.88821 0.0
C1257 C 0.37117 0.89256 0.91051 0.0
C1258 C 0.33668 0.88083 0.9104 0.0
C1259 C 0.31796 0.85505 0.88771 0.0
C1260 C 0.42318 0.88967 0.88777 0.0
C1261 C 0.31961 0.89557 0.93394 0.0
C1262 C 0.43144 0.93565 0.98879 0.0
C1263 C 0.44531 0.96727 0.97053 0.0
C1264 C 0.40475 0.91167 0.97123 0.0
C1265 C 0.39201 0.91945 0.93428 0.0
C1266 C 0.40407 0.95207 0.9173 0.0
C1267 C 0.43056 0.97576 0.93583 0.0
C1268 C 0.39216 0.87732 0.99067 0.0
C1269 C 0.39107 0.96124 0.8779 0.0
H1270 H 0.37915 0.84183 0.84883 0.0
H1271 H 0.29159 0.84583 0.88779 0.0
H1272 H 0.43361 0.91617 0.87838 0.0
H1273 H 0.4337 0.88625 0.91741 0.0
H1274 H 0.43108 0.87626 0.8681 0.0
H1275 H 0.29278 0.88186 0.93319 0.0
H1276 H 0.32937 0.89613 0.96453 0.0
H1277 H 0.32432 0.92123 0.92246 0.0
H1278 H 0.44233 0.92925 0.01617 0.0
H1279 H 0.44106 1.00029 0.92186 0.0
H1280 H 0.40141 0.86166 0.97623 0.0
H1281 H 0.3651 0.86648 0.988 0.0
H1282 H 0.40025 0.87669 0.02188 0.0
H1283 H 0.40016 0.95149 0.85531 0.0
H1284 H 0.399 0.98819 0.87171 0.0
H1285 H 0.36401 0.95027 0.87553 0.0
C1286 C 0.17558 0.35783 0.99098 0.0
C1287 C 0.19918 0.36781 0.96299 0.0
C1288 C 0.16063 0.37872 1.00065 0.0
C1289 C 0.16882 0.4105 0.98151 0.0
C1290 C 0.19234 0.42075 0.95296 0.0
C1291 C 0.20722 0.39937 0.94408 0.0
C1292 C 0.13573 0.36656 0.03123 0.0
C1293 C 0.20181 0.45435 0.9318 0.0
C1294 C 0.10264 0.44604 0.98142 0.0
C1295 C 0.1136 0.46637 0.01212 0.0
C1296 C 0.12115 0.42916 0.96998 0.0
C1297 C 0.1513 0.43202 0.99014 0.0
C1298 C 0.16302 0.45332 0.02049 0.0
C1299 C 0.14417 0.47045 0.03091 0.0
C1300 C 0.10761 0.40704 0.93736 0.0
C1301 C 0.19462 0.45666 0.04337 0.0
H1302 H 0.1685 0.33338 0.00536 0.0
H1303 H 0.22561 0.40766 0.92279 0.0
H1304 H 0.14212 0.38423 0.05371 0.0
H1305 H 0.11137 0.36456 0.01788 0.0
H1306 H 0.13387 0.34227 0.04558 0.0
H1307 H 0.22085 0.45896 0.91089 0.0
H1308 H 0.18003 0.45721 0.91583 0.0
H1309 H 0.21108 0.47331 0.9529 0.0
H1310 H 0.07903 0.44271 0.96678 0.0
H1311 H 0.15254 0.48562 0.0551 0.0
H1312 H 0.10131 0.38117 0.94898 0.0
H1313 H 0.12624 0.41238 0.91576 0.0
H1314 H 0.08538 0.40973 0.92237 0.0
H1315 H 0.1918 0.43331 0.06085 0.0
H1316 H 0.20205 0.47651 0.0633 0.0
H1317 H 0.21448 0.46165 0.02356 0.0
C1318 C 0.70085 0.19002 0.82994 0.0
C1319 C 0.72025 0.22092 0.84213 0.0
C1320 C 0.67409 0.16886 0.85085 0.0
C1321 C 0.66599 0.17918 0.88432 0.0
C1322 C 0.6865 0.20985 0.89764 0.0
C1323 C 0.71295 0.23058 0.87596 0.0
C1324 C 0.65321 0.13645 0.83551 0.0
C1325 C 0.67941 0.22166 0.93357 0.0
C1326 C 0.5763 0.15059 0.90685 0.0
C1327 C 0.57347 0.12634 0.93748 0.0
C1328 C 0.60602 0.16737 0.88906 0.0
C1329 C 0.63402 0.16018 0.90234 0.0
C1330 C 0.63135 0.13566 0.93316 0.0
C1331 C 0.60114 0.1189 0.95012 0.0
C1332 C 0.6075 0.19309 0.85613 0.0
C1333 C 0.66036 0.12709 0.94831 0.0
H1334 H 0.7058 0.18298 0.80304 0.0
H1335 H 0.72711 0.25499 0.88457 0.0
H1336 H 0.64799 0.11655 0.8592 0.0
H1337 H 0.62946 0.13741 0.82344 0.0
H1338 H 0.66502 0.13023 0.81235 0.0
H1339 H 0.69987 0.24387 0.94285 0.0
H1340 H 0.65709 0.22753 0.92784 0.0
H1341 H 0.67473 0.2022 0.95778 0.0
H1342 H 0.55518 0.15652 0.89662 0.0
H1343 H 0.59938 0.10031 0.97379 0.0
H1344 H 0.61633 0.1873 0.83011 0.0
H1345 H 0.62511 0.2173 0.86425 0.0
H1346 H 0.58338 0.19505 0.84833 0.0
H1347 H 0.66676 0.11478 0.92606 0.0
H1348 H 0.65544 0.11051 0.97533 0.0
H1349 H 0.68183 0.14958 0.9541 0.0
C1350 C 0.8345 0.71851 0.86539 0.0
C1351 C 0.852 0.7499 0.84765 0.0
C1352 C 0.8496 0.70126 0.89326 0.0
C1353 C 0.8839 0.71446 0.9035 0.0
C1354 C 0.9016 0.74613 0.88549 0.0
C1355 C 0.88577 0.76301 0.8583 0.0
C1356 C 0.82862 0.66832 0.91132 0.0
C1357 C 0.93792 0.76196 0.89388 0.0
C1358 C 0.9252 0.6783 0.9939 0.0
C1359 C 0.93582 0.65624 0.97782 0.0
C1360 C 0.90822 0.69682 0.97081 0.0
C1361 C 0.90164 0.69433 0.92983 0.0
C1362 C 0.91283 0.67253 0.91366 0.0
C1363 C 0.92901 0.654 0.93731 0.0
C1364 C 0.89644 0.71851 0.9907 0.0
C1365 C 0.90784 0.66872 0.87068 0.0
H1366 H 0.80883 0.70696 0.85693 0.0
H1367 H 0.90027 0.7866 0.84447 0.0
H1368 H 0.83491 0.64893 0.90046 0.0
H1369 H 0.83336 0.66718 0.94326 0.0
H1370 H 0.80217 0.66297 0.90461 0.0
H1371 H 0.9483 0.78708 0.87943 0.0
H1372 H 0.94352 0.76319 0.92557 0.0
H1373 H 0.95026 0.74687 0.88383 0.0
H1374 H 0.92942 0.68058 0.02483 0.0
H1375 H 0.93673 0.63759 0.92348 0.0
H1376 H 0.86936 0.70806 0.99 0.0
H1377 H 0.90376 0.74326 0.97517 0.0
H1378 H 0.90595 0.72084 0.02138 0.0
H1379 H 0.88137 0.65931 0.86211 0.0
H1380 H 0.91857 0.65176 0.86183 0.0
H1381 H 0.91908 0.6929 0.85437 0.0
C1382 C 0.18954 0.34521 0.25389 0.0
C1383 C 0.21809 0.34381 0.23888 0.0
C1384 C 0.16955 0.3633 0.23516 0.0
C1385 C 0.17678 0.38318 0.19889 0.0
C1386 C 0.20568 0.38216 0.18328 0.0
C1387 C 0.22517 0.36335 0.20256 0.0
C1388 C 0.14007 0.3612 0.25519 0.0
C1389 C 0.21668 0.4018 0.14555 0.0
C1390 C 0.10874 0.4147 0.13502 0.0
C1391 C 0.11444 0.44697 0.14562 0.0
C1392 C 0.12801 0.39463 0.15097 0.0
C1393 C 0.15547 0.40534 0.17927 0.0
C1394 C 0.16148 0.43793 0.18941 0.0
C1395 C 0.1418 0.4572 0.17343 0.0
C1396 C 0.11827 0.36091 0.13761 0.0
C1397 C 0.18953 0.45311 0.21796 0.0
H1398 H 0.1825 0.33179 0.28168 0.0
H1399 H 0.24685 0.36485 0.18918 0.0
H1400 H 0.14397 0.38546 0.26502 0.0
H1401 H 0.11827 0.3546 0.23463 0.0
H1402 H 0.13493 0.34291 0.28069 0.0
H1403 H 0.23992 0.40092 0.13726 0.0
H1404 H 0.19759 0.39225 0.12219 0.0
H1405 H 0.21994 0.4277 0.1476 0.0
H1406 H 0.08863 0.40451 0.11413 0.0
H1407 H 0.14832 0.48132 0.18333 0.0
H1408 H 0.10949 0.34244 0.16244 0.0
H1409 H 0.13974 0.35775 0.12724 0.0
H1410 H 0.09872 0.35598 0.11404 0.0
H1411 H 0.1934 0.47891 0.22178 0.0
H1412 H 0.21233 0.4523 0.20816 0.0
H1413 H 0.18487 0.43881 0.24653 0.0
C1414 C 0.1908 0.68585 0.83792 0.0
C1415 C 0.21747 0.71372 0.84896 0.0
C1416 C 0.16425 0.66895 0.86206 0.0
C1417 C 0.16391 0.67933 0.8993 0.0
C1418 C 0.19102 0.70739 0.91081 0.0
C1419 C 0.21735 0.72382 0.88598 0.0
C1420 C 0.13651 0.63957 0.84766 0.0
C1421 C 0.19241 0.71998 0.94972 0.0
C1422 C 0.08037 0.65367 0.94594 0.0
C1423 C 0.07914 0.62681 0.97281 0.0
C1424 C 0.1074 0.67071 0.92257 0.0
C1425 C 0.13496 0.66139 0.92539 0.0
C1426 C 0.13412 0.63444 0.95257 0.0
C1427 C 0.10657 0.61764 0.97561 0.0
C1428 C 0.10635 0.69893 0.89453 0.0
C1429 C 0.16253 0.62327 0.95739 0.0
H1430 H 0.19083 0.67693 0.81013 0.0
H1431 H 0.23813 0.7445 0.89577 0.0
H1432 H 0.13419 0.61764 0.86779 0.0
H1433 H 0.11317 0.64348 0.84707 0.0
H1434 H 0.14 0.63451 0.81814 0.0
H1435 H 0.21484 0.74187 0.95473 0.0
H1436 H 0.1708 0.72647 0.9519 0.0
H1437 H 0.19157 0.70054 0.97313 0.0
H1438 H 0.05988 0.6616 0.94291 0.0
H1439 H 0.10668 0.59738 0.9961 0.0
H1440 H 0.10808 0.69373 0.86449 0.0
H1441 H 0.12761 0.72148 0.90081 0.0
H1442 H 0.08364 0.70375 0.89585 0.0
H1443 H 0.15871 0.60236 0.97969 0.0
H1444 H 0.18515 0.64379 0.9658 0.0
H1445 H 0.16647 0.61586 0.9294 0.0
C1446 C 0.38145 0.26301 0.8582 0.0
C1447 C 0.34795 0.25252 0.84744 0.0
C1448 C 0.39494 0.24244 0.88105 0.0
C1449 C 0.37448 0.21039 0.89432 0.0
C1450 C 0.34027 0.20029 0.88548 0.0
C1451 C 0.32752 0.22111 0.86134 0.0
C1452 C 0.43152 0.25439 0.88882 0.0
C1453 C 0.31721 0.16703 0.90029 0.0
C1454 C 0.41423 0.1467 0.90433 0.0
C1455 C 0.42414 0.14548 0.94392 0.0
C1456 C 0.39757 0.16705 0.88833 0.0
C1457 C 0.38959 0.18644 0.91243 0.0
C1458 C 0.39852 0.18459 0.95272 0.0
C1459 C 0.41609 0.16456 0.96787 0.0
C1460 C 0.38943 0.16855 0.84515 0.0
C1461 C 0.3896 0.20389 0.97976 0.0
H1462 H 0.39747 0.28717 0.8474 0.0
H1463 H 0.30172 0.2125 0.85265 0.0
H1464 H 0.43774 0.25082 0.92019 0.0
H1465 H 0.44153 0.23991 0.8734 0.0
H1466 H 0.44378 0.28068 0.87909 0.0
H1467 H 0.29136 0.16509 0.89691 0.0
H1468 H 0.31968 0.14798 0.88403 0.0
H1469 H 0.32331 0.16175 0.93136 0.0
H1470 H 0.42032 0.13231 0.8853 0.0
H1471 H 0.42338 0.16375 0.99845 0.0
H1472 H 0.40182 0.19387 0.83214 0.0
H1473 H 0.36278 0.16208 0.83929 0.0
H1474 H 0.39699 0.15176 0.83039 0.0
H1475 H 0.40143 0.23047 0.97152 0.0
H1476 H 0.39702 0.19886 0.01044 0.0
H1477 H 0.36285 0.19784 0.97724 0.0
C1478 C 0.84596 0.3649 0.88668 0.0
C1479 C 0.85655 0.34247 0.87173 0.0
C1480 C 0.86614 0.38797 0.91294 0.0
C1481 C 0.89871 0.3902 0.92392 0.0
C1482 C 0.90972 0.36809 0.90807 0.0
C1483 C 0.88858 0.3444 0.88317 0.0
C1484 C 0.85224 0.40963 0.92961 0.0
C1485 C 0.94423 0.36967 0.91705 0.0
C1486 C 0.96118 0.47085 0.96408 0.0
C1487 C 0.96528 0.46196 0.00386 0.0
C1488 C 0.94013 0.44805 0.93807 0.0
C1489 C 0.92113 0.41534 0.95179 0.0
C1490 C 0.92435 0.40666 0.99227 0.0
C1491 C 0.94667 0.42952 0.01728 0.0
C1492 C 0.93908 0.45878 0.89544 0.0
C1493 C 0.90413 0.37299 0.00941 0.0
H1494 H 0.82138 0.36386 0.87861 0.0
H1495 H 0.89752 0.32768 0.87186 0.0
H1496 H 0.85428 0.40656 0.96175 0.0
H1497 H 0.86643 0.43568 0.92082 0.0
H1498 H 0.8262 0.4041 0.92001 0.0
H1499 H 0.95008 0.35272 0.90047 0.0
H1500 H 0.96176 0.39496 0.91022 0.0
H1501 H 0.94794 0.36332 0.94842 0.0
H1502 H 0.97557 0.49547 0.95284 0.0
H1503 H 0.94934 0.42199 0.04774 0.0
H1504 H 0.91388 0.45625 0.88505 0.0
H1505 H 0.94619 0.44275 0.8788 0.0
H1506 H 0.95564 0.48456 0.88889 0.0
H1507 H 0.87802 0.36674 0.99983 0.0
H1508 H 0.90633 0.37103 0.04161 0.0
H1509 H 0.91208 0.35455 0.99899 0.0
C1510 C 0.69783 0.90962 0.89802 0.0
C1511 C 0.71282 0.89608 0.92889 0.0
C1512 C 0.67614 0.92483 0.90478 0.0
C1513 C 0.66914 0.92659 0.9433 0.0
C1514 C 0.68434 0.91307 0.97438 0.0
C1515 C 0.70544 0.89776 0.96683 0.0
C1516 C 0.66121 0.93962 0.87078 0.0
C1517 C 0.67969 0.91568 0.01607 0.0
C1518 C 0.63331 0.98631 0.97304 0.0
C1519 C 0.59994 0.96684 0.97419 0.0
C1520 C 0.65587 0.97405 0.9614 0.0
C1521 C 0.64505 0.94125 0.95138 0.0
C1522 C 0.61132 0.92157 0.95231 0.0
C1523 C 0.58929 0.93466 0.96333 0.0
C1524 C 0.6914 0.99617 0.96039 0.0
C1525 C 0.59807 0.8866 0.94156 0.0
H1526 H 0.70357 0.90899 0.86858 0.0
H1527 H 0.71625 0.88703 0.9911 0.0
H1528 H 0.63437 0.92635 0.86888 0.0
H1529 H 0.66585 0.96553 0.87495 0.0
H1530 H 0.67102 0.93862 0.8429 0.0
H1531 H 0.68314 0.89531 0.03519 0.0
H1532 H 0.69851 0.93877 0.02558 0.0
H1533 H 0.65539 0.91611 0.02022 0.0
H1534 H 0.64188 0.01122 0.98121 0.0
H1535 H 0.56359 0.91931 0.96391 0.0
H1536 H 0.70194 0.99372 0.93371 0.0
H1537 H 0.70524 0.98898 0.98559 0.0
H1538 H 0.69497 0.02226 0.96166 0.0
H1539 H 0.59375 0.88647 0.90964 0.0
H1540 H 0.57445 0.87212 0.95477 0.0
H1541 H 0.61541 0.87415 0.95054 0.0
C1542 C 0.82076 0.70541 0.24121 0.0
C1543 C 0.83018 0.73998 0.2432 0.0
C1544 C 0.83758 0.6896 0.22114 0.0
C1545 C 0.86633 0.70748 0.19988 0.0
C1546 C 0.87652 0.74263 0.20196 0.0
C1547 C 0.85945 0.75777 0.22344 0.0
C1548 C 0.82411 0.65272 0.22438 0.0
C1549 C 0.90647 0.76535 0.18201 0.0
C1550 C 0.93481 0.67463 0.16897 0.0
C1551 C 0.92096 0.65485 0.13714 0.0
C1552 C 0.91799 0.69052 0.18915 0.0
C1553 C 0.88545 0.68961 0.17756 0.0
C1554 C 0.87152 0.67021 0.14465 0.0
C1555 C 0.88846 0.6532 0.12623 0.0
C1556 C 0.93605 0.70807 0.22398 0.0
C1557 C 0.83821 0.66731 0.12727 0.0
H1558 H 0.79966 0.68964 0.25681 0.0
H1559 H 0.87016 0.78393 0.22563 0.0
H1560 H 0.8038 0.64396 0.20213 0.0
H1561 H 0.84278 0.6425 0.22024 0.0
H1562 H 0.81387 0.64283 0.25312 0.0
H1563 H 0.90274 0.78764 0.16859 0.0
H1564 H 0.92719 0.77337 0.2039 0.0
H1565 H 0.91321 0.75377 0.15922 0.0
H1566 H 0.95948 0.67735 0.17926 0.0
H1567 H 0.87606 0.63911 0.10197 0.0
H1568 H 0.91948 0.711 0.24403 0.0
H1569 H 0.95349 0.73263 0.21403 0.0
H1570 H 0.95059 0.69469 0.24034 0.0
H1571 H 0.82021 0.64289 0.13669 0.0
H1572 H 0.83792 0.6689 0.09514 0.0
H1573 H 0.8303 0.68647 0.13577 0.0
C1574 C 0.33097 0.85237 0.19451 0.0
C1575 C 0.33861 0.85298 0.23459 0.0
C1576 C 0.34931 0.87814 0.16816 0.0
C1577 C 0.37625 0.90507 0.18205 0.0
C1578 C 0.38293 0.90628 0.2227 0.0
C1579 C 0.36447 0.88014 0.24822 0.0
C1580 C 0.34085 0.87567 0.12534 0.0
C1581 C 0.41082 0.93443 0.23933 0.0
C1582 C 0.45282 0.94571 0.12474 0.0
C1583 C 0.45158 0.9763 0.11074 0.0
C1584 C 0.42786 0.92212 0.14615 0.0
C1585 C 0.40063 0.92903 0.15478 0.0
C1586 C 0.39863 0.95953 0.13969 0.0
C1587 C 0.42385 0.98259 0.11737 0.0
C1588 C 0.43129 0.89004 0.16066 0.0
C1589 C 0.3701 0.96807 0.14744 0.0
H1590 H 0.31151 0.83114 0.18365 0.0
H1591 H 0.3708 0.88061 0.2791 0.0
H1592 H 0.34021 0.89919 0.11133 0.0
H1593 H 0.35993 0.87056 0.11178 0.0
H1594 H 0.31686 0.85591 0.11936 0.0
H1595 H 0.41032 0.93389 0.2713 0.0
H1596 H 0.43435 0.93336 0.23251 0.0
H1597 H 0.41001 0.9581 0.22604 0.0
H1598 H 0.47379 0.94019 0.11916 0.0
H1599 H 0.42246 1.00595 0.10646 0.0
H1600 H 0.40902 0.86921 0.1521 0.0
H1601 H 0.43399 0.8882 0.19279 0.0
H1602 H 0.45273 0.88748 0.14929 0.0
H1603 H 0.34816 0.95271 0.13067 0.0
H1604 H 0.37425 0.99419 0.13877 0.0
H1605 H 0.36508 0.96293 0.17864 0.0
C1606 C 0.68045 0.20581 0.20861 0.0
C1607 C 0.69406 0.23964 0.19912 0.0
C1608 C 0.654 0.18547 0.18616 0.0
C1609 C 0.64163 0.19908 0.1524 0.0
C1610 C 0.65586 0.23328 0.14233 0.0
C1611 C 0.68142 0.25325 0.16631 0.0
C1612 C 0.63882 0.14951 0.1991 0.0
C1613 C 0.64425 0.24877 0.10608 0.0
C1614 C 0.59203 0.13882 0.07815 0.0
C1615 C 0.55997 0.13515 0.08433 0.0
C1616 C 0.61886 0.16034 0.09912 0.0
C1617 C 0.61348 0.17758 0.12818 0.0
C1618 C 0.58102 0.17359 0.13474 0.0
C1619 C 0.55476 0.15298 0.11222 0.0
C1620 C 0.65299 0.16468 0.09009 0.0
C1621 C 0.57395 0.19046 0.16626 0.0
H1622 H 0.68991 0.19538 0.23439 0.0
H1623 H 0.69195 0.27946 0.15905 0.0
H1624 H 0.61246 0.14273 0.20328 0.0
H1625 H 0.64067 0.13464 0.17645 0.0
H1626 H 0.65065 0.14295 0.22663 0.0
H1627 H 0.65915 0.27527 0.10106 0.0
H1628 H 0.64522 0.23626 0.08054 0.0
H1629 H 0.61845 0.24583 0.10814 0.0
H1630 H 0.59613 0.12526 0.05636 0.0
H1631 H 0.52997 0.14997 0.11727 0.0
H1632 H 0.66499 0.15535 0.11547 0.0
H1633 H 0.66786 0.19106 0.08418 0.0
H1634 H 0.65315 0.15159 0.06467 0.0
H1635 H 0.58411 0.18334 0.19466 0.0
H1636 H 0.54737 0.18427 0.16828 0.0
H1637 H 0.58601 0.21738 0.16089 0.0
C1638 C 0.68934 0.70602 0.82814 0.0
C1639 C 0.71926 0.70497 0.82037 0.0
C1640 C 0.66881 0.68215 0.85375 0.0
C1641 C 0.67923 0.65755 0.87296 0.0
C1642 C 0.70856 0.65524 0.86333 0.0
C1643 C 0.72804 0.67881 0.83648 0.0
C1644 C 0.6371 0.68469 0.86236 0.0
C1645 C 0.72095 0.62995 0.88386 0.0
C1646 C 0.64638 0.6342 0.97245 0.0
C1647 C 0.61959 0.6053 0.96628 0.0
C1648 C 0.66767 0.65014 0.94296 0.0
C1649 C 0.66136 0.63721 0.90629 0.0
C1650 C 0.63561 0.60692 0.90073 0.0
C1651 C 0.61515 0.59109 0.93104 0.0
C1652 C 0.69581 0.68176 0.95041 0.0
C1653 C 0.62819 0.59241 0.86204 0.0
H1654 H 0.68264 0.72627 0.81541 0.0
H1655 H 0.75145 0.67829 0.83068 0.0
H1656 H 0.61692 0.66038 0.86204 0.0
H1657 H 0.63935 0.69313 0.89174 0.0
H1658 H 0.63049 0.70219 0.84116 0.0
H1659 H 0.73996 0.627 0.86759 0.0
H1660 H 0.73194 0.63785 0.91283 0.0
H1661 H 0.70084 0.60582 0.88836 0.0
H1662 H 0.65021 0.64481 0.99999 0.0
H1663 H 0.59457 0.56854 0.92631 0.0
H1664 H 0.6907 0.70259 0.93442 0.0
H1665 H 0.71859 0.68168 0.9397 0.0
H1666 H 0.69999 0.68601 0.98169 0.0
H1667 H 0.61708 0.60679 0.8414 0.0
H1668 H 0.61093 0.5665 0.86426 0.0
H1669 H 0.65085 0.59365 0.84969 0.0
C1670 C 0.4119 0.7132 0.97929 0.0
C1671 C 0.41729 0.74656 0.97643 0.0
C1672 C 0.43662 0.70195 0.99314 0.0
C1673 C 0.4675 0.72465 0.00535 0.0
C1674 C 0.47263 0.75829 0.0047 0.0
C1675 C 0.44727 0.76892 0.99014 0.0
C1676 C 0.43006 0.66592 0.99194 0.0
C1677 C 0.50531 0.78344 0.01651 0.0
C1678 C 0.5106 0.67311 0.05721 0.0
C1679 C 0.51996 0.66299 0.02506 0.0
C1680 C 0.49788 0.69799 0.05245 0.0
C1681 C 0.49441 0.71251 0.01481 0.0
C1682 C 0.509 0.70622 0.98378 0.0
C1683 C 0.52124 0.68114 0.98913 0.0
C1684 C 0.48464 0.70569 0.08684 0.0
C1685 C 0.50796 0.72302 0.94375 0.0
H1686 H 0.3885 0.69589 0.96916 0.0
H1687 H 0.45145 0.7948 0.98764 0.0
H1688 H 0.44146 0.66253 0.9665 0.0
H1689 H 0.44073 0.6562 0.01821 0.0
H1690 H 0.40351 0.651 0.98924 0.0
H1691 H 0.50241 0.80491 0.02707 0.0
H1692 H 0.51881 0.77319 0.03934 0.0
H1693 H 0.52041 0.79225 0.99089 0.0
H1694 H 0.51096 0.66016 0.08545 0.0
H1695 H 0.53008 0.67458 0.9645 0.0
H1696 H 0.45932 0.68807 0.09016 0.0
H1697 H 0.48422 0.73072 0.0833 0.0
H1698 H 0.4994 0.70318 0.11374 0.0
H1699 H 0.48352 0.71113 0.92918 0.0
H1700 H 0.52657 0.72139 0.92564 0.0
H1701 H 0.51205 0.74917 0.94538 0.0
C1702 C 0.35341 0.39033 0.85535 0.0
C1703 C 0.36122 0.3779 0.82386 0.0
C1704 C 0.37783 0.41064 0.87965 0.0
C1705 C 0.41087 0.41966 0.87145 0.0
C1706 C 0.41874 0.41041 0.83713 0.0
C1707 C 0.39374 0.38927 0.81385 0.0
C1708 C 0.36827 0.41957 0.91613 0.0
C1709 C 0.45371 0.42052 0.82671 0.0
C1710 C 0.47472 0.48317 0.93123 0.0
C1711 C 0.48658 0.46342 0.95768 0.0
C1712 C 0.45036 0.46938 0.90253 0.0
C1713 C 0.43695 0.435 0.90118 0.0
C1714 C 0.44806 0.41488 0.92879 0.0
C1715 C 0.47321 0.42942 0.95632 0.0
C1716 C 0.43975 0.49159 0.87297 0.0
C1717 C 0.43355 0.378 0.92908 0.0
H1718 H 0.3282 0.38218 0.86279 0.0
H1719 H 0.40007 0.37973 0.78984 0.0
H1720 H 0.37502 0.40543 0.94155 0.0
H1721 H 0.38157 0.44589 0.92025 0.0
H1722 H 0.34162 0.41409 0.9158 0.0
H1723 H 0.45537 0.41653 0.79612 0.0
H1724 H 0.46761 0.4467 0.83127 0.0
H1725 H 0.46559 0.40593 0.84577 0.0
H1726 H 0.48555 0.50956 0.93186 0.0
H1727 H 0.4825 0.41423 0.97677 0.0
H1728 H 0.41299 0.48504 0.87289 0.0
H1729 H 0.44524 0.48832 0.84357 0.0
H1730 H 0.45217 0.5178 0.87852 0.0
H1731 H 0.40666 0.36904 0.931 0.0
H1732 H 0.4438 0.3659 0.95366 0.0
H1733 H 0.43824 0.37036 0.90163 0.0
C1734 C 0.72949 0.46788 0.7992 0.0
C1735 C 0.72068 0.43387 0.80643 0.0
C1736 C 0.71882 0.48554 0.82242 0.0
C1737 C 0.69891 0.46871 0.85347 0.0
C1738 C 0.69122 0.43468 0.86189 0.0
C1739 C 0.70195 0.41772 0.83815 0.0
C1740 C 0.72744 0.52173 0.81218 0.0
C1741 C 0.67 0.41568 0.89472 0.0
C1742 C 0.67493 0.50258 0.93564 0.0
C1743 C 0.64197 0.49596 0.92449 0.0
C1744 C 0.69536 0.49716 0.91078 0.0
C1745 C 0.68228 0.48493 0.87439 0.0
C1746 C 0.6502 0.48213 0.86143 0.0
C1747 C 0.63043 0.4876 0.8867 0.0
C1748 C 0.73011 0.50211 0.92441 0.0
C1749 C 0.63563 0.47024 0.82231 0.0
H1750 H 0.74433 0.48067 0.77506 0.0
H1751 H 0.69445 0.39141 0.84363 0.0
H1752 H 0.70759 0.52546 0.79276 0.0
H1753 H 0.73015 0.53507 0.83825 0.0
H1754 H 0.75039 0.53265 0.79663 0.0
H1755 H 0.66908 0.39014 0.89983 0.0
H1756 H 0.67919 0.42792 0.92192 0.0
H1757 H 0.64474 0.41488 0.88798 0.0
H1758 H 0.68413 0.50978 0.96456 0.0
H1759 H 0.60522 0.48355 0.87748 0.0
H1760 H 0.74697 0.51649 0.90164 0.0
H1761 H 0.73276 0.47803 0.92974 0.0
H1762 H 0.73767 0.51494 0.95143 0.0
H1763 H 0.65295 0.48305 0.79944 0.0
H1764 H 0.61234 0.47401 0.81441 0.0
H1765 H 0.63069 0.44369 0.82279 0.0
C1766 C 0.75942 0.41492 0.1401 0.0
C1767 C 0.77006 0.44188 0.16257 0.0
C1768 C 0.73661 0.41273 0.10867 0.0
C1769 C 0.72393 0.43777 0.10044 0.0
C1770 C 0.73884 0.46733 0.11887 0.0
C1771 C 0.76191 0.46905 0.14984 0.0
C1772 C 0.72318 0.38186 0.08783 0.0
C1773 C 0.727 0.49528 0.1099 0.0
C1774 C 0.65421 0.4439 0.0328 0.0
C1775 C 0.62988 0.43516 0.05942 0.0
C1776 C 0.68454 0.44132 0.04413 0.0
C1777 C 0.69025 0.42997 0.08278 0.0
C1778 C 0.66399 0.4168 0.10771 0.0
C1779 C 0.63411 0.41954 0.0956 0.0
C1780 C 0.71109 0.45361 0.0158 0.0
C1781 C 0.66841 0.40336 0.14889 0.0
H1782 H 0.7664 0.39417 0.1494 0.0
H1783 H 0.77049 0.4901 0.16686 0.0
H1784 H 0.70217 0.36368 0.10317 0.0
H1785 H 0.7146 0.38663 0.05758 0.0
H1786 H 0.74191 0.37085 0.0875 0.0
H1787 H 0.74381 0.51787 0.12291 0.0
H1788 H 0.72448 0.50077 0.07814 0.0
H1789 H 0.70257 0.48829 0.12158 0.0
H1790 H 0.65076 0.45545 0.00451 0.0
H1791 H 0.6149 0.41206 0.11584 0.0
H1792 H 0.7302 0.44312 0.0234 0.0
H1793 H 0.7227 0.48064 0.01542 0.0
H1794 H 0.70054 0.4475 0.98615 0.0
H1795 H 0.67934 0.38456 0.1494 0.0
H1796 H 0.64496 0.39215 0.16342 0.0
H1797 H 0.68527 0.42336 0.16606 0.0
C1798 C 0.73239 0.70514 0.21432 0.0
C1799 C 0.72247 0.73132 0.21637 0.0
C1800 C 0.71241 0.67753 0.19541 0.0
C1801 C 0.68258 0.67704 0.17645 0.0
C1802 C 0.67366 0.70469 0.17608 0.0
C1803 C 0.69349 0.73134 0.19686 0.0
C1804 C 0.72241 0.64832 0.19766 0.0
C1805 C 0.64265 0.70563 0.15491 0.0
C1806 C 0.63781 0.61494 0.10344 0.0
C1807 C 0.61072 0.59447 0.12392 0.0
C1808 C 0.66203 0.64159 0.12042 0.0
C1809 C 0.65959 0.64694 0.15923 0.0
C1810 C 0.6337 0.62454 0.18097 0.0
C1811 C 0.60925 0.59889 0.16281 0.0
C1812 C 0.68858 0.66543 0.09583 0.0
C1813 C 0.63117 0.62838 0.22299 0.0
H1814 H 0.75505 0.70558 0.22924 0.0
H1815 H 0.68614 0.75191 0.19834 0.0
H1816 H 0.70482 0.62749 0.21471 0.0
H1817 H 0.72176 0.64044 0.16832 0.0
H1818 H 0.74727 0.65347 0.21158 0.0
H1819 H 0.64137 0.73032 0.15339 0.0
H1820 H 0.64078 0.69833 0.12499 0.0
H1821 H 0.62122 0.6879 0.16996 0.0
H1822 H 0.63873 0.61177 0.07317 0.0
H1823 H 0.58822 0.58302 0.17854 0.0
H1824 H 0.71287 0.67122 0.11138 0.0
H1825 H 0.68437 0.68871 0.08977 0.0
H1826 H 0.68914 0.65593 0.06775 0.0
H1827 H 0.65356 0.62798 0.23975 0.0
H1828 H 0.60971 0.60864 0.23589 0.0
H1829 H 0.62941 0.65231 0.22611 0.0
C1830 C 0.36706 0.66198 0.191 0.0
C1831 C 0.36595 0.68819 0.16469 0.0
C1832 C 0.37563 0.63709 0.17939 0.0
C1833 C 0.38601 0.63973 0.14151 0.0
C1834 C 0.3816 0.66397 0.11386 0.0
C1835 C 0.37058 0.68711 0.12556 0.0
C1836 C 0.37545 0.60923 0.20877 0.0
C1837 C 0.38993 0.66741 0.07219 0.0
C1838 C 0.46165 0.61971 0.13979 0.0
C1839 C 0.45158 0.59488 0.11434 0.0
C1840 C 0.44041 0.63411 0.14905 0.0
C1841 C 0.4076 0.62245 0.13379 0.0
C1842 C 0.39662 0.59586 0.11005 0.0
C1843 C 0.41903 0.58294 0.0997 0.0
C1844 C 0.45373 0.66255 0.17431 0.0
C1845 C 0.36155 0.58157 0.09477 0.0
H1846 H 0.36295 0.66132 0.2213 0.0
H1847 H 0.36732 0.70542 0.10401 0.0
H1848 H 0.37628 0.58808 0.19513 0.0
H1849 H 0.39662 0.61785 0.22994 0.0
H1850 H 0.35311 0.6008 0.22541 0.0
H1851 H 0.36698 0.65953 0.05358 0.0
H1852 H 0.40382 0.69353 0.06315 0.0
H1853 H 0.40433 0.65289 0.06666 0.0
H1854 H 0.48679 0.62905 0.15128 0.0
H1855 H 0.41104 0.56345 0.08036 0.0
H1856 H 0.44499 0.65427 0.20388 0.0
H1857 H 0.44531 0.68259 0.16271 0.0
H1858 H 0.48084 0.67266 0.17695 0.0
H1859 H 0.34467 0.58152 0.11647 0.0
H1860 H 0.35496 0.55615 0.08682 0.0
H1861 H 0.35791 0.59661 0.06837 0.0
C1862 C 0.34768 0.35666 0.18079 0.0
C1863 C 0.35241 0.34913 0.22058 0.0
C1864 C 0.37323 0.37914 0.15941 0.0
C1865 C 0.40427 0.39441 0.17829 0.0
C1866 C 0.40885 0.38782 0.21873 0.0
C1867 C 0.38287 0.36519 0.23939 0.0
C1868 C 0.36738 0.38549 0.11632 0.0
C1869 C 0.44157 0.40359 0.23989 0.0
C1870 C 0.47694 0.41559 0.11734 0.0
C1871 C 0.48613 0.44953 0.10887 0.0
C1872 C 0.45063 0.39765 0.14018 0.0
C1873 C 0.43277 0.4139 0.15498 0.0
C1874 C 0.44191 0.44819 0.14693 0.0
C1875 C 0.46861 0.46567 0.12398 0.0
C1876 C 0.44181 0.36115 0.14819 0.0
C1877 C 0.42331 0.46626 0.16219 0.0
H1878 H 0.32412 0.34454 0.16612 0.0
H1879 H 0.38661 0.35978 0.27024 0.0
H1880 H 0.3762 0.41219 0.10795 0.0
H1881 H 0.38134 0.37517 0.10043 0.0
H1882 H 0.34115 0.37436 0.10679 0.0
H1883 H 0.44019 0.39869 0.27184 0.0
H1884 H 0.45931 0.39405 0.23055 0.0
H1885 H 0.45127 0.43045 0.23263 0.0
H1886 H 0.49034 0.40279 0.10607 0.0
H1887 H 0.47547 0.49185 0.11753 0.0
H1888 H 0.41655 0.34791 0.13656 0.0
H1889 H 0.44249 0.35456 0.17989 0.0
H1890 H 0.45856 0.35235 0.13503 0.0
H1891 H 0.3975 0.4566 0.15075 0.0
H1892 H 0.43391 0.49301 0.15401 0.0
H1893 H 0.42316 0.46218 0.19425 0.0
C1894 C 0.88201 0.65793 0.65996 0.0
C1895 C 0.85665 0.65892 0.63295 0.0
C1896 C 0.90122 0.63966 0.65459 0.0
C1897 C 0.89584 0.62259 0.62077 0.0
C1898 C 0.86969 0.62272 0.59399 0.0
C1899 C 0.85022 0.64019 0.60082 0.0
C1900 C 0.92764 0.63901 0.68501 0.0
C1901 C 0.86174 0.60466 0.55774 0.0
C1902 C 0.97072 0.60941 0.59091 0.0
C1903 C 0.96205 0.57551 0.59844 0.0
C1904 C 0.94912 0.6248 0.59681 0.0
C1905 C 0.91849 0.60613 0.6126 0.0
C1906 C 0.90963 0.57174 0.62019 0.0
C1907 C 0.93118 0.55679 0.61218 0.0
C1908 C 0.95987 0.66124 0.58664 0.0
C1909 C 0.87766 0.55075 0.63754 0.0
H1910 H 0.88751 0.6721 0.68495 0.0
H1911 H 0.82996 0.63932 0.58034 0.0
H1912 H 0.92741 0.61378 0.69119 0.0
H1913 H 0.95183 0.65477 0.6742 0.0
H1914 H 0.92483 0.64806 0.71249 0.0
H1915 H 0.85347 0.61868 0.53339 0.0
H1916 H 0.88264 0.59973 0.54864 0.0
H1917 H 0.84122 0.58093 0.56298 0.0
H1918 H 0.99453 0.624 0.58013 0.0
H1919 H 0.92447 0.5306 0.61832 0.0
H1920 H 0.97467 0.67426 0.61154 0.0
H1921 H 0.93897 0.66928 0.57973 0.0
H1922 H 0.97554 0.6689 0.56145 0.0
H1923 H 0.87329 0.56239 0.66205 0.0
H1924 H 0.87694 0.52588 0.64809 0.0
H1925 H 0.85739 0.54815 0.61531 0.0
C1926 C 0.36548 0.8571 0.72643 0.0
C1927 C 0.34312 0.82836 0.71096 0.0
C1928 C 0.39189 0.87991 0.70519 0.0
C1929 C 0.39667 0.8746 0.66686 0.0
C1930 C 0.37462 0.84509 0.65164 0.0
C1931 C 0.34825 0.82287 0.67339 0.0
C1932 C 0.41392 0.9106 0.72336 0.0
C1933 C 0.37799 0.83752 0.61141 0.0
C1934 C 0.43491 0.95083 0.59545 0.0
C1935 C 0.46796 0.95438 0.59393 0.0
C1936 C 0.41218 0.92539 0.61833 0.0
C1937 C 0.42164 0.90152 0.64122 0.0
C1938 C 0.45467 0.90406 0.63923 0.0
C1939 C 0.47726 0.93015 0.61579 0.0
C1940 C 0.37775 0.92446 0.61834 0.0
C1941 C 0.46628 0.87931 0.66243 0.0
H1942 H 0.36169 0.86233 0.75493 0.0
H1943 H 0.33106 0.80129 0.66052 0.0
H1944 H 0.43989 0.91444 0.72066 0.0
H1945 H 0.40965 0.93203 0.7078 0.0
H1946 H 0.40958 0.90976 0.75448 0.0
H1947 H 0.36193 0.81214 0.60536 0.0
H1948 H 0.37151 0.85475 0.58971 0.0
H1949 H 0.40366 0.84089 0.60744 0.0
H1950 H 0.42648 0.96851 0.57858 0.0
H1951 H 0.50231 0.93197 0.61545 0.0
H1952 H 0.37207 0.92639 0.64816 0.0
H1953 H 0.36009 0.90077 0.6088 0.0
H1954 H 0.37388 0.94455 0.59899 0.0
H1955 H 0.46405 0.88016 0.69377 0.0
H1956 H 0.49206 0.88368 0.65749 0.0
H1957 H 0.45062 0.85429 0.65472 0.0
C1958 C 0.20201 0.30397 0.72099 0.0
C1959 C 0.23507 0.3182 0.73326 0.0
C1960 C 0.18624 0.32184 0.69696 0.0
C1961 C 0.20395 0.35491 0.68436 0.0
C1962 C 0.23788 0.36888 0.69484 0.0
C1963 C 0.25289 0.35063 0.71993 0.0
C1964 C 0.15014 0.30576 0.68678 0.0
C1965 C 0.25814 0.40342 0.68043 0.0
C1966 C 0.16077 0.39468 0.60573 0.0
C1967 C 0.15021 0.41322 0.62754 0.0
C1968 C 0.1791 0.37633 0.62342 0.0
C1969 C 0.18605 0.37557 0.66416 0.0
C1970 C 0.17452 0.39366 0.68629 0.0
C1971 C 0.15745 0.41279 0.66761 0.0
C1972 C 0.19225 0.35913 0.59815 0.0
C1973 C 0.18016 0.39281 0.72984 0.0
H1974 H 0.18807 0.27895 0.73143 0.0
H1975 H 0.27827 0.36196 0.72988 0.0
H1976 H 0.13672 0.31836 0.69992 0.0
H1977 H 0.14524 0.30802 0.65494 0.0
H1978 H 0.14026 0.2794 0.69718 0.0
H1979 H 0.25356 0.40721 0.64867 0.0
H1980 H 0.25103 0.42093 0.69433 0.0
H1981 H 0.28468 0.40918 0.68683 0.0
H1982 H 0.1558 0.39554 0.57462 0.0
H1983 H 0.14962 0.42746 0.68441 0.0
H1984 H 0.18932 0.33423 0.61115 0.0
H1985 H 0.21873 0.37333 0.59547 0.0
H1986 H 0.18017 0.35724 0.56855 0.0
H1987 H 0.17024 0.36713 0.7427 0.0
H1988 H 0.16851 0.40716 0.74295 0.0
H1989 H 0.20672 0.4028 0.73781 0.0
C1990 C 0.72484 0.16693 0.7213 0.0
C1991 C 0.73928 0.20047 0.70872 0.0
C1992 C 0.7057 0.14274 0.69586 0.0
C1993 C 0.70021 0.15145 0.65588 0.0
C1994 C 0.71465 0.18531 0.64292 0.0
C1995 C 0.73368 0.20909 0.66914 0.0
C1996 C 0.691 0.10759 0.71214 0.0
C1997 C 0.71013 0.19654 0.60101 0.0
C1998 C 0.67248 0.08243 0.58409 0.0
C1999 C 0.63837 0.07419 0.57856 0.0
C2000 C 0.69266 0.10749 0.60818 0.0
C2001 C 0.67903 0.12532 0.62824 0.0
C2002 C 0.6447 0.11726 0.62257 0.0
C2003 C 0.62516 0.09234 0.59812 0.0
C2004 C 0.72885 0.11475 0.61242 0.0
C2005 C 0.62829 0.13474 0.64298 0.0
H2006 H 0.72805 0.15941 0.75161 0.0
H2007 H 0.74452 0.23456 0.65838 0.0
H2008 H 0.66401 0.09864 0.70789 0.0
H2009 H 0.69937 0.09198 0.69641 0.0
H2010 H 0.69761 0.10442 0.74355 0.0
H2011 H 0.72253 0.22343 0.59512 0.0
H2012 H 0.71993 0.18408 0.58228 0.0
H2013 H 0.68374 0.18967 0.59266 0.0
H2014 H 0.68359 0.06912 0.56965 0.0
H2015 H 0.59909 0.08677 0.59481 0.0
H2016 H 0.73609 0.10967 0.64313 0.0
H2017 H 0.74256 0.14108 0.60433 0.0
H2018 H 0.73624 0.09996 0.59414 0.0
H2019 H 0.63197 0.13045 0.67482 0.0
H2020 H 0.60166 0.12647 0.63528 0.0
H2021 H 0.63951 0.16151 0.63554 0.0
C2022 C 0.86246 0.33404 0.38145 0.0
C2023 C 0.84152 0.34751 0.35992 0.0
C2024 C 0.8876 0.35255 0.40697 0.0
C2025 C 0.89238 0.38565 0.41063 0.0
C2026 C 0.87132 0.39939 0.38871 0.0
C2027 C 0.84593 0.38005 0.36407 0.0
C2028 C 0.90885 0.33655 0.43025 0.0
C2029 C 0.87586 0.43471 0.39087 0.0
C2030 C 0.93686 0.42808 0.50086 0.0
C2031 C 0.96838 0.44618 0.48833 0.0
C2032 C 0.9123 0.40765 0.47633 0.0
C2033 C 0.91899 0.40573 0.4378 0.0
C2034 C 0.95092 0.42361 0.42512 0.0
C2035 C 0.97531 0.44327 0.45065 0.0
C2036 C 0.87897 0.38851 0.49154 0.0
C2037 C 0.95905 0.42273 0.38417 0.0
H2038 H 0.8588 0.30875 0.37891 0.0
H2039 H 0.83008 0.3907 0.34718 0.0
H2040 H 0.93484 0.35028 0.4241 0.0
H2041 H 0.90668 0.33717 0.46166 0.0
H2042 H 0.90216 0.31071 0.42386 0.0
H2043 H 0.85823 0.44204 0.37096 0.0
H2044 H 0.87278 0.43887 0.42088 0.0
H2045 H 0.901 0.45089 0.38342 0.0
H2046 H 0.93131 0.43002 0.52998 0.0
H2047 H 0.99947 0.45738 0.44058 0.0
H2048 H 0.87146 0.36222 0.48689 0.0
H2049 H 0.86067 0.39733 0.47539 0.0
H2050 H 0.87832 0.39082 0.52292 0.0
H2051 H 0.95388 0.39717 0.37795 0.0
H2052 H 0.98504 0.43764 0.37885 0.0
H2053 H 0.94338 0.43209 0.3634 0.0
C2054 C 0.70797 0.83879 0.34604 0.0
C2055 C 0.74259 0.85095 0.34348 0.0
C2056 C 0.6907 0.85365 0.36714 0.0
C2057 C 0.7069 0.88378 0.38592 0.0
C2058 C 0.74181 0.89656 0.38242 0.0
C2059 C 0.75839 0.88058 0.36217 0.0
C2060 C 0.65429 0.83632 0.36851 0.0
C2061 C 0.76264 0.92824 0.39934 0.0
C2062 C 0.64911 0.93304 0.40383 0.0
C2063 C 0.65135 0.93723 0.44434 0.0
C2064 C 0.66687 0.91731 0.38535 0.0
C2065 C 0.68782 0.90232 0.40668 0.0
C2066 C 0.68995 0.90597 0.44798 0.0
C2067 C 0.67279 0.92322 0.46554 0.0
C2068 C 0.66263 0.91725 0.34185 0.0
C2069 C 0.71001 0.89099 0.47506 0.0
H2070 H 0.69377 0.81722 0.33106 0.0
H2071 H 0.78461 0.89229 0.36016 0.0
H2072 H 0.64432 0.84308 0.3929 0.0
H2073 H 0.64246 0.84256 0.34088 0.0
H2074 H 0.64761 0.80937 0.3712 0.0
H2075 H 0.78465 0.94151 0.38255 0.0
H2076 H 0.74904 0.94464 0.4002 0.0
H2077 H 0.77116 0.92272 0.42935 0.0
H2078 H 0.6331 0.94267 0.38552 0.0
H2079 H 0.67545 0.92455 0.49667 0.0
H2080 H 0.63982 0.89673 0.334 0.0
H2081 H 0.68335 0.91456 0.32893 0.0
H2082 H 0.66001 0.94022 0.32865 0.0
H2083 H 0.71458 0.87137 0.46223 0.0
H2084 H 0.69769 0.88067 0.50257 0.0
H2085 H 0.73381 0.9104 0.4825 0.0
C2086 C 0.21938 0.71118 0.37359 0.0
C2087 C 0.20786 0.71584 0.3352 0.0
C2088 C 0.20238 0.68298 0.39804 0.0
C2089 C 0.17208 0.65954 0.38475 0.0
C2090 C 0.15963 0.66528 0.34669 0.0
C2091 C 0.17776 0.69275 0.32247 0.0
C2092 C 0.21699 0.67822 0.43808 0.0
C2093 C 0.12691 0.64232 0.33139 0.0
C2094 C 0.14025 0.56973 0.42714 0.0
C2095 C 0.12025 0.56929 0.45647 0.0
C2096 C 0.15668 0.59839 0.4038 0.0
C2097 C 0.15392 0.62847 0.40965 0.0
C2098 C 0.13296 0.62814 0.43857 0.0
C2099 C 0.11678 0.59883 0.46179 0.0
C2100 C 0.17751 0.59564 0.37354 0.0
C2101 C 0.12723 0.65859 0.44525 0.0
H2102 H 0.24168 0.72955 0.38453 0.0
H2103 H 0.16799 0.69644 0.29331 0.0
H2104 H 0.2011 0.67955 0.46009 0.0
H2105 H 0.21848 0.65359 0.44258 0.0
H2106 H 0.24176 0.69703 0.44312 0.0
H2107 H 0.11869 0.65224 0.30336 0.0
H2108 H 0.12845 0.61853 0.32698 0.0
H2109 H 0.10818 0.63752 0.35274 0.0
H2110 H 0.14345 0.54739 0.42227 0.0
H2111 H 0.10147 0.59916 0.48416 0.0
H2112 H 0.20153 0.59734 0.38763 0.0
H2113 H 0.18128 0.61485 0.3493 0.0
H2114 H 0.16645 0.57145 0.36127 0.0
H2115 H 0.14603 0.67242 0.4668 0.0
H2116 H 0.10297 0.65234 0.45711 0.0
H2117 H 0.12869 0.67481 0.4182 0.0
C2118 C 0.35944 0.22678 0.31183 0.0
C2119 C 0.33451 0.23285 0.32968 0.0
C2120 C 0.37955 0.20871 0.33044 0.0
C2121 C 0.37609 0.19362 0.36964 0.0
C2122 C 0.3508 0.1993 0.38806 0.0
C2123 C 0.33086 0.21755 0.36858 0.0
C2124 C 0.40472 0.20519 0.30697 0.0
C2125 C 0.34396 0.18515 0.42912 0.0
C2126 C 0.40763 0.11777 0.40351 0.0
C2127 C 0.43858 0.13042 0.42494 0.0
C2128 C 0.38802 0.13699 0.3867 0.0
C2129 C 0.39757 0.17172 0.38979 0.0
C2130 C 0.4286 0.18474 0.41182 0.0
C2131 C 0.44786 0.16488 0.42835 0.0
C2132 C 0.35614 0.11944 0.36509 0.0
C2133 C 0.44189 0.22057 0.41825 0.0
H2134 H 0.36313 0.23602 0.28178 0.0
H2135 H 0.31155 0.21917 0.38417 0.0
H2136 H 0.42891 0.21347 0.32307 0.0
H2137 H 0.39809 0.17901 0.30233 0.0
H2138 H 0.4069 0.21943 0.2783 0.0
H2139 H 0.32604 0.1929 0.44143 0.0
H2140 H 0.33429 0.15803 0.43005 0.0
H2141 H 0.36693 0.19277 0.44769 0.0
H2142 H 0.39821 0.09187 0.3995 0.0
H2143 H 0.47072 0.17688 0.4444 0.0
H2144 H 0.35679 0.13008 0.33461 0.0
H2145 H 0.33594 0.12293 0.37827 0.0
H2146 H 0.35067 0.0928 0.3652 0.0
H2147 H 0.44491 0.23532 0.38991 0.0
H2148 H 0.46573 0.22813 0.43517 0.0
H2149 H 0.42423 0.22624 0.43395 0.0
C2150 C 0.71951 0.82861 0.71922 0.0
C2151 C 0.75257 0.83612 0.712 0.0
C2152 C 0.6993 0.84354 0.6962 0.0
C2153 C 0.71153 0.86692 0.66401 0.0
C2154 C 0.74465 0.87376 0.65602 0.0
C2155 C 0.76456 0.85931 0.68025 0.0
C2156 C 0.66495 0.83525 0.70762 0.0
C2157 C 0.7596 0.89711 0.62194 0.0
C2158 C 0.65055 0.89127 0.58711 0.0
C2159 C 0.65325 0.92248 0.59675 0.0
C2160 C 0.66914 0.87333 0.60794 0.0
C2161 C 0.69082 0.8857 0.64072 0.0
C2162 C 0.693 0.91686 0.65085 0.0
C2163 C 0.67508 0.93463 0.62887 0.0
C2164 C 0.66615 0.84121 0.59411 0.0
C2165 C 0.71459 0.93177 0.68536 0.0
H2166 H 0.70967 0.81192 0.74416 0.0
H2167 H 0.79003 0.86649 0.67435 0.0
H2168 H 0.66247 0.8575 0.71643 0.0
H2169 H 0.6474 0.82692 0.68251 0.0
H2170 H 0.65815 0.81588 0.73194 0.0
H2171 H 0.78364 0.89668 0.61601 0.0
H2172 H 0.74304 0.89093 0.59556 0.0
H2173 H 0.76305 0.92237 0.62773 0.0
H2174 H 0.63464 0.88118 0.56231 0.0
H2175 H 0.67807 0.95847 0.63732 0.0
H2176 H 0.65733 0.82132 0.61748 0.0
H2177 H 0.69053 0.84241 0.58707 0.0
H2178 H 0.64919 0.8348 0.56806 0.0
H2179 H 0.70826 0.91424 0.71146 0.0
H2180 H 0.71236 0.95491 0.69149 0.0
H2181 H 0.74046 0.93695 0.68016 0.0
C2182 C 0.6951 0.21788 0.32509 0.0
C2183 C 0.72512 0.23039 0.34624 0.0
C2184 C 0.66977 0.1899 0.33942 0.0
C2185 C 0.67489 0.17386 0.37549 0.0
C2186 C 0.70453 0.18748 0.39791 0.0
C2187 C 0.72943 0.21552 0.38283 0.0
C2188 C 0.63852 0.17647 0.31468 0.0
C2189 C 0.71068 0.17137 0.43685 0.0
C2190 C 0.60749 0.10672 0.42919 0.0
C2191 C 0.61277 0.07873 0.42121 0.0
C2192 C 0.62652 0.13788 0.41306 0.0
C2193 C 0.65113 0.14105 0.38809 0.0
C2194 C 0.65509 0.11277 0.37785 0.0
C2195 C 0.63591 0.08195 0.39457 0.0
C2196 C 0.62112 0.16748 0.42381 0.0
C2197 C 0.68084 0.11519 0.35083 0.0
H2198 H 0.69178 0.22918 0.2966 0.0
H2199 H 0.75271 0.22522 0.39905 0.0
H2200 H 0.63857 0.15534 0.30029 0.0
H2201 H 0.61694 0.16764 0.33257 0.0
H2202 H 0.63585 0.19508 0.29182 0.0
H2203 H 0.73373 0.18662 0.45205 0.0
H2204 H 0.69017 0.16652 0.45563 0.0
H2205 H 0.71217 0.14746 0.43289 0.0
H2206 H 0.58947 0.10455 0.44942 0.0
H2207 H 0.63995 0.0605 0.38783 0.0
H2208 H 0.61431 0.18037 0.3973 0.0
H2209 H 0.64402 0.1849 0.43693 0.0
H2210 H 0.60155 0.16094 0.4445 0.0
H2211 H 0.67855 0.12993 0.32355 0.0
H2212 H 0.67915 0.09078 0.34352 0.0
H2213 H 0.70546 0.12784 0.36458 0.0
C2214 C 0.8562 0.6393 0.38816 0.0
C2215 C 0.8486 0.65725 0.41374 0.0
C2216 C 0.88272 0.62947 0.3969 0.0
C2217 C 0.90081 0.63671 0.43269 0.0
C2218 C 0.89491 0.65732 0.45692 0.0
C2219 C 0.86889 0.6677 0.4468 0.0
C2220 C 0.88995 0.60949 0.36917 0.0
C2221 C 0.91474 0.66707 0.49444 0.0
C2222 C 0.92102 0.56639 0.48251 0.0
C2223 C 0.95503 0.57856 0.48171 0.0
C2224 C 0.90325 0.58528 0.46665 0.0
C2225 C 0.91996 0.61682 0.44856 0.0
C2226 C 0.95433 0.62912 0.44707 0.0
C2227 C 0.97164 0.60994 0.46438 0.0
C2228 C 0.86653 0.57107 0.46916 0.0
C2229 C 0.97284 0.66243 0.42758 0.0
H2230 H 0.84085 0.63221 0.36196 0.0
H2231 H 0.86318 0.68232 0.46594 0.0
H2232 H 0.91669 0.61633 0.36796 0.0
H2233 H 0.87925 0.58317 0.3793 0.0
H2234 H 0.87939 0.6128 0.33946 0.0
H2235 H 0.938 0.68757 0.48791 0.0
H2236 H 0.90179 0.67547 0.51425 0.0
H2237 H 0.92086 0.64666 0.50987 0.0
H2238 H 0.90822 0.5422 0.49627 0.0
H2239 H 0.99803 0.61927 0.46383 0.0
H2240 H 0.85494 0.56163 0.44103 0.0
H2241 H 0.85705 0.5898 0.47528 0.0
H2242 H 0.85866 0.55047 0.49198 0.0
H2243 H 0.95927 0.66765 0.40083 0.0
H2244 H 0.99744 0.66462 0.42 0.0
H2245 H 0.97611 0.68137 0.44761 0.0
C2246 C 0.33643 0.87533 0.35882 0.0
C2247 C 0.31956 0.84317 0.37365 0.0
C2248 C 0.36176 0.89716 0.38046 0.0
C2249 C 0.37062 0.88662 0.41818 0.0
C2250 C 0.35306 0.85451 0.43414 0.0
C2251 C 0.32751 0.83309 0.41163 0.0
C2252 C 0.38018 0.93102 0.36196 0.0
C2253 C 0.36217 0.84242 0.47411 0.0
C2254 C 0.45786 0.93948 0.44476 0.0
C2255 C 0.45313 0.96427 0.46215 0.0
C2256 C 0.43108 0.91223 0.43296 0.0
C2257 C 0.39903 0.90954 0.43962 0.0
C2258 C 0.39447 0.93293 0.46055 0.0
C2259 C 0.42157 0.96014 0.47135 0.0
C2260 C 0.43718 0.88706 0.41221 0.0
C2261 C 0.3608 0.93066 0.46885 0.0
H2262 H 0.33128 0.88312 0.32931 0.0
H2263 H 0.31466 0.80812 0.42313 0.0
H2264 H 0.38048 0.94989 0.38063 0.0
H2265 H 0.4059 0.93407 0.35886 0.0
H2266 H 0.36937 0.93567 0.33283 0.0
H2267 H 0.3444 0.81784 0.48356 0.0
H2268 H 0.38663 0.84095 0.47423 0.0
H2269 H 0.36376 0.85984 0.49553 0.0
H2270 H 0.48231 0.94214 0.43859 0.0
H2271 H 0.41789 0.97872 0.48608 0.0
H2272 H 0.41978 0.87953 0.38677 0.0
H2273 H 0.43379 0.86505 0.43254 0.0
H2274 H 0.46243 0.89615 0.40227 0.0
H2275 H 0.34871 0.93763 0.44182 0.0
H2276 H 0.3617 0.94717 0.49114 0.0
H2277 H 0.34545 0.90523 0.47885 0.0
C2278 C 0.28091 0.46083 0.40656 0.0
C2279 C 0.29448 0.43671 0.41202 0.0
C2280 C 0.25609 0.4596 0.42944 0.0
C2281 C 0.24478 0.43376 0.45883 0.0
C2282 C 0.25943 0.41014 0.46578 0.0
C2283 C 0.28393 0.41167 0.4419 0.0
C2284 C 0.241 0.48524 0.42097 0.0
C2285 C 0.24862 0.38281 0.49755 0.0
C2286 C 0.19225 0.45334 0.52367 0.0
C2287 C 0.16146 0.43964 0.50443 0.0
C2288 C 0.21948 0.44874 0.51176 0.0
C2289 C 0.21578 0.4305 0.47953 0.0
C2290 C 0.18425 0.41396 0.46261 0.0
C2291 C 0.15741 0.41861 0.47541 0.0
C2292 C 0.25254 0.46576 0.53149 0.0
C2293 C 0.17922 0.39391 0.42847 0.0
H2294 H 0.28877 0.47996 0.38322 0.0
H2295 H 0.29465 0.39313 0.44635 0.0
H2296 H 0.21491 0.47347 0.41127 0.0
H2297 H 0.24195 0.49727 0.44763 0.0
H2298 H 0.25351 0.50439 0.39815 0.0
H2299 H 0.26602 0.36998 0.50344 0.0
H2300 H 0.24607 0.39231 0.52478 0.0
H2301 H 0.22434 0.3647 0.48901 0.0
H2302 H 0.19547 0.46899 0.5468 0.0
H2303 H 0.13359 0.40737 0.46089 0.0
H2304 H 0.26598 0.48854 0.51371 0.0
H2305 H 0.26729 0.45012 0.53436 0.0
H2306 H 0.2504 0.47241 0.56072 0.0
H2307 H 0.18876 0.41051 0.40237 0.0
H2308 H 0.15303 0.37908 0.42217 0.0
H2309 H 0.19288 0.37727 0.43378 0.0
C2310 C 0.37152 0.17855 0.62432 0.0
C2311 C 0.38069 0.21099 0.60793 0.0
C2312 C 0.38502 0.15699 0.61261 0.0
C2313 C 0.40837 0.16796 0.5838 0.0
C2314 C 0.41751 0.20055 0.56695 0.0
C2315 C 0.40384 0.22158 0.57934 0.0
C2316 C 0.37445 0.12245 0.6313 0.0
C2317 C 0.44232 0.21352 0.53627 0.0
C2318 C 0.47051 0.12713 0.58532 0.0
C2319 C 0.45856 0.10637 0.555 0.0
C2320 C 0.45433 0.1469 0.59493 0.0
C2321 C 0.42531 0.14639 0.57365 0.0
C2322 C 0.41316 0.12581 0.54265 0.0
C2323 C 0.42974 0.10588 0.53392 0.0
C2324 C 0.46848 0.16852 0.62795 0.0
C2325 C 0.38271 0.12496 0.5186 0.0
H2326 H 0.35339 0.16979 0.64593 0.0
H2327 H 0.41168 0.24665 0.56677 0.0
H2328 H 0.36539 0.10476 0.60871 0.0
H2329 H 0.39566 0.11843 0.64729 0.0
H2330 H 0.35495 0.11709 0.6518 0.0
H2331 H 0.44492 0.23853 0.52382 0.0
H2332 H 0.46647 0.2142 0.54899 0.0
H2333 H 0.43531 0.19706 0.51241 0.0
H2334 H 0.49271 0.12795 0.60197 0.0
H2335 H 0.42008 0.08991 0.51062 0.0
H2336 H 0.45033 0.16239 0.65031 0.0
H2337 H 0.4742 0.19452 0.61724 0.0
H2338 H 0.49111 0.16598 0.64186 0.0
H2339 H 0.37598 0.10721 0.49609 0.0
H2340 H 0.38642 0.14959 0.50403 0.0
H2341 H 0.36199 0.11835 0.53756 0.0
C2342 C 0.86313 0.31872 0.69273 0.0
C2343 C 0.86434 0.30736 0.7318 0.0
C2344 C 0.89056 0.34344 0.67609 0.0
C2345 C 0.92068 0.3556 0.69843 0.0
C2346 C 0.92266 0.34131 0.73678 0.0
C2347 C 0.89431 0.31827 0.7533 0.0
C2348 C 0.88693 0.35677 0.63476 0.0
C2349 C 0.95436 0.35067 0.76116 0.0
C2350 C 0.98964 0.4104 0.63352 0.0
C2351 C 0.99587 0.44156 0.64551 0.0
C2352 C 0.96698 0.38192 0.65211 0.0
C2353 C 0.94902 0.38458 0.68262 0.0
C2354 C 0.95727 0.41588 0.69658 0.0
C2355 C 0.98047 0.44358 0.67808 0.0
C2356 C 0.96305 0.34934 0.63862 0.0
C2357 C 0.94209 0.42151 0.73086 0.0
H2358 H 0.84042 0.30896 0.67547 0.0
H2359 H 0.8957 0.30844 0.78313 0.0
H2360 H 0.89766 0.38393 0.6322 0.0
H2361 H 0.90002 0.34794 0.61576 0.0
H2362 H 0.86102 0.3486 0.62365 0.0
H2363 H 0.95551 0.32931 0.7804 0.0
H2364 H 0.97594 0.36018 0.74319 0.0
H2365 H 0.95572 0.36978 0.78008 0.0
H2366 H 1.00191 0.40817 0.60905 0.0
H2367 H 0.98565 0.46726 0.68868 0.0
H2368 H 0.95354 0.3481 0.6079 0.0
H2369 H 0.94673 0.32807 0.65632 0.0
H2370 H 0.98735 0.34735 0.63948 0.0
H2371 H 0.93368 0.44219 0.72321 0.0
H2372 H 0.96108 0.42895 0.75486 0.0
H2373 H 0.92146 0.39993 0.74183 0.0
C2374 C 0.25039 0.69819 0.67707 0.0
C2375 C 0.23592 0.70608 0.7066 0.0
C2376 C 0.23243 0.67195 0.65472 0.0
C2377 C 0.19976 0.65248 0.66335 0.0
C2378 C 0.18518 0.66041 0.69329 0.0
C2379 C 0.20326 0.68752 0.71403 0.0
C2380 C 0.24851 0.66488 0.62226 0.0
C2381 C 0.15088 0.63957 0.70447 0.0
C2382 C 0.13892 0.59526 0.59436 0.0
C2383 C 0.14162 0.56538 0.60784 0.0
C2384 C 0.15901 0.62424 0.61082 0.0
C2385 C 0.18114 0.62284 0.64253 0.0
C2386 C 0.18391 0.59258 0.65608 0.0
C2387 C 0.16452 0.56426 0.63797 0.0
C2388 C 0.15632 0.65624 0.59458 0.0
C2389 C 0.20642 0.58987 0.69059 0.0
H2390 H 0.27569 0.71262 0.67139 0.0
H2391 H 0.19218 0.6934 0.73721 0.0
H2392 H 0.25273 0.64177 0.63007 0.0
H2393 H 0.23234 0.66159 0.59541 0.0
H2394 H 0.27236 0.68475 0.61611 0.0
H2395 H 0.14346 0.64874 0.72905 0.0
H2396 H 0.13328 0.63889 0.6794 0.0
H2397 H 0.14905 0.61403 0.71279 0.0
H2398 H 0.12138 0.59596 0.57066 0.0
H2399 H 0.16638 0.54096 0.64829 0.0
H2400 H 0.18093 0.67491 0.58902 0.0
H2401 H 0.14562 0.66554 0.61597 0.0
H2402 H 0.14082 0.65368 0.56717 0.0
H2403 H 0.23197 0.6059 0.68491 0.0
H2404 H 0.20534 0.56441 0.69775 0.0
H2405 H 0.19977 0.5983 0.7163 0.0
loop_
_geom_bond_atom_site_label_1
_geom_bond_atom_site_label_2
_geom_bond_distance
_geom_bond_site_symmetry_2
_ccdc_geom_bond_type
Gd0 N31 2.661 . S
Gd0 N37 2.601 . S
Gd0 O44 2.545 . S
Gd0 O45 2.606 . S
Gd0 O47 2.429 . S
Gd0 O48 2.545 . S
Gd0 O49 2.412 . S
Gd0 O51 2.362 . S
Gd0 O52 2.324 . S
Gd0 C59 2.828 . S
Gd1 N10 2.661 . S
Gd1 N14 2.601 . S
Gd1 O45 2.362 . S
Gd1 O46 2.324 . S
Gd1 O50 2.545 . S
Gd1 O51 2.606 . S
Gd1 O53 2.429 . S
Gd1 O54 2.545 . S
Gd1 O55 2.412 . S
Gd1 C68 2.828 . S
C2 C5 1.417 . S
C2 C7 1.431 . S
C2 C8 1.412 . S
C3 C6 1.437 . S
C3 C7 1.317 . S
C3 H22 0.929 . S
C4 C5 1.426 . S
C4 C6 1.413 . S
C4 N14 1.359 . S
C5 C2 1.417 . S
C5 C4 1.426 . S
C5 N10 1.350 . S
C6 C3 1.437 . S
C6 C4 1.413 . S
C6 C16 1.391 . S
C7 C2 1.431 . S
C7 C3 1.317 . S
C7 H18 0.930 . S
C8 C2 1.412 . S
C8 C9 1.355 . S
C8 H20 0.930 . S
C9 C8 1.355 . S
C9 C11 1.402 . S
C9 H21 0.930 . S
N10 Gd1 2.661 . S
N10 C5 1.350 . S
N10 C11 1.307 . S
C11 C9 1.402 . S
C11 N10 1.307 . S
C11 H12 0.930 . S
H12 C11 0.930 . S
C13 N14 1.334 . S
C13 C15 1.394 . S
C13 H17 0.930 . S
N14 Gd1 2.601 . S
N14 C4 1.359 . S
N14 C13 1.334 . S
C15 C13 1.394 . S
C15 C16 1.359 . S
C15 H27 0.930 . S
C16 C6 1.391 . S
C16 C15 1.359 . S
C16 H28 0.929 . S
H17 C13 0.930 . S
H18 C7 0.930 . S
H19 C36 0.930 . S
H20 C8 0.930 . S
H21 C9 0.930 . S
H22 C3 0.929 . S
H23 C41 0.930 . S
H24 C32 0.930 . S
H25 C33 0.930 . S
H26 C57 0.929 . S
H27 C15 0.930 . S
H28 C16 0.929 . S
H29 C58 0.930 . S
H30 C39 0.930 . S
N31 Gd0 2.661 . S
N31 C35 1.350 . S
N31 C36 1.307 . S
C32 H24 0.930 . S
C32 C33 1.355 . S
C32 C34 1.412 . S
C33 H25 0.930 . S
C33 C32 1.355 . S
C33 C36 1.402 . S
C34 C32 1.412 . S
C34 C35 1.417 . S
C34 C58 1.431 . S
C35 N31 1.350 . S
C35 C34 1.417 . S
C35 C38 1.426 . S
C36 H19 0.930 . S
C36 N31 1.307 . S
C36 C33 1.402 . S
N37 Gd0 2.601 . S
N37 C38 1.359 . S
N37 C41 1.334 . S
C38 C35 1.426 . S
C38 N37 1.359 . S
C38 C42 1.413 . S
C39 H30 0.930 . S
C39 C40 1.359 . S
C39 C41 1.394 . S
C40 C39 1.359 . S
C40 C42 1.391 . S
C40 H43 0.929 . S
C41 H23 0.930 . S
C41 N37 1.334 . S
C41 C39 1.394 . S
C42 C38 1.413 . S
C42 C40 1.391 . S
C42 C57 1.437 . S
H43 C40 0.929 . S
O44 Gd0 2.545 . S
O44 C59 1.258 . S
O45 Gd0 2.606 . S
O45 Gd1 2.362 . S
O45 C56 1.284 . S
O46 Gd1 2.324 . S
O46 C66 1.254 . S
O47 Gd0 2.429 . S
O47 C66 1.268 . S
O48 Gd0 2.545 . S
O48 C56 1.250 . S
O49 Gd0 2.412 . S
O49 C59 1.252 . S
O50 Gd1 2.545 . S
O50 C68 1.258 . S
O51 Gd0 2.362 . S
O51 Gd1 2.606 . S
O51 C67 1.284 . S
O52 Gd0 2.324 . S
O52 C75 1.254 . S
O53 Gd1 2.429 . S
O53 C75 1.268 . S
O54 Gd1 2.545 . S
O54 C67 1.250 . S
O55 Gd1 2.412 . S
O55 C68 1.252 . S
C56 O45 1.284 . S
C56 O48 1.250 . S
C57 H26 0.929 . S
C57 C42 1.437 . S
C57 C58 1.317 . S
C58 H29 0.930 . S
C58 C34 1.431 . S
C58 C57 1.317 . S
C59 Gd0 2.828 . S
C59 O44 1.258 . S
C59 O49 1.252 . S
C59 C60 1.497 . S
C60 C59 1.497 . S
C60 C61 1.395 . S
C60 C62 1.380 . S
C61 C60 1.395 . S
C61 C64 1.398 . S
C61 H76 0.930 . S
C62 C60 1.380 . S
C62 C63 1.391 . S
C62 H77 0.930 . S
C63 C62 1.391 . S
C63 C65 1.387 . S
C64 C61 1.398 . S
C64 C65 1.380 . S
C64 H78 0.930 . S
C65 C63 1.387 . S
C65 C64 1.380 . S
C65 H79 0.930 . S
C66 O46 1.254 . S
C66 O47 1.268 . S
C67 O51 1.284 . S
C67 O54 1.250 . S
C68 Gd1 2.828 . S
C68 O50 1.258 . S
C68 O55 1.252 . S
C68 C69 1.497 . S
C69 C68 1.497 . S
C69 C70 1.395 . S
C69 C71 1.380 . S
C70 C69 1.395 . S
C70 C73 1.398 . S
C70 H80 0.930 . S
C71 C69 1.380 . S
C71 C72 1.391 . S
C71 H81 0.930 . S
C72 C71 1.391 . S
C72 C74 1.387 . S
C73 C70 1.398 . S
C73 C74 1.380 . S
C73 H82 0.930 . S
C74 C72 1.387 . S
C74 C73 1.380 . S
C74 H83 0.930 . S
C75 O52 1.254 . S
C75 O53 1.268 . S
H76 C61 0.930 . S
H77 C62 0.930 . S
H78 C64 0.930 . S
H79 C65 0.930 . S
H80 C70 0.930 . S
H81 C71 0.930 . S
H82 C73 0.930 . S
H83 C74 0.930 . S
Gd84 N115 2.661 . S
Gd84 N121 2.601 . S
Gd84 O128 2.545 . S
Gd84 O129 2.606 . S
Gd84 O131 2.429 . S
Gd84 O132 2.545 . S
Gd84 O133 2.412 . S
Gd84 O135 2.362 . S
Gd84 O136 2.324 . S
Gd84 C143 2.828 . S
Gd85 N94 2.661 . S
Gd85 N98 2.601 . S
Gd85 O129 2.362 . S
Gd85 O130 2.324 . S
Gd85 O134 2.545 . S
Gd85 O135 2.606 . S
Gd85 O137 2.429 . S
Gd85 O138 2.545 . S
Gd85 O139 2.412 . S
Gd85 C152 2.828 . S
C86 C89 1.417 . S
C86 C91 1.431 . S
C86 C92 1.412 . S
C87 C90 1.437 . S
C87 C91 1.317 . S
C87 H106 0.929 . S
C88 C89 1.426 . S
C88 C90 1.413 . S
C88 N98 1.359 . S
C89 C86 1.417 . S
C89 C88 1.426 . S
C89 N94 1.350 . S
C90 C87 1.437 . S
C90 C88 1.413 . S
C90 C100 1.391 . S
C91 C86 1.431 . S
C91 C87 1.317 . S
C91 H102 0.930 . S
C92 C86 1.412 . S
C92 C93 1.355 . S
C92 H104 0.930 . S
C93 C92 1.355 . S
C93 C95 1.402 . S
C93 H105 0.930 . S
N94 Gd85 2.661 . S
N94 C89 1.350 . S
N94 C95 1.307 . S
C95 C93 1.402 . S
C95 N94 1.307 . S
C95 H96 0.930 . S
H96 C95 0.930 . S
C97 N98 1.334 . S
C97 C99 1.394 . S
C97 H101 0.930 . S
N98 Gd85 2.601 . S
N98 C88 1.359 . S
N98 C97 1.334 . S
C99 C97 1.394 . S
C99 C100 1.359 . S
C99 H111 0.930 . S
C100 C90 1.391 . S
C100 C99 1.359 . S
C100 H112 0.929 . S
H101 C97 0.930 . S
H102 C91 0.930 . S
H103 C120 0.930 . S
H104 C92 0.930 . S
H105 C93 0.930 . S
H106 C87 0.929 . S
H107 C125 0.930 . S
H108 C116 0.930 . S
H109 C117 0.930 . S
H110 C141 0.929 . S
H111 C99 0.930 . S
H112 C100 0.929 . S
H113 C142 0.930 . S
H114 C123 0.930 . S
N115 Gd84 2.661 . S
N115 C119 1.350 . S
N115 C120 1.307 . S
C116 H108 0.930 . S
C116 C117 1.355 . S
C116 C118 1.412 . S
C117 H109 0.930 . S
C117 C116 1.355 . S
C117 C120 1.402 . S
C118 C116 1.412 . S
C118 C119 1.417 . S
C118 C142 1.431 . S
C119 N115 1.350 . S
C119 C118 1.417 . S
C119 C122 1.426 . S
C120 H103 0.930 . S
C120 N115 1.307 . S
C120 C117 1.402 . S
N121 Gd84 2.601 . S
N121 C122 1.359 . S
N121 C125 1.334 . S
C122 C119 1.426 . S
C122 N121 1.359 . S
C122 C126 1.413 . S
C123 H114 0.930 . S
C123 C124 1.359 . S
C123 C125 1.394 . S
C124 C123 1.359 . S
C124 C126 1.391 . S
C124 H127 0.929 . S
C125 H107 0.930 . S
C125 N121 1.334 . S
C125 C123 1.394 . S
C126 C122 1.413 . S
C126 C124 1.391 . S
C126 C141 1.437 . S
H127 C124 0.929 . S
O128 Gd84 2.545 . S
O128 C143 1.258 . S
O129 Gd84 2.606 . S
O129 Gd85 2.362 . S
O129 C140 1.284 . S
O130 Gd85 2.324 . S
O130 C150 1.254 . S
O131 Gd84 2.429 . S
O131 C150 1.268 . S
O132 Gd84 2.545 . S
O132 C140 1.250 . S
O133 Gd84 2.412 . S
O133 C143 1.252 . S
O134 Gd85 2.545 . S
O134 C152 1.258 . S
O135 Gd84 2.362 . S
O135 Gd85 2.606 . S
O135 C151 1.284 . S
O136 Gd84 2.324 . S
O136 C159 1.254 . S
O137 Gd85 2.429 . S
O137 C159 1.268 . S
O138 Gd85 2.545 . S
O138 C151 1.250 . S
O139 Gd85 2.412 . S
O139 C152 1.252 . S
C140 O129 1.284 . S
C140 O132 1.250 . S
C141 H110 0.929 . S
C141 C126 1.437 . S
C141 C142 1.317 . S
C142 H113 0.930 . S
C142 C118 1.431 . S
C142 C141 1.317 . S
C143 Gd84 2.828 . S
C143 O128 1.258 . S
C143 O133 1.252 . S
C143 C144 1.497 . S
C144 C143 1.497 . S
C144 C145 1.395 . S
C144 C146 1.380 . S
C145 C144 1.395 . S
C145 C148 1.398 . S
C145 H160 0.930 . S
C146 C144 1.380 . S
C146 C147 1.391 . S
C146 H161 0.930 . S
C147 C146 1.391 . S
C147 C149 1.387 . S
C148 C145 1.398 . S
C148 C149 1.380 . S
C148 H162 0.930 . S
C149 C147 1.387 . S
C149 C148 1.380 . S
C149 H163 0.930 . S
C150 O130 1.254 . S
C150 O131 1.268 . S
C151 O135 1.284 . S
C151 O138 1.250 . S
C152 Gd85 2.828 . S
C152 O134 1.258 . S
C152 O139 1.252 . S
C152 C153 1.497 . S
C153 C152 1.497 . S
C153 C154 1.395 . S
C153 C155 1.380 . S
C154 C153 1.395 . S
C154 C157 1.398 . S
C154 H164 0.930 . S
C155 C153 1.380 . S
C155 C156 1.391 . S
C155 H165 0.930 . S
C156 C155 1.391 . S
C156 C158 1.387 . S
C157 C154 1.398 . S
C157 C158 1.380 . S
C157 H166 0.930 . S
C158 C156 1.387 . S
C158 C157 1.380 . S
C158 H167 0.930 . S
C159 O136 1.254 . S
C159 O137 1.268 . S
H160 C145 0.930 . S
H161 C146 0.930 . S
H162 C148 0.930 . S
H163 C149 0.930 . S
H164 C154 0.930 . S
H165 C155 0.930 . S
H166 C157 0.930 . S
H167 C158 0.930 . S
Gd168 N199 2.661 . S
Gd168 N205 2.601 . S
Gd168 O212 2.545 . S
Gd168 O213 2.606 . S
Gd168 O215 2.429 . S
Gd168 O216 2.545 . S
Gd168 O217 2.412 . S
Gd168 O219 2.362 . S
Gd168 O220 2.324 . S
Gd168 C227 2.828 . S
Gd169 N178 2.661 . S
Gd169 N182 2.601 . S
Gd169 O213 2.362 . S
Gd169 O214 2.324 . S
Gd169 O218 2.545 . S
Gd169 O219 2.606 . S
Gd169 O221 2.429 . S
Gd169 O222 2.545 . S
Gd169 O223 2.412 . S
Gd169 C236 2.828 . S
C170 C173 1.417 . S
C170 C175 1.431 . S
C170 C176 1.412 . S
C171 C174 1.437 . S
C171 C175 1.317 . S
C171 H190 0.929 . S
C172 C173 1.426 . S
C172 C174 1.413 . S
C172 N182 1.359 . S
C173 C170 1.417 . S
C173 C172 1.426 . S
C173 N178 1.350 . S
C174 C171 1.437 . S
C174 C172 1.413 . S
C174 C184 1.391 . S
C175 C170 1.431 . S
C175 C171 1.317 . S
C175 H186 0.930 . S
C176 C170 1.412 . S
C176 C177 1.355 . S
C176 H188 0.930 . S
C177 C176 1.355 . S
C177 C179 1.402 . S
C177 H189 0.930 . S
N178 Gd169 2.661 . S
N178 C173 1.350 . S
N178 C179 1.307 . S
C179 C177 1.402 . S
C179 N178 1.307 . S
C179 H180 0.930 . S
H180 C179 0.930 . S
C181 N182 1.334 . S
C181 C183 1.394 . S
C181 H185 0.930 . S
N182 Gd169 2.601 . S
N182 C172 1.359 . S
N182 C181 1.334 . S
C183 C181 1.394 . S
C183 C184 1.359 . S
C183 H195 0.930 . S
C184 C174 1.391 . S
C184 C183 1.359 . S
C184 H196 0.929 . S
H185 C181 0.930 . S
H186 C175 0.930 . S
H187 C204 0.930 . S
H188 C176 0.930 . S
H189 C177 0.930 . S
H190 C171 0.929 . S
H191 C209 0.930 . S
H192 C200 0.930 . S
H193 C201 0.930 . S
H194 C225 0.929 . S
H195 C183 0.930 . S
H196 C184 0.929 . S
H197 C226 0.930 . S
H198 C207 0.930 . S
N199 Gd168 2.661 . S
N199 C203 1.350 . S
N199 C204 1.307 . S
C200 H192 0.930 . S
C200 C201 1.355 . S
C200 C202 1.412 . S
C201 H193 0.930 . S
C201 C200 1.355 . S
C201 C204 1.402 . S
C202 C200 1.412 . S
C202 C203 1.417 . S
C202 C226 1.431 . S
C203 N199 1.350 . S
C203 C202 1.417 . S
C203 C206 1.426 . S
C204 H187 0.930 . S
C204 N199 1.307 . S
C204 C201 1.402 . S
N205 Gd168 2.601 . S
N205 C206 1.359 . S
N205 C209 1.334 . S
C206 C203 1.426 . S
C206 N205 1.359 . S
C206 C210 1.413 . S
C207 H198 0.930 . S
C207 C208 1.359 . S
C207 C209 1.394 . S
C208 C207 1.359 . S
C208 C210 1.391 . S
C208 H211 0.929 . S
C209 H191 0.930 . S
C209 N205 1.334 . S
C209 C207 1.394 . S
C210 C206 1.413 . S
C210 C208 1.391 . S
C210 C225 1.437 . S
H211 C208 0.929 . S
O212 Gd168 2.545 . S
O212 C227 1.258 . S
O213 Gd168 2.606 . S
O213 Gd169 2.362 . S
O213 C224 1.284 . S
O214 Gd169 2.324 . S
O214 C234 1.254 . S
O215 Gd168 2.429 . S
O215 C234 1.268 . S
O216 Gd168 2.545 . S
O216 C224 1.250 . S
O217 Gd168 2.412 . S
O217 C227 1.252 . S
O218 Gd169 2.545 . S
O218 C236 1.258 . S
O219 Gd168 2.362 . S
O219 Gd169 2.606 . S
O219 C235 1.284 . S
O220 Gd168 2.324 . S
O220 C243 1.254 . S
O221 Gd169 2.429 . S
O221 C243 1.268 . S
O222 Gd169 2.545 . S
O222 C235 1.250 . S
O223 Gd169 2.412 . S
O223 C236 1.252 . S
C224 O213 1.284 . S
C224 O216 1.250 . S
C225 H194 0.929 . S
C225 C210 1.437 . S
C225 C226 1.317 . S
C226 H197 0.930 . S
C226 C202 1.431 . S
C226 C225 1.317 . S
C227 Gd168 2.828 . S
C227 O212 1.258 . S
C227 O217 1.252 . S
C227 C228 1.497 . S
C228 C227 1.497 . S
C228 C229 1.395 . S
C228 C230 1.380 . S
C229 C228 1.395 . S
C229 C232 1.398 . S
C229 H244 0.930 . S
C230 C228 1.380 . S
C230 C231 1.391 . S
C230 H245 0.930 . S
C231 C230 1.391 . S
C231 C233 1.387 . S
C232 C229 1.398 . S
C232 C233 1.380 . S
C232 H246 0.930 . S
C233 C231 1.387 . S
C233 C232 1.380 . S
C233 H247 0.930 . S
C234 O214 1.254 . S
C234 O215 1.268 . S
C235 O219 1.284 . S
C235 O222 1.250 . S
C236 Gd169 2.828 . S
C236 O218 1.258 . S
C236 O223 1.252 . S
C236 C237 1.497 . S
C237 C236 1.497 . S
C237 C238 1.395 . S
C237 C239 1.380 . S
C238 C237 1.395 . S
C238 C241 1.398 . S
C238 H248 0.930 . S
C239 C237 1.380 . S
C239 C240 1.391 . S
C239 H249 0.930 . S
C240 C239 1.391 . S
C240 C242 1.387 . S
C241 C238 1.398 . S
C241 C242 1.380 . S
C241 H250 0.930 . S
C242 C240 1.387 . S
C242 C241 1.380 . S
C242 H251 0.930 . S
C243 O220 1.254 . S
C243 O221 1.268 . S
H244 C229 0.930 . S
H245 C230 0.930 . S
H246 C232 0.930 . S
H247 C233 0.930 . S
H248 C238 0.930 . S
H249 C239 0.930 . S
H250 C241 0.930 . S
H251 C242 0.930 . S
Gd252 N283 2.661 . S
Gd252 N289 2.601 . S
Gd252 O296 2.545 . S
Gd252 O297 2.606 . S
Gd252 O299 2.429 . S
Gd252 O300 2.545 . S
Gd252 O301 2.412 . S
Gd252 O303 2.362 . S
Gd252 O304 2.324 . S
Gd252 C311 2.828 . S
Gd253 N262 2.661 . S
Gd253 N266 2.601 . S
Gd253 O297 2.362 . S
Gd253 O298 2.324 . S
Gd253 O302 2.545 . S
Gd253 O303 2.606 . S
Gd253 O305 2.429 . S
Gd253 O306 2.545 . S
Gd253 O307 2.412 . S
Gd253 C320 2.828 . S
C254 C257 1.417 . S
C254 C259 1.431 . S
C254 C260 1.412 . S
C255 C258 1.437 . S
C255 C259 1.317 . S
C255 H274 0.929 . S
C256 C257 1.426 . S
C256 C258 1.413 . S
C256 N266 1.359 . S
C257 C254 1.417 . S
C257 C256 1.426 . S
C257 N262 1.350 . S
C258 C255 1.437 . S
C258 C256 1.413 . S
C258 C268 1.391 . S
C259 C254 1.431 . S
C259 C255 1.317 . S
C259 H270 0.930 . S
C260 C254 1.412 . S
C260 C261 1.355 . S
C260 H272 0.930 . S
C261 C260 1.355 . S
C261 C263 1.402 . S
C261 H273 0.930 . S
N262 Gd253 2.661 . S
N262 C257 1.350 . S
N262 C263 1.307 . S
C263 C261 1.402 . S
C263 N262 1.307 . S
C263 H264 0.930 . S
H264 C263 0.930 . S
C265 N266 1.334 . S
C265 C267 1.394 . S
C265 H269 0.930 . S
N266 Gd253 2.601 . S
N266 C256 1.359 . S
N266 C265 1.334 . S
C267 C265 1.394 . S
C267 C268 1.359 . S
C267 H279 0.930 . S
C268 C258 1.391 . S
C268 C267 1.359 . S
C268 H280 0.929 . S
H269 C265 0.930 . S
H270 C259 0.930 . S
H271 C288 0.930 . S
H272 C260 0.930 . S
H273 C261 0.930 . S
H274 C255 0.929 . S
H275 C293 0.930 . S
H276 C284 0.930 . S
H277 C285 0.930 . S
H278 C309 0.929 . S
H279 C267 0.930 . S
H280 C268 0.929 . S
H281 C310 0.930 . S
H282 C291 0.930 . S
N283 Gd252 2.661 . S
N283 C287 1.350 . S
N283 C288 1.307 . S
C284 H276 0.930 . S
C284 C285 1.355 . S
C284 C286 1.412 . S
C285 H277 0.930 . S
C285 C284 1.355 . S
C285 C288 1.402 . S
C286 C284 1.412 . S
C286 C287 1.417 . S
C286 C310 1.431 . S
C287 N283 1.350 . S
C287 C286 1.417 . S
C287 C290 1.426 . S
C288 H271 0.930 . S
C288 N283 1.307 . S
C288 C285 1.402 . S
N289 Gd252 2.601 . S
N289 C290 1.359 . S
N289 C293 1.334 . S
C290 C287 1.426 . S
C290 N289 1.359 . S
C290 C294 1.413 . S
C291 H282 0.930 . S
C291 C292 1.359 . S
C291 C293 1.394 . S
C292 C291 1.359 . S
C292 C294 1.391 . S
C292 H295 0.929 . S
C293 H275 0.930 . S
C293 N289 1.334 . S
C293 C291 1.394 . S
C294 C290 1.413 . S
C294 C292 1.391 . S
C294 C309 1.437 . S
H295 C292 0.929 . S
O296 Gd252 2.545 . S
O296 C311 1.258 . S
O297 Gd252 2.606 . S
O297 Gd253 2.362 . S
O297 C308 1.284 . S
O298 Gd253 2.324 . S
O298 C318 1.254 . S
O299 Gd252 2.429 . S
O299 C318 1.268 . S
O300 Gd252 2.545 . S
O300 C308 1.250 . S
O301 Gd252 2.412 . S
O301 C311 1.252 . S
O302 Gd253 2.545 . S
O302 C320 1.258 . S
O303 Gd252 2.362 . S
O303 Gd253 2.606 . S
O303 C319 1.284 . S
O304 Gd252 2.324 . S
O304 C327 1.254 . S
O305 Gd253 2.429 . S
O305 C327 1.268 . S
O306 Gd253 2.545 . S
O306 C319 1.250 . S
O307 Gd253 2.412 . S
O307 C320 1.252 . S
C308 O297 1.284 . S
C308 O300 1.250 . S
C309 H278 0.929 . S
C309 C294 1.437 . S
C309 C310 1.317 . S
C310 H281 0.930 . S
C310 C286 1.431 . S
C310 C309 1.317 . S
C311 Gd252 2.828 . S
C311 O296 1.258 . S
C311 O301 1.252 . S
C311 C312 1.497 . S
C312 C311 1.497 . S
C312 C313 1.395 . S
C312 C314 1.380 . S
C313 C312 1.395 . S
C313 C316 1.398 . S
C313 H328 0.930 . S
C314 C312 1.380 . S
C314 C315 1.391 . S
C314 H329 0.930 . S
C315 C314 1.391 . S
C315 C317 1.387 . S
C316 C313 1.398 . S
C316 C317 1.380 . S
C316 H330 0.930 . S
C317 C315 1.387 . S
C317 C316 1.380 . S
C317 H331 0.930 . S
C318 O298 1.254 . S
C318 O299 1.268 . S
C319 O303 1.284 . S
C319 O306 1.250 . S
C320 Gd253 2.828 . S
C320 O302 1.258 . S
C320 O307 1.252 . S
C320 C321 1.497 . S
C321 C320 1.497 . S
C321 C322 1.395 . S
C321 C323 1.380 . S
C322 C321 1.395 . S
C322 C325 1.398 . S
C322 H332 0.930 . S
C323 C321 1.380 . S
C323 C324 1.391 . S
C323 H333 0.930 . S
C324 C323 1.391 . S
C324 C326 1.387 . S
C325 C322 1.398 . S
C325 C326 1.380 . S
C325 H334 0.930 . S
C326 C324 1.387 . S
C326 C325 1.380 . S
C326 H335 0.930 . S
C327 O304 1.254 . S
C327 O305 1.268 . S
H328 C313 0.930 . S
H329 C314 0.930 . S
H330 C316 0.930 . S
H331 C317 0.930 . S
H332 C322 0.930 . S
H333 C323 0.930 . S
H334 C325 0.930 . S
H335 C326 0.930 . S
Gd336 N367 2.661 . S
Gd336 N373 2.601 . S
Gd336 O380 2.545 . S
Gd336 O381 2.606 . S
Gd336 O383 2.429 . S
Gd336 O384 2.545 . S
Gd336 O385 2.412 . S
Gd336 O387 2.362 . S
Gd336 O388 2.324 . S
Gd336 C395 2.828 . S
Gd337 N346 2.661 . S
Gd337 N350 2.601 . S
Gd337 O381 2.362 . S
Gd337 O382 2.324 . S
Gd337 O386 2.545 . S
Gd337 O387 2.606 . S
Gd337 O389 2.429 . S
Gd337 O390 2.545 . S
Gd337 O391 2.412 . S
Gd337 C404 2.828 . S
C338 C341 1.417 . S
C338 C343 1.431 . S
C338 C344 1.412 . S
C339 C342 1.437 . S
C339 C343 1.317 . S
C339 H358 0.929 . S
C340 C341 1.426 . S
C340 C342 1.413 . S
C340 N350 1.359 . S
C341 C338 1.417 . S
C341 C340 1.426 . S
C341 N346 1.350 . S
C342 C339 1.437 . S
C342 C340 1.413 . S
C342 C352 1.391 . S
C343 C338 1.431 . S
C343 C339 1.317 . S
C343 H354 0.930 . S
C344 C338 1.412 . S
C344 C345 1.355 . S
C344 H356 0.930 . S
C345 C344 1.355 . S
C345 C347 1.402 . S
C345 H357 0.930 . S
N346 Gd337 2.661 . S
N346 C341 1.350 . S
N346 C347 1.307 . S
C347 C345 1.402 . S
C347 N346 1.307 . S
C347 H348 0.930 . S
H348 C347 0.930 . S
C349 N350 1.334 . S
C349 C351 1.394 . S
C349 H353 0.930 . S
N350 Gd337 2.601 . S
N350 C340 1.359 . S
N350 C349 1.334 . S
C351 C349 1.394 . S
C351 C352 1.359 . S
C351 H363 0.930 . S
C352 C342 1.391 . S
C352 C351 1.359 . S
C352 H364 0.929 . S
H353 C349 0.930 . S
H354 C343 0.930 . S
H355 C372 0.930 . S
H356 C344 0.930 . S
H357 C345 0.930 . S
H358 C339 0.929 . S
H359 C377 0.930 . S
H360 C368 0.930 . S
H361 C369 0.930 . S
H362 C393 0.929 . S
H363 C351 0.930 . S
H364 C352 0.929 . S
H365 C394 0.930 . S
H366 C375 0.930 . S
N367 Gd336 2.661 . S
N367 C371 1.350 . S
N367 C372 1.307 . S
C368 H360 0.930 . S
C368 C369 1.355 . S
C368 C370 1.412 . S
C369 H361 0.930 . S
C369 C368 1.355 . S
C369 C372 1.402 . S
C370 C368 1.412 . S
C370 C371 1.417 . S
C370 C394 1.431 . S
C371 N367 1.350 . S
C371 C370 1.417 . S
C371 C374 1.426 . S
C372 H355 0.930 . S
C372 N367 1.307 . S
C372 C369 1.402 . S
N373 Gd336 2.601 . S
N373 C374 1.359 . S
N373 C377 1.334 . S
C374 C371 1.426 . S
C374 N373 1.359 . S
C374 C378 1.413 . S
C375 H366 0.930 . S
C375 C376 1.359 . S
C375 C377 1.394 . S
C376 C375 1.359 . S
C376 C378 1.391 . S
C376 H379 0.929 . S
C377 H359 0.930 . S
C377 N373 1.334 . S
C377 C375 1.394 . S
C378 C374 1.413 . S
C378 C376 1.391 . S
C378 C393 1.437 . S
H379 C376 0.929 . S
O380 Gd336 2.545 . S
O380 C395 1.258 . S
O381 Gd336 2.606 . S
O381 Gd337 2.362 . S
O381 C392 1.284 . S
O382 Gd337 2.324 . S
O382 C402 1.254 . S
O383 Gd336 2.429 . S
O383 C402 1.268 . S
O384 Gd336 2.545 . S
O384 C392 1.250 . S
O385 Gd336 2.412 . S
O385 C395 1.252 . S
O386 Gd337 2.545 . S
O386 C404 1.258 . S
O387 Gd336 2.362 . S
O387 Gd337 2.606 . S
O387 C403 1.284 . S
O388 Gd336 2.324 . S
O388 C411 1.254 . S
O389 Gd337 2.429 . S
O389 C411 1.268 . S
O390 Gd337 2.545 . S
O390 C403 1.250 . S
O391 Gd337 2.412 . S
O391 C404 1.252 . S
C392 O381 1.284 . S
C392 O384 1.250 . S
C393 H362 0.929 . S
C393 C378 1.437 . S
C393 C394 1.317 . S
C394 H365 0.930 . S
C394 C370 1.431 . S
C394 C393 1.317 . S
C395 Gd336 2.828 . S
C395 O380 1.258 . S
C395 O385 1.252 . S
C395 C396 1.497 . S
C396 C395 1.497 . S
C396 C397 1.395 . S
C396 C398 1.380 . S
C397 C396 1.395 . S
C397 C400 1.398 . S
C397 H412 0.930 . S
C398 C396 1.380 . S
C398 C399 1.391 . S
C398 H413 0.930 . S
C399 C398 1.391 . S
C399 C401 1.387 . S
C400 C397 1.398 . S
C400 C401 1.380 . S
C400 H414 0.930 . S
C401 C399 1.387 . S
C401 C400 1.380 . S
C401 H415 0.930 . S
C402 O382 1.254 . S
C402 O383 1.268 . S
C403 O387 1.284 . S
C403 O390 1.250 . S
C404 Gd337 2.828 . S
C404 O386 1.258 . S
C404 O391 1.252 . S
C404 C405 1.497 . S
C405 C404 1.497 . S
C405 C406 1.395 . S
C405 C407 1.380 . S
C406 C405 1.395 . S
C406 C409 1.398 . S
C406 H416 0.930 . S
C407 C405 1.380 . S
C407 C408 1.391 . S
C407 H417 0.930 . S
C408 C407 1.391 . S
C408 C410 1.387 . S
C409 C406 1.398 . S
C409 C410 1.380 . S
C409 H418 0.930 . S
C410 C408 1.387 . S
C410 C409 1.380 . S
C410 H419 0.930 . S
C411 O388 1.254 . S
C411 O389 1.268 . S
H412 C397 0.930 . S
H413 C398 0.930 . S
H414 C400 0.930 . S
H415 C401 0.930 . S
H416 C406 0.930 . S
H417 C407 0.930 . S
H418 C409 0.930 . S
H419 C410 0.930 . S
Gd420 N451 2.661 . S
Gd420 N457 2.601 . S
Gd420 O464 2.545 . S
Gd420 O465 2.606 . S
Gd420 O467 2.429 . S
Gd420 O468 2.545 . S
Gd420 O469 2.412 . S
Gd420 O471 2.362 . S
Gd420 O472 2.324 . S
Gd420 C479 2.828 . S
Gd421 N430 2.661 . S
Gd421 N434 2.601 . S
Gd421 O465 2.362 . S
Gd421 O466 2.324 . S
Gd421 O470 2.545 . S
Gd421 O471 2.606 . S
Gd421 O473 2.429 . S
Gd421 O474 2.545 . S
Gd421 O475 2.412 . S
Gd421 C488 2.828 . S
C422 C425 1.417 . S
C422 C427 1.431 . S
C422 C428 1.412 . S
C423 C426 1.437 . S
C423 C427 1.317 . S
C423 H442 0.929 . S
C424 C425 1.426 . S
C424 C426 1.413 . S
C424 N434 1.359 . S
C425 C422 1.417 . S
C425 C424 1.426 . S
C425 N430 1.350 . S
C426 C423 1.437 . S
C426 C424 1.413 . S
C426 C436 1.391 . S
C427 C422 1.431 . S
C427 C423 1.317 . S
C427 H438 0.930 . S
C428 C422 1.412 . S
C428 C429 1.355 . S
C428 H440 0.930 . S
C429 C428 1.355 . S
C429 C431 1.402 . S
C429 H441 0.930 . S
N430 Gd421 2.661 . S
N430 C425 1.350 . S
N430 C431 1.307 . S
C431 C429 1.402 . S
C431 N430 1.307 . S
C431 H432 0.930 . S
H432 C431 0.930 . S
C433 N434 1.334 . S
C433 C435 1.394 . S
C433 H437 0.930 . S
N434 Gd421 2.601 . S
N434 C424 1.359 . S
N434 C433 1.334 . S
C435 C433 1.394 . S
C435 C436 1.359 . S
C435 H447 0.930 . S
C436 C426 1.391 . S
C436 C435 1.359 . S
C436 H448 0.929 . S
H437 C433 0.930 . S
H438 C427 0.930 . S
H439 C456 0.930 . S
H440 C428 0.930 . S
H441 C429 0.930 . S
H442 C423 0.929 . S
H443 C461 0.930 . S
H444 C452 0.930 . S
H445 C453 0.930 . S
H446 C477 0.929 . S
H447 C435 0.930 . S
H448 C436 0.929 . S
H449 C478 0.930 . S
H450 C459 0.930 . S
N451 Gd420 2.661 . S
N451 C455 1.350 . S
N451 C456 1.307 . S
C452 H444 0.930 . S
C452 C453 1.355 . S
C452 C454 1.412 . S
C453 H445 0.930 . S
C453 C452 1.355 . S
C453 C456 1.402 . S
C454 C452 1.412 . S
C454 C455 1.417 . S
C454 C478 1.431 . S
C455 N451 1.350 . S
C455 C454 1.417 . S
C455 C458 1.426 . S
C456 H439 0.930 . S
C456 N451 1.307 . S
C456 C453 1.402 . S
N457 Gd420 2.601 . S
N457 C458 1.359 . S
N457 C461 1.334 . S
C458 C455 1.426 . S
C458 N457 1.359 . S
C458 C462 1.413 . S
C459 H450 0.930 . S
C459 C460 1.359 . S
C459 C461 1.394 . S
C460 C459 1.359 . S
C460 C462 1.391 . S
C460 H463 0.929 . S
C461 H443 0.930 . S
C461 N457 1.334 . S
C461 C459 1.394 . S
C462 C458 1.413 . S
C462 C460 1.391 . S
C462 C477 1.437 . S
H463 C460 0.929 . S
O464 Gd420 2.545 . S
O464 C479 1.258 . S
O465 Gd420 2.606 . S
O465 Gd421 2.362 . S
O465 C476 1.284 . S
O466 Gd421 2.324 . S
O466 C486 1.254 . S
O467 Gd420 2.429 . S
O467 C486 1.268 . S
O468 Gd420 2.545 . S
O468 C476 1.250 . S
O469 Gd420 2.412 . S
O469 C479 1.252 . S
O470 Gd421 2.545 . S
O470 C488 1.258 . S
O471 Gd420 2.362 . S
O471 Gd421 2.606 . S
O471 C487 1.284 . S
O472 Gd420 2.324 . S
O472 C495 1.254 . S
O473 Gd421 2.429 . S
O473 C495 1.268 . S
O474 Gd421 2.545 . S
O474 C487 1.250 . S
O475 Gd421 2.412 . S
O475 C488 1.252 . S
C476 O465 1.284 . S
C476 O468 1.250 . S
C477 H446 0.929 . S
C477 C462 1.437 . S
C477 C478 1.317 . S
C478 H449 0.930 . S
C478 C454 1.431 . S
C478 C477 1.317 . S
C479 Gd420 2.828 . S
C479 O464 1.258 . S
C479 O469 1.252 . S
C479 C480 1.497 . S
C480 C479 1.497 . S
C480 C481 1.395 . S
C480 C482 1.380 . S
C481 C480 1.395 . S
C481 C484 1.398 . S
C481 H496 0.930 . S
C482 C480 1.380 . S
C482 C483 1.391 . S
C482 H497 0.930 . S
C483 C482 1.391 . S
C483 C485 1.387 . S
C484 C481 1.398 . S
C484 C485 1.380 . S
C484 H498 0.930 . S
C485 C483 1.387 . S
C485 C484 1.380 . S
C485 H499 0.930 . S
C486 O466 1.254 . S
C486 O467 1.268 . S
C487 O471 1.284 . S
C487 O474 1.250 . S
C488 Gd421 2.828 . S
C488 O470 1.258 . S
C488 O475 1.252 . S
C488 C489 1.497 . S
C489 C488 1.497 . S
C489 C490 1.395 . S
C489 C491 1.380 . S
C490 C489 1.395 . S
C490 C493 1.398 . S
C490 H500 0.930 . S
C491 C489 1.380 . S
C491 C492 1.391 . S
C491 H501 0.930 . S
C492 C491 1.391 . S
C492 C494 1.387 . S
C493 C490 1.398 . S
C493 C494 1.380 . S
C493 H502 0.930 . S
C494 C492 1.387 . S
C494 C493 1.380 . S
C494 H503 0.930 . S
C495 O472 1.254 . S
C495 O473 1.268 . S
H496 C481 0.930 . S
H497 C482 0.930 . S
H498 C484 0.930 . S
H499 C485 0.930 . S
H500 C490 0.930 . S
H501 C491 0.930 . S
H502 C493 0.930 . S
H503 C494 0.930 . S
Gd504 N535 2.661 . S
Gd504 N541 2.601 . S
Gd504 O548 2.545 . S
Gd504 O549 2.606 . S
Gd504 O551 2.429 . S
Gd504 O552 2.545 . S
Gd504 O553 2.412 . S
Gd504 O555 2.362 . S
Gd504 O556 2.324 . S
Gd504 C563 2.828 . S
Gd505 N514 2.661 . S
Gd505 N518 2.601 . S
Gd505 O549 2.362 . S
Gd505 O550 2.324 . S
Gd505 O554 2.545 . S
Gd505 O555 2.606 . S
Gd505 O557 2.429 . S
Gd505 O558 2.545 . S
Gd505 O559 2.412 . S
Gd505 C572 2.828 . S
C506 C509 1.417 . S
C506 C511 1.431 . S
C506 C512 1.412 . S
C507 C510 1.437 . S
C507 C511 1.317 . S
C507 H526 0.929 . S
C508 C509 1.426 . S
C508 C510 1.413 . S
C508 N518 1.359 . S
C509 C506 1.417 . S
C509 C508 1.426 . S
C509 N514 1.350 . S
C510 C507 1.437 . S
C510 C508 1.413 . S
C510 C520 1.391 . S
C511 C506 1.431 . S
C511 C507 1.317 . S
C511 H522 0.930 . S
C512 C506 1.412 . S
C512 C513 1.355 . S
C512 H524 0.930 . S
C513 C512 1.355 . S
C513 C515 1.402 . S
C513 H525 0.930 . S
N514 Gd505 2.661 . S
N514 C509 1.350 . S
N514 C515 1.307 . S
C515 C513 1.402 . S
C515 N514 1.307 . S
C515 H516 0.930 . S
H516 C515 0.930 . S
C517 N518 1.334 . S
C517 C519 1.394 . S
C517 H521 0.930 . S
N518 Gd505 2.601 . S
N518 C508 1.359 . S
N518 C517 1.334 . S
C519 C517 1.394 . S
C519 C520 1.359 . S
C519 H531 0.930 . S
C520 C510 1.391 . S
C520 C519 1.359 . S
C520 H532 0.929 . S
H521 C517 0.930 . S
H522 C511 0.930 . S
H523 C540 0.930 . S
H524 C512 0.930 . S
H525 C513 0.930 . S
H526 C507 0.929 . S
H527 C545 0.930 . S
H528 C536 0.930 . S
H529 C537 0.930 . S
H530 C561 0.929 . S
H531 C519 0.930 . S
H532 C520 0.929 . S
H533 C562 0.930 . S
H534 C543 0.930 . S
N535 Gd504 2.661 . S
N535 C539 1.350 . S
N535 C540 1.307 . S
C536 H528 0.930 . S
C536 C537 1.355 . S
C536 C538 1.412 . S
C537 H529 0.930 . S
C537 C536 1.355 . S
C537 C540 1.402 . S
C538 C536 1.412 . S
C538 C539 1.417 . S
C538 C562 1.431 . S
C539 N535 1.350 . S
C539 C538 1.417 . S
C539 C542 1.426 . S
C540 H523 0.930 . S
C540 N535 1.307 . S
C540 C537 1.402 . S
N541 Gd504 2.601 . S
N541 C542 1.359 . S
N541 C545 1.334 . S
C542 C539 1.426 . S
C542 N541 1.359 . S
C542 C546 1.413 . S
C543 H534 0.930 . S
C543 C544 1.359 . S
C543 C545 1.394 . S
C544 C543 1.359 . S
C544 C546 1.391 . S
C544 H547 0.929 . S
C545 H527 0.930 . S
C545 N541 1.334 . S
C545 C543 1.394 . S
C546 C542 1.413 . S
C546 C544 1.391 . S
C546 C561 1.437 . S
H547 C544 0.929 . S
O548 Gd504 2.545 . S
O548 C563 1.258 . S
O549 Gd504 2.606 . S
O549 Gd505 2.362 . S
O549 C560 1.284 . S
O550 Gd505 2.324 . S
O550 C570 1.254 . S
O551 Gd504 2.429 . S
O551 C570 1.268 . S
O552 Gd504 2.545 . S
O552 C560 1.250 . S
O553 Gd504 2.412 . S
O553 C563 1.252 . S
O554 Gd505 2.545 . S
O554 C572 1.258 . S
O555 Gd504 2.362 . S
O555 Gd505 2.606 . S
O555 C571 1.284 . S
O556 Gd504 2.324 . S
O556 C579 1.254 . S
O557 Gd505 2.429 . S
O557 C579 1.268 . S
O558 Gd505 2.545 . S
O558 C571 1.250 . S
O559 Gd505 2.412 . S
O559 C572 1.252 . S
C560 O549 1.284 . S
C560 O552 1.250 . S
C561 H530 0.929 . S
C561 C546 1.437 . S
C561 C562 1.317 . S
C562 H533 0.930 . S
C562 C538 1.431 . S
C562 C561 1.317 . S
C563 Gd504 2.828 . S
C563 O548 1.258 . S
C563 O553 1.252 . S
C563 C564 1.497 . S
C564 C563 1.497 . S
C564 C565 1.395 . S
C564 C566 1.380 . S
C565 C564 1.395 . S
C565 C568 1.398 . S
C565 H580 0.930 . S
C566 C564 1.380 . S
C566 C567 1.391 . S
C566 H581 0.930 . S
C567 C566 1.391 . S
C567 C569 1.387 . S
C568 C565 1.398 . S
C568 C569 1.380 . S
C568 H582 0.930 . S
C569 C567 1.387 . S
C569 C568 1.380 . S
C569 H583 0.930 . S
C570 O550 1.254 . S
C570 O551 1.268 . S
C571 O555 1.284 . S
C571 O558 1.250 . S
C572 Gd505 2.828 . S
C572 O554 1.258 . S
C572 O559 1.252 . S
C572 C573 1.497 . S
C573 C572 1.497 . S
C573 C574 1.395 . S
C573 C575 1.380 . S
C574 C573 1.395 . S
C574 C577 1.398 . S
C574 H584 0.930 . S
C575 C573 1.380 . S
C575 C576 1.391 . S
C575 H585 0.930 . S
C576 C575 1.391 . S
C576 C578 1.387 . S
C577 C574 1.398 . S
C577 C578 1.380 . S
C577 H586 0.930 . S
C578 C576 1.387 . S
C578 C577 1.380 . S
C578 H587 0.930 . S
C579 O556 1.254 . S
C579 O557 1.268 . S
H580 C565 0.930 . S
H581 C566 0.930 . S
H582 C568 0.930 . S
H583 C569 0.930 . S
H584 C574 0.930 . S
H585 C575 0.930 . S
H586 C577 0.930 . S
H587 C578 0.930 . S
Gd588 N619 2.661 . S
Gd588 N625 2.601 . S
Gd588 O632 2.545 . S
Gd588 O633 2.606 . S
Gd588 O635 2.429 . S
Gd588 O636 2.545 . S
Gd588 O637 2.412 . S
Gd588 O639 2.362 . S
Gd588 O640 2.324 . S
Gd588 C647 2.828 . S
Gd589 N598 2.661 . S
Gd589 N602 2.601 . S
Gd589 O633 2.362 . S
Gd589 O634 2.324 . S
Gd589 O638 2.545 . S
Gd589 O639 2.606 . S
Gd589 O641 2.429 . S
Gd589 O642 2.545 . S
Gd589 O643 2.412 . S
Gd589 C656 2.828 . S
C590 C593 1.417 . S
C590 C595 1.431 . S
C590 C596 1.412 . S
C591 C594 1.437 . S
C591 C595 1.317 . S
C591 H610 0.929 . S
C592 C593 1.426 . S
C592 C594 1.413 . S
C592 N602 1.359 . S
C593 C590 1.417 . S
C593 C592 1.426 . S
C593 N598 1.350 . S
C594 C591 1.437 . S
C594 C592 1.413 . S
C594 C604 1.391 . S
C595 C590 1.431 . S
C595 C591 1.317 . S
C595 H606 0.930 . S
C596 C590 1.412 . S
C596 C597 1.355 . S
C596 H608 0.930 . S
C597 C596 1.355 . S
C597 C599 1.402 . S
C597 H609 0.930 . S
N598 Gd589 2.661 . S
N598 C593 1.350 . S
N598 C599 1.307 . S
C599 C597 1.402 . S
C599 N598 1.307 . S
C599 H600 0.930 . S
H600 C599 0.930 . S
C601 N602 1.334 . S
C601 C603 1.394 . S
C601 H605 0.930 . S
N602 Gd589 2.601 . S
N602 C592 1.359 . S
N602 C601 1.334 . S
C603 C601 1.394 . S
C603 C604 1.359 . S
C603 H615 0.930 . S
C604 C594 1.391 . S
C604 C603 1.359 . S
C604 H616 0.929 . S
H605 C601 0.930 . S
H606 C595 0.930 . S
H607 C624 0.930 . S
H608 C596 0.930 . S
H609 C597 0.930 . S
H610 C591 0.929 . S
H611 C629 0.930 . S
H612 C620 0.930 . S
H613 C621 0.930 . S
H614 C645 0.929 . S
H615 C603 0.930 . S
H616 C604 0.929 . S
H617 C646 0.930 . S
H618 C627 0.930 . S
N619 Gd588 2.661 . S
N619 C623 1.350 . S
N619 C624 1.307 . S
C620 H612 0.930 . S
C620 C621 1.355 . S
C620 C622 1.412 . S
C621 H613 0.930 . S
C621 C620 1.355 . S
C621 C624 1.402 . S
C622 C620 1.412 . S
C622 C623 1.417 . S
C622 C646 1.431 . S
C623 N619 1.350 . S
C623 C622 1.417 . S
C623 C626 1.426 . S
C624 H607 0.930 . S
C624 N619 1.307 . S
C624 C621 1.402 . S
N625 Gd588 2.601 . S
N625 C626 1.359 . S
N625 C629 1.334 . S
C626 C623 1.426 . S
C626 N625 1.359 . S
C626 C630 1.413 . S
C627 H618 0.930 . S
C627 C628 1.359 . S
C627 C629 1.394 . S
C628 C627 1.359 . S
C628 C630 1.391 . S
C628 H631 0.929 . S
C629 H611 0.930 . S
C629 N625 1.334 . S
C629 C627 1.394 . S
C630 C626 1.413 . S
C630 C628 1.391 . S
C630 C645 1.437 . S
H631 C628 0.929 . S
O632 Gd588 2.545 . S
O632 C647 1.258 . S
O633 Gd588 2.606 . S
O633 Gd589 2.362 . S
O633 C644 1.284 . S
O634 Gd589 2.324 . S
O634 C654 1.254 . S
O635 Gd588 2.429 . S
O635 C654 1.268 . S
O636 Gd588 2.545 . S
O636 C644 1.250 . S
O637 Gd588 2.412 . S
O637 C647 1.252 . S
O638 Gd589 2.545 . S
O638 C656 1.258 . S
O639 Gd588 2.362 . S
O639 Gd589 2.606 . S
O639 C655 1.284 . S
O640 Gd588 2.324 . S
O640 C663 1.254 . S
O641 Gd589 2.429 . S
O641 C663 1.268 . S
O642 Gd589 2.545 . S
O642 C655 1.250 . S
O643 Gd589 2.412 . S
O643 C656 1.252 . S
C644 O633 1.284 . S
C644 O636 1.250 . S
C645 H614 0.929 . S
C645 C630 1.437 . S
C645 C646 1.317 . S
C646 H617 0.930 . S
C646 C622 1.431 . S
C646 C645 1.317 . S
C647 Gd588 2.828 . S
C647 O632 1.258 . S
C647 O637 1.252 . S
C647 C648 1.497 . S
C648 C647 1.497 . S
C648 C649 1.395 . S
C648 C650 1.380 . S
C649 C648 1.395 . S
C649 C652 1.398 . S
C649 H664 0.930 . S
C650 C648 1.380 . S
C650 C651 1.391 . S
C650 H665 0.930 . S
C651 C650 1.391 . S
C651 C653 1.387 . S
C652 C649 1.398 . S
C652 C653 1.380 . S
C652 H666 0.930 . S
C653 C651 1.387 . S
C653 C652 1.380 . S
C653 H667 0.930 . S
C654 O634 1.254 . S
C654 O635 1.268 . S
C655 O639 1.284 . S
C655 O642 1.250 . S
C656 Gd589 2.828 . S
C656 O638 1.258 . S
C656 O643 1.252 . S
C656 C657 1.497 . S
C657 C656 1.497 . S
C657 C658 1.395 . S
C657 C659 1.380 . S
C658 C657 1.395 . S
C658 C661 1.398 . S
C658 H668 0.930 . S
C659 C657 1.380 . S
C659 C660 1.391 . S
C659 H669 0.930 . S
C660 C659 1.391 . S
C660 C662 1.387 . S
C661 C658 1.398 . S
C661 C662 1.380 . S
C661 H670 0.930 . S
C662 C660 1.387 . S
C662 C661 1.380 . S
C662 H671 0.930 . S
C663 O640 1.254 . S
C663 O641 1.268 . S
H664 C649 0.930 . S
H665 C650 0.930 . S
H666 C652 0.930 . S
H667 C653 0.930 . S
H668 C658 0.930 . S
H669 C659 0.930 . S
H670 C661 0.930 . S
H671 C662 0.930 . S
Co672 O675 2.042 . S
Co672 O682 2.264 . S
Co672 O701 2.286 . S
Co672 O702 2.069 . S
Co672 O704 2.015 1_455 S
Co673 O675 2.122 . S
Co673 O681 2.073 . S
Co673 O682 2.327 . S
Co673 O683 1.976 1_455 S
Co674 O675 2.087 1_545 S
Co674 O677 2.087 1_455 S
Co674 O684 2.111 1_445 S
Co674 O685 2.143 . S
Co674 O689 2.111 . S
Co674 O703 2.143 1_445 S
O675 Co672 2.042 . S
O675 Co673 2.122 . S
O675 Co674 2.087 1_565 S
O675 H676 0.980 1_565 S
H676 O675 0.980 1_545 S
O677 Co674 2.087 1_655 S
O677 Co678 2.042 . S
O677 Co679 2.122 . S
O677 H680 0.980 . S
Co678 O677 2.042 . S
Co678 O686 2.286 . S
Co678 O687 2.069 . S
Co678 O688 2.015 1_655 S
Co678 O691 2.264 . S
Co679 O677 2.122 . S
Co679 O690 1.976 1_655 S
Co679 O691 2.327 . S
Co679 O692 2.073 . S
H680 O677 0.980 . S
O681 Co673 2.073 . S
O681 C696 1.245 . S
O682 Co672 2.264 . S
O682 Co673 2.327 . S
O682 C696 1.257 . S
O683 Co673 1.976 1_655 S
O683 C695 1.251 . S
O684 Co674 2.111 1_665 S
O684 C695 1.274 . S
O685 Co674 2.143 . S
O685 C698 1.246 . S
O686 Co678 2.286 . S
O686 C697 1.259 . S
O687 Co678 2.069 . S
O687 C697 1.289 . S
O688 Co678 2.015 1_455 S
O688 C698 1.257 . S
O689 Co674 2.111 . S
O689 C699 1.274 . S
O690 Co679 1.976 1_455 S
O690 C699 1.251 . S
O691 Co678 2.264 . S
O691 Co679 2.327 . S
O691 C700 1.257 . S
O692 Co679 2.073 . S
O692 C700 1.245 . S
C693 O701 1.259 . S
C693 O702 1.289 . S
C694 O703 1.246 . S
C694 O704 1.257 . S
C695 O683 1.251 . S
C695 O684 1.274 . S
C696 O681 1.245 . S
C696 O682 1.257 . S
C697 O686 1.259 . S
C697 O687 1.289 . S
C698 O685 1.246 . S
C698 O688 1.257 . S
C699 O689 1.274 . S
C699 O690 1.251 . S
C700 O691 1.257 . S
C700 O692 1.245 . S
O701 Co672 2.286 . S
O701 C693 1.259 . S
O702 Co672 2.069 . S
O702 C693 1.289 . S
O703 Co674 2.143 1_665 S
O703 C694 1.246 . S
O704 Co672 2.015 1_655 S
O704 C694 1.257 . S
Co705 O708 2.042 1_566 S
Co705 O715 2.264 1_556 S
Co705 O734 2.286 . S
Co705 O735 2.069 . S
Co705 O737 2.015 . S
Co706 O708 2.122 1_565 S
Co706 O714 2.073 . S
Co706 O715 2.327 . S
Co706 O716 1.976 . S
Co707 O708 2.087 . S
Co707 O710 2.087 1_554 S
Co707 O717 2.111 . S
Co707 O718 2.143 . S
Co707 O722 2.111 1_554 S
Co707 O736 2.143 1_554 S
O708 Co705 2.042 1_544 S
O708 Co706 2.122 1_545 S
O708 Co707 2.087 . S
O708 H709 0.980 . S
H709 O708 0.980 . S
O710 Co707 2.087 1_556 S
O710 Co711 2.042 1_556 S
O710 Co712 2.122 . S
O710 H713 0.980 . S
Co711 O710 2.042 1_554 S
Co711 O719 2.286 . S
Co711 O720 2.069 . S
Co711 O721 2.015 . S
Co711 O724 2.264 1_554 S
Co712 O710 2.122 . S
Co712 O723 1.976 . S
Co712 O724 2.327 . S
Co712 O725 2.073 . S
H713 O710 0.980 . S
O714 Co706 2.073 . S
O714 C729 1.245 . S
O715 Co705 2.264 1_554 S
O715 Co706 2.327 . S
O715 C729 1.257 . S
O716 Co706 1.976 . S
O716 C728 1.251 . S
O717 Co707 2.111 . S
O717 C728 1.274 1_545 S
O718 Co707 2.143 . S
O718 C731 1.246 . S
O719 Co711 2.286 . S
O719 C730 1.259 . S
O720 Co711 2.069 . S
O720 C730 1.289 . S
O721 Co711 2.015 . S
O721 C731 1.257 . S
O722 Co707 2.111 1_556 S
O722 C732 1.274 . S
O723 Co712 1.976 . S
O723 C732 1.251 . S
O724 Co711 2.264 1_556 S
O724 Co712 2.327 . S
O724 C733 1.257 . S
O725 Co712 2.073 . S
O725 C733 1.245 . S
C726 O734 1.259 . S
C726 O735 1.289 . S
C727 O736 1.246 1_565 S
C727 O737 1.257 . S
C728 O716 1.251 . S
C728 O717 1.274 1_565 S
C729 O714 1.245 . S
C729 O715 1.257 . S
C730 O719 1.259 . S
C730 O720 1.289 . S
C731 O718 1.246 . S
C731 O721 1.257 . S
C732 O722 1.274 . S
C732 O723 1.251 . S
C733 O724 1.257 . S
C733 O725 1.245 . S
O734 Co705 2.286 . S
O734 C726 1.259 . S
O735 Co705 2.069 . S
O735 C726 1.289 . S
O736 Co707 2.143 1_556 S
O736 C727 1.246 1_545 S
O737 Co705 2.015 . S
O737 C727 1.257 . S
Co738 O741 2.042 . S
Co738 O748 2.264 . S
Co738 O767 2.286 . S
Co738 O768 2.069 . S
Co738 O770 2.015 1_455 S
Co739 O741 2.122 . S
Co739 O747 2.073 . S
Co739 O748 2.327 . S
Co739 O749 1.976 1_455 S
Co740 O741 2.120 . S
Co740 O743 2.054 1_455 S
Co740 O750 2.091 1_455 S
Co740 O751 2.155 . S
Co740 O755 2.132 . S
Co740 O769 2.132 1_455 S
O741 Co738 2.042 . S
O741 Co739 2.122 . S
O741 Co740 2.120 . S
O741 H742 0.980 . S
H742 O741 0.980 . S
O743 Co740 2.054 1_655 S
O743 Co744 2.042 . S
O743 Co745 2.122 1_554 S
O743 H746 0.980 . S
Co744 O743 2.042 . S
Co744 O752 2.286 . S
Co744 O753 2.069 . S
Co744 O754 2.015 1_655 S
Co744 O757 2.264 . S
Co745 O743 2.122 1_556 S
Co745 O756 1.976 1_655 S
Co745 O757 2.327 1_556 S
Co745 O758 2.073 . S
H746 O743 0.980 . S
O747 Co739 2.073 . S
O747 C762 1.245 . S
O748 Co738 2.264 . S
O748 Co739 2.327 . S
O748 C762 1.257 . S
O749 Co739 1.976 1_655 S
O749 C761 1.251 . S
O750 Co740 2.091 1_655 S
O750 C761 1.274 . S
O751 Co740 2.155 . S
O751 C764 1.246 . S
O752 Co744 2.286 . S
O752 C763 1.259 . S
O753 Co744 2.069 . S
O753 C763 1.289 . S
O754 Co744 2.015 1_455 S
O754 C764 1.257 . S
O755 Co740 2.132 . S
O755 C765 1.274 . S
O756 Co745 1.976 1_455 S
O756 C765 1.251 1_556 S
O757 Co744 2.264 . S
O757 Co745 2.327 1_554 S
O757 C766 1.264 . S
O758 Co745 2.073 . S
O758 C766 1.235 1_556 S
C759 O767 1.259 . S
C759 O768 1.289 . S
C760 O769 1.246 . S
C760 O770 1.257 . S
C761 O749 1.251 . S
C761 O750 1.274 . S
C762 O747 1.245 . S
C762 O748 1.257 . S
C763 O752 1.259 . S
C763 O753 1.289 . S
C764 O751 1.246 . S
C764 O754 1.257 . S
C765 O755 1.274 . S
C765 O756 1.251 1_554 S
C766 O757 1.264 . S
C766 O758 1.235 1_554 S
O767 Co738 2.286 . S
O767 C759 1.259 . S
O768 Co738 2.069 . S
O768 C759 1.289 . S
O769 Co740 2.132 1_655 S
O769 C760 1.246 . S
O770 Co738 2.015 1_655 S
O770 C760 1.257 . S
Co771 O774 2.042 . S
Co771 O781 2.264 . S
Co771 O800 2.286 1_554 S
Co771 O801 2.069 1_554 S
Co771 O803 2.015 1_554 S
Co772 O774 2.122 . S
Co772 O780 2.073 . S
Co772 O781 2.327 . S
Co772 O782 1.976 . S
Co773 O774 2.087 . S
Co773 O776 2.087 . S
Co773 O783 2.111 . S
Co773 O784 2.143 . S
Co773 O788 2.111 1_554 S
Co773 O802 2.143 1_554 S
O774 Co771 2.042 . S
O774 Co772 2.122 . S
O774 Co773 2.087 . S
O774 H775 0.980 . S
H775 O774 0.980 . S
O776 Co773 2.087 . S
O776 Co777 2.042 . S
O776 Co778 2.122 1_554 S
O776 H779 0.980 . S
Co777 O776 2.042 . S
Co777 O785 2.286 . S
Co777 O786 2.069 . S
Co777 O787 2.015 . S
Co777 O790 2.264 1_554 S
Co778 O776 2.122 1_556 S
Co778 O789 1.976 . S
Co778 O790 2.327 . S
Co778 O791 2.073 . S
H779 O776 0.980 . S
O780 Co772 2.073 . S
O780 C795 1.245 . S
O781 Co771 2.264 . S
O781 Co772 2.327 . S
O781 C795 1.257 . S
O782 Co772 1.976 . S
O782 C794 1.251 . S
O783 Co773 2.111 . S
O783 C794 1.274 . S
O784 Co773 2.143 . S
O784 C797 1.246 . S
O785 Co777 2.286 . S
O785 C796 1.259 . S
O786 Co777 2.069 . S
O786 C796 1.289 . S
O787 Co777 2.015 . S
O787 C797 1.257 . S
O788 Co773 2.111 1_556 S
O788 C798 1.274 . S
O789 Co778 1.976 . S
O789 C798 1.251 . S
O790 Co777 2.264 1_556 S
O790 Co778 2.327 . S
O790 C799 1.257 . S
O791 Co778 2.073 . S
O791 C799 1.245 . S
C792 O800 1.259 . S
C792 O801 1.289 . S
C793 O802 1.246 . S
C793 O803 1.257 . S
C794 O782 1.251 . S
C794 O783 1.274 . S
C795 O780 1.245 . S
C795 O781 1.257 . S
C796 O785 1.259 . S
C796 O786 1.289 . S
C797 O784 1.246 . S
C797 O787 1.257 . S
C798 O788 1.274 . S
C798 O789 1.251 . S
C799 O790 1.257 . S
C799 O791 1.245 . S
O800 Co771 2.286 1_556 S
O800 C792 1.259 . S
O801 Co771 2.069 1_556 S
O801 C792 1.289 . S
O802 Co773 2.143 1_556 S
O802 C793 1.246 . S
O803 Co771 2.015 1_556 S
O803 C793 1.257 . S
Co804 O807 2.042 . S
Co804 O814 2.264 . S
Co804 O833 2.286 . S
Co804 O834 2.069 . S
Co804 O836 2.015 . S
Co805 O807 2.122 . S
Co805 O813 2.073 . S
Co805 O814 2.327 . S
Co805 O815 1.976 . S
Co806 O807 2.087 . S
Co806 O809 2.087 . S
Co806 O816 2.111 . S
Co806 O817 2.143 1_455 S
Co806 O821 2.111 . S
Co806 O835 2.143 . S
O807 Co804 2.042 . S
O807 Co805 2.122 . S
O807 Co806 2.087 . S
O807 H808 0.980 . S
H808 O807 0.980 . S
O809 Co806 2.087 . S
O809 Co810 2.042 1_455 S
O809 Co811 2.122 1_455 S
O809 H812 0.980 . S
Co810 O809 2.042 1_655 S
Co810 O818 2.286 . S
Co810 O819 2.069 . S
Co810 O820 2.015 . S
Co810 O823 2.264 . S
Co811 O809 2.122 1_655 S
Co811 O822 1.976 . S
Co811 O823 2.327 . S
Co811 O824 2.073 . S
H812 O809 0.980 . S
O813 Co805 2.073 . S
O813 C828 1.245 . S
O814 Co804 2.264 . S
O814 Co805 2.327 . S
O814 C828 1.257 . S
O815 Co805 1.976 . S
O815 C827 1.251 . S
O816 Co806 2.111 . S
O816 C827 1.274 . S
O817 Co806 2.143 1_655 S
O817 C830 1.246 . S
O818 Co810 2.286 . S
O818 C829 1.259 . S
O819 Co810 2.069 . S
O819 C829 1.289 . S
O820 Co810 2.015 . S
O820 C830 1.257 . S
O821 Co806 2.111 . S
O821 C831 1.274 1_455 S
O822 Co811 1.976 . S
O822 C831 1.251 . S
O823 Co810 2.264 . S
O823 Co811 2.327 . S
O823 C832 1.257 . S
O824 Co811 2.073 . S
O824 C832 1.245 . S
C825 O833 1.259 . S
C825 O834 1.289 . S
C826 O835 1.246 . S
C826 O836 1.257 . S
C827 O815 1.251 . S
C827 O816 1.274 . S
C828 O813 1.245 . S
C828 O814 1.257 . S
C829 O818 1.259 . S
C829 O819 1.289 . S
C830 O817 1.246 . S
C830 O820 1.257 . S
C831 O821 1.274 1_655 S
C831 O822 1.251 . S
C832 O823 1.257 . S
C832 O824 1.245 . S
O833 Co804 2.286 . S
O833 C825 1.259 . S
O834 Co804 2.069 . S
O834 C825 1.289 . S
O835 Co806 2.143 . S
O835 C826 1.246 . S
O836 Co804 2.015 . S
O836 C826 1.257 . S
Co837 O840 2.042 . S
Co837 O847 2.264 . S
Co837 O866 2.286 . S
Co837 O867 2.069 . S
Co837 O869 2.015 1_565 S
Co838 O840 2.122 . S
Co838 O846 2.104 . S
Co838 O847 2.342 . S
Co838 O848 1.949 1_565 S
Co839 O840 2.087 1_545 S
Co839 O842 2.087 . S
Co839 O849 2.111 . S
Co839 O850 2.143 1_545 S
Co839 O854 2.111 1_545 S
Co839 O868 2.143 . S
O840 Co837 2.042 . S
O840 Co838 2.122 . S
O840 Co839 2.087 1_565 S
O840 H841 0.980 . S
H841 O840 0.980 . S
O842 Co839 2.087 . S
O842 Co843 2.042 . S
O842 Co844 2.122 . S
O842 H845 0.980 . S
Co843 O842 2.042 . S
Co843 O851 2.286 . S
Co843 O852 2.069 . S
Co843 O853 2.015 1_545 S
Co843 O856 2.264 . S
Co844 O842 2.122 . S
Co844 O855 1.976 1_545 S
Co844 O856 2.327 . S
Co844 O857 2.073 . S
H845 O842 0.980 . S
O846 Co838 2.104 . S
O846 C861 1.245 . S
O847 Co837 2.264 . S
O847 Co838 2.342 . S
O847 C861 1.257 . S
O848 Co838 1.949 1_545 S
O848 C860 1.251 . S
O849 Co839 2.111 . S
O849 C860 1.274 . S
O850 Co839 2.143 1_565 S
O850 C863 1.246 . S
O851 Co843 2.286 . S
O851 C862 1.259 . S
O852 Co843 2.069 . S
O852 C862 1.289 . S
O853 Co843 2.015 1_565 S
O853 C863 1.257 . S
O854 Co839 2.111 1_565 S
O854 C864 1.274 . S
O855 Co844 1.976 1_565 S
O855 C864 1.251 . S
O856 Co843 2.264 . S
O856 Co844 2.327 . S
O856 C865 1.257 . S
O857 Co844 2.073 . S
O857 C865 1.245 . S
C858 O866 1.259 . S
C858 O867 1.289 . S
C859 O868 1.246 . S
C859 O869 1.257 . S
C860 O848 1.251 . S
C860 O849 1.274 . S
C861 O846 1.245 . S
C861 O847 1.257 . S
C862 O851 1.259 . S
C862 O852 1.289 . S
C863 O850 1.246 . S
C863 O853 1.257 . S
C864 O854 1.274 . S
C864 O855 1.251 . S
C865 O856 1.257 . S
C865 O857 1.245 . S
O866 Co837 2.286 . S
O866 C858 1.259 . S
O867 Co837 2.069 . S
O867 C858 1.289 . S
O868 Co839 2.143 . S
O868 C859 1.246 . S
O869 Co837 2.015 1_545 S
O869 C859 1.257 . S
C870 C871 1.391 . S
C870 C872 1.394 . S
C870 H886 0.931 . S
C871 C870 1.391 . S
C871 C875 1.376 . S
C872 C870 1.394 . S
C872 C873 1.369 . S
C872 C876 1.531 . S
C873 C872 1.369 . S
C873 C874 1.410 . S
C873 C881 1.503 . S
C874 C873 1.410 . S
C874 C875 1.392 . S
C874 C877 1.511 . S
C875 C871 1.376 . S
C875 C874 1.392 . S
C875 H887 0.929 . S
C876 C872 1.531 . S
C876 H888 0.960 . S
C876 H889 0.962 . S
C876 H890 0.960 . S
C877 C874 1.511 . S
C877 H891 0.961 . S
C877 H892 0.961 . S
C877 H893 0.961 . S
C878 C879 1.370 . S
C878 C880 1.363 . S
C878 H894 0.931 . S
C879 C878 1.370 . S
C879 C883 1.408 . S
C880 C878 1.363 . S
C880 C881 1.370 . S
C880 C884 1.524 . S
C881 C873 1.503 . S
C881 C880 1.370 . S
C881 C882 1.403 . S
C882 C881 1.403 . S
C882 C883 1.404 . S
C882 C885 1.539 . S
C883 C879 1.408 . S
C883 C882 1.404 . S
C883 H895 0.930 . S
C884 C880 1.524 . S
C884 H896 0.956 . S
C884 H897 0.961 . S
C884 H898 0.961 . S
C885 C882 1.539 . S
C885 H899 0.958 . S
C885 H900 0.961 . S
C885 H901 0.960 . S
H886 C870 0.931 . S
H887 C875 0.929 . S
H888 C876 0.960 . S
H889 C876 0.962 . S
H890 C876 0.960 . S
H891 C877 0.961 . S
H892 C877 0.961 . S
H893 C877 0.961 . S
H894 C878 0.931 . S
H895 C883 0.930 . S
H896 C884 0.956 . S
H897 C884 0.961 . S
H898 C884 0.961 . S
H899 C885 0.958 . S
H900 C885 0.961 . S
H901 C885 0.960 . S
C902 C903 1.391 . S
C902 C904 1.394 . S
C902 H918 0.931 . S
C903 C902 1.391 . S
C903 C907 1.376 . S
C904 C902 1.394 . S
C904 C905 1.369 . S
C904 C908 1.531 . S
C905 C904 1.369 . S
C905 C906 1.410 . S
C905 C913 1.503 . S
C906 C905 1.410 . S
C906 C907 1.392 . S
C906 C909 1.511 . S
C907 C903 1.376 . S
C907 C906 1.392 . S
C907 H919 0.929 . S
C908 C904 1.531 . S
C908 H920 0.960 . S
C908 H921 0.962 . S
C908 H922 0.960 . S
C909 C906 1.511 . S
C909 H923 0.961 . S
C909 H924 0.961 . S
C909 H925 0.961 . S
C910 C911 1.370 . S
C910 C912 1.363 . S
C910 H926 0.931 . S
C911 C910 1.370 . S
C911 C915 1.408 . S
C912 C910 1.363 . S
C912 C913 1.370 . S
C912 C916 1.524 . S
C913 C905 1.503 . S
C913 C912 1.370 . S
C913 C914 1.403 . S
C914 C913 1.403 . S
C914 C915 1.404 . S
C914 C917 1.539 . S
C915 C911 1.408 . S
C915 C914 1.404 . S
C915 H927 0.930 . S
C916 C912 1.524 . S
C916 H928 0.956 . S
C916 H929 0.961 . S
C916 H930 0.961 . S
C917 C914 1.539 . S
C917 H931 0.958 . S
C917 H932 0.961 . S
C917 H933 0.960 . S
H918 C902 0.931 . S
H919 C907 0.929 . S
H920 C908 0.960 . S
H921 C908 0.962 . S
H922 C908 0.960 . S
H923 C909 0.961 . S
H924 C909 0.961 . S
H925 C909 0.961 . S
H926 C910 0.931 . S
H927 C915 0.930 . S
H928 C916 0.956 . S
H929 C916 0.961 . S
H930 C916 0.961 . S
H931 C917 0.958 . S
H932 C917 0.961 . S
H933 C917 0.960 . S
C934 C935 1.391 . S
C934 C936 1.394 . S
C934 H950 0.931 . S
C935 C934 1.391 . S
C935 C939 1.376 . S
C936 C934 1.394 . S
C936 C937 1.369 . S
C936 C940 1.531 . S
C937 C936 1.369 . S
C937 C938 1.410 . S
C937 C945 1.503 . S
C938 C937 1.410 . S
C938 C939 1.392 . S
C938 C941 1.511 . S
C939 C935 1.376 . S
C939 C938 1.392 . S
C939 H951 0.929 . S
C940 C936 1.531 . S
C940 H952 0.960 . S
C940 H953 0.962 . S
C940 H954 0.960 . S
C941 C938 1.511 . S
C941 H955 0.961 . S
C941 H956 0.961 . S
C941 H957 0.961 . S
C942 C943 1.370 . S
C942 C944 1.363 . S
C942 H958 0.931 . S
C943 C942 1.370 . S
C943 C947 1.408 . S
C944 C942 1.363 . S
C944 C945 1.370 . S
C944 C948 1.524 . S
C945 C937 1.503 . S
C945 C944 1.370 . S
C945 C946 1.403 . S
C946 C945 1.403 . S
C946 C947 1.404 . S
C946 C949 1.539 . S
C947 C943 1.408 . S
C947 C946 1.404 . S
C947 H959 0.930 . S
C948 C944 1.524 . S
C948 H960 0.956 . S
C948 H961 0.961 . S
C948 H962 0.961 . S
C949 C946 1.539 . S
C949 H963 0.958 . S
C949 H964 0.961 . S
C949 H965 0.960 . S
H950 C934 0.931 . S
H951 C939 0.929 . S
H952 C940 0.960 . S
H953 C940 0.962 . S
H954 C940 0.960 . S
H955 C941 0.961 . S
H956 C941 0.961 . S
H957 C941 0.961 . S
H958 C942 0.931 . S
H959 C947 0.930 . S
H960 C948 0.956 . S
H961 C948 0.961 . S
H962 C948 0.961 . S
H963 C949 0.958 . S
H964 C949 0.961 . S
H965 C949 0.960 . S
C966 C967 1.391 . S
C966 C968 1.394 . S
C966 H982 0.931 . S
C967 C966 1.391 . S
C967 C971 1.376 . S
C968 C966 1.394 . S
C968 C969 1.369 . S
C968 C972 1.531 . S
C969 C968 1.369 . S
C969 C970 1.410 . S
C969 C977 1.503 . S
C970 C969 1.410 . S
C970 C971 1.392 . S
C970 C973 1.511 . S
C971 C967 1.376 . S
C971 C970 1.392 . S
C971 H983 0.929 . S
C972 C968 1.531 . S
C972 H984 0.960 . S
C972 H985 0.962 . S
C972 H986 0.960 . S
C973 C970 1.511 . S
C973 H987 0.961 . S
C973 H988 0.961 . S
C973 H989 0.961 . S
C974 C975 1.370 . S
C974 C976 1.363 . S
C974 H990 0.931 . S
C975 C974 1.370 . S
C975 C979 1.408 . S
C976 C974 1.363 . S
C976 C977 1.370 . S
C976 C980 1.524 . S
C977 C969 1.503 . S
C977 C976 1.370 . S
C977 C978 1.403 . S
C978 C977 1.403 . S
C978 C979 1.404 . S
C978 C981 1.539 . S
C979 C975 1.408 . S
C979 C978 1.404 . S
C979 H991 0.930 . S
C980 C976 1.524 . S
C980 H992 0.956 . S
C980 H993 0.961 . S
C980 H994 0.961 . S
C981 C978 1.539 . S
C981 H995 0.958 . S
C981 H996 0.961 . S
C981 H997 0.960 . S
H982 C966 0.931 . S
H983 C971 0.929 . S
H984 C972 0.960 . S
H985 C972 0.962 . S
H986 C972 0.960 . S
H987 C973 0.961 . S
H988 C973 0.961 . S
H989 C973 0.961 . S
H990 C974 0.931 . S
H991 C979 0.930 . S
H992 C980 0.956 . S
H993 C980 0.961 . S
H994 C980 0.961 . S
H995 C981 0.958 . S
H996 C981 0.961 . S
H997 C981 0.960 . S
C998 C999 1.391 . S
C998 C1000 1.394 . S
C998 H1014 0.931 . S
C999 C998 1.391 . S
C999 C1003 1.376 . S
C1000 C998 1.394 . S
C1000 C1001 1.369 . S
C1000 C1004 1.531 . S
C1001 C1000 1.369 . S
C1001 C1002 1.410 . S
C1001 C1009 1.503 . S
C1002 C1001 1.410 . S
C1002 C1003 1.392 . S
C1002 C1005 1.511 . S
C1003 C999 1.376 . S
C1003 C1002 1.392 . S
C1003 H1015 0.929 . S
C1004 C1000 1.531 . S
C1004 H1016 0.960 . S
C1004 H1017 0.962 . S
C1004 H1018 0.960 . S
C1005 C1002 1.511 . S
C1005 H1019 0.961 . S
C1005 H1020 0.961 . S
C1005 H1021 0.961 . S
C1006 C1007 1.370 . S
C1006 C1008 1.363 . S
C1006 H1022 0.931 . S
C1007 C1006 1.370 . S
C1007 C1011 1.408 . S
C1008 C1006 1.363 . S
C1008 C1009 1.370 . S
C1008 C1012 1.524 . S
C1009 C1001 1.503 . S
C1009 C1008 1.370 . S
C1009 C1010 1.403 . S
C1010 C1009 1.403 . S
C1010 C1011 1.404 . S
C1010 C1013 1.539 . S
C1011 C1007 1.408 . S
C1011 C1010 1.404 . S
C1011 H1023 0.930 . S
C1012 C1008 1.524 . S
C1012 H1024 0.956 . S
C1012 H1025 0.961 . S
C1012 H1026 0.961 . S
C1013 C1010 1.539 . S
C1013 H1027 0.958 . S
C1013 H1028 0.961 . S
C1013 H1029 0.960 . S
H1014 C998 0.931 . S
H1015 C1003 0.929 . S
H1016 C1004 0.960 . S
H1017 C1004 0.962 . S
H1018 C1004 0.960 . S
H1019 C1005 0.961 . S
H1020 C1005 0.961 . S
H1021 C1005 0.961 . S
H1022 C1006 0.931 . S
H1023 C1011 0.930 . S
H1024 C1012 0.956 . S
H1025 C1012 0.961 . S
H1026 C1012 0.961 . S
H1027 C1013 0.958 . S
H1028 C1013 0.961 . S
H1029 C1013 0.960 . S
C1030 C1031 1.391 . S
C1030 C1032 1.394 . S
C1030 H1046 0.931 . S
C1031 C1030 1.391 . S
C1031 C1035 1.376 . S
C1032 C1030 1.394 . S
C1032 C1033 1.369 . S
C1032 C1036 1.531 . S
C1033 C1032 1.369 . S
C1033 C1034 1.410 . S
C1033 C1041 1.503 . S
C1034 C1033 1.410 . S
C1034 C1035 1.392 . S
C1034 C1037 1.511 . S
C1035 C1031 1.376 . S
C1035 C1034 1.392 . S
C1035 H1047 0.929 . S
C1036 C1032 1.531 . S
C1036 H1048 0.960 . S
C1036 H1049 0.962 . S
C1036 H1050 0.960 . S
C1037 C1034 1.511 . S
C1037 H1051 0.961 . S
C1037 H1052 0.961 . S
C1037 H1053 0.961 . S
C1038 C1039 1.370 . S
C1038 C1040 1.363 . S
C1038 H1054 0.931 . S
C1039 C1038 1.370 . S
C1039 C1043 1.408 . S
C1040 C1038 1.363 . S
C1040 C1041 1.370 . S
C1040 C1044 1.524 . S
C1041 C1033 1.503 . S
C1041 C1040 1.370 . S
C1041 C1042 1.403 . S
C1042 C1041 1.403 . S
C1042 C1043 1.404 . S
C1042 C1045 1.539 . S
C1043 C1039 1.408 . S
C1043 C1042 1.404 . S
C1043 H1055 0.930 . S
C1044 C1040 1.524 . S
C1044 H1056 0.956 . S
C1044 H1057 0.961 . S
C1044 H1058 0.961 . S
C1045 C1042 1.539 . S
C1045 H1059 0.958 . S
C1045 H1060 0.961 . S
C1045 H1061 0.960 . S
H1046 C1030 0.931 . S
H1047 C1035 0.929 . S
H1048 C1036 0.960 . S
H1049 C1036 0.962 . S
H1050 C1036 0.960 . S
H1051 C1037 0.961 . S
H1052 C1037 0.961 . S
H1053 C1037 0.961 . S
H1054 C1038 0.931 . S
H1055 C1043 0.930 . S
H1056 C1044 0.956 . S
H1057 C1044 0.961 . S
H1058 C1044 0.961 . S
H1059 C1045 0.958 . S
H1060 C1045 0.961 . S
H1061 C1045 0.960 . S
C1062 C1063 1.391 . S
C1062 C1064 1.394 . S
C1062 H1078 0.931 . S
C1063 C1062 1.391 . S
C1063 C1067 1.376 . S
C1064 C1062 1.394 . S
C1064 C1065 1.369 . S
C1064 C1068 1.531 . S
C1065 C1064 1.369 . S
C1065 C1066 1.410 . S
C1065 C1073 1.503 . S
C1066 C1065 1.410 . S
C1066 C1067 1.392 . S
C1066 C1069 1.511 . S
C1067 C1063 1.376 . S
C1067 C1066 1.392 . S
C1067 H1079 0.929 . S
C1068 C1064 1.531 . S
C1068 H1080 0.960 . S
C1068 H1081 0.962 . S
C1068 H1082 0.960 . S
C1069 C1066 1.511 . S
C1069 H1083 0.961 . S
C1069 H1084 0.961 . S
C1069 H1085 0.961 . S
C1070 C1071 1.370 . S
C1070 C1072 1.363 . S
C1070 H1086 0.931 . S
C1071 C1070 1.370 . S
C1071 C1075 1.408 . S
C1072 C1070 1.363 . S
C1072 C1073 1.370 . S
C1072 C1076 1.524 . S
C1073 C1065 1.503 . S
C1073 C1072 1.370 . S
C1073 C1074 1.403 . S
C1074 C1073 1.403 . S
C1074 C1075 1.404 . S
C1074 C1077 1.539 . S
C1075 C1071 1.408 . S
C1075 C1074 1.404 . S
C1075 H1087 0.930 . S
C1076 C1072 1.524 . S
C1076 H1088 0.956 . S
C1076 H1089 0.961 . S
C1076 H1090 0.961 . S
C1077 C1074 1.539 . S
C1077 H1091 0.958 . S
C1077 H1092 0.961 . S
C1077 H1093 0.960 . S
H1078 C1062 0.931 . S
H1079 C1067 0.929 . S
H1080 C1068 0.960 . S
H1081 C1068 0.962 . S
H1082 C1068 0.960 . S
H1083 C1069 0.961 . S
H1084 C1069 0.961 . S
H1085 C1069 0.961 . S
H1086 C1070 0.931 . S
H1087 C1075 0.930 . S
H1088 C1076 0.956 . S
H1089 C1076 0.961 . S
H1090 C1076 0.961 . S
H1091 C1077 0.958 . S
H1092 C1077 0.961 . S
H1093 C1077 0.960 . S
C1094 C1095 1.391 . S
C1094 C1096 1.394 . S
C1094 H1110 0.931 . S
C1095 C1094 1.391 . S
C1095 C1099 1.376 . S
C1096 C1094 1.394 . S
C1096 C1097 1.369 . S
C1096 C1100 1.531 . S
C1097 C1096 1.369 . S
C1097 C1098 1.410 . S
C1097 C1105 1.503 . S
C1098 C1097 1.410 . S
C1098 C1099 1.392 . S
C1098 C1101 1.511 . S
C1099 C1095 1.376 . S
C1099 C1098 1.392 . S
C1099 H1111 0.929 . S
C1100 C1096 1.531 . S
C1100 H1112 0.960 . S
C1100 H1113 0.962 . S
C1100 H1114 0.960 . S
C1101 C1098 1.511 . S
C1101 H1115 0.961 . S
C1101 H1116 0.961 . S
C1101 H1117 0.961 . S
C1102 C1103 1.370 . S
C1102 C1104 1.363 . S
C1102 H1118 0.931 . S
C1103 C1102 1.370 . S
C1103 C1107 1.408 . S
C1104 C1102 1.363 . S
C1104 C1105 1.370 . S
C1104 C1108 1.524 . S
C1105 C1097 1.503 . S
C1105 C1104 1.370 . S
C1105 C1106 1.403 . S
C1106 C1105 1.403 . S
C1106 C1107 1.404 . S
C1106 C1109 1.539 . S
C1107 C1103 1.408 . S
C1107 C1106 1.404 . S
C1107 H1119 0.930 . S
C1108 C1104 1.524 . S
C1108 H1120 0.956 . S
C1108 H1121 0.961 . S
C1108 H1122 0.961 . S
C1109 C1106 1.539 . S
C1109 H1123 0.958 . S
C1109 H1124 0.961 . S
C1109 H1125 0.960 . S
H1110 C1094 0.931 . S
H1111 C1099 0.929 . S
H1112 C1100 0.960 . S
H1113 C1100 0.962 . S
H1114 C1100 0.960 . S
H1115 C1101 0.961 . S
H1116 C1101 0.961 . S
H1117 C1101 0.961 . S
H1118 C1102 0.931 . S
H1119 C1107 0.930 . S
H1120 C1108 0.956 . S
H1121 C1108 0.961 . S
H1122 C1108 0.961 . S
H1123 C1109 0.958 . S
H1124 C1109 0.961 . S
H1125 C1109 0.960 . S
C1126 C1127 1.391 . S
C1126 C1128 1.394 . S
C1126 H1142 0.931 . S
C1127 C1126 1.391 . S
C1127 C1131 1.376 . S
C1128 C1126 1.394 . S
C1128 C1129 1.369 . S
C1128 C1132 1.531 . S
C1129 C1128 1.369 . S
C1129 C1130 1.410 . S
C1129 C1137 1.503 . S
C1130 C1129 1.410 . S
C1130 C1131 1.392 . S
C1130 C1133 1.511 . S
C1131 C1127 1.376 . S
C1131 C1130 1.392 . S
C1131 H1143 0.929 . S
C1132 C1128 1.531 . S
C1132 H1144 0.960 . S
C1132 H1145 0.962 . S
C1132 H1146 0.960 . S
C1133 C1130 1.511 . S
C1133 H1147 0.961 . S
C1133 H1148 0.961 . S
C1133 H1149 0.961 . S
C1134 C1135 1.370 . S
C1134 C1136 1.363 . S
C1134 H1150 0.931 . S
C1135 C1134 1.370 . S
C1135 C1139 1.408 . S
C1136 C1134 1.363 . S
C1136 C1137 1.370 . S
C1136 C1140 1.524 . S
C1137 C1129 1.503 . S
C1137 C1136 1.370 . S
C1137 C1138 1.403 . S
C1138 C1137 1.403 . S
C1138 C1139 1.404 . S
C1138 C1141 1.539 . S
C1139 C1135 1.408 . S
C1139 C1138 1.404 . S
C1139 H1151 0.930 . S
C1140 C1136 1.524 . S
C1140 H1152 0.956 . S
C1140 H1153 0.961 . S
C1140 H1154 0.961 . S
C1141 C1138 1.539 . S
C1141 H1155 0.958 . S
C1141 H1156 0.961 . S
C1141 H1157 0.960 . S
H1142 C1126 0.931 . S
H1143 C1131 0.929 . S
H1144 C1132 0.960 . S
H1145 C1132 0.962 . S
H1146 C1132 0.960 . S
H1147 C1133 0.961 . S
H1148 C1133 0.961 . S
H1149 C1133 0.961 . S
H1150 C1134 0.931 . S
H1151 C1139 0.930 . S
H1152 C1140 0.956 . S
H1153 C1140 0.961 . S
H1154 C1140 0.961 . S
H1155 C1141 0.958 . S
H1156 C1141 0.961 . S
H1157 C1141 0.960 . S
C1158 C1159 1.391 . S
C1158 C1160 1.394 . S
C1158 H1174 0.931 . S
C1159 C1158 1.391 . S
C1159 C1163 1.376 . S
C1160 C1158 1.394 . S
C1160 C1161 1.369 . S
C1160 C1164 1.531 . S
C1161 C1160 1.369 . S
C1161 C1162 1.410 . S
C1161 C1169 1.503 . S
C1162 C1161 1.410 . S
C1162 C1163 1.392 . S
C1162 C1165 1.511 . S
C1163 C1159 1.376 . S
C1163 C1162 1.392 . S
C1163 H1175 0.929 . S
C1164 C1160 1.531 . S
C1164 H1176 0.960 . S
C1164 H1177 0.962 . S
C1164 H1178 0.960 . S
C1165 C1162 1.511 . S
C1165 H1179 0.961 . S
C1165 H1180 0.961 . S
C1165 H1181 0.961 . S
C1166 C1167 1.370 . S
C1166 C1168 1.363 . S
C1166 H1182 0.931 . S
C1167 C1166 1.370 . S
C1167 C1171 1.408 . S
C1168 C1166 1.363 . S
C1168 C1169 1.370 . S
C1168 C1172 1.524 . S
C1169 C1161 1.503 . S
C1169 C1168 1.370 . S
C1169 C1170 1.403 . S
C1170 C1169 1.403 . S
C1170 C1171 1.404 . S
C1170 C1173 1.539 . S
C1171 C1167 1.408 . S
C1171 C1170 1.404 . S
C1171 H1183 0.930 . S
C1172 C1168 1.524 . S
C1172 H1184 0.956 . S
C1172 H1185 0.961 . S
C1172 H1186 0.961 . S
C1173 C1170 1.539 . S
C1173 H1187 0.958 . S
C1173 H1188 0.961 . S
C1173 H1189 0.960 . S
H1174 C1158 0.931 . S
H1175 C1163 0.929 . S
H1176 C1164 0.960 . S
H1177 C1164 0.962 . S
H1178 C1164 0.960 . S
H1179 C1165 0.961 . S
H1180 C1165 0.961 . S
H1181 C1165 0.961 . S
H1182 C1166 0.931 . S
H1183 C1171 0.930 . S
H1184 C1172 0.956 . S
H1185 C1172 0.961 . S
H1186 C1172 0.961 . S
H1187 C1173 0.958 . S
H1188 C1173 0.961 . S
H1189 C1173 0.960 . S
C1190 C1191 1.391 . S
C1190 C1192 1.394 . S
C1190 H1206 0.931 . S
C1191 C1190 1.391 . S
C1191 C1195 1.376 . S
C1192 C1190 1.394 . S
C1192 C1193 1.369 . S
C1192 C1196 1.531 . S
C1193 C1192 1.369 . S
C1193 C1194 1.410 . S
C1193 C1201 1.503 . S
C1194 C1193 1.410 . S
C1194 C1195 1.392 . S
C1194 C1197 1.511 . S
C1195 C1191 1.376 . S
C1195 C1194 1.392 . S
C1195 H1207 0.929 . S
C1196 C1192 1.531 . S
C1196 H1208 0.960 . S
C1196 H1209 0.962 . S
C1196 H1210 0.960 . S
C1197 C1194 1.511 . S
C1197 H1211 0.961 . S
C1197 H1212 0.961 . S
C1197 H1213 0.961 . S
C1198 C1199 1.370 . S
C1198 C1200 1.363 . S
C1198 H1214 0.931 . S
C1199 C1198 1.370 . S
C1199 C1203 1.408 . S
C1200 C1198 1.363 . S
C1200 C1201 1.370 . S
C1200 C1204 1.524 . S
C1201 C1193 1.503 . S
C1201 C1200 1.370 . S
C1201 C1202 1.403 . S
C1202 C1201 1.403 . S
C1202 C1203 1.404 . S
C1202 C1205 1.539 . S
C1203 C1199 1.408 . S
C1203 C1202 1.404 . S
C1203 H1215 0.930 1_554 S
C1204 C1200 1.524 . S
C1204 H1216 0.956 . S
C1204 H1217 0.961 . S
C1204 H1218 0.961 . S
C1205 C1202 1.539 . S
C1205 H1219 0.958 . S
C1205 H1220 0.961 1_554 S
C1205 H1221 0.960 . S
H1206 C1190 0.931 . S
H1207 C1195 0.929 . S
H1208 C1196 0.960 . S
H1209 C1196 0.962 . S
H1210 C1196 0.960 . S
H1211 C1197 0.961 . S
H1212 C1197 0.961 . S
H1213 C1197 0.961 . S
H1214 C1198 0.931 . S
H1215 C1203 0.930 1_556 S
H1216 C1204 0.956 . S
H1217 C1204 0.961 . S
H1218 C1204 0.961 . S
H1219 C1205 0.958 . S
H1220 C1205 0.961 1_556 S
H1221 C1205 0.960 . S
C1222 C1223 1.391 . S
C1222 C1224 1.394 . S
C1222 H1238 0.931 . S
C1223 C1222 1.391 . S
C1223 C1227 1.376 . S
C1224 C1222 1.394 . S
C1224 C1225 1.369 . S
C1224 C1228 1.531 . S
C1225 C1224 1.369 . S
C1225 C1226 1.410 . S
C1225 C1233 1.503 . S
C1226 C1225 1.410 . S
C1226 C1227 1.392 . S
C1226 C1229 1.511 . S
C1227 C1223 1.376 . S
C1227 C1226 1.392 . S
C1227 H1239 0.929 . S
C1228 C1224 1.531 . S
C1228 H1240 0.960 . S
C1228 H1241 0.962 . S
C1228 H1242 0.960 . S
C1229 C1226 1.511 . S
C1229 H1243 0.961 . S
C1229 H1244 0.961 . S
C1229 H1245 0.961 . S
C1230 C1231 1.370 . S
C1230 C1232 1.363 . S
C1230 H1246 0.931 . S
C1231 C1230 1.370 . S
C1231 C1235 1.408 . S
C1232 C1230 1.363 . S
C1232 C1233 1.370 . S
C1232 C1236 1.524 . S
C1233 C1225 1.503 . S
C1233 C1232 1.370 . S
C1233 C1234 1.403 . S
C1234 C1233 1.403 . S
C1234 C1235 1.404 . S
C1234 C1237 1.539 . S
C1235 C1231 1.408 . S
C1235 C1234 1.404 . S
C1235 H1247 0.930 . S
C1236 C1232 1.524 . S
C1236 H1248 0.956 . S
C1236 H1249 0.961 . S
C1236 H1250 0.961 . S
C1237 C1234 1.539 . S
C1237 H1251 0.958 . S
C1237 H1252 0.961 . S
C1237 H1253 0.960 . S
H1238 C1222 0.931 . S
H1239 C1227 0.929 . S
H1240 C1228 0.960 . S
H1241 C1228 0.962 . S
H1242 C1228 0.960 . S
H1243 C1229 0.961 . S
H1244 C1229 0.961 . S
H1245 C1229 0.961 . S
H1246 C1230 0.931 . S
H1247 C1235 0.930 . S
H1248 C1236 0.956 . S
H1249 C1236 0.961 . S
H1250 C1236 0.961 . S
H1251 C1237 0.958 . S
H1252 C1237 0.961 . S
H1253 C1237 0.960 . S
C1254 C1255 1.391 . S
C1254 C1256 1.394 . S
C1254 H1270 0.931 . S
C1255 C1254 1.391 . S
C1255 C1259 1.376 . S
C1256 C1254 1.394 . S
C1256 C1257 1.369 . S
C1256 C1260 1.531 . S
C1257 C1256 1.369 . S
C1257 C1258 1.410 . S
C1257 C1265 1.503 . S
C1258 C1257 1.410 . S
C1258 C1259 1.392 . S
C1258 C1261 1.511 . S
C1259 C1255 1.376 . S
C1259 C1258 1.392 . S
C1259 H1271 0.929 . S
C1260 C1256 1.531 . S
C1260 H1272 0.960 . S
C1260 H1273 0.962 . S
C1260 H1274 0.960 . S
C1261 C1258 1.511 . S
C1261 H1275 0.961 . S
C1261 H1276 0.961 . S
C1261 H1277 0.961 . S
C1262 C1263 1.370 . S
C1262 C1264 1.363 . S
C1262 H1278 0.931 . S
C1263 C1262 1.370 . S
C1263 C1267 1.408 . S
C1264 C1262 1.363 . S
C1264 C1265 1.370 . S
C1264 C1268 1.524 . S
C1265 C1257 1.503 . S
C1265 C1264 1.370 . S
C1265 C1266 1.403 . S
C1266 C1265 1.403 . S
C1266 C1267 1.404 . S
C1266 C1269 1.539 . S
C1267 C1263 1.408 . S
C1267 C1266 1.404 . S
C1267 H1279 0.930 . S
C1268 C1264 1.524 . S
C1268 H1280 0.956 . S
C1268 H1281 0.961 . S
C1268 H1282 0.961 . S
C1269 C1266 1.539 . S
C1269 H1283 0.958 . S
C1269 H1284 0.961 . S
C1269 H1285 0.960 . S
H1270 C1254 0.931 . S
H1271 C1259 0.929 . S
H1272 C1260 0.960 . S
H1273 C1260 0.962 . S
H1274 C1260 0.960 . S
H1275 C1261 0.961 . S
H1276 C1261 0.961 . S
H1277 C1261 0.961 . S
H1278 C1262 0.931 . S
H1279 C1267 0.930 . S
H1280 C1268 0.956 . S
H1281 C1268 0.961 . S
H1282 C1268 0.961 . S
H1283 C1269 0.958 . S
H1284 C1269 0.961 . S
H1285 C1269 0.960 . S
C1286 C1287 1.391 . S
C1286 C1288 1.394 . S
C1286 H1302 0.931 . S
C1287 C1286 1.391 . S
C1287 C1291 1.376 . S
C1288 C1286 1.394 . S
C1288 C1289 1.369 . S
C1288 C1292 1.531 . S
C1289 C1288 1.369 . S
C1289 C1290 1.410 . S
C1289 C1297 1.503 . S
C1290 C1289 1.410 . S
C1290 C1291 1.392 . S
C1290 C1293 1.511 . S
C1291 C1287 1.376 . S
C1291 C1290 1.392 . S
C1291 H1303 0.929 . S
C1292 C1288 1.531 . S
C1292 H1304 0.960 . S
C1292 H1305 0.962 . S
C1292 H1306 0.960 . S
C1293 C1290 1.511 . S
C1293 H1307 0.961 . S
C1293 H1308 0.961 . S
C1293 H1309 0.961 . S
C1294 C1295 1.370 . S
C1294 C1296 1.363 . S
C1294 H1310 0.931 . S
C1295 C1294 1.370 . S
C1295 C1299 1.408 1_556 S
C1296 C1294 1.363 . S
C1296 C1297 1.370 . S
C1296 C1300 1.524 . S
C1297 C1289 1.503 . S
C1297 C1296 1.370 . S
C1297 C1298 1.403 1_556 S
C1298 C1297 1.403 1_554 S
C1298 C1299 1.404 . S
C1298 C1301 1.539 . S
C1299 C1295 1.408 1_554 S
C1299 C1298 1.404 . S
C1299 H1311 0.930 . S
C1300 C1296 1.524 . S
C1300 H1312 0.956 . S
C1300 H1313 0.961 . S
C1300 H1314 0.961 . S
C1301 C1298 1.539 . S
C1301 H1315 0.958 . S
C1301 H1316 0.961 . S
C1301 H1317 0.960 . S
H1302 C1286 0.931 . S
H1303 C1291 0.929 . S
H1304 C1292 0.960 . S
H1305 C1292 0.962 . S
H1306 C1292 0.960 . S
H1307 C1293 0.961 . S
H1308 C1293 0.961 . S
H1309 C1293 0.961 . S
H1310 C1294 0.931 . S
H1311 C1299 0.930 . S
H1312 C1300 0.956 . S
H1313 C1300 0.961 . S
H1314 C1300 0.961 . S
H1315 C1301 0.958 . S
H1316 C1301 0.961 . S
H1317 C1301 0.960 . S
C1318 C1319 1.391 . S
C1318 C1320 1.394 . S
C1318 H1334 0.931 . S
C1319 C1318 1.391 . S
C1319 C1323 1.376 . S
C1320 C1318 1.394 . S
C1320 C1321 1.369 . S
C1320 C1324 1.531 . S
C1321 C1320 1.369 . S
C1321 C1322 1.410 . S
C1321 C1329 1.503 . S
C1322 C1321 1.410 . S
C1322 C1323 1.392 . S
C1322 C1325 1.511 . S
C1323 C1319 1.376 . S
C1323 C1322 1.392 . S
C1323 H1335 0.929 . S
C1324 C1320 1.531 . S
C1324 H1336 0.960 . S
C1324 H1337 0.962 . S
C1324 H1338 0.960 . S
C1325 C1322 1.511 . S
C1325 H1339 0.961 . S
C1325 H1340 0.961 . S
C1325 H1341 0.961 . S
C1326 C1327 1.370 . S
C1326 C1328 1.363 . S
C1326 H1342 0.931 . S
C1327 C1326 1.370 . S
C1327 C1331 1.408 . S
C1328 C1326 1.363 . S
C1328 C1329 1.370 . S
C1328 C1332 1.524 . S
C1329 C1321 1.503 . S
C1329 C1328 1.370 . S
C1329 C1330 1.403 . S
C1330 C1329 1.403 . S
C1330 C1331 1.404 . S
C1330 C1333 1.539 . S
C1331 C1327 1.408 . S
C1331 C1330 1.404 . S
C1331 H1343 0.930 . S
C1332 C1328 1.524 . S
C1332 H1344 0.956 . S
C1332 H1345 0.961 . S
C1332 H1346 0.961 . S
C1333 C1330 1.539 . S
C1333 H1347 0.958 . S
C1333 H1348 0.961 . S
C1333 H1349 0.960 . S
H1334 C1318 0.931 . S
H1335 C1323 0.929 . S
H1336 C1324 0.960 . S
H1337 C1324 0.962 . S
H1338 C1324 0.960 . S
H1339 C1325 0.961 . S
H1340 C1325 0.961 . S
H1341 C1325 0.961 . S
H1342 C1326 0.931 . S
H1343 C1331 0.930 . S
H1344 C1332 0.956 . S
H1345 C1332 0.961 . S
H1346 C1332 0.961 . S
H1347 C1333 0.958 . S
H1348 C1333 0.961 . S
H1349 C1333 0.960 . S
C1350 C1351 1.391 . S
C1350 C1352 1.394 . S
C1350 H1366 0.931 . S
C1351 C1350 1.391 . S
C1351 C1355 1.376 . S
C1352 C1350 1.394 . S
C1352 C1353 1.369 . S
C1352 C1356 1.531 . S
C1353 C1352 1.369 . S
C1353 C1354 1.410 . S
C1353 C1361 1.503 . S
C1354 C1353 1.410 . S
C1354 C1355 1.392 . S
C1354 C1357 1.511 . S
C1355 C1351 1.376 . S
C1355 C1354 1.392 . S
C1355 H1367 0.929 . S
C1356 C1352 1.531 . S
C1356 H1368 0.960 . S
C1356 H1369 0.962 . S
C1356 H1370 0.960 . S
C1357 C1354 1.511 . S
C1357 H1371 0.961 . S
C1357 H1372 0.961 . S
C1357 H1373 0.961 . S
C1358 C1359 1.370 . S
C1358 C1360 1.363 . S
C1358 H1374 0.931 . S
C1359 C1358 1.370 . S
C1359 C1363 1.408 . S
C1360 C1358 1.363 . S
C1360 C1361 1.370 . S
C1360 C1364 1.524 . S
C1361 C1353 1.503 . S
C1361 C1360 1.370 . S
C1361 C1362 1.403 . S
C1362 C1361 1.403 . S
C1362 C1363 1.404 . S
C1362 C1365 1.539 . S
C1363 C1359 1.408 . S
C1363 C1362 1.404 . S
C1363 H1375 0.930 . S
C1364 C1360 1.524 . S
C1364 H1376 0.956 . S
C1364 H1377 0.961 . S
C1364 H1378 0.961 . S
C1365 C1362 1.539 . S
C1365 H1379 0.958 . S
C1365 H1380 0.961 . S
C1365 H1381 0.960 . S
H1366 C1350 0.931 . S
H1367 C1355 0.929 . S
H1368 C1356 0.960 . S
H1369 C1356 0.962 . S
H1370 C1356 0.960 . S
H1371 C1357 0.961 . S
H1372 C1357 0.961 . S
H1373 C1357 0.961 . S
H1374 C1358 0.931 . S
H1375 C1363 0.930 . S
H1376 C1364 0.956 . S
H1377 C1364 0.961 . S
H1378 C1364 0.961 . S
H1379 C1365 0.958 . S
H1380 C1365 0.961 . S
H1381 C1365 0.960 . S
C1382 C1383 1.391 . S
C1382 C1384 1.394 . S
C1382 H1398 0.931 . S
C1383 C1382 1.391 . S
C1383 C1387 1.376 . S
C1384 C1382 1.394 . S
C1384 C1385 1.369 . S
C1384 C1388 1.531 . S
C1385 C1384 1.369 . S
C1385 C1386 1.410 . S
C1385 C1393 1.503 . S
C1386 C1385 1.410 . S
C1386 C1387 1.392 . S
C1386 C1389 1.511 . S
C1387 C1383 1.376 . S
C1387 C1386 1.392 . S
C1387 H1399 0.929 . S
C1388 C1384 1.531 . S
C1388 H1400 0.960 . S
C1388 H1401 0.962 . S
C1388 H1402 0.960 . S
C1389 C1386 1.511 . S
C1389 H1403 0.961 . S
C1389 H1404 0.961 . S
C1389 H1405 0.961 . S
C1390 C1391 1.370 . S
C1390 C1392 1.363 . S
C1390 H1406 0.931 . S
C1391 C1390 1.370 . S
C1391 C1395 1.408 . S
C1392 C1390 1.363 . S
C1392 C1393 1.370 . S
C1392 C1396 1.524 . S
C1393 C1385 1.503 . S
C1393 C1392 1.370 . S
C1393 C1394 1.403 . S
C1394 C1393 1.403 . S
C1394 C1395 1.404 . S
C1394 C1397 1.539 . S
C1395 C1391 1.408 . S
C1395 C1394 1.404 . S
C1395 H1407 0.930 . S
C1396 C1392 1.524 . S
C1396 H1408 0.956 . S
C1396 H1409 0.961 . S
C1396 H1410 0.961 . S
C1397 C1394 1.539 . S
C1397 H1411 0.958 . S
C1397 H1412 0.961 . S
C1397 H1413 0.960 . S
H1398 C1382 0.931 . S
H1399 C1387 0.929 . S
H1400 C1388 0.960 . S
H1401 C1388 0.962 . S
H1402 C1388 0.960 . S
H1403 C1389 0.961 . S
H1404 C1389 0.961 . S
H1405 C1389 0.961 . S
H1406 C1390 0.931 . S
H1407 C1395 0.930 . S
H1408 C1396 0.956 . S
H1409 C1396 0.961 . S
H1410 C1396 0.961 . S
H1411 C1397 0.958 . S
H1412 C1397 0.961 . S
H1413 C1397 0.960 . S
C1414 C1415 1.391 . S
C1414 C1416 1.394 . S
C1414 H1430 0.931 . S
C1415 C1414 1.391 . S
C1415 C1419 1.376 . S
C1416 C1414 1.394 . S
C1416 C1417 1.369 . S
C1416 C1420 1.531 . S
C1417 C1416 1.369 . S
C1417 C1418 1.410 . S
C1417 C1425 1.503 . S
C1418 C1417 1.410 . S
C1418 C1419 1.392 . S
C1418 C1421 1.511 . S
C1419 C1415 1.376 . S
C1419 C1418 1.392 . S
C1419 H1431 0.929 . S
C1420 C1416 1.531 . S
C1420 H1432 0.960 . S
C1420 H1433 0.962 . S
C1420 H1434 0.960 . S
C1421 C1418 1.511 . S
C1421 H1435 0.961 . S
C1421 H1436 0.961 . S
C1421 H1437 0.961 . S
C1422 C1423 1.370 . S
C1422 C1424 1.363 . S
C1422 H1438 0.931 . S
C1423 C1422 1.370 . S
C1423 C1427 1.408 1_556 S
C1424 C1422 1.363 . S
C1424 C1425 1.370 . S
C1424 C1428 1.524 . S
C1425 C1417 1.503 . S
C1425 C1424 1.370 . S
C1425 C1426 1.403 . S
C1426 C1425 1.403 . S
C1426 C1427 1.404 1_556 S
C1426 C1429 1.539 1_556 S
C1427 C1423 1.408 1_554 S
C1427 C1426 1.404 1_554 S
C1427 H1439 0.930 . S
C1428 C1424 1.524 . S
C1428 H1440 0.956 . S
C1428 H1441 0.961 . S
C1428 H1442 0.961 . S
C1429 C1426 1.539 1_554 S
C1429 H1443 0.958 . S
C1429 H1444 0.961 . S
C1429 H1445 0.960 1_554 S
H1430 C1414 0.931 . S
H1431 C1419 0.929 . S
H1432 C1420 0.960 . S
H1433 C1420 0.962 . S
H1434 C1420 0.960 . S
H1435 C1421 0.961 . S
H1436 C1421 0.961 . S
H1437 C1421 0.961 . S
H1438 C1422 0.931 . S
H1439 C1427 0.930 . S
H1440 C1428 0.956 . S
H1441 C1428 0.961 . S
H1442 C1428 0.961 . S
H1443 C1429 0.958 . S
H1444 C1429 0.961 . S
H1445 C1429 0.960 1_556 S
C1446 C1447 1.391 . S
C1446 C1448 1.394 . S
C1446 H1462 0.931 . S
C1447 C1446 1.391 . S
C1447 C1451 1.376 . S
C1448 C1446 1.394 . S
C1448 C1449 1.369 . S
C1448 C1452 1.531 . S
C1449 C1448 1.369 . S
C1449 C1450 1.410 . S
C1449 C1457 1.503 . S
C1450 C1449 1.410 . S
C1450 C1451 1.392 . S
C1450 C1453 1.511 . S
C1451 C1447 1.376 . S
C1451 C1450 1.392 . S
C1451 H1463 0.929 . S
C1452 C1448 1.531 . S
C1452 H1464 0.960 . S
C1452 H1465 0.962 . S
C1452 H1466 0.960 . S
C1453 C1450 1.511 . S
C1453 H1467 0.961 . S
C1453 H1468 0.961 . S
C1453 H1469 0.961 . S
C1454 C1455 1.370 . S
C1454 C1456 1.363 . S
C1454 H1470 0.931 . S
C1455 C1454 1.370 . S
C1455 C1459 1.408 . S
C1456 C1454 1.363 . S
C1456 C1457 1.370 . S
C1456 C1460 1.524 . S
C1457 C1449 1.503 . S
C1457 C1456 1.370 . S
C1457 C1458 1.403 . S
C1458 C1457 1.403 . S
C1458 C1459 1.404 . S
C1458 C1461 1.539 . S
C1459 C1455 1.408 . S
C1459 C1458 1.404 . S
C1459 H1471 0.930 . S
C1460 C1456 1.524 . S
C1460 H1472 0.956 . S
C1460 H1473 0.961 . S
C1460 H1474 0.961 . S
C1461 C1458 1.539 . S
C1461 H1475 0.958 . S
C1461 H1476 0.961 . S
C1461 H1477 0.960 . S
H1462 C1446 0.931 . S
H1463 C1451 0.929 . S
H1464 C1452 0.960 . S
H1465 C1452 0.962 . S
H1466 C1452 0.960 . S
H1467 C1453 0.961 . S
H1468 C1453 0.961 . S
H1469 C1453 0.961 . S
H1470 C1454 0.931 . S
H1471 C1459 0.930 . S
H1472 C1460 0.956 . S
H1473 C1460 0.961 . S
H1474 C1460 0.961 . S
H1475 C1461 0.958 . S
H1476 C1461 0.961 . S
H1477 C1461 0.960 . S
C1478 C1479 1.391 . S
C1478 C1480 1.394 . S
C1478 H1494 0.931 . S
C1479 C1478 1.391 . S
C1479 C1483 1.376 . S
C1480 C1478 1.394 . S
C1480 C1481 1.369 . S
C1480 C1484 1.531 . S
C1481 C1480 1.369 . S
C1481 C1482 1.410 . S
C1481 C1489 1.503 . S
C1482 C1481 1.410 . S
C1482 C1483 1.392 . S
C1482 C1485 1.511 . S
C1483 C1479 1.376 . S
C1483 C1482 1.392 . S
C1483 H1495 0.929 . S
C1484 C1480 1.531 . S
C1484 H1496 0.960 1_556 S
C1484 H1497 0.962 1_556 S
C1484 H1498 0.960 1_556 S
C1485 C1482 1.511 . S
C1485 H1499 0.961 . S
C1485 H1500 0.961 . S
C1485 H1501 0.961 . S
C1486 C1487 1.370 . S
C1486 C1488 1.363 . S
C1486 H1502 0.931 . S
C1487 C1486 1.370 . S
C1487 C1491 1.408 . S
C1488 C1486 1.363 . S
C1488 C1489 1.370 . S
C1488 C1492 1.524 . S
C1489 C1481 1.503 . S
C1489 C1488 1.370 . S
C1489 C1490 1.403 . S
C1490 C1489 1.403 . S
C1490 C1491 1.404 . S
C1490 C1493 1.539 . S
C1491 C1487 1.408 . S
C1491 C1490 1.404 . S
C1491 H1503 0.930 1_556 S
C1492 C1488 1.524 . S
C1492 H1504 0.956 . S
C1492 H1505 0.961 . S
C1492 H1506 0.961 . S
C1493 C1490 1.539 . S
C1493 H1507 0.958 . S
C1493 H1508 0.961 . S
C1493 H1509 0.960 . S
H1494 C1478 0.931 . S
H1495 C1483 0.929 . S
H1496 C1484 0.960 1_554 S
H1497 C1484 0.962 1_554 S
H1498 C1484 0.960 1_554 S
H1499 C1485 0.961 . S
H1500 C1485 0.961 . S
H1501 C1485 0.961 . S
H1502 C1486 0.931 . S
H1503 C1491 0.930 1_554 S
H1504 C1492 0.956 . S
H1505 C1492 0.961 . S
H1506 C1492 0.961 . S
H1507 C1493 0.958 . S
H1508 C1493 0.961 . S
H1509 C1493 0.960 . S
C1510 C1511 1.391 . S
C1510 C1512 1.394 . S
C1510 H1526 0.931 . S
C1511 C1510 1.391 . S
C1511 C1515 1.376 . S
C1512 C1510 1.394 . S
C1512 C1513 1.369 . S
C1512 C1516 1.531 . S
C1513 C1512 1.369 . S
C1513 C1514 1.410 . S
C1513 C1521 1.503 . S
C1514 C1513 1.410 . S
C1514 C1515 1.392 . S
C1514 C1517 1.511 . S
C1515 C1511 1.376 . S
C1515 C1514 1.392 . S
C1515 H1527 0.929 . S
C1516 C1512 1.531 . S
C1516 H1528 0.960 . S
C1516 H1529 0.962 . S
C1516 H1530 0.960 . S
C1517 C1514 1.511 . S
C1517 H1531 0.961 . S
C1517 H1532 0.961 . S
C1517 H1533 0.961 . S
C1518 C1519 1.370 . S
C1518 C1520 1.363 . S
C1518 H1534 0.931 . S
C1519 C1518 1.370 . S
C1519 C1523 1.408 . S
C1520 C1518 1.363 . S
C1520 C1521 1.370 . S
C1520 C1524 1.524 . S
C1521 C1513 1.503 . S
C1521 C1520 1.370 . S
C1521 C1522 1.403 . S
C1522 C1521 1.403 . S
C1522 C1523 1.404 . S
C1522 C1525 1.539 . S
C1523 C1519 1.408 . S
C1523 C1522 1.404 . S
C1523 H1535 0.930 . S
C1524 C1520 1.524 . S
C1524 H1536 0.956 . S
C1524 H1537 0.961 . S
C1524 H1538 0.961 . S
C1525 C1522 1.539 . S
C1525 H1539 0.958 . S
C1525 H1540 0.961 1_556 S
C1525 H1541 0.960 . S
H1526 C1510 0.931 . S
H1527 C1515 0.929 . S
H1528 C1516 0.960 . S
H1529 C1516 0.962 . S
H1530 C1516 0.960 . S
H1531 C1517 0.961 . S
H1532 C1517 0.961 . S
H1533 C1517 0.961 . S
H1534 C1518 0.931 . S
H1535 C1523 0.930 . S
H1536 C1524 0.956 . S
H1537 C1524 0.961 . S
H1538 C1524 0.961 . S
H1539 C1525 0.958 . S
H1540 C1525 0.961 1_554 S
H1541 C1525 0.960 . S
C1542 C1543 1.391 . S
C1542 C1544 1.394 . S
C1542 H1558 0.931 . S
C1543 C1542 1.391 . S
C1543 C1547 1.376 . S
C1544 C1542 1.394 . S
C1544 C1545 1.369 . S
C1544 C1548 1.531 . S
C1545 C1544 1.369 . S
C1545 C1546 1.410 . S
C1545 C1553 1.503 . S
C1546 C1545 1.410 . S
C1546 C1547 1.392 . S
C1546 C1549 1.511 . S
C1547 C1543 1.376 . S
C1547 C1546 1.392 . S
C1547 H1559 0.929 . S
C1548 C1544 1.531 . S
C1548 H1560 0.960 . S
C1548 H1561 0.962 . S
C1548 H1562 0.960 . S
C1549 C1546 1.511 . S
C1549 H1563 0.961 . S
C1549 H1564 0.961 . S
C1549 H1565 0.961 . S
C1550 C1551 1.370 . S
C1550 C1552 1.363 . S
C1550 H1566 0.931 . S
C1551 C1550 1.370 . S
C1551 C1555 1.408 . S
C1552 C1550 1.363 . S
C1552 C1553 1.370 . S
C1552 C1556 1.524 . S
C1553 C1545 1.503 . S
C1553 C1552 1.370 . S
C1553 C1554 1.403 . S
C1554 C1553 1.403 . S
C1554 C1555 1.404 . S
C1554 C1557 1.539 . S
C1555 C1551 1.408 . S
C1555 C1554 1.404 . S
C1555 H1567 0.930 . S
C1556 C1552 1.524 . S
C1556 H1568 0.956 . S
C1556 H1569 0.961 . S
C1556 H1570 0.961 . S
C1557 C1554 1.539 . S
C1557 H1571 0.958 . S
C1557 H1572 0.961 . S
C1557 H1573 0.960 . S
H1558 C1542 0.931 . S
H1559 C1547 0.929 . S
H1560 C1548 0.960 . S
H1561 C1548 0.962 . S
H1562 C1548 0.960 . S
H1563 C1549 0.961 . S
H1564 C1549 0.961 . S
H1565 C1549 0.961 . S
H1566 C1550 0.931 . S
H1567 C1555 0.930 . S
H1568 C1556 0.956 . S
H1569 C1556 0.961 . S
H1570 C1556 0.961 . S
H1571 C1557 0.958 . S
H1572 C1557 0.961 . S
H1573 C1557 0.960 . S
C1574 C1575 1.391 . S
C1574 C1576 1.394 . S
C1574 H1590 0.931 . S
C1575 C1574 1.391 . S
C1575 C1579 1.376 . S
C1576 C1574 1.394 . S
C1576 C1577 1.369 . S
C1576 C1580 1.531 . S
C1577 C1576 1.369 . S
C1577 C1578 1.410 . S
C1577 C1585 1.503 . S
C1578 C1577 1.410 . S
C1578 C1579 1.392 . S
C1578 C1581 1.511 . S
C1579 C1575 1.376 . S
C1579 C1578 1.392 . S
C1579 H1591 0.929 . S
C1580 C1576 1.531 . S
C1580 H1592 0.960 . S
C1580 H1593 0.962 . S
C1580 H1594 0.960 . S
C1581 C1578 1.511 . S
C1581 H1595 0.961 . S
C1581 H1596 0.961 . S
C1581 H1597 0.961 . S
C1582 C1583 1.370 . S
C1582 C1584 1.363 . S
C1582 H1598 0.931 . S
C1583 C1582 1.370 . S
C1583 C1587 1.408 . S
C1584 C1582 1.363 . S
C1584 C1585 1.370 . S
C1584 C1588 1.524 . S
C1585 C1577 1.503 . S
C1585 C1584 1.370 . S
C1585 C1586 1.403 . S
C1586 C1585 1.403 . S
C1586 C1587 1.404 . S
C1586 C1589 1.539 . S
C1587 C1583 1.408 . S
C1587 C1586 1.404 . S
C1587 H1599 0.930 . S
C1588 C1584 1.524 . S
C1588 H1600 0.956 . S
C1588 H1601 0.961 . S
C1588 H1602 0.961 . S
C1589 C1586 1.539 . S
C1589 H1603 0.958 . S
C1589 H1604 0.961 . S
C1589 H1605 0.960 . S
H1590 C1574 0.931 . S
H1591 C1579 0.929 . S
H1592 C1580 0.960 . S
H1593 C1580 0.962 . S
H1594 C1580 0.960 . S
H1595 C1581 0.961 . S
H1596 C1581 0.961 . S
H1597 C1581 0.961 . S
H1598 C1582 0.931 . S
H1599 C1587 0.930 . S
H1600 C1588 0.956 . S
H1601 C1588 0.961 . S
H1602 C1588 0.961 . S
H1603 C1589 0.958 . S
H1604 C1589 0.961 . S
H1605 C1589 0.960 . S
C1606 C1607 1.391 . S
C1606 C1608 1.394 . S
C1606 H1622 0.931 . S
C1607 C1606 1.391 . S
C1607 C1611 1.376 . S
C1608 C1606 1.394 . S
C1608 C1609 1.369 . S
C1608 C1612 1.531 . S
C1609 C1608 1.369 . S
C1609 C1610 1.410 . S
C1609 C1617 1.503 . S
C1610 C1609 1.410 . S
C1610 C1611 1.392 . S
C1610 C1613 1.511 . S
C1611 C1607 1.376 . S
C1611 C1610 1.392 . S
C1611 H1623 0.929 . S
C1612 C1608 1.531 . S
C1612 H1624 0.960 . S
C1612 H1625 0.962 . S
C1612 H1626 0.960 . S
C1613 C1610 1.511 . S
C1613 H1627 0.961 . S
C1613 H1628 0.961 . S
C1613 H1629 0.961 . S
C1614 C1615 1.370 . S
C1614 C1616 1.363 . S
C1614 H1630 0.931 . S
C1615 C1614 1.370 . S
C1615 C1619 1.408 . S
C1616 C1614 1.363 . S
C1616 C1617 1.370 . S
C1616 C1620 1.524 . S
C1617 C1609 1.503 . S
C1617 C1616 1.370 . S
C1617 C1618 1.403 . S
C1618 C1617 1.403 . S
C1618 C1619 1.404 . S
C1618 C1621 1.539 . S
C1619 C1615 1.408 . S
C1619 C1618 1.404 . S
C1619 H1631 0.930 . S
C1620 C1616 1.524 . S
C1620 H1632 0.956 . S
C1620 H1633 0.961 . S
C1620 H1634 0.961 . S
C1621 C1618 1.539 . S
C1621 H1635 0.958 . S
C1621 H1636 0.961 . S
C1621 H1637 0.960 . S
H1622 C1606 0.931 . S
H1623 C1611 0.929 . S
H1624 C1612 0.960 . S
H1625 C1612 0.962 . S
H1626 C1612 0.960 . S
H1627 C1613 0.961 . S
H1628 C1613 0.961 . S
H1629 C1613 0.961 . S
H1630 C1614 0.931 . S
H1631 C1619 0.930 . S
H1632 C1620 0.956 . S
H1633 C1620 0.961 . S
H1634 C1620 0.961 . S
H1635 C1621 0.958 . S
H1636 C1621 0.961 . S
H1637 C1621 0.960 . S
C1638 C1639 1.391 . S
C1638 C1640 1.394 . S
C1638 H1654 0.931 . S
C1639 C1638 1.391 . S
C1639 C1643 1.376 . S
C1640 C1638 1.394 . S
C1640 C1641 1.369 . S
C1640 C1644 1.531 . S
C1641 C1640 1.369 . S
C1641 C1642 1.410 . S
C1641 C1649 1.503 . S
C1642 C1641 1.410 . S
C1642 C1643 1.392 . S
C1642 C1645 1.511 . S
C1643 C1639 1.376 . S
C1643 C1642 1.392 . S
C1643 H1655 0.929 . S
C1644 C1640 1.531 . S
C1644 H1656 0.960 . S
C1644 H1657 0.962 . S
C1644 H1658 0.960 . S
C1645 C1642 1.511 . S
C1645 H1659 0.961 . S
C1645 H1660 0.961 . S
C1645 H1661 0.961 . S
C1646 C1647 1.370 . S
C1646 C1648 1.363 . S
C1646 H1662 0.954 . S
C1647 C1646 1.370 . S
C1647 C1651 1.408 . S
C1648 C1646 1.363 . S
C1648 C1649 1.370 . S
C1648 C1652 1.524 . S
C1649 C1641 1.503 . S
C1649 C1648 1.370 . S
C1649 C1650 1.403 . S
C1650 C1649 1.403 . S
C1650 C1651 1.404 . S
C1650 C1653 1.539 . S
C1651 C1647 1.408 . S
C1651 C1650 1.404 . S
C1651 H1663 0.930 . S
C1652 C1648 1.524 . S
C1652 H1664 0.956 . S
C1652 H1665 0.961 . S
C1652 H1666 0.961 . S
C1653 C1650 1.539 . S
C1653 H1667 0.958 . S
C1653 H1668 0.961 . S
C1653 H1669 0.960 . S
H1654 C1638 0.931 . S
H1655 C1643 0.929 . S
H1656 C1644 0.960 . S
H1657 C1644 0.962 . S
H1658 C1644 0.960 . S
H1659 C1645 0.961 . S
H1660 C1645 0.961 . S
H1661 C1645 0.961 . S
H1662 C1646 0.954 . S
H1663 C1651 0.930 . S
H1664 C1652 0.956 . S
H1665 C1652 0.961 . S
H1666 C1652 0.961 . S
H1667 C1653 0.958 . S
H1668 C1653 0.961 . S
H1669 C1653 0.960 . S
C1670 C1671 1.391 . S
C1670 C1672 1.394 . S
C1670 H1686 0.931 . S
C1671 C1670 1.391 . S
C1671 C1675 1.376 . S
C1672 C1670 1.394 . S
C1672 C1673 1.369 . S
C1672 C1676 1.531 . S
C1673 C1672 1.369 . S
C1673 C1674 1.410 . S
C1673 C1681 1.503 . S
C1674 C1673 1.410 . S
C1674 C1675 1.392 . S
C1674 C1677 1.511 . S
C1675 C1671 1.376 . S
C1675 C1674 1.392 . S
C1675 H1687 0.929 . S
C1676 C1672 1.531 . S
C1676 H1688 0.960 . S
C1676 H1689 0.962 . S
C1676 H1690 0.960 . S
C1677 C1674 1.511 . S
C1677 H1691 0.961 . S
C1677 H1692 0.961 . S
C1677 H1693 0.961 . S
C1678 C1679 1.370 1_554 S
C1678 C1680 1.363 1_554 S
C1678 H1694 0.931 . S
C1679 C1678 1.370 1_556 S
C1679 C1683 1.408 . S
C1680 C1678 1.363 1_556 S
C1680 C1681 1.370 . S
C1680 C1684 1.524 1_556 S
C1681 C1673 1.503 . S
C1681 C1680 1.370 . S
C1681 C1682 1.403 . S
C1682 C1681 1.403 . S
C1682 C1683 1.404 . S
C1682 C1685 1.539 . S
C1683 C1679 1.408 . S
C1683 C1682 1.404 . S
C1683 H1695 0.930 . S
C1684 C1680 1.524 1_554 S
C1684 H1696 0.956 . S
C1684 H1697 0.958 1_554 S
C1684 H1698 0.961 . S
C1685 C1682 1.539 . S
C1685 H1699 0.958 . S
C1685 H1700 0.961 . S
C1685 H1701 0.960 . S
H1686 C1670 0.931 . S
H1687 C1675 0.929 . S
H1688 C1676 0.960 . S
H1689 C1676 0.962 . S
H1690 C1676 0.960 . S
H1691 C1677 0.961 . S
H1692 C1677 0.961 . S
H1693 C1677 0.961 . S
H1694 C1678 0.931 . S
H1695 C1683 0.930 . S
H1696 C1684 0.956 . S
H1697 C1684 0.958 1_556 S
H1698 C1684 0.961 . S
H1699 C1685 0.958 . S
H1700 C1685 0.961 . S
H1701 C1685 0.960 . S
C1702 C1703 1.391 . S
C1702 C1704 1.394 . S
C1702 H1718 0.931 . S
C1703 C1702 1.391 . S
C1703 C1707 1.376 . S
C1704 C1702 1.394 . S
C1704 C1705 1.369 . S
C1704 C1708 1.531 . S
C1705 C1704 1.369 . S
C1705 C1706 1.410 . S
C1705 C1713 1.503 . S
C1706 C1705 1.410 . S
C1706 C1707 1.392 . S
C1706 C1709 1.511 . S
C1707 C1703 1.376 . S
C1707 C1706 1.392 . S
C1707 H1719 0.929 . S
C1708 C1704 1.531 . S
C1708 H1720 0.960 . S
C1708 H1721 0.962 . S
C1708 H1722 0.960 . S
C1709 C1706 1.511 . S
C1709 H1723 0.961 . S
C1709 H1724 0.961 . S
C1709 H1725 0.961 . S
C1710 C1711 1.370 . S
C1710 C1712 1.363 . S
C1710 H1726 0.931 . S
C1711 C1710 1.370 . S
C1711 C1715 1.408 . S
C1712 C1710 1.363 . S
C1712 C1713 1.370 . S
C1712 C1716 1.524 . S
C1713 C1705 1.503 . S
C1713 C1712 1.370 . S
C1713 C1714 1.403 . S
C1714 C1713 1.403 . S
C1714 C1715 1.404 . S
C1714 C1717 1.539 . S
C1715 C1711 1.408 . S
C1715 C1714 1.404 . S
C1715 H1727 0.930 . S
C1716 C1712 1.524 . S
C1716 H1728 0.956 . S
C1716 H1729 0.961 . S
C1716 H1730 0.961 . S
C1717 C1714 1.539 . S
C1717 H1731 0.958 . S
C1717 H1732 0.961 . S
C1717 H1733 0.960 . S
H1718 C1702 0.931 . S
H1719 C1707 0.929 . S
H1720 C1708 0.960 . S
H1721 C1708 0.962 . S
H1722 C1708 0.960 . S
H1723 C1709 0.961 . S
H1724 C1709 0.961 . S
H1725 C1709 0.961 . S
H1726 C1710 0.931 . S
H1727 C1715 0.930 . S
H1728 C1716 0.956 . S
H1729 C1716 0.961 . S
H1730 C1716 0.961 . S
H1731 C1717 0.958 . S
H1732 C1717 0.961 . S
H1733 C1717 0.960 . S
C1734 C1735 1.391 . S
C1734 C1736 1.394 . S
C1734 H1750 0.931 . S
C1735 C1734 1.391 . S
C1735 C1739 1.376 . S
C1736 C1734 1.394 . S
C1736 C1737 1.369 . S
C1736 C1740 1.531 . S
C1737 C1736 1.369 . S
C1737 C1738 1.410 . S
C1737 C1745 1.503 . S
C1738 C1737 1.410 . S
C1738 C1739 1.392 . S
C1738 C1741 1.511 . S
C1739 C1735 1.376 . S
C1739 C1738 1.392 . S
C1739 H1751 0.929 . S
C1740 C1736 1.531 . S
C1740 H1752 0.960 . S
C1740 H1753 0.962 . S
C1740 H1754 0.960 . S
C1741 C1738 1.511 . S
C1741 H1755 0.961 1_556 S
C1741 H1756 0.961 1_556 S
C1741 H1757 0.961 1_556 S
C1742 C1743 1.370 . S
C1742 C1744 1.363 . S
C1742 H1758 0.931 . S
C1743 C1742 1.370 . S
C1743 C1747 1.408 . S
C1744 C1742 1.363 . S
C1744 C1745 1.370 . S
C1744 C1748 1.524 . S
C1745 C1737 1.503 . S
C1745 C1744 1.370 . S
C1745 C1746 1.403 . S
C1746 C1745 1.403 . S
C1746 C1747 1.404 . S
C1746 C1749 1.539 . S
C1747 C1743 1.408 . S
C1747 C1746 1.404 . S
C1747 H1759 0.930 . S
C1748 C1744 1.524 . S
C1748 H1760 0.956 . S
C1748 H1761 0.961 . S
C1748 H1762 0.961 . S
C1749 C1746 1.539 . S
C1749 H1763 0.958 . S
C1749 H1764 0.961 . S
C1749 H1765 0.960 . S
H1750 C1734 0.931 . S
H1751 C1739 0.929 . S
H1752 C1740 0.960 . S
H1753 C1740 0.962 . S
H1754 C1740 0.960 . S
H1755 C1741 0.961 1_554 S
H1756 C1741 0.961 1_554 S
H1757 C1741 0.961 1_554 S
H1758 C1742 0.931 . S
H1759 C1747 0.930 . S
H1760 C1748 0.956 . S
H1761 C1748 0.961 . S
H1762 C1748 0.961 . S
H1763 C1749 0.958 . S
H1764 C1749 0.961 . S
H1765 C1749 0.960 . S
C1766 C1767 1.391 . S
C1766 C1768 1.394 . S
C1766 H1782 0.931 . S
C1767 C1766 1.391 . S
C1767 C1771 1.376 . S
C1768 C1766 1.394 . S
C1768 C1769 1.369 . S
C1768 C1772 1.531 . S
C1769 C1768 1.369 . S
C1769 C1770 1.410 . S
C1769 C1777 1.503 . S
C1770 C1769 1.410 . S
C1770 C1771 1.392 . S
C1770 C1773 1.511 . S
C1771 C1767 1.376 . S
C1771 C1770 1.392 . S
C1771 H1783 0.929 . S
C1772 C1768 1.531 . S
C1772 H1784 0.960 . S
C1772 H1785 0.962 . S
C1772 H1786 0.960 . S
C1773 C1770 1.511 . S
C1773 H1787 0.961 . S
C1773 H1788 0.961 . S
C1773 H1789 0.961 . S
C1774 C1775 1.370 . S
C1774 C1776 1.363 . S
C1774 H1790 0.931 . S
C1775 C1774 1.370 . S
C1775 C1779 1.408 . S
C1776 C1774 1.363 . S
C1776 C1777 1.370 . S
C1776 C1780 1.524 . S
C1777 C1769 1.503 . S
C1777 C1776 1.370 . S
C1777 C1778 1.403 . S
C1778 C1777 1.403 . S
C1778 C1779 1.404 . S
C1778 C1781 1.539 . S
C1779 C1775 1.408 . S
C1779 C1778 1.404 . S
C1779 H1791 0.930 . S
C1780 C1776 1.524 . S
C1780 H1792 0.956 . S
C1780 H1793 0.961 . S
C1780 H1794 0.961 . S
C1781 C1778 1.539 . S
C1781 H1795 0.958 . S
C1781 H1796 0.961 . S
C1781 H1797 0.960 . S
H1782 C1766 0.931 . S
H1783 C1771 0.929 . S
H1784 C1772 0.960 . S
H1785 C1772 0.962 . S
H1786 C1772 0.960 . S
H1787 C1773 0.961 . S
H1788 C1773 0.961 . S
H1789 C1773 0.961 . S
H1790 C1774 0.931 . S
H1791 C1779 0.930 . S
H1792 C1780 0.956 . S
H1793 C1780 0.961 . S
H1794 C1780 0.961 . S
H1795 C1781 0.958 . S
H1796 C1781 0.961 . S
H1797 C1781 0.960 . S
C1798 C1799 1.391 . S
C1798 C1800 1.394 . S
C1798 H1814 0.931 . S
C1799 C1798 1.391 . S
C1799 C1803 1.376 . S
C1800 C1798 1.394 . S
C1800 C1801 1.369 . S
C1800 C1804 1.531 . S
C1801 C1800 1.369 . S
C1801 C1802 1.410 . S
C1801 C1809 1.503 . S
C1802 C1801 1.410 . S
C1802 C1803 1.392 . S
C1802 C1805 1.511 . S
C1803 C1799 1.376 . S
C1803 C1802 1.392 . S
C1803 H1815 0.929 . S
C1804 C1800 1.531 . S
C1804 H1816 0.960 . S
C1804 H1817 0.962 . S
C1804 H1818 0.960 . S
C1805 C1802 1.511 . S
C1805 H1819 0.961 . S
C1805 H1820 0.961 . S
C1805 H1821 0.961 . S
C1806 C1807 1.370 . S
C1806 C1808 1.363 . S
C1806 H1822 0.931 . S
C1807 C1806 1.370 . S
C1807 C1811 1.408 . S
C1808 C1806 1.363 . S
C1808 C1809 1.370 . S
C1808 C1812 1.524 . S
C1809 C1801 1.503 . S
C1809 C1808 1.370 . S
C1809 C1810 1.403 . S
C1810 C1809 1.403 . S
C1810 C1811 1.404 . S
C1810 C1813 1.539 . S
C1811 C1807 1.408 . S
C1811 C1810 1.404 . S
C1811 H1823 0.930 . S
C1812 C1808 1.524 . S
C1812 H1824 0.956 . S
C1812 H1825 0.961 . S
C1812 H1826 0.961 . S
C1813 C1810 1.539 . S
C1813 H1827 0.958 . S
C1813 H1828 0.961 . S
C1813 H1829 0.960 . S
H1814 C1798 0.931 . S
H1815 C1803 0.929 . S
H1816 C1804 0.960 . S
H1817 C1804 0.962 . S
H1818 C1804 0.960 . S
H1819 C1805 0.961 . S
H1820 C1805 0.961 . S
H1821 C1805 0.961 . S
H1822 C1806 0.931 . S
H1823 C1811 0.930 . S
H1824 C1812 0.956 . S
H1825 C1812 0.961 . S
H1826 C1812 0.961 . S
H1827 C1813 0.958 . S
H1828 C1813 0.961 . S
H1829 C1813 0.960 . S
C1830 C1831 1.391 . S
C1830 C1832 1.394 . S
C1830 H1846 0.931 . S
C1831 C1830 1.391 . S
C1831 C1835 1.376 . S
C1832 C1830 1.394 . S
C1832 C1833 1.369 . S
C1832 C1836 1.531 . S
C1833 C1832 1.369 . S
C1833 C1834 1.410 . S
C1833 C1841 1.503 . S
C1834 C1833 1.410 . S
C1834 C1835 1.392 . S
C1834 C1837 1.511 . S
C1835 C1831 1.376 . S
C1835 C1834 1.392 . S
C1835 H1847 0.929 . S
C1836 C1832 1.531 . S
C1836 H1848 0.960 . S
C1836 H1849 0.962 . S
C1836 H1850 0.960 . S
C1837 C1834 1.511 . S
C1837 H1851 0.961 . S
C1837 H1852 0.961 . S
C1837 H1853 0.961 . S
C1838 C1839 1.370 . S
C1838 C1840 1.363 . S
C1838 H1854 0.931 . S
C1839 C1838 1.370 . S
C1839 C1843 1.408 . S
C1840 C1838 1.363 . S
C1840 C1841 1.370 . S
C1840 C1844 1.524 . S
C1841 C1833 1.503 . S
C1841 C1840 1.370 . S
C1841 C1842 1.403 . S
C1842 C1841 1.403 . S
C1842 C1843 1.404 . S
C1842 C1845 1.539 . S
C1843 C1839 1.408 . S
C1843 C1842 1.404 . S
C1843 H1855 0.930 . S
C1844 C1840 1.524 . S
C1844 H1856 0.956 . S
C1844 H1857 0.961 . S
C1844 H1858 0.961 . S
C1845 C1842 1.539 . S
C1845 H1859 0.958 . S
C1845 H1860 0.961 . S
C1845 H1861 0.960 . S
H1846 C1830 0.931 . S
H1847 C1835 0.929 . S
H1848 C1836 0.960 . S
H1849 C1836 0.962 . S
H1850 C1836 0.960 . S
H1851 C1837 0.961 . S
H1852 C1837 0.961 . S
H1853 C1837 0.961 . S
H1854 C1838 0.931 . S
H1855 C1843 0.930 . S
H1856 C1844 0.956 . S
H1857 C1844 0.961 . S
H1858 C1844 0.961 . S
H1859 C1845 0.958 . S
H1860 C1845 0.961 . S
H1861 C1845 0.960 . S
C1862 C1863 1.391 . S
C1862 C1864 1.394 . S
C1862 H1878 0.931 . S
C1863 C1862 1.391 . S
C1863 C1867 1.376 . S
C1864 C1862 1.394 . S
C1864 C1865 1.369 . S
C1864 C1868 1.531 . S
C1865 C1864 1.369 . S
C1865 C1866 1.410 . S
C1865 C1873 1.503 . S
C1866 C1865 1.410 . S
C1866 C1867 1.392 . S
C1866 C1869 1.511 . S
C1867 C1863 1.376 . S
C1867 C1866 1.392 . S
C1867 H1879 0.929 . S
C1868 C1864 1.531 . S
C1868 H1880 0.960 . S
C1868 H1881 0.962 . S
C1868 H1882 0.960 . S
C1869 C1866 1.511 . S
C1869 H1883 0.961 . S
C1869 H1884 0.961 . S
C1869 H1885 0.961 . S
C1870 C1871 1.370 . S
C1870 C1872 1.363 . S
C1870 H1886 0.931 . S
C1871 C1870 1.370 . S
C1871 C1875 1.408 . S
C1872 C1870 1.363 . S
C1872 C1873 1.370 . S
C1872 C1876 1.524 . S
C1873 C1865 1.503 . S
C1873 C1872 1.370 . S
C1873 C1874 1.403 . S
C1874 C1873 1.403 . S
C1874 C1875 1.404 . S
C1874 C1877 1.539 . S
C1875 C1871 1.408 . S
C1875 C1874 1.404 . S
C1875 H1887 0.930 . S
C1876 C1872 1.524 . S
C1876 H1888 0.956 . S
C1876 H1889 0.961 . S
C1876 H1890 0.961 . S
C1877 C1874 1.539 . S
C1877 H1891 0.958 . S
C1877 H1892 0.961 . S
C1877 H1893 0.960 . S
H1878 C1862 0.931 . S
H1879 C1867 0.929 . S
H1880 C1868 0.960 . S
H1881 C1868 0.962 . S
H1882 C1868 0.960 . S
H1883 C1869 0.961 . S
H1884 C1869 0.961 . S
H1885 C1869 0.961 . S
H1886 C1870 0.931 . S
H1887 C1875 0.930 . S
H1888 C1876 0.956 . S
H1889 C1876 0.961 . S
H1890 C1876 0.961 . S
H1891 C1877 0.958 . S
H1892 C1877 0.961 . S
H1893 C1877 0.960 . S
C1894 C1895 1.391 . S
C1894 C1896 1.394 . S
C1894 H1910 0.931 . S
C1895 C1894 1.391 . S
C1895 C1899 1.376 . S
C1896 C1894 1.394 . S
C1896 C1897 1.369 . S
C1896 C1900 1.531 . S
C1897 C1896 1.369 . S
C1897 C1898 1.410 . S
C1897 C1905 1.503 . S
C1898 C1897 1.410 . S
C1898 C1899 1.392 . S
C1898 C1901 1.511 . S
C1899 C1895 1.376 . S
C1899 C1898 1.392 . S
C1899 H1911 0.929 . S
C1900 C1896 1.531 . S
C1900 H1912 0.960 . S
C1900 H1913 0.962 . S
C1900 H1914 0.960 . S
C1901 C1898 1.511 . S
C1901 H1915 0.961 . S
C1901 H1916 0.961 . S
C1901 H1917 0.961 . S
C1902 C1903 1.370 . S
C1902 C1904 1.363 . S
C1902 H1918 0.931 . S
C1903 C1902 1.370 . S
C1903 C1907 1.408 . S
C1904 C1902 1.363 . S
C1904 C1905 1.370 . S
C1904 C1908 1.524 . S
C1905 C1897 1.503 . S
C1905 C1904 1.370 . S
C1905 C1906 1.403 . S
C1906 C1905 1.403 . S
C1906 C1907 1.404 . S
C1906 C1909 1.539 . S
C1907 C1903 1.408 . S
C1907 C1906 1.404 . S
C1907 H1919 0.930 . S
C1908 C1904 1.524 . S
C1908 H1920 0.956 . S
C1908 H1921 0.961 . S
C1908 H1922 0.961 . S
C1909 C1906 1.539 . S
C1909 H1923 0.958 . S
C1909 H1924 0.961 . S
C1909 H1925 0.960 . S
H1910 C1894 0.931 . S
H1911 C1899 0.929 . S
H1912 C1900 0.960 . S
H1913 C1900 0.962 . S
H1914 C1900 0.960 . S
H1915 C1901 0.961 . S
H1916 C1901 0.961 . S
H1917 C1901 0.961 . S
H1918 C1902 0.931 . S
H1919 C1907 0.930 . S
H1920 C1908 0.956 . S
H1921 C1908 0.961 . S
H1922 C1908 0.961 . S
H1923 C1909 0.958 . S
H1924 C1909 0.961 . S
H1925 C1909 0.960 . S
C1926 C1927 1.391 . S
C1926 C1928 1.394 . S
C1926 H1942 0.931 . S
C1927 C1926 1.391 . S
C1927 C1931 1.376 . S
C1928 C1926 1.394 . S
C1928 C1929 1.369 . S
C1928 C1932 1.531 . S
C1929 C1928 1.369 . S
C1929 C1930 1.410 . S
C1929 C1937 1.503 . S
C1930 C1929 1.410 . S
C1930 C1931 1.392 . S
C1930 C1933 1.511 . S
C1931 C1927 1.376 . S
C1931 C1930 1.392 . S
C1931 H1943 0.929 . S
C1932 C1928 1.531 . S
C1932 H1944 0.960 . S
C1932 H1945 0.962 . S
C1932 H1946 0.960 . S
C1933 C1930 1.511 . S
C1933 H1947 0.961 . S
C1933 H1948 0.961 . S
C1933 H1949 0.961 . S
C1934 C1935 1.370 . S
C1934 C1936 1.363 . S
C1934 H1950 0.931 . S
C1935 C1934 1.370 . S
C1935 C1939 1.408 . S
C1936 C1934 1.363 . S
C1936 C1937 1.370 . S
C1936 C1940 1.524 . S
C1937 C1929 1.503 . S
C1937 C1936 1.370 . S
C1937 C1938 1.403 . S
C1938 C1937 1.403 . S
C1938 C1939 1.404 . S
C1938 C1941 1.539 . S
C1939 C1935 1.408 . S
C1939 C1938 1.404 . S
C1939 H1951 0.930 . S
C1940 C1936 1.524 . S
C1940 H1952 0.956 . S
C1940 H1953 0.961 . S
C1940 H1954 0.961 . S
C1941 C1938 1.539 . S
C1941 H1955 0.958 . S
C1941 H1956 0.961 . S
C1941 H1957 0.960 . S
H1942 C1926 0.931 . S
H1943 C1931 0.929 . S
H1944 C1932 0.960 . S
H1945 C1932 0.962 . S
H1946 C1932 0.960 . S
H1947 C1933 0.961 . S
H1948 C1933 0.961 . S
H1949 C1933 0.961 . S
H1950 C1934 0.931 . S
H1951 C1939 0.930 . S
H1952 C1940 0.956 . S
H1953 C1940 0.961 . S
H1954 C1940 0.961 . S
H1955 C1941 0.958 . S
H1956 C1941 0.961 . S
H1957 C1941 0.960 . S
C1958 C1959 1.391 . S
C1958 C1960 1.394 . S
C1958 H1974 0.931 . S
C1959 C1958 1.391 . S
C1959 C1963 1.376 . S
C1960 C1958 1.394 . S
C1960 C1961 1.369 . S
C1960 C1964 1.531 . S
C1961 C1960 1.369 . S
C1961 C1962 1.410 . S
C1961 C1969 1.503 . S
C1962 C1961 1.410 . S
C1962 C1963 1.392 . S
C1962 C1965 1.511 . S
C1963 C1959 1.376 . S
C1963 C1962 1.392 . S
C1963 H1975 0.929 . S
C1964 C1960 1.531 . S
C1964 H1976 0.960 . S
C1964 H1977 0.962 . S
C1964 H1978 0.960 . S
C1965 C1962 1.511 . S
C1965 H1979 0.961 . S
C1965 H1980 0.961 . S
C1965 H1981 0.961 . S
C1966 C1967 1.370 . S
C1966 C1968 1.363 . S
C1966 H1982 0.931 . S
C1967 C1966 1.370 . S
C1967 C1971 1.408 . S
C1968 C1966 1.363 . S
C1968 C1969 1.370 . S
C1968 C1972 1.524 . S
C1969 C1961 1.503 . S
C1969 C1968 1.370 . S
C1969 C1970 1.403 . S
C1970 C1969 1.403 . S
C1970 C1971 1.404 . S
C1970 C1973 1.539 . S
C1971 C1967 1.408 . S
C1971 C1970 1.404 . S
C1971 H1983 0.930 . S
C1972 C1968 1.524 . S
C1972 H1984 0.956 . S
C1972 H1985 0.961 . S
C1972 H1986 0.961 . S
C1973 C1970 1.539 . S
C1973 H1987 0.958 . S
C1973 H1988 0.961 . S
C1973 H1989 0.960 . S
H1974 C1958 0.931 . S
H1975 C1963 0.929 . S
H1976 C1964 0.960 . S
H1977 C1964 0.962 . S
H1978 C1964 0.960 . S
H1979 C1965 0.961 . S
H1980 C1965 0.961 . S
H1981 C1965 0.961 . S
H1982 C1966 0.931 . S
H1983 C1971 0.930 . S
H1984 C1972 0.956 . S
H1985 C1972 0.961 . S
H1986 C1972 0.961 . S
H1987 C1973 0.958 . S
H1988 C1973 0.961 . S
H1989 C1973 0.960 . S
C1990 C1991 1.391 . S
C1990 C1992 1.394 . S
C1990 H2006 0.931 . S
C1991 C1990 1.391 . S
C1991 C1995 1.376 . S
C1992 C1990 1.394 . S
C1992 C1993 1.369 . S
C1992 C1996 1.531 . S
C1993 C1992 1.369 . S
C1993 C1994 1.410 . S
C1993 C2001 1.503 . S
C1994 C1993 1.410 . S
C1994 C1995 1.392 . S
C1994 C1997 1.511 . S
C1995 C1991 1.376 . S
C1995 C1994 1.392 . S
C1995 H2007 0.929 . S
C1996 C1992 1.531 . S
C1996 H2008 0.960 . S
C1996 H2009 0.962 . S
C1996 H2010 0.960 . S
C1997 C1994 1.511 . S
C1997 H2011 0.961 . S
C1997 H2012 0.961 . S
C1997 H2013 0.961 . S
C1998 C1999 1.370 . S
C1998 C2000 1.363 . S
C1998 H2014 0.931 . S
C1999 C1998 1.370 . S
C1999 C2003 1.408 . S
C2000 C1998 1.363 . S
C2000 C2001 1.370 . S
C2000 C2004 1.524 . S
C2001 C1993 1.503 . S
C2001 C2000 1.370 . S
C2001 C2002 1.403 . S
C2002 C2001 1.403 . S
C2002 C2003 1.404 . S
C2002 C2005 1.539 . S
C2003 C1999 1.408 . S
C2003 C2002 1.404 . S
C2003 H2015 0.930 . S
C2004 C2000 1.524 . S
C2004 H2016 0.956 . S
C2004 H2017 0.961 . S
C2004 H2018 0.961 . S
C2005 C2002 1.539 . S
C2005 H2019 0.958 . S
C2005 H2020 0.961 . S
C2005 H2021 0.960 . S
H2006 C1990 0.931 . S
H2007 C1995 0.929 . S
H2008 C1996 0.960 . S
H2009 C1996 0.962 . S
H2010 C1996 0.960 . S
H2011 C1997 0.961 . S
H2012 C1997 0.961 . S
H2013 C1997 0.961 . S
H2014 C1998 0.931 . S
H2015 C2003 0.930 . S
H2016 C2004 0.956 . S
H2017 C2004 0.961 . S
H2018 C2004 0.961 . S
H2019 C2005 0.958 . S
H2020 C2005 0.961 . S
H2021 C2005 0.960 . S
C2022 C2023 1.391 . S
C2022 C2024 1.394 . S
C2022 H2038 0.931 . S
C2023 C2022 1.391 . S
C2023 C2027 1.376 . S
C2024 C2022 1.394 . S
C2024 C2025 1.369 . S
C2024 C2028 1.531 . S
C2025 C2024 1.369 . S
C2025 C2026 1.410 . S
C2025 C2033 1.503 . S
C2026 C2025 1.410 . S
C2026 C2027 1.392 . S
C2026 C2029 1.511 . S
C2027 C2023 1.376 . S
C2027 C2026 1.392 . S
C2027 H2039 0.929 . S
C2028 C2024 1.531 . S
C2028 H2040 0.960 . S
C2028 H2041 0.962 . S
C2028 H2042 0.960 . S
C2029 C2026 1.511 . S
C2029 H2043 0.961 . S
C2029 H2044 0.961 . S
C2029 H2045 0.961 . S
C2030 C2031 1.370 . S
C2030 C2032 1.363 . S
C2030 H2046 0.931 . S
C2031 C2030 1.370 . S
C2031 C2035 1.408 . S
C2032 C2030 1.363 . S
C2032 C2033 1.370 . S
C2032 C2036 1.524 . S
C2033 C2025 1.503 . S
C2033 C2032 1.370 . S
C2033 C2034 1.403 . S
C2034 C2033 1.403 . S
C2034 C2035 1.404 . S
C2034 C2037 1.539 . S
C2035 C2031 1.408 . S
C2035 C2034 1.404 . S
C2035 H2047 0.930 . S
C2036 C2032 1.524 . S
C2036 H2048 0.956 . S
C2036 H2049 0.961 . S
C2036 H2050 0.961 . S
C2037 C2034 1.539 . S
C2037 H2051 0.958 . S
C2037 H2052 0.961 . S
C2037 H2053 0.960 . S
H2038 C2022 0.931 . S
H2039 C2027 0.929 . S
H2040 C2028 0.960 . S
H2041 C2028 0.962 . S
H2042 C2028 0.960 . S
H2043 C2029 0.961 . S
H2044 C2029 0.961 . S
H2045 C2029 0.961 . S
H2046 C2030 0.931 . S
H2047 C2035 0.930 . S
H2048 C2036 0.956 . S
H2049 C2036 0.961 . S
H2050 C2036 0.961 . S
H2051 C2037 0.958 . S
H2052 C2037 0.961 . S
H2053 C2037 0.960 . S
C2054 C2055 1.391 . S
C2054 C2056 1.394 . S
C2054 H2070 0.931 . S
C2055 C2054 1.391 . S
C2055 C2059 1.376 . S
C2056 C2054 1.394 . S
C2056 C2057 1.369 . S
C2056 C2060 1.531 . S
C2057 C2056 1.369 . S
C2057 C2058 1.410 . S
C2057 C2065 1.503 . S
C2058 C2057 1.410 . S
C2058 C2059 1.392 . S
C2058 C2061 1.511 . S
C2059 C2055 1.376 . S
C2059 C2058 1.392 . S
C2059 H2071 0.929 . S
C2060 C2056 1.531 . S
C2060 H2072 0.960 . S
C2060 H2073 0.962 . S
C2060 H2074 0.960 . S
C2061 C2058 1.511 . S
C2061 H2075 0.961 . S
C2061 H2076 0.961 . S
C2061 H2077 0.961 . S
C2062 C2063 1.370 . S
C2062 C2064 1.363 . S
C2062 H2078 0.931 . S
C2063 C2062 1.370 . S
C2063 C2067 1.408 . S
C2064 C2062 1.363 . S
C2064 C2065 1.370 . S
C2064 C2068 1.524 . S
C2065 C2057 1.503 . S
C2065 C2064 1.370 . S
C2065 C2066 1.403 . S
C2066 C2065 1.403 . S
C2066 C2067 1.404 . S
C2066 C2069 1.539 . S
C2067 C2063 1.408 . S
C2067 C2066 1.404 . S
C2067 H2079 0.930 . S
C2068 C2064 1.524 . S
C2068 H2080 0.956 . S
C2068 H2081 0.961 . S
C2068 H2082 0.961 . S
C2069 C2066 1.539 . S
C2069 H2083 0.958 . S
C2069 H2084 0.961 . S
C2069 H2085 0.960 . S
H2070 C2054 0.931 . S
H2071 C2059 0.929 . S
H2072 C2060 0.960 . S
H2073 C2060 0.962 . S
H2074 C2060 0.960 . S
H2075 C2061 0.961 . S
H2076 C2061 0.961 . S
H2077 C2061 0.961 . S
H2078 C2062 0.931 . S
H2079 C2067 0.930 . S
H2080 C2068 0.956 . S
H2081 C2068 0.961 . S
H2082 C2068 0.961 . S
H2083 C2069 0.958 . S
H2084 C2069 0.961 . S
H2085 C2069 0.960 . S
C2086 C2087 1.391 . S
C2086 C2088 1.394 . S
C2086 H2102 0.931 . S
C2087 C2086 1.391 . S
C2087 C2091 1.376 . S
C2088 C2086 1.394 . S
C2088 C2089 1.369 . S
C2088 C2092 1.531 . S
C2089 C2088 1.369 . S
C2089 C2090 1.410 . S
C2089 C2097 1.503 . S
C2090 C2089 1.410 . S
C2090 C2091 1.392 . S
C2090 C2093 1.511 . S
C2091 C2087 1.376 . S
C2091 C2090 1.392 . S
C2091 H2103 0.929 . S
C2092 C2088 1.531 . S
C2092 H2104 0.960 . S
C2092 H2105 0.962 . S
C2092 H2106 0.960 . S
C2093 C2090 1.511 . S
C2093 H2107 0.961 . S
C2093 H2108 0.961 . S
C2093 H2109 0.961 . S
C2094 C2095 1.370 . S
C2094 C2096 1.363 . S
C2094 H2110 0.931 . S
C2095 C2094 1.370 . S
C2095 C2099 1.408 . S
C2096 C2094 1.363 . S
C2096 C2097 1.370 . S
C2096 C2100 1.524 . S
C2097 C2089 1.503 . S
C2097 C2096 1.370 . S
C2097 C2098 1.403 . S
C2098 C2097 1.403 . S
C2098 C2099 1.404 . S
C2098 C2101 1.539 . S
C2099 C2095 1.408 . S
C2099 C2098 1.404 . S
C2099 H2111 0.930 . S
C2100 C2096 1.524 . S
C2100 H2112 0.956 . S
C2100 H2113 0.961 . S
C2100 H2114 0.961 . S
C2101 C2098 1.539 . S
C2101 H2115 0.958 . S
C2101 H2116 0.961 . S
C2101 H2117 0.960 . S
H2102 C2086 0.931 . S
H2103 C2091 0.929 . S
H2104 C2092 0.960 . S
H2105 C2092 0.962 . S
H2106 C2092 0.960 . S
H2107 C2093 0.961 . S
H2108 C2093 0.961 . S
H2109 C2093 0.961 . S
H2110 C2094 0.931 . S
H2111 C2099 0.930 . S
H2112 C2100 0.956 . S
H2113 C2100 0.961 . S
H2114 C2100 0.961 . S
H2115 C2101 0.958 . S
H2116 C2101 0.961 . S
H2117 C2101 0.960 . S
C2118 C2119 1.391 . S
C2118 C2120 1.394 . S
C2118 H2134 0.931 . S
C2119 C2118 1.391 . S
C2119 C2123 1.376 . S
C2120 C2118 1.394 . S
C2120 C2121 1.369 . S
C2120 C2124 1.531 . S
C2121 C2120 1.369 . S
C2121 C2122 1.410 . S
C2121 C2129 1.503 . S
C2122 C2121 1.410 . S
C2122 C2123 1.392 . S
C2122 C2125 1.511 . S
C2123 C2119 1.376 . S
C2123 C2122 1.392 . S
C2123 H2135 0.929 . S
C2124 C2120 1.531 . S
C2124 H2136 0.960 . S
C2124 H2137 0.962 . S
C2124 H2138 0.960 . S
C2125 C2122 1.511 . S
C2125 H2139 0.961 . S
C2125 H2140 0.961 . S
C2125 H2141 0.961 . S
C2126 C2127 1.370 . S
C2126 C2128 1.363 . S
C2126 H2142 0.931 . S
C2127 C2126 1.370 . S
C2127 C2131 1.408 . S
C2128 C2126 1.363 . S
C2128 C2129 1.370 . S
C2128 C2132 1.524 . S
C2129 C2121 1.503 . S
C2129 C2128 1.370 . S
C2129 C2130 1.403 . S
C2130 C2129 1.403 . S
C2130 C2131 1.404 . S
C2130 C2133 1.539 . S
C2131 C2127 1.408 . S
C2131 C2130 1.404 . S
C2131 H2143 0.930 . S
C2132 C2128 1.524 . S
C2132 H2144 0.956 . S
C2132 H2145 0.961 . S
C2132 H2146 0.961 . S
C2133 C2130 1.539 . S
C2133 H2147 0.958 . S
C2133 H2148 0.961 . S
C2133 H2149 0.960 . S
H2134 C2118 0.931 . S
H2135 C2123 0.929 . S
H2136 C2124 0.960 . S
H2137 C2124 0.962 . S
H2138 C2124 0.960 . S
H2139 C2125 0.961 . S
H2140 C2125 0.961 . S
H2141 C2125 0.961 . S
H2142 C2126 0.931 . S
H2143 C2131 0.930 . S
H2144 C2132 0.956 . S
H2145 C2132 0.961 . S
H2146 C2132 0.961 . S
H2147 C2133 0.958 . S
H2148 C2133 0.961 . S
H2149 C2133 0.960 . S
C2150 C2151 1.391 . S
C2150 C2152 1.394 . S
C2150 H2166 0.931 . S
C2151 C2150 1.391 . S
C2151 C2155 1.376 . S
C2152 C2150 1.394 . S
C2152 C2153 1.369 . S
C2152 C2156 1.531 . S
C2153 C2152 1.369 . S
C2153 C2154 1.410 . S
C2153 C2161 1.503 . S
C2154 C2153 1.410 . S
C2154 C2155 1.392 . S
C2154 C2157 1.511 . S
C2155 C2151 1.376 . S
C2155 C2154 1.392 . S
C2155 H2167 0.929 . S
C2156 C2152 1.531 . S
C2156 H2168 0.960 . S
C2156 H2169 0.962 . S
C2156 H2170 0.960 . S
C2157 C2154 1.511 . S
C2157 H2171 0.961 . S
C2157 H2172 0.961 . S
C2157 H2173 0.961 . S
C2158 C2159 1.370 . S
C2158 C2160 1.363 . S
C2158 H2174 0.931 . S
C2159 C2158 1.370 . S
C2159 C2163 1.408 . S
C2160 C2158 1.363 . S
C2160 C2161 1.370 . S
C2160 C2164 1.524 . S
C2161 C2153 1.503 . S
C2161 C2160 1.370 . S
C2161 C2162 1.403 . S
C2162 C2161 1.403 . S
C2162 C2163 1.404 . S
C2162 C2165 1.539 . S
C2163 C2159 1.408 . S
C2163 C2162 1.404 . S
C2163 H2175 0.930 . S
C2164 C2160 1.524 . S
C2164 H2176 0.956 . S
C2164 H2177 0.961 . S
C2164 H2178 0.961 . S
C2165 C2162 1.539 . S
C2165 H2179 0.958 . S
C2165 H2180 0.961 . S
C2165 H2181 0.960 . S
H2166 C2150 0.931 . S
H2167 C2155 0.929 . S
H2168 C2156 0.960 . S
H2169 C2156 0.962 . S
H2170 C2156 0.960 . S
H2171 C2157 0.961 . S
H2172 C2157 0.961 . S
H2173 C2157 0.961 . S
H2174 C2158 0.931 . S
H2175 C2163 0.930 . S
H2176 C2164 0.956 . S
H2177 C2164 0.961 . S
H2178 C2164 0.961 . S
H2179 C2165 0.958 . S
H2180 C2165 0.961 . S
H2181 C2165 0.960 . S
C2182 C2183 1.391 . S
C2182 C2184 1.394 . S
C2182 H2198 0.931 . S
C2183 C2182 1.391 . S
C2183 C2187 1.376 . S
C2184 C2182 1.394 . S
C2184 C2185 1.369 . S
C2184 C2188 1.531 . S
C2185 C2184 1.369 . S
C2185 C2186 1.410 . S
C2185 C2193 1.503 . S
C2186 C2185 1.410 . S
C2186 C2187 1.392 . S
C2186 C2189 1.511 . S
C2187 C2183 1.376 . S
C2187 C2186 1.392 . S
C2187 H2199 0.929 . S
C2188 C2184 1.531 . S
C2188 H2200 0.960 . S
C2188 H2201 0.962 . S
C2188 H2202 0.960 . S
C2189 C2186 1.511 . S
C2189 H2203 0.961 . S
C2189 H2204 0.961 . S
C2189 H2205 0.961 . S
C2190 C2191 1.370 . S
C2190 C2192 1.363 . S
C2190 H2206 0.931 . S
C2191 C2190 1.370 . S
C2191 C2195 1.408 . S
C2192 C2190 1.363 . S
C2192 C2193 1.370 . S
C2192 C2196 1.524 . S
C2193 C2185 1.503 . S
C2193 C2192 1.370 . S
C2193 C2194 1.403 . S
C2194 C2193 1.403 . S
C2194 C2195 1.404 . S
C2194 C2197 1.539 . S
C2195 C2191 1.408 . S
C2195 C2194 1.404 . S
C2195 H2207 0.930 . S
C2196 C2192 1.524 . S
C2196 H2208 0.956 . S
C2196 H2209 0.961 . S
C2196 H2210 0.961 . S
C2197 C2194 1.539 . S
C2197 H2211 0.958 . S
C2197 H2212 0.961 . S
C2197 H2213 0.960 . S
H2198 C2182 0.931 . S
H2199 C2187 0.929 . S
H2200 C2188 0.960 . S
H2201 C2188 0.962 . S
H2202 C2188 0.960 . S
H2203 C2189 0.961 . S
H2204 C2189 0.961 . S
H2205 C2189 0.961 . S
H2206 C2190 0.931 . S
H2207 C2195 0.930 . S
H2208 C2196 0.956 . S
H2209 C2196 0.961 . S
H2210 C2196 0.961 . S
H2211 C2197 0.958 . S
H2212 C2197 0.961 . S
H2213 C2197 0.960 . S
C2214 C2215 1.391 . S
C2214 C2216 1.394 . S
C2214 H2230 0.931 . S
C2215 C2214 1.391 . S
C2215 C2219 1.376 . S
C2216 C2214 1.394 . S
C2216 C2217 1.369 . S
C2216 C2220 1.531 . S
C2217 C2216 1.369 . S
C2217 C2218 1.410 . S
C2217 C2225 1.503 . S
C2218 C2217 1.410 . S
C2218 C2219 1.392 . S
C2218 C2221 1.511 . S
C2219 C2215 1.376 . S
C2219 C2218 1.392 . S
C2219 H2231 0.929 . S
C2220 C2216 1.531 . S
C2220 H2232 0.960 . S
C2220 H2233 0.962 . S
C2220 H2234 0.960 . S
C2221 C2218 1.511 . S
C2221 H2235 0.961 . S
C2221 H2236 0.961 . S
C2221 H2237 0.961 . S
C2222 C2223 1.370 . S
C2222 C2224 1.363 . S
C2222 H2238 0.931 . S
C2223 C2222 1.370 . S
C2223 C2227 1.408 . S
C2224 C2222 1.363 . S
C2224 C2225 1.370 . S
C2224 C2228 1.524 . S
C2225 C2217 1.503 . S
C2225 C2224 1.370 . S
C2225 C2226 1.403 . S
C2226 C2225 1.403 . S
C2226 C2227 1.404 . S
C2226 C2229 1.539 . S
C2227 C2223 1.408 . S
C2227 C2226 1.404 . S
C2227 H2239 0.930 . S
C2228 C2224 1.524 . S
C2228 H2240 0.956 . S
C2228 H2241 0.961 . S
C2228 H2242 0.961 . S
C2229 C2226 1.539 . S
C2229 H2243 0.958 . S
C2229 H2244 0.961 . S
C2229 H2245 0.960 . S
H2230 C2214 0.931 . S
H2231 C2219 0.929 . S
H2232 C2220 0.960 . S
H2233 C2220 0.962 . S
H2234 C2220 0.960 . S
H2235 C2221 0.961 . S
H2236 C2221 0.961 . S
H2237 C2221 0.961 . S
H2238 C2222 0.931 . S
H2239 C2227 0.930 . S
H2240 C2228 0.956 . S
H2241 C2228 0.961 . S
H2242 C2228 0.961 . S
H2243 C2229 0.958 . S
H2244 C2229 0.961 . S
H2245 C2229 0.960 . S
C2246 C2247 1.391 . S
C2246 C2248 1.394 . S
C2246 H2262 0.931 . S
C2247 C2246 1.391 . S
C2247 C2251 1.376 . S
C2248 C2246 1.394 . S
C2248 C2249 1.369 . S
C2248 C2252 1.531 . S
C2249 C2248 1.369 . S
C2249 C2250 1.410 . S
C2249 C2257 1.503 . S
C2250 C2249 1.410 . S
C2250 C2251 1.392 . S
C2250 C2253 1.511 . S
C2251 C2247 1.376 . S
C2251 C2250 1.392 . S
C2251 H2263 0.929 . S
C2252 C2248 1.531 . S
C2252 H2264 0.960 . S
C2252 H2265 0.962 . S
C2252 H2266 0.960 . S
C2253 C2250 1.511 . S
C2253 H2267 0.961 . S
C2253 H2268 0.961 . S
C2253 H2269 0.961 . S
C2254 C2255 1.370 . S
C2254 C2256 1.363 . S
C2254 H2270 0.931 . S
C2255 C2254 1.370 . S
C2255 C2259 1.408 . S
C2256 C2254 1.363 . S
C2256 C2257 1.370 . S
C2256 C2260 1.524 . S
C2257 C2249 1.503 . S
C2257 C2256 1.370 . S
C2257 C2258 1.403 . S
C2258 C2257 1.403 . S
C2258 C2259 1.404 . S
C2258 C2261 1.539 . S
C2259 C2255 1.408 . S
C2259 C2258 1.404 . S
C2259 H2271 0.930 . S
C2260 C2256 1.524 . S
C2260 H2272 0.956 . S
C2260 H2273 0.961 . S
C2260 H2274 0.961 . S
C2261 C2258 1.539 . S
C2261 H2275 0.958 . S
C2261 H2276 0.961 . S
C2261 H2277 0.960 . S
H2262 C2246 0.931 . S
H2263 C2251 0.929 . S
H2264 C2252 0.960 . S
H2265 C2252 0.962 . S
H2266 C2252 0.960 . S
H2267 C2253 0.961 . S
H2268 C2253 0.961 . S
H2269 C2253 0.961 . S
H2270 C2254 0.931 . S
H2271 C2259 0.930 . S
H2272 C2260 0.956 . S
H2273 C2260 0.961 . S
H2274 C2260 0.961 . S
H2275 C2261 0.958 . S
H2276 C2261 0.961 . S
H2277 C2261 0.960 . S
C2278 C2279 1.391 . S
C2278 C2280 1.394 . S
C2278 H2294 0.931 . S
C2279 C2278 1.391 . S
C2279 C2283 1.376 . S
C2280 C2278 1.394 . S
C2280 C2281 1.369 . S
C2280 C2284 1.531 . S
C2281 C2280 1.369 . S
C2281 C2282 1.410 . S
C2281 C2289 1.503 . S
C2282 C2281 1.410 . S
C2282 C2283 1.392 . S
C2282 C2285 1.511 . S
C2283 C2279 1.376 . S
C2283 C2282 1.392 . S
C2283 H2295 0.929 . S
C2284 C2280 1.531 . S
C2284 H2296 0.960 . S
C2284 H2297 0.962 . S
C2284 H2298 0.960 . S
C2285 C2282 1.511 . S
C2285 H2299 0.961 . S
C2285 H2300 0.961 . S
C2285 H2301 0.961 . S
C2286 C2287 1.370 . S
C2286 C2288 1.363 . S
C2286 H2302 0.931 . S
C2287 C2286 1.370 . S
C2287 C2291 1.408 . S
C2288 C2286 1.363 . S
C2288 C2289 1.370 . S
C2288 C2292 1.524 . S
C2289 C2281 1.503 . S
C2289 C2288 1.370 . S
C2289 C2290 1.403 . S
C2290 C2289 1.403 . S
C2290 C2291 1.404 . S
C2290 C2293 1.539 . S
C2291 C2287 1.408 . S
C2291 C2290 1.404 . S
C2291 H2303 0.930 . S
C2292 C2288 1.524 . S
C2292 H2304 0.956 . S
C2292 H2305 0.961 . S
C2292 H2306 0.961 . S
C2293 C2290 1.539 . S
C2293 H2307 0.958 . S
C2293 H2308 0.961 . S
C2293 H2309 0.960 . S
H2294 C2278 0.931 . S
H2295 C2283 0.929 . S
H2296 C2284 0.960 . S
H2297 C2284 0.962 . S
H2298 C2284 0.960 . S
H2299 C2285 0.961 . S
H2300 C2285 0.961 . S
H2301 C2285 0.961 . S
H2302 C2286 0.931 . S
H2303 C2291 0.930 . S
H2304 C2292 0.956 . S
H2305 C2292 0.961 . S
H2306 C2292 0.961 . S
H2307 C2293 0.958 . S
H2308 C2293 0.961 . S
H2309 C2293 0.960 . S
C2310 C2311 1.391 . S
C2310 C2312 1.394 . S
C2310 H2326 0.931 . S
C2311 C2310 1.391 . S
C2311 C2315 1.376 . S
C2312 C2310 1.394 . S
C2312 C2313 1.369 . S
C2312 C2316 1.531 . S
C2313 C2312 1.369 . S
C2313 C2314 1.410 . S
C2313 C2321 1.503 . S
C2314 C2313 1.410 . S
C2314 C2315 1.392 . S
C2314 C2317 1.511 . S
C2315 C2311 1.376 . S
C2315 C2314 1.392 . S
C2315 H2327 0.929 . S
C2316 C2312 1.531 . S
C2316 H2328 0.960 . S
C2316 H2329 0.962 . S
C2316 H2330 0.960 . S
C2317 C2314 1.511 . S
C2317 H2331 0.961 . S
C2317 H2332 0.961 . S
C2317 H2333 0.961 . S
C2318 C2319 1.370 . S
C2318 C2320 1.363 . S
C2318 H2334 0.931 . S
C2319 C2318 1.370 . S
C2319 C2323 1.408 . S
C2320 C2318 1.363 . S
C2320 C2321 1.370 . S
C2320 C2324 1.524 . S
C2321 C2313 1.503 . S
C2321 C2320 1.370 . S
C2321 C2322 1.403 . S
C2322 C2321 1.403 . S
C2322 C2323 1.404 . S
C2322 C2325 1.539 . S
C2323 C2319 1.408 . S
C2323 C2322 1.404 . S
C2323 H2335 0.930 . S
C2324 C2320 1.524 . S
C2324 H2336 0.956 . S
C2324 H2337 0.961 . S
C2324 H2338 0.961 . S
C2325 C2322 1.539 . S
C2325 H2339 0.958 . S
C2325 H2340 0.961 . S
C2325 H2341 0.960 . S
H2326 C2310 0.931 . S
H2327 C2315 0.929 . S
H2328 C2316 0.960 . S
H2329 C2316 0.962 . S
H2330 C2316 0.960 . S
H2331 C2317 0.961 . S
H2332 C2317 0.961 . S
H2333 C2317 0.961 . S
H2334 C2318 0.931 . S
H2335 C2323 0.930 . S
H2336 C2324 0.956 . S
H2337 C2324 0.961 . S
H2338 C2324 0.961 . S
H2339 C2325 0.958 . S
H2340 C2325 0.961 . S
H2341 C2325 0.960 . S
C2342 C2343 1.391 . S
C2342 C2344 1.394 . S
C2342 H2358 0.931 . S
C2343 C2342 1.391 . S
C2343 C2347 1.376 . S
C2344 C2342 1.394 . S
C2344 C2345 1.369 . S
C2344 C2348 1.531 . S
C2345 C2344 1.369 . S
C2345 C2346 1.410 . S
C2345 C2353 1.503 . S
C2346 C2345 1.410 . S
C2346 C2347 1.392 . S
C2346 C2349 1.511 . S
C2347 C2343 1.376 . S
C2347 C2346 1.392 . S
C2347 H2359 0.929 . S
C2348 C2344 1.531 . S
C2348 H2360 0.960 . S
C2348 H2361 0.962 . S
C2348 H2362 0.960 . S
C2349 C2346 1.511 . S
C2349 H2363 0.961 . S
C2349 H2364 0.961 . S
C2349 H2365 0.961 . S
C2350 C2351 1.370 . S
C2350 C2352 1.363 . S
C2350 H2366 0.931 . S
C2351 C2350 1.370 . S
C2351 C2355 1.408 . S
C2352 C2350 1.363 . S
C2352 C2353 1.370 . S
C2352 C2356 1.524 . S
C2353 C2345 1.503 . S
C2353 C2352 1.370 . S
C2353 C2354 1.403 . S
C2354 C2353 1.403 . S
C2354 C2355 1.404 . S
C2354 C2357 1.539 . S
C2355 C2351 1.408 . S
C2355 C2354 1.404 . S
C2355 H2367 0.930 . S
C2356 C2352 1.524 . S
C2356 H2368 0.956 . S
C2356 H2369 0.961 . S
C2356 H2370 0.961 . S
C2357 C2354 1.539 . S
C2357 H2371 0.958 . S
C2357 H2372 0.961 . S
C2357 H2373 0.960 . S
H2358 C2342 0.931 . S
H2359 C2347 0.929 . S
H2360 C2348 0.960 . S
H2361 C2348 0.962 . S
H2362 C2348 0.960 . S
H2363 C2349 0.961 . S
H2364 C2349 0.961 . S
H2365 C2349 0.961 . S
H2366 C2350 0.931 . S
H2367 C2355 0.930 . S
H2368 C2356 0.956 . S
H2369 C2356 0.961 . S
H2370 C2356 0.961 . S
H2371 C2357 0.958 . S
H2372 C2357 0.961 . S
H2373 C2357 0.960 . S
C2374 C2375 1.391 . S
C2374 C2376 1.394 . S
C2374 H2390 0.931 . S
C2375 C2374 1.391 . S
C2375 C2379 1.376 . S
C2376 C2374 1.394 . S
C2376 C2377 1.369 . S
C2376 C2380 1.531 . S
C2377 C2376 1.369 . S
C2377 C2378 1.410 . S
C2377 C2385 1.503 . S
C2378 C2377 1.410 . S
C2378 C2379 1.392 . S
C2378 C2381 1.511 . S
C2379 C2375 1.376 . S
C2379 C2378 1.392 . S
C2379 H2391 0.929 . S
C2380 C2376 1.531 . S
C2380 H2392 0.960 . S
C2380 H2393 0.962 . S
C2380 H2394 0.960 . S
C2381 C2378 1.511 . S
C2381 H2395 0.961 . S
C2381 H2396 0.961 . S
C2381 H2397 0.961 . S
C2382 C2383 1.370 . S
C2382 C2384 1.363 . S
C2382 H2398 0.931 . S
C2383 C2382 1.370 . S
C2383 C2387 1.408 . S
C2384 C2382 1.363 . S
C2384 C2385 1.370 . S
C2384 C2388 1.524 . S
C2385 C2377 1.503 . S
C2385 C2384 1.370 . S
C2385 C2386 1.403 . S
C2386 C2385 1.403 . S
C2386 C2387 1.404 . S
C2386 C2389 1.539 . S
C2387 C2383 1.408 . S
C2387 C2386 1.404 . S
C2387 H2399 0.930 . S
C2388 C2384 1.524 . S
C2388 H2400 0.956 . S
C2388 H2401 0.961 . S
C2388 H2402 0.961 . S
C2389 C2386 1.539 . S
C2389 H2403 0.958 . S
C2389 H2404 0.961 . S
C2389 H2405 0.960 . S
H2390 C2374 0.931 . S
H2391 C2379 0.929 . S
H2392 C2380 0.960 . S
H2393 C2380 0.962 . S
H2394 C2380 0.960 . S
H2395 C2381 0.961 . S
H2396 C2381 0.961 . S
H2397 C2381 0.961 . S
H2398 C2382 0.931 . S
H2399 C2387 0.930 . S
H2400 C2388 0.956 . S
H2401 C2388 0.961 . S
H2402 C2388 0.961 . S
H2403 C2389 0.958 . S
H2404 C2389 0.961 . S
H2405 C2389 0.960 . S
C879 C699 1.310 . S
C871 C75 1.277 . S
C911 C700 1.007 . S
C903 C156 0.958 . S
C943 C694 1.454 . S
C935 C243 1.373 . S
C967 C315 0.753 . S
C975 C693 0.606 . S
C999 C399 0.773 . S
C1007 C696 0.560 . S
C1039 C698 1.229 . S
C1031 C495 1.202 . S
C1063 C576 0.972 . S
C1071 C697 1.099 . S
C1095 C654 1.220 . S
C1103 C695 1.253 . S
C1135 C730 1.031 . S
C1127 C72 0.916 . S
C1159 C140 1.502 . S
C1167 C761 1.468 . S
C1199 C729 1.054 . S
C1191 C240 0.986 . S
C1231 C764 0.902 . S
C1223 C318 0.897 . S
C1255 C402 1.070 . S
C1263 C727 1.166 . S
C1295 C759 1.768 1_556 S
C1287 C492 1.629 . S
C1319 C560 1.131 . S
C1327 C732 1.219 . S
C1351 C655 2.666 . S
C1359 C766 2.703 1_556 S
C1383 C56 3.097 . S
C1391 C762 3.206 . S
C1415 C403 1.846 . S
C1423 C765 1.786 1_556 S
C1455 C733 2.272 . S
C1447 C476 2.131 . S
C1487 C760 1.582 1_556 S
C1479 C579 1.528 . S
C1511 C651 1.425 . S
C1519 C726 1.516 . S
C1543 C224 3.067 . S
C1551 C763 3.225 . S
C1583 C728 1.413 . S
C1575 C319 1.458 . S
C1607 C159 1.855 . S
C1615 C731 1.917 . S
C1639 C663 1.275 . S
C1647 C798 1.203 . S
C1671 C408 0.783 . S
C1679 C799 0.321 . S
C1711 C793 1.359 . S
C1703 C486 1.278 . S
C1743 C792 1.418 . S
C1735 C567 1.248 . S
C1767 C147 0.595 . S
C1775 C795 0.590 . S
C1807 C797 1.310 . S
C1799 C234 1.329 . S
C1831 C324 0.891 . S
C1839 C796 0.977 . S
C1863 C66 1.291 . S
C1871 C794 1.223 . S
C1895 C660 1.393 . S
C1903 C832 1.507 . S
C1935 C864 1.342 . S
C1927 C392 1.391 . S
C1959 C487 2.014 . S
C1967 C825 2.179 . S
C1991 C570 1.799 . S
C1999 C859 1.906 . S
C2031 C830 1.663 . S
C2023 C150 1.554 . S
C2055 C235 3.272 . S
C2063 C861 3.395 . S
C2095 C827 1.709 . S
C2087 C308 1.748 . S
C2127 C862 3.138 . S
C2119 C67 2.906 . S
C2159 C858 2.618 . S
C2151 C644 2.421 . S
C2183 C151 1.113 . S
C2191 C860 1.153 . S
C2215 C231 0.894 . S
C2223 C829 0.947 . S
C2255 C863 1.158 . S
C2247 C327 1.120 . S
C2279 C63 1.063 . S
C2287 C828 1.083 . S
C2311 C483 1.792 . S
C2319 C865 1.893 . S
C2351 C831 1.391 . S
C2343 C571 1.389 . S
C2383 C826 0.896 . S
C2375 C411 0.867 . S
