# Generated by pormake.
# Topology scu, (8,4)-cn, num edge types: 1
# Building blocks:
#     Node 0, Type 0, BuildingBlock: GIZVER_clean_sbu_0, # of connection points: 8
#     Node 1, Type 1, BuildingBlock: ESEHIV_clean_sbu_0, # of connection points: 4
#     Node 2, Type 1, BuildingBlock: ESEHIV_clean_sbu_0, # of connection points: 4
#     Edge 3, Type (0, 1), BuildingBlock: XUDNAN_clean_linker_2, # of connection points: 2
#     Edge 4, Type (0, 1), BuildingBlock: XUDNAN_clean_linker_2, # of connection points: 2
#     Edge 5, Type (0, 1), BuildingBlock: XUDNAN_clean_linker_2, # of connection points: 2
#     Edge 6, Type (0, 1), BuildingBlock: XUDNAN_clean_linker_2, # of connection points: 2
#     Edge 7, Type (0, 1), BuildingBlock: XUDNAN_clean_linker_2, # of connection points: 2
#     Edge 8, Type (0, 1), BuildingBlock: XUDNAN_clean_linker_2, # of connection points: 2
#     Edge 9, Type (0, 1), BuildingBlock: XUDNAN_clean_linker_2, # of connection points: 2
#     Edge 10, Type (0, 1), BuildingBlock: XUDNAN_clean_linker_2, # of connection points: 2
# Relax obj value: 0.031
# Max RMSD: 0.139
# Mean RMSD: 0.115
data_MOF--net-scu--node1-GIZVER_clean_sbu_0--node2-ESEHIV_clean_sbu_0--edge1-XUDNAN_clean_linker_2
_symmetry_space_group_name_H-M    P1
_symmetry_Int_Tables_number       1
_symmetry_cell_setting            triclinic
loop_
_symmetry_equiv_pos_as_xyz
'x, y, z'
_cell_length_a     24.699136
_cell_length_b     25.552698
_cell_length_c     22.547838
_cell_angle_alpha  103.28234
_cell_angle_beta   86.314512
_cell_angle_gamma 111.95471
loop_
_atom_site_label
_atom_site_type_symbol
_atom_site_fract_x
_atom_site_fract_y
_atom_site_fract_z
_atom_type_partial_charge
Co0 Co 0.02905 0.95655 0.12304 0.0
Co1 Co 0.107 0.04656 0.09937 0.0
Co2 Co 0.99944 1.02164 1.01119 0.0
O3 O 0.04683 0.98874 0.05051 0.0
H4 H 0.06293 0.96587 1.0197 0.0
O5 O 0.95374 0.0577 0.97427 0.0
Co6 Co 0.9818 0.08921 0.90341 0.0
Co7 Co 0.89045 1.00731 0.92649 0.0
H8 H 0.94099 0.08368 1.00486 0.0
O9 O 0.17591 0.03897 0.103 0.0
O10 O 0.10069 1.01924 0.16889 0.0
O11 O 0.10666 0.12318 0.1233 0.0
O12 O 0.02692 0.10029 0.06822 0.0
O13 O 0.06583 0.04407 0.95263 0.0
O14 O 1.00736 0.12322 0.84083 0.0
O15 O 0.96049 0.15253 0.92278 0.0
O16 O 1.00898 0.0291 0.87388 0.0
O17 O 0.96828 0.94265 0.95293 0.0
O18 O 0.88688 0.92925 0.90282 0.0
O19 O 0.90586 0.04162 0.85992 0.0
O20 O 0.82768 0.02839 0.92042 0.0
C21 C 0.04925 0.89622 0.15661 0.0
C22 C 0.93569 1.00046 0.12549 0.0
C23 C 0.06576 0.1358 0.10755 0.0
C24 C 0.15601 0.02998 0.1561 0.0
C25 C 0.98642 0.16089 0.87132 0.0
C26 C 0.05616 0.0306 0.89487 0.0
C27 C 0.92539 0.91129 0.91534 0.0
C28 C 0.85561 0.04661 0.87376 0.0
O29 O 1.01542 0.92156 0.18605 0.0
O30 O 0.07034 0.90886 0.10469 0.0
O31 O 0.93364 0.9971 0.06803 0.0
O32 O 0.98 1.00037 0.152 0.0
Cu33 Cu 0.04836 0.54859 0.51867 0.0
N34 N 0.08026 0.521 0.57372 0.0
N35 N 0.07838 0.46636 0.63987 0.0
C36 C 0.04715 0.48683 0.61054 0.0
C37 C 0.13359 0.48887 0.62096 0.0
C38 C 0.13468 0.52257 0.58046 0.0
O39 O 1.01544 0.4825 0.4508 0.0
C40 C 0.02384 0.62367 0.60977 0.0
O41 O 0.08078 0.63896 0.61375 0.0
H42 H 1.00032 0.47507 0.61352 0.0
H43 H 0.1722 0.54465 0.55605 0.0
N44 N 0.09924 0.60825 0.48218 0.0
N45 N 0.12514 0.66898 0.41821 0.0
C46 C 0.0806 0.63343 0.4453 0.0
C47 C 0.15785 0.62925 0.47878 0.0
C48 C 0.17385 0.66638 0.43923 0.0
C49 C 0.05536 0.466 0.42414 0.0
O50 O 0.10941 0.49466 0.44456 0.0
H51 H 0.03492 0.62339 0.43599 0.0
H52 H 0.1869 0.61683 0.50135 0.0
O53 O 0.9958 0.58101 0.56723 0.0
H54 H 0.17051 0.48099 0.63478 0.0
H55 H 0.21789 0.68883 0.42599 0.0
Cu56 Cu 0.50755 1.01982 0.52709 0.0
N57 N 0.45286 0.98248 0.58088 0.0
N58 N 0.37637 0.96728 0.64295 0.0
C59 C 0.40301 0.99173 0.59651 0.0
C60 C 0.41106 0.94187 0.65776 0.0
C61 C 0.45822 0.95127 0.61935 0.0
O62 O 0.46812 0.0492 0.47815 0.0
C63 C 0.57623 0.09529 0.63188 0.0
O64 O 0.52687 0.0837 0.66109 0.0
H65 H 0.38805 1.01858 0.57627 0.0
H66 H 0.49514 0.93865 0.62134 0.0
N67 N 0.54053 0.97279 0.47314 0.0
N68 N 0.60419 0.95651 0.40249 0.0
C69 C 0.57155 0.98871 0.42444 0.0
C70 C 0.55383 0.92871 0.48233 0.0
C71 C 0.59293 0.91847 0.43874 0.0
C72 C 0.42048 1.01362 0.45076 0.0
O73 O 0.40097 0.95962 0.45634 0.0
H74 H 0.57392 0.02647 0.40872 0.0
H75 H 0.53952 0.90823 0.5205 0.0
O76 O 0.57498 0.0787 0.5741 0.0
H77 H 0.40328 0.91883 0.6941 0.0
H78 H 0.61326 0.88707 0.43556 0.0
H79 H 0.13868 0.22292 0.19508 0.0
H80 H 0.97216 0.16779 0.1006 0.0
H81 H 0.95071 0.24727 0.16988 0.0
H82 H 0.08924 0.25627 0.34199 0.0
H83 H 0.15408 0.31862 0.36917 0.0
H84 H 0.15876 0.26082 0.30868 0.0
H85 H 0.2061 0.33314 0.23911 0.0
H86 H 0.20246 0.39141 0.29978 0.0
H87 H 0.16972 0.37909 0.22618 0.0
H88 H 0.94374 0.32863 0.25731 0.0
H89 H 0.95719 0.40941 0.348 0.0
H90 H 0.12816 0.40942 0.38185 0.0
C91 C 0.09824 0.22819 0.18794 0.0
C92 C 0.05733 0.18904 0.14212 0.0
C93 C 1.0046 0.19738 0.13498 0.0
C94 C 0.99178 0.2423 0.17438 0.0
C95 C 0.03229 0.27891 0.22039 0.0
C96 C 0.08485 0.27277 0.22661 0.0
C97 C 0.12034 0.31641 0.2807 0.0
C98 C 0.13121 0.28621 0.3279 0.0
C99 C 0.17806 0.35745 0.2602 0.0
C100 C 0.07932 0.34756 0.30447 0.0
C101 C 0.0286 0.3255 0.26948 0.0
C102 C 0.98365 0.34666 0.28461 0.0
C103 C 0.99141 0.39221 0.33629 0.0
C104 C 0.0438 0.41597 0.37169 0.0
C105 C 0.0878 0.39279 0.35541 0.0
H106 H 0.90395 0.97029 0.23646 0.0
H107 H 0.84766 0.03118 0.09593 0.0
H108 H 0.75748 0.02715 0.15197 0.0
H109 H 0.76321 0.86912 0.26089 0.0
H110 H 0.7738 0.88197 0.34208 0.0
H111 H 0.83567 0.89265 0.293 0.0
H112 H 0.88459 0.99794 0.35482 0.0
H113 H 0.82306 0.98749 0.4044 0.0
H114 H 0.84538 0.0463 0.36562 0.0
H115 H 0.67245 1.0155 0.2227 0.0
H116 H 0.59851 0.99589 0.30225 0.0
H117 H 0.70771 0.93954 0.3956 0.0
C118 C 0.87302 0.9835 0.21785 0.0
C119 C 0.88324 1.00135 0.16174 0.0
C120 C 0.84101 1.01733 0.13866 0.0
C121 C 0.78958 1.01524 0.17025 0.0
C122 C 0.78048 0.99667 0.22484 0.0
C123 C 0.82097 0.98102 0.2485 0.0
C124 C 0.79956 0.96085 0.30709 0.0
C125 C 0.79265 0.89738 0.30033 0.0
C126 C 0.84059 1.00052 0.36118 0.0
C127 C 0.74066 0.96739 0.31254 0.0
C128 C 0.73076 0.98853 0.26481 0.0
C129 C 0.6798 0.99895 0.26026 0.0
C130 C 0.63806 0.98781 0.30575 0.0
C131 C 0.64697 0.96596 0.35512 0.0
C132 C 0.69906 0.95541 0.35809 0.0
H133 H 1.00678 0.8568 0.2606 0.0
H134 H 0.1304 0.84625 0.11699 0.0
H135 H 0.16171 0.78519 0.16707 0.0
H136 H 0.09754 0.86693 0.38298 0.0
H137 H 0.03816 0.82448 0.42326 0.0
H138 H 0.02486 0.86548 0.37455 0.0
H139 H 0.94565 0.77147 0.31463 0.0
H140 H 0.95959 0.73059 0.36311 0.0
H141 H 0.96482 0.7096 0.28162 0.0
H142 H 0.18469 0.73097 0.23792 0.0
H143 H 0.19155 0.68171 0.31812 0.0
H144 H 0.05026 0.72408 0.41346 0.0
C145 C 0.03997 0.84114 0.23912 0.0
C146 C 0.06584 0.85628 0.18437 0.0
C147 C 0.10948 0.83504 0.15843 0.0
C148 C 0.12758 0.80027 0.18666 0.0
C149 C 0.10149 0.78666 0.24082 0.0
C150 C 0.05826 0.80613 0.26649 0.0
C151 C 0.03814 0.78663 0.32568 0.0
C152 C 0.0504 0.83901 0.3798 0.0
C153 C 0.97319 0.74722 0.32095 0.0
C154 C 0.07682 0.75319 0.32956 0.0
C155 C 0.11364 0.75441 0.28059 0.0
C156 C 0.1555 0.72921 0.27595 0.0
C157 C 0.15936 0.7016 0.32196 0.0
C158 C 0.12122 0.6986 0.3719 0.0
C159 C 0.07936 0.72481 0.37539 0.0
H160 H 0.14646 0.97314 0.24972 0.0
H161 H 0.26474 0.11163 0.16986 0.0
H162 H 0.34205 0.12878 0.24363 0.0
H163 H 0.20352 0.03823 0.41005 0.0
H164 H 0.19542 0.96905 0.4241 0.0
H165 H 0.14674 0.97333 0.37071 0.0
H166 H 0.17459 0.90035 0.28783 0.0
H167 H 0.22322 0.8957 0.34062 0.0
H168 H 0.25001 0.91461 0.26903 0.0
H169 H 0.40865 0.12827 0.32168 0.0
H170 H 0.46223 0.10445 0.39403 0.0
H171 H 0.30411 0.96233 0.41947 0.0
C172 C 0.1883 1.00763 0.24864 0.0
C173 C 0.19957 0.04111 0.20414 0.0
C174 C 0.25522 0.08528 0.20342 0.0
C175 C 0.29938 0.09568 0.24541 0.0
C176 C 0.28756 0.06131 0.28786 0.0
C177 C 0.23357 1.01797 0.28979 0.0
C178 C 0.23444 0.9841 0.33664 0.0
C179 C 0.19255 0.99165 0.38846 0.0
C180 C 0.21985 0.91984 0.30673 0.0
C181 C 0.29767 1.01384 0.35884 0.0
C182 C 0.32707 0.05928 0.33129 0.0
C183 C 0.38608 0.09292 0.34382 0.0
C184 C 0.41617 0.07917 0.38499 0.0
C185 C 0.38746 0.03148 0.41204 0.0
C186 C 0.32728 0.99892 0.3992 0.0
H187 H 0.01996 0.88142 0.88309 0.0
H188 H 0.83185 0.81811 0.85837 0.0
H189 H 0.83503 0.7334 0.78076 0.0
H190 H 0.04907 0.84854 0.72932 0.0
H191 H 0.11014 0.82886 0.73973 0.0
H192 H 0.09181 0.87931 0.79928 0.0
H193 H 0.08374 0.81538 0.87568 0.0
H194 H 0.10243 0.76463 0.81659 0.0
H195 H 0.03602 0.74022 0.85785 0.0
H196 H 0.86047 0.65988 0.69868 0.0
H197 H 0.90601 0.60342 0.62188 0.0
H198 H 0.07697 0.71819 0.69989 0.0
C199 C 0.97917 0.8487 0.863 0.0
C200 C 0.92552 0.85577 0.87753 0.0
C201 C 0.87337 0.81313 0.84836 0.0
C202 C 0.87476 0.76496 0.80417 0.0
C203 C 0.9287 0.7603 0.78939 0.0
C204 C 0.97991 0.80097 0.81824 0.0
C205 C 0.03269 0.78901 0.7907 0.0
C206 C 0.07328 0.83938 0.76308 0.0
C207 C 0.06563 0.77653 0.83803 0.0
C208 C 1.00326 0.73535 0.74173 0.0
C209 C 0.9433 0.71916 0.74161 0.0
C210 C 0.90738 0.67186 0.69876 0.0
C211 C 0.93354 0.64016 0.6552 0.0
C212 C 0.99495 0.65616 0.65489 0.0
C213 C 0.02984 0.7044 0.69892 0.0
H214 H 0.16078 1.01649 0.91411 0.0
H215 H 0.04771 1.01326 0.77206 0.0
H216 H 0.11461 0.99185 0.69448 0.0
H217 H 0.29658 0.0842 0.84583 0.0
H218 H 0.33313 0.04137 0.86628 0.0
H219 H 0.27525 0.05428 0.91256 0.0
H220 H 0.21969 0.94373 0.89947 0.0
H221 H 0.27771 0.93069 0.85337 0.0
H222 H 0.20361 0.89815 0.82389 0.0
H223 H 0.19399 0.97638 0.63135 0.0
H224 H 0.28344 0.96557 0.58535 0.0
H225 H 0.34802 0.97567 0.76369 0.0
C226 C 0.1502 1.01118 0.8667 0.0
C227 C 0.09866 1.01694 0.84979 0.0
C228 C 0.08652 1.00923 0.78694 0.0
C229 C 0.12435 0.99693 0.74205 0.0
C230 C 0.17455 0.99188 0.75997 0.0
C231 C 0.18777 0.99837 0.82053 0.0
C232 C 0.24549 0.99094 0.82617 0.0
C233 C 0.29026 0.04599 0.86501 0.0
C234 C 0.23605 0.93771 0.85228 0.0
C235 C 0.26303 0.98122 0.75963 0.0
C236 C 0.22089 0.98156 0.72252 0.0
C237 C 0.22724 0.97564 0.65979 0.0
C238 C 0.27834 0.96983 0.63408 0.0
C239 C 0.32274 0.96979 0.67073 0.0
C240 C 0.31451 0.97479 0.73441 0.0
H241 H 0.06343 0.20544 0.78653 0.0
H242 H 0.92103 0.23041 0.89696 0.0
H243 H 0.92856 0.31158 0.84975 0.0
H244 H 0.14856 0.35656 0.79527 0.0
H245 H 0.17334 0.34453 0.71817 0.0
H246 H 0.15591 0.28867 0.76044 0.0
H247 H 0.08278 0.21679 0.67472 0.0
H248 H 0.09987 0.27241 0.63219 0.0
H249 H 0.02528 0.23542 0.65101 0.0
H250 H 0.9507 0.38898 0.78611 0.0
H251 H 0.98827 0.45756 0.71785 0.0
H252 H 0.11847 0.3833 0.65263 0.0
C253 C 0.03379 0.22798 0.80103 0.0
C254 C 0.99158 0.21146 0.84568 0.0
C255 C 0.95398 0.24246 0.86333 0.0
C256 C 0.95783 0.28848 0.83648 0.0
C257 C 0.99996 0.30349 0.79245 0.0
C258 C 0.03758 0.2743 0.77536 0.0
C259 C 0.07961 0.29899 0.72778 0.0
C260 C 0.14311 0.32365 0.75187 0.0
C261 C 0.07137 0.25317 0.66788 0.0
C262 C 0.05994 0.34674 0.72038 0.0
C263 C 1.01361 0.34845 0.75763 0.0
C264 C 0.98716 0.38803 0.75717 0.0
C265 C 1.00864 0.42673 0.718 0.0
C266 C 0.05663 0.4263 0.68003 0.0
C267 C 0.08242 0.38557 0.68167 0.0
H268 H 0.75161 0.06238 0.89049 0.0
H269 H 0.89698 0.08197 0.76758 0.0
H270 H 0.84715 0.11346 0.69906 0.0
H271 H 0.64252 1.00021 0.78053 0.0
H272 H 0.59484 0.03529 0.81923 0.0
H273 H 0.64608 1.02342 0.86248 0.0
H274 H 0.68949 0.13311 0.91214 0.0
H275 H 0.63842 0.14537 0.86857 0.0
H276 H 0.71569 0.18478 0.86434 0.0
H277 H 0.77512 0.12913 0.63728 0.0
H278 H 0.68722 0.12525 0.58723 0.0
H279 H 0.59013 0.09739 0.75183 0.0
C280 C 0.77359 0.07429 0.84975 0.0
C281 C 0.82826 0.06964 0.83448 0.0
C282 C 0.85518 0.08525 0.78042 0.0
C283 C 0.8273 0.10348 0.74131 0.0
C284 C 0.77277 0.10638 0.75717 0.0
C285 C 0.74644 0.09252 0.81038 0.0
C286 C 0.68561 0.09404 0.81455 0.0
C287 C 0.63959 0.03472 0.81944 0.0
C288 C 0.68212 0.1422 0.86808 0.0
C289 C 0.68058 0.10819 0.75403 0.0
C290 C 0.73164 0.11617 0.72197 0.0
C291 C 0.73537 0.12415 0.66249 0.0
C292 C 0.68516 0.12193 0.63442 0.0
C293 C 0.63179 0.1115 0.66571 0.0
C294 C 0.63042 0.10668 0.72703 0.0
loop_
_geom_bond_atom_site_label_1
_geom_bond_atom_site_label_2
_geom_bond_distance
_geom_bond_site_symmetry_2
_ccdc_geom_bond_type
Co0 O3 2.042 . S
Co0 O10 2.264 1_565 S
Co0 O29 2.286 1_455 S
Co0 O30 2.069 . S
Co0 O32 2.015 1_455 S
Co1 O3 2.122 1_545 S
Co1 O9 2.073 . S
Co1 O10 2.327 . S
Co1 O11 1.976 . S
Co2 O3 2.087 1_545 S
Co2 O5 2.087 1_454 S
Co2 O12 2.111 . S
Co2 O13 2.143 1_554 S
Co2 O17 2.111 1_444 S
Co2 O31 2.143 1_445 S
O3 Co0 2.042 . S
O3 Co1 2.122 1_565 S
O3 Co2 2.087 1_565 S
O3 H4 0.980 . S
H4 O3 0.980 . S
O5 Co2 2.087 1_656 S
O5 Co6 2.042 1_655 S
O5 Co7 2.122 1_545 S
O5 H8 0.980 . S
Co6 O5 2.042 1_455 S
Co6 O14 2.286 . S
Co6 O15 2.069 1_455 S
Co6 O16 2.015 . S
Co6 O19 2.264 1_455 S
Co7 O5 2.122 1_565 S
Co7 O18 1.976 . S
Co7 O19 2.327 1_565 S
Co7 O20 2.073 . S
H8 O5 0.980 . S
O9 Co1 2.073 . S
O9 C24 1.245 . S
O10 Co0 2.264 1_545 S
O10 Co1 2.327 . S
O10 C24 1.257 . S
O11 Co1 1.976 . S
O11 C23 1.251 . S
O12 Co2 2.111 . S
O12 C23 1.274 . S
O13 Co2 2.143 1_556 S
O13 C26 1.246 . S
O14 Co6 2.286 . S
O14 C25 1.259 1_455 S
O15 Co6 2.069 1_655 S
O15 C25 1.289 . S
O16 Co6 2.015 . S
O16 C26 1.257 . S
O17 Co2 2.111 1_666 S
O17 C27 1.274 . S
O18 Co7 1.976 . S
O18 C27 1.251 . S
O19 Co6 2.264 1_655 S
O19 Co7 2.327 1_545 S
O19 C28 1.257 . S
O20 Co7 2.073 . S
O20 C28 1.245 1_565 S
C21 O29 1.259 1_455 S
C21 O30 1.289 . S
C22 O31 1.246 . S
C22 O32 1.257 . S
C23 O11 1.251 . S
C23 O12 1.274 . S
C24 O9 1.245 . S
C24 O10 1.257 . S
C25 O14 1.259 1_655 S
C25 O15 1.289 . S
C26 O13 1.246 . S
C26 O16 1.257 . S
C27 O17 1.274 . S
C27 O18 1.251 . S
C28 O19 1.257 . S
C28 O20 1.245 1_545 S
O29 Co0 2.286 1_655 S
O29 C21 1.259 1_655 S
O30 Co0 2.069 . S
O30 C21 1.289 . S
O31 Co2 2.143 1_665 S
O31 C22 1.246 . S
O32 Co0 2.015 1_655 S
O32 C22 1.257 . S
Cu33 N34 1.999 . S
Cu33 O39 1.974 . S
Cu33 N44 1.985 . S
Cu33 O53 1.959 . S
N34 Cu33 1.999 . S
N34 C36 1.263 . S
N34 C38 1.389 . S
N35 C36 1.358 . S
N35 C37 1.400 . S
C36 N34 1.263 . S
C36 N35 1.358 . S
C36 H42 0.930 1_655 S
C37 N35 1.400 . S
C37 C38 1.351 . S
C37 H54 0.930 . S
C38 N34 1.389 . S
C38 C37 1.351 . S
C38 H43 0.930 . S
O39 Cu33 1.974 . S
O39 C49 1.282 1_655 S
C40 O41 1.261 . S
C40 O53 1.251 1_455 S
O41 C40 1.261 . S
H42 C36 0.930 1_455 S
H43 C38 0.930 . S
N44 Cu33 1.985 . S
N44 C46 1.335 . S
N44 C47 1.390 1_655 S
N45 C46 1.345 . S
N45 C48 1.336 1_655 S
C46 N44 1.335 . S
C46 N45 1.345 . S
C46 H51 0.930 . S
C47 N44 1.390 1_455 S
C47 C48 1.346 . S
C47 H52 0.930 . S
C48 N45 1.336 1_455 S
C48 C47 1.346 . S
C48 H55 0.929 . S
C49 O39 1.282 1_455 S
C49 O50 1.216 . S
O50 C49 1.216 . S
H51 C46 0.930 . S
H52 C47 0.930 . S
O53 Cu33 1.959 . S
O53 C40 1.251 1_655 S
H54 C37 0.930 . S
H55 C48 0.929 . S
Cu56 N57 1.999 . S
Cu56 O62 1.974 . S
Cu56 N67 1.985 . S
Cu56 O76 1.959 . S
N57 Cu56 1.999 . S
N57 C59 1.263 . S
N57 C61 1.389 . S
N58 C59 1.358 . S
N58 C60 1.400 . S
C59 N57 1.263 . S
C59 N58 1.358 . S
C59 H65 0.929 1_545 S
C60 N58 1.400 . S
C60 C61 1.351 . S
C60 H77 0.930 . S
C61 N57 1.389 . S
C61 C60 1.351 . S
C61 H66 0.930 . S
O62 Cu56 1.974 . S
O62 C72 1.282 1_545 S
C63 O64 1.261 . S
C63 O76 1.251 1_565 S
O64 C63 1.261 . S
H65 C59 0.929 1_565 S
H66 C61 0.930 . S
N67 Cu56 1.985 . S
N67 C69 1.335 . S
N67 C70 1.390 . S
N68 C69 1.345 . S
N68 C71 1.336 . S
C69 N67 1.335 . S
C69 N68 1.345 . S
C69 H74 0.930 . S
C70 N67 1.390 . S
C70 C71 1.346 . S
C70 H75 0.930 1_545 S
C71 N68 1.336 . S
C71 C70 1.346 . S
C71 H78 0.929 1_545 S
C72 O62 1.282 1_565 S
C72 O73 1.216 . S
O73 C72 1.216 . S
H74 C69 0.930 . S
H75 C70 0.930 1_565 S
O76 Cu56 1.959 . S
O76 C63 1.251 1_545 S
H77 C60 0.930 . S
H78 C71 0.929 1_565 S
H79 C91 0.930 . S
H80 C93 0.930 . S
H81 C94 0.930 . S
H82 C98 0.959 1_655 S
H83 C98 0.959 . S
H84 C98 0.961 . S
H85 C99 0.960 . S
H86 C99 0.961 . S
H87 C99 0.959 . S
H88 C102 0.929 . S
H89 C103 0.931 . S
H90 C105 0.930 . S
C91 H79 0.930 . S
C91 C92 1.399 . S
C91 C96 1.399 . S
C92 C91 1.399 . S
C92 C93 1.376 . S
C93 H80 0.930 . S
C93 C92 1.376 . S
C93 C94 1.388 . S
C94 H81 0.930 . S
C94 C93 1.388 . S
C94 C95 1.390 . S
C95 C94 1.390 . S
C95 C96 1.394 . S
C95 C101 1.465 . S
C96 C91 1.399 . S
C96 C95 1.394 . S
C96 C97 1.516 . S
C97 C96 1.516 . S
C97 C98 1.502 . S
C97 C99 1.561 . S
C97 C100 1.526 . S
C98 H82 0.959 1_455 S
C98 H83 0.959 . S
C98 H84 0.961 . S
C98 C97 1.502 . S
C99 H85 0.960 . S
C99 H86 0.961 . S
C99 H87 0.959 . S
C99 C97 1.561 . S
C100 C97 1.526 . S
C100 C101 1.396 . S
C100 C105 1.390 . S
C101 C95 1.465 . S
C101 C100 1.396 . S
C101 C102 1.399 . S
C102 H88 0.929 . S
C102 C101 1.399 . S
C102 C103 1.385 . S
C103 H89 0.931 . S
C103 C102 1.385 . S
C103 C104 1.389 . S
C104 C103 1.389 . S
C104 C105 1.387 . S
C105 H90 0.930 . S
C105 C100 1.390 . S
C105 C104 1.387 . S
H106 C118 0.930 . S
H107 C120 0.930 . S
H108 C121 0.930 . S
H109 C125 0.959 . S
H110 C125 0.959 . S
H111 C125 0.961 . S
H112 C126 0.960 . S
H113 C126 0.961 . S
H114 C126 0.959 . S
H115 C129 0.929 . S
H116 C130 0.931 . S
H117 C132 0.930 . S
C118 H106 0.930 . S
C118 C119 1.399 1_565 S
C118 C123 1.399 . S
C119 C118 1.399 1_545 S
C119 C120 1.376 . S
C120 H107 0.930 . S
C120 C119 1.376 . S
C120 C121 1.388 . S
C121 H108 0.930 . S
C121 C120 1.388 . S
C121 C122 1.390 . S
C122 C121 1.390 . S
C122 C123 1.394 1_545 S
C122 C128 1.465 . S
C123 C118 1.399 . S
C123 C122 1.394 1_565 S
C123 C124 1.516 . S
C124 C123 1.516 . S
C124 C125 1.502 . S
C124 C126 1.561 . S
C124 C127 1.526 . S
C125 H109 0.959 . S
C125 H110 0.959 . S
C125 H111 0.961 . S
C125 C124 1.502 . S
C126 H112 0.960 . S
C126 H113 0.961 . S
C126 H114 0.959 . S
C126 C124 1.561 . S
C127 C124 1.526 . S
C127 C128 1.396 1_565 S
C127 C132 1.390 . S
C128 C122 1.465 . S
C128 C127 1.396 1_545 S
C128 C129 1.399 . S
C129 H115 0.929 . S
C129 C128 1.399 . S
C129 C130 1.385 . S
C130 H116 0.931 . S
C130 C129 1.385 . S
C130 C131 1.389 . S
C131 C130 1.389 . S
C131 C132 1.387 1_545 S
C132 H117 0.930 . S
C132 C127 1.390 . S
C132 C131 1.387 1_565 S
H133 C145 0.930 . S
H134 C147 0.930 . S
H135 C148 0.930 . S
H136 C152 0.959 . S
H137 C152 0.959 . S
H138 C152 0.961 . S
H139 C153 0.960 . S
H140 C153 0.961 . S
H141 C153 0.959 . S
H142 C156 0.929 . S
H143 C157 0.931 . S
H144 C159 0.930 . S
C145 H133 0.930 . S
C145 C146 1.399 . S
C145 C150 1.399 . S
C146 C145 1.399 . S
C146 C147 1.376 1_455 S
C147 H134 0.930 . S
C147 C146 1.376 1_655 S
C147 C148 1.388 . S
C148 H135 0.930 . S
C148 C147 1.388 . S
C148 C149 1.390 . S
C149 C148 1.390 . S
C149 C150 1.394 1_655 S
C149 C155 1.465 . S
C150 C145 1.399 . S
C150 C149 1.394 1_455 S
C150 C151 1.516 . S
C151 C150 1.516 . S
C151 C152 1.502 . S
C151 C153 1.561 . S
C151 C154 1.526 . S
C152 H136 0.959 . S
C152 H137 0.959 . S
C152 H138 0.961 . S
C152 C151 1.502 . S
C153 H139 0.960 . S
C153 H140 0.961 . S
C153 H141 0.959 . S
C153 C151 1.561 . S
C154 C151 1.526 . S
C154 C155 1.396 1_455 S
C154 C159 1.390 . S
C155 C149 1.465 . S
C155 C154 1.396 1_655 S
C155 C156 1.399 . S
C156 H142 0.929 . S
C156 C155 1.399 . S
C156 C157 1.385 . S
C157 H143 0.931 . S
C157 C156 1.385 . S
C157 C158 1.389 . S
C158 C157 1.389 . S
C158 C159 1.387 1_655 S
C159 H144 0.930 . S
C159 C154 1.390 . S
C159 C158 1.387 1_455 S
H160 C172 0.930 . S
H161 C174 0.930 . S
H162 C175 0.930 . S
H163 C179 0.959 1_545 S
H164 C179 0.959 . S
H165 C179 0.961 . S
H166 C180 0.960 . S
H167 C180 0.961 . S
H168 C180 0.959 . S
H169 C183 0.929 . S
H170 C184 0.931 . S
H171 C186 0.930 . S
C172 H160 0.930 . S
C172 C173 1.399 . S
C172 C177 1.399 . S
C173 C172 1.399 . S
C173 C174 1.376 1_565 S
C174 H161 0.930 . S
C174 C173 1.376 1_545 S
C174 C175 1.388 . S
C175 H162 0.930 . S
C175 C174 1.388 . S
C175 C176 1.390 . S
C176 C175 1.390 . S
C176 C177 1.394 1_545 S
C176 C182 1.465 . S
C177 C172 1.399 . S
C177 C176 1.394 1_565 S
C177 C178 1.516 . S
C178 C177 1.516 . S
C178 C179 1.502 . S
C178 C180 1.561 . S
C178 C181 1.526 . S
C179 H163 0.959 1_565 S
C179 H164 0.959 . S
C179 H165 0.961 . S
C179 C178 1.502 . S
C180 H166 0.960 . S
C180 H167 0.961 . S
C180 H168 0.959 . S
C180 C178 1.561 . S
C181 C178 1.526 . S
C181 C182 1.396 1_565 S
C181 C186 1.390 . S
C182 C176 1.465 . S
C182 C181 1.396 1_545 S
C182 C183 1.399 . S
C183 H169 0.929 . S
C183 C182 1.399 . S
C183 C184 1.385 . S
C184 H170 0.931 . S
C184 C183 1.385 . S
C184 C185 1.389 1_545 S
C185 C184 1.389 1_565 S
C185 C186 1.387 . S
C186 H171 0.930 . S
C186 C181 1.390 . S
C186 C185 1.387 . S
H187 C199 0.930 . S
H188 C201 0.930 . S
H189 C202 0.930 . S
H190 C206 0.959 . S
H191 C206 0.959 . S
H192 C206 0.961 . S
H193 C207 0.960 . S
H194 C207 0.961 . S
H195 C207 0.959 . S
H196 C210 0.929 . S
H197 C211 0.931 . S
H198 C213 0.930 . S
C199 H187 0.930 . S
C199 C200 1.388 1_455 S
C199 C204 1.399 . S
C200 C199 1.388 1_655 S
C200 C201 1.384 . S
C201 H188 0.930 . S
C201 C200 1.384 . S
C201 C202 1.388 . S
C202 H189 0.930 . S
C202 C201 1.388 . S
C202 C203 1.390 . S
C203 C202 1.390 . S
C203 C204 1.394 1_655 S
C203 C209 1.465 . S
C204 C199 1.399 . S
C204 C203 1.394 1_455 S
C204 C205 1.516 . S
C205 C204 1.516 . S
C205 C206 1.502 . S
C205 C207 1.561 1_455 S
C205 C208 1.526 . S
C206 H190 0.959 . S
C206 H191 0.959 . S
C206 H192 0.961 . S
C206 C205 1.502 . S
C207 H193 0.960 . S
C207 H194 0.961 . S
C207 H195 0.959 . S
C207 C205 1.561 1_655 S
C208 C205 1.526 . S
C208 C209 1.396 1_455 S
C208 C213 1.390 . S
C209 C203 1.465 . S
C209 C208 1.396 1_655 S
C209 C210 1.399 . S
C210 H196 0.929 . S
C210 C209 1.399 . S
C210 C211 1.385 . S
C211 H197 0.931 . S
C211 C210 1.385 . S
C211 C212 1.389 1_655 S
C212 C211 1.389 1_455 S
C212 C213 1.387 . S
C213 H198 0.930 . S
C213 C208 1.390 . S
C213 C212 1.387 . S
H214 C226 0.930 . S
H215 C228 0.930 . S
H216 C229 0.930 . S
H217 C233 0.959 . S
H218 C233 0.959 . S
H219 C233 0.961 . S
H220 C234 0.960 . S
H221 C234 0.961 . S
H222 C234 0.959 . S
H223 C237 0.929 . S
H224 C238 0.931 . S
H225 C240 0.930 . S
C226 H214 0.930 . S
C226 C227 1.399 1_565 S
C226 C231 1.399 . S
C227 C226 1.399 1_545 S
C227 C228 1.376 . S
C228 H215 0.930 . S
C228 C227 1.376 . S
C228 C229 1.388 . S
C229 H216 0.930 . S
C229 C228 1.388 . S
C229 C230 1.390 . S
C230 C229 1.390 . S
C230 C231 1.394 1_545 S
C230 C236 1.465 . S
C231 C226 1.399 . S
C231 C230 1.394 1_565 S
C231 C232 1.516 . S
C232 C231 1.516 . S
C232 C233 1.502 . S
C232 C234 1.561 . S
C232 C235 1.526 . S
C233 H217 0.959 . S
C233 H218 0.959 . S
C233 H219 0.961 . S
C233 C232 1.502 . S
C234 H220 0.960 . S
C234 H221 0.961 . S
C234 H222 0.959 . S
C234 C232 1.561 . S
C235 C232 1.526 . S
C235 C236 1.396 1_565 S
C235 C240 1.390 . S
C236 C230 1.465 . S
C236 C235 1.396 1_545 S
C236 C237 1.399 . S
C237 H223 0.929 . S
C237 C236 1.399 . S
C237 C238 1.385 . S
C238 H224 0.931 . S
C238 C237 1.385 . S
C238 C239 1.389 . S
C239 C238 1.389 . S
C239 C240 1.387 1_545 S
C240 H225 0.930 . S
C240 C235 1.390 . S
C240 C239 1.387 1_565 S
H241 C253 0.930 . S
H242 C255 0.930 . S
H243 C256 0.930 . S
H244 C260 0.959 . S
H245 C260 0.959 . S
H246 C260 0.961 . S
H247 C261 0.960 . S
H248 C261 0.961 . S
H249 C261 0.959 . S
H250 C264 0.929 . S
H251 C265 0.931 . S
H252 C267 0.930 . S
C253 H241 0.930 . S
C253 C254 1.399 . S
C253 C258 1.399 . S
C254 C253 1.399 . S
C254 C255 1.376 . S
C255 H242 0.930 . S
C255 C254 1.376 . S
C255 C256 1.388 . S
C256 H243 0.930 . S
C256 C255 1.388 . S
C256 C257 1.390 . S
C257 C256 1.390 . S
C257 C258 1.394 . S
C257 C263 1.465 . S
C258 C253 1.399 . S
C258 C257 1.394 . S
C258 C259 1.516 . S
C259 C258 1.516 . S
C259 C260 1.502 1_655 S
C259 C261 1.561 . S
C259 C262 1.526 . S
C260 H244 0.959 . S
C260 H245 0.959 . S
C260 H246 0.961 . S
C260 C259 1.502 1_455 S
C261 H247 0.960 . S
C261 H248 0.961 . S
C261 H249 0.959 . S
C261 C259 1.561 . S
C262 C259 1.526 . S
C262 C263 1.396 . S
C262 C267 1.390 . S
C263 C257 1.465 . S
C263 C262 1.396 . S
C263 C264 1.399 . S
C264 H250 0.929 . S
C264 C263 1.399 . S
C264 C265 1.385 . S
C265 H251 0.931 . S
C265 C264 1.385 . S
C265 C266 1.389 . S
C266 C265 1.389 . S
C266 C267 1.387 . S
C267 H252 0.930 . S
C267 C262 1.390 . S
C267 C266 1.387 . S
H268 C280 0.930 . S
H269 C282 0.930 . S
H270 C283 0.930 . S
H271 C287 0.959 . S
H272 C287 0.959 . S
H273 C287 0.961 . S
H274 C288 0.960 . S
H275 C288 0.961 . S
H276 C288 0.959 . S
H277 C291 0.929 . S
H278 C292 0.931 . S
H279 C294 0.930 . S
C280 H268 0.930 . S
C280 C281 1.399 1_565 S
C280 C285 1.399 . S
C281 C280 1.399 1_545 S
C281 C282 1.376 . S
C282 H269 0.930 . S
C282 C281 1.376 . S
C282 C283 1.388 . S
C283 H270 0.930 . S
C283 C282 1.388 . S
C283 C284 1.390 . S
C284 C283 1.390 . S
C284 C285 1.394 1_545 S
C284 C290 1.465 . S
C285 C280 1.399 . S
C285 C284 1.394 1_565 S
C285 C286 1.516 . S
C286 C285 1.516 . S
C286 C287 1.502 . S
C286 C288 1.561 . S
C286 C289 1.526 . S
C287 H271 0.959 . S
C287 H272 0.959 . S
C287 H273 0.961 . S
C287 C286 1.502 . S
C288 H274 0.960 . S
C288 H275 0.961 . S
C288 H276 0.959 . S
C288 C286 1.561 . S
C289 C286 1.526 . S
C289 C290 1.396 1_565 S
C289 C294 1.390 . S
C290 C284 1.465 . S
C290 C289 1.396 1_545 S
C290 C291 1.399 . S
C291 H277 0.929 . S
C291 C290 1.399 . S
C291 C292 1.385 . S
C292 H278 0.931 . S
C292 C291 1.385 . S
C292 C293 1.389 . S
C293 C292 1.389 . S
C293 C294 1.387 1_545 S
C294 H279 0.930 . S
C294 C289 1.390 . S
C294 C293 1.387 1_565 S
C92 C23 1.371 . S
C104 C49 1.427 . S
C119 C22 1.389 1_545 S
C131 N68 1.415 . S
C146 C21 1.657 . S
C158 N45 1.640 . S
C173 C24 1.555 1_565 S
C185 C72 1.606 . S
C200 C27 1.394 . S
C212 C40 1.501 . S
C227 C26 1.366 . S
C239 N58 1.426 . S
C266 N35 1.632 . S
C254 C25 1.711 . S
C281 C28 1.638 . S
C293 C63 1.669 1_545 S
