# Generated by pormake.
# Topology nia, (6,6)-cn, num edge types: 1
# Building blocks:
#     Node 0, Type 0, BuildingBlock: NUHQIS_clean_sbu_0, # of connection points: 6
#     Node 1, Type 0, BuildingBlock: NUHQIS_clean_sbu_0, # of connection points: 6
#     Node 2, Type 1, BuildingBlock: MIDCAF_clean_sbu_0, # of connection points: 6
#     Node 3, Type 1, BuildingBlock: MIDCAF_clean_sbu_0, # of connection points: 6
#     Edge 4, Type (0, 1), BuildingBlock: FUNLAD_clean_linker_1, # of connection points: 2
#     Edge 5, Type (0, 1), BuildingBlock: FUNLAD_clean_linker_1, # of connection points: 2
#     Edge 6, Type (0, 1), BuildingBlock: FUNLAD_clean_linker_1, # of connection points: 2
#     Edge 7, Type (0, 1), BuildingBlock: FUNLAD_clean_linker_1, # of connection points: 2
#     Edge 8, Type (0, 1), BuildingBlock: FUNLAD_clean_linker_1, # of connection points: 2
#     Edge 9, Type (0, 1), BuildingBlock: FUNLAD_clean_linker_1, # of connection points: 2
#     Edge 10, Type (0, 1), BuildingBlock: FUNLAD_clean_linker_1, # of connection points: 2
#     Edge 11, Type (0, 1), BuildingBlock: FUNLAD_clean_linker_1, # of connection points: 2
#     Edge 12, Type (0, 1), BuildingBlock: FUNLAD_clean_linker_1, # of connection points: 2
#     Edge 13, Type (0, 1), BuildingBlock: FUNLAD_clean_linker_1, # of connection points: 2
#     Edge 14, Type (0, 1), BuildingBlock: FUNLAD_clean_linker_1, # of connection points: 2
#     Edge 15, Type (0, 1), BuildingBlock: FUNLAD_clean_linker_1, # of connection points: 2
# Relax obj value: 0.210
# Max RMSD: 0.278
# Mean RMSD: 0.214
data_MOF--net-nia--node1-NUHQIS_clean_sbu_0--node2-MIDCAF_clean_sbu_0--edge1-FUNLAD_clean_linker_1
_symmetry_space_group_name_H-M    P1
_symmetry_Int_Tables_number       1
_symmetry_cell_setting            triclinic
loop_
_symmetry_equiv_pos_as_xyz
'x, y, z'
_cell_length_a     29.898625
_cell_length_b     29.739996
_cell_length_c     32.950973
_cell_angle_alpha  90.193406
_cell_angle_beta   91.789596
_cell_angle_gamma 135.22302
loop_
_atom_site_label
_atom_site_type_symbol
_atom_site_fract_x
_atom_site_fract_y
_atom_site_fract_z
_atom_type_partial_charge
Tb0 Tb -0.01014 0.03732 0.99111 0.0
Eu1 Eu 0.01686 0.97672 0.06025 0.0
C2 C 0.11399 0.06568 0.99104 0.0
C3 C 0.95484 0.9126 0.97149 0.0
C4 C 0.92925 0.09302 0.92807 0.0
C5 C 0.903 0.15217 0.94189 0.0
C6 C 0.93618 0.13657 0.9525 0.0
C7 C 0.88772 0.06446 0.89352 0.0
C8 C 0.85436 0.0798 0.88299 0.0
C9 C 0.86251 0.12484 0.9067 0.0
C10 C 0.96665 0.07861 0.93643 0.0
O11 O 0.90075 0.96495 1.02176 0.0
O12 O 0.94031 0.96623 0.08302 0.0
O13 O 0.0705 0.07697 0.08144 0.0
O14 O 0.01179 0.08945 0.04722 0.0
C15 C 0.89467 0.95224 0.06057 0.0
O16 O 0.97963 0.89824 0.09959 0.0
O17 O 0.08022 0.98691 0.1036 0.0
O18 O 0.08779 0.01555 1.01257 0.0
O19 O 0.0893 0.0886 0.98692 0.0
O20 O 0.98306 0.96897 0.95912 0.0
O21 O 0.95209 0.901 1.01028 0.0
C22 C 0.05255 0.10617 0.07644 0.0
O23 O 0.0148 0.11536 0.9628 0.0
O24 O 0.93441 0.01856 0.94 0.0
C25 C 0.05078 0.89328 0.1273 0.0
C26 C 0.08543 0.8328 0.15898 0.0
C27 C 0.02551 0.80847 0.16578 0.0
C28 C 0.00835 0.83834 0.15012 0.0
C29 C 0.11014 0.91686 0.11943 0.0
C30 C 0.12742 0.88709 0.13517 0.0
C31 C 0.03531 0.92934 0.11693 0.0
H32 H 0.90983 0.18658 0.96095 0.0
H33 H 0.96776 0.15919 0.97942 0.0
H34 H 0.88157 0.03059 0.8743 0.0
H35 H 0.82256 0.05613 0.85629 0.0
H36 H -0.00767 0.76704 0.18412 0.0
H37 H 0.96264 0.81977 0.1571 0.0
H38 H 0.14423 0.95966 0.10239 0.0
H39 H 0.17469 0.9087 0.1299 0.0
Tb40 Tb 0.96934 0.028 0.55636 0.0
Eu41 Eu 0.03877 0.00239 0.49871 0.0
C42 C 0.92981 0.89722 0.55834 0.0
C43 C 0.08213 0.04905 0.58962 0.0
C44 C 0.90608 0.08738 0.60893 0.0
C45 C 0.8266 0.08524 0.62787 0.0
C46 C 0.8429 0.05318 0.61651 0.0
C47 C 0.95247 0.15457 0.61171 0.0
C48 C 0.93627 0.18661 0.62338 0.0
C49 C 0.87343 0.15238 0.63202 0.0
C50 C 0.92412 0.05249 0.60454 0.0
O51 O 0.01485 0.10019 0.51085 0.0
O52 O 0.09446 0.1069 0.49842 0.0
O53 O 0.97759 0.00064 0.45649 0.0
O54 O 0.90657 0.97703 0.50167 0.0
C55 C 0.06954 0.12946 0.49546 0.0
O56 O 0.12628 0.03338 0.48049 0.0
O57 O 0.03649 0.95254 0.4485 0.0
O58 O 0.95281 0.90662 0.52249 0.0
O59 O 0.94069 0.9423 0.57904 0.0
O60 O 0.06248 0.07632 0.58328 0.0
O61 O 0.06814 0.00721 0.56325 0.0
C62 C 0.92345 0.9809 0.4643 0.0
O63 O 0.88898 0.00167 0.58049 0.0
O64 O 0.98438 0.08659 0.60231 0.0
C65 C 0.11967 0.95833 0.44613 0.0
C66 C 0.16979 0.90815 0.43132 0.0
C67 C 0.14311 0.91499 0.39917 0.0
C68 C 0.11856 0.94009 0.40659 0.0
C69 C 0.14445 0.94992 0.47857 0.0
C70 C 0.16906 0.92466 0.47117 0.0
C71 C 0.09765 0.98892 0.45184 0.0
H72 H 0.77796 0.05704 0.63533 0.0
H73 H 0.8065 0.00141 0.61543 0.0
H74 H 0.0018 0.1825 0.60648 0.0
H75 H 0.97325 0.23828 0.6265 0.0
H76 H 0.14049 0.90058 0.36828 0.0
H77 H 0.09922 0.94592 0.38124 0.0
H78 H 0.14554 0.96356 0.5094 0.0
H79 H 0.18858 0.91907 0.49651 0.0
Zn80 Zn 0.3626 0.65004 0.20045 0.0
Zn81 Zn 0.3809 0.6651 0.36215 0.0
Zn82 Zn 0.37389 0.65916 0.28131 0.0
C83 C 0.50263 0.73458 0.33652 0.0
C84 C 0.29471 0.53731 0.3406 0.0
O85 O 0.33599 0.69833 0.25903 0.0
O86 O 0.33299 0.69116 0.19183 0.0
C87 C 0.49022 0.72374 0.22243 0.0
O88 O 0.47475 0.71966 0.30113 0.0
O89 O 0.47167 0.71495 0.36824 0.0
O90 O 0.32047 0.57364 0.37197 0.0
O91 O 0.30889 0.56085 0.30499 0.0
O92 O 0.45296 0.70207 0.1916 0.0
O93 O 0.46932 0.7125 0.25845 0.0
O94 O 0.31056 0.55778 0.26285 0.0
O95 O 0.30186 0.55543 0.19578 0.0
C96 C 0.28837 0.52661 0.22844 0.0
O97 O 0.34443 0.70506 0.30206 0.0
O98 O 0.35296 0.70811 0.36933 0.0
C99 C 0.32402 0.70711 0.2236 0.0
C100 C 0.3395 0.72014 0.33716 0.0
Zn101 Zn 0.65459 0.36681 0.85605 0.0
Zn102 Zn 0.61313 0.3562 0.69621 0.0
Zn103 Zn 0.63701 0.36536 0.77505 0.0
C104 C 0.70486 0.48642 0.7179 0.0
C105 C 0.49817 0.28595 0.73132 0.0
O106 O 0.67242 0.32186 0.78826 0.0
O107 O 0.67918 0.32061 0.85541 0.0
C108 C 0.7358 0.49374 0.83078 0.0
O109 O 0.69623 0.46415 0.75351 0.0
O110 O 0.67505 0.44877 0.68713 0.0
O111 O 0.52204 0.30632 0.69703 0.0
O112 O 0.53395 0.30296 0.76312 0.0
O113 O 0.72418 0.46113 0.86082 0.0
O114 O 0.7064 0.46659 0.796 0.0
O115 O 0.54709 0.31511 0.80503 0.0
O116 O 0.56732 0.32206 0.87119 0.0
C117 C 0.52894 0.3041 0.8418 0.0
O118 O 0.66405 0.32022 0.74529 0.0
O119 O 0.63397 0.30866 0.68058 0.0
C120 C 0.68513 0.30779 0.82069 0.0
C121 C 0.65783 0.30106 0.70839 0.0
H122 H 0.07609 0.77223 0.20469 0.0
C123 C 0.10369 0.80285 0.17943 0.0
H124 H 0.18101 0.84126 0.14339 0.0
H125 H 0.33931 0.83869 0.26726 0.0
H126 H 0.39273 0.9482 0.27829 0.0
H127 H 0.34607 0.9849 0.25007 0.0
H128 H 0.24569 0.91197 0.21062 0.0
C129 C 0.15234 0.81168 0.16853 0.0
C130 C 0.17277 0.78593 0.19225 0.0
C131 C 0.23091 0.82879 0.21565 0.0
C132 C 0.25707 0.80731 0.23265 0.0
C133 C 0.31633 0.85182 0.25468 0.0
C134 C 0.34774 0.91505 0.26099 0.0
C135 C 0.32155 0.93574 0.24504 0.0
C136 C 0.26405 0.89345 0.22236 0.0
H137 H 0.31675 0.76689 0.19244 0.0
C138 C 0.30085 0.73693 0.21844 0.0
H139 H 0.23304 0.6856 0.26324 0.0
H140 H 0.05753 0.69008 0.15186 0.0
H141 H -0.00119 0.5781 0.14683 0.0
H142 H 0.04179 0.53973 0.17905 0.0
H143 H 0.14406 0.61326 0.21618 0.0
C144 C 0.25429 0.72088 0.24002 0.0
C145 C 0.22387 0.74237 0.22725 0.0
C146 C 0.16298 0.69834 0.20692 0.0
C147 C 0.13773 0.72029 0.18887 0.0
C148 C 0.07842 0.67588 0.16683 0.0
C149 C 0.04428 0.61144 0.16359 0.0
C150 C 0.0685 0.58985 0.1817 0.0
C151 C 0.12728 0.6326 0.20294 0.0
H152 H 0.15854 0.12255 0.63405 0.0
C153 C 0.12876 0.07349 0.62318 0.0
H154 H 0.10829 0.9898 0.62753 0.0
H155 H 0.40318 0.16392 0.65652 0.0
H156 H 0.37454 0.09553 0.59862 0.0
H157 H 0.26434 0.01498 0.56957 0.0
H158 H 0.18229 0.00191 0.59836 0.0
C159 C 0.13849 0.03898 0.63824 0.0
C160 C 0.19771 0.0714 0.66294 0.0
C161 C 0.24427 0.07668 0.64622 0.0
C162 C 0.30781 0.12364 0.66247 0.0
C163 C 0.35429 0.12956 0.64477 0.0
C164 C 0.33845 0.09047 0.6117 0.0
C165 C 0.27641 0.04508 0.59539 0.0
C166 C 0.22971 0.03818 0.61222 0.0
H167 H 0.40687 0.20579 0.7593 0.0
C168 C 0.42843 0.23709 0.73366 0.0
H169 H 0.41444 0.25661 0.67604 0.0
H170 H 0.11492 0.05697 0.70975 0.0
H171 H 0.14196 0.11898 0.77156 0.0
H172 H 0.25324 0.20355 0.79838 0.0
H173 H 0.33801 0.22634 0.76399 0.0
C174 C 0.39208 0.22581 0.70191 0.0
C175 C 0.32431 0.16501 0.69508 0.0
C176 C 0.27609 0.15317 0.71557 0.0
C177 C 0.21224 0.1055 0.69962 0.0
C178 C 0.16433 0.09383 0.72037 0.0
C179 C 0.17923 0.12881 0.75579 0.0
C180 C 0.24192 0.17645 0.7709 0.0
C181 C 0.29013 0.18905 0.75095 0.0
H182 H 0.06649 0.18598 0.09717 0.0
C183 C 0.07954 0.16058 0.10371 0.0
H184 H 0.13658 0.15818 0.1413 0.0
H185 H 0.32488 0.4626 0.15815 0.0
H186 H 0.38306 0.45604 0.11321 0.0
H187 H 0.33713 0.35152 0.08796 0.0
H188 H 0.23285 0.25295 0.10766 0.0
C189 C 0.12124 0.18144 0.13476 0.0
C190 C 0.15389 0.24241 0.15681 0.0
C191 C 0.21518 0.29921 0.1456 0.0
C192 C 0.24123 0.35928 0.1598 0.0
C193 C 0.30234 0.4156 0.14769 0.0
C194 C 0.33637 0.41252 0.12207 0.0
C195 C 0.31055 0.35368 0.10789 0.0
C196 C 0.25063 0.29751 0.11935 0.0
H197 H 0.25103 0.43689 0.25389 0.0
C198 C 0.25222 0.45823 0.22672 0.0
H199 H 0.23011 0.44686 0.16386 0.0
H200 H 0.04229 0.14179 0.19093 0.0
H201 H 0.98688 0.14769 0.23966 0.0
H202 H 0.03082 0.25197 0.26345 0.0
H203 H 0.13023 0.35085 0.23888 0.0
C204 C 0.22693 0.42456 0.19123 0.0
C205 C 0.20587 0.36224 0.18519 0.0
C206 C 0.14758 0.30525 0.19989 0.0
C207 C 0.12169 0.24507 0.18573 0.0
C208 C 0.06333 0.18857 0.20046 0.0
C209 C 0.03128 0.19135 0.22843 0.0
C210 C 0.05607 0.2501 0.24186 0.0
C211 C 0.11328 0.30655 0.2276 0.0
H212 H 0.89726 0.23282 0.66475 0.0
C213 C 0.85922 0.18761 0.64823 0.0
H214 H 0.7634 0.12177 0.62634 0.0
H215 H 0.6455 0.17214 0.74363 0.0
H216 H 0.60063 0.07016 0.76627 0.0
H217 H 0.64105 0.02621 0.74232 0.0
H218 H 0.72582 0.08376 0.69508 0.0
C219 C 0.80198 0.16644 0.64304 0.0
C220 C 0.78686 0.19921 0.66282 0.0
C221 C 0.73851 0.16581 0.69131 0.0
C222 C 0.7176 0.1927 0.70688 0.0
C223 C 0.66617 0.15612 0.73301 0.0
C224 C 0.63927 0.09692 0.74576 0.0
C225 C 0.66182 0.07207 0.73214 0.0
C226 C 0.71037 0.10555 0.70491 0.0
H227 H 0.64892 0.23257 0.67222 0.0
C228 C 0.67596 0.26793 0.69721 0.0
H229 H 0.75915 0.32415 0.7351 0.0
H230 H 0.87828 0.27533 0.60684 0.0
H231 H 0.93166 0.38274 0.5908 0.0
H232 H 0.90336 0.43394 0.62369 0.0
H233 H 0.82036 0.37725 0.6722 0.0
C234 C 0.72794 0.28449 0.71304 0.0
C235 C 0.74856 0.2552 0.69643 0.0
C236 C 0.79935 0.29012 0.66972 0.0
C237 C 0.81728 0.26143 0.65189 0.0
C238 C 0.86457 0.29558 0.62273 0.0
C239 C 0.8953 0.35723 0.61294 0.0
C240 C 0.87929 0.386 0.63139 0.0
C241 C 0.83165 0.35295 0.65927 0.0
H242 H 0.79682 0.90939 0.06062 0.0
C243 C 0.83445 0.92063 0.07939 0.0
H244 H 0.8624 0.91626 0.13785 0.0
H245 H 0.65874 0.88426 0.22962 0.0
H246 H 0.7576 0.98571 0.25799 0.0
H247 H 0.8603 0.03629 0.23125 0.0
H248 H 0.86458 0.98543 0.17606 0.0
C249 C 0.82467 0.90407 0.11857 0.0
C250 C 0.76331 0.87056 0.13733 0.0
C251 C 0.76178 0.90056 0.17007 0.0
C252 C 0.70256 0.87109 0.1858 0.0
C253 C 0.70226 0.90344 0.21724 0.0
C254 C 0.75876 0.96206 0.23363 0.0
C255 C 0.81657 0.99053 0.21857 0.0
C256 C 0.81833 0.96068 0.18693 0.0
H257 H 0.58546 0.76457 0.24083 0.0
C258 C 0.55727 0.75993 0.21628 0.0
H259 H 0.55328 0.77828 0.15522 0.0
H260 H 0.75094 0.79317 0.08155 0.0
H261 H 0.6527 0.68831 0.0564 0.0
H262 H 0.54986 0.63821 0.08253 0.0
H263 H 0.54487 0.69258 0.13421 0.0
C264 C 0.58226 0.78419 0.1799 0.0
C265 C 0.64523 0.81127 0.16908 0.0
C266 C 0.64733 0.77922 0.13846 0.0
C267 C 0.70643 0.80854 0.12286 0.0
C268 C 0.7072 0.77428 0.0934 0.0
C269 C 0.65115 0.71368 0.07896 0.0
C270 C 0.59328 0.68546 0.09369 0.0
C271 C 0.5911 0.71745 0.12319 0.0
H272 H 0.87897 0.79594 0.55805 0.0
C273 C 0.89446 0.83524 0.57708 0.0
H274 H 0.9018 0.86673 0.63693 0.0
H275 H 0.66214 0.55207 0.64741 0.0
H276 H 0.60185 0.56528 0.60889 0.0
H277 H 0.65454 0.67026 0.58282 0.0
H278 H 0.76789 0.76262 0.59508 0.0
C279 C 0.88374 0.8271 0.61702 0.0
C280 C 0.85096 0.76512 0.63564 0.0
C281 C 0.78464 0.71184 0.62857 0.0
C282 C 0.75434 0.65143 0.64368 0.0
C283 C 0.68788 0.59894 0.63616 0.0
C284 C 0.65258 0.60591 0.61428 0.0
C285 C 0.68223 0.665 0.59961 0.0
C286 C 0.74741 0.71755 0.60669 0.0
H287 H 0.76448 0.58719 0.73877 0.0
C288 C 0.74678 0.55563 0.71237 0.0
H289 H 0.74083 0.54652 0.6484 0.0
H290 H 0.97745 0.85938 0.65835 0.0
H291 H 0.0379 0.84674 0.69752 0.0
H292 H 0.98618 0.74117 0.72172 0.0
H293 H 0.87358 0.64797 0.70791 0.0
C294 C 0.75969 0.57866 0.67471 0.0
C295 C 0.79038 0.6443 0.66586 0.0
C296 C 0.85622 0.69834 0.67464 0.0
C297 C 0.88637 0.75902 0.65987 0.0
C298 C 0.95227 0.8122 0.6687 0.0
C299 C 0.98753 0.8056 0.69109 0.0
C300 C 0.95838 0.74618 0.7048 0.0
C301 C 0.89357 0.693 0.69672 0.0
H302 H 0.199 0.86024 0.44955 0.0
C303 C 0.19714 0.88249 0.42435 0.0
H304 H 0.22161 0.91014 0.36329 0.0
H305 H 0.39022 0.85071 0.42218 0.0
H306 H 0.4531 0.94813 0.46369 0.0
H307 H 0.42187 0.00558 0.46823 0.0
H308 H 0.32754 0.96591 0.4312 0.0
C309 C 0.22112 0.887 0.38891 0.0
C310 C 0.2443 0.85696 0.3829 0.0
C311 C 0.29971 0.88097 0.40459 0.0
C312 C 0.31792 0.8481 0.40172 0.0
C313 C 0.37383 0.87344 0.42345 0.0
C314 C 0.41052 0.92947 0.44732 0.0
C315 C 0.3929 0.96178 0.4499 0.0
C316 C 0.33836 0.9382 0.42874 0.0
H317 H 0.31764 0.77166 0.31281 0.0
C318 C 0.3185 0.75212 0.33993 0.0
H319 H 0.30195 0.73907 0.40264 0.0
H320 H 0.14092 0.80385 0.33281 0.0
H321 H 0.07756 0.70626 0.2913 0.0
H322 H 0.10317 0.64361 0.2913 0.0
H323 H 0.19409 0.67988 0.33097 0.0
C324 C 0.29999 0.75716 0.37477 0.0
C325 C 0.28074 0.79142 0.37708 0.0
C326 C 0.22574 0.76794 0.35491 0.0
C327 C 0.20882 0.80206 0.35678 0.0
C328 C 0.15519 0.77909 0.33313 0.0
C329 C 0.11829 0.72306 0.30927 0.0
C330 C 0.13287 0.68794 0.30912 0.0
C331 C 0.18571 0.70973 0.33171 0.0
H332 H 0.19311 0.07762 0.97565 0.0
C333 C 0.17278 0.09636 0.97059 0.0
H334 H 0.18276 0.16594 0.94086 0.0
H335 H 0.48202 0.34015 0.93663 0.0
H336 H 0.48132 0.39314 0.99228 0.0
H337 H 0.38024 0.3474 1.01884 0.0
H338 H 0.27916 0.24849 0.98966 0.0
C339 C 0.20135 0.14552 0.94592 0.0
C340 C 0.26169 0.17592 0.92713 0.0
C341 C 0.32023 0.23364 0.94446 0.0
C342 C 0.37842 0.25938 0.92951 0.0
C343 C 0.4363 0.31757 0.94727 0.0
C344 C 0.43662 0.34873 0.97913 0.0
C345 C 0.37973 0.32303 0.99406 0.0
C346 C 0.32206 0.26618 0.97705 0.0
H347 H 0.4364 0.27023 0.82556 0.0
C348 C 0.4639 0.27299 0.8497 0.0
H349 H 0.46767 0.25444 0.91065 0.0
H350 H 0.15759 0.0711 0.88276 0.0
H351 H 0.1573 0.01869 0.82586 0.0
H352 H 0.25773 0.05932 0.8022 0.0
H353 H 0.35877 0.15252 0.83484 0.0
C354 C 0.43941 0.25035 0.88636 0.0
C355 C 0.37798 0.22706 0.89741 0.0
C356 C 0.31916 0.17089 0.87864 0.0
C357 C 0.26099 0.14601 0.89317 0.0
C358 C 0.20293 0.09098 0.87343 0.0
C359 C 0.20211 0.06054 0.84074 0.0
C360 C 0.25867 0.08351 0.82737 0.0
C361 C 0.31656 0.13762 0.84619 0.0
H362 H 0.1517 0.21543 0.46476 0.0
C363 C 0.10263 0.18693 0.47183 0.0
H364 H 0.02413 0.17494 0.46345 0.0
H365 H 0.21849 0.4749 0.43743 0.0
H366 H 0.17863 0.46611 0.50301 0.0
H367 H 0.10613 0.36347 0.53747 0.0
H368 H 0.07277 0.26893 0.50634 0.0
C369 C 0.0732 0.20279 0.45688 0.0
C370 C 0.10867 0.26141 0.43329 0.0
C371 C 0.12708 0.3158 0.45174 0.0
C372 C 0.16966 0.37503 0.4322 0.0
C373 C 0.18739 0.42889 0.45133 0.0
C374 C 0.16455 0.42446 0.48889 0.0
C375 C 0.12368 0.36667 0.50825 0.0
C376 C 0.105 0.31281 0.49006 0.0
H377 H 0.20637 0.43652 0.32379 0.0
C378 C 0.24629 0.46774 0.3458 0.0
H379 H 0.28949 0.47722 0.40121 0.0
H380 H 0.06987 0.16245 0.38588 0.0
H381 H 0.10557 0.16955 0.31866 0.0
H382 H 0.1842 0.27342 0.28611 0.0
H383 H 0.22712 0.3705 0.32019 0.0
C384 C 0.24894 0.44459 0.37972 0.0
C385 C 0.19422 0.3798 0.39444 0.0
C386 C 0.17148 0.3241 0.37433 0.0
C387 C 0.12773 0.2645 0.39365 0.0
C388 C 0.10433 0.20906 0.37285 0.0
C389 C 0.12426 0.21247 0.33428 0.0
C390 C 0.16845 0.27096 0.31592 0.0
C391 C 0.19243 0.32637 0.33574 0.0
H392 H 0.83377 0.17433 0.9186 0.0
C393 C 0.83034 0.14506 0.89605 0.0
H394 H 0.79782 0.10633 0.83553 0.0
H395 H 0.64786 0.18518 0.89763 0.0
H396 H 0.59287 0.0959 0.94209 0.0
H397 H 0.61895 0.03366 0.94497 0.0
H398 H 0.70033 0.06054 0.90331 0.0
C399 C 0.79999 0.13229 0.86002 0.0
C400 C 0.77402 0.15952 0.85171 0.0
C401 C 0.72572 0.14263 0.8757 0.0
C402 C 0.71042 0.17816 0.87374 0.0
C403 C 0.66201 0.16031 0.89817 0.0
C404 C 0.6298 0.10892 0.92371 0.0
C405 C 0.64451 0.07392 0.92536 0.0
C406 C 0.6917 0.09021 0.90159 0.0
H407 H 0.69488 0.25011 0.78924 0.0
C408 C 0.70413 0.27398 0.8176 0.0
H409 H 0.73921 0.29349 0.87836 0.0
H410 H 0.85732 0.19342 0.79461 0.0
H411 H 0.90893 0.27923 0.74751 0.0
H412 H 0.88924 0.34692 0.74785 0.0
H413 H 0.81617 0.32771 0.79408 0.0
C414 C 0.73103 0.2708 0.84925 0.0
C415 C 0.74322 0.23029 0.84759 0.0
C416 C 0.78831 0.24418 0.82137 0.0
C417 C 0.80214 0.20725 0.82259 0.0
C418 C 0.84593 0.22072 0.79544 0.0
C419 C 0.876 0.26992 0.7683 0.0
C420 C 0.86473 0.30787 0.7684 0.0
C421 C 0.82196 0.29578 0.7948 0.0
H422 H 0.8984 0.96833 0.39892 0.0
C423 C 0.88136 0.96273 0.42902 0.0
H424 H 0.80541 0.93318 0.46209 0.0
H425 H 0.6583 0.93608 0.326 0.0
H426 H 0.70984 0.03445 0.36363 0.0
H427 H 0.79515 0.0804 0.41584 0.0
H428 H 0.8292 0.02818 0.43098 0.0
C429 C 0.82272 0.93736 0.43242 0.0
C430 C 0.78056 0.91658 0.39589 0.0
C431 C 0.76254 0.94864 0.38682 0.0
C432 C 0.71372 0.9225 0.35659 0.0
C433 C 0.69499 0.95406 0.34888 0.0
C434 C 0.72437 0.01057 0.37009 0.0
C435 C 0.77243 0.03645 0.39949 0.0
C436 C 0.79141 0.00598 0.40797 0.0
H437 H 0.58377 0.76184 0.36881 0.0
C438 C 0.57021 0.77174 0.34191 0.0
H439 H 0.60432 0.83739 0.2957 0.0
H440 H 0.80764 0.84525 0.40212 0.0
H441 H 0.76405 0.75486 0.3587 0.0
H442 H 0.68475 0.71512 0.30325 0.0
H443 H 0.6478 0.76557 0.29167 0.0
C444 C 0.61602 0.8224 0.32018 0.0
C445 C 0.68287 0.86424 0.336 0.0
C446 C 0.70758 0.83789 0.34061 0.0
C447 C 0.75518 0.86268 0.37144 0.0
C448 C 0.77383 0.83072 0.37804 0.0
C449 C 0.74873 0.77825 0.35347 0.0
C450 C 0.70393 0.75573 0.32233 0.0
C451 C 0.68304 0.78477 0.31605 0.0
H452 H 0.92701 0.87455 0.90851 0.0
C453 C 0.92585 0.86239 0.93983 0.0
H454 H 0.89356 0.78911 0.97885 0.0
H455 H 0.67021 0.55977 0.86245 0.0
H456 H 0.61259 0.55554 0.915 0.0
H457 H 0.66882 0.64223 0.96737 0.0
H458 H 0.78316 0.73326 0.96773 0.0
C459 C 0.8974 0.80304 0.9477 0.0
C460 C 0.8639 0.7531 0.91442 0.0
C461 C 0.79682 0.70091 0.9141 0.0
C462 C 0.7643 0.65148 0.88351 0.0
C463 C 0.69746 0.59895 0.88469 0.0
C464 C 0.66367 0.59593 0.9147 0.0
C465 C 0.69532 0.64469 0.9442 0.0
C466 C 0.76106 0.69665 0.94407 0.0
H467 H 0.82037 0.58407 0.86025 0.0
C468 C 0.78161 0.56298 0.83802 0.0
H469 H 0.72523 0.57303 0.80954 0.0
H470 H -0.00683 0.84602 0.90589 0.0
H471 H 0.04941 0.85351 0.85051 0.0
H472 H -0.00837 0.77111 0.79518 0.0
H473 H 0.87669 0.68004 0.7951 0.0
C474 C 0.7676 0.5957 0.8284 0.0
C475 C 0.79898 0.65443 0.85325 0.0
C476 C 0.86533 0.70883 0.85181 0.0
C477 C 0.8982 0.75759 0.88292 0.0
C478 C 0.96522 0.80898 0.8822 0.0
C479 C -0.00176 0.8136 0.85072 0.0
C480 C 0.9657 0.76709 0.81958 0.0
C481 C 0.9 0.71504 0.82003 0.0
loop_
_geom_bond_atom_site_label_1
_geom_bond_atom_site_label_2
_geom_bond_distance
_geom_bond_site_symmetry_2
_ccdc_geom_bond_type
Tb0 C10 2.825 . S
Tb0 O11 2.347 1_546 S
Tb0 O14 2.365 1_656 S
Tb0 O19 2.418 1_655 S
Tb0 O20 2.384 1_545 S
Tb0 O23 2.479 . S
Tb0 O24 2.471 . S
Eu1 O12 2.418 1_455 S
Eu1 O13 2.384 1_565 S
Eu1 O16 2.479 . S
Eu1 O17 2.471 . S
Eu1 O18 2.347 1_564 S
Eu1 O21 2.366 1_455 S
Eu1 C31 2.825 . S
C2 O18 1.259 . S
C2 O19 1.265 . S
C3 O20 1.255 . S
C3 O21 1.265 1_556 S
C4 C6 1.380 . S
C4 C7 1.374 . S
C4 C10 1.507 . S
C5 C6 1.384 . S
C5 C9 1.387 . S
C5 H32 0.930 . S
C6 C4 1.380 . S
C6 C5 1.384 . S
C6 H33 0.931 . S
C7 C4 1.374 . S
C7 C8 1.390 . S
C7 H34 0.930 . S
C8 C7 1.390 . S
C8 C9 1.391 . S
C8 H35 0.930 . S
C9 C5 1.387 . S
C9 C8 1.391 . S
C10 Tb0 2.825 . S
C10 C4 1.507 . S
C10 O23 1.238 . S
C10 O24 1.247 . S
O11 Tb0 2.347 1_564 S
O11 C15 1.259 . S
O12 Eu1 2.418 1_655 S
O12 C15 1.265 . S
O13 Eu1 2.384 1_545 S
O13 C22 1.255 . S
O14 Tb0 2.365 1_454 S
O14 C22 1.266 . S
C15 O11 1.259 . S
C15 O12 1.265 . S
O16 Eu1 2.479 . S
O16 C31 1.238 . S
O17 Eu1 2.471 . S
O17 C31 1.247 . S
O18 Eu1 2.347 1_546 S
O18 C2 1.259 . S
O19 Tb0 2.418 1_455 S
O19 C2 1.265 . S
O20 Tb0 2.384 1_565 S
O20 C3 1.255 . S
O21 Eu1 2.366 1_655 S
O21 C3 1.265 1_554 S
C22 O13 1.255 . S
C22 O14 1.266 . S
O23 Tb0 2.479 . S
O23 C10 1.238 . S
O24 Tb0 2.471 . S
O24 C10 1.247 . S
C25 C28 1.380 . S
C25 C29 1.374 . S
C25 C31 1.507 . S
C26 C27 1.387 . S
C26 C30 1.391 . S
C27 C26 1.387 . S
C27 C28 1.384 . S
C27 H36 0.930 . S
C28 C25 1.380 . S
C28 C27 1.384 . S
C28 H37 0.931 . S
C29 C25 1.374 . S
C29 C30 1.390 . S
C29 H38 0.930 . S
C30 C26 1.391 . S
C30 C29 1.390 . S
C30 H39 0.930 . S
C31 Eu1 2.825 . S
C31 O16 1.238 . S
C31 O17 1.247 . S
C31 C25 1.507 . S
H32 C5 0.930 . S
H33 C6 0.931 . S
H34 C7 0.930 . S
H35 C8 0.930 . S
H36 C27 0.930 . S
H37 C28 0.931 . S
H38 C29 0.930 . S
H39 C30 0.930 . S
Tb40 C50 2.825 1_455 S
Tb40 O51 2.347 . S
Tb40 O54 2.366 1_445 S
Tb40 O59 2.418 1_445 S
Tb40 O60 2.384 . S
Tb40 O63 2.479 1_455 S
Tb40 O64 2.471 1_455 S
Eu41 O52 2.418 1_565 S
Eu41 O53 2.384 1_455 S
Eu41 O56 2.479 . S
Eu41 O57 2.471 . S
Eu41 O58 2.347 1_455 S
Eu41 O61 2.366 1_565 S
Eu41 C71 2.825 . S
C42 O58 1.259 . S
C42 O59 1.265 . S
C43 O60 1.255 . S
C43 O61 1.265 . S
C44 C46 1.380 . S
C44 C47 1.374 . S
C44 C50 1.507 . S
C45 C46 1.384 . S
C45 C49 1.387 . S
C45 H72 0.930 . S
C46 C44 1.380 . S
C46 C45 1.384 . S
C46 H73 0.931 . S
C47 C44 1.374 . S
C47 C48 1.390 . S
C47 H74 0.930 . S
C48 C47 1.390 . S
C48 C49 1.391 . S
C48 H75 0.930 . S
C49 C45 1.387 . S
C49 C48 1.391 . S
C50 Tb40 2.825 1_655 S
C50 C44 1.507 . S
C50 O63 1.238 . S
C50 O64 1.247 . S
O51 Tb40 2.347 . S
O51 C55 1.259 . S
O52 Eu41 2.418 1_545 S
O52 C55 1.265 . S
O53 Eu41 2.384 1_655 S
O53 C62 1.255 . S
O54 Tb40 2.366 1_665 S
O54 C62 1.265 . S
C55 O51 1.259 . S
C55 O52 1.265 . S
O56 Eu41 2.479 . S
O56 C71 1.238 . S
O57 Eu41 2.471 . S
O57 C71 1.247 . S
O58 Eu41 2.347 1_655 S
O58 C42 1.259 . S
O59 Tb40 2.418 1_665 S
O59 C42 1.265 . S
O60 Tb40 2.384 . S
O60 C43 1.255 . S
O61 Eu41 2.366 1_545 S
O61 C43 1.265 . S
C62 O53 1.255 . S
C62 O54 1.265 . S
O63 Tb40 2.479 1_655 S
O63 C50 1.238 . S
O64 Tb40 2.471 1_655 S
O64 C50 1.247 . S
C65 C68 1.380 . S
C65 C69 1.374 . S
C65 C71 1.507 . S
C66 C67 1.387 . S
C66 C70 1.391 . S
C67 C66 1.387 . S
C67 C68 1.384 . S
C67 H76 0.930 . S
C68 C65 1.380 . S
C68 C67 1.384 . S
C68 H77 0.931 . S
C69 C65 1.374 . S
C69 C70 1.390 . S
C69 H78 0.930 . S
C70 C66 1.391 . S
C70 C69 1.390 . S
C70 H79 0.930 . S
C71 Eu41 2.825 . S
C71 O56 1.238 . S
C71 O57 1.247 . S
C71 C65 1.507 . S
H72 C45 0.930 . S
H73 C46 0.931 . S
H74 C47 0.930 . S
H75 C48 0.930 . S
H76 C67 0.930 . S
H77 C68 0.931 . S
H78 C69 0.930 . S
H79 C70 0.930 . S
Zn80 O86 1.920 . S
Zn80 O92 1.898 . S
Zn80 O95 1.905 . S
Zn81 O89 1.905 . S
Zn81 O90 1.898 . S
Zn81 O98 1.920 . S
Zn82 O85 2.080 . S
Zn82 O88 2.114 . S
Zn82 O91 2.120 . S
Zn82 O93 2.120 . S
Zn82 O94 2.114 . S
Zn82 O97 2.080 . S
C83 O88 1.166 . S
C83 O89 1.182 . S
C84 O90 1.167 . S
C84 O91 1.299 . S
O85 Zn82 2.080 . S
O85 C99 1.305 . S
O86 Zn80 1.920 . S
O86 C99 1.234 . S
C87 O92 1.167 . S
C87 O93 1.299 . S
O88 Zn82 2.114 . S
O88 C83 1.166 . S
O89 Zn81 1.905 . S
O89 C83 1.182 . S
O90 Zn81 1.898 . S
O90 C84 1.167 . S
O91 Zn82 2.120 . S
O91 C84 1.299 . S
O92 Zn80 1.898 . S
O92 C87 1.167 . S
O93 Zn82 2.120 . S
O93 C87 1.299 . S
O94 Zn82 2.114 . S
O94 C96 1.166 . S
O95 Zn80 1.905 . S
O95 C96 1.182 . S
C96 O94 1.166 . S
C96 O95 1.182 . S
O97 Zn82 2.080 . S
O97 C100 1.305 . S
O98 Zn81 1.920 . S
O98 C100 1.234 . S
C99 O85 1.305 . S
C99 O86 1.234 . S
C100 O97 1.305 . S
C100 O98 1.234 . S
Zn101 O107 1.920 . S
Zn101 O113 1.898 . S
Zn101 O116 1.905 . S
Zn102 O110 1.905 . S
Zn102 O111 1.898 . S
Zn102 O119 1.920 . S
Zn103 O106 2.080 . S
Zn103 O109 2.114 . S
Zn103 O112 2.120 . S
Zn103 O114 2.120 . S
Zn103 O115 2.114 . S
Zn103 O118 2.080 . S
C104 O109 1.166 . S
C104 O110 1.182 . S
C105 O111 1.167 . S
C105 O112 1.299 . S
O106 Zn103 2.080 . S
O106 C120 1.305 . S
O107 Zn101 1.920 . S
O107 C120 1.234 . S
C108 O113 1.167 . S
C108 O114 1.299 . S
O109 Zn103 2.114 . S
O109 C104 1.166 . S
O110 Zn102 1.905 . S
O110 C104 1.182 . S
O111 Zn102 1.898 . S
O111 C105 1.167 . S
O112 Zn103 2.120 . S
O112 C105 1.299 . S
O113 Zn101 1.898 . S
O113 C108 1.167 . S
O114 Zn103 2.120 . S
O114 C108 1.299 . S
O115 Zn103 2.114 . S
O115 C117 1.166 . S
O116 Zn101 1.905 . S
O116 C117 1.182 . S
C117 O115 1.166 . S
C117 O116 1.182 . S
O118 Zn103 2.080 . S
O118 C121 1.305 . S
O119 Zn102 1.920 . S
O119 C121 1.234 . S
C120 O106 1.305 . S
C120 O107 1.234 . S
C121 O118 1.305 . S
C121 O119 1.234 . S
H122 C123 0.951 . S
C123 H122 0.951 . S
C123 C129 1.265 . S
H124 C129 0.950 . S
H125 C133 0.949 . S
H126 C134 0.950 . S
H127 C135 0.951 . S
H128 C136 0.951 . S
C129 C123 1.265 . S
C129 H124 0.950 . S
C129 C130 1.478 . S
C130 C129 1.478 . S
C130 C131 1.397 . S
C130 C147 1.394 . S
C131 C130 1.397 . S
C131 C132 1.438 . S
C131 C136 1.429 . S
C132 C131 1.438 . S
C132 C133 1.428 . S
C132 C145 1.394 . S
C133 H125 0.949 . S
C133 C132 1.428 . S
C133 C134 1.345 . S
C134 H126 0.950 . S
C134 C133 1.345 . S
C134 C135 1.424 . S
C135 H127 0.951 . S
C135 C134 1.424 . S
C135 C136 1.347 . S
C136 H128 0.951 . S
C136 C131 1.429 . S
C136 C135 1.347 . S
H137 C138 0.951 . S
C138 H137 0.951 . S
C138 C144 1.265 . S
H139 C144 0.950 . S
H140 C148 0.949 . S
H141 C149 0.950 1_655 S
H142 C150 0.951 . S
H143 C151 0.951 . S
C144 C138 1.265 . S
C144 H139 0.950 . S
C144 C145 1.478 . S
C145 C132 1.394 . S
C145 C144 1.478 . S
C145 C146 1.397 . S
C146 C145 1.397 . S
C146 C147 1.438 . S
C146 C151 1.429 . S
C147 C130 1.394 . S
C147 C146 1.438 . S
C147 C148 1.428 . S
C148 H140 0.949 . S
C148 C147 1.428 . S
C148 C149 1.345 . S
C149 H141 0.950 1_455 S
C149 C148 1.345 . S
C149 C150 1.424 . S
C150 H142 0.951 . S
C150 C149 1.424 . S
C150 C151 1.347 . S
C151 H143 0.951 . S
C151 C146 1.429 . S
C151 C150 1.347 . S
H152 C153 0.951 . S
C153 H152 0.951 . S
C153 C159 1.265 . S
H154 C159 0.950 . S
H155 C163 0.949 . S
H156 C164 0.950 . S
H157 C165 0.951 . S
H158 C166 0.951 . S
C159 C153 1.265 . S
C159 H154 0.950 . S
C159 C160 1.478 . S
C160 C159 1.478 . S
C160 C161 1.397 . S
C160 C177 1.394 . S
C161 C160 1.397 . S
C161 C162 1.438 . S
C161 C166 1.429 . S
C162 C161 1.438 . S
C162 C163 1.428 . S
C162 C175 1.394 . S
C163 H155 0.949 . S
C163 C162 1.428 . S
C163 C164 1.345 . S
C164 H156 0.950 . S
C164 C163 1.345 . S
C164 C165 1.424 . S
C165 H157 0.951 . S
C165 C164 1.424 . S
C165 C166 1.347 . S
C166 H158 0.951 . S
C166 C161 1.429 . S
C166 C165 1.347 . S
H167 C168 0.951 . S
C168 H167 0.951 . S
C168 C174 1.265 . S
H169 C174 0.950 . S
H170 C178 0.949 . S
H171 C179 0.950 . S
H172 C180 0.951 . S
H173 C181 0.951 . S
C174 C168 1.265 . S
C174 H169 0.950 . S
C174 C175 1.478 . S
C175 C162 1.394 . S
C175 C174 1.478 . S
C175 C176 1.397 . S
C176 C175 1.397 . S
C176 C177 1.438 . S
C176 C181 1.429 . S
C177 C160 1.394 . S
C177 C176 1.438 . S
C177 C178 1.428 . S
C178 H170 0.949 . S
C178 C177 1.428 . S
C178 C179 1.345 . S
C179 H171 0.950 . S
C179 C178 1.345 . S
C179 C180 1.424 . S
C180 H172 0.951 . S
C180 C179 1.424 . S
C180 C181 1.347 . S
C181 H173 0.951 . S
C181 C176 1.429 . S
C181 C180 1.347 . S
H182 C183 0.951 . S
C183 H182 0.951 . S
C183 C189 1.265 . S
H184 C189 0.950 . S
H185 C193 0.949 . S
H186 C194 0.950 . S
H187 C195 0.951 . S
H188 C196 0.951 . S
C189 C183 1.265 . S
C189 H184 0.950 . S
C189 C190 1.478 . S
C190 C189 1.478 . S
C190 C191 1.397 . S
C190 C207 1.394 . S
C191 C190 1.397 . S
C191 C192 1.438 . S
C191 C196 1.429 . S
C192 C191 1.438 . S
C192 C193 1.428 . S
C192 C205 1.394 . S
C193 H185 0.949 . S
C193 C192 1.428 . S
C193 C194 1.345 . S
C194 H186 0.950 . S
C194 C193 1.345 . S
C194 C195 1.424 . S
C195 H187 0.951 . S
C195 C194 1.424 . S
C195 C196 1.347 . S
C196 H188 0.951 . S
C196 C191 1.429 . S
C196 C195 1.347 . S
H197 C198 0.951 . S
C198 H197 0.951 . S
C198 C204 1.265 . S
H199 C204 0.950 . S
H200 C208 0.949 . S
H201 C209 0.950 . S
H202 C210 0.951 . S
H203 C211 0.951 . S
C204 C198 1.265 . S
C204 H199 0.950 . S
C204 C205 1.478 . S
C205 C192 1.394 . S
C205 C204 1.478 . S
C205 C206 1.397 . S
C206 C205 1.397 . S
C206 C207 1.438 . S
C206 C211 1.429 . S
C207 C190 1.394 . S
C207 C206 1.438 . S
C207 C208 1.428 . S
C208 H200 0.949 . S
C208 C207 1.428 . S
C208 C209 1.345 . S
C209 H201 0.950 . S
C209 C208 1.345 . S
C209 C210 1.424 . S
C210 H202 0.951 . S
C210 C209 1.424 . S
C210 C211 1.347 . S
C211 H203 0.951 . S
C211 C206 1.429 . S
C211 C210 1.347 . S
H212 C213 0.951 . S
C213 H212 0.951 . S
C213 C219 1.265 . S
H214 C219 0.950 . S
H215 C223 0.949 . S
H216 C224 0.950 . S
H217 C225 0.951 . S
H218 C226 0.951 . S
C219 C213 1.265 . S
C219 H214 0.950 . S
C219 C220 1.478 . S
C220 C219 1.478 . S
C220 C221 1.397 . S
C220 C237 1.394 . S
C221 C220 1.397 . S
C221 C222 1.438 . S
C221 C226 1.429 . S
C222 C221 1.438 . S
C222 C223 1.428 . S
C222 C235 1.394 . S
C223 H215 0.949 . S
C223 C222 1.428 . S
C223 C224 1.345 . S
C224 H216 0.950 . S
C224 C223 1.345 . S
C224 C225 1.424 . S
C225 H217 0.951 . S
C225 C224 1.424 . S
C225 C226 1.347 . S
C226 H218 0.951 . S
C226 C221 1.429 . S
C226 C225 1.347 . S
H227 C228 0.951 . S
C228 H227 0.951 . S
C228 C234 1.265 . S
H229 C234 0.950 . S
H230 C238 0.949 . S
H231 C239 0.950 . S
H232 C240 0.951 . S
H233 C241 0.951 . S
C234 C228 1.265 . S
C234 H229 0.950 . S
C234 C235 1.478 . S
C235 C222 1.394 . S
C235 C234 1.478 . S
C235 C236 1.397 . S
C236 C235 1.397 . S
C236 C237 1.438 . S
C236 C241 1.429 . S
C237 C220 1.394 . S
C237 C236 1.438 . S
C237 C238 1.428 . S
C238 H230 0.949 . S
C238 C237 1.428 . S
C238 C239 1.345 . S
C239 H231 0.950 . S
C239 C238 1.345 . S
C239 C240 1.424 . S
C240 H232 0.951 . S
C240 C239 1.424 . S
C240 C241 1.347 . S
C241 H233 0.951 . S
C241 C236 1.429 . S
C241 C240 1.347 . S
H242 C243 0.951 . S
C243 H242 0.951 . S
C243 C249 1.265 . S
H244 C249 0.950 . S
H245 C253 0.949 . S
H246 C254 0.950 1_545 S
H247 C255 0.951 . S
H248 C256 0.951 1_545 S
C249 C243 1.265 . S
C249 H244 0.950 . S
C249 C250 1.478 . S
C250 C249 1.478 . S
C250 C251 1.397 . S
C250 C267 1.394 . S
C251 C250 1.397 . S
C251 C252 1.438 . S
C251 C256 1.429 . S
C252 C251 1.438 . S
C252 C253 1.428 . S
C252 C265 1.394 . S
C253 H245 0.949 . S
C253 C252 1.428 . S
C253 C254 1.345 . S
C254 H246 0.950 1_565 S
C254 C253 1.345 . S
C254 C255 1.424 1_565 S
C255 H247 0.951 . S
C255 C254 1.424 1_545 S
C255 C256 1.347 1_545 S
C256 H248 0.951 1_565 S
C256 C251 1.429 . S
C256 C255 1.347 1_565 S
H257 C258 0.951 . S
C258 H257 0.951 . S
C258 C264 1.265 . S
H259 C264 0.950 . S
H260 C268 0.949 . S
H261 C269 0.950 . S
H262 C270 0.951 . S
H263 C271 0.951 . S
C264 C258 1.265 . S
C264 H259 0.950 . S
C264 C265 1.478 . S
C265 C252 1.394 . S
C265 C264 1.478 . S
C265 C266 1.397 . S
C266 C265 1.397 . S
C266 C267 1.438 . S
C266 C271 1.429 . S
C267 C250 1.394 . S
C267 C266 1.438 . S
C267 C268 1.428 . S
C268 H260 0.949 . S
C268 C267 1.428 . S
C268 C269 1.345 . S
C269 H261 0.950 . S
C269 C268 1.345 . S
C269 C270 1.424 . S
C270 H262 0.951 . S
C270 C269 1.424 . S
C270 C271 1.347 . S
C271 H263 0.951 . S
C271 C266 1.429 . S
C271 C270 1.347 . S
H272 C273 0.951 . S
C273 H272 0.951 . S
C273 C279 1.265 . S
H274 C279 0.950 . S
H275 C283 0.949 . S
H276 C284 0.950 . S
H277 C285 0.951 . S
H278 C286 0.951 . S
C279 C273 1.265 . S
C279 H274 0.950 . S
C279 C280 1.478 . S
C280 C279 1.478 . S
C280 C281 1.397 . S
C280 C297 1.394 . S
C281 C280 1.397 . S
C281 C282 1.438 . S
C281 C286 1.429 . S
C282 C281 1.438 . S
C282 C283 1.428 . S
C282 C295 1.394 . S
C283 H275 0.949 . S
C283 C282 1.428 . S
C283 C284 1.345 . S
C284 H276 0.950 . S
C284 C283 1.345 . S
C284 C285 1.424 . S
C285 H277 0.951 . S
C285 C284 1.424 . S
C285 C286 1.347 . S
C286 H278 0.951 . S
C286 C281 1.429 . S
C286 C285 1.347 . S
H287 C288 0.951 . S
C288 H287 0.951 . S
C288 C294 1.265 . S
H289 C294 0.950 . S
H290 C298 0.949 . S
H291 C299 0.950 1_455 S
H292 C300 0.951 . S
H293 C301 0.951 . S
C294 C288 1.265 . S
C294 H289 0.950 . S
C294 C295 1.478 . S
C295 C282 1.394 . S
C295 C294 1.478 . S
C295 C296 1.397 . S
C296 C295 1.397 . S
C296 C297 1.438 . S
C296 C301 1.429 . S
C297 C280 1.394 . S
C297 C296 1.438 . S
C297 C298 1.428 . S
C298 H290 0.949 . S
C298 C297 1.428 . S
C298 C299 1.345 . S
C299 H291 0.950 1_655 S
C299 C298 1.345 . S
C299 C300 1.424 . S
C300 H292 0.951 . S
C300 C299 1.424 . S
C300 C301 1.347 . S
C301 H293 0.951 . S
C301 C296 1.429 . S
C301 C300 1.347 . S
H302 C303 0.951 . S
C303 H302 0.951 . S
C303 C309 1.265 . S
H304 C309 0.950 . S
H305 C313 0.949 . S
H306 C314 0.950 . S
H307 C315 0.951 . S
H308 C316 0.951 . S
C309 C303 1.265 . S
C309 H304 0.950 . S
C309 C310 1.478 . S
C310 C309 1.478 . S
C310 C311 1.397 . S
C310 C327 1.394 . S
C311 C310 1.397 . S
C311 C312 1.438 . S
C311 C316 1.429 . S
C312 C311 1.438 . S
C312 C313 1.428 . S
C312 C325 1.394 . S
C313 H305 0.949 . S
C313 C312 1.428 . S
C313 C314 1.345 . S
C314 H306 0.950 . S
C314 C313 1.345 . S
C314 C315 1.424 . S
C315 H307 0.951 . S
C315 C314 1.424 . S
C315 C316 1.347 . S
C316 H308 0.951 . S
C316 C311 1.429 . S
C316 C315 1.347 . S
H317 C318 0.951 . S
C318 H317 0.951 . S
C318 C324 1.265 . S
H319 C324 0.950 . S
H320 C328 0.949 . S
H321 C329 0.950 . S
H322 C330 0.951 . S
H323 C331 0.951 . S
C324 C318 1.265 . S
C324 H319 0.950 . S
C324 C325 1.478 . S
C325 C312 1.394 . S
C325 C324 1.478 . S
C325 C326 1.397 . S
C326 C325 1.397 . S
C326 C327 1.438 . S
C326 C331 1.429 . S
C327 C310 1.394 . S
C327 C326 1.438 . S
C327 C328 1.428 . S
C328 H320 0.949 . S
C328 C327 1.428 . S
C328 C329 1.345 . S
C329 H321 0.950 . S
C329 C328 1.345 . S
C329 C330 1.424 . S
C330 H322 0.951 . S
C330 C329 1.424 . S
C330 C331 1.347 . S
C331 H323 0.951 . S
C331 C326 1.429 . S
C331 C330 1.347 . S
H332 C333 0.951 . S
C333 H332 0.951 . S
C333 C339 1.265 . S
H334 C339 0.950 . S
H335 C343 0.949 . S
H336 C344 0.950 . S
H337 C345 0.951 . S
H338 C346 0.951 . S
C339 C333 1.265 . S
C339 H334 0.950 . S
C339 C340 1.478 . S
C340 C339 1.478 . S
C340 C341 1.397 . S
C340 C357 1.394 . S
C341 C340 1.397 . S
C341 C342 1.438 . S
C341 C346 1.429 . S
C342 C341 1.438 . S
C342 C343 1.428 . S
C342 C355 1.394 . S
C343 H335 0.949 . S
C343 C342 1.428 . S
C343 C344 1.345 . S
C344 H336 0.950 . S
C344 C343 1.345 . S
C344 C345 1.424 . S
C345 H337 0.951 . S
C345 C344 1.424 . S
C345 C346 1.347 . S
C346 H338 0.951 . S
C346 C341 1.429 . S
C346 C345 1.347 . S
H347 C348 0.951 . S
C348 H347 0.951 . S
C348 C354 1.265 . S
H349 C354 0.950 . S
H350 C358 0.949 . S
H351 C359 0.950 1_565 S
H352 C360 0.951 . S
H353 C361 0.951 . S
C354 C348 1.265 . S
C354 H349 0.950 . S
C354 C355 1.478 . S
C355 C342 1.394 . S
C355 C354 1.478 . S
C355 C356 1.397 . S
C356 C355 1.397 . S
C356 C357 1.438 . S
C356 C361 1.429 . S
C357 C340 1.394 . S
C357 C356 1.438 . S
C357 C358 1.428 . S
C358 H350 0.949 . S
C358 C357 1.428 . S
C358 C359 1.345 . S
C359 H351 0.950 1_545 S
C359 C358 1.345 . S
C359 C360 1.424 . S
C360 H352 0.951 . S
C360 C359 1.424 . S
C360 C361 1.347 . S
C361 H353 0.951 . S
C361 C356 1.429 . S
C361 C360 1.347 . S
H362 C363 0.951 . S
C363 H362 0.951 . S
C363 C369 1.265 . S
H364 C369 0.950 . S
H365 C373 0.949 . S
H366 C374 0.950 . S
H367 C375 0.951 . S
H368 C376 0.951 . S
C369 C363 1.265 . S
C369 H364 0.950 . S
C369 C370 1.478 . S
C370 C369 1.478 . S
C370 C371 1.397 . S
C370 C387 1.394 . S
C371 C370 1.397 . S
C371 C372 1.438 . S
C371 C376 1.429 . S
C372 C371 1.438 . S
C372 C373 1.428 . S
C372 C385 1.394 . S
C373 H365 0.949 . S
C373 C372 1.428 . S
C373 C374 1.345 . S
C374 H366 0.950 . S
C374 C373 1.345 . S
C374 C375 1.424 . S
C375 H367 0.951 . S
C375 C374 1.424 . S
C375 C376 1.347 . S
C376 H368 0.951 . S
C376 C371 1.429 . S
C376 C375 1.347 . S
H377 C378 0.951 . S
C378 H377 0.951 . S
C378 C384 1.265 . S
H379 C384 0.950 . S
H380 C388 0.949 . S
H381 C389 0.950 1_655 S
H382 C390 0.951 1_655 S
H383 C391 0.951 . S
C384 C378 1.265 . S
C384 H379 0.950 . S
C384 C385 1.478 . S
C385 C372 1.394 . S
C385 C384 1.478 . S
C385 C386 1.397 . S
C386 C385 1.397 . S
C386 C387 1.438 . S
C386 C391 1.429 . S
C387 C370 1.394 . S
C387 C386 1.438 . S
C387 C388 1.428 . S
C388 H380 0.949 . S
C388 C387 1.428 . S
C388 C389 1.345 . S
C389 H381 0.950 1_455 S
C389 C388 1.345 . S
C389 C390 1.424 . S
C390 H382 0.951 1_455 S
C390 C389 1.424 . S
C390 C391 1.347 . S
C391 H383 0.951 . S
C391 C386 1.429 . S
C391 C390 1.347 . S
H392 C393 0.951 . S
C393 H392 0.951 . S
C393 C399 1.265 . S
H394 C399 0.950 . S
H395 C403 0.949 . S
H396 C404 0.950 . S
H397 C405 0.951 . S
H398 C406 0.951 . S
C399 C393 1.265 . S
C399 H394 0.950 . S
C399 C400 1.478 . S
C400 C399 1.478 . S
C400 C401 1.397 . S
C400 C417 1.394 . S
C401 C400 1.397 . S
C401 C402 1.438 . S
C401 C406 1.429 . S
C402 C401 1.438 . S
C402 C403 1.428 . S
C402 C415 1.394 . S
C403 H395 0.949 . S
C403 C402 1.428 . S
C403 C404 1.345 . S
C404 H396 0.950 . S
C404 C403 1.345 . S
C404 C405 1.424 . S
C405 H397 0.951 . S
C405 C404 1.424 . S
C405 C406 1.347 . S
C406 H398 0.951 . S
C406 C401 1.429 . S
C406 C405 1.347 . S
H407 C408 0.951 . S
C408 H407 0.951 . S
C408 C414 1.265 . S
H409 C414 0.950 . S
H410 C418 0.949 . S
H411 C419 0.950 . S
H412 C420 0.951 . S
H413 C421 0.951 . S
C414 C408 1.265 . S
C414 H409 0.950 . S
C414 C415 1.478 . S
C415 C402 1.394 . S
C415 C414 1.478 . S
C415 C416 1.397 . S
C416 C415 1.397 . S
C416 C417 1.438 . S
C416 C421 1.429 . S
C417 C400 1.394 . S
C417 C416 1.438 . S
C417 C418 1.428 . S
C418 H410 0.949 . S
C418 C417 1.428 . S
C418 C419 1.345 . S
C419 H411 0.950 . S
C419 C418 1.345 . S
C419 C420 1.424 . S
C420 H412 0.951 . S
C420 C419 1.424 . S
C420 C421 1.347 . S
C421 H413 0.951 . S
C421 C416 1.429 . S
C421 C420 1.347 . S
H422 C423 0.951 . S
C423 H422 0.951 . S
C423 C429 1.265 . S
H424 C429 0.950 . S
H425 C433 0.949 . S
H426 C434 0.950 . S
H427 C435 0.951 . S
H428 C436 0.951 . S
C429 C423 1.265 . S
C429 H424 0.950 . S
C429 C430 1.478 . S
C430 C429 1.478 . S
C430 C431 1.397 . S
C430 C447 1.394 . S
C431 C430 1.397 . S
C431 C432 1.438 . S
C431 C436 1.429 . S
C432 C431 1.438 . S
C432 C433 1.428 . S
C432 C445 1.394 . S
C433 H425 0.949 . S
C433 C432 1.428 . S
C433 C434 1.345 . S
C434 H426 0.950 . S
C434 C433 1.345 . S
C434 C435 1.424 . S
C435 H427 0.951 . S
C435 C434 1.424 . S
C435 C436 1.347 . S
C436 H428 0.951 . S
C436 C431 1.429 . S
C436 C435 1.347 . S
H437 C438 0.951 . S
C438 H437 0.951 . S
C438 C444 1.265 . S
H439 C444 0.950 . S
H440 C448 0.949 . S
H441 C449 0.950 . S
H442 C450 0.951 . S
H443 C451 0.951 . S
C444 C438 1.265 . S
C444 H439 0.950 . S
C444 C445 1.478 . S
C445 C432 1.394 . S
C445 C444 1.478 . S
C445 C446 1.397 . S
C446 C445 1.397 . S
C446 C447 1.438 . S
C446 C451 1.429 . S
C447 C430 1.394 . S
C447 C446 1.438 . S
C447 C448 1.428 . S
C448 H440 0.949 . S
C448 C447 1.428 . S
C448 C449 1.345 . S
C449 H441 0.950 . S
C449 C448 1.345 . S
C449 C450 1.424 . S
C450 H442 0.951 . S
C450 C449 1.424 . S
C450 C451 1.347 . S
C451 H443 0.951 . S
C451 C446 1.429 . S
C451 C450 1.347 . S
H452 C453 0.951 . S
C453 H452 0.951 . S
C453 C459 1.265 . S
H454 C459 0.950 . S
H455 C463 0.949 . S
H456 C464 0.950 . S
H457 C465 0.951 1_554 S
H458 C466 0.951 . S
C459 C453 1.265 . S
C459 H454 0.950 . S
C459 C460 1.478 . S
C460 C459 1.478 . S
C460 C461 1.397 . S
C460 C477 1.394 . S
C461 C460 1.397 . S
C461 C462 1.438 . S
C461 C466 1.429 . S
C462 C461 1.438 . S
C462 C463 1.428 . S
C462 C475 1.394 . S
C463 H455 0.949 . S
C463 C462 1.428 . S
C463 C464 1.345 . S
C464 H456 0.950 . S
C464 C463 1.345 . S
C464 C465 1.424 . S
C465 H457 0.951 1_556 S
C465 C464 1.424 . S
C465 C466 1.347 . S
C466 H458 0.951 . S
C466 C461 1.429 . S
C466 C465 1.347 . S
H467 C468 0.951 . S
C468 H467 0.951 . S
C468 C474 1.265 . S
H469 C474 0.950 . S
H470 C478 0.949 . S
H471 C479 0.950 . S
H472 C480 0.951 . S
H473 C481 0.951 . S
C474 C468 1.265 . S
C474 H469 0.950 . S
C474 C475 1.478 . S
C475 C462 1.394 . S
C475 C474 1.478 . S
C475 C476 1.397 . S
C476 C475 1.397 . S
C476 C477 1.438 . S
C476 C481 1.429 . S
C477 C460 1.394 . S
C477 C476 1.438 . S
C477 C478 1.428 . S
C478 H470 0.949 . S
C478 C477 1.428 . S
C478 C479 1.345 . S
C479 H471 0.950 . S
C479 C478 1.345 . S
C479 C480 1.424 . S
C480 H472 0.951 . S
C480 C479 1.424 . S
C480 C481 1.347 . S
C481 H473 0.951 . S
C481 C476 1.429 . S
C481 C480 1.347 . S
C123 C26 1.298 . S
C138 C99 1.211 . S
C153 C43 1.269 . S
C168 C105 1.215 . S
C183 C22 1.400 . S
C198 C96 1.303 . S
C213 C49 1.350 . S
C228 C121 1.257 . S
C243 C15 1.874 . S
C258 C87 1.751 . S
C288 C104 1.850 . S
C273 C42 1.954 . S
C303 C66 1.312 . S
C318 C100 1.296 . S
C348 C117 1.835 . S
C333 C2 1.950 . S
C378 C84 1.632 . S
C363 C55 1.826 . S
C408 C120 1.374 . S
C393 C9 1.443 . S
C438 C83 1.177 . S
C423 C62 1.350 . S
C468 C108 1.145 . S
C453 C3 1.250 . S
