# Generated by pormake.
# Topology pyr, (3,6)-cn, num edge types: 1
# Building blocks:
#     Node 0, Type 0, BuildingBlock: WUSLED_clean_sbu_0, # of connection points: 3
#     Node 1, Type 0, BuildingBlock: WUSLED_clean_sbu_0, # of connection points: 3
#     Node 2, Type 0, BuildingBlock: WUSLED_clean_sbu_0, # of connection points: 3
#     Node 3, Type 0, BuildingBlock: WUSLED_clean_sbu_0, # of connection points: 3
#     Node 4, Type 0, BuildingBlock: WUSLED_clean_sbu_0, # of connection points: 3
#     Node 5, Type 0, BuildingBlock: WUSLED_clean_sbu_0, # of connection points: 3
#     Node 6, Type 0, BuildingBlock: WUSLED_clean_sbu_0, # of connection points: 3
#     Node 7, Type 0, BuildingBlock: WUSLED_clean_sbu_0, # of connection points: 3
#     Node 8, Type 1, BuildingBlock: BETFAJ_clean_sbu_0, # of connection points: 6
#     Node 9, Type 1, BuildingBlock: BETFAJ_clean_sbu_0, # of connection points: 6
#     Node 10, Type 1, BuildingBlock: BETFAJ_clean_sbu_0, # of connection points: 6
#     Node 11, Type 1, BuildingBlock: BETFAJ_clean_sbu_0, # of connection points: 6
#     Edge 12, Type (0, 1), None
#     Edge 13, Type (0, 1), None
#     Edge 14, Type (0, 1), None
#     Edge 15, Type (0, 1), None
#     Edge 16, Type (0, 1), None
#     Edge 17, Type (0, 1), None
#     Edge 18, Type (0, 1), None
#     Edge 19, Type (0, 1), None
#     Edge 20, Type (0, 1), None
#     Edge 21, Type (0, 1), None
#     Edge 22, Type (0, 1), None
#     Edge 23, Type (0, 1), None
#     Edge 24, Type (0, 1), None
#     Edge 25, Type (0, 1), None
#     Edge 26, Type (0, 1), None
#     Edge 27, Type (0, 1), None
#     Edge 28, Type (0, 1), None
#     Edge 29, Type (0, 1), None
#     Edge 30, Type (0, 1), None
#     Edge 31, Type (0, 1), None
#     Edge 32, Type (0, 1), None
#     Edge 33, Type (0, 1), None
#     Edge 34, Type (0, 1), None
#     Edge 35, Type (0, 1), None
# Relax obj value: 0.183
# Max RMSD: 0.145
# Mean RMSD: 0.070
data_MOF--net-pyr--node1-WUSLED_clean_sbu_0--node2-BETFAJ_clean_sbu_0--edge1-none
_symmetry_space_group_name_H-M    P1
_symmetry_Int_Tables_number       1
_symmetry_cell_setting            triclinic
loop_
_symmetry_equiv_pos_as_xyz
'x, y, z'
_cell_length_a     28.430457
_cell_length_b     30.237601
_cell_length_c     27.454754
_cell_angle_alpha  90.657625
_cell_angle_beta   88.699872
_cell_angle_gamma 104.48553
loop_
_atom_site_label
_atom_site_type_symbol
_atom_site_fract_x
_atom_site_fract_y
_atom_site_fract_z
_atom_type_partial_charge
C0 C 0.32503 0.41434 0.20765 0.0
C1 C 0.28173 0.38383 0.22356 0.0
C2 C 0.23652 0.43966 0.2044 0.0
C3 C 0.23772 0.39642 0.22195 0.0
C4 C 0.28053 0.47104 0.19179 0.0
C5 C 0.32439 0.45834 0.1932 0.0
U6 U 0.39395 0.32346 0.21947 0.0
O7 O 0.43357 0.29787 0.16099 0.0
O8 O 0.47093 0.32428 0.22869 0.0
C9 C 0.47175 0.30086 0.18814 0.0
C10 C 0.36928 0.39867 0.1991 0.0
C11 C 0.48541 0.25766 0.19303 0.0
C12 C 0.5452 0.21423 0.17999 0.0
C13 C 0.5336 0.25619 0.18477 0.0
C14 C 0.46075 0.1749 0.19514 0.0
C15 C 0.50842 0.17329 0.18247 0.0
C16 C 0.44938 0.21692 0.20081 0.0
C17 C 0.28692 0.26317 0.29933 0.0
C18 C 0.24495 0.26905 0.37577 0.0
C19 C 0.19932 0.23765 0.3043 0.0
C20 C 0.24224 0.24524 0.27694 0.0
C21 C 0.20067 0.24807 0.35424 0.0
C22 C 0.28783 0.2762 0.34863 0.0
C23 C 0.33259 0.26444 0.27303 0.0
O24 O 0.39469 0.39489 0.23764 0.0
O25 O 0.36347 0.3637 0.16903 0.0
O26 O 0.37113 0.29317 0.2906 0.0
O27 O 0.33128 0.26397 0.22515 0.0
H28 H 0.28162 0.3495 0.2346 0.0
H29 H 0.20445 0.37139 0.23166 0.0
H30 H 0.28088 0.50488 0.17904 0.0
H31 H 0.35751 0.48216 0.18075 0.0
H32 H 0.58222 0.21415 0.16988 0.0
H33 H 0.56171 0.28737 0.17899 0.0
H34 H 0.43164 0.14395 0.19697 0.0
H35 H 0.41189 0.21757 0.20783 0.0
H36 H 0.2467 0.27763 0.41424 0.0
H37 H 0.1656 0.22072 0.28709 0.0
H38 H 0.24053 0.2349 0.23899 0.0
H39 H 0.32176 0.29006 0.36692 0.0
C40 C 0.16237 0.9453 0.57962 0.0
C41 C 0.1622 0.97824 0.61617 0.0
C42 C 0.13795 1.02678 0.55681 0.0
C43 C 0.1498 1.0188 0.6048 0.0
C44 C 0.13984 0.99425 0.52039 0.0
C45 C 0.15192 0.95385 0.53178 0.0
U46 U 0.23403 0.88472 0.65446 0.0
O47 O 0.27767 0.83935 0.62785 0.0
O48 O 0.22188 0.81549 0.68521 0.0
C49 C 0.25757 0.80673 0.65853 0.0
C50 C 0.17677 0.90331 0.58966 0.0
C51 C 0.29235 0.78643 0.68253 0.0
C52 C 0.33104 0.7238 0.68008 0.0
C53 C 0.29115 0.74109 0.67098 0.0
C54 C 0.37197 0.79592 0.71718 0.0
C55 C 0.37283 0.75164 0.70129 0.0
C56 C 0.33201 0.8134 0.70753 0.0
C57 C 0.30405 0.95724 0.75612 0.0
C58 C 0.31887 0.9382 0.83847 0.0
C59 C 0.36175 1.01123 0.80387 0.0
C60 C 0.33847 0.99902 0.76018 0.0
C61 C 0.3505 0.9816 0.84366 0.0
C62 C 0.29577 0.92587 0.7946 0.0
C63 C 0.27296 0.95025 0.7142 0.0
O64 O 0.22299 0.90616 0.58066 0.0
O65 O 0.16034 0.88301 0.63103 0.0
O66 O 0.22937 0.92319 0.72127 0.0
O67 O 0.29371 0.94404 0.6723 0.0
H68 H 0.17128 0.97249 0.65331 0.0
H69 H 0.14834 1.04329 0.63358 0.0
H70 H 0.13071 0.9994 0.48316 0.0
H71 H 0.15296 0.9291 0.50317 0.0
H72 H 0.33044 0.68988 0.66661 0.0
H73 H 0.261 0.72016 0.65111 0.0
H74 H 0.40326 0.81795 0.73437 0.0
H75 H 0.33351 0.84874 0.71644 0.0
H76 H 0.31024 0.91497 0.86902 0.0
H77 H 0.38576 1.04507 0.80753 0.0
H78 H 0.34504 1.02336 0.73058 0.0
H79 H 0.26952 0.89313 0.79176 0.0
C80 C 0.63568 0.46906 0.77966 0.0
C81 C 0.61164 0.50399 0.78834 0.0
C82 C 0.60095 0.5136 0.70051 0.0
C83 C 0.59486 0.52592 0.74961 0.0
C84 C 0.62461 0.47827 0.6918 0.0
C85 C 0.64179 0.45652 0.73067 0.0
U86 U 0.68382 0.40536 0.89538 0.0
O87 O 0.62413 0.36254 0.93945 0.0
O88 O 0.66798 0.32967 0.89138 0.0
C89 C 0.63181 0.32378 0.92331 0.0
C90 C 0.65335 0.44565 0.82146 0.0
C91 C 0.62172 0.28368 0.95715 0.0
C92 C 0.56891 0.24082 1.02102 0.0
C93 C 0.58764 0.28146 0.99552 0.0
C94 C 0.61895 0.20289 0.97221 0.0
C95 C 0.58329 0.20064 1.00915 0.0
C96 C 0.63776 0.24393 0.9463 0.0
C97 C 0.80815 0.46769 0.96926 0.0
C98 C 0.883 0.46283 1.00885 0.0
C99 C 0.86247 0.53555 1.00527 0.0
C100 C 0.81939 0.51457 0.98087 0.0
C101 C 0.89483 0.50989 1.01995 0.0
C102 C 0.84059 0.44214 0.98344 0.0
C103 C 0.76297 0.44555 0.94247 0.0
O104 O 0.68306 0.41878 0.81572 0.0
O105 O 0.64088 0.45122 0.8671 0.0
O106 O 0.72014 0.45231 0.95395 0.0
O107 O 0.76321 0.41752 0.90552 0.0
H108 H 0.60583 0.51464 0.82532 0.0
H109 H 0.57668 0.55256 0.75836 0.0
H110 H 0.62988 0.4673 0.65484 0.0
H111 H 0.65962 0.42954 0.72229 0.0
H112 H 0.54159 0.24061 1.04925 0.0
H113 H 0.57338 0.31064 1.00447 0.0
H114 H 0.63081 0.17264 0.96202 0.0
H115 H 0.66321 0.24391 0.91635 0.0
H116 H 0.90712 0.44199 1.01895 0.0
H117 H 0.87034 0.57189 1.01271 0.0
H118 H 0.79522 0.5352 0.97029 0.0
H119 H 0.83299 0.40597 0.97514 0.0
C120 C 0.75957 0.6702 0.4593 0.0
C121 C 0.76368 0.66926 0.51034 0.0
C122 C 0.67602 0.63468 0.5204 0.0
C123 C 0.72235 0.65196 0.54048 0.0
C124 C 0.67209 0.63626 0.4695 0.0
C125 C 0.71312 0.65391 0.43958 0.0
U126 U 0.8847 0.73654 0.39281 0.0
O127 O 0.94034 0.70321 0.36235 0.0
O128 O 0.89925 0.73513 0.313 0.0
C129 C 0.93388 0.71369 0.31705 0.0
C130 C 0.80265 0.68109 0.42497 0.0
C131 C 0.94478 0.68426 0.27569 0.0
C132 C 0.93184 0.61295 0.22814 0.0
C133 C 0.91861 0.63882 0.26729 0.0
C134 C 0.99746 0.67712 0.20502 0.0
C135 C 0.97173 0.63157 0.19638 0.0
C136 C 0.98416 0.70286 0.24383 0.0
C137 C 0.93795 0.86163 0.45989 0.0
C138 C 0.94895 0.94461 0.46301 0.0
C139 C 0.98139 0.90719 0.52678 0.0
C140 C 0.96364 0.86484 0.50355 0.0
C141 C 0.97416 0.94772 0.50701 0.0
C142 C 0.93098 0.90215 0.43987 0.0
C143 C 0.91862 0.81633 0.43549 0.0
O144 O 0.80452 0.71166 0.3908 0.0
O145 O 0.84574 0.6807 0.44115 0.0
O146 O 0.93019 0.77893 0.44915 0.0
O147 O 0.88852 0.81068 0.39895 0.0
H148 H 0.79885 0.681 0.52693 0.0
H149 H 0.72678 0.65156 0.57954 0.0
H150 H 0.63718 0.62365 0.45261 0.0
H151 H 0.7087 0.65352 0.40047 0.0
H152 H 0.91111 0.57799 0.22314 0.0
H153 H 0.88821 0.6232 0.29105 0.0
H154 H 1.02838 0.69291 0.18197 0.0
H155 H 1.00525 0.73766 0.24927 0.0
H156 H 0.94299 0.975 0.44636 0.0
H157 H 1.00093 0.90809 0.56034 0.0
H158 H 0.96987 0.83449 0.52003 0.0
H159 H 0.9117 0.90111 0.40615 0.0
C160 C 0.75206 0.74079 0.95135 0.0
C161 C 0.7954 0.77139 0.93569 0.0
C162 C 0.84057 0.71548 0.95464 0.0
C163 C 0.83942 0.7588 0.93732 0.0
C164 C 0.79652 0.68399 0.9669 0.0
C165 C 0.75266 0.69669 0.96546 0.0
U166 U 0.6827 0.8314 0.93962 0.0
O167 O 0.64354 0.8571 0.9984 0.0
O168 O 0.6056 0.83049 0.93105 0.0
C169 C 0.60512 0.85401 0.97159 0.0
C170 C 0.70782 0.75644 0.96011 0.0
C171 C 0.59135 0.89719 0.96684 0.0
C172 C 0.53152 0.9405 0.98031 0.0
C173 C 0.54318 0.89857 0.97536 0.0
C174 C 0.61587 0.97996 0.96484 0.0
C175 C 0.56823 0.98148 0.97774 0.0
C176 C 0.62729 0.93798 0.95899 0.0
C177 C 0.78904 0.89157 0.85892 0.0
C178 C 0.83072 0.88727 0.78198 0.0
C179 C 0.87674 0.9154 0.85422 0.0
C180 C 0.83385 0.90777 0.88164 0.0
C181 C 0.87523 0.90667 0.80392 0.0
C182 C 0.78789 0.88017 0.80918 0.0
C183 C 0.7435 0.89029 0.88544 0.0
O184 O 0.71378 0.79156 0.98997 0.0
O185 O 0.68206 0.75993 0.92174 0.0
O186 O 0.74508 0.89106 0.93331 0.0
O187 O 0.70496 0.8613 0.86819 0.0
H188 H 0.79555 0.80579 0.92489 0.0
H189 H 0.87272 0.78391 0.92788 0.0
H190 H 0.79614 0.65007 0.97945 0.0
H191 H 0.71951 0.67279 0.9777 0.0
H192 H 0.49451 0.94051 0.99058 0.0
H193 H 0.51513 0.86736 0.9812 0.0
H194 H 0.64492 1.01094 0.96292 0.0
H195 H 0.66477 0.9374 0.95178 0.0
H196 H 0.82881 0.87995 0.74323 0.0
H197 H 0.91063 0.93108 0.87181 0.0
H198 H 0.83578 0.91678 0.91996 0.0
H199 H 0.75383 0.86765 0.79068 0.0
C200 C 0.77244 0.19681 0.40417 0.0
C201 C 0.73949 0.15424 0.39969 0.0
C202 C 0.72601 0.17207 0.31669 0.0
C203 C 0.71622 0.14183 0.35603 0.0
C204 C 0.75616 0.21612 0.32234 0.0
C205 C 0.77925 0.22864 0.3662 0.0
U206 U 0.84289 0.27046 0.50488 0.0
O207 O 0.85464 0.33945 0.47362 0.0
O208 O 0.79925 0.31586 0.53141 0.0
C209 C 0.81913 0.34833 0.50048 0.0
C210 C 0.80376 0.20435 0.44589 0.0
C211 C 0.7842 0.36858 0.47668 0.0
C212 C 0.70426 0.35909 0.44277 0.0
C213 C 0.74424 0.34155 0.45215 0.0
C214 C 0.74574 0.43136 0.4792 0.0
C215 C 0.70367 0.40349 0.4585 0.0
C216 C 0.78565 0.41401 0.488 0.0
C217 C 0.91522 0.21062 0.57975 0.0
C218 C 0.938 0.16206 0.63924 0.0
C219 C 0.92759 0.13692 0.55505 0.0
C220 C 0.91519 0.17743 0.54343 0.0
C221 C 0.93964 0.12926 0.60306 0.0
C222 C 0.92593 0.20241 0.62761 0.0
C223 C 0.90069 0.2525 0.5695 0.0
O224 O 0.8472 0.23153 0.43833 0.0
O225 O 0.78321 0.21089 0.48779 0.0
O226 O 0.85451 0.24964 0.57878 0.0
O227 O 0.91679 0.27251 0.52791 0.0
H228 H 0.7341 0.12955 0.42889 0.0
H229 H 0.69339 0.1075 0.35199 0.0
H230 H 0.76366 0.23981 0.29215 0.0
H231 H 0.80439 0.26195 0.3694 0.0
H232 H 0.67276 0.33703 0.42596 0.0
H233 H 0.74255 0.30614 0.44341 0.0
H234 H 0.74657 0.46538 0.49252 0.0
H235 H 0.81605 0.435 0.5075 0.0
H236 H 0.94731 0.15717 0.67648 0.0
H237 H 0.92887 0.11222 0.52645 0.0
H238 H 0.90591 0.18292 0.50629 0.0
H239 H 0.92505 0.22735 0.65605 0.0
C240 C 0.26869 0.68777 0.19146 0.0
C241 C 0.23619 0.71332 0.17745 0.0
C242 C 0.18198 0.64565 0.14075 0.0
C243 C 0.19377 0.69268 0.15203 0.0
C244 C 0.21439 0.61998 0.15527 0.0
C245 C 0.25748 0.64092 0.17967 0.0
U246 U 0.39309 0.75002 0.26527 0.0
O247 O 0.39387 0.73672 0.34497 0.0
O248 O 0.43596 0.70413 0.29364 0.0
C249 C 0.42354 0.70981 0.33927 0.0
C250 C 0.3139 0.70987 0.21822 0.0
C251 C 0.4412 0.68642 0.38111 0.0
C252 C 0.48202 0.6296 0.41123 0.0
C253 C 0.46522 0.65148 0.37247 0.0
C254 C 0.45231 0.67732 0.46899 0.0
C255 C 0.47595 0.64197 0.46031 0.0
C256 C 0.43512 0.69903 0.43009 0.0
C257 C 0.45538 0.87154 0.20325 0.0
C258 C 0.50853 0.9144 0.13961 0.0
C259 C 0.45793 0.95221 0.18781 0.0
C260 C 0.43909 0.91122 0.21378 0.0
C261 C 0.49388 0.95451 0.15115 0.0
C262 C 0.48976 0.8738 0.16515 0.0
C263 C 0.44522 0.8315 0.23718 0.0
O264 O 0.3567 0.70302 0.20678 0.0
O265 O 0.31371 0.73795 0.25513 0.0
O266 O 0.40906 0.82572 0.26911 0.0
O267 O 0.45283 0.79268 0.22113 0.0
H268 H 0.24375 0.74947 0.18588 0.0
H269 H 0.1696 0.71352 0.14206 0.0
H270 H 0.20657 0.58367 0.14768 0.0
H271 H 0.2817 0.62028 0.19011 0.0
H272 H 0.50019 0.60294 0.4025 0.0
H273 H 0.47102 0.64079 0.33551 0.0
H274 H 0.44706 0.68833 0.50594 0.0
H275 H 0.41729 0.72602 0.43843 0.0
H276 H 0.53607 0.91465 0.1116 0.0
H277 H 0.44586 0.98242 0.19775 0.0
H278 H 0.41341 0.91121 0.24351 0.0
H279 H 0.50421 0.84467 0.15647 0.0
C280 C 0.13904 0.29418 0.70063 0.0
C281 C 0.11346 0.29089 0.65693 0.0
C282 C 0.10322 0.20805 0.6535 0.0
C283 C 0.09589 0.24852 0.63371 0.0
C284 C 0.12847 0.21122 0.69749 0.0
C285 C 0.14629 0.25373 0.72062 0.0
U286 U 0.19221 0.41909 0.76804 0.0
O287 O 0.13667 0.45244 0.79854 0.0
O288 O 0.17761 0.42036 0.8479 0.0
C289 C 0.14302 0.44186 0.84382 0.0
C290 C 0.15824 0.33954 0.72493 0.0
C291 C 0.13204 0.47125 0.88517 0.0
C292 C 0.0789 0.47856 0.9554 0.0
C293 C 0.0922 0.45286 0.91655 0.0
C294 C 0.14539 0.54231 0.93319 0.0
C295 C 0.10508 0.52388 0.96452 0.0
C296 C 0.15863 0.51647 0.89402 0.0
C297 C 0.31738 0.48543 0.70163 0.0
C298 C 0.4048 0.51957 0.69133 0.0
C299 C 0.35458 0.50321 0.62036 0.0
C300 C 0.31327 0.486 0.65056 0.0
C301 C 0.40088 0.52076 0.64042 0.0
C302 C 0.3638 0.50202 0.72131 0.0
C303 C 0.27433 0.47451 0.736 0.0
O304 O 0.18814 0.34506 0.7616 0.0
O305 O 0.1466 0.37698 0.71141 0.0
O306 O 0.23125 0.47496 0.71985 0.0
O307 O 0.27245 0.44387 0.77011 0.0
H308 H 0.10718 0.32119 0.6404 0.0
H309 H 0.07635 0.24757 0.60015 0.0
H310 H 0.13454 0.18087 0.71414 0.0
H311 H 0.16567 0.25485 0.7543 0.0
H312 H 0.04765 0.46293 0.97809 0.0
H313 H 0.07077 0.41824 0.91073 0.0
H314 H 0.16648 0.57709 0.93857 0.0
H315 H 0.18939 0.53193 0.87062 0.0
H316 H 0.43968 0.5324 0.70821 0.0
H317 H 0.35017 0.5033 0.58128 0.0
H318 H 0.27811 0.47402 0.63399 0.0
H319 H 0.36821 0.50269 0.76043 0.0
Sm320 Sm 0.03839 0.10068 0.53277 0.0
Sm321 Sm 0.03902 1.0552 0.62758 0.0
C322 C 1.03376 0.15475 0.46059 0.0
C323 C 0.07533 0.18425 0.43682 0.0
C324 C 0.07001 0.20811 0.39508 0.0
C325 C 0.1112 0.23142 0.36919 0.0
C326 C 0.15757 0.2304 0.38501 0.0
C327 C 0.16245 0.2074 0.42799 0.0
C328 C 0.1215 0.18465 0.45391 0.0
C329 C 0.11836 1.06593 0.54514 0.0
C330 C 0.08375 0.16305 0.62866 0.0
C331 C 0.0432 1.001 0.69973 0.0
C332 C 1.0013 0.97146 0.72294 0.0
C333 C 1.00614 0.94617 0.76374 0.0
C334 C 0.96469 0.92253 0.78899 0.0
C335 C 0.91852 0.92465 0.7735 0.0
C336 C 0.91414 0.94905 0.73138 0.0
C337 C 0.95534 0.97209 0.70605 0.0
C338 C 0.95912 0.09011 0.615 0.0
C339 C 0.9937 0.99274 0.5318 0.0
O340 O 1.02717 0.16581 0.50589 0.0
O341 O 1.03156 0.11142 0.45422 0.0
O342 O 0.09946 0.08675 0.57668 0.0
O343 O 0.09908 1.06875 0.50346 0.0
O344 O 0.06087 0.1617 0.58705 0.0
O345 O 0.08866 0.12492 0.64839 0.0
O346 O 0.05027 0.99009 0.65448 0.0
O347 O 0.04541 1.04433 0.70617 0.0
O348 O 0.97794 1.06903 0.58366 0.0
O349 O 0.97849 0.08751 0.65668 0.0
O350 O 1.01654 0.99412 0.57342 0.0
O351 O 0.98884 1.03086 0.512 0.0
H352 H 1.03426 0.20739 0.38176 0.0
H353 H 0.10681 0.24891 0.33605 0.0
H354 H 0.19766 0.20487 0.44023 0.0
H355 H 0.12577 0.1656 0.48606 0.0
H356 H 0.04175 0.94599 0.77683 0.0
H357 H 0.96872 0.9039 0.82143 0.0
H358 H 0.87914 0.95244 0.71941 0.0
H359 H 0.95145 0.9921 0.67454 0.0
Sm360 Sm 0.58184 0.07864 0.09358 0.0
Sm361 Sm 0.49502 0.07649 1.06624 0.0
C362 C 0.66853 0.09707 0.13121 0.0
C363 C 0.68319 0.11513 0.1788 0.0
C364 C 0.73081 0.14043 0.18517 0.0
C365 C 0.74435 0.16043 0.23003 0.0
C366 C 0.71008 0.15525 0.26851 0.0
C367 C 0.66206 0.13039 0.26181 0.0
C368 C 0.64851 0.11054 0.21687 0.0
C369 C 0.51948 0.99787 0.12611 0.0
C370 C 0.51744 0.13188 0.15986 0.0
C371 C 0.40851 1.05854 1.02822 0.0
C372 C 0.3938 1.03967 0.98095 0.0
C373 C 0.34575 1.01562 0.97446 0.0
C374 C 0.33201 0.99517 0.92984 0.0
C375 C 0.36651 0.99863 0.89176 0.0
C376 C 0.41495 1.02218 0.89863 0.0
C377 C 0.42868 1.04251 0.9433 0.0
C378 C 0.55767 0.15727 1.03415 0.0
C379 C 0.55915 1.02289 1.00029 0.0
O380 O 0.65422 0.12552 0.10339 0.0
O381 O 0.63982 1.05612 0.13085 0.0
O382 O 0.51104 1.03703 0.13109 0.0
O383 O 0.55936 1.00083 0.10148 0.0
O384 O 0.56138 0.13286 0.14353 0.0
O385 O 0.48091 0.10215 0.14116 0.0
O386 O 0.42211 1.03036 1.05698 0.0
O387 O 0.43786 0.09918 1.02774 0.0
O388 O 0.56573 0.11799 1.02877 0.0
O389 O 0.51794 0.15439 1.05901 0.0
O390 O 0.5153 1.0218 1.01689 0.0
O391 O 0.59568 1.05291 1.0186 0.0
H392 H 0.75732 0.14469 0.1555 0.0
H393 H 0.78184 0.17891 0.23501 0.0
H394 H 0.63534 0.12617 0.29131 0.0
H395 H 0.61111 0.09176 0.21181 0.0
H396 H 0.31904 1.01277 1.0038 0.0
H397 H 0.29422 0.97775 0.9247 0.0
H398 H 0.44184 1.0251 0.86942 0.0
H399 H 0.46635 1.06042 0.94845 0.0
Sm400 Sm 0.53047 0.54042 0.55492 0.0
Sm401 Sm 0.54652 0.61523 0.60592 0.0
C402 C 0.53458 0.46477 0.50772 0.0
C403 C 0.5747 0.44885 0.4859 0.0
C404 C 0.6171 0.48004 0.46914 0.0
C405 C 0.65815 0.4648 0.45618 0.0
C406 C 0.65771 0.41837 0.46094 0.0
C407 C 0.6142 0.38718 0.47552 0.0
C408 C 0.57307 0.40238 0.48781 0.0
C409 C 0.44515 0.53855 0.60865 0.0
C410 C 0.58157 0.53701 0.65955 0.0
C411 C 0.54245 0.69088 0.65314 0.0
C412 C 0.50218 0.70668 0.67479 0.0
C413 C 0.4597 0.67536 0.69118 0.0
C414 C 0.4185 0.69047 0.70387 0.0
C415 C 0.41887 0.73689 0.69921 0.0
C416 C 0.46245 0.7682 0.68504 0.0
C417 C 0.50373 0.75314 0.67301 0.0
C418 C 0.63176 0.61682 0.55215 0.0
C419 C 0.49536 0.61859 0.50129 0.0
O420 O 0.52383 0.49932 0.48685 0.0
O421 O 0.53554 0.46855 0.55498 0.0
O422 O 0.48777 0.551 0.62461 0.0
O423 O 0.4468 0.52898 0.56281 0.0
O424 O 0.5831 0.52414 0.61354 0.0
O425 O 0.56135 0.57079 0.66898 0.0
O426 O 0.55313 0.65631 0.67402 0.0
O427 O 0.5417 0.68719 0.60587 0.0
O428 O 0.58909 0.60471 0.53625 0.0
O429 O 0.63017 0.62629 0.59802 0.0
O430 O 0.49386 0.63149 0.54731 0.0
O431 O 0.51559 0.58482 0.49186 0.0
H432 H 0.6192 0.51632 0.46812 0.0
H433 H 0.69085 0.48967 0.44462 0.0
H434 H 0.61265 0.35141 0.4807 0.0
H435 H 0.54077 0.37814 0.50148 0.0
H436 H 0.45766 0.63909 0.69208 0.0
H437 H 0.38574 0.6655 0.71511 0.0
H438 H 0.46396 0.80398 0.67996 0.0
H439 H 0.53608 0.77747 0.65963 0.0
Sm440 Sm 1.0345 0.54263 0.10951 0.0
Sm441 Sm 0.04235 0.61297 1.05112 0.0
C442 C 0.05259 0.47642 0.16197 0.0
C443 C 0.0991 0.46645 0.17261 0.0
C444 C 0.1389 0.48037 0.14028 0.0
C445 C 0.18364 0.47235 0.15119 0.0
C446 C 0.1895 0.45041 0.19471 0.0
C447 C 0.14961 0.43699 0.22723 0.0
C448 C 0.10476 0.44518 0.21628 0.0
C449 C 0.98765 0.60314 0.15619 0.0
C450 C 0.13505 0.62357 0.11629 0.0
C451 C 1.02439 0.67913 0.99847 0.0
C452 C 0.97789 0.68893 0.98742 0.0
C453 C 0.93783 0.6748 1.01941 0.0
C454 C 0.89313 0.68271 1.00815 0.0
C455 C 0.88756 0.70476 0.96461 0.0
C456 C 0.92769 0.71839 0.93243 0.0
C457 C 0.97251 0.7103 0.94373 0.0
C458 C 0.08919 0.55231 1.00473 0.0
C459 C 0.94176 0.53201 1.0444 0.0
O460 O 0.03931 0.47101 0.11669 0.0
O461 O 0.04629 0.51416 0.1811 0.0
O462 O 1.02837 0.61427 0.1335 0.0
O463 O 0.96912 0.55957 0.15139 0.0
O464 O 0.11663 0.57915 0.11859 0.0
O465 O 0.11024 0.64829 0.09412 0.0
O466 O 1.03727 0.68451 1.04387 0.0
O467 O 1.03104 0.64149 0.9794 0.0
O468 O 0.04832 0.54139 1.02715 0.0
O469 O 0.10787 0.59586 1.00962 0.0
O470 O 0.96023 0.57641 1.04197 0.0
O471 O 0.96654 0.50731 1.06666 0.0
H472 H 0.1354 0.49721 0.10641 0.0
H473 H 0.21333 0.48243 0.12494 0.0
H474 H 0.15312 0.42038 0.2612 0.0
H475 H 0.07451 0.43499 0.24189 0.0
H476 H 0.94112 0.65792 1.05331 0.0
H477 H 0.86325 0.67247 1.03416 0.0
H478 H 0.92441 0.73511 0.89847 0.0
H479 H 1.00295 0.72067 0.91838 0.0
loop_
_geom_bond_atom_site_label_1
_geom_bond_atom_site_label_2
_geom_bond_distance
_geom_bond_site_symmetry_2
_ccdc_geom_bond_type
C0 C1 1.264 . S
C0 C5 1.479 . S
C0 C10 1.465 . S
C1 C0 1.264 . S
C1 C3 1.339 . S
C1 H28 0.931 . S
C2 C3 1.395 . S
C2 C4 1.320 . S
C3 C1 1.339 . S
C3 C2 1.395 . S
C3 H29 0.929 . S
C4 C2 1.320 . S
C4 C5 1.405 . S
C4 H30 0.930 . S
C5 C0 1.479 . S
C5 C4 1.405 . S
C5 H31 0.931 . S
U6 O7 2.454 . S
U6 O8 2.458 . S
U6 C9 2.984 . S
U6 C10 2.847 . S
U6 C23 2.882 . S
U6 O24 2.441 . S
U6 O25 2.420 . S
U6 O26 2.455 . S
U6 O27 2.449 . S
O7 U6 2.454 . S
O7 C9 1.353 . S
O8 U6 2.458 . S
O8 C9 1.286 . S
C9 U6 2.984 . S
C9 O7 1.353 . S
C9 O8 1.286 . S
C9 C11 1.363 . S
C10 C0 1.465 . S
C10 U6 2.847 . S
C10 O24 1.249 . S
C10 O25 1.202 . S
C11 C9 1.363 . S
C11 C13 1.408 . S
C11 C16 1.342 . S
C12 C13 1.310 . S
C12 C15 1.461 . S
C12 H32 0.932 . S
C13 C11 1.408 . S
C13 C12 1.310 . S
C13 H33 0.930 . S
C14 C15 1.474 . S
C14 C16 1.285 . S
C14 H34 0.929 . S
C15 C12 1.461 . S
C15 C14 1.474 . S
C16 C11 1.342 . S
C16 C14 1.285 . S
C16 H35 0.930 . S
C17 C20 1.424 . S
C17 C22 1.245 . S
C17 C23 1.428 . S
C18 C21 1.260 . S
C18 C22 1.477 . S
C18 H36 0.932 . S
C19 C20 1.384 . S
C19 C21 1.479 . S
C19 H37 0.929 . S
C20 C17 1.424 . S
C20 C19 1.384 . S
C20 H38 0.928 . S
C21 C18 1.260 . S
C21 C19 1.479 . S
C22 C17 1.245 . S
C22 C18 1.477 . S
C22 H39 0.932 . S
C23 U6 2.882 . S
C23 C17 1.428 . S
C23 O26 1.301 . S
C23 O27 1.282 . S
O24 U6 2.441 . S
O24 C10 1.249 . S
O25 U6 2.420 . S
O25 C10 1.202 . S
O26 U6 2.455 . S
O26 C23 1.301 . S
O27 U6 2.449 . S
O27 C23 1.282 . S
H28 C1 0.931 . S
H29 C3 0.929 . S
H30 C4 0.930 . S
H31 C5 0.931 . S
H32 C12 0.932 . S
H33 C13 0.930 . S
H34 C14 0.929 . S
H35 C16 0.930 . S
H36 C18 0.932 . S
H37 C19 0.929 . S
H38 C20 0.928 . S
H39 C22 0.932 . S
C40 C41 1.264 . S
C40 C45 1.479 . S
C40 C50 1.465 . S
C41 C40 1.264 . S
C41 C43 1.339 . S
C41 H68 0.931 . S
C42 C43 1.395 . S
C42 C44 1.320 . S
C43 C41 1.339 . S
C43 C42 1.395 . S
C43 H69 0.929 . S
C44 C42 1.320 . S
C44 C45 1.405 . S
C44 H70 0.930 . S
C45 C40 1.479 . S
C45 C44 1.405 . S
C45 H71 0.931 . S
U46 O47 2.454 . S
U46 O48 2.458 . S
U46 C49 2.984 . S
U46 C50 2.847 . S
U46 C63 2.882 . S
U46 O64 2.441 . S
U46 O65 2.420 . S
U46 O66 2.455 . S
U46 O67 2.449 . S
O47 U46 2.454 . S
O47 C49 1.353 . S
O48 U46 2.458 . S
O48 C49 1.286 . S
C49 U46 2.984 . S
C49 O47 1.353 . S
C49 O48 1.286 . S
C49 C51 1.363 . S
C50 C40 1.465 . S
C50 U46 2.847 . S
C50 O64 1.249 . S
C50 O65 1.202 . S
C51 C49 1.363 . S
C51 C53 1.408 . S
C51 C56 1.342 . S
C52 C53 1.310 . S
C52 C55 1.461 . S
C52 H72 0.932 . S
C53 C51 1.408 . S
C53 C52 1.310 . S
C53 H73 0.930 . S
C54 C55 1.474 . S
C54 C56 1.285 . S
C54 H74 0.929 . S
C55 C52 1.461 . S
C55 C54 1.474 . S
C56 C51 1.342 . S
C56 C54 1.285 . S
C56 H75 0.930 . S
C57 C60 1.424 . S
C57 C62 1.245 . S
C57 C63 1.428 . S
C58 C61 1.260 . S
C58 C62 1.477 . S
C58 H76 0.932 . S
C59 C60 1.384 . S
C59 C61 1.479 . S
C59 H77 0.929 . S
C60 C57 1.424 . S
C60 C59 1.384 . S
C60 H78 0.928 . S
C61 C58 1.260 . S
C61 C59 1.479 . S
C62 C57 1.245 . S
C62 C58 1.477 . S
C62 H79 0.932 . S
C63 U46 2.882 . S
C63 C57 1.428 . S
C63 O66 1.301 . S
C63 O67 1.282 . S
O64 U46 2.441 . S
O64 C50 1.249 . S
O65 U46 2.420 . S
O65 C50 1.202 . S
O66 U46 2.455 . S
O66 C63 1.301 . S
O67 U46 2.449 . S
O67 C63 1.282 . S
H68 C41 0.931 . S
H69 C43 0.929 . S
H70 C44 0.930 . S
H71 C45 0.931 . S
H72 C52 0.932 . S
H73 C53 0.930 . S
H74 C54 0.929 . S
H75 C56 0.930 . S
H76 C58 0.932 . S
H77 C59 0.929 . S
H78 C60 0.928 . S
H79 C62 0.932 . S
C80 C81 1.264 . S
C80 C85 1.479 . S
C80 C90 1.465 . S
C81 C80 1.264 . S
C81 C83 1.339 . S
C81 H108 0.931 . S
C82 C83 1.395 . S
C82 C84 1.320 . S
C83 C81 1.339 . S
C83 C82 1.395 . S
C83 H109 0.929 . S
C84 C82 1.320 . S
C84 C85 1.405 . S
C84 H110 0.930 . S
C85 C80 1.479 . S
C85 C84 1.405 . S
C85 H111 0.931 . S
U86 O87 2.454 . S
U86 O88 2.458 . S
U86 C89 2.984 . S
U86 C90 2.847 . S
U86 C103 2.882 . S
U86 O104 2.441 . S
U86 O105 2.420 . S
U86 O106 2.455 . S
U86 O107 2.449 . S
O87 U86 2.454 . S
O87 C89 1.353 . S
O88 U86 2.458 . S
O88 C89 1.286 . S
C89 U86 2.984 . S
C89 O87 1.353 . S
C89 O88 1.286 . S
C89 C91 1.363 . S
C90 C80 1.465 . S
C90 U86 2.847 . S
C90 O104 1.249 . S
C90 O105 1.202 . S
C91 C89 1.363 . S
C91 C93 1.408 . S
C91 C96 1.342 . S
C92 C93 1.310 . S
C92 C95 1.461 . S
C92 H112 0.932 . S
C93 C91 1.408 . S
C93 C92 1.310 . S
C93 H113 0.930 . S
C94 C95 1.474 . S
C94 C96 1.285 . S
C94 H114 0.929 . S
C95 C92 1.461 . S
C95 C94 1.474 . S
C96 C91 1.342 . S
C96 C94 1.285 . S
C96 H115 0.930 . S
C97 C100 1.424 . S
C97 C102 1.245 . S
C97 C103 1.428 . S
C98 C101 1.260 . S
C98 C102 1.477 . S
C98 H116 0.932 . S
C99 C100 1.384 . S
C99 C101 1.479 . S
C99 H117 0.929 . S
C100 C97 1.424 . S
C100 C99 1.384 . S
C100 H118 0.928 . S
C101 C98 1.260 . S
C101 C99 1.479 . S
C102 C97 1.245 . S
C102 C98 1.477 . S
C102 H119 0.932 . S
C103 U86 2.882 . S
C103 C97 1.428 . S
C103 O106 1.301 . S
C103 O107 1.282 . S
O104 U86 2.441 . S
O104 C90 1.249 . S
O105 U86 2.420 . S
O105 C90 1.202 . S
O106 U86 2.455 . S
O106 C103 1.301 . S
O107 U86 2.449 . S
O107 C103 1.282 . S
H108 C81 0.931 . S
H109 C83 0.929 . S
H110 C84 0.930 . S
H111 C85 0.931 . S
H112 C92 0.932 . S
H113 C93 0.930 . S
H114 C94 0.929 . S
H115 C96 0.930 . S
H116 C98 0.932 . S
H117 C99 0.929 . S
H118 C100 0.928 . S
H119 C102 0.932 . S
C120 C121 1.264 . S
C120 C125 1.479 . S
C120 C130 1.465 . S
C121 C120 1.264 . S
C121 C123 1.339 . S
C121 H148 0.931 . S
C122 C123 1.395 . S
C122 C124 1.320 . S
C123 C121 1.339 . S
C123 C122 1.395 . S
C123 H149 0.929 . S
C124 C122 1.320 . S
C124 C125 1.405 . S
C124 H150 0.930 . S
C125 C120 1.479 . S
C125 C124 1.405 . S
C125 H151 0.931 . S
U126 O127 2.454 . S
U126 O128 2.458 . S
U126 C129 2.984 . S
U126 C130 2.847 . S
U126 C143 2.882 . S
U126 O144 2.441 . S
U126 O145 2.420 . S
U126 O146 2.455 . S
U126 O147 2.449 . S
O127 U126 2.454 . S
O127 C129 1.353 . S
O128 U126 2.458 . S
O128 C129 1.286 . S
C129 U126 2.984 . S
C129 O127 1.353 . S
C129 O128 1.286 . S
C129 C131 1.363 . S
C130 C120 1.465 . S
C130 U126 2.847 . S
C130 O144 1.249 . S
C130 O145 1.202 . S
C131 C129 1.363 . S
C131 C133 1.408 . S
C131 C136 1.342 . S
C132 C133 1.310 . S
C132 C135 1.461 . S
C132 H152 0.932 . S
C133 C131 1.408 . S
C133 C132 1.310 . S
C133 H153 0.930 . S
C134 C135 1.474 . S
C134 C136 1.285 . S
C134 H154 0.929 . S
C135 C132 1.461 . S
C135 C134 1.474 . S
C136 C131 1.342 . S
C136 C134 1.285 . S
C136 H155 0.930 . S
C137 C140 1.424 . S
C137 C142 1.245 . S
C137 C143 1.428 . S
C138 C141 1.260 . S
C138 C142 1.477 . S
C138 H156 0.932 . S
C139 C140 1.384 . S
C139 C141 1.479 . S
C139 H157 0.929 . S
C140 C137 1.424 . S
C140 C139 1.384 . S
C140 H158 0.928 . S
C141 C138 1.260 . S
C141 C139 1.479 . S
C142 C137 1.245 . S
C142 C138 1.477 . S
C142 H159 0.932 . S
C143 U126 2.882 . S
C143 C137 1.428 . S
C143 O146 1.301 . S
C143 O147 1.282 . S
O144 U126 2.441 . S
O144 C130 1.249 . S
O145 U126 2.420 . S
O145 C130 1.202 . S
O146 U126 2.455 . S
O146 C143 1.301 . S
O147 U126 2.449 . S
O147 C143 1.282 . S
H148 C121 0.931 . S
H149 C123 0.929 . S
H150 C124 0.930 . S
H151 C125 0.931 . S
H152 C132 0.932 . S
H153 C133 0.930 . S
H154 C134 0.929 . S
H155 C136 0.930 . S
H156 C138 0.932 . S
H157 C139 0.929 . S
H158 C140 0.928 . S
H159 C142 0.932 . S
C160 C161 1.264 . S
C160 C165 1.479 . S
C160 C170 1.465 . S
C161 C160 1.264 . S
C161 C163 1.339 . S
C161 H188 0.931 . S
C162 C163 1.395 . S
C162 C164 1.320 . S
C163 C161 1.339 . S
C163 C162 1.395 . S
C163 H189 0.929 . S
C164 C162 1.320 . S
C164 C165 1.405 . S
C164 H190 0.930 . S
C165 C160 1.479 . S
C165 C164 1.405 . S
C165 H191 0.931 . S
U166 O167 2.454 . S
U166 O168 2.458 . S
U166 C169 2.984 . S
U166 C170 2.847 . S
U166 C183 2.882 . S
U166 O184 2.441 . S
U166 O185 2.420 . S
U166 O186 2.455 . S
U166 O187 2.449 . S
O167 U166 2.454 . S
O167 C169 1.353 . S
O168 U166 2.458 . S
O168 C169 1.286 . S
C169 U166 2.984 . S
C169 O167 1.353 . S
C169 O168 1.286 . S
C169 C171 1.363 . S
C170 C160 1.465 . S
C170 U166 2.847 . S
C170 O184 1.249 . S
C170 O185 1.202 . S
C171 C169 1.363 . S
C171 C173 1.408 . S
C171 C176 1.342 . S
C172 C173 1.310 . S
C172 C175 1.461 . S
C172 H192 0.932 . S
C173 C171 1.408 . S
C173 C172 1.310 . S
C173 H193 0.930 . S
C174 C175 1.474 . S
C174 C176 1.285 . S
C174 H194 0.929 . S
C175 C172 1.461 . S
C175 C174 1.474 . S
C176 C171 1.342 . S
C176 C174 1.285 . S
C176 H195 0.930 . S
C177 C180 1.424 . S
C177 C182 1.245 . S
C177 C183 1.428 . S
C178 C181 1.260 . S
C178 C182 1.477 . S
C178 H196 0.932 . S
C179 C180 1.384 . S
C179 C181 1.479 . S
C179 H197 0.929 . S
C180 C177 1.424 . S
C180 C179 1.384 . S
C180 H198 0.928 . S
C181 C178 1.260 . S
C181 C179 1.479 . S
C182 C177 1.245 . S
C182 C178 1.477 . S
C182 H199 0.932 . S
C183 U166 2.882 . S
C183 C177 1.428 . S
C183 O186 1.301 . S
C183 O187 1.282 . S
O184 U166 2.441 . S
O184 C170 1.249 . S
O185 U166 2.420 . S
O185 C170 1.202 . S
O186 U166 2.455 . S
O186 C183 1.301 . S
O187 U166 2.449 . S
O187 C183 1.282 . S
H188 C161 0.931 . S
H189 C163 0.929 . S
H190 C164 0.930 . S
H191 C165 0.931 . S
H192 C172 0.932 . S
H193 C173 0.930 . S
H194 C174 0.929 . S
H195 C176 0.930 . S
H196 C178 0.932 . S
H197 C179 0.929 . S
H198 C180 0.928 . S
H199 C182 0.932 . S
C200 C201 1.264 . S
C200 C205 1.479 . S
C200 C210 1.465 . S
C201 C200 1.264 . S
C201 C203 1.339 . S
C201 H228 0.931 . S
C202 C203 1.395 . S
C202 C204 1.320 . S
C203 C201 1.339 . S
C203 C202 1.395 . S
C203 H229 0.929 . S
C204 C202 1.320 . S
C204 C205 1.405 . S
C204 H230 0.930 . S
C205 C200 1.479 . S
C205 C204 1.405 . S
C205 H231 0.931 . S
U206 O207 2.454 . S
U206 O208 2.458 . S
U206 C209 2.984 . S
U206 C210 2.847 . S
U206 C223 2.882 . S
U206 O224 2.441 . S
U206 O225 2.420 . S
U206 O226 2.455 . S
U206 O227 2.449 . S
O207 U206 2.454 . S
O207 C209 1.353 . S
O208 U206 2.458 . S
O208 C209 1.286 . S
C209 U206 2.984 . S
C209 O207 1.353 . S
C209 O208 1.286 . S
C209 C211 1.363 . S
C210 C200 1.465 . S
C210 U206 2.847 . S
C210 O224 1.249 . S
C210 O225 1.202 . S
C211 C209 1.363 . S
C211 C213 1.408 . S
C211 C216 1.342 . S
C212 C213 1.310 . S
C212 C215 1.461 . S
C212 H232 0.932 . S
C213 C211 1.408 . S
C213 C212 1.310 . S
C213 H233 0.930 . S
C214 C215 1.474 . S
C214 C216 1.285 . S
C214 H234 0.929 . S
C215 C212 1.461 . S
C215 C214 1.474 . S
C216 C211 1.342 . S
C216 C214 1.285 . S
C216 H235 0.930 . S
C217 C220 1.424 . S
C217 C222 1.245 . S
C217 C223 1.428 . S
C218 C221 1.260 . S
C218 C222 1.477 . S
C218 H236 0.932 . S
C219 C220 1.384 . S
C219 C221 1.479 . S
C219 H237 0.929 . S
C220 C217 1.424 . S
C220 C219 1.384 . S
C220 H238 0.928 . S
C221 C218 1.260 . S
C221 C219 1.479 . S
C222 C217 1.245 . S
C222 C218 1.477 . S
C222 H239 0.932 . S
C223 U206 2.882 . S
C223 C217 1.428 . S
C223 O226 1.301 . S
C223 O227 1.282 . S
O224 U206 2.441 . S
O224 C210 1.249 . S
O225 U206 2.420 . S
O225 C210 1.202 . S
O226 U206 2.455 . S
O226 C223 1.301 . S
O227 U206 2.449 . S
O227 C223 1.282 . S
H228 C201 0.931 . S
H229 C203 0.929 . S
H230 C204 0.930 . S
H231 C205 0.931 . S
H232 C212 0.932 . S
H233 C213 0.930 . S
H234 C214 0.929 . S
H235 C216 0.930 . S
H236 C218 0.932 . S
H237 C219 0.929 . S
H238 C220 0.928 . S
H239 C222 0.932 . S
C240 C241 1.264 . S
C240 C245 1.479 . S
C240 C250 1.465 . S
C241 C240 1.264 . S
C241 C243 1.339 . S
C241 H268 0.931 . S
C242 C243 1.395 . S
C242 C244 1.320 . S
C243 C241 1.339 . S
C243 C242 1.395 . S
C243 H269 0.929 . S
C244 C242 1.320 . S
C244 C245 1.405 . S
C244 H270 0.930 . S
C245 C240 1.479 . S
C245 C244 1.405 . S
C245 H271 0.931 . S
U246 O247 2.454 . S
U246 O248 2.458 . S
U246 C249 2.984 . S
U246 C250 2.847 . S
U246 C263 2.882 . S
U246 O264 2.441 . S
U246 O265 2.420 . S
U246 O266 2.455 . S
U246 O267 2.449 . S
O247 U246 2.454 . S
O247 C249 1.353 . S
O248 U246 2.458 . S
O248 C249 1.286 . S
C249 U246 2.984 . S
C249 O247 1.353 . S
C249 O248 1.286 . S
C249 C251 1.363 . S
C250 C240 1.465 . S
C250 U246 2.847 . S
C250 O264 1.249 . S
C250 O265 1.202 . S
C251 C249 1.363 . S
C251 C253 1.408 . S
C251 C256 1.342 . S
C252 C253 1.310 . S
C252 C255 1.461 . S
C252 H272 0.932 . S
C253 C251 1.408 . S
C253 C252 1.310 . S
C253 H273 0.930 . S
C254 C255 1.474 . S
C254 C256 1.285 . S
C254 H274 0.929 . S
C255 C252 1.461 . S
C255 C254 1.474 . S
C256 C251 1.342 . S
C256 C254 1.285 . S
C256 H275 0.930 . S
C257 C260 1.424 . S
C257 C262 1.245 . S
C257 C263 1.428 . S
C258 C261 1.260 . S
C258 C262 1.477 . S
C258 H276 0.932 . S
C259 C260 1.384 . S
C259 C261 1.479 . S
C259 H277 0.929 . S
C260 C257 1.424 . S
C260 C259 1.384 . S
C260 H278 0.928 . S
C261 C258 1.260 . S
C261 C259 1.479 . S
C262 C257 1.245 . S
C262 C258 1.477 . S
C262 H279 0.932 . S
C263 U246 2.882 . S
C263 C257 1.428 . S
C263 O266 1.301 . S
C263 O267 1.282 . S
O264 U246 2.441 . S
O264 C250 1.249 . S
O265 U246 2.420 . S
O265 C250 1.202 . S
O266 U246 2.455 . S
O266 C263 1.301 . S
O267 U246 2.449 . S
O267 C263 1.282 . S
H268 C241 0.931 . S
H269 C243 0.929 . S
H270 C244 0.930 . S
H271 C245 0.931 . S
H272 C252 0.932 . S
H273 C253 0.930 . S
H274 C254 0.929 . S
H275 C256 0.930 . S
H276 C258 0.932 . S
H277 C259 0.929 . S
H278 C260 0.928 . S
H279 C262 0.932 . S
C280 C281 1.264 . S
C280 C285 1.479 . S
C280 C290 1.465 . S
C281 C280 1.264 . S
C281 C283 1.339 . S
C281 H308 0.931 . S
C282 C283 1.395 . S
C282 C284 1.320 . S
C283 C281 1.339 . S
C283 C282 1.395 . S
C283 H309 0.929 . S
C284 C282 1.320 . S
C284 C285 1.405 . S
C284 H310 0.930 . S
C285 C280 1.479 . S
C285 C284 1.405 . S
C285 H311 0.931 . S
U286 O287 2.454 . S
U286 O288 2.458 . S
U286 C289 2.984 . S
U286 C290 2.847 . S
U286 C303 2.882 . S
U286 O304 2.441 . S
U286 O305 2.420 . S
U286 O306 2.455 . S
U286 O307 2.449 . S
O287 U286 2.454 . S
O287 C289 1.353 . S
O288 U286 2.458 . S
O288 C289 1.286 . S
C289 U286 2.984 . S
C289 O287 1.353 . S
C289 O288 1.286 . S
C289 C291 1.363 . S
C290 C280 1.465 . S
C290 U286 2.847 . S
C290 O304 1.249 . S
C290 O305 1.202 . S
C291 C289 1.363 . S
C291 C293 1.408 . S
C291 C296 1.342 . S
C292 C293 1.310 . S
C292 C295 1.461 . S
C292 H312 0.932 . S
C293 C291 1.408 . S
C293 C292 1.310 . S
C293 H313 0.930 . S
C294 C295 1.474 . S
C294 C296 1.285 . S
C294 H314 0.929 . S
C295 C292 1.461 . S
C295 C294 1.474 . S
C296 C291 1.342 . S
C296 C294 1.285 . S
C296 H315 0.930 . S
C297 C300 1.424 . S
C297 C302 1.245 . S
C297 C303 1.428 . S
C298 C301 1.260 . S
C298 C302 1.477 . S
C298 H316 0.932 . S
C299 C300 1.384 . S
C299 C301 1.479 . S
C299 H317 0.929 . S
C300 C297 1.424 . S
C300 C299 1.384 . S
C300 H318 0.928 . S
C301 C298 1.260 . S
C301 C299 1.479 . S
C302 C297 1.245 . S
C302 C298 1.477 . S
C302 H319 0.932 . S
C303 U286 2.882 . S
C303 C297 1.428 . S
C303 O306 1.301 . S
C303 O307 1.282 . S
O304 U286 2.441 . S
O304 C290 1.249 . S
O305 U286 2.420 . S
O305 C290 1.202 . S
O306 U286 2.455 . S
O306 C303 1.301 . S
O307 U286 2.449 . S
O307 C303 1.282 . S
H308 C281 0.931 . S
H309 C283 0.929 . S
H310 C284 0.930 . S
H311 C285 0.931 . S
H312 C292 0.932 . S
H313 C293 0.930 . S
H314 C294 0.929 . S
H315 C296 0.930 . S
H316 C298 0.932 . S
H317 C299 0.929 . S
H318 C300 0.928 . S
H319 C302 0.932 . S
Sm320 C322 2.846 . S
Sm320 O340 2.543 . S
Sm320 O341 2.450 . S
Sm320 O342 2.681 1_545 S
Sm320 O343 2.464 1_545 S
Sm320 O344 2.396 . S
Sm320 O348 2.386 1_455 S
Sm320 O351 2.408 1_445 S
Sm321 C331 2.847 . S
Sm321 O342 2.387 1_655 S
Sm321 O345 2.407 1_665 S
Sm321 O346 2.543 . S
Sm321 O347 2.450 . S
Sm321 O348 2.681 1_565 S
Sm321 O349 2.463 1_565 S
Sm321 O350 2.396 . S
C322 Sm320 2.846 . S
C322 C323 1.506 . S
C322 O340 1.261 . S
C322 O341 1.242 . S
C323 C322 1.506 . S
C323 C324 1.358 . S
C323 C328 1.382 . S
C324 C323 1.358 . S
C324 C325 1.385 . S
C324 H352 0.930 . S
C325 C324 1.385 . S
C325 C326 1.395 . S
C325 H353 0.929 . S
C326 C325 1.395 . S
C326 C327 1.335 . S
C327 C326 1.335 . S
C327 C328 1.398 . S
C327 H354 0.930 . S
C328 C323 1.382 . S
C328 C327 1.398 . S
C328 H355 0.929 . S
C329 O342 1.271 . S
C329 O343 1.251 . S
C330 O344 1.252 . S
C330 O345 1.272 . S
C331 Sm321 2.847 . S
C331 C332 1.506 . S
C331 O346 1.261 . S
C331 O347 1.242 . S
C332 C331 1.506 . S
C332 C333 1.358 . S
C332 C337 1.382 . S
C333 C332 1.358 . S
C333 C334 1.385 . S
C333 H356 0.930 . S
C334 C333 1.385 . S
C334 C335 1.395 . S
C334 H357 0.929 . S
C335 C334 1.395 . S
C335 C336 1.335 . S
C336 C335 1.335 . S
C336 C337 1.398 . S
C336 H358 0.930 . S
C337 C332 1.382 . S
C337 C336 1.398 . S
C337 H359 0.929 . S
C338 O348 1.271 . S
C338 O349 1.251 . S
C339 O350 1.252 . S
C339 O351 1.272 . S
O340 Sm320 2.543 . S
O340 C322 1.261 . S
O341 Sm320 2.450 . S
O341 C322 1.242 . S
O342 Sm320 2.681 1_565 S
O342 Sm321 2.387 1_455 S
O342 C329 1.271 . S
O343 Sm320 2.464 1_565 S
O343 C329 1.251 . S
O344 Sm320 2.396 . S
O344 C330 1.252 . S
O345 Sm321 2.407 1_445 S
O345 C330 1.272 . S
O346 Sm321 2.543 . S
O346 C331 1.261 . S
O347 Sm321 2.450 . S
O347 C331 1.242 . S
O348 Sm320 2.386 1_655 S
O348 Sm321 2.681 1_545 S
O348 C338 1.271 . S
O349 Sm321 2.463 1_545 S
O349 C338 1.251 . S
O350 Sm321 2.396 . S
O350 C339 1.252 . S
O351 Sm320 2.408 1_665 S
O351 C339 1.272 . S
H352 C324 0.930 . S
H353 C325 0.929 . S
H354 C327 0.930 . S
H355 C328 0.929 . S
H356 C333 0.930 . S
H357 C334 0.929 . S
H358 C336 0.930 . S
H359 C337 0.929 . S
Sm360 C362 2.835 1_565 S
Sm360 O380 2.523 1_565 S
Sm360 O381 2.449 1_565 S
Sm360 O382 2.689 . S
Sm360 O383 2.481 . S
Sm360 O384 2.382 1_565 S
Sm360 O388 2.369 1_564 S
Sm360 O391 2.422 1_554 S
Sm361 C371 2.846 1_545 S
Sm361 O382 2.386 1_546 S
Sm361 O385 2.408 1_556 S
Sm361 O386 2.543 1_545 S
Sm361 O387 2.450 1_545 S
Sm361 O388 2.681 . S
Sm361 O389 2.464 . S
Sm361 O390 2.396 1_545 S
C362 Sm360 2.835 1_545 S
C362 C363 1.506 . S
C362 O380 1.261 . S
C362 O381 1.242 . S
C363 C362 1.506 . S
C363 C364 1.358 . S
C363 C368 1.382 . S
C364 C363 1.358 . S
C364 C365 1.385 . S
C364 H392 0.930 . S
C365 C364 1.385 . S
C365 C366 1.395 . S
C365 H393 0.929 . S
C366 C365 1.395 . S
C366 C367 1.335 . S
C367 C366 1.335 . S
C367 C368 1.398 . S
C367 H394 0.930 . S
C368 C363 1.382 . S
C368 C367 1.398 . S
C368 H395 0.929 . S
C369 O382 1.271 . S
C369 O383 1.251 . S
C370 O384 1.252 . S
C370 O385 1.272 . S
C371 Sm361 2.846 1_565 S
C371 C372 1.506 . S
C371 O386 1.261 . S
C371 O387 1.242 . S
C372 C371 1.506 . S
C372 C373 1.358 . S
C372 C377 1.382 . S
C373 C372 1.358 . S
C373 C374 1.385 . S
C373 H396 0.930 . S
C374 C373 1.385 . S
C374 C375 1.395 . S
C374 H397 0.929 . S
C375 C374 1.395 . S
C375 C376 1.335 . S
C376 C375 1.335 . S
C376 C377 1.398 . S
C376 H398 0.930 . S
C377 C372 1.382 . S
C377 C376 1.398 . S
C377 H399 0.929 . S
C378 O388 1.271 . S
C378 O389 1.251 . S
C379 O390 1.252 . S
C379 O391 1.272 . S
O380 Sm360 2.523 1_545 S
O380 C362 1.261 . S
O381 Sm360 2.449 1_545 S
O381 C362 1.242 . S
O382 Sm360 2.689 . S
O382 Sm361 2.386 1_564 S
O382 C369 1.271 . S
O383 Sm360 2.481 . S
O383 C369 1.251 . S
O384 Sm360 2.382 1_545 S
O384 C370 1.252 . S
O385 Sm361 2.408 1_554 S
O385 C370 1.272 . S
O386 Sm361 2.543 1_565 S
O386 C371 1.261 . S
O387 Sm361 2.450 1_565 S
O387 C371 1.242 . S
O388 Sm360 2.369 1_546 S
O388 Sm361 2.681 . S
O388 C378 1.271 . S
O389 Sm361 2.464 . S
O389 C378 1.251 . S
O390 Sm361 2.396 1_565 S
O390 C379 1.252 . S
O391 Sm360 2.422 1_556 S
O391 C379 1.272 . S
H392 C364 0.930 . S
H393 C365 0.929 . S
H394 C367 0.930 . S
H395 C368 0.929 . S
H396 C373 0.930 . S
H397 C374 0.929 . S
H398 C376 0.930 . S
H399 C377 0.929 . S
Sm400 C402 2.846 . S
Sm400 O420 2.543 . S
Sm400 O421 2.450 . S
Sm400 O422 2.681 . S
Sm400 O423 2.464 . S
Sm400 O424 2.396 . S
Sm400 O428 2.386 . S
Sm400 O431 2.408 . S
Sm401 C411 2.846 . S
Sm401 O422 2.386 . S
Sm401 O425 2.408 . S
Sm401 O426 2.543 . S
Sm401 O427 2.450 . S
Sm401 O428 2.681 . S
Sm401 O429 2.464 . S
Sm401 O430 2.396 . S
C402 Sm400 2.846 . S
C402 C403 1.506 . S
C402 O420 1.261 . S
C402 O421 1.242 . S
C403 C402 1.506 . S
C403 C404 1.358 . S
C403 C408 1.382 . S
C404 C403 1.358 . S
C404 C405 1.385 . S
C404 H432 0.930 . S
C405 C404 1.385 . S
C405 C406 1.395 . S
C405 H433 0.929 . S
C406 C405 1.395 . S
C406 C407 1.335 . S
C407 C406 1.335 . S
C407 C408 1.398 . S
C407 H434 0.930 . S
C408 C403 1.382 . S
C408 C407 1.398 . S
C408 H435 0.929 . S
C409 O422 1.271 . S
C409 O423 1.251 . S
C410 O424 1.252 . S
C410 O425 1.272 . S
C411 Sm401 2.846 . S
C411 C412 1.506 . S
C411 O426 1.261 . S
C411 O427 1.242 . S
C412 C411 1.506 . S
C412 C413 1.358 . S
C412 C417 1.382 . S
C413 C412 1.358 . S
C413 C414 1.385 . S
C413 H436 0.930 . S
C414 C413 1.385 . S
C414 C415 1.395 . S
C414 H437 0.929 . S
C415 C414 1.395 . S
C415 C416 1.335 . S
C416 C415 1.335 . S
C416 C417 1.398 . S
C416 H438 0.930 . S
C417 C412 1.382 . S
C417 C416 1.398 . S
C417 H439 0.929 . S
C418 O428 1.271 . S
C418 O429 1.251 . S
C419 O430 1.252 . S
C419 O431 1.272 . S
O420 Sm400 2.543 . S
O420 C402 1.261 . S
O421 Sm400 2.450 . S
O421 C402 1.242 . S
O422 Sm400 2.681 . S
O422 Sm401 2.386 . S
O422 C409 1.271 . S
O423 Sm400 2.464 . S
O423 C409 1.251 . S
O424 Sm400 2.396 . S
O424 C410 1.252 . S
O425 Sm401 2.408 . S
O425 C410 1.272 . S
O426 Sm401 2.543 . S
O426 C411 1.261 . S
O427 Sm401 2.450 . S
O427 C411 1.242 . S
O428 Sm400 2.386 . S
O428 Sm401 2.681 . S
O428 C418 1.271 . S
O429 Sm401 2.464 . S
O429 C418 1.251 . S
O430 Sm401 2.396 . S
O430 C419 1.252 . S
O431 Sm400 2.408 . S
O431 C419 1.272 . S
H432 C404 0.930 . S
H433 C405 0.929 . S
H434 C407 0.930 . S
H435 C408 0.929 . S
H436 C413 0.930 . S
H437 C414 0.929 . S
H438 C416 0.930 . S
H439 C417 0.929 . S
Sm440 C442 2.846 . S
Sm440 O460 2.543 . S
Sm440 O461 2.450 . S
Sm440 O462 2.681 1_455 S
Sm440 O463 2.464 1_455 S
Sm440 O464 2.396 . S
Sm440 O468 2.386 1_554 S
Sm440 O471 2.408 1_454 S
Sm441 C451 2.846 . S
Sm441 O462 2.386 1_556 S
Sm441 O465 2.408 1_656 S
Sm441 O466 2.543 . S
Sm441 O467 2.450 . S
Sm441 O468 2.681 1_655 S
Sm441 O469 2.464 1_655 S
Sm441 O470 2.396 . S
C442 Sm440 2.846 . S
C442 C443 1.506 . S
C442 O460 1.261 . S
C442 O461 1.242 . S
C443 C442 1.506 . S
C443 C444 1.358 . S
C443 C448 1.382 . S
C444 C443 1.358 . S
C444 C445 1.385 . S
C444 H472 0.930 . S
C445 C444 1.385 . S
C445 C446 1.395 . S
C445 H473 0.929 . S
C446 C445 1.395 . S
C446 C447 1.335 . S
C447 C446 1.335 . S
C447 C448 1.398 . S
C447 H474 0.930 . S
C448 C443 1.382 . S
C448 C447 1.398 . S
C448 H475 0.929 . S
C449 O462 1.271 . S
C449 O463 1.251 . S
C450 O464 1.252 . S
C450 O465 1.272 . S
C451 Sm441 2.846 . S
C451 C452 1.506 . S
C451 O466 1.261 . S
C451 O467 1.242 . S
C452 C451 1.506 . S
C452 C453 1.358 . S
C452 C457 1.382 . S
C453 C452 1.358 . S
C453 C454 1.385 . S
C453 H476 0.930 . S
C454 C453 1.385 . S
C454 C455 1.395 . S
C454 H477 0.929 . S
C455 C454 1.395 . S
C455 C456 1.335 . S
C456 C455 1.335 . S
C456 C457 1.398 . S
C456 H478 0.930 . S
C457 C452 1.382 . S
C457 C456 1.398 . S
C457 H479 0.929 . S
C458 O468 1.271 . S
C458 O469 1.251 . S
C459 O470 1.252 . S
C459 O471 1.272 . S
O460 Sm440 2.543 . S
O460 C442 1.261 . S
O461 Sm440 2.450 . S
O461 C442 1.242 . S
O462 Sm440 2.681 1_655 S
O462 Sm441 2.386 1_554 S
O462 C449 1.271 . S
O463 Sm440 2.464 1_655 S
O463 C449 1.251 . S
O464 Sm440 2.396 . S
O464 C450 1.252 . S
O465 Sm441 2.408 1_454 S
O465 C450 1.272 . S
O466 Sm441 2.543 . S
O466 C451 1.261 . S
O467 Sm441 2.450 . S
O467 C451 1.242 . S
O468 Sm440 2.386 1_556 S
O468 Sm441 2.681 1_455 S
O468 C458 1.271 . S
O469 Sm441 2.464 1_455 S
O469 C458 1.251 . S
O470 Sm441 2.396 . S
O470 C459 1.252 . S
O471 Sm440 2.408 1_656 S
O471 C459 1.272 . S
H472 C444 0.930 . S
H473 C445 0.929 . S
H474 C447 0.930 . S
H475 C448 0.929 . S
H476 C453 0.930 . S
H477 C454 0.929 . S
H478 C456 0.930 . S
H479 C457 0.929 . S
C21 C326 2.571 . S
C61 C375 2.105 . S
C410 C82 3.494 . S
C135 C449 3.513 . S
C370 C15 5.043 . S
C329 C42 1.580 . S
C459 C101 2.468 . S
C418 C122 2.179 . S
C2 C446 3.202 . S
C378 C95 3.180 . S
C141 C339 3.404 . S
C55 C415 2.681 . S
C335 C181 2.842 . S
C202 C366 1.968 . S
C255 C419 3.556 . S
C295 C458 3.449 . S
C175 C379 5.027 . S
C338 C221 1.556 . S
C450 C242 2.424 . S
C409 C301 2.227 . S
C162 C455 3.502 . S
C369 C261 3.262 . S
C330 C282 3.329 . S
C215 C406 2.631 . S
