# Generated by pormake.
# Topology ocu, (6,8)-cn, num edge types: 1
# Building blocks:
#     Node 0, Type 0, BuildingBlock: CUKXOW_clean_sbu_0, # of connection points: 6
#     Node 1, Type 0, BuildingBlock: CUKXOW_clean_sbu_0, # of connection points: 6
#     Node 2, Type 0, BuildingBlock: CUKXOW_clean_sbu_0, # of connection points: 6
#     Node 3, Type 0, BuildingBlock: CUKXOW_clean_sbu_0, # of connection points: 6
#     Node 4, Type 0, BuildingBlock: CUKXOW_clean_sbu_0, # of connection points: 6
#     Node 5, Type 0, BuildingBlock: CUKXOW_clean_sbu_0, # of connection points: 6
#     Node 6, Type 0, BuildingBlock: CUKXOW_clean_sbu_0, # of connection points: 6
#     Node 7, Type 0, BuildingBlock: CUKXOW_clean_sbu_0, # of connection points: 6
#     Node 8, Type 1, BuildingBlock: VETTIZ_charged_sbu_0, # of connection points: 8
#     Node 9, Type 1, BuildingBlock: VETTIZ_charged_sbu_0, # of connection points: 8
#     Node 10, Type 1, BuildingBlock: VETTIZ_charged_sbu_0, # of connection points: 8
#     Node 11, Type 1, BuildingBlock: VETTIZ_charged_sbu_0, # of connection points: 8
#     Node 12, Type 1, BuildingBlock: VETTIZ_charged_sbu_0, # of connection points: 8
#     Node 13, Type 1, BuildingBlock: VETTIZ_charged_sbu_0, # of connection points: 8
#     Edge 14, Type (0, 1), BuildingBlock: KIFKEQ_clean_linker_1, # of connection points: 2
#     Edge 15, Type (0, 1), BuildingBlock: KIFKEQ_clean_linker_1, # of connection points: 2
#     Edge 16, Type (0, 1), BuildingBlock: KIFKEQ_clean_linker_1, # of connection points: 2
#     Edge 17, Type (0, 1), BuildingBlock: KIFKEQ_clean_linker_1, # of connection points: 2
#     Edge 18, Type (0, 1), BuildingBlock: KIFKEQ_clean_linker_1, # of connection points: 2
#     Edge 19, Type (0, 1), BuildingBlock: KIFKEQ_clean_linker_1, # of connection points: 2
#     Edge 20, Type (0, 1), BuildingBlock: KIFKEQ_clean_linker_1, # of connection points: 2
#     Edge 21, Type (0, 1), BuildingBlock: KIFKEQ_clean_linker_1, # of connection points: 2
#     Edge 22, Type (0, 1), BuildingBlock: KIFKEQ_clean_linker_1, # of connection points: 2
#     Edge 23, Type (0, 1), BuildingBlock: KIFKEQ_clean_linker_1, # of connection points: 2
#     Edge 24, Type (0, 1), BuildingBlock: KIFKEQ_clean_linker_1, # of connection points: 2
#     Edge 25, Type (0, 1), BuildingBlock: KIFKEQ_clean_linker_1, # of connection points: 2
#     Edge 26, Type (0, 1), BuildingBlock: KIFKEQ_clean_linker_1, # of connection points: 2
#     Edge 27, Type (0, 1), BuildingBlock: KIFKEQ_clean_linker_1, # of connection points: 2
#     Edge 28, Type (0, 1), BuildingBlock: KIFKEQ_clean_linker_1, # of connection points: 2
#     Edge 29, Type (0, 1), BuildingBlock: KIFKEQ_clean_linker_1, # of connection points: 2
#     Edge 30, Type (0, 1), BuildingBlock: KIFKEQ_clean_linker_1, # of connection points: 2
#     Edge 31, Type (0, 1), BuildingBlock: KIFKEQ_clean_linker_1, # of connection points: 2
#     Edge 32, Type (0, 1), BuildingBlock: KIFKEQ_clean_linker_1, # of connection points: 2
#     Edge 33, Type (0, 1), BuildingBlock: KIFKEQ_clean_linker_1, # of connection points: 2
#     Edge 34, Type (0, 1), BuildingBlock: KIFKEQ_clean_linker_1, # of connection points: 2
#     Edge 35, Type (0, 1), BuildingBlock: KIFKEQ_clean_linker_1, # of connection points: 2
#     Edge 36, Type (0, 1), BuildingBlock: KIFKEQ_clean_linker_1, # of connection points: 2
#     Edge 37, Type (0, 1), BuildingBlock: KIFKEQ_clean_linker_1, # of connection points: 2
#     Edge 38, Type (0, 1), BuildingBlock: KIFKEQ_clean_linker_1, # of connection points: 2
#     Edge 39, Type (0, 1), BuildingBlock: KIFKEQ_clean_linker_1, # of connection points: 2
#     Edge 40, Type (0, 1), BuildingBlock: KIFKEQ_clean_linker_1, # of connection points: 2
#     Edge 41, Type (0, 1), BuildingBlock: KIFKEQ_clean_linker_1, # of connection points: 2
#     Edge 42, Type (0, 1), BuildingBlock: KIFKEQ_clean_linker_1, # of connection points: 2
#     Edge 43, Type (0, 1), BuildingBlock: KIFKEQ_clean_linker_1, # of connection points: 2
#     Edge 44, Type (0, 1), BuildingBlock: KIFKEQ_clean_linker_1, # of connection points: 2
#     Edge 45, Type (0, 1), BuildingBlock: KIFKEQ_clean_linker_1, # of connection points: 2
#     Edge 46, Type (0, 1), BuildingBlock: KIFKEQ_clean_linker_1, # of connection points: 2
#     Edge 47, Type (0, 1), BuildingBlock: KIFKEQ_clean_linker_1, # of connection points: 2
#     Edge 48, Type (0, 1), BuildingBlock: KIFKEQ_clean_linker_1, # of connection points: 2
#     Edge 49, Type (0, 1), BuildingBlock: KIFKEQ_clean_linker_1, # of connection points: 2
#     Edge 50, Type (0, 1), BuildingBlock: KIFKEQ_clean_linker_1, # of connection points: 2
#     Edge 51, Type (0, 1), BuildingBlock: KIFKEQ_clean_linker_1, # of connection points: 2
#     Edge 52, Type (0, 1), BuildingBlock: KIFKEQ_clean_linker_1, # of connection points: 2
#     Edge 53, Type (0, 1), BuildingBlock: KIFKEQ_clean_linker_1, # of connection points: 2
#     Edge 54, Type (0, 1), BuildingBlock: KIFKEQ_clean_linker_1, # of connection points: 2
#     Edge 55, Type (0, 1), BuildingBlock: KIFKEQ_clean_linker_1, # of connection points: 2
#     Edge 56, Type (0, 1), BuildingBlock: KIFKEQ_clean_linker_1, # of connection points: 2
#     Edge 57, Type (0, 1), BuildingBlock: KIFKEQ_clean_linker_1, # of connection points: 2
#     Edge 58, Type (0, 1), BuildingBlock: KIFKEQ_clean_linker_1, # of connection points: 2
#     Edge 59, Type (0, 1), BuildingBlock: KIFKEQ_clean_linker_1, # of connection points: 2
#     Edge 60, Type (0, 1), BuildingBlock: KIFKEQ_clean_linker_1, # of connection points: 2
#     Edge 61, Type (0, 1), BuildingBlock: KIFKEQ_clean_linker_1, # of connection points: 2
# Relax obj value: 0.093
# Max RMSD: 0.205
# Mean RMSD: 0.123
data_MOF--net-ocu--node1-CUKXOW_clean_sbu_0--node2-VETTIZ_charged_sbu_0--edge1-KIFKEQ_clean_linker_1
_symmetry_space_group_name_H-M    P1
_symmetry_Int_Tables_number       1
_symmetry_cell_setting            triclinic
loop_
_symmetry_equiv_pos_as_xyz
'x, y, z'
_cell_length_a     36.6612
_cell_length_b     38.694536
_cell_length_c     38.100983
_cell_angle_alpha  92.042427
_cell_angle_beta   91.783132
_cell_angle_gamma 88.567979
loop_
_atom_site_label
_atom_site_type_symbol
_atom_site_fract_x
_atom_site_fract_y
_atom_site_fract_z
_atom_type_partial_charge
Tb0 Tb 0.27641 0.23277 0.23117 0.0
C1 C 0.31807 0.30192 0.21217 0.0
Tb2 Tb 0.26892 0.30064 0.28148 0.0
O3 O 0.23461 0.24721 0.1911 0.0
O4 O 0.24658 0.27908 0.23426 0.0
O5 O 0.31488 0.26765 0.20593 0.0
C6 C 0.24407 0.36267 0.30122 0.0
O7 O 0.30128 0.31886 0.23847 0.0
C8 C 0.31685 0.25309 0.30569 0.0
C9 C 0.22359 0.23465 0.2989 0.0
O10 O 0.27809 0.35245 0.3042 0.0
O11 O 0.22414 0.33755 0.28867 0.0
O12 O 0.30993 0.28258 0.3222 0.0
O13 O 0.29783 0.25401 0.27781 0.0
O14 O 0.22846 0.26841 0.30528 0.0
O15 O 0.24096 0.21645 0.27359 0.0
C16 C 0.29956 0.16972 0.21326 0.0
O17 O 0.2657 0.18033 0.21159 0.0
O18 O 0.32053 0.19502 0.22341 0.0
C19 C 0.22654 0.27685 0.20673 0.0
Tb20 Tb 0.7436 0.26524 0.30475 0.0
C21 C 0.73321 0.22318 0.23187 0.0
Tb22 Tb 0.79642 0.27427 0.24593 0.0
O23 O 0.69848 0.30074 0.28865 0.0
O24 O 0.74433 0.29437 0.25895 0.0
O25 O 0.72623 0.22553 0.26588 0.0
C26 C 0.83879 0.29929 0.19834 0.0
O27 O 0.75768 0.24217 0.21725 0.0
C28 C 0.81396 0.22314 0.28868 0.0
C29 C 0.80173 0.32263 0.31407 0.0
O30 O 0.80427 0.29343 0.19366 0.0
O31 O 0.84949 0.29047 0.22954 0.0
O32 O 0.82141 0.22305 0.25557 0.0
O33 O 0.79952 0.25232 0.29651 0.0
O34 O 0.80626 0.31992 0.27971 0.0
O35 O 0.78106 0.30125 0.33064 0.0
C36 C 0.71866 0.23412 0.35939 0.0
O37 O 0.71612 0.26729 0.3549 0.0
O38 O 0.73434 0.21875 0.33288 0.0
C39 C 0.71362 0.31018 0.26015 0.0
Tb40 Tb 0.76407 0.80659 0.2198 0.0
C41 C 0.7122 0.74312 0.20959 0.0
Tb42 Tb 0.77283 0.74773 0.27133 0.0
O43 O 0.78259 0.77353 0.17648 0.0
O44 O 0.80259 0.76445 0.22753 0.0
O45 O 0.71676 0.77609 0.20212 0.0
C46 C 0.79331 0.68614 0.29373 0.0
O47 O 0.73238 0.72718 0.23387 0.0
C48 C 0.72264 0.79434 0.29337 0.0
C49 C 0.81964 0.81355 0.28618 0.0
O50 O 0.78373 0.71244 0.3138 0.0
O51 O 0.79197 0.69466 0.26116 0.0
O52 O 0.73106 0.76607 0.3096 0.0
O53 O 0.74133 0.79294 0.2662 0.0
O54 O 0.81656 0.78027 0.29276 0.0
O55 O 0.80073 0.82872 0.26047 0.0
C56 C 0.75361 0.86857 0.19414 0.0
O57 O 0.78236 0.84899 0.18904 0.0
O58 O 0.73025 0.85261 0.21224 0.0
C59 C 0.80206 0.75259 0.19578 0.0
Tb60 Tb 0.28634 0.79037 0.24066 0.0
C61 C 0.32299 0.79644 0.31624 0.0
Tb62 Tb 0.26239 0.74096 0.29937 0.0
O63 O 0.26146 0.83529 0.26901 0.0
O64 O 0.24183 0.78612 0.27504 0.0
O65 O 0.32598 0.80152 0.28229 0.0
C66 C 0.22818 0.71566 0.35266 0.0
O67 O 0.29869 0.7758 0.32909 0.0
C68 C 0.31735 0.713 0.2631 0.0
C69 C 0.22326 0.73785 0.22336 0.0
O70 O 0.23981 0.747 0.35171 0.0
O71 O 0.23571 0.6987 0.32367 0.0
O72 O 0.30303 0.69857 0.28951 0.0
O73 O 0.30108 0.74191 0.26042 0.0
O74 O 0.22128 0.73139 0.25742 0.0
O75 O 0.24852 0.75764 0.21054 0.0
C76 C 0.32476 0.81436 0.18873 0.0
O77 O 0.29113 0.82365 0.1953 0.0
O78 O 0.3361 0.79182 0.21114 0.0
C79 C 0.23943 0.81704 0.28666 0.0
Tb80 Tb 0.23888 0.75781 0.77572 0.0
C81 C 0.23187 0.71389 0.70564 0.0
Tb82 Tb 0.29344 0.76811 0.71421 0.0
O83 O 0.19677 0.79654 0.75904 0.0
O84 O 0.24255 0.78746 0.73098 0.0
O85 O 0.2313 0.71326 0.74033 0.0
C86 C 0.31965 0.79529 0.6579 0.0
O87 O 0.25152 0.73615 0.68908 0.0
C88 C 0.32033 0.72127 0.75884 0.0
C89 C 0.30201 0.81106 0.78742 0.0
O90 O 0.32268 0.76275 0.66506 0.0
O91 O 0.30303 0.81235 0.68277 0.0
O92 O 0.3369 0.73121 0.73132 0.0
O93 O 0.28999 0.73778 0.7589 0.0
O94 O 0.31212 0.80614 0.75421 0.0
O95 O 0.2752 0.79444 0.80182 0.0
C96 C 0.20008 0.73052 0.8244 0.0
O97 O 0.23344 0.74084 0.82947 0.0
O98 O 0.18904 0.73598 0.79249 0.0
C99 C 0.21306 0.80499 0.73096 0.0
Tb100 Tb 0.2578 0.28856 0.75033 0.0
C101 C 0.21157 0.2223 0.73534 0.0
Tb102 Tb 0.26683 0.22958 0.80189 0.0
O103 O 0.29984 0.27036 0.71224 0.0
O104 O 0.28932 0.24338 0.75547 0.0
O105 O 0.21443 0.25561 0.72879 0.0
C106 C 0.27692 0.16761 0.82766 0.0
O107 O 0.23044 0.20727 0.76115 0.0
C108 C 0.22927 0.28385 0.82612 0.0
C109 C 0.31912 0.2928 0.8114 0.0
O110 O 0.24824 0.1873 0.83265 0.0
O111 O 0.30046 0.18347 0.80967 0.0
O112 O 0.24885 0.26286 0.84528 0.0
O113 O 0.22841 0.27184 0.79441 0.0
O114 O 0.3146 0.25977 0.81873 0.0
O115 O 0.29846 0.30906 0.78766 0.0
C116 C 0.23658 0.34947 0.72657 0.0
O117 O 0.247 0.32301 0.70716 0.0
O118 O 0.2376 0.34154 0.75932 0.0
C119 C 0.30819 0.24206 0.72844 0.0
Tb120 Tb 0.77525 0.29298 0.72306 0.0
C121 C 0.81599 0.29236 0.79865 0.0
Tb122 Tb 0.75106 0.24303 0.78102 0.0
O123 O 0.74187 0.33906 0.73875 0.0
O124 O 0.74185 0.29454 0.76653 0.0
O125 O 0.81722 0.29996 0.76487 0.0
C126 C 0.70977 0.2114 0.8261 0.0
O127 O 0.79024 0.27334 0.81152 0.0
C128 C 0.80422 0.22009 0.73944 0.0
C129 C 0.70727 0.24652 0.70848 0.0
O130 O 0.72483 0.24116 0.83198 0.0
O131 O 0.71913 0.19901 0.79548 0.0
O132 O 0.8 0.20932 0.7711 0.0
O133 O 0.77728 0.23952 0.73224 0.0
O134 O 0.70556 0.2425 0.74283 0.0
O135 O 0.73473 0.26215 0.69418 0.0
C136 C 0.81363 0.31388 0.67047 0.0
O137 O 0.7786 0.31876 0.67325 0.0
O138 O 0.82699 0.29793 0.69757 0.0
C139 C 0.72826 0.32477 0.76571 0.0
Tb140 Tb 0.76655 0.73604 0.74076 0.0
C141 C 0.80966 0.80234 0.72282 0.0
Tb142 Tb 0.7566 0.80206 0.78957 0.0
O143 O 0.73772 0.76057 0.69594 0.0
O144 O 0.72806 0.77747 0.74716 0.0
O145 O 0.80899 0.76795 0.71978 0.0
C146 C 0.73268 0.86452 0.80953 0.0
O147 O 0.78854 0.82023 0.74536 0.0
C148 C 0.80915 0.76071 0.81455 0.0
C149 C 0.71715 0.73249 0.80975 0.0
O150 O 0.76678 0.8551 0.80795 0.0
O151 O 0.71209 0.83846 0.80128 0.0
O152 O 0.79886 0.78958 0.83032 0.0
O153 O 0.78993 0.75813 0.78663 0.0
O154 O 0.72076 0.76652 0.81691 0.0
O155 O 0.73306 0.71642 0.78243 0.0
C156 C 0.78791 0.67268 0.72121 0.0
O157 O 0.75519 0.68556 0.71555 0.0
O158 O 0.80855 0.69588 0.73641 0.0
C159 C 0.72238 0.78489 0.71536 0.0
Fe160 Fe 1.0165 0.0587 0.50882 0.0
O161 O 0.98892 0.02075 0.53039 0.0
Fe162 Fe 0.09952 1.01449 0.49172 0.0
Fe163 Fe 0.93532 0.01921 0.52927 0.0
O164 O 0.0454 0.01786 0.48897 0.0
O165 O 0.04593 1.01329 0.49013 0.0
O166 O 0.98947 1.01608 0.53155 0.0
Fe167 Fe 0.0181 0.97526 0.51116 0.0
C168 C 0.95678 0.09022 0.55965 0.0
O169 O 0.98144 0.0598 0.46458 0.0
O170 O 0.92843 0.05588 0.4908 0.0
O171 O 0.05296 0.93857 0.48299 0.0
O172 O 0.09331 0.97372 0.45623 0.0
O173 O 0.09361 0.05388 0.4568 0.0
O174 O 0.05147 0.09236 0.48098 0.0
O175 O 0.9297 0.98017 0.49099 0.0
O176 O 0.98415 0.97302 0.46714 0.0
C177 C 0.07755 0.08413 0.45887 0.0
O178 O 0.05299 0.9736 0.5554 0.0
O179 O 0.10603 0.97708 0.52931 0.0
O180 O 0.98156 0.09537 0.53623 0.0
O181 O 0.94115 0.061 0.564 0.0
C182 C 0.94702 0.06587 0.46545 0.0
C183 C 0.94989 0.96858 0.46639 0.0
C184 C 0.95762 0.94968 0.56158 0.0
O185 O 0.94183 0.98003 0.56483 0.0
O186 O 0.98295 0.94164 0.53862 0.0
C187 C 0.07743 0.94444 0.45941 0.0
O188 O 0.10517 0.05298 0.53058 0.0
O189 O 0.05019 0.06172 0.55296 0.0
C190 C 0.08728 0.96707 0.55448 0.0
C191 C 0.08454 0.06549 0.55441 0.0
Fe192 Fe 0.54545 0.94903 0.97723 0.0
O193 O 0.52514 0.99601 0.98416 0.0
Fe194 Fe 0.47856 1.0025 0.0127 0.0
Fe195 Fe 0.55209 0.03508 1.00749 0.0
O196 O 0.52247 0.99494 0.98408 0.0
O197 O 0.50567 0.04131 0.0365 0.0
O198 O 0.50841 0.04248 0.03647 0.0
Fe199 Fe 0.48535 0.08852 0.04284 0.0
C200 C 0.5947 0.9776 0.03829 0.0
O201 O 0.57659 0.9744 0.94216 0.0
O202 O 0.59473 0.02353 0.97392 0.0
O203 O 0.44159 0.08059 1.00835 0.0
O204 O 0.45694 0.03398 0.97577 0.0
O205 O 0.45464 0.9614 0.98332 0.0
O206 O 0.49952 0.94213 0.94558 0.0
O207 O 0.52968 0.06614 0.97045 0.0
O208 O 0.51503 0.11172 1.00382 0.0
C209 C 0.46571 0.94556 0.95467 0.0
O210 O 0.45435 0.06325 0.07814 0.0
O211 O 0.43579 1.01439 0.04605 0.0
O212 O 0.58891 0.95669 0.0122 0.0
O213 O 0.57456 1.00403 0.04435 0.0
C214 C 0.59623 1.00182 0.94723 0.0
C215 C 0.52748 0.09853 0.97525 0.0
C216 C 0.56508 0.0926 0.06488 0.0
O217 O 0.57593 0.07667 0.03621 0.0
O218 O 0.53138 0.09588 0.07425 0.0
C219 C 0.43611 0.05982 0.98214 0.0
O220 O 0.49994 0.97055 0.04965 0.0
O221 O 0.51535 0.92565 0.01556 0.0
C222 C 0.43453 0.03594 0.07291 0.0
C223 C 0.50184 0.93821 0.04391 0.0
Fe224 Fe 1.01408 0.55818 0.01102 0.0
O225 O 0.98662 0.51834 0.99005 0.0
Fe226 Fe 0.09804 0.5179 0.03556 0.0
Fe227 Fe 0.93355 0.51726 0.98859 0.0
O228 O 0.04381 0.5209 0.03513 0.0
O229 O 0.04505 0.51704 0.03363 0.0
O230 O 0.98784 0.51445 0.98858 0.0
Fe231 Fe 0.01769 0.47721 0.01265 0.0
C232 C 0.94531 0.57043 0.05122 0.0
O233 O 0.97926 0.5917 0.98068 0.0
O234 O 0.93881 0.55476 0.95191 0.0
O235 O 0.05203 0.47039 0.97015 0.0
O236 O 0.10507 0.47686 0.99913 0.0
O237 O 0.10245 0.55177 0.9961 0.0
O238 O 0.04764 0.5546 0.96907 0.0
O239 O 0.94042 0.47366 0.95639 0.0
O240 O 0.9837 0.44065 0.98687 0.0
C241 C 0.08175 0.55966 0.97008 0.0
O242 O 0.05242 0.44367 0.04304 0.0
O243 O 0.09237 0.48072 0.07229 0.0
O244 O 0.97981 0.5651 0.05359 0.0
O245 O 0.92662 0.55821 0.02502 0.0
C246 C 0.9544 0.58447 0.95619 0.0
C247 C 0.95772 0.44476 0.96307 0.0
C248 C 0.9505 0.47528 0.05398 0.0
O249 O 0.92947 0.48308 0.02814 0.0
O250 O 0.98443 0.48097 0.05471 0.0
C251 C 0.08651 0.46493 0.97268 0.0
O252 O 0.091 0.5616 0.06762 0.0
O253 O 0.04812 0.59467 0.03669 0.0
C254 C 0.07692 0.45099 0.06784 0.0
C255 C 0.07389 0.59052 0.06067 0.0
Fe256 Fe 0.51629 0.51825 0.96822 0.0
O257 O 0.54695 0.49772 1.00732 0.0
Fe258 Fe 0.43385 0.53414 0.01104 0.0
Fe259 Fe 0.6003 0.49908 1.00941 0.0
O260 O 0.48766 0.53763 1.00903 0.0
O261 O 0.48722 0.53613 0.01361 0.0
O262 O 0.54643 0.4961 0.01195 0.0
Fe263 Fe 0.51811 0.51602 0.05283 0.0
C264 C 0.57731 0.46859 0.93726 0.0
O265 O 0.54836 0.56262 0.96666 0.0
O266 O 0.60313 0.53704 0.972 0.0
O267 O 0.4831 0.54328 0.08944 0.0
O268 O 0.43902 0.56839 0.05316 0.0
O269 O 0.43595 0.56913 0.97121 0.0
O270 O 0.4779 0.54439 0.93334 0.0
O271 O 0.60489 0.5371 0.04876 0.0
O272 O 0.54908 0.56015 0.05458 0.0
C273 C 0.45073 0.56614 0.94063 0.0
O274 O 0.48624 0.47164 0.05512 0.0
O275 O 0.43106 0.49599 0.04815 0.0
O276 O 0.55133 0.49189 0.9316 0.0
O277 O 0.59454 0.46439 0.9672 0.0
C278 C 0.58281 0.5622 0.96162 0.0
C279 C 0.58359 0.56174 0.05891 0.0
C280 C 0.58345 0.4678 0.08031 0.0
O281 O 0.59803 0.46448 0.04964 0.0
O282 O 0.55666 0.48998 0.08769 0.0
C283 C 0.45607 0.56552 0.08335 0.0
O284 O 0.42971 0.49656 0.97145 0.0
O285 O 0.4856 0.47388 0.96562 0.0
C286 C 0.4517 0.47143 0.05934 0.0
C287 C 0.45113 0.47213 0.96117 0.0
Fe288 Fe 0.05709 0.44931 0.50054 0.0
O289 O 0.04404 0.4979 0.5102 0.0
Fe290 Fe 0.02194 0.5279 0.4707 0.0
Fe291 Fe 1.00981 0.51343 0.5473 0.0
O292 O 0.04469 0.49853 0.50748 0.0
O293 O 0.98695 0.54278 0.50747 0.0
O294 O 0.98625 0.54209 0.51033 0.0
Fe295 Fe 0.97419 0.59151 0.51752 0.0
C296 C 0.98293 0.44229 0.53321 0.0
O297 O 0.08491 0.45702 0.54779 0.0
O298 O 0.03988 0.48241 0.58201 0.0
O299 O 1.01639 0.6105 0.48944 0.0
O300 O 0.05632 0.56641 0.48631 0.0
O301 O 0.0621 0.50935 0.43677 0.0
O302 O 0.09539 0.46933 0.46887 0.0
O303 O 0.04455 0.55201 0.56143 0.0
O304 O 1.00664 0.59789 0.56285 0.0
C305 C 0.09131 0.49062 0.44334 0.0
O306 O 0.94693 0.58417 0.46995 0.0
O307 O 0.99279 0.55971 0.43619 0.0
O308 O 1.01536 0.43051 0.52918 0.0
O309 O 0.97528 0.47445 0.5335 0.0
C310 C 0.07209 0.46839 0.57758 0.0
C311 C 0.03731 0.58323 0.5703 0.0
C312 C 0.94028 0.5505 0.57462 0.0
O313 O 0.97003 0.53261 0.58155 0.0
O314 O 0.93576 0.57132 0.54874 0.0
C315 C 0.04896 0.59862 0.48698 0.0
O316 O 0.9876 0.48969 0.4545 0.0
O317 O 0.0239 0.44249 0.45584 0.0
C318 C 0.96025 0.57303 0.44029 0.0
C319 C 0.99447 0.45824 0.44614 0.0
Fe320 Fe 0.55683 0.94652 0.50921 0.0
O321 O 0.54574 0.99644 0.51421 0.0
Fe322 Fe 0.51847 0.02007 0.47105 0.0
Fe323 Fe 0.51682 0.01801 0.55367 0.0
O324 O 0.54549 0.99624 0.51022 0.0
O325 O 0.48954 0.04154 0.51045 0.0
O326 O 0.48972 0.04167 0.51439 0.0
Fe327 Fe 0.47799 0.09129 0.51466 0.0
C328 C 0.4861 0.94702 0.5485 0.0
O329 O 0.58985 0.95697 0.5531 0.0
O330 O 0.55 0.98749 0.58928 0.0
O331 O 0.51653 0.10378 0.4794 0.0
O332 O 0.55553 0.05873 0.47611 0.0
O333 O 0.55344 0.99196 0.43475 0.0
O334 O 0.5919 0.95941 0.47042 0.0
O335 O 0.55374 0.05695 0.5593 0.0
O336 O 0.51552 0.10268 0.55432 0.0
C337 C 0.58205 0.97134 0.44004 0.0
O338 O 0.44467 0.08003 0.47124 0.0
O339 O 0.48525 0.05038 0.43527 0.0
O340 O 0.5177 0.93365 0.54364 0.0
O341 O 0.47975 0.97948 0.54899 0.0
C342 C 0.57888 0.96733 0.5839 0.0
C343 C 0.5464 0.0892 0.563 0.0
C344 C 0.45316 0.06671 0.58438 0.0
O345 O 0.48176 0.04612 0.58981 0.0
O346 O 0.4434 0.07873 0.554 0.0
C347 C 0.54862 0.09109 0.47578 0.0
O348 O 0.48138 0.98141 0.46574 0.0
O349 O 0.51964 0.93577 0.46891 0.0
C350 C 0.45595 0.07001 0.44046 0.0
C351 C 0.48844 0.94921 0.46138 0.0
H352 H 0.18801 0.17428 0.28299 0.0
H353 H 0.20029 0.25193 0.36612 0.0
H354 H 0.14803 0.14242 0.31888 0.0
H355 H 0.16178 0.21879 0.40348 0.0
H356 H 0.07509 0.15735 0.46074 0.0
H357 H 0.10653 0.19577 0.42179 0.0
H358 H 0.14759 0.10613 0.36328 0.0
H359 H 0.11525 0.06912 0.39973 0.0
C360 C 0.18251 0.18447 0.30919 0.0
C361 C 0.19795 0.21573 0.32146 0.0
C362 C 0.15956 0.16587 0.33025 0.0
C363 C 0.15172 0.1771 0.36504 0.0
C364 C 0.16656 0.20893 0.37705 0.0
C365 C 0.18903 0.228 0.35556 0.0
C366 C 0.09017 0.14604 0.43903 0.0
C367 C 0.09228 0.10976 0.43388 0.0
C368 C 0.10877 0.16811 0.41678 0.0
C369 C 0.13002 0.1546 0.38867 0.0
C370 C 0.13122 0.11838 0.38355 0.0
C371 C 0.11266 0.09671 0.40522 0.0
H372 H 0.80901 0.2234 0.36088 0.0
H373 H 0.861 0.16854 0.27481 0.0
H374 H 0.84114 0.18546 0.40241 0.0
H375 H 0.8932 0.1307 0.31614 0.0
H376 H 0.9737 0.092 0.40434 0.0
H377 H 0.94165 0.12928 0.36202 0.0
H378 H 0.84412 0.12648 0.42225 0.0
H379 H 0.87581 0.08962 0.46422 0.0
C380 C 0.8271 0.20311 0.35075 0.0
C381 C 0.83219 0.1991 0.31435 0.0
C382 C 0.84559 0.1812 0.37461 0.0
C383 C 0.87012 0.15477 0.36292 0.0
C384 C 0.87507 0.15085 0.32644 0.0
C385 C 0.85629 0.17249 0.3026 0.0
C386 C 0.94537 0.09913 0.40847 0.0
C387 C 0.92761 0.08741 0.43795 0.0
C388 C 0.92684 0.12055 0.38406 0.0
C389 C 0.89008 0.13132 0.38853 0.0
C390 C 0.87242 0.1194 0.41792 0.0
C391 C 0.89073 0.09782 0.44201 0.0
H392 H 0.81931 0.88405 0.29057 0.0
H393 H 0.87182 0.79422 0.33609 0.0
H394 H 0.85259 0.92149 0.33221 0.0
H395 H 0.90565 0.83225 0.37781 0.0
H396 H 0.98312 0.91956 0.42347 0.0
H397 H 0.95411 0.88141 0.37862 0.0
H398 H 0.84972 0.9308 0.39901 0.0
H399 H 0.87838 0.96849 0.44403 0.0
C400 C 0.83831 0.87219 0.30914 0.0
C401 C 0.84279 0.83595 0.30989 0.0
C402 C 0.85723 0.89377 0.33318 0.0
C403 C 0.88158 0.87985 0.3584 0.0
C404 C 0.88715 0.84372 0.35854 0.0
C405 C 0.8677 0.82195 0.33473 0.0
C406 C 0.95402 0.92246 0.41817 0.0
C407 C 0.93307 0.94716 0.43731 0.0
C408 C 0.93741 0.90041 0.3927 0.0
C409 C 0.89965 0.90308 0.38532 0.0
C410 C 0.8789 0.92825 0.40394 0.0
C411 C 0.89533 0.9498 0.4298 0.0
H412 H 0.2312 0.88405 0.30985 0.0
H413 H 0.18686 0.78323 0.32242 0.0
H414 H 0.18728 0.90922 0.35092 0.0
H415 H 0.14359 0.80839 0.36504 0.0
H416 H 0.10692 0.8787 0.47082 0.0
H417 H 0.1442 0.84388 0.42903 0.0
H418 H 0.11662 0.91615 0.34829 0.0
H419 H 0.0794 0.95011 0.38933 0.0
C420 C 0.21228 0.86713 0.32161 0.0
C421 C 0.21292 0.8315 0.3129 0.0
C422 C 0.18699 0.8816 0.3452 0.0
C423 C 0.16172 0.86092 0.36137 0.0
C424 C 0.16275 0.82508 0.35332 0.0
C425 C 0.1877 0.81064 0.32899 0.0
C426 C 0.10755 0.88619 0.44373 0.0
C427 C 0.08979 0.91707 0.43339 0.0
C428 C 0.12926 0.86648 0.41986 0.0
C429 C 0.13401 0.87757 0.38539 0.0
C430 C 0.11413 0.90707 0.37466 0.0
C431 C 0.09238 0.92636 0.39816 0.0
H432 H 0.24648 0.84899 0.68611 0.0
H433 H 0.14122 0.81501 0.71564 0.0
H434 H 0.21699 0.88887 0.64514 0.0
H435 H 0.11144 0.85362 0.67418 0.0
H436 H 0.06229 0.94622 0.61828 0.0
H437 H 0.0934 0.90878 0.66058 0.0
H438 H 0.18574 0.89799 0.59289 0.0
H439 H 0.15548 0.93656 0.5519 0.0
C440 C 0.21711 0.84931 0.68318 0.0
C441 C 0.19643 0.82824 0.70384 0.0
C442 C 0.19989 0.87244 0.65968 0.0
C443 C 0.16134 0.87505 0.65587 0.0
C444 C 0.14093 0.85345 0.67646 0.0
C445 C 0.15814 0.83082 0.70016 0.0
C446 C 0.08935 0.93608 0.61259 0.0
C447 C 0.10618 0.94483 0.58152 0.0
C448 C 0.10728 0.91416 0.63681 0.0
C449 C 0.14248 0.89972 0.63059 0.0
C450 C 0.15918 0.90871 0.59947 0.0
C451 C 0.14151 0.93092 0.57559 0.0
H452 H 0.16041 0.24113 0.68426 0.0
H453 H 0.21189 0.15177 0.73167 0.0
H454 H 0.1275 0.2027 0.64223 0.0
H455 H 0.17953 0.11395 0.68974 0.0
H456 H 0.15566 0.06535 0.57831 0.0
H457 H 0.1836 0.10351 0.62338 0.0
H458 H 0.07908 0.15395 0.64072 0.0
H459 H 0.05085 0.11542 0.5958 0.0
C460 C 0.16448 0.21341 0.68598 0.0
C461 C 0.18885 0.19968 0.71145 0.0
C462 C 0.14557 0.19142 0.66198 0.0
C463 C 0.15114 0.1553 0.66255 0.0
C464 C 0.17492 0.14164 0.6884 0.0
C465 C 0.19331 0.16346 0.71262 0.0
C466 C 0.13853 0.08437 0.59189 0.0
C467 C 0.10098 0.08717 0.58351 0.0
C468 C 0.15454 0.1062 0.61777 0.0
C469 C 0.13355 0.1318 0.63556 0.0
C470 C 0.09598 0.13463 0.6273 0.0
C471 C 0.0798 0.11234 0.60181 0.0
H472 H 0.86055 0.1725 0.74893 0.0
H473 H 0.8076 0.23488 0.66996 0.0
H474 H 0.90097 0.14676 0.70468 0.0
H475 H 0.84887 0.21073 0.62612 0.0
H476 H 0.89379 0.12654 0.54866 0.0
H477 H 0.85954 0.16063 0.59198 0.0
H478 H 0.9502 0.15114 0.66654 0.0
H479 H 0.98386 0.11595 0.62293 0.0
C480 C 0.8579 0.18114 0.72222 0.0
C481 C 0.83079 0.20588 0.71317 0.0
C482 C 0.88136 0.16656 0.69673 0.0
C483 C 0.87853 0.17636 0.66134 0.0
C484 C 0.85185 0.20183 0.65269 0.0
C485 C 0.82828 0.21611 0.67807 0.0
C486 C 0.90692 0.13291 0.57386 0.0
C487 C 0.942 0.11941 0.58192 0.0
C488 C 0.88715 0.15239 0.59901 0.0
C489 C 0.90167 0.15882 0.63331 0.0
C490 C 0.93761 0.14651 0.64078 0.0
C491 C 0.95737 0.1269 0.61552 0.0
H492 H 0.81419 0.87283 0.71643 0.0
H493 H 0.86021 0.77683 0.67481 0.0
H494 H 0.85188 0.90487 0.67827 0.0
H495 H 0.89904 0.80908 0.63699 0.0
H496 H 0.93929 0.88053 0.54856 0.0
H497 H 0.90509 0.84383 0.58684 0.0
H498 H 0.90991 0.92371 0.66881 0.0
H499 H 0.94257 0.96009 0.63049 0.0
C500 C 0.83263 0.85839 0.6994 0.0
C501 C 0.83393 0.82194 0.69927 0.0
C502 C 0.85473 0.87695 0.6774 0.0
C503 C 0.87942 0.86002 0.6543 0.0
C504 C 0.88051 0.82346 0.65394 0.0
C505 C 0.85822 0.80481 0.67598 0.0
C506 C 0.93371 0.88985 0.57503 0.0
C507 C 0.94394 0.92345 0.58622 0.0
C508 C 0.91379 0.86882 0.59713 0.0
C509 C 0.90355 0.8807 0.63116 0.0
C510 C 0.91577 0.91359 0.64269 0.0
C511 C 0.93519 0.93449 0.62069 0.0
H512 H 0.36787 0.14388 0.22322 0.0
H513 H 0.26009 0.11623 0.1849 0.0
H514 H 0.3927 0.09032 0.1987 0.0
H515 H 0.28479 0.06143 0.16064 0.0
H516 H 0.36196 0.04363 0.06259 0.0
H517 H 0.31952 0.05825 0.10869 0.0
H518 H 0.40204 0.03032 0.18702 0.0
H519 H 0.44512 0.01782 0.14035 0.0
C520 C 0.34938 0.12575 0.21024 0.0
C521 C 0.31251 0.13453 0.20456 0.0
C522 C 0.36342 0.09458 0.19669 0.0
C523 C 0.3408 0.07169 0.177 0.0
C524 C 0.30299 0.0788 0.17509 0.0
C525 C 0.28892 0.11018 0.18873 0.0
C526 C 0.37032 0.03923 0.08963 0.0
C527 C 0.40668 0.03088 0.09844 0.0
C528 C 0.34595 0.04726 0.1162 0.0
C529 C 0.35801 0.04691 0.15166 0.0
C530 C 0.39248 0.03204 0.15993 0.0
C531 C 0.41711 0.02491 0.13338 0.0
H532 H 0.90391 0.32843 0.21428 0.0
H533 H 0.81991 0.31919 0.13267 0.0
H534 H 0.93241 0.37342 0.18223 0.0
H535 H 0.84916 0.36317 0.09979 0.0
H536 H 0.87975 0.46913 0.0715 0.0
H537 H 0.8551 0.42485 0.10719 0.0
H538 H 0.96449 0.38591 0.13036 0.0
H539 H 0.98919 0.43095 0.09575 0.0
C540 C 0.89216 0.33543 0.18899 0.0
C541 C 0.85971 0.3207 0.17587 0.0
C542 C 0.90842 0.36118 0.1707 0.0
C543 C 0.89257 0.37226 0.13889 0.0
C544 C 0.86135 0.35583 0.12478 0.0
C545 C 0.8449 0.33037 0.14327 0.0
C546 C 0.8985 0.45149 0.08478 0.0
C547 C 0.93627 0.45323 0.08066 0.0
C548 C 0.88442 0.42592 0.10484 0.0
C549 C 0.90786 0.40141 0.12077 0.0
C550 C 0.94578 0.40445 0.11838 0.0
C551 C 0.9599 0.43031 0.09863 0.0
H552 H 0.70211 0.91606 0.21253 0.0
H553 H 0.78689 0.89424 0.13818 0.0
H554 H 0.67447 0.95837 0.17388 0.0
H555 H 0.75915 0.93695 0.09912 0.0
H556 H 0.64783 0.92759 0.03134 0.0
H557 H 0.70024 0.91773 0.07027 0.0
H558 H 0.66972 1.00788 0.134 0.0
H559 H 0.61674 0.01774 0.09515 0.0
C560 C 0.71562 0.92147 0.18849 0.0
C561 C 0.74557 0.90126 0.1774 0.0
C562 C 0.70008 0.94602 0.16651 0.0
C563 C 0.71417 0.95007 0.13309 0.0
C564 C 0.74754 0.93371 0.12457 0.0
C565 C 0.76329 0.90929 0.14679 0.0
C566 C 0.65241 0.94553 0.05342 0.0
C567 C 0.62752 0.9727 0.06083 0.0
C568 C 0.68293 0.94036 0.07531 0.0
C569 C 0.68906 0.9622 0.10507 0.0
C570 C 0.66553 0.99074 0.11119 0.0
C571 C 0.63498 0.99599 0.08923 0.0
H572 H 0.17035 0.69191 0.2372 0.0
H573 H 0.21342 0.74958 0.15324 0.0
H574 H 0.12839 0.66349 0.19536 0.0
H575 H 0.17087 0.72165 0.11163 0.0
H576 H 0.13672 0.62119 0.04869 0.0
H577 H 0.16828 0.66311 0.08714 0.0
H578 H 0.07553 0.66923 0.15468 0.0
H579 H 0.0442 0.6266 0.11591 0.0
C580 C 0.17055 0.69893 0.20994 0.0
C581 C 0.19567 0.72267 0.19854 0.0
C582 C 0.1462 0.68286 0.18599 0.0
C583 C 0.14638 0.69023 0.15013 0.0
C584 C 0.1704 0.71509 0.13901 0.0
C585 C 0.1948 0.73108 0.16291 0.0
C586 C 0.12277 0.63239 0.07122 0.0
C587 C 0.08814 0.62117 0.07942 0.0
C588 C 0.14073 0.65641 0.09322 0.0
C589 C 0.12448 0.6694 0.12409 0.0
C590 C 0.08885 0.65943 0.13125 0.0
C591 C 0.07077 0.63542 0.109 0.0
H592 H 0.27971 0.84633 0.84667 0.0
H593 H 0.37225 0.82979 0.78015 0.0
H594 H 0.31616 0.88337 0.88639 0.0
H595 H 0.40922 0.865 0.82053 0.0
H596 H 0.46432 0.94749 0.88392 0.0
H597 H 0.42139 0.92007 0.84246 0.0
H598 H 0.36325 0.88061 0.92913 0.0
H599 H 0.40517 0.91023 0.97052 0.0
C600 C 0.30788 0.85062 0.84059 0.0
C601 C 0.32315 0.83525 0.8103 0.0
C602 C 0.32887 0.87164 0.86347 0.0
C603 C 0.36577 0.87721 0.85687 0.0
C604 C 0.38075 0.86206 0.82622 0.0
C605 C 0.35959 0.84164 0.80306 0.0
C606 C 0.44213 0.93313 0.89398 0.0
C607 C 0.43816 0.9305 0.93026 0.0
C608 C 0.41763 0.91722 0.87027 0.0
C609 C 0.38914 0.89748 0.88229 0.0
C610 C 0.38457 0.89584 0.9188 0.0
C611 C 0.40866 0.91256 0.94258 0.0
H612 H 0.23963 0.31185 0.89121 0.0
H613 H 0.1697 0.32312 0.79904 0.0
H614 H 0.20465 0.3562 0.92235 0.0
H615 H 0.13415 0.36895 0.83064 0.0
H616 H 0.05788 0.42152 0.91914 0.0
H617 H 0.09124 0.38057 0.88021 0.0
H618 H 0.19314 0.41647 0.92602 0.0
H619 H 0.16021 0.4563 0.96491 0.0
C620 C 0.21682 0.32408 0.87731 0.0
C621 C 0.20773 0.31362 0.84241 0.0
C622 C 0.1967 0.34997 0.8953 0.0
C623 C 0.16638 0.36682 0.8793 0.0
C624 C 0.15713 0.35662 0.84411 0.0
C625 C 0.17769 0.33049 0.82581 0.0
C626 C 0.08742 0.42087 0.92067 0.0
C627 C 0.10608 0.4422 0.94579 0.0
C628 C 0.10665 0.39737 0.89816 0.0
C629 C 0.14517 0.39444 0.90005 0.0
C630 C 0.16361 0.41698 0.92409 0.0
C631 C 0.14454 0.44019 0.94649 0.0
H632 H 0.65844 0.16582 0.8044 0.0
H633 H 0.69637 0.22532 0.89559 0.0
H634 H 0.60933 0.14373 0.8377 0.0
H635 H 0.64862 0.20116 0.93025 0.0
H636 H 0.54529 0.16775 0.98094 0.0
H637 H 0.5868 0.19776 0.94381 0.0
H638 H 0.59927 0.10445 0.87885 0.0
H639 H 0.55656 0.07599 0.91372 0.0
C640 C 0.65663 0.17361 0.83191 0.0
C641 C 0.6815 0.19682 0.8476 0.0
C642 C 0.62846 0.16085 0.85118 0.0
C643 C 0.625 0.1701 0.88706 0.0
C644 C 0.64993 0.19366 0.90267 0.0
C645 C 0.67764 0.20718 0.883 0.0
C646 C 0.55616 0.15413 0.95809 0.0
C647 C 0.54746 0.11944 0.95044 0.0
C648 C 0.58046 0.17113 0.93707 0.0
C649 C 0.5968 0.15365 0.90819 0.0
C650 C 0.58696 0.11933 0.90016 0.0
C651 C 0.56242 0.10273 0.92059 0.0
H652 H 0.80908 0.68953 0.80718 0.0
H653 H 0.86636 0.77366 0.85911 0.0
H654 H 0.84714 0.64812 0.83964 0.0
H655 H 0.9059 0.73279 0.89018 0.0
H656 H 0.94305 0.65387 0.9716 0.0
H657 H 0.91014 0.696 0.93561 0.0
H658 H 0.90136 0.61932 0.85052 0.0
H659 H 0.93225 0.57704 0.88746 0.0
C660 C 0.83057 0.69911 0.82477 0.0
C661 C 0.83488 0.73484 0.83036 0.0
C662 C 0.8526 0.67535 0.84357 0.0
C663 C 0.87996 0.68668 0.86811 0.0
C664 C 0.88482 0.72262 0.87248 0.0
C665 C 0.86236 0.74623 0.85425 0.0
C666 C 0.93458 0.64627 0.945 0.0
C667 C 0.94029 0.61204 0.93252 0.0
C668 C 0.91559 0.6705 0.92411 0.0
C669 C 0.90236 0.66141 0.88979 0.0
C670 C 0.90988 0.62746 0.87691 0.0
C671 C 0.92814 0.60316 0.89803 0.0
H672 H 0.22528 0.3481 0.21519 0.0
H673 H 0.16812 0.26333 0.1642 0.0
H674 H 0.18566 0.38911 0.18359 0.0
H675 H 0.12723 0.30368 0.13418 0.0
H676 H 0.08926 0.38181 0.05234 0.0
H677 H 0.12301 0.34022 0.0883 0.0
H678 H 0.13015 0.41683 0.17357 0.0
H679 H 0.09824 0.45861 0.13672 0.0
C680 C 0.20358 0.33829 0.19796 0.0
C681 C 0.19982 0.30252 0.1922 0.0
C682 C 0.18067 0.36178 0.17971 0.0
C683 C 0.15304 0.35006 0.15566 0.0
C684 C 0.14856 0.3141 0.15143 0.0
C685 C 0.17182 0.2908 0.16906 0.0
C686 C 0.09747 0.38947 0.079 0.0
C687 C 0.09104 0.42354 0.09157 0.0
C688 C 0.11695 0.36558 0.09985 0.0
C689 C 0.12999 0.37489 0.13417 0.0
C690 C 0.12172 0.40861 0.14717 0.0
C691 C 0.10289 0.43258 0.12612 0.0
H692 H 0.13325 0.7049 0.81176 0.0
H693 H 0.22196 0.70844 0.88909 0.0
H694 H 0.10351 0.66187 0.84481 0.0
H695 H 0.19124 0.66615 0.92335 0.0
H696 H 0.15232 0.5614 0.95108 0.0
H697 H 0.17959 0.60507 0.91639 0.0
H698 H 0.07281 0.6521 0.8975 0.0
H699 H 0.04548 0.6077 0.93105 0.0
C700 C 0.14594 0.69699 0.83636 0.0
C701 C 0.17992 0.70965 0.84795 0.0
C702 C 0.12884 0.67241 0.8553 0.0
C703 C 0.14528 0.66035 0.88639 0.0
C704 C 0.17841 0.67446 0.89899 0.0
C705 C 0.19574 0.69891 0.87976 0.0
C706 C 0.1347 0.58071 0.93888 0.0
C707 C 0.09691 0.58133 0.94372 0.0
C708 C 0.1503 0.60595 0.91949 0.0
C709 C 0.1284 0.63239 0.90496 0.0
C710 C 0.09036 0.63196 0.90833 0.0
C711 C 0.07468 0.60644 0.92737 0.0
H712 H 0.24327 0.14184 0.88336 0.0
H713 H 0.32796 0.11979 0.809 0.0
H714 H 0.27059 0.09871 0.9222 0.0
H715 H 0.35522 0.07709 0.84741 0.0
H716 H 0.414 0.01899 0.92581 0.0
H717 H 0.36048 0.02796 0.8874 0.0
H718 H 0.32921 0.1179 0.95111 0.0
H719 H 0.38211 0.10888 0.98959 0.0
C720 C 0.26675 0.12666 0.8747 0.0
C721 C 0.28462 0.13475 0.84419 0.0
C722 C 0.28225 0.10197 0.89678 0.0
C723 C 0.31557 0.08549 0.88824 0.0
C724 C 0.32968 0.08957 0.85483 0.0
C725 C 0.31438 0.11434 0.83299 0.0
C726 C 0.39547 0.04048 0.93182 0.0
C727 C 0.40288 0.06402 0.96001 0.0
C728 C 0.36461 0.04521 0.91012 0.0
C729 C 0.34075 0.07351 0.9163 0.0
C730 C 0.34678 0.09547 0.94599 0.0
C731 C 0.37759 0.0908 0.96762 0.0
H732 H 0.87154 0.33574 0.78487 0.0
H733 H 0.82314 0.2828 0.86933 0.0
H734 H 0.91175 0.3657 0.82744 0.0
H735 H 0.8636 0.31248 0.91158 0.0
H736 H 0.89181 0.41772 0.9693 0.0
H737 H 0.86286 0.37422 0.93072 0.0
H738 H 0.96247 0.36079 0.87349 0.0
H739 H 0.99149 0.40467 0.91271 0.0
C740 C 0.86985 0.33001 0.81238 0.0
C741 C 0.84362 0.30728 0.82368 0.0
C742 C 0.89314 0.34699 0.83674 0.0
C743 C 0.89061 0.34162 0.87287 0.0
C744 C 0.86583 0.31745 0.88394 0.0
C745 C 0.84264 0.30045 0.85965 0.0
C746 C 0.90773 0.40472 0.94905 0.0
C747 C 0.94377 0.4141 0.94393 0.0
C748 C 0.89127 0.37978 0.92701 0.0
C749 C 0.9104 0.36409 0.89904 0.0
C750 C 0.94708 0.37257 0.89477 0.0
C751 C 0.96376 0.39734 0.91727 0.0
H752 H 0.77158 0.91899 0.8366 0.0
H753 H 0.66354 0.88869 0.80164 0.0
H754 H 0.74636 0.97391 0.86028 0.0
H755 H 0.6383 0.94248 0.82533 0.0
H756 H 0.58613 0.01816 0.87923 0.0
H757 H 0.62939 1.00362 0.83322 0.0
H758 H 0.71146 0.97846 0.91291 0.0
H759 H 0.66879 0.99494 0.95837 0.0
C760 C 0.74258 0.92447 0.83339 0.0
C761 C 0.71914 0.89944 0.81857 0.0
C762 C 0.72822 0.9559 0.84666 0.0
C763 C 0.69031 0.96248 0.84514 0.0
C764 C 0.66766 0.93865 0.82682 0.0
C765 C 0.68196 0.90738 0.81379 0.0
C766 C 0.6141 1.01132 0.88661 0.0
C767 C 0.6243 1.00659 0.92184 0.0
C768 C 0.63884 1.00303 0.86042 0.0
C769 C 0.67319 0.98832 0.86943 0.0
C770 C 0.6851 0.9893 0.90494 0.0
C771 C 0.66061 0.99845 0.93112 0.0
H772 H 0.8613 0.71342 0.22351 0.0
H773 H 0.79236 0.72444 0.13063 0.0
H774 H 0.89711 0.6674 0.19245 0.0
H775 H 0.82756 0.6798 0.10005 0.0
H776 H 0.87166 0.57883 0.05921 0.0
H777 H 0.83869 0.61909 0.0976 0.0
H778 H 0.94054 0.65589 0.14267 0.0
H779 H 0.974 0.61459 0.10414 0.0
C780 C 0.85358 0.70596 0.19669 0.0
C781 C 0.82375 0.7228 0.17972 0.0
C782 C 0.87429 0.67973 0.17871 0.0
C783 C 0.86536 0.66938 0.14351 0.0
C784 C 0.83525 0.6862 0.12712 0.0
C785 C 0.815 0.71223 0.14479 0.0
C786 C 0.88732 0.59521 0.07738 0.0
C787 C 0.92579 0.59335 0.07798 0.0
C788 C 0.86823 0.61865 0.09949 0.0
C789 C 0.88664 0.64155 0.12315 0.0
C790 C 0.92517 0.63879 0.125 0.0
C791 C 0.94445 0.61508 0.10274 0.0
H792 H 0.31429 0.87464 0.15388 0.0
H793 H 0.38938 0.78791 0.1662 0.0
H794 H 0.35841 0.90253 0.11766 0.0
H795 H 0.43325 0.81555 0.12987 0.0
H796 H 0.48695 0.86875 0.03554 0.0
H797 H 0.44247 0.83668 0.06757 0.0
H798 H 0.42076 0.92742 0.13348 0.0
H799 H 0.46515 0.95913 0.10239 0.0
C800 C 0.33991 0.86132 0.14831 0.0
C801 C 0.34855 0.82928 0.16293 0.0
C802 C 0.36525 0.87732 0.12783 0.0
C803 C 0.39941 0.86131 0.12122 0.0
C804 C 0.40716 0.82844 0.1344 0.0
C805 C 0.38209 0.81271 0.15527 0.0
C806 C 0.4732 0.88163 0.05729 0.0
C807 C 0.4797 0.91657 0.06624 0.0
C808 C 0.44758 0.86334 0.07546 0.0
C809 C 0.42766 0.87979 0.10256 0.0
C810 C 0.43508 0.91427 0.11223 0.0
C811 C 0.4609 0.93232 0.09453 0.0
H812 H 0.66403 0.2027 0.24159 0.0
H813 H 0.75282 0.19152 0.16995 0.0
H814 H 0.6255 0.16905 0.20109 0.0
H815 H 0.71512 0.15579 0.13012 0.0
H816 H 0.62415 0.12978 0.04857 0.0
H817 H 0.66672 0.15888 0.08966 0.0
H818 H 0.61214 0.11567 0.17662 0.0
H819 H 0.56838 0.08897 0.13549 0.0
C820 C 0.67554 0.19229 0.21747 0.0
C821 C 0.71132 0.19976 0.20885 0.0
C822 C 0.65352 0.17276 0.19422 0.0
C823 C 0.66704 0.15951 0.16211 0.0
C824 C 0.7034 0.1661 0.15414 0.0
C825 C 0.72516 0.18633 0.1771 0.0
C826 C 0.62154 0.12659 0.07651 0.0
C827 C 0.59283 0.10772 0.08905 0.0
C828 C 0.64604 0.143 0.10014 0.0
C829 C 0.64278 0.14006 0.1367 0.0
C830 C 0.61495 0.11956 0.14885 0.0
C831 C 0.58998 0.10402 0.12531 0.0
H832 H 0.66812 0.75121 0.86298 0.0
H833 H 0.71644 0.66167 0.81018 0.0
H834 H 0.63421 0.71274 0.89993 0.0
H835 H 0.68316 0.62397 0.84654 0.0
H836 H 0.65372 0.56386 0.94093 0.0
H837 H 0.68364 0.60577 0.90661 0.0
H838 H 0.58407 0.66718 0.90061 0.0
H839 H 0.55347 0.62448 0.93547 0.0
C840 C 0.67164 0.72349 0.8591 0.0
C841 C 0.69544 0.71001 0.83321 0.0
C842 C 0.65192 0.70129 0.88027 0.0
C843 C 0.6558 0.66483 0.87675 0.0
C844 C 0.67949 0.65165 0.85078 0.0
C845 C 0.69864 0.6736 0.82952 0.0
C846 C 0.63781 0.58622 0.93259 0.0
C847 C 0.60071 0.59017 0.94133 0.0
C848 C 0.65519 0.61045 0.91247 0.0
C849 C 0.63657 0.64017 0.90014 0.0
C850 C 0.59964 0.64485 0.90953 0.0
C851 C 0.58194 0.62017 0.92952 0.0
H852 H 0.29321 0.69784 0.82139 0.0
H853 H 0.38738 0.69027 0.75643 0.0
H854 H 0.32432 0.65969 0.86361 0.0
H855 H 0.41869 0.6532 0.79841 0.0
H856 H 0.45811 0.56351 0.86758 0.0
H857 H 0.42541 0.59878 0.8239 0.0
H858 H 0.37103 0.65613 0.90715 0.0
H859 H 0.40274 0.62096 0.95013 0.0
C860 C 0.32051 0.68816 0.8161 0.0
C861 C 0.33761 0.6974 0.78538 0.0
C862 C 0.33865 0.6663 0.84046 0.0
C863 C 0.37451 0.65295 0.83489 0.0
C864 C 0.39115 0.66211 0.80385 0.0
C865 C 0.3731 0.68381 0.77969 0.0
C866 C 0.43936 0.58376 0.87658 0.0
C867 C 0.43338 0.58889 0.91277 0.0
C868 C 0.42043 0.6042 0.85142 0.0
C869 C 0.39487 0.63055 0.86153 0.0
C870 C 0.38951 0.63585 0.89775 0.0
C871 C 0.40825 0.61557 0.92269 0.0
H872 H 0.35878 0.27728 0.87233 0.0
H873 H 0.34002 0.35777 0.79753 0.0
H874 H 0.39485 0.31767 0.90999 0.0
H875 H 0.37495 0.39743 0.83513 0.0
H876 H 0.38095 0.46604 0.93646 0.0
H877 H 0.35443 0.41923 0.90083 0.0
H878 H 0.457 0.36234 0.9049 0.0
H879 H 0.48438 0.40989 0.94057 0.0
C880 C 0.36284 0.30318 0.86356 0.0
C881 C 0.346 0.31426 0.83203 0.0
C882 C 0.38346 0.32625 0.88512 0.0
C883 C 0.38726 0.36075 0.87558 0.0
C884 C 0.37214 0.37111 0.84328 0.0
C885 C 0.35204 0.34821 0.82175 0.0
C886 C 0.39804 0.44358 0.93013 0.0
C887 C 0.43499 0.442 0.94132 0.0
C888 C 0.38274 0.41674 0.90963 0.0
C889 C 0.40368 0.38725 0.90004 0.0
C890 C 0.44026 0.38479 0.91209 0.0
C891 C 0.45589 0.41207 0.93233 0.0
H892 H 0.7148 0.31231 0.83492 0.0
H893 H 0.68074 0.37677 0.74948 0.0
H894 H 0.67467 0.34578 0.8741 0.0
H895 H 0.63895 0.4089 0.78744 0.0
H896 H 0.59989 0.48677 0.87264 0.0
H897 H 0.6339 0.45049 0.8307 0.0
H898 H 0.61852 0.36173 0.89413 0.0
H899 H 0.58678 0.39882 0.93682 0.0
C900 C 0.698 0.3331 0.82434 0.0
C901 C 0.70096 0.34186 0.78914 0.0
C902 C 0.67472 0.35242 0.84676 0.0
C903 C 0.65321 0.38065 0.8344 0.0
C904 C 0.65545 0.38825 0.79864 0.0
C905 C 0.67923 0.36947 0.77658 0.0
C906 C 0.60313 0.45935 0.87706 0.0
C907 C 0.59042 0.44564 0.90787 0.0
C908 C 0.62278 0.43829 0.85299 0.0
C909 C 0.62971 0.40274 0.85875 0.0
C910 C 0.61501 0.38891 0.88884 0.0
C911 C 0.59615 0.41011 0.91319 0.0
H912 H 0.73954 0.33362 0.19749 0.0
H913 H 0.64668 0.34193 0.26408 0.0
H914 H 0.70835 0.37235 0.15603 0.0
H915 H 0.61512 0.37971 0.22267 0.0
H916 H 0.57644 0.47043 0.15351 0.0
H917 H 0.60863 0.43441 0.19696 0.0
H918 H 0.66131 0.37628 0.1132 0.0
H919 H 0.63017 0.4121 0.07052 0.0
C920 C 0.71248 0.34362 0.2033 0.0
C921 C 0.6958 0.33442 0.23426 0.0
C922 C 0.69427 0.3658 0.17934 0.0
C923 C 0.65869 0.37953 0.18547 0.0
C924 C 0.64243 0.37045 0.21678 0.0
C925 C 0.6606 0.34838 0.2406 0.0
C926 C 0.59473 0.44986 0.14436 0.0
C927 C 0.60045 0.44473 0.10811 0.0
C928 C 0.61335 0.42899 0.16939 0.0
C929 C 0.63834 0.40222 0.15907 0.0
C930 C 0.64333 0.39688 0.12278 0.0
C931 C 0.62492 0.41758 0.098 0.0
H932 H 0.67371 0.75782 0.14772 0.0
H933 H 0.69189 0.67791 0.22325 0.0
H934 H 0.63907 0.71674 0.10951 0.0
H935 H 0.65849 0.63757 0.1851 0.0
H936 H 0.65337 0.56748 0.08508 0.0
H937 H 0.67955 0.61462 0.12063 0.0
H938 H 0.5777 0.6724 0.11313 0.0
H939 H 0.55072 0.6246 0.07761 0.0
C940 C 0.66984 0.7319 0.15651 0.0
C941 C 0.68606 0.72122 0.18847 0.0
C942 C 0.65008 0.70841 0.13461 0.0
C943 C 0.64659 0.67388 0.14421 0.0
C944 C 0.66114 0.66389 0.17685 0.0
C945 C 0.68033 0.6872 0.19873 0.0
C946 C 0.63641 0.59022 0.09063 0.0
C947 C 0.59976 0.592 0.07855 0.0
C948 C 0.65149 0.61724 0.11109 0.0
C949 C 0.63063 0.64709 0.11971 0.0
C950 C 0.5944 0.6497 0.10671 0.0
C951 C 0.57898 0.62227 0.08656 0.0
H952 H 0.33542 0.73008 0.19632 0.0
H953 H 0.35774 0.65436 0.27474 0.0
H954 H 0.37578 0.69866 0.15639 0.0
H955 H 0.39551 0.62072 0.23372 0.0
H956 H 0.47629 0.57164 0.15499 0.0
H957 H 0.44828 0.61018 0.19994 0.0
H958 H 0.37312 0.65017 0.12086 0.0
H959 H 0.40132 0.61403 0.07696 0.0
C960 C 0.34968 0.70723 0.20541 0.0
C961 C 0.34399 0.69545 0.23912 0.0
C962 C 0.37223 0.68842 0.18209 0.0
C963 C 0.38886 0.65648 0.19129 0.0
C964 C 0.3838 0.64519 0.22548 0.0
C965 C 0.36177 0.66443 0.24901 0.0
C966 C 0.4541 0.58902 0.14728 0.0
C967 C 0.44141 0.58929 0.11201 0.0
C968 C 0.43778 0.61106 0.17311 0.0
C969 C 0.40836 0.6339 0.16432 0.0
C970 C 0.39617 0.63406 0.12903 0.0
C971 C 0.4124 0.61256 0.10356 0.0
H972 H 0.36905 0.28253 0.16073 0.0
H973 H 0.31699 0.37254 0.20924 0.0
H974 H 0.40295 0.32066 0.12329 0.0
H975 H 0.35018 0.40977 0.17248 0.0
H976 H 0.37998 0.46753 0.07696 0.0
H977 H 0.35036 0.42549 0.11137 0.0
H978 H 0.45201 0.36806 0.12304 0.0
H979 H 0.48232 0.4109 0.08811 0.0
C980 C 0.3647 0.31026 0.16357 0.0
C981 C 0.33988 0.32399 0.18841 0.0
C982 C 0.38439 0.33226 0.14213 0.0
C983 C 0.37941 0.36868 0.14434 0.0
C984 C 0.35471 0.38209 0.16927 0.0
C985 C 0.33562 0.3604 0.19078 0.0
C986 C 0.39641 0.44602 0.08656 0.0
C987 C 0.434 0.44325 0.07944 0.0
C988 C 0.3792 0.42172 0.1067 0.0
C989 C 0.3985 0.39312 0.12066 0.0
C990 C 0.43593 0.38951 0.11282 0.0
C991 C 0.45344 0.41428 0.09278 0.0
H992 H 0.85311 0.64317 0.73807 0.0
H993 H 0.75262 0.62458 0.67917 0.0
H994 H 0.88209 0.59437 0.708 0.0
H995 H 0.78134 0.57433 0.64943 0.0
H996 H 0.94157 0.52682 0.64183 0.0
H997 H 0.89449 0.53757 0.68508 0.0
H998 H 0.82357 0.58153 0.60458 0.0
H999 H 0.86954 0.56971 0.56172 0.0
C1000 C 0.8369 0.62782 0.71938 0.0
C1001 C 0.80125 0.63826 0.70972 0.0
C1002 C 0.85332 0.59935 0.70247 0.0
C1003 C 0.83433 0.58092 0.6755 0.0
C1004 C 0.79695 0.5886 0.66945 0.0
C1005 C 0.78052 0.61733 0.68635 0.0
C1006 C 0.91546 0.53779 0.63328 0.0
C1007 C 0.90982 0.54901 0.59884 0.0
C1008 C 0.88846 0.54386 0.65801 0.0
C1009 C 0.85572 0.56146 0.64861 0.0
C1010 C 0.84841 0.56812 0.61303 0.0
C1011 C 0.8752 0.56196 0.58843 0.0
H1012 H 0.29509 0.85267 0.62581 0.0
H1013 H 0.38175 0.77517 0.62546 0.0
H1014 H 0.32942 0.88771 0.58713 0.0
H1015 H 0.4175 0.81104 0.58903 0.0
H1016 H 0.47942 0.88018 0.52566 0.0
H1017 H 0.43163 0.84061 0.53921 0.0
H1018 H 0.37904 0.92221 0.60143 0.0
H1019 H 0.42538 0.96202 0.5858 0.0
C1020 C 0.32133 0.843 0.61685 0.0
C1021 C 0.33633 0.81177 0.62879 0.0
C1022 C 0.34111 0.8631 0.595 0.0
C1023 C 0.37671 0.85277 0.58587 0.0
C1024 C 0.39016 0.81985 0.59535 0.0
C1025 C 0.36984 0.7993 0.61641 0.0
C1026 C 0.45725 0.88963 0.54181 0.0
C1027 C 0.45623 0.9239 0.55517 0.0
C1028 C 0.42993 0.86699 0.54961 0.0
C1029 C 0.40161 0.87802 0.57168 0.0
C1030 C 0.39996 0.91283 0.5838 0.0
C1031 C 0.42679 0.93564 0.57528 0.0
H1032 H 0.24539 0.37362 0.66214 0.0
H1033 H 0.19172 0.39626 0.75987 0.0
H1034 H 0.20836 0.41793 0.63397 0.0
H1035 H 0.15411 0.44119 0.73154 0.0
H1036 H 0.05847 0.44364 0.64173 0.0
H1037 H 0.10443 0.42942 0.68715 0.0
H1038 H 0.18688 0.47739 0.62778 0.0
H1039 H 0.14116 0.49003 0.58184 0.0
C1040 C 0.22636 0.38896 0.6778 0.0
C1041 C 0.22073 0.38135 0.71277 0.0
C1042 C 0.20536 0.41463 0.66183 0.0
C1043 C 0.17809 0.43285 0.68055 0.0
C1044 C 0.17478 0.42732 0.71654 0.0
C1045 C 0.19625 0.40176 0.73268 0.0
C1046 C 0.08627 0.45181 0.63904 0.0
C1047 C 0.09694 0.46663 0.60812 0.0
C1048 C 0.11249 0.44414 0.66513 0.0
C1049 C 0.14937 0.45172 0.66054 0.0
C1050 C 0.1588 0.47063 0.63155 0.0
C1051 C 0.13282 0.47759 0.60525 0.0
H1052 H 0.65586 0.20185 0.7279 0.0
H1053 H 0.69973 0.24768 0.63669 0.0
H1054 H 0.61955 0.16359 0.68976 0.0
H1055 H 0.66278 0.20921 0.59854 0.0
H1056 H 0.55486 0.15728 0.55191 0.0
H1057 H 0.59406 0.19746 0.58541 0.0
H1058 H 0.63757 0.11318 0.64651 0.0
H1059 H 0.59844 0.07282 0.61285 0.0
C1060 C 0.6574 0.2042 0.69974 0.0
C1061 C 0.6809 0.22774 0.68533 0.0
C1062 C 0.63687 0.18198 0.67796 0.0
C1063 C 0.63902 0.18311 0.64136 0.0
C1064 C 0.66093 0.2078 0.62677 0.0
C1065 C 0.68191 0.22983 0.6486 0.0
C1066 C 0.57309 0.14733 0.5723 0.0
C1067 C 0.5734 0.11211 0.58021 0.0
C1068 C 0.59558 0.17025 0.59125 0.0
C1069 C 0.61833 0.15837 0.61872 0.0
C1070 C 0.6198 0.12292 0.62567 0.0
C1071 C 0.59769 0.09986 0.60633 0.0
H1072 H 0.81844 0.32221 0.38439 0.0
H1073 H 0.83828 0.37736 0.29038 0.0
H1074 H 0.86468 0.35618 0.41642 0.0
H1075 H 0.88442 0.41126 0.32254 0.0
H1076 H 0.94058 0.4855 0.40405 0.0
H1077 H 0.89089 0.4551 0.37339 0.0
H1078 H 0.93407 0.35809 0.41149 0.0
H1079 H 0.98395 0.3885 0.44235 0.0
C1080 C 0.8321 0.34202 0.37074 0.0
C1081 C 0.8248 0.34703 0.33482 0.0
C1082 C 0.85883 0.36117 0.38899 0.0
C1083 C 0.87836 0.38597 0.37179 0.0
C1084 C 0.86971 0.39229 0.33641 0.0
C1085 C 0.84331 0.37288 0.31803 0.0
C1086 C 0.93961 0.45765 0.40574 0.0
C1087 C 0.96625 0.4393 0.42546 0.0
C1088 C 0.9112 0.4403 0.38815 0.0
C1089 C 0.90858 0.40434 0.3903 0.0
C1090 C 0.9353 0.38592 0.40978 0.0
C1091 C 0.96403 0.40323 0.42706 0.0
H1092 H 0.66343 0.79033 0.33428 0.0
H1093 H 0.73006 0.86482 0.28668 0.0
H1094 H 0.62834 0.83735 0.36322 0.0
H1095 H 0.69575 0.91211 0.31697 0.0
H1096 H 0.65566 0.96739 0.42918 0.0
H1097 H 0.68809 0.92774 0.38839 0.0
H1098 H 0.58506 0.89302 0.34457 0.0
H1099 H 0.55268 0.93379 0.38437 0.0
C1100 C 0.67033 0.81681 0.32964 0.0
C1101 C 0.69931 0.82368 0.30772 0.0
C1102 C 0.65015 0.84382 0.34626 0.0
C1103 C 0.65903 0.87866 0.34247 0.0
C1104 C 0.68802 0.88565 0.32042 0.0
C1105 C 0.70754 0.85854 0.30285 0.0
C1106 C 0.63995 0.95238 0.40982 0.0
C1107 C 0.60149 0.95459 0.40953 0.0
C1108 C 0.65856 0.92943 0.38656 0.0
C1109 C 0.63929 0.90701 0.36314 0.0
C1110 C 0.60084 0.90991 0.36212 0.0
C1111 C 0.58224 0.93365 0.38466 0.0
H1112 H 0.19384 0.75163 0.40547 0.0
H1113 H 0.21606 0.64847 0.3632 0.0
H1114 H 0.15417 0.72783 0.44898 0.0
H1115 H 0.17702 0.62483 0.40637 0.0
H1116 H 0.12182 0.58518 0.49467 0.0
H1117 H 0.1708 0.61806 0.47139 0.0
H1118 H 0.09279 0.69756 0.44032 0.0
H1119 H 0.0436 0.66481 0.46391 0.0
C1120 C 0.19074 0.72388 0.406 0.0
C1121 C 0.20767 0.70175 0.38109 0.0
C1122 C 0.16811 0.71036 0.43072 0.0
C1123 C 0.1628 0.67455 0.43112 0.0
C1124 C 0.18112 0.65248 0.40707 0.0
C1125 C 0.20318 0.66599 0.38216 0.0
C1126 C 0.11518 0.61002 0.48353 0.0
C1127 C 0.07878 0.622 0.48009 0.0
C1128 C 0.14324 0.62884 0.47036 0.0
C1129 C 0.13538 0.65992 0.45351 0.0
C1130 C 0.09953 0.67365 0.45326 0.0
C1131 C 0.07137 0.65481 0.46656 0.0
H1132 H 0.30829 0.18317 0.29253 0.0
H1133 H 0.37557 0.25576 0.35143 0.0
H1134 H 0.34286 0.1349 0.31899 0.0
H1135 H 0.41072 0.20765 0.37716 0.0
H1136 H 0.48622 0.11177 0.3935 0.0
H1137 H 0.45401 0.15457 0.35695 0.0
H1138 H 0.35083 0.11436 0.38547 0.0
H1139 H 0.38303 0.0725 0.42296 0.0
C1140 C 0.33093 0.18885 0.31053 0.0
C1141 C 0.33935 0.22342 0.31955 0.0
C1142 C 0.3506 0.16115 0.32591 0.0
C1143 C 0.37983 0.16727 0.3501 0.0
C1144 C 0.38873 0.20188 0.35838 0.0
C1145 C 0.36847 0.2295 0.34372 0.0
C1146 C 0.45672 0.1112 0.39092 0.0
C1147 C 0.43728 0.08808 0.41058 0.0
C1148 C 0.43821 0.1361 0.37037 0.0
C1149 C 0.39974 0.13808 0.36827 0.0
C1150 C 0.3804 0.11349 0.38618 0.0
C1151 C 0.39888 0.08928 0.40749 0.0
H1152 H 0.66944 0.78185 0.66354 0.0
H1153 H 0.72357 0.8542 0.73478 0.0
H1154 H 0.63279 0.82948 0.63856 0.0
H1155 H 0.68765 0.90208 0.70915 0.0
H1156 H 0.65112 0.9682 0.60429 0.0
H1157 H 0.6843 0.92606 0.64089 0.0
H1158 H 0.5827 0.87868 0.66271 0.0
H1159 H 0.54943 0.92176 0.62732 0.0
C1160 C 0.67329 0.80791 0.67411 0.0
C1161 C 0.69898 0.81404 0.7017 0.0
C1162 C 0.65221 0.83522 0.65986 0.0
C1163 C 0.65702 0.86967 0.67196 0.0
C1164 C 0.68301 0.87589 0.69935 0.0
C1165 C 0.70338 0.84838 0.71431 0.0
C1166 C 0.63573 0.94978 0.61823 0.0
C1167 C 0.59747 0.94908 0.61368 0.0
C1168 C 0.65478 0.92541 0.63896 0.0
C1169 C 0.63623 0.89882 0.65466 0.0
C1170 C 0.59785 0.89879 0.65106 0.0
C1171 C 0.57871 0.92381 0.63118 0.0
H1172 H 0.72351 0.16557 0.36954 0.0
H1173 H 0.67844 0.26132 0.41322 0.0
H1174 H 0.68766 0.1331 0.40864 0.0
H1175 H 0.64314 0.22872 0.4537 0.0
H1176 H 0.54192 0.15799 0.45643 0.0
H1177 H 0.59008 0.19527 0.4398 0.0
H1178 H 0.67066 0.11576 0.4652 0.0
H1179 H 0.62202 0.07777 0.48077 0.0
C1180 C 0.70659 0.17966 0.38827 0.0
C1181 C 0.70284 0.21576 0.38791 0.0
C1182 C 0.68634 0.16107 0.41102 0.0
C1183 C 0.66213 0.17835 0.43394 0.0
C1184 C 0.66106 0.21474 0.4358 0.0
C1185 C 0.68125 0.23337 0.41279 0.0
C1186 C 0.56993 0.14855 0.45883 0.0
C1187 C 0.57819 0.11464 0.4689 0.0
C1188 C 0.59764 0.17014 0.44977 0.0
C1189 C 0.6342 0.15837 0.45096 0.0
C1190 C 0.64265 0.12529 0.46345 0.0
C1191 C 0.61484 0.10352 0.47216 0.0
H1192 H 0.83772 0.64014 0.25897 0.0
H1193 H 0.78459 0.66024 0.35742 0.0
H1194 H 0.87617 0.59516 0.28614 0.0
H1195 H 0.82236 0.61576 0.38443 0.0
H1196 H 0.89292 0.5473 0.43611 0.0
H1197 H 0.84657 0.55684 0.38991 0.0
H1198 H 0.92568 0.60915 0.33026 0.0
H1199 H 0.97236 0.59801 0.37593 0.0
C1200 C 0.83341 0.63399 0.28604 0.0
C1201 C 0.80901 0.65384 0.30658 0.0
C1202 C 0.85533 0.60836 0.3015 0.0
C1203 C 0.85253 0.60224 0.33741 0.0
C1204 C 0.82503 0.61958 0.35662 0.0
C1205 C 0.80361 0.64537 0.34134 0.0
C1206 C 0.90042 0.56004 0.41259 0.0
C1207 C 0.93541 0.57322 0.40972 0.0
C1208 C 0.87413 0.56515 0.38611 0.0
C1209 C 0.88231 0.58446 0.35702 0.0
C1210 C 0.91859 0.59411 0.35238 0.0
C1211 C 0.94517 0.58826 0.37864 0.0
H1212 H 0.33817 0.78713 0.38647 0.0
H1213 H 0.35929 0.85395 0.30106 0.0
H1214 H 0.37488 0.82458 0.4264 0.0
H1215 H 0.39511 0.89088 0.34071 0.0
H1216 H 0.42518 0.96855 0.42667 0.0
H1217 H 0.38182 0.93066 0.39543 0.0
H1218 H 0.44462 0.84113 0.42863 0.0
H1219 H 0.48825 0.87875 0.45955 0.0
C1220 C 0.3506 0.80965 0.37625 0.0
C1221 C 0.34608 0.81743 0.34061 0.0
C1222 C 0.37144 0.831 0.39904 0.0
C1223 C 0.38727 0.8607 0.38654 0.0
C1224 C 0.38265 0.86842 0.35103 0.0
C1225 C 0.36247 0.84695 0.32828 0.0
C1226 C 0.42953 0.9408 0.42765 0.0
C1227 C 0.46039 0.92664 0.44511 0.0
C1228 C 0.40474 0.91919 0.40984 0.0
C1229 C 0.41015 0.88312 0.40964 0.0
C1230 C 0.43983 0.86888 0.42865 0.0
C1231 C 0.4649 0.89046 0.44603 0.0
H1232 H 0.27873 0.41414 0.33903 0.0
H1233 H 0.17656 0.38823 0.2864 0.0
H1234 H 0.24936 0.46525 0.36667 0.0
H1235 H 0.14715 0.43825 0.31413 0.0
H1236 H 0.08902 0.51103 0.37508 0.0
H1237 H 0.13552 0.49792 0.33173 0.0
H1238 H 0.208 0.45932 0.41386 0.0
H1239 H 0.16238 0.47317 0.45679 0.0
C1240 C 0.25027 0.41993 0.33273 0.0
C1241 C 0.2294 0.39685 0.31178 0.0
C1242 C 0.23352 0.44918 0.34834 0.0
C1243 C 0.19577 0.45542 0.34321 0.0
C1244 C 0.17625 0.43443 0.3187 0.0
C1245 C 0.19293 0.40532 0.30323 0.0
C1246 C 0.11539 0.50085 0.38392 0.0
C1247 C 0.12158 0.49157 0.41894 0.0
C1248 C 0.14203 0.49346 0.35915 0.0
C1249 C 0.17498 0.4766 0.36917 0.0
C1250 C 0.18292 0.47211 0.40505 0.0
C1251 C 0.15642 0.47946 0.42969 0.0
H1252 H 0.36772 0.24675 0.68809 0.0
H1253 H 0.30189 0.17155 0.73559 0.0
H1254 H 0.40397 0.20008 0.65994 0.0
H1255 H 0.3374 0.12459 0.70612 0.0
H1256 H 0.37952 0.06898 0.59501 0.0
H1257 H 0.34604 0.10831 0.63528 0.0
H1258 H 0.44804 0.14555 0.67919 0.0
H1259 H 0.48149 0.10512 0.63988 0.0
C1260 C 0.36124 0.2202 0.69287 0.0
C1261 C 0.33214 0.21301 0.71452 0.0
C1262 C 0.38209 0.19339 0.67673 0.0
C1263 C 0.37379 0.15844 0.68074 0.0
C1264 C 0.34469 0.15115 0.70251 0.0
C1265 C 0.32448 0.17807 0.71962 0.0
C1266 C 0.3948 0.08447 0.61431 0.0
C1267 C 0.43328 0.0831 0.61475 0.0
C1268 C 0.37558 0.10724 0.63727 0.0
C1269 C 0.39424 0.13028 0.66052 0.0
C1270 C 0.43273 0.12816 0.66174 0.0
C1271 C 0.45195 0.10463 0.6395 0.0
H1272 H 0.78982 0.34943 0.61337 0.0
H1273 H 0.8864 0.3047 0.66321 0.0
H1274 H 0.82758 0.37452 0.56947 0.0
H1275 H 0.92415 0.33037 0.62026 0.0
H1276 H 0.98729 0.37166 0.53612 0.0
H1277 H 0.94246 0.33411 0.56006 0.0
H1278 H 0.86895 0.42213 0.57508 0.0
H1279 H 0.91295 0.45928 0.55047 0.0
C1280 C 0.81907 0.3447 0.61464 0.0
C1281 C 0.83542 0.32576 0.64186 0.0
C1282 C 0.84065 0.35902 0.5896 0.0
C1283 C 0.87885 0.35465 0.59157 0.0
C1284 C 0.8948 0.3339 0.6177 0.0
C1285 C 0.87325 0.31953 0.64258 0.0
C1286 C 0.96127 0.38283 0.54393 0.0
C1287 C 0.95404 0.41857 0.5422 0.0
C1288 C 0.93564 0.36134 0.55765 0.0
C1289 C 0.90243 0.37525 0.56992 0.0
C1290 C 0.89414 0.4105 0.56562 0.0
C1291 C 0.91962 0.43191 0.55181 0.0
H1292 H 0.23073 0.69826 0.63485 0.0
H1293 H 0.17412 0.68026 0.73022 0.0
H1294 H 0.18354 0.6668 0.60082 0.0
H1295 H 0.12712 0.64955 0.69614 0.0
H1296 H 0.0296 0.6393 0.61559 0.0
H1297 H 0.07851 0.67016 0.64784 0.0
H1298 H 0.15892 0.60278 0.59849 0.0
H1299 H 0.11036 0.57164 0.56676 0.0
C1300 C 0.20852 0.68735 0.64855 0.0
C1301 C 0.20622 0.69168 0.68519 0.0
C1302 C 0.18157 0.66947 0.62911 0.0
C1303 C 0.15165 0.65626 0.64597 0.0
C1304 C 0.14974 0.65995 0.68259 0.0
C1305 C 0.17689 0.67723 0.70205 0.0
C1306 C 0.05772 0.63121 0.61162 0.0
C1307 C 0.06621 0.60294 0.58902 0.0
C1308 C 0.08559 0.64871 0.63008 0.0
C1309 C 0.1223 0.63864 0.62558 0.0
C1310 C 0.13081 0.61102 0.60226 0.0
C1311 C 0.103 0.59313 0.58437 0.0
loop_
_geom_bond_atom_site_label_1
_geom_bond_atom_site_label_2
_geom_bond_distance
_geom_bond_site_symmetry_2
_ccdc_geom_bond_type
Tb0 O3 2.453 . S
Tb0 O4 2.596 . S
Tb0 O5 2.374 . S
Tb0 O13 2.343 . S
Tb0 O15 2.353 . S
Tb0 O17 2.427 . S
Tb0 O18 2.513 . S
C1 O5 1.251 . S
C1 O7 1.263 . S
Tb2 O4 2.343 . S
Tb2 O7 2.353 . S
Tb2 O10 2.427 . S
Tb2 O11 2.513 . S
Tb2 O12 2.453 . S
Tb2 O13 2.596 . S
Tb2 O14 2.374 . S
O3 Tb0 2.453 . S
O3 C19 1.245 . S
O4 Tb0 2.596 . S
O4 Tb2 2.343 . S
O4 C19 1.259 . S
O5 Tb0 2.374 . S
O5 C1 1.251 . S
C6 O10 1.275 . S
C6 O11 1.246 . S
O7 C1 1.263 . S
O7 Tb2 2.353 . S
C8 O12 1.245 . S
C8 O13 1.259 . S
C9 O14 1.250 . S
C9 O15 1.263 . S
O10 Tb2 2.427 . S
O10 C6 1.275 . S
O11 Tb2 2.513 . S
O11 C6 1.246 . S
O12 Tb2 2.453 . S
O12 C8 1.245 . S
O13 Tb0 2.343 . S
O13 Tb2 2.596 . S
O13 C8 1.259 . S
O14 Tb2 2.374 . S
O14 C9 1.250 . S
O15 Tb0 2.353 . S
O15 C9 1.263 . S
C16 O17 1.275 . S
C16 O18 1.246 . S
O17 Tb0 2.427 . S
O17 C16 1.275 . S
O18 Tb0 2.513 . S
O18 C16 1.246 . S
C19 O3 1.245 . S
C19 O4 1.259 . S
Tb20 O23 2.453 . S
Tb20 O24 2.596 . S
Tb20 O25 2.374 . S
Tb20 O33 2.343 . S
Tb20 O35 2.353 . S
Tb20 O37 2.427 . S
Tb20 O38 2.513 . S
C21 O25 1.251 . S
C21 O27 1.263 . S
Tb22 O24 2.343 . S
Tb22 O27 2.353 . S
Tb22 O30 2.427 . S
Tb22 O31 2.513 . S
Tb22 O32 2.453 . S
Tb22 O33 2.596 . S
Tb22 O34 2.374 . S
O23 Tb20 2.453 . S
O23 C39 1.245 . S
O24 Tb20 2.596 . S
O24 Tb22 2.343 . S
O24 C39 1.259 . S
O25 Tb20 2.374 . S
O25 C21 1.251 . S
C26 O30 1.275 . S
C26 O31 1.246 . S
O27 C21 1.263 . S
O27 Tb22 2.353 . S
C28 O32 1.245 . S
C28 O33 1.259 . S
C29 O34 1.250 . S
C29 O35 1.263 . S
O30 Tb22 2.427 . S
O30 C26 1.275 . S
O31 Tb22 2.513 . S
O31 C26 1.246 . S
O32 Tb22 2.453 . S
O32 C28 1.245 . S
O33 Tb20 2.343 . S
O33 Tb22 2.596 . S
O33 C28 1.259 . S
O34 Tb22 2.374 . S
O34 C29 1.250 . S
O35 Tb20 2.353 . S
O35 C29 1.263 . S
C36 O37 1.275 . S
C36 O38 1.246 . S
O37 Tb20 2.427 . S
O37 C36 1.275 . S
O38 Tb20 2.513 . S
O38 C36 1.246 . S
C39 O23 1.245 . S
C39 O24 1.259 . S
Tb40 O43 2.453 . S
Tb40 O44 2.596 . S
Tb40 O45 2.374 . S
Tb40 O53 2.343 . S
Tb40 O55 2.353 . S
Tb40 O57 2.427 . S
Tb40 O58 2.513 . S
C41 O45 1.251 . S
C41 O47 1.263 . S
Tb42 O44 2.343 . S
Tb42 O47 2.353 . S
Tb42 O50 2.427 . S
Tb42 O51 2.513 . S
Tb42 O52 2.453 . S
Tb42 O53 2.596 . S
Tb42 O54 2.374 . S
O43 Tb40 2.453 . S
O43 C59 1.245 . S
O44 Tb40 2.596 . S
O44 Tb42 2.343 . S
O44 C59 1.259 . S
O45 Tb40 2.374 . S
O45 C41 1.251 . S
C46 O50 1.275 . S
C46 O51 1.246 . S
O47 C41 1.263 . S
O47 Tb42 2.353 . S
C48 O52 1.245 . S
C48 O53 1.259 . S
C49 O54 1.250 . S
C49 O55 1.263 . S
O50 Tb42 2.427 . S
O50 C46 1.275 . S
O51 Tb42 2.513 . S
O51 C46 1.246 . S
O52 Tb42 2.453 . S
O52 C48 1.245 . S
O53 Tb40 2.343 . S
O53 Tb42 2.596 . S
O53 C48 1.259 . S
O54 Tb42 2.374 . S
O54 C49 1.250 . S
O55 Tb40 2.353 . S
O55 C49 1.263 . S
C56 O57 1.275 . S
C56 O58 1.246 . S
O57 Tb40 2.427 . S
O57 C56 1.275 . S
O58 Tb40 2.513 . S
O58 C56 1.246 . S
C59 O43 1.245 . S
C59 O44 1.259 . S
Tb60 O63 2.453 . S
Tb60 O64 2.596 . S
Tb60 O65 2.374 . S
Tb60 O73 2.343 . S
Tb60 O75 2.353 . S
Tb60 O77 2.427 . S
Tb60 O78 2.513 . S
C61 O65 1.251 . S
C61 O67 1.263 . S
Tb62 O64 2.343 . S
Tb62 O67 2.353 . S
Tb62 O70 2.427 . S
Tb62 O71 2.513 . S
Tb62 O72 2.453 . S
Tb62 O73 2.596 . S
Tb62 O74 2.374 . S
O63 Tb60 2.453 . S
O63 C79 1.245 . S
O64 Tb60 2.596 . S
O64 Tb62 2.343 . S
O64 C79 1.259 . S
O65 Tb60 2.374 . S
O65 C61 1.251 . S
C66 O70 1.275 . S
C66 O71 1.246 . S
O67 C61 1.263 . S
O67 Tb62 2.353 . S
C68 O72 1.245 . S
C68 O73 1.259 . S
C69 O74 1.250 . S
C69 O75 1.263 . S
O70 Tb62 2.427 . S
O70 C66 1.275 . S
O71 Tb62 2.513 . S
O71 C66 1.246 . S
O72 Tb62 2.453 . S
O72 C68 1.245 . S
O73 Tb60 2.343 . S
O73 Tb62 2.596 . S
O73 C68 1.259 . S
O74 Tb62 2.374 . S
O74 C69 1.250 . S
O75 Tb60 2.353 . S
O75 C69 1.263 . S
C76 O77 1.275 . S
C76 O78 1.246 . S
O77 Tb60 2.427 . S
O77 C76 1.275 . S
O78 Tb60 2.513 . S
O78 C76 1.246 . S
C79 O63 1.245 . S
C79 O64 1.259 . S
Tb80 O83 2.453 . S
Tb80 O84 2.596 . S
Tb80 O85 2.374 . S
Tb80 O93 2.343 . S
Tb80 O95 2.353 . S
Tb80 O97 2.427 . S
Tb80 O98 2.513 . S
C81 O85 1.251 . S
C81 O87 1.263 . S
Tb82 O84 2.343 . S
Tb82 O87 2.353 . S
Tb82 O90 2.427 . S
Tb82 O91 2.513 . S
Tb82 O92 2.453 . S
Tb82 O93 2.596 . S
Tb82 O94 2.374 . S
O83 Tb80 2.453 . S
O83 C99 1.245 . S
O84 Tb80 2.596 . S
O84 Tb82 2.343 . S
O84 C99 1.259 . S
O85 Tb80 2.374 . S
O85 C81 1.251 . S
C86 O90 1.275 . S
C86 O91 1.246 . S
O87 C81 1.263 . S
O87 Tb82 2.353 . S
C88 O92 1.245 . S
C88 O93 1.259 . S
C89 O94 1.250 . S
C89 O95 1.263 . S
O90 Tb82 2.427 . S
O90 C86 1.275 . S
O91 Tb82 2.513 . S
O91 C86 1.246 . S
O92 Tb82 2.453 . S
O92 C88 1.245 . S
O93 Tb80 2.343 . S
O93 Tb82 2.596 . S
O93 C88 1.259 . S
O94 Tb82 2.374 . S
O94 C89 1.250 . S
O95 Tb80 2.353 . S
O95 C89 1.263 . S
C96 O97 1.275 . S
C96 O98 1.246 . S
O97 Tb80 2.427 . S
O97 C96 1.275 . S
O98 Tb80 2.513 . S
O98 C96 1.246 . S
C99 O83 1.245 . S
C99 O84 1.259 . S
Tb100 O103 2.453 . S
Tb100 O104 2.596 . S
Tb100 O105 2.374 . S
Tb100 O113 2.343 . S
Tb100 O115 2.353 . S
Tb100 O117 2.427 . S
Tb100 O118 2.513 . S
C101 O105 1.251 . S
C101 O107 1.263 . S
Tb102 O104 2.343 . S
Tb102 O107 2.353 . S
Tb102 O110 2.427 . S
Tb102 O111 2.513 . S
Tb102 O112 2.453 . S
Tb102 O113 2.596 . S
Tb102 O114 2.374 . S
O103 Tb100 2.453 . S
O103 C119 1.245 . S
O104 Tb100 2.596 . S
O104 Tb102 2.343 . S
O104 C119 1.259 . S
O105 Tb100 2.374 . S
O105 C101 1.251 . S
C106 O110 1.275 . S
C106 O111 1.246 . S
O107 C101 1.263 . S
O107 Tb102 2.353 . S
C108 O112 1.245 . S
C108 O113 1.259 . S
C109 O114 1.250 . S
C109 O115 1.263 . S
O110 Tb102 2.427 . S
O110 C106 1.275 . S
O111 Tb102 2.513 . S
O111 C106 1.246 . S
O112 Tb102 2.453 . S
O112 C108 1.245 . S
O113 Tb100 2.343 . S
O113 Tb102 2.596 . S
O113 C108 1.259 . S
O114 Tb102 2.374 . S
O114 C109 1.250 . S
O115 Tb100 2.353 . S
O115 C109 1.263 . S
C116 O117 1.275 . S
C116 O118 1.246 . S
O117 Tb100 2.427 . S
O117 C116 1.275 . S
O118 Tb100 2.513 . S
O118 C116 1.246 . S
C119 O103 1.245 . S
C119 O104 1.259 . S
Tb120 O123 2.453 . S
Tb120 O124 2.596 . S
Tb120 O125 2.374 . S
Tb120 O133 2.343 . S
Tb120 O135 2.353 . S
Tb120 O137 2.427 . S
Tb120 O138 2.513 . S
C121 O125 1.251 . S
C121 O127 1.263 . S
Tb122 O124 2.343 . S
Tb122 O127 2.353 . S
Tb122 O130 2.427 . S
Tb122 O131 2.513 . S
Tb122 O132 2.453 . S
Tb122 O133 2.596 . S
Tb122 O134 2.374 . S
O123 Tb120 2.453 . S
O123 C139 1.245 . S
O124 Tb120 2.596 . S
O124 Tb122 2.343 . S
O124 C139 1.259 . S
O125 Tb120 2.374 . S
O125 C121 1.251 . S
C126 O130 1.275 . S
C126 O131 1.246 . S
O127 C121 1.263 . S
O127 Tb122 2.353 . S
C128 O132 1.245 . S
C128 O133 1.259 . S
C129 O134 1.250 . S
C129 O135 1.263 . S
O130 Tb122 2.427 . S
O130 C126 1.275 . S
O131 Tb122 2.513 . S
O131 C126 1.246 . S
O132 Tb122 2.453 . S
O132 C128 1.245 . S
O133 Tb120 2.343 . S
O133 Tb122 2.596 . S
O133 C128 1.259 . S
O134 Tb122 2.374 . S
O134 C129 1.250 . S
O135 Tb120 2.353 . S
O135 C129 1.263 . S
C136 O137 1.275 . S
C136 O138 1.246 . S
O137 Tb120 2.427 . S
O137 C136 1.275 . S
O138 Tb120 2.513 . S
O138 C136 1.246 . S
C139 O123 1.245 . S
C139 O124 1.259 . S
Tb140 O143 2.453 . S
Tb140 O144 2.596 . S
Tb140 O145 2.374 . S
Tb140 O153 2.343 . S
Tb140 O155 2.353 . S
Tb140 O157 2.427 . S
Tb140 O158 2.513 . S
C141 O145 1.251 . S
C141 O147 1.263 . S
Tb142 O144 2.343 . S
Tb142 O147 2.353 . S
Tb142 O150 2.427 . S
Tb142 O151 2.513 . S
Tb142 O152 2.453 . S
Tb142 O153 2.596 . S
Tb142 O154 2.374 . S
O143 Tb140 2.453 . S
O143 C159 1.245 . S
O144 Tb140 2.596 . S
O144 Tb142 2.343 . S
O144 C159 1.259 . S
O145 Tb140 2.374 . S
O145 C141 1.251 . S
C146 O150 1.275 . S
C146 O151 1.246 . S
O147 C141 1.263 . S
O147 Tb142 2.353 . S
C148 O152 1.245 . S
C148 O153 1.259 . S
C149 O154 1.250 . S
C149 O155 1.263 . S
O150 Tb142 2.427 . S
O150 C146 1.275 . S
O151 Tb142 2.513 . S
O151 C146 1.246 . S
O152 Tb142 2.453 . S
O152 C148 1.245 . S
O153 Tb140 2.343 . S
O153 Tb142 2.596 . S
O153 C148 1.259 . S
O154 Tb142 2.374 . S
O154 C149 1.250 . S
O155 Tb140 2.353 . S
O155 C149 1.263 . S
C156 O157 1.275 . S
C156 O158 1.246 . S
O157 Tb140 2.427 . S
O157 C156 1.275 . S
O158 Tb140 2.513 . S
O158 C156 1.246 . S
C159 O143 1.245 . S
C159 O144 1.259 . S
Fe160 O161 1.886 1_455 S
Fe160 O164 1.715 . S
Fe160 O169 2.077 1_455 S
Fe160 O174 1.935 . S
Fe160 O180 2.077 1_455 S
Fe160 O189 1.935 . S
O161 Fe160 1.886 1_655 S
O161 Fe163 1.715 1_545 S
Fe162 O164 1.886 . S
Fe162 O165 1.715 1_545 S
Fe162 O172 1.935 1_545 S
Fe162 O173 2.077 . S
Fe162 O179 1.935 1_545 S
Fe162 O188 2.077 . S
Fe163 O161 1.715 1_565 S
Fe163 O166 1.886 . S
Fe163 O170 1.935 1_565 S
Fe163 O175 2.077 . S
Fe163 O181 1.935 1_565 S
Fe163 O185 2.077 . S
O164 Fe160 1.715 . S
O164 Fe162 1.886 . S
O165 Fe162 1.715 1_565 S
O165 Fe167 1.886 1_455 S
O166 Fe163 1.886 . S
O166 Fe167 1.715 . S
Fe167 O165 1.886 1_655 S
Fe167 O166 1.715 . S
Fe167 O171 2.077 1_655 S
Fe167 O176 1.935 . S
Fe167 O178 2.077 1_655 S
Fe167 O186 1.935 . S
C168 O180 1.381 . S
C168 O181 1.421 . S
O169 Fe160 2.077 1_655 S
O169 C182 1.381 . S
O170 Fe163 1.935 1_545 S
O170 C182 1.421 . S
O171 Fe167 2.077 1_455 S
O171 C187 1.381 . S
O172 Fe162 1.935 1_565 S
O172 C187 1.421 . S
O173 Fe162 2.077 . S
O173 C177 1.381 . S
O174 Fe160 1.935 . S
O174 C177 1.421 . S
O175 Fe163 2.077 . S
O175 C183 1.381 . S
O176 Fe167 1.935 . S
O176 C183 1.421 . S
C177 O173 1.381 . S
C177 O174 1.421 . S
O178 Fe167 2.077 1_455 S
O178 C190 1.381 . S
O179 Fe162 1.935 1_565 S
O179 C190 1.421 . S
O180 Fe160 2.077 1_655 S
O180 C168 1.381 . S
O181 Fe163 1.935 1_545 S
O181 C168 1.421 . S
C182 O169 1.381 . S
C182 O170 1.421 . S
C183 O175 1.381 . S
C183 O176 1.421 . S
C184 O185 1.381 . S
C184 O186 1.421 . S
O185 Fe163 2.077 . S
O185 C184 1.381 . S
O186 Fe167 1.935 . S
O186 C184 1.421 . S
C187 O171 1.381 . S
C187 O172 1.421 . S
O188 Fe162 2.077 . S
O188 C191 1.381 . S
O189 Fe160 1.935 . S
O189 C191 1.421 . S
C190 O178 1.381 . S
C190 O179 1.421 . S
C191 O188 1.381 . S
C191 O189 1.421 . S
Fe192 O193 1.886 1_556 S
Fe192 O196 1.715 . S
Fe192 O201 2.077 . S
Fe192 O206 1.935 . S
Fe192 O212 2.077 1_556 S
Fe192 O221 1.935 1_556 S
O193 Fe192 1.886 1_554 S
O193 Fe195 1.715 1_565 S
Fe194 O196 1.886 . S
Fe194 O197 1.715 1_565 S
Fe194 O204 1.935 1_565 S
Fe194 O205 2.077 . S
Fe194 O211 1.935 1_566 S
Fe194 O220 2.077 1_556 S
Fe195 O193 1.715 1_545 S
Fe195 O198 1.886 . S
Fe195 O202 1.935 1_544 S
Fe195 O207 2.077 1_554 S
Fe195 O213 1.935 1_545 S
Fe195 O217 2.077 . S
O196 Fe192 1.715 . S
O196 Fe194 1.886 . S
O197 Fe194 1.715 1_545 S
O197 Fe199 1.886 1_556 S
O198 Fe195 1.886 . S
O198 Fe199 1.715 . S
Fe199 O197 1.886 1_554 S
Fe199 O198 1.715 . S
Fe199 O203 2.077 1_554 S
Fe199 O208 1.935 1_554 S
Fe199 O210 2.077 . S
Fe199 O218 1.935 . S
C200 O212 1.381 . S
C200 O213 1.421 . S
O201 Fe192 2.077 . S
O201 C214 1.381 . S
O202 Fe195 1.935 1_566 S
O202 C214 1.421 . S
O203 Fe199 2.077 1_556 S
O203 C219 1.381 . S
O204 Fe194 1.935 1_545 S
O204 C219 1.421 . S
O205 Fe194 2.077 . S
O205 C209 1.381 . S
O206 Fe192 1.935 . S
O206 C209 1.421 . S
O207 Fe195 2.077 1_556 S
O207 C215 1.381 . S
O208 Fe199 1.935 1_556 S
O208 C215 1.421 . S
C209 O205 1.381 . S
C209 O206 1.421 . S
O210 Fe199 2.077 . S
O210 C222 1.381 . S
O211 Fe194 1.935 1_544 S
O211 C222 1.421 . S
O212 Fe192 2.077 1_554 S
O212 C200 1.381 . S
O213 Fe195 1.935 1_565 S
O213 C200 1.421 . S
C214 O201 1.381 . S
C214 O202 1.421 . S
C215 O207 1.381 . S
C215 O208 1.421 . S
C216 O217 1.381 . S
C216 O218 1.421 . S
O217 Fe195 2.077 . S
O217 C216 1.381 . S
O218 Fe199 1.935 . S
O218 C216 1.421 . S
C219 O203 1.381 . S
C219 O204 1.421 . S
O220 Fe194 2.077 1_554 S
O220 C223 1.381 . S
O221 Fe192 1.935 1_554 S
O221 C223 1.421 . S
C222 O210 1.381 . S
C222 O211 1.421 . S
C223 O220 1.381 . S
C223 O221 1.421 . S
Fe224 O225 1.886 1_454 S
Fe224 O228 1.715 . S
Fe224 O233 2.077 1_454 S
Fe224 O238 1.935 1_554 S
Fe224 O244 2.077 1_455 S
Fe224 O253 1.935 . S
O225 Fe224 1.886 1_656 S
O225 Fe227 1.715 . S
Fe226 O228 1.886 . S
Fe226 O229 1.715 . S
Fe226 O236 1.935 1_554 S
Fe226 O237 2.077 1_554 S
Fe226 O243 1.935 . S
Fe226 O252 2.077 . S
Fe227 O225 1.715 . S
Fe227 O230 1.886 . S
Fe227 O234 1.935 . S
Fe227 O239 2.077 . S
Fe227 O245 1.935 1_556 S
Fe227 O249 2.077 1_556 S
O228 Fe224 1.715 . S
O228 Fe226 1.886 . S
O229 Fe226 1.715 . S
O229 Fe231 1.886 1_454 S
O230 Fe227 1.886 . S
O230 Fe231 1.715 . S
Fe231 O229 1.886 1_656 S
Fe231 O230 1.715 . S
Fe231 O235 2.077 1_655 S
Fe231 O240 1.935 . S
Fe231 O242 2.077 1_656 S
Fe231 O250 1.935 1_556 S
C232 O244 1.381 . S
C232 O245 1.421 . S
O233 Fe224 2.077 1_656 S
O233 C246 1.381 . S
O234 Fe227 1.935 . S
O234 C246 1.421 . S
O235 Fe231 2.077 1_455 S
O235 C251 1.381 . S
O236 Fe226 1.935 1_556 S
O236 C251 1.421 . S
O237 Fe226 2.077 1_556 S
O237 C241 1.381 . S
O238 Fe224 1.935 1_556 S
O238 C241 1.421 . S
O239 Fe227 2.077 . S
O239 C247 1.381 . S
O240 Fe231 1.935 . S
O240 C247 1.421 . S
C241 O237 1.381 . S
C241 O238 1.421 . S
O242 Fe231 2.077 1_454 S
O242 C254 1.381 . S
O243 Fe226 1.935 . S
O243 C254 1.421 . S
O244 Fe224 2.077 1_655 S
O244 C232 1.381 . S
O245 Fe227 1.935 1_554 S
O245 C232 1.421 . S
C246 O233 1.381 . S
C246 O234 1.421 . S
C247 O239 1.381 . S
C247 O240 1.421 . S
C248 O249 1.381 . S
C248 O250 1.421 . S
O249 Fe227 2.077 1_554 S
O249 C248 1.381 . S
O250 Fe231 1.935 1_554 S
O250 C248 1.421 . S
C251 O235 1.381 . S
C251 O236 1.421 . S
O252 Fe226 2.077 . S
O252 C255 1.381 . S
O253 Fe224 1.935 . S
O253 C255 1.421 . S
C254 O242 1.381 . S
C254 O243 1.421 . S
C255 O252 1.381 . S
C255 O253 1.421 . S
Fe256 O257 1.886 . S
Fe256 O260 1.715 . S
Fe256 O265 2.077 . S
Fe256 O270 1.935 . S
Fe256 O276 2.077 . S
Fe256 O285 1.935 . S
O257 Fe256 1.886 . S
O257 Fe259 1.715 1_556 S
Fe258 O260 1.886 . S
Fe258 O261 1.715 1_556 S
Fe258 O268 1.935 1_556 S
Fe258 O269 2.077 . S
Fe258 O275 1.935 1_556 S
Fe258 O284 2.077 . S
Fe259 O257 1.715 1_554 S
Fe259 O262 1.886 . S
Fe259 O266 1.935 1_554 S
Fe259 O271 2.077 . S
Fe259 O277 1.935 1_554 S
Fe259 O281 2.077 . S
O260 Fe256 1.715 . S
O260 Fe258 1.886 . S
O261 Fe258 1.715 1_554 S
O261 Fe263 1.886 . S
O262 Fe259 1.886 . S
O262 Fe263 1.715 . S
Fe263 O261 1.886 . S
Fe263 O262 1.715 . S
Fe263 O267 2.077 . S
Fe263 O272 1.935 . S
Fe263 O274 2.077 . S
Fe263 O282 1.935 . S
C264 O276 1.381 . S
C264 O277 1.421 . S
O265 Fe256 2.077 . S
O265 C278 1.381 . S
O266 Fe259 1.935 1_556 S
O266 C278 1.421 . S
O267 Fe263 2.077 . S
O267 C283 1.381 . S
O268 Fe258 1.935 1_554 S
O268 C283 1.421 . S
O269 Fe258 2.077 . S
O269 C273 1.381 . S
O270 Fe256 1.935 . S
O270 C273 1.421 . S
O271 Fe259 2.077 . S
O271 C279 1.381 . S
O272 Fe263 1.935 . S
O272 C279 1.421 . S
C273 O269 1.381 . S
C273 O270 1.421 . S
O274 Fe263 2.077 . S
O274 C286 1.381 . S
O275 Fe258 1.935 1_554 S
O275 C286 1.421 . S
O276 Fe256 2.077 . S
O276 C264 1.381 . S
O277 Fe259 1.935 1_556 S
O277 C264 1.421 . S
C278 O265 1.381 . S
C278 O266 1.421 . S
C279 O271 1.381 . S
C279 O272 1.421 . S
C280 O281 1.381 . S
C280 O282 1.421 . S
O281 Fe259 2.077 . S
O281 C280 1.381 . S
O282 Fe263 1.935 . S
O282 C280 1.421 . S
C283 O267 1.381 . S
C283 O268 1.421 . S
O284 Fe258 2.077 . S
O284 C287 1.381 . S
O285 Fe256 1.935 . S
O285 C287 1.421 . S
C286 O274 1.381 . S
C286 O275 1.421 . S
C287 O284 1.381 . S
C287 O285 1.421 . S
Fe288 O289 1.885 1_655 S
Fe288 O292 1.715 . S
Fe288 O297 2.077 1_655 S
Fe288 O302 1.935 1_655 S
Fe288 O308 2.077 . S
Fe288 O317 1.935 . S
O289 Fe288 1.885 1_455 S
O289 Fe291 1.715 . S
Fe290 O292 1.886 . S
Fe290 O293 1.715 1_655 S
Fe290 O300 1.935 1_655 S
Fe290 O301 2.077 1_655 S
Fe290 O307 1.935 . S
Fe290 O316 2.077 . S
Fe291 O289 1.715 . S
Fe291 O294 1.886 . S
Fe291 O298 1.935 . S
Fe291 O303 2.077 . S
Fe291 O309 1.935 1_455 S
Fe291 O313 2.077 1_455 S
O292 Fe288 1.715 . S
O292 Fe290 1.886 . S
O293 Fe290 1.715 1_455 S
O293 Fe295 1.885 . S
O294 Fe291 1.886 . S
O294 Fe295 1.715 . S
Fe295 O293 1.885 . S
Fe295 O294 1.715 . S
Fe295 O299 2.077 . S
Fe295 O304 1.935 . S
Fe295 O306 2.077 1_455 S
Fe295 O314 1.935 1_455 S
C296 O308 1.381 . S
C296 O309 1.421 . S
O297 Fe288 2.077 1_455 S
O297 C310 1.381 . S
O298 Fe291 1.935 . S
O298 C310 1.421 . S
O299 Fe295 2.077 . S
O299 C315 1.381 . S
O300 Fe290 1.935 1_455 S
O300 C315 1.421 . S
O301 Fe290 2.077 1_455 S
O301 C305 1.381 . S
O302 Fe288 1.935 1_455 S
O302 C305 1.421 . S
O303 Fe291 2.077 . S
O303 C311 1.381 . S
O304 Fe295 1.935 . S
O304 C311 1.421 . S
C305 O301 1.381 . S
C305 O302 1.421 . S
O306 Fe295 2.077 1_655 S
O306 C318 1.381 . S
O307 Fe290 1.935 . S
O307 C318 1.421 . S
O308 Fe288 2.077 . S
O308 C296 1.381 . S
O309 Fe291 1.935 1_655 S
O309 C296 1.421 . S
C310 O297 1.381 . S
C310 O298 1.421 . S
C311 O303 1.381 . S
C311 O304 1.421 . S
C312 O313 1.381 . S
C312 O314 1.421 . S
O313 Fe291 2.077 1_655 S
O313 C312 1.381 . S
O314 Fe295 1.935 1_655 S
O314 C312 1.421 . S
C315 O299 1.381 . S
C315 O300 1.421 . S
O316 Fe290 2.077 . S
O316 C319 1.381 . S
O317 Fe288 1.935 . S
O317 C319 1.421 . S
C318 O306 1.381 . S
C318 O307 1.421 . S
C319 O316 1.381 . S
C319 O317 1.421 . S
Fe320 O321 1.886 . S
Fe320 O324 1.715 . S
Fe320 O329 2.077 . S
Fe320 O334 1.935 . S
Fe320 O340 2.077 . S
Fe320 O349 1.935 . S
O321 Fe320 1.886 . S
O321 Fe323 1.715 1_565 S
Fe322 O324 1.886 . S
Fe322 O325 1.715 1_565 S
Fe322 O332 1.935 1_565 S
Fe322 O333 2.077 . S
Fe322 O339 1.935 1_565 S
Fe322 O348 2.077 . S
Fe323 O321 1.715 1_545 S
Fe323 O326 1.886 . S
Fe323 O330 1.935 1_545 S
Fe323 O335 2.077 . S
Fe323 O341 1.935 1_545 S
Fe323 O345 2.077 . S
O324 Fe320 1.715 . S
O324 Fe322 1.886 . S
O325 Fe322 1.715 1_545 S
O325 Fe327 1.886 . S
O326 Fe323 1.886 . S
O326 Fe327 1.715 . S
Fe327 O325 1.886 . S
Fe327 O326 1.715 . S
Fe327 O331 2.077 . S
Fe327 O336 1.935 . S
Fe327 O338 2.077 . S
Fe327 O346 1.935 . S
C328 O340 1.381 . S
C328 O341 1.421 . S
O329 Fe320 2.077 . S
O329 C342 1.381 . S
O330 Fe323 1.935 1_565 S
O330 C342 1.421 . S
O331 Fe327 2.077 . S
O331 C347 1.381 . S
O332 Fe322 1.935 1_545 S
O332 C347 1.421 . S
O333 Fe322 2.077 . S
O333 C337 1.381 . S
O334 Fe320 1.935 . S
O334 C337 1.421 . S
O335 Fe323 2.077 . S
O335 C343 1.381 . S
O336 Fe327 1.935 . S
O336 C343 1.421 . S
C337 O333 1.381 . S
C337 O334 1.421 . S
O338 Fe327 2.077 . S
O338 C350 1.381 . S
O339 Fe322 1.935 1_545 S
O339 C350 1.421 . S
O340 Fe320 2.077 . S
O340 C328 1.381 . S
O341 Fe323 1.935 1_565 S
O341 C328 1.421 . S
C342 O329 1.381 . S
C342 O330 1.421 . S
C343 O335 1.381 . S
C343 O336 1.421 . S
C344 O345 1.381 . S
C344 O346 1.421 . S
O345 Fe323 2.077 . S
O345 C344 1.381 . S
O346 Fe327 1.935 . S
O346 C344 1.421 . S
C347 O331 1.381 . S
C347 O332 1.421 . S
O348 Fe322 2.077 . S
O348 C351 1.381 . S
O349 Fe320 1.935 . S
O349 C351 1.421 . S
C350 O338 1.381 . S
C350 O339 1.421 . S
C351 O348 1.381 . S
C351 O349 1.421 . S
H352 C360 0.950 . S
H353 C365 0.950 . S
H354 C362 0.950 . S
H355 C364 0.950 . S
H356 C366 0.950 . S
H357 C368 0.950 . S
H358 C370 0.950 . S
H359 C371 0.950 . S
C360 H352 0.950 . S
C360 C361 1.386 . S
C360 C362 1.391 . S
C361 C360 1.386 . S
C361 C365 1.393 . S
C362 H354 0.950 . S
C362 C360 1.391 . S
C362 C363 1.400 . S
C363 C362 1.400 . S
C363 C364 1.398 . S
C363 C369 1.491 . S
C364 H355 0.950 . S
C364 C363 1.398 . S
C364 C365 1.391 . S
C365 H353 0.950 . S
C365 C361 1.393 . S
C365 C364 1.391 . S
C366 H356 0.950 . S
C366 C367 1.386 . S
C366 C368 1.391 . S
C367 C366 1.386 . S
C367 C371 1.393 . S
C368 H357 0.950 . S
C368 C366 1.391 . S
C368 C369 1.400 . S
C369 C363 1.491 . S
C369 C368 1.400 . S
C369 C370 1.398 . S
C370 H358 0.950 . S
C370 C369 1.398 . S
C370 C371 1.391 . S
C371 H359 0.950 . S
C371 C367 1.393 . S
C371 C370 1.391 . S
H372 C380 0.950 . S
H373 C385 0.950 . S
H374 C382 0.950 . S
H375 C384 0.950 . S
H376 C386 0.950 . S
H377 C388 0.950 . S
H378 C390 0.950 . S
H379 C391 0.950 . S
C380 H372 0.950 . S
C380 C381 1.386 . S
C380 C382 1.391 . S
C381 C380 1.386 . S
C381 C385 1.393 . S
C382 H374 0.950 . S
C382 C380 1.391 . S
C382 C383 1.400 . S
C383 C382 1.400 . S
C383 C384 1.398 . S
C383 C389 1.491 . S
C384 H375 0.950 . S
C384 C383 1.398 . S
C384 C385 1.391 . S
C385 H373 0.950 . S
C385 C381 1.393 . S
C385 C384 1.391 . S
C386 H376 0.950 . S
C386 C387 1.386 . S
C386 C388 1.391 . S
C387 C386 1.386 . S
C387 C391 1.393 . S
C388 H377 0.950 . S
C388 C386 1.391 . S
C388 C389 1.400 . S
C389 C383 1.491 . S
C389 C388 1.400 . S
C389 C390 1.398 . S
C390 H378 0.950 . S
C390 C389 1.398 . S
C390 C391 1.391 . S
C391 H379 0.950 . S
C391 C387 1.393 . S
C391 C390 1.391 . S
H392 C400 0.950 . S
H393 C405 0.950 . S
H394 C402 0.950 . S
H395 C404 0.950 . S
H396 C406 0.950 . S
H397 C408 0.950 . S
H398 C410 0.950 . S
H399 C411 0.950 . S
C400 H392 0.950 . S
C400 C401 1.386 . S
C400 C402 1.391 . S
C401 C400 1.386 . S
C401 C405 1.393 . S
C402 H394 0.950 . S
C402 C400 1.391 . S
C402 C403 1.400 . S
C403 C402 1.400 . S
C403 C404 1.398 . S
C403 C409 1.491 . S
C404 H395 0.950 . S
C404 C403 1.398 . S
C404 C405 1.391 . S
C405 H393 0.950 . S
C405 C401 1.393 . S
C405 C404 1.391 . S
C406 H396 0.950 . S
C406 C407 1.386 . S
C406 C408 1.391 . S
C407 C406 1.386 . S
C407 C411 1.393 . S
C408 H397 0.950 . S
C408 C406 1.391 . S
C408 C409 1.400 . S
C409 C403 1.491 . S
C409 C408 1.400 . S
C409 C410 1.398 . S
C410 H398 0.950 . S
C410 C409 1.398 . S
C410 C411 1.391 . S
C411 H399 0.950 . S
C411 C407 1.393 . S
C411 C410 1.391 . S
H412 C420 0.950 . S
H413 C425 0.950 . S
H414 C422 0.950 . S
H415 C424 0.950 . S
H416 C426 0.950 . S
H417 C428 0.950 . S
H418 C430 0.950 . S
H419 C431 0.950 . S
C420 H412 0.950 . S
C420 C421 1.386 . S
C420 C422 1.391 . S
C421 C420 1.386 . S
C421 C425 1.393 . S
C422 H414 0.950 . S
C422 C420 1.391 . S
C422 C423 1.400 . S
C423 C422 1.400 . S
C423 C424 1.398 . S
C423 C429 1.491 . S
C424 H415 0.950 . S
C424 C423 1.398 . S
C424 C425 1.391 . S
C425 H413 0.950 . S
C425 C421 1.393 . S
C425 C424 1.391 . S
C426 H416 0.950 . S
C426 C427 1.386 . S
C426 C428 1.391 . S
C427 C426 1.386 . S
C427 C431 1.393 . S
C428 H417 0.950 . S
C428 C426 1.391 . S
C428 C429 1.400 . S
C429 C423 1.491 . S
C429 C428 1.400 . S
C429 C430 1.398 . S
C430 H418 0.950 . S
C430 C429 1.398 . S
C430 C431 1.391 . S
C431 H419 0.950 . S
C431 C427 1.393 . S
C431 C430 1.391 . S
H432 C440 0.950 . S
H433 C445 0.950 . S
H434 C442 0.950 . S
H435 C444 0.950 . S
H436 C446 0.950 . S
H437 C448 0.950 . S
H438 C450 0.950 . S
H439 C451 0.950 . S
C440 H432 0.950 . S
C440 C441 1.386 . S
C440 C442 1.391 . S
C441 C440 1.386 . S
C441 C445 1.393 . S
C442 H434 0.950 . S
C442 C440 1.391 . S
C442 C443 1.400 . S
C443 C442 1.400 . S
C443 C444 1.398 . S
C443 C449 1.491 . S
C444 H435 0.950 . S
C444 C443 1.398 . S
C444 C445 1.391 . S
C445 H433 0.950 . S
C445 C441 1.393 . S
C445 C444 1.391 . S
C446 H436 0.950 . S
C446 C447 1.386 . S
C446 C448 1.391 . S
C447 C446 1.386 . S
C447 C451 1.393 . S
C448 H437 0.950 . S
C448 C446 1.391 . S
C448 C449 1.400 . S
C449 C443 1.491 . S
C449 C448 1.400 . S
C449 C450 1.398 . S
C450 H438 0.950 . S
C450 C449 1.398 . S
C450 C451 1.391 . S
C451 H439 0.950 . S
C451 C447 1.393 . S
C451 C450 1.391 . S
H452 C460 0.950 . S
H453 C465 0.950 . S
H454 C462 0.950 . S
H455 C464 0.950 . S
H456 C466 0.950 . S
H457 C468 0.950 . S
H458 C470 0.950 . S
H459 C471 0.950 . S
C460 H452 0.950 . S
C460 C461 1.386 . S
C460 C462 1.391 . S
C461 C460 1.386 . S
C461 C465 1.393 . S
C462 H454 0.950 . S
C462 C460 1.391 . S
C462 C463 1.400 . S
C463 C462 1.400 . S
C463 C464 1.398 . S
C463 C469 1.491 . S
C464 H455 0.950 . S
C464 C463 1.398 . S
C464 C465 1.391 . S
C465 H453 0.950 . S
C465 C461 1.393 . S
C465 C464 1.391 . S
C466 H456 0.950 . S
C466 C467 1.386 . S
C466 C468 1.391 . S
C467 C466 1.386 . S
C467 C471 1.393 . S
C468 H457 0.950 . S
C468 C466 1.391 . S
C468 C469 1.400 . S
C469 C463 1.491 . S
C469 C468 1.400 . S
C469 C470 1.398 . S
C470 H458 0.950 . S
C470 C469 1.398 . S
C470 C471 1.391 . S
C471 H459 0.950 . S
C471 C467 1.393 . S
C471 C470 1.391 . S
H472 C480 0.950 . S
H473 C485 0.950 . S
H474 C482 0.950 . S
H475 C484 0.950 . S
H476 C486 0.950 . S
H477 C488 0.950 . S
H478 C490 0.950 . S
H479 C491 0.950 . S
C480 H472 0.950 . S
C480 C481 1.386 . S
C480 C482 1.391 . S
C481 C480 1.386 . S
C481 C485 1.393 . S
C482 H474 0.950 . S
C482 C480 1.391 . S
C482 C483 1.400 . S
C483 C482 1.400 . S
C483 C484 1.398 . S
C483 C489 1.491 . S
C484 H475 0.950 . S
C484 C483 1.398 . S
C484 C485 1.391 . S
C485 H473 0.950 . S
C485 C481 1.393 . S
C485 C484 1.391 . S
C486 H476 0.950 . S
C486 C487 1.386 . S
C486 C488 1.391 . S
C487 C486 1.386 . S
C487 C491 1.393 . S
C488 H477 0.950 . S
C488 C486 1.391 . S
C488 C489 1.400 . S
C489 C483 1.491 . S
C489 C488 1.400 . S
C489 C490 1.398 . S
C490 H478 0.950 . S
C490 C489 1.398 . S
C490 C491 1.391 . S
C491 H479 0.950 . S
C491 C487 1.393 . S
C491 C490 1.391 . S
H492 C500 0.950 . S
H493 C505 0.950 . S
H494 C502 0.950 . S
H495 C504 0.950 . S
H496 C506 0.950 . S
H497 C508 0.950 . S
H498 C510 0.950 . S
H499 C511 0.950 . S
C500 H492 0.950 . S
C500 C501 1.386 . S
C500 C502 1.391 . S
C501 C500 1.386 . S
C501 C505 1.393 . S
C502 H494 0.950 . S
C502 C500 1.391 . S
C502 C503 1.400 . S
C503 C502 1.400 . S
C503 C504 1.398 . S
C503 C509 1.491 . S
C504 H495 0.950 . S
C504 C503 1.398 . S
C504 C505 1.391 . S
C505 H493 0.950 . S
C505 C501 1.393 . S
C505 C504 1.391 . S
C506 H496 0.950 . S
C506 C507 1.386 . S
C506 C508 1.391 . S
C507 C506 1.386 . S
C507 C511 1.393 . S
C508 H497 0.950 . S
C508 C506 1.391 . S
C508 C509 1.400 . S
C509 C503 1.491 . S
C509 C508 1.400 . S
C509 C510 1.398 . S
C510 H498 0.950 . S
C510 C509 1.398 . S
C510 C511 1.391 . S
C511 H499 0.950 . S
C511 C507 1.393 . S
C511 C510 1.391 . S
H512 C520 0.950 . S
H513 C525 0.950 . S
H514 C522 0.950 . S
H515 C524 0.950 . S
H516 C526 0.950 . S
H517 C528 0.950 . S
H518 C530 0.950 . S
H519 C531 0.950 . S
C520 H512 0.950 . S
C520 C521 1.386 . S
C520 C522 1.391 . S
C521 C520 1.386 . S
C521 C525 1.393 . S
C522 H514 0.950 . S
C522 C520 1.391 . S
C522 C523 1.400 . S
C523 C522 1.400 . S
C523 C524 1.398 . S
C523 C529 1.491 . S
C524 H515 0.950 . S
C524 C523 1.398 . S
C524 C525 1.391 . S
C525 H513 0.950 . S
C525 C521 1.393 . S
C525 C524 1.391 . S
C526 H516 0.950 . S
C526 C527 1.386 . S
C526 C528 1.391 . S
C527 C526 1.386 . S
C527 C531 1.393 . S
C528 H517 0.950 . S
C528 C526 1.391 . S
C528 C529 1.400 . S
C529 C523 1.491 . S
C529 C528 1.400 . S
C529 C530 1.398 . S
C530 H518 0.950 . S
C530 C529 1.398 . S
C530 C531 1.391 . S
C531 H519 0.950 . S
C531 C527 1.393 . S
C531 C530 1.391 . S
H532 C540 0.950 . S
H533 C545 0.950 . S
H534 C542 0.950 . S
H535 C544 0.950 . S
H536 C546 0.950 . S
H537 C548 0.950 . S
H538 C550 0.950 . S
H539 C551 0.950 . S
C540 H532 0.950 . S
C540 C541 1.386 . S
C540 C542 1.391 . S
C541 C540 1.386 . S
C541 C545 1.393 . S
C542 H534 0.950 . S
C542 C540 1.391 . S
C542 C543 1.400 . S
C543 C542 1.400 . S
C543 C544 1.398 . S
C543 C549 1.491 . S
C544 H535 0.950 . S
C544 C543 1.398 . S
C544 C545 1.391 . S
C545 H533 0.950 . S
C545 C541 1.393 . S
C545 C544 1.391 . S
C546 H536 0.950 . S
C546 C547 1.386 . S
C546 C548 1.391 . S
C547 C546 1.386 . S
C547 C551 1.393 . S
C548 H537 0.950 . S
C548 C546 1.391 . S
C548 C549 1.400 . S
C549 C543 1.491 . S
C549 C548 1.400 . S
C549 C550 1.398 . S
C550 H538 0.950 . S
C550 C549 1.398 . S
C550 C551 1.391 . S
C551 H539 0.950 . S
C551 C547 1.393 . S
C551 C550 1.391 . S
H552 C560 0.950 . S
H553 C565 0.950 . S
H554 C562 0.950 . S
H555 C564 0.950 . S
H556 C566 0.950 . S
H557 C568 0.950 . S
H558 C570 0.950 . S
H559 C571 0.950 . S
C560 H552 0.950 . S
C560 C561 1.386 . S
C560 C562 1.391 . S
C561 C560 1.386 . S
C561 C565 1.393 . S
C562 H554 0.950 . S
C562 C560 1.391 . S
C562 C563 1.400 . S
C563 C562 1.400 . S
C563 C564 1.398 . S
C563 C569 1.491 . S
C564 H555 0.950 . S
C564 C563 1.398 . S
C564 C565 1.391 . S
C565 H553 0.950 . S
C565 C561 1.393 . S
C565 C564 1.391 . S
C566 H556 0.950 . S
C566 C567 1.386 . S
C566 C568 1.391 . S
C567 C566 1.386 . S
C567 C571 1.393 . S
C568 H557 0.950 . S
C568 C566 1.391 . S
C568 C569 1.400 . S
C569 C563 1.491 . S
C569 C568 1.400 . S
C569 C570 1.398 . S
C570 H558 0.950 . S
C570 C569 1.398 . S
C570 C571 1.391 . S
C571 H559 0.950 . S
C571 C567 1.393 . S
C571 C570 1.391 . S
H572 C580 0.950 . S
H573 C585 0.950 . S
H574 C582 0.950 . S
H575 C584 0.950 . S
H576 C586 0.950 . S
H577 C588 0.950 . S
H578 C590 0.950 . S
H579 C591 0.950 . S
C580 H572 0.950 . S
C580 C581 1.386 . S
C580 C582 1.391 . S
C581 C580 1.386 . S
C581 C585 1.393 . S
C582 H574 0.950 . S
C582 C580 1.391 . S
C582 C583 1.400 . S
C583 C582 1.400 . S
C583 C584 1.398 . S
C583 C589 1.491 . S
C584 H575 0.950 . S
C584 C583 1.398 . S
C584 C585 1.391 . S
C585 H573 0.950 . S
C585 C581 1.393 . S
C585 C584 1.391 . S
C586 H576 0.950 . S
C586 C587 1.386 . S
C586 C588 1.391 . S
C587 C586 1.386 . S
C587 C591 1.393 . S
C588 H577 0.950 . S
C588 C586 1.391 . S
C588 C589 1.400 . S
C589 C583 1.491 . S
C589 C588 1.400 . S
C589 C590 1.398 . S
C590 H578 0.950 . S
C590 C589 1.398 . S
C590 C591 1.391 . S
C591 H579 0.950 . S
C591 C587 1.393 . S
C591 C590 1.391 . S
H592 C600 0.950 . S
H593 C605 0.950 . S
H594 C602 0.950 . S
H595 C604 0.950 . S
H596 C606 0.950 . S
H597 C608 0.950 . S
H598 C610 0.950 . S
H599 C611 0.950 . S
C600 H592 0.950 . S
C600 C601 1.386 . S
C600 C602 1.391 . S
C601 C600 1.386 . S
C601 C605 1.393 . S
C602 H594 0.950 . S
C602 C600 1.391 . S
C602 C603 1.400 . S
C603 C602 1.400 . S
C603 C604 1.398 . S
C603 C609 1.491 . S
C604 H595 0.950 . S
C604 C603 1.398 . S
C604 C605 1.391 . S
C605 H593 0.950 . S
C605 C601 1.393 . S
C605 C604 1.391 . S
C606 H596 0.950 . S
C606 C607 1.386 . S
C606 C608 1.391 . S
C607 C606 1.386 . S
C607 C611 1.393 . S
C608 H597 0.950 . S
C608 C606 1.391 . S
C608 C609 1.400 . S
C609 C603 1.491 . S
C609 C608 1.400 . S
C609 C610 1.398 . S
C610 H598 0.950 . S
C610 C609 1.398 . S
C610 C611 1.391 . S
C611 H599 0.950 . S
C611 C607 1.393 . S
C611 C610 1.391 . S
H612 C620 0.950 . S
H613 C625 0.950 . S
H614 C622 0.950 . S
H615 C624 0.950 . S
H616 C626 0.950 . S
H617 C628 0.950 . S
H618 C630 0.950 . S
H619 C631 0.950 . S
C620 H612 0.950 . S
C620 C621 1.386 . S
C620 C622 1.391 . S
C621 C620 1.386 . S
C621 C625 1.393 . S
C622 H614 0.950 . S
C622 C620 1.391 . S
C622 C623 1.400 . S
C623 C622 1.400 . S
C623 C624 1.398 . S
C623 C629 1.491 . S
C624 H615 0.950 . S
C624 C623 1.398 . S
C624 C625 1.391 . S
C625 H613 0.950 . S
C625 C621 1.393 . S
C625 C624 1.391 . S
C626 H616 0.950 . S
C626 C627 1.386 . S
C626 C628 1.391 . S
C627 C626 1.386 . S
C627 C631 1.393 . S
C628 H617 0.950 . S
C628 C626 1.391 . S
C628 C629 1.400 . S
C629 C623 1.491 . S
C629 C628 1.400 . S
C629 C630 1.398 . S
C630 H618 0.950 . S
C630 C629 1.398 . S
C630 C631 1.391 . S
C631 H619 0.950 . S
C631 C627 1.393 . S
C631 C630 1.391 . S
H632 C640 0.950 . S
H633 C645 0.950 . S
H634 C642 0.950 . S
H635 C644 0.950 . S
H636 C646 0.950 . S
H637 C648 0.950 . S
H638 C650 0.950 . S
H639 C651 0.950 . S
C640 H632 0.950 . S
C640 C641 1.386 . S
C640 C642 1.391 . S
C641 C640 1.386 . S
C641 C645 1.393 . S
C642 H634 0.950 . S
C642 C640 1.391 . S
C642 C643 1.400 . S
C643 C642 1.400 . S
C643 C644 1.398 . S
C643 C649 1.491 . S
C644 H635 0.950 . S
C644 C643 1.398 . S
C644 C645 1.391 . S
C645 H633 0.950 . S
C645 C641 1.393 . S
C645 C644 1.391 . S
C646 H636 0.950 . S
C646 C647 1.386 . S
C646 C648 1.391 . S
C647 C646 1.386 . S
C647 C651 1.393 . S
C648 H637 0.950 . S
C648 C646 1.391 . S
C648 C649 1.400 . S
C649 C643 1.491 . S
C649 C648 1.400 . S
C649 C650 1.398 . S
C650 H638 0.950 . S
C650 C649 1.398 . S
C650 C651 1.391 . S
C651 H639 0.950 . S
C651 C647 1.393 . S
C651 C650 1.391 . S
H652 C660 0.950 . S
H653 C665 0.950 . S
H654 C662 0.950 . S
H655 C664 0.950 . S
H656 C666 0.950 . S
H657 C668 0.950 . S
H658 C670 0.950 . S
H659 C671 0.950 . S
C660 H652 0.950 . S
C660 C661 1.386 . S
C660 C662 1.391 . S
C661 C660 1.386 . S
C661 C665 1.393 . S
C662 H654 0.950 . S
C662 C660 1.391 . S
C662 C663 1.400 . S
C663 C662 1.400 . S
C663 C664 1.398 . S
C663 C669 1.491 . S
C664 H655 0.950 . S
C664 C663 1.398 . S
C664 C665 1.391 . S
C665 H653 0.950 . S
C665 C661 1.393 . S
C665 C664 1.391 . S
C666 H656 0.950 . S
C666 C667 1.386 . S
C666 C668 1.391 . S
C667 C666 1.386 . S
C667 C671 1.393 . S
C668 H657 0.950 . S
C668 C666 1.391 . S
C668 C669 1.400 . S
C669 C663 1.491 . S
C669 C668 1.400 . S
C669 C670 1.398 . S
C670 H658 0.950 . S
C670 C669 1.398 . S
C670 C671 1.391 . S
C671 H659 0.950 . S
C671 C667 1.393 . S
C671 C670 1.391 . S
H672 C680 0.950 . S
H673 C685 0.950 . S
H674 C682 0.950 . S
H675 C684 0.950 . S
H676 C686 0.950 . S
H677 C688 0.950 . S
H678 C690 0.950 . S
H679 C691 0.950 . S
C680 H672 0.950 . S
C680 C681 1.386 . S
C680 C682 1.391 . S
C681 C680 1.386 . S
C681 C685 1.393 . S
C682 H674 0.950 . S
C682 C680 1.391 . S
C682 C683 1.400 . S
C683 C682 1.400 . S
C683 C684 1.398 . S
C683 C689 1.491 . S
C684 H675 0.950 . S
C684 C683 1.398 . S
C684 C685 1.391 . S
C685 H673 0.950 . S
C685 C681 1.393 . S
C685 C684 1.391 . S
C686 H676 0.950 . S
C686 C687 1.386 . S
C686 C688 1.391 . S
C687 C686 1.386 . S
C687 C691 1.393 . S
C688 H677 0.950 . S
C688 C686 1.391 . S
C688 C689 1.400 . S
C689 C683 1.491 . S
C689 C688 1.400 . S
C689 C690 1.398 . S
C690 H678 0.950 . S
C690 C689 1.398 . S
C690 C691 1.391 . S
C691 H679 0.950 . S
C691 C687 1.393 . S
C691 C690 1.391 . S
H692 C700 0.950 . S
H693 C705 0.950 . S
H694 C702 0.950 . S
H695 C704 0.950 . S
H696 C706 0.950 . S
H697 C708 0.950 . S
H698 C710 0.950 . S
H699 C711 0.950 . S
C700 H692 0.950 . S
C700 C701 1.386 . S
C700 C702 1.391 . S
C701 C700 1.386 . S
C701 C705 1.393 . S
C702 H694 0.950 . S
C702 C700 1.391 . S
C702 C703 1.400 . S
C703 C702 1.400 . S
C703 C704 1.398 . S
C703 C709 1.491 . S
C704 H695 0.950 . S
C704 C703 1.398 . S
C704 C705 1.391 . S
C705 H693 0.950 . S
C705 C701 1.393 . S
C705 C704 1.391 . S
C706 H696 0.950 . S
C706 C707 1.386 . S
C706 C708 1.391 . S
C707 C706 1.386 . S
C707 C711 1.393 . S
C708 H697 0.950 . S
C708 C706 1.391 . S
C708 C709 1.400 . S
C709 C703 1.491 . S
C709 C708 1.400 . S
C709 C710 1.398 . S
C710 H698 0.950 . S
C710 C709 1.398 . S
C710 C711 1.391 . S
C711 H699 0.950 . S
C711 C707 1.393 . S
C711 C710 1.391 . S
H712 C720 0.950 . S
H713 C725 0.950 . S
H714 C722 0.950 . S
H715 C724 0.950 . S
H716 C726 0.950 . S
H717 C728 0.950 . S
H718 C730 0.950 . S
H719 C731 0.950 . S
C720 H712 0.950 . S
C720 C721 1.386 . S
C720 C722 1.391 . S
C721 C720 1.386 . S
C721 C725 1.393 . S
C722 H714 0.950 . S
C722 C720 1.391 . S
C722 C723 1.400 . S
C723 C722 1.400 . S
C723 C724 1.398 . S
C723 C729 1.491 . S
C724 H715 0.950 . S
C724 C723 1.398 . S
C724 C725 1.391 . S
C725 H713 0.950 . S
C725 C721 1.393 . S
C725 C724 1.391 . S
C726 H716 0.950 . S
C726 C727 1.386 . S
C726 C728 1.391 . S
C727 C726 1.386 . S
C727 C731 1.393 . S
C728 H717 0.950 . S
C728 C726 1.391 . S
C728 C729 1.400 . S
C729 C723 1.491 . S
C729 C728 1.400 . S
C729 C730 1.398 . S
C730 H718 0.950 . S
C730 C729 1.398 . S
C730 C731 1.391 . S
C731 H719 0.950 . S
C731 C727 1.393 . S
C731 C730 1.391 . S
H732 C740 0.950 . S
H733 C745 0.950 . S
H734 C742 0.950 . S
H735 C744 0.950 . S
H736 C746 0.950 . S
H737 C748 0.950 . S
H738 C750 0.950 . S
H739 C751 0.950 . S
C740 H732 0.950 . S
C740 C741 1.386 . S
C740 C742 1.391 . S
C741 C740 1.386 . S
C741 C745 1.393 . S
C742 H734 0.950 . S
C742 C740 1.391 . S
C742 C743 1.400 . S
C743 C742 1.400 . S
C743 C744 1.398 . S
C743 C749 1.491 . S
C744 H735 0.950 . S
C744 C743 1.398 . S
C744 C745 1.391 . S
C745 H733 0.950 . S
C745 C741 1.393 . S
C745 C744 1.391 . S
C746 H736 0.950 . S
C746 C747 1.386 . S
C746 C748 1.391 . S
C747 C746 1.386 . S
C747 C751 1.393 . S
C748 H737 0.950 . S
C748 C746 1.391 . S
C748 C749 1.400 . S
C749 C743 1.491 . S
C749 C748 1.400 . S
C749 C750 1.398 . S
C750 H738 0.950 . S
C750 C749 1.398 . S
C750 C751 1.391 . S
C751 H739 0.950 . S
C751 C747 1.393 . S
C751 C750 1.391 . S
H752 C760 0.950 . S
H753 C765 0.950 . S
H754 C762 0.950 . S
H755 C764 0.950 . S
H756 C766 0.950 . S
H757 C768 0.950 . S
H758 C770 0.950 . S
H759 C771 0.950 . S
C760 H752 0.950 . S
C760 C761 1.386 . S
C760 C762 1.391 . S
C761 C760 1.386 . S
C761 C765 1.393 . S
C762 H754 0.950 . S
C762 C760 1.391 . S
C762 C763 1.400 . S
C763 C762 1.400 . S
C763 C764 1.398 . S
C763 C769 1.491 . S
C764 H755 0.950 . S
C764 C763 1.398 . S
C764 C765 1.391 . S
C765 H753 0.950 . S
C765 C761 1.393 . S
C765 C764 1.391 . S
C766 H756 0.950 . S
C766 C767 1.386 . S
C766 C768 1.391 . S
C767 C766 1.386 . S
C767 C771 1.393 . S
C768 H757 0.950 . S
C768 C766 1.391 . S
C768 C769 1.400 . S
C769 C763 1.491 . S
C769 C768 1.400 . S
C769 C770 1.398 . S
C770 H758 0.950 . S
C770 C769 1.398 . S
C770 C771 1.391 . S
C771 H759 0.950 . S
C771 C767 1.393 . S
C771 C770 1.391 . S
H772 C780 0.950 . S
H773 C785 0.950 . S
H774 C782 0.950 . S
H775 C784 0.950 . S
H776 C786 0.950 . S
H777 C788 0.950 . S
H778 C790 0.950 . S
H779 C791 0.950 . S
C780 H772 0.950 . S
C780 C781 1.386 . S
C780 C782 1.391 . S
C781 C780 1.386 . S
C781 C785 1.393 . S
C782 H774 0.950 . S
C782 C780 1.391 . S
C782 C783 1.400 . S
C783 C782 1.400 . S
C783 C784 1.398 . S
C783 C789 1.491 . S
C784 H775 0.950 . S
C784 C783 1.398 . S
C784 C785 1.391 . S
C785 H773 0.950 . S
C785 C781 1.393 . S
C785 C784 1.391 . S
C786 H776 0.950 . S
C786 C787 1.386 . S
C786 C788 1.391 . S
C787 C786 1.386 . S
C787 C791 1.393 . S
C788 H777 0.950 . S
C788 C786 1.391 . S
C788 C789 1.400 . S
C789 C783 1.491 . S
C789 C788 1.400 . S
C789 C790 1.398 . S
C790 H778 0.950 . S
C790 C789 1.398 . S
C790 C791 1.391 . S
C791 H779 0.950 . S
C791 C787 1.393 . S
C791 C790 1.391 . S
H792 C800 0.950 . S
H793 C805 0.950 . S
H794 C802 0.950 . S
H795 C804 0.950 . S
H796 C806 0.950 . S
H797 C808 0.950 . S
H798 C810 0.950 . S
H799 C811 0.950 . S
C800 H792 0.950 . S
C800 C801 1.386 . S
C800 C802 1.391 . S
C801 C800 1.386 . S
C801 C805 1.393 . S
C802 H794 0.950 . S
C802 C800 1.391 . S
C802 C803 1.400 . S
C803 C802 1.400 . S
C803 C804 1.398 . S
C803 C809 1.491 . S
C804 H795 0.950 . S
C804 C803 1.398 . S
C804 C805 1.391 . S
C805 H793 0.950 . S
C805 C801 1.393 . S
C805 C804 1.391 . S
C806 H796 0.950 . S
C806 C807 1.386 . S
C806 C808 1.391 . S
C807 C806 1.386 . S
C807 C811 1.393 . S
C808 H797 0.950 . S
C808 C806 1.391 . S
C808 C809 1.400 . S
C809 C803 1.491 . S
C809 C808 1.400 . S
C809 C810 1.398 . S
C810 H798 0.950 . S
C810 C809 1.398 . S
C810 C811 1.391 . S
C811 H799 0.950 . S
C811 C807 1.393 . S
C811 C810 1.391 . S
H812 C820 0.950 . S
H813 C825 0.950 . S
H814 C822 0.950 . S
H815 C824 0.950 . S
H816 C826 0.950 . S
H817 C828 0.950 . S
H818 C830 0.950 . S
H819 C831 0.950 . S
C820 H812 0.950 . S
C820 C821 1.386 . S
C820 C822 1.391 . S
C821 C820 1.386 . S
C821 C825 1.393 . S
C822 H814 0.950 . S
C822 C820 1.391 . S
C822 C823 1.400 . S
C823 C822 1.400 . S
C823 C824 1.398 . S
C823 C829 1.491 . S
C824 H815 0.950 . S
C824 C823 1.398 . S
C824 C825 1.391 . S
C825 H813 0.950 . S
C825 C821 1.393 . S
C825 C824 1.391 . S
C826 H816 0.950 . S
C826 C827 1.386 . S
C826 C828 1.391 . S
C827 C826 1.386 . S
C827 C831 1.393 . S
C828 H817 0.950 . S
C828 C826 1.391 . S
C828 C829 1.400 . S
C829 C823 1.491 . S
C829 C828 1.400 . S
C829 C830 1.398 . S
C830 H818 0.950 . S
C830 C829 1.398 . S
C830 C831 1.391 . S
C831 H819 0.950 . S
C831 C827 1.393 . S
C831 C830 1.391 . S
H832 C840 0.950 . S
H833 C845 0.950 . S
H834 C842 0.950 . S
H835 C844 0.950 . S
H836 C846 0.950 . S
H837 C848 0.950 . S
H838 C850 0.950 . S
H839 C851 0.950 . S
C840 H832 0.950 . S
C840 C841 1.386 . S
C840 C842 1.391 . S
C841 C840 1.386 . S
C841 C845 1.393 . S
C842 H834 0.950 . S
C842 C840 1.391 . S
C842 C843 1.400 . S
C843 C842 1.400 . S
C843 C844 1.398 . S
C843 C849 1.491 . S
C844 H835 0.950 . S
C844 C843 1.398 . S
C844 C845 1.391 . S
C845 H833 0.950 . S
C845 C841 1.393 . S
C845 C844 1.391 . S
C846 H836 0.950 . S
C846 C847 1.386 . S
C846 C848 1.391 . S
C847 C846 1.386 . S
C847 C851 1.393 . S
C848 H837 0.950 . S
C848 C846 1.391 . S
C848 C849 1.400 . S
C849 C843 1.491 . S
C849 C848 1.400 . S
C849 C850 1.398 . S
C850 H838 0.950 . S
C850 C849 1.398 . S
C850 C851 1.391 . S
C851 H839 0.950 . S
C851 C847 1.393 . S
C851 C850 1.391 . S
H852 C860 0.950 . S
H853 C865 0.950 . S
H854 C862 0.950 . S
H855 C864 0.950 . S
H856 C866 0.950 . S
H857 C868 0.950 . S
H858 C870 0.950 . S
H859 C871 0.950 . S
C860 H852 0.950 . S
C860 C861 1.386 . S
C860 C862 1.391 . S
C861 C860 1.386 . S
C861 C865 1.393 . S
C862 H854 0.950 . S
C862 C860 1.391 . S
C862 C863 1.400 . S
C863 C862 1.400 . S
C863 C864 1.398 . S
C863 C869 1.491 . S
C864 H855 0.950 . S
C864 C863 1.398 . S
C864 C865 1.391 . S
C865 H853 0.950 . S
C865 C861 1.393 . S
C865 C864 1.391 . S
C866 H856 0.950 . S
C866 C867 1.386 . S
C866 C868 1.391 . S
C867 C866 1.386 . S
C867 C871 1.393 . S
C868 H857 0.950 . S
C868 C866 1.391 . S
C868 C869 1.400 . S
C869 C863 1.491 . S
C869 C868 1.400 . S
C869 C870 1.398 . S
C870 H858 0.950 . S
C870 C869 1.398 . S
C870 C871 1.391 . S
C871 H859 0.950 . S
C871 C867 1.393 . S
C871 C870 1.391 . S
H872 C880 0.950 . S
H873 C885 0.950 . S
H874 C882 0.950 . S
H875 C884 0.950 . S
H876 C886 0.950 . S
H877 C888 0.950 . S
H878 C890 0.950 . S
H879 C891 0.950 . S
C880 H872 0.950 . S
C880 C881 1.386 . S
C880 C882 1.391 . S
C881 C880 1.386 . S
C881 C885 1.393 . S
C882 H874 0.950 . S
C882 C880 1.391 . S
C882 C883 1.400 . S
C883 C882 1.400 . S
C883 C884 1.398 . S
C883 C889 1.491 . S
C884 H875 0.950 . S
C884 C883 1.398 . S
C884 C885 1.391 . S
C885 H873 0.950 . S
C885 C881 1.393 . S
C885 C884 1.391 . S
C886 H876 0.950 . S
C886 C887 1.386 . S
C886 C888 1.391 . S
C887 C886 1.386 . S
C887 C891 1.393 . S
C888 H877 0.950 . S
C888 C886 1.391 . S
C888 C889 1.400 . S
C889 C883 1.491 . S
C889 C888 1.400 . S
C889 C890 1.398 . S
C890 H878 0.950 . S
C890 C889 1.398 . S
C890 C891 1.391 . S
C891 H879 0.950 . S
C891 C887 1.393 . S
C891 C890 1.391 . S
H892 C900 0.950 . S
H893 C905 0.950 . S
H894 C902 0.950 . S
H895 C904 0.950 . S
H896 C906 0.950 . S
H897 C908 0.950 . S
H898 C910 0.950 . S
H899 C911 0.950 . S
C900 H892 0.950 . S
C900 C901 1.386 . S
C900 C902 1.391 . S
C901 C900 1.386 . S
C901 C905 1.393 . S
C902 H894 0.950 . S
C902 C900 1.391 . S
C902 C903 1.400 . S
C903 C902 1.400 . S
C903 C904 1.398 . S
C903 C909 1.491 . S
C904 H895 0.950 . S
C904 C903 1.398 . S
C904 C905 1.391 . S
C905 H893 0.950 . S
C905 C901 1.393 . S
C905 C904 1.391 . S
C906 H896 0.950 . S
C906 C907 1.386 . S
C906 C908 1.391 . S
C907 C906 1.386 . S
C907 C911 1.393 . S
C908 H897 0.950 . S
C908 C906 1.391 . S
C908 C909 1.400 . S
C909 C903 1.491 . S
C909 C908 1.400 . S
C909 C910 1.398 . S
C910 H898 0.950 . S
C910 C909 1.398 . S
C910 C911 1.391 . S
C911 H899 0.950 . S
C911 C907 1.393 . S
C911 C910 1.391 . S
H912 C920 0.950 . S
H913 C925 0.950 . S
H914 C922 0.950 . S
H915 C924 0.950 . S
H916 C926 0.950 . S
H917 C928 0.950 . S
H918 C930 0.950 . S
H919 C931 0.950 . S
C920 H912 0.950 . S
C920 C921 1.386 . S
C920 C922 1.391 . S
C921 C920 1.386 . S
C921 C925 1.393 . S
C922 H914 0.950 . S
C922 C920 1.391 . S
C922 C923 1.400 . S
C923 C922 1.400 . S
C923 C924 1.398 . S
C923 C929 1.491 . S
C924 H915 0.950 . S
C924 C923 1.398 . S
C924 C925 1.391 . S
C925 H913 0.950 . S
C925 C921 1.393 . S
C925 C924 1.391 . S
C926 H916 0.950 . S
C926 C927 1.386 . S
C926 C928 1.391 . S
C927 C926 1.386 . S
C927 C931 1.393 . S
C928 H917 0.950 . S
C928 C926 1.391 . S
C928 C929 1.400 . S
C929 C923 1.491 . S
C929 C928 1.400 . S
C929 C930 1.398 . S
C930 H918 0.950 . S
C930 C929 1.398 . S
C930 C931 1.391 . S
C931 H919 0.950 . S
C931 C927 1.393 . S
C931 C930 1.391 . S
H932 C940 0.950 . S
H933 C945 0.950 . S
H934 C942 0.950 . S
H935 C944 0.950 . S
H936 C946 0.950 . S
H937 C948 0.950 . S
H938 C950 0.950 . S
H939 C951 0.950 . S
C940 H932 0.950 . S
C940 C941 1.386 . S
C940 C942 1.391 . S
C941 C940 1.386 . S
C941 C945 1.393 . S
C942 H934 0.950 . S
C942 C940 1.391 . S
C942 C943 1.400 . S
C943 C942 1.400 . S
C943 C944 1.398 . S
C943 C949 1.491 . S
C944 H935 0.950 . S
C944 C943 1.398 . S
C944 C945 1.391 . S
C945 H933 0.950 . S
C945 C941 1.393 . S
C945 C944 1.391 . S
C946 H936 0.950 . S
C946 C947 1.386 . S
C946 C948 1.391 . S
C947 C946 1.386 . S
C947 C951 1.393 . S
C948 H937 0.950 . S
C948 C946 1.391 . S
C948 C949 1.400 . S
C949 C943 1.491 . S
C949 C948 1.400 . S
C949 C950 1.398 . S
C950 H938 0.950 . S
C950 C949 1.398 . S
C950 C951 1.391 . S
C951 H939 0.950 . S
C951 C947 1.393 . S
C951 C950 1.391 . S
H952 C960 0.950 . S
H953 C965 0.950 . S
H954 C962 0.950 . S
H955 C964 0.950 . S
H956 C966 0.950 . S
H957 C968 0.950 . S
H958 C970 0.950 . S
H959 C971 0.950 . S
C960 H952 0.950 . S
C960 C961 1.386 . S
C960 C962 1.391 . S
C961 C960 1.386 . S
C961 C965 1.393 . S
C962 H954 0.950 . S
C962 C960 1.391 . S
C962 C963 1.400 . S
C963 C962 1.400 . S
C963 C964 1.398 . S
C963 C969 1.491 . S
C964 H955 0.950 . S
C964 C963 1.398 . S
C964 C965 1.391 . S
C965 H953 0.950 . S
C965 C961 1.393 . S
C965 C964 1.391 . S
C966 H956 0.950 . S
C966 C967 1.386 . S
C966 C968 1.391 . S
C967 C966 1.386 . S
C967 C971 1.393 . S
C968 H957 0.950 . S
C968 C966 1.391 . S
C968 C969 1.400 . S
C969 C963 1.491 . S
C969 C968 1.400 . S
C969 C970 1.398 . S
C970 H958 0.950 . S
C970 C969 1.398 . S
C970 C971 1.391 . S
C971 H959 0.950 . S
C971 C967 1.393 . S
C971 C970 1.391 . S
H972 C980 0.950 . S
H973 C985 0.950 . S
H974 C982 0.950 . S
H975 C984 0.950 . S
H976 C986 0.950 . S
H977 C988 0.950 . S
H978 C990 0.950 . S
H979 C991 0.950 . S
C980 H972 0.950 . S
C980 C981 1.386 . S
C980 C982 1.391 . S
C981 C980 1.386 . S
C981 C985 1.393 . S
C982 H974 0.950 . S
C982 C980 1.391 . S
C982 C983 1.400 . S
C983 C982 1.400 . S
C983 C984 1.398 . S
C983 C989 1.491 . S
C984 H975 0.950 . S
C984 C983 1.398 . S
C984 C985 1.391 . S
C985 H973 0.950 . S
C985 C981 1.393 . S
C985 C984 1.391 . S
C986 H976 0.950 . S
C986 C987 1.386 . S
C986 C988 1.391 . S
C987 C986 1.386 . S
C987 C991 1.393 . S
C988 H977 0.950 . S
C988 C986 1.391 . S
C988 C989 1.400 . S
C989 C983 1.491 . S
C989 C988 1.400 . S
C989 C990 1.398 . S
C990 H978 0.950 . S
C990 C989 1.398 . S
C990 C991 1.391 . S
C991 H979 0.950 . S
C991 C987 1.393 . S
C991 C990 1.391 . S
H992 C1000 0.950 . S
H993 C1005 0.950 . S
H994 C1002 0.950 . S
H995 C1004 0.950 . S
H996 C1006 0.950 . S
H997 C1008 0.950 . S
H998 C1010 0.950 . S
H999 C1011 0.950 . S
C1000 H992 0.950 . S
C1000 C1001 1.386 . S
C1000 C1002 1.391 . S
C1001 C1000 1.386 . S
C1001 C1005 1.393 . S
C1002 H994 0.950 . S
C1002 C1000 1.391 . S
C1002 C1003 1.400 . S
C1003 C1002 1.400 . S
C1003 C1004 1.398 . S
C1003 C1009 1.491 . S
C1004 H995 0.950 . S
C1004 C1003 1.398 . S
C1004 C1005 1.391 . S
C1005 H993 0.950 . S
C1005 C1001 1.393 . S
C1005 C1004 1.391 . S
C1006 H996 0.950 . S
C1006 C1007 1.386 . S
C1006 C1008 1.391 . S
C1007 C1006 1.386 . S
C1007 C1011 1.393 . S
C1008 H997 0.950 . S
C1008 C1006 1.391 . S
C1008 C1009 1.400 . S
C1009 C1003 1.491 . S
C1009 C1008 1.400 . S
C1009 C1010 1.398 . S
C1010 H998 0.950 . S
C1010 C1009 1.398 . S
C1010 C1011 1.391 . S
C1011 H999 0.950 . S
C1011 C1007 1.393 . S
C1011 C1010 1.391 . S
H1012 C1020 0.950 . S
H1013 C1025 0.950 . S
H1014 C1022 0.950 . S
H1015 C1024 0.950 . S
H1016 C1026 0.950 . S
H1017 C1028 0.950 . S
H1018 C1030 0.950 . S
H1019 C1031 0.950 . S
C1020 H1012 0.950 . S
C1020 C1021 1.386 . S
C1020 C1022 1.391 . S
C1021 C1020 1.386 . S
C1021 C1025 1.393 . S
C1022 H1014 0.950 . S
C1022 C1020 1.391 . S
C1022 C1023 1.400 . S
C1023 C1022 1.400 . S
C1023 C1024 1.398 . S
C1023 C1029 1.491 . S
C1024 H1015 0.950 . S
C1024 C1023 1.398 . S
C1024 C1025 1.391 . S
C1025 H1013 0.950 . S
C1025 C1021 1.393 . S
C1025 C1024 1.391 . S
C1026 H1016 0.950 . S
C1026 C1027 1.386 . S
C1026 C1028 1.391 . S
C1027 C1026 1.386 . S
C1027 C1031 1.393 . S
C1028 H1017 0.950 . S
C1028 C1026 1.391 . S
C1028 C1029 1.400 . S
C1029 C1023 1.491 . S
C1029 C1028 1.400 . S
C1029 C1030 1.398 . S
C1030 H1018 0.950 . S
C1030 C1029 1.398 . S
C1030 C1031 1.391 . S
C1031 H1019 0.950 . S
C1031 C1027 1.393 . S
C1031 C1030 1.391 . S
H1032 C1040 0.950 . S
H1033 C1045 0.950 . S
H1034 C1042 0.950 . S
H1035 C1044 0.950 . S
H1036 C1046 0.950 . S
H1037 C1048 0.950 . S
H1038 C1050 0.950 . S
H1039 C1051 0.950 . S
C1040 H1032 0.950 . S
C1040 C1041 1.386 . S
C1040 C1042 1.391 . S
C1041 C1040 1.386 . S
C1041 C1045 1.393 . S
C1042 H1034 0.950 . S
C1042 C1040 1.391 . S
C1042 C1043 1.400 . S
C1043 C1042 1.400 . S
C1043 C1044 1.398 . S
C1043 C1049 1.491 . S
C1044 H1035 0.950 . S
C1044 C1043 1.398 . S
C1044 C1045 1.391 . S
C1045 H1033 0.950 . S
C1045 C1041 1.393 . S
C1045 C1044 1.391 . S
C1046 H1036 0.950 . S
C1046 C1047 1.386 . S
C1046 C1048 1.391 . S
C1047 C1046 1.386 . S
C1047 C1051 1.393 . S
C1048 H1037 0.950 . S
C1048 C1046 1.391 . S
C1048 C1049 1.400 . S
C1049 C1043 1.491 . S
C1049 C1048 1.400 . S
C1049 C1050 1.398 . S
C1050 H1038 0.950 . S
C1050 C1049 1.398 . S
C1050 C1051 1.391 . S
C1051 H1039 0.950 . S
C1051 C1047 1.393 . S
C1051 C1050 1.391 . S
H1052 C1060 0.950 . S
H1053 C1065 0.950 . S
H1054 C1062 0.950 . S
H1055 C1064 0.950 . S
H1056 C1066 0.950 . S
H1057 C1068 0.950 . S
H1058 C1070 0.950 . S
H1059 C1071 0.950 . S
C1060 H1052 0.950 . S
C1060 C1061 1.386 . S
C1060 C1062 1.391 . S
C1061 C1060 1.386 . S
C1061 C1065 1.393 . S
C1062 H1054 0.950 . S
C1062 C1060 1.391 . S
C1062 C1063 1.400 . S
C1063 C1062 1.400 . S
C1063 C1064 1.398 . S
C1063 C1069 1.491 . S
C1064 H1055 0.950 . S
C1064 C1063 1.398 . S
C1064 C1065 1.391 . S
C1065 H1053 0.950 . S
C1065 C1061 1.393 . S
C1065 C1064 1.391 . S
C1066 H1056 0.950 . S
C1066 C1067 1.386 . S
C1066 C1068 1.391 . S
C1067 C1066 1.386 . S
C1067 C1071 1.393 . S
C1068 H1057 0.950 . S
C1068 C1066 1.391 . S
C1068 C1069 1.400 . S
C1069 C1063 1.491 . S
C1069 C1068 1.400 . S
C1069 C1070 1.398 . S
C1070 H1058 0.950 . S
C1070 C1069 1.398 . S
C1070 C1071 1.391 . S
C1071 H1059 0.950 . S
C1071 C1067 1.393 . S
C1071 C1070 1.391 . S
H1072 C1080 0.950 . S
H1073 C1085 0.950 . S
H1074 C1082 0.950 . S
H1075 C1084 0.950 . S
H1076 C1086 0.950 . S
H1077 C1088 0.950 . S
H1078 C1090 0.950 . S
H1079 C1091 0.950 . S
C1080 H1072 0.950 . S
C1080 C1081 1.386 . S
C1080 C1082 1.391 . S
C1081 C1080 1.386 . S
C1081 C1085 1.393 . S
C1082 H1074 0.950 . S
C1082 C1080 1.391 . S
C1082 C1083 1.400 . S
C1083 C1082 1.400 . S
C1083 C1084 1.398 . S
C1083 C1089 1.491 . S
C1084 H1075 0.950 . S
C1084 C1083 1.398 . S
C1084 C1085 1.391 . S
C1085 H1073 0.950 . S
C1085 C1081 1.393 . S
C1085 C1084 1.391 . S
C1086 H1076 0.950 . S
C1086 C1087 1.386 . S
C1086 C1088 1.391 . S
C1087 C1086 1.386 . S
C1087 C1091 1.393 . S
C1088 H1077 0.950 . S
C1088 C1086 1.391 . S
C1088 C1089 1.400 . S
C1089 C1083 1.491 . S
C1089 C1088 1.400 . S
C1089 C1090 1.398 . S
C1090 H1078 0.950 . S
C1090 C1089 1.398 . S
C1090 C1091 1.391 . S
C1091 H1079 0.950 . S
C1091 C1087 1.393 . S
C1091 C1090 1.391 . S
H1092 C1100 0.950 . S
H1093 C1105 0.950 . S
H1094 C1102 0.950 . S
H1095 C1104 0.950 . S
H1096 C1106 0.950 . S
H1097 C1108 0.950 . S
H1098 C1110 0.950 . S
H1099 C1111 0.950 . S
C1100 H1092 0.950 . S
C1100 C1101 1.386 . S
C1100 C1102 1.391 . S
C1101 C1100 1.386 . S
C1101 C1105 1.393 . S
C1102 H1094 0.950 . S
C1102 C1100 1.391 . S
C1102 C1103 1.400 . S
C1103 C1102 1.400 . S
C1103 C1104 1.398 . S
C1103 C1109 1.491 . S
C1104 H1095 0.950 . S
C1104 C1103 1.398 . S
C1104 C1105 1.391 . S
C1105 H1093 0.950 . S
C1105 C1101 1.393 . S
C1105 C1104 1.391 . S
C1106 H1096 0.950 . S
C1106 C1107 1.386 . S
C1106 C1108 1.391 . S
C1107 C1106 1.386 . S
C1107 C1111 1.393 . S
C1108 H1097 0.950 . S
C1108 C1106 1.391 . S
C1108 C1109 1.400 . S
C1109 C1103 1.491 . S
C1109 C1108 1.400 . S
C1109 C1110 1.398 . S
C1110 H1098 0.950 . S
C1110 C1109 1.398 . S
C1110 C1111 1.391 . S
C1111 H1099 0.950 . S
C1111 C1107 1.393 . S
C1111 C1110 1.391 . S
H1112 C1120 0.950 . S
H1113 C1125 0.950 . S
H1114 C1122 0.950 . S
H1115 C1124 0.950 . S
H1116 C1126 0.950 . S
H1117 C1128 0.950 . S
H1118 C1130 0.950 . S
H1119 C1131 0.950 . S
C1120 H1112 0.950 . S
C1120 C1121 1.386 . S
C1120 C1122 1.391 . S
C1121 C1120 1.386 . S
C1121 C1125 1.393 . S
C1122 H1114 0.950 . S
C1122 C1120 1.391 . S
C1122 C1123 1.400 . S
C1123 C1122 1.400 . S
C1123 C1124 1.398 . S
C1123 C1129 1.491 . S
C1124 H1115 0.950 . S
C1124 C1123 1.398 . S
C1124 C1125 1.391 . S
C1125 H1113 0.950 . S
C1125 C1121 1.393 . S
C1125 C1124 1.391 . S
C1126 H1116 0.950 . S
C1126 C1127 1.386 . S
C1126 C1128 1.391 . S
C1127 C1126 1.386 . S
C1127 C1131 1.393 . S
C1128 H1117 0.950 . S
C1128 C1126 1.391 . S
C1128 C1129 1.400 . S
C1129 C1123 1.491 . S
C1129 C1128 1.400 . S
C1129 C1130 1.398 . S
C1130 H1118 0.950 . S
C1130 C1129 1.398 . S
C1130 C1131 1.391 . S
C1131 H1119 0.950 . S
C1131 C1127 1.393 . S
C1131 C1130 1.391 . S
H1132 C1140 0.950 . S
H1133 C1145 0.950 . S
H1134 C1142 0.950 . S
H1135 C1144 0.950 . S
H1136 C1146 0.950 . S
H1137 C1148 0.950 . S
H1138 C1150 0.950 . S
H1139 C1151 0.950 . S
C1140 H1132 0.950 . S
C1140 C1141 1.386 . S
C1140 C1142 1.391 . S
C1141 C1140 1.386 . S
C1141 C1145 1.393 . S
C1142 H1134 0.950 . S
C1142 C1140 1.391 . S
C1142 C1143 1.400 . S
C1143 C1142 1.400 . S
C1143 C1144 1.398 . S
C1143 C1149 1.491 . S
C1144 H1135 0.950 . S
C1144 C1143 1.398 . S
C1144 C1145 1.391 . S
C1145 H1133 0.950 . S
C1145 C1141 1.393 . S
C1145 C1144 1.391 . S
C1146 H1136 0.950 . S
C1146 C1147 1.386 . S
C1146 C1148 1.391 . S
C1147 C1146 1.386 . S
C1147 C1151 1.393 . S
C1148 H1137 0.950 . S
C1148 C1146 1.391 . S
C1148 C1149 1.400 . S
C1149 C1143 1.491 . S
C1149 C1148 1.400 . S
C1149 C1150 1.398 . S
C1150 H1138 0.950 . S
C1150 C1149 1.398 . S
C1150 C1151 1.391 . S
C1151 H1139 0.950 . S
C1151 C1147 1.393 . S
C1151 C1150 1.391 . S
H1152 C1160 0.950 . S
H1153 C1165 0.950 . S
H1154 C1162 0.950 . S
H1155 C1164 0.950 . S
H1156 C1166 0.950 . S
H1157 C1168 0.950 . S
H1158 C1170 0.950 . S
H1159 C1171 0.950 . S
C1160 H1152 0.950 . S
C1160 C1161 1.386 . S
C1160 C1162 1.391 . S
C1161 C1160 1.386 . S
C1161 C1165 1.393 . S
C1162 H1154 0.950 . S
C1162 C1160 1.391 . S
C1162 C1163 1.400 . S
C1163 C1162 1.400 . S
C1163 C1164 1.398 . S
C1163 C1169 1.491 . S
C1164 H1155 0.950 . S
C1164 C1163 1.398 . S
C1164 C1165 1.391 . S
C1165 H1153 0.950 . S
C1165 C1161 1.393 . S
C1165 C1164 1.391 . S
C1166 H1156 0.950 . S
C1166 C1167 1.386 . S
C1166 C1168 1.391 . S
C1167 C1166 1.386 . S
C1167 C1171 1.393 . S
C1168 H1157 0.950 . S
C1168 C1166 1.391 . S
C1168 C1169 1.400 . S
C1169 C1163 1.491 . S
C1169 C1168 1.400 . S
C1169 C1170 1.398 . S
C1170 H1158 0.950 . S
C1170 C1169 1.398 . S
C1170 C1171 1.391 . S
C1171 H1159 0.950 . S
C1171 C1167 1.393 . S
C1171 C1170 1.391 . S
H1172 C1180 0.950 . S
H1173 C1185 0.950 . S
H1174 C1182 0.950 . S
H1175 C1184 0.950 . S
H1176 C1186 0.950 . S
H1177 C1188 0.950 . S
H1178 C1190 0.950 . S
H1179 C1191 0.950 . S
C1180 H1172 0.950 . S
C1180 C1181 1.386 . S
C1180 C1182 1.391 . S
C1181 C1180 1.386 . S
C1181 C1185 1.393 . S
C1182 H1174 0.950 . S
C1182 C1180 1.391 . S
C1182 C1183 1.400 . S
C1183 C1182 1.400 . S
C1183 C1184 1.398 . S
C1183 C1189 1.491 . S
C1184 H1175 0.950 . S
C1184 C1183 1.398 . S
C1184 C1185 1.391 . S
C1185 H1173 0.950 . S
C1185 C1181 1.393 . S
C1185 C1184 1.391 . S
C1186 H1176 0.950 . S
C1186 C1187 1.386 . S
C1186 C1188 1.391 . S
C1187 C1186 1.386 . S
C1187 C1191 1.393 . S
C1188 H1177 0.950 . S
C1188 C1186 1.391 . S
C1188 C1189 1.400 . S
C1189 C1183 1.491 . S
C1189 C1188 1.400 . S
C1189 C1190 1.398 . S
C1190 H1178 0.950 . S
C1190 C1189 1.398 . S
C1190 C1191 1.391 . S
C1191 H1179 0.950 . S
C1191 C1187 1.393 . S
C1191 C1190 1.391 . S
H1192 C1200 0.950 . S
H1193 C1205 0.950 . S
H1194 C1202 0.950 . S
H1195 C1204 0.950 . S
H1196 C1206 0.950 . S
H1197 C1208 0.950 . S
H1198 C1210 0.950 . S
H1199 C1211 0.950 . S
C1200 H1192 0.950 . S
C1200 C1201 1.386 . S
C1200 C1202 1.391 . S
C1201 C1200 1.386 . S
C1201 C1205 1.393 . S
C1202 H1194 0.950 . S
C1202 C1200 1.391 . S
C1202 C1203 1.400 . S
C1203 C1202 1.400 . S
C1203 C1204 1.398 . S
C1203 C1209 1.491 . S
C1204 H1195 0.950 . S
C1204 C1203 1.398 . S
C1204 C1205 1.391 . S
C1205 H1193 0.950 . S
C1205 C1201 1.393 . S
C1205 C1204 1.391 . S
C1206 H1196 0.950 . S
C1206 C1207 1.386 . S
C1206 C1208 1.391 . S
C1207 C1206 1.386 . S
C1207 C1211 1.393 . S
C1208 H1197 0.950 . S
C1208 C1206 1.391 . S
C1208 C1209 1.400 . S
C1209 C1203 1.491 . S
C1209 C1208 1.400 . S
C1209 C1210 1.398 . S
C1210 H1198 0.950 . S
C1210 C1209 1.398 . S
C1210 C1211 1.391 . S
C1211 H1199 0.950 . S
C1211 C1207 1.393 . S
C1211 C1210 1.391 . S
H1212 C1220 0.950 . S
H1213 C1225 0.950 . S
H1214 C1222 0.950 . S
H1215 C1224 0.950 . S
H1216 C1226 0.950 . S
H1217 C1228 0.950 . S
H1218 C1230 0.950 . S
H1219 C1231 0.950 . S
C1220 H1212 0.950 . S
C1220 C1221 1.386 . S
C1220 C1222 1.391 . S
C1221 C1220 1.386 . S
C1221 C1225 1.393 . S
C1222 H1214 0.950 . S
C1222 C1220 1.391 . S
C1222 C1223 1.400 . S
C1223 C1222 1.400 . S
C1223 C1224 1.398 . S
C1223 C1229 1.491 . S
C1224 H1215 0.950 . S
C1224 C1223 1.398 . S
C1224 C1225 1.391 . S
C1225 H1213 0.950 . S
C1225 C1221 1.393 . S
C1225 C1224 1.391 . S
C1226 H1216 0.950 . S
C1226 C1227 1.386 . S
C1226 C1228 1.391 . S
C1227 C1226 1.386 . S
C1227 C1231 1.393 . S
C1228 H1217 0.950 . S
C1228 C1226 1.391 . S
C1228 C1229 1.400 . S
C1229 C1223 1.491 . S
C1229 C1228 1.400 . S
C1229 C1230 1.398 . S
C1230 H1218 0.950 . S
C1230 C1229 1.398 . S
C1230 C1231 1.391 . S
C1231 H1219 0.950 . S
C1231 C1227 1.393 . S
C1231 C1230 1.391 . S
H1232 C1240 0.950 . S
H1233 C1245 0.950 . S
H1234 C1242 0.950 . S
H1235 C1244 0.950 . S
H1236 C1246 0.950 . S
H1237 C1248 0.950 . S
H1238 C1250 0.950 . S
H1239 C1251 0.950 . S
C1240 H1232 0.950 . S
C1240 C1241 1.386 . S
C1240 C1242 1.391 . S
C1241 C1240 1.386 . S
C1241 C1245 1.393 . S
C1242 H1234 0.950 . S
C1242 C1240 1.391 . S
C1242 C1243 1.400 . S
C1243 C1242 1.400 . S
C1243 C1244 1.398 . S
C1243 C1249 1.491 . S
C1244 H1235 0.950 . S
C1244 C1243 1.398 . S
C1244 C1245 1.391 . S
C1245 H1233 0.950 . S
C1245 C1241 1.393 . S
C1245 C1244 1.391 . S
C1246 H1236 0.950 . S
C1246 C1247 1.386 . S
C1246 C1248 1.391 . S
C1247 C1246 1.386 . S
C1247 C1251 1.393 . S
C1248 H1237 0.950 . S
C1248 C1246 1.391 . S
C1248 C1249 1.400 . S
C1249 C1243 1.491 . S
C1249 C1248 1.400 . S
C1249 C1250 1.398 . S
C1250 H1238 0.950 . S
C1250 C1249 1.398 . S
C1250 C1251 1.391 . S
C1251 H1239 0.950 . S
C1251 C1247 1.393 . S
C1251 C1250 1.391 . S
H1252 C1260 0.950 . S
H1253 C1265 0.950 . S
H1254 C1262 0.950 . S
H1255 C1264 0.950 . S
H1256 C1266 0.950 . S
H1257 C1268 0.950 . S
H1258 C1270 0.950 . S
H1259 C1271 0.950 . S
C1260 H1252 0.950 . S
C1260 C1261 1.386 . S
C1260 C1262 1.391 . S
C1261 C1260 1.386 . S
C1261 C1265 1.393 . S
C1262 H1254 0.950 . S
C1262 C1260 1.391 . S
C1262 C1263 1.400 . S
C1263 C1262 1.400 . S
C1263 C1264 1.398 . S
C1263 C1269 1.491 . S
C1264 H1255 0.950 . S
C1264 C1263 1.398 . S
C1264 C1265 1.391 . S
C1265 H1253 0.950 . S
C1265 C1261 1.393 . S
C1265 C1264 1.391 . S
C1266 H1256 0.950 . S
C1266 C1267 1.386 . S
C1266 C1268 1.391 . S
C1267 C1266 1.386 . S
C1267 C1271 1.393 . S
C1268 H1257 0.950 . S
C1268 C1266 1.391 . S
C1268 C1269 1.400 . S
C1269 C1263 1.491 . S
C1269 C1268 1.400 . S
C1269 C1270 1.398 . S
C1270 H1258 0.950 . S
C1270 C1269 1.398 . S
C1270 C1271 1.391 . S
C1271 H1259 0.950 . S
C1271 C1267 1.393 . S
C1271 C1270 1.391 . S
H1272 C1280 0.950 . S
H1273 C1285 0.950 . S
H1274 C1282 0.950 . S
H1275 C1284 0.950 . S
H1276 C1286 0.950 . S
H1277 C1288 0.950 . S
H1278 C1290 0.950 . S
H1279 C1291 0.950 . S
C1280 H1272 0.950 . S
C1280 C1281 1.386 . S
C1280 C1282 1.391 . S
C1281 C1280 1.386 . S
C1281 C1285 1.393 . S
C1282 H1274 0.950 . S
C1282 C1280 1.391 . S
C1282 C1283 1.400 . S
C1283 C1282 1.400 . S
C1283 C1284 1.398 . S
C1283 C1289 1.491 . S
C1284 H1275 0.950 . S
C1284 C1283 1.398 . S
C1284 C1285 1.391 . S
C1285 H1273 0.950 . S
C1285 C1281 1.393 . S
C1285 C1284 1.391 . S
C1286 H1276 0.950 . S
C1286 C1287 1.386 . S
C1286 C1288 1.391 . S
C1287 C1286 1.386 . S
C1287 C1291 1.393 . S
C1288 H1277 0.950 . S
C1288 C1286 1.391 . S
C1288 C1289 1.400 . S
C1289 C1283 1.491 . S
C1289 C1288 1.400 . S
C1289 C1290 1.398 . S
C1290 H1278 0.950 . S
C1290 C1289 1.398 . S
C1290 C1291 1.391 . S
C1291 H1279 0.950 . S
C1291 C1287 1.393 . S
C1291 C1290 1.391 . S
H1292 C1300 0.950 . S
H1293 C1305 0.950 . S
H1294 C1302 0.950 . S
H1295 C1304 0.950 . S
H1296 C1306 0.950 . S
H1297 C1308 0.950 . S
H1298 C1310 0.950 . S
H1299 C1311 0.950 . S
C1300 H1292 0.950 . S
C1300 C1301 1.386 . S
C1300 C1302 1.391 . S
C1301 C1300 1.386 . S
C1301 C1305 1.393 . S
C1302 H1294 0.950 . S
C1302 C1300 1.391 . S
C1302 C1303 1.400 . S
C1303 C1302 1.400 . S
C1303 C1304 1.398 . S
C1303 C1309 1.491 . S
C1304 H1295 0.950 . S
C1304 C1303 1.398 . S
C1304 C1305 1.391 . S
C1305 H1293 0.950 . S
C1305 C1301 1.393 . S
C1305 C1304 1.391 . S
C1306 H1296 0.950 . S
C1306 C1307 1.386 . S
C1306 C1308 1.391 . S
C1307 C1306 1.386 . S
C1307 C1311 1.393 . S
C1308 H1297 0.950 . S
C1308 C1306 1.391 . S
C1308 C1309 1.400 . S
C1309 C1303 1.491 . S
C1309 C1308 1.400 . S
C1309 C1310 1.398 . S
C1310 H1298 0.950 . S
C1310 C1309 1.398 . S
C1310 C1311 1.391 . S
C1311 H1299 0.950 . S
C1311 C1307 1.393 . S
C1311 C1310 1.391 . S
C367 C177 1.752 . S
C361 C9 1.754 . S
C387 C182 1.894 . S
C381 C28 1.879 . S
C407 C183 1.184 . S
C401 C49 1.197 . S
C421 C79 1.889 . S
C427 C187 1.915 . S
C441 C99 1.888 . S
C447 C190 1.907 . S
C467 C191 1.193 . S
C461 C101 1.178 . S
C481 C128 1.872 . S
C487 C168 1.909 . S
C501 C141 1.743 . S
C507 C184 1.760 . S
C527 C222 1.193 . S
C521 C16 1.169 . S
C541 C26 1.044 . S
C547 C248 1.061 . S
C567 C200 1.167 . S
C561 C56 1.149 . S
C587 C255 1.133 . S
C581 C69 1.151 . S
C601 C89 1.181 . S
C607 C209 1.167 . S
C627 C251 1.883 . S
C621 C108 1.869 . S
C641 C126 1.066 . S
C647 C215 1.086 . S
C661 C148 1.892 . S
C667 C246 1.898 . S
C681 C19 1.887 . S
C687 C254 1.897 . S
C701 C96 1.062 . S
C707 C241 1.048 . S
C727 C219 1.165 . S
C721 C106 1.147 . S
C747 C247 1.125 . S
C741 C121 1.161 . S
C761 C146 1.163 . S
C767 C214 1.205 . S
C781 C59 1.870 . S
C787 C232 1.882 . S
C807 C223 1.072 . S
C801 C76 1.071 . S
C821 C21 1.186 . S
C827 C216 1.167 . S
C841 C149 1.733 . S
C847 C278 1.708 . S
C861 C88 1.846 . S
C867 C273 1.896 . S
C887 C287 1.159 . S
C881 C109 1.176 . S
C907 C264 1.904 . S
C901 C139 1.870 . S
C921 C39 1.867 . S
C927 C280 1.883 . S
C947 C279 1.131 . S
C941 C41 1.159 . S
C961 C68 1.869 . S
C967 C283 1.897 . S
C981 C1 1.729 . S
C987 C286 1.696 . S
C1001 C156 1.169 . S
C1007 C312 1.213 . S
C1027 C328 1.111 . S
C1021 C86 1.070 . S
C1041 C116 1.137 . S
C1047 C310 1.163 . S
C1061 C129 1.178 . S
C1067 C343 1.178 . S
C1087 C319 1.167 . S
C1081 C29 1.163 . S
C1101 C48 1.874 . S
C1107 C337 1.902 . S
C1127 C315 1.121 . S
C1121 C66 1.088 . S
C1147 C350 1.906 . S
C1141 C8 1.911 . S
C1167 C342 1.906 . S
C1161 C159 1.916 . S
C1181 C36 1.077 . S
C1187 C347 1.104 . S
C1201 C46 1.128 . S
C1207 C318 1.141 . S
C1227 C351 1.166 . S
C1221 C61 1.183 . S
C1241 C6 1.170 . S
C1247 C305 1.184 . S
C1261 C119 1.894 . S
C1267 C344 1.904 . S
C1287 C296 1.118 . S
C1281 C136 1.076 . S
C1307 C311 1.154 . S
C1301 C81 1.165 . S
