# Generated by pormake.
# Topology myd, (4,6)-cn, num edge types: 1
# Building blocks:
#     Node 0, Type 0, BuildingBlock: NAWXER_clean_sbu_0, # of connection points: 4
#     Node 1, Type 0, BuildingBlock: NAWXER_clean_sbu_0, # of connection points: 4
#     Node 2, Type 0, BuildingBlock: NAWXER_clean_sbu_0, # of connection points: 4
#     Node 3, Type 0, BuildingBlock: NAWXER_clean_sbu_0, # of connection points: 4
#     Node 4, Type 0, BuildingBlock: NAWXER_clean_sbu_0, # of connection points: 4
#     Node 5, Type 0, BuildingBlock: NAWXER_clean_sbu_0, # of connection points: 4
#     Node 6, Type 0, BuildingBlock: NAWXER_clean_sbu_0, # of connection points: 4
#     Node 7, Type 0, BuildingBlock: NAWXER_clean_sbu_0, # of connection points: 4
#     Node 8, Type 0, BuildingBlock: NAWXER_clean_sbu_0, # of connection points: 4
#     Node 9, Type 0, BuildingBlock: NAWXER_clean_sbu_0, # of connection points: 4
#     Node 10, Type 0, BuildingBlock: NAWXER_clean_sbu_0, # of connection points: 4
#     Node 11, Type 0, BuildingBlock: NAWXER_clean_sbu_0, # of connection points: 4
#     Node 12, Type 1, BuildingBlock: CIFDUS_clean_sbu_1, # of connection points: 6
#     Node 13, Type 1, BuildingBlock: CIFDUS_clean_sbu_1, # of connection points: 6
#     Node 14, Type 1, BuildingBlock: CIFDUS_clean_sbu_1, # of connection points: 6
#     Node 15, Type 1, BuildingBlock: CIFDUS_clean_sbu_1, # of connection points: 6
#     Node 16, Type 1, BuildingBlock: CIFDUS_clean_sbu_1, # of connection points: 6
#     Node 17, Type 1, BuildingBlock: CIFDUS_clean_sbu_1, # of connection points: 6
#     Node 18, Type 1, BuildingBlock: CIFDUS_clean_sbu_1, # of connection points: 6
#     Node 19, Type 1, BuildingBlock: CIFDUS_clean_sbu_1, # of connection points: 6
#     Edge 20, Type (0, 1), None
#     Edge 21, Type (0, 1), None
#     Edge 22, Type (0, 1), None
#     Edge 23, Type (0, 1), None
#     Edge 24, Type (0, 1), None
#     Edge 25, Type (0, 1), None
#     Edge 26, Type (0, 1), None
#     Edge 27, Type (0, 1), None
#     Edge 28, Type (0, 1), None
#     Edge 29, Type (0, 1), None
#     Edge 30, Type (0, 1), None
#     Edge 31, Type (0, 1), None
#     Edge 32, Type (0, 1), None
#     Edge 33, Type (0, 1), None
#     Edge 34, Type (0, 1), None
#     Edge 35, Type (0, 1), None
#     Edge 36, Type (0, 1), None
#     Edge 37, Type (0, 1), None
#     Edge 38, Type (0, 1), None
#     Edge 39, Type (0, 1), None
#     Edge 40, Type (0, 1), None
#     Edge 41, Type (0, 1), None
#     Edge 42, Type (0, 1), None
#     Edge 43, Type (0, 1), None
#     Edge 44, Type (0, 1), None
#     Edge 45, Type (0, 1), None
#     Edge 46, Type (0, 1), None
#     Edge 47, Type (0, 1), None
#     Edge 48, Type (0, 1), None
#     Edge 49, Type (0, 1), None
#     Edge 50, Type (0, 1), None
#     Edge 51, Type (0, 1), None
#     Edge 52, Type (0, 1), None
#     Edge 53, Type (0, 1), None
#     Edge 54, Type (0, 1), None
#     Edge 55, Type (0, 1), None
#     Edge 56, Type (0, 1), None
#     Edge 57, Type (0, 1), None
#     Edge 58, Type (0, 1), None
#     Edge 59, Type (0, 1), None
#     Edge 60, Type (0, 1), None
#     Edge 61, Type (0, 1), None
#     Edge 62, Type (0, 1), None
#     Edge 63, Type (0, 1), None
#     Edge 64, Type (0, 1), None
#     Edge 65, Type (0, 1), None
#     Edge 66, Type (0, 1), None
#     Edge 67, Type (0, 1), None
# Relax obj value: 0.219
# Max RMSD: 0.186
# Mean RMSD: 0.133
data_MOF--net-myd--node1-NAWXER_clean_sbu_0--node2-CIFDUS_clean_sbu_1--edge1-none
_symmetry_space_group_name_H-M    P1
_symmetry_Int_Tables_number       1
_symmetry_cell_setting            triclinic
loop_
_symmetry_equiv_pos_as_xyz
'x, y, z'
_cell_length_a     19.833918
_cell_length_b     19.762869
_cell_length_c     19.562771
_cell_angle_alpha  93.291111
_cell_angle_beta   91.090062
_cell_angle_gamma 94.475728
loop_
_atom_site_label
_atom_site_type_symbol
_atom_site_fract_x
_atom_site_fract_y
_atom_site_fract_z
_atom_type_partial_charge
C0 C 0.96624 0.195 0.21642 0.0
C1 C 0.98854 0.38799 0.39339 0.0
O2 O 0.02451 0.21361 0.24324 0.0
Zn3 Zn 0.07928 0.28328 0.31367 0.0
O4 O 0.91587 0.2281 0.23346 0.0
Zn5 Zn 0.96633 0.29339 0.30284 0.0
O6 O 0.03022 0.35629 0.24835 0.0
O7 O 0.13909 0.34589 0.25468 0.0
O8 O 0.93277 0.36624 0.36283 0.0
O9 O 0.04266 0.35924 0.38042 0.0
O10 O 0.10172 0.21752 0.3825 0.0
O11 O 0.99178 0.22641 0.37431 0.0
C12 C 0.08957 0.37541 0.2305 0.0
C13 C 0.0415 0.19873 0.39975 0.0
C14 C 0.06274 0.89084 0.27874 0.0
C15 C 0.06451 0.69121 0.10781 0.0
O16 O 0.11229 0.86451 0.24956 0.0
Zn17 Zn 0.06671 0.79256 0.18994 0.0
O18 O 1.00247 0.86492 0.26302 0.0
Zn19 Zn 0.96033 0.78284 0.18721 0.0
O20 O 0.91476 0.71985 0.24285 0.0
O21 O 0.02396 0.72836 0.26622 0.0
O22 O 1.00573 0.7073 0.12499 0.0
O23 O 0.11617 0.72878 0.13004 0.0
O24 O 1.01802 0.85663 0.12316 0.0
O25 O 0.90742 0.83244 0.1228 0.0
C26 C 0.96436 0.70318 0.27875 0.0
C27 C 0.95845 0.86785 0.10232 0.0
C28 C 0.4044 0.06745 0.1771 0.0
C29 C 0.23807 0.10778 0.35979 0.0
O30 O 0.37357 1.01736 0.2042 0.0
Zn31 Zn 0.30294 0.9902 0.27384 0.0
O32 O 0.3943 0.12828 0.19808 0.0
Zn33 Zn 0.32447 0.10571 0.26741 0.0
O34 O 0.38421 0.06367 0.34153 0.0
O35 O 0.35795 0.95377 0.34849 0.0
O36 O 0.26853 0.16031 0.33532 0.0
O37 O 0.25135 0.04932 0.33722 0.0
O38 O 0.22472 0.95303 0.21504 0.0
O39 O 0.24632 0.06214 0.20179 0.0
C40 C 0.39145 1.00877 0.37117 0.0
C41 C 0.21013 1.00688 0.18656 0.0
C42 C 0.81931 0.48572 0.20087 0.0
C43 C 0.62708 0.48893 0.35793 0.0
O44 O 0.77963 0.4356 0.21709 0.0
Zn45 Zn 0.7136 0.48114 0.26965 0.0
O46 O 0.80603 0.54589 0.22109 0.0
Zn47 Zn 0.72461 0.58915 0.27538 0.0
O48 O 0.77071 0.63644 0.34947 0.0
O49 O 0.7737 0.52472 0.35403 0.0
O50 O 0.64966 0.54705 0.33958 0.0
O51 O 0.64331 0.43521 0.32499 0.0
O52 O 0.66272 0.52745 0.19151 0.0
O53 O 0.67728 0.63914 0.21049 0.0
C54 C 0.78641 0.58481 0.38084 0.0
C55 C 0.65344 0.58742 0.174 0.0
C56 C 0.1906 0.41266 0.9803 0.0
C57 C 0.37715 0.27005 0.04224 0.0
O58 O 0.22366 0.38184 0.93437 0.0
Zn59 Zn 0.27919 0.33372 0.9952 0.0
O60 O 0.20645 0.40922 0.04342 0.0
Zn61 Zn 0.27388 0.36041 0.10483 0.0
O62 O 0.34742 0.43834 0.12879 0.0
O63 O 0.35243 0.40912 1.01965 0.0
O64 O 0.34776 0.29208 0.09485 0.0
O65 O 0.35358 0.28058 0.98287 0.0
O66 O 0.20465 0.26516 0.03126 0.0
O67 O 0.20157 0.29475 0.14091 0.0
C68 C 0.37842 0.4422 0.0719 0.0
C69 C 0.17778 0.25714 0.08894 0.0
C70 C 0.21104 0.83145 0.47371 0.0
C71 C 0.36128 0.64112 0.45062 0.0
O72 O 0.23114 0.8017 0.41902 0.0
Zn73 Zn 0.28075 0.73027 0.45327 0.0
O74 O 0.22827 0.80969 0.53136 0.0
Zn75 Zn 0.28038 0.72382 0.56186 0.0
O76 O 0.35482 0.76757 0.61467 0.0
O77 O 0.36371 0.78513 0.50444 0.0
O78 O 0.34229 0.65539 0.51117 0.0
O79 O 0.33337 0.66707 0.40002 0.0
O80 O 0.19972 0.66879 0.48647 0.0
O81 O 0.20983 0.66327 0.59857 0.0
C82 C 0.38854 0.79127 0.56521 0.0
C83 C 0.17773 0.64693 0.54239 0.0
C84 C 0.6906 0.91266 0.4803 0.0
C85 C 0.87716 0.77005 0.54225 0.0
O86 O 0.72366 0.88184 0.43436 0.0
Zn87 Zn 0.77919 0.83373 0.4952 0.0
O88 O 0.70645 0.90922 0.54342 0.0
Zn89 Zn 0.77387 0.86041 0.60483 0.0
O90 O 0.84741 0.93835 0.62879 0.0
O91 O 0.85243 0.90912 0.51965 0.0
O92 O 0.84776 0.79208 0.59485 0.0
O93 O 0.85359 0.78059 0.48288 0.0
O94 O 0.70466 0.76516 0.53125 0.0
O95 O 0.70157 0.79475 0.6409 0.0
C96 C 0.87842 0.9422 0.5719 0.0
C97 C 0.67778 0.75714 0.58893 0.0
C98 C 0.58957 0.8754 0.7305 0.0
C99 C 0.5415 0.69873 0.89976 0.0
O100 O 0.53022 0.85628 0.74835 0.0
Zn101 Zn 0.46633 0.79338 0.80284 0.0
O102 O 0.6391 0.84589 0.75467 0.0
Zn103 Zn 0.57928 0.78328 0.81367 0.0
O104 O 0.52452 0.7136 0.74325 0.0
O105 O 0.41587 0.72809 0.73347 0.0
O106 O 0.60172 0.71752 0.88251 0.0
O107 O 0.49178 0.72641 0.87431 0.0
O108 O 0.43277 0.86624 0.86283 0.0
O109 O 0.54267 0.85924 0.88043 0.0
C110 C 0.46625 0.69498 0.71643 0.0
C111 C 0.48855 0.88799 0.89339 0.0
C112 C 0.46434 0.20318 0.77874 0.0
C113 C 0.45844 0.36785 0.60231 0.0
O114 O 0.41474 0.21985 0.74284 0.0
Zn115 Zn 0.46031 0.28284 0.68719 0.0
O116 O 0.52394 0.22836 0.76621 0.0
Zn117 Zn 0.5667 0.29256 0.68993 0.0
O118 O 0.61228 0.36451 0.74955 0.0
O119 O 0.50246 0.36492 0.763 0.0
O120 O 0.51801 0.35662 0.62315 0.0
O121 O 0.40741 0.33245 0.62278 0.0
O122 O 0.50572 0.2073 0.62498 0.0
O123 O 0.61615 0.22877 0.63003 0.0
C124 C 0.56273 0.39084 0.77873 0.0
C125 C 0.56449 0.19121 0.6078 0.0
C126 C 0.71015 0.50684 0.68653 0.0
C127 C 0.89147 0.50878 0.87117 0.0
O128 O 0.74633 0.5621 0.70179 0.0
Zn129 Zn 0.82447 0.6057 0.76741 0.0
O130 O 0.72475 0.453 0.71504 0.0
Zn131 Zn 0.80295 0.4902 0.77387 0.0
O132 O 0.75134 0.54932 0.83721 0.0
O133 O 0.76853 0.66031 0.83531 0.0
O134 O 0.85795 0.45378 0.84853 0.0
O135 O 0.88422 0.56368 0.84152 0.0
O136 O 0.8943 0.62827 0.69807 0.0
O137 O 0.8736 0.51735 0.70424 0.0
C138 C 0.73804 0.60779 0.85976 0.0
C139 C 0.90443 0.56744 0.67714 0.0
C140 C 0.3193 0.98573 0.70087 0.0
C141 C 0.12708 0.98893 0.85794 0.0
O142 O 0.27962 0.9356 0.71709 0.0
Zn143 Zn 0.21359 0.98115 0.76966 0.0
O144 O 0.30602 0.04589 0.7211 0.0
Zn145 Zn 0.22461 0.08915 0.77539 0.0
O146 O 0.27071 0.13644 0.84948 0.0
O147 O 0.2737 1.02472 0.85403 0.0
O148 O 0.14965 0.04705 0.83959 0.0
O149 O 0.1433 0.93521 0.82499 0.0
O150 O 0.16271 1.02745 0.69152 0.0
O151 O 0.17728 0.13914 0.7105 0.0
C152 C 0.28641 0.08481 0.88084 0.0
C153 C 0.15344 0.08742 0.67401 0.0
C154 C 0.67772 0.14695 0.04239 0.0
C155 C 0.88855 0.29127 0.0652 0.0
O156 O 0.70982 0.1633 0.09857 0.0
Zn157 Zn 0.78038 0.22384 0.06185 0.0
O158 O 0.69972 0.16879 0.98646 0.0
Zn159 Zn 0.78076 0.23027 0.95326 0.0
O160 O 0.83337 0.16706 0.90002 0.0
O161 O 0.84228 0.15539 1.01118 0.0
O162 O 0.86372 0.28513 1.00443 0.0
O163 O 0.85481 0.26759 0.11466 0.0
O164 O 0.72828 0.30971 0.03133 0.0
O165 O 0.73115 0.30169 0.91899 0.0
C166 C 0.86126 0.1411 0.95063 0.0
C167 C 0.71106 0.33146 0.97367 0.0
O168 O 0.98081 0.13445 0.11326 0.0
Mn169 Mn 0.03845 0.06943 0.05067 0.0
O170 O 0.98589 0.08305 0.20203 0.0
Mn171 Mn 0.07574 0.09685 0.17884 0.0
O172 O 0.092 1.02076 0.97048 0.0
O173 O 0.95669 0.0766 0.98192 0.0
Mn174 Mn 0.94446 0.99021 0.94383 0.0
O175 O 0.99342 0.97866 0.0801 0.0
O176 O 1.01682 0.97125 0.89165 0.0
O177 O 0.09796 0.16315 0.04269 0.0
O178 O 0.11594 0.1818 0.15753 0.0
O179 O 0.88091 1.03362 0.90126 0.0
O180 O 0.92034 0.92411 1.00534 0.0
C181 C 0.13923 1.01991 0.17548 0.0
C182 C 0.96099 0.12996 0.17383 0.0
C183 C 0.07692 0.98822 0.91188 0.0
C184 C 0.9047 0.08515 0.94076 0.0
C185 C 0.95255 0.92774 0.06213 0.0
C186 C 0.12588 0.199 0.09608 0.0
O187 O 0.11791 0.0444 0.11785 0.0
O188 O 0.11615 0.04355 0.23228 0.0
O189 O 0.08015 0.42566 0.12632 0.0
Mn190 Mn 1.00839 0.47249 0.0625 0.0
O191 O 0.05843 0.48091 0.21476 0.0
Mn192 Mn 0.97837 0.43703 0.17802 0.0
O193 O 0.94195 0.50286 0.98468 0.0
O194 O 0.0876 0.47223 0.99581 0.0
Mn195 Mn 0.08409 0.5456 0.94764 0.0
O196 O 0.04108 0.57234 0.09519 0.0
O197 O 1.00629 0.52802 0.89499 0.0
O198 O 0.96883 0.37666 0.03365 0.0
O199 O 0.9669 0.34762 0.14062 0.0
O200 O 0.15901 0.5051 0.9175 0.0
O201 O 0.09095 0.62396 1.00786 0.0
C202 C 0.88987 0.4723 0.18889 0.0
C203 C 0.09386 0.43725 0.18983 0.0
C204 C 0.94954 0.50958 0.91969 0.0
C205 C 0.14223 0.46124 0.96199 0.0
C206 C 0.06941 0.6252 0.06904 0.0
C207 C 0.94983 0.33547 0.07857 0.0
O208 O 0.92239 0.48361 0.13069 0.0
O209 O 0.91717 0.44372 0.23912 0.0
O210 O 0.13473 0.08148 0.40622 0.0
Mn211 Mn 0.07479 1.01664 0.47101 0.0
O212 O 0.21825 0.07405 0.46643 0.0
Mn213 Mn 0.17691 0.98946 0.43244 0.0
O214 O 0.99195 0.96954 0.52949 0.0
O215 O 1.01892 0.09862 0.46727 0.0
Mn216 Mn 0.99216 0.1203 0.55274 0.0
O217 O 0.12296 0.05657 0.56056 0.0
O218 O 0.92566 0.0532 0.56638 0.0
O219 O 0.03531 0.96408 0.37987 0.0
O220 O 0.14028 0.96605 0.34387 0.0
O221 O 0.99575 0.19902 0.5092 0.0
O222 O 0.0587 0.1247 0.62021 0.0
C223 C 0.19557 0.90271 0.46921 0.0
C224 C 0.19462 0.10569 0.41998 0.0
C225 C 0.93753 0.99073 0.55956 0.0
C226 C 0.02638 0.16446 0.46266 0.0
C227 C 0.11163 0.09384 0.61364 0.0
C228 C 0.07813 0.9455 0.33489 0.0
O229 O 0.13626 0.92792 0.48446 0.0
O230 O 0.24231 0.93739 0.43856 0.0
O231 O 0.9264 0.66958 0.55193 0.0
Mn232 Mn 0.96462 0.59289 0.48472 0.0
O233 O 0.98069 0.74904 0.50536 0.0
Mn234 Mn 0.92665 0.69235 0.44529 0.0
O235 O 0.99439 0.50584 0.42965 0.0
O236 O 0.96004 0.54157 0.57054 0.0
Mn237 Mn 0.03211 0.49357 0.57636 0.0
O238 O 0.06292 0.62993 0.51044 0.0
O239 O 1.00582 0.42757 0.50777 0.0
O240 O 0.86969 0.55403 0.45459 0.0
O241 O 0.83895 0.65574 0.46269 0.0
O242 O 1.002 0.50937 0.66382 0.0
O243 O 0.11108 0.5479 0.56411 0.0
C244 C 0.94875 0.69119 0.3493 0.0
C245 C 0.93841 0.73318 0.5485 0.0
C246 C 0.99259 0.44344 0.44678 0.0
C247 C 0.96211 0.54946 0.63654 0.0
C248 C 0.11341 0.60629 0.54013 0.0
C249 C 0.82571 0.59504 0.4437 0.0
O250 O 0.97325 0.64353 0.38669 0.0
O251 O 0.9128 0.73741 0.37486 0.0
O252 O 0.58015 0.92566 0.62632 0.0
Mn253 Mn 0.50838 0.97249 0.5625 0.0
O254 O 0.55843 0.9809 0.71476 0.0
Mn255 Mn 0.47836 0.93703 0.67802 0.0
O256 O 0.44194 1.00285 0.48468 0.0
O257 O 0.58759 0.97222 0.49581 0.0
Mn258 Mn 0.58408 0.04559 0.44763 0.0
O259 O 0.54107 0.07234 0.59519 0.0
O260 O 0.50628 1.028 0.39498 0.0
O261 O 0.46883 0.87665 0.53365 0.0
O262 O 0.46689 0.84762 0.64063 0.0
O263 O 0.65899 1.00509 0.41749 0.0
O264 O 0.59093 0.12395 0.50785 0.0
C265 C 0.38986 0.9723 0.68889 0.0
C266 C 0.59386 0.93725 0.68983 0.0
C267 C 0.44953 1.00955 0.41968 0.0
C268 C 0.64222 0.96124 0.46199 0.0
C269 C 0.56939 0.1252 0.56902 0.0
C270 C 0.44982 0.83546 0.57858 0.0
O271 O 0.42239 0.98361 0.63069 0.0
O272 O 0.41717 0.94372 0.73913 0.0
O273 O 0.48082 0.63444 0.61327 0.0
Mn274 Mn 0.53846 0.56943 0.55066 0.0
O275 O 0.48591 0.58304 0.70204 0.0
Mn276 Mn 0.57575 0.59684 0.67881 0.0
O277 O 0.592 0.52076 0.47047 0.0
O278 O 0.45669 0.57662 0.48191 0.0
Mn279 Mn 0.44446 0.49022 0.44382 0.0
O280 O 0.49342 0.47866 0.58009 0.0
O281 O 0.51682 0.47125 0.39164 0.0
O282 O 0.59797 0.66314 0.54268 0.0
O283 O 0.61594 0.6818 0.65751 0.0
O284 O 0.38092 0.53363 0.40125 0.0
O285 O 0.42033 0.42412 0.50532 0.0
C286 C 0.63927 0.51996 0.6755 0.0
C287 C 0.46101 0.62995 0.67384 0.0
C288 C 0.57692 0.48823 0.41188 0.0
C289 C 0.40471 0.58516 0.44075 0.0
C290 C 0.45254 0.42775 0.56212 0.0
C291 C 0.62588 0.699 0.59606 0.0
O292 O 0.61792 0.54436 0.61784 0.0
O293 O 0.61621 0.54364 0.7323 0.0
O294 O 0.63472 0.58148 0.90621 0.0
Mn295 Mn 0.57479 0.51663 0.971 0.0
O296 O 0.71825 0.57405 0.96641 0.0
Mn297 Mn 0.6769 0.48946 0.93242 0.0
O298 O 0.49195 0.46954 0.02949 0.0
O299 O 0.51892 0.59862 0.96727 0.0
Mn300 Mn 0.49216 0.62029 0.05274 0.0
O301 O 0.62297 0.55657 0.06055 0.0
O302 O 0.42566 0.55319 0.06638 0.0
O303 O 0.53531 0.46408 0.87986 0.0
O304 O 0.64027 0.46605 0.84385 0.0
O305 O 0.49576 0.69902 1.00921 0.0
O306 O 0.55871 0.62469 0.12021 0.0
C307 C 0.69558 0.40272 0.96919 0.0
C308 C 0.6946 0.60569 0.91996 0.0
C309 C 0.43753 0.49072 0.05956 0.0
C310 C 0.52638 0.66446 0.96267 0.0
C311 C 0.61163 0.59383 0.11363 0.0
C312 C 0.57812 0.44551 0.83487 0.0
O313 O 0.63627 0.42792 0.98444 0.0
O314 O 0.74231 0.4374 0.93853 0.0
O315 O 0.42641 0.16959 0.05192 0.0
Mn316 Mn 0.46462 0.0929 0.98471 0.0
O317 O 0.48069 0.24904 1.00533 0.0
Mn318 Mn 0.42664 0.19235 0.94528 0.0
O319 O 0.49438 1.00584 0.92964 0.0
O320 O 0.46005 0.04158 0.07053 0.0
Mn321 Mn 0.53212 0.99358 0.07637 0.0
O322 O 0.56292 0.12993 1.01042 0.0
O323 O 0.50584 0.92758 1.00777 0.0
O324 O 0.36969 0.05403 0.95459 0.0
O325 O 0.33894 0.15573 0.9627 0.0
O326 O 0.50197 1.00937 0.16382 0.0
O327 O 0.61107 0.04793 0.06414 0.0
C328 C 0.44873 0.19118 0.84929 0.0
C329 C 0.43841 0.23318 0.04849 0.0
C330 C 0.4926 0.94344 0.94678 0.0
C331 C 0.46209 0.04946 0.13653 0.0
C332 C 0.61341 0.10631 0.04013 0.0
C333 C 0.3257 0.09503 0.94371 0.0
O334 O 0.47324 0.14353 0.88668 0.0
O335 O 0.41277 0.2374 0.87485 0.0
loop_
_geom_bond_atom_site_label_1
_geom_bond_atom_site_label_2
_geom_bond_distance
_geom_bond_site_symmetry_2
_ccdc_geom_bond_type
C0 O2 1.247 . S
C0 O4 1.258 1_455 S
C1 O8 1.247 1_455 S
C1 O9 1.258 . S
O2 C0 1.247 . S
O2 Zn3 2.028 . S
Zn3 O2 2.028 . S
Zn3 O7 2.035 . S
Zn3 O9 2.035 . S
Zn3 O10 2.028 . S
O4 C0 1.258 1_655 S
O4 Zn5 2.035 . S
Zn5 O4 2.035 . S
Zn5 O6 2.028 . S
Zn5 O8 2.028 . S
Zn5 O11 2.035 . S
O6 Zn5 2.028 . S
O6 C12 1.247 1_655 S
O7 Zn3 2.035 . S
O7 C12 1.258 . S
O8 C1 1.247 1_655 S
O8 Zn5 2.028 . S
O9 C1 1.258 . S
O9 Zn3 2.035 . S
O10 Zn3 2.028 . S
O10 C13 1.247 . S
O11 Zn5 2.035 . S
O11 C13 1.258 1_655 S
C12 O6 1.247 1_455 S
C12 O7 1.258 . S
C13 O10 1.247 . S
C13 O11 1.258 1_455 S
C14 O16 1.247 . S
C14 O18 1.258 1_455 S
C15 O22 1.247 . S
C15 O23 1.258 1_655 S
O16 C14 1.247 . S
O16 Zn17 2.028 . S
Zn17 O16 2.028 . S
Zn17 O21 2.035 . S
Zn17 O23 2.035 . S
Zn17 O24 2.028 . S
O18 C14 1.258 1_655 S
O18 Zn19 2.035 . S
Zn19 O18 2.035 . S
Zn19 O20 2.028 . S
Zn19 O22 2.028 . S
Zn19 O25 2.035 . S
O20 Zn19 2.028 . S
O20 C26 1.247 . S
O21 Zn17 2.035 . S
O21 C26 1.258 1_455 S
O22 C15 1.247 . S
O22 Zn19 2.028 . S
O23 C15 1.258 1_455 S
O23 Zn17 2.035 . S
O24 Zn17 2.028 . S
O24 C27 1.247 . S
O25 Zn19 2.035 . S
O25 C27 1.258 1_655 S
C26 O20 1.247 . S
C26 O21 1.258 1_655 S
C27 O24 1.247 . S
C27 O25 1.258 1_455 S
C28 O30 1.247 1_545 S
C28 O32 1.258 . S
C29 O36 1.247 1_565 S
C29 O37 1.258 . S
O30 C28 1.247 1_565 S
O30 Zn31 2.028 . S
Zn31 O30 2.028 . S
Zn31 O35 2.035 . S
Zn31 O37 2.035 . S
Zn31 O38 2.028 . S
O32 C28 1.258 . S
O32 Zn33 2.035 . S
Zn33 O32 2.035 . S
Zn33 O34 2.028 . S
Zn33 O36 2.028 . S
Zn33 O39 2.035 . S
O34 Zn33 2.028 . S
O34 C40 1.247 1_545 S
O35 Zn31 2.035 . S
O35 C40 1.258 . S
O36 C29 1.247 1_545 S
O36 Zn33 2.028 . S
O37 C29 1.258 . S
O37 Zn31 2.035 . S
O38 Zn31 2.028 . S
O38 C41 1.247 1_565 S
O39 Zn33 2.035 . S
O39 C41 1.258 . S
C40 O34 1.247 1_565 S
C40 O35 1.258 . S
C41 O38 1.247 1_545 S
C41 O39 1.258 . S
C42 O44 1.247 . S
C42 O46 1.258 . S
C43 O50 1.247 . S
C43 O51 1.258 . S
O44 C42 1.247 . S
O44 Zn45 2.028 . S
Zn45 O44 2.028 . S
Zn45 O49 2.035 . S
Zn45 O51 2.035 . S
Zn45 O52 2.028 . S
O46 C42 1.258 . S
O46 Zn47 2.035 . S
Zn47 O46 2.035 . S
Zn47 O48 2.028 . S
Zn47 O50 2.028 . S
Zn47 O53 2.035 . S
O48 Zn47 2.028 . S
O48 C54 1.247 . S
O49 Zn45 2.035 . S
O49 C54 1.258 . S
O50 C43 1.247 . S
O50 Zn47 2.028 . S
O51 C43 1.258 . S
O51 Zn45 2.035 . S
O52 Zn45 2.028 . S
O52 C55 1.247 . S
O53 Zn47 2.035 . S
O53 C55 1.258 . S
C54 O48 1.247 . S
C54 O49 1.258 . S
C55 O52 1.247 . S
C55 O53 1.258 . S
C56 O58 1.247 1_554 S
C56 O60 1.258 . S
C57 O64 1.247 . S
C57 O65 1.258 1_554 S
O58 C56 1.247 1_556 S
O58 Zn59 2.028 . S
Zn59 O58 2.028 . S
Zn59 O63 2.035 . S
Zn59 O65 2.035 . S
Zn59 O66 2.028 . S
O60 C56 1.258 . S
O60 Zn61 2.035 . S
Zn61 O60 2.035 . S
Zn61 O62 2.028 . S
Zn61 O64 2.028 . S
Zn61 O67 2.035 . S
O62 Zn61 2.028 . S
O62 C68 1.247 . S
O63 Zn59 2.035 . S
O63 C68 1.258 1_556 S
O64 C57 1.247 . S
O64 Zn61 2.028 . S
O65 C57 1.258 1_556 S
O65 Zn59 2.035 . S
O66 Zn59 2.028 . S
O66 C69 1.247 1_556 S
O67 Zn61 2.035 . S
O67 C69 1.258 . S
C68 O62 1.247 . S
C68 O63 1.258 1_554 S
C69 O66 1.247 1_554 S
C69 O67 1.258 . S
C70 O72 1.247 . S
C70 O74 1.258 . S
C71 O78 1.247 . S
C71 O79 1.258 . S
O72 C70 1.247 . S
O72 Zn73 2.028 . S
Zn73 O72 2.028 . S
Zn73 O77 2.035 . S
Zn73 O79 2.035 . S
Zn73 O80 2.028 . S
O74 C70 1.258 . S
O74 Zn75 2.035 . S
Zn75 O74 2.035 . S
Zn75 O76 2.028 . S
Zn75 O78 2.028 . S
Zn75 O81 2.035 . S
O76 Zn75 2.028 . S
O76 C82 1.247 . S
O77 Zn73 2.035 . S
O77 C82 1.258 . S
O78 C71 1.247 . S
O78 Zn75 2.028 . S
O79 C71 1.258 . S
O79 Zn73 2.035 . S
O80 Zn73 2.028 . S
O80 C83 1.247 . S
O81 Zn75 2.035 . S
O81 C83 1.258 . S
C82 O76 1.247 . S
C82 O77 1.258 . S
C83 O80 1.247 . S
C83 O81 1.258 . S
C84 O86 1.247 . S
C84 O88 1.258 . S
C85 O92 1.247 . S
C85 O93 1.258 . S
O86 C84 1.247 . S
O86 Zn87 2.028 . S
Zn87 O86 2.028 . S
Zn87 O91 2.035 . S
Zn87 O93 2.035 . S
Zn87 O94 2.028 . S
O88 C84 1.258 . S
O88 Zn89 2.035 . S
Zn89 O88 2.035 . S
Zn89 O90 2.028 . S
Zn89 O92 2.028 . S
Zn89 O95 2.035 . S
O90 Zn89 2.028 . S
O90 C96 1.247 . S
O91 Zn87 2.035 . S
O91 C96 1.258 . S
O92 C85 1.247 . S
O92 Zn89 2.028 . S
O93 C85 1.258 . S
O93 Zn87 2.035 . S
O94 Zn87 2.028 . S
O94 C97 1.247 . S
O95 Zn89 2.035 . S
O95 C97 1.258 . S
C96 O90 1.247 . S
C96 O91 1.258 . S
C97 O94 1.247 . S
C97 O95 1.258 . S
C98 O100 1.247 . S
C98 O102 1.258 . S
C99 O106 1.247 . S
C99 O107 1.258 . S
O100 C98 1.247 . S
O100 Zn101 2.028 . S
Zn101 O100 2.028 . S
Zn101 O105 2.035 . S
Zn101 O107 2.035 . S
Zn101 O108 2.028 . S
O102 C98 1.258 . S
O102 Zn103 2.035 . S
Zn103 O102 2.035 . S
Zn103 O104 2.028 . S
Zn103 O106 2.028 . S
Zn103 O109 2.035 . S
O104 Zn103 2.028 . S
O104 C110 1.247 . S
O105 Zn101 2.035 . S
O105 C110 1.258 . S
O106 C99 1.247 . S
O106 Zn103 2.028 . S
O107 C99 1.258 . S
O107 Zn101 2.035 . S
O108 Zn101 2.028 . S
O108 C111 1.247 . S
O109 Zn103 2.035 . S
O109 C111 1.258 . S
C110 O104 1.247 . S
C110 O105 1.258 . S
C111 O108 1.247 . S
C111 O109 1.258 . S
C112 O114 1.247 . S
C112 O116 1.258 . S
C113 O120 1.247 . S
C113 O121 1.258 . S
O114 C112 1.247 . S
O114 Zn115 2.028 . S
Zn115 O114 2.028 . S
Zn115 O119 2.035 . S
Zn115 O121 2.035 . S
Zn115 O122 2.028 . S
O116 C112 1.258 . S
O116 Zn117 2.035 . S
Zn117 O116 2.035 . S
Zn117 O118 2.028 . S
Zn117 O120 2.028 . S
Zn117 O123 2.035 . S
O118 Zn117 2.028 . S
O118 C124 1.247 . S
O119 Zn115 2.035 . S
O119 C124 1.258 . S
O120 C113 1.247 . S
O120 Zn117 2.028 . S
O121 C113 1.258 . S
O121 Zn115 2.035 . S
O122 Zn115 2.028 . S
O122 C125 1.247 . S
O123 Zn117 2.035 . S
O123 C125 1.258 . S
C124 O118 1.247 . S
C124 O119 1.258 . S
C125 O122 1.247 . S
C125 O123 1.258 . S
C126 O128 1.247 . S
C126 O130 1.258 . S
C127 O134 1.247 . S
C127 O135 1.258 . S
O128 C126 1.247 . S
O128 Zn129 2.028 . S
Zn129 O128 2.028 . S
Zn129 O133 2.035 . S
Zn129 O135 2.035 . S
Zn129 O136 2.028 . S
O130 C126 1.258 . S
O130 Zn131 2.035 . S
Zn131 O130 2.035 . S
Zn131 O132 2.028 . S
Zn131 O134 2.028 . S
Zn131 O137 2.035 . S
O132 Zn131 2.028 . S
O132 C138 1.247 . S
O133 Zn129 2.035 . S
O133 C138 1.258 . S
O134 C127 1.247 . S
O134 Zn131 2.028 . S
O135 C127 1.258 . S
O135 Zn129 2.035 . S
O136 Zn129 2.028 . S
O136 C139 1.247 . S
O137 Zn131 2.035 . S
O137 C139 1.258 . S
C138 O132 1.247 . S
C138 O133 1.258 . S
C139 O136 1.247 . S
C139 O137 1.258 . S
C140 O142 1.247 . S
C140 O144 1.258 1_565 S
C141 O148 1.247 . S
C141 O149 1.258 1_545 S
O142 C140 1.247 . S
O142 Zn143 2.028 . S
Zn143 O142 2.028 . S
Zn143 O147 2.035 . S
Zn143 O149 2.035 . S
Zn143 O150 2.028 . S
O144 C140 1.258 1_545 S
O144 Zn145 2.035 . S
Zn145 O144 2.035 . S
Zn145 O146 2.028 . S
Zn145 O148 2.028 . S
Zn145 O151 2.035 . S
O146 Zn145 2.028 . S
O146 C152 1.247 . S
O147 Zn143 2.035 . S
O147 C152 1.258 1_565 S
O148 C141 1.247 . S
O148 Zn145 2.028 . S
O149 C141 1.258 1_565 S
O149 Zn143 2.035 . S
O150 Zn143 2.028 . S
O150 C153 1.247 . S
O151 Zn145 2.035 . S
O151 C153 1.258 1_545 S
C152 O146 1.247 . S
C152 O147 1.258 1_545 S
C153 O150 1.247 . S
C153 O151 1.258 1_565 S
C154 O156 1.247 . S
C154 O158 1.258 1_554 S
C155 O162 1.247 1_554 S
C155 O163 1.258 . S
O156 C154 1.247 . S
O156 Zn157 2.028 . S
Zn157 O156 2.028 . S
Zn157 O161 2.035 . S
Zn157 O163 2.035 . S
Zn157 O164 2.028 . S
O158 C154 1.258 1_556 S
O158 Zn159 2.035 . S
Zn159 O158 2.035 . S
Zn159 O160 2.028 . S
Zn159 O162 2.028 . S
Zn159 O165 2.035 . S
O160 Zn159 2.028 . S
O160 C166 1.247 1_556 S
O161 Zn157 2.035 . S
O161 C166 1.258 . S
O162 C155 1.247 1_556 S
O162 Zn159 2.028 . S
O163 C155 1.258 . S
O163 Zn157 2.035 . S
O164 Zn157 2.028 . S
O164 C167 1.247 . S
O165 Zn159 2.035 . S
O165 C167 1.258 1_556 S
C166 O160 1.247 1_554 S
C166 O161 1.258 . S
C167 O164 1.247 . S
C167 O165 1.258 1_554 S
O168 Mn169 2.163 1_655 S
O168 C182 1.244 1_655 S
Mn169 O168 2.163 1_455 S
Mn169 O172 2.160 1_554 S
Mn169 O173 2.221 1_454 S
Mn169 O175 2.163 1_545 S
Mn169 O177 2.160 1_554 S
Mn169 O187 2.221 . S
O170 Mn171 2.087 . S
O170 C182 1.256 . S
Mn171 O170 2.087 . S
Mn171 O178 2.089 . S
Mn171 O187 2.290 . S
Mn171 O188 2.251 . S
O172 Mn169 2.160 1_556 S
O172 C183 1.239 1_545 S
O173 Mn169 2.221 1_656 S
O173 Mn174 2.290 1_545 S
O173 C184 1.278 . S
Mn174 O173 2.290 1_565 S
Mn174 O176 2.089 1_655 S
Mn174 O179 2.251 1_565 S
Mn174 O180 2.087 1_556 S
O175 Mn169 2.163 1_565 S
O175 C185 1.244 1_455 S
O176 Mn174 2.089 1_455 S
O176 C183 1.256 . S
O177 Mn169 2.160 1_556 S
O177 C186 1.239 1_556 S
O178 Mn171 2.089 . S
O178 C186 1.256 . S
O179 Mn174 2.251 1_545 S
O179 C184 1.241 . S
O180 Mn174 2.087 1_554 S
O180 C185 1.256 . S
C181 O187 1.278 . S
C181 O188 1.241 . S
C182 O168 1.244 1_455 S
C182 O170 1.256 . S
C183 O172 1.239 1_565 S
C183 O176 1.256 . S
C184 O173 1.278 . S
C184 O179 1.241 . S
C185 O175 1.244 1_655 S
C185 O180 1.256 . S
C186 O177 1.239 1_554 S
C186 O178 1.256 . S
O187 Mn169 2.221 . S
O187 Mn171 2.290 . S
O187 C181 1.278 . S
O188 Mn171 2.251 . S
O188 C181 1.241 . S
O189 Mn190 2.169 . S
O189 C203 1.247 . S
Mn190 O189 2.169 . S
Mn190 O193 2.160 1_554 S
Mn190 O194 2.221 1_654 S
Mn190 O196 2.163 . S
Mn190 O198 2.160 . S
Mn190 O208 2.221 . S
O191 Mn192 2.087 . S
O191 C203 1.256 . S
Mn192 O191 2.087 . S
Mn192 O199 2.089 . S
Mn192 O208 2.290 . S
Mn192 O209 2.251 . S
O193 Mn190 2.160 1_556 S
O193 C204 1.239 . S
O194 Mn190 2.221 1_456 S
O194 Mn195 2.290 . S
O194 C205 1.278 . S
Mn195 O194 2.290 . S
Mn195 O197 2.089 1_455 S
Mn195 O200 2.251 . S
Mn195 O201 2.087 1_556 S
O196 Mn190 2.163 . S
O196 C206 1.244 1_655 S
O197 Mn195 2.089 1_655 S
O197 C204 1.256 . S
O198 Mn190 2.160 . S
O198 C207 1.239 . S
O199 Mn192 2.089 . S
O199 C207 1.256 . S
O200 Mn195 2.251 . S
O200 C205 1.241 . S
O201 Mn195 2.087 1_554 S
O201 C206 1.256 . S
C202 O208 1.278 . S
C202 O209 1.241 . S
C203 O189 1.247 . S
C203 O191 1.256 . S
C204 O193 1.239 . S
C204 O197 1.256 . S
C205 O194 1.278 . S
C205 O200 1.241 . S
C206 O196 1.244 1_455 S
C206 O201 1.256 . S
C207 O198 1.239 . S
C207 O199 1.256 . S
O208 Mn190 2.221 . S
O208 Mn192 2.290 . S
O208 C202 1.278 . S
O209 Mn192 2.251 . S
O209 C202 1.241 . S
O210 Mn211 2.164 1_545 S
O210 C224 1.244 1_545 S
Mn211 O210 2.164 1_565 S
Mn211 O214 2.160 1_455 S
Mn211 O215 2.221 1_465 S
Mn211 O217 2.163 . S
Mn211 O219 2.160 . S
Mn211 O229 2.221 . S
O212 Mn213 2.087 . S
O212 C224 1.256 . S
Mn213 O212 2.087 . S
Mn213 O220 2.089 . S
Mn213 O229 2.290 . S
Mn213 O230 2.251 . S
O214 Mn211 2.160 1_655 S
O214 C225 1.239 . S
O215 Mn211 2.221 1_645 S
O215 Mn216 2.290 . S
O215 C226 1.278 . S
Mn216 O215 2.290 . S
Mn216 O218 2.089 1_545 S
Mn216 O221 2.251 . S
Mn216 O222 2.087 1_655 S
O217 Mn211 2.163 . S
O217 C227 1.244 1_565 S
O218 Mn216 2.089 1_565 S
O218 C225 1.256 . S
O219 Mn211 2.160 . S
O219 C228 1.239 . S
O220 Mn213 2.089 . S
O220 C228 1.256 . S
O221 Mn216 2.251 . S
O221 C226 1.241 . S
O222 Mn216 2.087 1_455 S
O222 C227 1.256 . S
C223 O229 1.278 . S
C223 O230 1.241 . S
C224 O210 1.244 1_565 S
C224 O212 1.256 . S
C225 O214 1.239 . S
C225 O218 1.256 . S
C226 O215 1.278 . S
C226 O221 1.241 . S
C227 O217 1.244 1_545 S
C227 O222 1.256 . S
C228 O219 1.239 . S
C228 O220 1.256 . S
O229 Mn211 2.221 . S
O229 Mn213 2.290 . S
O229 C223 1.278 . S
O230 Mn213 2.251 . S
O230 C223 1.241 . S
O231 Mn232 2.163 . S
O231 C245 1.244 . S
Mn232 O231 2.163 . S
Mn232 O235 2.160 . S
Mn232 O236 2.221 . S
Mn232 O238 2.163 1_655 S
Mn232 O240 2.160 . S
Mn232 O250 2.221 . S
O233 Mn234 2.087 . S
O233 C245 1.256 . S
Mn234 O233 2.087 . S
Mn234 O241 2.089 . S
Mn234 O250 2.290 . S
Mn234 O251 2.251 . S
O235 Mn232 2.160 . S
O235 C246 1.239 1_655 S
O236 Mn232 2.221 . S
O236 Mn237 2.290 1_655 S
O236 C247 1.278 . S
Mn237 O236 2.290 1_455 S
Mn237 O239 2.089 . S
Mn237 O242 2.251 1_455 S
Mn237 O243 2.087 . S
O238 Mn232 2.163 1_455 S
O238 C248 1.244 . S
O239 Mn237 2.089 . S
O239 C246 1.256 . S
O240 Mn232 2.160 . S
O240 C249 1.239 . S
O241 Mn234 2.089 . S
O241 C249 1.256 . S
O242 Mn237 2.251 1_655 S
O242 C247 1.241 . S
O243 Mn237 2.087 . S
O243 C248 1.256 . S
C244 O250 1.278 . S
C244 O251 1.241 . S
C245 O231 1.244 . S
C245 O233 1.256 . S
C246 O235 1.239 1_455 S
C246 O239 1.256 . S
C247 O236 1.278 . S
C247 O242 1.241 . S
C248 O238 1.244 . S
C248 O243 1.256 . S
C249 O240 1.239 . S
C249 O241 1.256 . S
O250 Mn232 2.221 . S
O250 Mn234 2.290 . S
O250 C244 1.278 . S
O251 Mn234 2.251 . S
O251 C244 1.241 . S
O252 Mn253 2.163 . S
O252 C266 1.244 . S
Mn253 O252 2.163 . S
Mn253 O256 2.160 . S
Mn253 O257 2.221 . S
Mn253 O259 2.163 1_565 S
Mn253 O261 2.160 . S
Mn253 O271 2.221 . S
O254 Mn255 2.087 . S
O254 C266 1.256 . S
Mn255 O254 2.087 . S
Mn255 O262 2.089 . S
Mn255 O271 2.290 . S
Mn255 O272 2.251 . S
O256 Mn253 2.160 . S
O256 C267 1.239 1_565 S
O257 Mn253 2.221 . S
O257 Mn258 2.290 1_565 S
O257 C268 1.278 . S
Mn258 O257 2.290 1_545 S
Mn258 O260 2.089 . S
Mn258 O263 2.251 1_545 S
Mn258 O264 2.087 . S
O259 Mn253 2.163 1_545 S
O259 C269 1.244 . S
O260 Mn258 2.089 . S
O260 C267 1.256 . S
O261 Mn253 2.160 . S
O261 C270 1.239 . S
O262 Mn255 2.089 . S
O262 C270 1.256 . S
O263 Mn258 2.251 1_565 S
O263 C268 1.241 . S
O264 Mn258 2.087 . S
O264 C269 1.256 . S
C265 O271 1.278 . S
C265 O272 1.241 . S
C266 O252 1.244 . S
C266 O254 1.256 . S
C267 O256 1.239 1_545 S
C267 O260 1.256 . S
C268 O257 1.278 . S
C268 O263 1.241 . S
C269 O259 1.244 . S
C269 O264 1.256 . S
C270 O261 1.239 . S
C270 O262 1.256 . S
O271 Mn253 2.221 . S
O271 Mn255 2.290 . S
O271 C265 1.278 . S
O272 Mn255 2.251 . S
O272 C265 1.241 . S
O273 Mn274 2.163 . S
O273 C287 1.244 . S
Mn274 O273 2.163 . S
Mn274 O277 2.160 . S
Mn274 O278 2.221 . S
Mn274 O280 2.163 . S
Mn274 O282 2.160 . S
Mn274 O292 2.221 . S
O275 Mn276 2.087 . S
O275 C287 1.256 . S
Mn276 O275 2.087 . S
Mn276 O283 2.089 . S
Mn276 O292 2.290 . S
Mn276 O293 2.251 . S
O277 Mn274 2.160 . S
O277 C288 1.239 . S
O278 Mn274 2.221 . S
O278 Mn279 2.290 . S
O278 C289 1.278 . S
Mn279 O278 2.290 . S
Mn279 O281 2.089 . S
Mn279 O284 2.251 . S
Mn279 O285 2.087 . S
O280 Mn274 2.163 . S
O280 C290 1.244 . S
O281 Mn279 2.089 . S
O281 C288 1.256 . S
O282 Mn274 2.160 . S
O282 C291 1.239 . S
O283 Mn276 2.089 . S
O283 C291 1.256 . S
O284 Mn279 2.251 . S
O284 C289 1.241 . S
O285 Mn279 2.087 . S
O285 C290 1.256 . S
C286 O292 1.278 . S
C286 O293 1.241 . S
C287 O273 1.244 . S
C287 O275 1.256 . S
C288 O277 1.239 . S
C288 O281 1.256 . S
C289 O278 1.278 . S
C289 O284 1.241 . S
C290 O280 1.244 . S
C290 O285 1.256 . S
C291 O282 1.239 . S
C291 O283 1.256 . S
O292 Mn274 2.221 . S
O292 Mn276 2.290 . S
O292 C286 1.278 . S
O293 Mn276 2.251 . S
O293 C286 1.241 . S
O294 Mn295 2.163 . S
O294 C308 1.244 . S
Mn295 O294 2.163 . S
Mn295 O298 2.160 . S
Mn295 O299 2.221 . S
Mn295 O301 2.163 1_556 S
Mn295 O303 2.160 . S
Mn295 O313 2.221 . S
O296 Mn297 2.087 . S
O296 C308 1.256 . S
Mn297 O296 2.087 . S
Mn297 O304 2.089 . S
Mn297 O313 2.290 . S
Mn297 O314 2.251 . S
O298 Mn295 2.160 . S
O298 C309 1.239 1_556 S
O299 Mn295 2.221 . S
O299 Mn300 2.290 1_556 S
O299 C310 1.278 . S
Mn300 O299 2.290 1_554 S
Mn300 O302 2.089 . S
Mn300 O305 2.251 1_554 S
Mn300 O306 2.087 . S
O301 Mn295 2.163 1_554 S
O301 C311 1.244 . S
O302 Mn300 2.089 . S
O302 C309 1.256 . S
O303 Mn295 2.160 . S
O303 C312 1.239 . S
O304 Mn297 2.089 . S
O304 C312 1.256 . S
O305 Mn300 2.251 1_556 S
O305 C310 1.241 . S
O306 Mn300 2.087 . S
O306 C311 1.256 . S
C307 O313 1.278 . S
C307 O314 1.241 . S
C308 O294 1.244 . S
C308 O296 1.256 . S
C309 O298 1.239 1_554 S
C309 O302 1.256 . S
C310 O299 1.278 . S
C310 O305 1.241 . S
C311 O301 1.244 . S
C311 O306 1.256 . S
C312 O303 1.239 . S
C312 O304 1.256 . S
O313 Mn295 2.221 . S
O313 Mn297 2.290 . S
O313 C307 1.278 . S
O314 Mn297 2.251 . S
O314 C307 1.241 . S
O315 Mn316 2.163 . S
O315 C329 1.244 . S
Mn316 O315 2.163 . S
Mn316 O319 2.160 1_545 S
Mn316 O320 2.221 1_546 S
Mn316 O322 2.163 . S
Mn316 O324 2.160 . S
Mn316 O334 2.221 . S
O317 Mn318 2.087 . S
O317 C329 1.256 . S
Mn318 O317 2.087 . S
Mn318 O325 2.089 . S
Mn318 O334 2.290 . S
Mn318 O335 2.251 . S
O319 Mn316 2.160 1_565 S
O319 C330 1.239 . S
O320 Mn316 2.221 1_564 S
O320 Mn321 2.290 . S
O320 C331 1.278 . S
Mn321 O320 2.290 . S
Mn321 O323 2.089 1_554 S
Mn321 O326 2.251 . S
Mn321 O327 2.087 1_565 S
O322 Mn316 2.163 . S
O322 C332 1.244 1_556 S
O323 Mn321 2.089 1_556 S
O323 C330 1.256 . S
O324 Mn316 2.160 . S
O324 C333 1.239 . S
O325 Mn318 2.089 . S
O325 C333 1.256 . S
O326 Mn321 2.251 . S
O326 C331 1.241 . S
O327 Mn321 2.087 1_545 S
O327 C332 1.256 . S
C328 O334 1.278 . S
C328 O335 1.241 . S
C329 O315 1.244 . S
C329 O317 1.256 . S
C330 O319 1.239 . S
C330 O323 1.256 . S
C331 O320 1.278 . S
C331 O326 1.241 . S
C332 O322 1.244 1_554 S
C332 O327 1.256 . S
C333 O324 1.239 . S
C333 O325 1.256 . S
O334 Mn316 2.221 . S
O334 Mn318 2.290 . S
O334 C328 1.278 . S
O335 Mn318 2.251 . S
O335 C328 1.241 . S
C13 C226 2.029 1_455 S
C246 C1 1.952 . S
C185 C27 2.131 1_655 S
C15 C206 1.757 1_655 S
C28 C331 1.567 1_545 S
C55 C311 1.815 . S
C267 C40 2.113 1_545 S
C43 C288 1.978 . S
C205 C56 1.856 1_556 S
C248 C83 1.660 . S
C96 C225 1.890 . S
C71 C289 1.869 . S
C310 C99 2.029 . S
C330 C111 1.952 . S
C113 C290 2.131 . S
C269 C125 1.757 . S
C139 C247 1.572 . S
C153 C227 1.815 1_565 S
C204 C127 2.119 . S
C141 C183 1.979 1_545 S
C268 C84 1.856 . S
C332 C154 1.658 . S
C68 C309 1.889 . S
C166 C184 1.862 1_554 S
C182 C0 1.350 . S
C12 C203 1.210 1_455 S
C228 C14 1.261 . S
C244 C26 1.374 . S
C41 C181 0.767 . S
C42 C202 1.323 . S
C224 C29 1.145 . S
C54 C249 1.016 . S
C69 C186 1.144 . S
C223 C70 1.307 . S
C85 C245 1.498 . S
C82 C270 1.154 . S
C287 C110 1.350 . S
C98 C266 1.210 . S
C124 C312 1.261 . S
C112 C328 1.374 . S
C126 C286 0.770 . S
C265 C140 1.323 . S
C138 C308 1.146 . S
C333 C152 1.016 . S
C291 C97 1.143 . S
C307 C167 1.310 1_556 S
C329 C57 1.498 1_556 S
C155 C207 1.150 . S
