# Generated by pormake.
# Topology ocu, (6,8)-cn, num edge types: 1
# Building blocks:
#     Node 0, Type 0, BuildingBlock: HISSIN_clean_sbu_0, # of connection points: 6
#     Node 1, Type 0, BuildingBlock: HISSIN_clean_sbu_0, # of connection points: 6
#     Node 2, Type 0, BuildingBlock: HISSIN_clean_sbu_0, # of connection points: 6
#     Node 3, Type 0, BuildingBlock: HISSIN_clean_sbu_0, # of connection points: 6
#     Node 4, Type 0, BuildingBlock: HISSIN_clean_sbu_0, # of connection points: 6
#     Node 5, Type 0, BuildingBlock: HISSIN_clean_sbu_0, # of connection points: 6
#     Node 6, Type 0, BuildingBlock: HISSIN_clean_sbu_0, # of connection points: 6
#     Node 7, Type 0, BuildingBlock: HISSIN_clean_sbu_0, # of connection points: 6
#     Node 8, Type 1, BuildingBlock: TAGTUT_clean_sbu_1, # of connection points: 8
#     Node 9, Type 1, BuildingBlock: TAGTUT_clean_sbu_1, # of connection points: 8
#     Node 10, Type 1, BuildingBlock: TAGTUT_clean_sbu_1, # of connection points: 8
#     Node 11, Type 1, BuildingBlock: TAGTUT_clean_sbu_1, # of connection points: 8
#     Node 12, Type 1, BuildingBlock: TAGTUT_clean_sbu_1, # of connection points: 8
#     Node 13, Type 1, BuildingBlock: TAGTUT_clean_sbu_1, # of connection points: 8
#     Edge 14, Type (0, 1), BuildingBlock: KIFKEQ_clean_linker_1, # of connection points: 2
#     Edge 15, Type (0, 1), BuildingBlock: KIFKEQ_clean_linker_1, # of connection points: 2
#     Edge 16, Type (0, 1), BuildingBlock: KIFKEQ_clean_linker_1, # of connection points: 2
#     Edge 17, Type (0, 1), BuildingBlock: KIFKEQ_clean_linker_1, # of connection points: 2
#     Edge 18, Type (0, 1), BuildingBlock: KIFKEQ_clean_linker_1, # of connection points: 2
#     Edge 19, Type (0, 1), BuildingBlock: KIFKEQ_clean_linker_1, # of connection points: 2
#     Edge 20, Type (0, 1), BuildingBlock: KIFKEQ_clean_linker_1, # of connection points: 2
#     Edge 21, Type (0, 1), BuildingBlock: KIFKEQ_clean_linker_1, # of connection points: 2
#     Edge 22, Type (0, 1), BuildingBlock: KIFKEQ_clean_linker_1, # of connection points: 2
#     Edge 23, Type (0, 1), BuildingBlock: KIFKEQ_clean_linker_1, # of connection points: 2
#     Edge 24, Type (0, 1), BuildingBlock: KIFKEQ_clean_linker_1, # of connection points: 2
#     Edge 25, Type (0, 1), BuildingBlock: KIFKEQ_clean_linker_1, # of connection points: 2
#     Edge 26, Type (0, 1), BuildingBlock: KIFKEQ_clean_linker_1, # of connection points: 2
#     Edge 27, Type (0, 1), BuildingBlock: KIFKEQ_clean_linker_1, # of connection points: 2
#     Edge 28, Type (0, 1), BuildingBlock: KIFKEQ_clean_linker_1, # of connection points: 2
#     Edge 29, Type (0, 1), BuildingBlock: KIFKEQ_clean_linker_1, # of connection points: 2
#     Edge 30, Type (0, 1), BuildingBlock: KIFKEQ_clean_linker_1, # of connection points: 2
#     Edge 31, Type (0, 1), BuildingBlock: KIFKEQ_clean_linker_1, # of connection points: 2
#     Edge 32, Type (0, 1), BuildingBlock: KIFKEQ_clean_linker_1, # of connection points: 2
#     Edge 33, Type (0, 1), BuildingBlock: KIFKEQ_clean_linker_1, # of connection points: 2
#     Edge 34, Type (0, 1), BuildingBlock: KIFKEQ_clean_linker_1, # of connection points: 2
#     Edge 35, Type (0, 1), BuildingBlock: KIFKEQ_clean_linker_1, # of connection points: 2
#     Edge 36, Type (0, 1), BuildingBlock: KIFKEQ_clean_linker_1, # of connection points: 2
#     Edge 37, Type (0, 1), BuildingBlock: KIFKEQ_clean_linker_1, # of connection points: 2
#     Edge 38, Type (0, 1), BuildingBlock: KIFKEQ_clean_linker_1, # of connection points: 2
#     Edge 39, Type (0, 1), BuildingBlock: KIFKEQ_clean_linker_1, # of connection points: 2
#     Edge 40, Type (0, 1), BuildingBlock: KIFKEQ_clean_linker_1, # of connection points: 2
#     Edge 41, Type (0, 1), BuildingBlock: KIFKEQ_clean_linker_1, # of connection points: 2
#     Edge 42, Type (0, 1), BuildingBlock: KIFKEQ_clean_linker_1, # of connection points: 2
#     Edge 43, Type (0, 1), BuildingBlock: KIFKEQ_clean_linker_1, # of connection points: 2
#     Edge 44, Type (0, 1), BuildingBlock: KIFKEQ_clean_linker_1, # of connection points: 2
#     Edge 45, Type (0, 1), BuildingBlock: KIFKEQ_clean_linker_1, # of connection points: 2
#     Edge 46, Type (0, 1), BuildingBlock: KIFKEQ_clean_linker_1, # of connection points: 2
#     Edge 47, Type (0, 1), BuildingBlock: KIFKEQ_clean_linker_1, # of connection points: 2
#     Edge 48, Type (0, 1), BuildingBlock: KIFKEQ_clean_linker_1, # of connection points: 2
#     Edge 49, Type (0, 1), BuildingBlock: KIFKEQ_clean_linker_1, # of connection points: 2
#     Edge 50, Type (0, 1), BuildingBlock: KIFKEQ_clean_linker_1, # of connection points: 2
#     Edge 51, Type (0, 1), BuildingBlock: KIFKEQ_clean_linker_1, # of connection points: 2
#     Edge 52, Type (0, 1), BuildingBlock: KIFKEQ_clean_linker_1, # of connection points: 2
#     Edge 53, Type (0, 1), BuildingBlock: KIFKEQ_clean_linker_1, # of connection points: 2
#     Edge 54, Type (0, 1), BuildingBlock: KIFKEQ_clean_linker_1, # of connection points: 2
#     Edge 55, Type (0, 1), BuildingBlock: KIFKEQ_clean_linker_1, # of connection points: 2
#     Edge 56, Type (0, 1), BuildingBlock: KIFKEQ_clean_linker_1, # of connection points: 2
#     Edge 57, Type (0, 1), BuildingBlock: KIFKEQ_clean_linker_1, # of connection points: 2
#     Edge 58, Type (0, 1), BuildingBlock: KIFKEQ_clean_linker_1, # of connection points: 2
#     Edge 59, Type (0, 1), BuildingBlock: KIFKEQ_clean_linker_1, # of connection points: 2
#     Edge 60, Type (0, 1), BuildingBlock: KIFKEQ_clean_linker_1, # of connection points: 2
#     Edge 61, Type (0, 1), BuildingBlock: KIFKEQ_clean_linker_1, # of connection points: 2
# Relax obj value: 0.100
# Max RMSD: 0.210
# Mean RMSD: 0.124
data_MOF--net-ocu--node1-HISSIN_clean_sbu_0--node2-TAGTUT_clean_sbu_1--edge1-KIFKEQ_clean_linker_1
_symmetry_space_group_name_H-M    P1
_symmetry_Int_Tables_number       1
_symmetry_cell_setting            triclinic
loop_
_symmetry_equiv_pos_as_xyz
'x, y, z'
_cell_length_a     41.63486
_cell_length_b     40.973082
_cell_length_c     42.149089
_cell_angle_alpha  102.18183
_cell_angle_beta   81.39151
_cell_angle_gamma 113.68825
loop_
_atom_site_label
_atom_site_type_symbol
_atom_site_fract_x
_atom_site_fract_y
_atom_site_fract_z
_atom_type_partial_charge
Eu0 Eu 0.31209 0.2674 0.28643 0.0
Eu1 Eu 0.24645 0.2399 0.23695 0.0
C2 C 0.2366 0.20247 0.29937 0.0
C3 C 0.37814 0.26146 0.3363 0.0
C4 C 0.36073 0.22382 0.33375 0.0
C5 C 0.42542 0.25835 0.36162 0.0
C6 C 0.3755 0.20359 0.34518 0.0
C7 C 0.41056 0.27854 0.35026 0.0
C8 C 0.40809 0.22056 0.35927 0.0
C9 C 0.3631 0.28293 0.32383 0.0
O10 O 0.23461 0.27766 0.2798 0.0
O11 O 0.28805 0.30984 0.30214 0.0
C12 C 0.25509 0.3049 0.2997 0.0
O13 O 0.33549 0.29423 0.24234 0.0
O14 O 0.1908 0.2225 0.22891 0.0
O15 O 0.22956 0.23009 0.18801 0.0
O16 O 0.28542 0.29358 0.22535 0.0
C17 C 0.31979 0.30444 0.22387 0.0
O18 O 0.31051 0.21417 0.25636 0.0
O19 O 0.28342 0.21257 0.21211 0.0
O20 O 0.2288 0.19689 0.26902 0.0
O21 O 0.36781 0.28266 0.29255 0.0
O22 O 0.33114 0.27946 0.33485 0.0
O23 O 0.26376 0.23041 0.31112 0.0
C24 C 0.18096 0.2454 0.18584 0.0
C25 C 0.19823 0.28296 0.18734 0.0
C26 C 0.13284 0.24732 0.16086 0.0
C27 C 0.18301 0.30253 0.17548 0.0
C28 C 0.14814 0.2278 0.17264 0.0
C29 C 0.1501 0.28497 0.16197 0.0
C30 C 0.19686 0.22441 0.19798 0.0
C31 C 0.30384 0.20259 0.22555 0.0
H32 H 0.33568 0.21008 0.32294 0.0
H33 H 0.45075 0.27237 0.37182 0.0
H34 H 0.36111 0.17469 0.34333 0.0
H35 H 0.42453 0.30754 0.35222 0.0
H36 H 0.2236 0.29714 0.1975 0.0
H37 H 0.10727 0.23289 0.15118 0.0
H38 H 0.19736 0.33133 0.1764 0.0
H39 H 0.13428 0.19887 0.17143 0.0
Eu40 Eu 0.81801 0.22821 0.25695 0.0
Eu41 Eu 0.74958 0.26024 0.2559 0.0
C42 C 0.80691 0.29948 0.30735 0.0
C43 C 0.88207 0.18614 0.27275 0.0
C44 C 0.86439 0.16448 0.29663 0.0
C45 C 0.92651 0.16011 0.26386 0.0
C46 C 0.87823 0.14161 0.30468 0.0
C47 C 0.91274 0.18313 0.25594 0.0
C48 C 0.90994 0.1398 0.28894 0.0
C49 C 0.87146 0.21477 0.26755 0.0
O50 O 0.7977 0.29943 0.23325 0.0
O51 O 0.83598 0.26885 0.22266 0.0
C52 C 0.82679 0.29533 0.21962 0.0
O53 O 0.79312 0.1842 0.21487 0.0
O54 O 0.70503 0.27702 0.26902 0.0
O55 O 0.71534 0.25386 0.21893 0.0
O56 O 0.75994 0.21525 0.22584 0.0
C57 C 0.76598 0.18848 0.2079 0.0
O58 O 0.7697 0.19462 0.28566 0.0
O59 O 0.72619 0.21739 0.28682 0.0
O60 O 0.77517 0.29396 0.30059 0.0
O61 O 0.86344 0.21364 0.23847 0.0
O62 O 0.85121 0.22527 0.2905 0.0
O63 O 0.82628 0.28156 0.29122 0.0
C64 C 0.68367 0.29255 0.22719 0.0
C65 C 0.69231 0.29939 0.19506 0.0
C66 C 0.64459 0.32498 0.23523 0.0
C67 C 0.67683 0.31843 0.18304 0.0
C68 C 0.65998 0.30583 0.24722 0.0
C69 C 0.65235 0.33086 0.20284 0.0
C70 C 0.69575 0.26834 0.2391 0.0
C71 C 0.73805 0.19514 0.2948 0.0
H72 H 0.84067 0.16628 0.31002 0.0
H73 H 0.95065 0.15897 0.25091 0.0
H74 H 0.86496 0.12677 0.32441 0.0
H75 H 0.92681 0.19962 0.23745 0.0
H76 H 0.7103 0.2893 0.1789 0.0
H77 H 0.62557 0.33391 0.25094 0.0
H78 H 0.68365 0.323 0.15807 0.0
H79 H 0.65246 0.30039 0.2719 0.0
Eu80 Eu 0.78712 0.78108 0.23132 0.0
Eu81 Eu 0.77371 0.72612 0.28438 0.0
C82 C 0.71454 0.71056 0.23588 0.0
C83 C 0.76969 0.83677 0.17965 0.0
C84 C 0.73562 0.81229 0.17216 0.0
C85 C 0.75701 0.88461 0.16548 0.0
C86 C 0.71253 0.82384 0.16107 0.0
C87 C 0.78012 0.87298 0.17634 0.0
C88 C 0.72297 0.86017 0.15751 0.0
C89 C 0.79417 0.82533 0.19199 0.0
O90 O 0.79427 0.7 0.23782 0.0
O91 O 0.81946 0.74763 0.20914 0.0
C92 C 0.81472 0.71506 0.21358 0.0
O93 O 0.82824 0.80901 0.26773 0.0
O94 O 0.75814 0.6742 0.30049 0.0
O95 O 0.78069 0.7241 0.33407 0.0
O96 O 0.83147 0.75798 0.27749 0.0
C97 C 0.84515 0.79288 0.27819 0.0
O98 O 0.74377 0.78776 0.2675 0.0
O99 O 0.75933 0.77327 0.31077 0.0
O100 O 0.72084 0.7057 0.26383 0.0
O101 O 0.79884 0.83572 0.223 0.0
O102 O 0.79111 0.79187 0.18208 0.0
O103 O 0.73794 0.7334 0.21821 0.0
C104 C 0.79582 0.676 0.33843 0.0
C105 C 0.79489 0.67268 0.37099 0.0
C106 C 0.84659 0.65901 0.32609 0.0
C107 C 0.8197 0.66278 0.38113 0.0
C108 C 0.8219 0.6692 0.31602 0.0
C109 C 0.84593 0.65596 0.35883 0.0
C110 C 0.77112 0.68908 0.32879 0.0
C111 C 0.74265 0.78878 0.29891 0.0
H112 H 0.72685 0.78422 0.17479 0.0
H113 H 0.76578 0.91291 0.16368 0.0
H114 H 0.68673 0.80416 0.15485 0.0
H115 H 0.80612 0.89237 0.18238 0.0
H116 H 0.7752 0.67816 0.3887 0.0
H117 H 0.86666 0.65428 0.30841 0.0
H118 H 0.81822 0.66026 0.40643 0.0
H119 H 0.82346 0.67226 0.29087 0.0
Eu120 Eu 0.30434 0.72936 0.26187 0.0
Eu121 Eu 0.2557 0.76862 0.24757 0.0
C122 C 0.25611 0.69635 0.20113 0.0
C123 C 0.32817 0.65235 0.25788 0.0
C124 C 0.35474 0.63983 0.24426 0.0
C125 C 0.28486 0.59796 0.2299 0.0
C126 C 0.34661 0.60731 0.2224 0.0
C127 C 0.29297 0.63033 0.2518 0.0
C128 C 0.31182 0.58714 0.21371 0.0
C129 C 0.33735 0.6908 0.27135 0.0
O130 O 0.22829 0.7396 0.29009 0.0
O131 O 0.24746 0.69395 0.27153 0.0
C132 C 0.22495 0.70628 0.28958 0.0
O133 O 0.30117 0.7672 0.30817 0.0
O134 O 0.20612 0.77534 0.24795 0.0
O135 O 0.25455 0.81371 0.22879 0.0
O136 O 0.29151 0.80804 0.28544 0.0
C137 C 0.30013 0.79905 0.30995 0.0
O138 O 0.34109 0.77962 0.24135 0.0
O139 O 0.30032 0.77575 0.20903 0.0
O140 O 0.23679 0.71496 0.21457 0.0
O141 O 0.34839 0.71191 0.24943 0.0
O142 O 0.31435 0.6985 0.2929 0.0
O143 O 0.28622 0.70208 0.21182 0.0
C144 C 0.22009 0.83772 0.26674 0.0
C145 C 0.21219 0.83181 0.29915 0.0
C146 C 0.24388 0.90257 0.28615 0.0
C147 C 0.2214 0.86074 0.32462 0.0
C148 C 0.23486 0.87338 0.26042 0.0
C149 C 0.23858 0.89624 0.31834 0.0
C150 C 0.22253 0.80807 0.24121 0.0
C151 C 0.33324 0.78771 0.21572 0.0
H152 H 0.38204 0.65663 0.24832 0.0
H153 H 0.25786 0.58282 0.22378 0.0
H154 H 0.36802 0.59982 0.21003 0.0
H155 H 0.27194 0.63949 0.2618 0.0
H156 H 0.2012 0.80474 0.30499 0.0
H157 H 0.25654 0.92986 0.28087 0.0
H158 H 0.21595 0.85526 0.34934 0.0
H159 H 0.24174 0.87856 0.23563 0.0
Eu160 Eu 0.31759 0.73455 0.76408 0.0
Eu161 Eu 0.24449 0.76643 0.75763 0.0
C162 C 0.29309 0.804 0.80664 0.0
C163 C 0.38695 0.70969 0.79419 0.0
C164 C 0.37011 0.68751 0.81783 0.0
C165 C 0.43474 0.68844 0.78686 0.0
C166 C 0.38572 0.66632 0.82619 0.0
C167 C 0.41921 0.70974 0.77863 0.0
C168 C 0.41838 0.66679 0.81101 0.0
C169 C 0.37253 0.73432 0.78642 0.0
O170 O 0.29374 0.80209 0.73198 0.0
O171 O 0.33696 0.77813 0.73216 0.0
C172 C 0.32542 0.80086 0.72378 0.0
O173 O 0.29499 0.69037 0.72126 0.0
O174 O 0.1931 0.7699 0.76597 0.0
O175 O 0.21483 0.75878 0.71632 0.0
O176 O 0.26747 0.72598 0.73647 0.0
C177 C 0.26984 0.69885 0.71523 0.0
O178 O 0.26829 0.69939 0.79023 0.0
O179 O 0.22495 0.72295 0.78949 0.0
O180 O 0.26669 0.81048 0.80045 0.0
O181 O 0.36982 0.73287 0.75558 0.0
O182 O 0.34593 0.73861 0.80511 0.0
O183 O 0.29628 0.77646 0.7864 0.0
C184 C 0.17575 0.79016 0.72536 0.0
C185 C 0.19104 0.8081 0.69864 0.0
C186 C 0.13135 0.81621 0.73377 0.0
C187 C 0.1764 0.82972 0.68945 0.0
C188 C 0.14588 0.79452 0.74285 0.0
C189 C 0.14624 0.83384 0.70681 0.0
C190 C 0.18938 0.76575 0.7349 0.0
C191 C 0.23654 0.7005 0.79826 0.0
H192 H 0.34524 0.687 0.83032 0.0
H193 H 0.45968 0.68911 0.77445 0.0
H194 H 0.37266 0.65041 0.84527 0.0
H195 H 0.4327 0.72671 0.76037 0.0
H196 H 0.21399 0.80511 0.68458 0.0
H197 H 0.1084 0.81912 0.74789 0.0
H198 H 0.1882 0.84246 0.66824 0.0
H199 H 0.13354 0.78085 0.76347 0.0
Eu200 Eu 0.28578 0.2795 0.73404 0.0
Eu201 Eu 0.2711 0.22136 0.78427 0.0
C202 C 0.21666 0.2092 0.7338 0.0
C203 C 0.26222 0.33241 0.68371 0.0
C204 C 0.2295 0.30761 0.6727 0.0
C205 C 0.24691 0.38158 0.67647 0.0
C206 C 0.20598 0.3197 0.66318 0.0
C207 C 0.27055 0.36946 0.68568 0.0
C208 C 0.21447 0.35686 0.66471 0.0
C209 C 0.28783 0.32014 0.69312 0.0
O210 O 0.31328 0.21285 0.74782 0.0
O211 O 0.30574 0.23673 0.70606 0.0
C212 C 0.31817 0.21668 0.71713 0.0
O213 O 0.3379 0.29972 0.75528 0.0
O214 O 0.25863 0.1666 0.79268 0.0
O215 O 0.26521 0.21028 0.83362 0.0
O216 O 0.32061 0.26842 0.79871 0.0
C217 C 0.34374 0.29308 0.78254 0.0
O218 O 0.26693 0.3035 0.78271 0.0
O219 O 0.23519 0.25151 0.80377 0.0
O220 O 0.23355 0.19354 0.7449 0.0
O221 O 0.29857 0.33318 0.72241 0.0
O222 O 0.28178 0.28576 0.68497 0.0
O223 O 0.22846 0.24434 0.73681 0.0
C224 C 0.28713 0.16602 0.83663 0.0
C225 C 0.32059 0.19122 0.84526 0.0
C226 C 0.30113 0.11861 0.84989 0.0
C227 C 0.34397 0.18024 0.85651 0.0
C228 C 0.27765 0.12969 0.83896 0.0
C229 C 0.33455 0.14376 0.85898 0.0
C230 C 0.2626 0.17694 0.8238 0.0
C231 C 0.24255 0.28581 0.80338 0.0
H232 H 0.22213 0.2788 0.67111 0.0
H233 H 0.25412 0.41042 0.67863 0.0
H234 H 0.18151 0.29981 0.65392 0.0
H235 H 0.29546 0.3891 0.69432 0.0
H236 H 0.32873 0.21942 0.84328 0.0
H237 H 0.29317 0.09019 0.85082 0.0
H238 H 0.36924 0.20045 0.86363 0.0
H239 H 0.25217 0.10977 0.83199 0.0
Eu240 Eu 0.8011 0.23531 0.76584 0.0
Eu241 Eu 0.74938 0.27186 0.7528 0.0
C242 C 0.75536 0.20303 0.70498 0.0
C243 C 0.82647 0.15898 0.76085 0.0
C244 C 0.8532 0.14662 0.7475 0.0
C245 C 0.78361 0.10489 0.73209 0.0
C246 C 0.84538 0.11431 0.72538 0.0
C247 C 0.79138 0.13699 0.75434 0.0
C248 C 0.81078 0.09428 0.71615 0.0
C249 C 0.83547 0.19742 0.77412 0.0
O250 O 0.7139 0.21992 0.77096 0.0
O251 O 0.75467 0.22331 0.80317 0.0
C252 C 0.72182 0.21128 0.79618 0.0
O253 O 0.82079 0.29033 0.79626 0.0
O254 O 0.7048 0.28819 0.76765 0.0
O255 O 0.73525 0.30027 0.72223 0.0
O256 O 0.76837 0.29802 0.803 0.0
C257 C 0.80018 0.30671 0.8116 0.0
O258 O 0.8298 0.26861 0.72603 0.0
O259 O 0.8045 0.31007 0.74147 0.0
O260 O 0.75442 0.23487 0.70639 0.0
O261 O 0.84518 0.21806 0.75195 0.0
O262 O 0.81299 0.2051 0.79629 0.0
O263 O 0.76386 0.19446 0.72981 0.0
C264 C 0.72213 0.34679 0.75751 0.0
C265 C 0.69574 0.35877 0.77302 0.0
C266 C 0.76648 0.40268 0.78221 0.0
C267 C 0.70462 0.3918 0.79422 0.0
C268 C 0.7576 0.36983 0.76096 0.0
C269 C 0.74003 0.41302 0.80034 0.0
C270 C 0.7133 0.30816 0.74498 0.0
C271 C 0.82926 0.30019 0.72487 0.0
H272 H 0.88041 0.16344 0.75189 0.0
H273 H 0.75675 0.08986 0.72549 0.0
H274 H 0.86693 0.10694 0.7132 0.0
H275 H 0.77027 0.14611 0.76421 0.0
H276 H 0.66827 0.34123 0.77101 0.0
H277 H 0.79392 0.41861 0.78638 0.0
H278 H 0.68363 0.39894 0.80814 0.0
H279 H 0.77851 0.36114 0.74951 0.0
Eu280 Eu 0.80716 0.76203 0.78619 0.0
Eu281 Eu 0.74279 0.7369 0.73621 0.0
C282 C 0.73401 0.69775 0.79742 0.0
C283 C 0.87162 0.75546 0.83771 0.0
C284 C 0.85505 0.7177 0.83476 0.0
C285 C 0.91958 0.75342 0.86279 0.0
C286 C 0.87051 0.69796 0.84598 0.0
C287 C 0.90401 0.77312 0.85168 0.0
C288 C 0.90299 0.71555 0.86024 0.0
C289 C 0.85551 0.77661 0.82619 0.0
O290 O 0.74615 0.79084 0.76612 0.0
O291 O 0.76884 0.78746 0.81103 0.0
C292 C 0.75085 0.80012 0.79741 0.0
O293 O 0.82593 0.8061 0.75504 0.0
O294 O 0.68719 0.72257 0.73039 0.0
O295 O 0.72351 0.72474 0.68788 0.0
O296 O 0.79105 0.77455 0.71238 0.0
C297 C 0.81823 0.80185 0.72483 0.0
O298 O 0.82001 0.72583 0.74289 0.0
O299 O 0.76697 0.69453 0.71969 0.0
O300 O 0.71919 0.71073 0.78062 0.0
O301 O 0.86248 0.78012 0.79562 0.0
O302 O 0.82244 0.76972 0.83541 0.0
O303 O 0.76822 0.70702 0.79495 0.0
C304 C 0.67647 0.74257 0.68603 0.0
C305 C 0.69306 0.78031 0.68895 0.0
C306 C 0.62961 0.74433 0.65907 0.0
C307 C 0.67806 0.79994 0.67691 0.0
C308 C 0.64467 0.72476 0.67105 0.0
C309 C 0.64609 0.78221 0.66179 0.0
C310 C 0.69166 0.7216 0.69902 0.0
C311 C 0.7998 0.69919 0.72243 0.0
H312 H 0.83003 0.7035 0.82395 0.0
H313 H 0.94482 0.7679 0.87309 0.0
H314 H 0.85668 0.66896 0.84395 0.0
H315 H 0.91733 0.80221 0.85398 0.0
H316 H 0.71764 0.79457 0.70051 0.0
H317 H 0.60476 0.72976 0.64807 0.0
H318 H 0.69178 0.82896 0.67909 0.0
H319 H 0.63135 0.69567 0.66877 0.0
C320 C 0.90873 0.02092 0.51889 0.0
C321 C 0.98867 0.03932 0.43885 0.0
C322 C 1.00473 0.923 0.4555 0.0
Mg323 Mg 0.99052 0.0587 0.51356 0.0
O324 O 0.9846 0.01116 0.51454 0.0
Mg325 Mg 0.95498 0.97083 0.4827 0.0
Mg326 Mg 1.02615 0.99787 0.50939 0.0
O327 O 0.0683 0.9854 0.50419 0.0
Mg328 Mg 0.0641 0.93815 0.50281 0.0
Mg329 Mg 0.09659 0.02517 0.53755 0.0
C330 C 0.04876 0.07299 0.5616 0.0
C331 C 0.09239 0.05736 0.47438 0.0
O332 O 0.91058 0.9914 0.50263 0.0
O333 O 0.93601 0.04967 0.52603 0.0
O334 O 0.97152 0.00621 0.44223 0.0
O335 O 1.00129 0.06404 0.46301 0.0
O336 O 0.02976 0.08574 0.55057 0.0
O337 O 0.04869 0.04144 0.55043 0.0
C338 C 0.96033 0.9401 0.54617 0.0
O339 O 0.99364 0.95837 0.5451 0.0
O340 O 0.94126 0.93984 0.52485 0.0
O341 O 0.14242 0.00679 0.51883 0.0
O342 O 0.11933 0.9492 0.49304 0.0
O343 O 0.07959 0.98708 0.57622 0.0
C344 C 0.1457 0.97807 0.50231 0.0
O345 O 0.05126 0.92996 0.5524 0.0
O346 O 1.02649 0.9121 0.46443 0.0
C347 C 0.06295 0.95333 0.57763 0.0
O348 O 1.0024 0.95322 0.46876 0.0
O349 O 0.05929 0.0379 0.47406 0.0
O350 O 0.11074 0.05788 0.49649 0.0
C351 C 0.44698 0.07481 0.07415 0.0
C352 C 0.47829 0.06484 0.97153 0.0
C353 C 0.46545 0.93 0.97571 0.0
Mg354 Mg 0.51802 0.08236 0.03307 0.0
O355 O 0.50154 0.03271 0.03448 0.0
Mg356 Mg 0.4531 0.00173 0.02034 0.0
Mg357 Mg 0.52781 0.00275 1.00876 0.0
O358 O 0.55418 0.9728 0.98305 0.0
Mg359 Mg 0.53797 0.92367 0.9864 0.0
Mg360 Mg 0.60292 0.00416 0.99624 0.0
C361 C 0.5904 0.07508 0.04251 0.0
C362 C 0.57998 0.04568 0.95124 0.0
O363 O 0.43313 0.04229 0.05856 0.0
O364 O 0.47969 0.09453 0.06937 0.0
O365 O 0.45838 0.03505 0.98109 0.0
O366 O 0.50511 0.08714 0.98666 0.0
O367 O 0.57241 0.09477 0.04395 0.0
O368 O 0.57762 0.04076 0.03248 0.0
C369 C 0.47504 0.96024 0.06617 0.0
O370 O 0.50566 0.96793 0.05074 0.0
O371 O 0.45202 0.97032 0.0589 0.0
O372 O 0.6223 0.96349 0.95783 0.0
O373 O 0.57597 0.91032 0.95081 0.0
O374 O 0.59931 0.97139 0.03568 0.0
C375 C 0.60824 0.93015 0.94422 0.0
O376 O 0.55181 0.92008 0.03275 0.0
O377 O 0.48354 0.91069 0.97552 0.0
C378 C 0.57964 0.94225 0.04643 0.0
O379 O 0.47813 0.96456 0.98465 0.0
O380 O 0.54969 0.03779 0.9672 0.0
O381 O 0.60336 0.03549 0.95748 0.0
C382 C 0.95755 0.58425 0.06923 0.0
C383 C 0.99405 0.577 0.96946 0.0
C384 C 0.96099 0.43402 0.9736 0.0
Mg385 Mg 0.02818 0.5842 0.03272 0.0
O386 O 1.00542 0.53431 0.03162 0.0
Mg387 Mg 0.95756 0.5099 0.0147 0.0
Mg388 Mg 1.02719 0.49912 1.00852 0.0
O389 O 0.04876 0.46371 0.98554 0.0
Mg390 Mg 1.02557 0.41389 0.9856 0.0
Mg391 Mg 0.09657 0.48814 1.00259 0.0
C392 C 0.09326 0.56419 0.04329 0.0
C393 C 0.08775 0.53615 0.95458 0.0
O394 O 0.94181 0.55363 0.05136 0.0
O395 O 0.99122 0.60009 0.06813 0.0
O396 O 0.97077 0.54678 0.97579 0.0
O397 O 1.02018 0.59503 0.98694 0.0
O398 O 0.08004 0.58787 0.0435 0.0
O399 O 0.07585 0.53006 0.03567 0.0
C400 C 0.96687 0.4619 0.06248 0.0
O401 O 0.99763 0.46585 0.04893 0.0
O402 O 0.9477 0.47581 0.0537 0.0
O403 O 0.11196 0.44443 0.96577 0.0
O404 O 0.06247 0.397 0.95098 0.0
O405 O 0.08352 0.45148 0.04169 0.0
C406 C 0.09611 0.41322 0.94881 0.0
O407 O 0.03351 0.40368 0.03174 0.0
O408 O 0.97389 0.41018 0.97382 0.0
C409 C 0.06009 0.42165 0.04871 0.0
O410 O 0.97847 0.46809 0.98154 0.0
O411 O 0.05693 0.53248 0.9679 0.0
O412 O 0.10656 0.5221 0.96371 0.0
C413 C 0.41014 0.51781 0.01843 0.0
C414 C 0.49599 0.54843 0.94475 0.0
C415 C 0.51165 0.42882 0.95216 0.0
Mg416 Mg 0.49157 0.55809 0.01942 0.0
O417 O 0.48686 0.51027 0.01607 0.0
Mg418 Mg 0.46061 0.47314 0.97992 0.0
Mg419 Mg 0.52976 0.49914 0.01039 0.0
O420 O 0.57272 0.48827 1.00427 0.0
Mg421 Mg 0.56893 0.44062 1.00022 0.0
Mg422 Mg 0.60019 0.52619 0.03927 0.0
C423 C 0.54737 0.56918 0.06931 0.0
C424 C 0.5951 0.56455 0.98093 0.0
O425 O 0.41375 0.48992 1.00028 0.0
O426 O 0.4363 0.54644 0.02853 0.0
O427 O 0.4789 0.51447 0.94447 0.0
O428 O 0.50673 0.57031 0.97099 0.0
O429 O 0.52705 0.58126 0.05947 0.0
O430 O 0.55037 0.53955 0.05501 0.0
C431 C 0.46297 0.43485 0.03939 0.0
O432 O 0.49594 0.45444 0.04117 0.0
O433 O 0.44536 0.43637 0.01766 0.0
O434 O 0.647 0.51005 0.01708 0.0
O435 O 0.62429 0.45326 0.98935 0.0
O436 O 0.58425 0.4846 0.07454 0.0
C437 C 0.65052 0.48223 0.99869 0.0
O438 O 0.55581 0.42859 0.04861 0.0
O439 O 0.53154 0.41605 0.96169 0.0
C440 C 0.56759 0.4506 0.07448 0.0
O441 O 0.50979 0.45903 0.96596 0.0
O442 O 0.56257 0.54345 0.97956 0.0
O443 O 0.61389 0.56393 1.00208 0.0
C444 C 0.94579 0.5758 0.57087 0.0
C445 C 0.98405 0.57017 0.47051 0.0
C446 C 0.97148 0.4357 0.47364 0.0
Mg447 Mg 1.01953 0.58562 0.53422 0.0
O448 O 1.00353 0.53608 0.5346 0.0
Mg449 Mg 0.95625 0.50491 0.51766 0.0
Mg450 Mg 0.03192 0.50715 0.51115 0.0
O451 O 0.05942 0.47757 0.48781 0.0
Mg452 Mg 0.04143 0.42765 0.48874 0.0
Mg453 Mg 0.1064 0.50784 0.5055 0.0
C454 C 0.09079 0.57911 0.54948 0.0
C455 C 0.09005 0.55113 0.45734 0.0
O456 O 0.93314 0.54347 0.5547 0.0
O457 O 0.97859 0.596 0.56789 0.0
O458 O 0.96357 0.53975 0.47865 0.0
O459 O 1.00997 0.5918 0.48712 0.0
O460 O 0.07239 0.59787 0.54879 0.0
O461 O 0.07935 0.54471 0.53925 0.0
C462 C 0.97481 0.4621 0.56484 0.0
O463 O 1.00634 0.47105 0.55147 0.0
O464 O 0.95219 0.472 0.55648 0.0
O465 O 0.12828 0.46764 0.46842 0.0
O466 O 0.08182 0.4159 0.4554 0.0
O467 O 0.0972 0.47288 0.54457 0.0
C468 C 0.11484 0.43528 0.45233 0.0
O469 O 0.05045 0.42111 0.53604 0.0
O470 O 0.98828 0.41531 0.47405 0.0
C471 C 0.07626 0.44268 0.55281 0.0
O472 O 0.98452 0.46994 0.48369 0.0
O473 O 0.05824 0.54306 0.47017 0.0
O474 O 0.11163 0.54074 0.46695 0.0
C475 C 0.45594 0.08379 0.56599 0.0
C476 C 0.49538 0.07757 0.46702 0.0
C477 C 0.46315 0.93441 0.47045 0.0
Mg478 Mg 0.52715 0.0835 0.53061 0.0
O479 O 0.50412 0.03377 0.5304 0.0
Mg480 Mg 0.4571 0.00949 0.51156 0.0
Mg481 Mg 0.52723 0.99939 0.50836 0.0
O482 O 0.55018 0.96487 0.48643 0.0
Mg483 Mg 0.52742 0.91496 0.48482 0.0
Mg484 Mg 0.59706 0.98893 0.50532 0.0
C485 C 0.59141 0.06457 0.54554 0.0
C486 C 0.59053 0.03766 0.45688 0.0
O487 O 0.44012 0.0524 0.54916 0.0
O488 O 0.48955 0.1001 0.56386 0.0
O489 O 0.47149 0.04778 0.47358 0.0
O490 O 0.52177 0.09481 0.48427 0.0
O491 O 0.57782 0.08749 0.54412 0.0
O492 O 0.57481 0.03022 0.53793 0.0
C493 C 0.4633 0.95884 0.55848 0.0
O494 O 0.4953 0.96471 0.54759 0.0
O495 O 0.44504 0.97299 0.54858 0.0
O496 O 0.6143 0.946 0.4684 0.0
O497 O 0.56536 0.89966 0.45063 0.0
O498 O 0.58207 0.95122 0.54369 0.0
C499 C 0.59899 0.91562 0.44997 0.0
O500 O 0.53294 0.90321 0.5311 0.0
O501 O 0.47674 0.91135 0.47144 0.0
C502 C 0.55842 0.92093 0.5494 0.0
O503 O 0.47971 0.96869 0.47862 0.0
O504 O 0.55919 0.03368 0.46887 0.0
O505 O 0.60876 0.02368 0.46703 0.0
H506 H 0.17149 0.14611 0.29099 0.0
H507 H 0.25021 0.20403 0.36071 0.0
H508 H 0.1345 0.10882 0.33158 0.0
H509 H 0.21345 0.16845 0.40068 0.0
H510 H 0.16205 0.07889 0.45642 0.0
H511 H 0.19449 0.10936 0.41161 0.0
H512 H 0.09906 0.11078 0.38443 0.0
H513 H 0.06588 0.07833 0.42916 0.0
C514 C 0.18097 0.15083 0.31476 0.0
C515 C 0.21395 0.17802 0.3224 0.0
C516 C 0.15966 0.12973 0.3381 0.0
C517 C 0.17108 0.13538 0.36938 0.0
C518 C 0.20398 0.16264 0.37674 0.0
C519 C 0.22509 0.18338 0.35366 0.0
C520 C 0.14779 0.08582 0.44115 0.0
C521 C 0.11135 0.07686 0.44695 0.0
C522 C 0.16651 0.10338 0.41531 0.0
C523 C 0.14962 0.11327 0.39468 0.0
C524 C 0.11294 0.10352 0.39979 0.0
C525 C 0.09395 0.08527 0.4256 0.0
H526 H 0.98004 0.15974 0.2958 0.0
H527 H 0.87872 0.07407 0.3095 0.0
H528 H 1.00701 0.13115 0.32271 0.0
H529 H 0.90531 0.04662 0.33801 0.0
H530 H 0.9572 0.99639 0.38379 0.0
H531 H 0.94417 0.01665 0.33869 0.0
H532 H 1.00557 0.12734 0.37854 0.0
H533 H 1.01937 0.10715 0.42292 0.0
C534 C 0.96358 0.13441 0.30394 0.0
C535 C 0.92707 0.11945 0.30082 0.0
C536 C 0.97903 0.11824 0.31972 0.0
C537 C 0.95833 0.08685 0.33295 0.0
C538 C 0.9222 0.07063 0.32796 0.0
C539 C 0.9068 0.08668 0.312 0.0
C540 C 0.96878 0.02497 0.38244 0.0
C541 C 0.98865 0.05023 0.40746 0.0
C542 C 0.96105 0.0366 0.35668 0.0
C543 C 0.97306 0.07368 0.35538 0.0
C544 C 0.99584 0.09855 0.37864 0.0
C545 C 1.00362 0.08695 0.40432 0.0
H546 H 0.88823 0.76751 0.29898 0.0
H547 H 0.87411 0.86612 0.29737 0.0
H548 H 0.93161 0.79992 0.33901 0.0
H549 H 0.91813 0.89864 0.33709 0.0
H550 H 0.94023 0.91896 0.44458 0.0
H551 H 0.90916 0.89094 0.39564 0.0
H552 H 0.98951 0.84962 0.35429 0.0
H553 H 1.02131 0.87861 0.40365 0.0
C554 C 0.89504 0.79631 0.30654 0.0
C555 C 0.87711 0.81414 0.29572 0.0
C556 C 0.92007 0.81487 0.32932 0.0
C557 C 0.92755 0.85152 0.34161 0.0
C558 C 0.91217 0.87013 0.32843 0.0
C559 C 0.88715 0.85158 0.30559 0.0
C560 C 0.95164 0.90444 0.42504 0.0
C561 C 0.98355 0.90163 0.42777 0.0
C562 C 0.93386 0.88842 0.39689 0.0
C563 C 0.94747 0.86898 0.37086 0.0
C564 C 0.97868 0.8648 0.37395 0.0
C565 C 0.99663 0.88106 0.40224 0.0
H566 H 0.22455 0.95729 0.33213 0.0
H567 H 0.27732 0.9016 0.36713 0.0
H568 H 0.22406 0.99318 0.38593 0.0
H569 H 0.27698 0.93764 0.42116 0.0
H570 H 0.19903 0.03576 0.48126 0.0
H571 H 0.24554 0.03161 0.43975 0.0
H572 H 0.2168 0.92034 0.44986 0.0
H573 H 0.17036 0.92444 0.49069 0.0
C574 C 0.23762 0.95406 0.35095 0.0
C575 C 0.2498 0.92598 0.34603 0.0
C576 C 0.23763 0.9748 0.38179 0.0
C577 C 0.2497 0.96747 0.40794 0.0
C578 C 0.26703 0.94339 0.40154 0.0
C579 C 0.26697 0.92263 0.37074 0.0
C580 C 0.20394 0.01104 0.47575 0.0
C581 C 0.18074 0.98005 0.48838 0.0
C582 C 0.23052 0.00871 0.45198 0.0
C583 C 0.23431 0.97552 0.44112 0.0
C584 C 0.21463 0.94636 0.45768 0.0
C585 C 0.18776 0.94851 0.48093 0.0
H586 H 0.076 0.81789 0.70478 0.0
H587 H 0.1788 0.89829 0.68439 0.0
H588 H 0.04888 0.85073 0.68342 0.0
H589 H 0.15181 0.93016 0.66163 0.0
H590 H 0.09955 0.99114 0.63148 0.0
H591 H 0.1152 0.96519 0.6709 0.0
H592 H 0.04549 0.85862 0.62934 0.0
H593 H 0.02936 0.8844 0.59056 0.0
C594 C 0.09282 0.84285 0.69617 0.0
C595 C 0.12963 0.85532 0.69606 0.0
C596 C 0.07725 0.86151 0.68368 0.0
C597 C 0.09812 0.89302 0.67072 0.0
C598 C 0.13486 0.90626 0.67181 0.0
C599 C 0.15041 0.88765 0.68437 0.0
C600 C 0.08662 0.96232 0.63146 0.0
C601 C 0.06376 0.93978 0.60734 0.0
C602 C 0.09589 0.94741 0.65387 0.0
C603 C 0.08232 0.90976 0.65272 0.0
C604 C 0.05653 0.88773 0.63095 0.0
C605 C 0.04731 0.90258 0.60856 0.0
H606 H 0.16782 0.23073 0.71839 0.0
H607 H 0.19821 0.13916 0.70423 0.0
H608 H 0.12301 0.19757 0.67963 0.0
H609 H 0.15474 0.10666 0.6645 0.0
H610 H 0.08371 0.14635 0.57678 0.0
H611 H 0.12082 0.17881 0.6223 0.0
H612 H 0.0949 0.07768 0.65572 0.0
H613 H 0.05977 0.04559 0.60963 0.0
C614 C 0.16468 0.20338 0.70717 0.0
C615 C 0.18649 0.18748 0.71418 0.0
C616 C 0.13925 0.18453 0.68476 0.0
C617 C 0.1355 0.14962 0.6687 0.0
C618 C 0.1565 0.1333 0.67675 0.0
C619 C 0.18154 0.15194 0.69948 0.0
C620 C 0.08609 0.13133 0.594 0.0
C621 C 0.06962 0.09359 0.5895 0.0
C622 C 0.10701 0.1498 0.62018 0.0
C623 C 0.11109 0.13076 0.64251 0.0
C624 C 0.09315 0.0931 0.63856 0.0
C625 C 0.07298 0.07472 0.61217 0.0
H626 H 0.77547 0.09089 0.66554 0.0
H627 H 0.8339 0.03889 0.69768 0.0
H628 H 0.78136 0.06062 0.60992 0.0
H629 H 0.83984 0.00869 0.64202 0.0
H630 H 0.88561 0.07593 0.53546 0.0
H631 H 0.84286 0.08073 0.5804 0.0
H632 H 0.81465 0.96898 0.5882 0.0
H633 H 0.85715 0.96398 0.54271 0.0
C634 C 0.78814 0.07168 0.66101 0.0
C635 C 0.80473 0.06755 0.68579 0.0
C636 C 0.79155 0.05447 0.62913 0.0
C637 C 0.8113 0.03267 0.62168 0.0
C638 C 0.82422 0.02516 0.64712 0.0
C639 C 0.82114 0.04267 0.67894 0.0
C640 C 0.86902 0.05193 0.5457 0.0
C641 C 0.87499 0.01983 0.53605 0.0
C642 C 0.8444 0.05457 0.57136 0.0
C643 C 0.82589 0.02531 0.58804 0.0
C644 C 0.82876 0.9919 0.57578 0.0
C645 C 0.85297 0.98907 0.54966 0.0
H646 H 0.8874 0.85056 0.72965 0.0
H647 H 0.79991 0.81003 0.66907 0.0
H648 H 0.92443 0.88742 0.68872 0.0
H649 H 0.83643 0.84485 0.62852 0.0
H650 H 0.89471 0.93161 0.57192 0.0
H651 H 0.86335 0.9044 0.61881 0.0
H652 H 0.95272 0.88193 0.63291 0.0
H653 H 0.98508 0.91131 0.5862 0.0
C654 C 0.87601 0.84977 0.70789 0.0
C655 C 0.8407 0.82733 0.70268 0.0
C656 C 0.89727 0.87051 0.6843 0.0
C657 C 0.88343 0.86928 0.65531 0.0
C658 C 0.84799 0.84721 0.65069 0.0
C659 C 0.82699 0.82684 0.674 0.0
C660 C 0.90774 0.92073 0.58483 0.0
C661 C 0.94212 0.92277 0.57483 0.0
C662 C 0.88972 0.90511 0.61185 0.0
C663 C 0.90512 0.89017 0.62934 0.0
C664 C 0.94005 0.89322 0.62007 0.0
C665 C 0.95849 0.90968 0.59317 0.0
H666 H 0.29148 0.16608 0.163 0.0
H667 H 0.35765 0.18756 0.24083 0.0
H668 H 0.32462 0.13311 0.1277 0.0
H669 H 0.39065 0.15466 0.20553 0.0
H670 H 0.46834 0.13638 0.11974 0.0
H671 H 0.43223 0.16423 0.15687 0.0
H672 H 0.33839 0.07784 0.11971 0.0
H673 H 0.37462 0.04977 0.08234 0.0
C674 C 0.31281 0.16347 0.17275 0.0
C675 C 0.32177 0.17956 0.20487 0.0
C676 C 0.33176 0.14442 0.15249 0.0
C677 C 0.36047 0.14132 0.16366 0.0
C678 C 0.36897 0.15681 0.19597 0.0
C679 C 0.34981 0.17549 0.21632 0.0
C680 C 0.44001 0.12311 0.1195 0.0
C681 C 0.42451 0.09071 0.0979 0.0
C682 C 0.41925 0.13904 0.14101 0.0
C683 C 0.38233 0.12332 0.1414 0.0
C684 C 0.36674 0.09085 0.11993 0.0
C685 C 0.38754 0.07462 0.09863 0.0
H686 H 0.89631 0.30993 0.20076 0.0
H687 H 0.81016 0.33995 0.19156 0.0
H688 H 0.93464 0.35312 0.16594 0.0
H689 H 0.84782 0.38186 0.15603 0.0
H690 H 0.92574 0.47551 0.11511 0.0
H691 H 0.89578 0.43779 0.15635 0.0
H692 H 0.94409 0.36216 0.11029 0.0
H693 H 0.97536 0.40114 0.06977 0.0
C694 C 0.88554 0.32565 0.19121 0.0
C695 C 0.85027 0.32166 0.19897 0.0
C696 C 0.90746 0.35028 0.1712 0.0
C697 C 0.8944 0.37114 0.15837 0.0
C698 C 0.85905 0.36694 0.16613 0.0
C699 C 0.83733 0.3427 0.18637 0.0
C700 C 0.93025 0.45102 0.11409 0.0
C701 C 0.95246 0.4409 0.08915 0.0
C702 C 0.91296 0.4293 0.13757 0.0
C703 C 0.91688 0.39653 0.1362 0.0
C704 C 0.94058 0.3873 0.11214 0.0
C705 C 0.95845 0.40951 0.08889 0.0
H706 H 0.73985 0.90878 0.11612 0.0
H707 H 0.65121 0.8393 0.17015 0.0
H708 H 0.70111 0.92962 0.09585 0.0
H709 H 0.61213 0.85979 0.14903 0.0
H710 H 0.63301 0.98527 0.08522 0.0
H711 H 0.66474 0.96576 0.1163 0.0
H712 H 0.58984 0.85587 0.09543 0.0
H713 H 0.55762 0.87541 0.06441 0.0
C714 C 0.71217 0.89825 0.12406 0.0
C715 C 0.69882 0.87254 0.14504 0.0
C716 C 0.6899 0.91021 0.11238 0.0
C717 C 0.65358 0.89667 0.12114 0.0
C718 C 0.63999 0.87065 0.1418 0.0
C719 C 0.6624 0.85883 0.15375 0.0
C720 C 0.62275 0.95704 0.08779 0.0
C721 C 0.59308 0.93179 0.07178 0.0
C722 C 0.64113 0.94584 0.10545 0.0
C723 C 0.63031 0.90915 0.10762 0.0
C724 C 0.5989 0.88433 0.0941 0.0
C725 C 0.58041 0.89555 0.07635 0.0
H726 H 0.28439 0.69655 0.13896 0.0
H727 H 0.1991 0.63448 0.20056 0.0
H728 H 0.25552 0.65646 0.09051 0.0
H729 H 0.17073 0.59397 0.15264 0.0
H730 H 0.14491 0.63146 0.04535 0.0
H731 H 0.19643 0.65603 0.07674 0.0
H732 H 0.17311 0.55022 0.09874 0.0
H733 H 0.12155 0.52539 0.06705 0.0
C734 C 0.26013 0.67349 0.14196 0.0
C735 C 0.24346 0.66843 0.173 0.0
C736 C 0.24377 0.65062 0.11444 0.0
C737 C 0.21099 0.62221 0.11792 0.0
C738 C 0.1962 0.61537 0.14926 0.0
C739 C 0.21214 0.63865 0.17663 0.0
C740 C 0.1514 0.61321 0.05599 0.0
C741 C 0.12874 0.57677 0.05456 0.0
C742 C 0.18116 0.62719 0.07363 0.0
C743 C 0.18839 0.60502 0.09043 0.0
C744 C 0.1679 0.56781 0.08607 0.0
C745 C 0.13837 0.55369 0.06802 0.0
H746 H 0.35649 0.80422 0.81497 0.0
H747 H 0.28092 0.85085 0.85908 0.0
H748 H 0.3918 0.83378 0.86177 0.0
H749 H 0.31722 0.88201 0.90561 0.0
H750 H 0.42775 0.96144 0.95357 0.0
H751 H 0.38177 0.93122 0.91518 0.0
H752 H 0.38161 0.82788 0.92315 0.0
H753 H 0.42711 0.85768 0.9615 0.0
C754 C 0.34716 0.82026 0.83497 0.0
C755 C 0.31545 0.8242 0.83395 0.0
C756 C 0.36746 0.83745 0.86163 0.0
C757 C 0.35683 0.85959 0.88759 0.0
C758 C 0.32581 0.86483 0.88603 0.0
C759 C 0.30516 0.84709 0.85944 0.0
C760 C 0.41712 0.93221 0.94797 0.0
C761 C 0.43162 0.91205 0.96012 0.0
C762 C 0.39085 0.91494 0.92591 0.0
C763 C 0.37884 0.87734 0.91568 0.0
C764 C 0.391 0.857 0.93015 0.0
C765 C 0.41697 0.87412 0.95222 0.0
H766 H 0.18699 0.25803 0.84714 0.0
H767 H 0.25063 0.35649 0.80941 0.0
H768 H 0.15189 0.28891 0.88202 0.0
H769 H 0.21521 0.38704 0.84379 0.0
H770 H 0.16751 0.44015 0.9345 0.0
H771 H 0.20292 0.40945 0.9002 0.0
H772 H 0.10901 0.31422 0.87853 0.0
H773 H 0.07355 0.34466 0.91327 0.0
C774 C 0.19356 0.28624 0.84628 0.0
C775 C 0.22173 0.30472 0.82546 0.0
C776 C 0.17324 0.30389 0.86612 0.0
C777 C 0.18064 0.34049 0.86571 0.0
C778 C 0.20899 0.359 0.84507 0.0
C779 C 0.22924 0.34136 0.8252 0.0
C780 C 0.15432 0.41269 0.9224 0.0
C781 C 0.11758 0.39495 0.92676 0.0
C782 C 0.17467 0.39512 0.90257 0.0
C783 C 0.15888 0.35929 0.88662 0.0
C784 C 0.12213 0.34162 0.89079 0.0
C785 C 0.10174 0.35923 0.91054 0.0
H786 H 0.72103 0.21745 0.86161 0.0
H787 H 0.66043 0.15427 0.77952 0.0
H788 H 0.67842 0.17767 0.89731 0.0
H789 H 0.61824 0.11348 0.81531 0.0
H790 H 0.60581 0.03011 0.88968 0.0
H791 H 0.63337 0.0714 0.85026 0.0
H792 H 0.60698 0.15438 0.91629 0.0
H793 H 0.57806 0.11237 0.95537 0.0
C794 C 0.69838 0.19521 0.85128 0.0
C795 C 0.69404 0.18889 0.8178 0.0
C796 C 0.6739 0.17262 0.87175 0.0
C797 C 0.64498 0.14264 0.85908 0.0
C798 C 0.64022 0.13657 0.82567 0.0
C799 C 0.66427 0.15987 0.80527 0.0
C800 C 0.60485 0.05677 0.89526 0.0
C801 C 0.5896 0.06803 0.92537 0.0
C802 C 0.62059 0.08035 0.87273 0.0
C803 C 0.62231 0.11604 0.88027 0.0
C804 C 0.60584 0.12692 0.90988 0.0
C805 C 0.58915 0.10291 0.93209 0.0
H806 H 0.90405 0.64848 0.83381 0.0
H807 H 0.93888 0.73502 0.91522 0.0
H808 H 0.92969 0.61407 0.85505 0.0
H809 H 0.96477 0.70086 0.93611 0.0
H810 H 0.0313 0.64535 0.9553 0.0
H811 H 1.01196 0.67836 0.92557 0.0
H812 H 0.91975 0.58235 0.90064 0.0
H813 H 0.93923 0.54915 0.9299 0.0
C814 C 0.91704 0.66017 0.85628 0.0
C815 C 0.91931 0.69465 0.87273 0.0
C816 C 0.93187 0.64045 0.86839 0.0
C817 C 0.94954 0.65473 0.8972 0.0
C818 C 0.95205 0.68929 0.91349 0.0
C819 C 0.93712 0.70892 0.90148 0.0
C820 C 1.00732 0.63097 0.94286 0.0
C821 C 0.98672 0.59458 0.94536 0.0
C822 C 0.99602 0.65006 0.92608 0.0
C823 C 0.96394 0.63324 0.91119 0.0
C824 C 0.94461 0.59621 0.91172 0.0
C825 C 0.95584 0.57713 0.92858 0.0
H826 H 0.11282 0.26384 0.10765 0.0
H827 H 0.15097 0.35324 0.18613 0.0
H828 H 0.08742 0.29764 0.0856 0.0
H829 H 0.12575 0.38724 0.16379 0.0
H830 H 1.02236 0.35402 0.06448 0.0
H831 H 0.04153 0.32157 0.09504 0.0
H832 H 0.13502 0.41704 0.11736 0.0
H833 H 0.1157 0.44967 0.08733 0.0
C834 C 0.11542 0.29052 0.12052 0.0
C835 C 0.13403 0.30567 0.14878 0.0
C836 C 0.10075 0.30995 0.10784 0.0
C837 C 0.10431 0.34519 0.12295 0.0
C838 C 0.12276 0.36033 0.15129 0.0
C839 C 0.13735 0.34083 0.16406 0.0
C840 C 0.04662 0.36841 0.0765 0.0
C841 C 0.06757 0.40447 0.07309 0.0
C842 C 0.05782 0.34963 0.09377 0.0
C843 C 0.09017 0.36642 0.10822 0.0
C844 C 0.10994 0.40318 0.10667 0.0
C845 C 0.0988 0.42194 0.08935 0.0
H846 H 0.16619 0.68561 0.81354 0.0
H847 H 0.25097 0.65713 0.83034 0.0
H848 H 0.12598 0.64367 0.84846 0.0
H849 H 0.21107 0.61613 0.86568 0.0
H850 H 0.12952 0.52168 0.90307 0.0
H851 H 0.16203 0.55946 0.8625 0.0
H852 H 0.11399 0.63606 0.90559 0.0
H853 H 0.08025 0.59712 0.94576 0.0
C854 C 0.17632 0.6705 0.82467 0.0
C855 C 0.21186 0.67466 0.81899 0.0
C856 C 0.15324 0.64659 0.84479 0.0
C857 C 0.16524 0.62639 0.85963 0.0
C858 C 0.20077 0.63069 0.85402 0.0
C859 C 0.22375 0.65439 0.83385 0.0
C860 C 0.12556 0.54637 0.9036 0.0
C861 C 0.10283 0.55685 0.92773 0.0
C862 C 0.14433 0.56812 0.8805 0.0
C863 C 0.14127 0.60118 0.88133 0.0
C864 C 0.1169 0.6107 0.90432 0.0
C865 C 0.09762 0.58851 0.92731 0.0
H866 H 0.31833 0.09315 0.89822 0.0
H867 H 0.40669 0.16793 0.84828 0.0
H868 H 0.35799 0.07347 0.91849 0.0
H869 H 0.44662 0.14873 0.86959 0.0
H870 H 0.49855 0.13275 0.95649 0.0
H871 H 0.46662 0.15177 0.92465 0.0
H872 H 0.39768 0.04046 0.89697 0.0
H873 H 0.42918 0.02142 0.92875 0.0
C874 C 0.34616 0.10511 0.89117 0.0
C875 C 0.35917 0.13198 0.87136 0.0
C876 C 0.36893 0.09383 0.90286 0.0
C877 C 0.4054 0.10928 0.89532 0.0
C878 C 0.41863 0.13641 0.87583 0.0
C879 C 0.39573 0.14749 0.8638 0.0
C880 C 0.47726 0.11226 0.94282 0.0
C881 C 0.466 0.07564 0.94569 0.0
C882 C 0.45894 0.12317 0.92463 0.0
C883 C 0.42914 0.09764 0.90901 0.0
C884 C 0.42002 0.06081 0.90943 0.0
C885 C 0.43825 0.04992 0.9275 0.0
H886 H 0.85902 0.36708 0.8133 0.0
H887 H 0.77046 0.30726 0.87347 0.0
H888 H 0.88739 0.40605 0.86178 0.0
H889 H 0.79948 0.34562 0.92248 0.0
H890 H 0.90907 0.36657 0.9692 0.0
H891 H 0.85859 0.34322 0.93644 0.0
H892 H 0.8838 0.45021 0.9164 0.0
H893 H 0.93415 0.47383 0.9495 0.0
C894 C 0.84529 0.3631 0.83701 0.0
C895 C 0.81291 0.33435 0.84002 0.0
C896 C 0.86128 0.38549 0.8647 0.0
C897 C 0.84555 0.37872 0.8958 0.0
C898 C 0.81194 0.3514 0.89872 0.0
C899 C 0.79545 0.32956 0.87085 0.0
C900 C 0.90319 0.38533 0.9587 0.0
C901 C 0.92602 0.42182 0.96122 0.0
C902 C 0.87405 0.37204 0.94026 0.0
C903 C 0.86763 0.39494 0.92372 0.0
C904 C 0.88834 0.43208 0.92892 0.0
C905 C 0.91719 0.44551 0.9478 0.0
H906 H 0.72565 0.84589 0.77966 0.0
H907 H 0.73479 0.80499 0.86292 0.0
H908 H 0.69271 0.8798 0.81462 0.0
H909 H 0.70127 0.83796 0.8973 0.0
H910 H 0.59773 0.85876 0.93045 0.0
H911 H 0.63409 0.83001 0.89472 0.0
H912 H 0.70456 0.93329 0.86981 0.0
H913 H 0.66852 0.96262 0.9065 0.0
C914 C 0.72087 0.84432 0.80537 0.0
C915 C 0.73299 0.8228 0.81848 0.0
C916 C 0.70213 0.86379 0.82535 0.0
C917 C 0.69442 0.86141 0.85863 0.0
C918 C 0.70679 0.84021 0.87173 0.0
C919 C 0.72614 0.82146 0.852 0.0
C920 C 0.62088 0.87547 0.91733 0.0
C921 C 0.63018 0.91306 0.92139 0.0
C922 C 0.64177 0.85895 0.89697 0.0
C923 C 0.67213 0.87942 0.87955 0.0
C924 C 0.6812 0.91689 0.88292 0.0
C925 C 0.66067 0.93365 0.90399 0.0
H926 H 0.8391 0.66859 0.22958 0.0
H927 H 0.83642 0.71729 0.14911 0.0
H928 H 0.87388 0.637 0.19481 0.0
H929 H 0.87031 0.68453 0.11399 0.0
H930 H 0.89144 0.57832 0.06105 0.0
H931 H 0.8568 0.61038 0.09553 0.0
H932 H 0.93979 0.66292 0.16113 0.0
H933 H 0.97508 0.63181 0.12618 0.0
C934 C 0.84565 0.67227 0.20438 0.0
C935 C 0.83497 0.69535 0.19202 0.0
C936 C 0.86568 0.65433 0.18459 0.0
C937 C 0.87466 0.65834 0.1518 0.0
C938 C 0.86358 0.68095 0.13921 0.0
C939 C 0.84433 0.69972 0.15928 0.0
C940 C 0.90228 0.59663 0.08287 0.0
C941 C 0.936 0.6025 0.09092 0.0
C942 C 0.88253 0.61509 0.10243 0.0
C943 C 0.89572 0.63909 0.13087 0.0
C944 C 0.92909 0.6445 0.13931 0.0
C945 C 0.94924 0.62675 0.1193 0.0
H946 H 0.32361 0.80359 0.15942 0.0
H947 H 0.40455 0.82517 0.22329 0.0
H948 H 0.36553 0.8464 0.12656 0.0
H949 H 0.44702 0.8684 0.18945 0.0
H950 H 0.49527 0.90598 0.07422 0.0
H951 H 0.46705 0.86325 0.11288 0.0
H952 H 0.40204 0.92288 0.15621 0.0
H953 H 0.4299 0.96526 0.11828 0.0
C954 C 0.35046 0.8171 0.16633 0.0
C955 C 0.36055 0.81114 0.19431 0.0
C956 C 0.37448 0.84155 0.14733 0.0
C957 C 0.40935 0.86058 0.15553 0.0
C958 C 0.42023 0.85376 0.1826 0.0
C959 C 0.39593 0.82918 0.20194 0.0
C960 C 0.47581 0.91057 0.09269 0.0
C961 C 0.46449 0.9387 0.0929 0.0
C962 C 0.4597 0.88615 0.11475 0.0
C963 C 0.43235 0.88986 0.13732 0.0
C964 C 0.42304 0.91949 0.13901 0.0
C965 C 0.43892 0.94361 0.11715 0.0
H966 H 0.70082 0.18426 0.20381 0.0
H967 H 0.7794 0.14493 0.15217 0.0
H968 H 0.66524 0.15844 0.1576 0.0
H969 H 0.74238 0.1174 0.10543 0.0
H970 H 0.63016 0.04139 0.05725 0.0
H971 H 0.67748 0.06779 0.09413 0.0
H972 H 0.67483 0.17298 0.09922 0.0
H973 H 0.62763 0.14689 0.06255 0.0
C974 C 0.71053 0.17002 0.18246 0.0
C975 C 0.74323 0.16715 0.18128 0.0
C976 C 0.6901 0.15529 0.15598 0.0
C977 C 0.70153 0.13675 0.12771 0.0
C978 C 0.73331 0.13199 0.12694 0.0
C979 C 0.75426 0.14739 0.15361 0.0
C980 C 0.64037 0.0703 0.06537 0.0
C981 C 0.6246 0.09188 0.05741 0.0
C982 C 0.66753 0.08538 0.08645 0.0
C983 C 0.6793 0.12222 0.0998 0.0
C984 C 0.6658 0.14434 0.08952 0.0
C985 C 0.63879 0.12936 0.06848 0.0
H986 H 0.66346 0.67906 0.81366 0.0
H987 H 0.75473 0.66647 0.83771 0.0
H988 H 0.62871 0.64856 0.85832 0.0
H989 H 0.71967 0.63501 0.88181 0.0
H990 H 0.66088 0.61783 0.97969 0.0
H991 H 0.69307 0.64883 0.9346 0.0
H992 H 0.60246 0.59188 0.87783 0.0
H993 H 0.57002 0.56125 0.92323 0.0
C994 C 0.67604 0.6693 0.82814 0.0
C995 C 0.71201 0.67539 0.82212 0.0
C996 C 0.65601 0.6517 0.85376 0.0
C997 C 0.67141 0.63965 0.87398 0.0
C998 C 0.7071 0.64465 0.86723 0.0
C999 C 0.72716 0.66238 0.84168 0.0
C1000 C 0.64761 0.61222 0.95776 0.0
C1001 C 0.61277 0.58704 0.95518 0.0
C1002 C 0.66624 0.62974 0.93172 0.0
C1003 C 0.65063 0.62247 0.9023 0.0
C1004 C 0.61532 0.59833 0.90014 0.0
C1005 C 0.59661 0.58082 0.92627 0.0
H1006 H 0.48831 0.68825 0.81961 0.0
H1007 H 0.38835 0.59877 0.8265 0.0
H1008 H 0.5161 0.65699 0.84231 0.0
H1009 H 0.41566 0.56843 0.85071 0.0
H1010 H 0.52718 0.6192 0.93643 0.0
H1011 H 0.51421 0.64557 0.89604 0.0
H1012 H 0.456 0.53872 0.84539 0.0
H1013 H 0.46809 0.5122 0.88647 0.0
C1014 C 0.47235 0.66165 0.82546 0.0
C1015 C 0.436 0.64616 0.82156 0.0
C1016 C 0.48825 0.64388 0.83875 0.0
C1017 C 0.46814 0.6103 0.84854 0.0
C1018 C 0.43212 0.59404 0.8431 0.0
C1019 C 0.41628 0.61172 0.8297 0.0
C1020 C 0.51235 0.60124 0.91626 0.0
C1021 C 0.4977 0.56361 0.91532 0.0
C1022 C 0.50506 0.61641 0.8929 0.0
C1023 C 0.48321 0.59424 0.86795 0.0
C1024 C 0.47206 0.55653 0.86487 0.0
C1025 C 0.47925 0.54134 0.88831 0.0
H1026 H 0.39187 0.27085 0.79687 0.0
H1027 H 0.3675 0.36498 0.80386 0.0
H1028 H 0.4391 0.30525 0.83309 0.0
H1029 H 0.4125 0.39893 0.84215 0.0
H1030 H 0.47739 0.35604 0.9348 0.0
H1031 H 0.44225 0.32479 0.88818 0.0
H1032 H 0.4691 0.42733 0.85684 0.0
H1033 H 0.50171 0.45828 0.90484 0.0
C1034 C 0.39727 0.29923 0.80581 0.0
C1035 C 0.37659 0.31561 0.79767 0.0
C1036 C 0.42385 0.31881 0.82697 0.0
C1037 C 0.42925 0.35474 0.84131 0.0
C1038 C 0.40963 0.37155 0.83144 0.0
C1039 C 0.38375 0.35219 0.80951 0.0
C1040 C 0.47559 0.37166 0.91784 0.0
C1041 C 0.49161 0.40941 0.92351 0.0
C1042 C 0.45585 0.35384 0.89085 0.0
C1043 C 0.45266 0.37345 0.86851 0.0
C1044 C 0.47009 0.41128 0.87377 0.0
C1045 C 0.48889 0.42907 0.90123 0.0
H1046 H 0.71588 0.46751 0.82092 0.0
H1047 H 0.78166 0.41984 0.84719 0.0
H1048 H 0.71396 0.49882 0.87671 0.0
H1049 H 0.7798 0.45123 0.90295 0.0
H1050 H 0.67804 0.43068 0.98157 0.0
H1051 H 0.7205 0.42878 0.93565 0.0
H1052 H 0.74131 0.53943 0.92937 0.0
H1053 H 0.69913 0.54152 0.97596 0.0
C1054 C 0.73112 0.46499 0.8383 0.0
C1055 C 0.74835 0.44084 0.82992 0.0
C1056 C 0.73036 0.48317 0.87019 0.0
C1057 C 0.74645 0.47706 0.8942 0.0
C1058 C 0.76716 0.45631 0.88489 0.0
C1059 C 0.76822 0.43841 0.85292 0.0
C1060 C 0.69313 0.45518 0.97152 0.0
C1061 C 0.68499 0.48597 0.98181 0.0
C1062 C 0.71758 0.45422 0.94526 0.0
C1063 C 0.73366 0.48381 0.92861 0.0
C1064 C 0.72906 0.51624 0.94172 0.0
C1065 C 0.70504 0.51743 0.96847 0.0
H1066 H 0.63839 0.39099 0.23082 0.0
H1067 H 0.6239 0.30982 0.14427 0.0
H1068 H 0.60844 0.41999 0.20744 0.0
H1069 H 0.59527 0.33922 0.12057 0.0
H1070 H 0.52975 0.38183 0.08659 0.0
H1071 H 0.5433 0.35248 0.12427 0.0
H1072 H 0.62191 0.45467 0.16352 0.0
H1073 H 0.60745 0.48436 0.12674 0.0
C1074 C 0.6286 0.37925 0.20692 0.0
C1075 C 0.63375 0.34835 0.18923 0.0
C1076 C 0.61161 0.39591 0.1935 0.0
C1077 C 0.59924 0.3818 0.16225 0.0
C1078 C 0.60382 0.35045 0.14495 0.0
C1079 C 0.62082 0.33392 0.15828 0.0
C1080 C 0.54905 0.39832 0.10401 0.0
C1081 C 0.56802 0.43532 0.10317 0.0
C1082 C 0.55705 0.3814 0.12542 0.0
C1083 C 0.58443 0.40104 0.14615 0.0
C1084 C 0.60073 0.43871 0.14779 0.0
C1085 C 0.59245 0.45575 0.1266 0.0
H1086 H 0.67998 0.73486 0.20362 0.0
H1087 H 0.67228 0.63945 0.23744 0.0
H1088 H 0.63229 0.69873 0.16896 0.0
H1089 H 0.62328 0.60275 0.20306 0.0
H1090 H 0.59472 0.55387 0.09592 0.0
H1091 H 0.62592 0.58601 0.1442 0.0
H1092 H 0.57248 0.65989 0.15992 0.0
H1093 H 0.54198 0.62831 0.11062 0.0
C1094 C 0.66728 0.70614 0.20423 0.0
C1095 C 0.68018 0.68968 0.22247 0.0
C1096 C 0.63967 0.68543 0.1846 0.0
C1097 C 0.62441 0.64775 0.18278 0.0
C1098 C 0.63507 0.6317 0.20352 0.0
C1099 C 0.6628 0.65262 0.22339 0.0
C1100 C 0.58961 0.57699 0.10945 0.0
C1101 C 0.56642 0.58895 0.09883 0.0
C1102 C 0.60708 0.59507 0.13762 0.0
C1103 C 0.60161 0.62546 0.15602 0.0
C1104 C 0.57752 0.63676 0.14607 0.0
C1105 C 0.56021 0.61878 0.11771 0.0
H1106 H 0.27436 0.58189 0.16397 0.0
H1107 H 0.33567 0.53224 0.19502 0.0
H1108 H 0.27919 0.551 0.10846 0.0
H1109 H 0.34074 0.50159 0.13942 0.0
H1110 H 0.38325 0.56987 0.03361 0.0
H1111 H 0.33943 0.57244 0.07808 0.0
H1112 H 0.31656 0.46172 0.08588 0.0
H1113 H 0.3602 0.45902 0.04077 0.0
C1114 C 0.28746 0.56305 0.15927 0.0
C1115 C 0.30521 0.55988 0.18366 0.0
C1116 C 0.29026 0.54546 0.12744 0.0
C1117 C 0.31065 0.52431 0.11959 0.0
C1118 C 0.32463 0.51757 0.14478 0.0
C1119 C 0.32208 0.53538 0.17657 0.0
C1120 C 0.36747 0.54551 0.04364 0.0
C1121 C 0.37534 0.5145 0.03422 0.0
C1122 C 0.34226 0.54686 0.06908 0.0
C1123 C 0.32508 0.51741 0.08577 0.0
C1124 C 0.32964 0.4848 0.07349 0.0
C1125 C 0.35446 0.48324 0.04756 0.0
H1126 H 0.2983 0.30586 0.16668 0.0
H1127 H 0.3896 0.34939 0.22252 0.0
H1128 H 0.33362 0.33469 0.12183 0.0
H1129 H 0.42496 0.38082 0.17831 0.0
H1130 H 0.48705 0.40832 0.08182 0.0
H1131 H 0.45311 0.37676 0.12658 0.0
H1132 H 0.36058 0.38766 0.10304 0.0
H1133 H 0.39362 0.41619 0.05759 0.0
C1134 C 0.32585 0.32245 0.16968 0.0
C1135 C 0.34106 0.32561 0.19828 0.0
C1136 C 0.34627 0.33924 0.14388 0.0
C1137 C 0.38239 0.3606 0.1462 0.0
C1138 C 0.39748 0.36421 0.17518 0.0
C1139 C 0.37712 0.34657 0.20077 0.0
C1140 C 0.45932 0.40321 0.08602 0.0
C1141 C 0.44298 0.41403 0.06568 0.0
C1142 C 0.43983 0.38554 0.11195 0.0
C1143 C 0.40373 0.37916 0.11858 0.0
C1144 C 0.38783 0.39072 0.09837 0.0
C1145 C 0.40698 0.40737 0.07216 0.0
H1146 H 0.85842 0.69071 0.73319 0.0
H1147 H 0.77928 0.65346 0.66394 0.0
H1148 H 0.89086 0.65848 0.69712 0.0
H1149 H 0.81252 0.62102 0.62713 0.0
H1150 H 0.8734 0.54511 0.58166 0.0
H1151 H 0.83512 0.57131 0.61833 0.0
H1152 H 0.92599 0.66743 0.64658 0.0
H1153 H 0.96393 0.64142 0.61077 0.0
C1154 C 0.84776 0.67548 0.71023 0.0
C1155 C 0.81631 0.67513 0.70138 0.0
C1156 C 0.86659 0.65706 0.68939 0.0
C1157 C 0.85479 0.63768 0.65886 0.0
C1158 C 0.82241 0.6357 0.65049 0.0
C1159 C 0.80333 0.65427 0.67156 0.0
C1160 C 0.88519 0.57177 0.59583 0.0
C1161 C 0.92192 0.59095 0.59331 0.0
C1162 C 0.86318 0.58688 0.61669 0.0
C1163 C 0.87741 0.62138 0.63569 0.0
C1164 C 0.91405 0.64052 0.63287 0.0
C1165 C 0.93591 0.62559 0.61209 0.0
H1166 H 0.32144 0.86234 0.71283 0.0
H1167 H 0.38464 0.79747 0.68733 0.0
H1168 H 0.35836 0.90165 0.67475 0.0
H1169 H 0.42109 0.83647 0.64845 0.0
H1170 H 0.49365 0.93449 0.59747 0.0
H1171 H 0.46338 0.89793 0.64028 0.0
H1172 H 0.36373 0.89205 0.61601 0.0
H1173 H 0.39346 0.92861 0.57439 0.0
C1174 C 0.34322 0.85646 0.69914 0.0
C1175 C 0.34974 0.82646 0.70277 0.0
C1176 C 0.36435 0.87895 0.67726 0.0
C1177 C 0.39223 0.87173 0.6582 0.0
C1178 C 0.39986 0.84276 0.66288 0.0
C1179 C 0.37884 0.82035 0.68505 0.0
C1180 C 0.46529 0.92528 0.60138 0.0
C1181 C 0.44602 0.93496 0.58296 0.0
C1182 C 0.448 0.90436 0.62579 0.0
C1183 C 0.41127 0.89285 0.63195 0.0
C1184 C 0.39214 0.90148 0.61261 0.0
C1185 C 0.40925 0.92232 0.58856 0.0
H1186 H 0.14192 0.32976 0.671 0.0
H1187 H 0.23193 0.41292 0.63147 0.0
H1188 H 0.10277 0.35035 0.65018 0.0
H1189 H 0.19301 0.43376 0.61159 0.0
H1190 H 0.12136 0.48402 0.5996 0.0
H1191 H 0.15101 0.46323 0.63172 0.0
H1192 H 0.08609 0.35247 0.59605 0.0
H1193 H 0.05591 0.37327 0.56408 0.0
C1194 C 0.15342 0.35239 0.65793 0.0
C1195 C 0.19021 0.36978 0.65313 0.0
C1196 C 0.13094 0.36425 0.64615 0.0
C1197 C 0.14476 0.39396 0.62961 0.0
C1198 C 0.18147 0.41136 0.62495 0.0
C1199 C 0.20385 0.39939 0.63643 0.0
C1200 C 0.11269 0.45522 0.59923 0.0
C1201 C 0.08664 0.43029 0.57883 0.0
C1202 C 0.12991 0.44332 0.61747 0.0
C1203 C 0.12154 0.40621 0.61575 0.0
C1204 C 0.09321 0.38125 0.59782 0.0
C1205 C 0.07585 0.3932 0.57954 0.0
H1206 H 0.7732 0.21376 0.6426 0.0
H1207 H 0.71315 0.13181 0.70145 0.0
H1208 H 0.74594 0.17309 0.59438 0.0
H1209 H 0.6836 0.09191 0.65391 0.0
H1210 H 0.62287 0.02857 0.5701 0.0
H1211 H 0.67494 0.05628 0.60148 0.0
H1212 H 0.68988 0.16091 0.58124 0.0
H1213 H 0.63951 0.13329 0.54935 0.0
C1214 C 0.75438 0.18676 0.645 0.0
C1215 C 0.74436 0.17606 0.67561 0.0
C1216 C 0.73867 0.16348 0.61748 0.0
C1217 C 0.71152 0.1297 0.62037 0.0
C1218 C 0.70427 0.11769 0.6506 0.0
C1219 C 0.7209 0.14065 0.678 0.0
C1220 C 0.63807 0.05731 0.5716 0.0
C1221 C 0.62662 0.07893 0.55801 0.0
C1222 C 0.66776 0.07324 0.58975 0.0
C1223 C 0.68638 0.11097 0.59452 0.0
C1224 C 0.67665 0.13179 0.57811 0.0
C1225 C 0.64726 0.11596 0.56004 0.0
H1226 H 0.78277 0.29861 0.37045 0.0
H1227 H 0.8661 0.35976 0.30674 0.0
H1228 H 0.81542 0.33607 0.41786 0.0
H1229 H 0.89817 0.39798 0.35392 0.0
H1230 H 0.92577 0.36506 0.46514 0.0
H1231 H 0.87743 0.3372 0.42932 0.0
H1232 H 0.89411 0.44212 0.40937 0.0
H1233 H 0.94208 0.47017 0.44554 0.0
C1234 C 0.80744 0.32098 0.36682 0.0
C1235 C 0.82214 0.32667 0.33531 0.0
C1236 C 0.82608 0.34221 0.39378 0.0
C1237 C 0.85917 0.36986 0.38943 0.0
C1238 C 0.87251 0.3771 0.35791 0.0
C1239 C 0.85433 0.3553 0.33098 0.0
C1240 C 0.91845 0.38227 0.45387 0.0
C1241 C 0.93789 0.41974 0.45793 0.0
C1242 C 0.89067 0.36637 0.43356 0.0
C1243 C 0.88227 0.38759 0.41658 0.0
C1244 C 0.90015 0.42526 0.42225 0.0
C1245 C 0.9275 0.44125 0.44304 0.0
H1246 H 0.74344 0.80856 0.36538 0.0
H1247 H 0.69535 0.81243 0.28297 0.0
H1248 H 0.7095 0.84008 0.40165 0.0
H1249 H 0.66156 0.84379 0.31918 0.0
H1250 H 0.57774 0.86009 0.39874 0.0
H1251 H 0.61283 0.83015 0.36263 0.0
H1252 H 0.7047 0.90086 0.41395 0.0
H1253 H 0.6696 0.93102 0.45021 0.0
C1254 C 0.72566 0.81609 0.35498 0.0
C1255 C 0.72214 0.80789 0.32123 0.0
C1256 C 0.70638 0.83436 0.37576 0.0
C1257 C 0.68279 0.84444 0.36332 0.0
C1258 C 0.67924 0.83614 0.3296 0.0
C1259 C 0.69878 0.81829 0.30881 0.0
C1260 C 0.60543 0.86938 0.40237 0.0
C1261 C 0.62078 0.89804 0.42746 0.0
C1262 C 0.6256 0.85229 0.38151 0.0
C1263 C 0.66158 0.86308 0.3854 0.0
C1264 C 0.67698 0.89169 0.41048 0.0
C1265 C 0.65689 0.90913 0.43112 0.0
H1266 H 0.18749 0.72592 0.34446 0.0
H1267 H 0.19981 0.63301 0.28183 0.0
H1268 H 0.14859 0.68684 0.38279 0.0
H1269 H 0.16042 0.59413 0.31928 0.0
H1270 H 0.14511 0.55213 0.41407 0.0
H1271 H 0.17136 0.58858 0.37197 0.0
H1272 H 0.0921 0.63461 0.3952 0.0
H1273 H 0.0655 0.5977 0.43863 0.0
C1274 C 0.18126 0.6971 0.33852 0.0
C1275 C 0.19722 0.68264 0.31042 0.0
C1276 C 0.15884 0.67469 0.3604 0.0
C1277 C 0.15185 0.63742 0.3544 0.0
C1278 C 0.16588 0.62282 0.32507 0.0
C1279 C 0.18845 0.64513 0.30353 0.0
C1280 C 0.13294 0.56982 0.41035 0.0
C1281 C 0.10323 0.57208 0.43002 0.0
C1282 C 0.14791 0.59058 0.38581 0.0
C1283 C 0.13377 0.6144 0.37991 0.0
C1284 C 0.10369 0.61655 0.3992 0.0
C1285 C 0.08833 0.59529 0.42391 0.0
H1286 H 0.44431 0.23922 0.41399 0.0
H1287 H 0.40766 0.15298 0.33273 0.0
H1288 H 0.46926 0.20401 0.4346 0.0
H1289 H 0.43238 0.11757 0.35363 0.0
H1290 H 0.44049 0.05121 0.4277 0.0
H1291 H 0.42191 0.08552 0.39892 0.0
H1292 H 0.51535 0.18005 0.42396 0.0
H1293 H 0.53379 0.14591 0.45323 0.0
C1294 C 0.44193 0.21295 0.40023 0.0
C1295 C 0.42386 0.19906 0.37163 0.0
C1296 C 0.45633 0.19272 0.41207 0.0
C1297 C 0.45303 0.15794 0.39573 0.0
C1298 C 0.43515 0.14408 0.36704 0.0
C1299 C 0.42083 0.16439 0.35511 0.0
C1300 C 0.45755 0.07909 0.42651 0.0
C1301 C 0.48854 0.09578 0.44316 0.0
C1302 C 0.44685 0.09882 0.40992 0.0
C1303 C 0.4668 0.13578 0.40954 0.0
C1304 C 0.49894 0.15184 0.42434 0.0
C1305 C 0.50972 0.13209 0.44084 0.0
H1306 H 0.61225 0.76302 0.60559 0.0
H1307 H 0.64363 0.84867 0.6882 0.0
H1308 H 0.58678 0.79698 0.58386 0.0
H1309 H 0.61829 0.88284 0.66623 0.0
H1310 H 0.52104 0.8519 0.56193 0.0
H1311 H 0.53928 0.81868 0.59243 0.0
H1312 H 0.62946 0.91533 0.6213 0.0
H1313 H 0.61101 0.94872 0.59137 0.0
C1314 C 0.61334 0.78888 0.6194 0.0
C1315 C 0.63008 0.803 0.64872 0.0
C1316 C 0.59862 0.80839 0.60692 0.0
C1317 C 0.60025 0.84264 0.62334 0.0
C1318 C 0.61682 0.85672 0.65275 0.0
C1319 C 0.63148 0.83714 0.6653 0.0
C1320 C 0.54429 0.86636 0.57542 0.0
C1321 C 0.56468 0.90301 0.57383 0.0
C1322 C 0.55499 0.84715 0.59263 0.0
C1323 C 0.58623 0.8641 0.60885 0.0
C1324 C 0.60523 0.90135 0.6092 0.0
C1325 C 0.5946 0.92054 0.59193 0.0
H1326 H 0.75435 0.15452 0.32867 0.0
H1327 H 0.6676 0.17833 0.30928 0.0
H1328 H 0.71549 0.11534 0.36614 0.0
H1329 H 0.62857 0.13835 0.34613 0.0
H1330 H 0.58332 0.09773 0.44521 0.0
H1331 H 0.61749 0.13486 0.40386 0.0
H1332 H 0.66709 0.0585 0.36592 0.0
H1333 H 0.63414 0.02255 0.40759 0.0
C1334 C 0.72692 0.15105 0.33205 0.0
C1335 C 0.71414 0.16959 0.31602 0.0
C1336 C 0.70457 0.12848 0.35345 0.0
C1337 C 0.66889 0.12367 0.35901 0.0
C1338 C 0.656 0.14186 0.34267 0.0
C1339 C 0.67839 0.16462 0.32142 0.0
C1340 C 0.60122 0.08885 0.4277 0.0
C1341 C 0.60662 0.05775 0.4298 0.0
C1342 C 0.62074 0.10997 0.40404 0.0
C1343 C 0.6455 0.09992 0.38204 0.0
C1344 C 0.64906 0.06756 0.3831 0.0
C1345 C 0.63003 0.04687 0.40684 0.0
H1346 H 0.88208 0.68609 0.41362 0.0
H1347 H 0.86947 0.6026 0.3291 0.0
H1348 H 0.92191 0.66644 0.43408 0.0
H1349 H 0.91003 0.58332 0.34927 0.0
H1350 H 0.93481 0.53015 0.42654 0.0
H1351 H 0.90665 0.55286 0.39472 0.0
H1352 H 0.97983 0.66175 0.42488 0.0
H1353 H 1.00792 0.6391 0.45713 0.0
C1354 C 0.88804 0.66369 0.39929 0.0
C1355 C 0.87235 0.64569 0.36989 0.0
C1356 C 0.91126 0.65271 0.4108 0.0
C1357 C 0.91925 0.62333 0.39328 0.0
C1358 C 0.90429 0.60593 0.36342 0.0
C1359 C 0.88123 0.6171 0.35177 0.0
C1360 C 0.94553 0.55887 0.42579 0.0
C1361 C 0.97334 0.58283 0.44484 0.0
C1362 C 0.9294 0.57189 0.40741 0.0
C1363 C 0.9406 0.6092 0.40769 0.0
C1364 C 0.97017 0.63291 0.42465 0.0
C1365 C 0.98649 0.61985 0.44289 0.0
H1366 H 0.28156 0.78724 0.37203 0.0
H1367 H 0.34232 0.87038 0.31458 0.0
H1368 H 0.30846 0.82709 0.42076 0.0
H1369 H 0.37139 0.90948 0.36263 0.0
H1370 H 0.43173 0.97117 0.44693 0.0
H1371 H 0.37968 0.94421 0.41554 0.0
H1372 H 0.36459 0.83876 0.43377 0.0
H1373 H 0.415 0.86562 0.46564 0.0
C1374 C 0.30044 0.81432 0.37004 0.0
C1375 C 0.3108 0.82557 0.33967 0.0
C1376 C 0.31592 0.83714 0.39786 0.0
C1377 C 0.34314 0.87101 0.39549 0.0
C1378 C 0.35066 0.88361 0.36552 0.0
C1379 C 0.3343 0.8611 0.33784 0.0
C1380 C 0.41651 0.9424 0.44498 0.0
C1381 C 0.42795 0.92035 0.45799 0.0
C1382 C 0.38682 0.92691 0.42684 0.0
C1383 C 0.36817 0.88918 0.4215 0.0
C1384 C 0.37786 0.86788 0.43735 0.0
C1385 C 0.40727 0.88328 0.4554 0.0
H1386 H 0.1947 0.31144 0.29089 0.0
H1387 H 0.27804 0.35351 0.35626 0.0
H1388 H 0.16368 0.34529 0.32686 0.0
H1389 H 0.24621 0.38737 0.39307 0.0
H1390 H 0.18718 0.46447 0.43915 0.0
H1391 H 0.22372 0.43639 0.40199 0.0
H1392 H 0.13097 0.34061 0.37815 0.0
H1393 H 0.0948 0.3685 0.41428 0.0
C1394 C 0.20656 0.32802 0.31298 0.0
C1395 C 0.23885 0.32932 0.32071 0.0
C1396 C 0.18853 0.34738 0.33382 0.0
C1397 C 0.20195 0.36865 0.36333 0.0
C1398 C 0.23503 0.37134 0.37055 0.0
C1399 C 0.2533 0.35189 0.34946 0.0
C1400 C 0.17461 0.43748 0.42584 0.0
C1401 C 0.13786 0.419 0.42971 0.0
C1402 C 0.19562 0.42127 0.40467 0.0
C1403 C 0.18039 0.38627 0.3867 0.0
C1404 C 0.14373 0.36785 0.39092 0.0
C1405 C 0.12287 0.3839 0.41195 0.0
H1406 H 0.3533 0.23215 0.65824 0.0
H1407 H 0.32698 0.15621 0.72438 0.0
H1408 H 0.38594 0.19949 0.62131 0.0
H1409 H 0.35899 0.12335 0.68721 0.0
H1410 H 0.38801 0.05433 0.59235 0.0
H1411 H 0.354 0.08611 0.62846 0.0
H1412 H 0.44203 0.18761 0.62472 0.0
H1413 H 0.4762 0.15609 0.58922 0.0
C1414 C 0.35433 0.20844 0.66482 0.0
C1415 C 0.33768 0.19691 0.69431 0.0
C1416 C 0.37309 0.18982 0.64374 0.0
C1417 C 0.37494 0.15882 0.65136 0.0
C1418 C 0.35781 0.14697 0.68058 0.0
C1419 C 0.33969 0.16598 0.70195 0.0
C1420 C 0.4001 0.08341 0.59925 0.0
C1421 C 0.43489 0.1026 0.58794 0.0
C1422 C 0.38067 0.10157 0.61999 0.0
C1423 C 0.39534 0.13936 0.6293 0.0
C1424 C 0.42993 0.15854 0.61774 0.0
C1425 C 0.44956 0.14038 0.59757 0.0
H1426 H 0.82873 0.36176 0.71082 0.0
H1427 H 0.88922 0.29435 0.69041 0.0
H1428 H 0.86877 0.4008 0.67452 0.0
H1429 H 0.93085 0.33485 0.65448 0.0
H1430 H 0.96919 0.39273 0.56237 0.0
H1431 H 0.93774 0.35371 0.60311 0.0
H1432 H 0.92418 0.44505 0.66793 0.0
H1433 H 0.95345 0.48282 0.62646 0.0
C1434 C 0.85101 0.35554 0.69901 0.0
C1435 C 0.8557 0.32485 0.70377 0.0
C1436 C 0.87435 0.37829 0.67821 0.0
C1437 C 0.90361 0.37153 0.66169 0.0
C1438 C 0.90858 0.34092 0.66658 0.0
C1439 C 0.88482 0.31778 0.68733 0.0
C1440 C 0.96003 0.40438 0.58567 0.0
C1441 C 0.96353 0.44062 0.5914 0.0
C1442 C 0.94202 0.3821 0.60907 0.0
C1443 C 0.92757 0.39588 0.63872 0.0
C1444 C 0.93376 0.43301 0.64509 0.0
C1445 C 0.95097 0.45489 0.62153 0.0
H1446 H 0.23534 0.62688 0.69498 0.0
H1447 H 0.25742 0.73169 0.67196 0.0
H1448 H 0.19685 0.59821 0.6502 0.0
H1449 H 0.22151 0.70353 0.62558 0.0
H1450 H 0.13781 0.55103 0.56015 0.0
H1451 H 0.1864 0.58044 0.59562 0.0
H1452 H 0.16422 0.67763 0.61504 0.0
H1453 H 0.11815 0.64947 0.57838 0.0
C1454 C 0.23222 0.64364 0.67988 0.0
C1455 C 0.24837 0.68137 0.68718 0.0
C1456 C 0.21052 0.62728 0.65393 0.0
C1457 C 0.20543 0.64839 0.63419 0.0
C1458 C 0.22353 0.68624 0.64072 0.0
C1459 C 0.24425 0.70252 0.66724 0.0
C1460 C 0.14402 0.57898 0.57139 0.0
C1461 C 0.1238 0.59768 0.56649 0.0
C1462 C 0.17165 0.59579 0.59213 0.0
C1463 C 0.17932 0.6315 0.60875 0.0
C1464 C 0.15995 0.65047 0.60249 0.0
C1465 C 0.13299 0.63401 0.58146 0.0
loop_
_geom_bond_atom_site_label_1
_geom_bond_atom_site_label_2
_geom_bond_distance
_geom_bond_site_symmetry_2
_ccdc_geom_bond_type
Eu0 C9 2.828 . S
Eu0 O11 2.392 . S
Eu0 O13 2.418 . S
Eu0 O18 2.373 . S
Eu0 O21 2.488 . S
Eu0 O22 2.471 . S
Eu0 O23 2.349 . S
Eu1 O10 2.373 . S
Eu1 O14 2.488 . S
Eu1 O15 2.471 . S
Eu1 O16 2.349 . S
Eu1 O19 2.392 . S
Eu1 O20 2.418 . S
Eu1 C30 2.828 . S
C2 O20 1.244 . S
C2 O23 1.265 . S
C3 C4 1.379 . S
C3 C7 1.373 . S
C3 C9 1.505 . S
C4 C3 1.379 . S
C4 C6 1.369 . S
C4 H32 0.930 . S
C5 C7 1.383 . S
C5 C8 1.382 . S
C5 H33 0.930 . S
C6 C4 1.369 . S
C6 C8 1.392 . S
C6 H34 0.930 . S
C7 C3 1.373 . S
C7 C5 1.383 . S
C7 H35 0.931 . S
C8 C5 1.382 . S
C8 C6 1.392 . S
C9 Eu0 2.828 . S
C9 C3 1.505 . S
C9 O21 1.249 . S
C9 O22 1.244 . S
O10 Eu1 2.373 . S
O10 C12 1.258 . S
O11 Eu0 2.392 . S
O11 C12 1.242 . S
C12 O10 1.258 . S
C12 O11 1.242 . S
O13 Eu0 2.418 . S
O13 C17 1.244 . S
O14 Eu1 2.488 . S
O14 C30 1.249 . S
O15 Eu1 2.471 . S
O15 C30 1.244 . S
O16 Eu1 2.349 . S
O16 C17 1.265 . S
C17 O13 1.244 . S
C17 O16 1.265 . S
O18 Eu0 2.373 . S
O18 C31 1.258 . S
O19 Eu1 2.392 . S
O19 C31 1.242 . S
O20 Eu1 2.418 . S
O20 C2 1.244 . S
O21 Eu0 2.488 . S
O21 C9 1.249 . S
O22 Eu0 2.471 . S
O22 C9 1.244 . S
O23 Eu0 2.349 . S
O23 C2 1.265 . S
C24 C25 1.379 . S
C24 C28 1.373 . S
C24 C30 1.505 . S
C25 C24 1.379 . S
C25 C27 1.369 . S
C25 H36 0.930 . S
C26 C28 1.383 . S
C26 C29 1.382 . S
C26 H37 0.930 . S
C27 C25 1.369 . S
C27 C29 1.392 . S
C27 H38 0.930 . S
C28 C24 1.373 . S
C28 C26 1.383 . S
C28 H39 0.931 . S
C29 C26 1.382 . S
C29 C27 1.392 . S
C30 Eu1 2.828 . S
C30 O14 1.249 . S
C30 O15 1.244 . S
C30 C24 1.505 . S
C31 O18 1.258 . S
C31 O19 1.242 . S
H32 C4 0.930 . S
H33 C5 0.930 . S
H34 C6 0.930 . S
H35 C7 0.931 . S
H36 C25 0.930 . S
H37 C26 0.930 . S
H38 C27 0.930 . S
H39 C28 0.931 . S
Eu40 C49 2.828 . S
Eu40 O51 2.392 . S
Eu40 O53 2.418 . S
Eu40 O58 2.373 . S
Eu40 O61 2.488 . S
Eu40 O62 2.471 . S
Eu40 O63 2.349 . S
Eu41 O50 2.373 . S
Eu41 O54 2.488 . S
Eu41 O55 2.471 . S
Eu41 O56 2.349 . S
Eu41 O59 2.392 . S
Eu41 O60 2.418 . S
Eu41 C70 2.828 . S
C42 O60 1.244 . S
C42 O63 1.265 . S
C43 C44 1.379 . S
C43 C47 1.373 . S
C43 C49 1.505 . S
C44 C43 1.379 . S
C44 C46 1.369 . S
C44 H72 0.930 . S
C45 C47 1.383 . S
C45 C48 1.382 . S
C45 H73 0.930 . S
C46 C44 1.369 . S
C46 C48 1.392 . S
C46 H74 0.930 . S
C47 C43 1.373 . S
C47 C45 1.383 . S
C47 H75 0.931 . S
C48 C45 1.382 . S
C48 C46 1.392 . S
C49 Eu40 2.828 . S
C49 C43 1.505 . S
C49 O61 1.249 . S
C49 O62 1.244 . S
O50 Eu41 2.373 . S
O50 C52 1.258 . S
O51 Eu40 2.392 . S
O51 C52 1.242 . S
C52 O50 1.258 . S
C52 O51 1.242 . S
O53 Eu40 2.418 . S
O53 C57 1.244 . S
O54 Eu41 2.488 . S
O54 C70 1.249 . S
O55 Eu41 2.471 . S
O55 C70 1.244 . S
O56 Eu41 2.349 . S
O56 C57 1.265 . S
C57 O53 1.244 . S
C57 O56 1.265 . S
O58 Eu40 2.373 . S
O58 C71 1.258 . S
O59 Eu41 2.392 . S
O59 C71 1.242 . S
O60 Eu41 2.418 . S
O60 C42 1.244 . S
O61 Eu40 2.488 . S
O61 C49 1.249 . S
O62 Eu40 2.471 . S
O62 C49 1.244 . S
O63 Eu40 2.349 . S
O63 C42 1.265 . S
C64 C65 1.379 . S
C64 C68 1.373 . S
C64 C70 1.505 . S
C65 C64 1.379 . S
C65 C67 1.369 . S
C65 H76 0.930 . S
C66 C68 1.383 . S
C66 C69 1.382 . S
C66 H77 0.930 . S
C67 C65 1.369 . S
C67 C69 1.392 . S
C67 H78 0.930 . S
C68 C64 1.373 . S
C68 C66 1.383 . S
C68 H79 0.931 . S
C69 C66 1.382 . S
C69 C67 1.392 . S
C70 Eu41 2.828 . S
C70 O54 1.249 . S
C70 O55 1.244 . S
C70 C64 1.505 . S
C71 O58 1.258 . S
C71 O59 1.242 . S
H72 C44 0.930 . S
H73 C45 0.930 . S
H74 C46 0.930 . S
H75 C47 0.931 . S
H76 C65 0.930 . S
H77 C66 0.930 . S
H78 C67 0.930 . S
H79 C68 0.931 . S
Eu80 C89 2.828 . S
Eu80 O91 2.392 . S
Eu80 O93 2.418 . S
Eu80 O98 2.373 . S
Eu80 O101 2.488 . S
Eu80 O102 2.471 . S
Eu80 O103 2.349 . S
Eu81 O90 2.373 . S
Eu81 O94 2.488 . S
Eu81 O95 2.471 . S
Eu81 O96 2.349 . S
Eu81 O99 2.392 . S
Eu81 O100 2.418 . S
Eu81 C110 2.828 . S
C82 O100 1.244 . S
C82 O103 1.265 . S
C83 C84 1.379 . S
C83 C87 1.373 . S
C83 C89 1.505 . S
C84 C83 1.379 . S
C84 C86 1.369 . S
C84 H112 0.930 . S
C85 C87 1.383 . S
C85 C88 1.382 . S
C85 H113 0.930 . S
C86 C84 1.369 . S
C86 C88 1.392 . S
C86 H114 0.930 . S
C87 C83 1.373 . S
C87 C85 1.383 . S
C87 H115 0.931 . S
C88 C85 1.382 . S
C88 C86 1.392 . S
C89 Eu80 2.828 . S
C89 C83 1.505 . S
C89 O101 1.249 . S
C89 O102 1.244 . S
O90 Eu81 2.373 . S
O90 C92 1.258 . S
O91 Eu80 2.392 . S
O91 C92 1.242 . S
C92 O90 1.258 . S
C92 O91 1.242 . S
O93 Eu80 2.418 . S
O93 C97 1.244 . S
O94 Eu81 2.488 . S
O94 C110 1.249 . S
O95 Eu81 2.471 . S
O95 C110 1.244 . S
O96 Eu81 2.349 . S
O96 C97 1.265 . S
C97 O93 1.244 . S
C97 O96 1.265 . S
O98 Eu80 2.373 . S
O98 C111 1.258 . S
O99 Eu81 2.392 . S
O99 C111 1.242 . S
O100 Eu81 2.418 . S
O100 C82 1.244 . S
O101 Eu80 2.488 . S
O101 C89 1.249 . S
O102 Eu80 2.471 . S
O102 C89 1.244 . S
O103 Eu80 2.349 . S
O103 C82 1.265 . S
C104 C105 1.379 . S
C104 C108 1.373 . S
C104 C110 1.505 . S
C105 C104 1.379 . S
C105 C107 1.369 . S
C105 H116 0.930 . S
C106 C108 1.383 . S
C106 C109 1.382 . S
C106 H117 0.930 . S
C107 C105 1.369 . S
C107 C109 1.392 . S
C107 H118 0.930 . S
C108 C104 1.373 . S
C108 C106 1.383 . S
C108 H119 0.931 . S
C109 C106 1.382 . S
C109 C107 1.392 . S
C110 Eu81 2.828 . S
C110 O94 1.249 . S
C110 O95 1.244 . S
C110 C104 1.505 . S
C111 O98 1.258 . S
C111 O99 1.242 . S
H112 C84 0.930 . S
H113 C85 0.930 . S
H114 C86 0.930 . S
H115 C87 0.931 . S
H116 C105 0.930 . S
H117 C106 0.930 . S
H118 C107 0.930 . S
H119 C108 0.931 . S
Eu120 C129 2.828 . S
Eu120 O131 2.392 . S
Eu120 O133 2.418 . S
Eu120 O138 2.373 . S
Eu120 O141 2.488 . S
Eu120 O142 2.471 . S
Eu120 O143 2.349 . S
Eu121 O130 2.373 . S
Eu121 O134 2.488 . S
Eu121 O135 2.471 . S
Eu121 O136 2.349 . S
Eu121 O139 2.392 . S
Eu121 O140 2.418 . S
Eu121 C150 2.828 . S
C122 O140 1.244 . S
C122 O143 1.265 . S
C123 C124 1.379 . S
C123 C127 1.373 . S
C123 C129 1.505 . S
C124 C123 1.379 . S
C124 C126 1.369 . S
C124 H152 0.930 . S
C125 C127 1.383 . S
C125 C128 1.382 . S
C125 H153 0.930 . S
C126 C124 1.369 . S
C126 C128 1.392 . S
C126 H154 0.930 . S
C127 C123 1.373 . S
C127 C125 1.383 . S
C127 H155 0.931 . S
C128 C125 1.382 . S
C128 C126 1.392 . S
C129 Eu120 2.828 . S
C129 C123 1.505 . S
C129 O141 1.249 . S
C129 O142 1.244 . S
O130 Eu121 2.373 . S
O130 C132 1.258 . S
O131 Eu120 2.392 . S
O131 C132 1.242 . S
C132 O130 1.258 . S
C132 O131 1.242 . S
O133 Eu120 2.418 . S
O133 C137 1.244 . S
O134 Eu121 2.488 . S
O134 C150 1.249 . S
O135 Eu121 2.471 . S
O135 C150 1.244 . S
O136 Eu121 2.349 . S
O136 C137 1.265 . S
C137 O133 1.244 . S
C137 O136 1.265 . S
O138 Eu120 2.373 . S
O138 C151 1.258 . S
O139 Eu121 2.392 . S
O139 C151 1.242 . S
O140 Eu121 2.418 . S
O140 C122 1.244 . S
O141 Eu120 2.488 . S
O141 C129 1.249 . S
O142 Eu120 2.471 . S
O142 C129 1.244 . S
O143 Eu120 2.349 . S
O143 C122 1.265 . S
C144 C145 1.379 . S
C144 C148 1.373 . S
C144 C150 1.505 . S
C145 C144 1.379 . S
C145 C147 1.369 . S
C145 H156 0.930 . S
C146 C148 1.383 . S
C146 C149 1.382 . S
C146 H157 0.930 . S
C147 C145 1.369 . S
C147 C149 1.392 . S
C147 H158 0.930 . S
C148 C144 1.373 . S
C148 C146 1.383 . S
C148 H159 0.931 . S
C149 C146 1.382 . S
C149 C147 1.392 . S
C150 Eu121 2.828 . S
C150 O134 1.249 . S
C150 O135 1.244 . S
C150 C144 1.505 . S
C151 O138 1.258 . S
C151 O139 1.242 . S
H152 C124 0.930 . S
H153 C125 0.930 . S
H154 C126 0.930 . S
H155 C127 0.931 . S
H156 C145 0.930 . S
H157 C146 0.930 . S
H158 C147 0.930 . S
H159 C148 0.931 . S
Eu160 C169 2.828 . S
Eu160 O171 2.392 . S
Eu160 O173 2.418 . S
Eu160 O178 2.373 . S
Eu160 O181 2.488 . S
Eu160 O182 2.471 . S
Eu160 O183 2.349 . S
Eu161 O170 2.373 . S
Eu161 O174 2.488 . S
Eu161 O175 2.471 . S
Eu161 O176 2.349 . S
Eu161 O179 2.392 . S
Eu161 O180 2.418 . S
Eu161 C190 2.828 . S
C162 O180 1.244 . S
C162 O183 1.265 . S
C163 C164 1.379 . S
C163 C167 1.373 . S
C163 C169 1.505 . S
C164 C163 1.379 . S
C164 C166 1.369 . S
C164 H192 0.930 . S
C165 C167 1.383 . S
C165 C168 1.382 . S
C165 H193 0.930 . S
C166 C164 1.369 . S
C166 C168 1.392 . S
C166 H194 0.930 . S
C167 C163 1.373 . S
C167 C165 1.383 . S
C167 H195 0.931 . S
C168 C165 1.382 . S
C168 C166 1.392 . S
C169 Eu160 2.828 . S
C169 C163 1.505 . S
C169 O181 1.249 . S
C169 O182 1.244 . S
O170 Eu161 2.373 . S
O170 C172 1.258 . S
O171 Eu160 2.392 . S
O171 C172 1.242 . S
C172 O170 1.258 . S
C172 O171 1.242 . S
O173 Eu160 2.418 . S
O173 C177 1.244 . S
O174 Eu161 2.488 . S
O174 C190 1.249 . S
O175 Eu161 2.471 . S
O175 C190 1.244 . S
O176 Eu161 2.349 . S
O176 C177 1.265 . S
C177 O173 1.244 . S
C177 O176 1.265 . S
O178 Eu160 2.373 . S
O178 C191 1.258 . S
O179 Eu161 2.392 . S
O179 C191 1.242 . S
O180 Eu161 2.418 . S
O180 C162 1.244 . S
O181 Eu160 2.488 . S
O181 C169 1.249 . S
O182 Eu160 2.471 . S
O182 C169 1.244 . S
O183 Eu160 2.349 . S
O183 C162 1.265 . S
C184 C185 1.379 . S
C184 C188 1.373 . S
C184 C190 1.505 . S
C185 C184 1.379 . S
C185 C187 1.369 . S
C185 H196 0.930 . S
C186 C188 1.383 . S
C186 C189 1.382 . S
C186 H197 0.930 . S
C187 C185 1.369 . S
C187 C189 1.392 . S
C187 H198 0.930 . S
C188 C184 1.373 . S
C188 C186 1.383 . S
C188 H199 0.931 . S
C189 C186 1.382 . S
C189 C187 1.392 . S
C190 Eu161 2.828 . S
C190 O174 1.249 . S
C190 O175 1.244 . S
C190 C184 1.505 . S
C191 O178 1.258 . S
C191 O179 1.242 . S
H192 C164 0.930 . S
H193 C165 0.930 . S
H194 C166 0.930 . S
H195 C167 0.931 . S
H196 C185 0.930 . S
H197 C186 0.930 . S
H198 C187 0.930 . S
H199 C188 0.931 . S
Eu200 C209 2.828 . S
Eu200 O211 2.392 . S
Eu200 O213 2.418 . S
Eu200 O218 2.373 . S
Eu200 O221 2.488 . S
Eu200 O222 2.471 . S
Eu200 O223 2.349 . S
Eu201 O210 2.373 . S
Eu201 O214 2.488 . S
Eu201 O215 2.471 . S
Eu201 O216 2.349 . S
Eu201 O219 2.392 . S
Eu201 O220 2.418 . S
Eu201 C230 2.828 . S
C202 O220 1.244 . S
C202 O223 1.265 . S
C203 C204 1.379 . S
C203 C207 1.373 . S
C203 C209 1.505 . S
C204 C203 1.379 . S
C204 C206 1.369 . S
C204 H232 0.930 . S
C205 C207 1.383 . S
C205 C208 1.382 . S
C205 H233 0.930 . S
C206 C204 1.369 . S
C206 C208 1.392 . S
C206 H234 0.930 . S
C207 C203 1.373 . S
C207 C205 1.383 . S
C207 H235 0.931 . S
C208 C205 1.382 . S
C208 C206 1.392 . S
C209 Eu200 2.828 . S
C209 C203 1.505 . S
C209 O221 1.249 . S
C209 O222 1.244 . S
O210 Eu201 2.373 . S
O210 C212 1.258 . S
O211 Eu200 2.392 . S
O211 C212 1.242 . S
C212 O210 1.258 . S
C212 O211 1.242 . S
O213 Eu200 2.418 . S
O213 C217 1.244 . S
O214 Eu201 2.488 . S
O214 C230 1.249 . S
O215 Eu201 2.471 . S
O215 C230 1.244 . S
O216 Eu201 2.349 . S
O216 C217 1.265 . S
C217 O213 1.244 . S
C217 O216 1.265 . S
O218 Eu200 2.373 . S
O218 C231 1.258 . S
O219 Eu201 2.392 . S
O219 C231 1.242 . S
O220 Eu201 2.418 . S
O220 C202 1.244 . S
O221 Eu200 2.488 . S
O221 C209 1.249 . S
O222 Eu200 2.471 . S
O222 C209 1.244 . S
O223 Eu200 2.349 . S
O223 C202 1.265 . S
C224 C225 1.379 . S
C224 C228 1.373 . S
C224 C230 1.505 . S
C225 C224 1.379 . S
C225 C227 1.369 . S
C225 H236 0.930 . S
C226 C228 1.383 . S
C226 C229 1.382 . S
C226 H237 0.930 . S
C227 C225 1.369 . S
C227 C229 1.392 . S
C227 H238 0.930 . S
C228 C224 1.373 . S
C228 C226 1.383 . S
C228 H239 0.931 . S
C229 C226 1.382 . S
C229 C227 1.392 . S
C230 Eu201 2.828 . S
C230 O214 1.249 . S
C230 O215 1.244 . S
C230 C224 1.505 . S
C231 O218 1.258 . S
C231 O219 1.242 . S
H232 C204 0.930 . S
H233 C205 0.930 . S
H234 C206 0.930 . S
H235 C207 0.931 . S
H236 C225 0.930 . S
H237 C226 0.930 . S
H238 C227 0.930 . S
H239 C228 0.931 . S
Eu240 C249 2.828 . S
Eu240 O251 2.392 . S
Eu240 O253 2.418 . S
Eu240 O258 2.373 . S
Eu240 O261 2.488 . S
Eu240 O262 2.471 . S
Eu240 O263 2.349 . S
Eu241 O250 2.373 . S
Eu241 O254 2.488 . S
Eu241 O255 2.471 . S
Eu241 O256 2.349 . S
Eu241 O259 2.392 . S
Eu241 O260 2.418 . S
Eu241 C270 2.828 . S
C242 O260 1.244 . S
C242 O263 1.265 . S
C243 C244 1.379 . S
C243 C247 1.373 . S
C243 C249 1.505 . S
C244 C243 1.379 . S
C244 C246 1.369 . S
C244 H272 0.930 . S
C245 C247 1.383 . S
C245 C248 1.382 . S
C245 H273 0.930 . S
C246 C244 1.369 . S
C246 C248 1.392 . S
C246 H274 0.930 . S
C247 C243 1.373 . S
C247 C245 1.383 . S
C247 H275 0.931 . S
C248 C245 1.382 . S
C248 C246 1.392 . S
C249 Eu240 2.828 . S
C249 C243 1.505 . S
C249 O261 1.249 . S
C249 O262 1.244 . S
O250 Eu241 2.373 . S
O250 C252 1.258 . S
O251 Eu240 2.392 . S
O251 C252 1.242 . S
C252 O250 1.258 . S
C252 O251 1.242 . S
O253 Eu240 2.418 . S
O253 C257 1.244 . S
O254 Eu241 2.488 . S
O254 C270 1.249 . S
O255 Eu241 2.471 . S
O255 C270 1.244 . S
O256 Eu241 2.349 . S
O256 C257 1.265 . S
C257 O253 1.244 . S
C257 O256 1.265 . S
O258 Eu240 2.373 . S
O258 C271 1.258 . S
O259 Eu241 2.392 . S
O259 C271 1.242 . S
O260 Eu241 2.418 . S
O260 C242 1.244 . S
O261 Eu240 2.488 . S
O261 C249 1.249 . S
O262 Eu240 2.471 . S
O262 C249 1.244 . S
O263 Eu240 2.349 . S
O263 C242 1.265 . S
C264 C265 1.379 . S
C264 C268 1.373 . S
C264 C270 1.505 . S
C265 C264 1.379 . S
C265 C267 1.369 . S
C265 H276 0.930 . S
C266 C268 1.383 . S
C266 C269 1.382 . S
C266 H277 0.930 . S
C267 C265 1.369 . S
C267 C269 1.392 . S
C267 H278 0.930 . S
C268 C264 1.373 . S
C268 C266 1.383 . S
C268 H279 0.931 . S
C269 C266 1.382 . S
C269 C267 1.392 . S
C270 Eu241 2.828 . S
C270 O254 1.249 . S
C270 O255 1.244 . S
C270 C264 1.505 . S
C271 O258 1.258 . S
C271 O259 1.242 . S
H272 C244 0.930 . S
H273 C245 0.930 . S
H274 C246 0.930 . S
H275 C247 0.931 . S
H276 C265 0.930 . S
H277 C266 0.930 . S
H278 C267 0.930 . S
H279 C268 0.931 . S
Eu280 C289 2.828 . S
Eu280 O291 2.392 . S
Eu280 O293 2.418 . S
Eu280 O298 2.373 . S
Eu280 O301 2.488 . S
Eu280 O302 2.471 . S
Eu280 O303 2.349 . S
Eu281 O290 2.373 . S
Eu281 O294 2.488 . S
Eu281 O295 2.471 . S
Eu281 O296 2.349 . S
Eu281 O299 2.392 . S
Eu281 O300 2.418 . S
Eu281 C310 2.828 . S
C282 O300 1.244 . S
C282 O303 1.265 . S
C283 C284 1.379 . S
C283 C287 1.373 . S
C283 C289 1.505 . S
C284 C283 1.379 . S
C284 C286 1.369 . S
C284 H312 0.930 . S
C285 C287 1.383 . S
C285 C288 1.382 . S
C285 H313 0.930 . S
C286 C284 1.369 . S
C286 C288 1.392 . S
C286 H314 0.930 . S
C287 C283 1.373 . S
C287 C285 1.383 . S
C287 H315 0.931 . S
C288 C285 1.382 . S
C288 C286 1.392 . S
C289 Eu280 2.828 . S
C289 C283 1.505 . S
C289 O301 1.249 . S
C289 O302 1.244 . S
O290 Eu281 2.373 . S
O290 C292 1.258 . S
O291 Eu280 2.392 . S
O291 C292 1.242 . S
C292 O290 1.258 . S
C292 O291 1.242 . S
O293 Eu280 2.418 . S
O293 C297 1.244 . S
O294 Eu281 2.488 . S
O294 C310 1.249 . S
O295 Eu281 2.471 . S
O295 C310 1.244 . S
O296 Eu281 2.349 . S
O296 C297 1.265 . S
C297 O293 1.244 . S
C297 O296 1.265 . S
O298 Eu280 2.373 . S
O298 C311 1.258 . S
O299 Eu281 2.392 . S
O299 C311 1.242 . S
O300 Eu281 2.418 . S
O300 C282 1.244 . S
O301 Eu280 2.488 . S
O301 C289 1.249 . S
O302 Eu280 2.471 . S
O302 C289 1.244 . S
O303 Eu280 2.349 . S
O303 C282 1.265 . S
C304 C305 1.379 . S
C304 C308 1.373 . S
C304 C310 1.505 . S
C305 C304 1.379 . S
C305 C307 1.369 . S
C305 H316 0.930 . S
C306 C308 1.383 . S
C306 C309 1.382 . S
C306 H317 0.930 . S
C307 C305 1.369 . S
C307 C309 1.392 . S
C307 H318 0.930 . S
C308 C304 1.373 . S
C308 C306 1.383 . S
C308 H319 0.931 . S
C309 C306 1.382 . S
C309 C307 1.392 . S
C310 Eu281 2.828 . S
C310 O294 1.249 . S
C310 O295 1.244 . S
C310 C304 1.505 . S
C311 O298 1.258 . S
C311 O299 1.242 . S
H312 C284 0.930 . S
H313 C285 0.930 . S
H314 C286 0.930 . S
H315 C287 0.931 . S
H316 C305 0.930 . S
H317 C306 0.930 . S
H318 C307 0.930 . S
H319 C308 0.931 . S
C320 O332 1.241 . S
C320 O333 1.280 . S
C321 O334 1.277 . S
C321 O335 1.245 . S
C322 O346 1.247 . S
C322 O348 1.289 . S
Mg323 O324 1.926 . S
Mg323 O333 1.984 . S
Mg323 O335 1.988 . S
Mg323 O336 2.061 1_655 S
O324 Mg323 1.926 . S
O324 Mg325 1.986 1_545 S
O324 Mg326 1.900 1_655 S
Mg325 O324 1.986 1_565 S
Mg325 O332 2.042 1_565 S
Mg325 O334 2.041 1_565 S
Mg325 O340 2.038 . S
Mg325 O348 2.238 . S
Mg326 O324 1.900 1_455 S
Mg326 O327 1.934 1_545 S
Mg326 O337 2.124 . S
Mg326 O339 2.073 1_445 S
Mg326 O348 2.089 1_445 S
Mg326 O349 2.085 . S
O327 Mg326 1.934 1_565 S
O327 Mg328 1.926 . S
O327 Mg329 1.986 1_565 S
Mg328 O327 1.926 . S
Mg328 O342 1.984 . S
Mg328 O345 1.988 . S
Mg328 O346 2.061 1_455 S
Mg329 O327 1.986 1_545 S
Mg329 O337 2.238 . S
Mg329 O341 2.042 1_545 S
Mg329 O343 2.041 1_545 S
Mg329 O350 2.038 . S
C330 O336 1.247 . S
C330 O337 1.289 . S
C331 O349 1.245 . S
C331 O350 1.274 . S
O332 C320 1.241 . S
O332 Mg325 2.042 1_545 S
O333 C320 1.280 . S
O333 Mg323 1.984 . S
O334 C321 1.277 . S
O334 Mg325 2.041 1_545 S
O335 C321 1.245 . S
O335 Mg323 1.988 . S
O336 Mg323 2.061 1_455 S
O336 C330 1.247 . S
O337 Mg326 2.124 . S
O337 Mg329 2.238 . S
O337 C330 1.289 . S
C338 O339 1.245 . S
C338 O340 1.274 . S
O339 Mg326 2.073 1_665 S
O339 C338 1.245 . S
O340 Mg325 2.038 . S
O340 C338 1.274 . S
O341 Mg329 2.042 1_565 S
O341 C344 1.241 . S
O342 Mg328 1.984 . S
O342 C344 1.280 . S
O343 Mg329 2.041 1_565 S
O343 C347 1.277 . S
C344 O341 1.241 . S
C344 O342 1.280 . S
O345 Mg328 1.988 . S
O345 C347 1.245 . S
O346 C322 1.247 . S
O346 Mg328 2.061 1_655 S
C347 O343 1.277 . S
C347 O345 1.245 . S
O348 C322 1.289 . S
O348 Mg325 2.238 . S
O348 Mg326 2.089 1_665 S
O349 Mg326 2.085 . S
O349 C331 1.245 . S
O350 Mg329 2.038 . S
O350 C331 1.274 . S
C351 O363 1.241 . S
C351 O364 1.280 . S
C352 O365 1.277 . S
C352 O366 1.245 . S
C353 O377 1.247 . S
C353 O379 1.289 . S
Mg354 O355 1.926 . S
Mg354 O364 1.984 . S
Mg354 O366 1.988 1_554 S
Mg354 O367 2.061 . S
O355 Mg354 1.926 . S
O355 Mg356 1.986 1_545 S
O355 Mg357 1.922 . S
Mg356 O355 1.986 1_565 S
Mg356 O363 2.042 1_565 S
Mg356 O365 2.041 1_564 S
Mg356 O371 2.038 . S
Mg356 O379 2.238 1_554 S
Mg357 O355 1.922 . S
Mg357 O358 1.911 1_544 S
Mg357 O368 2.111 . S
Mg357 O370 2.083 1_545 S
Mg357 O379 2.102 1_544 S
Mg357 O380 2.074 1_554 S
O358 Mg357 1.911 1_566 S
O358 Mg359 1.926 . S
O358 Mg360 1.986 1_565 S
Mg359 O358 1.926 . S
Mg359 O373 1.984 . S
Mg359 O376 1.988 1_556 S
Mg359 O377 2.061 . S
Mg360 O358 1.986 1_545 S
Mg360 O368 2.238 1_556 S
Mg360 O372 2.042 1_545 S
Mg360 O374 2.041 1_546 S
Mg360 O381 2.038 . S
C361 O367 1.247 . S
C361 O368 1.289 . S
C362 O380 1.245 . S
C362 O381 1.274 . S
O363 C351 1.241 . S
O363 Mg356 2.042 1_545 S
O364 C351 1.280 . S
O364 Mg354 1.984 . S
O365 C352 1.277 . S
O365 Mg356 2.041 1_546 S
O366 C352 1.245 . S
O366 Mg354 1.988 1_556 S
O367 Mg354 2.061 . S
O367 C361 1.247 . S
O368 Mg357 2.111 . S
O368 Mg360 2.238 1_554 S
O368 C361 1.289 . S
C369 O370 1.245 . S
C369 O371 1.274 . S
O370 Mg357 2.083 1_565 S
O370 C369 1.245 . S
O371 Mg356 2.038 . S
O371 C369 1.274 . S
O372 Mg360 2.042 1_565 S
O372 C375 1.241 . S
O373 Mg359 1.984 . S
O373 C375 1.280 . S
O374 Mg360 2.041 1_564 S
O374 C378 1.277 . S
C375 O372 1.241 . S
C375 O373 1.280 . S
O376 Mg359 1.988 1_554 S
O376 C378 1.245 . S
O377 C353 1.247 . S
O377 Mg359 2.061 . S
C378 O374 1.277 . S
C378 O376 1.245 . S
O379 C353 1.289 . S
O379 Mg356 2.238 1_556 S
O379 Mg357 2.102 1_566 S
O380 Mg357 2.074 1_556 S
O380 C362 1.245 . S
O381 Mg360 2.038 . S
O381 C362 1.274 . S
C382 O394 1.241 . S
C382 O395 1.280 . S
C383 O396 1.277 . S
C383 O397 1.245 . S
C384 O408 1.247 . S
C384 O410 1.289 . S
Mg385 O386 1.926 . S
Mg385 O395 1.984 . S
Mg385 O397 1.988 1_554 S
Mg385 O398 2.061 1_655 S
O386 Mg385 1.926 . S
O386 Mg387 1.986 . S
O386 Mg388 1.898 1_655 S
Mg387 O386 1.986 . S
Mg387 O394 2.042 . S
Mg387 O396 2.041 1_554 S
Mg387 O402 2.038 . S
Mg387 O410 2.238 1_554 S
Mg388 O386 1.898 1_455 S
Mg388 O389 1.936 1_554 S
Mg388 O399 2.128 . S
Mg388 O401 2.082 1_455 S
Mg388 O410 2.085 1_454 S
Mg388 O411 2.075 1_554 S
O389 Mg388 1.936 1_556 S
O389 Mg390 1.926 . S
O389 Mg391 1.986 . S
Mg390 O389 1.926 . S
Mg390 O404 1.984 . S
Mg390 O407 1.988 1_556 S
Mg390 O408 2.061 1_455 S
Mg391 O389 1.986 . S
Mg391 O399 2.238 1_556 S
Mg391 O403 2.042 . S
Mg391 O405 2.041 1_556 S
Mg391 O412 2.038 . S
C392 O398 1.247 . S
C392 O399 1.289 . S
C393 O411 1.245 . S
C393 O412 1.274 . S
O394 C382 1.241 . S
O394 Mg387 2.042 . S
O395 C382 1.280 . S
O395 Mg385 1.984 . S
O396 C383 1.277 . S
O396 Mg387 2.041 1_556 S
O397 C383 1.245 . S
O397 Mg385 1.988 1_556 S
O398 Mg385 2.061 1_455 S
O398 C392 1.247 . S
O399 Mg388 2.128 . S
O399 Mg391 2.238 1_554 S
O399 C392 1.289 . S
C400 O401 1.245 . S
C400 O402 1.274 . S
O401 Mg388 2.082 1_655 S
O401 C400 1.245 . S
O402 Mg387 2.038 . S
O402 C400 1.274 . S
O403 Mg391 2.042 . S
O403 C406 1.241 . S
O404 Mg390 1.984 . S
O404 C406 1.280 . S
O405 Mg391 2.041 1_554 S
O405 C409 1.277 . S
C406 O403 1.241 . S
C406 O404 1.280 . S
O407 Mg390 1.988 1_554 S
O407 C409 1.245 . S
O408 C384 1.247 . S
O408 Mg390 2.061 1_655 S
C409 O405 1.277 . S
C409 O407 1.245 . S
O410 C384 1.289 . S
O410 Mg387 2.238 1_556 S
O410 Mg388 2.085 1_656 S
O411 Mg388 2.075 1_556 S
O411 C393 1.245 . S
O412 Mg391 2.038 . S
O412 C393 1.274 . S
C413 O425 1.241 . S
C413 O426 1.280 . S
C414 O427 1.277 . S
C414 O428 1.245 . S
C415 O439 1.247 . S
C415 O441 1.289 . S
Mg416 O417 1.926 . S
Mg416 O426 1.984 . S
Mg416 O428 1.988 1_554 S
Mg416 O429 2.061 . S
O417 Mg416 1.926 . S
O417 Mg418 1.986 . S
O417 Mg419 1.918 . S
Mg418 O417 1.986 . S
Mg418 O425 2.042 . S
Mg418 O427 2.041 1_554 S
Mg418 O433 2.038 . S
Mg418 O441 2.238 1_554 S
Mg419 O417 1.918 . S
Mg419 O420 1.915 1_554 S
Mg419 O430 2.111 . S
Mg419 O432 2.085 . S
Mg419 O441 2.102 1_554 S
Mg419 O442 2.072 1_554 S
O420 Mg419 1.915 1_556 S
O420 Mg421 1.926 . S
O420 Mg422 1.986 . S
Mg421 O420 1.926 . S
Mg421 O435 1.984 . S
Mg421 O438 1.988 1_556 S
Mg421 O439 2.061 . S
Mg422 O420 1.986 . S
Mg422 O430 2.238 1_556 S
Mg422 O434 2.042 . S
Mg422 O436 2.041 1_556 S
Mg422 O443 2.038 . S
C423 O429 1.247 . S
C423 O430 1.289 . S
C424 O442 1.245 . S
C424 O443 1.274 . S
O425 C413 1.241 . S
O425 Mg418 2.042 . S
O426 C413 1.280 . S
O426 Mg416 1.984 . S
O427 C414 1.277 . S
O427 Mg418 2.041 1_556 S
O428 C414 1.245 . S
O428 Mg416 1.988 1_556 S
O429 Mg416 2.061 . S
O429 C423 1.247 . S
O430 Mg419 2.111 . S
O430 Mg422 2.238 1_554 S
O430 C423 1.289 . S
C431 O432 1.245 . S
C431 O433 1.274 . S
O432 Mg419 2.085 . S
O432 C431 1.245 . S
O433 Mg418 2.038 . S
O433 C431 1.274 . S
O434 Mg422 2.042 . S
O434 C437 1.241 . S
O435 Mg421 1.984 . S
O435 C437 1.280 . S
O436 Mg422 2.041 1_554 S
O436 C440 1.277 . S
C437 O434 1.241 . S
C437 O435 1.280 . S
O438 Mg421 1.988 1_554 S
O438 C440 1.245 . S
O439 C415 1.247 . S
O439 Mg421 2.061 . S
C440 O436 1.277 . S
C440 O438 1.245 . S
O441 C415 1.289 . S
O441 Mg418 2.238 1_556 S
O441 Mg419 2.102 1_556 S
O442 Mg419 2.072 1_556 S
O442 C424 1.245 . S
O443 Mg422 2.038 . S
O443 C424 1.274 . S
C444 O456 1.241 . S
C444 O457 1.280 . S
C445 O458 1.277 . S
C445 O459 1.245 . S
C446 O470 1.247 . S
C446 O472 1.289 . S
Mg447 O448 1.926 . S
Mg447 O457 1.984 . S
Mg447 O459 1.988 . S
Mg447 O460 2.061 1_655 S
O448 Mg447 1.926 . S
O448 Mg449 1.986 . S
O448 Mg450 1.897 1_655 S
Mg449 O448 1.986 . S
Mg449 O456 2.042 . S
Mg449 O458 2.041 . S
Mg449 O464 2.038 . S
Mg449 O472 2.238 . S
Mg450 O448 1.897 1_455 S
Mg450 O451 1.937 . S
Mg450 O461 2.124 . S
Mg450 O463 2.075 1_455 S
Mg450 O472 2.089 1_455 S
Mg450 O473 2.082 . S
O451 Mg450 1.937 . S
O451 Mg452 1.926 . S
O451 Mg453 1.986 . S
Mg452 O451 1.926 . S
Mg452 O466 1.984 . S
Mg452 O469 1.988 . S
Mg452 O470 2.061 1_455 S
Mg453 O451 1.986 . S
Mg453 O461 2.238 . S
Mg453 O465 2.042 . S
Mg453 O467 2.041 . S
Mg453 O474 2.038 . S
C454 O460 1.247 . S
C454 O461 1.289 . S
C455 O473 1.245 . S
C455 O474 1.274 . S
O456 C444 1.241 . S
O456 Mg449 2.042 . S
O457 C444 1.280 . S
O457 Mg447 1.984 . S
O458 C445 1.277 . S
O458 Mg449 2.041 . S
O459 C445 1.245 . S
O459 Mg447 1.988 . S
O460 Mg447 2.061 1_455 S
O460 C454 1.247 . S
O461 Mg450 2.124 . S
O461 Mg453 2.238 . S
O461 C454 1.289 . S
C462 O463 1.245 . S
C462 O464 1.274 . S
O463 Mg450 2.075 1_655 S
O463 C462 1.245 . S
O464 Mg449 2.038 . S
O464 C462 1.274 . S
O465 Mg453 2.042 . S
O465 C468 1.241 . S
O466 Mg452 1.984 . S
O466 C468 1.280 . S
O467 Mg453 2.041 . S
O467 C471 1.277 . S
C468 O465 1.241 . S
C468 O466 1.280 . S
O469 Mg452 1.988 . S
O469 C471 1.245 . S
O470 C446 1.247 . S
O470 Mg452 2.061 1_655 S
C471 O467 1.277 . S
C471 O469 1.245 . S
O472 C446 1.289 . S
O472 Mg449 2.238 . S
O472 Mg450 2.089 1_655 S
O473 Mg450 2.082 . S
O473 C455 1.245 . S
O474 Mg453 2.038 . S
O474 C455 1.274 . S
C475 O487 1.241 . S
C475 O488 1.280 . S
C476 O489 1.277 . S
C476 O490 1.245 . S
C477 O501 1.247 . S
C477 O503 1.289 . S
Mg478 O479 1.926 . S
Mg478 O488 1.984 . S
Mg478 O490 1.988 . S
Mg478 O491 2.061 . S
O479 Mg478 1.926 . S
O479 Mg480 1.986 1_545 S
O479 Mg481 1.921 . S
Mg480 O479 1.986 1_565 S
Mg480 O487 2.042 1_565 S
Mg480 O489 2.041 1_565 S
Mg480 O495 2.038 . S
Mg480 O503 2.238 . S
Mg481 O479 1.921 . S
Mg481 O482 1.913 1_545 S
Mg481 O492 2.107 . S
Mg481 O494 2.076 1_545 S
Mg481 O503 2.106 1_545 S
Mg481 O504 2.081 . S
O482 Mg481 1.913 1_565 S
O482 Mg483 1.926 . S
O482 Mg484 1.986 1_565 S
Mg483 O482 1.926 . S
Mg483 O497 1.984 . S
Mg483 O500 1.988 . S
Mg483 O501 2.061 . S
Mg484 O482 1.986 1_545 S
Mg484 O492 2.238 . S
Mg484 O496 2.042 1_545 S
Mg484 O498 2.041 1_545 S
Mg484 O505 2.038 . S
C485 O491 1.247 . S
C485 O492 1.289 . S
C486 O504 1.245 . S
C486 O505 1.274 . S
O487 C475 1.241 . S
O487 Mg480 2.042 1_545 S
O488 C475 1.280 . S
O488 Mg478 1.984 . S
O489 C476 1.277 . S
O489 Mg480 2.041 1_545 S
O490 C476 1.245 . S
O490 Mg478 1.988 . S
O491 Mg478 2.061 . S
O491 C485 1.247 . S
O492 Mg481 2.107 . S
O492 Mg484 2.238 . S
O492 C485 1.289 . S
C493 O494 1.245 . S
C493 O495 1.274 . S
O494 Mg481 2.076 1_565 S
O494 C493 1.245 . S
O495 Mg480 2.038 . S
O495 C493 1.274 . S
O496 Mg484 2.042 1_565 S
O496 C499 1.241 . S
O497 Mg483 1.984 . S
O497 C499 1.280 . S
O498 Mg484 2.041 1_565 S
O498 C502 1.277 . S
C499 O496 1.241 . S
C499 O497 1.280 . S
O500 Mg483 1.988 . S
O500 C502 1.245 . S
O501 C477 1.247 . S
O501 Mg483 2.061 . S
C502 O498 1.277 . S
C502 O500 1.245 . S
O503 C477 1.289 . S
O503 Mg480 2.238 . S
O503 Mg481 2.106 1_565 S
O504 Mg481 2.081 . S
O504 C486 1.245 . S
O505 Mg484 2.038 . S
O505 C486 1.274 . S
H506 C514 0.950 . S
H507 C519 0.950 . S
H508 C516 0.950 . S
H509 C518 0.950 . S
H510 C520 0.950 . S
H511 C522 0.950 . S
H512 C524 0.950 . S
H513 C525 0.950 . S
C514 H506 0.950 . S
C514 C515 1.386 . S
C514 C516 1.391 . S
C515 C514 1.386 . S
C515 C519 1.393 . S
C516 H508 0.950 . S
C516 C514 1.391 . S
C516 C517 1.400 . S
C517 C516 1.400 . S
C517 C518 1.398 . S
C517 C523 1.491 . S
C518 H509 0.950 . S
C518 C517 1.398 . S
C518 C519 1.391 . S
C519 H507 0.950 . S
C519 C515 1.393 . S
C519 C518 1.391 . S
C520 H510 0.950 . S
C520 C521 1.386 . S
C520 C522 1.391 . S
C521 C520 1.386 . S
C521 C525 1.393 . S
C522 H511 0.950 . S
C522 C520 1.391 . S
C522 C523 1.400 . S
C523 C517 1.491 . S
C523 C522 1.400 . S
C523 C524 1.398 . S
C524 H512 0.950 . S
C524 C523 1.398 . S
C524 C525 1.391 . S
C525 H513 0.950 . S
C525 C521 1.393 . S
C525 C524 1.391 . S
H526 C534 0.950 . S
H527 C539 0.950 . S
H528 C536 0.950 . S
H529 C538 0.950 . S
H530 C540 0.950 . S
H531 C542 0.950 . S
H532 C544 0.950 . S
H533 C545 0.950 . S
C534 H526 0.950 . S
C534 C535 1.386 . S
C534 C536 1.391 . S
C535 C534 1.386 . S
C535 C539 1.393 . S
C536 H528 0.950 . S
C536 C534 1.391 . S
C536 C537 1.400 . S
C537 C536 1.400 . S
C537 C538 1.398 . S
C537 C543 1.491 . S
C538 H529 0.950 . S
C538 C537 1.398 . S
C538 C539 1.391 . S
C539 H527 0.950 . S
C539 C535 1.393 . S
C539 C538 1.391 . S
C540 H530 0.950 . S
C540 C541 1.386 . S
C540 C542 1.391 . S
C541 C540 1.386 . S
C541 C545 1.393 . S
C542 H531 0.950 . S
C542 C540 1.391 . S
C542 C543 1.400 . S
C543 C537 1.491 . S
C543 C542 1.400 . S
C543 C544 1.398 . S
C544 H532 0.950 . S
C544 C543 1.398 . S
C544 C545 1.391 . S
C545 H533 0.950 . S
C545 C541 1.393 . S
C545 C544 1.391 . S
H546 C554 0.950 . S
H547 C559 0.950 . S
H548 C556 0.950 . S
H549 C558 0.950 . S
H550 C560 0.950 . S
H551 C562 0.950 . S
H552 C564 0.950 . S
H553 C565 0.950 . S
C554 H546 0.950 . S
C554 C555 1.386 . S
C554 C556 1.391 . S
C555 C554 1.386 . S
C555 C559 1.393 . S
C556 H548 0.950 . S
C556 C554 1.391 . S
C556 C557 1.400 . S
C557 C556 1.400 . S
C557 C558 1.398 . S
C557 C563 1.491 . S
C558 H549 0.950 . S
C558 C557 1.398 . S
C558 C559 1.391 . S
C559 H547 0.950 . S
C559 C555 1.393 . S
C559 C558 1.391 . S
C560 H550 0.950 . S
C560 C561 1.386 . S
C560 C562 1.391 . S
C561 C560 1.386 . S
C561 C565 1.393 . S
C562 H551 0.950 . S
C562 C560 1.391 . S
C562 C563 1.400 . S
C563 C557 1.491 . S
C563 C562 1.400 . S
C563 C564 1.398 . S
C564 H552 0.950 . S
C564 C563 1.398 . S
C564 C565 1.391 . S
C565 H553 0.950 . S
C565 C561 1.393 . S
C565 C564 1.391 . S
H566 C574 0.950 . S
H567 C579 0.950 . S
H568 C576 0.950 . S
H569 C578 0.950 . S
H570 C580 0.950 . S
H571 C582 0.950 . S
H572 C584 0.950 . S
H573 C585 0.950 . S
C574 H566 0.950 . S
C574 C575 1.386 . S
C574 C576 1.391 . S
C575 C574 1.386 . S
C575 C579 1.393 . S
C576 H568 0.950 . S
C576 C574 1.391 . S
C576 C577 1.400 . S
C577 C576 1.400 . S
C577 C578 1.398 . S
C577 C583 1.491 . S
C578 H569 0.950 . S
C578 C577 1.398 . S
C578 C579 1.391 . S
C579 H567 0.950 . S
C579 C575 1.393 . S
C579 C578 1.391 . S
C580 H570 0.950 . S
C580 C581 1.386 . S
C580 C582 1.391 . S
C581 C580 1.386 . S
C581 C585 1.393 . S
C582 H571 0.950 . S
C582 C580 1.391 . S
C582 C583 1.400 . S
C583 C577 1.491 . S
C583 C582 1.400 . S
C583 C584 1.398 . S
C584 H572 0.950 . S
C584 C583 1.398 . S
C584 C585 1.391 . S
C585 H573 0.950 . S
C585 C581 1.393 . S
C585 C584 1.391 . S
H586 C594 0.950 . S
H587 C599 0.950 . S
H588 C596 0.950 . S
H589 C598 0.950 . S
H590 C600 0.950 . S
H591 C602 0.950 . S
H592 C604 0.950 . S
H593 C605 0.950 . S
C594 H586 0.950 . S
C594 C595 1.386 . S
C594 C596 1.391 . S
C595 C594 1.386 . S
C595 C599 1.393 . S
C596 H588 0.950 . S
C596 C594 1.391 . S
C596 C597 1.400 . S
C597 C596 1.400 . S
C597 C598 1.398 . S
C597 C603 1.491 . S
C598 H589 0.950 . S
C598 C597 1.398 . S
C598 C599 1.391 . S
C599 H587 0.950 . S
C599 C595 1.393 . S
C599 C598 1.391 . S
C600 H590 0.950 . S
C600 C601 1.386 . S
C600 C602 1.391 . S
C601 C600 1.386 . S
C601 C605 1.393 . S
C602 H591 0.950 . S
C602 C600 1.391 . S
C602 C603 1.400 . S
C603 C597 1.491 . S
C603 C602 1.400 . S
C603 C604 1.398 . S
C604 H592 0.950 . S
C604 C603 1.398 . S
C604 C605 1.391 . S
C605 H593 0.950 . S
C605 C601 1.393 . S
C605 C604 1.391 . S
H606 C614 0.950 . S
H607 C619 0.950 . S
H608 C616 0.950 . S
H609 C618 0.950 . S
H610 C620 0.950 . S
H611 C622 0.950 . S
H612 C624 0.950 . S
H613 C625 0.950 . S
C614 H606 0.950 . S
C614 C615 1.386 . S
C614 C616 1.391 . S
C615 C614 1.386 . S
C615 C619 1.393 . S
C616 H608 0.950 . S
C616 C614 1.391 . S
C616 C617 1.400 . S
C617 C616 1.400 . S
C617 C618 1.398 . S
C617 C623 1.491 . S
C618 H609 0.950 . S
C618 C617 1.398 . S
C618 C619 1.391 . S
C619 H607 0.950 . S
C619 C615 1.393 . S
C619 C618 1.391 . S
C620 H610 0.950 . S
C620 C621 1.386 . S
C620 C622 1.391 . S
C621 C620 1.386 . S
C621 C625 1.393 . S
C622 H611 0.950 . S
C622 C620 1.391 . S
C622 C623 1.400 . S
C623 C617 1.491 . S
C623 C622 1.400 . S
C623 C624 1.398 . S
C624 H612 0.950 . S
C624 C623 1.398 . S
C624 C625 1.391 . S
C625 H613 0.950 . S
C625 C621 1.393 . S
C625 C624 1.391 . S
H626 C634 0.950 . S
H627 C639 0.950 . S
H628 C636 0.950 . S
H629 C638 0.950 . S
H630 C640 0.950 . S
H631 C642 0.950 . S
H632 C644 0.950 . S
H633 C645 0.950 . S
C634 H626 0.950 . S
C634 C635 1.386 . S
C634 C636 1.391 . S
C635 C634 1.386 . S
C635 C639 1.393 . S
C636 H628 0.950 . S
C636 C634 1.391 . S
C636 C637 1.400 . S
C637 C636 1.400 . S
C637 C638 1.398 . S
C637 C643 1.491 . S
C638 H629 0.950 . S
C638 C637 1.398 . S
C638 C639 1.391 . S
C639 H627 0.950 . S
C639 C635 1.393 . S
C639 C638 1.391 . S
C640 H630 0.950 . S
C640 C641 1.386 . S
C640 C642 1.391 . S
C641 C640 1.386 . S
C641 C645 1.393 . S
C642 H631 0.950 . S
C642 C640 1.391 . S
C642 C643 1.400 . S
C643 C637 1.491 . S
C643 C642 1.400 . S
C643 C644 1.398 . S
C644 H632 0.950 . S
C644 C643 1.398 . S
C644 C645 1.391 . S
C645 H633 0.950 . S
C645 C641 1.393 . S
C645 C644 1.391 . S
H646 C654 0.950 . S
H647 C659 0.950 . S
H648 C656 0.950 . S
H649 C658 0.950 . S
H650 C660 0.950 . S
H651 C662 0.950 . S
H652 C664 0.950 . S
H653 C665 0.950 . S
C654 H646 0.950 . S
C654 C655 1.386 . S
C654 C656 1.391 . S
C655 C654 1.386 . S
C655 C659 1.393 . S
C656 H648 0.950 . S
C656 C654 1.391 . S
C656 C657 1.400 . S
C657 C656 1.400 . S
C657 C658 1.398 . S
C657 C663 1.491 . S
C658 H649 0.950 . S
C658 C657 1.398 . S
C658 C659 1.391 . S
C659 H647 0.950 . S
C659 C655 1.393 . S
C659 C658 1.391 . S
C660 H650 0.950 . S
C660 C661 1.386 . S
C660 C662 1.391 . S
C661 C660 1.386 . S
C661 C665 1.393 . S
C662 H651 0.950 . S
C662 C660 1.391 . S
C662 C663 1.400 . S
C663 C657 1.491 . S
C663 C662 1.400 . S
C663 C664 1.398 . S
C664 H652 0.950 . S
C664 C663 1.398 . S
C664 C665 1.391 . S
C665 H653 0.950 . S
C665 C661 1.393 . S
C665 C664 1.391 . S
H666 C674 0.950 . S
H667 C679 0.950 . S
H668 C676 0.950 . S
H669 C678 0.950 . S
H670 C680 0.950 . S
H671 C682 0.950 . S
H672 C684 0.950 . S
H673 C685 0.950 . S
C674 H666 0.950 . S
C674 C675 1.386 . S
C674 C676 1.391 . S
C675 C674 1.386 . S
C675 C679 1.393 . S
C676 H668 0.950 . S
C676 C674 1.391 . S
C676 C677 1.400 . S
C677 C676 1.400 . S
C677 C678 1.398 . S
C677 C683 1.491 . S
C678 H669 0.950 . S
C678 C677 1.398 . S
C678 C679 1.391 . S
C679 H667 0.950 . S
C679 C675 1.393 . S
C679 C678 1.391 . S
C680 H670 0.950 . S
C680 C681 1.386 . S
C680 C682 1.391 . S
C681 C680 1.386 . S
C681 C685 1.393 . S
C682 H671 0.950 . S
C682 C680 1.391 . S
C682 C683 1.400 . S
C683 C677 1.491 . S
C683 C682 1.400 . S
C683 C684 1.398 . S
C684 H672 0.950 . S
C684 C683 1.398 . S
C684 C685 1.391 . S
C685 H673 0.950 . S
C685 C681 1.393 . S
C685 C684 1.391 . S
H686 C694 0.950 . S
H687 C699 0.950 . S
H688 C696 0.950 . S
H689 C698 0.950 . S
H690 C700 0.950 . S
H691 C702 0.950 . S
H692 C704 0.950 . S
H693 C705 0.950 . S
C694 H686 0.950 . S
C694 C695 1.386 . S
C694 C696 1.391 . S
C695 C694 1.386 . S
C695 C699 1.393 . S
C696 H688 0.950 . S
C696 C694 1.391 . S
C696 C697 1.400 . S
C697 C696 1.400 . S
C697 C698 1.398 . S
C697 C703 1.491 . S
C698 H689 0.950 . S
C698 C697 1.398 . S
C698 C699 1.391 . S
C699 H687 0.950 . S
C699 C695 1.393 . S
C699 C698 1.391 . S
C700 H690 0.950 . S
C700 C701 1.386 . S
C700 C702 1.391 . S
C701 C700 1.386 . S
C701 C705 1.393 . S
C702 H691 0.950 . S
C702 C700 1.391 . S
C702 C703 1.400 . S
C703 C697 1.491 . S
C703 C702 1.400 . S
C703 C704 1.398 . S
C704 H692 0.950 . S
C704 C703 1.398 . S
C704 C705 1.391 . S
C705 H693 0.950 . S
C705 C701 1.393 . S
C705 C704 1.391 . S
H706 C714 0.950 . S
H707 C719 0.950 . S
H708 C716 0.950 . S
H709 C718 0.950 . S
H710 C720 0.950 . S
H711 C722 0.950 . S
H712 C724 0.950 . S
H713 C725 0.950 . S
C714 H706 0.950 . S
C714 C715 1.386 . S
C714 C716 1.391 . S
C715 C714 1.386 . S
C715 C719 1.393 . S
C716 H708 0.950 . S
C716 C714 1.391 . S
C716 C717 1.400 . S
C717 C716 1.400 . S
C717 C718 1.398 . S
C717 C723 1.491 . S
C718 H709 0.950 . S
C718 C717 1.398 . S
C718 C719 1.391 . S
C719 H707 0.950 . S
C719 C715 1.393 . S
C719 C718 1.391 . S
C720 H710 0.950 . S
C720 C721 1.386 . S
C720 C722 1.391 . S
C721 C720 1.386 . S
C721 C725 1.393 . S
C722 H711 0.950 . S
C722 C720 1.391 . S
C722 C723 1.400 . S
C723 C717 1.491 . S
C723 C722 1.400 . S
C723 C724 1.398 . S
C724 H712 0.950 . S
C724 C723 1.398 . S
C724 C725 1.391 . S
C725 H713 0.950 . S
C725 C721 1.393 . S
C725 C724 1.391 . S
H726 C734 0.950 . S
H727 C739 0.950 . S
H728 C736 0.950 . S
H729 C738 0.950 . S
H730 C740 0.950 . S
H731 C742 0.950 . S
H732 C744 0.950 . S
H733 C745 0.950 . S
C734 H726 0.950 . S
C734 C735 1.386 . S
C734 C736 1.391 . S
C735 C734 1.386 . S
C735 C739 1.393 . S
C736 H728 0.950 . S
C736 C734 1.391 . S
C736 C737 1.400 . S
C737 C736 1.400 . S
C737 C738 1.398 . S
C737 C743 1.491 . S
C738 H729 0.950 . S
C738 C737 1.398 . S
C738 C739 1.391 . S
C739 H727 0.950 . S
C739 C735 1.393 . S
C739 C738 1.391 . S
C740 H730 0.950 . S
C740 C741 1.386 . S
C740 C742 1.391 . S
C741 C740 1.386 . S
C741 C745 1.393 . S
C742 H731 0.950 . S
C742 C740 1.391 . S
C742 C743 1.400 . S
C743 C737 1.491 . S
C743 C742 1.400 . S
C743 C744 1.398 . S
C744 H732 0.950 . S
C744 C743 1.398 . S
C744 C745 1.391 . S
C745 H733 0.950 . S
C745 C741 1.393 . S
C745 C744 1.391 . S
H746 C754 0.950 . S
H747 C759 0.950 . S
H748 C756 0.950 . S
H749 C758 0.950 . S
H750 C760 0.950 . S
H751 C762 0.950 . S
H752 C764 0.950 . S
H753 C765 0.950 . S
C754 H746 0.950 . S
C754 C755 1.386 . S
C754 C756 1.391 . S
C755 C754 1.386 . S
C755 C759 1.393 . S
C756 H748 0.950 . S
C756 C754 1.391 . S
C756 C757 1.400 . S
C757 C756 1.400 . S
C757 C758 1.398 . S
C757 C763 1.491 . S
C758 H749 0.950 . S
C758 C757 1.398 . S
C758 C759 1.391 . S
C759 H747 0.950 . S
C759 C755 1.393 . S
C759 C758 1.391 . S
C760 H750 0.950 . S
C760 C761 1.386 . S
C760 C762 1.391 . S
C761 C760 1.386 . S
C761 C765 1.393 . S
C762 H751 0.950 . S
C762 C760 1.391 . S
C762 C763 1.400 . S
C763 C757 1.491 . S
C763 C762 1.400 . S
C763 C764 1.398 . S
C764 H752 0.950 . S
C764 C763 1.398 . S
C764 C765 1.391 . S
C765 H753 0.950 . S
C765 C761 1.393 . S
C765 C764 1.391 . S
H766 C774 0.950 . S
H767 C779 0.950 . S
H768 C776 0.950 . S
H769 C778 0.950 . S
H770 C780 0.950 . S
H771 C782 0.950 . S
H772 C784 0.950 . S
H773 C785 0.950 . S
C774 H766 0.950 . S
C774 C775 1.386 . S
C774 C776 1.391 . S
C775 C774 1.386 . S
C775 C779 1.393 . S
C776 H768 0.950 . S
C776 C774 1.391 . S
C776 C777 1.400 . S
C777 C776 1.400 . S
C777 C778 1.398 . S
C777 C783 1.491 . S
C778 H769 0.950 . S
C778 C777 1.398 . S
C778 C779 1.391 . S
C779 H767 0.950 . S
C779 C775 1.393 . S
C779 C778 1.391 . S
C780 H770 0.950 . S
C780 C781 1.386 . S
C780 C782 1.391 . S
C781 C780 1.386 . S
C781 C785 1.393 . S
C782 H771 0.950 . S
C782 C780 1.391 . S
C782 C783 1.400 . S
C783 C777 1.491 . S
C783 C782 1.400 . S
C783 C784 1.398 . S
C784 H772 0.950 . S
C784 C783 1.398 . S
C784 C785 1.391 . S
C785 H773 0.950 . S
C785 C781 1.393 . S
C785 C784 1.391 . S
H786 C794 0.950 . S
H787 C799 0.950 . S
H788 C796 0.950 . S
H789 C798 0.950 . S
H790 C800 0.950 . S
H791 C802 0.950 . S
H792 C804 0.950 . S
H793 C805 0.950 . S
C794 H786 0.950 . S
C794 C795 1.386 . S
C794 C796 1.391 . S
C795 C794 1.386 . S
C795 C799 1.393 . S
C796 H788 0.950 . S
C796 C794 1.391 . S
C796 C797 1.400 . S
C797 C796 1.400 . S
C797 C798 1.398 . S
C797 C803 1.491 . S
C798 H789 0.950 . S
C798 C797 1.398 . S
C798 C799 1.391 . S
C799 H787 0.950 . S
C799 C795 1.393 . S
C799 C798 1.391 . S
C800 H790 0.950 . S
C800 C801 1.386 . S
C800 C802 1.391 . S
C801 C800 1.386 . S
C801 C805 1.393 . S
C802 H791 0.950 . S
C802 C800 1.391 . S
C802 C803 1.400 . S
C803 C797 1.491 . S
C803 C802 1.400 . S
C803 C804 1.398 . S
C804 H792 0.950 . S
C804 C803 1.398 . S
C804 C805 1.391 . S
C805 H793 0.950 . S
C805 C801 1.393 . S
C805 C804 1.391 . S
H806 C814 0.950 . S
H807 C819 0.950 . S
H808 C816 0.950 . S
H809 C818 0.950 . S
H810 C820 0.950 . S
H811 C822 0.950 . S
H812 C824 0.950 . S
H813 C825 0.950 . S
C814 H806 0.950 . S
C814 C815 1.386 . S
C814 C816 1.391 . S
C815 C814 1.386 . S
C815 C819 1.393 . S
C816 H808 0.950 . S
C816 C814 1.391 . S
C816 C817 1.400 . S
C817 C816 1.400 . S
C817 C818 1.398 . S
C817 C823 1.491 . S
C818 H809 0.950 . S
C818 C817 1.398 . S
C818 C819 1.391 . S
C819 H807 0.950 . S
C819 C815 1.393 . S
C819 C818 1.391 . S
C820 H810 0.950 . S
C820 C821 1.386 . S
C820 C822 1.391 . S
C821 C820 1.386 . S
C821 C825 1.393 . S
C822 H811 0.950 . S
C822 C820 1.391 . S
C822 C823 1.400 . S
C823 C817 1.491 . S
C823 C822 1.400 . S
C823 C824 1.398 . S
C824 H812 0.950 . S
C824 C823 1.398 . S
C824 C825 1.391 . S
C825 H813 0.950 . S
C825 C821 1.393 . S
C825 C824 1.391 . S
H826 C834 0.950 . S
H827 C839 0.950 . S
H828 C836 0.950 . S
H829 C838 0.950 . S
H830 C840 0.950 . S
H831 C842 0.950 . S
H832 C844 0.950 . S
H833 C845 0.950 . S
C834 H826 0.950 . S
C834 C835 1.386 . S
C834 C836 1.391 . S
C835 C834 1.386 . S
C835 C839 1.393 . S
C836 H828 0.950 . S
C836 C834 1.391 . S
C836 C837 1.400 . S
C837 C836 1.400 . S
C837 C838 1.398 . S
C837 C843 1.491 . S
C838 H829 0.950 . S
C838 C837 1.398 . S
C838 C839 1.391 . S
C839 H827 0.950 . S
C839 C835 1.393 . S
C839 C838 1.391 . S
C840 H830 0.950 . S
C840 C841 1.386 . S
C840 C842 1.391 . S
C841 C840 1.386 . S
C841 C845 1.393 . S
C842 H831 0.950 . S
C842 C840 1.391 . S
C842 C843 1.400 . S
C843 C837 1.491 . S
C843 C842 1.400 . S
C843 C844 1.398 . S
C844 H832 0.950 . S
C844 C843 1.398 . S
C844 C845 1.391 . S
C845 H833 0.950 . S
C845 C841 1.393 . S
C845 C844 1.391 . S
H846 C854 0.950 . S
H847 C859 0.950 . S
H848 C856 0.950 . S
H849 C858 0.950 . S
H850 C860 0.950 . S
H851 C862 0.950 . S
H852 C864 0.950 . S
H853 C865 0.950 . S
C854 H846 0.950 . S
C854 C855 1.386 . S
C854 C856 1.391 . S
C855 C854 1.386 . S
C855 C859 1.393 . S
C856 H848 0.950 . S
C856 C854 1.391 . S
C856 C857 1.400 . S
C857 C856 1.400 . S
C857 C858 1.398 . S
C857 C863 1.491 . S
C858 H849 0.950 . S
C858 C857 1.398 . S
C858 C859 1.391 . S
C859 H847 0.950 . S
C859 C855 1.393 . S
C859 C858 1.391 . S
C860 H850 0.950 . S
C860 C861 1.386 . S
C860 C862 1.391 . S
C861 C860 1.386 . S
C861 C865 1.393 . S
C862 H851 0.950 . S
C862 C860 1.391 . S
C862 C863 1.400 . S
C863 C857 1.491 . S
C863 C862 1.400 . S
C863 C864 1.398 . S
C864 H852 0.950 . S
C864 C863 1.398 . S
C864 C865 1.391 . S
C865 H853 0.950 . S
C865 C861 1.393 . S
C865 C864 1.391 . S
H866 C874 0.950 . S
H867 C879 0.950 . S
H868 C876 0.950 . S
H869 C878 0.950 . S
H870 C880 0.950 . S
H871 C882 0.950 . S
H872 C884 0.950 . S
H873 C885 0.950 . S
C874 H866 0.950 . S
C874 C875 1.386 . S
C874 C876 1.391 . S
C875 C874 1.386 . S
C875 C879 1.393 . S
C876 H868 0.950 . S
C876 C874 1.391 . S
C876 C877 1.400 . S
C877 C876 1.400 . S
C877 C878 1.398 . S
C877 C883 1.491 . S
C878 H869 0.950 . S
C878 C877 1.398 . S
C878 C879 1.391 . S
C879 H867 0.950 . S
C879 C875 1.393 . S
C879 C878 1.391 . S
C880 H870 0.950 . S
C880 C881 1.386 . S
C880 C882 1.391 . S
C881 C880 1.386 . S
C881 C885 1.393 . S
C882 H871 0.950 . S
C882 C880 1.391 . S
C882 C883 1.400 . S
C883 C877 1.491 . S
C883 C882 1.400 . S
C883 C884 1.398 . S
C884 H872 0.950 . S
C884 C883 1.398 . S
C884 C885 1.391 . S
C885 H873 0.950 . S
C885 C881 1.393 . S
C885 C884 1.391 . S
H886 C894 0.950 . S
H887 C899 0.950 . S
H888 C896 0.950 . S
H889 C898 0.950 . S
H890 C900 0.950 . S
H891 C902 0.950 . S
H892 C904 0.950 . S
H893 C905 0.950 . S
C894 H886 0.950 . S
C894 C895 1.386 . S
C894 C896 1.391 . S
C895 C894 1.386 . S
C895 C899 1.393 . S
C896 H888 0.950 . S
C896 C894 1.391 . S
C896 C897 1.400 . S
C897 C896 1.400 . S
C897 C898 1.398 . S
C897 C903 1.491 . S
C898 H889 0.950 . S
C898 C897 1.398 . S
C898 C899 1.391 . S
C899 H887 0.950 . S
C899 C895 1.393 . S
C899 C898 1.391 . S
C900 H890 0.950 . S
C900 C901 1.386 . S
C900 C902 1.391 . S
C901 C900 1.386 . S
C901 C905 1.393 . S
C902 H891 0.950 . S
C902 C900 1.391 . S
C902 C903 1.400 . S
C903 C897 1.491 . S
C903 C902 1.400 . S
C903 C904 1.398 . S
C904 H892 0.950 . S
C904 C903 1.398 . S
C904 C905 1.391 . S
C905 H893 0.950 . S
C905 C901 1.393 . S
C905 C904 1.391 . S
H906 C914 0.950 . S
H907 C919 0.950 . S
H908 C916 0.950 . S
H909 C918 0.950 . S
H910 C920 0.950 . S
H911 C922 0.950 . S
H912 C924 0.950 . S
H913 C925 0.950 . S
C914 H906 0.950 . S
C914 C915 1.386 . S
C914 C916 1.391 . S
C915 C914 1.386 . S
C915 C919 1.393 . S
C916 H908 0.950 . S
C916 C914 1.391 . S
C916 C917 1.400 . S
C917 C916 1.400 . S
C917 C918 1.398 . S
C917 C923 1.491 . S
C918 H909 0.950 . S
C918 C917 1.398 . S
C918 C919 1.391 . S
C919 H907 0.950 . S
C919 C915 1.393 . S
C919 C918 1.391 . S
C920 H910 0.950 . S
C920 C921 1.386 . S
C920 C922 1.391 . S
C921 C920 1.386 . S
C921 C925 1.393 . S
C922 H911 0.950 . S
C922 C920 1.391 . S
C922 C923 1.400 . S
C923 C917 1.491 . S
C923 C922 1.400 . S
C923 C924 1.398 . S
C924 H912 0.950 . S
C924 C923 1.398 . S
C924 C925 1.391 . S
C925 H913 0.950 . S
C925 C921 1.393 . S
C925 C924 1.391 . S
H926 C934 0.950 . S
H927 C939 0.950 . S
H928 C936 0.950 . S
H929 C938 0.950 . S
H930 C940 0.950 . S
H931 C942 0.950 . S
H932 C944 0.950 . S
H933 C945 0.950 . S
C934 H926 0.950 . S
C934 C935 1.386 . S
C934 C936 1.391 . S
C935 C934 1.386 . S
C935 C939 1.393 . S
C936 H928 0.950 . S
C936 C934 1.391 . S
C936 C937 1.400 . S
C937 C936 1.400 . S
C937 C938 1.398 . S
C937 C943 1.491 . S
C938 H929 0.950 . S
C938 C937 1.398 . S
C938 C939 1.391 . S
C939 H927 0.950 . S
C939 C935 1.393 . S
C939 C938 1.391 . S
C940 H930 0.950 . S
C940 C941 1.386 . S
C940 C942 1.391 . S
C941 C940 1.386 . S
C941 C945 1.393 . S
C942 H931 0.950 . S
C942 C940 1.391 . S
C942 C943 1.400 . S
C943 C937 1.491 . S
C943 C942 1.400 . S
C943 C944 1.398 . S
C944 H932 0.950 . S
C944 C943 1.398 . S
C944 C945 1.391 . S
C945 H933 0.950 . S
C945 C941 1.393 . S
C945 C944 1.391 . S
H946 C954 0.950 . S
H947 C959 0.950 . S
H948 C956 0.950 . S
H949 C958 0.950 . S
H950 C960 0.950 . S
H951 C962 0.950 . S
H952 C964 0.950 . S
H953 C965 0.950 . S
C954 H946 0.950 . S
C954 C955 1.386 . S
C954 C956 1.391 . S
C955 C954 1.386 . S
C955 C959 1.393 . S
C956 H948 0.950 . S
C956 C954 1.391 . S
C956 C957 1.400 . S
C957 C956 1.400 . S
C957 C958 1.398 . S
C957 C963 1.491 . S
C958 H949 0.950 . S
C958 C957 1.398 . S
C958 C959 1.391 . S
C959 H947 0.950 . S
C959 C955 1.393 . S
C959 C958 1.391 . S
C960 H950 0.950 . S
C960 C961 1.386 . S
C960 C962 1.391 . S
C961 C960 1.386 . S
C961 C965 1.393 . S
C962 H951 0.950 . S
C962 C960 1.391 . S
C962 C963 1.400 . S
C963 C957 1.491 . S
C963 C962 1.400 . S
C963 C964 1.398 . S
C964 H952 0.950 . S
C964 C963 1.398 . S
C964 C965 1.391 . S
C965 H953 0.950 . S
C965 C961 1.393 . S
C965 C964 1.391 . S
H966 C974 0.950 . S
H967 C979 0.950 . S
H968 C976 0.950 . S
H969 C978 0.950 . S
H970 C980 0.950 . S
H971 C982 0.950 . S
H972 C984 0.950 . S
H973 C985 0.950 . S
C974 H966 0.950 . S
C974 C975 1.386 . S
C974 C976 1.391 . S
C975 C974 1.386 . S
C975 C979 1.393 . S
C976 H968 0.950 . S
C976 C974 1.391 . S
C976 C977 1.400 . S
C977 C976 1.400 . S
C977 C978 1.398 . S
C977 C983 1.491 . S
C978 H969 0.950 . S
C978 C977 1.398 . S
C978 C979 1.391 . S
C979 H967 0.950 . S
C979 C975 1.393 . S
C979 C978 1.391 . S
C980 H970 0.950 . S
C980 C981 1.386 . S
C980 C982 1.391 . S
C981 C980 1.386 . S
C981 C985 1.393 . S
C982 H971 0.950 . S
C982 C980 1.391 . S
C982 C983 1.400 . S
C983 C977 1.491 . S
C983 C982 1.400 . S
C983 C984 1.398 . S
C984 H972 0.950 . S
C984 C983 1.398 . S
C984 C985 1.391 . S
C985 H973 0.950 . S
C985 C981 1.393 . S
C985 C984 1.391 . S
H986 C994 0.950 . S
H987 C999 0.950 . S
H988 C996 0.950 . S
H989 C998 0.950 . S
H990 C1000 0.950 . S
H991 C1002 0.950 . S
H992 C1004 0.950 . S
H993 C1005 0.950 . S
C994 H986 0.950 . S
C994 C995 1.386 . S
C994 C996 1.391 . S
C995 C994 1.386 . S
C995 C999 1.393 . S
C996 H988 0.950 . S
C996 C994 1.391 . S
C996 C997 1.400 . S
C997 C996 1.400 . S
C997 C998 1.398 . S
C997 C1003 1.491 . S
C998 H989 0.950 . S
C998 C997 1.398 . S
C998 C999 1.391 . S
C999 H987 0.950 . S
C999 C995 1.393 . S
C999 C998 1.391 . S
C1000 H990 0.950 . S
C1000 C1001 1.386 . S
C1000 C1002 1.391 . S
C1001 C1000 1.386 . S
C1001 C1005 1.393 . S
C1002 H991 0.950 . S
C1002 C1000 1.391 . S
C1002 C1003 1.400 . S
C1003 C997 1.491 . S
C1003 C1002 1.400 . S
C1003 C1004 1.398 . S
C1004 H992 0.950 . S
C1004 C1003 1.398 . S
C1004 C1005 1.391 . S
C1005 H993 0.950 . S
C1005 C1001 1.393 . S
C1005 C1004 1.391 . S
H1006 C1014 0.950 . S
H1007 C1019 0.950 . S
H1008 C1016 0.950 . S
H1009 C1018 0.950 . S
H1010 C1020 0.950 . S
H1011 C1022 0.950 . S
H1012 C1024 0.950 . S
H1013 C1025 0.950 . S
C1014 H1006 0.950 . S
C1014 C1015 1.386 . S
C1014 C1016 1.391 . S
C1015 C1014 1.386 . S
C1015 C1019 1.393 . S
C1016 H1008 0.950 . S
C1016 C1014 1.391 . S
C1016 C1017 1.400 . S
C1017 C1016 1.400 . S
C1017 C1018 1.398 . S
C1017 C1023 1.491 . S
C1018 H1009 0.950 . S
C1018 C1017 1.398 . S
C1018 C1019 1.391 . S
C1019 H1007 0.950 . S
C1019 C1015 1.393 . S
C1019 C1018 1.391 . S
C1020 H1010 0.950 . S
C1020 C1021 1.386 . S
C1020 C1022 1.391 . S
C1021 C1020 1.386 . S
C1021 C1025 1.393 . S
C1022 H1011 0.950 . S
C1022 C1020 1.391 . S
C1022 C1023 1.400 . S
C1023 C1017 1.491 . S
C1023 C1022 1.400 . S
C1023 C1024 1.398 . S
C1024 H1012 0.950 . S
C1024 C1023 1.398 . S
C1024 C1025 1.391 . S
C1025 H1013 0.950 . S
C1025 C1021 1.393 . S
C1025 C1024 1.391 . S
H1026 C1034 0.950 . S
H1027 C1039 0.950 . S
H1028 C1036 0.950 . S
H1029 C1038 0.950 . S
H1030 C1040 0.950 . S
H1031 C1042 0.950 . S
H1032 C1044 0.950 . S
H1033 C1045 0.950 . S
C1034 H1026 0.950 . S
C1034 C1035 1.386 . S
C1034 C1036 1.391 . S
C1035 C1034 1.386 . S
C1035 C1039 1.393 . S
C1036 H1028 0.950 . S
C1036 C1034 1.391 . S
C1036 C1037 1.400 . S
C1037 C1036 1.400 . S
C1037 C1038 1.398 . S
C1037 C1043 1.491 . S
C1038 H1029 0.950 . S
C1038 C1037 1.398 . S
C1038 C1039 1.391 . S
C1039 H1027 0.950 . S
C1039 C1035 1.393 . S
C1039 C1038 1.391 . S
C1040 H1030 0.950 . S
C1040 C1041 1.386 . S
C1040 C1042 1.391 . S
C1041 C1040 1.386 . S
C1041 C1045 1.393 . S
C1042 H1031 0.950 . S
C1042 C1040 1.391 . S
C1042 C1043 1.400 . S
C1043 C1037 1.491 . S
C1043 C1042 1.400 . S
C1043 C1044 1.398 . S
C1044 H1032 0.950 . S
C1044 C1043 1.398 . S
C1044 C1045 1.391 . S
C1045 H1033 0.950 . S
C1045 C1041 1.393 . S
C1045 C1044 1.391 . S
H1046 C1054 0.950 . S
H1047 C1059 0.950 . S
H1048 C1056 0.950 . S
H1049 C1058 0.950 . S
H1050 C1060 0.950 . S
H1051 C1062 0.950 . S
H1052 C1064 0.950 . S
H1053 C1065 0.950 . S
C1054 H1046 0.950 . S
C1054 C1055 1.386 . S
C1054 C1056 1.391 . S
C1055 C1054 1.386 . S
C1055 C1059 1.393 . S
C1056 H1048 0.950 . S
C1056 C1054 1.391 . S
C1056 C1057 1.400 . S
C1057 C1056 1.400 . S
C1057 C1058 1.398 . S
C1057 C1063 1.491 . S
C1058 H1049 0.950 . S
C1058 C1057 1.398 . S
C1058 C1059 1.391 . S
C1059 H1047 0.950 . S
C1059 C1055 1.393 . S
C1059 C1058 1.391 . S
C1060 H1050 0.950 . S
C1060 C1061 1.386 . S
C1060 C1062 1.391 . S
C1061 C1060 1.386 . S
C1061 C1065 1.393 . S
C1062 H1051 0.950 . S
C1062 C1060 1.391 . S
C1062 C1063 1.400 . S
C1063 C1057 1.491 . S
C1063 C1062 1.400 . S
C1063 C1064 1.398 . S
C1064 H1052 0.950 . S
C1064 C1063 1.398 . S
C1064 C1065 1.391 . S
C1065 H1053 0.950 . S
C1065 C1061 1.393 . S
C1065 C1064 1.391 . S
H1066 C1074 0.950 . S
H1067 C1079 0.950 . S
H1068 C1076 0.950 . S
H1069 C1078 0.950 . S
H1070 C1080 0.950 . S
H1071 C1082 0.950 . S
H1072 C1084 0.950 . S
H1073 C1085 0.950 . S
C1074 H1066 0.950 . S
C1074 C1075 1.386 . S
C1074 C1076 1.391 . S
C1075 C1074 1.386 . S
C1075 C1079 1.393 . S
C1076 H1068 0.950 . S
C1076 C1074 1.391 . S
C1076 C1077 1.400 . S
C1077 C1076 1.400 . S
C1077 C1078 1.398 . S
C1077 C1083 1.491 . S
C1078 H1069 0.950 . S
C1078 C1077 1.398 . S
C1078 C1079 1.391 . S
C1079 H1067 0.950 . S
C1079 C1075 1.393 . S
C1079 C1078 1.391 . S
C1080 H1070 0.950 . S
C1080 C1081 1.386 . S
C1080 C1082 1.391 . S
C1081 C1080 1.386 . S
C1081 C1085 1.393 . S
C1082 H1071 0.950 . S
C1082 C1080 1.391 . S
C1082 C1083 1.400 . S
C1083 C1077 1.491 . S
C1083 C1082 1.400 . S
C1083 C1084 1.398 . S
C1084 H1072 0.950 . S
C1084 C1083 1.398 . S
C1084 C1085 1.391 . S
C1085 H1073 0.950 . S
C1085 C1081 1.393 . S
C1085 C1084 1.391 . S
H1086 C1094 0.950 . S
H1087 C1099 0.950 . S
H1088 C1096 0.950 . S
H1089 C1098 0.950 . S
H1090 C1100 0.950 . S
H1091 C1102 0.950 . S
H1092 C1104 0.950 . S
H1093 C1105 0.950 . S
C1094 H1086 0.950 . S
C1094 C1095 1.386 . S
C1094 C1096 1.391 . S
C1095 C1094 1.386 . S
C1095 C1099 1.393 . S
C1096 H1088 0.950 . S
C1096 C1094 1.391 . S
C1096 C1097 1.400 . S
C1097 C1096 1.400 . S
C1097 C1098 1.398 . S
C1097 C1103 1.491 . S
C1098 H1089 0.950 . S
C1098 C1097 1.398 . S
C1098 C1099 1.391 . S
C1099 H1087 0.950 . S
C1099 C1095 1.393 . S
C1099 C1098 1.391 . S
C1100 H1090 0.950 . S
C1100 C1101 1.386 . S
C1100 C1102 1.391 . S
C1101 C1100 1.386 . S
C1101 C1105 1.393 . S
C1102 H1091 0.950 . S
C1102 C1100 1.391 . S
C1102 C1103 1.400 . S
C1103 C1097 1.491 . S
C1103 C1102 1.400 . S
C1103 C1104 1.398 . S
C1104 H1092 0.950 . S
C1104 C1103 1.398 . S
C1104 C1105 1.391 . S
C1105 H1093 0.950 . S
C1105 C1101 1.393 . S
C1105 C1104 1.391 . S
H1106 C1114 0.950 . S
H1107 C1119 0.950 . S
H1108 C1116 0.950 . S
H1109 C1118 0.950 . S
H1110 C1120 0.950 . S
H1111 C1122 0.950 . S
H1112 C1124 0.950 . S
H1113 C1125 0.950 . S
C1114 H1106 0.950 . S
C1114 C1115 1.386 . S
C1114 C1116 1.391 . S
C1115 C1114 1.386 . S
C1115 C1119 1.393 . S
C1116 H1108 0.950 . S
C1116 C1114 1.391 . S
C1116 C1117 1.400 . S
C1117 C1116 1.400 . S
C1117 C1118 1.398 . S
C1117 C1123 1.491 . S
C1118 H1109 0.950 . S
C1118 C1117 1.398 . S
C1118 C1119 1.391 . S
C1119 H1107 0.950 . S
C1119 C1115 1.393 . S
C1119 C1118 1.391 . S
C1120 H1110 0.950 . S
C1120 C1121 1.386 . S
C1120 C1122 1.391 . S
C1121 C1120 1.386 . S
C1121 C1125 1.393 . S
C1122 H1111 0.950 . S
C1122 C1120 1.391 . S
C1122 C1123 1.400 . S
C1123 C1117 1.491 . S
C1123 C1122 1.400 . S
C1123 C1124 1.398 . S
C1124 H1112 0.950 . S
C1124 C1123 1.398 . S
C1124 C1125 1.391 . S
C1125 H1113 0.950 . S
C1125 C1121 1.393 . S
C1125 C1124 1.391 . S
H1126 C1134 0.950 . S
H1127 C1139 0.950 . S
H1128 C1136 0.950 . S
H1129 C1138 0.950 . S
H1130 C1140 0.950 . S
H1131 C1142 0.950 . S
H1132 C1144 0.950 . S
H1133 C1145 0.950 . S
C1134 H1126 0.950 . S
C1134 C1135 1.386 . S
C1134 C1136 1.391 . S
C1135 C1134 1.386 . S
C1135 C1139 1.393 . S
C1136 H1128 0.950 . S
C1136 C1134 1.391 . S
C1136 C1137 1.400 . S
C1137 C1136 1.400 . S
C1137 C1138 1.398 . S
C1137 C1143 1.491 . S
C1138 H1129 0.950 . S
C1138 C1137 1.398 . S
C1138 C1139 1.391 . S
C1139 H1127 0.950 . S
C1139 C1135 1.393 . S
C1139 C1138 1.391 . S
C1140 H1130 0.950 . S
C1140 C1141 1.386 . S
C1140 C1142 1.391 . S
C1141 C1140 1.386 . S
C1141 C1145 1.393 . S
C1142 H1131 0.950 . S
C1142 C1140 1.391 . S
C1142 C1143 1.400 . S
C1143 C1137 1.491 . S
C1143 C1142 1.400 . S
C1143 C1144 1.398 . S
C1144 H1132 0.950 . S
C1144 C1143 1.398 . S
C1144 C1145 1.391 . S
C1145 H1133 0.950 . S
C1145 C1141 1.393 . S
C1145 C1144 1.391 . S
H1146 C1154 0.950 . S
H1147 C1159 0.950 . S
H1148 C1156 0.950 . S
H1149 C1158 0.950 . S
H1150 C1160 0.950 . S
H1151 C1162 0.950 . S
H1152 C1164 0.950 . S
H1153 C1165 0.950 . S
C1154 H1146 0.950 . S
C1154 C1155 1.386 . S
C1154 C1156 1.391 . S
C1155 C1154 1.386 . S
C1155 C1159 1.393 . S
C1156 H1148 0.950 . S
C1156 C1154 1.391 . S
C1156 C1157 1.400 . S
C1157 C1156 1.400 . S
C1157 C1158 1.398 . S
C1157 C1163 1.491 . S
C1158 H1149 0.950 . S
C1158 C1157 1.398 . S
C1158 C1159 1.391 . S
C1159 H1147 0.950 . S
C1159 C1155 1.393 . S
C1159 C1158 1.391 . S
C1160 H1150 0.950 . S
C1160 C1161 1.386 . S
C1160 C1162 1.391 . S
C1161 C1160 1.386 . S
C1161 C1165 1.393 . S
C1162 H1151 0.950 . S
C1162 C1160 1.391 . S
C1162 C1163 1.400 . S
C1163 C1157 1.491 . S
C1163 C1162 1.400 . S
C1163 C1164 1.398 . S
C1164 H1152 0.950 . S
C1164 C1163 1.398 . S
C1164 C1165 1.391 . S
C1165 H1153 0.950 . S
C1165 C1161 1.393 . S
C1165 C1164 1.391 . S
H1166 C1174 0.950 . S
H1167 C1179 0.950 . S
H1168 C1176 0.950 . S
H1169 C1178 0.950 . S
H1170 C1180 0.950 . S
H1171 C1182 0.950 . S
H1172 C1184 0.950 . S
H1173 C1185 0.950 . S
C1174 H1166 0.950 . S
C1174 C1175 1.386 . S
C1174 C1176 1.391 . S
C1175 C1174 1.386 . S
C1175 C1179 1.393 . S
C1176 H1168 0.950 . S
C1176 C1174 1.391 . S
C1176 C1177 1.400 . S
C1177 C1176 1.400 . S
C1177 C1178 1.398 . S
C1177 C1183 1.491 . S
C1178 H1169 0.950 . S
C1178 C1177 1.398 . S
C1178 C1179 1.391 . S
C1179 H1167 0.950 . S
C1179 C1175 1.393 . S
C1179 C1178 1.391 . S
C1180 H1170 0.950 . S
C1180 C1181 1.386 . S
C1180 C1182 1.391 . S
C1181 C1180 1.386 . S
C1181 C1185 1.393 . S
C1182 H1171 0.950 . S
C1182 C1180 1.391 . S
C1182 C1183 1.400 . S
C1183 C1177 1.491 . S
C1183 C1182 1.400 . S
C1183 C1184 1.398 . S
C1184 H1172 0.950 . S
C1184 C1183 1.398 . S
C1184 C1185 1.391 . S
C1185 H1173 0.950 . S
C1185 C1181 1.393 . S
C1185 C1184 1.391 . S
H1186 C1194 0.950 . S
H1187 C1199 0.950 . S
H1188 C1196 0.950 . S
H1189 C1198 0.950 . S
H1190 C1200 0.950 . S
H1191 C1202 0.950 . S
H1192 C1204 0.950 . S
H1193 C1205 0.950 . S
C1194 H1186 0.950 . S
C1194 C1195 1.386 . S
C1194 C1196 1.391 . S
C1195 C1194 1.386 . S
C1195 C1199 1.393 . S
C1196 H1188 0.950 . S
C1196 C1194 1.391 . S
C1196 C1197 1.400 . S
C1197 C1196 1.400 . S
C1197 C1198 1.398 . S
C1197 C1203 1.491 . S
C1198 H1189 0.950 . S
C1198 C1197 1.398 . S
C1198 C1199 1.391 . S
C1199 H1187 0.950 . S
C1199 C1195 1.393 . S
C1199 C1198 1.391 . S
C1200 H1190 0.950 . S
C1200 C1201 1.386 . S
C1200 C1202 1.391 . S
C1201 C1200 1.386 . S
C1201 C1205 1.393 . S
C1202 H1191 0.950 . S
C1202 C1200 1.391 . S
C1202 C1203 1.400 . S
C1203 C1197 1.491 . S
C1203 C1202 1.400 . S
C1203 C1204 1.398 . S
C1204 H1192 0.950 . S
C1204 C1203 1.398 . S
C1204 C1205 1.391 . S
C1205 H1193 0.950 . S
C1205 C1201 1.393 . S
C1205 C1204 1.391 . S
H1206 C1214 0.950 . S
H1207 C1219 0.950 . S
H1208 C1216 0.950 . S
H1209 C1218 0.950 . S
H1210 C1220 0.950 . S
H1211 C1222 0.950 . S
H1212 C1224 0.950 . S
H1213 C1225 0.950 . S
C1214 H1206 0.950 . S
C1214 C1215 1.386 . S
C1214 C1216 1.391 . S
C1215 C1214 1.386 . S
C1215 C1219 1.393 . S
C1216 H1208 0.950 . S
C1216 C1214 1.391 . S
C1216 C1217 1.400 . S
C1217 C1216 1.400 . S
C1217 C1218 1.398 . S
C1217 C1223 1.491 . S
C1218 H1209 0.950 . S
C1218 C1217 1.398 . S
C1218 C1219 1.391 . S
C1219 H1207 0.950 . S
C1219 C1215 1.393 . S
C1219 C1218 1.391 . S
C1220 H1210 0.950 . S
C1220 C1221 1.386 . S
C1220 C1222 1.391 . S
C1221 C1220 1.386 . S
C1221 C1225 1.393 . S
C1222 H1211 0.950 . S
C1222 C1220 1.391 . S
C1222 C1223 1.400 . S
C1223 C1217 1.491 . S
C1223 C1222 1.400 . S
C1223 C1224 1.398 . S
C1224 H1212 0.950 . S
C1224 C1223 1.398 . S
C1224 C1225 1.391 . S
C1225 H1213 0.950 . S
C1225 C1221 1.393 . S
C1225 C1224 1.391 . S
H1226 C1234 0.950 . S
H1227 C1239 0.950 . S
H1228 C1236 0.950 . S
H1229 C1238 0.950 . S
H1230 C1240 0.950 . S
H1231 C1242 0.950 . S
H1232 C1244 0.950 . S
H1233 C1245 0.950 . S
C1234 H1226 0.950 . S
C1234 C1235 1.386 . S
C1234 C1236 1.391 . S
C1235 C1234 1.386 . S
C1235 C1239 1.393 . S
C1236 H1228 0.950 . S
C1236 C1234 1.391 . S
C1236 C1237 1.400 . S
C1237 C1236 1.400 . S
C1237 C1238 1.398 . S
C1237 C1243 1.491 . S
C1238 H1229 0.950 . S
C1238 C1237 1.398 . S
C1238 C1239 1.391 . S
C1239 H1227 0.950 . S
C1239 C1235 1.393 . S
C1239 C1238 1.391 . S
C1240 H1230 0.950 . S
C1240 C1241 1.386 . S
C1240 C1242 1.391 . S
C1241 C1240 1.386 . S
C1241 C1245 1.393 . S
C1242 H1231 0.950 . S
C1242 C1240 1.391 . S
C1242 C1243 1.400 . S
C1243 C1237 1.491 . S
C1243 C1242 1.400 . S
C1243 C1244 1.398 . S
C1244 H1232 0.950 . S
C1244 C1243 1.398 . S
C1244 C1245 1.391 . S
C1245 H1233 0.950 . S
C1245 C1241 1.393 . S
C1245 C1244 1.391 . S
H1246 C1254 0.950 . S
H1247 C1259 0.950 . S
H1248 C1256 0.950 . S
H1249 C1258 0.950 . S
H1250 C1260 0.950 . S
H1251 C1262 0.950 . S
H1252 C1264 0.950 . S
H1253 C1265 0.950 . S
C1254 H1246 0.950 . S
C1254 C1255 1.386 . S
C1254 C1256 1.391 . S
C1255 C1254 1.386 . S
C1255 C1259 1.393 . S
C1256 H1248 0.950 . S
C1256 C1254 1.391 . S
C1256 C1257 1.400 . S
C1257 C1256 1.400 . S
C1257 C1258 1.398 . S
C1257 C1263 1.491 . S
C1258 H1249 0.950 . S
C1258 C1257 1.398 . S
C1258 C1259 1.391 . S
C1259 H1247 0.950 . S
C1259 C1255 1.393 . S
C1259 C1258 1.391 . S
C1260 H1250 0.950 . S
C1260 C1261 1.386 . S
C1260 C1262 1.391 . S
C1261 C1260 1.386 . S
C1261 C1265 1.393 . S
C1262 H1251 0.950 . S
C1262 C1260 1.391 . S
C1262 C1263 1.400 . S
C1263 C1257 1.491 . S
C1263 C1262 1.400 . S
C1263 C1264 1.398 . S
C1264 H1252 0.950 . S
C1264 C1263 1.398 . S
C1264 C1265 1.391 . S
C1265 H1253 0.950 . S
C1265 C1261 1.393 . S
C1265 C1264 1.391 . S
H1266 C1274 0.950 . S
H1267 C1279 0.950 . S
H1268 C1276 0.950 . S
H1269 C1278 0.950 . S
H1270 C1280 0.950 . S
H1271 C1282 0.950 . S
H1272 C1284 0.950 . S
H1273 C1285 0.950 . S
C1274 H1266 0.950 . S
C1274 C1275 1.386 . S
C1274 C1276 1.391 . S
C1275 C1274 1.386 . S
C1275 C1279 1.393 . S
C1276 H1268 0.950 . S
C1276 C1274 1.391 . S
C1276 C1277 1.400 . S
C1277 C1276 1.400 . S
C1277 C1278 1.398 . S
C1277 C1283 1.491 . S
C1278 H1269 0.950 . S
C1278 C1277 1.398 . S
C1278 C1279 1.391 . S
C1279 H1267 0.950 . S
C1279 C1275 1.393 . S
C1279 C1278 1.391 . S
C1280 H1270 0.950 . S
C1280 C1281 1.386 . S
C1280 C1282 1.391 . S
C1281 C1280 1.386 . S
C1281 C1285 1.393 . S
C1282 H1271 0.950 . S
C1282 C1280 1.391 . S
C1282 C1283 1.400 . S
C1283 C1277 1.491 . S
C1283 C1282 1.400 . S
C1283 C1284 1.398 . S
C1284 H1272 0.950 . S
C1284 C1283 1.398 . S
C1284 C1285 1.391 . S
C1285 H1273 0.950 . S
C1285 C1281 1.393 . S
C1285 C1284 1.391 . S
H1286 C1294 0.950 . S
H1287 C1299 0.950 . S
H1288 C1296 0.950 . S
H1289 C1298 0.950 . S
H1290 C1300 0.950 . S
H1291 C1302 0.950 . S
H1292 C1304 0.950 . S
H1293 C1305 0.950 . S
C1294 H1286 0.950 . S
C1294 C1295 1.386 . S
C1294 C1296 1.391 . S
C1295 C1294 1.386 . S
C1295 C1299 1.393 . S
C1296 H1288 0.950 . S
C1296 C1294 1.391 . S
C1296 C1297 1.400 . S
C1297 C1296 1.400 . S
C1297 C1298 1.398 . S
C1297 C1303 1.491 . S
C1298 H1289 0.950 . S
C1298 C1297 1.398 . S
C1298 C1299 1.391 . S
C1299 H1287 0.950 . S
C1299 C1295 1.393 . S
C1299 C1298 1.391 . S
C1300 H1290 0.950 . S
C1300 C1301 1.386 . S
C1300 C1302 1.391 . S
C1301 C1300 1.386 . S
C1301 C1305 1.393 . S
C1302 H1291 0.950 . S
C1302 C1300 1.391 . S
C1302 C1303 1.400 . S
C1303 C1297 1.491 . S
C1303 C1302 1.400 . S
C1303 C1304 1.398 . S
C1304 H1292 0.950 . S
C1304 C1303 1.398 . S
C1304 C1305 1.391 . S
C1305 H1293 0.950 . S
C1305 C1301 1.393 . S
C1305 C1304 1.391 . S
H1306 C1314 0.950 . S
H1307 C1319 0.950 . S
H1308 C1316 0.950 . S
H1309 C1318 0.950 . S
H1310 C1320 0.950 . S
H1311 C1322 0.950 . S
H1312 C1324 0.950 . S
H1313 C1325 0.950 . S
C1314 H1306 0.950 . S
C1314 C1315 1.386 . S
C1314 C1316 1.391 . S
C1315 C1314 1.386 . S
C1315 C1319 1.393 . S
C1316 H1308 0.950 . S
C1316 C1314 1.391 . S
C1316 C1317 1.400 . S
C1317 C1316 1.400 . S
C1317 C1318 1.398 . S
C1317 C1323 1.491 . S
C1318 H1309 0.950 . S
C1318 C1317 1.398 . S
C1318 C1319 1.391 . S
C1319 H1307 0.950 . S
C1319 C1315 1.393 . S
C1319 C1318 1.391 . S
C1320 H1310 0.950 . S
C1320 C1321 1.386 . S
C1320 C1322 1.391 . S
C1321 C1320 1.386 . S
C1321 C1325 1.393 . S
C1322 H1311 0.950 . S
C1322 C1320 1.391 . S
C1322 C1323 1.400 . S
C1323 C1317 1.491 . S
C1323 C1322 1.400 . S
C1323 C1324 1.398 . S
C1324 H1312 0.950 . S
C1324 C1323 1.398 . S
C1324 C1325 1.391 . S
C1325 H1313 0.950 . S
C1325 C1321 1.393 . S
C1325 C1324 1.391 . S
H1326 C1334 0.950 . S
H1327 C1339 0.950 . S
H1328 C1336 0.950 . S
H1329 C1338 0.950 . S
H1330 C1340 0.950 . S
H1331 C1342 0.950 . S
H1332 C1344 0.950 . S
H1333 C1345 0.950 . S
C1334 H1326 0.950 . S
C1334 C1335 1.386 . S
C1334 C1336 1.391 . S
C1335 C1334 1.386 . S
C1335 C1339 1.393 . S
C1336 H1328 0.950 . S
C1336 C1334 1.391 . S
C1336 C1337 1.400 . S
C1337 C1336 1.400 . S
C1337 C1338 1.398 . S
C1337 C1343 1.491 . S
C1338 H1329 0.950 . S
C1338 C1337 1.398 . S
C1338 C1339 1.391 . S
C1339 H1327 0.950 . S
C1339 C1335 1.393 . S
C1339 C1338 1.391 . S
C1340 H1330 0.950 . S
C1340 C1341 1.386 . S
C1340 C1342 1.391 . S
C1341 C1340 1.386 . S
C1341 C1345 1.393 . S
C1342 H1331 0.950 . S
C1342 C1340 1.391 . S
C1342 C1343 1.400 . S
C1343 C1337 1.491 . S
C1343 C1342 1.400 . S
C1343 C1344 1.398 . S
C1344 H1332 0.950 . S
C1344 C1343 1.398 . S
C1344 C1345 1.391 . S
C1345 H1333 0.950 . S
C1345 C1341 1.393 . S
C1345 C1344 1.391 . S
H1346 C1354 0.950 . S
H1347 C1359 0.950 . S
H1348 C1356 0.950 . S
H1349 C1358 0.950 . S
H1350 C1360 0.950 . S
H1351 C1362 0.950 . S
H1352 C1364 0.950 . S
H1353 C1365 0.950 . S
C1354 H1346 0.950 . S
C1354 C1355 1.386 . S
C1354 C1356 1.391 . S
C1355 C1354 1.386 . S
C1355 C1359 1.393 . S
C1356 H1348 0.950 . S
C1356 C1354 1.391 . S
C1356 C1357 1.400 . S
C1357 C1356 1.400 . S
C1357 C1358 1.398 . S
C1357 C1363 1.491 . S
C1358 H1349 0.950 . S
C1358 C1357 1.398 . S
C1358 C1359 1.391 . S
C1359 H1347 0.950 . S
C1359 C1355 1.393 . S
C1359 C1358 1.391 . S
C1360 H1350 0.950 . S
C1360 C1361 1.386 . S
C1360 C1362 1.391 . S
C1361 C1360 1.386 . S
C1361 C1365 1.393 . S
C1362 H1351 0.950 . S
C1362 C1360 1.391 . S
C1362 C1363 1.400 . S
C1363 C1357 1.491 . S
C1363 C1362 1.400 . S
C1363 C1364 1.398 . S
C1364 H1352 0.950 . S
C1364 C1363 1.398 . S
C1364 C1365 1.391 . S
C1365 H1353 0.950 . S
C1365 C1361 1.393 . S
C1365 C1364 1.391 . S
H1366 C1374 0.950 . S
H1367 C1379 0.950 . S
H1368 C1376 0.950 . S
H1369 C1378 0.950 . S
H1370 C1380 0.950 . S
H1371 C1382 0.950 . S
H1372 C1384 0.950 . S
H1373 C1385 0.950 . S
C1374 H1366 0.950 . S
C1374 C1375 1.386 . S
C1374 C1376 1.391 . S
C1375 C1374 1.386 . S
C1375 C1379 1.393 . S
C1376 H1368 0.950 . S
C1376 C1374 1.391 . S
C1376 C1377 1.400 . S
C1377 C1376 1.400 . S
C1377 C1378 1.398 . S
C1377 C1383 1.491 . S
C1378 H1369 0.950 . S
C1378 C1377 1.398 . S
C1378 C1379 1.391 . S
C1379 H1367 0.950 . S
C1379 C1375 1.393 . S
C1379 C1378 1.391 . S
C1380 H1370 0.950 . S
C1380 C1381 1.386 . S
C1380 C1382 1.391 . S
C1381 C1380 1.386 . S
C1381 C1385 1.393 . S
C1382 H1371 0.950 . S
C1382 C1380 1.391 . S
C1382 C1383 1.400 . S
C1383 C1377 1.491 . S
C1383 C1382 1.400 . S
C1383 C1384 1.398 . S
C1384 H1372 0.950 . S
C1384 C1383 1.398 . S
C1384 C1385 1.391 . S
C1385 H1373 0.950 . S
C1385 C1381 1.393 . S
C1385 C1384 1.391 . S
H1386 C1394 0.950 . S
H1387 C1399 0.950 . S
H1388 C1396 0.950 . S
H1389 C1398 0.950 . S
H1390 C1400 0.950 . S
H1391 C1402 0.950 . S
H1392 C1404 0.950 . S
H1393 C1405 0.950 . S
C1394 H1386 0.950 . S
C1394 C1395 1.386 . S
C1394 C1396 1.391 . S
C1395 C1394 1.386 . S
C1395 C1399 1.393 . S
C1396 H1388 0.950 . S
C1396 C1394 1.391 . S
C1396 C1397 1.400 . S
C1397 C1396 1.400 . S
C1397 C1398 1.398 . S
C1397 C1403 1.491 . S
C1398 H1389 0.950 . S
C1398 C1397 1.398 . S
C1398 C1399 1.391 . S
C1399 H1387 0.950 . S
C1399 C1395 1.393 . S
C1399 C1398 1.391 . S
C1400 H1390 0.950 . S
C1400 C1401 1.386 . S
C1400 C1402 1.391 . S
C1401 C1400 1.386 . S
C1401 C1405 1.393 . S
C1402 H1391 0.950 . S
C1402 C1400 1.391 . S
C1402 C1403 1.400 . S
C1403 C1397 1.491 . S
C1403 C1402 1.400 . S
C1403 C1404 1.398 . S
C1404 H1392 0.950 . S
C1404 C1403 1.398 . S
C1404 C1405 1.391 . S
C1405 H1393 0.950 . S
C1405 C1401 1.393 . S
C1405 C1404 1.391 . S
H1406 C1414 0.950 . S
H1407 C1419 0.950 . S
H1408 C1416 0.950 . S
H1409 C1418 0.950 . S
H1410 C1420 0.950 . S
H1411 C1422 0.950 . S
H1412 C1424 0.950 . S
H1413 C1425 0.950 . S
C1414 H1406 0.950 . S
C1414 C1415 1.386 . S
C1414 C1416 1.391 . S
C1415 C1414 1.386 . S
C1415 C1419 1.393 . S
C1416 H1408 0.950 . S
C1416 C1414 1.391 . S
C1416 C1417 1.400 . S
C1417 C1416 1.400 . S
C1417 C1418 1.398 . S
C1417 C1423 1.491 . S
C1418 H1409 0.950 . S
C1418 C1417 1.398 . S
C1418 C1419 1.391 . S
C1419 H1407 0.950 . S
C1419 C1415 1.393 . S
C1419 C1418 1.391 . S
C1420 H1410 0.950 . S
C1420 C1421 1.386 . S
C1420 C1422 1.391 . S
C1421 C1420 1.386 . S
C1421 C1425 1.393 . S
C1422 H1411 0.950 . S
C1422 C1420 1.391 . S
C1422 C1423 1.400 . S
C1423 C1417 1.491 . S
C1423 C1422 1.400 . S
C1423 C1424 1.398 . S
C1424 H1412 0.950 . S
C1424 C1423 1.398 . S
C1424 C1425 1.391 . S
C1425 H1413 0.950 . S
C1425 C1421 1.393 . S
C1425 C1424 1.391 . S
H1426 C1434 0.950 . S
H1427 C1439 0.950 . S
H1428 C1436 0.950 . S
H1429 C1438 0.950 . S
H1430 C1440 0.950 . S
H1431 C1442 0.950 . S
H1432 C1444 0.950 . S
H1433 C1445 0.950 . S
C1434 H1426 0.950 . S
C1434 C1435 1.386 . S
C1434 C1436 1.391 . S
C1435 C1434 1.386 . S
C1435 C1439 1.393 . S
C1436 H1428 0.950 . S
C1436 C1434 1.391 . S
C1436 C1437 1.400 . S
C1437 C1436 1.400 . S
C1437 C1438 1.398 . S
C1437 C1443 1.491 . S
C1438 H1429 0.950 . S
C1438 C1437 1.398 . S
C1438 C1439 1.391 . S
C1439 H1427 0.950 . S
C1439 C1435 1.393 . S
C1439 C1438 1.391 . S
C1440 H1430 0.950 . S
C1440 C1441 1.386 . S
C1440 C1442 1.391 . S
C1441 C1440 1.386 . S
C1441 C1445 1.393 . S
C1442 H1431 0.950 . S
C1442 C1440 1.391 . S
C1442 C1443 1.400 . S
C1443 C1437 1.491 . S
C1443 C1442 1.400 . S
C1443 C1444 1.398 . S
C1444 H1432 0.950 . S
C1444 C1443 1.398 . S
C1444 C1445 1.391 . S
C1445 H1433 0.950 . S
C1445 C1441 1.393 . S
C1445 C1444 1.391 . S
H1446 C1454 0.950 . S
H1447 C1459 0.950 . S
H1448 C1456 0.950 . S
H1449 C1458 0.950 . S
H1450 C1460 0.950 . S
H1451 C1462 0.950 . S
H1452 C1464 0.950 . S
H1453 C1465 0.950 . S
C1454 H1446 0.950 . S
C1454 C1455 1.386 . S
C1454 C1456 1.391 . S
C1455 C1454 1.386 . S
C1455 C1459 1.393 . S
C1456 H1448 0.950 . S
C1456 C1454 1.391 . S
C1456 C1457 1.400 . S
C1457 C1456 1.400 . S
C1457 C1458 1.398 . S
C1457 C1463 1.491 . S
C1458 H1449 0.950 . S
C1458 C1457 1.398 . S
C1458 C1459 1.391 . S
C1459 H1447 0.950 . S
C1459 C1455 1.393 . S
C1459 C1458 1.391 . S
C1460 H1450 0.950 . S
C1460 C1461 1.386 . S
C1460 C1462 1.391 . S
C1461 C1460 1.386 . S
C1461 C1465 1.393 . S
C1462 H1451 0.950 . S
C1462 C1460 1.391 . S
C1462 C1463 1.400 . S
C1463 C1457 1.491 . S
C1463 C1462 1.400 . S
C1463 C1464 1.398 . S
C1464 H1452 0.950 . S
C1464 C1463 1.398 . S
C1464 C1465 1.391 . S
C1465 H1453 0.950 . S
C1465 C1461 1.393 . S
C1465 C1464 1.391 . S
C521 C331 1.811 . S
C515 C2 1.839 . S
C541 C321 1.428 . S
C535 C48 1.431 . S
C561 C322 1.016 . S
C555 C97 1.032 . S
C575 C149 0.494 . S
C581 C344 0.673 . S
C595 C189 1.433 . S
C601 C347 1.412 . S
C621 C330 1.036 . S
C615 C202 1.043 . S
C635 C248 0.436 . S
C641 C320 0.624 . S
C655 C297 1.844 . S
C661 C338 1.823 . S
C681 C351 2.695 . S
C675 C31 2.768 . S
C695 C52 1.718 . S
C701 C400 1.676 . S
C721 C378 1.440 . S
C715 C88 1.457 . S
C741 C392 0.976 . S
C735 C122 0.998 . S
C755 C162 1.021 . S
C761 C353 1.001 . S
C781 C406 2.672 . S
C775 C231 2.767 . S
C795 C252 1.729 . S
C801 C362 1.688 . S
C815 C288 1.435 . S
C821 C383 1.408 . S
C835 C29 1.432 . S
C841 C409 1.418 . S
C855 C191 1.712 . S
C861 C393 1.657 . S
C881 C352 1.438 . S
C875 C229 1.472 . S
C901 C384 0.974 . S
C895 C257 1.008 . S
C915 C292 2.769 . S
C921 C375 2.691 . S
C935 C92 2.767 . S
C941 C382 2.671 . S
C961 C369 1.684 . S
C955 C151 1.727 . S
C975 C57 1.025 . S
C981 C361 1.027 . S
C995 C282 1.842 . S
C1001 C424 1.817 . S
C1015 C168 1.418 . S
C1021 C414 1.414 . S
C1041 C415 1.016 . S
C1035 C217 1.032 . S
C1061 C437 0.675 . S
C1055 C269 0.497 . S
C1075 C69 1.437 . S
C1081 C440 1.431 . S
C1101 C423 1.039 . S
C1095 C82 1.045 . S
C1115 C128 0.493 . S
C1121 C413 0.673 . S
C1135 C17 1.835 . S
C1141 C431 1.807 . S
C1155 C311 2.772 . S
C1161 C444 2.683 . S
C1181 C493 1.667 . S
C1175 C172 1.715 . S
C1195 C208 1.472 . S
C1201 C471 1.437 . S
C1215 C242 1.002 . S
C1221 C485 0.995 . S
C1241 C446 1.024 . S
C1235 C42 1.034 . S
C1255 C111 2.770 . S
C1261 C499 2.665 . S
C1281 C455 1.686 . S
C1275 C132 1.728 . S
C1301 C476 1.420 . S
C1295 C8 1.417 . S
C1321 C502 1.417 . S
C1315 C309 1.432 . S
C1335 C71 1.719 . S
C1341 C486 1.678 . S
C1355 C109 1.454 . S
C1361 C445 1.450 . S
C1381 C477 1.005 . S
C1375 C137 0.981 . S
C1395 C12 2.770 . S
C1401 C468 2.697 . S
C1415 C212 2.774 . S
C1421 C475 2.670 . S
C1441 C462 1.687 . S
C1435 C271 1.728 . S
C1461 C454 1.027 . S
C1455 C177 1.033 . S
