# Generated by pormake.
# Topology ocu, (6,8)-cn, num edge types: 1
# Building blocks:
#     Node 0, Type 0, BuildingBlock: MIFKUJ_clean_sbu_0, # of connection points: 6
#     Node 1, Type 0, BuildingBlock: MIFKUJ_clean_sbu_0, # of connection points: 6
#     Node 2, Type 0, BuildingBlock: MIFKUJ_clean_sbu_0, # of connection points: 6
#     Node 3, Type 0, BuildingBlock: MIFKUJ_clean_sbu_0, # of connection points: 6
#     Node 4, Type 0, BuildingBlock: MIFKUJ_clean_sbu_0, # of connection points: 6
#     Node 5, Type 0, BuildingBlock: MIFKUJ_clean_sbu_0, # of connection points: 6
#     Node 6, Type 0, BuildingBlock: MIFKUJ_clean_sbu_0, # of connection points: 6
#     Node 7, Type 0, BuildingBlock: MIFKUJ_clean_sbu_0, # of connection points: 6
#     Node 8, Type 1, BuildingBlock: GIZVER_clean_sbu_0, # of connection points: 8
#     Node 9, Type 1, BuildingBlock: GIZVER_clean_sbu_0, # of connection points: 8
#     Node 10, Type 1, BuildingBlock: GIZVER_clean_sbu_0, # of connection points: 8
#     Node 11, Type 1, BuildingBlock: GIZVER_clean_sbu_0, # of connection points: 8
#     Node 12, Type 1, BuildingBlock: GIZVER_clean_sbu_0, # of connection points: 8
#     Node 13, Type 1, BuildingBlock: GIZVER_clean_sbu_0, # of connection points: 8
#     Edge 14, Type (0, 1), BuildingBlock: XIVTED_clean_linker_0, # of connection points: 2
#     Edge 15, Type (0, 1), BuildingBlock: XIVTED_clean_linker_0, # of connection points: 2
#     Edge 16, Type (0, 1), BuildingBlock: XIVTED_clean_linker_0, # of connection points: 2
#     Edge 17, Type (0, 1), BuildingBlock: XIVTED_clean_linker_0, # of connection points: 2
#     Edge 18, Type (0, 1), BuildingBlock: XIVTED_clean_linker_0, # of connection points: 2
#     Edge 19, Type (0, 1), BuildingBlock: XIVTED_clean_linker_0, # of connection points: 2
#     Edge 20, Type (0, 1), BuildingBlock: XIVTED_clean_linker_0, # of connection points: 2
#     Edge 21, Type (0, 1), BuildingBlock: XIVTED_clean_linker_0, # of connection points: 2
#     Edge 22, Type (0, 1), BuildingBlock: XIVTED_clean_linker_0, # of connection points: 2
#     Edge 23, Type (0, 1), BuildingBlock: XIVTED_clean_linker_0, # of connection points: 2
#     Edge 24, Type (0, 1), BuildingBlock: XIVTED_clean_linker_0, # of connection points: 2
#     Edge 25, Type (0, 1), BuildingBlock: XIVTED_clean_linker_0, # of connection points: 2
#     Edge 26, Type (0, 1), BuildingBlock: XIVTED_clean_linker_0, # of connection points: 2
#     Edge 27, Type (0, 1), BuildingBlock: XIVTED_clean_linker_0, # of connection points: 2
#     Edge 28, Type (0, 1), BuildingBlock: XIVTED_clean_linker_0, # of connection points: 2
#     Edge 29, Type (0, 1), BuildingBlock: XIVTED_clean_linker_0, # of connection points: 2
#     Edge 30, Type (0, 1), BuildingBlock: XIVTED_clean_linker_0, # of connection points: 2
#     Edge 31, Type (0, 1), BuildingBlock: XIVTED_clean_linker_0, # of connection points: 2
#     Edge 32, Type (0, 1), BuildingBlock: XIVTED_clean_linker_0, # of connection points: 2
#     Edge 33, Type (0, 1), BuildingBlock: XIVTED_clean_linker_0, # of connection points: 2
#     Edge 34, Type (0, 1), BuildingBlock: XIVTED_clean_linker_0, # of connection points: 2
#     Edge 35, Type (0, 1), BuildingBlock: XIVTED_clean_linker_0, # of connection points: 2
#     Edge 36, Type (0, 1), BuildingBlock: XIVTED_clean_linker_0, # of connection points: 2
#     Edge 37, Type (0, 1), BuildingBlock: XIVTED_clean_linker_0, # of connection points: 2
#     Edge 38, Type (0, 1), BuildingBlock: XIVTED_clean_linker_0, # of connection points: 2
#     Edge 39, Type (0, 1), BuildingBlock: XIVTED_clean_linker_0, # of connection points: 2
#     Edge 40, Type (0, 1), BuildingBlock: XIVTED_clean_linker_0, # of connection points: 2
#     Edge 41, Type (0, 1), BuildingBlock: XIVTED_clean_linker_0, # of connection points: 2
#     Edge 42, Type (0, 1), BuildingBlock: XIVTED_clean_linker_0, # of connection points: 2
#     Edge 43, Type (0, 1), BuildingBlock: XIVTED_clean_linker_0, # of connection points: 2
#     Edge 44, Type (0, 1), BuildingBlock: XIVTED_clean_linker_0, # of connection points: 2
#     Edge 45, Type (0, 1), BuildingBlock: XIVTED_clean_linker_0, # of connection points: 2
#     Edge 46, Type (0, 1), BuildingBlock: XIVTED_clean_linker_0, # of connection points: 2
#     Edge 47, Type (0, 1), BuildingBlock: XIVTED_clean_linker_0, # of connection points: 2
#     Edge 48, Type (0, 1), BuildingBlock: XIVTED_clean_linker_0, # of connection points: 2
#     Edge 49, Type (0, 1), BuildingBlock: XIVTED_clean_linker_0, # of connection points: 2
#     Edge 50, Type (0, 1), BuildingBlock: XIVTED_clean_linker_0, # of connection points: 2
#     Edge 51, Type (0, 1), BuildingBlock: XIVTED_clean_linker_0, # of connection points: 2
#     Edge 52, Type (0, 1), BuildingBlock: XIVTED_clean_linker_0, # of connection points: 2
#     Edge 53, Type (0, 1), BuildingBlock: XIVTED_clean_linker_0, # of connection points: 2
#     Edge 54, Type (0, 1), BuildingBlock: XIVTED_clean_linker_0, # of connection points: 2
#     Edge 55, Type (0, 1), BuildingBlock: XIVTED_clean_linker_0, # of connection points: 2
#     Edge 56, Type (0, 1), BuildingBlock: XIVTED_clean_linker_0, # of connection points: 2
#     Edge 57, Type (0, 1), BuildingBlock: XIVTED_clean_linker_0, # of connection points: 2
#     Edge 58, Type (0, 1), BuildingBlock: XIVTED_clean_linker_0, # of connection points: 2
#     Edge 59, Type (0, 1), BuildingBlock: XIVTED_clean_linker_0, # of connection points: 2
#     Edge 60, Type (0, 1), BuildingBlock: XIVTED_clean_linker_0, # of connection points: 2
#     Edge 61, Type (0, 1), BuildingBlock: XIVTED_clean_linker_0, # of connection points: 2
# Relax obj value: 0.108
# Max RMSD: 0.228
# Mean RMSD: 0.162
data_MOF--net-ocu--node1-MIFKUJ_clean_sbu_0--node2-GIZVER_clean_sbu_0--edge1-XIVTED_clean_linker_0
_symmetry_space_group_name_H-M    P1
_symmetry_Int_Tables_number       1
_symmetry_cell_setting            triclinic
loop_
_symmetry_equiv_pos_as_xyz
'x, y, z'
_cell_length_a     42.759542
_cell_length_b     45.791445
_cell_length_c     30.312459
_cell_angle_alpha  91.355999
_cell_angle_beta   94.40499
_cell_angle_gamma 107.56074
loop_
_atom_site_label
_atom_site_type_symbol
_atom_site_fract_x
_atom_site_fract_y
_atom_site_fract_z
_atom_type_partial_charge
Zn0 Zn 0.22152 0.27931 0.2594 0.0
Zn1 Zn 0.27561 0.22148 0.24377 0.0
C2 C 0.20253 0.30717 0.33921 0.0
O3 O 0.19269 0.27948 0.35415 0.0
C4 C 0.30621 0.19871 0.17875 0.0
O5 O 0.32692 0.22608 0.18934 0.0
O6 O 0.18762 0.28483 0.21396 0.0
O7 O 0.26638 0.29782 0.23277 0.0
O8 O 0.29426 0.2653 0.21946 0.0
C9 C 0.18903 0.28927 0.17287 0.0
O10 O 0.21324 0.28471 0.1524 0.0
O11 O 0.21735 0.31144 0.304 0.0
C12 C 0.30385 0.20857 0.32891 0.0
O13 O 0.27531 0.20811 0.34252 0.0
O14 O 0.31009 0.21636 0.28981 0.0
O15 O 0.23083 0.20363 0.2714 0.0
O16 O 0.20189 0.23564 0.28279 0.0
O17 O 0.27902 0.19069 0.19635 0.0
C18 C 0.29097 0.29206 0.21738 0.0
C19 C 0.20574 0.20913 0.28573 0.0
Zn20 Zn 0.74176 0.27584 0.22511 0.0
Zn21 Zn 0.74634 0.21976 0.32107 0.0
C22 C 0.68413 0.28872 0.18741 0.0
O23 O 0.68277 0.26527 0.16073 0.0
C24 C 0.79718 0.19729 0.34722 0.0
O25 O 0.79984 0.21867 0.37811 0.0
O26 O 0.77792 0.29814 0.19166 0.0
O27 O 0.76283 0.281 0.28478 0.0
O28 O 0.77334 0.26097 0.3456 0.0
C29 C 0.77579 0.31805 0.16436 0.0
O30 O 0.74699 0.32123 0.15182 0.0
O31 O 0.70638 0.29639 0.21948 0.0
C32 C 0.70539 0.22045 0.38869 0.0
O33 O 0.70486 0.2466 0.37226 0.0
O34 O 0.72146 0.20481 0.37105 0.0
O35 O 0.711 0.21438 0.26898 0.0
O36 O 0.72606 0.23211 0.20446 0.0
O37 O 0.77488 0.19269 0.31538 0.0
C38 C 0.77654 0.2844 0.32356 0.0
C39 C 0.71245 0.20988 0.22766 0.0
Zn40 Zn 0.78068 0.73057 0.23536 0.0
Zn41 Zn 0.71596 0.772 0.27505 0.0
C42 C 0.81635 0.71152 0.30364 0.0
O43 O 0.8379 0.73543 0.28886 0.0
C44 C 0.69994 0.80017 0.19031 0.0
O45 O 0.69937 0.77507 0.16796 0.0
O46 O 0.80132 0.71449 0.18629 0.0
O47 O 0.73482 0.73146 0.21621 0.0
O48 O 0.69194 0.72887 0.25207 0.0
C49 C 0.79036 0.68575 0.17691 0.0
O50 O 0.76431 0.66943 0.19539 0.0
O51 O 0.7865 0.70436 0.28719 0.0
C52 C 0.7061 0.81002 0.34357 0.0
O53 O 0.73417 0.82736 0.33099 0.0
O54 O 0.69429 0.78272 0.32708 0.0
O55 O 0.76294 0.77231 0.29273 0.0
O56 O 0.80425 0.77485 0.2533 0.0
O57 O 0.70887 0.80322 0.23164 0.0
C58 C 0.70781 0.71542 0.22937 0.0
C59 C 0.78939 0.78832 0.27782 0.0
Zn60 Zn 0.22305 0.76749 0.26655 0.0
Zn61 Zn 0.28321 0.7417 0.23148 0.0
C62 C 0.17266 0.71775 0.28967 0.0
O63 O 0.15813 0.72822 0.25665 0.0
C64 C 0.2877 0.78877 0.16242 0.0
O65 O 0.26888 0.76805 0.13314 0.0
O66 O 0.19708 0.79669 0.27846 0.0
O67 O 0.26888 0.78882 0.29343 0.0
O68 O 0.29684 0.75509 0.29545 0.0
C69 C 0.20157 0.80829 0.31787 0.0
O70 O 0.22221 0.80088 0.34647 0.0
O71 O 0.2028 0.73123 0.30171 0.0
C72 C 0.3053 0.70494 0.17039 0.0
O73 O 0.28049 0.70886 0.14556 0.0
O74 O 0.31216 0.71747 0.20935 0.0
O75 O 0.23701 0.71572 0.21455 0.0
O76 O 0.2145 0.75248 0.20221 0.0
O77 O 0.29436 0.78121 0.20119 0.0
C78 C 0.29238 0.77974 0.3098 0.0
C79 C 0.21587 0.72564 0.19332 0.0
Zn80 Zn 0.25304 0.77599 0.68874 0.0
Zn81 Zn 0.26274 0.72515 0.79383 0.0
C82 C 0.21135 0.8034 0.64499 0.0
O83 O 0.21703 0.78534 0.61432 0.0
C84 C 0.31124 0.70644 0.83829 0.0
O85 O 0.29631 0.71518 0.87004 0.0
O86 O 0.28706 0.78751 0.64703 0.0
O87 O 0.28041 0.77639 0.74805 0.0
O88 O 0.27405 0.76861 0.81688 0.0
C89 C 0.30841 0.81104 0.66507 0.0
O90 O 0.30141 0.82528 0.6993 0.0
O91 O 0.22536 0.80456 0.68389 0.0
C92 C 0.22688 0.67092 0.82446 0.0
O93 O 0.24246 0.66109 0.79447 0.0
O94 O 0.23146 0.6994 0.83044 0.0
O95 O 0.23968 0.72035 0.73327 0.0
O96 O 0.22391 0.73398 0.6693 0.0
O97 O 0.30257 0.71016 0.79831 0.0
C98 C 0.28137 0.78774 0.78702 0.0
C99 C 0.22293 0.71315 0.69624 0.0
Zn100 Zn 0.28561 0.22379 0.73527 0.0
Zn101 Zn 0.22255 0.26958 0.76247 0.0
C102 C 0.31198 0.20013 0.80891 0.0
O103 O 0.33431 0.2266 0.80498 0.0
C104 C 0.18298 0.28369 0.68774 0.0
O105 O 0.16274 0.25629 0.69306 0.0
O106 O 0.31135 0.21043 0.69011 0.0
O107 O 0.242 0.22273 0.70505 0.0
O108 O 0.20403 0.22379 0.74894 0.0
C109 C 0.29818 0.18344 0.67293 0.0
O110 O 0.26839 0.16806 0.68248 0.0
O111 O 0.28537 0.19323 0.78343 0.0
C112 C 0.2066 0.31278 0.81412 0.0
O113 O 0.22803 0.32926 0.78865 0.0
O114 O 0.2001 0.28374 0.81181 0.0
O115 O 0.27139 0.28659 0.77775 0.0
O116 O 0.30989 0.26565 0.76071 0.0
O117 O 0.21059 0.29258 0.71075 0.0
C118 C 0.21536 0.20919 0.72132 0.0
C119 C 0.30135 0.28732 0.77794 0.0
Zn120 Zn 0.71631 0.25799 0.77977 0.0
Zn121 Zn 0.78046 0.23248 0.74193 0.0
C122 C 0.71473 0.21559 0.85681 0.0
O123 O 0.73145 0.23745 0.886 0.0
C124 C 0.83215 0.27516 0.69764 0.0
O125 O 0.84852 0.25562 0.70639 0.0
O126 O 0.69083 0.28558 0.8027 0.0
O127 O 0.76382 0.28278 0.78451 0.0
O128 O 0.78613 0.24764 0.80623 0.0
C129 C 0.70082 0.3004 0.83987 0.0
O130 O 0.72701 0.29721 0.8623 0.0
O131 O 0.70863 0.22182 0.81713 0.0
C132 C 0.80277 0.19387 0.68916 0.0
O133 O 0.78709 0.20708 0.66099 0.0
O134 O 0.80372 0.20049 0.73038 0.0
O135 O 0.73493 0.21484 0.71131 0.0
O136 O 0.69634 0.23729 0.72044 0.0
O137 O 0.80317 0.27005 0.7095 0.0
C138 C 0.78281 0.27414 0.81189 0.0
C139 C 0.7063 0.21701 0.70152 0.0
Zn140 Zn 0.72216 0.77414 0.752 0.0
Zn141 Zn 0.78109 0.72044 0.74573 0.0
C142 C 0.68856 0.79799 0.80972 0.0
O143 O 0.66666 0.77338 0.79075 0.0
C144 C 0.8138 0.69951 0.68241 0.0
O145 O 0.83428 0.72626 0.69678 0.0
O146 O 0.6888 0.78037 0.70475 0.0
O147 O 0.76647 0.79362 0.7255 0.0
O148 O 0.79846 0.76392 0.7221 0.0
C149 C 0.69569 0.80895 0.69882 0.0
O150 O 0.72279 0.82766 0.71927 0.0
O151 O 0.7185 0.80325 0.80194 0.0
C152 C 0.81472 0.71163 0.83057 0.0
O153 O 0.78893 0.71355 0.84998 0.0
O154 O 0.81637 0.71652 0.78969 0.0
O155 O 0.73732 0.70108 0.77433 0.0
O156 O 0.70448 0.73037 0.77558 0.0
O157 O 0.7855 0.69088 0.6971 0.0
C158 C 0.79305 0.78934 0.71496 0.0
C159 C 0.71043 0.70528 0.78406 0.0
Co160 Co 0.03415 0.94468 0.47502 0.0
Co161 Co 0.0385 0.96174 0.5561 0.0
Co162 Co 0.99981 0.99927 0.5009 0.0
O163 O 0.03714 0.9822 0.5058 0.0
H164 H 0.05802 0.99775 0.50383 0.0
O165 O 0.96235 0.01605 0.49627 0.0
Co166 Co 0.96566 0.05437 0.52483 0.0
Co167 Co 0.96046 0.03441 0.44364 0.0
H168 H 0.94157 0.00065 0.49936 0.0
O169 O 0.07745 0.9609 0.58149 0.0
O170 O 0.0421 0.9256 0.5323 0.0
O171 O 0.00157 0.95195 0.58994 0.0
O172 O 0.96959 0.96715 0.54033 0.0
O173 O 0.02079 0.02744 0.55297 0.0
O174 O 0.9654 0.08879 0.55186 0.0
O175 O 0.92256 0.04613 0.53465 0.0
O176 O 0.01172 0.06754 0.52144 0.0
O177 O 0.02987 0.03125 0.46134 0.0
O178 O 0.99785 0.04432 0.40924 0.0
O179 O 0.95724 0.07091 0.4661 0.0
O180 O 0.92047 0.03467 0.41987 0.0
C181 C 0.06607 0.92695 0.44569 0.0
C182 C 0.97032 0.94288 0.45161 0.0
C183 C 0.97318 0.95192 0.57478 0.0
C184 C 0.06832 0.93409 0.56072 0.0
C185 C 0.93438 0.07387 0.55276 0.0
C186 C 0.02924 0.05623 0.54774 0.0
C187 C 0.02632 0.04533 0.42568 0.0
C188 C 0.92971 0.06148 0.44054 0.0
O189 O 0.03502 0.91161 0.44477 0.0
O190 O 0.07733 0.95367 0.46701 0.0
O191 O 0.97908 0.97177 0.44827 0.0
O192 O 0.98739 0.93057 0.47704 0.0
Co193 Co 0.53766 0.94374 0.98133 0.0
Co194 Co 0.53893 0.96107 0.06259 0.0
Co195 Co 0.50071 0.99844 1.00135 0.0
O196 O 0.53853 0.98141 0.01112 0.0
H197 H 0.55947 0.99707 0.01015 0.0
O198 O 0.4627 0.01506 0.9913 0.0
Co199 Co 0.4631 0.05312 0.0189 0.0
Co200 Co 0.4632 0.03429 0.93823 0.0
H201 H 0.44179 0.99938 0.99239 0.0
O202 O 0.57813 0.959 0.08983 0.0
O203 O 0.54341 0.92481 0.03934 0.0
O204 O 0.49939 0.95172 0.09265 0.0
O205 O 0.4714 0.96984 0.04062 0.0
O206 O 0.5208 0.02879 0.05167 0.0
O207 O 0.4606 0.08691 0.04475 0.0
O208 O 0.41895 0.04395 0.02487 0.0
O209 O 0.50946 0.0676 0.01884 0.0
O210 O 0.53036 0.02712 0.96261 0.0
O211 O 0.50369 0.04579 0.90999 0.0
O212 O 0.4564 0.06983 0.95948 0.0
O213 O 0.42411 0.03413 0.90902 0.0
C214 C 0.57111 0.92654 0.9542 0.0
C215 C 0.47345 0.93991 0.9538 0.0
C216 C 0.47269 0.95481 0.07521 0.0
C217 C 0.56964 0.93284 0.06751 0.0
C218 C 0.42941 0.07195 0.04244 0.0
C219 C 0.52705 0.05754 0.04678 0.0
C220 C 0.53007 0.0429 0.92869 0.0
C221 C 0.43032 0.06021 0.93111 0.0
O222 O 0.5401 0.91107 0.95277 0.0
O223 O 0.58192 0.95327 0.9757 0.0
O224 O 0.48042 0.96877 0.95049 0.0
O225 O 0.49096 0.92874 0.98026 0.0
Co226 Co 0.03619 0.44297 0.98018 0.0
Co227 Co 0.04354 0.46581 0.05961 0.0
Co228 Co 1.00046 0.49921 0.99798 0.0
O229 O 0.03839 0.48227 0.00551 0.0
H230 H 0.05878 0.49758 1.00027 0.0
O231 O 0.96197 0.51569 0.99092 0.0
Co232 Co 0.96375 0.55413 0.01835 0.0
Co233 Co 0.9568 0.53356 0.93838 0.0
H234 H 0.9416 0.50005 0.99521 0.0
O235 O 0.0841 0.46426 0.08258 0.0
O236 O 0.04568 0.42817 0.03921 0.0
O237 O 0.00764 0.45916 0.09603 0.0
O238 O 0.97756 0.47766 0.04757 0.0
O239 O 0.02705 0.53419 0.03922 0.0
O240 O 0.96218 0.58804 0.04537 0.0
O241 O 0.92092 0.54403 0.03048 0.0
O242 O 0.00828 0.56991 0.00954 0.0
O243 O 0.02349 0.52104 0.94824 0.0
O244 O 0.99372 0.54327 0.9046 0.0
O245 O 0.95327 0.57005 0.96082 0.0
O246 O 0.91633 0.53476 0.91439 0.0
C247 C 0.06859 0.42445 0.95294 0.0
C248 C 0.96844 0.43646 0.9671 0.0
C249 C 0.981 0.46433 0.08305 0.0
C250 C 0.07348 0.4368 0.06393 0.0
C251 C 0.93155 0.57217 0.04739 0.0
C252 C 0.03018 0.56224 0.0326 0.0
C253 C 0.01989 0.53659 0.9151 0.0
C254 C 0.92612 0.56167 0.93481 0.0
O255 O 0.03795 0.40838 0.95446 0.0
O256 O 0.07922 0.45254 0.96983 0.0
O257 O 0.97401 0.46428 0.95697 0.0
O258 O 0.99078 0.42763 0.98741 0.0
Co259 Co 0.53987 0.44734 0.99232 0.0
Co260 Co 0.54013 0.4668 0.07271 0.0
Co261 Co 0.50351 0.50214 0.00829 0.0
O262 O 0.54139 0.4857 0.01949 0.0
H263 H 0.56234 0.50124 0.01806 0.0
O264 O 0.46616 0.51908 0.99824 0.0
Co265 Co 0.46932 0.5589 0.02281 0.0
Co266 Co 0.46582 0.5354 0.94389 0.0
H267 H 0.44515 0.50409 1.00154 0.0
O268 O 0.57857 0.46523 0.1017 0.0
O269 O 0.54474 0.43033 0.05142 0.0
O270 O 0.50004 0.45627 0.10212 0.0
O271 O 0.47165 0.47106 0.04705 0.0
O272 O 0.52189 0.53135 0.05972 0.0
O273 O 0.46867 0.5942 0.04662 0.0
O274 O 0.4256 0.55213 0.02755 0.0
O275 O 0.51626 0.57129 0.02417 0.0
O276 O 0.53498 0.53302 0.96852 0.0
O277 O 0.50363 0.54165 0.9115 0.0
O278 O 0.46426 0.57374 0.9618 0.0
O279 O 0.42703 0.53698 0.91696 0.0
C280 C 0.57249 0.42797 0.96731 0.0
C281 C 0.47727 0.44406 0.96314 0.0
C282 C 0.47272 0.45631 0.08276 0.0
C283 C 0.57037 0.43865 0.08048 0.0
C284 C 0.43731 0.58 0.04533 0.0
C285 C 0.53179 0.55987 0.05317 0.0
C286 C 0.53194 0.5447 0.93049 0.0
C287 C 0.43735 0.56467 0.93485 0.0
O288 O 0.54129 0.41323 0.96576 0.0
O289 O 0.58385 0.45527 0.98712 0.0
O290 O 0.48467 0.47265 0.95695 0.0
O291 O 0.49396 0.4341 0.99225 0.0
Co292 Co 0.0601 0.46532 0.52488 0.0
Co293 Co 0.03998 0.46669 0.44373 0.0
Co294 Co 0.00128 0.50116 0.50242 0.0
O295 O 0.01928 0.46589 0.49458 0.0
H296 H 0.00237 0.4464 0.49533 0.0
O297 O 0.98305 0.53636 0.50985 0.0
Co298 Co 0.94105 0.53623 0.4812 0.0
Co299 Co 0.96363 0.53532 0.56226 0.0
H300 H 0.99972 0.55593 0.50838 0.0
O301 O 0.04208 0.43165 0.41618 0.0
O302 O 0.07978 0.46265 0.46723 0.0
O303 O 0.04692 0.50287 0.41116 0.0
O304 O 0.03227 0.52957 0.46404 0.0
O305 O 0.96891 0.48379 0.45078 0.0
O306 O 0.90392 0.53914 0.45444 0.0
O307 O 0.94987 0.5775 0.47688 0.0
O308 O 0.92635 0.49311 0.4794 0.0
O309 O 0.97044 0.47269 0.54082 0.0
O310 O 0.95499 0.49855 0.59372 0.0
O311 O 0.92367 0.53904 0.54003 0.0
O312 O 0.96235 0.57105 0.58876 0.0
C313 C 0.07901 0.43248 0.54995 0.0
C314 C 0.06442 0.52418 0.55331 0.0
C315 C 0.04561 0.52795 0.42817 0.0
C316 C 0.07113 0.43964 0.43769 0.0
C317 C 0.91977 0.56827 0.45781 0.0
C318 C 0.938 0.47784 0.45306 0.0
C319 C 0.95618 0.4736 0.57607 0.0
C320 C 0.93332 0.56325 0.56725 0.0
O321 O 0.09584 0.46138 0.55422 0.0
O322 O 0.04981 0.4241 0.52832 0.0
O323 O 0.03343 0.51844 0.55447 0.0
O324 O 0.07607 0.50872 0.52724 0.0
Co325 Co 0.55876 0.96706 0.50713 0.0
Co326 Co 0.5401 0.96956 0.42543 0.0
Co327 Co 0.50068 0.00174 0.48814 0.0
O328 O 0.51834 0.96738 0.4755 0.0
H329 H 0.50151 0.94774 0.47506 0.0
O330 O 0.48338 0.03585 0.50158 0.0
Co331 Co 0.4411 0.03631 0.47808 0.0
Co332 Co 0.46816 0.03385 0.55707 0.0
H333 H 0.49991 0.05546 0.4998 0.0
O334 O 0.5399 0.93373 0.39705 0.0
O335 O 0.57741 0.96187 0.45049 0.0
O336 O 0.55192 0.00844 0.39924 0.0
O337 O 0.52824 0.03028 0.44822 0.0
O338 O 0.46592 0.98584 0.43903 0.0
O339 O 0.40341 0.04139 0.45601 0.0
O340 O 0.45205 0.07728 0.47623 0.0
O341 O 0.42473 0.9922 0.47407 0.0
O342 O 0.4733 0.973 0.52727 0.0
O343 O 0.46531 0.99678 0.58821 0.0
O344 O 0.42739 0.03794 0.5396 0.0
O345 O 0.46801 0.0693 0.58641 0.0
C346 C 0.57599 0.93455 0.53595 0.0
C347 C 0.56511 0.02659 0.53285 0.0
C348 C 0.54536 0.03152 0.41543 0.0
C349 C 0.56684 0.93798 0.42274 0.0
C350 C 0.42157 0.06999 0.45942 0.0
C351 C 0.43591 0.97654 0.44743 0.0
C352 C 0.46561 0.97273 0.56677 0.0
C353 C 0.43836 0.0621 0.56683 0.0
O354 O 0.5938 0.96316 0.5373 0.0
O355 O 0.54703 0.92588 0.51376 0.0
O356 O 0.53463 0.01803 0.53828 0.0
O357 O 0.57659 0.01098 0.50678 0.0
H358 H 0.21293 0.18157 0.36453 0.0
H359 H 0.02738 0.06546 0.3413 0.0
H360 H 0.14094 0.17957 0.2563 0.0
H361 H 0.09141 0.07466 0.46114 0.0
H362 H 0.07074 0.10405 0.30843 0.0
H363 H 0.17136 0.14099 0.39902 0.0
C364 C 0.18847 0.17246 0.34777 0.0
C365 C 0.18064 0.18414 0.30718 0.0
C366 C 0.07559 0.09767 0.34184 0.0
C367 C 0.13258 0.13696 0.34654 0.0
C368 C 0.0507 0.07533 0.3608 0.0
C369 C 0.05532 0.06626 0.40436 0.0
C370 C 0.10602 0.11175 0.36618 0.0
C371 C 0.0865 0.08034 0.42738 0.0
C372 C 0.16463 0.14926 0.36763 0.0
C373 C 0.14825 0.17151 0.28755 0.0
N374 N 0.11044 0.10232 0.40818 0.0
N375 N 0.12573 0.14869 0.3071 0.0
H376 H 0.86314 0.21028 0.34681 0.0
H377 H 0.86327 0.04575 0.42872 0.0
H378 H 0.77477 0.13763 0.36639 0.0
H379 H 0.95102 0.12327 0.43105 0.0
H380 H 0.8303 0.07843 0.40363 0.0
H381 H 0.89608 0.1772 0.37151 0.0
C382 C 0.85082 0.18712 0.35573 0.0
C383 C 0.81649 0.17623 0.35411 0.0
C384 C 0.85674 0.08838 0.40976 0.0
C385 C 0.85352 0.13898 0.384 0.0
C386 C 0.87548 0.06979 0.42418 0.0
C387 C 0.90975 0.08197 0.43161 0.0
C388 C 0.87254 0.11919 0.40197 0.0
C389 C 0.92455 0.11318 0.42578 0.0
C390 C 0.86949 0.16842 0.37024 0.0
C391 C 0.8013 0.14638 0.36642 0.0
N392 N 0.90584 0.13074 0.41072 0.0
N393 N 0.81999 0.12877 0.38122 0.0
H394 H 0.78755 0.80431 0.36459 0.0
H395 H 0.94329 0.95371 0.37178 0.0
H396 H 0.83668 0.83625 0.24778 0.0
H397 H 0.9273 0.88961 0.47597 0.0
H398 H 0.89355 0.92059 0.32922 0.0
H399 H 0.8278 0.84646 0.40861 0.0
C400 C 0.8063 0.82066 0.348 0.0
C401 C 0.80911 0.81674 0.30257 0.0
C402 C 0.90086 0.91404 0.36159 0.0
C403 C 0.85491 0.8647 0.35264 0.0
C404 C 0.92911 0.9328 0.38582 0.0
C405 C 0.93959 0.92397 0.42699 0.0
C406 C 0.88264 0.88675 0.37925 0.0
C407 C 0.92033 0.89684 0.44392 0.0
C408 C 0.82931 0.8445 0.3732 0.0
C409 C 0.83396 0.83842 0.28282 0.0
N410 N 0.89268 0.87912 0.41993 0.0
N411 N 0.85612 0.86149 0.30808 0.0
H412 H 0.14471 0.81567 0.27837 0.0
H413 H 0.13258 0.93824 0.4641 0.0
H414 H 0.21643 0.84735 0.39096 0.0
H415 H 0.04934 0.88377 0.37792 0.0
H416 H 0.16735 0.9117 0.42988 0.0
H417 H 0.1129 0.84736 0.3068 0.0
C418 C 0.15391 0.82952 0.30878 0.0
C419 C 0.18312 0.82879 0.33247 0.0
C420 C 0.14151 0.90576 0.41833 0.0
C421 C 0.14708 0.86506 0.36499 0.0
C422 C 0.12177 0.921 0.43764 0.0
C423 C 0.08813 0.9131 0.42382 0.0
C424 C 0.12749 0.88288 0.38462 0.0
C425 C 0.07518 0.89038 0.38973 0.0
C426 C 0.13571 0.84747 0.32509 0.0
C427 C 0.19388 0.84707 0.37184 0.0
N428 N 0.09488 0.87609 0.37125 0.0
N429 N 0.17587 0.86447 0.38688 0.0
H430 H 0.19167 0.84165 0.70008 0.0
H431 H 0.07129 0.88312 0.51303 0.0
H432 H 0.17918 0.8061 0.56449 0.0
H433 H 0.10707 0.9358 0.63653 0.0
H434 H 0.10478 0.84967 0.534 0.0
H435 H 0.15432 0.87145 0.68008 0.0
C436 C 0.18113 0.84014 0.66614 0.0
C437 C 0.18872 0.82152 0.63389 0.0
C438 C 0.10515 0.86855 0.55645 0.0
C439 C 0.14594 0.85541 0.61079 0.0
C440 C 0.08606 0.88759 0.54451 0.0
C441 C 0.08679 0.91252 0.57277 0.0
C442 C 0.12446 0.87422 0.59727 0.0
C443 C 0.10614 0.91712 0.61339 0.0
C444 C 0.15981 0.85713 0.65472 0.0
C445 C 0.1741 0.82023 0.59043 0.0
N446 N 0.12413 0.89815 0.62443 0.0
N447 N 0.15344 0.83698 0.58013 0.0
H448 H 0.18925 0.21522 0.63979 0.0
H449 H 0.06933 0.04272 0.61413 0.0
H450 H 0.18791 0.14913 0.73901 0.0
H451 H 0.06077 0.11545 0.53042 0.0
H452 H 0.1189 0.07836 0.65349 0.0
H453 H 0.14793 0.17589 0.59284 0.0
C454 C 0.18018 0.19224 0.65143 0.0
C455 C 0.19128 0.18521 0.69325 0.0
C456 C 0.10618 0.08638 0.62636 0.0
C457 C 0.14442 0.14015 0.64 0.0
C458 C 0.07796 0.0661 0.60388 0.0
C459 C 0.06054 0.07636 0.5696 0.0
C460 C 0.117 0.11696 0.61419 0.0
C461 C 0.07303 0.10672 0.55725 0.0
C462 C 0.15671 0.16982 0.62474 0.0
C463 C 0.17927 0.15527 0.70709 0.0
N464 N 0.10036 0.12597 0.57972 0.0
N465 N 0.15625 0.13369 0.68047 0.0
H466 H 0.83639 0.20515 0.61666 0.0
H467 H 0.88397 0.05047 0.60561 0.0
H468 H 0.81535 0.14233 0.72201 0.0
H469 H 0.93756 0.13327 0.54617 0.0
H470 H 0.85258 0.07967 0.64284 0.0
H471 H 0.86807 0.1752 0.58454 0.0
C472 C 0.83841 0.18492 0.63298 0.0
C473 C 0.82312 0.17605 0.67185 0.0
C474 C 0.87121 0.09129 0.62156 0.0
C475 C 0.85907 0.14133 0.63487 0.0
C476 C 0.88876 0.07464 0.60003 0.0
C477 C 0.91313 0.08957 0.57273 0.0
C478 C 0.8777 0.12273 0.61463 0.0
C479 C 0.91896 0.12097 0.56703 0.0
C480 C 0.85661 0.1679 0.61472 0.0
C481 C 0.82688 0.14987 0.69199 0.0
N482 N 0.90122 0.13642 0.5875 0.0
N483 N 0.84424 0.1331 0.67293 0.0
H484 H 0.78413 0.83827 0.66844 0.0
H485 H 0.97612 0.91613 0.64488 0.0
H486 H 0.85939 0.79757 0.71074 0.0
H487 H 0.90427 0.93683 0.55319 0.0
H488 H 0.93237 0.87784 0.67632 0.0
H489 H 0.82564 0.87826 0.6328 0.0
C490 C 0.80934 0.83772 0.67052 0.0
C491 C 0.81804 0.81428 0.69309 0.0
C492 C 0.92592 0.89071 0.64944 0.0
C493 C 0.86605 0.86061 0.65247 0.0
C494 C 0.95109 0.91299 0.63128 0.0
C495 C 0.94445 0.93034 0.59584 0.0
C496 C 0.893 0.8853 0.63309 0.0
C497 C 0.91097 0.92445 0.58047 0.0
C498 C 0.83302 0.86056 0.64985 0.0
C499 C 0.85121 0.81492 0.69396 0.0
N500 N 0.88658 0.90259 0.59923 0.0
N501 N 0.87378 0.83766 0.67454 0.0
H502 H 0.28747 0.13534 0.17832 0.0
H503 H 0.44089 0.13313 0.04787 0.0
H504 H 0.35029 0.21308 0.11739 0.0
H505 H 0.36677 0.04847 0.07108 0.0
H506 H 0.40671 0.16165 0.07529 0.0
H507 H 0.31386 0.10186 0.14059 0.0
C508 C 0.30622 0.14523 0.15625 0.0
C509 C 0.3169 0.17706 0.1511 0.0
C510 C 0.39755 0.13685 0.07427 0.0
C511 C 0.34716 0.1392 0.10855 0.0
C512 C 0.41724 0.12044 0.05872 0.0
C513 C 0.40676 0.08831 0.05728 0.0
C514 C 0.36705 0.12125 0.08941 0.0
C515 C 0.3757 0.07327 0.07154 0.0
C516 C 0.32133 0.12616 0.13495 0.0
C517 C 0.34151 0.18875 0.12266 0.0
N518 N 0.35697 0.08991 0.08759 0.0
N519 N 0.35588 0.16992 0.10283 0.0
H520 H 0.83746 0.32641 0.20329 0.0
H521 H 0.91901 0.46468 0.056 0.0
H522 H 0.78278 0.36289 0.1048 0.0
H523 H 0.97394 0.4305 0.15722 0.0
H524 H 0.86834 0.43146 0.07948 0.0
H525 H 0.88707 0.36711 0.1911 0.0
C526 C 0.83596 0.34282 0.17868 0.0
C527 C 0.80608 0.34113 0.15449 0.0
C528 C 0.89139 0.4316 0.09717 0.0
C529 C 0.86269 0.38794 0.14099 0.0
C530 C 0.92049 0.45072 0.08396 0.0
C531 C 0.95089 0.44997 0.10431 0.0
C532 C 0.89264 0.41168 0.13106 0.0
C533 C 0.95106 0.43147 0.14033 0.0
C534 C 0.86426 0.36624 0.17214 0.0
C535 C 0.80542 0.3633 0.1238 0.0
N536 N 0.92222 0.41267 0.15228 0.0
N537 N 0.83348 0.38581 0.11773 0.0
H538 H 0.66345 0.83017 0.23159 0.0
H539 H 0.63007 0.93368 0.04391 0.0
H540 H 0.69698 0.81748 0.10394 0.0
H541 H 0.55156 0.88429 0.11968 0.0
H542 H 0.66282 0.90046 0.07046 0.0
H543 H 0.63072 0.86074 0.19783 0.0
C544 C 0.66437 0.83424 0.19657 0.0
C545 C 0.68307 0.82133 0.17051 0.0
C546 C 0.63821 0.89665 0.08062 0.0
C547 C 0.64585 0.85653 0.13196 0.0
C548 C 0.61952 0.91533 0.06525 0.0
C549 C 0.58786 0.91097 0.07869 0.0
C550 C 0.62559 0.87451 0.1112 0.0
C551 C 0.57565 0.88785 0.10794 0.0
C552 C 0.64544 0.85141 0.17735 0.0
C553 C 0.6829 0.82703 0.12515 0.0
N554 N 0.59474 0.87076 0.1238 0.0
N555 N 0.66481 0.84453 0.10729 0.0
H556 H 0.21922 0.67313 0.15284 0.0
H557 H 0.02848 0.616 0.06952 0.0
H558 H 0.15467 0.72897 0.16395 0.0
H559 H 0.09504 0.56437 0.04409 0.0
H560 H 0.07469 0.65786 0.10337 0.0
H561 H 0.17508 0.63437 0.10955 0.0
C562 C 0.19581 0.67737 0.14585 0.0
C563 C 0.19049 0.70417 0.1625 0.0
C564 C 0.07935 0.63755 0.0901 0.0
C565 C 0.13954 0.65945 0.11381 0.0
C566 C 0.05298 0.61362 0.07091 0.0
C567 C 0.05812 0.58679 0.0542 0.0
C568 C 0.1112 0.63476 0.09222 0.0
C569 C 0.09016 0.58462 0.05716 0.0
C570 C 0.17057 0.65514 0.12122 0.0
C571 C 0.15975 0.70854 0.15206 0.0
N572 N 0.11561 0.60842 0.07576 0.0
N573 N 0.13524 0.68616 0.12888 0.0
H574 H 0.27851 0.83789 0.83591 0.0
H575 H 0.46826 0.88395 0.9159 0.0
H576 H 0.34563 0.79863 0.77595 0.0
H577 H 0.41449 0.94923 0.92841 0.0
H578 H 0.42152 0.8503 0.86894 0.0
H579 H 0.32598 0.8779 0.87363 0.0
C580 C 0.30325 0.83837 0.82961 0.0
C581 C 0.30835 0.81565 0.80179 0.0
C582 C 0.41994 0.87202 0.88186 0.0
C583 C 0.36235 0.86007 0.84605 0.0
C584 C 0.44648 0.89107 0.90893 0.0
C585 C 0.4451 0.91928 0.92609 0.0
C586 C 0.39144 0.88086 0.87279 0.0
C587 C 0.41647 0.92763 0.91564 0.0
C588 C 0.33025 0.86098 0.85126 0.0
C589 C 0.34078 0.81641 0.79599 0.0
N590 N 0.39054 0.90832 0.89006 0.0
N591 N 0.36652 0.83803 0.81823 0.0
H592 H 0.19249 0.31057 0.90145 0.0
H593 H 0.06159 0.40083 0.86919 0.0
H594 H 0.17363 0.34885 0.77731 0.0
H595 H 0.1248 0.41483 0.99054 0.0
H596 H 0.09521 0.37262 0.83628 0.0
H597 H 0.15977 0.33925 0.93715 0.0
C598 C 0.1812 0.32476 0.8818 0.0
C599 C 0.18565 0.32758 0.83658 0.0
C600 C 0.10173 0.38189 0.87011 0.0
C601 C 0.14837 0.35968 0.87647 0.0
C602 C 0.08269 0.398 0.88874 0.0
C603 C 0.09073 0.41021 0.93234 0.0
C604 C 0.1283 0.37708 0.89581 0.0
C605 C 0.11808 0.40584 0.95665 0.0
C606 C 0.16288 0.34121 0.9021 0.0
C607 C 0.17084 0.34631 0.81236 0.0
N608 N 0.13578 0.38921 0.93822 0.0
N609 N 0.15262 0.36144 0.8325 0.0
H610 H 0.70237 0.19597 0.94087 0.0
H611 H 0.54473 0.06679 0.84817 0.0
H612 H 0.68604 0.16491 0.80295 0.0
H613 H 0.58769 0.06376 0.98101 0.0
H614 H 0.5964 0.10413 0.83149 0.0
H615 H 0.66142 0.14811 0.95843 0.0
C616 C 0.69083 0.17884 0.91452 0.0
C617 C 0.697 0.18469 0.8703 0.0
C618 C 0.59464 0.09483 0.86405 0.0
C619 C 0.65009 0.13065 0.88988 0.0
C620 C 0.56518 0.07365 0.87353 0.0
C621 C 0.56201 0.06218 0.91585 0.0
C622 C 0.62067 0.10515 0.8975 0.0
C623 C 0.58922 0.0719 0.94775 0.0
C624 C 0.66744 0.15163 0.9245 0.0
C625 C 0.68145 0.16165 0.83741 0.0
N626 N 0.61729 0.09328 0.93817 0.0
N627 N 0.65819 0.13595 0.84773 0.0
H628 H 0.82272 0.69864 0.91831 0.0
H629 H 0.88561 0.56125 0.86084 0.0
H630 H 0.85646 0.68745 0.78998 0.0
H631 H 0.92947 0.61476 0.98151 0.0
H632 H 0.86189 0.60159 0.83879 0.0
H633 H 0.85187 0.66331 0.94773 0.0
C634 C 0.83663 0.68923 0.8966 0.0
C635 C 0.83687 0.69574 0.85157 0.0
C636 C 0.87646 0.6042 0.87032 0.0
C637 C 0.86887 0.65507 0.88442 0.0
C638 C 0.88976 0.58117 0.88309 0.0
C639 C 0.90929 0.58453 0.92328 0.0
C640 C 0.88204 0.63035 0.89841 0.0
C641 C 0.91423 0.6111 0.95054 0.0
C642 C 0.85309 0.66914 0.91335 0.0
C643 C 0.85535 0.683 0.82484 0.0
N644 N 0.90041 0.63302 0.93779 0.0
N645 N 0.87 0.66275 0.84146 0.0
H646 H 0.17953 0.33795 0.21428 0.0
H647 H 0.05961 0.3772 0.03105 0.0
H648 H 0.15799 0.28665 0.08863 0.0
H649 H 0.12805 0.4454 0.12137 0.0
H650 H 0.08809 0.33998 0.05392 0.0
H651 H 0.15217 0.37345 0.18423 0.0
C652 C 0.16858 0.33395 0.1804 0.0
C653 C 0.17072 0.30924 0.15393 0.0
C654 C 0.09688 0.36321 0.06825 0.0
C655 C 0.13937 0.34996 0.11921 0.0
C656 C 0.08066 0.38442 0.05544 0.0
C657 C 0.09135 0.41446 0.07457 0.0
C658 C 0.12338 0.37203 0.10102 0.0
C659 C 0.1188 0.42254 0.10585 0.0
C660 C 0.15326 0.3544 0.16315 0.0
C661 C 0.15673 0.30549 0.10997 0.0
N662 N 0.13358 0.40137 0.11843 0.0
N663 N 0.14123 0.32558 0.0939 0.0
H664 H 0.18892 0.6847 0.88456 0.0
H665 H 0.07065 0.51543 0.8974 0.0
H666 H 0.20707 0.60839 0.81578 0.0
H667 H 0.03815 0.59599 0.89541 0.0
H668 H 0.12616 0.54747 0.88388 0.0
H669 H 0.13957 0.64955 0.91039 0.0
C670 C 0.18276 0.66048 0.87539 0.0
C671 C 0.20133 0.6494 0.84688 0.0
C672 C 0.10663 0.55787 0.88588 0.0
C673 C 0.14533 0.60956 0.87609 0.0
C674 C 0.07511 0.5397 0.89282 0.0
C675 C 0.04992 0.55316 0.89608 0.0
C676 C 0.11277 0.58956 0.88348 0.0
C677 C 0.05678 0.58473 0.89155 0.0
C678 C 0.15464 0.64057 0.89002 0.0
C679 C 0.19283 0.61781 0.8369 0.0
N680 N 0.08781 0.60202 0.88589 0.0
N681 N 0.16495 0.59884 0.85109 0.0
H682 H 0.28895 0.13713 0.79974 0.0
H683 H 0.43751 0.11883 0.96347 0.0
H684 H 0.35725 0.21158 0.8802 0.0
H685 H 0.37362 0.04589 0.87586 0.0
H686 H 0.40301 0.15114 0.94219 0.0
H687 H 0.31381 0.10131 0.83649 0.0
C688 C 0.30857 0.14582 0.82592 0.0
C689 C 0.32121 0.17738 0.83673 0.0
C690 C 0.39643 0.12798 0.92785 0.0
C691 C 0.35013 0.13672 0.87839 0.0
C692 C 0.41612 0.10951 0.94007 0.0
C693 C 0.40871 0.07968 0.92118 0.0
C694 C 0.36923 0.11663 0.89624 0.0
C695 C 0.38058 0.06884 0.89101 0.0
C696 C 0.32299 0.12543 0.84663 0.0
C697 C 0.34696 0.18744 0.87056 0.0
N698 N 0.36209 0.08735 0.87923 0.0
N699 N 0.36075 0.16726 0.88985 0.0
H700 H 0.82795 0.26559 0.87604 0.0
H701 H 0.91541 0.44469 0.91763 0.0
H702 H 0.78784 0.33472 0.82291 0.0
H703 H 0.9479 0.37594 0.98612 0.0
H704 H 0.86502 0.4049 0.88925 0.0
H705 H 0.86845 0.30547 0.92356 0.0
C706 C 0.82752 0.28908 0.87456 0.0
C707 C 0.80505 0.29693 0.84463 0.0
C708 C 0.88303 0.39858 0.91088 0.0
C709 C 0.8513 0.34263 0.89861 0.0
C710 C 0.91185 0.4213 0.92699 0.0
C711 C 0.93629 0.41353 0.95338 0.0
C712 C 0.87876 0.36787 0.92099 0.0
C713 C 0.93008 0.38291 0.96504 0.0
C714 C 0.85056 0.31184 0.90178 0.0
C715 C 0.80514 0.32765 0.8448 0.0
N716 N 0.90215 0.36115 0.94829 0.0
N717 N 0.82821 0.34942 0.87083 0.0
H718 H 0.71615 0.83829 0.88227 0.0
H719 H 0.5522 0.88557 0.8852 0.0
H720 H 0.63456 0.81265 0.78154 0.0
H721 H 0.639 0.93659 0.96822 0.0
H722 H 0.58421 0.85868 0.84885 0.0
H723 H 0.69118 0.87468 0.91636 0.0
C724 C 0.69325 0.84056 0.86721 0.0
C725 C 0.67684 0.82195 0.82981 0.0
C726 C 0.59662 0.87578 0.87488 0.0
C727 C 0.64875 0.86329 0.8677 0.0
C728 C 0.57818 0.89114 0.89592 0.0
C729 C 0.59274 0.91295 0.93051 0.0
C730 C 0.63013 0.88174 0.88857 0.0
C731 C 0.62672 0.91953 0.9422 0.0
C732 C 0.67912 0.86127 0.88651 0.0
C733 C 0.64751 0.82585 0.81115 0.0
N734 N 0.64433 0.90359 0.92163 0.0
N735 N 0.63445 0.84588 0.83034 0.0
H736 H 0.85353 0.7092 0.15418 0.0
H737 H 0.86436 0.54941 0.05279 0.0
H738 H 0.77122 0.62621 0.14372 0.0
H739 H 0.94774 0.63025 0.08365 0.0
H740 H 0.82844 0.57737 0.08067 0.0
H741 H 0.88692 0.68115 0.12125 0.0
C742 C 0.84231 0.68518 0.14435 0.0
C743 C 0.80954 0.67004 0.15184 0.0
C744 C 0.85463 0.58886 0.08133 0.0
C745 C 0.84779 0.63758 0.11442 0.0
C746 C 0.87512 0.57289 0.0656 0.0
C747 C 0.90912 0.58743 0.06599 0.0
C748 C 0.86829 0.61958 0.09723 0.0
C749 C 0.92171 0.61799 0.0827 0.0
C750 C 0.86148 0.66907 0.12583 0.0
C751 C 0.79644 0.63877 0.13873 0.0
N752 N 0.90134 0.63298 0.09749 0.0
N753 N 0.81563 0.62353 0.12079 0.0
H754 H 0.2945 0.8103 0.07852 0.0
H755 H 0.4623 0.93156 0.15691 0.0
H756 H 0.32404 0.83712 0.21674 0.0
H757 H 0.41189 0.93721 0.02983 0.0
H758 H 0.41114 0.89666 0.17926 0.0
H759 H 0.33572 0.85716 0.05862 0.0
C760 C 0.30907 0.82632 0.10462 0.0
C761 C 0.30642 0.81948 0.1493 0.0
C762 C 0.41116 0.90601 0.14677 0.0
C763 C 0.3536 0.87249 0.12689 0.0
C764 C 0.44036 0.92579 0.13401 0.0
C765 C 0.44133 0.93715 0.09153 0.0
C766 C 0.38302 0.89702 0.11645 0.0
C767 C 0.41217 0.92899 0.06303 0.0
C768 C 0.33258 0.853 0.09327 0.0
C769 C 0.32579 0.84112 0.18182 0.0
N770 N 0.38427 0.90893 0.07572 0.0
N771 N 0.34902 0.86634 0.16996 0.0
H772 H 0.71239 0.15272 0.19991 0.0
H773 H 0.53904 0.1192 0.0586 0.0
H774 H 0.6521 0.21295 0.20103 0.0
H775 H 0.57907 0.04616 0.09467 0.0
H776 H 0.58465 0.15547 0.10327 0.0
H777 H 0.6674 0.1143 0.15505 0.0
C778 C 0.68954 0.15761 0.19091 0.0
C779 C 0.68555 0.1857 0.20391 0.0
C780 C 0.58346 0.1315 0.10151 0.0
C781 C 0.63483 0.14276 0.15258 0.0
C782 C 0.5575 0.11078 0.07583 0.0
C783 C 0.55514 0.07957 0.07312 0.0
C784 C 0.60753 0.12109 0.12436 0.0
C785 C 0.57982 0.07001 0.09621 0.0
C786 C 0.66403 0.13587 0.16539 0.0
C787 C 0.65588 0.19144 0.19137 0.0
N788 N 0.60513 0.09075 0.12084 0.0
N789 N 0.63169 0.17021 0.16615 0.0
H790 H 0.72135 0.66296 0.84277 0.0
H791 H 0.53064 0.5705 0.85016 0.0
H792 H 0.64272 0.69133 0.77834 0.0
H793 H 0.59951 0.5686 0.96102 0.0
H794 H 0.57394 0.60853 0.81712 0.0
H795 H 0.68029 0.62365 0.88024 0.0
C796 C 0.69549 0.66086 0.83617 0.0
C797 C 0.68571 0.68068 0.80692 0.0
C798 C 0.57981 0.59983 0.84858 0.0
C799 C 0.63824 0.635 0.8495 0.0
C800 C 0.55495 0.57774 0.86772 0.0
C801 C 0.56085 0.56577 0.90899 0.0
C802 C 0.61174 0.6104 0.8699 0.0
C803 C 0.59343 0.57667 0.92919 0.0
C804 C 0.67205 0.63846 0.85788 0.0
C805 C 0.65171 0.67683 0.80041 0.0
N806 N 0.61755 0.59819 0.90947 0.0
N807 N 0.62946 0.65443 0.82091 0.0
H808 H 0.37531 0.71282 0.82316 0.0
H809 H 0.37151 0.55058 0.91465 0.0
H810 H 0.29016 0.65266 0.87695 0.0
H811 H 0.46098 0.62674 0.9262 0.0
H812 H 0.34088 0.58497 0.88839 0.0
H813 H 0.40713 0.67822 0.84734 0.0
C814 C 0.36339 0.69219 0.83967 0.0
C815 C 0.3304 0.68546 0.8486 0.0
C816 C 0.3672 0.59418 0.89678 0.0
C817 C 0.36597 0.64617 0.87561 0.0
C818 C 0.38466 0.57462 0.91173 0.0
C819 C 0.41874 0.58596 0.92258 0.0
C820 C 0.38407 0.62517 0.89176 0.0
C821 C 0.43464 0.61726 0.91843 0.0
C822 C 0.38146 0.67269 0.85366 0.0
C823 C 0.31575 0.65862 0.87001 0.0
N824 N 0.41718 0.63583 0.90283 0.0
N825 N 0.3336 0.63983 0.88264 0.0
H826 H 0.29849 0.345 0.79899 0.0
H827 H 0.45663 0.38223 0.96859 0.0
H828 H 0.36157 0.28719 0.81336 0.0
H829 H 0.4325 0.4559 0.90143 0.0
H830 H 0.41195 0.34541 0.92369 0.0
H831 H 0.33969 0.38505 0.84619 0.0
C832 C 0.321 0.34081 0.81187 0.0
C833 C 0.32669 0.31276 0.8024 0.0
C834 C 0.41647 0.36965 0.91882 0.0
C835 C 0.37288 0.3577 0.85663 0.0
C836 C 0.44189 0.39072 0.94445 0.0
C837 C 0.4487 0.42216 0.93805 0.0
C838 C 0.39755 0.38002 0.88674 0.0
C839 C 0.42834 0.43179 0.90682 0.0
C840 C 0.34433 0.36357 0.83863 0.0
C841 C 0.3562 0.30844 0.81969 0.0
N842 N 0.40357 0.41067 0.88198 0.0
N843 N 0.37803 0.33055 0.84641 0.0
H844 H 0.71581 0.33432 0.9187 0.0
H845 H 0.55699 0.3915 0.89269 0.0
H846 H 0.64633 0.31369 0.80266 0.0
H847 H 0.63614 0.42941 0.99447 0.0
H848 H 0.58929 0.36216 0.86049 0.0
H849 H 0.68675 0.3679 0.94855 0.0
C850 C 0.69451 0.33689 0.89936 0.0
C851 C 0.68348 0.32104 0.85802 0.0
C852 C 0.59984 0.37701 0.88965 0.0
C853 C 0.65015 0.35959 0.89217 0.0
C854 C 0.58139 0.39377 0.9081 0.0
C855 C 0.59399 0.41293 0.94622 0.0
C856 C 0.63106 0.37889 0.90985 0.0
C857 C 0.62573 0.41511 0.96477 0.0
C858 C 0.67801 0.35618 0.91645 0.0
C859 C 0.6557 0.32532 0.83465 0.0
N860 N 0.64311 0.39799 0.94665 0.0
N861 N 0.63998 0.34407 0.85211 0.0
H862 H 0.69188 0.34623 0.22291 0.0
H863 H 0.55874 0.37966 0.04743 0.0
H864 H 0.63369 0.27948 0.12224 0.0
H865 H 0.62226 0.44735 0.14298 0.0
H866 H 0.58545 0.34238 0.07425 0.0
H867 H 0.66491 0.38294 0.19545 0.0
C868 C 0.6731 0.33913 0.1954 0.0
C869 C 0.66504 0.30972 0.17479 0.0
C870 C 0.59356 0.36542 0.08924 0.0
C871 C 0.6343 0.35182 0.14283 0.0
C872 C 0.57838 0.38673 0.07387 0.0
C873 C 0.58802 0.41657 0.09332 0.0
C874 C 0.61846 0.37403 0.12434 0.0
C875 C 0.61379 0.42453 0.12724 0.0
C876 C 0.65787 0.36021 0.1795 0.0
C877 C 0.6407 0.30193 0.13903 0.0
N878 N 0.62797 0.40334 0.14181 0.0
N879 N 0.62624 0.3229 0.1241 0.0
H880 H 0.66134 0.66748 0.26004 0.0
H881 H 0.57513 0.61221 0.02639 0.0
H882 H 0.71235 0.69778 0.14412 0.0
H883 H 0.55913 0.55038 0.13347 0.0
H884 H 0.62509 0.64482 0.06886 0.0
H885 H 0.62343 0.62408 0.21539 0.0
C886 C 0.66488 0.66458 0.22538 0.0
C887 C 0.68959 0.68626 0.2055 0.0
C888 C 0.61082 0.62388 0.08271 0.0
C889 C 0.64608 0.63757 0.15428 0.0
C890 C 0.5822 0.60552 0.05878 0.0
C891 C 0.5628 0.57894 0.0769 0.0
C892 C 0.61947 0.61594 0.12538 0.0
C893 C 0.57332 0.57089 0.11858 0.0
C894 C 0.64337 0.63988 0.19999 0.0
C895 C 0.69341 0.68157 0.16057 0.0
N896 N 0.60065 0.58966 0.14186 0.0
N897 N 0.6713 0.65808 0.13608 0.0
H898 H 0.36363 0.69849 0.20618 0.0
H899 H 0.37136 0.57209 0.02316 0.0
H900 H 0.29016 0.6671 0.09543 0.0
H901 H 0.45482 0.62483 0.11044 0.0
H902 H 0.33805 0.6017 0.05432 0.0
H903 H 0.39451 0.66648 0.17661 0.0
C904 C 0.35396 0.68484 0.17571 0.0
C905 C 0.32433 0.68559 0.15319 0.0
C906 C 0.36364 0.60664 0.06665 0.0
C907 C 0.35943 0.64871 0.11926 0.0
C908 C 0.38253 0.58966 0.04908 0.0
C909 C 0.41584 0.59609 0.06424 0.0
C910 C 0.37814 0.62973 0.10001 0.0
C911 C 0.42927 0.61927 0.09757 0.0
C912 C 0.37161 0.6666 0.15878 0.0
C913 C 0.31299 0.66737 0.11378 0.0
N914 N 0.41039 0.63514 0.1144 0.0
N915 N 0.3305 0.64962 0.09811 0.0
H916 H 0.32488 0.35017 0.25225 0.0
H917 H 0.41732 0.41542 0.03671 0.0
H918 H 0.31543 0.29208 0.13515 0.0
H919 H 0.45886 0.44763 0.16935 0.0
H920 H 0.37259 0.37566 0.06792 0.0
H921 H 0.36684 0.39095 0.21894 0.0
C922 C 0.33143 0.346 0.21939 0.0
C923 C 0.31652 0.31735 0.1968 0.0
C924 C 0.39128 0.3917 0.09018 0.0
C925 C 0.36433 0.3648 0.15744 0.0
C926 C 0.41666 0.41474 0.07234 0.0
C927 C 0.44195 0.43547 0.10029 0.0
C928 C 0.39048 0.38956 0.1365 0.0
C929 C 0.43994 0.43256 0.14631 0.0
C930 C 0.35551 0.36936 0.20034 0.0
C931 C 0.32634 0.31356 0.15415 0.0
N932 N 0.41482 0.41044 0.16276 0.0
N933 N 0.34919 0.33694 0.1358 0.0
H934 H 0.86766 0.71569 0.63622 0.0
H935 H 0.86563 0.54542 0.56666 0.0
H936 H 0.78813 0.63668 0.66545 0.0
H937 H 0.95211 0.62447 0.58448 0.0
H938 H 0.83194 0.57813 0.58725 0.0
H939 H 0.89324 0.68207 0.60002 0.0
C940 C 0.85532 0.69121 0.63458 0.0
C941 C 0.82588 0.67899 0.65439 0.0
C942 C 0.85825 0.58822 0.58617 0.0
C943 C 0.85544 0.64011 0.61309 0.0
C944 C 0.87738 0.56968 0.57427 0.0
C945 C 0.91168 0.58231 0.57442 0.0
C946 C 0.87362 0.61956 0.59716 0.0
C947 C 0.92581 0.61376 0.58456 0.0
C948 C 0.87004 0.67199 0.61396 0.0
C949 C 0.8109 0.64705 0.65069 0.0
N950 N 0.90677 0.63123 0.59551 0.0
N951 N 0.82607 0.62858 0.63085 0.0
H952 H 0.32633 0.81216 0.58054 0.0
H953 H 0.45481 0.95893 0.65284 0.0
H954 H 0.36492 0.83279 0.71704 0.0
H955 H 0.45162 0.91761 0.52207 0.0
H956 H 0.42971 0.90799 0.67916 0.0
H957 H 0.37943 0.84319 0.55797 0.0
C958 C 0.34641 0.82239 0.60561 0.0
C959 C 0.3413 0.82145 0.65055 0.0
C960 C 0.43533 0.91005 0.64492 0.0
C961 C 0.40118 0.85646 0.62571 0.0
C962 C 0.44917 0.93916 0.62991 0.0
C963 C 0.4542 0.94253 0.58515 0.0
C964 C 0.42572 0.88454 0.61452 0.0
C965 C 0.44738 0.91613 0.55682 0.0
C966 C 0.37672 0.8399 0.59291 0.0
C967 C 0.36783 0.83427 0.68208 0.0
N968 N 0.43268 0.88824 0.57177 0.0
N969 N 0.39664 0.85195 0.6691 0.0
H970 H 0.20499 0.34625 0.69752 0.0
H971 H 0.06241 0.3707 0.52808 0.0
H972 H 0.13345 0.27194 0.62063 0.0
H973 H 0.13092 0.44281 0.6123 0.0
H974 H 0.09006 0.33448 0.55739 0.0
H975 H 0.18063 0.38243 0.66183 0.0
C976 C 0.18453 0.33758 0.67246 0.0
C977 C 0.17121 0.30599 0.66201 0.0
C978 C 0.09893 0.35822 0.56952 0.0
C979 C 0.14294 0.34737 0.62116 0.0
C980 C 0.08302 0.37882 0.55301 0.0
C981 C 0.09419 0.40972 0.56806 0.0
C982 C 0.12602 0.36861 0.60148 0.0
C983 C 0.12143 0.41918 0.59976 0.0
C984 C 0.17044 0.35826 0.6523 0.0
C985 C 0.14435 0.29609 0.6298 0.0
N986 N 0.1363 0.39872 0.61549 0.0
N987 N 0.13104 0.31669 0.61057 0.0
H988 H 0.72242 0.18981 0.62951 0.0
H989 H 0.5513 0.05579 0.60451 0.0
H990 H 0.64001 0.18949 0.70318 0.0
H991 H 0.62662 0.06307 0.51473 0.0
H992 H 0.58425 0.1042 0.64168 0.0
H993 H 0.688 0.14414 0.58625 0.0
C994 C 0.69688 0.18035 0.63608 0.0
C995 C 0.68399 0.19346 0.66989 0.0
C996 C 0.59358 0.09538 0.61373 0.0
C997 C 0.64467 0.14071 0.62127 0.0
C998 C 0.57481 0.06763 0.59249 0.0
C999 C 0.58619 0.05534 0.55632 0.0
C1000 C 0.62406 0.11122 0.59877 0.0
C1001 C 0.617 0.07161 0.54263 0.0
C1002 C 0.67729 0.15421 0.61149 0.0
C1003 C 0.65078 0.18033 0.67705 0.0
N1004 N 0.63488 0.09876 0.56386 0.0
N1005 N 0.63237 0.15443 0.65332 0.0
H1006 H 0.78934 0.34028 0.28575 0.0
H1007 H 0.94209 0.42024 0.45857 0.0
H1008 H 0.81563 0.2959 0.40085 0.0
H1009 H 0.88358 0.47266 0.39737 0.0
H1010 H 0.90221 0.37309 0.42497 0.0
H1011 H 0.82992 0.38865 0.31491 0.0
C1012 C 0.80346 0.34075 0.31716 0.0
C1013 C 0.79916 0.31412 0.34101 0.0
C1014 C 0.89829 0.39496 0.41862 0.0
C1015 C 0.84557 0.36869 0.37361 0.0
C1016 C 0.92103 0.4217 0.43746 0.0
C1017 C 0.91579 0.44998 0.43045 0.0
C1018 C 0.87068 0.39678 0.39193 0.0
C1019 C 0.8881 0.45101 0.40343 0.0
C1020 C 0.82651 0.36823 0.33363 0.0
C1021 C 0.81815 0.31587 0.38138 0.0
N1022 N 0.86649 0.42465 0.38475 0.0
N1023 N 0.84072 0.34265 0.39624 0.0
H1024 H 0.72588 0.86224 0.39724 0.0
H1025 H 0.54762 0.88225 0.37771 0.0
H1026 H 0.63893 0.7914 0.34255 0.0
H1027 H 0.6292 0.94339 0.45977 0.0
H1028 H 0.58029 0.84764 0.36758 0.0
H1029 H 0.69081 0.89093 0.42457 0.0
C1030 C 0.69938 0.85247 0.3917 0.0
C1031 C 0.6853 0.82445 0.36749 0.0
C1032 C 0.591 0.86848 0.38813 0.0
C1033 C 0.64508 0.85745 0.3977 0.0
C1034 C 0.57242 0.88839 0.39373 0.0
C1035 C 0.58591 0.91606 0.41899 0.0
C1036 C 0.62351 0.87638 0.40754 0.0
C1037 C 0.61796 0.92249 0.43955 0.0
C1038 C 0.67938 0.86888 0.40723 0.0
C1039 C 0.65084 0.81284 0.36125 0.0
N1040 N 0.63584 0.90297 0.43292 0.0
N1041 N 0.63193 0.82963 0.37561 0.0
H1042 H 0.18259 0.70233 0.37514 0.0
H1043 H 0.05104 0.53709 0.34051 0.0
H1044 H 0.12069 0.67116 0.25344 0.0
H1045 H 0.07915 0.58321 0.46982 0.0
H1046 H 0.08188 0.58411 0.30725 0.0
H1047 H 0.15028 0.65644 0.41032 0.0
C1048 C 0.16231 0.68574 0.35588 0.0
C1049 C 0.15416 0.69037 0.31145 0.0
C1050 C 0.08115 0.58397 0.34288 0.0
C1051 C 0.11765 0.63817 0.35097 0.0
C1052 C 0.06367 0.5572 0.36179 0.0
C1053 C 0.06253 0.5565 0.40777 0.0
C1054 C 0.09818 0.60991 0.37029 0.0
C1055 C 0.07922 0.58307 0.43408 0.0
C1056 C 0.14383 0.65978 0.37596 0.0
C1057 C 0.12758 0.66846 0.28788 0.0
N1058 N 0.09672 0.60874 0.41496 0.0
N1059 N 0.11041 0.64314 0.30785 0.0
H1060 H 0.29182 0.17903 0.40596 0.0
H1061 H 0.45103 0.12167 0.41692 0.0
H1062 H 0.36434 0.20429 0.31071 0.0
H1063 H 0.35982 0.07251 0.46899 0.0
H1064 H 0.42528 0.15976 0.38911 0.0
H1065 H 0.32307 0.14827 0.44209 0.0
C1066 C 0.31459 0.17856 0.39304 0.0
C1067 C 0.32534 0.19412 0.35502 0.0
C1068 C 0.41108 0.14079 0.40702 0.0
C1069 C 0.36108 0.15877 0.3962 0.0
C1070 C 0.42574 0.1192 0.42297 0.0
C1071 C 0.40735 0.09402 0.44503 0.0
C1072 C 0.37817 0.13743 0.41434 0.0
C1073 C 0.37465 0.09155 0.45181 0.0
C1074 C 0.33228 0.16081 0.41354 0.0
C1075 C 0.35507 0.19257 0.33983 0.0
N1076 N 0.36112 0.11307 0.43668 0.0
N1077 N 0.37185 0.17502 0.36034 0.0
H1078 H 0.65381 0.78753 0.62272 0.0
H1079 H 0.61905 0.94828 0.60822 0.0
H1080 H 0.68376 0.86071 0.72392 0.0
H1081 H 0.56324 0.8719 0.51999 0.0
H1082 H 0.64358 0.91477 0.64865 0.0
H1083 H 0.61996 0.81555 0.58278 0.0
C1084 C 0.65285 0.80919 0.63671 0.0
C1085 C 0.67199 0.82226 0.67605 0.0
C1086 C 0.62583 0.905 0.62069 0.0
C1087 C 0.63379 0.85395 0.63132 0.0
C1088 C 0.61191 0.92428 0.59736 0.0
C1089 C 0.58915 0.91286 0.56067 0.0
C1090 C 0.6174 0.87387 0.60718 0.0
C1091 C 0.58062 0.88147 0.54837 0.0
C1092 C 0.63366 0.82511 0.61402 0.0
C1093 C 0.67 0.85021 0.6931 0.0
N1094 N 0.59506 0.86295 0.57142 0.0
N1095 N 0.65147 0.86511 0.67057 0.0
H1096 H 0.71183 0.18228 0.4527 0.0
H1097 H 0.52534 0.08236 0.41264 0.0
H1098 H 0.6415 0.21977 0.38447 0.0
H1099 H 0.60954 0.05015 0.40099 0.0
H1100 H 0.56253 0.13511 0.42361 0.0
H1101 H 0.66716 0.13631 0.46522 0.0
C1102 C 0.68671 0.18146 0.44249 0.0
C1103 C 0.68013 0.20405 0.41632 0.0
C1104 C 0.57257 0.1164 0.4181 0.0
C1105 C 0.62982 0.15186 0.42903 0.0
C1106 C 0.55156 0.08661 0.41087 0.0
C1107 C 0.56461 0.0622 0.40531 0.0
C1108 C 0.60655 0.12127 0.42076 0.0
C1109 C 0.59859 0.06847 0.4043 0.0
C1110 C 0.66142 0.15513 0.44893 0.0
C1111 C 0.64736 0.20236 0.40409 0.0
N1112 N 0.61854 0.09749 0.41272 0.0
N1113 N 0.62318 0.17591 0.4092 0.0
H1114 H 0.87402 0.72702 0.35615 0.0
H1115 H 0.85635 0.55506 0.42138 0.0
H1116 H 0.7867 0.65087 0.32057 0.0
H1117 H 0.94403 0.63127 0.45527 0.0
H1118 H 0.82887 0.5903 0.39008 0.0
H1119 H 0.89779 0.69313 0.39863 0.0
C1120 C 0.85964 0.70318 0.35767 0.0
C1121 C 0.82833 0.69176 0.33452 0.0
C1122 C 0.85406 0.5994 0.40448 0.0
C1123 C 0.85577 0.65257 0.38287 0.0
C1124 C 0.8699 0.57927 0.42237 0.0
C1125 C 0.90281 0.59015 0.44064 0.0
C1126 C 0.87115 0.6308 0.40465 0.0
C1127 C 0.9188 0.6218 0.44126 0.0
C1128 C 0.87332 0.68381 0.38191 0.0
C1129 C 0.81085 0.6607 0.33798 0.0
N1130 N 0.90288 0.64097 0.42327 0.0
N1131 N 0.82495 0.64211 0.3613 0.0
H1132 H 0.28149 0.80624 0.38544 0.0
H1133 H 0.45007 0.94084 0.38359 0.0
H1134 H 0.35827 0.80339 0.30298 0.0
H1135 H 0.37716 0.9407 0.47464 0.0
H1136 H 0.41854 0.8888 0.35786 0.0
H1137 H 0.31852 0.85249 0.4246 0.0
C1138 C 0.30651 0.81502 0.37643 0.0
C1139 C 0.31698 0.80117 0.3411 0.0
C1140 C 0.40948 0.9 0.38367 0.0
C1141 C 0.35912 0.85449 0.38457 0.0
C1142 C 0.42739 0.92983 0.39827 0.0
C1143 C 0.4161 0.94527 0.43112 0.0
C1144 C 0.37994 0.88534 0.40194 0.0
C1145 C 0.38657 0.92981 0.44887 0.0
C1146 C 0.32757 0.84149 0.39856 0.0
C1147 C 0.34951 0.81328 0.33047 0.0
N1148 N 0.36943 0.90069 0.43393 0.0
N1149 N 0.36933 0.83963 0.35166 0.0
H1150 H 0.18906 0.35346 0.29425 0.0
H1151 H 0.12452 0.43208 0.48842 0.0
H1152 H 0.18593 0.31568 0.42346 0.0
H1153 H 0.07256 0.41159 0.35823 0.0
H1154 H 0.16035 0.40182 0.46727 0.0
H1155 H 0.16024 0.38855 0.31978 0.0
C1156 C 0.18298 0.35297 0.32829 0.0
C1157 C 0.18982 0.33149 0.35676 0.0
C1158 C 0.1411 0.40417 0.44351 0.0
C1159 C 0.15729 0.37196 0.3862 0.0
C1160 C 0.1206 0.42128 0.45554 0.0
C1161 C 0.09493 0.4237 0.42545 0.0
C1162 C 0.13675 0.39067 0.40052 0.0
C1163 C 0.09162 0.40988 0.38278 0.0
C1164 C 0.16637 0.37289 0.34268 0.0
C1165 C 0.181 0.33179 0.40044 0.0
N1166 N 0.11241 0.39419 0.37149 0.0
N1167 N 0.16521 0.35179 0.41396 0.0
H1168 H 0.27663 0.12681 0.62992 0.0
H1169 H 0.45826 0.12119 0.60025 0.0
H1170 H 0.36392 0.20407 0.66008 0.0
H1171 H 0.37107 0.04796 0.55284 0.0
H1172 H 0.42378 0.15273 0.61855 0.0
H1173 H 0.31017 0.09861 0.59748 0.0
C1174 C 0.3028 0.13801 0.62926 0.0
C1175 C 0.31752 0.1678 0.64808 0.0
C1176 C 0.41211 0.12984 0.60395 0.0
C1177 C 0.35612 0.13546 0.61133 0.0
C1178 C 0.4318 0.11173 0.59368 0.0
C1179 C 0.41746 0.08173 0.57557 0.0
C1180 C 0.37773 0.11779 0.59659 0.0
C1181 C 0.3831 0.07089 0.56707 0.0
C1182 C 0.32194 0.12185 0.61072 0.0
C1183 C 0.35151 0.18114 0.6461 0.0
N1184 N 0.36435 0.0888 0.5781 0.0
N1185 N 0.36969 0.16475 0.62851 0.0
H1186 H 0.87725 0.28332 0.63686 0.0
H1187 H 0.91532 0.46499 0.64307 0.0
H1188 H 0.82315 0.33118 0.70941 0.0
H1189 H 0.95442 0.41545 0.54963 0.0
H1190 H 0.88282 0.41627 0.66966 0.0
H1191 H 0.90645 0.33153 0.60499 0.0
C1192 C 0.87156 0.30405 0.64598 0.0
C1193 C 0.84803 0.3035 0.67591 0.0
C1194 C 0.89851 0.41608 0.64333 0.0
C1195 C 0.88155 0.35861 0.64037 0.0
C1196 C 0.91728 0.4439 0.62834 0.0
C1197 C 0.93784 0.44436 0.59428 0.0
C1198 C 0.90046 0.38849 0.62437 0.0
C1199 C 0.93906 0.41625 0.57613 0.0
C1200 C 0.88813 0.33149 0.62776 0.0
C1201 C 0.84112 0.33075 0.6863 0.0
N1202 N 0.92069 0.38944 0.59152 0.0
N1203 N 0.85811 0.35735 0.66892 0.0
H1204 H 0.23582 0.65857 0.68783 0.0
H1205 H 0.04906 0.56916 0.5997 0.0
H1206 H 0.15709 0.69931 0.68105 0.0
H1207 H 0.13119 0.53753 0.57116 0.0
H1208 H 0.08706 0.61258 0.64357 0.0
H1209 H 0.19624 0.6094 0.65925 0.0
C1210 C 0.21004 0.65684 0.68121 0.0
C1211 C 0.19941 0.68266 0.68641 0.0
C1212 C 0.09673 0.59604 0.62789 0.0
C1213 C 0.15443 0.62722 0.65408 0.0
C1214 C 0.07507 0.57124 0.60285 0.0
C1215 C 0.08703 0.54989 0.58129 0.0
C1216 C 0.1306 0.59947 0.63166 0.0
C1217 C 0.12097 0.5537 0.58673 0.0
C1218 C 0.18758 0.629 0.66472 0.0
C1219 C 0.16602 0.67973 0.6771 0.0
N1220 N 0.14163 0.57811 0.61128 0.0
N1221 N 0.14467 0.65248 0.66127 0.0
loop_
_geom_bond_atom_site_label_1
_geom_bond_atom_site_label_2
_geom_bond_distance
_geom_bond_site_symmetry_2
_ccdc_geom_bond_type
Zn0 O6 1.969 . S
Zn0 O7 1.965 . S
Zn0 O11 2.024 . S
Zn0 O16 1.969 . S
Zn1 O8 1.969 . S
Zn1 O14 1.969 . S
Zn1 O15 1.965 . S
Zn1 O17 2.024 . S
C2 O3 1.229 . S
C2 O11 1.058 . S
O3 C2 1.229 . S
C4 O5 1.229 . S
C4 O17 1.058 . S
O5 C4 1.229 . S
O6 Zn0 1.969 . S
O6 C9 1.267 . S
O7 Zn0 1.965 . S
O7 C18 1.260 . S
O8 Zn1 1.969 . S
O8 C18 1.258 . S
C9 O6 1.267 . S
C9 O10 1.228 . S
O10 C9 1.228 . S
O11 Zn0 2.024 . S
O11 C2 1.058 . S
C12 O13 1.228 . S
C12 O14 1.267 . S
O13 C12 1.228 . S
O14 Zn1 1.969 . S
O14 C12 1.267 . S
O15 Zn1 1.965 . S
O15 C19 1.260 . S
O16 Zn0 1.969 . S
O16 C19 1.258 . S
O17 Zn1 2.024 . S
O17 C4 1.058 . S
C18 O7 1.260 . S
C18 O8 1.258 . S
C19 O15 1.260 . S
C19 O16 1.258 . S
Zn20 O26 1.969 . S
Zn20 O27 1.965 . S
Zn20 O31 2.024 . S
Zn20 O36 1.969 . S
Zn21 O28 1.969 . S
Zn21 O34 1.969 . S
Zn21 O35 1.965 . S
Zn21 O37 2.024 . S
C22 O23 1.229 . S
C22 O31 1.058 . S
O23 C22 1.229 . S
C24 O25 1.229 . S
C24 O37 1.058 . S
O25 C24 1.229 . S
O26 Zn20 1.969 . S
O26 C29 1.267 . S
O27 Zn20 1.965 . S
O27 C38 1.260 . S
O28 Zn21 1.969 . S
O28 C38 1.258 . S
C29 O26 1.267 . S
C29 O30 1.228 . S
O30 C29 1.228 . S
O31 Zn20 2.024 . S
O31 C22 1.058 . S
C32 O33 1.228 . S
C32 O34 1.267 . S
O33 C32 1.228 . S
O34 Zn21 1.969 . S
O34 C32 1.267 . S
O35 Zn21 1.965 . S
O35 C39 1.260 . S
O36 Zn20 1.969 . S
O36 C39 1.258 . S
O37 Zn21 2.024 . S
O37 C24 1.058 . S
C38 O27 1.260 . S
C38 O28 1.258 . S
C39 O35 1.260 . S
C39 O36 1.258 . S
Zn40 O46 1.969 . S
Zn40 O47 1.965 . S
Zn40 O51 2.024 . S
Zn40 O56 1.969 . S
Zn41 O48 1.969 . S
Zn41 O54 1.969 . S
Zn41 O55 1.965 . S
Zn41 O57 2.024 . S
C42 O43 1.229 . S
C42 O51 1.058 . S
O43 C42 1.229 . S
C44 O45 1.229 . S
C44 O57 1.058 . S
O45 C44 1.229 . S
O46 Zn40 1.969 . S
O46 C49 1.267 . S
O47 Zn40 1.965 . S
O47 C58 1.260 . S
O48 Zn41 1.969 . S
O48 C58 1.258 . S
C49 O46 1.267 . S
C49 O50 1.228 . S
O50 C49 1.228 . S
O51 Zn40 2.024 . S
O51 C42 1.058 . S
C52 O53 1.228 . S
C52 O54 1.267 . S
O53 C52 1.228 . S
O54 Zn41 1.969 . S
O54 C52 1.267 . S
O55 Zn41 1.965 . S
O55 C59 1.260 . S
O56 Zn40 1.969 . S
O56 C59 1.258 . S
O57 Zn41 2.024 . S
O57 C44 1.058 . S
C58 O47 1.260 . S
C58 O48 1.258 . S
C59 O55 1.260 . S
C59 O56 1.258 . S
Zn60 O66 1.969 . S
Zn60 O67 1.965 . S
Zn60 O71 2.024 . S
Zn60 O76 1.969 . S
Zn61 O68 1.969 . S
Zn61 O74 1.969 . S
Zn61 O75 1.965 . S
Zn61 O77 2.024 . S
C62 O63 1.229 . S
C62 O71 1.058 . S
O63 C62 1.229 . S
C64 O65 1.229 . S
C64 O77 1.058 . S
O65 C64 1.229 . S
O66 Zn60 1.969 . S
O66 C69 1.267 . S
O67 Zn60 1.965 . S
O67 C78 1.260 . S
O68 Zn61 1.969 . S
O68 C78 1.258 . S
C69 O66 1.267 . S
C69 O70 1.228 . S
O70 C69 1.228 . S
O71 Zn60 2.024 . S
O71 C62 1.058 . S
C72 O73 1.228 . S
C72 O74 1.267 . S
O73 C72 1.228 . S
O74 Zn61 1.969 . S
O74 C72 1.267 . S
O75 Zn61 1.965 . S
O75 C79 1.260 . S
O76 Zn60 1.969 . S
O76 C79 1.258 . S
O77 Zn61 2.024 . S
O77 C64 1.058 . S
C78 O67 1.260 . S
C78 O68 1.258 . S
C79 O75 1.260 . S
C79 O76 1.258 . S
Zn80 O86 1.969 . S
Zn80 O87 1.965 . S
Zn80 O91 2.024 . S
Zn80 O96 1.969 . S
Zn81 O88 1.969 . S
Zn81 O94 1.969 . S
Zn81 O95 1.965 . S
Zn81 O97 2.024 . S
C82 O83 1.229 . S
C82 O91 1.058 . S
O83 C82 1.229 . S
C84 O85 1.229 . S
C84 O97 1.058 . S
O85 C84 1.229 . S
O86 Zn80 1.969 . S
O86 C89 1.267 . S
O87 Zn80 1.965 . S
O87 C98 1.260 . S
O88 Zn81 1.969 . S
O88 C98 1.258 . S
C89 O86 1.267 . S
C89 O90 1.228 . S
O90 C89 1.228 . S
O91 Zn80 2.024 . S
O91 C82 1.058 . S
C92 O93 1.228 . S
C92 O94 1.267 . S
O93 C92 1.228 . S
O94 Zn81 1.969 . S
O94 C92 1.267 . S
O95 Zn81 1.965 . S
O95 C99 1.260 . S
O96 Zn80 1.969 . S
O96 C99 1.258 . S
O97 Zn81 2.024 . S
O97 C84 1.058 . S
C98 O87 1.260 . S
C98 O88 1.258 . S
C99 O95 1.260 . S
C99 O96 1.258 . S
Zn100 O106 1.969 . S
Zn100 O107 1.965 . S
Zn100 O111 2.024 . S
Zn100 O116 1.969 . S
Zn101 O108 1.969 . S
Zn101 O114 1.969 . S
Zn101 O115 1.965 . S
Zn101 O117 2.024 . S
C102 O103 1.229 . S
C102 O111 1.058 . S
O103 C102 1.229 . S
C104 O105 1.229 . S
C104 O117 1.058 . S
O105 C104 1.229 . S
O106 Zn100 1.969 . S
O106 C109 1.267 . S
O107 Zn100 1.965 . S
O107 C118 1.260 . S
O108 Zn101 1.969 . S
O108 C118 1.258 . S
C109 O106 1.267 . S
C109 O110 1.228 . S
O110 C109 1.228 . S
O111 Zn100 2.024 . S
O111 C102 1.058 . S
C112 O113 1.228 . S
C112 O114 1.267 . S
O113 C112 1.228 . S
O114 Zn101 1.969 . S
O114 C112 1.267 . S
O115 Zn101 1.965 . S
O115 C119 1.260 . S
O116 Zn100 1.969 . S
O116 C119 1.258 . S
O117 Zn101 2.024 . S
O117 C104 1.058 . S
C118 O107 1.260 . S
C118 O108 1.258 . S
C119 O115 1.260 . S
C119 O116 1.258 . S
Zn120 O126 1.969 . S
Zn120 O127 1.965 . S
Zn120 O131 2.024 . S
Zn120 O136 1.969 . S
Zn121 O128 1.969 . S
Zn121 O134 1.969 . S
Zn121 O135 1.965 . S
Zn121 O137 2.024 . S
C122 O123 1.229 . S
C122 O131 1.058 . S
O123 C122 1.229 . S
C124 O125 1.229 . S
C124 O137 1.058 . S
O125 C124 1.229 . S
O126 Zn120 1.969 . S
O126 C129 1.267 . S
O127 Zn120 1.965 . S
O127 C138 1.260 . S
O128 Zn121 1.969 . S
O128 C138 1.258 . S
C129 O126 1.267 . S
C129 O130 1.228 . S
O130 C129 1.228 . S
O131 Zn120 2.024 . S
O131 C122 1.058 . S
C132 O133 1.228 . S
C132 O134 1.267 . S
O133 C132 1.228 . S
O134 Zn121 1.969 . S
O134 C132 1.267 . S
O135 Zn121 1.965 . S
O135 C139 1.260 . S
O136 Zn120 1.969 . S
O136 C139 1.258 . S
O137 Zn121 2.024 . S
O137 C124 1.058 . S
C138 O127 1.260 . S
C138 O128 1.258 . S
C139 O135 1.260 . S
C139 O136 1.258 . S
Zn140 O146 1.969 . S
Zn140 O147 1.965 . S
Zn140 O151 2.024 . S
Zn140 O156 1.969 . S
Zn141 O148 1.969 . S
Zn141 O154 1.969 . S
Zn141 O155 1.965 . S
Zn141 O157 2.024 . S
C142 O143 1.229 . S
C142 O151 1.058 . S
O143 C142 1.229 . S
C144 O145 1.229 . S
C144 O157 1.058 . S
O145 C144 1.229 . S
O146 Zn140 1.969 . S
O146 C149 1.267 . S
O147 Zn140 1.965 . S
O147 C158 1.260 . S
O148 Zn141 1.969 . S
O148 C158 1.258 . S
C149 O146 1.267 . S
C149 O150 1.228 . S
O150 C149 1.228 . S
O151 Zn140 2.024 . S
O151 C142 1.058 . S
C152 O153 1.228 . S
C152 O154 1.267 . S
O153 C152 1.228 . S
O154 Zn141 1.969 . S
O154 C152 1.267 . S
O155 Zn141 1.965 . S
O155 C159 1.260 . S
O156 Zn140 1.969 . S
O156 C159 1.258 . S
O157 Zn141 2.024 . S
O157 C144 1.058 . S
C158 O147 1.260 . S
C158 O148 1.258 . S
C159 O155 1.260 . S
C159 O156 1.258 . S
Co160 O163 2.042 . S
Co160 O170 2.264 . S
Co160 O189 2.286 . S
Co160 O190 2.069 . S
Co160 O192 2.015 1_455 S
Co161 O163 2.122 . S
Co161 O169 2.073 . S
Co161 O170 2.327 . S
Co161 O171 1.976 1_455 S
Co162 O163 2.088 1_545 S
Co162 O165 2.086 1_455 S
Co162 O172 2.108 1_445 S
Co162 O173 2.147 . S
Co162 O177 2.115 . S
Co162 O191 2.140 1_445 S
O163 Co160 2.042 . S
O163 Co161 2.122 . S
O163 Co162 2.088 1_565 S
O163 H164 0.980 . S
H164 O163 0.980 . S
O165 Co162 2.086 1_655 S
O165 Co166 2.042 . S
O165 Co167 2.122 . S
O165 H168 0.980 . S
Co166 O165 2.042 . S
Co166 O174 2.286 . S
Co166 O175 2.069 . S
Co166 O176 2.015 1_655 S
Co166 O179 2.264 . S
Co167 O165 2.122 . S
Co167 O178 1.976 1_655 S
Co167 O179 2.327 . S
Co167 O180 2.073 . S
H168 O165 0.980 . S
O169 Co161 2.073 . S
O169 C184 1.245 . S
O170 Co160 2.264 . S
O170 Co161 2.327 . S
O170 C184 1.257 . S
O171 Co161 1.976 1_655 S
O171 C183 1.251 . S
O172 Co162 2.108 1_665 S
O172 C183 1.274 . S
O173 Co162 2.147 . S
O173 C186 1.246 . S
O174 Co166 2.286 . S
O174 C185 1.259 . S
O175 Co166 2.069 . S
O175 C185 1.289 . S
O176 Co166 2.015 1_455 S
O176 C186 1.257 . S
O177 Co162 2.115 . S
O177 C187 1.274 . S
O178 Co167 1.976 1_455 S
O178 C187 1.251 . S
O179 Co166 2.264 . S
O179 Co167 2.327 . S
O179 C188 1.257 . S
O180 Co167 2.073 . S
O180 C188 1.245 . S
C181 O189 1.259 . S
C181 O190 1.289 . S
C182 O191 1.246 . S
C182 O192 1.257 . S
C183 O171 1.251 . S
C183 O172 1.274 . S
C184 O169 1.245 . S
C184 O170 1.257 . S
C185 O174 1.259 . S
C185 O175 1.289 . S
C186 O173 1.246 . S
C186 O176 1.257 . S
C187 O177 1.274 . S
C187 O178 1.251 . S
C188 O179 1.257 . S
C188 O180 1.245 . S
O189 Co160 2.286 . S
O189 C181 1.259 . S
O190 Co160 2.069 . S
O190 C181 1.289 . S
O191 Co162 2.140 1_665 S
O191 C182 1.246 . S
O192 Co160 2.015 1_655 S
O192 C182 1.257 . S
Co193 O196 2.042 1_556 S
Co193 O203 2.264 1_556 S
Co193 O222 2.286 . S
Co193 O223 2.069 . S
Co193 O225 2.015 . S
Co194 O196 2.122 . S
Co194 O202 2.073 . S
Co194 O203 2.327 . S
Co194 O204 1.976 . S
Co195 O196 2.084 1_545 S
Co195 O198 2.090 1_554 S
Co195 O205 2.110 1_545 S
Co195 O206 2.146 . S
Co195 O210 2.112 1_554 S
Co195 O224 2.141 1_544 S
O196 Co193 2.042 1_554 S
O196 Co194 2.122 . S
O196 Co195 2.084 1_565 S
O196 H197 0.980 . S
H197 O196 0.980 . S
O198 Co195 2.090 1_556 S
O198 Co199 2.042 1_556 S
O198 Co200 2.122 . S
O198 H201 0.980 . S
Co199 O198 2.042 1_554 S
Co199 O207 2.286 . S
Co199 O208 2.069 . S
Co199 O209 2.015 . S
Co199 O212 2.264 1_554 S
Co200 O198 2.122 . S
Co200 O211 1.976 . S
Co200 O212 2.327 . S
Co200 O213 2.073 . S
H201 O198 0.980 . S
O202 Co194 2.073 . S
O202 C217 1.245 . S
O203 Co193 2.264 1_554 S
O203 Co194 2.327 . S
O203 C217 1.257 . S
O204 Co194 1.976 . S
O204 C216 1.251 . S
O205 Co195 2.110 1_565 S
O205 C216 1.274 . S
O206 Co195 2.146 . S
O206 C219 1.246 . S
O207 Co199 2.286 . S
O207 C218 1.259 . S
O208 Co199 2.069 . S
O208 C218 1.289 . S
O209 Co199 2.015 . S
O209 C219 1.257 . S
O210 Co195 2.112 1_556 S
O210 C220 1.274 . S
O211 Co200 1.976 . S
O211 C220 1.251 . S
O212 Co199 2.264 1_556 S
O212 Co200 2.327 . S
O212 C221 1.257 . S
O213 Co200 2.073 . S
O213 C221 1.245 . S
C214 O222 1.259 . S
C214 O223 1.289 . S
C215 O224 1.246 . S
C215 O225 1.257 . S
C216 O204 1.251 . S
C216 O205 1.274 . S
C217 O202 1.245 . S
C217 O203 1.257 . S
C218 O207 1.259 . S
C218 O208 1.289 . S
C219 O206 1.246 . S
C219 O209 1.257 . S
C220 O210 1.274 . S
C220 O211 1.251 . S
C221 O212 1.257 . S
C221 O213 1.245 . S
O222 Co193 2.286 . S
O222 C214 1.259 . S
O223 Co193 2.069 . S
O223 C214 1.289 . S
O224 Co195 2.141 1_566 S
O224 C215 1.246 . S
O225 Co193 2.015 . S
O225 C215 1.257 . S
Co226 O229 2.042 1_556 S
Co226 O236 2.264 1_556 S
Co226 O255 2.286 . S
Co226 O256 2.069 . S
Co226 O258 2.015 1_455 S
Co227 O229 2.122 . S
Co227 O235 2.073 . S
Co227 O236 2.327 . S
Co227 O237 1.976 1_455 S
Co228 O229 2.091 . S
Co228 O231 2.083 1_454 S
Co228 O238 2.109 1_455 S
Co228 O239 2.145 . S
Co228 O243 2.114 1_554 S
Co228 O257 2.142 1_454 S
O229 Co226 2.042 1_554 S
O229 Co227 2.122 . S
O229 Co228 2.091 . S
O229 H230 0.980 . S
H230 O229 0.980 . S
O231 Co228 2.083 1_656 S
O231 Co232 2.042 1_556 S
O231 Co233 2.122 . S
O231 H234 0.980 . S
Co232 O231 2.042 1_554 S
Co232 O240 2.286 . S
Co232 O241 2.069 . S
Co232 O242 2.015 1_655 S
Co232 O245 2.264 1_554 S
Co233 O231 2.122 . S
Co233 O244 1.976 1_655 S
Co233 O245 2.327 . S
Co233 O246 2.073 . S
H234 O231 0.980 . S
O235 Co227 2.073 . S
O235 C250 1.245 . S
O236 Co226 2.264 1_554 S
O236 Co227 2.327 . S
O236 C250 1.257 . S
O237 Co227 1.976 1_655 S
O237 C249 1.251 . S
O238 Co228 2.109 1_655 S
O238 C249 1.274 . S
O239 Co228 2.145 . S
O239 C252 1.246 . S
O240 Co232 2.286 . S
O240 C251 1.259 . S
O241 Co232 2.069 . S
O241 C251 1.289 . S
O242 Co232 2.015 1_455 S
O242 C252 1.257 . S
O243 Co228 2.114 1_556 S
O243 C253 1.274 . S
O244 Co233 1.976 1_455 S
O244 C253 1.251 . S
O245 Co232 2.264 1_556 S
O245 Co233 2.327 . S
O245 C254 1.257 . S
O246 Co233 2.073 . S
O246 C254 1.245 . S
C247 O255 1.259 . S
C247 O256 1.289 . S
C248 O257 1.246 . S
C248 O258 1.257 . S
C249 O237 1.251 . S
C249 O238 1.274 . S
C250 O235 1.245 . S
C250 O236 1.257 . S
C251 O240 1.259 . S
C251 O241 1.289 . S
C252 O239 1.246 . S
C252 O242 1.257 . S
C253 O243 1.274 . S
C253 O244 1.251 . S
C254 O245 1.257 . S
C254 O246 1.245 . S
O255 Co226 2.286 . S
O255 C247 1.259 . S
O256 Co226 2.069 . S
O256 C247 1.289 . S
O257 Co228 2.142 1_656 S
O257 C248 1.246 . S
O258 Co226 2.015 1_655 S
O258 C248 1.257 . S
Co259 O262 2.042 1_556 S
Co259 O269 2.264 1_556 S
Co259 O288 2.286 . S
Co259 O289 2.069 . S
Co259 O291 2.015 . S
Co260 O262 2.122 . S
Co260 O268 2.073 . S
Co260 O269 2.327 . S
Co260 O270 1.976 . S
Co261 O262 2.087 . S
Co261 O264 2.087 1_554 S
Co261 O271 2.111 . S
Co261 O272 2.143 . S
Co261 O276 2.111 1_554 S
Co261 O290 2.143 1_554 S
O262 Co259 2.042 1_554 S
O262 Co260 2.122 . S
O262 Co261 2.087 . S
O262 H263 0.980 . S
H263 O262 0.980 . S
O264 Co261 2.087 1_556 S
O264 Co265 2.042 1_556 S
O264 Co266 2.122 . S
O264 H267 0.980 . S
Co265 O264 2.042 1_554 S
Co265 O273 2.286 . S
Co265 O274 2.069 . S
Co265 O275 2.015 . S
Co265 O278 2.264 1_554 S
Co266 O264 2.122 . S
Co266 O277 1.976 . S
Co266 O278 2.327 . S
Co266 O279 2.073 . S
H267 O264 0.980 . S
O268 Co260 2.073 . S
O268 C283 1.245 . S
O269 Co259 2.264 1_554 S
O269 Co260 2.327 . S
O269 C283 1.257 . S
O270 Co260 1.976 . S
O270 C282 1.251 . S
O271 Co261 2.111 . S
O271 C282 1.274 . S
O272 Co261 2.143 . S
O272 C285 1.246 . S
O273 Co265 2.286 . S
O273 C284 1.259 . S
O274 Co265 2.069 . S
O274 C284 1.289 . S
O275 Co265 2.015 . S
O275 C285 1.257 . S
O276 Co261 2.111 1_556 S
O276 C286 1.274 . S
O277 Co266 1.976 . S
O277 C286 1.251 . S
O278 Co265 2.264 1_556 S
O278 Co266 2.327 . S
O278 C287 1.257 . S
O279 Co266 2.073 . S
O279 C287 1.245 . S
C280 O288 1.259 . S
C280 O289 1.289 . S
C281 O290 1.246 . S
C281 O291 1.257 . S
C282 O270 1.251 . S
C282 O271 1.274 . S
C283 O268 1.245 . S
C283 O269 1.257 . S
C284 O273 1.259 . S
C284 O274 1.289 . S
C285 O272 1.246 . S
C285 O275 1.257 . S
C286 O276 1.274 . S
C286 O277 1.251 . S
C287 O278 1.257 . S
C287 O279 1.245 . S
O288 Co259 2.286 . S
O288 C280 1.259 . S
O289 Co259 2.069 . S
O289 C280 1.289 . S
O290 Co261 2.143 1_556 S
O290 C281 1.246 . S
O291 Co259 2.015 . S
O291 C281 1.257 . S
Co292 O295 2.042 . S
Co292 O302 2.264 . S
Co292 O321 2.286 . S
Co292 O322 2.069 . S
Co292 O324 2.015 . S
Co293 O295 2.122 . S
Co293 O301 2.073 . S
Co293 O302 2.327 . S
Co293 O303 1.976 . S
Co294 O295 2.091 . S
Co294 O297 2.083 1_455 S
Co294 O304 2.113 . S
Co294 O305 2.141 1_455 S
Co294 O309 2.110 1_455 S
Co294 O323 2.146 . S
O295 Co292 2.042 . S
O295 Co293 2.122 . S
O295 Co294 2.091 . S
O295 H296 0.980 . S
H296 O295 0.980 . S
O297 Co294 2.083 1_655 S
O297 Co298 2.042 . S
O297 Co299 2.122 . S
O297 H300 0.980 . S
Co298 O297 2.042 . S
Co298 O306 2.286 . S
Co298 O307 2.069 . S
Co298 O308 2.015 . S
Co298 O311 2.264 . S
Co299 O297 2.122 . S
Co299 O310 1.976 . S
Co299 O311 2.327 . S
Co299 O312 2.073 . S
H300 O297 0.980 . S
O301 Co293 2.073 . S
O301 C316 1.245 . S
O302 Co292 2.264 . S
O302 Co293 2.327 . S
O302 C316 1.257 . S
O303 Co293 1.976 . S
O303 C315 1.251 . S
O304 Co294 2.113 . S
O304 C315 1.274 . S
O305 Co294 2.141 1_655 S
O305 C318 1.246 . S
O306 Co298 2.286 . S
O306 C317 1.259 . S
O307 Co298 2.069 . S
O307 C317 1.289 . S
O308 Co298 2.015 . S
O308 C318 1.257 . S
O309 Co294 2.110 1_655 S
O309 C319 1.274 . S
O310 Co299 1.976 . S
O310 C319 1.251 . S
O311 Co298 2.264 . S
O311 Co299 2.327 . S
O311 C320 1.257 . S
O312 Co299 2.073 . S
O312 C320 1.245 . S
C313 O321 1.259 . S
C313 O322 1.289 . S
C314 O323 1.246 . S
C314 O324 1.257 . S
C315 O303 1.251 . S
C315 O304 1.274 . S
C316 O301 1.245 . S
C316 O302 1.257 . S
C317 O306 1.259 . S
C317 O307 1.289 . S
C318 O305 1.246 . S
C318 O308 1.257 . S
C319 O309 1.274 . S
C319 O310 1.251 . S
C320 O311 1.257 . S
C320 O312 1.245 . S
O321 Co292 2.286 . S
O321 C313 1.259 . S
O322 Co292 2.069 . S
O322 C313 1.289 . S
O323 Co294 2.146 . S
O323 C314 1.246 . S
O324 Co292 2.015 . S
O324 C314 1.257 . S
Co325 O328 2.042 . S
Co325 O335 2.264 . S
Co325 O354 2.286 . S
Co325 O355 2.069 . S
Co325 O357 2.015 1_565 S
Co326 O328 2.122 . S
Co326 O334 2.073 . S
Co326 O335 2.327 . S
Co326 O336 1.976 1_565 S
Co327 O328 2.084 1_545 S
Co327 O330 2.090 . S
Co327 O337 2.114 . S
Co327 O338 2.142 1_545 S
Co327 O342 2.109 1_545 S
Co327 O356 2.145 . S
O328 Co325 2.042 . S
O328 Co326 2.122 . S
O328 Co327 2.084 1_565 S
O328 H329 0.980 . S
H329 O328 0.980 . S
O330 Co327 2.090 . S
O330 Co331 2.042 . S
O330 Co332 2.122 . S
O330 H333 0.980 . S
Co331 O330 2.042 . S
Co331 O339 2.286 . S
Co331 O340 2.069 . S
Co331 O341 2.015 1_545 S
Co331 O344 2.264 . S
Co332 O330 2.122 . S
Co332 O343 1.976 1_545 S
Co332 O344 2.327 . S
Co332 O345 2.073 . S
H333 O330 0.980 . S
O334 Co326 2.073 . S
O334 C349 1.245 . S
O335 Co325 2.264 . S
O335 Co326 2.327 . S
O335 C349 1.257 . S
O336 Co326 1.976 1_545 S
O336 C348 1.251 . S
O337 Co327 2.114 . S
O337 C348 1.274 . S
O338 Co327 2.142 1_565 S
O338 C351 1.246 . S
O339 Co331 2.286 . S
O339 C350 1.259 . S
O340 Co331 2.069 . S
O340 C350 1.289 . S
O341 Co331 2.015 1_565 S
O341 C351 1.257 . S
O342 Co327 2.109 1_565 S
O342 C352 1.274 . S
O343 Co332 1.976 1_565 S
O343 C352 1.251 . S
O344 Co331 2.264 . S
O344 Co332 2.327 . S
O344 C353 1.257 . S
O345 Co332 2.073 . S
O345 C353 1.245 . S
C346 O354 1.259 . S
C346 O355 1.289 . S
C347 O356 1.246 . S
C347 O357 1.257 . S
C348 O336 1.251 . S
C348 O337 1.274 . S
C349 O334 1.245 . S
C349 O335 1.257 . S
C350 O339 1.259 . S
C350 O340 1.289 . S
C351 O338 1.246 . S
C351 O341 1.257 . S
C352 O342 1.274 . S
C352 O343 1.251 . S
C353 O344 1.257 . S
C353 O345 1.245 . S
O354 Co325 2.286 . S
O354 C346 1.259 . S
O355 Co325 2.069 . S
O355 C346 1.289 . S
O356 Co327 2.145 . S
O356 C347 1.246 . S
O357 Co325 2.015 1_545 S
O357 C347 1.257 . S
H358 C364 0.930 . S
H359 C368 0.930 . S
H360 C373 0.929 . S
H361 C371 0.929 . S
H362 C366 0.929 . S
H363 C372 0.929 . S
C364 H358 0.930 . S
C364 C365 1.367 . S
C364 C372 1.378 . S
C365 C364 1.367 . S
C365 C373 1.433 . S
C366 H362 0.929 . S
C366 C368 1.378 . S
C366 C370 1.350 . S
C367 C370 1.463 . S
C367 C372 1.350 . S
C367 N375 1.427 . S
C368 H359 0.930 . S
C368 C366 1.378 . S
C368 C369 1.367 . S
C369 C368 1.367 . S
C369 C371 1.433 . S
C370 C366 1.350 . S
C370 C367 1.463 . S
C370 N374 1.427 . S
C371 H361 0.929 . S
C371 C369 1.433 . S
C371 N374 1.384 . S
C372 H363 0.929 . S
C372 C364 1.378 . S
C372 C367 1.350 . S
C373 H360 0.929 . S
C373 C365 1.433 . S
C373 N375 1.384 . S
N374 C370 1.427 . S
N374 C371 1.384 . S
N375 C367 1.427 . S
N375 C373 1.384 . S
H376 C382 0.930 . S
H377 C386 0.930 . S
H378 C391 0.929 . S
H379 C389 0.929 . S
H380 C384 0.929 . S
H381 C390 0.929 . S
C382 H376 0.930 . S
C382 C383 1.367 . S
C382 C390 1.378 . S
C383 C382 1.367 . S
C383 C391 1.433 . S
C384 H380 0.929 . S
C384 C386 1.378 . S
C384 C388 1.350 . S
C385 C388 1.463 . S
C385 C390 1.350 . S
C385 N393 1.427 . S
C386 H377 0.930 . S
C386 C384 1.378 . S
C386 C387 1.367 . S
C387 C386 1.367 . S
C387 C389 1.433 . S
C388 C384 1.350 . S
C388 C385 1.463 . S
C388 N392 1.427 . S
C389 H379 0.929 . S
C389 C387 1.433 . S
C389 N392 1.384 . S
C390 H381 0.929 . S
C390 C382 1.378 . S
C390 C385 1.350 . S
C391 H378 0.929 . S
C391 C383 1.433 . S
C391 N393 1.384 . S
N392 C388 1.427 . S
N392 C389 1.384 . S
N393 C385 1.427 . S
N393 C391 1.384 . S
H394 C400 0.930 . S
H395 C404 0.930 . S
H396 C409 0.929 . S
H397 C407 0.929 . S
H398 C402 0.929 . S
H399 C408 0.929 . S
C400 H394 0.930 . S
C400 C401 1.367 . S
C400 C408 1.378 . S
C401 C400 1.367 . S
C401 C409 1.433 . S
C402 H398 0.929 . S
C402 C404 1.378 . S
C402 C406 1.350 . S
C403 C406 1.463 . S
C403 C408 1.350 . S
C403 N411 1.427 . S
C404 H395 0.930 . S
C404 C402 1.378 . S
C404 C405 1.367 . S
C405 C404 1.367 . S
C405 C407 1.433 . S
C406 C402 1.350 . S
C406 C403 1.463 . S
C406 N410 1.427 . S
C407 H397 0.929 . S
C407 C405 1.433 . S
C407 N410 1.384 . S
C408 H399 0.929 . S
C408 C400 1.378 . S
C408 C403 1.350 . S
C409 H396 0.929 . S
C409 C401 1.433 . S
C409 N411 1.384 . S
N410 C406 1.427 . S
N410 C407 1.384 . S
N411 C403 1.427 . S
N411 C409 1.384 . S
H412 C418 0.930 . S
H413 C422 0.930 . S
H414 C427 0.929 . S
H415 C425 0.929 . S
H416 C420 0.929 . S
H417 C426 0.929 . S
C418 H412 0.930 . S
C418 C419 1.367 . S
C418 C426 1.378 . S
C419 C418 1.367 . S
C419 C427 1.433 . S
C420 H416 0.929 . S
C420 C422 1.378 . S
C420 C424 1.350 . S
C421 C424 1.463 . S
C421 C426 1.350 . S
C421 N429 1.427 . S
C422 H413 0.930 . S
C422 C420 1.378 . S
C422 C423 1.367 . S
C423 C422 1.367 . S
C423 C425 1.433 . S
C424 C420 1.350 . S
C424 C421 1.463 . S
C424 N428 1.427 . S
C425 H415 0.929 . S
C425 C423 1.433 . S
C425 N428 1.384 . S
C426 H417 0.929 . S
C426 C418 1.378 . S
C426 C421 1.350 . S
C427 H414 0.929 . S
C427 C419 1.433 . S
C427 N429 1.384 . S
N428 C424 1.427 . S
N428 C425 1.384 . S
N429 C421 1.427 . S
N429 C427 1.384 . S
H430 C436 0.930 . S
H431 C440 0.930 . S
H432 C445 0.929 . S
H433 C443 0.929 . S
H434 C438 0.929 . S
H435 C444 0.929 . S
C436 H430 0.930 . S
C436 C437 1.367 . S
C436 C444 1.378 . S
C437 C436 1.367 . S
C437 C445 1.433 . S
C438 H434 0.929 . S
C438 C440 1.378 . S
C438 C442 1.350 . S
C439 C442 1.463 . S
C439 C444 1.350 . S
C439 N447 1.427 . S
C440 H431 0.930 . S
C440 C438 1.378 . S
C440 C441 1.367 . S
C441 C440 1.367 . S
C441 C443 1.433 . S
C442 C438 1.350 . S
C442 C439 1.463 . S
C442 N446 1.427 . S
C443 H433 0.929 . S
C443 C441 1.433 . S
C443 N446 1.384 . S
C444 H435 0.929 . S
C444 C436 1.378 . S
C444 C439 1.350 . S
C445 H432 0.929 . S
C445 C437 1.433 . S
C445 N447 1.384 . S
N446 C442 1.427 . S
N446 C443 1.384 . S
N447 C439 1.427 . S
N447 C445 1.384 . S
H448 C454 0.930 . S
H449 C458 0.930 . S
H450 C463 0.929 . S
H451 C461 0.929 . S
H452 C456 0.929 . S
H453 C462 0.929 . S
C454 H448 0.930 . S
C454 C455 1.367 . S
C454 C462 1.378 . S
C455 C454 1.367 . S
C455 C463 1.433 . S
C456 H452 0.929 . S
C456 C458 1.378 . S
C456 C460 1.350 . S
C457 C460 1.463 . S
C457 C462 1.350 . S
C457 N465 1.427 . S
C458 H449 0.930 . S
C458 C456 1.378 . S
C458 C459 1.367 . S
C459 C458 1.367 . S
C459 C461 1.433 . S
C460 C456 1.350 . S
C460 C457 1.463 . S
C460 N464 1.427 . S
C461 H451 0.929 . S
C461 C459 1.433 . S
C461 N464 1.384 . S
C462 H453 0.929 . S
C462 C454 1.378 . S
C462 C457 1.350 . S
C463 H450 0.929 . S
C463 C455 1.433 . S
C463 N465 1.384 . S
N464 C460 1.427 . S
N464 C461 1.384 . S
N465 C457 1.427 . S
N465 C463 1.384 . S
H466 C472 0.930 . S
H467 C476 0.930 . S
H468 C481 0.929 . S
H469 C479 0.929 . S
H470 C474 0.929 . S
H471 C480 0.929 . S
C472 H466 0.930 . S
C472 C473 1.367 . S
C472 C480 1.378 . S
C473 C472 1.367 . S
C473 C481 1.433 . S
C474 H470 0.929 . S
C474 C476 1.378 . S
C474 C478 1.350 . S
C475 C478 1.463 . S
C475 C480 1.350 . S
C475 N483 1.427 . S
C476 H467 0.930 . S
C476 C474 1.378 . S
C476 C477 1.367 . S
C477 C476 1.367 . S
C477 C479 1.433 . S
C478 C474 1.350 . S
C478 C475 1.463 . S
C478 N482 1.427 . S
C479 H469 0.929 . S
C479 C477 1.433 . S
C479 N482 1.384 . S
C480 H471 0.929 . S
C480 C472 1.378 . S
C480 C475 1.350 . S
C481 H468 0.929 . S
C481 C473 1.433 . S
C481 N483 1.384 . S
N482 C478 1.427 . S
N482 C479 1.384 . S
N483 C475 1.427 . S
N483 C481 1.384 . S
H484 C490 0.930 . S
H485 C494 0.930 . S
H486 C499 0.929 . S
H487 C497 0.929 . S
H488 C492 0.929 . S
H489 C498 0.929 . S
C490 H484 0.930 . S
C490 C491 1.367 . S
C490 C498 1.378 . S
C491 C490 1.367 . S
C491 C499 1.433 . S
C492 H488 0.929 . S
C492 C494 1.378 . S
C492 C496 1.350 . S
C493 C496 1.463 . S
C493 C498 1.350 . S
C493 N501 1.427 . S
C494 H485 0.930 . S
C494 C492 1.378 . S
C494 C495 1.367 . S
C495 C494 1.367 . S
C495 C497 1.433 . S
C496 C492 1.350 . S
C496 C493 1.463 . S
C496 N500 1.427 . S
C497 H487 0.929 . S
C497 C495 1.433 . S
C497 N500 1.384 . S
C498 H489 0.929 . S
C498 C490 1.378 . S
C498 C493 1.350 . S
C499 H486 0.929 . S
C499 C491 1.433 . S
C499 N501 1.384 . S
N500 C496 1.427 . S
N500 C497 1.384 . S
N501 C493 1.427 . S
N501 C499 1.384 . S
H502 C508 0.930 . S
H503 C512 0.930 . S
H504 C517 0.929 . S
H505 C515 0.929 . S
H506 C510 0.929 . S
H507 C516 0.929 . S
C508 H502 0.930 . S
C508 C509 1.367 . S
C508 C516 1.378 . S
C509 C508 1.367 . S
C509 C517 1.433 . S
C510 H506 0.929 . S
C510 C512 1.378 . S
C510 C514 1.350 . S
C511 C514 1.463 . S
C511 C516 1.350 . S
C511 N519 1.427 . S
C512 H503 0.930 . S
C512 C510 1.378 . S
C512 C513 1.367 . S
C513 C512 1.367 . S
C513 C515 1.433 . S
C514 C510 1.350 . S
C514 C511 1.463 . S
C514 N518 1.427 . S
C515 H505 0.929 . S
C515 C513 1.433 . S
C515 N518 1.384 . S
C516 H507 0.929 . S
C516 C508 1.378 . S
C516 C511 1.350 . S
C517 H504 0.929 . S
C517 C509 1.433 . S
C517 N519 1.384 . S
N518 C514 1.427 . S
N518 C515 1.384 . S
N519 C511 1.427 . S
N519 C517 1.384 . S
H520 C526 0.930 . S
H521 C530 0.930 . S
H522 C535 0.929 . S
H523 C533 0.929 . S
H524 C528 0.929 . S
H525 C534 0.929 . S
C526 H520 0.930 . S
C526 C527 1.367 . S
C526 C534 1.378 . S
C527 C526 1.367 . S
C527 C535 1.433 . S
C528 H524 0.929 . S
C528 C530 1.378 . S
C528 C532 1.350 . S
C529 C532 1.463 . S
C529 C534 1.350 . S
C529 N537 1.427 . S
C530 H521 0.930 . S
C530 C528 1.378 . S
C530 C531 1.367 . S
C531 C530 1.367 . S
C531 C533 1.433 . S
C532 C528 1.350 . S
C532 C529 1.463 . S
C532 N536 1.427 . S
C533 H523 0.929 . S
C533 C531 1.433 . S
C533 N536 1.384 . S
C534 H525 0.929 . S
C534 C526 1.378 . S
C534 C529 1.350 . S
C535 H522 0.929 . S
C535 C527 1.433 . S
C535 N537 1.384 . S
N536 C532 1.427 . S
N536 C533 1.384 . S
N537 C529 1.427 . S
N537 C535 1.384 . S
H538 C544 0.930 . S
H539 C548 0.930 . S
H540 C553 0.929 . S
H541 C551 0.929 . S
H542 C546 0.929 . S
H543 C552 0.929 . S
C544 H538 0.930 . S
C544 C545 1.367 . S
C544 C552 1.378 . S
C545 C544 1.367 . S
C545 C553 1.433 . S
C546 H542 0.929 . S
C546 C548 1.378 . S
C546 C550 1.350 . S
C547 C550 1.463 . S
C547 C552 1.350 . S
C547 N555 1.427 . S
C548 H539 0.930 . S
C548 C546 1.378 . S
C548 C549 1.367 . S
C549 C548 1.367 . S
C549 C551 1.433 . S
C550 C546 1.350 . S
C550 C547 1.463 . S
C550 N554 1.427 . S
C551 H541 0.929 . S
C551 C549 1.433 . S
C551 N554 1.384 . S
C552 H543 0.929 . S
C552 C544 1.378 . S
C552 C547 1.350 . S
C553 H540 0.929 . S
C553 C545 1.433 . S
C553 N555 1.384 . S
N554 C550 1.427 . S
N554 C551 1.384 . S
N555 C547 1.427 . S
N555 C553 1.384 . S
H556 C562 0.930 . S
H557 C566 0.930 . S
H558 C571 0.929 . S
H559 C569 0.929 . S
H560 C564 0.929 . S
H561 C570 0.929 . S
C562 H556 0.930 . S
C562 C563 1.367 . S
C562 C570 1.378 . S
C563 C562 1.367 . S
C563 C571 1.433 . S
C564 H560 0.929 . S
C564 C566 1.378 . S
C564 C568 1.350 . S
C565 C568 1.463 . S
C565 C570 1.350 . S
C565 N573 1.427 . S
C566 H557 0.930 . S
C566 C564 1.378 . S
C566 C567 1.367 . S
C567 C566 1.367 . S
C567 C569 1.433 . S
C568 C564 1.350 . S
C568 C565 1.463 . S
C568 N572 1.427 . S
C569 H559 0.929 . S
C569 C567 1.433 . S
C569 N572 1.384 . S
C570 H561 0.929 . S
C570 C562 1.378 . S
C570 C565 1.350 . S
C571 H558 0.929 . S
C571 C563 1.433 . S
C571 N573 1.384 . S
N572 C568 1.427 . S
N572 C569 1.384 . S
N573 C565 1.427 . S
N573 C571 1.384 . S
H574 C580 0.930 . S
H575 C584 0.930 . S
H576 C589 0.929 . S
H577 C587 0.929 . S
H578 C582 0.929 . S
H579 C588 0.929 . S
C580 H574 0.930 . S
C580 C581 1.367 . S
C580 C588 1.378 . S
C581 C580 1.367 . S
C581 C589 1.433 . S
C582 H578 0.929 . S
C582 C584 1.378 . S
C582 C586 1.350 . S
C583 C586 1.463 . S
C583 C588 1.350 . S
C583 N591 1.427 . S
C584 H575 0.930 . S
C584 C582 1.378 . S
C584 C585 1.367 . S
C585 C584 1.367 . S
C585 C587 1.433 . S
C586 C582 1.350 . S
C586 C583 1.463 . S
C586 N590 1.427 . S
C587 H577 0.929 . S
C587 C585 1.433 . S
C587 N590 1.384 . S
C588 H579 0.929 . S
C588 C580 1.378 . S
C588 C583 1.350 . S
C589 H576 0.929 . S
C589 C581 1.433 . S
C589 N591 1.384 . S
N590 C586 1.427 . S
N590 C587 1.384 . S
N591 C583 1.427 . S
N591 C589 1.384 . S
H592 C598 0.930 . S
H593 C602 0.930 . S
H594 C607 0.929 . S
H595 C605 0.929 . S
H596 C600 0.929 . S
H597 C606 0.929 . S
C598 H592 0.930 . S
C598 C599 1.367 . S
C598 C606 1.378 . S
C599 C598 1.367 . S
C599 C607 1.433 . S
C600 H596 0.929 . S
C600 C602 1.378 . S
C600 C604 1.350 . S
C601 C604 1.463 . S
C601 C606 1.350 . S
C601 N609 1.427 . S
C602 H593 0.930 . S
C602 C600 1.378 . S
C602 C603 1.367 . S
C603 C602 1.367 . S
C603 C605 1.433 . S
C604 C600 1.350 . S
C604 C601 1.463 . S
C604 N608 1.427 . S
C605 H595 0.929 . S
C605 C603 1.433 . S
C605 N608 1.384 . S
C606 H597 0.929 . S
C606 C598 1.378 . S
C606 C601 1.350 . S
C607 H594 0.929 . S
C607 C599 1.433 . S
C607 N609 1.384 . S
N608 C604 1.427 . S
N608 C605 1.384 . S
N609 C601 1.427 . S
N609 C607 1.384 . S
H610 C616 0.930 . S
H611 C620 0.930 . S
H612 C625 0.929 . S
H613 C623 0.929 1_554 S
H614 C618 0.929 . S
H615 C624 0.929 . S
C616 H610 0.930 . S
C616 C617 1.367 . S
C616 C624 1.378 . S
C617 C616 1.367 . S
C617 C625 1.433 . S
C618 H614 0.929 . S
C618 C620 1.378 . S
C618 C622 1.350 . S
C619 C622 1.463 . S
C619 C624 1.350 . S
C619 N627 1.427 . S
C620 H611 0.930 . S
C620 C618 1.378 . S
C620 C621 1.367 . S
C621 C620 1.367 . S
C621 C623 1.433 . S
C622 C618 1.350 . S
C622 C619 1.463 . S
C622 N626 1.427 . S
C623 H613 0.929 1_556 S
C623 C621 1.433 . S
C623 N626 1.384 . S
C624 H615 0.929 . S
C624 C616 1.378 . S
C624 C619 1.350 . S
C625 H612 0.929 . S
C625 C617 1.433 . S
C625 N627 1.384 . S
N626 C622 1.427 . S
N626 C623 1.384 . S
N627 C619 1.427 . S
N627 C625 1.384 . S
H628 C634 0.930 . S
H629 C638 0.930 . S
H630 C643 0.929 . S
H631 C641 0.929 . S
H632 C636 0.929 . S
H633 C642 0.929 . S
C634 H628 0.930 . S
C634 C635 1.367 . S
C634 C642 1.378 . S
C635 C634 1.367 . S
C635 C643 1.433 . S
C636 H632 0.929 . S
C636 C638 1.378 . S
C636 C640 1.350 . S
C637 C640 1.463 . S
C637 C642 1.350 . S
C637 N645 1.427 . S
C638 H629 0.930 . S
C638 C636 1.378 . S
C638 C639 1.367 . S
C639 C638 1.367 . S
C639 C641 1.433 . S
C640 C636 1.350 . S
C640 C637 1.463 . S
C640 N644 1.427 . S
C641 H631 0.929 . S
C641 C639 1.433 . S
C641 N644 1.384 . S
C642 H633 0.929 . S
C642 C634 1.378 . S
C642 C637 1.350 . S
C643 H630 0.929 . S
C643 C635 1.433 . S
C643 N645 1.384 . S
N644 C640 1.427 . S
N644 C641 1.384 . S
N645 C637 1.427 . S
N645 C643 1.384 . S
H646 C652 0.930 . S
H647 C656 0.930 . S
H648 C661 0.929 . S
H649 C659 0.929 . S
H650 C654 0.929 . S
H651 C660 0.929 . S
C652 H646 0.930 . S
C652 C653 1.367 . S
C652 C660 1.378 . S
C653 C652 1.367 . S
C653 C661 1.433 . S
C654 H650 0.929 . S
C654 C656 1.378 . S
C654 C658 1.350 . S
C655 C658 1.463 . S
C655 C660 1.350 . S
C655 N663 1.427 . S
C656 H647 0.930 . S
C656 C654 1.378 . S
C656 C657 1.367 . S
C657 C656 1.367 . S
C657 C659 1.433 . S
C658 C654 1.350 . S
C658 C655 1.463 . S
C658 N662 1.427 . S
C659 H649 0.929 . S
C659 C657 1.433 . S
C659 N662 1.384 . S
C660 H651 0.929 . S
C660 C652 1.378 . S
C660 C655 1.350 . S
C661 H648 0.929 . S
C661 C653 1.433 . S
C661 N663 1.384 . S
N662 C658 1.427 . S
N662 C659 1.384 . S
N663 C655 1.427 . S
N663 C661 1.384 . S
H664 C670 0.930 . S
H665 C674 0.930 . S
H666 C679 0.929 . S
H667 C677 0.929 . S
H668 C672 0.929 . S
H669 C678 0.929 . S
C670 H664 0.930 . S
C670 C671 1.367 . S
C670 C678 1.378 . S
C671 C670 1.367 . S
C671 C679 1.433 . S
C672 H668 0.929 . S
C672 C674 1.378 . S
C672 C676 1.350 . S
C673 C676 1.463 . S
C673 C678 1.350 . S
C673 N681 1.427 . S
C674 H665 0.930 . S
C674 C672 1.378 . S
C674 C675 1.367 . S
C675 C674 1.367 . S
C675 C677 1.433 . S
C676 C672 1.350 . S
C676 C673 1.463 . S
C676 N680 1.427 . S
C677 H667 0.929 . S
C677 C675 1.433 . S
C677 N680 1.384 . S
C678 H669 0.929 . S
C678 C670 1.378 . S
C678 C673 1.350 . S
C679 H666 0.929 . S
C679 C671 1.433 . S
C679 N681 1.384 . S
N680 C676 1.427 . S
N680 C677 1.384 . S
N681 C673 1.427 . S
N681 C679 1.384 . S
H682 C688 0.930 . S
H683 C692 0.930 . S
H684 C697 0.929 . S
H685 C695 0.929 . S
H686 C690 0.929 . S
H687 C696 0.929 . S
C688 H682 0.930 . S
C688 C689 1.367 . S
C688 C696 1.378 . S
C689 C688 1.367 . S
C689 C697 1.433 . S
C690 H686 0.929 . S
C690 C692 1.378 . S
C690 C694 1.350 . S
C691 C694 1.463 . S
C691 C696 1.350 . S
C691 N699 1.427 . S
C692 H683 0.930 . S
C692 C690 1.378 . S
C692 C693 1.367 . S
C693 C692 1.367 . S
C693 C695 1.433 . S
C694 C690 1.350 . S
C694 C691 1.463 . S
C694 N698 1.427 . S
C695 H685 0.929 . S
C695 C693 1.433 . S
C695 N698 1.384 . S
C696 H687 0.929 . S
C696 C688 1.378 . S
C696 C691 1.350 . S
C697 H684 0.929 . S
C697 C689 1.433 . S
C697 N699 1.384 . S
N698 C694 1.427 . S
N698 C695 1.384 . S
N699 C691 1.427 . S
N699 C697 1.384 . S
H700 C706 0.930 . S
H701 C710 0.930 . S
H702 C715 0.929 . S
H703 C713 0.929 . S
H704 C708 0.929 . S
H705 C714 0.929 . S
C706 H700 0.930 . S
C706 C707 1.367 . S
C706 C714 1.378 . S
C707 C706 1.367 . S
C707 C715 1.433 . S
C708 H704 0.929 . S
C708 C710 1.378 . S
C708 C712 1.350 . S
C709 C712 1.463 . S
C709 C714 1.350 . S
C709 N717 1.427 . S
C710 H701 0.930 . S
C710 C708 1.378 . S
C710 C711 1.367 . S
C711 C710 1.367 . S
C711 C713 1.433 . S
C712 C708 1.350 . S
C712 C709 1.463 . S
C712 N716 1.427 . S
C713 H703 0.929 . S
C713 C711 1.433 . S
C713 N716 1.384 . S
C714 H705 0.929 . S
C714 C706 1.378 . S
C714 C709 1.350 . S
C715 H702 0.929 . S
C715 C707 1.433 . S
C715 N717 1.384 . S
N716 C712 1.427 . S
N716 C713 1.384 . S
N717 C709 1.427 . S
N717 C715 1.384 . S
H718 C724 0.930 . S
H719 C728 0.930 . S
H720 C733 0.929 . S
H721 C731 0.929 . S
H722 C726 0.929 . S
H723 C732 0.929 . S
C724 H718 0.930 . S
C724 C725 1.367 . S
C724 C732 1.378 . S
C725 C724 1.367 . S
C725 C733 1.433 . S
C726 H722 0.929 . S
C726 C728 1.378 . S
C726 C730 1.350 . S
C727 C730 1.463 . S
C727 C732 1.350 . S
C727 N735 1.427 . S
C728 H719 0.930 . S
C728 C726 1.378 . S
C728 C729 1.367 . S
C729 C728 1.367 . S
C729 C731 1.433 . S
C730 C726 1.350 . S
C730 C727 1.463 . S
C730 N734 1.427 . S
C731 H721 0.929 . S
C731 C729 1.433 . S
C731 N734 1.384 . S
C732 H723 0.929 . S
C732 C724 1.378 . S
C732 C727 1.350 . S
C733 H720 0.929 . S
C733 C725 1.433 . S
C733 N735 1.384 . S
N734 C730 1.427 . S
N734 C731 1.384 . S
N735 C727 1.427 . S
N735 C733 1.384 . S
H736 C742 0.930 . S
H737 C746 0.930 . S
H738 C751 0.929 . S
H739 C749 0.929 . S
H740 C744 0.929 . S
H741 C750 0.929 . S
C742 H736 0.930 . S
C742 C743 1.367 . S
C742 C750 1.378 . S
C743 C742 1.367 . S
C743 C751 1.433 . S
C744 H740 0.929 . S
C744 C746 1.378 . S
C744 C748 1.350 . S
C745 C748 1.463 . S
C745 C750 1.350 . S
C745 N753 1.427 . S
C746 H737 0.930 . S
C746 C744 1.378 . S
C746 C747 1.367 . S
C747 C746 1.367 . S
C747 C749 1.433 . S
C748 C744 1.350 . S
C748 C745 1.463 . S
C748 N752 1.427 . S
C749 H739 0.929 . S
C749 C747 1.433 . S
C749 N752 1.384 . S
C750 H741 0.929 . S
C750 C742 1.378 . S
C750 C745 1.350 . S
C751 H738 0.929 . S
C751 C743 1.433 . S
C751 N753 1.384 . S
N752 C748 1.427 . S
N752 C749 1.384 . S
N753 C745 1.427 . S
N753 C751 1.384 . S
H754 C760 0.930 . S
H755 C764 0.930 . S
H756 C769 0.929 . S
H757 C767 0.929 . S
H758 C762 0.929 . S
H759 C768 0.929 . S
C760 H754 0.930 . S
C760 C761 1.367 . S
C760 C768 1.378 . S
C761 C760 1.367 . S
C761 C769 1.433 . S
C762 H758 0.929 . S
C762 C764 1.378 . S
C762 C766 1.350 . S
C763 C766 1.463 . S
C763 C768 1.350 . S
C763 N771 1.427 . S
C764 H755 0.930 . S
C764 C762 1.378 . S
C764 C765 1.367 . S
C765 C764 1.367 . S
C765 C767 1.433 . S
C766 C762 1.350 . S
C766 C763 1.463 . S
C766 N770 1.427 . S
C767 H757 0.929 . S
C767 C765 1.433 . S
C767 N770 1.384 . S
C768 H759 0.929 . S
C768 C760 1.378 . S
C768 C763 1.350 . S
C769 H756 0.929 . S
C769 C761 1.433 . S
C769 N771 1.384 . S
N770 C766 1.427 . S
N770 C767 1.384 . S
N771 C763 1.427 . S
N771 C769 1.384 . S
H772 C778 0.930 . S
H773 C782 0.930 . S
H774 C787 0.929 . S
H775 C785 0.929 . S
H776 C780 0.929 . S
H777 C786 0.929 . S
C778 H772 0.930 . S
C778 C779 1.367 . S
C778 C786 1.378 . S
C779 C778 1.367 . S
C779 C787 1.433 . S
C780 H776 0.929 . S
C780 C782 1.378 . S
C780 C784 1.350 . S
C781 C784 1.463 . S
C781 C786 1.350 . S
C781 N789 1.427 . S
C782 H773 0.930 . S
C782 C780 1.378 . S
C782 C783 1.367 . S
C783 C782 1.367 . S
C783 C785 1.433 . S
C784 C780 1.350 . S
C784 C781 1.463 . S
C784 N788 1.427 . S
C785 H775 0.929 . S
C785 C783 1.433 . S
C785 N788 1.384 . S
C786 H777 0.929 . S
C786 C778 1.378 . S
C786 C781 1.350 . S
C787 H774 0.929 . S
C787 C779 1.433 . S
C787 N789 1.384 . S
N788 C784 1.427 . S
N788 C785 1.384 . S
N789 C781 1.427 . S
N789 C787 1.384 . S
H790 C796 0.930 . S
H791 C800 0.930 . S
H792 C805 0.929 . S
H793 C803 0.929 . S
H794 C798 0.929 . S
H795 C804 0.929 . S
C796 H790 0.930 . S
C796 C797 1.367 . S
C796 C804 1.378 . S
C797 C796 1.367 . S
C797 C805 1.433 . S
C798 H794 0.929 . S
C798 C800 1.378 . S
C798 C802 1.350 . S
C799 C802 1.463 . S
C799 C804 1.350 . S
C799 N807 1.427 . S
C800 H791 0.930 . S
C800 C798 1.378 . S
C800 C801 1.367 . S
C801 C800 1.367 . S
C801 C803 1.433 . S
C802 C798 1.350 . S
C802 C799 1.463 . S
C802 N806 1.427 . S
C803 H793 0.929 . S
C803 C801 1.433 . S
C803 N806 1.384 . S
C804 H795 0.929 . S
C804 C796 1.378 . S
C804 C799 1.350 . S
C805 H792 0.929 . S
C805 C797 1.433 . S
C805 N807 1.384 . S
N806 C802 1.427 . S
N806 C803 1.384 . S
N807 C799 1.427 . S
N807 C805 1.384 . S
H808 C814 0.930 . S
H809 C818 0.930 . S
H810 C823 0.929 . S
H811 C821 0.929 . S
H812 C816 0.929 . S
H813 C822 0.929 . S
C814 H808 0.930 . S
C814 C815 1.367 . S
C814 C822 1.378 . S
C815 C814 1.367 . S
C815 C823 1.433 . S
C816 H812 0.929 . S
C816 C818 1.378 . S
C816 C820 1.350 . S
C817 C820 1.463 . S
C817 C822 1.350 . S
C817 N825 1.427 . S
C818 H809 0.930 . S
C818 C816 1.378 . S
C818 C819 1.367 . S
C819 C818 1.367 . S
C819 C821 1.433 . S
C820 C816 1.350 . S
C820 C817 1.463 . S
C820 N824 1.427 . S
C821 H811 0.929 . S
C821 C819 1.433 . S
C821 N824 1.384 . S
C822 H813 0.929 . S
C822 C814 1.378 . S
C822 C817 1.350 . S
C823 H810 0.929 . S
C823 C815 1.433 . S
C823 N825 1.384 . S
N824 C820 1.427 . S
N824 C821 1.384 . S
N825 C817 1.427 . S
N825 C823 1.384 . S
H826 C832 0.930 . S
H827 C836 0.930 . S
H828 C841 0.929 . S
H829 C839 0.929 . S
H830 C834 0.929 . S
H831 C840 0.929 . S
C832 H826 0.930 . S
C832 C833 1.367 . S
C832 C840 1.378 . S
C833 C832 1.367 . S
C833 C841 1.433 . S
C834 H830 0.929 . S
C834 C836 1.378 . S
C834 C838 1.350 . S
C835 C838 1.463 . S
C835 C840 1.350 . S
C835 N843 1.427 . S
C836 H827 0.930 . S
C836 C834 1.378 . S
C836 C837 1.367 . S
C837 C836 1.367 . S
C837 C839 1.433 . S
C838 C834 1.350 . S
C838 C835 1.463 . S
C838 N842 1.427 . S
C839 H829 0.929 . S
C839 C837 1.433 . S
C839 N842 1.384 . S
C840 H831 0.929 . S
C840 C832 1.378 . S
C840 C835 1.350 . S
C841 H828 0.929 . S
C841 C833 1.433 . S
C841 N843 1.384 . S
N842 C838 1.427 . S
N842 C839 1.384 . S
N843 C835 1.427 . S
N843 C841 1.384 . S
H844 C850 0.930 . S
H845 C854 0.930 . S
H846 C859 0.929 . S
H847 C857 0.929 . S
H848 C852 0.929 . S
H849 C858 0.929 . S
C850 H844 0.930 . S
C850 C851 1.367 . S
C850 C858 1.378 . S
C851 C850 1.367 . S
C851 C859 1.433 . S
C852 H848 0.929 . S
C852 C854 1.378 . S
C852 C856 1.350 . S
C853 C856 1.463 . S
C853 C858 1.350 . S
C853 N861 1.427 . S
C854 H845 0.930 . S
C854 C852 1.378 . S
C854 C855 1.367 . S
C855 C854 1.367 . S
C855 C857 1.433 . S
C856 C852 1.350 . S
C856 C853 1.463 . S
C856 N860 1.427 . S
C857 H847 0.929 . S
C857 C855 1.433 . S
C857 N860 1.384 . S
C858 H849 0.929 . S
C858 C850 1.378 . S
C858 C853 1.350 . S
C859 H846 0.929 . S
C859 C851 1.433 . S
C859 N861 1.384 . S
N860 C856 1.427 . S
N860 C857 1.384 . S
N861 C853 1.427 . S
N861 C859 1.384 . S
H862 C868 0.930 . S
H863 C872 0.930 . S
H864 C877 0.929 . S
H865 C875 0.929 . S
H866 C870 0.929 . S
H867 C876 0.929 . S
C868 H862 0.930 . S
C868 C869 1.367 . S
C868 C876 1.378 . S
C869 C868 1.367 . S
C869 C877 1.433 . S
C870 H866 0.929 . S
C870 C872 1.378 . S
C870 C874 1.350 . S
C871 C874 1.463 . S
C871 C876 1.350 . S
C871 N879 1.427 . S
C872 H863 0.930 . S
C872 C870 1.378 . S
C872 C873 1.367 . S
C873 C872 1.367 . S
C873 C875 1.433 . S
C874 C870 1.350 . S
C874 C871 1.463 . S
C874 N878 1.427 . S
C875 H865 0.929 . S
C875 C873 1.433 . S
C875 N878 1.384 . S
C876 H867 0.929 . S
C876 C868 1.378 . S
C876 C871 1.350 . S
C877 H864 0.929 . S
C877 C869 1.433 . S
C877 N879 1.384 . S
N878 C874 1.427 . S
N878 C875 1.384 . S
N879 C871 1.427 . S
N879 C877 1.384 . S
H880 C886 0.930 . S
H881 C890 0.930 . S
H882 C895 0.929 . S
H883 C893 0.929 . S
H884 C888 0.929 . S
H885 C894 0.929 . S
C886 H880 0.930 . S
C886 C887 1.367 . S
C886 C894 1.378 . S
C887 C886 1.367 . S
C887 C895 1.433 . S
C888 H884 0.929 . S
C888 C890 1.378 . S
C888 C892 1.350 . S
C889 C892 1.463 . S
C889 C894 1.350 . S
C889 N897 1.427 . S
C890 H881 0.930 . S
C890 C888 1.378 . S
C890 C891 1.367 . S
C891 C890 1.367 . S
C891 C893 1.433 . S
C892 C888 1.350 . S
C892 C889 1.463 . S
C892 N896 1.427 . S
C893 H883 0.929 . S
C893 C891 1.433 . S
C893 N896 1.384 . S
C894 H885 0.929 . S
C894 C886 1.378 . S
C894 C889 1.350 . S
C895 H882 0.929 . S
C895 C887 1.433 . S
C895 N897 1.384 . S
N896 C892 1.427 . S
N896 C893 1.384 . S
N897 C889 1.427 . S
N897 C895 1.384 . S
H898 C904 0.930 . S
H899 C908 0.930 . S
H900 C913 0.929 . S
H901 C911 0.929 . S
H902 C906 0.929 . S
H903 C912 0.929 . S
C904 H898 0.930 . S
C904 C905 1.367 . S
C904 C912 1.378 . S
C905 C904 1.367 . S
C905 C913 1.433 . S
C906 H902 0.929 . S
C906 C908 1.378 . S
C906 C910 1.350 . S
C907 C910 1.463 . S
C907 C912 1.350 . S
C907 N915 1.427 . S
C908 H899 0.930 . S
C908 C906 1.378 . S
C908 C909 1.367 . S
C909 C908 1.367 . S
C909 C911 1.433 . S
C910 C906 1.350 . S
C910 C907 1.463 . S
C910 N914 1.427 . S
C911 H901 0.929 . S
C911 C909 1.433 . S
C911 N914 1.384 . S
C912 H903 0.929 . S
C912 C904 1.378 . S
C912 C907 1.350 . S
C913 H900 0.929 . S
C913 C905 1.433 . S
C913 N915 1.384 . S
N914 C910 1.427 . S
N914 C911 1.384 . S
N915 C907 1.427 . S
N915 C913 1.384 . S
H916 C922 0.930 . S
H917 C926 0.930 . S
H918 C931 0.929 . S
H919 C929 0.929 . S
H920 C924 0.929 . S
H921 C930 0.929 . S
C922 H916 0.930 . S
C922 C923 1.367 . S
C922 C930 1.378 . S
C923 C922 1.367 . S
C923 C931 1.433 . S
C924 H920 0.929 . S
C924 C926 1.378 . S
C924 C928 1.350 . S
C925 C928 1.463 . S
C925 C930 1.350 . S
C925 N933 1.427 . S
C926 H917 0.930 . S
C926 C924 1.378 . S
C926 C927 1.367 . S
C927 C926 1.367 . S
C927 C929 1.433 . S
C928 C924 1.350 . S
C928 C925 1.463 . S
C928 N932 1.427 . S
C929 H919 0.929 . S
C929 C927 1.433 . S
C929 N932 1.384 . S
C930 H921 0.929 . S
C930 C922 1.378 . S
C930 C925 1.350 . S
C931 H918 0.929 . S
C931 C923 1.433 . S
C931 N933 1.384 . S
N932 C928 1.427 . S
N932 C929 1.384 . S
N933 C925 1.427 . S
N933 C931 1.384 . S
H934 C940 0.930 . S
H935 C944 0.930 . S
H936 C949 0.929 . S
H937 C947 0.929 . S
H938 C942 0.929 . S
H939 C948 0.929 . S
C940 H934 0.930 . S
C940 C941 1.367 . S
C940 C948 1.378 . S
C941 C940 1.367 . S
C941 C949 1.433 . S
C942 H938 0.929 . S
C942 C944 1.378 . S
C942 C946 1.350 . S
C943 C946 1.463 . S
C943 C948 1.350 . S
C943 N951 1.427 . S
C944 H935 0.930 . S
C944 C942 1.378 . S
C944 C945 1.367 . S
C945 C944 1.367 . S
C945 C947 1.433 . S
C946 C942 1.350 . S
C946 C943 1.463 . S
C946 N950 1.427 . S
C947 H937 0.929 . S
C947 C945 1.433 . S
C947 N950 1.384 . S
C948 H939 0.929 . S
C948 C940 1.378 . S
C948 C943 1.350 . S
C949 H936 0.929 . S
C949 C941 1.433 . S
C949 N951 1.384 . S
N950 C946 1.427 . S
N950 C947 1.384 . S
N951 C943 1.427 . S
N951 C949 1.384 . S
H952 C958 0.930 . S
H953 C962 0.930 . S
H954 C967 0.929 . S
H955 C965 0.929 . S
H956 C960 0.929 . S
H957 C966 0.929 . S
C958 H952 0.930 . S
C958 C959 1.367 . S
C958 C966 1.378 . S
C959 C958 1.367 . S
C959 C967 1.433 . S
C960 H956 0.929 . S
C960 C962 1.378 . S
C960 C964 1.350 . S
C961 C964 1.463 . S
C961 C966 1.350 . S
C961 N969 1.427 . S
C962 H953 0.930 . S
C962 C960 1.378 . S
C962 C963 1.367 . S
C963 C962 1.367 . S
C963 C965 1.433 . S
C964 C960 1.350 . S
C964 C961 1.463 . S
C964 N968 1.427 . S
C965 H955 0.929 . S
C965 C963 1.433 . S
C965 N968 1.384 . S
C966 H957 0.929 . S
C966 C958 1.378 . S
C966 C961 1.350 . S
C967 H954 0.929 . S
C967 C959 1.433 . S
C967 N969 1.384 . S
N968 C964 1.427 . S
N968 C965 1.384 . S
N969 C961 1.427 . S
N969 C967 1.384 . S
H970 C976 0.930 . S
H971 C980 0.930 . S
H972 C985 0.929 . S
H973 C983 0.929 . S
H974 C978 0.929 . S
H975 C984 0.929 . S
C976 H970 0.930 . S
C976 C977 1.367 . S
C976 C984 1.378 . S
C977 C976 1.367 . S
C977 C985 1.433 . S
C978 H974 0.929 . S
C978 C980 1.378 . S
C978 C982 1.350 . S
C979 C982 1.463 . S
C979 C984 1.350 . S
C979 N987 1.427 . S
C980 H971 0.930 . S
C980 C978 1.378 . S
C980 C981 1.367 . S
C981 C980 1.367 . S
C981 C983 1.433 . S
C982 C978 1.350 . S
C982 C979 1.463 . S
C982 N986 1.427 . S
C983 H973 0.929 . S
C983 C981 1.433 . S
C983 N986 1.384 . S
C984 H975 0.929 . S
C984 C976 1.378 . S
C984 C979 1.350 . S
C985 H972 0.929 . S
C985 C977 1.433 . S
C985 N987 1.384 . S
N986 C982 1.427 . S
N986 C983 1.384 . S
N987 C979 1.427 . S
N987 C985 1.384 . S
H988 C994 0.930 . S
H989 C998 0.930 . S
H990 C1003 0.929 . S
H991 C1001 0.929 . S
H992 C996 0.929 . S
H993 C1002 0.929 . S
C994 H988 0.930 . S
C994 C995 1.367 . S
C994 C1002 1.378 . S
C995 C994 1.367 . S
C995 C1003 1.433 . S
C996 H992 0.929 . S
C996 C998 1.378 . S
C996 C1000 1.350 . S
C997 C1000 1.463 . S
C997 C1002 1.350 . S
C997 N1005 1.427 . S
C998 H989 0.930 . S
C998 C996 1.378 . S
C998 C999 1.367 . S
C999 C998 1.367 . S
C999 C1001 1.433 . S
C1000 C996 1.350 . S
C1000 C997 1.463 . S
C1000 N1004 1.427 . S
C1001 H991 0.929 . S
C1001 C999 1.433 . S
C1001 N1004 1.384 . S
C1002 H993 0.929 . S
C1002 C994 1.378 . S
C1002 C997 1.350 . S
C1003 H990 0.929 . S
C1003 C995 1.433 . S
C1003 N1005 1.384 . S
N1004 C1000 1.427 . S
N1004 C1001 1.384 . S
N1005 C997 1.427 . S
N1005 C1003 1.384 . S
H1006 C1012 0.930 . S
H1007 C1016 0.930 . S
H1008 C1021 0.929 . S
H1009 C1019 0.929 . S
H1010 C1014 0.929 . S
H1011 C1020 0.929 . S
C1012 H1006 0.930 . S
C1012 C1013 1.367 . S
C1012 C1020 1.378 . S
C1013 C1012 1.367 . S
C1013 C1021 1.433 . S
C1014 H1010 0.929 . S
C1014 C1016 1.378 . S
C1014 C1018 1.350 . S
C1015 C1018 1.463 . S
C1015 C1020 1.350 . S
C1015 N1023 1.427 . S
C1016 H1007 0.930 . S
C1016 C1014 1.378 . S
C1016 C1017 1.367 . S
C1017 C1016 1.367 . S
C1017 C1019 1.433 . S
C1018 C1014 1.350 . S
C1018 C1015 1.463 . S
C1018 N1022 1.427 . S
C1019 H1009 0.929 . S
C1019 C1017 1.433 . S
C1019 N1022 1.384 . S
C1020 H1011 0.929 . S
C1020 C1012 1.378 . S
C1020 C1015 1.350 . S
C1021 H1008 0.929 . S
C1021 C1013 1.433 . S
C1021 N1023 1.384 . S
N1022 C1018 1.427 . S
N1022 C1019 1.384 . S
N1023 C1015 1.427 . S
N1023 C1021 1.384 . S
H1024 C1030 0.930 . S
H1025 C1034 0.930 . S
H1026 C1039 0.929 . S
H1027 C1037 0.929 . S
H1028 C1032 0.929 . S
H1029 C1038 0.929 . S
C1030 H1024 0.930 . S
C1030 C1031 1.367 . S
C1030 C1038 1.378 . S
C1031 C1030 1.367 . S
C1031 C1039 1.433 . S
C1032 H1028 0.929 . S
C1032 C1034 1.378 . S
C1032 C1036 1.350 . S
C1033 C1036 1.463 . S
C1033 C1038 1.350 . S
C1033 N1041 1.427 . S
C1034 H1025 0.930 . S
C1034 C1032 1.378 . S
C1034 C1035 1.367 . S
C1035 C1034 1.367 . S
C1035 C1037 1.433 . S
C1036 C1032 1.350 . S
C1036 C1033 1.463 . S
C1036 N1040 1.427 . S
C1037 H1027 0.929 . S
C1037 C1035 1.433 . S
C1037 N1040 1.384 . S
C1038 H1029 0.929 . S
C1038 C1030 1.378 . S
C1038 C1033 1.350 . S
C1039 H1026 0.929 . S
C1039 C1031 1.433 . S
C1039 N1041 1.384 . S
N1040 C1036 1.427 . S
N1040 C1037 1.384 . S
N1041 C1033 1.427 . S
N1041 C1039 1.384 . S
H1042 C1048 0.930 . S
H1043 C1052 0.930 . S
H1044 C1057 0.929 . S
H1045 C1055 0.929 . S
H1046 C1050 0.929 . S
H1047 C1056 0.929 . S
C1048 H1042 0.930 . S
C1048 C1049 1.367 . S
C1048 C1056 1.378 . S
C1049 C1048 1.367 . S
C1049 C1057 1.433 . S
C1050 H1046 0.929 . S
C1050 C1052 1.378 . S
C1050 C1054 1.350 . S
C1051 C1054 1.463 . S
C1051 C1056 1.350 . S
C1051 N1059 1.427 . S
C1052 H1043 0.930 . S
C1052 C1050 1.378 . S
C1052 C1053 1.367 . S
C1053 C1052 1.367 . S
C1053 C1055 1.433 . S
C1054 C1050 1.350 . S
C1054 C1051 1.463 . S
C1054 N1058 1.427 . S
C1055 H1045 0.929 . S
C1055 C1053 1.433 . S
C1055 N1058 1.384 . S
C1056 H1047 0.929 . S
C1056 C1048 1.378 . S
C1056 C1051 1.350 . S
C1057 H1044 0.929 . S
C1057 C1049 1.433 . S
C1057 N1059 1.384 . S
N1058 C1054 1.427 . S
N1058 C1055 1.384 . S
N1059 C1051 1.427 . S
N1059 C1057 1.384 . S
H1060 C1066 0.930 . S
H1061 C1070 0.930 . S
H1062 C1075 0.929 . S
H1063 C1073 0.929 . S
H1064 C1068 0.929 . S
H1065 C1074 0.929 . S
C1066 H1060 0.930 . S
C1066 C1067 1.367 . S
C1066 C1074 1.378 . S
C1067 C1066 1.367 . S
C1067 C1075 1.433 . S
C1068 H1064 0.929 . S
C1068 C1070 1.378 . S
C1068 C1072 1.350 . S
C1069 C1072 1.463 . S
C1069 C1074 1.350 . S
C1069 N1077 1.427 . S
C1070 H1061 0.930 . S
C1070 C1068 1.378 . S
C1070 C1071 1.367 . S
C1071 C1070 1.367 . S
C1071 C1073 1.433 . S
C1072 C1068 1.350 . S
C1072 C1069 1.463 . S
C1072 N1076 1.427 . S
C1073 H1063 0.929 . S
C1073 C1071 1.433 . S
C1073 N1076 1.384 . S
C1074 H1065 0.929 . S
C1074 C1066 1.378 . S
C1074 C1069 1.350 . S
C1075 H1062 0.929 . S
C1075 C1067 1.433 . S
C1075 N1077 1.384 . S
N1076 C1072 1.427 . S
N1076 C1073 1.384 . S
N1077 C1069 1.427 . S
N1077 C1075 1.384 . S
H1078 C1084 0.930 . S
H1079 C1088 0.930 . S
H1080 C1093 0.929 . S
H1081 C1091 0.929 . S
H1082 C1086 0.929 . S
H1083 C1092 0.929 . S
C1084 H1078 0.930 . S
C1084 C1085 1.367 . S
C1084 C1092 1.378 . S
C1085 C1084 1.367 . S
C1085 C1093 1.433 . S
C1086 H1082 0.929 . S
C1086 C1088 1.378 . S
C1086 C1090 1.350 . S
C1087 C1090 1.463 . S
C1087 C1092 1.350 . S
C1087 N1095 1.427 . S
C1088 H1079 0.930 . S
C1088 C1086 1.378 . S
C1088 C1089 1.367 . S
C1089 C1088 1.367 . S
C1089 C1091 1.433 . S
C1090 C1086 1.350 . S
C1090 C1087 1.463 . S
C1090 N1094 1.427 . S
C1091 H1081 0.929 . S
C1091 C1089 1.433 . S
C1091 N1094 1.384 . S
C1092 H1083 0.929 . S
C1092 C1084 1.378 . S
C1092 C1087 1.350 . S
C1093 H1080 0.929 . S
C1093 C1085 1.433 . S
C1093 N1095 1.384 . S
N1094 C1090 1.427 . S
N1094 C1091 1.384 . S
N1095 C1087 1.427 . S
N1095 C1093 1.384 . S
H1096 C1102 0.930 . S
H1097 C1106 0.930 . S
H1098 C1111 0.929 . S
H1099 C1109 0.929 . S
H1100 C1104 0.929 . S
H1101 C1110 0.929 . S
C1102 H1096 0.930 . S
C1102 C1103 1.367 . S
C1102 C1110 1.378 . S
C1103 C1102 1.367 . S
C1103 C1111 1.433 . S
C1104 H1100 0.929 . S
C1104 C1106 1.378 . S
C1104 C1108 1.350 . S
C1105 C1108 1.463 . S
C1105 C1110 1.350 . S
C1105 N1113 1.427 . S
C1106 H1097 0.930 . S
C1106 C1104 1.378 . S
C1106 C1107 1.367 . S
C1107 C1106 1.367 . S
C1107 C1109 1.433 . S
C1108 C1104 1.350 . S
C1108 C1105 1.463 . S
C1108 N1112 1.427 . S
C1109 H1099 0.929 . S
C1109 C1107 1.433 . S
C1109 N1112 1.384 . S
C1110 H1101 0.929 . S
C1110 C1102 1.378 . S
C1110 C1105 1.350 . S
C1111 H1098 0.929 . S
C1111 C1103 1.433 . S
C1111 N1113 1.384 . S
N1112 C1108 1.427 . S
N1112 C1109 1.384 . S
N1113 C1105 1.427 . S
N1113 C1111 1.384 . S
H1114 C1120 0.930 . S
H1115 C1124 0.930 . S
H1116 C1129 0.929 . S
H1117 C1127 0.929 . S
H1118 C1122 0.929 . S
H1119 C1128 0.929 . S
C1120 H1114 0.930 . S
C1120 C1121 1.367 . S
C1120 C1128 1.378 . S
C1121 C1120 1.367 . S
C1121 C1129 1.433 . S
C1122 H1118 0.929 . S
C1122 C1124 1.378 . S
C1122 C1126 1.350 . S
C1123 C1126 1.463 . S
C1123 C1128 1.350 . S
C1123 N1131 1.427 . S
C1124 H1115 0.930 . S
C1124 C1122 1.378 . S
C1124 C1125 1.367 . S
C1125 C1124 1.367 . S
C1125 C1127 1.433 . S
C1126 C1122 1.350 . S
C1126 C1123 1.463 . S
C1126 N1130 1.427 . S
C1127 H1117 0.929 . S
C1127 C1125 1.433 . S
C1127 N1130 1.384 . S
C1128 H1119 0.929 . S
C1128 C1120 1.378 . S
C1128 C1123 1.350 . S
C1129 H1116 0.929 . S
C1129 C1121 1.433 . S
C1129 N1131 1.384 . S
N1130 C1126 1.427 . S
N1130 C1127 1.384 . S
N1131 C1123 1.427 . S
N1131 C1129 1.384 . S
H1132 C1138 0.930 . S
H1133 C1142 0.930 . S
H1134 C1147 0.929 . S
H1135 C1145 0.929 . S
H1136 C1140 0.929 . S
H1137 C1146 0.929 . S
C1138 H1132 0.930 . S
C1138 C1139 1.367 . S
C1138 C1146 1.378 . S
C1139 C1138 1.367 . S
C1139 C1147 1.433 . S
C1140 H1136 0.929 . S
C1140 C1142 1.378 . S
C1140 C1144 1.350 . S
C1141 C1144 1.463 . S
C1141 C1146 1.350 . S
C1141 N1149 1.427 . S
C1142 H1133 0.930 . S
C1142 C1140 1.378 . S
C1142 C1143 1.367 . S
C1143 C1142 1.367 . S
C1143 C1145 1.433 . S
C1144 C1140 1.350 . S
C1144 C1141 1.463 . S
C1144 N1148 1.427 . S
C1145 H1135 0.929 . S
C1145 C1143 1.433 . S
C1145 N1148 1.384 . S
C1146 H1137 0.929 . S
C1146 C1138 1.378 . S
C1146 C1141 1.350 . S
C1147 H1134 0.929 . S
C1147 C1139 1.433 . S
C1147 N1149 1.384 . S
N1148 C1144 1.427 . S
N1148 C1145 1.384 . S
N1149 C1141 1.427 . S
N1149 C1147 1.384 . S
H1150 C1156 0.930 . S
H1151 C1160 0.930 . S
H1152 C1165 0.929 . S
H1153 C1163 0.929 . S
H1154 C1158 0.929 . S
H1155 C1164 0.929 . S
C1156 H1150 0.930 . S
C1156 C1157 1.367 . S
C1156 C1164 1.378 . S
C1157 C1156 1.367 . S
C1157 C1165 1.433 . S
C1158 H1154 0.929 . S
C1158 C1160 1.378 . S
C1158 C1162 1.350 . S
C1159 C1162 1.463 . S
C1159 C1164 1.350 . S
C1159 N1167 1.427 . S
C1160 H1151 0.930 . S
C1160 C1158 1.378 . S
C1160 C1161 1.367 . S
C1161 C1160 1.367 . S
C1161 C1163 1.433 . S
C1162 C1158 1.350 . S
C1162 C1159 1.463 . S
C1162 N1166 1.427 . S
C1163 H1153 0.929 . S
C1163 C1161 1.433 . S
C1163 N1166 1.384 . S
C1164 H1155 0.929 . S
C1164 C1156 1.378 . S
C1164 C1159 1.350 . S
C1165 H1152 0.929 . S
C1165 C1157 1.433 . S
C1165 N1167 1.384 . S
N1166 C1162 1.427 . S
N1166 C1163 1.384 . S
N1167 C1159 1.427 . S
N1167 C1165 1.384 . S
H1168 C1174 0.930 . S
H1169 C1178 0.930 . S
H1170 C1183 0.929 . S
H1171 C1181 0.929 . S
H1172 C1176 0.929 . S
H1173 C1182 0.929 . S
C1174 H1168 0.930 . S
C1174 C1175 1.367 . S
C1174 C1182 1.378 . S
C1175 C1174 1.367 . S
C1175 C1183 1.433 . S
C1176 H1172 0.929 . S
C1176 C1178 1.378 . S
C1176 C1180 1.350 . S
C1177 C1180 1.463 . S
C1177 C1182 1.350 . S
C1177 N1185 1.427 . S
C1178 H1169 0.930 . S
C1178 C1176 1.378 . S
C1178 C1179 1.367 . S
C1179 C1178 1.367 . S
C1179 C1181 1.433 . S
C1180 C1176 1.350 . S
C1180 C1177 1.463 . S
C1180 N1184 1.427 . S
C1181 H1171 0.929 . S
C1181 C1179 1.433 . S
C1181 N1184 1.384 . S
C1182 H1173 0.929 . S
C1182 C1174 1.378 . S
C1182 C1177 1.350 . S
C1183 H1170 0.929 . S
C1183 C1175 1.433 . S
C1183 N1185 1.384 . S
N1184 C1180 1.427 . S
N1184 C1181 1.384 . S
N1185 C1177 1.427 . S
N1185 C1183 1.384 . S
H1186 C1192 0.930 . S
H1187 C1196 0.930 . S
H1188 C1201 0.929 . S
H1189 C1199 0.929 . S
H1190 C1194 0.929 . S
H1191 C1200 0.929 . S
C1192 H1186 0.930 . S
C1192 C1193 1.367 . S
C1192 C1200 1.378 . S
C1193 C1192 1.367 . S
C1193 C1201 1.433 . S
C1194 H1190 0.929 . S
C1194 C1196 1.378 . S
C1194 C1198 1.350 . S
C1195 C1198 1.463 . S
C1195 C1200 1.350 . S
C1195 N1203 1.427 . S
C1196 H1187 0.930 . S
C1196 C1194 1.378 . S
C1196 C1197 1.367 . S
C1197 C1196 1.367 . S
C1197 C1199 1.433 . S
C1198 C1194 1.350 . S
C1198 C1195 1.463 . S
C1198 N1202 1.427 . S
C1199 H1189 0.929 . S
C1199 C1197 1.433 . S
C1199 N1202 1.384 . S
C1200 H1191 0.929 . S
C1200 C1192 1.378 . S
C1200 C1195 1.350 . S
C1201 H1188 0.929 . S
C1201 C1193 1.433 . S
C1201 N1203 1.384 . S
N1202 C1198 1.427 . S
N1202 C1199 1.384 . S
N1203 C1195 1.427 . S
N1203 C1201 1.384 . S
H1204 C1210 0.930 . S
H1205 C1214 0.930 . S
H1206 C1219 0.929 . S
H1207 C1217 0.929 . S
H1208 C1212 0.929 . S
H1209 C1218 0.929 . S
C1210 H1204 0.930 . S
C1210 C1211 1.367 . S
C1210 C1218 1.378 . S
C1211 C1210 1.367 . S
C1211 C1219 1.433 . S
C1212 H1208 0.929 . S
C1212 C1214 1.378 . S
C1212 C1216 1.350 . S
C1213 C1216 1.463 . S
C1213 C1218 1.350 . S
C1213 N1221 1.427 . S
C1214 H1205 0.930 . S
C1214 C1212 1.378 . S
C1214 C1215 1.367 . S
C1215 C1214 1.367 . S
C1215 C1217 1.433 . S
C1216 C1212 1.350 . S
C1216 C1213 1.463 . S
C1216 N1220 1.427 . S
C1217 H1207 0.929 . S
C1217 C1215 1.433 . S
C1217 N1220 1.384 . S
C1218 H1209 0.929 . S
C1218 C1210 1.378 . S
C1218 C1213 1.350 . S
C1219 H1206 0.929 . S
C1219 C1211 1.433 . S
C1219 N1221 1.384 . S
N1220 C1216 1.427 . S
N1220 C1217 1.384 . S
N1221 C1213 1.427 . S
N1221 C1219 1.384 . S
C369 C187 1.907 . S
C365 C19 2.002 . S
C387 C188 1.820 . S
C383 C24 1.817 . S
C405 C182 1.263 . S
C401 C59 1.260 . S
C419 C69 1.131 . S
C423 C181 1.160 . S
C437 C82 1.819 . S
C441 C184 1.823 . S
C459 C186 1.269 . S
C455 C118 1.257 . S
C473 C132 1.114 . S
C477 C185 1.155 . S
C491 C158 2.005 . S
C495 C183 1.906 . S
C513 C218 1.810 . S
C509 C4 1.604 . S
C527 C29 1.018 . S
C531 C249 1.016 . S
C549 C217 1.536 . S
C545 C44 1.423 . S
C567 C252 1.178 . S
C563 C79 1.164 . S
C581 C98 1.425 . S
C585 C215 1.394 . S
C603 C247 1.493 . S
C599 C112 1.427 . S
C617 C122 1.096 . S
C621 C220 1.111 . S
C635 C152 1.259 . S
C639 C254 1.275 . S
C653 C9 1.238 . S
C657 C250 1.286 . S
C671 C92 1.030 . S
C675 C253 1.009 . S
C693 C221 1.535 . S
C689 C102 1.432 . S
C711 C248 1.192 . S
C707 C138 1.172 . S
C725 C142 1.618 . S
C729 C214 1.808 . S
C743 C49 1.423 . S
C747 C251 1.496 . S
C765 C216 1.110 . S
C761 C64 1.096 . S
C779 C39 1.425 . S
C783 C219 1.394 . S
C797 C159 1.996 . S
C801 C286 1.907 . S
C815 C84 1.447 . S
C819 C287 1.468 . S
C837 C281 1.273 . S
C833 C119 1.293 . S
C855 C280 1.526 . S
C851 C129 1.497 . S
C869 C22 1.446 . S
C873 C283 1.468 . S
C891 C285 1.282 . S
C887 C58 1.291 . S
C905 C72 1.507 . S
C909 C284 1.531 . S
C923 C18 2.001 . S
C927 C282 1.919 . S
C941 C144 1.733 . S
C945 C320 1.829 . S
C963 C352 0.814 . S
C959 C89 0.832 . S
C977 C104 1.366 . S
C981 C313 1.504 . S
C995 C139 1.450 . S
C999 C347 1.482 . S
C1017 C318 1.211 . S
C1013 C38 1.210 . S
C1031 C52 1.554 . S
C1035 C349 1.595 . S
C1053 C315 1.327 . S
C1049 C62 1.330 . S
C1071 C350 1.325 . S
C1067 C12 1.214 . S
C1089 C346 1.326 . S
C1085 C149 1.223 . S
C1103 C32 0.808 . S
C1107 C348 0.836 . S
C1121 C42 1.367 . S
C1125 C317 1.502 . S
C1143 C351 1.483 . S
C1139 C78 1.450 . S
C1157 C2 1.731 . S
C1161 C316 1.836 . S
C1175 C109 1.548 . S
C1179 C353 1.600 . S
C1197 C319 1.324 . S
C1193 C124 1.324 . S
C1215 C314 1.211 . S
C1211 C99 1.214 . S
