# Generated by pormake.
# Topology ocu, (6,8)-cn, num edge types: 1
# Building blocks:
#     Node 0, Type 0, BuildingBlock: KUMBOL_clean_sbu_1, # of connection points: 6
#     Node 1, Type 0, BuildingBlock: KUMBOL_clean_sbu_1, # of connection points: 6
#     Node 2, Type 0, BuildingBlock: KUMBOL_clean_sbu_1, # of connection points: 6
#     Node 3, Type 0, BuildingBlock: KUMBOL_clean_sbu_1, # of connection points: 6
#     Node 4, Type 0, BuildingBlock: KUMBOL_clean_sbu_1, # of connection points: 6
#     Node 5, Type 0, BuildingBlock: KUMBOL_clean_sbu_1, # of connection points: 6
#     Node 6, Type 0, BuildingBlock: KUMBOL_clean_sbu_1, # of connection points: 6
#     Node 7, Type 0, BuildingBlock: KUMBOL_clean_sbu_1, # of connection points: 6
#     Node 8, Type 1, BuildingBlock: TAGTUT_clean_sbu_1, # of connection points: 8
#     Node 9, Type 1, BuildingBlock: TAGTUT_clean_sbu_1, # of connection points: 8
#     Node 10, Type 1, BuildingBlock: TAGTUT_clean_sbu_1, # of connection points: 8
#     Node 11, Type 1, BuildingBlock: TAGTUT_clean_sbu_1, # of connection points: 8
#     Node 12, Type 1, BuildingBlock: TAGTUT_clean_sbu_1, # of connection points: 8
#     Node 13, Type 1, BuildingBlock: TAGTUT_clean_sbu_1, # of connection points: 8
#     Edge 14, Type (0, 1), BuildingBlock: KIFKEQ_clean_linker_1, # of connection points: 2
#     Edge 15, Type (0, 1), BuildingBlock: KIFKEQ_clean_linker_1, # of connection points: 2
#     Edge 16, Type (0, 1), BuildingBlock: KIFKEQ_clean_linker_1, # of connection points: 2
#     Edge 17, Type (0, 1), BuildingBlock: KIFKEQ_clean_linker_1, # of connection points: 2
#     Edge 18, Type (0, 1), BuildingBlock: KIFKEQ_clean_linker_1, # of connection points: 2
#     Edge 19, Type (0, 1), BuildingBlock: KIFKEQ_clean_linker_1, # of connection points: 2
#     Edge 20, Type (0, 1), BuildingBlock: KIFKEQ_clean_linker_1, # of connection points: 2
#     Edge 21, Type (0, 1), BuildingBlock: KIFKEQ_clean_linker_1, # of connection points: 2
#     Edge 22, Type (0, 1), BuildingBlock: KIFKEQ_clean_linker_1, # of connection points: 2
#     Edge 23, Type (0, 1), BuildingBlock: KIFKEQ_clean_linker_1, # of connection points: 2
#     Edge 24, Type (0, 1), BuildingBlock: KIFKEQ_clean_linker_1, # of connection points: 2
#     Edge 25, Type (0, 1), BuildingBlock: KIFKEQ_clean_linker_1, # of connection points: 2
#     Edge 26, Type (0, 1), BuildingBlock: KIFKEQ_clean_linker_1, # of connection points: 2
#     Edge 27, Type (0, 1), BuildingBlock: KIFKEQ_clean_linker_1, # of connection points: 2
#     Edge 28, Type (0, 1), BuildingBlock: KIFKEQ_clean_linker_1, # of connection points: 2
#     Edge 29, Type (0, 1), BuildingBlock: KIFKEQ_clean_linker_1, # of connection points: 2
#     Edge 30, Type (0, 1), BuildingBlock: KIFKEQ_clean_linker_1, # of connection points: 2
#     Edge 31, Type (0, 1), BuildingBlock: KIFKEQ_clean_linker_1, # of connection points: 2
#     Edge 32, Type (0, 1), BuildingBlock: KIFKEQ_clean_linker_1, # of connection points: 2
#     Edge 33, Type (0, 1), BuildingBlock: KIFKEQ_clean_linker_1, # of connection points: 2
#     Edge 34, Type (0, 1), BuildingBlock: KIFKEQ_clean_linker_1, # of connection points: 2
#     Edge 35, Type (0, 1), BuildingBlock: KIFKEQ_clean_linker_1, # of connection points: 2
#     Edge 36, Type (0, 1), BuildingBlock: KIFKEQ_clean_linker_1, # of connection points: 2
#     Edge 37, Type (0, 1), BuildingBlock: KIFKEQ_clean_linker_1, # of connection points: 2
#     Edge 38, Type (0, 1), BuildingBlock: KIFKEQ_clean_linker_1, # of connection points: 2
#     Edge 39, Type (0, 1), BuildingBlock: KIFKEQ_clean_linker_1, # of connection points: 2
#     Edge 40, Type (0, 1), BuildingBlock: KIFKEQ_clean_linker_1, # of connection points: 2
#     Edge 41, Type (0, 1), BuildingBlock: KIFKEQ_clean_linker_1, # of connection points: 2
#     Edge 42, Type (0, 1), BuildingBlock: KIFKEQ_clean_linker_1, # of connection points: 2
#     Edge 43, Type (0, 1), BuildingBlock: KIFKEQ_clean_linker_1, # of connection points: 2
#     Edge 44, Type (0, 1), BuildingBlock: KIFKEQ_clean_linker_1, # of connection points: 2
#     Edge 45, Type (0, 1), BuildingBlock: KIFKEQ_clean_linker_1, # of connection points: 2
#     Edge 46, Type (0, 1), BuildingBlock: KIFKEQ_clean_linker_1, # of connection points: 2
#     Edge 47, Type (0, 1), BuildingBlock: KIFKEQ_clean_linker_1, # of connection points: 2
#     Edge 48, Type (0, 1), BuildingBlock: KIFKEQ_clean_linker_1, # of connection points: 2
#     Edge 49, Type (0, 1), BuildingBlock: KIFKEQ_clean_linker_1, # of connection points: 2
#     Edge 50, Type (0, 1), BuildingBlock: KIFKEQ_clean_linker_1, # of connection points: 2
#     Edge 51, Type (0, 1), BuildingBlock: KIFKEQ_clean_linker_1, # of connection points: 2
#     Edge 52, Type (0, 1), BuildingBlock: KIFKEQ_clean_linker_1, # of connection points: 2
#     Edge 53, Type (0, 1), BuildingBlock: KIFKEQ_clean_linker_1, # of connection points: 2
#     Edge 54, Type (0, 1), BuildingBlock: KIFKEQ_clean_linker_1, # of connection points: 2
#     Edge 55, Type (0, 1), BuildingBlock: KIFKEQ_clean_linker_1, # of connection points: 2
#     Edge 56, Type (0, 1), BuildingBlock: KIFKEQ_clean_linker_1, # of connection points: 2
#     Edge 57, Type (0, 1), BuildingBlock: KIFKEQ_clean_linker_1, # of connection points: 2
#     Edge 58, Type (0, 1), BuildingBlock: KIFKEQ_clean_linker_1, # of connection points: 2
#     Edge 59, Type (0, 1), BuildingBlock: KIFKEQ_clean_linker_1, # of connection points: 2
#     Edge 60, Type (0, 1), BuildingBlock: KIFKEQ_clean_linker_1, # of connection points: 2
#     Edge 61, Type (0, 1), BuildingBlock: KIFKEQ_clean_linker_1, # of connection points: 2
# Relax obj value: 0.068
# Max RMSD: 0.175
# Mean RMSD: 0.096
data_MOF--net-ocu--node1-KUMBOL_clean_sbu_1--node2-TAGTUT_clean_sbu_1--edge1-KIFKEQ_clean_linker_1
_symmetry_space_group_name_H-M    P1
_symmetry_Int_Tables_number       1
_symmetry_cell_setting            triclinic
loop_
_symmetry_equiv_pos_as_xyz
'x, y, z'
_cell_length_a     40.896056
_cell_length_b     39.196309
_cell_length_c     43.305785
_cell_angle_alpha  100.56787
_cell_angle_beta   81.416073
_cell_angle_gamma 113.02999
loop_
_atom_site_label
_atom_site_type_symbol
_atom_site_fract_x
_atom_site_fract_y
_atom_site_fract_z
_atom_type_partial_charge
C0 C 0.32218 0.3344 0.34012 0.0
C1 C 0.29498 0.30971 0.38931 0.0
C2 C 0.30449 0.30403 0.35667 0.0
C3 C 0.30381 0.34631 0.40523 0.0
C4 C 0.33168 0.37118 0.35626 0.0
C5 C 0.32217 0.37695 0.38878 0.0
N6 N 0.33025 0.32797 0.3084 0.0
C7 C 0.35136 0.3571 0.29243 0.0
C8 C 0.35093 0.40114 0.33934 0.0
C9 C 0.36133 0.39401 0.30743 0.0
Gd10 Gd 0.23565 0.25107 0.22931 0.0
Gd11 Gd 0.31128 0.2643 0.28619 0.0
N12 N 0.29537 0.26887 0.34053 0.0
C13 C 0.27652 0.27836 0.40492 0.0
C14 C 0.27801 0.23823 0.35564 0.0
C15 C 0.26815 0.24247 0.38801 0.0
H16 H 0.27216 0.21056 0.34271 0.0
H17 H 0.25415 0.21807 0.39991 0.0
H18 H 0.27278 0.30662 0.17377 0.0
H19 H 0.36182 0.3524 0.26845 0.0
H20 H 0.29056 0.30086 0.11646 0.0
H21 H 0.2687 0.28157 0.42998 0.0
H22 H 0.29664 0.35124 0.4303 0.0
H23 H 0.18578 0.1622 0.24536 0.0
H24 H 0.35882 0.42979 0.35089 0.0
H25 H 0.37757 0.41695 0.29446 0.0
H26 H 0.24945 0.16819 0.08345 0.0
H27 H 0.32908 0.40502 0.40147 0.0
H28 H 0.1885 0.08699 0.16129 0.0
H29 H 0.17018 0.0982 0.21805 0.0
N30 N 0.21668 0.18789 0.20574 0.0
C31 C 0.22452 0.18237 0.17392 0.0
C32 C 0.19597 0.1582 0.2212 0.0
C33 C 0.19627 0.11539 0.1734 0.0
C34 C 0.18612 0.1216 0.20548 0.0
C35 C 0.21517 0.14595 0.15706 0.0
H36 H 0.21769 0.11335 0.1112 0.0
N37 N 0.25068 0.24811 0.17485 0.0
C38 C 0.24185 0.21333 0.15802 0.0
C39 C 0.26904 0.24053 0.11028 0.0
C40 C 0.2511 0.20862 0.12527 0.0
C41 C 0.26739 0.27928 0.16032 0.0
C42 C 0.27705 0.27602 0.12788 0.0
O43 O 0.26384 0.28022 0.3075 0.0
O44 O 0.25194 0.30185 0.26664 0.0
O45 O 0.20751 0.27661 0.20702 0.0
O46 O 0.17897 0.2369 0.2405 0.0
O47 O 0.26577 0.20819 0.2819 0.0
O48 O 0.21819 0.22222 0.27345 0.0
O49 O 0.28219 0.23386 0.2077 0.0
O50 O 0.29617 0.21363 0.24854 0.0
O51 O 0.33847 0.23854 0.30952 0.0
O52 O 0.36816 0.27891 0.27687 0.0
O53 O 0.28184 0.30676 0.23326 0.0
O54 O 0.32896 0.2919 0.24142 0.0
C55 C 0.24959 0.30014 0.29691 0.0
C56 C 0.23174 0.20324 0.28642 0.0
C57 C 0.14312 0.26219 0.21881 0.0
C58 C 0.10843 0.28949 0.19717 0.0
C59 C 0.08051 0.24791 0.2368 0.0
C60 C 0.11254 0.2436 0.23792 0.0
C61 C 0.07847 0.2709 0.21675 0.0
C62 C 0.14079 0.28488 0.19803 0.0
C63 C 0.17724 0.25875 0.222 0.0
C64 C 0.24246 0.17237 0.10861 0.0
C65 C 0.22448 0.14114 0.12444 0.0
H66 H 0.27666 0.23808 0.08516 0.0
C67 C 0.29718 0.21458 0.21824 0.0
C68 C 0.3156 0.31068 0.22801 0.0
C69 C 0.40324 0.25367 0.29964 0.0
C70 C 0.43759 0.22697 0.32254 0.0
C71 C 0.46629 0.26871 0.28312 0.0
C72 C 0.43424 0.27256 0.28112 0.0
C73 C 0.46795 0.24588 0.3035 0.0
C74 C 0.40516 0.23111 0.32078 0.0
C75 C 0.36923 0.25683 0.29548 0.0
H76 H 0.0572 0.23357 0.25171 0.0
H77 H 0.11341 0.22597 0.25409 0.0
H78 H 0.05335 0.27399 0.21632 0.0
H79 H 0.16406 0.29947 0.18314 0.0
H80 H 0.4899 0.28329 0.26864 0.0
H81 H 0.43372 0.2901 0.2647 0.0
H82 H 0.49312 0.24319 0.30461 0.0
H83 H 0.38158 0.2163 0.33525 0.0
C84 C 0.86239 0.25265 0.18507 0.0
C85 C 0.9168 0.3044 0.20042 0.0
C86 C 0.88262 0.27823 0.2084 0.0
C87 C 0.93011 0.30513 0.16863 0.0
C88 C 0.87635 0.25255 0.15322 0.0
C89 C 0.90991 0.27935 0.1451 0.0
N90 N 0.82979 0.22711 0.19354 0.0
C91 C 0.81244 0.19782 0.17192 0.0
C92 C 0.85659 0.22486 0.13053 0.0
C93 C 0.82488 0.1969 0.14002 0.0
Gd94 Gd 0.73734 0.28131 0.25667 0.0
Gd95 Gd 0.81171 0.23262 0.2479 0.0
N96 N 0.86862 0.27796 0.2389 0.0
C97 C 0.9365 0.32924 0.22466 0.0
C98 C 0.88805 0.30129 0.26278 0.0
C99 C 0.92216 0.32747 0.25598 0.0
H100 H 0.87682 0.29994 0.28697 0.0
H101 H 0.93733 0.34633 0.27487 0.0
H102 H 0.69247 0.24188 0.19208 0.0
H103 H 0.78941 0.1745 0.17909 0.0
H104 H 0.63077 0.20305 0.17938 0.0
H105 H 0.96285 0.34974 0.21945 0.0
H106 H 0.95612 0.32534 0.162 0.0
H107 H 0.73428 0.30245 0.33537 0.0
H108 H 0.86634 0.22387 0.10583 0.0
H109 H 0.81037 0.17419 0.12288 0.0
H110 H 0.5634 0.19169 0.28033 0.0
H111 H 0.9208 0.27993 0.12072 0.0
H112 H 0.62609 0.2515 0.37271 0.0
H113 H 0.68943 0.28956 0.38106 0.0
N114 N 0.69701 0.27056 0.30169 0.0
C115 C 0.66216 0.25087 0.29645 0.0
C116 C 0.70684 0.28545 0.3315 0.0
C117 C 0.64569 0.25701 0.35257 0.0
C118 C 0.68144 0.27839 0.3574 0.0
C119 C 0.63558 0.24321 0.32183 0.0
H120 H 0.57919 0.21544 0.33493 0.0
N121 N 0.6797 0.24482 0.24168 0.0
C122 C 0.65337 0.23713 0.2656 0.0
C123 C 0.60959 0.20301 0.22803 0.0
C124 C 0.6176 0.2158 0.25942 0.0
C125 C 0.67186 0.23363 0.21102 0.0
C126 C 0.63682 0.21217 0.20374 0.0
O127 O 0.82474 0.2932 0.24194 0.0
O128 O 0.77923 0.28967 0.21569 0.0
O129 O 0.7102 0.31137 0.23951 0.0
O130 O 0.75299 0.34134 0.27093 0.0
O131 O 0.80088 0.26042 0.29624 0.0
O132 O 0.78179 0.30725 0.28972 0.0
O133 O 0.72118 0.23245 0.28394 0.0
O134 O 0.76288 0.20416 0.27921 0.0
O135 O 0.84602 0.22332 0.27643 0.0
O136 O 0.82374 0.18212 0.23711 0.0
O137 O 0.74887 0.24774 0.21141 0.0
O138 O 0.76019 0.19956 0.22458 0.0
C139 C 0.81329 0.30294 0.21957 0.0
C140 C 0.79708 0.29266 0.3057 0.0
C141 C 0.72443 0.37846 0.25422 0.0
C142 C 0.6971 0.41426 0.23354 0.0
C143 C 0.73865 0.44428 0.27409 0.0
C144 C 0.74301 0.41077 0.2742 0.0
C145 C 0.71597 0.4461 0.25394 0.0
C146 C 0.7012 0.38026 0.23403 0.0
C147 C 0.72907 0.34308 0.25506 0.0
C148 C 0.59101 0.2081 0.28464 0.0
C149 C 0.59998 0.22171 0.31574 0.0
H150 H 0.58244 0.18653 0.2223 0.0
C151 C 0.73213 0.20722 0.29017 0.0
C152 C 0.7441 0.2122 0.20788 0.0
C153 C 0.83366 0.16092 0.28127 0.0
C154 C 0.85409 0.12844 0.31233 0.0
C155 C 0.79077 0.11423 0.31211 0.0
C156 C 0.7982 0.14025 0.29137 0.0
C157 C 0.81858 0.10833 0.32261 0.0
C158 C 0.86156 0.15483 0.29174 0.0
C159 C 0.84213 0.19034 0.26136 0.0
H160 H 0.75295 0.46899 0.2897 0.0
H161 H 0.7608 0.41014 0.2901 0.0
H162 H 0.71298 0.47248 0.25448 0.0
H163 H 0.6869 0.35556 0.21835 0.0
H164 H 0.76341 0.0987 0.32014 0.0
H165 H 0.77635 0.14445 0.28344 0.0
H166 H 0.81244 0.08814 0.33877 0.0
H167 H 0.88901 0.17082 0.28414 0.0
C168 C 0.85674 0.833 0.18935 0.0
C169 C 0.85505 0.79129 0.13991 0.0
C170 C 0.83845 0.80097 0.16926 0.0
C171 C 0.89032 0.81386 0.13107 0.0
C172 C 0.89189 0.85611 0.18007 0.0
C173 C 0.90865 0.84615 0.15105 0.0
N174 N 0.83999 0.84209 0.21744 0.0
C175 C 0.85599 0.875 0.23621 0.0
C176 C 0.90904 0.88894 0.2 0.0
C177 C 0.89086 0.89861 0.22799 0.0
Gd178 Gd 0.76354 0.71916 0.28806 0.0
Gd179 Gd 0.78175 0.79973 0.228 0.0
N180 N 0.80453 0.77898 0.17862 0.0
C181 C 0.83559 0.75932 0.12019 0.0
C182 C 0.78482 0.74893 0.1589 0.0
C183 C 0.80021 0.73829 0.12959 0.0
H184 H 0.75751 0.73292 0.16602 0.0
H185 H 0.78479 0.71394 0.11426 0.0
H186 H 0.78398 0.77241 0.35727 0.0
H187 H 0.84182 0.88357 0.25734 0.0
H188 H 0.75383 0.78256 0.41019 0.0
H189 H 0.84745 0.75096 0.09748 0.0
H190 H 0.90356 0.80678 0.10865 0.0
H191 H 0.71147 0.63387 0.25456 0.0
H192 H 0.93601 0.90743 0.19366 0.0
H193 H 0.90358 0.92446 0.2431 0.0
H194 H 0.63486 0.69038 0.4038 0.0
H195 H 0.9357 0.8635 0.14366 0.0
H196 H 0.6123 0.5987 0.31155 0.0
H197 H 0.65025 0.58805 0.2636 0.0
N198 N 0.70716 0.67162 0.29567 0.0
C199 C 0.6875 0.67695 0.32298 0.0
C200 C 0.69476 0.63941 0.27509 0.0
C201 C 0.6389 0.61928 0.30741 0.0
C202 C 0.66024 0.61316 0.28032 0.0
C203 C 0.65274 0.65101 0.32954 0.0
H204 H 0.60662 0.63741 0.36371 0.0
N205 N 0.7373 0.7303 0.33894 0.0
C206 C 0.7032 0.70692 0.34549 0.0
C207 C 0.70311 0.73986 0.39843 0.0
C208 C 0.68488 0.71158 0.37523 0.0
C209 C 0.75615 0.75578 0.3622 0.0
C210 C 0.73916 0.76146 0.39211 0.0
O211 O 0.81299 0.76055 0.21788 0.0
O212 O 0.78133 0.70358 0.2373 0.0
O213 O 0.80927 0.72637 0.31172 0.0
O214 O 0.77122 0.67076 0.29877 0.0
O215 O 0.73009 0.75208 0.23824 0.0
O216 O 0.73624 0.69819 0.24271 0.0
O217 O 0.73864 0.7628 0.30647 0.0
O218 O 0.75093 0.80949 0.27435 0.0
O219 O 0.74396 0.79858 0.19714 0.0
O220 O 0.78161 0.85161 0.21729 0.0
O221 O 0.81129 0.77058 0.27781 0.0
O222 O 0.80534 0.82438 0.27445 0.0
C223 C 0.806 0.72463 0.21809 0.0
C224 C 0.72367 0.71671 0.22841 0.0
C225 C 0.83139 0.6783 0.29946 0.0
C226 C 0.8787 0.66098 0.3118 0.0
C227 C 0.87284 0.66478 0.25755 0.0
C228 C 0.84332 0.67478 0.26742 0.0
C229 C 0.89052 0.65796 0.27956 0.0
C230 C 0.84909 0.67141 0.32155 0.0
C231 C 0.8016 0.69074 0.31044 0.0
C232 C 0.64957 0.687 0.38123 0.0
C233 C 0.6335 0.65682 0.3584 0.0
H234 H 0.69 0.74431 0.42161 0.0
C235 C 0.73598 0.79317 0.29978 0.0
C236 C 0.81499 0.80478 0.29008 0.0
C237 C 0.724 0.84851 0.2115 0.0
C238 C 0.6755 0.86305 0.19786 0.0
C239 C 0.68676 0.8705 0.25271 0.0
C240 C 0.71537 0.8589 0.24351 0.0
C241 C 0.66685 0.8725 0.2301 0.0
C242 C 0.70404 0.85069 0.18874 0.0
C243 C 0.75331 0.83483 0.20176 0.0
H244 H 0.88193 0.66213 0.23276 0.0
H245 H 0.8299 0.67986 0.25014 0.0
H246 H 0.91293 0.64954 0.27128 0.0
H247 H 0.84 0.67456 0.34636 0.0
H248 H 0.68029 0.87845 0.27744 0.0
H249 H 0.7308 0.85826 0.26144 0.0
H250 H 0.6454 0.88259 0.2378 0.0
H251 H 0.71077 0.84286 0.164 0.0
C252 C 0.27966 0.69051 0.32588 0.0
C253 C 0.24737 0.62658 0.30328 0.0
C254 C 0.26786 0.66429 0.29955 0.0
C255 C 0.23772 0.61608 0.33368 0.0
C256 C 0.2713 0.6798 0.35631 0.0
C257 C 0.24974 0.64258 0.36011 0.0
N258 N 0.29902 0.72675 0.32176 0.0
C259 C 0.31403 0.75286 0.34635 0.0
C260 C 0.28484 0.70691 0.38202 0.0
C261 C 0.30672 0.74348 0.37695 0.0
Gd262 Gd 0.23773 0.78235 0.25506 0.0
Gd263 Gd 0.30889 0.7403 0.27005 0.0
N264 N 0.27747 0.67533 0.27036 0.0
C265 C 0.2379 0.60031 0.27631 0.0
C266 C 0.27099 0.64914 0.24404 0.0
C267 C 0.25039 0.61153 0.24659 0.0
H268 H 0.28198 0.65665 0.22091 0.0
H269 H 0.24458 0.59111 0.22561 0.0
H270 H 0.28559 0.87357 0.26771 0.0
H271 H 0.33099 0.78103 0.34225 0.0
H272 H 0.30797 0.9284 0.23858 0.0
H273 H 0.22213 0.5711 0.27818 0.0
H274 H 0.22158 0.58734 0.33697 0.0
H275 H 0.17651 0.71379 0.21226 0.0
H276 H 0.27898 0.69978 0.40578 0.0
H277 H 0.31786 0.76443 0.39658 0.0
H278 H 0.25904 0.87852 0.1382 0.0
H279 H 0.24251 0.63392 0.38336 0.0
H280 H 0.17948 0.74968 0.12388 0.0
H281 H 0.15579 0.70058 0.15898 0.0
N282 N 0.21345 0.76866 0.20634 0.0
C283 C 0.22539 0.7965 0.1881 0.0
C284 C 0.18773 0.73501 0.19676 0.0
C285 C 0.18902 0.75541 0.14704 0.0
C286 C 0.1756 0.72761 0.16677 0.0
C287 C 0.21372 0.79066 0.15786 0.0
H288 H 0.2181 0.81634 0.11636 0.0
N289 N 0.25867 0.83574 0.22955 0.0
C290 C 0.24835 0.83136 0.2003 0.0
C291 C 0.28256 0.89676 0.19661 0.0
C292 C 0.26041 0.86159 0.18277 0.0
C293 C 0.27867 0.87029 0.2439 0.0
C294 C 0.29137 0.90121 0.22748 0.0
O295 O 0.26422 0.74511 0.30689 0.0
O296 O 0.22033 0.72837 0.27482 0.0
O297 O 0.2197 0.81417 0.29509 0.0
O298 O 0.18227 0.77755 0.26169 0.0
O299 O 0.28447 0.71775 0.22282 0.0
O300 O 0.22988 0.72164 0.23824 0.0
O301 O 0.29368 0.80705 0.23114 0.0
O302 O 0.31901 0.76199 0.22313 0.0
O303 O 0.34653 0.71285 0.26493 0.0
O304 O 0.3648 0.77282 0.27713 0.0
O305 O 0.27024 0.81068 0.29746 0.0
O306 O 0.32335 0.80248 0.28229 0.0
C307 C 0.2305 0.728 0.30184 0.0
C308 C 0.25128 0.70996 0.21733 0.0
C309 C 0.16425 0.77658 0.3165 0.0
C310 C 0.15625 0.77546 0.37342 0.0
C311 C 0.1254 0.71972 0.33793 0.0
C312 C 0.14113 0.73883 0.31198 0.0
C313 C 0.13317 0.7377 0.36847 0.0
C314 C 0.17075 0.79475 0.34723 0.0
C315 C 0.18626 0.796 0.29004 0.0
C316 C 0.24979 0.85575 0.15222 0.0
C317 C 0.22652 0.82032 0.13976 0.0
H318 H 0.2925 0.92071 0.1839 0.0
C319 C 0.31672 0.79236 0.21629 0.0
C320 C 0.30426 0.81955 0.30056 0.0
C321 C 0.40071 0.74851 0.24034 0.0
C322 C 0.41294 0.73609 0.18348 0.0
C323 C 0.46171 0.76532 0.2177 0.0
C324 C 0.43722 0.76349 0.24418 0.0
C325 C 0.44975 0.75121 0.18757 0.0
C326 C 0.38897 0.73655 0.21007 0.0
C327 C 0.37403 0.74422 0.26738 0.0
H328 H 0.10783 0.69058 0.33433 0.0
H329 H 0.13602 0.72378 0.2885 0.0
H330 H 0.12136 0.72194 0.38806 0.0
H331 H 0.18775 0.82416 0.35054 0.0
H332 H 0.48999 0.77661 0.2206 0.0
H333 H 0.44667 0.77333 0.26748 0.0
H334 H 0.46933 0.75091 0.16785 0.0
H335 H 0.3607 0.72619 0.2075 0.0
C336 C 0.3803 0.76297 0.70048 0.0
C337 C 0.42469 0.81523 0.72924 0.0
C338 C 0.39141 0.78509 0.72874 0.0
C339 C 0.4457 0.82376 0.70081 0.0
C340 C 0.40182 0.77055 0.67203 0.0
C341 C 0.4343 0.80145 0.67228 0.0
N342 N 0.34822 0.73401 0.70083 0.0
C343 C 0.33722 0.70973 0.67413 0.0
C344 C 0.39 0.74676 0.64423 0.0
C345 C 0.35776 0.71597 0.64536 0.0
Gd346 Gd 0.23887 0.772 0.75754 0.0
Gd347 Gd 0.3146 0.72676 0.74961 0.0
N348 N 0.3704 0.77615 0.75583 0.0
C349 C 0.43629 0.83525 0.75838 0.0
C350 C 0.38307 0.79349 0.78435 0.0
C351 C 0.4157 0.82384 0.78608 0.0
H352 H 0.36857 0.78357 0.80587 0.0
H353 H 0.42517 0.83803 0.8088 0.0
H354 H 0.17356 0.70081 0.72227 0.0
H355 H 0.31236 0.68589 0.67502 0.0
H356 H 0.11354 0.65512 0.73685 0.0
H357 H 0.46168 0.85859 0.75979 0.0
H358 H 0.47115 0.84706 0.70071 0.0
H359 H 0.25734 0.84084 0.81979 0.0
H360 H 0.40575 0.75165 0.62187 0.0
H361 H 0.34868 0.69711 0.62408 0.0
H362 H 0.09438 0.6896 0.84847 0.0
H363 H 0.45103 0.80803 0.65061 0.0
H364 H 0.18142 0.80142 0.89706 0.0
H365 H 0.23593 0.84971 0.87583 0.0
N366 N 0.21867 0.78582 0.81044 0.0
C367 C 0.18705 0.7605 0.82091 0.0
C368 C 0.23496 0.81857 0.82923 0.0
C369 C 0.19145 0.79686 0.87268 0.0
C370 C 0.22229 0.82411 0.86082 0.0
C371 C 0.17276 0.7651 0.85242 0.0
H372 H 0.12858 0.74157 0.88657 0.0
N373 N 0.18197 0.72784 0.76925 0.0
C374 C 0.16773 0.73115 0.79952 0.0
C375 C 0.11432 0.6778 0.78614 0.0
C376 C 0.13372 0.70576 0.80894 0.0
C377 C 0.16253 0.70192 0.74656 0.0
C378 C 0.12861 0.67618 0.75473 0.0
O379 O 0.31125 0.76091 0.71444 0.0
O380 O 0.29584 0.80806 0.74312 0.0
O381 O 0.22461 0.78575 0.71629 0.0
O382 O 0.21086 0.80989 0.76283 0.0
O383 O 0.30663 0.76146 0.79589 0.0
O384 O 0.28815 0.8061 0.78399 0.0
O385 O 0.22654 0.71362 0.76843 0.0
O386 O 0.27453 0.71843 0.79211 0.0
O387 O 0.35343 0.70755 0.76204 0.0
O388 O 0.30416 0.6673 0.7445 0.0
O389 O 0.24367 0.73468 0.71198 0.0
O390 O 0.26636 0.69186 0.72219 0.0
C391 C 0.31584 0.79636 0.72057 0.0
C392 C 0.30338 0.79429 0.80234 0.0
C393 C 0.21976 0.84463 0.72152 0.0
C394 C 0.20056 0.88696 0.70086 0.0
C395 C 0.26161 0.90719 0.71446 0.0
C396 C 0.25407 0.87233 0.72362 0.0
C397 C 0.235 0.91462 0.70334 0.0
C398 C 0.19323 0.85186 0.70988 0.0
C399 C 0.21051 0.80864 0.73271 0.0
C400 C 0.12018 0.70922 0.84063 0.0
C401 C 0.13973 0.73874 0.86236 0.0
H402 H 0.08811 0.65773 0.79243 0.0
C403 C 0.23993 0.70701 0.79125 0.0
C404 C 0.24868 0.70268 0.70532 0.0
C405 C 0.32728 0.6523 0.78498 0.0
C406 C 0.35237 0.62959 0.82086 0.0
C407 C 0.29175 0.6279 0.83193 0.0
C408 C 0.29524 0.64351 0.80457 0.0
C409 C 0.3202 0.62123 0.84021 0.0
C410 C 0.35566 0.64481 0.79304 0.0
C411 C 0.33252 0.67249 0.75796 0.0
H412 H 0.28809 0.92858 0.71613 0.0
H413 H 0.27478 0.8671 0.73259 0.0
H414 H 0.24144 0.94181 0.69631 0.0
H415 H 0.16665 0.83045 0.70852 0.0
H416 H 0.26707 0.62143 0.847 0.0
H417 H 0.27309 0.64925 0.79905 0.0
H418 H 0.3171 0.60946 0.86173 0.0
H419 H 0.38066 0.65208 0.77835 0.0
C420 C 0.35343 0.33846 0.69242 0.0
C421 C 0.35649 0.30047 0.64184 0.0
C422 C 0.33835 0.30641 0.67141 0.0
C423 C 0.3906 0.32657 0.63416 0.0
C424 C 0.38725 0.36523 0.68444 0.0
C425 C 0.40596 0.35883 0.65542 0.0
N426 N 0.33451 0.34413 0.72012 0.0
C427 C 0.34708 0.37665 0.74027 0.0
C428 C 0.40096 0.39798 0.7056 0.0
C429 C 0.38064 0.40384 0.73351 0.0
Gd430 Gd 0.25841 0.21571 0.78722 0.0
Gd431 Gd 0.27939 0.29603 0.72967 0.0
N432 N 0.30558 0.28132 0.67969 0.0
C433 C 0.33953 0.26877 0.62068 0.0
C434 C 0.28797 0.25169 0.65846 0.0
C435 C 0.30492 0.24454 0.62888 0.0
H436 H 0.26121 0.23323 0.6647 0.0
H437 H 0.29127 0.22043 0.61243 0.0
H438 H 0.28183 0.28084 0.85009 0.0
H439 H 0.33112 0.38177 0.76153 0.0
H440 H 0.25515 0.29686 0.90315 0.0
H441 H 0.35261 0.26317 0.59774 0.0
H442 H 0.4051 0.32234 0.61165 0.0
H443 H 0.19995 0.13223 0.7568 0.0
H444 H 0.42686 0.41921 0.70034 0.0
H445 H 0.39069 0.42942 0.74969 0.0
H446 H 0.13822 0.20043 0.90906 0.0
H447 H 0.43207 0.37898 0.64897 0.0
H448 H 0.10676 0.10258 0.82166 0.0
H449 H 0.13911 0.08884 0.77096 0.0
N450 N 0.2012 0.17156 0.79816 0.0
C451 C 0.1844 0.17902 0.82664 0.0
C452 C 0.18573 0.13922 0.77856 0.0
C453 C 0.13327 0.1221 0.81537 0.0
C454 C 0.15141 0.11427 0.78669 0.0
C455 C 0.14988 0.15451 0.83595 0.0
H456 H 0.10669 0.14433 0.87306 0.0
N457 N 0.23537 0.23398 0.83743 0.0
C458 C 0.20216 0.21075 0.84704 0.0
C459 C 0.2051 0.25029 0.89727 0.0
C460 C 0.18591 0.21864 0.87711 0.0
C461 C 0.25492 0.26375 0.85751 0.0
C462 C 0.23989 0.27272 0.88753 0.0
O463 O 0.31048 0.25712 0.71673 0.0
O464 O 0.27952 0.20095 0.73738 0.0
O465 O 0.2986 0.21756 0.81551 0.0
O466 O 0.26062 0.16411 0.79682 0.0
O467 O 0.22757 0.24721 0.73727 0.0
O468 O 0.23391 0.19342 0.74096 0.0
O469 O 0.22795 0.25556 0.79938 0.0
O470 O 0.26104 0.31199 0.77994 0.0
O471 O 0.23694 0.2899 0.70209 0.0
O472 O 0.27272 0.34525 0.71969 0.0
O473 O 0.31126 0.26302 0.77934 0.0
O474 O 0.30587 0.31747 0.77543 0.0
C475 C 0.30391 0.22144 0.7176 0.0
C476 C 0.22216 0.21224 0.72633 0.0
C477 C 0.31942 0.16874 0.8 0.0
C478 C 0.36824 0.1533 0.81143 0.0
C479 C 0.3595 0.1539 0.75728 0.0
C480 C 0.32997 0.16364 0.76773 0.0
C481 C 0.37864 0.14881 0.77897 0.0
C482 C 0.33859 0.16352 0.82181 0.0
C483 C 0.28976 0.18146 0.81113 0.0
C484 C 0.15124 0.19469 0.88613 0.0
C485 C 0.13327 0.16276 0.8656 0.0
H486 H 0.1935 0.25734 0.92053 0.0
C487 C 0.236 0.29176 0.79939 0.0
C488 C 0.31827 0.2985 0.7894 0.0
C489 C 0.21271 0.33624 0.71618 0.0
C490 C 0.16487 0.35277 0.70388 0.0
C491 C 0.16843 0.34483 0.75753 0.0
C492 C 0.19888 0.33654 0.74779 0.0
C493 C 0.15143 0.35287 0.73575 0.0
C494 C 0.19565 0.34431 0.69427 0.0
C495 C 0.24373 0.32565 0.70561 0.0
H496 H 0.36744 0.1501 0.73229 0.0
H497 H 0.3154 0.16725 0.75067 0.0
H498 H 0.40107 0.14052 0.7703 0.0
H499 H 0.33063 0.16775 0.8468 0.0
H500 H 0.15801 0.34508 0.78203 0.0
H501 H 0.21152 0.33016 0.76485 0.0
H502 H 0.12814 0.35979 0.74395 0.0
H503 H 0.20606 0.34347 0.66972 0.0
C504 C 0.76919 0.18594 0.82395 0.0
C505 C 0.74171 0.12363 0.79611 0.0
C506 C 0.76182 0.16215 0.79585 0.0
C507 C 0.72748 0.10997 0.82502 0.0
C508 C 0.75681 0.17211 0.85305 0.0
C509 C 0.73506 0.13416 0.85345 0.0
N510 N 0.7896 0.22257 0.82276 0.0
C511 C 0.80166 0.24629 0.8495 0.0
C512 C 0.7672 0.19675 0.88081 0.0
C513 C 0.79021 0.23387 0.87899 0.0
Gd514 Gd 0.74412 0.29341 0.75137 0.0
Gd515 Gd 0.80491 0.24197 0.77275 0.0
N516 N 0.7763 0.17628 0.7684 0.0
C517 C 0.73756 0.09984 0.7674 0.0
C518 C 0.77484 0.15274 0.74068 0.0
C519 C 0.75482 0.11437 0.73965 0.0
H520 H 0.78902 0.16335 0.71919 0.0
H521 H 0.75297 0.09599 0.71748 0.0
H522 H 0.79828 0.38355 0.75779 0.0
H523 H 0.81912 0.27506 0.84796 0.0
H524 H 0.83556 0.43062 0.72285 0.0
H525 H 0.72229 0.07007 0.76656 0.0
H526 H 0.71149 0.08056 0.82567 0.0
H527 H 0.68068 0.22989 0.70706 0.0
H528 H 0.75822 0.18722 0.90366 0.0
H529 H 0.79894 0.25294 0.90025 0.0
H530 H 0.80866 0.36661 0.61845 0.0
H531 H 0.72468 0.12308 0.87557 0.0
H532 H 0.71135 0.24762 0.61055 0.0
H533 H 0.66985 0.21065 0.65073 0.0
N534 N 0.72914 0.27573 0.69863 0.0
C535 C 0.75048 0.29792 0.67726 0.0
C536 C 0.69932 0.24587 0.68965 0.0
C537 C 0.71646 0.25591 0.63519 0.0
C538 C 0.69293 0.23503 0.65779 0.0
C539 C 0.7451 0.28848 0.6449 0.0
H540 H 0.76389 0.30585 0.59861 0.0
N541 N 0.77774 0.34077 0.71983 0.0
C542 C 0.77549 0.33189 0.68829 0.0
C543 C 0.81867 0.39324 0.68009 0.0
C544 C 0.7962 0.35761 0.66745 0.0
C545 C 0.79764 0.37636 0.73248 0.0
C546 C 0.81888 0.40289 0.7128 0.0
O547 O 0.75997 0.24909 0.80767 0.0
O548 O 0.71651 0.24274 0.77706 0.0
O549 O 0.73032 0.33892 0.77783 0.0
O550 O 0.69029 0.29284 0.75279 0.0
O551 O 0.7797 0.22102 0.72592 0.0
O552 O 0.72707 0.23039 0.73865 0.0
O553 O 0.8041 0.31349 0.74 0.0
O554 O 0.81509 0.26011 0.72448 0.0
O555 O 0.84517 0.21786 0.76944 0.0
O556 O 0.85986 0.27771 0.78023 0.0
O557 O 0.76854 0.31629 0.79844 0.0
O558 O 0.82007 0.30326 0.79187 0.0
C559 C 0.72634 0.2363 0.80221 0.0
C560 C 0.7461 0.21237 0.72145 0.0
C561 C 0.67373 0.31502 0.80471 0.0
C562 C 0.66846 0.3208 0.86223 0.0
C563 C 0.61542 0.29169 0.83309 0.0
C564 C 0.63657 0.29792 0.80468 0.0
C565 C 0.63109 0.30339 0.86169 0.0
C566 C 0.6894 0.32519 0.83348 0.0
C567 C 0.69648 0.32123 0.77494 0.0
C568 C 0.79275 0.3474 0.63492 0.0
C569 C 0.76726 0.31281 0.62363 0.0
H570 H 0.83515 0.41378 0.66488 0.0
C571 C 0.82098 0.29455 0.72098 0.0
C572 C 0.80076 0.32268 0.80587 0.0
C573 C 0.89626 0.25673 0.74198 0.0
C574 C 0.90527 0.2458 0.68477 0.0
C575 C 0.95127 0.29465 0.71488 0.0
C576 C 0.93004 0.28557 0.74294 0.0
C577 C 0.93898 0.27493 0.68584 0.0
C578 C 0.88404 0.23741 0.71284 0.0
C579 C 0.87111 0.25058 0.7702 0.0
H580 H 0.5867 0.27862 0.833 0.0
H581 H 0.62398 0.28935 0.78274 0.0
H582 H 0.61372 0.30011 0.8833 0.0
H583 H 0.71811 0.33731 0.83366 0.0
H584 H 0.97728 0.31703 0.71562 0.0
H585 H 0.93949 0.30162 0.76521 0.0
H586 H 0.9561 0.28179 0.66442 0.0
H587 H 0.85741 0.21604 0.71183 0.0
C588 C 0.82741 0.85057 0.82867 0.0
C589 C 0.79139 0.84196 0.87867 0.0
C590 C 0.80243 0.82723 0.8486 0.0
C591 C 0.80464 0.88085 0.88785 0.0
C592 C 0.84218 0.88948 0.83851 0.0
C593 C 0.82996 0.90457 0.8678 0.0
N594 N 0.83906 0.83496 0.80072 0.0
C595 C 0.86806 0.85634 0.78323 0.0
C596 C 0.86977 0.91188 0.81918 0.0
C597 C 0.88322 0.89512 0.79173 0.0
Gd598 Gd 0.73602 0.7473 0.72558 0.0
Gd599 Gd 0.80929 0.76972 0.78773 0.0
N600 N 0.78973 0.7898 0.83888 0.0
C601 C 0.76812 0.81703 0.89888 0.0
C602 C 0.76898 0.76522 0.85913 0.0
C603 C 0.75737 0.77846 0.88926 0.0
H604 H 0.76072 0.73545 0.85156 0.0
H605 H 0.7401 0.75897 0.90498 0.0
H606 H 0.7767 0.80933 0.67412 0.0
H607 H 0.88002 0.84371 0.76282 0.0
H608 H 0.80673 0.81015 0.62029 0.0
H609 H 0.75904 0.82724 0.9222 0.0
H610 H 0.79619 0.89278 0.91073 0.0
H611 H 0.68745 0.65805 0.73346 0.0
H612 H 0.88184 0.94188 0.82588 0.0
H613 H 0.90563 0.91198 0.77735 0.0
H614 H 0.77974 0.68024 0.58079 0.0
H615 H 0.84073 0.93444 0.87558 0.0
H616 H 0.70297 0.59005 0.64739 0.0
H617 H 0.67499 0.59556 0.7019 0.0
N618 N 0.72263 0.6871 0.69735 0.0
C619 C 0.73691 0.68486 0.66698 0.0
C620 C 0.69982 0.65577 0.70973 0.0
C621 C 0.70844 0.61746 0.66109 0.0
C622 C 0.69265 0.62045 0.69189 0.0
C623 C 0.73072 0.64991 0.64818 0.0
H624 H 0.7427 0.6219 0.60247 0.0
N625 N 0.76206 0.75097 0.6734 0.0
C626 C 0.75791 0.71778 0.6549 0.0
C627 C 0.79199 0.75031 0.61133 0.0
C628 C 0.77309 0.71654 0.62346 0.0
C629 C 0.77758 0.78363 0.66075 0.0
C630 C 0.79366 0.78399 0.6299 0.0
O631 O 0.758 0.78013 0.80355 0.0
O632 O 0.7484 0.80028 0.76087 0.0
O633 O 0.70537 0.76188 0.69661 0.0
O634 O 0.67891 0.732 0.73601 0.0
O635 O 0.76427 0.71279 0.78312 0.0
O636 O 0.71482 0.72036 0.77042 0.0
O637 O 0.76802 0.70974 0.72239 0.0
O638 O 0.82326 0.74965 0.73707 0.0
O639 O 0.81854 0.72564 0.80468 0.0
O640 O 0.85967 0.78067 0.80611 0.0
O641 O 0.78083 0.80476 0.72932 0.0
O642 O 0.82907 0.79478 0.74177 0.0
C643 C 0.74532 0.80028 0.79145 0.0
C644 C 0.72965 0.70508 0.78613 0.0
C645 C 0.65726 0.77635 0.72512 0.0
C646 C 0.62828 0.81589 0.71256 0.0
C647 C 0.6334 0.81262 0.76722 0.0
C648 C 0.65098 0.7879 0.75739 0.0
C649 C 0.622 0.82639 0.74511 0.0
C650 C 0.64581 0.79045 0.70275 0.0
C651 C 0.67603 0.75004 0.71473 0.0
C652 C 0.76802 0.68174 0.6049 0.0
C653 C 0.74682 0.64851 0.61721 0.0
H654 H 0.80412 0.7506 0.58731 0.0
C655 C 0.80301 0.72026 0.71922 0.0
C656 C 0.81542 0.81252 0.72748 0.0
C657 C 0.87789 0.72941 0.79958 0.0
C658 C 0.91588 0.6984 0.81025 0.0
C659 C 0.91474 0.70934 0.75685 0.0
C660 C 0.88997 0.72617 0.76755 0.0
C661 C 0.92763 0.69556 0.77795 0.0
C662 C 0.89091 0.7156 0.82088 0.0
C663 C 0.85113 0.74633 0.8109 0.0
H664 H 0.62855 0.82116 0.79215 0.0
H665 H 0.6596 0.77782 0.77514 0.0
H666 H 0.60797 0.84512 0.75364 0.0
H667 H 0.65118 0.78214 0.67784 0.0
H668 H 0.92399 0.70696 0.73208 0.0
H669 H 0.88022 0.73663 0.75087 0.0
H670 H 0.94711 0.68298 0.769 0.0
H671 H 0.88108 0.71763 0.84555 0.0
C672 C 0.93958 0.08386 0.51845 0.0
C673 C 0.99448 0.05955 0.43547 0.0
C674 C 0.96226 0.92751 0.47319 0.0
Mg675 Mg 1.01694 0.08517 0.50209 0.0
O676 O 0.99368 0.03714 0.51371 0.0
Mg677 Mg 0.95041 1.00319 0.49178 0.0
Mg678 Mg 1.02225 1.00474 0.50528 0.0
O679 O 0.05184 0.97246 0.49793 0.0
Mg680 Mg 1.01974 0.92299 0.51139 0.0
Mg681 Mg 0.09915 0.01226 0.51961 0.0
C682 C 0.07493 0.08224 0.5421 0.0
C683 C 0.09277 0.04645 0.45799 0.0
O684 O 0.92589 0.04808 0.51133 0.0
O685 O 0.97329 0.10252 0.51751 0.0
O686 O 0.96957 0.03212 0.44706 0.0
O687 O 1.01984 0.0825 0.45168 0.0
O688 O 0.06228 0.10212 0.53058 0.0
O689 O 0.06279 0.04629 0.53614 0.0
C690 C 0.95252 0.96727 0.55392 0.0
O691 O 0.98616 0.97535 0.54693 0.0
O692 O 0.93386 0.97531 0.53709 0.0
O693 O 0.07519 0.95509 0.48994 0.0
O694 O 0.05311 0.8944 0.48705 0.0
O695 O 0.08087 0.98021 0.56251 0.0
C696 C 0.08071 0.92432 0.48631 0.0
O697 O 0.02975 0.9293 0.56089 0.0
O698 O 0.97117 0.90742 0.488 0.0
C699 C 0.05702 0.95264 0.57505 0.0
O700 O 0.97976 0.96278 0.47432 0.0
O701 O 0.05864 0.03498 0.46365 0.0
O702 O 0.11234 0.04113 0.47569 0.0
C703 C 0.442 0.08781 0.06441 0.0
C704 C 0.47887 0.07798 0.96545 0.0
C705 C 0.45823 0.93805 0.97133 0.0
Mg706 Mg 0.51485 0.09262 0.02629 0.0
O707 O 0.49601 0.04114 0.02947 0.0
Mg708 Mg 0.44749 0.01185 0.01402 0.0
Mg709 Mg 0.52195 0.00882 1.00521 0.0
O710 O 0.54749 0.97649 0.98059 0.0
Mg711 Mg 0.52824 0.92465 0.98264 0.0
Mg712 Mg 0.59657 1.00563 0.99458 0.0
C713 C 0.58539 0.08008 0.03859 0.0
C714 C 0.57978 0.05494 0.95106 0.0
O715 O 0.4276 0.05407 0.05046 0.0
O716 O 0.47532 0.10749 0.05927 0.0
O717 O 0.45669 0.04806 0.97558 0.0
O718 O 0.50613 0.09939 0.98005 0.0
O719 O 0.56835 0.10166 0.03836 0.0
O720 O 0.57181 0.04453 0.02976 0.0
C721 C 0.46324 0.96313 0.05907 0.0
O722 O 0.49498 0.97012 0.04528 0.0
O723 O 0.44198 0.97624 0.05118 0.0
O724 O 0.61538 0.9631 0.95703 0.0
O725 O 0.56702 0.91029 0.94837 0.0
O726 O 0.58804 0.96863 0.03241 0.0
C727 C 0.60035 0.92959 0.94277 0.0
O728 O 0.53857 0.91721 0.02815 0.0
O729 O 0.47417 0.91536 0.97116 0.0
C730 C 0.5662 0.93843 0.0424 0.0
O731 O 0.47277 0.97337 0.98025 0.0
O732 O 0.54845 0.04763 0.96566 0.0
O733 O 0.60164 0.04172 0.95755 0.0
C734 C 0.95273 0.59885 0.06594 0.0
C735 C 0.99398 0.59131 0.9685 0.0
C736 C 0.96175 0.44673 0.9718 0.0
Mg737 Mg 0.0258 0.59946 0.03109 0.0
O738 O 1.00254 0.54779 0.03253 0.0
Mg739 Mg 0.95479 0.52243 0.01488 0.0
Mg740 Mg 0.0264 0.51273 0.01076 0.0
O741 O 0.04985 0.47776 0.98891 0.0
Mg742 Mg 0.02549 0.42585 0.98784 0.0
Mg743 Mg 0.09676 0.50138 1.00794 0.0
C744 C 0.09011 0.57917 0.04907 0.0
C745 C 0.09268 0.55701 0.96246 0.0
O746 O 0.9371 0.5662 0.05064 0.0
O747 O 0.98669 0.61637 0.06278 0.0
O748 O 0.96959 0.56136 0.97685 0.0
O749 O 1.02078 0.60994 0.98462 0.0
O750 O 0.07659 0.60327 0.04663 0.0
O751 O 0.07408 0.54376 0.04034 0.0
C752 C 0.96223 0.46941 0.06107 0.0
O753 O 0.99401 0.47457 0.04856 0.0
O754 O 0.9431 0.48468 0.05255 0.0
O755 O 0.11427 0.45725 0.9713 0.0
O756 O 0.0642 0.40992 0.95564 0.0
O757 O 0.07962 0.46022 0.04472 0.0
C758 C 0.09831 0.42598 0.95407 0.0
O759 O 0.02941 0.41182 0.03283 0.0
O760 O 0.97475 0.42179 0.97255 0.0
C761 C 0.0549 0.42922 0.0506 0.0
O762 O 0.97821 0.48151 0.98203 0.0
O763 O 0.05994 0.55098 0.97271 0.0
O764 O 0.11057 0.5412 0.97223 0.0
C765 C 0.4306 0.56909 0.01734 0.0
C766 C 0.49504 0.55636 0.93639 0.0
C767 C 0.47457 0.42449 0.96965 0.0
Mg768 Mg 0.5111 0.58094 1.00495 0.0
O769 O 0.49231 0.5317 0.01387 0.0
Mg770 Mg 0.45236 0.49492 0.98926 0.0
Mg771 Mg 0.52561 0.5044 1.0068 0.0
O772 O 0.55986 0.47715 1.00094 0.0
Mg773 Mg 0.53161 0.42569 0.0123 0.0
Mg774 Mg 0.60342 0.52044 0.02539 0.0
C775 C 0.56927 0.58367 0.04795 0.0
C776 C 0.59616 0.55326 0.96306 0.0
O777 O 0.42101 0.53363 0.00884 0.0
O778 O 0.46323 0.5915 0.0182 0.0
O779 O 0.47133 0.52654 0.94575 0.0
O780 O 0.51783 0.5802 0.95464 0.0
O781 O 0.55369 0.60119 0.03693 0.0
O782 O 0.56188 0.54833 0.04013 0.0
C783 C 0.45501 0.45963 0.05147 0.0
O784 O 0.48919 0.47129 0.04659 0.0
O785 O 0.43611 0.46533 0.03329 0.0
O786 O 0.58631 0.46378 0.99451 0.0
O787 O 0.57129 0.40354 0.99154 0.0
O788 O 0.58569 0.48699 0.0679 0.0
C789 C 0.59603 0.43578 0.99209 0.0
O790 O 0.53824 0.43232 0.06264 0.0
O791 O 0.48592 0.40587 0.98393 0.0
C792 C 0.56308 0.45734 0.07868 0.0
O793 O 0.48769 0.46029 0.97297 0.0
O794 O 0.56194 0.5382 0.96711 0.0
O795 O 0.61617 0.5503 0.98178 0.0
C796 C 0.94012 0.5815 0.56757 0.0
C797 C 0.97937 0.57724 0.46874 0.0
C798 C 0.95873 0.43436 0.4715 0.0
Mg799 Mg 1.0137 0.58817 0.53004 0.0
O800 O 0.99465 0.53618 0.53065 0.0
Mg801 Mg 0.94651 0.50751 0.51416 0.0
Mg802 Mg 1.02143 0.50484 0.50651 0.0
O803 O 0.04786 0.47287 0.48256 0.0
Mg804 Mg 0.02836 0.4211 0.48507 0.0
Mg805 Mg 0.09592 0.50165 0.49902 0.0
C806 C 0.08373 0.57522 0.54242 0.0
C807 C 0.08166 0.55174 0.45453 0.0
O808 O 0.92554 0.54882 0.55169 0.0
O809 O 0.97373 0.60066 0.56383 0.0
O810 O 0.95722 0.54637 0.47733 0.0
O811 O 1.00595 0.59806 0.48444 0.0
O812 O 0.06697 0.59716 0.54266 0.0
O813 O 0.07002 0.53991 0.53281 0.0
C814 C 0.96066 0.4553 0.55683 0.0
O815 O 0.99329 0.46504 0.54494 0.0
O816 O 0.93907 0.46827 0.54928 0.0
O817 O 0.11624 0.45963 0.46262 0.0
O818 O 0.06854 0.40648 0.45271 0.0
O819 O 0.08535 0.4644 0.53708 0.0
C820 C 0.10199 0.42606 0.44826 0.0
O821 O 0.03577 0.41337 0.53154 0.0
O822 O 0.97496 0.41216 0.47228 0.0
C823 C 0.06275 0.43434 0.5467 0.0
O824 O 0.97287 0.46991 0.47991 0.0
O825 O 0.04982 0.5446 0.46798 0.0
O826 O 0.10278 0.53815 0.46197 0.0
C827 C 0.45006 0.09399 0.56692 0.0
C828 C 0.49493 0.09195 0.47098 0.0
C829 C 0.4626 0.94389 0.47208 0.0
Mg830 Mg 0.52412 0.09637 0.53414 0.0
O831 O 0.50081 0.04444 0.5332 0.0
Mg832 Mg 0.45413 0.01958 0.51364 0.0
Mg833 Mg 0.52546 0.01024 0.51201 0.0
O834 O 0.54986 0.97588 0.49081 0.0
Mg835 Mg 0.52594 0.92406 0.49146 0.0
Mg836 Mg 0.59704 1.00102 0.50948 0.0
C837 C 0.58826 0.07676 0.55216 0.0
C838 C 0.59127 0.05566 0.4639 0.0
O839 O 0.435 0.06247 0.54971 0.0
O840 O 0.48407 0.11104 0.56573 0.0
O841 O 0.47066 0.06075 0.47696 0.0
O842 O 0.52041 0.10987 0.48871 0.0
O843 O 0.57466 0.10094 0.5504 0.0
O844 O 0.5727 0.04164 0.54228 0.0
C845 C 0.45909 0.96481 0.55959 0.0
O846 O 0.49203 0.97195 0.5497 0.0
O847 O 0.4404 0.97946 0.54946 0.0
O848 O 0.61525 0.95752 0.47282 0.0
O849 O 0.56519 0.90855 0.45948 0.0
O850 O 0.58118 0.9603 0.5462 0.0
C851 C 0.59922 0.92548 0.45662 0.0
O852 O 0.53032 0.91164 0.53746 0.0
O853 O 0.47547 0.91935 0.47464 0.0
C854 C 0.55698 0.92987 0.55386 0.0
O855 O 0.47864 0.97898 0.48164 0.0
O856 O 0.55843 0.04832 0.47417 0.0
O857 O 0.61044 0.04131 0.47366 0.0
H858 H 0.24303 0.14602 0.30492 0.0
H859 H 0.16678 0.1996 0.31654 0.0
H860 H 0.20727 0.10601 0.34424 0.0
H861 H 0.13095 0.15948 0.35607 0.0
H862 H 0.1642 0.08268 0.44487 0.0
H863 H 0.19484 0.11764 0.40152 0.0
H864 H 0.09391 0.09326 0.36568 0.0
H865 H 0.06288 0.05741 0.40923 0.0
C866 C 0.21851 0.14911 0.31573 0.0
C867 C 0.20805 0.17637 0.3079 0.0
C868 C 0.19806 0.12626 0.33836 0.0
C869 C 0.16647 0.12986 0.35361 0.0
C870 C 0.15505 0.15587 0.34468 0.0
C871 C 0.17564 0.1789 0.32207 0.0
C872 C 0.14832 0.08444 0.42775 0.0
C873 C 0.11087 0.06732 0.43083 0.0
C874 C 0.16603 0.10445 0.40273 0.0
C875 C 0.1469 0.10809 0.37998 0.0
C876 C 0.10943 0.0912 0.38296 0.0
C877 C 0.09161 0.07077 0.408 0.0
H878 H 0.88338 0.07747 0.28599 0.0
H879 H 0.88939 0.16472 0.36418 0.0
H880 H 0.92773 0.06265 0.3075 0.0
H881 H 0.93328 0.14988 0.38612 0.0
H882 H 0.95176 0.0137 0.38997 0.0
H883 H 0.92464 0.03352 0.35392 0.0
H884 H 0.99394 0.1484 0.37939 0.0
H885 H 1.02099 0.12857 0.4158 0.0
C886 C 0.89468 0.09372 0.30758 0.0
C887 C 0.88323 0.12209 0.32359 0.0
C888 C 0.91993 0.08528 0.31991 0.0
C889 C 0.93411 0.10511 0.34849 0.0
C890 C 0.92343 0.1345 0.36379 0.0
C891 C 0.89814 0.14285 0.35145 0.0
C892 C 0.96219 0.04304 0.38703 0.0
C893 C 0.98816 0.06959 0.40615 0.0
C894 C 0.9466 0.05444 0.36632 0.0
C895 C 0.95659 0.09265 0.36431 0.0
C896 C 0.9852 0.11882 0.3809 0.0
C897 C 1.00104 0.10737 0.40147 0.0
H898 H 0.80838 0.86328 0.33163 0.0
H899 H 0.86418 0.78722 0.31288 0.0
H900 H 0.83763 0.89158 0.38043 0.0
H901 H 0.89338 0.81531 0.36136 0.0
H902 H 0.93722 0.96058 0.43684 0.0
H903 H 0.8979 0.93014 0.39498 0.0
H904 H 0.88174 0.82214 0.419 0.0
H905 H 0.92173 0.8527 0.46083 0.0
C906 C 0.82677 0.85253 0.33806 0.0
C907 C 0.83335 0.82246 0.31898 0.0
C908 C 0.84348 0.86868 0.36594 0.0
C909 C 0.86739 0.85529 0.375 0.0
C910 C 0.87428 0.82552 0.35556 0.0
C911 C 0.85755 0.8094 0.32777 0.0
C912 C 0.92476 0.93042 0.43378 0.0
C913 C 0.933 0.90918 0.4521 0.0
C914 C 0.90206 0.91292 0.40973 0.0
C915 C 0.88706 0.87372 0.40342 0.0
C916 C 0.89345 0.85243 0.42297 0.0
C917 C 0.91615 0.86998 0.4471 0.0
H918 H 0.21831 0.83113 0.3938 0.0
H919 H 0.10979 0.76722 0.42643 0.0
H920 H 0.22108 0.87975 0.43863 0.0
H921 H 0.11343 0.81405 0.47168 0.0
H922 H 0.0967 0.89425 0.53063 0.0
H923 H 0.13794 0.8616 0.51871 0.0
H924 H 0.18216 0.91663 0.43584 0.0
H925 H 0.1413 0.94949 0.44817 0.0
C926 C 0.19551 0.82674 0.41107 0.0
C927 C 0.16308 0.7963 0.40561 0.0
C928 C 0.19742 0.85433 0.437 0.0
C929 C 0.16725 0.85123 0.45822 0.0
C930 C 0.13724 0.81749 0.45574 0.0
C931 C 0.13502 0.79043 0.4295 0.0
C932 C 0.11691 0.90112 0.51104 0.0
C933 C 0.11526 0.92303 0.4895 0.0
C934 C 0.14061 0.88256 0.50429 0.0
C935 C 0.16189 0.88514 0.47555 0.0
C936 C 0.16556 0.91349 0.45791 0.0
C937 C 0.14203 0.93233 0.46483 0.0
H938 H 0.18088 0.94707 0.71949 0.0
H939 H 0.15668 0.84412 0.65514 0.0
H940 H 0.13701 0.96165 0.69762 0.0
H941 H 0.11398 0.85921 0.63213 0.0
H942 H 0.03116 0.88538 0.59829 0.0
H943 H 0.05943 0.86781 0.6353 0.0
H944 H 0.13372 0.98239 0.65167 0.0
H945 H 0.1046 0.99999 0.61619 0.0
C946 C 0.16615 0.92761 0.70059 0.0
C947 C 0.17241 0.89469 0.68877 0.0
C948 C 0.14101 0.93592 0.68799 0.0
C949 C 0.12199 0.91183 0.66283 0.0
C950 C 0.12753 0.87822 0.65179 0.0
C951 C 0.15227 0.86965 0.66477 0.0
C952 C 0.05262 0.90703 0.61078 0.0
C953 C 0.06593 0.94399 0.6039 0.0
C954 C 0.06925 0.89686 0.63164 0.0
C955 C 0.09952 0.92343 0.646 0.0
C956 C 0.1105 0.96102 0.64131 0.0
C957 C 0.0938 0.97117 0.62072 0.0
H958 H 0.17533 0.23203 0.70154 0.0
H959 H 0.2233 0.1493 0.6883 0.0
H960 H 0.14358 0.20115 0.65455 0.0
H961 H 0.19211 0.11876 0.64106 0.0
H962 H 0.09608 0.05055 0.58258 0.0
H963 H 0.13318 0.08213 0.62592 0.0
H964 H 0.15215 0.18905 0.5979 0.0
H965 H 0.11433 0.15728 0.55471 0.0
C966 C 0.17938 0.20749 0.68839 0.0
C967 C 0.2019 0.19319 0.6985 0.0
C968 C 0.16132 0.18986 0.66137 0.0
C969 C 0.16546 0.15757 0.64386 0.0
C970 C 0.18797 0.14328 0.65414 0.0
C971 C 0.20584 0.16079 0.68123 0.0
C972 C 0.10881 0.0807 0.58512 0.0
C973 C 0.10221 0.10128 0.56506 0.0
C974 C 0.13009 0.0989 0.61011 0.0
C975 C 0.14542 0.1382 0.61563 0.0
C976 C 0.14016 0.15877 0.59471 0.0
C977 C 0.11874 0.14053 0.56976 0.0
H978 H 0.8738 0.17028 0.67541 0.0
H979 H 0.90833 0.26723 0.62717 0.0
H980 H 0.86212 0.12986 0.62627 0.0
H981 H 0.89418 0.22637 0.57723 0.0
H982 H 0.9558 0.15688 0.51528 0.0
H983 H 0.92888 0.19652 0.54852 0.0
H984 H 0.84186 0.09889 0.57835 0.0
H985 H 0.87078 0.05894 0.54598 0.0
C986 C 0.87758 0.18295 0.65426 0.0
C987 C 0.89277 0.22195 0.65499 0.0
C988 C 0.87033 0.15958 0.62582 0.0
C989 C 0.87804 0.17465 0.59731 0.0
C990 C 0.88908 0.21374 0.59857 0.0
C991 C 0.89723 0.23723 0.62711 0.0
C992 C 0.93051 0.14377 0.52846 0.0
C993 C 0.91644 0.10513 0.52968 0.0
C994 C 0.91451 0.1666 0.54726 0.0
C995 C 0.88404 0.15111 0.56764 0.0
C996 C 0.86635 0.11184 0.56413 0.0
C997 C 0.88276 0.08888 0.54552 0.0
H998 H 0.87842 0.81385 0.69477 0.0
H999 H 0.8064 0.87283 0.71251 0.0
H1000 H 0.91321 0.85327 0.65454 0.0
H1001 H 0.8413 0.91257 0.67259 0.0
H1002 H 0.88093 0.93825 0.57148 0.0
H1003 H 0.85064 0.90396 0.6155 0.0
H1004 H 0.95214 0.91653 0.64363 0.0
H1005 H 0.98262 0.95103 0.59941 0.0
C1006 C 0.87041 0.8357 0.69047 0.0
C1007 C 0.83936 0.83987 0.70647 0.0
C1008 C 0.89036 0.85834 0.66741 0.0
C1009 C 0.87981 0.8858 0.65993 0.0
C1010 C 0.84979 0.89118 0.6772 0.0
C1011 C 0.82991 0.8686 0.70024 0.0
C1012 C 0.89694 0.93397 0.58708 0.0
C1013 C 0.93434 0.9473 0.5816 0.0
C1014 C 0.8795 0.9144 0.61251 0.0
C1015 C 0.89888 0.90752 0.63329 0.0
C1016 C 0.93631 0.92095 0.62795 0.0
C1017 C 0.95381 0.94074 0.60253 0.0
H1018 H 0.31534 0.15671 0.22688 0.0
H1019 H 0.32273 0.22618 0.1574 0.0
H1020 H 0.34866 0.12466 0.1893 0.0
H1021 H 0.35634 0.19449 0.12015 0.0
H1022 H 0.45504 0.16229 0.08211 0.0
H1023 H 0.41856 0.19125 0.11849 0.0
H1024 H 0.34167 0.08202 0.13452 0.0
H1025 H 0.37792 0.05278 0.09751 0.0
C1026 C 0.32396 0.16509 0.2036 0.0
C1027 C 0.31632 0.19405 0.1952 0.0
C1028 C 0.34289 0.14658 0.18202 0.0
C1029 C 0.35525 0.15709 0.15176 0.0
C1030 C 0.34741 0.18589 0.14333 0.0
C1031 C 0.32795 0.20391 0.16466 0.0
C1032 C 0.43035 0.14434 0.09333 0.0
C1033 C 0.41947 0.10513 0.0868 0.0
C1034 C 0.40934 0.16099 0.11406 0.0
C1035 C 0.37717 0.13897 0.12937 0.0
C1036 C 0.36638 0.09976 0.12318 0.0
C1037 C 0.38708 0.08302 0.10187 0.0
H1038 H 0.81171 0.29412 0.15614 0.0
H1039 H 0.87265 0.36485 0.23284 0.0
H1040 H 0.85413 0.33376 0.11877 0.0
H1041 H 0.91451 0.40525 0.19548 0.0
H1042 H 0.92417 0.48423 0.11473 0.0
H1043 H 0.89288 0.44309 0.15473 0.0
H1044 H 0.93223 0.35943 0.10398 0.0
H1045 H 0.96467 0.40126 0.06419 0.0
C1046 C 0.83412 0.31825 0.16493 0.0
C1047 C 0.83891 0.32677 0.19726 0.0
C1048 C 0.85852 0.34055 0.14359 0.0
C1049 C 0.88752 0.37225 0.15439 0.0
C1050 C 0.89239 0.38076 0.18671 0.0
C1051 C 0.86846 0.35788 0.20798 0.0
C1052 C 0.92666 0.45732 0.11242 0.0
C1053 C 0.94681 0.44584 0.08649 0.0
C1054 C 0.90892 0.43396 0.13531 0.0
C1055 C 0.9103 0.39832 0.13228 0.0
C1056 C 0.93102 0.38696 0.10673 0.0
C1057 C 0.94961 0.41085 0.08417 0.0
H1058 H 0.60345 0.84396 0.19734 0.0
H1059 H 0.70431 0.89557 0.14467 0.0
H1060 H 0.57307 0.86057 0.16117 0.0
H1061 H 0.67398 0.91154 0.10847 0.0
H1062 H 0.61974 0.9796 0.08005 0.0
H1063 H 0.64346 0.95782 0.11718 0.0
H1064 H 0.55971 0.84862 0.10266 0.0
H1065 H 0.53558 0.87039 0.06493 0.0
C1066 C 0.61904 0.85849 0.17787 0.0
C1067 C 0.6563 0.86871 0.17394 0.0
C1068 C 0.60162 0.86776 0.15712 0.0
C1069 C 0.62126 0.88777 0.13234 0.0
C1070 C 0.65827 0.89659 0.1277 0.0
C1071 C 0.67559 0.88709 0.14821 0.0
C1072 C 0.60598 0.951 0.08488 0.0
C1073 C 0.57603 0.92654 0.06906 0.0
C1074 C 0.61979 0.9385 0.10605 0.0
C1075 C 0.60393 0.90132 0.11219 0.0
C1076 C 0.57257 0.87739 0.09813 0.0
C1077 C 0.55875 0.88989 0.07662 0.0
H1078 H 0.19097 0.64769 0.21664 0.0
H1079 H 0.27611 0.71415 0.1556 0.0
H1080 H 0.15871 0.61124 0.17092 0.0
H1081 H 0.2436 0.67792 0.1095 0.0
H1082 H 0.14069 0.64986 0.05559 0.0
H1083 H 0.18613 0.6764 0.09304 0.0
H1084 H 0.15832 0.56717 0.12012 0.0
H1085 H 0.11264 0.54041 0.08242 0.0
C1086 C 0.20315 0.65374 0.19326 0.0
C1087 C 0.23595 0.68355 0.1895 0.0
C1088 C 0.18477 0.63283 0.16706 0.0
C1089 C 0.19854 0.64169 0.13654 0.0
C1090 C 0.23228 0.67046 0.13271 0.0
C1091 C 0.25101 0.69098 0.15898 0.0
C1092 C 0.14485 0.63126 0.06891 0.0
C1093 C 0.1228 0.59304 0.06616 0.0
C1094 C 0.17108 0.64649 0.09029 0.0
C1095 C 0.1757 0.62396 0.10973 0.0
C1096 C 0.1552 0.58529 0.10561 0.0
C1097 C 0.12922 0.56991 0.08384 0.0
H1098 H 0.32132 0.87034 0.81872 0.0
H1099 H 0.31734 0.77179 0.85275 0.0
H1100 H 0.34771 0.90873 0.86631 0.0
H1101 H 0.34706 0.80979 0.89799 0.0
H1102 H 0.39887 0.8759 0.98025 0.0
H1103 H 0.3514 0.84484 0.94503 0.0
H1104 H 0.40011 0.93506 0.88803 0.0
H1105 H 0.44468 0.96742 0.92535 0.0
C1106 C 0.32587 0.85685 0.83646 0.0
C1107 C 0.31734 0.81804 0.83186 0.0
C1108 C 0.34156 0.87893 0.86364 0.0
C1109 C 0.35014 0.86282 0.88634 0.0
C1110 C 0.34044 0.82371 0.88187 0.0
C1111 C 0.32383 0.80169 0.85535 0.0
C1112 C 0.39837 0.88948 0.96076 0.0
C1113 C 0.42534 0.92374 0.95525 0.0
C1114 C 0.37158 0.87147 0.94014 0.0
C1115 C 0.3724 0.88641 0.91261 0.0
C1116 C 0.39804 0.92232 0.90873 0.0
C1117 C 0.42389 0.94101 0.93014 0.0
H1118 H 0.25594 0.36706 0.81858 0.0
H1119 H 0.17189 0.26108 0.83356 0.0
H1120 H 0.22349 0.39965 0.85579 0.0
H1121 H 0.14035 0.29348 0.87219 0.0
H1122 H 0.07337 0.36333 0.91099 0.0
H1123 H 0.10695 0.33162 0.87469 0.0
H1124 H 0.20508 0.41306 0.9101 0.0
H1125 H 0.17133 0.44567 0.94606 0.0
C1126 C 0.23068 0.35062 0.83007 0.0
C1127 C 0.21666 0.31133 0.82315 0.0
C1128 C 0.21219 0.36937 0.85171 0.0
C1129 C 0.1792 0.34936 0.86717 0.0
C1130 C 0.16542 0.30998 0.8605 0.0
C1131 C 0.18378 0.29127 0.83864 0.0
C1132 C 0.10213 0.37465 0.91115 0.0
C1133 C 0.11954 0.40718 0.93165 0.0
C1134 C 0.12144 0.35616 0.89038 0.0
C1135 C 0.15882 0.36944 0.88949 0.0
C1136 C 0.17636 0.40213 0.90984 0.0
C1137 C 0.15697 0.4208 0.93062 0.0
H1138 H 0.72067 0.24563 0.86643 0.0
H1139 H 0.67203 0.17091 0.78543 0.0
H1140 H 0.67893 0.20177 0.90126 0.0
H1141 H 0.63084 0.12665 0.82012 0.0
H1142 H 0.61449 0.04354 0.89436 0.0
H1143 H 0.64546 0.08864 0.85741 0.0
H1144 H 0.6078 0.16947 0.91646 0.0
H1145 H 0.57593 0.12369 0.9533 0.0
C1146 C 0.70076 0.21999 0.85619 0.0
C1147 C 0.69942 0.21155 0.82335 0.0
C1148 C 0.67679 0.19506 0.87606 0.0
C1149 C 0.65155 0.16092 0.86337 0.0
C1150 C 0.64994 0.15282 0.8305 0.0
C1151 C 0.67336 0.17814 0.81071 0.0
C1152 C 0.61204 0.0706 0.89901 0.0
C1153 C 0.5925 0.08002 0.92648 0.0
C1154 C 0.62977 0.09639 0.87789 0.0
C1155 C 0.62909 0.13254 0.88412 0.0
C1156 C 0.60875 0.14175 0.91116 0.0
C1157 C 0.59022 0.1155 0.93201 0.0
H1158 H 0.9266 0.63241 0.80071 0.0
H1159 H 0.93582 0.72936 0.87015 0.0
H1160 H 0.94975 0.60747 0.83625 0.0
H1161 H 0.95805 0.70377 0.9062 0.0
H1162 H 0.02676 0.66269 0.95279 0.0
H1163 H 1.00992 0.68916 0.91355 0.0
H1164 H 0.9299 0.58088 0.88521 0.0
H1165 H 0.9469 0.55445 0.92383 0.0
C1166 C 0.93371 0.64853 0.82353 0.0
C1167 C 0.92941 0.68299 0.83248 0.0
C1168 C 0.94672 0.63404 0.84404 0.0
C1169 C 0.95588 0.65361 0.8741 0.0
C1170 C 0.95172 0.68817 0.88307 0.0
C1171 C 0.93852 0.70262 0.86256 0.0
C1172 C 1.00607 0.6444 0.93774 0.0
C1173 C 0.98818 0.60643 0.94157 0.0
C1174 C 0.99612 0.65968 0.91551 0.0
C1175 C 0.96832 0.63725 0.89638 0.0
C1176 C 0.95157 0.59897 0.89932 0.0
C1177 C 0.96131 0.5838 0.9216 0.0
H1178 H 0.11326 0.27933 0.13291 0.0
H1179 H 0.09423 0.35274 0.21457 0.0
H1180 H 0.09857 0.31411 0.09882 0.0
H1181 H 0.08021 0.38796 0.18063 0.0
H1182 H 0.09668 0.46108 0.1 0.0
H1183 H 0.11156 0.42884 0.13586 0.0
H1184 H 0.03959 0.32282 0.09295 0.0
H1185 H 0.02422 0.3549 0.05734 0.0
C1186 C 0.10664 0.30338 0.14341 0.0
C1187 C 0.10503 0.31361 0.17622 0.0
C1188 C 0.09788 0.32299 0.12404 0.0
C1189 C 0.08796 0.35353 0.13716 0.0
C1190 C 0.08782 0.36461 0.1699 0.0
C1191 C 0.0959 0.34458 0.18927 0.0
C1192 C 0.08353 0.43095 0.09857 0.0
C1193 C 0.05925 0.4106 0.07577 0.0
C1194 C 0.09214 0.41252 0.11905 0.0
C1195 C 0.07714 0.37331 0.11683 0.0
C1196 C 0.05196 0.35304 0.09482 0.0
C1197 C 0.04286 0.3715 0.07471 0.0
H1198 H 0.17549 0.64911 0.78718 0.0
H1199 H 0.25078 0.72221 0.85327 0.0
H1200 H 0.13647 0.61703 0.83028 0.0
H1201 H 0.21197 0.69057 0.89631 0.0
H1202 H 0.16406 0.58937 0.94983 0.0
H1203 H 0.19677 0.628 0.90951 0.0
H1204 H 0.09813 0.6237 0.88129 0.0
H1205 H 0.06459 0.58381 0.92214 0.0
C1206 C 0.18343 0.65848 0.81101 0.0
C1207 C 0.21609 0.68791 0.81702 0.0
C1208 C 0.16104 0.64035 0.83566 0.0
C1209 C 0.17118 0.65121 0.86668 0.0
C1210 C 0.20359 0.68128 0.87262 0.0
C1211 C 0.2259 0.69927 0.84802 0.0
C1212 C 0.14907 0.5966 0.93523 0.0
C1213 C 0.11158 0.58312 0.93907 0.0
C1214 C 0.16799 0.61916 0.91223 0.0
C1215 C 0.15011 0.62904 0.89226 0.0
C1216 C 0.11259 0.61629 0.89628 0.0
C1217 C 0.09344 0.5937 0.91972 0.0
H1218 H 0.44042 0.17603 0.81359 0.0
H1219 H 0.33925 0.11313 0.86045 0.0
H1220 H 0.4715 0.1587 0.84862 0.0
H1221 H 0.37021 0.09647 0.89561 0.0
H1222 H 0.42968 0.03458 0.92443 0.0
H1223 H 0.40551 0.05513 0.88668 0.0
H1224 H 0.48211 0.16771 0.90698 0.0
H1225 H 0.50667 0.14713 0.94516 0.0
C1226 C 0.42489 0.15868 0.83146 0.0
C1227 C 0.38741 0.1457 0.83419 0.0
C1228 C 0.44267 0.14902 0.85158 0.0
C1229 C 0.42323 0.12588 0.87449 0.0
C1230 C 0.38584 0.11386 0.87778 0.0
C1231 C 0.36813 0.12372 0.85789 0.0
C1232 C 0.44181 0.06366 0.92064 0.0
C1233 C 0.46975 0.08938 0.93821 0.0
C1234 C 0.42776 0.07543 0.89913 0.0
C1235 C 0.44138 0.11315 0.89451 0.0
C1236 C 0.47102 0.13847 0.91027 0.0
C1237 C 0.48511 0.12667 0.93203 0.0
H1238 H 0.86452 0.37994 0.80577 0.0
H1239 H 0.77192 0.32607 0.8668 0.0
H1240 H 0.89635 0.41657 0.85165 0.0
H1241 H 0.80427 0.36202 0.91314 0.0
H1242 H 0.94234 0.48861 0.93949 0.0
H1243 H 0.89607 0.46526 0.90248 0.0
H1244 H 0.86129 0.35498 0.92944 0.0
H1245 H 0.90785 0.37802 0.96593 0.0
C1246 C 0.85066 0.37693 0.82908 0.0
C1247 C 0.81579 0.35062 0.83289 0.0
C1248 C 0.86882 0.39786 0.85533 0.0
C1249 C 0.85279 0.39214 0.88596 0.0
C1250 C 0.81717 0.36705 0.88978 0.0
C1251 C 0.79862 0.34675 0.86337 0.0
C1252 C 0.9241 0.45968 0.93825 0.0
C1253 C 0.92891 0.43508 0.95545 0.0
C1254 C 0.89773 0.4463 0.91697 0.0
C1255 C 0.87516 0.4083 0.91305 0.0
C1256 C 0.87807 0.38446 0.93218 0.0
C1257 C 0.90486 0.39763 0.95294 0.0
H1258 H 0.70772 0.78202 0.84741 0.0
H1259 H 0.73478 0.86317 0.78334 0.0
H1260 H 0.67396 0.81448 0.88318 0.0
H1261 H 0.70049 0.89581 0.8193 0.0
H1262 H 0.66727 0.96331 0.91293 0.0
H1263 H 0.70232 0.93309 0.87538 0.0
H1264 H 0.6176 0.82554 0.88263 0.0
H1265 H 0.58262 0.8554 0.91971 0.0
C1266 C 0.70672 0.80703 0.84107 0.0
C1267 C 0.7243 0.8202 0.81265 0.0
C1268 C 0.68703 0.82546 0.86147 0.0
C1269 C 0.68448 0.85782 0.85418 0.0
C1270 C 0.70218 0.87118 0.82578 0.0
C1271 C 0.7216 0.85236 0.80509 0.0
C1272 C 0.6561 0.93323 0.90648 0.0
C1273 C 0.62204 0.91189 0.91953 0.0
C1274 C 0.67612 0.91594 0.88479 0.0
C1275 C 0.66285 0.87685 0.87606 0.0
C1276 C 0.62881 0.85564 0.88903 0.0
C1277 C 0.60865 0.87288 0.91024 0.0
H1278 H 0.78128 0.66002 0.17772 0.0
H1279 H 0.87802 0.74935 0.20691 0.0
H1280 H 0.81595 0.63046 0.1398 0.0
H1281 H 0.91326 0.71853 0.17139 0.0
H1282 H 0.97051 0.67341 0.08724 0.0
H1283 H 0.9349 0.70396 0.12203 0.0
H1284 H 0.85053 0.59599 0.13099 0.0
H1285 H 0.88546 0.56597 0.09423 0.0
C1286 C 0.81012 0.67296 0.17622 0.0
C1287 C 0.82708 0.70686 0.19509 0.0
C1288 C 0.83018 0.65588 0.15468 0.0
C1289 C 0.86783 0.67164 0.15226 0.0
C1290 C 0.88453 0.70565 0.17163 0.0
C1291 C 0.86439 0.72333 0.19232 0.0
C1292 C 0.94428 0.65621 0.09657 0.0
C1293 C 0.93088 0.61721 0.08785 0.0
C1294 C 0.92378 0.67376 0.11692 0.0
C1295 C 0.88949 0.65278 0.12987 0.0
C1296 C 0.87631 0.61357 0.12124 0.0
C1297 C 0.89653 0.59612 0.10026 0.0
H1298 H 0.38966 0.81536 0.20883 0.0
H1299 H 0.29971 0.8112 0.1656 0.0
H1300 H 0.43044 0.85572 0.17068 0.0
H1301 H 0.33969 0.85215 0.12856 0.0
H1302 H 0.41185 0.96584 0.10528 0.0
H1303 H 0.37995 0.92131 0.14173 0.0
H1304 H 0.44937 0.8606 0.10822 0.0
H1305 H 0.48182 0.90579 0.07083 0.0
C1306 C 0.37866 0.82277 0.19096 0.0
C1307 C 0.34152 0.81154 0.19083 0.0
C1308 C 0.40193 0.84579 0.1692 0.0
C1309 C 0.38823 0.85783 0.14716 0.0
C1310 C 0.35107 0.8442 0.14581 0.0
C1311 C 0.32808 0.82118 0.16726 0.0
C1312 C 0.42073 0.94325 0.10565 0.0
C1313 C 0.44908 0.93907 0.08462 0.0
C1314 C 0.40228 0.91763 0.12657 0.0
C1315 C 0.41157 0.88696 0.12731 0.0
C1316 C 0.44149 0.88389 0.10795 0.0
C1317 C 0.46012 0.90979 0.08666 0.0
H1318 H 0.69702 0.13967 0.20107 0.0
H1319 H 0.75732 0.23243 0.14959 0.0
H1320 H 0.66608 0.10464 0.15414 0.0
H1321 H 0.72845 0.19709 0.10231 0.0
H1322 H 0.62735 0.15367 0.04975 0.0
H1323 H 0.67175 0.18242 0.08729 0.0
H1324 H 0.6646 0.07312 0.10114 0.0
H1325 H 0.61849 0.04407 0.06409 0.0
C1326 C 0.70417 0.15208 0.17944 0.0
C1327 C 0.72881 0.18885 0.17895 0.0
C1328 C 0.68676 0.13201 0.15247 0.0
C1329 C 0.69434 0.14824 0.12445 0.0
C1330 C 0.72113 0.18408 0.12362 0.0
C1331 C 0.73775 0.20434 0.15067 0.0
C1332 C 0.63573 0.13567 0.06022 0.0
C1333 C 0.61895 0.09658 0.05429 0.0
C1334 C 0.66153 0.15222 0.08172 0.0
C1335 C 0.6716 0.13014 0.09767 0.0
C1336 C 0.65697 0.09096 0.08976 0.0
C1337 C 0.6309 0.0743 0.0682 0.0
H1338 H 0.66095 0.69431 0.81116 0.0
H1339 H 0.74769 0.6584 0.81371 0.0
H1340 H 0.62695 0.65702 0.85312 0.0
H1341 H 0.71374 0.62094 0.85493 0.0
H1342 H 0.66626 0.59786 0.95343 0.0
H1343 H 0.69593 0.63285 0.90987 0.0
H1344 H 0.59607 0.5933 0.86768 0.0
H1345 H 0.56605 0.55805 0.91174 0.0
C1346 C 0.67255 0.67803 0.82029 0.0
C1347 C 0.70718 0.67958 0.80917 0.0
C1348 C 0.65303 0.65662 0.84433 0.0
C1349 C 0.66774 0.6363 0.85776 0.0
C1350 C 0.70183 0.63686 0.84572 0.0
C1351 C 0.72127 0.65821 0.82185 0.0
C1352 C 0.65045 0.59642 0.93492 0.0
C1353 C 0.61362 0.57499 0.93625 0.0
C1354 C 0.6676 0.61645 0.90975 0.0
C1355 C 0.64856 0.61565 0.88497 0.0
C1356 C 0.61157 0.59476 0.88643 0.0
C1357 C 0.59432 0.57454 0.91173 0.0
H1358 H 0.38793 0.58589 0.78846 0.0
H1359 H 0.38423 0.65888 0.87539 0.0
H1360 H 0.43313 0.5701 0.80782 0.0
H1361 H 0.42951 0.64377 0.89452 0.0
H1362 H 0.52121 0.6267 0.91933 0.0
H1363 H 0.49418 0.64816 0.88419 0.0
H1364 H 0.42753 0.53383 0.85351 0.0
H1365 H 0.45427 0.5122 0.88872 0.0
C1366 C 0.39738 0.59909 0.8114 0.0
C1367 C 0.38259 0.62338 0.83058 0.0
C1368 C 0.42312 0.59006 0.82246 0.0
C1369 C 0.435 0.60586 0.85258 0.0
C1370 C 0.42132 0.63157 0.87103 0.0
C1371 C 0.3952 0.63999 0.86024 0.0
C1372 C 0.50185 0.60595 0.90419 0.0
C1373 C 0.48938 0.56773 0.90738 0.0
C1374 C 0.48615 0.61834 0.88425 0.0
C1375 C 0.45821 0.59272 0.86666 0.0
C1376 C 0.44895 0.55425 0.86683 0.0
C1377 C 0.46432 0.54186 0.88705 0.0
H1378 H 0.33489 0.37034 0.81958 0.0
H1379 H 0.35724 0.27078 0.81641 0.0
H1380 H 0.37236 0.40066 0.86306 0.0
H1381 H 0.39065 0.29879 0.86192 0.0
H1382 H 0.47728 0.36747 0.92535 0.0
H1383 H 0.44176 0.33908 0.88077 0.0
H1384 H 0.37799 0.40634 0.91553 0.0
H1385 H 0.41594 0.4368 0.95875 0.0
C1386 C 0.34749 0.35476 0.82836 0.0
C1387 C 0.34248 0.31784 0.8148 0.0
C1388 C 0.36857 0.37193 0.85374 0.0
C1389 C 0.38454 0.35229 0.86664 0.0
C1390 C 0.37956 0.3154 0.85269 0.0
C1391 C 0.35953 0.2988 0.82678 0.0
C1392 C 0.45537 0.37581 0.92356 0.0
C1393 C 0.44925 0.40418 0.94552 0.0
C1394 C 0.43474 0.3594 0.89797 0.0
C1395 C 0.40655 0.37005 0.89418 0.0
C1396 C 0.39984 0.39783 0.91694 0.0
C1397 C 0.42133 0.4151 0.94203 0.0
H1398 H 0.64792 0.29775 0.92084 0.0
H1399 H 0.72837 0.38531 0.87264 0.0
H1400 H 0.65825 0.33893 0.96991 0.0
H1401 H 0.74107 0.42529 0.92222 0.0
H1402 H 0.65426 0.47666 0.95771 0.0
H1403 H 0.7031 0.45628 0.93918 0.0
H1404 H 0.6713 0.38499 0.01239 0.0
H1405 H 0.62073 0.40404 0.02944 0.0
C1406 C 0.66863 0.32538 0.9208 0.0
C1407 C 0.68506 0.33905 0.8924 0.0
C1408 C 0.67531 0.3491 0.9493 0.0
C1409 C 0.69854 0.38695 0.94972 0.0
C1410 C 0.72125 0.3972 0.92245 0.0
C1411 C 0.71394 0.37387 0.89379 0.0
C1412 C 0.6588 0.45805 0.97076 0.0
C1413 C 0.63293 0.44005 0.99353 0.0
C1414 C 0.68708 0.44619 0.96026 0.0
C1415 C 0.68904 0.41597 0.97241 0.0
C1416 C 0.66886 0.40615 1.00096 0.0
C1417 C 0.63992 0.4171 0.01084 0.0
H1418 H 0.62878 0.36681 0.22061 0.0
H1419 H 0.7132 0.46878 0.19667 0.0
H1420 H 0.58979 0.37564 0.18746 0.0
H1421 H 0.67498 0.47731 0.16341 0.0
H1422 H 0.5962 0.50685 0.12783 0.0
H1423 H 0.62461 0.49427 0.16761 0.0
H1424 H 0.58006 0.37595 0.1337 0.0
H1425 H 0.55049 0.38858 0.09459 0.0
C1426 C 0.63909 0.39088 0.20804 0.0
C1427 C 0.6739 0.41739 0.21161 0.0
C1428 C 0.61675 0.39601 0.1891 0.0
C1429 C 0.62887 0.42768 0.17327 0.0
C1430 C 0.66417 0.4533 0.17607 0.0
C1431 C 0.68626 0.4483 0.19501 0.0
C1432 C 0.59154 0.47805 0.12952 0.0
C1433 C 0.57123 0.44877 0.10794 0.0
C1434 C 0.60826 0.47082 0.15204 0.0
C1435 C 0.6056 0.43417 0.15329 0.0
C1436 C 0.58281 0.40452 0.13345 0.0
C1437 C 0.56566 0.41175 0.11108 0.0
H1438 H 0.68398 0.74266 0.2004 0.0
H1439 H 0.70976 0.64536 0.19834 0.0
H1440 H 0.6498 0.71226 0.15522 0.0
H1441 H 0.67285 0.6134 0.15473 0.0
H1442 H 0.63171 0.57753 0.05766 0.0
H1443 H 0.66904 0.6097 0.10104 0.0
H1444 H 0.59737 0.66714 0.13899 0.0
H1445 H 0.56148 0.6364 0.09479 0.0
C1446 C 0.68218 0.71464 0.19042 0.0
C1447 C 0.70002 0.69668 0.20277 0.0
C1448 C 0.66205 0.69686 0.16467 0.0
C1449 C 0.65836 0.66018 0.15107 0.0
C1450 C 0.67556 0.64188 0.16402 0.0
C1451 C 0.69633 0.66001 0.18942 0.0
C1452 C 0.62406 0.59705 0.07524 0.0
C1453 C 0.59369 0.60443 0.07281 0.0
C1454 C 0.64537 0.61546 0.1003 0.0
C1455 C 0.63634 0.64111 0.12382 0.0
C1456 C 0.60586 0.64836 0.12114 0.0
C1457 C 0.5851 0.6306 0.09579 0.0
H1458 H 0.44363 0.75009 0.12372 0.0
H1459 H 0.35014 0.67554 0.17269 0.0
H1460 H 0.42913 0.70736 0.07547 0.0
H1461 H 0.33358 0.6355 0.12388 0.0
H1462 H 0.38072 0.54908 0.06587 0.0
H1463 H 0.35915 0.59266 0.1011 0.0
H1464 H 0.399 0.67016 0.03232 0.0
H1465 H 0.42255 0.62687 0.99799 0.0
C1466 C 0.41951 0.72524 0.12415 0.0
C1467 C 0.39914 0.71584 0.15262 0.0
C1468 C 0.41056 0.70099 0.09614 0.0
C1469 C 0.38058 0.66715 0.09589 0.0
C1470 C 0.35745 0.66064 0.1234 0.0
C1471 C 0.36693 0.6842 0.15155 0.0
C1472 C 0.38316 0.57458 0.0577 0.0
C1473 C 0.4039 0.5853 0.02985 0.0
C1474 C 0.37077 0.59982 0.07789 0.0
C1475 C 0.37876 0.63584 0.07013 0.0
C1476 C 0.39371 0.64333 0.03954 0.0
C1477 C 0.40685 0.61844 0.01972 0.0
H1478 H 0.30686 0.36943 0.20952 0.0
H1479 H 0.37755 0.30896 0.19499 0.0
H1480 H 0.34223 0.40685 0.16833 0.0
H1481 H 0.413 0.34644 0.15372 0.0
H1482 H 0.48427 0.44464 0.09838 0.0
H1483 H 0.45281 0.41066 0.14276 0.0
H1484 H 0.35206 0.3946 0.11082 0.0
H1485 H 0.3832 0.42818 0.06666 0.0
C1486 C 0.33008 0.36428 0.19764 0.0
C1487 C 0.33912 0.33592 0.20526 0.0
C1488 C 0.35028 0.38561 0.17394 0.0
C1489 C 0.38024 0.37937 0.15744 0.0
C1490 C 0.39022 0.35212 0.16605 0.0
C1491 C 0.36987 0.33062 0.18969 0.0
C1492 C 0.45544 0.43363 0.10067 0.0
C1493 C 0.4364 0.43907 0.07871 0.0
C1494 C 0.43739 0.41417 0.12616 0.0
C1495 C 0.39989 0.40009 0.13048 0.0
C1496 C 0.38094 0.40559 0.10855 0.0
C1497 C 0.3989 0.42473 0.08304 0.0
H1498 H 0.77623 0.64528 0.69511 0.0
H1499 H 0.8704 0.74586 0.69092 0.0
H1500 H 0.80743 0.60989 0.65888 0.0
H1501 H 0.90125 0.71132 0.65443 0.0
H1502 H 0.96255 0.63801 0.6161 0.0
H1503 H 0.92827 0.66898 0.65224 0.0
H1504 H 0.83277 0.59639 0.60733 0.0
H1505 H 0.86728 0.56405 0.57177 0.0
C1506 C 0.80339 0.65995 0.68605 0.0
C1507 C 0.82074 0.69843 0.69593 0.0
C1508 C 0.8214 0.63966 0.66524 0.0
C1509 C 0.85728 0.65738 0.65377 0.0
C1510 C 0.8741 0.69614 0.66323 0.0
C1511 C 0.85624 0.7162 0.68408 0.0
C1512 C 0.9342 0.62843 0.6139 0.0
C1513 C 0.91785 0.59858 0.59072 0.0
C1514 C 0.91443 0.64654 0.63459 0.0
C1515 C 0.87759 0.63596 0.63259 0.0
C1516 C 0.86096 0.6054 0.60988 0.0
C1517 C 0.8808 0.58685 0.58934 0.0
H1518 H 0.35912 0.87027 0.73222 0.0
H1519 H 0.32408 0.77819 0.6574 0.0
H1520 H 0.39824 0.91039 0.69324 0.0
H1521 H 0.36253 0.81801 0.61883 0.0
H1522 H 0.38912 0.92103 0.56537 0.0
H1523 H 0.35721 0.88031 0.60509 0.0
H1524 H 0.45542 0.90853 0.647 0.0
H1525 H 0.48807 0.94927 0.60638 0.0
C1526 C 0.35973 0.85877 0.7075 0.0
C1527 C 0.33852 0.82134 0.69769 0.0
C1528 C 0.38234 0.88144 0.68537 0.0
C1529 C 0.3834 0.86708 0.65317 0.0
C1530 C 0.3622 0.82965 0.64353 0.0
C1531 C 0.34016 0.80698 0.66557 0.0
C1532 C 0.40408 0.91855 0.58293 0.0
C1533 C 0.44108 0.93851 0.58288 0.0
C1534 C 0.38577 0.89516 0.60559 0.0
C1535 C 0.40387 0.89159 0.62911 0.0
C1536 C 0.44094 0.91119 0.62915 0.0
C1537 C 0.45956 0.93418 0.60588 0.0
H1538 H 0.19677 0.39776 0.65816 0.0
H1539 H 0.09328 0.32976 0.69795 0.0
H1540 H 0.16823 0.41618 0.62218 0.0
H1541 H 0.06461 0.34915 0.66239 0.0
H1542 H 0.03413 0.36468 0.56609 0.0
H1543 H 0.05685 0.34333 0.60504 0.0
H1544 H 0.13291 0.45571 0.62779 0.0
H1545 H 0.11069 0.47692 0.58908 0.0
C1546 C 0.16792 0.38654 0.65908 0.0
C1547 C 0.1473 0.36245 0.68101 0.0
C1548 C 0.15155 0.39745 0.63873 0.0
C1549 C 0.11415 0.38451 0.63977 0.0
C1550 C 0.09346 0.35958 0.66107 0.0
C1551 C 0.10988 0.34876 0.68158 0.0
C1552 C 0.0552 0.38492 0.57988 0.0
C1553 C 0.07095 0.42236 0.57413 0.0
C1554 C 0.06825 0.37268 0.60211 0.0
C1555 C 0.09721 0.39771 0.61891 0.0
C1556 C 0.11123 0.43556 0.6146 0.0
C1557 C 0.09826 0.44774 0.59253 0.0
H1558 H 0.68025 0.15759 0.72237 0.0
H1559 H 0.77449 0.20482 0.66061 0.0
H1560 H 0.64856 0.1185 0.67703 0.0
H1561 H 0.74238 0.16642 0.61489 0.0
H1562 H 0.60537 0.03858 0.59006 0.0
H1563 H 0.6494 0.0656 0.62932 0.0
H1564 H 0.68682 0.17186 0.59437 0.0
H1565 H 0.64234 0.14528 0.55581 0.0
C1566 C 0.69438 0.15887 0.6991 0.0
C1567 C 0.72973 0.18408 0.69489 0.0
C1568 C 0.67632 0.13645 0.67317 0.0
C1569 C 0.69301 0.13939 0.64242 0.0
C1570 C 0.72895 0.16349 0.63833 0.0
C1571 C 0.74734 0.18527 0.66444 0.0
C1572 C 0.62372 0.06738 0.59014 0.0
C1573 C 0.62027 0.08988 0.56996 0.0
C1574 C 0.64875 0.08288 0.61273 0.0
C1575 C 0.6714 0.12088 0.61499 0.0
C1576 C 0.66989 0.14247 0.59308 0.0
C1577 C 0.64436 0.12725 0.57103 0.0
H1578 H 0.8314 0.27213 0.34387 0.0
H1579 H 0.79978 0.3626 0.33427 0.0
H1580 H 0.86241 0.30859 0.38912 0.0
H1581 H 0.83013 0.39907 0.38105 0.0
H1582 H 0.93596 0.46561 0.4321 0.0
H1583 H 0.88961 0.43216 0.39596 0.0
H1584 H 0.85797 0.33372 0.44211 0.0
H1585 H 0.90577 0.36663 0.47679 0.0
C1586 C 0.83049 0.29965 0.35171 0.0
C1587 C 0.8132 0.31444 0.33515 0.0
C1588 C 0.84806 0.32054 0.37811 0.0
C1589 C 0.8486 0.3568 0.38912 0.0
C1590 C 0.83047 0.37135 0.37314 0.0
C1591 C 0.81295 0.35038 0.34639 0.0
C1592 C 0.91838 0.43715 0.43501 0.0
C1593 C 0.92476 0.41837 0.45674 0.0
C1594 C 0.89173 0.41792 0.41432 0.0
C1595 C 0.87067 0.37981 0.41545 0.0
C1596 C 0.87454 0.36261 0.43977 0.0
C1597 C 0.90166 0.38151 0.45988 0.0
H1598 H 0.75008 0.82379 0.36054 0.0
H1599 H 0.67764 0.80577 0.29117 0.0
H1600 H 0.71764 0.85612 0.39868 0.0
H1601 H 0.64574 0.83924 0.32868 0.0
H1602 H 0.57366 0.86245 0.41413 0.0
H1603 H 0.60683 0.83086 0.37707 0.0
H1604 H 0.70575 0.91437 0.40901 0.0
H1605 H 0.67234 0.94608 0.44676 0.0
C1606 C 0.72691 0.82635 0.35365 0.0
C1607 C 0.71592 0.81176 0.32318 0.0
C1608 C 0.70867 0.84545 0.37527 0.0
C1609 C 0.67899 0.85031 0.36684 0.0
C1610 C 0.66816 0.83565 0.33618 0.0
C1611 C 0.6865 0.81669 0.31461 0.0
C1612 C 0.60249 0.87426 0.41341 0.0
C1613 C 0.62023 0.90694 0.43362 0.0
C1614 C 0.62156 0.85616 0.39189 0.0
C1615 C 0.659 0.87004 0.38992 0.0
C1616 C 0.67689 0.90269 0.41011 0.0
C1617 C 0.65775 0.92102 0.43162 0.0
H1618 H 0.22677 0.73937 0.36622 0.0
H1619 H 0.17773 0.66086 0.28698 0.0
H1620 H 0.18546 0.69693 0.40244 0.0
H1621 H 0.13697 0.61843 0.32296 0.0
H1622 H 0.11733 0.53844 0.39913 0.0
H1623 H 0.15055 0.58233 0.36181 0.0
H1624 H 0.11388 0.66573 0.41758 0.0
H1625 H 0.07968 0.62107 0.4549 0.0
C1626 C 0.2071 0.71311 0.35665 0.0
C1627 C 0.20539 0.70325 0.32391 0.0
C1628 C 0.18336 0.68904 0.37729 0.0
C1629 C 0.15791 0.65456 0.36544 0.0
C1630 C 0.15624 0.64489 0.33268 0.0
C1631 C 0.17949 0.66916 0.31214 0.0
C1632 C 0.11564 0.56584 0.40301 0.0
C1633 C 0.09572 0.57631 0.42968 0.0
C1634 C 0.1347 0.59094 0.3817 0.0
C1635 C 0.1349 0.62741 0.38691 0.0
C1636 C 0.11422 0.63775 0.41315 0.0
C1637 C 0.09438 0.61218 0.43423 0.0
H1638 H 0.4311 0.23702 0.38687 0.0
H1639 H 0.45329 0.16455 0.30597 0.0
H1640 H 0.44639 0.20344 0.42163 0.0
H1641 H 0.468 0.13058 0.34054 0.0
H1642 H 0.45461 0.05864 0.42078 0.0
H1643 H 0.43826 0.08947 0.38472 0.0
H1644 H 0.50551 0.1972 0.42921 0.0
H1645 H 0.52227 0.16652 0.46507 0.0
C1646 C 0.43846 0.21337 0.37667 0.0
C1647 C 0.44079 0.2031 0.34387 0.0
C1648 C 0.4476 0.19446 0.39643 0.0
C1649 C 0.45869 0.16459 0.38374 0.0
C1650 C 0.45948 0.15338 0.35099 0.0
C1651 C 0.45099 0.1727 0.33125 0.0
C1652 C 0.46643 0.08888 0.42252 0.0
C1653 C 0.48986 0.11008 0.44577 0.0
C1654 C 0.45695 0.10651 0.40192 0.0
C1655 C 0.47021 0.14575 0.40446 0.0
C1656 C 0.49446 0.16692 0.42703 0.0
C1657 C 0.50443 0.14929 0.44728 0.0
H1658 H 0.63126 0.88754 0.71655 0.0
H1659 H 0.59934 0.78147 0.6559 0.0
H1660 H 0.60993 0.91382 0.68107 0.0
H1661 H 0.5797 0.80865 0.61913 0.0
H1662 H 0.5192 0.86022 0.57267 0.0
H1663 H 0.53496 0.83205 0.61137 0.0
H1664 H 0.62572 0.93444 0.63148 0.0
H1665 H 0.60944 0.96271 0.59412 0.0
C1666 C 0.61963 0.8697 0.69562 0.0
C1667 C 0.61683 0.83217 0.68937 0.0
C1668 C 0.60774 0.88501 0.67496 0.0
C1669 C 0.59304 0.8635 0.64706 0.0
C1670 C 0.59041 0.82598 0.64057 0.0
C1671 C 0.60219 0.81052 0.66144 0.0
C1672 C 0.54211 0.87689 0.58582 0.0
C1673 C 0.56297 0.9138 0.58017 0.0
C1674 C 0.55144 0.86057 0.60773 0.0
C1675 C 0.5818 0.8808 0.62454 0.0
C1676 C 0.60192 0.91801 0.61943 0.0
C1677 C 0.59258 0.93427 0.59776 0.0
H1678 H 0.65945 0.18109 0.30185 0.0
H1679 H 0.75406 0.17846 0.33221 0.0
H1680 H 0.62362 0.14858 0.34543 0.0
H1681 H 0.71815 0.14246 0.37361 0.0
H1682 H 0.65635 0.11104 0.46406 0.0
H1683 H 0.68848 0.14854 0.42236 0.0
H1684 H 0.59774 0.09282 0.36675 0.0
H1685 H 0.56482 0.05724 0.40993 0.0
C1686 C 0.67256 0.17348 0.31783 0.0
C1687 C 0.70966 0.18296 0.31388 0.0
C1688 C 0.65192 0.15415 0.34255 0.0
C1689 C 0.66783 0.1431 0.36359 0.0
C1690 C 0.70485 0.1513 0.35865 0.0
C1691 C 0.72549 0.17127 0.33435 0.0
C1692 C 0.64318 0.10732 0.44306 0.0
C1693 C 0.60828 0.08119 0.44003 0.0
C1694 C 0.66173 0.12845 0.41889 0.0
C1695 C 0.64628 0.12318 0.39057 0.0
C1696 C 0.61064 0.09794 0.38814 0.0
C1697 C 0.59169 0.07743 0.41282 0.0
H1698 H 0.84675 0.61988 0.35999 0.0
H1699 H 0.95038 0.68128 0.31604 0.0
H1700 H 0.87498 0.60171 0.3964 0.0
H1701 H 0.97871 0.66229 0.35231 0.0
H1702 H 1.00922 0.64727 0.44971 0.0
H1703 H 0.98708 0.66991 0.41114 0.0
H1704 H 0.90838 0.55894 0.38898 0.0
H1705 H 0.93011 0.53636 0.42703 0.0
C1706 C 0.87559 0.62979 0.35828 0.0
C1707 C 0.89631 0.65184 0.33501 0.0
C1708 C 0.89175 0.61907 0.37893 0.0
C1709 C 0.92903 0.63018 0.37689 0.0
C1710 C 0.94993 0.65329 0.35437 0.0
C1711 C 0.9337 0.66386 0.33349 0.0
C1712 C 0.98764 0.62761 0.43616 0.0
C1713 C 0.97111 0.59014 0.44183 0.0
C1714 C 0.97495 0.6406 0.41416 0.0
C1715 C 0.9455 0.61633 0.39762 0.0
C1716 C 0.93053 0.57848 0.40196 0.0
C1717 C 0.9432 0.56553 0.42368 0.0
H1718 H 0.2759 0.82484 0.36165 0.0
H1719 H 0.37136 0.87194 0.30109 0.0
H1720 H 0.30845 0.85959 0.40811 0.0
H1721 H 0.40342 0.90749 0.34719 0.0
H1722 H 0.44547 0.98425 0.43635 0.0
H1723 H 0.40163 0.95953 0.39701 0.0
H1724 H 0.36482 0.85044 0.42669 0.0
H1725 H 0.40916 0.87477 0.46546 0.0
C1726 C 0.30342 0.84369 0.35827 0.0
C1727 C 0.32112 0.84601 0.32785 0.0
C1728 C 0.32207 0.86329 0.38479 0.0
C1729 C 0.35839 0.88636 0.3812 0.0
C1730 C 0.37536 0.8903 0.35064 0.0
C1731 C 0.35706 0.86995 0.32428 0.0
C1732 C 0.42735 0.95526 0.43512 0.0
C1733 C 0.43094 0.93139 0.45389 0.0
C1734 C 0.4024 0.94111 0.4125 0.0
C1735 C 0.37993 0.90308 0.40879 0.0
C1736 C 0.38161 0.87993 0.42922 0.0
C1737 C 0.40708 0.89384 0.45133 0.0
H1738 H 0.22209 0.28755 0.35724 0.0
H1739 H 0.23219 0.3584 0.28806 0.0
H1740 H 0.18774 0.31896 0.3939 0.0
H1741 H 0.19818 0.39018 0.32504 0.0
H1742 H 0.16698 0.46121 0.41644 0.0
H1743 H 0.20381 0.43209 0.38008 0.0
H1744 H 0.12591 0.32276 0.3944 0.0
H1745 H 0.08886 0.3516 0.4301 0.0
C1746 C 0.21727 0.31004 0.34992 0.0
C1747 C 0.2299 0.32038 0.31962 0.0
C1748 C 0.19741 0.32791 0.3709 0.0
C1749 C 0.19014 0.35705 0.3624 0.0
C1750 C 0.20347 0.36799 0.33239 0.0
C1751 C 0.2228 0.34964 0.31115 0.0
C1752 C 0.15771 0.43097 0.41183 0.0
C1753 C 0.12486 0.40881 0.42623 0.0
C1754 C 0.17875 0.4143 0.39089 0.0
C1755 C 0.16785 0.37509 0.38442 0.0
C1756 C 0.13522 0.35301 0.39905 0.0
C1757 C 0.11388 0.36961 0.4194 0.0
H1758 H 0.3682 0.25395 0.68458 0.0
H1759 H 0.28573 0.14642 0.69764 0.0
H1760 H 0.40192 0.22313 0.64692 0.0
H1761 H 0.32035 0.1154 0.66145 0.0
H1762 H 0.37693 0.07212 0.57295 0.0
H1763 H 0.34103 0.10304 0.60777 0.0
H1764 H 0.43667 0.18663 0.64588 0.0
H1765 H 0.47244 0.15655 0.61059 0.0
C1766 C 0.35719 0.22373 0.67935 0.0
C1767 C 0.32424 0.20273 0.69418 0.0
C1768 C 0.37678 0.20595 0.65804 0.0
C1769 C 0.36411 0.16662 0.65121 0.0
C1770 C 0.33087 0.14568 0.66575 0.0
C1771 C 0.31113 0.16351 0.68681 0.0
C1772 C 0.39029 0.0971 0.58875 0.0
C1773 C 0.42767 0.11182 0.58877 0.0
C1774 C 0.36967 0.11479 0.60887 0.0
C1775 C 0.38587 0.14758 0.62962 0.0
C1776 C 0.4232 0.16196 0.62982 0.0
C1777 C 0.44378 0.14444 0.60966 0.0
H1778 H 0.87225 0.36416 0.72829 0.0
H1779 H 0.82994 0.26747 0.6591 0.0
H1780 H 0.91178 0.39899 0.6869 0.0
H1781 H 0.8687 0.30262 0.6174 0.0
H1782 H 0.89471 0.40163 0.55875 0.0
H1783 H 0.86641 0.35843 0.59724 0.0
H1784 H 0.96394 0.4014 0.64341 0.0
H1785 H 0.99293 0.44451 0.60388 0.0
C1786 C 0.87197 0.35022 0.70423 0.0
C1787 C 0.84814 0.31327 0.69673 0.0
C1788 C 0.89471 0.37003 0.6806 0.0
C1789 C 0.89343 0.35351 0.64892 0.0
C1790 C 0.87031 0.31604 0.64163 0.0
C1791 C 0.84825 0.29589 0.66542 0.0
C1792 C 0.91033 0.4016 0.57687 0.0
C1793 C 0.9459 0.42675 0.57858 0.0
C1794 C 0.89414 0.37665 0.59881 0.0
C1795 C 0.91284 0.37665 0.62345 0.0
C1796 C 0.94886 0.40097 0.6247 0.0
C1797 C 0.96546 0.4255 0.60212 0.0
H1798 H 0.20394 0.62951 0.69808 0.0
H1799 H 0.26232 0.72338 0.64741 0.0
H1800 H 0.1717 0.59519 0.65172 0.0
H1801 H 0.23193 0.68872 0.60047 0.0
H1802 H 0.11841 0.53774 0.56379 0.0
H1803 H 0.16735 0.56501 0.598 0.0
H1804 H 0.17336 0.67567 0.5898 0.0
H1805 H 0.12583 0.64867 0.55514 0.0
C1806 C 0.21068 0.64213 0.67657 0.0
C1807 C 0.23502 0.67902 0.67614 0.0
C1808 C 0.19243 0.62252 0.64995 0.0
C1809 C 0.19877 0.63945 0.62246 0.0
C1810 C 0.22568 0.67521 0.62146 0.0
C1811 C 0.24322 0.695 0.6482 0.0
C1812 C 0.13101 0.5679 0.56855 0.0
C1813 C 0.11794 0.59103 0.55708 0.0
C1814 C 0.15881 0.58352 0.58841 0.0
C1815 C 0.17411 0.62254 0.597 0.0
C1816 C 0.16266 0.64556 0.58352 0.0
C1817 C 0.13505 0.63002 0.56376 0.0
loop_
_geom_bond_atom_site_label_1
_geom_bond_atom_site_label_2
_geom_bond_distance
_geom_bond_site_symmetry_2
_ccdc_geom_bond_type
C0 C2 1.422 . S
C0 C4 1.415 . S
C0 N6 1.369 . S
C1 C2 1.421 . S
C1 C3 1.417 . S
C1 C13 1.422 . S
C2 C0 1.422 . S
C2 C1 1.421 . S
C2 N12 1.359 . S
C3 C1 1.417 . S
C3 C5 1.329 . S
C3 H22 0.930 . S
C4 C0 1.415 . S
C4 C5 1.437 . S
C4 C8 1.413 . S
C5 C3 1.329 . S
C5 C4 1.437 . S
C5 H27 0.929 . S
N6 C0 1.369 . S
N6 C7 1.338 . S
N6 Gd11 2.622 . S
C7 N6 1.338 . S
C7 C9 1.378 . S
C7 H19 0.929 . S
C8 C4 1.413 . S
C8 C9 1.348 . S
C8 H24 0.931 . S
C9 C7 1.378 . S
C9 C8 1.348 . S
C9 H25 0.930 . S
Gd10 N30 2.622 . S
Gd10 N37 2.570 . S
Gd10 O44 2.353 . S
Gd10 O45 2.468 . S
Gd10 O46 2.427 . S
Gd10 O48 2.388 . S
Gd10 O49 2.386 . S
Gd10 O53 2.307 . S
Gd10 C63 2.805 . S
Gd11 N6 2.622 . S
Gd11 N12 2.570 . S
Gd11 O43 2.386 . S
Gd11 O47 2.307 . S
Gd11 O50 2.353 . S
Gd11 O51 2.468 . S
Gd11 O52 2.427 . S
Gd11 O54 2.388 . S
Gd11 C75 2.805 . S
N12 C2 1.359 . S
N12 Gd11 2.570 . S
N12 C14 1.343 . S
C13 C1 1.422 . S
C13 C15 1.321 . S
C13 H21 0.931 . S
C14 N12 1.343 . S
C14 C15 1.390 . S
C14 H16 0.931 . S
C15 C13 1.321 . S
C15 C14 1.390 . S
C15 H17 0.930 . S
H16 C14 0.931 . S
H17 C15 0.930 . S
H18 C41 0.931 . S
H19 C7 0.929 . S
H20 C42 0.930 . S
H21 C13 0.931 . S
H22 C3 0.930 . S
H23 C32 0.929 . S
H24 C8 0.931 . S
H25 C9 0.930 . S
H26 C64 0.930 . S
H27 C5 0.929 . S
H28 C33 0.931 . S
H29 C34 0.930 . S
N30 Gd10 2.622 . S
N30 C31 1.369 . S
N30 C32 1.338 . S
C31 N30 1.369 . S
C31 C35 1.415 . S
C31 C38 1.422 . S
C32 H23 0.929 . S
C32 N30 1.338 . S
C32 C34 1.378 . S
C33 H28 0.931 . S
C33 C34 1.348 . S
C33 C35 1.413 . S
C34 H29 0.930 . S
C34 C32 1.378 . S
C34 C33 1.348 . S
C35 C31 1.415 . S
C35 C33 1.413 . S
C35 C65 1.437 . S
H36 C65 0.929 . S
N37 Gd10 2.570 . S
N37 C38 1.359 . S
N37 C41 1.343 . S
C38 C31 1.422 . S
C38 N37 1.359 . S
C38 C40 1.421 . S
C39 C40 1.422 . S
C39 C42 1.321 . S
C39 H66 0.931 . S
C40 C38 1.421 . S
C40 C39 1.422 . S
C40 C64 1.417 . S
C41 H18 0.931 . S
C41 N37 1.343 . S
C41 C42 1.390 . S
C42 H20 0.930 . S
C42 C39 1.321 . S
C42 C41 1.390 . S
O43 Gd11 2.386 . S
O43 C55 1.265 . S
O44 Gd10 2.353 . S
O44 C55 1.242 . S
O45 Gd10 2.468 . S
O45 C63 1.263 . S
O46 Gd10 2.427 . S
O46 C63 1.252 . S
O47 Gd11 2.307 . S
O47 C56 1.261 . S
O48 Gd10 2.388 . S
O48 C56 1.252 . S
O49 Gd10 2.386 . S
O49 C67 1.265 . S
O50 Gd11 2.353 . S
O50 C67 1.242 . S
O51 Gd11 2.468 . S
O51 C75 1.263 . S
O52 Gd11 2.427 . S
O52 C75 1.252 . S
O53 Gd10 2.307 . S
O53 C68 1.261 . S
O54 Gd11 2.388 . S
O54 C68 1.252 . S
C55 O43 1.265 . S
C55 O44 1.242 . S
C56 O47 1.261 . S
C56 O48 1.252 . S
C57 C60 1.394 . S
C57 C62 1.370 . S
C57 C63 1.500 . S
C58 C61 1.383 . S
C58 C62 1.395 . S
C59 C60 1.396 . S
C59 C61 1.365 . S
C59 H76 0.929 . S
C60 C57 1.394 . S
C60 C59 1.396 . S
C60 H77 0.930 . S
C61 C58 1.383 . S
C61 C59 1.365 . S
C61 H78 0.931 . S
C62 C57 1.370 . S
C62 C58 1.395 . S
C62 H79 0.930 . S
C63 Gd10 2.805 . S
C63 O45 1.263 . S
C63 O46 1.252 . S
C63 C57 1.500 . S
C64 H26 0.930 . S
C64 C40 1.417 . S
C64 C65 1.329 . S
C65 C35 1.437 . S
C65 H36 0.929 . S
C65 C64 1.329 . S
H66 C39 0.931 . S
C67 O49 1.265 . S
C67 O50 1.242 . S
C68 O53 1.261 . S
C68 O54 1.252 . S
C69 C72 1.394 . S
C69 C74 1.370 . S
C69 C75 1.500 . S
C70 C73 1.383 . S
C70 C74 1.395 . S
C71 C72 1.396 . S
C71 C73 1.365 . S
C71 H80 0.929 . S
C72 C69 1.394 . S
C72 C71 1.396 . S
C72 H81 0.930 . S
C73 C70 1.383 . S
C73 C71 1.365 . S
C73 H82 0.931 . S
C74 C69 1.370 . S
C74 C70 1.395 . S
C74 H83 0.930 . S
C75 Gd11 2.805 . S
C75 O51 1.263 . S
C75 O52 1.252 . S
C75 C69 1.500 . S
H76 C59 0.929 . S
H77 C60 0.930 . S
H78 C61 0.931 . S
H79 C62 0.930 . S
H80 C71 0.929 . S
H81 C72 0.930 . S
H82 C73 0.931 . S
H83 C74 0.930 . S
C84 C86 1.422 . S
C84 C88 1.415 . S
C84 N90 1.369 . S
C85 C86 1.421 . S
C85 C87 1.417 . S
C85 C97 1.422 . S
C86 C84 1.422 . S
C86 C85 1.421 . S
C86 N96 1.359 . S
C87 C85 1.417 . S
C87 C89 1.329 . S
C87 H106 0.930 . S
C88 C84 1.415 . S
C88 C89 1.437 . S
C88 C92 1.413 . S
C89 C87 1.329 . S
C89 C88 1.437 . S
C89 H111 0.929 . S
N90 C84 1.369 . S
N90 C91 1.338 . S
N90 Gd95 2.622 . S
C91 N90 1.338 . S
C91 C93 1.378 . S
C91 H103 0.929 . S
C92 C88 1.413 . S
C92 C93 1.348 . S
C92 H108 0.931 . S
C93 C91 1.378 . S
C93 C92 1.348 . S
C93 H109 0.930 . S
Gd94 N114 2.622 . S
Gd94 N121 2.570 . S
Gd94 O128 2.353 . S
Gd94 O129 2.468 . S
Gd94 O130 2.427 . S
Gd94 O132 2.388 . S
Gd94 O133 2.386 . S
Gd94 O137 2.307 . S
Gd94 C147 2.805 . S
Gd95 N90 2.622 . S
Gd95 N96 2.570 . S
Gd95 O127 2.386 . S
Gd95 O131 2.307 . S
Gd95 O134 2.353 . S
Gd95 O135 2.468 . S
Gd95 O136 2.427 . S
Gd95 O138 2.388 . S
Gd95 C159 2.805 . S
N96 C86 1.359 . S
N96 Gd95 2.570 . S
N96 C98 1.343 . S
C97 C85 1.422 . S
C97 C99 1.321 . S
C97 H105 0.931 . S
C98 N96 1.343 . S
C98 C99 1.390 . S
C98 H100 0.931 . S
C99 C97 1.321 . S
C99 C98 1.390 . S
C99 H101 0.930 . S
H100 C98 0.931 . S
H101 C99 0.930 . S
H102 C125 0.931 . S
H103 C91 0.929 . S
H104 C126 0.930 . S
H105 C97 0.931 . S
H106 C87 0.930 . S
H107 C116 0.929 . S
H108 C92 0.931 . S
H109 C93 0.930 . S
H110 C148 0.930 . S
H111 C89 0.929 . S
H112 C117 0.931 . S
H113 C118 0.930 . S
N114 Gd94 2.622 . S
N114 C115 1.369 . S
N114 C116 1.338 . S
C115 N114 1.369 . S
C115 C119 1.415 . S
C115 C122 1.422 . S
C116 H107 0.929 . S
C116 N114 1.338 . S
C116 C118 1.378 . S
C117 H112 0.931 . S
C117 C118 1.348 . S
C117 C119 1.413 . S
C118 H113 0.930 . S
C118 C116 1.378 . S
C118 C117 1.348 . S
C119 C115 1.415 . S
C119 C117 1.413 . S
C119 C149 1.437 . S
H120 C149 0.929 . S
N121 Gd94 2.570 . S
N121 C122 1.359 . S
N121 C125 1.343 . S
C122 C115 1.422 . S
C122 N121 1.359 . S
C122 C124 1.421 . S
C123 C124 1.422 . S
C123 C126 1.321 . S
C123 H150 0.931 . S
C124 C122 1.421 . S
C124 C123 1.422 . S
C124 C148 1.417 . S
C125 H102 0.931 . S
C125 N121 1.343 . S
C125 C126 1.390 . S
C126 H104 0.930 . S
C126 C123 1.321 . S
C126 C125 1.390 . S
O127 Gd95 2.386 . S
O127 C139 1.265 . S
O128 Gd94 2.353 . S
O128 C139 1.242 . S
O129 Gd94 2.468 . S
O129 C147 1.263 . S
O130 Gd94 2.427 . S
O130 C147 1.252 . S
O131 Gd95 2.307 . S
O131 C140 1.261 . S
O132 Gd94 2.388 . S
O132 C140 1.252 . S
O133 Gd94 2.386 . S
O133 C151 1.265 . S
O134 Gd95 2.353 . S
O134 C151 1.242 . S
O135 Gd95 2.468 . S
O135 C159 1.263 . S
O136 Gd95 2.427 . S
O136 C159 1.252 . S
O137 Gd94 2.307 . S
O137 C152 1.261 . S
O138 Gd95 2.388 . S
O138 C152 1.252 . S
C139 O127 1.265 . S
C139 O128 1.242 . S
C140 O131 1.261 . S
C140 O132 1.252 . S
C141 C144 1.394 . S
C141 C146 1.370 . S
C141 C147 1.500 . S
C142 C145 1.383 . S
C142 C146 1.395 . S
C143 C144 1.396 . S
C143 C145 1.365 . S
C143 H160 0.929 . S
C144 C141 1.394 . S
C144 C143 1.396 . S
C144 H161 0.930 . S
C145 C142 1.383 . S
C145 C143 1.365 . S
C145 H162 0.931 . S
C146 C141 1.370 . S
C146 C142 1.395 . S
C146 H163 0.930 . S
C147 Gd94 2.805 . S
C147 O129 1.263 . S
C147 O130 1.252 . S
C147 C141 1.500 . S
C148 H110 0.930 . S
C148 C124 1.417 . S
C148 C149 1.329 . S
C149 C119 1.437 . S
C149 H120 0.929 . S
C149 C148 1.329 . S
H150 C123 0.931 . S
C151 O133 1.265 . S
C151 O134 1.242 . S
C152 O137 1.261 . S
C152 O138 1.252 . S
C153 C156 1.394 . S
C153 C158 1.370 . S
C153 C159 1.500 . S
C154 C157 1.383 . S
C154 C158 1.395 . S
C155 C156 1.396 . S
C155 C157 1.365 . S
C155 H164 0.929 . S
C156 C153 1.394 . S
C156 C155 1.396 . S
C156 H165 0.930 . S
C157 C154 1.383 . S
C157 C155 1.365 . S
C157 H166 0.931 . S
C158 C153 1.370 . S
C158 C154 1.395 . S
C158 H167 0.930 . S
C159 Gd95 2.805 . S
C159 O135 1.263 . S
C159 O136 1.252 . S
C159 C153 1.500 . S
H160 C143 0.929 . S
H161 C144 0.930 . S
H162 C145 0.931 . S
H163 C146 0.930 . S
H164 C155 0.929 . S
H165 C156 0.930 . S
H166 C157 0.931 . S
H167 C158 0.930 . S
C168 C170 1.422 . S
C168 C172 1.415 . S
C168 N174 1.369 . S
C169 C170 1.421 . S
C169 C171 1.417 . S
C169 C181 1.422 . S
C170 C168 1.422 . S
C170 C169 1.421 . S
C170 N180 1.359 . S
C171 C169 1.417 . S
C171 C173 1.329 . S
C171 H190 0.930 . S
C172 C168 1.415 . S
C172 C173 1.437 . S
C172 C176 1.413 . S
C173 C171 1.329 . S
C173 C172 1.437 . S
C173 H195 0.929 . S
N174 C168 1.369 . S
N174 C175 1.338 . S
N174 Gd179 2.622 . S
C175 N174 1.338 . S
C175 C177 1.378 . S
C175 H187 0.929 . S
C176 C172 1.413 . S
C176 C177 1.348 . S
C176 H192 0.931 . S
C177 C175 1.378 . S
C177 C176 1.348 . S
C177 H193 0.930 . S
Gd178 N198 2.622 . S
Gd178 N205 2.570 . S
Gd178 O212 2.353 . S
Gd178 O213 2.468 . S
Gd178 O214 2.427 . S
Gd178 O216 2.388 . S
Gd178 O217 2.386 . S
Gd178 O221 2.307 . S
Gd178 C231 2.805 . S
Gd179 N174 2.622 . S
Gd179 N180 2.570 . S
Gd179 O211 2.386 . S
Gd179 O215 2.307 . S
Gd179 O218 2.353 . S
Gd179 O219 2.468 . S
Gd179 O220 2.427 . S
Gd179 O222 2.388 . S
Gd179 C243 2.805 . S
N180 C170 1.359 . S
N180 Gd179 2.570 . S
N180 C182 1.343 . S
C181 C169 1.422 . S
C181 C183 1.321 . S
C181 H189 0.931 . S
C182 N180 1.343 . S
C182 C183 1.390 . S
C182 H184 0.931 . S
C183 C181 1.321 . S
C183 C182 1.390 . S
C183 H185 0.930 . S
H184 C182 0.931 . S
H185 C183 0.930 . S
H186 C209 0.931 . S
H187 C175 0.929 . S
H188 C210 0.930 . S
H189 C181 0.931 . S
H190 C171 0.930 . S
H191 C200 0.929 . S
H192 C176 0.931 . S
H193 C177 0.930 . S
H194 C232 0.930 . S
H195 C173 0.929 . S
H196 C201 0.931 . S
H197 C202 0.930 . S
N198 Gd178 2.622 . S
N198 C199 1.369 . S
N198 C200 1.338 . S
C199 N198 1.369 . S
C199 C203 1.415 . S
C199 C206 1.422 . S
C200 H191 0.929 . S
C200 N198 1.338 . S
C200 C202 1.378 . S
C201 H196 0.931 . S
C201 C202 1.348 . S
C201 C203 1.413 . S
C202 H197 0.930 . S
C202 C200 1.378 . S
C202 C201 1.348 . S
C203 C199 1.415 . S
C203 C201 1.413 . S
C203 C233 1.437 . S
H204 C233 0.929 . S
N205 Gd178 2.570 . S
N205 C206 1.359 . S
N205 C209 1.343 . S
C206 C199 1.422 . S
C206 N205 1.359 . S
C206 C208 1.421 . S
C207 C208 1.422 . S
C207 C210 1.321 . S
C207 H234 0.931 . S
C208 C206 1.421 . S
C208 C207 1.422 . S
C208 C232 1.417 . S
C209 H186 0.931 . S
C209 N205 1.343 . S
C209 C210 1.390 . S
C210 H188 0.930 . S
C210 C207 1.321 . S
C210 C209 1.390 . S
O211 Gd179 2.386 . S
O211 C223 1.265 . S
O212 Gd178 2.353 . S
O212 C223 1.242 . S
O213 Gd178 2.468 . S
O213 C231 1.263 . S
O214 Gd178 2.427 . S
O214 C231 1.252 . S
O215 Gd179 2.307 . S
O215 C224 1.261 . S
O216 Gd178 2.388 . S
O216 C224 1.252 . S
O217 Gd178 2.386 . S
O217 C235 1.265 . S
O218 Gd179 2.353 . S
O218 C235 1.242 . S
O219 Gd179 2.468 . S
O219 C243 1.263 . S
O220 Gd179 2.427 . S
O220 C243 1.252 . S
O221 Gd178 2.307 . S
O221 C236 1.261 . S
O222 Gd179 2.388 . S
O222 C236 1.252 . S
C223 O211 1.265 . S
C223 O212 1.242 . S
C224 O215 1.261 . S
C224 O216 1.252 . S
C225 C228 1.394 . S
C225 C230 1.370 . S
C225 C231 1.500 . S
C226 C229 1.383 . S
C226 C230 1.395 . S
C227 C228 1.396 . S
C227 C229 1.365 . S
C227 H244 0.929 . S
C228 C225 1.394 . S
C228 C227 1.396 . S
C228 H245 0.930 . S
C229 C226 1.383 . S
C229 C227 1.365 . S
C229 H246 0.931 . S
C230 C225 1.370 . S
C230 C226 1.395 . S
C230 H247 0.930 . S
C231 Gd178 2.805 . S
C231 O213 1.263 . S
C231 O214 1.252 . S
C231 C225 1.500 . S
C232 H194 0.930 . S
C232 C208 1.417 . S
C232 C233 1.329 . S
C233 C203 1.437 . S
C233 H204 0.929 . S
C233 C232 1.329 . S
H234 C207 0.931 . S
C235 O217 1.265 . S
C235 O218 1.242 . S
C236 O221 1.261 . S
C236 O222 1.252 . S
C237 C240 1.394 . S
C237 C242 1.370 . S
C237 C243 1.500 . S
C238 C241 1.383 . S
C238 C242 1.395 . S
C239 C240 1.396 . S
C239 C241 1.365 . S
C239 H248 0.929 . S
C240 C237 1.394 . S
C240 C239 1.396 . S
C240 H249 0.930 . S
C241 C238 1.383 . S
C241 C239 1.365 . S
C241 H250 0.931 . S
C242 C237 1.370 . S
C242 C238 1.395 . S
C242 H251 0.930 . S
C243 Gd179 2.805 . S
C243 O219 1.263 . S
C243 O220 1.252 . S
C243 C237 1.500 . S
H244 C227 0.929 . S
H245 C228 0.930 . S
H246 C229 0.931 . S
H247 C230 0.930 . S
H248 C239 0.929 . S
H249 C240 0.930 . S
H250 C241 0.931 . S
H251 C242 0.930 . S
C252 C254 1.422 . S
C252 C256 1.415 . S
C252 N258 1.369 . S
C253 C254 1.421 . S
C253 C255 1.417 . S
C253 C265 1.422 . S
C254 C252 1.422 . S
C254 C253 1.421 . S
C254 N264 1.359 . S
C255 C253 1.417 . S
C255 C257 1.329 . S
C255 H274 0.930 . S
C256 C252 1.415 . S
C256 C257 1.437 . S
C256 C260 1.413 . S
C257 C255 1.329 . S
C257 C256 1.437 . S
C257 H279 0.929 . S
N258 C252 1.369 . S
N258 C259 1.338 . S
N258 Gd263 2.622 . S
C259 N258 1.338 . S
C259 C261 1.378 . S
C259 H271 0.929 . S
C260 C256 1.413 . S
C260 C261 1.348 . S
C260 H276 0.931 . S
C261 C259 1.378 . S
C261 C260 1.348 . S
C261 H277 0.930 . S
Gd262 N282 2.622 . S
Gd262 N289 2.570 . S
Gd262 O296 2.353 . S
Gd262 O297 2.468 . S
Gd262 O298 2.427 . S
Gd262 O300 2.388 . S
Gd262 O301 2.386 . S
Gd262 O305 2.307 . S
Gd262 C315 2.805 . S
Gd263 N258 2.622 . S
Gd263 N264 2.570 . S
Gd263 O295 2.386 . S
Gd263 O299 2.307 . S
Gd263 O302 2.353 . S
Gd263 O303 2.468 . S
Gd263 O304 2.427 . S
Gd263 O306 2.388 . S
Gd263 C327 2.805 . S
N264 C254 1.359 . S
N264 Gd263 2.570 . S
N264 C266 1.343 . S
C265 C253 1.422 . S
C265 C267 1.321 . S
C265 H273 0.931 . S
C266 N264 1.343 . S
C266 C267 1.390 . S
C266 H268 0.931 . S
C267 C265 1.321 . S
C267 C266 1.390 . S
C267 H269 0.930 . S
H268 C266 0.931 . S
H269 C267 0.930 . S
H270 C293 0.931 . S
H271 C259 0.929 . S
H272 C294 0.930 . S
H273 C265 0.931 . S
H274 C255 0.930 . S
H275 C284 0.929 . S
H276 C260 0.931 . S
H277 C261 0.930 . S
H278 C316 0.930 . S
H279 C257 0.929 . S
H280 C285 0.931 . S
H281 C286 0.930 . S
N282 Gd262 2.622 . S
N282 C283 1.369 . S
N282 C284 1.338 . S
C283 N282 1.369 . S
C283 C287 1.415 . S
C283 C290 1.422 . S
C284 H275 0.929 . S
C284 N282 1.338 . S
C284 C286 1.378 . S
C285 H280 0.931 . S
C285 C286 1.348 . S
C285 C287 1.413 . S
C286 H281 0.930 . S
C286 C284 1.378 . S
C286 C285 1.348 . S
C287 C283 1.415 . S
C287 C285 1.413 . S
C287 C317 1.437 . S
H288 C317 0.929 . S
N289 Gd262 2.570 . S
N289 C290 1.359 . S
N289 C293 1.343 . S
C290 C283 1.422 . S
C290 N289 1.359 . S
C290 C292 1.421 . S
C291 C292 1.422 . S
C291 C294 1.321 . S
C291 H318 0.931 . S
C292 C290 1.421 . S
C292 C291 1.422 . S
C292 C316 1.417 . S
C293 H270 0.931 . S
C293 N289 1.343 . S
C293 C294 1.390 . S
C294 H272 0.930 . S
C294 C291 1.321 . S
C294 C293 1.390 . S
O295 Gd263 2.386 . S
O295 C307 1.265 . S
O296 Gd262 2.353 . S
O296 C307 1.242 . S
O297 Gd262 2.468 . S
O297 C315 1.263 . S
O298 Gd262 2.427 . S
O298 C315 1.252 . S
O299 Gd263 2.307 . S
O299 C308 1.261 . S
O300 Gd262 2.388 . S
O300 C308 1.252 . S
O301 Gd262 2.386 . S
O301 C319 1.265 . S
O302 Gd263 2.353 . S
O302 C319 1.242 . S
O303 Gd263 2.468 . S
O303 C327 1.263 . S
O304 Gd263 2.427 . S
O304 C327 1.252 . S
O305 Gd262 2.307 . S
O305 C320 1.261 . S
O306 Gd263 2.388 . S
O306 C320 1.252 . S
C307 O295 1.265 . S
C307 O296 1.242 . S
C308 O299 1.261 . S
C308 O300 1.252 . S
C309 C312 1.394 . S
C309 C314 1.370 . S
C309 C315 1.500 . S
C310 C313 1.383 . S
C310 C314 1.395 . S
C311 C312 1.396 . S
C311 C313 1.365 . S
C311 H328 0.929 . S
C312 C309 1.394 . S
C312 C311 1.396 . S
C312 H329 0.930 . S
C313 C310 1.383 . S
C313 C311 1.365 . S
C313 H330 0.931 . S
C314 C309 1.370 . S
C314 C310 1.395 . S
C314 H331 0.930 . S
C315 Gd262 2.805 . S
C315 O297 1.263 . S
C315 O298 1.252 . S
C315 C309 1.500 . S
C316 H278 0.930 . S
C316 C292 1.417 . S
C316 C317 1.329 . S
C317 C287 1.437 . S
C317 H288 0.929 . S
C317 C316 1.329 . S
H318 C291 0.931 . S
C319 O301 1.265 . S
C319 O302 1.242 . S
C320 O305 1.261 . S
C320 O306 1.252 . S
C321 C324 1.394 . S
C321 C326 1.370 . S
C321 C327 1.500 . S
C322 C325 1.383 . S
C322 C326 1.395 . S
C323 C324 1.396 . S
C323 C325 1.365 . S
C323 H332 0.929 . S
C324 C321 1.394 . S
C324 C323 1.396 . S
C324 H333 0.930 . S
C325 C322 1.383 . S
C325 C323 1.365 . S
C325 H334 0.931 . S
C326 C321 1.370 . S
C326 C322 1.395 . S
C326 H335 0.930 . S
C327 Gd263 2.805 . S
C327 O303 1.263 . S
C327 O304 1.252 . S
C327 C321 1.500 . S
H328 C311 0.929 . S
H329 C312 0.930 . S
H330 C313 0.931 . S
H331 C314 0.930 . S
H332 C323 0.929 . S
H333 C324 0.930 . S
H334 C325 0.931 . S
H335 C326 0.930 . S
C336 C338 1.422 . S
C336 C340 1.415 . S
C336 N342 1.369 . S
C337 C338 1.421 . S
C337 C339 1.417 . S
C337 C349 1.422 . S
C338 C336 1.422 . S
C338 C337 1.421 . S
C338 N348 1.359 . S
C339 C337 1.417 . S
C339 C341 1.329 . S
C339 H358 0.930 . S
C340 C336 1.415 . S
C340 C341 1.437 . S
C340 C344 1.413 . S
C341 C339 1.329 . S
C341 C340 1.437 . S
C341 H363 0.929 . S
N342 C336 1.369 . S
N342 C343 1.338 . S
N342 Gd347 2.622 . S
C343 N342 1.338 . S
C343 C345 1.378 . S
C343 H355 0.929 . S
C344 C340 1.413 . S
C344 C345 1.348 . S
C344 H360 0.931 . S
C345 C343 1.378 . S
C345 C344 1.348 . S
C345 H361 0.930 . S
Gd346 N366 2.622 . S
Gd346 N373 2.570 . S
Gd346 O380 2.353 . S
Gd346 O381 2.468 . S
Gd346 O382 2.427 . S
Gd346 O384 2.388 . S
Gd346 O385 2.386 . S
Gd346 O389 2.307 . S
Gd346 C399 2.805 . S
Gd347 N342 2.622 . S
Gd347 N348 2.570 . S
Gd347 O379 2.386 . S
Gd347 O383 2.307 . S
Gd347 O386 2.353 . S
Gd347 O387 2.468 . S
Gd347 O388 2.427 . S
Gd347 O390 2.388 . S
Gd347 C411 2.805 . S
N348 C338 1.359 . S
N348 Gd347 2.570 . S
N348 C350 1.343 . S
C349 C337 1.422 . S
C349 C351 1.321 . S
C349 H357 0.931 . S
C350 N348 1.343 . S
C350 C351 1.390 . S
C350 H352 0.931 . S
C351 C349 1.321 . S
C351 C350 1.390 . S
C351 H353 0.930 . S
H352 C350 0.931 . S
H353 C351 0.930 . S
H354 C377 0.931 . S
H355 C343 0.929 . S
H356 C378 0.930 . S
H357 C349 0.931 . S
H358 C339 0.930 . S
H359 C368 0.929 . S
H360 C344 0.931 . S
H361 C345 0.930 . S
H362 C400 0.930 . S
H363 C341 0.929 . S
H364 C369 0.931 . S
H365 C370 0.930 . S
N366 Gd346 2.622 . S
N366 C367 1.369 . S
N366 C368 1.338 . S
C367 N366 1.369 . S
C367 C371 1.415 . S
C367 C374 1.422 . S
C368 H359 0.929 . S
C368 N366 1.338 . S
C368 C370 1.378 . S
C369 H364 0.931 . S
C369 C370 1.348 . S
C369 C371 1.413 . S
C370 H365 0.930 . S
C370 C368 1.378 . S
C370 C369 1.348 . S
C371 C367 1.415 . S
C371 C369 1.413 . S
C371 C401 1.437 . S
H372 C401 0.929 . S
N373 Gd346 2.570 . S
N373 C374 1.359 . S
N373 C377 1.343 . S
C374 C367 1.422 . S
C374 N373 1.359 . S
C374 C376 1.421 . S
C375 C376 1.422 . S
C375 C378 1.321 . S
C375 H402 0.931 . S
C376 C374 1.421 . S
C376 C375 1.422 . S
C376 C400 1.417 . S
C377 H354 0.931 . S
C377 N373 1.343 . S
C377 C378 1.390 . S
C378 H356 0.930 . S
C378 C375 1.321 . S
C378 C377 1.390 . S
O379 Gd347 2.386 . S
O379 C391 1.265 . S
O380 Gd346 2.353 . S
O380 C391 1.242 . S
O381 Gd346 2.468 . S
O381 C399 1.263 . S
O382 Gd346 2.427 . S
O382 C399 1.252 . S
O383 Gd347 2.307 . S
O383 C392 1.261 . S
O384 Gd346 2.388 . S
O384 C392 1.252 . S
O385 Gd346 2.386 . S
O385 C403 1.265 . S
O386 Gd347 2.353 . S
O386 C403 1.242 . S
O387 Gd347 2.468 . S
O387 C411 1.263 . S
O388 Gd347 2.427 . S
O388 C411 1.252 . S
O389 Gd346 2.307 . S
O389 C404 1.261 . S
O390 Gd347 2.388 . S
O390 C404 1.252 . S
C391 O379 1.265 . S
C391 O380 1.242 . S
C392 O383 1.261 . S
C392 O384 1.252 . S
C393 C396 1.394 . S
C393 C398 1.370 . S
C393 C399 1.500 . S
C394 C397 1.383 . S
C394 C398 1.395 . S
C395 C396 1.396 . S
C395 C397 1.365 . S
C395 H412 0.929 . S
C396 C393 1.394 . S
C396 C395 1.396 . S
C396 H413 0.930 . S
C397 C394 1.383 . S
C397 C395 1.365 . S
C397 H414 0.931 . S
C398 C393 1.370 . S
C398 C394 1.395 . S
C398 H415 0.930 . S
C399 Gd346 2.805 . S
C399 O381 1.263 . S
C399 O382 1.252 . S
C399 C393 1.500 . S
C400 H362 0.930 . S
C400 C376 1.417 . S
C400 C401 1.329 . S
C401 C371 1.437 . S
C401 H372 0.929 . S
C401 C400 1.329 . S
H402 C375 0.931 . S
C403 O385 1.265 . S
C403 O386 1.242 . S
C404 O389 1.261 . S
C404 O390 1.252 . S
C405 C408 1.394 . S
C405 C410 1.370 . S
C405 C411 1.500 . S
C406 C409 1.383 . S
C406 C410 1.395 . S
C407 C408 1.396 . S
C407 C409 1.365 . S
C407 H416 0.929 . S
C408 C405 1.394 . S
C408 C407 1.396 . S
C408 H417 0.930 . S
C409 C406 1.383 . S
C409 C407 1.365 . S
C409 H418 0.931 . S
C410 C405 1.370 . S
C410 C406 1.395 . S
C410 H419 0.930 . S
C411 Gd347 2.805 . S
C411 O387 1.263 . S
C411 O388 1.252 . S
C411 C405 1.500 . S
H412 C395 0.929 . S
H413 C396 0.930 . S
H414 C397 0.931 . S
H415 C398 0.930 . S
H416 C407 0.929 . S
H417 C408 0.930 . S
H418 C409 0.931 . S
H419 C410 0.930 . S
C420 C422 1.422 . S
C420 C424 1.415 . S
C420 N426 1.369 . S
C421 C422 1.421 . S
C421 C423 1.417 . S
C421 C433 1.422 . S
C422 C420 1.422 . S
C422 C421 1.421 . S
C422 N432 1.359 . S
C423 C421 1.417 . S
C423 C425 1.329 . S
C423 H442 0.930 . S
C424 C420 1.415 . S
C424 C425 1.437 . S
C424 C428 1.413 . S
C425 C423 1.329 . S
C425 C424 1.437 . S
C425 H447 0.929 . S
N426 C420 1.369 . S
N426 C427 1.338 . S
N426 Gd431 2.622 . S
C427 N426 1.338 . S
C427 C429 1.378 . S
C427 H439 0.929 . S
C428 C424 1.413 . S
C428 C429 1.348 . S
C428 H444 0.931 . S
C429 C427 1.378 . S
C429 C428 1.348 . S
C429 H445 0.930 . S
Gd430 N450 2.622 . S
Gd430 N457 2.570 . S
Gd430 O464 2.353 . S
Gd430 O465 2.468 . S
Gd430 O466 2.427 . S
Gd430 O468 2.388 . S
Gd430 O469 2.386 . S
Gd430 O473 2.307 . S
Gd430 C483 2.805 . S
Gd431 N426 2.622 . S
Gd431 N432 2.570 . S
Gd431 O463 2.386 . S
Gd431 O467 2.307 . S
Gd431 O470 2.353 . S
Gd431 O471 2.468 . S
Gd431 O472 2.427 . S
Gd431 O474 2.388 . S
Gd431 C495 2.805 . S
N432 C422 1.359 . S
N432 Gd431 2.570 . S
N432 C434 1.343 . S
C433 C421 1.422 . S
C433 C435 1.321 . S
C433 H441 0.931 . S
C434 N432 1.343 . S
C434 C435 1.390 . S
C434 H436 0.931 . S
C435 C433 1.321 . S
C435 C434 1.390 . S
C435 H437 0.930 . S
H436 C434 0.931 . S
H437 C435 0.930 . S
H438 C461 0.931 . S
H439 C427 0.929 . S
H440 C462 0.930 . S
H441 C433 0.931 . S
H442 C423 0.930 . S
H443 C452 0.929 . S
H444 C428 0.931 . S
H445 C429 0.930 . S
H446 C484 0.930 . S
H447 C425 0.929 . S
H448 C453 0.931 . S
H449 C454 0.930 . S
N450 Gd430 2.622 . S
N450 C451 1.369 . S
N450 C452 1.338 . S
C451 N450 1.369 . S
C451 C455 1.415 . S
C451 C458 1.422 . S
C452 H443 0.929 . S
C452 N450 1.338 . S
C452 C454 1.378 . S
C453 H448 0.931 . S
C453 C454 1.348 . S
C453 C455 1.413 . S
C454 H449 0.930 . S
C454 C452 1.378 . S
C454 C453 1.348 . S
C455 C451 1.415 . S
C455 C453 1.413 . S
C455 C485 1.437 . S
H456 C485 0.929 . S
N457 Gd430 2.570 . S
N457 C458 1.359 . S
N457 C461 1.343 . S
C458 C451 1.422 . S
C458 N457 1.359 . S
C458 C460 1.421 . S
C459 C460 1.422 . S
C459 C462 1.321 . S
C459 H486 0.931 . S
C460 C458 1.421 . S
C460 C459 1.422 . S
C460 C484 1.417 . S
C461 H438 0.931 . S
C461 N457 1.343 . S
C461 C462 1.390 . S
C462 H440 0.930 . S
C462 C459 1.321 . S
C462 C461 1.390 . S
O463 Gd431 2.386 . S
O463 C475 1.265 . S
O464 Gd430 2.353 . S
O464 C475 1.242 . S
O465 Gd430 2.468 . S
O465 C483 1.263 . S
O466 Gd430 2.427 . S
O466 C483 1.252 . S
O467 Gd431 2.307 . S
O467 C476 1.261 . S
O468 Gd430 2.388 . S
O468 C476 1.252 . S
O469 Gd430 2.386 . S
O469 C487 1.265 . S
O470 Gd431 2.353 . S
O470 C487 1.242 . S
O471 Gd431 2.468 . S
O471 C495 1.263 . S
O472 Gd431 2.427 . S
O472 C495 1.252 . S
O473 Gd430 2.307 . S
O473 C488 1.261 . S
O474 Gd431 2.388 . S
O474 C488 1.252 . S
C475 O463 1.265 . S
C475 O464 1.242 . S
C476 O467 1.261 . S
C476 O468 1.252 . S
C477 C480 1.394 . S
C477 C482 1.370 . S
C477 C483 1.500 . S
C478 C481 1.383 . S
C478 C482 1.395 . S
C479 C480 1.396 . S
C479 C481 1.365 . S
C479 H496 0.929 . S
C480 C477 1.394 . S
C480 C479 1.396 . S
C480 H497 0.930 . S
C481 C478 1.383 . S
C481 C479 1.365 . S
C481 H498 0.931 . S
C482 C477 1.370 . S
C482 C478 1.395 . S
C482 H499 0.930 . S
C483 Gd430 2.805 . S
C483 O465 1.263 . S
C483 O466 1.252 . S
C483 C477 1.500 . S
C484 H446 0.930 . S
C484 C460 1.417 . S
C484 C485 1.329 . S
C485 C455 1.437 . S
C485 H456 0.929 . S
C485 C484 1.329 . S
H486 C459 0.931 . S
C487 O469 1.265 . S
C487 O470 1.242 . S
C488 O473 1.261 . S
C488 O474 1.252 . S
C489 C492 1.394 . S
C489 C494 1.370 . S
C489 C495 1.500 . S
C490 C493 1.383 . S
C490 C494 1.395 . S
C491 C492 1.396 . S
C491 C493 1.365 . S
C491 H500 0.929 . S
C492 C489 1.394 . S
C492 C491 1.396 . S
C492 H501 0.930 . S
C493 C490 1.383 . S
C493 C491 1.365 . S
C493 H502 0.931 . S
C494 C489 1.370 . S
C494 C490 1.395 . S
C494 H503 0.930 . S
C495 Gd431 2.805 . S
C495 O471 1.263 . S
C495 O472 1.252 . S
C495 C489 1.500 . S
H496 C479 0.929 . S
H497 C480 0.930 . S
H498 C481 0.931 . S
H499 C482 0.930 . S
H500 C491 0.929 . S
H501 C492 0.930 . S
H502 C493 0.931 . S
H503 C494 0.930 . S
C504 C506 1.422 . S
C504 C508 1.415 . S
C504 N510 1.369 . S
C505 C506 1.421 . S
C505 C507 1.417 . S
C505 C517 1.422 . S
C506 C504 1.422 . S
C506 C505 1.421 . S
C506 N516 1.359 . S
C507 C505 1.417 . S
C507 C509 1.329 . S
C507 H526 0.930 . S
C508 C504 1.415 . S
C508 C509 1.437 . S
C508 C512 1.413 . S
C509 C507 1.329 . S
C509 C508 1.437 . S
C509 H531 0.929 . S
N510 C504 1.369 . S
N510 C511 1.338 . S
N510 Gd515 2.622 . S
C511 N510 1.338 . S
C511 C513 1.378 . S
C511 H523 0.929 . S
C512 C508 1.413 . S
C512 C513 1.348 . S
C512 H528 0.931 . S
C513 C511 1.378 . S
C513 C512 1.348 . S
C513 H529 0.930 . S
Gd514 N534 2.622 . S
Gd514 N541 2.570 . S
Gd514 O548 2.353 . S
Gd514 O549 2.468 . S
Gd514 O550 2.427 . S
Gd514 O552 2.388 . S
Gd514 O553 2.386 . S
Gd514 O557 2.307 . S
Gd514 C567 2.805 . S
Gd515 N510 2.622 . S
Gd515 N516 2.570 . S
Gd515 O547 2.386 . S
Gd515 O551 2.307 . S
Gd515 O554 2.353 . S
Gd515 O555 2.468 . S
Gd515 O556 2.427 . S
Gd515 O558 2.388 . S
Gd515 C579 2.805 . S
N516 C506 1.359 . S
N516 Gd515 2.570 . S
N516 C518 1.343 . S
C517 C505 1.422 . S
C517 C519 1.321 . S
C517 H525 0.931 . S
C518 N516 1.343 . S
C518 C519 1.390 . S
C518 H520 0.931 . S
C519 C517 1.321 . S
C519 C518 1.390 . S
C519 H521 0.930 . S
H520 C518 0.931 . S
H521 C519 0.930 . S
H522 C545 0.931 . S
H523 C511 0.929 . S
H524 C546 0.930 . S
H525 C517 0.931 . S
H526 C507 0.930 . S
H527 C536 0.929 . S
H528 C512 0.931 . S
H529 C513 0.930 . S
H530 C568 0.930 . S
H531 C509 0.929 . S
H532 C537 0.931 . S
H533 C538 0.930 . S
N534 Gd514 2.622 . S
N534 C535 1.369 . S
N534 C536 1.338 . S
C535 N534 1.369 . S
C535 C539 1.415 . S
C535 C542 1.422 . S
C536 H527 0.929 . S
C536 N534 1.338 . S
C536 C538 1.378 . S
C537 H532 0.931 . S
C537 C538 1.348 . S
C537 C539 1.413 . S
C538 H533 0.930 . S
C538 C536 1.378 . S
C538 C537 1.348 . S
C539 C535 1.415 . S
C539 C537 1.413 . S
C539 C569 1.437 . S
H540 C569 0.929 . S
N541 Gd514 2.570 . S
N541 C542 1.359 . S
N541 C545 1.343 . S
C542 C535 1.422 . S
C542 N541 1.359 . S
C542 C544 1.421 . S
C543 C544 1.422 . S
C543 C546 1.321 . S
C543 H570 0.931 . S
C544 C542 1.421 . S
C544 C543 1.422 . S
C544 C568 1.417 . S
C545 H522 0.931 . S
C545 N541 1.343 . S
C545 C546 1.390 . S
C546 H524 0.930 . S
C546 C543 1.321 . S
C546 C545 1.390 . S
O547 Gd515 2.386 . S
O547 C559 1.265 . S
O548 Gd514 2.353 . S
O548 C559 1.242 . S
O549 Gd514 2.468 . S
O549 C567 1.263 . S
O550 Gd514 2.427 . S
O550 C567 1.252 . S
O551 Gd515 2.307 . S
O551 C560 1.261 . S
O552 Gd514 2.388 . S
O552 C560 1.252 . S
O553 Gd514 2.386 . S
O553 C571 1.265 . S
O554 Gd515 2.353 . S
O554 C571 1.242 . S
O555 Gd515 2.468 . S
O555 C579 1.263 . S
O556 Gd515 2.427 . S
O556 C579 1.252 . S
O557 Gd514 2.307 . S
O557 C572 1.261 . S
O558 Gd515 2.388 . S
O558 C572 1.252 . S
C559 O547 1.265 . S
C559 O548 1.242 . S
C560 O551 1.261 . S
C560 O552 1.252 . S
C561 C564 1.394 . S
C561 C566 1.370 . S
C561 C567 1.500 . S
C562 C565 1.383 . S
C562 C566 1.395 . S
C563 C564 1.396 . S
C563 C565 1.365 . S
C563 H580 0.929 . S
C564 C561 1.394 . S
C564 C563 1.396 . S
C564 H581 0.930 . S
C565 C562 1.383 . S
C565 C563 1.365 . S
C565 H582 0.931 . S
C566 C561 1.370 . S
C566 C562 1.395 . S
C566 H583 0.930 . S
C567 Gd514 2.805 . S
C567 O549 1.263 . S
C567 O550 1.252 . S
C567 C561 1.500 . S
C568 H530 0.930 . S
C568 C544 1.417 . S
C568 C569 1.329 . S
C569 C539 1.437 . S
C569 H540 0.929 . S
C569 C568 1.329 . S
H570 C543 0.931 . S
C571 O553 1.265 . S
C571 O554 1.242 . S
C572 O557 1.261 . S
C572 O558 1.252 . S
C573 C576 1.394 . S
C573 C578 1.370 . S
C573 C579 1.500 . S
C574 C577 1.383 . S
C574 C578 1.395 . S
C575 C576 1.396 . S
C575 C577 1.365 . S
C575 H584 0.929 . S
C576 C573 1.394 . S
C576 C575 1.396 . S
C576 H585 0.930 . S
C577 C574 1.383 . S
C577 C575 1.365 . S
C577 H586 0.931 . S
C578 C573 1.370 . S
C578 C574 1.395 . S
C578 H587 0.930 . S
C579 Gd515 2.805 . S
C579 O555 1.263 . S
C579 O556 1.252 . S
C579 C573 1.500 . S
H580 C563 0.929 . S
H581 C564 0.930 . S
H582 C565 0.931 . S
H583 C566 0.930 . S
H584 C575 0.929 . S
H585 C576 0.930 . S
H586 C577 0.931 . S
H587 C578 0.930 . S
C588 C590 1.422 . S
C588 C592 1.415 . S
C588 N594 1.369 . S
C589 C590 1.421 . S
C589 C591 1.417 . S
C589 C601 1.422 . S
C590 C588 1.422 . S
C590 C589 1.421 . S
C590 N600 1.359 . S
C591 C589 1.417 . S
C591 C593 1.329 . S
C591 H610 0.930 . S
C592 C588 1.415 . S
C592 C593 1.437 . S
C592 C596 1.413 . S
C593 C591 1.329 . S
C593 C592 1.437 . S
C593 H615 0.929 . S
N594 C588 1.369 . S
N594 C595 1.338 . S
N594 Gd599 2.622 . S
C595 N594 1.338 . S
C595 C597 1.378 . S
C595 H607 0.929 . S
C596 C592 1.413 . S
C596 C597 1.348 . S
C596 H612 0.931 . S
C597 C595 1.378 . S
C597 C596 1.348 . S
C597 H613 0.930 . S
Gd598 N618 2.622 . S
Gd598 N625 2.570 . S
Gd598 O632 2.353 . S
Gd598 O633 2.468 . S
Gd598 O634 2.427 . S
Gd598 O636 2.388 . S
Gd598 O637 2.386 . S
Gd598 O641 2.307 . S
Gd598 C651 2.805 . S
Gd599 N594 2.622 . S
Gd599 N600 2.570 . S
Gd599 O631 2.386 . S
Gd599 O635 2.307 . S
Gd599 O638 2.353 . S
Gd599 O639 2.468 . S
Gd599 O640 2.427 . S
Gd599 O642 2.388 . S
Gd599 C663 2.805 . S
N600 C590 1.359 . S
N600 Gd599 2.570 . S
N600 C602 1.343 . S
C601 C589 1.422 . S
C601 C603 1.321 . S
C601 H609 0.931 . S
C602 N600 1.343 . S
C602 C603 1.390 . S
C602 H604 0.931 . S
C603 C601 1.321 . S
C603 C602 1.390 . S
C603 H605 0.930 . S
H604 C602 0.931 . S
H605 C603 0.930 . S
H606 C629 0.931 . S
H607 C595 0.929 . S
H608 C630 0.930 . S
H609 C601 0.931 . S
H610 C591 0.930 . S
H611 C620 0.929 . S
H612 C596 0.931 . S
H613 C597 0.930 . S
H614 C652 0.930 . S
H615 C593 0.929 . S
H616 C621 0.931 . S
H617 C622 0.930 . S
N618 Gd598 2.622 . S
N618 C619 1.369 . S
N618 C620 1.338 . S
C619 N618 1.369 . S
C619 C623 1.415 . S
C619 C626 1.422 . S
C620 H611 0.929 . S
C620 N618 1.338 . S
C620 C622 1.378 . S
C621 H616 0.931 . S
C621 C622 1.348 . S
C621 C623 1.413 . S
C622 H617 0.930 . S
C622 C620 1.378 . S
C622 C621 1.348 . S
C623 C619 1.415 . S
C623 C621 1.413 . S
C623 C653 1.437 . S
H624 C653 0.929 . S
N625 Gd598 2.570 . S
N625 C626 1.359 . S
N625 C629 1.343 . S
C626 C619 1.422 . S
C626 N625 1.359 . S
C626 C628 1.421 . S
C627 C628 1.422 . S
C627 C630 1.321 . S
C627 H654 0.931 . S
C628 C626 1.421 . S
C628 C627 1.422 . S
C628 C652 1.417 . S
C629 H606 0.931 . S
C629 N625 1.343 . S
C629 C630 1.390 . S
C630 H608 0.930 . S
C630 C627 1.321 . S
C630 C629 1.390 . S
O631 Gd599 2.386 . S
O631 C643 1.265 . S
O632 Gd598 2.353 . S
O632 C643 1.242 . S
O633 Gd598 2.468 . S
O633 C651 1.263 . S
O634 Gd598 2.427 . S
O634 C651 1.252 . S
O635 Gd599 2.307 . S
O635 C644 1.261 . S
O636 Gd598 2.388 . S
O636 C644 1.252 . S
O637 Gd598 2.386 . S
O637 C655 1.265 . S
O638 Gd599 2.353 . S
O638 C655 1.242 . S
O639 Gd599 2.468 . S
O639 C663 1.263 . S
O640 Gd599 2.427 . S
O640 C663 1.252 . S
O641 Gd598 2.307 . S
O641 C656 1.261 . S
O642 Gd599 2.388 . S
O642 C656 1.252 . S
C643 O631 1.265 . S
C643 O632 1.242 . S
C644 O635 1.261 . S
C644 O636 1.252 . S
C645 C648 1.394 . S
C645 C650 1.370 . S
C645 C651 1.500 . S
C646 C649 1.383 . S
C646 C650 1.395 . S
C647 C648 1.396 . S
C647 C649 1.365 . S
C647 H664 0.929 . S
C648 C645 1.394 . S
C648 C647 1.396 . S
C648 H665 0.930 . S
C649 C646 1.383 . S
C649 C647 1.365 . S
C649 H666 0.931 . S
C650 C645 1.370 . S
C650 C646 1.395 . S
C650 H667 0.930 . S
C651 Gd598 2.805 . S
C651 O633 1.263 . S
C651 O634 1.252 . S
C651 C645 1.500 . S
C652 H614 0.930 . S
C652 C628 1.417 . S
C652 C653 1.329 . S
C653 C623 1.437 . S
C653 H624 0.929 . S
C653 C652 1.329 . S
H654 C627 0.931 . S
C655 O637 1.265 . S
C655 O638 1.242 . S
C656 O641 1.261 . S
C656 O642 1.252 . S
C657 C660 1.394 . S
C657 C662 1.370 . S
C657 C663 1.500 . S
C658 C661 1.383 . S
C658 C662 1.395 . S
C659 C660 1.396 . S
C659 C661 1.365 . S
C659 H668 0.929 . S
C660 C657 1.394 . S
C660 C659 1.396 . S
C660 H669 0.930 . S
C661 C658 1.383 . S
C661 C659 1.365 . S
C661 H670 0.931 . S
C662 C657 1.370 . S
C662 C658 1.395 . S
C662 H671 0.930 . S
C663 Gd599 2.805 . S
C663 O639 1.263 . S
C663 O640 1.252 . S
C663 C657 1.500 . S
H664 C647 0.929 . S
H665 C648 0.930 . S
H666 C649 0.931 . S
H667 C650 0.930 . S
H668 C659 0.929 . S
H669 C660 0.930 . S
H670 C661 0.931 . S
H671 C662 0.930 . S
C672 O684 1.241 . S
C672 O685 1.280 . S
C673 O686 1.277 . S
C673 O687 1.245 . S
C674 O698 1.247 . S
C674 O700 1.289 . S
Mg675 O676 1.926 . S
Mg675 O685 1.984 . S
Mg675 O687 1.988 . S
Mg675 O688 2.061 1_655 S
O676 Mg675 1.926 . S
O676 Mg677 1.986 1_545 S
O676 Mg678 1.911 1_655 S
Mg677 O676 1.986 1_565 S
Mg677 O684 2.042 1_565 S
Mg677 O686 2.041 1_565 S
Mg677 O692 2.038 . S
Mg677 O700 2.238 . S
Mg678 O676 1.911 1_455 S
Mg678 O679 1.923 1_545 S
Mg678 O689 2.112 . S
Mg678 O691 2.078 1_445 S
Mg678 O700 2.101 1_445 S
Mg678 O701 2.080 . S
O679 Mg678 1.923 1_565 S
O679 Mg680 1.926 . S
O679 Mg681 1.986 1_565 S
Mg680 O679 1.926 . S
Mg680 O694 1.984 . S
Mg680 O697 1.988 . S
Mg680 O698 2.061 1_455 S
Mg681 O679 1.986 1_545 S
Mg681 O689 2.238 . S
Mg681 O693 2.042 1_545 S
Mg681 O695 2.041 1_545 S
Mg681 O702 2.038 . S
C682 O688 1.247 . S
C682 O689 1.289 . S
C683 O701 1.245 . S
C683 O702 1.274 . S
O684 C672 1.241 . S
O684 Mg677 2.042 1_545 S
O685 C672 1.280 . S
O685 Mg675 1.984 . S
O686 C673 1.277 . S
O686 Mg677 2.041 1_545 S
O687 C673 1.245 . S
O687 Mg675 1.988 . S
O688 Mg675 2.061 1_455 S
O688 C682 1.247 . S
O689 Mg678 2.112 . S
O689 Mg681 2.238 . S
O689 C682 1.289 . S
C690 O691 1.245 . S
C690 O692 1.274 . S
O691 Mg678 2.078 1_665 S
O691 C690 1.245 . S
O692 Mg677 2.038 . S
O692 C690 1.274 . S
O693 Mg681 2.042 1_565 S
O693 C696 1.241 . S
O694 Mg680 1.984 . S
O694 C696 1.280 . S
O695 Mg681 2.041 1_565 S
O695 C699 1.277 . S
C696 O693 1.241 . S
C696 O694 1.280 . S
O697 Mg680 1.988 . S
O697 C699 1.245 . S
O698 C674 1.247 . S
O698 Mg680 2.061 1_655 S
C699 O695 1.277 . S
C699 O697 1.245 . S
O700 C674 1.289 . S
O700 Mg677 2.238 . S
O700 Mg678 2.101 1_665 S
O701 Mg678 2.080 . S
O701 C683 1.245 . S
O702 Mg681 2.038 . S
O702 C683 1.274 . S
C703 O715 1.241 . S
C703 O716 1.280 . S
C704 O717 1.277 . S
C704 O718 1.245 . S
C705 O729 1.247 . S
C705 O731 1.289 . S
Mg706 O707 1.926 . S
Mg706 O716 1.984 . S
Mg706 O718 1.988 1_554 S
Mg706 O719 2.061 . S
O707 Mg706 1.926 . S
O707 Mg708 1.986 1_545 S
O707 Mg709 1.918 . S
Mg708 O707 1.986 1_565 S
Mg708 O715 2.042 1_565 S
Mg708 O717 2.041 1_564 S
Mg708 O723 2.038 . S
Mg708 O731 2.238 1_554 S
Mg709 O707 1.918 . S
Mg709 O710 1.916 1_544 S
Mg709 O720 2.109 . S
Mg709 O722 2.082 1_545 S
Mg709 O731 2.104 1_544 S
Mg709 O732 2.075 1_554 S
O710 Mg709 1.916 1_566 S
O710 Mg711 1.926 . S
O710 Mg712 1.986 1_565 S
Mg711 O710 1.926 . S
Mg711 O725 1.984 . S
Mg711 O728 1.988 1_556 S
Mg711 O729 2.061 . S
Mg712 O710 1.986 1_545 S
Mg712 O720 2.238 1_556 S
Mg712 O724 2.042 1_545 S
Mg712 O726 2.041 1_546 S
Mg712 O733 2.038 . S
C713 O719 1.247 . S
C713 O720 1.289 . S
C714 O732 1.245 . S
C714 O733 1.274 . S
O715 C703 1.241 . S
O715 Mg708 2.042 1_545 S
O716 C703 1.280 . S
O716 Mg706 1.984 . S
O717 C704 1.277 . S
O717 Mg708 2.041 1_546 S
O718 C704 1.245 . S
O718 Mg706 1.988 1_556 S
O719 Mg706 2.061 . S
O719 C713 1.247 . S
O720 Mg709 2.109 . S
O720 Mg712 2.238 1_554 S
O720 C713 1.289 . S
C721 O722 1.245 . S
C721 O723 1.274 . S
O722 Mg709 2.082 1_565 S
O722 C721 1.245 . S
O723 Mg708 2.038 . S
O723 C721 1.274 . S
O724 Mg712 2.042 1_565 S
O724 C727 1.241 . S
O725 Mg711 1.984 . S
O725 C727 1.280 . S
O726 Mg712 2.041 1_564 S
O726 C730 1.277 . S
C727 O724 1.241 . S
C727 O725 1.280 . S
O728 Mg711 1.988 1_554 S
O728 C730 1.245 . S
O729 C705 1.247 . S
O729 Mg711 2.061 . S
C730 O726 1.277 . S
C730 O728 1.245 . S
O731 C705 1.289 . S
O731 Mg708 2.238 1_556 S
O731 Mg709 2.104 1_566 S
O732 Mg709 2.075 1_556 S
O732 C714 1.245 . S
O733 Mg712 2.038 . S
O733 C714 1.274 . S
C734 O746 1.241 . S
C734 O747 1.280 . S
C735 O748 1.277 . S
C735 O749 1.245 . S
C736 O760 1.247 . S
C736 O762 1.289 . S
Mg737 O738 1.926 . S
Mg737 O747 1.984 . S
Mg737 O749 1.988 1_554 S
Mg737 O750 2.061 1_655 S
O738 Mg737 1.926 . S
O738 Mg739 1.986 . S
O738 Mg740 1.911 1_655 S
Mg739 O738 1.986 . S
Mg739 O746 2.042 . S
Mg739 O748 2.041 1_554 S
Mg739 O754 2.038 . S
Mg739 O762 2.238 1_554 S
Mg740 O738 1.911 1_455 S
Mg740 O741 1.922 1_554 S
Mg740 O751 2.115 . S
Mg740 O753 2.082 1_455 S
Mg740 O762 2.098 1_454 S
Mg740 O763 2.076 1_554 S
O741 Mg740 1.922 1_556 S
O741 Mg742 1.926 . S
O741 Mg743 1.986 . S
Mg742 O741 1.926 . S
Mg742 O756 1.984 . S
Mg742 O759 1.988 1_556 S
Mg742 O760 2.061 1_455 S
Mg743 O741 1.986 . S
Mg743 O751 2.238 1_556 S
Mg743 O755 2.042 . S
Mg743 O757 2.041 1_556 S
Mg743 O764 2.038 . S
C744 O750 1.247 . S
C744 O751 1.289 . S
C745 O763 1.245 . S
C745 O764 1.274 . S
O746 C734 1.241 . S
O746 Mg739 2.042 . S
O747 C734 1.280 . S
O747 Mg737 1.984 . S
O748 C735 1.277 . S
O748 Mg739 2.041 1_556 S
O749 C735 1.245 . S
O749 Mg737 1.988 1_556 S
O750 Mg737 2.061 1_455 S
O750 C744 1.247 . S
O751 Mg740 2.115 . S
O751 Mg743 2.238 1_554 S
O751 C744 1.289 . S
C752 O753 1.245 . S
C752 O754 1.274 . S
O753 Mg740 2.082 1_655 S
O753 C752 1.245 . S
O754 Mg739 2.038 . S
O754 C752 1.274 . S
O755 Mg743 2.042 . S
O755 C758 1.241 . S
O756 Mg742 1.984 . S
O756 C758 1.280 . S
O757 Mg743 2.041 1_554 S
O757 C761 1.277 . S
C758 O755 1.241 . S
C758 O756 1.280 . S
O759 Mg742 1.988 1_554 S
O759 C761 1.245 . S
O760 C736 1.247 . S
O760 Mg742 2.061 1_655 S
C761 O757 1.277 . S
C761 O759 1.245 . S
O762 C736 1.289 . S
O762 Mg739 2.238 1_556 S
O762 Mg740 2.098 1_656 S
O763 Mg740 2.076 1_556 S
O763 C745 1.245 . S
O764 Mg743 2.038 . S
O764 C745 1.274 . S
C765 O777 1.241 . S
C765 O778 1.280 . S
C766 O779 1.277 . S
C766 O780 1.245 . S
C767 O791 1.247 . S
C767 O793 1.289 . S
Mg768 O769 1.926 . S
Mg768 O778 1.984 . S
Mg768 O780 1.988 1_554 S
Mg768 O781 2.061 . S
O769 Mg768 1.926 . S
O769 Mg770 1.986 . S
O769 Mg771 1.918 . S
Mg770 O769 1.986 . S
Mg770 O777 2.042 . S
Mg770 O779 2.041 1_554 S
Mg770 O785 2.038 . S
Mg770 O793 2.238 1_554 S
Mg771 O769 1.918 . S
Mg771 O772 1.916 1_554 S
Mg771 O782 2.109 . S
Mg771 O784 2.083 . S
Mg771 O793 2.104 1_554 S
Mg771 O794 2.075 1_554 S
O772 Mg771 1.916 1_556 S
O772 Mg773 1.926 . S
O772 Mg774 1.986 . S
Mg773 O772 1.926 . S
Mg773 O787 1.984 . S
Mg773 O790 1.988 1_556 S
Mg773 O791 2.061 . S
Mg774 O772 1.986 . S
Mg774 O782 2.238 1_556 S
Mg774 O786 2.042 . S
Mg774 O788 2.041 1_556 S
Mg774 O795 2.038 . S
C775 O781 1.247 . S
C775 O782 1.289 . S
C776 O794 1.245 . S
C776 O795 1.274 . S
O777 C765 1.241 . S
O777 Mg770 2.042 . S
O778 C765 1.280 . S
O778 Mg768 1.984 . S
O779 C766 1.277 . S
O779 Mg770 2.041 1_556 S
O780 C766 1.245 . S
O780 Mg768 1.988 1_556 S
O781 Mg768 2.061 . S
O781 C775 1.247 . S
O782 Mg771 2.109 . S
O782 Mg774 2.238 1_554 S
O782 C775 1.289 . S
C783 O784 1.245 . S
C783 O785 1.274 . S
O784 Mg771 2.083 . S
O784 C783 1.245 . S
O785 Mg770 2.038 . S
O785 C783 1.274 . S
O786 Mg774 2.042 . S
O786 C789 1.241 . S
O787 Mg773 1.984 . S
O787 C789 1.280 . S
O788 Mg774 2.041 1_554 S
O788 C792 1.277 . S
C789 O786 1.241 . S
C789 O787 1.280 . S
O790 Mg773 1.988 1_554 S
O790 C792 1.245 . S
O791 C767 1.247 . S
O791 Mg773 2.061 . S
C792 O788 1.277 . S
C792 O790 1.245 . S
O793 C767 1.289 . S
O793 Mg770 2.238 1_556 S
O793 Mg771 2.104 1_556 S
O794 Mg771 2.075 1_556 S
O794 C776 1.245 . S
O795 Mg774 2.038 . S
O795 C776 1.274 . S
C796 O808 1.241 . S
C796 O809 1.280 . S
C797 O810 1.277 . S
C797 O811 1.245 . S
C798 O822 1.247 . S
C798 O824 1.289 . S
Mg799 O800 1.926 . S
Mg799 O809 1.984 . S
Mg799 O811 1.988 . S
Mg799 O812 2.061 1_655 S
O800 Mg799 1.926 . S
O800 Mg801 1.986 . S
O800 Mg802 1.910 1_655 S
Mg801 O800 1.986 . S
Mg801 O808 2.042 . S
Mg801 O810 2.041 . S
Mg801 O816 2.038 . S
Mg801 O824 2.238 . S
Mg802 O800 1.910 1_455 S
Mg802 O803 1.923 . S
Mg802 O813 2.112 . S
Mg802 O815 2.078 1_455 S
Mg802 O824 2.101 1_455 S
Mg802 O825 2.080 . S
O803 Mg802 1.923 . S
O803 Mg804 1.926 . S
O803 Mg805 1.986 . S
Mg804 O803 1.926 . S
Mg804 O818 1.984 . S
Mg804 O821 1.988 . S
Mg804 O822 2.061 1_455 S
Mg805 O803 1.986 . S
Mg805 O813 2.238 . S
Mg805 O817 2.042 . S
Mg805 O819 2.041 . S
Mg805 O826 2.038 . S
C806 O812 1.247 . S
C806 O813 1.289 . S
C807 O825 1.245 . S
C807 O826 1.274 . S
O808 C796 1.241 . S
O808 Mg801 2.042 . S
O809 C796 1.280 . S
O809 Mg799 1.984 . S
O810 C797 1.277 . S
O810 Mg801 2.041 . S
O811 C797 1.245 . S
O811 Mg799 1.988 . S
O812 Mg799 2.061 1_455 S
O812 C806 1.247 . S
O813 Mg802 2.112 . S
O813 Mg805 2.238 . S
O813 C806 1.289 . S
C814 O815 1.245 . S
C814 O816 1.274 . S
O815 Mg802 2.078 1_655 S
O815 C814 1.245 . S
O816 Mg801 2.038 . S
O816 C814 1.274 . S
O817 Mg805 2.042 . S
O817 C820 1.241 . S
O818 Mg804 1.984 . S
O818 C820 1.280 . S
O819 Mg805 2.041 . S
O819 C823 1.277 . S
C820 O817 1.241 . S
C820 O818 1.280 . S
O821 Mg804 1.988 . S
O821 C823 1.245 . S
O822 C798 1.247 . S
O822 Mg804 2.061 1_655 S
C823 O819 1.277 . S
C823 O821 1.245 . S
O824 C798 1.289 . S
O824 Mg801 2.238 . S
O824 Mg802 2.101 1_655 S
O825 Mg802 2.080 . S
O825 C807 1.245 . S
O826 Mg805 2.038 . S
O826 C807 1.274 . S
C827 O839 1.241 . S
C827 O840 1.280 . S
C828 O841 1.277 . S
C828 O842 1.245 . S
C829 O853 1.247 . S
C829 O855 1.289 . S
Mg830 O831 1.926 . S
Mg830 O840 1.984 . S
Mg830 O842 1.988 . S
Mg830 O843 2.061 . S
O831 Mg830 1.926 . S
O831 Mg832 1.986 1_545 S
O831 Mg833 1.917 . S
Mg832 O831 1.986 1_565 S
Mg832 O839 2.042 1_565 S
Mg832 O841 2.041 1_565 S
Mg832 O847 2.038 . S
Mg832 O855 2.238 . S
Mg833 O831 1.917 . S
Mg833 O834 1.917 1_545 S
Mg833 O844 2.106 . S
Mg833 O846 2.079 1_545 S
Mg833 O855 2.106 1_545 S
Mg833 O856 2.079 . S
O834 Mg833 1.917 1_565 S
O834 Mg835 1.926 . S
O834 Mg836 1.986 1_565 S
Mg835 O834 1.926 . S
Mg835 O849 1.984 . S
Mg835 O852 1.988 . S
Mg835 O853 2.061 . S
Mg836 O834 1.986 1_545 S
Mg836 O844 2.238 . S
Mg836 O848 2.042 1_545 S
Mg836 O850 2.041 1_545 S
Mg836 O857 2.038 . S
C837 O843 1.247 . S
C837 O844 1.289 . S
C838 O856 1.245 . S
C838 O857 1.274 . S
O839 C827 1.241 . S
O839 Mg832 2.042 1_545 S
O840 C827 1.280 . S
O840 Mg830 1.984 . S
O841 C828 1.277 . S
O841 Mg832 2.041 1_545 S
O842 C828 1.245 . S
O842 Mg830 1.988 . S
O843 Mg830 2.061 . S
O843 C837 1.247 . S
O844 Mg833 2.106 . S
O844 Mg836 2.238 . S
O844 C837 1.289 . S
C845 O846 1.245 . S
C845 O847 1.274 . S
O846 Mg833 2.079 1_565 S
O846 C845 1.245 . S
O847 Mg832 2.038 . S
O847 C845 1.274 . S
O848 Mg836 2.042 1_565 S
O848 C851 1.241 . S
O849 Mg835 1.984 . S
O849 C851 1.280 . S
O850 Mg836 2.041 1_565 S
O850 C854 1.277 . S
C851 O848 1.241 . S
C851 O849 1.280 . S
O852 Mg835 1.988 . S
O852 C854 1.245 . S
O853 C829 1.247 . S
O853 Mg835 2.061 . S
C854 O850 1.277 . S
C854 O852 1.245 . S
O855 C829 1.289 . S
O855 Mg832 2.238 . S
O855 Mg833 2.106 1_565 S
O856 Mg833 2.079 . S
O856 C838 1.245 . S
O857 Mg836 2.038 . S
O857 C838 1.274 . S
H858 C866 0.950 . S
H859 C871 0.950 . S
H860 C868 0.950 . S
H861 C870 0.950 . S
H862 C872 0.950 . S
H863 C874 0.950 . S
H864 C876 0.950 . S
H865 C877 0.950 . S
C866 H858 0.950 . S
C866 C867 1.386 . S
C866 C868 1.391 . S
C867 C866 1.386 . S
C867 C871 1.393 . S
C868 H860 0.950 . S
C868 C866 1.391 . S
C868 C869 1.400 . S
C869 C868 1.400 . S
C869 C870 1.398 . S
C869 C875 1.491 . S
C870 H861 0.950 . S
C870 C869 1.398 . S
C870 C871 1.391 . S
C871 H859 0.950 . S
C871 C867 1.393 . S
C871 C870 1.391 . S
C872 H862 0.950 . S
C872 C873 1.386 . S
C872 C874 1.391 . S
C873 C872 1.386 . S
C873 C877 1.393 . S
C874 H863 0.950 . S
C874 C872 1.391 . S
C874 C875 1.400 . S
C875 C869 1.491 . S
C875 C874 1.400 . S
C875 C876 1.398 . S
C876 H864 0.950 . S
C876 C875 1.398 . S
C876 C877 1.391 . S
C877 H865 0.950 . S
C877 C873 1.393 . S
C877 C876 1.391 . S
H878 C886 0.950 . S
H879 C891 0.950 . S
H880 C888 0.950 . S
H881 C890 0.950 . S
H882 C892 0.950 . S
H883 C894 0.950 . S
H884 C896 0.950 . S
H885 C897 0.950 . S
C886 H878 0.950 . S
C886 C887 1.386 . S
C886 C888 1.391 . S
C887 C886 1.386 . S
C887 C891 1.393 . S
C888 H880 0.950 . S
C888 C886 1.391 . S
C888 C889 1.400 . S
C889 C888 1.400 . S
C889 C890 1.398 . S
C889 C895 1.491 . S
C890 H881 0.950 . S
C890 C889 1.398 . S
C890 C891 1.391 . S
C891 H879 0.950 . S
C891 C887 1.393 . S
C891 C890 1.391 . S
C892 H882 0.950 . S
C892 C893 1.386 . S
C892 C894 1.391 . S
C893 C892 1.386 . S
C893 C897 1.393 . S
C894 H883 0.950 . S
C894 C892 1.391 . S
C894 C895 1.400 . S
C895 C889 1.491 . S
C895 C894 1.400 . S
C895 C896 1.398 . S
C896 H884 0.950 . S
C896 C895 1.398 . S
C896 C897 1.391 . S
C897 H885 0.950 . S
C897 C893 1.393 . S
C897 C896 1.391 . S
H898 C906 0.950 . S
H899 C911 0.950 . S
H900 C908 0.950 . S
H901 C910 0.950 . S
H902 C912 0.950 . S
H903 C914 0.950 . S
H904 C916 0.950 . S
H905 C917 0.950 . S
C906 H898 0.950 . S
C906 C907 1.386 . S
C906 C908 1.391 . S
C907 C906 1.386 . S
C907 C911 1.393 . S
C908 H900 0.950 . S
C908 C906 1.391 . S
C908 C909 1.400 . S
C909 C908 1.400 . S
C909 C910 1.398 . S
C909 C915 1.491 . S
C910 H901 0.950 . S
C910 C909 1.398 . S
C910 C911 1.391 . S
C911 H899 0.950 . S
C911 C907 1.393 . S
C911 C910 1.391 . S
C912 H902 0.950 . S
C912 C913 1.386 . S
C912 C914 1.391 . S
C913 C912 1.386 . S
C913 C917 1.393 . S
C914 H903 0.950 . S
C914 C912 1.391 . S
C914 C915 1.400 . S
C915 C909 1.491 . S
C915 C914 1.400 . S
C915 C916 1.398 . S
C916 H904 0.950 . S
C916 C915 1.398 . S
C916 C917 1.391 . S
C917 H905 0.950 . S
C917 C913 1.393 . S
C917 C916 1.391 . S
H918 C926 0.950 . S
H919 C931 0.950 . S
H920 C928 0.950 . S
H921 C930 0.950 . S
H922 C932 0.950 . S
H923 C934 0.950 . S
H924 C936 0.950 . S
H925 C937 0.950 . S
C926 H918 0.950 . S
C926 C927 1.386 . S
C926 C928 1.391 . S
C927 C926 1.386 . S
C927 C931 1.393 . S
C928 H920 0.950 . S
C928 C926 1.391 . S
C928 C929 1.400 . S
C929 C928 1.400 . S
C929 C930 1.398 . S
C929 C935 1.491 . S
C930 H921 0.950 . S
C930 C929 1.398 . S
C930 C931 1.391 . S
C931 H919 0.950 . S
C931 C927 1.393 . S
C931 C930 1.391 . S
C932 H922 0.950 . S
C932 C933 1.386 . S
C932 C934 1.391 . S
C933 C932 1.386 . S
C933 C937 1.393 . S
C934 H923 0.950 . S
C934 C932 1.391 . S
C934 C935 1.400 . S
C935 C929 1.491 . S
C935 C934 1.400 . S
C935 C936 1.398 . S
C936 H924 0.950 . S
C936 C935 1.398 . S
C936 C937 1.391 . S
C937 H925 0.950 . S
C937 C933 1.393 . S
C937 C936 1.391 . S
H938 C946 0.950 . S
H939 C951 0.950 . S
H940 C948 0.950 . S
H941 C950 0.950 . S
H942 C952 0.950 . S
H943 C954 0.950 . S
H944 C956 0.950 . S
H945 C957 0.950 . S
C946 H938 0.950 . S
C946 C947 1.386 . S
C946 C948 1.391 . S
C947 C946 1.386 . S
C947 C951 1.393 . S
C948 H940 0.950 . S
C948 C946 1.391 . S
C948 C949 1.400 . S
C949 C948 1.400 . S
C949 C950 1.398 . S
C949 C955 1.491 . S
C950 H941 0.950 . S
C950 C949 1.398 . S
C950 C951 1.391 . S
C951 H939 0.950 . S
C951 C947 1.393 . S
C951 C950 1.391 . S
C952 H942 0.950 . S
C952 C953 1.386 . S
C952 C954 1.391 . S
C953 C952 1.386 . S
C953 C957 1.393 . S
C954 H943 0.950 . S
C954 C952 1.391 . S
C954 C955 1.400 . S
C955 C949 1.491 . S
C955 C954 1.400 . S
C955 C956 1.398 . S
C956 H944 0.950 . S
C956 C955 1.398 . S
C956 C957 1.391 . S
C957 H945 0.950 . S
C957 C953 1.393 . S
C957 C956 1.391 . S
H958 C966 0.950 . S
H959 C971 0.950 . S
H960 C968 0.950 . S
H961 C970 0.950 . S
H962 C972 0.950 . S
H963 C974 0.950 . S
H964 C976 0.950 . S
H965 C977 0.950 . S
C966 H958 0.950 . S
C966 C967 1.386 . S
C966 C968 1.391 . S
C967 C966 1.386 . S
C967 C971 1.393 . S
C968 H960 0.950 . S
C968 C966 1.391 . S
C968 C969 1.400 . S
C969 C968 1.400 . S
C969 C970 1.398 . S
C969 C975 1.491 . S
C970 H961 0.950 . S
C970 C969 1.398 . S
C970 C971 1.391 . S
C971 H959 0.950 . S
C971 C967 1.393 . S
C971 C970 1.391 . S
C972 H962 0.950 . S
C972 C973 1.386 . S
C972 C974 1.391 . S
C973 C972 1.386 . S
C973 C977 1.393 . S
C974 H963 0.950 . S
C974 C972 1.391 . S
C974 C975 1.400 . S
C975 C969 1.491 . S
C975 C974 1.400 . S
C975 C976 1.398 . S
C976 H964 0.950 . S
C976 C975 1.398 . S
C976 C977 1.391 . S
C977 H965 0.950 . S
C977 C973 1.393 . S
C977 C976 1.391 . S
H978 C986 0.950 . S
H979 C991 0.950 . S
H980 C988 0.950 . S
H981 C990 0.950 . S
H982 C992 0.950 . S
H983 C994 0.950 . S
H984 C996 0.950 . S
H985 C997 0.950 . S
C986 H978 0.950 . S
C986 C987 1.386 . S
C986 C988 1.391 . S
C987 C986 1.386 . S
C987 C991 1.393 . S
C988 H980 0.950 . S
C988 C986 1.391 . S
C988 C989 1.400 . S
C989 C988 1.400 . S
C989 C990 1.398 . S
C989 C995 1.491 . S
C990 H981 0.950 . S
C990 C989 1.398 . S
C990 C991 1.391 . S
C991 H979 0.950 . S
C991 C987 1.393 . S
C991 C990 1.391 . S
C992 H982 0.950 . S
C992 C993 1.386 . S
C992 C994 1.391 . S
C993 C992 1.386 . S
C993 C997 1.393 . S
C994 H983 0.950 . S
C994 C992 1.391 . S
C994 C995 1.400 . S
C995 C989 1.491 . S
C995 C994 1.400 . S
C995 C996 1.398 . S
C996 H984 0.950 . S
C996 C995 1.398 . S
C996 C997 1.391 . S
C997 H985 0.950 . S
C997 C993 1.393 . S
C997 C996 1.391 . S
H998 C1006 0.950 . S
H999 C1011 0.950 . S
H1000 C1008 0.950 . S
H1001 C1010 0.950 . S
H1002 C1012 0.950 . S
H1003 C1014 0.950 . S
H1004 C1016 0.950 . S
H1005 C1017 0.950 . S
C1006 H998 0.950 . S
C1006 C1007 1.386 . S
C1006 C1008 1.391 . S
C1007 C1006 1.386 . S
C1007 C1011 1.393 . S
C1008 H1000 0.950 . S
C1008 C1006 1.391 . S
C1008 C1009 1.400 . S
C1009 C1008 1.400 . S
C1009 C1010 1.398 . S
C1009 C1015 1.491 . S
C1010 H1001 0.950 . S
C1010 C1009 1.398 . S
C1010 C1011 1.391 . S
C1011 H999 0.950 . S
C1011 C1007 1.393 . S
C1011 C1010 1.391 . S
C1012 H1002 0.950 . S
C1012 C1013 1.386 . S
C1012 C1014 1.391 . S
C1013 C1012 1.386 . S
C1013 C1017 1.393 . S
C1014 H1003 0.950 . S
C1014 C1012 1.391 . S
C1014 C1015 1.400 . S
C1015 C1009 1.491 . S
C1015 C1014 1.400 . S
C1015 C1016 1.398 . S
C1016 H1004 0.950 . S
C1016 C1015 1.398 . S
C1016 C1017 1.391 . S
C1017 H1005 0.950 . S
C1017 C1013 1.393 . S
C1017 C1016 1.391 . S
H1018 C1026 0.950 . S
H1019 C1031 0.950 . S
H1020 C1028 0.950 . S
H1021 C1030 0.950 . S
H1022 C1032 0.950 . S
H1023 C1034 0.950 . S
H1024 C1036 0.950 . S
H1025 C1037 0.950 . S
C1026 H1018 0.950 . S
C1026 C1027 1.386 . S
C1026 C1028 1.391 . S
C1027 C1026 1.386 . S
C1027 C1031 1.393 . S
C1028 H1020 0.950 . S
C1028 C1026 1.391 . S
C1028 C1029 1.400 . S
C1029 C1028 1.400 . S
C1029 C1030 1.398 . S
C1029 C1035 1.491 . S
C1030 H1021 0.950 . S
C1030 C1029 1.398 . S
C1030 C1031 1.391 . S
C1031 H1019 0.950 . S
C1031 C1027 1.393 . S
C1031 C1030 1.391 . S
C1032 H1022 0.950 . S
C1032 C1033 1.386 . S
C1032 C1034 1.391 . S
C1033 C1032 1.386 . S
C1033 C1037 1.393 . S
C1034 H1023 0.950 . S
C1034 C1032 1.391 . S
C1034 C1035 1.400 . S
C1035 C1029 1.491 . S
C1035 C1034 1.400 . S
C1035 C1036 1.398 . S
C1036 H1024 0.950 . S
C1036 C1035 1.398 . S
C1036 C1037 1.391 . S
C1037 H1025 0.950 . S
C1037 C1033 1.393 . S
C1037 C1036 1.391 . S
H1038 C1046 0.950 . S
H1039 C1051 0.950 . S
H1040 C1048 0.950 . S
H1041 C1050 0.950 . S
H1042 C1052 0.950 . S
H1043 C1054 0.950 . S
H1044 C1056 0.950 . S
H1045 C1057 0.950 . S
C1046 H1038 0.950 . S
C1046 C1047 1.386 . S
C1046 C1048 1.391 . S
C1047 C1046 1.386 . S
C1047 C1051 1.393 . S
C1048 H1040 0.950 . S
C1048 C1046 1.391 . S
C1048 C1049 1.400 . S
C1049 C1048 1.400 . S
C1049 C1050 1.398 . S
C1049 C1055 1.491 . S
C1050 H1041 0.950 . S
C1050 C1049 1.398 . S
C1050 C1051 1.391 . S
C1051 H1039 0.950 . S
C1051 C1047 1.393 . S
C1051 C1050 1.391 . S
C1052 H1042 0.950 . S
C1052 C1053 1.386 . S
C1052 C1054 1.391 . S
C1053 C1052 1.386 . S
C1053 C1057 1.393 . S
C1054 H1043 0.950 . S
C1054 C1052 1.391 . S
C1054 C1055 1.400 . S
C1055 C1049 1.491 . S
C1055 C1054 1.400 . S
C1055 C1056 1.398 . S
C1056 H1044 0.950 . S
C1056 C1055 1.398 . S
C1056 C1057 1.391 . S
C1057 H1045 0.950 . S
C1057 C1053 1.393 . S
C1057 C1056 1.391 . S
H1058 C1066 0.950 . S
H1059 C1071 0.950 . S
H1060 C1068 0.950 . S
H1061 C1070 0.950 . S
H1062 C1072 0.950 . S
H1063 C1074 0.950 . S
H1064 C1076 0.950 . S
H1065 C1077 0.950 . S
C1066 H1058 0.950 . S
C1066 C1067 1.386 . S
C1066 C1068 1.391 . S
C1067 C1066 1.386 . S
C1067 C1071 1.393 . S
C1068 H1060 0.950 . S
C1068 C1066 1.391 . S
C1068 C1069 1.400 . S
C1069 C1068 1.400 . S
C1069 C1070 1.398 . S
C1069 C1075 1.491 . S
C1070 H1061 0.950 . S
C1070 C1069 1.398 . S
C1070 C1071 1.391 . S
C1071 H1059 0.950 . S
C1071 C1067 1.393 . S
C1071 C1070 1.391 . S
C1072 H1062 0.950 . S
C1072 C1073 1.386 . S
C1072 C1074 1.391 . S
C1073 C1072 1.386 . S
C1073 C1077 1.393 . S
C1074 H1063 0.950 . S
C1074 C1072 1.391 . S
C1074 C1075 1.400 . S
C1075 C1069 1.491 . S
C1075 C1074 1.400 . S
C1075 C1076 1.398 . S
C1076 H1064 0.950 . S
C1076 C1075 1.398 . S
C1076 C1077 1.391 . S
C1077 H1065 0.950 . S
C1077 C1073 1.393 . S
C1077 C1076 1.391 . S
H1078 C1086 0.950 . S
H1079 C1091 0.950 . S
H1080 C1088 0.950 . S
H1081 C1090 0.950 . S
H1082 C1092 0.950 . S
H1083 C1094 0.950 . S
H1084 C1096 0.950 . S
H1085 C1097 0.950 . S
C1086 H1078 0.950 . S
C1086 C1087 1.386 . S
C1086 C1088 1.391 . S
C1087 C1086 1.386 . S
C1087 C1091 1.393 . S
C1088 H1080 0.950 . S
C1088 C1086 1.391 . S
C1088 C1089 1.400 . S
C1089 C1088 1.400 . S
C1089 C1090 1.398 . S
C1089 C1095 1.491 . S
C1090 H1081 0.950 . S
C1090 C1089 1.398 . S
C1090 C1091 1.391 . S
C1091 H1079 0.950 . S
C1091 C1087 1.393 . S
C1091 C1090 1.391 . S
C1092 H1082 0.950 . S
C1092 C1093 1.386 . S
C1092 C1094 1.391 . S
C1093 C1092 1.386 . S
C1093 C1097 1.393 . S
C1094 H1083 0.950 . S
C1094 C1092 1.391 . S
C1094 C1095 1.400 . S
C1095 C1089 1.491 . S
C1095 C1094 1.400 . S
C1095 C1096 1.398 . S
C1096 H1084 0.950 . S
C1096 C1095 1.398 . S
C1096 C1097 1.391 . S
C1097 H1085 0.950 . S
C1097 C1093 1.393 . S
C1097 C1096 1.391 . S
H1098 C1106 0.950 . S
H1099 C1111 0.950 . S
H1100 C1108 0.950 . S
H1101 C1110 0.950 . S
H1102 C1112 0.950 . S
H1103 C1114 0.950 . S
H1104 C1116 0.950 . S
H1105 C1117 0.950 . S
C1106 H1098 0.950 . S
C1106 C1107 1.386 . S
C1106 C1108 1.391 . S
C1107 C1106 1.386 . S
C1107 C1111 1.393 . S
C1108 H1100 0.950 . S
C1108 C1106 1.391 . S
C1108 C1109 1.400 . S
C1109 C1108 1.400 . S
C1109 C1110 1.398 . S
C1109 C1115 1.491 . S
C1110 H1101 0.950 . S
C1110 C1109 1.398 . S
C1110 C1111 1.391 . S
C1111 H1099 0.950 . S
C1111 C1107 1.393 . S
C1111 C1110 1.391 . S
C1112 H1102 0.950 . S
C1112 C1113 1.386 . S
C1112 C1114 1.391 . S
C1113 C1112 1.386 . S
C1113 C1117 1.393 . S
C1114 H1103 0.950 . S
C1114 C1112 1.391 . S
C1114 C1115 1.400 . S
C1115 C1109 1.491 . S
C1115 C1114 1.400 . S
C1115 C1116 1.398 . S
C1116 H1104 0.950 . S
C1116 C1115 1.398 . S
C1116 C1117 1.391 . S
C1117 H1105 0.950 . S
C1117 C1113 1.393 . S
C1117 C1116 1.391 . S
H1118 C1126 0.950 . S
H1119 C1131 0.950 . S
H1120 C1128 0.950 . S
H1121 C1130 0.950 . S
H1122 C1132 0.950 . S
H1123 C1134 0.950 . S
H1124 C1136 0.950 . S
H1125 C1137 0.950 . S
C1126 H1118 0.950 . S
C1126 C1127 1.386 . S
C1126 C1128 1.391 . S
C1127 C1126 1.386 . S
C1127 C1131 1.393 . S
C1128 H1120 0.950 . S
C1128 C1126 1.391 . S
C1128 C1129 1.400 . S
C1129 C1128 1.400 . S
C1129 C1130 1.398 . S
C1129 C1135 1.491 . S
C1130 H1121 0.950 . S
C1130 C1129 1.398 . S
C1130 C1131 1.391 . S
C1131 H1119 0.950 . S
C1131 C1127 1.393 . S
C1131 C1130 1.391 . S
C1132 H1122 0.950 . S
C1132 C1133 1.386 . S
C1132 C1134 1.391 . S
C1133 C1132 1.386 . S
C1133 C1137 1.393 . S
C1134 H1123 0.950 . S
C1134 C1132 1.391 . S
C1134 C1135 1.400 . S
C1135 C1129 1.491 . S
C1135 C1134 1.400 . S
C1135 C1136 1.398 . S
C1136 H1124 0.950 . S
C1136 C1135 1.398 . S
C1136 C1137 1.391 . S
C1137 H1125 0.950 . S
C1137 C1133 1.393 . S
C1137 C1136 1.391 . S
H1138 C1146 0.950 . S
H1139 C1151 0.950 . S
H1140 C1148 0.950 . S
H1141 C1150 0.950 . S
H1142 C1152 0.950 . S
H1143 C1154 0.950 . S
H1144 C1156 0.950 . S
H1145 C1157 0.950 . S
C1146 H1138 0.950 . S
C1146 C1147 1.386 . S
C1146 C1148 1.391 . S
C1147 C1146 1.386 . S
C1147 C1151 1.393 . S
C1148 H1140 0.950 . S
C1148 C1146 1.391 . S
C1148 C1149 1.400 . S
C1149 C1148 1.400 . S
C1149 C1150 1.398 . S
C1149 C1155 1.491 . S
C1150 H1141 0.950 . S
C1150 C1149 1.398 . S
C1150 C1151 1.391 . S
C1151 H1139 0.950 . S
C1151 C1147 1.393 . S
C1151 C1150 1.391 . S
C1152 H1142 0.950 . S
C1152 C1153 1.386 . S
C1152 C1154 1.391 . S
C1153 C1152 1.386 . S
C1153 C1157 1.393 . S
C1154 H1143 0.950 . S
C1154 C1152 1.391 . S
C1154 C1155 1.400 . S
C1155 C1149 1.491 . S
C1155 C1154 1.400 . S
C1155 C1156 1.398 . S
C1156 H1144 0.950 . S
C1156 C1155 1.398 . S
C1156 C1157 1.391 . S
C1157 H1145 0.950 . S
C1157 C1153 1.393 . S
C1157 C1156 1.391 . S
H1158 C1166 0.950 . S
H1159 C1171 0.950 . S
H1160 C1168 0.950 . S
H1161 C1170 0.950 . S
H1162 C1172 0.950 . S
H1163 C1174 0.950 . S
H1164 C1176 0.950 . S
H1165 C1177 0.950 . S
C1166 H1158 0.950 . S
C1166 C1167 1.386 . S
C1166 C1168 1.391 . S
C1167 C1166 1.386 . S
C1167 C1171 1.393 . S
C1168 H1160 0.950 . S
C1168 C1166 1.391 . S
C1168 C1169 1.400 . S
C1169 C1168 1.400 . S
C1169 C1170 1.398 . S
C1169 C1175 1.491 . S
C1170 H1161 0.950 . S
C1170 C1169 1.398 . S
C1170 C1171 1.391 . S
C1171 H1159 0.950 . S
C1171 C1167 1.393 . S
C1171 C1170 1.391 . S
C1172 H1162 0.950 . S
C1172 C1173 1.386 . S
C1172 C1174 1.391 . S
C1173 C1172 1.386 . S
C1173 C1177 1.393 . S
C1174 H1163 0.950 . S
C1174 C1172 1.391 . S
C1174 C1175 1.400 . S
C1175 C1169 1.491 . S
C1175 C1174 1.400 . S
C1175 C1176 1.398 . S
C1176 H1164 0.950 . S
C1176 C1175 1.398 . S
C1176 C1177 1.391 . S
C1177 H1165 0.950 . S
C1177 C1173 1.393 . S
C1177 C1176 1.391 . S
H1178 C1186 0.950 . S
H1179 C1191 0.950 . S
H1180 C1188 0.950 . S
H1181 C1190 0.950 . S
H1182 C1192 0.950 . S
H1183 C1194 0.950 . S
H1184 C1196 0.950 . S
H1185 C1197 0.950 . S
C1186 H1178 0.950 . S
C1186 C1187 1.386 . S
C1186 C1188 1.391 . S
C1187 C1186 1.386 . S
C1187 C1191 1.393 . S
C1188 H1180 0.950 . S
C1188 C1186 1.391 . S
C1188 C1189 1.400 . S
C1189 C1188 1.400 . S
C1189 C1190 1.398 . S
C1189 C1195 1.491 . S
C1190 H1181 0.950 . S
C1190 C1189 1.398 . S
C1190 C1191 1.391 . S
C1191 H1179 0.950 . S
C1191 C1187 1.393 . S
C1191 C1190 1.391 . S
C1192 H1182 0.950 . S
C1192 C1193 1.386 . S
C1192 C1194 1.391 . S
C1193 C1192 1.386 . S
C1193 C1197 1.393 . S
C1194 H1183 0.950 . S
C1194 C1192 1.391 . S
C1194 C1195 1.400 . S
C1195 C1189 1.491 . S
C1195 C1194 1.400 . S
C1195 C1196 1.398 . S
C1196 H1184 0.950 . S
C1196 C1195 1.398 . S
C1196 C1197 1.391 . S
C1197 H1185 0.950 . S
C1197 C1193 1.393 . S
C1197 C1196 1.391 . S
H1198 C1206 0.950 . S
H1199 C1211 0.950 . S
H1200 C1208 0.950 . S
H1201 C1210 0.950 . S
H1202 C1212 0.950 . S
H1203 C1214 0.950 . S
H1204 C1216 0.950 . S
H1205 C1217 0.950 . S
C1206 H1198 0.950 . S
C1206 C1207 1.386 . S
C1206 C1208 1.391 . S
C1207 C1206 1.386 . S
C1207 C1211 1.393 . S
C1208 H1200 0.950 . S
C1208 C1206 1.391 . S
C1208 C1209 1.400 . S
C1209 C1208 1.400 . S
C1209 C1210 1.398 . S
C1209 C1215 1.491 . S
C1210 H1201 0.950 . S
C1210 C1209 1.398 . S
C1210 C1211 1.391 . S
C1211 H1199 0.950 . S
C1211 C1207 1.393 . S
C1211 C1210 1.391 . S
C1212 H1202 0.950 . S
C1212 C1213 1.386 . S
C1212 C1214 1.391 . S
C1213 C1212 1.386 . S
C1213 C1217 1.393 . S
C1214 H1203 0.950 . S
C1214 C1212 1.391 . S
C1214 C1215 1.400 . S
C1215 C1209 1.491 . S
C1215 C1214 1.400 . S
C1215 C1216 1.398 . S
C1216 H1204 0.950 . S
C1216 C1215 1.398 . S
C1216 C1217 1.391 . S
C1217 H1205 0.950 . S
C1217 C1213 1.393 . S
C1217 C1216 1.391 . S
H1218 C1226 0.950 . S
H1219 C1231 0.950 . S
H1220 C1228 0.950 . S
H1221 C1230 0.950 . S
H1222 C1232 0.950 . S
H1223 C1234 0.950 . S
H1224 C1236 0.950 . S
H1225 C1237 0.950 . S
C1226 H1218 0.950 . S
C1226 C1227 1.386 . S
C1226 C1228 1.391 . S
C1227 C1226 1.386 . S
C1227 C1231 1.393 . S
C1228 H1220 0.950 . S
C1228 C1226 1.391 . S
C1228 C1229 1.400 . S
C1229 C1228 1.400 . S
C1229 C1230 1.398 . S
C1229 C1235 1.491 . S
C1230 H1221 0.950 . S
C1230 C1229 1.398 . S
C1230 C1231 1.391 . S
C1231 H1219 0.950 . S
C1231 C1227 1.393 . S
C1231 C1230 1.391 . S
C1232 H1222 0.950 . S
C1232 C1233 1.386 . S
C1232 C1234 1.391 . S
C1233 C1232 1.386 . S
C1233 C1237 1.393 . S
C1234 H1223 0.950 . S
C1234 C1232 1.391 . S
C1234 C1235 1.400 . S
C1235 C1229 1.491 . S
C1235 C1234 1.400 . S
C1235 C1236 1.398 . S
C1236 H1224 0.950 . S
C1236 C1235 1.398 . S
C1236 C1237 1.391 . S
C1237 H1225 0.950 . S
C1237 C1233 1.393 . S
C1237 C1236 1.391 . S
H1238 C1246 0.950 . S
H1239 C1251 0.950 . S
H1240 C1248 0.950 . S
H1241 C1250 0.950 . S
H1242 C1252 0.950 . S
H1243 C1254 0.950 . S
H1244 C1256 0.950 . S
H1245 C1257 0.950 . S
C1246 H1238 0.950 . S
C1246 C1247 1.386 . S
C1246 C1248 1.391 . S
C1247 C1246 1.386 . S
C1247 C1251 1.393 . S
C1248 H1240 0.950 . S
C1248 C1246 1.391 . S
C1248 C1249 1.400 . S
C1249 C1248 1.400 . S
C1249 C1250 1.398 . S
C1249 C1255 1.491 . S
C1250 H1241 0.950 . S
C1250 C1249 1.398 . S
C1250 C1251 1.391 . S
C1251 H1239 0.950 . S
C1251 C1247 1.393 . S
C1251 C1250 1.391 . S
C1252 H1242 0.950 . S
C1252 C1253 1.386 . S
C1252 C1254 1.391 . S
C1253 C1252 1.386 . S
C1253 C1257 1.393 . S
C1254 H1243 0.950 . S
C1254 C1252 1.391 . S
C1254 C1255 1.400 . S
C1255 C1249 1.491 . S
C1255 C1254 1.400 . S
C1255 C1256 1.398 . S
C1256 H1244 0.950 . S
C1256 C1255 1.398 . S
C1256 C1257 1.391 . S
C1257 H1245 0.950 . S
C1257 C1253 1.393 . S
C1257 C1256 1.391 . S
H1258 C1266 0.950 . S
H1259 C1271 0.950 . S
H1260 C1268 0.950 . S
H1261 C1270 0.950 . S
H1262 C1272 0.950 . S
H1263 C1274 0.950 . S
H1264 C1276 0.950 . S
H1265 C1277 0.950 . S
C1266 H1258 0.950 . S
C1266 C1267 1.386 . S
C1266 C1268 1.391 . S
C1267 C1266 1.386 . S
C1267 C1271 1.393 . S
C1268 H1260 0.950 . S
C1268 C1266 1.391 . S
C1268 C1269 1.400 . S
C1269 C1268 1.400 . S
C1269 C1270 1.398 . S
C1269 C1275 1.491 . S
C1270 H1261 0.950 . S
C1270 C1269 1.398 . S
C1270 C1271 1.391 . S
C1271 H1259 0.950 . S
C1271 C1267 1.393 . S
C1271 C1270 1.391 . S
C1272 H1262 0.950 . S
C1272 C1273 1.386 . S
C1272 C1274 1.391 . S
C1273 C1272 1.386 . S
C1273 C1277 1.393 . S
C1274 H1263 0.950 . S
C1274 C1272 1.391 . S
C1274 C1275 1.400 . S
C1275 C1269 1.491 . S
C1275 C1274 1.400 . S
C1275 C1276 1.398 . S
C1276 H1264 0.950 . S
C1276 C1275 1.398 . S
C1276 C1277 1.391 . S
C1277 H1265 0.950 . S
C1277 C1273 1.393 . S
C1277 C1276 1.391 . S
H1278 C1286 0.950 . S
H1279 C1291 0.950 . S
H1280 C1288 0.950 . S
H1281 C1290 0.950 . S
H1282 C1292 0.950 . S
H1283 C1294 0.950 . S
H1284 C1296 0.950 . S
H1285 C1297 0.950 . S
C1286 H1278 0.950 . S
C1286 C1287 1.386 . S
C1286 C1288 1.391 . S
C1287 C1286 1.386 . S
C1287 C1291 1.393 . S
C1288 H1280 0.950 . S
C1288 C1286 1.391 . S
C1288 C1289 1.400 . S
C1289 C1288 1.400 . S
C1289 C1290 1.398 . S
C1289 C1295 1.491 . S
C1290 H1281 0.950 . S
C1290 C1289 1.398 . S
C1290 C1291 1.391 . S
C1291 H1279 0.950 . S
C1291 C1287 1.393 . S
C1291 C1290 1.391 . S
C1292 H1282 0.950 . S
C1292 C1293 1.386 . S
C1292 C1294 1.391 . S
C1293 C1292 1.386 . S
C1293 C1297 1.393 . S
C1294 H1283 0.950 . S
C1294 C1292 1.391 . S
C1294 C1295 1.400 . S
C1295 C1289 1.491 . S
C1295 C1294 1.400 . S
C1295 C1296 1.398 . S
C1296 H1284 0.950 . S
C1296 C1295 1.398 . S
C1296 C1297 1.391 . S
C1297 H1285 0.950 . S
C1297 C1293 1.393 . S
C1297 C1296 1.391 . S
H1298 C1306 0.950 . S
H1299 C1311 0.950 . S
H1300 C1308 0.950 . S
H1301 C1310 0.950 . S
H1302 C1312 0.950 . S
H1303 C1314 0.950 . S
H1304 C1316 0.950 . S
H1305 C1317 0.950 . S
C1306 H1298 0.950 . S
C1306 C1307 1.386 . S
C1306 C1308 1.391 . S
C1307 C1306 1.386 . S
C1307 C1311 1.393 . S
C1308 H1300 0.950 . S
C1308 C1306 1.391 . S
C1308 C1309 1.400 . S
C1309 C1308 1.400 . S
C1309 C1310 1.398 . S
C1309 C1315 1.491 . S
C1310 H1301 0.950 . S
C1310 C1309 1.398 . S
C1310 C1311 1.391 . S
C1311 H1299 0.950 . S
C1311 C1307 1.393 . S
C1311 C1310 1.391 . S
C1312 H1302 0.950 . S
C1312 C1313 1.386 . S
C1312 C1314 1.391 . S
C1313 C1312 1.386 . S
C1313 C1317 1.393 . S
C1314 H1303 0.950 . S
C1314 C1312 1.391 . S
C1314 C1315 1.400 . S
C1315 C1309 1.491 . S
C1315 C1314 1.400 . S
C1315 C1316 1.398 . S
C1316 H1304 0.950 . S
C1316 C1315 1.398 . S
C1316 C1317 1.391 . S
C1317 H1305 0.950 . S
C1317 C1313 1.393 . S
C1317 C1316 1.391 . S
H1318 C1326 0.950 . S
H1319 C1331 0.950 . S
H1320 C1328 0.950 . S
H1321 C1330 0.950 . S
H1322 C1332 0.950 . S
H1323 C1334 0.950 . S
H1324 C1336 0.950 . S
H1325 C1337 0.950 . S
C1326 H1318 0.950 . S
C1326 C1327 1.386 . S
C1326 C1328 1.391 . S
C1327 C1326 1.386 . S
C1327 C1331 1.393 . S
C1328 H1320 0.950 . S
C1328 C1326 1.391 . S
C1328 C1329 1.400 . S
C1329 C1328 1.400 . S
C1329 C1330 1.398 . S
C1329 C1335 1.491 . S
C1330 H1321 0.950 . S
C1330 C1329 1.398 . S
C1330 C1331 1.391 . S
C1331 H1319 0.950 . S
C1331 C1327 1.393 . S
C1331 C1330 1.391 . S
C1332 H1322 0.950 . S
C1332 C1333 1.386 . S
C1332 C1334 1.391 . S
C1333 C1332 1.386 . S
C1333 C1337 1.393 . S
C1334 H1323 0.950 . S
C1334 C1332 1.391 . S
C1334 C1335 1.400 . S
C1335 C1329 1.491 . S
C1335 C1334 1.400 . S
C1335 C1336 1.398 . S
C1336 H1324 0.950 . S
C1336 C1335 1.398 . S
C1336 C1337 1.391 . S
C1337 H1325 0.950 . S
C1337 C1333 1.393 . S
C1337 C1336 1.391 . S
H1338 C1346 0.950 . S
H1339 C1351 0.950 . S
H1340 C1348 0.950 . S
H1341 C1350 0.950 . S
H1342 C1352 0.950 . S
H1343 C1354 0.950 . S
H1344 C1356 0.950 . S
H1345 C1357 0.950 . S
C1346 H1338 0.950 . S
C1346 C1347 1.386 . S
C1346 C1348 1.391 . S
C1347 C1346 1.386 . S
C1347 C1351 1.393 . S
C1348 H1340 0.950 . S
C1348 C1346 1.391 . S
C1348 C1349 1.400 . S
C1349 C1348 1.400 . S
C1349 C1350 1.398 . S
C1349 C1355 1.491 . S
C1350 H1341 0.950 . S
C1350 C1349 1.398 . S
C1350 C1351 1.391 . S
C1351 H1339 0.950 . S
C1351 C1347 1.393 . S
C1351 C1350 1.391 . S
C1352 H1342 0.950 . S
C1352 C1353 1.386 . S
C1352 C1354 1.391 . S
C1353 C1352 1.386 . S
C1353 C1357 1.393 . S
C1354 H1343 0.950 . S
C1354 C1352 1.391 . S
C1354 C1355 1.400 . S
C1355 C1349 1.491 . S
C1355 C1354 1.400 . S
C1355 C1356 1.398 . S
C1356 H1344 0.950 . S
C1356 C1355 1.398 . S
C1356 C1357 1.391 . S
C1357 H1345 0.950 . S
C1357 C1353 1.393 . S
C1357 C1356 1.391 . S
H1358 C1366 0.950 . S
H1359 C1371 0.950 . S
H1360 C1368 0.950 . S
H1361 C1370 0.950 . S
H1362 C1372 0.950 . S
H1363 C1374 0.950 . S
H1364 C1376 0.950 . S
H1365 C1377 0.950 . S
C1366 H1358 0.950 . S
C1366 C1367 1.386 . S
C1366 C1368 1.391 . S
C1367 C1366 1.386 . S
C1367 C1371 1.393 . S
C1368 H1360 0.950 . S
C1368 C1366 1.391 . S
C1368 C1369 1.400 . S
C1369 C1368 1.400 . S
C1369 C1370 1.398 . S
C1369 C1375 1.491 . S
C1370 H1361 0.950 . S
C1370 C1369 1.398 . S
C1370 C1371 1.391 . S
C1371 H1359 0.950 . S
C1371 C1367 1.393 . S
C1371 C1370 1.391 . S
C1372 H1362 0.950 . S
C1372 C1373 1.386 . S
C1372 C1374 1.391 . S
C1373 C1372 1.386 . S
C1373 C1377 1.393 . S
C1374 H1363 0.950 . S
C1374 C1372 1.391 . S
C1374 C1375 1.400 . S
C1375 C1369 1.491 . S
C1375 C1374 1.400 . S
C1375 C1376 1.398 . S
C1376 H1364 0.950 . S
C1376 C1375 1.398 . S
C1376 C1377 1.391 . S
C1377 H1365 0.950 . S
C1377 C1373 1.393 . S
C1377 C1376 1.391 . S
H1378 C1386 0.950 . S
H1379 C1391 0.950 . S
H1380 C1388 0.950 . S
H1381 C1390 0.950 . S
H1382 C1392 0.950 . S
H1383 C1394 0.950 . S
H1384 C1396 0.950 . S
H1385 C1397 0.950 . S
C1386 H1378 0.950 . S
C1386 C1387 1.386 . S
C1386 C1388 1.391 . S
C1387 C1386 1.386 . S
C1387 C1391 1.393 . S
C1388 H1380 0.950 . S
C1388 C1386 1.391 . S
C1388 C1389 1.400 . S
C1389 C1388 1.400 . S
C1389 C1390 1.398 . S
C1389 C1395 1.491 . S
C1390 H1381 0.950 . S
C1390 C1389 1.398 . S
C1390 C1391 1.391 . S
C1391 H1379 0.950 . S
C1391 C1387 1.393 . S
C1391 C1390 1.391 . S
C1392 H1382 0.950 . S
C1392 C1393 1.386 . S
C1392 C1394 1.391 . S
C1393 C1392 1.386 . S
C1393 C1397 1.393 . S
C1394 H1383 0.950 . S
C1394 C1392 1.391 . S
C1394 C1395 1.400 . S
C1395 C1389 1.491 . S
C1395 C1394 1.400 . S
C1395 C1396 1.398 . S
C1396 H1384 0.950 . S
C1396 C1395 1.398 . S
C1396 C1397 1.391 . S
C1397 H1385 0.950 . S
C1397 C1393 1.393 . S
C1397 C1396 1.391 . S
H1398 C1406 0.950 . S
H1399 C1411 0.950 . S
H1400 C1408 0.950 . S
H1401 C1410 0.950 . S
H1402 C1412 0.950 . S
H1403 C1414 0.950 . S
H1404 C1416 0.950 . S
H1405 C1417 0.950 . S
C1406 H1398 0.950 . S
C1406 C1407 1.386 . S
C1406 C1408 1.391 . S
C1407 C1406 1.386 . S
C1407 C1411 1.393 . S
C1408 H1400 0.950 . S
C1408 C1406 1.391 . S
C1408 C1409 1.400 . S
C1409 C1408 1.400 . S
C1409 C1410 1.398 . S
C1409 C1415 1.491 . S
C1410 H1401 0.950 . S
C1410 C1409 1.398 . S
C1410 C1411 1.391 . S
C1411 H1399 0.950 . S
C1411 C1407 1.393 . S
C1411 C1410 1.391 . S
C1412 H1402 0.950 . S
C1412 C1413 1.386 . S
C1412 C1414 1.391 . S
C1413 C1412 1.386 . S
C1413 C1417 1.393 . S
C1414 H1403 0.950 . S
C1414 C1412 1.391 . S
C1414 C1415 1.400 . S
C1415 C1409 1.491 . S
C1415 C1414 1.400 . S
C1415 C1416 1.398 . S
C1416 H1404 0.950 . S
C1416 C1415 1.398 . S
C1416 C1417 1.391 . S
C1417 H1405 0.950 . S
C1417 C1413 1.393 . S
C1417 C1416 1.391 . S
H1418 C1426 0.950 . S
H1419 C1431 0.950 . S
H1420 C1428 0.950 . S
H1421 C1430 0.950 . S
H1422 C1432 0.950 . S
H1423 C1434 0.950 . S
H1424 C1436 0.950 . S
H1425 C1437 0.950 . S
C1426 H1418 0.950 . S
C1426 C1427 1.386 . S
C1426 C1428 1.391 . S
C1427 C1426 1.386 . S
C1427 C1431 1.393 . S
C1428 H1420 0.950 . S
C1428 C1426 1.391 . S
C1428 C1429 1.400 . S
C1429 C1428 1.400 . S
C1429 C1430 1.398 . S
C1429 C1435 1.491 . S
C1430 H1421 0.950 . S
C1430 C1429 1.398 . S
C1430 C1431 1.391 . S
C1431 H1419 0.950 . S
C1431 C1427 1.393 . S
C1431 C1430 1.391 . S
C1432 H1422 0.950 . S
C1432 C1433 1.386 . S
C1432 C1434 1.391 . S
C1433 C1432 1.386 . S
C1433 C1437 1.393 . S
C1434 H1423 0.950 . S
C1434 C1432 1.391 . S
C1434 C1435 1.400 . S
C1435 C1429 1.491 . S
C1435 C1434 1.400 . S
C1435 C1436 1.398 . S
C1436 H1424 0.950 . S
C1436 C1435 1.398 . S
C1436 C1437 1.391 . S
C1437 H1425 0.950 . S
C1437 C1433 1.393 . S
C1437 C1436 1.391 . S
H1438 C1446 0.950 . S
H1439 C1451 0.950 . S
H1440 C1448 0.950 . S
H1441 C1450 0.950 . S
H1442 C1452 0.950 . S
H1443 C1454 0.950 . S
H1444 C1456 0.950 . S
H1445 C1457 0.950 . S
C1446 H1438 0.950 . S
C1446 C1447 1.386 . S
C1446 C1448 1.391 . S
C1447 C1446 1.386 . S
C1447 C1451 1.393 . S
C1448 H1440 0.950 . S
C1448 C1446 1.391 . S
C1448 C1449 1.400 . S
C1449 C1448 1.400 . S
C1449 C1450 1.398 . S
C1449 C1455 1.491 . S
C1450 H1441 0.950 . S
C1450 C1449 1.398 . S
C1450 C1451 1.391 . S
C1451 H1439 0.950 . S
C1451 C1447 1.393 . S
C1451 C1450 1.391 . S
C1452 H1442 0.950 . S
C1452 C1453 1.386 . S
C1452 C1454 1.391 . S
C1453 C1452 1.386 . S
C1453 C1457 1.393 . S
C1454 H1443 0.950 . S
C1454 C1452 1.391 . S
C1454 C1455 1.400 . S
C1455 C1449 1.491 . S
C1455 C1454 1.400 . S
C1455 C1456 1.398 . S
C1456 H1444 0.950 . S
C1456 C1455 1.398 . S
C1456 C1457 1.391 . S
C1457 H1445 0.950 . S
C1457 C1453 1.393 . S
C1457 C1456 1.391 . S
H1458 C1466 0.950 . S
H1459 C1471 0.950 . S
H1460 C1468 0.950 . S
H1461 C1470 0.950 . S
H1462 C1472 0.950 . S
H1463 C1474 0.950 . S
H1464 C1476 0.950 . S
H1465 C1477 0.950 . S
C1466 H1458 0.950 . S
C1466 C1467 1.386 . S
C1466 C1468 1.391 . S
C1467 C1466 1.386 . S
C1467 C1471 1.393 . S
C1468 H1460 0.950 . S
C1468 C1466 1.391 . S
C1468 C1469 1.400 . S
C1469 C1468 1.400 . S
C1469 C1470 1.398 . S
C1469 C1475 1.491 . S
C1470 H1461 0.950 . S
C1470 C1469 1.398 . S
C1470 C1471 1.391 . S
C1471 H1459 0.950 . S
C1471 C1467 1.393 . S
C1471 C1470 1.391 . S
C1472 H1462 0.950 . S
C1472 C1473 1.386 . S
C1472 C1474 1.391 . S
C1473 C1472 1.386 . S
C1473 C1477 1.393 . S
C1474 H1463 0.950 . S
C1474 C1472 1.391 . S
C1474 C1475 1.400 . S
C1475 C1469 1.491 . S
C1475 C1474 1.400 . S
C1475 C1476 1.398 . S
C1476 H1464 0.950 . S
C1476 C1475 1.398 . S
C1476 C1477 1.391 . S
C1477 H1465 0.950 . S
C1477 C1473 1.393 . S
C1477 C1476 1.391 . S
H1478 C1486 0.950 . S
H1479 C1491 0.950 . S
H1480 C1488 0.950 . S
H1481 C1490 0.950 . S
H1482 C1492 0.950 . S
H1483 C1494 0.950 . S
H1484 C1496 0.950 . S
H1485 C1497 0.950 . S
C1486 H1478 0.950 . S
C1486 C1487 1.386 . S
C1486 C1488 1.391 . S
C1487 C1486 1.386 . S
C1487 C1491 1.393 . S
C1488 H1480 0.950 . S
C1488 C1486 1.391 . S
C1488 C1489 1.400 . S
C1489 C1488 1.400 . S
C1489 C1490 1.398 . S
C1489 C1495 1.491 . S
C1490 H1481 0.950 . S
C1490 C1489 1.398 . S
C1490 C1491 1.391 . S
C1491 H1479 0.950 . S
C1491 C1487 1.393 . S
C1491 C1490 1.391 . S
C1492 H1482 0.950 . S
C1492 C1493 1.386 . S
C1492 C1494 1.391 . S
C1493 C1492 1.386 . S
C1493 C1497 1.393 . S
C1494 H1483 0.950 . S
C1494 C1492 1.391 . S
C1494 C1495 1.400 . S
C1495 C1489 1.491 . S
C1495 C1494 1.400 . S
C1495 C1496 1.398 . S
C1496 H1484 0.950 . S
C1496 C1495 1.398 . S
C1496 C1497 1.391 . S
C1497 H1485 0.950 . S
C1497 C1493 1.393 . S
C1497 C1496 1.391 . S
H1498 C1506 0.950 . S
H1499 C1511 0.950 . S
H1500 C1508 0.950 . S
H1501 C1510 0.950 . S
H1502 C1512 0.950 . S
H1503 C1514 0.950 . S
H1504 C1516 0.950 . S
H1505 C1517 0.950 . S
C1506 H1498 0.950 . S
C1506 C1507 1.386 . S
C1506 C1508 1.391 . S
C1507 C1506 1.386 . S
C1507 C1511 1.393 . S
C1508 H1500 0.950 . S
C1508 C1506 1.391 . S
C1508 C1509 1.400 . S
C1509 C1508 1.400 . S
C1509 C1510 1.398 . S
C1509 C1515 1.491 . S
C1510 H1501 0.950 . S
C1510 C1509 1.398 . S
C1510 C1511 1.391 . S
C1511 H1499 0.950 . S
C1511 C1507 1.393 . S
C1511 C1510 1.391 . S
C1512 H1502 0.950 . S
C1512 C1513 1.386 . S
C1512 C1514 1.391 . S
C1513 C1512 1.386 . S
C1513 C1517 1.393 . S
C1514 H1503 0.950 . S
C1514 C1512 1.391 . S
C1514 C1515 1.400 . S
C1515 C1509 1.491 . S
C1515 C1514 1.400 . S
C1515 C1516 1.398 . S
C1516 H1504 0.950 . S
C1516 C1515 1.398 . S
C1516 C1517 1.391 . S
C1517 H1505 0.950 . S
C1517 C1513 1.393 . S
C1517 C1516 1.391 . S
H1518 C1526 0.950 . S
H1519 C1531 0.950 . S
H1520 C1528 0.950 . S
H1521 C1530 0.950 . S
H1522 C1532 0.950 . S
H1523 C1534 0.950 . S
H1524 C1536 0.950 . S
H1525 C1537 0.950 . S
C1526 H1518 0.950 . S
C1526 C1527 1.386 . S
C1526 C1528 1.391 . S
C1527 C1526 1.386 . S
C1527 C1531 1.393 . S
C1528 H1520 0.950 . S
C1528 C1526 1.391 . S
C1528 C1529 1.400 . S
C1529 C1528 1.400 . S
C1529 C1530 1.398 . S
C1529 C1535 1.491 . S
C1530 H1521 0.950 . S
C1530 C1529 1.398 . S
C1530 C1531 1.391 . S
C1531 H1519 0.950 . S
C1531 C1527 1.393 . S
C1531 C1530 1.391 . S
C1532 H1522 0.950 . S
C1532 C1533 1.386 . S
C1532 C1534 1.391 . S
C1533 C1532 1.386 . S
C1533 C1537 1.393 . S
C1534 H1523 0.950 . S
C1534 C1532 1.391 . S
C1534 C1535 1.400 . S
C1535 C1529 1.491 . S
C1535 C1534 1.400 . S
C1535 C1536 1.398 . S
C1536 H1524 0.950 . S
C1536 C1535 1.398 . S
C1536 C1537 1.391 . S
C1537 H1525 0.950 . S
C1537 C1533 1.393 . S
C1537 C1536 1.391 . S
H1538 C1546 0.950 . S
H1539 C1551 0.950 . S
H1540 C1548 0.950 . S
H1541 C1550 0.950 . S
H1542 C1552 0.950 . S
H1543 C1554 0.950 . S
H1544 C1556 0.950 . S
H1545 C1557 0.950 . S
C1546 H1538 0.950 . S
C1546 C1547 1.386 . S
C1546 C1548 1.391 . S
C1547 C1546 1.386 . S
C1547 C1551 1.393 . S
C1548 H1540 0.950 . S
C1548 C1546 1.391 . S
C1548 C1549 1.400 . S
C1549 C1548 1.400 . S
C1549 C1550 1.398 . S
C1549 C1555 1.491 . S
C1550 H1541 0.950 . S
C1550 C1549 1.398 . S
C1550 C1551 1.391 . S
C1551 H1539 0.950 . S
C1551 C1547 1.393 . S
C1551 C1550 1.391 . S
C1552 H1542 0.950 . S
C1552 C1553 1.386 . S
C1552 C1554 1.391 . S
C1553 C1552 1.386 . S
C1553 C1557 1.393 . S
C1554 H1543 0.950 . S
C1554 C1552 1.391 . S
C1554 C1555 1.400 . S
C1555 C1549 1.491 . S
C1555 C1554 1.400 . S
C1555 C1556 1.398 . S
C1556 H1544 0.950 . S
C1556 C1555 1.398 . S
C1556 C1557 1.391 . S
C1557 H1545 0.950 . S
C1557 C1553 1.393 . S
C1557 C1556 1.391 . S
H1558 C1566 0.950 . S
H1559 C1571 0.950 . S
H1560 C1568 0.950 . S
H1561 C1570 0.950 . S
H1562 C1572 0.950 . S
H1563 C1574 0.950 . S
H1564 C1576 0.950 . S
H1565 C1577 0.950 . S
C1566 H1558 0.950 . S
C1566 C1567 1.386 . S
C1566 C1568 1.391 . S
C1567 C1566 1.386 . S
C1567 C1571 1.393 . S
C1568 H1560 0.950 . S
C1568 C1566 1.391 . S
C1568 C1569 1.400 . S
C1569 C1568 1.400 . S
C1569 C1570 1.398 . S
C1569 C1575 1.491 . S
C1570 H1561 0.950 . S
C1570 C1569 1.398 . S
C1570 C1571 1.391 . S
C1571 H1559 0.950 . S
C1571 C1567 1.393 . S
C1571 C1570 1.391 . S
C1572 H1562 0.950 . S
C1572 C1573 1.386 . S
C1572 C1574 1.391 . S
C1573 C1572 1.386 . S
C1573 C1577 1.393 . S
C1574 H1563 0.950 . S
C1574 C1572 1.391 . S
C1574 C1575 1.400 . S
C1575 C1569 1.491 . S
C1575 C1574 1.400 . S
C1575 C1576 1.398 . S
C1576 H1564 0.950 . S
C1576 C1575 1.398 . S
C1576 C1577 1.391 . S
C1577 H1565 0.950 . S
C1577 C1573 1.393 . S
C1577 C1576 1.391 . S
H1578 C1586 0.950 . S
H1579 C1591 0.950 . S
H1580 C1588 0.950 . S
H1581 C1590 0.950 . S
H1582 C1592 0.950 . S
H1583 C1594 0.950 . S
H1584 C1596 0.950 . S
H1585 C1597 0.950 . S
C1586 H1578 0.950 . S
C1586 C1587 1.386 . S
C1586 C1588 1.391 . S
C1587 C1586 1.386 . S
C1587 C1591 1.393 . S
C1588 H1580 0.950 . S
C1588 C1586 1.391 . S
C1588 C1589 1.400 . S
C1589 C1588 1.400 . S
C1589 C1590 1.398 . S
C1589 C1595 1.491 . S
C1590 H1581 0.950 . S
C1590 C1589 1.398 . S
C1590 C1591 1.391 . S
C1591 H1579 0.950 . S
C1591 C1587 1.393 . S
C1591 C1590 1.391 . S
C1592 H1582 0.950 . S
C1592 C1593 1.386 . S
C1592 C1594 1.391 . S
C1593 C1592 1.386 . S
C1593 C1597 1.393 . S
C1594 H1583 0.950 . S
C1594 C1592 1.391 . S
C1594 C1595 1.400 . S
C1595 C1589 1.491 . S
C1595 C1594 1.400 . S
C1595 C1596 1.398 . S
C1596 H1584 0.950 . S
C1596 C1595 1.398 . S
C1596 C1597 1.391 . S
C1597 H1585 0.950 . S
C1597 C1593 1.393 . S
C1597 C1596 1.391 . S
H1598 C1606 0.950 . S
H1599 C1611 0.950 . S
H1600 C1608 0.950 . S
H1601 C1610 0.950 . S
H1602 C1612 0.950 . S
H1603 C1614 0.950 . S
H1604 C1616 0.950 . S
H1605 C1617 0.950 . S
C1606 H1598 0.950 . S
C1606 C1607 1.386 . S
C1606 C1608 1.391 . S
C1607 C1606 1.386 . S
C1607 C1611 1.393 . S
C1608 H1600 0.950 . S
C1608 C1606 1.391 . S
C1608 C1609 1.400 . S
C1609 C1608 1.400 . S
C1609 C1610 1.398 . S
C1609 C1615 1.491 . S
C1610 H1601 0.950 . S
C1610 C1609 1.398 . S
C1610 C1611 1.391 . S
C1611 H1599 0.950 . S
C1611 C1607 1.393 . S
C1611 C1610 1.391 . S
C1612 H1602 0.950 . S
C1612 C1613 1.386 . S
C1612 C1614 1.391 . S
C1613 C1612 1.386 . S
C1613 C1617 1.393 . S
C1614 H1603 0.950 . S
C1614 C1612 1.391 . S
C1614 C1615 1.400 . S
C1615 C1609 1.491 . S
C1615 C1614 1.400 . S
C1615 C1616 1.398 . S
C1616 H1604 0.950 . S
C1616 C1615 1.398 . S
C1616 C1617 1.391 . S
C1617 H1605 0.950 . S
C1617 C1613 1.393 . S
C1617 C1616 1.391 . S
H1618 C1626 0.950 . S
H1619 C1631 0.950 . S
H1620 C1628 0.950 . S
H1621 C1630 0.950 . S
H1622 C1632 0.950 . S
H1623 C1634 0.950 . S
H1624 C1636 0.950 . S
H1625 C1637 0.950 . S
C1626 H1618 0.950 . S
C1626 C1627 1.386 . S
C1626 C1628 1.391 . S
C1627 C1626 1.386 . S
C1627 C1631 1.393 . S
C1628 H1620 0.950 . S
C1628 C1626 1.391 . S
C1628 C1629 1.400 . S
C1629 C1628 1.400 . S
C1629 C1630 1.398 . S
C1629 C1635 1.491 . S
C1630 H1621 0.950 . S
C1630 C1629 1.398 . S
C1630 C1631 1.391 . S
C1631 H1619 0.950 . S
C1631 C1627 1.393 . S
C1631 C1630 1.391 . S
C1632 H1622 0.950 . S
C1632 C1633 1.386 . S
C1632 C1634 1.391 . S
C1633 C1632 1.386 . S
C1633 C1637 1.393 . S
C1634 H1623 0.950 . S
C1634 C1632 1.391 . S
C1634 C1635 1.400 . S
C1635 C1629 1.491 . S
C1635 C1634 1.400 . S
C1635 C1636 1.398 . S
C1636 H1624 0.950 . S
C1636 C1635 1.398 . S
C1636 C1637 1.391 . S
C1637 H1625 0.950 . S
C1637 C1633 1.393 . S
C1637 C1636 1.391 . S
H1638 C1646 0.950 . S
H1639 C1651 0.950 . S
H1640 C1648 0.950 . S
H1641 C1650 0.950 . S
H1642 C1652 0.950 . S
H1643 C1654 0.950 . S
H1644 C1656 0.950 . S
H1645 C1657 0.950 . S
C1646 H1638 0.950 . S
C1646 C1647 1.386 . S
C1646 C1648 1.391 . S
C1647 C1646 1.386 . S
C1647 C1651 1.393 . S
C1648 H1640 0.950 . S
C1648 C1646 1.391 . S
C1648 C1649 1.400 . S
C1649 C1648 1.400 . S
C1649 C1650 1.398 . S
C1649 C1655 1.491 . S
C1650 H1641 0.950 . S
C1650 C1649 1.398 . S
C1650 C1651 1.391 . S
C1651 H1639 0.950 . S
C1651 C1647 1.393 . S
C1651 C1650 1.391 . S
C1652 H1642 0.950 . S
C1652 C1653 1.386 . S
C1652 C1654 1.391 . S
C1653 C1652 1.386 . S
C1653 C1657 1.393 . S
C1654 H1643 0.950 . S
C1654 C1652 1.391 . S
C1654 C1655 1.400 . S
C1655 C1649 1.491 . S
C1655 C1654 1.400 . S
C1655 C1656 1.398 . S
C1656 H1644 0.950 . S
C1656 C1655 1.398 . S
C1656 C1657 1.391 . S
C1657 H1645 0.950 . S
C1657 C1653 1.393 . S
C1657 C1656 1.391 . S
H1658 C1666 0.950 . S
H1659 C1671 0.950 . S
H1660 C1668 0.950 . S
H1661 C1670 0.950 . S
H1662 C1672 0.950 . S
H1663 C1674 0.950 . S
H1664 C1676 0.950 . S
H1665 C1677 0.950 . S
C1666 H1658 0.950 . S
C1666 C1667 1.386 . S
C1666 C1668 1.391 . S
C1667 C1666 1.386 . S
C1667 C1671 1.393 . S
C1668 H1660 0.950 . S
C1668 C1666 1.391 . S
C1668 C1669 1.400 . S
C1669 C1668 1.400 . S
C1669 C1670 1.398 . S
C1669 C1675 1.491 . S
C1670 H1661 0.950 . S
C1670 C1669 1.398 . S
C1670 C1671 1.391 . S
C1671 H1659 0.950 . S
C1671 C1667 1.393 . S
C1671 C1670 1.391 . S
C1672 H1662 0.950 . S
C1672 C1673 1.386 . S
C1672 C1674 1.391 . S
C1673 C1672 1.386 . S
C1673 C1677 1.393 . S
C1674 H1663 0.950 . S
C1674 C1672 1.391 . S
C1674 C1675 1.400 . S
C1675 C1669 1.491 . S
C1675 C1674 1.400 . S
C1675 C1676 1.398 . S
C1676 H1664 0.950 . S
C1676 C1675 1.398 . S
C1676 C1677 1.391 . S
C1677 H1665 0.950 . S
C1677 C1673 1.393 . S
C1677 C1676 1.391 . S
H1678 C1686 0.950 . S
H1679 C1691 0.950 . S
H1680 C1688 0.950 . S
H1681 C1690 0.950 . S
H1682 C1692 0.950 . S
H1683 C1694 0.950 . S
H1684 C1696 0.950 . S
H1685 C1697 0.950 . S
C1686 H1678 0.950 . S
C1686 C1687 1.386 . S
C1686 C1688 1.391 . S
C1687 C1686 1.386 . S
C1687 C1691 1.393 . S
C1688 H1680 0.950 . S
C1688 C1686 1.391 . S
C1688 C1689 1.400 . S
C1689 C1688 1.400 . S
C1689 C1690 1.398 . S
C1689 C1695 1.491 . S
C1690 H1681 0.950 . S
C1690 C1689 1.398 . S
C1690 C1691 1.391 . S
C1691 H1679 0.950 . S
C1691 C1687 1.393 . S
C1691 C1690 1.391 . S
C1692 H1682 0.950 . S
C1692 C1693 1.386 . S
C1692 C1694 1.391 . S
C1693 C1692 1.386 . S
C1693 C1697 1.393 . S
C1694 H1683 0.950 . S
C1694 C1692 1.391 . S
C1694 C1695 1.400 . S
C1695 C1689 1.491 . S
C1695 C1694 1.400 . S
C1695 C1696 1.398 . S
C1696 H1684 0.950 . S
C1696 C1695 1.398 . S
C1696 C1697 1.391 . S
C1697 H1685 0.950 . S
C1697 C1693 1.393 . S
C1697 C1696 1.391 . S
H1698 C1706 0.950 . S
H1699 C1711 0.950 . S
H1700 C1708 0.950 . S
H1701 C1710 0.950 . S
H1702 C1712 0.950 . S
H1703 C1714 0.950 . S
H1704 C1716 0.950 . S
H1705 C1717 0.950 . S
C1706 H1698 0.950 . S
C1706 C1707 1.386 . S
C1706 C1708 1.391 . S
C1707 C1706 1.386 . S
C1707 C1711 1.393 . S
C1708 H1700 0.950 . S
C1708 C1706 1.391 . S
C1708 C1709 1.400 . S
C1709 C1708 1.400 . S
C1709 C1710 1.398 . S
C1709 C1715 1.491 . S
C1710 H1701 0.950 . S
C1710 C1709 1.398 . S
C1710 C1711 1.391 . S
C1711 H1699 0.950 . S
C1711 C1707 1.393 . S
C1711 C1710 1.391 . S
C1712 H1702 0.950 . S
C1712 C1713 1.386 . S
C1712 C1714 1.391 . S
C1713 C1712 1.386 . S
C1713 C1717 1.393 . S
C1714 H1703 0.950 . S
C1714 C1712 1.391 . S
C1714 C1715 1.400 . S
C1715 C1709 1.491 . S
C1715 C1714 1.400 . S
C1715 C1716 1.398 . S
C1716 H1704 0.950 . S
C1716 C1715 1.398 . S
C1716 C1717 1.391 . S
C1717 H1705 0.950 . S
C1717 C1713 1.393 . S
C1717 C1716 1.391 . S
H1718 C1726 0.950 . S
H1719 C1731 0.950 . S
H1720 C1728 0.950 . S
H1721 C1730 0.950 . S
H1722 C1732 0.950 . S
H1723 C1734 0.950 . S
H1724 C1736 0.950 . S
H1725 C1737 0.950 . S
C1726 H1718 0.950 . S
C1726 C1727 1.386 . S
C1726 C1728 1.391 . S
C1727 C1726 1.386 . S
C1727 C1731 1.393 . S
C1728 H1720 0.950 . S
C1728 C1726 1.391 . S
C1728 C1729 1.400 . S
C1729 C1728 1.400 . S
C1729 C1730 1.398 . S
C1729 C1735 1.491 . S
C1730 H1721 0.950 . S
C1730 C1729 1.398 . S
C1730 C1731 1.391 . S
C1731 H1719 0.950 . S
C1731 C1727 1.393 . S
C1731 C1730 1.391 . S
C1732 H1722 0.950 . S
C1732 C1733 1.386 . S
C1732 C1734 1.391 . S
C1733 C1732 1.386 . S
C1733 C1737 1.393 . S
C1734 H1723 0.950 . S
C1734 C1732 1.391 . S
C1734 C1735 1.400 . S
C1735 C1729 1.491 . S
C1735 C1734 1.400 . S
C1735 C1736 1.398 . S
C1736 H1724 0.950 . S
C1736 C1735 1.398 . S
C1736 C1737 1.391 . S
C1737 H1725 0.950 . S
C1737 C1733 1.393 . S
C1737 C1736 1.391 . S
H1738 C1746 0.950 . S
H1739 C1751 0.950 . S
H1740 C1748 0.950 . S
H1741 C1750 0.950 . S
H1742 C1752 0.950 . S
H1743 C1754 0.950 . S
H1744 C1756 0.950 . S
H1745 C1757 0.950 . S
C1746 H1738 0.950 . S
C1746 C1747 1.386 . S
C1746 C1748 1.391 . S
C1747 C1746 1.386 . S
C1747 C1751 1.393 . S
C1748 H1740 0.950 . S
C1748 C1746 1.391 . S
C1748 C1749 1.400 . S
C1749 C1748 1.400 . S
C1749 C1750 1.398 . S
C1749 C1755 1.491 . S
C1750 H1741 0.950 . S
C1750 C1749 1.398 . S
C1750 C1751 1.391 . S
C1751 H1739 0.950 . S
C1751 C1747 1.393 . S
C1751 C1750 1.391 . S
C1752 H1742 0.950 . S
C1752 C1753 1.386 . S
C1752 C1754 1.391 . S
C1753 C1752 1.386 . S
C1753 C1757 1.393 . S
C1754 H1743 0.950 . S
C1754 C1752 1.391 . S
C1754 C1755 1.400 . S
C1755 C1749 1.491 . S
C1755 C1754 1.400 . S
C1755 C1756 1.398 . S
C1756 H1744 0.950 . S
C1756 C1755 1.398 . S
C1756 C1757 1.391 . S
C1757 H1745 0.950 . S
C1757 C1753 1.393 . S
C1757 C1756 1.391 . S
H1758 C1766 0.950 . S
H1759 C1771 0.950 . S
H1760 C1768 0.950 . S
H1761 C1770 0.950 . S
H1762 C1772 0.950 . S
H1763 C1774 0.950 . S
H1764 C1776 0.950 . S
H1765 C1777 0.950 . S
C1766 H1758 0.950 . S
C1766 C1767 1.386 . S
C1766 C1768 1.391 . S
C1767 C1766 1.386 . S
C1767 C1771 1.393 . S
C1768 H1760 0.950 . S
C1768 C1766 1.391 . S
C1768 C1769 1.400 . S
C1769 C1768 1.400 . S
C1769 C1770 1.398 . S
C1769 C1775 1.491 . S
C1770 H1761 0.950 . S
C1770 C1769 1.398 . S
C1770 C1771 1.391 . S
C1771 H1759 0.950 . S
C1771 C1767 1.393 . S
C1771 C1770 1.391 . S
C1772 H1762 0.950 . S
C1772 C1773 1.386 . S
C1772 C1774 1.391 . S
C1773 C1772 1.386 . S
C1773 C1777 1.393 . S
C1774 H1763 0.950 . S
C1774 C1772 1.391 . S
C1774 C1775 1.400 . S
C1775 C1769 1.491 . S
C1775 C1774 1.400 . S
C1775 C1776 1.398 . S
C1776 H1764 0.950 . S
C1776 C1775 1.398 . S
C1776 C1777 1.391 . S
C1777 H1765 0.950 . S
C1777 C1773 1.393 . S
C1777 C1776 1.391 . S
H1778 C1786 0.950 . S
H1779 C1791 0.950 . S
H1780 C1788 0.950 . S
H1781 C1790 0.950 . S
H1782 C1792 0.950 . S
H1783 C1794 0.950 . S
H1784 C1796 0.950 . S
H1785 C1797 0.950 . S
C1786 H1778 0.950 . S
C1786 C1787 1.386 . S
C1786 C1788 1.391 . S
C1787 C1786 1.386 . S
C1787 C1791 1.393 . S
C1788 H1780 0.950 . S
C1788 C1786 1.391 . S
C1788 C1789 1.400 . S
C1789 C1788 1.400 . S
C1789 C1790 1.398 . S
C1789 C1795 1.491 . S
C1790 H1781 0.950 . S
C1790 C1789 1.398 . S
C1790 C1791 1.391 . S
C1791 H1779 0.950 . S
C1791 C1787 1.393 . S
C1791 C1790 1.391 . S
C1792 H1782 0.950 . S
C1792 C1793 1.386 . S
C1792 C1794 1.391 . S
C1793 C1792 1.386 . S
C1793 C1797 1.393 . S
C1794 H1783 0.950 . S
C1794 C1792 1.391 . S
C1794 C1795 1.400 . S
C1795 C1789 1.491 . S
C1795 C1794 1.400 . S
C1795 C1796 1.398 . S
C1796 H1784 0.950 . S
C1796 C1795 1.398 . S
C1796 C1797 1.391 . S
C1797 H1785 0.950 . S
C1797 C1793 1.393 . S
C1797 C1796 1.391 . S
H1798 C1806 0.950 . S
H1799 C1811 0.950 . S
H1800 C1808 0.950 . S
H1801 C1810 0.950 . S
H1802 C1812 0.950 . S
H1803 C1814 0.950 . S
H1804 C1816 0.950 . S
H1805 C1817 0.950 . S
C1806 H1798 0.950 . S
C1806 C1807 1.386 . S
C1806 C1808 1.391 . S
C1807 C1806 1.386 . S
C1807 C1811 1.393 . S
C1808 H1800 0.950 . S
C1808 C1806 1.391 . S
C1808 C1809 1.400 . S
C1809 C1808 1.400 . S
C1809 C1810 1.398 . S
C1809 C1815 1.491 . S
C1810 H1801 0.950 . S
C1810 C1809 1.398 . S
C1810 C1811 1.391 . S
C1811 H1799 0.950 . S
C1811 C1807 1.393 . S
C1811 C1810 1.391 . S
C1812 H1802 0.950 . S
C1812 C1813 1.386 . S
C1812 C1814 1.391 . S
C1813 C1812 1.386 . S
C1813 C1817 1.393 . S
C1814 H1803 0.950 . S
C1814 C1812 1.391 . S
C1814 C1815 1.400 . S
C1815 C1809 1.491 . S
C1815 C1814 1.400 . S
C1815 C1816 1.398 . S
C1816 H1804 0.950 . S
C1816 C1815 1.398 . S
C1816 C1817 1.391 . S
C1817 H1805 0.950 . S
C1817 C1813 1.393 . S
C1817 C1816 1.391 . S
C873 C683 1.660 . S
C867 C56 1.648 . S
C893 C673 1.403 . S
C887 C154 1.342 . S
C913 C674 1.247 . S
C907 C236 1.247 . S
C927 C310 0.769 . S
C933 C696 0.601 . S
C947 C394 1.321 . S
C953 C699 1.406 . S
C973 C682 1.229 . S
C967 C476 1.221 . S
C987 C574 0.811 . S
C993 C672 0.581 . S
C1007 C656 1.632 . S
C1013 C690 1.647 . S
C1033 C703 2.461 . S
C1027 C67 2.543 . S
C1047 C139 1.609 . S
C1053 C752 1.563 . S
C1073 C730 1.418 . S
C1067 C238 1.366 . S
C1093 C744 1.219 . S
C1087 C308 1.203 . S
C1107 C392 1.213 . S
C1113 C705 1.196 . S
C1133 C758 2.451 . S
C1127 C487 2.552 . S
C1147 C559 1.613 . S
C1153 C714 1.567 . S
C1167 C658 1.314 . S
C1173 C735 1.392 . S
C1187 C58 1.313 . S
C1193 C761 1.392 . S
C1207 C403 1.610 . S
C1213 C745 1.557 . S
C1233 C704 1.426 . S
C1227 C478 1.396 . S
C1253 C736 1.209 . S
C1247 C572 1.212 . S
C1267 C643 2.544 . S
C1273 C727 2.458 . S
C1287 C223 2.553 . S
C1293 C734 2.463 . S
C1313 C721 1.584 . S
C1307 C319 1.609 . S
C1327 C152 1.217 . S
C1333 C713 1.203 . S
C1347 C644 1.652 . S
C1353 C776 1.653 . S
C1367 C406 1.340 . S
C1373 C766 1.397 . S
C1393 C767 1.244 . S
C1387 C488 1.231 . S
C1413 C789 0.534 . S
C1407 C562 0.775 . S
C1427 C142 1.307 . S
C1433 C792 1.384 . S
C1453 C775 1.248 . S
C1447 C224 1.239 . S
C1467 C322 0.738 . S
C1473 C765 0.568 . S
C1487 C68 1.648 . S
C1493 C783 1.647 . S
C1507 C655 2.541 . S
C1513 C796 2.460 . S
C1533 C845 1.556 . S
C1527 C391 1.610 . S
C1547 C490 1.392 . S
C1553 C823 1.431 . S
C1567 C560 1.221 . S
C1573 C837 1.231 . S
C1593 C798 1.222 . S
C1587 C140 1.231 . S
C1607 C235 2.549 . S
C1613 C851 2.450 . S
C1633 C807 1.577 . S
C1627 C307 1.611 . S
C1653 C828 1.399 . S
C1647 C70 1.349 . S
C1673 C854 1.410 . S
C1667 C646 1.350 . S
C1687 C151 1.608 . S
C1693 C838 1.567 . S
C1707 C226 1.371 . S
C1713 C797 1.411 . S
C1733 C829 1.230 . S
C1727 C320 1.209 . S
C1747 C55 2.544 . S
C1753 C820 2.459 . S
C1767 C475 2.549 . S
C1773 C827 2.445 . S
C1793 C814 1.565 . S
C1787 C571 1.614 . S
C1813 C806 1.221 . S
C1807 C404 1.231 . S
