# Generated by pormake.
# Topology ftw, (4,12)-cn, num edge types: 1
# Building blocks:
#     Node 0, Type 0, BuildingBlock: ESEHIV_clean_sbu_0, # of connection points: 4
#     Node 1, Type 0, BuildingBlock: ESEHIV_clean_sbu_0, # of connection points: 4
#     Node 2, Type 0, BuildingBlock: ESEHIV_clean_sbu_0, # of connection points: 4
#     Node 3, Type 1, BuildingBlock: EZIPEK_clean_sbu_0, # of connection points: 12
#     Edge 4, Type (0, 1), BuildingBlock: UVAHIK_clean_linker_0, # of connection points: 2
#     Edge 5, Type (0, 1), BuildingBlock: UVAHIK_clean_linker_0, # of connection points: 2
#     Edge 6, Type (0, 1), BuildingBlock: UVAHIK_clean_linker_0, # of connection points: 2
#     Edge 7, Type (0, 1), BuildingBlock: UVAHIK_clean_linker_0, # of connection points: 2
#     Edge 8, Type (0, 1), BuildingBlock: UVAHIK_clean_linker_0, # of connection points: 2
#     Edge 9, Type (0, 1), BuildingBlock: UVAHIK_clean_linker_0, # of connection points: 2
#     Edge 10, Type (0, 1), BuildingBlock: UVAHIK_clean_linker_0, # of connection points: 2
#     Edge 11, Type (0, 1), BuildingBlock: UVAHIK_clean_linker_0, # of connection points: 2
#     Edge 12, Type (0, 1), BuildingBlock: UVAHIK_clean_linker_0, # of connection points: 2
#     Edge 13, Type (0, 1), BuildingBlock: UVAHIK_clean_linker_0, # of connection points: 2
#     Edge 14, Type (0, 1), BuildingBlock: UVAHIK_clean_linker_0, # of connection points: 2
#     Edge 15, Type (0, 1), BuildingBlock: UVAHIK_clean_linker_0, # of connection points: 2
# Relax obj value: 0.024
# Max RMSD: 0.144
# Mean RMSD: 0.113
data_MOF--net-ftw--node1-ESEHIV_clean_sbu_0--node2-EZIPEK_clean_sbu_0--edge1-UVAHIK_clean_linker_0
_symmetry_space_group_name_H-M    P1
_symmetry_Int_Tables_number       1
_symmetry_cell_setting            triclinic
loop_
_symmetry_equiv_pos_as_xyz
'x, y, z'
_cell_length_a     31.648283
_cell_length_b     30.987308
_cell_length_c     30.472411
_cell_angle_alpha  87.190789
_cell_angle_beta   87.352213
_cell_angle_gamma 92.935788
loop_
_atom_site_label
_atom_site_type_symbol
_atom_site_fract_x
_atom_site_fract_y
_atom_site_fract_z
_atom_type_partial_charge
Cu0 Cu 0.9755 0.50724 0.49936 0.0
N1 N 0.94298 0.48016 0.45848 0.0
N2 N 0.92656 0.43362 0.40765 0.0
C3 C 0.9525 0.44317 0.44005 0.0
C4 C 0.89965 0.466 0.40552 0.0
C5 C 0.90984 0.49472 0.43714 0.0
O6 O 1.00253 0.46316 0.53381 0.0
C7 C 1.00015 0.58457 0.45455 0.0
O8 O 0.96063 0.59195 0.46539 0.0
H9 H 0.97944 0.42491 0.44867 0.0
H10 H 0.89525 0.52485 0.44302 0.0
N11 N 0.94219 0.53653 0.53879 0.0
N12 N 0.92618 0.58311 0.58962 0.0
C13 C 0.95677 0.5689 0.56266 0.0
C14 C 0.9009 0.52973 0.5512 0.0
C15 C 0.89094 0.55843 0.5829 0.0
C16 C 0.97682 0.43435 0.55264 0.0
O17 O 0.93628 0.43626 0.54567 0.0
H18 H 0.98944 0.58133 0.56071 0.0
H19 H 0.87973 0.5054 0.53842 0.0
O20 O 1.01474 0.54856 0.46657 0.0
H21 H 0.87511 0.46919 0.38217 0.0
H22 H 0.86026 0.56117 0.59946 0.0
Cu23 Cu 0.53239 0.04115 0.49852 0.0
N24 N 0.56394 0.07415 0.53641 0.0
N25 N 0.611 0.08884 0.58671 0.0
C26 C 0.59514 0.05896 0.56036 0.0
C27 C 0.58873 0.12425 0.5793 0.0
C28 C 0.55976 0.11514 0.54801 0.0
O29 O 0.57101 1.00468 0.46728 0.0
C30 C 0.45933 0.0373 0.54947 0.0
O31 O 0.46504 0.07875 0.53829 0.0
H32 H 0.60533 0.0262 0.55913 0.0
H33 H 0.53692 0.13662 0.53511 0.0
N34 N 0.50781 0.07491 0.45526 0.0
N35 N 0.4633 0.09134 0.40293 0.0
C36 C 0.47208 0.06295 0.43578 0.0
C37 C 0.52236 0.1122 0.43405 0.0
C38 C 0.49492 0.12241 0.40156 0.0
C39 C 0.60574 0.02406 0.45267 0.0
O40 O 0.61282 0.0651 0.46014 0.0
H41 H 0.45381 0.03302 0.44449 0.0
H42 H 0.55136 0.13005 0.44096 0.0
O43 O 0.48632 0.01161 0.53498 0.0
H44 H 0.59317 0.1545 0.59523 0.0
H45 H 0.49821 0.15021 0.37851 0.0
Cu46 Cu 0.52903 0.50819 0.9875 0.0
N47 N 0.49375 0.53939 0.95115 0.0
N48 N 0.44433 0.58593 0.93385 0.0
C49 C 0.47467 0.57571 0.96183 0.0
C50 C 0.44493 0.55511 0.90398 0.0
C51 C 0.47536 0.5265 0.91474 0.0
O52 O 0.49233 0.46294 0.02028 0.0
C53 C 0.59788 0.54785 0.03336 0.0
O54 O 0.61268 0.50905 0.03636 0.0
H55 H 0.48053 0.5922 0.99164 0.0
H56 H 0.48188 0.49701 0.89871 0.0
N57 N 0.56887 0.47836 0.95487 0.0
N58 N 0.61914 0.43162 0.94066 0.0
C59 C 0.58853 0.44321 0.96963 0.0
C60 C 0.5873 0.48933 0.91499 0.0
C61 C 0.61815 0.46057 0.90608 0.0
C62 C 0.45276 0.46676 0.02849 0.0
O63 O 0.4375 0.50526 0.02417 0.0
H64 H 0.58108 0.42723 0.00161 0.0
H65 H 0.57986 0.51717 0.89454 0.0
O66 O 0.5611 0.55235 0.01876 0.0
H67 H 0.42384 0.55245 0.87716 0.0
H68 H 0.63937 0.46214 0.8771 0.0
C69 C 0.03873 0.11258 0.89127 0.0
C70 C 0.02367 0.10953 0.10412 0.0
C71 C 0.01895 0.90287 0.90033 0.0
C72 C 0.03707 0.90078 0.11158 0.0
C73 C 0.13063 0.90445 0.99567 0.0
C74 C 0.13589 0.11478 -0.00063 0.0
C75 C 0.92418 0.89769 0.01354 0.0
C76 C 0.92972 0.10848 -0.0014 0.0
C77 C 0.9277 0.99738 0.11455 0.0
C78 C 0.13352 0.01424 0.10231 0.0
C79 C 0.92717 0.01086 0.90121 0.0
C80 C 0.13223 1.00436 0.89001 0.0
Eu81 Eu 0.03227 0.08812 -0.00134 0.0
O82 O 0.06874 0.04521 0.03725 0.0
O83 O 0.99353 0.04358 0.96397 0.0
Eu84 Eu 0.11062 1.00899 0.99735 0.0
Eu85 Eu 0.94967 1.00378 0.00666 0.0
O86 O 0.06916 0.04681 0.95875 0.0
O87 O 0.99353 0.04311 0.04152 0.0
Eu88 Eu 0.02986 1.00733 0.91884 0.0
Eu89 Eu 0.0305 1.00539 0.08513 0.0
O90 O 0.06649 0.96962 0.96263 0.0
O91 O 0.06702 0.96877 0.0401 0.0
O92 O 0.99161 0.96598 0.04484 0.0
O93 O 0.99129 0.96732 0.96661 0.0
Eu94 Eu 0.02803 0.92429 0.00511 0.0
O95 O 0.0378 0.12504 0.9326 0.0
O96 O 0.02607 0.12301 0.06178 0.0
O97 O 0.02065 0.88915 0.94238 0.0
O98 O 0.03427 0.88785 0.07059 0.0
O99 O 0.14449 0.94582 -0.00236 0.0
O100 O 0.14786 0.07422 0.99574 0.0
O101 O 0.91239 0.93857 0.011 0.0
O102 O 0.91585 0.067 0.00494 0.0
O103 O 0.96814 0.9981 0.12551 0.0
O104 O 0.0933 0.01279 0.11804 0.0
O105 O 0.96734 0.01132 0.88553 0.0
O106 O 0.09176 1.00265 0.87921 0.0
O107 O 0.96432 0.88583 0.01272 0.0
O108 O 0.08989 0.89034 0.99668 0.0
O109 O 0.97049 0.12251 0.99474 0.0
O110 O 0.09566 0.12627 0.00133 0.0
O111 O 0.02558 0.06854 0.11942 0.0
O112 O 0.03553 0.94156 0.12363 0.0
O113 O 0.03616 0.07162 0.87938 0.0
O114 O 0.02237 0.94407 0.88499 0.0
O115 O 0.14567 1.00873 0.93058 0.0
O116 O 0.14611 0.01173 0.06011 0.0
O117 O 0.9143 1.00718 0.94366 0.0
O118 O 0.91456 1.00024 0.07352 0.0
C119 C 0.94589 0.35929 0.3939 0.0
C120 C 0.93081 0.39884 0.37848 0.0
C121 C 0.95409 0.32687 0.36493 0.0
C122 C 0.98359 0.31303 0.24963 0.0
H123 H 0.9506 0.19201 0.2764 0.0
C124 C 1.00474 0.18428 0.12205 0.0
C125 C 1.01601 0.14279 0.13646 0.0
C126 C 0.99478 0.21503 0.15223 0.0
C127 C 0.96062 0.22558 0.26873 0.0
H128 H 0.91157 0.43514 0.32089 0.0
H129 H 0.92594 0.37839 0.27004 0.0
H130 H 0.93006 0.24613 0.32779 0.0
H131 H 0.02648 0.10154 0.19415 0.0
H132 H 1.01006 0.15574 0.24688 0.0
H133 H 1.01485 0.29274 0.19112 0.0
C134 C 0.9315 0.37261 0.3046 0.0
C135 C 0.94863 0.25655 0.29805 0.0
C136 C 0.92287 0.40487 0.3337 0.0
C137 C 1.01779 0.1331 0.18188 0.0
C138 C 1.00808 0.16409 0.21214 0.0
C139 C 0.9959 0.28209 0.22053 0.0
C140 C 0.94775 0.33354 0.31986 0.0
C141 C 0.9598 0.3006 0.28864 0.0
C142 C 0.99614 0.20532 0.19765 0.0
C143 C 0.98436 0.23799 0.22956 0.0
H144 H 0.95192 0.35372 0.42835 0.0
H145 H 0.96676 0.29717 0.37756 0.0
H146 H 0.99334 0.34669 0.24196 0.0
H147 H 1.00255 0.19288 0.08738 0.0
H148 H 0.985 0.24614 0.13987 0.0
C149 C 0.68033 1.00953 0.43422 0.0
C150 C 0.63748 1.00317 0.42528 0.0
C151 C 0.71196 1.00038 0.40317 0.0
C152 C 0.73382 0.9526 0.29458 0.0
H153 H 0.82416 0.04251 0.28571 0.0
C154 C 0.85186 0.98349 0.14257 0.0
C155 C 0.89463 0.99299 0.15101 0.0
C156 C 0.82073 0.9799 0.17693 0.0
C157 C 0.79951 0.01681 0.28801 0.0
H158 H 0.59372 0.98044 0.37798 0.0
H159 H 0.64909 0.96539 0.32272 0.0
H160 H 0.7698 0.04264 0.34441 0.0
H161 H 0.93803 1.0055 0.20262 0.0
H162 H 0.8838 0.99943 0.26224 0.0
H163 H 0.76342 0.92777 0.2369 0.0
C164 C 0.65844 0.97649 0.35416 0.0
C165 C 0.7683 0.01671 0.32189 0.0
C166 C 0.62665 0.98493 0.38581 0.0
C167 C 0.90548 0.99827 0.19474 0.0
C168 C 0.87434 0.99499 0.22898 0.0
C169 C 0.76505 0.95291 0.26033 0.0
C170 C 0.70149 0.98582 0.36182 0.0
C171 C 0.7351 0.98451 0.3259 0.0
C172 C 0.83156 0.98606 0.22048 0.0
C173 C 0.79833 0.98499 0.25679 0.0
H174 H 0.68937 0.0236 0.46451 0.0
H175 H 0.7447 1.00664 0.41089 0.0
H176 H 0.70892 0.92718 0.29671 0.0
H177 H 0.8423 0.97889 0.10937 0.0
H178 H 0.78802 0.97333 0.16925 0.0
C179 C 0.05066 0.60323 0.39001 0.0
C180 C 0.02472 0.61645 0.42494 0.0
C181 C 0.06589 0.63329 0.35641 0.0
C182 C 0.07942 0.75027 0.32429 0.0
H183 H 0.03893 0.71674 0.21207 0.0
C184 C 0.03726 0.87588 0.19105 0.0
C185 C 0.04376 0.86723 0.14649 0.0
C186 C 0.04431 0.84453 0.22401 0.0
C187 C 0.05137 0.72652 0.24279 0.0
H188 H 0.99731 0.6714 0.45445 0.0
H189 H 0.02465 0.72386 0.39666 0.0
H190 H 0.03945 0.66294 0.27291 0.0
H191 H 0.06382 0.81904 0.10167 0.0
H192 H 0.07675 0.76465 0.15919 0.0
H193 H 0.09051 0.81406 0.29458 0.0
C194 C 0.03303 0.69051 0.39476 0.0
C195 C 0.05173 0.69557 0.27766 0.0
C196 C 1.01718 0.66047 0.42773 0.0
C197 C 0.05791 0.82661 0.13567 0.0
C198 C 0.06534 0.79537 0.16867 0.0
C199 C 0.07947 0.78115 0.2893 0.0
C200 C 0.0561 0.67699 0.35792 0.0
C201 C 0.06445 0.70746 0.31913 0.0
C202 C 0.05848 0.80387 0.21328 0.0
C203 C 0.06407 0.76997 0.24854 0.0
H204 H 0.05664 0.56936 0.38707 0.0
H205 H 0.08376 0.62212 0.32838 0.0
H206 H 0.08974 0.76018 0.35586 0.0
H207 H 0.02619 0.90674 0.20059 0.0
H208 H 0.03777 0.85195 0.25793 0.0
C209 C 0.39006 0.06625 0.38883 0.0
C210 C 0.42893 0.08703 0.37374 0.0
C211 C 0.35746 0.05964 0.36006 0.0
C212 C 0.33931 0.04739 0.24343 0.0
H213 H 0.22283 0.06955 0.276 0.0
C214 C 0.208 0.03671 0.11888 0.0
C215 C 0.1672 0.02086 0.13394 0.0
C216 C 0.2395 0.04474 0.14852 0.0
C217 C 0.25507 0.06253 0.26659 0.0
H218 H 0.46392 0.11752 0.31673 0.0
H219 H 0.40696 0.10587 0.2663 0.0
H220 H 0.27828 0.0847 0.32699 0.0
H221 H 0.12776 1.00043 0.19209 0.0
H222 H 0.1831 0.01325 0.24377 0.0
H223 H 0.31632 0.02435 0.18354 0.0
C224 C 0.4018 0.09466 0.30045 0.0
C225 C 0.28686 0.07144 0.29578 0.0
C226 C 0.43425 0.10171 0.32937 0.0
C227 C 0.15879 0.01284 0.17939 0.0
C228 C 0.19049 0.02047 0.20906 0.0
C229 C 0.30752 0.03807 0.21444 0.0
C230 C 0.36318 0.07326 0.31543 0.0
C231 C 0.32935 0.06415 0.28441 0.0
C232 C 0.23124 0.03673 0.19402 0.0
C233 C 0.26496 0.04571 0.2255 0.0
H234 H 0.38491 0.05497 0.42293 0.0
H235 H 0.32816 0.04287 0.37253 0.0
H236 H 0.37168 0.04073 0.23408 0.0
H237 H 0.21549 0.04388 0.08416 0.0
H238 H 0.27014 0.05807 0.13567 0.0
C239 C 0.91046 0.61335 0.66161 0.0
C240 C 0.93114 0.61701 0.61974 0.0
C241 C 0.9181 0.64487 0.692 0.0
C242 C 0.95468 0.75761 0.70218 0.0
H243 H 0.98975 0.71883 0.81715 0.0
C244 C 0.02126 0.87784 0.82337 0.0
C245 C 1.01048 0.8696 0.86832 0.0
C246 C 1.01137 0.84692 0.79304 0.0
C247 C 0.97937 0.73029 0.7855 0.0
H248 H 0.97443 0.65705 0.57598 0.0
H249 H 0.98728 0.71255 0.62883 0.0
H250 H 0.96979 0.66574 0.76438 0.0
H251 H 0.98052 0.82268 0.91673 0.0
H252 H 0.96213 0.76948 0.86391 0.0
H253 H 0.96328 0.82208 0.72329 0.0
C254 C 0.96553 0.68519 0.63829 0.0
C255 C 0.96803 0.69982 0.75529 0.0
C256 C 0.95843 0.65338 0.60823 0.0
C257 C 0.98978 0.82979 0.88237 0.0
C258 C 0.97934 0.79917 0.85202 0.0
C259 C 0.96543 0.78813 0.7326 0.0
C260 C 0.94593 0.6809 0.68065 0.0
C261 C 0.95585 0.71322 0.7133 0.0
C262 C 0.98991 0.80734 0.80693 0.0
C263 C 0.97818 0.77487 0.77458 0.0
H264 H 0.8895 0.58545 0.67125 0.0
H265 H 0.90245 0.64102 0.72444 0.0
H266 H 0.94508 0.7687 0.67006 0.0
H267 H 0.0375 0.90812 0.81161 0.0
H268 H 0.02078 0.85403 0.75873 0.0
C269 C 0.38925 0.05043 0.58495 0.0
C270 C 0.42265 0.02271 0.57944 0.0
C271 C 0.35616 0.04015 0.616 0.0
C272 C 0.33108 0.97898 0.72059 0.0
H273 H 0.21755 0.0128 0.69778 0.0
C274 C 0.20791 0.01007 0.86015 0.0
C275 C 0.1648 1.00009 0.854 0.0
C276 C 0.23842 1.00606 0.82604 0.0
C277 C 0.24882 1.00249 0.70476 0.0
H278 H 0.44686 0.96161 0.60142 0.0
H279 H 0.38841 0.94334 0.6563 0.0
H280 H 0.27094 0.01495 0.63778 0.0
H281 H 0.12031 0.97658 0.80736 0.0
H282 H 0.17338 0.96896 0.74843 0.0
H283 H 0.30878 0.96641 0.7877 0.0
C284 C 0.38824 0.9733 0.63646 0.0
C285 C 0.27964 1.00417 0.67033 0.0
C286 C 0.42149 0.98354 0.60488 0.0
C287 C 0.1531 0.98524 0.81316 0.0
C288 C 0.18361 0.9809 0.77923 0.0
C289 C 0.30012 0.97712 0.75513 0.0
C290 C 0.3554 1.0018 0.64262 0.0
C291 C 0.32143 0.99353 0.67797 0.0
C292 C 0.22666 0.99164 0.78502 0.0
C293 C 0.2588 0.98976 0.74784 0.0
H294 H 0.389 0.0808 0.5658 0.0
H295 H 0.33189 0.06321 0.62019 0.0
H296 H 0.36299 0.97075 0.72769 0.0
H297 H 0.21813 0.02163 0.89112 0.0
H298 H 0.27113 0.01529 0.83157 0.0
C299 C 0.96014 0.37305 0.60747 0.0
C300 C 0.99076 0.40099 0.5844 0.0
C301 C 0.97179 0.34338 0.63987 0.0
C302 C 0.05655 0.28048 0.68041 0.0
H303 H 0.99012 0.27954 0.79078 0.0
C304 C 0.04376 0.13735 0.81122 0.0
C305 C 0.04219 0.14733 0.85581 0.0
C306 C 0.04456 0.17028 0.77805 0.0
C307 C 1.00936 0.27967 0.76042 0.0
H308 H 0.058 0.41852 0.57612 0.0
H309 H 0.07855 0.36564 0.63302 0.0
H310 H 0.97843 0.33348 0.73247 0.0
H311 H 0.0421 0.20017 0.9002 0.0
H312 H 0.0434 0.25718 0.84245 0.0
H313 H 0.0868 0.22581 0.70832 0.0
C314 C 0.04545 0.36728 0.62585 0.0
C315 C 1.00242 0.31035 0.72693 0.0
C316 C 0.03368 0.39752 0.59347 0.0
C317 C 0.0429 0.19107 0.86632 0.0
C318 C 0.04358 0.22386 0.83321 0.0
C319 C 0.06326 0.24936 0.71394 0.0
C320 C 1.01439 0.3406 0.64988 0.0
C321 C 0.02539 0.31063 0.68638 0.0
C322 C 0.04366 0.21382 0.78877 0.0
C323 C 0.03934 0.24839 0.7541 0.0
H324 H 0.92682 0.37455 0.60122 0.0
H325 H 0.94731 0.32269 0.65741 0.0
H326 H 0.07456 0.28002 0.64935 0.0
H327 H 0.04349 0.10409 0.80182 0.0
H328 H 0.04426 0.16154 0.74408 0.0
C329 C 0.67767 0.05696 0.60699 0.0
C330 C 0.64396 0.08307 0.61716 0.0
C331 C 0.70888 0.04983 0.6371 0.0
C332 C 0.75268 0.09091 0.73981 0.0
H333 H 0.8006 0.97818 0.74699 0.0
C334 C 0.85566 0.03452 0.88153 0.0
C335 C 0.89415 0.01683 0.86888 0.0
C336 C 0.82535 0.04257 0.85063 0.0
C337 C 0.78767 0.00989 0.74512 0.0
H338 H 0.61635 0.12213 0.66678 0.0
H339 H 0.66998 0.10872 0.72011 0.0
H340 H 0.74718 0.99268 0.69386 0.0
H341 H 0.93061 0.99293 0.81403 0.0
H342 H 0.87708 1.00616 0.76021 0.0
H343 H 0.7925 0.1074 0.79219 0.0
C344 C 0.67315 0.09462 0.6884 0.0
C345 C 0.75718 0.01837 0.7145 0.0
C346 C 0.64227 0.10226 0.65794 0.0
C347 C 0.90131 1.00664 0.82479 0.0
C348 C 0.87065 0.01403 0.79403 0.0
C349 C 0.78271 0.08217 0.77085 0.0
C350 C 0.70683 0.0681 0.67849 0.0
C351 C 0.73933 0.05908 0.71127 0.0
C352 C 0.83256 0.03248 0.80657 0.0
C353 C 0.80058 0.04162 0.77373 0.0
H354 H 0.68006 0.04231 0.5755 0.0
H355 H 0.73475 0.03012 0.6277 0.0
H356 H 0.74038 0.12287 0.73787 0.0
H357 H 0.84928 0.04311 0.91515 0.0
H358 H 0.79613 0.05653 0.86124 0.0
C359 C 0.37895 0.43293 0.04104 0.0
C360 C 0.4227 0.42781 0.03448 0.0
C361 C 0.34962 0.39751 0.04055 0.0
C362 C 0.33761 0.28633 -0.00049 0.0
H363 H 0.233 0.28122 0.07138 0.0
C364 C 0.2131 0.14044 0.00137 0.0
C365 C 0.16993 0.14974 0.00295 0.0
C366 C 0.24481 0.173 0.00645 0.0
C367 C 0.26183 0.28228 0.0507 0.0
H368 H 0.46971 0.38048 0.02368 0.0
H369 H 0.41863 0.31848 0.02372 0.0
H370 H 0.28665 0.33892 0.08024 0.0
H371 H 0.12687 0.20144 0.01098 0.0
H372 H 0.18188 0.25782 0.01951 0.0
H373 H 0.31262 0.22956 0.97003 0.0
C374 C 0.4069 0.35021 0.02848 0.0
C375 C 0.29277 0.31552 0.05579 0.0
C376 C 0.43634 0.38578 0.02898 0.0
C377 C 0.15959 0.19272 0.00953 0.0
C378 C 0.19127 0.22518 0.0148 0.0
C379 C 0.30669 0.25295 0.99454 0.0
C380 C 0.36297 0.35563 0.03354 0.0
C381 C 0.33103 0.31842 0.02998 0.0
C382 C 0.23439 0.21585 0.01354 0.0
C383 C 0.26812 0.25065 0.01974 0.0
H384 H 0.36704 0.46471 0.04518 0.0
H385 H 0.31624 0.40341 0.04404 0.0
H386 H 0.36622 0.28761 0.97849 0.0
H387 H 0.22255 0.10783 0.9966 0.0
H388 H 0.27755 0.16435 0.00569 0.0
C389 C 0.3725 0.61263 0.9245 0.0
C390 C 0.41393 0.619 0.93866 0.0
C391 C 0.34251 0.64379 0.93076 0.0
C392 C 0.32051 0.74056 0.99549 0.0
H393 H 0.23533 0.75735 0.90973 0.0
C394 C 0.20601 0.88181 -0.00135 0.0
C395 C 0.1632 0.87158 0.99092 0.0
C396 C 0.23674 0.85123 0.993 0.0
C397 C 0.25868 0.75282 0.9342 0.0
H398 H 0.45639 0.66378 0.96976 0.0
H399 H 0.40464 0.71868 0.97967 0.0
H400 H 0.28888 0.70494 0.89752 0.0
H401 H 0.1195 0.82069 0.97109 0.0
H402 H 0.17309 0.76772 0.96093 0.0
H403 H 0.29051 0.78929 0.03163 0.0
C404 C 0.3948 0.68907 0.96471 0.0
C405 C 0.28944 0.72257 0.9273 0.0
C406 C 0.42467 0.65764 0.95885 0.0
C407 C 0.15204 0.82984 0.97751 0.0
C408 C 0.18285 0.79948 0.97135 0.0
C409 C 0.28998 0.77117 0.00214 0.0
C410 C 0.35311 0.68256 0.95098 0.0
C411 C 0.32076 0.71571 0.95795 0.0
C412 C 0.22563 0.80977 0.97892 0.0
C413 C 0.25851 0.77753 0.9717 0.0
H414 H 0.3628 0.58296 0.90958 0.0
H415 H 0.31068 0.63691 0.9205 0.0
H416 H 0.34345 0.73589 0.02034 0.0
H417 H 0.21591 0.91352 0.00907 0.0
H418 H 0.26941 0.86037 -0.00117 0.0
C419 C 0.65716 0.38111 0.98907 0.0
C420 C 0.64878 0.3978 0.94669 0.0
C421 C 0.68673 0.34936 0.99491 0.0
C422 C 0.77941 0.30255 0.93916 0.0
H423 H 0.75814 0.20917 0.02808 0.0
C424 C 0.90928 0.18581 0.98702 0.0
C425 C 0.89718 0.14158 0.99445 0.0
C426 C 0.87882 0.21671 0.98166 0.0
C427 C 0.76454 0.23485 0.00289 0.0
H428 H 0.66477 0.39281 0.87719 0.0
H429 H 0.7162 0.33777 0.88739 0.0
H430 H 0.70505 0.26257 0.01709 0.0
H431 H 0.84286 0.09564 0.00217 0.0
H432 H 0.79003 0.14939 0.99272 0.0
H433 H 0.83862 0.27453 0.92455 0.0
C434 C 0.70032 0.34975 0.91622 0.0
C435 C 0.73421 0.26582 0.9969 0.0
C436 C 0.67068 0.38143 0.91036 0.0
C437 C 0.85362 0.1293 0.99673 0.0
C438 C 0.82316 0.16025 0.99148 0.0
C439 C 0.80979 0.2717 0.94529 0.0
C440 C 0.70892 0.33336 0.9586 0.0
C441 C 0.74118 0.30012 0.96491 0.0
C442 C 0.83531 0.2044 0.98365 0.0
C443 C 0.80283 0.23738 0.97724 0.0
H444 H 0.64164 0.39316 0.018 0.0
H445 H 0.69287 0.33805 0.02808 0.0
H446 H 0.78618 0.32869 0.91454 0.0
H447 H 0.9424 0.19675 0.9851 0.0
H448 H 0.88944 0.25042 0.9763 0.0
C449 C 0.66399 0.58248 0.06238 0.0
C450 C 0.627 0.58646 0.03899 0.0
C451 C 0.69437 0.61708 0.06288 0.0
C452 C 0.71405 0.73629 0.03134 0.0
H453 H 0.83122 0.70719 0.03791 0.0
C454 C 0.84939 0.87031 0.03577 0.0
C455 C 0.88983 0.86259 0.01763 0.0
C456 C 0.81716 0.83726 0.03995 0.0
C457 C 0.79882 0.71624 0.03536 0.0
H458 H 0.59288 0.6306 -0.00183 0.0
H459 H 0.64612 0.69016 0.99755 0.0
H460 H 0.77599 0.65004 0.0416 0.0
H461 H 0.92757 0.81393 0.98879 0.0
H462 H 0.87133 0.75711 0.99407 0.0
H463 H 0.73715 0.80238 0.02242 0.0
C464 C 0.65147 0.66084 0.01679 0.0
C465 C 0.76669 0.68312 0.03843 0.0
C466 C 0.62071 0.62645 0.01702 0.0
C467 C 0.897 0.82099 0.00337 0.0
C468 C 0.86455 0.78816 0.00675 0.0
C469 C 0.74626 0.7694 0.02753 0.0
C470 C 0.68925 0.65661 0.03917 0.0
C471 C 0.72363 0.69244 0.03659 0.0
C472 C 0.82403 0.79554 0.02536 0.0
C473 C 0.78932 0.76004 0.02951 0.0
H474 H 0.66985 0.55224 0.07984 0.0
H475 H 0.72211 0.61247 0.08168 0.0
H476 H 0.68154 0.74538 0.03035 0.0
H477 H 0.84277 0.90181 0.04753 0.0
H478 H 0.78701 0.84449 0.05531 0.0
loop_
_geom_bond_atom_site_label_1
_geom_bond_atom_site_label_2
_geom_bond_distance
_geom_bond_site_symmetry_2
_ccdc_geom_bond_type
Cu0 N1 1.999 . S
Cu0 O6 1.974 . S
Cu0 N11 1.985 . S
Cu0 O20 1.959 . S
N1 Cu0 1.999 . S
N1 C3 1.263 . S
N1 C5 1.389 . S
N2 C3 1.358 . S
N2 C4 1.400 . S
C3 N1 1.263 . S
C3 N2 1.358 . S
C3 H9 0.930 1_455 S
C4 N2 1.400 . S
C4 C5 1.351 . S
C4 H21 0.930 . S
C5 N1 1.389 . S
C5 C4 1.351 . S
C5 H10 0.930 . S
O6 Cu0 1.974 . S
O6 C16 1.282 1_455 S
C7 O8 1.261 . S
C7 O20 1.251 1_655 S
O8 C7 1.261 . S
H9 C3 0.930 1_655 S
H10 C5 0.930 . S
N11 Cu0 1.985 . S
N11 C13 1.335 . S
N11 C14 1.390 1_455 S
N12 C13 1.345 . S
N12 C15 1.336 1_455 S
C13 N11 1.335 . S
C13 N12 1.345 . S
C13 H18 0.930 . S
C14 N11 1.390 1_655 S
C14 C15 1.346 . S
C14 H19 0.930 . S
C15 N12 1.336 1_655 S
C15 C14 1.346 . S
C15 H22 0.929 . S
C16 O6 1.282 1_655 S
C16 O17 1.216 . S
O17 C16 1.216 . S
H18 C13 0.930 . S
H19 C14 0.930 . S
O20 Cu0 1.959 . S
O20 C7 1.251 1_455 S
H21 C4 0.930 . S
H22 C15 0.929 . S
Cu23 N24 1.999 . S
Cu23 O29 1.974 . S
Cu23 N34 1.985 . S
Cu23 O43 1.959 . S
N24 Cu23 1.999 . S
N24 C26 1.263 . S
N24 C28 1.389 . S
N25 C26 1.358 . S
N25 C27 1.400 . S
C26 N24 1.263 . S
C26 N25 1.358 . S
C26 H32 0.930 1_565 S
C27 N25 1.400 . S
C27 C28 1.351 . S
C27 H44 0.930 . S
C28 N24 1.389 . S
C28 C27 1.351 . S
C28 H33 0.930 . S
O29 Cu23 1.974 . S
O29 C39 1.282 1_565 S
C30 O31 1.261 . S
C30 O43 1.251 1_545 S
O31 C30 1.261 . S
H32 C26 0.930 1_545 S
H33 C28 0.930 . S
N34 Cu23 1.985 . S
N34 C36 1.335 . S
N34 C37 1.390 1_565 S
N35 C36 1.345 . S
N35 C38 1.336 1_565 S
C36 N34 1.335 . S
C36 N35 1.345 . S
C36 H41 0.930 . S
C37 N34 1.390 1_545 S
C37 C38 1.346 . S
C37 H42 0.930 . S
C38 N35 1.336 1_545 S
C38 C37 1.346 . S
C38 H45 0.929 . S
C39 O29 1.282 1_545 S
C39 O40 1.216 . S
O40 C39 1.216 . S
H41 C36 0.930 . S
H42 C37 0.930 . S
O43 Cu23 1.959 . S
O43 C30 1.251 1_565 S
H44 C27 0.930 . S
H45 C38 0.929 . S
Cu46 N47 1.999 . S
Cu46 O52 1.974 . S
Cu46 N57 1.985 . S
Cu46 O66 1.959 . S
N47 Cu46 1.999 . S
N47 C49 1.263 . S
N47 C51 1.389 . S
N48 C49 1.358 . S
N48 C50 1.400 . S
C49 N47 1.263 . S
C49 N48 1.358 . S
C49 H55 0.930 1_556 S
C50 N48 1.400 . S
C50 C51 1.351 . S
C50 H67 0.930 . S
C51 N47 1.389 . S
C51 C50 1.351 . S
C51 H56 0.930 . S
O52 Cu46 1.974 . S
O52 C62 1.282 1_556 S
C53 O54 1.261 . S
C53 O66 1.251 1_554 S
O54 C53 1.261 . S
H55 C49 0.930 1_554 S
H56 C51 0.930 . S
N57 Cu46 1.985 . S
N57 C59 1.335 . S
N57 C60 1.390 1_556 S
N58 C59 1.345 . S
N58 C61 1.336 1_556 S
C59 N57 1.335 . S
C59 N58 1.345 . S
C59 H64 0.930 . S
C60 N57 1.390 1_554 S
C60 C61 1.346 . S
C60 H65 0.930 . S
C61 N58 1.336 1_554 S
C61 C60 1.346 . S
C61 H68 0.929 . S
C62 O52 1.282 1_554 S
C62 O63 1.216 . S
O63 C62 1.216 . S
H64 C59 0.930 . S
H65 C60 0.930 . S
O66 Cu46 1.959 . S
O66 C53 1.251 1_556 S
H67 C50 0.930 . S
H68 C61 0.929 . S
C69 O95 1.283 . S
C69 O113 1.283 . S
C70 O96 1.283 . S
C70 O111 1.283 . S
C71 O97 1.283 . S
C71 O114 1.283 . S
C72 O98 1.283 . S
C72 O112 1.283 . S
C73 O99 1.284 1_554 S
C73 O108 1.283 . S
C74 O100 1.283 . S
C74 O110 1.283 . S
C75 O101 1.283 . S
C75 O107 1.283 . S
C76 O102 1.283 . S
C76 O109 1.284 1_554 S
C77 O103 1.283 . S
C77 O118 1.283 . S
C78 O104 1.283 . S
C78 O116 1.283 . S
C79 O105 1.283 . S
C79 O117 1.283 . S
C80 O106 1.283 . S
C80 O115 1.283 . S
Eu81 O82 2.370 1_556 S
Eu81 O83 2.370 1_455 S
Eu81 O86 2.370 . S
Eu81 O87 2.370 1_456 S
Eu81 O95 2.363 . S
Eu81 O96 2.363 1_556 S
Eu81 O109 2.363 1_455 S
Eu81 O110 2.363 . S
O82 Eu81 2.370 1_554 S
O82 Eu84 2.370 1_554 S
O82 Eu89 2.361 1_455 S
O83 Eu81 2.370 1_655 S
O83 Eu85 2.370 1_556 S
O83 Eu88 2.370 1_655 S
Eu84 O82 2.370 1_556 S
Eu84 O86 2.370 . S
Eu84 O90 2.370 1_545 S
Eu84 O91 2.370 1_546 S
Eu84 O99 2.363 1_545 S
Eu84 O100 2.363 . S
Eu84 O115 2.363 . S
Eu84 O116 2.363 1_556 S
Eu85 O83 2.370 1_554 S
Eu85 O87 2.370 . S
Eu85 O92 2.370 1_545 S
Eu85 O93 2.370 1_544 S
Eu85 O101 2.363 1_545 S
Eu85 O102 2.363 . S
Eu85 O117 2.363 1_554 S
Eu85 O118 2.363 . S
O86 Eu81 2.370 . S
O86 Eu84 2.370 . S
O86 Eu88 2.370 . S
O87 Eu81 2.370 1_654 S
O87 Eu85 2.370 . S
O87 Eu89 2.381 . S
Eu88 O83 2.370 1_455 S
Eu88 O86 2.370 . S
Eu88 O90 2.370 1_545 S
Eu88 O93 2.370 1_445 S
Eu88 O105 2.363 1_455 S
Eu88 O106 2.363 . S
Eu88 O113 2.363 . S
Eu88 O114 2.363 1_545 S
Eu89 O82 2.361 1_655 S
Eu89 O87 2.381 . S
Eu89 O91 2.360 1_645 S
Eu89 O92 2.380 1_545 S
Eu89 O103 2.380 . S
Eu89 O104 2.346 1_655 S
Eu89 O111 2.363 1_655 S
Eu89 O112 2.363 1_545 S
O90 Eu84 2.370 1_565 S
O90 Eu88 2.370 1_565 S
O90 Eu94 2.363 1_456 S
O91 Eu84 2.370 1_564 S
O91 Eu89 2.360 1_465 S
O91 Eu94 2.362 1_455 S
O92 Eu85 2.370 1_565 S
O92 Eu89 2.380 1_565 S
O92 Eu94 2.378 . S
O93 Eu85 2.370 1_566 S
O93 Eu88 2.370 1_665 S
O93 Eu94 2.378 1_556 S
Eu94 O90 2.363 1_654 S
Eu94 O91 2.362 1_655 S
Eu94 O92 2.378 . S
Eu94 O93 2.378 1_554 S
Eu94 O97 2.363 1_654 S
Eu94 O98 2.363 . S
Eu94 O107 2.376 . S
Eu94 O108 2.350 1_655 S
O95 C69 1.283 . S
O95 Eu81 2.363 . S
O96 C70 1.283 . S
O96 Eu81 2.363 1_554 S
O97 C71 1.283 . S
O97 Eu94 2.363 1_456 S
O98 C72 1.283 . S
O98 Eu94 2.363 . S
O99 C73 1.284 1_556 S
O99 Eu84 2.363 1_565 S
O100 C74 1.283 . S
O100 Eu84 2.363 . S
O101 C75 1.283 . S
O101 Eu85 2.363 1_565 S
O102 C76 1.283 . S
O102 Eu85 2.363 . S
O103 C77 1.283 . S
O103 Eu89 2.380 . S
O104 C78 1.283 . S
O104 Eu89 2.346 1_455 S
O105 C79 1.283 . S
O105 Eu88 2.363 1_655 S
O106 C80 1.283 . S
O106 Eu88 2.363 . S
O107 C75 1.283 . S
O107 Eu94 2.376 . S
O108 C73 1.283 . S
O108 Eu94 2.350 1_455 S
O109 C76 1.284 1_556 S
O109 Eu81 2.363 1_655 S
O110 C74 1.283 . S
O110 Eu81 2.363 . S
O111 C70 1.283 . S
O111 Eu89 2.363 1_455 S
O112 C72 1.283 . S
O112 Eu89 2.363 1_565 S
O113 C69 1.283 . S
O113 Eu88 2.363 . S
O114 C71 1.283 . S
O114 Eu88 2.363 1_565 S
O115 C80 1.283 . S
O115 Eu84 2.363 . S
O116 C78 1.283 . S
O116 Eu84 2.363 1_554 S
O117 C79 1.283 . S
O117 Eu85 2.363 1_556 S
O118 C77 1.283 . S
O118 Eu85 2.363 . S
C119 C120 1.349 . S
C119 C121 1.327 . S
C119 H144 0.950 1_455 S
C120 C119 1.349 . S
C120 C136 1.349 . S
C121 C119 1.327 . S
C121 C140 1.430 . S
C121 H145 0.948 1_455 S
C122 C139 1.574 . S
C122 C141 1.368 . S
C122 H146 0.949 . S
H123 C127 0.949 . S
C124 C125 1.349 . S
C124 C126 1.327 . S
C124 H147 0.950 . S
C125 C124 1.349 . S
C125 C137 1.349 1_455 S
C126 C124 1.327 . S
C126 C142 1.429 . S
C126 H148 0.950 . S
C127 H123 0.949 . S
C127 C135 1.574 . S
C127 C143 1.368 1_655 S
H128 C136 0.950 . S
H129 C134 0.950 . S
H130 C135 0.949 . S
H131 C137 0.950 . S
H132 C138 0.950 . S
H133 C139 0.949 . S
C134 H129 0.950 . S
C134 C136 1.327 . S
C134 C140 1.429 . S
C135 C127 1.574 . S
C135 H130 0.949 . S
C135 C141 1.368 1_655 S
C136 C120 1.349 . S
C136 H128 0.950 . S
C136 C134 1.327 . S
C137 C125 1.349 1_655 S
C137 H131 0.950 . S
C137 C138 1.327 . S
C138 H132 0.950 . S
C138 C137 1.327 . S
C138 C142 1.429 1_655 S
C139 C122 1.574 . S
C139 H133 0.949 . S
C139 C143 1.368 . S
C140 C121 1.430 . S
C140 C134 1.429 . S
C140 C141 1.523 . S
C141 C122 1.368 . S
C141 C135 1.368 1_455 S
C141 C140 1.523 . S
C142 C126 1.429 . S
C142 C138 1.429 1_455 S
C142 C143 1.523 . S
C143 C127 1.368 1_455 S
C143 C139 1.368 . S
C143 C142 1.523 . S
H144 C119 0.950 1_655 S
H145 C121 0.948 1_655 S
H146 C122 0.949 . S
H147 C124 0.950 . S
H148 C126 0.950 . S
C149 C150 1.349 . S
C149 C151 1.327 . S
C149 H174 0.950 . S
C150 C149 1.349 . S
C150 C166 1.349 1_545 S
C151 C149 1.327 . S
C151 C170 1.429 . S
C151 H175 0.950 . S
C152 C169 1.574 . S
C152 C171 1.368 1_565 S
C152 H176 0.949 . S
H153 C157 0.949 . S
C154 C155 1.349 1_565 S
C154 C156 1.327 . S
C154 H177 0.950 . S
C155 C154 1.349 1_545 S
C155 C167 1.349 . S
C156 C154 1.327 . S
C156 C172 1.429 1_565 S
C156 H178 0.950 . S
C157 H153 0.949 . S
C157 C165 1.574 . S
C157 C173 1.368 . S
H158 C166 0.950 . S
H159 C164 0.950 . S
H160 C165 0.949 . S
H161 C167 0.950 . S
H162 C168 0.950 . S
H163 C169 0.949 . S
C164 H159 0.950 . S
C164 C166 1.327 . S
C164 C170 1.429 1_565 S
C165 C157 1.574 . S
C165 H160 0.949 . S
C165 C171 1.368 . S
C166 C150 1.349 1_565 S
C166 H158 0.950 . S
C166 C164 1.327 . S
C167 C155 1.349 . S
C167 H161 0.950 . S
C167 C168 1.327 . S
C168 H162 0.950 . S
C168 C167 1.327 . S
C168 C172 1.429 . S
C169 C152 1.574 . S
C169 H163 0.949 . S
C169 C173 1.368 1_565 S
C170 C151 1.429 . S
C170 C164 1.429 1_545 S
C170 C171 1.523 . S
C171 C152 1.368 1_545 S
C171 C165 1.368 . S
C171 C170 1.523 . S
C172 C156 1.429 1_545 S
C172 C168 1.429 . S
C172 C173 1.523 . S
C173 C157 1.368 . S
C173 C169 1.368 1_545 S
C173 C172 1.523 . S
H174 C149 0.950 . S
H175 C151 0.950 . S
H176 C152 0.949 . S
H177 C154 0.950 . S
H178 C156 0.950 . S
C179 C180 1.349 . S
C179 C181 1.327 . S
C179 H204 0.950 . S
C180 C179 1.349 . S
C180 C196 1.349 1_655 S
C181 C179 1.327 . S
C181 C200 1.429 . S
C181 H205 0.950 . S
C182 C199 1.574 . S
C182 C201 1.368 1_455 S
C182 H206 0.949 . S
H183 C187 0.949 . S
C184 C185 1.349 1_455 S
C184 C186 1.327 . S
C184 H207 0.950 . S
C185 C184 1.349 1_655 S
C185 C197 1.349 . S
C186 C184 1.327 . S
C186 C202 1.429 1_455 S
C186 H208 0.950 . S
C187 H183 0.949 . S
C187 C195 1.574 . S
C187 C203 1.368 . S
H188 C196 0.950 . S
H189 C194 0.950 . S
H190 C195 0.949 . S
H191 C197 0.950 . S
H192 C198 0.950 . S
H193 C199 0.949 . S
C194 H189 0.950 . S
C194 C196 1.327 . S
C194 C200 1.429 1_455 S
C195 C187 1.574 . S
C195 H190 0.949 . S
C195 C201 1.368 . S
C196 C180 1.349 1_455 S
C196 H188 0.950 . S
C196 C194 1.327 . S
C197 C185 1.349 . S
C197 H191 0.950 . S
C197 C198 1.327 . S
C198 H192 0.950 . S
C198 C197 1.327 . S
C198 C202 1.429 . S
C199 C182 1.574 . S
C199 H193 0.949 . S
C199 C203 1.368 1_455 S
C200 C181 1.429 . S
C200 C194 1.429 1_655 S
C200 C201 1.523 . S
C201 C182 1.368 1_655 S
C201 C195 1.368 . S
C201 C200 1.523 . S
C202 C186 1.429 1_655 S
C202 C198 1.429 . S
C202 C203 1.523 . S
C203 C187 1.368 . S
C203 C199 1.368 1_655 S
C203 C202 1.523 . S
H204 C179 0.950 . S
H205 C181 0.950 . S
H206 C182 0.949 . S
H207 C184 0.950 . S
H208 C186 0.950 . S
C209 C210 1.349 . S
C209 C211 1.327 . S
C209 H234 0.950 . S
C210 C209 1.349 . S
C210 C226 1.349 1_565 S
C211 C209 1.327 . S
C211 C230 1.429 . S
C211 H235 0.950 . S
C212 C229 1.574 . S
C212 C231 1.368 1_545 S
C212 H236 0.949 . S
H213 C217 0.949 . S
C214 C215 1.349 . S
C214 C216 1.327 . S
C214 H237 0.950 . S
C215 C214 1.349 . S
C215 C227 1.349 1_545 S
C216 C214 1.327 . S
C216 C232 1.429 . S
C216 H238 0.950 . S
C217 H213 0.949 . S
C217 C225 1.574 . S
C217 C233 1.353 1_565 S
H218 C226 0.950 . S
H219 C224 0.950 . S
H220 C225 0.949 . S
H221 C227 0.950 . S
H222 C228 0.950 . S
H223 C229 0.949 . S
C224 H219 0.950 . S
C224 C226 1.327 . S
C224 C230 1.429 1_545 S
C225 C217 1.574 . S
C225 H220 0.949 . S
C225 C231 1.368 . S
C226 C210 1.349 1_545 S
C226 H218 0.950 . S
C226 C224 1.327 . S
C227 C215 1.349 1_565 S
C227 H221 0.950 . S
C227 C228 1.327 . S
C228 H222 0.950 . S
C228 C227 1.327 . S
C228 C232 1.429 1_565 S
C229 C212 1.574 . S
C229 H223 0.949 . S
C229 C233 1.383 . S
C230 C211 1.429 . S
C230 C224 1.429 1_565 S
C230 C231 1.523 . S
C231 C212 1.368 1_565 S
C231 C225 1.368 . S
C231 C230 1.523 . S
C232 C216 1.429 . S
C232 C228 1.429 1_545 S
C232 C233 1.524 . S
C233 C217 1.353 1_545 S
C233 C229 1.383 . S
C233 C232 1.524 . S
H234 C209 0.950 . S
H235 C211 0.950 . S
H236 C212 0.949 . S
H237 C214 0.950 . S
H238 C216 0.950 . S
C239 C240 1.349 1_655 S
C239 C241 1.327 . S
C239 H264 0.950 . S
C240 C239 1.349 1_455 S
C240 C256 1.349 . S
C241 C239 1.327 . S
C241 C260 1.429 1_655 S
C241 H265 0.950 . S
C242 C259 1.574 . S
C242 C261 1.368 . S
C242 H266 0.949 . S
H243 C247 0.949 . S
C244 C245 1.349 . S
C244 C246 1.327 . S
C244 H267 0.950 . S
C245 C244 1.349 . S
C245 C257 1.349 1_455 S
C246 C244 1.327 . S
C246 C262 1.429 . S
C246 H268 0.950 . S
C247 H243 0.949 . S
C247 C255 1.574 . S
C247 C263 1.368 1_655 S
H248 C256 0.950 . S
H249 C254 0.950 . S
H250 C255 0.949 . S
H251 C257 0.950 . S
H252 C258 0.950 . S
H253 C259 0.949 . S
C254 H249 0.950 . S
C254 C256 1.327 . S
C254 C260 1.429 . S
C255 C247 1.574 . S
C255 H250 0.949 . S
C255 C261 1.368 1_655 S
C256 C240 1.349 . S
C256 H248 0.950 . S
C256 C254 1.327 . S
C257 C245 1.349 1_655 S
C257 H251 0.950 . S
C257 C258 1.327 . S
C258 H252 0.950 . S
C258 C257 1.327 . S
C258 C262 1.429 1_655 S
C259 C242 1.574 . S
C259 H253 0.949 . S
C259 C263 1.368 . S
C260 C241 1.429 1_455 S
C260 C254 1.429 . S
C260 C261 1.523 . S
C261 C242 1.368 . S
C261 C255 1.368 1_455 S
C261 C260 1.523 . S
C262 C246 1.429 . S
C262 C258 1.429 1_455 S
C262 C263 1.523 . S
C263 C247 1.368 1_455 S
C263 C259 1.368 . S
C263 C262 1.523 . S
H264 C239 0.950 . S
H265 C241 0.950 . S
H266 C242 0.949 . S
H267 C244 0.950 . S
H268 C246 0.950 . S
C269 C270 1.349 . S
C269 C271 1.327 . S
C269 H294 0.950 . S
C270 C269 1.349 . S
C270 C286 1.349 1_545 S
C271 C269 1.327 . S
C271 C290 1.429 . S
C271 H295 0.950 . S
C272 C289 1.574 . S
C272 C291 1.368 1_565 S
C272 H296 0.949 . S
H273 C277 0.949 . S
C274 C275 1.349 1_565 S
C274 C276 1.327 . S
C274 H297 0.950 . S
C275 C274 1.349 1_545 S
C275 C287 1.349 . S
C276 C274 1.327 . S
C276 C292 1.429 1_565 S
C276 H298 0.950 . S
C277 H273 0.949 . S
C277 C285 1.574 . S
C277 C293 1.368 . S
H278 C286 0.950 . S
H279 C284 0.950 . S
H280 C285 0.949 . S
H281 C287 0.950 . S
H282 C288 0.950 . S
H283 C289 0.949 . S
C284 H279 0.950 . S
C284 C286 1.327 . S
C284 C290 1.429 1_565 S
C285 C277 1.574 . S
C285 H280 0.949 . S
C285 C291 1.368 . S
C286 C270 1.349 1_565 S
C286 H278 0.950 . S
C286 C284 1.327 . S
C287 C275 1.349 . S
C287 H281 0.950 . S
C287 C288 1.327 . S
C288 H282 0.950 . S
C288 C287 1.327 . S
C288 C292 1.429 . S
C289 C272 1.574 . S
C289 H283 0.949 . S
C289 C293 1.368 1_565 S
C290 C271 1.429 . S
C290 C284 1.429 1_545 S
C290 C291 1.523 . S
C291 C272 1.368 1_545 S
C291 C285 1.368 . S
C291 C290 1.523 . S
C292 C276 1.429 1_545 S
C292 C288 1.429 . S
C292 C293 1.523 . S
C293 C277 1.368 . S
C293 C289 1.368 1_545 S
C293 C292 1.523 . S
H294 C269 0.950 . S
H295 C271 0.950 . S
H296 C272 0.949 . S
H297 C274 0.950 . S
H298 C276 0.950 . S
C299 C300 1.349 . S
C299 C301 1.327 . S
C299 H324 0.950 . S
C300 C299 1.349 . S
C300 C316 1.349 1_655 S
C301 C299 1.327 . S
C301 C320 1.429 . S
C301 H325 0.950 . S
C302 C319 1.574 . S
C302 C321 1.368 1_455 S
C302 H326 0.949 . S
H303 C307 0.949 . S
C304 C305 1.349 . S
C304 C306 1.327 . S
C304 H327 0.950 . S
C305 C304 1.349 . S
C305 C317 1.349 1_455 S
C306 C304 1.327 . S
C306 C322 1.429 . S
C306 H328 0.950 . S
C307 H303 0.949 . S
C307 C315 1.574 . S
C307 C323 1.370 1_655 S
H308 C316 0.950 . S
H309 C314 0.950 . S
H310 C315 0.949 . S
H311 C317 0.950 . S
H312 C318 0.950 . S
H313 C319 0.949 . S
C314 H309 0.950 . S
C314 C316 1.327 . S
C314 C320 1.429 1_455 S
C315 C307 1.574 . S
C315 H310 0.949 . S
C315 C321 1.368 . S
C316 C300 1.349 1_455 S
C316 H308 0.950 . S
C316 C314 1.327 . S
C317 C305 1.349 1_655 S
C317 H311 0.950 . S
C317 C318 1.327 . S
C318 H312 0.950 . S
C318 C317 1.327 . S
C318 C322 1.429 1_655 S
C319 C302 1.574 . S
C319 H313 0.949 . S
C319 C323 1.367 . S
C320 C301 1.429 . S
C320 C314 1.429 1_655 S
C320 C321 1.523 . S
C321 C302 1.368 1_655 S
C321 C315 1.368 . S
C321 C320 1.523 . S
C322 C306 1.429 . S
C322 C318 1.429 1_455 S
C322 C323 1.523 . S
C323 C307 1.370 1_455 S
C323 C319 1.367 . S
C323 C322 1.523 . S
H324 C299 0.950 . S
H325 C301 0.950 . S
H326 C302 0.949 . S
H327 C304 0.950 . S
H328 C306 0.950 . S
C329 C330 1.349 . S
C329 C331 1.327 . S
C329 H354 0.950 . S
C330 C329 1.349 . S
C330 C346 1.349 1_565 S
C331 C329 1.327 . S
C331 C350 1.429 . S
C331 H355 0.950 . S
C332 C349 1.574 . S
C332 C351 1.368 1_545 S
C332 H356 0.949 . S
H333 C337 0.949 . S
C334 C335 1.349 . S
C334 C336 1.327 . S
C334 H357 0.950 . S
C335 C334 1.349 . S
C335 C347 1.349 1_545 S
C336 C334 1.327 . S
C336 C352 1.429 . S
C336 H358 0.950 . S
C337 H333 0.949 . S
C337 C345 1.574 . S
C337 C353 1.368 1_565 S
H338 C346 0.950 . S
H339 C344 0.950 . S
H340 C345 0.949 . S
H341 C347 0.950 . S
H342 C348 0.950 . S
H343 C349 0.949 . S
C344 H339 0.950 . S
C344 C346 1.327 . S
C344 C350 1.429 1_545 S
C345 C337 1.574 . S
C345 H340 0.949 . S
C345 C351 1.368 . S
C346 C330 1.349 1_545 S
C346 H338 0.950 . S
C346 C344 1.327 . S
C347 C335 1.349 1_565 S
C347 H341 0.950 . S
C347 C348 1.327 . S
C348 H342 0.950 . S
C348 C347 1.327 . S
C348 C352 1.429 1_565 S
C349 C332 1.574 . S
C349 H343 0.949 . S
C349 C353 1.368 . S
C350 C331 1.429 . S
C350 C344 1.429 1_565 S
C350 C351 1.523 . S
C351 C332 1.368 1_565 S
C351 C345 1.368 . S
C351 C350 1.523 . S
C352 C336 1.429 . S
C352 C348 1.429 1_545 S
C352 C353 1.523 . S
C353 C337 1.368 1_545 S
C353 C349 1.368 . S
C353 C352 1.523 . S
H354 C329 0.950 . S
H355 C331 0.950 . S
H356 C332 0.949 . S
H357 C334 0.950 . S
H358 C336 0.950 . S
C359 C360 1.349 . S
C359 C361 1.327 . S
C359 H384 0.950 . S
C360 C359 1.349 . S
C360 C376 1.349 1_554 S
C361 C359 1.327 . S
C361 C380 1.429 . S
C361 H385 0.950 . S
C362 C379 1.574 . S
C362 C381 1.368 1_556 S
C362 H386 0.949 . S
H363 C367 0.949 . S
C364 C365 1.349 . S
C364 C366 1.327 . S
C364 H387 0.950 . S
C365 C364 1.349 . S
C365 C377 1.349 1_556 S
C366 C364 1.327 . S
C366 C382 1.424 1_556 S
C366 H388 0.950 . S
C367 H363 0.949 . S
C367 C375 1.574 . S
C367 C383 1.368 . S
H368 C376 0.950 . S
H369 C374 0.950 . S
H370 C375 0.949 . S
H371 C377 0.950 . S
H372 C378 0.950 . S
H373 C379 0.949 . S
C374 H369 0.950 . S
C374 C376 1.327 . S
C374 C380 1.429 1_556 S
C375 C367 1.574 . S
C375 H370 0.949 . S
C375 C381 1.368 . S
C376 C360 1.349 1_556 S
C376 H368 0.950 . S
C376 C374 1.327 . S
C377 C365 1.349 1_554 S
C377 H371 0.950 . S
C377 C378 1.327 . S
C378 H372 0.950 . S
C378 C377 1.327 . S
C378 C382 1.432 . S
C379 C362 1.574 . S
C379 H373 0.949 . S
C379 C383 1.368 1_556 S
C380 C361 1.429 . S
C380 C374 1.429 1_554 S
C380 C381 1.523 . S
C381 C362 1.368 1_554 S
C381 C375 1.368 . S
C381 C380 1.523 . S
C382 C366 1.424 1_554 S
C382 C378 1.432 . S
C382 C383 1.524 . S
C383 C367 1.368 . S
C383 C379 1.368 1_554 S
C383 C382 1.524 . S
H384 C359 0.950 . S
H385 C361 0.950 . S
H386 C362 0.949 . S
H387 C364 0.950 . S
H388 C366 0.950 . S
C389 C390 1.349 . S
C389 C391 1.327 . S
C389 H414 0.950 . S
C390 C389 1.349 . S
C390 C406 1.349 1_556 S
C391 C389 1.327 . S
C391 C410 1.429 . S
C391 H415 0.950 . S
C392 C409 1.574 . S
C392 C411 1.368 1_554 S
C392 H416 0.949 . S
H393 C397 0.949 . S
C394 C395 1.348 . S
C394 C396 1.327 . S
C394 H417 0.950 . S
C395 C394 1.348 . S
C395 C407 1.350 1_554 S
C396 C394 1.327 . S
C396 C412 1.429 1_554 S
C396 H418 0.950 . S
C397 H393 0.949 . S
C397 C405 1.574 . S
C397 C413 1.368 . S
H398 C406 0.950 . S
H399 C404 0.950 . S
H400 C405 0.949 . S
H401 C407 0.950 . S
H402 C408 0.950 . S
H403 C409 0.949 . S
C404 H399 0.950 . S
C404 C406 1.327 . S
C404 C410 1.429 1_554 S
C405 C397 1.574 . S
C405 H400 0.949 . S
C405 C411 1.368 . S
C406 C390 1.349 1_554 S
C406 H398 0.950 . S
C406 C404 1.327 . S
C407 C395 1.350 1_556 S
C407 H401 0.950 . S
C407 C408 1.327 . S
C408 H402 0.950 . S
C408 C407 1.327 . S
C408 C412 1.429 . S
C409 C392 1.574 . S
C409 H403 0.949 . S
C409 C413 1.368 1_554 S
C410 C391 1.429 . S
C410 C404 1.429 1_556 S
C410 C411 1.523 . S
C411 C392 1.368 1_556 S
C411 C405 1.368 . S
C411 C410 1.523 . S
C412 C396 1.429 1_556 S
C412 C408 1.429 . S
C412 C413 1.523 . S
C413 C397 1.368 . S
C413 C409 1.368 1_556 S
C413 C412 1.523 . S
H414 C389 0.950 . S
H415 C391 0.950 . S
H416 C392 0.949 . S
H417 C394 0.950 . S
H418 C396 0.950 . S
C419 C420 1.349 1_554 S
C419 C421 1.327 . S
C419 H444 0.950 . S
C420 C419 1.349 1_556 S
C420 C436 1.349 . S
C421 C419 1.327 . S
C421 C440 1.429 1_554 S
C421 H445 0.950 . S
C422 C439 1.574 . S
C422 C441 1.368 . S
C422 H446 0.949 . S
H423 C427 0.949 . S
C424 C425 1.352 . S
C424 C426 1.327 . S
C424 H447 0.950 . S
C425 C424 1.352 . S
C425 C437 1.346 1_556 S
C426 C424 1.327 . S
C426 C442 1.429 . S
C426 H448 0.950 . S
C427 H423 0.949 . S
C427 C435 1.574 . S
C427 C443 1.368 1_554 S
H428 C436 0.950 . S
H429 C434 0.950 . S
H430 C435 0.949 . S
H431 C437 0.950 . S
H432 C438 0.950 . S
H433 C439 0.949 . S
C434 H429 0.950 . S
C434 C436 1.327 . S
C434 C440 1.429 . S
C435 C427 1.574 . S
C435 H430 0.949 . S
C435 C441 1.368 1_554 S
C436 C420 1.349 . S
C436 H428 0.950 . S
C436 C434 1.327 . S
C437 C425 1.346 1_554 S
C437 H431 0.950 . S
C437 C438 1.327 . S
C438 H432 0.950 . S
C438 C437 1.327 . S
C438 C442 1.429 1_554 S
C439 C422 1.574 . S
C439 H433 0.949 . S
C439 C443 1.368 . S
C440 C421 1.429 1_556 S
C440 C434 1.429 . S
C440 C441 1.523 . S
C441 C422 1.368 . S
C441 C435 1.368 1_556 S
C441 C440 1.523 . S
C442 C426 1.429 . S
C442 C438 1.429 1_556 S
C442 C443 1.523 . S
C443 C427 1.368 1_556 S
C443 C439 1.368 . S
C443 C442 1.523 . S
H444 C419 0.950 . S
H445 C421 0.950 . S
H446 C422 0.949 . S
H447 C424 0.950 . S
H448 C426 0.950 . S
C449 C450 1.349 . S
C449 C451 1.327 . S
C449 H474 0.950 . S
C450 C449 1.349 . S
C450 C466 1.349 1_554 S
C451 C449 1.327 . S
C451 C470 1.429 . S
C451 H475 0.950 . S
C452 C469 1.574 . S
C452 C471 1.368 1_556 S
C452 H476 0.949 . S
H453 C457 0.949 . S
C454 C455 1.349 1_556 S
C454 C456 1.327 . S
C454 H477 0.950 . S
C455 C454 1.349 1_554 S
C455 C467 1.349 . S
C456 C454 1.327 . S
C456 C472 1.429 1_556 S
C456 H478 0.950 . S
C457 H453 0.949 . S
C457 C465 1.574 . S
C457 C473 1.368 . S
H458 C466 0.950 . S
H459 C464 0.950 . S
H460 C465 0.949 . S
H461 C467 0.950 . S
H462 C468 0.950 . S
H463 C469 0.949 . S
C464 H459 0.950 . S
C464 C466 1.327 . S
C464 C470 1.429 1_556 S
C465 C457 1.574 . S
C465 H460 0.949 . S
C465 C471 1.368 . S
C466 C450 1.349 1_556 S
C466 H458 0.950 . S
C466 C464 1.327 . S
C467 C455 1.349 . S
C467 H461 0.950 . S
C467 C468 1.327 . S
C468 H462 0.950 . S
C468 C467 1.327 . S
C468 C472 1.429 . S
C469 C452 1.574 . S
C469 H463 0.949 . S
C469 C473 1.368 1_556 S
C470 C451 1.429 . S
C470 C464 1.429 1_554 S
C470 C471 1.523 . S
C471 C452 1.368 1_554 S
C471 C465 1.368 . S
C471 C470 1.523 . S
C472 C456 1.429 1_554 S
C472 C468 1.429 . S
C472 C473 1.523 . S
C473 C457 1.368 . S
C473 C469 1.368 1_554 S
C473 C472 1.523 . S
H474 C449 0.950 . S
H475 C451 0.950 . S
H476 C452 0.949 . S
H477 C454 0.950 . S
H478 C456 0.950 . S
C125 C70 1.203 . S
C120 N2 1.163 . S
C155 C77 1.611 . S
C150 C39 1.598 . S
C185 C72 1.428 . S
C180 C7 1.420 . S
C215 C78 1.379 . S
C210 N35 1.328 . S
C240 N12 1.127 . S
C245 C71 1.172 . S
C275 C80 1.648 . S
C270 C30 1.643 . S
C300 C16 1.378 . S
C305 C69 1.390 . S
C330 N25 1.368 . S
C335 C79 1.412 . S
C360 C62 1.815 . S
C365 C74 1.831 . S
C390 N48 1.569 . S
C395 C73 1.626 . S
C425 C76 1.595 1_556 S
C420 N58 1.528 . S
C455 C75 1.870 . S
C450 C53 1.860 . S
