# Generated by pormake.
# Topology ocu, (6,8)-cn, num edge types: 1
# Building blocks:
#     Node 0, Type 0, BuildingBlock: VOLQOD_clean_sbu_1, # of connection points: 6
#     Node 1, Type 0, BuildingBlock: VOLQOD_clean_sbu_1, # of connection points: 6
#     Node 2, Type 0, BuildingBlock: VOLQOD_clean_sbu_1, # of connection points: 6
#     Node 3, Type 0, BuildingBlock: VOLQOD_clean_sbu_1, # of connection points: 6
#     Node 4, Type 0, BuildingBlock: VOLQOD_clean_sbu_1, # of connection points: 6
#     Node 5, Type 0, BuildingBlock: VOLQOD_clean_sbu_1, # of connection points: 6
#     Node 6, Type 0, BuildingBlock: VOLQOD_clean_sbu_1, # of connection points: 6
#     Node 7, Type 0, BuildingBlock: VOLQOD_clean_sbu_1, # of connection points: 6
#     Node 8, Type 1, BuildingBlock: TAGTUT_clean_sbu_1, # of connection points: 8
#     Node 9, Type 1, BuildingBlock: TAGTUT_clean_sbu_1, # of connection points: 8
#     Node 10, Type 1, BuildingBlock: TAGTUT_clean_sbu_1, # of connection points: 8
#     Node 11, Type 1, BuildingBlock: TAGTUT_clean_sbu_1, # of connection points: 8
#     Node 12, Type 1, BuildingBlock: TAGTUT_clean_sbu_1, # of connection points: 8
#     Node 13, Type 1, BuildingBlock: TAGTUT_clean_sbu_1, # of connection points: 8
#     Edge 14, Type (0, 1), BuildingBlock: XIVTED_clean_linker_0, # of connection points: 2
#     Edge 15, Type (0, 1), BuildingBlock: XIVTED_clean_linker_0, # of connection points: 2
#     Edge 16, Type (0, 1), BuildingBlock: XIVTED_clean_linker_0, # of connection points: 2
#     Edge 17, Type (0, 1), BuildingBlock: XIVTED_clean_linker_0, # of connection points: 2
#     Edge 18, Type (0, 1), BuildingBlock: XIVTED_clean_linker_0, # of connection points: 2
#     Edge 19, Type (0, 1), BuildingBlock: XIVTED_clean_linker_0, # of connection points: 2
#     Edge 20, Type (0, 1), BuildingBlock: XIVTED_clean_linker_0, # of connection points: 2
#     Edge 21, Type (0, 1), BuildingBlock: XIVTED_clean_linker_0, # of connection points: 2
#     Edge 22, Type (0, 1), BuildingBlock: XIVTED_clean_linker_0, # of connection points: 2
#     Edge 23, Type (0, 1), BuildingBlock: XIVTED_clean_linker_0, # of connection points: 2
#     Edge 24, Type (0, 1), BuildingBlock: XIVTED_clean_linker_0, # of connection points: 2
#     Edge 25, Type (0, 1), BuildingBlock: XIVTED_clean_linker_0, # of connection points: 2
#     Edge 26, Type (0, 1), BuildingBlock: XIVTED_clean_linker_0, # of connection points: 2
#     Edge 27, Type (0, 1), BuildingBlock: XIVTED_clean_linker_0, # of connection points: 2
#     Edge 28, Type (0, 1), BuildingBlock: XIVTED_clean_linker_0, # of connection points: 2
#     Edge 29, Type (0, 1), BuildingBlock: XIVTED_clean_linker_0, # of connection points: 2
#     Edge 30, Type (0, 1), BuildingBlock: XIVTED_clean_linker_0, # of connection points: 2
#     Edge 31, Type (0, 1), BuildingBlock: XIVTED_clean_linker_0, # of connection points: 2
#     Edge 32, Type (0, 1), BuildingBlock: XIVTED_clean_linker_0, # of connection points: 2
#     Edge 33, Type (0, 1), BuildingBlock: XIVTED_clean_linker_0, # of connection points: 2
#     Edge 34, Type (0, 1), BuildingBlock: XIVTED_clean_linker_0, # of connection points: 2
#     Edge 35, Type (0, 1), BuildingBlock: XIVTED_clean_linker_0, # of connection points: 2
#     Edge 36, Type (0, 1), BuildingBlock: XIVTED_clean_linker_0, # of connection points: 2
#     Edge 37, Type (0, 1), BuildingBlock: XIVTED_clean_linker_0, # of connection points: 2
#     Edge 38, Type (0, 1), BuildingBlock: XIVTED_clean_linker_0, # of connection points: 2
#     Edge 39, Type (0, 1), BuildingBlock: XIVTED_clean_linker_0, # of connection points: 2
#     Edge 40, Type (0, 1), BuildingBlock: XIVTED_clean_linker_0, # of connection points: 2
#     Edge 41, Type (0, 1), BuildingBlock: XIVTED_clean_linker_0, # of connection points: 2
#     Edge 42, Type (0, 1), BuildingBlock: XIVTED_clean_linker_0, # of connection points: 2
#     Edge 43, Type (0, 1), BuildingBlock: XIVTED_clean_linker_0, # of connection points: 2
#     Edge 44, Type (0, 1), BuildingBlock: XIVTED_clean_linker_0, # of connection points: 2
#     Edge 45, Type (0, 1), BuildingBlock: XIVTED_clean_linker_0, # of connection points: 2
#     Edge 46, Type (0, 1), BuildingBlock: XIVTED_clean_linker_0, # of connection points: 2
#     Edge 47, Type (0, 1), BuildingBlock: XIVTED_clean_linker_0, # of connection points: 2
#     Edge 48, Type (0, 1), BuildingBlock: XIVTED_clean_linker_0, # of connection points: 2
#     Edge 49, Type (0, 1), BuildingBlock: XIVTED_clean_linker_0, # of connection points: 2
#     Edge 50, Type (0, 1), BuildingBlock: XIVTED_clean_linker_0, # of connection points: 2
#     Edge 51, Type (0, 1), BuildingBlock: XIVTED_clean_linker_0, # of connection points: 2
#     Edge 52, Type (0, 1), BuildingBlock: XIVTED_clean_linker_0, # of connection points: 2
#     Edge 53, Type (0, 1), BuildingBlock: XIVTED_clean_linker_0, # of connection points: 2
#     Edge 54, Type (0, 1), BuildingBlock: XIVTED_clean_linker_0, # of connection points: 2
#     Edge 55, Type (0, 1), BuildingBlock: XIVTED_clean_linker_0, # of connection points: 2
#     Edge 56, Type (0, 1), BuildingBlock: XIVTED_clean_linker_0, # of connection points: 2
#     Edge 57, Type (0, 1), BuildingBlock: XIVTED_clean_linker_0, # of connection points: 2
#     Edge 58, Type (0, 1), BuildingBlock: XIVTED_clean_linker_0, # of connection points: 2
#     Edge 59, Type (0, 1), BuildingBlock: XIVTED_clean_linker_0, # of connection points: 2
#     Edge 60, Type (0, 1), BuildingBlock: XIVTED_clean_linker_0, # of connection points: 2
#     Edge 61, Type (0, 1), BuildingBlock: XIVTED_clean_linker_0, # of connection points: 2
# Relax obj value: 0.188
# Max RMSD: 0.330
# Mean RMSD: 0.221
data_MOF--net-ocu--node1-VOLQOD_clean_sbu_1--node2-TAGTUT_clean_sbu_1--edge1-XIVTED_clean_linker_0
_symmetry_space_group_name_H-M    P1
_symmetry_Int_Tables_number       1
_symmetry_cell_setting            triclinic
loop_
_symmetry_equiv_pos_as_xyz
'x, y, z'
_cell_length_a     38.727027
_cell_length_b     36.695656
_cell_length_c     39.875084
_cell_angle_alpha  91.405692
_cell_angle_beta   91.577801
_cell_angle_gamma 100.45491
loop_
_atom_site_label
_atom_site_type_symbol
_atom_site_fract_x
_atom_site_fract_y
_atom_site_fract_z
_atom_type_partial_charge
O0 O 0.3342 0.30301 0.26011 0.0
Zn1 Zn 0.29421 0.26831 0.28141 0.0
O2 O 0.254 0.25363 0.24929 0.0
Zn3 Zn 0.21069 0.26151 0.26881 0.0
Zn4 Zn 0.26205 0.28359 0.20985 0.0
Zn5 Zn 0.24758 0.20112 0.23613 0.0
O6 O 0.17767 0.21419 0.27627 0.0
O7 O 0.20074 0.17152 0.24909 0.0
O8 O 0.279 0.29403 0.3235 0.0
O9 O 0.22116 0.28584 0.31364 0.0
O10 O 0.18584 0.29426 0.24128 0.0
O11 O 0.2227 0.31143 0.20048 0.0
O12 O 0.2702 0.25195 0.16988 0.0
O13 O 0.31357 0.22274 0.29443 0.0
O14 O 0.25784 0.19418 0.18739 0.0
O15 O 0.28243 0.17797 0.26168 0.0
C16 C 0.33379 0.32298 0.23448 0.0
C17 C 0.17659 0.1807 0.26675 0.0
C18 C 0.19417 0.31277 0.21524 0.0
C19 C 0.24825 0.29748 0.33225 0.0
C20 C 0.26789 0.2172 0.16466 0.0
C21 C 0.30648 0.18903 0.28386 0.0
O22 O 0.30678 0.3203 0.2151 0.0
O23 O 0.77176 0.21008 0.21262 0.0
Zn24 Zn 0.78907 0.23574 0.25738 0.0
O25 O 0.75055 0.24928 0.28343 0.0
Zn26 Zn 0.75355 0.30283 0.28605 0.0
Zn27 Zn 0.70653 0.22792 0.26082 0.0
Zn28 Zn 0.75167 0.23108 0.32897 0.0
O29 O 0.7603 0.32288 0.33314 0.0
O30 O 0.76244 0.2734 0.36332 0.0
O31 O 0.82333 0.28171 0.24685 0.0
O32 O 0.79639 0.32725 0.26341 0.0
O33 O 0.71197 0.31958 0.26421 0.0
O34 O 0.67838 0.26634 0.2478 0.0
O35 O 0.67727 0.19234 0.28922 0.0
O36 O 0.81569 0.20294 0.28401 0.0
O37 O 0.70557 0.19737 0.3389 0.0
O38 O 0.79155 0.20291 0.33409 0.0
C39 C 0.74056 0.19715 0.20192 0.0
C40 C 0.7648 0.30835 0.36115 0.0
C41 C 0.68388 0.30154 0.25025 0.0
C42 C 0.82224 0.31608 0.25016 0.0
C43 C 0.67924 0.18369 0.31973 0.0
C44 C 0.8142 0.19358 0.31457 0.0
O45 O 0.71399 0.20114 0.2186 0.0
O46 O 0.70515 0.67468 0.26354 0.0
Zn47 Zn 0.73278 0.71838 0.29026 0.0
O48 O 0.74225 0.76043 0.26071 0.0
Zn49 Zn 0.79032 0.76814 0.24624 0.0
Zn50 Zn 0.70993 0.74858 0.22291 0.0
Zn51 Zn 0.73324 0.80506 0.28168 0.0
O52 O 0.81657 0.81952 0.25905 0.0
O53 O 0.77752 0.84042 0.29048 0.0
O54 O 0.77785 0.70195 0.3037 0.0
O55 O 0.81677 0.7336 0.27034 0.0
O56 O 0.7918 0.75471 0.19717 0.0
O57 O 0.7357 0.73254 0.18336 0.0
O58 O 0.68589 0.79085 0.21123 0.0
O59 O 0.7071 0.732 0.33169 0.0
O60 O 0.70183 0.83088 0.25391 0.0
O61 O 0.71159 0.79296 0.32535 0.0
C62 C 0.67965 0.67514 0.24289 0.0
C63 C 0.80817 0.84393 0.27902 0.0
C64 C 0.76814 0.73815 0.1764 0.0
C65 C 0.80878 0.70944 0.29255 0.0
C66 C 0.68486 0.82155 0.22639 0.0
C67 C 0.70228 0.76389 0.34198 0.0
O68 O 0.67265 0.70567 0.23296 0.0
O69 O 0.27145 0.75498 0.29883 0.0
Zn70 Zn 0.25827 0.7278 0.25404 0.0
O71 O 0.24627 0.76179 0.22014 0.0
Zn72 Zn 0.1964 0.75166 0.20841 0.0
Zn73 Zn 0.2578 0.81267 0.23661 0.0
Zn74 Zn 0.27234 0.75707 0.18064 0.0
O75 O 0.18735 0.74292 0.15852 0.0
O76 O 0.24054 0.73769 0.14158 0.0
O77 O 0.21618 0.68875 0.2607 0.0
O78 O 0.17333 0.70498 0.22947 0.0
O79 O 0.17307 0.79067 0.22956 0.0
O80 O 0.2167 0.83853 0.23662 0.0
O81 O 0.2979 0.84227 0.21303 0.0
O82 O 0.29699 0.70084 0.2395 0.0
O83 O 0.30497 0.8038 0.171 0.0
O84 O 0.30339 0.72085 0.18748 0.0
C85 C 0.27496 0.78938 0.30668 0.0
C86 C 0.20764 0.73462 0.13601 0.0
C87 C 0.18451 0.82408 0.23927 0.0
C88 C 0.1845 0.68305 0.24954 0.0
C89 C 0.31364 0.83472 0.18691 0.0
C90 C 0.31142 0.70126 0.2112 0.0
O91 O 0.2712 0.81315 0.28489 0.0
O92 O 0.26946 0.71214 0.71465 0.0
Zn93 Zn 0.28633 0.7381 0.7594 0.0
O94 O 0.24739 0.75179 0.78477 0.0
Zn95 Zn 0.24995 0.80527 0.78709 0.0
Zn96 Zn 0.20347 0.73012 0.76204 0.0
Zn97 Zn 0.24828 0.73406 0.83033 0.0
O98 O 0.25746 0.82583 0.83397 0.0
O99 O 0.25897 0.77649 0.86447 0.0
O100 O 0.32013 0.78439 0.74831 0.0
O101 O 0.29207 0.82957 0.76351 0.0
O102 O 0.20778 0.82156 0.76597 0.0
O103 O 0.17416 0.76798 0.75071 0.0
O104 O 0.17478 0.69291 0.7898 0.0
O105 O 0.31315 0.70588 0.78662 0.0
O106 O 0.20203 0.70104 0.84004 0.0
O107 O 0.2879 0.70569 0.83613 0.0
C108 C 0.2384 0.70172 0.70247 0.0
C109 C 0.2617 0.81144 0.8621 0.0
C110 C 0.17937 0.80317 0.75292 0.0
C111 C 0.31823 0.81866 0.75063 0.0
C112 C 0.17632 0.68586 0.82076 0.0
C113 C 0.31107 0.69652 0.81717 0.0
O114 O 0.21158 0.70666 0.71831 0.0
O115 O 0.20824 0.17895 0.75457 0.0
Zn116 Zn 0.23476 0.22128 0.78434 0.0
O117 O 0.24734 0.26401 0.75544 0.0
Zn118 Zn 0.29504 0.26856 0.7412 0.0
Zn119 Zn 0.21479 0.25432 0.71777 0.0
Zn120 Zn 0.24058 0.30915 0.77651 0.0
O121 O 0.32378 0.31891 0.75383 0.0
O122 O 0.28603 0.34225 0.78512 0.0
O123 O 0.27876 0.20353 0.79992 0.0
O124 O 0.31898 0.2327 0.76629 0.0
O125 O 0.29544 0.25441 0.69218 0.0
O126 O 0.23878 0.23539 0.67819 0.0
O127 O 0.19326 0.29819 0.70602 0.0
O128 O 0.20731 0.2359 0.82449 0.0
O129 O 0.21045 0.337 0.74931 0.0
O130 O 0.21842 0.29742 0.8199 0.0
C131 C 0.1838 0.18323 0.73394 0.0
C132 C 0.31655 0.34405 0.77368 0.0
C133 C 0.2712 0.23917 0.67133 0.0
C134 C 0.30992 0.20951 0.7891 0.0
C135 C 0.19339 0.32887 0.72167 0.0
C136 C 0.20571 0.26854 0.83562 0.0
O137 O 0.17603 0.21514 0.73151 0.0
O138 O 0.77543 0.2526 0.80007 0.0
Zn139 Zn 0.76198 0.22649 0.75484 0.0
O140 O 0.74942 0.26148 0.72211 0.0
Zn141 Zn 0.69933 0.25215 0.71162 0.0
Zn142 Zn 0.76202 0.31195 0.73926 0.0
Zn143 Zn 0.77419 0.25733 0.68172 0.0
O144 O 0.68884 0.24337 0.66197 0.0
O145 O 0.74122 0.23673 0.64377 0.0
O146 O 0.71999 0.18718 0.76151 0.0
O147 O 0.67644 0.20565 0.73306 0.0
O148 O 0.67698 0.29176 0.7331 0.0
O149 O 0.72156 0.33862 0.74046 0.0
O150 O 0.80182 0.34143 0.71523 0.0
O151 O 0.80102 0.20058 0.73905 0.0
O152 O 0.80547 0.30462 0.67095 0.0
O153 O 0.80688 0.22267 0.68772 0.0
C154 C 0.77924 0.28685 0.8086 0.0
C155 C 0.70826 0.23422 0.63906 0.0
C156 C 0.68916 0.32498 0.74294 0.0
C157 C 0.68788 0.18264 0.75177 0.0
C158 C 0.8156 0.33479 0.6877 0.0
C159 C 0.8156 0.20262 0.71077 0.0
O160 O 0.77576 0.31127 0.78735 0.0
O161 O 0.8308 0.80057 0.75697 0.0
Zn162 Zn 0.79081 0.7662 0.77869 0.0
O163 O 0.75048 0.75123 0.74675 0.0
Zn164 Zn 0.70727 0.75891 0.76655 0.0
Zn165 Zn 0.75818 0.7811 0.70721 0.0
Zn166 Zn 0.74406 0.6987 0.73374 0.0
O167 O 0.67417 0.71164 0.7737 0.0
O168 O 0.697 0.66912 0.74609 0.0
O169 O 0.7758 0.7923 0.82073 0.0
O170 O 0.71785 0.78276 0.81149 0.0
O171 O 0.6825 0.7921 0.73959 0.0
O172 O 0.71885 0.80918 0.69839 0.0
O173 O 0.76593 0.74935 0.66712 0.0
O174 O 0.80977 0.72057 0.79227 0.0
O175 O 0.75486 0.69173 0.68517 0.0
O176 O 0.7783 0.67548 0.76005 0.0
C177 C 0.83023 0.82041 0.73126 0.0
C178 C 0.67292 0.67823 0.76387 0.0
C179 C 0.69059 0.81069 0.71357 0.0
C180 C 0.74498 0.79498 0.82986 0.0
C181 C 0.76425 0.71464 0.66218 0.0
C182 C 0.8023 0.68668 0.78225 0.0
O183 O 0.80306 0.81772 0.71209 0.0
C184 C 0.95071 0.08245 0.55346 0.0
C185 C 0.97381 0.07067 0.44773 0.0
C186 C 0.96216 0.92611 0.4707 0.0
Mg187 Mg 0.01759 0.07702 0.51394 0.0
O188 O 0.00028 0.02715 0.52202 0.0
Mg189 Mg 0.95141 0.00541 0.50592 0.0
Mg190 Mg 0.0251 0.98796 0.50556 0.0
O191 O 0.04959 0.94875 0.48877 0.0
Mg192 Mg 0.03161 0.89907 0.49765 0.0
Mg193 Mg 0.09817 0.97049 0.50533 0.0
C194 C 0.08919 0.05083 0.53638 0.0
C195 C 0.07579 0.02053 0.44526 0.0
O196 O 0.93491 0.05202 0.53895 0.0
O197 O 0.98269 0.09682 0.54788 0.0
O198 O 0.95442 0.04228 0.45962 0.0
O199 O 0.0013 0.0878 0.46364 0.0
O200 O 0.07231 0.07711 0.52971 0.0
O201 O 0.07502 0.01654 0.53256 0.0
C202 C 0.97427 0.95517 0.56568 0.0
O203 O 0.00456 0.95617 0.55309 0.0
O204 O 0.95092 0.9708 0.55177 0.0
O205 O 0.11463 0.92327 0.47315 0.0
O206 O 0.06726 0.87791 0.46543 0.0
O207 O 0.09233 0.93592 0.55294 0.0
C208 C 0.09889 0.89262 0.45899 0.0
O209 O 0.04381 0.89232 0.54977 0.0
O210 O 0.97851 0.89954 0.47774 0.0
C211 C 0.07083 0.90991 0.56604 0.0
O212 O 0.97551 0.96005 0.478 0.0
O213 O 0.04574 0.01946 0.45842 0.0
O214 O 0.0994 0.00475 0.45869 0.0
C215 C 0.43136 0.11471 0.01835 0.0
C216 C 0.4693 0.08923 0.92286 0.0
C217 C 0.46635 0.95155 0.97408 0.0
Mg218 Mg 0.50598 0.11251 0.99204 0.0
O219 O 0.4939 0.06277 0.00417 0.0
Mg220 Mg 0.44787 0.03299 0.98785 0.0
Mg221 Mg 0.52415 0.02521 -0.00494 0.0
O222 O 0.55463 0.98772 0.98634 0.0
Mg223 Mg 0.54171 0.93977 0.00173 0.0
Mg224 Mg 0.60044 0.01728 0.00422 0.0
C225 C 0.58079 0.09916 0.0217 0.0
C226 C 0.57543 0.0495 0.93416 0.0
O227 O 0.42251 0.08066 0.00848 0.0
O228 O 0.46291 0.13273 0.01623 0.0
O229 O 0.45171 0.06104 0.93687 0.0
O230 O 0.49379 0.11171 0.93873 0.0
O231 O 0.56088 0.12211 0.0127 0.0
O232 O 0.57024 0.06389 0.01936 0.0
C233 C 0.47311 -0.00184 0.05586 0.0
O234 O 0.50426 0.00078 0.04489 0.0
O235 O 0.44812 0.00819 0.03887 0.0
O236 O 0.62623 0.96797 0.98558 0.0
O237 O 0.58416 0.91681 0.98074 0.0
O238 O 0.59549 0.99191 0.05703 0.0
C239 C 0.61606 0.93337 0.9778 0.0
O240 O 0.55107 0.94375 0.05462 0.0
O241 O 0.48666 0.92966 0.98431 0.0
C242 C 0.57525 0.96563 0.07113 0.0
O243 O 0.47735 0.98651 0.97102 0.0
O244 O 0.54433 0.04841 0.94494 0.0
O245 O 0.60016 0.03996 0.95206 0.0
C246 C 0.88352 0.57895 0.02952 0.0
C247 C 0.91026 0.53595 0.93422 0.0
C248 C 0.91488 0.4096 -0.00584 0.0
Mg249 Mg 0.95272 0.56782 -0.0028 0.0
O250 O 0.94298 0.523 0.0186 0.0
Mg251 Mg 0.8954 0.49218 0.00743 0.0
Mg252 Mg 0.97312 0.4857 0.00801 0.0
O253 O 0.00266 0.44804 -0.0027 0.0
Mg254 Mg 0.99275 0.40162 0.01697 0.0
Mg255 Mg 0.05027 0.47863 0.00693 0.0
C256 C 0.03125 0.5614 0.01802 0.0
C257 C 0.01602 0.50967 0.94105 0.0
O258 O 0.87206 0.54374 0.02636 0.0
O259 O 0.91431 0.59394 0.02071 0.0
O260 O 0.89161 0.51241 0.95261 0.0
O261 O 0.93723 0.55794 0.94609 0.0
O262 O 0.00846 0.58064 0.0083 0.0
O263 O 0.02269 0.52681 0.02474 0.0
C264 C 0.93031 0.46418 0.07528 0.0
O265 O 0.95961 0.46523 0.06065 0.0
O266 O 0.90328 0.47317 0.06059 0.0
O267 O 0.07225 0.42708 0.98698 0.0
O268 O 0.03016 0.37627 0.99039 0.0
O269 O 0.05442 0.45742 0.06033 0.0
C270 C 0.06095 0.39204 0.98221 0.0
O271 O 0.01201 0.40879 0.06801 0.0
O272 O 0.93657 0.38912 0.0042 0.0
C273 C 0.03855 0.4323 0.07897 0.0
O274 O 0.92438 0.44475 0.99076 0.0
O275 O 0.98668 0.50759 0.95573 0.0
O276 O 0.04277 0.49932 0.95484 0.0
C277 C 0.44452 0.5799 0.05349 0.0
C278 C 0.47069 0.57094 0.94844 0.0
C279 C 0.46346 0.42604 0.97085 0.0
Mg280 Mg 0.51315 0.57799 0.01552 0.0
O281 O 0.49721 0.52761 0.02247 0.0
Mg282 Mg 0.44915 0.50417 0.00556 0.0
Mg283 Mg 0.52391 0.48998 0.00624 0.0
O284 O 0.55044 0.45232 0.9898 0.0
Mg285 Mg 0.53419 0.4023 -0.00145 0.0
Mg286 Mg 0.59831 0.47595 0.00697 0.0
C287 C 0.58502 0.55437 0.04063 0.0
C288 C 0.57427 0.52487 0.94668 0.0
O289 O 0.43004 0.54924 0.03851 0.0
O290 O 0.4763 0.59553 0.04863 0.0
O291 O 0.45186 0.54176 0.95967 0.0
O292 O 0.49752 0.5887 0.96497 0.0
O293 O 0.56746 0.5801 0.03399 0.0
O294 O 0.57241 0.52008 0.03415 0.0
C295 C 0.4733 0.45503 0.06558 0.0
O296 O 0.50392 0.45743 0.0534 0.0
O297 O 0.44928 0.46942 0.0513 0.0
O298 O 0.61721 0.43018 0.97478 0.0
O299 O 0.57132 0.38314 0.96674 0.0
O300 O 0.59366 0.4406 0.05423 0.0
C301 C 0.60267 0.3991 0.96058 0.0
O302 O 0.54629 0.39559 0.05066 0.0
O303 O 0.48086 0.40042 0.97825 0.0
C304 C 0.57293 0.41376 0.06707 0.0
O305 O 0.47556 0.46033 0.97793 0.0
O306 O 0.54393 0.52231 0.9595 0.0
O307 O 0.59862 0.51039 0.96043 0.0
C308 C 0.92952 0.61418 0.51684 0.0
C309 C 0.96958 0.58935 0.42193 0.0
C310 C 0.96808 0.45216 0.47362 0.0
Mg311 Mg 0.00469 0.61335 0.49148 0.0
O312 O 0.99335 0.56359 0.50365 0.0
Mg313 Mg 0.9479 0.533 0.48687 0.0
Mg314 Mg 0.02447 0.52691 0.49455 0.0
O315 O 0.05586 0.49029 0.48589 0.0
Mg316 Mg 0.04394 0.44237 0.50163 0.0
Mg317 Mg 0.10128 0.52094 0.50356 0.0
C318 C 0.07979 0.6019 0.52146 0.0
C319 C 0.07517 0.55209 0.43346 0.0
O320 O 0.92133 0.58003 0.50711 0.0
O321 O 0.96086 0.63276 0.51491 0.0
O322 O 0.95196 0.56104 0.43577 0.0
O323 O 0.99356 0.61213 0.43812 0.0
O324 O 0.05928 0.62426 0.51255 0.0
O325 O 0.07004 0.56654 0.51882 0.0
C326 C 0.97355 0.49883 0.55509 0.0
O327 O 0.00483 0.50215 0.54431 0.0
O328 O 0.94833 0.50828 0.53797 0.0
O329 O 0.12812 0.4724 0.48509 0.0
O330 O 0.08705 0.42039 0.4807 0.0
O331 O 0.09701 0.49591 0.55638 0.0
C332 C 0.11868 0.43766 0.47754 0.0
O333 O 0.05319 0.44714 0.55458 0.0
O334 O 0.98891 0.43092 0.48405 0.0
C335 C 0.07718 0.46959 0.5708 0.0
O336 O 0.97838 0.48723 0.47046 0.0
O337 O 0.04407 0.55038 0.44441 0.0
O338 O 0.10031 0.54324 0.45127 0.0
C339 C 0.38385 0.07979 0.5236 0.0
C340 C 0.41466 0.03528 0.43052 0.0
C341 C 0.41543 0.90974 0.49219 0.0
Mg342 Mg 0.45439 0.06775 0.49443 0.0
O343 O 0.44334 0.02348 0.51663 0.0
Mg344 Mg 0.3961 0.99273 0.50391 0.0
Mg345 Mg 0.47355 0.98579 0.50785 0.0
O346 O 0.50319 0.94781 0.49882 0.0
Mg347 Mg 0.49215 0.90141 0.51834 0.0
Mg348 Mg 0.55056 0.97822 0.50979 0.0
C349 C 0.53182 0.06119 0.51878 0.0
C350 C 0.51907 0.00856 0.44225 0.0
O351 O 0.37241 0.04456 0.52097 0.0
O352 O 0.41496 0.09453 0.51545 0.0
O353 O 0.39488 0.01258 0.44877 0.0
O354 O 0.44166 0.0569 0.44281 0.0
O355 O 0.50966 0.08049 0.50768 0.0
O356 O 0.52272 0.02678 0.52591 0.0
C357 C 0.42778 0.9651 0.57355 0.0
O358 O 0.45773 0.96596 0.56019 0.0
O359 O 0.40146 0.97406 0.55757 0.0
O360 O 0.57306 0.92641 0.49134 0.0
O361 O 0.53054 0.87585 0.49368 0.0
O362 O 0.5522 0.95737 0.56347 0.0
C363 C 0.56174 0.89137 0.48656 0.0
O364 O 0.5095 0.90863 0.56993 0.0
O365 O 0.43655 0.88905 0.50311 0.0
C366 C 0.53555 0.9323 0.5817 0.0
O367 O 0.42531 0.94491 0.48927 0.0
O368 O 0.48921 0.0069 0.45584 0.0
O369 O 0.54529 -0.00158 0.45722 0.0
H370 H 0.11748 0.18903 0.30017 0.0
H371 H 0.1243 0.00815 0.40039 0.0
H372 H 0.17764 0.10637 0.26976 0.0
H373 H 0.04497 0.07486 0.41663 0.0
H374 H 0.14029 0.04126 0.34938 0.0
H375 H 0.08558 0.145 0.33841 0.0
C376 C 0.12341 0.16132 0.3009 0.0
C377 C 0.15079 0.15164 0.28217 0.0
C378 C 0.11912 0.04851 0.36384 0.0
C379 C 0.11482 0.1014 0.32641 0.0
C380 C 0.11015 0.0298 0.39319 0.0
C381 C 0.08364 0.03924 0.41319 0.0
C382 C 0.10191 0.07741 0.35453 0.0
C383 C 0.06576 0.06696 0.40217 0.0
C384 C 0.10522 0.13622 0.32284 0.0
C385 C 0.15703 0.11523 0.28392 0.0
N386 N 0.0756 0.08553 0.37383 0.0
N387 N 0.13971 0.09171 0.30622 0.0
H388 H 0.84121 0.13581 0.28698 0.0
H389 H 0.98792 0.14347 0.4313 0.0
H390 H 0.84947 0.20916 0.37415 0.0
H391 H 0.92711 0.03758 0.39817 0.0
H392 H 0.95269 0.17408 0.39298 0.0
H393 H 0.88678 0.10509 0.31269 0.0
C394 C 0.85278 0.14551 0.31136 0.0
C395 C 0.84143 0.17463 0.32879 0.0
C396 C 0.94777 0.14408 0.39358 0.0
C397 C 0.89394 0.14109 0.35721 0.0
C398 C 0.968 0.12654 0.41518 0.0
C399 C 0.96005 0.08793 0.4183 0.0
C400 C 0.92001 0.12285 0.37448 0.0
C401 C 0.93376 0.06746 0.39682 0.0
C402 C 0.87864 0.12812 0.32585 0.0
C403 C 0.8572 0.18643 0.36019 0.0
N404 N 0.91435 0.08522 0.37596 0.0
N405 N 0.88286 0.1698 0.3733 0.0
H406 H 0.8783 0.84248 0.28346 0.0
H407 H 0.92116 0.97364 0.44499 0.0
H408 H 0.80101 0.90622 0.31542 0.0
H409 H 0.9392 0.861 0.43609 0.0
H410 H 0.88749 0.96413 0.39128 0.0
H411 H 0.91666 0.86949 0.33057 0.0
C412 C 0.86993 0.86328 0.29949 0.0
C413 C 0.83594 0.87114 0.29632 0.0
C414 C 0.89883 0.94169 0.40146 0.0
C415 C 0.87934 0.90145 0.35018 0.0
C416 C 0.91761 0.94684 0.43217 0.0
C417 C 0.93358 0.9183 0.44486 0.0
C418 C 0.89687 0.90815 0.38336 0.0
C419 C 0.92781 0.88402 0.4273 0.0
C420 C 0.89165 0.87826 0.32661 0.0
C421 C 0.82672 0.89867 0.31769 0.0
N422 N 0.91051 0.88017 0.39715 0.0
N423 N 0.84803 0.9123 0.34443 0.0
H424 H 0.20238 0.89231 0.27107 0.0
H425 H 0.07392 0.82972 0.42076 0.0
H426 H 0.12156 0.79408 0.26612 0.0
H427 H 0.15737 0.92562 0.42645 0.0
H428 H 0.08997 0.81695 0.36354 0.0
H429 H 0.18175 0.90857 0.32562 0.0
C430 C 0.17963 0.87468 0.28091 0.0
C431 C 0.16426 0.84125 0.26421 0.0
C432 C 0.10493 0.84063 0.37741 0.0
C433 C 0.14116 0.85928 0.3272 0.0
C434 C 0.09609 0.84769 0.4103 0.0
C435 C 0.11416 0.87896 0.42854 0.0
C436 C 0.13202 0.865 0.36255 0.0
C437 C 0.14263 0.90119 0.4135 0.0
C438 C 0.1682 0.88373 0.31238 0.0
C439 C 0.13462 0.81984 0.2782 0.0
N440 N 0.15044 0.89397 0.38129 0.0
N441 N 0.12448 0.82883 0.3092 0.0
H442 H 0.11482 0.77361 0.72455 0.0
H443 H 0.11811 0.94829 0.61208 0.0
H444 H 0.1866 0.87751 0.74169 0.0
H445 H 0.04092 0.84771 0.59893 0.0
H446 H 0.1363 0.92686 0.66588 0.0
H447 H 0.08021 0.804 0.68579 0.0
C448 C 0.12298 0.80299 0.72066 0.0
C449 C 0.15418 0.82284 0.73577 0.0
C450 C 0.11507 0.90962 0.65148 0.0
C451 C 0.11486 0.85766 0.69109 0.0
C452 C 0.10474 0.92179 0.62063 0.0
C453 C 0.07853 0.89932 0.60057 0.0
C454 C 0.09945 0.87448 0.6622 0.0
C455 C 0.06165 0.86565 0.61332 0.0
C456 C 0.10317 0.82033 0.69847 0.0
C457 C 0.16308 0.86095 0.73019 0.0
N458 N 0.07284 0.85393 0.6431 0.0
N459 N 0.14389 0.87696 0.7078 0.0
H460 H 0.19423 0.1108 0.7263 0.0
H461 H 0.13913 0.11303 0.53313 0.0
H462 H 0.15616 0.198 0.67368 0.0
H463 H 0.11163 0.01271 0.58813 0.0
H464 H 0.17439 0.14178 0.58168 0.0
H465 H 0.18596 0.07271 0.67367 0.0
C466 C 0.18403 0.12182 0.70391 0.0
C467 C 0.17551 0.15749 0.70455 0.0
C468 C 0.16156 0.11302 0.58269 0.0
C469 C 0.16812 0.11535 0.64466 0.0
C470 C 0.14174 0.09655 0.55492 0.0
C471 C 0.12161 0.06099 0.55716 0.0
C472 C 0.16059 0.09394 0.61282 0.0
C473 C 0.1263 0.04054 0.58576 0.0
C474 C 0.17979 0.10034 0.674 0.0
C475 C 0.16276 0.17062 0.67474 0.0
N476 N 0.1444 0.0578 0.61317 0.0
N477 N 0.15973 0.14969 0.64612 0.0
H478 H 0.80699 0.12766 0.70391 0.0
H479 H 0.9733 0.1486 0.58728 0.0
H480 H 0.88264 0.22841 0.69553 0.0
H481 H 0.88832 0.05416 0.58223 0.0
H482 H 0.94611 0.17374 0.63479 0.0
H483 H 0.84376 0.09486 0.66929 0.0
C484 C 0.83215 0.14237 0.69603 0.0
C485 C 0.84215 0.18053 0.70255 0.0
C486 C 0.93342 0.14748 0.62332 0.0
C487 C 0.88333 0.14403 0.6622 0.0
C488 C 0.9488 0.13322 0.59599 0.0
C489 C 0.93287 0.0994 0.58041 0.0
C490 C 0.90186 0.12785 0.63528 0.0
C491 C 0.90129 0.08058 0.59312 0.0
C492 C 0.85279 0.12391 0.67583 0.0
C493 C 0.87437 0.19883 0.69111 0.0
N494 N 0.88676 0.09513 0.61978 0.0
N495 N 0.89364 0.18051 0.67108 0.0
H496 H 0.84089 0.89467 0.72457 0.0
H497 H 0.98619 0.8882 0.58981 0.0
H498 H 0.89059 0.79973 0.71093 0.0
H499 H 0.94237 0.98467 0.61578 0.0
H500 H 0.9603 0.85809 0.6402 0.0
H501 H 0.88652 0.93132 0.69221 0.0
C502 C 0.86217 0.88195 0.71553 0.0
C503 C 0.86233 0.84443 0.72052 0.0
C504 C 0.95703 0.88615 0.63519 0.0
C505 C 0.91373 0.88542 0.68186 0.0
C506 C 0.97193 0.90331 0.60655 0.0
C507 C 0.96579 0.9386 0.59845 0.0
C508 C 0.93609 0.90465 0.65556 0.0
C509 C 0.94706 0.95707 0.62081 0.0
C510 C 0.88812 0.90271 0.6968 0.0
C511 C 0.89 0.82885 0.70784 0.0
N512 N 0.93259 0.93977 0.64802 0.0
N513 N 0.91428 0.84922 0.6884 0.0
H514 H 0.259 0.1463 0.1384 0.0
H515 H 0.43604 0.18757 0.03983 0.0
H516 H 0.31419 0.25753 0.12296 0.0
H517 H 0.36414 0.08269 0.03223 0.0
H518 H 0.39113 0.21457 0.06867 0.0
H519 H 0.2956 0.12306 0.097 0.0
C520 C 0.27831 0.16592 0.12579 0.0
C521 C 0.28368 0.20386 0.13439 0.0
C522 C 0.38513 0.18575 0.06032 0.0
C523 C 0.32637 0.17737 0.08759 0.0
C524 C 0.41083 0.17029 0.04399 0.0
C525 C 0.4041 0.13268 0.03386 0.0
C526 C 0.35267 0.16335 0.06686 0.0
C527 C 0.37077 0.11172 0.03975 0.0
C528 C 0.29932 0.15264 0.10221 0.0
C529 C 0.3091 0.22803 0.11716 0.0
N530 N 0.34653 0.12722 0.05613 0.0
N531 N 0.32996 0.2143 0.09505 0.0
H532 H 0.82845 0.3915 0.25239 0.0
H533 H 0.96288 0.41267 0.10489 0.0
H534 H 0.8792 0.30371 0.21512 0.0
H535 H 0.88863 0.48461 0.1234 0.0
H536 H 0.94852 0.38308 0.15816 0.0
H537 H 0.86679 0.43533 0.2188 0.0
C538 C 0.84803 0.38149 0.23758 0.0
C539 C 0.84983 0.34364 0.23563 0.0
C540 C 0.93599 0.40592 0.1509 0.0
C541 C 0.89364 0.39368 0.19726 0.0
C542 C 0.94438 0.42296 0.12061 0.0
C543 C 0.92661 0.45068 0.1096 0.0
C544 C 0.90963 0.41685 0.17013 0.0
C545 C 0.9024 0.46273 0.13074 0.0
C546 C 0.86993 0.40658 0.21848 0.0
C547 C 0.8763 0.33249 0.21669 0.0
N548 N 0.89427 0.4454 0.15987 0.0
N549 N 0.89679 0.35734 0.19767 0.0
H550 H 0.62458 0.80272 0.1886 0.0
H551 H 0.63322 0.99451 0.11114 0.0
H552 H 0.69634 0.89733 0.23123 0.0
H553 H 0.53749 0.91293 0.10954 0.0
H554 H 0.65531 0.96352 0.15863 0.0
H555 H 0.59119 0.84454 0.16123 0.0
C556 C 0.63316 0.83237 0.19228 0.0
C557 C 0.66341 0.8467 0.21175 0.0
C558 C 0.62906 0.95311 0.14843 0.0
C559 C 0.62559 0.89473 0.1804 0.0
C560 C 0.61638 0.97082 0.12136 0.0
C561 C 0.58392 0.95556 0.10559 0.0
C562 C 0.60925 0.91985 0.15931 0.0
C563 C 0.56306 0.92512 0.12025 0.0
C564 C 0.61393 0.85625 0.17698 0.0
C565 C 0.67319 0.88531 0.21619 0.0
N566 N 0.57647 0.90767 0.14572 0.0
N567 N 0.6547 0.90813 0.20001 0.0
H568 H 0.23085 0.67745 0.10473 0.0
H569 H 0.08536 0.54297 0.05668 0.0
H570 H 0.14754 0.74117 0.10089 0.0
H571 H 0.05989 0.62627 0.99035 0.0
H572 H 0.13887 0.58628 0.07546 0.0
H573 H 0.19629 0.63116 0.06581 0.0
C574 C 0.20583 0.68237 0.09478 0.0
C575 C 0.19174 0.71298 0.10617 0.0
C576 C 0.12203 0.59443 0.05597 0.0
C577 C 0.15264 0.66048 0.06199 0.0
C578 C 0.09154 0.5698 0.04533 0.0
C579 C 0.0677 0.58151 0.02277 0.0
C580 C 0.12806 0.63076 0.04413 0.0
C581 C 0.07702 0.61655 0.00868 0.0
C582 C 0.18613 0.65577 0.07294 0.0
C583 C 0.15913 0.71782 0.09286 0.0
N584 N 0.10589 0.64041 0.02041 0.0
N585 N 0.14054 0.69166 0.07148 0.0
H586 H 0.27258 0.88737 0.86612 0.0
H587 H 0.4298 0.88653 -0.00371 0.0
H588 H 0.28831 0.79226 0.92229 0.0
H589 H 0.41729 0.98075 0.93745 0.0
H590 H 0.37007 0.85694 0.98002 0.0
H591 H 0.31563 0.92675 0.90322 0.0
C592 C 0.28434 0.87484 0.88681 0.0
C593 C 0.27766 0.83621 0.89039 0.0
C594 C 0.38015 0.88428 0.97095 0.0
C595 C 0.32737 0.88114 0.93259 0.0
C596 C 0.41439 0.90113 0.98005 0.0
C597 C 0.42886 0.93575 0.96744 0.0
C598 C 0.3603 0.90189 0.94867 0.0
C599 C 0.40733 0.95378 0.94731 0.0
C600 C 0.30909 0.89739 0.90791 0.0
C601 C 0.29318 0.82176 0.91807 0.0
N602 N 0.37429 0.93632 0.93802 0.0
N603 N 0.31795 0.84412 0.93763 0.0
H604 H 0.14038 0.23488 0.85508 0.0
H605 H 0.13165 0.41046 0.97306 0.0
H606 H 0.22982 0.31838 0.88524 0.0
H607 H 0.04331 0.32089 0.95615 0.0
H608 H 0.16908 0.37316 0.94539 0.0
H609 H 0.10565 0.26043 0.89752 0.0
C610 C 0.15298 0.25768 0.87149 0.0
C611 C 0.1878 0.2748 0.86669 0.0
C612 C 0.14156 0.36145 0.94792 0.0
C613 C 0.14841 0.30469 0.91425 0.0
C614 C 0.12011 0.38291 0.96357 0.0
C615 C 0.08419 0.36901 0.9666 0.0
C616 C 0.127 0.32592 0.93472 0.0
C617 C 0.07084 0.33284 0.95419 0.0
C618 C 0.13313 0.27255 0.8954 0.0
C619 C 0.20289 0.30464 0.88811 0.0
N620 N 0.09216 0.31269 0.93843 0.0
N621 N 0.183 0.31896 0.91058 0.0
H622 H 0.61797 0.18027 0.76187 0.0
H623 H 0.62172 0.02399 0.89451 0.0
H624 H 0.70106 0.11735 0.77509 0.0
H625 H 0.54619 0.09719 0.89469 0.0
H626 H 0.6402 0.04558 0.83963 0.0
H627 H 0.58137 0.13792 0.79857 0.0
C628 C 0.62812 0.15692 0.77172 0.0
C629 C 0.66285 0.1527 0.76623 0.0
C630 C 0.61935 0.05676 0.85142 0.0
C631 C 0.62141 0.10461 0.80806 0.0
C632 C 0.60895 0.04463 0.88286 0.0
C633 C 0.58321 0.0598 0.89949 0.0
C634 C 0.60445 0.08486 0.83675 0.0
C635 C 0.56663 0.08542 0.88285 0.0
C636 C 0.60729 0.13292 0.79276 0.0
C637 C 0.6747 0.12201 0.77938 0.0
N638 N 0.57811 0.09785 0.85254 0.0
N639 N 0.65418 0.09943 0.80011 0.0
H640 H 0.86834 0.69852 0.81107 0.0
H641 H 0.84371 0.51477 0.90629 0.0
H642 H 0.77865 0.61238 0.78742 0.0
H643 H 0.94662 0.57625 0.88581 0.0
H644 H 0.81901 0.54631 0.86054 0.0
H645 H 0.89748 0.6528 0.83832 0.0
C646 C 0.85489 0.66995 0.8115 0.0
C647 C 0.821 0.65923 0.79728 0.0
C648 C 0.84714 0.55208 0.86553 0.0
C649 C 0.85396 0.60692 0.82845 0.0
C650 C 0.86129 0.53392 0.89151 0.0
C651 C 0.89711 0.54376 0.90054 0.0
C652 C 0.86899 0.5804 0.84903 0.0
C653 C 0.91867 0.56859 0.88033 0.0
C654 C 0.87162 0.6438 0.82672 0.0
C655 C 0.80483 0.62176 0.79819 0.0
N656 N 0.90415 0.58685 0.85612 0.0
N657 N 0.82121 0.597 0.81408 0.0
H658 H 0.2103 0.37191 0.17472 0.0
H659 H 0.01565 0.37974 0.12528 0.0
H660 H 0.12416 0.30841 0.22662 0.0
H661 H 0.10167 0.46857 0.10561 0.0
H662 H 0.053 0.35654 0.16693 0.0
H663 H 0.1702 0.40969 0.15161 0.0
C664 C 0.18294 0.36598 0.1813 0.0
C665 C 0.17042 0.33668 0.2022 0.0
C666 C 0.06339 0.38162 0.15405 0.0
C667 C 0.12435 0.3798 0.17589 0.0
C668 C 0.04203 0.39499 0.13032 0.0
C669 C 0.05589 0.42547 0.1111 0.0
C670 C 0.09884 0.3986 0.15814 0.0
C671 C 0.09009 0.44442 0.11919 0.0
C672 C 0.16011 0.3878 0.1684 0.0
C673 C 0.13482 0.3306 0.21036 0.0
N674 N 0.11071 0.4301 0.14146 0.0
N675 N 0.11285 0.35161 0.19673 0.0
H676 H 0.15075 0.68802 0.88355 0.0
H677 H 0.00261 0.57862 0.93431 0.0
H678 H 0.13442 0.62687 0.78885 0.0
H679 H 0.04863 0.49464 0.88406 0.0
H680 H 0.03512 0.62523 0.8988 0.0
H681 H 0.10004 0.64655 0.90526 0.0
C682 C 0.13644 0.66586 0.8674 0.0
C683 C 0.14667 0.66061 0.83451 0.0
C684 C 0.03709 0.59638 0.89481 0.0
C685 C 0.08874 0.61379 0.85879 0.0
C686 C 0.01793 0.56964 0.91447 0.0
C687 C 0.02285 0.53281 0.91182 0.0
C688 C 0.06124 0.58596 0.87261 0.0
C689 C 0.04425 0.52287 0.88667 0.0
C690 C 0.10725 0.64271 0.87953 0.0
C691 C 0.12717 0.63172 0.81439 0.0
N692 N 0.06323 0.54953 0.86822 0.0
N693 N 0.0994 0.6088 0.82709 0.0
H694 H 0.29752 0.14333 0.82053 0.0
H695 H 0.49055 0.15347 0.88885 0.0
H696 H 0.38173 0.22754 0.78806 0.0
H697 H 0.41402 0.0518 0.88422 0.0
H698 H 0.45386 0.18016 0.84886 0.0
H699 H 0.34096 0.10922 0.84331 0.0
C700 C 0.32517 0.15465 0.81821 0.0
C701 C 0.33603 0.18848 0.80268 0.0
C702 C 0.44556 0.15171 0.85603 0.0
C703 C 0.38596 0.14956 0.82866 0.0
C704 C 0.46661 0.13633 0.87873 0.0
C705 C 0.45488 0.10068 0.89078 0.0
C706 C 0.4125 0.13141 0.84571 0.0
C707 C 0.42379 0.07972 0.87636 0.0
C708 C 0.34998 0.13498 0.83089 0.0
C709 C 0.37224 0.20159 0.79997 0.0
N710 N 0.40324 0.09573 0.8553 0.0
N711 N 0.39596 0.18236 0.81328 0.0
H712 H 0.80661 0.25028 0.85944 0.0
H713 H 0.88245 0.33793 0.00321 0.0
H714 H 0.77036 0.35201 0.83792 0.0
H715 H 0.86881 0.43745 0.95299 0.0
H716 H 0.83715 0.30214 0.96603 0.0
H717 H 0.82748 0.27609 0.91476 0.0
C718 C 0.80241 0.27775 0.86667 0.0
C719 C 0.78765 0.29939 0.84378 0.0
C720 C 0.8439 0.33178 0.96311 0.0
C721 C 0.8106 0.32905 0.90739 0.0
C722 C 0.86947 0.35238 0.98471 0.0
C723 C 0.88042 0.39057 0.98029 0.0
C724 C 0.82965 0.34955 0.93672 0.0
C725 C 0.86188 0.40797 0.95676 0.0
C726 C 0.81403 0.29248 0.8985 0.0
C727 C 0.78254 0.33471 0.85446 0.0
N728 N 0.83796 0.38717 0.93531 0.0
N729 N 0.79449 0.34861 0.88525 0.0
H730 H 0.77252 0.8655 0.85318 0.0
H731 H 0.61002 0.85812 0.97237 0.0
H732 H 0.70149 0.76589 0.87765 0.0
H733 H 0.68067 0.95978 0.9519 0.0
H734 H 0.64975 0.82319 0.94525 0.0
H735 H 0.7469 0.89955 0.89716 0.0
C736 C 0.75252 0.85058 0.86873 0.0
C737 C 0.73899 0.81297 0.86197 0.0
C738 C 0.65684 0.85313 0.94689 0.0
C739 C 0.70901 0.85154 0.9113 0.0
C740 C 0.63401 0.87313 0.96229 0.0
C741 C 0.6417 0.91199 0.96398 0.0
C742 C 0.6875 0.87201 0.93253 0.0
C743 C 0.67353 0.92984 0.95094 0.0
C744 C 0.7376 0.87003 0.89352 0.0
C745 C 0.71256 0.79494 0.8822 0.0
N746 N 0.69504 0.90974 0.93532 0.0
N747 N 0.69815 0.81445 0.90562 0.0
H748 H 0.82819 0.75901 0.14222 0.0
H749 H 0.81798 0.5599 0.05659 0.0
H750 H 0.73452 0.67497 0.14307 0.0
H751 H 0.89839 0.65435 0.03705 0.0
H752 H 0.78498 0.60158 0.08568 0.0
H753 H 0.85225 0.72187 0.10038 0.0
C754 C 0.81242 0.73303 0.13307 0.0
C755 C 0.77943 0.71999 0.14621 0.0
C756 C 0.80967 0.61311 0.07464 0.0
C757 C 0.80716 0.67671 0.09896 0.0
C758 C 0.82857 0.58933 0.05812 0.0
C759 C 0.86131 0.60347 0.04475 0.0
C760 C 0.82376 0.65119 0.07795 0.0
C761 C 0.87356 0.64195 0.04732 0.0
C762 C 0.82617 0.71174 0.10923 0.0
C763 C 0.76005 0.68612 0.13347 0.0
N764 N 0.855 0.66429 0.06386 0.0
N765 N 0.77449 0.66527 0.11097 0.0
H766 H 0.33174 0.90898 0.20284 0.0
H767 H 0.48829 0.93269 0.07587 0.0
H768 H 0.36569 0.82009 0.14719 0.0
H769 H 0.43481 0.02099 0.10533 0.0
H770 H 0.45795 0.89421 0.11903 0.0
H771 H 0.38196 0.95228 0.18225 0.0
C772 C 0.34985 0.89858 0.18649 0.0
C773 C 0.34412 0.86116 0.17595 0.0
C774 C 0.45368 0.92243 0.11677 0.0
C775 C 0.40167 0.91004 0.15314 0.0
C776 C 0.47146 0.94454 0.09255 0.0
C777 C 0.46396 0.97984 0.08732 0.0
C778 C 0.42803 0.9358 0.13532 0.0
C779 C 0.44094 0.99363 0.10867 0.0
C780 C 0.37853 0.92318 0.17496 0.0
C781 C 0.36862 0.84893 0.1552 0.0
N782 N 0.42322 0.97129 0.13147 0.0
N783 N 0.3962 0.87338 0.14427 0.0
H784 H 0.75326 0.22944 0.14177 0.0
H785 H 0.6154 0.17156 0.02829 0.0
H786 H 0.7096 0.12644 0.18678 0.0
H787 H 0.62555 0.06007 0.05297 0.0
H788 H 0.6667 0.19512 0.06474 0.0
H789 H 0.72405 0.20577 0.08799 0.0
C790 C 0.73858 0.20133 0.13989 0.0
C791 C 0.7337 0.17967 0.16842 0.0
C792 C 0.65846 0.16545 0.06126 0.0
C793 C 0.69947 0.15308 0.10796 0.0
C794 C 0.62888 0.15195 0.04064 0.0
C795 C 0.61567 0.1137 0.03789 0.0
C796 C 0.67465 0.14047 0.07947 0.0
C797 C 0.63441 0.08969 0.05444 0.0
C798 C 0.72146 0.1881 0.10947 0.0
C799 C 0.71397 0.14378 0.16515 0.0
N800 N 0.66239 0.10348 0.0751 0.0
N801 N 0.69732 0.13168 0.1355 0.0
H802 H 0.67397 0.60388 0.7665 0.0
H803 H 0.53993 0.57559 0.91654 0.0
H804 H 0.61404 0.68646 0.79772 0.0
H805 H 0.62445 0.51513 0.90262 0.0
H806 H 0.55499 0.60732 0.86399 0.0
H807 H 0.64229 0.56106 0.80583 0.0
C808 C 0.65346 0.6127 0.78087 0.0
C809 C 0.64722 0.64913 0.77934 0.0
C810 C 0.56995 0.58683 0.87239 0.0
C811 C 0.6113 0.60043 0.82475 0.0
C812 C 0.56143 0.56882 0.90238 0.0
C813 C 0.58139 0.54327 0.91436 0.0
C814 C 0.59825 0.5787 0.85408 0.0
C815 C 0.6088 0.53523 0.89476 0.0
C816 C 0.63561 0.58833 0.80357 0.0
C817 C 0.62018 0.65885 0.79854 0.0
N818 N 0.61648 0.55297 0.86572 0.0
N819 N 0.6036 0.63486 0.8209 0.0
H820 H 0.34272 0.71037 0.87861 0.0
H821 H 0.42557 0.53754 0.89777 0.0
H822 H 0.34134 0.64094 0.78954 0.0
H823 H 0.48242 0.6442 0.93363 0.0
H824 H 0.39055 0.56919 0.85967 0.0
H825 H 0.38863 0.68078 0.90354 0.0
C826 C 0.352 0.68871 0.8644 0.0
C827 C 0.3382 0.67786 0.8321 0.0
C828 C 0.41135 0.58546 0.8753 0.0
C829 C 0.39034 0.64382 0.86055 0.0
C830 C 0.43134 0.56752 0.89698 0.0
C831 C 0.45669 0.5883 0.91918 0.0
C832 C 0.41618 0.62427 0.87666 0.0
C833 C 0.4631 0.62706 0.91708 0.0
C834 C 0.37838 0.67218 0.87847 0.0
C835 C 0.35141 0.64997 0.81455 0.0
N836 N 0.44228 0.64383 0.89692 0.0
N837 N 0.37644 0.63332 0.82927 0.0
H838 H 0.31383 0.41123 0.80349 0.0
H839 H 0.43636 0.35777 0.94327 0.0
H840 H 0.38309 0.33324 0.78666 0.0
H841 H 0.42711 0.47313 0.93793 0.0
H842 H 0.40586 0.34595 0.88897 0.0
H843 H 0.34985 0.43612 0.8532 0.0
C844 C 0.33745 0.40043 0.80944 0.0
C845 C 0.34509 0.36955 0.79153 0.0
C846 C 0.41046 0.37384 0.89983 0.0
C847 C 0.38499 0.39667 0.84851 0.0
C848 C 0.4273 0.38055 0.93111 0.0
C849 C 0.43518 0.41677 0.94486 0.0
C850 C 0.4007 0.40331 0.8825 0.0
C851 C 0.42211 0.44493 0.92802 0.0
C852 C 0.35765 0.41435 0.83794 0.0
C853 C 0.37601 0.35672 0.80002 0.0
N854 N 0.40563 0.43768 0.89741 0.0
N855 N 0.39425 0.36953 0.82868 0.0
H856 H 0.62432 0.29783 0.76746 0.0
H857 H 0.66204 0.43294 0.9297 0.0
H858 H 0.70927 0.39215 0.77614 0.0
H859 H 0.57926 0.33649 0.92159 0.0
H860 H 0.67903 0.41936 0.87297 0.0
H861 H 0.60356 0.31584 0.82143 0.0
C862 C 0.63806 0.32296 0.78015 0.0
C863 C 0.66914 0.34297 0.76749 0.0
C864 C 0.6573 0.40104 0.88371 0.0
C865 C 0.64603 0.36308 0.82985 0.0
C866 C 0.64788 0.40844 0.91636 0.0
C867 C 0.61898 0.38597 0.93052 0.0
C868 C 0.63772 0.37096 0.86505 0.0
C869 C 0.6016 0.35475 0.91176 0.0
C870 C 0.62647 0.3329 0.8113 0.0
C871 C 0.68554 0.37546 0.7851 0.0
N872 N 0.61104 0.34838 0.87992 0.0
N873 N 0.67419 0.38408 0.8157 0.0
H874 H 0.61941 0.27297 0.22124 0.0
H875 H 0.62194 0.45063 0.11256 0.0
H876 H 0.69216 0.37604 0.23938 0.0
H877 H 0.54327 0.35118 0.09954 0.0
H878 H 0.64149 0.42756 0.16513 0.0
H879 H 0.58482 0.30452 0.18344 0.0
C880 C 0.62783 0.30238 0.21772 0.0
C881 C 0.65919 0.3217 0.23293 0.0
C882 C 0.61964 0.41095 0.15105 0.0
C883 C 0.61987 0.35789 0.18938 0.0
C884 C 0.60848 0.42409 0.12091 0.0
C885 C 0.58143 0.40242 0.10117 0.0
C886 C 0.60397 0.37565 0.16138 0.0
C887 C 0.56461 0.36856 0.11364 0.0
C888 C 0.60803 0.3204 0.1961 0.0
C889 C 0.66846 0.35989 0.22782 0.0
N890 N 0.57658 0.35591 0.14269 0.0
N891 N 0.64923 0.37658 0.206 0.0
H892 H 0.61468 0.65707 0.21372 0.0
H893 H 0.61051 0.50814 0.08407 0.0
H894 H 0.71453 0.62091 0.22144 0.0
H895 H 0.62518 0.62234 0.05508 0.0
H896 H 0.63851 0.52845 0.13887 0.0
H897 H 0.60093 0.61962 0.16189 0.0
C898 C 0.63301 0.63998 0.20528 0.0
C899 C 0.66583 0.64223 0.2216 0.0
C900 C 0.63679 0.54872 0.11987 0.0
C901 C 0.65063 0.60041 0.16243 0.0
C902 C 0.62111 0.53726 0.08849 0.0
C903 C 0.61458 0.56375 0.06532 0.0
C904 C 0.64583 0.58666 0.12761 0.0
C905 C 0.62889 0.60109 0.0725 0.0
C906 C 0.62536 0.61908 0.17565 0.0
C907 C 0.68887 0.61973 0.20952 0.0
N908 N 0.64281 0.6116 0.10353 0.0
N909 N 0.68122 0.60026 0.17993 0.0
H910 H 0.38094 0.7227 0.20371 0.0
H911 H 0.38101 0.54997 0.07949 0.0
H912 H 0.29757 0.62738 0.19759 0.0
H913 H 0.46535 0.6448 0.08967 0.0
H914 H 0.35287 0.57412 0.12716 0.0
H915 H 0.4168 0.68931 0.16925 0.0
C916 C 0.3709 0.69404 0.19627 0.0
C917 C 0.33665 0.67742 0.20365 0.0
C918 C 0.37759 0.58953 0.11899 0.0
C919 C 0.37635 0.63986 0.16265 0.0
C920 C 0.39349 0.576 0.09151 0.0
C921 C 0.42544 0.59557 0.08026 0.0
C922 C 0.39371 0.62291 0.13527 0.0
C923 C 0.44061 0.62885 0.09722 0.0
C924 C 0.39107 0.67517 0.17614 0.0
C925 C 0.3242 0.64073 0.19274 0.0
N926 N 0.42455 0.64148 0.12376 0.0
N927 N 0.34382 0.62332 0.17213 0.0
H928 H 0.34528 0.39744 0.22903 0.0
H929 H 0.48766 0.38964 0.09118 0.0
H930 H 0.39344 0.30178 0.21311 0.0
H931 H 0.44067 0.48456 0.11503 0.0
H932 H 0.46353 0.36056 0.14274 0.0
H933 H 0.39037 0.43386 0.19591 0.0
C934 C 0.36616 0.38452 0.21936 0.0
C935 C 0.36599 0.34685 0.22386 0.0
C936 C 0.45915 0.38807 0.13696 0.0
C937 C 0.41661 0.38754 0.18427 0.0
C938 C 0.473 0.40462 0.10765 0.0
C939 C 0.46543 0.43909 0.09867 0.0
C940 C 0.43792 0.40643 0.15714 0.0
C941 C 0.44639 0.45752 0.12074 0.0
C942 C 0.39177 0.40512 0.20016 0.0
C943 C 0.39312 0.33101 0.21038 0.0
N944 N 0.43303 0.44084 0.14865 0.0
N945 N 0.417 0.35124 0.19048 0.0
H946 H 0.7563 0.64358 0.63649 0.0
H947 H 0.93275 0.68709 0.53739 0.0
H948 H 0.80958 0.75527 0.61985 0.0
H949 H 0.86264 0.58103 0.53087 0.0
H950 H 0.88717 0.71341 0.5658 0.0
H951 H 0.79314 0.62067 0.59512 0.0
C952 C 0.77523 0.66336 0.62361 0.0
C953 C 0.78003 0.70136 0.63188 0.0
C954 C 0.88171 0.68447 0.55777 0.0
C955 C 0.82298 0.67526 0.58512 0.0
C956 C 0.90778 0.66939 0.5417 0.0
C957 C 0.90176 0.63167 0.53201 0.0
C958 C 0.84957 0.66157 0.56452 0.0
C959 C 0.86871 0.61018 0.53805 0.0
C960 C 0.79637 0.65027 0.60006 0.0
C961 C 0.80496 0.72573 0.61431 0.0
N962 N 0.8441 0.62531 0.55421 0.0
N963 N 0.82598 0.71221 0.59224 0.0
H964 H 0.322 0.8937 0.75012 0.0
H965 H 0.46166 0.9168 0.60671 0.0
H966 H 0.37598 0.80692 0.71643 0.0
H967 H 0.38146 0.98319 0.61838 0.0
H968 H 0.44555 0.88765 0.6598 0.0
H969 H 0.35934 0.9372 0.71544 0.0
C970 C 0.34208 0.88387 0.73587 0.0
C971 C 0.34515 0.84631 0.73531 0.0
C972 C 0.43201 0.90916 0.65103 0.0
C973 C 0.38786 0.89603 0.69575 0.0
C974 C 0.44132 0.9259 0.6208 0.0
C975 C 0.4225 0.95189 0.60787 0.0
C976 C 0.40383 0.91878 0.66839 0.0
C977 C 0.39614 0.96262 0.62716 0.0
C978 C 0.36339 0.90877 0.71615 0.0
C979 C 0.37217 0.83543 0.71699 0.0
N980 N 0.38729 0.9457 0.65632 0.0
N981 N 0.39215 0.86009 0.69739 0.0
H982 H 0.20661 0.40468 0.72746 0.0
H983 H 0.03982 0.41787 0.61044 0.0
H984 H 0.13201 0.31192 0.68548 0.0
H985 H 0.13568 0.49915 0.60977 0.0
H986 H 0.06395 0.38864 0.65756 0.0
H987 H 0.1721 0.44713 0.70127 0.0
C988 C 0.18277 0.39333 0.71309 0.0
C989 C 0.17234 0.35488 0.70799 0.0
C990 C 0.07932 0.41342 0.64757 0.0
C991 C 0.13261 0.40281 0.67926 0.0
C992 C 0.06554 0.43028 0.62076 0.0
C993 C 0.08628 0.46021 0.60533 0.0
C994 C 0.11399 0.42658 0.65897 0.0
C995 C 0.11912 0.47552 0.62036 0.0
C996 C 0.16316 0.41747 0.69835 0.0
C997 C 0.14126 0.34142 0.68941 0.0
N998 N 0.13241 0.45793 0.64595 0.0
N999 N 0.12251 0.36538 0.67565 0.0
H1000 H 0.65069 0.24555 0.60253 0.0
H1001 H 0.5641 0.12055 0.48535 0.0
H1002 H 0.72592 0.1725 0.61097 0.0
H1003 H 0.582 0.04776 0.56488 0.0
H1004 H 0.6156 0.16504 0.50556 0.0
H1005 H 0.61574 0.20109 0.56231 0.0
C1006 C 0.66027 0.22066 0.59515 0.0
C1007 C 0.69121 0.21269 0.6097 0.0
C1008 C 0.60867 0.13891 0.51799 0.0
C1009 C 0.65121 0.16159 0.56494 0.0
C1010 C 0.57942 0.11349 0.50658 0.0
C1011 C 0.5682 0.08104 0.52428 0.0
C1012 C 0.62692 0.13161 0.54706 0.0
C1013 C 0.58951 0.07277 0.55095 0.0
C1014 C 0.64047 0.19541 0.57227 0.0
C1015 C 0.70235 0.17976 0.59984 0.0
N1016 N 0.61769 0.09842 0.56206 0.0
N1017 N 0.68177 0.15476 0.57874 0.0
H1018 H 0.77426 0.3842 0.3658 0.0
H1019 H 0.93286 0.38626 0.49534 0.0
H1020 H 0.79272 0.28927 0.4208 0.0
H1021 H 0.91816 0.4801 0.43694 0.0
H1022 H 0.87364 0.35529 0.47879 0.0
H1023 H 0.81707 0.42405 0.40278 0.0
C1024 C 0.78658 0.37178 0.38622 0.0
C1025 C 0.78069 0.33311 0.3895 0.0
C1026 C 0.88313 0.38283 0.46987 0.0
C1027 C 0.83013 0.37863 0.43157 0.0
C1028 C 0.91708 0.40048 0.47915 0.0
C1029 C 0.93082 0.43544 0.46676 0.0
C1030 C 0.8628 0.39999 0.44768 0.0
C1031 C 0.9088 0.45292 0.44665 0.0
C1032 C 0.81119 0.39461 0.40724 0.0
C1033 C 0.79693 0.3188 0.41683 0.0
N1034 N 0.87605 0.4347 0.43722 0.0
N1035 N 0.82154 0.34147 0.43633 0.0
H1036 H 0.73212 0.80068 0.39778 0.0
H1037 H 0.63195 0.91094 0.47481 0.0
H1038 H 0.63348 0.74131 0.35621 0.0
H1039 H 0.54527 0.81853 0.46496 0.0
H1040 H 0.66938 0.87324 0.44798 0.0
H1041 H 0.70077 0.82754 0.4416 0.0
C1042 C 0.70382 0.79253 0.39861 0.0
C1043 C 0.6852 0.7688 0.37364 0.0
C1044 C 0.64248 0.86069 0.45248 0.0
C1045 C 0.64895 0.80152 0.42185 0.0
C1046 C 0.62088 0.88253 0.46741 0.0
C1047 C 0.58532 0.86804 0.47201 0.0
C1048 C 0.62846 0.82398 0.44195 0.0
C1049 C 0.57251 0.83095 0.46187 0.0
C1050 C 0.68585 0.8085 0.42311 0.0
C1051 C 0.64864 0.7593 0.37535 0.0
N1052 N 0.59395 0.81038 0.44692 0.0
N1053 N 0.63155 0.77623 0.39877 0.0
H1054 H 0.11462 0.68051 0.25964 0.0
H1055 H 0.12078 0.52606 0.39342 0.0
H1056 H 0.19787 0.61775 0.27235 0.0
H1057 H 0.04513 0.59909 0.39392 0.0
H1058 H 0.13798 0.54652 0.33786 0.0
H1059 H 0.07835 0.63823 0.29671 0.0
C1060 C 0.12482 0.65715 0.26941 0.0
C1061 C 0.15951 0.65297 0.26376 0.0
C1062 C 0.11737 0.55791 0.34988 0.0
C1063 C 0.11853 0.60503 0.30597 0.0
C1064 C 0.10773 0.54645 0.3817 0.0
C1065 C 0.08234 0.5619 0.39858 0.0
C1066 C 0.1021 0.58569 0.33509 0.0
C1067 C 0.06533 0.58714 0.38188 0.0
C1068 C 0.10421 0.63321 0.29067 0.0
C1069 C 0.17151 0.62233 0.2768 0.0
N1070 N 0.0761 0.59897 0.35118 0.0
N1071 N 0.15121 0.59982 0.29773 0.0
H1072 H 0.37192 0.20188 0.3141 0.0
H1073 H 0.45376 0.0707 0.38107 0.0
H1074 H 0.28534 0.11396 0.28548 0.0
H1075 H 0.34777 0.01923 0.4029 0.0
H1076 H 0.43069 0.10408 0.33592 0.0
H1077 H 0.40246 0.15621 0.33941 0.0
C1078 C 0.35953 0.17291 0.31286 0.0
C1079 C 0.32605 0.16168 0.29786 0.0
C1080 C 0.41257 0.08507 0.35032 0.0
C1081 C 0.36096 0.1092 0.3262 0.0
C1082 C 0.42568 0.06565 0.3758 0.0
C1083 C 0.40252 0.04322 0.39655 0.0
C1084 C 0.37612 0.08204 0.34574 0.0
C1085 C 0.3665 0.03689 0.38798 0.0
C1086 C 0.37718 0.14676 0.32682 0.0
C1087 C 0.3112 0.12374 0.29681 0.0
N1088 N 0.35425 0.05696 0.36361 0.0
N1089 N 0.32848 0.09889 0.31141 0.0
H1090 H 0.70651 0.86936 0.67249 0.0
H1091 H 0.59253 0.97486 0.61445 0.0
H1092 H 0.6212 0.80793 0.72695 0.0
H1093 H 0.51632 0.87416 0.62348 0.0
H1094 H 0.63059 0.95236 0.65577 0.0
H1095 H 0.66682 0.90831 0.65093 0.0
C1096 C 0.67947 0.86429 0.68014 0.0
C1097 C 0.66705 0.8352 0.70129 0.0
C1098 C 0.60539 0.93536 0.64888 0.0
C1099 C 0.62158 0.88028 0.67739 0.0
C1100 C 0.5834 0.94836 0.62561 0.0
C1101 C 0.55185 0.9256 0.61437 0.0
C1102 C 0.59575 0.89937 0.66073 0.0
C1103 C 0.54094 0.89211 0.63059 0.0
C1104 C 0.65693 0.88699 0.66831 0.0
C1105 C 0.6318 0.83005 0.7106 0.0
N1106 N 0.5633 0.87954 0.65245 0.0
N1107 N 0.61008 0.85197 0.69806 0.0
H1108 H 0.63695 0.12752 0.28476 0.0
H1109 H 0.54801 0.98853 0.38495 0.0
H1110 H 0.65448 0.18018 0.3833 0.0
H1111 H 0.51173 0.07934 0.43484 0.0
H1112 H 0.58155 0.03252 0.34733 0.0
H1113 H 0.58751 0.08364 0.30603 0.0
C1114 C 0.63029 0.12987 0.31085 0.0
C1115 C 0.64996 0.1571 0.33255 0.0
C1116 C 0.56501 0.04256 0.36556 0.0
C1117 C 0.59343 0.10789 0.35645 0.0
C1118 C 0.54578 0.01752 0.38679 0.0
C1119 C 0.52684 0.0305 0.41249 0.0
C1120 C 0.56604 0.08066 0.37113 0.0
C1121 C 0.52549 0.06835 0.41479 0.0
C1122 C 0.60219 0.10493 0.32281 0.0
C1123 C 0.64027 0.15917 0.36599 0.0
N1124 N 0.54587 0.0924 0.39504 0.0
N1125 N 0.61244 0.13489 0.37694 0.0
H1126 H 0.79792 0.64149 0.32058 0.0
H1127 H 0.99093 0.6538 0.38832 0.0
H1128 H 0.88055 0.72929 0.29131 0.0
H1129 H 0.91559 0.55128 0.38209 0.0
H1130 H 0.95429 0.68043 0.34832 0.0
H1131 H 0.8422 0.6073 0.34112 0.0
C1132 C 0.82543 0.65359 0.31851 0.0
C1133 C 0.83558 0.68848 0.30463 0.0
C1134 C 0.94626 0.65181 0.3551 0.0
C1135 C 0.88652 0.64941 0.32804 0.0
C1136 C 0.96729 0.63645 0.37782 0.0
C1137 C 0.95574 0.60063 0.38955 0.0
C1138 C 0.91345 0.63125 0.34441 0.0
C1139 C 0.92512 0.57937 0.37456 0.0
C1140 C 0.85073 0.63386 0.32988 0.0
C1141 C 0.87163 0.70254 0.30205 0.0
N1142 N 0.90456 0.59534 0.35349 0.0
N1143 N 0.89586 0.6832 0.31415 0.0
H1144 H 0.29939 0.75263 0.35915 0.0
H1145 H 0.36531 0.94106 0.45926 0.0
H1146 H 0.27013 0.85694 0.33387 0.0
H1147 H 0.38725 0.8357 0.49104 0.0
H1148 H 0.31897 0.90835 0.42138 0.0
H1149 H 0.32114 0.77959 0.4142 0.0
C1150 C 0.29713 0.78099 0.36532 0.0
C1151 C 0.28396 0.80291 0.34155 0.0
C1152 C 0.33344 0.89232 0.43713 0.0
C1153 C 0.30862 0.83388 0.40427 0.0
C1154 C 0.35989 0.91108 0.45892 0.0
C1155 C 0.3811 0.89119 0.47747 0.0
C1156 C 0.32858 0.85348 0.43361 0.0
C1157 C 0.37227 0.85227 0.47644 0.0
C1158 C 0.30943 0.79637 0.39677 0.0
C1159 C 0.2811 0.83933 0.35105 0.0
N1160 N 0.34728 0.83468 0.45417 0.0
N1161 N 0.29383 0.85381 0.38144 0.0
H1162 H 0.20773 0.26734 0.38178 0.0
H1163 H 0.18396 0.46555 0.45378 0.0
H1164 H 0.27265 0.36928 0.35342 0.0
H1165 H 0.11333 0.36255 0.46986 0.0
H1166 H 0.22434 0.43061 0.42672 0.0
H1167 H 0.18229 0.30128 0.42517 0.0
C1168 C 0.21745 0.29681 0.38557 0.0
C1169 C 0.24235 0.31563 0.36428 0.0
C1170 C 0.20018 0.4157 0.43654 0.0
C1171 C 0.21223 0.35505 0.41275 0.0
C1172 C 0.17708 0.4356 0.45198 0.0
C1173 C 0.1449 0.417 0.4637 0.0
C1174 C 0.19113 0.37694 0.43299 0.0
C1175 C 0.13753 0.37816 0.46078 0.0
C1176 C 0.20265 0.31628 0.41006 0.0
C1177 C 0.25375 0.35384 0.36971 0.0
N1178 N 0.16031 0.35953 0.44556 0.0
N1179 N 0.23808 0.37253 0.39308 0.0
H1180 H 0.33043 0.2598 0.63613 0.0
H1181 H 0.31831 0.06102 0.5506 0.0
H1182 H 0.23638 0.17649 0.63807 0.0
H1183 H 0.39803 0.15536 0.52911 0.0
H1184 H 0.2854 0.10296 0.5794 0.0
H1185 H 0.35318 0.22293 0.5932 0.0
C1186 C 0.3143 0.23402 0.627 0.0
C1187 C 0.28161 0.22106 0.64075 0.0
C1188 C 0.30987 0.11442 0.56794 0.0
C1189 C 0.30783 0.17809 0.59223 0.0
C1190 C 0.32872 0.0905 0.55158 0.0
C1191 C 0.36134 0.10454 0.5379 0.0
C1192 C 0.32391 0.15253 0.57081 0.0
C1193 C 0.37335 0.14306 0.53972 0.0
C1194 C 0.32728 0.2129 0.60251 0.0
C1195 C 0.26169 0.1875 0.628 0.0
N1196 N 0.35488 0.16554 0.5562 0.0
N1197 N 0.27542 0.16674 0.60487 0.0
H1198 H 0.83491 0.40868 0.70466 0.0
H1199 H 0.98916 0.43342 0.57478 0.0
H1200 H 0.86558 0.3205 0.64533 0.0
H1201 H 0.93525 0.52122 0.60476 0.0
H1202 H 0.9589 0.39453 0.6178 0.0
H1203 H 0.8847 0.45198 0.68322 0.0
C1204 C 0.85222 0.39843 0.68731 0.0
C1205 C 0.8457 0.36124 0.67604 0.0
C1206 C 0.95453 0.42273 0.61566 0.0
C1207 C 0.90279 0.41005 0.65235 0.0
C1208 C 0.97223 0.44505 0.59153 0.0
C1209 C 0.96457 0.48033 0.58649 0.0
C1210 C 0.92892 0.43593 0.6344 0.0
C1211 C 0.94151 0.4939 0.60796 0.0
C1212 C 0.88065 0.42302 0.67531 0.0
C1213 C 0.86915 0.34918 0.65397 0.0
N1214 N 0.92396 0.47139 0.63074 0.0
N1215 N 0.89656 0.3736 0.64268 0.0
H1216 H 0.23176 0.63018 0.67962 0.0
H1217 H 0.11219 0.67486 0.5287 0.0
H1218 H 0.22805 0.7408 0.6481 0.0
H1219 H 0.12637 0.56423 0.55208 0.0
H1220 H 0.16324 0.69978 0.56492 0.0
H1221 H 0.20297 0.60549 0.62617 0.0
C1222 C 0.22608 0.64923 0.66079 0.0
C1223 C 0.23236 0.68742 0.66783 0.0
C1224 C 0.15557 0.67 0.56165 0.0
C1225 C 0.19823 0.65972 0.60757 0.0
C1226 C 0.12632 0.65573 0.54096 0.0
C1227 C 0.11438 0.61729 0.53783 0.0
C1228 C 0.17273 0.64568 0.57971 0.0
C1229 C 0.13416 0.59396 0.55402 0.0
C1230 C 0.20938 0.63524 0.63043 0.0
C1231 C 0.2238 0.71113 0.64321 0.0
N1232 N 0.16191 0.60849 0.57473 0.0
N1233 N 0.2066 0.69689 0.61436 0.0
loop_
_geom_bond_atom_site_label_1
_geom_bond_atom_site_label_2
_geom_bond_distance
_geom_bond_site_symmetry_2
_ccdc_geom_bond_type
O0 Zn1 1.953 . S
O0 C16 1.225 . S
Zn1 O0 1.953 . S
Zn1 O2 1.949 . S
Zn1 O8 1.919 . S
Zn1 O13 1.924 . S
O2 Zn1 1.949 . S
O2 Zn3 1.923 . S
O2 Zn4 1.950 . S
O2 Zn5 1.945 . S
Zn3 O2 1.923 . S
Zn3 O6 1.933 . S
Zn3 O9 1.941 . S
Zn3 O10 1.965 . S
Zn4 O2 1.950 . S
Zn4 O11 1.938 . S
Zn4 O12 1.906 . S
Zn4 O22 1.953 . S
Zn5 O2 1.945 . S
Zn5 O7 1.932 . S
Zn5 O14 1.977 . S
Zn5 O15 1.910 . S
O6 Zn3 1.933 . S
O6 C17 1.226 . S
O7 Zn5 1.932 . S
O7 C17 1.307 . S
O8 Zn1 1.919 . S
O8 C19 1.253 . S
O9 Zn3 1.941 . S
O9 C19 1.283 . S
O10 Zn3 1.965 . S
O10 C18 1.303 . S
O11 Zn4 1.938 . S
O11 C18 1.247 . S
O12 Zn4 1.906 . S
O12 C20 1.304 . S
O13 Zn1 1.924 . S
O13 C21 1.311 . S
O14 Zn5 1.977 . S
O14 C20 1.272 . S
O15 Zn5 1.910 . S
O15 C21 1.231 . S
C16 O0 1.225 . S
C16 O22 1.298 . S
C17 O6 1.226 . S
C17 O7 1.307 . S
C18 O10 1.303 . S
C18 O11 1.247 . S
C19 O8 1.253 . S
C19 O9 1.283 . S
C20 O12 1.304 . S
C20 O14 1.272 . S
C21 O13 1.311 . S
C21 O15 1.231 . S
O22 Zn4 1.953 . S
O22 C16 1.298 . S
O23 Zn24 1.953 . S
O23 C39 1.225 . S
Zn24 O23 1.953 . S
Zn24 O25 1.949 . S
Zn24 O31 1.919 . S
Zn24 O36 1.924 . S
O25 Zn24 1.949 . S
O25 Zn26 1.923 . S
O25 Zn27 1.950 . S
O25 Zn28 1.945 . S
Zn26 O25 1.923 . S
Zn26 O29 1.933 . S
Zn26 O32 1.941 . S
Zn26 O33 1.965 . S
Zn27 O25 1.950 . S
Zn27 O34 1.938 . S
Zn27 O35 1.906 . S
Zn27 O45 1.953 . S
Zn28 O25 1.945 . S
Zn28 O30 1.932 . S
Zn28 O37 1.977 . S
Zn28 O38 1.910 . S
O29 Zn26 1.933 . S
O29 C40 1.226 . S
O30 Zn28 1.932 . S
O30 C40 1.307 . S
O31 Zn24 1.919 . S
O31 C42 1.253 . S
O32 Zn26 1.941 . S
O32 C42 1.283 . S
O33 Zn26 1.965 . S
O33 C41 1.303 . S
O34 Zn27 1.938 . S
O34 C41 1.247 . S
O35 Zn27 1.906 . S
O35 C43 1.304 . S
O36 Zn24 1.924 . S
O36 C44 1.311 . S
O37 Zn28 1.977 . S
O37 C43 1.272 . S
O38 Zn28 1.910 . S
O38 C44 1.231 . S
C39 O23 1.225 . S
C39 O45 1.298 . S
C40 O29 1.226 . S
C40 O30 1.307 . S
C41 O33 1.303 . S
C41 O34 1.247 . S
C42 O31 1.253 . S
C42 O32 1.283 . S
C43 O35 1.304 . S
C43 O37 1.272 . S
C44 O36 1.311 . S
C44 O38 1.231 . S
O45 Zn27 1.953 . S
O45 C39 1.298 . S
O46 Zn47 1.953 . S
O46 C62 1.225 . S
Zn47 O46 1.953 . S
Zn47 O48 1.949 . S
Zn47 O54 1.919 . S
Zn47 O59 1.924 . S
O48 Zn47 1.949 . S
O48 Zn49 1.923 . S
O48 Zn50 1.950 . S
O48 Zn51 1.945 . S
Zn49 O48 1.923 . S
Zn49 O52 1.933 . S
Zn49 O55 1.941 . S
Zn49 O56 1.965 . S
Zn50 O48 1.950 . S
Zn50 O57 1.938 . S
Zn50 O58 1.906 . S
Zn50 O68 1.953 . S
Zn51 O48 1.945 . S
Zn51 O53 1.932 . S
Zn51 O60 1.977 . S
Zn51 O61 1.910 . S
O52 Zn49 1.933 . S
O52 C63 1.226 . S
O53 Zn51 1.932 . S
O53 C63 1.307 . S
O54 Zn47 1.919 . S
O54 C65 1.253 . S
O55 Zn49 1.941 . S
O55 C65 1.283 . S
O56 Zn49 1.965 . S
O56 C64 1.303 . S
O57 Zn50 1.938 . S
O57 C64 1.247 . S
O58 Zn50 1.906 . S
O58 C66 1.304 . S
O59 Zn47 1.924 . S
O59 C67 1.311 . S
O60 Zn51 1.977 . S
O60 C66 1.272 . S
O61 Zn51 1.910 . S
O61 C67 1.231 . S
C62 O46 1.225 . S
C62 O68 1.298 . S
C63 O52 1.226 . S
C63 O53 1.307 . S
C64 O56 1.303 . S
C64 O57 1.247 . S
C65 O54 1.253 . S
C65 O55 1.283 . S
C66 O58 1.304 . S
C66 O60 1.272 . S
C67 O59 1.311 . S
C67 O61 1.231 . S
O68 Zn50 1.953 . S
O68 C62 1.298 . S
O69 Zn70 1.953 . S
O69 C85 1.225 . S
Zn70 O69 1.953 . S
Zn70 O71 1.949 . S
Zn70 O77 1.919 . S
Zn70 O82 1.924 . S
O71 Zn70 1.949 . S
O71 Zn72 1.923 . S
O71 Zn73 1.950 . S
O71 Zn74 1.945 . S
Zn72 O71 1.923 . S
Zn72 O75 1.933 . S
Zn72 O78 1.941 . S
Zn72 O79 1.965 . S
Zn73 O71 1.950 . S
Zn73 O80 1.938 . S
Zn73 O81 1.906 . S
Zn73 O91 1.953 . S
Zn74 O71 1.945 . S
Zn74 O76 1.932 . S
Zn74 O83 1.977 . S
Zn74 O84 1.910 . S
O75 Zn72 1.933 . S
O75 C86 1.226 . S
O76 Zn74 1.932 . S
O76 C86 1.307 . S
O77 Zn70 1.919 . S
O77 C88 1.253 . S
O78 Zn72 1.941 . S
O78 C88 1.283 . S
O79 Zn72 1.965 . S
O79 C87 1.303 . S
O80 Zn73 1.938 . S
O80 C87 1.247 . S
O81 Zn73 1.906 . S
O81 C89 1.304 . S
O82 Zn70 1.924 . S
O82 C90 1.311 . S
O83 Zn74 1.977 . S
O83 C89 1.272 . S
O84 Zn74 1.910 . S
O84 C90 1.231 . S
C85 O69 1.225 . S
C85 O91 1.298 . S
C86 O75 1.226 . S
C86 O76 1.307 . S
C87 O79 1.303 . S
C87 O80 1.247 . S
C88 O77 1.253 . S
C88 O78 1.283 . S
C89 O81 1.304 . S
C89 O83 1.272 . S
C90 O82 1.311 . S
C90 O84 1.231 . S
O91 Zn73 1.953 . S
O91 C85 1.298 . S
O92 Zn93 1.953 . S
O92 C108 1.225 . S
Zn93 O92 1.953 . S
Zn93 O94 1.949 . S
Zn93 O100 1.919 . S
Zn93 O105 1.924 . S
O94 Zn93 1.949 . S
O94 Zn95 1.923 . S
O94 Zn96 1.950 . S
O94 Zn97 1.945 . S
Zn95 O94 1.923 . S
Zn95 O98 1.933 . S
Zn95 O101 1.941 . S
Zn95 O102 1.965 . S
Zn96 O94 1.950 . S
Zn96 O103 1.938 . S
Zn96 O104 1.906 . S
Zn96 O114 1.953 . S
Zn97 O94 1.945 . S
Zn97 O99 1.932 . S
Zn97 O106 1.977 . S
Zn97 O107 1.910 . S
O98 Zn95 1.933 . S
O98 C109 1.226 . S
O99 Zn97 1.932 . S
O99 C109 1.307 . S
O100 Zn93 1.919 . S
O100 C111 1.253 . S
O101 Zn95 1.941 . S
O101 C111 1.283 . S
O102 Zn95 1.965 . S
O102 C110 1.303 . S
O103 Zn96 1.938 . S
O103 C110 1.247 . S
O104 Zn96 1.906 . S
O104 C112 1.304 . S
O105 Zn93 1.924 . S
O105 C113 1.311 . S
O106 Zn97 1.977 . S
O106 C112 1.272 . S
O107 Zn97 1.910 . S
O107 C113 1.231 . S
C108 O92 1.225 . S
C108 O114 1.298 . S
C109 O98 1.226 . S
C109 O99 1.307 . S
C110 O102 1.303 . S
C110 O103 1.247 . S
C111 O100 1.253 . S
C111 O101 1.283 . S
C112 O104 1.304 . S
C112 O106 1.272 . S
C113 O105 1.311 . S
C113 O107 1.231 . S
O114 Zn96 1.953 . S
O114 C108 1.298 . S
O115 Zn116 1.953 . S
O115 C131 1.225 . S
Zn116 O115 1.953 . S
Zn116 O117 1.949 . S
Zn116 O123 1.919 . S
Zn116 O128 1.924 . S
O117 Zn116 1.949 . S
O117 Zn118 1.923 . S
O117 Zn119 1.950 . S
O117 Zn120 1.945 . S
Zn118 O117 1.923 . S
Zn118 O121 1.933 . S
Zn118 O124 1.941 . S
Zn118 O125 1.965 . S
Zn119 O117 1.950 . S
Zn119 O126 1.938 . S
Zn119 O127 1.906 . S
Zn119 O137 1.953 . S
Zn120 O117 1.945 . S
Zn120 O122 1.932 . S
Zn120 O129 1.977 . S
Zn120 O130 1.910 . S
O121 Zn118 1.933 . S
O121 C132 1.226 . S
O122 Zn120 1.932 . S
O122 C132 1.307 . S
O123 Zn116 1.919 . S
O123 C134 1.253 . S
O124 Zn118 1.941 . S
O124 C134 1.283 . S
O125 Zn118 1.965 . S
O125 C133 1.303 . S
O126 Zn119 1.938 . S
O126 C133 1.247 . S
O127 Zn119 1.906 . S
O127 C135 1.304 . S
O128 Zn116 1.924 . S
O128 C136 1.311 . S
O129 Zn120 1.977 . S
O129 C135 1.272 . S
O130 Zn120 1.910 . S
O130 C136 1.231 . S
C131 O115 1.225 . S
C131 O137 1.298 . S
C132 O121 1.226 . S
C132 O122 1.307 . S
C133 O125 1.303 . S
C133 O126 1.247 . S
C134 O123 1.253 . S
C134 O124 1.283 . S
C135 O127 1.304 . S
C135 O129 1.272 . S
C136 O128 1.311 . S
C136 O130 1.231 . S
O137 Zn119 1.953 . S
O137 C131 1.298 . S
O138 Zn139 1.953 . S
O138 C154 1.225 . S
Zn139 O138 1.953 . S
Zn139 O140 1.949 . S
Zn139 O146 1.919 . S
Zn139 O151 1.924 . S
O140 Zn139 1.949 . S
O140 Zn141 1.923 . S
O140 Zn142 1.950 . S
O140 Zn143 1.945 . S
Zn141 O140 1.923 . S
Zn141 O144 1.933 . S
Zn141 O147 1.941 . S
Zn141 O148 1.965 . S
Zn142 O140 1.950 . S
Zn142 O149 1.938 . S
Zn142 O150 1.906 . S
Zn142 O160 1.953 . S
Zn143 O140 1.945 . S
Zn143 O145 1.932 . S
Zn143 O152 1.977 . S
Zn143 O153 1.910 . S
O144 Zn141 1.933 . S
O144 C155 1.226 . S
O145 Zn143 1.932 . S
O145 C155 1.307 . S
O146 Zn139 1.919 . S
O146 C157 1.253 . S
O147 Zn141 1.941 . S
O147 C157 1.283 . S
O148 Zn141 1.965 . S
O148 C156 1.303 . S
O149 Zn142 1.938 . S
O149 C156 1.247 . S
O150 Zn142 1.906 . S
O150 C158 1.304 . S
O151 Zn139 1.924 . S
O151 C159 1.311 . S
O152 Zn143 1.977 . S
O152 C158 1.272 . S
O153 Zn143 1.910 . S
O153 C159 1.231 . S
C154 O138 1.225 . S
C154 O160 1.298 . S
C155 O144 1.226 . S
C155 O145 1.307 . S
C156 O148 1.303 . S
C156 O149 1.247 . S
C157 O146 1.253 . S
C157 O147 1.283 . S
C158 O150 1.304 . S
C158 O152 1.272 . S
C159 O151 1.311 . S
C159 O153 1.231 . S
O160 Zn142 1.953 . S
O160 C154 1.298 . S
O161 Zn162 1.953 . S
O161 C177 1.225 . S
Zn162 O161 1.953 . S
Zn162 O163 1.949 . S
Zn162 O169 1.919 . S
Zn162 O174 1.924 . S
O163 Zn162 1.949 . S
O163 Zn164 1.923 . S
O163 Zn165 1.950 . S
O163 Zn166 1.945 . S
Zn164 O163 1.923 . S
Zn164 O167 1.933 . S
Zn164 O170 1.941 . S
Zn164 O171 1.965 . S
Zn165 O163 1.950 . S
Zn165 O172 1.938 . S
Zn165 O173 1.906 . S
Zn165 O183 1.953 . S
Zn166 O163 1.945 . S
Zn166 O168 1.932 . S
Zn166 O175 1.977 . S
Zn166 O176 1.910 . S
O167 Zn164 1.933 . S
O167 C178 1.226 . S
O168 Zn166 1.932 . S
O168 C178 1.307 . S
O169 Zn162 1.919 . S
O169 C180 1.253 . S
O170 Zn164 1.941 . S
O170 C180 1.283 . S
O171 Zn164 1.965 . S
O171 C179 1.303 . S
O172 Zn165 1.938 . S
O172 C179 1.247 . S
O173 Zn165 1.906 . S
O173 C181 1.304 . S
O174 Zn162 1.924 . S
O174 C182 1.311 . S
O175 Zn166 1.977 . S
O175 C181 1.272 . S
O176 Zn166 1.910 . S
O176 C182 1.231 . S
C177 O161 1.225 . S
C177 O183 1.298 . S
C178 O167 1.226 . S
C178 O168 1.307 . S
C179 O171 1.303 . S
C179 O172 1.247 . S
C180 O169 1.253 . S
C180 O170 1.283 . S
C181 O173 1.304 . S
C181 O175 1.272 . S
C182 O174 1.311 . S
C182 O176 1.231 . S
O183 Zn165 1.953 . S
O183 C177 1.298 . S
C184 O196 1.241 . S
C184 O197 1.280 . S
C185 O198 1.277 . S
C185 O199 1.245 . S
C186 O210 1.247 . S
C186 O212 1.289 . S
Mg187 O188 1.926 . S
Mg187 O197 1.984 . S
Mg187 O199 1.988 . S
Mg187 O200 2.061 1_655 S
O188 Mg187 1.926 . S
O188 Mg189 1.986 . S
O188 Mg190 1.917 1_655 S
Mg189 O188 1.986 . S
Mg189 O196 2.042 . S
Mg189 O198 2.041 . S
Mg189 O204 2.038 1_545 S
Mg189 O212 2.238 1_545 S
Mg190 O188 1.917 1_455 S
Mg190 O191 1.917 1_545 S
Mg190 O201 2.106 . S
Mg190 O203 2.079 1_445 S
Mg190 O212 2.106 1_445 S
Mg190 O213 2.079 . S
O191 Mg190 1.917 1_565 S
O191 Mg192 1.926 . S
O191 Mg193 1.986 . S
Mg192 O191 1.926 . S
Mg192 O206 1.984 . S
Mg192 O209 1.988 . S
Mg192 O210 2.061 1_455 S
Mg193 O191 1.986 . S
Mg193 O201 2.238 1_565 S
Mg193 O205 2.042 . S
Mg193 O207 2.040 . S
Mg193 O214 2.039 1_565 S
C194 O200 1.247 . S
C194 O201 1.289 . S
C195 O213 1.245 . S
C195 O214 1.274 . S
O196 C184 1.241 . S
O196 Mg189 2.042 . S
O197 C184 1.280 . S
O197 Mg187 1.984 . S
O198 C185 1.277 . S
O198 Mg189 2.041 . S
O199 C185 1.245 . S
O199 Mg187 1.988 . S
O200 Mg187 2.061 1_455 S
O200 C194 1.247 . S
O201 Mg190 2.106 . S
O201 Mg193 2.238 1_545 S
O201 C194 1.289 . S
C202 O203 1.245 . S
C202 O204 1.274 . S
O203 Mg190 2.079 1_665 S
O203 C202 1.245 . S
O204 Mg189 2.038 1_565 S
O204 C202 1.274 . S
O205 Mg193 2.042 . S
O205 C208 1.241 . S
O206 Mg192 1.984 . S
O206 C208 1.280 . S
O207 Mg193 2.040 . S
O207 C211 1.277 . S
C208 O205 1.241 . S
C208 O206 1.280 . S
O209 Mg192 1.988 . S
O209 C211 1.245 . S
O210 C186 1.247 . S
O210 Mg192 2.061 1_655 S
C211 O207 1.277 . S
C211 O209 1.245 . S
O212 C186 1.289 . S
O212 Mg189 2.238 1_565 S
O212 Mg190 2.106 1_665 S
O213 Mg190 2.079 . S
O213 C195 1.245 . S
O214 Mg193 2.039 1_545 S
O214 C195 1.274 . S
C215 O227 1.241 . S
C215 O228 1.280 . S
C216 O229 1.277 . S
C216 O230 1.245 . S
C217 O241 1.247 . S
C217 O243 1.289 . S
Mg218 O219 1.926 . S
Mg218 O228 1.984 . S
Mg218 O230 1.988 1_554 S
Mg218 O231 2.061 . S
O219 Mg218 1.926 . S
O219 Mg220 1.986 . S
O219 Mg221 1.917 . S
Mg220 O219 1.986 . S
Mg220 O227 2.042 . S
Mg220 O229 2.041 1_554 S
Mg220 O235 2.038 1_545 S
Mg220 O243 2.238 1_544 S
Mg221 O219 1.917 . S
Mg221 O222 1.917 1_545 S
Mg221 O232 2.106 . S
Mg221 O234 2.079 1_545 S
Mg221 O243 2.106 1_544 S
Mg221 O244 2.079 1_554 S
O222 Mg221 1.917 1_565 S
O222 Mg223 1.926 1_554 S
O222 Mg224 1.986 . S
Mg223 O222 1.926 1_556 S
Mg223 O237 1.984 . S
Mg223 O240 1.988 1_556 S
Mg223 O241 2.061 . S
Mg224 O222 1.986 . S
Mg224 O232 2.238 1_565 S
Mg224 O236 2.042 1_554 S
Mg224 O238 2.041 . S
Mg224 O245 2.038 1_564 S
C225 O231 1.247 . S
C225 O232 1.289 . S
C226 O244 1.245 . S
C226 O245 1.274 . S
O227 C215 1.241 . S
O227 Mg220 2.042 . S
O228 C215 1.280 . S
O228 Mg218 1.984 . S
O229 C216 1.277 . S
O229 Mg220 2.041 1_556 S
O230 C216 1.245 . S
O230 Mg218 1.988 1_556 S
O231 Mg218 2.061 . S
O231 C225 1.247 . S
O232 Mg221 2.106 . S
O232 Mg224 2.238 1_545 S
O232 C225 1.289 . S
C233 O234 1.245 . S
C233 O235 1.274 . S
O234 Mg221 2.079 1_565 S
O234 C233 1.245 . S
O235 Mg220 2.038 1_565 S
O235 C233 1.274 . S
O236 Mg224 2.042 1_556 S
O236 C239 1.241 . S
O237 Mg223 1.984 . S
O237 C239 1.280 . S
O238 Mg224 2.041 . S
O238 C242 1.277 . S
C239 O236 1.241 . S
C239 O237 1.280 . S
O240 Mg223 1.988 1_554 S
O240 C242 1.245 . S
O241 C217 1.247 . S
O241 Mg223 2.061 . S
C242 O238 1.277 . S
C242 O240 1.245 . S
O243 C217 1.289 . S
O243 Mg220 2.238 1_566 S
O243 Mg221 2.106 1_566 S
O244 Mg221 2.079 1_556 S
O244 C226 1.245 . S
O245 Mg224 2.038 1_546 S
O245 C226 1.274 . S
C246 O258 1.241 . S
C246 O259 1.280 . S
C247 O260 1.277 . S
C247 O261 1.245 . S
C248 O272 1.247 . S
C248 O274 1.289 . S
Mg249 O250 1.926 . S
Mg249 O259 1.984 . S
Mg249 O261 1.988 1_554 S
Mg249 O262 2.061 1_655 S
O250 Mg249 1.926 . S
O250 Mg251 1.986 . S
O250 Mg252 1.917 1_655 S
Mg251 O250 1.986 . S
Mg251 O258 2.042 . S
Mg251 O260 2.041 1_554 S
Mg251 O266 2.038 . S
Mg251 O274 2.238 1_554 S
Mg252 O250 1.917 1_455 S
Mg252 O253 1.917 1_554 S
Mg252 O263 2.106 . S
Mg252 O265 2.079 1_455 S
Mg252 O274 2.106 1_454 S
Mg252 O275 2.079 1_554 S
O253 Mg252 1.917 1_556 S
O253 Mg254 1.926 . S
O253 Mg255 1.986 1_556 S
Mg254 O253 1.926 . S
Mg254 O268 1.984 . S
Mg254 O271 1.988 1_556 S
Mg254 O272 2.061 1_455 S
Mg255 O253 1.986 1_554 S
Mg255 O263 2.238 . S
Mg255 O267 2.042 1_554 S
Mg255 O269 2.041 . S
Mg255 O276 2.038 1_554 S
C256 O262 1.247 . S
C256 O263 1.289 . S
C257 O275 1.245 . S
C257 O276 1.274 . S
O258 C246 1.241 . S
O258 Mg251 2.042 . S
O259 C246 1.280 . S
O259 Mg249 1.984 . S
O260 C247 1.277 . S
O260 Mg251 2.041 1_556 S
O261 C247 1.245 . S
O261 Mg249 1.988 1_556 S
O262 Mg249 2.061 1_455 S
O262 C256 1.247 . S
O263 Mg252 2.106 . S
O263 Mg255 2.238 . S
O263 C256 1.289 . S
C264 O265 1.245 . S
C264 O266 1.274 . S
O265 Mg252 2.079 1_655 S
O265 C264 1.245 . S
O266 Mg251 2.038 . S
O266 C264 1.274 . S
O267 Mg255 2.042 1_556 S
O267 C270 1.241 . S
O268 Mg254 1.984 . S
O268 C270 1.280 . S
O269 Mg255 2.041 . S
O269 C273 1.277 . S
C270 O267 1.241 . S
C270 O268 1.280 . S
O271 Mg254 1.988 1_554 S
O271 C273 1.245 . S
O272 C248 1.247 . S
O272 Mg254 2.061 1_655 S
C273 O269 1.277 . S
C273 O271 1.245 . S
O274 C248 1.289 . S
O274 Mg251 2.238 1_556 S
O274 Mg252 2.106 1_656 S
O275 Mg252 2.079 1_556 S
O275 C257 1.245 . S
O276 Mg255 2.038 1_556 S
O276 C257 1.274 . S
C277 O289 1.241 . S
C277 O290 1.280 . S
C278 O291 1.277 . S
C278 O292 1.245 . S
C279 O303 1.247 . S
C279 O305 1.289 . S
Mg280 O281 1.926 . S
Mg280 O290 1.984 . S
Mg280 O292 1.988 1_554 S
Mg280 O293 2.061 . S
O281 Mg280 1.926 . S
O281 Mg282 1.986 . S
O281 Mg283 1.917 . S
Mg282 O281 1.986 . S
Mg282 O289 2.042 . S
Mg282 O291 2.041 1_554 S
Mg282 O297 2.038 . S
Mg282 O305 2.238 1_554 S
Mg283 O281 1.917 . S
Mg283 O284 1.918 . S
Mg283 O294 2.106 . S
Mg283 O296 2.079 . S
Mg283 O305 2.106 1_554 S
Mg283 O306 2.079 1_554 S
O284 Mg283 1.918 . S
O284 Mg285 1.926 1_554 S
O284 Mg286 1.987 . S
Mg285 O284 1.926 1_556 S
Mg285 O299 1.984 . S
Mg285 O302 1.988 1_556 S
Mg285 O303 2.061 . S
Mg286 O284 1.987 . S
Mg286 O294 2.238 . S
Mg286 O298 2.042 1_554 S
Mg286 O300 2.041 . S
Mg286 O307 2.038 1_554 S
C287 O293 1.247 . S
C287 O294 1.289 . S
C288 O306 1.245 . S
C288 O307 1.274 . S
O289 C277 1.241 . S
O289 Mg282 2.042 . S
O290 C277 1.280 . S
O290 Mg280 1.984 . S
O291 C278 1.277 . S
O291 Mg282 2.041 1_556 S
O292 C278 1.245 . S
O292 Mg280 1.988 1_556 S
O293 Mg280 2.061 . S
O293 C287 1.247 . S
O294 Mg283 2.106 . S
O294 Mg286 2.238 . S
O294 C287 1.289 . S
C295 O296 1.245 . S
C295 O297 1.274 . S
O296 Mg283 2.079 . S
O296 C295 1.245 . S
O297 Mg282 2.038 . S
O297 C295 1.274 . S
O298 Mg286 2.042 1_556 S
O298 C301 1.241 . S
O299 Mg285 1.984 . S
O299 C301 1.280 . S
O300 Mg286 2.041 . S
O300 C304 1.277 . S
C301 O298 1.241 . S
C301 O299 1.280 . S
O302 Mg285 1.988 1_554 S
O302 C304 1.245 . S
O303 C279 1.247 . S
O303 Mg285 2.061 . S
C304 O300 1.277 . S
C304 O302 1.245 . S
O305 C279 1.289 . S
O305 Mg282 2.238 1_556 S
O305 Mg283 2.106 1_556 S
O306 Mg283 2.079 1_556 S
O306 C288 1.245 . S
O307 Mg286 2.038 1_556 S
O307 C288 1.274 . S
C308 O320 1.241 . S
C308 O321 1.280 . S
C309 O322 1.277 . S
C309 O323 1.245 . S
C310 O334 1.247 . S
C310 O336 1.289 . S
Mg311 O312 1.926 . S
Mg311 O321 1.984 . S
Mg311 O323 1.988 . S
Mg311 O324 2.061 1_655 S
O312 Mg311 1.926 . S
O312 Mg313 1.986 . S
O312 Mg314 1.917 1_655 S
Mg313 O312 1.986 . S
Mg313 O320 2.042 . S
Mg313 O322 2.041 . S
Mg313 O328 2.038 . S
Mg313 O336 2.238 . S
Mg314 O312 1.917 1_455 S
Mg314 O315 1.917 . S
Mg314 O325 2.106 . S
Mg314 O327 2.079 1_455 S
Mg314 O336 2.106 1_455 S
Mg314 O337 2.079 . S
O315 Mg314 1.917 . S
O315 Mg316 1.926 . S
O315 Mg317 1.986 . S
Mg316 O315 1.926 . S
Mg316 O330 1.984 . S
Mg316 O333 1.988 . S
Mg316 O334 2.061 1_455 S
Mg317 O315 1.986 . S
Mg317 O325 2.238 . S
Mg317 O329 2.042 . S
Mg317 O331 2.041 . S
Mg317 O338 2.038 . S
C318 O324 1.247 . S
C318 O325 1.289 . S
C319 O337 1.245 . S
C319 O338 1.274 . S
O320 C308 1.241 . S
O320 Mg313 2.042 . S
O321 C308 1.280 . S
O321 Mg311 1.984 . S
O322 C309 1.277 . S
O322 Mg313 2.041 . S
O323 C309 1.245 . S
O323 Mg311 1.988 . S
O324 Mg311 2.061 1_455 S
O324 C318 1.247 . S
O325 Mg314 2.106 . S
O325 Mg317 2.238 . S
O325 C318 1.289 . S
C326 O327 1.245 . S
C326 O328 1.274 . S
O327 Mg314 2.079 1_655 S
O327 C326 1.245 . S
O328 Mg313 2.038 . S
O328 C326 1.274 . S
O329 Mg317 2.042 . S
O329 C332 1.241 . S
O330 Mg316 1.984 . S
O330 C332 1.280 . S
O331 Mg317 2.041 . S
O331 C335 1.277 . S
C332 O329 1.241 . S
C332 O330 1.280 . S
O333 Mg316 1.988 . S
O333 C335 1.245 . S
O334 C310 1.247 . S
O334 Mg316 2.061 1_655 S
C335 O331 1.277 . S
C335 O333 1.245 . S
O336 C310 1.289 . S
O336 Mg313 2.238 . S
O336 Mg314 2.106 1_655 S
O337 Mg314 2.079 . S
O337 C319 1.245 . S
O338 Mg317 2.038 . S
O338 C319 1.274 . S
C339 O351 1.241 . S
C339 O352 1.280 . S
C340 O353 1.277 . S
C340 O354 1.245 . S
C341 O365 1.247 . S
C341 O367 1.289 . S
Mg342 O343 1.926 . S
Mg342 O352 1.984 . S
Mg342 O354 1.988 . S
Mg342 O355 2.061 . S
O343 Mg342 1.926 . S
O343 Mg344 1.986 . S
O343 Mg345 1.917 . S
Mg344 O343 1.986 . S
Mg344 O351 2.042 . S
Mg344 O353 2.041 . S
Mg344 O359 2.038 1_545 S
Mg344 O367 2.238 1_545 S
Mg345 O343 1.917 . S
Mg345 O346 1.917 1_545 S
Mg345 O356 2.106 . S
Mg345 O358 2.079 1_545 S
Mg345 O367 2.106 1_545 S
Mg345 O368 2.079 . S
O346 Mg345 1.917 1_565 S
O346 Mg347 1.926 . S
O346 Mg348 1.986 1_565 S
Mg347 O346 1.926 . S
Mg347 O361 1.984 . S
Mg347 O364 1.988 . S
Mg347 O365 2.061 . S
Mg348 O346 1.986 1_545 S
Mg348 O356 2.238 . S
Mg348 O360 2.042 1_545 S
Mg348 O362 2.041 1_545 S
Mg348 O369 2.038 . S
C349 O355 1.247 . S
C349 O356 1.289 . S
C350 O368 1.245 . S
C350 O369 1.274 . S
O351 C339 1.241 . S
O351 Mg344 2.042 . S
O352 C339 1.280 . S
O352 Mg342 1.984 . S
O353 C340 1.277 . S
O353 Mg344 2.041 . S
O354 C340 1.245 . S
O354 Mg342 1.988 . S
O355 Mg342 2.061 . S
O355 C349 1.247 . S
O356 Mg345 2.106 . S
O356 Mg348 2.238 . S
O356 C349 1.289 . S
C357 O358 1.245 . S
C357 O359 1.274 . S
O358 Mg345 2.079 1_565 S
O358 C357 1.245 . S
O359 Mg344 2.038 1_565 S
O359 C357 1.274 . S
O360 Mg348 2.042 1_565 S
O360 C363 1.241 . S
O361 Mg347 1.984 . S
O361 C363 1.280 . S
O362 Mg348 2.041 1_565 S
O362 C366 1.277 . S
C363 O360 1.241 . S
C363 O361 1.280 . S
O364 Mg347 1.988 . S
O364 C366 1.245 . S
O365 C341 1.247 . S
O365 Mg347 2.061 . S
C366 O362 1.277 . S
C366 O364 1.245 . S
O367 C341 1.289 . S
O367 Mg344 2.238 1_565 S
O367 Mg345 2.106 1_565 S
O368 Mg345 2.079 . S
O368 C350 1.245 . S
O369 Mg348 2.038 . S
O369 C350 1.274 . S
H370 C376 0.930 . S
H371 C380 0.930 . S
H372 C385 0.929 . S
H373 C383 0.929 . S
H374 C378 0.929 . S
H375 C384 0.929 . S
C376 H370 0.930 . S
C376 C377 1.367 . S
C376 C384 1.378 . S
C377 C376 1.367 . S
C377 C385 1.433 . S
C378 H374 0.929 . S
C378 C380 1.378 . S
C378 C382 1.350 . S
C379 C382 1.463 . S
C379 C384 1.350 . S
C379 N387 1.427 . S
C380 H371 0.930 . S
C380 C378 1.378 . S
C380 C381 1.367 . S
C381 C380 1.367 . S
C381 C383 1.433 . S
C382 C378 1.350 . S
C382 C379 1.463 . S
C382 N386 1.427 . S
C383 H373 0.929 . S
C383 C381 1.433 . S
C383 N386 1.384 . S
C384 H375 0.929 . S
C384 C376 1.378 . S
C384 C379 1.350 . S
C385 H372 0.929 . S
C385 C377 1.433 . S
C385 N387 1.384 . S
N386 C382 1.427 . S
N386 C383 1.384 . S
N387 C379 1.427 . S
N387 C385 1.384 . S
H388 C394 0.930 . S
H389 C398 0.930 . S
H390 C403 0.929 . S
H391 C401 0.929 . S
H392 C396 0.929 . S
H393 C402 0.929 . S
C394 H388 0.930 . S
C394 C395 1.367 . S
C394 C402 1.378 . S
C395 C394 1.367 . S
C395 C403 1.433 . S
C396 H392 0.929 . S
C396 C398 1.378 . S
C396 C400 1.350 . S
C397 C400 1.463 . S
C397 C402 1.350 . S
C397 N405 1.427 . S
C398 H389 0.930 . S
C398 C396 1.378 . S
C398 C399 1.367 . S
C399 C398 1.367 . S
C399 C401 1.433 . S
C400 C396 1.350 . S
C400 C397 1.463 . S
C400 N404 1.427 . S
C401 H391 0.929 . S
C401 C399 1.433 . S
C401 N404 1.384 . S
C402 H393 0.929 . S
C402 C394 1.378 . S
C402 C397 1.350 . S
C403 H390 0.929 . S
C403 C395 1.433 . S
C403 N405 1.384 . S
N404 C400 1.427 . S
N404 C401 1.384 . S
N405 C397 1.427 . S
N405 C403 1.384 . S
H406 C412 0.930 . S
H407 C416 0.930 . S
H408 C421 0.929 . S
H409 C419 0.929 . S
H410 C414 0.929 . S
H411 C420 0.929 . S
C412 H406 0.930 . S
C412 C413 1.367 . S
C412 C420 1.378 . S
C413 C412 1.367 . S
C413 C421 1.433 . S
C414 H410 0.929 . S
C414 C416 1.378 . S
C414 C418 1.350 . S
C415 C418 1.463 . S
C415 C420 1.350 . S
C415 N423 1.427 . S
C416 H407 0.930 . S
C416 C414 1.378 . S
C416 C417 1.367 . S
C417 C416 1.367 . S
C417 C419 1.433 . S
C418 C414 1.350 . S
C418 C415 1.463 . S
C418 N422 1.427 . S
C419 H409 0.929 . S
C419 C417 1.433 . S
C419 N422 1.384 . S
C420 H411 0.929 . S
C420 C412 1.378 . S
C420 C415 1.350 . S
C421 H408 0.929 . S
C421 C413 1.433 . S
C421 N423 1.384 . S
N422 C418 1.427 . S
N422 C419 1.384 . S
N423 C415 1.427 . S
N423 C421 1.384 . S
H424 C430 0.930 . S
H425 C434 0.930 . S
H426 C439 0.929 . S
H427 C437 0.929 . S
H428 C432 0.929 . S
H429 C438 0.929 . S
C430 H424 0.930 . S
C430 C431 1.367 . S
C430 C438 1.378 . S
C431 C430 1.367 . S
C431 C439 1.433 . S
C432 H428 0.929 . S
C432 C434 1.378 . S
C432 C436 1.350 . S
C433 C436 1.463 . S
C433 C438 1.350 . S
C433 N441 1.427 . S
C434 H425 0.930 . S
C434 C432 1.378 . S
C434 C435 1.367 . S
C435 C434 1.367 . S
C435 C437 1.433 . S
C436 C432 1.350 . S
C436 C433 1.463 . S
C436 N440 1.427 . S
C437 H427 0.929 . S
C437 C435 1.433 . S
C437 N440 1.384 . S
C438 H429 0.929 . S
C438 C430 1.378 . S
C438 C433 1.350 . S
C439 H426 0.929 . S
C439 C431 1.433 . S
C439 N441 1.384 . S
N440 C436 1.427 . S
N440 C437 1.384 . S
N441 C433 1.427 . S
N441 C439 1.384 . S
H442 C448 0.930 . S
H443 C452 0.930 . S
H444 C457 0.929 . S
H445 C455 0.929 . S
H446 C450 0.929 . S
H447 C456 0.929 . S
C448 H442 0.930 . S
C448 C449 1.367 . S
C448 C456 1.378 . S
C449 C448 1.367 . S
C449 C457 1.433 . S
C450 H446 0.929 . S
C450 C452 1.378 . S
C450 C454 1.350 . S
C451 C454 1.463 . S
C451 C456 1.350 . S
C451 N459 1.427 . S
C452 H443 0.930 . S
C452 C450 1.378 . S
C452 C453 1.367 . S
C453 C452 1.367 . S
C453 C455 1.433 . S
C454 C450 1.350 . S
C454 C451 1.463 . S
C454 N458 1.427 . S
C455 H445 0.929 . S
C455 C453 1.433 . S
C455 N458 1.384 . S
C456 H447 0.929 . S
C456 C448 1.378 . S
C456 C451 1.350 . S
C457 H444 0.929 . S
C457 C449 1.433 . S
C457 N459 1.384 . S
N458 C454 1.427 . S
N458 C455 1.384 . S
N459 C451 1.427 . S
N459 C457 1.384 . S
H460 C466 0.930 . S
H461 C470 0.930 . S
H462 C475 0.929 . S
H463 C473 0.929 . S
H464 C468 0.929 . S
H465 C474 0.929 . S
C466 H460 0.930 . S
C466 C467 1.367 . S
C466 C474 1.378 . S
C467 C466 1.367 . S
C467 C475 1.433 . S
C468 H464 0.929 . S
C468 C470 1.378 . S
C468 C472 1.350 . S
C469 C472 1.463 . S
C469 C474 1.350 . S
C469 N477 1.427 . S
C470 H461 0.930 . S
C470 C468 1.378 . S
C470 C471 1.367 . S
C471 C470 1.367 . S
C471 C473 1.433 . S
C472 C468 1.350 . S
C472 C469 1.463 . S
C472 N476 1.427 . S
C473 H463 0.929 . S
C473 C471 1.433 . S
C473 N476 1.384 . S
C474 H465 0.929 . S
C474 C466 1.378 . S
C474 C469 1.350 . S
C475 H462 0.929 . S
C475 C467 1.433 . S
C475 N477 1.384 . S
N476 C472 1.427 . S
N476 C473 1.384 . S
N477 C469 1.427 . S
N477 C475 1.384 . S
H478 C484 0.930 . S
H479 C488 0.930 . S
H480 C493 0.929 . S
H481 C491 0.929 . S
H482 C486 0.929 . S
H483 C492 0.929 . S
C484 H478 0.930 . S
C484 C485 1.367 . S
C484 C492 1.378 . S
C485 C484 1.367 . S
C485 C493 1.433 . S
C486 H482 0.929 . S
C486 C488 1.378 . S
C486 C490 1.350 . S
C487 C490 1.463 . S
C487 C492 1.350 . S
C487 N495 1.427 . S
C488 H479 0.930 . S
C488 C486 1.378 . S
C488 C489 1.367 . S
C489 C488 1.367 . S
C489 C491 1.433 . S
C490 C486 1.350 . S
C490 C487 1.463 . S
C490 N494 1.427 . S
C491 H481 0.929 . S
C491 C489 1.433 . S
C491 N494 1.384 . S
C492 H483 0.929 . S
C492 C484 1.378 . S
C492 C487 1.350 . S
C493 H480 0.929 . S
C493 C485 1.433 . S
C493 N495 1.384 . S
N494 C490 1.427 . S
N494 C491 1.384 . S
N495 C487 1.427 . S
N495 C493 1.384 . S
H496 C502 0.930 . S
H497 C506 0.930 . S
H498 C511 0.929 . S
H499 C509 0.929 . S
H500 C504 0.929 . S
H501 C510 0.929 . S
C502 H496 0.930 . S
C502 C503 1.367 . S
C502 C510 1.378 . S
C503 C502 1.367 . S
C503 C511 1.433 . S
C504 H500 0.929 . S
C504 C506 1.378 . S
C504 C508 1.350 . S
C505 C508 1.463 . S
C505 C510 1.350 . S
C505 N513 1.427 . S
C506 H497 0.930 . S
C506 C504 1.378 . S
C506 C507 1.367 . S
C507 C506 1.367 . S
C507 C509 1.433 . S
C508 C504 1.350 . S
C508 C505 1.463 . S
C508 N512 1.427 . S
C509 H499 0.929 . S
C509 C507 1.433 . S
C509 N512 1.384 . S
C510 H501 0.929 . S
C510 C502 1.378 . S
C510 C505 1.350 . S
C511 H498 0.929 . S
C511 C503 1.433 . S
C511 N513 1.384 . S
N512 C508 1.427 . S
N512 C509 1.384 . S
N513 C505 1.427 . S
N513 C511 1.384 . S
H514 C520 0.930 . S
H515 C524 0.930 . S
H516 C529 0.929 . S
H517 C527 0.929 . S
H518 C522 0.929 . S
H519 C528 0.929 . S
C520 H514 0.930 . S
C520 C521 1.367 . S
C520 C528 1.378 . S
C521 C520 1.367 . S
C521 C529 1.433 . S
C522 H518 0.929 . S
C522 C524 1.378 . S
C522 C526 1.350 . S
C523 C526 1.463 . S
C523 C528 1.350 . S
C523 N531 1.427 . S
C524 H515 0.930 . S
C524 C522 1.378 . S
C524 C525 1.367 . S
C525 C524 1.367 . S
C525 C527 1.433 . S
C526 C522 1.350 . S
C526 C523 1.463 . S
C526 N530 1.427 . S
C527 H517 0.929 . S
C527 C525 1.433 . S
C527 N530 1.384 . S
C528 H519 0.929 . S
C528 C520 1.378 . S
C528 C523 1.350 . S
C529 H516 0.929 . S
C529 C521 1.433 . S
C529 N531 1.384 . S
N530 C526 1.427 . S
N530 C527 1.384 . S
N531 C523 1.427 . S
N531 C529 1.384 . S
H532 C538 0.930 . S
H533 C542 0.930 . S
H534 C547 0.929 . S
H535 C545 0.929 . S
H536 C540 0.929 . S
H537 C546 0.929 . S
C538 H532 0.930 . S
C538 C539 1.367 . S
C538 C546 1.378 . S
C539 C538 1.367 . S
C539 C547 1.433 . S
C540 H536 0.929 . S
C540 C542 1.378 . S
C540 C544 1.350 . S
C541 C544 1.463 . S
C541 C546 1.350 . S
C541 N549 1.427 . S
C542 H533 0.930 . S
C542 C540 1.378 . S
C542 C543 1.367 . S
C543 C542 1.367 . S
C543 C545 1.433 . S
C544 C540 1.350 . S
C544 C541 1.463 . S
C544 N548 1.427 . S
C545 H535 0.929 . S
C545 C543 1.433 . S
C545 N548 1.384 . S
C546 H537 0.929 . S
C546 C538 1.378 . S
C546 C541 1.350 . S
C547 H534 0.929 . S
C547 C539 1.433 . S
C547 N549 1.384 . S
N548 C544 1.427 . S
N548 C545 1.384 . S
N549 C541 1.427 . S
N549 C547 1.384 . S
H550 C556 0.930 . S
H551 C560 0.930 . S
H552 C565 0.929 . S
H553 C563 0.929 . S
H554 C558 0.929 . S
H555 C564 0.929 . S
C556 H550 0.930 . S
C556 C557 1.367 . S
C556 C564 1.378 . S
C557 C556 1.367 . S
C557 C565 1.433 . S
C558 H554 0.929 . S
C558 C560 1.378 . S
C558 C562 1.350 . S
C559 C562 1.463 . S
C559 C564 1.350 . S
C559 N567 1.427 . S
C560 H551 0.930 . S
C560 C558 1.378 . S
C560 C561 1.367 . S
C561 C560 1.367 . S
C561 C563 1.433 . S
C562 C558 1.350 . S
C562 C559 1.463 . S
C562 N566 1.427 . S
C563 H553 0.929 . S
C563 C561 1.433 . S
C563 N566 1.384 . S
C564 H555 0.929 . S
C564 C556 1.378 . S
C564 C559 1.350 . S
C565 H552 0.929 . S
C565 C557 1.433 . S
C565 N567 1.384 . S
N566 C562 1.427 . S
N566 C563 1.384 . S
N567 C559 1.427 . S
N567 C565 1.384 . S
H568 C574 0.930 . S
H569 C578 0.930 . S
H570 C583 0.929 . S
H571 C581 0.929 . S
H572 C576 0.929 . S
H573 C582 0.929 . S
C574 H568 0.930 . S
C574 C575 1.367 . S
C574 C582 1.378 . S
C575 C574 1.367 . S
C575 C583 1.433 . S
C576 H572 0.929 . S
C576 C578 1.378 . S
C576 C580 1.350 . S
C577 C580 1.463 . S
C577 C582 1.350 . S
C577 N585 1.427 . S
C578 H569 0.930 . S
C578 C576 1.378 . S
C578 C579 1.367 . S
C579 C578 1.367 . S
C579 C581 1.433 . S
C580 C576 1.350 . S
C580 C577 1.463 . S
C580 N584 1.427 . S
C581 H571 0.929 . S
C581 C579 1.433 . S
C581 N584 1.384 . S
C582 H573 0.929 . S
C582 C574 1.378 . S
C582 C577 1.350 . S
C583 H570 0.929 . S
C583 C575 1.433 . S
C583 N585 1.384 . S
N584 C580 1.427 . S
N584 C581 1.384 . S
N585 C577 1.427 . S
N585 C583 1.384 . S
H586 C592 0.930 . S
H587 C596 0.930 . S
H588 C601 0.929 . S
H589 C599 0.929 . S
H590 C594 0.929 . S
H591 C600 0.929 . S
C592 H586 0.930 . S
C592 C593 1.367 . S
C592 C600 1.378 . S
C593 C592 1.367 . S
C593 C601 1.433 . S
C594 H590 0.929 . S
C594 C596 1.378 . S
C594 C598 1.350 . S
C595 C598 1.463 . S
C595 C600 1.350 . S
C595 N603 1.427 . S
C596 H587 0.930 . S
C596 C594 1.378 . S
C596 C597 1.367 . S
C597 C596 1.367 . S
C597 C599 1.433 . S
C598 C594 1.350 . S
C598 C595 1.463 . S
C598 N602 1.427 . S
C599 H589 0.929 . S
C599 C597 1.433 . S
C599 N602 1.384 . S
C600 H591 0.929 . S
C600 C592 1.378 . S
C600 C595 1.350 . S
C601 H588 0.929 . S
C601 C593 1.433 . S
C601 N603 1.384 . S
N602 C598 1.427 . S
N602 C599 1.384 . S
N603 C595 1.427 . S
N603 C601 1.384 . S
H604 C610 0.930 . S
H605 C614 0.930 . S
H606 C619 0.929 . S
H607 C617 0.929 . S
H608 C612 0.929 . S
H609 C618 0.929 . S
C610 H604 0.930 . S
C610 C611 1.367 . S
C610 C618 1.378 . S
C611 C610 1.367 . S
C611 C619 1.433 . S
C612 H608 0.929 . S
C612 C614 1.378 . S
C612 C616 1.350 . S
C613 C616 1.463 . S
C613 C618 1.350 . S
C613 N621 1.427 . S
C614 H605 0.930 . S
C614 C612 1.378 . S
C614 C615 1.367 . S
C615 C614 1.367 . S
C615 C617 1.433 . S
C616 C612 1.350 . S
C616 C613 1.463 . S
C616 N620 1.427 . S
C617 H607 0.929 . S
C617 C615 1.433 . S
C617 N620 1.384 . S
C618 H609 0.929 . S
C618 C610 1.378 . S
C618 C613 1.350 . S
C619 H606 0.929 . S
C619 C611 1.433 . S
C619 N621 1.384 . S
N620 C616 1.427 . S
N620 C617 1.384 . S
N621 C613 1.427 . S
N621 C619 1.384 . S
H622 C628 0.930 . S
H623 C632 0.930 . S
H624 C637 0.929 . S
H625 C635 0.929 . S
H626 C630 0.929 . S
H627 C636 0.929 . S
C628 H622 0.930 . S
C628 C629 1.367 . S
C628 C636 1.378 . S
C629 C628 1.367 . S
C629 C637 1.433 . S
C630 H626 0.929 . S
C630 C632 1.378 . S
C630 C634 1.350 . S
C631 C634 1.463 . S
C631 C636 1.350 . S
C631 N639 1.427 . S
C632 H623 0.930 . S
C632 C630 1.378 . S
C632 C633 1.367 . S
C633 C632 1.367 . S
C633 C635 1.433 . S
C634 C630 1.350 . S
C634 C631 1.463 . S
C634 N638 1.427 . S
C635 H625 0.929 . S
C635 C633 1.433 . S
C635 N638 1.384 . S
C636 H627 0.929 . S
C636 C628 1.378 . S
C636 C631 1.350 . S
C637 H624 0.929 . S
C637 C629 1.433 . S
C637 N639 1.384 . S
N638 C634 1.427 . S
N638 C635 1.384 . S
N639 C631 1.427 . S
N639 C637 1.384 . S
H640 C646 0.930 . S
H641 C650 0.930 . S
H642 C655 0.929 . S
H643 C653 0.929 . S
H644 C648 0.929 . S
H645 C654 0.929 . S
C646 H640 0.930 . S
C646 C647 1.367 . S
C646 C654 1.378 . S
C647 C646 1.367 . S
C647 C655 1.433 . S
C648 H644 0.929 . S
C648 C650 1.378 . S
C648 C652 1.350 . S
C649 C652 1.463 . S
C649 C654 1.350 . S
C649 N657 1.427 . S
C650 H641 0.930 . S
C650 C648 1.378 . S
C650 C651 1.367 . S
C651 C650 1.367 . S
C651 C653 1.433 . S
C652 C648 1.350 . S
C652 C649 1.463 . S
C652 N656 1.427 . S
C653 H643 0.929 . S
C653 C651 1.433 . S
C653 N656 1.384 . S
C654 H645 0.929 . S
C654 C646 1.378 . S
C654 C649 1.350 . S
C655 H642 0.929 . S
C655 C647 1.433 . S
C655 N657 1.384 . S
N656 C652 1.427 . S
N656 C653 1.384 . S
N657 C649 1.427 . S
N657 C655 1.384 . S
H658 C664 0.930 . S
H659 C668 0.930 . S
H660 C673 0.929 . S
H661 C671 0.929 . S
H662 C666 0.929 . S
H663 C672 0.929 . S
C664 H658 0.930 . S
C664 C665 1.367 . S
C664 C672 1.378 . S
C665 C664 1.367 . S
C665 C673 1.433 . S
C666 H662 0.929 . S
C666 C668 1.378 . S
C666 C670 1.350 . S
C667 C670 1.463 . S
C667 C672 1.350 . S
C667 N675 1.427 . S
C668 H659 0.930 . S
C668 C666 1.378 . S
C668 C669 1.367 . S
C669 C668 1.367 . S
C669 C671 1.433 . S
C670 C666 1.350 . S
C670 C667 1.463 . S
C670 N674 1.427 . S
C671 H661 0.929 . S
C671 C669 1.433 . S
C671 N674 1.384 . S
C672 H663 0.929 . S
C672 C664 1.378 . S
C672 C667 1.350 . S
C673 H660 0.929 . S
C673 C665 1.433 . S
C673 N675 1.384 . S
N674 C670 1.427 . S
N674 C671 1.384 . S
N675 C667 1.427 . S
N675 C673 1.384 . S
H676 C682 0.930 . S
H677 C686 0.930 . S
H678 C691 0.929 . S
H679 C689 0.929 . S
H680 C684 0.929 . S
H681 C690 0.929 . S
C682 H676 0.930 . S
C682 C683 1.367 . S
C682 C690 1.378 . S
C683 C682 1.367 . S
C683 C691 1.433 . S
C684 H680 0.929 . S
C684 C686 1.378 . S
C684 C688 1.350 . S
C685 C688 1.463 . S
C685 C690 1.350 . S
C685 N693 1.427 . S
C686 H677 0.930 . S
C686 C684 1.378 . S
C686 C687 1.367 . S
C687 C686 1.367 . S
C687 C689 1.433 . S
C688 C684 1.350 . S
C688 C685 1.463 . S
C688 N692 1.427 . S
C689 H679 0.929 . S
C689 C687 1.433 . S
C689 N692 1.384 . S
C690 H681 0.929 . S
C690 C682 1.378 . S
C690 C685 1.350 . S
C691 H678 0.929 . S
C691 C683 1.433 . S
C691 N693 1.384 . S
N692 C688 1.427 . S
N692 C689 1.384 . S
N693 C685 1.427 . S
N693 C691 1.384 . S
H694 C700 0.930 . S
H695 C704 0.930 . S
H696 C709 0.929 . S
H697 C707 0.929 . S
H698 C702 0.929 . S
H699 C708 0.929 . S
C700 H694 0.930 . S
C700 C701 1.367 . S
C700 C708 1.378 . S
C701 C700 1.367 . S
C701 C709 1.433 . S
C702 H698 0.929 . S
C702 C704 1.378 . S
C702 C706 1.350 . S
C703 C706 1.463 . S
C703 C708 1.350 . S
C703 N711 1.427 . S
C704 H695 0.930 . S
C704 C702 1.378 . S
C704 C705 1.367 . S
C705 C704 1.367 . S
C705 C707 1.433 . S
C706 C702 1.350 . S
C706 C703 1.463 . S
C706 N710 1.427 . S
C707 H697 0.929 . S
C707 C705 1.433 . S
C707 N710 1.384 . S
C708 H699 0.929 . S
C708 C700 1.378 . S
C708 C703 1.350 . S
C709 H696 0.929 . S
C709 C701 1.433 . S
C709 N711 1.384 . S
N710 C706 1.427 . S
N710 C707 1.384 . S
N711 C703 1.427 . S
N711 C709 1.384 . S
H712 C718 0.930 . S
H713 C722 0.930 . S
H714 C727 0.929 . S
H715 C725 0.929 . S
H716 C720 0.929 . S
H717 C726 0.929 . S
C718 H712 0.930 . S
C718 C719 1.367 . S
C718 C726 1.378 . S
C719 C718 1.367 . S
C719 C727 1.433 . S
C720 H716 0.929 . S
C720 C722 1.378 . S
C720 C724 1.350 . S
C721 C724 1.463 . S
C721 C726 1.350 . S
C721 N729 1.427 . S
C722 H713 0.930 . S
C722 C720 1.378 . S
C722 C723 1.367 . S
C723 C722 1.367 . S
C723 C725 1.433 . S
C724 C720 1.350 . S
C724 C721 1.463 . S
C724 N728 1.427 . S
C725 H715 0.929 . S
C725 C723 1.433 . S
C725 N728 1.384 . S
C726 H717 0.929 . S
C726 C718 1.378 . S
C726 C721 1.350 . S
C727 H714 0.929 . S
C727 C719 1.433 . S
C727 N729 1.384 . S
N728 C724 1.427 . S
N728 C725 1.384 . S
N729 C721 1.427 . S
N729 C727 1.384 . S
H730 C736 0.930 . S
H731 C740 0.930 . S
H732 C745 0.929 . S
H733 C743 0.929 . S
H734 C738 0.929 . S
H735 C744 0.929 . S
C736 H730 0.930 . S
C736 C737 1.367 . S
C736 C744 1.378 . S
C737 C736 1.367 . S
C737 C745 1.433 . S
C738 H734 0.929 . S
C738 C740 1.378 . S
C738 C742 1.350 . S
C739 C742 1.463 . S
C739 C744 1.350 . S
C739 N747 1.427 . S
C740 H731 0.930 . S
C740 C738 1.378 . S
C740 C741 1.367 . S
C741 C740 1.367 . S
C741 C743 1.433 . S
C742 C738 1.350 . S
C742 C739 1.463 . S
C742 N746 1.427 . S
C743 H733 0.929 . S
C743 C741 1.433 . S
C743 N746 1.384 . S
C744 H735 0.929 . S
C744 C736 1.378 . S
C744 C739 1.350 . S
C745 H732 0.929 . S
C745 C737 1.433 . S
C745 N747 1.384 . S
N746 C742 1.427 . S
N746 C743 1.384 . S
N747 C739 1.427 . S
N747 C745 1.384 . S
H748 C754 0.930 . S
H749 C758 0.930 . S
H750 C763 0.929 . S
H751 C761 0.929 . S
H752 C756 0.929 . S
H753 C762 0.929 . S
C754 H748 0.930 . S
C754 C755 1.367 . S
C754 C762 1.378 . S
C755 C754 1.367 . S
C755 C763 1.433 . S
C756 H752 0.929 . S
C756 C758 1.378 . S
C756 C760 1.350 . S
C757 C760 1.463 . S
C757 C762 1.350 . S
C757 N765 1.427 . S
C758 H749 0.930 . S
C758 C756 1.378 . S
C758 C759 1.367 . S
C759 C758 1.367 . S
C759 C761 1.433 . S
C760 C756 1.350 . S
C760 C757 1.463 . S
C760 N764 1.427 . S
C761 H751 0.929 . S
C761 C759 1.433 . S
C761 N764 1.384 . S
C762 H753 0.929 . S
C762 C754 1.378 . S
C762 C757 1.350 . S
C763 H750 0.929 . S
C763 C755 1.433 . S
C763 N765 1.384 . S
N764 C760 1.427 . S
N764 C761 1.384 . S
N765 C757 1.427 . S
N765 C763 1.384 . S
H766 C772 0.930 . S
H767 C776 0.930 . S
H768 C781 0.929 . S
H769 C779 0.929 . S
H770 C774 0.929 . S
H771 C780 0.929 . S
C772 H766 0.930 . S
C772 C773 1.367 . S
C772 C780 1.378 . S
C773 C772 1.367 . S
C773 C781 1.433 . S
C774 H770 0.929 . S
C774 C776 1.378 . S
C774 C778 1.350 . S
C775 C778 1.463 . S
C775 C780 1.350 . S
C775 N783 1.427 . S
C776 H767 0.930 . S
C776 C774 1.378 . S
C776 C777 1.367 . S
C777 C776 1.367 . S
C777 C779 1.433 . S
C778 C774 1.350 . S
C778 C775 1.463 . S
C778 N782 1.427 . S
C779 H769 0.929 . S
C779 C777 1.433 . S
C779 N782 1.384 . S
C780 H771 0.929 . S
C780 C772 1.378 . S
C780 C775 1.350 . S
C781 H768 0.929 . S
C781 C773 1.433 . S
C781 N783 1.384 . S
N782 C778 1.427 . S
N782 C779 1.384 . S
N783 C775 1.427 . S
N783 C781 1.384 . S
H784 C790 0.930 . S
H785 C794 0.930 . S
H786 C799 0.929 . S
H787 C797 0.929 . S
H788 C792 0.929 . S
H789 C798 0.929 . S
C790 H784 0.930 . S
C790 C791 1.367 . S
C790 C798 1.378 . S
C791 C790 1.367 . S
C791 C799 1.433 . S
C792 H788 0.929 . S
C792 C794 1.378 . S
C792 C796 1.350 . S
C793 C796 1.463 . S
C793 C798 1.350 . S
C793 N801 1.427 . S
C794 H785 0.930 . S
C794 C792 1.378 . S
C794 C795 1.367 . S
C795 C794 1.367 . S
C795 C797 1.433 . S
C796 C792 1.350 . S
C796 C793 1.463 . S
C796 N800 1.427 . S
C797 H787 0.929 . S
C797 C795 1.433 . S
C797 N800 1.384 . S
C798 H789 0.929 . S
C798 C790 1.378 . S
C798 C793 1.350 . S
C799 H786 0.929 . S
C799 C791 1.433 . S
C799 N801 1.384 . S
N800 C796 1.427 . S
N800 C797 1.384 . S
N801 C793 1.427 . S
N801 C799 1.384 . S
H802 C808 0.930 . S
H803 C812 0.930 . S
H804 C817 0.929 . S
H805 C815 0.929 . S
H806 C810 0.929 . S
H807 C816 0.929 . S
C808 H802 0.930 . S
C808 C809 1.367 . S
C808 C816 1.378 . S
C809 C808 1.367 . S
C809 C817 1.433 . S
C810 H806 0.929 . S
C810 C812 1.378 . S
C810 C814 1.350 . S
C811 C814 1.463 . S
C811 C816 1.350 . S
C811 N819 1.427 . S
C812 H803 0.930 . S
C812 C810 1.378 . S
C812 C813 1.367 . S
C813 C812 1.367 . S
C813 C815 1.433 . S
C814 C810 1.350 . S
C814 C811 1.463 . S
C814 N818 1.427 . S
C815 H805 0.929 . S
C815 C813 1.433 . S
C815 N818 1.384 . S
C816 H807 0.929 . S
C816 C808 1.378 . S
C816 C811 1.350 . S
C817 H804 0.929 . S
C817 C809 1.433 . S
C817 N819 1.384 . S
N818 C814 1.427 . S
N818 C815 1.384 . S
N819 C811 1.427 . S
N819 C817 1.384 . S
H820 C826 0.930 . S
H821 C830 0.930 . S
H822 C835 0.929 . S
H823 C833 0.929 . S
H824 C828 0.929 . S
H825 C834 0.929 . S
C826 H820 0.930 . S
C826 C827 1.367 . S
C826 C834 1.378 . S
C827 C826 1.367 . S
C827 C835 1.433 . S
C828 H824 0.929 . S
C828 C830 1.378 . S
C828 C832 1.350 . S
C829 C832 1.463 . S
C829 C834 1.350 . S
C829 N837 1.427 . S
C830 H821 0.930 . S
C830 C828 1.378 . S
C830 C831 1.367 . S
C831 C830 1.367 . S
C831 C833 1.433 . S
C832 C828 1.350 . S
C832 C829 1.463 . S
C832 N836 1.427 . S
C833 H823 0.929 . S
C833 C831 1.433 . S
C833 N836 1.384 . S
C834 H825 0.929 . S
C834 C826 1.378 . S
C834 C829 1.350 . S
C835 H822 0.929 . S
C835 C827 1.433 . S
C835 N837 1.384 . S
N836 C832 1.427 . S
N836 C833 1.384 . S
N837 C829 1.427 . S
N837 C835 1.384 . S
H838 C844 0.930 . S
H839 C848 0.930 . S
H840 C853 0.929 . S
H841 C851 0.929 . S
H842 C846 0.929 . S
H843 C852 0.929 . S
C844 H838 0.930 . S
C844 C845 1.367 . S
C844 C852 1.378 . S
C845 C844 1.367 . S
C845 C853 1.433 . S
C846 H842 0.929 . S
C846 C848 1.378 . S
C846 C850 1.350 . S
C847 C850 1.463 . S
C847 C852 1.350 . S
C847 N855 1.427 . S
C848 H839 0.930 . S
C848 C846 1.378 . S
C848 C849 1.367 . S
C849 C848 1.367 . S
C849 C851 1.433 . S
C850 C846 1.350 . S
C850 C847 1.463 . S
C850 N854 1.427 . S
C851 H841 0.929 . S
C851 C849 1.433 . S
C851 N854 1.384 . S
C852 H843 0.929 . S
C852 C844 1.378 . S
C852 C847 1.350 . S
C853 H840 0.929 . S
C853 C845 1.433 . S
C853 N855 1.384 . S
N854 C850 1.427 . S
N854 C851 1.384 . S
N855 C847 1.427 . S
N855 C853 1.384 . S
H856 C862 0.930 . S
H857 C866 0.930 . S
H858 C871 0.929 . S
H859 C869 0.929 . S
H860 C864 0.929 . S
H861 C870 0.929 . S
C862 H856 0.930 . S
C862 C863 1.367 . S
C862 C870 1.378 . S
C863 C862 1.367 . S
C863 C871 1.433 . S
C864 H860 0.929 . S
C864 C866 1.378 . S
C864 C868 1.350 . S
C865 C868 1.463 . S
C865 C870 1.350 . S
C865 N873 1.427 . S
C866 H857 0.930 . S
C866 C864 1.378 . S
C866 C867 1.367 . S
C867 C866 1.367 . S
C867 C869 1.433 . S
C868 C864 1.350 . S
C868 C865 1.463 . S
C868 N872 1.427 . S
C869 H859 0.929 . S
C869 C867 1.433 . S
C869 N872 1.384 . S
C870 H861 0.929 . S
C870 C862 1.378 . S
C870 C865 1.350 . S
C871 H858 0.929 . S
C871 C863 1.433 . S
C871 N873 1.384 . S
N872 C868 1.427 . S
N872 C869 1.384 . S
N873 C865 1.427 . S
N873 C871 1.384 . S
H874 C880 0.930 . S
H875 C884 0.930 . S
H876 C889 0.929 . S
H877 C887 0.929 . S
H878 C882 0.929 . S
H879 C888 0.929 . S
C880 H874 0.930 . S
C880 C881 1.367 . S
C880 C888 1.378 . S
C881 C880 1.367 . S
C881 C889 1.433 . S
C882 H878 0.929 . S
C882 C884 1.378 . S
C882 C886 1.350 . S
C883 C886 1.463 . S
C883 C888 1.350 . S
C883 N891 1.427 . S
C884 H875 0.930 . S
C884 C882 1.378 . S
C884 C885 1.367 . S
C885 C884 1.367 . S
C885 C887 1.433 . S
C886 C882 1.350 . S
C886 C883 1.463 . S
C886 N890 1.427 . S
C887 H877 0.929 . S
C887 C885 1.433 . S
C887 N890 1.384 . S
C888 H879 0.929 . S
C888 C880 1.378 . S
C888 C883 1.350 . S
C889 H876 0.929 . S
C889 C881 1.433 . S
C889 N891 1.384 . S
N890 C886 1.427 . S
N890 C887 1.384 . S
N891 C883 1.427 . S
N891 C889 1.384 . S
H892 C898 0.930 . S
H893 C902 0.930 . S
H894 C907 0.929 . S
H895 C905 0.929 . S
H896 C900 0.929 . S
H897 C906 0.929 . S
C898 H892 0.930 . S
C898 C899 1.367 . S
C898 C906 1.378 . S
C899 C898 1.367 . S
C899 C907 1.433 . S
C900 H896 0.929 . S
C900 C902 1.378 . S
C900 C904 1.350 . S
C901 C904 1.463 . S
C901 C906 1.350 . S
C901 N909 1.427 . S
C902 H893 0.930 . S
C902 C900 1.378 . S
C902 C903 1.367 . S
C903 C902 1.367 . S
C903 C905 1.433 . S
C904 C900 1.350 . S
C904 C901 1.463 . S
C904 N908 1.427 . S
C905 H895 0.929 . S
C905 C903 1.433 . S
C905 N908 1.384 . S
C906 H897 0.929 . S
C906 C898 1.378 . S
C906 C901 1.350 . S
C907 H894 0.929 . S
C907 C899 1.433 . S
C907 N909 1.384 . S
N908 C904 1.427 . S
N908 C905 1.384 . S
N909 C901 1.427 . S
N909 C907 1.384 . S
H910 C916 0.930 . S
H911 C920 0.930 . S
H912 C925 0.929 . S
H913 C923 0.929 . S
H914 C918 0.929 . S
H915 C924 0.929 . S
C916 H910 0.930 . S
C916 C917 1.367 . S
C916 C924 1.378 . S
C917 C916 1.367 . S
C917 C925 1.433 . S
C918 H914 0.929 . S
C918 C920 1.378 . S
C918 C922 1.350 . S
C919 C922 1.463 . S
C919 C924 1.350 . S
C919 N927 1.427 . S
C920 H911 0.930 . S
C920 C918 1.378 . S
C920 C921 1.367 . S
C921 C920 1.367 . S
C921 C923 1.433 . S
C922 C918 1.350 . S
C922 C919 1.463 . S
C922 N926 1.427 . S
C923 H913 0.929 . S
C923 C921 1.433 . S
C923 N926 1.384 . S
C924 H915 0.929 . S
C924 C916 1.378 . S
C924 C919 1.350 . S
C925 H912 0.929 . S
C925 C917 1.433 . S
C925 N927 1.384 . S
N926 C922 1.427 . S
N926 C923 1.384 . S
N927 C919 1.427 . S
N927 C925 1.384 . S
H928 C934 0.930 . S
H929 C938 0.930 . S
H930 C943 0.929 . S
H931 C941 0.929 . S
H932 C936 0.929 . S
H933 C942 0.929 . S
C934 H928 0.930 . S
C934 C935 1.367 . S
C934 C942 1.378 . S
C935 C934 1.367 . S
C935 C943 1.433 . S
C936 H932 0.929 . S
C936 C938 1.378 . S
C936 C940 1.350 . S
C937 C940 1.463 . S
C937 C942 1.350 . S
C937 N945 1.427 . S
C938 H929 0.930 . S
C938 C936 1.378 . S
C938 C939 1.367 . S
C939 C938 1.367 . S
C939 C941 1.433 . S
C940 C936 1.350 . S
C940 C937 1.463 . S
C940 N944 1.427 . S
C941 H931 0.929 . S
C941 C939 1.433 . S
C941 N944 1.384 . S
C942 H933 0.929 . S
C942 C934 1.378 . S
C942 C937 1.350 . S
C943 H930 0.929 . S
C943 C935 1.433 . S
C943 N945 1.384 . S
N944 C940 1.427 . S
N944 C941 1.384 . S
N945 C937 1.427 . S
N945 C943 1.384 . S
H946 C952 0.930 . S
H947 C956 0.930 . S
H948 C961 0.929 . S
H949 C959 0.929 . S
H950 C954 0.929 . S
H951 C960 0.929 . S
C952 H946 0.930 . S
C952 C953 1.367 . S
C952 C960 1.378 . S
C953 C952 1.367 . S
C953 C961 1.433 . S
C954 H950 0.929 . S
C954 C956 1.378 . S
C954 C958 1.350 . S
C955 C958 1.463 . S
C955 C960 1.350 . S
C955 N963 1.427 . S
C956 H947 0.930 . S
C956 C954 1.378 . S
C956 C957 1.367 . S
C957 C956 1.367 . S
C957 C959 1.433 . S
C958 C954 1.350 . S
C958 C955 1.463 . S
C958 N962 1.427 . S
C959 H949 0.929 . S
C959 C957 1.433 . S
C959 N962 1.384 . S
C960 H951 0.929 . S
C960 C952 1.378 . S
C960 C955 1.350 . S
C961 H948 0.929 . S
C961 C953 1.433 . S
C961 N963 1.384 . S
N962 C958 1.427 . S
N962 C959 1.384 . S
N963 C955 1.427 . S
N963 C961 1.384 . S
H964 C970 0.930 . S
H965 C974 0.930 . S
H966 C979 0.929 . S
H967 C977 0.929 . S
H968 C972 0.929 . S
H969 C978 0.929 . S
C970 H964 0.930 . S
C970 C971 1.367 . S
C970 C978 1.378 . S
C971 C970 1.367 . S
C971 C979 1.433 . S
C972 H968 0.929 . S
C972 C974 1.378 . S
C972 C976 1.350 . S
C973 C976 1.463 . S
C973 C978 1.350 . S
C973 N981 1.427 . S
C974 H965 0.930 . S
C974 C972 1.378 . S
C974 C975 1.367 . S
C975 C974 1.367 . S
C975 C977 1.433 . S
C976 C972 1.350 . S
C976 C973 1.463 . S
C976 N980 1.427 . S
C977 H967 0.929 . S
C977 C975 1.433 . S
C977 N980 1.384 . S
C978 H969 0.929 . S
C978 C970 1.378 . S
C978 C973 1.350 . S
C979 H966 0.929 . S
C979 C971 1.433 . S
C979 N981 1.384 . S
N980 C976 1.427 . S
N980 C977 1.384 . S
N981 C973 1.427 . S
N981 C979 1.384 . S
H982 C988 0.930 . S
H983 C992 0.930 . S
H984 C997 0.929 . S
H985 C995 0.929 . S
H986 C990 0.929 . S
H987 C996 0.929 . S
C988 H982 0.930 . S
C988 C989 1.367 . S
C988 C996 1.378 . S
C989 C988 1.367 . S
C989 C997 1.433 . S
C990 H986 0.929 . S
C990 C992 1.378 . S
C990 C994 1.350 . S
C991 C994 1.463 . S
C991 C996 1.350 . S
C991 N999 1.427 . S
C992 H983 0.930 . S
C992 C990 1.378 . S
C992 C993 1.367 . S
C993 C992 1.367 . S
C993 C995 1.433 . S
C994 C990 1.350 . S
C994 C991 1.463 . S
C994 N998 1.427 . S
C995 H985 0.929 . S
C995 C993 1.433 . S
C995 N998 1.384 . S
C996 H987 0.929 . S
C996 C988 1.378 . S
C996 C991 1.350 . S
C997 H984 0.929 . S
C997 C989 1.433 . S
C997 N999 1.384 . S
N998 C994 1.427 . S
N998 C995 1.384 . S
N999 C991 1.427 . S
N999 C997 1.384 . S
H1000 C1006 0.930 . S
H1001 C1010 0.930 . S
H1002 C1015 0.929 . S
H1003 C1013 0.929 . S
H1004 C1008 0.929 . S
H1005 C1014 0.929 . S
C1006 H1000 0.930 . S
C1006 C1007 1.367 . S
C1006 C1014 1.378 . S
C1007 C1006 1.367 . S
C1007 C1015 1.433 . S
C1008 H1004 0.929 . S
C1008 C1010 1.378 . S
C1008 C1012 1.350 . S
C1009 C1012 1.463 . S
C1009 C1014 1.350 . S
C1009 N1017 1.427 . S
C1010 H1001 0.930 . S
C1010 C1008 1.378 . S
C1010 C1011 1.367 . S
C1011 C1010 1.367 . S
C1011 C1013 1.433 . S
C1012 C1008 1.350 . S
C1012 C1009 1.463 . S
C1012 N1016 1.427 . S
C1013 H1003 0.929 . S
C1013 C1011 1.433 . S
C1013 N1016 1.384 . S
C1014 H1005 0.929 . S
C1014 C1006 1.378 . S
C1014 C1009 1.350 . S
C1015 H1002 0.929 . S
C1015 C1007 1.433 . S
C1015 N1017 1.384 . S
N1016 C1012 1.427 . S
N1016 C1013 1.384 . S
N1017 C1009 1.427 . S
N1017 C1015 1.384 . S
H1018 C1024 0.930 . S
H1019 C1028 0.930 . S
H1020 C1033 0.929 . S
H1021 C1031 0.929 . S
H1022 C1026 0.929 . S
H1023 C1032 0.929 . S
C1024 H1018 0.930 . S
C1024 C1025 1.367 . S
C1024 C1032 1.378 . S
C1025 C1024 1.367 . S
C1025 C1033 1.433 . S
C1026 H1022 0.929 . S
C1026 C1028 1.378 . S
C1026 C1030 1.350 . S
C1027 C1030 1.463 . S
C1027 C1032 1.350 . S
C1027 N1035 1.427 . S
C1028 H1019 0.930 . S
C1028 C1026 1.378 . S
C1028 C1029 1.367 . S
C1029 C1028 1.367 . S
C1029 C1031 1.433 . S
C1030 C1026 1.350 . S
C1030 C1027 1.463 . S
C1030 N1034 1.427 . S
C1031 H1021 0.929 . S
C1031 C1029 1.433 . S
C1031 N1034 1.384 . S
C1032 H1023 0.929 . S
C1032 C1024 1.378 . S
C1032 C1027 1.350 . S
C1033 H1020 0.929 . S
C1033 C1025 1.433 . S
C1033 N1035 1.384 . S
N1034 C1030 1.427 . S
N1034 C1031 1.384 . S
N1035 C1027 1.427 . S
N1035 C1033 1.384 . S
H1036 C1042 0.930 . S
H1037 C1046 0.930 . S
H1038 C1051 0.929 . S
H1039 C1049 0.929 . S
H1040 C1044 0.929 . S
H1041 C1050 0.929 . S
C1042 H1036 0.930 . S
C1042 C1043 1.367 . S
C1042 C1050 1.378 . S
C1043 C1042 1.367 . S
C1043 C1051 1.433 . S
C1044 H1040 0.929 . S
C1044 C1046 1.378 . S
C1044 C1048 1.350 . S
C1045 C1048 1.463 . S
C1045 C1050 1.350 . S
C1045 N1053 1.427 . S
C1046 H1037 0.930 . S
C1046 C1044 1.378 . S
C1046 C1047 1.367 . S
C1047 C1046 1.367 . S
C1047 C1049 1.433 . S
C1048 C1044 1.350 . S
C1048 C1045 1.463 . S
C1048 N1052 1.427 . S
C1049 H1039 0.929 . S
C1049 C1047 1.433 . S
C1049 N1052 1.384 . S
C1050 H1041 0.929 . S
C1050 C1042 1.378 . S
C1050 C1045 1.350 . S
C1051 H1038 0.929 . S
C1051 C1043 1.433 . S
C1051 N1053 1.384 . S
N1052 C1048 1.427 . S
N1052 C1049 1.384 . S
N1053 C1045 1.427 . S
N1053 C1051 1.384 . S
H1054 C1060 0.930 . S
H1055 C1064 0.930 . S
H1056 C1069 0.929 . S
H1057 C1067 0.929 . S
H1058 C1062 0.929 . S
H1059 C1068 0.929 . S
C1060 H1054 0.930 . S
C1060 C1061 1.367 . S
C1060 C1068 1.378 . S
C1061 C1060 1.367 . S
C1061 C1069 1.433 . S
C1062 H1058 0.929 . S
C1062 C1064 1.378 . S
C1062 C1066 1.350 . S
C1063 C1066 1.463 . S
C1063 C1068 1.350 . S
C1063 N1071 1.427 . S
C1064 H1055 0.930 . S
C1064 C1062 1.378 . S
C1064 C1065 1.367 . S
C1065 C1064 1.367 . S
C1065 C1067 1.433 . S
C1066 C1062 1.350 . S
C1066 C1063 1.463 . S
C1066 N1070 1.427 . S
C1067 H1057 0.929 . S
C1067 C1065 1.433 . S
C1067 N1070 1.384 . S
C1068 H1059 0.929 . S
C1068 C1060 1.378 . S
C1068 C1063 1.350 . S
C1069 H1056 0.929 . S
C1069 C1061 1.433 . S
C1069 N1071 1.384 . S
N1070 C1066 1.427 . S
N1070 C1067 1.384 . S
N1071 C1063 1.427 . S
N1071 C1069 1.384 . S
H1072 C1078 0.930 . S
H1073 C1082 0.930 . S
H1074 C1087 0.929 . S
H1075 C1085 0.929 . S
H1076 C1080 0.929 . S
H1077 C1086 0.929 . S
C1078 H1072 0.930 . S
C1078 C1079 1.367 . S
C1078 C1086 1.378 . S
C1079 C1078 1.367 . S
C1079 C1087 1.433 . S
C1080 H1076 0.929 . S
C1080 C1082 1.378 . S
C1080 C1084 1.350 . S
C1081 C1084 1.463 . S
C1081 C1086 1.350 . S
C1081 N1089 1.427 . S
C1082 H1073 0.930 . S
C1082 C1080 1.378 . S
C1082 C1083 1.367 . S
C1083 C1082 1.367 . S
C1083 C1085 1.433 . S
C1084 C1080 1.350 . S
C1084 C1081 1.463 . S
C1084 N1088 1.427 . S
C1085 H1075 0.929 . S
C1085 C1083 1.433 . S
C1085 N1088 1.384 . S
C1086 H1077 0.929 . S
C1086 C1078 1.378 . S
C1086 C1081 1.350 . S
C1087 H1074 0.929 . S
C1087 C1079 1.433 . S
C1087 N1089 1.384 . S
N1088 C1084 1.427 . S
N1088 C1085 1.384 . S
N1089 C1081 1.427 . S
N1089 C1087 1.384 . S
H1090 C1096 0.930 . S
H1091 C1100 0.930 . S
H1092 C1105 0.929 . S
H1093 C1103 0.929 . S
H1094 C1098 0.929 . S
H1095 C1104 0.929 . S
C1096 H1090 0.930 . S
C1096 C1097 1.367 . S
C1096 C1104 1.378 . S
C1097 C1096 1.367 . S
C1097 C1105 1.433 . S
C1098 H1094 0.929 . S
C1098 C1100 1.378 . S
C1098 C1102 1.350 . S
C1099 C1102 1.463 . S
C1099 C1104 1.350 . S
C1099 N1107 1.427 . S
C1100 H1091 0.930 . S
C1100 C1098 1.378 . S
C1100 C1101 1.367 . S
C1101 C1100 1.367 . S
C1101 C1103 1.433 . S
C1102 C1098 1.350 . S
C1102 C1099 1.463 . S
C1102 N1106 1.427 . S
C1103 H1093 0.929 . S
C1103 C1101 1.433 . S
C1103 N1106 1.384 . S
C1104 H1095 0.929 . S
C1104 C1096 1.378 . S
C1104 C1099 1.350 . S
C1105 H1092 0.929 . S
C1105 C1097 1.433 . S
C1105 N1107 1.384 . S
N1106 C1102 1.427 . S
N1106 C1103 1.384 . S
N1107 C1099 1.427 . S
N1107 C1105 1.384 . S
H1108 C1114 0.930 . S
H1109 C1118 0.930 . S
H1110 C1123 0.929 . S
H1111 C1121 0.929 . S
H1112 C1116 0.929 . S
H1113 C1122 0.929 . S
C1114 H1108 0.930 . S
C1114 C1115 1.367 . S
C1114 C1122 1.378 . S
C1115 C1114 1.367 . S
C1115 C1123 1.433 . S
C1116 H1112 0.929 . S
C1116 C1118 1.378 . S
C1116 C1120 1.350 . S
C1117 C1120 1.463 . S
C1117 C1122 1.350 . S
C1117 N1125 1.427 . S
C1118 H1109 0.930 . S
C1118 C1116 1.378 . S
C1118 C1119 1.367 . S
C1119 C1118 1.367 . S
C1119 C1121 1.433 . S
C1120 C1116 1.350 . S
C1120 C1117 1.463 . S
C1120 N1124 1.427 . S
C1121 H1111 0.929 . S
C1121 C1119 1.433 . S
C1121 N1124 1.384 . S
C1122 H1113 0.929 . S
C1122 C1114 1.378 . S
C1122 C1117 1.350 . S
C1123 H1110 0.929 . S
C1123 C1115 1.433 . S
C1123 N1125 1.384 . S
N1124 C1120 1.427 . S
N1124 C1121 1.384 . S
N1125 C1117 1.427 . S
N1125 C1123 1.384 . S
H1126 C1132 0.930 . S
H1127 C1136 0.930 . S
H1128 C1141 0.929 . S
H1129 C1139 0.929 . S
H1130 C1134 0.929 . S
H1131 C1140 0.929 . S
C1132 H1126 0.930 . S
C1132 C1133 1.367 . S
C1132 C1140 1.378 . S
C1133 C1132 1.367 . S
C1133 C1141 1.433 . S
C1134 H1130 0.929 . S
C1134 C1136 1.378 . S
C1134 C1138 1.350 . S
C1135 C1138 1.463 . S
C1135 C1140 1.350 . S
C1135 N1143 1.427 . S
C1136 H1127 0.930 . S
C1136 C1134 1.378 . S
C1136 C1137 1.367 . S
C1137 C1136 1.367 . S
C1137 C1139 1.433 . S
C1138 C1134 1.350 . S
C1138 C1135 1.463 . S
C1138 N1142 1.427 . S
C1139 H1129 0.929 . S
C1139 C1137 1.433 . S
C1139 N1142 1.384 . S
C1140 H1131 0.929 . S
C1140 C1132 1.378 . S
C1140 C1135 1.350 . S
C1141 H1128 0.929 . S
C1141 C1133 1.433 . S
C1141 N1143 1.384 . S
N1142 C1138 1.427 . S
N1142 C1139 1.384 . S
N1143 C1135 1.427 . S
N1143 C1141 1.384 . S
H1144 C1150 0.930 . S
H1145 C1154 0.930 . S
H1146 C1159 0.929 . S
H1147 C1157 0.929 . S
H1148 C1152 0.929 . S
H1149 C1158 0.929 . S
C1150 H1144 0.930 . S
C1150 C1151 1.367 . S
C1150 C1158 1.378 . S
C1151 C1150 1.367 . S
C1151 C1159 1.433 . S
C1152 H1148 0.929 . S
C1152 C1154 1.378 . S
C1152 C1156 1.350 . S
C1153 C1156 1.463 . S
C1153 C1158 1.350 . S
C1153 N1161 1.427 . S
C1154 H1145 0.930 . S
C1154 C1152 1.378 . S
C1154 C1155 1.367 . S
C1155 C1154 1.367 . S
C1155 C1157 1.433 . S
C1156 C1152 1.350 . S
C1156 C1153 1.463 . S
C1156 N1160 1.427 . S
C1157 H1147 0.929 . S
C1157 C1155 1.433 . S
C1157 N1160 1.384 . S
C1158 H1149 0.929 . S
C1158 C1150 1.378 . S
C1158 C1153 1.350 . S
C1159 H1146 0.929 . S
C1159 C1151 1.433 . S
C1159 N1161 1.384 . S
N1160 C1156 1.427 . S
N1160 C1157 1.384 . S
N1161 C1153 1.427 . S
N1161 C1159 1.384 . S
H1162 C1168 0.930 . S
H1163 C1172 0.930 . S
H1164 C1177 0.929 . S
H1165 C1175 0.929 . S
H1166 C1170 0.929 . S
H1167 C1176 0.929 . S
C1168 H1162 0.930 . S
C1168 C1169 1.367 . S
C1168 C1176 1.378 . S
C1169 C1168 1.367 . S
C1169 C1177 1.433 . S
C1170 H1166 0.929 . S
C1170 C1172 1.378 . S
C1170 C1174 1.350 . S
C1171 C1174 1.463 . S
C1171 C1176 1.350 . S
C1171 N1179 1.427 . S
C1172 H1163 0.930 . S
C1172 C1170 1.378 . S
C1172 C1173 1.367 . S
C1173 C1172 1.367 . S
C1173 C1175 1.433 . S
C1174 C1170 1.350 . S
C1174 C1171 1.463 . S
C1174 N1178 1.427 . S
C1175 H1165 0.929 . S
C1175 C1173 1.433 . S
C1175 N1178 1.384 . S
C1176 H1167 0.929 . S
C1176 C1168 1.378 . S
C1176 C1171 1.350 . S
C1177 H1164 0.929 . S
C1177 C1169 1.433 . S
C1177 N1179 1.384 . S
N1178 C1174 1.427 . S
N1178 C1175 1.384 . S
N1179 C1171 1.427 . S
N1179 C1177 1.384 . S
H1180 C1186 0.930 . S
H1181 C1190 0.930 . S
H1182 C1195 0.929 . S
H1183 C1193 0.929 . S
H1184 C1188 0.929 . S
H1185 C1194 0.929 . S
C1186 H1180 0.930 . S
C1186 C1187 1.367 . S
C1186 C1194 1.378 . S
C1187 C1186 1.367 . S
C1187 C1195 1.433 . S
C1188 H1184 0.929 . S
C1188 C1190 1.378 . S
C1188 C1192 1.350 . S
C1189 C1192 1.463 . S
C1189 C1194 1.350 . S
C1189 N1197 1.427 . S
C1190 H1181 0.930 . S
C1190 C1188 1.378 . S
C1190 C1191 1.367 . S
C1191 C1190 1.367 . S
C1191 C1193 1.433 . S
C1192 C1188 1.350 . S
C1192 C1189 1.463 . S
C1192 N1196 1.427 . S
C1193 H1183 0.929 . S
C1193 C1191 1.433 . S
C1193 N1196 1.384 . S
C1194 H1185 0.929 . S
C1194 C1186 1.378 . S
C1194 C1189 1.350 . S
C1195 H1182 0.929 . S
C1195 C1187 1.433 . S
C1195 N1197 1.384 . S
N1196 C1192 1.427 . S
N1196 C1193 1.384 . S
N1197 C1189 1.427 . S
N1197 C1195 1.384 . S
H1198 C1204 0.930 . S
H1199 C1208 0.930 . S
H1200 C1213 0.929 . S
H1201 C1211 0.929 . S
H1202 C1206 0.929 . S
H1203 C1212 0.929 . S
C1204 H1198 0.930 . S
C1204 C1205 1.367 . S
C1204 C1212 1.378 . S
C1205 C1204 1.367 . S
C1205 C1213 1.433 . S
C1206 H1202 0.929 . S
C1206 C1208 1.378 . S
C1206 C1210 1.350 . S
C1207 C1210 1.463 . S
C1207 C1212 1.350 . S
C1207 N1215 1.427 . S
C1208 H1199 0.930 . S
C1208 C1206 1.378 . S
C1208 C1209 1.367 . S
C1209 C1208 1.367 . S
C1209 C1211 1.433 . S
C1210 C1206 1.350 . S
C1210 C1207 1.463 . S
C1210 N1214 1.427 . S
C1211 H1201 0.929 . S
C1211 C1209 1.433 . S
C1211 N1214 1.384 . S
C1212 H1203 0.929 . S
C1212 C1204 1.378 . S
C1212 C1207 1.350 . S
C1213 H1200 0.929 . S
C1213 C1205 1.433 . S
C1213 N1215 1.384 . S
N1214 C1210 1.427 . S
N1214 C1211 1.384 . S
N1215 C1207 1.427 . S
N1215 C1213 1.384 . S
H1216 C1222 0.930 . S
H1217 C1226 0.930 . S
H1218 C1231 0.929 . S
H1219 C1229 0.929 . S
H1220 C1224 0.929 . S
H1221 C1230 0.929 . S
C1222 H1216 0.930 . S
C1222 C1223 1.367 . S
C1222 C1230 1.378 . S
C1223 C1222 1.367 . S
C1223 C1231 1.433 . S
C1224 H1220 0.929 . S
C1224 C1226 1.378 . S
C1224 C1228 1.350 . S
C1225 C1228 1.463 . S
C1225 C1230 1.350 . S
C1225 N1233 1.427 . S
C1226 H1217 0.930 . S
C1226 C1224 1.378 . S
C1226 C1227 1.367 . S
C1227 C1226 1.367 . S
C1227 C1229 1.433 . S
C1228 C1224 1.350 . S
C1228 C1225 1.463 . S
C1228 N1232 1.427 . S
C1229 H1219 0.929 . S
C1229 C1227 1.433 . S
C1229 N1232 1.384 . S
C1230 H1221 0.929 . S
C1230 C1222 1.378 . S
C1230 C1225 1.350 . S
C1231 H1218 0.929 . S
C1231 C1223 1.433 . S
C1231 N1233 1.384 . S
N1232 C1228 1.427 . S
N1232 C1229 1.384 . S
N1233 C1225 1.427 . S
N1233 C1231 1.384 . S
C381 C195 1.284 . S
C377 C17 1.310 . S
C399 C185 1.683 . S
C395 C44 1.558 . S
C417 C186 0.982 . S
C413 C63 0.976 . S
C431 C87 1.393 . S
C435 C208 1.362 . S
C449 C110 1.417 . S
C453 C211 1.398 . S
C471 C194 0.992 . S
C467 C131 1.010 . S
C485 C159 1.475 . S
C489 C184 1.581 . S
C503 C177 1.330 . S
C507 C202 1.306 . S
C525 C215 1.463 . S
C521 C20 1.379 . S
C539 C42 1.392 . S
C543 C264 1.368 . S
C561 C242 1.629 . S
C557 C66 1.500 . S
C579 C256 0.891 . S
C575 C86 0.904 . S
C593 C109 0.890 . S
C597 C217 0.880 . S
C615 C270 1.532 . S
C611 C136 1.462 . S
C629 C157 1.378 . S
C633 C226 1.365 . S
C647 C182 1.453 . S
C651 C247 1.525 . S
C665 C18 1.472 . S
C669 C273 1.436 . S
C683 C112 1.257 . S
C687 C257 1.309 . S
C705 C216 1.423 . S
C701 C134 1.435 . S
C723 C248 0.980 . S
C719 C154 1.025 . S
C737 C180 1.354 . S
C741 C239 1.337 . S
C755 C64 1.402 . S
C759 C246 1.357 . S
C777 C233 1.303 . S
C773 C89 1.286 . S
C791 C39 1.052 . S
C795 C225 1.027 . S
C809 C178 1.311 . S
C813 C288 1.295 . S
C827 C113 1.538 . S
C831 C278 1.687 . S
C849 C279 0.969 . S
C845 C132 0.984 . S
C867 C301 1.363 . S
C863 C156 1.392 . S
C881 C41 1.417 . S
C885 C304 1.398 . S
C903 C287 1.003 . S
C899 C62 0.994 . S
C917 C90 1.477 . S
C921 C277 1.584 . S
C935 C16 1.324 . S
C939 C295 1.313 . S
C953 C181 1.373 . S
C957 C308 1.460 . S
C975 C357 1.382 . S
C971 C111 1.379 . S
C989 C135 1.503 . S
C993 C335 1.621 . S
C1007 C155 0.902 . S
C1011 C349 0.875 . S
C1029 C310 0.873 . S
C1025 C40 0.898 . S
C1043 C67 1.455 . S
C1047 C363 1.530 . S
C1065 C319 1.363 . S
C1061 C88 1.378 . S
C1083 C340 1.523 . S
C1079 C21 1.446 . S
C1101 C366 1.435 . S
C1097 C179 1.470 . S
C1115 C43 1.276 . S
C1119 C350 1.307 . S
C1133 C65 1.432 . S
C1137 C309 1.420 . S
C1155 C341 1.004 . S
C1151 C85 1.038 . S
C1169 C19 1.367 . S
C1173 C332 1.352 . S
C1187 C133 1.402 . S
C1191 C339 1.356 . S
C1209 C326 1.314 . S
C1205 C158 1.296 . S
C1227 C318 1.015 . S
C1223 C108 1.046 . S
