# Generated by pormake.
# Topology gar, (4,6)-cn, num edge types: 1
# Building blocks:
#     Node 0, Type 0, BuildingBlock: CEKHIL_clean_sbu_0, # of connection points: 4
#     Node 1, Type 0, BuildingBlock: CEKHIL_clean_sbu_0, # of connection points: 4
#     Node 2, Type 0, BuildingBlock: CEKHIL_clean_sbu_0, # of connection points: 4
#     Node 3, Type 0, BuildingBlock: CEKHIL_clean_sbu_0, # of connection points: 4
#     Node 4, Type 0, BuildingBlock: CEKHIL_clean_sbu_0, # of connection points: 4
#     Node 5, Type 0, BuildingBlock: CEKHIL_clean_sbu_0, # of connection points: 4
#     Node 6, Type 0, BuildingBlock: CEKHIL_clean_sbu_0, # of connection points: 4
#     Node 7, Type 0, BuildingBlock: CEKHIL_clean_sbu_0, # of connection points: 4
#     Node 8, Type 0, BuildingBlock: CEKHIL_clean_sbu_0, # of connection points: 4
#     Node 9, Type 0, BuildingBlock: CEKHIL_clean_sbu_0, # of connection points: 4
#     Node 10, Type 0, BuildingBlock: CEKHIL_clean_sbu_0, # of connection points: 4
#     Node 11, Type 0, BuildingBlock: CEKHIL_clean_sbu_0, # of connection points: 4
#     Node 12, Type 0, BuildingBlock: CEKHIL_clean_sbu_0, # of connection points: 4
#     Node 13, Type 0, BuildingBlock: CEKHIL_clean_sbu_0, # of connection points: 4
#     Node 14, Type 0, BuildingBlock: CEKHIL_clean_sbu_0, # of connection points: 4
#     Node 15, Type 0, BuildingBlock: CEKHIL_clean_sbu_0, # of connection points: 4
#     Node 16, Type 0, BuildingBlock: CEKHIL_clean_sbu_0, # of connection points: 4
#     Node 17, Type 0, BuildingBlock: CEKHIL_clean_sbu_0, # of connection points: 4
#     Node 18, Type 0, BuildingBlock: CEKHIL_clean_sbu_0, # of connection points: 4
#     Node 19, Type 0, BuildingBlock: CEKHIL_clean_sbu_0, # of connection points: 4
#     Node 20, Type 0, BuildingBlock: CEKHIL_clean_sbu_0, # of connection points: 4
#     Node 21, Type 0, BuildingBlock: CEKHIL_clean_sbu_0, # of connection points: 4
#     Node 22, Type 0, BuildingBlock: CEKHIL_clean_sbu_0, # of connection points: 4
#     Node 23, Type 0, BuildingBlock: CEKHIL_clean_sbu_0, # of connection points: 4
#     Node 24, Type 1, BuildingBlock: BETDEL_clean_sbu_0, # of connection points: 6
#     Node 25, Type 1, BuildingBlock: BETDEL_clean_sbu_0, # of connection points: 6
#     Node 26, Type 1, BuildingBlock: BETDEL_clean_sbu_0, # of connection points: 6
#     Node 27, Type 1, BuildingBlock: BETDEL_clean_sbu_0, # of connection points: 6
#     Node 28, Type 1, BuildingBlock: BETDEL_clean_sbu_0, # of connection points: 6
#     Node 29, Type 1, BuildingBlock: BETDEL_clean_sbu_0, # of connection points: 6
#     Node 30, Type 1, BuildingBlock: BETDEL_clean_sbu_0, # of connection points: 6
#     Node 31, Type 1, BuildingBlock: BETDEL_clean_sbu_0, # of connection points: 6
#     Node 32, Type 1, BuildingBlock: BETDEL_clean_sbu_0, # of connection points: 6
#     Node 33, Type 1, BuildingBlock: BETDEL_clean_sbu_0, # of connection points: 6
#     Node 34, Type 1, BuildingBlock: BETDEL_clean_sbu_0, # of connection points: 6
#     Node 35, Type 1, BuildingBlock: BETDEL_clean_sbu_0, # of connection points: 6
#     Node 36, Type 1, BuildingBlock: BETDEL_clean_sbu_0, # of connection points: 6
#     Node 37, Type 1, BuildingBlock: BETDEL_clean_sbu_0, # of connection points: 6
#     Node 38, Type 1, BuildingBlock: BETDEL_clean_sbu_0, # of connection points: 6
#     Node 39, Type 1, BuildingBlock: BETDEL_clean_sbu_0, # of connection points: 6
#     Edge 40, Type (0, 1), BuildingBlock: CIFDUS_clean_linker_0, # of connection points: 2
#     Edge 41, Type (0, 1), BuildingBlock: CIFDUS_clean_linker_0, # of connection points: 2
#     Edge 42, Type (0, 1), BuildingBlock: CIFDUS_clean_linker_0, # of connection points: 2
#     Edge 43, Type (0, 1), BuildingBlock: CIFDUS_clean_linker_0, # of connection points: 2
#     Edge 44, Type (0, 1), BuildingBlock: CIFDUS_clean_linker_0, # of connection points: 2
#     Edge 45, Type (0, 1), BuildingBlock: CIFDUS_clean_linker_0, # of connection points: 2
#     Edge 46, Type (0, 1), BuildingBlock: CIFDUS_clean_linker_0, # of connection points: 2
#     Edge 47, Type (0, 1), BuildingBlock: CIFDUS_clean_linker_0, # of connection points: 2
#     Edge 48, Type (0, 1), BuildingBlock: CIFDUS_clean_linker_0, # of connection points: 2
#     Edge 49, Type (0, 1), BuildingBlock: CIFDUS_clean_linker_0, # of connection points: 2
#     Edge 50, Type (0, 1), BuildingBlock: CIFDUS_clean_linker_0, # of connection points: 2
#     Edge 51, Type (0, 1), BuildingBlock: CIFDUS_clean_linker_0, # of connection points: 2
#     Edge 52, Type (0, 1), BuildingBlock: CIFDUS_clean_linker_0, # of connection points: 2
#     Edge 53, Type (0, 1), BuildingBlock: CIFDUS_clean_linker_0, # of connection points: 2
#     Edge 54, Type (0, 1), BuildingBlock: CIFDUS_clean_linker_0, # of connection points: 2
#     Edge 55, Type (0, 1), BuildingBlock: CIFDUS_clean_linker_0, # of connection points: 2
#     Edge 56, Type (0, 1), BuildingBlock: CIFDUS_clean_linker_0, # of connection points: 2
#     Edge 57, Type (0, 1), BuildingBlock: CIFDUS_clean_linker_0, # of connection points: 2
#     Edge 58, Type (0, 1), BuildingBlock: CIFDUS_clean_linker_0, # of connection points: 2
#     Edge 59, Type (0, 1), BuildingBlock: CIFDUS_clean_linker_0, # of connection points: 2
#     Edge 60, Type (0, 1), BuildingBlock: CIFDUS_clean_linker_0, # of connection points: 2
#     Edge 61, Type (0, 1), BuildingBlock: CIFDUS_clean_linker_0, # of connection points: 2
#     Edge 62, Type (0, 1), BuildingBlock: CIFDUS_clean_linker_0, # of connection points: 2
#     Edge 63, Type (0, 1), BuildingBlock: CIFDUS_clean_linker_0, # of connection points: 2
#     Edge 64, Type (0, 1), BuildingBlock: CIFDUS_clean_linker_0, # of connection points: 2
#     Edge 65, Type (0, 1), BuildingBlock: CIFDUS_clean_linker_0, # of connection points: 2
#     Edge 66, Type (0, 1), BuildingBlock: CIFDUS_clean_linker_0, # of connection points: 2
#     Edge 67, Type (0, 1), BuildingBlock: CIFDUS_clean_linker_0, # of connection points: 2
#     Edge 68, Type (0, 1), BuildingBlock: CIFDUS_clean_linker_0, # of connection points: 2
#     Edge 69, Type (0, 1), BuildingBlock: CIFDUS_clean_linker_0, # of connection points: 2
#     Edge 70, Type (0, 1), BuildingBlock: CIFDUS_clean_linker_0, # of connection points: 2
#     Edge 71, Type (0, 1), BuildingBlock: CIFDUS_clean_linker_0, # of connection points: 2
#     Edge 72, Type (0, 1), BuildingBlock: CIFDUS_clean_linker_0, # of connection points: 2
#     Edge 73, Type (0, 1), BuildingBlock: CIFDUS_clean_linker_0, # of connection points: 2
#     Edge 74, Type (0, 1), BuildingBlock: CIFDUS_clean_linker_0, # of connection points: 2
#     Edge 75, Type (0, 1), BuildingBlock: CIFDUS_clean_linker_0, # of connection points: 2
#     Edge 76, Type (0, 1), BuildingBlock: CIFDUS_clean_linker_0, # of connection points: 2
#     Edge 77, Type (0, 1), BuildingBlock: CIFDUS_clean_linker_0, # of connection points: 2
#     Edge 78, Type (0, 1), BuildingBlock: CIFDUS_clean_linker_0, # of connection points: 2
#     Edge 79, Type (0, 1), BuildingBlock: CIFDUS_clean_linker_0, # of connection points: 2
#     Edge 80, Type (0, 1), BuildingBlock: CIFDUS_clean_linker_0, # of connection points: 2
#     Edge 81, Type (0, 1), BuildingBlock: CIFDUS_clean_linker_0, # of connection points: 2
#     Edge 82, Type (0, 1), BuildingBlock: CIFDUS_clean_linker_0, # of connection points: 2
#     Edge 83, Type (0, 1), BuildingBlock: CIFDUS_clean_linker_0, # of connection points: 2
#     Edge 84, Type (0, 1), BuildingBlock: CIFDUS_clean_linker_0, # of connection points: 2
#     Edge 85, Type (0, 1), BuildingBlock: CIFDUS_clean_linker_0, # of connection points: 2
#     Edge 86, Type (0, 1), BuildingBlock: CIFDUS_clean_linker_0, # of connection points: 2
#     Edge 87, Type (0, 1), BuildingBlock: CIFDUS_clean_linker_0, # of connection points: 2
#     Edge 88, Type (0, 1), BuildingBlock: CIFDUS_clean_linker_0, # of connection points: 2
#     Edge 89, Type (0, 1), BuildingBlock: CIFDUS_clean_linker_0, # of connection points: 2
#     Edge 90, Type (0, 1), BuildingBlock: CIFDUS_clean_linker_0, # of connection points: 2
#     Edge 91, Type (0, 1), BuildingBlock: CIFDUS_clean_linker_0, # of connection points: 2
#     Edge 92, Type (0, 1), BuildingBlock: CIFDUS_clean_linker_0, # of connection points: 2
#     Edge 93, Type (0, 1), BuildingBlock: CIFDUS_clean_linker_0, # of connection points: 2
#     Edge 94, Type (0, 1), BuildingBlock: CIFDUS_clean_linker_0, # of connection points: 2
#     Edge 95, Type (0, 1), BuildingBlock: CIFDUS_clean_linker_0, # of connection points: 2
#     Edge 96, Type (0, 1), BuildingBlock: CIFDUS_clean_linker_0, # of connection points: 2
#     Edge 97, Type (0, 1), BuildingBlock: CIFDUS_clean_linker_0, # of connection points: 2
#     Edge 98, Type (0, 1), BuildingBlock: CIFDUS_clean_linker_0, # of connection points: 2
#     Edge 99, Type (0, 1), BuildingBlock: CIFDUS_clean_linker_0, # of connection points: 2
#     Edge 100, Type (0, 1), BuildingBlock: CIFDUS_clean_linker_0, # of connection points: 2
#     Edge 101, Type (0, 1), BuildingBlock: CIFDUS_clean_linker_0, # of connection points: 2
#     Edge 102, Type (0, 1), BuildingBlock: CIFDUS_clean_linker_0, # of connection points: 2
#     Edge 103, Type (0, 1), BuildingBlock: CIFDUS_clean_linker_0, # of connection points: 2
#     Edge 104, Type (0, 1), BuildingBlock: CIFDUS_clean_linker_0, # of connection points: 2
#     Edge 105, Type (0, 1), BuildingBlock: CIFDUS_clean_linker_0, # of connection points: 2
#     Edge 106, Type (0, 1), BuildingBlock: CIFDUS_clean_linker_0, # of connection points: 2
#     Edge 107, Type (0, 1), BuildingBlock: CIFDUS_clean_linker_0, # of connection points: 2
#     Edge 108, Type (0, 1), BuildingBlock: CIFDUS_clean_linker_0, # of connection points: 2
#     Edge 109, Type (0, 1), BuildingBlock: CIFDUS_clean_linker_0, # of connection points: 2
#     Edge 110, Type (0, 1), BuildingBlock: CIFDUS_clean_linker_0, # of connection points: 2
#     Edge 111, Type (0, 1), BuildingBlock: CIFDUS_clean_linker_0, # of connection points: 2
#     Edge 112, Type (0, 1), BuildingBlock: CIFDUS_clean_linker_0, # of connection points: 2
#     Edge 113, Type (0, 1), BuildingBlock: CIFDUS_clean_linker_0, # of connection points: 2
#     Edge 114, Type (0, 1), BuildingBlock: CIFDUS_clean_linker_0, # of connection points: 2
#     Edge 115, Type (0, 1), BuildingBlock: CIFDUS_clean_linker_0, # of connection points: 2
#     Edge 116, Type (0, 1), BuildingBlock: CIFDUS_clean_linker_0, # of connection points: 2
#     Edge 117, Type (0, 1), BuildingBlock: CIFDUS_clean_linker_0, # of connection points: 2
#     Edge 118, Type (0, 1), BuildingBlock: CIFDUS_clean_linker_0, # of connection points: 2
#     Edge 119, Type (0, 1), BuildingBlock: CIFDUS_clean_linker_0, # of connection points: 2
#     Edge 120, Type (0, 1), BuildingBlock: CIFDUS_clean_linker_0, # of connection points: 2
#     Edge 121, Type (0, 1), BuildingBlock: CIFDUS_clean_linker_0, # of connection points: 2
#     Edge 122, Type (0, 1), BuildingBlock: CIFDUS_clean_linker_0, # of connection points: 2
#     Edge 123, Type (0, 1), BuildingBlock: CIFDUS_clean_linker_0, # of connection points: 2
#     Edge 124, Type (0, 1), BuildingBlock: CIFDUS_clean_linker_0, # of connection points: 2
#     Edge 125, Type (0, 1), BuildingBlock: CIFDUS_clean_linker_0, # of connection points: 2
#     Edge 126, Type (0, 1), BuildingBlock: CIFDUS_clean_linker_0, # of connection points: 2
#     Edge 127, Type (0, 1), BuildingBlock: CIFDUS_clean_linker_0, # of connection points: 2
#     Edge 128, Type (0, 1), BuildingBlock: CIFDUS_clean_linker_0, # of connection points: 2
#     Edge 129, Type (0, 1), BuildingBlock: CIFDUS_clean_linker_0, # of connection points: 2
#     Edge 130, Type (0, 1), BuildingBlock: CIFDUS_clean_linker_0, # of connection points: 2
#     Edge 131, Type (0, 1), BuildingBlock: CIFDUS_clean_linker_0, # of connection points: 2
#     Edge 132, Type (0, 1), BuildingBlock: CIFDUS_clean_linker_0, # of connection points: 2
#     Edge 133, Type (0, 1), BuildingBlock: CIFDUS_clean_linker_0, # of connection points: 2
#     Edge 134, Type (0, 1), BuildingBlock: CIFDUS_clean_linker_0, # of connection points: 2
#     Edge 135, Type (0, 1), BuildingBlock: CIFDUS_clean_linker_0, # of connection points: 2
# Relax obj value: 0.145
# Max RMSD: 0.271
# Mean RMSD: 0.143
data_MOF--net-gar--node1-CEKHIL_clean_sbu_0--node2-BETDEL_clean_sbu_0--edge1-CIFDUS_clean_linker_0
_symmetry_space_group_name_H-M    P1
_symmetry_Int_Tables_number       1
_symmetry_cell_setting            triclinic
loop_
_symmetry_equiv_pos_as_xyz
'x, y, z'
_cell_length_a     49.321197
_cell_length_b     46.239834
_cell_length_c     47.210474
_cell_angle_alpha  95.164451
_cell_angle_beta   92.36909
_cell_angle_gamma 100.29023
loop_
_atom_site_label
_atom_site_type_symbol
_atom_site_fract_x
_atom_site_fract_y
_atom_site_fract_z
_atom_type_partial_charge
Co0 Co 0.04841 0.28373 0.38331 0.0
O1 O 0.0876 0.28488 0.38733 0.0
O2 O 0.06211 0.26658 0.34826 0.0
C3 C 0.05066 0.33114 0.40172 0.0
O4 O 1.00741 0.28116 0.37103 0.0
Co5 Co 0.01576 0.29492 0.43739 0.0
O6 O 0.986 0.29776 0.40892 0.0
C7 C 0.03385 0.23764 0.42554 0.0
C8 C 0.08662 0.27369 0.36108 0.0
C9 C 0.98623 0.28926 0.3825 0.0
O10 O 0.04073 0.24396 0.40028 0.0
O11 O 0.02623 0.25621 0.4439 0.0
O12 O 0.05502 0.3254 0.37503 0.0
O13 O 0.04728 0.30875 0.41635 0.0
Co14 Co 1.00133 0.78016 0.62516 0.0
O15 O 0.96235 0.78195 0.62664 0.0
O16 O 0.98661 0.76627 0.66035 0.0
C17 C 0.01299 0.82612 0.6103 0.0
O18 O 0.04219 0.77659 0.63234 0.0
Co19 Co 0.03146 0.78514 0.5688 0.0
O20 O 0.06541 0.78722 0.59348 0.0
C21 C 0.99415 0.72973 0.57796 0.0
C22 C 0.9631 0.7724 0.65159 0.0
C23 C 0.06487 0.78085 0.6192 0.0
O24 O 0.99272 0.73864 0.60452 0.0
O25 O 1.00586 0.74624 0.55997 0.0
O26 O 0.01051 0.82283 0.6372 0.0
O27 O 1.00711 0.80207 0.59353 0.0
Co28 Co 0.5539 0.78612 0.8904 0.0
O29 O 0.59206 0.78146 0.89495 0.0
O30 O 0.5667 0.77049 0.85458 0.0
C31 C 0.55993 0.83188 0.91402 0.0
O32 O 0.51459 0.78963 0.87641 0.0
Co33 Co 0.51783 0.79506 0.94172 0.0
O34 O 0.49226 0.80662 0.91309 0.0
C35 C 0.53321 0.73683 0.92689 0.0
C36 C 0.59051 0.77197 0.8681 0.0
C37 C 0.49399 0.8002 0.88648 0.0
O38 O 0.54142 0.74482 0.9026 0.0
O39 O 0.52551 0.75457 0.94601 0.0
O40 O 0.56544 0.82874 0.88733 0.0
O41 O 0.55288 0.80775 0.92565 0.0
Co42 Co 0.50073 0.2809 0.12681 0.0
O43 O 0.46166 0.28052 0.13026 0.0
O44 O 0.48961 0.26939 0.16382 0.0
C45 C 0.50952 0.32521 0.10821 0.0
O46 O 0.54189 0.27947 0.1322 0.0
Co47 Co 0.52792 0.28247 0.06864 0.0
O48 O 0.56329 0.28718 0.09173 0.0
C49 C 0.49411 0.22709 0.08382 0.0
C50 C 0.46497 0.27281 0.15574 0.0
C51 C 0.56384 0.28285 0.11802 0.0
O52 O 0.49317 0.23825 0.10971 0.0
O53 O 0.50425 0.24208 0.06398 0.0
O54 O 0.50858 0.32404 0.13559 0.0
O55 O 0.50366 0.30005 0.09312 0.0
Co56 Co 0.04264 0.80303 0.14883 0.0
O57 O 1.0033 0.7954 0.13989 0.0
O58 O 0.0225 0.79175 0.1821 0.0
C59 C 0.04979 0.84568 0.12728 0.0
O60 O 0.08243 0.81011 0.16713 0.0
Co61 Co 0.08515 0.80733 0.10244 0.0
O62 O 0.11296 0.82184 0.13417 0.0
C63 C 0.0557 0.74852 0.11472 0.0
C64 C 1.00001 0.79036 0.16623 0.0
C65 C 0.10745 0.81826 0.15987 0.0
O66 O 0.04447 0.76039 0.13594 0.0
O67 O 0.07113 0.76358 0.09808 0.0
O68 O 0.04198 0.84556 0.15322 0.0
O69 O 0.05206 0.82027 0.11491 0.0
Co70 Co 0.50665 0.76414 0.37324 0.0
O71 O 0.5464 0.76958 0.37427 0.0
O72 O 0.5188 0.74877 0.33715 0.0
C73 C 0.50483 0.81047 0.3917 0.0
O74 O 0.46477 0.75651 0.36337 0.0
Co75 Co 0.47578 0.76901 0.42863 0.0
O76 O 0.44319 0.76893 0.40244 0.0
C77 C 0.50493 0.71955 0.41644 0.0
C78 C 0.54387 0.75785 0.34807 0.0
C79 C 0.44291 0.76145 0.37574 0.0
O80 O 0.50537 0.72493 0.39007 0.0
O81 O 0.49663 0.73652 0.43584 0.0
O82 O 0.50836 0.80495 0.36477 0.0
O83 O 0.50481 0.78856 0.40685 0.0
Co84 Co 0.5466 0.29443 0.647 0.0
O85 O 0.50667 0.28556 0.63874 0.0
O86 O 0.52788 0.27835 0.67884 0.0
C87 C 0.5524 0.33948 0.62986 0.0
O88 O 0.58545 0.30126 0.66629 0.0
Co89 Co 0.59279 0.30866 0.60554 0.0
O90 O 0.61929 0.31924 0.63913 0.0
C91 C 0.56589 0.24614 0.60938 0.0
C92 C 0.50478 0.27757 0.66446 0.0
C93 C 0.61107 0.3112 0.66285 0.0
O94 O 0.55108 0.25377 0.62977 0.0
O95 O 0.58227 0.26474 0.5966 0.0
O96 O 0.54393 0.33628 0.65531 0.0
O97 O 0.55661 0.31583 0.61548 0.0
Co98 Co 0.01721 0.27775 0.884 0.0
O99 O 0.057 0.28597 0.89028 0.0
O100 O 0.03444 0.26266 0.85095 0.0
C101 C 0.01021 0.32317 0.90014 0.0
O102 O 0.97678 0.26691 0.86825 0.0
Co103 Co 0.97744 0.28137 0.93306 0.0
O104 O 0.94803 0.27638 0.90229 0.0
C105 C 0.01331 0.23671 0.92984 0.0
C106 C 0.05797 0.27321 0.86477 0.0
C107 C 0.95251 0.26917 0.87646 0.0
O108 O 0.01624 0.23979 0.90312 0.0
O109 O 1.00092 0.25338 0.9458 0.0
O110 O 0.01761 0.31825 0.87426 0.0
O111 O 0.0094 0.30149 0.91558 0.0
Co112 Co 0.40403 0.0424 0.28511 0.0
O113 O 0.39974 0.08138 0.27568 0.0
O114 O 0.3663 0.04199 0.27356 0.0
C115 C 0.42976 0.05751 0.32605 0.0
O116 O 0.39789 0.99971 0.29337 0.0
Co117 Co 0.45778 0.01808 0.29382 0.0
O118 O 0.43518 0.9822 0.30695 0.0
C119 C 0.43632 0.02581 0.23553 0.0
C120 C 0.3737 0.06981 0.27064 0.0
C121 C 0.40919 0.97905 0.30224 0.0
O122 O 0.41351 0.03159 0.24492 0.0
O123 O 0.45658 0.02212 0.25185 0.0
O124 O 0.40302 0.05471 0.32571 0.0
O125 O 0.44008 0.05207 0.30195 0.0
Co126 Co 0.27527 0.14695 0.48047 0.0
O127 O 0.3153 0.15466 0.48405 0.0
O128 O 0.28908 0.11251 0.49161 0.0
C129 C 0.27242 0.16672 0.43779 0.0
O130 O 0.23412 0.12837 0.47784 0.0
Co131 Co 0.2395 0.1944 0.47837 0.0
O132 O 0.20698 0.16199 0.47365 0.0
C133 C 0.26375 0.18452 0.53415 0.0
C134 C 0.31377 0.12769 0.49051 0.0
C135 C 0.21014 0.13546 0.47517 0.0
O136 O 0.27354 0.16261 0.52217 0.0
O137 O 0.25096 0.20083 0.52003 0.0
O138 O 0.2762 0.13972 0.43885 0.0
O139 O 0.27152 0.18138 0.46228 0.0
Co140 Co 0.15519 0.00917 0.79461 0.0
O141 O 0.14822 0.96703 0.78266 0.0
O142 O 0.18871 0.99639 0.78259 0.0
C143 C 0.13129 0.00429 0.83485 0.0
O144 O 0.1726 0.05262 0.80525 0.0
Co145 Co 0.11127 0.04834 0.8059 0.0
O146 O 0.14207 0.08224 0.81462 0.0
C147 C 0.12418 0.03048 0.74638 0.0
C148 C 0.17436 0.96984 0.77813 0.0
C149 C 0.16672 0.07834 0.8117 0.0
O150 O 0.1445 0.01843 0.75473 0.0
O151 O 0.10795 0.0407 0.76352 0.0
O152 O 0.15688 1.00075 0.83493 0.0
O153 O 0.12112 0.01048 0.81113 0.0
Co154 Co 0.24859 0.89112 0.98737 0.0
O155 O 0.21078 0.89226 0.99407 0.0
O156 O 0.24578 0.92924 0.00638 0.0
C157 C 0.24187 0.8711 0.94214 0.0
O158 O 0.28999 0.89843 0.98302 0.0
Co159 Co 0.26815 0.83117 0.9723 0.0
O160 O 0.30415 0.85647 0.96705 0.0
C161 C 0.25324 0.84789 0.03061 0.0
C162 C 0.21939 0.91904 0.00572 0.0
C163 C 0.30869 0.88422 0.97419 0.0
O164 O 0.25299 0.87452 0.02484 0.0
O165 O 0.25602 0.82705 0.01183 0.0
O166 O 0.24319 0.89939 0.94793 0.0
O167 O 0.24187 0.85595 0.96368 0.0
Co168 Co 0.27063 0.39748 0.01385 0.0
O169 O 0.23055 0.39449 0.01083 0.0
O170 O 0.25966 0.43411 0.02912 0.0
C171 C 0.27405 0.37675 0.96872 0.0
O172 O 0.31305 0.41125 0.01859 0.0
Co173 Co 0.30057 0.3444 0.00779 0.0
O174 O 0.33279 0.37438 0.99985 0.0
C175 C 0.27183 0.35536 0.06026 0.0
C176 C 0.23422 0.42172 0.02197 0.0
C177 C 0.33416 0.40147 0.00874 0.0
O178 O 0.26841 0.38084 0.05282 0.0
O179 O 0.28233 0.33693 0.04429 0.0
O180 O 0.2722 0.40446 0.97331 0.0
O181 O 0.27194 0.36219 0.99079 0.0
Co182 Co 0.77857 0.13397 0.00561 0.0
O183 O 0.81798 0.13678 0.00866 0.0
O184 O 0.78761 0.09754 0.01713 0.0
C185 C 0.77791 0.15291 0.9634 0.0
O186 O 0.73671 0.12178 0.00348 0.0
Co187 Co 0.75013 0.18874 1.00069 0.0
O188 O 0.7151 0.15991 0.9971 0.0
C189 C 0.77968 0.18012 0.05412 0.0
C190 C 0.81325 0.10964 0.01499 0.0
C191 C 0.71475 0.13273 0.99988 0.0
O192 O 0.77918 0.15256 0.04615 0.0
O193 O 0.77252 0.19822 0.03756 0.0
O194 O 0.77879 0.12503 0.96415 0.0
O195 O 0.77866 0.16807 0.98766 0.0
Co196 Co 0.14471 0.50124 0.24856 0.0
O197 O 0.15238 0.46196 0.24774 0.0
O198 O 0.18091 0.50086 0.23488 0.0
C199 C 0.12829 0.50105 0.29195 0.0
O200 O 0.14548 0.54506 0.24805 0.0
Co201 Co 0.08652 0.51695 0.25605 0.0
O202 O 0.10693 0.55823 0.26448 0.0
C203 C 0.10084 0.48862 0.20102 0.0
C204 C 0.1764 0.47315 0.23933 0.0
C205 C 0.1315 0.56472 0.25665 0.0
O206 O 0.12669 0.49313 0.20891 0.0
O207 O 0.08199 0.49365 0.21769 0.0
O208 O 0.15478 0.50737 0.28949 0.0
O209 O 0.113 0.49413 0.26878 0.0
Co210 Co 0.7643 0.89718 0.52021 0.0
O211 O 0.72427 0.8905 0.51796 0.0
O212 O 0.75071 0.93204 0.53631 0.0
C213 C 0.76854 0.88003 0.47408 0.0
O214 O 0.80628 0.91337 0.52446 0.0
Co215 Co 0.79588 0.8452 0.51101 0.0
O216 O 0.82739 0.87724 0.5062 0.0
C217 C 0.76765 0.85301 0.5644 0.0
C218 C 0.72595 0.91754 0.52894 0.0
C219 C 0.82792 0.90417 0.51529 0.0
O220 O 0.76424 0.87904 0.5585 0.0
O221 O 0.77748 0.83531 0.54691 0.0
O222 O 0.76448 0.90672 0.48062 0.0
O223 O 0.76749 0.86381 0.49504 0.0
Co224 Co 0.89382 0.04885 0.24513 0.0
O225 O 0.90169 0.09167 0.25149 0.0
O226 O 0.8618 0.06546 0.23398 0.0
C227 C 0.91254 0.04114 0.288 0.0
O228 O 0.8763 0.00474 0.23734 0.0
Co229 Co 0.93857 0.00882 0.2471 0.0
O230 O 0.90673 0.97697 0.25063 0.0
C231 C 0.93229 0.04272 0.19727 0.0
C232 C 0.8763 0.09129 0.24269 0.0
C233 C 0.8823 0.9797 0.24304 0.0
O234 O 0.90954 0.05023 0.20558 0.0
O235 O 0.94707 0.02903 0.21229 0.0
O236 O 0.88758 0.04663 0.28614 0.0
O237 O 0.92526 0.0422 0.26488 0.0
Co238 Co 0.29126 0.63277 0.51999 0.0
O239 O 0.33055 0.63783 0.52618 0.0
O240 O 0.30094 0.59699 0.53234 0.0
C241 C 0.29276 0.65184 0.47778 0.0
O242 O 0.24954 0.61892 0.51504 0.0
Co243 Co 0.26055 0.68523 0.51098 0.0
O244 O 0.23003 0.65335 0.49536 0.0
C245 C 0.28225 0.67556 0.56874 0.0
C246 C 0.32637 0.61072 0.53251 0.0
C247 C 0.22894 0.62744 0.50284 0.0
O248 O 0.28843 0.6504 0.56018 0.0
O249 O 0.27319 0.69252 0.55207 0.0
O250 O 0.29454 0.62424 0.47888 0.0
O251 O 0.29145 0.66675 0.50182 0.0
Co252 Co 0.38765 0.54726 0.73909 0.0
O253 O 0.39133 0.5901 0.74483 0.0
O254 O 0.35509 0.55988 0.72356 0.0
C255 C 0.40299 0.54075 0.78401 0.0
O256 O 0.37377 0.50285 0.73088 0.0
Co257 Co 0.43582 0.51267 0.7447 0.0
O258 O 0.40589 0.47766 0.74514 0.0
C259 C 0.43027 0.54509 0.69425 0.0
C260 C 0.36658 0.58671 0.73282 0.0
C261 C 0.3813 0.47857 0.73633 0.0
O262 O 0.406 0.54934 0.70101 0.0
O263 O 0.44613 0.53361 0.71026 0.0
O264 O 0.3778 0.5446 0.77899 0.0
O265 O 0.41836 0.5433 0.76263 0.0
Co266 Co 0.64703 0.02063 0.74659 0.0
O267 O 0.64099 0.97928 0.75245 0.0
O268 O 0.6795 0.00473 0.73781 0.0
C269 C 0.62929 0.03537 0.78733 0.0
O270 O 0.66247 0.06279 0.73929 0.0
Co271 Co 0.60137 0.05826 0.74197 0.0
O272 O 0.63136 0.09268 0.73935 0.0
C273 C 0.60411 0.00798 0.69997 0.0
C274 C 0.66613 0.97987 0.74487 0.0
C275 C 0.65604 0.08833 0.73767 0.0
O276 O 0.63004 0.01006 0.70661 0.0
O277 O 0.58856 0.02255 0.71413 0.0
O278 O 0.65477 0.03136 0.78767 0.0
O279 O 0.61563 0.02953 0.76309 0.0
Co280 Co 0.77554 0.65807 0.98412 0.0
O281 O 0.81573 0.66551 0.98703 0.0
O282 O 0.78979 0.6228 0.99285 0.0
C283 C 0.77185 0.68123 0.94302 0.0
O284 O 0.7337 0.64038 0.98239 0.0
Co285 Co 0.74137 0.70845 0.9858 0.0
O286 O 0.70879 0.67633 0.97922 0.0
C287 C 0.76607 0.69373 0.03981 0.0
C288 C 0.8145 0.63822 0.99231 0.0
C289 C 0.7103 0.64926 0.9806 0.0
O290 O 0.77466 0.67159 0.02659 0.0
O291 O 0.75416 0.7117 0.02696 0.0
O292 O 0.77599 0.65414 0.94173 0.0
O293 O 0.77153 0.69351 0.96857 0.0
Co294 Co 0.92543 0.55726 0.79619 0.0
O295 O 0.92329 0.59487 0.78249 0.0
O296 O 0.88819 0.55743 0.78317 0.0
C297 C 0.95093 0.5755 0.83631 0.0
O298 O 0.918 0.51596 0.80863 0.0
Co299 Co 0.97867 0.53265 0.80802 0.0
O300 O 0.95515 0.49846 0.8229 0.0
C301 C 0.9572 0.53513 0.74872 0.0
C302 C 0.89711 0.5842 0.77727 0.0
C303 C 0.92912 0.49574 0.8188 0.0
O304 O 0.93458 0.54184 0.75747 0.0
O305 O 0.97764 0.53284 0.76549 0.0
O306 O 0.92429 0.57396 0.83532 0.0
O307 O 0.96133 0.56725 0.813 0.0
Co308 Co 0.75595 0.40809 0.4779 0.0
O309 O 0.7201 0.41432 0.48938 0.0
O310 O 0.75815 0.44866 0.4922 0.0
C311 C 0.74052 0.38197 0.43609 0.0
O312 O 0.79598 0.41222 0.46848 0.0
Co313 Co 0.77452 0.34815 0.46325 0.0
O314 O 0.80931 0.37087 0.45072 0.0
C315 C 0.76945 0.37127 0.52367 0.0
C316 C 0.73198 0.44175 0.49584 0.0
C317 C 0.81424 0.39857 0.45789 0.0
O318 O 0.76519 0.39641 0.5166 0.0
O319 O 0.77131 0.34947 0.50551 0.0
O320 O 0.74503 0.41068 0.43804 0.0
O321 O 0.74485 0.37011 0.45906 0.0
Co322 Co 0.65695 0.50851 0.29391 0.0
O323 O 0.65554 0.46625 0.28303 0.0
O324 O 0.69324 0.5004 0.28649 0.0
C325 C 0.62955 0.50307 0.33221 0.0
O326 O 0.67001 0.55266 0.3046 0.0
Co327 Co 0.60875 0.54298 0.29791 0.0
O328 O 0.63653 0.57938 0.30883 0.0
C329 C 0.6288 0.5264 0.24111 0.0
C330 C 0.68225 0.47274 0.28148 0.0
C331 C 0.66195 0.57748 0.30935 0.0
O332 O 0.64894 0.51584 0.25239 0.0
O333 O 0.61029 0.53579 0.25573 0.0
O334 O 0.65558 0.50133 0.33474 0.0
O335 O 0.6209 0.50704 0.30699 0.0
Dy336 Dy 1.00294 0.02899 0.00682 0.0
C337 C 0.11629 0.02867 0.03036 0.0
C338 C 0.95408 0.04763 0.01226 0.0
Dy339 Dy 0.06618 0.04494 0.02899 0.0
O340 O 0.95677 0.02366 0.99635 0.0
O341 O 0.97757 0.06026 0.0249 0.0
O342 O 0.01332 1.00232 0.96692 0.0
O343 O 0.04244 0.03606 0.98892 0.0
C344 C 0.03941 0.01518 0.96948 0.0
C345 C 0.02904 0.05752 0.06665 0.0
O346 O 0.06487 0.08422 0.00405 0.0
O347 O 0.01713 0.07471 0.99316 0.0
O348 O 0.11193 0.05382 0.04265 0.0
O349 O 0.09388 0.01376 0.01727 0.0
O350 O 0.05504 0.07035 0.06913 0.0
O351 O 0.02681 0.03709 0.04687 0.0
O352 O 1.0047 0.98929 0.03089 0.0
O353 O 0.0527 0.99737 0.03836 0.0
C354 C 0.04195 0.09175 0.99338 0.0
C355 C 0.02787 0.98067 0.03944 0.0
Dy356 Dy 0.27091 0.77683 0.23656 0.0
C357 C 0.26857 0.74926 0.35243 0.0
C358 C 0.2634 0.78759 0.18178 0.0
Dy359 Dy 0.26246 0.77324 0.30299 0.0
O360 O 0.268 0.76264 0.18978 0.0
O361 O 0.2633 0.80672 0.20365 0.0
O362 O 0.31472 0.76689 0.23697 0.0
O363 O 0.29339 0.76815 0.27334 0.0
C364 C 0.31616 0.76442 0.26422 0.0
C365 C 0.22437 0.79653 0.27452 0.0
O366 O 0.29473 0.81394 0.30304 0.0
O367 O 0.28422 0.82337 0.25648 0.0
O368 O 0.26117 0.77481 0.35072 0.0
O369 O 0.2725 0.7373 0.32743 0.0
O370 O 0.22898 0.80099 0.30218 0.0
O371 O 0.23728 0.77683 0.26508 0.0
O372 O 0.24347 0.7323 0.2356 0.0
O373 O 0.23845 0.72943 0.28444 0.0
C374 C 0.2964 0.83161 0.28229 0.0
C375 C 0.23381 0.71816 0.25744 0.0
Dy376 Dy 0.54985 0.02277 0.50606 0.0
C377 C 0.43549 0.0363 0.51409 0.0
C378 C 0.60001 0.00484 0.51214 0.0
Dy379 Dy 0.4849 0.01727 0.51916 0.0
O380 O 0.5963 0.02902 0.50132 0.0
O381 O 0.57646 0.99093 0.51939 0.0
O382 O 0.54315 0.04558 0.46635 0.0
O383 O 0.51063 0.01794 0.48305 0.0
C384 C 0.51639 0.03628 0.46523 0.0
C385 C 0.51918 0.00405 0.5595 0.0
O386 O 0.48284 0.97332 0.49408 0.0
O387 O 0.53061 0.97525 0.49097 0.0
O388 O 0.43913 0.01311 0.52674 0.0
O389 O 0.45853 0.04827 0.50418 0.0
O390 O 0.49251 0.99454 0.55908 0.0
O391 O 0.5241 0.02223 0.54158 0.0
O392 O 0.55078 0.06662 0.53247 0.0
O393 O 0.50305 0.06471 0.53339 0.0
C394 C 0.50446 0.96104 0.4873 0.0
C395 C 0.52891 0.079 0.53864 0.0
Dy396 Dy 0.2452 0.27643 0.7573 0.0
C397 C 0.35756 0.2723 0.7325 0.0
C398 C 0.1929 0.27286 0.77613 0.0
Dy399 Dy 0.30687 0.26505 0.75564 0.0
O400 O 0.20063 0.28241 0.75204 0.0
O401 O 0.21356 0.26511 0.78946 0.0
O402 O 0.25701 0.31959 0.73722 0.0
O403 O 0.2862 0.30255 0.76029 0.0
C404 C 0.28324 0.32201 0.74419 0.0
C405 C 0.26946 0.22072 0.77143 0.0
O406 O 0.30913 0.2907 0.79935 0.0
O407 O 0.26154 0.28624 0.80318 0.0
O408 O 0.35078 0.25614 0.75339 0.0
O409 O 0.33703 0.2847 0.7253 0.0
O410 O 0.2958 0.22387 0.7786 0.0
O411 O 0.26579 0.23865 0.7537 0.0
O412 O 0.24263 0.2517 0.7136 0.0
O413 O 0.28969 0.25166 0.71011 0.0
C414 C 0.28729 0.29365 0.81453 0.0
C415 C 0.26397 0.24677 0.69866 0.0
Dy416 Dy 1.00839 0.01599 0.48421 0.0
C417 C 0.0559 0.05368 0.59682 0.0
C418 C 0.973 0.00508 0.43699 0.0
Dy419 Dy 0.02479 0.04186 0.5466 0.0
O420 O 0.99853 1.00099 0.43754 0.0
O421 O 0.96684 0.01411 0.46233 0.0
O422 O 0.05322 0.0159 0.47484 0.0
O423 O 0.04288 0.04631 0.50595 0.0
C424 C 0.06286 0.03665 0.49528 0.0
C425 C 0.97031 0.02153 0.53528 0.0
O426 O 0.02582 0.08464 0.52687 0.0
O427 O 1.00488 0.06415 0.48281 0.0
O428 O 0.06212 0.03866 0.57425 0.0
O429 O 0.03289 0.06296 0.59178 0.0
O430 O 0.98006 0.04259 0.55525 0.0
O431 O 0.99015 0.01115 0.52508 0.0
O432 O 0.0109 0.97326 0.5027 0.0
O433 O 0.03137 0.99481 0.54671 0.0
C434 C 0.01476 0.08749 0.50128 0.0
C435 C 0.0227 0.97125 0.52817 0.0
Dy436 Dy 0.30913 0.80113 0.7672 0.0
C437 C 0.1977 0.75632 0.71282 0.0
C438 C 0.35431 0.81983 0.80408 0.0
Dy439 Dy 0.2487 0.76782 0.74196 0.0
O440 O 0.35332 0.82444 0.77719 0.0
O441 O 0.33025 0.80654 0.81087 0.0
O442 O 0.32695 0.78343 0.72731 0.0
O443 O 0.28642 0.79117 0.72641 0.0
C444 C 0.30391 0.78074 0.71211 0.0
C445 C 0.25829 0.77483 0.79884 0.0
O446 O 0.27305 0.73054 0.73807 0.0
O447 O 0.30622 0.75316 0.77356 0.0
O448 O 0.20209 0.75685 0.74019 0.0
O449 O 0.22135 0.76061 0.70113 0.0
O450 O 0.241 0.75253 0.78576 0.0
O451 O 0.26765 0.79164 0.78086 0.0
O452 O 0.28918 0.84122 0.76432 0.0
O453 O 0.24586 0.81632 0.74438 0.0
C454 C 0.29474 0.72988 0.75576 0.0
C455 C 0.26329 0.84101 0.75445 0.0
Dy456 Dy 0.50271 0.01944 0.02345 0.0
C457 C 0.52745 0.04388 0.9113 0.0
C458 C 0.48821 0.01582 0.0782 0.0
Dy459 Dy 0.50718 0.03422 0.963 0.0
O460 O 0.50886 0.00577 0.06732 0.0
O461 O 0.47548 0.02796 0.0592 0.0
O462 O 0.52996 0.98532 0.01665 0.0
O463 O 0.50471 0.99345 0.98278 0.0
C464 C 0.52366 0.97998 0.98946 0.0
C465 C 0.4852 0.07313 0.99624 0.0
O466 O 0.46568 0.00511 0.95688 0.0
O467 O 0.45975 1.00113 0.00514 0.0
O468 O 0.50661 0.02351 0.91546 0.0
O469 O 0.53662 0.05924 0.9351 0.0
O470 O 0.47918 0.06695 0.96909 0.0
O471 O 0.50477 0.0606 0.00352 0.0
O472 O 0.54211 0.05208 0.02723 0.0
O473 O 0.55089 0.03951 0.98081 0.0
C474 C 0.4504 0.99659 0.97809 0.0
C475 C 0.55943 0.05195 0.00667 0.0
Dy476 Dy 0.2812 0.30483 0.26856 0.0
C477 C 0.28044 0.185 0.23267 0.0
C478 C 0.27358 0.36163 0.26896 0.0
Dy479 Dy 0.2712 0.2414 0.24363 0.0
O480 O 0.2822 0.35024 0.29117 0.0
O481 O 0.26965 0.34214 0.24705 0.0
O482 O 0.30413 0.29549 0.30742 0.0
O483 O 0.27219 0.2627 0.28732 0.0
C484 C 0.29113 0.26821 0.30718 0.0
C485 C 0.26389 0.28054 0.20617 0.0
O486 O 0.22828 0.24016 0.2585 0.0
O487 O 0.23538 0.29049 0.27287 0.0
O488 O 0.28168 0.20439 0.21433 0.0
O489 O 0.27229 0.19592 0.25643 0.0
O490 O 0.24904 0.25402 0.20463 0.0
O491 O 0.28207 0.28326 0.22622 0.0
O492 O 0.32335 0.30505 0.25293 0.0
O493 O 0.31791 0.25412 0.24701 0.0
C494 C 0.21923 0.26399 0.26926 0.0
C495 C 0.33352 0.28068 0.24705 0.0
Dy496 Dy 0.51653 0.51066 0.97265 0.0
C497 C 0.56863 0.54731 0.08684 0.0
C498 C 0.48612 0.50309 0.92145 0.0
Dy499 Dy 0.53547 0.53535 0.03759 0.0
O500 O 0.51059 0.49663 0.92528 0.0
O501 O 0.47793 0.51246 0.94583 0.0
O502 O 0.56092 0.50691 0.9649 0.0
O503 O 0.55256 0.53867 0.99569 0.0
C504 C 0.57179 0.52759 0.98489 0.0
C505 C 0.48048 0.51237 0.03155 0.0
O506 O 0.53419 0.57837 0.01917 0.0
O507 O 0.51574 0.55953 0.97325 0.0
O508 O 0.54836 0.56077 0.08054 0.0
O509 O 0.5713 0.52811 0.06575 0.0
O510 O 0.49285 0.52528 0.05547 0.0
O511 O 0.49837 0.51404 0.01325 0.0
O512 O 0.51235 0.4682 0.99349 0.0
O513 O 0.54086 0.48804 0.03375 0.0
C514 C 0.52437 0.58195 0.9932 0.0
C515 C 0.52616 0.46517 0.01759 0.0
Dy516 Dy 0.80559 0.29776 0.2555 0.0
C517 C 0.69561 0.25119 0.20684 0.0
C518 C 0.8547 0.31028 0.28725 0.0
Dy519 Dy 0.74494 0.26381 0.23824 0.0
O520 O 0.85062 0.31951 0.26237 0.0
O521 O 0.83163 0.29581 0.29514 0.0
O522 O 0.81303 0.30411 0.20972 0.0
O523 O 0.78537 0.26726 0.22046 0.0
C524 C 0.79483 0.28087 0.20008 0.0
C525 C 0.75614 0.28358 0.29375 0.0
O526 O 0.76505 0.22386 0.23921 0.0
O527 O 0.80712 0.24934 0.26052 0.0
O528 O 0.69946 0.24387 0.23254 0.0
O529 O 0.71901 0.26371 0.19799 0.0
O530 O 0.73632 0.26148 0.28517 0.0
O531 O 0.76568 0.29454 0.27228 0.0
O532 O 0.78296 0.33684 0.25602 0.0
O533 O 0.74428 0.31083 0.22911 0.0
C534 C 0.79015 0.22415 0.25097 0.0
C535 C 0.75899 0.33613 0.24131 0.0
Dy536 Dy 0.01825 0.51664 0.53595 0.0
C537 C 0.03783 0.53236 0.42089 0.0
C538 C 1.00568 0.51598 0.59129 0.0
Dy539 Dy 0.02064 0.52876 0.47467 0.0
O540 O 0.02398 0.50257 0.57965 0.0
O541 O 0.99436 0.52996 0.5728 0.0
O542 O 0.04219 0.48032 0.52996 0.0
O543 O 0.01656 0.48818 0.49595 0.0
C544 C 0.03479 0.47373 0.50313 0.0
C545 C 1.00512 0.57117 0.50978 0.0
O546 O 0.9778 0.50333 0.47071 0.0
O547 O 0.97365 0.50314 0.5196 0.0
O548 O 0.03936 0.55471 0.43993 0.0
O549 O 0.02562 0.50851 0.43084 0.0
O550 O 0.99552 0.56462 0.48342 0.0
O551 O 0.02366 0.55657 0.5149 0.0
O552 O 0.06059 0.54407 0.53737 0.0
O553 O 0.06492 0.53294 0.48942 0.0
C554 C 0.96299 0.49769 0.49293 0.0
C555 C 0.07597 0.54328 0.51509 0.0
Dy556 Dy 0.74473 0.77817 0.26417 0.0
C557 C 0.85922 0.77014 0.24775 0.0
C558 C 0.69341 0.76971 0.28544 0.0
Dy559 Dy 0.80605 0.76589 0.26434 0.0
O560 O 0.69939 0.78249 0.26229 0.0
O561 O 0.71517 0.76167 0.29618 0.0
O562 O 0.75671 0.82123 0.24441 0.0
O563 O 0.78595 0.80415 0.26801 0.0
C564 C 0.78296 0.82359 0.25168 0.0
C565 C 0.76706 0.72149 0.2776 0.0
O566 O 0.80755 0.79004 0.30854 0.0
O567 O 0.76047 0.79142 0.30984 0.0
O568 O 0.84961 0.75658 0.26931 0.0
O569 O 0.83993 0.78148 0.23581 0.0
O570 O 0.79301 0.72394 0.28587 0.0
O571 O 0.76477 0.74017 0.26034 0.0
O572 O 0.74363 0.7552 0.21993 0.0
O573 O 0.79081 0.7545 0.21791 0.0
C574 C 0.7857 0.79565 0.32233 0.0
C575 C 0.76542 0.7504 0.20561 0.0
Dy576 Dy 0.79562 0.30371 0.73097 0.0
C577 C 0.78575 0.26019 0.84104 0.0
C578 C 0.79355 0.31768 0.67645 0.0
Dy579 Dy 0.78527 0.28514 0.79123 0.0
O580 O 0.78875 0.33458 0.69842 0.0
O581 O 0.79967 0.29331 0.68428 0.0
O582 O 0.84129 0.30557 0.73748 0.0
O583 O 0.81403 0.27635 0.7591 0.0
C584 C 0.83915 0.28749 0.75709 0.0
C585 C 0.74276 0.30401 0.76513 0.0
O586 O 0.81654 0.32708 0.80072 0.0
O587 O 0.809 0.34656 0.75781 0.0
O588 O 0.78156 0.28695 0.83886 0.0
O589 O 0.79006 0.24779 0.81642 0.0
O590 O 0.73944 0.28533 0.78421 0.0
O591 O 0.76812 0.31344 0.76363 0.0
O592 O 0.76202 0.26344 0.72271 0.0
O593 O 0.77085 0.24295 0.76418 0.0
C594 C 0.81943 0.34932 0.7845 0.0
C595 C 0.75873 0.24098 0.73849 0.0
Dy596 Dy 0.76972 0.80019 0.75802 0.0
C597 C 0.78211 0.67665 0.74218 0.0
C598 C 0.75552 0.8533 0.75184 0.0
Dy599 Dy 0.76775 0.7307 0.7424 0.0
O600 O 0.77815 0.85014 0.76579 0.0
O601 O 0.74174 0.82786 0.74113 0.0
O602 O 0.77046 0.79414 0.80517 0.0
O603 O 0.78529 0.76428 0.77675 0.0
C604 C 0.77873 0.76884 0.80216 0.0
C605 C 0.75036 0.757 0.69743 0.0
O606 O 0.7285 0.72991 0.76556 0.0
O607 O 0.72601 0.77999 0.76533 0.0
O608 O 0.76583 0.6867 0.76013 0.0
O609 O 0.78917 0.69556 0.72395 0.0
O610 O 0.74976 0.72865 0.69675 0.0
O611 O 0.7581 0.76767 0.72245 0.0
O612 O 0.80871 0.8007 0.73452 0.0
O613 O 0.81216 0.75127 0.73723 0.0
C614 C 0.71551 0.7526 0.77038 0.0
C615 C 0.82226 0.77829 0.73054 0.0
Dy616 Dy 0.5068 0.52205 0.50981 0.0
C617 C 0.62149 0.53703 0.54278 0.0
C618 C 0.45441 0.53224 0.51215 0.0
Dy619 Dy 0.56735 0.54047 0.53242 0.0
O620 O 0.46074 0.5085 0.49882 0.0
O621 O 0.47651 0.54991 0.52293 0.0
O622 O 0.51712 0.49255 0.47227 0.0
O623 O 0.54644 0.5283 0.49066 0.0
C624 C 0.54313 0.50533 0.47337 0.0
C625 C 0.53068 0.55748 0.56777 0.0
O626 O 0.56436 0.58129 0.51054 0.0
O627 O 0.51804 0.56709 0.49458 0.0
O628 O 0.6024 0.53274 0.56083 0.0
O629 O 0.61122 0.54521 0.51967 0.0
O630 O 0.5558 0.57206 0.56688 0.0
O631 O 0.52788 0.53356 0.55181 0.0
O632 O 0.50965 0.48536 0.53699 0.0
O633 O 0.55721 0.49143 0.5373 0.0
C634 C 0.54163 0.58635 0.49714 0.0
C635 C 0.53296 0.47607 0.54296 0.0
Dy636 Dy 0.05005 0.51956 0.01789 0.0
C637 C 0.93848 0.54976 0.02141 0.0
C638 C 0.09772 0.49567 0.01444 0.0
Dy639 Dy 0.98653 0.52718 0.02702 0.0
O640 O 0.07776 0.49239 0.99492 0.0
O641 O 0.09207 0.51293 0.03592 0.0
O642 O 0.05065 0.54845 0.98115 0.0
O643 O 0.01385 0.52395 0.99289 0.0
C644 C 0.02379 0.54327 0.97753 0.0
C645 C 0.01064 0.50169 0.06722 0.0
O646 O 0.9818 0.48564 0.99725 0.0
O647 O 0.02403 0.47391 0.01154 0.0
O648 O 0.94009 0.52373 0.02927 0.0
O649 O 0.96313 0.56331 0.01683 0.0
O650 O 0.98386 0.49873 0.06354 0.0
O651 O 0.02218 0.52119 0.05253 0.0
O652 O 0.05788 0.56445 0.04243 0.0
O653 O 0.01181 0.57145 0.04378 0.0
C654 C 0.9989 0.46656 0.9988 0.0
C655 C 0.03889 0.58088 0.04885 0.0
H656 H 0.02144 0.18214 0.9068 0.0
H657 H 0.03105 0.23982 0.98509 0.0
H658 H 0.04457 0.2013 0.01127 0.0
H659 H 0.04875 0.1494 0.0133 0.0
H660 H 0.03691 0.0904 0.93619 0.0
H661 H 0.0297 0.1309 0.90828 0.0
C662 C 0.02695 0.18634 0.92946 0.0
C663 C 0.0248 0.21371 0.94394 0.0
C664 C 0.0343 0.16372 0.94474 0.0
C665 C 0.03201 0.21879 0.97341 0.0
C666 C 0.03985 0.19678 0.98849 0.0
C667 C 0.04539 0.14576 0.9903 0.0
C668 C 0.04374 0.1173 0.97666 0.0
C669 C 0.04038 0.16892 0.97459 0.0
C670 C 0.03862 0.11242 0.94696 0.0
C671 C 0.03429 0.13549 0.93106 0.0
H672 H 0.10817 0.80212 0.21497 0.0
H673 H 0.1615 0.83985 0.15221 0.0
H674 H 0.2019 0.83779 0.18254 0.0
H675 H 0.22271 0.82247 0.22554 0.0
H676 H 0.17076 0.78527 0.28895 0.0
H677 H 0.1295 0.79051 0.26031 0.0
C678 C 0.12858 0.81035 0.20812 0.0
C679 C 0.13148 0.82083 0.18101 0.0
C680 C 0.15216 0.80909 0.22583 0.0
C681 C 0.15832 0.83138 0.17271 0.0
C682 C 0.18163 0.83021 0.19007 0.0
C683 C 0.20237 0.81545 0.23296 0.0
C684 C 0.19976 0.8031 0.259 0.0
C685 C 0.17886 0.81854 0.21637 0.0
C686 C 0.17327 0.79492 0.26893 0.0
C687 C 0.14968 0.79777 0.25247 0.0
H688 H 0.48095 0.82633 0.44024 0.0
H689 H 0.52803 0.86206 0.37231 0.0
H690 H 0.53189 0.91195 0.39595 0.0
H691 H 0.524 0.94517 0.43717 0.0
H692 H 0.47373 0.9107 0.50325 0.0
H693 H 0.46881 0.86049 0.47918 0.0
C694 C 0.49184 0.84512 0.43058 0.0
C695 C 0.50443 0.84059 0.40475 0.0
C696 C 0.4935 0.87385 0.44403 0.0
C697 C 0.51816 0.86505 0.39217 0.0
C698 C 0.52049 0.89355 0.40573 0.0
C699 C 0.51187 0.9266 0.44614 0.0
C700 C 0.49953 0.93127 0.472 0.0
C701 C 0.5086 0.89815 0.43184 0.0
C702 C 0.48343 0.90737 0.48334 0.0
C703 C 0.4807 0.87876 0.46963 0.0
H704 H 0.45637 0.29531 0.65091 0.0
H705 H 0.49351 0.24577 0.70986 0.0
H706 H 0.45146 0.23912 0.73612 0.0
H707 H 0.40428 0.2491 0.74362 0.0
H708 H 0.3687 0.30111 0.6858 0.0
H709 H 0.40964 0.30517 0.65825 0.0
C710 C 0.4551 0.28267 0.66924 0.0
C711 C 0.47802 0.27084 0.67819 0.0
C712 C 0.43109 0.27968 0.68481 0.0
C713 C 0.47615 0.25502 0.70238 0.0
C714 C 0.45211 0.25131 0.71753 0.0
C715 C 0.40557 0.26133 0.72502 0.0
C716 C 0.38339 0.27482 0.71691 0.0
C717 C 0.42951 0.26388 0.70921 0.0
C718 C 0.38543 0.29058 0.69269 0.0
C719 C 0.40886 0.29286 0.67678 0.0
H720 H 1.00894 0.8379 0.55505 0.0
H721 H 0.03089 0.88019 0.64018 0.0
H722 H 0.03798 0.92864 0.62175 0.0
H723 H 0.03523 0.95893 0.58204 0.0
H724 H 0.01074 0.91684 0.49718 0.0
H725 H 1.00753 0.86831 0.51496 0.0
C726 C 0.01554 0.8577 0.56957 0.0
C727 C 0.01937 0.8554 0.59902 0.0
C728 C 0.019 0.8855 0.55888 0.0
C729 C 0.02776 0.8813 0.61749 0.0
C730 C 0.03178 0.90902 0.60694 0.0
C731 C 0.02947 0.93921 0.56725 0.0
C732 C 0.02324 0.94169 0.53819 0.0
C733 C 0.02707 0.91139 0.57774 0.0
C734 C 0.01565 0.91572 0.51959 0.0
C735 C 0.01375 0.88793 0.52978 0.0
H736 H 0.44508 0.81579 0.90055 0.0
H737 H 0.49106 0.79565 0.82778 0.0
H738 H 0.4532 0.80338 0.79583 0.0
H739 H 0.40576 0.81351 0.78848 0.0
H740 H 0.35923 0.83016 0.86157 0.0
H741 H 0.39871 0.82681 0.89341 0.0
C742 C 0.447 0.81315 0.87771 0.0
C743 C 0.47104 0.80497 0.86673 0.0
C744 C 0.42502 0.81731 0.85946 0.0
C745 C 0.47286 0.80171 0.83697 0.0
C746 C 0.4512 0.80625 0.81864 0.0
C747 C 0.40456 0.81704 0.81138 0.0
C748 C 0.37975 0.82252 0.82271 0.0
C749 C 0.42706 0.81385 0.82962 0.0
C750 C 0.37818 0.82623 0.85239 0.0
C751 C 0.40069 0.8241 0.87059 0.0
H752 H 0.46415 0.19928 0.0372 0.0
H753 H 0.50821 0.18327 0.11318 0.0
H754 H 0.50719 0.13202 0.09375 0.0
H755 H 0.49992 0.09446 0.05177 0.0
H756 H 0.45502 0.11131 0.9764 0.0
H757 H 0.44997 0.15932 0.99901 0.0
C758 C 0.47278 0.18425 0.04982 0.0
C759 C 0.48634 0.19491 0.07642 0.0
C760 C 0.47241 0.15513 0.03837 0.0
C761 C 0.49744 0.17538 0.09271 0.0
C762 C 0.49716 0.14622 0.08144 0.0
C763 C 0.48864 0.10848 0.04056 0.0
C764 C 0.47844 0.09967 0.01222 0.0
C765 C 0.4857 0.13623 0.05377 0.0
C766 C 0.46346 0.11777 0.99806 0.0
C767 C 0.46054 0.14528 0.01096 0.0
H768 H 0.09653 0.23998 0.31177 0.0
H769 H 0.13603 0.30738 0.37724 0.0
H770 H 0.17929 0.3108 0.35415 0.0
H771 H 0.20644 0.29549 0.31578 0.0
H772 H 0.17039 0.22546 0.25164 0.0
H773 H 0.12561 0.22216 0.27363 0.0
C774 C 0.11466 0.25528 0.32095 0.0
C775 C 0.11281 0.27341 0.34632 0.0
C776 C 0.14019 0.25679 0.30773 0.0
C777 C 0.13666 0.29298 0.35795 0.0
C778 C 0.16153 0.29511 0.34467 0.0
C779 C 0.18876 0.2796 0.30638 0.0
C780 C 0.19169 0.26113 0.28177 0.0
C781 C 0.16355 0.27727 0.31958 0.0
C782 C 0.16868 0.24012 0.27045 0.0
C783 C 0.14307 0.23825 0.28306 0.0
H784 H 0.96021 0.0088 0.16586 0.0
H785 H 0.93019 0.09079 0.16588 0.0
H786 H 0.95792 0.10345 0.12484 0.0
H787 H 0.99392 0.09199 0.09104 0.0
H788 H 0.02555 0.0114 0.09689 0.0
H789 H 0.99462 0.99777 0.13413 0.0
C790 C 0.95952 0.0295 0.15692 0.0
C791 C 0.9433 0.04893 0.16913 0.0
C792 C 0.97644 0.03714 0.13476 0.0
C793 C 0.94232 0.07532 0.1568 0.0
C794 C 0.95852 0.08271 0.13363 0.0
C795 C 0.9942 0.07176 0.10092 0.0
C796 C 0.0122 0.0528 0.09152 0.0
C797 C 0.97632 0.06411 0.12291 0.0
C798 C 0.01205 0.02635 0.10395 0.0
C799 C 0.99425 0.01847 0.12512 0.0
H800 H 0.28415 0.70702 0.47335 0.0
H801 H 0.29309 0.6271 0.42269 0.0
H802 H 0.28647 0.65078 0.37908 0.0
H803 H 0.27798 0.69414 0.35592 0.0
H804 H 0.26756 0.7731 0.40716 0.0
H805 H 0.27476 0.74951 0.45056 0.0
C806 C 0.28455 0.69459 0.45281 0.0
C807 C 0.28902 0.66529 0.45116 0.0
C808 C 0.28042 0.70814 0.42817 0.0
C809 C 0.28964 0.64966 0.42441 0.0
C810 C 0.28585 0.66318 0.39957 0.0
C811 C 0.27727 0.70615 0.37662 0.0
C812 C 0.2723 0.73526 0.37858 0.0
C813 C 0.28119 0.69238 0.40128 0.0
C814 C 0.27131 0.75064 0.40533 0.0
C815 C 0.27546 0.7372 0.43003 0.0
H816 H 0.61954 0.01828 0.64767 0.0
H817 H 0.55902 0.96458 0.69304 0.0
H818 H 0.52738 0.9543 0.65055 0.0
H819 H 0.51353 0.96975 0.60408 0.0
H820 H 0.57298 0.02932 0.56242 0.0
H821 H 0.6082 0.0279 0.59915 0.0
C822 C 0.59997 1.00317 0.6477 0.0
C823 C 0.59152 0.99207 0.67309 0.0
C824 C 0.58125 0.99914 0.62391 0.0
C825 C 0.56589 0.9731 0.67339 0.0
C826 C 0.54765 0.96764 0.64928 0.0
C827 C 0.53434 0.98189 0.60289 0.0
C828 C 0.54057 0.99952 0.58054 0.0
C829 C 0.55446 0.98205 0.62497 0.0
C830 C 0.5676 0.0153 0.57924 0.0
C831 C 0.58787 0.01465 0.60036 0.0
H832 H 0.31635 0.37331 0.93314 0.0
H833 H 0.2292 0.34385 0.94042 0.0
H834 H 0.22597 0.31441 0.89432 0.0
H835 H 0.24752 0.29713 0.85211 0.0
H836 H 0.33474 0.32554 0.84348 0.0
H837 H 0.3385 0.35478 0.89002 0.0
C838 C 0.29668 0.36065 0.92434 0.0
C839 C 0.27287 0.36109 0.93981 0.0
C840 C 0.29508 0.34331 0.8978 0.0
C841 C 0.24763 0.34414 0.92864 0.0
C842 C 0.24583 0.32719 0.90237 0.0
C843 C 0.26748 0.30957 0.8603 0.0
C844 C 0.29083 0.30901 0.84408 0.0
C845 C 0.26938 0.32655 0.88681 0.0
C846 C 0.31644 0.32527 0.85544 0.0
C847 C 0.31855 0.34222 0.88201 0.0
H848 H 0.89186 0.03373 0.34088 0.0
H849 H 0.96267 0.02553 0.29191 0.0
H850 H 0.98595 0.00999 0.3324 0.0
H851 H 0.98822 1.00205 0.38269 0.0
H852 H 0.91931 0.01225 0.43345 0.0
H853 H 0.89333 0.02308 0.39156 0.0
C854 C 0.91229 0.02838 0.33912 0.0
C855 C 0.92539 0.03092 0.31332 0.0
C856 C 0.92603 0.01968 0.36288 0.0
C857 C 0.95192 0.02384 0.3114 0.0
C858 C 0.9654 0.01489 0.33461 0.0
C859 C 0.96732 0.00608 0.38445 0.0
C860 C 0.9557 0.00635 0.41101 0.0
C861 C 0.95287 0.01311 0.36054 0.0
C862 C 0.92868 0.01188 0.4131 0.0
C863 C 0.91388 0.01827 0.3892 0.0
H864 H 0.25521 0.71408 0.59537 0.0
H865 H 0.31935 0.66376 0.60966 0.0
H866 H 0.33188 0.69203 0.65648 0.0
H867 H 0.32701 0.73456 0.69101 0.0
H868 H 0.26442 0.78588 0.67327 0.0
H869 H 0.24929 0.75415 0.62943 0.0
C870 C 0.2719 0.70911 0.60873 0.0
C871 C 0.28667 0.68728 0.59896 0.0
C872 C 0.27962 0.72611 0.63459 0.0
C873 C 0.30771 0.68054 0.61679 0.0
C874 C 0.31508 0.69695 0.64331 0.0
C875 C 0.31027 0.73881 0.67728 0.0
C876 C 0.2968 0.76244 0.68502 0.0
C877 C 0.30174 0.72046 0.65197 0.0
C878 C 0.27487 0.76765 0.66759 0.0
C879 C 0.26622 0.74954 0.64263 0.0
H880 H 0.5746 0.02895 0.79119 0.0
H881 H 0.65169 0.0576 0.84094 0.0
H882 H 0.62624 0.06617 0.88364 0.0
H883 H 0.58198 0.06194 0.90696 0.0
H884 H 0.50574 0.02783 0.85733 0.0
H885 H 0.53104 0.02521 0.81392 0.0
C886 C 0.58595 0.03739 0.81129 0.0
C887 C 0.61498 0.04272 0.81301 0.0
C888 C 0.57129 0.04121 0.83558 0.0
C889 C 0.62933 0.05332 0.83921 0.0
C890 C 0.61479 0.05819 0.86353 0.0
C891 C 0.57096 0.05442 0.8865 0.0
C892 C 0.54212 0.04532 0.885 0.0
C893 C 0.58577 0.05175 0.86199 0.0
C894 C 0.52794 0.03502 0.85871 0.0
C895 C 0.54239 0.03345 0.83404 0.0
H896 H 0.29828 0.36889 0.11302 0.0
H897 H 0.22564 0.31654 0.06826 0.0
H898 H 0.21537 0.28947 0.10997 0.0
H899 H 0.22982 0.27704 0.15769 0.0
H900 H 0.30315 0.32913 0.20191 0.0
H901 H 0.31019 0.35973 0.16249 0.0
C902 C 0.27972 0.35225 0.11283 0.0
C903 C 0.26239 0.34519 0.08779 0.0
C904 C 0.27432 0.33622 0.13678 0.0
C905 C 0.23893 0.32284 0.0875 0.0
C906 C 0.23323 0.3071 0.11127 0.0
C907 C 0.24713 0.2953 0.15882 0.0
C908 C 0.26598 0.30051 0.1828 0.0
C909 C 0.2512 0.31298 0.1358 0.0
C910 C 0.28827 0.32442 0.18382 0.0
C911 C 0.29239 0.34202 0.16118 0.0
H912 H 0.22597 0.97935 0.01512 0.0
H913 H 0.16818 0.89846 0.02137 0.0
H914 H 0.13245 0.92648 0.03396 0.0
H915 H 0.11605 0.97279 0.03747 0.0
H916 H 0.17131 0.05449 0.02907 0.0
H917 H 0.20997 0.02752 0.02368 0.0
C918 C 0.20567 0.96801 0.01972 0.0
C919 C 0.19955 0.93688 0.01694 0.0
C920 C 0.18487 0.98435 0.02644 0.0
C921 C 0.17324 0.92236 0.02296 0.0
C922 C 0.1528 0.93834 0.03023 0.0
C923 C 0.1367 0.98479 0.03493 0.0
C924 C 0.14101 0.01537 0.03336 0.0
C925 C 0.15817 0.96917 0.03114 0.0
C926 C 0.16772 0.03087 0.03043 0.0
C927 C 0.18964 0.0154 0.02709 0.0
H928 H 0.69569 0.58832 0.96602 0.0
H929 H 0.66464 0.66387 0.00321 0.0
H930 H 0.62075 0.63287 0.00982 0.0
H931 H 0.5901 0.58503 0.00417 0.0
H932 H 0.6178 0.50909 0.96383 0.0
H933 H 0.6637 0.53912 0.95972 0.0
C934 C 0.67931 0.59791 0.97558 0.0
C935 C 0.6837 0.62864 0.98384 0.0
C936 C 0.65336 0.5798 0.97894 0.0
C937 C 0.66203 0.64053 0.99618 0.0
C938 C 0.63679 0.62275 1.00019 0.0
C939 C 0.6062 0.57486 0.99473 0.0
C940 C 0.60047 0.54471 0.98454 0.0
C941 C 0.63211 0.59245 0.99154 0.0
C942 C 0.62164 0.53219 0.97201 0.0
C943 C 0.64789 0.54943 0.96955 0.0
H944 H 0.67263 0.42267 0.24384 0.0
H945 H 0.73244 0.47264 0.30707 0.0
H946 H 0.76263 0.43636 0.29955 0.0
H947 H 0.77149 0.38896 0.27602 0.0
H948 H 0.71292 0.34152 0.20993 0.0
H949 H 0.68356 0.37812 0.21715 0.0
C950 C 0.69225 0.42553 0.25597 0.0
C951 C 0.70005 0.45013 0.27626 0.0
C952 C 0.71006 0.40502 0.25082 0.0
C953 C 0.72584 0.45382 0.29139 0.0
C954 C 0.7432 0.43308 0.28706 0.0
C955 C 0.75263 0.38695 0.26277 0.0
C956 C 0.74461 0.36215 0.24258 0.0
C957 C 0.73555 0.40845 0.26686 0.0
C958 C 0.71982 0.36009 0.22581 0.0
C959 C 0.70277 0.38104 0.22998 0.0
H960 H 0.83654 0.44605 0.49364 0.0
H961 H 0.85598 0.38833 0.42344 0.0
H962 H 0.90372 0.4157 0.42669 0.0
H963 H 0.94027 0.45489 0.45122 0.0
H964 H 0.92067 0.50868 0.52427 0.0
H965 H 0.87237 0.48407 0.5181 0.0
C966 C 0.85108 0.43962 0.47874 0.0
C967 C 0.8427 0.41541 0.45811 0.0
C968 C 0.87842 0.45471 0.48139 0.0
C969 C 0.86197 0.40696 0.43944 0.0
C970 C 0.8892 0.42258 0.44133 0.0
C971 C 0.92526 0.46133 0.46553 0.0
C972 C 0.93378 0.48363 0.48805 0.0
C973 C 0.89771 0.44633 0.46243 0.0
C974 C 0.91445 0.49154 0.50684 0.0
C975 C 0.88691 0.4775 0.5033 0.0
H976 H 0.37486 0.1105 0.23223 0.0
H977 H 0.32515 0.06786 0.29488 0.0
H978 H 0.28998 0.0978 0.28675 0.0
H979 H 0.275 0.13863 0.26423 0.0
H980 H 0.32275 0.1789 0.19894 0.0
H981 H 0.35666 0.14702 0.20506 0.0
C982 C 0.35626 0.10786 0.24395 0.0
C983 C 0.35266 0.08755 0.26444 0.0
C984 C 0.33567 0.12445 0.23846 0.0
C985 C 0.32831 0.08363 0.27915 0.0
C986 C 0.3082 0.10066 0.27448 0.0
C987 C 0.29245 0.13979 0.25084 0.0
C988 C 0.2964 0.16094 0.2312 0.0
C989 C 0.31181 0.12137 0.25443 0.0
C990 C 0.31911 0.16246 0.21399 0.0
C991 C 0.3387 0.14451 0.21773 0.0
H992 H 0.31763 0.07378 0.50906 0.0
H993 H 0.36676 0.15211 0.48163 0.0
H994 H 0.40816 0.13055 0.48625 0.0
H995 H 0.43057 0.08939 0.49721 0.0
H996 H 0.3828 0.01143 0.52637 0.0
H997 H 0.34079 0.03278 0.52193 0.0
C998 C 0.33742 0.08616 0.50421 0.0
C999 C 0.33896 0.1146 0.49492 0.0
C1000 C 0.3614 0.07363 0.50712 0.0
C1001 C 0.36485 0.1303 0.48885 0.0
C1002 C 0.3886 0.11793 0.49142 0.0
C1003 C 0.41096 0.07701 0.5026 0.0
C1004 C 0.40978 0.04876 0.51195 0.0
C1005 C 0.38711 0.0896 0.50036 0.0
C1006 C 0.38425 0.03317 0.51908 0.0
C1007 C 0.36025 0.04541 0.51653 0.0
H1008 H 0.65789 0.62866 0.28717 0.0
H1009 H 0.71428 0.5867 0.33396 0.0
H1010 H 0.75165 0.62861 0.33004 0.0
H1011 H 0.76917 0.67561 0.30995 0.0
H1012 H 0.71334 0.71415 0.25865 0.0
H1013 H 0.67506 0.67554 0.26777 0.0
C1014 C 0.6782 0.62903 0.29709 0.0
C1015 C 0.68321 0.6048 0.31118 0.0
C1016 C 0.69985 0.65255 0.29361 0.0
C1017 C 0.70985 0.60522 0.32322 0.0
C1018 C 0.73127 0.6291 0.32082 0.0
C1019 C 0.74857 0.6756 0.30095 0.0
C1020 C 0.74408 0.698 0.28397 0.0
C1021 C 0.72668 0.65261 0.30549 0.0
C1022 C 0.71733 0.69748 0.27217 0.0
C1023 C 0.69539 0.6753 0.27727 0.0
H1024 H 0.87383 0.48224 0.80808 0.0
H1025 H 0.94327 0.44439 0.8355 0.0
H1026 H 0.91389 0.39534 0.83106 0.0
H1027 H 0.86985 0.36251 0.81302 0.0
H1028 H 0.80296 0.40128 0.7809 0.0
H1029 H 0.82993 0.45072 0.79359 0.0
C1030 C 0.88263 0.46343 0.81353 0.0
C1031 C 0.91089 0.46705 0.82174 0.0
C1032 C 0.86602 0.43533 0.80976 0.0
C1033 C 0.92164 0.44229 0.82895 0.0
C1034 C 0.90488 0.41419 0.82625 0.0
C1035 C 0.86113 0.38191 0.80944 0.0
C1036 C 0.83457 0.37853 0.79612 0.0
C1037 C 0.87726 0.41032 0.81572 0.0
C1038 C 0.82344 0.40357 0.79106 0.0
C1039 C 0.83884 0.43176 0.79828 0.0
H1040 H 0.01054 0.87956 0.12259 0.0
H1041 H 0.08997 0.86817 0.09359 0.0
H1042 H 0.08991 0.9084 0.0631 0.0
H1043 H 0.06708 0.94664 0.04453 0.0
H1044 H 0.98593 0.95549 0.07055 0.0
H1045 H 0.98646 0.91607 0.10178 0.0
C1046 C 0.02795 0.88624 0.10984 0.0
C1047 C 0.05057 0.87151 0.11078 0.0
C1048 C 0.02717 0.90852 0.09143 0.0
C1049 C 0.0726 0.87957 0.09349 0.0
C1050 C 0.07246 0.90241 0.07595 0.0
C1051 C 0.04939 0.93975 0.05684 0.0
C1052 C 0.02646 0.95399 0.05511 0.0
C1053 C 0.04979 0.91693 0.07462 0.0
C1054 C 1.00367 0.94467 0.07112 0.0
C1055 C 1.0041 0.92233 0.08925 0.0
H1056 H 0.9532 0.28414 0.82196 0.0
H1057 H 0.89851 0.24704 0.88362 0.0
H1058 H 0.85854 0.2471 0.85121 0.0
H1059 H 0.839 0.2613 0.80675 0.0
H1060 H 0.89338 0.30212 0.74691 0.0
H1061 H 0.93348 0.29696 0.77688 0.0
C1062 C 0.93256 0.27551 0.82802 0.0
C1063 C 0.92887 0.26539 0.85508 0.0
C1064 C 0.90956 0.27661 0.80966 0.0
C1065 C 0.90192 0.25488 0.86289 0.0
C1066 C 0.87904 0.255 0.8444 0.0
C1067 C 0.85954 0.26873 0.80017 0.0
C1068 C 0.86308 0.28201 0.77464 0.0
C1069 C 0.88256 0.26638 0.81796 0.0
C1070 C 0.89002 0.29182 0.7665 0.0
C1071 C 0.91301 0.2889 0.78365 0.0
H1072 H 0.52092 0.20172 0.60597 0.0
H1073 H 0.60721 0.21998 0.58908 0.0
H1074 H 0.60413 0.16971 0.56672 0.0
H1075 H 0.57619 0.12111 0.5492 0.0
H1076 H 0.48922 0.10425 0.56426 0.0
H1077 H 0.49337 0.1529 0.58969 0.0
C1078 C 0.5391 0.1945 0.5978 0.0
C1079 C 0.5642 0.21455 0.59921 0.0
C1080 C 0.53704 0.16574 0.58417 0.0
C1081 C 0.58755 0.20498 0.58815 0.0
C1082 C 0.58582 0.17623 0.57528 0.0
C1083 C 0.5582 0.12805 0.55813 0.0
C1084 C 0.53247 0.1089 0.55448 0.0
C1085 C 0.56054 0.15651 0.57265 0.0
C1086 C 0.50936 0.11842 0.56632 0.0
C1087 C 0.51164 0.14634 0.58107 0.0
H1088 H 0.5961 0.75933 0.36845 0.0
H1089 H 0.5471 0.75517 0.28999 0.0
H1090 H 0.58898 0.75941 0.26315 0.0
H1091 H 0.64035 0.76603 0.2624 0.0
H1092 H 0.68778 0.76677 0.3414 0.0
H1093 H 0.64596 0.76238 0.36748 0.0
C1094 C 0.59454 0.75914 0.34544 0.0
C1095 C 0.56856 0.75707 0.33127 0.0
C1096 C 0.61858 0.76126 0.33022 0.0
C1097 C 0.56687 0.75659 0.30141 0.0
C1098 C 0.59084 0.75921 0.28607 0.0
C1099 C 0.64139 0.76528 0.2853 0.0
C1100 C 0.66716 0.76702 0.29998 0.0
C1101 C 0.61693 0.76192 0.30028 0.0
C1102 C 0.66822 0.76553 0.3296 0.0
C1103 C 0.6443 0.76301 0.34459 0.0
H1104 H 0.03447 0.22203 0.47943 0.0
H1105 H 0.03051 0.18484 0.39185 0.0
H1106 H 0.02311 0.13494 0.40754 0.0
H1107 H 0.01627 0.10199 0.44635 0.0
H1108 H 0.02128 0.14035 0.53366 0.0
H1109 H 0.02924 0.18981 0.51771 0.0
C1110 C 0.03209 0.20309 0.46362 0.0
C1111 C 0.03288 0.20731 0.43438 0.0
C1112 C 0.02761 0.17466 0.47278 0.0
C1113 C 0.03013 0.18236 0.41443 0.0
C1114 C 0.02566 0.15381 0.42342 0.0
C1115 C 0.01881 0.12117 0.46188 0.0
C1116 C 0.01778 0.1174 0.49124 0.0
C1117 C 0.02397 0.14969 0.45255 0.0
C1118 C 0.02176 0.14255 0.51102 0.0
C1119 C 0.02642 0.17085 0.5019 0.0
H1120 H 0.5727 0.25672 0.16667 0.0
H1121 H 0.6155 0.30134 0.10042 0.0
H1122 H 0.65951 0.29374 0.12101 0.0
H1123 H 0.68613 0.2748 0.15781 0.0
H1124 H 0.64413 0.2303 0.22438 0.0
H1125 H 0.59959 0.23701 0.20345 0.0
C1126 C 0.59167 0.26501 0.15687 0.0
C1127 C 0.59066 0.27974 0.13204 0.0
C1128 C 0.61707 0.26021 0.16866 0.0
C1129 C 0.61552 0.28995 0.11949 0.0
C1130 C 0.64076 0.28554 0.13121 0.0
C1131 C 0.6672 0.26623 0.16756 0.0
C1132 C 0.66842 0.25187 0.1925 0.0
C1133 C 0.64179 0.2706 0.15568 0.0
C1134 C 0.64373 0.24119 0.20503 0.0
C1135 C 0.61828 0.24523 0.19317 0.0
H1136 H 0.54196 0.87993 0.89541 0.0
H1137 H 0.57549 0.84729 0.9694 0.0
H1138 H 0.56953 0.89154 0.99899 0.0
H1139 H 0.55144 0.93766 0.00476 0.0
H1140 H 0.51426 0.96878 0.93192 0.0
H1141 H 0.52501 0.9274 0.90103 0.0
C1142 C 0.54842 0.88291 0.91789 0.0
C1143 C 0.55933 0.86058 0.93023 0.0
C1144 C 0.54397 0.90803 0.93507 0.0
C1145 C 0.56709 0.86429 0.95948 0.0
C1146 C 0.56362 0.88952 0.97643 0.0
C1147 C 0.54595 0.93551 0.98208 0.0
C1148 C 0.53203 0.95616 0.97064 0.0
C1149 C 0.55154 0.91125 0.96461 0.0
C1150 C 0.52492 0.95306 0.94123 0.0
C1151 C 0.53105 0.92939 0.92356 0.0
H1152 H 0.9233 0.80625 0.65214 0.0
H1153 H 0.94822 0.7339 0.69156 0.0
H1154 H 0.9073 0.72955 0.71987 0.0
H1155 H 0.8636 0.74564 0.73253 0.0
H1156 H 0.84086 0.82052 0.69547 0.0
H1157 H 0.88178 0.82479 0.66756 0.0
C1158 C 0.91977 0.78951 0.66693 0.0
C1159 C 0.93866 0.77014 0.66943 0.0
C1160 C 0.89661 0.78775 0.68375 0.0
C1161 C 0.93401 0.74898 0.68912 0.0
C1162 C 0.91058 0.74651 0.70531 0.0
C1163 C 0.86772 0.76309 0.71856 0.0
C1164 C 0.84899 0.78273 0.71619 0.0
C1165 C 0.89163 0.7657 0.70274 0.0
C1166 C 0.85488 0.80525 0.69801 0.0
C1167 C 0.87825 0.80758 0.68184 0.0
H1168 H 0.14092 0.02776 0.8905 0.0
H1169 H 0.08064 0.97058 0.83251 0.0
H1170 H 0.04739 0.96624 0.86958 0.0
H1171 H 0.03395 0.98189 0.91763 0.0
H1172 H 0.09268 0.04375 0.97351 0.0
H1173 H 0.12768 0.04281 0.93882 0.0
C1174 C 0.12069 0.01392 0.88628 0.0
C1175 C 0.11331 0.99926 0.85897 0.0
C1176 C 0.10118 0.01249 0.90744 0.0
C1177 C 0.0868 0.98196 0.85349 0.0
C1178 C 0.06772 0.97955 0.87465 0.0
C1179 C 0.05451 0.99482 0.92231 0.0
C1180 C 0.06072 0.01235 0.94847 0.0
C1181 C 0.07442 0.9952 0.90159 0.0
C1182 C 0.08739 0.02945 0.95391 0.0
C1183 C 0.10748 0.02917 0.93391 0.0
H1184 H 0.78625 0.32478 0.54488 0.0
H1185 H 0.76101 0.40751 0.57087 0.0
H1186 H 0.76682 0.39846 0.62094 0.0
H1187 H 0.7784 0.3663 0.65707 0.0
H1188 H 0.80337 0.28388 0.62967 0.0
H1189 H 0.79824 0.29365 0.58005 0.0
C1190 C 0.78188 0.34094 0.56136 0.0
C1191 C 0.77302 0.36672 0.55408 0.0
C1192 C 0.78525 0.33563 0.58978 0.0
C1193 C 0.76782 0.38745 0.57588 0.0
C1194 C 0.77111 0.38228 0.60448 0.0
C1195 C 0.78281 0.35062 0.64016 0.0
C1196 C 0.79124 0.32444 0.64682 0.0
C1197 C 0.77974 0.35637 0.61164 0.0
C1198 C 0.79686 0.30418 0.62492 0.0
C1199 C 0.79391 0.30973 0.59661 0.0
H1200 H 0.41757 0.03475 0.37585 0.0
H1201 H 0.48201 0.08785 0.33439 0.0
H1202 H 0.51441 0.08846 0.3752 0.0
H1203 H 0.52546 0.07004 0.42091 0.0
H1204 H 0.46201 0.01204 0.45922 0.0
H1205 H 0.42828 0.01738 0.42192 0.0
C1206 C 0.43853 0.04698 0.37615 0.0
C1207 C 0.44744 0.06145 0.35246 0.0
C1208 C 0.45733 0.04611 0.39909 0.0
C1209 C 0.47479 0.07666 0.35261 0.0
C1210 C 0.49333 0.07689 0.37583 0.0
C1211 C 0.50419 0.05887 0.42116 0.0
C1212 C 0.49617 0.04112 0.44304 0.0
C1213 C 0.48503 0.06107 0.39891 0.0
C1214 C 0.46862 0.02638 0.44294 0.0
C1215 C 0.44929 0.02923 0.42149 0.0
H1216 H 0.73199 0.7178 0.07436 0.0
H1217 H 0.80702 0.68223 0.0766 0.0
H1218 H 0.81356 0.69652 0.12823 0.0
H1219 H 0.79872 0.72136 0.17242 0.0
H1220 H 0.7224 0.75474 0.16919 0.0
H1221 H 0.71568 0.73913 0.11829 0.0
C1222 C 0.74978 0.71304 0.08611 0.0
C1223 C 0.76917 0.69923 0.0715 0.0
C1224 C 0.75323 0.7211 0.11564 0.0
C1225 C 0.79178 0.69278 0.08724 0.0
C1226 C 0.79558 0.70112 0.11675 0.0
C1227 C 0.78059 0.72517 0.16058 0.0
C1228 C 0.76118 0.73949 0.17475 0.0
C1229 C 0.7766 0.71568 0.13114 0.0
C1230 C 0.73766 0.74383 0.15903 0.0
C1231 C 0.73382 0.73494 0.12983 0.0
H1232 H 0.09676 0.06995 0.72554 0.0
H1233 H 0.13858 0.99872 0.69843 0.0
H1234 H 0.12311 1.00164 0.64871 0.0
H1235 H 0.09389 0.02168 0.61385 0.0
H1236 H 0.05028 0.09069 0.64311 0.0
H1237 H 0.07031 0.09137 0.69137 0.0
C1238 C 0.10264 0.05497 0.70885 0.0
C1239 C 0.11844 0.03374 0.7158 0.0
C1240 C 0.0932 0.05636 0.68076 0.0
C1241 C 0.12636 0.01515 0.69371 0.0
C1242 C 0.11738 0.01674 0.66533 0.0
C1243 C 0.08915 0.03713 0.63078 0.0
C1244 C 0.07059 0.05612 0.62505 0.0
C1245 C 0.10025 0.03684 0.65871 0.0
C1246 C 0.06441 0.07587 0.64708 0.0
C1247 C 0.07583 0.07621 0.67464 0.0
H1248 H 0.77548 0.38518 0.394 0.0
H1249 H 0.69944 0.33596 0.41952 0.0
H1250 H 0.69802 0.29917 0.37842 0.0
H1251 H 0.71931 0.28059 0.33559 0.0
H1252 H 0.79672 0.3293 0.31211 0.0
H1253 H 0.79725 0.36609 0.35234 0.0
C1254 C 0.75831 0.36676 0.39001 0.0
C1255 C 0.73714 0.36353 0.40892 0.0
C1256 C 0.75835 0.34513 0.36722 0.0
C1257 C 0.71553 0.33904 0.40455 0.0
C1258 C 0.71492 0.31789 0.38135 0.0
C1259 C 0.73649 0.29895 0.33968 0.0
C1260 C 0.75806 0.30205 0.32109 0.0
C1261 C 0.73646 0.32046 0.36273 0.0
C1262 C 0.78003 0.3262 0.32634 0.0
C1263 C 0.78021 0.34751 0.34914 0.0
H1264 H 0.47607 1.00313 0.20835 0.0
H1265 H 0.40542 0.04408 0.19301 0.0
H1266 H 0.41485 0.04395 0.14245 0.0
H1267 H 0.44469 0.03416 0.10313 0.0
H1268 H 0.51522 0.99347 0.11968 0.0
H1269 H 0.50436 0.99174 0.16949 0.0
C1270 C 0.46262 0.01203 0.19404 0.0
C1271 C 0.4402 0.02385 0.20454 0.0
C1272 C 0.46826 0.01208 0.16527 0.0
C1273 C 0.42282 0.03485 0.1855 0.0
C1274 C 0.42828 0.0349 0.15663 0.0
C1275 C 0.45757 0.02485 0.1177 0.0
C1276 C 0.48079 0.01409 0.10792 0.0
C1277 C 0.45117 0.0239 0.14637 0.0
C1278 C 0.49729 1.00195 0.12681 0.0
C1279 C 0.49109 1.00094 0.15526 0.0
H1280 H 0.78934 0.67176 0.88829 0.0
H1281 H 0.74823 0.72964 0.94094 0.0
H1282 H 0.74625 0.76096 0.90242 0.0
H1283 H 0.7577 0.77367 0.8544 0.0
H1284 H 0.80039 0.71786 0.8015 0.0
H1285 H 0.80023 0.68433 0.839 0.0
C1286 C 0.77967 0.69103 0.89117 0.0
C1287 C 0.76887 0.69812 0.91771 0.0
C1288 C 0.77908 0.70962 0.86881 0.0
C1289 C 0.75674 0.72348 0.92099 0.0
C1290 C 0.75565 0.74157 0.89889 0.0
C1291 C 0.76697 0.75416 0.85101 0.0
C1292 C 0.77887 0.74828 0.82495 0.0
C1293 C 0.76706 0.73516 0.87286 0.0
C1294 C 0.79076 0.72282 0.82111 0.0
C1295 C 0.79077 0.70366 0.84268 0.0
H1296 H 0.86756 0.13187 0.02328 0.0
H1297 H 0.80978 0.04949 0.00995 0.0
H1298 H 0.8481 0.02224 0.00685 0.0
H1299 H 0.89874 0.02229 0.00616 0.0
H1300 H 0.95518 0.10563 0.02192 0.0
H1301 H 0.91685 0.13191 0.02548 0.0
C1302 C 0.86332 0.10793 0.01993 0.0
C1303 C 0.83595 0.09275 0.01674 0.0
C1304 C 0.88531 0.09254 0.01825 0.0
C1305 C 0.83076 0.0617 0.01263 0.0
C1306 C 0.85266 0.04612 0.01064 0.0
C1307 C 0.90246 0.04616 0.01025 0.0
C1308 C 0.9297 0.06201 0.01354 0.0
C1309 C 0.88011 0.06134 0.01301 0.0
C1310 C 0.93437 0.09291 0.0193 0.0
C1311 C 0.91248 0.10803 0.02138 0.0
H1312 H 0.35581 0.45241 0.04335 0.0
H1313 H 0.37406 0.3959 0.97164 0.0
H1314 H 0.41968 0.42641 0.97037 0.0
H1315 H 0.45591 0.46782 0.99116 0.0
H1316 H 0.43914 0.52199 0.06514 0.0
H1317 H 0.3919 0.49431 0.06377 0.0
C1318 C 0.36967 0.44694 0.0273 0.0
C1319 C 0.36135 0.42172 0.0077 0.0
C1320 C 0.39641 0.4643 0.02707 0.0
C1321 C 0.37985 0.41495 0.9872 0.0
C1322 C 0.40603 0.43248 0.98638 0.0
C1323 C 0.44179 0.47379 0.00672 0.0
C1324 C 0.45107 0.49712 0.02812 0.0
C1325 C 0.41476 0.45702 0.00641 0.0
C1326 C 0.43255 0.50422 0.04837 0.0
C1327 C 0.40549 0.4883 0.04767 0.0
H1328 H 0.3729 0.63649 0.76943 0.0
H1329 H 0.32476 0.59228 0.69469 0.0
H1330 H 0.29763 0.63193 0.6949 0.0
H1331 H 0.28735 0.6797 0.7169 0.0
H1332 H 0.33438 0.72083 0.79388 0.0
H1333 H 0.36152 0.68207 0.79228 0.0
C1334 C 0.35663 0.63565 0.75303 0.0
C1335 C 0.35116 0.61162 0.73188 0.0
C1336 C 0.3405 0.65798 0.75387 0.0
C1337 C 0.32956 0.61061 0.71114 0.0
C1338 C 0.31394 0.63327 0.71133 0.0
C1339 C 0.30325 0.67995 0.73353 0.0
C1340 C 0.30856 0.70349 0.75545 0.0
C1341 C 0.31904 0.65707 0.73275 0.0
C1342 C 0.32958 0.70332 0.77661 0.0
C1343 C 0.34535 0.68108 0.77576 0.0
H1344 H 0.20101 0.60169 0.54466 0.0
H1345 H 0.19643 0.61086 0.45465 0.0
H1346 H 0.14897 0.58331 0.45033 0.0
H1347 H 0.10818 0.56022 0.47267 0.0
H1348 H 0.11047 0.55494 0.56353 0.0
H1349 H 0.15957 0.57761 0.56721 0.0
C1350 C 0.18966 0.59706 0.52409 0.0
C1351 C 0.202 0.60774 0.49988 0.0
C1352 C 0.16203 0.5824 0.52208 0.0
C1353 C 0.18717 0.60249 0.4734 0.0
C1354 C 0.16011 0.58693 0.471 0.0
C1355 C 0.11941 0.56371 0.49331 0.0
C1356 C 0.10575 0.55586 0.51782 0.0
C1357 C 0.14721 0.57733 0.49529 0.0
C1358 C 0.12055 0.56091 0.54439 0.0
C1359 C 0.14859 0.57379 0.54647 0.0
H1360 H 0.72074 0.97844 0.75242 0.0
H1361 H 0.64052 0.92254 0.73738 0.0
H1362 H 0.66172 0.87865 0.73711 0.0
H1363 H 0.70258 0.85635 0.74164 0.0
H1364 H 0.78281 0.91107 0.76069 0.0
H1365 H 0.76212 0.95559 0.75894 0.0
C1366 C 0.708 0.9566 0.74896 0.0
C1367 C 0.67915 0.95358 0.74471 0.0
C1368 C 0.72029 0.93147 0.74962 0.0
C1369 C 0.66274 0.92531 0.74071 0.0
C1370 C 0.67484 0.90027 0.74051 0.0
C1371 C 0.71562 0.87803 0.74529 0.0
C1372 C 0.74418 0.8806 0.75101 0.0
C1373 C 0.70353 0.90313 0.745 0.0
C1374 C 0.76077 0.90871 0.75618 0.0
C1375 C 0.74894 0.93404 0.75515 0.0
H1376 H 0.72103 0.97465 0.52122 0.0
H1377 H 0.67404 0.89082 0.53857 0.0
H1378 H 0.63143 0.91077 0.53609 0.0
H1379 H 0.60699 0.95114 0.52675 0.0
H1380 H 0.65278 0.03406 0.50572 0.0
H1381 H 0.69614 0.01554 0.5117 0.0
C1382 C 0.70149 0.96095 0.52491 0.0
C1383 C 0.70082 0.93131 0.53044 0.0
C1384 C 0.67675 0.97235 0.52241 0.0
C1385 C 0.67522 0.91369 0.53447 0.0
C1386 C 0.65079 0.92507 0.53294 0.0
C1387 C 0.62647 0.96524 0.52354 0.0
C1388 C 0.62658 0.994 0.51577 0.0
C1389 C 0.65122 0.95421 0.52652 0.0
C1390 C 0.65204 0.01184 0.5116 0.0
C1391 C 0.67687 1.00123 0.51509 0.0
H1392 H 0.38683 0.42493 0.753 0.0
H1393 H 0.32839 0.46957 0.71235 0.0
H1394 H 0.29329 0.42467 0.70945 0.0
H1395 H 0.27839 0.37302 0.72055 0.0
H1396 H 0.33679 0.33014 0.76347 0.0
H1397 H 0.37255 0.3737 0.76298 0.0
C1398 C 0.36651 0.42487 0.74326 0.0
C1399 C 0.36039 0.45075 0.73297 0.0
C1400 C 0.34628 0.39912 0.74201 0.0
C1401 C 0.33379 0.45009 0.72057 0.0
C1402 C 0.31363 0.42437 0.71888 0.0
C1403 C 0.29903 0.37319 0.72951 0.0
C1404 C 0.30494 0.34819 0.74173 0.0
C1405 C 0.31952 0.3988 0.72984 0.0
C1406 C 0.33171 0.34886 0.75355 0.0
C1407 C 0.35221 0.37389 0.75347 0.0
H1408 H 0.17022 0.58853 0.22246 0.0
H1409 H 0.12388 0.61048 0.29433 0.0
H1410 H 0.15135 0.6605 0.3005 0.0
H1411 H 0.19052 0.69664 0.28734 0.0
H1412 H 0.23553 0.6754 0.21424 0.0
H1413 H 0.20649 0.62621 0.20655 0.0
C1414 C 0.166 0.60438 0.23932 0.0
C1415 C 0.14529 0.59587 0.2581 0.0
C1416 C 0.18173 0.63299 0.24261 0.0
C1417 C 0.13968 0.61663 0.27958 0.0
C1418 C 0.15549 0.64511 0.28322 0.0
C1419 C 0.19392 0.68121 0.26972 0.0
C1420 C 0.21535 0.68928 0.25163 0.0
C1421 C 0.1769 0.6533 0.26521 0.0
C1422 C 0.2192 0.66949 0.22847 0.0
C1423 C 0.20266 0.64143 0.22413 0.0
H1424 H 0.53564 0.71421 0.46397 0.0
H1425 H 0.49326 0.66393 0.38865 0.0
H1426 H 0.50233 0.61811 0.40641 0.0
H1427 H 0.51901 0.5922 0.4453 0.0
H1428 H 0.5642 0.64261 0.51907 0.0
H1429 H 0.55771 0.68868 0.4999 0.0
C1430 C 0.52867 0.69321 0.45133 0.0
C1431 C 0.51348 0.69234 0.4252 0.0
C1432 C 0.53444 0.66709 0.46146 0.0
C1433 C 0.50495 0.66512 0.4088 0.0
C1434 C 0.51003 0.63895 0.41903 0.0
C1435 C 0.52778 0.61334 0.45695 0.0
C1436 C 0.54187 0.6141 0.48367 0.0
C1437 C 0.52427 0.63963 0.44558 0.0
C1438 C 0.5534 0.64152 0.49844 0.0
C1439 C 0.5495 0.66781 0.48756 0.0
H1440 H 0.66489 0.33987 0.66974 0.0
H1441 H 0.60423 0.27873 0.70841 0.0
H1442 H 0.63927 0.27147 0.74372 0.0
H1443 H 0.68788 0.28026 0.76219 0.0
H1444 H 0.74776 0.34384 0.72579 0.0
H1445 H 0.71257 0.35212 0.691 0.0
C1446 C 0.65926 0.32518 0.68605 0.0
C1447 C 0.6319 0.3098 0.68621 0.0
C1448 C 0.67953 0.32121 0.70655 0.0
C1449 C 0.62503 0.29101 0.70773 0.0
C1450 C 0.64512 0.28667 0.7279 0.0
C1451 C 0.69313 0.2961 0.74679 0.0
C1452 C 0.7206 0.31082 0.74602 0.0
C1453 C 0.67253 0.30132 0.72731 0.0
C1454 C 0.727 0.33152 0.72617 0.0
C1455 C 0.70679 0.33646 0.70644 0.0
H1456 H 0.98914 0.33474 0.95093 0.0
H1457 H 0.01777 0.37585 0.87647 0.0
H1458 H 0.01299 0.42419 0.89955 0.0
H1459 H 1.0056 0.45517 0.94307 0.0
H1460 H 0.97962 0.41384 0.01805 0.0
H1461 H 0.97797 0.36491 0.99251 0.0
C1462 C 0.99404 0.3542 0.93956 0.0
C1463 C 1.0041 0.3518 0.91214 0.0
C1464 C 0.99165 0.3818 0.95311 0.0
C1465 C 0.01009 0.37717 0.89763 0.0
C1466 C 1.00743 0.40479 0.91085 0.0
C1467 C 0.99885 0.4353 0.95341 0.0
C1468 C 0.9923 0.4377 0.9821 0.0
C1469 C 0.99888 0.40743 0.93884 0.0
C1470 C 0.98428 0.41218 0.99579 0.0
C1471 C 0.98358 0.38435 0.98128 0.0
H1472 H 0.98448 0.77379 0.2188 0.0
H1473 H 0.95226 0.79696 0.13917 0.0
H1474 H 0.90653 0.79313 0.15748 0.0
H1475 H 0.87552 0.78445 0.19618 0.0
H1476 H 0.90582 0.75875 0.27526 0.0
H1477 H 0.95223 0.76233 0.25725 0.0
C1478 C 0.9674 0.77781 0.20544 0.0
C1479 C 0.97198 0.78575 0.17761 0.0
C1480 C 0.94075 0.77528 0.21607 0.0
C1481 C 0.9495 0.79076 0.16059 0.0
C1482 C 0.92325 0.78868 0.17108 0.0
C1483 C 0.89229 0.77963 0.2095 0.0
C1484 C 0.88731 0.7716 0.2371 0.0
C1485 C 0.91865 0.7812 0.19881 0.0
C1486 C 0.90915 0.76506 0.25396 0.0
C1487 C 0.93569 0.76712 0.24364 0.0
H1488 H 0.50047 0.33408 0.05254 0.0
H1489 H 0.53304 0.37962 0.13398 0.0
H1490 H 0.54265 0.42628 0.11246 0.0
H1491 H 0.54028 0.4543 0.07128 0.0
H1492 H 0.50509 0.40999 0.99017 0.0
H1493 H 0.49811 0.36258 0.01082 0.0
C1494 C 0.50983 0.3542 0.06554 0.0
C1495 C 0.5161 0.35334 0.09488 0.0
C1496 C 0.51478 0.38112 0.0531 0.0
C1497 C 0.52798 0.37965 0.11143 0.0
C1498 C 0.53349 0.40633 0.09911 0.0
C1499 C 0.53134 0.43431 0.05786 0.0
C1500 C 0.52345 0.43582 0.02901 0.0
C1501 C 0.52679 0.40735 0.07005 0.0
C1502 C 0.5115 0.40956 0.01233 0.0
C1503 C 0.50745 0.38245 0.02418 0.0
H1504 H 0.97849 0.31303 0.33218 0.0
H1505 H 0.93544 0.26415 0.39552 0.0
H1506 H 0.89113 0.26732 0.37228 0.0
H1507 H 0.86442 0.28514 0.33509 0.0
H1508 H 0.90617 0.33492 0.27163 0.0
H1509 H 0.95104 0.33083 0.29393 0.0
C1510 C 0.95936 0.30264 0.34045 0.0
C1511 C 0.96018 0.28801 0.36531 0.0
C1512 C 0.93372 0.30527 0.32733 0.0
C1513 C 0.93528 0.27528 0.37629 0.0
C1514 C 0.90994 0.27726 0.36313 0.0
C1515 C 0.88333 0.29532 0.32623 0.0
C1516 C 0.88196 0.31053 0.30189 0.0
C1517 C 0.90889 0.29254 0.33892 0.0
C1518 C 0.90667 0.32334 0.29054 0.0
C1519 C 0.93232 0.3208 0.30317 0.0
H1520 H 0.01011 0.68233 0.59884 0.0
H1521 H 0.96016 0.70761 0.53167 0.0
H1522 H 0.95646 0.65881 0.50554 0.0
H1523 H 0.97327 0.61175 0.49849 0.0
H1524 H 0.02613 0.58791 0.56414 0.0
H1525 H 0.02283 0.63292 0.59408 0.0
C1526 C 0.99756 0.67666 0.57902 0.0
C1527 C 0.9851 0.69831 0.56733 0.0
C1528 C 0.99666 0.64898 0.56345 0.0
C1529 C 0.96959 0.69109 0.54121 0.0
C1530 C 0.96776 0.66331 0.52611 0.0
C1531 C 0.98372 0.61624 0.51951 0.0
C1532 C 1.00019 0.59672 0.5289 0.0
C1533 C 0.98216 0.64252 0.53645 0.0
C1534 C 0.01352 0.60273 0.55627 0.0
C1535 C 0.01164 0.62849 0.57344 0.0
H1536 H 0.59606 0.75789 0.81099 0.0
H1537 H 0.64078 0.76947 0.89295 0.0
H1538 H 0.68252 0.76098 0.87013 0.0
H1539 H 0.70759 0.75412 0.82661 0.0
H1540 H 0.66404 0.74482 0.74451 0.0
H1541 H 0.62072 0.74809 0.76741 0.0
C1542 C 0.61485 0.75825 0.82388 0.0
C1543 C 0.61516 0.76449 0.85373 0.0
C1544 C 0.63909 0.75364 0.8105 0.0
C1545 C 0.63983 0.7649 0.86999 0.0
C1546 C 0.6638 0.76002 0.85694 0.0
C1547 C 0.68842 0.75202 0.81385 0.0
C1548 C 0.68877 0.74854 0.78397 0.0
C1549 C 0.66382 0.75482 0.8272 0.0
C1550 C 0.66405 0.74682 0.76755 0.0
C1551 C 0.63937 0.74899 0.78067 0.0
H1552 H 0.47621 0.58286 0.68375 0.0
H1553 H 0.40874 0.51923 0.64205 0.0
H1554 H 0.43341 0.51818 0.59793 0.0
H1555 H 0.47723 0.5303 0.57376 0.0
H1556 H 0.54331 0.59642 0.61507 0.0
H1557 H 0.51634 0.60139 0.65682 0.0
C1558 C 0.46653 0.56956 0.66466 0.0
C1559 C 0.44062 0.55135 0.66602 0.0
C1560 C 0.48094 0.56897 0.63954 0.0
C1561 C 0.42843 0.53385 0.64133 0.0
C1562 C 0.44275 0.53293 0.61625 0.0
C1563 C 0.48545 0.54631 0.59159 0.0
C1564 C 0.51243 0.56278 0.5913 0.0
C1565 C 0.46947 0.5496 0.61544 0.0
C1566 C 0.52274 0.58333 0.61472 0.0
C1567 C 0.5073 0.5862 0.63866 0.0
H1568 H 0.77331 0.20945 0.95947 0.0
H1569 H 0.78201 0.1296 0.90856 0.0
H1570 H 0.78553 0.15643 0.86597 0.0
H1571 H 0.78761 0.20285 0.84401 0.0
H1572 H 0.77877 0.28242 0.8952 0.0
H1573 H 0.77414 0.25526 0.93749 0.0
C1574 C 0.77579 0.19776 0.93905 0.0
C1575 C 0.77746 0.16759 0.93708 0.0
C1576 C 0.77807 0.21332 0.915 0.0
C1577 C 0.7806 0.1528 0.91051 0.0
C1578 C 0.78276 0.16815 0.88627 0.0
C1579 C 0.78474 0.21425 0.86446 0.0
C1580 C 0.78368 0.24456 0.86674 0.0
C1581 C 0.78183 0.19847 0.8884 0.0
C1582 C 0.77975 0.25911 0.89315 0.0
C1583 C 0.77703 0.24359 0.9172 0.0
H1584 H 0.05221 0.45706 0.17881 0.0
H1585 H 0.12929 0.50654 0.15542 0.0
H1586 H 0.10819 0.51153 0.10874 0.0
H1587 H 0.06547 0.51148 0.08003 0.0
H1588 H 0.98812 0.46332 0.10398 0.0
H1589 H 0.01152 0.44856 0.14553 0.0
C1590 C 0.06459 0.46812 0.1631 0.0
C1591 C 0.09201 0.482 0.17062 0.0
C1592 C 0.05204 0.47193 0.13693 0.0
C1593 C 0.10809 0.49579 0.15009 0.0
C1594 C 0.09591 0.49904 0.12359 0.0
C1595 C 0.05395 0.49694 0.09379 0.0
C1596 C 0.02518 0.48878 0.08928 0.0
C1597 C 0.06753 0.48872 0.11757 0.0
C1598 C 0.01028 0.47018 0.10736 0.0
C1599 C 0.02365 0.46171 0.13103 0.0
H1600 H 0.79503 0.83505 0.45503 0.0
H1601 H 0.74994 0.89972 0.42607 0.0
H1602 H 0.75241 0.8801 0.37674 0.0
H1603 H 0.76517 0.84313 0.34182 0.0
H1604 H 0.81305 0.78032 0.36905 0.0
H1605 H 0.81214 0.80077 0.41893 0.0
C1606 C 0.78589 0.84486 0.43786 0.0
C1607 C 0.77202 0.86863 0.44426 0.0
C1608 C 0.78797 0.83385 0.40924 0.0
C1609 C 0.76066 0.88143 0.42178 0.0
C1610 C 0.76202 0.87018 0.39352 0.0
C1611 C 0.77569 0.83414 0.35868 0.0
C1612 C 0.78902 0.81017 0.35188 0.0
C1613 C 0.77533 0.84623 0.38703 0.0
C1614 C 0.80279 0.79889 0.37381 0.0
C1615 C 0.80207 0.81045 0.4023 0.0
H1616 H 0.44983 0.51914 0.79474 0.0
H1617 H 0.37949 0.54353 0.83564 0.0
H1618 H 0.39812 0.53248 0.88159 0.0
H1619 H 0.43581 0.51822 0.91063 0.0
H1620 H 0.50534 0.49275 0.86896 0.0
H1621 H 0.48549 0.50151 0.8229 0.0
C1622 C 0.43845 0.52192 0.81365 0.0
C1623 C 0.41335 0.53242 0.8117 0.0
C1624 C 0.44917 0.51525 0.83993 0.0
C1625 C 0.39885 0.53557 0.83647 0.0
C1626 C 0.40954 0.52927 0.86278 0.0
C1627 C 0.44642 0.51423 0.8914 0.0
C1628 C 0.47211 0.50489 0.89329 0.0
C1629 C 0.43485 0.5194 0.86485 0.0
C1630 C 0.48557 0.49985 0.86816 0.0
C1631 C 0.47428 0.50501 0.84179 0.0
H1632 H 0.80365 0.2357 0.07214 0.0
H1633 H 0.7705 0.15219 0.10271 0.0
H1634 H 0.77232 0.17656 0.15134 0.0
H1635 H 0.77916 0.2224 0.1837 0.0
H1636 H 0.81174 0.30577 0.15243 0.0
H1637 H 0.81354 0.28063 0.10484 0.0
C1638 C 0.79715 0.22273 0.08953 0.0
C1639 C 0.78667 0.19229 0.08394 0.0
C1640 C 0.79746 0.23697 0.11692 0.0
C1641 C 0.77876 0.17562 0.1066 0.0
C1642 C 0.77944 0.18962 0.13424 0.0
C1643 C 0.78653 0.23508 0.16644 0.0
C1644 C 0.7949 0.26595 0.17129 0.0
C1645 C 0.78791 0.22042 0.1394 0.0
C1646 C 0.80493 0.28206 0.14897 0.0
C1647 C 0.80611 0.26768 0.12191 0.0
H1648 H 0.12149 0.55023 0.32394 0.0
H1649 H 0.10403 0.45516 0.31804 0.0
H1650 H 0.07269 0.4565 0.35676 0.0
H1651 H 0.04874 0.48457 0.39031 0.0
H1652 H 0.06561 0.5798 0.397 0.0
H1653 H 0.09826 0.57876 0.35925 0.0
C1654 C 0.11134 0.52998 0.33185 0.0
C1655 C 0.11534 0.50265 0.31903 0.0
C1656 C 0.09273 0.53099 0.35344 0.0
C1657 C 0.10157 0.47636 0.32839 0.0
C1658 C 0.08344 0.47713 0.35013 0.0
C1659 C 0.05931 0.50511 0.38327 0.0
C1660 C 0.05458 0.53221 0.39595 0.0
C1661 C 0.07845 0.50429 0.36236 0.0
C1662 C 0.06873 0.55868 0.3871 0.0
C1663 C 0.08756 0.55808 0.36581 0.0
H1664 H 0.74412 0.79781 0.57392 0.0
H1665 H 0.77645 0.88331 0.61828 0.0
H1666 H 0.77241 0.86188 0.66418 0.0
H1667 H 0.76394 0.81709 0.69126 0.0
H1668 H 0.73053 0.73249 0.64517 0.0
H1669 H 0.73077 0.75521 0.60065 0.0
C1670 C 0.7499 0.81192 0.59365 0.0
C1671 C 0.76073 0.84212 0.59258 0.0
C1672 C 0.74756 0.79944 0.61977 0.0
C1673 C 0.7679 0.86006 0.61842 0.0
C1674 C 0.7658 0.8477 0.64468 0.0
C1675 C 0.75607 0.80382 0.67158 0.0
C1676 C 0.74719 0.77298 0.67171 0.0
C1677 C 0.75624 0.81719 0.64562 0.0
C1678 C 0.73751 0.75614 0.64583 0.0
C1679 C 0.73769 0.76913 0.62024 0.0
H1680 H 0.6979 0.44296 0.5393 0.0
H1681 H 0.73126 0.49198 0.47134 0.0
H1682 H 0.70213 0.52877 0.48208 0.0
H1683 H 0.66383 0.544 0.50785 0.0
H1684 H 0.63268 0.49684 0.57797 0.0
H1685 H 0.66483 0.46287 0.57006 0.0
C1686 C 0.69886 0.4619 0.52714 0.0
C1687 C 0.71612 0.46473 0.50433 0.0
C1688 C 0.68269 0.48337 0.53399 0.0
C1689 C 0.71783 0.48948 0.4889 0.0
C1690 C 0.70125 0.51046 0.49503 0.0
C1691 C 0.66472 0.52683 0.5219 0.0
C1692 C 0.64588 0.52278 0.54329 0.0
C1693 C 0.68321 0.50732 0.51718 0.0
C1694 C 0.64713 0.50048 0.56142 0.0
C1695 C 0.66527 0.4808 0.5567 0.0
H1696 H 0.16737 0.13862 0.50811 0.0
H1697 H 0.19738 0.08058 0.44532 0.0
H1698 H 0.15488 0.0437 0.44647 0.0
H1699 H 0.10784 0.02911 0.46422 0.0
H1700 H 0.08096 0.08653 0.53027 0.0
H1701 H 0.12347 0.12211 0.52925 0.0
C1702 C 0.16456 0.11787 0.49468 0.0
C1703 C 0.18515 0.11248 0.47628 0.0
C1704 C 0.14059 0.09656 0.49615 0.0
C1705 C 0.18165 0.08525 0.45949 0.0
C1706 C 0.15736 0.0642 0.46018 0.0
C1707 C 0.11151 0.04922 0.47863 0.0
C1708 C 0.0909 0.05528 0.49694 0.0
C1709 C 0.13651 0.0697 0.47829 0.0
C1710 C 0.09616 0.08137 0.51565 0.0
C1711 C 0.12053 0.10186 0.51509 0.0
H1712 H 0.22937 0.96674 0.78029 0.0
H1713 H 0.14861 0.91425 0.75777 0.0
H1714 H 0.16926 0.87064 0.74668 0.0
H1715 H 0.20967 0.84685 0.74545 0.0
H1716 H 0.29058 0.89805 0.77031 0.0
H1717 H 0.27045 0.94266 0.77823 0.0
C1718 C 0.21631 0.94581 0.77271 0.0
C1719 C 0.18739 0.94386 0.76983 0.0
C1720 C 0.22835 0.92054 0.76687 0.0
C1721 C 0.17084 0.91646 0.76023 0.0
C1722 C 0.18266 0.89147 0.75388 0.0
C1723 C 0.22312 0.86775 0.75233 0.0
C1724 C 0.25178 0.86889 0.75714 0.0
C1725 C 0.21133 0.89316 0.75741 0.0
C1726 C 0.26854 0.89634 0.76632 0.0
C1727 C 0.25699 0.9219 0.77094 0.0
H1728 H 0.32532 0.93788 0.95543 0.0
H1729 H 0.35536 0.86681 0.99239 0.0
H1730 H 0.40237 0.89531 0.99607 0.0
H1731 H 0.43435 0.94151 0.99127 0.0
H1732 H 0.4057 0.01131 0.95102 0.0
H1733 H 0.35857 0.98223 0.94573 0.0
C1734 C 0.34228 0.92869 0.96408 0.0
C1735 C 0.33708 0.90055 0.97392 0.0
C1736 C 0.36931 0.94492 0.9655 0.0
C1737 C 0.35906 0.88847 0.98469 0.0
C1738 C 0.38585 0.90475 0.98688 0.0
C1739 C 0.41773 0.9501 0.98108 0.0
C1740 C 0.42302 0.97835 0.97173 0.0
C1741 C 0.39112 0.93312 0.97772 0.0
C1742 C 0.40176 0.98946 0.95828 0.0
C1743 C 0.37494 0.97294 0.95542 0.0
H1744 H 0.84307 0.57998 0.78688 0.0
H1745 H 0.90865 0.62789 0.74243 0.0
H1746 H 0.87701 0.65803 0.72433 0.0
H1747 H 0.83191 0.67258 0.72371 0.0
H1748 H 0.76778 0.62943 0.77304 0.0
H1749 H 0.79751 0.59493 0.7864 0.0
C1750 C 0.85029 0.59688 0.77302 0.0
C1751 C 0.87801 0.60182 0.76585 0.0
C1752 C 0.83225 0.6147 0.76357 0.0
C1753 C 0.88738 0.62393 0.74827 0.0
C1754 C 0.86932 0.64102 0.73787 0.0
C1755 C 0.82421 0.65525 0.73695 0.0
C1756 C 0.79763 0.65311 0.74712 0.0
C1757 C 0.84185 0.6368 0.74568 0.0
C1758 C 0.78811 0.63113 0.76478 0.0
C1759 C 0.80515 0.61163 0.77253 0.0
H1760 H 0.81899 0.58291 0.00744 0.0
H1761 H 0.86795 0.66503 0.98807 0.0
H1762 H 0.91009 0.64519 0.99522 0.0
H1763 H 0.93354 0.60446 0.00676 0.0
H1764 H 0.88516 0.52252 0.02697 0.0
H1765 H 0.84268 0.54219 0.01977 0.0
C1766 C 0.83887 0.59649 0.00479 0.0
C1767 C 0.84007 0.62554 0.99714 0.0
C1768 C 0.86331 0.58491 0.00911 0.0
C1769 C 0.86618 0.64268 0.99393 0.0
C1770 C 0.89041 0.63132 0.99801 0.0
C1771 C 0.9137 0.59091 0.00965 0.0
C1772 C 0.91263 0.56198 0.01743 0.0
C1773 C 0.88929 0.60247 0.00558 0.0
C1774 C 0.88668 0.54482 0.02104 0.0
C1775 C 0.86232 0.55609 0.01689 0.0
H1776 H 0.16178 0.13017 0.79174 0.0
H1777 H 0.22159 0.08469 0.82841 0.0
H1778 H 0.25877 0.12582 0.8211 0.0
H1779 H 0.27454 0.17353 0.80122 0.0
H1780 H 0.21449 0.21491 0.75915 0.0
H1781 H 0.17728 0.17694 0.77175 0.0
C1782 C 0.18289 0.12952 0.7987 0.0
C1783 C 0.18886 0.10462 0.81105 0.0
C1784 C 0.2042 0.15254 0.79318 0.0
C1785 C 0.21643 0.10374 0.81912 0.0
C1786 C 0.2377 0.12719 0.81479 0.0
C1787 C 0.25328 0.17428 0.79503 0.0
C1788 C 0.24728 0.1974 0.77974 0.0
C1789 C 0.2319 0.1515 0.80134 0.0
C1790 C 0.21967 0.19778 0.77144 0.0
C1791 C 0.19834 0.17593 0.77849 0.0
H1792 H 0.3562 0.96275 0.28216 0.0
H1793 H 0.42111 0.93028 0.32666 0.0
H1794 H 0.39071 0.88205 0.32682 0.0
H1795 H 0.34632 0.84838 0.3115 0.0
H1796 H 0.28393 0.88132 0.26366 0.0
H1797 H 0.31274 0.9304 0.26787 0.0
C1798 C 0.36381 0.94533 0.29221 0.0
C1799 C 0.39097 0.95021 0.30441 0.0
C1800 C 0.34661 0.91774 0.29156 0.0
C1801 C 0.40033 0.92713 0.31706 0.0
C1802 C 0.38296 0.89957 0.31714 0.0
C1803 C 0.339 0.86652 0.30243 0.0
C1804 C 0.31306 0.86149 0.28743 0.0
C1805 C 0.35615 0.89452 0.3041 0.0
C1806 C 0.30385 0.88482 0.27526 0.0
C1807 C 0.3203 0.91281 0.27764 0.0
H1808 H 0.51218 0.37165 0.62261 0.0
H1809 H 0.59641 0.36795 0.60461 0.0
H1810 H 0.59813 0.40993 0.57606 0.0
H1811 H 0.57501 0.44656 0.55469 0.0
H1812 H 0.48937 0.44739 0.56962 0.0
H1813 H 0.48871 0.40758 0.60029 0.0
C1814 C 0.53103 0.38051 0.61288 0.0
C1815 C 0.55438 0.36732 0.61625 0.0
C1816 C 0.53141 0.40377 0.59539 0.0
C1817 C 0.57839 0.37819 0.6027 0.0
C1818 C 0.57928 0.402 0.58619 0.0
C1819 C 0.55614 0.43794 0.5645 0.0
C1820 C 0.53224 0.45003 0.55962 0.0
C1821 C 0.55579 0.41473 0.58203 0.0
C1822 C 0.50802 0.43846 0.57264 0.0
C1823 C 0.50766 0.41576 0.59043 0.0
H1824 H 0.43372 0.75436 0.31744 0.0
H1825 H 0.39198 0.76465 0.39534 0.0
H1826 H 0.3492 0.76556 0.36811 0.0
H1827 H 0.32379 0.76603 0.32212 0.0
H1828 H 0.36514 0.75564 0.24422 0.0
H1829 H 0.40761 0.75241 0.27135 0.0
C1830 C 0.41524 0.75653 0.32849 0.0
C1831 C 0.41638 0.75954 0.35853 0.0
C1832 C 0.39049 0.75728 0.31265 0.0
C1833 C 0.39202 0.76242 0.37231 0.0
C1834 C 0.36741 0.763 0.35673 0.0
C1835 C 0.34197 0.76264 0.31111 0.0
C1836 C 0.34121 0.76094 0.28118 0.0
C1837 C 0.36643 0.76082 0.3269 0.0
C1838 C 0.36513 0.75699 0.26725 0.0
C1839 C 0.38948 0.75515 0.28277 0.0
H1840 H 0.08832 0.71474 0.08759 0.0
H1841 H 0.01041 0.70909 0.12704 0.0
H1842 H 0.99892 0.65625 0.11113 0.0
H1843 H 0.00966 0.6126 0.08315 0.0
H1844 H 0.08819 0.6179 0.04503 0.0
H1845 H 0.1009 0.67 0.06349 0.0
C1846 C 0.06889 0.70191 0.09289 0.0
C1847 C 0.05008 0.71593 0.1082 0.0
C1848 C 0.06251 0.67156 0.08381 0.0
C1849 C 0.02523 0.69888 0.11531 0.0
C1850 C 0.0186 0.6687 0.10608 0.0
C1851 C 0.02963 0.62511 0.079 0.0
C1852 C 0.04784 0.61148 0.06241 0.0
C1853 C 0.03685 0.65496 0.08986 0.0
C1854 C 0.07382 0.62785 0.05769 0.0
C1855 C 0.08103 0.65767 0.06814 0.0
H1856 H 0.0692 0.27157 0.80854 0.0
H1857 H 0.10689 0.27149 0.89259 0.0
H1858 H 0.15154 0.27005 0.87241 0.0
H1859 H 0.18021 0.26993 0.83105 0.0
H1860 H 0.14391 0.27437 0.74731 0.0
H1861 H 0.09846 0.27302 0.76702 0.0
C1862 C 0.08718 0.27103 0.82236 0.0
C1863 C 0.08471 0.27142 0.85202 0.0
C1864 C 0.11306 0.27112 0.81064 0.0
C1865 C 0.10826 0.27121 0.86972 0.0
C1866 C 0.1338 0.27037 0.85819 0.0
C1867 C 0.16231 0.2705 0.8171 0.0
C1868 C 0.16533 0.27207 0.78774 0.0
C1869 C 0.13649 0.2705 0.82872 0.0
C1870 C 0.14207 0.27317 0.76998 0.0
C1871 C 0.1161 0.27235 0.78126 0.0
H1872 H 0.53186 0.71755 0.97938 0.0
H1873 H 0.53301 0.68654 0.89051 0.0
H1874 H 0.52953 0.63571 0.90317 0.0
H1875 H 0.52566 0.60017 0.93968 0.0
H1876 H 0.52639 0.63244 0.02848 0.0
H1877 H 0.52943 0.68281 0.01552 0.0
C1878 C 0.53128 0.69974 0.96264 0.0
C1879 C 0.53243 0.70593 0.93393 0.0
C1880 C 0.52948 0.67079 0.97009 0.0
C1881 C 0.53214 0.68249 0.91273 0.0
C1882 C 0.53004 0.65341 0.91998 0.0
C1883 C 0.52628 0.6182 0.9562 0.0
C1884 C 0.52552 0.61243 0.98507 0.0
C1885 C 0.52854 0.64729 0.9486 0.0
C1886 C 0.52687 0.63616 0.00617 0.0
C1887 C 0.52862 0.66499 0.99875 0.0
H1888 H 0.07464 0.76305 0.67262 0.0
H1889 H 0.11595 0.79012 0.59782 0.0
H1890 H 0.15964 0.78303 0.61903 0.0
H1891 H 0.18704 0.77002 0.65904 0.0
H1892 H 0.14694 0.74437 0.73462 0.0
H1893 H 0.10233 0.74963 0.7129 0.0
C1894 C 0.09318 0.76748 0.66097 0.0
C1895 C 0.09162 0.77719 0.63352 0.0
C1896 C 0.1187 0.76337 0.67338 0.0
C1897 C 0.11613 0.78267 0.61891 0.0
C1898 C 0.14133 0.77855 0.63101 0.0
C1899 C 0.16848 0.76522 0.67061 0.0
C1900 C 0.17034 0.75657 0.69833 0.0
C1901 C 0.14294 0.76891 0.6582 0.0
C1902 C 0.1461 0.75087 0.71317 0.0
C1903 C 0.12056 0.75403 0.7008 0.0
H1904 H 0.06282 0.35159 0.45632 0.0
H1905 H 0.03301 0.37655 0.37669 0.0
H1906 H 0.02519 0.42347 0.40096 0.0
H1907 H 0.02473 0.45601 0.44594 0.0
H1908 H 0.05801 0.43102 0.52422 0.0
H1909 H 0.06628 0.38532 0.49946 0.0
C1910 C 0.05473 0.36738 0.44423 0.0
C1911 C 0.04824 0.36065 0.41491 0.0
C1912 C 0.05068 0.39414 0.45819 0.0
C1913 C 0.03818 0.38139 0.39935 0.0
C1914 C 0.03357 0.40807 0.41325 0.0
C1915 C 0.03401 0.44067 0.45741 0.0
C1916 C 0.04055 0.44685 0.48691 0.0
C1917 C 0.03941 0.41451 0.44281 0.0
C1918 C 0.05266 0.42679 0.50155 0.0
C1919 C 0.05743 0.4006 0.48742 0.0
H1920 H 0.44781 0.31454 0.19092 0.0
H1921 H 0.42988 0.2218 0.16199 0.0
H1922 H 0.3888 0.2153 0.19007 0.0
H1923 H 0.35639 0.23679 0.22016 0.0
H1924 H 0.37372 0.33008 0.24809 0.0
H1925 H 0.41677 0.3355 0.22365 0.0
C1926 C 0.43501 0.2929 0.19113 0.0
C1927 C 0.44173 0.26862 0.17461 0.0
C1928 C 0.41135 0.28947 0.20717 0.0
C1929 C 0.42506 0.2407 0.17474 0.0
C1930 C 0.40159 0.23704 0.19073 0.0
C1931 C 0.36977 0.25825 0.22137 0.0
C1932 C 0.36165 0.28302 0.23601 0.0
C1933 C 0.39431 0.26135 0.20673 0.0
C1934 C 0.3793 0.31063 0.23702 0.0
C1935 C 0.40393 0.3138 0.22291 0.0
H1936 H 0.64142 0.50361 0.39036 0.0
H1937 H 0.57401 0.49885 0.32783 0.0
H1938 H 0.54139 0.49685 0.36514 0.0
H1939 H 0.53147 0.4982 0.41591 0.0
H1940 H 0.59817 0.50452 0.4791 0.0
H1941 H 0.6312 0.5041 0.44172 0.0
C1942 C 0.6196 0.50204 0.38492 0.0
C1943 C 0.6104 0.50147 0.35611 0.0
C1944 C 0.60062 0.50122 0.40679 0.0
C1945 C 0.58193 0.4995 0.34966 0.0
C1946 C 0.56309 0.49827 0.37107 0.0
C1947 C 0.55318 0.49908 0.42143 0.0
C1948 C 0.56237 0.50157 0.45032 0.0
C1949 C 0.57212 0.49928 0.39973 0.0
C1950 C 0.59065 0.50311 0.4571 0.0
C1951 C 0.60954 0.50273 0.43565 0.0
H1952 H 0.25467 0.79501 0.05026 0.0
H1953 H 0.24825 0.88505 0.07811 0.0
H1954 H 0.24933 0.87369 0.12768 0.0
H1955 H 0.25491 0.83886 0.16299 0.0
H1956 H 0.26269 0.74953 0.13453 0.0
H1957 H 0.25821 0.76003 0.08496 0.0
C1958 C 0.25337 0.81223 0.06706 0.0
C1959 C 0.25168 0.84094 0.06047 0.0
C1960 C 0.2544 0.80571 0.09533 0.0
C1961 C 0.24976 0.86281 0.0826 0.0
C1962 C 0.25042 0.85636 0.11093 0.0
C1963 C 0.25551 0.82172 0.14588 0.0
C1964 C 0.25936 0.79359 0.15216 0.0
C1965 C 0.2532 0.82801 0.11752 0.0
C1966 C 0.25992 0.77141 0.13002 0.0
C1967 C 0.25736 0.77739 0.10175 0.0
H1968 H 0.93365 0.5613 0.88726 0.0
H1969 H 1.00576 0.59754 0.84474 0.0
H1970 H 0.03528 0.59494 0.8871 0.0
H1971 H 0.04085 0.57583 0.93387 0.0
H1972 H 0.96839 0.53214 0.97151 0.0
H1973 H 0.93883 0.54471 0.93418 0.0
C1974 C 0.95574 0.56936 0.88762 0.0
C1975 C 0.96763 0.57958 0.86322 0.0
C1976 C 0.97258 0.56626 0.91129 0.0
C1977 C 0.9963 0.58951 0.86353 0.0
C1978 C 0.01315 0.58789 0.88762 0.0
C1979 C 0.01858 0.56962 0.93403 0.0
C1980 C 1.00679 0.55377 0.95579 0.0
C1981 C 1.00161 0.57525 0.91128 0.0
C1982 C 0.97795 0.54523 0.95554 0.0
C1983 C 0.96096 0.55207 0.93395 0.0
H1984 H 0.22966 0.21026 0.56785 0.0
H1985 H 0.30484 0.17498 0.57154 0.0
H1986 H 0.31147 0.19086 0.62277 0.0
H1987 H 0.29674 0.21673 0.66617 0.0
H1988 H 0.22022 0.24961 0.66228 0.0
H1989 H 0.21329 0.23266 0.61154 0.0
C1990 C 0.2475 0.20594 0.57984 0.0
C1991 C 0.26691 0.1917 0.56571 0.0
C1992 C 0.25096 0.21481 0.60929 0.0
C1993 C 0.2896 0.18586 0.58178 0.0
C1994 C 0.29344 0.19507 0.61108 0.0
C1995 C 0.27849 0.22013 0.65425 0.0
C1996 C 0.25912 0.23472 0.66811 0.0
C1997 C 0.27441 0.20989 0.62501 0.0
C1998 C 0.23544 0.23849 0.65231 0.0
C1999 C 0.23151 0.22886 0.62321 0.0
H2000 H 0.60879 0.56887 0.21635 0.0
H2001 H 0.64146 0.4896 0.19572 0.0
H2002 H 0.62785 0.49055 0.14505 0.0
H2003 H 0.60188 0.51135 0.10757 0.0
H2004 H 0.56792 0.58947 0.13039 0.0
H2005 H 0.58679 0.59153 0.17927 0.0
C2006 C 0.61324 0.55187 0.20077 0.0
C2007 C 0.62585 0.52896 0.20992 0.0
C2008 C 0.60483 0.55227 0.17207 0.0
C2009 C 0.63186 0.50749 0.18932 0.0
C2010 C 0.62383 0.50794 0.16039 0.0
C2011 C 0.59903 0.52907 0.12319 0.0
C2012 C 0.58337 0.55022 0.11535 0.0
C2013 C 0.6096 0.52981 0.15162 0.0
C2014 C 0.57975 0.57292 0.13583 0.0
C2015 C 0.59051 0.57408 0.16382 0.0
H2016 H 0.22977 0.8132 0.92359 0.0
H2017 H 0.26347 0.89879 0.89748 0.0
H2018 H 0.27426 0.87546 0.85182 0.0
H2019 H 0.274 0.83133 0.81991 0.0
H2020 H 0.23667 0.74572 0.84332 0.0
H2021 H 0.22816 0.76851 0.89042 0.0
C2022 C 0.23933 0.82671 0.90778 0.0
C2023 C 0.2458 0.85761 0.91367 0.0
C2024 C 0.24522 0.81317 0.88161 0.0
C2025 C 0.25807 0.87499 0.89317 0.0
C2026 C 0.26446 0.86166 0.86726 0.0
C2027 C 0.26417 0.81749 0.83533 0.0
C2028 C 0.25603 0.78685 0.82833 0.0
C2029 C 0.25822 0.83083 0.86141 0.0
C2030 C 0.24321 0.76932 0.84844 0.0
C2031 C 0.23818 0.78237 0.87514 0.0
H2032 H 0.99529 0.5088 0.72235 0.0
H2033 H 0.92655 0.55233 0.7058 0.0
H2034 H 0.93517 0.54955 0.65511 0.0
H2035 H 0.96391 0.53716 0.61607 0.0
H2036 H 0.0323 0.49341 0.63301 0.0
H2037 H 0.02221 0.49404 0.68326 0.0
C2038 C 0.9821 0.5176 0.70768 0.0
C2039 C 0.96051 0.53101 0.71783 0.0
C2040 C 0.98724 0.51609 0.67876 0.0
C2041 C 0.94333 0.54189 0.69849 0.0
C2042 C 0.94832 0.54045 0.66955 0.0
C2043 C 0.9765 0.52772 0.63082 0.0
C2044 C 0.99891 0.5155 0.62115 0.0
C2045 C 0.97049 0.52802 0.65956 0.0
C2046 C 0.015 0.50304 0.64018 0.0
C2047 C 1.00925 0.50339 0.66883 0.0
H2048 H 0.29299 0.22394 0.43053 0.0
H2049 H 0.25404 0.14161 0.38396 0.0
H2050 H 0.25582 0.16535 0.33939 0.0
H2051 H 0.2685 0.21016 0.31352 0.0
H2052 H 0.31173 0.29071 0.36045 0.0
H2053 H 0.30834 0.26718 0.40461 0.0
C2054 C 0.28473 0.21122 0.41065 0.0
C2055 C 0.27301 0.18111 0.41069 0.0
C2056 C 0.28675 0.22477 0.38499 0.0
C2057 C 0.263 0.16484 0.38459 0.0
C2058 C 0.26405 0.17844 0.35907 0.0
C2059 C 0.27734 0.22246 0.33337 0.0
C2060 C 0.29028 0.25231 0.33347 0.0
C2061 C 0.27593 0.20845 0.35894 0.0
C2062 C 0.3017 0.26778 0.35951 0.0
C2063 C 0.29969 0.25435 0.38493 0.0
H2064 H 0.3324 0.55659 0.50926 0.0
H2065 H 0.37328 0.63264 0.56438 0.0
H2066 H 0.41599 0.61285 0.56501 0.0
H2067 H 0.4427 0.57725 0.54583 0.0
H2068 H 0.40419 0.50283 0.48734 0.0
H2069 H 0.3593 0.51851 0.492 0.0
C2070 C 0.35054 0.56832 0.52192 0.0
C2071 C 0.34989 0.59586 0.53695 0.0
C2072 C 0.3754 0.55741 0.52108 0.0
C2073 C 0.37349 0.61136 0.55281 0.0
C2074 C 0.39787 0.60014 0.55302 0.0
C2075 C 0.42448 0.5643 0.53413 0.0
C2076 C 0.4267 0.53921 0.5159 0.0
C2077 C 0.39924 0.57374 0.53652 0.0
C2078 C 0.40291 0.5224 0.50129 0.0
C2079 C 0.37734 0.53138 0.50397 0.0
H2080 H 0.84524 0.95997 0.54407 0.0
H2081 H 0.87174 0.8951 0.48503 0.0
H2082 H 0.91687 0.92612 0.48482 0.0
H2083 H 0.95004 0.97037 0.50268 0.0
H2084 H 0.92547 0.03558 0.56239 0.0
H2085 H 0.87873 0.00607 0.56085 0.0
C2086 C 0.86083 0.95273 0.53105 0.0
C2087 C 0.85489 0.92491 0.51485 0.0
C2088 C 0.8873 0.97077 0.53113 0.0
C2089 C 0.87555 0.91608 0.49808 0.0
C2090 C 0.90151 0.93389 0.49782 0.0
C2091 C 0.93441 0.97831 0.51519 0.0
C2092 C 0.94131 0.00514 0.53266 0.0
C2093 C 0.90777 0.96107 0.51448 0.0
C2094 C 0.92075 0.01499 0.54875 0.0
C2095 C 0.89401 0.99805 0.54793 0.0
H2096 H 0.8224 0.09683 0.2314 0.0
H2097 H 0.90271 0.1477 0.25911 0.0
H2098 H 0.88306 0.19252 0.26541 0.0
H2099 H 0.84329 0.21758 0.26317 0.0
H2100 H 0.76284 0.16742 0.23482 0.0
H2101 H 0.78225 0.12226 0.22901 0.0
C2102 C 0.83564 0.11774 0.23864 0.0
C2103 C 0.86411 0.11873 0.24465 0.0
C2104 C 0.82412 0.14365 0.24239 0.0
C2105 C 0.88082 0.14612 0.2542 0.0
C2106 C 0.86955 0.17184 0.25792 0.0
C2107 C 0.82984 0.19679 0.25595 0.0
C2108 C 0.80147 0.19612 0.24966 0.0
C2109 C 0.84123 0.17089 0.25222 0.0
C2110 C 0.78466 0.16879 0.24002 0.0
C2111 C 0.7958 0.14288 0.23656 0.0
H2112 H 0.67141 0.14209 0.02997 0.0
H2113 H 0.69833 0.0794 0.96929 0.0
H2114 H 0.65245 0.04797 0.96663 0.0
H2115 H 0.60419 0.03975 0.98011 0.0
H2116 H 0.5784 0.10064 0.04361 0.0
H2117 H 0.62453 0.13126 0.0471 0.0
C2118 C 0.66713 0.12147 0.01628 0.0
C2119 C 0.68782 0.11308 0.99953 0.0
C2120 C 0.64108 0.10325 0.01553 0.0
C2121 C 0.68249 0.08616 0.98224 0.0
C2122 C 0.65635 0.06829 0.98072 0.0
C2123 C 0.60882 0.05957 0.99491 0.0
C2124 C 0.58802 0.06812 0.01145 0.0
C2125 C 0.63542 0.07678 0.99707 0.0
C2126 C 0.5942 0.09361 0.03078 0.0
C2127 C 0.62048 0.1112 0.03263 0.0
H2128 H 0.20013 0.45747 0.28578 0.0
H2129 H 0.20268 0.45227 0.19442 0.0
H2130 H 0.23723 0.42006 0.19613 0.0
H2131 H 0.26221 0.38923 0.22346 0.0
H2132 H 0.25971 0.39475 0.31498 0.0
H2133 H 0.23024 0.43203 0.31367 0.0
C2134 C 0.2086 0.44946 0.26635 0.0
C2135 C 0.19888 0.45649 0.23998 0.0
C2136 C 0.22845 0.43138 0.26765 0.0
C2137 C 0.20995 0.44668 0.21484 0.0
C2138 C 0.22961 0.4284 0.21587 0.0
C2139 C 0.25575 0.39919 0.24316 0.0
C2140 C 0.26275 0.38921 0.26926 0.0
C2141 C 0.23844 0.42004 0.24212 0.0
C2142 C 0.25455 0.40225 0.29469 0.0
C2143 C 0.23748 0.42326 0.29389 0.0
H2144 H 0.18453 0.41105 0.99146 0.0
H2145 H 0.23137 0.47012 0.0591 0.0
H2146 H 0.19351 0.49786 0.06362 0.0
H2147 H 0.14665 0.50579 0.04787 0.0
H2148 H 0.10205 0.44861 0.97753 0.0
H2149 H 0.13908 0.42005 0.97456 0.0
C2150 C 0.18641 0.42989 0.00732 0.0
C2151 C 0.21078 0.43822 0.0251 0.0
C2152 C 0.16482 0.44632 0.00923 0.0
C2153 C 0.21291 0.46308 0.04517 0.0
C2154 C 0.19121 0.479 0.04775 0.0
C2155 C 0.14512 0.48712 0.03188 0.0
C2156 C 0.12142 0.47944 0.01296 0.0
C2157 C 0.16701 0.47095 0.02983 0.0
C2158 C 0.11995 0.45521 0.9923 0.0
C2159 C 0.14117 0.43873 0.99062 0.0
H2160 H 0.88705 0.92559 0.25858 0.0
H2161 H 0.82788 0.97276 0.22293 0.0
H2162 H 0.79213 0.92822 0.22084 0.0
H2163 H 0.77736 0.87587 0.23061 0.0
H2164 H 0.83704 0.83082 0.26844 0.0
H2165 H 0.87286 0.87434 0.26778 0.0
C2166 C 0.86641 0.92629 0.25017 0.0
C2167 C 0.86032 0.95269 0.2409 0.0
C2168 C 0.84597 0.90078 0.24931 0.0
C2169 C 0.83328 0.95287 0.23026 0.0
C2170 C 0.81279 0.92736 0.22904 0.0
C2171 C 0.79828 0.87557 0.23844 0.0
C2172 C 0.80456 0.84993 0.24926 0.0
C2173 C 0.81884 0.90117 0.23868 0.0
C2174 C 0.83168 0.85002 0.25965 0.0
C2175 C 0.85219 0.87502 0.25946 0.0
H2176 H 0.65333 0.14145 0.71707 0.0
H2177 H 0.71003 0.09173 0.75342 0.0
H2178 H 0.74755 0.13371 0.75368 0.0
H2179 H 0.76355 0.18571 0.74768 0.0
H2180 H 0.70826 0.23612 0.71055 0.0
H2181 H 0.67106 0.19263 0.70589 0.0
C2182 C 0.67394 0.13981 0.72486 0.0
C2183 C 0.67875 0.11358 0.73553 0.0
C2184 C 0.69571 0.16408 0.72467 0.0
C2185 C 0.70568 0.11162 0.74514 0.0
C2186 C 0.72721 0.13565 0.74534 0.0
C2187 C 0.7435 0.18694 0.738 0.0
C2188 C 0.73853 0.21389 0.72948 0.0
C2189 C 0.72236 0.16209 0.73566 0.0
C2190 C 0.71257 0.21539 0.71691 0.0
C2191 C 0.69125 0.19065 0.71459 0.0
loop_
_geom_bond_atom_site_label_1
_geom_bond_atom_site_label_2
_geom_bond_distance
_geom_bond_site_symmetry_2
_ccdc_geom_bond_type
Co0 O1 2.216 . S
Co0 O2 2.091 . S
Co0 O4 2.004 1_455 S
Co0 O10 2.021 . S
Co0 O12 2.137 . S
Co0 O13 2.244 . S
O1 Co0 2.216 . S
O1 C8 1.247 . S
O2 Co0 2.091 . S
O2 C8 1.261 . S
C3 O12 1.247 . S
C3 O13 1.272 . S
O4 Co0 2.004 1_655 S
O4 C9 1.259 . S
Co5 O6 2.061 . S
Co5 O11 2.052 1_655 S
Co5 O13 2.135 1_655 S
O6 Co5 2.061 . S
O6 C9 1.235 . S
C7 O10 1.238 . S
C7 O11 1.241 . S
C8 O1 1.247 . S
C8 O2 1.261 . S
C9 O4 1.259 . S
C9 O6 1.235 . S
O10 Co0 2.021 . S
O10 C7 1.238 . S
O11 Co5 2.052 1_455 S
O11 C7 1.241 . S
O12 Co0 2.137 . S
O12 C3 1.247 . S
O13 Co0 2.244 . S
O13 C3 1.272 . S
O13 Co5 2.135 1_455 S
Co14 O15 2.216 1_455 S
Co14 O16 2.091 1_455 S
Co14 O18 2.004 . S
Co14 O24 2.022 1_455 S
Co14 O26 2.137 . S
Co14 O27 2.244 . S
O15 Co14 2.216 1_655 S
O15 C22 1.247 . S
O16 Co14 2.091 1_655 S
O16 C22 1.261 . S
C17 O26 1.247 . S
C17 O27 1.272 . S
O18 Co14 2.004 . S
O18 C23 1.259 . S
Co19 O20 2.061 . S
Co19 O25 2.052 . S
Co19 O27 2.135 . S
O20 Co19 2.061 . S
O20 C23 1.235 . S
C21 O24 1.235 1_455 S
C21 O25 1.241 . S
C22 O15 1.247 . S
C22 O16 1.261 . S
C23 O18 1.259 . S
C23 O20 1.235 . S
O24 Co14 2.022 1_655 S
O24 C21 1.235 1_655 S
O25 Co19 2.052 . S
O25 C21 1.241 . S
O26 Co14 2.137 . S
O26 C17 1.247 . S
O27 Co14 2.244 . S
O27 C17 1.272 . S
O27 Co19 2.135 . S
Co28 O29 2.216 . S
Co28 O30 2.091 . S
Co28 O32 2.004 . S
Co28 O38 2.021 . S
Co28 O40 2.137 . S
Co28 O41 2.244 . S
O29 Co28 2.216 . S
O29 C36 1.247 . S
O30 Co28 2.091 . S
O30 C36 1.261 . S
C31 O40 1.247 . S
C31 O41 1.272 . S
O32 Co28 2.004 . S
O32 C37 1.259 . S
Co33 O34 2.061 . S
Co33 O39 2.052 . S
Co33 O41 2.135 . S
O34 Co33 2.061 . S
O34 C37 1.235 . S
C35 O38 1.238 . S
C35 O39 1.241 . S
C36 O29 1.247 . S
C36 O30 1.261 . S
C37 O32 1.259 . S
C37 O34 1.235 . S
O38 Co28 2.021 . S
O38 C35 1.238 . S
O39 Co33 2.052 . S
O39 C35 1.241 . S
O40 Co28 2.137 . S
O40 C31 1.247 . S
O41 Co28 2.244 . S
O41 C31 1.272 . S
O41 Co33 2.135 . S
Co42 O43 2.216 . S
Co42 O44 2.091 . S
Co42 O46 2.004 . S
Co42 O52 2.021 . S
Co42 O54 2.137 . S
Co42 O55 2.244 . S
O43 Co42 2.216 . S
O43 C50 1.247 . S
O44 Co42 2.091 . S
O44 C50 1.261 . S
C45 O54 1.247 . S
C45 O55 1.272 . S
O46 Co42 2.004 . S
O46 C51 1.259 . S
Co47 O48 2.061 . S
Co47 O53 2.052 . S
Co47 O55 2.135 . S
O48 Co47 2.061 . S
O48 C51 1.235 . S
C49 O52 1.238 . S
C49 O53 1.241 . S
C50 O43 1.247 . S
C50 O44 1.261 . S
C51 O46 1.259 . S
C51 O48 1.235 . S
O52 Co42 2.021 . S
O52 C49 1.238 . S
O53 Co47 2.052 . S
O53 C49 1.241 . S
O54 Co42 2.137 . S
O54 C45 1.247 . S
O55 Co42 2.244 . S
O55 C45 1.272 . S
O55 Co47 2.135 . S
Co56 O57 2.216 1_455 S
Co56 O58 2.091 1_455 S
Co56 O60 2.004 . S
Co56 O66 2.021 . S
Co56 O68 2.137 . S
Co56 O69 2.244 . S
O57 Co56 2.216 1_655 S
O57 C64 1.247 . S
O58 Co56 2.091 1_655 S
O58 C64 1.261 . S
C59 O68 1.247 . S
C59 O69 1.272 . S
O60 Co56 2.004 . S
O60 C65 1.259 . S
Co61 O62 2.061 . S
Co61 O67 2.052 . S
Co61 O69 2.135 . S
O62 Co61 2.061 . S
O62 C65 1.235 . S
C63 O66 1.238 . S
C63 O67 1.241 . S
C64 O57 1.247 . S
C64 O58 1.261 . S
C65 O60 1.259 . S
C65 O62 1.235 . S
O66 Co56 2.021 . S
O66 C63 1.238 . S
O67 Co61 2.052 . S
O67 C63 1.241 . S
O68 Co56 2.137 . S
O68 C59 1.247 . S
O69 Co56 2.244 . S
O69 C59 1.272 . S
O69 Co61 2.135 . S
Co70 O71 2.216 . S
Co70 O72 2.091 . S
Co70 O74 2.004 . S
Co70 O80 2.021 . S
Co70 O82 2.137 . S
Co70 O83 2.244 . S
O71 Co70 2.216 . S
O71 C78 1.247 . S
O72 Co70 2.091 . S
O72 C78 1.261 . S
C73 O82 1.247 . S
C73 O83 1.272 . S
O74 Co70 2.004 . S
O74 C79 1.259 . S
Co75 O76 2.061 . S
Co75 O81 2.052 . S
Co75 O83 2.135 . S
O76 Co75 2.061 . S
O76 C79 1.235 . S
C77 O80 1.238 . S
C77 O81 1.241 . S
C78 O71 1.247 . S
C78 O72 1.261 . S
C79 O74 1.259 . S
C79 O76 1.235 . S
O80 Co70 2.021 . S
O80 C77 1.238 . S
O81 Co75 2.052 . S
O81 C77 1.241 . S
O82 Co70 2.137 . S
O82 C73 1.247 . S
O83 Co70 2.244 . S
O83 C73 1.272 . S
O83 Co75 2.135 . S
Co84 O85 2.216 . S
Co84 O86 2.091 . S
Co84 O88 2.004 . S
Co84 O94 2.021 . S
Co84 O96 2.137 . S
Co84 O97 2.244 . S
O85 Co84 2.216 . S
O85 C92 1.247 . S
O86 Co84 2.091 . S
O86 C92 1.261 . S
C87 O96 1.247 . S
C87 O97 1.272 . S
O88 Co84 2.004 . S
O88 C93 1.259 . S
Co89 O90 2.061 . S
Co89 O95 2.052 . S
Co89 O97 2.135 . S
O90 Co89 2.061 . S
O90 C93 1.235 . S
C91 O94 1.238 . S
C91 O95 1.241 . S
C92 O85 1.247 . S
C92 O86 1.261 . S
C93 O88 1.259 . S
C93 O90 1.235 . S
O94 Co84 2.021 . S
O94 C91 1.238 . S
O95 Co89 2.052 . S
O95 C91 1.241 . S
O96 Co84 2.137 . S
O96 C87 1.247 . S
O97 Co84 2.244 . S
O97 C87 1.272 . S
O97 Co89 2.135 . S
Co98 O99 2.216 . S
Co98 O100 2.091 . S
Co98 O102 2.004 1_455 S
Co98 O108 2.020 . S
Co98 O110 2.137 . S
Co98 O111 2.244 1_455 S
O99 Co98 2.216 . S
O99 C106 1.247 . S
O100 Co98 2.091 . S
O100 C106 1.261 . S
C101 O110 1.247 . S
C101 O111 1.272 1_455 S
O102 Co98 2.004 1_655 S
O102 C107 1.259 . S
Co103 O104 2.061 . S
Co103 O109 2.052 . S
Co103 O111 2.135 . S
O104 Co103 2.061 . S
O104 C107 1.235 . S
C105 O108 1.231 1_655 S
C105 O109 1.241 . S
C106 O99 1.247 . S
C106 O100 1.261 . S
C107 O102 1.259 . S
C107 O104 1.235 . S
O108 Co98 2.020 . S
O108 C105 1.231 1_455 S
O109 Co103 2.052 . S
O109 C105 1.241 . S
O110 Co98 2.137 . S
O110 C101 1.247 . S
O111 Co98 2.244 1_655 S
O111 C101 1.272 1_655 S
O111 Co103 2.135 . S
Co112 O113 2.216 . S
Co112 O114 2.091 . S
Co112 O116 2.004 1_545 S
Co112 O122 2.021 . S
Co112 O124 2.137 . S
Co112 O125 2.244 . S
O113 Co112 2.216 . S
O113 C120 1.247 . S
O114 Co112 2.091 . S
O114 C120 1.261 . S
C115 O124 1.247 . S
C115 O125 1.272 . S
O116 Co112 2.004 1_565 S
O116 C121 1.259 . S
Co117 O118 2.061 . S
Co117 O123 2.052 1_565 S
Co117 O125 2.135 1_565 S
O118 Co117 2.061 . S
O118 C121 1.235 . S
C119 O122 1.238 . S
C119 O123 1.241 . S
C120 O113 1.247 . S
C120 O114 1.261 . S
C121 O116 1.259 . S
C121 O118 1.235 . S
O122 Co112 2.021 . S
O122 C119 1.238 . S
O123 Co117 2.052 1_545 S
O123 C119 1.241 . S
O124 Co112 2.137 . S
O124 C115 1.247 . S
O125 Co112 2.244 . S
O125 C115 1.272 . S
O125 Co117 2.135 1_545 S
Co126 O127 2.216 . S
Co126 O128 2.091 . S
Co126 O130 2.004 . S
Co126 O136 2.021 . S
Co126 O138 2.137 . S
Co126 O139 2.244 . S
O127 Co126 2.216 . S
O127 C134 1.247 . S
O128 Co126 2.091 . S
O128 C134 1.261 . S
C129 O138 1.247 . S
C129 O139 1.272 . S
O130 Co126 2.004 . S
O130 C135 1.259 . S
Co131 O132 2.061 . S
Co131 O137 2.052 . S
Co131 O139 2.135 . S
O132 Co131 2.061 . S
O132 C135 1.235 . S
C133 O136 1.238 . S
C133 O137 1.241 . S
C134 O127 1.247 . S
C134 O128 1.261 . S
C135 O130 1.259 . S
C135 O132 1.235 . S
O136 Co126 2.021 . S
O136 C133 1.238 . S
O137 Co131 2.052 . S
O137 C133 1.241 . S
O138 Co126 2.137 . S
O138 C129 1.247 . S
O139 Co126 2.244 . S
O139 C129 1.272 . S
O139 Co131 2.135 . S
Co140 O141 2.216 . S
Co140 O142 2.091 . S
Co140 O144 2.004 1_565 S
Co140 O150 2.021 . S
Co140 O152 2.137 . S
Co140 O153 2.244 1_565 S
O141 Co140 2.216 . S
O141 C148 1.247 . S
O142 Co140 2.091 . S
O142 C148 1.261 . S
C143 O152 1.234 1_545 S
C143 O153 1.283 . S
O144 Co140 2.004 1_545 S
O144 C149 1.259 . S
Co145 O146 2.061 . S
Co145 O151 2.052 . S
Co145 O153 2.135 . S
O146 Co145 2.061 . S
O146 C149 1.235 . S
C147 O150 1.238 . S
C147 O151 1.241 1_565 S
C148 O141 1.247 . S
C148 O142 1.261 . S
C149 O144 1.259 . S
C149 O146 1.235 . S
O150 Co140 2.021 . S
O150 C147 1.238 . S
O151 Co145 2.052 . S
O151 C147 1.241 1_545 S
O152 Co140 2.137 . S
O152 C143 1.234 1_565 S
O153 Co140 2.244 1_545 S
O153 C143 1.283 . S
O153 Co145 2.135 . S
Co154 O155 2.216 . S
Co154 O156 2.091 . S
Co154 O158 2.004 . S
Co154 O164 2.021 . S
Co154 O166 2.137 1_554 S
Co154 O167 2.244 1_554 S
O155 Co154 2.216 . S
O155 C162 1.247 . S
O156 Co154 2.091 . S
O156 C162 1.261 . S
C157 O166 1.247 . S
C157 O167 1.272 . S
O158 Co154 2.004 . S
O158 C163 1.259 . S
Co159 O160 2.061 . S
Co159 O165 2.052 . S
Co159 O167 2.135 1_554 S
O160 Co159 2.061 . S
O160 C163 1.235 . S
C161 O164 1.238 . S
C161 O165 1.241 . S
C162 O155 1.247 . S
C162 O156 1.261 . S
C163 O158 1.259 . S
C163 O160 1.235 . S
O164 Co154 2.021 . S
O164 C161 1.238 . S
O165 Co159 2.052 . S
O165 C161 1.241 . S
O166 Co154 2.137 1_556 S
O166 C157 1.247 . S
O167 Co154 2.244 1_556 S
O167 C157 1.272 . S
O167 Co159 2.135 1_556 S
Co168 O169 2.216 . S
Co168 O170 2.091 . S
Co168 O172 2.004 . S
Co168 O178 2.021 . S
Co168 O180 2.137 1_554 S
Co168 O181 2.244 1_554 S
O169 Co168 2.216 . S
O169 C176 1.247 . S
O170 Co168 2.091 . S
O170 C176 1.261 . S
C171 O180 1.247 . S
C171 O181 1.272 . S
O172 Co168 2.004 . S
O172 C177 1.259 . S
Co173 O174 2.061 . S
Co173 O179 2.052 . S
Co173 O181 2.135 1_554 S
O174 Co173 2.061 . S
O174 C177 1.235 . S
C175 O178 1.238 . S
C175 O179 1.241 . S
C176 O169 1.247 . S
C176 O170 1.261 . S
C177 O172 1.259 . S
C177 O174 1.235 . S
O178 Co168 2.021 . S
O178 C175 1.238 . S
O179 Co173 2.052 . S
O179 C175 1.241 . S
O180 Co168 2.137 1_556 S
O180 C171 1.247 . S
O181 Co168 2.244 1_556 S
O181 C171 1.272 . S
O181 Co173 2.135 1_556 S
Co182 O183 2.217 . S
Co182 O184 2.091 . S
Co182 O186 2.004 . S
Co182 O192 2.021 1_556 S
Co182 O194 2.137 . S
Co182 O195 2.244 . S
O183 Co182 2.217 . S
O183 C190 1.243 . S
O184 Co182 2.091 . S
O184 C190 1.261 . S
C185 O194 1.247 . S
C185 O195 1.272 . S
O186 Co182 2.004 . S
O186 C191 1.259 . S
Co187 O188 2.060 . S
Co187 O193 2.052 . S
Co187 O195 2.135 1_554 S
O188 Co187 2.060 . S
O188 C191 1.234 1_554 S
C189 O192 1.238 . S
C189 O193 1.241 . S
C190 O183 1.243 . S
C190 O184 1.261 . S
C191 O186 1.259 . S
C191 O188 1.234 1_556 S
O192 Co182 2.021 1_554 S
O192 C189 1.238 . S
O193 Co187 2.052 . S
O193 C189 1.241 . S
O194 Co182 2.137 . S
O194 C185 1.247 . S
O195 Co182 2.244 . S
O195 C185 1.272 . S
O195 Co187 2.135 1_556 S
Co196 O197 2.216 . S
Co196 O198 2.091 . S
Co196 O200 2.004 . S
Co196 O206 2.021 . S
Co196 O208 2.137 . S
Co196 O209 2.244 . S
O197 Co196 2.216 . S
O197 C204 1.247 . S
O198 Co196 2.091 . S
O198 C204 1.261 . S
C199 O208 1.247 . S
C199 O209 1.272 . S
O200 Co196 2.004 . S
O200 C205 1.259 . S
Co201 O202 2.061 . S
Co201 O207 2.052 . S
Co201 O209 2.135 . S
O202 Co201 2.061 . S
O202 C205 1.235 . S
C203 O206 1.238 . S
C203 O207 1.241 . S
C204 O197 1.247 . S
C204 O198 1.261 . S
C205 O200 1.259 . S
C205 O202 1.235 . S
O206 Co196 2.021 . S
O206 C203 1.238 . S
O207 Co201 2.052 . S
O207 C203 1.241 . S
O208 Co196 2.137 . S
O208 C199 1.247 . S
O209 Co196 2.244 . S
O209 C199 1.272 . S
O209 Co201 2.135 . S
Co210 O211 2.216 . S
Co210 O212 2.091 . S
Co210 O214 2.004 . S
Co210 O220 2.021 . S
Co210 O222 2.137 . S
Co210 O223 2.244 . S
O211 Co210 2.216 . S
O211 C218 1.247 . S
O212 Co210 2.091 . S
O212 C218 1.261 . S
C213 O222 1.247 . S
C213 O223 1.272 . S
O214 Co210 2.004 . S
O214 C219 1.259 . S
Co215 O216 2.061 . S
Co215 O221 2.052 . S
Co215 O223 2.135 . S
O216 Co215 2.061 . S
O216 C219 1.235 . S
C217 O220 1.238 . S
C217 O221 1.241 . S
C218 O211 1.247 . S
C218 O212 1.261 . S
C219 O214 1.259 . S
C219 O216 1.235 . S
O220 Co210 2.021 . S
O220 C217 1.238 . S
O221 Co215 2.052 . S
O221 C217 1.241 . S
O222 Co210 2.137 . S
O222 C213 1.247 . S
O223 Co210 2.244 . S
O223 C213 1.272 . S
O223 Co215 2.135 . S
Co224 O225 2.216 . S
Co224 O226 2.091 . S
Co224 O228 2.004 . S
Co224 O234 2.021 . S
Co224 O236 2.137 . S
Co224 O237 2.244 . S
O225 Co224 2.216 . S
O225 C232 1.247 . S
O226 Co224 2.091 . S
O226 C232 1.261 . S
C227 O236 1.247 . S
C227 O237 1.272 . S
O228 Co224 2.004 . S
O228 C233 1.259 1_545 S
Co229 O230 2.061 1_545 S
Co229 O235 2.052 . S
Co229 O237 2.135 . S
O230 Co229 2.061 1_565 S
O230 C233 1.235 . S
C231 O234 1.238 . S
C231 O235 1.241 . S
C232 O225 1.247 . S
C232 O226 1.261 . S
C233 O228 1.259 1_565 S
C233 O230 1.235 . S
O234 Co224 2.021 . S
O234 C231 1.238 . S
O235 Co229 2.052 . S
O235 C231 1.241 . S
O236 Co224 2.137 . S
O236 C227 1.247 . S
O237 Co224 2.244 . S
O237 C227 1.272 . S
O237 Co229 2.135 . S
Co238 O239 2.216 . S
Co238 O240 2.091 . S
Co238 O242 2.004 . S
Co238 O248 2.021 . S
Co238 O250 2.137 . S
Co238 O251 2.244 . S
O239 Co238 2.216 . S
O239 C246 1.247 . S
O240 Co238 2.091 . S
O240 C246 1.261 . S
C241 O250 1.247 . S
C241 O251 1.272 . S
O242 Co238 2.004 . S
O242 C247 1.259 . S
Co243 O244 2.061 . S
Co243 O249 2.052 . S
Co243 O251 2.135 . S
O244 Co243 2.061 . S
O244 C247 1.235 . S
C245 O248 1.238 . S
C245 O249 1.241 . S
C246 O239 1.247 . S
C246 O240 1.261 . S
C247 O242 1.259 . S
C247 O244 1.235 . S
O248 Co238 2.021 . S
O248 C245 1.238 . S
O249 Co243 2.052 . S
O249 C245 1.241 . S
O250 Co238 2.137 . S
O250 C241 1.247 . S
O251 Co238 2.244 . S
O251 C241 1.272 . S
O251 Co243 2.135 . S
Co252 O253 2.216 . S
Co252 O254 2.091 . S
Co252 O256 2.004 . S
Co252 O262 2.021 . S
Co252 O264 2.137 . S
Co252 O265 2.244 . S
O253 Co252 2.216 . S
O253 C260 1.247 . S
O254 Co252 2.091 . S
O254 C260 1.261 . S
C255 O264 1.247 . S
C255 O265 1.272 . S
O256 Co252 2.004 . S
O256 C261 1.259 . S
Co257 O258 2.061 . S
Co257 O263 2.052 . S
Co257 O265 2.135 . S
O258 Co257 2.061 . S
O258 C261 1.235 . S
C259 O262 1.238 . S
C259 O263 1.241 . S
C260 O253 1.247 . S
C260 O254 1.261 . S
C261 O256 1.259 . S
C261 O258 1.235 . S
O262 Co252 2.021 . S
O262 C259 1.238 . S
O263 Co257 2.052 . S
O263 C259 1.241 . S
O264 Co252 2.137 . S
O264 C255 1.247 . S
O265 Co252 2.244 . S
O265 C255 1.272 . S
O265 Co257 2.135 . S
Co266 O267 2.216 1_545 S
Co266 O268 2.091 1_545 S
Co266 O270 2.004 . S
Co266 O276 2.021 . S
Co266 O278 2.137 . S
Co266 O279 2.244 . S
O267 Co266 2.216 1_565 S
O267 C274 1.247 . S
O268 Co266 2.091 1_565 S
O268 C274 1.261 . S
C269 O278 1.247 . S
C269 O279 1.272 . S
O270 Co266 2.004 . S
O270 C275 1.259 . S
Co271 O272 2.061 . S
Co271 O277 2.052 . S
Co271 O279 2.135 . S
O272 Co271 2.061 . S
O272 C275 1.235 . S
C273 O276 1.238 . S
C273 O277 1.241 . S
C274 O267 1.247 . S
C274 O268 1.261 . S
C275 O270 1.259 . S
C275 O272 1.235 . S
O276 Co266 2.021 . S
O276 C273 1.238 . S
O277 Co271 2.052 . S
O277 C273 1.241 . S
O278 Co266 2.137 . S
O278 C269 1.247 . S
O279 Co266 2.244 . S
O279 C269 1.272 . S
O279 Co271 2.135 . S
Co280 O281 2.216 1_556 S
Co280 O282 2.091 1_556 S
Co280 O284 2.005 . S
Co280 O290 2.021 1_556 S
Co280 O292 2.137 . S
Co280 O293 2.244 . S
O281 Co280 2.216 1_554 S
O281 C288 1.247 . S
O282 Co280 2.091 1_554 S
O282 C288 1.261 . S
C283 O292 1.247 . S
C283 O293 1.272 . S
O284 Co280 2.005 . S
O284 C289 1.257 1_556 S
Co285 O286 2.061 . S
Co285 O291 2.052 . S
Co285 O293 2.135 1_554 S
O286 Co285 2.061 . S
O286 C289 1.236 . S
C287 O290 1.238 . S
C287 O291 1.241 . S
C288 O281 1.247 . S
C288 O282 1.261 . S
C289 O284 1.257 1_554 S
C289 O286 1.236 . S
O290 Co280 2.021 1_554 S
O290 C287 1.238 . S
O291 Co285 2.052 . S
O291 C287 1.241 . S
O292 Co280 2.137 . S
O292 C283 1.247 . S
O293 Co280 2.244 . S
O293 C283 1.272 . S
O293 Co285 2.135 1_556 S
Co294 O295 2.216 . S
Co294 O296 2.091 . S
Co294 O298 2.004 . S
Co294 O304 2.021 . S
Co294 O306 2.137 . S
Co294 O307 2.244 . S
O295 Co294 2.216 . S
O295 C302 1.247 . S
O296 Co294 2.091 . S
O296 C302 1.261 . S
C297 O306 1.247 . S
C297 O307 1.272 . S
O298 Co294 2.004 . S
O298 C303 1.259 . S
Co299 O300 2.061 . S
Co299 O305 2.052 . S
Co299 O307 2.135 . S
O300 Co299 2.061 . S
O300 C303 1.235 . S
C301 O304 1.238 . S
C301 O305 1.241 . S
C302 O295 1.247 . S
C302 O296 1.261 . S
C303 O298 1.259 . S
C303 O300 1.235 . S
O304 Co294 2.021 . S
O304 C301 1.238 . S
O305 Co299 2.052 . S
O305 C301 1.241 . S
O306 Co294 2.137 . S
O306 C297 1.247 . S
O307 Co294 2.244 . S
O307 C297 1.272 . S
O307 Co299 2.135 . S
Co308 O309 2.216 . S
Co308 O310 2.091 . S
Co308 O312 2.004 . S
Co308 O318 2.021 . S
Co308 O320 2.137 . S
Co308 O321 2.244 . S
O309 Co308 2.216 . S
O309 C316 1.247 . S
O310 Co308 2.091 . S
O310 C316 1.261 . S
C311 O320 1.247 . S
C311 O321 1.272 . S
O312 Co308 2.004 . S
O312 C317 1.259 . S
Co313 O314 2.061 . S
Co313 O319 2.052 . S
Co313 O321 2.135 . S
O314 Co313 2.061 . S
O314 C317 1.235 . S
C315 O318 1.238 . S
C315 O319 1.241 . S
C316 O309 1.247 . S
C316 O310 1.261 . S
C317 O312 1.259 . S
C317 O314 1.235 . S
O318 Co308 2.021 . S
O318 C315 1.238 . S
O319 Co313 2.052 . S
O319 C315 1.241 . S
O320 Co308 2.137 . S
O320 C311 1.247 . S
O321 Co308 2.244 . S
O321 C311 1.272 . S
O321 Co313 2.135 . S
Co322 O323 2.216 . S
Co322 O324 2.091 . S
Co322 O326 2.004 . S
Co322 O332 2.021 . S
Co322 O334 2.137 . S
Co322 O335 2.244 . S
O323 Co322 2.216 . S
O323 C330 1.247 . S
O324 Co322 2.091 . S
O324 C330 1.261 . S
C325 O334 1.247 . S
C325 O335 1.272 . S
O326 Co322 2.004 . S
O326 C331 1.259 . S
Co327 O328 2.061 . S
Co327 O333 2.052 . S
Co327 O335 2.135 . S
O328 Co327 2.061 . S
O328 C331 1.235 . S
C329 O332 1.238 . S
C329 O333 1.241 . S
C330 O323 1.247 . S
C330 O324 1.261 . S
C331 O326 1.259 . S
C331 O328 1.235 . S
O332 Co322 2.021 . S
O332 C329 1.238 . S
O333 Co327 2.052 . S
O333 C329 1.241 . S
O334 Co322 2.137 . S
O334 C325 1.247 . S
O335 Co322 2.244 . S
O335 C325 1.272 . S
O335 Co327 2.135 . S
Dy336 O340 2.398 . S
Dy336 O341 2.491 1_556 S
Dy336 O342 2.403 . S
Dy336 O343 2.664 1_655 S
Dy336 O347 2.326 . S
Dy336 O351 2.310 1_656 S
Dy336 O352 2.351 1_546 S
C337 O348 1.185 . S
C337 O349 1.355 . S
C338 O340 1.185 . S
C338 O341 1.355 1_556 S
Dy339 O343 2.310 1_554 S
Dy339 O346 2.351 . S
Dy339 O348 2.398 . S
Dy339 O349 2.491 . S
Dy339 O350 2.403 . S
Dy339 O351 2.664 . S
Dy339 O353 2.326 1_545 S
O340 Dy336 2.398 . S
O340 C338 1.185 . S
O341 Dy336 2.491 1_554 S
O341 C338 1.355 1_554 S
O342 Dy336 2.403 . S
O342 C344 1.254 1_655 S
O343 Dy336 2.664 1_455 S
O343 Dy339 2.310 1_556 S
O343 C344 1.268 . S
C344 O342 1.254 1_455 S
C344 O343 1.268 . S
C345 O350 1.254 . S
C345 O351 1.268 . S
O346 Dy339 2.351 . S
O346 C354 1.249 1_554 S
O347 Dy336 2.326 . S
O347 C354 1.267 1_655 S
O348 C337 1.185 . S
O348 Dy339 2.398 . S
O349 C337 1.355 . S
O349 Dy339 2.491 . S
O350 Dy339 2.403 . S
O350 C345 1.254 . S
O351 Dy336 2.310 1_454 S
O351 Dy339 2.664 . S
O351 C345 1.268 . S
O352 Dy336 2.351 1_564 S
O352 C355 1.249 1_655 S
O353 Dy339 2.326 1_565 S
O353 C355 1.267 . S
C354 O346 1.249 1_556 S
C354 O347 1.267 1_455 S
C355 O352 1.249 1_455 S
C355 O353 1.267 . S
Dy356 O360 2.398 . S
Dy356 O361 2.491 . S
Dy356 O362 2.403 . S
Dy356 O363 2.664 . S
Dy356 O367 2.326 . S
Dy356 O371 2.310 . S
Dy356 O372 2.351 . S
C357 O368 1.185 . S
C357 O369 1.355 . S
C358 O360 1.185 . S
C358 O361 1.355 . S
Dy359 O363 2.310 . S
Dy359 O366 2.351 . S
Dy359 O368 2.398 . S
Dy359 O369 2.491 . S
Dy359 O370 2.403 . S
Dy359 O371 2.664 . S
Dy359 O373 2.326 . S
O360 Dy356 2.398 . S
O360 C358 1.185 . S
O361 Dy356 2.491 . S
O361 C358 1.355 . S
O362 Dy356 2.403 . S
O362 C364 1.254 . S
O363 Dy356 2.664 . S
O363 Dy359 2.310 . S
O363 C364 1.268 . S
C364 O362 1.254 . S
C364 O363 1.268 . S
C365 O370 1.254 . S
C365 O371 1.268 . S
O366 Dy359 2.351 . S
O366 C374 1.249 . S
O367 Dy356 2.326 . S
O367 C374 1.267 . S
O368 C357 1.185 . S
O368 Dy359 2.398 . S
O369 C357 1.355 . S
O369 Dy359 2.491 . S
O370 Dy359 2.403 . S
O370 C365 1.254 . S
O371 Dy356 2.310 . S
O371 Dy359 2.664 . S
O371 C365 1.268 . S
O372 Dy356 2.351 . S
O372 C375 1.249 . S
O373 Dy359 2.326 . S
O373 C375 1.267 . S
C374 O366 1.249 . S
C374 O367 1.267 . S
C375 O372 1.249 . S
C375 O373 1.267 . S
Dy376 O380 2.398 . S
Dy376 O381 2.491 1_545 S
Dy376 O382 2.403 . S
Dy376 O383 2.664 . S
Dy376 O387 2.326 1_545 S
Dy376 O391 2.310 . S
Dy376 O392 2.351 . S
C377 O388 1.185 . S
C377 O389 1.355 . S
C378 O380 1.185 1_565 S
C378 O381 1.355 . S
Dy379 O383 2.310 . S
Dy379 O386 2.351 1_545 S
Dy379 O388 2.398 . S
Dy379 O389 2.491 . S
Dy379 O390 2.403 . S
Dy379 O391 2.664 . S
Dy379 O393 2.326 . S
O380 Dy376 2.398 . S
O380 C378 1.185 1_545 S
O381 Dy376 2.491 1_565 S
O381 C378 1.355 . S
O382 Dy376 2.403 . S
O382 C384 1.254 . S
O383 Dy376 2.664 . S
O383 Dy379 2.310 . S
O383 C384 1.268 . S
C384 O382 1.254 . S
C384 O383 1.268 . S
C385 O390 1.254 . S
C385 O391 1.268 . S
O386 Dy379 2.351 1_565 S
O386 C394 1.249 . S
O387 Dy376 2.326 1_565 S
O387 C394 1.267 . S
O388 C377 1.185 . S
O388 Dy379 2.398 . S
O389 C377 1.355 . S
O389 Dy379 2.491 . S
O390 Dy379 2.403 . S
O390 C385 1.254 . S
O391 Dy376 2.310 . S
O391 Dy379 2.664 . S
O391 C385 1.268 . S
O392 Dy376 2.351 . S
O392 C395 1.249 . S
O393 Dy379 2.326 . S
O393 C395 1.267 . S
C394 O386 1.249 . S
C394 O387 1.267 . S
C395 O392 1.249 . S
C395 O393 1.267 . S
Dy396 O400 2.398 . S
Dy396 O401 2.491 . S
Dy396 O402 2.403 . S
Dy396 O403 2.664 . S
Dy396 O407 2.326 . S
Dy396 O411 2.310 . S
Dy396 O412 2.351 . S
C397 O408 1.185 . S
C397 O409 1.355 . S
C398 O400 1.185 . S
C398 O401 1.355 . S
Dy399 O403 2.310 . S
Dy399 O406 2.351 . S
Dy399 O408 2.398 . S
Dy399 O409 2.491 . S
Dy399 O410 2.403 . S
Dy399 O411 2.664 . S
Dy399 O413 2.326 . S
O400 Dy396 2.398 . S
O400 C398 1.185 . S
O401 Dy396 2.491 . S
O401 C398 1.355 . S
O402 Dy396 2.403 . S
O402 C404 1.254 . S
O403 Dy396 2.664 . S
O403 Dy399 2.310 . S
O403 C404 1.268 . S
C404 O402 1.254 . S
C404 O403 1.268 . S
C405 O410 1.254 . S
C405 O411 1.268 . S
O406 Dy399 2.351 . S
O406 C414 1.249 . S
O407 Dy396 2.326 . S
O407 C414 1.267 . S
O408 C397 1.185 . S
O408 Dy399 2.398 . S
O409 C397 1.355 . S
O409 Dy399 2.491 . S
O410 Dy399 2.403 . S
O410 C405 1.254 . S
O411 Dy396 2.310 . S
O411 Dy399 2.664 . S
O411 C405 1.268 . S
O412 Dy396 2.351 . S
O412 C415 1.249 . S
O413 Dy399 2.326 . S
O413 C415 1.267 . S
C414 O406 1.249 . S
C414 O407 1.267 . S
C415 O412 1.249 . S
C415 O413 1.267 . S
Dy416 O420 2.398 . S
Dy416 O421 2.491 1_455 S
Dy416 O422 2.403 . S
Dy416 O423 2.664 . S
Dy416 O427 2.326 . S
Dy416 O431 2.310 1_455 S
Dy416 O432 2.351 1_545 S
C417 O428 1.185 . S
C417 O429 1.355 . S
C418 O420 1.185 1_655 S
C418 O421 1.355 . S
Dy419 O423 2.310 . S
Dy419 O426 2.351 . S
Dy419 O428 2.398 . S
Dy419 O429 2.491 . S
Dy419 O430 2.403 1_455 S
Dy419 O431 2.664 1_455 S
Dy419 O433 2.326 1_545 S
O420 Dy416 2.398 . S
O420 C418 1.185 1_455 S
O421 Dy416 2.491 1_655 S
O421 C418 1.355 . S
O422 Dy416 2.403 . S
O422 C424 1.254 . S
O423 Dy416 2.664 . S
O423 Dy419 2.310 . S
O423 C424 1.268 . S
C424 O422 1.254 . S
C424 O423 1.268 . S
C425 O430 1.254 . S
C425 O431 1.268 . S
O426 Dy419 2.351 . S
O426 C434 1.249 . S
O427 Dy416 2.326 . S
O427 C434 1.267 . S
O428 C417 1.185 . S
O428 Dy419 2.398 . S
O429 C417 1.355 . S
O429 Dy419 2.491 . S
O430 Dy419 2.403 1_655 S
O430 C425 1.254 . S
O431 Dy416 2.310 1_655 S
O431 Dy419 2.664 1_655 S
O431 C425 1.268 . S
O432 Dy416 2.351 1_565 S
O432 C435 1.249 . S
O433 Dy419 2.326 1_565 S
O433 C435 1.267 . S
C434 O426 1.249 . S
C434 O427 1.267 . S
C435 O432 1.249 . S
C435 O433 1.267 . S
Dy436 O440 2.398 . S
Dy436 O441 2.491 . S
Dy436 O442 2.403 . S
Dy436 O443 2.664 . S
Dy436 O447 2.326 . S
Dy436 O451 2.310 . S
Dy436 O452 2.351 . S
C437 O448 1.185 . S
C437 O449 1.355 . S
C438 O440 1.185 . S
C438 O441 1.355 . S
Dy439 O443 2.310 . S
Dy439 O446 2.351 . S
Dy439 O448 2.398 . S
Dy439 O449 2.491 . S
Dy439 O450 2.403 . S
Dy439 O451 2.664 . S
Dy439 O453 2.326 . S
O440 Dy436 2.398 . S
O440 C438 1.185 . S
O441 Dy436 2.491 . S
O441 C438 1.355 . S
O442 Dy436 2.403 . S
O442 C444 1.254 . S
O443 Dy436 2.664 . S
O443 Dy439 2.310 . S
O443 C444 1.268 . S
C444 O442 1.254 . S
C444 O443 1.268 . S
C445 O450 1.254 . S
C445 O451 1.268 . S
O446 Dy439 2.351 . S
O446 C454 1.249 . S
O447 Dy436 2.326 . S
O447 C454 1.267 . S
O448 C437 1.185 . S
O448 Dy439 2.398 . S
O449 C437 1.355 . S
O449 Dy439 2.491 . S
O450 Dy439 2.403 . S
O450 C445 1.254 . S
O451 Dy436 2.310 . S
O451 Dy439 2.664 . S
O451 C445 1.268 . S
O452 Dy436 2.351 . S
O452 C455 1.249 . S
O453 Dy439 2.326 . S
O453 C455 1.267 . S
C454 O446 1.249 . S
C454 O447 1.267 . S
C455 O452 1.249 . S
C455 O453 1.267 . S
Dy456 O460 2.398 1_545 S
Dy456 O461 2.491 . S
Dy456 O462 2.403 1_545 S
Dy456 O463 2.664 1_544 S
Dy456 O467 2.326 1_545 S
Dy456 O471 2.310 . S
Dy456 O472 2.351 . S
C457 O468 1.185 . S
C457 O469 1.355 . S
C458 O460 1.185 1_545 S
C458 O461 1.355 . S
Dy459 O463 2.310 1_545 S
Dy459 O466 2.351 . S
Dy459 O468 2.398 . S
Dy459 O469 2.491 . S
Dy459 O470 2.403 . S
Dy459 O471 2.664 1_556 S
Dy459 O473 2.326 . S
O460 Dy456 2.398 1_565 S
O460 C458 1.185 1_565 S
O461 Dy456 2.491 . S
O461 C458 1.355 . S
O462 Dy456 2.403 1_565 S
O462 C464 1.254 1_554 S
O463 Dy456 2.664 1_566 S
O463 Dy459 2.310 1_565 S
O463 C464 1.268 . S
C464 O462 1.254 1_556 S
C464 O463 1.268 . S
C465 O470 1.254 1_554 S
C465 O471 1.268 . S
O466 Dy459 2.351 . S
O466 C474 1.249 1_556 S
O467 Dy456 2.326 1_565 S
O467 C474 1.267 1_565 S
O468 C457 1.185 . S
O468 Dy459 2.398 . S
O469 C457 1.355 . S
O469 Dy459 2.491 . S
O470 Dy459 2.403 . S
O470 C465 1.254 1_556 S
O471 Dy456 2.310 . S
O471 Dy459 2.664 1_554 S
O471 C465 1.268 . S
O472 Dy456 2.351 . S
O472 C475 1.249 . S
O473 Dy459 2.326 . S
O473 C475 1.267 1_556 S
C474 O466 1.249 1_554 S
C474 O467 1.267 1_545 S
C475 O472 1.249 . S
C475 O473 1.267 1_554 S
Dy476 O480 2.398 . S
Dy476 O481 2.491 . S
Dy476 O482 2.403 . S
Dy476 O483 2.664 . S
Dy476 O487 2.326 . S
Dy476 O491 2.310 . S
Dy476 O492 2.351 . S
C477 O488 1.185 . S
C477 O489 1.355 . S
C478 O480 1.185 . S
C478 O481 1.355 . S
Dy479 O483 2.310 . S
Dy479 O486 2.351 . S
Dy479 O488 2.398 . S
Dy479 O489 2.491 . S
Dy479 O490 2.403 . S
Dy479 O491 2.664 . S
Dy479 O493 2.326 . S
O480 Dy476 2.398 . S
O480 C478 1.185 . S
O481 Dy476 2.491 . S
O481 C478 1.355 . S
O482 Dy476 2.403 . S
O482 C484 1.254 . S
O483 Dy476 2.664 . S
O483 Dy479 2.310 . S
O483 C484 1.268 . S
C484 O482 1.254 . S
C484 O483 1.268 . S
C485 O490 1.254 . S
C485 O491 1.268 . S
O486 Dy479 2.351 . S
O486 C494 1.249 . S
O487 Dy476 2.326 . S
O487 C494 1.267 . S
O488 C477 1.185 . S
O488 Dy479 2.398 . S
O489 C477 1.355 . S
O489 Dy479 2.491 . S
O490 Dy479 2.403 . S
O490 C485 1.254 . S
O491 Dy476 2.310 . S
O491 Dy479 2.664 . S
O491 C485 1.268 . S
O492 Dy476 2.351 . S
O492 C495 1.249 . S
O493 Dy479 2.326 . S
O493 C495 1.267 . S
C494 O486 1.249 . S
C494 O487 1.267 . S
C495 O492 1.249 . S
C495 O493 1.267 . S
Dy496 O500 2.398 . S
Dy496 O501 2.491 . S
Dy496 O502 2.403 . S
Dy496 O503 2.664 1_556 S
Dy496 O507 2.326 . S
Dy496 O511 2.310 1_556 S
Dy496 O512 2.351 . S
C497 O508 1.185 . S
C497 O509 1.355 . S
C498 O500 1.185 . S
C498 O501 1.355 . S
Dy499 O503 2.310 . S
Dy499 O506 2.351 . S
Dy499 O508 2.398 . S
Dy499 O509 2.491 . S
Dy499 O510 2.403 . S
Dy499 O511 2.664 . S
Dy499 O513 2.326 . S
O500 Dy496 2.398 . S
O500 C498 1.185 . S
O501 Dy496 2.491 . S
O501 C498 1.355 . S
O502 Dy496 2.403 . S
O502 C504 1.254 . S
O503 Dy496 2.664 1_554 S
O503 Dy499 2.310 . S
O503 C504 1.268 1_554 S
C504 O502 1.254 . S
C504 O503 1.268 1_556 S
C505 O510 1.254 . S
C505 O511 1.268 . S
O506 Dy499 2.351 . S
O506 C514 1.249 1_554 S
O507 Dy496 2.326 . S
O507 C514 1.267 . S
O508 C497 1.185 . S
O508 Dy499 2.398 . S
O509 C497 1.355 . S
O509 Dy499 2.491 . S
O510 Dy499 2.403 . S
O510 C505 1.254 . S
O511 Dy496 2.310 1_554 S
O511 Dy499 2.664 . S
O511 C505 1.268 . S
O512 Dy496 2.351 . S
O512 C515 1.249 1_556 S
O513 Dy499 2.326 . S
O513 C515 1.267 . S
C514 O506 1.249 1_556 S
C514 O507 1.267 . S
C515 O512 1.249 1_554 S
C515 O513 1.267 . S
Dy516 O520 2.398 . S
Dy516 O521 2.491 . S
Dy516 O522 2.403 . S
Dy516 O523 2.664 . S
Dy516 O527 2.326 . S
Dy516 O531 2.310 . S
Dy516 O532 2.351 . S
C517 O528 1.185 . S
C517 O529 1.355 . S
C518 O520 1.185 . S
C518 O521 1.355 . S
Dy519 O523 2.310 . S
Dy519 O526 2.351 . S
Dy519 O528 2.398 . S
Dy519 O529 2.491 . S
Dy519 O530 2.403 . S
Dy519 O531 2.664 . S
Dy519 O533 2.326 . S
O520 Dy516 2.398 . S
O520 C518 1.185 . S
O521 Dy516 2.491 . S
O521 C518 1.355 . S
O522 Dy516 2.403 . S
O522 C524 1.254 . S
O523 Dy516 2.664 . S
O523 Dy519 2.310 . S
O523 C524 1.268 . S
C524 O522 1.254 . S
C524 O523 1.268 . S
C525 O530 1.254 . S
C525 O531 1.268 . S
O526 Dy519 2.351 . S
O526 C534 1.249 . S
O527 Dy516 2.326 . S
O527 C534 1.267 . S
O528 C517 1.185 . S
O528 Dy519 2.398 . S
O529 C517 1.355 . S
O529 Dy519 2.491 . S
O530 Dy519 2.403 . S
O530 C525 1.254 . S
O531 Dy516 2.310 . S
O531 Dy519 2.664 . S
O531 C525 1.268 . S
O532 Dy516 2.351 . S
O532 C535 1.249 . S
O533 Dy519 2.326 . S
O533 C535 1.267 . S
C534 O526 1.249 . S
C534 O527 1.267 . S
C535 O532 1.249 . S
C535 O533 1.267 . S
Dy536 O540 2.398 1_455 S
Dy536 O541 2.491 1_455 S
Dy536 O542 2.403 . S
Dy536 O543 2.664 . S
Dy536 O547 2.326 1_455 S
Dy536 O551 2.310 . S
Dy536 O552 2.351 . S
C537 O548 1.185 . S
C537 O549 1.355 . S
C538 O540 1.185 . S
C538 O541 1.355 . S
Dy539 O543 2.310 . S
Dy539 O546 2.351 1_455 S
Dy539 O548 2.398 . S
Dy539 O549 2.491 . S
Dy539 O550 2.403 . S
Dy539 O551 2.664 . S
Dy539 O553 2.326 . S
O540 Dy536 2.398 1_655 S
O540 C538 1.185 . S
O541 Dy536 2.491 1_655 S
O541 C538 1.355 . S
O542 Dy536 2.403 . S
O542 C544 1.254 . S
O543 Dy536 2.664 . S
O543 Dy539 2.310 . S
O543 C544 1.268 . S
C544 O542 1.254 . S
C544 O543 1.268 . S
C545 O550 1.254 . S
C545 O551 1.268 . S
O546 Dy539 2.351 1_655 S
O546 C554 1.249 . S
O547 Dy536 2.326 1_655 S
O547 C554 1.267 . S
O548 C537 1.185 . S
O548 Dy539 2.398 . S
O549 C537 1.355 . S
O549 Dy539 2.491 . S
O550 Dy539 2.403 . S
O550 C545 1.254 . S
O551 Dy536 2.310 . S
O551 Dy539 2.664 . S
O551 C545 1.268 . S
O552 Dy536 2.351 . S
O552 C555 1.249 . S
O553 Dy539 2.326 . S
O553 C555 1.267 . S
C554 O546 1.249 . S
C554 O547 1.267 . S
C555 O552 1.249 . S
C555 O553 1.267 . S
Dy556 O560 2.398 . S
Dy556 O561 2.491 . S
Dy556 O562 2.403 . S
Dy556 O563 2.664 . S
Dy556 O567 2.326 . S
Dy556 O571 2.310 . S
Dy556 O572 2.351 . S
C557 O568 1.185 . S
C557 O569 1.355 . S
C558 O560 1.185 . S
C558 O561 1.355 . S
Dy559 O563 2.310 . S
Dy559 O566 2.351 . S
Dy559 O568 2.398 . S
Dy559 O569 2.491 . S
Dy559 O570 2.403 . S
Dy559 O571 2.664 . S
Dy559 O573 2.326 . S
O560 Dy556 2.398 . S
O560 C558 1.185 . S
O561 Dy556 2.491 . S
O561 C558 1.355 . S
O562 Dy556 2.403 . S
O562 C564 1.254 . S
O563 Dy556 2.664 . S
O563 Dy559 2.310 . S
O563 C564 1.268 . S
C564 O562 1.254 . S
C564 O563 1.268 . S
C565 O570 1.254 . S
C565 O571 1.268 . S
O566 Dy559 2.351 . S
O566 C574 1.249 . S
O567 Dy556 2.326 . S
O567 C574 1.267 . S
O568 C557 1.185 . S
O568 Dy559 2.398 . S
O569 C557 1.355 . S
O569 Dy559 2.491 . S
O570 Dy559 2.403 . S
O570 C565 1.254 . S
O571 Dy556 2.310 . S
O571 Dy559 2.664 . S
O571 C565 1.268 . S
O572 Dy556 2.351 . S
O572 C575 1.249 . S
O573 Dy559 2.326 . S
O573 C575 1.267 . S
C574 O566 1.249 . S
C574 O567 1.267 . S
C575 O572 1.249 . S
C575 O573 1.267 . S
Dy576 O580 2.398 . S
Dy576 O581 2.491 . S
Dy576 O582 2.403 . S
Dy576 O583 2.664 . S
Dy576 O587 2.326 . S
Dy576 O591 2.310 . S
Dy576 O592 2.351 . S
C577 O588 1.185 . S
C577 O589 1.355 . S
C578 O580 1.185 . S
C578 O581 1.355 . S
Dy579 O583 2.310 . S
Dy579 O586 2.351 . S
Dy579 O588 2.398 . S
Dy579 O589 2.491 . S
Dy579 O590 2.403 . S
Dy579 O591 2.664 . S
Dy579 O593 2.326 . S
O580 Dy576 2.398 . S
O580 C578 1.185 . S
O581 Dy576 2.491 . S
O581 C578 1.355 . S
O582 Dy576 2.403 . S
O582 C584 1.254 . S
O583 Dy576 2.664 . S
O583 Dy579 2.310 . S
O583 C584 1.268 . S
C584 O582 1.254 . S
C584 O583 1.268 . S
C585 O590 1.254 . S
C585 O591 1.268 . S
O586 Dy579 2.351 . S
O586 C594 1.249 . S
O587 Dy576 2.326 . S
O587 C594 1.267 . S
O588 C577 1.185 . S
O588 Dy579 2.398 . S
O589 C577 1.355 . S
O589 Dy579 2.491 . S
O590 Dy579 2.403 . S
O590 C585 1.254 . S
O591 Dy576 2.310 . S
O591 Dy579 2.664 . S
O591 C585 1.268 . S
O592 Dy576 2.351 . S
O592 C595 1.249 . S
O593 Dy579 2.326 . S
O593 C595 1.267 . S
C594 O586 1.249 . S
C594 O587 1.267 . S
C595 O592 1.249 . S
C595 O593 1.267 . S
Dy596 O600 2.398 . S
Dy596 O601 2.491 . S
Dy596 O602 2.403 . S
Dy596 O603 2.664 . S
Dy596 O607 2.326 . S
Dy596 O611 2.310 . S
Dy596 O612 2.351 . S
C597 O608 1.185 . S
C597 O609 1.355 . S
C598 O600 1.185 . S
C598 O601 1.355 . S
Dy599 O603 2.310 . S
Dy599 O606 2.351 . S
Dy599 O608 2.398 . S
Dy599 O609 2.491 . S
Dy599 O610 2.403 . S
Dy599 O611 2.664 . S
Dy599 O613 2.326 . S
O600 Dy596 2.398 . S
O600 C598 1.185 . S
O601 Dy596 2.491 . S
O601 C598 1.355 . S
O602 Dy596 2.403 . S
O602 C604 1.254 . S
O603 Dy596 2.664 . S
O603 Dy599 2.310 . S
O603 C604 1.268 . S
C604 O602 1.254 . S
C604 O603 1.268 . S
C605 O610 1.254 . S
C605 O611 1.268 . S
O606 Dy599 2.351 . S
O606 C614 1.249 . S
O607 Dy596 2.326 . S
O607 C614 1.267 . S
O608 C597 1.185 . S
O608 Dy599 2.398 . S
O609 C597 1.355 . S
O609 Dy599 2.491 . S
O610 Dy599 2.403 . S
O610 C605 1.254 . S
O611 Dy596 2.310 . S
O611 Dy599 2.664 . S
O611 C605 1.268 . S
O612 Dy596 2.351 . S
O612 C615 1.249 . S
O613 Dy599 2.326 . S
O613 C615 1.267 . S
C614 O606 1.249 . S
C614 O607 1.267 . S
C615 O612 1.249 . S
C615 O613 1.267 . S
Dy616 O620 2.398 . S
Dy616 O621 2.491 . S
Dy616 O622 2.403 . S
Dy616 O623 2.664 . S
Dy616 O627 2.326 . S
Dy616 O631 2.310 . S
Dy616 O632 2.351 . S
C617 O628 1.185 . S
C617 O629 1.355 . S
C618 O620 1.185 . S
C618 O621 1.355 . S
Dy619 O623 2.310 . S
Dy619 O626 2.351 . S
Dy619 O628 2.398 . S
Dy619 O629 2.491 . S
Dy619 O630 2.403 . S
Dy619 O631 2.664 . S
Dy619 O633 2.326 . S
O620 Dy616 2.398 . S
O620 C618 1.185 . S
O621 Dy616 2.491 . S
O621 C618 1.355 . S
O622 Dy616 2.403 . S
O622 C624 1.254 . S
O623 Dy616 2.664 . S
O623 Dy619 2.310 . S
O623 C624 1.268 . S
C624 O622 1.254 . S
C624 O623 1.268 . S
C625 O630 1.254 . S
C625 O631 1.268 . S
O626 Dy619 2.351 . S
O626 C634 1.249 . S
O627 Dy616 2.326 . S
O627 C634 1.267 . S
O628 C617 1.185 . S
O628 Dy619 2.398 . S
O629 C617 1.355 . S
O629 Dy619 2.491 . S
O630 Dy619 2.403 . S
O630 C625 1.254 . S
O631 Dy616 2.310 . S
O631 Dy619 2.664 . S
O631 C625 1.268 . S
O632 Dy616 2.351 . S
O632 C635 1.249 . S
O633 Dy619 2.326 . S
O633 C635 1.267 . S
C634 O626 1.249 . S
C634 O627 1.267 . S
C635 O632 1.249 . S
C635 O633 1.267 . S
Dy636 O640 2.398 . S
Dy636 O641 2.491 1_556 S
Dy636 O642 2.403 . S
Dy636 O643 2.680 . S
Dy636 O647 2.326 . S
Dy636 O651 2.310 1_556 S
Dy636 O652 2.351 1_556 S
C637 O648 1.185 . S
C637 O649 1.355 . S
C638 O640 1.185 . S
C638 O641 1.355 1_556 S
Dy639 O643 2.301 1_654 S
Dy639 O646 2.351 . S
Dy639 O648 2.398 . S
Dy639 O649 2.491 . S
Dy639 O650 2.403 . S
Dy639 O651 2.664 1_655 S
Dy639 O653 2.326 . S
O640 Dy636 2.398 . S
O640 C638 1.185 . S
O641 Dy636 2.491 1_554 S
O641 C638 1.355 1_554 S
O642 Dy636 2.403 . S
O642 C644 1.254 . S
O643 Dy636 2.680 . S
O643 Dy639 2.301 1_456 S
O643 C644 1.273 . S
C644 O642 1.254 . S
C644 O643 1.273 . S
C645 O650 1.254 1_455 S
C645 O651 1.268 . S
O646 Dy639 2.351 . S
O646 C654 1.249 1_654 S
O647 Dy636 2.326 . S
O647 C654 1.267 . S
O648 C637 1.185 . S
O648 Dy639 2.398 . S
O649 C637 1.355 . S
O649 Dy639 2.491 . S
O650 Dy639 2.403 . S
O650 C645 1.254 1_655 S
O651 Dy636 2.310 1_554 S
O651 Dy639 2.664 1_455 S
O651 C645 1.268 . S
O652 Dy636 2.351 1_554 S
O652 C655 1.249 . S
O653 Dy639 2.326 . S
O653 C655 1.268 1_655 S
C654 O646 1.249 1_456 S
C654 O647 1.267 . S
C655 O652 1.249 . S
C655 O653 1.268 1_455 S
H656 C662 0.932 1_655 S
H657 C665 0.930 . S
H658 C666 0.930 1_554 S
H659 C667 0.930 1_554 S
H660 C670 0.930 . S
H661 C671 0.930 . S
C662 H656 0.932 1_455 S
C662 C663 1.343 1_455 S
C662 C664 1.425 . S
C663 C662 1.343 1_655 S
C663 C665 1.419 . S
C664 C662 1.425 . S
C664 C669 1.425 . S
C664 C671 1.409 . S
C665 H657 0.930 . S
C665 C663 1.419 . S
C665 C666 1.362 1_655 S
C666 H658 0.930 1_556 S
C666 C665 1.362 1_455 S
C666 C669 1.409 . S
C667 H659 0.930 1_556 S
C667 C668 1.355 . S
C667 C669 1.415 . S
C668 C667 1.355 . S
C668 C670 1.419 . S
C669 C664 1.425 . S
C669 C666 1.409 . S
C669 C667 1.415 . S
C670 H660 0.930 . S
C670 C668 1.419 . S
C670 C671 1.362 . S
C671 H661 0.930 . S
C671 C664 1.409 . S
C671 C670 1.362 . S
H672 C678 0.930 . S
H673 C681 0.930 . S
H674 C682 0.930 . S
H675 C683 0.930 . S
H676 C686 0.930 . S
H677 C687 0.930 . S
C678 H672 0.930 . S
C678 C679 1.355 . S
C678 C680 1.415 . S
C679 C678 1.355 . S
C679 C681 1.419 . S
C680 C678 1.415 . S
C680 C685 1.425 . S
C680 C687 1.409 . S
C681 H673 0.930 . S
C681 C679 1.419 . S
C681 C682 1.362 . S
C682 H674 0.930 . S
C682 C681 1.362 . S
C682 C685 1.409 . S
C683 H675 0.930 . S
C683 C684 1.355 . S
C683 C685 1.415 . S
C684 C683 1.355 . S
C684 C686 1.419 . S
C685 C680 1.425 . S
C685 C682 1.409 . S
C685 C683 1.415 . S
C686 H676 0.930 . S
C686 C684 1.419 . S
C686 C687 1.362 . S
C687 H677 0.930 . S
C687 C680 1.409 . S
C687 C686 1.362 . S
H688 C694 0.930 . S
H689 C697 0.930 . S
H690 C698 0.930 . S
H691 C699 0.930 . S
H692 C702 0.930 . S
H693 C703 0.930 . S
C694 H688 0.930 . S
C694 C695 1.355 . S
C694 C696 1.415 . S
C695 C694 1.355 . S
C695 C697 1.419 . S
C696 C694 1.415 . S
C696 C701 1.425 . S
C696 C703 1.409 . S
C697 H689 0.930 . S
C697 C695 1.419 . S
C697 C698 1.362 . S
C698 H690 0.930 . S
C698 C697 1.362 . S
C698 C701 1.409 . S
C699 H691 0.930 . S
C699 C700 1.355 . S
C699 C701 1.415 . S
C700 C699 1.355 . S
C700 C702 1.419 . S
C701 C696 1.425 . S
C701 C698 1.409 . S
C701 C699 1.415 . S
C702 H692 0.930 . S
C702 C700 1.419 . S
C702 C703 1.362 . S
C703 H693 0.930 . S
C703 C696 1.409 . S
C703 C702 1.362 . S
H704 C710 0.930 . S
H705 C713 0.930 . S
H706 C714 0.930 . S
H707 C715 0.930 . S
H708 C718 0.930 . S
H709 C719 0.930 . S
C710 H704 0.930 . S
C710 C711 1.355 . S
C710 C712 1.415 . S
C711 C710 1.355 . S
C711 C713 1.419 . S
C712 C710 1.415 . S
C712 C717 1.425 . S
C712 C719 1.409 . S
C713 H705 0.930 . S
C713 C711 1.419 . S
C713 C714 1.362 . S
C714 H706 0.930 . S
C714 C713 1.362 . S
C714 C717 1.409 . S
C715 H707 0.930 . S
C715 C716 1.355 . S
C715 C717 1.415 . S
C716 C715 1.355 . S
C716 C718 1.419 . S
C717 C712 1.425 . S
C717 C714 1.409 . S
C717 C715 1.415 . S
C718 H708 0.930 . S
C718 C716 1.419 . S
C718 C719 1.362 . S
C719 H709 0.930 . S
C719 C712 1.409 . S
C719 C718 1.362 . S
H720 C726 0.930 1_655 S
H721 C729 0.930 . S
H722 C730 0.930 . S
H723 C731 0.930 . S
H724 C734 0.930 1_655 S
H725 C735 0.930 . S
C726 H720 0.930 1_455 S
C726 C727 1.355 . S
C726 C728 1.415 . S
C727 C726 1.355 . S
C727 C729 1.419 . S
C728 C726 1.415 . S
C728 C733 1.425 . S
C728 C735 1.409 1_455 S
C729 H721 0.930 . S
C729 C727 1.419 . S
C729 C730 1.362 . S
C730 H722 0.930 . S
C730 C729 1.362 . S
C730 C733 1.409 . S
C731 H723 0.930 . S
C731 C732 1.355 . S
C731 C733 1.415 . S
C732 C731 1.355 . S
C732 C734 1.419 . S
C733 C728 1.425 . S
C733 C730 1.409 . S
C733 C731 1.415 . S
C734 H724 0.930 1_455 S
C734 C732 1.419 . S
C734 C735 1.362 1_455 S
C735 H725 0.930 . S
C735 C728 1.409 1_655 S
C735 C734 1.362 1_655 S
H736 C742 0.930 . S
H737 C745 0.930 . S
H738 C746 0.930 . S
H739 C747 0.930 . S
H740 C750 0.930 . S
H741 C751 0.930 . S
C742 H736 0.930 . S
C742 C743 1.355 . S
C742 C744 1.415 . S
C743 C742 1.355 . S
C743 C745 1.419 . S
C744 C742 1.415 . S
C744 C749 1.425 . S
C744 C751 1.409 . S
C745 H737 0.930 . S
C745 C743 1.419 . S
C745 C746 1.362 . S
C746 H738 0.930 . S
C746 C745 1.362 . S
C746 C749 1.409 . S
C747 H739 0.930 . S
C747 C748 1.355 . S
C747 C749 1.415 . S
C748 C747 1.355 . S
C748 C750 1.419 . S
C749 C744 1.425 . S
C749 C746 1.409 . S
C749 C747 1.415 . S
C750 H740 0.930 . S
C750 C748 1.419 . S
C750 C751 1.362 . S
C751 H741 0.930 . S
C751 C744 1.409 . S
C751 C750 1.362 . S
H752 C758 0.930 . S
H753 C761 0.930 . S
H754 C762 0.930 . S
H755 C763 0.930 . S
H756 C766 0.930 . S
H757 C767 0.930 . S
C758 H752 0.930 . S
C758 C759 1.355 . S
C758 C760 1.415 . S
C759 C758 1.355 . S
C759 C761 1.419 . S
C760 C758 1.415 . S
C760 C765 1.425 . S
C760 C767 1.409 . S
C761 H753 0.930 . S
C761 C759 1.419 . S
C761 C762 1.362 . S
C762 H754 0.930 . S
C762 C761 1.362 . S
C762 C765 1.409 . S
C763 H755 0.930 . S
C763 C764 1.355 . S
C763 C765 1.415 . S
C764 C763 1.355 . S
C764 C766 1.419 . S
C765 C760 1.425 . S
C765 C762 1.409 . S
C765 C763 1.415 . S
C766 H756 0.930 . S
C766 C764 1.419 . S
C766 C767 1.362 . S
C767 H757 0.930 . S
C767 C760 1.409 . S
C767 C766 1.362 . S
H768 C774 0.930 . S
H769 C777 0.930 . S
H770 C778 0.930 . S
H771 C779 0.930 . S
H772 C782 0.930 . S
H773 C783 0.930 . S
C774 H768 0.930 . S
C774 C775 1.355 . S
C774 C776 1.415 . S
C775 C774 1.355 . S
C775 C777 1.419 . S
C776 C774 1.415 . S
C776 C781 1.425 . S
C776 C783 1.409 . S
C777 H769 0.930 . S
C777 C775 1.419 . S
C777 C778 1.362 . S
C778 H770 0.930 . S
C778 C777 1.362 . S
C778 C781 1.409 . S
C779 H771 0.930 . S
C779 C780 1.355 . S
C779 C781 1.415 . S
C780 C779 1.355 . S
C780 C782 1.419 . S
C781 C776 1.425 . S
C781 C778 1.409 . S
C781 C779 1.415 . S
C782 H772 0.930 . S
C782 C780 1.419 . S
C782 C783 1.362 . S
C783 H773 0.930 . S
C783 C776 1.409 . S
C783 C782 1.362 . S
H784 C790 0.930 . S
H785 C793 0.930 . S
H786 C794 0.930 . S
H787 C795 0.930 . S
H788 C798 0.930 . S
H789 C799 0.930 . S
C790 H784 0.930 . S
C790 C791 1.355 . S
C790 C792 1.415 . S
C791 C790 1.355 . S
C791 C793 1.419 . S
C792 C790 1.415 . S
C792 C797 1.425 . S
C792 C799 1.409 . S
C793 H785 0.930 . S
C793 C791 1.419 . S
C793 C794 1.362 . S
C794 H786 0.930 . S
C794 C793 1.362 . S
C794 C797 1.409 . S
C795 H787 0.930 . S
C795 C796 1.355 . S
C795 C797 1.415 . S
C796 C795 1.355 . S
C796 C798 1.419 1_655 S
C797 C792 1.425 . S
C797 C794 1.409 . S
C797 C795 1.415 . S
C798 H788 0.930 . S
C798 C796 1.419 1_455 S
C798 C799 1.362 1_455 S
C799 H789 0.930 . S
C799 C792 1.409 . S
C799 C798 1.362 1_655 S
H800 C806 0.930 . S
H801 C809 0.930 . S
H802 C810 0.930 . S
H803 C811 0.930 . S
H804 C814 0.930 . S
H805 C815 0.930 . S
C806 H800 0.930 . S
C806 C807 1.355 . S
C806 C808 1.415 . S
C807 C806 1.355 . S
C807 C809 1.419 . S
C808 C806 1.415 . S
C808 C813 1.425 . S
C808 C815 1.409 . S
C809 H801 0.930 . S
C809 C807 1.419 . S
C809 C810 1.362 . S
C810 H802 0.930 . S
C810 C809 1.362 . S
C810 C813 1.409 . S
C811 H803 0.930 . S
C811 C812 1.355 . S
C811 C813 1.415 . S
C812 C811 1.355 . S
C812 C814 1.419 . S
C813 C808 1.425 . S
C813 C810 1.409 . S
C813 C811 1.415 . S
C814 H804 0.930 . S
C814 C812 1.419 . S
C814 C815 1.362 . S
C815 H805 0.930 . S
C815 C808 1.409 . S
C815 C814 1.362 . S
H816 C822 0.930 . S
H817 C825 0.930 . S
H818 C826 0.930 . S
H819 C827 0.930 . S
H820 C830 0.930 . S
H821 C831 0.930 . S
C822 H816 0.930 . S
C822 C823 1.355 . S
C822 C824 1.415 . S
C823 C822 1.355 . S
C823 C825 1.419 1_545 S
C824 C822 1.415 . S
C824 C829 1.425 . S
C824 C831 1.409 . S
C825 H817 0.930 . S
C825 C823 1.419 1_565 S
C825 C826 1.362 . S
C826 H818 0.930 . S
C826 C825 1.362 . S
C826 C829 1.409 1_565 S
C827 H819 0.930 . S
C827 C828 1.355 1_565 S
C827 C829 1.415 1_565 S
C828 C827 1.355 1_545 S
C828 C830 1.419 . S
C829 C824 1.425 . S
C829 C826 1.409 1_545 S
C829 C827 1.415 1_545 S
C830 H820 0.930 . S
C830 C828 1.419 . S
C830 C831 1.362 . S
C831 H821 0.930 . S
C831 C824 1.409 . S
C831 C830 1.362 . S
H832 C838 0.930 . S
H833 C841 0.930 . S
H834 C842 0.930 . S
H835 C843 0.930 . S
H836 C846 0.930 . S
H837 C847 0.930 . S
C838 H832 0.930 . S
C838 C839 1.355 . S
C838 C840 1.415 . S
C839 C838 1.355 . S
C839 C841 1.419 . S
C840 C838 1.415 . S
C840 C845 1.425 . S
C840 C847 1.409 . S
C841 H833 0.930 . S
C841 C839 1.419 . S
C841 C842 1.362 . S
C842 H834 0.930 . S
C842 C841 1.362 . S
C842 C845 1.409 . S
C843 H835 0.930 . S
C843 C844 1.355 . S
C843 C845 1.415 . S
C844 C843 1.355 . S
C844 C846 1.419 . S
C845 C840 1.425 . S
C845 C842 1.409 . S
C845 C843 1.415 . S
C846 H836 0.930 . S
C846 C844 1.419 . S
C846 C847 1.362 . S
C847 H837 0.930 . S
C847 C840 1.409 . S
C847 C846 1.362 . S
H848 C854 0.930 . S
H849 C857 0.930 . S
H850 C858 0.930 . S
H851 C859 0.930 1_455 S
H852 C862 0.930 . S
H853 C863 0.930 . S
C854 H848 0.930 . S
C854 C855 1.355 . S
C854 C856 1.415 . S
C855 C854 1.355 . S
C855 C857 1.419 . S
C856 C854 1.415 . S
C856 C861 1.425 . S
C856 C863 1.409 . S
C857 H849 0.930 . S
C857 C855 1.419 . S
C857 C858 1.362 . S
C858 H850 0.930 . S
C858 C857 1.362 . S
C858 C861 1.409 . S
C859 H851 0.930 1_655 S
C859 C860 1.355 . S
C859 C861 1.415 . S
C860 C859 1.355 . S
C860 C862 1.419 . S
C861 C856 1.425 . S
C861 C858 1.409 . S
C861 C859 1.415 . S
C862 H852 0.930 . S
C862 C860 1.419 . S
C862 C863 1.362 . S
C863 H853 0.930 . S
C863 C856 1.409 . S
C863 C862 1.362 . S
H864 C870 0.930 . S
H865 C873 0.930 . S
H866 C874 0.930 . S
H867 C875 0.930 . S
H868 C878 0.930 . S
H869 C879 0.930 . S
C870 H864 0.930 . S
C870 C871 1.355 . S
C870 C872 1.415 . S
C871 C870 1.355 . S
C871 C873 1.419 . S
C872 C870 1.415 . S
C872 C877 1.425 . S
C872 C879 1.409 . S
C873 H865 0.930 . S
C873 C871 1.419 . S
C873 C874 1.362 . S
C874 H866 0.930 . S
C874 C873 1.362 . S
C874 C877 1.409 . S
C875 H867 0.930 . S
C875 C876 1.355 . S
C875 C877 1.415 . S
C876 C875 1.355 . S
C876 C878 1.419 . S
C877 C872 1.425 . S
C877 C874 1.409 . S
C877 C875 1.415 . S
C878 H868 0.930 . S
C878 C876 1.419 . S
C878 C879 1.362 . S
C879 H869 0.930 . S
C879 C872 1.409 . S
C879 C878 1.362 . S
H880 C886 0.930 . S
H881 C889 0.930 . S
H882 C890 0.930 . S
H883 C891 0.930 . S
H884 C894 0.930 . S
H885 C895 0.909 1_565 S
C886 H880 0.930 . S
C886 C887 1.355 . S
C886 C888 1.415 . S
C887 C886 1.355 . S
C887 C889 1.419 . S
C888 C886 1.415 . S
C888 C893 1.425 . S
C888 C895 1.409 . S
C889 H881 0.930 . S
C889 C887 1.419 . S
C889 C890 1.362 . S
C890 H882 0.930 . S
C890 C889 1.362 . S
C890 C893 1.409 . S
C891 H883 0.930 . S
C891 C892 1.355 . S
C891 C893 1.415 . S
C892 C891 1.355 . S
C892 C894 1.419 . S
C893 C888 1.425 . S
C893 C890 1.409 . S
C893 C891 1.415 . S
C894 H884 0.930 . S
C894 C892 1.419 . S
C894 C895 1.362 . S
C895 H885 0.909 1_545 S
C895 C888 1.409 . S
C895 C894 1.362 . S
H896 C902 0.930 . S
H897 C905 0.930 . S
H898 C906 0.930 . S
H899 C907 0.930 . S
H900 C910 0.930 . S
H901 C911 0.930 . S
C902 H896 0.930 . S
C902 C903 1.355 . S
C902 C904 1.415 . S
C903 C902 1.355 . S
C903 C905 1.419 . S
C904 C902 1.415 . S
C904 C909 1.425 . S
C904 C911 1.409 . S
C905 H897 0.930 . S
C905 C903 1.419 . S
C905 C906 1.362 . S
C906 H898 0.930 . S
C906 C905 1.362 . S
C906 C909 1.409 . S
C907 H899 0.930 . S
C907 C908 1.355 . S
C907 C909 1.415 . S
C908 C907 1.355 . S
C908 C910 1.419 . S
C909 C904 1.425 . S
C909 C906 1.409 . S
C909 C907 1.415 . S
C910 H900 0.930 . S
C910 C908 1.419 . S
C910 C911 1.362 . S
C911 H901 0.930 . S
C911 C904 1.409 . S
C911 C910 1.362 . S
H912 C918 0.930 . S
H913 C921 0.930 . S
H914 C922 0.930 . S
H915 C923 0.930 1_556 S
H916 C926 0.930 . S
H917 C927 0.930 . S
C918 H912 0.930 . S
C918 C919 1.355 . S
C918 C920 1.415 . S
C919 C918 1.355 . S
C919 C921 1.419 1_554 S
C920 C918 1.415 . S
C920 C925 1.425 . S
C920 C927 1.409 . S
C921 H913 0.930 . S
C921 C919 1.419 1_556 S
C921 C922 1.362 . S
C922 H914 0.930 . S
C922 C921 1.362 . S
C922 C925 1.409 1_556 S
C923 H915 0.930 1_554 S
C923 C924 1.355 . S
C923 C925 1.415 . S
C924 C923 1.355 . S
C924 C926 1.419 . S
C925 C920 1.425 . S
C925 C922 1.409 1_554 S
C925 C923 1.415 . S
C926 H916 0.930 . S
C926 C924 1.419 . S
C926 C927 1.362 . S
C927 H917 0.930 . S
C927 C920 1.409 . S
C927 C926 1.362 . S
H928 C934 0.930 . S
H929 C937 0.930 . S
H930 C938 0.930 . S
H931 C939 0.930 . S
H932 C942 0.930 . S
H933 C943 0.930 . S
C934 H928 0.930 . S
C934 C935 1.355 . S
C934 C936 1.415 . S
C935 C934 1.355 . S
C935 C937 1.416 1_556 S
C936 C934 1.415 . S
C936 C941 1.425 1_556 S
C936 C943 1.409 . S
C937 H929 0.930 . S
C937 C935 1.416 1_554 S
C937 C938 1.362 . S
C938 H930 0.930 . S
C938 C937 1.362 . S
C938 C941 1.409 . S
C939 H931 0.930 . S
C939 C940 1.355 . S
C939 C941 1.415 . S
C940 C939 1.355 . S
C940 C942 1.418 1_554 S
C941 C936 1.425 1_554 S
C941 C938 1.409 . S
C941 C939 1.415 . S
C942 H932 0.930 . S
C942 C940 1.418 1_556 S
C942 C943 1.362 . S
C943 H933 0.930 . S
C943 C936 1.409 . S
C943 C942 1.362 . S
H944 C950 0.930 . S
H945 C953 0.930 . S
H946 C954 0.930 . S
H947 C955 0.930 . S
H948 C958 0.930 . S
H949 C959 0.930 . S
C950 H944 0.930 . S
C950 C951 1.355 . S
C950 C952 1.415 . S
C951 C950 1.355 . S
C951 C953 1.419 . S
C952 C950 1.415 . S
C952 C957 1.425 . S
C952 C959 1.409 . S
C953 H945 0.930 . S
C953 C951 1.419 . S
C953 C954 1.362 . S
C954 H946 0.930 . S
C954 C953 1.362 . S
C954 C957 1.409 . S
C955 H947 0.930 . S
C955 C956 1.355 . S
C955 C957 1.415 . S
C956 C955 1.355 . S
C956 C958 1.419 . S
C957 C952 1.425 . S
C957 C954 1.409 . S
C957 C955 1.415 . S
C958 H948 0.930 . S
C958 C956 1.419 . S
C958 C959 1.362 . S
C959 H949 0.930 . S
C959 C952 1.409 . S
C959 C958 1.362 . S
H960 C966 0.930 . S
H961 C969 0.930 . S
H962 C970 0.930 . S
H963 C971 0.930 . S
H964 C974 0.930 . S
H965 C975 0.930 . S
C966 H960 0.930 . S
C966 C967 1.355 . S
C966 C968 1.415 . S
C967 C966 1.355 . S
C967 C969 1.419 . S
C968 C966 1.415 . S
C968 C973 1.425 . S
C968 C975 1.409 . S
C969 H961 0.930 . S
C969 C967 1.419 . S
C969 C970 1.362 . S
C970 H962 0.930 . S
C970 C969 1.362 . S
C970 C973 1.409 . S
C971 H963 0.930 . S
C971 C972 1.355 . S
C971 C973 1.415 . S
C972 C971 1.355 . S
C972 C974 1.419 . S
C973 C968 1.425 . S
C973 C970 1.409 . S
C973 C971 1.415 . S
C974 H964 0.930 . S
C974 C972 1.419 . S
C974 C975 1.362 . S
C975 H965 0.930 . S
C975 C968 1.409 . S
C975 C974 1.362 . S
H976 C982 0.930 . S
H977 C985 0.930 . S
H978 C986 0.930 . S
H979 C987 0.930 . S
H980 C990 0.930 . S
H981 C991 0.930 . S
C982 H976 0.930 . S
C982 C983 1.355 . S
C982 C984 1.415 . S
C983 C982 1.355 . S
C983 C985 1.419 . S
C984 C982 1.415 . S
C984 C989 1.425 . S
C984 C991 1.409 . S
C985 H977 0.930 . S
C985 C983 1.419 . S
C985 C986 1.362 . S
C986 H978 0.930 . S
C986 C985 1.362 . S
C986 C989 1.409 . S
C987 H979 0.930 . S
C987 C988 1.355 . S
C987 C989 1.415 . S
C988 C987 1.355 . S
C988 C990 1.419 . S
C989 C984 1.425 . S
C989 C986 1.409 . S
C989 C987 1.415 . S
C990 H980 0.930 . S
C990 C988 1.419 . S
C990 C991 1.362 . S
C991 H981 0.930 . S
C991 C984 1.409 . S
C991 C990 1.362 . S
H992 C998 0.930 . S
H993 C1001 0.930 . S
H994 C1002 0.930 . S
H995 C1003 0.930 . S
H996 C1006 0.930 . S
H997 C1007 0.930 . S
C998 H992 0.930 . S
C998 C999 1.355 . S
C998 C1000 1.415 . S
C999 C998 1.355 . S
C999 C1001 1.419 . S
C1000 C998 1.415 . S
C1000 C1005 1.425 . S
C1000 C1007 1.409 . S
C1001 H993 0.930 . S
C1001 C999 1.419 . S
C1001 C1002 1.362 . S
C1002 H994 0.930 . S
C1002 C1001 1.362 . S
C1002 C1005 1.409 . S
C1003 H995 0.930 . S
C1003 C1004 1.355 . S
C1003 C1005 1.415 . S
C1004 C1003 1.355 . S
C1004 C1006 1.419 . S
C1005 C1000 1.425 . S
C1005 C1002 1.409 . S
C1005 C1003 1.415 . S
C1006 H996 0.930 . S
C1006 C1004 1.419 . S
C1006 C1007 1.362 . S
C1007 H997 0.930 . S
C1007 C1000 1.409 . S
C1007 C1006 1.362 . S
H1008 C1014 0.930 . S
H1009 C1017 0.930 . S
H1010 C1018 0.930 . S
H1011 C1019 0.930 . S
H1012 C1022 0.930 . S
H1013 C1023 0.930 . S
C1014 H1008 0.930 . S
C1014 C1015 1.355 . S
C1014 C1016 1.415 . S
C1015 C1014 1.355 . S
C1015 C1017 1.419 . S
C1016 C1014 1.415 . S
C1016 C1021 1.425 . S
C1016 C1023 1.409 . S
C1017 H1009 0.930 . S
C1017 C1015 1.419 . S
C1017 C1018 1.362 . S
C1018 H1010 0.930 . S
C1018 C1017 1.362 . S
C1018 C1021 1.409 . S
C1019 H1011 0.930 . S
C1019 C1020 1.355 . S
C1019 C1021 1.415 . S
C1020 C1019 1.355 . S
C1020 C1022 1.419 . S
C1021 C1016 1.425 . S
C1021 C1018 1.409 . S
C1021 C1019 1.415 . S
C1022 H1012 0.930 . S
C1022 C1020 1.419 . S
C1022 C1023 1.362 . S
C1023 H1013 0.930 . S
C1023 C1016 1.409 . S
C1023 C1022 1.362 . S
H1024 C1030 0.930 . S
H1025 C1033 0.930 . S
H1026 C1034 0.930 . S
H1027 C1035 0.930 . S
H1028 C1038 0.930 . S
H1029 C1039 0.930 . S
C1030 H1024 0.930 . S
C1030 C1031 1.355 . S
C1030 C1032 1.415 . S
C1031 C1030 1.355 . S
C1031 C1033 1.419 . S
C1032 C1030 1.415 . S
C1032 C1037 1.425 . S
C1032 C1039 1.409 . S
C1033 H1025 0.930 . S
C1033 C1031 1.419 . S
C1033 C1034 1.362 . S
C1034 H1026 0.930 . S
C1034 C1033 1.362 . S
C1034 C1037 1.409 . S
C1035 H1027 0.930 . S
C1035 C1036 1.355 . S
C1035 C1037 1.415 . S
C1036 C1035 1.355 . S
C1036 C1038 1.419 . S
C1037 C1032 1.425 . S
C1037 C1034 1.409 . S
C1037 C1035 1.415 . S
C1038 H1028 0.930 . S
C1038 C1036 1.419 . S
C1038 C1039 1.362 . S
C1039 H1029 0.930 . S
C1039 C1032 1.409 . S
C1039 C1038 1.362 . S
H1040 C1046 0.930 . S
H1041 C1049 0.930 . S
H1042 C1050 0.930 . S
H1043 C1051 0.930 . S
H1044 C1054 0.930 . S
H1045 C1055 0.930 . S
C1046 H1040 0.930 . S
C1046 C1047 1.355 . S
C1046 C1048 1.415 . S
C1047 C1046 1.355 . S
C1047 C1049 1.419 . S
C1048 C1046 1.415 . S
C1048 C1053 1.425 . S
C1048 C1055 1.409 . S
C1049 H1041 0.930 . S
C1049 C1047 1.419 . S
C1049 C1050 1.362 . S
C1050 H1042 0.930 . S
C1050 C1049 1.362 . S
C1050 C1053 1.409 . S
C1051 H1043 0.930 . S
C1051 C1052 1.355 . S
C1051 C1053 1.415 . S
C1052 C1051 1.355 . S
C1052 C1054 1.419 . S
C1053 C1048 1.425 . S
C1053 C1050 1.409 . S
C1053 C1051 1.415 . S
C1054 H1044 0.930 . S
C1054 C1052 1.419 . S
C1054 C1055 1.362 . S
C1055 H1045 0.930 . S
C1055 C1048 1.409 . S
C1055 C1054 1.362 . S
H1056 C1062 0.930 . S
H1057 C1065 0.930 . S
H1058 C1066 0.930 . S
H1059 C1067 0.930 . S
H1060 C1070 0.930 . S
H1061 C1071 0.930 . S
C1062 H1056 0.930 . S
C1062 C1063 1.355 . S
C1062 C1064 1.415 . S
C1063 C1062 1.355 . S
C1063 C1065 1.419 . S
C1064 C1062 1.415 . S
C1064 C1069 1.425 . S
C1064 C1071 1.409 . S
C1065 H1057 0.930 . S
C1065 C1063 1.419 . S
C1065 C1066 1.362 . S
C1066 H1058 0.930 . S
C1066 C1065 1.362 . S
C1066 C1069 1.409 . S
C1067 H1059 0.930 . S
C1067 C1068 1.355 . S
C1067 C1069 1.415 . S
C1068 C1067 1.355 . S
C1068 C1070 1.419 . S
C1069 C1064 1.425 . S
C1069 C1066 1.409 . S
C1069 C1067 1.415 . S
C1070 H1060 0.930 . S
C1070 C1068 1.419 . S
C1070 C1071 1.362 . S
C1071 H1061 0.930 . S
C1071 C1064 1.409 . S
C1071 C1070 1.362 . S
H1072 C1078 0.930 . S
H1073 C1081 0.930 . S
H1074 C1082 0.930 . S
H1075 C1083 0.930 . S
H1076 C1086 0.930 . S
H1077 C1087 0.930 . S
C1078 H1072 0.930 . S
C1078 C1079 1.355 . S
C1078 C1080 1.415 . S
C1079 C1078 1.355 . S
C1079 C1081 1.419 . S
C1080 C1078 1.415 . S
C1080 C1085 1.425 . S
C1080 C1087 1.409 . S
C1081 H1073 0.930 . S
C1081 C1079 1.419 . S
C1081 C1082 1.362 . S
C1082 H1074 0.930 . S
C1082 C1081 1.362 . S
C1082 C1085 1.409 . S
C1083 H1075 0.930 . S
C1083 C1084 1.355 . S
C1083 C1085 1.415 . S
C1084 C1083 1.355 . S
C1084 C1086 1.419 . S
C1085 C1080 1.425 . S
C1085 C1082 1.409 . S
C1085 C1083 1.415 . S
C1086 H1076 0.930 . S
C1086 C1084 1.419 . S
C1086 C1087 1.362 . S
C1087 H1077 0.930 . S
C1087 C1080 1.409 . S
C1087 C1086 1.362 . S
H1088 C1094 0.930 . S
H1089 C1097 0.930 . S
H1090 C1098 0.930 . S
H1091 C1099 0.930 . S
H1092 C1102 0.930 . S
H1093 C1103 0.930 . S
C1094 H1088 0.930 . S
C1094 C1095 1.355 . S
C1094 C1096 1.415 . S
C1095 C1094 1.355 . S
C1095 C1097 1.419 . S
C1096 C1094 1.415 . S
C1096 C1101 1.425 . S
C1096 C1103 1.409 . S
C1097 H1089 0.930 . S
C1097 C1095 1.419 . S
C1097 C1098 1.362 . S
C1098 H1090 0.930 . S
C1098 C1097 1.362 . S
C1098 C1101 1.409 . S
C1099 H1091 0.930 . S
C1099 C1100 1.355 . S
C1099 C1101 1.415 . S
C1100 C1099 1.355 . S
C1100 C1102 1.419 . S
C1101 C1096 1.425 . S
C1101 C1098 1.409 . S
C1101 C1099 1.415 . S
C1102 H1092 0.930 . S
C1102 C1100 1.419 . S
C1102 C1103 1.362 . S
C1103 H1093 0.930 . S
C1103 C1096 1.409 . S
C1103 C1102 1.362 . S
H1104 C1110 0.930 . S
H1105 C1113 0.930 . S
H1106 C1114 0.930 . S
H1107 C1115 0.930 . S
H1108 C1118 0.931 1_655 S
H1109 C1119 0.939 . S
C1110 H1104 0.930 . S
C1110 C1111 1.355 . S
C1110 C1112 1.415 . S
C1111 C1110 1.355 . S
C1111 C1113 1.419 . S
C1112 C1110 1.415 . S
C1112 C1117 1.425 . S
C1112 C1119 1.409 . S
C1113 H1105 0.930 . S
C1113 C1111 1.419 . S
C1113 C1114 1.362 . S
C1114 H1106 0.930 . S
C1114 C1113 1.362 . S
C1114 C1117 1.409 . S
C1115 H1107 0.930 . S
C1115 C1116 1.355 . S
C1115 C1117 1.415 . S
C1116 C1115 1.355 . S
C1116 C1118 1.418 . S
C1117 C1112 1.425 . S
C1117 C1114 1.409 . S
C1117 C1115 1.415 . S
C1118 H1108 0.931 1_455 S
C1118 C1116 1.418 . S
C1118 C1119 1.362 . S
C1119 H1109 0.939 . S
C1119 C1112 1.409 . S
C1119 C1118 1.362 . S
H1120 C1126 0.930 . S
H1121 C1129 0.930 . S
H1122 C1130 0.930 . S
H1123 C1131 0.930 . S
H1124 C1134 0.930 . S
H1125 C1135 0.930 . S
C1126 H1120 0.930 . S
C1126 C1127 1.355 . S
C1126 C1128 1.415 . S
C1127 C1126 1.355 . S
C1127 C1129 1.419 . S
C1128 C1126 1.415 . S
C1128 C1133 1.425 . S
C1128 C1135 1.409 . S
C1129 H1121 0.930 . S
C1129 C1127 1.419 . S
C1129 C1130 1.362 . S
C1130 H1122 0.930 . S
C1130 C1129 1.362 . S
C1130 C1133 1.409 . S
C1131 H1123 0.930 . S
C1131 C1132 1.355 . S
C1131 C1133 1.415 . S
C1132 C1131 1.355 . S
C1132 C1134 1.419 . S
C1133 C1128 1.425 . S
C1133 C1130 1.409 . S
C1133 C1131 1.415 . S
C1134 H1124 0.930 . S
C1134 C1132 1.419 . S
C1134 C1135 1.362 . S
C1135 H1125 0.930 . S
C1135 C1128 1.409 . S
C1135 C1134 1.362 . S
H1136 C1142 0.930 . S
H1137 C1145 0.930 . S
H1138 C1146 0.930 . S
H1139 C1147 0.930 . S
H1140 C1150 0.930 . S
H1141 C1151 0.930 . S
C1142 H1136 0.930 . S
C1142 C1143 1.355 . S
C1142 C1144 1.415 . S
C1143 C1142 1.355 . S
C1143 C1145 1.419 . S
C1144 C1142 1.415 . S
C1144 C1149 1.425 . S
C1144 C1151 1.409 . S
C1145 H1137 0.930 . S
C1145 C1143 1.419 . S
C1145 C1146 1.362 . S
C1146 H1138 0.930 . S
C1146 C1145 1.362 . S
C1146 C1149 1.409 . S
C1147 H1139 0.930 . S
C1147 C1148 1.355 . S
C1147 C1149 1.415 . S
C1148 C1147 1.355 . S
C1148 C1150 1.419 . S
C1149 C1144 1.425 . S
C1149 C1146 1.409 . S
C1149 C1147 1.415 . S
C1150 H1140 0.930 . S
C1150 C1148 1.419 . S
C1150 C1151 1.362 . S
C1151 H1141 0.930 . S
C1151 C1144 1.409 . S
C1151 C1150 1.362 . S
H1152 C1158 0.930 . S
H1153 C1161 0.930 . S
H1154 C1162 0.930 . S
H1155 C1163 0.930 . S
H1156 C1166 0.930 . S
H1157 C1167 0.930 . S
C1158 H1152 0.930 . S
C1158 C1159 1.355 . S
C1158 C1160 1.415 . S
C1159 C1158 1.355 . S
C1159 C1161 1.419 . S
C1160 C1158 1.415 . S
C1160 C1165 1.425 . S
C1160 C1167 1.409 . S
C1161 H1153 0.930 . S
C1161 C1159 1.419 . S
C1161 C1162 1.362 . S
C1162 H1154 0.930 . S
C1162 C1161 1.362 . S
C1162 C1165 1.409 . S
C1163 H1155 0.930 . S
C1163 C1164 1.355 . S
C1163 C1165 1.415 . S
C1164 C1163 1.355 . S
C1164 C1166 1.419 . S
C1165 C1160 1.425 . S
C1165 C1162 1.409 . S
C1165 C1163 1.415 . S
C1166 H1156 0.930 . S
C1166 C1164 1.419 . S
C1166 C1167 1.362 . S
C1167 H1157 0.930 . S
C1167 C1160 1.409 . S
C1167 C1166 1.362 . S
H1168 C1174 0.930 . S
H1169 C1177 0.930 . S
H1170 C1178 0.930 . S
H1171 C1179 0.930 . S
H1172 C1182 0.930 . S
H1173 C1183 0.930 . S
C1174 H1168 0.930 . S
C1174 C1175 1.354 . S
C1174 C1176 1.415 . S
C1175 C1174 1.354 . S
C1175 C1177 1.420 1_545 S
C1176 C1174 1.415 . S
C1176 C1181 1.425 1_545 S
C1176 C1183 1.409 . S
C1177 H1169 0.930 . S
C1177 C1175 1.420 1_565 S
C1177 C1178 1.362 . S
C1178 H1170 0.930 . S
C1178 C1177 1.362 . S
C1178 C1181 1.409 . S
C1179 H1171 0.930 . S
C1179 C1180 1.355 1_565 S
C1179 C1181 1.415 . S
C1180 C1179 1.355 1_545 S
C1180 C1182 1.419 . S
C1181 C1176 1.425 1_565 S
C1181 C1178 1.409 . S
C1181 C1179 1.415 . S
C1182 H1172 0.930 . S
C1182 C1180 1.419 . S
C1182 C1183 1.362 . S
C1183 H1173 0.930 . S
C1183 C1176 1.409 . S
C1183 C1182 1.362 . S
H1184 C1190 0.930 . S
H1185 C1193 0.930 . S
H1186 C1194 0.930 . S
H1187 C1195 0.930 . S
H1188 C1198 0.930 . S
H1189 C1199 0.930 . S
C1190 H1184 0.930 . S
C1190 C1191 1.355 . S
C1190 C1192 1.415 . S
C1191 C1190 1.355 . S
C1191 C1193 1.419 . S
C1192 C1190 1.415 . S
C1192 C1197 1.425 . S
C1192 C1199 1.409 . S
C1193 H1185 0.930 . S
C1193 C1191 1.419 . S
C1193 C1194 1.362 . S
C1194 H1186 0.930 . S
C1194 C1193 1.362 . S
C1194 C1197 1.409 . S
C1195 H1187 0.930 . S
C1195 C1196 1.355 . S
C1195 C1197 1.415 . S
C1196 C1195 1.355 . S
C1196 C1198 1.419 . S
C1197 C1192 1.425 . S
C1197 C1194 1.409 . S
C1197 C1195 1.415 . S
C1198 H1188 0.930 . S
C1198 C1196 1.419 . S
C1198 C1199 1.362 . S
C1199 H1189 0.930 . S
C1199 C1192 1.409 . S
C1199 C1198 1.362 . S
H1200 C1206 0.930 . S
H1201 C1209 0.930 . S
H1202 C1210 0.930 . S
H1203 C1211 0.930 . S
H1204 C1214 0.930 . S
H1205 C1215 0.930 . S
C1206 H1200 0.930 . S
C1206 C1207 1.355 . S
C1206 C1208 1.415 . S
C1207 C1206 1.355 . S
C1207 C1209 1.419 . S
C1208 C1206 1.415 . S
C1208 C1213 1.425 . S
C1208 C1215 1.409 . S
C1209 H1201 0.930 . S
C1209 C1207 1.419 . S
C1209 C1210 1.362 . S
C1210 H1202 0.930 . S
C1210 C1209 1.362 . S
C1210 C1213 1.409 . S
C1211 H1203 0.930 . S
C1211 C1212 1.355 . S
C1211 C1213 1.415 . S
C1212 C1211 1.355 . S
C1212 C1214 1.419 . S
C1213 C1208 1.425 . S
C1213 C1210 1.409 . S
C1213 C1211 1.415 . S
C1214 H1204 0.930 . S
C1214 C1212 1.419 . S
C1214 C1215 1.362 . S
C1215 H1205 0.930 . S
C1215 C1208 1.409 . S
C1215 C1214 1.362 . S
H1216 C1222 0.930 . S
H1217 C1225 0.930 . S
H1218 C1226 0.930 . S
H1219 C1227 0.930 . S
H1220 C1230 0.930 . S
H1221 C1231 0.930 . S
C1222 H1216 0.930 . S
C1222 C1223 1.355 . S
C1222 C1224 1.415 . S
C1223 C1222 1.355 . S
C1223 C1225 1.419 . S
C1224 C1222 1.415 . S
C1224 C1229 1.425 . S
C1224 C1231 1.409 . S
C1225 H1217 0.930 . S
C1225 C1223 1.419 . S
C1225 C1226 1.362 . S
C1226 H1218 0.930 . S
C1226 C1225 1.362 . S
C1226 C1229 1.409 . S
C1227 H1219 0.930 . S
C1227 C1228 1.355 . S
C1227 C1229 1.415 . S
C1228 C1227 1.355 . S
C1228 C1230 1.419 . S
C1229 C1224 1.425 . S
C1229 C1226 1.409 . S
C1229 C1227 1.415 . S
C1230 H1220 0.930 . S
C1230 C1228 1.419 . S
C1230 C1231 1.362 . S
C1231 H1221 0.930 . S
C1231 C1224 1.409 . S
C1231 C1230 1.362 . S
H1232 C1238 0.930 . S
H1233 C1241 0.930 . S
H1234 C1242 0.933 . S
H1235 C1243 0.930 . S
H1236 C1246 0.930 . S
H1237 C1247 0.930 . S
C1238 H1232 0.930 . S
C1238 C1239 1.355 1_545 S
C1238 C1240 1.415 . S
C1239 C1238 1.355 1_565 S
C1239 C1241 1.419 . S
C1240 C1238 1.415 . S
C1240 C1245 1.425 . S
C1240 C1247 1.409 . S
C1241 H1233 0.930 . S
C1241 C1239 1.419 . S
C1241 C1242 1.373 . S
C1242 H1234 0.933 . S
C1242 C1241 1.373 . S
C1242 C1245 1.403 1_565 S
C1243 H1235 0.930 . S
C1243 C1244 1.355 . S
C1243 C1245 1.415 . S
C1244 C1243 1.355 . S
C1244 C1246 1.419 . S
C1245 C1240 1.425 . S
C1245 C1242 1.403 1_545 S
C1245 C1243 1.415 . S
C1246 H1236 0.930 . S
C1246 C1244 1.419 . S
C1246 C1247 1.362 . S
C1247 H1237 0.930 . S
C1247 C1240 1.409 . S
C1247 C1246 1.362 . S
H1248 C1254 0.930 . S
H1249 C1257 0.930 . S
H1250 C1258 0.930 . S
H1251 C1259 0.930 . S
H1252 C1262 0.930 . S
H1253 C1263 0.930 . S
C1254 H1248 0.930 . S
C1254 C1255 1.355 . S
C1254 C1256 1.415 . S
C1255 C1254 1.355 . S
C1255 C1257 1.419 . S
C1256 C1254 1.415 . S
C1256 C1261 1.425 . S
C1256 C1263 1.409 . S
C1257 H1249 0.930 . S
C1257 C1255 1.419 . S
C1257 C1258 1.362 . S
C1258 H1250 0.930 . S
C1258 C1257 1.362 . S
C1258 C1261 1.409 . S
C1259 H1251 0.930 . S
C1259 C1260 1.355 . S
C1259 C1261 1.415 . S
C1260 C1259 1.355 . S
C1260 C1262 1.419 . S
C1261 C1256 1.425 . S
C1261 C1258 1.409 . S
C1261 C1259 1.415 . S
C1262 H1252 0.930 . S
C1262 C1260 1.419 . S
C1262 C1263 1.362 . S
C1263 H1253 0.930 . S
C1263 C1256 1.409 . S
C1263 C1262 1.362 . S
H1264 C1270 0.930 . S
H1265 C1273 0.930 . S
H1266 C1274 0.930 . S
H1267 C1275 0.930 . S
H1268 C1278 0.930 . S
H1269 C1279 0.930 . S
C1270 H1264 0.930 . S
C1270 C1271 1.355 . S
C1270 C1272 1.415 . S
C1271 C1270 1.355 . S
C1271 C1273 1.419 1_545 S
C1272 C1270 1.415 . S
C1272 C1277 1.425 1_545 S
C1272 C1279 1.409 . S
C1273 H1265 0.930 . S
C1273 C1271 1.419 1_565 S
C1273 C1274 1.362 . S
C1274 H1266 0.930 . S
C1274 C1273 1.362 . S
C1274 C1277 1.409 . S
C1275 H1267 0.930 . S
C1275 C1276 1.355 1_565 S
C1275 C1277 1.415 . S
C1276 C1275 1.355 1_545 S
C1276 C1278 1.419 . S
C1277 C1272 1.425 1_565 S
C1277 C1274 1.409 . S
C1277 C1275 1.415 . S
C1278 H1268 0.930 . S
C1278 C1276 1.419 . S
C1278 C1279 1.362 . S
C1279 H1269 0.930 . S
C1279 C1272 1.409 . S
C1279 C1278 1.362 . S
H1280 C1286 0.930 . S
H1281 C1289 0.930 . S
H1282 C1290 0.930 . S
H1283 C1291 0.930 . S
H1284 C1294 0.930 . S
H1285 C1295 0.930 . S
C1286 H1280 0.930 . S
C1286 C1287 1.355 . S
C1286 C1288 1.415 . S
C1287 C1286 1.355 . S
C1287 C1289 1.419 . S
C1288 C1286 1.415 . S
C1288 C1293 1.425 . S
C1288 C1295 1.409 . S
C1289 H1281 0.930 . S
C1289 C1287 1.419 . S
C1289 C1290 1.362 . S
C1290 H1282 0.930 . S
C1290 C1289 1.362 . S
C1290 C1293 1.409 . S
C1291 H1283 0.930 . S
C1291 C1292 1.355 . S
C1291 C1293 1.415 . S
C1292 C1291 1.355 . S
C1292 C1294 1.419 . S
C1293 C1288 1.425 . S
C1293 C1290 1.409 . S
C1293 C1291 1.415 . S
C1294 H1284 0.930 . S
C1294 C1292 1.419 . S
C1294 C1295 1.362 . S
C1295 H1285 0.930 . S
C1295 C1288 1.409 . S
C1295 C1294 1.362 . S
H1296 C1302 0.929 1_554 S
H1297 C1305 0.930 . S
H1298 C1306 0.930 . S
H1299 C1307 0.930 . S
H1300 C1310 0.930 . S
H1301 C1311 0.930 . S
C1302 H1296 0.929 1_556 S
C1302 C1303 1.355 . S
C1302 C1304 1.415 . S
C1303 C1302 1.355 . S
C1303 C1305 1.419 . S
C1304 C1302 1.415 . S
C1304 C1309 1.425 . S
C1304 C1311 1.409 . S
C1305 H1297 0.930 . S
C1305 C1303 1.419 . S
C1305 C1306 1.362 . S
C1306 H1298 0.930 . S
C1306 C1305 1.362 . S
C1306 C1309 1.409 . S
C1307 H1299 0.930 . S
C1307 C1308 1.355 . S
C1307 C1309 1.415 . S
C1308 C1307 1.355 . S
C1308 C1310 1.419 . S
C1309 C1304 1.425 . S
C1309 C1306 1.409 . S
C1309 C1307 1.415 . S
C1310 H1300 0.930 . S
C1310 C1308 1.419 . S
C1310 C1311 1.362 . S
C1311 H1301 0.930 . S
C1311 C1304 1.409 . S
C1311 C1310 1.362 . S
H1312 C1318 0.930 . S
H1313 C1321 0.930 . S
H1314 C1322 0.930 . S
H1315 C1323 0.930 . S
H1316 C1326 0.930 . S
H1317 C1327 0.930 . S
C1318 H1312 0.930 . S
C1318 C1319 1.355 . S
C1318 C1320 1.415 . S
C1319 C1318 1.355 . S
C1319 C1321 1.419 . S
C1320 C1318 1.415 . S
C1320 C1325 1.425 . S
C1320 C1327 1.409 . S
C1321 H1313 0.930 . S
C1321 C1319 1.419 . S
C1321 C1322 1.362 . S
C1322 H1314 0.930 . S
C1322 C1321 1.362 . S
C1322 C1325 1.409 . S
C1323 H1315 0.930 . S
C1323 C1324 1.355 . S
C1323 C1325 1.415 . S
C1324 C1323 1.355 . S
C1324 C1326 1.419 . S
C1325 C1320 1.425 . S
C1325 C1322 1.409 . S
C1325 C1323 1.415 . S
C1326 H1316 0.930 . S
C1326 C1324 1.419 . S
C1326 C1327 1.362 . S
C1327 H1317 0.930 . S
C1327 C1320 1.409 . S
C1327 C1326 1.362 . S
H1328 C1334 0.930 . S
H1329 C1337 0.930 . S
H1330 C1338 0.930 . S
H1331 C1339 0.930 . S
H1332 C1342 0.930 . S
H1333 C1343 0.930 . S
C1334 H1328 0.930 . S
C1334 C1335 1.355 . S
C1334 C1336 1.415 . S
C1335 C1334 1.355 . S
C1335 C1337 1.419 . S
C1336 C1334 1.415 . S
C1336 C1341 1.425 . S
C1336 C1343 1.409 . S
C1337 H1329 0.930 . S
C1337 C1335 1.419 . S
C1337 C1338 1.362 . S
C1338 H1330 0.930 . S
C1338 C1337 1.362 . S
C1338 C1341 1.409 . S
C1339 H1331 0.930 . S
C1339 C1340 1.355 . S
C1339 C1341 1.415 . S
C1340 C1339 1.355 . S
C1340 C1342 1.419 . S
C1341 C1336 1.425 . S
C1341 C1338 1.409 . S
C1341 C1339 1.415 . S
C1342 H1332 0.930 . S
C1342 C1340 1.419 . S
C1342 C1343 1.362 . S
C1343 H1333 0.930 . S
C1343 C1336 1.409 . S
C1343 C1342 1.362 . S
H1344 C1350 0.930 . S
H1345 C1353 0.930 . S
H1346 C1354 0.930 . S
H1347 C1355 0.930 . S
H1348 C1358 0.930 . S
H1349 C1359 0.930 . S
C1350 H1344 0.930 . S
C1350 C1351 1.355 . S
C1350 C1352 1.415 . S
C1351 C1350 1.355 . S
C1351 C1353 1.419 . S
C1352 C1350 1.415 . S
C1352 C1357 1.425 . S
C1352 C1359 1.409 . S
C1353 H1345 0.930 . S
C1353 C1351 1.419 . S
C1353 C1354 1.362 . S
C1354 H1346 0.930 . S
C1354 C1353 1.362 . S
C1354 C1357 1.409 . S
C1355 H1347 0.930 . S
C1355 C1356 1.355 . S
C1355 C1357 1.415 . S
C1356 C1355 1.355 . S
C1356 C1358 1.419 . S
C1357 C1352 1.425 . S
C1357 C1354 1.409 . S
C1357 C1355 1.415 . S
C1358 H1348 0.930 . S
C1358 C1356 1.419 . S
C1358 C1359 1.362 . S
C1359 H1349 0.930 . S
C1359 C1352 1.409 . S
C1359 C1358 1.362 . S
H1360 C1366 0.930 . S
H1361 C1369 0.930 . S
H1362 C1370 0.930 . S
H1363 C1371 0.930 . S
H1364 C1374 0.930 . S
H1365 C1375 0.930 . S
C1366 H1360 0.930 . S
C1366 C1367 1.355 . S
C1366 C1368 1.415 . S
C1367 C1366 1.355 . S
C1367 C1369 1.419 . S
C1368 C1366 1.415 . S
C1368 C1373 1.425 . S
C1368 C1375 1.409 . S
C1369 H1361 0.930 . S
C1369 C1367 1.419 . S
C1369 C1370 1.362 . S
C1370 H1362 0.930 . S
C1370 C1369 1.362 . S
C1370 C1373 1.409 . S
C1371 H1363 0.930 . S
C1371 C1372 1.355 . S
C1371 C1373 1.415 . S
C1372 C1371 1.355 . S
C1372 C1374 1.419 . S
C1373 C1368 1.425 . S
C1373 C1370 1.409 . S
C1373 C1371 1.415 . S
C1374 H1364 0.930 . S
C1374 C1372 1.419 . S
C1374 C1375 1.362 . S
C1375 H1365 0.930 . S
C1375 C1368 1.409 . S
C1375 C1374 1.362 . S
H1376 C1382 0.930 . S
H1377 C1385 0.930 . S
H1378 C1386 0.930 . S
H1379 C1387 0.930 . S
H1380 C1390 0.930 1_545 S
H1381 C1391 0.930 . S
C1382 H1376 0.930 . S
C1382 C1383 1.355 . S
C1382 C1384 1.415 . S
C1383 C1382 1.355 . S
C1383 C1385 1.419 . S
C1384 C1382 1.415 . S
C1384 C1389 1.425 . S
C1384 C1391 1.409 . S
C1385 H1377 0.930 . S
C1385 C1383 1.419 . S
C1385 C1386 1.362 . S
C1386 H1378 0.930 . S
C1386 C1385 1.362 . S
C1386 C1389 1.409 . S
C1387 H1379 0.930 . S
C1387 C1388 1.355 . S
C1387 C1389 1.415 . S
C1388 C1387 1.355 . S
C1388 C1390 1.419 . S
C1389 C1384 1.425 . S
C1389 C1386 1.409 . S
C1389 C1387 1.415 . S
C1390 H1380 0.930 1_565 S
C1390 C1388 1.419 . S
C1390 C1391 1.362 . S
C1391 H1381 0.930 . S
C1391 C1384 1.409 . S
C1391 C1390 1.362 . S
H1392 C1398 0.930 . S
H1393 C1401 0.930 . S
H1394 C1402 0.930 . S
H1395 C1403 0.930 . S
H1396 C1406 0.930 . S
H1397 C1407 0.930 . S
C1398 H1392 0.930 . S
C1398 C1399 1.355 . S
C1398 C1400 1.415 . S
C1399 C1398 1.355 . S
C1399 C1401 1.419 . S
C1400 C1398 1.415 . S
C1400 C1405 1.425 . S
C1400 C1407 1.409 . S
C1401 H1393 0.930 . S
C1401 C1399 1.419 . S
C1401 C1402 1.362 . S
C1402 H1394 0.930 . S
C1402 C1401 1.362 . S
C1402 C1405 1.409 . S
C1403 H1395 0.930 . S
C1403 C1404 1.355 . S
C1403 C1405 1.415 . S
C1404 C1403 1.355 . S
C1404 C1406 1.419 . S
C1405 C1400 1.425 . S
C1405 C1402 1.409 . S
C1405 C1403 1.415 . S
C1406 H1396 0.930 . S
C1406 C1404 1.419 . S
C1406 C1407 1.362 . S
C1407 H1397 0.930 . S
C1407 C1400 1.409 . S
C1407 C1406 1.362 . S
H1408 C1414 0.930 . S
H1409 C1417 0.930 . S
H1410 C1418 0.930 . S
H1411 C1419 0.930 . S
H1412 C1422 0.930 . S
H1413 C1423 0.930 . S
C1414 H1408 0.930 . S
C1414 C1415 1.355 . S
C1414 C1416 1.415 . S
C1415 C1414 1.355 . S
C1415 C1417 1.419 . S
C1416 C1414 1.415 . S
C1416 C1421 1.425 . S
C1416 C1423 1.409 . S
C1417 H1409 0.930 . S
C1417 C1415 1.419 . S
C1417 C1418 1.362 . S
C1418 H1410 0.930 . S
C1418 C1417 1.362 . S
C1418 C1421 1.409 . S
C1419 H1411 0.930 . S
C1419 C1420 1.355 . S
C1419 C1421 1.415 . S
C1420 C1419 1.355 . S
C1420 C1422 1.419 . S
C1421 C1416 1.425 . S
C1421 C1418 1.409 . S
C1421 C1419 1.415 . S
C1422 H1412 0.930 . S
C1422 C1420 1.419 . S
C1422 C1423 1.362 . S
C1423 H1413 0.930 . S
C1423 C1416 1.409 . S
C1423 C1422 1.362 . S
H1424 C1430 0.930 . S
H1425 C1433 0.930 . S
H1426 C1434 0.930 . S
H1427 C1435 0.930 . S
H1428 C1438 0.930 . S
H1429 C1439 0.930 . S
C1430 H1424 0.930 . S
C1430 C1431 1.355 . S
C1430 C1432 1.415 . S
C1431 C1430 1.355 . S
C1431 C1433 1.419 . S
C1432 C1430 1.415 . S
C1432 C1437 1.425 . S
C1432 C1439 1.409 . S
C1433 H1425 0.930 . S
C1433 C1431 1.419 . S
C1433 C1434 1.362 . S
C1434 H1426 0.930 . S
C1434 C1433 1.362 . S
C1434 C1437 1.409 . S
C1435 H1427 0.930 . S
C1435 C1436 1.355 . S
C1435 C1437 1.415 . S
C1436 C1435 1.355 . S
C1436 C1438 1.419 . S
C1437 C1432 1.425 . S
C1437 C1434 1.409 . S
C1437 C1435 1.415 . S
C1438 H1428 0.930 . S
C1438 C1436 1.419 . S
C1438 C1439 1.362 . S
C1439 H1429 0.930 . S
C1439 C1432 1.409 . S
C1439 C1438 1.362 . S
H1440 C1446 0.930 . S
H1441 C1449 0.930 . S
H1442 C1450 0.930 . S
H1443 C1451 0.930 . S
H1444 C1454 0.930 . S
H1445 C1455 0.930 . S
C1446 H1440 0.930 . S
C1446 C1447 1.355 . S
C1446 C1448 1.415 . S
C1447 C1446 1.355 . S
C1447 C1449 1.419 . S
C1448 C1446 1.415 . S
C1448 C1453 1.425 . S
C1448 C1455 1.409 . S
C1449 H1441 0.930 . S
C1449 C1447 1.419 . S
C1449 C1450 1.362 . S
C1450 H1442 0.930 . S
C1450 C1449 1.362 . S
C1450 C1453 1.409 . S
C1451 H1443 0.930 . S
C1451 C1452 1.355 . S
C1451 C1453 1.415 . S
C1452 C1451 1.355 . S
C1452 C1454 1.419 . S
C1453 C1448 1.425 . S
C1453 C1450 1.409 . S
C1453 C1451 1.415 . S
C1454 H1444 0.930 . S
C1454 C1452 1.419 . S
C1454 C1455 1.362 . S
C1455 H1445 0.930 . S
C1455 C1448 1.409 . S
C1455 C1454 1.362 . S
H1456 C1462 0.930 . S
H1457 C1465 0.930 . S
H1458 C1466 0.930 . S
H1459 C1467 0.930 1_554 S
H1460 C1470 0.930 . S
H1461 C1471 0.930 . S
C1462 H1456 0.930 . S
C1462 C1463 1.355 1_655 S
C1462 C1464 1.416 1_655 S
C1463 C1462 1.355 1_455 S
C1463 C1465 1.419 . S
C1464 C1462 1.416 1_455 S
C1464 C1469 1.429 . S
C1464 C1471 1.405 1_455 S
C1465 H1457 0.930 . S
C1465 C1463 1.419 . S
C1465 C1466 1.362 . S
C1466 H1458 0.930 . S
C1466 C1465 1.362 . S
C1466 C1469 1.409 . S
C1467 H1459 0.930 1_556 S
C1467 C1468 1.355 . S
C1467 C1469 1.415 . S
C1468 C1467 1.355 . S
C1468 C1470 1.419 1_455 S
C1469 C1464 1.429 . S
C1469 C1466 1.409 . S
C1469 C1467 1.415 . S
C1470 H1460 0.930 . S
C1470 C1468 1.419 1_655 S
C1470 C1471 1.362 . S
C1471 H1461 0.930 . S
C1471 C1464 1.405 1_655 S
C1471 C1470 1.362 . S
H1472 C1478 0.930 . S
H1473 C1481 0.930 . S
H1474 C1482 0.930 . S
H1475 C1483 0.930 . S
H1476 C1486 0.930 . S
H1477 C1487 0.930 . S
C1478 H1472 0.930 . S
C1478 C1479 1.355 . S
C1478 C1480 1.415 . S
C1479 C1478 1.355 . S
C1479 C1481 1.419 . S
C1480 C1478 1.415 . S
C1480 C1485 1.425 . S
C1480 C1487 1.409 . S
C1481 H1473 0.930 . S
C1481 C1479 1.419 . S
C1481 C1482 1.362 . S
C1482 H1474 0.930 . S
C1482 C1481 1.362 . S
C1482 C1485 1.409 . S
C1483 H1475 0.930 . S
C1483 C1484 1.355 . S
C1483 C1485 1.415 . S
C1484 C1483 1.355 . S
C1484 C1486 1.419 . S
C1485 C1480 1.425 . S
C1485 C1482 1.409 . S
C1485 C1483 1.415 . S
C1486 H1476 0.930 . S
C1486 C1484 1.419 . S
C1486 C1487 1.362 . S
C1487 H1477 0.930 . S
C1487 C1480 1.409 . S
C1487 C1486 1.362 . S
H1488 C1494 0.930 . S
H1489 C1497 0.930 . S
H1490 C1498 0.930 . S
H1491 C1499 0.930 . S
H1492 C1502 0.930 . S
H1493 C1503 0.930 . S
C1494 H1488 0.930 . S
C1494 C1495 1.355 . S
C1494 C1496 1.415 . S
C1495 C1494 1.355 . S
C1495 C1497 1.419 . S
C1496 C1494 1.415 . S
C1496 C1501 1.425 . S
C1496 C1503 1.409 . S
C1497 H1489 0.930 . S
C1497 C1495 1.419 . S
C1497 C1498 1.362 . S
C1498 H1490 0.930 . S
C1498 C1497 1.362 . S
C1498 C1501 1.409 . S
C1499 H1491 0.930 . S
C1499 C1500 1.355 . S
C1499 C1501 1.415 . S
C1500 C1499 1.355 . S
C1500 C1502 1.419 . S
C1501 C1496 1.425 . S
C1501 C1498 1.409 . S
C1501 C1499 1.415 . S
C1502 H1492 0.930 . S
C1502 C1500 1.419 . S
C1502 C1503 1.362 . S
C1503 H1493 0.930 . S
C1503 C1496 1.409 . S
C1503 C1502 1.362 . S
H1504 C1510 0.930 . S
H1505 C1513 0.930 . S
H1506 C1514 0.930 . S
H1507 C1515 0.930 . S
H1508 C1518 0.930 . S
H1509 C1519 0.930 . S
C1510 H1504 0.930 . S
C1510 C1511 1.355 . S
C1510 C1512 1.415 . S
C1511 C1510 1.355 . S
C1511 C1513 1.419 . S
C1512 C1510 1.415 . S
C1512 C1517 1.425 . S
C1512 C1519 1.409 . S
C1513 H1505 0.930 . S
C1513 C1511 1.419 . S
C1513 C1514 1.362 . S
C1514 H1506 0.930 . S
C1514 C1513 1.362 . S
C1514 C1517 1.409 . S
C1515 H1507 0.930 . S
C1515 C1516 1.355 . S
C1515 C1517 1.415 . S
C1516 C1515 1.355 . S
C1516 C1518 1.419 . S
C1517 C1512 1.425 . S
C1517 C1514 1.409 . S
C1517 C1515 1.415 . S
C1518 H1508 0.930 . S
C1518 C1516 1.419 . S
C1518 C1519 1.362 . S
C1519 H1509 0.930 . S
C1519 C1512 1.409 . S
C1519 C1518 1.362 . S
H1520 C1526 0.930 . S
H1521 C1529 0.931 1_655 S
H1522 C1530 0.930 . S
H1523 C1531 0.930 . S
H1524 C1534 0.930 . S
H1525 C1535 0.930 . S
C1526 H1520 0.930 . S
C1526 C1527 1.361 . S
C1526 C1528 1.415 . S
C1527 C1526 1.361 . S
C1527 C1529 1.419 . S
C1528 C1526 1.415 . S
C1528 C1533 1.425 . S
C1528 C1535 1.409 . S
C1529 H1521 0.931 1_455 S
C1529 C1527 1.419 . S
C1529 C1530 1.361 . S
C1530 H1522 0.930 . S
C1530 C1529 1.361 . S
C1530 C1533 1.409 . S
C1531 H1523 0.930 . S
C1531 C1532 1.355 . S
C1531 C1533 1.415 . S
C1532 C1531 1.355 . S
C1532 C1534 1.419 . S
C1533 C1528 1.425 . S
C1533 C1530 1.409 . S
C1533 C1531 1.415 . S
C1534 H1524 0.930 . S
C1534 C1532 1.419 . S
C1534 C1535 1.362 . S
C1535 H1525 0.930 . S
C1535 C1528 1.409 . S
C1535 C1534 1.362 . S
H1536 C1542 0.930 . S
H1537 C1545 0.930 . S
H1538 C1546 0.930 . S
H1539 C1547 0.930 . S
H1540 C1550 0.930 . S
H1541 C1551 0.930 . S
C1542 H1536 0.930 . S
C1542 C1543 1.355 . S
C1542 C1544 1.415 . S
C1543 C1542 1.355 . S
C1543 C1545 1.419 . S
C1544 C1542 1.415 . S
C1544 C1549 1.425 . S
C1544 C1551 1.409 . S
C1545 H1537 0.930 . S
C1545 C1543 1.419 . S
C1545 C1546 1.362 . S
C1546 H1538 0.930 . S
C1546 C1545 1.362 . S
C1546 C1549 1.409 . S
C1547 H1539 0.930 . S
C1547 C1548 1.355 . S
C1547 C1549 1.415 . S
C1548 C1547 1.355 . S
C1548 C1550 1.419 . S
C1549 C1544 1.425 . S
C1549 C1546 1.409 . S
C1549 C1547 1.415 . S
C1550 H1540 0.930 . S
C1550 C1548 1.419 . S
C1550 C1551 1.362 . S
C1551 H1541 0.930 . S
C1551 C1544 1.409 . S
C1551 C1550 1.362 . S
H1552 C1558 0.930 . S
H1553 C1561 0.930 . S
H1554 C1562 0.930 . S
H1555 C1563 0.930 . S
H1556 C1566 0.930 . S
H1557 C1567 0.930 . S
C1558 H1552 0.930 . S
C1558 C1559 1.355 . S
C1558 C1560 1.415 . S
C1559 C1558 1.355 . S
C1559 C1561 1.419 . S
C1560 C1558 1.415 . S
C1560 C1565 1.425 . S
C1560 C1567 1.409 . S
C1561 H1553 0.930 . S
C1561 C1559 1.419 . S
C1561 C1562 1.362 . S
C1562 H1554 0.930 . S
C1562 C1561 1.362 . S
C1562 C1565 1.409 . S
C1563 H1555 0.930 . S
C1563 C1564 1.355 . S
C1563 C1565 1.415 . S
C1564 C1563 1.355 . S
C1564 C1566 1.419 . S
C1565 C1560 1.425 . S
C1565 C1562 1.409 . S
C1565 C1563 1.415 . S
C1566 H1556 0.930 . S
C1566 C1564 1.419 . S
C1566 C1567 1.362 . S
C1567 H1557 0.930 . S
C1567 C1560 1.409 . S
C1567 C1566 1.362 . S
H1568 C1574 0.930 . S
H1569 C1577 0.930 . S
H1570 C1578 0.930 . S
H1571 C1579 0.930 . S
H1572 C1582 0.930 . S
H1573 C1583 0.930 . S
C1574 H1568 0.930 . S
C1574 C1575 1.355 . S
C1574 C1576 1.415 . S
C1575 C1574 1.355 . S
C1575 C1577 1.419 . S
C1576 C1574 1.415 . S
C1576 C1581 1.425 . S
C1576 C1583 1.409 . S
C1577 H1569 0.930 . S
C1577 C1575 1.419 . S
C1577 C1578 1.362 . S
C1578 H1570 0.930 . S
C1578 C1577 1.362 . S
C1578 C1581 1.409 . S
C1579 H1571 0.930 . S
C1579 C1580 1.355 . S
C1579 C1581 1.415 . S
C1580 C1579 1.355 . S
C1580 C1582 1.419 . S
C1581 C1576 1.425 . S
C1581 C1578 1.409 . S
C1581 C1579 1.415 . S
C1582 H1572 0.930 . S
C1582 C1580 1.419 . S
C1582 C1583 1.362 . S
C1583 H1573 0.930 . S
C1583 C1576 1.409 . S
C1583 C1582 1.362 . S
H1584 C1590 0.930 . S
H1585 C1593 0.930 . S
H1586 C1594 0.930 . S
H1587 C1595 0.930 . S
H1588 C1598 0.930 . S
H1589 C1599 0.930 . S
C1590 H1584 0.930 . S
C1590 C1591 1.355 . S
C1590 C1592 1.415 . S
C1591 C1590 1.355 . S
C1591 C1593 1.419 . S
C1592 C1590 1.415 . S
C1592 C1597 1.425 . S
C1592 C1599 1.409 . S
C1593 H1585 0.930 . S
C1593 C1591 1.419 . S
C1593 C1594 1.362 . S
C1594 H1586 0.930 . S
C1594 C1593 1.362 . S
C1594 C1597 1.409 . S
C1595 H1587 0.930 . S
C1595 C1596 1.355 . S
C1595 C1597 1.415 . S
C1596 C1595 1.355 . S
C1596 C1598 1.419 . S
C1597 C1592 1.425 . S
C1597 C1594 1.409 . S
C1597 C1595 1.415 . S
C1598 H1588 0.930 . S
C1598 C1596 1.419 . S
C1598 C1599 1.362 . S
C1599 H1589 0.930 . S
C1599 C1592 1.409 . S
C1599 C1598 1.362 . S
H1600 C1606 0.930 . S
H1601 C1609 0.930 . S
H1602 C1610 0.930 . S
H1603 C1611 0.930 . S
H1604 C1614 0.930 . S
H1605 C1615 0.930 . S
C1606 H1600 0.930 . S
C1606 C1607 1.355 . S
C1606 C1608 1.415 . S
C1607 C1606 1.355 . S
C1607 C1609 1.419 . S
C1608 C1606 1.415 . S
C1608 C1613 1.425 . S
C1608 C1615 1.409 . S
C1609 H1601 0.930 . S
C1609 C1607 1.419 . S
C1609 C1610 1.362 . S
C1610 H1602 0.930 . S
C1610 C1609 1.362 . S
C1610 C1613 1.409 . S
C1611 H1603 0.930 . S
C1611 C1612 1.355 . S
C1611 C1613 1.415 . S
C1612 C1611 1.355 . S
C1612 C1614 1.419 . S
C1613 C1608 1.425 . S
C1613 C1610 1.409 . S
C1613 C1611 1.415 . S
C1614 H1604 0.930 . S
C1614 C1612 1.419 . S
C1614 C1615 1.362 . S
C1615 H1605 0.930 . S
C1615 C1608 1.409 . S
C1615 C1614 1.362 . S
H1616 C1622 0.930 . S
H1617 C1625 0.930 . S
H1618 C1626 0.930 . S
H1619 C1627 0.930 . S
H1620 C1630 0.930 . S
H1621 C1631 0.930 . S
C1622 H1616 0.930 . S
C1622 C1623 1.355 . S
C1622 C1624 1.415 . S
C1623 C1622 1.355 . S
C1623 C1625 1.419 . S
C1624 C1622 1.415 . S
C1624 C1629 1.425 . S
C1624 C1631 1.409 . S
C1625 H1617 0.930 . S
C1625 C1623 1.419 . S
C1625 C1626 1.362 . S
C1626 H1618 0.930 . S
C1626 C1625 1.362 . S
C1626 C1629 1.409 . S
C1627 H1619 0.930 . S
C1627 C1628 1.355 . S
C1627 C1629 1.415 . S
C1628 C1627 1.355 . S
C1628 C1630 1.419 . S
C1629 C1624 1.425 . S
C1629 C1626 1.409 . S
C1629 C1627 1.415 . S
C1630 H1620 0.930 . S
C1630 C1628 1.419 . S
C1630 C1631 1.362 . S
C1631 H1621 0.930 . S
C1631 C1624 1.409 . S
C1631 C1630 1.362 . S
H1632 C1638 0.930 . S
H1633 C1641 0.930 . S
H1634 C1642 0.930 . S
H1635 C1643 0.930 . S
H1636 C1646 0.930 . S
H1637 C1647 0.930 . S
C1638 H1632 0.930 . S
C1638 C1639 1.355 . S
C1638 C1640 1.415 . S
C1639 C1638 1.355 . S
C1639 C1641 1.419 . S
C1640 C1638 1.415 . S
C1640 C1645 1.425 . S
C1640 C1647 1.409 . S
C1641 H1633 0.930 . S
C1641 C1639 1.419 . S
C1641 C1642 1.362 . S
C1642 H1634 0.930 . S
C1642 C1641 1.362 . S
C1642 C1645 1.409 . S
C1643 H1635 0.930 . S
C1643 C1644 1.355 . S
C1643 C1645 1.415 . S
C1644 C1643 1.355 . S
C1644 C1646 1.419 . S
C1645 C1640 1.425 . S
C1645 C1642 1.409 . S
C1645 C1643 1.415 . S
C1646 H1636 0.930 . S
C1646 C1644 1.419 . S
C1646 C1647 1.362 . S
C1647 H1637 0.930 . S
C1647 C1640 1.409 . S
C1647 C1646 1.362 . S
H1648 C1654 0.930 . S
H1649 C1657 0.930 . S
H1650 C1658 0.930 . S
H1651 C1659 0.930 . S
H1652 C1662 0.930 . S
H1653 C1663 0.930 . S
C1654 H1648 0.930 . S
C1654 C1655 1.355 . S
C1654 C1656 1.415 . S
C1655 C1654 1.355 . S
C1655 C1657 1.419 . S
C1656 C1654 1.415 . S
C1656 C1661 1.425 . S
C1656 C1663 1.409 . S
C1657 H1649 0.930 . S
C1657 C1655 1.419 . S
C1657 C1658 1.362 . S
C1658 H1650 0.930 . S
C1658 C1657 1.362 . S
C1658 C1661 1.409 . S
C1659 H1651 0.930 . S
C1659 C1660 1.355 . S
C1659 C1661 1.415 . S
C1660 C1659 1.355 . S
C1660 C1662 1.419 . S
C1661 C1656 1.425 . S
C1661 C1658 1.409 . S
C1661 C1659 1.415 . S
C1662 H1652 0.930 . S
C1662 C1660 1.419 . S
C1662 C1663 1.362 . S
C1663 H1653 0.930 . S
C1663 C1656 1.409 . S
C1663 C1662 1.362 . S
H1664 C1670 0.930 . S
H1665 C1673 0.930 . S
H1666 C1674 0.930 . S
H1667 C1675 0.930 . S
H1668 C1678 0.930 . S
H1669 C1679 0.930 . S
C1670 H1664 0.930 . S
C1670 C1671 1.355 . S
C1670 C1672 1.415 . S
C1671 C1670 1.355 . S
C1671 C1673 1.419 . S
C1672 C1670 1.415 . S
C1672 C1677 1.425 . S
C1672 C1679 1.409 . S
C1673 H1665 0.930 . S
C1673 C1671 1.419 . S
C1673 C1674 1.362 . S
C1674 H1666 0.930 . S
C1674 C1673 1.362 . S
C1674 C1677 1.409 . S
C1675 H1667 0.930 . S
C1675 C1676 1.355 . S
C1675 C1677 1.415 . S
C1676 C1675 1.355 . S
C1676 C1678 1.419 . S
C1677 C1672 1.425 . S
C1677 C1674 1.409 . S
C1677 C1675 1.415 . S
C1678 H1668 0.930 . S
C1678 C1676 1.419 . S
C1678 C1679 1.362 . S
C1679 H1669 0.930 . S
C1679 C1672 1.409 . S
C1679 C1678 1.362 . S
H1680 C1686 0.930 . S
H1681 C1689 0.930 . S
H1682 C1690 0.930 . S
H1683 C1691 0.930 . S
H1684 C1694 0.930 . S
H1685 C1695 0.930 . S
C1686 H1680 0.930 . S
C1686 C1687 1.355 . S
C1686 C1688 1.415 . S
C1687 C1686 1.355 . S
C1687 C1689 1.419 . S
C1688 C1686 1.415 . S
C1688 C1693 1.425 . S
C1688 C1695 1.409 . S
C1689 H1681 0.930 . S
C1689 C1687 1.419 . S
C1689 C1690 1.362 . S
C1690 H1682 0.930 . S
C1690 C1689 1.362 . S
C1690 C1693 1.409 . S
C1691 H1683 0.930 . S
C1691 C1692 1.355 . S
C1691 C1693 1.415 . S
C1692 C1691 1.355 . S
C1692 C1694 1.419 . S
C1693 C1688 1.425 . S
C1693 C1690 1.409 . S
C1693 C1691 1.415 . S
C1694 H1684 0.930 . S
C1694 C1692 1.419 . S
C1694 C1695 1.362 . S
C1695 H1685 0.930 . S
C1695 C1688 1.409 . S
C1695 C1694 1.362 . S
H1696 C1702 0.930 . S
H1697 C1705 0.930 . S
H1698 C1706 0.930 . S
H1699 C1707 0.930 . S
H1700 C1710 0.930 . S
H1701 C1711 0.930 . S
C1702 H1696 0.930 . S
C1702 C1703 1.355 . S
C1702 C1704 1.415 . S
C1703 C1702 1.355 . S
C1703 C1705 1.419 . S
C1704 C1702 1.415 . S
C1704 C1709 1.425 . S
C1704 C1711 1.409 . S
C1705 H1697 0.930 . S
C1705 C1703 1.419 . S
C1705 C1706 1.362 . S
C1706 H1698 0.930 . S
C1706 C1705 1.362 . S
C1706 C1709 1.409 . S
C1707 H1699 0.930 . S
C1707 C1708 1.355 . S
C1707 C1709 1.415 . S
C1708 C1707 1.355 . S
C1708 C1710 1.419 . S
C1709 C1704 1.425 . S
C1709 C1706 1.409 . S
C1709 C1707 1.415 . S
C1710 H1700 0.930 . S
C1710 C1708 1.419 . S
C1710 C1711 1.362 . S
C1711 H1701 0.930 . S
C1711 C1704 1.409 . S
C1711 C1710 1.362 . S
H1712 C1718 0.930 . S
H1713 C1721 0.930 . S
H1714 C1722 0.930 . S
H1715 C1723 0.930 . S
H1716 C1726 0.930 . S
H1717 C1727 0.930 . S
C1718 H1712 0.930 . S
C1718 C1719 1.355 . S
C1718 C1720 1.415 . S
C1719 C1718 1.355 . S
C1719 C1721 1.419 . S
C1720 C1718 1.415 . S
C1720 C1725 1.425 . S
C1720 C1727 1.409 . S
C1721 H1713 0.930 . S
C1721 C1719 1.419 . S
C1721 C1722 1.362 . S
C1722 H1714 0.930 . S
C1722 C1721 1.362 . S
C1722 C1725 1.409 . S
C1723 H1715 0.930 . S
C1723 C1724 1.355 . S
C1723 C1725 1.415 . S
C1724 C1723 1.355 . S
C1724 C1726 1.419 . S
C1725 C1720 1.425 . S
C1725 C1722 1.409 . S
C1725 C1723 1.415 . S
C1726 H1716 0.930 . S
C1726 C1724 1.419 . S
C1726 C1727 1.362 . S
C1727 H1717 0.930 . S
C1727 C1720 1.409 . S
C1727 C1726 1.362 . S
H1728 C1734 0.930 1_556 S
H1729 C1737 0.930 . S
H1730 C1738 0.930 . S
H1731 C1739 0.930 . S
H1732 C1742 0.930 . S
H1733 C1743 0.930 1_545 S
C1734 H1728 0.930 1_554 S
C1734 C1735 1.355 . S
C1734 C1736 1.415 . S
C1735 C1734 1.355 . S
C1735 C1737 1.419 . S
C1736 C1734 1.415 . S
C1736 C1741 1.425 . S
C1736 C1743 1.409 1_554 S
C1737 H1729 0.930 . S
C1737 C1735 1.419 . S
C1737 C1738 1.362 . S
C1738 H1730 0.930 . S
C1738 C1737 1.362 . S
C1738 C1741 1.409 . S
C1739 H1731 0.930 . S
C1739 C1740 1.355 1_565 S
C1739 C1741 1.415 . S
C1740 C1739 1.355 1_545 S
C1740 C1742 1.419 1_554 S
C1741 C1736 1.425 . S
C1741 C1738 1.409 . S
C1741 C1739 1.415 . S
C1742 H1732 0.930 . S
C1742 C1740 1.419 1_556 S
C1742 C1743 1.362 1_545 S
C1743 H1733 0.930 1_565 S
C1743 C1736 1.409 1_556 S
C1743 C1742 1.362 1_565 S
H1744 C1750 0.930 . S
H1745 C1753 0.930 . S
H1746 C1754 0.930 . S
H1747 C1755 0.930 . S
H1748 C1758 0.930 . S
H1749 C1759 0.930 . S
C1750 H1744 0.930 . S
C1750 C1751 1.355 . S
C1750 C1752 1.415 . S
C1751 C1750 1.355 . S
C1751 C1753 1.419 . S
C1752 C1750 1.415 . S
C1752 C1757 1.425 . S
C1752 C1759 1.409 . S
C1753 H1745 0.930 . S
C1753 C1751 1.419 . S
C1753 C1754 1.362 . S
C1754 H1746 0.930 . S
C1754 C1753 1.362 . S
C1754 C1757 1.409 . S
C1755 H1747 0.930 . S
C1755 C1756 1.355 . S
C1755 C1757 1.415 . S
C1756 C1755 1.355 . S
C1756 C1758 1.419 . S
C1757 C1752 1.425 . S
C1757 C1754 1.409 . S
C1757 C1755 1.415 . S
C1758 H1748 0.930 . S
C1758 C1756 1.419 . S
C1758 C1759 1.362 . S
C1759 H1749 0.930 . S
C1759 C1752 1.409 . S
C1759 C1758 1.362 . S
H1760 C1766 0.920 1_556 S
H1761 C1769 0.930 . S
H1762 C1770 0.930 . S
H1763 C1771 0.930 . S
H1764 C1774 0.930 . S
H1765 C1775 0.929 1_556 S
C1766 H1760 0.920 1_554 S
C1766 C1767 1.355 . S
C1766 C1768 1.415 . S
C1767 C1766 1.355 . S
C1767 C1769 1.419 . S
C1768 C1766 1.415 . S
C1768 C1773 1.425 . S
C1768 C1775 1.409 . S
C1769 H1761 0.930 . S
C1769 C1767 1.419 . S
C1769 C1770 1.362 . S
C1770 H1762 0.930 . S
C1770 C1769 1.362 . S
C1770 C1773 1.409 . S
C1771 H1763 0.930 . S
C1771 C1772 1.355 . S
C1771 C1773 1.415 . S
C1772 C1771 1.355 . S
C1772 C1774 1.419 . S
C1773 C1768 1.425 . S
C1773 C1770 1.409 . S
C1773 C1771 1.415 . S
C1774 H1764 0.930 . S
C1774 C1772 1.419 . S
C1774 C1775 1.362 . S
C1775 H1765 0.929 1_554 S
C1775 C1768 1.409 . S
C1775 C1774 1.362 . S
H1776 C1782 0.930 . S
H1777 C1785 0.930 . S
H1778 C1786 0.930 . S
H1779 C1787 0.930 . S
H1780 C1790 0.930 . S
H1781 C1791 0.930 . S
C1782 H1776 0.930 . S
C1782 C1783 1.355 . S
C1782 C1784 1.415 . S
C1783 C1782 1.355 . S
C1783 C1785 1.419 . S
C1784 C1782 1.415 . S
C1784 C1789 1.425 . S
C1784 C1791 1.409 . S
C1785 H1777 0.930 . S
C1785 C1783 1.419 . S
C1785 C1786 1.362 . S
C1786 H1778 0.930 . S
C1786 C1785 1.362 . S
C1786 C1789 1.409 . S
C1787 H1779 0.930 . S
C1787 C1788 1.355 . S
C1787 C1789 1.415 . S
C1788 C1787 1.355 . S
C1788 C1790 1.419 . S
C1789 C1784 1.425 . S
C1789 C1786 1.409 . S
C1789 C1787 1.415 . S
C1790 H1780 0.930 . S
C1790 C1788 1.419 . S
C1790 C1791 1.362 . S
C1791 H1781 0.930 . S
C1791 C1784 1.409 . S
C1791 C1790 1.362 . S
H1792 C1798 0.930 . S
H1793 C1801 0.930 . S
H1794 C1802 0.930 . S
H1795 C1803 0.930 . S
H1796 C1806 0.930 . S
H1797 C1807 0.930 . S
C1798 H1792 0.930 . S
C1798 C1799 1.355 . S
C1798 C1800 1.415 . S
C1799 C1798 1.355 . S
C1799 C1801 1.419 . S
C1800 C1798 1.415 . S
C1800 C1805 1.425 . S
C1800 C1807 1.409 . S
C1801 H1793 0.930 . S
C1801 C1799 1.419 . S
C1801 C1802 1.362 . S
C1802 H1794 0.930 . S
C1802 C1801 1.362 . S
C1802 C1805 1.409 . S
C1803 H1795 0.930 . S
C1803 C1804 1.355 . S
C1803 C1805 1.415 . S
C1804 C1803 1.355 . S
C1804 C1806 1.419 . S
C1805 C1800 1.425 . S
C1805 C1802 1.409 . S
C1805 C1803 1.415 . S
C1806 H1796 0.930 . S
C1806 C1804 1.419 . S
C1806 C1807 1.362 . S
C1807 H1797 0.930 . S
C1807 C1800 1.409 . S
C1807 C1806 1.362 . S
H1808 C1814 0.930 . S
H1809 C1817 0.930 . S
H1810 C1818 0.930 . S
H1811 C1819 0.930 . S
H1812 C1822 0.930 . S
H1813 C1823 0.930 . S
C1814 H1808 0.930 . S
C1814 C1815 1.355 . S
C1814 C1816 1.415 . S
C1815 C1814 1.355 . S
C1815 C1817 1.419 . S
C1816 C1814 1.415 . S
C1816 C1821 1.425 . S
C1816 C1823 1.409 . S
C1817 H1809 0.930 . S
C1817 C1815 1.419 . S
C1817 C1818 1.362 . S
C1818 H1810 0.930 . S
C1818 C1817 1.362 . S
C1818 C1821 1.409 . S
C1819 H1811 0.930 . S
C1819 C1820 1.355 . S
C1819 C1821 1.415 . S
C1820 C1819 1.355 . S
C1820 C1822 1.419 . S
C1821 C1816 1.425 . S
C1821 C1818 1.409 . S
C1821 C1819 1.415 . S
C1822 H1812 0.930 . S
C1822 C1820 1.419 . S
C1822 C1823 1.362 . S
C1823 H1813 0.930 . S
C1823 C1816 1.409 . S
C1823 C1822 1.362 . S
H1824 C1830 0.930 . S
H1825 C1833 0.930 . S
H1826 C1834 0.930 . S
H1827 C1835 0.930 . S
H1828 C1838 0.930 . S
H1829 C1839 0.930 . S
C1830 H1824 0.930 . S
C1830 C1831 1.355 . S
C1830 C1832 1.415 . S
C1831 C1830 1.355 . S
C1831 C1833 1.419 . S
C1832 C1830 1.415 . S
C1832 C1837 1.425 . S
C1832 C1839 1.409 . S
C1833 H1825 0.930 . S
C1833 C1831 1.419 . S
C1833 C1834 1.362 . S
C1834 H1826 0.930 . S
C1834 C1833 1.362 . S
C1834 C1837 1.409 . S
C1835 H1827 0.930 . S
C1835 C1836 1.355 . S
C1835 C1837 1.415 . S
C1836 C1835 1.355 . S
C1836 C1838 1.419 . S
C1837 C1832 1.425 . S
C1837 C1834 1.409 . S
C1837 C1835 1.415 . S
C1838 H1828 0.930 . S
C1838 C1836 1.419 . S
C1838 C1839 1.362 . S
C1839 H1829 0.930 . S
C1839 C1832 1.409 . S
C1839 C1838 1.362 . S
H1840 C1846 0.930 . S
H1841 C1849 0.930 . S
H1842 C1850 0.930 . S
H1843 C1851 0.930 1_655 S
H1844 C1854 0.930 . S
H1845 C1855 0.930 . S
C1846 H1840 0.930 . S
C1846 C1847 1.355 . S
C1846 C1848 1.415 . S
C1847 C1846 1.355 . S
C1847 C1849 1.419 1_455 S
C1848 C1846 1.415 . S
C1848 C1853 1.425 . S
C1848 C1855 1.409 . S
C1849 H1841 0.930 . S
C1849 C1847 1.419 1_655 S
C1849 C1850 1.362 . S
C1850 H1842 0.930 . S
C1850 C1849 1.362 . S
C1850 C1853 1.409 1_655 S
C1851 H1843 0.930 1_455 S
C1851 C1852 1.355 . S
C1851 C1853 1.415 . S
C1852 C1851 1.355 . S
C1852 C1854 1.419 . S
C1853 C1848 1.425 . S
C1853 C1850 1.409 1_455 S
C1853 C1851 1.415 . S
C1854 H1844 0.930 . S
C1854 C1852 1.419 . S
C1854 C1855 1.362 . S
C1855 H1845 0.930 . S
C1855 C1848 1.409 . S
C1855 C1854 1.362 . S
H1856 C1862 0.930 . S
H1857 C1865 0.930 . S
H1858 C1866 0.930 . S
H1859 C1867 0.930 . S
H1860 C1870 0.930 . S
H1861 C1871 0.930 . S
C1862 H1856 0.930 . S
C1862 C1863 1.355 . S
C1862 C1864 1.415 . S
C1863 C1862 1.355 . S
C1863 C1865 1.419 . S
C1864 C1862 1.415 . S
C1864 C1869 1.425 . S
C1864 C1871 1.409 . S
C1865 H1857 0.930 . S
C1865 C1863 1.419 . S
C1865 C1866 1.362 . S
C1866 H1858 0.930 . S
C1866 C1865 1.362 . S
C1866 C1869 1.409 . S
C1867 H1859 0.930 . S
C1867 C1868 1.355 . S
C1867 C1869 1.415 . S
C1868 C1867 1.355 . S
C1868 C1870 1.419 . S
C1869 C1864 1.425 . S
C1869 C1866 1.409 . S
C1869 C1867 1.415 . S
C1870 H1860 0.930 . S
C1870 C1868 1.419 . S
C1870 C1871 1.362 . S
C1871 H1861 0.930 . S
C1871 C1864 1.409 . S
C1871 C1870 1.362 . S
H1872 C1878 0.930 . S
H1873 C1881 0.930 . S
H1874 C1882 0.930 . S
H1875 C1883 0.930 . S
H1876 C1886 0.930 . S
H1877 C1887 0.930 . S
C1878 H1872 0.930 . S
C1878 C1879 1.355 . S
C1878 C1880 1.415 . S
C1879 C1878 1.355 . S
C1879 C1881 1.419 . S
C1880 C1878 1.415 . S
C1880 C1885 1.425 . S
C1880 C1887 1.409 . S
C1881 H1873 0.930 . S
C1881 C1879 1.419 . S
C1881 C1882 1.362 . S
C1882 H1874 0.930 . S
C1882 C1881 1.362 . S
C1882 C1885 1.409 . S
C1883 H1875 0.930 . S
C1883 C1884 1.355 . S
C1883 C1885 1.415 . S
C1884 C1883 1.355 . S
C1884 C1886 1.419 . S
C1885 C1880 1.425 . S
C1885 C1882 1.409 . S
C1885 C1883 1.415 . S
C1886 H1876 0.930 . S
C1886 C1884 1.419 . S
C1886 C1887 1.362 . S
C1887 H1877 0.930 . S
C1887 C1880 1.409 . S
C1887 C1886 1.362 . S
H1888 C1894 0.930 . S
H1889 C1897 0.930 . S
H1890 C1898 0.930 . S
H1891 C1899 0.930 . S
H1892 C1902 0.930 . S
H1893 C1903 0.930 . S
C1894 H1888 0.930 . S
C1894 C1895 1.355 . S
C1894 C1896 1.415 . S
C1895 C1894 1.355 . S
C1895 C1897 1.419 . S
C1896 C1894 1.415 . S
C1896 C1901 1.425 . S
C1896 C1903 1.409 . S
C1897 H1889 0.930 . S
C1897 C1895 1.419 . S
C1897 C1898 1.362 . S
C1898 H1890 0.930 . S
C1898 C1897 1.362 . S
C1898 C1901 1.409 . S
C1899 H1891 0.930 . S
C1899 C1900 1.355 . S
C1899 C1901 1.415 . S
C1900 C1899 1.355 . S
C1900 C1902 1.419 . S
C1901 C1896 1.425 . S
C1901 C1898 1.409 . S
C1901 C1899 1.415 . S
C1902 H1892 0.930 . S
C1902 C1900 1.419 . S
C1902 C1903 1.362 . S
C1903 H1893 0.930 . S
C1903 C1896 1.409 . S
C1903 C1902 1.362 . S
H1904 C1910 0.930 . S
H1905 C1913 0.930 . S
H1906 C1914 0.930 . S
H1907 C1915 0.930 1_655 S
H1908 C1918 0.930 . S
H1909 C1919 0.930 . S
C1910 H1904 0.930 . S
C1910 C1911 1.355 . S
C1910 C1912 1.415 . S
C1911 C1910 1.355 . S
C1911 C1913 1.419 1_455 S
C1912 C1910 1.415 . S
C1912 C1917 1.425 . S
C1912 C1919 1.409 . S
C1913 H1905 0.930 . S
C1913 C1911 1.419 1_655 S
C1913 C1914 1.362 . S
C1914 H1906 0.930 . S
C1914 C1913 1.362 . S
C1914 C1917 1.409 1_655 S
C1915 H1907 0.930 1_455 S
C1915 C1916 1.355 . S
C1915 C1917 1.415 . S
C1916 C1915 1.355 . S
C1916 C1918 1.419 . S
C1917 C1912 1.425 . S
C1917 C1914 1.409 1_455 S
C1917 C1915 1.415 . S
C1918 H1908 0.930 . S
C1918 C1916 1.419 . S
C1918 C1919 1.362 . S
C1919 H1909 0.930 . S
C1919 C1912 1.409 . S
C1919 C1918 1.362 . S
H1920 C1926 0.930 . S
H1921 C1929 0.930 . S
H1922 C1930 0.930 . S
H1923 C1931 0.930 . S
H1924 C1934 0.930 . S
H1925 C1935 0.930 . S
C1926 H1920 0.930 . S
C1926 C1927 1.355 . S
C1926 C1928 1.415 . S
C1927 C1926 1.355 . S
C1927 C1929 1.419 . S
C1928 C1926 1.415 . S
C1928 C1933 1.425 . S
C1928 C1935 1.409 . S
C1929 H1921 0.930 . S
C1929 C1927 1.419 . S
C1929 C1930 1.362 . S
C1930 H1922 0.930 . S
C1930 C1929 1.362 . S
C1930 C1933 1.409 . S
C1931 H1923 0.930 . S
C1931 C1932 1.355 . S
C1931 C1933 1.415 . S
C1932 C1931 1.355 . S
C1932 C1934 1.419 . S
C1933 C1928 1.425 . S
C1933 C1930 1.409 . S
C1933 C1931 1.415 . S
C1934 H1924 0.930 . S
C1934 C1932 1.419 . S
C1934 C1935 1.362 . S
C1935 H1925 0.930 . S
C1935 C1928 1.409 . S
C1935 C1934 1.362 . S
H1936 C1942 0.930 . S
H1937 C1945 0.930 . S
H1938 C1946 0.930 . S
H1939 C1947 0.930 . S
H1940 C1950 0.930 . S
H1941 C1951 0.930 . S
C1942 H1936 0.930 . S
C1942 C1943 1.355 . S
C1942 C1944 1.415 . S
C1943 C1942 1.355 . S
C1943 C1945 1.419 . S
C1944 C1942 1.415 . S
C1944 C1949 1.425 . S
C1944 C1951 1.409 . S
C1945 H1937 0.930 . S
C1945 C1943 1.419 . S
C1945 C1946 1.362 . S
C1946 H1938 0.930 . S
C1946 C1945 1.362 . S
C1946 C1949 1.409 . S
C1947 H1939 0.930 . S
C1947 C1948 1.355 . S
C1947 C1949 1.415 . S
C1948 C1947 1.355 . S
C1948 C1950 1.419 . S
C1949 C1944 1.425 . S
C1949 C1946 1.409 . S
C1949 C1947 1.415 . S
C1950 H1940 0.930 . S
C1950 C1948 1.419 . S
C1950 C1951 1.362 . S
C1951 H1941 0.930 . S
C1951 C1944 1.409 . S
C1951 C1950 1.362 . S
H1952 C1958 0.930 . S
H1953 C1961 0.930 . S
H1954 C1962 0.930 . S
H1955 C1963 0.930 . S
H1956 C1966 0.930 . S
H1957 C1967 0.930 . S
C1958 H1952 0.930 . S
C1958 C1959 1.355 . S
C1958 C1960 1.415 . S
C1959 C1958 1.355 . S
C1959 C1961 1.419 . S
C1960 C1958 1.415 . S
C1960 C1965 1.425 . S
C1960 C1967 1.409 . S
C1961 H1953 0.930 . S
C1961 C1959 1.419 . S
C1961 C1962 1.362 . S
C1962 H1954 0.930 . S
C1962 C1961 1.362 . S
C1962 C1965 1.409 . S
C1963 H1955 0.930 . S
C1963 C1964 1.355 . S
C1963 C1965 1.415 . S
C1964 C1963 1.355 . S
C1964 C1966 1.419 . S
C1965 C1960 1.425 . S
C1965 C1962 1.409 . S
C1965 C1963 1.415 . S
C1966 H1956 0.930 . S
C1966 C1964 1.419 . S
C1966 C1967 1.362 . S
C1967 H1957 0.930 . S
C1967 C1960 1.409 . S
C1967 C1966 1.362 . S
H1968 C1974 0.930 . S
H1969 C1977 0.930 . S
H1970 C1978 0.930 . S
H1971 C1979 0.930 1_455 S
H1972 C1982 0.930 . S
H1973 C1983 0.930 . S
C1974 H1968 0.930 . S
C1974 C1975 1.355 . S
C1974 C1976 1.415 . S
C1975 C1974 1.355 . S
C1975 C1977 1.419 . S
C1976 C1974 1.415 . S
C1976 C1981 1.425 . S
C1976 C1983 1.409 . S
C1977 H1969 0.930 . S
C1977 C1975 1.419 . S
C1977 C1978 1.362 . S
C1978 H1970 0.930 . S
C1978 C1977 1.362 . S
C1978 C1981 1.409 . S
C1979 H1971 0.930 1_655 S
C1979 C1980 1.355 . S
C1979 C1981 1.415 . S
C1980 C1979 1.355 . S
C1980 C1982 1.419 . S
C1981 C1976 1.425 . S
C1981 C1978 1.409 . S
C1981 C1979 1.415 . S
C1982 H1972 0.930 . S
C1982 C1980 1.419 . S
C1982 C1983 1.362 . S
C1983 H1973 0.930 . S
C1983 C1976 1.409 . S
C1983 C1982 1.362 . S
H1984 C1990 0.930 . S
H1985 C1993 0.930 . S
H1986 C1994 0.930 . S
H1987 C1995 0.930 . S
H1988 C1998 0.930 . S
H1989 C1999 0.930 . S
C1990 H1984 0.930 . S
C1990 C1991 1.355 . S
C1990 C1992 1.415 . S
C1991 C1990 1.355 . S
C1991 C1993 1.419 . S
C1992 C1990 1.415 . S
C1992 C1997 1.425 . S
C1992 C1999 1.409 . S
C1993 H1985 0.930 . S
C1993 C1991 1.419 . S
C1993 C1994 1.362 . S
C1994 H1986 0.930 . S
C1994 C1993 1.362 . S
C1994 C1997 1.409 . S
C1995 H1987 0.930 . S
C1995 C1996 1.355 . S
C1995 C1997 1.415 . S
C1996 C1995 1.355 . S
C1996 C1998 1.419 . S
C1997 C1992 1.425 . S
C1997 C1994 1.409 . S
C1997 C1995 1.415 . S
C1998 H1988 0.930 . S
C1998 C1996 1.419 . S
C1998 C1999 1.362 . S
C1999 H1989 0.930 . S
C1999 C1992 1.409 . S
C1999 C1998 1.362 . S
H2000 C2006 0.930 . S
H2001 C2009 0.930 . S
H2002 C2010 0.930 . S
H2003 C2011 0.930 . S
H2004 C2014 0.930 . S
H2005 C2015 0.930 . S
C2006 H2000 0.930 . S
C2006 C2007 1.355 . S
C2006 C2008 1.415 . S
C2007 C2006 1.355 . S
C2007 C2009 1.419 . S
C2008 C2006 1.415 . S
C2008 C2013 1.425 . S
C2008 C2015 1.409 . S
C2009 H2001 0.930 . S
C2009 C2007 1.419 . S
C2009 C2010 1.362 . S
C2010 H2002 0.930 . S
C2010 C2009 1.362 . S
C2010 C2013 1.409 . S
C2011 H2003 0.930 . S
C2011 C2012 1.355 . S
C2011 C2013 1.415 . S
C2012 C2011 1.355 . S
C2012 C2014 1.419 . S
C2013 C2008 1.425 . S
C2013 C2010 1.409 . S
C2013 C2011 1.415 . S
C2014 H2004 0.930 . S
C2014 C2012 1.419 . S
C2014 C2015 1.362 . S
C2015 H2005 0.930 . S
C2015 C2008 1.409 . S
C2015 C2014 1.362 . S
H2016 C2022 0.930 . S
H2017 C2025 0.930 . S
H2018 C2026 0.930 . S
H2019 C2027 0.930 . S
H2020 C2030 0.930 . S
H2021 C2031 0.930 . S
C2022 H2016 0.930 . S
C2022 C2023 1.355 . S
C2022 C2024 1.415 . S
C2023 C2022 1.355 . S
C2023 C2025 1.419 . S
C2024 C2022 1.415 . S
C2024 C2029 1.425 . S
C2024 C2031 1.409 . S
C2025 H2017 0.930 . S
C2025 C2023 1.419 . S
C2025 C2026 1.362 . S
C2026 H2018 0.930 . S
C2026 C2025 1.362 . S
C2026 C2029 1.409 . S
C2027 H2019 0.930 . S
C2027 C2028 1.355 . S
C2027 C2029 1.415 . S
C2028 C2027 1.355 . S
C2028 C2030 1.419 . S
C2029 C2024 1.425 . S
C2029 C2026 1.409 . S
C2029 C2027 1.415 . S
C2030 H2020 0.930 . S
C2030 C2028 1.419 . S
C2030 C2031 1.362 . S
C2031 H2021 0.930 . S
C2031 C2024 1.409 . S
C2031 C2030 1.362 . S
H2032 C2038 0.930 . S
H2033 C2041 0.930 . S
H2034 C2042 0.930 . S
H2035 C2043 0.930 . S
H2036 C2046 0.930 . S
H2037 C2047 0.930 . S
C2038 H2032 0.930 . S
C2038 C2039 1.355 . S
C2038 C2040 1.415 . S
C2039 C2038 1.355 . S
C2039 C2041 1.419 . S
C2040 C2038 1.415 . S
C2040 C2045 1.425 . S
C2040 C2047 1.409 . S
C2041 H2033 0.930 . S
C2041 C2039 1.419 . S
C2041 C2042 1.362 . S
C2042 H2034 0.930 . S
C2042 C2041 1.362 . S
C2042 C2045 1.409 . S
C2043 H2035 0.930 . S
C2043 C2044 1.355 . S
C2043 C2045 1.415 . S
C2044 C2043 1.355 . S
C2044 C2046 1.419 . S
C2045 C2040 1.425 . S
C2045 C2042 1.409 . S
C2045 C2043 1.415 . S
C2046 H2036 0.930 . S
C2046 C2044 1.419 . S
C2046 C2047 1.362 . S
C2047 H2037 0.930 . S
C2047 C2040 1.409 . S
C2047 C2046 1.362 . S
H2048 C2054 0.930 . S
H2049 C2057 0.930 . S
H2050 C2058 0.930 . S
H2051 C2059 0.930 . S
H2052 C2062 0.930 . S
H2053 C2063 0.930 . S
C2054 H2048 0.930 . S
C2054 C2055 1.355 . S
C2054 C2056 1.415 . S
C2055 C2054 1.355 . S
C2055 C2057 1.419 . S
C2056 C2054 1.415 . S
C2056 C2061 1.425 . S
C2056 C2063 1.409 . S
C2057 H2049 0.930 . S
C2057 C2055 1.419 . S
C2057 C2058 1.362 . S
C2058 H2050 0.930 . S
C2058 C2057 1.362 . S
C2058 C2061 1.409 . S
C2059 H2051 0.930 . S
C2059 C2060 1.355 . S
C2059 C2061 1.415 . S
C2060 C2059 1.355 . S
C2060 C2062 1.419 . S
C2061 C2056 1.425 . S
C2061 C2058 1.409 . S
C2061 C2059 1.415 . S
C2062 H2052 0.930 . S
C2062 C2060 1.419 . S
C2062 C2063 1.362 . S
C2063 H2053 0.930 . S
C2063 C2056 1.409 . S
C2063 C2062 1.362 . S
H2064 C2070 0.930 . S
H2065 C2073 0.930 . S
H2066 C2074 0.930 . S
H2067 C2075 0.930 . S
H2068 C2078 0.930 . S
H2069 C2079 0.930 . S
C2070 H2064 0.930 . S
C2070 C2071 1.355 . S
C2070 C2072 1.415 . S
C2071 C2070 1.355 . S
C2071 C2073 1.419 . S
C2072 C2070 1.415 . S
C2072 C2077 1.425 . S
C2072 C2079 1.409 . S
C2073 H2065 0.930 . S
C2073 C2071 1.419 . S
C2073 C2074 1.362 . S
C2074 H2066 0.930 . S
C2074 C2073 1.362 . S
C2074 C2077 1.409 . S
C2075 H2067 0.930 . S
C2075 C2076 1.355 . S
C2075 C2077 1.415 . S
C2076 C2075 1.355 . S
C2076 C2078 1.419 . S
C2077 C2072 1.425 . S
C2077 C2074 1.409 . S
C2077 C2075 1.415 . S
C2078 H2068 0.930 . S
C2078 C2076 1.419 . S
C2078 C2079 1.362 . S
C2079 H2069 0.930 . S
C2079 C2072 1.409 . S
C2079 C2078 1.362 . S
H2080 C2086 0.930 . S
H2081 C2089 0.930 . S
H2082 C2090 0.930 . S
H2083 C2091 0.930 . S
H2084 C2094 0.930 . S
H2085 C2095 0.930 1_545 S
C2086 H2080 0.930 . S
C2086 C2087 1.355 . S
C2086 C2088 1.415 . S
C2087 C2086 1.355 . S
C2087 C2089 1.419 . S
C2088 C2086 1.415 . S
C2088 C2093 1.425 . S
C2088 C2095 1.409 . S
C2089 H2081 0.930 . S
C2089 C2087 1.419 . S
C2089 C2090 1.362 . S
C2090 H2082 0.930 . S
C2090 C2089 1.362 . S
C2090 C2093 1.409 . S
C2091 H2083 0.930 . S
C2091 C2092 1.355 . S
C2091 C2093 1.415 . S
C2092 C2091 1.355 . S
C2092 C2094 1.419 1_565 S
C2093 C2088 1.425 . S
C2093 C2090 1.409 . S
C2093 C2091 1.415 . S
C2094 H2084 0.930 . S
C2094 C2092 1.419 1_545 S
C2094 C2095 1.362 1_545 S
C2095 H2085 0.930 1_565 S
C2095 C2088 1.409 . S
C2095 C2094 1.362 1_565 S
H2096 C2102 0.930 . S
H2097 C2105 0.930 . S
H2098 C2106 0.930 . S
H2099 C2107 0.930 . S
H2100 C2110 0.930 . S
H2101 C2111 0.930 . S
C2102 H2096 0.930 . S
C2102 C2103 1.355 . S
C2102 C2104 1.415 . S
C2103 C2102 1.355 . S
C2103 C2105 1.419 . S
C2104 C2102 1.415 . S
C2104 C2109 1.425 . S
C2104 C2111 1.409 . S
C2105 H2097 0.930 . S
C2105 C2103 1.419 . S
C2105 C2106 1.362 . S
C2106 H2098 0.930 . S
C2106 C2105 1.362 . S
C2106 C2109 1.409 . S
C2107 H2099 0.930 . S
C2107 C2108 1.355 . S
C2107 C2109 1.415 . S
C2108 C2107 1.355 . S
C2108 C2110 1.419 . S
C2109 C2104 1.425 . S
C2109 C2106 1.409 . S
C2109 C2107 1.415 . S
C2110 H2100 0.930 . S
C2110 C2108 1.419 . S
C2110 C2111 1.362 . S
C2111 H2101 0.930 . S
C2111 C2104 1.409 . S
C2111 C2110 1.362 . S
H2112 C2118 0.930 . S
H2113 C2121 0.930 . S
H2114 C2122 0.930 . S
H2115 C2123 0.930 . S
H2116 C2126 0.930 . S
H2117 C2127 0.930 . S
C2118 H2112 0.930 . S
C2118 C2119 1.355 . S
C2118 C2120 1.415 . S
C2119 C2118 1.355 . S
C2119 C2121 1.419 1_556 S
C2120 C2118 1.415 . S
C2120 C2125 1.425 1_556 S
C2120 C2127 1.409 . S
C2121 H2113 0.930 . S
C2121 C2119 1.419 1_554 S
C2121 C2122 1.362 . S
C2122 H2114 0.930 . S
C2122 C2121 1.362 . S
C2122 C2125 1.409 . S
C2123 H2115 0.930 . S
C2123 C2124 1.366 . S
C2123 C2125 1.415 . S
C2124 C2123 1.366 . S
C2124 C2126 1.400 1_554 S
C2125 C2120 1.425 1_554 S
C2125 C2122 1.409 . S
C2125 C2123 1.415 . S
C2126 H2116 0.930 . S
C2126 C2124 1.400 1_556 S
C2126 C2127 1.362 . S
C2127 H2117 0.930 . S
C2127 C2120 1.409 . S
C2127 C2126 1.362 . S
H2128 C2134 0.930 . S
H2129 C2137 0.930 . S
H2130 C2138 0.930 . S
H2131 C2139 0.930 . S
H2132 C2142 0.930 . S
H2133 C2143 0.930 . S
C2134 H2128 0.930 . S
C2134 C2135 1.355 . S
C2134 C2136 1.415 . S
C2135 C2134 1.355 . S
C2135 C2137 1.419 . S
C2136 C2134 1.415 . S
C2136 C2141 1.425 . S
C2136 C2143 1.409 . S
C2137 H2129 0.930 . S
C2137 C2135 1.419 . S
C2137 C2138 1.362 . S
C2138 H2130 0.930 . S
C2138 C2137 1.362 . S
C2138 C2141 1.409 . S
C2139 H2131 0.930 . S
C2139 C2140 1.355 . S
C2139 C2141 1.415 . S
C2140 C2139 1.355 . S
C2140 C2142 1.419 . S
C2141 C2136 1.425 . S
C2141 C2138 1.409 . S
C2141 C2139 1.415 . S
C2142 H2132 0.930 . S
C2142 C2140 1.419 . S
C2142 C2143 1.362 . S
C2143 H2133 0.930 . S
C2143 C2136 1.409 . S
C2143 C2142 1.362 . S
H2144 C2150 0.930 . S
H2145 C2153 0.930 . S
H2146 C2154 0.930 . S
H2147 C2155 0.930 1_554 S
H2148 C2158 0.930 . S
H2149 C2159 0.930 . S
C2150 H2144 0.930 . S
C2150 C2151 1.355 1_556 S
C2150 C2152 1.415 . S
C2151 C2150 1.355 1_554 S
C2151 C2153 1.419 . S
C2152 C2150 1.415 . S
C2152 C2157 1.425 1_556 S
C2152 C2159 1.409 . S
C2153 H2145 0.930 . S
C2153 C2151 1.419 . S
C2153 C2154 1.362 . S
C2154 H2146 0.930 . S
C2154 C2153 1.362 . S
C2154 C2157 1.409 . S
C2155 H2147 0.930 1_556 S
C2155 C2156 1.355 . S
C2155 C2157 1.415 1_556 S
C2156 C2155 1.355 . S
C2156 C2158 1.419 . S
C2157 C2152 1.425 1_554 S
C2157 C2154 1.409 . S
C2157 C2155 1.415 1_554 S
C2158 H2148 0.930 . S
C2158 C2156 1.419 . S
C2158 C2159 1.362 . S
C2159 H2149 0.930 . S
C2159 C2152 1.409 . S
C2159 C2158 1.362 . S
H2160 C2166 0.930 . S
H2161 C2169 0.930 . S
H2162 C2170 0.930 . S
H2163 C2171 0.930 . S
H2164 C2174 0.930 . S
H2165 C2175 0.930 . S
C2166 H2160 0.930 . S
C2166 C2167 1.355 . S
C2166 C2168 1.415 . S
C2167 C2166 1.355 . S
C2167 C2169 1.419 . S
C2168 C2166 1.415 . S
C2168 C2173 1.425 . S
C2168 C2175 1.409 . S
C2169 H2161 0.930 . S
C2169 C2167 1.419 . S
C2169 C2170 1.362 . S
C2170 H2162 0.930 . S
C2170 C2169 1.362 . S
C2170 C2173 1.409 . S
C2171 H2163 0.930 . S
C2171 C2172 1.355 . S
C2171 C2173 1.415 . S
C2172 C2171 1.355 . S
C2172 C2174 1.419 . S
C2173 C2168 1.425 . S
C2173 C2170 1.409 . S
C2173 C2171 1.415 . S
C2174 H2164 0.930 . S
C2174 C2172 1.419 . S
C2174 C2175 1.362 . S
C2175 H2165 0.930 . S
C2175 C2168 1.409 . S
C2175 C2174 1.362 . S
H2176 C2182 0.930 . S
H2177 C2185 0.930 . S
H2178 C2186 0.930 . S
H2179 C2187 0.930 . S
H2180 C2190 0.930 . S
H2181 C2191 0.930 . S
C2182 H2176 0.930 . S
C2182 C2183 1.355 . S
C2182 C2184 1.415 . S
C2183 C2182 1.355 . S
C2183 C2185 1.419 . S
C2184 C2182 1.415 . S
C2184 C2189 1.425 . S
C2184 C2191 1.409 . S
C2185 H2177 0.930 . S
C2185 C2183 1.419 . S
C2185 C2186 1.362 . S
C2186 H2178 0.930 . S
C2186 C2185 1.362 . S
C2186 C2189 1.409 . S
C2187 H2179 0.930 . S
C2187 C2188 1.355 . S
C2187 C2189 1.415 . S
C2188 C2187 1.355 . S
C2188 C2190 1.419 . S
C2189 C2184 1.425 . S
C2189 C2186 1.409 . S
C2189 C2187 1.415 . S
C2190 H2180 0.930 . S
C2190 C2188 1.419 . S
C2190 C2191 1.362 . S
C2191 H2181 0.930 . S
C2191 C2184 1.409 . S
C2191 C2190 1.362 . S
C663 C105 1.599 . S
C668 C354 1.557 . S
C679 C65 1.671 . S
C684 C365 1.663 . S
C695 C73 1.138 . S
C700 C394 1.109 . S
C716 C397 1.457 . S
C711 C92 1.440 . S
C727 C17 1.687 . S
C732 C435 1.590 . S
C748 C438 1.119 . S
C743 C37 1.134 . S
C764 C465 1.522 . S
C759 C49 1.441 . S
C775 C8 1.686 . S
C780 C494 1.627 . S
C796 C345 1.598 1_655 S
C791 C231 1.577 . S
C807 C241 1.010 . S
C812 C357 1.005 . S
C828 C385 1.569 . S
C823 C273 1.550 . S
C844 C414 1.152 . S
C839 C171 1.214 . S
C855 C227 1.100 . S
C860 C418 1.078 . S
C876 C444 1.617 . S
C871 C245 1.583 . S
C892 C457 0.803 . S
C887 C269 0.841 . S
C908 C485 1.642 . S
C903 C175 1.581 . S
C924 C337 1.542 1_565 S
C919 C162 1.557 . S
C935 C289 1.745 1_556 S
C940 C504 1.728 1_554 S
C956 C535 1.584 . S
C951 C330 1.620 . S
C972 C554 1.042 . S
C967 C317 0.995 . S
C983 C120 1.360 . S
C988 C477 1.383 . S
C999 C134 1.547 . S
C1004 C377 1.514 . S
C1015 C331 1.569 . S
C1020 C565 1.571 . S
C1036 C594 1.012 . S
C1031 C303 0.990 . S
C1052 C355 1.576 . S
C1047 C59 1.654 . S
C1068 C584 1.680 . S
C1063 C107 1.684 . S
C1079 C91 1.101 . S
C1084 C395 1.132 . S
C1095 C78 1.457 . S
C1100 C558 1.466 . S
C1116 C434 1.669 . S
C1111 C7 1.690 . S
C1127 C51 1.099 . S
C1132 C517 1.131 . S
C1148 C464 1.555 . S
C1143 C31 1.565 . S
C1164 C615 1.593 . S
C1159 C22 1.670 . S
C1180 C344 1.623 . S
C1175 C143 1.619 . S
C1196 C578 0.982 . S
C1191 C315 1.010 . S
C1207 C115 1.599 . S
C1212 C384 1.597 . S
C1223 C287 1.223 . S
C1228 C575 1.258 . S
C1239 C147 1.014 . S
C1244 C417 1.108 . S
C1260 C525 1.636 . S
C1255 C311 1.645 . S
C1271 C119 0.848 . S
C1276 C458 0.830 . S
C1287 C283 1.663 . S
C1292 C604 1.661 . S
C1303 C190 1.533 . S
C1308 C338 1.527 . S
C1319 C177 1.753 . S
C1324 C505 1.732 . S
C1335 C260 1.625 . S
C1340 C454 1.591 . S
C1351 C247 1.053 . S
C1356 C555 1.060 . S
C1372 C598 1.373 . S
C1367 C274 1.397 . S
C1383 C218 1.558 . S
C1388 C378 1.549 . S
C1404 C404 1.597 . S
C1399 C261 1.589 . S
C1420 C375 1.024 . S
C1415 C205 1.024 . S
C1431 C77 1.641 . S
C1436 C634 1.620 . S
C1452 C585 1.670 . S
C1447 C93 1.663 . S
C1463 C101 1.139 . S
C1468 C654 1.064 . S
C1479 C64 1.466 . S
C1484 C557 1.446 . S
C1495 C45 1.684 . S
C1500 C515 1.584 . S
C1516 C518 1.137 . S
C1511 C9 1.098 . S
C1532 C545 1.536 . S
C1527 C21 1.437 . S
C1548 C614 1.636 . S
C1543 C36 1.690 . S
C1564 C625 1.602 . S
C1559 C259 1.542 . S
C1575 C185 0.981 . S
C1580 C577 0.939 . S
C1596 C645 1.577 . S
C1591 C203 1.507 . S
C1612 C574 1.212 . S
C1607 C213 1.198 . S
C1628 C498 1.121 . S
C1623 C255 1.103 . S
C1639 C189 1.552 . S
C1644 C524 1.581 . S
C1660 C537 0.887 . S
C1655 C199 0.867 . S
C1671 C217 1.629 . S
C1676 C605 1.613 . S
C1692 C617 1.546 . S
C1687 C316 1.543 . S
C1703 C135 1.749 . S
C1708 C424 1.704 . S
C1724 C455 1.594 . S
C1719 C148 1.660 . S
C1740 C474 1.038 . S
C1735 C163 1.013 . S
C1756 C597 1.364 . S
C1751 C302 1.400 . S
C1767 C288 1.542 . S
C1772 C637 1.510 . S
C1788 C405 1.571 . S
C1783 C149 1.566 . S
C1804 C374 1.022 . S
C1799 C121 1.001 . S
C1815 C87 1.659 . S
C1820 C635 1.578 . S
C1836 C364 1.680 . S
C1831 C79 1.687 . S
C1847 C63 1.148 . S
C1852 C655 1.100 . S
C1863 C106 1.485 . S
C1868 C398 1.457 . S
C1879 C35 1.653 . S
C1884 C514 1.620 . S
C1900 C437 1.113 . S
C1895 C23 1.146 . S
C1911 C3 1.552 . S
C1916 C544 1.555 . S
C1927 C50 1.703 . S
C1932 C495 1.646 . S
C1948 C624 1.625 . S
C1943 C325 1.616 . S
C1959 C161 0.967 . S
C1964 C358 0.957 . S
C1980 C644 1.601 1_655 S
C1975 C297 1.598 . S
C1991 C133 1.244 . S
C1996 C415 1.215 . S
C2007 C329 1.128 . S
C2012 C497 1.132 . S
C2028 C445 1.607 . S
C2023 C157 1.645 . S
C2039 C301 0.853 . S
C2044 C538 0.911 . S
C2060 C484 1.652 . S
C2055 C129 1.658 . S
C2076 C618 1.529 . S
C2071 C246 1.560 . S
C2092 C425 1.732 1_565 S
C2087 C219 1.753 . S
C2103 C232 1.659 . S
C2108 C534 1.616 . S
C2124 C475 1.036 . S
C2119 C191 1.061 . S
C2135 C204 1.350 . S
C2140 C478 1.375 . S
C2151 C176 1.511 . S
C2156 C638 1.541 . S
C2172 C564 1.597 . S
C2167 C233 1.600 . S
C2188 C595 0.968 . S
C2183 C275 1.012 . S
