# Generated by pormake.
# Topology eea, (3,6)-cn, num edge types: 1
# Building blocks:
#     Node 0, Type 0, BuildingBlock: OLANEW_clean_sbu_2, # of connection points: 3
#     Node 1, Type 0, BuildingBlock: OLANEW_clean_sbu_2, # of connection points: 3
#     Node 2, Type 0, BuildingBlock: OLANEW_clean_sbu_2, # of connection points: 3
#     Node 3, Type 0, BuildingBlock: OLANEW_clean_sbu_2, # of connection points: 3
#     Node 4, Type 0, BuildingBlock: OLANEW_clean_sbu_2, # of connection points: 3
#     Node 5, Type 0, BuildingBlock: OLANEW_clean_sbu_2, # of connection points: 3
#     Node 6, Type 0, BuildingBlock: OLANEW_clean_sbu_2, # of connection points: 3
#     Node 7, Type 0, BuildingBlock: OLANEW_clean_sbu_2, # of connection points: 3
#     Node 8, Type 0, BuildingBlock: OLANEW_clean_sbu_2, # of connection points: 3
#     Node 9, Type 0, BuildingBlock: OLANEW_clean_sbu_2, # of connection points: 3
#     Node 10, Type 0, BuildingBlock: OLANEW_clean_sbu_2, # of connection points: 3
#     Node 11, Type 0, BuildingBlock: OLANEW_clean_sbu_2, # of connection points: 3
#     Node 12, Type 0, BuildingBlock: OLANEW_clean_sbu_2, # of connection points: 3
#     Node 13, Type 0, BuildingBlock: OLANEW_clean_sbu_2, # of connection points: 3
#     Node 14, Type 0, BuildingBlock: OLANEW_clean_sbu_2, # of connection points: 3
#     Node 15, Type 0, BuildingBlock: OLANEW_clean_sbu_2, # of connection points: 3
#     Node 16, Type 0, BuildingBlock: OLANEW_clean_sbu_2, # of connection points: 3
#     Node 17, Type 0, BuildingBlock: OLANEW_clean_sbu_2, # of connection points: 3
#     Node 18, Type 1, BuildingBlock: HISSIN_clean_sbu_0, # of connection points: 6
#     Node 19, Type 1, BuildingBlock: HISSIN_clean_sbu_0, # of connection points: 6
#     Node 20, Type 1, BuildingBlock: HISSIN_clean_sbu_0, # of connection points: 6
#     Node 21, Type 1, BuildingBlock: HISSIN_clean_sbu_0, # of connection points: 6
#     Node 22, Type 1, BuildingBlock: HISSIN_clean_sbu_0, # of connection points: 6
#     Node 23, Type 1, BuildingBlock: HISSIN_clean_sbu_0, # of connection points: 6
#     Node 24, Type 1, BuildingBlock: HISSIN_clean_sbu_0, # of connection points: 6
#     Node 25, Type 1, BuildingBlock: HISSIN_clean_sbu_0, # of connection points: 6
#     Node 26, Type 1, BuildingBlock: HISSIN_clean_sbu_0, # of connection points: 6
#     Edge 27, Type (0, 1), BuildingBlock: ZUJKAS_clean_linker_0, # of connection points: 2
#     Edge 28, Type (0, 1), BuildingBlock: ZUJKAS_clean_linker_0, # of connection points: 2
#     Edge 29, Type (0, 1), BuildingBlock: ZUJKAS_clean_linker_0, # of connection points: 2
#     Edge 30, Type (0, 1), BuildingBlock: ZUJKAS_clean_linker_0, # of connection points: 2
#     Edge 31, Type (0, 1), BuildingBlock: ZUJKAS_clean_linker_0, # of connection points: 2
#     Edge 32, Type (0, 1), BuildingBlock: ZUJKAS_clean_linker_0, # of connection points: 2
#     Edge 33, Type (0, 1), BuildingBlock: ZUJKAS_clean_linker_0, # of connection points: 2
#     Edge 34, Type (0, 1), BuildingBlock: ZUJKAS_clean_linker_0, # of connection points: 2
#     Edge 35, Type (0, 1), BuildingBlock: ZUJKAS_clean_linker_0, # of connection points: 2
#     Edge 36, Type (0, 1), BuildingBlock: ZUJKAS_clean_linker_0, # of connection points: 2
#     Edge 37, Type (0, 1), BuildingBlock: ZUJKAS_clean_linker_0, # of connection points: 2
#     Edge 38, Type (0, 1), BuildingBlock: ZUJKAS_clean_linker_0, # of connection points: 2
#     Edge 39, Type (0, 1), BuildingBlock: ZUJKAS_clean_linker_0, # of connection points: 2
#     Edge 40, Type (0, 1), BuildingBlock: ZUJKAS_clean_linker_0, # of connection points: 2
#     Edge 41, Type (0, 1), BuildingBlock: ZUJKAS_clean_linker_0, # of connection points: 2
#     Edge 42, Type (0, 1), BuildingBlock: ZUJKAS_clean_linker_0, # of connection points: 2
#     Edge 43, Type (0, 1), BuildingBlock: ZUJKAS_clean_linker_0, # of connection points: 2
#     Edge 44, Type (0, 1), BuildingBlock: ZUJKAS_clean_linker_0, # of connection points: 2
#     Edge 45, Type (0, 1), BuildingBlock: ZUJKAS_clean_linker_0, # of connection points: 2
#     Edge 46, Type (0, 1), BuildingBlock: ZUJKAS_clean_linker_0, # of connection points: 2
#     Edge 47, Type (0, 1), BuildingBlock: ZUJKAS_clean_linker_0, # of connection points: 2
#     Edge 48, Type (0, 1), BuildingBlock: ZUJKAS_clean_linker_0, # of connection points: 2
#     Edge 49, Type (0, 1), BuildingBlock: ZUJKAS_clean_linker_0, # of connection points: 2
#     Edge 50, Type (0, 1), BuildingBlock: ZUJKAS_clean_linker_0, # of connection points: 2
#     Edge 51, Type (0, 1), BuildingBlock: ZUJKAS_clean_linker_0, # of connection points: 2
#     Edge 52, Type (0, 1), BuildingBlock: ZUJKAS_clean_linker_0, # of connection points: 2
#     Edge 53, Type (0, 1), BuildingBlock: ZUJKAS_clean_linker_0, # of connection points: 2
#     Edge 54, Type (0, 1), BuildingBlock: ZUJKAS_clean_linker_0, # of connection points: 2
#     Edge 55, Type (0, 1), BuildingBlock: ZUJKAS_clean_linker_0, # of connection points: 2
#     Edge 56, Type (0, 1), BuildingBlock: ZUJKAS_clean_linker_0, # of connection points: 2
#     Edge 57, Type (0, 1), BuildingBlock: ZUJKAS_clean_linker_0, # of connection points: 2
#     Edge 58, Type (0, 1), BuildingBlock: ZUJKAS_clean_linker_0, # of connection points: 2
#     Edge 59, Type (0, 1), BuildingBlock: ZUJKAS_clean_linker_0, # of connection points: 2
#     Edge 60, Type (0, 1), BuildingBlock: ZUJKAS_clean_linker_0, # of connection points: 2
#     Edge 61, Type (0, 1), BuildingBlock: ZUJKAS_clean_linker_0, # of connection points: 2
#     Edge 62, Type (0, 1), BuildingBlock: ZUJKAS_clean_linker_0, # of connection points: 2
#     Edge 63, Type (0, 1), BuildingBlock: ZUJKAS_clean_linker_0, # of connection points: 2
#     Edge 64, Type (0, 1), BuildingBlock: ZUJKAS_clean_linker_0, # of connection points: 2
#     Edge 65, Type (0, 1), BuildingBlock: ZUJKAS_clean_linker_0, # of connection points: 2
#     Edge 66, Type (0, 1), BuildingBlock: ZUJKAS_clean_linker_0, # of connection points: 2
#     Edge 67, Type (0, 1), BuildingBlock: ZUJKAS_clean_linker_0, # of connection points: 2
#     Edge 68, Type (0, 1), BuildingBlock: ZUJKAS_clean_linker_0, # of connection points: 2
#     Edge 69, Type (0, 1), BuildingBlock: ZUJKAS_clean_linker_0, # of connection points: 2
#     Edge 70, Type (0, 1), BuildingBlock: ZUJKAS_clean_linker_0, # of connection points: 2
#     Edge 71, Type (0, 1), BuildingBlock: ZUJKAS_clean_linker_0, # of connection points: 2
#     Edge 72, Type (0, 1), BuildingBlock: ZUJKAS_clean_linker_0, # of connection points: 2
#     Edge 73, Type (0, 1), BuildingBlock: ZUJKAS_clean_linker_0, # of connection points: 2
#     Edge 74, Type (0, 1), BuildingBlock: ZUJKAS_clean_linker_0, # of connection points: 2
#     Edge 75, Type (0, 1), BuildingBlock: ZUJKAS_clean_linker_0, # of connection points: 2
#     Edge 76, Type (0, 1), BuildingBlock: ZUJKAS_clean_linker_0, # of connection points: 2
#     Edge 77, Type (0, 1), BuildingBlock: ZUJKAS_clean_linker_0, # of connection points: 2
#     Edge 78, Type (0, 1), BuildingBlock: ZUJKAS_clean_linker_0, # of connection points: 2
#     Edge 79, Type (0, 1), BuildingBlock: ZUJKAS_clean_linker_0, # of connection points: 2
#     Edge 80, Type (0, 1), BuildingBlock: ZUJKAS_clean_linker_0, # of connection points: 2
# Relax obj value: 0.027
# Max RMSD: 0.180
# Mean RMSD: 0.118
data_MOF--net-eea--node1-OLANEW_clean_sbu_2--node2-HISSIN_clean_sbu_0--edge1-ZUJKAS_clean_linker_0
_symmetry_space_group_name_H-M    P1
_symmetry_Int_Tables_number       1
_symmetry_cell_setting            triclinic
loop_
_symmetry_equiv_pos_as_xyz
'x, y, z'
_cell_length_a     77.366821
_cell_length_b     75.780561
_cell_length_c     88.220894
_cell_angle_alpha  96.874169
_cell_angle_beta   93.532008
_cell_angle_gamma 120.56886
loop_
_atom_site_label
_atom_site_type_symbol
_atom_site_fract_x
_atom_site_fract_y
_atom_site_fract_z
_atom_type_partial_charge
O0 O 0.26552 0.14906 0.42052 0.0
Cd1 Cd 0.25063 0.13426 0.39349 0.0
O2 O 0.29495 0.15239 0.41736 0.0
Cd3 Cd 0.28323 0.13413 0.39414 0.0
O4 O 0.26723 0.10329 0.37977 0.0
C5 C 0.25486 0.0889 0.38645 0.0
O6 O 0.25232 0.09392 0.40057 0.0
C7 C 0.28365 0.15517 0.42598 0.0
C8 C 0.23749 0.15862 0.38172 0.0
O9 O 0.22548 0.1429 0.38768 0.0
O10 O 0.25559 0.16255 0.38107 0.0
O11 O 0.89694 0.20419 0.42617 0.0
Cd12 Cd 0.90145 0.2069 0.39919 0.0
O13 O 0.88299 0.17077 0.41844 0.0
Cd14 Cd 0.86801 0.13742 0.41893 0.0
O15 O 0.84944 0.10356 0.41294 0.0
C16 C 0.83143 0.09408 0.41612 0.0
O17 O 0.82466 0.10489 0.42357 0.0
C18 C 0.88792 0.18589 0.42927 0.0
C19 C 0.9411 0.22219 0.39317 0.0
O20 O 0.93444 0.23442 0.39629 0.0
O21 O 0.9291 0.20273 0.39316 0.0
O22 O 0.90284 0.75989 0.44026 0.0
Cd23 Cd 0.90962 0.77726 0.41772 0.0
O24 O 0.87087 0.75139 0.43862 0.0
Cd25 Cd 0.8689 0.7661 0.41924 0.0
O26 O 0.85119 0.77578 0.40601 0.0
C27 C 0.85035 0.79136 0.41209 0.0
O28 O 0.86123 0.8019 0.42557 0.0
C29 C 0.88581 0.75113 0.44522 0.0
C30 C 0.94533 0.7836 0.40687 0.0
O31 O 0.94564 0.79707 0.41734 0.0
O32 O 0.92815 0.76708 0.40155 0.0
O33 O 0.13216 0.24271 0.57427 0.0
Cd34 Cd 0.12248 0.22753 0.59755 0.0
O35 O 0.11067 0.25364 0.57332 0.0
Cd36 Cd 0.09514 0.24045 0.59265 0.0
O37 O 0.06984 0.22991 0.60613 0.0
C38 C 0.05208 0.21954 0.59852 0.0
O39 O 0.0501 0.2152 0.58341 0.0
C40 C 0.12482 0.25213 0.5679 0.0
C41 C 0.15105 0.2187 0.60949 0.0
O42 O 0.13552 0.20503 0.5998 0.0
O43 O 0.15299 0.23648 0.61364 0.0
O44 O 0.72472 0.83824 0.59543 0.0
Cd45 Cd 0.73753 0.85013 0.62302 0.0
O46 O 0.75517 0.85375 0.58851 0.0
Cd47 Cd 0.76906 0.87282 0.61127 0.0
O48 O 0.77757 0.90117 0.62715 0.0
C49 C 0.76498 0.9072 0.6262 0.0
O50 O 0.74792 0.89552 0.61669 0.0
C51 C 0.73608 0.84172 0.58496 0.0
C52 C 0.75327 0.82693 0.63311 0.0
O53 O 0.73457 0.82102 0.63341 0.0
O54 O 0.76457 0.84397 0.62831 0.0
O55 O 0.1005 0.86179 0.58267 0.0
Cd56 Cd 0.09938 0.87464 0.60917 0.0
O57 O 0.11724 0.84705 0.58961 0.0
Cd58 Cd 0.12358 0.86267 0.61341 0.0
O59 O 0.14415 0.89362 0.62689 0.0
C60 C 0.16156 0.9029 0.62258 0.0
O61 O 0.16557 0.89285 0.61153 0.0
C62 C 0.10827 0.85084 0.57905 0.0
C63 C 0.06365 0.84712 0.61971 0.0
O64 O 0.06497 0.86193 0.61322 0.0
O65 O 0.07925 0.84534 0.62123 0.0
O66 O 0.9588 0.50186 0.75173 0.0
Cd67 Cd 0.94736 0.49093 0.72396 0.0
O68 O 0.95662 0.47224 0.75401 0.0
Cd69 Cd 0.94575 0.45728 0.72987 0.0
O70 O 0.93281 0.42916 0.71247 0.0
C71 C 0.91432 0.41523 0.71219 0.0
O72 O 0.90354 0.41912 0.72146 0.0
C73 C 0.96072 0.49025 0.76009 0.0
C74 C 0.92825 0.51102 0.71376 0.0
O75 O 0.91809 0.49343 0.71818 0.0
O76 O 0.9474 0.51898 0.71403 0.0
O77 O 0.55977 0.53279 0.75802 0.0
Cd78 Cd 0.5646 0.53658 0.73121 0.0
O79 O 0.54516 0.49911 0.75086 0.0
Cd80 Cd 0.5268 0.4662 0.75273 0.0
O81 O 0.50637 0.43242 0.74755 0.0
C82 C 0.49874 0.42433 0.73352 0.0
O83 O 0.50353 0.43654 0.72315 0.0
C84 C 0.5507 0.51467 0.76144 0.0
C85 C 0.60389 0.55016 0.72488 0.0
O86 O 0.59869 0.56316 0.72982 0.0
O87 O 0.59059 0.53068 0.72321 0.0
O88 O 0.56506 0.08397 0.76977 0.0
Cd89 Cd 0.5698 0.09549 0.74471 0.0
O90 O 0.54189 0.09206 0.77384 0.0
Cd91 Cd 0.5393 0.10289 0.75242 0.0
O92 O 0.52016 0.11082 0.73909 0.0
C93 C 0.50356 0.10592 0.74419 0.0
O94 O 0.49959 0.09666 0.7563 0.0
C95 C 0.55278 0.08498 0.77826 0.0
C96 C 0.60692 0.10412 0.73541 0.0
O97 O 0.60505 0.11854 0.74283 0.0
O98 O 0.59131 0.08563 0.73249 0.0
O99 O 0.79922 0.57859 0.90909 0.0
Cd100 Cd 0.79136 0.56571 0.9334 0.0
O101 O 0.7792 0.59134 0.90921 0.0
Cd102 Cd 0.7645 0.57894 0.92904 0.0
O103 O 0.73934 0.56831 0.94264 0.0
C104 C 0.72157 0.55687 0.93514 0.0
O105 O 0.71957 0.5516 0.92011 0.0
C106 C 0.79227 0.58856 0.90306 0.0
C107 C 0.81897 0.55491 0.94402 0.0
O108 O 0.80169 0.5411 0.93627 0.0
O109 O 0.82312 0.57375 0.94686 0.0
O110 O 0.39826 0.17638 0.93152 0.0
Cd111 Cd 0.4075 0.18544 0.95962 0.0
O112 O 0.42961 0.19551 0.92689 0.0
Cd113 Cd 0.44058 0.21152 0.9507 0.0
O114 O 0.4476 0.23875 0.96727 0.0
C115 C 0.43468 0.24433 0.96618 0.0
O116 O 0.41804 0.2327 0.95623 0.0
C117 C 0.41095 0.18252 0.92199 0.0
C118 C 0.42456 0.16358 0.97014 0.0
O119 O 0.40535 0.15588 0.96873 0.0
O120 O 0.43568 0.18169 0.96677 0.0
O121 O 0.77564 0.18928 0.91801 0.0
Cd122 Cd 0.77546 0.19942 0.94537 0.0
O123 O 0.79234 0.17373 0.9228 0.0
Cd124 Cd 0.80044 0.18848 0.94698 0.0
O125 O 0.82051 0.21941 0.96072 0.0
C126 C 0.83834 0.22902 0.95719 0.0
O127 O 0.84338 0.21926 0.94672 0.0
C128 C 0.78303 0.17836 0.91316 0.0
C129 C 0.73857 0.17263 0.95488 0.0
O130 O 0.74216 0.18982 0.95099 0.0
O131 O 0.75242 0.16812 0.95427 0.0
O132 O 0.58852 0.80277 0.08442 0.0
Cd133 Cd 0.57624 0.79264 0.05676 0.0
O134 O 0.61991 0.81244 0.08122 0.0
Cd135 Cd 0.61047 0.79712 0.05714 0.0
O136 O 0.59546 0.76667 0.04227 0.0
C137 C 0.58354 0.75191 0.04888 0.0
O138 O 0.58099 0.75647 0.0631 0.0
C139 C 0.60703 0.81097 0.09007 0.0
C140 C 0.56568 0.82013 0.04734 0.0
O141 O 0.55223 0.80273 0.05066 0.0
O142 O 0.58403 0.82434 0.04822 0.0
O143 O 0.22868 0.85848 0.09156 0.0
Cd144 Cd 0.23114 0.85362 0.064 0.0
O145 O 0.21144 0.82451 0.08718 0.0
Cd146 Cd 0.19123 0.79288 0.09124 0.0
O147 O 0.16925 0.75943 0.08639 0.0
C148 C 0.16174 0.75154 0.07232 0.0
O149 O 0.16752 0.76378 0.06196 0.0
C150 C 0.21856 0.84152 0.09657 0.0
C151 C 0.27043 0.87306 0.05653 0.0
O152 O 0.26004 0.88189 0.05619 0.0
O153 O 0.26239 0.85521 0.06069 0.0
O154 O 0.23404 0.42155 0.10353 0.0
Cd155 Cd 0.23958 0.43629 0.07978 0.0
O156 O 0.21253 0.4313 0.10949 0.0
Cd157 Cd 0.2097 0.44346 0.08884 0.0
O158 O 0.19008 0.45132 0.07606 0.0
C159 C 0.17387 0.44677 0.08171 0.0
O160 O 0.17059 0.43803 0.09407 0.0
C161 C 0.22257 0.42285 0.11275 0.0
C162 C 0.2758 0.44354 0.06946 0.0
O163 O 0.27542 0.45736 0.07911 0.0
O164 O 0.25907 0.42625 0.06473 0.0
O165 O 0.46715 0.91447 0.24282 0.0
Cd166 Cd 0.45905 0.90018 0.26662 0.0
O167 O 0.44233 0.92075 0.24039 0.0
Cd168 Cd 0.42801 0.9087 0.26045 0.0
O169 O 0.4042 0.90119 0.27515 0.0
C170 C 0.38799 0.88336 0.27238 0.0
O171 O 0.38635 0.86921 0.26124 0.0
C172 C 0.45773 0.92131 0.23555 0.0
C173 C 0.48733 0.89017 0.27724 0.0
O174 O 0.47089 0.87656 0.26837 0.0
O175 O 0.49033 0.90847 0.28116 0.0
O176 O 0.0694 0.51647 0.26524 0.0
Cd177 Cd 0.08349 0.52752 0.29264 0.0
O178 O 0.09922 0.53037 0.25724 0.0
Cd179 Cd 0.1143 0.54901 0.27995 0.0
O180 O 0.12155 0.57691 0.29585 0.0
C181 C 0.10805 0.58174 0.29505 0.0
O182 O 0.09099 0.56923 0.2857 0.0
C183 C 0.07998 0.51934 0.25428 0.0
C184 C 0.09796 0.50278 0.30171 0.0
O185 O 0.07956 0.49771 0.30252 0.0
O186 O 0.10955 0.51964 0.2968 0.0
O187 O 0.43964 0.53003 0.25013 0.0
Cd188 Cd 0.43707 0.54367 0.27592 0.0
O189 O 0.45785 0.5173 0.25812 0.0
Cd190 Cd 0.46372 0.5346 0.28129 0.0
O191 O 0.48251 0.56668 0.29339 0.0
C192 C 0.48722 0.5801 0.28458 0.0
O193 O 0.47989 0.57357 0.26984 0.0
C194 C 0.44829 0.5198 0.24714 0.0
C195 C 0.40177 0.51514 0.28643 0.0
O196 O 0.40177 0.52793 0.27814 0.0
O197 O 0.4185 0.51588 0.28981 0.0
Eu198 Eu 0.50103 0.99076 0.98858 0.0
Eu199 Eu 0.51753 0.0139 0.02551 0.0
C200 C 0.50005 0.03185 0.00178 0.0
C201 C 0.49471 0.98303 0.94483 0.0
C202 C 0.50182 0.00414 0.94477 0.0
C203 C 0.49791 0.97836 0.91765 0.0
C204 C 0.5069 0.01231 0.93121 0.0
C205 C 0.49273 0.97019 0.9312 0.0
C206 C 0.50514 0.99953 0.91752 0.0
C207 C 0.49057 0.97458 0.95921 0.0
O208 O 0.48361 0.99365 0.02348 0.0
O209 O 0.47588 0.97012 0.00126 0.0
C210 C 0.47103 0.97605 0.0141 0.0
O211 O 0.51645 0.97581 0.99915 0.0
O212 O 0.51508 0.03032 0.04657 0.0
O213 O 0.53907 0.0235 0.04634 0.0
O214 O 0.51315 0.98212 0.02454 0.0
C215 C 0.51656 0.97192 0.01324 0.0
O216 O 0.53027 0.02078 0.98874 0.0
O217 O 0.54522 0.02604 0.01347 0.0
O218 O 0.51401 0.03663 0.0134 0.0
O219 O 0.50624 0.97685 0.96761 0.0
O220 O 0.47928 0.97877 0.9675 0.0
O221 O 0.49074 0.01366 0.9926 0.0
C222 C 0.52442 0.0216 0.06908 0.0
C223 C 0.51164 0.00011 0.06848 0.0
C224 C 0.52755 0.02683 0.09703 0.0
C225 C 0.5069 0.99201 0.08209 0.0
C226 C 0.5323 0.03491 0.0834 0.0
C227 C 0.51482 0.00526 0.09654 0.0
C228 C 0.52955 0.0301 0.0548 0.0
C229 C 0.54635 0.02974 0.99928 0.0
H230 H 0.50371 0.01436 0.95527 0.0
H231 H 0.49619 0.96808 0.90726 0.0
H232 H 0.51265 0.02872 0.93153 0.0
H233 H 0.48739 0.95389 0.93107 0.0
H234 H 0.50541 0.9896 0.05749 0.0
H235 H 0.53367 0.03751 0.10794 0.0
H236 H 0.49727 0.97532 0.08128 0.0
H237 H 0.54212 0.05156 0.08404 0.0
Eu238 Eu 0.00084 0.49488 0.99207 0.0
Eu239 Eu 0.98306 0.48956 0.02539 0.0
C240 C 0.96668 0.45126 0.99877 0.0
C241 C 0.0115 0.50592 0.95124 0.0
C242 C 0.99375 0.50586 0.94671 0.0
C243 C 0.02391 0.51755 0.92757 0.0
C244 C 0.99088 0.5111 0.9325 0.0
C245 C 0.0267 0.51219 0.94174 0.0
C246 C 0.00578 0.51662 0.92265 0.0
C247 C 0.01386 0.49829 0.9653 0.0
O248 O 0.00584 0.47935 0.0268 0.0
O249 O 0.02471 0.495 0.00801 0.0
C250 C 0.02218 0.48567 0.02002 0.0
O251 O 0.01103 0.52698 0.00474 0.0
O252 O 0.96814 0.46934 0.04195 0.0
O253 O 0.97629 0.50163 0.04641 0.0
O254 O 0.01251 0.5203 0.02921 0.0
C255 C 0.01807 0.53344 0.01952 0.0
O256 O 0.97213 0.49542 0.98771 0.0
O257 O 0.96713 0.50252 0.01265 0.0
O258 O 0.96086 0.46165 0.00777 0.0
O259 O 0.02386 0.5122 0.97773 0.0
O260 O 0.99777 0.48177 0.96806 0.0
O261 O 0.98458 0.46095 0.99426 0.0
C262 C 0.97793 0.48624 0.06778 0.0
C263 C 0.99865 0.49988 0.07319 0.0
C264 C 0.97298 0.4748 0.09253 0.0
C265 C 0.00646 0.5011 0.08825 0.0
C266 C 0.96518 0.47369 0.07751 0.0
C267 C 0.99371 0.48855 0.09811 0.0
C268 C 0.96954 0.48436 0.05189 0.0
C269 C 0.96315 0.50106 0.99769 0.0
H270 H 0.98188 0.5012 0.95397 0.0
H271 H 0.03557 0.52152 0.92018 0.0
H272 H 0.97686 0.51046 0.92907 0.0
H273 H 0.04049 0.51231 0.94507 0.0
H274 H 0.00879 0.50957 0.06578 0.0
H275 H 0.96279 0.46465 0.09969 0.0
H276 H 0.02244 0.51205 0.09221 0.0
H277 H 0.94918 0.46291 0.07344 0.0
Eu278 Eu 0.51008 0.50056 0.02362 0.0
Eu279 Eu 0.48971 0.49089 0.98743 0.0
C280 C 0.5101 0.53587 0.00764 0.0
C281 C 0.51669 0.5068 0.06743 0.0
C282 C 0.52975 0.52078 0.08057 0.0
C283 C 0.48934 0.49199 0.08291 0.0
C284 C 0.52271 0.52036 0.09482 0.0
C285 C 0.49635 0.49256 0.06865 0.0
C286 C 0.50246 0.5058 0.0962 0.0
C287 C 0.52449 0.50693 0.05263 0.0
O288 O 0.52034 0.49438 0.98646 0.0
O289 O 0.53677 0.51366 0.0105 0.0
C290 C 0.53708 0.50646 0.99627 0.0
O291 O 0.50616 0.47045 0.01196 0.0
O292 O 0.47797 0.49914 0.968 0.0
O293 O 0.47782 0.47025 0.96517 0.0
O294 O 0.47748 0.4604 0.99586 0.0
C295 C 0.4892 0.45571 0.00353 0.0
O296 O 0.47645 0.48497 0.02428 0.0
O297 O 0.46628 0.491 0.00139 0.0
O298 O 0.50979 0.52568 0.99442 0.0
O299 O 0.51614 0.48901 0.04344 0.0
O300 O 0.52733 0.52193 0.04528 0.0
O301 O 0.50544 0.52676 0.01975 0.0
C302 C 0.48301 0.4872 0.9435 0.0
C303 C 0.49703 0.48178 0.93891 0.0
C304 C 0.4827 0.49927 0.91923 0.0
C305 C 0.50356 0.48476 0.9245 0.0
C306 C 0.47603 0.49609 0.93359 0.0
C307 C 0.49637 0.49341 0.91441 0.0
C308 C 0.47508 0.48314 0.95831 0.0
C309 C 0.46293 0.48581 0.0151 0.0
H310 H 0.54545 0.53198 0.07982 0.0
H311 H 0.47373 0.48043 0.08353 0.0
H312 H 0.53313 0.53151 0.10473 0.0
H313 H 0.48594 0.48167 0.05863 0.0
H314 H 0.50277 0.47495 0.94635 0.0
H315 H 0.47713 0.50634 0.91192 0.0
H316 H 0.51388 0.47982 0.92116 0.0
H317 H 0.46529 0.50047 0.93691 0.0
Eu318 Eu 0.16958 0.32644 0.32194 0.0
Eu319 Eu 0.18473 0.34794 0.35888 0.0
C320 C 0.16811 0.36662 0.33485 0.0
C321 C 0.16518 0.31925 0.27834 0.0
C322 C 0.17551 0.34082 0.27864 0.0
C323 C 0.16704 0.31383 0.25095 0.0
C324 C 0.18139 0.34884 0.26514 0.0
C325 C 0.16106 0.30582 0.26445 0.0
C326 C 0.17718 0.33542 0.25113 0.0
C327 C 0.15905 0.31075 0.29251 0.0
O328 O 0.15521 0.31779 0.35774 0.0
O329 O 0.14141 0.31561 0.33338 0.0
C330 C 0.13937 0.31087 0.34727 0.0
O331 O 0.17123 0.30276 0.33409 0.0
O332 O 0.17881 0.35996 0.38038 0.0
O333 O 0.20693 0.36035 0.37972 0.0
O334 O 0.19552 0.32552 0.35428 0.0
C335 C 0.1854 0.30713 0.34538 0.0
O336 O 0.20353 0.34765 0.3247 0.0
O337 O 0.20874 0.37062 0.34647 0.0
O338 O 0.16794 0.36186 0.3487 0.0
O339 O 0.1729 0.31014 0.30124 0.0
O340 O 0.14926 0.31748 0.30049 0.0
O341 O 0.17298 0.3579 0.32351 0.0
C342 C 0.19242 0.35488 0.40278 0.0
C343 C 0.18635 0.33398 0.40274 0.0
C344 C 0.19101 0.35948 0.43028 0.0
C345 C 0.18263 0.32588 0.41643 0.0
C346 C 0.19482 0.36758 0.41662 0.0
C347 C 0.18474 0.3385 0.43032 0.0
C348 C 0.19525 0.36332 0.38839 0.0
C349 C 0.21478 0.36571 0.33391 0.0
H350 H 0.17904 0.35145 0.28932 0.0
H351 H 0.16342 0.3031 0.24031 0.0
H352 H 0.1894 0.36555 0.26569 0.0
H353 H 0.15317 0.28914 0.26405 0.0
H354 H 0.18421 0.32389 0.3921 0.0
H355 H 0.19299 0.36965 0.44082 0.0
H356 H 0.17761 0.30961 0.41606 0.0
H357 H 0.19942 0.38372 0.41683 0.0
Eu358 Eu 0.67589 0.83936 0.3255 0.0
Eu359 Eu 0.65851 0.83472 0.35884 0.0
C360 C 0.64166 0.79575 0.33227 0.0
C361 C 0.68175 0.84179 0.28284 0.0
C362 C 0.66093 0.8298 0.27728 0.0
C363 C 0.68862 0.85118 0.25762 0.0
C364 C 0.654 0.82838 0.2619 0.0
C365 C 0.69551 0.8525 0.27295 0.0
C366 C 0.66778 0.83902 0.25187 0.0
C367 C 0.6894 0.84366 0.29894 0.0
O368 O 0.68799 0.83564 0.36347 0.0
O369 O 0.69211 0.82698 0.3386 0.0
C370 C 0.69687 0.82965 0.35361 0.0
O371 O 0.6985 0.86758 0.34291 0.0
O372 O 0.63591 0.81686 0.37327 0.0
O373 O 0.66068 0.8482 0.38256 0.0
O374 O 0.67507 0.86855 0.35669 0.0
C375 C 0.69314 0.87793 0.35247 0.0
O376 O 0.65372 0.8503 0.32417 0.0
O377 O 0.63449 0.83409 0.34258 0.0
O378 O 0.64966 0.80285 0.34682 0.0
O379 O 0.69091 0.85895 0.30862 0.0
O380 O 0.68207 0.82645 0.30456 0.0
O381 O 0.64644 0.80847 0.32228 0.0
C382 C 0.64869 0.82448 0.39973 0.0
C383 C 0.66646 0.82425 0.40344 0.0
C384 C 0.63852 0.81479 0.42435 0.0
C385 C 0.67049 0.81983 0.41771 0.0
C386 C 0.63457 0.81932 0.41011 0.0
C387 C 0.65675 0.81548 0.42847 0.0
C388 C 0.64529 0.83124 0.38553 0.0
C389 C 0.63722 0.84378 0.33075 0.0
H390 H 0.65007 0.82152 0.28482 0.0
H391 H 0.69961 0.85988 0.25031 0.0
H392 H 0.63788 0.81872 0.25782 0.0
H393 H 0.71162 0.86198 0.27712 0.0
H394 H 0.67752 0.82814 0.39552 0.0
H395 H 0.62747 0.81115 0.43225 0.0
H396 H 0.68476 0.82072 0.42055 0.0
H397 H 0.62072 0.8193 0.40736 0.0
Eu398 Eu 0.17663 0.83503 0.35793 0.0
Eu399 Eu 0.15668 0.82741 0.32189 0.0
C400 C 0.17757 0.87168 0.34337 0.0
C401 C 0.18332 0.84148 0.40156 0.0
C402 C 0.16588 0.84273 0.40213 0.0
C403 C 0.18551 0.84068 0.42897 0.0
C404 C 0.15824 0.84285 0.41607 0.0
C405 C 0.19314 0.84057 0.41504 0.0
C406 C 0.16789 0.84168 0.42963 0.0
C407 C 0.19053 0.83973 0.3868 0.0
O408 O 0.18736 0.83118 0.32039 0.0
O409 O 0.20355 0.84802 0.34505 0.0
C410 C 0.20396 0.84201 0.33052 0.0
O411 O 0.17329 0.80573 0.34521 0.0
O412 O 0.14542 0.83702 0.3031 0.0
O413 O 0.14459 0.80781 0.29921 0.0
O414 O 0.14468 0.79621 0.32922 0.0
C415 C 0.15655 0.79127 0.33639 0.0
O416 O 0.14301 0.8199 0.35841 0.0
O417 O 0.1333 0.8273 0.33603 0.0
O418 O 0.17721 0.86199 0.32988 0.0
O419 O 0.17952 0.82171 0.37777 0.0
O420 O 0.19588 0.85522 0.37935 0.0
O421 O 0.17266 0.86193 0.35516 0.0
C422 C 0.15037 0.82599 0.27838 0.0
C423 C 0.16884 0.82747 0.2761 0.0
C424 C 0.14657 0.83195 0.25227 0.0
C425 C 0.17593 0.83078 0.2619 0.0
C426 C 0.13941 0.82847 0.26644 0.0
C427 C 0.16478 0.83287 0.24978 0.0
C428 C 0.1421 0.82125 0.29294 0.0
C429 C 0.12979 0.82155 0.34956 0.0
H430 H 0.15806 0.84333 0.39177 0.0
H431 H 0.19314 0.83947 0.43915 0.0
H432 H 0.14479 0.84389 0.41621 0.0
H433 H 0.2065 0.83938 0.41473 0.0
H434 H 0.17762 0.82577 0.28522 0.0
H435 H 0.13757 0.83333 0.24311 0.0
H436 H 0.19013 0.83169 0.26038 0.0
H437 H 0.12514 0.82739 0.26801 0.0
Eu438 Eu 0.83303 0.65686 0.65505 0.0
Eu439 Eu 0.84699 0.679 0.69189 0.0
C440 C 0.82879 0.69559 0.66738 0.0
C441 C 0.83043 0.6495 0.61148 0.0
C442 C 0.84757 0.66943 0.61228 0.0
C443 C 0.82563 0.64552 0.58357 0.0
C444 C 0.85373 0.67734 0.59877 0.0
C445 C 0.81953 0.6376 0.59708 0.0
C446 C 0.84279 0.6655 0.58425 0.0
C447 C 0.82372 0.64116 0.62562 0.0
O448 O 0.81799 0.64846 0.691 0.0
O449 O 0.80434 0.64387 0.66597 0.0
C450 C 0.80231 0.64001 0.6801 0.0
O451 O 0.83554 0.63395 0.66763 0.0
O452 O 0.84053 0.69083 0.71319 0.0
O453 O 0.86937 0.69275 0.71269 0.0
O454 O 0.85896 0.6575 0.68799 0.0
C455 C 0.84962 0.63903 0.67921 0.0
O456 O 0.86692 0.67869 0.65857 0.0
O457 O 0.87006 0.70215 0.67912 0.0
O458 O 0.82869 0.69102 0.68128 0.0
O459 O 0.83722 0.64062 0.63484 0.0
O460 O 0.81363 0.64797 0.63307 0.0
O461 O 0.83457 0.68748 0.6563 0.0
C462 C 0.85491 0.68684 0.73572 0.0
C463 C 0.84865 0.66589 0.73566 0.0
C464 C 0.85442 0.6917 0.76334 0.0
C465 C 0.84525 0.65788 0.74938 0.0
C466 C 0.85789 0.6997 0.74963 0.0
C467 C 0.8479 0.67065 0.76336 0.0
C468 C 0.85729 0.69511 0.72127 0.0
C469 C 0.8771 0.69728 0.66719 0.0
H470 H 0.85611 0.67888 0.62334 0.0
H471 H 0.81701 0.63592 0.57257 0.0
H472 H 0.86685 0.69287 0.59971 0.0
H473 H 0.80627 0.62219 0.59627 0.0
H474 H 0.84608 0.65568 0.72496 0.0
H475 H 0.85683 0.70199 0.77394 0.0
H476 H 0.84002 0.64156 0.74898 0.0
H477 H 0.86266 0.71589 0.74986 0.0
Eu478 Eu 0.33694 0.16493 0.65795 0.0
Eu479 Eu 0.32183 0.16289 0.69213 0.0
C480 C 0.302 0.12302 0.66634 0.0
C481 C 0.34485 0.17302 0.61615 0.0
C482 C 0.32549 0.16816 0.60988 0.0
C483 C 0.35836 0.18857 0.59388 0.0
C484 C 0.32251 0.17296 0.59551 0.0
C485 C 0.3613 0.18358 0.60818 0.0
C486 C 0.33885 0.1829 0.58719 0.0
C487 C 0.348 0.16626 0.6305 0.0
O488 O 0.34252 0.15007 0.69281 0.0
O489 O 0.36074 0.16409 0.67332 0.0
C490 C 0.35825 0.15505 0.68549 0.0
O491 O 0.34888 0.19785 0.66977 0.0
O492 O 0.30553 0.14443 0.7091 0.0
O493 O 0.31977 0.17801 0.7141 0.0
O494 O 0.35227 0.19229 0.69431 0.0
C495 C 0.35725 0.20491 0.68426 0.0
O496 O 0.30836 0.16591 0.65448 0.0
O497 O 0.30685 0.17692 0.67956 0.0
O498 O 0.29773 0.13459 0.67568 0.0
O499 O 0.35887 0.18079 0.64245 0.0
O500 O 0.33229 0.15018 0.63415 0.0
O501 O 0.31942 0.13137 0.66102 0.0
C502 C 0.31938 0.16106 0.73506 0.0
C503 C 0.32046 0.17497 0.74761 0.0
C504 C 0.33421 0.14806 0.75236 0.0
C505 C 0.32839 0.17547 0.76243 0.0
C506 C 0.32645 0.14769 0.73753 0.0
C507 C 0.33525 0.16193 0.76502 0.0
C508 C 0.31077 0.16067 0.71954 0.0
C509 C 0.30114 0.17366 0.66463 0.0
H510 H 0.31255 0.16012 0.61586 0.0
H511 H 0.37136 0.19659 0.58795 0.0
H512 H 0.30724 0.16815 0.59069 0.0
H513 H 0.37637 0.18759 0.61288 0.0
H514 H 0.31519 0.18549 0.74595 0.0
H515 H 0.33912 0.13724 0.75393 0.0
H516 H 0.3293 0.18663 0.77184 0.0
H517 H 0.3259 0.13684 0.72804 0.0
Eu518 Eu 0.84135 0.16328 0.68823 0.0
Eu519 Eu 0.82075 0.15465 0.65229 0.0
C520 C 0.84275 0.19959 0.67276 0.0
C521 C 0.84779 0.16944 0.73194 0.0
C522 C 0.8612 0.18237 0.74528 0.0
C523 C 0.8199 0.15672 0.74705 0.0
C524 C 0.85406 0.18243 0.75944 0.0
C525 C 0.82704 0.1568 0.73288 0.0
C526 C 0.83334 0.16943 0.76054 0.0
C527 C 0.85558 0.16906 0.71719 0.0
O528 O 0.85123 0.15791 0.65073 0.0
O529 O 0.868 0.17576 0.67506 0.0
C530 C 0.86805 0.16912 0.6606 0.0
O531 O 0.83736 0.13338 0.67603 0.0
O532 O 0.80869 0.16341 0.63341 0.0
O533 O 0.80863 0.13459 0.62978 0.0
O534 O 0.8086 0.12381 0.66022 0.0
C535 C 0.82039 0.11886 0.66748 0.0
O536 O 0.80771 0.14759 0.68885 0.0
O537 O 0.79805 0.15554 0.66678 0.0
O538 O 0.84175 0.18926 0.65938 0.0
O539 O 0.84653 0.15109 0.70799 0.0
O540 O 0.85924 0.18429 0.70985 0.0
O541 O 0.83788 0.19034 0.6848 0.0
C542 C 0.81394 0.15246 0.60882 0.0
C543 C 0.83278 0.15472 0.60674 0.0
C544 C 0.81015 0.15841 0.58271 0.0
C545 C 0.84009 0.15848 0.59265 0.0
C546 C 0.80276 0.15448 0.59677 0.0
C547 C 0.82881 0.16026 0.58046 0.0
C548 C 0.80569 0.14767 0.62337 0.0
C549 C 0.79449 0.14945 0.68019 0.0
H550 H 0.87723 0.19236 0.74474 0.0
H551 H 0.80391 0.14635 0.74745 0.0
H552 H 0.86477 0.19273 0.76953 0.0
H553 H 0.81637 0.14678 0.72269 0.0
H554 H 0.84174 0.15341 0.61597 0.0
H555 H 0.80104 0.15953 0.57348 0.0
H556 H 0.85463 0.16009 0.59132 0.0
H557 H 0.78821 0.1528 0.59818 0.0
H558 H 0.28766 0.9052 0.04055 0.0
H559 H 0.32106 0.92081 0.03211 0.0
H560 H 0.33322 0.87958 0.05408 0.0
H561 H 0.29948 0.8633 0.06199 0.0
H562 H 0.35731 0.94169 0.04777 0.0
H563 H 0.34872 0.87139 0.01268 0.0
H564 H 0.32759 0.87181 0.01987 0.0
H565 H 0.34444 0.86797 0.03214 0.0
C566 C 0.29742 0.89939 0.04353 0.0
C567 C 0.29091 0.88295 0.05187 0.0
C568 C 0.3165 0.90831 0.03868 0.0
C569 C 0.32954 0.9011 0.04217 0.0
C570 C 0.32322 0.88498 0.0508 0.0
H571 H 0.45945 0.97488 0.04264 0.0
H572 H 0.42511 0.9558 0.04914 0.0
C573 C 0.304 0.87582 0.05545 0.0
C574 C 0.35003 0.91109 0.03732 0.0
H575 H 0.38244 0.90105 0.01884 0.0
C576 C 0.36273 0.93279 0.04135 0.0
C577 C 0.35702 0.89956 0.0287 0.0
C578 C 0.34364 0.87643 0.02295 0.0
C579 C 0.3823 0.94324 0.03725 0.0
C580 C 0.38971 0.93159 0.0294 0.0
C581 C 0.37688 0.90994 0.02507 0.0
C582 C 0.4107 0.94167 0.02555 0.0
C583 C 0.39463 0.96672 0.04112 0.0
C584 C 0.41419 0.93911 0.01022 0.0
C585 C 0.43392 0.94966 0.0065 0.0
C586 C 0.45044 0.96307 0.01805 0.0
C587 C 0.44697 0.96493 0.03345 0.0
C588 C 0.42734 0.95414 0.03718 0.0
H589 H 0.38475 0.97333 0.04249 0.0
H590 H 0.40472 0.97159 0.05222 0.0
H591 H 0.40415 0.97353 0.03206 0.0
H592 H 0.40159 0.92941 0.00107 0.0
H593 H 0.43614 0.94792 0.99453 0.0
H594 H 0.17548 0.46482 0.05617 0.0
H595 H 0.15068 0.47264 0.04526 0.0
H596 H 0.11371 0.44662 0.08055 0.0
H597 H 0.13833 0.43895 0.09157 0.0
H598 H 0.10889 0.445 0.03414 0.0
H599 H 0.12055 0.50431 0.08362 0.0
H600 H 0.13826 0.49573 0.08109 0.0
H601 H 0.11535 0.48011 0.08893 0.0
C602 C 0.16209 0.46082 0.06162 0.0
C603 C 0.15896 0.45138 0.0748 0.0
C604 C 0.14795 0.46529 0.05538 0.0
C605 C 0.13054 0.46053 0.06226 0.0
C606 C 0.12725 0.45083 0.07525 0.0
H607 H 0.02353 0.46815 0.0452 0.0
H608 H 0.05007 0.46212 0.05487 0.0
C609 C 0.14132 0.44636 0.08148 0.0
C610 C 0.11551 0.46524 0.05576 0.0
H611 H 0.09159 0.49172 0.06481 0.0
C612 C 0.10522 0.45536 0.04077 0.0
C613 C 0.11074 0.47873 0.06446 0.0
C614 C 0.12192 0.4905 0.08036 0.0
C615 C 0.08984 0.45813 0.03442 0.0
C616 C 0.08488 0.4714 0.04322 0.0
C617 C 0.09536 0.48148 0.05813 0.0
C618 C 0.0688 0.47497 0.03721 0.0
C619 C 0.07862 0.44636 0.01853 0.0
C620 C 0.07066 0.48443 0.02419 0.0
C621 C 0.05553 0.4879 0.01862 0.0
C622 C 0.03826 0.48206 0.02601 0.0
C623 C 0.03656 0.47277 0.03917 0.0
C624 C 0.05172 0.46933 0.04473 0.0
H625 H 0.08078 0.43314 0.01492 0.0
H626 H 0.06212 0.44026 0.01809 0.0
H627 H 0.08441 0.45705 0.01007 0.0
H628 H 0.08391 0.48928 0.01839 0.0
H629 H 0.05743 0.49519 0.00852 0.0
H630 H 0.55891 0.71746 0.06086 0.0
H631 H 0.54509 0.68113 0.04953 0.0
H632 H 0.57202 0.69983 0.00851 0.0
H633 H 0.58634 0.73647 0.01992 0.0
H634 H 0.51907 0.65686 0.02258 0.0
H635 H 0.59459 0.66475 0.02181 0.0
H636 H 0.59149 0.68469 0.03225 0.0
H637 H 0.59043 0.68174 0.01164 0.0
C638 C 0.56187 0.71391 0.04939 0.0
C639 C 0.5739 0.72989 0.04135 0.0
C640 C 0.5539 0.69311 0.04293 0.0
C641 C 0.55779 0.6878 0.02829 0.0
C642 C 0.56918 0.70363 0.01995 0.0
H643 H 0.52559 0.56163 0.98643 0.0
H644 H 0.53604 0.59845 0.98927 0.0
C645 C 0.57725 0.72453 0.02645 0.0
C646 C 0.55023 0.66567 0.02214 0.0
H647 H 0.56587 0.63131 0.0135 0.0
C648 C 0.52928 0.65129 0.02044 0.0
C649 C 0.5636 0.65846 0.01932 0.0
C650 C 0.5863 0.67313 0.02144 0.0
C651 C 0.52139 0.62983 0.01642 0.0
C652 C 0.53482 0.6226 0.01421 0.0
C653 C 0.55566 0.63698 0.01523 0.0
C654 C 0.52774 0.60018 0.01212 0.0
C655 C 0.49877 0.61503 0.01482 0.0
C656 C 0.51981 0.5891 0.0241 0.0
C657 C 0.51396 0.56819 0.02258 0.0
C658 C 0.51593 0.55793 0.00903 0.0
C659 C 0.5238 0.56905 0.99699 0.0
C660 C 0.52979 0.59007 0.99858 0.0
H661 H 0.49032 0.62295 0.01268 0.0
H662 H 0.49359 0.60171 0.00527 0.0
H663 H 0.4949 0.60878 0.02568 0.0
H664 H 0.51846 0.59675 0.03475 0.0
H665 H 0.50799 0.56011 0.03208 0.0
H666 H 0.83129 0.25538 0.97623 0.0
H667 H 0.85366 0.29315 0.98402 0.0
H668 H 0.89959 0.29105 0.95994 0.0
H669 H 0.87735 0.25344 0.95197 0.0
H670 H 0.8939 0.3179 0.00046 0.0
H671 H 0.88977 0.3326 0.94053 0.0
H672 H 0.87235 0.30802 0.94597 0.0
H673 H 0.89749 0.3143 0.94299 0.0
C674 C 0.84621 0.26293 0.9727 0.0
C675 C 0.85246 0.25143 0.96335 0.0
C676 C 0.85896 0.2845 0.97715 0.0
C677 C 0.87809 0.2949 0.97228 0.0
C678 C 0.8847 0.28335 0.96353 0.0
H679 H 0.97431 0.42422 0.98132 0.0
H680 H 0.9529 0.38621 0.97531 0.0
C681 C 0.872 0.26184 0.95906 0.0
C682 C 0.89099 0.31788 0.97603 0.0
H683 H 0.9131 0.36151 0.9596 0.0
C684 C 0.89805 0.32747 0.99155 0.0
C685 C 0.89634 0.33027 0.96436 0.0
C686 C 0.88848 0.32084 0.94753 0.0
C687 C 0.9107 0.34918 0.99571 0.0
C688 C 0.91609 0.36156 0.98403 0.0
C689 C 0.90899 0.35195 0.96851 0.0
C690 C 0.92894 0.38456 0.98765 0.0
C691 C 0.91854 0.35864 0.01253 0.0
C692 C 0.92236 0.3962 0.99632 0.0
C693 C 0.93453 0.41789 0.99976 0.0
C694 C 0.95347 0.42835 0.99452 0.0
C695 C 0.95983 0.41665 0.98557 0.0
C696 C 0.94764 0.39494 0.98213 0.0
H697 H 0.91739 0.34692 0.01953 0.0
H698 H 0.93461 0.37159 0.01409 0.0
H699 H 0.90939 0.36501 0.01707 0.0
H700 H 0.90778 0.38851 0.00039 0.0
H701 H 0.9291 0.42641 0.00662 0.0
H702 H 0.71994 0.56784 0.9656 0.0
H703 H 0.68955 0.55862 0.97789 0.0
H704 H 0.6518 0.52299 0.93452 0.0
H705 H 0.68192 0.5319 0.92221 0.0
H706 H 0.65927 0.5674 0.96973 0.0
H707 H 0.62683 0.48238 0.96458 0.0
H708 H 0.65285 0.50019 0.96237 0.0
H709 H 0.63282 0.49165 0.9467 0.0
C710 C 0.70516 0.55785 0.95872 0.0
C711 C 0.70336 0.55055 0.94293 0.0
C712 C 0.68783 0.55264 0.96575 0.0
C713 C 0.66842 0.53989 0.95716 0.0
C714 C 0.66661 0.5325 0.94144 0.0
H715 H 0.54396 0.49553 0.96756 0.0
H716 H 0.57644 0.50432 0.9591 0.0
C717 C 0.68388 0.53772 0.9344 0.0
C718 C 0.65002 0.53508 0.96435 0.0
H719 H 0.60478 0.49478 0.97064 0.0
C720 C 0.64745 0.55155 0.97012 0.0
C721 C 0.63462 0.51438 0.9648 0.0
C722 C 0.63695 0.49614 0.95942 0.0
C723 C 0.62952 0.54783 0.97579 0.0
C724 C 0.61393 0.52709 0.97592 0.0
C725 C 0.61671 0.51066 0.97046 0.0
C726 C 0.59435 0.52203 0.98123 0.0
C727 C 0.62711 0.56605 0.98106 0.0
C728 C 0.59362 0.52894 0.99653 0.0
C729 C 0.57505 0.52398 0.00142 0.0
C730 C 0.55683 0.51188 0.99112 0.0
C731 C 0.55765 0.50488 0.97582 0.0
C732 C 0.57622 0.50986 0.97095 0.0
H733 H 0.63832 0.58032 0.97691 0.0
H734 H 0.61161 0.56243 0.97692 0.0
H735 H 0.62945 0.56945 0.99385 0.0
H736 H 0.60741 0.53802 0.00473 0.0
H737 H 0.57499 0.52954 0.0133 0.0
H738 H 0.40497 0.12433 0.97708 0.0
H739 H 0.41996 0.10421 0.98402 0.0
H740 H 0.47954 0.1558 0.98143 0.0
H741 H 0.46468 0.17596 0.97429 0.0
H742 H 0.4719 0.11844 0.96534 0.0
H743 H 0.45258 0.11026 0.02461 0.0
H744 H 0.43115 0.10216 0.01038 0.0
H745 H 0.45138 0.129 0.01443 0.0
C746 C 0.42128 0.13148 0.97813 0.0
C747 C 0.43364 0.15175 0.97515 0.0
C748 C 0.42983 0.12 0.98218 0.0
C749 C 0.45088 0.12863 0.98345 0.0
C750 C 0.46327 0.14891 0.9806 0.0
H751 H 0.51367 0.07021 0.01915 0.0
H752 H 0.5032 0.09494 0.01478 0.0
C753 C 0.45474 0.1604 0.97653 0.0
C754 C 0.45986 0.11608 0.98688 0.0
H755 H 0.46386 0.08836 0.01323 0.0
C756 C 0.47029 0.112 0.97587 0.0
C757 C 0.45796 0.10793 0.0007 0.0
C758 C 0.44783 0.1127 0.01329 0.0
C759 C 0.47835 0.09943 0.9781 0.0
C760 C 0.47562 0.09048 0.99159 0.0
C761 C 0.46575 0.0951 0.00283 0.0
C762 C 0.48235 0.0758 0.99402 0.0
C763 C 0.48974 0.09586 0.966 0.0
C764 C 0.47398 0.05681 0.98386 0.0
C765 C 0.47991 0.04267 0.98629 0.0
C766 C 0.49428 0.0472 0.99902 0.0
C767 C 0.50264 0.06626 0.00921 0.0
C768 C 0.49665 0.0804 0.00676 0.0
H769 H 0.49533 0.10816 0.95873 0.0
H770 H 0.50285 0.09544 0.97137 0.0
H771 H 0.47942 0.08068 0.95834 0.0
H772 H 0.46263 0.0528 0.97412 0.0
H773 H 0.47309 0.02813 0.97824 0.0
H774 H 0.71069 0.18163 0.96472 0.0
H775 H 0.6786 0.15817 0.9734 0.0
H776 H 0.68969 0.10783 0.96426 0.0
H777 H 0.72221 0.13144 0.95626 0.0
H778 H 0.64571 0.12483 0.95904 0.0
H779 H 0.67594 0.1026 0.00683 0.0
H780 H 0.69218 0.12343 0.99709 0.0
H781 H 0.6832 0.09677 0.98888 0.0
C782 C 0.70634 0.16559 0.96467 0.0
C783 C 0.71904 0.15841 0.95993 0.0
C784 C 0.68799 0.15219 0.96963 0.0
C785 C 0.68188 0.13131 0.9698 0.0
C786 C 0.69435 0.12401 0.96473 0.0
H787 H 0.55739 0.03304 0.97049 0.0
H788 H 0.5902 0.05783 0.96355 0.0
C789 C 0.71287 0.13749 0.96003 0.0
C790 C 0.66216 0.11704 0.9748 0.0
H791 H 0.64017 0.08155 0.99857 0.0
C792 C 0.64453 0.1155 0.96778 0.0
C793 C 0.66061 0.10511 0.98641 0.0
C794 C 0.67903 0.10722 0.99535 0.0
C795 C 0.6254 0.10211 0.97182 0.0
C796 C 0.62372 0.08929 0.98277 0.0
C797 C 0.64139 0.09114 0.99001 0.0
C798 C 0.60384 0.07396 0.98697 0.0
C799 C 0.60731 0.10225 0.96452 0.0
C800 C 0.6008 0.07413 0.00252 0.0
C801 C 0.5822 0.0596 0.00655 0.0
C802 C 0.56622 0.04475 0.9951 0.0
C803 C 0.56933 0.04447 0.97956 0.0
C804 C 0.58804 0.05876 0.97557 0.0
H805 H 0.61194 0.11727 0.96064 0.0
H806 H 0.59973 0.08975 0.95421 0.0
H807 H 0.59616 0.09955 0.97265 0.0
H808 H 0.61278 0.08563 0.01154 0.0
H809 H 0.58025 0.06023 0.01862 0.0
H810 H 0.85955 0.58106 0.95379 0.0
H811 H 0.88422 0.57181 0.96206 0.0
H812 H 0.83648 0.50717 0.9554 0.0
H813 H 0.81191 0.51623 0.94646 0.0
H814 H 0.88806 0.55558 0.98543 0.0
H815 H 0.87664 0.50184 0.9323 0.0
H816 H 0.86581 0.51805 0.93319 0.0
H817 H 0.8535 0.49376 0.94024 0.0
C818 C 0.85433 0.56485 0.95401 0.0
C819 C 0.83381 0.54935 0.94936 0.0
C820 C 0.86845 0.55958 0.95874 0.0
C821 C 0.86233 0.53873 0.95907 0.0
C822 C 0.84174 0.52328 0.95478 0.0
H823 H 0.93347 0.50192 0.01243 0.0
H824 H 0.90908 0.51091 0.00298 0.0
C825 C 0.82766 0.5285 0.94979 0.0
C826 C 0.87743 0.5333 0.96432 0.0
H827 H 0.89549 0.50131 0.95453 0.0
C828 C 0.88977 0.5438 0.97862 0.0
C829 C 0.87996 0.5182 0.95533 0.0
C830 C 0.86843 0.50749 0.93935 0.0
C831 C 0.90431 0.53944 0.98427 0.0
C832 C 0.90607 0.52354 0.97566 0.0
C833 C 0.89397 0.51328 0.96125 0.0
C834 C 0.92053 0.5175 0.98127 0.0
C835 C 0.91794 0.55231 0.99922 0.0
C836 C 0.93453 0.51727 0.97196 0.0
C837 C 0.94818 0.51164 0.97719 0.0
C838 C 0.94822 0.50629 0.99191 0.0
C839 C 0.93402 0.50625 0.00113 0.0
C840 C 0.92015 0.51154 0.99578 0.0
H841 H 0.9192 0.56769 0.00161 0.0
H842 H 0.91142 0.54403 0.00887 0.0
H843 H 0.93341 0.55495 0.99907 0.0
H844 H 0.93506 0.52168 0.96068 0.0
H845 H 0.95895 0.51187 0.96981 0.0
H846 H 0.41219 0.26248 0.96346 0.0
H847 H 0.42223 0.29821 0.97381 0.0
H848 H 0.47779 0.30851 0.99767 0.0
H849 H 0.46809 0.27282 0.98705 0.0
H850 H 0.43255 0.32135 0.0033 0.0
H851 H 0.49786 0.35278 0.97023 0.0
H852 H 0.47832 0.32557 0.96688 0.0
H853 H 0.49786 0.33629 0.98325 0.0
C854 C 0.42647 0.27224 0.97103 0.0
C855 C 0.4395 0.26491 0.97424 0.0
C856 C 0.43215 0.29266 0.97696 0.0
C857 C 0.45093 0.30611 0.98623 0.0
C858 C 0.46344 0.29849 0.99024 0.0
H859 H 0.51119 0.44065 0.01613 0.0
H860 H 0.50196 0.40431 0.01381 0.0
C861 C 0.45782 0.27807 0.98423 0.0
C862 C 0.45776 0.32836 0.99086 0.0
H863 H 0.49309 0.37715 0.98553 0.0
C864 C 0.44586 0.33358 0.99951 0.0
C865 C 0.4751 0.34426 0.98584 0.0
C866 C 0.48796 0.33952 0.97592 0.0
C867 C 0.45074 0.35429 0.00316 0.0
C868 C 0.46782 0.37008 0.99786 0.0
C869 C 0.48003 0.36495 0.98958 0.0
C870 C 0.47279 0.39189 8e-05 0.0
C871 C 0.43759 0.35913 0.0126 0.0
C872 C 0.45947 0.39688 0.99301 0.0
C873 C 0.46472 0.41762 0.99423 0.0
C874 C 0.48342 0.43372 0.00251 0.0
C875 C 0.49666 0.42862 0.00968 0.0
C876 C 0.49142 0.40788 0.0084 0.0
H877 H 0.42854 0.34652 0.01912 0.0
H878 H 0.44691 0.37399 0.02087 0.0
H879 H 0.42688 0.36076 0.00478 0.0
H880 H 0.44519 0.38476 0.98628 0.0
H881 H 0.45419 0.42101 0.98856 0.0
H882 H 0.14304 0.73041 0.04324 0.0
H883 H 0.11855 0.69321 0.03523 0.0
H884 H 0.12245 0.68423 0.08239 0.0
H885 H 0.14684 0.72156 0.09058 0.0
H886 H 0.12388 0.65999 0.0389 0.0
H887 H 0.06115 0.656 0.06883 0.0
H888 H 0.08248 0.6803 0.06588 0.0
H889 H 0.08512 0.66747 0.08093 0.0
C890 C 0.13865 0.72057 0.05194 0.0
C891 C 0.14684 0.72898 0.06757 0.0
C892 C 0.12466 0.69931 0.04733 0.0
C893 C 0.1185 0.68603 0.05824 0.0
C894 C 0.12673 0.69429 0.07384 0.0
H895 H 0.0355 0.55246 0.04933 0.0
H896 H 0.06026 0.58935 0.05881 0.0
C897 C 0.14074 0.7156 0.07848 0.0
C898 C 0.10382 0.66347 0.05315 0.0
H899 H 0.05642 0.62405 0.05648 0.0
C900 C 0.10912 0.65212 0.04272 0.0
C901 C 0.08461 0.65327 0.0582 0.0
C902 C 0.07785 0.66487 0.06898 0.0
C903 C 0.09575 0.63077 0.03726 0.0
C904 C 0.07645 0.62063 0.04218 0.0
C905 C 0.07123 0.63191 0.05274 0.0
C906 C 0.06139 0.59833 0.03636 0.0
C907 C 0.1025 0.6192 0.02647 0.0
C908 C 0.05361 0.59125 0.02062 0.0
C909 C 0.03946 0.57018 0.01514 0.0
C910 C 0.03275 0.55583 0.02534 0.0
C911 C 0.04037 0.56307 0.04115 0.0
C912 C 0.05451 0.58414 0.04661 0.0
H913 H 0.11927 0.62778 0.02701 0.0
H914 H 0.09731 0.60347 0.0292 0.0
H915 H 0.09581 0.61728 0.01445 0.0
H916 H 0.05843 0.60204 0.01257 0.0
H917 H 0.03383 0.56517 0.00292 0.0
H918 H 0.31404 0.47738 0.07889 0.0
H919 H 0.34548 0.48403 0.06939 0.0
H920 H 0.31234 0.42566 0.03764 0.0
H921 H 0.28088 0.41866 0.04731 0.0
H922 H 0.3473 0.43157 0.05241 0.0
H923 H 0.36302 0.50206 0.02878 0.0
H924 H 0.36006 0.50394 0.04882 0.0
H925 H 0.33891 0.48486 0.03466 0.0
C926 C 0.31342 0.46596 0.06987 0.0
C927 C 0.29491 0.44753 0.06381 0.0
C928 C 0.3314 0.46986 0.06437 0.0
C929 C 0.33122 0.45554 0.05259 0.0
C930 C 0.31283 0.43699 0.04667 0.0
H931 H 0.4294 0.48143 0.99854 0.0
H932 H 0.39724 0.47326 0.00744 0.0
C933 C 0.29485 0.43303 0.05221 0.0
C934 C 0.35025 0.4597 0.04661 0.0
H935 H 0.38952 0.49475 0.03009 0.0
C936 C 0.3565 0.44534 0.04747 0.0
C937 C 0.36209 0.47751 0.03995 0.0
C938 C 0.35561 0.49288 0.03784 0.0
C939 C 0.37442 0.4485 0.04212 0.0
C940 C 0.38667 0.46673 0.03603 0.0
C941 C 0.38024 0.48089 0.03491 0.0
C942 C 0.40615 0.47137 0.03065 0.0
C943 C 0.37986 0.43207 0.04279 0.0
C944 C 0.42195 0.47324 0.04077 0.0
C945 C 0.44032 0.47778 0.0357 0.0
C946 C 0.44336 0.4808 0.02042 0.0
C947 C 0.42759 0.47917 0.01037 0.0
C948 C 0.40918 0.47452 0.01544 0.0
H949 H 0.36636 0.41674 0.04349 0.0
H950 H 0.38678 0.43019 0.03253 0.0
H951 H 0.391 0.43677 0.05325 0.0
H952 H 0.42017 0.47141 0.05267 0.0
H953 H 0.45219 0.47913 0.04382 0.0
H954 H 0.59132 0.86142 0.04704 0.0
H955 H 0.58235 0.88675 0.04126 0.0
H956 H 0.51915 0.83812 0.03152 0.0
H957 H 0.52796 0.81287 0.03793 0.0
H958 H 0.56527 0.8903 0.01614 0.0
H959 H 0.51598 0.87999 0.06137 0.0
H960 H 0.53164 0.86873 0.06053 0.0
H961 H 0.50748 0.85614 0.04839 0.0
C962 C 0.5755 0.85613 0.04369 0.0
C963 C 0.56032 0.8352 0.04307 0.0
C964 C 0.57039 0.87062 0.04039 0.0
C965 C 0.55003 0.86445 0.03627 0.0
C966 C 0.5349 0.8434 0.03514 0.0
H967 H 0.51428 0.94062 0.99264 0.0
H968 H 0.52195 0.91426 0.99806 0.0
C969 C 0.53997 0.82895 0.03869 0.0
C970 C 0.54476 0.88005 0.03297 0.0
H971 H 0.51532 0.90001 0.04277 0.0
C972 C 0.55441 0.89248 0.02202 0.0
C973 C 0.53084 0.88315 0.04082 0.0
C974 C 0.52105 0.87145 0.05355 0.0
C975 C 0.55044 0.90781 0.0186 0.0
C976 C 0.53585 0.91027 0.02595 0.0
C977 C 0.52632 0.89795 0.037 0.0
C978 C 0.53058 0.92585 0.02264 0.0
C979 C 0.56237 0.92156 0.00747 0.0
C980 C 0.532 0.9406 0.03473 0.0
C981 C 0.52718 0.95539 0.03171 0.0
C982 C 0.52099 0.95583 0.01651 0.0
C983 C 0.51928 0.94087 0.00444 0.0
C984 C 0.5238 0.92588 0.00751 0.0
H985 H 0.57689 0.92206 0.0067 0.0
H986 H 0.55336 0.91523 0.99579 0.0
H987 H 0.56581 0.93772 0.01094 0.0
H988 H 0.53709 0.94082 0.04651 0.0
H989 H 0.52864 0.9667 0.04125 0.0
H990 H 0.96804 0.2614 0.38842 0.0
H991 H 0.00162 0.27423 0.38069 0.0
H992 H 0.99495 0.21431 0.38167 0.0
H993 H 0.96107 0.20117 0.389 0.0
H994 H 0.03543 0.27798 0.39501 0.0
H995 H 0.01009 0.2239 0.33906 0.0
H996 H 0.99262 0.22686 0.35016 0.0
H997 H 0.0024 0.21102 0.35535 0.0
C998 C 0.9737 0.25093 0.38699 0.0
C999 C 0.96183 0.23022 0.38922 0.0
C1000 C 0.9929 0.25829 0.38257 0.0
C1001 C 1.00065 0.24513 0.38033 0.0
C1002 C 0.98907 0.22459 0.38295 0.0
H1003 H 0.12895 0.29405 0.37344 0.0
H1004 H 0.09532 0.27662 0.38149 0.0
C1005 C 0.96977 0.21715 0.38725 0.0
C1006 C 0.02095 0.25308 0.37541 0.0
H1007 H 0.04558 0.24534 0.34692 0.0
C1008 C 0.03766 0.27084 0.3845 0.0
C1009 C 0.02378 0.24388 0.3616 0.0
C1010 C 0.00626 0.22549 0.35089 0.0
C1011 C 0.05712 0.27971 0.38015 0.0
C1012 C 0.06004 0.27022 0.36653 0.0
C1013 C 0.04334 0.25244 0.35745 0.0
C1014 C 0.08014 0.27912 0.36115 0.0
C1015 C 0.0742 0.29954 0.38994 0.0
C1016 C 0.08261 0.28539 0.3467 0.0
C1017 C 0.10175 0.29506 0.34194 0.0
C1018 C 0.11881 0.29871 0.35158 0.0
C1019 C 0.11616 0.29168 0.3658 0.0
C1020 C 0.09697 0.28184 0.37048 0.0
H1021 H 0.06844 0.30764 0.39749 0.0
H1022 H 0.08345 0.29576 0.39747 0.0
H1023 H 0.08423 0.31042 0.38265 0.0
H1024 H 0.0698 0.28333 0.33927 0.0
H1025 H 0.10324 0.30026 0.33092 0.0
H1026 H 0.84646 0.82475 0.42131 0.0
H1027 H 0.82077 0.83149 0.41083 0.0
H1028 H 0.79569 0.77611 0.37631 0.0
H1029 H 0.82134 0.76919 0.3867 0.0
H1030 H 0.81124 0.83601 0.37966 0.0
H1031 H 0.74737 0.76883 0.39935 0.0
H1032 H 0.77358 0.77922 0.40694 0.0
H1033 H 0.76314 0.763 0.38825 0.0
C1034 C 0.83558 0.81406 0.41142 0.0
C1035 C 0.83589 0.79636 0.4049 0.0
C1036 C 0.82091 0.81795 0.40546 0.0
C1037 C 0.80618 0.80414 0.39295 0.0
C1038 C 0.80677 0.78679 0.38612 0.0
H1039 H 0.72118 0.82096 0.33698 0.0
H1040 H 0.74781 0.81514 0.34666 0.0
C1041 C 0.82151 0.78294 0.39202 0.0
C1042 C 0.79002 0.80776 0.38726 0.0
H1043 H 0.73894 0.78786 0.38422 0.0
C1044 C 0.79543 0.82549 0.38063 0.0
C1045 C 0.76945 0.79414 0.38875 0.0
C1046 C 0.76295 0.77529 0.39631 0.0
C1047 C 0.78074 0.8298 0.37523 0.0
C1048 C 0.76012 0.81594 0.37642 0.0
C1049 C 0.75475 0.79838 0.38325 0.0
C1050 C 0.7439 0.81941 0.37061 0.0
C1051 C 0.78739 0.84929 0.36847 0.0
C1052 C 0.7326 0.82335 0.38086 0.0
C1053 C 0.71732 0.8267 0.37538 0.0
C1054 C 0.71293 0.82595 0.35951 0.0
C1055 C 0.72415 0.82171 0.34927 0.0
C1056 C 0.73947 0.81847 0.35478 0.0
H1057 H 0.80397 0.86054 0.37151 0.0
H1058 H 0.7838 0.84508 0.35571 0.0
H1059 H 0.7792 0.85705 0.37254 0.0
H1060 H 0.73573 0.82402 0.39312 0.0
H1061 H 0.70895 0.82984 0.38358 0.0
H1062 H 0.22997 0.05495 0.39887 0.0
H1063 H 0.21549 0.01838 0.38788 0.0
H1064 H 0.24189 0.0358 0.34645 0.0
H1065 H 0.25689 0.07265 0.35754 0.0
H1066 H 0.189 0.99379 0.36138 0.0
H1067 H 0.26381 0.00032 0.35972 0.0
H1068 H 0.26124 0.02073 0.37001 0.0
H1069 H 0.25988 0.0173 0.34937 0.0
C1070 C 0.23266 0.05106 0.38739 0.0
C1071 C 0.24476 0.06674 0.37914 0.0
C1072 C 0.22433 0.03012 0.38111 0.0
C1073 C 0.22789 0.02439 0.36646 0.0
C1074 C 0.23932 0.03992 0.35792 0.0
H1075 H 0.19334 0.89837 0.32281 0.0
H1076 H 0.20444 0.93538 0.32663 0.0
C1077 C 0.24777 0.06095 0.36423 0.0
C1078 C 0.21996 0.00212 0.36048 0.0
H1079 H 0.23471 0.96717 0.35111 0.0
C1080 C 0.19898 0.98799 0.35902 0.0
C1081 C 0.23302 0.99459 0.35739 0.0
C1082 C 0.25576 0.00895 0.3593 0.0
C1083 C 0.19074 0.96648 0.35486 0.0
C1084 C 0.20386 0.95894 0.35224 0.0
C1085 C 0.22474 0.97307 0.35313 0.0
C1086 C 0.1964 0.93641 0.34962 0.0
C1087 C 0.16809 0.95196 0.35344 0.0
C1088 C 0.18839 0.92486 0.36136 0.0
C1089 C 0.18216 0.9038 0.35927 0.0
C1090 C 0.18382 0.89389 0.34539 0.0
C1091 C 0.19178 0.90551 0.33361 0.0
C1092 C 0.19814 0.92664 0.33576 0.0
H1093 H 0.15984 0.96019 0.35175 0.0
H1094 H 0.16258 0.93883 0.34367 0.0
H1095 H 0.16434 0.94539 0.36419 0.0
H1096 H 0.18726 0.93223 0.37224 0.0
H1097 H 0.17613 0.89534 0.36859 0.0
H1098 H 0.50793 0.59886 0.31381 0.0
H1099 H 0.53352 0.63578 0.32272 0.0
H1100 H 0.52535 0.64865 0.27739 0.0
H1101 H 0.49971 0.61201 0.26844 0.0
H1102 H 0.56986 0.659 0.3108 0.0
H1103 H 0.52152 0.69309 0.30558 0.0
H1104 H 0.51114 0.66568 0.30559 0.0
H1105 H 0.51905 0.67627 0.28836 0.0
C1106 C 0.51141 0.6096 0.30579 0.0
C1107 C 0.50175 0.60251 0.29042 0.0
C1108 C 0.52605 0.63066 0.31089 0.0
C1109 C 0.53112 0.64496 0.30076 0.0
C1110 C 0.52137 0.63795 0.28548 0.0
H1111 H 0.61975 0.77545 0.30363 0.0
H1112 H 0.59344 0.73856 0.29606 0.0
C1113 C 0.50678 0.61695 0.28037 0.0
C1114 C 0.54737 0.66704 0.30586 0.0
H1115 H 0.55726 0.71679 0.30922 0.0
C1116 C 0.5671 0.67165 0.31059 0.0
C1117 C 0.54371 0.68348 0.30549 0.0
C1118 C 0.52268 0.67943 0.30112 0.0
C1119 C 0.58338 0.6923 0.31463 0.0
C1120 C 0.57975 0.70874 0.31412 0.0
C1121 C 0.56 0.70413 0.3095 0.0
C1122 C 0.59617 0.73084 0.31857 0.0
C1123 C 0.60442 0.69638 0.31903 0.0
C1124 C 0.60634 0.73868 0.33373 0.0
C1125 C 0.62136 0.75968 0.33808 0.0
C1126 C 0.62643 0.77331 0.32736 0.0
C1127 C 0.61627 0.76537 0.31215 0.0
C1128 C 0.60121 0.74433 0.30781 0.0
H1129 H 0.60544 0.68249 0.31512 0.0
H1130 H 0.61583 0.70964 0.31404 0.0
H1131 H 0.60837 0.70043 0.33177 0.0
H1132 H 0.60242 0.7286 0.34227 0.0
H1133 H 0.62879 0.76527 0.34992 0.0
H1134 H 0.38427 0.91084 0.29305 0.0
H1135 H 0.35426 0.90456 0.30485 0.0
H1136 H 0.32197 0.84055 0.28184 0.0
H1137 H 0.35186 0.84662 0.27002 0.0
H1138 H 0.31548 0.89055 0.28818 0.0
H1139 H 0.31182 0.83685 0.32725 0.0
H1140 H 0.33453 0.8533 0.31931 0.0
H1141 H 0.31423 0.82968 0.30768 0.0
C1142 C 0.37088 0.89535 0.29065 0.0
C1143 C 0.37048 0.87923 0.28058 0.0
C1144 C 0.35374 0.89181 0.29738 0.0
C1145 C 0.33597 0.87205 0.29433 0.0
C1146 C 0.33563 0.85583 0.28454 0.0
H1147 H 0.21165 0.83549 0.30113 0.0
H1148 H 0.24412 0.84371 0.29286 0.0
C1149 C 0.35272 0.85937 0.27774 0.0
C1150 C 0.31739 0.86869 0.30062 0.0
H1151 H 0.2829 0.84008 0.32337 0.0
C1152 C 0.30842 0.87962 0.29595 0.0
C1153 C 0.30832 0.85455 0.31085 0.0
C1154 C 0.31777 0.84303 0.31671 0.0
C1155 C 0.2903 0.87639 0.30094 0.0
C1156 C 0.28085 0.86172 0.31074 0.0
C1157 C 0.2901 0.8512 0.31575 0.0
C1158 C 0.26122 0.85693 0.31578 0.0
C1159 C 0.28143 0.88875 0.29574 0.0
C1160 C 0.26002 0.86136 0.33144 0.0
C1161 C 0.24147 0.8567 0.33623 0.0
C1162 C 0.22371 0.8473 0.32544 0.0
C1163 C 0.22499 0.84276 0.30975 0.0
C1164 C 0.24356 0.84753 0.30498 0.0
H1165 H 0.29281 0.9027 0.29136 0.0
H1166 H 0.26867 0.8788 0.28627 0.0
H1167 H 0.27542 0.89384 0.30533 0.0
H1168 H 0.27348 0.86853 0.33996 0.0
H1169 H 0.24106 0.86033 0.34841 0.0
H1170 H 0.07727 0.46627 0.31271 0.0
H1171 H 0.08976 0.44385 0.31928 0.0
H1172 H 0.148 0.48626 0.30672 0.0
H1173 H 0.13578 0.50891 0.30034 0.0
H1174 H 0.10428 0.42416 0.30011 0.0
H1175 H 0.16308 0.47821 0.3495 0.0
H1176 H 0.14353 0.48232 0.3417 0.0
H1177 H 0.16544 0.48909 0.3322 0.0
C1178 C 0.09279 0.47091 0.31146 0.0
C1179 C 0.10556 0.48942 0.30606 0.0
C1180 C 0.09988 0.45807 0.3152 0.0
C1181 C 0.11988 0.46355 0.31369 0.0
C1182 C 0.13265 0.48197 0.30828 0.0
H1183 H 0.16708 0.38093 0.30792 0.0
H1184 H 0.15554 0.40458 0.30283 0.0
C1185 C 0.12559 0.49483 0.30455 0.0
C1186 C 0.12716 0.44961 0.31724 0.0
H1187 H 0.16334 0.44765 0.33988 0.0
C1188 C 0.11714 0.42925 0.30885 0.0
C1189 C 0.1438 0.45624 0.32876 0.0
C1190 C 0.15449 0.47759 0.33867 0.0
C1191 C 0.12353 0.41542 0.31149 0.0
C1192 C 0.1406 0.42228 0.32264 0.0
C1193 C 0.15041 0.44252 0.33122 0.0
C1194 C 0.14825 0.40851 0.32581 0.0
C1195 C 0.11173 0.39347 0.3025 0.0
C1196 C 0.14859 0.40343 0.34055 0.0
C1197 C 0.15532 0.39007 0.34355 0.0
C1198 C 0.16191 0.38157 0.33185 0.0
C1199 C 0.16198 0.38708 0.31716 0.0
C1200 C 0.15528 0.40049 0.3142 0.0
H1201 H 0.0963 0.38917 0.29745 0.0
H1202 H 0.11986 0.3922 0.2929 0.0
H1203 H 0.11029 0.3821 0.30994 0.0
H1204 H 0.14333 0.40956 0.34969 0.0
H1205 H 0.1551 0.38621 0.35499 0.0
H1206 H 0.39783 0.49031 0.3077 0.0
H1207 H 0.36663 0.4652 0.3166 0.0
H1208 H 0.33196 0.48006 0.28611 0.0
H1209 H 0.36313 0.50565 0.27751 0.0
H1210 H 0.32009 0.47795 0.31403 0.0
H1211 H 0.32408 0.40814 0.2938 0.0
H1212 H 0.34612 0.42798 0.30678 0.0
H1213 H 0.34037 0.43297 0.28827 0.0
C1214 C 0.38355 0.48819 0.30286 0.0
C1215 C 0.38294 0.4999 0.29185 0.0
C1216 C 0.36571 0.47373 0.30789 0.0
C1217 C 0.3469 0.47044 0.3018 0.0
C1218 C 0.34629 0.48227 0.29092 0.0
H1219 H 0.2283 0.3651 0.30611 0.0
H1220 H 0.26039 0.39093 0.29885 0.0
C1221 C 0.36413 0.49688 0.28601 0.0
C1222 C 0.32784 0.45495 0.30692 0.0
H1223 H 0.29874 0.40353 0.3095 0.0
C1224 C 0.31539 0.46166 0.31302 0.0
C1225 C 0.3216 0.43365 0.3054 0.0
C1226 C 0.33363 0.42518 0.29807 0.0
C1227 C 0.29691 0.44769 0.31768 0.0
C1228 C 0.29099 0.42652 0.31661 0.0
C1229 C 0.3034 0.4198 0.31047 0.0
C1230 C 0.27161 0.4109 0.32125 0.0
C1231 C 0.28367 0.45567 0.32327 0.0
C1232 C 0.26732 0.41338 0.33633 0.0
C1233 C 0.24886 0.39872 0.34048 0.0
C1234 C 0.23451 0.3811 0.3297 0.0
C1235 C 0.23904 0.37844 0.31472 0.0
C1236 C 0.25739 0.3932 0.31053 0.0
H1237 H 0.28755 0.47048 0.31932 0.0
H1238 H 0.26738 0.44408 0.31918 0.0
H1239 H 0.28597 0.45872 0.33607 0.0
H1240 H 0.27827 0.42662 0.34491 0.0
H1241 H 0.2459 0.40112 0.35216 0.0
H1242 H 0.48374 0.85201 0.2732 0.0
H1243 H 0.50863 0.84348 0.28242 0.0
H1244 H 0.55012 0.908 0.30245 0.0
H1245 H 0.52516 0.91658 0.2936 0.0
H1246 H 0.54668 0.85682 0.27588 0.0
H1247 H 0.54943 0.87945 0.33849 0.0
H1248 H 0.53011 0.87678 0.32424 0.0
H1249 H 0.55486 0.90008 0.32792 0.0
C1250 C 0.49812 0.86438 0.27964 0.0
C1251 C 0.5024 0.88496 0.28276 0.0
C1252 C 0.51235 0.85947 0.28488 0.0
C1253 C 0.53112 0.87503 0.29336 0.0
C1254 C 0.53555 0.89564 0.29628 0.0
H1255 H 0.63893 0.86704 0.30872 0.0
H1256 H 0.61302 0.87409 0.29942 0.0
C1257 C 0.5213 0.90054 0.29113 0.0
C1258 C 0.5462 0.86974 0.29885 0.0
H1259 H 0.57487 0.87266 0.33116 0.0
C1260 C 0.55278 0.86019 0.28798 0.0
C1261 C 0.55394 0.87387 0.31466 0.0
C1262 C 0.54658 0.88291 0.32702 0.0
C1263 C 0.56715 0.85499 0.29244 0.0
C1264 C 0.57549 0.85988 0.30818 0.0
C1265 C 0.56864 0.8691 0.31908 0.0
C1266 C 0.59118 0.8554 0.31364 0.0
C1267 C 0.57294 0.84394 0.28029 0.0
C1268 C 0.58778 0.84299 0.32503 0.0
C1269 C 0.60267 0.83913 0.33053 0.0
C1270 C 0.62132 0.84764 0.32475 0.0
C1271 C 0.6247 0.8601 0.31335 0.0
C1272 C 0.60983 0.86405 0.30793 0.0
H1273 H 0.56116 0.83604 0.26993 0.0
H1274 H 0.58729 0.8555 0.27657 0.0
H1275 H 0.57533 0.83219 0.28484 0.0
H1276 H 0.57354 0.83622 0.32966 0.0
H1277 H 0.59953 0.82947 0.3393 0.0
H1278 H 0.14231 0.61215 0.31431 0.0
H1279 H 0.15039 0.64723 0.32509 0.0
H1280 H 0.09179 0.63273 0.30408 0.0
H1281 H 0.08343 0.59763 0.29357 0.0
H1282 H 0.15302 0.67573 0.30796 0.0
H1283 H 0.09543 0.66151 0.34679 0.0
H1284 H 0.10087 0.64182 0.3395 0.0
H1285 H 0.08432 0.6466 0.32775 0.0
C1286 C 0.13099 0.6163 0.31223 0.0
C1287 C 0.11224 0.60211 0.30305 0.0
C1288 C 0.13564 0.63635 0.31839 0.0
C1289 C 0.1216 0.64251 0.31554 0.0
C1290 C 0.10268 0.62818 0.30674 0.0
H1291 H 0.12254 0.75689 0.31977 0.0
H1292 H 0.11459 0.72084 0.31581 0.0
C1293 C 0.09799 0.60814 0.30063 0.0
C1294 C 0.1274 0.66444 0.32042 0.0
H1295 H 0.11205 0.6951 0.33915 0.0
C1296 C 0.14425 0.68001 0.31498 0.0
C1297 C 0.11586 0.66996 0.32952 0.0
C1298 C 0.09824 0.65411 0.33636 0.0
C1299 C 0.14946 0.70085 0.31792 0.0
C1300 C 0.13762 0.70626 0.32667 0.0
C1301 C 0.12101 0.69081 0.33238 0.0
C1302 C 0.14208 0.72788 0.3297 0.0
C1303 C 0.16719 0.71683 0.31122 0.0
C1304 C 0.16001 0.74362 0.339 0.0
C1305 C 0.16461 0.76419 0.34129 0.0
C1306 C 0.15131 0.76937 0.33432 0.0
C1307 C 0.13314 0.75345 0.32524 0.0
C1308 C 0.12854 0.73285 0.323 0.0
H1309 H 0.17226 0.7095 0.30232 0.0
H1310 H 0.16319 0.72714 0.30598 0.0
H1311 H 0.18012 0.7267 0.32058 0.0
H1312 H 0.17052 0.74 0.34441 0.0
H1313 H 0.17868 0.77605 0.34841 0.0
H1314 H 0.83993 0.06768 0.39882 0.0
H1315 H 0.81666 0.03079 0.38817 0.0
H1316 H 0.76909 0.03225 0.41023 0.0
H1317 H 0.79212 0.0692 0.42076 0.0
H1318 H 0.79461 0.99665 0.4028 0.0
H1319 H 0.74353 0.00953 0.3649 0.0
H1320 H 0.7684 0.03039 0.37401 0.0
H1321 H 0.74744 0.0207 0.38486 0.0
C1322 C 0.82453 0.06016 0.40145 0.0
C1323 C 0.81783 0.07144 0.41053 0.0
C1324 C 0.81127 0.03907 0.39536 0.0
C1325 C 0.79107 0.02892 0.39817 0.0
C1326 C 0.7845 0.03993 0.40764 0.0
H1327 H 0.68663 0.90431 0.37181 0.0
H1328 H 0.71091 0.9408 0.38289 0.0
C1329 C 0.79773 0.06102 0.41372 0.0
C1330 C 0.77683 0.00681 0.39115 0.0
H1331 H 0.73245 0.97449 0.36688 0.0
C1332 C 0.78107 0.99178 0.39489 0.0
C1333 C 0.75922 0.00057 0.38079 0.0
C1334 C 0.75442 0.01614 0.37576 0.0
C1335 C 0.76788 0.97056 0.38881 0.0
C1336 C 0.75018 0.96432 0.37858 0.0
C1337 C 0.74601 0.97936 0.37477 0.0
C1338 C 0.73565 0.94222 0.3718 0.0
C1339 C 0.77273 0.95494 0.39364 0.0
C1340 C 0.74147 0.93104 0.36172 0.0
C1341 C 0.72762 0.91018 0.35532 0.0
C1342 C 0.70769 0.90016 0.35888 0.0
C1343 C 0.70187 0.91152 0.36885 0.0
C1344 C 0.71571 0.93237 0.3752 0.0
H1345 H 0.78426 0.96167 0.40413 0.0
H1346 H 0.75886 0.941 0.39593 0.0
H1347 H 0.77885 0.9498 0.38418 0.0
H1348 H 0.7567 0.93849 0.35874 0.0
H1349 H 0.73258 0.90191 0.34765 0.0
H1350 H 0.94923 0.75932 0.38338 0.0
H1351 H 0.98036 0.76541 0.37358 0.0
H1352 H 0.01528 0.82164 0.40736 0.0
H1353 H 0.98418 0.81589 0.41704 0.0
H1354 H 0.02627 0.82738 0.37876 0.0
H1355 H 0.02383 0.75705 0.39336 0.0
H1356 H 0.00126 0.7514 0.38158 0.0
H1357 H 0.00788 0.76597 0.40084 0.0
C1358 C 0.96354 0.77294 0.38878 0.0
C1359 C 0.96421 0.78708 0.40104 0.0
C1360 C 0.98135 0.77633 0.38321 0.0
C1361 C 1.00021 0.7938 0.3899 0.0
C1362 C 0.00091 0.808 0.40207 0.0
H1363 H 0.11902 0.81364 0.37808 0.0
H1364 H 0.08773 0.80728 0.38761 0.0
C1365 C 0.98311 0.80467 0.4076 0.0
C1366 C 0.01918 0.79758 0.38398 0.0
H1367 H 0.04841 0.7763 0.37766 0.0
C1368 C 0.03114 0.81624 0.37855 0.0
C1369 C 0.02567 0.78315 0.3839 0.0
C1370 C 0.01411 0.76336 0.39037 0.0
C1371 C 0.04928 0.82077 0.37287 0.0
C1372 C 0.05541 0.80603 0.37232 0.0
C1373 C 0.04358 0.78748 0.37793 0.0
C1374 C 0.07433 0.80978 0.36632 0.0
C1375 C 0.0619 0.8415 0.36785 0.0
C1376 C 0.07713 0.81303 0.3511 0.0
C1377 C 0.09509 0.81678 0.34561 0.0
C1378 C 0.11052 0.81712 0.35519 0.0
C1379 C 0.10748 0.81348 0.37035 0.0
C1380 C 0.08958 0.80983 0.37584 0.0
H1381 H 0.05807 0.85304 0.37284 0.0
H1382 H 0.07834 0.84795 0.37128 0.0
H1383 H 0.05894 0.83939 0.3551 0.0
H1384 H 0.06538 0.81258 0.34343 0.0
H1385 H 0.09683 0.81937 0.33384 0.0
H1386 H 0.2603 0.19466 0.37067 0.0
H1387 H 0.25001 0.21852 0.36348 0.0
H1388 H 0.18955 0.17736 0.37305 0.0
H1389 H 0.19978 0.15357 0.38054 0.0
H1390 H 0.21993 0.21302 0.34114 0.0
H1391 H 0.20613 0.23276 0.40007 0.0
H1392 H 0.2193 0.21911 0.39621 0.0
H1393 H 0.19209 0.20543 0.39222 0.0
C1394 C 0.24478 0.19063 0.37119 0.0
C1395 C 0.2309 0.17231 0.37631 0.0
C1396 C 0.23893 0.20427 0.36706 0.0
C1397 C 0.21913 0.19987 0.36799 0.0
C1398 C 0.20503 0.18125 0.37257 0.0
H1399 H 0.16681 0.26676 0.3303 0.0
H1400 H 0.17448 0.24024 0.33535 0.0
C1401 C 0.21089 0.16763 0.37677 0.0
C1402 C 0.21341 0.215 0.36444 0.0
H1403 H 0.19739 0.24658 0.38034 0.0
C1404 C 0.21497 0.22035 0.34968 0.0
C1405 C 0.20721 0.22473 0.3757 0.0
C1406 C 0.20624 0.2204 0.39198 0.0
C1407 C 0.21042 0.23514 0.34585 0.0
C1408 C 0.20381 0.24453 0.35701 0.0
C1409 C 0.2023 0.23921 0.37177 0.0
C1410 C 0.19908 0.2605 0.35383 0.0
C1411 C 0.21323 0.24097 0.33003 0.0
C1412 C 0.21004 0.28052 0.36279 0.0
C1413 C 0.2056 0.29565 0.36003 0.0
C1414 C 0.19004 0.29103 0.34827 0.0
C1415 C 0.17898 0.27088 0.33938 0.0
C1416 C 0.18341 0.25573 0.34218 0.0
H1417 H 0.22307 0.23633 0.3243 0.0
H1418 H 0.19823 0.23288 0.32268 0.0
H1419 H 0.22002 0.25799 0.33068 0.0
H1420 H 0.22214 0.28448 0.37188 0.0
H1421 H 0.2144 0.31096 0.36714 0.0
H1422 H 0.63629 0.59008 0.7297 0.0
H1423 H 0.6696 0.60238 0.72158 0.0
H1424 H 0.65123 0.53935 0.7022 0.0
H1425 H 0.61796 0.52682 0.71062 0.0
H1426 H 0.68971 0.56085 0.71794 0.0
H1427 H 0.68077 0.60715 0.67752 0.0
H1428 H 0.67746 0.61425 0.69678 0.0
H1429 H 0.65987 0.58857 0.68606 0.0
C1430 C 0.63934 0.57881 0.72376 0.0
C1431 C 0.62442 0.55748 0.7207 0.0
C1432 C 0.65835 0.58589 0.71903 0.0
C1433 C 0.66273 0.57184 0.71097 0.0
C1434 C 0.6481 0.55047 0.7083 0.0
H1435 H 0.76648 0.61634 0.6605 0.0
H1436 H 0.7323 0.59718 0.66741 0.0
C1437 C 0.6291 0.54335 0.71312 0.0
C1438 C 0.68257 0.57949 0.70531 0.0
H1439 H 0.71408 0.6133 0.68343 0.0
C1440 C 0.695 0.5722 0.7103 0.0
C1441 C 0.68927 0.59396 0.69507 0.0
C1442 C 0.67606 0.60128 0.68841 0.0
C1443 C 0.71426 0.57954 0.70575 0.0
C1444 C 0.72141 0.5949 0.69623 0.0
C1445 C 0.70869 0.60167 0.69085 0.0
C1446 C 0.74222 0.60471 0.69203 0.0
C1447 C 0.72663 0.5706 0.71109 0.0
C1448 C 0.75919 0.61518 0.70356 0.0
C1449 C 0.77875 0.62598 0.69965 0.0
C1450 C 0.78174 0.62683 0.68412 0.0
C1451 C 0.76473 0.61603 0.67257 0.0
C1452 C 0.74518 0.60508 0.6765 0.0
H1453 H 0.7168 0.55479 0.71378 0.0
H1454 H 0.73589 0.5697 0.70224 0.0
H1455 H 0.73701 0.58074 0.72179 0.0
H1456 H 0.7573 0.6156 0.71564 0.0
H1457 H 0.79148 0.63427 0.70885 0.0
H1458 H 0.4675 0.09781 0.75313 0.0
H1459 H 0.44382 0.10667 0.74204 0.0
H1460 H 0.48299 0.13449 0.70832 0.0
H1461 H 0.50683 0.1255 0.71929 0.0
H1462 H 0.45207 0.14687 0.73936 0.0
H1463 H 0.42677 0.09495 0.68221 0.0
H1464 H 0.4397 0.09161 0.69835 0.0
H1465 H 0.45374 0.11185 0.68754 0.0
C1466 C 0.47108 0.10571 0.74329 0.0
C1467 C 0.48907 0.11092 0.73708 0.0
C1468 C 0.45752 0.11078 0.73699 0.0
C1469 C 0.46154 0.12105 0.72428 0.0
C1470 C 0.47944 0.12625 0.71798 0.0
H1471 H 0.39287 0.16297 0.67354 0.0
H1472 H 0.41842 0.1555 0.68301 0.0
C1473 C 0.49308 0.1212 0.72431 0.0
C1474 C 0.44722 0.12682 0.71804 0.0
H1475 H 0.41414 0.11744 0.68635 0.0
C1476 C 0.44378 0.14045 0.72777 0.0
C1477 C 0.4365 0.11847 0.7029 0.0
C1478 C 0.43917 0.10327 0.69214 0.0
C1479 C 0.42991 0.14601 0.72276 0.0
C1480 C 0.4189 0.13738 0.70772 0.0
C1481 C 0.42257 0.12399 0.6979 0.0
C1482 C 0.40332 0.14185 0.70203 0.0
C1483 C 0.42739 0.16131 0.73356 0.0
C1484 C 0.38621 0.1364 0.70947 0.0
C1485 C 0.37157 0.14069 0.70412 0.0
C1486 C 0.3737 0.15037 0.69114 0.0
C1487 C 0.39075 0.15555 0.68359 0.0
C1488 C 0.40538 0.15127 0.68897 0.0
H1489 H 0.44066 0.17071 0.74275 0.0
H1490 H 0.42529 0.17203 0.7272 0.0
H1491 H 0.41376 0.15264 0.73922 0.0
H1492 H 0.3841 0.12871 0.71938 0.0
H1493 H 0.3586 0.13637 0.71017 0.0
H1494 H 0.93357 0.4009 0.69396 0.0
H1495 H 0.92123 0.36475 0.68262 0.0
H1496 H 0.86425 0.34531 0.69964 0.0
H1497 H 0.87629 0.38135 0.7108 0.0
H1498 H 0.91113 0.33426 0.69989 0.0
H1499 H 0.84569 0.31165 0.65618 0.0
H1500 H 0.86447 0.33849 0.66406 0.0
H1501 H 0.84422 0.32336 0.67459 0.0
C1502 C 0.91824 0.389 0.695 0.0
C1503 C 0.90595 0.394 0.70337 0.0
C1504 C 0.91123 0.36835 0.68851 0.0
C1505 C 0.89177 0.35236 0.69017 0.0
C1506 C 0.87916 0.35743 0.69794 0.0
H1507 H 0.84844 0.22615 0.69901 0.0
H1508 H 0.86095 0.26332 0.70191 0.0
C1509 C 0.88614 0.37805 0.70442 0.0
C1510 C 0.88549 0.33026 0.6854 0.0
H1511 H 0.84717 0.28358 0.66515 0.0
C1512 C 0.8973 0.32324 0.69212 0.0
C1513 C 0.86754 0.31593 0.67516 0.0
C1514 C 0.85485 0.32276 0.66696 0.0
C1515 C 0.89118 0.30213 0.68939 0.0
C1516 C 0.87263 0.28764 0.67989 0.0
C1517 C 0.86126 0.29473 0.6726 0.0
C1518 C 0.86448 0.26498 0.67789 0.0
C1519 C 0.90455 0.29549 0.69682 0.0
C1520 C 0.86183 0.25351 0.66333 0.0
C1521 C 0.85463 0.2322 0.66161 0.0
C1522 C 0.84981 0.222 0.67442 0.0
C1523 C 0.85209 0.23351 0.68892 0.0
C1524 C 0.85933 0.25478 0.69062 0.0
H1525 H 0.92043 0.30873 0.7002 0.0
H1526 H 0.89868 0.28943 0.7074 0.0
H1527 H 0.90456 0.28293 0.68893 0.0
H1528 H 0.86562 0.26111 0.65335 0.0
H1529 H 0.85297 0.22378 0.65026 0.0
H1530 H 0.15701 0.92967 0.64343 0.0
H1531 H 0.18081 0.96718 0.65169 0.0
H1532 H 0.2234 0.96377 0.62402 0.0
H1533 H 0.19978 0.92648 0.61562 0.0
H1534 H 0.22211 0.98975 0.66648 0.0
H1535 H 0.21458 0.00811 0.60825 0.0
H1536 H 0.19688 0.98346 0.61349 0.0
H1537 H 0.22106 0.98851 0.6087 0.0
C1538 C 0.1715 0.93689 0.63919 0.0
C1539 C 0.17642 0.92513 0.62875 0.0
C1540 C 0.18505 0.9583 0.64391 0.0
C1541 C 0.20366 0.96825 0.63822 0.0
C1542 C 0.20893 0.95642 0.62828 0.0
H1543 H 0.30553 0.09415 0.6472 0.0
H1544 H 0.2815 0.05656 0.64093 0.0
C1545 C 0.19543 0.93508 0.62356 0.0
C1546 C 0.21753 0.99107 0.64243 0.0
H1547 H 0.24057 0.03555 0.62707 0.0
C1548 C 0.22607 -0.00018 0.65791 0.0
C1549 C 0.22261 0.0041 0.63119 0.0
C1550 C 0.21318 0.99565 0.61449 0.0
C1551 C 0.24003 0.02127 0.66239 0.0
C1552 C 0.24527 0.03425 0.65111 0.0
C1553 C 0.23657 0.02551 0.63566 0.0
C1554 C 0.25979 0.05698 0.65507 0.0
C1555 C 0.24945 0.02977 0.67908 0.0
C1556 C 0.25538 0.06967 0.66491 0.0
C1557 C 0.26904 0.09115 0.6685 0.0
C1558 C 0.28735 0.10033 0.66225 0.0
C1559 C 0.2916 0.08758 0.65224 0.0
C1560 C 0.2779 0.0661 0.64864 0.0
H1561 H 0.24763 0.01728 0.68546 0.0
H1562 H 0.26587 0.04159 0.68005 0.0
H1563 H 0.24194 0.03742 0.68474 0.0
H1564 H 0.24128 0.06298 0.66973 0.0
H1565 H 0.26524 0.10052 0.6762 0.0
H1566 H 0.0124 0.19668 0.58535 0.0
H1567 H 0.98242 0.18812 0.59781 0.0
H1568 H 0.02033 0.21976 0.64173 0.0
H1569 H 0.05056 0.22861 0.62933 0.0
H1570 H 0.96841 0.16572 0.62234 0.0
H1571 H 0.98628 0.24723 0.63743 0.0
H1572 H 0.9988 0.2398 0.6237 0.0
H1573 H 0.00582 0.24257 0.64401 0.0
C1574 C 0.01442 0.20182 0.59767 0.0
C1575 C 0.03391 0.21345 0.60633 0.0
C1576 C 0.99724 0.19688 0.60477 0.0
C1577 C 0.99917 0.20356 0.62064 0.0
C1578 C 0.01854 0.21477 0.62941 0.0
H1579 H 0.90611 0.19124 0.67743 0.0
H1580 H 0.93821 0.19909 0.66853 0.0
C1581 C 0.03578 0.2197 0.62232 0.0
C1582 C 0.9808 0.19875 0.62787 0.0
H1583 H 0.95667 0.22111 0.6453 0.0
C1584 C 0.96585 0.17782 0.62741 0.0
C1585 C 0.97756 0.21459 0.63451 0.0
C1586 C 0.99285 0.23732 0.63488 0.0
C1587 C 0.94769 0.17226 0.63337 0.0
C1588 C 0.94422 0.18807 0.63967 0.0
C1589 C 0.95935 0.20903 0.64044 0.0
C1590 C 0.92473 0.18317 0.64509 0.0
C1591 C 0.93243 0.14951 0.63297 0.0
C1592 C 0.90653 0.17189 0.6348 0.0
C1593 C 0.88816 0.16735 0.63983 0.0
C1594 C 0.88761 0.17414 0.65526 0.0
C1595 C 0.90593 0.1857 0.66549 0.0
C1596 C 0.92432 0.19022 0.66043 0.0
H1597 H 0.93963 0.14001 0.63198 0.0
H1598 H 0.92488 0.14712 0.64348 0.0
H1599 H 0.92063 0.14369 0.62278 0.0
H1600 H 0.90655 0.16671 0.62281 0.0
H1601 H 0.87441 0.15854 0.63159 0.0
H1602 H 0.73332 0.79025 0.64397 0.0
H1603 H 0.74675 0.76868 0.65072 0.0
H1604 H 0.80494 0.81291 0.63909 0.0
H1605 H 0.79177 0.83471 0.63254 0.0
H1606 H 0.76255 0.75035 0.63166 0.0
H1607 H 0.8198 0.80458 0.68179 0.0
H1608 H 0.79991 0.80809 0.67384 0.0
H1609 H 0.82218 0.81574 0.66464 0.0
C1610 C 0.74903 0.79548 0.64298 0.0
C1611 C 0.7615 0.81423 0.63777 0.0
C1612 C 0.75666 0.78313 0.64682 0.0
C1613 C 0.7769 0.78934 0.64559 0.0
C1614 C 0.78939 0.80805 0.64042 0.0
H1615 H 0.82767 0.70975 0.64037 0.0
H1616 H 0.81526 0.73263 0.63502 0.0
C1617 C 0.7818 0.82043 0.63661 0.0
C1618 C 0.78471 0.77583 0.64913 0.0
H1619 H 0.82118 0.77471 0.67209 0.0
C1620 C 0.77532 0.75563 0.64054 0.0
C1621 C 0.80124 0.78272 0.66081 0.0
C1622 C 0.81127 0.80389 0.67091 0.0
C1623 C 0.7822 0.74218 0.64318 0.0
C1624 C 0.79914 0.7493 0.65452 0.0
C1625 C 0.80834 0.7694 0.66327 0.0
C1626 C 0.80719 0.73591 0.6578 0.0
C1627 C 0.77104 0.72036 0.63399 0.0
C1628 C 0.80731 0.73069 0.67251 0.0
C1629 C 0.81453 0.71777 0.67565 0.0
C1630 C 0.82183 0.70987 0.66414 0.0
C1631 C 0.82204 0.71545 0.64947 0.0
C1632 C 0.81484 0.72843 0.64636 0.0
H1633 H 0.75559 0.71571 0.62869 0.0
H1634 H 0.7796 0.71957 0.62456 0.0
H1635 H 0.76969 0.70894 0.64136 0.0
H1636 H 0.80155 0.7364 0.68152 0.0
H1637 H 0.81418 0.71384 0.68708 0.0
H1638 H 0.02907 0.84856 0.62007 0.0
H1639 H 0.99767 0.82426 0.62918 0.0
H1640 H 0.02358 0.78797 0.64055 0.0
H1641 H 0.05516 0.81241 0.63177 0.0
H1642 H 0.97189 0.78286 0.6187 0.0
H1643 H 0.00248 0.79604 0.68016 0.0
H1644 H 0.0165 0.81315 0.66714 0.0
H1645 H 0.0158 0.78905 0.66713 0.0
C1646 C 0.02814 0.83548 0.62459 0.0
C1647 C 0.04465 0.83247 0.62527 0.0
C1648 C 0.01018 0.8216 0.62979 0.0
C1649 C 0.0084 0.8045 0.63578 0.0
C1650 C 0.02478 0.80134 0.63632 0.0
H1651 H 0.89704 0.69227 0.64408 0.0
H1652 H 0.92873 0.71864 0.6367 0.0
C1653 C 0.04279 0.81526 0.6312 0.0
C1654 C 0.98914 0.78956 0.64093 0.0
H1655 H 0.96915 0.76667 0.67166 0.0
C1656 C 0.97126 0.7794 0.6303 0.0
C1657 C 0.9883 0.7853 0.65615 0.0
C1658 C 0.00675 0.79661 0.66835 0.0
C1659 C 0.95263 0.76475 0.63436 0.0
C1660 C 0.95197 0.7598 0.64936 0.0
C1661 C 0.96975 0.77031 0.66011 0.0
C1662 C 0.93297 0.74371 0.65411 0.0
C1663 C 0.93381 0.75491 0.62259 0.0
C1664 C 0.92517 0.74889 0.6667 0.0
C1665 C 0.90714 0.73377 0.67109 0.0
C1666 C 0.89661 0.71318 0.66298 0.0
C1667 C 0.90467 0.70799 0.65054 0.0
C1668 C 0.92273 0.72309 0.64621 0.0
H1669 H 0.93579 0.76456 0.61355 0.0
H1670 H 0.93057 0.73949 0.61682 0.0
H1671 H 0.92046 0.75257 0.62812 0.0
H1672 H 0.93292 0.7647 0.67301 0.0
H1673 H 0.90137 0.7383 0.68073 0.0
H1674 H 0.15058 0.18216 0.60352 0.0
H1675 H 0.17619 0.1749 0.61331 0.0
H1676 H 0.21183 0.23752 0.63892 0.0
H1677 H 0.18638 0.24501 0.62912 0.0
H1678 H 0.2343 0.22442 0.62184 0.0
H1679 H 0.18706 0.16676 0.65753 0.0
H1680 H 0.17577 0.1613 0.63783 0.0
H1681 H 0.18032 0.18416 0.65042 0.0
C1682 C 0.16382 0.19438 0.61129 0.0
C1683 C 0.16639 0.21415 0.61559 0.0
C1684 C 0.17839 0.19016 0.61692 0.0
C1685 C 0.19577 0.20559 0.62699 0.0
C1686 C 0.19847 0.22537 0.63122 0.0
H1687 H 0.28157 0.18856 0.68194 0.0
H1688 H 0.25655 0.19689 0.67274 0.0
C1689 C 0.18389 0.2296 0.62562 0.0
C1690 C 0.21136 0.20123 0.63286 0.0
H1691 H 0.21888 0.1704 0.65426 0.0
C1692 C 0.23097 0.21265 0.62896 0.0
C1693 C 0.20701 0.18604 0.64229 0.0
C1694 C 0.18646 0.17396 0.64741 0.0
C1695 C 0.24629 0.20904 0.63403 0.0
C1696 C 0.24177 0.19341 0.64308 0.0
C1697 C 0.22225 0.18224 0.6472 0.0
C1698 C 0.25715 0.18855 0.64853 0.0
C1699 C 0.26725 0.22217 0.62984 0.0
C1700 C 0.26564 0.18091 0.63797 0.0
C1701 C 0.27997 0.17613 0.64318 0.0
C1702 C 0.28601 0.17881 0.65908 0.0
C1703 C 0.27734 0.18635 0.66962 0.0
C1704 C 0.26301 0.1911 0.66439 0.0
H1705 H 0.26951 0.23668 0.62625 0.0
H1706 H 0.27908 0.22641 0.63969 0.0
H1707 H 0.2694 0.21316 0.62006 0.0
H1708 H 0.26106 0.17847 0.62568 0.0
H1709 H 0.28625 0.17028 0.63472 0.0
H1710 H 0.74288 0.92583 0.62403 0.0
H1711 H 0.75332 0.96161 0.63466 0.0
H1712 H 0.80936 0.97148 0.65723 0.0
H1713 H 0.79923 0.93574 0.64634 0.0
H1714 H 0.7642 0.98403 0.66439 0.0
H1715 H 0.82874 0.01669 0.63064 0.0
H1716 H 0.80925 0.98946 0.62704 0.0
H1717 H 0.82906 -0.00017 0.64318 0.0
C1718 C 0.75737 0.93552 0.63135 0.0
C1719 C 0.77035 0.92802 0.63417 0.0
C1720 C 0.76329 0.95597 0.63744 0.0
C1721 C 0.78228 0.9693 0.64647 0.0
C1722 C 0.79484 0.96157 0.64999 0.0
H1723 H 0.84262 0.10339 0.67895 0.0
H1724 H 0.8335 0.06701 0.67563 0.0
C1725 C 0.78897 0.94111 0.64383 0.0
C1726 C 0.78913 0.9915 0.65153 0.0
H1727 H 0.82422 0.04067 0.64676 0.0
C1728 C 0.77739 0.99643 0.66062 0.0
C1729 C 0.80632 0.00763 0.64655 0.0
C1730 C 0.81901 0.00322 0.63621 0.0
C1731 C 0.78229 0.01709 0.66475 0.0
C1732 C 0.79922 0.03313 0.6595 0.0
C1733 C 0.81126 0.02828 0.65077 0.0
C1734 C 0.80417 0.05495 0.66227 0.0
C1735 C 0.76932 0.02161 0.67467 0.0
C1736 C 0.79073 0.06016 0.65575 0.0
C1737 C 0.79591 0.08092 0.65754 0.0
C1738 C 0.81467 0.09683 0.66588 0.0
C1739 C 0.82804 0.09151 0.67249 0.0
C1740 C 0.82287 0.07075 0.67062 0.0
H1741 H 0.76041 0.00872 0.68101 0.0
H1742 H 0.77877 0.03626 0.68314 0.0
H1743 H 0.7585 0.0235 0.66722 0.0
H1744 H 0.77638 0.0482 0.649 0.0
H1745 H 0.78528 0.08448 0.65229 0.0
H1746 H 0.4796 0.4027 0.7046 0.0
H1747 H 0.45595 0.36525 0.69687 0.0
H1748 H 0.46245 0.35689 0.74394 0.0
H1749 H 0.48596 0.39444 0.75186 0.0
H1750 H 0.46229 0.33259 0.69987 0.0
H1751 H 0.40085 0.32744 0.73209 0.0
H1752 H 0.42157 0.3519 0.72876 0.0
H1753 H 0.42528 0.33936 0.74361 0.0
C1754 C 0.47598 0.39294 0.71334 0.0
C1755 C 0.48459 0.40158 0.72887 0.0
C1756 C 0.46248 0.37153 0.70889 0.0
C1757 C 0.45724 0.35835 0.71986 0.0
C1758 C 0.46599 0.36686 0.73534 0.0
H1759 H 0.37701 0.22493 0.71343 0.0
H1760 H 0.40186 0.26199 0.72194 0.0
C1761 C 0.4795 0.3883 0.73983 0.0
C1762 C 0.44282 0.33568 0.71499 0.0
H1763 H 0.39651 0.29564 0.71978 0.0
C1764 C 0.44789 0.3245 0.70419 0.0
C1765 C 0.42406 0.3252 0.72067 0.0
C1766 C 0.41747 0.33658 0.73182 0.0
C1767 C 0.43477 0.30303 0.69903 0.0
C1768 C 0.41596 0.29258 0.70464 0.0
C1769 C 0.41095 0.30373 0.71552 0.0
C1770 C 0.40118 0.27008 0.69931 0.0
C1771 C 0.44129 0.29164 0.68782 0.0
C1772 C 0.39243 0.2624 0.68378 0.0
C1773 C 0.3782 0.24121 0.67885 0.0
C1774 C 0.37241 0.22734 0.6894 0.0
C1775 C 0.38115 0.23515 0.70498 0.0
C1776 C 0.39535 0.25633 0.70988 0.0
H1777 H 0.45795 0.30061 0.68773 0.0
H1778 H 0.43684 0.27613 0.69067 0.0
H1779 H 0.43375 0.28925 0.67601 0.0
H1780 H 0.39643 0.27283 0.67549 0.0
H1781 H 0.3717 0.23574 0.66679 0.0
H1782 H 0.61704 0.07637 0.72288 0.0
H1783 H 0.64913 0.084 0.71412 0.0
H1784 H 0.67269 0.1498 0.72674 0.0
H1785 H 0.64087 0.14229 0.73596 0.0
H1786 H 0.66742 0.10423 0.6917 0.0
H1787 H 0.71795 0.14556 0.74733 0.0
H1788 H 0.69068 0.13106 0.74603 0.0
H1789 H 0.70374 0.15705 0.74179 0.0
C1790 C 0.6291 0.09247 0.7239 0.0
C1791 C 0.62643 0.10872 0.73021 0.0
C1792 C 0.64744 0.09681 0.71886 0.0
C1793 C 0.66349 0.11747 0.72 0.0
C1794 C 0.66077 0.13373 0.72612 0.0
H1795 H 0.76562 0.15666 0.66806 0.0
H1796 H 0.73391 0.1489 0.6776 0.0
C1797 C 0.64249 0.12941 0.7313 0.0
C1798 C 0.68278 0.12195 0.71431 0.0
H1799 H 0.73411 0.14774 0.72491 0.0
C1800 C 0.682 0.11367 0.69899 0.0
C1801 C 0.70179 0.13402 0.72387 0.0
C1802 C 0.70363 0.14226 0.74071 0.0
C1803 C 0.69967 0.11733 0.6929 0.0
C1804 C 0.71875 0.13011 0.70228 0.0
C1805 C 0.71951 0.13815 0.71767 0.0
C1806 C 0.73809 0.135 0.69648 0.0
C1807 C 0.69763 0.10707 0.6766 0.0
C1808 C 0.75135 0.1304 0.70418 0.0
C1809 C 0.76964 0.1351 0.6989 0.0
C1810 C 0.77506 0.14448 0.68575 0.0
C1811 C 0.76183 0.14922 0.67811 0.0
C1812 C 0.74361 0.14468 0.6835 0.0
H1813 H 0.68217 0.09324 0.67273 0.0
H1814 H 0.70036 0.1183 0.66871 0.0
H1815 H 0.70883 0.10211 0.67552 0.0
H1816 H 0.74748 0.12303 0.71426 0.0
H1817 H 0.77946 0.13126 0.7051 0.0
H1818 H 0.88797 0.49814 0.71179 0.0
H1819 H 0.87175 0.51698 0.70433 0.0
H1820 H 0.92964 0.56774 0.69744 0.0
H1821 H 0.94593 0.54895 0.70465 0.0
H1822 H 0.87956 0.55521 0.71851 0.0
H1823 H 0.89339 0.55708 0.65768 0.0
H1824 H 0.89617 0.53996 0.66883 0.0
H1825 H 0.91607 0.56684 0.67098 0.0
C1826 C 0.89723 0.51323 0.70855 0.0
C1827 C 0.91824 0.52202 0.70877 0.0
C1828 C 0.88793 0.52397 0.7043 0.0
C1829 C 0.89944 0.54361 0.70011 0.0
C1830 C 0.9204 0.5524 0.70029 0.0
H1831 H 0.87742 0.64383 0.70253 0.0
H1832 H 0.88764 0.61917 0.70736 0.0
C1833 C 0.92971 0.54168 0.70452 0.0
C1834 C 0.88977 0.55542 0.69632 0.0
H1835 H 0.8835 0.58045 0.66874 0.0
C1836 C 0.88024 0.56056 0.70757 0.0
C1837 C 0.8904 0.56211 0.68196 0.0
C1838 C 0.89938 0.55605 0.66911 0.0
C1839 C 0.87199 0.57289 0.70506 0.0
C1840 C 0.87364 0.58055 0.69104 0.0
C1841 C 0.88246 0.57475 0.67955 0.0
C1842 C 0.86694 0.59519 0.68825 0.0
C1843 C 0.8616 0.57762 0.71745 0.0
C1844 C 0.8522 0.59005 0.6757 0.0
C1845 C 0.84639 0.60419 0.67282 0.0
C1846 C 0.85535 0.62379 0.68239 0.0
C1847 C 0.87014 0.62886 0.69495 0.0
C1848 C 0.87592 0.61473 0.69781 0.0
H1849 H 0.85637 0.56591 0.72522 0.0
H1850 H 0.87247 0.59308 0.72457 0.0
H1851 H 0.84836 0.57805 0.71236 0.0
H1852 H 0.84519 0.57509 0.66814 0.0
H1853 H 0.83499 0.5998 0.66303 0.0
H1854 H 0.48925 0.92408 0.22112 0.0
H1855 H 0.50063 0.93892 0.19789 0.0
H1856 H 0.45322 0.95298 0.1947 0.0
H1857 H 0.44182 0.93838 0.21789 0.0
H1858 H 0.47822 0.92691 0.16797 0.0
H1859 H 0.50501 0.00888 0.19294 0.0
H1860 H 0.50023 0.98936 0.20471 0.0
H1861 H 0.4795 0.99052 0.19558 0.0
C1862 C 0.48128 0.93038 0.21551 0.0
C1863 C 0.46468 0.93011 0.22143 0.0
C1864 C 0.48779 0.93883 0.20224 0.0
C1865 C 0.47795 0.94731 0.19473 0.0
C1866 C 0.46127 0.94687 0.2005 0.0
H1867 H 0.47821 0.97402 0.1022 0.0
H1868 H 0.47016 0.95969 0.12596 0.0
C1869 C 0.45472 0.93841 0.21372 0.0
C1870 C 0.48477 0.95623 0.18065 0.0
H1871 H 0.50235 0.00087 0.16565 0.0
C1872 C 0.48362 0.9431 0.16747 0.0
C1873 C 0.49202 0.97742 0.1801 0.0
C1874 C 0.49447 0.99245 0.19412 0.0
C1875 C 0.48901 0.95049 0.15361 0.0
C1876 C 0.4955 0.97147 0.1529 0.0
C1877 C 0.49718 0.98474 0.16619 0.0
C1878 C 0.50047 0.97995 0.13842 0.0
C1879 C 0.48784 0.93581 0.13987 0.0
C1880 C 0.52008 0.99638 0.13765 0.0
C1881 C 0.52476 0.00458 0.12407 0.0
C1882 C 0.50985 0.99661 0.11103 0.0
C1883 C 0.49015 0.98027 0.11192 0.0
C1884 C 0.48551 0.97206 0.1255 0.0
H1885 H 0.48766 0.9221 0.14333 0.0
H1886 H 0.47365 0.93006 0.13192 0.0
H1887 H 0.50084 0.94386 0.13345 0.0
H1888 H 0.53183 0.00273 0.14753 0.0
H1889 H 0.54013 0.01699 0.12374 0.0
H1890 H 0.03971 0.5015 0.24356 0.0
H1891 H 0.02402 0.49289 0.2167 0.0
H1892 H 0.08178 0.5112 0.20147 0.0
H1893 H 0.09769 0.51995 0.22828 0.0
H1894 H 0.03923 0.5249 0.19666 0.0
H1895 H 0.03954 0.45355 0.17325 0.0
H1896 H 0.04035 0.46131 0.1936 0.0
H1897 H 0.06263 0.47468 0.18457 0.0
C1898 C 0.04903 0.50334 0.2345 0.0
C1899 C 0.06998 0.5115 0.23806 0.0
C1900 C 0.04003 0.49844 0.21918 0.0
C1901 C 0.05175 0.50132 0.20716 0.0
C1902 C 0.07247 0.50865 0.21061 0.0
H1903 H 0.03017 0.49302 0.10835 0.0
H1904 H 0.04404 0.49622 0.13488 0.0
C1905 C 0.08153 0.51371 0.22593 0.0
C1906 C 0.04273 0.49855 0.19116 0.0
H1907 H 0.03012 0.46912 0.15533 0.0
C1908 C 0.03709 0.51263 0.18761 0.0
C1909 C 0.04025 0.48269 0.17945 0.0
C1910 C 0.04586 0.46705 0.18284 0.0
C1911 C 0.02928 0.5115 0.17253 0.0
C1912 C 0.02652 0.49546 0.16078 0.0
C1913 C 0.03218 0.48136 0.16436 0.0
C1914 C 0.01791 0.49318 0.1447 0.0
C1915 C 0.02463 0.52787 0.16924 0.0
C1916 C 0.99851 0.49014 0.14141 0.0
C1917 C 0.99067 0.48865 0.12631 0.0
C1918 C 0.00197 0.48987 0.11415 0.0
C1919 C 0.02122 0.49242 0.11746 0.0
C1920 C 0.0291 0.49405 0.1326 0.0
H1921 H 0.03292 0.54211 0.17824 0.0
H1922 H 0.02865 0.53231 0.15785 0.0
H1923 H 0.00815 0.52159 0.16911 0.0
H1924 H 0.98944 0.48899 0.15054 0.0
H1925 H 0.97588 0.48686 0.12422 0.0
H1926 H 0.46675 0.49899 0.23646 0.0
H1927 H 0.47296 0.49309 0.20997 0.0
H1928 H 0.43863 0.51965 0.19468 0.0
H1929 H 0.43227 0.5256 0.22105 0.0
H1930 H 0.44384 0.47215 0.17924 0.0
H1931 H 0.49978 0.55722 0.18595 0.0
H1932 H 0.49162 0.54425 0.20229 0.0
H1933 H 0.47512 0.5496 0.1912 0.0
C1934 C 0.46018 0.50322 0.22743 0.0
C1935 C 0.44921 0.51299 0.23091 0.0
C1936 C 0.46374 0.49981 0.21231 0.0
C1937 C 0.45643 0.50617 0.20049 0.0
C1938 C 0.4445 0.51479 0.20373 0.0
H1939 H 0.46528 0.49846 0.10262 0.0
H1940 H 0.4534 0.4969 0.12778 0.0
C1941 C 0.44087 0.51814 0.2188 0.0
C1942 C 0.46277 0.50551 0.18508 0.0
H1943 H 0.49376 0.53681 0.16164 0.0
C1944 C 0.45471 0.48624 0.17534 0.0
C1945 C 0.47711 0.52396 0.18018 0.0
C1946 C 0.48658 0.54497 0.19044 0.0
C1947 C 0.46048 0.48501 0.16064 0.0
C1948 C 0.47463 0.5035 0.1557 0.0
C1949 C 0.48283 0.52271 0.16551 0.0
C1950 C 0.48137 0.50327 0.14042 0.0
C1951 C 0.45166 0.46403 0.15051 0.0
C1952 C 0.50104 0.50744 0.1393 0.0
C1953 C 0.50783 0.5081 0.12495 0.0
C1954 C 0.49512 0.50487 0.11147 0.0
C1955 C 0.47537 0.5007 0.1127 0.0
C1956 C 0.46856 0.49986 0.12706 0.0
H1957 H 0.44282 0.45102 0.15676 0.0
H1958 H 0.44149 0.46275 0.14046 0.0
H1959 H 0.46396 0.46238 0.14601 0.0
H1960 H 0.51113 0.51015 0.14955 0.0
H1961 H 0.52298 0.51099 0.12444 0.0
H1962 H 0.96476 0.46839 0.78099 0.0
H1963 H 0.97448 0.47918 0.80881 0.0
H1964 H 0.98165 0.53879 0.80543 0.0
H1965 H 0.97153 0.52796 0.77742 0.0
H1966 H 0.01009 0.51226 0.82548 0.0
H1967 H 0.94356 0.51844 0.83807 0.0
H1968 H 0.94429 0.50571 0.81968 0.0
H1969 H 0.95815 0.53362 0.8244 0.0
C1970 C 0.96838 0.48382 0.7861 0.0
C1971 C 0.96726 0.49728 0.77695 0.0
C1972 C 0.97397 0.48996 0.80203 0.0
C1973 C 0.97856 0.50968 0.8092 0.0
C1974 C 0.97781 0.52336 0.80014 0.0
H1975 H 0.03155 0.54701 0.90728 0.0
H1976 H 0.0261 0.54923 0.88007 0.0
C1977 C 0.97214 0.51719 0.78413 0.0
C1978 C 0.98413 0.51559 0.82619 0.0
H1979 H 0.96725 0.52503 0.85929 0.0
C1980 C 0.00088 0.51531 0.8329 0.0
C1981 C 0.97196 0.51939 0.83579 0.0
C1982 C 0.95338 0.51918 0.82919 0.0
C1983 C 0.00542 0.51796 0.84895 0.0
C1984 C 0.9931 0.5215 0.85857 0.0
C1985 C 0.97673 0.52248 0.85188 0.0
C1986 C 0.99574 0.52205 0.87544 0.0
C1987 C 0.02268 0.51583 0.85539 0.0
C1988 C 0.98015 0.50666 0.882 0.0
C1989 C 0.98315 0.50548 0.89752 0.0
C1990 C 0.00183 0.51966 0.90678 0.0
C1991 C 0.01711 0.53568 0.90036 0.0
C1992 C 0.01403 0.53695 0.88484 0.0
H1993 H 0.0278 0.50878 0.84633 0.0
H1994 H 0.03577 0.53147 0.86056 0.0
H1995 H 0.01818 0.50611 0.86455 0.0
H1996 H 0.96591 0.49501 0.87496 0.0
H1997 H 0.97115 0.49284 0.90208 0.0
H1998 H 0.5484 0.48492 0.77753 0.0
H1999 H 0.53994 0.4808 0.80369 0.0
H2000 H 0.53368 0.53451 0.80717 0.0
H2001 H 0.54249 0.53888 0.78118 0.0
H2002 H 0.55454 0.53587 0.83275 0.0
H2003 H 0.48485 0.45757 0.81713 0.0
H2004 H 0.50698 0.45845 0.81115 0.0
H2005 H 0.49751 0.473 0.80285 0.0
C2006 C 0.54487 0.4956 0.78379 0.0
C2007 C 0.54569 0.51196 0.77722 0.0
C2008 C 0.54007 0.49327 0.79875 0.0
C2009 C 0.53572 0.50707 0.80728 0.0
C2010 C 0.53686 0.5236 0.80079 0.0
H2011 H 0.47333 0.48758 0.88727 0.0
H2012 H 0.48375 0.49168 0.86175 0.0
C2013 C 0.54189 0.52608 0.78594 0.0
C2014 C 0.53035 0.50467 0.8231 0.0
H2015 H 0.49644 0.47089 0.84383 0.0
C2016 C 0.54182 0.52166 0.83517 0.0
C2017 C 0.51358 0.48622 0.82622 0.0
C2018 C 0.49989 0.46784 0.81364 0.0
C2019 C 0.53699 0.52076 0.85025 0.0
C2020 C 0.52058 0.50212 0.85346 0.0
C2021 C 0.50912 0.48511 0.84139 0.0
C2022 C 0.51459 0.50011 0.86913 0.0
C2023 C 0.54915 0.54003 0.86246 0.0
C2024 C 0.52842 0.50338 0.88179 0.0
C2025 C 0.52263 0.50148 0.8965 0.0
C2026 C 0.50275 0.4959 0.89882 0.0
C2027 C 0.48887 0.49233 0.88603 0.0
C2028 C 0.49474 0.49445 0.87137 0.0
H2029 H 0.55702 0.55433 0.85729 0.0
H2030 H 0.53934 0.54179 0.87042 0.0
H2031 H 0.56089 0.5388 0.86931 0.0
H2032 H 0.54369 0.50731 0.8803 0.0
H2033 H 0.53379 0.50451 0.90605 0.0
H2034 H 0.53084 0.08866 0.80013 0.0
H2035 H 0.52491 0.07427 0.82386 0.0
H2036 H 0.56251 0.0488 0.81377 0.0
H2037 H 0.56887 0.06353 0.79 0.0
H2038 H 0.50652 0.03298 0.82611 0.0
H2039 H 0.58452 0.07731 0.85867 0.0
H2040 H 0.57755 0.08495 0.84183 0.0
H2041 H 0.58218 0.06388 0.83974 0.0
C2042 C 0.53805 0.08019 0.80299 0.0
C2043 C 0.55035 0.07726 0.79314 0.0
C2044 C 0.53461 0.07195 0.81657 0.0
C2045 C 0.54339 0.06062 0.82067 0.0
C2046 C 0.55588 0.05784 0.81099 0.0
H2047 H 0.52716 0.9926 0.89707 0.0
H2048 H 0.53647 0.00678 0.8733 0.0
C2049 C 0.55943 0.06618 0.79737 0.0
C2050 C 0.53849 0.05092 0.83467 0.0
H2051 H 0.55916 0.05059 0.86993 0.0
C2052 C 0.51804 0.03685 0.83569 0.0
C2053 C 0.55355 0.05592 0.84713 0.0
C2054 C 0.57567 0.07147 0.84692 0.0
C2055 C 0.51222 0.02771 0.84884 0.0
C2056 C 0.52723 0.03294 0.86137 0.0
C2057 C 0.54771 0.04667 0.86028 0.0
C2058 C 0.52182 0.0246 0.87584 0.0
C2059 C 0.49007 0.01241 0.84919 0.0
C2060 C 0.5107 0.03013 0.8852 0.0
C2061 C 0.50535 0.02207 0.89875 0.0
C2062 C 0.511 0.00828 0.90319 0.0
C2063 C 0.52233 0.00294 0.89385 0.0
C2064 C 0.52778 0.01112 0.88033 0.0
H2065 H 0.48114 0.00644 0.83746 0.0
H2066 H 0.4881 0.999 0.85444 0.0
H2067 H 0.48375 0.02025 0.85632 0.0
H2068 H 0.50616 0.04071 0.882 0.0
H2069 H 0.49653 0.02639 0.90565 0.0
H2070 H 0.11469 0.27587 0.55291 0.0
H2071 H 0.12688 0.29036 0.5298 0.0
H2072 H 0.16456 0.26369 0.52831 0.0
H2073 H 0.15245 0.24904 0.55147 0.0
H2074 H 0.16899 0.31814 0.52555 0.0
H2075 H 0.12998 0.24279 0.48451 0.0
H2076 H 0.12245 0.24556 0.5032 0.0
H2077 H 0.14492 0.24447 0.50168 0.0
C2078 C 0.12556 0.27304 0.54769 0.0
C2079 C 0.13253 0.26121 0.55403 0.0
C2080 C 0.13252 0.28137 0.5345 0.0
C2081 C 0.14643 0.2779 0.52729 0.0
C2082 C 0.15361 0.26629 0.53361 0.0
H2083 H 0.19526 0.31255 0.4416 0.0
H2084 H 0.18727 0.29829 0.46547 0.0
C2085 C 0.14673 0.25802 0.54688 0.0
C2086 C 0.15349 0.28663 0.5132 0.0
H2087 H 0.15047 0.27311 0.47438 0.0
C2088 C 0.16501 0.30832 0.51435 0.0
C2089 C 0.14835 0.27374 0.49867 0.0
C2090 C 0.13563 0.25033 0.49681 0.0
C2091 C 0.17153 0.31753 0.50131 0.0
C2092 C 0.16591 0.30467 0.48668 0.0
C2093 C 0.15472 0.28294 0.48559 0.0
C2094 C 0.17094 0.31345 0.4723 0.0
C2095 C 0.18456 0.34094 0.50338 0.0
C2096 C 0.16413 0.32641 0.4681 0.0
C2097 C 0.1687 0.33459 0.45452 0.0
C2098 C 0.17997 0.32977 0.44476 0.0
C2099 C 0.18647 0.31647 0.44885 0.0
C2100 C 0.18198 0.30838 0.4625 0.0
H2101 H 0.19256 0.3479 0.51538 0.0
H2102 H 0.196 0.34583 0.49533 0.0
H2103 H 0.17478 0.34736 0.50101 0.0
H2104 H 0.15507 0.33004 0.47524 0.0
H2105 H 0.16311 0.34443 0.45153 0.0
H2106 H 0.75594 0.84532 0.55985 0.0
H2107 H 0.74133 0.83605 0.53269 0.0
H2108 H 0.68141 0.81051 0.54561 0.0
H2109 H 0.69582 0.81948 0.57284 0.0
H2110 H 0.68407 0.78695 0.51845 0.0
H2111 H 0.71966 0.87137 0.51659 0.0
H2112 H 0.73686 0.86357 0.52299 0.0
H2113 H 0.71773 0.86156 0.53445 0.0
C2114 C 0.73962 0.83745 0.55694 0.0
C2115 C 0.72707 0.83341 0.56853 0.0
C2116 C 0.73132 0.8322 0.5414 0.0
C2117 C 0.71036 0.82295 0.53721 0.0
C2118 C 0.69765 0.81773 0.54866 0.0
H2119 H 0.65041 0.83131 0.45557 0.0
H2120 H 0.66183 0.83056 0.48172 0.0
C2121 C 0.70593 0.82291 0.56421 0.0
C2122 C 0.70189 0.82036 0.52105 0.0
H2123 H 0.70221 0.84807 0.49321 0.0
C2124 C 0.68803 0.80026 0.51287 0.0
C2125 C 0.7069 0.83782 0.51395 0.0
C2126 C 0.72096 0.85983 0.52245 0.0
C2127 C 0.67914 0.79717 0.49766 0.0
C2128 C 0.68444 0.81465 0.4905 0.0
C2129 C 0.69825 0.83471 0.49873 0.0
C2130 C 0.67555 0.81275 0.47462 0.0
C2131 C 0.66383 0.77534 0.4895 0.0
C2132 C 0.67927 0.80273 0.46194 0.0
C2133 C 0.67257 0.80295 0.4469 0.0
C2134 C 0.66215 0.81331 0.44432 0.0
C2135 C 0.65806 0.82288 0.4571 0.0
C2136 C 0.66471 0.8226 0.47208 0.0
H2137 H 0.65798 0.76424 0.4977 0.0
H2138 H 0.65084 0.77486 0.48293 0.0
H2139 H 0.67114 0.77003 0.48119 0.0
H2140 H 0.6879 0.79532 0.46365 0.0
H2141 H 0.67583 0.7953 0.43731 0.0
H2142 H 0.12807 0.83208 0.56737 0.0
H2143 H 0.13416 0.82763 0.54074 0.0
H2144 H 0.09635 0.8511 0.52686 0.0
H2145 H 0.09043 0.85599 0.55353 0.0
H2146 H 0.10959 0.80636 0.51217 0.0
H2147 H 0.15173 0.8922 0.51528 0.0
H2148 H 0.14446 0.8802 0.53211 0.0
H2149 H 0.12606 0.881 0.5192 0.0
C2150 C 0.12077 0.836 0.55864 0.0
C2151 C 0.10901 0.8447 0.56263 0.0
C2152 C 0.12427 0.83343 0.54341 0.0
C2153 C 0.11607 0.83947 0.53192 0.0
C2154 C 0.10317 0.84678 0.53564 0.0
H2155 H 0.12798 0.82057 0.43408 0.0
H2156 H 0.11429 0.81957 0.45845 0.0
C2157 C 0.09973 0.84945 0.55088 0.0
C2158 C 0.12221 0.83949 0.51635 0.0
H2159 H 0.14824 0.87188 0.49158 0.0
C2160 C 0.11794 0.82064 0.5076 0.0
C2161 C 0.1334 0.85823 0.51057 0.0
C2162 C 0.13938 0.8791 0.5198 0.0
C2163 C 0.12459 0.82003 0.49319 0.0
C2164 C 0.13554 0.83875 0.48734 0.0
C2165 C 0.13972 0.85755 0.49607 0.0
C2166 C 0.14363 0.83938 0.4725 0.0
C2167 C 0.12042 0.7995 0.48459 0.0
C2168 C 0.16461 0.85132 0.47227 0.0
C2169 C 0.17246 0.85218 0.45837 0.0
C2170 C 0.15946 0.84114 0.44438 0.0
C2171 C 0.1384 0.82939 0.44463 0.0
C2172 C 0.13056 0.82857 0.45856 0.0
H2173 H 0.11616 0.78768 0.49222 0.0
H2174 H 0.10765 0.79344 0.47511 0.0
H2175 H 0.13388 0.80144 0.47942 0.0
H2176 H 0.17494 0.85992 0.4829 0.0
H2177 H 0.18871 0.86163 0.45856 0.0
H2178 H 0.58411 0.81215 0.11216 0.0
H2179 H 0.59379 0.82033 0.14016 0.0
H2180 H 0.65342 0.83202 0.13421 0.0
H2181 H 0.64407 0.82435 0.10626 0.0
H2182 H 0.60472 0.79949 0.15739 0.0
H2183 H 0.66716 0.88188 0.16596 0.0
H2184 H 0.64985 0.86884 0.14816 0.0
H2185 H 0.67105 0.8655 0.15196 0.0
C2186 C 0.59939 0.81678 0.1168 0.0
C2187 C 0.61333 0.81762 0.10696 0.0
C2188 C 0.60488 0.82144 0.13281 0.0
C2189 C 0.62441 0.82706 0.13928 0.0
C2190 C 0.63844 0.82823 0.12948 0.0
H2191 H 0.68533 0.83574 0.22652 0.0
H2192 H 0.67383 0.83366 0.19959 0.0
C2193 C 0.63302 0.8237 0.11348 0.0
C2194 C 0.62963 0.83011 0.15621 0.0
H2195 H 0.66518 0.86361 0.18687 0.0
C2196 C 0.61776 0.81363 0.16388 0.0
C2197 C 0.64664 0.84858 0.16467 0.0
C2198 C 0.65928 0.86728 0.15729 0.0
C2199 C 0.62292 0.81481 0.17965 0.0
C2200 C 0.64031 0.83298 0.18795 0.0
C2201 C 0.65191 0.84966 0.18041 0.0
C2202 C 0.64719 0.83459 0.20432 0.0
C2203 C 0.6102 0.79636 0.18724 0.0
C2204 C 0.63604 0.83595 0.21587 0.0
C2205 C 0.64267 0.83735 0.23132 0.0
C2206 C 0.66057 0.83741 0.23546 0.0
C2207 C 0.67166 0.83606 0.22379 0.0
C2208 C 0.66508 0.83477 0.20838 0.0
H2209 H 0.59907 0.78235 0.17871 0.0
H2210 H 0.62003 0.79253 0.19405 0.0
H2211 H 0.60173 0.8003 0.19532 0.0
H2212 H 0.6223 0.83606 0.21293 0.0
H2213 H 0.63393 0.83869 0.24003 0.0
H2214 H 0.21463 0.87063 0.1147 0.0
H2215 H 0.20691 0.87061 0.14126 0.0
H2216 H 0.20585 0.81321 0.14149 0.0
H2217 H 0.21378 0.81324 0.11503 0.0
H2218 H 0.17069 0.83512 0.15138 0.0
H2219 H 0.24543 0.85528 0.18147 0.0
H2220 H 0.24252 0.86138 0.16264 0.0
H2221 H 0.23468 0.83516 0.16463 0.0
C2222 C 0.21284 0.85806 0.12045 0.0
C2223 C 0.21444 0.84173 0.11271 0.0
C2224 C 0.2084 0.85805 0.13557 0.0
C2225 C 0.20588 0.84194 0.1433 0.0
C2226 C 0.20781 0.82581 0.13571 0.0
H2227 H 0.17923 0.81127 0.23362 0.0
H2228 H 0.1893 0.81415 0.20786 0.0
C2229 C 0.21207 0.8257 0.12053 0.0
C2230 C 0.20059 0.84163 0.15913 0.0
H2231 H 0.21884 0.84626 0.19653 0.0
C2232 C 0.18121 0.83766 0.1613 0.0
C2233 C 0.21436 0.84483 0.17195 0.0
C2234 C 0.23549 0.84954 0.17018 0.0
C2235 C 0.17502 0.83633 0.17596 0.0
C2236 C 0.18884 0.83966 0.18886 0.0
C2237 C 0.20829 0.84376 0.18666 0.0
C2238 C 0.18325 0.83848 0.20466 0.0
C2239 C 0.15354 0.8307 0.1774 0.0
C2240 C 0.17688 0.85149 0.21156 0.0
C2241 C 0.17101 0.84979 0.22626 0.0
C2242 C 0.17172 0.83529 0.23443 0.0
C2243 C 0.17867 0.82271 0.22767 0.0
C2244 C 0.18436 0.82429 0.21293 0.0
H2245 H 0.14347 0.82303 0.16615 0.0
H2246 H 0.14715 0.82013 0.18589 0.0
H2247 H 0.15343 0.84509 0.18139 0.0
H2248 H 0.17643 0.86295 0.20558 0.0
H2249 H 0.16603 0.85992 0.23127 0.0
H2250 H 0.20322 0.42756 0.13629 0.0
H2251 H 0.19765 0.41192 0.15944 0.0
H2252 H 0.23026 0.3821 0.14502 0.0
H2253 H 0.23631 0.39811 0.12182 0.0
H2254 H 0.17684 0.37042 0.16069 0.0
H2255 H 0.25622 0.40799 0.18971 0.0
H2256 H 0.24939 0.41731 0.17387 0.0
H2257 H 0.25149 0.39468 0.17026 0.0
C2258 C 0.2094 0.41783 0.13805 0.0
C2259 C 0.22023 0.4141 0.12717 0.0
C2260 C 0.20617 0.40888 0.15132 0.0
C2261 C 0.21368 0.39599 0.15404 0.0
C2262 C 0.22466 0.39233 0.1433 0.0
H2263 H 0.19481 0.32435 0.2289 0.0
H2264 H 0.20382 0.33805 0.20488 0.0
C2265 C 0.22803 0.40141 0.13001 0.0
C2266 C 0.20905 0.38574 0.16781 0.0
H2267 H 0.23057 0.38256 0.2016 0.0
C2268 C 0.1886 0.37305 0.16961 0.0
C2269 C 0.22442 0.38912 0.17941 0.0
C2270 C 0.24662 0.40314 0.17834 0.0
C2271 C 0.1831 0.36387 0.18277 0.0
C2272 C 0.19844 0.36759 0.19449 0.0
C2273 C 0.21888 0.37979 0.19256 0.0
C2274 C 0.19344 0.3596 0.20911 0.0
C2275 C 0.16091 0.35027 0.18408 0.0
C2276 C 0.18487 0.3674 0.21946 0.0
C2277 C 0.17974 0.35965 0.23315 0.0
C2278 C 0.18306 0.34392 0.23672 0.0
C2279 C 0.19186 0.33629 0.22637 0.0
C2280 C 0.19712 0.34417 0.21272 0.0
H2281 H 0.15117 0.3452 0.17275 0.0
H2282 H 0.15803 0.33625 0.18886 0.0
H2283 H 0.15635 0.35915 0.19207 0.0
H2284 H 0.18209 0.37944 0.21692 0.0
H2285 H 0.17285 0.36573 0.24081 0.0
H2286 H 0.8174 0.58284 0.88515 0.0
H2287 H 0.82877 0.59687 0.86163 0.0
H2288 H 0.79446 0.62723 0.86528 0.0
H2289 H 0.78304 0.61338 0.88872 0.0
H2290 H 0.8032 0.59109 0.83356 0.0
H2291 H 0.85276 0.67413 0.86105 0.0
H2292 H 0.84472 0.65305 0.87181 0.0
H2293 H 0.82763 0.66136 0.86624 0.0
C2294 C 0.81233 0.59257 0.88098 0.0
C2295 C 0.79935 0.59703 0.88886 0.0
C2296 C 0.81883 0.60054 0.86754 0.0
C2297 C 0.81265 0.61328 0.86186 0.0
C2298 C 0.79965 0.61769 0.86963 0.0
H2299 H 0.82745 0.67747 0.78522 0.0
H2300 H 0.81964 0.66301 0.80894 0.0
C2301 C 0.79306 0.60966 0.883 0.0
C2302 C 0.81934 0.62162 0.84758 0.0
H2303 H 0.84549 0.66698 0.8337 0.0
C2304 C 0.81261 0.60766 0.83356 0.0
C2305 C 0.83156 0.64324 0.84768 0.0
C2306 C 0.83977 0.65886 0.8625 0.0
C2307 C 0.81719 0.6148 0.81951 0.0
C2308 C 0.82921 0.63647 0.81958 0.0
C2309 C 0.83625 0.65039 0.83367 0.0
C2310 C 0.83411 0.64512 0.80515 0.0
C2311 C 0.8085 0.59914 0.8047 0.0
C2312 C 0.84504 0.64004 0.79522 0.0
C2313 C 0.84951 0.64829 0.78163 0.0
C2314 C 0.84334 0.66195 0.77782 0.0
C2315 C 0.83262 0.66719 0.78791 0.0
C2316 C 0.82807 0.65887 0.80143 0.0
H2317 H 0.79562 0.58389 0.80632 0.0
H2318 H 0.80317 0.60488 0.79557 0.0
H2319 H 0.82044 0.59656 0.8006 0.0
H2320 H 0.85026 0.62985 0.79804 0.0
H2321 H 0.85804 0.6442 0.77421 0.0
H2322 H 0.372 0.1566 0.90729 0.0
H2323 H 0.36005 0.15008 0.87973 0.0
H2324 H 0.42169 0.18772 0.8711 0.0
H2325 H 0.43382 0.19445 0.8986 0.0
H2326 H 0.39496 0.19965 0.85973 0.0
H2327 H 0.36357 0.11493 0.84173 0.0
H2328 H 0.35501 0.12176 0.85869 0.0
H2329 H 0.38129 0.12991 0.85913 0.0
C2330 C 0.38306 0.16317 0.89951 0.0
C2331 C 0.40386 0.17614 0.90517 0.0
C2332 C 0.3762 0.15935 0.88375 0.0
C2333 C 0.39001 0.16832 0.87339 0.0
C2334 C 0.41081 0.18061 0.87892 0.0
H2335 H 0.36731 0.15745 0.77376 0.0
H2336 H 0.38066 0.15822 0.79987 0.0
C2337 C 0.4177 0.18441 0.89465 0.0
C2338 C 0.38266 0.1666 0.85709 0.0
H2339 H 0.35561 0.13194 0.8239 0.0
C2340 C 0.38649 0.18487 0.85186 0.0
C2341 C 0.37167 0.1473 0.84688 0.0
C2342 C 0.36775 0.12735 0.85181 0.0
C2343 C 0.37921 0.18429 0.83675 0.0
C2344 C 0.36777 0.16495 0.82668 0.0
C2345 C 0.3643 0.14671 0.83176 0.0
C2346 C 0.3591 0.16348 0.81089 0.0
C2347 C 0.38371 0.20431 0.83161 0.0
C2348 C 0.34244 0.16595 0.80853 0.0
C2349 C 0.3346 0.16528 0.79364 0.0
C2350 C 0.34338 0.16224 0.78084 0.0
C2351 C 0.36 0.15956 0.7833 0.0
C2352 C 0.36772 0.16008 0.7982 0.0
H2353 H 0.39538 0.21824 0.83996 0.0
H2354 H 0.389 0.2051 0.82016 0.0
H2355 H 0.3696 0.20481 0.83044 0.0
H2356 H 0.33553 0.16845 0.81823 0.0
H2357 H 0.32156 0.16699 0.79217 0.0
H2358 H 0.79733 0.15526 0.89889 0.0
H2359 H 0.80183 0.1513 0.87174 0.0
H2360 H 0.77311 0.18567 0.86237 0.0
H2361 H 0.76854 0.18978 0.88949 0.0
H2362 H 0.77289 0.1355 0.84244 0.0
H2363 H 0.83273 0.21967 0.85167 0.0
H2364 H 0.82406 0.20567 0.86746 0.0
H2365 H 0.80864 0.21329 0.85752 0.0
C2366 C 0.79165 0.16168 0.89102 0.0
C2367 C 0.78279 0.17305 0.89641 0.0
C2368 C 0.79421 0.15937 0.87552 0.0
C2369 C 0.78804 0.16844 0.86517 0.0
C2370 C 0.77815 0.17875 0.87027 0.0
H2371 H 0.79753 0.16604 0.7669 0.0
H2372 H 0.78523 0.16467 0.7919 0.0
C2373 C 0.77551 0.18102 0.88576 0.0
C2374 C 0.79344 0.16853 0.84939 0.0
H2375 H 0.82539 0.20042 0.82667 0.0
C2376 C 0.78424 0.14968 0.83892 0.0
C2377 C 0.80844 0.18707 0.84497 0.0
C2378 C 0.81921 0.2076 0.85598 0.0
C2379 C 0.78966 0.14894 0.82405 0.0
C2380 C 0.80465 0.16747 0.81968 0.0
C2381 C 0.81381 0.18629 0.83012 0.0
C2382 C 0.81166 0.16754 0.80449 0.0
C2383 C 0.77975 0.12836 0.81319 0.0
C2384 C 0.8306 0.16968 0.8034 0.0
C2385 C 0.83759 0.17023 0.78914 0.0
C2386 C 0.82585 0.16887 0.77572 0.0
C2387 C 0.80685 0.16681 0.77693 0.0
C2388 C 0.79981 0.1661 0.7912 0.0
H2389 H 0.76969 0.1151 0.81882 0.0
H2390 H 0.77057 0.12868 0.80316 0.0
H2391 H 0.79151 0.12573 0.80871 0.0
H2392 H 0.83993 0.17082 0.81358 0.0
H2393 H 0.85211 0.17146 0.78863 0.0
H2394 H 0.3184 0.16264 0.44264 0.0
H2395 H 0.32835 0.17302 0.47056 0.0
H2396 H 0.27599 0.17854 0.47482 0.0
H2397 H 0.26557 0.16758 0.44692 0.0
H2398 H 0.33714 0.2072 0.49166 0.0
H2399 H 0.26785 0.13652 0.50227 0.0
H2400 H 0.27508 0.13972 0.48329 0.0
H2401 H 0.263 0.15271 0.49167 0.0
C2402 C 0.30908 0.16624 0.44948 0.0
C2403 C 0.29103 0.16399 0.44258 0.0
C2404 C 0.31481 0.1722 0.46545 0.0
C2405 C 0.30267 0.1761 0.4748 0.0
C2406 C 0.28529 0.17507 0.46786 0.0
H2407 H 0.31254 0.19399 0.57565 0.0
H2408 H 0.30431 0.19536 0.54873 0.0
C2409 C 0.27943 0.16891 0.4519 0.0
C2410 C 0.30775 0.18016 0.49182 0.0
H2411 H 0.29041 0.16005 0.5241 0.0
C2412 C 0.32688 0.19697 0.49877 0.0
C2413 C 0.29434 0.16675 0.50108 0.0
C2414 C 0.27399 0.1478 0.49422 0.0
C2415 C 0.33305 0.20057 0.5147 0.0
C2416 C 0.31978 0.18694 0.52386 0.0
C2417 C 0.30046 0.17053 0.51702 0.0
C2418 C 0.32617 0.18831 0.54031 0.0
C2419 C 0.35376 0.21878 0.52163 0.0
C2420 C 0.34117 0.1839 0.54444 0.0
C2421 C 0.34569 0.18277 0.55973 0.0
C2422 C 0.3353 0.18606 0.57123 0.0
C2423 C 0.32065 0.19108 0.56708 0.0
C2424 C 0.31603 0.19204 0.55174 0.0
H2425 H 0.35995 0.23061 0.514 0.0
H2426 H 0.35324 0.22632 0.53305 0.0
H2427 H 0.36435 0.21315 0.52334 0.0
H2428 H 0.34885 0.18052 0.53572 0.0
H2429 H 0.35675 0.17845 0.56238 0.0
H2430 H 0.857 0.1513 0.43818 0.0
H2431 H 0.84856 0.14679 0.46416 0.0
H2432 H 0.89775 0.20947 0.48195 0.0
H2433 H 0.90707 0.21364 0.45605 0.0
H2434 H 0.89561 0.18272 0.50065 0.0
H2435 H 0.8196 0.17163 0.48608 0.0
H2436 H 0.82321 0.15308 0.47431 0.0
H2437 H 0.83838 0.18028 0.47317 0.0
C2438 C 0.86648 0.16387 0.44764 0.0
C2439 C 0.88302 0.18265 0.44505 0.0
C2440 C 0.86133 0.16144 0.46248 0.0
C2441 C 0.87232 0.17791 0.47498 0.0
C2442 C 0.88902 0.19657 0.47248 0.0
H2443 H 0.8293 0.18749 0.5625 0.0
H2444 H 0.8409 0.19244 0.5373 0.0
C2445 C 0.89428 0.19894 0.45766 0.0
C2446 C 0.86629 0.17581 0.49062 0.0
H2447 H 0.82676 0.16525 0.51073 0.0
C2448 C 0.88057 0.17896 0.50288 0.0
C2449 C 0.84678 0.17128 0.49356 0.0
C2450 C 0.83117 0.16908 0.48112 0.0
C2451 C 0.8758 0.17737 0.51795 0.0
C2452 C 0.85603 0.17201 0.52077 0.0
C2453 C 0.84185 0.16916 0.50854 0.0
C2454 C 0.84972 0.16945 0.5363 0.0
C2455 C 0.89211 0.1819 0.53075 0.0
C2456 C 0.85069 0.1548 0.54409 0.0
C2457 C 0.84419 0.15204 0.55852 0.0
C2458 C 0.83628 0.16366 0.56534 0.0
C2459 C 0.83519 0.17822 0.55749 0.0
C2460 C 0.84186 0.18109 0.54311 0.0
H2461 H 0.90752 0.19161 0.52764 0.0
H2462 H 0.89094 0.19004 0.54161 0.0
H2463 H 0.89042 0.16701 0.53293 0.0
H2464 H 0.85616 0.14522 0.53888 0.0
H2465 H 0.8449 0.14046 0.56418 0.0
H2466 H 0.91515 0.75221 0.46526 0.0
H2467 H 0.91051 0.73656 0.48863 0.0
H2468 H 0.84617 0.71179 0.47972 0.0
H2469 H 0.85055 0.72721 0.45647 0.0
H2470 H 0.89265 0.7445 0.51438 0.0
H2471 H 0.85034 0.66112 0.48721 0.0
H2472 H 0.86524 0.68177 0.47677 0.0
H2473 H 0.84032 0.67588 0.48016 0.0
C2474 C 0.89999 0.74326 0.4682 0.0
C2475 C 0.88322 0.74095 0.45897 0.0
C2476 C 0.89739 0.73437 0.48156 0.0
C2477 C 0.87797 0.72282 0.48577 0.0
C2478 C 0.86123 0.72035 0.47652 0.0
H2479 H 0.81847 0.66297 0.5592 0.0
H2480 H 0.82871 0.67707 0.53561 0.0
C2481 C 0.86381 0.7293 0.46327 0.0
C2482 C 0.8751 0.71411 0.50022 0.0
H2483 H 0.84938 0.66867 0.51409 0.0
C2484 C 0.88344 0.72791 0.51437 0.0
C2485 C 0.86302 0.69247 0.50011 0.0
C2486 C 0.85435 0.6769 0.48526 0.0
C2487 C 0.87926 0.72069 0.52843 0.0
C2488 C 0.86674 0.69907 0.52831 0.0
C2489 C 0.8589 0.68524 0.51416 0.0
C2490 C 0.86082 0.69049 0.54267 0.0
C2491 C 0.88755 0.73635 0.54324 0.0
C2492 C 0.87546 0.69317 0.55442 0.0
C2493 C 0.86965 0.68511 0.56794 0.0
C2494 C 0.84905 0.67405 0.56989 0.0
C2495 C 0.83443 0.6712 0.558 0.0
C2496 C 0.84026 0.67932 0.54453 0.0
H2497 H 0.89278 0.75236 0.54112 0.0
H2498 H 0.87592 0.73217 0.55112 0.0
H2499 H 0.9007 0.73649 0.54916 0.0
H2500 H 0.89137 0.70134 0.55309 0.0
H2501 H 0.88125 0.68728 0.57677 0.0
loop_
_geom_bond_atom_site_label_1
_geom_bond_atom_site_label_2
_geom_bond_distance
_geom_bond_site_symmetry_2
_ccdc_geom_bond_type
O0 Cd1 2.300 . S
O0 C7 1.275 . S
Cd1 O0 2.300 . S
Cd1 O9 2.381 . S
Cd1 O10 2.378 . S
O2 Cd3 2.385 . S
O2 C7 1.255 . S
Cd3 O2 2.385 . S
Cd3 O4 2.317 . S
O4 Cd3 2.317 . S
O4 C5 1.232 . S
C5 O4 1.232 . S
C5 O6 1.218 . S
O6 C5 1.218 . S
C7 O0 1.275 . S
C7 O2 1.255 . S
C8 O9 1.258 . S
C8 O10 1.256 . S
O9 Cd1 2.381 . S
O9 C8 1.258 . S
O10 Cd1 2.378 . S
O10 C8 1.256 . S
O11 Cd12 2.300 . S
O11 C18 1.275 . S
Cd12 O11 2.300 . S
Cd12 O20 2.381 . S
Cd12 O21 2.378 . S
O13 Cd14 2.385 . S
O13 C18 1.255 . S
Cd14 O13 2.385 . S
Cd14 O15 2.317 . S
O15 Cd14 2.317 . S
O15 C16 1.232 . S
C16 O15 1.232 . S
C16 O17 1.218 . S
O17 C16 1.218 . S
C18 O11 1.275 . S
C18 O13 1.255 . S
C19 O20 1.258 . S
C19 O21 1.256 . S
O20 Cd12 2.381 . S
O20 C19 1.258 . S
O21 Cd12 2.378 . S
O21 C19 1.256 . S
O22 Cd23 2.300 . S
O22 C29 1.275 . S
Cd23 O22 2.300 . S
Cd23 O31 2.381 . S
Cd23 O32 2.378 . S
O24 Cd25 2.385 . S
O24 C29 1.255 . S
Cd25 O24 2.385 . S
Cd25 O26 2.317 . S
O26 Cd25 2.317 . S
O26 C27 1.232 . S
C27 O26 1.232 . S
C27 O28 1.218 . S
O28 C27 1.218 . S
C29 O22 1.275 . S
C29 O24 1.255 . S
C30 O31 1.258 . S
C30 O32 1.256 . S
O31 Cd23 2.381 . S
O31 C30 1.258 . S
O32 Cd23 2.378 . S
O32 C30 1.256 . S
O33 Cd34 2.300 . S
O33 C40 1.275 . S
Cd34 O33 2.300 . S
Cd34 O42 2.381 . S
Cd34 O43 2.378 . S
O35 Cd36 2.385 . S
O35 C40 1.255 . S
Cd36 O35 2.385 . S
Cd36 O37 2.317 . S
O37 Cd36 2.317 . S
O37 C38 1.232 . S
C38 O37 1.232 . S
C38 O39 1.218 . S
O39 C38 1.218 . S
C40 O33 1.275 . S
C40 O35 1.255 . S
C41 O42 1.258 . S
C41 O43 1.256 . S
O42 Cd34 2.381 . S
O42 C41 1.258 . S
O43 Cd34 2.378 . S
O43 C41 1.256 . S
O44 Cd45 2.300 . S
O44 C51 1.275 . S
Cd45 O44 2.300 . S
Cd45 O53 2.381 . S
Cd45 O54 2.378 . S
O46 Cd47 2.385 . S
O46 C51 1.255 . S
Cd47 O46 2.385 . S
Cd47 O48 2.317 . S
O48 Cd47 2.317 . S
O48 C49 1.232 . S
C49 O48 1.232 . S
C49 O50 1.218 . S
O50 C49 1.218 . S
C51 O44 1.275 . S
C51 O46 1.255 . S
C52 O53 1.258 . S
C52 O54 1.256 . S
O53 Cd45 2.381 . S
O53 C52 1.258 . S
O54 Cd45 2.378 . S
O54 C52 1.256 . S
O55 Cd56 2.300 . S
O55 C62 1.275 . S
Cd56 O55 2.300 . S
Cd56 O64 2.381 . S
Cd56 O65 2.378 . S
O57 Cd58 2.385 . S
O57 C62 1.255 . S
Cd58 O57 2.385 . S
Cd58 O59 2.317 . S
O59 Cd58 2.317 . S
O59 C60 1.232 . S
C60 O59 1.232 . S
C60 O61 1.218 . S
O61 C60 1.218 . S
C62 O55 1.275 . S
C62 O57 1.255 . S
C63 O64 1.258 . S
C63 O65 1.256 . S
O64 Cd56 2.381 . S
O64 C63 1.258 . S
O65 Cd56 2.378 . S
O65 C63 1.256 . S
O66 Cd67 2.300 . S
O66 C73 1.275 . S
Cd67 O66 2.300 . S
Cd67 O75 2.381 . S
Cd67 O76 2.378 . S
O68 Cd69 2.385 . S
O68 C73 1.255 . S
Cd69 O68 2.385 . S
Cd69 O70 2.317 . S
O70 Cd69 2.317 . S
O70 C71 1.232 . S
C71 O70 1.232 . S
C71 O72 1.218 . S
O72 C71 1.218 . S
C73 O66 1.275 . S
C73 O68 1.255 . S
C74 O75 1.258 . S
C74 O76 1.256 . S
O75 Cd67 2.381 . S
O75 C74 1.258 . S
O76 Cd67 2.378 . S
O76 C74 1.256 . S
O77 Cd78 2.300 . S
O77 C84 1.275 . S
Cd78 O77 2.300 . S
Cd78 O86 2.381 . S
Cd78 O87 2.378 . S
O79 Cd80 2.385 . S
O79 C84 1.255 . S
Cd80 O79 2.385 . S
Cd80 O81 2.317 . S
O81 Cd80 2.317 . S
O81 C82 1.232 . S
C82 O81 1.232 . S
C82 O83 1.218 . S
O83 C82 1.218 . S
C84 O77 1.275 . S
C84 O79 1.255 . S
C85 O86 1.258 . S
C85 O87 1.256 . S
O86 Cd78 2.381 . S
O86 C85 1.258 . S
O87 Cd78 2.378 . S
O87 C85 1.256 . S
O88 Cd89 2.300 . S
O88 C95 1.275 . S
Cd89 O88 2.300 . S
Cd89 O97 2.381 . S
Cd89 O98 2.378 . S
O90 Cd91 2.385 . S
O90 C95 1.255 . S
Cd91 O90 2.385 . S
Cd91 O92 2.317 . S
O92 Cd91 2.317 . S
O92 C93 1.232 . S
C93 O92 1.232 . S
C93 O94 1.218 . S
O94 C93 1.218 . S
C95 O88 1.275 . S
C95 O90 1.255 . S
C96 O97 1.258 . S
C96 O98 1.256 . S
O97 Cd89 2.381 . S
O97 C96 1.258 . S
O98 Cd89 2.378 . S
O98 C96 1.256 . S
O99 Cd100 2.300 . S
O99 C106 1.275 . S
Cd100 O99 2.300 . S
Cd100 O108 2.381 . S
Cd100 O109 2.378 . S
O101 Cd102 2.385 . S
O101 C106 1.255 . S
Cd102 O101 2.385 . S
Cd102 O103 2.317 . S
O103 Cd102 2.317 . S
O103 C104 1.232 . S
C104 O103 1.232 . S
C104 O105 1.218 . S
O105 C104 1.218 . S
C106 O99 1.275 . S
C106 O101 1.255 . S
C107 O108 1.258 . S
C107 O109 1.256 . S
O108 Cd100 2.381 . S
O108 C107 1.258 . S
O109 Cd100 2.378 . S
O109 C107 1.256 . S
O110 Cd111 2.300 . S
O110 C117 1.275 . S
Cd111 O110 2.300 . S
Cd111 O119 2.381 . S
Cd111 O120 2.378 . S
O112 Cd113 2.385 . S
O112 C117 1.255 . S
Cd113 O112 2.385 . S
Cd113 O114 2.317 . S
O114 Cd113 2.317 . S
O114 C115 1.232 . S
C115 O114 1.232 . S
C115 O116 1.218 . S
O116 C115 1.218 . S
C117 O110 1.275 . S
C117 O112 1.255 . S
C118 O119 1.258 . S
C118 O120 1.256 . S
O119 Cd111 2.381 . S
O119 C118 1.258 . S
O120 Cd111 2.378 . S
O120 C118 1.256 . S
O121 Cd122 2.300 . S
O121 C128 1.275 . S
Cd122 O121 2.300 . S
Cd122 O130 2.381 . S
Cd122 O131 2.378 . S
O123 Cd124 2.385 . S
O123 C128 1.255 . S
Cd124 O123 2.385 . S
Cd124 O125 2.317 . S
O125 Cd124 2.317 . S
O125 C126 1.232 . S
C126 O125 1.232 . S
C126 O127 1.218 . S
O127 C126 1.218 . S
C128 O121 1.275 . S
C128 O123 1.255 . S
C129 O130 1.258 . S
C129 O131 1.256 . S
O130 Cd122 2.381 . S
O130 C129 1.258 . S
O131 Cd122 2.378 . S
O131 C129 1.256 . S
O132 Cd133 2.300 . S
O132 C139 1.275 . S
Cd133 O132 2.300 . S
Cd133 O141 2.381 . S
Cd133 O142 2.378 . S
O134 Cd135 2.385 . S
O134 C139 1.255 . S
Cd135 O134 2.385 . S
Cd135 O136 2.317 . S
O136 Cd135 2.317 . S
O136 C137 1.232 . S
C137 O136 1.232 . S
C137 O138 1.218 . S
O138 C137 1.218 . S
C139 O132 1.275 . S
C139 O134 1.255 . S
C140 O141 1.258 . S
C140 O142 1.256 . S
O141 Cd133 2.381 . S
O141 C140 1.258 . S
O142 Cd133 2.378 . S
O142 C140 1.256 . S
O143 Cd144 2.300 . S
O143 C150 1.275 . S
Cd144 O143 2.300 . S
Cd144 O152 2.381 . S
Cd144 O153 2.378 . S
O145 Cd146 2.385 . S
O145 C150 1.255 . S
Cd146 O145 2.385 . S
Cd146 O147 2.317 . S
O147 Cd146 2.317 . S
O147 C148 1.232 . S
C148 O147 1.232 . S
C148 O149 1.218 . S
O149 C148 1.218 . S
C150 O143 1.275 . S
C150 O145 1.255 . S
C151 O152 1.258 . S
C151 O153 1.256 . S
O152 Cd144 2.381 . S
O152 C151 1.258 . S
O153 Cd144 2.378 . S
O153 C151 1.256 . S
O154 Cd155 2.300 . S
O154 C161 1.275 . S
Cd155 O154 2.300 . S
Cd155 O163 2.381 . S
Cd155 O164 2.378 . S
O156 Cd157 2.385 . S
O156 C161 1.255 . S
Cd157 O156 2.385 . S
Cd157 O158 2.317 . S
O158 Cd157 2.317 . S
O158 C159 1.232 . S
C159 O158 1.232 . S
C159 O160 1.218 . S
O160 C159 1.218 . S
C161 O154 1.275 . S
C161 O156 1.255 . S
C162 O163 1.258 . S
C162 O164 1.256 . S
O163 Cd155 2.381 . S
O163 C162 1.258 . S
O164 Cd155 2.378 . S
O164 C162 1.256 . S
O165 Cd166 2.300 . S
O165 C172 1.275 . S
Cd166 O165 2.300 . S
Cd166 O174 2.381 . S
Cd166 O175 2.378 . S
O167 Cd168 2.385 . S
O167 C172 1.255 . S
Cd168 O167 2.385 . S
Cd168 O169 2.317 . S
O169 Cd168 2.317 . S
O169 C170 1.232 . S
C170 O169 1.232 . S
C170 O171 1.218 . S
O171 C170 1.218 . S
C172 O165 1.275 . S
C172 O167 1.255 . S
C173 O174 1.258 . S
C173 O175 1.256 . S
O174 Cd166 2.381 . S
O174 C173 1.258 . S
O175 Cd166 2.378 . S
O175 C173 1.256 . S
O176 Cd177 2.300 . S
O176 C183 1.275 . S
Cd177 O176 2.300 . S
Cd177 O185 2.381 . S
Cd177 O186 2.378 . S
O178 Cd179 2.385 . S
O178 C183 1.255 . S
Cd179 O178 2.385 . S
Cd179 O180 2.317 . S
O180 Cd179 2.317 . S
O180 C181 1.232 . S
C181 O180 1.232 . S
C181 O182 1.218 . S
O182 C181 1.218 . S
C183 O176 1.275 . S
C183 O178 1.255 . S
C184 O185 1.258 . S
C184 O186 1.256 . S
O185 Cd177 2.381 . S
O185 C184 1.258 . S
O186 Cd177 2.378 . S
O186 C184 1.256 . S
O187 Cd188 2.300 . S
O187 C194 1.275 . S
Cd188 O187 2.300 . S
Cd188 O196 2.381 . S
Cd188 O197 2.378 . S
O189 Cd190 2.385 . S
O189 C194 1.255 . S
Cd190 O189 2.385 . S
Cd190 O191 2.317 . S
O191 Cd190 2.317 . S
O191 C192 1.232 . S
C192 O191 1.232 . S
C192 O193 1.218 . S
O193 C192 1.218 . S
C194 O187 1.275 . S
C194 O189 1.255 . S
C195 O196 1.258 . S
C195 O197 1.256 . S
O196 Cd188 2.381 . S
O196 C195 1.258 . S
O197 Cd188 2.378 . S
O197 C195 1.256 . S
Eu198 C207 2.828 . S
Eu198 O209 2.359 1_556 S
Eu198 O211 2.418 . S
Eu198 O216 2.373 1_565 S
Eu198 O219 2.488 . S
Eu198 O220 2.471 1_565 S
Eu198 O221 2.349 1_566 S
Eu199 O208 2.373 1_545 S
Eu199 O212 2.488 . S
Eu199 O213 2.471 1_545 S
Eu199 O214 2.349 1_545 S
Eu199 O217 2.392 . S
Eu199 O218 2.418 . S
Eu199 C228 2.828 . S
C200 O218 1.244 . S
C200 O221 1.264 . S
C201 C202 1.379 . S
C201 C205 1.373 1_545 S
C201 C207 1.505 1_545 S
C202 C201 1.379 . S
C202 C204 1.369 . S
C202 H230 0.930 . S
C203 C205 1.401 . S
C203 C206 1.325 1_565 S
C203 H231 0.973 . S
C204 C202 1.369 . S
C204 C206 1.392 . S
C204 H232 0.930 . S
C205 C201 1.373 1_565 S
C205 C203 1.401 . S
C205 H233 0.931 . S
C206 C203 1.325 1_545 S
C206 C204 1.392 . S
C207 Eu198 2.828 . S
C207 C201 1.505 1_565 S
C207 O219 1.249 . S
C207 O220 1.244 1_565 S
O208 Eu199 2.373 1_565 S
O208 C210 1.258 . S
O209 Eu198 2.359 1_554 S
O209 C210 1.285 . S
C210 O208 1.258 . S
C210 O209 1.285 . S
O211 Eu198 2.418 . S
O211 C215 1.244 1_556 S
O212 Eu199 2.488 . S
O212 C228 1.249 . S
O213 Eu199 2.471 1_565 S
O213 C228 1.244 1_565 S
O214 Eu199 2.349 1_565 S
O214 C215 1.265 . S
C215 O211 1.244 1_554 S
C215 O214 1.265 . S
O216 Eu198 2.373 1_545 S
O216 C229 1.300 . S
O217 Eu199 2.392 . S
O217 C229 1.172 1_554 S
O218 Eu199 2.418 . S
O218 C200 1.244 . S
O219 Eu198 2.488 . S
O219 C207 1.249 . S
O220 Eu198 2.471 1_545 S
O220 C207 1.244 1_545 S
O221 Eu198 2.349 1_544 S
O221 C200 1.264 . S
C222 C223 1.379 . S
C222 C226 1.373 1_565 S
C222 C228 1.505 1_565 S
C223 C222 1.379 . S
C223 C225 1.369 . S
C223 H234 0.930 . S
C224 C226 1.383 . S
C224 C227 1.382 1_545 S
C224 H235 0.930 . S
C225 C223 1.369 . S
C225 C227 1.392 . S
C225 H236 0.930 . S
C226 C222 1.373 1_545 S
C226 C224 1.383 . S
C226 H237 0.931 . S
C227 C224 1.382 1_565 S
C227 C225 1.392 . S
C228 Eu199 2.828 . S
C228 O212 1.249 . S
C228 O213 1.244 1_545 S
C228 C222 1.505 1_545 S
C229 O216 1.300 . S
C229 O217 1.172 1_556 S
H230 C202 0.930 . S
H231 C203 0.973 . S
H232 C204 0.930 . S
H233 C205 0.931 . S
H234 C223 0.930 . S
H235 C224 0.930 . S
H236 C225 0.930 . S
H237 C226 0.931 . S
Eu238 C247 2.828 1_455 S
Eu238 O249 2.392 1_556 S
Eu238 O251 2.408 1_556 S
Eu238 O256 2.373 1_455 S
Eu238 O259 2.488 . S
Eu238 O260 2.471 1_455 S
Eu238 O261 2.349 1_456 S
Eu239 O248 2.373 1_655 S
Eu239 O252 2.488 . S
Eu239 O253 2.471 1_655 S
Eu239 O254 2.349 1_655 S
Eu239 O257 2.392 . S
Eu239 O258 2.418 . S
Eu239 C268 2.828 1_655 S
C240 O258 1.244 . S
C240 O261 1.265 . S
C241 C242 1.379 . S
C241 C245 1.365 1_655 S
C241 C247 1.505 . S
C242 C241 1.379 . S
C242 C244 1.369 . S
C242 H270 0.930 . S
C243 C245 1.373 1_655 S
C243 C246 1.382 . S
C243 H271 0.924 1_655 S
C244 C242 1.369 . S
C244 C246 1.392 . S
C244 H272 0.930 . S
C245 C241 1.365 1_455 S
C245 C243 1.373 1_455 S
C245 H273 0.949 . S
C246 C243 1.382 . S
C246 C244 1.392 . S
C247 Eu238 2.828 1_655 S
C247 C241 1.505 . S
C247 O259 1.249 1_655 S
C247 O260 1.244 . S
O248 Eu239 2.373 1_455 S
O248 C250 1.258 . S
O249 Eu238 2.392 1_554 S
O249 C250 1.242 . S
C250 O248 1.258 . S
C250 O249 1.242 . S
O251 Eu238 2.408 1_554 S
O251 C255 1.294 . S
O252 Eu239 2.488 . S
O252 C268 1.249 1_655 S
O253 Eu239 2.471 1_455 S
O253 C268 1.244 . S
O254 Eu239 2.349 1_455 S
O254 C255 1.265 . S
C255 O251 1.294 . S
C255 O254 1.265 . S
O256 Eu238 2.373 1_655 S
O256 C269 1.277 . S
O257 Eu239 2.392 . S
O257 C269 1.212 1_554 S
O258 Eu239 2.418 . S
O258 C240 1.244 . S
O259 Eu238 2.488 . S
O259 C247 1.249 1_455 S
O260 Eu238 2.471 1_655 S
O260 C247 1.244 . S
O261 Eu238 2.349 1_654 S
O261 C240 1.265 . S
C262 C263 1.379 . S
C262 C266 1.373 . S
C262 C268 1.505 . S
C263 C262 1.379 . S
C263 C265 1.369 . S
C263 H274 0.930 . S
C264 C266 1.383 . S
C264 C267 1.382 . S
C264 H275 0.930 . S
C265 C263 1.369 . S
C265 C267 1.392 . S
C265 H276 0.930 . S
C266 C262 1.373 . S
C266 C264 1.383 . S
C266 H277 0.931 1_455 S
C267 C264 1.382 . S
C267 C265 1.392 . S
C268 Eu239 2.828 1_455 S
C268 O252 1.249 1_455 S
C268 O253 1.244 . S
C268 C262 1.505 . S
C269 O256 1.277 . S
C269 O257 1.212 1_556 S
H270 C242 0.930 . S
H271 C243 0.924 1_455 S
H272 C244 0.930 . S
H273 C245 0.949 . S
H274 C263 0.930 . S
H275 C264 0.930 . S
H276 C265 0.930 . S
H277 C266 0.931 1_655 S
Eu278 C287 2.828 . S
Eu278 O289 2.392 . S
Eu278 O291 2.418 . S
Eu278 O296 2.373 . S
Eu278 O299 2.488 . S
Eu278 O300 2.471 . S
Eu278 O301 2.349 . S
Eu279 O288 2.373 . S
Eu279 O292 2.488 . S
Eu279 O293 2.471 . S
Eu279 O294 2.349 . S
Eu279 O297 2.370 1_556 S
Eu279 O298 2.418 . S
Eu279 C308 2.828 . S
C280 O298 1.244 1_554 S
C280 O301 1.265 . S
C281 C282 1.379 . S
C281 C285 1.373 . S
C281 C287 1.505 . S
C282 C281 1.379 . S
C282 C284 1.369 . S
C282 H310 0.930 . S
C283 C285 1.383 . S
C283 C286 1.382 . S
C283 H311 0.930 . S
C284 C282 1.369 . S
C284 C286 1.392 . S
C284 H312 0.930 . S
C285 C281 1.373 . S
C285 C283 1.383 . S
C285 H313 0.931 . S
C286 C283 1.382 . S
C286 C284 1.392 . S
C287 Eu278 2.828 . S
C287 C281 1.505 . S
C287 O299 1.249 . S
C287 O300 1.244 . S
O288 Eu279 2.373 . S
O288 C290 1.258 . S
O289 Eu278 2.392 . S
O289 C290 1.242 1_554 S
C290 O288 1.258 . S
C290 O289 1.242 1_556 S
O291 Eu278 2.418 . S
O291 C295 1.244 . S
O292 Eu279 2.488 . S
O292 C308 1.249 . S
O293 Eu279 2.471 . S
O293 C308 1.244 . S
O294 Eu279 2.349 . S
O294 C295 1.265 1_556 S
C295 O291 1.244 . S
C295 O294 1.265 1_554 S
O296 Eu278 2.373 . S
O296 C309 1.258 . S
O297 Eu279 2.370 1_554 S
O297 C309 1.273 . S
O298 Eu279 2.418 . S
O298 C280 1.244 1_556 S
O299 Eu278 2.488 . S
O299 C287 1.249 . S
O300 Eu278 2.471 . S
O300 C287 1.244 . S
O301 Eu278 2.349 . S
O301 C280 1.265 . S
C302 C303 1.379 . S
C302 C306 1.373 . S
C302 C308 1.505 . S
C303 C302 1.379 . S
C303 C305 1.369 . S
C303 H314 0.930 . S
C304 C306 1.383 . S
C304 C307 1.382 . S
C304 H315 0.930 . S
C305 C303 1.369 . S
C305 C307 1.392 . S
C305 H316 0.930 . S
C306 C302 1.373 . S
C306 C304 1.383 . S
C306 H317 0.931 . S
C307 C304 1.382 . S
C307 C305 1.392 . S
C308 Eu279 2.828 . S
C308 O292 1.249 . S
C308 O293 1.244 . S
C308 C302 1.505 . S
C309 O296 1.258 . S
C309 O297 1.273 . S
H310 C282 0.930 . S
H311 C283 0.930 . S
H312 C284 0.930 . S
H313 C285 0.931 . S
H314 C303 0.930 . S
H315 C304 0.930 . S
H316 C305 0.930 . S
H317 C306 0.931 . S
Eu318 C327 2.828 . S
Eu318 O329 2.392 . S
Eu318 O331 2.418 . S
Eu318 O336 2.373 . S
Eu318 O339 2.488 . S
Eu318 O340 2.471 . S
Eu318 O341 2.349 . S
Eu319 O328 2.373 . S
Eu319 O332 2.488 . S
Eu319 O333 2.471 . S
Eu319 O334 2.349 . S
Eu319 O337 2.392 . S
Eu319 O338 2.418 . S
Eu319 C348 2.828 . S
C320 O338 1.244 . S
C320 O341 1.265 . S
C321 C322 1.379 . S
C321 C325 1.373 . S
C321 C327 1.505 . S
C322 C321 1.379 . S
C322 C324 1.369 . S
C322 H350 0.930 . S
C323 C325 1.383 . S
C323 C326 1.382 . S
C323 H351 0.930 . S
C324 C322 1.369 . S
C324 C326 1.392 . S
C324 H352 0.930 . S
C325 C321 1.373 . S
C325 C323 1.383 . S
C325 H353 0.931 . S
C326 C323 1.382 . S
C326 C324 1.392 . S
C327 Eu318 2.828 . S
C327 C321 1.505 . S
C327 O339 1.249 . S
C327 O340 1.244 . S
O328 Eu319 2.373 . S
O328 C330 1.258 . S
O329 Eu318 2.392 . S
O329 C330 1.242 . S
C330 O328 1.258 . S
C330 O329 1.242 . S
O331 Eu318 2.418 . S
O331 C335 1.244 . S
O332 Eu319 2.488 . S
O332 C348 1.249 . S
O333 Eu319 2.471 . S
O333 C348 1.244 . S
O334 Eu319 2.349 . S
O334 C335 1.265 . S
C335 O331 1.244 . S
C335 O334 1.265 . S
O336 Eu318 2.373 . S
O336 C349 1.258 . S
O337 Eu319 2.392 . S
O337 C349 1.242 . S
O338 Eu319 2.418 . S
O338 C320 1.244 . S
O339 Eu318 2.488 . S
O339 C327 1.249 . S
O340 Eu318 2.471 . S
O340 C327 1.244 . S
O341 Eu318 2.349 . S
O341 C320 1.265 . S
C342 C343 1.379 . S
C342 C346 1.373 . S
C342 C348 1.505 . S
C343 C342 1.379 . S
C343 C345 1.369 . S
C343 H354 0.930 . S
C344 C346 1.383 . S
C344 C347 1.382 . S
C344 H355 0.930 . S
C345 C343 1.369 . S
C345 C347 1.392 . S
C345 H356 0.930 . S
C346 C342 1.373 . S
C346 C344 1.383 . S
C346 H357 0.931 . S
C347 C344 1.382 . S
C347 C345 1.392 . S
C348 Eu319 2.828 . S
C348 O332 1.249 . S
C348 O333 1.244 . S
C348 C342 1.505 . S
C349 O336 1.258 . S
C349 O337 1.242 . S
H350 C322 0.930 . S
H351 C323 0.930 . S
H352 C324 0.930 . S
H353 C325 0.931 . S
H354 C343 0.930 . S
H355 C344 0.930 . S
H356 C345 0.930 . S
H357 C346 0.931 . S
Eu358 C367 2.828 . S
Eu358 O369 2.392 . S
Eu358 O371 2.418 . S
Eu358 O376 2.373 . S
Eu358 O379 2.488 . S
Eu358 O380 2.471 . S
Eu358 O381 2.349 . S
Eu359 O368 2.373 . S
Eu359 O372 2.488 . S
Eu359 O373 2.471 . S
Eu359 O374 2.349 . S
Eu359 O377 2.392 . S
Eu359 O378 2.418 . S
Eu359 C388 2.828 . S
C360 O378 1.244 . S
C360 O381 1.265 . S
C361 C362 1.379 . S
C361 C365 1.373 . S
C361 C367 1.505 . S
C362 C361 1.379 . S
C362 C364 1.369 . S
C362 H390 0.930 . S
C363 C365 1.383 . S
C363 C366 1.382 . S
C363 H391 0.930 . S
C364 C362 1.369 . S
C364 C366 1.392 . S
C364 H392 0.930 . S
C365 C361 1.373 . S
C365 C363 1.383 . S
C365 H393 0.931 . S
C366 C363 1.382 . S
C366 C364 1.392 . S
C367 Eu358 2.828 . S
C367 C361 1.505 . S
C367 O379 1.249 . S
C367 O380 1.244 . S
O368 Eu359 2.373 . S
O368 C370 1.258 . S
O369 Eu358 2.392 . S
O369 C370 1.242 . S
C370 O368 1.258 . S
C370 O369 1.242 . S
O371 Eu358 2.418 . S
O371 C375 1.244 . S
O372 Eu359 2.488 . S
O372 C388 1.249 . S
O373 Eu359 2.471 . S
O373 C388 1.244 . S
O374 Eu359 2.349 . S
O374 C375 1.265 . S
C375 O371 1.244 . S
C375 O374 1.265 . S
O376 Eu358 2.373 . S
O376 C389 1.258 . S
O377 Eu359 2.392 . S
O377 C389 1.242 . S
O378 Eu359 2.418 . S
O378 C360 1.244 . S
O379 Eu358 2.488 . S
O379 C367 1.249 . S
O380 Eu358 2.471 . S
O380 C367 1.244 . S
O381 Eu358 2.349 . S
O381 C360 1.265 . S
C382 C383 1.379 . S
C382 C386 1.373 . S
C382 C388 1.505 . S
C383 C382 1.379 . S
C383 C385 1.369 . S
C383 H394 0.930 . S
C384 C386 1.383 . S
C384 C387 1.382 . S
C384 H395 0.930 . S
C385 C383 1.369 . S
C385 C387 1.392 . S
C385 H396 0.930 . S
C386 C382 1.373 . S
C386 C384 1.383 . S
C386 H397 0.931 . S
C387 C384 1.382 . S
C387 C385 1.392 . S
C388 Eu359 2.828 . S
C388 O372 1.249 . S
C388 O373 1.244 . S
C388 C382 1.505 . S
C389 O376 1.258 . S
C389 O377 1.242 . S
H390 C362 0.930 . S
H391 C363 0.930 . S
H392 C364 0.930 . S
H393 C365 0.931 . S
H394 C383 0.930 . S
H395 C384 0.930 . S
H396 C385 0.930 . S
H397 C386 0.931 . S
Eu398 C407 2.828 . S
Eu398 O409 2.392 . S
Eu398 O411 2.418 . S
Eu398 O416 2.373 . S
Eu398 O419 2.488 . S
Eu398 O420 2.471 . S
Eu398 O421 2.349 . S
Eu399 O408 2.373 . S
Eu399 O412 2.488 . S
Eu399 O413 2.471 . S
Eu399 O414 2.349 . S
Eu399 O417 2.392 . S
Eu399 O418 2.418 . S
Eu399 C428 2.828 . S
C400 O418 1.244 . S
C400 O421 1.265 . S
C401 C402 1.379 . S
C401 C405 1.373 . S
C401 C407 1.505 . S
C402 C401 1.379 . S
C402 C404 1.369 . S
C402 H430 0.930 . S
C403 C405 1.383 . S
C403 C406 1.382 . S
C403 H431 0.930 . S
C404 C402 1.369 . S
C404 C406 1.392 . S
C404 H432 0.930 . S
C405 C401 1.373 . S
C405 C403 1.383 . S
C405 H433 0.931 . S
C406 C403 1.382 . S
C406 C404 1.392 . S
C407 Eu398 2.828 . S
C407 C401 1.505 . S
C407 O419 1.249 . S
C407 O420 1.244 . S
O408 Eu399 2.373 . S
O408 C410 1.258 . S
O409 Eu398 2.392 . S
O409 C410 1.242 . S
C410 O408 1.258 . S
C410 O409 1.242 . S
O411 Eu398 2.418 . S
O411 C415 1.244 . S
O412 Eu399 2.488 . S
O412 C428 1.249 . S
O413 Eu399 2.471 . S
O413 C428 1.244 . S
O414 Eu399 2.349 . S
O414 C415 1.265 . S
C415 O411 1.244 . S
C415 O414 1.265 . S
O416 Eu398 2.373 . S
O416 C429 1.258 . S
O417 Eu399 2.392 . S
O417 C429 1.242 . S
O418 Eu399 2.418 . S
O418 C400 1.244 . S
O419 Eu398 2.488 . S
O419 C407 1.249 . S
O420 Eu398 2.471 . S
O420 C407 1.244 . S
O421 Eu398 2.349 . S
O421 C400 1.265 . S
C422 C423 1.379 . S
C422 C426 1.373 . S
C422 C428 1.505 . S
C423 C422 1.379 . S
C423 C425 1.369 . S
C423 H434 0.930 . S
C424 C426 1.383 . S
C424 C427 1.382 . S
C424 H435 0.930 . S
C425 C423 1.369 . S
C425 C427 1.392 . S
C425 H436 0.930 . S
C426 C422 1.373 . S
C426 C424 1.383 . S
C426 H437 0.931 . S
C427 C424 1.382 . S
C427 C425 1.392 . S
C428 Eu399 2.828 . S
C428 O412 1.249 . S
C428 O413 1.244 . S
C428 C422 1.505 . S
C429 O416 1.258 . S
C429 O417 1.242 . S
H430 C402 0.930 . S
H431 C403 0.930 . S
H432 C404 0.930 . S
H433 C405 0.931 . S
H434 C423 0.930 . S
H435 C424 0.930 . S
H436 C425 0.930 . S
H437 C426 0.931 . S
Eu438 C447 2.828 . S
Eu438 O449 2.392 . S
Eu438 O451 2.418 . S
Eu438 O456 2.373 . S
Eu438 O459 2.488 . S
Eu438 O460 2.471 . S
Eu438 O461 2.349 . S
Eu439 O448 2.373 . S
Eu439 O452 2.488 . S
Eu439 O453 2.471 . S
Eu439 O454 2.349 . S
Eu439 O457 2.392 . S
Eu439 O458 2.418 . S
Eu439 C468 2.828 . S
C440 O458 1.244 . S
C440 O461 1.265 . S
C441 C442 1.379 . S
C441 C445 1.373 . S
C441 C447 1.505 . S
C442 C441 1.379 . S
C442 C444 1.369 . S
C442 H470 0.930 . S
C443 C445 1.383 . S
C443 C446 1.382 . S
C443 H471 0.930 . S
C444 C442 1.369 . S
C444 C446 1.392 . S
C444 H472 0.930 . S
C445 C441 1.373 . S
C445 C443 1.383 . S
C445 H473 0.931 . S
C446 C443 1.382 . S
C446 C444 1.392 . S
C447 Eu438 2.828 . S
C447 C441 1.505 . S
C447 O459 1.249 . S
C447 O460 1.244 . S
O448 Eu439 2.373 . S
O448 C450 1.258 . S
O449 Eu438 2.392 . S
O449 C450 1.242 . S
C450 O448 1.258 . S
C450 O449 1.242 . S
O451 Eu438 2.418 . S
O451 C455 1.244 . S
O452 Eu439 2.488 . S
O452 C468 1.249 . S
O453 Eu439 2.471 . S
O453 C468 1.244 . S
O454 Eu439 2.349 . S
O454 C455 1.265 . S
C455 O451 1.244 . S
C455 O454 1.265 . S
O456 Eu438 2.373 . S
O456 C469 1.258 . S
O457 Eu439 2.392 . S
O457 C469 1.242 . S
O458 Eu439 2.418 . S
O458 C440 1.244 . S
O459 Eu438 2.488 . S
O459 C447 1.249 . S
O460 Eu438 2.471 . S
O460 C447 1.244 . S
O461 Eu438 2.349 . S
O461 C440 1.265 . S
C462 C463 1.379 . S
C462 C466 1.373 . S
C462 C468 1.505 . S
C463 C462 1.379 . S
C463 C465 1.369 . S
C463 H474 0.930 . S
C464 C466 1.383 . S
C464 C467 1.382 . S
C464 H475 0.930 . S
C465 C463 1.369 . S
C465 C467 1.392 . S
C465 H476 0.930 . S
C466 C462 1.373 . S
C466 C464 1.383 . S
C466 H477 0.931 . S
C467 C464 1.382 . S
C467 C465 1.392 . S
C468 Eu439 2.828 . S
C468 O452 1.249 . S
C468 O453 1.244 . S
C468 C462 1.505 . S
C469 O456 1.258 . S
C469 O457 1.242 . S
H470 C442 0.930 . S
H471 C443 0.930 . S
H472 C444 0.930 . S
H473 C445 0.931 . S
H474 C463 0.930 . S
H475 C464 0.930 . S
H476 C465 0.930 . S
H477 C466 0.931 . S
Eu478 C487 2.828 . S
Eu478 O489 2.392 . S
Eu478 O491 2.418 . S
Eu478 O496 2.373 . S
Eu478 O499 2.488 . S
Eu478 O500 2.471 . S
Eu478 O501 2.349 . S
Eu479 O488 2.373 . S
Eu479 O492 2.488 . S
Eu479 O493 2.471 . S
Eu479 O494 2.349 . S
Eu479 O497 2.392 . S
Eu479 O498 2.418 . S
Eu479 C508 2.828 . S
C480 O498 1.244 . S
C480 O501 1.265 . S
C481 C482 1.379 . S
C481 C485 1.373 . S
C481 C487 1.505 . S
C482 C481 1.379 . S
C482 C484 1.369 . S
C482 H510 0.930 . S
C483 C485 1.383 . S
C483 C486 1.382 . S
C483 H511 0.930 . S
C484 C482 1.369 . S
C484 C486 1.392 . S
C484 H512 0.930 . S
C485 C481 1.373 . S
C485 C483 1.383 . S
C485 H513 0.931 . S
C486 C483 1.382 . S
C486 C484 1.392 . S
C487 Eu478 2.828 . S
C487 C481 1.505 . S
C487 O499 1.249 . S
C487 O500 1.244 . S
O488 Eu479 2.373 . S
O488 C490 1.258 . S
O489 Eu478 2.392 . S
O489 C490 1.242 . S
C490 O488 1.258 . S
C490 O489 1.242 . S
O491 Eu478 2.418 . S
O491 C495 1.244 . S
O492 Eu479 2.488 . S
O492 C508 1.249 . S
O493 Eu479 2.471 . S
O493 C508 1.244 . S
O494 Eu479 2.349 . S
O494 C495 1.265 . S
C495 O491 1.244 . S
C495 O494 1.265 . S
O496 Eu478 2.373 . S
O496 C509 1.258 . S
O497 Eu479 2.392 . S
O497 C509 1.242 . S
O498 Eu479 2.418 . S
O498 C480 1.244 . S
O499 Eu478 2.488 . S
O499 C487 1.249 . S
O500 Eu478 2.471 . S
O500 C487 1.244 . S
O501 Eu478 2.349 . S
O501 C480 1.265 . S
C502 C503 1.379 . S
C502 C506 1.373 . S
C502 C508 1.505 . S
C503 C502 1.379 . S
C503 C505 1.369 . S
C503 H514 0.930 . S
C504 C506 1.383 . S
C504 C507 1.382 . S
C504 H515 0.930 . S
C505 C503 1.369 . S
C505 C507 1.392 . S
C505 H516 0.930 . S
C506 C502 1.373 . S
C506 C504 1.383 . S
C506 H517 0.931 . S
C507 C504 1.382 . S
C507 C505 1.392 . S
C508 Eu479 2.828 . S
C508 O492 1.249 . S
C508 O493 1.244 . S
C508 C502 1.505 . S
C509 O496 1.258 . S
C509 O497 1.242 . S
H510 C482 0.930 . S
H511 C483 0.930 . S
H512 C484 0.930 . S
H513 C485 0.931 . S
H514 C503 0.930 . S
H515 C504 0.930 . S
H516 C505 0.930 . S
H517 C506 0.931 . S
Eu518 C527 2.828 . S
Eu518 O529 2.392 . S
Eu518 O531 2.418 . S
Eu518 O536 2.373 . S
Eu518 O539 2.488 . S
Eu518 O540 2.471 . S
Eu518 O541 2.349 . S
Eu519 O528 2.373 . S
Eu519 O532 2.488 . S
Eu519 O533 2.471 . S
Eu519 O534 2.349 . S
Eu519 O537 2.392 . S
Eu519 O538 2.418 . S
Eu519 C548 2.828 . S
C520 O538 1.244 . S
C520 O541 1.265 . S
C521 C522 1.379 . S
C521 C525 1.373 . S
C521 C527 1.505 . S
C522 C521 1.379 . S
C522 C524 1.369 . S
C522 H550 0.930 . S
C523 C525 1.383 . S
C523 C526 1.382 . S
C523 H551 0.930 . S
C524 C522 1.369 . S
C524 C526 1.392 . S
C524 H552 0.930 . S
C525 C521 1.373 . S
C525 C523 1.383 . S
C525 H553 0.931 . S
C526 C523 1.382 . S
C526 C524 1.392 . S
C527 Eu518 2.828 . S
C527 C521 1.505 . S
C527 O539 1.249 . S
C527 O540 1.244 . S
O528 Eu519 2.373 . S
O528 C530 1.258 . S
O529 Eu518 2.392 . S
O529 C530 1.242 . S
C530 O528 1.258 . S
C530 O529 1.242 . S
O531 Eu518 2.418 . S
O531 C535 1.244 . S
O532 Eu519 2.488 . S
O532 C548 1.249 . S
O533 Eu519 2.471 . S
O533 C548 1.244 . S
O534 Eu519 2.349 . S
O534 C535 1.265 . S
C535 O531 1.244 . S
C535 O534 1.265 . S
O536 Eu518 2.373 . S
O536 C549 1.258 . S
O537 Eu519 2.392 . S
O537 C549 1.242 . S
O538 Eu519 2.418 . S
O538 C520 1.244 . S
O539 Eu518 2.488 . S
O539 C527 1.249 . S
O540 Eu518 2.471 . S
O540 C527 1.244 . S
O541 Eu518 2.349 . S
O541 C520 1.265 . S
C542 C543 1.379 . S
C542 C546 1.373 . S
C542 C548 1.505 . S
C543 C542 1.379 . S
C543 C545 1.369 . S
C543 H554 0.930 . S
C544 C546 1.383 . S
C544 C547 1.382 . S
C544 H555 0.930 . S
C545 C543 1.369 . S
C545 C547 1.392 . S
C545 H556 0.930 . S
C546 C542 1.373 . S
C546 C544 1.383 . S
C546 H557 0.931 . S
C547 C544 1.382 . S
C547 C545 1.392 . S
C548 Eu519 2.828 . S
C548 O532 1.249 . S
C548 O533 1.244 . S
C548 C542 1.505 . S
C549 O536 1.258 . S
C549 O537 1.242 . S
H550 C522 0.930 . S
H551 C523 0.930 . S
H552 C524 0.930 . S
H553 C525 0.931 . S
H554 C543 0.930 . S
H555 C544 0.930 . S
H556 C545 0.930 . S
H557 C546 0.931 . S
H558 C566 0.929 . S
H559 C568 0.930 . S
H560 C570 0.930 . S
H561 C573 0.929 . S
H562 C576 0.930 . S
H563 C578 0.960 . S
H564 C578 0.960 . S
H565 C578 0.960 . S
C566 H558 0.929 . S
C566 C567 1.377 . S
C566 C568 1.384 . S
C567 C566 1.377 . S
C567 C573 1.390 . S
C568 H559 0.930 . S
C568 C566 1.384 . S
C568 C569 1.372 . S
C569 C568 1.372 . S
C569 C570 1.400 . S
C569 C574 1.490 . S
C570 H560 0.930 . S
C570 C569 1.400 . S
C570 C573 1.386 . S
H571 C587 0.930 . S
H572 C588 0.931 . S
C573 H561 0.929 . S
C573 C567 1.390 . S
C573 C570 1.386 . S
C574 C569 1.490 . S
C574 C576 1.395 . S
C574 C577 1.403 . S
H575 C581 0.930 . S
C576 H562 0.930 . S
C576 C574 1.395 . S
C576 C579 1.403 . S
C577 C574 1.403 . S
C577 C578 1.524 . S
C577 C581 1.400 . S
C578 H563 0.960 . S
C578 H564 0.960 . S
C578 H565 0.960 . S
C578 C577 1.524 . S
C579 C576 1.403 . S
C579 C580 1.392 . S
C579 C583 1.495 . S
C580 C579 1.392 . S
C580 C581 1.385 . S
C580 C582 1.478 . S
C581 H575 0.930 . S
C581 C577 1.400 . S
C581 C580 1.385 . S
C582 C580 1.478 . S
C582 C584 1.381 . S
C582 C588 1.383 . S
C583 C579 1.495 . S
C583 H589 0.959 . S
C583 H590 0.961 . S
C583 H591 0.960 . S
C584 C582 1.381 . S
C584 C585 1.394 . S
C584 H592 0.930 . S
C585 C584 1.394 . S
C585 C586 1.383 . S
C585 H593 0.929 1_554 S
C586 C585 1.383 . S
C586 C587 1.377 . S
C587 H571 0.930 . S
C587 C586 1.377 . S
C587 C588 1.379 . S
C588 H572 0.931 . S
C588 C582 1.383 . S
C588 C587 1.379 . S
H589 C583 0.959 . S
H590 C583 0.961 . S
H591 C583 0.960 . S
H592 C584 0.930 . S
H593 C585 0.929 1_556 S
H594 C602 0.929 . S
H595 C604 0.930 . S
H596 C606 0.930 . S
H597 C609 0.929 . S
H598 C612 0.930 . S
H599 C614 0.960 . S
H600 C614 0.960 . S
H601 C614 0.960 . S
C602 H594 0.929 . S
C602 C603 1.377 . S
C602 C604 1.384 . S
C603 C602 1.377 . S
C603 C609 1.390 . S
C604 H595 0.930 . S
C604 C602 1.384 . S
C604 C605 1.372 . S
C605 C604 1.372 . S
C605 C606 1.400 . S
C605 C610 1.490 . S
C606 H596 0.930 . S
C606 C605 1.400 . S
C606 C609 1.386 . S
H607 C623 0.930 . S
H608 C624 0.931 . S
C609 H597 0.929 . S
C609 C603 1.390 . S
C609 C606 1.386 . S
C610 C605 1.490 . S
C610 C612 1.395 . S
C610 C613 1.403 . S
H611 C617 0.930 . S
C612 H598 0.930 . S
C612 C610 1.395 . S
C612 C615 1.403 . S
C613 C610 1.403 . S
C613 C614 1.524 . S
C613 C617 1.400 . S
C614 H599 0.960 . S
C614 H600 0.960 . S
C614 H601 0.960 . S
C614 C613 1.524 . S
C615 C612 1.403 . S
C615 C616 1.392 . S
C615 C619 1.495 . S
C616 C615 1.392 . S
C616 C617 1.385 . S
C616 C618 1.478 . S
C617 H611 0.930 . S
C617 C613 1.400 . S
C617 C616 1.385 . S
C618 C616 1.478 . S
C618 C620 1.381 . S
C618 C624 1.383 . S
C619 C615 1.495 . S
C619 H625 0.959 . S
C619 H626 0.961 . S
C619 H627 0.960 . S
C620 C618 1.381 . S
C620 C621 1.394 . S
C620 H628 0.930 . S
C621 C620 1.394 . S
C621 C622 1.383 . S
C621 H629 0.929 . S
C622 C621 1.383 . S
C622 C623 1.377 . S
C623 H607 0.930 . S
C623 C622 1.377 . S
C623 C624 1.379 . S
C624 H608 0.931 . S
C624 C618 1.383 . S
C624 C623 1.379 . S
H625 C619 0.959 . S
H626 C619 0.961 . S
H627 C619 0.960 . S
H628 C620 0.930 . S
H629 C621 0.929 . S
H630 C638 0.929 . S
H631 C640 0.930 . S
H632 C642 0.930 . S
H633 C645 0.929 . S
H634 C648 0.930 . S
H635 C650 0.960 . S
H636 C650 0.960 . S
H637 C650 0.960 . S
C638 H630 0.929 . S
C638 C639 1.377 . S
C638 C640 1.384 . S
C639 C638 1.377 . S
C639 C645 1.390 . S
C640 H631 0.930 . S
C640 C638 1.384 . S
C640 C641 1.372 . S
C641 C640 1.372 . S
C641 C642 1.400 . S
C641 C646 1.490 . S
C642 H632 0.930 . S
C642 C641 1.400 . S
C642 C645 1.386 . S
H643 C659 0.930 1_556 S
H644 C660 0.931 1_556 S
C645 H633 0.929 . S
C645 C639 1.390 . S
C645 C642 1.386 . S
C646 C641 1.490 . S
C646 C648 1.395 . S
C646 C649 1.403 . S
H647 C653 0.930 . S
C648 H634 0.930 . S
C648 C646 1.395 . S
C648 C651 1.403 . S
C649 C646 1.403 . S
C649 C650 1.524 . S
C649 C653 1.400 . S
C650 H635 0.960 . S
C650 H636 0.960 . S
C650 H637 0.960 . S
C650 C649 1.524 . S
C651 C648 1.403 . S
C651 C652 1.392 . S
C651 C655 1.495 . S
C652 C651 1.392 . S
C652 C653 1.385 . S
C652 C654 1.478 . S
C653 H647 0.930 . S
C653 C649 1.400 . S
C653 C652 1.385 . S
C654 C652 1.478 . S
C654 C656 1.381 . S
C654 C660 1.383 . S
C655 C651 1.495 . S
C655 H661 0.959 . S
C655 H662 0.961 . S
C655 H663 0.960 . S
C656 C654 1.381 . S
C656 C657 1.394 . S
C656 H664 0.930 . S
C657 C656 1.394 . S
C657 C658 1.383 . S
C657 H665 0.929 . S
C658 C657 1.383 . S
C658 C659 1.377 . S
C659 H643 0.930 1_554 S
C659 C658 1.377 . S
C659 C660 1.379 . S
C660 H644 0.931 1_554 S
C660 C654 1.383 . S
C660 C659 1.379 . S
H661 C655 0.959 . S
H662 C655 0.961 . S
H663 C655 0.960 . S
H664 C656 0.930 . S
H665 C657 0.929 . S
H666 C674 0.929 . S
H667 C676 0.930 . S
H668 C678 0.930 . S
H669 C681 0.929 . S
H670 C684 0.930 1_554 S
H671 C686 0.960 . S
H672 C686 0.960 . S
H673 C686 0.960 . S
C674 H666 0.929 . S
C674 C675 1.377 . S
C674 C676 1.384 . S
C675 C674 1.377 . S
C675 C681 1.390 . S
C676 H667 0.930 . S
C676 C674 1.384 . S
C676 C677 1.372 . S
C677 C676 1.372 . S
C677 C678 1.400 . S
C677 C682 1.490 . S
C678 H668 0.930 . S
C678 C677 1.400 . S
C678 C681 1.386 . S
H679 C695 0.930 . S
H680 C696 0.931 . S
C681 H669 0.929 . S
C681 C675 1.390 . S
C681 C678 1.386 . S
C682 C677 1.490 . S
C682 C684 1.395 . S
C682 C685 1.403 . S
H683 C689 0.930 . S
C684 H670 0.930 1_556 S
C684 C682 1.395 . S
C684 C687 1.403 1_556 S
C685 C682 1.403 . S
C685 C686 1.524 . S
C685 C689 1.400 . S
C686 H671 0.960 . S
C686 H672 0.960 . S
C686 H673 0.960 . S
C686 C685 1.524 . S
C687 C684 1.403 1_554 S
C687 C688 1.392 1_554 S
C687 C691 1.495 . S
C688 C687 1.392 1_556 S
C688 C689 1.385 . S
C688 C690 1.478 . S
C689 H683 0.930 . S
C689 C685 1.400 . S
C689 C688 1.385 . S
C690 C688 1.478 . S
C690 C692 1.365 1_556 S
C690 C696 1.383 . S
C691 C687 1.495 . S
C691 H697 0.959 . S
C691 H698 0.961 . S
C691 H699 0.960 . S
C692 C690 1.365 1_554 S
C692 C693 1.395 . S
C692 H700 0.949 . S
C693 C692 1.395 . S
C693 C694 1.402 . S
C693 H701 0.929 . S
C694 C693 1.402 . S
C694 C695 1.360 1_554 S
C695 H679 0.930 . S
C695 C694 1.360 1_556 S
C695 C696 1.379 . S
C696 H680 0.931 . S
C696 C690 1.383 . S
C696 C695 1.379 . S
H697 C691 0.959 . S
H698 C691 0.961 . S
H699 C691 0.960 . S
H700 C692 0.949 . S
H701 C693 0.929 . S
H702 C710 0.929 . S
H703 C712 0.930 . S
H704 C714 0.930 . S
H705 C717 0.929 . S
H706 C720 0.930 . S
H707 C722 0.960 . S
H708 C722 0.960 . S
H709 C722 0.960 . S
C710 H702 0.929 . S
C710 C711 1.377 . S
C710 C712 1.384 . S
C711 C710 1.377 . S
C711 C717 1.390 . S
C712 H703 0.930 . S
C712 C710 1.384 . S
C712 C713 1.372 . S
C713 C712 1.372 . S
C713 C714 1.400 . S
C713 C718 1.490 . S
C714 H704 0.930 . S
C714 C713 1.400 . S
C714 C717 1.386 . S
H715 C731 0.930 . S
H716 C732 0.931 . S
C717 H705 0.929 . S
C717 C711 1.390 . S
C717 C714 1.386 . S
C718 C713 1.490 . S
C718 C720 1.395 . S
C718 C721 1.403 . S
H719 C725 0.930 . S
C720 H706 0.930 . S
C720 C718 1.395 . S
C720 C723 1.403 . S
C721 C718 1.403 . S
C721 C722 1.524 . S
C721 C725 1.400 . S
C722 H707 0.960 . S
C722 H708 0.960 . S
C722 H709 0.960 . S
C722 C721 1.524 . S
C723 C720 1.403 . S
C723 C724 1.392 . S
C723 C727 1.513 . S
C724 C723 1.392 . S
C724 C725 1.385 . S
C724 C726 1.478 . S
C725 H719 0.930 . S
C725 C721 1.400 . S
C725 C724 1.385 . S
C726 C724 1.478 . S
C726 C728 1.381 . S
C726 C732 1.383 . S
C727 C723 1.513 . S
C727 H733 0.955 1_556 S
C727 H734 0.967 . S
C727 H735 0.941 1_556 S
C728 C726 1.381 . S
C728 C729 1.394 . S
C728 H736 0.930 1_556 S
C729 C728 1.394 . S
C729 C730 1.383 . S
C729 H737 0.929 1_556 S
C730 C729 1.383 . S
C730 C731 1.377 . S
C731 H715 0.930 . S
C731 C730 1.377 . S
C731 C732 1.379 . S
C732 H716 0.931 . S
C732 C726 1.383 . S
C732 C731 1.379 . S
H733 C727 0.955 1_554 S
H734 C727 0.967 . S
H735 C727 0.941 1_554 S
H736 C728 0.930 1_554 S
H737 C729 0.929 1_554 S
H738 C746 0.929 . S
H739 C748 0.930 . S
H740 C750 0.930 . S
H741 C753 0.929 . S
H742 C756 0.930 . S
H743 C758 0.960 . S
H744 C758 0.960 . S
H745 C758 0.960 . S
C746 H738 0.929 . S
C746 C747 1.377 . S
C746 C748 1.384 . S
C747 C746 1.377 . S
C747 C753 1.390 . S
C748 H739 0.930 . S
C748 C746 1.384 . S
C748 C749 1.372 . S
C749 C748 1.372 . S
C749 C750 1.400 . S
C749 C754 1.490 . S
C750 H740 0.930 . S
C750 C749 1.400 . S
C750 C753 1.386 . S
H751 C767 0.930 . S
H752 C768 0.931 . S
C753 H741 0.929 . S
C753 C747 1.390 . S
C753 C750 1.386 . S
C754 C749 1.490 . S
C754 C756 1.395 . S
C754 C757 1.403 1_556 S
H755 C761 0.930 . S
C756 H742 0.930 . S
C756 C754 1.395 . S
C756 C759 1.403 . S
C757 C754 1.403 1_554 S
C757 C758 1.524 . S
C757 C761 1.400 . S
C758 H743 0.960 . S
C758 H744 0.960 . S
C758 H745 0.960 . S
C758 C757 1.524 . S
C759 C756 1.403 . S
C759 C760 1.392 . S
C759 C763 1.495 . S
C760 C759 1.392 . S
C760 C761 1.385 1_556 S
C760 C762 1.478 . S
C761 H755 0.930 . S
C761 C757 1.400 . S
C761 C760 1.385 1_554 S
C762 C760 1.478 . S
C762 C764 1.381 . S
C762 C768 1.383 . S
C763 C759 1.495 . S
C763 H769 0.959 . S
C763 H770 0.961 . S
C763 H771 0.960 . S
C764 C762 1.381 . S
C764 C765 1.412 . S
C764 H772 0.930 . S
C765 C764 1.412 . S
C765 C766 1.382 1_556 S
C765 H773 0.923 . S
C766 C765 1.382 1_554 S
C766 C767 1.377 . S
C767 H751 0.930 . S
C767 C766 1.377 . S
C767 C768 1.379 1_554 S
C768 H752 0.931 . S
C768 C762 1.383 . S
C768 C767 1.379 1_556 S
H769 C763 0.959 . S
H770 C763 0.961 . S
H771 C763 0.960 . S
H772 C764 0.930 . S
H773 C765 0.923 . S
H774 C782 0.929 . S
H775 C784 0.930 . S
H776 C786 0.930 . S
H777 C789 0.929 . S
H778 C792 0.930 . S
H779 C794 0.960 . S
H780 C794 0.960 . S
H781 C794 0.960 . S
C782 H774 0.929 . S
C782 C783 1.377 . S
C782 C784 1.384 . S
C783 C782 1.377 . S
C783 C789 1.390 . S
C784 H775 0.930 . S
C784 C782 1.384 . S
C784 C785 1.372 . S
C785 C784 1.372 . S
C785 C786 1.400 . S
C785 C790 1.490 . S
C786 H776 0.930 . S
C786 C785 1.400 . S
C786 C789 1.386 . S
H787 C803 0.930 . S
H788 C804 0.931 . S
C789 H777 0.929 . S
C789 C783 1.390 . S
C789 C786 1.386 . S
C790 C785 1.490 . S
C790 C792 1.395 . S
C790 C793 1.403 . S
H791 C797 0.930 . S
C792 H778 0.930 . S
C792 C790 1.395 . S
C792 C795 1.403 . S
C793 C790 1.403 . S
C793 C794 1.524 . S
C793 C797 1.400 . S
C794 H779 0.960 . S
C794 H780 0.960 . S
C794 H781 0.960 . S
C794 C793 1.524 . S
C795 C792 1.403 . S
C795 C796 1.392 . S
C795 C799 1.495 . S
C796 C795 1.392 . S
C796 C797 1.385 . S
C796 C798 1.478 . S
C797 H791 0.930 . S
C797 C793 1.400 . S
C797 C796 1.385 . S
C798 C796 1.478 . S
C798 C800 1.381 . S
C798 C804 1.383 . S
C799 C795 1.495 . S
C799 H805 0.959 . S
C799 H806 0.961 . S
C799 H807 0.960 . S
C800 C798 1.381 . S
C800 C801 1.370 1_556 S
C800 H808 0.930 1_556 S
C801 C800 1.370 1_554 S
C801 C802 1.368 1_554 S
C801 H809 0.973 . S
C802 C801 1.368 1_556 S
C802 C803 1.377 . S
C803 H787 0.930 . S
C803 C802 1.377 . S
C803 C804 1.379 . S
C804 H788 0.931 . S
C804 C798 1.383 . S
C804 C803 1.379 . S
H805 C799 0.959 . S
H806 C799 0.961 . S
H807 C799 0.960 . S
H808 C800 0.930 1_554 S
H809 C801 0.973 . S
H810 C818 0.929 . S
H811 C820 0.930 . S
H812 C822 0.930 . S
H813 C825 0.929 . S
H814 C828 0.930 . S
H815 C830 0.960 . S
H816 C830 0.960 . S
H817 C830 0.960 . S
C818 H810 0.929 . S
C818 C819 1.377 . S
C818 C820 1.384 . S
C819 C818 1.377 . S
C819 C825 1.390 . S
C820 H811 0.930 . S
C820 C818 1.384 . S
C820 C821 1.372 . S
C821 C820 1.372 . S
C821 C822 1.400 . S
C821 C826 1.490 . S
C822 H812 0.930 . S
C822 C821 1.400 . S
C822 C825 1.386 . S
H823 C839 0.911 1_554 S
H824 C840 0.931 . S
C825 H813 0.929 . S
C825 C819 1.390 . S
C825 C822 1.386 . S
C826 C821 1.490 . S
C826 C828 1.395 . S
C826 C829 1.403 . S
H827 C833 0.930 . S
C828 H814 0.930 . S
C828 C826 1.395 . S
C828 C831 1.403 . S
C829 C826 1.403 . S
C829 C830 1.524 . S
C829 C833 1.400 . S
C830 H815 0.960 . S
C830 H816 0.960 . S
C830 H817 0.960 . S
C830 C829 1.524 . S
C831 C828 1.403 . S
C831 C832 1.392 . S
C831 C835 1.495 1_556 S
C832 C831 1.392 . S
C832 C833 1.385 . S
C832 C834 1.478 . S
C833 H827 0.930 . S
C833 C829 1.400 . S
C833 C832 1.385 . S
C834 C832 1.478 . S
C834 C836 1.381 . S
C834 C840 1.383 . S
C835 C831 1.495 1_554 S
C835 H841 0.959 . S
C835 H842 0.961 . S
C835 H843 0.956 1_554 S
C836 C834 1.381 . S
C836 C837 1.394 . S
C836 H844 0.930 . S
C837 C836 1.394 . S
C837 C838 1.383 . S
C837 H845 0.929 . S
C838 C837 1.383 . S
C838 C839 1.377 . S
C839 H823 0.911 1_556 S
C839 C838 1.377 . S
C839 C840 1.379 . S
C840 H824 0.931 . S
C840 C834 1.383 . S
C840 C839 1.379 . S
H841 C835 0.959 . S
H842 C835 0.961 . S
H843 C835 0.956 1_556 S
H844 C836 0.930 . S
H845 C837 0.929 . S
H846 C854 0.929 . S
H847 C856 0.930 . S
H848 C858 0.955 . S
H849 C861 0.929 . S
H850 C864 0.930 . S
H851 C866 0.960 . S
H852 C866 0.960 . S
H853 C866 0.960 . S
C854 H846 0.929 . S
C854 C855 1.377 . S
C854 C856 1.384 . S
C855 C854 1.377 . S
C855 C861 1.390 . S
C856 H847 0.930 . S
C856 C854 1.384 . S
C856 C857 1.372 . S
C857 C856 1.372 . S
C857 C858 1.400 . S
C857 C862 1.490 . S
C858 H848 0.955 . S
C858 C857 1.400 . S
C858 C861 1.386 . S
H859 C875 0.930 . S
H860 C876 0.931 . S
C861 H849 0.929 . S
C861 C855 1.390 . S
C861 C858 1.386 . S
C862 C857 1.490 . S
C862 C864 1.395 . S
C862 C865 1.403 . S
H863 C869 0.930 . S
C864 H850 0.930 . S
C864 C862 1.395 . S
C864 C867 1.403 . S
C865 C862 1.403 . S
C865 C866 1.524 . S
C865 C869 1.400 . S
C866 H851 0.960 . S
C866 H852 0.960 . S
C866 H853 0.960 . S
C866 C865 1.524 . S
C867 C864 1.403 . S
C867 C868 1.392 . S
C867 C871 1.519 . S
C868 C867 1.392 . S
C868 C869 1.385 . S
C868 C870 1.478 . S
C869 H863 0.930 . S
C869 C865 1.400 . S
C869 C868 1.385 . S
C870 C868 1.478 . S
C870 C872 1.381 . S
C870 C876 1.383 1_556 S
C871 C867 1.519 . S
C871 H877 0.940 1_556 S
C871 H878 0.910 1_556 S
C871 H879 1.009 . S
C872 C870 1.381 . S
C872 C873 1.394 . S
C872 H880 0.930 . S
C873 C872 1.394 . S
C873 C874 1.383 . S
C873 H881 0.929 . S
C874 C873 1.383 . S
C874 C875 1.377 1_556 S
C875 H859 0.930 . S
C875 C874 1.377 1_554 S
C875 C876 1.379 . S
C876 H860 0.931 . S
C876 C870 1.383 1_554 S
C876 C875 1.379 . S
H877 C871 0.940 1_554 S
H878 C871 0.910 1_554 S
H879 C871 1.009 . S
H880 C872 0.930 . S
H881 C873 0.929 . S
H882 C890 0.929 . S
H883 C892 0.930 . S
H884 C894 0.930 . S
H885 C897 0.929 . S
H886 C900 0.930 . S
H887 C902 0.960 . S
H888 C902 0.960 . S
H889 C902 0.960 . S
C890 H882 0.929 . S
C890 C891 1.377 . S
C890 C892 1.384 . S
C891 C890 1.377 . S
C891 C897 1.390 . S
C892 H883 0.930 . S
C892 C890 1.384 . S
C892 C893 1.372 . S
C893 C892 1.372 . S
C893 C894 1.400 . S
C893 C898 1.490 . S
C894 H884 0.930 . S
C894 C893 1.400 . S
C894 C897 1.386 . S
H895 C911 0.930 . S
H896 C912 0.931 . S
C897 H885 0.929 . S
C897 C891 1.390 . S
C897 C894 1.386 . S
C898 C893 1.490 . S
C898 C900 1.395 . S
C898 C901 1.403 . S
H899 C905 0.930 . S
C900 H886 0.930 . S
C900 C898 1.395 . S
C900 C903 1.403 . S
C901 C898 1.403 . S
C901 C902 1.524 . S
C901 C905 1.400 . S
C902 H887 0.960 . S
C902 H888 0.960 . S
C902 H889 0.960 . S
C902 C901 1.524 . S
C903 C900 1.403 . S
C903 C904 1.392 . S
C903 C907 1.474 1_554 S
C904 C903 1.392 . S
C904 C905 1.385 . S
C904 C906 1.478 . S
C905 H899 0.930 . S
C905 C901 1.400 . S
C905 C904 1.385 . S
C906 C904 1.478 . S
C906 C908 1.381 . S
C906 C912 1.383 . S
C907 C903 1.474 1_556 S
C907 H913 0.975 . S
C907 H914 0.963 . S
C907 H915 0.963 . S
C908 C906 1.381 . S
C908 C909 1.394 . S
C908 H916 0.930 . S
C909 C908 1.394 . S
C909 C910 1.383 . S
C909 H917 0.929 . S
C910 C909 1.383 . S
C910 C911 1.377 . S
C911 H895 0.930 . S
C911 C910 1.377 . S
C911 C912 1.379 . S
C912 H896 0.931 . S
C912 C906 1.383 . S
C912 C911 1.379 . S
H913 C907 0.975 . S
H914 C907 0.963 . S
H915 C907 0.963 . S
H916 C908 0.930 . S
H917 C909 0.929 . S
H918 C926 0.929 . S
H919 C928 0.930 . S
H920 C930 0.930 . S
H921 C933 0.929 . S
H922 C936 0.930 . S
H923 C938 0.960 . S
H924 C938 0.960 . S
H925 C938 0.960 . S
C926 H918 0.929 . S
C926 C927 1.377 . S
C926 C928 1.384 . S
C927 C926 1.377 . S
C927 C933 1.390 . S
C928 H919 0.930 . S
C928 C926 1.384 . S
C928 C929 1.372 . S
C929 C928 1.372 . S
C929 C930 1.400 . S
C929 C934 1.490 . S
C930 H920 0.930 . S
C930 C929 1.400 . S
C930 C933 1.386 . S
H931 C947 0.930 . S
H932 C948 0.931 . S
C933 H921 0.929 . S
C933 C927 1.390 . S
C933 C930 1.386 . S
C934 C929 1.490 . S
C934 C936 1.395 . S
C934 C937 1.403 . S
H935 C941 0.930 . S
C936 H922 0.930 . S
C936 C934 1.395 . S
C936 C939 1.403 . S
C937 C934 1.403 . S
C937 C938 1.524 . S
C937 C941 1.400 . S
C938 H923 0.960 . S
C938 H924 0.960 . S
C938 H925 0.960 . S
C938 C937 1.524 . S
C939 C936 1.403 . S
C939 C940 1.392 . S
C939 C943 1.495 . S
C940 C939 1.392 . S
C940 C941 1.385 . S
C940 C942 1.478 . S
C941 H935 0.930 . S
C941 C937 1.400 . S
C941 C940 1.385 . S
C942 C940 1.478 . S
C942 C944 1.381 . S
C942 C948 1.383 . S
C943 C939 1.495 . S
C943 H949 0.959 . S
C943 H950 0.961 . S
C943 H951 0.960 . S
C944 C942 1.381 . S
C944 C945 1.394 . S
C944 H952 0.930 . S
C945 C944 1.394 . S
C945 C946 1.383 . S
C945 H953 0.929 . S
C946 C945 1.383 . S
C946 C947 1.377 . S
C947 H931 0.930 . S
C947 C946 1.377 . S
C947 C948 1.379 . S
C948 H932 0.931 . S
C948 C942 1.383 . S
C948 C947 1.379 . S
H949 C943 0.959 . S
H950 C943 0.961 . S
H951 C943 0.960 . S
H952 C944 0.930 . S
H953 C945 0.929 . S
H954 C962 0.929 . S
H955 C964 0.930 . S
H956 C966 0.930 . S
H957 C969 0.929 . S
H958 C972 0.930 . S
H959 C974 0.960 . S
H960 C974 0.960 . S
H961 C974 0.960 . S
C962 H954 0.929 . S
C962 C963 1.377 . S
C962 C964 1.384 . S
C963 C962 1.377 . S
C963 C969 1.390 . S
C964 H955 0.930 . S
C964 C962 1.384 . S
C964 C965 1.372 . S
C965 C964 1.372 . S
C965 C966 1.400 . S
C965 C970 1.490 . S
C966 H956 0.930 . S
C966 C965 1.400 . S
C966 C969 1.386 . S
H967 C983 0.983 . S
H968 C984 0.931 1_556 S
C969 H957 0.929 . S
C969 C963 1.390 . S
C969 C966 1.386 . S
C970 C965 1.490 . S
C970 C972 1.395 . S
C970 C973 1.403 . S
H971 C977 0.930 . S
C972 H958 0.930 . S
C972 C970 1.395 . S
C972 C975 1.403 . S
C973 C970 1.403 . S
C973 C974 1.524 . S
C973 C977 1.400 . S
C974 H959 0.960 . S
C974 H960 0.960 . S
C974 H961 0.960 . S
C974 C973 1.524 . S
C975 C972 1.403 . S
C975 C976 1.392 . S
C975 C979 1.495 . S
C976 C975 1.392 . S
C976 C977 1.385 . S
C976 C978 1.478 . S
C977 H971 0.930 . S
C977 C973 1.400 . S
C977 C976 1.385 . S
C978 C976 1.478 . S
C978 C980 1.381 . S
C978 C984 1.383 . S
C979 C975 1.495 . S
C979 H985 0.959 . S
C979 H986 0.961 . S
C979 H987 0.960 . S
C980 C978 1.381 . S
C980 C981 1.394 . S
C980 H988 0.930 . S
C981 C980 1.394 . S
C981 C982 1.383 . S
C981 H989 0.929 . S
C982 C981 1.383 . S
C982 C983 1.338 1_554 S
C983 H967 0.983 . S
C983 C982 1.338 1_556 S
C983 C984 1.367 1_556 S
C984 H968 0.931 1_554 S
C984 C978 1.383 . S
C984 C983 1.367 1_554 S
H985 C979 0.959 . S
H986 C979 0.961 . S
H987 C979 0.960 . S
H988 C980 0.930 . S
H989 C981 0.929 . S
H990 C998 0.929 . S
H991 C1000 0.930 . S
H992 C1002 0.930 . S
H993 C1005 0.929 . S
H994 C1008 0.924 1_655 S
H995 C1010 0.960 . S
H996 C1010 0.960 . S
H997 C1010 0.960 . S
C998 H990 0.929 . S
C998 C999 1.377 . S
C998 C1000 1.384 . S
C999 C998 1.377 . S
C999 C1005 1.390 . S
C1000 H991 0.930 . S
C1000 C998 1.384 . S
C1000 C1001 1.372 . S
C1001 C1000 1.372 . S
C1001 C1002 1.400 . S
C1001 C1006 1.490 1_655 S
C1002 H992 0.930 . S
C1002 C1001 1.400 . S
C1002 C1005 1.386 . S
H1003 C1019 0.930 . S
H1004 C1020 0.931 . S
C1005 H993 0.929 . S
C1005 C999 1.390 . S
C1005 C1002 1.386 . S
C1006 C1001 1.490 1_455 S
C1006 C1008 1.395 . S
C1006 C1009 1.403 . S
H1007 C1013 0.930 . S
C1008 H994 0.924 1_455 S
C1008 C1006 1.395 . S
C1008 C1011 1.403 . S
C1009 C1006 1.403 . S
C1009 C1010 1.524 . S
C1009 C1013 1.400 . S
C1010 H995 0.960 . S
C1010 H996 0.960 . S
C1010 H997 0.960 . S
C1010 C1009 1.524 . S
C1011 C1008 1.403 . S
C1011 C1012 1.392 . S
C1011 C1015 1.495 . S
C1012 C1011 1.392 . S
C1012 C1013 1.385 . S
C1012 C1014 1.478 . S
C1013 H1007 0.930 . S
C1013 C1009 1.400 . S
C1013 C1012 1.385 . S
C1014 C1012 1.478 . S
C1014 C1016 1.381 . S
C1014 C1020 1.383 . S
C1015 C1011 1.495 . S
C1015 H1021 0.959 . S
C1015 H1022 0.961 . S
C1015 H1023 0.960 . S
C1016 C1014 1.381 . S
C1016 C1017 1.394 . S
C1016 H1024 0.930 . S
C1017 C1016 1.394 . S
C1017 C1018 1.383 . S
C1017 H1025 0.929 . S
C1018 C1017 1.383 . S
C1018 C1019 1.377 . S
C1019 H1003 0.930 . S
C1019 C1018 1.377 . S
C1019 C1020 1.379 . S
C1020 H1004 0.931 . S
C1020 C1014 1.383 . S
C1020 C1019 1.379 . S
H1021 C1015 0.959 . S
H1022 C1015 0.961 . S
H1023 C1015 0.960 . S
H1024 C1016 0.930 . S
H1025 C1017 0.929 . S
H1026 C1034 0.929 . S
H1027 C1036 0.930 . S
H1028 C1038 0.930 . S
H1029 C1041 0.929 . S
H1030 C1044 0.930 . S
H1031 C1046 0.960 . S
H1032 C1046 0.960 . S
H1033 C1046 0.960 . S
C1034 H1026 0.929 . S
C1034 C1035 1.377 . S
C1034 C1036 1.384 . S
C1035 C1034 1.377 . S
C1035 C1041 1.390 . S
C1036 H1027 0.930 . S
C1036 C1034 1.384 . S
C1036 C1037 1.372 . S
C1037 C1036 1.372 . S
C1037 C1038 1.400 . S
C1037 C1042 1.490 . S
C1038 H1028 0.930 . S
C1038 C1037 1.400 . S
C1038 C1041 1.386 . S
H1039 C1055 0.930 . S
H1040 C1056 0.931 . S
C1041 H1029 0.929 . S
C1041 C1035 1.390 . S
C1041 C1038 1.386 . S
C1042 C1037 1.490 . S
C1042 C1044 1.395 . S
C1042 C1045 1.403 . S
H1043 C1049 0.930 . S
C1044 H1030 0.930 . S
C1044 C1042 1.395 . S
C1044 C1047 1.403 . S
C1045 C1042 1.403 . S
C1045 C1046 1.524 . S
C1045 C1049 1.400 . S
C1046 H1031 0.960 . S
C1046 H1032 0.960 . S
C1046 H1033 0.960 . S
C1046 C1045 1.524 . S
C1047 C1044 1.403 . S
C1047 C1048 1.392 . S
C1047 C1051 1.495 . S
C1048 C1047 1.392 . S
C1048 C1049 1.385 . S
C1048 C1050 1.478 . S
C1049 H1043 0.930 . S
C1049 C1045 1.400 . S
C1049 C1048 1.385 . S
C1050 C1048 1.478 . S
C1050 C1052 1.381 . S
C1050 C1056 1.383 . S
C1051 C1047 1.495 . S
C1051 H1057 0.959 . S
C1051 H1058 0.961 . S
C1051 H1059 0.960 . S
C1052 C1050 1.381 . S
C1052 C1053 1.394 . S
C1052 H1060 0.930 . S
C1053 C1052 1.394 . S
C1053 C1054 1.383 . S
C1053 H1061 0.929 . S
C1054 C1053 1.383 . S
C1054 C1055 1.377 . S
C1055 H1039 0.930 . S
C1055 C1054 1.377 . S
C1055 C1056 1.379 . S
C1056 H1040 0.931 . S
C1056 C1050 1.383 . S
C1056 C1055 1.379 . S
H1057 C1051 0.959 . S
H1058 C1051 0.961 . S
H1059 C1051 0.960 . S
H1060 C1052 0.930 . S
H1061 C1053 0.929 . S
H1062 C1070 0.929 . S
H1063 C1072 0.930 . S
H1064 C1074 0.930 . S
H1065 C1077 0.929 . S
H1066 C1080 0.930 1_545 S
H1067 C1082 0.960 . S
H1068 C1082 0.960 . S
H1069 C1082 0.960 . S
C1070 H1062 0.929 . S
C1070 C1071 1.377 . S
C1070 C1072 1.384 . S
C1071 C1070 1.377 . S
C1071 C1077 1.390 . S
C1072 H1063 0.930 . S
C1072 C1070 1.384 . S
C1072 C1073 1.372 . S
C1073 C1072 1.372 . S
C1073 C1074 1.400 . S
C1073 C1078 1.490 . S
C1074 H1064 0.930 . S
C1074 C1073 1.400 . S
C1074 C1077 1.386 . S
H1075 C1091 0.930 . S
H1076 C1092 0.931 . S
C1077 H1065 0.929 . S
C1077 C1071 1.390 . S
C1077 C1074 1.386 . S
C1078 C1073 1.490 . S
C1078 C1080 1.395 1_545 S
C1078 C1081 1.403 . S
H1079 C1085 0.930 . S
C1080 H1066 0.930 1_565 S
C1080 C1078 1.395 1_565 S
C1080 C1083 1.403 . S
C1081 C1078 1.403 . S
C1081 C1082 1.524 . S
C1081 C1085 1.400 1_545 S
C1082 H1067 0.960 . S
C1082 H1068 0.960 . S
C1082 H1069 0.960 . S
C1082 C1081 1.524 . S
C1083 C1080 1.403 . S
C1083 C1084 1.392 . S
C1083 C1087 1.495 . S
C1084 C1083 1.392 . S
C1084 C1085 1.385 . S
C1084 C1086 1.478 . S
C1085 H1079 0.930 . S
C1085 C1081 1.400 1_565 S
C1085 C1084 1.385 . S
C1086 C1084 1.478 . S
C1086 C1088 1.381 . S
C1086 C1092 1.383 . S
C1087 C1083 1.495 . S
C1087 H1093 0.959 . S
C1087 H1094 0.961 . S
C1087 H1095 0.960 . S
C1088 C1086 1.381 . S
C1088 C1089 1.394 . S
C1088 H1096 0.930 . S
C1089 C1088 1.394 . S
C1089 C1090 1.383 . S
C1089 H1097 0.929 . S
C1090 C1089 1.383 . S
C1090 C1091 1.377 . S
C1091 H1075 0.930 . S
C1091 C1090 1.377 . S
C1091 C1092 1.379 . S
C1092 H1076 0.931 . S
C1092 C1086 1.383 . S
C1092 C1091 1.379 . S
H1093 C1087 0.959 . S
H1094 C1087 0.961 . S
H1095 C1087 0.960 . S
H1096 C1088 0.930 . S
H1097 C1089 0.929 . S
H1098 C1106 0.929 . S
H1099 C1108 0.930 . S
H1100 C1110 0.930 . S
H1101 C1113 0.929 . S
H1102 C1116 0.930 . S
H1103 C1118 0.960 . S
H1104 C1118 0.960 . S
H1105 C1118 0.960 . S
C1106 H1098 0.929 . S
C1106 C1107 1.377 . S
C1106 C1108 1.384 . S
C1107 C1106 1.377 . S
C1107 C1113 1.390 . S
C1108 H1099 0.930 . S
C1108 C1106 1.384 . S
C1108 C1109 1.372 . S
C1109 C1108 1.372 . S
C1109 C1110 1.400 . S
C1109 C1114 1.490 . S
C1110 H1100 0.930 . S
C1110 C1109 1.400 . S
C1110 C1113 1.386 . S
H1111 C1127 0.930 . S
H1112 C1128 0.931 . S
C1113 H1101 0.929 . S
C1113 C1107 1.390 . S
C1113 C1110 1.386 . S
C1114 C1109 1.490 . S
C1114 C1116 1.395 . S
C1114 C1117 1.403 . S
H1115 C1121 0.930 . S
C1116 H1102 0.930 . S
C1116 C1114 1.395 . S
C1116 C1119 1.403 . S
C1117 C1114 1.403 . S
C1117 C1118 1.524 . S
C1117 C1121 1.400 . S
C1118 H1103 0.960 . S
C1118 H1104 0.960 . S
C1118 H1105 0.960 . S
C1118 C1117 1.524 . S
C1119 C1116 1.403 . S
C1119 C1120 1.392 . S
C1119 C1123 1.495 . S
C1120 C1119 1.392 . S
C1120 C1121 1.385 . S
C1120 C1122 1.478 . S
C1121 H1115 0.930 . S
C1121 C1117 1.400 . S
C1121 C1120 1.385 . S
C1122 C1120 1.478 . S
C1122 C1124 1.381 . S
C1122 C1128 1.383 . S
C1123 C1119 1.495 . S
C1123 H1129 0.959 . S
C1123 H1130 0.961 . S
C1123 H1131 0.960 . S
C1124 C1122 1.381 . S
C1124 C1125 1.394 . S
C1124 H1132 0.930 . S
C1125 C1124 1.394 . S
C1125 C1126 1.383 . S
C1125 H1133 0.929 . S
C1126 C1125 1.383 . S
C1126 C1127 1.377 . S
C1127 H1111 0.930 . S
C1127 C1126 1.377 . S
C1127 C1128 1.379 . S
C1128 H1112 0.931 . S
C1128 C1122 1.383 . S
C1128 C1127 1.379 . S
H1129 C1123 0.959 . S
H1130 C1123 0.961 . S
H1131 C1123 0.960 . S
H1132 C1124 0.930 . S
H1133 C1125 0.929 . S
H1134 C1142 0.929 . S
H1135 C1144 0.930 . S
H1136 C1146 0.930 . S
H1137 C1149 0.929 . S
H1138 C1152 0.930 . S
H1139 C1154 0.960 . S
H1140 C1154 0.960 . S
H1141 C1154 0.960 . S
C1142 H1134 0.929 . S
C1142 C1143 1.377 . S
C1142 C1144 1.384 . S
C1143 C1142 1.377 . S
C1143 C1149 1.390 . S
C1144 H1135 0.930 . S
C1144 C1142 1.384 . S
C1144 C1145 1.372 . S
C1145 C1144 1.372 . S
C1145 C1146 1.400 . S
C1145 C1150 1.490 . S
C1146 H1136 0.930 . S
C1146 C1145 1.400 . S
C1146 C1149 1.386 . S
H1147 C1163 0.930 . S
H1148 C1164 0.931 . S
C1149 H1137 0.929 . S
C1149 C1143 1.390 . S
C1149 C1146 1.386 . S
C1150 C1145 1.490 . S
C1150 C1152 1.395 . S
C1150 C1153 1.403 . S
H1151 C1157 0.930 . S
C1152 H1138 0.930 . S
C1152 C1150 1.395 . S
C1152 C1155 1.403 . S
C1153 C1150 1.403 . S
C1153 C1154 1.524 . S
C1153 C1157 1.400 . S
C1154 H1139 0.960 . S
C1154 H1140 0.960 . S
C1154 H1141 0.960 . S
C1154 C1153 1.524 . S
C1155 C1152 1.403 . S
C1155 C1156 1.392 . S
C1155 C1159 1.495 . S
C1156 C1155 1.392 . S
C1156 C1157 1.385 . S
C1156 C1158 1.478 . S
C1157 H1151 0.930 . S
C1157 C1153 1.400 . S
C1157 C1156 1.385 . S
C1158 C1156 1.478 . S
C1158 C1160 1.381 . S
C1158 C1164 1.383 . S
C1159 C1155 1.495 . S
C1159 H1165 0.959 . S
C1159 H1166 0.961 . S
C1159 H1167 0.960 . S
C1160 C1158 1.381 . S
C1160 C1161 1.394 . S
C1160 H1168 0.930 . S
C1161 C1160 1.394 . S
C1161 C1162 1.383 . S
C1161 H1169 0.929 . S
C1162 C1161 1.383 . S
C1162 C1163 1.377 . S
C1163 H1147 0.930 . S
C1163 C1162 1.377 . S
C1163 C1164 1.379 . S
C1164 H1148 0.931 . S
C1164 C1158 1.383 . S
C1164 C1163 1.379 . S
H1165 C1159 0.959 . S
H1166 C1159 0.961 . S
H1167 C1159 0.960 . S
H1168 C1160 0.930 . S
H1169 C1161 0.929 . S
H1170 C1178 0.929 . S
H1171 C1180 0.930 . S
H1172 C1182 0.930 . S
H1173 C1185 0.929 . S
H1174 C1188 0.930 . S
H1175 C1190 0.960 . S
H1176 C1190 0.960 . S
H1177 C1190 0.960 . S
C1178 H1170 0.929 . S
C1178 C1179 1.377 . S
C1178 C1180 1.384 . S
C1179 C1178 1.377 . S
C1179 C1185 1.390 . S
C1180 H1171 0.930 . S
C1180 C1178 1.384 . S
C1180 C1181 1.372 . S
C1181 C1180 1.372 . S
C1181 C1182 1.400 . S
C1181 C1186 1.490 . S
C1182 H1172 0.930 . S
C1182 C1181 1.400 . S
C1182 C1185 1.386 . S
H1183 C1199 0.930 . S
H1184 C1200 0.931 . S
C1185 H1173 0.929 . S
C1185 C1179 1.390 . S
C1185 C1182 1.386 . S
C1186 C1181 1.490 . S
C1186 C1188 1.395 . S
C1186 C1189 1.403 . S
H1187 C1193 0.930 . S
C1188 H1174 0.930 . S
C1188 C1186 1.395 . S
C1188 C1191 1.403 . S
C1189 C1186 1.403 . S
C1189 C1190 1.524 . S
C1189 C1193 1.400 . S
C1190 H1175 0.960 . S
C1190 H1176 0.960 . S
C1190 H1177 0.960 . S
C1190 C1189 1.524 . S
C1191 C1188 1.403 . S
C1191 C1192 1.392 . S
C1191 C1195 1.495 . S
C1192 C1191 1.392 . S
C1192 C1193 1.385 . S
C1192 C1194 1.478 . S
C1193 H1187 0.930 . S
C1193 C1189 1.400 . S
C1193 C1192 1.385 . S
C1194 C1192 1.478 . S
C1194 C1196 1.381 . S
C1194 C1200 1.383 . S
C1195 C1191 1.495 . S
C1195 H1201 0.959 . S
C1195 H1202 0.961 . S
C1195 H1203 0.960 . S
C1196 C1194 1.381 . S
C1196 C1197 1.394 . S
C1196 H1204 0.930 . S
C1197 C1196 1.394 . S
C1197 C1198 1.383 . S
C1197 H1205 0.929 . S
C1198 C1197 1.383 . S
C1198 C1199 1.377 . S
C1199 H1183 0.930 . S
C1199 C1198 1.377 . S
C1199 C1200 1.379 . S
C1200 H1184 0.931 . S
C1200 C1194 1.383 . S
C1200 C1199 1.379 . S
H1201 C1195 0.959 . S
H1202 C1195 0.961 . S
H1203 C1195 0.960 . S
H1204 C1196 0.930 . S
H1205 C1197 0.929 . S
H1206 C1214 0.929 . S
H1207 C1216 0.930 . S
H1208 C1218 0.930 . S
H1209 C1221 0.929 . S
H1210 C1224 0.930 . S
H1211 C1226 0.960 . S
H1212 C1226 0.960 . S
H1213 C1226 0.960 . S
C1214 H1206 0.929 . S
C1214 C1215 1.377 . S
C1214 C1216 1.384 . S
C1215 C1214 1.377 . S
C1215 C1221 1.390 . S
C1216 H1207 0.930 . S
C1216 C1214 1.384 . S
C1216 C1217 1.372 . S
C1217 C1216 1.372 . S
C1217 C1218 1.400 . S
C1217 C1222 1.490 . S
C1218 H1208 0.930 . S
C1218 C1217 1.400 . S
C1218 C1221 1.386 . S
H1219 C1235 0.930 . S
H1220 C1236 0.931 . S
C1221 H1209 0.929 . S
C1221 C1215 1.390 . S
C1221 C1218 1.386 . S
C1222 C1217 1.490 . S
C1222 C1224 1.395 . S
C1222 C1225 1.403 . S
H1223 C1229 0.930 . S
C1224 H1210 0.930 . S
C1224 C1222 1.395 . S
C1224 C1227 1.403 . S
C1225 C1222 1.403 . S
C1225 C1226 1.524 . S
C1225 C1229 1.400 . S
C1226 H1211 0.960 . S
C1226 H1212 0.960 . S
C1226 H1213 0.960 . S
C1226 C1225 1.524 . S
C1227 C1224 1.403 . S
C1227 C1228 1.392 . S
C1227 C1231 1.495 . S
C1228 C1227 1.392 . S
C1228 C1229 1.385 . S
C1228 C1230 1.478 . S
C1229 H1223 0.930 . S
C1229 C1225 1.400 . S
C1229 C1228 1.385 . S
C1230 C1228 1.478 . S
C1230 C1232 1.381 . S
C1230 C1236 1.383 . S
C1231 C1227 1.495 . S
C1231 H1237 0.959 . S
C1231 H1238 0.961 . S
C1231 H1239 0.960 . S
C1232 C1230 1.381 . S
C1232 C1233 1.394 . S
C1232 H1240 0.930 . S
C1233 C1232 1.394 . S
C1233 C1234 1.383 . S
C1233 H1241 0.929 . S
C1234 C1233 1.383 . S
C1234 C1235 1.377 . S
C1235 H1219 0.930 . S
C1235 C1234 1.377 . S
C1235 C1236 1.379 . S
C1236 H1220 0.931 . S
C1236 C1230 1.383 . S
C1236 C1235 1.379 . S
H1237 C1231 0.959 . S
H1238 C1231 0.961 . S
H1239 C1231 0.960 . S
H1240 C1232 0.930 . S
H1241 C1233 0.929 . S
H1242 C1250 0.929 . S
H1243 C1252 0.930 . S
H1244 C1254 0.930 . S
H1245 C1257 0.929 . S
H1246 C1260 0.930 . S
H1247 C1262 0.960 . S
H1248 C1262 0.960 . S
H1249 C1262 0.960 . S
C1250 H1242 0.929 . S
C1250 C1251 1.377 . S
C1250 C1252 1.384 . S
C1251 C1250 1.377 . S
C1251 C1257 1.390 . S
C1252 H1243 0.930 . S
C1252 C1250 1.384 . S
C1252 C1253 1.372 . S
C1253 C1252 1.372 . S
C1253 C1254 1.400 . S
C1253 C1258 1.490 . S
C1254 H1244 0.930 . S
C1254 C1253 1.400 . S
C1254 C1257 1.386 . S
H1255 C1271 0.930 . S
H1256 C1272 0.931 . S
C1257 H1245 0.929 . S
C1257 C1251 1.390 . S
C1257 C1254 1.386 . S
C1258 C1253 1.490 . S
C1258 C1260 1.395 . S
C1258 C1261 1.403 . S
H1259 C1265 0.930 . S
C1260 H1246 0.930 . S
C1260 C1258 1.395 . S
C1260 C1263 1.403 . S
C1261 C1258 1.403 . S
C1261 C1262 1.524 . S
C1261 C1265 1.400 . S
C1262 H1247 0.960 . S
C1262 H1248 0.960 . S
C1262 H1249 0.960 . S
C1262 C1261 1.524 . S
C1263 C1260 1.403 . S
C1263 C1264 1.392 . S
C1263 C1267 1.495 . S
C1264 C1263 1.392 . S
C1264 C1265 1.385 . S
C1264 C1266 1.478 . S
C1265 H1259 0.930 . S
C1265 C1261 1.400 . S
C1265 C1264 1.385 . S
C1266 C1264 1.478 . S
C1266 C1268 1.381 . S
C1266 C1272 1.383 . S
C1267 C1263 1.495 . S
C1267 H1273 0.959 . S
C1267 H1274 0.961 . S
C1267 H1275 0.960 . S
C1268 C1266 1.381 . S
C1268 C1269 1.394 . S
C1268 H1276 0.930 . S
C1269 C1268 1.394 . S
C1269 C1270 1.383 . S
C1269 H1277 0.929 . S
C1270 C1269 1.383 . S
C1270 C1271 1.377 . S
C1271 H1255 0.930 . S
C1271 C1270 1.377 . S
C1271 C1272 1.379 . S
C1272 H1256 0.931 . S
C1272 C1266 1.383 . S
C1272 C1271 1.379 . S
H1273 C1267 0.959 . S
H1274 C1267 0.961 . S
H1275 C1267 0.960 . S
H1276 C1268 0.930 . S
H1277 C1269 0.929 . S
H1278 C1286 0.929 . S
H1279 C1288 0.930 . S
H1280 C1290 0.930 . S
H1281 C1293 0.929 . S
H1282 C1296 0.930 . S
H1283 C1298 0.960 . S
H1284 C1298 0.960 . S
H1285 C1298 0.960 . S
C1286 H1278 0.929 . S
C1286 C1287 1.377 . S
C1286 C1288 1.384 . S
C1287 C1286 1.377 . S
C1287 C1293 1.390 . S
C1288 H1279 0.930 . S
C1288 C1286 1.384 . S
C1288 C1289 1.372 . S
C1289 C1288 1.372 . S
C1289 C1290 1.400 . S
C1289 C1294 1.490 . S
C1290 H1280 0.930 . S
C1290 C1289 1.400 . S
C1290 C1293 1.386 . S
H1291 C1307 0.930 . S
H1292 C1308 0.931 . S
C1293 H1281 0.929 . S
C1293 C1287 1.390 . S
C1293 C1290 1.386 . S
C1294 C1289 1.490 . S
C1294 C1296 1.395 . S
C1294 C1297 1.403 . S
H1295 C1301 0.930 . S
C1296 H1282 0.930 . S
C1296 C1294 1.395 . S
C1296 C1299 1.403 . S
C1297 C1294 1.403 . S
C1297 C1298 1.524 . S
C1297 C1301 1.400 . S
C1298 H1283 0.960 . S
C1298 H1284 0.960 . S
C1298 H1285 0.960 . S
C1298 C1297 1.524 . S
C1299 C1296 1.403 . S
C1299 C1300 1.392 . S
C1299 C1303 1.495 . S
C1300 C1299 1.392 . S
C1300 C1301 1.385 . S
C1300 C1302 1.478 . S
C1301 H1295 0.930 . S
C1301 C1297 1.400 . S
C1301 C1300 1.385 . S
C1302 C1300 1.478 . S
C1302 C1304 1.381 . S
C1302 C1308 1.383 . S
C1303 C1299 1.495 . S
C1303 H1309 0.959 . S
C1303 H1310 0.961 . S
C1303 H1311 0.960 . S
C1304 C1302 1.381 . S
C1304 C1305 1.394 . S
C1304 H1312 0.930 . S
C1305 C1304 1.394 . S
C1305 C1306 1.383 . S
C1305 H1313 0.929 . S
C1306 C1305 1.383 . S
C1306 C1307 1.377 . S
C1307 H1291 0.930 . S
C1307 C1306 1.377 . S
C1307 C1308 1.379 . S
C1308 H1292 0.931 . S
C1308 C1302 1.383 . S
C1308 C1307 1.379 . S
H1309 C1303 0.959 . S
H1310 C1303 0.961 . S
H1311 C1303 0.960 . S
H1312 C1304 0.930 . S
H1313 C1305 0.929 . S
H1314 C1322 0.929 . S
H1315 C1324 0.930 . S
H1316 C1326 0.930 . S
H1317 C1329 0.929 . S
H1318 C1332 0.930 . S
H1319 C1334 0.960 1_565 S
H1320 C1334 0.960 . S
H1321 C1334 0.960 . S
C1322 H1314 0.929 . S
C1322 C1323 1.377 . S
C1322 C1324 1.384 . S
C1323 C1322 1.377 . S
C1323 C1329 1.390 . S
C1324 H1315 0.930 . S
C1324 C1322 1.384 . S
C1324 C1325 1.372 . S
C1325 C1324 1.372 . S
C1325 C1326 1.400 . S
C1325 C1330 1.504 . S
C1326 H1316 0.930 . S
C1326 C1325 1.400 . S
C1326 C1329 1.386 . S
H1327 C1343 0.930 . S
H1328 C1344 0.931 . S
C1329 H1317 0.929 . S
C1329 C1323 1.390 . S
C1329 C1326 1.386 . S
C1330 C1325 1.504 . S
C1330 C1332 1.377 1_545 S
C1330 C1333 1.406 1_545 S
H1331 C1337 0.930 . S
C1332 H1318 0.930 . S
C1332 C1330 1.377 1_565 S
C1332 C1335 1.403 . S
C1333 C1330 1.406 1_565 S
C1333 C1334 1.524 1_565 S
C1333 C1337 1.400 . S
C1334 H1319 0.960 1_545 S
C1334 H1320 0.960 . S
C1334 H1321 0.960 . S
C1334 C1333 1.524 1_545 S
C1335 C1332 1.403 . S
C1335 C1336 1.392 . S
C1335 C1339 1.495 . S
C1336 C1335 1.392 . S
C1336 C1337 1.385 . S
C1336 C1338 1.478 . S
C1337 H1331 0.930 . S
C1337 C1333 1.400 . S
C1337 C1336 1.385 . S
C1338 C1336 1.478 . S
C1338 C1340 1.381 . S
C1338 C1344 1.383 . S
C1339 C1335 1.495 . S
C1339 H1345 0.959 . S
C1339 H1346 0.961 . S
C1339 H1347 0.960 . S
C1340 C1338 1.381 . S
C1340 C1341 1.394 . S
C1340 H1348 0.930 . S
C1341 C1340 1.394 . S
C1341 C1342 1.383 . S
C1341 H1349 0.929 . S
C1342 C1341 1.383 . S
C1342 C1343 1.377 . S
C1343 H1327 0.930 . S
C1343 C1342 1.377 . S
C1343 C1344 1.379 . S
C1344 H1328 0.931 . S
C1344 C1338 1.383 . S
C1344 C1343 1.379 . S
H1345 C1339 0.959 . S
H1346 C1339 0.961 . S
H1347 C1339 0.960 . S
H1348 C1340 0.930 . S
H1349 C1341 0.929 . S
H1350 C1358 0.929 . S
H1351 C1360 0.930 . S
H1352 C1362 0.930 1_455 S
H1353 C1365 0.929 . S
H1354 C1368 0.930 . S
H1355 C1370 0.960 . S
H1356 C1370 0.960 . S
H1357 C1370 0.960 . S
C1358 H1350 0.929 . S
C1358 C1359 1.377 . S
C1358 C1360 1.384 . S
C1359 C1358 1.377 . S
C1359 C1365 1.390 . S
C1360 H1351 0.930 . S
C1360 C1358 1.384 . S
C1360 C1361 1.372 . S
C1361 C1360 1.372 . S
C1361 C1362 1.400 . S
C1361 C1366 1.490 1_655 S
C1362 H1352 0.930 1_655 S
C1362 C1361 1.400 . S
C1362 C1365 1.386 . S
H1363 C1379 0.930 . S
H1364 C1380 0.931 . S
C1365 H1353 0.929 . S
C1365 C1359 1.390 . S
C1365 C1362 1.386 . S
C1366 C1361 1.490 1_455 S
C1366 C1368 1.395 . S
C1366 C1369 1.403 . S
H1367 C1373 0.930 . S
C1368 H1354 0.930 . S
C1368 C1366 1.395 . S
C1368 C1371 1.403 . S
C1369 C1366 1.403 . S
C1369 C1370 1.524 . S
C1369 C1373 1.400 . S
C1370 H1355 0.960 . S
C1370 H1356 0.960 . S
C1370 H1357 0.960 . S
C1370 C1369 1.524 . S
C1371 C1368 1.403 . S
C1371 C1372 1.392 . S
C1371 C1375 1.495 . S
C1372 C1371 1.392 . S
C1372 C1373 1.385 . S
C1372 C1374 1.478 . S
C1373 H1367 0.930 . S
C1373 C1369 1.400 . S
C1373 C1372 1.385 . S
C1374 C1372 1.478 . S
C1374 C1376 1.381 . S
C1374 C1380 1.383 . S
C1375 C1371 1.495 . S
C1375 H1381 0.959 . S
C1375 H1382 0.961 . S
C1375 H1383 0.960 . S
C1376 C1374 1.381 . S
C1376 C1377 1.394 . S
C1376 H1384 0.930 . S
C1377 C1376 1.394 . S
C1377 C1378 1.383 . S
C1377 H1385 0.929 . S
C1378 C1377 1.383 . S
C1378 C1379 1.377 . S
C1379 H1363 0.930 . S
C1379 C1378 1.377 . S
C1379 C1380 1.379 . S
C1380 H1364 0.931 . S
C1380 C1374 1.383 . S
C1380 C1379 1.379 . S
H1381 C1375 0.959 . S
H1382 C1375 0.961 . S
H1383 C1375 0.960 . S
H1384 C1376 0.930 . S
H1385 C1377 0.929 . S
H1386 C1394 0.929 . S
H1387 C1396 0.930 . S
H1388 C1398 0.930 . S
H1389 C1401 0.929 . S
H1390 C1404 0.930 . S
H1391 C1406 0.960 . S
H1392 C1406 0.960 . S
H1393 C1406 0.960 . S
C1394 H1386 0.929 . S
C1394 C1395 1.377 . S
C1394 C1396 1.384 . S
C1395 C1394 1.377 . S
C1395 C1401 1.390 . S
C1396 H1387 0.930 . S
C1396 C1394 1.384 . S
C1396 C1397 1.372 . S
C1397 C1396 1.372 . S
C1397 C1398 1.400 . S
C1397 C1402 1.490 . S
C1398 H1388 0.930 . S
C1398 C1397 1.400 . S
C1398 C1401 1.386 . S
H1399 C1415 0.930 . S
H1400 C1416 0.931 . S
C1401 H1389 0.929 . S
C1401 C1395 1.390 . S
C1401 C1398 1.386 . S
C1402 C1397 1.490 . S
C1402 C1404 1.395 . S
C1402 C1405 1.403 . S
H1403 C1409 0.930 . S
C1404 H1390 0.930 . S
C1404 C1402 1.395 . S
C1404 C1407 1.403 . S
C1405 C1402 1.403 . S
C1405 C1406 1.524 . S
C1405 C1409 1.400 . S
C1406 H1391 0.960 . S
C1406 H1392 0.960 . S
C1406 H1393 0.960 . S
C1406 C1405 1.524 . S
C1407 C1404 1.403 . S
C1407 C1408 1.392 . S
C1407 C1411 1.495 . S
C1408 C1407 1.392 . S
C1408 C1409 1.385 . S
C1408 C1410 1.478 . S
C1409 H1403 0.930 . S
C1409 C1405 1.400 . S
C1409 C1408 1.385 . S
C1410 C1408 1.478 . S
C1410 C1412 1.381 . S
C1410 C1416 1.383 . S
C1411 C1407 1.495 . S
C1411 H1417 0.959 . S
C1411 H1418 0.961 . S
C1411 H1419 0.960 . S
C1412 C1410 1.381 . S
C1412 C1413 1.394 . S
C1412 H1420 0.930 . S
C1413 C1412 1.394 . S
C1413 C1414 1.383 . S
C1413 H1421 0.929 . S
C1414 C1413 1.383 . S
C1414 C1415 1.377 . S
C1415 H1399 0.930 . S
C1415 C1414 1.377 . S
C1415 C1416 1.379 . S
C1416 H1400 0.931 . S
C1416 C1410 1.383 . S
C1416 C1415 1.379 . S
H1417 C1411 0.959 . S
H1418 C1411 0.961 . S
H1419 C1411 0.960 . S
H1420 C1412 0.930 . S
H1421 C1413 0.929 . S
H1422 C1430 0.929 . S
H1423 C1432 0.930 . S
H1424 C1434 0.930 . S
H1425 C1437 0.929 . S
H1426 C1440 0.930 . S
H1427 C1442 0.960 . S
H1428 C1442 0.960 . S
H1429 C1442 0.960 . S
C1430 H1422 0.929 . S
C1430 C1431 1.377 . S
C1430 C1432 1.384 . S
C1431 C1430 1.377 . S
C1431 C1437 1.390 . S
C1432 H1423 0.930 . S
C1432 C1430 1.384 . S
C1432 C1433 1.372 . S
C1433 C1432 1.372 . S
C1433 C1434 1.400 . S
C1433 C1438 1.490 . S
C1434 H1424 0.930 . S
C1434 C1433 1.400 . S
C1434 C1437 1.386 . S
H1435 C1451 0.930 . S
H1436 C1452 0.931 . S
C1437 H1425 0.929 . S
C1437 C1431 1.390 . S
C1437 C1434 1.386 . S
C1438 C1433 1.490 . S
C1438 C1440 1.395 . S
C1438 C1441 1.403 . S
H1439 C1445 0.930 . S
C1440 H1426 0.930 . S
C1440 C1438 1.395 . S
C1440 C1443 1.403 . S
C1441 C1438 1.403 . S
C1441 C1442 1.524 . S
C1441 C1445 1.400 . S
C1442 H1427 0.960 . S
C1442 H1428 0.960 . S
C1442 H1429 0.960 . S
C1442 C1441 1.524 . S
C1443 C1440 1.403 . S
C1443 C1444 1.392 . S
C1443 C1447 1.495 . S
C1444 C1443 1.392 . S
C1444 C1445 1.385 . S
C1444 C1446 1.478 . S
C1445 H1439 0.930 . S
C1445 C1441 1.400 . S
C1445 C1444 1.385 . S
C1446 C1444 1.478 . S
C1446 C1448 1.381 . S
C1446 C1452 1.383 . S
C1447 C1443 1.495 . S
C1447 H1453 0.959 . S
C1447 H1454 0.961 . S
C1447 H1455 0.960 . S
C1448 C1446 1.381 . S
C1448 C1449 1.394 . S
C1448 H1456 0.930 . S
C1449 C1448 1.394 . S
C1449 C1450 1.383 . S
C1449 H1457 0.929 . S
C1450 C1449 1.383 . S
C1450 C1451 1.377 . S
C1451 H1435 0.930 . S
C1451 C1450 1.377 . S
C1451 C1452 1.379 . S
C1452 H1436 0.931 . S
C1452 C1446 1.383 . S
C1452 C1451 1.379 . S
H1453 C1447 0.959 . S
H1454 C1447 0.961 . S
H1455 C1447 0.960 . S
H1456 C1448 0.930 . S
H1457 C1449 0.929 . S
H1458 C1466 0.929 . S
H1459 C1468 0.930 . S
H1460 C1470 0.930 . S
H1461 C1473 0.929 . S
H1462 C1476 0.930 . S
H1463 C1478 0.960 . S
H1464 C1478 0.960 . S
H1465 C1478 0.960 . S
C1466 H1458 0.929 . S
C1466 C1467 1.377 . S
C1466 C1468 1.384 . S
C1467 C1466 1.377 . S
C1467 C1473 1.390 . S
C1468 H1459 0.930 . S
C1468 C1466 1.384 . S
C1468 C1469 1.372 . S
C1469 C1468 1.372 . S
C1469 C1470 1.400 . S
C1469 C1474 1.490 . S
C1470 H1460 0.930 . S
C1470 C1469 1.400 . S
C1470 C1473 1.386 . S
H1471 C1487 0.930 . S
H1472 C1488 0.931 . S
C1473 H1461 0.929 . S
C1473 C1467 1.390 . S
C1473 C1470 1.386 . S
C1474 C1469 1.490 . S
C1474 C1476 1.395 . S
C1474 C1477 1.403 . S
H1475 C1481 0.930 . S
C1476 H1462 0.930 . S
C1476 C1474 1.395 . S
C1476 C1479 1.403 . S
C1477 C1474 1.403 . S
C1477 C1478 1.524 . S
C1477 C1481 1.400 . S
C1478 H1463 0.960 . S
C1478 H1464 0.960 . S
C1478 H1465 0.960 . S
C1478 C1477 1.524 . S
C1479 C1476 1.403 . S
C1479 C1480 1.392 . S
C1479 C1483 1.495 . S
C1480 C1479 1.392 . S
C1480 C1481 1.385 . S
C1480 C1482 1.478 . S
C1481 H1475 0.930 . S
C1481 C1477 1.400 . S
C1481 C1480 1.385 . S
C1482 C1480 1.478 . S
C1482 C1484 1.381 . S
C1482 C1488 1.383 . S
C1483 C1479 1.495 . S
C1483 H1489 0.959 . S
C1483 H1490 0.961 . S
C1483 H1491 0.960 . S
C1484 C1482 1.381 . S
C1484 C1485 1.394 . S
C1484 H1492 0.930 . S
C1485 C1484 1.394 . S
C1485 C1486 1.383 . S
C1485 H1493 0.929 . S
C1486 C1485 1.383 . S
C1486 C1487 1.377 . S
C1487 H1471 0.930 . S
C1487 C1486 1.377 . S
C1487 C1488 1.379 . S
C1488 H1472 0.931 . S
C1488 C1482 1.383 . S
C1488 C1487 1.379 . S
H1489 C1483 0.959 . S
H1490 C1483 0.961 . S
H1491 C1483 0.960 . S
H1492 C1484 0.930 . S
H1493 C1485 0.929 . S
H1494 C1502 0.929 . S
H1495 C1504 0.930 . S
H1496 C1506 0.930 . S
H1497 C1509 0.929 . S
H1498 C1512 0.930 . S
H1499 C1514 0.960 . S
H1500 C1514 0.960 . S
H1501 C1514 0.960 . S
C1502 H1494 0.929 . S
C1502 C1503 1.377 . S
C1502 C1504 1.384 . S
C1503 C1502 1.377 . S
C1503 C1509 1.390 . S
C1504 H1495 0.930 . S
C1504 C1502 1.384 . S
C1504 C1505 1.372 . S
C1505 C1504 1.372 . S
C1505 C1506 1.400 . S
C1505 C1510 1.490 . S
C1506 H1496 0.930 . S
C1506 C1505 1.400 . S
C1506 C1509 1.386 . S
H1507 C1523 0.930 . S
H1508 C1524 0.931 . S
C1509 H1497 0.929 . S
C1509 C1503 1.390 . S
C1509 C1506 1.386 . S
C1510 C1505 1.490 . S
C1510 C1512 1.395 . S
C1510 C1513 1.403 . S
H1511 C1517 0.930 . S
C1512 H1498 0.930 . S
C1512 C1510 1.395 . S
C1512 C1515 1.403 . S
C1513 C1510 1.403 . S
C1513 C1514 1.524 . S
C1513 C1517 1.400 . S
C1514 H1499 0.960 . S
C1514 H1500 0.960 . S
C1514 H1501 0.960 . S
C1514 C1513 1.524 . S
C1515 C1512 1.403 . S
C1515 C1516 1.392 . S
C1515 C1519 1.495 . S
C1516 C1515 1.392 . S
C1516 C1517 1.385 . S
C1516 C1518 1.478 . S
C1517 H1511 0.930 . S
C1517 C1513 1.400 . S
C1517 C1516 1.385 . S
C1518 C1516 1.478 . S
C1518 C1520 1.381 . S
C1518 C1524 1.383 . S
C1519 C1515 1.495 . S
C1519 H1525 0.959 . S
C1519 H1526 0.961 . S
C1519 H1527 0.960 . S
C1520 C1518 1.381 . S
C1520 C1521 1.394 . S
C1520 H1528 0.930 . S
C1521 C1520 1.394 . S
C1521 C1522 1.383 . S
C1521 H1529 0.929 . S
C1522 C1521 1.383 . S
C1522 C1523 1.377 . S
C1523 H1507 0.930 . S
C1523 C1522 1.377 . S
C1523 C1524 1.379 . S
C1524 H1508 0.931 . S
C1524 C1518 1.383 . S
C1524 C1523 1.379 . S
H1525 C1519 0.959 . S
H1526 C1519 0.961 . S
H1527 C1519 0.960 . S
H1528 C1520 0.930 . S
H1529 C1521 0.929 . S
H1530 C1538 0.929 . S
H1531 C1540 0.930 . S
H1532 C1542 0.930 . S
H1533 C1545 0.929 . S
H1534 C1548 0.930 1_565 S
H1535 C1550 0.960 . S
H1536 C1550 0.958 . S
H1537 C1550 0.960 1_565 S
C1538 H1530 0.929 . S
C1538 C1539 1.377 . S
C1538 C1540 1.384 . S
C1539 C1538 1.377 . S
C1539 C1545 1.390 . S
C1540 H1531 0.930 . S
C1540 C1538 1.384 . S
C1540 C1541 1.372 . S
C1541 C1540 1.372 . S
C1541 C1542 1.400 . S
C1541 C1546 1.490 . S
C1542 H1532 0.930 . S
C1542 C1541 1.400 . S
C1542 C1545 1.386 . S
H1543 C1559 0.930 . S
H1544 C1560 0.931 . S
C1545 H1533 0.929 . S
C1545 C1539 1.390 . S
C1545 C1542 1.386 . S
C1546 C1541 1.490 . S
C1546 C1548 1.395 1_565 S
C1546 C1549 1.403 1_565 S
H1547 C1553 0.930 . S
C1548 H1534 0.930 1_545 S
C1548 C1546 1.395 1_545 S
C1548 C1551 1.403 . S
C1549 C1546 1.403 1_545 S
C1549 C1550 1.524 . S
C1549 C1553 1.400 . S
C1550 H1535 0.960 . S
C1550 H1536 0.958 . S
C1550 H1537 0.960 1_545 S
C1550 C1549 1.524 . S
C1551 C1548 1.403 . S
C1551 C1552 1.392 . S
C1551 C1555 1.495 . S
C1552 C1551 1.392 . S
C1552 C1553 1.385 . S
C1552 C1554 1.478 . S
C1553 H1547 0.930 . S
C1553 C1549 1.400 . S
C1553 C1552 1.385 . S
C1554 C1552 1.478 . S
C1554 C1556 1.381 . S
C1554 C1560 1.383 . S
C1555 C1551 1.495 . S
C1555 H1561 0.959 . S
C1555 H1562 0.961 . S
C1555 H1563 0.960 . S
C1556 C1554 1.381 . S
C1556 C1557 1.394 . S
C1556 H1564 0.930 . S
C1557 C1556 1.394 . S
C1557 C1558 1.383 . S
C1557 H1565 0.929 . S
C1558 C1557 1.383 . S
C1558 C1559 1.377 . S
C1559 H1543 0.930 . S
C1559 C1558 1.377 . S
C1559 C1560 1.379 . S
C1560 H1544 0.931 . S
C1560 C1554 1.383 . S
C1560 C1559 1.379 . S
H1561 C1555 0.959 . S
H1562 C1555 0.961 . S
H1563 C1555 0.960 . S
H1564 C1556 0.930 . S
H1565 C1557 0.929 . S
H1566 C1574 0.929 . S
H1567 C1576 0.930 . S
H1568 C1578 0.930 . S
H1569 C1581 0.929 . S
H1570 C1584 0.930 . S
H1571 C1586 0.960 . S
H1572 C1586 0.965 . S
H1573 C1586 0.960 1_455 S
C1574 H1566 0.929 . S
C1574 C1575 1.377 . S
C1574 C1576 1.384 . S
C1575 C1574 1.377 . S
C1575 C1581 1.390 . S
C1576 H1567 0.930 . S
C1576 C1574 1.384 . S
C1576 C1577 1.372 . S
C1577 C1576 1.372 . S
C1577 C1578 1.400 . S
C1577 C1582 1.490 1_455 S
C1578 H1568 0.930 . S
C1578 C1577 1.400 . S
C1578 C1581 1.386 . S
H1579 C1595 0.930 . S
H1580 C1596 0.931 . S
C1581 H1569 0.929 . S
C1581 C1575 1.390 . S
C1581 C1578 1.386 . S
C1582 C1577 1.490 1_655 S
C1582 C1584 1.395 . S
C1582 C1585 1.403 . S
H1583 C1589 0.930 . S
C1584 H1570 0.930 . S
C1584 C1582 1.395 . S
C1584 C1587 1.403 . S
C1585 C1582 1.403 . S
C1585 C1586 1.524 . S
C1585 C1589 1.400 . S
C1586 H1571 0.960 . S
C1586 H1572 0.965 . S
C1586 H1573 0.960 1_655 S
C1586 C1585 1.524 . S
C1587 C1584 1.403 . S
C1587 C1588 1.392 . S
C1587 C1591 1.495 . S
C1588 C1587 1.392 . S
C1588 C1589 1.385 . S
C1588 C1590 1.478 . S
C1589 H1583 0.930 . S
C1589 C1585 1.400 . S
C1589 C1588 1.385 . S
C1590 C1588 1.478 . S
C1590 C1592 1.381 . S
C1590 C1596 1.383 . S
C1591 C1587 1.495 . S
C1591 H1597 0.959 . S
C1591 H1598 0.961 . S
C1591 H1599 0.960 . S
C1592 C1590 1.381 . S
C1592 C1593 1.394 . S
C1592 H1600 0.930 . S
C1593 C1592 1.394 . S
C1593 C1594 1.383 . S
C1593 H1601 0.929 . S
C1594 C1593 1.383 . S
C1594 C1595 1.377 . S
C1595 H1579 0.930 . S
C1595 C1594 1.377 . S
C1595 C1596 1.379 . S
C1596 H1580 0.931 . S
C1596 C1590 1.383 . S
C1596 C1595 1.379 . S
H1597 C1591 0.959 . S
H1598 C1591 0.961 . S
H1599 C1591 0.960 . S
H1600 C1592 0.930 . S
H1601 C1593 0.929 . S
H1602 C1610 0.929 . S
H1603 C1612 0.930 . S
H1604 C1614 0.930 . S
H1605 C1617 0.929 . S
H1606 C1620 0.930 . S
H1607 C1622 0.960 . S
H1608 C1622 0.960 . S
H1609 C1622 0.960 . S
C1610 H1602 0.929 . S
C1610 C1611 1.377 . S
C1610 C1612 1.384 . S
C1611 C1610 1.377 . S
C1611 C1617 1.390 . S
C1612 H1603 0.930 . S
C1612 C1610 1.384 . S
C1612 C1613 1.372 . S
C1613 C1612 1.372 . S
C1613 C1614 1.400 . S
C1613 C1618 1.490 . S
C1614 H1604 0.930 . S
C1614 C1613 1.400 . S
C1614 C1617 1.386 . S
H1615 C1631 0.930 . S
H1616 C1632 0.931 . S
C1617 H1605 0.929 . S
C1617 C1611 1.390 . S
C1617 C1614 1.386 . S
C1618 C1613 1.490 . S
C1618 C1620 1.395 . S
C1618 C1621 1.403 . S
H1619 C1625 0.930 . S
C1620 H1606 0.930 . S
C1620 C1618 1.395 . S
C1620 C1623 1.403 . S
C1621 C1618 1.403 . S
C1621 C1622 1.524 . S
C1621 C1625 1.400 . S
C1622 H1607 0.960 . S
C1622 H1608 0.960 . S
C1622 H1609 0.960 . S
C1622 C1621 1.524 . S
C1623 C1620 1.403 . S
C1623 C1624 1.392 . S
C1623 C1627 1.495 . S
C1624 C1623 1.392 . S
C1624 C1625 1.385 . S
C1624 C1626 1.478 . S
C1625 H1619 0.930 . S
C1625 C1621 1.400 . S
C1625 C1624 1.385 . S
C1626 C1624 1.478 . S
C1626 C1628 1.381 . S
C1626 C1632 1.383 . S
C1627 C1623 1.495 . S
C1627 H1633 0.959 . S
C1627 H1634 0.961 . S
C1627 H1635 0.960 . S
C1628 C1626 1.381 . S
C1628 C1629 1.394 . S
C1628 H1636 0.930 . S
C1629 C1628 1.394 . S
C1629 C1630 1.383 . S
C1629 H1637 0.929 . S
C1630 C1629 1.383 . S
C1630 C1631 1.377 . S
C1631 H1615 0.930 . S
C1631 C1630 1.377 . S
C1631 C1632 1.379 . S
C1632 H1616 0.931 . S
C1632 C1626 1.383 . S
C1632 C1631 1.379 . S
H1633 C1627 0.959 . S
H1634 C1627 0.961 . S
H1635 C1627 0.960 . S
H1636 C1628 0.930 . S
H1637 C1629 0.929 . S
H1638 C1646 0.929 . S
H1639 C1648 0.930 . S
H1640 C1650 0.930 . S
H1641 C1653 0.929 . S
H1642 C1656 0.930 . S
H1643 C1658 0.960 . S
H1644 C1658 0.960 1_455 S
H1645 C1658 0.960 1_455 S
C1646 H1638 0.929 . S
C1646 C1647 1.377 . S
C1646 C1648 1.384 . S
C1647 C1646 1.377 . S
C1647 C1653 1.390 . S
C1648 H1639 0.930 . S
C1648 C1646 1.384 . S
C1648 C1649 1.372 . S
C1649 C1648 1.372 . S
C1649 C1650 1.400 . S
C1649 C1654 1.490 1_455 S
C1650 H1640 0.930 . S
C1650 C1649 1.400 . S
C1650 C1653 1.386 . S
H1651 C1667 0.930 . S
H1652 C1668 0.931 . S
C1653 H1641 0.929 . S
C1653 C1647 1.390 . S
C1653 C1650 1.386 . S
C1654 C1649 1.490 1_655 S
C1654 C1656 1.395 . S
C1654 C1657 1.403 . S
H1655 C1661 0.930 . S
C1656 H1642 0.930 . S
C1656 C1654 1.395 . S
C1656 C1659 1.403 . S
C1657 C1654 1.403 . S
C1657 C1658 1.524 . S
C1657 C1661 1.400 . S
C1658 H1643 0.960 . S
C1658 H1644 0.960 1_655 S
C1658 H1645 0.960 1_655 S
C1658 C1657 1.524 . S
C1659 C1656 1.403 . S
C1659 C1660 1.392 . S
C1659 C1663 1.495 . S
C1660 C1659 1.392 . S
C1660 C1661 1.385 . S
C1660 C1662 1.478 . S
C1661 H1655 0.930 . S
C1661 C1657 1.400 . S
C1661 C1660 1.385 . S
C1662 C1660 1.478 . S
C1662 C1664 1.381 . S
C1662 C1668 1.383 . S
C1663 C1659 1.495 . S
C1663 H1669 0.959 . S
C1663 H1670 0.961 . S
C1663 H1671 0.960 . S
C1664 C1662 1.381 . S
C1664 C1665 1.394 . S
C1664 H1672 0.930 . S
C1665 C1664 1.394 . S
C1665 C1666 1.383 . S
C1665 H1673 0.929 . S
C1666 C1665 1.383 . S
C1666 C1667 1.377 . S
C1667 H1651 0.930 . S
C1667 C1666 1.377 . S
C1667 C1668 1.379 . S
C1668 H1652 0.931 . S
C1668 C1662 1.383 . S
C1668 C1667 1.379 . S
H1669 C1663 0.959 . S
H1670 C1663 0.961 . S
H1671 C1663 0.960 . S
H1672 C1664 0.930 . S
H1673 C1665 0.929 . S
H1674 C1682 0.929 . S
H1675 C1684 0.930 . S
H1676 C1686 0.930 . S
H1677 C1689 0.929 . S
H1678 C1692 0.930 . S
H1679 C1694 0.960 . S
H1680 C1694 0.960 . S
H1681 C1694 0.960 . S
C1682 H1674 0.929 . S
C1682 C1683 1.377 . S
C1682 C1684 1.384 . S
C1683 C1682 1.377 . S
C1683 C1689 1.390 . S
C1684 H1675 0.930 . S
C1684 C1682 1.384 . S
C1684 C1685 1.372 . S
C1685 C1684 1.372 . S
C1685 C1686 1.400 . S
C1685 C1690 1.490 . S
C1686 H1676 0.930 . S
C1686 C1685 1.400 . S
C1686 C1689 1.386 . S
H1687 C1703 0.930 . S
H1688 C1704 0.931 . S
C1689 H1677 0.929 . S
C1689 C1683 1.390 . S
C1689 C1686 1.386 . S
C1690 C1685 1.490 . S
C1690 C1692 1.395 . S
C1690 C1693 1.403 . S
H1691 C1697 0.930 . S
C1692 H1678 0.930 . S
C1692 C1690 1.395 . S
C1692 C1695 1.403 . S
C1693 C1690 1.403 . S
C1693 C1694 1.524 . S
C1693 C1697 1.400 . S
C1694 H1679 0.960 . S
C1694 H1680 0.960 . S
C1694 H1681 0.960 . S
C1694 C1693 1.524 . S
C1695 C1692 1.403 . S
C1695 C1696 1.392 . S
C1695 C1699 1.495 . S
C1696 C1695 1.392 . S
C1696 C1697 1.385 . S
C1696 C1698 1.478 . S
C1697 H1691 0.930 . S
C1697 C1693 1.400 . S
C1697 C1696 1.385 . S
C1698 C1696 1.478 . S
C1698 C1700 1.381 . S
C1698 C1704 1.383 . S
C1699 C1695 1.495 . S
C1699 H1705 0.959 . S
C1699 H1706 0.961 . S
C1699 H1707 0.960 . S
C1700 C1698 1.381 . S
C1700 C1701 1.394 . S
C1700 H1708 0.930 . S
C1701 C1700 1.394 . S
C1701 C1702 1.383 . S
C1701 H1709 0.929 . S
C1702 C1701 1.383 . S
C1702 C1703 1.377 . S
C1703 H1687 0.930 . S
C1703 C1702 1.377 . S
C1703 C1704 1.379 . S
C1704 H1688 0.931 . S
C1704 C1698 1.383 . S
C1704 C1703 1.379 . S
H1705 C1699 0.959 . S
H1706 C1699 0.961 . S
H1707 C1699 0.960 . S
H1708 C1700 0.930 . S
H1709 C1701 0.929 . S
H1710 C1718 0.929 . S
H1711 C1720 0.930 . S
H1712 C1722 0.930 . S
H1713 C1725 0.929 . S
H1714 C1728 0.930 1_565 S
H1715 C1730 0.960 . S
H1716 C1730 0.960 . S
H1717 C1730 0.997 . S
C1718 H1710 0.929 . S
C1718 C1719 1.377 . S
C1718 C1720 1.384 . S
C1719 C1718 1.377 . S
C1719 C1725 1.390 . S
C1720 H1711 0.930 . S
C1720 C1718 1.384 . S
C1720 C1721 1.372 . S
C1721 C1720 1.372 . S
C1721 C1722 1.400 . S
C1721 C1726 1.510 . S
C1722 H1712 0.930 . S
C1722 C1721 1.400 . S
C1722 C1725 1.386 . S
H1723 C1739 0.930 . S
H1724 C1740 0.931 . S
C1725 H1713 0.929 . S
C1725 C1719 1.390 . S
C1725 C1722 1.386 . S
C1726 C1721 1.510 . S
C1726 C1728 1.379 1_565 S
C1726 C1729 1.399 1_565 S
H1727 C1733 0.930 . S
C1728 H1714 0.930 1_545 S
C1728 C1726 1.379 1_545 S
C1728 C1731 1.403 . S
C1729 C1726 1.399 1_545 S
C1729 C1730 1.524 . S
C1729 C1733 1.400 . S
C1730 H1715 0.960 . S
C1730 H1716 0.960 . S
C1730 H1717 0.997 . S
C1730 C1729 1.524 . S
C1731 C1728 1.403 . S
C1731 C1732 1.392 . S
C1731 C1735 1.495 . S
C1732 C1731 1.392 . S
C1732 C1733 1.385 . S
C1732 C1734 1.478 . S
C1733 H1727 0.930 . S
C1733 C1729 1.400 . S
C1733 C1732 1.385 . S
C1734 C1732 1.478 . S
C1734 C1736 1.381 . S
C1734 C1740 1.383 . S
C1735 C1731 1.495 . S
C1735 H1741 0.959 . S
C1735 H1742 0.961 . S
C1735 H1743 0.960 . S
C1736 C1734 1.381 . S
C1736 C1737 1.394 . S
C1736 H1744 0.930 . S
C1737 C1736 1.394 . S
C1737 C1738 1.383 . S
C1737 H1745 0.929 . S
C1738 C1737 1.383 . S
C1738 C1739 1.377 . S
C1739 H1723 0.930 . S
C1739 C1738 1.377 . S
C1739 C1740 1.379 . S
C1740 H1724 0.931 . S
C1740 C1734 1.383 . S
C1740 C1739 1.379 . S
H1741 C1735 0.959 . S
H1742 C1735 0.961 . S
H1743 C1735 0.960 . S
H1744 C1736 0.930 . S
H1745 C1737 0.929 . S
H1746 C1754 0.929 . S
H1747 C1756 0.930 . S
H1748 C1758 0.930 . S
H1749 C1761 0.929 . S
H1750 C1764 0.930 . S
H1751 C1766 0.960 . S
H1752 C1766 0.960 . S
H1753 C1766 0.960 . S
C1754 H1746 0.929 . S
C1754 C1755 1.377 . S
C1754 C1756 1.384 . S
C1755 C1754 1.377 . S
C1755 C1761 1.390 . S
C1756 H1747 0.930 . S
C1756 C1754 1.384 . S
C1756 C1757 1.372 . S
C1757 C1756 1.372 . S
C1757 C1758 1.400 . S
C1757 C1762 1.490 . S
C1758 H1748 0.930 . S
C1758 C1757 1.400 . S
C1758 C1761 1.386 . S
H1759 C1775 0.930 . S
H1760 C1776 0.931 . S
C1761 H1749 0.929 . S
C1761 C1755 1.390 . S
C1761 C1758 1.386 . S
C1762 C1757 1.490 . S
C1762 C1764 1.395 . S
C1762 C1765 1.403 . S
H1763 C1769 0.930 . S
C1764 H1750 0.930 . S
C1764 C1762 1.395 . S
C1764 C1767 1.403 . S
C1765 C1762 1.403 . S
C1765 C1766 1.524 . S
C1765 C1769 1.400 . S
C1766 H1751 0.960 . S
C1766 H1752 0.960 . S
C1766 H1753 0.960 . S
C1766 C1765 1.524 . S
C1767 C1764 1.403 . S
C1767 C1768 1.392 . S
C1767 C1771 1.495 . S
C1768 C1767 1.392 . S
C1768 C1769 1.385 . S
C1768 C1770 1.478 . S
C1769 H1763 0.930 . S
C1769 C1765 1.400 . S
C1769 C1768 1.385 . S
C1770 C1768 1.478 . S
C1770 C1772 1.381 . S
C1770 C1776 1.383 . S
C1771 C1767 1.495 . S
C1771 H1777 0.959 . S
C1771 H1778 0.961 . S
C1771 H1779 0.960 . S
C1772 C1770 1.381 . S
C1772 C1773 1.394 . S
C1772 H1780 0.930 . S
C1773 C1772 1.394 . S
C1773 C1774 1.383 . S
C1773 H1781 0.929 . S
C1774 C1773 1.383 . S
C1774 C1775 1.377 . S
C1775 H1759 0.930 . S
C1775 C1774 1.377 . S
C1775 C1776 1.379 . S
C1776 H1760 0.931 . S
C1776 C1770 1.383 . S
C1776 C1775 1.379 . S
H1777 C1771 0.959 . S
H1778 C1771 0.961 . S
H1779 C1771 0.960 . S
H1780 C1772 0.930 . S
H1781 C1773 0.929 . S
H1782 C1790 0.929 . S
H1783 C1792 0.930 . S
H1784 C1794 0.930 . S
H1785 C1797 0.929 . S
H1786 C1800 0.930 . S
H1787 C1802 0.960 . S
H1788 C1802 0.960 . S
H1789 C1802 0.960 . S
C1790 H1782 0.929 . S
C1790 C1791 1.377 . S
C1790 C1792 1.384 . S
C1791 C1790 1.377 . S
C1791 C1797 1.390 . S
C1792 H1783 0.930 . S
C1792 C1790 1.384 . S
C1792 C1793 1.372 . S
C1793 C1792 1.372 . S
C1793 C1794 1.400 . S
C1793 C1798 1.490 . S
C1794 H1784 0.930 . S
C1794 C1793 1.400 . S
C1794 C1797 1.386 . S
H1795 C1811 0.930 . S
H1796 C1812 0.931 . S
C1797 H1785 0.929 . S
C1797 C1791 1.390 . S
C1797 C1794 1.386 . S
C1798 C1793 1.490 . S
C1798 C1800 1.395 . S
C1798 C1801 1.403 . S
H1799 C1805 0.930 . S
C1800 H1786 0.930 . S
C1800 C1798 1.395 . S
C1800 C1803 1.403 . S
C1801 C1798 1.403 . S
C1801 C1802 1.524 . S
C1801 C1805 1.400 . S
C1802 H1787 0.960 . S
C1802 H1788 0.960 . S
C1802 H1789 0.960 . S
C1802 C1801 1.524 . S
C1803 C1800 1.403 . S
C1803 C1804 1.392 . S
C1803 C1807 1.495 . S
C1804 C1803 1.392 . S
C1804 C1805 1.385 . S
C1804 C1806 1.478 . S
C1805 H1799 0.930 . S
C1805 C1801 1.400 . S
C1805 C1804 1.385 . S
C1806 C1804 1.478 . S
C1806 C1808 1.381 . S
C1806 C1812 1.383 . S
C1807 C1803 1.495 . S
C1807 H1813 0.959 . S
C1807 H1814 0.961 . S
C1807 H1815 0.960 . S
C1808 C1806 1.381 . S
C1808 C1809 1.394 . S
C1808 H1816 0.930 . S
C1809 C1808 1.394 . S
C1809 C1810 1.383 . S
C1809 H1817 0.929 . S
C1810 C1809 1.383 . S
C1810 C1811 1.377 . S
C1811 H1795 0.930 . S
C1811 C1810 1.377 . S
C1811 C1812 1.379 . S
C1812 H1796 0.931 . S
C1812 C1806 1.383 . S
C1812 C1811 1.379 . S
H1813 C1807 0.959 . S
H1814 C1807 0.961 . S
H1815 C1807 0.960 . S
H1816 C1808 0.930 . S
H1817 C1809 0.929 . S
H1818 C1826 0.929 . S
H1819 C1828 0.930 . S
H1820 C1830 0.930 . S
H1821 C1833 0.929 . S
H1822 C1836 0.930 . S
H1823 C1838 0.960 . S
H1824 C1838 0.960 . S
H1825 C1838 0.960 . S
C1826 H1818 0.929 . S
C1826 C1827 1.377 . S
C1826 C1828 1.384 . S
C1827 C1826 1.377 . S
C1827 C1833 1.390 . S
C1828 H1819 0.930 . S
C1828 C1826 1.384 . S
C1828 C1829 1.372 . S
C1829 C1828 1.372 . S
C1829 C1830 1.400 . S
C1829 C1834 1.490 . S
C1830 H1820 0.930 . S
C1830 C1829 1.400 . S
C1830 C1833 1.386 . S
H1831 C1847 0.930 . S
H1832 C1848 0.931 . S
C1833 H1821 0.929 . S
C1833 C1827 1.390 . S
C1833 C1830 1.386 . S
C1834 C1829 1.490 . S
C1834 C1836 1.395 . S
C1834 C1837 1.403 . S
H1835 C1841 0.930 . S
C1836 H1822 0.930 . S
C1836 C1834 1.395 . S
C1836 C1839 1.403 . S
C1837 C1834 1.403 . S
C1837 C1838 1.524 . S
C1837 C1841 1.400 . S
C1838 H1823 0.960 . S
C1838 H1824 0.960 . S
C1838 H1825 0.960 . S
C1838 C1837 1.524 . S
C1839 C1836 1.403 . S
C1839 C1840 1.392 . S
C1839 C1843 1.495 . S
C1840 C1839 1.392 . S
C1840 C1841 1.385 . S
C1840 C1842 1.478 . S
C1841 H1835 0.930 . S
C1841 C1837 1.400 . S
C1841 C1840 1.385 . S
C1842 C1840 1.478 . S
C1842 C1844 1.381 . S
C1842 C1848 1.383 . S
C1843 C1839 1.495 . S
C1843 H1849 0.959 . S
C1843 H1850 0.961 . S
C1843 H1851 0.960 . S
C1844 C1842 1.381 . S
C1844 C1845 1.394 . S
C1844 H1852 0.930 . S
C1845 C1844 1.394 . S
C1845 C1846 1.383 . S
C1845 H1853 0.929 . S
C1846 C1845 1.383 . S
C1846 C1847 1.377 . S
C1847 H1831 0.930 . S
C1847 C1846 1.377 . S
C1847 C1848 1.379 . S
C1848 H1832 0.931 . S
C1848 C1842 1.383 . S
C1848 C1847 1.379 . S
H1849 C1843 0.959 . S
H1850 C1843 0.961 . S
H1851 C1843 0.960 . S
H1852 C1844 0.930 . S
H1853 C1845 0.929 . S
H1854 C1862 0.929 . S
H1855 C1864 0.930 . S
H1856 C1866 0.930 . S
H1857 C1869 0.929 . S
H1858 C1872 0.930 . S
H1859 C1874 0.960 . S
H1860 C1874 0.960 . S
H1861 C1874 0.960 . S
C1862 H1854 0.929 . S
C1862 C1863 1.377 . S
C1862 C1864 1.384 . S
C1863 C1862 1.377 . S
C1863 C1869 1.390 . S
C1864 H1855 0.930 . S
C1864 C1862 1.384 . S
C1864 C1865 1.372 . S
C1865 C1864 1.372 . S
C1865 C1866 1.400 . S
C1865 C1870 1.490 . S
C1866 H1856 0.930 . S
C1866 C1865 1.400 . S
C1866 C1869 1.386 . S
H1867 C1883 0.930 . S
H1868 C1884 0.931 . S
C1869 H1857 0.929 . S
C1869 C1863 1.390 . S
C1869 C1866 1.386 . S
C1870 C1865 1.490 . S
C1870 C1872 1.395 . S
C1870 C1873 1.403 . S
H1871 C1877 0.930 . S
C1872 H1858 0.930 . S
C1872 C1870 1.395 . S
C1872 C1875 1.403 . S
C1873 C1870 1.403 . S
C1873 C1874 1.524 . S
C1873 C1877 1.400 . S
C1874 H1859 0.960 . S
C1874 H1860 0.960 . S
C1874 H1861 0.960 . S
C1874 C1873 1.524 . S
C1875 C1872 1.403 . S
C1875 C1876 1.392 . S
C1875 C1879 1.495 . S
C1876 C1875 1.392 . S
C1876 C1877 1.385 . S
C1876 C1878 1.478 . S
C1877 H1871 0.930 . S
C1877 C1873 1.400 . S
C1877 C1876 1.385 . S
C1878 C1876 1.478 . S
C1878 C1880 1.381 . S
C1878 C1884 1.383 . S
C1879 C1875 1.495 . S
C1879 H1885 0.959 . S
C1879 H1886 0.961 . S
C1879 H1887 0.960 . S
C1880 C1878 1.381 . S
C1880 C1881 1.394 . S
C1880 H1888 0.930 . S
C1881 C1880 1.394 . S
C1881 C1882 1.383 . S
C1881 H1889 0.929 . S
C1882 C1881 1.383 . S
C1882 C1883 1.377 . S
C1883 H1867 0.930 . S
C1883 C1882 1.377 . S
C1883 C1884 1.379 . S
C1884 H1868 0.931 . S
C1884 C1878 1.383 . S
C1884 C1883 1.379 . S
H1885 C1879 0.959 . S
H1886 C1879 0.961 . S
H1887 C1879 0.960 . S
H1888 C1880 0.930 . S
H1889 C1881 0.929 . S
H1890 C1898 0.929 . S
H1891 C1900 0.930 . S
H1892 C1902 0.930 . S
H1893 C1905 0.929 . S
H1894 C1908 0.930 . S
H1895 C1910 0.960 . S
H1896 C1910 0.960 . S
H1897 C1910 0.960 . S
C1898 H1890 0.929 . S
C1898 C1899 1.377 . S
C1898 C1900 1.384 . S
C1899 C1898 1.377 . S
C1899 C1905 1.390 . S
C1900 H1891 0.930 . S
C1900 C1898 1.384 . S
C1900 C1901 1.372 . S
C1901 C1900 1.372 . S
C1901 C1902 1.400 . S
C1901 C1906 1.490 . S
C1902 H1892 0.930 . S
C1902 C1901 1.400 . S
C1902 C1905 1.386 . S
H1903 C1919 0.930 . S
H1904 C1920 0.931 . S
C1905 H1893 0.929 . S
C1905 C1899 1.390 . S
C1905 C1902 1.386 . S
C1906 C1901 1.490 . S
C1906 C1908 1.395 . S
C1906 C1909 1.403 . S
H1907 C1913 0.930 . S
C1908 H1894 0.930 . S
C1908 C1906 1.395 . S
C1908 C1911 1.403 . S
C1909 C1906 1.403 . S
C1909 C1910 1.524 . S
C1909 C1913 1.400 . S
C1910 H1895 0.960 . S
C1910 H1896 0.960 . S
C1910 H1897 0.960 . S
C1910 C1909 1.524 . S
C1911 C1908 1.403 . S
C1911 C1912 1.392 . S
C1911 C1915 1.495 . S
C1912 C1911 1.392 . S
C1912 C1913 1.385 . S
C1912 C1914 1.478 . S
C1913 H1907 0.930 . S
C1913 C1909 1.400 . S
C1913 C1912 1.385 . S
C1914 C1912 1.478 . S
C1914 C1916 1.381 . S
C1914 C1920 1.383 . S
C1915 C1911 1.495 . S
C1915 H1921 0.959 . S
C1915 H1922 0.961 . S
C1915 H1923 0.960 . S
C1916 C1914 1.381 . S
C1916 C1917 1.394 . S
C1916 H1924 0.930 . S
C1917 C1916 1.394 . S
C1917 C1918 1.383 . S
C1917 H1925 0.929 . S
C1918 C1917 1.383 . S
C1918 C1919 1.377 . S
C1919 H1903 0.930 . S
C1919 C1918 1.377 . S
C1919 C1920 1.379 . S
C1920 H1904 0.931 . S
C1920 C1914 1.383 . S
C1920 C1919 1.379 . S
H1921 C1915 0.959 . S
H1922 C1915 0.961 . S
H1923 C1915 0.960 . S
H1924 C1916 0.930 . S
H1925 C1917 0.929 . S
H1926 C1934 0.929 . S
H1927 C1936 0.930 . S
H1928 C1938 0.930 . S
H1929 C1941 0.929 . S
H1930 C1944 0.930 . S
H1931 C1946 0.960 . S
H1932 C1946 0.960 . S
H1933 C1946 0.960 . S
C1934 H1926 0.929 . S
C1934 C1935 1.377 . S
C1934 C1936 1.384 . S
C1935 C1934 1.377 . S
C1935 C1941 1.390 . S
C1936 H1927 0.930 . S
C1936 C1934 1.384 . S
C1936 C1937 1.372 . S
C1937 C1936 1.372 . S
C1937 C1938 1.400 . S
C1937 C1942 1.490 . S
C1938 H1928 0.930 . S
C1938 C1937 1.400 . S
C1938 C1941 1.386 . S
H1939 C1955 0.930 . S
H1940 C1956 0.931 . S
C1941 H1929 0.929 . S
C1941 C1935 1.390 . S
C1941 C1938 1.386 . S
C1942 C1937 1.490 . S
C1942 C1944 1.395 . S
C1942 C1945 1.403 . S
H1943 C1949 0.930 . S
C1944 H1930 0.930 . S
C1944 C1942 1.395 . S
C1944 C1947 1.403 . S
C1945 C1942 1.403 . S
C1945 C1946 1.524 . S
C1945 C1949 1.400 . S
C1946 H1931 0.960 . S
C1946 H1932 0.960 . S
C1946 H1933 0.960 . S
C1946 C1945 1.524 . S
C1947 C1944 1.403 . S
C1947 C1948 1.392 . S
C1947 C1951 1.495 . S
C1948 C1947 1.392 . S
C1948 C1949 1.385 . S
C1948 C1950 1.478 . S
C1949 H1943 0.930 . S
C1949 C1945 1.400 . S
C1949 C1948 1.385 . S
C1950 C1948 1.478 . S
C1950 C1952 1.381 . S
C1950 C1956 1.383 . S
C1951 C1947 1.495 . S
C1951 H1957 0.959 . S
C1951 H1958 0.961 . S
C1951 H1959 0.960 . S
C1952 C1950 1.381 . S
C1952 C1953 1.394 . S
C1952 H1960 0.930 . S
C1953 C1952 1.394 . S
C1953 C1954 1.383 . S
C1953 H1961 0.929 . S
C1954 C1953 1.383 . S
C1954 C1955 1.377 . S
C1955 H1939 0.930 . S
C1955 C1954 1.377 . S
C1955 C1956 1.379 . S
C1956 H1940 0.931 . S
C1956 C1950 1.383 . S
C1956 C1955 1.379 . S
H1957 C1951 0.959 . S
H1958 C1951 0.961 . S
H1959 C1951 0.960 . S
H1960 C1952 0.930 . S
H1961 C1953 0.929 . S
H1962 C1970 0.929 . S
H1963 C1972 0.930 . S
H1964 C1974 0.930 . S
H1965 C1977 0.929 . S
H1966 C1980 0.930 . S
H1967 C1982 0.960 . S
H1968 C1982 0.960 . S
H1969 C1982 0.960 . S
C1970 H1962 0.929 . S
C1970 C1971 1.377 . S
C1970 C1972 1.384 . S
C1971 C1970 1.377 . S
C1971 C1977 1.390 . S
C1972 H1963 0.930 . S
C1972 C1970 1.384 . S
C1972 C1973 1.372 . S
C1973 C1972 1.372 . S
C1973 C1974 1.400 . S
C1973 C1978 1.490 . S
C1974 H1964 0.930 . S
C1974 C1973 1.400 . S
C1974 C1977 1.386 . S
H1975 C1991 0.930 . S
H1976 C1992 0.931 . S
C1977 H1965 0.929 . S
C1977 C1971 1.390 . S
C1977 C1974 1.386 . S
C1978 C1973 1.490 . S
C1978 C1980 1.395 . S
C1978 C1981 1.403 . S
H1979 C1985 0.930 . S
C1980 H1966 0.930 . S
C1980 C1978 1.395 . S
C1980 C1983 1.403 . S
C1981 C1978 1.403 . S
C1981 C1982 1.524 . S
C1981 C1985 1.400 . S
C1982 H1967 0.960 . S
C1982 H1968 0.960 . S
C1982 H1969 0.960 . S
C1982 C1981 1.524 . S
C1983 C1980 1.403 . S
C1983 C1984 1.392 . S
C1983 C1987 1.495 . S
C1984 C1983 1.392 . S
C1984 C1985 1.385 . S
C1984 C1986 1.478 . S
C1985 H1979 0.930 . S
C1985 C1981 1.400 . S
C1985 C1984 1.385 . S
C1986 C1984 1.478 . S
C1986 C1988 1.381 . S
C1986 C1992 1.383 . S
C1987 C1983 1.495 . S
C1987 H1993 0.959 . S
C1987 H1994 0.967 . S
C1987 H1995 0.960 . S
C1988 C1986 1.381 . S
C1988 C1989 1.394 . S
C1988 H1996 0.930 . S
C1989 C1988 1.394 . S
C1989 C1990 1.383 . S
C1989 H1997 0.929 . S
C1990 C1989 1.383 . S
C1990 C1991 1.377 . S
C1991 H1975 0.930 . S
C1991 C1990 1.377 . S
C1991 C1992 1.379 . S
C1992 H1976 0.931 . S
C1992 C1986 1.383 . S
C1992 C1991 1.379 . S
H1993 C1987 0.959 . S
H1994 C1987 0.967 . S
H1995 C1987 0.960 . S
H1996 C1988 0.930 . S
H1997 C1989 0.929 . S
H1998 C2006 0.929 . S
H1999 C2008 0.930 . S
H2000 C2010 0.930 . S
H2001 C2013 0.929 . S
H2002 C2016 0.930 . S
H2003 C2018 0.960 . S
H2004 C2018 0.960 . S
H2005 C2018 0.960 . S
C2006 H1998 0.929 . S
C2006 C2007 1.377 . S
C2006 C2008 1.384 . S
C2007 C2006 1.377 . S
C2007 C2013 1.390 . S
C2008 H1999 0.930 . S
C2008 C2006 1.384 . S
C2008 C2009 1.372 . S
C2009 C2008 1.372 . S
C2009 C2010 1.400 . S
C2009 C2014 1.490 . S
C2010 H2000 0.930 . S
C2010 C2009 1.400 . S
C2010 C2013 1.386 . S
H2011 C2027 0.930 . S
H2012 C2028 0.931 . S
C2013 H2001 0.929 . S
C2013 C2007 1.390 . S
C2013 C2010 1.386 . S
C2014 C2009 1.490 . S
C2014 C2016 1.395 . S
C2014 C2017 1.403 . S
H2015 C2021 0.930 . S
C2016 H2002 0.930 . S
C2016 C2014 1.395 . S
C2016 C2019 1.403 . S
C2017 C2014 1.403 . S
C2017 C2018 1.524 . S
C2017 C2021 1.400 . S
C2018 H2003 0.960 . S
C2018 H2004 0.960 . S
C2018 H2005 0.960 . S
C2018 C2017 1.524 . S
C2019 C2016 1.403 . S
C2019 C2020 1.392 . S
C2019 C2023 1.495 . S
C2020 C2019 1.392 . S
C2020 C2021 1.385 . S
C2020 C2022 1.478 . S
C2021 H2015 0.930 . S
C2021 C2017 1.400 . S
C2021 C2020 1.385 . S
C2022 C2020 1.478 . S
C2022 C2024 1.381 . S
C2022 C2028 1.383 . S
C2023 C2019 1.495 . S
C2023 H2029 0.959 . S
C2023 H2030 0.961 . S
C2023 H2031 0.960 . S
C2024 C2022 1.381 . S
C2024 C2025 1.394 . S
C2024 H2032 0.930 . S
C2025 C2024 1.394 . S
C2025 C2026 1.383 . S
C2025 H2033 0.929 . S
C2026 C2025 1.383 . S
C2026 C2027 1.377 . S
C2027 H2011 0.930 . S
C2027 C2026 1.377 . S
C2027 C2028 1.379 . S
C2028 H2012 0.931 . S
C2028 C2022 1.383 . S
C2028 C2027 1.379 . S
H2029 C2023 0.959 . S
H2030 C2023 0.961 . S
H2031 C2023 0.960 . S
H2032 C2024 0.930 . S
H2033 C2025 0.929 . S
H2034 C2042 0.929 . S
H2035 C2044 0.930 . S
H2036 C2046 0.930 . S
H2037 C2049 0.929 . S
H2038 C2052 0.930 . S
H2039 C2054 0.960 . S
H2040 C2054 0.960 . S
H2041 C2054 0.960 . S
C2042 H2034 0.929 . S
C2042 C2043 1.377 . S
C2042 C2044 1.384 . S
C2043 C2042 1.377 . S
C2043 C2049 1.390 . S
C2044 H2035 0.930 . S
C2044 C2042 1.384 . S
C2044 C2045 1.372 . S
C2045 C2044 1.372 . S
C2045 C2046 1.400 . S
C2045 C2050 1.490 . S
C2046 H2036 0.930 . S
C2046 C2045 1.400 . S
C2046 C2049 1.386 . S
H2047 C2063 0.930 . S
H2048 C2064 0.931 . S
C2049 H2037 0.929 . S
C2049 C2043 1.390 . S
C2049 C2046 1.386 . S
C2050 C2045 1.490 . S
C2050 C2052 1.395 . S
C2050 C2053 1.403 . S
H2051 C2057 0.930 . S
C2052 H2038 0.930 . S
C2052 C2050 1.395 . S
C2052 C2055 1.403 . S
C2053 C2050 1.403 . S
C2053 C2054 1.524 . S
C2053 C2057 1.400 . S
C2054 H2039 0.960 . S
C2054 H2040 0.960 . S
C2054 H2041 0.960 . S
C2054 C2053 1.524 . S
C2055 C2052 1.403 . S
C2055 C2056 1.392 . S
C2055 C2059 1.523 . S
C2056 C2055 1.392 . S
C2056 C2057 1.385 . S
C2056 C2058 1.478 . S
C2057 H2051 0.930 . S
C2057 C2053 1.400 . S
C2057 C2056 1.385 . S
C2058 C2056 1.478 . S
C2058 C2060 1.381 . S
C2058 C2064 1.383 . S
C2059 C2055 1.523 . S
C2059 H2065 0.951 1_545 S
C2059 H2066 0.934 1_545 S
C2059 H2067 0.969 1_545 S
C2060 C2058 1.381 . S
C2060 C2061 1.394 . S
C2060 H2068 0.930 . S
C2061 C2060 1.394 . S
C2061 C2062 1.383 . S
C2061 H2069 0.929 . S
C2062 C2061 1.383 . S
C2062 C2063 1.377 . S
C2063 H2047 0.930 . S
C2063 C2062 1.377 . S
C2063 C2064 1.379 . S
C2064 H2048 0.931 . S
C2064 C2058 1.383 . S
C2064 C2063 1.379 . S
H2065 C2059 0.951 1_565 S
H2066 C2059 0.934 1_565 S
H2067 C2059 0.969 1_565 S
H2068 C2060 0.930 . S
H2069 C2061 0.929 . S
H2070 C2078 0.929 . S
H2071 C2080 0.930 . S
H2072 C2082 0.930 . S
H2073 C2085 0.929 . S
H2074 C2088 0.930 . S
H2075 C2090 0.960 . S
H2076 C2090 0.960 . S
H2077 C2090 0.960 . S
C2078 H2070 0.929 . S
C2078 C2079 1.377 . S
C2078 C2080 1.384 . S
C2079 C2078 1.377 . S
C2079 C2085 1.390 . S
C2080 H2071 0.930 . S
C2080 C2078 1.384 . S
C2080 C2081 1.372 . S
C2081 C2080 1.372 . S
C2081 C2082 1.400 . S
C2081 C2086 1.490 . S
C2082 H2072 0.930 . S
C2082 C2081 1.400 . S
C2082 C2085 1.386 . S
H2083 C2099 0.930 . S
H2084 C2100 0.931 . S
C2085 H2073 0.929 . S
C2085 C2079 1.390 . S
C2085 C2082 1.386 . S
C2086 C2081 1.490 . S
C2086 C2088 1.395 . S
C2086 C2089 1.403 . S
H2087 C2093 0.930 . S
C2088 H2074 0.930 . S
C2088 C2086 1.395 . S
C2088 C2091 1.403 . S
C2089 C2086 1.403 . S
C2089 C2090 1.524 . S
C2089 C2093 1.400 . S
C2090 H2075 0.960 . S
C2090 H2076 0.960 . S
C2090 H2077 0.960 . S
C2090 C2089 1.524 . S
C2091 C2088 1.403 . S
C2091 C2092 1.392 . S
C2091 C2095 1.495 . S
C2092 C2091 1.392 . S
C2092 C2093 1.385 . S
C2092 C2094 1.478 . S
C2093 H2087 0.930 . S
C2093 C2089 1.400 . S
C2093 C2092 1.385 . S
C2094 C2092 1.478 . S
C2094 C2096 1.381 . S
C2094 C2100 1.383 . S
C2095 C2091 1.495 . S
C2095 H2101 0.959 . S
C2095 H2102 0.961 . S
C2095 H2103 0.960 . S
C2096 C2094 1.381 . S
C2096 C2097 1.394 . S
C2096 H2104 0.930 . S
C2097 C2096 1.394 . S
C2097 C2098 1.383 . S
C2097 H2105 0.929 . S
C2098 C2097 1.383 . S
C2098 C2099 1.377 . S
C2099 H2083 0.930 . S
C2099 C2098 1.377 . S
C2099 C2100 1.379 . S
C2100 H2084 0.931 . S
C2100 C2094 1.383 . S
C2100 C2099 1.379 . S
H2101 C2095 0.959 . S
H2102 C2095 0.961 . S
H2103 C2095 0.960 . S
H2104 C2096 0.930 . S
H2105 C2097 0.929 . S
H2106 C2114 0.929 . S
H2107 C2116 0.930 . S
H2108 C2118 0.930 . S
H2109 C2121 0.929 . S
H2110 C2124 0.930 . S
H2111 C2126 0.960 . S
H2112 C2126 0.960 . S
H2113 C2126 0.960 . S
C2114 H2106 0.929 . S
C2114 C2115 1.377 . S
C2114 C2116 1.384 . S
C2115 C2114 1.377 . S
C2115 C2121 1.390 . S
C2116 H2107 0.930 . S
C2116 C2114 1.384 . S
C2116 C2117 1.372 . S
C2117 C2116 1.372 . S
C2117 C2118 1.400 . S
C2117 C2122 1.490 . S
C2118 H2108 0.930 . S
C2118 C2117 1.400 . S
C2118 C2121 1.386 . S
H2119 C2135 0.930 . S
H2120 C2136 0.931 . S
C2121 H2109 0.929 . S
C2121 C2115 1.390 . S
C2121 C2118 1.386 . S
C2122 C2117 1.490 . S
C2122 C2124 1.395 . S
C2122 C2125 1.403 . S
H2123 C2129 0.930 . S
C2124 H2110 0.930 . S
C2124 C2122 1.395 . S
C2124 C2127 1.403 . S
C2125 C2122 1.403 . S
C2125 C2126 1.524 . S
C2125 C2129 1.400 . S
C2126 H2111 0.960 . S
C2126 H2112 0.960 . S
C2126 H2113 0.960 . S
C2126 C2125 1.524 . S
C2127 C2124 1.403 . S
C2127 C2128 1.392 . S
C2127 C2131 1.495 . S
C2128 C2127 1.392 . S
C2128 C2129 1.385 . S
C2128 C2130 1.478 . S
C2129 H2123 0.930 . S
C2129 C2125 1.400 . S
C2129 C2128 1.385 . S
C2130 C2128 1.478 . S
C2130 C2132 1.381 . S
C2130 C2136 1.383 . S
C2131 C2127 1.495 . S
C2131 H2137 0.959 . S
C2131 H2138 0.961 . S
C2131 H2139 0.960 . S
C2132 C2130 1.381 . S
C2132 C2133 1.394 . S
C2132 H2140 0.930 . S
C2133 C2132 1.394 . S
C2133 C2134 1.383 . S
C2133 H2141 0.929 . S
C2134 C2133 1.383 . S
C2134 C2135 1.377 . S
C2135 H2119 0.930 . S
C2135 C2134 1.377 . S
C2135 C2136 1.379 . S
C2136 H2120 0.931 . S
C2136 C2130 1.383 . S
C2136 C2135 1.379 . S
H2137 C2131 0.959 . S
H2138 C2131 0.961 . S
H2139 C2131 0.960 . S
H2140 C2132 0.930 . S
H2141 C2133 0.929 . S
H2142 C2150 0.929 . S
H2143 C2152 0.930 . S
H2144 C2154 0.930 . S
H2145 C2157 0.929 . S
H2146 C2160 0.930 . S
H2147 C2162 0.960 . S
H2148 C2162 0.960 . S
H2149 C2162 0.960 . S
C2150 H2142 0.929 . S
C2150 C2151 1.377 . S
C2150 C2152 1.384 . S
C2151 C2150 1.377 . S
C2151 C2157 1.390 . S
C2152 H2143 0.930 . S
C2152 C2150 1.384 . S
C2152 C2153 1.372 . S
C2153 C2152 1.372 . S
C2153 C2154 1.400 . S
C2153 C2158 1.490 . S
C2154 H2144 0.930 . S
C2154 C2153 1.400 . S
C2154 C2157 1.386 . S
H2155 C2171 0.930 . S
H2156 C2172 0.931 . S
C2157 H2145 0.929 . S
C2157 C2151 1.390 . S
C2157 C2154 1.386 . S
C2158 C2153 1.490 . S
C2158 C2160 1.395 . S
C2158 C2161 1.403 . S
H2159 C2165 0.930 . S
C2160 H2146 0.930 . S
C2160 C2158 1.395 . S
C2160 C2163 1.403 . S
C2161 C2158 1.403 . S
C2161 C2162 1.524 . S
C2161 C2165 1.400 . S
C2162 H2147 0.960 . S
C2162 H2148 0.960 . S
C2162 H2149 0.960 . S
C2162 C2161 1.524 . S
C2163 C2160 1.403 . S
C2163 C2164 1.392 . S
C2163 C2167 1.495 . S
C2164 C2163 1.392 . S
C2164 C2165 1.385 . S
C2164 C2166 1.478 . S
C2165 H2159 0.930 . S
C2165 C2161 1.400 . S
C2165 C2164 1.385 . S
C2166 C2164 1.478 . S
C2166 C2168 1.381 . S
C2166 C2172 1.383 . S
C2167 C2163 1.495 . S
C2167 H2173 0.959 . S
C2167 H2174 0.961 . S
C2167 H2175 0.960 . S
C2168 C2166 1.381 . S
C2168 C2169 1.394 . S
C2168 H2176 0.930 . S
C2169 C2168 1.394 . S
C2169 C2170 1.383 . S
C2169 H2177 0.929 . S
C2170 C2169 1.383 . S
C2170 C2171 1.377 . S
C2171 H2155 0.930 . S
C2171 C2170 1.377 . S
C2171 C2172 1.379 . S
C2172 H2156 0.931 . S
C2172 C2166 1.383 . S
C2172 C2171 1.379 . S
H2173 C2167 0.959 . S
H2174 C2167 0.961 . S
H2175 C2167 0.960 . S
H2176 C2168 0.930 . S
H2177 C2169 0.929 . S
H2178 C2186 0.929 . S
H2179 C2188 0.930 . S
H2180 C2190 0.930 . S
H2181 C2193 0.929 . S
H2182 C2196 0.930 . S
H2183 C2198 0.960 . S
H2184 C2198 0.960 . S
H2185 C2198 0.960 . S
C2186 H2178 0.929 . S
C2186 C2187 1.377 . S
C2186 C2188 1.384 . S
C2187 C2186 1.377 . S
C2187 C2193 1.390 . S
C2188 H2179 0.930 . S
C2188 C2186 1.384 . S
C2188 C2189 1.372 . S
C2189 C2188 1.372 . S
C2189 C2190 1.400 . S
C2189 C2194 1.490 . S
C2190 H2180 0.930 . S
C2190 C2189 1.400 . S
C2190 C2193 1.386 . S
H2191 C2207 0.930 . S
H2192 C2208 0.931 . S
C2193 H2181 0.929 . S
C2193 C2187 1.390 . S
C2193 C2190 1.386 . S
C2194 C2189 1.490 . S
C2194 C2196 1.395 . S
C2194 C2197 1.403 . S
H2195 C2201 0.930 . S
C2196 H2182 0.930 . S
C2196 C2194 1.395 . S
C2196 C2199 1.403 . S
C2197 C2194 1.403 . S
C2197 C2198 1.524 . S
C2197 C2201 1.400 . S
C2198 H2183 0.960 . S
C2198 H2184 0.960 . S
C2198 H2185 0.960 . S
C2198 C2197 1.524 . S
C2199 C2196 1.403 . S
C2199 C2200 1.392 . S
C2199 C2203 1.495 . S
C2200 C2199 1.392 . S
C2200 C2201 1.385 . S
C2200 C2202 1.478 . S
C2201 H2195 0.930 . S
C2201 C2197 1.400 . S
C2201 C2200 1.385 . S
C2202 C2200 1.478 . S
C2202 C2204 1.381 . S
C2202 C2208 1.383 . S
C2203 C2199 1.495 . S
C2203 H2209 0.959 . S
C2203 H2210 0.961 . S
C2203 H2211 0.960 . S
C2204 C2202 1.381 . S
C2204 C2205 1.394 . S
C2204 H2212 0.930 . S
C2205 C2204 1.394 . S
C2205 C2206 1.383 . S
C2205 H2213 0.929 . S
C2206 C2205 1.383 . S
C2206 C2207 1.377 . S
C2207 H2191 0.930 . S
C2207 C2206 1.377 . S
C2207 C2208 1.379 . S
C2208 H2192 0.931 . S
C2208 C2202 1.383 . S
C2208 C2207 1.379 . S
H2209 C2203 0.959 . S
H2210 C2203 0.961 . S
H2211 C2203 0.960 . S
H2212 C2204 0.930 . S
H2213 C2205 0.929 . S
H2214 C2222 0.929 . S
H2215 C2224 0.930 . S
H2216 C2226 0.930 . S
H2217 C2229 0.929 . S
H2218 C2232 0.930 . S
H2219 C2234 0.960 . S
H2220 C2234 0.960 . S
H2221 C2234 0.960 . S
C2222 H2214 0.929 . S
C2222 C2223 1.377 . S
C2222 C2224 1.384 . S
C2223 C2222 1.377 . S
C2223 C2229 1.390 . S
C2224 H2215 0.930 . S
C2224 C2222 1.384 . S
C2224 C2225 1.372 . S
C2225 C2224 1.372 . S
C2225 C2226 1.400 . S
C2225 C2230 1.490 . S
C2226 H2216 0.930 . S
C2226 C2225 1.400 . S
C2226 C2229 1.386 . S
H2227 C2243 0.930 . S
H2228 C2244 0.931 . S
C2229 H2217 0.929 . S
C2229 C2223 1.390 . S
C2229 C2226 1.386 . S
C2230 C2225 1.490 . S
C2230 C2232 1.395 . S
C2230 C2233 1.403 . S
H2231 C2237 0.930 . S
C2232 H2218 0.930 . S
C2232 C2230 1.395 . S
C2232 C2235 1.403 . S
C2233 C2230 1.403 . S
C2233 C2234 1.524 . S
C2233 C2237 1.400 . S
C2234 H2219 0.960 . S
C2234 H2220 0.960 . S
C2234 H2221 0.960 . S
C2234 C2233 1.524 . S
C2235 C2232 1.403 . S
C2235 C2236 1.392 . S
C2235 C2239 1.495 . S
C2236 C2235 1.392 . S
C2236 C2237 1.385 . S
C2236 C2238 1.478 . S
C2237 H2231 0.930 . S
C2237 C2233 1.400 . S
C2237 C2236 1.385 . S
C2238 C2236 1.478 . S
C2238 C2240 1.381 . S
C2238 C2244 1.383 . S
C2239 C2235 1.495 . S
C2239 H2245 0.959 . S
C2239 H2246 0.961 . S
C2239 H2247 0.960 . S
C2240 C2238 1.381 . S
C2240 C2241 1.394 . S
C2240 H2248 0.930 . S
C2241 C2240 1.394 . S
C2241 C2242 1.383 . S
C2241 H2249 0.929 . S
C2242 C2241 1.383 . S
C2242 C2243 1.377 . S
C2243 H2227 0.930 . S
C2243 C2242 1.377 . S
C2243 C2244 1.379 . S
C2244 H2228 0.931 . S
C2244 C2238 1.383 . S
C2244 C2243 1.379 . S
H2245 C2239 0.959 . S
H2246 C2239 0.961 . S
H2247 C2239 0.960 . S
H2248 C2240 0.930 . S
H2249 C2241 0.929 . S
H2250 C2258 0.929 . S
H2251 C2260 0.930 . S
H2252 C2262 0.930 . S
H2253 C2265 0.929 . S
H2254 C2268 0.930 . S
H2255 C2270 0.960 . S
H2256 C2270 0.960 . S
H2257 C2270 0.960 . S
C2258 H2250 0.929 . S
C2258 C2259 1.377 . S
C2258 C2260 1.384 . S
C2259 C2258 1.377 . S
C2259 C2265 1.390 . S
C2260 H2251 0.930 . S
C2260 C2258 1.384 . S
C2260 C2261 1.372 . S
C2261 C2260 1.372 . S
C2261 C2262 1.400 . S
C2261 C2266 1.490 . S
C2262 H2252 0.930 . S
C2262 C2261 1.400 . S
C2262 C2265 1.386 . S
H2263 C2279 0.930 . S
H2264 C2280 0.931 . S
C2265 H2253 0.929 . S
C2265 C2259 1.390 . S
C2265 C2262 1.386 . S
C2266 C2261 1.490 . S
C2266 C2268 1.395 . S
C2266 C2269 1.403 . S
H2267 C2273 0.930 . S
C2268 H2254 0.930 . S
C2268 C2266 1.395 . S
C2268 C2271 1.403 . S
C2269 C2266 1.403 . S
C2269 C2270 1.524 . S
C2269 C2273 1.400 . S
C2270 H2255 0.960 . S
C2270 H2256 0.960 . S
C2270 H2257 0.960 . S
C2270 C2269 1.524 . S
C2271 C2268 1.403 . S
C2271 C2272 1.392 . S
C2271 C2275 1.495 . S
C2272 C2271 1.392 . S
C2272 C2273 1.385 . S
C2272 C2274 1.478 . S
C2273 H2267 0.930 . S
C2273 C2269 1.400 . S
C2273 C2272 1.385 . S
C2274 C2272 1.478 . S
C2274 C2276 1.381 . S
C2274 C2280 1.383 . S
C2275 C2271 1.495 . S
C2275 H2281 0.959 . S
C2275 H2282 0.961 . S
C2275 H2283 0.960 . S
C2276 C2274 1.381 . S
C2276 C2277 1.394 . S
C2276 H2284 0.930 . S
C2277 C2276 1.394 . S
C2277 C2278 1.383 . S
C2277 H2285 0.929 . S
C2278 C2277 1.383 . S
C2278 C2279 1.377 . S
C2279 H2263 0.930 . S
C2279 C2278 1.377 . S
C2279 C2280 1.379 . S
C2280 H2264 0.931 . S
C2280 C2274 1.383 . S
C2280 C2279 1.379 . S
H2281 C2275 0.959 . S
H2282 C2275 0.961 . S
H2283 C2275 0.960 . S
H2284 C2276 0.930 . S
H2285 C2277 0.929 . S
H2286 C2294 0.929 . S
H2287 C2296 0.930 . S
H2288 C2298 0.930 . S
H2289 C2301 0.929 . S
H2290 C2304 0.930 . S
H2291 C2306 0.960 . S
H2292 C2306 0.960 . S
H2293 C2306 0.960 . S
C2294 H2286 0.929 . S
C2294 C2295 1.377 . S
C2294 C2296 1.384 . S
C2295 C2294 1.377 . S
C2295 C2301 1.390 . S
C2296 H2287 0.930 . S
C2296 C2294 1.384 . S
C2296 C2297 1.372 . S
C2297 C2296 1.372 . S
C2297 C2298 1.400 . S
C2297 C2302 1.490 . S
C2298 H2288 0.930 . S
C2298 C2297 1.400 . S
C2298 C2301 1.386 . S
H2299 C2315 0.930 . S
H2300 C2316 0.931 . S
C2301 H2289 0.929 . S
C2301 C2295 1.390 . S
C2301 C2298 1.386 . S
C2302 C2297 1.490 . S
C2302 C2304 1.395 . S
C2302 C2305 1.403 . S
H2303 C2309 0.930 . S
C2304 H2290 0.930 . S
C2304 C2302 1.395 . S
C2304 C2307 1.403 . S
C2305 C2302 1.403 . S
C2305 C2306 1.524 . S
C2305 C2309 1.400 . S
C2306 H2291 0.960 . S
C2306 H2292 0.960 . S
C2306 H2293 0.960 . S
C2306 C2305 1.524 . S
C2307 C2304 1.403 . S
C2307 C2308 1.392 . S
C2307 C2311 1.495 . S
C2308 C2307 1.392 . S
C2308 C2309 1.385 . S
C2308 C2310 1.478 . S
C2309 H2303 0.930 . S
C2309 C2305 1.400 . S
C2309 C2308 1.385 . S
C2310 C2308 1.478 . S
C2310 C2312 1.381 . S
C2310 C2316 1.383 . S
C2311 C2307 1.495 . S
C2311 H2317 0.959 . S
C2311 H2318 0.961 . S
C2311 H2319 0.960 . S
C2312 C2310 1.381 . S
C2312 C2313 1.394 . S
C2312 H2320 0.930 . S
C2313 C2312 1.394 . S
C2313 C2314 1.383 . S
C2313 H2321 0.929 . S
C2314 C2313 1.383 . S
C2314 C2315 1.377 . S
C2315 H2299 0.930 . S
C2315 C2314 1.377 . S
C2315 C2316 1.379 . S
C2316 H2300 0.931 . S
C2316 C2310 1.383 . S
C2316 C2315 1.379 . S
H2317 C2311 0.959 . S
H2318 C2311 0.961 . S
H2319 C2311 0.960 . S
H2320 C2312 0.930 . S
H2321 C2313 0.929 . S
H2322 C2330 0.929 . S
H2323 C2332 0.930 . S
H2324 C2334 0.930 . S
H2325 C2337 0.929 . S
H2326 C2340 0.930 . S
H2327 C2342 0.960 . S
H2328 C2342 0.960 . S
H2329 C2342 0.960 . S
C2330 H2322 0.929 . S
C2330 C2331 1.377 . S
C2330 C2332 1.384 . S
C2331 C2330 1.377 . S
C2331 C2337 1.390 . S
C2332 H2323 0.930 . S
C2332 C2330 1.384 . S
C2332 C2333 1.372 . S
C2333 C2332 1.372 . S
C2333 C2334 1.400 . S
C2333 C2338 1.490 . S
C2334 H2324 0.930 . S
C2334 C2333 1.400 . S
C2334 C2337 1.386 . S
H2335 C2351 0.930 . S
H2336 C2352 0.931 . S
C2337 H2325 0.929 . S
C2337 C2331 1.390 . S
C2337 C2334 1.386 . S
C2338 C2333 1.490 . S
C2338 C2340 1.395 . S
C2338 C2341 1.403 . S
H2339 C2345 0.930 . S
C2340 H2326 0.930 . S
C2340 C2338 1.395 . S
C2340 C2343 1.403 . S
C2341 C2338 1.403 . S
C2341 C2342 1.524 . S
C2341 C2345 1.400 . S
C2342 H2327 0.960 . S
C2342 H2328 0.960 . S
C2342 H2329 0.960 . S
C2342 C2341 1.524 . S
C2343 C2340 1.403 . S
C2343 C2344 1.392 . S
C2343 C2347 1.495 . S
C2344 C2343 1.392 . S
C2344 C2345 1.385 . S
C2344 C2346 1.478 . S
C2345 H2339 0.930 . S
C2345 C2341 1.400 . S
C2345 C2344 1.385 . S
C2346 C2344 1.478 . S
C2346 C2348 1.381 . S
C2346 C2352 1.383 . S
C2347 C2343 1.495 . S
C2347 H2353 0.959 . S
C2347 H2354 0.961 . S
C2347 H2355 0.960 . S
C2348 C2346 1.381 . S
C2348 C2349 1.394 . S
C2348 H2356 0.930 . S
C2349 C2348 1.394 . S
C2349 C2350 1.383 . S
C2349 H2357 0.929 . S
C2350 C2349 1.383 . S
C2350 C2351 1.377 . S
C2351 H2335 0.930 . S
C2351 C2350 1.377 . S
C2351 C2352 1.379 . S
C2352 H2336 0.931 . S
C2352 C2346 1.383 . S
C2352 C2351 1.379 . S
H2353 C2347 0.959 . S
H2354 C2347 0.961 . S
H2355 C2347 0.960 . S
H2356 C2348 0.930 . S
H2357 C2349 0.929 . S
H2358 C2366 0.929 . S
H2359 C2368 0.930 . S
H2360 C2370 0.930 . S
H2361 C2373 0.929 . S
H2362 C2376 0.930 . S
H2363 C2378 0.960 . S
H2364 C2378 0.960 . S
H2365 C2378 0.960 . S
C2366 H2358 0.929 . S
C2366 C2367 1.377 . S
C2366 C2368 1.384 . S
C2367 C2366 1.377 . S
C2367 C2373 1.390 . S
C2368 H2359 0.930 . S
C2368 C2366 1.384 . S
C2368 C2369 1.372 . S
C2369 C2368 1.372 . S
C2369 C2370 1.400 . S
C2369 C2374 1.490 . S
C2370 H2360 0.930 . S
C2370 C2369 1.400 . S
C2370 C2373 1.386 . S
H2371 C2387 0.930 . S
H2372 C2388 0.931 . S
C2373 H2361 0.929 . S
C2373 C2367 1.390 . S
C2373 C2370 1.386 . S
C2374 C2369 1.490 . S
C2374 C2376 1.395 . S
C2374 C2377 1.403 . S
H2375 C2381 0.930 . S
C2376 H2362 0.930 . S
C2376 C2374 1.395 . S
C2376 C2379 1.403 . S
C2377 C2374 1.403 . S
C2377 C2378 1.524 . S
C2377 C2381 1.400 . S
C2378 H2363 0.960 . S
C2378 H2364 0.960 . S
C2378 H2365 0.960 . S
C2378 C2377 1.524 . S
C2379 C2376 1.403 . S
C2379 C2380 1.392 . S
C2379 C2383 1.495 . S
C2380 C2379 1.392 . S
C2380 C2381 1.385 . S
C2380 C2382 1.478 . S
C2381 H2375 0.930 . S
C2381 C2377 1.400 . S
C2381 C2380 1.385 . S
C2382 C2380 1.478 . S
C2382 C2384 1.381 . S
C2382 C2388 1.383 . S
C2383 C2379 1.495 . S
C2383 H2389 0.959 . S
C2383 H2390 0.961 . S
C2383 H2391 0.960 . S
C2384 C2382 1.381 . S
C2384 C2385 1.394 . S
C2384 H2392 0.930 . S
C2385 C2384 1.394 . S
C2385 C2386 1.383 . S
C2385 H2393 0.929 . S
C2386 C2385 1.383 . S
C2386 C2387 1.377 . S
C2387 H2371 0.930 . S
C2387 C2386 1.377 . S
C2387 C2388 1.379 . S
C2388 H2372 0.931 . S
C2388 C2382 1.383 . S
C2388 C2387 1.379 . S
H2389 C2383 0.959 . S
H2390 C2383 0.961 . S
H2391 C2383 0.960 . S
H2392 C2384 0.930 . S
H2393 C2385 0.929 . S
H2394 C2402 0.929 . S
H2395 C2404 0.930 . S
H2396 C2406 0.930 . S
H2397 C2409 0.929 . S
H2398 C2412 0.930 . S
H2399 C2414 0.960 . S
H2400 C2414 0.960 . S
H2401 C2414 0.960 . S
C2402 H2394 0.929 . S
C2402 C2403 1.377 . S
C2402 C2404 1.384 . S
C2403 C2402 1.377 . S
C2403 C2409 1.390 . S
C2404 H2395 0.930 . S
C2404 C2402 1.384 . S
C2404 C2405 1.372 . S
C2405 C2404 1.372 . S
C2405 C2406 1.400 . S
C2405 C2410 1.490 . S
C2406 H2396 0.930 . S
C2406 C2405 1.400 . S
C2406 C2409 1.386 . S
H2407 C2423 0.930 . S
H2408 C2424 0.931 . S
C2409 H2397 0.929 . S
C2409 C2403 1.390 . S
C2409 C2406 1.386 . S
C2410 C2405 1.490 . S
C2410 C2412 1.395 . S
C2410 C2413 1.403 . S
H2411 C2417 0.930 . S
C2412 H2398 0.930 . S
C2412 C2410 1.395 . S
C2412 C2415 1.403 . S
C2413 C2410 1.403 . S
C2413 C2414 1.524 . S
C2413 C2417 1.400 . S
C2414 H2399 0.960 . S
C2414 H2400 0.960 . S
C2414 H2401 0.960 . S
C2414 C2413 1.524 . S
C2415 C2412 1.403 . S
C2415 C2416 1.392 . S
C2415 C2419 1.495 . S
C2416 C2415 1.392 . S
C2416 C2417 1.385 . S
C2416 C2418 1.478 . S
C2417 H2411 0.930 . S
C2417 C2413 1.400 . S
C2417 C2416 1.385 . S
C2418 C2416 1.478 . S
C2418 C2420 1.381 . S
C2418 C2424 1.383 . S
C2419 C2415 1.495 . S
C2419 H2425 0.959 . S
C2419 H2426 0.961 . S
C2419 H2427 0.960 . S
C2420 C2418 1.381 . S
C2420 C2421 1.394 . S
C2420 H2428 0.930 . S
C2421 C2420 1.394 . S
C2421 C2422 1.383 . S
C2421 H2429 0.929 . S
C2422 C2421 1.383 . S
C2422 C2423 1.377 . S
C2423 H2407 0.930 . S
C2423 C2422 1.377 . S
C2423 C2424 1.379 . S
C2424 H2408 0.931 . S
C2424 C2418 1.383 . S
C2424 C2423 1.379 . S
H2425 C2419 0.959 . S
H2426 C2419 0.961 . S
H2427 C2419 0.960 . S
H2428 C2420 0.930 . S
H2429 C2421 0.929 . S
H2430 C2438 0.929 . S
H2431 C2440 0.930 . S
H2432 C2442 0.930 . S
H2433 C2445 0.929 . S
H2434 C2448 0.930 . S
H2435 C2450 0.960 . S
H2436 C2450 0.960 . S
H2437 C2450 0.960 . S
C2438 H2430 0.929 . S
C2438 C2439 1.377 . S
C2438 C2440 1.384 . S
C2439 C2438 1.377 . S
C2439 C2445 1.390 . S
C2440 H2431 0.930 . S
C2440 C2438 1.384 . S
C2440 C2441 1.372 . S
C2441 C2440 1.372 . S
C2441 C2442 1.400 . S
C2441 C2446 1.490 . S
C2442 H2432 0.930 . S
C2442 C2441 1.400 . S
C2442 C2445 1.386 . S
H2443 C2459 0.930 . S
H2444 C2460 0.931 . S
C2445 H2433 0.929 . S
C2445 C2439 1.390 . S
C2445 C2442 1.386 . S
C2446 C2441 1.490 . S
C2446 C2448 1.395 . S
C2446 C2449 1.403 . S
H2447 C2453 0.930 . S
C2448 H2434 0.930 . S
C2448 C2446 1.395 . S
C2448 C2451 1.403 . S
C2449 C2446 1.403 . S
C2449 C2450 1.524 . S
C2449 C2453 1.400 . S
C2450 H2435 0.960 . S
C2450 H2436 0.960 . S
C2450 H2437 0.960 . S
C2450 C2449 1.524 . S
C2451 C2448 1.403 . S
C2451 C2452 1.392 . S
C2451 C2455 1.495 . S
C2452 C2451 1.392 . S
C2452 C2453 1.385 . S
C2452 C2454 1.478 . S
C2453 H2447 0.930 . S
C2453 C2449 1.400 . S
C2453 C2452 1.385 . S
C2454 C2452 1.478 . S
C2454 C2456 1.381 . S
C2454 C2460 1.383 . S
C2455 C2451 1.495 . S
C2455 H2461 0.959 . S
C2455 H2462 0.961 . S
C2455 H2463 0.960 . S
C2456 C2454 1.381 . S
C2456 C2457 1.394 . S
C2456 H2464 0.930 . S
C2457 C2456 1.394 . S
C2457 C2458 1.383 . S
C2457 H2465 0.929 . S
C2458 C2457 1.383 . S
C2458 C2459 1.377 . S
C2459 H2443 0.930 . S
C2459 C2458 1.377 . S
C2459 C2460 1.379 . S
C2460 H2444 0.931 . S
C2460 C2454 1.383 . S
C2460 C2459 1.379 . S
H2461 C2455 0.959 . S
H2462 C2455 0.961 . S
H2463 C2455 0.960 . S
H2464 C2456 0.930 . S
H2465 C2457 0.929 . S
H2466 C2474 0.929 . S
H2467 C2476 0.930 . S
H2468 C2478 0.930 . S
H2469 C2481 0.929 . S
H2470 C2484 0.930 . S
H2471 C2486 0.960 . S
H2472 C2486 0.960 . S
H2473 C2486 0.960 . S
C2474 H2466 0.929 . S
C2474 C2475 1.377 . S
C2474 C2476 1.384 . S
C2475 C2474 1.377 . S
C2475 C2481 1.390 . S
C2476 H2467 0.930 . S
C2476 C2474 1.384 . S
C2476 C2477 1.372 . S
C2477 C2476 1.372 . S
C2477 C2478 1.400 . S
C2477 C2482 1.490 . S
C2478 H2468 0.930 . S
C2478 C2477 1.400 . S
C2478 C2481 1.386 . S
H2479 C2495 0.930 . S
H2480 C2496 0.931 . S
C2481 H2469 0.929 . S
C2481 C2475 1.390 . S
C2481 C2478 1.386 . S
C2482 C2477 1.490 . S
C2482 C2484 1.395 . S
C2482 C2485 1.403 . S
H2483 C2489 0.930 . S
C2484 H2470 0.930 . S
C2484 C2482 1.395 . S
C2484 C2487 1.403 . S
C2485 C2482 1.403 . S
C2485 C2486 1.524 . S
C2485 C2489 1.400 . S
C2486 H2471 0.960 . S
C2486 H2472 0.960 . S
C2486 H2473 0.960 . S
C2486 C2485 1.524 . S
C2487 C2484 1.403 . S
C2487 C2488 1.392 . S
C2487 C2491 1.495 . S
C2488 C2487 1.392 . S
C2488 C2489 1.385 . S
C2488 C2490 1.478 . S
C2489 H2483 0.930 . S
C2489 C2485 1.400 . S
C2489 C2488 1.385 . S
C2490 C2488 1.478 . S
C2490 C2492 1.381 . S
C2490 C2496 1.383 . S
C2491 C2487 1.495 . S
C2491 H2497 0.959 . S
C2491 H2498 0.961 . S
C2491 H2499 0.960 . S
C2492 C2490 1.381 . S
C2492 C2493 1.394 . S
C2492 H2500 0.930 . S
C2493 C2492 1.394 . S
C2493 C2494 1.383 . S
C2493 H2501 0.929 . S
C2494 C2493 1.383 . S
C2494 C2495 1.377 . S
C2495 H2479 0.930 . S
C2495 C2494 1.377 . S
C2495 C2496 1.379 . S
C2496 H2480 0.931 . S
C2496 C2490 1.383 . S
C2496 C2495 1.379 . S
H2497 C2491 0.959 . S
H2498 C2491 0.961 . S
H2499 C2491 0.960 . S
H2500 C2492 0.930 . S
H2501 C2493 0.929 . S
C567 C151 1.279 . S
C586 C210 1.303 . S
C603 C159 2.011 . S
C622 C250 2.175 . S
C639 C137 1.551 . S
C658 C280 1.655 . S
C675 C126 1.371 . S
C694 C240 1.453 . S
C730 C290 1.895 . S
C711 C104 1.755 . S
C747 C118 1.010 . S
C766 C200 1.045 . S
C802 C229 1.671 . S
C783 C129 1.638 . S
C838 C269 1.846 . S
C819 C107 1.848 . S
C855 C115 1.322 . S
C874 C295 1.651 1_556 S
C891 C148 1.196 . S
C910 C255 1.419 . S
C927 C162 1.563 . S
C946 C309 1.559 . S
C982 C215 1.358 . S
C963 C140 1.369 . S
C1018 C330 1.303 . S
C999 C19 1.278 . S
C1035 C27 2.009 . S
C1054 C370 2.174 . S
C1071 C5 1.550 . S
C1090 C400 1.658 . S
C1107 C192 1.373 . S
C1126 C360 1.447 . S
C1143 C170 1.745 . S
C1162 C410 1.900 . S
C1179 C184 1.006 . S
C1198 C320 1.031 . S
C1215 C195 1.638 . S
C1234 C349 1.634 . S
C1251 C173 1.849 . S
C1270 C389 1.846 . S
C1306 C415 1.641 . S
C1287 C181 1.340 . S
C1323 C16 1.199 . S
C1342 C375 1.449 . S
C1378 C429 1.561 . S
C1359 C30 1.562 . S
C1395 C8 1.369 . S
C1414 C335 1.345 . S
C1450 C450 1.313 . S
C1431 C85 1.284 . S
C1467 C93 2.001 . S
C1486 C490 2.181 . S
C1522 C520 1.661 . S
C1503 C71 1.559 . S
C1558 C480 1.449 . S
C1539 C60 1.372 . S
C1594 C530 1.899 . S
C1575 C38 1.750 . S
C1611 C52 1.007 . S
C1630 C440 1.034 . S
C1647 C63 1.637 . S
C1666 C469 1.632 . S
C1683 C41 1.850 . S
C1702 C509 1.848 . S
C1738 C535 1.662 . S
C1719 C49 1.319 . S
C1755 C82 1.199 . S
C1774 C495 1.420 . S
C1791 C96 1.562 . S
C1810 C549 1.554 . S
C1827 C74 1.373 . S
C1846 C455 1.357 . S
C1863 C172 1.465 . S
C1882 C227 1.485 . S
C1918 C267 1.640 . S
C1899 C183 1.574 . S
C1935 C194 1.540 . S
C1954 C286 1.538 . S
C1971 C73 1.862 . S
C1990 C246 1.849 . S
C2007 C84 1.250 . S
C2026 C307 1.312 . S
C2062 C206 1.427 . S
C2043 C95 1.403 . S
C2079 C40 1.473 . S
C2098 C347 1.496 . S
C2115 C51 1.566 . S
C2134 C387 1.656 . S
C2151 C62 1.540 . S
C2170 C406 1.539 . S
C2187 C139 1.857 . S
C2206 C366 1.866 . S
C2242 C427 1.290 . S
C2223 C150 1.249 . S
C2259 C161 1.400 . S
C2278 C326 1.420 . S
C2295 C106 1.464 . S
C2314 C467 1.506 . S
C2331 C117 1.577 . S
C2350 C507 1.651 . S
C2386 C526 1.537 . S
C2367 C128 1.540 . S
C2403 C7 1.862 . S
C2422 C486 1.861 . S
C2439 C18 1.260 . S
C2458 C547 1.318 . S
C2475 C29 1.392 . S
C2494 C446 1.431 . S
