# Generated by pormake.
# Topology gar, (4,6)-cn, num edge types: 1
# Building blocks:
#     Node 0, Type 0, BuildingBlock: UXUYUI_clean_sbu_0, # of connection points: 4
#     Node 1, Type 0, BuildingBlock: UXUYUI_clean_sbu_0, # of connection points: 4
#     Node 2, Type 0, BuildingBlock: UXUYUI_clean_sbu_0, # of connection points: 4
#     Node 3, Type 0, BuildingBlock: UXUYUI_clean_sbu_0, # of connection points: 4
#     Node 4, Type 0, BuildingBlock: UXUYUI_clean_sbu_0, # of connection points: 4
#     Node 5, Type 0, BuildingBlock: UXUYUI_clean_sbu_0, # of connection points: 4
#     Node 6, Type 0, BuildingBlock: UXUYUI_clean_sbu_0, # of connection points: 4
#     Node 7, Type 0, BuildingBlock: UXUYUI_clean_sbu_0, # of connection points: 4
#     Node 8, Type 0, BuildingBlock: UXUYUI_clean_sbu_0, # of connection points: 4
#     Node 9, Type 0, BuildingBlock: UXUYUI_clean_sbu_0, # of connection points: 4
#     Node 10, Type 0, BuildingBlock: UXUYUI_clean_sbu_0, # of connection points: 4
#     Node 11, Type 0, BuildingBlock: UXUYUI_clean_sbu_0, # of connection points: 4
#     Node 12, Type 0, BuildingBlock: UXUYUI_clean_sbu_0, # of connection points: 4
#     Node 13, Type 0, BuildingBlock: UXUYUI_clean_sbu_0, # of connection points: 4
#     Node 14, Type 0, BuildingBlock: UXUYUI_clean_sbu_0, # of connection points: 4
#     Node 15, Type 0, BuildingBlock: UXUYUI_clean_sbu_0, # of connection points: 4
#     Node 16, Type 0, BuildingBlock: UXUYUI_clean_sbu_0, # of connection points: 4
#     Node 17, Type 0, BuildingBlock: UXUYUI_clean_sbu_0, # of connection points: 4
#     Node 18, Type 0, BuildingBlock: UXUYUI_clean_sbu_0, # of connection points: 4
#     Node 19, Type 0, BuildingBlock: UXUYUI_clean_sbu_0, # of connection points: 4
#     Node 20, Type 0, BuildingBlock: UXUYUI_clean_sbu_0, # of connection points: 4
#     Node 21, Type 0, BuildingBlock: UXUYUI_clean_sbu_0, # of connection points: 4
#     Node 22, Type 0, BuildingBlock: UXUYUI_clean_sbu_0, # of connection points: 4
#     Node 23, Type 0, BuildingBlock: UXUYUI_clean_sbu_0, # of connection points: 4
#     Node 24, Type 1, BuildingBlock: KUMJIN_clean_sbu_1, # of connection points: 6
#     Node 25, Type 1, BuildingBlock: KUMJIN_clean_sbu_1, # of connection points: 6
#     Node 26, Type 1, BuildingBlock: KUMJIN_clean_sbu_1, # of connection points: 6
#     Node 27, Type 1, BuildingBlock: KUMJIN_clean_sbu_1, # of connection points: 6
#     Node 28, Type 1, BuildingBlock: KUMJIN_clean_sbu_1, # of connection points: 6
#     Node 29, Type 1, BuildingBlock: KUMJIN_clean_sbu_1, # of connection points: 6
#     Node 30, Type 1, BuildingBlock: KUMJIN_clean_sbu_1, # of connection points: 6
#     Node 31, Type 1, BuildingBlock: KUMJIN_clean_sbu_1, # of connection points: 6
#     Node 32, Type 1, BuildingBlock: KUMJIN_clean_sbu_1, # of connection points: 6
#     Node 33, Type 1, BuildingBlock: KUMJIN_clean_sbu_1, # of connection points: 6
#     Node 34, Type 1, BuildingBlock: KUMJIN_clean_sbu_1, # of connection points: 6
#     Node 35, Type 1, BuildingBlock: KUMJIN_clean_sbu_1, # of connection points: 6
#     Node 36, Type 1, BuildingBlock: KUMJIN_clean_sbu_1, # of connection points: 6
#     Node 37, Type 1, BuildingBlock: KUMJIN_clean_sbu_1, # of connection points: 6
#     Node 38, Type 1, BuildingBlock: KUMJIN_clean_sbu_1, # of connection points: 6
#     Node 39, Type 1, BuildingBlock: KUMJIN_clean_sbu_1, # of connection points: 6
#     Edge 40, Type (0, 1), BuildingBlock: EZIPEK_clean_linker_0, # of connection points: 2
#     Edge 41, Type (0, 1), BuildingBlock: EZIPEK_clean_linker_0, # of connection points: 2
#     Edge 42, Type (0, 1), BuildingBlock: EZIPEK_clean_linker_0, # of connection points: 2
#     Edge 43, Type (0, 1), BuildingBlock: EZIPEK_clean_linker_0, # of connection points: 2
#     Edge 44, Type (0, 1), BuildingBlock: EZIPEK_clean_linker_0, # of connection points: 2
#     Edge 45, Type (0, 1), BuildingBlock: EZIPEK_clean_linker_0, # of connection points: 2
#     Edge 46, Type (0, 1), BuildingBlock: EZIPEK_clean_linker_0, # of connection points: 2
#     Edge 47, Type (0, 1), BuildingBlock: EZIPEK_clean_linker_0, # of connection points: 2
#     Edge 48, Type (0, 1), BuildingBlock: EZIPEK_clean_linker_0, # of connection points: 2
#     Edge 49, Type (0, 1), BuildingBlock: EZIPEK_clean_linker_0, # of connection points: 2
#     Edge 50, Type (0, 1), BuildingBlock: EZIPEK_clean_linker_0, # of connection points: 2
#     Edge 51, Type (0, 1), BuildingBlock: EZIPEK_clean_linker_0, # of connection points: 2
#     Edge 52, Type (0, 1), BuildingBlock: EZIPEK_clean_linker_0, # of connection points: 2
#     Edge 53, Type (0, 1), BuildingBlock: EZIPEK_clean_linker_0, # of connection points: 2
#     Edge 54, Type (0, 1), BuildingBlock: EZIPEK_clean_linker_0, # of connection points: 2
#     Edge 55, Type (0, 1), BuildingBlock: EZIPEK_clean_linker_0, # of connection points: 2
#     Edge 56, Type (0, 1), BuildingBlock: EZIPEK_clean_linker_0, # of connection points: 2
#     Edge 57, Type (0, 1), BuildingBlock: EZIPEK_clean_linker_0, # of connection points: 2
#     Edge 58, Type (0, 1), BuildingBlock: EZIPEK_clean_linker_0, # of connection points: 2
#     Edge 59, Type (0, 1), BuildingBlock: EZIPEK_clean_linker_0, # of connection points: 2
#     Edge 60, Type (0, 1), BuildingBlock: EZIPEK_clean_linker_0, # of connection points: 2
#     Edge 61, Type (0, 1), BuildingBlock: EZIPEK_clean_linker_0, # of connection points: 2
#     Edge 62, Type (0, 1), BuildingBlock: EZIPEK_clean_linker_0, # of connection points: 2
#     Edge 63, Type (0, 1), BuildingBlock: EZIPEK_clean_linker_0, # of connection points: 2
#     Edge 64, Type (0, 1), BuildingBlock: EZIPEK_clean_linker_0, # of connection points: 2
#     Edge 65, Type (0, 1), BuildingBlock: EZIPEK_clean_linker_0, # of connection points: 2
#     Edge 66, Type (0, 1), BuildingBlock: EZIPEK_clean_linker_0, # of connection points: 2
#     Edge 67, Type (0, 1), BuildingBlock: EZIPEK_clean_linker_0, # of connection points: 2
#     Edge 68, Type (0, 1), BuildingBlock: EZIPEK_clean_linker_0, # of connection points: 2
#     Edge 69, Type (0, 1), BuildingBlock: EZIPEK_clean_linker_0, # of connection points: 2
#     Edge 70, Type (0, 1), BuildingBlock: EZIPEK_clean_linker_0, # of connection points: 2
#     Edge 71, Type (0, 1), BuildingBlock: EZIPEK_clean_linker_0, # of connection points: 2
#     Edge 72, Type (0, 1), BuildingBlock: EZIPEK_clean_linker_0, # of connection points: 2
#     Edge 73, Type (0, 1), BuildingBlock: EZIPEK_clean_linker_0, # of connection points: 2
#     Edge 74, Type (0, 1), BuildingBlock: EZIPEK_clean_linker_0, # of connection points: 2
#     Edge 75, Type (0, 1), BuildingBlock: EZIPEK_clean_linker_0, # of connection points: 2
#     Edge 76, Type (0, 1), BuildingBlock: EZIPEK_clean_linker_0, # of connection points: 2
#     Edge 77, Type (0, 1), BuildingBlock: EZIPEK_clean_linker_0, # of connection points: 2
#     Edge 78, Type (0, 1), BuildingBlock: EZIPEK_clean_linker_0, # of connection points: 2
#     Edge 79, Type (0, 1), BuildingBlock: EZIPEK_clean_linker_0, # of connection points: 2
#     Edge 80, Type (0, 1), BuildingBlock: EZIPEK_clean_linker_0, # of connection points: 2
#     Edge 81, Type (0, 1), BuildingBlock: EZIPEK_clean_linker_0, # of connection points: 2
#     Edge 82, Type (0, 1), BuildingBlock: EZIPEK_clean_linker_0, # of connection points: 2
#     Edge 83, Type (0, 1), BuildingBlock: EZIPEK_clean_linker_0, # of connection points: 2
#     Edge 84, Type (0, 1), BuildingBlock: EZIPEK_clean_linker_0, # of connection points: 2
#     Edge 85, Type (0, 1), BuildingBlock: EZIPEK_clean_linker_0, # of connection points: 2
#     Edge 86, Type (0, 1), BuildingBlock: EZIPEK_clean_linker_0, # of connection points: 2
#     Edge 87, Type (0, 1), BuildingBlock: EZIPEK_clean_linker_0, # of connection points: 2
#     Edge 88, Type (0, 1), BuildingBlock: EZIPEK_clean_linker_0, # of connection points: 2
#     Edge 89, Type (0, 1), BuildingBlock: EZIPEK_clean_linker_0, # of connection points: 2
#     Edge 90, Type (0, 1), BuildingBlock: EZIPEK_clean_linker_0, # of connection points: 2
#     Edge 91, Type (0, 1), BuildingBlock: EZIPEK_clean_linker_0, # of connection points: 2
#     Edge 92, Type (0, 1), BuildingBlock: EZIPEK_clean_linker_0, # of connection points: 2
#     Edge 93, Type (0, 1), BuildingBlock: EZIPEK_clean_linker_0, # of connection points: 2
#     Edge 94, Type (0, 1), BuildingBlock: EZIPEK_clean_linker_0, # of connection points: 2
#     Edge 95, Type (0, 1), BuildingBlock: EZIPEK_clean_linker_0, # of connection points: 2
#     Edge 96, Type (0, 1), BuildingBlock: EZIPEK_clean_linker_0, # of connection points: 2
#     Edge 97, Type (0, 1), BuildingBlock: EZIPEK_clean_linker_0, # of connection points: 2
#     Edge 98, Type (0, 1), BuildingBlock: EZIPEK_clean_linker_0, # of connection points: 2
#     Edge 99, Type (0, 1), BuildingBlock: EZIPEK_clean_linker_0, # of connection points: 2
#     Edge 100, Type (0, 1), BuildingBlock: EZIPEK_clean_linker_0, # of connection points: 2
#     Edge 101, Type (0, 1), BuildingBlock: EZIPEK_clean_linker_0, # of connection points: 2
#     Edge 102, Type (0, 1), BuildingBlock: EZIPEK_clean_linker_0, # of connection points: 2
#     Edge 103, Type (0, 1), BuildingBlock: EZIPEK_clean_linker_0, # of connection points: 2
#     Edge 104, Type (0, 1), BuildingBlock: EZIPEK_clean_linker_0, # of connection points: 2
#     Edge 105, Type (0, 1), BuildingBlock: EZIPEK_clean_linker_0, # of connection points: 2
#     Edge 106, Type (0, 1), BuildingBlock: EZIPEK_clean_linker_0, # of connection points: 2
#     Edge 107, Type (0, 1), BuildingBlock: EZIPEK_clean_linker_0, # of connection points: 2
#     Edge 108, Type (0, 1), BuildingBlock: EZIPEK_clean_linker_0, # of connection points: 2
#     Edge 109, Type (0, 1), BuildingBlock: EZIPEK_clean_linker_0, # of connection points: 2
#     Edge 110, Type (0, 1), BuildingBlock: EZIPEK_clean_linker_0, # of connection points: 2
#     Edge 111, Type (0, 1), BuildingBlock: EZIPEK_clean_linker_0, # of connection points: 2
#     Edge 112, Type (0, 1), BuildingBlock: EZIPEK_clean_linker_0, # of connection points: 2
#     Edge 113, Type (0, 1), BuildingBlock: EZIPEK_clean_linker_0, # of connection points: 2
#     Edge 114, Type (0, 1), BuildingBlock: EZIPEK_clean_linker_0, # of connection points: 2
#     Edge 115, Type (0, 1), BuildingBlock: EZIPEK_clean_linker_0, # of connection points: 2
#     Edge 116, Type (0, 1), BuildingBlock: EZIPEK_clean_linker_0, # of connection points: 2
#     Edge 117, Type (0, 1), BuildingBlock: EZIPEK_clean_linker_0, # of connection points: 2
#     Edge 118, Type (0, 1), BuildingBlock: EZIPEK_clean_linker_0, # of connection points: 2
#     Edge 119, Type (0, 1), BuildingBlock: EZIPEK_clean_linker_0, # of connection points: 2
#     Edge 120, Type (0, 1), BuildingBlock: EZIPEK_clean_linker_0, # of connection points: 2
#     Edge 121, Type (0, 1), BuildingBlock: EZIPEK_clean_linker_0, # of connection points: 2
#     Edge 122, Type (0, 1), BuildingBlock: EZIPEK_clean_linker_0, # of connection points: 2
#     Edge 123, Type (0, 1), BuildingBlock: EZIPEK_clean_linker_0, # of connection points: 2
#     Edge 124, Type (0, 1), BuildingBlock: EZIPEK_clean_linker_0, # of connection points: 2
#     Edge 125, Type (0, 1), BuildingBlock: EZIPEK_clean_linker_0, # of connection points: 2
#     Edge 126, Type (0, 1), BuildingBlock: EZIPEK_clean_linker_0, # of connection points: 2
#     Edge 127, Type (0, 1), BuildingBlock: EZIPEK_clean_linker_0, # of connection points: 2
#     Edge 128, Type (0, 1), BuildingBlock: EZIPEK_clean_linker_0, # of connection points: 2
#     Edge 129, Type (0, 1), BuildingBlock: EZIPEK_clean_linker_0, # of connection points: 2
#     Edge 130, Type (0, 1), BuildingBlock: EZIPEK_clean_linker_0, # of connection points: 2
#     Edge 131, Type (0, 1), BuildingBlock: EZIPEK_clean_linker_0, # of connection points: 2
#     Edge 132, Type (0, 1), BuildingBlock: EZIPEK_clean_linker_0, # of connection points: 2
#     Edge 133, Type (0, 1), BuildingBlock: EZIPEK_clean_linker_0, # of connection points: 2
#     Edge 134, Type (0, 1), BuildingBlock: EZIPEK_clean_linker_0, # of connection points: 2
#     Edge 135, Type (0, 1), BuildingBlock: EZIPEK_clean_linker_0, # of connection points: 2
# Relax obj value: 0.098
# Max RMSD: 0.209
# Mean RMSD: 0.157
data_MOF--net-gar--node1-UXUYUI_clean_sbu_0--node2-KUMJIN_clean_sbu_1--edge1-EZIPEK_clean_linker_0
_symmetry_space_group_name_H-M    P1
_symmetry_Int_Tables_number       1
_symmetry_cell_setting            triclinic
loop_
_symmetry_equiv_pos_as_xyz
'x, y, z'
_cell_length_a     58.782993
_cell_length_b     58.783263
_cell_length_c     54.628326
_cell_angle_alpha  96.401508
_cell_angle_beta   96.369674
_cell_angle_gamma 101.64226
loop_
_atom_site_label
_atom_site_type_symbol
_atom_site_fract_x
_atom_site_fract_y
_atom_site_fract_z
_atom_type_partial_charge
Li0 Li 0.02544 0.31297 0.34503 0.0
Li1 Li 0.05331 0.3406 0.38209 0.0
Li2 Li 0.07484 0.31654 0.34778 0.0
Li3 Li 0.05031 0.29599 0.37829 0.0
C4 C 0.04801 0.35703 0.32934 0.0
N5 N 0.03706 0.38846 0.29843 0.0
C6 C 0.03569 0.37379 0.33742 0.0
C7 C 0.05482 0.35623 0.30562 0.0
C8 C 0.03031 0.38954 0.32149 0.0
C9 C 0.0491 0.37229 0.29024 0.0
C10 C 0.01007 0.31213 0.39832 0.0
C11 C 1.00023 0.30301 0.43836 0.0
N12 N 0.97876 0.30784 0.43259 0.0
C13 C 0.988 0.31726 0.39292 0.0
C14 C 0.01633 0.30515 0.42133 0.0
C15 C 0.97238 0.31488 0.41044 0.0
C16 C 0.97479 0.28894 0.33218 0.0
N17 N 0.99055 0.30833 0.32819 0.0
C18 C 0.95764 0.32308 0.30965 0.0
C19 C 0.9821 0.32516 0.31682 0.0
C20 C 0.94095 0.3036 0.31426 0.0
C21 C 0.95022 0.2863 0.3255 0.0
H22 H 0.98116 0.27576 0.34164 0.0
H23 H 0.99421 0.34075 0.31389 0.0
C24 C 0.06816 0.39165 0.40337 0.0
N25 N 0.05381 0.37064 0.40514 0.0
C26 C 0.06725 0.41237 0.41886 0.0
C27 C 0.03692 0.38994 0.43791 0.0
C28 C 0.03848 0.36975 0.42227 0.0
C29 C 0.05134 0.41175 0.43642 0.0
H30 H 0.08024 0.39247 0.38976 0.0
H31 H 0.02717 0.35339 0.42399 0.0
C32 C 0.04418 0.26785 0.32671 0.0
N33 N 0.04028 0.22561 0.29713 0.0
C34 C 0.05662 0.2515 0.3346 0.0
C35 C 0.02968 0.26273 0.30386 0.0
C36 C 0.05441 0.23023 0.31937 0.0
C37 C 0.02798 0.24128 0.28914 0.0
C38 C 0.09366 0.32177 0.40681 0.0
C39 C 0.11549 0.31609 0.40546 0.0
C40 C 0.08666 0.32714 0.42999 0.0
C41 C 0.12985 0.31548 0.42743 0.0
C42 C 0.10153 0.32634 0.45153 0.0
N43 N 0.12262 0.32055 0.44982 0.0
C44 C 0.12075 0.33113 0.32357 0.0
C45 C 0.11507 0.29351 0.33556 0.0
C46 C 0.14294 0.32893 0.31621 0.0
N47 N 0.10689 0.31357 0.33323 0.0
C48 C 0.13713 0.29067 0.32854 0.0
C49 C 0.15185 0.3085 0.31871 0.0
H50 H 0.11491 0.34727 0.32185 0.0
H51 H 0.10475 0.2796 0.34357 0.0
C52 C 0.02692 0.25509 0.39698 0.0
N53 N 0.04851 0.26855 0.39608 0.0
C54 C 0.02451 0.23546 0.40968 0.0
C55 C 0.06661 0.24309 0.41957 0.0
C56 C 0.06821 0.26267 0.4068 0.0
C57 C 0.04451 0.22936 0.42134 0.0
H58 H 0.01148 0.2597 0.38794 0.0
H59 H 0.08525 0.27299 0.4053 0.0
O60 O 0.05349 0.34151 0.34462 0.0
O61 O 0.02564 0.31442 0.38143 0.0
O62 O 0.04616 0.28887 0.34113 0.0
O63 O 0.07933 0.32238 0.38553 0.0
H64 H 0.03024 0.37452 0.35573 0.0
H65 H 0.06441 0.34334 0.29919 0.0
H66 H 0.02074 0.40259 0.32744 0.0
H67 H 0.05422 0.37189 0.27181 0.0
H68 H 1.00483 0.29757 0.45619 0.0
H69 H 0.98306 0.32332 0.37554 0.0
H70 H 0.03349 0.30157 0.42608 0.0
H71 H 0.95523 0.31874 0.40646 0.0
H72 H 0.95174 0.33699 0.30108 0.0
H73 H 0.93844 0.27096 0.32964 0.0
H74 H 0.07879 0.42878 0.41704 0.0
H75 H 0.02445 0.38851 0.45114 0.0
H76 H 0.06788 0.2552 0.35226 0.0
H77 H 0.01993 0.27525 0.29754 0.0
H78 H 0.06395 0.21739 0.32522 0.0
H79 H 0.0169 0.23711 0.27135 0.0
H80 H 0.12123 0.31208 0.38765 0.0
H81 H 0.06994 0.33189 0.43131 0.0
H82 H 0.14674 0.31097 0.42668 0.0
H83 H 0.09632 0.33037 0.46962 0.0
H84 H 0.15328 0.3434 0.30892 0.0
H85 H 0.14277 0.27457 0.33111 0.0
H86 H 1.00718 0.22513 0.41045 0.0
H87 H 0.08243 0.23874 0.42806 0.0
Li88 Li 0.02633 0.7736 0.68226 0.0
Li89 Li 0.04826 0.75717 0.71722 0.0
Li90 Li 0.01997 0.72867 0.68113 0.0
Li91 Li 0.99987 0.75491 0.71419 0.0
C92 C 0.06512 0.7558 0.66489 0.0
N93 N 0.09808 0.76181 0.63251 0.0
C94 C 0.08739 0.77001 0.67296 0.0
C95 C 0.05965 0.74454 0.6404 0.0
C96 C 0.10379 0.77286 0.6563 0.0
C97 C 0.07655 0.74784 0.6243 0.0
C98 C 0.03702 0.80025 0.73854 0.0
C99 C 0.03889 0.81601 0.78155 0.0
N100 N 0.05395 0.83572 0.77775 0.0
C101 C 0.05251 0.82063 0.73502 0.0
C102 C 0.03011 0.79786 0.76194 0.0
C103 C 0.06088 0.83838 0.7551 0.0
C104 C 0.01099 0.80613 0.65062 0.0
N105 N 0.03 0.80003 0.66265 0.0
C106 C 0.05548 0.83293 0.65022 0.0
C107 C 0.05198 0.81307 0.66258 0.0
C108 C 0.0362 0.83971 0.63788 0.0
C109 C 0.01371 0.8259 0.63799 0.0
H110 H 0.9936 0.79595 0.65119 0.0
H111 H 0.06685 0.80844 0.67267 0.0
C112 C 0.0927 0.74117 0.72799 0.0
N113 N 0.08252 0.75962 0.73432 0.0
C114 C 0.11701 0.74244 0.73481 0.0
C115 C 0.12074 0.78152 0.75524 0.0
C116 C 0.09632 0.77959 0.74795 0.0
C117 C 0.13172 0.7629 0.74848 0.0
H118 H 0.0821 0.72555 0.71669 0.0
H119 H 0.0887 0.79452 0.75251 0.0
C120 C 0.98029 0.74575 0.65508 0.0
N121 N 0.94864 0.739 0.61226 0.0
C122 C 0.95637 0.74331 0.65658 0.0
C123 C 0.98815 0.74481 0.63186 0.0
C124 C 0.94063 0.73989 0.6347 0.0
C125 C 0.97186 0.74139 0.61041 0.0
C126 C 0.02161 0.71441 0.73545 0.0
C127 C 0.01589 0.69027 0.72759 0.0
C128 C 0.02885 0.7229 0.76061 0.0
C129 C 0.01746 0.67491 0.74515 0.0
C130 C 0.03025 0.70697 0.77759 0.0
N131 N 0.02456 0.68351 0.76958 0.0
C132 C 0.03977 0.6897 0.66401 0.0
C133 C 1.00166 0.68588 0.64279 0.0
C134 C 0.04238 0.66906 0.64982 0.0
N135 N 0.01968 0.6979 0.6604 0.0
C136 C 1.00356 0.66506 0.62816 0.0
C137 C 0.02421 0.65636 0.63145 0.0
H138 H 0.05405 0.69941 0.67783 0.0
H139 H 0.98584 0.6925 0.63982 0.0
C140 C 0.96238 0.78038 0.73075 0.0
N141 N 0.96786 0.75869 0.72831 0.0
C142 C 0.94046 0.78385 0.73771 0.0
C143 C 0.92931 0.74284 0.74005 0.0
C144 C 0.95143 0.74008 0.73297 0.0
C145 C 0.92311 0.76498 0.74244 0.0
H146 H 0.9749 0.79528 0.72684 0.0
H147 H 0.95515 0.72273 0.73079 0.0
O148 O 0.04891 0.75255 0.68101 0.0
O149 O 0.02843 0.78278 0.71912 0.0
O150 O 0.9959 0.749 0.67629 0.0
O151 O 0.02021 0.72967 0.71854 0.0
H152 H 0.09189 0.77894 0.69182 0.0
H153 H 0.04261 0.73327 0.63391 0.0
H154 H 0.12107 0.78387 0.66228 0.0
H155 H 0.07255 0.73923 0.60529 0.0
H156 H 0.0337 0.81443 0.79979 0.0
H157 H 0.05801 0.82271 0.71701 0.0
H158 H 0.01805 0.78218 0.76488 0.0
H159 H 0.07287 0.85428 0.75267 0.0
H160 H 0.07307 0.84319 0.65071 0.0
H161 H 0.99839 0.83063 0.62878 0.0
H162 H 0.12439 0.72762 0.72888 0.0
H163 H 0.13114 0.79778 0.76554 0.0
H164 H 0.95003 0.744 0.67446 0.0
H165 H 1.00664 0.74686 0.63044 0.0
H166 H 0.92204 0.73793 0.63556 0.0
H167 H 0.97769 0.74065 0.59229 0.0
H168 H 0.0102 0.68347 0.70815 0.0
H169 H 0.03342 0.74158 0.76691 0.0
H170 H 0.01303 0.65617 0.73936 0.0
H171 H 0.03587 0.71324 0.79714 0.0
H172 H 0.05862 0.66315 0.65306 0.0
H173 H 0.9891 0.65595 0.61421 0.0
H174 H 0.93702 0.80133 0.73916 0.0
H175 H 0.91691 0.72753 0.7433 0.0
Li176 Li 0.52326 0.81303 0.84492 0.0
Li177 Li 0.5512 0.84049 0.88155 0.0
Li178 Li 0.57267 0.81665 0.84778 0.0
Li179 Li 0.54824 0.79653 0.87855 0.0
C180 C 0.54601 0.85596 0.82757 0.0
N181 N 0.53569 0.88539 0.79395 0.0
C182 C 0.53355 0.8731 0.83401 0.0
C183 C 0.55327 0.85377 0.80409 0.0
C184 C 0.52849 0.88781 0.81673 0.0
C185 C 0.54787 0.86882 0.78733 0.0
C186 C 0.51075 0.8168 0.9006 0.0
C187 C 0.50689 0.81647 0.94405 0.0
N188 N 0.48512 0.82101 0.93966 0.0
C189 C 0.48831 0.82138 0.89649 0.0
C190 C 0.52011 0.81427 0.92454 0.0
C191 C 0.47565 0.82348 0.91649 0.0
C192 C 0.4726 0.78896 0.83384 0.0
N193 N 0.48815 0.80789 0.82851 0.0
C194 C 0.45485 0.82144 0.809 0.0
C195 C 0.47941 0.82392 0.81604 0.0
C196 C 0.4384 0.80238 0.81483 0.0
C197 C 0.44796 0.78592 0.82727 0.0
H198 H 0.47921 0.77645 0.8442 0.0
H199 H 0.49134 0.83919 0.81208 0.0
C200 C 0.57076 0.88275 0.91954 0.0
N201 N 0.55123 0.86987 0.90451 0.0
C202 C 0.56949 0.90246 0.93629 0.0
C203 C 0.52815 0.89563 0.92208 0.0
C204 C 0.53022 0.87623 0.90552 0.0
C205 C 0.5479 0.90907 0.93785 0.0
H206 H 0.58739 0.87768 0.91873 0.0
H207 H 0.51485 0.86618 0.89344 0.0
C208 C 0.54318 0.76799 0.82719 0.0
N209 N 0.54178 0.72617 0.79792 0.0
C210 C 0.55697 0.75276 0.83519 0.0
C211 C 0.52866 0.762 0.80437 0.0
C212 C 0.55598 0.73166 0.82012 0.0
C213 C 0.52824 0.74079 0.78979 0.0
C214 C 0.59278 0.82021 0.90512 0.0
C215 C 0.61221 0.81074 0.90089 0.0
C216 C 0.58959 0.82769 0.92945 0.0
C217 C 0.62797 0.80858 0.92116 0.0
C218 C 0.60574 0.82523 0.94922 0.0
N219 N 0.62443 0.81579 0.9447 0.0
C220 C 0.62472 0.832 0.84109 0.0
C221 C 0.6074 0.79502 0.8186 0.0
C222 C 0.6472 0.82991 0.8346 0.0
N223 N 0.60496 0.81465 0.83332 0.0
C224 C 0.62955 0.79226 0.81171 0.0
C225 C 0.65029 0.8097 0.81978 0.0
H226 H 0.62338 0.84745 0.85312 0.0
H227 H 0.59221 0.78094 0.81246 0.0
C228 C 0.52348 0.75911 0.90063 0.0
N229 N 0.54546 0.76975 0.89706 0.0
C230 C 0.52004 0.73999 0.91402 0.0
C231 C 0.56182 0.74248 0.91934 0.0
C232 C 0.56447 0.76159 0.90587 0.0
C233 C 0.53938 0.73159 0.9237 0.0
H234 H 0.50855 0.76552 0.89311 0.0
H235 H 0.5817 0.7697 0.90231 0.0
O236 O 0.55126 0.84148 0.84421 0.0
O237 O 0.52343 0.81469 0.88126 0.0
O238 O 0.54405 0.78887 0.84138 0.0
O239 O 0.57732 0.82271 0.8855 0.0
H240 H 0.52778 0.87495 0.8521 0.0
H241 H 0.56297 0.84057 0.7989 0.0
H242 H 0.51882 0.90114 0.82143 0.0
H243 H 0.55337 0.86735 0.76907 0.0
H244 H 0.51391 0.81452 0.96267 0.0
H245 H 0.48085 0.82356 0.87812 0.0
H246 H 0.5373 0.81041 0.92798 0.0
H247 H 0.4583 0.82712 0.9136 0.0
H248 H 0.44871 0.83476 0.79955 0.0
H249 H 0.43637 0.77098 0.83245 0.0
H250 H 0.5852 0.91238 0.94803 0.0
H251 H 0.51121 0.90014 0.9225 0.0
H252 H 0.56847 0.7573 0.8527 0.0
H253 H 0.51795 0.7737 0.79793 0.0
H254 H 0.56657 0.71968 0.82603 0.0
H255 H 0.51717 0.73595 0.77202 0.0
H256 H 0.61493 0.80482 0.88219 0.0
H257 H 0.5749 0.83545 0.93303 0.0
H258 H 0.643 0.80114 0.91817 0.0
H259 H 0.60346 0.83089 0.96815 0.0
H260 H 0.66227 0.84395 0.84166 0.0
H261 H 0.6305 0.77622 0.80041 0.0
H262 H 0.50247 0.73188 0.91688 0.0
H263 H 0.5771 0.73628 0.92634 0.0
Li264 Li 0.52765 0.27287 0.18444 0.0
Li265 Li 0.55087 0.25781 0.21939 0.0
Li266 Li 0.52177 0.22836 0.18371 0.0
Li267 Li 0.50188 0.25487 0.21662 0.0
C268 C 0.56532 0.25431 0.16509 0.0
N269 N 0.59486 0.25827 0.12909 0.0
C270 C 0.58854 0.26683 0.17125 0.0
C271 C 0.55718 0.24368 0.14066 0.0
C272 C 0.60318 0.26868 0.15277 0.0
C273 C 0.57237 0.24591 0.12272 0.0
C274 C 0.53871 0.30255 0.23755 0.0
C275 C 0.53887 0.32555 0.27697 0.0
N276 N 0.55544 0.34295 0.27088 0.0
C277 C 0.55576 0.32059 0.23166 0.0
C278 C 0.53018 0.30498 0.26035 0.0
C279 C 0.56398 0.34091 0.24878 0.0
C280 C 0.51103 0.30746 0.15789 0.0
N281 N 0.53024 0.29874 0.16468 0.0
C282 C 0.55423 0.3277 0.14537 0.0
C283 C 0.55163 0.30872 0.15893 0.0
C284 C 0.53474 0.3369 0.13798 0.0
C285 C 0.51291 0.3267 0.14454 0.0
H286 H 0.49426 0.29964 0.16305 0.0
H287 H 0.56685 0.30231 0.16526 0.0
C288 C 0.59698 0.24511 0.22742 0.0
N289 N 0.58551 0.26181 0.23604 0.0
C290 C 0.62152 0.24763 0.23376 0.0
C291 C 0.62284 0.28408 0.25892 0.0
C292 C 0.59821 0.28108 0.25178 0.0
C293 C 0.63523 0.26749 0.24949 0.0
H294 H 0.58723 0.23005 0.2146 0.0
H295 H 0.58949 0.29463 0.25838 0.0
C296 C 0.48118 0.24629 0.15852 0.0
N297 N 0.44815 0.24231 0.1173 0.0
C298 C 0.45737 0.2426 0.16105 0.0
C299 C 0.48823 0.24804 0.13508 0.0
C300 C 0.44093 0.24059 0.13996 0.0
C301 C 0.47125 0.24598 0.11446 0.0
C302 C 0.52215 0.21396 0.23752 0.0
C303 C 0.51228 0.19036 0.22891 0.0
C304 C 0.53134 0.22088 0.26255 0.0
C305 C 0.51173 0.17398 0.24561 0.0
C306 C 0.53047 0.20396 0.27867 0.0
N307 N 0.52077 0.18106 0.26993 0.0
C308 C 0.54111 0.18981 0.16268 0.0
C309 C 0.50081 0.18457 0.14813 0.0
C310 C 0.54232 0.16903 0.14765 0.0
N311 N 0.5206 0.19738 0.16275 0.0
C312 C 0.50122 0.16356 0.13297 0.0
C313 C 0.5222 0.15543 0.13246 0.0
H314 H 0.55679 0.20012 0.17414 0.0
H315 H 0.48465 0.19071 0.14802 0.0
C316 C 0.46414 0.28074 0.23036 0.0
N317 N 0.47019 0.2594 0.23072 0.0
C318 C 0.44232 0.28472 0.23708 0.0
C319 C 0.43242 0.24495 0.24485 0.0
C320 C 0.45445 0.24166 0.23795 0.0
C321 C 0.42564 0.26673 0.24441 0.0
H322 H 0.47611 0.29489 0.22435 0.0
H323 H 0.45863 0.22456 0.23799 0.0
O324 O 0.55072 0.25226 0.18294 0.0
O325 O 0.5303 0.28257 0.2211 0.0
O326 O 0.49746 0.24824 0.17897 0.0
O327 O 0.52309 0.23018 0.22144 0.0
H328 H 0.59508 0.27543 0.18999 0.0
H329 H 0.53938 0.23367 0.13561 0.0
H330 H 0.62113 0.27845 0.15725 0.0
H331 H 0.56629 0.23777 0.10373 0.0
H332 H 0.53244 0.32769 0.2947 0.0
H333 H 0.56259 0.31889 0.21411 0.0
H334 H 0.51697 0.2911 0.26512 0.0
H335 H 0.57716 0.35506 0.24449 0.0
H336 H 0.57139 0.33536 0.14094 0.0
H337 H 0.49754 0.33352 0.13934 0.0
H338 H 0.62986 0.2342 0.22594 0.0
H339 H 0.63226 0.29965 0.27122 0.0
H340 H 0.45165 0.24121 0.17908 0.0
H341 H 0.5066 0.25121 0.13288 0.0
H342 H 0.42243 0.23767 0.14162 0.0
H343 H 0.47645 0.24736 0.0962 0.0
H344 H 0.50513 0.18478 0.20954 0.0
H345 H 0.53912 0.23912 0.2694 0.0
H346 H 0.50415 0.15564 0.23924 0.0
H347 H 0.53753 0.20903 0.2981 0.0
H348 H 0.5589 0.16365 0.14785 0.0
H349 H 0.48527 0.15378 0.12152 0.0
H350 H 0.43842 0.30187 0.23628 0.0
H351 H 0.42055 0.23031 0.25018 0.0
Li352 Li 0.07005 0.82298 0.09895 0.0
Li353 Li 0.09444 0.80274 0.1321 0.0
Li354 Li 0.06608 0.77383 0.09579 0.0
Li355 Li 0.04987 0.79685 0.13049 0.0
C356 C 0.11127 0.80429 0.07966 0.0
N357 N 0.14631 0.81005 0.04976 0.0
C358 C 0.13153 0.82183 0.08707 0.0
C359 C 0.10873 0.78973 0.05705 0.0
C360 C 0.1491 0.82443 0.07169 0.0
C361 C 0.12666 0.79293 0.04218 0.0
C362 C 0.07906 0.8438 0.15718 0.0
C363 C 0.07642 0.85579 0.20028 0.0
N364 N 0.08723 0.87806 0.19804 0.0
C365 C 0.09016 0.86679 0.15531 0.0
C366 C 0.0721 0.83824 0.17983 0.0
C367 C 0.09412 0.88386 0.17617 0.0
C368 C 0.04645 0.85861 0.07442 0.0
N369 N 0.0678 0.85494 0.08402 0.0
C370 C 0.08484 0.8956 0.07913 0.0
C371 C 0.08686 0.87325 0.08605 0.0
C372 C 0.063 0.89996 0.06939 0.0
C373 C 0.04377 0.88054 0.0669 0.0
H374 H 0.03107 0.84462 0.07303 0.0
H375 H 0.10386 0.87091 0.0938 0.0
C376 C 0.14219 0.79523 0.14359 0.0
N377 N 0.12486 0.80367 0.15382 0.0
C378 C 0.16275 0.79328 0.15848 0.0
C379 C 0.14744 0.80817 0.19453 0.0
C380 C 0.12743 0.81038 0.1789 0.0
C381 C 0.16557 0.79944 0.18449 0.0
H382 H 0.13993 0.7895 0.12379 0.0
H383 H 0.1137 0.81699 0.18703 0.0
C384 C 0.02224 0.78632 0.07614 0.0
N385 N 0.98303 0.76947 0.04116 0.0
C386 C 1.00274 0.77121 0.08221 0.0
C387 C 0.02186 0.79284 0.0523 0.0
C388 C 0.98307 0.76288 0.06426 0.0
C389 C 1.00185 0.78414 0.03487 0.0
C390 C 0.06848 0.75925 0.15033 0.0
C391 C 0.06162 0.73493 0.14385 0.0
C392 C 0.07338 0.7688 0.1754 0.0
C393 C 0.05978 0.72058 0.16259 0.0
C394 C 0.07137 0.75388 0.19361 0.0
N395 N 0.06466 0.73028 0.18689 0.0
C396 C 0.08142 0.73007 0.0772 0.0
C397 C 0.04034 0.72462 0.07352 0.0
C398 C 0.07953 0.70561 0.0706 0.0
N399 N 0.06201 0.73941 0.0788 0.0
C400 C 0.03771 0.70004 0.06701 0.0
C401 C 0.05745 0.68988 0.06574 0.0
H402 H 0.09863 0.74147 0.08207 0.0
H403 H 0.0249 0.73164 0.07551 0.0
C404 C 0.01433 0.81267 0.15622 0.0
N405 N 0.02319 0.79359 0.14928 0.0
C406 C 0.99435 0.81036 0.16844 0.0
C407 C 0.99279 0.76884 0.16614 0.0
C408 C 0.01284 0.77194 0.1541 0.0
C409 C 0.98317 0.78815 0.17327 0.0
H410 H 0.02257 0.82967 0.15195 0.0
H411 H 0.01975 0.75689 0.14803 0.0
O412 O 0.094 0.80118 0.0945 0.0
O413 O 0.07443 0.82703 0.13674 0.0
O414 O 0.04159 0.79484 0.09346 0.0
O415 O 0.07022 0.77361 0.13222 0.0
H416 H 0.1337 0.8332 0.10457 0.0
H417 H 0.09307 0.77611 0.05109 0.0
H418 H 0.16495 0.83786 0.0772 0.0
H419 H 0.12496 0.78179 0.02463 0.0
H420 H 0.07108 0.85172 0.2179 0.0
H421 H 0.09562 0.87141 0.13795 0.0
H422 H 0.06319 0.82065 0.18156 0.0
H423 H 0.10263 0.90175 0.17496 0.0
H424 H 0.10037 0.90959 0.08177 0.0
H425 H 0.02645 0.88245 0.05966 0.0
H426 H 0.17617 0.78652 0.14979 0.0
H427 H 0.1487 0.81318 0.2144 0.0
H428 H 1.00282 0.76592 0.10055 0.0
H429 H 0.03687 0.80451 0.04735 0.0
H430 H 0.96784 0.75116 0.06868 0.0
H431 H 1.00127 0.78907 0.01635 0.0
H432 H 0.05768 0.72714 0.12461 0.0
H433 H 0.0786 0.7875 0.18077 0.0
H434 H 0.05448 0.70174 0.15781 0.0
H435 H 0.07511 0.76108 0.2131 0.0
H436 H 0.09537 0.69894 0.07002 0.0
H437 H 0.02027 0.68892 0.06366 0.0
H438 H 0.98737 0.82565 0.17359 0.0
H439 H 0.98457 0.75143 0.16941 0.0
Li440 Li 0.50837 0.79767 0.46777 0.0
Li441 Li 0.48027 0.76929 0.43095 0.0
Li442 Li 0.50569 0.74843 0.46494 0.0
Li443 Li 0.52466 0.77351 0.43385 0.0
C444 C 0.46566 0.77481 0.48493 0.0
N445 N 0.43601 0.78613 0.51787 0.0
C446 C 0.44833 0.78676 0.47768 0.0
C447 C 0.46794 0.76854 0.50886 0.0
C448 C 0.43351 0.79236 0.49463 0.0
C449 C 0.45276 0.77444 0.52526 0.0
C450 C 0.51351 0.81141 0.41409 0.0
C451 C 0.52111 0.81557 0.37215 0.0
N452 N 0.53011 0.83887 0.37928 0.0
C453 C 0.52298 0.83536 0.42105 0.0
C454 C 0.51258 0.80142 0.38946 0.0
C455 C 0.53119 0.84896 0.40315 0.0
C456 C 0.53185 0.84603 0.49725 0.0
N457 N 0.51128 0.83232 0.48475 0.0
C458 C 0.49457 0.8672 0.48649 0.0
C459 C 0.49278 0.84277 0.47959 0.0
C460 C 0.51562 0.88182 0.49906 0.0
C461 C 0.53429 0.87054 0.50466 0.0
H462 H 0.54688 0.83828 0.50074 0.0
H463 H 0.47669 0.83236 0.46902 0.0
C464 C 0.43001 0.75222 0.40692 0.0
N465 N 0.45012 0.76906 0.40872 0.0
C466 C 0.40937 0.75366 0.39166 0.0
C467 C 0.43021 0.78947 0.37993 0.0
C468 C 0.45026 0.78752 0.39556 0.0
C469 C 0.40921 0.77252 0.37778 0.0
H470 H 0.42982 0.73771 0.41752 0.0
H471 H 0.46592 0.80112 0.39731 0.0
C472 C 0.55379 0.77889 0.48553 0.0
N473 N 0.59563 0.78179 0.51541 0.0
C474 C 0.57115 0.76858 0.47643 0.0
C475 C 0.55764 0.79064 0.5098 0.0
C476 C 0.59221 0.77024 0.49185 0.0
C477 C 0.57893 0.79192 0.52462 0.0
C478 C 0.49914 0.72784 0.4072 0.0
C479 C 0.50965 0.70884 0.41021 0.0
C480 C 0.48835 0.73005 0.38373 0.0
C481 C 0.50945 0.69247 0.38954 0.0
C482 C 0.48855 0.71333 0.36352 0.0
N483 N 0.49902 0.69505 0.36681 0.0
C484 C 0.49054 0.70057 0.48548 0.0
C485 C 0.5304 0.70986 0.48082 0.0
C486 C 0.49295 0.67837 0.49272 0.0
N487 N 0.50911 0.71625 0.47951 0.0
C488 C 0.53348 0.68783 0.48779 0.0
C489 C 0.51466 0.67129 0.49387 0.0
H490 H 0.47347 0.70493 0.48426 0.0
H491 H 0.54524 0.72163 0.47578 0.0
C492 C 0.5683 0.79708 0.4205 0.0
N493 N 0.55159 0.77681 0.41472 0.0
C494 C 0.58785 0.801 0.40766 0.0
C495 C 0.57306 0.7631 0.38313 0.0
C496 C 0.55377 0.75991 0.3964 0.0
C497 C 0.59036 0.78391 0.38864 0.0
H498 H 0.56638 0.81033 0.43507 0.0
H499 H 0.54059 0.74392 0.39183 0.0
O500 O 0.48031 0.76916 0.46865 0.0
O501 O 0.50513 0.79782 0.43127 0.0
O502 O 0.53307 0.77758 0.47083 0.0
O503 O 0.499 0.74395 0.4272 0.0
H504 H 0.44637 0.79167 0.45916 0.0
H505 H 0.48129 0.75924 0.51467 0.0
H506 H 0.42001 0.80164 0.48931 0.0
H507 H 0.45429 0.76972 0.54386 0.0
H508 H 0.52055 0.80805 0.35304 0.0
H509 H 0.52391 0.84343 0.44001 0.0
H510 H 0.50543 0.7829 0.38381 0.0
H511 H 0.53843 0.86755 0.40825 0.0
H512 H 0.47966 0.87475 0.48139 0.0
H513 H 0.55102 0.88079 0.514 0.0
H514 H 0.39362 0.74019 0.39076 0.0
H515 H 0.43103 0.80436 0.36978 0.0
H516 H 0.56836 0.7593 0.45772 0.0
H517 H 0.54428 0.79861 0.51711 0.0
H518 H 0.60582 0.76234 0.48508 0.0
H519 H 0.58217 0.80096 0.54345 0.0
H520 H 0.518 0.70684 0.42825 0.0
H521 H 0.47984 0.74447 0.38117 0.0
H522 H 0.5176 0.67772 0.39156 0.0
H523 H 0.48034 0.71485 0.34522 0.0
H524 H 0.47769 0.6666 0.49702 0.0
H525 H 0.55063 0.68366 0.48818 0.0
H526 H 0.60082 0.81731 0.4124 0.0
H527 H 0.57439 0.74953 0.36857 0.0
Li528 Li 0.56855 0.32005 0.59655 0.0
Li529 Li 0.59171 0.29936 0.63057 0.0
Li530 Li 0.564 0.27043 0.59368 0.0
Li531 Li 0.54706 0.29427 0.62715 0.0
C532 C 0.60984 0.30031 0.57849 0.0
N533 N 0.64494 0.30488 0.54861 0.0
C534 C 0.63196 0.31431 0.58766 0.0
C535 C 0.60551 0.28864 0.55418 0.0
C536 C 0.6495 0.31639 0.57225 0.0
C537 C 0.6235 0.29118 0.53934 0.0
C538 C 0.57809 0.34147 0.65391 0.0
C539 C 0.57563 0.35668 0.69616 0.0
N540 N 0.58967 0.37737 0.6933 0.0
C541 C 0.59251 0.36285 0.65137 0.0
C542 C 0.56956 0.33832 0.67646 0.0
C543 C 0.59816 0.38079 0.67151 0.0
C544 C 0.54468 0.35691 0.57541 0.0
N545 N 0.56634 0.35222 0.58184 0.0
C546 C 0.58354 0.39192 0.57384 0.0
C547 C 0.58562 0.36961 0.58094 0.0
C548 C 0.56138 0.39724 0.56721 0.0
C549 C 0.54187 0.37884 0.56798 0.0
H550 H 0.52918 0.34376 0.57654 0.0
H551 H 0.6029 0.36657 0.58636 0.0
C552 C 0.62406 0.27856 0.66051 0.0
N553 N 0.62138 0.29961 0.6536 0.0
C554 C 0.64338 0.27682 0.67736 0.0
C555 C 0.65847 0.31815 0.67866 0.0
C556 C 0.63833 0.31928 0.66241 0.0
C557 C 0.6612 0.29671 0.68672 0.0
H558 H 0.61111 0.26283 0.653 0.0
H559 H 0.63633 0.33593 0.65682 0.0
C560 C 0.51892 0.284 0.57529 0.0
N561 N 0.47613 0.26814 0.54572 0.0
C562 C 0.50169 0.26699 0.58254 0.0
C563 C 0.51448 0.29289 0.55299 0.0
C564 C 0.48014 0.25921 0.56733 0.0
C565 C 0.49271 0.28466 0.5383 0.0
C566 C 0.56412 0.25789 0.64956 0.0
C567 C 0.557 0.23346 0.64506 0.0
C568 C 0.56881 0.26929 0.67401 0.0
C569 C 0.55452 0.22083 0.66515 0.0
C570 C 0.56613 0.25604 0.6936 0.0
N571 N 0.55909 0.23229 0.6888 0.0
C572 C 0.57945 0.22688 0.57299 0.0
C573 C 0.53878 0.22051 0.57406 0.0
C574 C 0.57773 0.20244 0.56612 0.0
N575 N 0.56016 0.23576 0.57703 0.0
C576 C 0.53634 0.19596 0.56738 0.0
C577 C 0.55598 0.18625 0.56352 0.0
H578 H 0.59653 0.23863 0.57596 0.0
H579 H 0.52351 0.22713 0.57794 0.0
C580 C 0.51055 0.31153 0.64928 0.0
N581 N 0.52001 0.29231 0.64534 0.0
C582 C 0.49135 0.31088 0.66257 0.0
C583 C 0.49173 0.27066 0.66742 0.0
C584 C 0.51065 0.27197 0.65376 0.0
C585 C 0.48194 0.29032 0.67216 0.0
H586 H 0.51802 0.32746 0.64222 0.0
H587 H 0.51776 0.25662 0.64986 0.0
O588 O 0.59252 0.2978 0.5933 0.0
O589 O 0.57189 0.32395 0.63418 0.0
O590 O 0.54014 0.29189 0.58983 0.0
O591 O 0.56675 0.27056 0.63015 0.0
H592 H 0.63552 0.32344 0.60647 0.0
H593 H 0.58844 0.2777 0.5469 0.0
H594 H 0.66674 0.32713 0.57907 0.0
H595 H 0.62043 0.28225 0.52048 0.0
H596 H 0.5691 0.35452 0.7137 0.0
H597 H 0.59923 0.36555 0.63403 0.0
H598 H 0.55819 0.32199 0.67868 0.0
H599 H 0.60927 0.39746 0.66981 0.0
H600 H 0.59932 0.40514 0.57395 0.0
H601 H 0.52432 0.38156 0.56333 0.0
H602 H 0.6445 0.2599 0.68287 0.0
H603 H 0.67169 0.33402 0.68517 0.0
H604 H 0.50496 0.2598 0.59964 0.0
H605 H 0.52775 0.30593 0.54705 0.0
H606 H 0.46661 0.24606 0.57269 0.0
H607 H 0.48901 0.29138 0.52098 0.0
H608 H 0.55345 0.22434 0.62628 0.0
H609 H 0.57469 0.28813 0.67779 0.0
H610 H 0.54899 0.20192 0.66195 0.0
H611 H 0.56972 0.26463 0.71261 0.0
H612 H 0.5935 0.19616 0.56349 0.0
H613 H 0.51917 0.18453 0.56584 0.0
H614 H 0.48417 0.32636 0.66572 0.0
H615 H 0.48483 0.25444 0.67431 0.0
Li616 Li 0.0094 0.30104 0.96856 0.0
Li617 Li 0.9801 0.27212 0.933 0.0
Li618 Li 1.00707 0.25229 0.96584 0.0
Li619 Li 0.02427 0.27646 0.93354 0.0
C620 C 0.96741 0.2775 0.98778 0.0
N621 N 0.93789 0.28665 0.02176 0.0
C622 C 0.95046 0.29034 0.98201 0.0
C623 C 0.96939 0.26926 0.01077 0.0
C624 C 0.9357 0.29482 0.99946 0.0
C625 C 0.95427 0.27407 0.02771 0.0
C626 C 1.0079 0.31303 0.91265 0.0
C627 C 1.00678 0.31469 0.86866 0.0
N628 N 0.01435 0.33839 0.87343 0.0
C629 C 0.01579 0.33737 0.91715 0.0
C630 C 1.00337 0.30156 0.88825 0.0
C631 C 0.01886 0.3499 0.89705 0.0
C632 C 0.03466 0.34939 0.99619 0.0
N633 N 0.01346 0.33591 0.98501 0.0
C634 C 0.99749 0.37122 0.98772 0.0
C635 C 0.99503 0.34668 0.98095 0.0
C636 C 0.01918 0.38559 0.99898 0.0
C637 C 0.0378 0.374 0.00339 0.0
H638 H 0.04957 0.34131 0.99881 0.0
H639 H 0.97841 0.33642 0.97141 0.0
C640 C 0.93457 0.25168 0.89963 0.0
N641 N 0.9494 0.27161 0.91193 0.0
C642 C 0.91409 0.2528 0.88396 0.0
C643 C 0.92376 0.29477 0.89425 0.0
C644 C 0.94415 0.29291 0.90942 0.0
C645 C 0.90834 0.27459 0.88099 0.0
H646 H 0.93874 0.23482 0.90161 0.0
H647 H 0.95597 0.30866 0.91912 0.0
C648 C 0.05416 0.28158 0.98621 0.0
N649 N 0.09405 0.28258 0.01855 0.0
C650 C 0.07196 0.27135 0.97805 0.0
C651 C 0.05661 0.29232 0.01078 0.0
C652 C 0.092 0.27203 0.9947 0.0
C653 C 0.07693 0.29265 0.02685 0.0
C654 C 1.00035 0.23064 0.90879 0.0
C655 C 0.01458 0.21457 0.91223 0.0
C656 C 0.98735 0.22978 0.88554 0.0
C657 C 0.01554 0.19783 0.89231 0.0
C658 C 0.98882 0.21282 0.86608 0.0
N659 N 1.00275 0.19731 0.86985 0.0
C660 C 0.99279 0.20549 0.98785 0.0
C661 C 0.03227 0.21425 0.9815 0.0
C662 C 0.99535 0.18344 0.99526 0.0
N663 N 0.01108 0.22078 0.98091 0.0
C664 C 0.0355 0.19236 0.98864 0.0
C665 C 0.01693 0.17618 0.99561 0.0
H666 H 0.97581 0.21003 0.9872 0.0
H667 H 0.04683 0.22568 0.97562 0.0
C668 C 0.06986 0.29619 0.92299 0.0
N669 N 0.05015 0.27969 0.91339 0.0
C670 C 0.0896 0.29931 0.91047 0.0
C671 C 0.06846 0.26886 0.87789 0.0
C672 C 0.04911 0.26629 0.89106 0.0
C673 C 0.08907 0.28546 0.88768 0.0
H674 H 0.07032 0.30687 0.94058 0.0
H675 H 0.03332 0.25361 0.88329 0.0
O676 O 0.98188 0.27276 0.97092 0.0
O677 O 1.00457 0.30047 0.93203 0.0
O678 O 0.03448 0.2813 0.97023 0.0
O679 O 0.99876 0.24683 0.92818 0.0
H680 H 0.94871 0.29677 0.96424 0.0
H681 H 0.98242 0.25922 0.01542 0.0
H682 H 0.92248 0.30475 0.99527 0.0
H683 H 0.95556 0.2678 0.04559 0.0
H684 H 1.00339 0.30604 0.84967 0.0
H685 H 0.01944 0.34652 0.93594 0.0
H686 H 0.99736 0.28272 0.88451 0.0
H687 H 0.02485 0.36877 0.90024 0.0
H688 H 0.98257 0.37903 0.98359 0.0
H689 H 0.05497 0.38406 0.01172 0.0
H690 H 0.90287 0.23674 0.87411 0.0
H691 H 0.9202 0.31196 0.89263 0.0
H692 H 0.07025 0.26285 0.95912 0.0
H693 H 0.04295 0.30031 0.01733 0.0
H694 H 0.10591 0.26414 0.98867 0.0
H695 H 0.07909 0.3009 0.04592 0.0
H696 H 0.02483 0.21505 0.93003 0.0
H697 H 0.97633 0.24214 0.8825 0.0
H698 H 0.02647 0.18526 0.89472 0.0
H699 H 0.97888 0.21199 0.84798 0.0
H700 H 0.98029 0.17188 1.00024 0.0
H701 H 0.0525 0.18797 0.98831 0.0
H702 H 0.10516 0.31242 0.91848 0.0
H703 H 0.06738 0.25801 0.86025 0.0
Li704 Li 0.40644 0.0228 0.32735 0.0
Li705 Li 0.37281 0.99912 0.30057 0.0
Li706 Li 0.40074 0.02581 0.28289 0.0
Li707 Li 0.37362 0.03891 0.31082 0.0
C708 C 0.41184 0.97876 0.30528 0.0
N709 N 0.42292 0.93761 0.31758 0.0
C710 C 0.40407 0.96946 0.32611 0.0
C711 C 0.42524 0.96716 0.29074 0.0
C712 C 0.40986 0.94863 0.33201 0.0
C713 C 0.43066 0.94638 0.29726 0.0
C714 C 0.35779 0.01256 0.35021 0.0
C715 C 0.31888 0.01198 0.36067 0.0
N716 N 0.3256 0.00638 0.38346 0.0
C717 C 0.36427 0.00667 0.37369 0.0
C718 C 0.33488 0.01514 0.3436 0.0
C719 C 0.34776 1.00367 0.39025 0.0
C720 C 0.42546 0.03659 0.37663 0.0
N721 N 0.42893 0.02513 0.35484 0.0
C722 C 0.4639 0.01619 0.37381 0.0
C723 C 0.4478 0.0153 0.3529 0.0
C724 C 0.46035 0.02737 0.3966 0.0
C725 C 0.44111 0.03787 0.39805 0.0
H726 H 0.41035 0.04441 0.37736 0.0
H727 H 0.4503 0.00668 0.3352 0.0
C728 C 0.35892 0.95577 0.27271 0.0
N729 N 0.35482 0.96853 0.29344 0.0
C730 C 0.34882 0.93198 0.2674 0.0
C731 C 0.32978 0.93526 0.30442 0.0
C732 C 0.34028 0.95899 0.30902 0.0
C733 C 0.33458 0.92163 0.28376 0.0
H734 H 0.37079 0.96394 0.26089 0.0
H735 H 0.33755 0.96944 0.32547 0.0
C736 C 0.42862 0.0672 0.31337 0.0
N737 N 0.47083 0.099 0.31717 0.0
C738 C 0.42918 0.09122 0.31554 0.0
C739 C 0.44947 0.05931 0.31295 0.0
C740 C 0.4507 0.10703 0.31742 0.0
C741 C 0.47066 0.07568 0.31501 0.0
C742 C 0.34884 0.00719 0.25936 0.0
C743 C 0.35286 1.00277 0.23471 0.0
C744 C 0.32696 0.99759 0.26596 0.0
C745 C 0.33521 0.9883 0.21726 0.0
C746 C 0.30978 0.98317 0.24799 0.0
N747 N 0.31423 0.97884 0.22422 0.0
C748 C 0.41499 0.00752 0.24149 0.0
C749 C 0.43068 0.04854 0.24995 0.0
C750 C 0.42728 1.0056 0.22138 0.0
N751 N 0.41692 0.02866 0.25529 0.0
C752 C 0.44369 0.04737 0.23007 0.0
C753 C 0.44196 0.02561 0.21568 0.0
H754 H 0.40401 0.99206 0.24637 0.0
H755 H 0.43197 0.06512 0.26135 0.0
C756 C 0.36671 0.08122 0.33393 0.0
N757 N 0.35702 0.06173 0.31737 0.0
C758 C 0.35638 0.10059 0.33447 0.0
C759 C 0.32544 0.07824 0.3026 0.0
C760 C 0.33649 0.05958 0.30243 0.0
C761 C 0.33609 0.09925 0.31784 0.0
H762 H 0.38325 0.08226 0.34534 0.0
H763 H 0.32953 0.04395 0.28929 0.0
O764 O 0.4062 0.99898 0.29889 0.0
O765 O 0.37395 0.01592 0.334 0.0
O766 O 0.40766 0.0516 0.31151 0.0
O767 O 0.36601 0.02133 0.27668 0.0
H768 H 0.39364 0.97817 0.33756 0.0
H769 H 0.43144 0.97418 0.2746 0.0
H770 H 0.40391 0.94117 0.34801 0.0
H771 H 0.44104 0.93723 0.28617 0.0
H772 H 0.30111 0.01396 0.35578 0.0
H773 H 0.38184 1.00434 0.37905 0.0
H774 H 0.32944 0.01942 0.3255 0.0
H775 H 0.35257 0.99915 0.40849 0.0
H776 H 0.47875 0.00805 0.37237 0.0
H777 H 0.43814 0.04663 0.41556 0.0
H778 H 0.35284 0.9216 0.25144 0.0
H779 H 0.31893 0.9274 0.31736 0.0
H780 H 0.41314 0.09758 0.31564 0.0
H781 H 0.44924 0.04075 0.31077 0.0
H782 H 0.4514 0.12568 0.31906 0.0
H783 H 0.48696 0.06985 0.31478 0.0
H784 H 0.36933 0.01061 0.229 0.0
H785 H 0.32341 1.00084 0.28485 0.0
H786 H 0.33817 0.98467 0.19816 0.0
H787 H 0.29291 0.9754 0.25297 0.0
H788 H 0.42574 0.98858 0.21063 0.0
H789 H 0.4551 0.06304 0.22611 0.0
H790 H 0.365 0.11686 0.34611 0.0
H791 H 0.30989 0.07701 0.28942 0.0
Li792 Li 0.26901 0.20018 0.54505 0.0
Li793 Li 0.28733 0.17067 0.52208 0.0
Li794 Li 0.26715 0.19743 0.49692 0.0
Li795 Li 0.24364 0.16464 0.51647 0.0
C796 C 0.31337 0.22413 0.53135 0.0
N797 N 0.35095 0.26169 0.54569 0.0
C798 C 0.33316 0.22155 0.54656 0.0
C799 C 0.31274 0.24574 0.52325 0.0
C800 C 0.35196 0.24077 0.55368 0.0
C801 C 0.3319 0.26454 0.53075 0.0
C802 C 0.27114 0.1512 0.56306 0.0
C803 C 0.2795 0.11371 0.56993 0.0
N804 N 0.28281 0.12069 0.59489 0.0
C805 C 0.2746 0.15799 0.58878 0.0
C806 C 0.27358 0.12886 0.55355 0.0
C807 C 0.28049 0.14232 0.60456 0.0
C808 C 0.25089 0.22038 0.58743 0.0
N809 N 0.27112 0.21768 0.57861 0.0
C810 C 0.29283 0.2321 0.61933 0.0
C811 C 0.29191 0.22346 0.59408 0.0
C812 C 0.27215 0.23473 0.62894 0.0
C813 C 0.25103 0.22901 0.61255 0.0
H814 H 0.23443 0.21511 0.57516 0.0
H815 H 0.3077 0.22046 0.58714 0.0
C816 C 0.32034 0.14586 0.50361 0.0
N817 N 0.31373 0.15593 0.52457 0.0
C818 C 0.33856 0.13377 0.5053 0.0
C819 C 0.34322 0.14318 0.55004 0.0
C820 C 0.32521 0.15535 0.54746 0.0
C821 C 0.3498 0.13191 0.52881 0.0
H822 H 0.31121 0.1469 0.48559 0.0
H823 H 0.32003 0.16393 0.56384 0.0
C824 C 0.23249 0.21828 0.51703 0.0
N825 N 0.2148 0.25818 0.51475 0.0
C826 C 0.20963 0.21662 0.50565 0.0
C827 C 0.24635 0.24017 0.52736 0.0
C828 C 0.201 0.23701 0.50466 0.0
C829 C 0.23709 0.26016 0.52596 0.0
C830 C 0.25405 0.14426 0.47284 0.0
C831 C 0.23823 0.14772 0.45329 0.0
C832 C 0.25895 0.12207 0.47391 0.0
C833 C 0.2277 0.1289 0.43493 0.0
C834 C 0.24806 0.1037 0.45521 0.0
N835 N 0.23282 0.10747 0.43624 0.0
C836 C 0.27838 0.20097 0.44729 0.0
C837 C 0.26457 0.23395 0.46304 0.0
C838 C 0.28116 0.20992 0.42468 0.0
N839 N 0.27003 0.21284 0.46602 0.0
C840 C 0.26737 0.24369 0.44078 0.0
C841 C 0.27569 0.23162 0.42107 0.0
H842 H 0.28291 0.18437 0.44982 0.0
H843 H 0.25809 0.24339 0.47793 0.0
C844 C 0.21281 0.12449 0.52922 0.0
N845 N 0.21392 0.14162 0.51425 0.0
C846 C 0.19155 0.10913 0.53043 0.0
C847 C 0.17246 0.12901 0.50068 0.0
C848 C 0.19426 0.14385 0.49979 0.0
C849 C 0.17091 0.11154 0.51642 0.0
H850 H 0.22824 0.12301 0.54088 0.0
H851 H 0.19538 0.15753 0.48801 0.0
O852 O 0.29502 0.20539 0.5237 0.0
O853 O 0.26553 0.16641 0.54733 0.0
O854 O 0.24102 0.19846 0.51861 0.0
O855 O 0.26515 0.16265 0.49049 0.0
H856 H 0.33399 0.20493 0.55289 0.0
H857 H 0.29768 0.24795 0.5112 0.0
H858 H 0.36736 0.23904 0.56552 0.0
H859 H 0.33166 0.28138 0.52463 0.0
H860 H 0.28149 0.0964 0.5628 0.0
H861 H 0.2726 0.1751 0.59653 0.0
H862 H 0.27097 0.12333 0.53369 0.0
H863 H 0.28319 0.14735 0.6245 0.0
H864 H 0.30946 0.23632 0.63137 0.0
H865 H 0.23473 0.23082 0.61923 0.0
H866 H 0.3434 0.12542 0.48856 0.0
H867 H 0.35168 0.14222 0.56843 0.0
H868 H 0.19863 0.19977 0.49774 0.0
H869 H 0.264 0.2417 0.53643 0.0
H870 H 0.18331 0.236 0.49594 0.0
H871 H 0.24761 0.27724 0.53384 0.0
H872 H 0.23423 0.16481 0.45224 0.0
H873 H 0.27119 0.11911 0.48889 0.0
H874 H 0.21552 0.13133 0.4196 0.0
H875 H 0.25179 0.08646 0.45572 0.0
H876 H 0.2876 0.19996 0.4101 0.0
H877 H 0.26294 0.26048 0.4389 0.0
H878 H 0.19108 0.09591 0.54279 0.0
H879 H 0.1569 0.13139 0.48956 0.0
Li880 Li 0.15583 0.08093 0.79876 0.0
Li881 Li 0.12429 0.05432 0.81775 0.0
Li882 Li 0.15313 0.03716 0.79277 0.0
Li883 Li 0.12121 0.05313 0.76984 0.0
C884 C 0.17959 0.06675 0.84078 0.0
N885 N 0.22041 0.08095 0.87395 0.0
C886 C 0.17888 0.07626 0.86524 0.0
C887 C 0.20105 0.06462 0.83313 0.0
C888 C 0.19971 0.08332 0.88174 0.0
C889 C 0.2215 0.07184 0.85021 0.0
C890 C 0.10515 0.09267 0.80143 0.0
C891 C 0.06533 0.09773 0.79636 0.0
N892 N 0.07235 0.11891 0.81091 0.0
C893 C 0.11202 0.11445 0.81631 0.0
C894 C 0.08168 0.0842 0.79129 0.0
C895 C 0.09515 0.12747 0.8209 0.0
C896 C 0.17865 0.12086 0.77919 0.0
N897 N 0.17674 0.11161 0.80085 0.0
C898 C 0.20414 0.14539 0.82323 0.0
C899 C 0.18909 0.12348 0.8227 0.0
C900 C 0.20653 0.15519 0.8011 0.0
C901 C 0.19365 0.14261 0.77885 0.0
H902 H 0.16853 0.11128 0.76206 0.0
H903 H 0.18715 0.11613 0.83978 0.0
C904 C 0.12054 0.04129 0.86645 0.0
N905 N 0.10887 0.05039 0.84824 0.0
C906 C 0.11194 0.03866 0.88923 0.0
C907 C 0.07865 0.05369 0.87409 0.0
C908 C 0.0881 0.05641 0.85168 0.0
C909 C 0.09073 0.04496 0.89346 0.0
H910 H 0.13684 0.03628 0.86344 0.0
H911 H 0.07883 0.06345 0.83713 0.0
C912 C 0.16951 0.05775 0.75001 0.0
N913 N 0.19791 0.05478 0.71328 0.0
C914 C 0.16081 0.04331 0.72745 0.0
C915 C 0.19267 0.07062 0.75394 0.0
C916 C 0.17543 0.0421 0.70908 0.0
C917 C 0.20676 0.06886 0.73515 0.0
C918 C 0.10013 0.0081 0.78265 0.0
C919 C 0.10348 0.9887 0.76735 0.0
C920 C 0.07814 0.00821 0.79 0.0
C921 C 0.08467 0.96958 0.75969 0.0
C922 C 0.05976 0.98876 0.78193 0.0
N923 N 0.06339 0.97001 0.76709 0.0
C924 C 0.16214 0.99246 0.80041 0.0
C925 C 0.18991 0.0147 0.77922 0.0
C926 C 0.17369 0.9738 0.7986 0.0
N927 N 0.17027 0.01236 0.79059 0.0
C928 C 0.2019 0.99653 0.77692 0.0
C929 C 0.19372 0.97577 0.78654 0.0
H930 H 0.14658 0.99102 0.80951 0.0
H931 H 0.19645 0.03068 0.77198 0.0
C932 C 0.11098 0.06868 0.72328 0.0
N933 N 0.10318 0.05103 0.73653 0.0
C934 C 0.10175 0.06781 0.69825 0.0
C935 C 0.07597 0.0309 0.70075 0.0
C936 C 0.08578 0.03241 0.72577 0.0
C937 C 0.08419 0.04862 0.68656 0.0
H938 H 0.12503 0.08317 0.73195 0.0
H939 H 0.07986 0.01836 0.73626 0.0
O940 O 0.15933 0.05941 0.82451 0.0
O941 O 0.12147 0.08 0.7962 0.0
O942 O 0.15537 0.05952 0.76806 0.0
O943 O 0.11844 0.02669 0.79085 0.0
H944 H 0.16244 0.07832 0.87137 0.0
H945 H 0.20191 0.05752 0.81421 0.0
H946 H 0.19943 0.09071 0.90072 0.0
H947 H 0.23824 0.07022 0.84458 0.0
H948 H 0.04707 0.09142 0.78868 0.0
H949 H 0.13021 0.12126 0.8241 0.0
H950 H 0.07619 0.06738 0.77963 0.0
H951 H 0.10019 0.1444 0.83234 0.0
H952 H 0.21366 0.15472 0.84077 0.0
H953 H 0.19491 0.14974 0.76148 0.0
H954 H 0.12189 0.03189 0.90355 0.0
H955 H 0.06223 0.05876 0.87648 0.0
H956 H 0.14295 0.03316 0.72416 0.0
H957 H 0.19981 0.08155 0.77147 0.0
H958 H 0.16892 0.03107 0.69148 0.0
H959 H 0.22474 0.07864 0.73797 0.0
H960 H 0.12043 0.98841 0.76148 0.0
H961 H 0.07533 0.02313 0.80185 0.0
H962 H 0.08699 0.9544 0.7479 0.0
H963 H 0.04264 0.98855 0.7875 0.0
H964 H 0.16704 0.95799 0.80636 0.0
H965 H 0.21743 0.99862 0.76767 0.0
H966 H 0.10866 0.08174 0.68793 0.0
H967 H 0.06256 0.01573 0.69234 0.0
Li968 Li 0.28058 0.95112 1.0012 0.0
Li969 Li 0.29911 0.92783 0.02999 0.0
Li970 Li 0.32135 0.95553 0.00673 0.0
Li971 Li 0.29809 0.91974 0.985 0.0
C972 C 0.31524 0.98013 0.04991 0.0
N973 N 0.34327 0.0161 0.08375 0.0
C974 C 0.32134 0.97657 0.07444 0.0
C975 C 0.32297 1.00221 0.04278 0.0
C976 C 0.33562 0.99491 0.09122 0.0
C977 C 0.33727 0.0201 0.06009 0.0
C978 C 0.2589 0.89464 0.00333 0.0
C979 C 0.25763 0.85422 0.00844 0.0
N980 N 0.23392 0.84932 1.00224 0.0
C981 C 0.23455 0.88923 0.99701 0.0
C982 C 0.27057 0.87705 0.00917 0.0
C983 C 0.22222 0.86621 0.99659 0.0
C984 C 0.23563 0.95456 0.98119 0.0
N985 N 0.25521 0.96483 0.9974 0.0
C986 C 0.2354 0.99072 0.0183 0.0
C987 C 0.25575 0.9831 0.01506 0.0
C988 C 0.21449 0.97928 0.00323 0.0
C989 C 0.21473 0.96185 0.98361 0.0
H990 H 0.23591 0.93976 0.96764 0.0
H991 H 0.2716 0.99065 0.02773 0.0
C992 C 0.3223 0.91494 0.07013 0.0
N993 N 0.30018 0.91408 0.05927 0.0
C994 C 0.32597 0.90329 0.09046 0.0
C995 C 0.28388 0.89085 0.08881 0.0
C996 C 0.28101 0.90274 0.06828 0.0
C997 C 0.30664 0.89078 0.09965 0.0
H998 H 0.33712 0.92437 0.06262 0.0
H999 H 0.26362 0.90242 0.05919 0.0
C1000 C 0.30392 0.96887 0.96061 0.0
N1001 N 0.31033 1.00464 0.93156 0.0
C1002 C 0.31125 0.96513 0.93728 0.0
C1003 C 0.29977 0.99078 0.9691 0.0
C1004 C 0.31439 0.98343 0.92288 0.0
C1005 C 0.30316 0.00865 0.95418 0.0
C1006 C 0.34266 0.91395 0.00499 0.0
C1007 C 0.3552 0.92178 0.98614 0.0
C1008 C 0.34874 0.89602 0.0174 0.0
C1009 C 0.3739 0.91177 0.98031 0.0
C1010 C 0.36746 0.8864 0.01095 0.0
N1011 N 0.3796 0.89445 0.99273 0.0
C1012 C 0.36422 0.9738 0.03172 0.0
C1013 C 0.36031 0.98689 0.99214 0.0
C1014 C 0.38772 0.98466 0.03615 0.0
N1015 N 0.3511 0.97504 0.01004 0.0
C1016 C 0.38406 0.99754 0.99553 0.0
C1017 C 0.39784 0.99603 0.01762 0.0
H1018 H 0.35656 0.96346 0.0451 0.0
H1019 H 0.34973 0.98705 0.97479 0.0
C1020 C 0.28653 0.90007 0.93603 0.0
N1021 N 0.29582 0.89618 0.95867 0.0
C1022 C 0.28566 0.88392 0.91515 0.0
C1023 C 0.30333 0.85985 0.94158 0.0
C1024 C 0.30393 0.87651 0.96191 0.0
C1025 C 0.2943 0.86374 0.91801 0.0
H1026 H 0.28002 0.91582 0.93424 0.0
H1027 H 0.31099 0.87379 0.98017 0.0
O1028 O 0.30136 0.96222 0.03321 0.0
O1029 O 0.27109 0.91715 0.00409 0.0
O1030 O 0.30052 0.95097 0.9747 0.0
O1031 O 0.32449 0.92365 0.01136 0.0
H1032 H 0.31499 0.95991 0.08059 0.0
H1033 H 0.31838 1.00544 0.024 0.0
H1034 H 0.34055 0.99232 0.11022 0.0
H1035 H 0.34363 0.03715 0.05471 0.0
H1036 H 0.26642 0.84042 0.0129 0.0
H1037 H 0.22527 0.90272 0.99261 0.0
H1038 H 0.28938 0.88104 0.01438 0.0
H1039 H 0.20335 0.86178 0.99181 0.0
H1040 H 0.23563 1.00436 0.03348 0.0
H1041 H 0.19872 0.9529 0.97172 0.0
H1042 H 0.34371 0.90364 0.09866 0.0
H1043 H 0.26868 0.88139 0.09574 0.0
H1044 H 0.31462 0.94829 0.93044 0.0
H1045 H 0.29393 0.99396 0.98694 0.0
H1046 H 0.32008 0.98078 0.90481 0.0
H1047 H 0.30004 0.0257 0.96056 0.0
H1048 H 0.35051 0.93539 0.97609 0.0
H1049 H 0.33892 0.88938 0.03167 0.0
H1050 H 0.38387 0.91775 0.96588 0.0
H1051 H 0.37232 0.87251 0.0204 0.0
H1052 H 0.39826 0.98292 0.05314 0.0
H1053 H 0.39179 1.0059 0.98082 0.0
H1054 H 0.27846 0.88709 0.89703 0.0
H1055 H 0.30993 0.84422 0.9441 0.0
Li1056 Li 0.29048 0.40099 0.04415 0.0
Li1057 Li 0.3059 0.3727 0.06839 0.0
Li1058 Li 0.33386 0.40464 0.04885 0.0
Li1059 Li 0.30678 0.36948 0.02106 0.0
C1060 C 0.31305 0.42681 0.09217 0.0
N1061 N 0.31353 0.46478 0.12716 0.0
C1062 C 0.29964 0.42411 0.11166 0.0
C1063 C 0.32671 0.44886 0.0905 0.0
C1064 C 0.30012 0.4435 0.12916 0.0
C1065 C 0.3267 0.46783 0.10834 0.0
C1066 C 0.26205 0.34827 0.04377 0.0
C1067 C 0.24636 0.30685 0.04192 0.0
N1068 N 0.22693 0.31165 0.05095 0.0
C1069 C 0.24195 0.35282 0.05302 0.0
C1070 C 0.26432 0.32514 0.03817 0.0
C1071 C 0.22439 0.33405 0.05654 0.0
C1072 C 0.24579 0.40738 0.02556 0.0
N1073 N 0.26577 0.41821 0.04098 0.0
C1074 C 0.24922 0.45149 0.05154 0.0
C1075 C 0.26786 0.44002 0.05362 0.0
C1076 C 0.22833 0.44044 0.03618 0.0
C1077 C 0.22671 0.41821 0.02294 0.0
H1078 H 0.24462 0.39018 0.01545 0.0
H1079 H 0.28393 0.44864 0.06532 0.0
C1080 C 0.31782 0.34775 0.11087 0.0
N1081 N 0.30126 0.35755 0.09908 0.0
C1082 C 0.31499 0.33969 0.134 0.0
C1083 C 0.27814 0.35171 0.13261 0.0
C1084 C 0.28148 0.35918 0.10944 0.0
C1085 C 0.29511 0.34205 0.14549 0.0
H1086 H 0.33357 0.34669 0.10267 0.0
H1087 H 0.26854 0.36716 0.10017 0.0
C1088 C 0.30688 0.4194 0.00365 0.0
N1089 N 0.29665 0.45184 0.97367 0.0
C1090 C 0.29696 0.41208 0.97887 0.0
C1091 C 0.31157 0.44317 0.01323 0.0
C1092 C 0.29199 0.42878 0.96397 0.0
C1093 C 0.30619 0.45931 0.99779 0.0
C1094 C 0.34471 0.35339 0.04107 0.0
C1095 C 0.36497 0.35977 0.03006 0.0
C1096 C 0.33647 0.32999 0.04398 0.0
C1097 C 0.37667 0.34248 0.02198 0.0
C1098 C 0.34866 0.31321 0.03565 0.0
N1099 N 0.36834 0.31976 0.02492 0.0
C1100 C 0.37834 0.43352 0.07288 0.0
C1101 C 0.37028 0.43388 0.02947 0.0
C1102 C 0.39986 0.44934 0.07388 0.0
N1103 N 0.36401 0.42612 0.05087 0.0
C1104 C 0.39163 0.44968 0.02964 0.0
C1105 C 0.4067 0.45755 0.05204 0.0
H1106 H 0.37303 0.42716 0.08965 0.0
H1107 H 0.35874 0.42766 0.01216 0.0
C1108 C 0.28521 0.33583 0.9763 0.0
N1109 N 0.30512 0.35115 0.9878 0.0
C1110 C 0.2835 0.32589 0.95127 0.0
C1111 C 0.32275 0.34745 0.95012 0.0
C1112 C 0.32378 0.35685 0.97517 0.0
C1113 C 0.30232 0.33195 0.9377 0.0
H1114 H 0.27024 0.33198 0.98617 0.0
H1115 H 0.3392 0.36956 0.98423 0.0
O1116 O 0.3134 0.40787 0.07529 0.0
O1117 O 0.27924 0.36639 0.03984 0.0
O1118 O 0.31229 0.4034 0.01838 0.0
O1119 O 0.33314 0.37005 0.04927 0.0
H1120 H 0.28897 0.40728 0.11331 0.0
H1121 H 0.33708 0.45139 0.07551 0.0
H1122 H 0.28985 0.44162 0.14435 0.0
H1123 H 0.33716 0.48498 0.10722 0.0
H1124 H 0.24785 0.28884 0.03762 0.0
H1125 H 0.23998 0.37065 0.05756 0.0
H1126 H 0.27976 0.32136 0.03091 0.0
H1127 H 0.20874 0.33731 0.06371 0.0
H1128 H 0.25102 0.46875 0.06185 0.0
H1129 H 0.21083 0.40934 0.01078 0.0
H1130 H 0.32853 0.33232 0.1432 0.0
H1131 H 0.26255 0.35388 0.14067 0.0
H1132 H 0.29328 0.39374 0.97117 0.0
H1133 H 0.31923 0.44908 0.03238 0.0
H1134 H 0.28445 0.42341 0.9447 0.0
H1135 H 0.30966 0.47776 0.00496 0.0
H1136 H 0.37156 0.37788 0.02779 0.0
H1137 H 0.32087 0.32487 0.05265 0.0
H1138 H 0.39238 0.34713 0.0134 0.0
H1139 H 0.34251 0.29501 0.03776 0.0
H1140 H 0.41122 0.45491 0.09144 0.0
H1141 H 0.39651 0.45545 0.01242 0.0
H1142 H 0.26728 0.31433 0.94227 0.0
H1143 H 0.33752 0.35284 0.94029 0.0
Li1144 Li 0.77826 0.15151 0.09107 0.0
Li1145 Li 0.79102 0.12004 0.06913 0.0
Li1146 Li 0.77667 0.14888 0.0454 0.0
Li1147 Li 0.7513 0.11881 0.0637 0.0
C1148 C 0.82024 0.17487 0.07609 0.0
N1149 N 0.85229 0.21722 0.08614 0.0
C1150 C 0.84425 0.17536 0.07904 0.0
C1151 C 0.81249 0.19586 0.07827 0.0
C1152 C 0.86019 0.19696 0.08406 0.0
C1153 C 0.82898 0.21711 0.0834 0.0
C1154 C 0.778 0.10241 0.10947 0.0
C1155 C 0.785 0.0638 0.1133 0.0
N1156 N 0.79346 0.07088 0.13774 0.0
C1157 C 0.78635 0.10914 0.13474 0.0
C1158 C 0.77688 0.0794 0.0988 0.0
C1159 C 0.79423 0.09302 0.14868 0.0
C1160 C 0.76813 0.18707 0.12356 0.0
N1161 N 0.78302 0.17247 0.12022 0.0
C1162 C 0.80381 0.18605 0.16091 0.0
C1163 C 0.80101 0.17208 0.13799 0.0
C1164 C 0.78855 0.20117 0.16474 0.0
C1165 C 0.77078 0.20189 0.14571 0.0
H1166 H 0.75407 0.18714 0.10922 0.0
H1167 H 0.81278 0.16049 0.13449 0.0
C1168 C 0.81248 0.0868 0.05003 0.0
N1169 N 0.81411 0.10305 0.07014 0.0
C1170 C 0.83107 0.07625 0.04656 0.0
C1171 C 0.8521 0.09826 0.08553 0.0
C1172 C 0.83301 0.10864 0.08814 0.0
C1173 C 0.85134 0.08264 0.06398 0.0
H1174 H 0.79727 0.08293 0.03604 0.0
H1175 H 0.83367 0.12192 0.10375 0.0
C1176 C 0.73588 0.16618 0.06474 0.0
N1177 N 0.70287 0.19366 0.06302 0.0
C1178 C 0.71401 0.15833 0.07228 0.0
C1179 C 0.74108 0.1882 0.05675 0.0
C1180 C 0.69751 0.17241 0.07111 0.0
C1181 C 0.72415 0.20179 0.05594 0.0
C1182 C 0.75594 0.09827 0.01852 0.0
C1183 C 0.75077 0.10424 0.99478 0.0
C1184 C 0.74649 0.07566 0.02334 0.0
C1185 C 0.73557 0.08788 0.97661 0.0
C1186 C 0.73136 0.05978 0.00471 0.0
N1187 N 0.72621 0.06618 0.98193 0.0
C1188 C 0.79854 0.17762 0.01201 0.0
C1189 C 0.75701 0.16552 0.00531 0.0
C1190 C 0.79815 0.18903 0.9909 0.0
N1191 N 0.77812 0.16609 0.01856 0.0
C1192 C 0.75581 0.17643 0.98411 0.0
C1193 C 0.77655 0.18804 0.97661 0.0
H1194 H 0.81507 0.17761 0.02287 0.0
H1195 H 0.74113 0.15596 0.01091 0.0
C1196 C 0.71381 0.08921 0.07848 0.0
N1197 N 0.72103 0.10135 0.05996 0.0
C1198 C 0.69022 0.07884 0.07754 0.0
C1199 C 0.68247 0.09316 0.03813 0.0
C1200 C 0.70609 0.10342 0.03995 0.0
C1201 C 0.67448 0.08117 0.05731 0.0
H1202 H 0.7262 0.08835 0.09433 0.0
H1203 H 0.71246 0.11376 0.02596 0.0
O1204 O 0.80448 0.15384 0.07145 0.0
O1205 O 0.77005 0.11797 0.09558 0.0
O1206 O 0.75217 0.15249 0.06541 0.0
O1207 O 0.77087 0.11415 0.03655 0.0
H1208 H 0.85049 0.15922 0.07741 0.0
H1209 H 0.79397 0.19573 0.07625 0.0
H1210 H 0.87884 0.19763 0.08633 0.0
H1211 H 0.82325 0.23351 0.08525 0.0
H1212 H 0.78453 0.04605 0.10513 0.0
H1213 H 0.78637 0.12645 0.14369 0.0
H1214 H 0.77014 0.07371 0.07945 0.0
H1215 H 0.80081 0.09807 0.16824 0.0
H1216 H 0.81771 0.18527 0.17536 0.0
H1217 H 0.75881 0.21352 0.14821 0.0
H1218 H 0.83018 0.06414 0.02982 0.0
H1219 H 0.86769 0.10336 0.09917 0.0
H1220 H 0.70982 0.14164 0.07914 0.0
H1221 H 0.75799 0.19478 0.05119 0.0
H1222 H 0.68047 0.16647 0.07672 0.0
H1223 H 0.72793 0.21881 0.04969 0.0
H1224 H 0.75869 0.12117 0.99021 0.0
H1225 H 0.75047 0.07048 0.04137 0.0
H1226 H 0.73133 0.09238 0.95824 0.0
H1227 H 0.72371 0.04236 0.00836 0.0
H1228 H 0.81439 0.19798 0.98544 0.0
H1229 H 0.73892 0.17546 0.97336 0.0
H1230 H 0.68423 0.06964 0.09253 0.0
H1231 H 0.67042 0.09516 0.02241 0.0
Li1232 Li 0.21118 0.5717 0.25631 0.0
Li1233 Li 0.18129 0.54972 0.27621 0.0
Li1234 Li 0.20663 0.52983 0.25409 0.0
Li1235 Li 0.17616 0.54605 0.23126 0.0
C1236 C 0.22529 0.566 0.30656 0.0
N1237 N 0.24496 0.59184 0.35203 0.0
C1238 C 0.21746 0.586 0.31503 0.0
C1239 C 0.24309 0.55913 0.32116 0.0
C1240 C 0.22763 0.59882 0.3381 0.0
C1241 C 0.25283 0.57243 0.3441 0.0
C1242 C 0.16348 0.58915 0.25403 0.0
C1243 C 0.12562 0.59728 0.24137 0.0
N1244 N 0.13372 0.61999 0.25184 0.0
C1245 C 0.17133 0.61253 0.26494 0.0
C1246 C 0.14034 0.5814 0.2424 0.0
C1247 C 0.15606 0.62786 0.26355 0.0
C1248 C 0.2219 0.61513 0.24315 0.0
N1249 N 0.23104 0.60099 0.25764 0.0
C1250 C 0.2615 0.63286 0.27776 0.0
C1251 C 0.25089 0.60905 0.27416 0.0
C1252 C 0.25113 0.64815 0.26454 0.0
C1253 C 0.23145 0.63903 0.24666 0.0
H1254 H 0.20621 0.608 0.23004 0.0
H1255 H 0.25787 0.59726 0.28523 0.0
C1256 C 0.16411 0.53239 0.3184 0.0
N1257 N 0.16518 0.55012 0.30424 0.0
C1258 C 0.15124 0.53213 0.33841 0.0
C1259 C 0.14165 0.5687 0.32921 0.0
C1260 C 0.15464 0.56826 0.30956 0.0
C1261 C 0.13966 0.55036 0.34358 0.0
H1262 H 0.173 0.51836 0.31393 0.0
H1263 H 0.15622 0.58246 0.29867 0.0
C1264 C 0.22826 0.55331 0.21402 0.0
N1265 N 0.26658 0.56234 0.18885 0.0
C1266 C 0.22511 0.55541 0.18871 0.0
C1267 C 0.25083 0.55582 0.22659 0.0
C1268 C 0.24472 0.55993 0.17629 0.0
C1269 C 0.27 0.56043 0.21352 0.0
C1270 C 0.15383 0.50625 0.25952 0.0
C1271 C 0.15608 0.48441 0.26602 0.0
C1272 C 0.13255 0.51324 0.26052 0.0
C1273 C 0.13696 0.46991 0.27352 0.0
C1274 C 0.11388 0.49828 0.26823 0.0
N1275 N 0.11644 0.47709 0.27449 0.0
C1276 C 0.22341 0.49694 0.27589 0.0
C1277 C 0.22739 0.49425 0.23286 0.0
C1278 C 0.23286 0.47742 0.27811 0.0
N1279 N 0.22097 0.50486 0.25361 0.0
C1280 C 0.23708 0.47455 0.23424 0.0
C1281 C 0.23979 0.46615 0.25716 0.0
H1282 H 0.21768 0.50571 0.29181 0.0
H1283 H 0.22483 0.50097 0.21535 0.0
C1284 C 0.15767 0.55899 0.18769 0.0
N1285 N 0.15564 0.54169 0.20233 0.0
C1286 C 0.14169 0.55673 0.16636 0.0
C1287 C 0.12222 0.51884 0.17571 0.0
C1288 C 0.13873 0.52171 0.19667 0.0
C1289 C 0.12365 0.53658 0.16054 0.0
H1290 H 0.17143 0.57462 0.19291 0.0
H1291 H 0.13788 0.5082 0.20862 0.0
O1292 O 0.21576 0.55309 0.28406 0.0
O1293 O 0.17839 0.574 0.25488 0.0
O1294 O 0.2092 0.54864 0.22628 0.0
O1295 O 0.17226 0.52049 0.25176 0.0
H1296 H 0.20382 0.59163 0.30386 0.0
H1297 H 0.24937 0.54371 0.31478 0.0
H1298 H 0.22179 0.61437 0.34491 0.0
H1299 H 0.26666 0.56734 0.35558 0.0
H1300 H 0.10773 0.59153 0.23226 0.0
H1301 H 0.18894 0.61875 0.27468 0.0
H1302 H 0.13374 0.56336 0.23421 0.0
H1303 H 0.16195 0.646 0.27184 0.0
H1304 H 0.27698 0.63945 0.29137 0.0
H1305 H 0.22325 0.65039 0.23595 0.0
H1306 H 0.15006 0.51786 0.34948 0.0
H1307 H 0.13306 0.58312 0.33308 0.0
H1308 H 0.20769 0.55342 0.17876 0.0
H1309 H 0.25347 0.55425 0.24622 0.0
H1310 H 0.24256 0.5615 0.15667 0.0
H1311 H 0.28761 0.56245 0.22297 0.0
H1312 H 0.17236 0.47865 0.26512 0.0
H1313 H 0.13055 0.53009 0.25558 0.0
H1314 H 0.13842 0.45292 0.27854 0.0
H1315 H 0.09735 0.50352 0.26923 0.0
H1316 H 0.23484 0.47115 0.29598 0.0
H1317 H 0.24241 0.46604 0.21788 0.0
H1318 H 0.14298 0.57069 0.15485 0.0
H1319 H 0.10835 0.50317 0.1715 0.0
Li1320 Li 0.78698 0.89816 0.5447 0.0
Li1321 Li 0.80459 0.87082 0.5689 0.0
Li1322 Li 0.83106 0.90334 0.54872 0.0
Li1323 Li 0.80541 0.86762 0.52162 0.0
C1324 C 0.80863 0.92504 0.59148 0.0
N1325 N 0.80457 0.96349 0.62349 0.0
C1326 C 0.80059 0.92208 0.61431 0.0
C1327 C 0.81496 0.94762 0.58517 0.0
C1328 C 0.79855 0.9417 0.63017 0.0
C1329 C 0.8127 0.96682 0.60152 0.0
C1330 C 0.76104 0.84492 0.54435 0.0
C1331 C 0.74634 0.80332 0.54232 0.0
N1332 N 0.72686 0.80755 0.55167 0.0
C1333 C 0.74084 0.84889 0.55379 0.0
C1334 C 0.76382 0.822 0.53843 0.0
C1335 C 0.72378 0.82974 0.55743 0.0
C1336 C 0.75248 0.91847 0.51967 0.0
N1337 N 0.76122 0.91406 0.54237 0.0
C1338 C 0.73472 0.93391 0.56185 0.0
C1339 C 0.75221 0.9209 0.56319 0.0
C1340 C 0.72671 0.94021 0.53891 0.0
C1341 C 0.73549 0.93196 0.51757 0.0
H1342 H 0.75909 0.91199 0.5032 0.0
H1343 H 0.7587 0.91645 0.58091 0.0
C1344 C 0.8167 0.84543 0.6111 0.0
N1345 N 0.80033 0.85563 0.59959 0.0
C1346 C 0.81383 0.8372 0.63414 0.0
C1347 C 0.77741 0.85003 0.63331 0.0
C1348 C 0.78074 0.85761 0.61019 0.0
C1349 C 0.79416 0.83988 0.64588 0.0
H1350 H 0.83233 0.84416 0.60277 0.0
H1351 H 0.76805 0.86606 0.60119 0.0
C1352 C 0.80851 0.91755 0.50227 0.0
N1353 N 0.80755 0.94956 0.46886 0.0
C1354 C 0.81178 0.9116 0.4776 0.0
C1355 C 0.8045 0.93977 0.5098 0.0
C1356 C 0.8113 0.92801 0.46103 0.0
C1357 C 0.80417 0.95571 0.49271 0.0
C1358 C 0.84234 0.85113 0.54222 0.0
C1359 C 0.86219 0.85539 0.53011 0.0
C1360 C 0.83312 0.82843 0.54682 0.0
C1361 C 0.87243 0.83675 0.52262 0.0
C1362 C 0.84387 0.81026 0.53906 0.0
N1363 N 0.86313 0.81476 0.52721 0.0
C1364 C 0.88142 0.91846 0.55826 0.0
C1365 C 0.86204 0.94665 0.54303 0.0
C1366 C 0.90335 0.93297 0.55734 0.0
N1367 N 0.86124 0.92529 0.55075 0.0
C1368 C 0.8835 0.9618 0.54214 0.0
C1369 C 0.90451 0.95486 0.54893 0.0
H1370 H 0.88053 0.90153 0.5645 0.0
H1371 H 0.84607 0.95196 0.53714 0.0
C1372 C 0.78309 0.83526 0.47685 0.0
N1373 N 0.80383 0.84876 0.48883 0.0
C1374 C 0.78122 0.82501 0.45195 0.0
C1375 C 0.82204 0.84233 0.452 0.0
C1376 C 0.8232 0.85208 0.4769 0.0
C1377 C 0.80077 0.82887 0.43906 0.0
H1378 H 0.7677 0.83323 0.48624 0.0
H1379 H 0.83927 0.86358 0.48617 0.0
O1380 O 0.81062 0.90598 0.57564 0.0
O1381 O 0.77783 0.86341 0.54047 0.0
O1382 O 0.80825 0.9014 0.51858 0.0
O1383 O 0.83202 0.8691 0.54963 0.0
H1384 H 0.79597 0.90485 0.61979 0.0
H1385 H 0.82159 0.95034 0.56789 0.0
H1386 H 0.79222 0.93961 0.64781 0.0
H1387 H 0.81746 0.98438 0.59676 0.0
H1388 H 0.74824 0.78546 0.53784 0.0
H1389 H 0.73842 0.86657 0.55831 0.0
H1390 H 0.77923 0.81867 0.5308 0.0
H1391 H 0.70807 0.83253 0.5648 0.0
H1392 H 0.72801 0.93963 0.57863 0.0
H1393 H 0.72945 0.93616 0.4995 0.0
H1394 H 0.82721 0.82947 0.64311 0.0
H1395 H 0.76202 0.85252 0.64159 0.0
H1396 H 0.81452 0.89446 0.47119 0.0
H1397 H 0.80138 0.94459 0.52859 0.0
H1398 H 0.81381 0.92358 0.4419 0.0
H1399 H 0.80108 0.97294 0.49837 0.0
H1400 H 0.86945 0.87283 0.52623 0.0
H1401 H 0.81784 0.8249 0.55631 0.0
H1402 H 0.88773 0.83977 0.51311 0.0
H1403 H 0.83692 0.79259 0.54247 0.0
H1404 H 0.91923 0.92708 0.56282 0.0
H1405 H 0.8837 0.97859 0.53567 0.0
H1406 H 0.76442 0.81498 0.44251 0.0
H1407 H 0.8374 0.84601 0.44262 0.0
Li1408 Li 0.95492 0.01675 0.29463 0.0
Li1409 Li 0.91901 0.99083 0.26693 0.0
Li1410 Li 0.95253 0.01513 0.24617 0.0
Li1411 Li 0.92554 0.03486 0.2687 0.0
C1412 C 0.9703 0.97697 0.27193 0.0
N1413 N 1.00539 0.95272 0.28015 0.0
C1414 C 0.96548 0.95542 0.28094 0.0
C1415 C 0.9929 0.98622 0.26708 0.0
C1416 C 0.98348 0.94343 0.285 0.0
C1417 C 0.01042 0.97367 0.27136 0.0
C1418 C 0.90632 0.01432 0.31321 0.0
C1419 C 0.87058 0.02102 0.32751 0.0
N1420 N 0.87703 0.01354 0.34939 0.0
C1421 C 0.91252 0.00653 0.33573 0.0
C1422 C 0.88518 0.02161 0.309 0.0
C1423 C 0.89752 0.00636 0.35385 0.0
C1424 C 0.97242 0.03898 0.34489 0.0
N1425 N 0.97299 0.01996 0.32837 0.0
C1426 C 0.99313 1.00396 0.361 0.0
C1427 C 0.98336 1.00271 0.33605 0.0
C1428 C 0.99223 0.02308 0.37848 0.0
C1429 C 0.98197 0.04091 0.37003 0.0
H1430 H 0.96379 0.05236 0.33872 0.0
H1431 H 0.98348 0.98753 0.3231 0.0
C1432 C 0.90076 0.94068 0.2564 0.0
N1433 N 0.89601 0.96136 0.266 0.0
C1434 C 0.88554 0.91926 0.25779 0.0
C1435 C 0.86034 0.94064 0.27815 0.0
C1436 C 0.87601 0.96159 0.2764 0.0
C1437 C 0.86519 0.91912 0.2691 0.0
H1438 H 0.91664 0.94077 0.24808 0.0
H1439 H 0.87223 0.978 0.2837 0.0
C1440 C 0.97404 0.06395 0.27226 0.0
N1441 N 1.00163 0.10731 0.26958 0.0
C1442 C 0.96734 0.07745 0.2544 0.0
C1443 C 0.99472 0.07244 0.28876 0.0
C1444 C 0.98152 0.09938 0.25338 0.0
C1445 C 0.00847 0.0944 0.28707 0.0
C1446 C 0.89832 0.01081 0.22273 0.0
C1447 C 0.90089 0.0171 0.19909 0.0
C1448 C 0.87597 1.00529 0.22983 0.0
C1449 C 0.88097 0.01772 0.18289 0.0
C1450 C 0.85648 1.00608 0.21307 0.0
N1451 N 0.85936 0.01222 0.19014 0.0
C1452 C 0.95869 1.00275 0.1948 0.0
C1453 C 0.98808 0.03453 0.21602 0.0
C1454 C 0.96781 1.00551 0.17227 0.0
N1455 N 0.96869 0.01731 0.21616 0.0
C1456 C 0.99776 0.03788 0.19391 0.0
C1457 C 0.9875 0.0234 0.17158 0.0
H1458 H 0.9432 0.98929 0.19507 0.0
H1459 H 0.99592 0.046 0.233 0.0
C1460 C 0.90941 0.07351 0.29156 0.0
N1461 N 0.91041 0.06129 0.26916 0.0
C1462 C 0.89785 0.09215 0.29289 0.0
C1463 C 0.88914 0.08588 0.24809 0.0
C1464 C 0.90094 0.06744 0.24761 0.0
C1465 C 0.88738 0.0983 0.27096 0.0
H1466 H 0.91737 0.0686 0.30843 0.0
H1467 H 0.90255 0.05816 0.22996 0.0
O1468 O 0.95292 0.9889 0.26775 0.0
O1469 O 0.92116 0.01534 0.29564 0.0
O1470 O 0.96059 0.04241 0.27355 0.0
O1471 O 0.91763 0.01006 0.2388 0.0
H1472 H 0.94811 0.94818 0.28504 0.0
H1473 H 0.99684 1.00292 0.26012 0.0
H1474 H 0.98006 0.92677 0.29206 0.0
H1475 H 0.02802 0.98059 0.26769 0.0
H1476 H 0.85413 0.02653 0.32449 0.0
H1477 H 0.92874 1.00069 0.33921 0.0
H1478 H 0.88 0.02744 0.29153 0.0
H1479 H 0.90218 1.00052 0.37144 0.0
H1480 H 1.0008 0.9898 0.36676 0.0
H1481 H 0.98078 0.05588 0.38292 0.0
H1482 H 0.8898 0.90295 0.25054 0.0
H1483 H 0.84476 0.9412 0.28689 0.0
H1484 H 0.95145 0.071 0.24138 0.0
H1485 H 1.00013 0.06208 0.30262 0.0
H1486 H 0.97658 0.11006 0.23967 0.0
H1487 H 0.02458 0.10117 0.29966 0.0
H1488 H 0.91809 0.02175 0.19343 0.0
H1489 H 0.87372 1.00062 0.24812 0.0
H1490 H 0.8827 0.02263 0.16457 0.0
H1491 H 0.83905 1.00184 0.2183 0.0
H1492 H 0.95946 0.99389 0.1555 0.0
H1493 H 0.01306 0.05177 0.19421 0.0
H1494 H 0.89689 0.10153 0.31084 0.0
H1495 H 0.88141 0.09038 0.23084 0.0
Li1496 Li 0.27846 0.65338 0.58355 0.0
Li1497 Li 0.29566 0.62303 0.56606 0.0
Li1498 Li 0.2738 0.64555 0.53918 0.0
Li1499 Li 0.25415 0.61642 0.56287 0.0
C1500 C 0.31925 0.67536 0.57583 0.0
N1501 N 0.3498 0.7129 0.60509 0.0
C1502 C 0.33713 0.67154 0.59294 0.0
C1503 C 0.31702 0.69825 0.57342 0.0
C1504 C 0.35239 0.69076 0.60759 0.0
C1505 C 0.33258 0.717 0.58846 0.0
C1506 C 0.27818 0.60399 0.6074 0.0
C1507 C 0.27809 0.56326 0.60988 0.0
N1508 N 0.28105 0.56785 0.63512 0.0
C1509 C 0.28109 0.60828 0.63337 0.0
C1510 C 0.27655 0.5813 0.59557 0.0
C1511 C 0.28254 0.58979 0.64705 0.0
C1512 C 0.26995 0.69402 0.60953 0.0
N1513 N 0.28186 0.67656 0.61062 0.0
C1514 C 0.29721 0.69026 0.65303 0.0
C1515 C 0.29571 0.67462 0.63156 0.0
C1516 C 0.28444 0.7079 0.65245 0.0
C1517 C 0.2711 0.71014 0.6304 0.0
H1518 H 0.25916 0.69521 0.59276 0.0
H1519 H 0.30519 0.66066 0.63164 0.0
C1520 C 0.32775 0.60628 0.54446 0.0
N1521 N 0.32084 0.60909 0.56722 0.0
C1522 C 0.3468 0.59642 0.5413 0.0
C1523 C 0.35129 0.59239 0.58522 0.0
C1524 C 0.33207 0.60262 0.58759 0.0
C1525 C 0.35872 0.58951 0.56182 0.0
H1526 H 0.31845 0.61191 0.52884 0.0
H1527 H 0.32632 0.60562 0.60556 0.0
C1528 C 0.23448 0.66227 0.55365 0.0
N1529 N 0.20401 0.68989 0.53878 0.0
C1530 C 0.21041 0.65489 0.55416 0.0
C1531 C 0.24305 0.68389 0.5459 0.0
C1532 C 0.19529 0.66905 0.54649 0.0
C1533 C 0.22738 0.69754 0.53836 0.0
C1534 C 0.26303 0.59142 0.51926 0.0
C1535 C 0.24685 0.59204 0.49869 0.0
C1536 C 0.26984 0.57037 0.52252 0.0
C1537 C 0.23693 0.57148 0.48245 0.0
C1538 C 0.25955 0.55015 0.50585 0.0
N1539 N 0.24338 0.5511 0.48637 0.0
C1540 C 0.29138 0.67341 0.50428 0.0
C1541 C 0.25062 0.6562 0.49612 0.0
C1542 C 0.28957 0.68604 0.48426 0.0
N1543 N 0.27196 0.65916 0.5099 0.0
C1544 C 0.24803 0.66838 0.47601 0.0
C1545 C 0.26757 0.68371 0.4703 0.0
H1546 H 0.30805 0.67554 0.51584 0.0
H1547 H 0.23539 0.64531 0.50154 0.0
C1548 C 0.21949 0.58361 0.58093 0.0
N1549 N 0.22586 0.59543 0.56185 0.0
C1550 C 0.19648 0.57135 0.57997 0.0
C1551 C 0.18732 0.5839 0.53992 0.0
C1552 C 0.21046 0.59552 0.54148 0.0
C1553 C 0.18018 0.57223 0.55962 0.0
H1554 H 0.2317 0.5847 0.59745 0.0
H1555 H 0.2158 0.6061 0.52734 0.0
O1556 O 0.30376 0.65674 0.56183 0.0
O1557 O 0.27705 0.62202 0.59379 0.0
O1558 O 0.24943 0.64825 0.5605 0.0
O1559 O 0.27292 0.61149 0.5354 0.0
H1560 H 0.33905 0.65394 0.59511 0.0
H1561 H 0.30328 0.70149 0.56025 0.0
H1562 H 0.36624 0.68807 0.621 0.0
H1563 H 0.33096 0.73481 0.58694 0.0
H1564 H 0.27686 0.54561 0.60091 0.0
H1565 H 0.28209 0.62566 0.6429 0.0
H1566 H 0.27384 0.57765 0.57559 0.0
H1567 H 0.28481 0.59288 0.66716 0.0
H1568 H 0.30767 0.68832 0.66998 0.0
H1569 H 0.26108 0.72369 0.62967 0.0
H1570 H 0.35235 0.59433 0.52306 0.0
H1571 H 0.36041 0.58719 0.60128 0.0
H1572 H 0.20343 0.63851 0.56061 0.0
H1573 H 0.26163 0.69007 0.54568 0.0
H1574 H 0.17663 0.6635 0.54672 0.0
H1575 H 0.2338 0.71422 0.53218 0.0
H1576 H 0.24179 0.60814 0.49534 0.0
H1577 H 0.28321 0.56962 0.53747 0.0
H1578 H 0.22415 0.57175 0.46668 0.0
H1579 H 0.26454 0.53374 0.50831 0.0
H1580 H 0.30486 0.69794 0.48017 0.0
H1581 H 0.23082 0.66653 0.46556 0.0
H1582 H 0.19112 0.56256 0.59546 0.0
H1583 H 0.17485 0.58498 0.52414 0.0
Li1584 Li 0.41883 0.4908 0.76855 0.0
Li1585 Li 0.45346 0.51752 0.79545 0.0
Li1586 Li 0.42183 0.53409 0.77078 0.0
Li1587 Li 0.45028 0.51688 0.7473 0.0
C1588 C 0.40144 0.50838 0.81092 0.0
N1589 N 0.36467 0.49674 0.83775 0.0
C1590 C 0.40517 0.49989 0.83359 0.0
C1591 C 0.37909 0.51107 0.80194 0.0
C1592 C 0.38632 0.49407 0.84687 0.0
C1593 C 0.3607 0.50504 0.81576 0.0
C1594 C 0.47134 0.48007 0.77236 0.0
C1595 C 0.5122 0.47968 0.77203 0.0
N1596 N 0.50855 0.45854 0.78057 0.0
C1597 C 0.46792 0.45831 0.78101 0.0
C1598 C 0.49357 0.49084 0.7677 0.0
C1599 C 0.48699 0.44772 0.7851 0.0
C1600 C 0.38051 0.45076 0.74967 0.0
N1601 N 0.39785 0.46073 0.76873 0.0
C1602 C 0.38598 0.42881 0.79165 0.0
C1603 C 0.40081 0.45013 0.78944 0.0
C1604 C 0.36764 0.41838 0.77251 0.0
C1605 C 0.36498 0.42965 0.75131 0.0
H1606 H 0.37869 0.45911 0.73315 0.0
H1607 H 0.41477 0.45828 0.80431 0.0
C1608 C 0.46546 0.5367 0.84663 0.0
N1609 N 0.47106 0.52096 0.82927 0.0
C1610 C 0.47402 0.53821 0.87198 0.0
C1611 C 0.49459 0.50772 0.86145 0.0
C1612 C 0.48556 0.50671 0.83628 0.0
C1613 C 0.48858 0.5234 0.87973 0.0
H1614 H 0.4536 0.5476 0.8409 0.0
H1615 H 0.48969 0.49405 0.82257 0.0
C1616 C 0.39771 0.51162 0.72271 0.0
N1617 N 0.36262 0.5153 0.68625 0.0
C1618 C 0.4034 0.52072 0.70105 0.0
C1619 C 0.37418 0.50443 0.72585 0.0
C1620 C 0.3854 0.52245 0.68285 0.0
C1621 C 0.3567 0.5064 0.70718 0.0
C1622 C 0.47381 0.56343 0.7751 0.0
C1623 C 0.46812 0.58381 0.76765 0.0
C1624 C 0.49713 0.56311 0.78309 0.0
C1625 C 0.486 0.60357 0.7681 0.0
C1626 C 0.51451 0.58325 0.78329 0.0
N1627 N 0.50863 0.60288 0.77584 0.0
C1628 C 0.40941 0.57295 0.79587 0.0
C1629 C 0.39182 0.56445 0.75377 0.0
C1630 C 0.39923 0.59239 0.79947 0.0
N1631 N 0.40563 0.55945 0.77328 0.0
C1632 C 0.38104 0.58353 0.75664 0.0
C1633 C 0.38494 0.59786 0.77964 0.0
H1634 H 0.42063 0.56875 0.81102 0.0
H1635 H 0.38936 0.554 0.73584 0.0
C1636 C 0.46583 0.50086 0.70048 0.0
N1637 N 0.46548 0.52028 0.71652 0.0
C1638 C 0.47438 0.50296 0.67752 0.0
C1639 C 0.48215 0.54496 0.68762 0.0
C1640 C 0.47339 0.54208 0.71032 0.0
C1641 C 0.48264 0.52526 0.67072 0.0
H1642 H 0.45914 0.48365 0.70531 0.0
H1643 H 0.47254 0.5574 0.72275 0.0
O1644 O 0.41971 0.51441 0.7978 0.0
O1645 O 0.45291 0.49065 0.76824 0.0
O1646 O 0.41512 0.50964 0.74062 0.0
O1647 O 0.45654 0.544 0.77498 0.0
H1648 H 0.42241 0.49775 0.84081 0.0
H1649 H 0.37601 0.51787 0.78456 0.0
H1650 H 0.38892 0.48745 0.86444 0.0
H1651 H 0.34329 0.50703 0.80904 0.0
H1652 H 0.52955 0.48781 0.76858 0.0
H1653 H 0.45076 0.44972 0.78457 0.0
H1654 H 0.49639 0.50763 0.76085 0.0
H1655 H 0.48465 0.43091 0.79186 0.0
H1656 H 0.38877 0.42053 0.80815 0.0
H1657 H 0.35121 0.42201 0.73604 0.0
H1658 H 0.46898 0.55054 0.88547 0.0
H1659 H 0.50576 0.49599 0.86668 0.0
H1660 H 0.4215 0.52644 0.69834 0.0
H1661 H 0.36946 0.49749 0.74254 0.0
H1662 H 0.38955 0.52949 0.66601 0.0
H1663 H 0.33842 0.50088 0.70935 0.0
H1664 H 0.4501 0.5843 0.76146 0.0
H1665 H 0.50173 0.54749 0.78912 0.0
H1666 H 0.4819 0.61945 0.7623 0.0
H1667 H 0.53266 0.58329 0.7894 0.0
H1668 H 0.40263 0.6032 0.81744 0.0
H1669 H 0.37016 0.58737 0.74097 0.0
H1670 H 0.47458 0.48728 0.66516 0.0
H1671 H 0.48849 0.56247 0.68329 0.0
Li1672 Li 0.6791 0.05044 0.77438 0.0
Li1673 Li 0.70948 0.07136 0.75238 0.0
Li1674 Li 0.67498 0.04363 0.72882 0.0
Li1675 Li 0.7061 0.03039 0.75316 0.0
C1676 C 0.66187 0.08821 0.75108 0.0
N1677 N 0.63301 0.11993 0.75197 0.0
C1678 C 0.67087 0.11157 0.7614 0.0
C1679 C 0.63822 0.081 0.74106 0.0
C1680 C 0.65599 0.12733 0.76176 0.0
C1681 C 0.62391 0.0973 0.74171 0.0
C1682 C 0.73112 0.05831 0.80056 0.0
C1683 C 0.77108 0.05755 0.81554 0.0
N1684 N 0.76772 0.06556 0.83891 0.0
C1685 C 0.72801 0.06639 0.82475 0.0
C1686 C 0.7528 0.0538 0.79589 0.0
C1687 C 0.74676 0.07002 0.84388 0.0
C1688 C 0.65642 0.03369 0.8135 0.0
N1689 N 0.66391 0.053 0.80255 0.0
C1690 C 0.64951 0.07719 0.83236 0.0
C1691 C 0.66117 0.07455 0.8118 0.0
C1692 C 0.64095 0.05746 0.84346 0.0
C1693 C 0.64467 0.03552 0.8342 0.0
H1694 H 0.6594 0.01688 0.80602 0.0
H1695 H 0.66808 0.08967 0.80325 0.0
C1696 C 0.72801 0.11216 0.73345 0.0
N1697 N 0.7286 0.10094 0.75388 0.0
C1698 C 0.73743 0.13613 0.73576 0.0
C1699 C 0.74854 0.1361 0.77984 0.0
C1700 C 0.73901 0.1122 0.77667 0.0
C1701 C 0.74703 0.14826 0.75937 0.0
H1702 H 0.71888 0.10281 0.71578 0.0
H1703 H 0.73842 0.10308 0.7927 0.0
C1704 C 0.65025 1.00553 0.75188 0.0
N1705 N 0.60688 0.97617 0.75019 0.0
C1706 C 0.64792 0.98123 0.74802 0.0
C1707 C 0.63058 0.01493 0.75502 0.0
C1708 C 0.62582 0.96667 0.74716 0.0
C1709 C 0.60879 0.99978 0.7541 0.0
C1710 C 0.72495 0.05401 0.70922 0.0
C1711 C 0.71863 0.05389 0.68378 0.0
C1712 C 0.74849 0.06125 0.71959 0.0
C1713 C 0.73605 0.06096 0.66907 0.0
C1714 C 0.76539 0.06824 0.70428 0.0
N1715 N 0.75887 0.06792 0.67954 0.0
C1716 C 0.65464 0.05669 0.6867 0.0
C1717 C 0.63825 0.01766 0.69274 0.0
C1718 C 0.63857 0.05479 0.66552 0.0
N1719 N 0.65393 0.03836 0.69988 0.0
C1720 C 0.62149 0.01518 0.67205 0.0
C1721 C 0.62159 0.03395 0.6584 0.0
H1722 H 0.6675 0.07285 0.69294 0.0
H1723 H 0.63851 1.00317 0.70315 0.0
C1724 C 0.71604 0.99419 0.77414 0.0
N1725 N 0.7217 0.00676 0.75554 0.0
C1726 C 0.72734 0.97637 0.779 0.0
C1727 C 0.74977 0.98464 0.74506 0.0
C1728 C 0.73786 1.00233 0.74075 0.0
C1729 C 0.74452 0.97179 0.76455 0.0
H1730 H 0.70302 0.99838 0.78539 0.0
H1731 H 0.74173 0.01271 0.72602 0.0
O1732 O 0.67634 0.07268 0.75024 0.0
O1733 O 0.71304 0.05523 0.78161 0.0
O1734 O 0.67176 0.01993 0.75256 0.0
O1735 O 0.70816 0.04658 0.7237 0.0
H1736 H 0.68911 0.11739 0.7693 0.0
H1737 H 0.63097 0.06309 0.73266 0.0
H1738 H 0.66269 0.14544 0.76983 0.0
H1739 H 0.60559 0.09197 0.73398 0.0
H1740 H 0.78795 0.05412 0.81219 0.0
H1741 H 0.71136 0.07006 0.82867 0.0
H1742 H 0.7555 0.04741 0.77736 0.0
H1743 H 0.74464 0.07642 0.86266 0.0
H1744 H 0.64697 0.09434 0.83939 0.0
H1745 H 0.63828 0.02007 0.84265 0.0
H1746 H 0.73596 0.14536 0.71976 0.0
H1747 H 0.75567 0.14526 0.79828 0.0
H1748 H 0.66303 0.97372 0.74558 0.0
H1749 H 0.63215 0.03368 0.75832 0.0
H1750 H 0.62374 0.94782 0.74409 0.0
H1751 H 0.59341 0.0068 0.75652 0.0
H1752 H 0.70049 0.04816 0.67543 0.0
H1753 H 0.75365 0.06155 0.73924 0.0
H1754 H 0.73143 0.06084 0.64932 0.0
H1755 H 0.78368 0.07389 0.71206 0.0
H1756 H 0.63896 0.0695 0.65514 0.0
H1757 H 0.60857 0.99888 0.66676 0.0
H1758 H 0.72312 0.96658 0.79418 0.0
H1759 H 0.76309 0.98128 0.7338 0.0
Li1760 Li 0.77121 0.70215 0.04791 0.0
Li1761 Li 0.78864 0.67126 0.02486 0.0
Li1762 Li 0.76868 0.69834 0.99993 0.0
Li1763 Li 0.74482 0.66612 0.01997 0.0
C1764 C 0.81527 0.72459 0.03493 0.0
N1765 N 0.8524 0.76198 0.05198 0.0
C1766 C 0.83586 0.72091 0.04773 0.0
C1767 C 0.81355 0.74722 0.03069 0.0
C1768 C 0.85444 0.74006 0.05625 0.0
C1769 C 0.83253 0.76591 0.03949 0.0
C1770 C 0.76683 0.65124 0.06557 0.0
C1771 C 0.76084 0.61042 0.07102 0.0
N1772 N 0.7652 0.6167 0.0961 0.0
C1773 C 0.77118 0.6573 0.09139 0.0
C1774 C 0.76158 0.62763 0.05527 0.0
C1775 C 0.77031 0.63958 0.10651 0.0
C1776 C 0.75451 0.72482 0.09025 0.0
N1777 N 0.77416 0.72037 0.08129 0.0
C1778 C 0.79662 0.73433 0.12174 0.0
C1779 C 0.79503 0.72513 0.09655 0.0
C1780 C 0.77653 0.7386 0.13159 0.0
C1781 C 0.75533 0.73404 0.11534 0.0
H1782 H 0.73794 0.72039 0.07814 0.0
H1783 H 0.81033 0.72083 0.0895 0.0
C1784 C 0.82476 0.65136 0.00652 0.0
N1785 N 0.81416 0.65545 0.027 0.0
C1786 C 0.84297 0.63922 0.0075 0.0
C1787 C 0.83913 0.63597 0.05064 0.0
C1788 C 0.82128 0.64842 0.04894 0.0
C1789 C 0.85001 0.63109 0.02971 0.0
H1790 H 0.81892 0.65736 0.98938 0.0
H1791 H 0.81311 0.65239 0.06516 0.0
C1792 C 0.73083 0.71605 0.01499 0.0
N1793 N 0.70571 0.74843 1.00085 0.0
C1794 C 0.70905 0.70855 1.00019 0.0
C1795 C 0.73985 0.73994 0.0227 0.0
C1796 C 0.69662 0.72522 0.9932 0.0
C1797 C 0.72688 0.75606 0.01532 0.0
C1798 C 0.75932 0.64436 0.97601 0.0
C1799 C 0.74736 0.64595 0.9529 0.0
C1800 C 0.76526 0.62322 0.98056 0.0
C1801 C 0.74133 0.62624 0.93476 0.0
C1802 C 0.75891 0.6039 0.96194 0.0
N1803 N 0.74718 0.60579 0.93961 0.0
C1804 C 0.79237 0.72302 0.96324 0.0
C1805 C 0.75118 0.71289 0.95268 0.0
C1806 C 0.79489 0.73209 0.94062 0.0
N1807 N 0.77074 0.71362 0.96901 0.0
C1808 C 0.75294 0.72165 0.9298 0.0
C1809 C 0.77503 0.73137 0.92336 0.0
H1810 H 0.80782 0.72317 0.97606 0.0
H1811 H 0.73414 0.70501 0.95711 0.0
C1812 C 0.70839 0.63828 0.04092 0.0
N1813 N 0.7154 0.64323 0.01877 0.0
C1814 C 0.68742 0.62223 0.04169 0.0
C1815 C 0.68058 0.61704 0.99685 0.0
C1816 C 0.70199 0.63283 0.99691 0.0
C1817 C 0.67298 0.61174 0.01947 0.0
H1818 H 0.71886 0.64711 0.05813 0.0
H1819 H 0.7076 0.63716 0.9795 0.0
O1820 O 0.7971 0.70603 0.02606 0.0
O1821 O 0.76744 0.66837 0.05051 0.0
O1822 O 0.7431 0.70001 0.02223 0.0
O1823 O 0.76588 0.66365 0.99375 0.0
H1824 H 0.83746 0.70344 0.05104 0.0
H1825 H 0.79777 0.75026 0.02061 0.0
H1826 H 0.87049 0.7375 0.06621 0.0
H1827 H 0.83148 0.78353 0.03634 0.0
H1828 H 0.75673 0.59207 0.06331 0.0
H1829 H 0.77516 0.67549 0.09967 0.0
H1830 H 0.75785 0.62266 0.03535 0.0
H1831 H 0.77366 0.64401 0.12653 0.0
H1832 H 0.81327 0.73745 0.13364 0.0
H1833 H 0.73942 0.73697 0.12219 0.0
H1834 H 0.8512 0.63587 0.99108 0.0
H1835 H 0.84433 0.6301 0.0681 0.0
H1836 H 0.70187 0.69005 0.99417 0.0
H1837 H 0.75664 0.74593 0.03432 0.0
H1838 H 0.67973 0.7197 0.98173 0.0
H1839 H 0.73361 0.77464 0.02114 0.0
H1840 H 0.74276 0.66222 0.94903 0.0
H1841 H 0.77488 0.62179 0.99817 0.0
H1842 H 0.73204 0.6272 0.91679 0.0
H1843 H 0.76341 0.58743 0.9652 0.0
H1844 H 0.81226 0.73949 0.93656 0.0
H1845 H 0.73714 0.72075 0.91714 0.0
H1846 H 0.68199 0.61882 0.05949 0.0
H1847 H 0.66977 0.60946 0.97934 0.0
Li1848 Li 0.87815 0.50231 0.80352 0.0
Li1849 Li 0.91192 0.52732 0.82962 0.0
Li1850 Li 0.87841 0.54117 0.81404 0.0
Li1851 Li 0.90465 0.52956 0.7848 0.0
C1852 C 0.86483 0.52178 0.85443 0.0
N1853 N 0.83443 0.52787 0.88862 0.0
C1854 C 0.87247 0.52383 0.8799 0.0
C1855 C 0.84152 0.52222 0.8464 0.0
C1856 C 0.8569 0.52704 0.89689 0.0
C1857 C 0.82649 0.52553 0.86393 0.0
C1858 C 0.91804 0.48313 0.80543 0.0
C1859 C 0.93732 0.45182 0.7939 0.0
N1860 N 0.93086 0.44173 0.81401 0.0
C1861 C 0.9117 0.47254 0.82608 0.0
C1862 C 0.931 0.47275 0.78924 0.0
C1863 C 0.91829 0.45157 0.83004 0.0
C1864 C 0.8639 0.45713 0.77775 0.0
N1865 N 0.86116 0.47163 0.79788 0.0
C1866 C 0.83817 0.44024 0.81398 0.0
C1867 C 0.84839 0.46384 0.81567 0.0
C1868 C 0.84143 0.42484 0.79393 0.0
C1869 C 0.85399 0.43327 0.77533 0.0
H1870 H 0.87446 0.46402 0.76414 0.0
H1871 H 0.84685 0.47577 0.83157 0.0
C1872 C 0.93414 0.54428 0.8772 0.0
N1873 N 0.93577 0.53067 0.85597 0.0
C1874 C 0.9501 0.54557 0.89835 0.0
C1875 C 0.97011 0.52034 0.87462 0.0
C1876 C 0.95366 0.5194 0.85402 0.0
C1877 C 0.96792 0.53307 0.8971 0.0
H1878 H 0.92009 0.55361 0.87777 0.0
H1879 H 0.95501 0.50943 0.83662 0.0
C1880 C 0.85281 0.50979 0.76238 0.0
N1881 N 0.81818 0.48221 0.72666 0.0
C1882 C 0.85607 0.50761 0.73733 0.0
C1883 C 0.83155 0.49849 0.76908 0.0
C1884 C 0.83846 0.49346 0.71959 0.0
C1885 C 0.81439 0.48444 0.75083 0.0
C1886 C 0.9329 0.57072 0.81487 0.0
C1887 C 0.93411 0.59486 0.81856 0.0
C1888 C 0.95332 0.56234 0.81286 0.0
C1889 C 0.95583 0.61029 0.82023 0.0
C1890 C 0.97473 0.57834 0.81478 0.0
N1891 N 0.97553 0.60179 0.81836 0.0
C1892 C 0.87141 0.58291 0.83805 0.0
C1893 C 0.84226 0.56289 0.80467 0.0
C1894 C 0.86264 0.6032 0.83763 0.0
N1895 N 0.86172 0.56387 0.8209 0.0
C1896 C 0.83299 0.58264 0.80356 0.0
C1897 C 0.84422 0.60334 0.81909 0.0
H1898 H 0.88716 0.58301 0.85041 0.0
H1899 H 0.83524 0.54748 0.79119 0.0
C1900 C 0.91595 0.51087 0.74223 0.0
N1901 N 0.9195 0.5321 0.75633 0.0
C1902 C 0.92669 0.50837 0.72105 0.0
C1903 C 0.94519 0.54969 0.72947 0.0
C1904 C 0.93362 0.5515 0.75043 0.0
C1905 C 0.94159 0.52786 0.71462 0.0
H1906 H 0.90477 0.4958 0.74762 0.0
H1907 H 0.93624 0.56815 0.76212 0.0
O1908 O 0.87973 0.51789 0.83755 0.0
O1909 O 0.91167 0.50359 0.80104 0.0
O1910 O 0.86982 0.52393 0.7799 0.0
O1911 O 0.91175 0.5555 0.81333 0.0
H1912 H 0.89007 0.52244 0.88655 0.0
H1913 H 0.83506 0.52007 0.82686 0.0
H1914 H 0.86263 0.52867 0.91664 0.0
H1915 H 0.80848 0.52611 0.8579 0.0
H1916 H 0.94738 0.44361 0.78154 0.0
H1917 H 0.90174 0.48039 0.83886 0.0
H1918 H 0.93626 0.48084 0.77332 0.0
H1919 H 0.9134 0.44309 0.84586 0.0
H1920 H 0.82843 0.43393 0.82849 0.0
H1921 H 0.8566 0.4215 0.75968 0.0
H1922 H 0.94829 0.5557 0.91558 0.0
H1923 H 0.98397 0.51078 0.87329 0.0
H1924 H 0.87181 0.5171 0.73151 0.0
H1925 H 0.82839 0.50024 0.7882 0.0
H1926 H 0.84086 0.49157 0.70018 0.0
H1927 H 0.79803 0.47536 0.75588 0.0
H1928 H 0.9184 0.60159 0.82004 0.0
H1929 H 0.95261 0.54369 0.8097 0.0
H1930 H 0.95702 0.62903 0.82302 0.0
H1931 H 0.99071 0.57213 0.81333 0.0
H1932 H 0.87157 0.61913 0.84968 0.0
H1933 H 0.81871 0.58244 0.78911 0.0
H1934 H 0.92374 0.49129 0.70999 0.0
H1935 H 0.95682 0.56495 0.72495 0.0
Li1936 Li 0.80226 0.42582 0.52724 0.0
Li1937 Li 0.78123 0.45121 0.50254 0.0
Li1938 Li 0.79882 0.42165 0.4821 0.0
Li1939 Li 0.82213 0.45608 0.50555 0.0
C1940 C 0.75914 0.39488 0.49763 0.0
N1941 N 0.73014 0.35077 0.4879 0.0
C1942 C 0.73578 0.39208 0.48724 0.0
C1943 C 0.76778 0.3753 0.50313 0.0
C1944 C 0.72137 0.36962 0.48249 0.0
C1945 C 0.75285 0.35312 0.49799 0.0
C1946 C 0.81615 0.47969 0.54815 0.0
C1947 C 0.82907 0.52175 0.55589 0.0
N1948 N 0.84182 0.51986 0.57764 0.0
C1949 C 0.82926 0.47813 0.57062 0.0
C1950 C 0.8159 0.50164 0.54076 0.0
C1951 C 0.84216 0.49866 0.58526 0.0
C1952 C 0.82717 0.41028 0.56425 0.0
N1953 N 0.80483 0.41041 0.55492 0.0
C1954 C 0.78945 0.38612 0.58396 0.0
C1955 C 0.78602 0.399 0.56442 0.0
C1956 C 0.81238 0.38513 0.59329 0.0
C1957 C 0.83139 0.39757 0.58355 0.0
H1958 H 0.84168 0.41971 0.55628 0.0
H1959 H 0.76847 0.39953 0.55648 0.0
C1960 C 0.74413 0.4697 0.48127 0.0
N1961 N 0.75618 0.465 0.50214 0.0
C1962 C 0.72498 0.4801 0.48325 0.0
C1963 C 0.73128 0.47987 0.52791 0.0
C1964 C 0.75024 0.46977 0.5251 0.0
C1965 C 0.71853 0.48502 0.50685 0.0
H1966 H 0.74939 0.46535 0.46328 0.0
H1967 H 0.76021 0.46548 0.54114 0.0
C1968 C 0.84386 0.41468 0.4972 0.0
N1969 N 0.87947 0.39617 0.47959 0.0
C1970 C 0.85631 0.42522 0.47958 0.0
C1971 C 0.84949 0.39474 0.50586 0.0
C1972 C 0.87429 0.4156 0.47093 0.0
C1973 C 0.86752 0.38561 0.49669 0.0
C1974 C 0.80698 0.4704 0.46046 0.0
C1975 C 0.8205 0.46563 0.44182 0.0
C1976 C 0.80048 0.49204 0.46359 0.0
C1977 C 0.82754 0.48273 0.42675 0.0
C1978 C 0.80784 0.50866 0.44811 0.0
N1979 N 0.82111 0.50371 0.43018 0.0
C1980 C 0.78736 0.40534 0.43172 0.0
C1981 C 0.80095 0.37867 0.45639 0.0
C1982 C 0.78582 0.38977 0.41016 0.0
N1983 N 0.79518 0.39963 0.45408 0.0
C1984 C 0.7995 0.36252 0.4354 0.0
C1985 C 0.79213 0.36828 0.41209 0.0
H1986 H 0.78267 0.42209 0.43064 0.0
H1987 H 0.80691 0.37462 0.47448 0.0
C1988 C 0.86612 0.47116 0.5281 0.0
N1989 N 0.85129 0.47707 0.51022 0.0
C1990 C 0.88955 0.48236 0.53234 0.0
C1991 C 0.88192 0.50644 0.50044 0.0
C1992 C 0.85843 0.49491 0.49705 0.0
C1993 C 0.89762 0.49957 0.51778 0.0
H1994 H 0.85983 0.45699 0.53833 0.0
H1995 H 0.84636 0.49969 0.48333 0.0
O1996 O 0.77318 0.41682 0.50324 0.0
O1997 O 0.80345 0.45981 0.53357 0.0
O1998 O 0.82656 0.42405 0.50644 0.0
O1999 O 0.79946 0.45369 0.47499 0.0
H2000 H 0.72881 0.40715 0.48312 0.0
H2001 H 0.78581 0.37723 0.51132 0.0
H2002 H 0.7032 0.36718 0.47457 0.0
H2003 H 0.7593 0.3378 0.50211 0.0
H2004 H 0.82915 0.53887 0.55036 0.0
H2005 H 0.8295 0.46126 0.57665 0.0
H2006 H 0.80574 0.50309 0.52345 0.0
H2007 H 0.85245 0.49773 0.60267 0.0
H2008 H 0.77452 0.37669 0.59135 0.0
H2009 H 0.84926 0.39716 0.5906 0.0
H2010 H 0.71521 0.48397 0.4668 0.0
H2011 H 0.72646 0.48353 0.5463 0.0
H2012 H 0.85228 0.44073 0.47281 0.0
H2013 H 0.83993 0.38631 0.51941 0.0
H2014 H 0.88416 0.42363 0.45738 0.0
H2015 H 0.87204 0.37016 0.50319 0.0
H2016 H 0.82549 0.44889 0.43897 0.0
H2017 H 0.79005 0.49605 0.47793 0.0
H2018 H 0.83806 0.47931 0.41229 0.0
H2019 H 0.80303 0.52551 0.45038 0.0
H2020 H 0.78006 0.39447 0.39224 0.0
H2021 H 0.80443 0.34593 0.43721 0.0
H2022 H 0.90152 0.47678 0.54579 0.0
H2023 H 0.88796 0.51971 0.48897 0.0
Li2024 Li 0.62329 0.55367 0.31629 0.0
Li2025 Li 0.65598 0.57933 0.29796 0.0
Li2026 Li 0.62066 0.55315 0.26833 0.0
Li2027 Li 0.65169 0.53548 0.29184 0.0
C2028 C 0.60566 0.59272 0.30101 0.0
N2029 N 0.57299 0.61847 0.31258 0.0
C2030 C 0.61285 0.61462 0.31564 0.0
C2031 C 0.58193 0.5839 0.29216 0.0
C2032 C 0.59604 0.62738 0.3213 0.0
C2033 C 0.56566 0.59719 0.29826 0.0
C2034 C 0.67662 0.56267 0.34189 0.0
C2035 C 0.71722 0.56412 0.35628 0.0
N2036 N 0.71401 0.57254 0.37957 0.0
C2037 C 0.67368 0.57129 0.36595 0.0
C2038 C 0.69851 0.55897 0.33697 0.0
C2039 C 0.69282 0.5762 0.38476 0.0
C2040 C 0.61134 0.53103 0.35838 0.0
N2041 N 0.60742 0.54945 0.34662 0.0
C2042 C 0.58593 0.56112 0.37936 0.0
C2043 C 0.59478 0.56434 0.35668 0.0
C2044 C 0.5903 0.54258 0.39216 0.0
C2045 C 0.60299 0.5273 0.38111 0.0
H2046 H 0.62153 0.51944 0.35038 0.0
H2047 H 0.5919 0.57905 0.34749 0.0
C2048 C 0.67688 0.62013 0.27919 0.0
N2049 N 0.67827 0.60914 0.29981 0.0
C2050 C 0.6926 0.64122 0.27797 0.0
C2051 C 0.71116 0.63946 0.31919 0.0
C2052 C 0.695 0.61841 0.31968 0.0
C2053 C 0.71003 0.65114 0.29814 0.0
H2054 H 0.66357 0.61238 0.26355 0.0
H2055 H 0.69594 0.60951 0.3359 0.0
C2056 C 0.59854 0.50747 0.28388 0.0
N2057 N 0.56177 0.46879 0.2751 0.0
C2058 C 0.60206 0.48573 0.27386 0.0
C2059 C 0.57639 0.5096 0.28948 0.0
C2060 C 0.58323 0.46636 0.26954 0.0
C2061 C 0.558 0.48982 0.28488 0.0
C2062 C 0.67204 0.55839 0.25207 0.0
C2063 C 0.66611 0.55093 0.22654 0.0
C2064 C 0.69557 0.56654 0.26219 0.0
C2065 C 0.6839 0.55169 0.21151 0.0
C2066 C 0.71285 0.56708 0.24652 0.0
N2067 N 0.70671 0.55969 0.22173 0.0
C2068 C 0.61009 0.57091 0.22299 0.0
C2069 C 0.58848 0.53219 0.22226 0.0
C2070 C 0.60174 0.57066 0.19781 0.0
N2071 N 0.60361 0.5518 0.23473 0.0
C2072 C 0.57957 0.53127 0.19703 0.0
C2073 C 0.58645 0.55059 0.18439 0.0
H2074 H 0.62249 0.58615 0.23299 0.0
H2075 H 0.58385 0.51697 0.23159 0.0
C2076 C 0.67289 0.49979 0.30998 0.0
N2077 N 0.66795 0.51011 0.28949 0.0
C2078 C 0.68434 0.48103 0.30841 0.0
C2079 C 0.68541 0.48391 0.26476 0.0
C2080 C 0.67379 0.5024 0.2671 0.0
C2081 C 0.6908 0.47305 0.28557 0.0
H2082 H 0.66783 0.50606 0.32751 0.0
H2083 H 0.66921 0.51041 0.25094 0.0
O2084 O 0.62185 0.58012 0.29509 0.0
O2085 O 0.65799 0.55743 0.32338 0.0
O2086 O 0.61688 0.52644 0.28878 0.0
O2087 O 0.65485 0.55776 0.26704 0.0
H2088 H 0.63122 0.62165 0.3225 0.0
H2089 H 0.57619 0.56699 0.2807 0.0
H2090 H 0.60131 0.64437 0.3326 0.0
H2091 H 0.54721 0.59061 0.2916 0.0
H2092 H 0.73428 0.56135 0.35276 0.0
H2093 H 0.65678 0.57414 0.37004 0.0
H2094 H 0.70099 0.55209 0.31848 0.0
H2095 H 0.69082 0.58287 0.40349 0.0
H2096 H 0.57632 0.5734 0.38721 0.0
H2097 H 0.60683 0.51283 0.39027 0.0
H2098 H 0.69116 0.64974 0.26145 0.0
H2099 H 0.72436 0.64663 0.33512 0.0
H2100 H 0.61918 0.48382 0.26957 0.0
H2101 H 0.5735 0.52632 0.29742 0.0
H2102 H 0.58567 0.4494 0.26183 0.0
H2103 H 0.54075 0.49116 0.28915 0.0
H2104 H 0.64797 0.54445 0.21845 0.0
H2105 H 0.70042 0.57247 0.28189 0.0
H2106 H 0.67958 0.54591 0.19173 0.0
H2107 H 0.73114 0.57338 0.25408 0.0
H2108 H 0.60758 0.58584 0.18873 0.0
H2109 H 0.56793 0.51541 0.18728 0.0
H2110 H 0.68808 0.47284 0.32476 0.0
H2111 H 0.68993 0.47795 0.24681 0.0
Eu2112 Eu 0.07173 0.05441 0.05017 0.0
C2113 C 0.9955 0.96941 0.99115 0.0
N2114 N 1.00669 0.99062 0.9858 0.0
C2115 C 0.01127 0.97264 0.94552 0.0
C2116 C 0.99262 0.94887 0.97404 0.0
C2117 C 0.01346 0.99258 0.96287 0.0
C2118 C 1.00112 0.95065 0.95125 0.0
C2119 C 0.97337 0.94678 0.01881 0.0
C2120 C 0.9859 0.96831 0.01336 0.0
C2121 C 0.97115 0.92627 1.00211 0.0
C2122 C 0.98076 0.9273 0.97982 0.0
Eu2123 Eu 0.00866 0.02284 0.01678 0.0
N2124 N 0.9885 0.98834 0.02945 0.0
C2125 C 0.96296 0.94659 0.04067 0.0
C2126 C 0.97741 0.98849 0.05012 0.0
C2127 C 0.96472 0.96759 0.0562 0.0
H2128 H 0.0199 0.00944 0.95737 0.0
H2129 H 0.95631 0.9677 0.07285 0.0
H2130 H 0.05751 0.06827 0.10861 0.0
H2131 H 0.11698 0.11138 0.99037 0.0
H2132 H 0.97837 1.00469 0.06201 0.0
H2133 H 0.95314 0.93041 0.04546 0.0
H2134 H 0.09854 0.07372 1.00294 0.0
H2135 H 0.01703 0.97431 0.92753 0.0
H2136 H 0.96168 0.90957 0.00605 0.0
H2137 H 0.97849 0.91137 0.96691 0.0
H2138 H 0.05943 0.10337 0.13777 0.0
H2139 H 0.99921 0.93528 0.93761 0.0
H2140 H 0.11956 0.14845 0.0179 0.0
N2141 N 0.07131 0.0868 0.08015 0.0
C2142 C 0.08223 0.1081 0.07471 0.0
C2143 C 0.06555 0.10499 0.11993 0.0
C2144 C 0.08438 0.12873 0.09153 0.0
C2145 C 0.06389 0.08499 0.10286 0.0
C2146 C 0.07564 0.12696 0.11418 0.0
N2147 N 0.08889 0.08942 0.036 0.0
C2148 C 0.09871 0.08984 0.01455 0.0
C2149 C 0.10213 0.13131 0.04597 0.0
C2150 C 0.09122 0.10944 0.05214 0.0
C2151 C 0.11108 0.13198 0.02329 0.0
C2152 C 0.10957 0.11112 0.00763 0.0
H2153 H 0.07698 0.1424 0.12756 0.0
H2154 H 0.0968 0.16648 0.09796 0.0
H2155 H 0.11219 0.16873 0.05811 0.0
O2156 O 0.10823 0.05608 0.04621 0.0
O2157 O 0.04942 0.08036 0.0357 0.0
O2158 O 0.01441 0.0618 0.01186 0.0
O2159 O 0.09776 0.0576 0.08294 0.0
O2160 O 0.07017 0.03677 0.01036 0.0
O2161 O 0.03404 0.03948 0.9916 0.0
O2162 O 0.97623 0.03165 0.025 0.0
O2163 O 0.02868 0.99625 0.03275 0.0
O2164 O 0.06666 0.01403 0.05037 0.0
O2165 O 0.97879 0.0166 0.9869 0.0
O2166 O 0.01147 0.03757 0.05783 0.0
O2167 O 0.04828 0.03695 0.07586 0.0
C2168 C 0.0299 0.0812 0.02131 0.0
C2169 C 0.12941 0.03965 0.07616 0.0
C2170 C 0.1546 0.01405 0.06309 0.0
C2171 C 0.1626 0.0131 0.08806 0.0
C2172 C 0.13748 0.03873 0.10113 0.0
C2173 C 0.15374 0.02514 0.10702 0.0
C2174 C 0.13729 0.02638 0.05727 0.0
C2175 C 0.05617 0.03886 0.99058 0.0
C2176 C 0.11464 0.05604 0.06978 0.0
C2177 C 0.09514 0.15049 0.08529 0.0
C2178 C 0.10391 0.15179 0.06259 0.0
C2179 C 0.04952 0.99499 0.04386 0.0
C2180 C 0.94155 0.02588 0.99522 0.0
C2181 C 0.90715 0.03853 0.00682 0.0
C2182 C 0.89469 0.02857 0.98343 0.0
C2183 C 0.9292 0.01588 0.97173 0.0
C2184 C 0.93042 0.03725 0.01259 0.0
C2185 C 0.90577 0.01727 0.96589 0.0
C2186 C 0.02584 0.03489 0.07707 0.0
C2187 C 0.96582 0.02441 1.00231 0.0
H2188 H 0.176 1.00349 0.0928 0.0
H2189 H 0.1316 0.04887 0.11602 0.0
H2190 H 0.16005 0.02457 0.12627 0.0
H2191 H 0.13132 0.02685 0.03785 0.0
H2192 H 0.87658 0.02969 0.97879 0.0
H2193 H 0.93755 0.00696 0.95804 0.0
H2194 H 0.93976 0.04521 0.03076 0.0
H2195 H 0.89623 0.00958 0.9478 0.0
Eu2196 Eu 0.268 0.79002 0.31327 0.0
C2197 C 0.31624 0.7453 0.2122 0.0
N2198 N 0.32549 0.7571 0.23497 0.0
C2199 C 0.35232 0.73158 0.2396 0.0
C2200 C 0.32423 0.72558 0.20241 0.0
C2201 C 0.3439 0.75113 0.24837 0.0
C2202 C 0.34223 0.71854 0.21664 0.0
C2203 C 0.29049 0.74282 0.1738 0.0
C2204 C 0.29953 0.7537 0.19823 0.0
C2205 C 0.2976 0.72255 0.16428 0.0
C2206 C 0.31442 0.71392 0.17859 0.0
Eu2207 Eu 0.30867 0.78816 0.2502 0.0
N2208 N 0.293 0.77322 0.20811 0.0
C2209 C 0.27516 0.75306 0.15944 0.0
C2210 C 0.27966 0.78435 0.19346 0.0
C2211 C 0.2701 0.77419 0.16916 0.0
H2212 H 0.35196 0.76125 0.26599 0.0
H2213 H 0.25899 0.78275 0.15789 0.0
H2214 H 0.21345 0.79695 0.29297 0.0
H2215 H 0.3246 0.832 0.39946 0.0
H2216 H 0.27616 0.80105 0.20056 0.0
H2217 H 0.26784 0.74528 0.14057 0.0
H2218 H 0.30887 0.8006 0.36438 0.0
H2219 H 0.3666 0.72665 0.25053 0.0
H2220 H 0.29065 0.71379 0.14565 0.0
H2221 H 0.32016 0.6986 0.17081 0.0
H2222 H 0.18946 0.82636 0.29957 0.0
H2223 H 0.34884 0.70346 0.20981 0.0
H2224 H 0.3051 0.8653 0.40637 0.0
N2225 N 0.2417 0.81503 0.3206 0.0
C2226 C 0.24918 0.83305 0.33951 0.0
C2227 C 0.20633 0.82856 0.31081 0.0
C2228 C 0.23594 0.85022 0.34402 0.0
C2229 C 0.22011 0.81201 0.307 0.0
C2230 C 0.21445 0.84798 0.32911 0.0
N2231 N 0.28188 0.81681 0.35023 0.0
C2232 C 0.30058 0.81532 0.36668 0.0
C2233 C 0.27795 0.85208 0.37495 0.0
C2234 C 0.26987 0.83394 0.35481 0.0
C2235 C 0.29826 0.85166 0.39075 0.0
C2236 C 0.30935 0.83293 0.38687 0.0
H2237 H 0.20377 0.8608 0.33195 0.0
H2238 H 0.2346 0.88235 0.367 0.0
H2239 H 0.27144 0.884 0.39405 0.0
O2240 O 0.26792 0.76573 0.34043 0.0
O2241 O 0.28494 0.82741 0.30872 0.0
O2242 O 0.2944 0.80511 0.2801 0.0
O2243 O 0.23513 0.76786 0.31943 0.0
O2244 O 0.30634 0.78525 0.32139 0.0
O2245 O 0.32913 0.78537 0.28813 0.0
O2246 O 0.31609 0.82226 0.23771 0.0
O2247 O 0.30144 0.75494 0.26689 0.0
O2248 O 0.26851 0.76261 0.28023 0.0
O2249 O 0.34478 0.80655 0.24893 0.0
O2250 O 0.2688 0.78802 0.24037 0.0
O2251 O 0.24749 0.79026 0.2747 0.0
C2252 C 0.29606 0.82662 0.28982 0.0
C2253 C 0.23301 0.75048 0.35684 0.0
C2254 C 0.23281 0.73067 0.3935 0.0
C2255 C 0.20856 0.72881 0.39228 0.0
C2256 C 0.20866 0.74853 0.35569 0.0
C2257 C 0.19656 0.73784 0.37346 0.0
C2258 C 0.245 0.74168 0.376 0.0
C2259 C 0.32614 0.78413 0.3119 0.0
C2260 C 0.24533 0.75772 0.33612 0.0
C2261 C 0.24438 0.86883 0.36346 0.0
C2262 C 0.26535 0.86977 0.37887 0.0
C2263 C 0.28333 0.74867 0.27846 0.0
C2264 C 0.3473 0.82737 0.21423 0.0
C2265 C 0.34285 0.842 0.17445 0.0
C2266 C 0.36226 0.83345 0.1679 0.0
C2267 C 0.36688 0.81904 0.20758 0.0
C2268 C 0.33544 0.83897 0.19753 0.0
C2269 C 0.37425 0.82206 0.18448 0.0
C2270 C 0.24933 0.78969 0.25054 0.0
C2271 C 0.3383 0.82307 0.23779 0.0
H2272 H 0.19895 0.72009 0.40566 0.0
H2273 H 0.19887 0.7546 0.34069 0.0
H2274 H 0.17777 0.73608 0.37231 0.0
H2275 H 0.26366 0.74238 0.37677 0.0
H2276 H 0.36811 0.83564 0.15002 0.0
H2277 H 0.37631 0.80995 0.22004 0.0
H2278 H 0.3203 0.84556 0.20228 0.0
H2279 H 0.38923 0.81547 0.17938 0.0
Eu2280 Eu 0.50585 0.03339 0.54315 0.0
C2281 C 0.5907 0.07482 0.48403 0.0
N2282 N 0.57599 0.05332 0.48097 0.0
C2283 C 0.57078 0.05324 0.43676 0.0
C2284 C 0.59542 0.08668 0.46347 0.0
C2285 C 0.56693 0.04199 0.45764 0.0
C2286 C 0.58481 0.07581 0.4397 0.0
C2287 C 0.61832 0.10624 0.51135 0.0
C2288 C 0.60203 0.08457 0.50768 0.0
C2289 C 0.62247 0.1184 0.49103 0.0
C2290 C 0.61101 0.10867 0.46716 0.0
Eu2291 Eu 0.56945 0.0372 0.51812 0.0
N2292 N 0.5977 0.07248 0.52701 0.0
C2293 C 0.63029 0.11479 0.53527 0.0
C2294 C 0.60996 0.08016 0.55013 0.0
C2295 C 0.62628 0.10155 0.55469 0.0
H2296 H 0.55681 0.02419 0.45486 0.0
H2297 H 0.63576 0.10778 0.57314 0.0
H2298 H 0.51382 0.04461 0.60585 0.0
H2299 H 0.43724 0.96934 0.48191 0.0
H2300 H 0.60711 0.06985 0.56512 0.0
H2301 H 0.64298 0.13135 0.53884 0.0
H2302 H 0.46824 1.00569 0.49325 0.0
H2303 H 0.56311 0.04438 0.41837 0.0
H2304 H 0.63481 0.13514 0.4935 0.0
H2305 H 0.61472 0.11808 0.45159 0.0
H2306 H 0.50144 0.02472 0.64127 0.0
H2307 H 0.58792 0.08438 0.42345 0.0
H2308 H 0.4255 0.94485 0.51437 0.0
N2309 N 0.4941 0.01715 0.57852 0.0
C2310 C 0.4777 0.99672 0.57379 0.0
C2311 C 0.49482 0.01654 0.62239 0.0
C2312 C 0.4699 0.98487 0.59338 0.0
C2313 C 0.50193 0.02769 0.60236 0.0
C2314 C 0.479 0.99485 0.61789 0.0
N2315 N 0.47467 1.00068 0.53095 0.0
C2316 C 0.46341 0.99472 0.50721 0.0
C2317 C 0.44987 0.96771 0.54394 0.0
C2318 C 0.46767 0.98829 0.54935 0.0
C2319 C 0.43923 0.96058 0.51928 0.0
C2320 C 0.4458 0.97435 0.50089 0.0
H2321 H 0.47343 0.98629 0.63345 0.0
H2322 H 0.44683 0.95436 0.60278 0.0
H2323 H 0.42939 0.93929 0.55951 0.0
O2324 O 0.47533 0.04538 0.52665 0.0
O2325 O 0.51014 0.99662 0.52555 0.0
O2326 O 0.54947 0.99948 0.52042 0.0
O2327 O 0.49137 0.05912 0.56453 0.0
O2328 O 0.51494 0.04397 0.5066 0.0
O2329 O 0.5375 0.02098 0.49052 0.0
O2330 O 0.59729 0.02428 0.53888 0.0
O2331 O 0.55743 0.07285 0.52448 0.0
O2332 O 0.53274 0.06859 0.55482 0.0
O2333 O 0.59289 0.01987 0.49864 0.0
O2334 O 0.56602 0.04598 0.55815 0.0
O2335 O 0.53357 0.02407 0.56979 0.0
C2336 C 0.52819 0.98682 0.52125 0.0
C2337 C 0.45112 0.05872 0.55475 0.0
C2338 C 0.41599 0.07492 0.55362 0.0
C2339 C 0.40869 0.06182 0.57242 0.0
C2340 C 0.44344 0.04565 0.57342 0.0
C2341 C 0.42231 0.04721 0.58215 0.0
C2342 C 0.43719 0.07316 0.54466 0.0
C2343 C 0.51853 0.02924 0.48856 0.0
C2344 C 0.47432 0.0589 0.54697 0.0
C2345 C 0.45285 0.96384 0.58797 0.0
C2346 C 0.44289 0.95526 0.56332 0.0
C2347 C 0.54583 0.08197 0.54136 0.0
C2348 C 0.63064 0.02068 0.51891 0.0
C2349 C 0.66648 1.00561 0.52296 0.0
C2350 C 0.67821 0.02546 0.51372 0.0
C2351 C 0.64273 0.04044 0.50991 0.0
C2352 C 0.64267 1.00348 0.52586 0.0
C2353 C 0.66644 0.04283 0.50747 0.0
C2354 C 0.55631 0.03133 0.57206 0.0
C2355 C 0.60512 0.01659 0.51883 0.0
H2356 H 0.3924 0.06294 0.57953 0.0
H2357 H 0.45392 0.03458 0.58159 0.0
H2358 H 0.41657 0.03722 0.59668 0.0
H2359 H 0.44301 0.08337 0.53028 0.0
H2360 H 0.69653 0.02747 0.51134 0.0
H2361 H 0.63374 0.05373 0.50422 0.0
H2362 H 0.63339 0.98813 0.53276 0.0
H2363 H 0.67563 0.05802 0.50033 0.0
Eu2364 Eu 0.31589 0.27741 0.78263 0.0
C2365 C 0.23254 0.31176 0.7265 0.0
N2366 N 0.24754 0.32251 0.7473 0.0
C2367 C 0.2533 0.35897 0.73066 0.0
C2368 C 0.22801 0.32427 0.70657 0.0
C2369 C 0.2574 0.34591 0.74991 0.0
C2370 C 0.23868 0.3481 0.70885 0.0
C2371 C 0.2077 0.27617 0.70279 0.0
C2372 C 0.2223 0.28788 0.72466 0.0
C2373 C 0.20314 0.2887 0.68304 0.0
C2374 C 0.21323 0.31265 0.68494 0.0
Eu2375 Eu 0.25257 0.29864 0.77854 0.0
N2376 N 0.22774 0.27586 0.74367 0.0
C2377 C 0.19839 0.25209 0.70122 0.0
C2378 C 0.21834 0.25248 0.74243 0.0
C2379 C 0.20367 0.24024 0.72116 0.0
H2380 H 0.2681 0.35477 0.76695 0.0
H2381 H 0.19646 0.22165 0.72014 0.0
H2382 H 0.31464 0.21992 0.77708 0.0
H2383 H 0.3775 0.34831 0.84422 0.0
H2384 H 0.22209 0.24311 0.7577 0.0
H2385 H 0.18714 0.24249 0.6847 0.0
H2386 H 0.34942 0.33027 0.80663 0.0
H2387 H 0.2613 0.37747 0.73273 0.0
H2388 H 0.19197 0.27997 0.6661 0.0
H2389 H 0.20961 0.322 0.66945 0.0
H2390 H 0.33059 0.19187 0.801 0.0
H2391 H 0.23562 0.35829 0.69395 0.0
H2392 H 0.38948 0.32334 0.87472 0.0
N2393 N 0.33004 0.24941 0.80417 0.0
C2394 C 0.34453 0.25775 0.82582 0.0
C2395 C 0.33452 0.21033 0.80827 0.0
C2396 C 0.35373 0.24241 0.84024 0.0
C2397 C 0.32555 0.22621 0.79479 0.0
C2398 C 0.34822 0.21839 0.83137 0.0
N2399 N 0.34431 0.29602 0.81685 0.0
C2400 C 0.35429 0.31944 0.82009 0.0
C2401 C 0.36825 0.29116 0.85377 0.0
C2402 C 0.35189 0.2818 0.83237 0.0
C2403 C 0.37693 0.31546 0.85845 0.0
C2404 C 0.37025 0.32962 0.84127 0.0
H2405 H 0.35506 0.20604 0.84182 0.0
H2406 H 0.37596 0.24007 0.87388 0.0
H2407 H 0.38851 0.28279 0.88585 0.0
O2408 O 0.34419 0.29528 0.76374 0.0
O2409 O 0.30919 0.29807 0.81867 0.0
O2410 O 0.26922 0.29727 0.8179 0.0
O2411 O 0.3342 0.25768 0.75806 0.0
O2412 O 0.30777 0.30867 0.76591 0.0
O2413 O 0.28571 0.32781 0.78838 0.0
O2414 O 0.21724 0.28918 0.78936 0.0
O2415 O 0.26659 0.28733 0.74268 0.0
O2416 O 0.28667 0.25919 0.75164 0.0
O2417 O 0.23444 0.32549 0.79208 0.0
O2418 O 0.25223 0.26332 0.79102 0.0
O2419 O 0.28604 0.24832 0.79069 0.0
C2420 C 0.29072 0.30076 0.8297 0.0
C2421 C 0.37392 0.27435 0.75573 0.0
C2422 C 0.41099 0.27726 0.73829 0.0
C2423 C 0.4204 0.26844 0.75907 0.0
C2424 C 0.38399 0.26576 0.77632 0.0
C2425 C 0.40702 0.26285 0.77796 0.0
C2426 C 0.38762 0.28033 0.73672 0.0
C2427 C 0.30506 0.32807 0.77822 0.0
C2428 C 0.34894 0.27595 0.75365 0.0
C2429 C 0.36897 0.2516 0.86236 0.0
C2430 C 0.37615 0.27594 0.86917 0.0
C2431 C 0.2763 0.26994 0.73525 0.0
C2432 C 0.2075 0.31566 0.82098 0.0
C2433 C 0.1764 0.31004 0.84779 0.0
C2434 C 0.19049 0.32753 0.86586 0.0
C2435 C 0.22081 0.33348 0.83932 0.0
C2436 C 0.18513 0.30379 0.8254 0.0
C2437 C 0.21253 0.33909 0.86166 0.0
C2438 C 0.26403 0.24699 0.79517 0.0
C2439 C 0.21623 0.31071 0.79677 0.0
H2440 H 0.43825 0.26595 0.7607 0.0
H2441 H 0.37397 0.26099 0.79104 0.0
H2442 H 0.41451 0.25609 0.79389 0.0
H2443 H 0.38012 0.28704 0.72073 0.0
H2444 H 0.18421 0.3325 0.88316 0.0
H2445 H 0.23745 0.34356 0.8362 0.0
H2446 H 0.17433 0.29033 0.81132 0.0
H2447 H 0.22306 0.35283 0.87559 0.0
Eu2448 Eu 0.04745 1.00172 0.53007 0.0
C2449 C 0.01427 0.0881 0.58479 0.0
N2450 N 1.0037 0.07218 0.56466 0.0
C2451 C 0.96705 0.06787 0.58109 0.0
C2452 C 1.0017 0.09381 0.60434 0.0
C2453 C 0.98012 0.06292 0.56209 0.0
C2454 C 0.97793 0.08313 0.60245 0.0
C2455 C 0.04896 0.11609 0.606 0.0
C2456 C 0.03763 0.09915 0.5857 0.0
C2457 C 0.03672 0.12118 0.62584 0.0
C2458 C 0.01314 0.11008 0.625 0.0
Eu2459 Eu 0.02802 0.06515 0.53395 0.0
N2460 N 0.04917 0.09373 0.56642 0.0
C2461 C 0.07213 0.12777 0.60547 0.0
C2462 C 0.07105 0.10621 0.56489 0.0
C2463 C 0.08309 0.12307 0.58461 0.0
H2464 H 0.971 0.05215 0.5452 0.0
H2465 H 0.1007 0.13255 0.58364 0.0
H2466 H 0.09877 0.01324 0.5082 0.0
H2467 H 0.9681 0.93446 0.49335 0.0
H2468 H 0.07917 0.10302 0.54844 0.0
H2469 H 0.08145 0.14091 0.6207 0.0
H2470 H 0.99422 0.96397 0.52499 0.0
H2471 H 0.94848 0.06016 0.57907 0.0
H2472 H 0.04518 0.134 0.64171 0.0
H2473 H 1.00381 0.11447 0.64028 0.0
H2474 H 0.11536 1.00287 0.46995 0.0
H2475 H 0.9677 0.08702 0.61708 0.0
H2476 H 0.98066 0.92434 0.45255 0.0
N2477 N 0.06472 0.99271 0.49451 0.0
C2478 C 0.05113 0.97644 0.47628 0.0
C2479 C 0.09722 0.99549 0.47138 0.0
C2480 C 0.05995 0.96979 0.45424 0.0
C2481 C 0.08772 1.0015 0.49292 0.0
C2482 C 0.08319 0.97978 0.45182 0.0
N2483 N 0.02054 0.97263 0.5016 0.0
C2484 C 0.99959 0.96072 0.50694 0.0
C2485 C 0.01421 0.94887 0.46145 0.0
C2486 C 0.02841 0.96625 0.47985 0.0
C2487 C 0.99207 0.93777 0.46622 0.0
C2488 C 0.98487 0.9435 0.48919 0.0
H2489 H 0.09062 0.9751 0.43518 0.0
H2490 H 0.05193 0.94791 0.41843 0.0
H2491 H 0.01195 0.92955 0.42475 0.0
O2492 O 0.04476 0.96601 0.53975 0.0
O2493 O 0.04169 0.01853 0.49395 0.0
O2494 O 0.01205 0.03743 0.50082 0.0
O2495 O 0.07775 0.99082 0.54849 0.0
O2496 O 0.01297 1.00253 0.54485 0.0
O2497 O 0.99831 0.03256 0.52913 0.0
O2498 O 0.03738 0.09147 0.50787 0.0
O2499 O 0.05111 0.05806 0.56819 0.0
O2500 O 0.04108 0.01803 0.56786 0.0
O2501 O 1.00551 0.08872 0.5252 0.0
O2502 O 0.06216 0.063 0.51881 0.0
O2503 O 0.07741 0.03442 0.53714 0.0
C2504 C 0.02408 0.02767 0.48547 0.0
C2505 C 0.0705 0.96042 0.57469 0.0
C2506 C 0.06387 0.92862 0.60081 0.0
C2507 C 0.08171 0.94207 0.61897 0.0
C2508 C 0.08861 0.97296 0.59318 0.0
C2509 C 0.0939 0.96401 0.61518 0.0
C2510 C 0.05807 0.938 0.57865 0.0
C2511 C 0.99549 0.01256 0.53848 0.0
C2512 C 0.06621 0.96986 0.55065 0.0
C2513 C 0.0455 0.95315 0.43556 0.0
C2514 C 0.02271 0.94271 0.43916 0.0
C2515 C 0.05021 0.03925 0.57957 0.0
C2516 C 0.01039 0.11785 0.49729 0.0
C2517 C 0.01636 0.15149 0.47391 0.0
C2518 C 0.99289 0.15278 0.47471 0.0
C2519 C 0.9869 0.11974 0.49751 0.0
C2520 C 0.02521 0.13381 0.48515 0.0
C2521 C 0.9783 0.137 0.48634 0.0
C2522 C 0.07993 0.05425 0.52737 0.0
C2523 C 0.01841 0.0993 0.5103 0.0
H2524 H 0.08644 0.93537 0.63608 0.0
H2525 H 0.09917 0.98954 0.59048 0.0
H2526 H 0.10787 0.97397 0.62923 0.0
H2527 H 0.0444 0.92772 0.56446 0.0
H2528 H 0.98581 0.16614 0.46621 0.0
H2529 H 0.97498 0.1078 0.50642 0.0
H2530 H 0.04334 0.13273 0.4847 0.0
H2531 H 0.96021 0.13819 0.48676 0.0
Eu2532 Eu 0.28603 0.8162 0.77301 0.0
C2533 C 0.24345 0.73259 0.82967 0.0
N2534 N 0.26522 0.74698 0.83387 0.0
C2535 C 0.26304 0.75223 0.8777 0.0
C2536 C 0.23023 0.72847 0.8494 0.0
C2537 C 0.27563 0.75555 0.85767 0.0
C2538 C 0.2401 0.739 0.8735 0.0
C2539 C 0.2125 0.70545 0.80108 0.0
C2540 C 0.23455 0.72113 0.80571 0.0
C2541 C 0.19904 0.70206 0.82056 0.0
C2542 C 0.20785 0.71356 0.84462 0.0
Eu2543 Eu 0.28362 0.75183 0.79773 0.0
N2544 N 0.2475 0.72519 0.78688 0.0
C2545 C 0.2048 0.69334 0.77704 0.0
C2546 C 0.24112 0.71204 0.76406 0.0
C2547 C 0.21939 0.69633 0.75856 0.0
H2548 H 0.29377 0.76474 0.86157 0.0
H2549 H 0.21399 0.68641 0.7402 0.0
H2550 H 0.29004 0.80379 0.71134 0.0
H2551 H 0.33691 0.8873 0.84203 0.0
H2552 H 0.25286 0.71392 0.75021 0.0
H2553 H 0.18796 0.68115 0.77275 0.0
H2554 H 0.30435 0.85332 0.82567 0.0
H2555 H 0.27118 0.75961 0.89642 0.0
H2556 H 0.18193 0.69028 0.8173 0.0
H2557 H 0.19741 0.71041 0.85954 0.0
H2558 H 0.31789 0.81593 0.68251 0.0
H2559 H 0.23047 0.73631 0.88912 0.0
H2560 H 0.36713 0.90085 0.81559 0.0
N2561 N 0.31064 0.82612 0.74287 0.0
C2562 C 0.32956 0.84402 0.75113 0.0
C2563 C 0.3215 0.82379 0.7018 0.0
C2564 C 0.34557 0.85201 0.73492 0.0
C2565 C 0.3059 0.81667 0.71839 0.0
C2566 C 0.34155 0.84135 0.71014 0.0
N2567 N 0.3168 0.84736 0.79102 0.0
C2568 C 0.31772 0.85897 0.81426 0.0
C2569 C 0.35132 0.8744 0.78418 0.0
C2570 C 0.33253 0.85508 0.77567 0.0
C2571 C 0.35298 0.8859 0.80842 0.0
C2572 C 0.33597 0.8783 0.82343 0.0
H2573 H 0.35348 0.84698 0.69715 0.0
H2574 H 0.37725 0.877 0.73149 0.0
H2575 H 0.3822 0.89662 0.77448 0.0
O2576 O 0.27049 0.84511 0.78705 0.0
O2577 O 0.32311 0.80713 0.78311 0.0
O2578 O 0.32143 0.77436 0.80436 0.0
O2579 O 0.26962 0.83578 0.7473 0.0
O2580 O 0.27688 0.80729 0.81018 0.0
O2581 O 0.29864 0.78329 0.82613 0.0
O2582 O 0.29715 0.72357 0.77849 0.0
O2583 O 0.24691 0.7591 0.78203 0.0
O2584 O 0.24831 0.79576 0.76929 0.0
O2585 O 0.29484 0.7251 0.81772 0.0
O2586 O 0.2949 0.76179 0.762 0.0
O2587 O 0.27375 0.78481 0.74355 0.0
C2588 C 0.33348 0.79244 0.79519 0.0
C2589 C 0.26747 0.87486 0.76155 0.0
C2590 C 0.25239 0.91068 0.76487 0.0
C2591 C 0.2699 0.92098 0.75153 0.0
C2592 C 0.285 0.8855 0.74844 0.0
C2593 C 0.2862 0.9085 0.74354 0.0
C2594 C 0.25144 0.88766 0.77014 0.0
C2595 C 0.29135 0.80287 0.82807 0.0
C2596 C 0.26439 0.85 0.76488 0.0
C2597 C 0.36474 0.87072 0.74369 0.0
C2598 C 0.36756 0.88192 0.76819 0.0
C2599 C 0.23639 0.77527 0.77317 0.0
C2600 C 0.326 0.71034 0.80358 0.0
C2601 C 0.35278 0.68369 0.80088 0.0
C2602 C 0.3708 0.70129 0.81474 0.0
C2603 C 0.34421 0.72761 0.81769 0.0
C2604 C 0.33039 0.68837 0.79503 0.0
C2605 C 0.36653 0.72315 0.823 0.0
C2606 C 0.28105 0.76524 0.74321 0.0
C2607 C 0.30225 0.71483 0.79878 0.0
H2608 H 0.27095 0.93873 0.74737 0.0
H2609 H 0.29748 0.87595 0.74162 0.0
H2610 H 0.29965 0.91658 0.73328 0.0
H2611 H 0.23784 0.87956 0.78028 0.0
H2612 H 0.38817 0.69802 0.81927 0.0
H2613 H 0.34118 0.74452 0.82476 0.0
H2614 H 0.31642 0.67486 0.7843 0.0
H2615 H 0.38049 0.73661 0.83375 0.0
Eu2616 Eu 0.52872 0.04765 0.00526 0.0
C2617 C 0.60006 0.01743 0.08473 0.0
N2618 N 0.581 1.00301 0.07093 0.0
C2619 C 0.60424 0.97535 0.0596 0.0
C2620 C 0.62235 0.01187 0.08565 0.0
C2621 C 0.58253 0.98164 0.05941 0.0
C2622 C 0.62435 0.99075 0.07239 0.0
C2623 C 0.61596 0.05152 0.11539 0.0
C2624 C 0.59686 0.03689 0.09935 0.0
C2625 C 0.63852 0.04702 0.11517 0.0
C2626 C 0.64171 0.02717 0.10035 0.0
Eu2627 Eu 0.54551 0.0163 0.0681 0.0
N2628 N 0.57475 0.04043 0.0993 0.0
C2629 C 0.61164 0.06965 0.13184 0.0
C2630 C 0.57027 0.05659 0.11701 0.0
C2631 C 0.58858 0.07181 0.13308 0.0
H2632 H 0.56704 0.96926 0.05008 0.0
H2633 H 0.58484 0.085 0.1466 0.0
H2634 H 0.54865 0.10518 0.01473 0.0
H2635 H 0.44427 0.99575 0.95886 0.0
H2636 H 0.55263 0.05757 0.11913 0.0
H2637 H 0.6258 0.08132 0.14443 0.0
H2638 H 0.48578 1.00274 0.97735 0.0
H2639 H 0.60541 0.95857 0.05003 0.0
H2640 H 0.65346 0.0583 0.12703 0.0
H2641 H 0.65906 0.02345 0.10095 0.0
H2642 H 0.53427 0.14127 0.00825 0.0
H2643 H 0.64115 0.98582 0.07261 0.0
H2644 H 0.42481 0.02918 0.95622 0.0
N2645 N 0.51559 0.08248 1.00165 0.0
C2646 C 0.49299 0.08036 0.99171 0.0
C2647 C 0.52244 0.12426 0.00365 0.0
C2648 C 0.48391 0.10031 0.98793 0.0
C2649 C 0.53049 0.10392 0.00744 0.0
C2650 C 0.49899 0.12246 0.99401 0.0
N2651 N 0.48922 0.0395 0.98663 0.0
C2652 C 0.4773 0.01739 0.97676 0.0
C2653 C 0.45578 0.05508 0.97337 0.0
C2654 C 0.47922 0.05813 0.98437 0.0
C2655 C 0.44292 0.03229 0.96469 0.0
C2656 C 0.45385 0.01338 0.9661 0.0
H2657 H 0.49275 0.13823 0.99121 0.0
H2658 H 0.45293 0.11256 0.97488 0.0
H2659 H 0.42821 0.07291 0.96231 0.0
O2660 O 0.52782 0.0514 0.96603 0.0
O2661 O 0.50882 0.01745 0.02084 0.0
O2662 O 0.50901 0.02295 0.06198 0.0
O2663 O 0.56075 0.05069 0.98782 0.0
O2664 O 0.52948 0.00839 0.99552 0.0
O2665 O 0.54498 0.99349 0.03015 0.0
O2666 O 0.54178 1.00055 0.10224 0.0
O2667 O 0.5651 0.02799 0.03794 0.0
O2668 O 0.56243 0.06381 0.03017 0.0
O2669 O 0.52278 0.98212 0.06702 0.0
O2670 O 0.53489 0.05222 0.07669 0.0
O2671 O 0.528 0.07146 0.04198 0.0
C2672 C 0.49767 0.02097 0.0397 0.0
C2673 C 0.5625 0.07054 0.95255 0.0
C2674 C 0.58786 0.0794 0.92127 0.0
C2675 C 0.58366 0.10212 0.92269 0.0
C2676 C 0.55799 0.09316 0.95356 0.0
C2677 C 0.56886 0.10901 0.93898 0.0
C2678 C 0.57775 0.06385 0.93664 0.0
C2679 C 0.53818 0.99186 0.00576 0.0
C2680 C 0.55025 0.05293 0.96622 0.0
C2681 C 0.46033 0.09745 0.97773 0.0
C2682 C 0.44624 0.07487 0.97059 0.0
C2683 C 0.57479 0.05007 0.03964 0.0
C2684 C 0.50282 0.97873 0.10167 0.0
C2685 C 0.47749 0.98931 0.13134 0.0
C2686 C 0.4593 0.97083 0.11941 0.0
C2687 C 0.48447 0.96015 0.09004 0.0
C2688 C 0.49916 0.99343 0.12233 0.0
C2689 C 0.46281 0.95634 0.09881 0.0
C2690 C 0.5291 0.07026 0.06638 0.0
C2691 C 0.52507 0.98309 0.09111 0.0
H2692 H 0.59142 0.11425 0.91084 0.0
H2693 H 0.54568 0.09839 0.96499 0.0
H2694 H 0.56531 0.12642 0.93981 0.0
H2695 H 0.58086 0.0462 0.93529 0.0
H2696 H 0.44247 0.96755 0.1262 0.0
H2697 H 0.48682 0.94873 0.07396 0.0
H2698 H 0.51298 0.00797 0.1315 0.0
H2699 H 0.44872 0.9421 0.08966 0.0
Eu2700 Eu 0.27656 0.25844 0.26548 0.0
C2701 C 0.35749 0.32297 0.33511 0.0
N2702 N 0.33469 0.31554 0.33853 0.0
C2703 C 0.34696 0.31089 0.38076 0.0
C2704 C 0.37593 0.32372 0.3543 0.0
C2705 C 0.32926 0.31048 0.3613 0.0
C2706 C 0.37038 0.31728 0.37717 0.0
C2707 C 0.38606 0.33737 0.30831 0.0
C2708 C 0.36256 0.33009 0.3124 0.0
C2709 C 0.40433 0.33786 0.32734 0.0
C2710 C 0.39929 0.33112 0.35026 0.0
Eu2711 Eu 0.30647 0.31758 0.30479 0.0
N2712 N 0.34457 0.32909 0.29402 0.0
C2713 C 0.39054 0.34379 0.28511 0.0
C2714 C 0.34889 0.33544 0.27144 0.0
C2715 C 0.37187 0.34281 0.26661 0.0
H2716 H 0.31132 0.30673 0.36492 0.0
H2717 H 0.37515 0.34753 0.24852 0.0
H2718 H 0.26895 0.25759 0.20317 0.0
H2719 H 0.21894 0.20769 0.32101 0.0
H2720 H 0.33473 0.33415 0.25687 0.0
H2721 H 0.40835 0.3494 0.28124 0.0
H2722 H 0.25641 0.22876 0.31062 0.0
H2723 H 0.34249 0.30656 0.39862 0.0
H2724 H 0.42246 0.34345 0.32451 0.0
H2725 H 0.41362 0.33177 0.3648 0.0
H2726 H 0.23678 0.24592 0.16808 0.0
H2727 H 0.38405 0.31769 0.39236 0.0
H2728 H 0.18305 0.20058 0.29042 0.0
N2729 N 0.24701 0.24778 0.23043 0.0
C2730 C 0.22542 0.23683 0.23466 0.0
C2731 C 0.23327 0.24359 0.18677 0.0
C2732 C 0.20655 0.22987 0.21516 0.0
C2733 C 0.25139 0.25038 0.20673 0.0
C2734 C 0.21063 0.2338 0.19108 0.0
N2735 N 0.24159 0.23631 0.27599 0.0
C2736 C 0.24076 0.22698 0.29773 0.0
C2737 C 0.20089 0.21814 0.26284 0.0
C2738 C 0.22262 0.23093 0.25815 0.0
C2739 C 0.1994 0.2105 0.2861 0.0
C2740 C 0.21958 0.21451 0.30343 0.0
H2741 H 0.19664 0.22856 0.17557 0.0
H2742 H 0.16977 0.21306 0.20538 0.0
H2743 H 0.1648 0.20287 0.24721 0.0
O2744 O 0.29661 0.23277 0.27582 0.0
O2745 O 0.24878 0.27483 0.28407 0.0
O2746 O 0.26586 0.31398 0.29726 0.0
O2747 O 0.27676 0.22814 0.239 0.0
O2748 O 0.2912 0.25874 0.30658 0.0
O2749 O 0.28528 0.29256 0.32666 0.0
O2750 O 0.31535 0.35532 0.30492 0.0
O2751 O 0.32927 0.29062 0.29354 0.0
O2752 O 0.31209 0.27536 0.25465 0.0
O2753 O 0.30483 0.34142 0.33782 0.0
O2754 O 0.29399 0.32362 0.26545 0.0
O2755 O 0.28244 0.28763 0.24068 0.0
C2756 C 0.24706 0.29636 0.29278 0.0
C2757 C 0.27939 0.19416 0.25706 0.0
C2758 C 0.286 0.15904 0.27301 0.0
C2759 C 0.26525 0.14602 0.25864 0.0
C2760 C 0.25841 0.1812 0.24279 0.0
C2761 C 0.25135 0.1572 0.24378 0.0
C2762 C 0.29266 0.18311 0.27268 0.0
C2763 C 0.2861 0.27051 0.32648 0.0
C2764 C 0.28865 0.21877 0.255 0.0
C2765 C 0.18452 0.2183 0.22007 0.0
C2766 C 0.18169 0.21249 0.24389 0.0
C2767 C 0.33129 0.28125 0.27086 0.0
C2768 C 0.29296 0.37578 0.32898 0.0
C2769 C 0.27152 0.40249 0.31113 0.0
C2770 C 0.26269 0.40676 0.33361 0.0
C2771 C 0.2842 0.38026 0.35153 0.0
C2772 C 0.28614 0.38665 0.30865 0.0
C2773 C 0.26894 0.39553 0.35372 0.0
C2774 C 0.28721 0.31085 0.24347 0.0
C2775 C 0.30927 0.35998 0.32682 0.0
H2776 H 0.26003 0.12728 0.2588 0.0
H2777 H 0.24769 0.18944 0.23066 0.0
H2778 H 0.23534 0.14719 0.23264 0.0
H2779 H 0.30891 0.19294 0.28365 0.0
H2780 H 0.2512 0.41892 0.33562 0.0
H2781 H 0.28917 0.37197 0.36745 0.0
H2782 H 0.29265 0.3835 0.29106 0.0
H2783 H 0.26218 0.39887 0.37109 0.0
Eu2784 Eu 0.54769 0.50364 0.03037 0.0
C2785 C 0.50009 0.59011 0.07216 0.0
N2786 N 0.49615 0.57569 0.05016 0.0
C2787 C 0.45515 0.57553 0.04645 0.0
C2788 C 0.48127 0.59681 0.08283 0.0
C2789 C 0.4743 0.56898 0.03679 0.0
C2790 C 0.45859 0.58917 0.06977 0.0
C2791 C 0.52762 0.61514 0.10563 0.0
C2792 C 0.52309 0.59944 0.08327 0.0
C2793 C 0.50881 0.62059 0.11711 0.0
C2794 C 0.48571 0.61158 0.10567 0.0
Eu2795 Eu 0.52948 0.56728 0.03449 0.0
N2796 N 0.54099 0.59435 0.07149 0.0
C2797 C 0.55092 0.62562 0.11532 0.0
C2798 C 0.56363 0.60608 0.0798 0.0
C2799 C 0.56897 0.62136 0.10211 0.0
H2800 H 0.47179 0.55845 0.01875 0.0
H2801 H 0.58698 0.63001 0.10898 0.0
H2802 H 0.60589 0.50826 0.04302 0.0
H2803 H 0.48451 0.44876 0.95514 0.0
H2804 H 0.57765 0.60318 0.06939 0.0
H2805 H 0.55508 0.63769 0.1325 0.0
H2806 H 0.49687 0.47385 0.99546 0.0
H2807 H 0.43776 0.56993 0.03603 0.0
H2808 H 0.51197 0.63244 0.1344 0.0
H2809 H 0.47144 0.61665 0.11432 0.0
H2810 H 0.63748 0.49532 0.02255 0.0
H2811 H 0.4437 0.59411 0.07727 0.0
H2812 H 0.51425 0.43765 0.9303 0.0
N2813 N 0.57936 0.49321 0.01256 0.0
C2814 C 0.57361 0.47927 0.9902 0.0
C2815 C 0.61965 0.49092 0.01315 0.0
C2816 C 0.59109 0.47155 0.97786 0.0
C2817 C 0.60179 0.49843 0.02456 0.0
C2818 C 0.61434 0.47779 0.98952 0.0
N2819 N 0.53339 0.47805 0.99305 0.0
C2820 C 0.51009 0.46951 0.98472 0.0
C2821 C 0.54368 0.45687 0.95713 0.0
C2822 C 0.55007 0.47165 0.9801 0.0
C2823 C 0.51983 0.44894 0.94792 0.0
C2824 C 0.50298 0.45514 0.96189 0.0
H2825 H 0.62823 0.47207 0.98069 0.0
H2826 H 0.59802 0.45142 0.94486 0.0
H2827 H 0.55659 0.43884 0.9266 0.0
O2828 O 0.53591 0.46701 0.03637 0.0
O2829 O 0.53836 0.51702 0.99343 0.0
O2830 O 0.51115 0.53897 1.00245 0.0
O2831 O 0.56415 0.48991 0.0618 0.0
O2832 O 0.50896 0.50387 0.03052 0.0
O2833 O 0.50302 0.53909 0.04917 0.0
O2834 O 0.54024 0.60422 0.02976 0.0
O2835 O 0.55745 0.56093 0.06432 0.0
O2836 O 0.54273 0.52269 0.06722 0.0
O2837 O 0.51705 0.58056 1.00053 0.0
O2838 O 0.55993 0.5605 0.01459 0.0
O2839 O 0.57898 0.53531 0.03297 0.0
C2840 C 0.52149 0.5277 0.98624 0.0
C2841 C 0.56104 0.44872 0.06129 0.0
C2842 C 0.5606 0.41347 0.08154 0.0
C2843 C 0.58205 0.41176 0.07332 0.0
C2844 C 0.5823 0.44637 0.05307 0.0
C2845 C 0.59274 0.42804 0.05909 0.0
C2846 C 0.55003 0.43199 0.07535 0.0
C2847 C 0.49755 0.51583 0.04489 0.0
C2848 C 0.55065 0.46898 0.05652 0.0
C2849 C 0.58479 0.45731 0.9547 0.0
C2850 C 0.56117 0.4501 0.94431 0.0
C2851 C 0.55473 0.54338 0.07744 0.0
C2852 C 0.51662 0.62116 1.00241 0.0
C2853 C 0.51502 0.65591 0.98198 0.0
C2854 C 0.49521 0.65854 0.99324 0.0
C2855 C 0.49699 0.62434 0.01368 0.0
C2856 C 0.52569 0.63708 0.98656 0.0
C2857 C 0.48628 0.64283 0.00897 0.0
C2858 C 0.57952 0.55506 0.02319 0.0
C2859 C 0.52847 0.60206 0.00779 0.0
H2860 H 0.59044 0.39766 0.07782 0.0
H2861 H 0.59099 0.45872 0.04216 0.0
H2862 H 0.60924 0.42649 0.05276 0.0
H2863 H 0.53352 0.43353 0.08175 0.0
H2864 H 0.48685 0.67297 0.99006 0.0
H2865 H 0.49008 0.61277 0.02632 0.0
H2866 H 0.54116 0.63509 0.97815 0.0
H2867 H 0.47114 0.64516 0.01778 0.0
Eu2868 Eu 0.79063 0.31986 0.26851 0.0
C2869 C 0.74507 0.23259 0.32941 0.0
N2870 N 0.76478 0.25014 0.33372 0.0
C2871 C 0.7576 0.25934 0.3758 0.0
C2872 C 0.73044 0.22855 0.34805 0.0
C2873 C 0.77193 0.26228 0.35715 0.0
C2874 C 0.73654 0.24273 0.3711 0.0
C2875 C 0.72126 0.19778 0.30324 0.0
C2876 C 0.74024 0.2174 0.30699 0.0
C2877 C 0.70626 0.19444 0.3214 0.0
C2878 C 0.71073 0.20987 0.34363 0.0
Eu2879 Eu 0.78593 0.25345 0.29909 0.0
N2880 N 0.75449 0.22117 0.28921 0.0
C2881 C 0.71799 0.1819 0.28137 0.0
C2882 C 0.75207 0.20528 0.26843 0.0
C2883 C 0.73364 0.18553 0.26403 0.0
H2884 H 0.78887 0.27394 0.36221 0.0
H2885 H 0.7316 0.17305 0.24739 0.0
H2886 H 0.80793 0.31132 0.21046 0.0
H2887 H 0.8286 0.38849 0.34621 0.0
H2888 H 0.76455 0.20768 0.25542 0.0
H2889 H 0.70366 0.16661 0.27788 0.0
H2890 H 0.79834 0.35581 0.32231 0.0
H2891 H 0.76311 0.26951 0.39403 0.0
H2892 H 0.69138 0.1797 0.3186 0.0
H2893 H 0.69927 0.20672 0.35769 0.0
H2894 H 0.84186 0.32556 0.19018 0.0
H2895 H 0.7257 0.24021 0.38579 0.0
H2896 H 0.86465 0.40368 0.32845 0.0
N2897 N 0.82182 0.33227 0.24562 0.0
C2898 C 0.83914 0.35027 0.25786 0.0
C2899 C 0.84148 0.33241 0.20933 0.0
C2900 C 0.85877 0.35935 0.2464 0.0
C2901 C 0.82231 0.32404 0.22127 0.0
C2902 C 0.85994 0.34992 0.22202 0.0
N2903 N 0.81804 0.35122 0.29262 0.0
C2904 C 0.8145 0.36161 0.31503 0.0
C2905 C 0.85456 0.3791 0.2945 0.0
C2906 C 0.8371 0.36007 0.2818 0.0
C2907 C 0.85161 0.38907 0.31812 0.0
C2908 C 0.83136 0.38045 0.3283 0.0
H2909 H 0.8747 0.35646 0.21261 0.0
H2910 H 0.89166 0.38488 0.25084 0.0
H2911 H 0.88799 0.40214 0.29289 0.0
O2912 O 0.77502 0.35048 0.27693 0.0
O2913 O 0.82656 0.30972 0.28182 0.0
O2914 O 0.82373 0.275 0.30051 0.0
O2915 O 0.77474 0.33535 0.23834 0.0
O2916 O 0.77886 0.30792 0.30403 0.0
O2917 O 0.79904 0.28594 0.32585 0.0
O2918 O 0.80348 0.22618 0.2817 0.0
O2919 O 0.74937 0.25925 0.28088 0.0
O2920 O 0.75326 0.29706 0.26902 0.0
O2921 O 0.80225 0.23295 0.32201 0.0
O2922 O 0.78722 0.27367 0.26805 0.0
O2923 O 0.78543 0.29124 0.23603 0.0
C2924 C 0.83617 0.29397 0.29304 0.0
C2925 C 0.75695 0.36926 0.24428 0.0
C2926 C 0.73592 0.40088 0.25095 0.0
C2927 C 0.7339 0.40238 0.22539 0.0
C2928 C 0.75463 0.37117 0.21875 0.0
C2929 C 0.74322 0.38763 0.20944 0.0
C2930 C 0.74752 0.38426 0.26047 0.0
C2931 C 0.79276 0.3058 0.32383 0.0
C2932 C 0.7691 0.35147 0.25345 0.0
C2933 C 0.87644 0.37782 0.25935 0.0
C2934 C 0.87433 0.38768 0.28329 0.0
C2935 C 0.74006 0.27635 0.27178 0.0
C2936 C 0.8223 0.20267 0.31064 0.0
C2937 C 0.84247 0.17089 0.30106 0.0
C2938 C 0.84653 0.16912 0.32649 0.0
C2939 C 0.82679 0.20035 0.33607 0.0
C2940 C 0.83032 0.18779 0.29296 0.0
C2941 C 0.83877 0.18377 0.34384 0.0
C2942 C 0.78596 0.2716 0.24407 0.0
C2943 C 0.80909 0.22068 0.30395 0.0
H2944 H 0.72504 0.41502 0.21778 0.0
H2945 H 0.7617 0.35994 0.2059 0.0
H2946 H 0.74156 0.38895 0.18974 0.0
H2947 H 0.74901 0.383 0.2802 0.0
H2948 H 0.85582 0.15627 0.33292 0.0
H2949 H 0.82102 0.21136 0.35029 0.0
H2950 H 0.82713 0.1892 0.27333 0.0
H2951 H 0.84201 0.18226 0.36342 0.0
Eu2952 Eu 0.03907 0.5521 0.50819 0.0
C2953 C 0.08989 0.51102 0.59292 0.0
N2954 N 0.07359 0.49877 0.57409 0.0
C2955 C 0.0979 0.47143 0.56597 0.0
C2956 C 0.11169 0.5048 0.598 0.0
C2957 C 0.07656 0.47836 0.56172 0.0
C2958 C 0.1158 0.48507 0.58376 0.0
C2959 C 0.09975 0.54047 0.62928 0.0
C2960 C 0.08393 0.52858 0.60829 0.0
C2961 C 0.12222 0.53562 0.63336 0.0
C2962 C 0.12817 0.51778 0.61774 0.0
Eu2963 Eu 0.03944 0.51319 0.56548 0.0
N2964 N 0.06199 0.53266 0.60386 0.0
C2965 C 0.09221 0.55622 0.64601 0.0
C2966 C 0.05385 0.54615 0.62152 0.0
C2967 C 0.06898 0.55863 0.64242 0.0
H2968 H 0.06266 0.46773 0.54811 0.0
H2969 H 0.06262 0.5699 0.65589 0.0
H2970 H 0.03092 0.60648 0.53008 0.0
H2971 H 0.99248 0.49744 0.42329 0.0
H2972 H 0.03568 0.54746 0.61961 0.0
H2973 H 0.10384 0.56576 0.66232 0.0
H2974 H 0.02628 0.51425 0.45568 0.0
H2975 H 0.10052 0.45563 0.55552 0.0
H2976 H 0.13476 0.5449 0.64911 0.0
H2977 H 0.1452 0.51356 0.62168 0.0
H2978 H 0.99876 0.6274 0.52968 0.0
H2979 H 0.1323 0.47965 0.58709 0.0
H2980 H 0.95604 0.51242 0.42353 0.0
N2981 N 0.01068 0.57592 0.50666 0.0
C2982 C 0.99062 0.56699 0.49071 0.0
C2983 C 0.99606 0.61022 0.51895 0.0
C2984 C 0.97193 0.57876 0.48928 0.0
C2985 C 0.01415 0.59799 0.5195 0.0
C2986 C 0.97465 0.60033 0.5042 0.0
N2987 N 0.0086 0.53732 0.47492 0.0
C2988 C 0.01032 0.5206 0.45622 0.0
C2989 C 0.96992 0.53826 0.45598 0.0
C2990 C 0.98958 0.54707 0.47425 0.0
C2991 C 0.97075 0.51967 0.43794 0.0
C2992 C 0.99128 0.51119 0.43771 0.0
H2993 H 0.96073 0.60993 0.50364 0.0
H2994 H 0.93691 0.57775 0.47123 0.0
H2995 H 0.93516 0.5422 0.44201 0.0
O2996 O 0.06661 0.55308 0.4843 0.0
O2997 O 0.00943 0.5227 0.51232 0.0
O2998 O 1.00819 0.52795 0.55388 0.0
O2999 O 0.05027 0.58266 0.48997 0.0
O3000 O 0.04752 0.51577 0.49725 0.0
O3001 O 0.03683 0.49115 0.52692 0.0
O3002 O 0.03109 0.49367 0.59614 0.0
O3003 O 0.07039 0.52235 0.54512 0.0
O3004 O 0.06839 0.55961 0.53989 0.0
O3005 O 0.01159 0.48156 0.55962 0.0
O3006 O 0.03236 0.5501 0.57645 0.0
O3007 O 0.04158 0.57412 0.5463 0.0
C3008 C 0.99767 0.52444 0.53106 0.0
C3009 C 0.06141 0.57403 0.45048 0.0
C3010 C 0.07632 0.56858 0.4111 0.0
C3011 C 0.05793 0.57718 0.39946 0.0
C3012 C 0.04284 0.58238 0.43862 0.0
C3013 C 0.04118 0.58394 0.4132 0.0
C3014 C 0.07791 0.56685 0.43653 0.0
C3015 C 0.04281 0.4947 0.50462 0.0
C3016 C 0.06412 0.573 0.47732 0.0
C3017 C 0.95159 0.56915 0.4723 0.0
C3018 C 0.95058 0.54892 0.45566 0.0
C3019 C 0.08059 0.54408 0.54471 0.0
C3020 C 0.99056 0.47737 0.59363 0.0
C3021 C 0.96764 0.48946 0.62514 0.0
C3022 C 0.94784 0.47301 0.61286 0.0
C3023 C 0.97064 0.4609 0.58156 0.0
C3024 C 0.98886 0.49187 0.61533 0.0
C3025 C 0.94935 0.45885 0.5911 0.0
C3026 C 0.03598 0.57103 0.56873 0.0
C3027 C 0.01278 0.47952 0.58315 0.0
H3028 H 0.05656 0.57859 0.37977 0.0
H3029 H 0.02967 0.5878 0.44892 0.0
H3030 H 0.02696 0.59049 0.40417 0.0
H3031 H 0.0922 0.56025 0.44547 0.0
H3032 H 0.9313 0.47105 0.62026 0.0
H3033 H 0.97153 0.4497 0.5647 0.0
H3034 H 1.00396 0.50483 0.62487 0.0
H3035 H 0.93404 0.44617 0.58168 0.0
Eu3036 Eu 0.82108 0.77849 0.2878 0.0
C3037 C 0.73418 0.80637 0.23014 0.0
N3038 N 0.74848 0.81788 0.25098 0.0
C3039 C 0.75165 0.85424 0.23432 0.0
C3040 C 0.72892 0.81836 0.20999 0.0
C3041 C 0.75638 0.84162 0.2538 0.0
C3042 C 0.73816 0.84251 0.21217 0.0
C3043 C 0.70894 0.77042 0.20801 0.0
C3044 C 0.72427 0.78263 0.2292 0.0
C3045 C 0.70437 0.78213 0.18756 0.0
C3046 C 0.71431 0.80603 0.18856 0.0
Eu3047 Eu 0.75625 0.79488 0.28226 0.0
N3048 N 0.72907 0.77166 0.24923 0.0
C3049 C 0.6982 0.74694 0.20819 0.0
C3050 C 0.71755 0.74919 0.25007 0.0
C3051 C 0.70221 0.73642 0.22948 0.0
H3052 H 0.76637 0.85098 0.27102 0.0
H3053 H 0.69349 0.71845 0.23004 0.0
H3054 H 0.81585 0.72021 0.29191 0.0
H3055 H 0.88128 0.85193 0.3463 0.0
H3056 H 0.72002 0.74089 0.26649 0.0
H3057 H 0.68632 0.73697 0.19227 0.0
H3058 H 0.85598 0.83078 0.30775 0.0
H3059 H 0.75835 0.873 0.23645 0.0
H3060 H 0.69278 0.77297 0.17105 0.0
H3061 H 0.71024 0.81492 0.17282 0.0
H3062 H 0.82371 0.69543 0.32395 0.0
H3063 H 0.7345 0.85235 0.19712 0.0
H3064 H 0.88733 0.83088 0.38251 0.0
N3065 N 0.82993 0.75239 0.31585 0.0
C3066 C 0.84276 0.76264 0.33802 0.0
C3067 C 0.82887 0.71433 0.32828 0.0
C3068 C 0.84822 0.74906 0.35667 0.0
C3069 C 0.8241 0.7285 0.31029 0.0
C3070 C 0.84061 0.72466 0.35173 0.0
N3071 N 0.84663 0.79919 0.32305 0.0
C3072 C 0.85829 0.82185 0.32377 0.0
C3073 C 0.8659 0.79778 0.36387 0.0
C3074 C 0.85145 0.78671 0.34169 0.0
C3075 C 0.8761 0.82172 0.36578 0.0
C3076 C 0.87271 0.83369 0.3454 0.0
H3077 H 0.8444 0.71363 0.36559 0.0
H3078 H 0.86556 0.75007 0.39406 0.0
H3079 H 0.88111 0.79273 0.40031 0.0
O3080 O 0.84545 0.79272 0.26278 0.0
O3081 O 0.81202 0.80114 0.32107 0.0
O3082 O 0.77268 0.78671 0.31902 0.0
O3083 O 0.85016 0.76221 0.27921 0.0
O3084 O 0.81595 0.81121 0.2713 0.0
O3085 O 0.78814 0.82558 0.29109 0.0
O3086 O 0.72053 0.78853 0.29347 0.0
O3087 O 0.77328 0.78806 0.24659 0.0
O3088 O 0.79455 0.76008 0.2544 0.0
O3089 O 0.74425 0.82282 0.30338 0.0
O3090 O 0.75591 0.75857 0.29255 0.0
O3091 O 0.79046 0.74666 0.28533 0.0
C3092 C 0.79276 0.79811 0.33165 0.0
C3093 C 0.8648 0.76681 0.24094 0.0
C3094 C 0.89441 0.76537 0.21277 0.0
C3095 C 0.87888 0.74627 0.19784 0.0
C3096 C 0.84956 0.74794 0.22551 0.0
C3097 C 0.85662 0.73775 0.20411 0.0
C3098 C 0.88716 0.7757 0.23437 0.0
C3099 C 0.80772 0.8288 0.28103 0.0
C3100 C 0.85784 0.77682 0.26427 0.0
C3101 C 0.8615 0.76019 0.37939 0.0
C3102 C 0.87033 0.78449 0.38297 0.0
C3103 C 0.78279 0.77045 0.23879 0.0
C3104 C 0.70614 0.81929 0.31806 0.0
C3105 C 0.67131 0.81497 0.33987 0.0
C3106 C 0.67517 0.83947 0.34482 0.0
C3107 C 0.70935 0.84375 0.32351 0.0
C3108 C 0.68684 0.80477 0.32625 0.0
C3109 C 0.69398 0.85369 0.33669 0.0
C3110 C 0.76853 0.74245 0.29029 0.0
C3111 C 0.72393 0.80975 0.30509 0.0
H3112 H 0.88398 0.73804 0.18117 0.0
H3113 H 0.83229 0.74097 0.23015 0.0
H3114 H 0.8448 0.72312 0.19234 0.0
H3115 H 0.89897 0.79042 0.24608 0.0
H3116 H 0.66353 0.84765 0.35515 0.0
H3117 H 0.72391 0.85535 0.31765 0.0
H3118 H 0.68413 0.78586 0.32247 0.0
H3119 H 0.69674 0.87257 0.34074 0.0
Eu3120 Eu 0.76697 0.28984 0.81867 0.0
C3121 C 0.81551 0.24271 0.73167 0.0
N3122 N 0.82453 0.26071 0.75022 0.0
C3123 C 0.85691 0.24275 0.76093 0.0
C3124 C 0.8259 0.22315 0.72824 0.0
C3125 C 0.84596 0.26174 0.76349 0.0
C3126 C 0.84648 0.22304 0.74372 0.0
C3127 C 0.78803 0.22727 0.69427 0.0
C3128 C 0.79703 0.24482 0.71476 0.0
C3129 C 0.79712 0.20692 0.69186 0.0
C3130 C 0.81606 0.20487 0.70883 0.0
Eu3131 Eu 0.80209 0.29013 0.75555 0.0
N3132 N 0.7887 0.26471 0.71766 0.0
C3133 C 0.77067 0.23105 0.67645 0.0
C3134 C 0.7728 0.26911 0.6996 0.0
C3135 C 0.76339 0.25229 0.67886 0.0
H3136 H 0.85498 0.2772 0.77594 0.0
H3137 H 0.75041 0.25565 0.66486 0.0
H3138 H 0.71141 0.29526 0.80107 0.0
H3139 H 0.8265 0.33706 0.90092 0.0
H3140 H 0.76698 0.28543 0.70129 0.0
H3141 H 0.7633 0.21802 0.66041 0.0
H3142 H 0.80989 0.30377 0.868 0.0
H3143 H 0.87351 0.24345 0.77208 0.0
H3144 H 0.79018 0.19306 0.67648 0.0
H3145 H 0.82351 0.1895 0.70622 0.0
H3146 H 0.68767 0.32507 0.80629 0.0
H3147 H 0.85503 0.20839 0.74168 0.0
H3148 H 0.80768 0.37105 0.90535 0.0
N3149 N 0.74205 0.31663 0.8232 0.0
C3150 C 0.75039 0.33581 0.8406 0.0
C3151 C 0.70549 0.32856 0.81565 0.0
C3152 C 0.73733 0.35325 0.84443 0.0
C3153 C 0.71919 0.31187 0.8124 0.0
C3154 C 0.71489 0.34971 0.83108 0.0
N3155 N 0.78234 0.31911 0.85327 0.0
C3156 C 0.80153 0.31851 0.86964 0.0
C3157 C 0.77991 0.35638 0.87484 0.0
C3158 C 0.77111 0.3371 0.85609 0.0
C3159 C 0.80033 0.35651 0.89077 0.0
C3160 C 0.81099 0.33734 0.88837 0.0
H3161 H 0.70423 0.36261 0.83358 0.0
H3162 H 0.7369 0.38676 0.86523 0.0
H3163 H 0.77444 0.38971 0.89155 0.0
O3164 O 0.76007 0.27717 0.85366 0.0
O3165 O 0.79497 0.3222 0.81947 0.0
O3166 O 0.78888 0.31684 0.77877 0.0
O3167 O 0.73609 0.26264 0.82022 0.0
O3168 O 0.80345 0.28153 0.82647 0.0
O3169 O 0.82423 0.28964 0.79327 0.0
O3170 O 0.80446 0.31522 0.72907 0.0
O3171 O 0.77556 0.25738 0.75708 0.0
O3172 O 0.78 0.26023 0.79906 0.0
O3173 O 0.83605 0.31109 0.75057 0.0
O3174 O 0.76434 0.29399 0.74572 0.0
O3175 O 0.74444 0.29042 0.78057 0.0
C3176 C 0.80107 0.32885 0.799 0.0
C3177 C 0.73924 0.23784 0.85119 0.0
C3178 C 0.7469 0.21325 0.88272 0.0
C3179 C 0.73056 0.19426 0.86866 0.0
C3180 C 0.72292 0.21868 0.83726 0.0
C3181 C 0.71881 0.19695 0.8459 0.0
C3182 C 0.75158 0.23482 0.87367 0.0
C3183 C 0.8233 0.28492 0.81644 0.0
C3184 C 0.74161 0.26137 0.84367 0.0
C3185 C 0.74652 0.37301 0.86234 0.0
C3186 C 0.76783 0.37463 0.87742 0.0
C3187 C 0.77081 0.24862 0.77729 0.0
C3188 C 0.83787 0.31901 0.70911 0.0
C3189 C 0.83996 0.33088 0.66816 0.0
C3190 C 0.85649 0.31717 0.66404 0.0
C3191 C 0.85424 0.30506 0.70484 0.0
C3192 C 0.83072 0.33169 0.69063 0.0
C3193 C 0.86352 0.30424 0.68235 0.0
C3194 C 0.74503 0.29228 0.75646 0.0
C3195 C 0.8272 0.32017 0.73209 0.0
H3196 H 0.7268 0.17745 0.87544 0.0
H3197 H 0.713 0.22058 0.81996 0.0
H3198 H 0.70614 0.18231 0.83516 0.0
H3199 H 0.76411 0.24941 0.88478 0.0
H3200 H 0.8638 0.31645 0.64669 0.0
H3201 H 0.85976 0.29477 0.71872 0.0
H3202 H 0.81789 0.34228 0.69369 0.0
H3203 H 0.87615 0.29354 0.67909 0.0
Eu3204 Eu 0.77352 0.75662 0.7662 0.0
C3205 C 0.8567 0.81872 0.83537 0.0
N3206 N 0.83379 0.81242 0.83892 0.0
C3207 C 0.84573 0.80668 0.88089 0.0
C3208 C 0.87496 0.81846 0.85438 0.0
C3209 C 0.82823 0.80735 0.86165 0.0
C3210 C 0.86919 0.81204 0.87718 0.0
C3211 C 0.88559 0.83222 0.80859 0.0
C3212 C 0.86203 0.8258 0.81278 0.0
C3213 C 0.9037 0.83171 0.82741 0.0
C3214 C 0.89841 0.8249 0.85023 0.0
Eu3215 Eu 0.80586 0.81553 0.80517 0.0
N3216 N 0.84417 0.82571 0.7946 0.0
C3217 C 0.89028 0.83891 0.78554 0.0
C3218 C 0.84868 0.83252 0.77226 0.0
C3219 C 0.87173 0.83912 0.76733 0.0
H3220 H 0.81042 0.80478 0.86559 0.0
H3221 H 0.87515 0.84417 0.74941 0.0
H3222 H 0.76302 0.7561 0.70405 0.0
H3223 H 0.72043 0.70124 0.82204 0.0
H3224 H 0.83454 0.83224 0.75797 0.0
H3225 H 0.90814 0.8439 0.7816 0.0
H3226 H 0.75667 0.72404 0.81087 0.0
H3227 H 0.84112 0.80249 0.89875 0.0
H3228 H 0.92189 0.83662 0.82452 0.0
H3229 H 0.91261 0.82477 0.86463 0.0
H3230 H 0.72925 0.74556 0.67069 0.0
H3231 H 0.88273 0.81171 0.89223 0.0
H3232 H 0.68307 0.69557 0.79405 0.0
N3233 N 0.7426 0.7465 0.73258 0.0
C3234 C 0.72141 0.73555 0.73793 0.0
C3235 C 0.72672 0.74302 0.6896 0.0
C3236 C 0.70168 0.72905 0.71939 0.0
C3237 C 0.74575 0.74924 0.7086 0.0
C3238 C 0.70446 0.73347 0.69513 0.0
N3239 N 0.73985 0.73333 0.77799 0.0
C3240 C 0.74048 0.72252 0.79886 0.0
C3241 C 0.69889 0.71522 0.76669 0.0
C3242 C 0.72002 0.72866 0.7613 0.0
C3243 C 0.69892 0.70603 0.78925 0.0
C3244 C 0.71996 0.70917 0.80509 0.0
H3245 H 0.68977 0.72859 0.68034 0.0
H3246 H 0.66476 0.71234 0.71137 0.0
H3247 H 0.66231 0.70028 0.75284 0.0
O3248 O 0.79396 0.73101 0.77548 0.0
O3249 O 0.74557 0.77457 0.78199 0.0
O3250 O 0.76497 0.81061 0.80406 0.0
O3251 O 0.77067 0.72514 0.7398 0.0
O3252 O 0.78667 0.75727 0.80788 0.0
O3253 O 0.78417 0.79246 0.82781 0.0
O3254 O 0.81122 0.85248 0.80104 0.0
O3255 O 0.82735 0.78772 0.793 0.0
O3256 O 0.80922 0.77216 0.75442 0.0
O3257 O 0.81009 0.84206 0.83758 0.0
O3258 O 0.79322 0.82119 0.76569 0.0
O3259 O 0.78008 0.78534 0.74095 0.0
C3260 C 0.74517 0.79479 0.79523 0.0
C3261 C 0.79215 0.69526 0.74792 0.0
C3262 C 0.80835 0.66339 0.76115 0.0
C3263 C 0.80259 0.65126 0.73693 0.0
C3264 C 0.78619 0.68312 0.72365 0.0
C3265 C 0.79156 0.66119 0.71819 0.0
C3266 C 0.80351 0.68546 0.76651 0.0
C3267 C 0.78311 0.77011 0.82798 0.0
C3268 C 0.78541 0.71742 0.7545 0.0
C3269 C 0.68017 0.71718 0.72528 0.0
C3270 C 0.67877 0.7103 0.7489 0.0
C3271 C 0.82878 0.77829 0.77018 0.0
C3272 C 0.79121 0.87221 0.82781 0.0
C3273 C 0.77099 0.90117 0.81354 0.0
C3274 C 0.75306 0.89403 0.82776 0.0
C3275 C 0.77321 0.865 0.84211 0.0
C3276 C 0.79017 0.89061 0.81394 0.0
C3277 C 0.75431 0.87607 0.84219 0.0
C3278 C 0.78571 0.80854 0.74376 0.0
C3279 C 0.80935 0.85886 0.82418 0.0
H3280 H 0.80654 0.63415 0.73264 0.0
H3281 H 0.77729 0.69046 0.70903 0.0
H3282 H 0.78698 0.65181 0.69951 0.0
H3283 H 0.80804 0.6946 0.78536 0.0
H3284 H 0.73811 0.90222 0.82747 0.0
H3285 H 0.77336 0.85047 0.85265 0.0
H3286 H 0.8037 0.89602 0.80249 0.0
H3287 H 0.74038 0.87038 0.85299 0.0
Eu3288 Eu 0.56723 0.55242 0.55172 0.0
C3289 C 0.4896 0.46377 0.49423 0.0
N3290 N 0.49894 0.48397 0.48564 0.0
C3291 C 0.49507 0.46311 0.44454 0.0
C3292 C 0.48384 0.44216 0.47841 0.0
C3293 C 0.50062 0.48407 0.46094 0.0
C3294 C 0.48714 0.44199 0.45342 0.0
C3295 C 0.47318 0.44443 0.5273 0.0
C3296 C 0.48431 0.46492 0.51845 0.0
C3297 C 0.4688 0.42271 0.51209 0.0
C3298 C 0.47407 0.42159 0.48768 0.0
Eu3299 Eu 0.50757 0.51867 0.51453 0.0
N3300 N 0.48846 0.48625 0.53268 0.0
C3301 C 0.46566 0.44649 0.5507 0.0
C3302 C 0.47888 0.48847 0.55431 0.0
C3303 C 0.46796 0.46868 0.56395 0.0
H3304 H 0.50614 0.5004 0.45375 0.0
H3305 H 0.46102 0.47062 0.58143 0.0
H3306 H 0.55954 0.55795 0.61273 0.0
H3307 H 0.58927 0.62048 0.49233 0.0
H3308 H 0.47895 0.5054 0.56404 0.0
H3309 H 0.457 0.43119 0.5581 0.0
H3310 H 0.57697 0.58023 0.50167 0.0
H3311 H 0.49681 0.4633 0.42504 0.0
H3312 H 0.46048 0.40679 0.5187 0.0
H3313 H 0.46977 0.40482 0.47586 0.0
H3314 H 0.56131 0.58937 0.64691 0.0
H3315 H 0.48277 0.42578 0.44065 0.0
H3316 H 0.59472 0.65398 0.52567 0.0
N3317 N 0.56733 0.58108 0.58597 0.0
C3318 C 0.57436 0.60381 0.58216 0.0
C3319 C 0.5647 0.59369 0.62872 0.0
C3320 C 0.5763 0.62239 0.60155 0.0
C3321 C 0.56309 0.57585 0.60904 0.0
C3322 C 0.57123 0.61706 0.62495 0.0
N3323 N 0.57648 0.59045 0.54001 0.0
C3324 C 0.58008 0.59451 0.5165 0.0
C3325 C 0.58593 0.63203 0.55405 0.0
C3326 C 0.57938 0.60863 0.55869 0.0
C3327 C 0.58976 0.63625 0.52997 0.0
C3328 C 0.58673 0.6174 0.5111 0.0
H3329 H 0.57258 0.63084 0.64031 0.0
H3330 H 0.58488 0.66013 0.61177 0.0
H3331 H 0.59311 0.66855 0.57018 0.0
O3332 O 0.60333 0.55513 0.54517 0.0
O3333 O 0.53998 0.57519 0.54233 0.0
O3334 O 0.51821 0.55674 0.50594 0.0
O3335 O 0.59537 0.55761 0.58276 0.0
O3336 O 0.57115 0.5393 0.51174 0.0
O3337 O 0.53484 0.52691 0.48772 0.0
O3338 O 0.47199 0.52058 0.51942 0.0
O3339 O 0.53057 0.49218 0.52366 0.0
O3340 O 0.56021 0.512 0.55489 0.0
O3341 O 0.48238 0.52119 0.48284 0.0
O3342 O 0.5094 0.53599 0.5553 0.0
O3343 O 0.54391 0.53156 0.57446 0.0
C3344 C 0.52711 0.57635 0.52119 0.0
C3345 C 0.6252 0.53801 0.57348 0.0
C3346 C 0.65251 0.51527 0.55971 0.0
C3347 C 0.65079 0.50334 0.58049 0.0
C3348 C 0.62352 0.52612 0.59442 0.0
C3349 C 0.63632 0.50883 0.59785 0.0
C3350 C 0.63979 0.53249 0.55627 0.0
C3351 C 0.55805 0.53275 0.48993 0.0
C3352 C 0.61116 0.55536 0.56844 0.0
C3353 C 0.58326 0.64567 0.59706 0.0
C3354 C 0.58803 0.65048 0.5734 0.0
C3355 C 0.54757 0.49206 0.54167 0.0
C3356 C 0.45462 0.54321 0.49382 0.0
C3357 C 0.4278 0.56577 0.50913 0.0
C3358 C 0.43258 0.58106 0.49149 0.0
C3359 C 0.45951 0.55849 0.47608 0.0
C3360 C 0.43879 0.54703 0.51021 0.0
C3361 C 0.44845 0.57737 0.47498 0.0
C3362 C 0.52217 0.53255 0.57559 0.0
C3363 C 0.46614 0.52362 0.49657 0.0
H3364 H 0.66058 0.48984 0.58318 0.0
H3365 H 0.61221 0.52994 0.60797 0.0
H3366 H 0.63492 0.49961 0.61387 0.0
H3367 H 0.6412 0.54144 0.53998 0.0
H3368 H 0.42415 0.59578 0.49062 0.0
H3369 H 0.47191 0.556 0.46331 0.0
H3370 H 0.43497 0.53543 0.52407 0.0
H3371 H 0.45226 0.58921 0.46142 0.0
Eu3372 Eu 0.00889 0.53601 0.04411 0.0
C3373 C 0.09068 0.5785 0.98336 0.0
N3374 N 0.0791 0.55575 0.98195 0.0
C3375 C 0.07499 0.55171 0.93741 0.0
C3376 C 0.09397 0.58898 0.96166 0.0
C3377 C 0.07243 0.54196 0.95942 0.0
C3378 C 0.08543 0.57541 0.93853 0.0
C3379 C 0.11352 0.61421 0.00861 0.0
C3380 C 0.10038 0.59105 0.00655 0.0
C3381 C 0.11601 0.62498 0.98709 0.0
C3382 C 0.10623 0.61241 0.96369 0.0
Eu3383 Eu 0.07362 0.54256 0.02077 0.0
N3384 N 0.09751 0.58037 0.02711 0.0
C3385 C 0.12415 0.62568 0.03222 0.0
C3386 C 0.10893 0.5908 0.04993 0.0
C3387 C 0.12215 0.61377 0.05291 0.0
H3388 H 0.06503 0.52343 0.95825 0.0
H3389 H 0.13076 0.62227 0.07113 0.0
H3390 H 0.01533 0.54789 0.1067 0.0
H3391 H 0.94266 0.4695 0.98277 0.0
H3392 H 0.10754 0.58147 0.06585 0.0
H3393 H 0.1344 0.64349 0.03458 0.0
H3394 H 0.97195 0.50709 0.99422 0.0
H3395 H 0.06907 0.54088 0.91959 0.0
H3396 H 0.12586 0.64285 0.9883 0.0
H3397 H 0.10873 0.6208 0.94721 0.0
H3398 H 1.00382 0.52757 0.14217 0.0
H3399 H 0.08753 0.58285 0.92143 0.0
H3400 H 0.93236 0.44439 0.01517 0.0
N3401 N 0.99742 0.5195 0.07945 0.0
C3402 C 0.98221 0.4983 0.0747 0.0
C3403 C 0.99781 0.51904 0.1233 0.0
C3404 C 0.97489 0.48618 0.0943 0.0
C3405 C 1.00444 0.53045 0.10325 0.0
C3406 C 0.98326 0.49665 0.11882 0.0
N3407 N 0.97903 0.50214 0.03186 0.0
C3408 C 0.96781 0.49583 0.00813 0.0
C3409 C 0.95581 0.46815 0.0448 0.0
C3410 C 0.97267 0.48942 0.05024 0.0
C3411 C 0.94538 0.46065 0.02011 0.0
C3412 C 0.95114 0.47476 1.00176 0.0
H3413 H 0.97802 0.48791 0.13439 0.0
H3414 H 0.95326 0.45476 0.10368 0.0
H3415 H 0.93665 0.43893 0.06034 0.0
O3416 O 0.97865 0.54703 0.02562 0.0
O3417 O 0.01494 0.4998 0.02724 0.0
O3418 O 0.05375 0.50378 0.01906 0.0
O3419 O 0.99156 0.5599 0.06449 0.0
O3420 O 0.01925 0.54715 0.00818 0.0
O3421 O 0.04275 0.52526 0.99222 0.0
O3422 O 0.09846 0.52695 0.04276 0.0
O3423 O 0.06002 0.5772 0.02823 0.0
O3424 O 0.03426 0.57184 0.05742 0.0
O3425 O 0.10543 0.53606 0.00686 0.0
O3426 O 0.06922 0.55082 0.06067 0.0
O3427 O 0.0368 0.52759 0.07111 0.0
C3428 C 0.03293 0.49062 0.02124 0.0
C3429 C 0.95141 0.55748 0.05148 0.0
C3430 C 0.91561 0.57251 0.04975 0.0
C3431 C 0.90661 0.55623 0.06507 0.0
C3432 C 0.94212 0.54129 0.06676 0.0
C3433 C 0.91979 0.54067 0.07346 0.0
C3434 C 0.93801 0.57297 0.0428 0.0
C3435 C 0.02326 0.53266 0.99015 0.0
C3436 C 0.97554 0.55951 0.04579 0.0
C3437 C 0.95889 0.46444 0.08887 0.0
C3438 C 0.94941 0.45543 0.06418 0.0
C3439 C 0.04771 0.58571 0.04471 0.0
C3440 C 0.11715 0.50249 0.01831 0.0
C3441 C 0.14429 0.47607 0.01848 0.0
C3442 C 0.12751 0.45918 1.00212 0.0
C3443 C 0.10076 0.48542 1.00174 0.0
C3444 C 0.13896 0.49771 0.02688 0.0
C3445 C 0.10583 0.46383 0.99389 0.0
C3446 C 0.05946 0.5356 0.07406 0.0
C3447 C 0.11179 0.52557 0.02537 0.0
H3448 H 0.88938 0.55565 0.0706 0.0
H3449 H 0.95221 0.5294 0.07385 0.0
H3450 H 0.91278 0.52824 0.08537 0.0
H3451 H 0.94511 0.58563 0.03111 0.0
H3452 H 0.13131 0.44243 0.99559 0.0
H3453 H 0.08424 0.48905 0.99447 0.0
H3454 H 0.15188 0.51085 0.03945 0.0
H3455 H 0.09306 0.45081 0.98109 0.0
C3456 C 0.01161 0.13096 0.98464 0.0
C3457 C 0.01987 0.1517 1.00223 0.0
C3458 C 0.03093 0.1258 0.03293 0.0
C3459 C 0.02562 0.10539 0.01458 0.0
N3460 N 0.0127 0.09044 0.97096 0.0
N3461 N 0.04073 0.16842 0.04271 0.0
C3462 C 0.01627 0.10852 0.98996 0.0
C3463 C 0.03066 0.1489 0.02613 0.0
N3464 N 0.999 0.13255 0.96257 0.0
N3465 N 0.03427 0.12302 0.05744 0.0
H3466 H 0.04004 0.18532 0.03907 0.0
H3467 H 0.05129 0.16786 0.05918 0.0
H3468 H 0.03244 0.10658 0.06338 0.0
H3469 H 0.03591 0.13665 0.07188 0.0
H3470 H 0.98957 0.118 0.95033 0.0
H3471 H 0.99643 0.14845 0.9573 0.0
H3472 H 0.00907 0.09241 0.95232 0.0
H3473 H 0.01553 0.07388 0.97315 0.0
C3474 C 0.19314 0.77444 0.20189 0.0
C3475 C 0.18722 0.79675 0.20114 0.0
C3476 C 0.21975 0.81334 0.23523 0.0
C3477 C 0.22767 0.79189 0.23366 0.0
N3478 N 0.22207 0.75207 0.21403 0.0
N3479 N 0.19881 0.83852 0.21383 0.0
C3480 C 0.21451 0.77256 0.21633 0.0
C3481 C 0.20162 0.81647 0.21695 0.0
N3482 N 0.17762 0.75472 0.19009 0.0
N3483 N 0.22903 0.83076 0.25453 0.0
H3484 H 0.18649 0.84175 0.20013 0.0
H3485 H 0.21038 0.85367 0.22297 0.0
H3486 H 0.24228 0.82955 0.26831 0.0
H3487 H 0.22208 0.84557 0.25811 0.0
H3488 H 0.17964 0.73778 0.19199 0.0
H3489 H 0.16146 0.75514 0.18034 0.0
H3490 H 0.21531 0.73839 0.19962 0.0
H3491 H 0.23592 0.74927 0.22603 0.0
C3492 C 0.53115 0.924 0.48993 0.0
C3493 C 0.51854 0.90875 0.50476 0.0
C3494 C 0.51347 0.94451 0.5313 0.0
C3495 C 0.52441 0.95975 0.51529 0.0
N3496 N 0.54043 0.96243 0.47652 0.0
N3497 N 0.49494 0.90503 0.53797 0.0
C3498 C 0.53248 0.949 0.49396 0.0
C3499 C 0.50878 0.91925 0.52484 0.0
N3500 N 0.54214 0.91459 0.47179 0.0
N3501 N 0.50896 0.95411 0.55371 0.0
H3502 H 0.49219 0.88679 0.53485 0.0
H3503 H 0.48488 0.9112 0.55068 0.0
H3504 H 0.51332 0.97209 0.55975 0.0
H3505 H 0.50316 0.94429 0.56742 0.0
H3506 H 0.55441 0.9246 0.46273 0.0
H3507 H 0.54023 0.89659 0.46686 0.0
H3508 H 0.54353 0.95553 0.45913 0.0
H3509 H 0.54189 0.98044 0.47822 0.0
C3510 C 0.46576 0.30292 0.7114 0.0
C3511 C 0.46221 0.28931 0.68755 0.0
C3512 C 0.42322 0.26924 0.69551 0.0
C3513 C 0.42651 0.28353 0.71893 0.0
N3514 N 0.44804 0.31809 0.74598 0.0
N3515 N 0.43532 0.26374 0.65456 0.0
C3516 C 0.44686 0.30177 0.72574 0.0
C3517 C 0.44018 0.2738 0.67886 0.0
N3518 N 0.48756 0.31589 0.7211 0.0
N3519 N 0.40457 0.25058 0.68962 0.0
H3520 H 0.44718 0.26692 0.64183 0.0
H3521 H 0.41881 0.2541 0.64647 0.0
H3522 H 0.39169 0.24677 0.70112 0.0
H3523 H 0.40275 0.23791 0.67419 0.0
H3524 H 0.49174 0.32403 0.73945 0.0
H3525 H 0.5021 0.31679 0.71163 0.0
H3526 H 0.46142 0.33308 0.75059 0.0
H3527 H 0.43435 0.31786 0.75666 0.0
C3528 C 0.05008 0.86222 0.60336 0.0
C3529 C 0.03975 0.86168 0.62568 0.0
C3530 C 0.03831 0.90331 0.62579 0.0
C3531 C 0.05203 0.90477 0.60597 0.0
N3532 N 0.0723 0.88573 0.57659 0.0
N3533 N 0.02579 0.88242 0.65953 0.0
C3534 C 0.058 0.88416 0.59469 0.0
C3535 C 0.03406 0.88237 0.63711 0.0
N3536 N 0.05207 0.84166 0.59029 0.0
N3537 N 0.02927 0.92207 0.63372 0.0
H3538 H 0.02246 0.86756 0.66848 0.0
H3539 H 0.02394 0.89758 0.67023 0.0
H3540 H 0.03196 0.93749 0.62562 0.0
H3541 H 0.01734 0.92155 0.64649 0.0
H3542 H 0.05721 0.84048 0.57264 0.0
H3543 H 0.04651 0.82539 0.59615 0.0
H3544 H 0.07967 0.87204 0.56977 0.0
H3545 H 0.07804 0.90126 0.56939 0.0
C3546 C 0.39704 0.7812 0.79196 0.0
C3547 C 0.41154 0.80018 0.80898 0.0
C3548 C 0.37563 0.8159 0.81404 0.0
C3549 C 0.36068 0.79589 0.79887 0.0
N3550 N 0.35799 0.75841 0.7745 0.0
N3551 N 0.41311 0.83346 0.83953 0.0
C3552 C 0.37173 0.77824 0.78828 0.0
C3553 C 0.40036 0.81701 0.8207 0.0
N3554 N 0.40758 0.76645 0.77831 0.0
N3555 N 0.36623 0.83415 0.82232 0.0
H3556 H 0.43085 0.83465 0.84541 0.0
H3557 H 0.40571 0.84448 0.85099 0.0
H3558 H 0.34834 0.83316 0.81961 0.0
H3559 H 0.37616 0.8505 0.8305 0.0
H3560 H 0.39871 0.75379 0.76368 0.0
H3561 H 0.42571 0.76815 0.78019 0.0
H3562 H 0.36414 0.74349 0.76902 0.0
H3563 H 0.33996 0.75624 0.76973 0.0
C3564 C 0.51963 0.1321 0.0895 0.0
C3565 C 0.52295 0.13307 0.11579 0.0
C3566 C 0.52251 0.09044 0.10956 0.0
C3567 C 0.52339 0.09068 0.08355 0.0
N3568 N 0.50294 0.10674 0.05156 0.0
N3569 N 0.52806 0.11232 0.151 0.0
C3570 C 0.51669 0.11023 0.07393 0.0
C3571 C 0.52464 0.112 0.12584 0.0
N3572 N 0.51939 0.1521 0.07905 0.0
N3573 N 0.51522 0.0696 0.1181 0.0
H3574 H 0.52821 0.1271 0.16354 0.0
H3575 H 0.53228 0.0983 0.1593 0.0
H3576 H 0.50938 0.05381 0.10628 0.0
H3577 H 0.5118 0.06833 0.13627 0.0
H3578 H 0.51903 0.15241 0.05994 0.0
H3579 H 0.52162 0.16853 0.08956 0.0
H3580 H 0.49504 0.11968 0.04505 0.0
H3581 H 0.4958 0.08994 0.04226 0.0
C3582 C 0.17871 0.29177 0.28949 0.0
C3583 C 0.17638 0.30594 0.31175 0.0
C3584 C 0.22017 0.31312 0.32239 0.0
C3585 C 0.22273 0.30052 0.29911 0.0
N3586 N 0.20339 0.2824 0.25841 0.0
N3587 N 0.19626 0.33281 0.34776 0.0
C3588 C 0.20161 0.29098 0.28223 0.0
C3589 C 0.19758 0.31747 0.32753 0.0
N3590 N 0.15889 0.27884 0.27502 0.0
N3591 N 0.23906 0.3198 0.34058 0.0
H3592 H 0.18038 0.3354 0.3531 0.0
H3593 H 0.21086 0.34424 0.35815 0.0
H3594 H 0.25553 0.31668 0.33835 0.0
H3595 H 0.23794 0.32635 0.35881 0.0
H3596 H 0.15912 0.26588 0.26046 0.0
H3597 H 0.14208 0.27988 0.27873 0.0
H3598 H 0.18916 0.27716 0.24436 0.0
H3599 H 0.21947 0.28296 0.25191 0.0
C3600 C 0.01391 0.01326 0.14024 0.0
C3601 C 0.99773 0.02669 0.1477 0.0
C3602 C 1.00198 0.04711 0.11069 0.0
C3603 C 0.01714 0.03267 0.10217 0.0
N3604 N 0.04266 0.00653 0.11355 0.0
N3605 N 0.97386 0.05422 0.13856 0.0
C3606 C 0.02457 0.01704 0.11826 0.0
C3607 C 0.99113 0.04302 0.13251 0.0
N3608 N 0.01833 0.99593 0.15364 0.0
N3609 N 0.99973 0.06632 0.09937 0.0
H3610 H 0.96602 0.05223 0.15464 0.0
H3611 H 0.96595 0.06396 0.12674 0.0
H3612 H 0.00904 0.07143 0.08502 0.0
H3613 H 0.99104 0.07896 0.10612 0.0
H3614 H 0.02684 0.98295 0.14733 0.0
H3615 H 0.01189 0.99327 0.17037 0.0
H3616 H 0.05129 0.99839 0.12653 0.0
H3617 H 0.05036 0.00679 0.09739 0.0
C3618 C 0.25884 0.72046 0.45664 0.0
C3619 C 0.26413 0.69821 0.4505 0.0
C3620 C 0.25116 0.69822 0.40652 0.0
C3621 C 0.24544 0.72031 0.41269 0.0
N3622 N 0.24927 0.75523 0.44185 0.0
N3623 N 0.27122 0.66857 0.42002 0.0
C3624 C 0.2511 0.73237 0.43724 0.0
C3625 C 0.26233 0.68802 0.42547 0.0
N3626 N 0.26013 0.72963 0.48101 0.0
N3627 N 0.24484 0.68654 0.38288 0.0
H3628 H 0.27942 0.66076 0.43373 0.0
H3629 H 0.27241 0.66143 0.40201 0.0
H3630 H 0.23656 0.69347 0.3685 0.0
H3631 H 0.24631 0.66935 0.3778 0.0
H3632 H 0.2537 0.74432 0.48673 0.0
H3633 H 0.2665 0.72177 0.49575 0.0
H3634 H 0.25533 0.76571 0.45889 0.0
H3635 H 0.24349 0.7644 0.42796 0.0
C3636 C 0.58707 0.04668 0.6381 0.0
C3637 C 0.60345 0.03203 0.63702 0.0
C3638 C 0.58392 0.01284 0.59609 0.0
C3639 C 0.57015 0.02994 0.59558 0.0
N3640 N 0.5607 0.06537 0.61464 0.0
N3641 N 0.62017 1.00385 0.61333 0.0
C3642 C 0.57219 0.04748 0.61621 0.0
C3643 C 0.60259 0.01571 0.6156 0.0
N3644 N 0.58532 0.05934 0.66012 0.0
N3645 N 0.57901 0.9938 0.57809 0.0
H3646 H 0.63461 1.00599 0.62697 0.0
H3647 H 0.62156 0.99364 0.59693 0.0
H3648 H 0.56493 0.99094 0.56392 0.0
H3649 H 0.58732 0.97976 0.57872 0.0
H3650 H 0.5721 0.06852 0.66233 0.0
H3651 H 0.59562 0.05881 0.67679 0.0
H3652 H 0.56385 0.08008 0.6281 0.0
H3653 H 0.54931 0.0664 0.59901 0.0
C3654 C 0.28857 0.33625 0.89312 0.0
C3655 C 0.29982 0.32399 0.91005 0.0
C3656 C 0.30402 0.29571 0.87459 0.0
C3657 C 0.29423 0.3089 0.85746 0.0
N3658 N 0.28052 0.34409 0.85088 0.0
N3659 N 0.3214 0.29401 0.91674 0.0
C3660 C 0.28734 0.32975 0.86691 0.0
C3661 C 0.30857 0.30436 0.90068 0.0
N3662 N 0.27859 0.35401 0.90209 0.0
N3663 N 0.30764 0.27415 0.86611 0.0
H3664 H 0.32424 0.29921 0.93592 0.0
H3665 H 0.33065 0.2815 0.91095 0.0
H3666 H 0.30362 0.26689 0.84746 0.0
H3667 H 0.31257 0.26255 0.87768 0.0
H3668 H 0.26745 0.36158 0.891 0.0
H3669 H 0.28014 0.36027 0.92096 0.0
H3670 H 0.27904 0.36118 0.85651 0.0
H3671 H 0.2778 0.33963 0.83168 0.0
C3672 C 0.02205 0.03941 0.41702 0.0
C3673 C 1.00084 0.02382 0.40572 0.0
C3674 C 0.99624 0.0091 0.44591 0.0
C3675 C 0.01654 0.02591 0.45774 0.0
N3676 N 0.04561 0.06055 0.45505 0.0
N3677 N 0.9657 0.99636 0.41036 0.0
C3678 C 0.02863 0.04196 0.44338 0.0
C3679 C 0.98743 0.00929 0.42044 0.0
N3680 N 0.03625 0.05151 0.40248 0.0
N3681 N 0.98542 0.99266 0.459 0.0
H3682 H 0.95864 0.99598 0.3919 0.0
H3683 H 0.95381 0.98752 0.42069 0.0
H3684 H 0.99069 0.99276 0.4778 0.0
H3685 H 0.97233 0.9782 0.45104 0.0
H3686 H 0.05315 0.06112 0.4091 0.0
H3687 H 0.03194 0.0503 0.38326 0.0
H3688 H 0.05328 0.07433 0.44617 0.0
H3689 H 0.05044 0.06333 0.47418 0.0
C3690 C 0.30344 0.741 0.68559 0.0
C3691 C 0.28365 0.72316 0.6753 0.0
C3692 C 0.26104 0.73632 0.70667 0.0
C3693 C 0.28161 0.75216 0.7189 0.0
N3694 N 0.3232 0.76864 0.72134 0.0
N3695 N 0.24502 0.70078 0.67822 0.0
C3696 C 0.3031 0.75423 0.70878 0.0
C3697 C 0.26276 0.72003 0.68633 0.0
N3698 N 0.32217 0.74581 0.67277 0.0
N3699 N 0.23985 0.7367 0.71452 0.0
H3700 H 0.24576 0.68804 0.6636 0.0
H3701 H 0.23054 0.69627 0.68748 0.0
H3702 H 0.23814 0.74711 0.73056 0.0
H3703 H 0.22392 0.72757 0.70441 0.0
H3704 H 0.33597 0.76034 0.67799 0.0
H3705 H 0.323 0.73639 0.65565 0.0
H3706 H 0.3398 0.76842 0.71649 0.0
H3707 H 0.32357 0.78011 0.73741 0.0
C3708 C 0.63936 0.06982 0.88828 0.0
C3709 C 0.62737 0.05997 0.86431 0.0
C3710 C 0.58953 0.05884 0.87925 0.0
C3711 C 0.60155 0.07134 0.90232 0.0
N3712 N 0.63745 0.08948 0.92926 0.0
N3713 N 0.59145 0.04639 0.83587 0.0
C3714 C 0.62638 0.07692 0.90705 0.0
C3715 C 0.60253 0.05453 0.85954 0.0
N3716 N 0.6631 0.072 0.89306 0.0
N3717 N 0.56568 0.05112 0.87621 0.0
H3718 H 0.60033 0.04256 0.82096 0.0
H3719 H 0.57359 0.04482 0.83053 0.0
H3720 H 0.55532 0.05495 0.88975 0.0
H3721 H 0.55624 0.03951 0.86099 0.0
H3722 H 0.67273 0.07702 0.91068 0.0
H3723 H 0.67307 0.06698 0.87958 0.0
H3724 H 0.6554 0.09652 0.93288 0.0
H3725 H 0.62845 0.09398 0.94385 0.0
C3726 C 0.30647 0.34904 0.19272 0.0
C3727 C 0.29218 0.33537 0.1712 0.0
C3728 C 0.26973 0.31183 0.19883 0.0
C3729 C 0.28628 0.32273 0.21985 0.0
N3730 N 0.31093 0.36056 0.23721 0.0
N3731 N 0.26086 0.30229 0.15402 0.0
C3732 C 0.3022 0.34386 0.2171 0.0
C3733 C 0.27383 0.31653 0.17438 0.0
N3734 N 0.32426 0.36713 0.19 0.0
N3735 N 0.2486 0.29917 0.20259 0.0
H3736 H 0.26348 0.30476 0.13585 0.0
H3737 H 0.24894 0.28687 0.15529 0.0
H3738 H 0.24441 0.29716 0.22041 0.0
H3739 H 0.23448 0.29329 0.18847 0.0
H3740 H 0.33743 0.37541 0.20443 0.0
H3741 H 0.32676 0.37298 0.17297 0.0
H3742 H 0.32091 0.37708 0.23605 0.0
H3743 H 0.30541 0.35962 0.25454 0.0
C3744 C 0.17938 0.96988 0.02503 0.0
C3745 C 0.1926 0.98465 0.01042 0.0
C3746 C 0.17861 0.0182 0.02795 0.0
C3747 C 0.16556 1.00357 0.04291 0.0
N3748 N 0.14735 0.9646 0.04963 0.0
N3749 N 0.1986 0.01989 0.99147 0.0
C3750 C 0.16379 0.97903 0.03932 0.0
C3751 C 0.18966 0.00774 0.00941 0.0
N3752 N 0.18298 0.94785 0.02682 0.0
N3753 N 0.18214 0.04208 0.03272 0.0
H3754 H 0.20706 0.0123 0.97793 0.0
H3755 H 0.19551 0.03629 0.98858 0.0
H3756 H 0.17564 0.05077 0.04716 0.0
H3757 H 0.19347 0.0534 0.02387 0.0
H3758 H 0.17606 0.93763 0.03975 0.0
H3759 H 0.19397 0.94022 0.01638 0.0
H3760 H 0.14394 0.94638 0.04573 0.0
H3761 H 0.13554 0.97089 0.06007 0.0
C3762 C 0.64372 0.57262 0.01161 0.0
C3763 C 0.64897 0.59715 0.01983 0.0
C3764 C 0.60738 0.59501 0.0236 0.0
C3765 C 0.60265 0.57004 0.0188 0.0
N3766 N 0.61341 0.53831 0.99479 0.0
N3767 N 0.63582 0.63165 0.0355 0.0
C3768 C 0.62011 0.55955 0.00931 0.0
C3769 C 0.63085 0.60824 0.02668 0.0
N3770 N 0.6614 0.56159 0.00679 0.0
N3771 N 0.58948 0.60644 0.02112 0.0
H3772 H 0.65208 0.64274 0.03562 0.0
H3773 H 0.6241 0.6398 0.04422 0.0
H3774 H 0.57363 0.59826 0.01061 0.0
H3775 H 0.59161 0.6246 0.02371 0.0
H3776 H 0.65899 0.5434 0.00342 0.0
H3777 H 0.67884 0.57053 0.00828 0.0
H3778 H 0.62469 0.53078 0.9847 0.0
H3779 H 0.59578 0.52994 0.99012 0.0
C3780 C 0.68902 0.43014 0.27309 0.0
C3781 C 0.70257 0.45285 0.28279 0.0
C3782 C 0.73888 0.43918 0.27809 0.0
C3783 C 0.72526 0.41692 0.26696 0.0
N3784 N 0.6884 0.38906 0.25988 0.0
N3785 N 0.73992 0.47774 0.30021 0.0
C3786 C 0.7006 0.4117 0.26659 0.0
C3787 C 0.7274 0.45689 0.28731 0.0
N3788 N 0.6651 0.42652 0.26918 0.0
N3789 N 0.76268 0.44368 0.27858 0.0
H3790 H 0.73201 0.4912 0.30664 0.0
H3791 H 0.75785 0.48114 0.30622 0.0
H3792 H 0.77159 0.43078 0.27293 0.0
H3793 H 0.77355 0.46024 0.28362 0.0
H3794 H 0.65419 0.41128 0.25946 0.0
H3795 H 0.65607 0.43932 0.2748 0.0
H3796 H 0.67064 0.38347 0.26104 0.0
H3797 H 0.69662 0.37533 0.25515 0.0
C3798 C 0.93462 0.52953 0.53244 0.0
C3799 C 0.92296 0.50775 0.51858 0.0
C3800 C 0.96003 0.49639 0.51462 0.0
C3801 C 0.97197 0.51888 0.52671 0.0
N3802 N 0.97103 0.55831 0.54385 0.0
N3803 N 0.92411 0.4728 0.4914 0.0
C3804 C 0.95939 0.53594 0.53468 0.0
C3805 C 0.93556 0.492 0.5079 0.0
N3806 N 0.9221 0.54364 0.54413 0.0
N3807 N 0.97173 0.47869 0.51121 0.0
H3808 H 0.90601 0.46899 0.486 0.0
H3809 H 0.93283 0.46202 0.48127 0.0
H3810 H 0.98956 0.48086 0.51713 0.0
H3811 H 0.96334 0.46132 0.5049 0.0
H3812 H 0.92982 0.55842 0.55692 0.0
H3813 H 0.90383 0.5397 0.54227 0.0
H3814 H 0.9627 0.57209 0.5476 0.0
H3815 H 0.9892 0.56357 0.54588 0.0
C3816 C 0.30917 0.12633 0.32274 0.0
C3817 C 0.32833 0.12045 0.31199 0.0
C3818 C 0.32282 0.14427 0.27891 0.0
C3819 C 0.30161 0.14739 0.28761 0.0
N3820 N 0.27586 0.14505 0.31908 0.0
N3821 N 0.35554 0.12487 0.28207 0.0
C3822 C 0.29528 0.13973 0.31015 0.0
C3823 C 0.33621 0.13036 0.29113 0.0
N3824 N 0.30427 0.11861 0.34468 0.0
N3825 N 0.32982 0.1542 0.2587 0.0
H3826 H 0.36639 0.11565 0.29137 0.0
H3827 H 0.36074 0.1288 0.26518 0.0
H3828 H 0.31945 0.16255 0.24761 0.0
H3829 H 0.34633 0.1551 0.25323 0.0
H3830 H 0.29083 0.12234 0.35421 0.0
H3831 H 0.31471 0.1091 0.35416 0.0
H3832 H 0.26924 0.13903 0.33459 0.0
H3833 H 0.266 0.15574 0.31078 0.0
C3834 C 0.39142 0.12867 0.54126 0.0
C3835 C 0.36789 0.11755 0.53158 0.0
C3836 C 0.37858 0.07924 0.52978 0.0
C3837 C 0.40084 0.09005 0.54335 0.0
N3838 N 0.42817 0.12511 0.56382 0.0
N3839 N 0.33822 0.08186 0.5193 0.0
C3840 C 0.40734 0.11484 0.54936 0.0
C3841 C 0.36126 0.09272 0.52628 0.0
N3842 N 0.39857 0.15242 0.5424 0.0
N3843 N 0.37411 0.05608 0.52008 0.0
H3844 H 0.32481 0.09095 0.51693 0.0
H3845 H 0.3321 0.0638 0.51795 0.0
H3846 H 0.38656 0.04579 0.52212 0.0
H3847 H 0.35903 0.04775 0.50797 0.0
H3848 H 0.41601 0.16133 0.54701 0.0
H3849 H 0.38736 0.16299 0.53644 0.0
H3850 H 0.43264 0.14279 0.57117 0.0
H3851 H 0.44035 0.11564 0.57004 0.0
C3852 C 0.74401 0.67523 0.28107 0.0
C3853 C 0.72668 0.67396 0.29733 0.0
C3854 C 0.74208 0.71556 0.31328 0.0
C3855 C 0.75662 0.71803 0.29409 0.0
N3856 N 0.7698 0.69927 0.25799 0.0
N3857 N 0.70691 0.69411 0.32635 0.0
C3858 C 0.75736 0.69758 0.27763 0.0
C3859 C 0.72511 0.69445 0.31275 0.0
N3860 N 0.74814 0.65499 0.2693 0.0
N3861 N 0.74514 0.73304 0.33282 0.0
H3862 H 0.69394 0.67911 0.32639 0.0
H3863 H 0.70348 0.70923 0.33571 0.0
H3864 H 0.75835 0.7481 0.33492 0.0
H3865 H 0.73657 0.73128 0.34843 0.0
H3866 H 0.76227 0.65453 0.25945 0.0
H3867 H 0.73876 0.6384 0.27136 0.0
H3868 H 0.7682 0.68555 0.24365 0.0
H3869 H 0.78044 0.71467 0.2547 0.0
C3870 C 0.84569 0.38633 0.8062 0.0
C3871 C 0.83205 0.39974 0.79335 0.0
C3872 C 0.79753 0.36828 0.78888 0.0
C3873 C 0.81146 0.35391 0.7994 0.0
N3874 N 0.84584 0.35181 0.8266 0.0
N3875 N 0.79605 0.40307 0.76961 0.0
C3876 C 0.83483 0.36356 0.81047 0.0
C3877 C 0.8083 0.39053 0.78369 0.0
N3878 N 0.86908 0.39523 0.81378 0.0
N3879 N 0.77377 0.36181 0.78704 0.0
H3880 H 0.8034 0.41976 0.76575 0.0
H3881 H 0.77931 0.39608 0.76003 0.0
H3882 H 0.76601 0.34755 0.79516 0.0
H3883 H 0.76236 0.3723 0.7815 0.0
H3884 H 0.88056 0.38548 0.82088 0.0
H3885 H 0.87747 0.412 0.81113 0.0
H3886 H 0.86206 0.35884 0.83725 0.0
H3887 H 0.83775 0.33568 0.83117 0.0
C3888 C 0.07274 0.9363 0.04529 0.0
C3889 C 0.06001 0.92459 0.0629 0.0
C3890 C 0.03922 0.95786 0.06633 0.0
C3891 C 0.05338 0.97069 0.05052 0.0
N3892 N 0.08598 0.97213 0.02724 0.0
N3893 N 0.03492 0.92833 0.0944 0.0
C3894 C 0.07095 0.95992 0.04092 0.0
C3895 C 0.04421 0.93651 0.07438 0.0
N3896 N 0.08568 0.92434 0.0315 0.0
N3897 N 0.02077 0.96605 0.07408 0.0
H3898 H 0.03878 0.91368 0.10167 0.0
H3899 H 0.02556 0.9375 0.10554 0.0
H3900 H 0.0178 0.98239 0.07105 0.0
H3901 H 1.00784 0.95618 0.08251 0.0
H3902 H 0.09341 0.9305 0.01659 0.0
H3903 H 0.08685 0.90715 0.03341 0.0
H3904 H 0.10092 0.9669 0.02223 0.0
H3905 H 0.08439 0.98838 0.02218 0.0
C3906 C 0.86378 0.26567 0.86776 0.0
C3907 C 0.88671 0.27647 0.86376 0.0
C3908 C 0.86871 0.29411 0.82942 0.0
C3909 C 0.84562 0.28141 0.8318 0.0
N3910 N 0.82411 0.2483 0.84868 0.0
N3911 N 0.91059 0.29567 0.83581 0.0
C3912 C 0.84399 0.26528 0.84971 0.0
C3913 C 0.889 0.2891 0.84312 0.0
N3914 N 0.86059 0.25615 0.88914 0.0
N3915 N 0.8718 0.31167 0.81492 0.0
H3916 H 0.92572 0.29189 0.8448 0.0
H3917 H 0.91303 0.3025 0.81926 0.0
H3918 H 0.85839 0.31637 0.804 0.0
H3919 H 0.88788 0.32321 0.8154 0.0
H3920 H 0.84403 0.2502 0.89414 0.0
H3921 H 0.87438 0.25643 0.90301 0.0
H3922 H 0.82288 0.23507 0.86 0.0
H3923 H 0.81014 0.24524 0.83441 0.0
C3924 C 0.54034 0.1464 0.5352 0.0
C3925 C 0.55383 0.15946 0.55758 0.0
C3926 C 0.56395 0.12205 0.56816 0.0
C3927 C 0.54893 0.10879 0.54682 0.0
N3928 N 0.51912 0.10853 0.51282 0.0
N3929 N 0.57513 0.15812 0.59751 0.0
C3930 C 0.53615 0.1211 0.53114 0.0
C3931 C 0.56481 0.14679 0.57455 0.0
N3932 N 0.5321 0.15822 0.51722 0.0
N3933 N 0.57778 0.11105 0.58232 0.0
H3934 H 0.57571 0.17579 0.60316 0.0
H3935 H 0.58119 0.14961 0.6118 0.0
H3936 H 0.57703 0.09312 0.57881 0.0
H3937 H 0.59121 0.11989 0.59624 0.0
H3938 H 0.52439 0.15014 0.49947 0.0
H3939 H 0.53496 0.17647 0.51923 0.0
H3940 H 0.50738 0.11601 0.50241 0.0
H3941 H 0.51523 0.09026 0.50966 0.0
C3942 C 0.60807 0.79564 0.35046 0.0
C3943 C 0.61082 0.78809 0.37423 0.0
C3944 C 0.65337 0.79323 0.37303 0.0
C3945 C 0.6506 0.801 0.34938 0.0
N3946 N 0.6251 0.80417 0.313 0.0
N3947 N 0.63495 0.77465 0.40565 0.0
C3948 C 0.62779 0.80031 0.33725 0.0
C3949 C 0.63315 0.78524 0.38469 0.0
N3950 N 0.58683 0.79945 0.34101 0.0
N3951 N 0.67543 0.79455 0.38486 0.0
H3952 H 0.62058 0.76887 0.41471 0.0
H3953 H 0.65016 0.76987 0.41292 0.0
H3954 H 0.69045 0.79938 0.37646 0.0
H3955 H 0.67898 0.79199 0.40332 0.0
H3956 H 0.58425 0.80752 0.32522 0.0
H3957 H 0.57196 0.79601 0.34993 0.0
H3958 H 0.60887 0.8019 0.30216 0.0
H3959 H 0.63926 0.80754 0.30298 0.0
C3960 C 0.03534 0.18552 0.42169 0.0
C3961 C 0.04211 0.2085 0.43514 0.0
C3962 C 0.04122 0.19161 0.47443 0.0
C3963 C 0.03062 0.16927 0.46093 0.0
N3964 N 0.01779 0.14436 0.42182 0.0
N3965 N 0.05092 0.23379 0.47445 0.0
C3966 C 0.02812 0.166 0.43455 0.0
C3967 C 0.04532 0.21163 0.4616 0.0
N3968 N 0.03606 0.18241 0.39664 0.0
N3969 N 0.04704 0.19362 0.49961 0.0
H3970 H 0.05405 0.24884 0.46581 0.0
H3971 H 0.05092 0.2374 0.49354 0.0
H3972 H 0.04403 0.17921 0.5093 0.0
H3973 H 0.05671 0.20889 0.5105 0.0
H3974 H 0.03342 0.16604 0.38598 0.0
H3975 H 0.04129 0.19633 0.38675 0.0
H3976 H 0.01255 0.14121 0.40269 0.0
H3977 H 0.01358 0.12956 0.43073 0.0
C3978 C 0.67167 0.25379 0.26801 0.0
C3979 C 0.66213 0.27044 0.25552 0.0
C3980 C 0.70314 0.28849 0.24926 0.0
C3981 C 0.71285 0.27264 0.26345 0.0
N3982 N 0.70237 0.23238 0.27014 0.0
N3983 N 0.66988 0.30525 0.23566 0.0
C3984 C 0.69609 0.25322 0.26881 0.0
C3985 C 0.67826 0.28834 0.24678 0.0
N3986 N 0.65746 0.23834 0.27961 0.0
N3987 N 0.71689 0.30116 0.23473 0.0
H3988 H 0.65205 0.30463 0.23119 0.0
H3989 H 0.68057 0.32071 0.23236 0.0
H3990 H 0.73299 0.29774 0.23111 0.0
H3991 H 0.71101 0.31197 0.22277 0.0
H3992 H 0.66395 0.22742 0.29112 0.0
H3993 H 0.6397 0.2382 0.27981 0.0
H3994 H 0.69048 0.21707 0.27182 0.0
H3995 H 0.71757 0.2294 0.26365 0.0
C3996 C 0.53933 0.92752 0.97944 0.0
C3997 C 0.54591 0.93018 0.95551 0.0
C3998 C 0.55014 0.97299 0.96556 0.0
C3999 C 0.54092 0.97034 0.98855 0.0
N4000 N 0.52292 0.94317 0.01466 0.0
N4001 N 0.55394 0.95531 0.92425 0.0
C4002 C 0.53463 0.94707 0.9948 0.0
C4003 C 0.55013 0.95287 0.94815 0.0
N4004 N 0.53784 0.90627 0.98777 0.0
N4005 N 0.56045 0.99471 0.96083 0.0
H4006 H 0.55489 0.94125 0.91123 0.0
H4007 H 0.5542 0.9709 0.91678 0.0
H4008 H 0.56219 0.00974 0.97333 0.0
H4009 H 0.56975 0.99755 0.94589 0.0
H4010 H 0.53599 0.90376 0.00609 0.0
H4011 H 0.54047 0.8915 0.9769 0.0
H4012 H 0.51538 0.92652 0.01835 0.0
H4013 H 0.51865 0.95646 0.02613 0.0
C4014 C 0.88191 0.77475 0.73208 0.0
C4015 C 0.89878 0.76833 0.74944 0.0
C4016 C 0.86879 0.76563 0.77893 0.0
C4017 C 0.85278 0.77438 0.76259 0.0
N4018 N 0.84725 0.79111 0.7245 0.0
N4019 N 0.90888 0.76197 0.79163 0.0
C4020 C 0.86023 0.77985 0.73937 0.0
C4021 C 0.89229 0.76503 0.77346 0.0
N4022 N 0.88616 0.77524 0.70805 0.0
N4023 N 0.86119 0.75645 0.79921 0.0
H4024 H 0.92595 0.76138 0.78854 0.0
H4025 H 0.90637 0.76228 0.81024 0.0
H4026 H 0.84407 0.75508 0.80311 0.0
H4027 H 0.87092 0.74767 0.81047 0.0
H4028 H 0.87369 0.777 0.69369 0.0
H4029 H 0.90144 0.77169 0.70196 0.0
H4030 H 0.85301 0.7982 0.70907 0.0
H4031 H 0.83179 0.79559 0.72887 0.0
C4032 C 0.07604 0.02125 0.92737 0.0
C4033 C 0.0818 0.04325 0.91836 0.0
C4034 C 0.06903 0.06195 0.95567 0.0
C4035 C 0.06552 0.04043 0.9659 0.0
N4036 N 0.06947 1.00022 0.96274 0.0
N4037 N 0.08876 0.08538 0.92729 0.0
C4038 C 0.07034 0.02032 0.95217 0.0
C4039 C 0.07957 0.06381 0.93341 0.0
N4040 N 0.07487 1.00104 0.91182 0.0
N4041 N 0.06247 0.08086 0.96728 0.0
H4042 H 0.09735 0.08765 0.91174 0.0
H4043 H 0.09009 0.10099 0.93897 0.0
H4044 H 0.05653 0.0809 0.98448 0.0
H4045 H 0.06175 0.096 0.95922 0.0
H4046 H 0.06833 0.98441 0.91628 0.0
H4047 H 0.07824 1.00093 0.89346 0.0
H4048 H 0.07524 0.98582 0.95484 0.0
H4049 H 0.0645 0.99852 0.9803 0.0
C4050 C 0.81254 0.34614 0.60762 0.0
C4051 C 0.81695 0.37092 0.61313 0.0
C4052 C 0.83782 0.36948 0.65392 0.0
C4053 C 0.8321 0.34461 0.64909 0.0
N4054 N 0.80926 0.30923 0.62404 0.0
N4055 N 0.82874 0.40582 0.64319 0.0
C4056 C 0.81801 0.33288 0.62672 0.0
C4057 C 0.828 0.38248 0.63687 0.0
N4058 N 0.80407 0.33534 0.58395 0.0
N4059 N 0.85336 0.38066 0.67425 0.0
H4060 H 0.82147 0.41582 0.63111 0.0
H4061 H 0.83448 0.41467 0.66111 0.0
H4062 H 0.8614 0.37175 0.68695 0.0
H4063 H 0.85995 0.39872 0.6773 0.0
H4064 H 0.80306 0.31759 0.57834 0.0
H4065 H 0.79979 0.3444 0.56935 0.0
H4066 H 0.7969 0.30021 0.60919 0.0
H4067 H 0.81265 0.29892 0.63779 0.0
C4068 C 0.49375 0.04802 0.42876 0.0
C4069 C 0.47653 0.0275 0.41915 0.0
C4070 C 0.49094 0.00676 0.45176 0.0
C4071 C 0.50581 0.02817 0.4635 0.0
N4072 N 0.52239 0.06923 0.46321 0.0
N4073 N 0.45645 0.98815 0.42261 0.0
C4074 C 0.50753 0.04885 0.45199 0.0
C4075 C 0.47461 0.007 0.43081 0.0
N4076 N 0.49733 0.06637 0.41525 0.0
N4077 N 0.4923 0.9862 0.46062 0.0
H4078 H 0.44406 0.98756 0.4072 0.0
H4079 H 0.45249 0.97387 0.43228 0.0
H4080 H 0.50308 0.98546 0.47674 0.0
H4081 H 0.48392 0.96977 0.45111 0.0
H4082 H 0.51122 0.08087 0.41985 0.0
H4083 H 0.48738 0.06634 0.3982 0.0
H4084 H 0.52221 0.08556 0.45762 0.0
H4085 H 0.53458 0.07003 0.4788 0.0
C4086 C 0.76694 0.73159 0.17487 0.0
C4087 C 0.7776 0.74693 0.15899 0.0
C4088 C 0.79381 0.77648 0.19575 0.0
C4089 C 0.78092 0.76234 0.21122 0.0
N4090 N 0.75298 0.72716 0.21461 0.0
N4091 N 0.79792 0.7857 0.15404 0.0
C4092 C 0.76684 0.74009 0.20047 0.0
C4093 C 0.79006 0.76989 0.16939 0.0
N4094 N 0.75777 0.70854 0.16579 0.0
N4095 N 0.81083 0.79549 0.2063 0.0
H4096 H 0.79549 0.7816 0.13472 0.0
H4097 H 0.80487 0.8034 0.16033 0.0
H4098 H 0.815 0.79998 0.22546 0.0
H4099 H 0.82246 0.80514 0.19628 0.0
H4100 H 0.75216 0.69586 0.17697 0.0
H4101 H 0.7577 0.70157 0.14736 0.0
H4102 H 0.74028 0.71213 0.20737 0.0
H4103 H 0.75299 0.73249 0.23343 0.0
C4104 C 0.08862 0.03785 0.64136 0.0
C4105 C 0.07549 0.04645 0.6592 0.0
C4106 C 0.04496 0.04849 0.62515 0.0
C4107 C 0.05903 0.04199 0.6071 0.0
N4108 N 0.09587 0.0331 0.59856 0.0
N4109 N 0.04289 0.0636 0.66791 0.0
C4110 C 0.08131 0.03742 0.61542 0.0
C4111 C 0.05417 0.05285 0.65101 0.0
N4112 N 0.10774 0.02925 0.64917 0.0
N4113 N 0.02227 0.04933 0.61774 0.0
H4114 H 0.04883 0.06665 0.68696 0.0
H4115 H 0.02884 0.07122 0.66286 0.0
H4116 H 0.01495 0.04604 0.59915 0.0
H4117 H 0.01023 0.05125 0.63003 0.0
H4118 H 0.11647 0.02019 0.63717 0.0
H4119 H 0.11385 0.02953 0.6679 0.0
H4120 H 0.11355 0.03328 0.60341 0.0
H4121 H 0.09059 0.03062 0.57952 0.0
C4122 C 0.7703 0.338 0.37719 0.0
C4123 C 0.79187 0.35194 0.38964 0.0
C4124 C 0.81357 0.3312 0.36272 0.0
C4125 C 0.79216 0.31996 0.34768 0.0
N4126 N 0.74973 0.31012 0.3418 0.0
N4127 N 0.83387 0.36466 0.39232 0.0
C4128 C 0.77034 0.3227 0.35519 0.0
C4129 C 0.81348 0.34931 0.38191 0.0
N4130 N 0.75002 0.33868 0.38709 0.0
N4131 N 0.83393 0.32427 0.35918 0.0
H4132 H 0.83456 0.3784 0.40642 0.0
H4133 H 0.84971 0.36516 0.3853 0.0
H4134 H 0.83486 0.31065 0.3457 0.0
H4135 H 0.84951 0.33044 0.37128 0.0
H4136 H 0.73402 0.32724 0.38049 0.0
H4137 H 0.7494 0.34974 0.4032 0.0
H4138 H 0.73342 0.31382 0.34391 0.0
H4139 H 0.74883 0.29582 0.32833 0.0
C4140 C 0.44887 0.02838 0.17149 0.0
C4141 C 0.45615 0.0228 0.19529 0.0
C4142 C 0.48162 0.99912 0.17766 0.0
C4143 C 0.47361 1.00389 0.15371 0.0
N4144 N 0.45563 0.02818 0.12842 0.0
N4145 N 0.48416 0.00921 0.22233 0.0
C4146 C 0.45928 0.02037 0.15087 0.0
C4147 C 0.47428 0.01038 0.19877 0.0
N4148 N 0.43106 0.04 0.16835 0.0
N4149 N 0.49503 0.9828 0.18011 0.0
H4150 H 0.47901 0.01742 0.23809 0.0
H4151 H 0.49881 1.00211 0.2262 0.0
H4152 H 0.5011 0.97443 0.16511 0.0
H4153 H 0.49898 0.97647 0.19677 0.0
H4154 H 0.42306 0.04208 0.15101 0.0
H4155 H 0.42333 0.0465 0.18314 0.0
H4156 H 0.44705 0.04174 0.12567 0.0
H4157 H 0.46317 0.02254 0.11306 0.0
C4158 C 0.76824 0.76134 0.8946 0.0
C4159 C 0.77728 0.74132 0.89903 0.0
C4160 C 0.79357 0.74279 0.85925 0.0
C4161 C 0.78118 0.76029 0.8527 0.0
N4162 N 0.75362 0.78402 0.86478 0.0
N4163 N 0.79521 0.71044 0.88289 0.0
C4164 C 0.76768 0.76896 0.87057 0.0
C4165 C 0.78888 0.73127 0.8805 0.0
N4166 N 0.76098 0.77387 0.91372 0.0
N4167 N 0.8113 0.73835 0.84656 0.0
H4168 H 0.79198 0.70139 0.89795 0.0
H4169 H 0.80153 0.70113 0.86873 0.0
H4170 H 0.81749 0.74824 0.83308 0.0
H4171 H 0.8221 0.72721 0.85191 0.0
H4172 H 0.75692 0.7902 0.91256 0.0
H4173 H 0.76138 0.7692 0.93161 0.0
H4174 H 0.74125 0.78812 0.87582 0.0
H4175 H 0.75235 0.79084 0.84812 0.0
C4176 C 0.88652 0.08741 0.04286 0.0
C4177 C 0.87198 0.07415 0.05751 0.0
C4178 C 0.88562 0.039 0.04364 0.0
C4179 C 0.89635 0.05116 0.02545 0.0
N4180 N 0.90917 0.08698 0.00837 0.0
N4181 N 0.85884 0.03862 0.07449 0.0
C4182 C 0.89781 0.07554 0.02552 0.0
C4183 C 0.87235 0.0504 0.05913 0.0
N4184 N 0.88894 0.11122 0.04526 0.0
N4185 N 0.88811 0.01667 0.04593 0.0
H4186 H 0.84996 0.04713 0.08689 0.0
H4187 H 0.85588 0.02057 0.07455 0.0
H4188 H 0.89719 0.00758 0.03431 0.0
H4189 H 0.88255 0.00763 0.06027 0.0
H4190 H 0.9006 0.12231 0.03656 0.0
H4191 H 0.88059 0.12023 0.05776 0.0
H4192 H 0.9088 0.10412 0.0056 0.0
H4193 H 0.91826 0.07892 0.99586 0.0
C4194 C 0.44975 0.46262 0.04895 0.0
C4195 C 0.43036 0.47295 0.05247 0.0
C4196 C 0.45706 0.5119 0.06072 0.0
C4197 C 0.47548 0.50185 0.0528 0.0
N4198 N 0.4918 0.46804 0.05682 0.0
N4199 N 0.41518 0.50777 0.0609 0.0
C4200 C 0.47256 0.47717 0.05166 0.0
C4201 C 0.43392 0.4977 0.05823 0.0
N4202 N 0.44646 0.43891 0.0427 0.0
N4203 N 0.46214 0.53367 0.07415 0.0
H4204 H 0.3981 0.49796 0.05978 0.0
H4205 H 0.41645 0.52583 0.0623 0.0
H4206 H 0.4793 0.54267 0.08031 0.0
H4207 H 0.44975 0.5409 0.08268 0.0
H4208 H 0.45965 0.43085 0.03713 0.0
H4209 H 0.43015 0.42747 0.04126 0.0
H4210 H 0.49103 0.45038 0.05825 0.0
H4211 H 0.508 0.47902 0.06387 0.0
C4212 C 0.38351 0.63895 0.77162 0.0
C4213 C 0.37462 0.61897 0.78288 0.0
C4214 C 0.34962 0.64078 0.80464 0.0
C4215 C 0.35792 0.66047 0.79265 0.0
N4216 N 0.3781 0.67644 0.7603 0.0
N4217 N 0.3455 0.59896 0.80542 0.0
C4218 C 0.37337 0.65891 0.77466 0.0
C4219 C 0.35646 0.61929 0.79792 0.0
N4220 N 0.40243 0.63936 0.75905 0.0
N4221 N 0.33615 0.6429 0.82326 0.0
H4222 H 0.35006 0.58292 0.8008 0.0
H4223 H 0.33056 0.59754 0.81426 0.0
H4224 H 0.33061 0.65825 0.82864 0.0
H4225 H 0.33187 0.63003 0.83464 0.0
H4226 H 0.4113 0.65437 0.75288 0.0
H4227 H 0.41057 0.62523 0.75658 0.0
H4228 H 0.38739 0.67531 0.74521 0.0
H4229 H 0.37077 0.69121 0.76196 0.0
C4230 C 0.14395 0.54411 0.54054 0.0
C4231 C 0.15511 0.56275 0.55925 0.0
C4232 C 0.1172 0.56752 0.57059 0.0
C4233 C 0.10618 0.55102 0.54961 0.0
N4234 N 0.10963 0.52922 0.51055 0.0
N4235 N 0.15269 0.59497 0.58985 0.0
C4236 C 0.11964 0.54064 0.53351 0.0
C4237 C 0.14189 0.57517 0.57389 0.0
N4238 N 0.15667 0.52999 0.52925 0.0
N4239 N 0.10421 0.57571 0.58742 0.0
H4240 H 0.17079 0.60129 0.59286 0.0
H4241 H 0.14357 0.6062 0.59868 0.0
H4242 H 0.08601 0.57062 0.58552 0.0
H4243 H 0.11158 0.58592 0.60434 0.0
H4244 H 0.14888 0.51487 0.51691 0.0
H4245 H 0.17472 0.53214 0.53419 0.0
H4246 H 0.11928 0.52342 0.49717 0.0
H4247 H 0.092 0.5276 0.50405 0.0
C4248 C 0.77485 0.96064 0.79258 0.0
C4249 C 0.75757 0.95422 0.77142 0.0
C4250 C 0.75626 0.91287 0.77346 0.0
C4251 C 0.76935 0.91932 0.79749 0.0
N4252 N 0.79287 0.94871 0.82972 0.0
N4253 N 0.73241 0.92495 0.74033 0.0
C4254 C 0.77962 0.94306 0.80682 0.0
C4255 C 0.74881 0.9305 0.76107 0.0
N4256 N 0.78609 0.98361 0.79917 0.0
N4257 N 0.75108 0.88998 0.76268 0.0
H4258 H 0.72735 0.93767 0.73034 0.0
H4259 H 0.72316 0.90795 0.73362 0.0
H4260 H 0.75681 0.87681 0.77133 0.0
H4261 H 0.74312 0.88441 0.74442 0.0
H4262 H 0.80011 0.98939 0.81336 0.0
H4263 H 0.7826 0.99675 0.78887 0.0
H4264 H 0.79869 0.96578 0.83881 0.0
H4265 H 0.79725 0.93611 0.84031 0.0
C4266 C 0.6877 0.948 0.52192 0.0
C4267 C 0.70975 0.95598 0.53713 0.0
C4268 C 0.6995 0.99389 0.54814 0.0
C4269 C 0.67962 0.98739 0.52956 0.0
N4270 N 0.6563 0.95876 0.49631 0.0
N4271 N 0.73829 0.98829 0.56156 0.0
C4272 C 0.67395 0.96448 0.51589 0.0
C4273 C 0.71605 0.97936 0.54959 0.0
N4274 N 0.67972 0.92463 0.5136 0.0
N4275 N 0.70242 0.01387 0.56461 0.0
H4276 H 0.75141 0.97872 0.56224 0.0
H4277 H 0.74438 1.00595 0.56867 0.0
H4278 H 0.69031 0.02464 0.56442 0.0
H4279 H 0.71544 0.01832 0.57997 0.0
H4280 H 0.66283 0.91755 0.50443 0.0
H4281 H 0.68911 0.91204 0.5181 0.0
H4282 H 0.65315 0.94318 0.4841 0.0
H4283 H 0.64607 0.97036 0.49087 0.0
C4284 C 0.33816 0.39246 0.79382 0.0
C4285 C 0.35192 0.39523 0.77416 0.0
C4286 C 0.33337 0.35493 0.75537 0.0
C4287 C 0.32154 0.35112 0.7766 0.0
N4288 N 0.32104 0.36501 0.81981 0.0
N4289 N 0.36753 0.37627 0.74039 0.0
C4290 C 0.32617 0.3696 0.79689 0.0
C4291 C 0.35103 0.37561 0.75622 0.0
N4292 N 0.33622 0.41155 0.80947 0.0
N4293 N 0.32733 0.33972 0.73378 0.0
H4294 H 0.38125 0.39074 0.74089 0.0
H4295 H 0.36909 0.36151 0.72875 0.0
H4296 H 0.31395 0.32493 0.73113 0.0
H4297 H 0.33393 0.34331 0.71736 0.0
H4298 H 0.32472 0.41044 0.82273 0.0
H4299 H 0.34423 0.42866 0.8075 0.0
H4300 H 0.32557 0.37758 0.83558 0.0
H4301 H 0.31573 0.34795 0.82364 0.0
C4302 C 0.26141 0.68681 0.29276 0.0
C4303 C 0.26057 0.67375 0.26905 0.0
C4304 C 0.27029 0.71004 0.25136 0.0
C4305 C 0.27435 0.72302 0.27553 0.0
N4306 N 0.28062 0.72242 0.31979 0.0
N4307 N 0.27112 0.67326 0.22752 0.0
C4308 C 0.27184 0.71109 0.2965 0.0
C4309 C 0.26717 0.68546 0.24885 0.0
N4310 N 0.25168 0.67643 0.3114 0.0
N4311 N 0.26872 0.72101 0.23074 0.0
H4312 H 0.26998 0.65518 0.22539 0.0
H4313 H 0.27806 0.6815 0.21321 0.0
H4314 H 0.27017 0.73902 0.23184 0.0
H4315 H 0.26365 0.71194 0.21281 0.0
H4316 H 0.25016 0.68599 0.32816 0.0
H4317 H 0.24306 0.65884 0.30921 0.0
H4318 H 0.28047 0.71396 0.33558 0.0
H4319 H 0.29067 0.73947 0.32271 0.0
C4320 C 0.51628 0.62735 0.48234 0.0
C4321 C 0.51763 0.64688 0.50091 0.0
C4322 C 0.52227 0.61975 0.53259 0.0
C4323 C 0.52354 0.60075 0.51411 0.0
N4324 N 0.52794 0.59062 0.47096 0.0
N4325 N 0.52692 0.66192 0.54439 0.0
C4326 C 0.52207 0.6057 0.48885 0.0
C4327 C 0.52221 0.64308 0.52618 0.0
N4328 N 0.50926 0.62927 0.45814 0.0
N4329 N 0.5197 0.61548 0.55629 0.0
H4330 H 0.52648 0.67886 0.54064 0.0
H4331 H 0.53333 0.66105 0.56275 0.0
H4332 H 0.51768 0.59883 0.56161 0.0
H4333 H 0.51667 0.62791 0.56998 0.0
H4334 H 0.50514 0.61499 0.44407 0.0
H4335 H 0.50553 0.64469 0.45256 0.0
H4336 H 0.52932 0.59426 0.45288 0.0
H4337 H 0.53449 0.57603 0.47476 0.0
C4338 C 0.69649 0.27864 0.69951 0.0
C4339 C 0.68226 0.29505 0.70503 0.0
C4340 C 0.70975 0.31054 0.74364 0.0
C4341 C 0.72243 0.29251 0.73966 0.0
N4342 N 0.72304 0.2556 0.71588 0.0
N4343 N 0.67262 0.32223 0.73667 0.0
C4344 C 0.71432 0.27543 0.71819 0.0
C4345 C 0.6881 0.30969 0.72837 0.0
N4346 N 0.69393 0.26686 0.67603 0.0
N4347 N 0.7189 0.32938 0.76118 0.0
H4348 H 0.65613 0.32128 0.72684 0.0
H4349 H 0.67512 0.33143 0.75456 0.0
H4350 H 0.7346 0.33057 0.77231 0.0
H4351 H 0.71195 0.34435 0.76306 0.0
H4352 H 0.70529 0.2564 0.67042 0.0
H4353 H 0.68218 0.26957 0.66147 0.0
H4354 H 0.71607 0.24144 0.70203 0.0
H4355 H 0.73571 0.25243 0.72919 0.0
C4356 C 0.0147 0.42328 0.026 0.0
C4357 C 0.02262 0.41254 0.00473 0.0
C4358 C 0.03531 0.45256 0.99288 0.0
C4359 C 0.02926 0.46357 0.01532 0.0
N4360 N 0.01712 0.45835 0.05541 0.0
N4361 N 0.04295 0.41782 0.96923 0.0
C4362 C 0.01984 0.44855 0.03233 0.0
C4363 C 0.03371 0.42752 0.98869 0.0
N4364 N 1.00208 0.40929 0.04031 0.0
N4365 N 0.0414 0.46577 0.97463 0.0
H4366 H 0.04094 0.39978 0.96451 0.0
H4367 H 0.05393 0.42761 0.95871 0.0
H4368 H 0.04317 0.48383 0.97657 0.0
H4369 H 0.04289 0.45869 0.9567 0.0
H4370 H 0.99317 0.41568 0.05408 0.0
H4371 H 0.99906 0.39104 0.03719 0.0
H4372 H 0.01263 0.44866 0.06966 0.0
H4373 H 0.02163 0.47635 0.06129 0.0
C4374 C 0.96075 0.7787 0.20921 0.0
C4375 C 0.96088 0.78481 0.18477 0.0
C4376 C 0.91866 0.78403 0.18211 0.0
C4377 C 0.91785 0.77449 0.20485 0.0
N4378 N 0.93801 0.76049 0.23909 0.0
N4379 N 0.93915 0.79021 0.14649 0.0
C4380 C 0.93892 0.77142 0.2183 0.0
C4381 C 0.93963 0.78681 0.17087 0.0
N4382 N 0.98154 0.78026 0.22392 0.0
N4383 N 0.89942 0.79084 0.17143 0.0
H4384 H 0.95397 0.79208 0.1374 0.0
H4385 H 0.92369 0.78911 0.13464 0.0
H4386 H 0.88394 0.78946 0.17939 0.0
H4387 H 0.89959 0.8 0.15617 0.0
H4388 H 0.98276 0.77842 0.24273 0.0
H4389 H 0.99777 0.78554 0.21787 0.0
H4390 H 0.95233 0.75535 0.24807 0.0
H4391 H 0.92248 0.75489 0.24634 0.0
C4392 C 0.53143 0.35378 0.09752 0.0
C4393 C 0.53761 0.35744 0.12378 0.0
C4394 C 0.55311 0.39947 0.12252 0.0
C4395 C 0.54947 0.3952 0.09613 0.0
N4396 N 0.53477 0.36899 0.0581 0.0
N4397 N 0.55378 0.3834 0.16172 0.0
C4398 C 0.5382 0.37258 0.08354 0.0
C4399 C 0.54806 0.38028 0.13642 0.0
N4400 N 0.51917 0.33226 0.08597 0.0
N4401 N 0.56141 0.42192 0.13421 0.0
H4402 H 0.54913 0.37011 0.17255 0.0
H4403 H 0.56387 0.39876 0.17206 0.0
H4404 H 0.56579 0.43619 0.12458 0.0
H4405 H 0.56255 0.42686 0.15326 0.0
H4406 H 0.51195 0.32881 0.06734 0.0
H4407 H 0.51489 0.31784 0.0954 0.0
H4408 H 0.52942 0.35258 0.04742 0.0
H4409 H 0.53811 0.38262 0.0474 0.0
C4410 C 0.8998 0.28269 0.29096 0.0
C4411 C 0.91416 0.30159 0.30811 0.0
C4412 C 0.87811 0.31728 0.31271 0.0
C4413 C 0.8633 0.29718 0.29746 0.0
N4414 N 0.86109 0.25872 0.27509 0.0
N4415 N 0.91527 0.33451 0.33897 0.0
C4416 C 0.87451 0.27931 0.28761 0.0
C4417 C 0.90279 0.31831 0.31979 0.0
N4418 N 0.91038 0.26839 0.27678 0.0
N4419 N 0.86864 0.33555 0.32092 0.0
H4420 H 0.9329 0.33552 0.34523 0.0
H4421 H 0.90768 0.3454 0.35036 0.0
H4422 H 0.85077 0.33488 0.318 0.0
H4423 H 0.87862 0.35182 0.32928 0.0
H4424 H 0.90136 0.25602 0.26194 0.0
H4425 H 0.92854 0.27046 0.27821 0.0
H4426 H 0.86777 0.24391 0.27054 0.0
H4427 H 0.84298 0.25574 0.27063 0.0
C4428 C 0.04353 0.63583 0.59834 0.0
C4429 C 0.0271 0.63435 0.61562 0.0
C4430 C 0.01516 0.59153 0.60157 0.0
C4431 C 0.03336 0.59258 0.58596 0.0
N4432 N 0.0689 0.61635 0.57575 0.0
N4433 N 1.00077 0.60963 0.63726 0.0
C4434 C 0.04863 0.61493 0.5861 0.0
C4435 C 0.01399 0.61185 0.61826 0.0
N4436 N 0.05398 0.65731 0.59298 0.0
N4437 N 0.99806 0.57164 0.59983 0.0
H4438 H 0.99936 0.6239 0.64973 0.0
H4439 H 0.99307 0.59347 0.6421 0.0
H4440 H 0.99733 0.55636 0.588 0.0
H4441 H 0.98302 0.57103 0.60841 0.0
H4442 H 0.06404 0.65943 0.57851 0.0
H4443 H 0.05071 0.67296 0.60133 0.0
H4444 H 0.08175 0.63174 0.57767 0.0
H4445 H 0.07434 0.60181 0.56782 0.0
C4446 C 0.68496 0.78822 0.82283 0.0
C4447 C 0.67489 0.80633 0.81372 0.0
C4448 C 0.71192 0.81866 0.79487 0.0
C4449 C 0.72102 0.79916 0.802 0.0
N4450 N 0.71363 0.76379 0.82105 0.0
N4451 N 0.67826 0.83685 0.78763 0.0
C4452 C 0.70661 0.78348 0.81527 0.0
C4453 C 0.6884 0.8211 0.79897 0.0
N4454 N 0.67454 0.77623 0.84014 0.0
N4455 N 0.7257 0.83505 0.78393 0.0
H4456 H 0.66138 0.83896 0.78984 0.0
H4457 H 0.6856 0.84633 0.77438 0.0
H4458 H 0.74194 0.83324 0.77899 0.0
H4459 H 0.72173 0.85113 0.78124 0.0
H4460 H 0.68221 0.76491 0.85001 0.0
H4461 H 0.65926 0.77936 0.84658 0.0
H4462 H 0.70277 0.74994 0.82724 0.0
H4463 H 0.73019 0.76098 0.81882 0.0
C4464 C 0.51448 0.52108 0.64386 0.0
C4465 C 0.49309 0.52791 0.64678 0.0
C4466 C 0.49409 0.54276 0.60622 0.0
C4467 C 0.51292 0.53174 0.60086 0.0
N4468 N 0.53966 0.50774 0.61649 0.0
N4469 N 0.46068 0.54265 0.6287 0.0
C4470 C 0.52277 0.52021 0.62018 0.0
C4471 C 0.48233 0.53791 0.62731 0.0
N4472 N 0.52765 0.51626 0.66411 0.0
N4473 N 0.48843 0.55937 0.5925 0.0
H4474 H 0.45157 0.53943 0.64373 0.0
H4475 H 0.45096 0.54769 0.6139 0.0
H4476 H 0.49832 0.56592 0.57919 0.0
H4477 H 0.47615 0.56917 0.59689 0.0
H4478 H 0.54485 0.51421 0.66402 0.0
H4479 H 0.52246 0.51684 0.68178 0.0
H4480 H 0.54409 0.49628 0.62854 0.0
H4481 H 0.54818 0.50665 0.60098 0.0
C4482 C 0.76457 0.21811 0.95261 0.0
C4483 C 0.77497 0.19846 0.95329 0.0
C4484 C 0.77369 0.19425 0.90815 0.0
C4485 C 0.75884 0.21044 0.90718 0.0
N4486 N 0.73863 0.23698 0.92862 0.0
N4487 N 0.78856 0.16668 0.93177 0.0
C4488 C 0.75417 0.22255 0.92945 0.0
C4489 C 0.77969 0.1864 0.93111 0.0
N4490 N 0.76438 0.23223 0.97419 0.0
N4491 N 0.78211 0.18653 0.88716 0.0
H4492 H 0.79346 0.16045 0.94825 0.0
H4493 H 0.7896 0.15561 0.91584 0.0
H4494 H 0.7783 0.19232 0.8701 0.0
H4495 H 0.79468 0.17631 0.88722 0.0
H4496 H 0.75894 0.24806 0.9747 0.0
H4497 H 0.77193 0.2292 0.99142 0.0
H4498 H 0.73279 0.24423 0.94439 0.0
H4499 H 0.72994 0.2402 0.91211 0.0
C4500 C 0.10429 0.51815 0.11797 0.0
C4501 C 0.10547 0.53468 0.13928 0.0
C4502 C 0.07463 0.55074 0.11856 0.0
C4503 C 0.07288 0.53362 0.09761 0.0
N4504 N 0.08093 0.49717 0.07986 0.0
N4505 N 0.08805 0.56251 0.16249 0.0
C4506 C 0.08605 0.51601 0.09814 0.0
C4507 C 0.08944 0.54969 0.14042 0.0
N4508 N 0.12118 0.50534 0.11617 0.0
N4509 N 0.06274 0.56836 0.11735 0.0
H4510 H 0.09852 0.56197 0.17905 0.0
H4511 H 0.07506 0.57194 0.16492 0.0
H4512 H 0.05111 0.56928 0.10188 0.0
H4513 H 0.06561 0.58292 0.13096 0.0
H4514 H 0.12254 0.49496 0.09987 0.0
H4515 H 0.13507 0.50663 0.13026 0.0
H4516 H 0.08866 0.48274 0.08044 0.0
H4517 H 0.06728 0.49498 0.0653 0.0
C4518 C 0.80456 0.79944 0.40269 0.0
C4519 C 0.79847 0.82078 0.41155 0.0
C4520 C 0.7891 0.82768 0.36817 0.0
C4521 C 0.79418 0.80577 0.35923 0.0
N4522 N 0.80136 0.76852 0.36829 0.0
N4523 N 0.7824 0.85407 0.40292 0.0
C4524 C 0.80047 0.79105 0.37662 0.0
C4525 C 0.79 0.83454 0.3943 0.0
N4526 N 0.81462 0.78731 0.41919 0.0
N4527 N 0.78376 0.84223 0.35169 0.0
H4528 H 0.78394 0.86042 0.42177 0.0
H4529 H 0.77323 0.86328 0.39164 0.0
H4530 H 0.78145 0.83729 0.33263 0.0
H4531 H 0.78299 0.85964 0.35668 0.0
H4532 H 0.82207 0.77322 0.4138 0.0
H4533 H 0.8171 0.79242 0.43838 0.0
H4534 H 0.80324 0.756 0.37999 0.0
H4535 H 0.79819 0.76172 0.34949 0.0
C4536 C 0.52037 0.53582 0.917 0.0
C4537 C 0.49713 0.52405 0.90695 0.0
C4538 C 0.48944 0.51528 0.94891 0.0
C4539 C 0.51317 0.52593 0.95878 0.0
N4540 N 0.55224 0.54322 0.95104 0.0
N4541 N 0.46057 0.49938 0.91237 0.0
C4542 C 0.52893 0.53515 0.94243 0.0
C4543 C 0.48194 0.51295 0.92269 0.0
N4544 N 0.53406 0.54855 0.90245 0.0
N4545 N 0.47396 0.50728 0.96456 0.0
H4546 H 0.45442 0.49745 0.89343 0.0
H4547 H 0.44965 0.48855 0.92206 0.0
H4548 H 0.47892 0.50674 0.98336 0.0
H4549 H 0.45591 0.50222 0.95927 0.0
H4550 H 0.55004 0.55996 0.90928 0.0
H4551 H 0.52859 0.54924 0.88377 0.0
H4552 H 0.56502 0.54719 0.9395 0.0
H4553 H 0.55926 0.54448 0.96956 0.0
C4554 C 0.80966 0.23571 0.19575 0.0
C4555 C 0.79048 0.21632 0.18856 0.0
C4556 C 0.76815 0.23302 0.21794 0.0
C4557 C 0.78807 0.25104 0.22728 0.0
N4558 N 0.82896 0.26836 0.22693 0.0
N4559 N 0.75428 0.19326 0.19748 0.0
C4560 C 0.80933 0.25178 0.21699 0.0
C4561 C 0.77079 0.21377 0.20151 0.0
N4562 N 0.82723 0.23986 0.18131 0.0
N4563 N 0.74639 0.2351 0.22287 0.0
H4564 H 0.75598 0.17864 0.18567 0.0
H4565 H 0.74031 0.19014 0.20774 0.0
H4566 H 0.74347 0.25021 0.23252 0.0
H4567 H 0.73108 0.22314 0.21476 0.0
H4568 H 0.84008 0.2553 0.18405 0.0
H4569 H 0.82796 0.22885 0.16523 0.0
H4570 H 0.8455 0.26822 0.22184 0.0
H4571 H 0.82913 0.28116 0.24176 0.0
C4572 C 0.13353 0.56786 0.38512 0.0
C4573 C 0.12519 0.55084 0.3639 0.0
C4574 C 0.08685 0.54132 0.378 0.0
C4575 C 0.09391 0.56124 0.39647 0.0
N4576 N 0.12349 0.59481 0.4168 0.0
N4577 N 0.09365 0.5221 0.3388 0.0
C4578 C 0.11725 0.57472 0.40012 0.0
C4579 C 0.10185 0.53748 0.36011 0.0
N4580 N 0.15699 0.57751 0.39067 0.0
N4581 N 0.06595 0.526 0.37779 0.0
H4582 H 0.10422 0.51846 0.3254 0.0
H4583 H 0.07601 0.51408 0.33365 0.0
H4584 H 0.05466 0.52821 0.3909 0.0
H4585 H 0.06087 0.51003 0.36619 0.0
H4586 H 0.16446 0.58845 0.40713 0.0
H4587 H 0.16927 0.57272 0.37984 0.0
H4588 H 0.13952 0.60664 0.41823 0.0
H4589 H 0.11199 0.60076 0.42789 0.0
C4590 C 0.77244 0.81472 0.67477 0.0
C4591 C 0.79126 0.83308 0.67154 0.0
C4592 C 0.80151 0.84127 0.71741 0.0
C4593 C 0.78509 0.82052 0.72017 0.0
N4594 N 0.74678 0.79837 0.70312 0.0
N4595 N 0.82423 0.86392 0.69036 0.0
C4596 C 0.76824 0.81016 0.69923 0.0
C4597 C 0.80597 0.84631 0.69305 0.0
N4598 N 0.75905 0.8008 0.65445 0.0
N4599 N 0.81039 0.85794 0.73749 0.0
H4600 H 0.82692 0.86976 0.67337 0.0
H4601 H 0.83756 0.87179 0.7048 0.0
H4602 H 0.80422 0.85738 0.75452 0.0
H4603 H 0.82095 0.8742 0.73639 0.0
H4604 H 0.74673 0.78568 0.65578 0.0
H4605 H 0.76171 0.80317 0.63626 0.0
H4606 H 0.73256 0.79303 0.68905 0.0
H4607 H 0.74256 0.79665 0.721 0.0
C4608 C 0.67642 0.48011 0.51072 0.0
C4609 C 0.69833 0.49535 0.51064 0.0
C4610 C 0.6886 0.52535 0.53944 0.0
C4611 C 0.66729 0.50949 0.54097 0.0
N4612 N 0.63758 0.47529 0.52302 0.0
N4613 N 0.72235 0.53421 0.51749 0.0
C4614 C 0.66003 0.48801 0.52479 0.0
C4615 C 0.70319 0.51877 0.52227 0.0
N4616 N 0.67208 0.45767 0.49877 0.0
N4617 N 0.69557 0.54583 0.55547 0.0
H4618 H 0.73327 0.52927 0.50499 0.0
H4619 H 0.72609 0.55209 0.52393 0.0
H4620 H 0.68552 0.55113 0.56869 0.0
H4621 H 0.71207 0.55685 0.55694 0.0
H4622 H 0.65774 0.44468 0.50075 0.0
H4623 H 0.68349 0.4518 0.48746 0.0
H4624 H 0.6307 0.46049 0.50999 0.0
H4625 H 0.62521 0.48069 0.53328 0.0
C4626 C 0.13902 0.09787 0.54239 0.0
C4627 C 0.14776 0.09633 0.51915 0.0
C4628 C 0.11187 0.06716 0.5011 0.0
C4629 C 0.10406 0.06731 0.52484 0.0
N4630 N 0.11256 0.0798 0.56908 0.0
N4631 N 0.14462 0.07588 0.47774 0.0
C4632 C 0.1185 0.08158 0.54581 0.0
C4633 C 0.13474 0.07996 0.49885 0.0
N4634 N 0.14954 0.11579 0.56084 0.0
N4635 N 0.09737 0.05494 0.48055 0.0
H4636 H 0.16141 0.08459 0.47553 0.0
H4637 H 0.1371 0.06236 0.46337 0.0
H4638 H 0.08117 0.04424 0.48155 0.0
H4639 H 0.10079 0.05648 0.46243 0.0
H4640 H 0.14249 0.11936 0.57715 0.0
H4641 H 0.16408 0.1286 0.55886 0.0
H4642 H 0.12376 0.08756 0.58529 0.0
H4643 H 0.09691 0.06941 0.57221 0.0
C4644 C 0.22778 0.95812 0.79972 0.0
C4645 C 0.2065 0.95638 0.78389 0.0
C4646 C 0.21258 0.92073 0.7598 0.0
C4647 C 0.23537 0.92447 0.77341 0.0
N4648 N 0.26482 0.94594 0.80669 0.0
N4649 N 0.1783 0.93658 0.74875 0.0
C4650 C 0.2429 0.94283 0.79367 0.0
C4651 C 0.19859 0.93758 0.76414 0.0
N4652 N 0.23327 0.97424 0.82073 0.0
N4653 N 0.20441 0.90117 0.74263 0.0
H4654 H 0.16735 0.94825 0.7517 0.0
H4655 H 0.17283 0.92507 0.73228 0.0
H4656 H 0.21452 0.88904 0.73811 0.0
H4657 H 0.18712 0.89596 0.73408 0.0
H4658 H 0.24739 0.97519 0.83437 0.0
H4659 H 0.22253 0.98567 0.82558 0.0
H4660 H 0.27272 0.9606 0.81954 0.0
H4661 H 0.27568 0.93414 0.80391 0.0
C4662 C 0.4345 0.02612 0.03105 0.0
C4663 C 0.42344 1.00303 0.02041 0.0
C4664 C 0.46092 0.99099 0.02392 0.0
C4665 C 0.47186 0.0139 0.03594 0.0
N4666 N 0.46822 0.05108 0.05675 0.0
N4667 N 0.42489 0.96296 0.00679 0.0
C4668 C 0.45843 0.0309 0.04112 0.0
C4669 C 0.43635 0.98531 0.01669 0.0
N4670 N 0.4221 0.04346 0.03143 0.0
N4671 N 0.47412 0.97471 0.01953 0.0
H4672 H 0.40713 0.95861 0.99961 0.0
H4673 H 0.43256 0.94848 0.00625 0.0
H4674 H 0.49153 0.97742 0.02738 0.0
H4675 H 0.46819 0.95884 0.00794 0.0
H4676 H 0.42986 0.06118 0.03641 0.0
H4677 H 0.40432 0.04034 0.0245 0.0
H4678 H 0.45887 0.0634 0.06283 0.0
H4679 H 0.48506 0.054 0.06614 0.0
C4680 C 0.85295 0.63671 0.7951 0.0
C4681 C 0.83931 0.62534 0.81191 0.0
C4682 C 0.80666 0.6429 0.79887 0.0
C4683 C 0.81981 0.65308 0.78104 0.0
N4684 N 0.85736 0.66656 0.76777 0.0
N4685 N 0.80699 0.62278 0.83539 0.0
C4686 C 0.8437 0.65239 0.78115 0.0
C4687 C 0.81747 0.63048 0.81585 0.0
N4688 N 0.87381 0.63111 0.79097 0.0
N4689 N 0.78358 0.64387 0.79853 0.0
H4690 H 0.8149 0.61351 0.84784 0.0
H4691 H 0.79181 0.62735 0.84056 0.0
H4692 H 0.77505 0.65285 0.7863 0.0
H4693 H 0.77246 0.63466 0.80934 0.0
H4694 H 0.88279 0.63636 0.77645 0.0
H4695 H 0.88164 0.62011 0.80118 0.0
H4696 H 0.87546 0.66839 0.76899 0.0
H4697 H 0.8509 0.67824 0.75725 0.0
C4698 C 0.89056 0.62731 0.04594 0.0
C4699 C 0.86857 0.61721 0.03134 0.0
C4700 C 0.88097 0.57996 0.02335 0.0
C4701 C 0.90117 0.58892 0.04115 0.0
N4702 N 0.92502 0.62077 0.07055 0.0
N4703 N 0.84185 0.5834 0.00743 0.0
C4704 C 0.90611 0.61262 0.05255 0.0
C4705 C 0.8636 0.59345 0.0201 0.0
N4706 N 0.89662 0.65101 0.0532 0.0
N4707 N 0.87856 0.55857 0.00944 0.0
H4708 H 0.8286 0.59261 0.00458 0.0
H4709 H 0.8363 0.5655 1.00131 0.0
H4710 H 0.89106 0.54833 0.01138 0.0
H4711 H 0.86542 0.55199 0.99446 0.0
H4712 H 0.91324 0.65981 0.06181 0.0
H4713 H 0.88562 0.66221 0.04856 0.0
H4714 H 0.92803 0.63698 0.08161 0.0
H4715 H 0.93701 0.61069 0.07565 0.0
C4716 C 0.2464 0.18253 0.80496 0.0
C4717 C 0.22157 0.17911 0.80163 0.0
C4718 C 0.22557 0.22176 0.80411 0.0
C4719 C 0.25004 0.22466 0.80267 0.0
N4720 N 0.28293 0.21031 0.81945 0.0
N4721 N 0.18721 0.19571 0.79729 0.0
C4722 C 0.26047 0.20571 0.80787 0.0
C4723 C 0.21107 0.1988 0.80092 0.0
N4724 N 0.25666 0.16365 0.80468 0.0
N4725 N 0.21671 0.24061 0.81216 0.0
H4726 H 0.17586 0.17945 0.79646 0.0
H4727 H 0.17873 0.2091 0.79337 0.0
H4728 H 0.22751 0.25662 0.82021 0.0
H4729 H 0.19934 0.2394 0.81513 0.0
H4730 H 0.27459 0.16509 0.80436 0.0
H4731 H 0.24702 0.14642 0.80272 0.0
H4732 H 0.29074 0.1975 0.82639 0.0
H4733 H 0.2921 0.22743 0.8258 0.0
C4734 C 0.30518 0.88508 0.26638 0.0
C4735 C 0.32681 0.89606 0.28092 0.0
C4736 C 0.33207 0.85865 0.29327 0.0
C4737 C 0.30906 0.84825 0.28161 0.0
N4738 N 0.27889 0.84862 0.24837 0.0
N4739 N 0.3616 0.89416 0.30785 0.0
C4740 C 0.297 0.86064 0.26564 0.0
C4741 C 0.34069 0.88302 0.29396 0.0
N4742 N 0.29202 0.89817 0.25423 0.0
N4743 N 0.34611 0.84482 0.30214 0.0
H4744 H 0.36901 0.91184 0.30788 0.0
H4745 H 0.3711 0.8863 0.32037 0.0
H4746 H 0.34046 0.82677 0.29963 0.0
H4747 H 0.36382 0.85062 0.30905 0.0
H4748 H 0.27476 0.89167 0.24594 0.0
H4749 H 0.29791 0.91606 0.2537 0.0
H4750 H 0.27057 0.85604 0.23448 0.0
H4751 H 0.27439 0.83049 0.24613 0.0
C4752 C 0.54611 0.43573 0.57511 0.0
C4753 C 0.55844 0.42185 0.56059 0.0
C4754 C 0.56526 0.45479 0.53449 0.0
C4755 C 0.55166 0.46785 0.54824 0.0
N4756 N 0.52392 0.46632 0.57746 0.0
N4757 N 0.57675 0.41749 0.52357 0.0
C4758 C 0.54068 0.45697 0.56733 0.0
C4759 C 0.56727 0.43134 0.53952 0.0
N4760 N 0.54035 0.42927 0.59727 0.0
N4761 N 0.57629 0.46485 0.5164 0.0
H4762 H 0.57806 0.4005 0.52627 0.0
H4763 H 0.58158 0.42189 0.50668 0.0
H4764 H 0.5749 0.48143 0.51212 0.0
H4765 H 0.58778 0.45753 0.5065 0.0
H4766 H 0.53373 0.43985 0.61004 0.0
H4767 H 0.54447 0.41453 0.60413 0.0
H4768 H 0.51307 0.45793 0.58908 0.0
H4769 H 0.51972 0.4817 0.57258 0.0
C4770 C 0.37683 0.79449 0.36677 0.0
C4771 C 0.38728 0.77496 0.36144 0.0
C4772 C 0.35563 0.75989 0.326 0.0
C4773 C 0.3469 0.7808 0.32945 0.0
N4774 N 0.35199 0.81968 0.35172 0.0
N4775 N 0.38853 0.74107 0.33278 0.0
C4776 C 0.35829 0.79853 0.34949 0.0
C4777 C 0.37715 0.7582 0.34018 0.0
N4778 N 0.38391 0.80877 0.38896 0.0
N4779 N 0.34286 0.74108 0.3099 0.0
H4780 H 0.40437 0.73937 0.34226 0.0
H4781 H 0.38344 0.72999 0.31596 0.0
H4782 H 0.32689 0.74134 0.29977 0.0
H4783 H 0.34688 0.72456 0.3085 0.0
H4784 H 0.37534 0.82174 0.39517 0.0
H4785 H 0.39688 0.80614 0.40234 0.0
H4786 H 0.36159 0.83433 0.3637 0.0
H4787 H 0.33792 0.82302 0.34043 0.0
C4788 C 0.0641 0.65031 0.07847 0.0
C4789 C 0.05505 0.66306 0.06027 0.0
C4790 C 0.03917 0.6248 0.03309 0.0
C4791 C 0.05029 0.61244 0.05019 0.0
N4792 N 0.07663 0.61482 0.08779 0.0
N4793 N 0.03729 0.66198 0.01812 0.0
C4794 C 0.06367 0.62566 0.07248 0.0
C4795 C 0.04349 0.6501 0.03701 0.0
N4796 N 0.0722 0.66149 0.10205 0.0
N4797 N 0.02357 0.6123 0.01348 0.0
H4798 H 0.04036 0.68023 0.02003 0.0
H4799 H 0.03118 0.65391 0.99997 0.0
H4800 H 0.01948 0.59403 0.01048 0.0
H4801 H 0.013 0.61987 1.00171 0.0
H4802 H 0.07665 0.65281 0.11689 0.0
H4803 H 0.07233 0.67911 0.10741 0.0
H4804 H 0.08886 0.62375 0.1028 0.0
H4805 H 0.07676 0.5971 0.08405 0.0
C4806 C 0.1123 0.30468 0.85638 0.0
C4807 C 0.11004 0.28868 0.87409 0.0
C4808 C 0.14986 0.28272 0.87019 0.0
C4809 C 0.15237 0.29924 0.85303 0.0
N4810 N 0.13477 0.32229 0.82582 0.0
N4811 N 0.12441 0.25902 0.89434 0.0
C4812 C 0.13309 0.30892 0.84475 0.0
C4813 C 0.12814 0.27655 0.87981 0.0
N4814 N 0.09495 0.31659 0.8515 0.0
N4815 N 0.16864 0.2736 0.87791 0.0
H4816 H 0.10892 0.25442 0.90202 0.0
H4817 H 0.13582 0.2479 0.89745 0.0
H4818 H 0.18419 0.27663 0.87005 0.0
H4819 H 0.16928 0.2638 0.89259 0.0
H4820 H 0.09646 0.33049 0.84112 0.0
H4821 H 0.07925 0.31343 0.85905 0.0
H4822 H 0.12076 0.32808 0.81712 0.0
H4823 H 0.14987 0.3261 0.81734 0.0
C4824 C 0.52624 0.68835 0.92602 0.0
C4825 C 0.53597 0.71142 0.93839 0.0
C4826 C 0.53766 0.69618 0.97855 0.0
C4827 C 0.52489 0.67391 0.9665 0.0
N4828 N 0.50588 0.64865 0.92897 0.0
N4829 N 0.54943 0.73788 0.97662 0.0
C4830 C 0.51907 0.66987 0.94023 0.0
C4831 C 0.54152 0.71546 0.96472 0.0
N4832 N 0.52428 0.68408 0.90067 0.0
N4833 N 0.54624 0.69877 0.00325 0.0
H4834 H 0.55256 0.75245 0.96721 0.0
H4835 H 0.55129 0.7423 0.99583 0.0
H4836 H 0.54374 0.68496 0.01381 0.0
H4837 H 0.55754 0.7139 0.01275 0.0
H4838 H 0.51956 0.66733 0.8906 0.0
H4839 H 0.52933 0.6972 0.88975 0.0
H4840 H 0.4986 0.6454 0.91033 0.0
H4841 H 0.50099 0.63453 0.93868 0.0
C4842 C 0.16842 0.75702 0.77589 0.0
C4843 C 0.15846 0.7652 0.75447 0.0
C4844 C 0.19892 0.77652 0.74336 0.0
C4845 C 0.20928 0.7705 0.76619 0.0
N4846 N 0.20242 0.7601 0.80659 0.0
N4847 N 0.16516 0.78559 0.7193 0.0
C4848 C 0.19354 0.76188 0.78294 0.0
C4849 C 0.17405 0.77577 0.73872 0.0
N4850 N 0.15386 0.74447 0.78974 0.0
N4851 N 0.2126 0.78213 0.72533 0.0
H4852 H 0.14724 0.78447 0.71452 0.0
H4853 H 0.17555 0.79637 0.70908 0.0
H4854 H 0.23057 0.78313 0.72738 0.0
H4855 H 0.20585 0.78365 0.70729 0.0
H4856 H 0.15985 0.73556 0.80373 0.0
H4857 H 0.13563 0.74137 0.78588 0.0
H4858 H 0.1921 0.75655 0.82061 0.0
H4859 H 0.22024 0.76464 0.8129 0.0
C4860 C 0.06737 0.44353 0.47373 0.0
C4861 C 0.04963 0.43356 0.45335 0.0
C4862 C 0.02651 0.46212 0.46782 0.0
C4863 C 0.04515 0.47352 0.48691 0.0
N4864 N 0.08493 0.4765 0.50544 0.0
N4865 N 0.01386 0.43606 0.42872 0.0
C4866 C 0.06602 0.46458 0.48905 0.0
C4867 C 0.02962 0.44363 0.44982 0.0
N4868 N 0.08512 0.4323 0.47925 0.0
N4869 N 1.00538 0.46839 0.46731 0.0
H4870 H 0.01554 0.42273 0.41518 0.0
H4871 H 1.00035 0.44434 0.42355 0.0
H4872 H 1.0027 0.48214 0.47955 0.0
H4873 H 0.9902 0.45902 0.45601 0.0
H4874 H 0.097 0.43693 0.49553 0.0
H4875 H 0.08683 0.41704 0.46857 0.0
H4876 H 0.1016 0.47292 0.5058 0.0
H4877 H 0.08422 0.49106 0.51769 0.0
C4878 C 0.39518 0.26882 0.27553 0.0
C4879 C 0.40141 0.27058 0.25115 0.0
C4880 C 0.36284 0.28175 0.24024 0.0
C4881 C 0.35547 0.27737 0.26379 0.0
N4882 N 0.36416 0.26097 0.30141 0.0
N4883 N 0.3881 0.27472 0.20893 0.0
C4884 C 0.37164 0.26946 0.28076 0.0
C4885 C 0.38432 0.27596 0.23321 0.0
N4886 N 0.41199 0.26719 0.29421 0.0
N4887 N 0.35002 0.2926 0.22473 0.0
H4888 H 0.40311 0.27037 0.20294 0.0
H4889 H 0.37538 0.2757 0.19444 0.0
H4890 H 0.33486 0.29782 0.22896 0.0
H4891 H 0.3558 0.29876 0.20885 0.0
H4892 H 0.4095 0.2686 0.31286 0.0
H4893 H 0.42917 0.26682 0.29135 0.0
H4894 H 0.37419 0.25301 0.31334 0.0
H4895 H 0.34688 0.25908 0.30485 0.0
C4896 C 0.59524 0.55477 0.43911 0.0
C4897 C 0.58285 0.53961 0.41756 0.0
C4898 C 0.56005 0.51604 0.44499 0.0
C4899 C 0.56982 0.53298 0.46606 0.0
N4900 N 0.60674 0.5594 0.48344 0.0
N4901 N 0.5517 0.50652 0.4001 0.0
C4902 C 0.59022 0.55004 0.46338 0.0
C4903 C 0.56487 0.52036 0.42059 0.0
N4904 N 0.61207 0.57379 0.43655 0.0
N4905 N 0.54898 0.4943 0.44878 0.0
H4906 H 0.55454 0.50911 0.382 0.0
H4907 H 0.53674 0.49386 0.40114 0.0
H4908 H 0.54794 0.48988 0.46668 0.0
H4909 H 0.54385 0.48011 0.43465 0.0
H4910 H 0.61924 0.58731 0.45104 0.0
H4911 H 0.61773 0.57698 0.41959 0.0
H4912 H 0.62274 0.57042 0.48232 0.0
H4913 H 0.60656 0.55315 0.5004 0.0
C4914 C 0.3086 0.85279 0.11569 0.0
C4915 C 0.3109 0.87743 0.12042 0.0
C4916 C 0.33239 0.87869 0.16165 0.0
C4917 C 0.33008 0.85404 0.15693 0.0
N4918 N 0.31029 0.81692 0.13312 0.0
N4919 N 0.31897 0.91279 0.14967 0.0
C4920 C 0.31628 0.84083 0.1351 0.0
C4921 C 0.32076 0.89002 0.1441 0.0
N4922 N 0.30035 0.84102 0.09236 0.0
N4923 N 0.34664 0.89141 0.18218 0.0
H4924 H 0.31042 0.92144 0.13707 0.0
H4925 H 0.32388 0.9223 0.16738 0.0
H4926 H 0.35558 0.88381 0.19548 0.0
H4927 H 0.35102 0.90966 0.18513 0.0
H4928 H 0.30095 0.82357 0.08718 0.0
H4929 H 0.29436 0.84907 0.07761 0.0
H4930 H 0.29835 0.8065 0.11869 0.0
H4931 H 0.31552 0.80766 0.14718 0.0
C4932 C 0.98034 0.51191 0.93144 0.0
C4933 C 0.98363 0.5324 0.91973 0.0
C4934 C 0.01412 0.55283 0.95343 0.0
C4935 C 0.01118 0.53208 0.96492 0.0
N4936 N 0.99605 0.49033 0.9617 0.0
N4937 N 1.00652 0.57046 0.91613 0.0
C4938 C 0.99589 0.51108 0.9528 0.0
C4939 C 1.00141 0.55234 0.9297 0.0
N4940 N 0.96156 0.49373 0.92303 0.0
N4941 N 0.02895 0.573 0.96521 0.0
H4942 H 0.99744 0.5706 0.89863 0.0
H4943 H 0.02092 0.58442 0.92113 0.0
H4944 H 0.04003 0.57367 0.98162 0.0
H4945 H 0.02959 0.58935 0.95937 0.0
H4946 H 0.95672 0.47962 0.93272 0.0
H4947 H 0.94953 0.49363 0.90746 0.0
H4948 H 0.9875 0.47408 0.95187 0.0
H4949 H 1.0058 0.48929 0.9784 0.0
C4950 C 0.2685 0.22788 0.67364 0.0
C4951 C 0.27258 0.24374 0.65599 0.0
C4952 C 0.27675 0.27697 0.68932 0.0
C4953 C 0.2737 0.26114 0.70753 0.0
N4954 N 0.25892 0.22137 0.71473 0.0
N4955 N 0.2837 0.2833 0.64726 0.0
C4956 C 0.26763 0.23652 0.69905 0.0
C4957 C 0.27738 0.26821 0.66392 0.0
N4958 N 0.26621 0.20444 0.66623 0.0
N4959 N 0.27795 0.30039 0.69562 0.0
H4960 H 0.28334 0.27779 0.62837 0.0
H4961 H 0.29112 0.30108 0.65232 0.0
H4962 H 0.27869 0.30862 0.71349 0.0
H4963 H 0.27616 0.31182 0.68264 0.0
H4964 H 0.26631 0.19214 0.67853 0.0
H4965 H 0.26607 0.19742 0.64779 0.0
H4966 H 0.25181 0.20361 0.70912 0.0
H4967 H 0.25604 0.22686 0.7327 0.0
C4968 C 0.55751 0.55635 0.14862 0.0
C4969 C 0.57858 0.5495 0.15695 0.0
C4970 C 0.58574 0.54237 0.1133 0.0
C4971 C 0.56361 0.54708 0.10487 0.0
N4972 N 0.52687 0.55533 0.11455 0.0
N4973 N 0.61157 0.53341 0.14716 0.0
C4974 C 0.54911 0.55328 0.12259 0.0
C4975 C 0.59237 0.54182 0.13923 0.0
N4976 N 0.54566 0.56617 0.16563 0.0
N4977 N 0.60072 0.5389 0.09653 0.0
H4978 H 0.61735 0.53335 0.1659 0.0
H4979 H 0.6208 0.52493 0.13522 0.0
H4980 H 0.59646 0.53919 0.07758 0.0
H4981 H 0.61802 0.53775 0.10148 0.0
H4982 H 0.53177 0.57407 0.16079 0.0
H4983 H 0.55086 0.56803 0.18477 0.0
H4984 H 0.51442 0.55728 0.12632 0.0
H4985 H 0.52029 0.55336 0.09578 0.0
C4986 C 0.27205 0.83135 0.88566 0.0
C4987 C 0.29366 0.84645 0.89626 0.0
C4988 C 0.31417 0.82689 0.86691 0.0
C4989 C 0.29226 0.81506 0.85337 0.0
N4990 N 0.25018 0.80366 0.85083 0.0
N4991 N 0.33504 0.86084 0.89555 0.0
C4992 C 0.27109 0.81659 0.86307 0.0
C4993 C 0.31471 0.84478 0.88661 0.0
N4994 N 0.25272 0.83066 0.89764 0.0
N4995 N 0.33439 0.82072 0.86147 0.0
H4996 H 0.33618 0.87437 0.91003 0.0
H4997 H 0.3502 0.86198 0.8871 0.0
H4998 H 0.33465 0.80698 0.84783 0.0
H4999 H 0.3506 0.8275 0.8723 0.0
H5000 H 0.23702 0.8184 0.89222 0.0
H5001 H 0.25288 0.84126 0.91432 0.0
H5002 H 0.2339 0.80625 0.85478 0.0
H5003 H 0.24922 0.79036 0.83628 0.0
C5004 C 0.97062 0.51017 0.694 0.0
C5005 C 0.95381 0.52434 0.69274 0.0
C5006 C 0.95338 0.52198 0.64774 0.0
C5007 C 0.96601 0.50389 0.64859 0.0
N5008 N 0.98677 0.48024 0.67233 0.0
N5009 N 0.92888 0.54409 0.66871 0.0
C5010 C 0.97512 0.49813 0.67171 0.0
C5011 C 0.94546 0.53081 0.66974 0.0
N5012 N 0.9819 0.50805 0.71662 0.0
N5013 N 0.94903 0.53061 0.62589 0.0
H5014 H 0.92296 0.55122 0.68451 0.0
H5015 H 0.92005 0.54696 0.65213 0.0
H5016 H 0.95477 0.52444 0.60952 0.0
H5017 H 0.94178 0.54528 0.62455 0.0
H5018 H 0.99577 0.49955 0.71878 0.0
H5019 H 0.97881 0.51683 0.73321 0.0
H5020 H 0.99137 0.47346 0.68853 0.0
H5021 H 0.99054 0.47103 0.6564 0.0
C5022 C 0.3008 0.24712 0.38856 0.0
C5023 C 0.27839 0.2414 0.39667 0.0
C5024 C 0.26137 0.25611 0.35968 0.0
C5025 C 0.28332 0.25963 0.35027 0.0
N5026 N 0.32338 0.2551 0.35466 0.0
N5027 N 0.23649 0.23583 0.38662 0.0
C5028 C 0.30278 0.25388 0.3643 0.0
C5029 C 0.25846 0.2447 0.38132 0.0
N5030 N 0.32047 0.2474 0.40458 0.0
N5031 N 0.24309 0.26364 0.34799 0.0
H5032 H 0.23351 0.22684 0.40177 0.0
H5033 H 0.22125 0.23526 0.37464 0.0
H5034 H 0.24381 0.27052 0.33132 0.0
H5035 H 0.22773 0.26437 0.35562 0.0
H5036 H 0.3374 0.25395 0.40095 0.0
H5037 H 0.31986 0.24326 0.4226 0.0
H5038 H 0.33727 0.24856 0.36252 0.0
H5039 H 0.32608 0.26145 0.33795 0.0
C5040 C 0.40138 0.59502 0.56043 0.0
C5041 C 0.37914 0.57963 0.55769 0.0
C5042 C 0.38995 0.55324 0.52577 0.0
C5043 C 0.41172 0.56943 0.52723 0.0
N5044 N 0.44136 0.60087 0.55128 0.0
N5045 N 0.35507 0.54113 0.54516 0.0
C5046 C 0.41855 0.58875 0.54643 0.0
C5047 C 0.37462 0.55747 0.54309 0.0
N5048 N 0.40542 0.61624 0.57505 0.0
N5049 N 0.3833 0.53486 0.50695 0.0
H5050 H 0.34361 0.54441 0.55777 0.0
H5051 H 0.3515 0.5239 0.53636 0.0
H5052 H 0.39376 0.53151 0.49335 0.0
H5053 H 0.36666 0.52391 0.50365 0.0
H5054 H 0.42019 0.6295 0.57525 0.0
H5055 H 0.39339 0.6209 0.58627 0.0
H5056 H 0.44772 0.61379 0.56652 0.0
H5057 H 0.45443 0.59652 0.54138 0.0
C5058 C 0.94385 0.98043 0.56805 0.0
C5059 C 0.92755 0.97034 0.54661 0.0
C5060 C 0.95308 0.99299 0.52112 0.0
C5061 C 0.97122 1.00005 0.5418 0.0
N5062 N 0.98398 0.99817 0.58515 0.0
N5063 N 0.91915 0.96326 0.50187 0.0
C5064 C 0.96665 0.99301 0.5653 0.0
C5065 C 0.93287 0.97559 0.52291 0.0
N5066 N 0.9373 0.97882 0.59114 0.0
N5067 N 0.95457 1.00299 0.49982 0.0
H5068 H 0.90452 0.94997 0.50227 0.0
H5069 H 0.92377 0.96451 0.48411 0.0
H5070 H 0.96836 0.01627 0.49743 0.0
H5071 H 0.94072 0.99987 0.48534 0.0
H5072 H 0.94747 0.98807 0.6074 0.0
H5073 H 0.9207 0.97008 0.59392 0.0
H5074 H 0.98247 0.99096 0.60162 0.0
H5075 H 1.00047 0.00844 0.58473 0.0
C5076 C 0.84987 0.11243 0.2732 0.0
C5077 C 0.8744 0.11761 0.27218 0.0
C5078 C 0.87567 0.15973 0.28124 0.0
C5079 C 0.85156 0.15441 0.284 0.0
N5080 N 0.81433 0.12726 0.27614 0.0
N5081 N 0.90952 0.14575 0.26898 0.0
C5082 C 0.83818 0.13119 0.27755 0.0
C5083 C 0.88691 0.1412 0.27401 0.0
N5084 N 0.83808 0.08961 0.27132 0.0
N5085 N 0.888 0.18242 0.28698 0.0
H5086 H 0.91824 0.1325 0.26399 0.0
H5087 H 0.9191 0.16247 0.2679 0.0
H5088 H 0.87985 0.19634 0.29106 0.0
H5089 H 0.90617 0.18743 0.28849 0.0
H5090 H 0.82083 0.08458 0.2747 0.0
H5091 H 0.84597 0.07546 0.26755 0.0
H5092 H 0.80313 0.11108 0.26975 0.0
H5093 H 0.80563 0.14091 0.27934 0.0
C5094 C 0.63512 0.08676 0.06572 0.0
C5095 C 0.6493 0.07197 0.05628 0.0
C5096 C 0.61503 0.04393 0.03454 0.0
C5097 C 0.60046 0.05783 0.04523 0.0
N5098 N 0.59653 0.0901 0.07486 0.0
N5099 N 0.65323 0.03428 0.03725 0.0
C5100 C 0.61045 0.07864 0.06192 0.0
C5101 C 0.63936 0.04975 0.04263 0.0
N5102 N 0.64522 0.10874 0.07777 0.0
N5103 N 0.60603 0.02623 0.01542 0.0
H5104 H 0.67132 0.03822 0.04269 0.0
H5105 H 0.64649 0.01682 0.02968 0.0
H5106 H 0.58866 0.02248 0.00726 0.0
H5107 H 0.61634 0.01708 0.00557 0.0
H5108 H 0.63571 0.12139 0.08234 0.0
H5109 H 0.66334 0.11488 0.08193 0.0
H5110 H 0.60309 0.10382 0.08927 0.0
H5111 H 0.57837 0.08454 0.07291 0.0
C5112 C 0.23547 0.42408 0.26087 0.0
C5113 C 0.25054 0.44601 0.26046 0.0
C5114 C 0.28224 0.43511 0.28603 0.0
C5115 C 0.26577 0.41517 0.29028 0.0
N5116 N 0.22901 0.38733 0.27831 0.0
N5117 N 0.28881 0.47126 0.26745 0.0
C5118 C 0.24313 0.40839 0.27623 0.0
C5119 C 0.2744 0.45081 0.27084 0.0
N5120 N 0.21362 0.4191 0.24739 0.0
N5121 N 0.30497 0.43933 0.29725 0.0
H5122 H 0.28331 0.48245 0.25562 0.0
H5123 H 0.30603 0.47729 0.27593 0.0
H5124 H 0.31106 0.42871 0.30934 0.0
H5125 H 0.31826 0.45283 0.29411 0.0
H5126 H 0.20115 0.40369 0.24684 0.0
H5127 H 0.20821 0.43048 0.23574 0.0
H5128 H 0.21196 0.38131 0.26933 0.0
H5129 H 0.23469 0.37532 0.28892 0.0
C5130 C 0.20625 0.46723 0.01556 0.0
C5131 C 0.20808 0.4521 0.03387 0.0
C5132 C 0.16938 0.45565 0.04476 0.0
C5133 C 0.16744 0.47057 0.02626 0.0
N5134 N 0.18519 0.49415 0.99721 0.0
N5135 N 0.19386 0.43505 0.06887 0.0
C5136 C 0.18635 0.47759 0.01275 0.0
C5137 C 0.19039 0.44733 0.04944 0.0
N5138 N 0.22313 0.47091 1.00022 0.0
N5139 N 0.15078 0.44889 0.05726 0.0
H5140 H 0.20881 0.42829 0.07247 0.0
H5141 H 0.18285 0.43287 0.08247 0.0
H5142 H 0.13575 0.45579 0.05538 0.0
H5143 H 0.14967 0.4358 0.06869 0.0
H5144 H 0.2217 0.47947 0.98464 0.0
H5145 H 0.23826 0.46419 1.00222 0.0
H5146 H 0.1992 0.50187 0.98869 0.0
H5147 H 0.17062 0.50158 0.99419 0.0
C5148 C 0.83383 0.88292 0.25165 0.0
C5149 C 0.84934 0.89653 0.27226 0.0
C5150 C 0.83344 0.86829 0.29942 0.0
C5151 C 0.82012 0.85316 0.27836 0.0
N5152 N 0.80764 0.84583 0.23413 0.0
N5153 N 0.86616 0.90083 0.31525 0.0
C5154 C 0.82034 0.86044 0.25437 0.0
C5155 C 0.8496 0.88895 0.29606 0.0
N5156 N 0.83139 0.89187 0.22969 0.0
N5157 N 0.83074 0.86296 0.32276 0.0
H5158 H 0.87836 0.91595 0.31359 0.0
H5159 H 0.86916 0.89465 0.3322 0.0
H5160 H 0.8204 0.84731 0.32595 0.0
H5161 H 0.83765 0.87457 0.33892 0.0
H5162 H 0.81861 0.88415 0.21472 0.0
H5163 H 0.84104 0.90815 0.22704 0.0
H5164 H 0.80927 0.8485 0.21583 0.0
H5165 H 0.79592 0.83036 0.23563 0.0
C5166 C 0.73492 0.18656 0.76512 0.0
C5167 C 0.75307 0.17401 0.76347 0.0
C5168 C 0.78272 0.21016 0.77559 0.0
C5169 C 0.76465 0.22297 0.77463 0.0
N5170 N 0.72376 0.22408 0.76654 0.0
N5171 N 0.79395 0.17355 0.76343 0.0
C5172 C 0.74078 0.21137 0.76882 0.0
C5173 C 0.77692 0.18572 0.76771 0.0
N5174 N 0.71219 0.17474 0.76405 0.0
N5175 N 0.80534 0.22123 0.78448 0.0
H5176 H 0.79026 0.15551 0.75767 0.0
H5177 H 0.81146 0.18157 0.76349 0.0
H5178 H 0.81053 0.23924 0.78977 0.0
H5179 H 0.81867 0.21238 0.78848 0.0
H5180 H 0.69861 0.18286 0.76813 0.0
H5181 H 0.70708 0.15652 0.76087 0.0
H5182 H 0.70637 0.21674 0.75924 0.0
H5183 H 0.72728 0.24231 0.77061 0.0
loop_
_geom_bond_atom_site_label_1
_geom_bond_atom_site_label_2
_geom_bond_distance
_geom_bond_site_symmetry_2
_ccdc_geom_bond_type
Li0 N17 1.990 1_455 S
Li0 O60 1.956 . S
Li0 O61 1.970 . S
Li0 O62 1.961 . S
Li1 N25 1.990 . S
Li1 O60 1.970 . S
Li1 O61 1.956 . S
Li1 O63 1.961 . S
Li2 N47 1.990 . S
Li2 O60 1.961 . S
Li2 O62 1.956 . S
Li2 O63 1.970 . S
Li3 N53 1.990 . S
Li3 O61 1.961 . S
Li3 O62 1.970 . S
Li3 O63 1.956 . S
C4 C6 1.348 . S
C4 C7 1.356 . S
C4 O60 1.325 . S
N5 C8 1.314 . S
N5 C9 1.279 . S
C6 C4 1.348 . S
C6 C8 1.353 . S
C6 H64 0.929 . S
C7 C4 1.356 . S
C7 C9 1.358 . S
C7 H65 0.930 . S
C8 N5 1.314 . S
C8 C6 1.353 . S
C8 H66 0.930 . S
C9 N5 1.279 . S
C9 C7 1.358 . S
C9 H67 0.930 . S
C10 C13 1.362 . S
C10 C14 1.356 1_655 S
C10 O61 1.312 1_655 S
C11 N12 1.279 . S
C11 C14 1.358 1_655 S
C11 H68 0.930 . S
N12 C11 1.279 . S
N12 C15 1.314 . S
C13 C10 1.362 . S
C13 C15 1.353 . S
C13 H69 0.929 . S
C14 C10 1.356 1_455 S
C14 C11 1.358 1_455 S
C14 H70 0.930 . S
C15 N12 1.314 . S
C15 C13 1.353 . S
C15 H71 0.930 . S
C16 N17 1.314 . S
C16 C21 1.353 . S
C16 H22 0.930 . S
N17 Li0 1.990 1_655 S
N17 C16 1.314 . S
N17 C19 1.279 . S
C18 C19 1.358 . S
C18 C20 1.356 . S
C18 H72 0.930 . S
C19 N17 1.279 . S
C19 C18 1.358 . S
C19 H23 0.930 . S
C20 C18 1.356 . S
C20 C21 1.348 . S
C21 C16 1.353 . S
C21 C20 1.348 . S
C21 H73 0.929 . S
H22 C16 0.930 . S
H23 C19 0.930 . S
C24 N25 1.314 . S
C24 C26 1.353 . S
C24 H30 0.930 . S
N25 Li1 1.990 . S
N25 C24 1.314 . S
N25 C28 1.279 . S
C26 C24 1.353 . S
C26 C29 1.348 . S
C26 H74 0.929 . S
C27 C28 1.358 . S
C27 C29 1.356 . S
C27 H75 0.930 . S
C28 N25 1.279 . S
C28 C27 1.358 . S
C28 H31 0.930 . S
C29 C26 1.348 . S
C29 C27 1.356 . S
H30 C24 0.930 . S
H31 C28 0.930 . S
C32 C34 1.348 . S
C32 C35 1.356 . S
C32 O62 1.325 . S
N33 C36 1.314 . S
N33 C37 1.279 . S
C34 C32 1.348 . S
C34 C36 1.353 . S
C34 H76 0.929 . S
C35 C32 1.356 . S
C35 C37 1.358 . S
C35 H77 0.930 . S
C36 N33 1.314 . S
C36 C34 1.353 . S
C36 H78 0.930 . S
C37 N33 1.279 . S
C37 C35 1.358 . S
C37 H79 0.930 . S
C38 C39 1.348 . S
C38 C40 1.356 . S
C38 O63 1.325 . S
C39 C38 1.348 . S
C39 C41 1.353 . S
C39 H80 0.929 . S
C40 C38 1.356 . S
C40 C42 1.358 . S
C40 H81 0.930 . S
C41 C39 1.353 . S
C41 N43 1.314 . S
C41 H82 0.930 . S
C42 C40 1.358 . S
C42 N43 1.279 . S
C42 H83 0.930 . S
N43 C41 1.314 . S
N43 C42 1.279 . S
C44 C46 1.353 . S
C44 N47 1.314 . S
C44 H50 0.930 . S
C45 N47 1.279 . S
C45 C48 1.358 . S
C45 H51 0.930 . S
C46 C44 1.353 . S
C46 C49 1.348 . S
C46 H84 0.929 . S
N47 Li2 1.990 . S
N47 C44 1.314 . S
N47 C45 1.279 . S
C48 C45 1.358 . S
C48 C49 1.356 . S
C48 H85 0.930 . S
C49 C46 1.348 . S
C49 C48 1.356 . S
H50 C44 0.930 . S
H51 C45 0.930 . S
C52 N53 1.314 . S
C52 C54 1.353 . S
C52 H58 0.930 . S
N53 Li3 1.990 . S
N53 C52 1.314 . S
N53 C56 1.279 . S
C54 C52 1.353 . S
C54 C57 1.348 . S
C54 H86 0.929 . S
C55 C56 1.358 . S
C55 C57 1.356 . S
C55 H87 0.930 . S
C56 N53 1.279 . S
C56 C55 1.358 . S
C56 H59 0.930 . S
C57 C54 1.348 . S
C57 C55 1.356 . S
H58 C52 0.930 . S
H59 C56 0.930 . S
O60 Li0 1.956 . S
O60 Li1 1.970 . S
O60 Li2 1.961 . S
O60 C4 1.325 . S
O61 Li0 1.970 . S
O61 Li1 1.956 . S
O61 Li3 1.961 . S
O61 C10 1.312 1_455 S
O62 Li0 1.961 . S
O62 Li2 1.956 . S
O62 Li3 1.970 . S
O62 C32 1.325 . S
O63 Li1 1.961 . S
O63 Li2 1.970 . S
O63 Li3 1.956 . S
O63 C38 1.325 . S
H64 C6 0.929 . S
H65 C7 0.930 . S
H66 C8 0.930 . S
H67 C9 0.930 . S
H68 C11 0.930 . S
H69 C13 0.929 . S
H70 C14 0.930 . S
H71 C15 0.930 . S
H72 C18 0.930 . S
H73 C21 0.929 . S
H74 C26 0.929 . S
H75 C27 0.930 . S
H76 C34 0.929 . S
H77 C35 0.930 . S
H78 C36 0.930 . S
H79 C37 0.930 . S
H80 C39 0.929 . S
H81 C40 0.930 . S
H82 C41 0.930 . S
H83 C42 0.930 . S
H84 C46 0.929 . S
H85 C48 0.930 . S
H86 C54 0.929 . S
H87 C55 0.930 . S
Li88 N105 1.990 . S
Li88 O148 1.956 . S
Li88 O149 1.970 . S
Li88 O150 1.961 1_455 S
Li89 N113 1.990 . S
Li89 O148 1.970 . S
Li89 O149 1.956 . S
Li89 O151 1.961 . S
Li90 N135 1.990 . S
Li90 O148 1.961 . S
Li90 O150 1.956 1_455 S
Li90 O151 1.970 . S
Li91 N141 1.990 . S
Li91 O149 1.961 1_655 S
Li91 O150 1.970 . S
Li91 O151 1.956 1_655 S
C92 C94 1.348 . S
C92 C95 1.356 . S
C92 O148 1.325 . S
N93 C96 1.314 . S
N93 C97 1.279 . S
C94 C92 1.348 . S
C94 C96 1.353 . S
C94 H152 0.929 . S
C95 C92 1.356 . S
C95 C97 1.358 . S
C95 H153 0.930 . S
C96 N93 1.314 . S
C96 C94 1.353 . S
C96 H154 0.930 . S
C97 N93 1.279 . S
C97 C95 1.358 . S
C97 H155 0.930 . S
C98 C101 1.348 . S
C98 C102 1.356 . S
C98 O149 1.325 . S
C99 N100 1.279 . S
C99 C102 1.358 . S
C99 H156 0.930 . S
N100 C99 1.279 . S
N100 C103 1.314 . S
C101 C98 1.348 . S
C101 C103 1.353 . S
C101 H157 0.929 . S
C102 C98 1.356 . S
C102 C99 1.358 . S
C102 H158 0.930 . S
C103 N100 1.314 . S
C103 C101 1.353 . S
C103 H159 0.930 . S
C104 N105 1.314 . S
C104 C109 1.353 . S
C104 H110 0.930 1_455 S
N105 Li88 1.990 . S
N105 C104 1.314 . S
N105 C107 1.279 . S
C106 C107 1.358 . S
C106 C108 1.356 . S
C106 H160 0.930 . S
C107 N105 1.279 . S
C107 C106 1.358 . S
C107 H111 0.930 . S
C108 C106 1.356 . S
C108 C109 1.348 . S
C109 C104 1.353 . S
C109 C108 1.348 . S
C109 H161 0.929 1_455 S
H110 C104 0.930 1_655 S
H111 C107 0.930 . S
C112 N113 1.314 . S
C112 C114 1.353 . S
C112 H118 0.930 . S
N113 Li89 1.990 . S
N113 C112 1.314 . S
N113 C116 1.279 . S
C114 C112 1.353 . S
C114 C117 1.348 . S
C114 H162 0.929 . S
C115 C116 1.358 . S
C115 C117 1.356 . S
C115 H163 0.930 . S
C116 N113 1.279 . S
C116 C115 1.358 . S
C116 H119 0.930 . S
C117 C114 1.348 . S
C117 C115 1.356 . S
H118 C112 0.930 . S
H119 C116 0.930 . S
C120 C122 1.348 . S
C120 C123 1.356 . S
C120 O150 1.325 . S
N121 C124 1.314 . S
N121 C125 1.279 . S
C122 C120 1.348 . S
C122 C124 1.353 . S
C122 H164 0.929 . S
C123 C120 1.356 . S
C123 C125 1.358 . S
C123 H165 0.930 . S
C124 N121 1.314 . S
C124 C122 1.353 . S
C124 H166 0.930 . S
C125 N121 1.279 . S
C125 C123 1.358 . S
C125 H167 0.930 . S
C126 C127 1.348 . S
C126 C128 1.356 . S
C126 O151 1.325 . S
C127 C126 1.348 . S
C127 C129 1.353 . S
C127 H168 0.929 . S
C128 C126 1.356 . S
C128 C130 1.358 . S
C128 H169 0.930 . S
C129 C127 1.353 . S
C129 N131 1.314 . S
C129 H170 0.930 . S
C130 C128 1.358 . S
C130 N131 1.279 . S
C130 H171 0.930 . S
N131 C129 1.314 . S
N131 C130 1.279 . S
C132 C134 1.353 . S
C132 N135 1.314 . S
C132 H138 0.930 . S
C133 N135 1.279 1_655 S
C133 C136 1.358 . S
C133 H139 0.930 . S
C134 C132 1.353 . S
C134 C137 1.348 . S
C134 H172 0.929 . S
N135 Li90 1.990 . S
N135 C132 1.314 . S
N135 C133 1.279 1_455 S
C136 C133 1.358 . S
C136 C137 1.356 1_655 S
C136 H173 0.930 . S
C137 C134 1.348 . S
C137 C136 1.356 1_455 S
H138 C132 0.930 . S
H139 C133 0.930 . S
C140 N141 1.314 . S
C140 C142 1.353 . S
C140 H146 0.930 . S
N141 Li91 1.990 . S
N141 C140 1.314 . S
N141 C144 1.279 . S
C142 C140 1.353 . S
C142 C145 1.348 . S
C142 H174 0.929 . S
C143 C144 1.358 . S
C143 C145 1.356 . S
C143 H175 0.930 . S
C144 N141 1.279 . S
C144 C143 1.358 . S
C144 H147 0.930 . S
C145 C142 1.348 . S
C145 C143 1.356 . S
H146 C140 0.930 . S
H147 C144 0.930 . S
O148 Li88 1.956 . S
O148 Li89 1.970 . S
O148 Li90 1.961 . S
O148 C92 1.325 . S
O149 Li88 1.970 . S
O149 Li89 1.956 . S
O149 Li91 1.961 1_455 S
O149 C98 1.325 . S
O150 Li88 1.961 1_655 S
O150 Li90 1.956 1_655 S
O150 Li91 1.970 . S
O150 C120 1.325 . S
O151 Li89 1.961 . S
O151 Li90 1.970 . S
O151 Li91 1.956 1_455 S
O151 C126 1.325 . S
H152 C94 0.929 . S
H153 C95 0.930 . S
H154 C96 0.930 . S
H155 C97 0.930 . S
H156 C99 0.930 . S
H157 C101 0.929 . S
H158 C102 0.930 . S
H159 C103 0.930 . S
H160 C106 0.930 . S
H161 C109 0.929 1_655 S
H162 C114 0.929 . S
H163 C115 0.930 . S
H164 C122 0.929 . S
H165 C123 0.930 . S
H166 C124 0.930 . S
H167 C125 0.930 . S
H168 C127 0.929 . S
H169 C128 0.930 . S
H170 C129 0.930 . S
H171 C130 0.930 . S
H172 C134 0.929 . S
H173 C136 0.930 . S
H174 C142 0.929 . S
H175 C143 0.930 . S
Li176 N193 1.990 . S
Li176 O236 1.956 . S
Li176 O237 1.970 . S
Li176 O238 1.961 . S
Li177 N201 1.990 . S
Li177 O236 1.970 . S
Li177 O237 1.956 . S
Li177 O239 1.961 . S
Li178 N223 1.990 . S
Li178 O236 1.961 . S
Li178 O238 1.956 . S
Li178 O239 1.970 . S
Li179 N229 1.990 . S
Li179 O237 1.961 . S
Li179 O238 1.970 . S
Li179 O239 1.956 . S
C180 C182 1.348 . S
C180 C183 1.356 . S
C180 O236 1.325 . S
N181 C184 1.314 . S
N181 C185 1.279 . S
C182 C180 1.348 . S
C182 C184 1.353 . S
C182 H240 0.929 . S
C183 C180 1.356 . S
C183 C185 1.358 . S
C183 H241 0.930 . S
C184 N181 1.314 . S
C184 C182 1.353 . S
C184 H242 0.930 . S
C185 N181 1.279 . S
C185 C183 1.358 . S
C185 H243 0.930 . S
C186 C189 1.348 . S
C186 C190 1.356 . S
C186 O237 1.325 . S
C187 N188 1.279 . S
C187 C190 1.358 . S
C187 H244 0.930 . S
N188 C187 1.279 . S
N188 C191 1.314 . S
C189 C186 1.348 . S
C189 C191 1.353 . S
C189 H245 0.929 . S
C190 C186 1.356 . S
C190 C187 1.358 . S
C190 H246 0.930 . S
C191 N188 1.314 . S
C191 C189 1.353 . S
C191 H247 0.930 . S
C192 N193 1.314 . S
C192 C197 1.353 . S
C192 H198 0.930 . S
N193 Li176 1.990 . S
N193 C192 1.314 . S
N193 C195 1.279 . S
C194 C195 1.358 . S
C194 C196 1.356 . S
C194 H248 0.930 . S
C195 N193 1.279 . S
C195 C194 1.358 . S
C195 H199 0.930 . S
C196 C194 1.356 . S
C196 C197 1.348 . S
C197 C192 1.353 . S
C197 C196 1.348 . S
C197 H249 0.929 . S
H198 C192 0.930 . S
H199 C195 0.930 . S
C200 N201 1.314 . S
C200 C202 1.353 . S
C200 H206 0.930 . S
N201 Li177 1.990 . S
N201 C200 1.314 . S
N201 C204 1.279 . S
C202 C200 1.353 . S
C202 C205 1.348 . S
C202 H250 0.929 . S
C203 C204 1.358 . S
C203 C205 1.356 . S
C203 H251 0.930 . S
C204 N201 1.279 . S
C204 C203 1.358 . S
C204 H207 0.930 . S
C205 C202 1.348 . S
C205 C203 1.356 . S
H206 C200 0.930 . S
H207 C204 0.930 . S
C208 C210 1.348 . S
C208 C211 1.356 . S
C208 O238 1.325 . S
N209 C212 1.314 . S
N209 C213 1.279 . S
C210 C208 1.348 . S
C210 C212 1.353 . S
C210 H252 0.929 . S
C211 C208 1.356 . S
C211 C213 1.358 . S
C211 H253 0.930 . S
C212 N209 1.314 . S
C212 C210 1.353 . S
C212 H254 0.930 . S
C213 N209 1.279 . S
C213 C211 1.358 . S
C213 H255 0.930 . S
C214 C215 1.348 . S
C214 C216 1.356 . S
C214 O239 1.325 . S
C215 C214 1.348 . S
C215 C217 1.353 . S
C215 H256 0.929 . S
C216 C214 1.356 . S
C216 C218 1.358 . S
C216 H257 0.930 . S
C217 C215 1.353 . S
C217 N219 1.314 . S
C217 H258 0.930 . S
C218 C216 1.358 . S
C218 N219 1.279 . S
C218 H259 0.930 . S
N219 C217 1.314 . S
N219 C218 1.279 . S
C220 C222 1.353 . S
C220 N223 1.314 . S
C220 H226 0.930 . S
C221 N223 1.279 . S
C221 C224 1.358 . S
C221 H227 0.930 . S
C222 C220 1.353 . S
C222 C225 1.348 . S
C222 H260 0.929 . S
N223 Li178 1.990 . S
N223 C220 1.314 . S
N223 C221 1.279 . S
C224 C221 1.358 . S
C224 C225 1.356 . S
C224 H261 0.930 . S
C225 C222 1.348 . S
C225 C224 1.356 . S
H226 C220 0.930 . S
H227 C221 0.930 . S
C228 N229 1.314 . S
C228 C230 1.353 . S
C228 H234 0.930 . S
N229 Li179 1.990 . S
N229 C228 1.314 . S
N229 C232 1.279 . S
C230 C228 1.353 . S
C230 C233 1.348 . S
C230 H262 0.929 . S
C231 C232 1.358 . S
C231 C233 1.356 . S
C231 H263 0.930 . S
C232 N229 1.279 . S
C232 C231 1.358 . S
C232 H235 0.930 . S
C233 C230 1.348 . S
C233 C231 1.356 . S
H234 C228 0.930 . S
H235 C232 0.930 . S
O236 Li176 1.956 . S
O236 Li177 1.970 . S
O236 Li178 1.961 . S
O236 C180 1.325 . S
O237 Li176 1.970 . S
O237 Li177 1.956 . S
O237 Li179 1.961 . S
O237 C186 1.325 . S
O238 Li176 1.961 . S
O238 Li178 1.956 . S
O238 Li179 1.970 . S
O238 C208 1.325 . S
O239 Li177 1.961 . S
O239 Li178 1.970 . S
O239 Li179 1.956 . S
O239 C214 1.325 . S
H240 C182 0.929 . S
H241 C183 0.930 . S
H242 C184 0.930 . S
H243 C185 0.930 . S
H244 C187 0.930 . S
H245 C189 0.929 . S
H246 C190 0.930 . S
H247 C191 0.930 . S
H248 C194 0.930 . S
H249 C197 0.929 . S
H250 C202 0.929 . S
H251 C203 0.930 . S
H252 C210 0.929 . S
H253 C211 0.930 . S
H254 C212 0.930 . S
H255 C213 0.930 . S
H256 C215 0.929 . S
H257 C216 0.930 . S
H258 C217 0.930 . S
H259 C218 0.930 . S
H260 C222 0.929 . S
H261 C224 0.930 . S
H262 C230 0.929 . S
H263 C231 0.930 . S
Li264 N281 1.990 . S
Li264 O324 1.956 . S
Li264 O325 1.970 . S
Li264 O326 1.961 . S
Li265 N289 1.990 . S
Li265 O324 1.970 . S
Li265 O325 1.956 . S
Li265 O327 1.961 . S
Li266 N311 1.990 . S
Li266 O324 1.961 . S
Li266 O326 1.956 . S
Li266 O327 1.970 . S
Li267 N317 1.990 . S
Li267 O325 1.961 . S
Li267 O326 1.970 . S
Li267 O327 1.956 . S
C268 C270 1.348 . S
C268 C271 1.356 . S
C268 O324 1.325 . S
N269 C272 1.314 . S
N269 C273 1.279 . S
C270 C268 1.348 . S
C270 C272 1.353 . S
C270 H328 0.929 . S
C271 C268 1.356 . S
C271 C273 1.358 . S
C271 H329 0.930 . S
C272 N269 1.314 . S
C272 C270 1.353 . S
C272 H330 0.930 . S
C273 N269 1.279 . S
C273 C271 1.358 . S
C273 H331 0.930 . S
C274 C277 1.348 . S
C274 C278 1.356 . S
C274 O325 1.325 . S
C275 N276 1.279 . S
C275 C278 1.358 . S
C275 H332 0.930 . S
N276 C275 1.279 . S
N276 C279 1.314 . S
C277 C274 1.348 . S
C277 C279 1.353 . S
C277 H333 0.929 . S
C278 C274 1.356 . S
C278 C275 1.358 . S
C278 H334 0.930 . S
C279 N276 1.314 . S
C279 C277 1.353 . S
C279 H335 0.930 . S
C280 N281 1.314 . S
C280 C285 1.353 . S
C280 H286 0.930 . S
N281 Li264 1.990 . S
N281 C280 1.314 . S
N281 C283 1.279 . S
C282 C283 1.358 . S
C282 C284 1.356 . S
C282 H336 0.930 . S
C283 N281 1.279 . S
C283 C282 1.358 . S
C283 H287 0.930 . S
C284 C282 1.356 . S
C284 C285 1.348 . S
C285 C280 1.353 . S
C285 C284 1.348 . S
C285 H337 0.929 . S
H286 C280 0.930 . S
H287 C283 0.930 . S
C288 N289 1.314 . S
C288 C290 1.353 . S
C288 H294 0.930 . S
N289 Li265 1.990 . S
N289 C288 1.314 . S
N289 C292 1.279 . S
C290 C288 1.353 . S
C290 C293 1.348 . S
C290 H338 0.929 . S
C291 C292 1.358 . S
C291 C293 1.356 . S
C291 H339 0.930 . S
C292 N289 1.279 . S
C292 C291 1.358 . S
C292 H295 0.930 . S
C293 C290 1.348 . S
C293 C291 1.356 . S
H294 C288 0.930 . S
H295 C292 0.930 . S
C296 C298 1.348 . S
C296 C299 1.356 . S
C296 O326 1.325 . S
N297 C300 1.314 . S
N297 C301 1.279 . S
C298 C296 1.348 . S
C298 C300 1.353 . S
C298 H340 0.929 . S
C299 C296 1.356 . S
C299 C301 1.358 . S
C299 H341 0.930 . S
C300 N297 1.314 . S
C300 C298 1.353 . S
C300 H342 0.930 . S
C301 N297 1.279 . S
C301 C299 1.358 . S
C301 H343 0.930 . S
C302 C303 1.348 . S
C302 C304 1.356 . S
C302 O327 1.325 . S
C303 C302 1.348 . S
C303 C305 1.353 . S
C303 H344 0.929 . S
C304 C302 1.356 . S
C304 C306 1.358 . S
C304 H345 0.930 . S
C305 C303 1.353 . S
C305 N307 1.314 . S
C305 H346 0.930 . S
C306 C304 1.358 . S
C306 N307 1.279 . S
C306 H347 0.930 . S
N307 C305 1.314 . S
N307 C306 1.279 . S
C308 C310 1.353 . S
C308 N311 1.314 . S
C308 H314 0.930 . S
C309 N311 1.279 . S
C309 C312 1.358 . S
C309 H315 0.930 . S
C310 C308 1.353 . S
C310 C313 1.348 . S
C310 H348 0.929 . S
N311 Li266 1.990 . S
N311 C308 1.314 . S
N311 C309 1.279 . S
C312 C309 1.358 . S
C312 C313 1.356 . S
C312 H349 0.930 . S
C313 C310 1.348 . S
C313 C312 1.356 . S
H314 C308 0.930 . S
H315 C309 0.930 . S
C316 N317 1.314 . S
C316 C318 1.353 . S
C316 H322 0.930 . S
N317 Li267 1.990 . S
N317 C316 1.314 . S
N317 C320 1.279 . S
C318 C316 1.353 . S
C318 C321 1.348 . S
C318 H350 0.929 . S
C319 C320 1.358 . S
C319 C321 1.356 . S
C319 H351 0.930 . S
C320 N317 1.279 . S
C320 C319 1.358 . S
C320 H323 0.930 . S
C321 C318 1.348 . S
C321 C319 1.356 . S
H322 C316 0.930 . S
H323 C320 0.930 . S
O324 Li264 1.956 . S
O324 Li265 1.970 . S
O324 Li266 1.961 . S
O324 C268 1.325 . S
O325 Li264 1.970 . S
O325 Li265 1.956 . S
O325 Li267 1.961 . S
O325 C274 1.325 . S
O326 Li264 1.961 . S
O326 Li266 1.956 . S
O326 Li267 1.970 . S
O326 C296 1.325 . S
O327 Li265 1.961 . S
O327 Li266 1.970 . S
O327 Li267 1.956 . S
O327 C302 1.325 . S
H328 C270 0.929 . S
H329 C271 0.930 . S
H330 C272 0.930 . S
H331 C273 0.930 . S
H332 C275 0.930 . S
H333 C277 0.929 . S
H334 C278 0.930 . S
H335 C279 0.930 . S
H336 C282 0.930 . S
H337 C285 0.929 . S
H338 C290 0.929 . S
H339 C291 0.930 . S
H340 C298 0.929 . S
H341 C299 0.930 . S
H342 C300 0.930 . S
H343 C301 0.930 . S
H344 C303 0.929 . S
H345 C304 0.930 . S
H346 C305 0.930 . S
H347 C306 0.930 . S
H348 C310 0.929 . S
H349 C312 0.930 . S
H350 C318 0.929 . S
H351 C319 0.930 . S
Li352 N369 1.990 . S
Li352 O412 1.956 . S
Li352 O413 1.970 . S
Li352 O414 1.961 . S
Li353 N377 1.990 . S
Li353 O412 1.970 . S
Li353 O413 1.956 . S
Li353 O415 1.961 . S
Li354 N399 1.990 . S
Li354 O412 1.961 . S
Li354 O414 1.956 . S
Li354 O415 1.970 . S
Li355 N405 1.990 . S
Li355 O413 1.961 . S
Li355 O414 1.970 . S
Li355 O415 1.956 . S
C356 C358 1.348 . S
C356 C359 1.356 . S
C356 O412 1.325 . S
N357 C360 1.314 . S
N357 C361 1.279 . S
C358 C356 1.348 . S
C358 C360 1.353 . S
C358 H416 0.929 . S
C359 C356 1.356 . S
C359 C361 1.358 . S
C359 H417 0.930 . S
C360 N357 1.314 . S
C360 C358 1.353 . S
C360 H418 0.930 . S
C361 N357 1.279 . S
C361 C359 1.358 . S
C361 H419 0.930 . S
C362 C365 1.348 . S
C362 C366 1.356 . S
C362 O413 1.325 . S
C363 N364 1.279 . S
C363 C366 1.358 . S
C363 H420 0.930 . S
N364 C363 1.279 . S
N364 C367 1.314 . S
C365 C362 1.348 . S
C365 C367 1.353 . S
C365 H421 0.929 . S
C366 C362 1.356 . S
C366 C363 1.358 . S
C366 H422 0.930 . S
C367 N364 1.314 . S
C367 C365 1.353 . S
C367 H423 0.930 . S
C368 N369 1.314 . S
C368 C373 1.353 . S
C368 H374 0.930 . S
N369 Li352 1.990 . S
N369 C368 1.314 . S
N369 C371 1.279 . S
C370 C371 1.358 . S
C370 C372 1.356 . S
C370 H424 0.930 . S
C371 N369 1.279 . S
C371 C370 1.358 . S
C371 H375 0.930 . S
C372 C370 1.356 . S
C372 C373 1.348 . S
C373 C368 1.353 . S
C373 C372 1.348 . S
C373 H425 0.929 . S
H374 C368 0.930 . S
H375 C371 0.930 . S
C376 N377 1.314 . S
C376 C378 1.353 . S
C376 H382 0.930 . S
N377 Li353 1.990 . S
N377 C376 1.314 . S
N377 C380 1.279 . S
C378 C376 1.353 . S
C378 C381 1.348 . S
C378 H426 0.929 . S
C379 C380 1.358 . S
C379 C381 1.356 . S
C379 H427 0.930 . S
C380 N377 1.279 . S
C380 C379 1.358 . S
C380 H383 0.930 . S
C381 C378 1.348 . S
C381 C379 1.356 . S
H382 C376 0.930 . S
H383 C380 0.930 . S
C384 C386 1.348 1_455 S
C384 C387 1.356 . S
C384 O414 1.325 . S
N385 C388 1.314 . S
N385 C389 1.279 . S
C386 C384 1.348 1_655 S
C386 C388 1.353 . S
C386 H428 0.929 . S
C387 C384 1.356 . S
C387 C389 1.358 1_455 S
C387 H429 0.930 . S
C388 N385 1.314 . S
C388 C386 1.353 . S
C388 H430 0.930 . S
C389 N385 1.279 . S
C389 C387 1.358 1_655 S
C389 H431 0.930 . S
C390 C391 1.348 . S
C390 C392 1.356 . S
C390 O415 1.325 . S
C391 C390 1.348 . S
C391 C393 1.353 . S
C391 H432 0.929 . S
C392 C390 1.356 . S
C392 C394 1.358 . S
C392 H433 0.930 . S
C393 C391 1.353 . S
C393 N395 1.314 . S
C393 H434 0.930 . S
C394 C392 1.358 . S
C394 N395 1.279 . S
C394 H435 0.930 . S
N395 C393 1.314 . S
N395 C394 1.279 . S
C396 C398 1.353 . S
C396 N399 1.314 . S
C396 H402 0.930 . S
C397 N399 1.279 . S
C397 C400 1.358 . S
C397 H403 0.930 . S
C398 C396 1.353 . S
C398 C401 1.348 . S
C398 H436 0.929 . S
N399 Li354 1.990 . S
N399 C396 1.314 . S
N399 C397 1.279 . S
C400 C397 1.358 . S
C400 C401 1.356 . S
C400 H437 0.930 . S
C401 C398 1.348 . S
C401 C400 1.356 . S
H402 C396 0.930 . S
H403 C397 0.930 . S
C404 N405 1.314 . S
C404 C406 1.353 1_455 S
C404 H410 0.930 . S
N405 Li355 1.990 . S
N405 C404 1.314 . S
N405 C408 1.279 . S
C406 C404 1.353 1_655 S
C406 C409 1.348 . S
C406 H438 0.929 . S
C407 C408 1.358 1_655 S
C407 C409 1.356 . S
C407 H439 0.930 . S
C408 N405 1.279 . S
C408 C407 1.358 1_455 S
C408 H411 0.930 . S
C409 C406 1.348 . S
C409 C407 1.356 . S
H410 C404 0.930 . S
H411 C408 0.930 . S
O412 Li352 1.956 . S
O412 Li353 1.970 . S
O412 Li354 1.961 . S
O412 C356 1.325 . S
O413 Li352 1.970 . S
O413 Li353 1.956 . S
O413 Li355 1.961 . S
O413 C362 1.325 . S
O414 Li352 1.961 . S
O414 Li354 1.956 . S
O414 Li355 1.970 . S
O414 C384 1.325 . S
O415 Li353 1.961 . S
O415 Li354 1.970 . S
O415 Li355 1.956 . S
O415 C390 1.325 . S
H416 C358 0.929 . S
H417 C359 0.930 . S
H418 C360 0.930 . S
H419 C361 0.930 . S
H420 C363 0.930 . S
H421 C365 0.929 . S
H422 C366 0.930 . S
H423 C367 0.930 . S
H424 C370 0.930 . S
H425 C373 0.929 . S
H426 C378 0.929 . S
H427 C379 0.930 . S
H428 C386 0.929 . S
H429 C387 0.930 . S
H430 C388 0.930 . S
H431 C389 0.930 . S
H432 C391 0.929 . S
H433 C392 0.930 . S
H434 C393 0.930 . S
H435 C394 0.930 . S
H436 C398 0.929 . S
H437 C400 0.930 . S
H438 C406 0.929 . S
H439 C407 0.930 . S
Li440 N457 1.990 . S
Li440 O500 1.956 . S
Li440 O501 1.970 . S
Li440 O502 1.961 . S
Li441 N465 1.990 . S
Li441 O500 1.970 . S
Li441 O501 1.956 . S
Li441 O503 1.961 . S
Li442 N487 1.990 . S
Li442 O500 1.961 . S
Li442 O502 1.956 . S
Li442 O503 1.970 . S
Li443 N493 1.990 . S
Li443 O501 1.961 . S
Li443 O502 1.970 . S
Li443 O503 1.956 . S
C444 C446 1.348 . S
C444 C447 1.356 . S
C444 O500 1.325 . S
N445 C448 1.314 . S
N445 C449 1.279 . S
C446 C444 1.348 . S
C446 C448 1.353 . S
C446 H504 0.929 . S
C447 C444 1.356 . S
C447 C449 1.358 . S
C447 H505 0.930 . S
C448 N445 1.314 . S
C448 C446 1.353 . S
C448 H506 0.930 . S
C449 N445 1.279 . S
C449 C447 1.358 . S
C449 H507 0.930 . S
C450 C453 1.348 . S
C450 C454 1.356 . S
C450 O501 1.325 . S
C451 N452 1.279 . S
C451 C454 1.358 . S
C451 H508 0.930 . S
N452 C451 1.279 . S
N452 C455 1.314 . S
C453 C450 1.348 . S
C453 C455 1.353 . S
C453 H509 0.929 . S
C454 C450 1.356 . S
C454 C451 1.358 . S
C454 H510 0.930 . S
C455 N452 1.314 . S
C455 C453 1.353 . S
C455 H511 0.930 . S
C456 N457 1.314 . S
C456 C461 1.353 . S
C456 H462 0.930 . S
N457 Li440 1.990 . S
N457 C456 1.314 . S
N457 C459 1.279 . S
C458 C459 1.358 . S
C458 C460 1.356 . S
C458 H512 0.930 . S
C459 N457 1.279 . S
C459 C458 1.358 . S
C459 H463 0.930 . S
C460 C458 1.356 . S
C460 C461 1.348 . S
C461 C456 1.353 . S
C461 C460 1.348 . S
C461 H513 0.929 . S
H462 C456 0.930 . S
H463 C459 0.930 . S
C464 N465 1.314 . S
C464 C466 1.353 . S
C464 H470 0.930 . S
N465 Li441 1.990 . S
N465 C464 1.314 . S
N465 C468 1.279 . S
C466 C464 1.353 . S
C466 C469 1.348 . S
C466 H514 0.929 . S
C467 C468 1.358 . S
C467 C469 1.356 . S
C467 H515 0.930 . S
C468 N465 1.279 . S
C468 C467 1.358 . S
C468 H471 0.930 . S
C469 C466 1.348 . S
C469 C467 1.356 . S
H470 C464 0.930 . S
H471 C468 0.930 . S
C472 C474 1.348 . S
C472 C475 1.356 . S
C472 O502 1.325 . S
N473 C476 1.314 . S
N473 C477 1.279 . S
C474 C472 1.348 . S
C474 C476 1.353 . S
C474 H516 0.929 . S
C475 C472 1.356 . S
C475 C477 1.358 . S
C475 H517 0.930 . S
C476 N473 1.314 . S
C476 C474 1.353 . S
C476 H518 0.930 . S
C477 N473 1.279 . S
C477 C475 1.358 . S
C477 H519 0.930 . S
C478 C479 1.348 . S
C478 C480 1.356 . S
C478 O503 1.325 . S
C479 C478 1.348 . S
C479 C481 1.353 . S
C479 H520 0.929 . S
C480 C478 1.356 . S
C480 C482 1.358 . S
C480 H521 0.930 . S
C481 C479 1.353 . S
C481 N483 1.314 . S
C481 H522 0.930 . S
C482 C480 1.358 . S
C482 N483 1.279 . S
C482 H523 0.930 . S
N483 C481 1.314 . S
N483 C482 1.279 . S
C484 C486 1.353 . S
C484 N487 1.314 . S
C484 H490 0.930 . S
C485 N487 1.279 . S
C485 C488 1.358 . S
C485 H491 0.930 . S
C486 C484 1.353 . S
C486 C489 1.348 . S
C486 H524 0.929 . S
N487 Li442 1.990 . S
N487 C484 1.314 . S
N487 C485 1.279 . S
C488 C485 1.358 . S
C488 C489 1.356 . S
C488 H525 0.930 . S
C489 C486 1.348 . S
C489 C488 1.356 . S
H490 C484 0.930 . S
H491 C485 0.930 . S
C492 N493 1.314 . S
C492 C494 1.353 . S
C492 H498 0.930 . S
N493 Li443 1.990 . S
N493 C492 1.314 . S
N493 C496 1.279 . S
C494 C492 1.353 . S
C494 C497 1.348 . S
C494 H526 0.929 . S
C495 C496 1.358 . S
C495 C497 1.356 . S
C495 H527 0.930 . S
C496 N493 1.279 . S
C496 C495 1.358 . S
C496 H499 0.930 . S
C497 C494 1.348 . S
C497 C495 1.356 . S
H498 C492 0.930 . S
H499 C496 0.930 . S
O500 Li440 1.956 . S
O500 Li441 1.970 . S
O500 Li442 1.961 . S
O500 C444 1.325 . S
O501 Li440 1.970 . S
O501 Li441 1.956 . S
O501 Li443 1.961 . S
O501 C450 1.325 . S
O502 Li440 1.961 . S
O502 Li442 1.956 . S
O502 Li443 1.970 . S
O502 C472 1.325 . S
O503 Li441 1.961 . S
O503 Li442 1.970 . S
O503 Li443 1.956 . S
O503 C478 1.325 . S
H504 C446 0.929 . S
H505 C447 0.930 . S
H506 C448 0.930 . S
H507 C449 0.930 . S
H508 C451 0.930 . S
H509 C453 0.929 . S
H510 C454 0.930 . S
H511 C455 0.930 . S
H512 C458 0.930 . S
H513 C461 0.929 . S
H514 C466 0.929 . S
H515 C467 0.930 . S
H516 C474 0.929 . S
H517 C475 0.930 . S
H518 C476 0.930 . S
H519 C477 0.930 . S
H520 C479 0.929 . S
H521 C480 0.930 . S
H522 C481 0.930 . S
H523 C482 0.930 . S
H524 C486 0.929 . S
H525 C488 0.930 . S
H526 C494 0.929 . S
H527 C495 0.930 . S
Li528 N545 1.990 . S
Li528 O588 1.956 . S
Li528 O589 1.970 . S
Li528 O590 1.961 . S
Li529 N553 1.990 . S
Li529 O588 1.970 . S
Li529 O589 1.956 . S
Li529 O591 1.961 . S
Li530 N575 1.990 . S
Li530 O588 1.961 . S
Li530 O590 1.956 . S
Li530 O591 1.970 . S
Li531 N581 1.990 . S
Li531 O589 1.961 . S
Li531 O590 1.970 . S
Li531 O591 1.956 . S
C532 C534 1.348 . S
C532 C535 1.356 . S
C532 O588 1.325 . S
N533 C536 1.314 . S
N533 C537 1.279 . S
C534 C532 1.348 . S
C534 C536 1.353 . S
C534 H592 0.929 . S
C535 C532 1.356 . S
C535 C537 1.358 . S
C535 H593 0.930 . S
C536 N533 1.314 . S
C536 C534 1.353 . S
C536 H594 0.930 . S
C537 N533 1.279 . S
C537 C535 1.358 . S
C537 H595 0.930 . S
C538 C541 1.348 . S
C538 C542 1.356 . S
C538 O589 1.325 . S
C539 N540 1.279 . S
C539 C542 1.358 . S
C539 H596 0.930 . S
N540 C539 1.279 . S
N540 C543 1.314 . S
C541 C538 1.348 . S
C541 C543 1.353 . S
C541 H597 0.929 . S
C542 C538 1.356 . S
C542 C539 1.358 . S
C542 H598 0.930 . S
C543 N540 1.314 . S
C543 C541 1.353 . S
C543 H599 0.930 . S
C544 N545 1.314 . S
C544 C549 1.353 . S
C544 H550 0.930 . S
N545 Li528 1.990 . S
N545 C544 1.314 . S
N545 C547 1.279 . S
C546 C547 1.358 . S
C546 C548 1.356 . S
C546 H600 0.930 . S
C547 N545 1.279 . S
C547 C546 1.358 . S
C547 H551 0.930 . S
C548 C546 1.356 . S
C548 C549 1.348 . S
C549 C544 1.353 . S
C549 C548 1.348 . S
C549 H601 0.929 . S
H550 C544 0.930 . S
H551 C547 0.930 . S
C552 N553 1.314 . S
C552 C554 1.353 . S
C552 H558 0.930 . S
N553 Li529 1.990 . S
N553 C552 1.314 . S
N553 C556 1.279 . S
C554 C552 1.353 . S
C554 C557 1.348 . S
C554 H602 0.929 . S
C555 C556 1.358 . S
C555 C557 1.356 . S
C555 H603 0.930 . S
C556 N553 1.279 . S
C556 C555 1.358 . S
C556 H559 0.930 . S
C557 C554 1.348 . S
C557 C555 1.356 . S
H558 C552 0.930 . S
H559 C556 0.930 . S
C560 C562 1.348 . S
C560 C563 1.356 . S
C560 O590 1.325 . S
N561 C564 1.314 . S
N561 C565 1.279 . S
C562 C560 1.348 . S
C562 C564 1.353 . S
C562 H604 0.929 . S
C563 C560 1.356 . S
C563 C565 1.358 . S
C563 H605 0.930 . S
C564 N561 1.314 . S
C564 C562 1.353 . S
C564 H606 0.930 . S
C565 N561 1.279 . S
C565 C563 1.358 . S
C565 H607 0.930 . S
C566 C567 1.348 . S
C566 C568 1.356 . S
C566 O591 1.325 . S
C567 C566 1.348 . S
C567 C569 1.353 . S
C567 H608 0.929 . S
C568 C566 1.356 . S
C568 C570 1.358 . S
C568 H609 0.930 . S
C569 C567 1.353 . S
C569 N571 1.314 . S
C569 H610 0.930 . S
C570 C568 1.358 . S
C570 N571 1.279 . S
C570 H611 0.930 . S
N571 C569 1.314 . S
N571 C570 1.279 . S
C572 C574 1.353 . S
C572 N575 1.314 . S
C572 H578 0.930 . S
C573 N575 1.279 . S
C573 C576 1.358 . S
C573 H579 0.930 . S
C574 C572 1.353 . S
C574 C577 1.348 . S
C574 H612 0.929 . S
N575 Li530 1.990 . S
N575 C572 1.314 . S
N575 C573 1.279 . S
C576 C573 1.358 . S
C576 C577 1.356 . S
C576 H613 0.930 . S
C577 C574 1.348 . S
C577 C576 1.356 . S
H578 C572 0.930 . S
H579 C573 0.930 . S
C580 N581 1.314 . S
C580 C582 1.353 . S
C580 H586 0.930 . S
N581 Li531 1.990 . S
N581 C580 1.314 . S
N581 C584 1.279 . S
C582 C580 1.353 . S
C582 C585 1.348 . S
C582 H614 0.929 . S
C583 C584 1.358 . S
C583 C585 1.356 . S
C583 H615 0.930 . S
C584 N581 1.279 . S
C584 C583 1.358 . S
C584 H587 0.930 . S
C585 C582 1.348 . S
C585 C583 1.356 . S
H586 C580 0.930 . S
H587 C584 0.930 . S
O588 Li528 1.956 . S
O588 Li529 1.970 . S
O588 Li530 1.961 . S
O588 C532 1.325 . S
O589 Li528 1.970 . S
O589 Li529 1.956 . S
O589 Li531 1.961 . S
O589 C538 1.325 . S
O590 Li528 1.961 . S
O590 Li530 1.956 . S
O590 Li531 1.970 . S
O590 C560 1.325 . S
O591 Li529 1.961 . S
O591 Li530 1.970 . S
O591 Li531 1.956 . S
O591 C566 1.325 . S
H592 C534 0.929 . S
H593 C535 0.930 . S
H594 C536 0.930 . S
H595 C537 0.930 . S
H596 C539 0.930 . S
H597 C541 0.929 . S
H598 C542 0.930 . S
H599 C543 0.930 . S
H600 C546 0.930 . S
H601 C549 0.929 . S
H602 C554 0.929 . S
H603 C555 0.930 . S
H604 C562 0.929 . S
H605 C563 0.930 . S
H606 C564 0.930 . S
H607 C565 0.930 . S
H608 C567 0.929 . S
H609 C568 0.930 . S
H610 C569 0.930 . S
H611 C570 0.930 . S
H612 C574 0.929 . S
H613 C576 0.930 . S
H614 C582 0.929 . S
H615 C583 0.930 . S
Li616 N633 1.990 . S
Li616 O676 1.956 1_455 S
Li616 O677 1.970 . S
Li616 O678 1.961 . S
Li617 N641 1.990 . S
Li617 O676 1.970 . S
Li617 O677 1.956 1_655 S
Li617 O679 1.961 . S
Li618 N663 1.992 1_455 S
Li618 O676 1.964 1_455 S
Li618 O678 1.953 . S
Li618 O679 1.970 1_455 S
Li619 N669 1.990 . S
Li619 O677 1.961 . S
Li619 O678 1.970 . S
Li619 O679 1.956 1_455 S
C620 C622 1.348 . S
C620 C623 1.356 1_556 S
C620 O676 1.325 . S
N621 C624 1.314 1_554 S
N621 C625 1.279 . S
C622 C620 1.348 . S
C622 C624 1.353 . S
C622 H680 0.929 . S
C623 C620 1.356 1_554 S
C623 C625 1.358 . S
C623 H681 0.930 . S
C624 N621 1.314 1_556 S
C624 C622 1.353 . S
C624 H682 0.930 . S
C625 N621 1.279 . S
C625 C623 1.358 . S
C625 H683 0.930 . S
C626 C629 1.348 1_455 S
C626 C630 1.356 . S
C626 O677 1.325 . S
C627 N628 1.279 . S
C627 C630 1.358 . S
C627 H684 0.930 . S
N628 C627 1.279 . S
N628 C631 1.307 1_455 S
C629 C626 1.348 1_655 S
C629 C631 1.352 . S
C629 H685 0.929 . S
C630 C626 1.356 . S
C630 C627 1.358 . S
C630 H686 0.930 . S
C631 N628 1.307 1_655 S
C631 C629 1.352 . S
C631 H687 0.940 . S
C632 N633 1.314 . S
C632 C637 1.353 1_556 S
C632 H638 0.930 . S
N633 Li616 1.990 . S
N633 C632 1.314 . S
N633 C635 1.279 1_456 S
C634 C635 1.358 . S
C634 C636 1.356 1_655 S
C634 H688 0.930 . S
C635 N633 1.279 1_654 S
C635 C634 1.358 . S
C635 H639 0.930 . S
C636 C634 1.356 1_455 S
C636 C637 1.348 . S
C637 C632 1.353 1_554 S
C637 C636 1.348 . S
C637 H689 0.929 . S
H638 C632 0.930 . S
H639 C635 0.930 . S
C640 N641 1.314 . S
C640 C642 1.353 . S
C640 H646 0.930 . S
N641 Li617 1.990 . S
N641 C640 1.314 . S
N641 C644 1.279 . S
C642 C640 1.353 . S
C642 C645 1.348 . S
C642 H690 0.929 . S
C643 C644 1.358 . S
C643 C645 1.356 . S
C643 H691 0.930 . S
C644 N641 1.279 . S
C644 C643 1.358 . S
C644 H647 0.930 . S
C645 C642 1.348 . S
C645 C643 1.356 . S
H646 C640 0.930 . S
H647 C644 0.930 . S
C648 C650 1.348 . S
C648 C651 1.356 1_556 S
C648 O678 1.325 . S
N649 C652 1.314 1_554 S
N649 C653 1.279 . S
C650 C648 1.348 . S
C650 C652 1.353 . S
C650 H692 0.929 . S
C651 C648 1.356 1_554 S
C651 C653 1.358 . S
C651 H693 0.930 . S
C652 N649 1.314 1_556 S
C652 C650 1.353 . S
C652 H694 0.930 . S
C653 N649 1.279 . S
C653 C651 1.358 . S
C653 H695 0.930 . S
C654 C655 1.348 . S
C654 C656 1.356 . S
C654 O679 1.325 . S
C655 C654 1.348 . S
C655 C657 1.353 . S
C655 H696 0.929 1_655 S
C656 C654 1.356 . S
C656 C658 1.358 . S
C656 H697 0.930 . S
C657 C655 1.353 . S
C657 N659 1.314 . S
C657 H698 0.930 . S
C658 C656 1.358 . S
C658 N659 1.279 . S
C658 H699 0.930 . S
N659 C657 1.314 . S
N659 C658 1.279 . S
C660 C662 1.353 1_556 S
C660 N663 1.340 . S
C660 H666 0.930 . S
C661 N663 1.260 1_455 S
C661 C664 1.348 1_556 S
C661 H667 0.927 . S
C662 C660 1.353 1_554 S
C662 C665 1.348 . S
C662 H700 0.929 . S
N663 Li618 1.992 1_655 S
N663 C660 1.340 . S
N663 C661 1.260 1_655 S
C664 C661 1.348 1_554 S
C664 C665 1.356 1_455 S
C664 H701 0.930 . S
C665 C662 1.348 . S
C665 C664 1.356 1_655 S
H666 C660 0.930 . S
H667 C661 0.927 . S
C668 N669 1.314 . S
C668 C670 1.353 . S
C668 H674 0.930 . S
N669 Li619 1.990 . S
N669 C668 1.314 . S
N669 C672 1.279 . S
C670 C668 1.353 . S
C670 C673 1.348 . S
C670 H702 0.929 . S
C671 C672 1.358 . S
C671 C673 1.356 . S
C671 H703 0.930 . S
C672 N669 1.279 . S
C672 C671 1.358 . S
C672 H675 0.930 . S
C673 C670 1.348 . S
C673 C671 1.356 . S
H674 C668 0.930 . S
H675 C672 0.930 . S
O676 Li616 1.956 1_655 S
O676 Li617 1.970 . S
O676 Li618 1.964 1_655 S
O676 C620 1.325 . S
O677 Li616 1.970 . S
O677 Li617 1.956 1_455 S
O677 Li619 1.961 . S
O677 C626 1.325 . S
O678 Li616 1.961 . S
O678 Li618 1.953 . S
O678 Li619 1.970 . S
O678 C648 1.325 . S
O679 Li617 1.961 . S
O679 Li618 1.970 1_655 S
O679 Li619 1.956 1_655 S
O679 C654 1.325 . S
H680 C622 0.929 . S
H681 C623 0.930 . S
H682 C624 0.930 . S
H683 C625 0.930 . S
H684 C627 0.930 . S
H685 C629 0.929 . S
H686 C630 0.930 . S
H687 C631 0.940 . S
H688 C634 0.930 . S
H689 C637 0.929 . S
H690 C642 0.929 . S
H691 C643 0.930 . S
H692 C650 0.929 . S
H693 C651 0.930 . S
H694 C652 0.930 . S
H695 C653 0.930 . S
H696 C655 0.929 1_455 S
H697 C656 0.930 . S
H698 C657 0.930 . S
H699 C658 0.930 . S
H700 C662 0.929 . S
H701 C664 0.930 . S
H702 C670 0.929 . S
H703 C671 0.930 . S
Li704 N721 1.990 . S
Li704 O764 1.956 1_545 S
Li704 O765 1.970 . S
Li704 O766 1.961 . S
Li705 N729 1.990 . S
Li705 O764 1.970 . S
Li705 O765 1.956 1_565 S
Li705 O767 1.959 . S
Li706 N751 1.990 . S
Li706 O764 1.961 1_545 S
Li706 O766 1.956 . S
Li706 O767 1.970 1_545 S
Li707 N757 1.990 . S
Li707 O765 1.961 . S
Li707 O766 1.970 . S
Li707 O767 1.958 1_545 S
C708 C710 1.348 . S
C708 C711 1.356 . S
C708 O764 1.325 . S
N709 C712 1.314 . S
N709 C713 1.279 . S
C710 C708 1.348 . S
C710 C712 1.353 . S
C710 H768 0.929 . S
C711 C708 1.356 . S
C711 C713 1.358 . S
C711 H769 0.930 . S
C712 N709 1.314 . S
C712 C710 1.353 . S
C712 H770 0.930 . S
C713 N709 1.279 . S
C713 C711 1.358 . S
C713 H771 0.930 . S
C714 C717 1.331 1_545 S
C714 C718 1.356 . S
C714 O765 1.325 . S
C715 N716 1.278 . S
C715 C718 1.358 . S
C715 H772 0.930 . S
N716 C715 1.278 . S
N716 C719 1.316 1_545 S
C717 C714 1.331 1_565 S
C717 C719 1.354 . S
C717 H773 0.948 . S
C718 C714 1.356 . S
C718 C715 1.358 . S
C718 H774 0.930 . S
C719 N716 1.316 1_565 S
C719 C717 1.354 . S
C719 H775 0.930 . S
C720 N721 1.314 . S
C720 C725 1.353 . S
C720 H726 0.930 . S
N721 Li704 1.990 . S
N721 C720 1.314 . S
N721 C723 1.279 1_545 S
C722 C723 1.357 . S
C722 C724 1.342 1_565 S
C722 H776 0.946 . S
C723 N721 1.279 1_565 S
C723 C722 1.357 . S
C723 H727 0.930 . S
C724 C722 1.342 1_545 S
C724 C725 1.348 . S
C725 C720 1.353 . S
C725 C724 1.348 . S
C725 H777 0.929 . S
H726 C720 0.930 . S
H727 C723 0.930 . S
C728 N729 1.314 . S
C728 C730 1.353 . S
C728 H734 0.930 . S
N729 Li705 1.990 . S
N729 C728 1.314 . S
N729 C732 1.279 . S
C730 C728 1.353 . S
C730 C733 1.348 . S
C730 H778 0.929 . S
C731 C732 1.358 . S
C731 C733 1.356 . S
C731 H779 0.930 . S
C732 N729 1.279 . S
C732 C731 1.358 . S
C732 H735 0.930 . S
C733 C730 1.348 . S
C733 C731 1.356 . S
H734 C728 0.930 . S
H735 C732 0.930 . S
C736 C738 1.348 . S
C736 C739 1.356 . S
C736 O766 1.325 . S
N737 C740 1.314 . S
N737 C741 1.279 . S
C738 C736 1.348 . S
C738 C740 1.353 . S
C738 H780 0.929 . S
C739 C736 1.356 . S
C739 C741 1.358 . S
C739 H781 0.930 . S
C740 N737 1.314 . S
C740 C738 1.353 . S
C740 H782 0.930 . S
C741 N737 1.279 . S
C741 C739 1.358 . S
C741 H783 0.930 . S
C742 C743 1.348 1_565 S
C742 C744 1.356 . S
C742 O767 1.325 . S
C743 C742 1.348 1_545 S
C743 C745 1.352 . S
C743 H784 0.929 . S
C744 C742 1.356 . S
C744 C746 1.358 . S
C744 H785 0.930 . S
C745 C743 1.352 . S
C745 N747 1.312 1_545 S
C745 H786 0.934 . S
C746 C744 1.358 . S
C746 N747 1.279 . S
C746 H787 0.930 . S
N747 C745 1.312 1_565 S
N747 C746 1.279 . S
C748 C750 1.353 . S
C748 N751 1.314 1_565 S
C748 H754 0.930 . S
C749 N751 1.279 . S
C749 C752 1.358 . S
C749 H755 0.930 . S
C750 C748 1.353 . S
C750 C753 1.348 1_565 S
C750 H788 0.929 . S
N751 Li706 1.990 . S
N751 C748 1.314 1_545 S
N751 C749 1.279 . S
C752 C749 1.358 . S
C752 C753 1.356 . S
C752 H789 0.930 . S
C753 C750 1.348 1_545 S
C753 C752 1.356 . S
H754 C748 0.930 . S
H755 C749 0.930 . S
C756 N757 1.314 . S
C756 C758 1.353 . S
C756 H762 0.930 . S
N757 Li707 1.990 . S
N757 C756 1.314 . S
N757 C760 1.279 . S
C758 C756 1.353 . S
C758 C761 1.348 . S
C758 H790 0.929 . S
C759 C760 1.358 . S
C759 C761 1.356 . S
C759 H791 0.930 . S
C760 N757 1.279 . S
C760 C759 1.358 . S
C760 H763 0.930 . S
C761 C758 1.348 . S
C761 C759 1.356 . S
H762 C756 0.930 . S
H763 C760 0.930 . S
O764 Li704 1.956 1_565 S
O764 Li705 1.970 . S
O764 Li706 1.961 1_565 S
O764 C708 1.325 . S
O765 Li704 1.970 . S
O765 Li705 1.956 1_545 S
O765 Li707 1.961 . S
O765 C714 1.325 . S
O766 Li704 1.961 . S
O766 Li706 1.956 . S
O766 Li707 1.970 . S
O766 C736 1.325 . S
O767 Li705 1.959 . S
O767 Li706 1.970 1_565 S
O767 Li707 1.958 1_565 S
O767 C742 1.325 . S
H768 C710 0.929 . S
H769 C711 0.930 . S
H770 C712 0.930 . S
H771 C713 0.930 . S
H772 C715 0.930 . S
H773 C717 0.948 . S
H774 C718 0.930 . S
H775 C719 0.930 . S
H776 C722 0.946 . S
H777 C725 0.929 . S
H778 C730 0.929 . S
H779 C731 0.930 . S
H780 C738 0.929 . S
H781 C739 0.930 . S
H782 C740 0.930 . S
H783 C741 0.930 . S
H784 C743 0.929 . S
H785 C744 0.930 . S
H786 C745 0.934 . S
H787 C746 0.930 . S
H788 C750 0.929 . S
H789 C752 0.930 . S
H790 C758 0.929 . S
H791 C759 0.930 . S
Li792 N809 1.990 . S
Li792 O852 1.956 . S
Li792 O853 1.970 . S
Li792 O854 1.961 . S
Li793 N817 1.990 . S
Li793 O852 1.970 . S
Li793 O853 1.956 . S
Li793 O855 1.961 . S
Li794 N839 1.990 . S
Li794 O852 1.961 . S
Li794 O854 1.956 . S
Li794 O855 1.970 . S
Li795 N845 1.990 . S
Li795 O853 1.961 . S
Li795 O854 1.970 . S
Li795 O855 1.956 . S
C796 C798 1.348 . S
C796 C799 1.356 . S
C796 O852 1.325 . S
N797 C800 1.314 . S
N797 C801 1.279 . S
C798 C796 1.348 . S
C798 C800 1.353 . S
C798 H856 0.929 . S
C799 C796 1.356 . S
C799 C801 1.358 . S
C799 H857 0.930 . S
C800 N797 1.314 . S
C800 C798 1.353 . S
C800 H858 0.930 . S
C801 N797 1.279 . S
C801 C799 1.358 . S
C801 H859 0.930 . S
C802 C805 1.348 . S
C802 C806 1.356 . S
C802 O853 1.325 . S
C803 N804 1.279 . S
C803 C806 1.358 . S
C803 H860 0.930 . S
N804 C803 1.279 . S
N804 C807 1.314 . S
C805 C802 1.348 . S
C805 C807 1.353 . S
C805 H861 0.929 . S
C806 C802 1.356 . S
C806 C803 1.358 . S
C806 H862 0.930 . S
C807 N804 1.314 . S
C807 C805 1.353 . S
C807 H863 0.930 . S
C808 N809 1.314 . S
C808 C813 1.353 . S
C808 H814 0.930 . S
N809 Li792 1.990 . S
N809 C808 1.314 . S
N809 C811 1.279 . S
C810 C811 1.358 . S
C810 C812 1.356 . S
C810 H864 0.930 . S
C811 N809 1.279 . S
C811 C810 1.358 . S
C811 H815 0.930 . S
C812 C810 1.356 . S
C812 C813 1.348 . S
C813 C808 1.353 . S
C813 C812 1.348 . S
C813 H865 0.929 . S
H814 C808 0.930 . S
H815 C811 0.930 . S
C816 N817 1.314 . S
C816 C818 1.353 . S
C816 H822 0.930 . S
N817 Li793 1.990 . S
N817 C816 1.314 . S
N817 C820 1.279 . S
C818 C816 1.353 . S
C818 C821 1.348 . S
C818 H866 0.929 . S
C819 C820 1.358 . S
C819 C821 1.356 . S
C819 H867 0.930 . S
C820 N817 1.279 . S
C820 C819 1.358 . S
C820 H823 0.930 . S
C821 C818 1.348 . S
C821 C819 1.356 . S
H822 C816 0.930 . S
H823 C820 0.930 . S
C824 C826 1.348 . S
C824 C827 1.356 . S
C824 O854 1.325 . S
N825 C828 1.314 . S
N825 C829 1.279 . S
C826 C824 1.348 . S
C826 C828 1.353 . S
C826 H868 0.929 . S
C827 C824 1.356 . S
C827 C829 1.358 . S
C827 H869 0.930 . S
C828 N825 1.314 . S
C828 C826 1.353 . S
C828 H870 0.930 . S
C829 N825 1.279 . S
C829 C827 1.358 . S
C829 H871 0.930 . S
C830 C831 1.348 . S
C830 C832 1.356 . S
C830 O855 1.325 . S
C831 C830 1.348 . S
C831 C833 1.353 . S
C831 H872 0.929 . S
C832 C830 1.356 . S
C832 C834 1.358 . S
C832 H873 0.930 . S
C833 C831 1.353 . S
C833 N835 1.314 . S
C833 H874 0.930 . S
C834 C832 1.358 . S
C834 N835 1.279 . S
C834 H875 0.930 . S
N835 C833 1.314 . S
N835 C834 1.279 . S
C836 C838 1.353 . S
C836 N839 1.314 . S
C836 H842 0.930 . S
C837 N839 1.279 . S
C837 C840 1.358 . S
C837 H843 0.930 . S
C838 C836 1.353 . S
C838 C841 1.348 . S
C838 H876 0.929 . S
N839 Li794 1.990 . S
N839 C836 1.314 . S
N839 C837 1.279 . S
C840 C837 1.358 . S
C840 C841 1.356 . S
C840 H877 0.930 . S
C841 C838 1.348 . S
C841 C840 1.356 . S
H842 C836 0.930 . S
H843 C837 0.930 . S
C844 N845 1.314 . S
C844 C846 1.353 . S
C844 H850 0.930 . S
N845 Li795 1.990 . S
N845 C844 1.314 . S
N845 C848 1.279 . S
C846 C844 1.353 . S
C846 C849 1.348 . S
C846 H878 0.929 . S
C847 C848 1.358 . S
C847 C849 1.356 . S
C847 H879 0.930 . S
C848 N845 1.279 . S
C848 C847 1.358 . S
C848 H851 0.930 . S
C849 C846 1.348 . S
C849 C847 1.356 . S
H850 C844 0.930 . S
H851 C848 0.930 . S
O852 Li792 1.956 . S
O852 Li793 1.970 . S
O852 Li794 1.961 . S
O852 C796 1.325 . S
O853 Li792 1.970 . S
O853 Li793 1.956 . S
O853 Li795 1.961 . S
O853 C802 1.325 . S
O854 Li792 1.961 . S
O854 Li794 1.956 . S
O854 Li795 1.970 . S
O854 C824 1.325 . S
O855 Li793 1.961 . S
O855 Li794 1.970 . S
O855 Li795 1.956 . S
O855 C830 1.325 . S
H856 C798 0.929 . S
H857 C799 0.930 . S
H858 C800 0.930 . S
H859 C801 0.930 . S
H860 C803 0.930 . S
H861 C805 0.929 . S
H862 C806 0.930 . S
H863 C807 0.930 . S
H864 C810 0.930 . S
H865 C813 0.929 . S
H866 C818 0.929 . S
H867 C819 0.930 . S
H868 C826 0.929 . S
H869 C827 0.930 . S
H870 C828 0.930 . S
H871 C829 0.930 . S
H872 C831 0.929 . S
H873 C832 0.930 . S
H874 C833 0.930 . S
H875 C834 0.930 . S
H876 C838 0.929 . S
H877 C840 0.930 . S
H878 C846 0.929 . S
H879 C847 0.930 . S
Li880 N897 1.990 . S
Li880 O940 1.956 . S
Li880 O941 1.970 . S
Li880 O942 1.961 . S
Li881 N905 1.990 . S
Li881 O940 1.970 . S
Li881 O941 1.956 . S
Li881 O943 1.961 . S
Li882 N927 1.990 . S
Li882 O940 1.961 . S
Li882 O942 1.956 . S
Li882 O943 1.970 . S
Li883 N933 1.990 . S
Li883 O941 1.961 . S
Li883 O942 1.970 . S
Li883 O943 1.956 . S
C884 C886 1.348 . S
C884 C887 1.356 . S
C884 O940 1.325 . S
N885 C888 1.314 . S
N885 C889 1.279 . S
C886 C884 1.348 . S
C886 C888 1.353 . S
C886 H944 0.929 . S
C887 C884 1.356 . S
C887 C889 1.358 . S
C887 H945 0.930 . S
C888 N885 1.314 . S
C888 C886 1.353 . S
C888 H946 0.930 . S
C889 N885 1.279 . S
C889 C887 1.358 . S
C889 H947 0.930 . S
C890 C893 1.348 . S
C890 C894 1.356 . S
C890 O941 1.325 . S
C891 N892 1.279 . S
C891 C894 1.358 . S
C891 H948 0.930 . S
N892 C891 1.279 . S
N892 C895 1.314 . S
C893 C890 1.348 . S
C893 C895 1.353 . S
C893 H949 0.929 . S
C894 C890 1.356 . S
C894 C891 1.358 . S
C894 H950 0.930 . S
C895 N892 1.314 . S
C895 C893 1.353 . S
C895 H951 0.930 . S
C896 N897 1.314 . S
C896 C901 1.353 . S
C896 H902 0.930 . S
N897 Li880 1.990 . S
N897 C896 1.314 . S
N897 C899 1.279 . S
C898 C899 1.358 . S
C898 C900 1.356 . S
C898 H952 0.930 . S
C899 N897 1.279 . S
C899 C898 1.358 . S
C899 H903 0.930 . S
C900 C898 1.356 . S
C900 C901 1.348 . S
C901 C896 1.353 . S
C901 C900 1.348 . S
C901 H953 0.929 . S
H902 C896 0.930 . S
H903 C899 0.930 . S
C904 N905 1.314 . S
C904 C906 1.353 . S
C904 H910 0.930 . S
N905 Li881 1.990 . S
N905 C904 1.314 . S
N905 C908 1.279 . S
C906 C904 1.353 . S
C906 C909 1.348 . S
C906 H954 0.929 . S
C907 C908 1.358 . S
C907 C909 1.356 . S
C907 H955 0.930 . S
C908 N905 1.279 . S
C908 C907 1.358 . S
C908 H911 0.930 . S
C909 C906 1.348 . S
C909 C907 1.356 . S
H910 C904 0.930 . S
H911 C908 0.930 . S
C912 C914 1.348 . S
C912 C915 1.356 . S
C912 O942 1.325 . S
N913 C916 1.314 . S
N913 C917 1.279 . S
C914 C912 1.348 . S
C914 C916 1.353 . S
C914 H956 0.929 . S
C915 C912 1.356 . S
C915 C917 1.358 . S
C915 H957 0.930 . S
C916 N913 1.314 . S
C916 C914 1.353 . S
C916 H958 0.930 . S
C917 N913 1.279 . S
C917 C915 1.358 . S
C917 H959 0.930 . S
C918 C919 1.348 . S
C918 C920 1.356 . S
C918 O943 1.325 1_565 S
C919 C918 1.348 . S
C919 C921 1.353 . S
C919 H960 0.929 . S
C920 C918 1.356 . S
C920 C922 1.358 . S
C920 H961 0.930 1_565 S
C921 C919 1.353 . S
C921 N923 1.314 . S
C921 H962 0.930 . S
C922 C920 1.358 . S
C922 N923 1.279 . S
C922 H963 0.930 . S
N923 C921 1.314 . S
N923 C922 1.279 . S
C924 C926 1.353 . S
C924 N927 1.314 1_565 S
C924 H930 0.930 . S
C925 N927 1.279 1_565 S
C925 C928 1.358 . S
C925 H931 0.911 1_565 S
C926 C924 1.353 . S
C926 C929 1.348 . S
C926 H964 0.929 . S
N927 Li882 1.990 . S
N927 C924 1.314 1_545 S
N927 C925 1.279 1_545 S
C928 C925 1.358 . S
C928 C929 1.356 . S
C928 H965 0.930 . S
C929 C926 1.348 . S
C929 C928 1.356 . S
H930 C924 0.930 . S
H931 C925 0.911 1_545 S
C932 N933 1.314 . S
C932 C934 1.353 . S
C932 H938 0.930 . S
N933 Li883 1.990 . S
N933 C932 1.314 . S
N933 C936 1.279 . S
C934 C932 1.353 . S
C934 C937 1.348 . S
C934 H966 0.929 . S
C935 C936 1.358 . S
C935 C937 1.356 . S
C935 H967 0.930 1_545 S
C936 N933 1.279 . S
C936 C935 1.358 . S
C936 H939 0.930 . S
C937 C934 1.348 . S
C937 C935 1.356 . S
H938 C932 0.930 . S
H939 C936 0.930 . S
O940 Li880 1.956 . S
O940 Li881 1.970 . S
O940 Li882 1.961 . S
O940 C884 1.325 . S
O941 Li880 1.970 . S
O941 Li881 1.956 . S
O941 Li883 1.961 . S
O941 C890 1.325 . S
O942 Li880 1.961 . S
O942 Li882 1.956 . S
O942 Li883 1.970 . S
O942 C912 1.325 . S
O943 Li881 1.961 . S
O943 Li882 1.970 . S
O943 Li883 1.956 . S
O943 C918 1.325 1_545 S
H944 C886 0.929 . S
H945 C887 0.930 . S
H946 C888 0.930 . S
H947 C889 0.930 . S
H948 C891 0.930 . S
H949 C893 0.929 . S
H950 C894 0.930 . S
H951 C895 0.930 . S
H952 C898 0.930 . S
H953 C901 0.929 . S
H954 C906 0.929 . S
H955 C907 0.930 . S
H956 C914 0.929 . S
H957 C915 0.930 . S
H958 C916 0.930 . S
H959 C917 0.930 . S
H960 C919 0.929 . S
H961 C920 0.930 1_545 S
H962 C921 0.930 . S
H963 C922 0.930 . S
H964 C926 0.929 . S
H965 C928 0.930 . S
H966 C934 0.929 . S
H967 C935 0.930 1_565 S
Li968 N985 1.991 . S
Li968 O1028 1.979 . S
Li968 O1029 1.971 1_554 S
Li968 O1030 1.935 1_554 S
Li969 N993 1.990 . S
Li969 O1028 1.970 . S
Li969 O1029 1.956 1_554 S
Li969 O1031 1.961 . S
Li970 N1015 1.990 . S
Li970 O1028 1.961 . S
Li970 O1030 1.956 1_554 S
Li970 O1031 1.970 . S
Li971 N1021 1.990 . S
Li971 O1029 1.961 . S
Li971 O1030 1.970 . S
Li971 O1031 1.956 1_556 S
C972 C974 1.348 . S
C972 C975 1.356 . S
C972 O1028 1.325 . S
N973 C976 1.314 . S
N973 C977 1.269 1_565 S
C974 C972 1.348 . S
C974 C976 1.353 . S
C974 H1032 0.929 . S
C975 C972 1.356 . S
C975 C977 1.343 1_565 S
C975 H1033 0.930 . S
C976 N973 1.314 . S
C976 C974 1.353 . S
C976 H1034 0.930 . S
C977 N973 1.269 1_545 S
C977 C975 1.343 1_545 S
C977 H1035 0.960 . S
C978 C981 1.340 1_556 S
C978 C982 1.356 . S
C978 O1029 1.325 . S
C979 N980 1.279 . S
C979 C982 1.358 . S
C979 H1036 0.930 . S
N980 C979 1.279 . S
N980 C983 1.314 . S
C981 C978 1.340 1_554 S
C981 C983 1.355 1_554 S
C981 H1037 0.936 . S
C982 C978 1.356 . S
C982 C979 1.358 . S
C982 H1038 0.930 . S
C983 N980 1.314 . S
C983 C981 1.355 1_556 S
C983 H1039 0.930 1_556 S
C984 N985 1.314 1_556 S
C984 C989 1.353 . S
C984 H990 0.930 . S
N985 Li968 1.991 . S
N985 C984 1.314 1_554 S
N985 C987 1.279 . S
C986 C987 1.358 . S
C986 C988 1.337 1_554 S
C986 H1040 0.930 . S
C987 N985 1.279 . S
C987 C986 1.358 . S
C987 H991 0.930 . S
C988 C986 1.337 1_556 S
C988 C989 1.368 . S
C989 C984 1.353 . S
C989 C988 1.368 . S
C989 H1041 0.929 . S
H990 C984 0.930 . S
H991 C987 0.930 . S
C992 N993 1.314 . S
C992 C994 1.353 . S
C992 H998 0.930 . S
N993 Li969 1.990 . S
N993 C992 1.314 . S
N993 C996 1.279 . S
C994 C992 1.353 . S
C994 C997 1.348 . S
C994 H1042 0.929 . S
C995 C996 1.358 . S
C995 C997 1.356 . S
C995 H1043 0.930 . S
C996 N993 1.279 . S
C996 C995 1.358 . S
C996 H999 0.930 . S
C997 C994 1.348 . S
C997 C995 1.356 . S
H998 C992 0.930 . S
H999 C996 0.930 . S
C1000 C1002 1.348 . S
C1000 C1003 1.356 . S
C1000 O1030 1.325 . S
N1001 C1004 1.314 . S
N1001 C1005 1.279 . S
C1002 C1000 1.348 . S
C1002 C1004 1.353 . S
C1002 H1044 0.929 . S
C1003 C1000 1.356 . S
C1003 C1005 1.358 . S
C1003 H1045 0.930 . S
C1004 N1001 1.314 . S
C1004 C1002 1.353 . S
C1004 H1046 0.930 . S
C1005 N1001 1.279 . S
C1005 C1003 1.358 . S
C1005 H1047 0.930 1_565 S
C1006 C1007 1.340 1_554 S
C1006 C1008 1.361 . S
C1006 O1031 1.326 . S
C1007 C1006 1.340 1_556 S
C1007 C1009 1.353 . S
C1007 H1048 0.929 . S
C1008 C1006 1.361 . S
C1008 C1010 1.358 . S
C1008 H1049 0.930 . S
C1009 C1007 1.353 . S
C1009 N1011 1.314 . S
C1009 H1050 0.930 . S
C1010 C1008 1.358 . S
C1010 N1011 1.279 1_554 S
C1010 H1051 0.930 . S
N1011 C1009 1.314 . S
N1011 C1010 1.279 1_556 S
C1012 C1014 1.353 . S
C1012 N1015 1.314 . S
C1012 H1018 0.930 . S
C1013 N1015 1.279 1_556 S
C1013 C1016 1.358 . S
C1013 H1019 0.930 . S
C1014 C1012 1.353 . S
C1014 C1017 1.348 1_565 S
C1014 H1052 0.929 . S
N1015 Li970 1.990 . S
N1015 C1012 1.314 . S
N1015 C1013 1.279 1_554 S
C1016 C1013 1.358 . S
C1016 C1017 1.356 1_566 S
C1016 H1053 0.930 1_565 S
C1017 C1014 1.348 1_545 S
C1017 C1016 1.356 1_544 S
H1018 C1012 0.930 . S
H1019 C1013 0.930 . S
C1020 N1021 1.314 . S
C1020 C1022 1.353 . S
C1020 H1026 0.930 . S
N1021 Li971 1.990 . S
N1021 C1020 1.314 . S
N1021 C1024 1.279 . S
C1022 C1020 1.353 . S
C1022 C1025 1.348 . S
C1022 H1054 0.929 . S
C1023 C1024 1.358 . S
C1023 C1025 1.356 . S
C1023 H1055 0.930 . S
C1024 N1021 1.279 . S
C1024 C1023 1.358 . S
C1024 H1027 0.930 . S
C1025 C1022 1.348 . S
C1025 C1023 1.356 . S
H1026 C1020 0.930 . S
H1027 C1024 0.930 . S
O1028 Li968 1.979 . S
O1028 Li969 1.970 . S
O1028 Li970 1.961 . S
O1028 C972 1.325 . S
O1029 Li968 1.971 1_556 S
O1029 Li969 1.956 1_556 S
O1029 Li971 1.961 . S
O1029 C978 1.325 . S
O1030 Li968 1.935 1_556 S
O1030 Li970 1.956 1_556 S
O1030 Li971 1.970 . S
O1030 C1000 1.325 . S
O1031 Li969 1.961 . S
O1031 Li970 1.970 . S
O1031 Li971 1.956 1_554 S
O1031 C1006 1.326 . S
H1032 C974 0.929 . S
H1033 C975 0.930 . S
H1034 C976 0.930 . S
H1035 C977 0.960 . S
H1036 C979 0.930 . S
H1037 C981 0.936 . S
H1038 C982 0.930 . S
H1039 C983 0.930 1_554 S
H1040 C986 0.930 . S
H1041 C989 0.929 . S
H1042 C994 0.929 . S
H1043 C995 0.930 . S
H1044 C1002 0.929 . S
H1045 C1003 0.930 . S
H1046 C1004 0.930 . S
H1047 C1005 0.930 1_545 S
H1048 C1007 0.929 . S
H1049 C1008 0.930 . S
H1050 C1009 0.930 . S
H1051 C1010 0.930 . S
H1052 C1014 0.929 . S
H1053 C1016 0.930 1_545 S
H1054 C1022 0.929 . S
H1055 C1023 0.930 . S
Li1056 N1073 1.990 . S
Li1056 O1116 1.956 . S
Li1056 O1117 1.970 . S
Li1056 O1118 1.961 . S
Li1057 N1081 1.990 . S
Li1057 O1116 1.970 . S
Li1057 O1117 1.956 . S
Li1057 O1119 1.961 . S
Li1058 N1103 1.990 . S
Li1058 O1116 1.961 . S
Li1058 O1118 1.956 . S
Li1058 O1119 1.970 . S
Li1059 N1109 1.990 1_554 S
Li1059 O1117 1.961 . S
Li1059 O1118 1.970 . S
Li1059 O1119 1.956 . S
C1060 C1062 1.348 . S
C1060 C1063 1.356 . S
C1060 O1116 1.325 . S
N1061 C1064 1.314 . S
N1061 C1065 1.279 . S
C1062 C1060 1.348 . S
C1062 C1064 1.353 . S
C1062 H1120 0.929 . S
C1063 C1060 1.356 . S
C1063 C1065 1.358 . S
C1063 H1121 0.930 . S
C1064 N1061 1.314 . S
C1064 C1062 1.353 . S
C1064 H1122 0.930 . S
C1065 N1061 1.279 . S
C1065 C1063 1.358 . S
C1065 H1123 0.930 . S
C1066 C1069 1.348 . S
C1066 C1070 1.356 . S
C1066 O1117 1.325 . S
C1067 N1068 1.279 . S
C1067 C1070 1.358 . S
C1067 H1124 0.930 . S
N1068 C1067 1.279 . S
N1068 C1071 1.314 . S
C1069 C1066 1.348 . S
C1069 C1071 1.353 . S
C1069 H1125 0.929 . S
C1070 C1066 1.356 . S
C1070 C1067 1.358 . S
C1070 H1126 0.930 . S
C1071 N1068 1.314 . S
C1071 C1069 1.353 . S
C1071 H1127 0.930 . S
C1072 N1073 1.314 . S
C1072 C1077 1.353 . S
C1072 H1078 0.930 . S
N1073 Li1056 1.990 . S
N1073 C1072 1.314 . S
N1073 C1075 1.279 . S
C1074 C1075 1.358 . S
C1074 C1076 1.356 . S
C1074 H1128 0.930 . S
C1075 N1073 1.279 . S
C1075 C1074 1.358 . S
C1075 H1079 0.930 . S
C1076 C1074 1.356 . S
C1076 C1077 1.348 . S
C1077 C1072 1.353 . S
C1077 C1076 1.348 . S
C1077 H1129 0.929 . S
H1078 C1072 0.930 . S
H1079 C1075 0.930 . S
C1080 N1081 1.314 . S
C1080 C1082 1.353 . S
C1080 H1086 0.930 . S
N1081 Li1057 1.990 . S
N1081 C1080 1.314 . S
N1081 C1084 1.279 . S
C1082 C1080 1.353 . S
C1082 C1085 1.348 . S
C1082 H1130 0.929 . S
C1083 C1084 1.358 . S
C1083 C1085 1.356 . S
C1083 H1131 0.930 . S
C1084 N1081 1.279 . S
C1084 C1083 1.358 . S
C1084 H1087 0.930 . S
C1085 C1082 1.348 . S
C1085 C1083 1.356 . S
H1086 C1080 0.930 . S
H1087 C1084 0.930 . S
C1088 C1090 1.315 1_554 S
C1088 C1091 1.357 . S
C1088 O1118 1.355 . S
N1089 C1092 1.314 . S
N1089 C1093 1.279 . S
C1090 C1088 1.315 1_556 S
C1090 C1092 1.353 . S
C1090 H1132 0.929 . S
C1091 C1088 1.357 . S
C1091 C1093 1.358 1_554 S
C1091 H1133 0.930 . S
C1092 N1089 1.314 . S
C1092 C1090 1.353 . S
C1092 H1134 0.930 . S
C1093 N1089 1.279 . S
C1093 C1091 1.358 1_556 S
C1093 H1135 0.930 . S
C1094 C1095 1.348 . S
C1094 C1096 1.356 . S
C1094 O1119 1.325 . S
C1095 C1094 1.348 . S
C1095 C1097 1.353 . S
C1095 H1136 0.929 . S
C1096 C1094 1.356 . S
C1096 C1098 1.358 . S
C1096 H1137 0.930 . S
C1097 C1095 1.353 . S
C1097 N1099 1.314 . S
C1097 H1138 0.930 . S
C1098 C1096 1.358 . S
C1098 N1099 1.279 . S
C1098 H1139 0.930 . S
N1099 C1097 1.314 . S
N1099 C1098 1.279 . S
C1100 C1102 1.353 . S
C1100 N1103 1.314 . S
C1100 H1106 0.930 . S
C1101 N1103 1.279 . S
C1101 C1104 1.358 . S
C1101 H1107 0.930 . S
C1102 C1100 1.353 . S
C1102 C1105 1.348 . S
C1102 H1140 0.929 . S
N1103 Li1058 1.990 . S
N1103 C1100 1.314 . S
N1103 C1101 1.279 . S
C1104 C1101 1.358 . S
C1104 C1105 1.356 . S
C1104 H1141 0.930 . S
C1105 C1102 1.348 . S
C1105 C1104 1.356 . S
H1106 C1100 0.930 . S
H1107 C1101 0.930 . S
C1108 N1109 1.314 . S
C1108 C1110 1.353 . S
C1108 H1114 0.930 . S
N1109 Li1059 1.990 1_556 S
N1109 C1108 1.314 . S
N1109 C1112 1.279 . S
C1110 C1108 1.353 . S
C1110 C1113 1.348 . S
C1110 H1142 0.929 . S
C1111 C1112 1.358 . S
C1111 C1113 1.356 . S
C1111 H1143 0.930 . S
C1112 N1109 1.279 . S
C1112 C1111 1.358 . S
C1112 H1115 0.930 . S
C1113 C1110 1.348 . S
C1113 C1111 1.356 . S
H1114 C1108 0.930 . S
H1115 C1112 0.930 . S
O1116 Li1056 1.956 . S
O1116 Li1057 1.970 . S
O1116 Li1058 1.961 . S
O1116 C1060 1.325 . S
O1117 Li1056 1.970 . S
O1117 Li1057 1.956 . S
O1117 Li1059 1.961 . S
O1117 C1066 1.325 . S
O1118 Li1056 1.961 . S
O1118 Li1058 1.956 . S
O1118 Li1059 1.970 . S
O1118 C1088 1.355 . S
O1119 Li1057 1.961 . S
O1119 Li1058 1.970 . S
O1119 Li1059 1.956 . S
O1119 C1094 1.325 . S
H1120 C1062 0.929 . S
H1121 C1063 0.930 . S
H1122 C1064 0.930 . S
H1123 C1065 0.930 . S
H1124 C1067 0.930 . S
H1125 C1069 0.929 . S
H1126 C1070 0.930 . S
H1127 C1071 0.930 . S
H1128 C1074 0.930 . S
H1129 C1077 0.929 . S
H1130 C1082 0.929 . S
H1131 C1083 0.930 . S
H1132 C1090 0.929 . S
H1133 C1091 0.930 . S
H1134 C1092 0.930 . S
H1135 C1093 0.930 . S
H1136 C1095 0.929 . S
H1137 C1096 0.930 . S
H1138 C1097 0.930 . S
H1139 C1098 0.930 . S
H1140 C1102 0.929 . S
H1141 C1104 0.930 . S
H1142 C1110 0.929 . S
H1143 C1111 0.930 . S
Li1144 N1161 1.990 . S
Li1144 O1204 1.956 . S
Li1144 O1205 1.970 . S
Li1144 O1206 1.961 . S
Li1145 N1169 1.990 . S
Li1145 O1204 1.970 . S
Li1145 O1205 1.956 . S
Li1145 O1207 1.961 . S
Li1146 N1191 1.990 . S
Li1146 O1204 1.961 . S
Li1146 O1206 1.956 . S
Li1146 O1207 1.970 . S
Li1147 N1197 1.990 . S
Li1147 O1205 1.961 . S
Li1147 O1206 1.970 . S
Li1147 O1207 1.956 . S
C1148 C1150 1.348 . S
C1148 C1151 1.356 . S
C1148 O1204 1.325 . S
N1149 C1152 1.314 . S
N1149 C1153 1.279 . S
C1150 C1148 1.348 . S
C1150 C1152 1.353 . S
C1150 H1208 0.929 . S
C1151 C1148 1.356 . S
C1151 C1153 1.358 . S
C1151 H1209 0.930 . S
C1152 N1149 1.314 . S
C1152 C1150 1.353 . S
C1152 H1210 0.930 . S
C1153 N1149 1.279 . S
C1153 C1151 1.358 . S
C1153 H1211 0.930 . S
C1154 C1157 1.348 . S
C1154 C1158 1.356 . S
C1154 O1205 1.325 . S
C1155 N1156 1.279 . S
C1155 C1158 1.358 . S
C1155 H1212 0.930 . S
N1156 C1155 1.279 . S
N1156 C1159 1.314 . S
C1157 C1154 1.348 . S
C1157 C1159 1.353 . S
C1157 H1213 0.929 . S
C1158 C1154 1.356 . S
C1158 C1155 1.358 . S
C1158 H1214 0.930 . S
C1159 N1156 1.314 . S
C1159 C1157 1.353 . S
C1159 H1215 0.930 . S
C1160 N1161 1.314 . S
C1160 C1165 1.353 . S
C1160 H1166 0.930 . S
N1161 Li1144 1.990 . S
N1161 C1160 1.314 . S
N1161 C1163 1.279 . S
C1162 C1163 1.358 . S
C1162 C1164 1.356 . S
C1162 H1216 0.930 . S
C1163 N1161 1.279 . S
C1163 C1162 1.358 . S
C1163 H1167 0.930 . S
C1164 C1162 1.356 . S
C1164 C1165 1.348 . S
C1165 C1160 1.353 . S
C1165 C1164 1.348 . S
C1165 H1217 0.929 . S
H1166 C1160 0.930 . S
H1167 C1163 0.930 . S
C1168 N1169 1.314 . S
C1168 C1170 1.353 . S
C1168 H1174 0.930 . S
N1169 Li1145 1.990 . S
N1169 C1168 1.314 . S
N1169 C1172 1.279 . S
C1170 C1168 1.353 . S
C1170 C1173 1.348 . S
C1170 H1218 0.929 . S
C1171 C1172 1.358 . S
C1171 C1173 1.356 . S
C1171 H1219 0.930 . S
C1172 N1169 1.279 . S
C1172 C1171 1.358 . S
C1172 H1175 0.930 . S
C1173 C1170 1.348 . S
C1173 C1171 1.356 . S
H1174 C1168 0.930 . S
H1175 C1172 0.930 . S
C1176 C1178 1.348 . S
C1176 C1179 1.356 . S
C1176 O1206 1.325 . S
N1177 C1180 1.314 . S
N1177 C1181 1.279 . S
C1178 C1176 1.348 . S
C1178 C1180 1.353 . S
C1178 H1220 0.929 . S
C1179 C1176 1.356 . S
C1179 C1181 1.358 . S
C1179 H1221 0.930 . S
C1180 N1177 1.314 . S
C1180 C1178 1.353 . S
C1180 H1222 0.930 . S
C1181 N1177 1.279 . S
C1181 C1179 1.358 . S
C1181 H1223 0.930 . S
C1182 C1183 1.348 1_554 S
C1182 C1184 1.356 . S
C1182 O1207 1.325 . S
C1183 C1182 1.348 1_556 S
C1183 C1185 1.353 . S
C1183 H1224 0.929 . S
C1184 C1182 1.356 . S
C1184 C1186 1.358 1_554 S
C1184 H1225 0.930 . S
C1185 C1183 1.353 . S
C1185 N1187 1.314 . S
C1185 H1226 0.930 . S
C1186 C1184 1.358 1_556 S
C1186 N1187 1.279 . S
C1186 H1227 0.930 . S
N1187 C1185 1.314 . S
N1187 C1186 1.279 . S
C1188 C1190 1.353 . S
C1188 N1191 1.314 1_556 S
C1188 H1194 0.930 1_556 S
C1189 N1191 1.279 . S
C1189 C1192 1.358 1_554 S
C1189 H1195 0.930 . S
C1190 C1188 1.353 . S
C1190 C1193 1.348 . S
C1190 H1228 0.929 . S
N1191 Li1146 1.990 . S
N1191 C1188 1.314 1_554 S
N1191 C1189 1.279 . S
C1192 C1189 1.358 1_556 S
C1192 C1193 1.356 . S
C1192 H1229 0.930 . S
C1193 C1190 1.348 . S
C1193 C1192 1.356 . S
H1194 C1188 0.930 1_554 S
H1195 C1189 0.930 . S
C1196 N1197 1.314 . S
C1196 C1198 1.353 . S
C1196 H1202 0.930 . S
N1197 Li1147 1.990 . S
N1197 C1196 1.314 . S
N1197 C1200 1.279 . S
C1198 C1196 1.353 . S
C1198 C1201 1.348 . S
C1198 H1230 0.929 . S
C1199 C1200 1.358 . S
C1199 C1201 1.356 . S
C1199 H1231 0.930 . S
C1200 N1197 1.279 . S
C1200 C1199 1.358 . S
C1200 H1203 0.930 . S
C1201 C1198 1.348 . S
C1201 C1199 1.356 . S
H1202 C1196 0.930 . S
H1203 C1200 0.930 . S
O1204 Li1144 1.956 . S
O1204 Li1145 1.970 . S
O1204 Li1146 1.961 . S
O1204 C1148 1.325 . S
O1205 Li1144 1.970 . S
O1205 Li1145 1.956 . S
O1205 Li1147 1.961 . S
O1205 C1154 1.325 . S
O1206 Li1144 1.961 . S
O1206 Li1146 1.956 . S
O1206 Li1147 1.970 . S
O1206 C1176 1.325 . S
O1207 Li1145 1.961 . S
O1207 Li1146 1.970 . S
O1207 Li1147 1.956 . S
O1207 C1182 1.325 . S
H1208 C1150 0.929 . S
H1209 C1151 0.930 . S
H1210 C1152 0.930 . S
H1211 C1153 0.930 . S
H1212 C1155 0.930 . S
H1213 C1157 0.929 . S
H1214 C1158 0.930 . S
H1215 C1159 0.930 . S
H1216 C1162 0.930 . S
H1217 C1165 0.929 . S
H1218 C1170 0.929 . S
H1219 C1171 0.930 . S
H1220 C1178 0.929 . S
H1221 C1179 0.930 . S
H1222 C1180 0.930 . S
H1223 C1181 0.930 . S
H1224 C1183 0.929 . S
H1225 C1184 0.930 . S
H1226 C1185 0.930 . S
H1227 C1186 0.930 . S
H1228 C1190 0.929 . S
H1229 C1192 0.930 . S
H1230 C1198 0.929 . S
H1231 C1199 0.930 . S
Li1232 N1249 1.990 . S
Li1232 O1292 1.956 . S
Li1232 O1293 1.970 . S
Li1232 O1294 1.961 . S
Li1233 N1257 1.990 . S
Li1233 O1292 1.970 . S
Li1233 O1293 1.956 . S
Li1233 O1295 1.961 . S
Li1234 N1279 1.990 . S
Li1234 O1292 1.961 . S
Li1234 O1294 1.956 . S
Li1234 O1295 1.970 . S
Li1235 N1285 1.990 . S
Li1235 O1293 1.961 . S
Li1235 O1294 1.970 . S
Li1235 O1295 1.956 . S
C1236 C1238 1.348 . S
C1236 C1239 1.356 . S
C1236 O1292 1.325 . S
N1237 C1240 1.314 . S
N1237 C1241 1.279 . S
C1238 C1236 1.348 . S
C1238 C1240 1.353 . S
C1238 H1296 0.929 . S
C1239 C1236 1.356 . S
C1239 C1241 1.358 . S
C1239 H1297 0.930 . S
C1240 N1237 1.314 . S
C1240 C1238 1.353 . S
C1240 H1298 0.930 . S
C1241 N1237 1.279 . S
C1241 C1239 1.358 . S
C1241 H1299 0.930 . S
C1242 C1245 1.348 . S
C1242 C1246 1.356 . S
C1242 O1293 1.325 . S
C1243 N1244 1.279 . S
C1243 C1246 1.358 . S
C1243 H1300 0.930 . S
N1244 C1243 1.279 . S
N1244 C1247 1.314 . S
C1245 C1242 1.348 . S
C1245 C1247 1.353 . S
C1245 H1301 0.929 . S
C1246 C1242 1.356 . S
C1246 C1243 1.358 . S
C1246 H1302 0.930 . S
C1247 N1244 1.314 . S
C1247 C1245 1.353 . S
C1247 H1303 0.930 . S
C1248 N1249 1.314 . S
C1248 C1253 1.353 . S
C1248 H1254 0.930 . S
N1249 Li1232 1.990 . S
N1249 C1248 1.314 . S
N1249 C1251 1.279 . S
C1250 C1251 1.358 . S
C1250 C1252 1.356 . S
C1250 H1304 0.930 . S
C1251 N1249 1.279 . S
C1251 C1250 1.358 . S
C1251 H1255 0.930 . S
C1252 C1250 1.356 . S
C1252 C1253 1.348 . S
C1253 C1248 1.353 . S
C1253 C1252 1.348 . S
C1253 H1305 0.929 . S
H1254 C1248 0.930 . S
H1255 C1251 0.930 . S
C1256 N1257 1.314 . S
C1256 C1258 1.353 . S
C1256 H1262 0.930 . S
N1257 Li1233 1.990 . S
N1257 C1256 1.314 . S
N1257 C1260 1.279 . S
C1258 C1256 1.353 . S
C1258 C1261 1.348 . S
C1258 H1306 0.929 . S
C1259 C1260 1.358 . S
C1259 C1261 1.356 . S
C1259 H1307 0.930 . S
C1260 N1257 1.279 . S
C1260 C1259 1.358 . S
C1260 H1263 0.930 . S
C1261 C1258 1.348 . S
C1261 C1259 1.356 . S
H1262 C1256 0.930 . S
H1263 C1260 0.930 . S
C1264 C1266 1.348 . S
C1264 C1267 1.356 . S
C1264 O1294 1.325 . S
N1265 C1268 1.314 . S
N1265 C1269 1.279 . S
C1266 C1264 1.348 . S
C1266 C1268 1.353 . S
C1266 H1308 0.929 . S
C1267 C1264 1.356 . S
C1267 C1269 1.358 . S
C1267 H1309 0.930 . S
C1268 N1265 1.314 . S
C1268 C1266 1.353 . S
C1268 H1310 0.930 . S
C1269 N1265 1.279 . S
C1269 C1267 1.358 . S
C1269 H1311 0.930 . S
C1270 C1271 1.348 . S
C1270 C1272 1.356 . S
C1270 O1295 1.325 . S
C1271 C1270 1.348 . S
C1271 C1273 1.353 . S
C1271 H1312 0.929 . S
C1272 C1270 1.356 . S
C1272 C1274 1.358 . S
C1272 H1313 0.930 . S
C1273 C1271 1.353 . S
C1273 N1275 1.314 . S
C1273 H1314 0.930 . S
C1274 C1272 1.358 . S
C1274 N1275 1.279 . S
C1274 H1315 0.930 . S
N1275 C1273 1.314 . S
N1275 C1274 1.279 . S
C1276 C1278 1.353 . S
C1276 N1279 1.314 . S
C1276 H1282 0.930 . S
C1277 N1279 1.279 . S
C1277 C1280 1.358 . S
C1277 H1283 0.930 . S
C1278 C1276 1.353 . S
C1278 C1281 1.348 . S
C1278 H1316 0.929 . S
N1279 Li1234 1.990 . S
N1279 C1276 1.314 . S
N1279 C1277 1.279 . S
C1280 C1277 1.358 . S
C1280 C1281 1.356 . S
C1280 H1317 0.930 . S
C1281 C1278 1.348 . S
C1281 C1280 1.356 . S
H1282 C1276 0.930 . S
H1283 C1277 0.930 . S
C1284 N1285 1.314 . S
C1284 C1286 1.353 . S
C1284 H1290 0.930 . S
N1285 Li1235 1.990 . S
N1285 C1284 1.314 . S
N1285 C1288 1.279 . S
C1286 C1284 1.353 . S
C1286 C1289 1.348 . S
C1286 H1318 0.929 . S
C1287 C1288 1.358 . S
C1287 C1289 1.356 . S
C1287 H1319 0.930 . S
C1288 N1285 1.279 . S
C1288 C1287 1.358 . S
C1288 H1291 0.930 . S
C1289 C1286 1.348 . S
C1289 C1287 1.356 . S
H1290 C1284 0.930 . S
H1291 C1288 0.930 . S
O1292 Li1232 1.956 . S
O1292 Li1233 1.970 . S
O1292 Li1234 1.961 . S
O1292 C1236 1.325 . S
O1293 Li1232 1.970 . S
O1293 Li1233 1.956 . S
O1293 Li1235 1.961 . S
O1293 C1242 1.325 . S
O1294 Li1232 1.961 . S
O1294 Li1234 1.956 . S
O1294 Li1235 1.970 . S
O1294 C1264 1.325 . S
O1295 Li1233 1.961 . S
O1295 Li1234 1.970 . S
O1295 Li1235 1.956 . S
O1295 C1270 1.325 . S
H1296 C1238 0.929 . S
H1297 C1239 0.930 . S
H1298 C1240 0.930 . S
H1299 C1241 0.930 . S
H1300 C1243 0.930 . S
H1301 C1245 0.929 . S
H1302 C1246 0.930 . S
H1303 C1247 0.930 . S
H1304 C1250 0.930 . S
H1305 C1253 0.929 . S
H1306 C1258 0.929 . S
H1307 C1259 0.930 . S
H1308 C1266 0.929 . S
H1309 C1267 0.930 . S
H1310 C1268 0.930 . S
H1311 C1269 0.930 . S
H1312 C1271 0.929 . S
H1313 C1272 0.930 . S
H1314 C1273 0.930 . S
H1315 C1274 0.930 . S
H1316 C1278 0.929 . S
H1317 C1280 0.930 . S
H1318 C1286 0.929 . S
H1319 C1287 0.930 . S
Li1320 N1337 1.990 . S
Li1320 O1380 1.956 . S
Li1320 O1381 1.970 . S
Li1320 O1382 1.961 . S
Li1321 N1345 1.990 . S
Li1321 O1380 1.970 . S
Li1321 O1381 1.956 . S
Li1321 O1383 1.961 . S
Li1322 N1367 1.990 . S
Li1322 O1380 1.961 . S
Li1322 O1382 1.956 . S
Li1322 O1383 1.970 . S
Li1323 N1373 1.990 . S
Li1323 O1381 1.961 . S
Li1323 O1382 1.970 . S
Li1323 O1383 1.956 . S
C1324 C1326 1.348 . S
C1324 C1327 1.356 . S
C1324 O1380 1.325 . S
N1325 C1328 1.314 . S
N1325 C1329 1.279 . S
C1326 C1324 1.348 . S
C1326 C1328 1.353 . S
C1326 H1384 0.929 . S
C1327 C1324 1.356 . S
C1327 C1329 1.358 . S
C1327 H1385 0.930 . S
C1328 N1325 1.314 . S
C1328 C1326 1.353 . S
C1328 H1386 0.930 . S
C1329 N1325 1.279 . S
C1329 C1327 1.358 . S
C1329 H1387 0.930 . S
C1330 C1333 1.348 . S
C1330 C1334 1.356 . S
C1330 O1381 1.325 . S
C1331 N1332 1.279 . S
C1331 C1334 1.358 . S
C1331 H1388 0.930 . S
N1332 C1331 1.279 . S
N1332 C1335 1.314 . S
C1333 C1330 1.348 . S
C1333 C1335 1.353 . S
C1333 H1389 0.929 . S
C1334 C1330 1.356 . S
C1334 C1331 1.358 . S
C1334 H1390 0.930 . S
C1335 N1332 1.314 . S
C1335 C1333 1.353 . S
C1335 H1391 0.930 . S
C1336 N1337 1.314 . S
C1336 C1341 1.353 . S
C1336 H1342 0.930 . S
N1337 Li1320 1.990 . S
N1337 C1336 1.314 . S
N1337 C1339 1.279 . S
C1338 C1339 1.358 . S
C1338 C1340 1.356 . S
C1338 H1392 0.930 . S
C1339 N1337 1.279 . S
C1339 C1338 1.358 . S
C1339 H1343 0.930 . S
C1340 C1338 1.356 . S
C1340 C1341 1.348 . S
C1341 C1336 1.353 . S
C1341 C1340 1.348 . S
C1341 H1393 0.929 . S
H1342 C1336 0.930 . S
H1343 C1339 0.930 . S
C1344 N1345 1.314 . S
C1344 C1346 1.353 . S
C1344 H1350 0.930 . S
N1345 Li1321 1.990 . S
N1345 C1344 1.314 . S
N1345 C1348 1.279 . S
C1346 C1344 1.353 . S
C1346 C1349 1.348 . S
C1346 H1394 0.929 . S
C1347 C1348 1.358 . S
C1347 C1349 1.356 . S
C1347 H1395 0.930 . S
C1348 N1345 1.279 . S
C1348 C1347 1.358 . S
C1348 H1351 0.930 . S
C1349 C1346 1.348 . S
C1349 C1347 1.356 . S
H1350 C1344 0.930 . S
H1351 C1348 0.930 . S
C1352 C1354 1.348 . S
C1352 C1355 1.356 . S
C1352 O1382 1.325 . S
N1353 C1356 1.314 . S
N1353 C1357 1.279 . S
C1354 C1352 1.348 . S
C1354 C1356 1.353 . S
C1354 H1396 0.929 . S
C1355 C1352 1.356 . S
C1355 C1357 1.358 . S
C1355 H1397 0.930 . S
C1356 N1353 1.314 . S
C1356 C1354 1.353 . S
C1356 H1398 0.930 . S
C1357 N1353 1.279 . S
C1357 C1355 1.358 . S
C1357 H1399 0.930 . S
C1358 C1359 1.348 . S
C1358 C1360 1.356 . S
C1358 O1383 1.325 . S
C1359 C1358 1.348 . S
C1359 C1361 1.353 . S
C1359 H1400 0.929 . S
C1360 C1358 1.356 . S
C1360 C1362 1.358 . S
C1360 H1401 0.930 . S
C1361 C1359 1.353 . S
C1361 N1363 1.314 . S
C1361 H1402 0.930 . S
C1362 C1360 1.358 . S
C1362 N1363 1.279 . S
C1362 H1403 0.930 . S
N1363 C1361 1.314 . S
N1363 C1362 1.279 . S
C1364 C1366 1.353 . S
C1364 N1367 1.314 . S
C1364 H1370 0.930 . S
C1365 N1367 1.279 . S
C1365 C1368 1.358 . S
C1365 H1371 0.930 . S
C1366 C1364 1.353 . S
C1366 C1369 1.348 . S
C1366 H1404 0.929 . S
N1367 Li1322 1.990 . S
N1367 C1364 1.314 . S
N1367 C1365 1.279 . S
C1368 C1365 1.358 . S
C1368 C1369 1.356 . S
C1368 H1405 0.930 . S
C1369 C1366 1.348 . S
C1369 C1368 1.356 . S
H1370 C1364 0.930 . S
H1371 C1365 0.930 . S
C1372 N1373 1.314 . S
C1372 C1374 1.353 . S
C1372 H1378 0.930 . S
N1373 Li1323 1.990 . S
N1373 C1372 1.314 . S
N1373 C1376 1.279 . S
C1374 C1372 1.353 . S
C1374 C1377 1.348 . S
C1374 H1406 0.929 . S
C1375 C1376 1.358 . S
C1375 C1377 1.356 . S
C1375 H1407 0.930 . S
C1376 N1373 1.279 . S
C1376 C1375 1.358 . S
C1376 H1379 0.930 . S
C1377 C1374 1.348 . S
C1377 C1375 1.356 . S
H1378 C1372 0.930 . S
H1379 C1376 0.930 . S
O1380 Li1320 1.956 . S
O1380 Li1321 1.970 . S
O1380 Li1322 1.961 . S
O1380 C1324 1.325 . S
O1381 Li1320 1.970 . S
O1381 Li1321 1.956 . S
O1381 Li1323 1.961 . S
O1381 C1330 1.325 . S
O1382 Li1320 1.961 . S
O1382 Li1322 1.956 . S
O1382 Li1323 1.970 . S
O1382 C1352 1.325 . S
O1383 Li1321 1.961 . S
O1383 Li1322 1.970 . S
O1383 Li1323 1.956 . S
O1383 C1358 1.325 . S
H1384 C1326 0.929 . S
H1385 C1327 0.930 . S
H1386 C1328 0.930 . S
H1387 C1329 0.930 . S
H1388 C1331 0.930 . S
H1389 C1333 0.929 . S
H1390 C1334 0.930 . S
H1391 C1335 0.930 . S
H1392 C1338 0.930 . S
H1393 C1341 0.929 . S
H1394 C1346 0.929 . S
H1395 C1347 0.930 . S
H1396 C1354 0.929 . S
H1397 C1355 0.930 . S
H1398 C1356 0.930 . S
H1399 C1357 0.930 . S
H1400 C1359 0.929 . S
H1401 C1360 0.930 . S
H1402 C1361 0.930 . S
H1403 C1362 0.930 . S
H1404 C1366 0.929 . S
H1405 C1368 0.930 . S
H1406 C1374 0.929 . S
H1407 C1375 0.930 . S
Li1408 N1425 1.990 . S
Li1408 O1468 1.956 1_545 S
Li1408 O1469 1.970 . S
Li1408 O1470 1.961 . S
Li1409 N1433 1.990 . S
Li1409 O1468 1.970 . S
Li1409 O1469 1.956 1_565 S
Li1409 O1471 1.961 1_565 S
Li1410 N1455 1.990 . S
Li1410 O1468 1.961 1_545 S
Li1410 O1470 1.956 . S
Li1410 O1471 1.970 . S
Li1411 N1461 1.990 . S
Li1411 O1469 1.961 . S
Li1411 O1470 1.970 . S
Li1411 O1471 1.956 . S
C1412 C1414 1.348 . S
C1412 C1415 1.356 . S
C1412 O1468 1.325 . S
N1413 C1416 1.314 . S
N1413 C1417 1.279 . S
C1414 C1412 1.348 . S
C1414 C1416 1.353 . S
C1414 H1472 0.929 . S
C1415 C1412 1.356 . S
C1415 C1417 1.358 . S
C1415 H1473 0.930 . S
C1416 N1413 1.314 . S
C1416 C1414 1.353 . S
C1416 H1474 0.930 . S
C1417 N1413 1.279 . S
C1417 C1415 1.358 . S
C1417 H1475 0.930 1_655 S
C1418 C1421 1.348 . S
C1418 C1422 1.356 . S
C1418 O1469 1.325 . S
C1419 N1420 1.279 . S
C1419 C1422 1.358 . S
C1419 H1476 0.930 . S
N1420 C1419 1.279 . S
N1420 C1423 1.314 . S
C1421 C1418 1.348 . S
C1421 C1423 1.353 . S
C1421 H1477 0.929 . S
C1422 C1418 1.356 . S
C1422 C1419 1.358 . S
C1422 H1478 0.930 . S
C1423 N1420 1.314 . S
C1423 C1421 1.353 . S
C1423 H1479 0.930 . S
C1424 N1425 1.314 . S
C1424 C1429 1.353 . S
C1424 H1430 0.930 . S
N1425 Li1408 1.990 . S
N1425 C1424 1.314 . S
N1425 C1427 1.279 . S
C1426 C1427 1.358 . S
C1426 C1428 1.356 . S
C1426 H1480 0.930 1_545 S
C1427 N1425 1.279 . S
C1427 C1426 1.358 . S
C1427 H1431 0.930 1_545 S
C1428 C1426 1.356 . S
C1428 C1429 1.348 . S
C1429 C1424 1.353 . S
C1429 C1428 1.348 . S
C1429 H1481 0.929 . S
H1430 C1424 0.930 . S
H1431 C1427 0.930 1_565 S
C1432 N1433 1.314 . S
C1432 C1434 1.353 . S
C1432 H1438 0.930 . S
N1433 Li1409 1.990 . S
N1433 C1432 1.314 . S
N1433 C1436 1.279 . S
C1434 C1432 1.353 . S
C1434 C1437 1.348 . S
C1434 H1482 0.929 . S
C1435 C1436 1.358 . S
C1435 C1437 1.356 . S
C1435 H1483 0.930 . S
C1436 N1433 1.279 . S
C1436 C1435 1.358 . S
C1436 H1439 0.930 . S
C1437 C1434 1.348 . S
C1437 C1435 1.356 . S
H1438 C1432 0.930 . S
H1439 C1436 0.930 . S
C1440 C1442 1.348 . S
C1440 C1443 1.356 . S
C1440 O1470 1.325 . S
N1441 C1444 1.314 . S
N1441 C1445 1.292 . S
C1442 C1440 1.348 . S
C1442 C1444 1.353 . S
C1442 H1484 0.929 . S
C1443 C1440 1.356 . S
C1443 C1445 1.373 . S
C1443 H1485 0.930 . S
C1444 N1441 1.314 . S
C1444 C1442 1.353 . S
C1444 H1486 0.930 . S
C1445 N1441 1.292 . S
C1445 C1443 1.373 . S
C1445 H1487 0.901 1_655 S
C1446 C1447 1.348 . S
C1446 C1448 1.356 1_545 S
C1446 O1471 1.325 . S
C1447 C1446 1.348 . S
C1447 C1449 1.353 . S
C1447 H1488 0.929 . S
C1448 C1446 1.356 1_565 S
C1448 C1450 1.358 . S
C1448 H1489 0.930 . S
C1449 C1447 1.353 . S
C1449 N1451 1.314 . S
C1449 H1490 0.930 . S
C1450 C1448 1.358 . S
C1450 N1451 1.279 1_565 S
C1450 H1491 0.930 . S
N1451 C1449 1.314 . S
N1451 C1450 1.279 1_545 S
C1452 C1454 1.353 . S
C1452 N1455 1.314 1_565 S
C1452 H1458 0.930 . S
C1453 N1455 1.279 . S
C1453 C1456 1.358 . S
C1453 H1459 0.930 . S
C1454 C1452 1.353 . S
C1454 C1457 1.348 1_565 S
C1454 H1492 0.929 . S
N1455 Li1410 1.990 . S
N1455 C1452 1.314 1_545 S
N1455 C1453 1.279 . S
C1456 C1453 1.358 . S
C1456 C1457 1.356 . S
C1456 H1493 0.930 . S
C1457 C1454 1.348 1_545 S
C1457 C1456 1.356 . S
H1458 C1452 0.930 . S
H1459 C1453 0.930 . S
C1460 N1461 1.314 . S
C1460 C1462 1.353 . S
C1460 H1466 0.930 . S
N1461 Li1411 1.990 . S
N1461 C1460 1.314 . S
N1461 C1464 1.279 . S
C1462 C1460 1.353 . S
C1462 C1465 1.348 . S
C1462 H1494 0.929 . S
C1463 C1464 1.358 . S
C1463 C1465 1.356 . S
C1463 H1495 0.930 . S
C1464 N1461 1.279 . S
C1464 C1463 1.358 . S
C1464 H1467 0.930 . S
C1465 C1462 1.348 . S
C1465 C1463 1.356 . S
H1466 C1460 0.930 . S
H1467 C1464 0.930 . S
O1468 Li1408 1.956 1_565 S
O1468 Li1409 1.970 . S
O1468 Li1410 1.961 1_565 S
O1468 C1412 1.325 . S
O1469 Li1408 1.970 . S
O1469 Li1409 1.956 1_545 S
O1469 Li1411 1.961 . S
O1469 C1418 1.325 . S
O1470 Li1408 1.961 . S
O1470 Li1410 1.956 . S
O1470 Li1411 1.970 . S
O1470 C1440 1.325 . S
O1471 Li1409 1.961 1_545 S
O1471 Li1410 1.970 . S
O1471 Li1411 1.956 . S
O1471 C1446 1.325 . S
H1472 C1414 0.929 . S
H1473 C1415 0.930 . S
H1474 C1416 0.930 . S
H1475 C1417 0.930 1_455 S
H1476 C1419 0.930 . S
H1477 C1421 0.929 . S
H1478 C1422 0.930 . S
H1479 C1423 0.930 . S
H1480 C1426 0.930 1_565 S
H1481 C1429 0.929 . S
H1482 C1434 0.929 . S
H1483 C1435 0.930 . S
H1484 C1442 0.929 . S
H1485 C1443 0.930 . S
H1486 C1444 0.930 . S
H1487 C1445 0.901 1_455 S
H1488 C1447 0.929 . S
H1489 C1448 0.930 . S
H1490 C1449 0.930 . S
H1491 C1450 0.930 . S
H1492 C1454 0.929 . S
H1493 C1456 0.930 . S
H1494 C1462 0.929 . S
H1495 C1463 0.930 . S
Li1496 N1513 1.990 . S
Li1496 O1556 1.956 . S
Li1496 O1557 1.970 . S
Li1496 O1558 1.961 . S
Li1497 N1521 1.990 . S
Li1497 O1556 1.970 . S
Li1497 O1557 1.956 . S
Li1497 O1559 1.961 . S
Li1498 N1543 1.990 . S
Li1498 O1556 1.961 . S
Li1498 O1558 1.956 . S
Li1498 O1559 1.970 . S
Li1499 N1549 1.990 . S
Li1499 O1557 1.961 . S
Li1499 O1558 1.970 . S
Li1499 O1559 1.956 . S
C1500 C1502 1.348 . S
C1500 C1503 1.356 . S
C1500 O1556 1.325 . S
N1501 C1504 1.314 . S
N1501 C1505 1.279 . S
C1502 C1500 1.348 . S
C1502 C1504 1.353 . S
C1502 H1560 0.929 . S
C1503 C1500 1.356 . S
C1503 C1505 1.358 . S
C1503 H1561 0.930 . S
C1504 N1501 1.314 . S
C1504 C1502 1.353 . S
C1504 H1562 0.930 . S
C1505 N1501 1.279 . S
C1505 C1503 1.358 . S
C1505 H1563 0.930 . S
C1506 C1509 1.348 . S
C1506 C1510 1.356 . S
C1506 O1557 1.325 . S
C1507 N1508 1.279 . S
C1507 C1510 1.358 . S
C1507 H1564 0.930 . S
N1508 C1507 1.279 . S
N1508 C1511 1.314 . S
C1509 C1506 1.348 . S
C1509 C1511 1.353 . S
C1509 H1565 0.929 . S
C1510 C1506 1.356 . S
C1510 C1507 1.358 . S
C1510 H1566 0.930 . S
C1511 N1508 1.314 . S
C1511 C1509 1.353 . S
C1511 H1567 0.930 . S
C1512 N1513 1.314 . S
C1512 C1517 1.353 . S
C1512 H1518 0.930 . S
N1513 Li1496 1.990 . S
N1513 C1512 1.314 . S
N1513 C1515 1.279 . S
C1514 C1515 1.358 . S
C1514 C1516 1.356 . S
C1514 H1568 0.930 . S
C1515 N1513 1.279 . S
C1515 C1514 1.358 . S
C1515 H1519 0.930 . S
C1516 C1514 1.356 . S
C1516 C1517 1.348 . S
C1517 C1512 1.353 . S
C1517 C1516 1.348 . S
C1517 H1569 0.929 . S
H1518 C1512 0.930 . S
H1519 C1515 0.930 . S
C1520 N1521 1.314 . S
C1520 C1522 1.353 . S
C1520 H1526 0.930 . S
N1521 Li1497 1.990 . S
N1521 C1520 1.314 . S
N1521 C1524 1.279 . S
C1522 C1520 1.353 . S
C1522 C1525 1.348 . S
C1522 H1570 0.929 . S
C1523 C1524 1.358 . S
C1523 C1525 1.356 . S
C1523 H1571 0.930 . S
C1524 N1521 1.279 . S
C1524 C1523 1.358 . S
C1524 H1527 0.930 . S
C1525 C1522 1.348 . S
C1525 C1523 1.356 . S
H1526 C1520 0.930 . S
H1527 C1524 0.930 . S
C1528 C1530 1.348 . S
C1528 C1531 1.356 . S
C1528 O1558 1.325 . S
N1529 C1532 1.314 . S
N1529 C1533 1.279 . S
C1530 C1528 1.348 . S
C1530 C1532 1.353 . S
C1530 H1572 0.929 . S
C1531 C1528 1.356 . S
C1531 C1533 1.358 . S
C1531 H1573 0.930 . S
C1532 N1529 1.314 . S
C1532 C1530 1.353 . S
C1532 H1574 0.930 . S
C1533 N1529 1.279 . S
C1533 C1531 1.358 . S
C1533 H1575 0.930 . S
C1534 C1535 1.348 . S
C1534 C1536 1.356 . S
C1534 O1559 1.325 . S
C1535 C1534 1.348 . S
C1535 C1537 1.353 . S
C1535 H1576 0.929 . S
C1536 C1534 1.356 . S
C1536 C1538 1.358 . S
C1536 H1577 0.930 . S
C1537 C1535 1.353 . S
C1537 N1539 1.314 . S
C1537 H1578 0.930 . S
C1538 C1536 1.358 . S
C1538 N1539 1.279 . S
C1538 H1579 0.930 . S
N1539 C1537 1.314 . S
N1539 C1538 1.279 . S
C1540 C1542 1.353 . S
C1540 N1543 1.314 . S
C1540 H1546 0.930 . S
C1541 N1543 1.279 . S
C1541 C1544 1.358 . S
C1541 H1547 0.930 . S
C1542 C1540 1.353 . S
C1542 C1545 1.348 . S
C1542 H1580 0.929 . S
N1543 Li1498 1.990 . S
N1543 C1540 1.314 . S
N1543 C1541 1.279 . S
C1544 C1541 1.358 . S
C1544 C1545 1.356 . S
C1544 H1581 0.930 . S
C1545 C1542 1.348 . S
C1545 C1544 1.356 . S
H1546 C1540 0.930 . S
H1547 C1541 0.930 . S
C1548 N1549 1.314 . S
C1548 C1550 1.353 . S
C1548 H1554 0.930 . S
N1549 Li1499 1.990 . S
N1549 C1548 1.314 . S
N1549 C1552 1.279 . S
C1550 C1548 1.353 . S
C1550 C1553 1.348 . S
C1550 H1582 0.929 . S
C1551 C1552 1.358 . S
C1551 C1553 1.356 . S
C1551 H1583 0.930 . S
C1552 N1549 1.279 . S
C1552 C1551 1.358 . S
C1552 H1555 0.930 . S
C1553 C1550 1.348 . S
C1553 C1551 1.356 . S
H1554 C1548 0.930 . S
H1555 C1552 0.930 . S
O1556 Li1496 1.956 . S
O1556 Li1497 1.970 . S
O1556 Li1498 1.961 . S
O1556 C1500 1.325 . S
O1557 Li1496 1.970 . S
O1557 Li1497 1.956 . S
O1557 Li1499 1.961 . S
O1557 C1506 1.325 . S
O1558 Li1496 1.961 . S
O1558 Li1498 1.956 . S
O1558 Li1499 1.970 . S
O1558 C1528 1.325 . S
O1559 Li1497 1.961 . S
O1559 Li1498 1.970 . S
O1559 Li1499 1.956 . S
O1559 C1534 1.325 . S
H1560 C1502 0.929 . S
H1561 C1503 0.930 . S
H1562 C1504 0.930 . S
H1563 C1505 0.930 . S
H1564 C1507 0.930 . S
H1565 C1509 0.929 . S
H1566 C1510 0.930 . S
H1567 C1511 0.930 . S
H1568 C1514 0.930 . S
H1569 C1517 0.929 . S
H1570 C1522 0.929 . S
H1571 C1523 0.930 . S
H1572 C1530 0.929 . S
H1573 C1531 0.930 . S
H1574 C1532 0.930 . S
H1575 C1533 0.930 . S
H1576 C1535 0.929 . S
H1577 C1536 0.930 . S
H1578 C1537 0.930 . S
H1579 C1538 0.930 . S
H1580 C1542 0.929 . S
H1581 C1544 0.930 . S
H1582 C1550 0.929 . S
H1583 C1551 0.930 . S
Li1584 N1601 1.990 . S
Li1584 O1644 1.956 . S
Li1584 O1645 1.970 . S
Li1584 O1646 1.961 . S
Li1585 N1609 1.990 . S
Li1585 O1644 1.970 . S
Li1585 O1645 1.956 . S
Li1585 O1647 1.961 . S
Li1586 N1631 1.990 . S
Li1586 O1644 1.961 . S
Li1586 O1646 1.956 . S
Li1586 O1647 1.970 . S
Li1587 N1637 1.990 . S
Li1587 O1645 1.961 . S
Li1587 O1646 1.970 . S
Li1587 O1647 1.956 . S
C1588 C1590 1.348 . S
C1588 C1591 1.356 . S
C1588 O1644 1.325 . S
N1589 C1592 1.314 . S
N1589 C1593 1.279 . S
C1590 C1588 1.348 . S
C1590 C1592 1.353 . S
C1590 H1648 0.929 . S
C1591 C1588 1.356 . S
C1591 C1593 1.358 . S
C1591 H1649 0.930 . S
C1592 N1589 1.314 . S
C1592 C1590 1.353 . S
C1592 H1650 0.930 . S
C1593 N1589 1.279 . S
C1593 C1591 1.358 . S
C1593 H1651 0.930 . S
C1594 C1597 1.348 . S
C1594 C1598 1.356 . S
C1594 O1645 1.325 . S
C1595 N1596 1.279 . S
C1595 C1598 1.358 . S
C1595 H1652 0.930 . S
N1596 C1595 1.279 . S
N1596 C1599 1.314 . S
C1597 C1594 1.348 . S
C1597 C1599 1.353 . S
C1597 H1653 0.929 . S
C1598 C1594 1.356 . S
C1598 C1595 1.358 . S
C1598 H1654 0.930 . S
C1599 N1596 1.314 . S
C1599 C1597 1.353 . S
C1599 H1655 0.930 . S
C1600 N1601 1.314 . S
C1600 C1605 1.353 . S
C1600 H1606 0.930 . S
N1601 Li1584 1.990 . S
N1601 C1600 1.314 . S
N1601 C1603 1.279 . S
C1602 C1603 1.358 . S
C1602 C1604 1.356 . S
C1602 H1656 0.930 . S
C1603 N1601 1.279 . S
C1603 C1602 1.358 . S
C1603 H1607 0.930 . S
C1604 C1602 1.356 . S
C1604 C1605 1.348 . S
C1605 C1600 1.353 . S
C1605 C1604 1.348 . S
C1605 H1657 0.929 . S
H1606 C1600 0.930 . S
H1607 C1603 0.930 . S
C1608 N1609 1.314 . S
C1608 C1610 1.353 . S
C1608 H1614 0.930 . S
N1609 Li1585 1.990 . S
N1609 C1608 1.314 . S
N1609 C1612 1.279 . S
C1610 C1608 1.353 . S
C1610 C1613 1.348 . S
C1610 H1658 0.929 . S
C1611 C1612 1.358 . S
C1611 C1613 1.356 . S
C1611 H1659 0.930 . S
C1612 N1609 1.279 . S
C1612 C1611 1.358 . S
C1612 H1615 0.930 . S
C1613 C1610 1.348 . S
C1613 C1611 1.356 . S
H1614 C1608 0.930 . S
H1615 C1612 0.930 . S
C1616 C1618 1.348 . S
C1616 C1619 1.356 . S
C1616 O1646 1.325 . S
N1617 C1620 1.314 . S
N1617 C1621 1.279 . S
C1618 C1616 1.348 . S
C1618 C1620 1.353 . S
C1618 H1660 0.929 . S
C1619 C1616 1.356 . S
C1619 C1621 1.358 . S
C1619 H1661 0.930 . S
C1620 N1617 1.314 . S
C1620 C1618 1.353 . S
C1620 H1662 0.930 . S
C1621 N1617 1.279 . S
C1621 C1619 1.358 . S
C1621 H1663 0.930 . S
C1622 C1623 1.348 . S
C1622 C1624 1.356 . S
C1622 O1647 1.325 . S
C1623 C1622 1.348 . S
C1623 C1625 1.353 . S
C1623 H1664 0.929 . S
C1624 C1622 1.356 . S
C1624 C1626 1.358 . S
C1624 H1665 0.930 . S
C1625 C1623 1.353 . S
C1625 N1627 1.314 . S
C1625 H1666 0.930 . S
C1626 C1624 1.358 . S
C1626 N1627 1.279 . S
C1626 H1667 0.930 . S
N1627 C1625 1.314 . S
N1627 C1626 1.279 . S
C1628 C1630 1.353 . S
C1628 N1631 1.314 . S
C1628 H1634 0.930 . S
C1629 N1631 1.279 . S
C1629 C1632 1.358 . S
C1629 H1635 0.930 . S
C1630 C1628 1.353 . S
C1630 C1633 1.348 . S
C1630 H1668 0.929 . S
N1631 Li1586 1.990 . S
N1631 C1628 1.314 . S
N1631 C1629 1.279 . S
C1632 C1629 1.358 . S
C1632 C1633 1.356 . S
C1632 H1669 0.930 . S
C1633 C1630 1.348 . S
C1633 C1632 1.356 . S
H1634 C1628 0.930 . S
H1635 C1629 0.930 . S
C1636 N1637 1.314 . S
C1636 C1638 1.353 . S
C1636 H1642 0.930 . S
N1637 Li1587 1.990 . S
N1637 C1636 1.314 . S
N1637 C1640 1.279 . S
C1638 C1636 1.353 . S
C1638 C1641 1.348 . S
C1638 H1670 0.929 . S
C1639 C1640 1.358 . S
C1639 C1641 1.356 . S
C1639 H1671 0.930 . S
C1640 N1637 1.279 . S
C1640 C1639 1.358 . S
C1640 H1643 0.930 . S
C1641 C1638 1.348 . S
C1641 C1639 1.356 . S
H1642 C1636 0.930 . S
H1643 C1640 0.930 . S
O1644 Li1584 1.956 . S
O1644 Li1585 1.970 . S
O1644 Li1586 1.961 . S
O1644 C1588 1.325 . S
O1645 Li1584 1.970 . S
O1645 Li1585 1.956 . S
O1645 Li1587 1.961 . S
O1645 C1594 1.325 . S
O1646 Li1584 1.961 . S
O1646 Li1586 1.956 . S
O1646 Li1587 1.970 . S
O1646 C1616 1.325 . S
O1647 Li1585 1.961 . S
O1647 Li1586 1.970 . S
O1647 Li1587 1.956 . S
O1647 C1622 1.325 . S
H1648 C1590 0.929 . S
H1649 C1591 0.930 . S
H1650 C1592 0.930 . S
H1651 C1593 0.930 . S
H1652 C1595 0.930 . S
H1653 C1597 0.929 . S
H1654 C1598 0.930 . S
H1655 C1599 0.930 . S
H1656 C1602 0.930 . S
H1657 C1605 0.929 . S
H1658 C1610 0.929 . S
H1659 C1611 0.930 . S
H1660 C1618 0.929 . S
H1661 C1619 0.930 . S
H1662 C1620 0.930 . S
H1663 C1621 0.930 . S
H1664 C1623 0.929 . S
H1665 C1624 0.930 . S
H1666 C1625 0.930 . S
H1667 C1626 0.930 . S
H1668 C1630 0.929 . S
H1669 C1632 0.930 . S
H1670 C1638 0.929 . S
H1671 C1639 0.930 . S
Li1672 N1689 1.990 . S
Li1672 O1732 1.956 . S
Li1672 O1733 1.970 . S
Li1672 O1734 1.961 . S
Li1673 N1697 1.990 . S
Li1673 O1732 1.970 . S
Li1673 O1733 1.956 . S
Li1673 O1735 1.961 . S
Li1674 N1719 1.990 . S
Li1674 O1732 1.961 . S
Li1674 O1734 1.956 . S
Li1674 O1735 1.970 . S
Li1675 N1725 1.990 . S
Li1675 O1733 1.961 . S
Li1675 O1734 1.970 . S
Li1675 O1735 1.956 . S
C1676 C1678 1.348 . S
C1676 C1679 1.356 . S
C1676 O1732 1.325 . S
N1677 C1680 1.314 . S
N1677 C1681 1.279 . S
C1678 C1676 1.348 . S
C1678 C1680 1.353 . S
C1678 H1736 0.929 . S
C1679 C1676 1.356 . S
C1679 C1681 1.358 . S
C1679 H1737 0.930 . S
C1680 N1677 1.314 . S
C1680 C1678 1.353 . S
C1680 H1738 0.930 . S
C1681 N1677 1.279 . S
C1681 C1679 1.358 . S
C1681 H1739 0.930 . S
C1682 C1685 1.348 . S
C1682 C1686 1.356 . S
C1682 O1733 1.325 . S
C1683 N1684 1.279 . S
C1683 C1686 1.358 . S
C1683 H1740 0.930 . S
N1684 C1683 1.279 . S
N1684 C1687 1.314 . S
C1685 C1682 1.348 . S
C1685 C1687 1.353 . S
C1685 H1741 0.929 . S
C1686 C1682 1.356 . S
C1686 C1683 1.358 . S
C1686 H1742 0.930 . S
C1687 N1684 1.314 . S
C1687 C1685 1.353 . S
C1687 H1743 0.930 . S
C1688 N1689 1.314 . S
C1688 C1693 1.353 . S
C1688 H1694 0.930 . S
N1689 Li1672 1.990 . S
N1689 C1688 1.314 . S
N1689 C1691 1.279 . S
C1690 C1691 1.358 . S
C1690 C1692 1.356 . S
C1690 H1744 0.930 . S
C1691 N1689 1.279 . S
C1691 C1690 1.358 . S
C1691 H1695 0.930 . S
C1692 C1690 1.356 . S
C1692 C1693 1.348 . S
C1693 C1688 1.353 . S
C1693 C1692 1.348 . S
C1693 H1745 0.929 . S
H1694 C1688 0.930 . S
H1695 C1691 0.930 . S
C1696 N1697 1.314 . S
C1696 C1698 1.353 . S
C1696 H1702 0.930 . S
N1697 Li1673 1.990 . S
N1697 C1696 1.314 . S
N1697 C1700 1.279 . S
C1698 C1696 1.353 . S
C1698 C1701 1.348 . S
C1698 H1746 0.929 . S
C1699 C1700 1.358 . S
C1699 C1701 1.356 . S
C1699 H1747 0.930 . S
C1700 N1697 1.279 . S
C1700 C1699 1.358 . S
C1700 H1703 0.930 . S
C1701 C1698 1.348 . S
C1701 C1699 1.356 . S
H1702 C1696 0.930 . S
H1703 C1700 0.930 . S
C1704 C1706 1.348 1_545 S
C1704 C1707 1.356 . S
C1704 O1734 1.325 . S
N1705 C1708 1.314 . S
N1705 C1709 1.279 . S
C1706 C1704 1.348 1_565 S
C1706 C1708 1.353 . S
C1706 H1748 0.929 . S
C1707 C1704 1.356 . S
C1707 C1709 1.358 1_545 S
C1707 H1749 0.930 . S
C1708 N1705 1.314 . S
C1708 C1706 1.353 . S
C1708 H1750 0.930 . S
C1709 N1705 1.279 . S
C1709 C1707 1.358 1_565 S
C1709 H1751 0.930 . S
C1710 C1711 1.348 . S
C1710 C1712 1.356 . S
C1710 O1735 1.325 . S
C1711 C1710 1.348 . S
C1711 C1713 1.353 . S
C1711 H1752 0.929 . S
C1712 C1710 1.356 . S
C1712 C1714 1.358 . S
C1712 H1753 0.930 . S
C1713 C1711 1.353 . S
C1713 N1715 1.314 . S
C1713 H1754 0.930 . S
C1714 C1712 1.358 . S
C1714 N1715 1.279 . S
C1714 H1755 0.930 . S
N1715 C1713 1.314 . S
N1715 C1714 1.279 . S
C1716 C1718 1.353 . S
C1716 N1719 1.314 . S
C1716 H1722 0.930 . S
C1717 N1719 1.279 . S
C1717 C1720 1.358 . S
C1717 H1723 0.930 . S
C1718 C1716 1.353 . S
C1718 C1721 1.348 . S
C1718 H1756 0.929 . S
N1719 Li1674 1.990 . S
N1719 C1716 1.314 . S
N1719 C1717 1.279 . S
C1720 C1717 1.358 . S
C1720 C1721 1.356 . S
C1720 H1757 0.930 . S
C1721 C1718 1.348 . S
C1721 C1720 1.356 . S
H1722 C1716 0.930 . S
H1723 C1717 0.930 . S
C1724 N1725 1.282 1_565 S
C1724 C1726 1.399 . S
C1724 H1730 0.916 1_565 S
N1725 Li1675 1.990 . S
N1725 C1724 1.282 1_545 S
N1725 C1728 1.279 . S
C1726 C1724 1.399 . S
C1726 C1729 1.348 . S
C1726 H1758 0.929 . S
C1727 C1728 1.358 1_565 S
C1727 C1729 1.356 . S
C1727 H1759 0.930 . S
C1728 N1725 1.279 . S
C1728 C1727 1.358 1_545 S
C1728 H1731 0.930 . S
C1729 C1726 1.348 . S
C1729 C1727 1.356 . S
H1730 C1724 0.916 1_545 S
H1731 C1728 0.930 . S
O1732 Li1672 1.956 . S
O1732 Li1673 1.970 . S
O1732 Li1674 1.961 . S
O1732 C1676 1.325 . S
O1733 Li1672 1.970 . S
O1733 Li1673 1.956 . S
O1733 Li1675 1.961 . S
O1733 C1682 1.325 . S
O1734 Li1672 1.961 . S
O1734 Li1674 1.956 . S
O1734 Li1675 1.970 . S
O1734 C1704 1.325 . S
O1735 Li1673 1.961 . S
O1735 Li1674 1.970 . S
O1735 Li1675 1.956 . S
O1735 C1710 1.325 . S
H1736 C1678 0.929 . S
H1737 C1679 0.930 . S
H1738 C1680 0.930 . S
H1739 C1681 0.930 . S
H1740 C1683 0.930 . S
H1741 C1685 0.929 . S
H1742 C1686 0.930 . S
H1743 C1687 0.930 . S
H1744 C1690 0.930 . S
H1745 C1693 0.929 . S
H1746 C1698 0.929 . S
H1747 C1699 0.930 . S
H1748 C1706 0.929 . S
H1749 C1707 0.930 . S
H1750 C1708 0.930 . S
H1751 C1709 0.930 . S
H1752 C1711 0.929 . S
H1753 C1712 0.930 . S
H1754 C1713 0.930 . S
H1755 C1714 0.930 . S
H1756 C1718 0.929 . S
H1757 C1720 0.930 . S
H1758 C1726 0.929 . S
H1759 C1727 0.930 . S
Li1760 N1777 1.990 . S
Li1760 O1820 1.956 . S
Li1760 O1821 1.970 . S
Li1760 O1822 1.961 . S
Li1761 N1785 1.990 . S
Li1761 O1820 1.970 . S
Li1761 O1821 1.956 . S
Li1761 O1823 1.961 1_554 S
Li1762 N1807 1.990 . S
Li1762 O1820 1.961 1_556 S
Li1762 O1822 1.956 1_556 S
Li1762 O1823 1.970 . S
Li1763 N1813 1.990 . S
Li1763 O1821 1.961 . S
Li1763 O1822 1.970 . S
Li1763 O1823 1.956 1_554 S
C1764 C1766 1.348 . S
C1764 C1767 1.356 . S
C1764 O1820 1.325 . S
N1765 C1768 1.314 . S
N1765 C1769 1.279 . S
C1766 C1764 1.348 . S
C1766 C1768 1.353 . S
C1766 H1824 0.929 . S
C1767 C1764 1.356 . S
C1767 C1769 1.358 . S
C1767 H1825 0.930 . S
C1768 N1765 1.314 . S
C1768 C1766 1.353 . S
C1768 H1826 0.930 . S
C1769 N1765 1.279 . S
C1769 C1767 1.358 . S
C1769 H1827 0.930 . S
C1770 C1773 1.348 . S
C1770 C1774 1.356 . S
C1770 O1821 1.325 . S
C1771 N1772 1.279 . S
C1771 C1774 1.358 . S
C1771 H1828 0.930 . S
N1772 C1771 1.279 . S
N1772 C1775 1.314 . S
C1773 C1770 1.348 . S
C1773 C1775 1.353 . S
C1773 H1829 0.929 . S
C1774 C1770 1.356 . S
C1774 C1771 1.358 . S
C1774 H1830 0.930 . S
C1775 N1772 1.314 . S
C1775 C1773 1.353 . S
C1775 H1831 0.930 . S
C1776 N1777 1.314 . S
C1776 C1781 1.353 . S
C1776 H1782 0.930 . S
N1777 Li1760 1.990 . S
N1777 C1776 1.314 . S
N1777 C1779 1.279 . S
C1778 C1779 1.358 . S
C1778 C1780 1.356 . S
C1778 H1832 0.930 . S
C1779 N1777 1.279 . S
C1779 C1778 1.358 . S
C1779 H1783 0.930 . S
C1780 C1778 1.356 . S
C1780 C1781 1.348 . S
C1781 C1776 1.353 . S
C1781 C1780 1.348 . S
C1781 H1833 0.929 . S
H1782 C1776 0.930 . S
H1783 C1779 0.930 . S
C1784 N1785 1.314 1_556 S
C1784 C1786 1.353 . S
C1784 H1790 0.930 . S
N1785 Li1761 1.990 . S
N1785 C1784 1.314 1_554 S
N1785 C1788 1.279 . S
C1786 C1784 1.353 . S
C1786 C1789 1.348 1_556 S
C1786 H1834 0.929 . S
C1787 C1788 1.358 . S
C1787 C1789 1.356 . S
C1787 H1835 0.930 . S
C1788 N1785 1.279 . S
C1788 C1787 1.358 . S
C1788 H1791 0.930 . S
C1789 C1786 1.348 1_554 S
C1789 C1787 1.356 . S
H1790 C1784 0.930 . S
H1791 C1788 0.930 . S
C1792 C1794 1.348 . S
C1792 C1795 1.356 . S
C1792 O1822 1.325 . S
N1793 C1796 1.314 . S
N1793 C1797 1.279 . S
C1794 C1792 1.348 . S
C1794 C1796 1.353 . S
C1794 H1836 0.929 . S
C1795 C1792 1.356 . S
C1795 C1797 1.358 . S
C1795 H1837 0.930 . S
C1796 N1793 1.314 . S
C1796 C1794 1.353 . S
C1796 H1838 0.937 . S
C1797 N1793 1.279 . S
C1797 C1795 1.358 . S
C1797 H1839 0.930 . S
C1798 C1799 1.348 . S
C1798 C1800 1.356 . S
C1798 O1823 1.325 . S
C1799 C1798 1.348 . S
C1799 C1801 1.353 . S
C1799 H1840 0.929 . S
C1800 C1798 1.356 . S
C1800 C1802 1.358 . S
C1800 H1841 0.930 . S
C1801 C1799 1.353 . S
C1801 N1803 1.314 . S
C1801 H1842 0.930 . S
C1802 C1800 1.358 . S
C1802 N1803 1.279 . S
C1802 H1843 0.930 . S
N1803 C1801 1.314 . S
N1803 C1802 1.279 . S
C1804 C1806 1.353 . S
C1804 N1807 1.314 . S
C1804 H1810 0.930 . S
C1805 N1807 1.279 . S
C1805 C1808 1.358 . S
C1805 H1811 0.930 . S
C1806 C1804 1.353 . S
C1806 C1809 1.348 . S
C1806 H1844 0.929 . S
N1807 Li1762 1.990 . S
N1807 C1804 1.314 . S
N1807 C1805 1.279 . S
C1808 C1805 1.358 . S
C1808 C1809 1.356 . S
C1808 H1845 0.930 . S
C1809 C1806 1.348 . S
C1809 C1808 1.356 . S
H1810 C1804 0.930 . S
H1811 C1805 0.930 . S
C1812 N1813 1.314 . S
C1812 C1814 1.353 . S
C1812 H1818 0.930 . S
N1813 Li1763 1.990 . S
N1813 C1812 1.314 . S
N1813 C1816 1.279 1_554 S
C1814 C1812 1.353 . S
C1814 C1817 1.348 . S
C1814 H1846 0.929 . S
C1815 C1816 1.358 . S
C1815 C1817 1.356 1_556 S
C1815 H1847 0.930 . S
C1816 N1813 1.279 1_556 S
C1816 C1815 1.358 . S
C1816 H1819 0.930 . S
C1817 C1814 1.348 . S
C1817 C1815 1.356 1_554 S
H1818 C1812 0.930 . S
H1819 C1816 0.930 . S
O1820 Li1760 1.956 . S
O1820 Li1761 1.970 . S
O1820 Li1762 1.961 1_554 S
O1820 C1764 1.325 . S
O1821 Li1760 1.970 . S
O1821 Li1761 1.956 . S
O1821 Li1763 1.961 . S
O1821 C1770 1.325 . S
O1822 Li1760 1.961 . S
O1822 Li1762 1.956 1_554 S
O1822 Li1763 1.970 . S
O1822 C1792 1.325 . S
O1823 Li1761 1.961 1_556 S
O1823 Li1762 1.970 . S
O1823 Li1763 1.956 1_556 S
O1823 C1798 1.325 . S
H1824 C1766 0.929 . S
H1825 C1767 0.930 . S
H1826 C1768 0.930 . S
H1827 C1769 0.930 . S
H1828 C1771 0.930 . S
H1829 C1773 0.929 . S
H1830 C1774 0.930 . S
H1831 C1775 0.930 . S
H1832 C1778 0.930 . S
H1833 C1781 0.929 . S
H1834 C1786 0.929 . S
H1835 C1787 0.930 . S
H1836 C1794 0.929 . S
H1837 C1795 0.930 . S
H1838 C1796 0.937 . S
H1839 C1797 0.930 . S
H1840 C1799 0.929 . S
H1841 C1800 0.930 . S
H1842 C1801 0.930 . S
H1843 C1802 0.930 . S
H1844 C1806 0.929 . S
H1845 C1808 0.930 . S
H1846 C1814 0.929 . S
H1847 C1815 0.930 . S
Li1848 N1865 1.990 . S
Li1848 O1908 1.956 . S
Li1848 O1909 1.970 . S
Li1848 O1910 1.961 . S
Li1849 N1873 1.990 . S
Li1849 O1908 1.970 . S
Li1849 O1909 1.956 . S
Li1849 O1911 1.961 . S
Li1850 N1895 1.990 . S
Li1850 O1908 1.961 . S
Li1850 O1910 1.956 . S
Li1850 O1911 1.970 . S
Li1851 N1901 1.990 . S
Li1851 O1909 1.961 . S
Li1851 O1910 1.970 . S
Li1851 O1911 1.956 . S
C1852 C1854 1.348 . S
C1852 C1855 1.356 . S
C1852 O1908 1.325 . S
N1853 C1856 1.314 . S
N1853 C1857 1.279 . S
C1854 C1852 1.348 . S
C1854 C1856 1.353 . S
C1854 H1912 0.929 . S
C1855 C1852 1.356 . S
C1855 C1857 1.358 . S
C1855 H1913 0.930 . S
C1856 N1853 1.314 . S
C1856 C1854 1.353 . S
C1856 H1914 0.930 . S
C1857 N1853 1.279 . S
C1857 C1855 1.358 . S
C1857 H1915 0.930 . S
C1858 C1861 1.348 . S
C1858 C1862 1.356 . S
C1858 O1909 1.325 . S
C1859 N1860 1.279 . S
C1859 C1862 1.358 . S
C1859 H1916 0.930 . S
N1860 C1859 1.279 . S
N1860 C1863 1.314 . S
C1861 C1858 1.348 . S
C1861 C1863 1.353 . S
C1861 H1917 0.929 . S
C1862 C1858 1.356 . S
C1862 C1859 1.358 . S
C1862 H1918 0.930 . S
C1863 N1860 1.314 . S
C1863 C1861 1.353 . S
C1863 H1919 0.930 . S
C1864 N1865 1.314 . S
C1864 C1869 1.353 . S
C1864 H1870 0.930 . S
N1865 Li1848 1.990 . S
N1865 C1864 1.314 . S
N1865 C1867 1.279 . S
C1866 C1867 1.358 . S
C1866 C1868 1.356 . S
C1866 H1920 0.930 . S
C1867 N1865 1.279 . S
C1867 C1866 1.358 . S
C1867 H1871 0.930 . S
C1868 C1866 1.356 . S
C1868 C1869 1.348 . S
C1869 C1864 1.353 . S
C1869 C1868 1.348 . S
C1869 H1921 0.929 . S
H1870 C1864 0.930 . S
H1871 C1867 0.930 . S
C1872 N1873 1.314 . S
C1872 C1874 1.353 . S
C1872 H1878 0.930 . S
N1873 Li1849 1.990 . S
N1873 C1872 1.314 . S
N1873 C1876 1.279 . S
C1874 C1872 1.353 . S
C1874 C1877 1.348 . S
C1874 H1922 0.929 . S
C1875 C1876 1.358 . S
C1875 C1877 1.356 . S
C1875 H1923 0.930 . S
C1876 N1873 1.279 . S
C1876 C1875 1.358 . S
C1876 H1879 0.930 . S
C1877 C1874 1.348 . S
C1877 C1875 1.356 . S
H1878 C1872 0.930 . S
H1879 C1876 0.930 . S
C1880 C1882 1.348 . S
C1880 C1883 1.356 . S
C1880 O1910 1.325 . S
N1881 C1884 1.314 . S
N1881 C1885 1.279 . S
C1882 C1880 1.348 . S
C1882 C1884 1.353 . S
C1882 H1924 0.929 . S
C1883 C1880 1.356 . S
C1883 C1885 1.358 . S
C1883 H1925 0.930 . S
C1884 N1881 1.314 . S
C1884 C1882 1.353 . S
C1884 H1926 0.930 . S
C1885 N1881 1.279 . S
C1885 C1883 1.358 . S
C1885 H1927 0.930 . S
C1886 C1887 1.348 . S
C1886 C1888 1.356 . S
C1886 O1911 1.325 . S
C1887 C1886 1.348 . S
C1887 C1889 1.353 . S
C1887 H1928 0.929 . S
C1888 C1886 1.356 . S
C1888 C1890 1.358 . S
C1888 H1929 0.930 . S
C1889 C1887 1.353 . S
C1889 N1891 1.314 . S
C1889 H1930 0.930 . S
C1890 C1888 1.358 . S
C1890 N1891 1.279 . S
C1890 H1931 0.930 . S
N1891 C1889 1.314 . S
N1891 C1890 1.279 . S
C1892 C1894 1.353 . S
C1892 N1895 1.314 . S
C1892 H1898 0.930 . S
C1893 N1895 1.279 . S
C1893 C1896 1.358 . S
C1893 H1899 0.930 . S
C1894 C1892 1.353 . S
C1894 C1897 1.348 . S
C1894 H1932 0.929 . S
N1895 Li1850 1.990 . S
N1895 C1892 1.314 . S
N1895 C1893 1.279 . S
C1896 C1893 1.358 . S
C1896 C1897 1.356 . S
C1896 H1933 0.930 . S
C1897 C1894 1.348 . S
C1897 C1896 1.356 . S
H1898 C1892 0.930 . S
H1899 C1893 0.930 . S
C1900 N1901 1.314 . S
C1900 C1902 1.353 . S
C1900 H1906 0.930 . S
N1901 Li1851 1.990 . S
N1901 C1900 1.314 . S
N1901 C1904 1.279 . S
C1902 C1900 1.353 . S
C1902 C1905 1.348 . S
C1902 H1934 0.929 . S
C1903 C1904 1.358 . S
C1903 C1905 1.356 . S
C1903 H1935 0.930 . S
C1904 N1901 1.279 . S
C1904 C1903 1.358 . S
C1904 H1907 0.930 . S
C1905 C1902 1.348 . S
C1905 C1903 1.356 . S
H1906 C1900 0.930 . S
H1907 C1904 0.930 . S
O1908 Li1848 1.956 . S
O1908 Li1849 1.970 . S
O1908 Li1850 1.961 . S
O1908 C1852 1.325 . S
O1909 Li1848 1.970 . S
O1909 Li1849 1.956 . S
O1909 Li1851 1.961 . S
O1909 C1858 1.325 . S
O1910 Li1848 1.961 . S
O1910 Li1850 1.956 . S
O1910 Li1851 1.970 . S
O1910 C1880 1.325 . S
O1911 Li1849 1.961 . S
O1911 Li1850 1.970 . S
O1911 Li1851 1.956 . S
O1911 C1886 1.325 . S
H1912 C1854 0.929 . S
H1913 C1855 0.930 . S
H1914 C1856 0.930 . S
H1915 C1857 0.930 . S
H1916 C1859 0.930 . S
H1917 C1861 0.929 . S
H1918 C1862 0.930 . S
H1919 C1863 0.930 . S
H1920 C1866 0.930 . S
H1921 C1869 0.929 . S
H1922 C1874 0.929 . S
H1923 C1875 0.930 . S
H1924 C1882 0.929 . S
H1925 C1883 0.930 . S
H1926 C1884 0.930 . S
H1927 C1885 0.930 . S
H1928 C1887 0.929 . S
H1929 C1888 0.930 . S
H1930 C1889 0.930 . S
H1931 C1890 0.930 . S
H1932 C1894 0.929 . S
H1933 C1896 0.930 . S
H1934 C1902 0.929 . S
H1935 C1903 0.930 . S
Li1936 N1953 1.990 . S
Li1936 O1996 1.956 . S
Li1936 O1997 1.970 . S
Li1936 O1998 1.961 . S
Li1937 N1961 1.990 . S
Li1937 O1996 1.970 . S
Li1937 O1997 1.956 . S
Li1937 O1999 1.961 . S
Li1938 N1983 1.990 . S
Li1938 O1996 1.961 . S
Li1938 O1998 1.956 . S
Li1938 O1999 1.970 . S
Li1939 N1989 1.990 . S
Li1939 O1997 1.961 . S
Li1939 O1998 1.970 . S
Li1939 O1999 1.956 . S
C1940 C1942 1.348 . S
C1940 C1943 1.356 . S
C1940 O1996 1.325 . S
N1941 C1944 1.314 . S
N1941 C1945 1.279 . S
C1942 C1940 1.348 . S
C1942 C1944 1.353 . S
C1942 H2000 0.929 . S
C1943 C1940 1.356 . S
C1943 C1945 1.358 . S
C1943 H2001 0.930 . S
C1944 N1941 1.314 . S
C1944 C1942 1.353 . S
C1944 H2002 0.930 . S
C1945 N1941 1.279 . S
C1945 C1943 1.358 . S
C1945 H2003 0.930 . S
C1946 C1949 1.348 . S
C1946 C1950 1.356 . S
C1946 O1997 1.325 . S
C1947 N1948 1.279 . S
C1947 C1950 1.358 . S
C1947 H2004 0.930 . S
N1948 C1947 1.279 . S
N1948 C1951 1.314 . S
C1949 C1946 1.348 . S
C1949 C1951 1.353 . S
C1949 H2005 0.929 . S
C1950 C1946 1.356 . S
C1950 C1947 1.358 . S
C1950 H2006 0.930 . S
C1951 N1948 1.314 . S
C1951 C1949 1.353 . S
C1951 H2007 0.930 . S
C1952 N1953 1.314 . S
C1952 C1957 1.353 . S
C1952 H1958 0.930 . S
N1953 Li1936 1.990 . S
N1953 C1952 1.314 . S
N1953 C1955 1.279 . S
C1954 C1955 1.358 . S
C1954 C1956 1.356 . S
C1954 H2008 0.930 . S
C1955 N1953 1.279 . S
C1955 C1954 1.358 . S
C1955 H1959 0.930 . S
C1956 C1954 1.356 . S
C1956 C1957 1.348 . S
C1957 C1952 1.353 . S
C1957 C1956 1.348 . S
C1957 H2009 0.929 . S
H1958 C1952 0.930 . S
H1959 C1955 0.930 . S
C1960 N1961 1.314 . S
C1960 C1962 1.353 . S
C1960 H1966 0.930 . S
N1961 Li1937 1.990 . S
N1961 C1960 1.314 . S
N1961 C1964 1.279 . S
C1962 C1960 1.353 . S
C1962 C1965 1.348 . S
C1962 H2010 0.929 . S
C1963 C1964 1.358 . S
C1963 C1965 1.356 . S
C1963 H2011 0.930 . S
C1964 N1961 1.279 . S
C1964 C1963 1.358 . S
C1964 H1967 0.930 . S
C1965 C1962 1.348 . S
C1965 C1963 1.356 . S
H1966 C1960 0.930 . S
H1967 C1964 0.930 . S
C1968 C1970 1.348 . S
C1968 C1971 1.356 . S
C1968 O1998 1.325 . S
N1969 C1972 1.314 . S
N1969 C1973 1.279 . S
C1970 C1968 1.348 . S
C1970 C1972 1.353 . S
C1970 H2012 0.929 . S
C1971 C1968 1.356 . S
C1971 C1973 1.358 . S
C1971 H2013 0.930 . S
C1972 N1969 1.314 . S
C1972 C1970 1.353 . S
C1972 H2014 0.930 . S
C1973 N1969 1.279 . S
C1973 C1971 1.358 . S
C1973 H2015 0.930 . S
C1974 C1975 1.348 . S
C1974 C1976 1.356 . S
C1974 O1999 1.325 . S
C1975 C1974 1.348 . S
C1975 C1977 1.353 . S
C1975 H2016 0.929 . S
C1976 C1974 1.356 . S
C1976 C1978 1.358 . S
C1976 H2017 0.930 . S
C1977 C1975 1.353 . S
C1977 N1979 1.314 . S
C1977 H2018 0.930 . S
C1978 C1976 1.358 . S
C1978 N1979 1.279 . S
C1978 H2019 0.930 . S
N1979 C1977 1.314 . S
N1979 C1978 1.279 . S
C1980 C1982 1.353 . S
C1980 N1983 1.314 . S
C1980 H1986 0.930 . S
C1981 N1983 1.279 . S
C1981 C1984 1.358 . S
C1981 H1987 0.930 . S
C1982 C1980 1.353 . S
C1982 C1985 1.348 . S
C1982 H2020 0.929 . S
N1983 Li1938 1.990 . S
N1983 C1980 1.314 . S
N1983 C1981 1.279 . S
C1984 C1981 1.358 . S
C1984 C1985 1.356 . S
C1984 H2021 0.930 . S
C1985 C1982 1.348 . S
C1985 C1984 1.356 . S
H1986 C1980 0.930 . S
H1987 C1981 0.930 . S
C1988 N1989 1.314 . S
C1988 C1990 1.353 . S
C1988 H1994 0.930 . S
N1989 Li1939 1.990 . S
N1989 C1988 1.314 . S
N1989 C1992 1.279 . S
C1990 C1988 1.353 . S
C1990 C1993 1.348 . S
C1990 H2022 0.929 . S
C1991 C1992 1.358 . S
C1991 C1993 1.356 . S
C1991 H2023 0.930 . S
C1992 N1989 1.279 . S
C1992 C1991 1.358 . S
C1992 H1995 0.930 . S
C1993 C1990 1.348 . S
C1993 C1991 1.356 . S
H1994 C1988 0.930 . S
H1995 C1992 0.930 . S
O1996 Li1936 1.956 . S
O1996 Li1937 1.970 . S
O1996 Li1938 1.961 . S
O1996 C1940 1.325 . S
O1997 Li1936 1.970 . S
O1997 Li1937 1.956 . S
O1997 Li1939 1.961 . S
O1997 C1946 1.325 . S
O1998 Li1936 1.961 . S
O1998 Li1938 1.956 . S
O1998 Li1939 1.970 . S
O1998 C1968 1.325 . S
O1999 Li1937 1.961 . S
O1999 Li1938 1.970 . S
O1999 Li1939 1.956 . S
O1999 C1974 1.325 . S
H2000 C1942 0.929 . S
H2001 C1943 0.930 . S
H2002 C1944 0.930 . S
H2003 C1945 0.930 . S
H2004 C1947 0.930 . S
H2005 C1949 0.929 . S
H2006 C1950 0.930 . S
H2007 C1951 0.930 . S
H2008 C1954 0.930 . S
H2009 C1957 0.929 . S
H2010 C1962 0.929 . S
H2011 C1963 0.930 . S
H2012 C1970 0.929 . S
H2013 C1971 0.930 . S
H2014 C1972 0.930 . S
H2015 C1973 0.930 . S
H2016 C1975 0.929 . S
H2017 C1976 0.930 . S
H2018 C1977 0.930 . S
H2019 C1978 0.930 . S
H2020 C1982 0.929 . S
H2021 C1984 0.930 . S
H2022 C1990 0.929 . S
H2023 C1991 0.930 . S
Li2024 N2041 1.990 . S
Li2024 O2084 1.956 . S
Li2024 O2085 1.970 . S
Li2024 O2086 1.961 . S
Li2025 N2049 1.990 . S
Li2025 O2084 1.970 . S
Li2025 O2085 1.956 . S
Li2025 O2087 1.961 . S
Li2026 N2071 1.990 . S
Li2026 O2084 1.961 . S
Li2026 O2086 1.956 . S
Li2026 O2087 1.970 . S
Li2027 N2077 1.990 . S
Li2027 O2085 1.961 . S
Li2027 O2086 1.970 . S
Li2027 O2087 1.956 . S
C2028 C2030 1.348 . S
C2028 C2031 1.356 . S
C2028 O2084 1.325 . S
N2029 C2032 1.314 . S
N2029 C2033 1.279 . S
C2030 C2028 1.348 . S
C2030 C2032 1.353 . S
C2030 H2088 0.929 . S
C2031 C2028 1.356 . S
C2031 C2033 1.358 . S
C2031 H2089 0.930 . S
C2032 N2029 1.314 . S
C2032 C2030 1.353 . S
C2032 H2090 0.930 . S
C2033 N2029 1.279 . S
C2033 C2031 1.358 . S
C2033 H2091 0.930 . S
C2034 C2037 1.348 . S
C2034 C2038 1.356 . S
C2034 O2085 1.325 . S
C2035 N2036 1.279 . S
C2035 C2038 1.358 . S
C2035 H2092 0.930 . S
N2036 C2035 1.279 . S
N2036 C2039 1.314 . S
C2037 C2034 1.348 . S
C2037 C2039 1.353 . S
C2037 H2093 0.929 . S
C2038 C2034 1.356 . S
C2038 C2035 1.358 . S
C2038 H2094 0.930 . S
C2039 N2036 1.314 . S
C2039 C2037 1.353 . S
C2039 H2095 0.930 . S
C2040 N2041 1.314 . S
C2040 C2045 1.353 . S
C2040 H2046 0.930 . S
N2041 Li2024 1.990 . S
N2041 C2040 1.314 . S
N2041 C2043 1.279 . S
C2042 C2043 1.358 . S
C2042 C2044 1.356 . S
C2042 H2096 0.930 . S
C2043 N2041 1.279 . S
C2043 C2042 1.358 . S
C2043 H2047 0.930 . S
C2044 C2042 1.356 . S
C2044 C2045 1.348 . S
C2045 C2040 1.353 . S
C2045 C2044 1.348 . S
C2045 H2097 0.929 . S
H2046 C2040 0.930 . S
H2047 C2043 0.930 . S
C2048 N2049 1.314 . S
C2048 C2050 1.353 . S
C2048 H2054 0.930 . S
N2049 Li2025 1.990 . S
N2049 C2048 1.314 . S
N2049 C2052 1.279 . S
C2050 C2048 1.353 . S
C2050 C2053 1.348 . S
C2050 H2098 0.929 . S
C2051 C2052 1.358 . S
C2051 C2053 1.356 . S
C2051 H2099 0.930 . S
C2052 N2049 1.279 . S
C2052 C2051 1.358 . S
C2052 H2055 0.930 . S
C2053 C2050 1.348 . S
C2053 C2051 1.356 . S
H2054 C2048 0.930 . S
H2055 C2052 0.930 . S
C2056 C2058 1.348 . S
C2056 C2059 1.356 . S
C2056 O2086 1.325 . S
N2057 C2060 1.314 . S
N2057 C2061 1.279 . S
C2058 C2056 1.348 . S
C2058 C2060 1.353 . S
C2058 H2100 0.929 . S
C2059 C2056 1.356 . S
C2059 C2061 1.358 . S
C2059 H2101 0.930 . S
C2060 N2057 1.314 . S
C2060 C2058 1.353 . S
C2060 H2102 0.930 . S
C2061 N2057 1.279 . S
C2061 C2059 1.358 . S
C2061 H2103 0.930 . S
C2062 C2063 1.348 . S
C2062 C2064 1.356 . S
C2062 O2087 1.325 . S
C2063 C2062 1.348 . S
C2063 C2065 1.353 . S
C2063 H2104 0.929 . S
C2064 C2062 1.356 . S
C2064 C2066 1.358 . S
C2064 H2105 0.930 . S
C2065 C2063 1.353 . S
C2065 N2067 1.314 . S
C2065 H2106 0.930 . S
C2066 C2064 1.358 . S
C2066 N2067 1.279 . S
C2066 H2107 0.930 . S
N2067 C2065 1.314 . S
N2067 C2066 1.279 . S
C2068 C2070 1.353 . S
C2068 N2071 1.314 . S
C2068 H2074 0.930 . S
C2069 N2071 1.279 . S
C2069 C2072 1.358 . S
C2069 H2075 0.930 . S
C2070 C2068 1.353 . S
C2070 C2073 1.348 . S
C2070 H2108 0.929 . S
N2071 Li2026 1.990 . S
N2071 C2068 1.314 . S
N2071 C2069 1.279 . S
C2072 C2069 1.358 . S
C2072 C2073 1.356 . S
C2072 H2109 0.930 . S
C2073 C2070 1.348 . S
C2073 C2072 1.356 . S
H2074 C2068 0.930 . S
H2075 C2069 0.930 . S
C2076 N2077 1.314 . S
C2076 C2078 1.353 . S
C2076 H2082 0.930 . S
N2077 Li2027 1.990 . S
N2077 C2076 1.314 . S
N2077 C2080 1.279 . S
C2078 C2076 1.353 . S
C2078 C2081 1.348 . S
C2078 H2110 0.929 . S
C2079 C2080 1.358 . S
C2079 C2081 1.356 . S
C2079 H2111 0.930 . S
C2080 N2077 1.279 . S
C2080 C2079 1.358 . S
C2080 H2083 0.930 . S
C2081 C2078 1.348 . S
C2081 C2079 1.356 . S
H2082 C2076 0.930 . S
H2083 C2080 0.930 . S
O2084 Li2024 1.956 . S
O2084 Li2025 1.970 . S
O2084 Li2026 1.961 . S
O2084 C2028 1.325 . S
O2085 Li2024 1.970 . S
O2085 Li2025 1.956 . S
O2085 Li2027 1.961 . S
O2085 C2034 1.325 . S
O2086 Li2024 1.961 . S
O2086 Li2026 1.956 . S
O2086 Li2027 1.970 . S
O2086 C2056 1.325 . S
O2087 Li2025 1.961 . S
O2087 Li2026 1.970 . S
O2087 Li2027 1.956 . S
O2087 C2062 1.325 . S
H2088 C2030 0.929 . S
H2089 C2031 0.930 . S
H2090 C2032 0.930 . S
H2091 C2033 0.930 . S
H2092 C2035 0.930 . S
H2093 C2037 0.929 . S
H2094 C2038 0.930 . S
H2095 C2039 0.930 . S
H2096 C2042 0.930 . S
H2097 C2045 0.929 . S
H2098 C2050 0.929 . S
H2099 C2051 0.930 . S
H2100 C2058 0.929 . S
H2101 C2059 0.930 . S
H2102 C2060 0.930 . S
H2103 C2061 0.930 . S
H2104 C2063 0.929 . S
H2105 C2064 0.930 . S
H2106 C2065 0.930 . S
H2107 C2066 0.930 . S
H2108 C2070 0.929 . S
H2109 C2072 0.930 . S
H2110 C2078 0.929 . S
H2111 C2079 0.930 . S
Eu2112 N2141 2.600 . S
Eu2112 N2147 2.562 . S
Eu2112 O2156 2.462 . S
Eu2112 O2157 2.373 . S
Eu2112 O2159 2.432 . S
Eu2112 O2160 2.291 . S
Eu2112 O2164 2.335 . S
Eu2112 O2167 2.372 . S
Eu2112 C2176 2.787 . S
C2113 N2114 1.365 . S
C2113 C2116 1.405 . S
C2113 C2120 1.448 1_556 S
N2114 C2113 1.365 . S
N2114 C2117 1.319 . S
N2114 Eu2123 2.600 1_566 S
C2115 C2117 1.397 . S
C2115 C2118 1.367 . S
C2115 H2135 0.931 . S
C2116 C2113 1.405 . S
C2116 C2118 1.403 . S
C2116 C2122 1.439 . S
C2117 N2114 1.319 . S
C2117 C2115 1.397 . S
C2117 H2128 0.930 . S
C2118 C2115 1.367 . S
C2118 C2116 1.403 . S
C2118 H2139 0.929 . S
C2119 C2120 1.430 . S
C2119 C2121 1.387 1_554 S
C2119 C2125 1.404 . S
C2120 C2113 1.448 1_554 S
C2120 C2119 1.430 . S
C2120 N2124 1.351 . S
C2121 C2119 1.387 1_556 S
C2121 C2122 1.374 . S
C2121 H2136 0.931 . S
C2122 C2116 1.439 . S
C2122 C2121 1.374 . S
C2122 H2137 0.931 . S
Eu2123 N2114 2.600 1_544 S
Eu2123 N2124 2.562 1_545 S
Eu2123 O2158 2.335 1_655 S
Eu2123 O2161 2.372 1_654 S
Eu2123 O2162 2.462 . S
Eu2123 O2163 2.373 1_645 S
Eu2123 O2165 2.432 1_554 S
Eu2123 O2166 2.291 1_655 S
Eu2123 C2187 2.787 . S
N2124 C2120 1.351 . S
N2124 Eu2123 2.562 1_565 S
N2124 C2126 1.325 . S
C2125 C2119 1.404 . S
C2125 C2127 1.366 . S
C2125 H2133 0.930 . S
C2126 N2124 1.325 . S
C2126 C2127 1.416 . S
C2126 H2132 0.929 . S
C2127 C2125 1.366 . S
C2127 C2126 1.416 . S
C2127 H2129 0.930 . S
H2128 C2117 0.930 . S
H2129 C2127 0.930 . S
H2130 C2145 0.930 . S
H2131 C2152 0.930 1_556 S
H2132 C2126 0.929 . S
H2133 C2125 0.930 . S
H2134 C2148 0.929 . S
H2135 C2115 0.931 . S
H2136 C2121 0.931 . S
H2137 C2122 0.931 . S
H2138 C2143 0.931 . S
H2139 C2118 0.929 . S
H2140 C2151 0.930 . S
N2141 Eu2112 2.600 . S
N2141 C2142 1.365 . S
N2141 C2145 1.319 . S
C2142 N2141 1.365 . S
C2142 C2144 1.405 . S
C2142 C2150 1.448 . S
C2143 H2138 0.931 . S
C2143 C2145 1.397 . S
C2143 C2146 1.367 . S
C2144 C2142 1.405 . S
C2144 C2146 1.403 . S
C2144 C2177 1.439 . S
C2145 H2130 0.930 . S
C2145 N2141 1.319 . S
C2145 C2143 1.397 . S
C2146 C2143 1.367 . S
C2146 C2144 1.403 . S
C2146 H2153 0.929 . S
N2147 Eu2112 2.562 . S
N2147 C2148 1.325 . S
N2147 C2150 1.351 . S
C2148 H2134 0.929 . S
C2148 N2147 1.325 . S
C2148 C2152 1.416 . S
C2149 C2150 1.430 . S
C2149 C2151 1.404 . S
C2149 C2178 1.387 . S
C2150 C2142 1.448 . S
C2150 N2147 1.351 . S
C2150 C2149 1.430 . S
C2151 H2140 0.930 . S
C2151 C2149 1.404 . S
C2151 C2152 1.366 . S
C2152 H2131 0.930 1_554 S
C2152 C2148 1.416 . S
C2152 C2151 1.366 . S
H2153 C2146 0.929 . S
H2154 C2177 0.931 . S
H2155 C2178 0.931 . S
O2156 Eu2112 2.462 . S
O2156 C2176 1.252 . S
O2157 Eu2112 2.373 . S
O2157 C2168 1.249 . S
O2158 Eu2123 2.335 1_455 S
O2158 C2168 1.264 . S
O2159 Eu2112 2.432 . S
O2159 C2176 1.268 . S
O2160 Eu2112 2.291 . S
O2160 C2175 1.255 1_554 S
O2161 Eu2123 2.372 1_456 S
O2161 C2175 1.257 . S
O2162 Eu2123 2.462 . S
O2162 C2187 1.252 . S
O2163 Eu2123 2.373 1_465 S
O2163 C2179 1.249 . S
O2164 Eu2112 2.335 . S
O2164 C2179 1.264 1_545 S
O2165 Eu2123 2.432 1_556 S
O2165 C2187 1.268 1_556 S
O2166 Eu2123 2.291 1_455 S
O2166 C2186 1.255 . S
O2167 Eu2112 2.372 . S
O2167 C2186 1.257 . S
C2168 O2157 1.249 . S
C2168 O2158 1.264 . S
C2169 C2172 1.382 . S
C2169 C2174 1.390 . S
C2169 C2176 1.506 . S
C2170 C2171 1.398 . S
C2170 C2174 1.392 . S
C2171 C2170 1.398 . S
C2171 C2173 1.372 . S
C2171 H2188 0.946 . S
C2172 C2169 1.382 . S
C2172 C2173 1.390 . S
C2172 H2189 0.931 . S
C2173 C2171 1.372 . S
C2173 C2172 1.390 . S
C2173 H2190 0.929 . S
C2174 C2169 1.390 . S
C2174 C2170 1.392 . S
C2174 H2191 0.930 . S
C2175 O2160 1.255 1_556 S
C2175 O2161 1.257 . S
C2176 Eu2112 2.787 . S
C2176 O2156 1.252 . S
C2176 O2159 1.268 . S
C2176 C2169 1.506 . S
C2177 C2144 1.439 . S
C2177 H2154 0.931 . S
C2177 C2178 1.374 . S
C2178 C2149 1.387 . S
C2178 H2155 0.931 . S
C2178 C2177 1.374 . S
C2179 O2163 1.249 . S
C2179 O2164 1.264 1_565 S
C2180 C2183 1.342 1_554 S
C2180 C2184 1.426 . S
C2180 C2187 1.511 . S
C2181 C2182 1.398 1_554 S
C2181 C2184 1.392 . S
C2182 C2181 1.398 1_556 S
C2182 C2185 1.372 . S
C2182 H2192 0.931 . S
C2183 C2180 1.342 1_556 S
C2183 C2185 1.390 . S
C2183 H2193 0.931 . S
C2184 C2180 1.426 . S
C2184 C2181 1.392 . S
C2184 H2194 0.930 . S
C2185 C2182 1.372 . S
C2185 C2183 1.390 . S
C2185 H2195 0.929 . S
C2186 O2166 1.255 . S
C2186 O2167 1.257 . S
C2187 Eu2123 2.787 . S
C2187 O2162 1.252 . S
C2187 O2165 1.268 1_554 S
C2187 C2180 1.511 . S
H2188 C2171 0.946 . S
H2189 C2172 0.931 . S
H2190 C2173 0.929 . S
H2191 C2174 0.930 . S
H2192 C2182 0.931 . S
H2193 C2183 0.931 . S
H2194 C2184 0.930 . S
H2195 C2185 0.929 . S
Eu2196 N2225 2.600 . S
Eu2196 N2231 2.562 . S
Eu2196 O2240 2.462 . S
Eu2196 O2241 2.373 . S
Eu2196 O2243 2.432 . S
Eu2196 O2244 2.291 . S
Eu2196 O2248 2.335 . S
Eu2196 O2251 2.372 . S
Eu2196 C2260 2.787 . S
C2197 N2198 1.365 . S
C2197 C2200 1.405 . S
C2197 C2204 1.448 . S
N2198 C2197 1.365 . S
N2198 C2201 1.319 . S
N2198 Eu2207 2.600 . S
C2199 C2201 1.397 . S
C2199 C2202 1.367 . S
C2199 H2219 0.931 . S
C2200 C2197 1.405 . S
C2200 C2202 1.403 . S
C2200 C2206 1.439 . S
C2201 N2198 1.319 . S
C2201 C2199 1.397 . S
C2201 H2212 0.930 . S
C2202 C2199 1.367 . S
C2202 C2200 1.403 . S
C2202 H2223 0.929 . S
C2203 C2204 1.430 . S
C2203 C2205 1.387 . S
C2203 C2209 1.404 . S
C2204 C2197 1.448 . S
C2204 C2203 1.430 . S
C2204 N2208 1.351 . S
C2205 C2203 1.387 . S
C2205 C2206 1.374 . S
C2205 H2220 0.931 . S
C2206 C2200 1.439 . S
C2206 C2205 1.374 . S
C2206 H2221 0.931 . S
Eu2207 N2198 2.600 . S
Eu2207 N2208 2.562 . S
Eu2207 O2242 2.335 . S
Eu2207 O2245 2.372 . S
Eu2207 O2246 2.462 . S
Eu2207 O2247 2.373 . S
Eu2207 O2249 2.432 . S
Eu2207 O2250 2.291 . S
Eu2207 C2271 2.787 . S
N2208 C2204 1.351 . S
N2208 Eu2207 2.562 . S
N2208 C2210 1.325 . S
C2209 C2203 1.404 . S
C2209 C2211 1.366 . S
C2209 H2217 0.930 . S
C2210 N2208 1.325 . S
C2210 C2211 1.416 . S
C2210 H2216 0.929 . S
C2211 C2209 1.366 . S
C2211 C2210 1.416 . S
C2211 H2213 0.930 . S
H2212 C2201 0.930 . S
H2213 C2211 0.930 . S
H2214 C2229 0.930 . S
H2215 C2236 0.930 . S
H2216 C2210 0.929 . S
H2217 C2209 0.930 . S
H2218 C2232 0.929 . S
H2219 C2199 0.931 . S
H2220 C2205 0.931 . S
H2221 C2206 0.931 . S
H2222 C2227 0.931 . S
H2223 C2202 0.929 . S
H2224 C2235 0.930 . S
N2225 Eu2196 2.600 . S
N2225 C2226 1.365 . S
N2225 C2229 1.319 . S
C2226 N2225 1.365 . S
C2226 C2228 1.405 . S
C2226 C2234 1.448 . S
C2227 H2222 0.931 . S
C2227 C2229 1.397 . S
C2227 C2230 1.367 . S
C2228 C2226 1.405 . S
C2228 C2230 1.403 . S
C2228 C2261 1.439 . S
C2229 H2214 0.930 . S
C2229 N2225 1.319 . S
C2229 C2227 1.397 . S
C2230 C2227 1.367 . S
C2230 C2228 1.403 . S
C2230 H2237 0.929 . S
N2231 Eu2196 2.562 . S
N2231 C2232 1.325 . S
N2231 C2234 1.351 . S
C2232 H2218 0.929 . S
C2232 N2231 1.325 . S
C2232 C2236 1.416 . S
C2233 C2234 1.430 . S
C2233 C2235 1.404 . S
C2233 C2262 1.387 . S
C2234 C2226 1.448 . S
C2234 N2231 1.351 . S
C2234 C2233 1.430 . S
C2235 H2224 0.930 . S
C2235 C2233 1.404 . S
C2235 C2236 1.366 . S
C2236 H2215 0.930 . S
C2236 C2232 1.416 . S
C2236 C2235 1.366 . S
H2237 C2230 0.929 . S
H2238 C2261 0.931 . S
H2239 C2262 0.931 . S
O2240 Eu2196 2.462 . S
O2240 C2260 1.252 . S
O2241 Eu2196 2.373 . S
O2241 C2252 1.249 . S
O2242 Eu2207 2.335 . S
O2242 C2252 1.264 . S
O2243 Eu2196 2.432 . S
O2243 C2260 1.268 . S
O2244 Eu2196 2.291 . S
O2244 C2259 1.255 . S
O2245 Eu2207 2.372 . S
O2245 C2259 1.257 . S
O2246 Eu2207 2.462 . S
O2246 C2271 1.252 . S
O2247 Eu2207 2.373 . S
O2247 C2263 1.249 . S
O2248 Eu2196 2.335 . S
O2248 C2263 1.264 . S
O2249 Eu2207 2.432 . S
O2249 C2271 1.268 . S
O2250 Eu2207 2.291 . S
O2250 C2270 1.255 . S
O2251 Eu2196 2.372 . S
O2251 C2270 1.257 . S
C2252 O2241 1.249 . S
C2252 O2242 1.264 . S
C2253 C2256 1.382 . S
C2253 C2258 1.390 . S
C2253 C2260 1.506 . S
C2254 C2255 1.398 . S
C2254 C2258 1.392 . S
C2255 C2254 1.398 . S
C2255 C2257 1.372 . S
C2255 H2272 0.931 . S
C2256 C2253 1.382 . S
C2256 C2257 1.390 . S
C2256 H2273 0.931 . S
C2257 C2255 1.372 . S
C2257 C2256 1.390 . S
C2257 H2274 0.929 . S
C2258 C2253 1.390 . S
C2258 C2254 1.392 . S
C2258 H2275 0.930 . S
C2259 O2244 1.255 . S
C2259 O2245 1.257 . S
C2260 Eu2196 2.787 . S
C2260 O2240 1.252 . S
C2260 O2243 1.268 . S
C2260 C2253 1.506 . S
C2261 C2228 1.439 . S
C2261 H2238 0.931 . S
C2261 C2262 1.374 . S
C2262 C2233 1.387 . S
C2262 H2239 0.931 . S
C2262 C2261 1.374 . S
C2263 O2247 1.249 . S
C2263 O2248 1.264 . S
C2264 C2267 1.382 . S
C2264 C2268 1.390 . S
C2264 C2271 1.506 . S
C2265 C2266 1.398 . S
C2265 C2268 1.392 . S
C2266 C2265 1.398 . S
C2266 C2269 1.372 . S
C2266 H2276 0.931 . S
C2267 C2264 1.382 . S
C2267 C2269 1.390 . S
C2267 H2277 0.931 . S
C2268 C2264 1.390 . S
C2268 C2265 1.392 . S
C2268 H2278 0.930 . S
C2269 C2266 1.372 . S
C2269 C2267 1.390 . S
C2269 H2279 0.929 . S
C2270 O2250 1.255 . S
C2270 O2251 1.257 . S
C2271 Eu2207 2.787 . S
C2271 O2246 1.252 . S
C2271 O2249 1.268 . S
C2271 C2264 1.506 . S
H2272 C2255 0.931 . S
H2273 C2256 0.931 . S
H2274 C2257 0.929 . S
H2275 C2258 0.930 . S
H2276 C2266 0.931 . S
H2277 C2267 0.931 . S
H2278 C2268 0.930 . S
H2279 C2269 0.929 . S
Eu2280 N2309 2.614 . S
Eu2280 N2315 2.562 1_545 S
Eu2280 O2324 2.462 . S
Eu2280 O2325 2.373 1_545 S
Eu2280 O2327 2.432 . S
Eu2280 O2328 2.291 . S
Eu2280 O2332 2.335 . S
Eu2280 O2335 2.372 . S
Eu2280 C2344 2.787 . S
C2281 N2282 1.365 . S
C2281 C2284 1.405 . S
C2281 C2288 1.448 . S
N2282 C2281 1.365 . S
N2282 C2285 1.319 . S
N2282 Eu2291 2.600 . S
C2283 C2285 1.397 . S
C2283 C2286 1.367 . S
C2283 H2303 0.931 . S
C2284 C2281 1.405 . S
C2284 C2286 1.403 . S
C2284 C2290 1.439 . S
C2285 N2282 1.319 . S
C2285 C2283 1.397 . S
C2285 H2296 0.930 . S
C2286 C2283 1.367 . S
C2286 C2284 1.403 . S
C2286 H2307 0.929 . S
C2287 C2288 1.430 . S
C2287 C2289 1.387 . S
C2287 C2293 1.404 . S
C2288 C2281 1.448 . S
C2288 C2287 1.430 . S
C2288 N2292 1.351 . S
C2289 C2287 1.387 . S
C2289 C2290 1.374 . S
C2289 H2304 0.931 . S
C2290 C2284 1.439 . S
C2290 C2289 1.374 . S
C2290 H2305 0.931 . S
Eu2291 N2282 2.600 . S
Eu2291 N2292 2.562 . S
Eu2291 O2326 2.335 1_545 S
Eu2291 O2329 2.372 . S
Eu2291 O2330 2.462 . S
Eu2291 O2331 2.373 . S
Eu2291 O2333 2.432 . S
Eu2291 O2334 2.291 . S
Eu2291 C2355 2.787 . S
N2292 C2288 1.351 . S
N2292 Eu2291 2.562 . S
N2292 C2294 1.325 . S
C2293 C2287 1.404 . S
C2293 C2295 1.366 . S
C2293 H2301 0.930 . S
C2294 N2292 1.325 . S
C2294 C2295 1.416 . S
C2294 H2300 0.929 . S
C2295 C2293 1.366 . S
C2295 C2294 1.416 . S
C2295 H2297 0.930 . S
H2296 C2285 0.930 . S
H2297 C2295 0.930 . S
H2298 C2313 0.930 . S
H2299 C2320 0.930 . S
H2300 C2294 0.929 . S
H2301 C2293 0.930 . S
H2302 C2316 0.929 . S
H2303 C2283 0.931 . S
H2304 C2289 0.931 . S
H2305 C2290 0.931 . S
H2306 C2311 0.931 . S
H2307 C2286 0.929 . S
H2308 C2319 0.930 . S
N2309 Eu2280 2.614 . S
N2309 C2310 1.349 1_545 S
N2309 C2313 1.319 . S
C2310 N2309 1.349 1_565 S
C2310 C2312 1.405 . S
C2310 C2318 1.448 . S
C2311 H2306 0.931 . S
C2311 C2313 1.397 1_565 S
C2311 C2314 1.367 . S
C2312 C2310 1.405 . S
C2312 C2314 1.403 . S
C2312 C2345 1.439 . S
C2313 H2298 0.930 . S
C2313 N2309 1.319 . S
C2313 C2311 1.397 1_545 S
C2314 C2311 1.367 . S
C2314 C2312 1.403 . S
C2314 H2321 0.929 . S
N2315 Eu2280 2.562 1_565 S
N2315 C2316 1.325 . S
N2315 C2318 1.351 . S
C2316 H2302 0.929 . S
C2316 N2315 1.325 . S
C2316 C2320 1.416 . S
C2317 C2318 1.430 . S
C2317 C2319 1.404 . S
C2317 C2346 1.387 . S
C2318 C2310 1.448 . S
C2318 N2315 1.351 . S
C2318 C2317 1.430 . S
C2319 H2308 0.930 . S
C2319 C2317 1.404 . S
C2319 C2320 1.366 . S
C2320 H2299 0.930 . S
C2320 C2316 1.416 . S
C2320 C2319 1.366 . S
H2321 C2314 0.929 . S
H2322 C2345 0.931 . S
H2323 C2346 0.931 . S
O2324 Eu2280 2.462 . S
O2324 C2344 1.252 . S
O2325 Eu2280 2.373 1_565 S
O2325 C2336 1.249 . S
O2326 Eu2291 2.335 1_565 S
O2326 C2336 1.264 . S
O2327 Eu2280 2.432 . S
O2327 C2344 1.268 . S
O2328 Eu2280 2.291 . S
O2328 C2343 1.255 . S
O2329 Eu2291 2.372 . S
O2329 C2343 1.257 . S
O2330 Eu2291 2.462 . S
O2330 C2355 1.252 . S
O2331 Eu2291 2.373 . S
O2331 C2347 1.249 . S
O2332 Eu2280 2.335 . S
O2332 C2347 1.264 . S
O2333 Eu2291 2.432 . S
O2333 C2355 1.268 . S
O2334 Eu2291 2.291 . S
O2334 C2354 1.255 . S
O2335 Eu2280 2.372 . S
O2335 C2354 1.257 . S
C2336 O2325 1.249 . S
C2336 O2326 1.264 . S
C2337 C2340 1.382 . S
C2337 C2342 1.390 . S
C2337 C2344 1.506 . S
C2338 C2339 1.398 . S
C2338 C2342 1.392 . S
C2339 C2338 1.398 . S
C2339 C2341 1.372 . S
C2339 H2356 0.931 . S
C2340 C2337 1.382 . S
C2340 C2341 1.390 . S
C2340 H2357 0.931 . S
C2341 C2339 1.372 . S
C2341 C2340 1.390 . S
C2341 H2358 0.929 . S
C2342 C2337 1.390 . S
C2342 C2338 1.392 . S
C2342 H2359 0.930 . S
C2343 O2328 1.255 . S
C2343 O2329 1.257 . S
C2344 Eu2280 2.787 . S
C2344 O2324 1.252 . S
C2344 O2327 1.268 . S
C2344 C2337 1.506 . S
C2345 C2312 1.439 . S
C2345 H2322 0.931 . S
C2345 C2346 1.374 . S
C2346 C2317 1.387 . S
C2346 H2323 0.931 . S
C2346 C2345 1.374 . S
C2347 O2331 1.249 . S
C2347 O2332 1.264 . S
C2348 C2351 1.382 . S
C2348 C2352 1.390 . S
C2348 C2355 1.506 1_565 S
C2349 C2350 1.398 . S
C2349 C2352 1.392 . S
C2350 C2349 1.398 . S
C2350 C2353 1.372 . S
C2350 H2360 0.931 . S
C2351 C2348 1.382 . S
C2351 C2353 1.390 . S
C2351 H2361 0.931 . S
C2352 C2348 1.390 . S
C2352 C2349 1.392 . S
C2352 H2362 0.930 . S
C2353 C2350 1.372 . S
C2353 C2351 1.390 . S
C2353 H2363 0.929 . S
C2354 O2334 1.255 . S
C2354 O2335 1.257 . S
C2355 Eu2291 2.787 . S
C2355 O2330 1.252 . S
C2355 O2333 1.268 . S
C2355 C2348 1.506 1_545 S
H2356 C2339 0.931 . S
H2357 C2340 0.931 . S
H2358 C2341 0.929 . S
H2359 C2342 0.930 . S
H2360 C2350 0.931 . S
H2361 C2351 0.931 . S
H2362 C2352 0.930 . S
H2363 C2353 0.929 . S
Eu2364 N2393 2.600 . S
Eu2364 N2399 2.562 . S
Eu2364 O2408 2.462 . S
Eu2364 O2409 2.373 . S
Eu2364 O2411 2.432 . S
Eu2364 O2412 2.291 . S
Eu2364 O2416 2.335 . S
Eu2364 O2419 2.372 . S
Eu2364 C2428 2.787 . S
C2365 N2366 1.365 . S
C2365 C2368 1.405 . S
C2365 C2372 1.448 . S
N2366 C2365 1.365 . S
N2366 C2369 1.319 . S
N2366 Eu2375 2.600 . S
C2367 C2369 1.397 . S
C2367 C2370 1.367 . S
C2367 H2387 0.931 . S
C2368 C2365 1.405 . S
C2368 C2370 1.403 . S
C2368 C2374 1.439 . S
C2369 N2366 1.319 . S
C2369 C2367 1.397 . S
C2369 H2380 0.930 . S
C2370 C2367 1.367 . S
C2370 C2368 1.403 . S
C2370 H2391 0.929 . S
C2371 C2372 1.430 . S
C2371 C2373 1.387 . S
C2371 C2377 1.404 . S
C2372 C2365 1.448 . S
C2372 C2371 1.430 . S
C2372 N2376 1.351 . S
C2373 C2371 1.387 . S
C2373 C2374 1.374 . S
C2373 H2388 0.931 . S
C2374 C2368 1.439 . S
C2374 C2373 1.374 . S
C2374 H2389 0.931 . S
Eu2375 N2366 2.600 . S
Eu2375 N2376 2.562 . S
Eu2375 O2410 2.335 . S
Eu2375 O2413 2.372 . S
Eu2375 O2414 2.462 . S
Eu2375 O2415 2.373 . S
Eu2375 O2417 2.432 . S
Eu2375 O2418 2.291 . S
Eu2375 C2439 2.787 . S
N2376 C2372 1.351 . S
N2376 Eu2375 2.562 . S
N2376 C2378 1.325 . S
C2377 C2371 1.404 . S
C2377 C2379 1.366 . S
C2377 H2385 0.930 . S
C2378 N2376 1.325 . S
C2378 C2379 1.416 . S
C2378 H2384 0.929 . S
C2379 C2377 1.366 . S
C2379 C2378 1.416 . S
C2379 H2381 0.930 . S
H2380 C2369 0.930 . S
H2381 C2379 0.930 . S
H2382 C2397 0.930 . S
H2383 C2404 0.930 . S
H2384 C2378 0.929 . S
H2385 C2377 0.930 . S
H2386 C2400 0.929 . S
H2387 C2367 0.931 . S
H2388 C2373 0.931 . S
H2389 C2374 0.931 . S
H2390 C2395 0.931 . S
H2391 C2370 0.929 . S
H2392 C2403 0.930 . S
N2393 Eu2364 2.600 . S
N2393 C2394 1.365 . S
N2393 C2397 1.319 . S
C2394 N2393 1.365 . S
C2394 C2396 1.405 . S
C2394 C2402 1.448 . S
C2395 H2390 0.931 . S
C2395 C2397 1.397 . S
C2395 C2398 1.367 . S
C2396 C2394 1.405 . S
C2396 C2398 1.403 . S
C2396 C2429 1.439 . S
C2397 H2382 0.930 . S
C2397 N2393 1.319 . S
C2397 C2395 1.397 . S
C2398 C2395 1.367 . S
C2398 C2396 1.403 . S
C2398 H2405 0.929 . S
N2399 Eu2364 2.562 . S
N2399 C2400 1.325 . S
N2399 C2402 1.351 . S
C2400 H2386 0.929 . S
C2400 N2399 1.325 . S
C2400 C2404 1.416 . S
C2401 C2402 1.430 . S
C2401 C2403 1.404 . S
C2401 C2430 1.387 . S
C2402 C2394 1.448 . S
C2402 N2399 1.351 . S
C2402 C2401 1.430 . S
C2403 H2392 0.930 . S
C2403 C2401 1.404 . S
C2403 C2404 1.366 . S
C2404 H2383 0.930 . S
C2404 C2400 1.416 . S
C2404 C2403 1.366 . S
H2405 C2398 0.929 . S
H2406 C2429 0.931 . S
H2407 C2430 0.931 . S
O2408 Eu2364 2.462 . S
O2408 C2428 1.252 . S
O2409 Eu2364 2.373 . S
O2409 C2420 1.249 . S
O2410 Eu2375 2.335 . S
O2410 C2420 1.264 . S
O2411 Eu2364 2.432 . S
O2411 C2428 1.268 . S
O2412 Eu2364 2.291 . S
O2412 C2427 1.255 . S
O2413 Eu2375 2.372 . S
O2413 C2427 1.257 . S
O2414 Eu2375 2.462 . S
O2414 C2439 1.252 . S
O2415 Eu2375 2.373 . S
O2415 C2431 1.249 . S
O2416 Eu2364 2.335 . S
O2416 C2431 1.264 . S
O2417 Eu2375 2.432 . S
O2417 C2439 1.268 . S
O2418 Eu2375 2.291 . S
O2418 C2438 1.255 . S
O2419 Eu2364 2.372 . S
O2419 C2438 1.257 . S
C2420 O2409 1.249 . S
C2420 O2410 1.264 . S
C2421 C2424 1.382 . S
C2421 C2426 1.390 . S
C2421 C2428 1.506 . S
C2422 C2423 1.398 . S
C2422 C2426 1.392 . S
C2423 C2422 1.398 . S
C2423 C2425 1.372 . S
C2423 H2440 0.931 . S
C2424 C2421 1.382 . S
C2424 C2425 1.390 . S
C2424 H2441 0.931 . S
C2425 C2423 1.372 . S
C2425 C2424 1.390 . S
C2425 H2442 0.929 . S
C2426 C2421 1.390 . S
C2426 C2422 1.392 . S
C2426 H2443 0.930 . S
C2427 O2412 1.255 . S
C2427 O2413 1.257 . S
C2428 Eu2364 2.787 . S
C2428 O2408 1.252 . S
C2428 O2411 1.268 . S
C2428 C2421 1.506 . S
C2429 C2396 1.439 . S
C2429 H2406 0.931 . S
C2429 C2430 1.374 . S
C2430 C2401 1.387 . S
C2430 H2407 0.931 . S
C2430 C2429 1.374 . S
C2431 O2415 1.249 . S
C2431 O2416 1.264 . S
C2432 C2435 1.382 . S
C2432 C2436 1.390 . S
C2432 C2439 1.506 . S
C2433 C2434 1.398 . S
C2433 C2436 1.392 . S
C2434 C2433 1.398 . S
C2434 C2437 1.372 . S
C2434 H2444 0.931 . S
C2435 C2432 1.382 . S
C2435 C2437 1.390 . S
C2435 H2445 0.931 . S
C2436 C2432 1.390 . S
C2436 C2433 1.392 . S
C2436 H2446 0.930 . S
C2437 C2434 1.372 . S
C2437 C2435 1.390 . S
C2437 H2447 0.929 . S
C2438 O2418 1.255 . S
C2438 O2419 1.257 . S
C2439 Eu2375 2.787 . S
C2439 O2414 1.252 . S
C2439 O2417 1.268 . S
C2439 C2432 1.506 . S
H2440 C2423 0.931 . S
H2441 C2424 0.931 . S
H2442 C2425 0.929 . S
H2443 C2426 0.930 . S
H2444 C2434 0.931 . S
H2445 C2435 0.931 . S
H2446 C2436 0.930 . S
H2447 C2437 0.929 . S
Eu2448 N2477 2.600 . S
Eu2448 N2483 2.562 . S
Eu2448 O2492 2.462 . S
Eu2448 O2493 2.373 1_565 S
Eu2448 O2495 2.432 . S
Eu2448 O2496 2.291 1_565 S
Eu2448 O2500 2.335 1_565 S
Eu2448 O2503 2.372 1_565 S
Eu2448 C2512 2.787 . S
C2449 N2450 1.365 1_455 S
C2449 C2452 1.405 1_455 S
C2449 C2456 1.448 . S
N2450 C2449 1.365 1_655 S
N2450 C2453 1.319 . S
N2450 Eu2459 2.600 1_655 S
C2451 C2453 1.397 . S
C2451 C2454 1.367 . S
C2451 H2471 0.931 . S
C2452 C2449 1.405 1_655 S
C2452 C2454 1.403 . S
C2452 C2458 1.439 1_655 S
C2453 N2450 1.319 . S
C2453 C2451 1.397 . S
C2453 H2464 0.930 . S
C2454 C2451 1.367 . S
C2454 C2452 1.403 . S
C2454 H2475 0.929 . S
C2455 C2456 1.430 . S
C2455 C2457 1.387 . S
C2455 C2461 1.404 . S
C2456 C2449 1.448 . S
C2456 C2455 1.430 . S
C2456 N2460 1.351 . S
C2457 C2455 1.387 . S
C2457 C2458 1.374 . S
C2457 H2472 0.931 . S
C2458 C2452 1.439 1_455 S
C2458 C2457 1.374 . S
C2458 H2473 0.931 1_455 S
Eu2459 N2450 2.600 1_455 S
Eu2459 N2460 2.562 . S
Eu2459 O2494 2.335 . S
Eu2459 O2497 2.372 1_455 S
Eu2459 O2498 2.462 . S
Eu2459 O2499 2.373 . S
Eu2459 O2501 2.432 1_455 S
Eu2459 O2502 2.291 . S
Eu2459 C2523 2.787 . S
N2460 C2456 1.351 . S
N2460 Eu2459 2.562 . S
N2460 C2462 1.325 . S
C2461 C2455 1.404 . S
C2461 C2463 1.366 . S
C2461 H2469 0.930 . S
C2462 N2460 1.325 . S
C2462 C2463 1.416 . S
C2462 H2468 0.929 . S
C2463 C2461 1.366 . S
C2463 C2462 1.416 . S
C2463 H2465 0.930 . S
H2464 C2453 0.930 . S
H2465 C2463 0.930 . S
H2466 C2481 0.930 1_545 S
H2467 C2488 0.930 . S
H2468 C2462 0.929 . S
H2469 C2461 0.930 . S
H2470 C2484 0.949 . S
H2471 C2451 0.931 . S
H2472 C2457 0.931 . S
H2473 C2458 0.931 1_655 S
H2474 C2479 0.931 . S
H2475 C2454 0.929 . S
H2476 C2487 0.930 . S
N2477 Eu2448 2.600 . S
N2477 C2478 1.365 . S
N2477 C2481 1.319 . S
C2478 N2477 1.365 . S
C2478 C2480 1.405 . S
C2478 C2486 1.448 . S
C2479 H2474 0.931 . S
C2479 C2481 1.397 . S
C2479 C2482 1.367 . S
C2480 C2478 1.405 . S
C2480 C2482 1.403 . S
C2480 C2513 1.439 . S
C2481 H2466 0.930 1_565 S
C2481 N2477 1.319 . S
C2481 C2479 1.397 . S
C2482 C2479 1.367 . S
C2482 C2480 1.403 . S
C2482 H2489 0.929 . S
N2483 Eu2448 2.562 . S
N2483 C2484 1.297 1_455 S
N2483 C2486 1.351 . S
C2484 H2470 0.949 . S
C2484 N2483 1.297 1_655 S
C2484 C2488 1.426 . S
C2485 C2486 1.430 . S
C2485 C2487 1.404 1_455 S
C2485 C2514 1.387 . S
C2486 C2478 1.448 . S
C2486 N2483 1.351 . S
C2486 C2485 1.430 . S
C2487 H2476 0.930 . S
C2487 C2485 1.404 1_655 S
C2487 C2488 1.366 . S
C2488 H2467 0.930 . S
C2488 C2484 1.426 . S
C2488 C2487 1.366 . S
H2489 C2482 0.929 . S
H2490 C2513 0.931 . S
H2491 C2514 0.931 . S
O2492 Eu2448 2.462 . S
O2492 C2512 1.252 . S
O2493 Eu2448 2.373 1_545 S
O2493 C2504 1.249 . S
O2494 Eu2459 2.335 . S
O2494 C2504 1.264 . S
O2495 Eu2448 2.432 . S
O2495 C2512 1.268 . S
O2496 Eu2448 2.291 1_545 S
O2496 C2511 1.255 1_455 S
O2497 Eu2459 2.372 1_655 S
O2497 C2511 1.257 . S
O2498 Eu2459 2.462 . S
O2498 C2523 1.252 . S
O2499 Eu2459 2.373 . S
O2499 C2515 1.249 . S
O2500 Eu2448 2.335 1_545 S
O2500 C2515 1.264 . S
O2501 Eu2459 2.432 1_655 S
O2501 C2523 1.268 1_655 S
O2502 Eu2459 2.291 . S
O2502 C2522 1.255 . S
O2503 Eu2448 2.372 1_545 S
O2503 C2522 1.257 . S
C2504 O2493 1.249 . S
C2504 O2494 1.264 . S
C2505 C2508 1.382 . S
C2505 C2510 1.390 . S
C2505 C2512 1.506 . S
C2506 C2507 1.398 . S
C2506 C2510 1.392 . S
C2507 C2506 1.398 . S
C2507 C2509 1.372 . S
C2507 H2524 0.931 . S
C2508 C2505 1.382 . S
C2508 C2509 1.390 . S
C2508 H2525 0.931 . S
C2509 C2507 1.372 . S
C2509 C2508 1.390 . S
C2509 H2526 0.929 . S
C2510 C2505 1.390 . S
C2510 C2506 1.392 . S
C2510 H2527 0.930 . S
C2511 O2496 1.255 1_655 S
C2511 O2497 1.257 . S
C2512 Eu2448 2.787 . S
C2512 O2492 1.252 . S
C2512 O2495 1.268 . S
C2512 C2505 1.506 . S
C2513 C2480 1.439 . S
C2513 H2490 0.931 . S
C2513 C2514 1.374 . S
C2514 C2485 1.387 . S
C2514 H2491 0.931 . S
C2514 C2513 1.374 . S
C2515 O2499 1.249 . S
C2515 O2500 1.264 . S
C2516 C2519 1.382 1_455 S
C2516 C2520 1.390 . S
C2516 C2523 1.506 . S
C2517 C2518 1.398 1_455 S
C2517 C2520 1.392 . S
C2518 C2517 1.398 1_655 S
C2518 C2521 1.372 . S
C2518 H2528 0.931 . S
C2519 C2516 1.382 1_655 S
C2519 C2521 1.390 . S
C2519 H2529 0.931 . S
C2520 C2516 1.390 . S
C2520 C2517 1.392 . S
C2520 H2530 0.930 . S
C2521 C2518 1.372 . S
C2521 C2519 1.390 . S
C2521 H2531 0.929 . S
C2522 O2502 1.255 . S
C2522 O2503 1.257 . S
C2523 Eu2459 2.787 . S
C2523 O2498 1.252 . S
C2523 O2501 1.268 1_455 S
C2523 C2516 1.506 . S
H2524 C2507 0.931 . S
H2525 C2508 0.931 . S
H2526 C2509 0.929 . S
H2527 C2510 0.930 . S
H2528 C2518 0.931 . S
H2529 C2519 0.931 . S
H2530 C2520 0.930 . S
H2531 C2521 0.929 . S
Eu2532 N2561 2.600 . S
Eu2532 N2567 2.562 . S
Eu2532 O2576 2.462 . S
Eu2532 O2577 2.373 . S
Eu2532 O2579 2.432 . S
Eu2532 O2580 2.291 . S
Eu2532 O2584 2.335 . S
Eu2532 O2587 2.372 . S
Eu2532 C2596 2.787 . S
C2533 N2534 1.365 . S
C2533 C2536 1.405 . S
C2533 C2540 1.448 . S
N2534 C2533 1.365 . S
N2534 C2537 1.319 . S
N2534 Eu2543 2.600 . S
C2535 C2537 1.397 . S
C2535 C2538 1.367 . S
C2535 H2555 0.931 . S
C2536 C2533 1.405 . S
C2536 C2538 1.403 . S
C2536 C2542 1.439 . S
C2537 N2534 1.319 . S
C2537 C2535 1.397 . S
C2537 H2548 0.930 . S
C2538 C2535 1.367 . S
C2538 C2536 1.403 . S
C2538 H2559 0.929 . S
C2539 C2540 1.430 . S
C2539 C2541 1.387 . S
C2539 C2545 1.404 . S
C2540 C2533 1.448 . S
C2540 C2539 1.430 . S
C2540 N2544 1.351 . S
C2541 C2539 1.387 . S
C2541 C2542 1.374 . S
C2541 H2556 0.931 . S
C2542 C2536 1.439 . S
C2542 C2541 1.374 . S
C2542 H2557 0.931 . S
Eu2543 N2534 2.600 . S
Eu2543 N2544 2.562 . S
Eu2543 O2578 2.335 . S
Eu2543 O2581 2.372 . S
Eu2543 O2582 2.462 . S
Eu2543 O2583 2.373 . S
Eu2543 O2585 2.432 . S
Eu2543 O2586 2.291 . S
Eu2543 C2607 2.787 . S
N2544 C2540 1.351 . S
N2544 Eu2543 2.562 . S
N2544 C2546 1.325 . S
C2545 C2539 1.404 . S
C2545 C2547 1.366 . S
C2545 H2553 0.930 . S
C2546 N2544 1.325 . S
C2546 C2547 1.416 . S
C2546 H2552 0.929 . S
C2547 C2545 1.366 . S
C2547 C2546 1.416 . S
C2547 H2549 0.930 . S
H2548 C2537 0.930 . S
H2549 C2547 0.930 . S
H2550 C2565 0.930 . S
H2551 C2572 0.930 . S
H2552 C2546 0.929 . S
H2553 C2545 0.930 . S
H2554 C2568 0.929 . S
H2555 C2535 0.931 . S
H2556 C2541 0.931 . S
H2557 C2542 0.931 . S
H2558 C2563 0.931 . S
H2559 C2538 0.929 . S
H2560 C2571 0.930 . S
N2561 Eu2532 2.600 . S
N2561 C2562 1.365 . S
N2561 C2565 1.319 . S
C2562 N2561 1.365 . S
C2562 C2564 1.405 . S
C2562 C2570 1.448 . S
C2563 H2558 0.931 . S
C2563 C2565 1.397 . S
C2563 C2566 1.367 . S
C2564 C2562 1.405 . S
C2564 C2566 1.403 . S
C2564 C2597 1.439 . S
C2565 H2550 0.930 . S
C2565 N2561 1.319 . S
C2565 C2563 1.397 . S
C2566 C2563 1.367 . S
C2566 C2564 1.403 . S
C2566 H2573 0.929 . S
N2567 Eu2532 2.562 . S
N2567 C2568 1.325 . S
N2567 C2570 1.351 . S
C2568 H2554 0.929 . S
C2568 N2567 1.325 . S
C2568 C2572 1.416 . S
C2569 C2570 1.430 . S
C2569 C2571 1.404 . S
C2569 C2598 1.387 . S
C2570 C2562 1.448 . S
C2570 N2567 1.351 . S
C2570 C2569 1.430 . S
C2571 H2560 0.930 . S
C2571 C2569 1.404 . S
C2571 C2572 1.366 . S
C2572 H2551 0.930 . S
C2572 C2568 1.416 . S
C2572 C2571 1.366 . S
H2573 C2566 0.929 . S
H2574 C2597 0.931 . S
H2575 C2598 0.931 . S
O2576 Eu2532 2.462 . S
O2576 C2596 1.252 . S
O2577 Eu2532 2.373 . S
O2577 C2588 1.249 . S
O2578 Eu2543 2.335 . S
O2578 C2588 1.264 . S
O2579 Eu2532 2.432 . S
O2579 C2596 1.268 . S
O2580 Eu2532 2.291 . S
O2580 C2595 1.255 . S
O2581 Eu2543 2.372 . S
O2581 C2595 1.257 . S
O2582 Eu2543 2.462 . S
O2582 C2607 1.252 . S
O2583 Eu2543 2.373 . S
O2583 C2599 1.249 . S
O2584 Eu2532 2.335 . S
O2584 C2599 1.264 . S
O2585 Eu2543 2.432 . S
O2585 C2607 1.268 . S
O2586 Eu2543 2.291 . S
O2586 C2606 1.255 . S
O2587 Eu2532 2.372 . S
O2587 C2606 1.257 . S
C2588 O2577 1.249 . S
C2588 O2578 1.264 . S
C2589 C2592 1.382 . S
C2589 C2594 1.390 . S
C2589 C2596 1.506 . S
C2590 C2591 1.398 . S
C2590 C2594 1.392 . S
C2591 C2590 1.398 . S
C2591 C2593 1.372 . S
C2591 H2608 0.931 . S
C2592 C2589 1.382 . S
C2592 C2593 1.390 . S
C2592 H2609 0.931 . S
C2593 C2591 1.372 . S
C2593 C2592 1.390 . S
C2593 H2610 0.929 . S
C2594 C2589 1.390 . S
C2594 C2590 1.392 . S
C2594 H2611 0.930 . S
C2595 O2580 1.255 . S
C2595 O2581 1.257 . S
C2596 Eu2532 2.787 . S
C2596 O2576 1.252 . S
C2596 O2579 1.268 . S
C2596 C2589 1.506 . S
C2597 C2564 1.439 . S
C2597 H2574 0.931 . S
C2597 C2598 1.374 . S
C2598 C2569 1.387 . S
C2598 H2575 0.931 . S
C2598 C2597 1.374 . S
C2599 O2583 1.249 . S
C2599 O2584 1.264 . S
C2600 C2603 1.382 . S
C2600 C2604 1.390 . S
C2600 C2607 1.506 . S
C2601 C2602 1.398 . S
C2601 C2604 1.392 . S
C2602 C2601 1.398 . S
C2602 C2605 1.372 . S
C2602 H2612 0.931 . S
C2603 C2600 1.382 . S
C2603 C2605 1.390 . S
C2603 H2613 0.931 . S
C2604 C2600 1.390 . S
C2604 C2601 1.392 . S
C2604 H2614 0.930 . S
C2605 C2602 1.372 . S
C2605 C2603 1.390 . S
C2605 H2615 0.929 . S
C2606 O2586 1.255 . S
C2606 O2587 1.257 . S
C2607 Eu2543 2.787 . S
C2607 O2582 1.252 . S
C2607 O2585 1.268 . S
C2607 C2600 1.506 . S
H2608 C2591 0.931 . S
H2609 C2592 0.931 . S
H2610 C2593 0.929 . S
H2611 C2594 0.930 . S
H2612 C2602 0.931 . S
H2613 C2603 0.931 . S
H2614 C2604 0.930 . S
H2615 C2605 0.929 . S
Eu2616 N2645 2.600 . S
Eu2616 N2651 2.562 . S
Eu2616 O2660 2.462 . S
Eu2616 O2661 2.373 1_556 S
Eu2616 O2663 2.432 . S
Eu2616 O2664 2.291 1_556 S
Eu2616 O2668 2.335 1_556 S
Eu2616 O2671 2.372 1_556 S
Eu2616 C2680 2.787 . S
C2617 N2618 1.365 . S
C2617 C2620 1.405 . S
C2617 C2624 1.448 1_565 S
N2618 C2617 1.365 . S
N2618 C2621 1.319 . S
N2618 Eu2627 2.600 1_565 S
C2619 C2621 1.397 . S
C2619 C2622 1.367 . S
C2619 H2639 0.931 . S
C2620 C2617 1.405 . S
C2620 C2622 1.403 . S
C2620 C2626 1.439 . S
C2621 N2618 1.319 . S
C2621 C2619 1.397 . S
C2621 H2632 0.930 . S
C2622 C2619 1.367 . S
C2622 C2620 1.403 . S
C2622 H2643 0.929 . S
C2623 C2624 1.430 . S
C2623 C2625 1.387 . S
C2623 C2629 1.404 . S
C2624 C2617 1.448 1_545 S
C2624 C2623 1.430 . S
C2624 N2628 1.351 . S
C2625 C2623 1.387 . S
C2625 C2626 1.374 1_545 S
C2625 H2640 0.931 . S
C2626 C2620 1.439 . S
C2626 C2625 1.374 1_565 S
C2626 H2641 0.931 . S
Eu2627 N2618 2.600 1_545 S
Eu2627 N2628 2.562 . S
Eu2627 O2662 2.335 . S
Eu2627 O2665 2.372 1_545 S
Eu2627 O2666 2.462 . S
Eu2627 O2667 2.373 . S
Eu2627 O2669 2.432 1_545 S
Eu2627 O2670 2.291 . S
Eu2627 C2691 2.781 1_545 S
N2628 C2624 1.351 . S
N2628 Eu2627 2.562 . S
N2628 C2630 1.325 . S
C2629 C2623 1.404 . S
C2629 C2631 1.366 . S
C2629 H2637 0.930 . S
C2630 N2628 1.325 . S
C2630 C2631 1.416 . S
C2630 H2636 0.929 . S
C2631 C2629 1.366 . S
C2631 C2630 1.416 . S
C2631 H2633 0.930 . S
H2632 C2621 0.930 . S
H2633 C2631 0.930 . S
H2634 C2649 0.930 1_554 S
H2635 C2656 0.930 . S
H2636 C2630 0.929 . S
H2637 C2629 0.930 . S
H2638 C2652 0.929 1_565 S
H2639 C2619 0.931 . S
H2640 C2625 0.931 . S
H2641 C2626 0.931 . S
H2642 C2647 0.950 . S
H2643 C2622 0.929 . S
H2644 C2655 0.930 1_565 S
N2645 Eu2616 2.600 . S
N2645 C2646 1.365 . S
N2645 C2649 1.319 . S
C2646 N2645 1.365 . S
C2646 C2648 1.405 . S
C2646 C2654 1.448 . S
C2647 H2642 0.950 . S
C2647 C2649 1.397 . S
C2647 C2650 1.367 . S
C2648 C2646 1.405 . S
C2648 C2650 1.403 . S
C2648 C2681 1.439 . S
C2649 H2634 0.930 1_556 S
C2649 N2645 1.319 . S
C2649 C2647 1.397 . S
C2650 C2647 1.367 . S
C2650 C2648 1.403 . S
C2650 H2657 0.929 . S
N2651 Eu2616 2.562 . S
N2651 C2652 1.325 . S
N2651 C2654 1.351 . S
C2652 H2638 0.929 1_545 S
C2652 N2651 1.325 . S
C2652 C2656 1.416 1_545 S
C2653 C2654 1.430 . S
C2653 C2655 1.404 . S
C2653 C2682 1.387 . S
C2654 C2646 1.448 . S
C2654 N2651 1.351 . S
C2654 C2653 1.430 . S
C2655 H2644 0.930 1_545 S
C2655 C2653 1.404 . S
C2655 C2656 1.366 1_545 S
C2656 H2635 0.930 . S
C2656 C2652 1.416 1_565 S
C2656 C2655 1.366 1_565 S
H2657 C2650 0.929 . S
H2658 C2681 0.931 . S
H2659 C2682 0.931 . S
O2660 Eu2616 2.462 . S
O2660 C2680 1.252 . S
O2661 Eu2616 2.373 1_554 S
O2661 C2672 1.249 . S
O2662 Eu2627 2.335 . S
O2662 C2672 1.264 . S
O2663 Eu2616 2.432 . S
O2663 C2680 1.268 . S
O2664 Eu2616 2.291 1_554 S
O2664 C2679 1.255 1_545 S
O2665 Eu2627 2.372 1_565 S
O2665 C2679 1.257 . S
O2666 Eu2627 2.462 . S
O2666 C2691 1.232 1_545 S
O2667 Eu2627 2.373 . S
O2667 C2683 1.249 . S
O2668 Eu2616 2.335 1_554 S
O2668 C2683 1.264 . S
O2669 Eu2627 2.432 1_565 S
O2669 C2691 1.283 . S
O2670 Eu2627 2.291 . S
O2670 C2690 1.255 . S
O2671 Eu2616 2.372 1_554 S
O2671 C2690 1.257 . S
C2672 O2661 1.249 . S
C2672 O2662 1.264 . S
C2673 C2676 1.382 . S
C2673 C2678 1.390 . S
C2673 C2680 1.506 . S
C2674 C2675 1.398 . S
C2674 C2678 1.392 . S
C2675 C2674 1.398 . S
C2675 C2677 1.372 . S
C2675 H2692 0.931 . S
C2676 C2673 1.382 . S
C2676 C2677 1.390 . S
C2676 H2693 0.931 . S
C2677 C2675 1.372 . S
C2677 C2676 1.390 . S
C2677 H2694 0.929 . S
C2678 C2673 1.390 . S
C2678 C2674 1.392 . S
C2678 H2695 0.930 . S
C2679 O2664 1.255 1_565 S
C2679 O2665 1.257 . S
C2680 Eu2616 2.787 . S
C2680 O2660 1.252 . S
C2680 O2663 1.268 . S
C2680 C2673 1.506 . S
C2681 C2648 1.439 . S
C2681 H2658 0.931 . S
C2681 C2682 1.374 . S
C2682 C2653 1.387 . S
C2682 H2659 0.931 . S
C2682 C2681 1.374 . S
C2683 O2667 1.249 . S
C2683 O2668 1.264 . S
C2684 C2687 1.382 . S
C2684 C2688 1.390 1_565 S
C2684 C2691 1.512 . S
C2685 C2686 1.359 1_545 S
C2685 C2688 1.404 . S
C2686 C2685 1.359 1_565 S
C2686 C2689 1.372 . S
C2686 H2696 0.931 . S
C2687 C2684 1.382 . S
C2687 C2689 1.390 . S
C2687 H2697 0.931 . S
C2688 C2684 1.390 1_545 S
C2688 C2685 1.404 . S
C2688 H2698 0.930 . S
C2689 C2686 1.372 . S
C2689 C2687 1.390 . S
C2689 H2699 0.929 . S
C2690 O2670 1.255 . S
C2690 O2671 1.257 . S
C2691 Eu2627 2.781 1_565 S
C2691 O2666 1.232 1_565 S
C2691 O2669 1.283 . S
C2691 C2684 1.512 . S
H2692 C2675 0.931 . S
H2693 C2676 0.931 . S
H2694 C2677 0.929 . S
H2695 C2678 0.930 . S
H2696 C2686 0.931 . S
H2697 C2687 0.931 . S
H2698 C2688 0.930 . S
H2699 C2689 0.929 . S
Eu2700 N2729 2.600 . S
Eu2700 N2735 2.562 . S
Eu2700 O2744 2.462 . S
Eu2700 O2745 2.373 . S
Eu2700 O2747 2.432 . S
Eu2700 O2748 2.291 . S
Eu2700 O2752 2.335 . S
Eu2700 O2755 2.372 . S
Eu2700 C2764 2.787 . S
C2701 N2702 1.365 . S
C2701 C2704 1.405 . S
C2701 C2708 1.448 . S
N2702 C2701 1.365 . S
N2702 C2705 1.319 . S
N2702 Eu2711 2.600 . S
C2703 C2705 1.397 . S
C2703 C2706 1.367 . S
C2703 H2723 0.931 . S
C2704 C2701 1.405 . S
C2704 C2706 1.403 . S
C2704 C2710 1.439 . S
C2705 N2702 1.319 . S
C2705 C2703 1.397 . S
C2705 H2716 0.930 . S
C2706 C2703 1.367 . S
C2706 C2704 1.403 . S
C2706 H2727 0.929 . S
C2707 C2708 1.430 . S
C2707 C2709 1.387 . S
C2707 C2713 1.404 . S
C2708 C2701 1.448 . S
C2708 C2707 1.430 . S
C2708 N2712 1.351 . S
C2709 C2707 1.387 . S
C2709 C2710 1.374 . S
C2709 H2724 0.931 . S
C2710 C2704 1.439 . S
C2710 C2709 1.374 . S
C2710 H2725 0.931 . S
Eu2711 N2702 2.600 . S
Eu2711 N2712 2.562 . S
Eu2711 O2746 2.335 . S
Eu2711 O2749 2.372 . S
Eu2711 O2750 2.462 . S
Eu2711 O2751 2.373 . S
Eu2711 O2753 2.432 . S
Eu2711 O2754 2.291 . S
Eu2711 C2775 2.787 . S
N2712 C2708 1.351 . S
N2712 Eu2711 2.562 . S
N2712 C2714 1.325 . S
C2713 C2707 1.404 . S
C2713 C2715 1.366 . S
C2713 H2721 0.930 . S
C2714 N2712 1.325 . S
C2714 C2715 1.416 . S
C2714 H2720 0.929 . S
C2715 C2713 1.366 . S
C2715 C2714 1.416 . S
C2715 H2717 0.930 . S
H2716 C2705 0.930 . S
H2717 C2715 0.930 . S
H2718 C2733 0.930 . S
H2719 C2740 0.930 . S
H2720 C2714 0.929 . S
H2721 C2713 0.930 . S
H2722 C2736 0.929 . S
H2723 C2703 0.931 . S
H2724 C2709 0.931 . S
H2725 C2710 0.931 . S
H2726 C2731 0.931 . S
H2727 C2706 0.929 . S
H2728 C2739 0.930 . S
N2729 Eu2700 2.600 . S
N2729 C2730 1.365 . S
N2729 C2733 1.319 . S
C2730 N2729 1.365 . S
C2730 C2732 1.405 . S
C2730 C2738 1.448 . S
C2731 H2726 0.931 . S
C2731 C2733 1.397 . S
C2731 C2734 1.367 . S
C2732 C2730 1.405 . S
C2732 C2734 1.403 . S
C2732 C2765 1.439 . S
C2733 H2718 0.930 . S
C2733 N2729 1.319 . S
C2733 C2731 1.397 . S
C2734 C2731 1.367 . S
C2734 C2732 1.403 . S
C2734 H2741 0.929 . S
N2735 Eu2700 2.562 . S
N2735 C2736 1.325 . S
N2735 C2738 1.351 . S
C2736 H2722 0.929 . S
C2736 N2735 1.325 . S
C2736 C2740 1.416 . S
C2737 C2738 1.430 . S
C2737 C2739 1.404 . S
C2737 C2766 1.387 . S
C2738 C2730 1.448 . S
C2738 N2735 1.351 . S
C2738 C2737 1.430 . S
C2739 H2728 0.930 . S
C2739 C2737 1.404 . S
C2739 C2740 1.366 . S
C2740 H2719 0.930 . S
C2740 C2736 1.416 . S
C2740 C2739 1.366 . S
H2741 C2734 0.929 . S
H2742 C2765 0.931 . S
H2743 C2766 0.931 . S
O2744 Eu2700 2.462 . S
O2744 C2764 1.252 . S
O2745 Eu2700 2.373 . S
O2745 C2756 1.249 . S
O2746 Eu2711 2.335 . S
O2746 C2756 1.264 . S
O2747 Eu2700 2.432 . S
O2747 C2764 1.268 . S
O2748 Eu2700 2.291 . S
O2748 C2763 1.255 . S
O2749 Eu2711 2.372 . S
O2749 C2763 1.257 . S
O2750 Eu2711 2.462 . S
O2750 C2775 1.252 . S
O2751 Eu2711 2.373 . S
O2751 C2767 1.249 . S
O2752 Eu2700 2.335 . S
O2752 C2767 1.264 . S
O2753 Eu2711 2.432 . S
O2753 C2775 1.268 . S
O2754 Eu2711 2.291 . S
O2754 C2774 1.255 . S
O2755 Eu2700 2.372 . S
O2755 C2774 1.257 . S
C2756 O2745 1.249 . S
C2756 O2746 1.264 . S
C2757 C2760 1.382 . S
C2757 C2762 1.390 . S
C2757 C2764 1.506 . S
C2758 C2759 1.398 . S
C2758 C2762 1.392 . S
C2759 C2758 1.398 . S
C2759 C2761 1.372 . S
C2759 H2776 0.931 . S
C2760 C2757 1.382 . S
C2760 C2761 1.390 . S
C2760 H2777 0.931 . S
C2761 C2759 1.372 . S
C2761 C2760 1.390 . S
C2761 H2778 0.929 . S
C2762 C2757 1.390 . S
C2762 C2758 1.392 . S
C2762 H2779 0.930 . S
C2763 O2748 1.255 . S
C2763 O2749 1.257 . S
C2764 Eu2700 2.787 . S
C2764 O2744 1.252 . S
C2764 O2747 1.268 . S
C2764 C2757 1.506 . S
C2765 C2732 1.439 . S
C2765 H2742 0.931 . S
C2765 C2766 1.374 . S
C2766 C2737 1.387 . S
C2766 H2743 0.931 . S
C2766 C2765 1.374 . S
C2767 O2751 1.249 . S
C2767 O2752 1.264 . S
C2768 C2771 1.382 . S
C2768 C2772 1.390 . S
C2768 C2775 1.506 . S
C2769 C2770 1.398 . S
C2769 C2772 1.392 . S
C2770 C2769 1.398 . S
C2770 C2773 1.372 . S
C2770 H2780 0.931 . S
C2771 C2768 1.382 . S
C2771 C2773 1.390 . S
C2771 H2781 0.931 . S
C2772 C2768 1.390 . S
C2772 C2769 1.392 . S
C2772 H2782 0.930 . S
C2773 C2770 1.372 . S
C2773 C2771 1.390 . S
C2773 H2783 0.929 . S
C2774 O2754 1.255 . S
C2774 O2755 1.257 . S
C2775 Eu2711 2.787 . S
C2775 O2750 1.252 . S
C2775 O2753 1.268 . S
C2775 C2768 1.506 . S
H2776 C2759 0.931 . S
H2777 C2760 0.931 . S
H2778 C2761 0.929 . S
H2779 C2762 0.930 . S
H2780 C2770 0.931 . S
H2781 C2771 0.931 . S
H2782 C2772 0.930 . S
H2783 C2773 0.929 . S
Eu2784 N2813 2.600 1_554 S
Eu2784 N2819 2.562 1_554 S
Eu2784 O2828 2.462 . S
Eu2784 O2829 2.373 1_554 S
Eu2784 O2831 2.432 . S
Eu2784 O2832 2.291 . S
Eu2784 O2836 2.335 . S
Eu2784 O2839 2.372 . S
Eu2784 C2848 2.787 . S
C2785 N2786 1.365 . S
C2785 C2788 1.405 . S
C2785 C2792 1.448 . S
N2786 C2785 1.365 . S
N2786 C2789 1.319 . S
N2786 Eu2795 2.600 . S
C2787 C2789 1.397 . S
C2787 C2790 1.367 . S
C2787 H2807 0.931 . S
C2788 C2785 1.405 . S
C2788 C2790 1.403 . S
C2788 C2794 1.439 . S
C2789 N2786 1.319 . S
C2789 C2787 1.397 . S
C2789 H2800 0.930 . S
C2790 C2787 1.367 . S
C2790 C2788 1.403 . S
C2790 H2811 0.929 . S
C2791 C2792 1.430 . S
C2791 C2793 1.387 . S
C2791 C2797 1.404 . S
C2792 C2785 1.448 . S
C2792 C2791 1.430 . S
C2792 N2796 1.351 . S
C2793 C2791 1.387 . S
C2793 C2794 1.374 . S
C2793 H2808 0.931 . S
C2794 C2788 1.439 . S
C2794 C2793 1.374 . S
C2794 H2809 0.931 . S
Eu2795 N2786 2.600 . S
Eu2795 N2796 2.562 . S
Eu2795 O2830 2.335 1_554 S
Eu2795 O2833 2.372 . S
Eu2795 O2834 2.462 . S
Eu2795 O2835 2.373 . S
Eu2795 O2837 2.432 . S
Eu2795 O2838 2.291 . S
Eu2795 C2859 2.787 . S
N2796 C2792 1.351 . S
N2796 Eu2795 2.562 . S
N2796 C2798 1.325 . S
C2797 C2791 1.404 . S
C2797 C2799 1.366 . S
C2797 H2805 0.930 . S
C2798 N2796 1.325 . S
C2798 C2799 1.416 . S
C2798 H2804 0.929 . S
C2799 C2797 1.366 . S
C2799 C2798 1.416 . S
C2799 H2801 0.930 . S
H2800 C2789 0.930 . S
H2801 C2799 0.930 . S
H2802 C2817 0.930 1_554 S
H2803 C2824 0.930 . S
H2804 C2798 0.929 . S
H2805 C2797 0.930 . S
H2806 C2820 0.929 1_554 S
H2807 C2787 0.931 . S
H2808 C2793 0.931 . S
H2809 C2794 0.931 . S
H2810 C2815 0.931 . S
H2811 C2790 0.929 . S
H2812 C2823 0.930 . S
N2813 Eu2784 2.600 1_556 S
N2813 C2814 1.365 . S
N2813 C2817 1.319 . S
C2814 N2813 1.365 . S
C2814 C2816 1.405 . S
C2814 C2822 1.448 . S
C2815 H2810 0.931 . S
C2815 C2817 1.397 . S
C2815 C2818 1.367 . S
C2816 C2814 1.405 . S
C2816 C2818 1.403 . S
C2816 C2849 1.439 . S
C2817 H2802 0.930 1_556 S
C2817 N2813 1.319 . S
C2817 C2815 1.397 . S
C2818 C2815 1.367 . S
C2818 C2816 1.403 . S
C2818 H2825 0.929 . S
N2819 Eu2784 2.562 1_556 S
N2819 C2820 1.325 . S
N2819 C2822 1.351 . S
C2820 H2806 0.929 1_556 S
C2820 N2819 1.325 . S
C2820 C2824 1.416 . S
C2821 C2822 1.430 . S
C2821 C2823 1.404 . S
C2821 C2850 1.387 . S
C2822 C2814 1.448 . S
C2822 N2819 1.351 . S
C2822 C2821 1.430 . S
C2823 H2812 0.930 . S
C2823 C2821 1.404 . S
C2823 C2824 1.366 . S
C2824 H2803 0.930 . S
C2824 C2820 1.416 . S
C2824 C2823 1.366 . S
H2825 C2818 0.929 . S
H2826 C2849 0.931 . S
H2827 C2850 0.931 . S
O2828 Eu2784 2.462 . S
O2828 C2848 1.252 . S
O2829 Eu2784 2.373 1_556 S
O2829 C2840 1.249 . S
O2830 Eu2795 2.335 1_556 S
O2830 C2840 1.264 . S
O2831 Eu2784 2.432 . S
O2831 C2848 1.268 . S
O2832 Eu2784 2.291 . S
O2832 C2847 1.255 . S
O2833 Eu2795 2.372 . S
O2833 C2847 1.257 . S
O2834 Eu2795 2.462 . S
O2834 C2859 1.252 . S
O2835 Eu2795 2.373 . S
O2835 C2851 1.249 . S
O2836 Eu2784 2.335 . S
O2836 C2851 1.264 . S
O2837 Eu2795 2.432 . S
O2837 C2859 1.268 . S
O2838 Eu2795 2.291 . S
O2838 C2858 1.255 . S
O2839 Eu2784 2.372 . S
O2839 C2858 1.257 . S
C2840 O2829 1.249 . S
C2840 O2830 1.264 . S
C2841 C2844 1.382 . S
C2841 C2846 1.390 . S
C2841 C2848 1.506 . S
C2842 C2843 1.398 . S
C2842 C2846 1.392 . S
C2843 C2842 1.398 . S
C2843 C2845 1.372 . S
C2843 H2860 0.931 . S
C2844 C2841 1.382 . S
C2844 C2845 1.390 . S
C2844 H2861 0.931 . S
C2845 C2843 1.372 . S
C2845 C2844 1.390 . S
C2845 H2862 0.929 . S
C2846 C2841 1.390 . S
C2846 C2842 1.392 . S
C2846 H2863 0.930 . S
C2847 O2832 1.255 . S
C2847 O2833 1.257 . S
C2848 Eu2784 2.787 . S
C2848 O2828 1.252 . S
C2848 O2831 1.268 . S
C2848 C2841 1.506 . S
C2849 C2816 1.439 . S
C2849 H2826 0.931 . S
C2849 C2850 1.374 . S
C2850 C2821 1.387 . S
C2850 H2827 0.931 . S
C2850 C2849 1.374 . S
C2851 O2835 1.249 . S
C2851 O2836 1.264 . S
C2852 C2855 1.382 . S
C2852 C2856 1.390 . S
C2852 C2859 1.506 1_556 S
C2853 C2854 1.398 . S
C2853 C2856 1.392 . S
C2854 C2853 1.398 . S
C2854 C2857 1.372 . S
C2854 H2864 0.931 . S
C2855 C2852 1.382 . S
C2855 C2857 1.390 . S
C2855 H2865 0.931 . S
C2856 C2852 1.390 . S
C2856 C2853 1.392 . S
C2856 H2866 0.930 . S
C2857 C2854 1.372 . S
C2857 C2855 1.390 . S
C2857 H2867 0.929 . S
C2858 O2838 1.255 . S
C2858 O2839 1.257 . S
C2859 Eu2795 2.787 . S
C2859 O2834 1.252 . S
C2859 O2837 1.268 . S
C2859 C2852 1.506 1_554 S
H2860 C2843 0.931 . S
H2861 C2844 0.931 . S
H2862 C2845 0.929 . S
H2863 C2846 0.930 . S
H2864 C2854 0.931 . S
H2865 C2855 0.931 . S
H2866 C2856 0.930 . S
H2867 C2857 0.929 . S
Eu2868 N2897 2.600 . S
Eu2868 N2903 2.562 . S
Eu2868 O2912 2.462 . S
Eu2868 O2913 2.373 . S
Eu2868 O2915 2.432 . S
Eu2868 O2916 2.291 . S
Eu2868 O2920 2.335 . S
Eu2868 O2923 2.372 . S
Eu2868 C2932 2.787 . S
C2869 N2870 1.365 . S
C2869 C2872 1.405 . S
C2869 C2876 1.448 . S
N2870 C2869 1.365 . S
N2870 C2873 1.319 . S
N2870 Eu2879 2.600 . S
C2871 C2873 1.397 . S
C2871 C2874 1.367 . S
C2871 H2891 0.931 . S
C2872 C2869 1.405 . S
C2872 C2874 1.403 . S
C2872 C2878 1.439 . S
C2873 N2870 1.319 . S
C2873 C2871 1.397 . S
C2873 H2884 0.930 . S
C2874 C2871 1.367 . S
C2874 C2872 1.403 . S
C2874 H2895 0.929 . S
C2875 C2876 1.430 . S
C2875 C2877 1.387 . S
C2875 C2881 1.404 . S
C2876 C2869 1.448 . S
C2876 C2875 1.430 . S
C2876 N2880 1.351 . S
C2877 C2875 1.387 . S
C2877 C2878 1.374 . S
C2877 H2892 0.931 . S
C2878 C2872 1.439 . S
C2878 C2877 1.374 . S
C2878 H2893 0.931 . S
Eu2879 N2870 2.600 . S
Eu2879 N2880 2.562 . S
Eu2879 O2914 2.335 . S
Eu2879 O2917 2.372 . S
Eu2879 O2918 2.462 . S
Eu2879 O2919 2.373 . S
Eu2879 O2921 2.432 . S
Eu2879 O2922 2.291 . S
Eu2879 C2943 2.787 . S
N2880 C2876 1.351 . S
N2880 Eu2879 2.562 . S
N2880 C2882 1.325 . S
C2881 C2875 1.404 . S
C2881 C2883 1.366 . S
C2881 H2889 0.930 . S
C2882 N2880 1.325 . S
C2882 C2883 1.416 . S
C2882 H2888 0.929 . S
C2883 C2881 1.366 . S
C2883 C2882 1.416 . S
C2883 H2885 0.930 . S
H2884 C2873 0.930 . S
H2885 C2883 0.930 . S
H2886 C2901 0.930 . S
H2887 C2908 0.930 . S
H2888 C2882 0.929 . S
H2889 C2881 0.930 . S
H2890 C2904 0.929 . S
H2891 C2871 0.931 . S
H2892 C2877 0.931 . S
H2893 C2878 0.931 . S
H2894 C2899 0.931 . S
H2895 C2874 0.929 . S
H2896 C2907 0.930 . S
N2897 Eu2868 2.600 . S
N2897 C2898 1.365 . S
N2897 C2901 1.319 . S
C2898 N2897 1.365 . S
C2898 C2900 1.405 . S
C2898 C2906 1.448 . S
C2899 H2894 0.931 . S
C2899 C2901 1.397 . S
C2899 C2902 1.367 . S
C2900 C2898 1.405 . S
C2900 C2902 1.403 . S
C2900 C2933 1.439 . S
C2901 H2886 0.930 . S
C2901 N2897 1.319 . S
C2901 C2899 1.397 . S
C2902 C2899 1.367 . S
C2902 C2900 1.403 . S
C2902 H2909 0.929 . S
N2903 Eu2868 2.562 . S
N2903 C2904 1.325 . S
N2903 C2906 1.351 . S
C2904 H2890 0.929 . S
C2904 N2903 1.325 . S
C2904 C2908 1.416 . S
C2905 C2906 1.430 . S
C2905 C2907 1.404 . S
C2905 C2934 1.387 . S
C2906 C2898 1.448 . S
C2906 N2903 1.351 . S
C2906 C2905 1.430 . S
C2907 H2896 0.930 . S
C2907 C2905 1.404 . S
C2907 C2908 1.366 . S
C2908 H2887 0.930 . S
C2908 C2904 1.416 . S
C2908 C2907 1.366 . S
H2909 C2902 0.929 . S
H2910 C2933 0.931 . S
H2911 C2934 0.931 . S
O2912 Eu2868 2.462 . S
O2912 C2932 1.252 . S
O2913 Eu2868 2.373 . S
O2913 C2924 1.249 . S
O2914 Eu2879 2.335 . S
O2914 C2924 1.264 . S
O2915 Eu2868 2.432 . S
O2915 C2932 1.268 . S
O2916 Eu2868 2.291 . S
O2916 C2931 1.255 . S
O2917 Eu2879 2.372 . S
O2917 C2931 1.257 . S
O2918 Eu2879 2.462 . S
O2918 C2943 1.252 . S
O2919 Eu2879 2.373 . S
O2919 C2935 1.249 . S
O2920 Eu2868 2.335 . S
O2920 C2935 1.264 . S
O2921 Eu2879 2.432 . S
O2921 C2943 1.268 . S
O2922 Eu2879 2.291 . S
O2922 C2942 1.255 . S
O2923 Eu2868 2.372 . S
O2923 C2942 1.257 . S
C2924 O2913 1.249 . S
C2924 O2914 1.264 . S
C2925 C2928 1.382 . S
C2925 C2930 1.390 . S
C2925 C2932 1.506 . S
C2926 C2927 1.398 . S
C2926 C2930 1.392 . S
C2927 C2926 1.398 . S
C2927 C2929 1.372 . S
C2927 H2944 0.931 . S
C2928 C2925 1.382 . S
C2928 C2929 1.390 . S
C2928 H2945 0.931 . S
C2929 C2927 1.372 . S
C2929 C2928 1.390 . S
C2929 H2946 0.929 . S
C2930 C2925 1.390 . S
C2930 C2926 1.392 . S
C2930 H2947 0.930 . S
C2931 O2916 1.255 . S
C2931 O2917 1.257 . S
C2932 Eu2868 2.787 . S
C2932 O2912 1.252 . S
C2932 O2915 1.268 . S
C2932 C2925 1.506 . S
C2933 C2900 1.439 . S
C2933 H2910 0.931 . S
C2933 C2934 1.374 . S
C2934 C2905 1.387 . S
C2934 H2911 0.931 . S
C2934 C2933 1.374 . S
C2935 O2919 1.249 . S
C2935 O2920 1.264 . S
C2936 C2939 1.382 . S
C2936 C2940 1.390 . S
C2936 C2943 1.506 . S
C2937 C2938 1.398 . S
C2937 C2940 1.392 . S
C2938 C2937 1.398 . S
C2938 C2941 1.372 . S
C2938 H2948 0.931 . S
C2939 C2936 1.382 . S
C2939 C2941 1.390 . S
C2939 H2949 0.931 . S
C2940 C2936 1.390 . S
C2940 C2937 1.392 . S
C2940 H2950 0.930 . S
C2941 C2938 1.372 . S
C2941 C2939 1.390 . S
C2941 H2951 0.929 . S
C2942 O2922 1.255 . S
C2942 O2923 1.257 . S
C2943 Eu2879 2.787 . S
C2943 O2918 1.252 . S
C2943 O2921 1.268 . S
C2943 C2936 1.506 . S
H2944 C2927 0.931 . S
H2945 C2928 0.931 . S
H2946 C2929 0.929 . S
H2947 C2930 0.930 . S
H2948 C2938 0.931 . S
H2949 C2939 0.931 . S
H2950 C2940 0.930 . S
H2951 C2941 0.929 . S
Eu2952 N2981 2.600 1_455 S
Eu2952 N2987 2.562 1_455 S
Eu2952 O2996 2.462 . S
Eu2952 O2997 2.373 1_455 S
Eu2952 O2999 2.432 . S
Eu2952 O3000 2.291 . S
Eu2952 O3004 2.335 . S
Eu2952 O3007 2.372 . S
Eu2952 C3016 2.787 . S
C2953 N2954 1.365 . S
C2953 C2956 1.405 . S
C2953 C2960 1.448 . S
N2954 C2953 1.365 . S
N2954 C2957 1.319 . S
N2954 Eu2963 2.600 . S
C2955 C2957 1.397 . S
C2955 C2958 1.367 . S
C2955 H2975 0.931 . S
C2956 C2953 1.405 . S
C2956 C2958 1.403 . S
C2956 C2962 1.439 . S
C2957 N2954 1.319 . S
C2957 C2955 1.397 . S
C2957 H2968 0.930 . S
C2958 C2955 1.367 . S
C2958 C2956 1.403 . S
C2958 H2979 0.929 . S
C2959 C2960 1.430 . S
C2959 C2961 1.387 . S
C2959 C2965 1.404 . S
C2960 C2953 1.448 . S
C2960 C2959 1.430 . S
C2960 N2964 1.351 . S
C2961 C2959 1.387 . S
C2961 C2962 1.374 . S
C2961 H2976 0.931 . S
C2962 C2956 1.439 . S
C2962 C2961 1.374 . S
C2962 H2977 0.931 . S
Eu2963 N2954 2.600 . S
Eu2963 N2964 2.562 . S
Eu2963 O2998 2.335 1_455 S
Eu2963 O3001 2.372 . S
Eu2963 O3002 2.462 . S
Eu2963 O3003 2.373 . S
Eu2963 O3005 2.432 . S
Eu2963 O3006 2.291 . S
Eu2963 C3027 2.787 . S
N2964 C2960 1.351 . S
N2964 Eu2963 2.562 . S
N2964 C2966 1.325 . S
C2965 C2959 1.404 . S
C2965 C2967 1.366 . S
C2965 H2973 0.930 . S
C2966 N2964 1.325 . S
C2966 C2967 1.416 . S
C2966 H2972 0.929 . S
C2967 C2965 1.366 . S
C2967 C2966 1.416 . S
C2967 H2969 0.930 . S
H2968 C2957 0.930 . S
H2969 C2967 0.930 . S
H2970 C2985 0.926 . S
H2971 C2992 0.930 . S
H2972 C2966 0.929 . S
H2973 C2965 0.930 . S
H2974 C2988 0.929 1_455 S
H2975 C2955 0.931 . S
H2976 C2961 0.931 . S
H2977 C2962 0.931 . S
H2978 C2983 0.931 . S
H2979 C2958 0.929 . S
H2980 C2991 0.930 . S
N2981 Eu2952 2.600 1_655 S
N2981 C2982 1.365 . S
N2981 C2985 1.318 1_655 S
C2982 N2981 1.365 . S
C2982 C2984 1.405 . S
C2982 C2990 1.448 . S
C2983 H2978 0.931 . S
C2983 C2985 1.402 1_655 S
C2983 C2986 1.367 . S
C2984 C2982 1.405 . S
C2984 C2986 1.403 . S
C2984 C3017 1.439 . S
C2985 H2970 0.926 . S
C2985 N2981 1.318 1_455 S
C2985 C2983 1.402 1_455 S
C2986 C2983 1.367 . S
C2986 C2984 1.403 . S
C2986 H2993 0.929 . S
N2987 Eu2952 2.562 1_655 S
N2987 C2988 1.325 . S
N2987 C2990 1.351 . S
C2988 H2974 0.929 1_655 S
C2988 N2987 1.325 . S
C2988 C2992 1.416 . S
C2989 C2990 1.430 . S
C2989 C2991 1.404 . S
C2989 C3018 1.387 . S
C2990 C2982 1.448 . S
C2990 N2987 1.351 . S
C2990 C2989 1.430 . S
C2991 H2980 0.930 . S
C2991 C2989 1.404 . S
C2991 C2992 1.366 . S
C2992 H2971 0.930 . S
C2992 C2988 1.416 . S
C2992 C2991 1.366 . S
H2993 C2986 0.929 . S
H2994 C3017 0.931 . S
H2995 C3018 0.931 . S
O2996 Eu2952 2.462 . S
O2996 C3016 1.252 . S
O2997 Eu2952 2.373 1_655 S
O2997 C3008 1.249 . S
O2998 Eu2963 2.335 1_655 S
O2998 C3008 1.264 . S
O2999 Eu2952 2.432 . S
O2999 C3016 1.268 . S
O3000 Eu2952 2.291 . S
O3000 C3015 1.255 . S
O3001 Eu2963 2.372 . S
O3001 C3015 1.257 . S
O3002 Eu2963 2.462 . S
O3002 C3027 1.252 . S
O3003 Eu2963 2.373 . S
O3003 C3019 1.249 . S
O3004 Eu2952 2.335 . S
O3004 C3019 1.264 . S
O3005 Eu2963 2.432 . S
O3005 C3027 1.268 . S
O3006 Eu2963 2.291 . S
O3006 C3026 1.255 . S
O3007 Eu2952 2.372 . S
O3007 C3026 1.257 . S
C3008 O2997 1.249 . S
C3008 O2998 1.264 . S
C3009 C3012 1.382 . S
C3009 C3014 1.390 . S
C3009 C3016 1.506 . S
C3010 C3011 1.398 . S
C3010 C3014 1.392 . S
C3011 C3010 1.398 . S
C3011 C3013 1.372 . S
C3011 H3028 0.931 . S
C3012 C3009 1.382 . S
C3012 C3013 1.390 . S
C3012 H3029 0.931 . S
C3013 C3011 1.372 . S
C3013 C3012 1.390 . S
C3013 H3030 0.929 . S
C3014 C3009 1.390 . S
C3014 C3010 1.392 . S
C3014 H3031 0.930 . S
C3015 O3000 1.255 . S
C3015 O3001 1.257 . S
C3016 Eu2952 2.787 . S
C3016 O2996 1.252 . S
C3016 O2999 1.268 . S
C3016 C3009 1.506 . S
C3017 C2984 1.439 . S
C3017 H2994 0.931 . S
C3017 C3018 1.374 . S
C3018 C2989 1.387 . S
C3018 H2995 0.931 . S
C3018 C3017 1.374 . S
C3019 O3003 1.249 . S
C3019 O3004 1.264 . S
C3020 C3023 1.382 . S
C3020 C3024 1.390 . S
C3020 C3027 1.506 1_655 S
C3021 C3022 1.398 . S
C3021 C3024 1.392 . S
C3022 C3021 1.398 . S
C3022 C3025 1.372 . S
C3022 H3032 0.931 . S
C3023 C3020 1.382 . S
C3023 C3025 1.390 . S
C3023 H3033 0.931 . S
C3024 C3020 1.390 . S
C3024 C3021 1.392 . S
C3024 H3034 0.930 . S
C3025 C3022 1.372 . S
C3025 C3023 1.390 . S
C3025 H3035 0.929 . S
C3026 O3006 1.255 . S
C3026 O3007 1.257 . S
C3027 Eu2963 2.787 . S
C3027 O3002 1.252 . S
C3027 O3005 1.268 . S
C3027 C3020 1.506 1_455 S
H3028 C3011 0.931 . S
H3029 C3012 0.931 . S
H3030 C3013 0.929 . S
H3031 C3014 0.930 . S
H3032 C3022 0.931 . S
H3033 C3023 0.931 . S
H3034 C3024 0.930 . S
H3035 C3025 0.929 . S
Eu3036 N3065 2.600 . S
Eu3036 N3071 2.562 . S
Eu3036 O3080 2.462 . S
Eu3036 O3081 2.373 . S
Eu3036 O3083 2.432 . S
Eu3036 O3084 2.291 . S
Eu3036 O3088 2.335 . S
Eu3036 O3091 2.372 . S
Eu3036 C3100 2.787 . S
C3037 N3038 1.365 . S
C3037 C3040 1.405 . S
C3037 C3044 1.448 . S
N3038 C3037 1.365 . S
N3038 C3041 1.319 . S
N3038 Eu3047 2.600 . S
C3039 C3041 1.397 . S
C3039 C3042 1.367 . S
C3039 H3059 0.931 . S
C3040 C3037 1.405 . S
C3040 C3042 1.403 . S
C3040 C3046 1.439 . S
C3041 N3038 1.319 . S
C3041 C3039 1.397 . S
C3041 H3052 0.930 . S
C3042 C3039 1.367 . S
C3042 C3040 1.403 . S
C3042 H3063 0.929 . S
C3043 C3044 1.430 . S
C3043 C3045 1.387 . S
C3043 C3049 1.404 . S
C3044 C3037 1.448 . S
C3044 C3043 1.430 . S
C3044 N3048 1.351 . S
C3045 C3043 1.387 . S
C3045 C3046 1.374 . S
C3045 H3060 0.931 . S
C3046 C3040 1.439 . S
C3046 C3045 1.374 . S
C3046 H3061 0.931 . S
Eu3047 N3038 2.600 . S
Eu3047 N3048 2.562 . S
Eu3047 O3082 2.335 . S
Eu3047 O3085 2.372 . S
Eu3047 O3086 2.462 . S
Eu3047 O3087 2.373 . S
Eu3047 O3089 2.432 . S
Eu3047 O3090 2.291 . S
Eu3047 C3111 2.787 . S
N3048 C3044 1.351 . S
N3048 Eu3047 2.562 . S
N3048 C3050 1.325 . S
C3049 C3043 1.404 . S
C3049 C3051 1.366 . S
C3049 H3057 0.930 . S
C3050 N3048 1.325 . S
C3050 C3051 1.416 . S
C3050 H3056 0.929 . S
C3051 C3049 1.366 . S
C3051 C3050 1.416 . S
C3051 H3053 0.930 . S
H3052 C3041 0.930 . S
H3053 C3051 0.930 . S
H3054 C3069 0.930 . S
H3055 C3076 0.930 . S
H3056 C3050 0.929 . S
H3057 C3049 0.930 . S
H3058 C3072 0.929 . S
H3059 C3039 0.931 . S
H3060 C3045 0.931 . S
H3061 C3046 0.931 . S
H3062 C3067 0.931 . S
H3063 C3042 0.929 . S
H3064 C3075 0.930 . S
N3065 Eu3036 2.600 . S
N3065 C3066 1.365 . S
N3065 C3069 1.319 . S
C3066 N3065 1.365 . S
C3066 C3068 1.405 . S
C3066 C3074 1.448 . S
C3067 H3062 0.931 . S
C3067 C3069 1.397 . S
C3067 C3070 1.367 . S
C3068 C3066 1.405 . S
C3068 C3070 1.403 . S
C3068 C3101 1.439 . S
C3069 H3054 0.930 . S
C3069 N3065 1.319 . S
C3069 C3067 1.397 . S
C3070 C3067 1.367 . S
C3070 C3068 1.403 . S
C3070 H3077 0.929 . S
N3071 Eu3036 2.562 . S
N3071 C3072 1.325 . S
N3071 C3074 1.351 . S
C3072 H3058 0.929 . S
C3072 N3071 1.325 . S
C3072 C3076 1.416 . S
C3073 C3074 1.430 . S
C3073 C3075 1.404 . S
C3073 C3102 1.387 . S
C3074 C3066 1.448 . S
C3074 N3071 1.351 . S
C3074 C3073 1.430 . S
C3075 H3064 0.930 . S
C3075 C3073 1.404 . S
C3075 C3076 1.366 . S
C3076 H3055 0.930 . S
C3076 C3072 1.416 . S
C3076 C3075 1.366 . S
H3077 C3070 0.929 . S
H3078 C3101 0.931 . S
H3079 C3102 0.931 . S
O3080 Eu3036 2.462 . S
O3080 C3100 1.252 . S
O3081 Eu3036 2.373 . S
O3081 C3092 1.249 . S
O3082 Eu3047 2.335 . S
O3082 C3092 1.264 . S
O3083 Eu3036 2.432 . S
O3083 C3100 1.268 . S
O3084 Eu3036 2.291 . S
O3084 C3099 1.255 . S
O3085 Eu3047 2.372 . S
O3085 C3099 1.257 . S
O3086 Eu3047 2.462 . S
O3086 C3111 1.252 . S
O3087 Eu3047 2.373 . S
O3087 C3103 1.249 . S
O3088 Eu3036 2.335 . S
O3088 C3103 1.264 . S
O3089 Eu3047 2.432 . S
O3089 C3111 1.268 . S
O3090 Eu3047 2.291 . S
O3090 C3110 1.255 . S
O3091 Eu3036 2.372 . S
O3091 C3110 1.257 . S
C3092 O3081 1.249 . S
C3092 O3082 1.264 . S
C3093 C3096 1.382 . S
C3093 C3098 1.390 . S
C3093 C3100 1.506 . S
C3094 C3095 1.398 . S
C3094 C3098 1.392 . S
C3095 C3094 1.398 . S
C3095 C3097 1.372 . S
C3095 H3112 0.931 . S
C3096 C3093 1.382 . S
C3096 C3097 1.390 . S
C3096 H3113 0.931 . S
C3097 C3095 1.372 . S
C3097 C3096 1.390 . S
C3097 H3114 0.929 . S
C3098 C3093 1.390 . S
C3098 C3094 1.392 . S
C3098 H3115 0.930 . S
C3099 O3084 1.255 . S
C3099 O3085 1.257 . S
C3100 Eu3036 2.787 . S
C3100 O3080 1.252 . S
C3100 O3083 1.268 . S
C3100 C3093 1.506 . S
C3101 C3068 1.439 . S
C3101 H3078 0.931 . S
C3101 C3102 1.374 . S
C3102 C3073 1.387 . S
C3102 H3079 0.931 . S
C3102 C3101 1.374 . S
C3103 O3087 1.249 . S
C3103 O3088 1.264 . S
C3104 C3107 1.382 . S
C3104 C3108 1.390 . S
C3104 C3111 1.506 . S
C3105 C3106 1.398 . S
C3105 C3108 1.392 . S
C3106 C3105 1.398 . S
C3106 C3109 1.372 . S
C3106 H3116 0.931 . S
C3107 C3104 1.382 . S
C3107 C3109 1.390 . S
C3107 H3117 0.931 . S
C3108 C3104 1.390 . S
C3108 C3105 1.392 . S
C3108 H3118 0.930 . S
C3109 C3106 1.372 . S
C3109 C3107 1.390 . S
C3109 H3119 0.929 . S
C3110 O3090 1.255 . S
C3110 O3091 1.257 . S
C3111 Eu3047 2.787 . S
C3111 O3086 1.252 . S
C3111 O3089 1.268 . S
C3111 C3104 1.506 . S
H3112 C3095 0.931 . S
H3113 C3096 0.931 . S
H3114 C3097 0.929 . S
H3115 C3098 0.930 . S
H3116 C3106 0.931 . S
H3117 C3107 0.931 . S
H3118 C3108 0.930 . S
H3119 C3109 0.929 . S
Eu3120 N3149 2.600 . S
Eu3120 N3155 2.562 . S
Eu3120 O3164 2.462 . S
Eu3120 O3165 2.373 . S
Eu3120 O3167 2.432 . S
Eu3120 O3168 2.291 . S
Eu3120 O3172 2.335 . S
Eu3120 O3175 2.372 . S
Eu3120 C3184 2.787 . S
C3121 N3122 1.365 . S
C3121 C3124 1.405 . S
C3121 C3128 1.448 . S
N3122 C3121 1.365 . S
N3122 C3125 1.319 . S
N3122 Eu3131 2.600 . S
C3123 C3125 1.397 . S
C3123 C3126 1.367 . S
C3123 H3143 0.931 . S
C3124 C3121 1.405 . S
C3124 C3126 1.403 . S
C3124 C3130 1.439 . S
C3125 N3122 1.319 . S
C3125 C3123 1.397 . S
C3125 H3136 0.930 . S
C3126 C3123 1.367 . S
C3126 C3124 1.403 . S
C3126 H3147 0.929 . S
C3127 C3128 1.430 . S
C3127 C3129 1.387 . S
C3127 C3133 1.404 . S
C3128 C3121 1.448 . S
C3128 C3127 1.430 . S
C3128 N3132 1.351 . S
C3129 C3127 1.387 . S
C3129 C3130 1.374 . S
C3129 H3144 0.931 . S
C3130 C3124 1.439 . S
C3130 C3129 1.374 . S
C3130 H3145 0.931 . S
Eu3131 N3122 2.600 . S
Eu3131 N3132 2.562 . S
Eu3131 O3166 2.335 . S
Eu3131 O3169 2.372 . S
Eu3131 O3170 2.462 . S
Eu3131 O3171 2.373 . S
Eu3131 O3173 2.432 . S
Eu3131 O3174 2.291 . S
Eu3131 C3195 2.787 . S
N3132 C3128 1.351 . S
N3132 Eu3131 2.562 . S
N3132 C3134 1.325 . S
C3133 C3127 1.404 . S
C3133 C3135 1.366 . S
C3133 H3141 0.930 . S
C3134 N3132 1.325 . S
C3134 C3135 1.416 . S
C3134 H3140 0.929 . S
C3135 C3133 1.366 . S
C3135 C3134 1.416 . S
C3135 H3137 0.930 . S
H3136 C3125 0.930 . S
H3137 C3135 0.930 . S
H3138 C3153 0.930 . S
H3139 C3160 0.930 . S
H3140 C3134 0.929 . S
H3141 C3133 0.930 . S
H3142 C3156 0.929 . S
H3143 C3123 0.931 . S
H3144 C3129 0.931 . S
H3145 C3130 0.931 . S
H3146 C3151 0.931 . S
H3147 C3126 0.929 . S
H3148 C3159 0.930 . S
N3149 Eu3120 2.600 . S
N3149 C3150 1.365 . S
N3149 C3153 1.319 . S
C3150 N3149 1.365 . S
C3150 C3152 1.405 . S
C3150 C3158 1.448 . S
C3151 H3146 0.931 . S
C3151 C3153 1.397 . S
C3151 C3154 1.367 . S
C3152 C3150 1.405 . S
C3152 C3154 1.403 . S
C3152 C3185 1.439 . S
C3153 H3138 0.930 . S
C3153 N3149 1.319 . S
C3153 C3151 1.397 . S
C3154 C3151 1.367 . S
C3154 C3152 1.403 . S
C3154 H3161 0.929 . S
N3155 Eu3120 2.562 . S
N3155 C3156 1.325 . S
N3155 C3158 1.351 . S
C3156 H3142 0.929 . S
C3156 N3155 1.325 . S
C3156 C3160 1.416 . S
C3157 C3158 1.430 . S
C3157 C3159 1.404 . S
C3157 C3186 1.387 . S
C3158 C3150 1.448 . S
C3158 N3155 1.351 . S
C3158 C3157 1.430 . S
C3159 H3148 0.930 . S
C3159 C3157 1.404 . S
C3159 C3160 1.366 . S
C3160 H3139 0.930 . S
C3160 C3156 1.416 . S
C3160 C3159 1.366 . S
H3161 C3154 0.929 . S
H3162 C3185 0.931 . S
H3163 C3186 0.931 . S
O3164 Eu3120 2.462 . S
O3164 C3184 1.252 . S
O3165 Eu3120 2.373 . S
O3165 C3176 1.249 . S
O3166 Eu3131 2.335 . S
O3166 C3176 1.264 . S
O3167 Eu3120 2.432 . S
O3167 C3184 1.268 . S
O3168 Eu3120 2.291 . S
O3168 C3183 1.255 . S
O3169 Eu3131 2.372 . S
O3169 C3183 1.257 . S
O3170 Eu3131 2.462 . S
O3170 C3195 1.252 . S
O3171 Eu3131 2.373 . S
O3171 C3187 1.249 . S
O3172 Eu3120 2.335 . S
O3172 C3187 1.264 . S
O3173 Eu3131 2.432 . S
O3173 C3195 1.268 . S
O3174 Eu3131 2.291 . S
O3174 C3194 1.255 . S
O3175 Eu3120 2.372 . S
O3175 C3194 1.257 . S
C3176 O3165 1.249 . S
C3176 O3166 1.264 . S
C3177 C3180 1.382 . S
C3177 C3182 1.390 . S
C3177 C3184 1.506 . S
C3178 C3179 1.398 . S
C3178 C3182 1.392 . S
C3179 C3178 1.398 . S
C3179 C3181 1.372 . S
C3179 H3196 0.931 . S
C3180 C3177 1.382 . S
C3180 C3181 1.390 . S
C3180 H3197 0.931 . S
C3181 C3179 1.372 . S
C3181 C3180 1.390 . S
C3181 H3198 0.929 . S
C3182 C3177 1.390 . S
C3182 C3178 1.392 . S
C3182 H3199 0.930 . S
C3183 O3168 1.255 . S
C3183 O3169 1.257 . S
C3184 Eu3120 2.787 . S
C3184 O3164 1.252 . S
C3184 O3167 1.268 . S
C3184 C3177 1.506 . S
C3185 C3152 1.439 . S
C3185 H3162 0.931 . S
C3185 C3186 1.374 . S
C3186 C3157 1.387 . S
C3186 H3163 0.931 . S
C3186 C3185 1.374 . S
C3187 O3171 1.249 . S
C3187 O3172 1.264 . S
C3188 C3191 1.382 . S
C3188 C3192 1.390 . S
C3188 C3195 1.506 . S
C3189 C3190 1.398 . S
C3189 C3192 1.392 . S
C3190 C3189 1.398 . S
C3190 C3193 1.372 . S
C3190 H3200 0.931 . S
C3191 C3188 1.382 . S
C3191 C3193 1.390 . S
C3191 H3201 0.931 . S
C3192 C3188 1.390 . S
C3192 C3189 1.392 . S
C3192 H3202 0.930 . S
C3193 C3190 1.372 . S
C3193 C3191 1.390 . S
C3193 H3203 0.929 . S
C3194 O3174 1.255 . S
C3194 O3175 1.257 . S
C3195 Eu3131 2.787 . S
C3195 O3170 1.252 . S
C3195 O3173 1.268 . S
C3195 C3188 1.506 . S
H3196 C3179 0.931 . S
H3197 C3180 0.931 . S
H3198 C3181 0.929 . S
H3199 C3182 0.930 . S
H3200 C3190 0.931 . S
H3201 C3191 0.931 . S
H3202 C3192 0.930 . S
H3203 C3193 0.929 . S
Eu3204 N3233 2.600 . S
Eu3204 N3239 2.562 . S
Eu3204 O3248 2.462 . S
Eu3204 O3249 2.373 . S
Eu3204 O3251 2.432 . S
Eu3204 O3252 2.291 . S
Eu3204 O3256 2.335 . S
Eu3204 O3259 2.372 . S
Eu3204 C3268 2.787 . S
C3205 N3206 1.365 . S
C3205 C3208 1.405 . S
C3205 C3212 1.448 . S
N3206 C3205 1.365 . S
N3206 C3209 1.319 . S
N3206 Eu3215 2.600 . S
C3207 C3209 1.397 . S
C3207 C3210 1.367 . S
C3207 H3227 0.931 . S
C3208 C3205 1.405 . S
C3208 C3210 1.403 . S
C3208 C3214 1.439 . S
C3209 N3206 1.319 . S
C3209 C3207 1.397 . S
C3209 H3220 0.930 . S
C3210 C3207 1.367 . S
C3210 C3208 1.403 . S
C3210 H3231 0.929 . S
C3211 C3212 1.430 . S
C3211 C3213 1.387 . S
C3211 C3217 1.404 . S
C3212 C3205 1.448 . S
C3212 C3211 1.430 . S
C3212 N3216 1.351 . S
C3213 C3211 1.387 . S
C3213 C3214 1.374 . S
C3213 H3228 0.931 . S
C3214 C3208 1.439 . S
C3214 C3213 1.374 . S
C3214 H3229 0.931 . S
Eu3215 N3206 2.600 . S
Eu3215 N3216 2.562 . S
Eu3215 O3250 2.335 . S
Eu3215 O3253 2.372 . S
Eu3215 O3254 2.462 . S
Eu3215 O3255 2.373 . S
Eu3215 O3257 2.432 . S
Eu3215 O3258 2.291 . S
Eu3215 C3279 2.787 . S
N3216 C3212 1.351 . S
N3216 Eu3215 2.562 . S
N3216 C3218 1.325 . S
C3217 C3211 1.404 . S
C3217 C3219 1.366 . S
C3217 H3225 0.930 . S
C3218 N3216 1.325 . S
C3218 C3219 1.416 . S
C3218 H3224 0.929 . S
C3219 C3217 1.366 . S
C3219 C3218 1.416 . S
C3219 H3221 0.930 . S
H3220 C3209 0.930 . S
H3221 C3219 0.930 . S
H3222 C3237 0.930 . S
H3223 C3244 0.930 . S
H3224 C3218 0.929 . S
H3225 C3217 0.930 . S
H3226 C3240 0.929 . S
H3227 C3207 0.931 . S
H3228 C3213 0.931 . S
H3229 C3214 0.931 . S
H3230 C3235 0.931 . S
H3231 C3210 0.929 . S
H3232 C3243 0.930 . S
N3233 Eu3204 2.600 . S
N3233 C3234 1.365 . S
N3233 C3237 1.319 . S
C3234 N3233 1.365 . S
C3234 C3236 1.405 . S
C3234 C3242 1.448 . S
C3235 H3230 0.931 . S
C3235 C3237 1.397 . S
C3235 C3238 1.367 . S
C3236 C3234 1.405 . S
C3236 C3238 1.403 . S
C3236 C3269 1.439 . S
C3237 H3222 0.930 . S
C3237 N3233 1.319 . S
C3237 C3235 1.397 . S
C3238 C3235 1.367 . S
C3238 C3236 1.403 . S
C3238 H3245 0.929 . S
N3239 Eu3204 2.562 . S
N3239 C3240 1.325 . S
N3239 C3242 1.351 . S
C3240 H3226 0.929 . S
C3240 N3239 1.325 . S
C3240 C3244 1.416 . S
C3241 C3242 1.430 . S
C3241 C3243 1.404 . S
C3241 C3270 1.387 . S
C3242 C3234 1.448 . S
C3242 N3239 1.351 . S
C3242 C3241 1.430 . S
C3243 H3232 0.930 . S
C3243 C3241 1.404 . S
C3243 C3244 1.366 . S
C3244 H3223 0.930 . S
C3244 C3240 1.416 . S
C3244 C3243 1.366 . S
H3245 C3238 0.929 . S
H3246 C3269 0.931 . S
H3247 C3270 0.931 . S
O3248 Eu3204 2.462 . S
O3248 C3268 1.252 . S
O3249 Eu3204 2.373 . S
O3249 C3260 1.249 . S
O3250 Eu3215 2.335 . S
O3250 C3260 1.264 . S
O3251 Eu3204 2.432 . S
O3251 C3268 1.268 . S
O3252 Eu3204 2.291 . S
O3252 C3267 1.255 . S
O3253 Eu3215 2.372 . S
O3253 C3267 1.257 . S
O3254 Eu3215 2.462 . S
O3254 C3279 1.252 . S
O3255 Eu3215 2.373 . S
O3255 C3271 1.249 . S
O3256 Eu3204 2.335 . S
O3256 C3271 1.264 . S
O3257 Eu3215 2.432 . S
O3257 C3279 1.268 . S
O3258 Eu3215 2.291 . S
O3258 C3278 1.255 . S
O3259 Eu3204 2.372 . S
O3259 C3278 1.257 . S
C3260 O3249 1.249 . S
C3260 O3250 1.264 . S
C3261 C3264 1.382 . S
C3261 C3266 1.390 . S
C3261 C3268 1.506 . S
C3262 C3263 1.398 . S
C3262 C3266 1.392 . S
C3263 C3262 1.398 . S
C3263 C3265 1.372 . S
C3263 H3280 0.931 . S
C3264 C3261 1.382 . S
C3264 C3265 1.390 . S
C3264 H3281 0.931 . S
C3265 C3263 1.372 . S
C3265 C3264 1.390 . S
C3265 H3282 0.929 . S
C3266 C3261 1.390 . S
C3266 C3262 1.392 . S
C3266 H3283 0.930 . S
C3267 O3252 1.255 . S
C3267 O3253 1.257 . S
C3268 Eu3204 2.787 . S
C3268 O3248 1.252 . S
C3268 O3251 1.268 . S
C3268 C3261 1.506 . S
C3269 C3236 1.439 . S
C3269 H3246 0.931 . S
C3269 C3270 1.374 . S
C3270 C3241 1.387 . S
C3270 H3247 0.931 . S
C3270 C3269 1.374 . S
C3271 O3255 1.249 . S
C3271 O3256 1.264 . S
C3272 C3275 1.382 . S
C3272 C3276 1.390 . S
C3272 C3279 1.506 . S
C3273 C3274 1.398 . S
C3273 C3276 1.392 . S
C3274 C3273 1.398 . S
C3274 C3277 1.372 . S
C3274 H3284 0.931 . S
C3275 C3272 1.382 . S
C3275 C3277 1.390 . S
C3275 H3285 0.931 . S
C3276 C3272 1.390 . S
C3276 C3273 1.392 . S
C3276 H3286 0.930 . S
C3277 C3274 1.372 . S
C3277 C3275 1.390 . S
C3277 H3287 0.929 . S
C3278 O3258 1.255 . S
C3278 O3259 1.257 . S
C3279 Eu3215 2.787 . S
C3279 O3254 1.252 . S
C3279 O3257 1.268 . S
C3279 C3272 1.506 . S
H3280 C3263 0.931 . S
H3281 C3264 0.931 . S
H3282 C3265 0.929 . S
H3283 C3266 0.930 . S
H3284 C3274 0.931 . S
H3285 C3275 0.931 . S
H3286 C3276 0.930 . S
H3287 C3277 0.929 . S
Eu3288 N3317 2.600 . S
Eu3288 N3323 2.562 . S
Eu3288 O3332 2.462 . S
Eu3288 O3333 2.373 . S
Eu3288 O3335 2.432 . S
Eu3288 O3336 2.291 . S
Eu3288 O3340 2.335 . S
Eu3288 O3343 2.372 . S
Eu3288 C3352 2.787 . S
C3289 N3290 1.365 . S
C3289 C3292 1.405 . S
C3289 C3296 1.448 . S
N3290 C3289 1.365 . S
N3290 C3293 1.319 . S
N3290 Eu3299 2.600 . S
C3291 C3293 1.397 . S
C3291 C3294 1.367 . S
C3291 H3311 0.931 . S
C3292 C3289 1.405 . S
C3292 C3294 1.403 . S
C3292 C3298 1.439 . S
C3293 N3290 1.319 . S
C3293 C3291 1.397 . S
C3293 H3304 0.930 . S
C3294 C3291 1.367 . S
C3294 C3292 1.403 . S
C3294 H3315 0.929 . S
C3295 C3296 1.430 . S
C3295 C3297 1.387 . S
C3295 C3301 1.404 . S
C3296 C3289 1.448 . S
C3296 C3295 1.430 . S
C3296 N3300 1.351 . S
C3297 C3295 1.387 . S
C3297 C3298 1.374 . S
C3297 H3312 0.931 . S
C3298 C3292 1.439 . S
C3298 C3297 1.374 . S
C3298 H3313 0.931 . S
Eu3299 N3290 2.600 . S
Eu3299 N3300 2.562 . S
Eu3299 O3334 2.335 . S
Eu3299 O3337 2.372 . S
Eu3299 O3338 2.462 . S
Eu3299 O3339 2.373 . S
Eu3299 O3341 2.432 . S
Eu3299 O3342 2.291 . S
Eu3299 C3363 2.787 . S
N3300 C3296 1.351 . S
N3300 Eu3299 2.562 . S
N3300 C3302 1.325 . S
C3301 C3295 1.404 . S
C3301 C3303 1.366 . S
C3301 H3309 0.930 . S
C3302 N3300 1.325 . S
C3302 C3303 1.416 . S
C3302 H3308 0.929 . S
C3303 C3301 1.366 . S
C3303 C3302 1.416 . S
C3303 H3305 0.930 . S
H3304 C3293 0.930 . S
H3305 C3303 0.930 . S
H3306 C3321 0.930 . S
H3307 C3328 0.930 . S
H3308 C3302 0.929 . S
H3309 C3301 0.930 . S
H3310 C3324 0.929 . S
H3311 C3291 0.931 . S
H3312 C3297 0.931 . S
H3313 C3298 0.931 . S
H3314 C3319 0.931 . S
H3315 C3294 0.929 . S
H3316 C3327 0.930 . S
N3317 Eu3288 2.600 . S
N3317 C3318 1.365 . S
N3317 C3321 1.319 . S
C3318 N3317 1.365 . S
C3318 C3320 1.405 . S
C3318 C3326 1.448 . S
C3319 H3314 0.931 . S
C3319 C3321 1.397 . S
C3319 C3322 1.367 . S
C3320 C3318 1.405 . S
C3320 C3322 1.403 . S
C3320 C3353 1.439 . S
C3321 H3306 0.930 . S
C3321 N3317 1.319 . S
C3321 C3319 1.397 . S
C3322 C3319 1.367 . S
C3322 C3320 1.403 . S
C3322 H3329 0.929 . S
N3323 Eu3288 2.562 . S
N3323 C3324 1.325 . S
N3323 C3326 1.351 . S
C3324 H3310 0.929 . S
C3324 N3323 1.325 . S
C3324 C3328 1.416 . S
C3325 C3326 1.430 . S
C3325 C3327 1.404 . S
C3325 C3354 1.387 . S
C3326 C3318 1.448 . S
C3326 N3323 1.351 . S
C3326 C3325 1.430 . S
C3327 H3316 0.930 . S
C3327 C3325 1.404 . S
C3327 C3328 1.366 . S
C3328 H3307 0.930 . S
C3328 C3324 1.416 . S
C3328 C3327 1.366 . S
H3329 C3322 0.929 . S
H3330 C3353 0.931 . S
H3331 C3354 0.931 . S
O3332 Eu3288 2.462 . S
O3332 C3352 1.252 . S
O3333 Eu3288 2.373 . S
O3333 C3344 1.249 . S
O3334 Eu3299 2.335 . S
O3334 C3344 1.264 . S
O3335 Eu3288 2.432 . S
O3335 C3352 1.268 . S
O3336 Eu3288 2.291 . S
O3336 C3351 1.255 . S
O3337 Eu3299 2.372 . S
O3337 C3351 1.257 . S
O3338 Eu3299 2.462 . S
O3338 C3363 1.252 . S
O3339 Eu3299 2.373 . S
O3339 C3355 1.249 . S
O3340 Eu3288 2.335 . S
O3340 C3355 1.264 . S
O3341 Eu3299 2.432 . S
O3341 C3363 1.268 . S
O3342 Eu3299 2.291 . S
O3342 C3362 1.255 . S
O3343 Eu3288 2.372 . S
O3343 C3362 1.257 . S
C3344 O3333 1.249 . S
C3344 O3334 1.264 . S
C3345 C3348 1.382 . S
C3345 C3350 1.390 . S
C3345 C3352 1.506 . S
C3346 C3347 1.398 . S
C3346 C3350 1.392 . S
C3347 C3346 1.398 . S
C3347 C3349 1.372 . S
C3347 H3364 0.931 . S
C3348 C3345 1.382 . S
C3348 C3349 1.390 . S
C3348 H3365 0.931 . S
C3349 C3347 1.372 . S
C3349 C3348 1.390 . S
C3349 H3366 0.929 . S
C3350 C3345 1.390 . S
C3350 C3346 1.392 . S
C3350 H3367 0.930 . S
C3351 O3336 1.255 . S
C3351 O3337 1.257 . S
C3352 Eu3288 2.787 . S
C3352 O3332 1.252 . S
C3352 O3335 1.268 . S
C3352 C3345 1.506 . S
C3353 C3320 1.439 . S
C3353 H3330 0.931 . S
C3353 C3354 1.374 . S
C3354 C3325 1.387 . S
C3354 H3331 0.931 . S
C3354 C3353 1.374 . S
C3355 O3339 1.249 . S
C3355 O3340 1.264 . S
C3356 C3359 1.382 . S
C3356 C3360 1.390 . S
C3356 C3363 1.506 . S
C3357 C3358 1.398 . S
C3357 C3360 1.392 . S
C3358 C3357 1.398 . S
C3358 C3361 1.372 . S
C3358 H3368 0.931 . S
C3359 C3356 1.382 . S
C3359 C3361 1.390 . S
C3359 H3369 0.931 . S
C3360 C3356 1.390 . S
C3360 C3357 1.392 . S
C3360 H3370 0.930 . S
C3361 C3358 1.372 . S
C3361 C3359 1.390 . S
C3361 H3371 0.929 . S
C3362 O3342 1.255 . S
C3362 O3343 1.257 . S
C3363 Eu3299 2.787 . S
C3363 O3338 1.252 . S
C3363 O3341 1.268 . S
C3363 C3356 1.506 . S
H3364 C3347 0.931 . S
H3365 C3348 0.931 . S
H3366 C3349 0.929 . S
H3367 C3350 0.930 . S
H3368 C3358 0.931 . S
H3369 C3359 0.931 . S
H3370 C3360 0.930 . S
H3371 C3361 0.929 . S
Eu3372 N3401 2.604 . S
Eu3372 N3407 2.573 . S
Eu3372 O3416 2.476 . S
Eu3372 O3417 2.363 1_655 S
Eu3372 O3419 2.443 . S
Eu3372 O3420 2.288 1_655 S
Eu3372 O3424 2.330 1_655 S
Eu3372 O3427 2.359 1_655 S
Eu3372 C3436 2.802 . S
C3373 N3374 1.365 . S
C3373 C3376 1.405 . S
C3373 C3380 1.448 1_556 S
N3374 C3373 1.365 . S
N3374 C3377 1.319 . S
N3374 Eu3383 2.600 1_556 S
C3375 C3377 1.397 . S
C3375 C3378 1.367 . S
C3375 H3395 0.931 . S
C3376 C3373 1.405 . S
C3376 C3378 1.403 . S
C3376 C3382 1.439 . S
C3377 N3374 1.319 . S
C3377 C3375 1.397 . S
C3377 H3388 0.930 . S
C3378 C3375 1.367 . S
C3378 C3376 1.403 . S
C3378 H3399 0.929 . S
C3379 C3380 1.430 . S
C3379 C3381 1.387 . S
C3379 C3385 1.404 . S
C3380 C3373 1.448 1_554 S
C3380 C3379 1.430 . S
C3380 N3384 1.351 . S
C3381 C3379 1.387 . S
C3381 C3382 1.374 1_554 S
C3381 H3396 0.931 . S
C3382 C3376 1.439 . S
C3382 C3381 1.374 1_556 S
C3382 H3397 0.931 . S
Eu3383 N3374 2.600 1_554 S
Eu3383 N3384 2.562 . S
Eu3383 O3418 2.335 . S
Eu3383 O3421 2.372 1_554 S
Eu3383 O3422 2.462 . S
Eu3383 O3423 2.373 . S
Eu3383 O3425 2.432 1_554 S
Eu3383 O3426 2.291 . S
Eu3383 C3447 2.787 . S
N3384 C3380 1.351 . S
N3384 Eu3383 2.562 . S
N3384 C3386 1.325 . S
C3385 C3379 1.404 . S
C3385 C3387 1.366 . S
C3385 H3393 0.930 . S
C3386 N3384 1.325 . S
C3386 C3387 1.416 . S
C3386 H3392 0.929 . S
C3387 C3385 1.366 . S
C3387 C3386 1.416 . S
C3387 H3389 0.930 . S
H3388 C3377 0.930 . S
H3389 C3387 0.930 . S
H3390 C3405 0.930 1_455 S
H3391 C3412 0.930 1_556 S
H3392 C3386 0.929 . S
H3393 C3385 0.930 . S
H3394 C3408 0.961 . S
H3395 C3375 0.931 . S
H3396 C3381 0.931 . S
H3397 C3382 0.931 . S
H3398 C3403 0.931 1_455 S
H3399 C3378 0.929 . S
H3400 C3411 0.930 . S
N3401 Eu3372 2.604 . S
N3401 C3402 1.365 . S
N3401 C3405 1.319 . S
C3402 N3401 1.365 . S
C3402 C3404 1.405 . S
C3402 C3410 1.448 . S
C3403 H3398 0.931 1_655 S
C3403 C3405 1.397 . S
C3403 C3406 1.367 . S
C3404 C3402 1.405 . S
C3404 C3406 1.403 . S
C3404 C3437 1.439 . S
C3405 H3390 0.930 1_655 S
C3405 N3401 1.319 . S
C3405 C3403 1.397 . S
C3406 C3403 1.367 . S
C3406 C3404 1.403 . S
C3406 H3413 0.929 . S
N3407 Eu3372 2.573 . S
N3407 C3408 1.325 . S
N3407 C3410 1.351 . S
C3408 H3394 0.961 . S
C3408 N3407 1.325 . S
C3408 C3412 1.416 . S
C3409 C3410 1.430 . S
C3409 C3411 1.404 . S
C3409 C3438 1.387 . S
C3410 C3402 1.448 . S
C3410 N3407 1.351 . S
C3410 C3409 1.430 . S
C3411 H3400 0.930 . S
C3411 C3409 1.404 . S
C3411 C3412 1.366 . S
C3412 H3391 0.930 1_554 S
C3412 C3408 1.416 . S
C3412 C3411 1.366 . S
H3413 C3406 0.929 . S
H3414 C3437 0.931 . S
H3415 C3438 0.931 . S
O3416 Eu3372 2.476 . S
O3416 C3436 1.252 . S
O3417 Eu3372 2.363 1_455 S
O3417 C3428 1.249 . S
O3418 Eu3383 2.335 . S
O3418 C3428 1.264 . S
O3419 Eu3372 2.443 . S
O3419 C3436 1.268 . S
O3420 Eu3372 2.288 1_455 S
O3420 C3435 1.255 1_554 S
O3421 Eu3383 2.372 1_556 S
O3421 C3435 1.257 . S
O3422 Eu3383 2.462 . S
O3422 C3447 1.252 . S
O3423 Eu3383 2.373 . S
O3423 C3439 1.249 . S
O3424 Eu3372 2.330 1_455 S
O3424 C3439 1.264 . S
O3425 Eu3383 2.432 1_556 S
O3425 C3447 1.268 1_556 S
O3426 Eu3383 2.291 . S
O3426 C3446 1.255 . S
O3427 Eu3372 2.359 1_455 S
O3427 C3446 1.257 . S
C3428 O3417 1.249 . S
C3428 O3418 1.264 . S
C3429 C3432 1.382 . S
C3429 C3434 1.390 . S
C3429 C3436 1.506 . S
C3430 C3431 1.398 . S
C3430 C3434 1.392 . S
C3431 C3430 1.398 . S
C3431 C3433 1.372 . S
C3431 H3448 0.931 . S
C3432 C3429 1.382 . S
C3432 C3433 1.390 . S
C3432 H3449 0.931 . S
C3433 C3431 1.372 . S
C3433 C3432 1.390 . S
C3433 H3450 0.929 . S
C3434 C3429 1.390 . S
C3434 C3430 1.392 . S
C3434 H3451 0.930 . S
C3435 O3420 1.255 1_556 S
C3435 O3421 1.257 . S
C3436 Eu3372 2.802 . S
C3436 O3416 1.252 . S
C3436 O3419 1.268 . S
C3436 C3429 1.506 . S
C3437 C3404 1.439 . S
C3437 H3414 0.931 . S
C3437 C3438 1.374 . S
C3438 C3409 1.387 . S
C3438 H3415 0.931 . S
C3438 C3437 1.374 . S
C3439 O3423 1.249 . S
C3439 O3424 1.264 . S
C3440 C3443 1.382 . S
C3440 C3444 1.390 1_556 S
C3440 C3447 1.506 1_556 S
C3441 C3442 1.398 1_554 S
C3441 C3444 1.392 . S
C3442 C3441 1.398 1_556 S
C3442 C3445 1.372 . S
C3442 H3452 0.931 . S
C3443 C3440 1.382 . S
C3443 C3445 1.390 . S
C3443 H3453 0.931 . S
C3444 C3440 1.390 1_554 S
C3444 C3441 1.392 . S
C3444 H3454 0.930 . S
C3445 C3442 1.372 . S
C3445 C3443 1.390 . S
C3445 H3455 0.929 . S
C3446 O3426 1.255 . S
C3446 O3427 1.257 . S
C3447 Eu3383 2.787 . S
C3447 O3422 1.252 . S
C3447 O3425 1.268 1_554 S
C3447 C3440 1.506 1_554 S
H3448 C3431 0.931 . S
H3449 C3432 0.931 . S
H3450 C3433 0.929 . S
H3451 C3434 0.930 . S
H3452 C3442 0.931 . S
H3453 C3443 0.931 . S
H3454 C3444 0.930 . S
H3455 C3445 0.929 . S
C3456 C3457 1.363 1_655 S
C3456 C3462 1.379 1_655 S
C3456 N3464 1.356 1_554 S
C3457 C3456 1.363 1_455 S
C3457 C3463 1.363 . S
C3458 C3459 1.363 . S
C3458 C3463 1.379 . S
C3458 N3465 1.356 . S
C3459 C3458 1.363 . S
C3459 C3462 1.363 . S
N3460 C3462 1.356 1_656 S
N3460 H3472 0.984 . S
N3460 H3473 0.985 1_655 S
N3461 C3463 1.356 . S
N3461 H3466 0.984 . S
N3461 H3467 0.985 . S
C3462 C3456 1.379 1_455 S
C3462 C3459 1.363 . S
C3462 N3460 1.356 1_454 S
C3463 C3457 1.363 . S
C3463 C3458 1.379 . S
C3463 N3461 1.356 . S
N3464 C3456 1.356 1_556 S
N3464 H3470 0.984 . S
N3464 H3471 0.984 . S
N3465 C3458 1.356 . S
N3465 H3468 0.984 . S
N3465 H3469 0.985 . S
H3466 N3461 0.984 . S
H3467 N3461 0.985 . S
H3468 N3465 0.984 . S
H3469 N3465 0.985 . S
H3470 N3464 0.984 . S
H3471 N3464 0.984 . S
H3472 N3460 0.984 . S
H3473 N3460 0.985 1_455 S
C3474 C3475 1.363 . S
C3474 C3480 1.379 . S
C3474 N3482 1.356 . S
C3475 C3474 1.363 . S
C3475 C3481 1.363 . S
C3476 C3477 1.363 . S
C3476 C3481 1.379 . S
C3476 N3483 1.356 . S
C3477 C3476 1.363 . S
C3477 C3480 1.363 . S
N3478 C3480 1.356 . S
N3478 H3490 0.984 . S
N3478 H3491 0.985 . S
N3479 C3481 1.356 . S
N3479 H3484 0.984 . S
N3479 H3485 0.985 . S
C3480 C3474 1.379 . S
C3480 C3477 1.363 . S
C3480 N3478 1.356 . S
C3481 C3475 1.363 . S
C3481 C3476 1.379 . S
C3481 N3479 1.356 . S
N3482 C3474 1.356 . S
N3482 H3488 0.984 . S
N3482 H3489 0.984 . S
N3483 C3476 1.356 . S
N3483 H3486 0.984 . S
N3483 H3487 0.985 . S
H3484 N3479 0.984 . S
H3485 N3479 0.985 . S
H3486 N3483 0.984 . S
H3487 N3483 0.985 . S
H3488 N3482 0.984 . S
H3489 N3482 0.984 . S
H3490 N3478 0.984 . S
H3491 N3478 0.985 . S
C3492 C3493 1.363 . S
C3492 C3498 1.379 . S
C3492 N3500 1.356 . S
C3493 C3492 1.363 . S
C3493 C3499 1.363 . S
C3494 C3495 1.363 . S
C3494 C3499 1.379 . S
C3494 N3501 1.356 . S
C3495 C3494 1.363 . S
C3495 C3498 1.363 . S
N3496 C3498 1.356 . S
N3496 H3508 0.984 . S
N3496 H3509 0.985 . S
N3497 C3499 1.356 . S
N3497 H3502 0.984 . S
N3497 H3503 0.985 . S
C3498 C3492 1.379 . S
C3498 C3495 1.363 . S
C3498 N3496 1.356 . S
C3499 C3493 1.363 . S
C3499 C3494 1.379 . S
C3499 N3497 1.356 . S
N3500 C3492 1.356 . S
N3500 H3506 0.984 . S
N3500 H3507 0.984 . S
N3501 C3494 1.356 . S
N3501 H3504 0.984 . S
N3501 H3505 0.985 . S
H3502 N3497 0.984 . S
H3503 N3497 0.985 . S
H3504 N3501 0.984 . S
H3505 N3501 0.985 . S
H3506 N3500 0.984 . S
H3507 N3500 0.984 . S
H3508 N3496 0.984 . S
H3509 N3496 0.985 . S
C3510 C3511 1.363 . S
C3510 C3516 1.379 . S
C3510 N3518 1.356 . S
C3511 C3510 1.363 . S
C3511 C3517 1.363 . S
C3512 C3513 1.363 . S
C3512 C3517 1.379 . S
C3512 N3519 1.356 . S
C3513 C3512 1.363 . S
C3513 C3516 1.363 . S
N3514 C3516 1.356 . S
N3514 H3526 0.984 . S
N3514 H3527 0.985 . S
N3515 C3517 1.356 . S
N3515 H3520 0.984 . S
N3515 H3521 0.985 . S
C3516 C3510 1.379 . S
C3516 C3513 1.363 . S
C3516 N3514 1.356 . S
C3517 C3511 1.363 . S
C3517 C3512 1.379 . S
C3517 N3515 1.356 . S
N3518 C3510 1.356 . S
N3518 H3524 0.984 . S
N3518 H3525 0.984 . S
N3519 C3512 1.356 . S
N3519 H3522 0.984 . S
N3519 H3523 0.985 . S
H3520 N3515 0.984 . S
H3521 N3515 0.985 . S
H3522 N3519 0.984 . S
H3523 N3519 0.985 . S
H3524 N3518 0.984 . S
H3525 N3518 0.984 . S
H3526 N3514 0.984 . S
H3527 N3514 0.985 . S
C3528 C3529 1.363 . S
C3528 C3534 1.379 . S
C3528 N3536 1.356 . S
C3529 C3528 1.363 . S
C3529 C3535 1.363 . S
C3530 C3531 1.363 . S
C3530 C3535 1.379 . S
C3530 N3537 1.356 . S
C3531 C3530 1.363 . S
C3531 C3534 1.363 . S
N3532 C3534 1.356 . S
N3532 H3544 0.984 . S
N3532 H3545 0.985 . S
N3533 C3535 1.356 . S
N3533 H3538 0.984 . S
N3533 H3539 0.985 1_455 S
C3534 C3528 1.379 . S
C3534 C3531 1.363 . S
C3534 N3532 1.356 . S
C3535 C3529 1.363 . S
C3535 C3530 1.379 . S
C3535 N3533 1.356 . S
N3536 C3528 1.356 . S
N3536 H3542 0.984 . S
N3536 H3543 0.984 . S
N3537 C3530 1.356 . S
N3537 H3540 0.984 . S
N3537 H3541 0.985 1_455 S
H3538 N3533 0.984 . S
H3539 N3533 0.985 1_655 S
H3540 N3537 0.984 . S
H3541 N3537 0.985 1_655 S
H3542 N3536 0.984 . S
H3543 N3536 0.984 . S
H3544 N3532 0.984 . S
H3545 N3532 0.985 . S
C3546 C3547 1.363 . S
C3546 C3552 1.379 . S
C3546 N3554 1.356 . S
C3547 C3546 1.363 . S
C3547 C3553 1.363 . S
C3548 C3549 1.363 . S
C3548 C3553 1.379 . S
C3548 N3555 1.356 . S
C3549 C3548 1.363 . S
C3549 C3552 1.363 . S
N3550 C3552 1.356 . S
N3550 H3562 0.984 . S
N3550 H3563 0.985 . S
N3551 C3553 1.356 . S
N3551 H3556 0.984 . S
N3551 H3557 0.985 . S
C3552 C3546 1.379 . S
C3552 C3549 1.363 . S
C3552 N3550 1.356 . S
C3553 C3547 1.363 . S
C3553 C3548 1.379 . S
C3553 N3551 1.356 . S
N3554 C3546 1.356 . S
N3554 H3560 0.984 . S
N3554 H3561 0.984 . S
N3555 C3548 1.356 . S
N3555 H3558 0.984 . S
N3555 H3559 0.985 . S
H3556 N3551 0.984 . S
H3557 N3551 0.985 . S
H3558 N3555 0.984 . S
H3559 N3555 0.985 . S
H3560 N3554 0.984 . S
H3561 N3554 0.984 . S
H3562 N3550 0.984 . S
H3563 N3550 0.985 . S
C3564 C3565 1.363 . S
C3564 C3570 1.379 . S
C3564 N3572 1.356 . S
C3565 C3564 1.363 . S
C3565 C3571 1.363 . S
C3566 C3567 1.363 . S
C3566 C3571 1.379 . S
C3566 N3573 1.356 . S
C3567 C3566 1.363 . S
C3567 C3570 1.363 . S
N3568 C3570 1.356 . S
N3568 H3580 0.984 . S
N3568 H3581 0.985 . S
N3569 C3571 1.356 . S
N3569 H3574 0.984 . S
N3569 H3575 0.985 . S
C3570 C3564 1.379 . S
C3570 C3567 1.363 . S
C3570 N3568 1.356 . S
C3571 C3565 1.363 . S
C3571 C3566 1.379 . S
C3571 N3569 1.356 . S
N3572 C3564 1.356 . S
N3572 H3578 0.984 . S
N3572 H3579 0.984 . S
N3573 C3566 1.356 . S
N3573 H3576 0.984 . S
N3573 H3577 0.985 . S
H3574 N3569 0.984 . S
H3575 N3569 0.985 . S
H3576 N3573 0.984 . S
H3577 N3573 0.985 . S
H3578 N3572 0.984 . S
H3579 N3572 0.984 . S
H3580 N3568 0.984 . S
H3581 N3568 0.985 . S
C3582 C3583 1.363 . S
C3582 C3588 1.379 . S
C3582 N3590 1.356 . S
C3583 C3582 1.363 . S
C3583 C3589 1.363 . S
C3584 C3585 1.363 . S
C3584 C3589 1.379 . S
C3584 N3591 1.356 . S
C3585 C3584 1.363 . S
C3585 C3588 1.363 . S
N3586 C3588 1.356 . S
N3586 H3598 0.984 . S
N3586 H3599 0.985 . S
N3587 C3589 1.356 . S
N3587 H3592 0.984 . S
N3587 H3593 0.985 . S
C3588 C3582 1.379 . S
C3588 C3585 1.363 . S
C3588 N3586 1.356 . S
C3589 C3583 1.363 . S
C3589 C3584 1.379 . S
C3589 N3587 1.356 . S
N3590 C3582 1.356 . S
N3590 H3596 0.984 . S
N3590 H3597 0.984 . S
N3591 C3584 1.356 . S
N3591 H3594 0.984 . S
N3591 H3595 0.985 . S
H3592 N3587 0.984 . S
H3593 N3587 0.985 . S
H3594 N3591 0.984 . S
H3595 N3591 0.985 . S
H3596 N3590 0.984 . S
H3597 N3590 0.984 . S
H3598 N3586 0.984 . S
H3599 N3586 0.985 . S
C3600 C3601 1.363 1_455 S
C3600 C3606 1.379 . S
C3600 N3608 1.356 1_545 S
C3601 C3600 1.363 1_655 S
C3601 C3607 1.363 . S
C3602 C3603 1.343 1_655 S
C3602 C3607 1.390 . S
C3602 N3609 1.361 . S
C3603 C3602 1.343 1_455 S
C3603 C3606 1.363 . S
N3604 C3606 1.356 . S
N3604 H3616 0.984 1_545 S
N3604 H3617 0.985 . S
N3605 C3607 1.356 . S
N3605 H3610 0.984 . S
N3605 H3611 0.985 . S
C3606 C3600 1.379 . S
C3606 C3603 1.363 . S
C3606 N3604 1.356 . S
C3607 C3601 1.363 . S
C3607 C3602 1.390 . S
C3607 N3605 1.356 . S
N3608 C3600 1.356 1_565 S
N3608 H3614 0.984 . S
N3608 H3615 0.985 . S
N3609 C3602 1.361 . S
N3609 H3612 0.984 1_655 S
N3609 H3613 0.985 . S
H3610 N3605 0.984 . S
H3611 N3605 0.985 . S
H3612 N3609 0.984 1_455 S
H3613 N3609 0.985 . S
H3614 N3608 0.984 . S
H3615 N3608 0.985 . S
H3616 N3604 0.984 1_565 S
H3617 N3604 0.985 . S
C3618 C3619 1.363 . S
C3618 C3624 1.379 . S
C3618 N3626 1.356 . S
C3619 C3618 1.363 . S
C3619 C3625 1.363 . S
C3620 C3621 1.363 . S
C3620 C3625 1.379 . S
C3620 N3627 1.356 . S
C3621 C3620 1.363 . S
C3621 C3624 1.363 . S
N3622 C3624 1.356 . S
N3622 H3634 0.984 . S
N3622 H3635 0.985 . S
N3623 C3625 1.356 . S
N3623 H3628 0.984 . S
N3623 H3629 0.985 . S
C3624 C3618 1.379 . S
C3624 C3621 1.363 . S
C3624 N3622 1.356 . S
C3625 C3619 1.363 . S
C3625 C3620 1.379 . S
C3625 N3623 1.356 . S
N3626 C3618 1.356 . S
N3626 H3632 0.984 . S
N3626 H3633 0.984 . S
N3627 C3620 1.356 . S
N3627 H3630 0.984 . S
N3627 H3631 0.985 . S
H3628 N3623 0.984 . S
H3629 N3623 0.985 . S
H3630 N3627 0.984 . S
H3631 N3627 0.985 . S
H3632 N3626 0.984 . S
H3633 N3626 0.984 . S
H3634 N3622 0.984 . S
H3635 N3622 0.985 . S
C3636 C3637 1.363 . S
C3636 C3642 1.379 . S
C3636 N3644 1.356 . S
C3637 C3636 1.363 . S
C3637 C3643 1.363 . S
C3638 C3639 1.363 . S
C3638 C3643 1.379 . S
C3638 N3645 1.356 . S
C3639 C3638 1.363 . S
C3639 C3642 1.363 . S
N3640 C3642 1.356 . S
N3640 H3652 0.984 . S
N3640 H3653 0.985 . S
N3641 C3643 1.356 . S
N3641 H3646 0.984 . S
N3641 H3647 0.985 1_545 S
C3642 C3636 1.379 . S
C3642 C3639 1.363 . S
C3642 N3640 1.356 . S
C3643 C3637 1.363 . S
C3643 C3638 1.379 . S
C3643 N3641 1.356 . S
N3644 C3636 1.356 . S
N3644 H3650 0.984 . S
N3644 H3651 0.984 . S
N3645 C3638 1.356 . S
N3645 H3648 0.984 . S
N3645 H3649 0.985 1_545 S
H3646 N3641 0.984 . S
H3647 N3641 0.985 1_565 S
H3648 N3645 0.984 . S
H3649 N3645 0.985 1_565 S
H3650 N3644 0.984 . S
H3651 N3644 0.984 . S
H3652 N3640 0.984 . S
H3653 N3640 0.985 . S
C3654 C3655 1.363 . S
C3654 C3660 1.379 . S
C3654 N3662 1.356 . S
C3655 C3654 1.363 . S
C3655 C3661 1.363 . S
C3656 C3657 1.363 . S
C3656 C3661 1.379 . S
C3656 N3663 1.356 . S
C3657 C3656 1.363 . S
C3657 C3660 1.363 . S
N3658 C3660 1.356 . S
N3658 H3670 0.984 . S
N3658 H3671 0.985 . S
N3659 C3661 1.356 . S
N3659 H3664 0.984 . S
N3659 H3665 0.985 . S
C3660 C3654 1.379 . S
C3660 C3657 1.363 . S
C3660 N3658 1.356 . S
C3661 C3655 1.363 . S
C3661 C3656 1.379 . S
C3661 N3659 1.356 . S
N3662 C3654 1.356 . S
N3662 H3668 0.984 . S
N3662 H3669 0.984 . S
N3663 C3656 1.356 . S
N3663 H3666 0.984 . S
N3663 H3667 0.985 . S
H3664 N3659 0.984 . S
H3665 N3659 0.985 . S
H3666 N3663 0.984 . S
H3667 N3663 0.985 . S
H3668 N3662 0.984 . S
H3669 N3662 0.984 . S
H3670 N3658 0.984 . S
H3671 N3658 0.985 . S
C3672 C3673 1.363 . S
C3672 C3678 1.379 . S
C3672 N3680 1.356 . S
C3673 C3672 1.363 . S
C3673 C3679 1.363 1_455 S
C3674 C3675 1.363 1_655 S
C3674 C3679 1.379 . S
C3674 N3681 1.356 1_545 S
C3675 C3674 1.363 1_455 S
C3675 C3678 1.363 . S
N3676 C3678 1.356 . S
N3676 H3688 0.984 . S
N3676 H3689 0.985 . S
N3677 C3679 1.356 1_565 S
N3677 H3682 0.984 1_565 S
N3677 H3683 0.985 . S
C3678 C3672 1.379 . S
C3678 C3675 1.363 . S
C3678 N3676 1.356 . S
C3679 C3673 1.363 1_655 S
C3679 C3674 1.379 . S
C3679 N3677 1.356 1_545 S
N3680 C3672 1.356 . S
N3680 H3686 0.984 . S
N3680 H3687 0.984 . S
N3681 C3674 1.356 1_565 S
N3681 H3684 0.984 . S
N3681 H3685 0.985 . S
H3682 N3677 0.984 1_545 S
H3683 N3677 0.985 . S
H3684 N3681 0.984 . S
H3685 N3681 0.985 . S
H3686 N3680 0.984 . S
H3687 N3680 0.984 . S
H3688 N3676 0.984 . S
H3689 N3676 0.985 . S
C3690 C3691 1.363 . S
C3690 C3696 1.379 . S
C3690 N3698 1.356 . S
C3691 C3690 1.363 . S
C3691 C3697 1.363 . S
C3692 C3693 1.363 . S
C3692 C3697 1.379 . S
C3692 N3699 1.356 . S
C3693 C3692 1.363 . S
C3693 C3696 1.363 . S
N3694 C3696 1.356 . S
N3694 H3706 0.984 . S
N3694 H3707 0.985 . S
N3695 C3697 1.356 . S
N3695 H3700 0.984 . S
N3695 H3701 0.985 . S
C3696 C3690 1.379 . S
C3696 C3693 1.363 . S
C3696 N3694 1.356 . S
C3697 C3691 1.363 . S
C3697 C3692 1.379 . S
C3697 N3695 1.356 . S
N3698 C3690 1.356 . S
N3698 H3704 0.984 . S
N3698 H3705 0.984 . S
N3699 C3692 1.356 . S
N3699 H3702 0.984 . S
N3699 H3703 0.985 . S
H3700 N3695 0.984 . S
H3701 N3695 0.985 . S
H3702 N3699 0.984 . S
H3703 N3699 0.985 . S
H3704 N3698 0.984 . S
H3705 N3698 0.984 . S
H3706 N3694 0.984 . S
H3707 N3694 0.985 . S
C3708 C3709 1.363 . S
C3708 C3714 1.379 . S
C3708 N3716 1.356 . S
C3709 C3708 1.363 . S
C3709 C3715 1.363 . S
C3710 C3711 1.363 . S
C3710 C3715 1.379 . S
C3710 N3717 1.356 . S
C3711 C3710 1.363 . S
C3711 C3714 1.363 . S
N3712 C3714 1.356 . S
N3712 H3724 0.984 . S
N3712 H3725 0.985 . S
N3713 C3715 1.356 . S
N3713 H3718 0.984 . S
N3713 H3719 0.985 . S
C3714 C3708 1.379 . S
C3714 C3711 1.363 . S
C3714 N3712 1.356 . S
C3715 C3709 1.363 . S
C3715 C3710 1.379 . S
C3715 N3713 1.356 . S
N3716 C3708 1.356 . S
N3716 H3722 0.984 . S
N3716 H3723 0.984 . S
N3717 C3710 1.356 . S
N3717 H3720 0.984 . S
N3717 H3721 0.985 . S
H3718 N3713 0.984 . S
H3719 N3713 0.985 . S
H3720 N3717 0.984 . S
H3721 N3717 0.985 . S
H3722 N3716 0.984 . S
H3723 N3716 0.984 . S
H3724 N3712 0.984 . S
H3725 N3712 0.985 . S
C3726 C3727 1.363 . S
C3726 C3732 1.379 . S
C3726 N3734 1.356 . S
C3727 C3726 1.363 . S
C3727 C3733 1.363 . S
C3728 C3729 1.363 . S
C3728 C3733 1.379 . S
C3728 N3735 1.356 . S
C3729 C3728 1.363 . S
C3729 C3732 1.363 . S
N3730 C3732 1.356 . S
N3730 H3742 0.984 . S
N3730 H3743 0.985 . S
N3731 C3733 1.356 . S
N3731 H3736 0.984 . S
N3731 H3737 0.985 . S
C3732 C3726 1.379 . S
C3732 C3729 1.363 . S
C3732 N3730 1.356 . S
C3733 C3727 1.363 . S
C3733 C3728 1.379 . S
C3733 N3731 1.356 . S
N3734 C3726 1.356 . S
N3734 H3740 0.984 . S
N3734 H3741 0.984 . S
N3735 C3728 1.356 . S
N3735 H3738 0.984 . S
N3735 H3739 0.985 . S
H3736 N3731 0.984 . S
H3737 N3731 0.985 . S
H3738 N3735 0.984 . S
H3739 N3735 0.985 . S
H3740 N3734 0.984 . S
H3741 N3734 0.984 . S
H3742 N3730 0.984 . S
H3743 N3730 0.985 . S
C3744 C3745 1.363 . S
C3744 C3750 1.379 . S
C3744 N3752 1.356 . S
C3745 C3744 1.363 . S
C3745 C3751 1.363 1_564 S
C3746 C3747 1.347 1_545 S
C3746 C3751 1.379 1_554 S
C3746 N3753 1.356 . S
C3747 C3746 1.347 1_565 S
C3747 C3750 1.391 . S
N3748 C3750 1.356 . S
N3748 H3760 0.984 . S
N3748 H3761 0.985 . S
N3749 C3751 1.356 . S
N3749 H3754 0.984 . S
N3749 H3755 0.985 . S
C3750 C3744 1.379 . S
C3750 C3747 1.391 . S
C3750 N3748 1.356 . S
C3751 C3745 1.363 1_546 S
C3751 C3746 1.379 1_556 S
C3751 N3749 1.356 . S
N3752 C3744 1.356 . S
N3752 H3758 0.984 . S
N3752 H3759 0.984 . S
N3753 C3746 1.356 . S
N3753 H3756 0.984 . S
N3753 H3757 0.985 1_554 S
H3754 N3749 0.984 . S
H3755 N3749 0.985 . S
H3756 N3753 0.984 . S
H3757 N3753 0.985 1_556 S
H3758 N3752 0.984 . S
H3759 N3752 0.984 . S
H3760 N3748 0.984 . S
H3761 N3748 0.985 . S
C3762 C3763 1.366 . S
C3762 C3768 1.392 . S
C3762 N3770 1.340 1_554 S
C3763 C3762 1.366 . S
C3763 C3769 1.363 . S
C3764 C3765 1.363 . S
C3764 C3769 1.379 . S
C3764 N3771 1.356 . S
C3765 C3764 1.363 . S
C3765 C3768 1.363 . S
N3766 C3768 1.356 . S
N3766 H3778 0.984 1_554 S
N3766 H3779 0.985 . S
N3767 C3769 1.356 . S
N3767 H3772 0.984 . S
N3767 H3773 0.985 . S
C3768 C3762 1.392 . S
C3768 C3765 1.363 . S
C3768 N3766 1.356 . S
C3769 C3763 1.363 . S
C3769 C3764 1.379 . S
C3769 N3767 1.356 . S
N3770 C3762 1.340 1_556 S
N3770 H3776 0.984 . S
N3770 H3777 0.984 . S
N3771 C3764 1.356 . S
N3771 H3774 0.984 . S
N3771 H3775 0.985 . S
H3772 N3767 0.984 . S
H3773 N3767 0.985 . S
H3774 N3771 0.984 . S
H3775 N3771 0.985 . S
H3776 N3770 0.984 . S
H3777 N3770 0.984 . S
H3778 N3766 0.984 1_556 S
H3779 N3766 0.985 . S
C3780 C3781 1.363 . S
C3780 C3786 1.379 . S
C3780 N3788 1.356 . S
C3781 C3780 1.363 . S
C3781 C3787 1.363 . S
C3782 C3783 1.363 . S
C3782 C3787 1.379 . S
C3782 N3789 1.356 . S
C3783 C3782 1.363 . S
C3783 C3786 1.363 . S
N3784 C3786 1.356 . S
N3784 H3796 0.984 . S
N3784 H3797 0.985 . S
N3785 C3787 1.356 . S
N3785 H3790 0.984 . S
N3785 H3791 0.985 . S
C3786 C3780 1.379 . S
C3786 C3783 1.363 . S
C3786 N3784 1.356 . S
C3787 C3781 1.363 . S
C3787 C3782 1.379 . S
C3787 N3785 1.356 . S
N3788 C3780 1.356 . S
N3788 H3794 0.984 . S
N3788 H3795 0.984 . S
N3789 C3782 1.356 . S
N3789 H3792 0.984 . S
N3789 H3793 0.985 . S
H3790 N3785 0.984 . S
H3791 N3785 0.985 . S
H3792 N3789 0.984 . S
H3793 N3789 0.985 . S
H3794 N3788 0.984 . S
H3795 N3788 0.984 . S
H3796 N3784 0.984 . S
H3797 N3784 0.985 . S
C3798 C3799 1.363 . S
C3798 C3804 1.379 . S
C3798 N3806 1.356 . S
C3799 C3798 1.363 . S
C3799 C3805 1.363 . S
C3800 C3801 1.363 . S
C3800 C3805 1.379 . S
C3800 N3807 1.356 . S
C3801 C3800 1.363 . S
C3801 C3804 1.363 . S
N3802 C3804 1.356 . S
N3802 H3814 0.984 . S
N3802 H3815 0.985 . S
N3803 C3805 1.356 . S
N3803 H3808 0.984 . S
N3803 H3809 0.985 . S
C3804 C3798 1.379 . S
C3804 C3801 1.363 . S
C3804 N3802 1.356 . S
C3805 C3799 1.363 . S
C3805 C3800 1.379 . S
C3805 N3803 1.356 . S
N3806 C3798 1.356 . S
N3806 H3812 0.984 . S
N3806 H3813 0.984 . S
N3807 C3800 1.356 . S
N3807 H3810 0.984 . S
N3807 H3811 0.985 . S
H3808 N3803 0.984 . S
H3809 N3803 0.985 . S
H3810 N3807 0.984 . S
H3811 N3807 0.985 . S
H3812 N3806 0.984 . S
H3813 N3806 0.984 . S
H3814 N3802 0.984 . S
H3815 N3802 0.985 . S
C3816 C3817 1.363 . S
C3816 C3822 1.379 . S
C3816 N3824 1.356 . S
C3817 C3816 1.363 . S
C3817 C3823 1.363 . S
C3818 C3819 1.363 . S
C3818 C3823 1.379 . S
C3818 N3825 1.356 . S
C3819 C3818 1.363 . S
C3819 C3822 1.363 . S
N3820 C3822 1.356 . S
N3820 H3832 0.984 . S
N3820 H3833 0.985 . S
N3821 C3823 1.356 . S
N3821 H3826 0.984 . S
N3821 H3827 0.985 . S
C3822 C3816 1.379 . S
C3822 C3819 1.363 . S
C3822 N3820 1.356 . S
C3823 C3817 1.363 . S
C3823 C3818 1.379 . S
C3823 N3821 1.356 . S
N3824 C3816 1.356 . S
N3824 H3830 0.984 . S
N3824 H3831 0.984 . S
N3825 C3818 1.356 . S
N3825 H3828 0.984 . S
N3825 H3829 0.985 . S
H3826 N3821 0.984 . S
H3827 N3821 0.985 . S
H3828 N3825 0.984 . S
H3829 N3825 0.985 . S
H3830 N3824 0.984 . S
H3831 N3824 0.984 . S
H3832 N3820 0.984 . S
H3833 N3820 0.985 . S
C3834 C3835 1.363 . S
C3834 C3840 1.379 . S
C3834 N3842 1.356 . S
C3835 C3834 1.363 . S
C3835 C3841 1.363 . S
C3836 C3837 1.363 . S
C3836 C3841 1.379 . S
C3836 N3843 1.356 . S
C3837 C3836 1.363 . S
C3837 C3840 1.363 . S
N3838 C3840 1.356 . S
N3838 H3850 0.984 . S
N3838 H3851 0.985 . S
N3839 C3841 1.356 . S
N3839 H3844 0.984 . S
N3839 H3845 0.985 . S
C3840 C3834 1.379 . S
C3840 C3837 1.363 . S
C3840 N3838 1.356 . S
C3841 C3835 1.363 . S
C3841 C3836 1.379 . S
C3841 N3839 1.356 . S
N3842 C3834 1.356 . S
N3842 H3848 0.984 . S
N3842 H3849 0.984 . S
N3843 C3836 1.356 . S
N3843 H3846 0.984 . S
N3843 H3847 0.985 . S
H3844 N3839 0.984 . S
H3845 N3839 0.985 . S
H3846 N3843 0.984 . S
H3847 N3843 0.985 . S
H3848 N3842 0.984 . S
H3849 N3842 0.984 . S
H3850 N3838 0.984 . S
H3851 N3838 0.985 . S
C3852 C3853 1.363 . S
C3852 C3858 1.379 . S
C3852 N3860 1.356 . S
C3853 C3852 1.363 . S
C3853 C3859 1.363 . S
C3854 C3855 1.363 . S
C3854 C3859 1.379 . S
C3854 N3861 1.356 . S
C3855 C3854 1.363 . S
C3855 C3858 1.363 . S
N3856 C3858 1.356 . S
N3856 H3868 0.984 . S
N3856 H3869 0.985 . S
N3857 C3859 1.356 . S
N3857 H3862 0.984 . S
N3857 H3863 0.985 . S
C3858 C3852 1.379 . S
C3858 C3855 1.363 . S
C3858 N3856 1.356 . S
C3859 C3853 1.363 . S
C3859 C3854 1.379 . S
C3859 N3857 1.356 . S
N3860 C3852 1.356 . S
N3860 H3866 0.984 . S
N3860 H3867 0.984 . S
N3861 C3854 1.356 . S
N3861 H3864 0.984 . S
N3861 H3865 0.985 . S
H3862 N3857 0.984 . S
H3863 N3857 0.985 . S
H3864 N3861 0.984 . S
H3865 N3861 0.985 . S
H3866 N3860 0.984 . S
H3867 N3860 0.984 . S
H3868 N3856 0.984 . S
H3869 N3856 0.985 . S
C3870 C3871 1.363 . S
C3870 C3876 1.379 . S
C3870 N3878 1.356 . S
C3871 C3870 1.363 . S
C3871 C3877 1.363 . S
C3872 C3873 1.363 . S
C3872 C3877 1.379 . S
C3872 N3879 1.356 . S
C3873 C3872 1.363 . S
C3873 C3876 1.363 . S
N3874 C3876 1.356 . S
N3874 H3886 0.984 . S
N3874 H3887 0.985 . S
N3875 C3877 1.356 . S
N3875 H3880 0.984 . S
N3875 H3881 0.985 . S
C3876 C3870 1.379 . S
C3876 C3873 1.363 . S
C3876 N3874 1.356 . S
C3877 C3871 1.363 . S
C3877 C3872 1.379 . S
C3877 N3875 1.356 . S
N3878 C3870 1.356 . S
N3878 H3884 0.984 . S
N3878 H3885 0.984 . S
N3879 C3872 1.356 . S
N3879 H3882 0.984 . S
N3879 H3883 0.985 . S
H3880 N3875 0.984 . S
H3881 N3875 0.985 . S
H3882 N3879 0.984 . S
H3883 N3879 0.985 . S
H3884 N3878 0.984 . S
H3885 N3878 0.984 . S
H3886 N3874 0.984 . S
H3887 N3874 0.985 . S
C3888 C3889 1.363 . S
C3888 C3894 1.379 . S
C3888 N3896 1.356 . S
C3889 C3888 1.363 . S
C3889 C3895 1.363 . S
C3890 C3891 1.363 . S
C3890 C3895 1.379 . S
C3890 N3897 1.356 . S
C3891 C3890 1.363 . S
C3891 C3894 1.363 . S
N3892 C3894 1.356 . S
N3892 H3904 0.984 1_554 S
N3892 H3905 0.985 . S
N3893 C3895 1.356 . S
N3893 H3898 0.984 . S
N3893 H3899 0.985 . S
C3894 C3888 1.379 . S
C3894 C3891 1.363 . S
C3894 N3892 1.356 . S
C3895 C3889 1.363 . S
C3895 C3890 1.379 . S
C3895 N3893 1.356 . S
N3896 C3888 1.356 . S
N3896 H3902 0.984 1_554 S
N3896 H3903 0.984 . S
N3897 C3890 1.356 . S
N3897 H3900 0.984 . S
N3897 H3901 0.985 . S
H3898 N3893 0.984 . S
H3899 N3893 0.985 . S
H3900 N3897 0.984 . S
H3901 N3897 0.985 . S
H3902 N3896 0.984 1_556 S
H3903 N3896 0.984 . S
H3904 N3892 0.984 1_556 S
H3905 N3892 0.985 . S
C3906 C3907 1.363 . S
C3906 C3912 1.379 . S
C3906 N3914 1.356 . S
C3907 C3906 1.363 . S
C3907 C3913 1.363 . S
C3908 C3909 1.363 . S
C3908 C3913 1.379 . S
C3908 N3915 1.356 . S
C3909 C3908 1.363 . S
C3909 C3912 1.363 . S
N3910 C3912 1.356 . S
N3910 H3922 0.984 . S
N3910 H3923 0.985 . S
N3911 C3913 1.356 . S
N3911 H3916 0.984 . S
N3911 H3917 0.985 . S
C3912 C3906 1.379 . S
C3912 C3909 1.363 . S
C3912 N3910 1.356 . S
C3913 C3907 1.363 . S
C3913 C3908 1.379 . S
C3913 N3911 1.356 . S
N3914 C3906 1.356 . S
N3914 H3920 0.984 . S
N3914 H3921 0.984 . S
N3915 C3908 1.356 . S
N3915 H3918 0.984 . S
N3915 H3919 0.985 . S
H3916 N3911 0.984 . S
H3917 N3911 0.985 . S
H3918 N3915 0.984 . S
H3919 N3915 0.985 . S
H3920 N3914 0.984 . S
H3921 N3914 0.984 . S
H3922 N3910 0.984 . S
H3923 N3910 0.985 . S
C3924 C3925 1.363 . S
C3924 C3930 1.379 . S
C3924 N3932 1.356 . S
C3925 C3924 1.363 . S
C3925 C3931 1.363 . S
C3926 C3927 1.363 . S
C3926 C3931 1.379 . S
C3926 N3933 1.356 . S
C3927 C3926 1.363 . S
C3927 C3930 1.363 . S
N3928 C3930 1.356 . S
N3928 H3940 0.984 . S
N3928 H3941 0.985 . S
N3929 C3931 1.356 . S
N3929 H3934 0.984 . S
N3929 H3935 0.985 . S
C3930 C3924 1.379 . S
C3930 C3927 1.363 . S
C3930 N3928 1.356 . S
C3931 C3925 1.363 . S
C3931 C3926 1.379 . S
C3931 N3929 1.356 . S
N3932 C3924 1.356 . S
N3932 H3938 0.984 . S
N3932 H3939 0.984 . S
N3933 C3926 1.356 . S
N3933 H3936 0.984 . S
N3933 H3937 0.985 . S
H3934 N3929 0.984 . S
H3935 N3929 0.985 . S
H3936 N3933 0.984 . S
H3937 N3933 0.985 . S
H3938 N3932 0.984 . S
H3939 N3932 0.984 . S
H3940 N3928 0.984 . S
H3941 N3928 0.985 . S
C3942 C3943 1.363 . S
C3942 C3948 1.379 . S
C3942 N3950 1.356 . S
C3943 C3942 1.363 . S
C3943 C3949 1.363 . S
C3944 C3945 1.363 . S
C3944 C3949 1.379 . S
C3944 N3951 1.356 . S
C3945 C3944 1.363 . S
C3945 C3948 1.363 . S
N3946 C3948 1.356 . S
N3946 H3958 0.984 . S
N3946 H3959 0.985 . S
N3947 C3949 1.356 . S
N3947 H3952 0.984 . S
N3947 H3953 0.985 . S
C3948 C3942 1.379 . S
C3948 C3945 1.363 . S
C3948 N3946 1.356 . S
C3949 C3943 1.363 . S
C3949 C3944 1.379 . S
C3949 N3947 1.356 . S
N3950 C3942 1.356 . S
N3950 H3956 0.984 . S
N3950 H3957 0.984 . S
N3951 C3944 1.356 . S
N3951 H3954 0.984 . S
N3951 H3955 0.985 . S
H3952 N3947 0.984 . S
H3953 N3947 0.985 . S
H3954 N3951 0.984 . S
H3955 N3951 0.985 . S
H3956 N3950 0.984 . S
H3957 N3950 0.984 . S
H3958 N3946 0.984 . S
H3959 N3946 0.985 . S
C3960 C3961 1.363 . S
C3960 C3966 1.379 . S
C3960 N3968 1.356 . S
C3961 C3960 1.363 . S
C3961 C3967 1.363 . S
C3962 C3963 1.363 . S
C3962 C3967 1.379 . S
C3962 N3969 1.356 . S
C3963 C3962 1.363 . S
C3963 C3966 1.363 . S
N3964 C3966 1.356 . S
N3964 H3976 0.989 . S
N3964 H3977 0.985 . S
N3965 C3967 1.356 . S
N3965 H3970 0.984 . S
N3965 H3971 0.985 . S
C3966 C3960 1.379 . S
C3966 C3963 1.363 . S
C3966 N3964 1.356 . S
C3967 C3961 1.363 . S
C3967 C3962 1.379 . S
C3967 N3965 1.356 . S
N3968 C3960 1.356 . S
N3968 H3974 0.984 . S
N3968 H3975 0.984 . S
N3969 C3962 1.356 . S
N3969 H3972 0.984 . S
N3969 H3973 0.985 . S
H3970 N3965 0.984 . S
H3971 N3965 0.985 . S
H3972 N3969 0.984 . S
H3973 N3969 0.985 . S
H3974 N3968 0.984 . S
H3975 N3968 0.984 . S
H3976 N3964 0.989 . S
H3977 N3964 0.985 . S
C3978 C3979 1.363 . S
C3978 C3984 1.379 . S
C3978 N3986 1.356 . S
C3979 C3978 1.363 . S
C3979 C3985 1.363 . S
C3980 C3981 1.363 . S
C3980 C3985 1.379 . S
C3980 N3987 1.356 . S
C3981 C3980 1.363 . S
C3981 C3984 1.363 . S
N3982 C3984 1.356 . S
N3982 H3994 0.984 . S
N3982 H3995 0.985 . S
N3983 C3985 1.356 . S
N3983 H3988 0.984 . S
N3983 H3989 0.985 . S
C3984 C3978 1.379 . S
C3984 C3981 1.363 . S
C3984 N3982 1.356 . S
C3985 C3979 1.363 . S
C3985 C3980 1.379 . S
C3985 N3983 1.356 . S
N3986 C3978 1.356 . S
N3986 H3992 0.984 . S
N3986 H3993 0.984 . S
N3987 C3980 1.356 . S
N3987 H3990 0.984 . S
N3987 H3991 0.985 . S
H3988 N3983 0.984 . S
H3989 N3983 0.985 . S
H3990 N3987 0.984 . S
H3991 N3987 0.985 . S
H3992 N3986 0.984 . S
H3993 N3986 0.984 . S
H3994 N3982 0.984 . S
H3995 N3982 0.985 . S
C3996 C3997 1.363 . S
C3996 C4002 1.379 . S
C3996 N4004 1.356 . S
C3997 C3996 1.363 . S
C3997 C4003 1.363 . S
C3998 C3999 1.363 . S
C3998 C4003 1.379 . S
C3998 N4005 1.356 . S
C3999 C3998 1.363 . S
C3999 C4002 1.363 . S
N4000 C4002 1.356 1_554 S
N4000 H4012 0.984 . S
N4000 H4013 0.985 . S
N4001 C4003 1.356 . S
N4001 H4006 0.984 . S
N4001 H4007 0.985 . S
C4002 C3996 1.379 . S
C4002 C3999 1.363 . S
C4002 N4000 1.356 1_556 S
C4003 C3997 1.363 . S
C4003 C3998 1.379 . S
C4003 N4001 1.356 . S
N4004 C3996 1.356 . S
N4004 H4010 0.984 . S
N4004 H4011 0.984 . S
N4005 C3998 1.356 . S
N4005 H4008 0.984 . S
N4005 H4009 0.985 . S
H4006 N4001 0.984 . S
H4007 N4001 0.985 . S
H4008 N4005 0.984 . S
H4009 N4005 0.985 . S
H4010 N4004 0.984 . S
H4011 N4004 0.984 . S
H4012 N4000 0.984 . S
H4013 N4000 0.985 . S
C4014 C4015 1.363 . S
C4014 C4020 1.379 . S
C4014 N4022 1.356 . S
C4015 C4014 1.363 . S
C4015 C4021 1.363 . S
C4016 C4017 1.363 . S
C4016 C4021 1.379 . S
C4016 N4023 1.356 . S
C4017 C4016 1.363 . S
C4017 C4020 1.363 . S
N4018 C4020 1.356 . S
N4018 H4030 0.984 . S
N4018 H4031 0.985 . S
N4019 C4021 1.356 . S
N4019 H4024 0.984 . S
N4019 H4025 0.985 . S
C4020 C4014 1.379 . S
C4020 C4017 1.363 . S
C4020 N4018 1.356 . S
C4021 C4015 1.363 . S
C4021 C4016 1.379 . S
C4021 N4019 1.356 . S
N4022 C4014 1.356 . S
N4022 H4028 0.984 . S
N4022 H4029 0.984 . S
N4023 C4016 1.356 . S
N4023 H4026 0.984 . S
N4023 H4027 0.985 . S
H4024 N4019 0.984 . S
H4025 N4019 0.985 . S
H4026 N4023 0.984 . S
H4027 N4023 0.985 . S
H4028 N4022 0.984 . S
H4029 N4022 0.984 . S
H4030 N4018 0.984 . S
H4031 N4018 0.985 . S
C4032 C4033 1.363 . S
C4032 C4038 1.379 . S
C4032 N4040 1.356 . S
C4033 C4032 1.363 . S
C4033 C4039 1.363 . S
C4034 C4035 1.363 . S
C4034 C4039 1.379 . S
C4034 N4041 1.356 . S
C4035 C4034 1.363 . S
C4035 C4038 1.363 . S
N4036 C4038 1.356 1_565 S
N4036 H4048 0.984 . S
N4036 H4049 0.985 . S
N4037 C4039 1.356 . S
N4037 H4042 0.984 . S
N4037 H4043 0.985 . S
C4038 C4032 1.379 . S
C4038 C4035 1.363 . S
C4038 N4036 1.356 1_545 S
C4039 C4033 1.363 . S
C4039 C4034 1.379 . S
C4039 N4037 1.356 . S
N4040 C4032 1.356 . S
N4040 H4046 0.984 1_545 S
N4040 H4047 0.984 . S
N4041 C4034 1.356 . S
N4041 H4044 0.984 . S
N4041 H4045 0.985 . S
H4042 N4037 0.984 . S
H4043 N4037 0.985 . S
H4044 N4041 0.984 . S
H4045 N4041 0.985 . S
H4046 N4040 0.984 1_565 S
H4047 N4040 0.984 . S
H4048 N4036 0.984 . S
H4049 N4036 0.985 . S
C4050 C4051 1.363 . S
C4050 C4056 1.379 . S
C4050 N4058 1.356 . S
C4051 C4050 1.363 . S
C4051 C4057 1.363 . S
C4052 C4053 1.363 . S
C4052 C4057 1.379 . S
C4052 N4059 1.356 . S
C4053 C4052 1.363 . S
C4053 C4056 1.363 . S
N4054 C4056 1.356 . S
N4054 H4066 0.984 . S
N4054 H4067 0.985 . S
N4055 C4057 1.356 . S
N4055 H4060 0.984 . S
N4055 H4061 0.985 . S
C4056 C4050 1.379 . S
C4056 C4053 1.363 . S
C4056 N4054 1.356 . S
C4057 C4051 1.363 . S
C4057 C4052 1.379 . S
C4057 N4055 1.356 . S
N4058 C4050 1.356 . S
N4058 H4064 0.984 . S
N4058 H4065 0.984 . S
N4059 C4052 1.356 . S
N4059 H4062 0.984 . S
N4059 H4063 0.985 . S
H4060 N4055 0.984 . S
H4061 N4055 0.985 . S
H4062 N4059 0.984 . S
H4063 N4059 0.985 . S
H4064 N4058 0.984 . S
H4065 N4058 0.984 . S
H4066 N4054 0.984 . S
H4067 N4054 0.985 . S
C4068 C4069 1.363 . S
C4068 C4074 1.379 . S
C4068 N4076 1.356 . S
C4069 C4068 1.363 . S
C4069 C4075 1.363 . S
C4070 C4071 1.363 . S
C4070 C4075 1.379 . S
C4070 N4077 1.333 1_545 S
C4071 C4070 1.363 . S
C4071 C4074 1.363 . S
N4072 C4074 1.356 . S
N4072 H4084 0.984 . S
N4072 H4085 0.985 . S
N4073 C4075 1.356 1_565 S
N4073 H4078 0.984 . S
N4073 H4079 0.985 . S
C4074 C4068 1.379 . S
C4074 C4071 1.363 . S
C4074 N4072 1.356 . S
C4075 C4069 1.363 . S
C4075 C4070 1.379 . S
C4075 N4073 1.356 1_545 S
N4076 C4068 1.356 . S
N4076 H4082 0.984 . S
N4076 H4083 0.984 . S
N4077 C4070 1.333 1_565 S
N4077 H4080 0.980 1_565 S
N4077 H4081 1.014 . S
H4078 N4073 0.984 . S
H4079 N4073 0.985 . S
H4080 N4077 0.980 1_545 S
H4081 N4077 1.014 . S
H4082 N4076 0.984 . S
H4083 N4076 0.984 . S
H4084 N4072 0.984 . S
H4085 N4072 0.985 . S
C4086 C4087 1.363 . S
C4086 C4092 1.379 . S
C4086 N4094 1.356 . S
C4087 C4086 1.363 . S
C4087 C4093 1.363 . S
C4088 C4089 1.363 . S
C4088 C4093 1.379 . S
C4088 N4095 1.356 . S
C4089 C4088 1.363 . S
C4089 C4092 1.363 . S
N4090 C4092 1.356 . S
N4090 H4102 0.984 . S
N4090 H4103 0.985 . S
N4091 C4093 1.356 . S
N4091 H4096 0.984 . S
N4091 H4097 0.985 . S
C4092 C4086 1.379 . S
C4092 C4089 1.363 . S
C4092 N4090 1.356 . S
C4093 C4087 1.363 . S
C4093 C4088 1.379 . S
C4093 N4091 1.356 . S
N4094 C4086 1.356 . S
N4094 H4100 0.984 . S
N4094 H4101 0.984 . S
N4095 C4088 1.356 . S
N4095 H4098 0.984 . S
N4095 H4099 0.985 . S
H4096 N4091 0.984 . S
H4097 N4091 0.985 . S
H4098 N4095 0.984 . S
H4099 N4095 0.985 . S
H4100 N4094 0.984 . S
H4101 N4094 0.984 . S
H4102 N4090 0.984 . S
H4103 N4090 0.985 . S
C4104 C4105 1.363 . S
C4104 C4110 1.379 . S
C4104 N4112 1.356 . S
C4105 C4104 1.363 . S
C4105 C4111 1.363 . S
C4106 C4107 1.363 . S
C4106 C4111 1.379 . S
C4106 N4113 1.356 . S
C4107 C4106 1.363 . S
C4107 C4110 1.363 . S
N4108 C4110 1.356 . S
N4108 H4120 0.984 1_545 S
N4108 H4121 0.985 . S
N4109 C4111 1.356 . S
N4109 H4114 0.984 . S
N4109 H4115 0.985 . S
C4110 C4104 1.379 . S
C4110 C4107 1.363 . S
C4110 N4108 1.356 . S
C4111 C4105 1.363 . S
C4111 C4106 1.379 . S
C4111 N4109 1.356 . S
N4112 C4104 1.356 . S
N4112 H4118 0.984 1_545 S
N4112 H4119 0.984 . S
N4113 C4106 1.356 . S
N4113 H4116 0.984 . S
N4113 H4117 0.985 . S
H4114 N4109 0.984 . S
H4115 N4109 0.985 . S
H4116 N4113 0.984 . S
H4117 N4113 0.985 . S
H4118 N4112 0.984 1_565 S
H4119 N4112 0.984 . S
H4120 N4108 0.984 1_565 S
H4121 N4108 0.985 . S
C4122 C4123 1.363 . S
C4122 C4128 1.379 . S
C4122 N4130 1.356 . S
C4123 C4122 1.363 . S
C4123 C4129 1.363 . S
C4124 C4125 1.363 . S
C4124 C4129 1.379 . S
C4124 N4131 1.356 . S
C4125 C4124 1.363 . S
C4125 C4128 1.363 . S
N4126 C4128 1.356 . S
N4126 H4138 0.984 . S
N4126 H4139 0.985 . S
N4127 C4129 1.356 . S
N4127 H4132 0.984 . S
N4127 H4133 0.985 . S
C4128 C4122 1.379 . S
C4128 C4125 1.363 . S
C4128 N4126 1.356 . S
C4129 C4123 1.363 . S
C4129 C4124 1.379 . S
C4129 N4127 1.356 . S
N4130 C4122 1.356 . S
N4130 H4136 0.984 . S
N4130 H4137 0.984 . S
N4131 C4124 1.356 . S
N4131 H4134 0.984 . S
N4131 H4135 0.985 . S
H4132 N4127 0.984 . S
H4133 N4127 0.985 . S
H4134 N4131 0.984 . S
H4135 N4131 0.985 . S
H4136 N4130 0.984 . S
H4137 N4130 0.984 . S
H4138 N4126 0.984 . S
H4139 N4126 0.985 . S
C4140 C4141 1.363 . S
C4140 C4146 1.379 . S
C4140 N4148 1.356 . S
C4141 C4140 1.363 . S
C4141 C4147 1.363 1_545 S
C4142 C4143 1.363 1_565 S
C4142 C4147 1.379 . S
C4142 N4149 1.356 . S
C4143 C4142 1.363 1_545 S
C4143 C4146 1.363 . S
N4144 C4146 1.356 . S
N4144 H4156 0.984 . S
N4144 H4157 0.985 . S
N4145 C4147 1.356 . S
N4145 H4150 0.984 . S
N4145 H4151 0.985 . S
C4146 C4140 1.379 . S
C4146 C4143 1.363 . S
C4146 N4144 1.356 . S
C4147 C4141 1.363 1_565 S
C4147 C4142 1.379 . S
C4147 N4145 1.356 . S
N4148 C4140 1.356 . S
N4148 H4154 0.984 . S
N4148 H4155 0.984 . S
N4149 C4142 1.356 . S
N4149 H4152 0.984 . S
N4149 H4153 0.985 . S
H4150 N4145 0.984 . S
H4151 N4145 0.985 . S
H4152 N4149 0.984 . S
H4153 N4149 0.985 . S
H4154 N4148 0.984 . S
H4155 N4148 0.984 . S
H4156 N4144 0.984 . S
H4157 N4144 0.985 . S
C4158 C4159 1.363 . S
C4158 C4164 1.379 . S
C4158 N4166 1.356 . S
C4159 C4158 1.363 . S
C4159 C4165 1.363 . S
C4160 C4161 1.363 . S
C4160 C4165 1.379 . S
C4160 N4167 1.356 . S
C4161 C4160 1.363 . S
C4161 C4164 1.363 . S
N4162 C4164 1.356 . S
N4162 H4174 0.984 . S
N4162 H4175 0.985 . S
N4163 C4165 1.356 . S
N4163 H4168 0.984 . S
N4163 H4169 0.985 . S
C4164 C4158 1.379 . S
C4164 C4161 1.363 . S
C4164 N4162 1.356 . S
C4165 C4159 1.363 . S
C4165 C4160 1.379 . S
C4165 N4163 1.356 . S
N4166 C4158 1.356 . S
N4166 H4172 0.984 . S
N4166 H4173 0.984 . S
N4167 C4160 1.356 . S
N4167 H4170 0.984 . S
N4167 H4171 0.985 . S
H4168 N4163 0.984 . S
H4169 N4163 0.985 . S
H4170 N4167 0.984 . S
H4171 N4167 0.985 . S
H4172 N4166 0.984 . S
H4173 N4166 0.984 . S
H4174 N4162 0.984 . S
H4175 N4162 0.985 . S
C4176 C4177 1.363 . S
C4176 C4182 1.379 . S
C4176 N4184 1.356 . S
C4177 C4176 1.363 . S
C4177 C4183 1.363 . S
C4178 C4179 1.363 . S
C4178 C4183 1.379 . S
C4178 N4185 1.356 . S
C4179 C4178 1.363 . S
C4179 C4182 1.363 . S
N4180 C4182 1.354 . S
N4180 H4192 0.986 1_554 S
N4180 H4193 0.985 1_554 S
N4181 C4183 1.356 . S
N4181 H4186 0.984 . S
N4181 H4187 0.985 . S
C4182 C4176 1.379 . S
C4182 C4179 1.363 . S
C4182 N4180 1.354 . S
C4183 C4177 1.363 . S
C4183 C4178 1.379 . S
C4183 N4181 1.356 . S
N4184 C4176 1.356 . S
N4184 H4190 0.984 . S
N4184 H4191 0.984 . S
N4185 C4178 1.356 . S
N4185 H4188 0.984 . S
N4185 H4189 0.985 . S
H4186 N4181 0.984 . S
H4187 N4181 0.985 . S
H4188 N4185 0.984 . S
H4189 N4185 0.985 . S
H4190 N4184 0.984 . S
H4191 N4184 0.984 . S
H4192 N4180 0.986 1_556 S
H4193 N4180 0.985 1_556 S
C4194 C4195 1.363 . S
C4194 C4200 1.379 . S
C4194 N4202 1.356 . S
C4195 C4194 1.363 . S
C4195 C4201 1.363 . S
C4196 C4197 1.363 . S
C4196 C4201 1.379 . S
C4196 N4203 1.356 . S
C4197 C4196 1.363 . S
C4197 C4200 1.363 . S
N4198 C4200 1.356 . S
N4198 H4210 0.984 . S
N4198 H4211 0.985 . S
N4199 C4201 1.356 . S
N4199 H4204 0.984 . S
N4199 H4205 0.985 . S
C4200 C4194 1.379 . S
C4200 C4197 1.363 . S
C4200 N4198 1.356 . S
C4201 C4195 1.363 . S
C4201 C4196 1.379 . S
C4201 N4199 1.356 . S
N4202 C4194 1.356 . S
N4202 H4208 0.984 . S
N4202 H4209 0.984 . S
N4203 C4196 1.356 . S
N4203 H4206 0.984 . S
N4203 H4207 0.985 . S
H4204 N4199 0.984 . S
H4205 N4199 0.985 . S
H4206 N4203 0.984 . S
H4207 N4203 0.985 . S
H4208 N4202 0.984 . S
H4209 N4202 0.984 . S
H4210 N4198 0.984 . S
H4211 N4198 0.985 . S
C4212 C4213 1.363 . S
C4212 C4218 1.379 . S
C4212 N4220 1.356 . S
C4213 C4212 1.363 . S
C4213 C4219 1.363 . S
C4214 C4215 1.363 . S
C4214 C4219 1.379 . S
C4214 N4221 1.356 . S
C4215 C4214 1.363 . S
C4215 C4218 1.363 . S
N4216 C4218 1.356 . S
N4216 H4228 0.984 . S
N4216 H4229 0.985 . S
N4217 C4219 1.356 . S
N4217 H4222 0.984 . S
N4217 H4223 0.985 . S
C4218 C4212 1.379 . S
C4218 C4215 1.363 . S
C4218 N4216 1.356 . S
C4219 C4213 1.363 . S
C4219 C4214 1.379 . S
C4219 N4217 1.356 . S
N4220 C4212 1.356 . S
N4220 H4226 0.984 . S
N4220 H4227 0.984 . S
N4221 C4214 1.356 . S
N4221 H4224 0.984 . S
N4221 H4225 0.985 . S
H4222 N4217 0.984 . S
H4223 N4217 0.985 . S
H4224 N4221 0.984 . S
H4225 N4221 0.985 . S
H4226 N4220 0.984 . S
H4227 N4220 0.984 . S
H4228 N4216 0.984 . S
H4229 N4216 0.985 . S
C4230 C4231 1.363 . S
C4230 C4236 1.379 . S
C4230 N4238 1.356 . S
C4231 C4230 1.363 . S
C4231 C4237 1.363 . S
C4232 C4233 1.363 . S
C4232 C4237 1.379 . S
C4232 N4239 1.356 . S
C4233 C4232 1.363 . S
C4233 C4236 1.363 . S
N4234 C4236 1.356 . S
N4234 H4246 0.984 . S
N4234 H4247 0.985 . S
N4235 C4237 1.356 . S
N4235 H4240 0.984 . S
N4235 H4241 0.985 . S
C4236 C4230 1.379 . S
C4236 C4233 1.363 . S
C4236 N4234 1.356 . S
C4237 C4231 1.363 . S
C4237 C4232 1.379 . S
C4237 N4235 1.356 . S
N4238 C4230 1.356 . S
N4238 H4244 0.984 . S
N4238 H4245 0.984 . S
N4239 C4232 1.356 . S
N4239 H4242 0.984 . S
N4239 H4243 0.985 . S
H4240 N4235 0.984 . S
H4241 N4235 0.985 . S
H4242 N4239 0.984 . S
H4243 N4239 0.985 . S
H4244 N4238 0.984 . S
H4245 N4238 0.984 . S
H4246 N4234 0.984 . S
H4247 N4234 0.985 . S
C4248 C4249 1.363 . S
C4248 C4254 1.379 . S
C4248 N4256 1.356 . S
C4249 C4248 1.363 . S
C4249 C4255 1.363 . S
C4250 C4251 1.363 . S
C4250 C4255 1.379 . S
C4250 N4257 1.356 . S
C4251 C4250 1.363 . S
C4251 C4254 1.363 . S
N4252 C4254 1.356 . S
N4252 H4264 0.984 . S
N4252 H4265 0.985 . S
N4253 C4255 1.356 . S
N4253 H4258 0.984 . S
N4253 H4259 0.985 . S
C4254 C4248 1.379 . S
C4254 C4251 1.363 . S
C4254 N4252 1.356 . S
C4255 C4249 1.363 . S
C4255 C4250 1.379 . S
C4255 N4253 1.356 . S
N4256 C4248 1.356 . S
N4256 H4262 0.984 . S
N4256 H4263 0.984 . S
N4257 C4250 1.356 . S
N4257 H4260 0.984 . S
N4257 H4261 0.985 . S
H4258 N4253 0.984 . S
H4259 N4253 0.985 . S
H4260 N4257 0.984 . S
H4261 N4257 0.985 . S
H4262 N4256 0.984 . S
H4263 N4256 0.984 . S
H4264 N4252 0.984 . S
H4265 N4252 0.985 . S
C4266 C4267 1.363 . S
C4266 C4272 1.379 . S
C4266 N4274 1.356 . S
C4267 C4266 1.363 . S
C4267 C4273 1.363 . S
C4268 C4269 1.363 . S
C4268 C4273 1.379 . S
C4268 N4275 1.356 . S
C4269 C4268 1.363 . S
C4269 C4272 1.363 . S
N4270 C4272 1.356 . S
N4270 H4282 0.984 . S
N4270 H4283 0.985 . S
N4271 C4273 1.356 . S
N4271 H4276 0.984 . S
N4271 H4277 0.985 . S
C4272 C4266 1.379 . S
C4272 C4269 1.363 . S
C4272 N4270 1.356 . S
C4273 C4267 1.363 . S
C4273 C4268 1.379 . S
C4273 N4271 1.356 . S
N4274 C4266 1.356 . S
N4274 H4280 0.984 . S
N4274 H4281 0.984 . S
N4275 C4268 1.356 . S
N4275 H4278 0.984 . S
N4275 H4279 0.985 . S
H4276 N4271 0.984 . S
H4277 N4271 0.985 . S
H4278 N4275 0.984 . S
H4279 N4275 0.985 . S
H4280 N4274 0.984 . S
H4281 N4274 0.984 . S
H4282 N4270 0.984 . S
H4283 N4270 0.985 . S
C4284 C4285 1.363 . S
C4284 C4290 1.379 . S
C4284 N4292 1.356 . S
C4285 C4284 1.363 . S
C4285 C4291 1.363 . S
C4286 C4287 1.363 . S
C4286 C4291 1.379 . S
C4286 N4293 1.356 . S
C4287 C4286 1.363 . S
C4287 C4290 1.363 . S
N4288 C4290 1.356 . S
N4288 H4300 0.984 . S
N4288 H4301 0.985 . S
N4289 C4291 1.356 . S
N4289 H4294 0.984 . S
N4289 H4295 0.985 . S
C4290 C4284 1.379 . S
C4290 C4287 1.363 . S
C4290 N4288 1.356 . S
C4291 C4285 1.363 . S
C4291 C4286 1.379 . S
C4291 N4289 1.356 . S
N4292 C4284 1.356 . S
N4292 H4298 0.984 . S
N4292 H4299 0.984 . S
N4293 C4286 1.356 . S
N4293 H4296 0.984 . S
N4293 H4297 0.985 . S
H4294 N4289 0.984 . S
H4295 N4289 0.985 . S
H4296 N4293 0.984 . S
H4297 N4293 0.985 . S
H4298 N4292 0.984 . S
H4299 N4292 0.984 . S
H4300 N4288 0.984 . S
H4301 N4288 0.985 . S
C4302 C4303 1.363 . S
C4302 C4308 1.379 . S
C4302 N4310 1.356 . S
C4303 C4302 1.363 . S
C4303 C4309 1.363 . S
C4304 C4305 1.363 . S
C4304 C4309 1.379 . S
C4304 N4311 1.356 . S
C4305 C4304 1.363 . S
C4305 C4308 1.363 . S
N4306 C4308 1.356 . S
N4306 H4318 0.984 . S
N4306 H4319 0.985 . S
N4307 C4309 1.356 . S
N4307 H4312 0.984 . S
N4307 H4313 0.985 . S
C4308 C4302 1.379 . S
C4308 C4305 1.363 . S
C4308 N4306 1.356 . S
C4309 C4303 1.363 . S
C4309 C4304 1.379 . S
C4309 N4307 1.356 . S
N4310 C4302 1.356 . S
N4310 H4316 0.984 . S
N4310 H4317 0.984 . S
N4311 C4304 1.356 . S
N4311 H4314 0.984 . S
N4311 H4315 0.985 . S
H4312 N4307 0.984 . S
H4313 N4307 0.985 . S
H4314 N4311 0.984 . S
H4315 N4311 0.985 . S
H4316 N4310 0.984 . S
H4317 N4310 0.984 . S
H4318 N4306 0.984 . S
H4319 N4306 0.985 . S
C4320 C4321 1.363 . S
C4320 C4326 1.379 . S
C4320 N4328 1.356 . S
C4321 C4320 1.363 . S
C4321 C4327 1.363 . S
C4322 C4323 1.363 . S
C4322 C4327 1.379 . S
C4322 N4329 1.356 . S
C4323 C4322 1.363 . S
C4323 C4326 1.363 . S
N4324 C4326 1.356 . S
N4324 H4336 0.984 . S
N4324 H4337 0.985 . S
N4325 C4327 1.356 . S
N4325 H4330 0.984 . S
N4325 H4331 0.985 . S
C4326 C4320 1.379 . S
C4326 C4323 1.363 . S
C4326 N4324 1.356 . S
C4327 C4321 1.363 . S
C4327 C4322 1.379 . S
C4327 N4325 1.356 . S
N4328 C4320 1.356 . S
N4328 H4334 0.984 . S
N4328 H4335 0.984 . S
N4329 C4322 1.356 . S
N4329 H4332 0.984 . S
N4329 H4333 0.985 . S
H4330 N4325 0.984 . S
H4331 N4325 0.985 . S
H4332 N4329 0.984 . S
H4333 N4329 0.985 . S
H4334 N4328 0.984 . S
H4335 N4328 0.984 . S
H4336 N4324 0.984 . S
H4337 N4324 0.985 . S
C4338 C4339 1.363 . S
C4338 C4344 1.379 . S
C4338 N4346 1.356 . S
C4339 C4338 1.363 . S
C4339 C4345 1.363 . S
C4340 C4341 1.363 . S
C4340 C4345 1.379 . S
C4340 N4347 1.356 . S
C4341 C4340 1.363 . S
C4341 C4344 1.363 . S
N4342 C4344 1.356 . S
N4342 H4354 0.984 . S
N4342 H4355 0.985 . S
N4343 C4345 1.356 . S
N4343 H4348 0.984 . S
N4343 H4349 0.985 . S
C4344 C4338 1.379 . S
C4344 C4341 1.363 . S
C4344 N4342 1.356 . S
C4345 C4339 1.363 . S
C4345 C4340 1.379 . S
C4345 N4343 1.356 . S
N4346 C4338 1.356 . S
N4346 H4352 0.984 . S
N4346 H4353 0.984 . S
N4347 C4340 1.356 . S
N4347 H4350 0.984 . S
N4347 H4351 0.985 . S
H4348 N4343 0.984 . S
H4349 N4343 0.985 . S
H4350 N4347 0.984 . S
H4351 N4347 0.985 . S
H4352 N4346 0.984 . S
H4353 N4346 0.984 . S
H4354 N4342 0.984 . S
H4355 N4342 0.985 . S
C4356 C4357 1.363 . S
C4356 C4362 1.379 . S
C4356 N4364 1.356 . S
C4357 C4356 1.363 . S
C4357 C4363 1.363 . S
C4358 C4359 1.363 . S
C4358 C4363 1.379 . S
C4358 N4365 1.356 1_554 S
C4359 C4358 1.363 . S
C4359 C4362 1.363 . S
N4360 C4362 1.356 . S
N4360 H4372 0.987 . S
N4360 H4373 0.985 . S
N4361 C4363 1.356 1_556 S
N4361 H4366 0.984 1_556 S
N4361 H4367 0.985 . S
C4362 C4356 1.379 . S
C4362 C4359 1.363 . S
C4362 N4360 1.356 . S
C4363 C4357 1.363 . S
C4363 C4358 1.379 . S
C4363 N4361 1.356 1_554 S
N4364 C4356 1.356 . S
N4364 H4370 0.984 1_455 S
N4364 H4371 0.984 . S
N4365 C4358 1.356 1_556 S
N4365 H4368 0.984 . S
N4365 H4369 0.985 . S
H4366 N4361 0.984 1_554 S
H4367 N4361 0.985 . S
H4368 N4365 0.984 . S
H4369 N4365 0.985 . S
H4370 N4364 0.984 1_655 S
H4371 N4364 0.984 . S
H4372 N4360 0.987 . S
H4373 N4360 0.985 . S
C4374 C4375 1.363 . S
C4374 C4380 1.379 . S
C4374 N4382 1.356 . S
C4375 C4374 1.363 . S
C4375 C4381 1.363 . S
C4376 C4377 1.363 . S
C4376 C4381 1.379 . S
C4376 N4383 1.356 . S
C4377 C4376 1.363 . S
C4377 C4380 1.363 . S
N4378 C4380 1.356 . S
N4378 H4390 0.984 . S
N4378 H4391 0.985 . S
N4379 C4381 1.356 . S
N4379 H4384 0.984 . S
N4379 H4385 0.985 . S
C4380 C4374 1.379 . S
C4380 C4377 1.363 . S
C4380 N4378 1.356 . S
C4381 C4375 1.363 . S
C4381 C4376 1.379 . S
C4381 N4379 1.356 . S
N4382 C4374 1.356 . S
N4382 H4388 0.984 . S
N4382 H4389 0.984 . S
N4383 C4376 1.356 . S
N4383 H4386 0.984 . S
N4383 H4387 0.985 . S
H4384 N4379 0.984 . S
H4385 N4379 0.985 . S
H4386 N4383 0.984 . S
H4387 N4383 0.985 . S
H4388 N4382 0.984 . S
H4389 N4382 0.984 . S
H4390 N4378 0.984 . S
H4391 N4378 0.985 . S
C4392 C4393 1.363 . S
C4392 C4398 1.379 . S
C4392 N4400 1.356 . S
C4393 C4392 1.363 . S
C4393 C4399 1.363 . S
C4394 C4395 1.363 . S
C4394 C4399 1.379 . S
C4394 N4401 1.356 . S
C4395 C4394 1.363 . S
C4395 C4398 1.363 . S
N4396 C4398 1.356 . S
N4396 H4408 0.984 . S
N4396 H4409 0.985 . S
N4397 C4399 1.356 . S
N4397 H4402 0.984 . S
N4397 H4403 0.985 . S
C4398 C4392 1.379 . S
C4398 C4395 1.363 . S
C4398 N4396 1.356 . S
C4399 C4393 1.363 . S
C4399 C4394 1.379 . S
C4399 N4397 1.356 . S
N4400 C4392 1.356 . S
N4400 H4406 0.984 . S
N4400 H4407 0.984 . S
N4401 C4394 1.356 . S
N4401 H4404 0.984 . S
N4401 H4405 0.985 . S
H4402 N4397 0.984 . S
H4403 N4397 0.985 . S
H4404 N4401 0.984 . S
H4405 N4401 0.985 . S
H4406 N4400 0.984 . S
H4407 N4400 0.984 . S
H4408 N4396 0.984 . S
H4409 N4396 0.985 . S
C4410 C4411 1.363 . S
C4410 C4416 1.379 . S
C4410 N4418 1.356 . S
C4411 C4410 1.363 . S
C4411 C4417 1.363 . S
C4412 C4413 1.363 . S
C4412 C4417 1.379 . S
C4412 N4419 1.356 . S
C4413 C4412 1.363 . S
C4413 C4416 1.363 . S
N4414 C4416 1.356 . S
N4414 H4426 0.984 . S
N4414 H4427 0.985 . S
N4415 C4417 1.356 . S
N4415 H4420 0.984 . S
N4415 H4421 0.985 . S
C4416 C4410 1.379 . S
C4416 C4413 1.363 . S
C4416 N4414 1.356 . S
C4417 C4411 1.363 . S
C4417 C4412 1.379 . S
C4417 N4415 1.356 . S
N4418 C4410 1.356 . S
N4418 H4424 0.984 . S
N4418 H4425 0.984 . S
N4419 C4412 1.356 . S
N4419 H4422 0.984 . S
N4419 H4423 0.985 . S
H4420 N4415 0.984 . S
H4421 N4415 0.985 . S
H4422 N4419 0.984 . S
H4423 N4419 0.985 . S
H4424 N4418 0.984 . S
H4425 N4418 0.984 . S
H4426 N4414 0.984 . S
H4427 N4414 0.985 . S
C4428 C4429 1.363 . S
C4428 C4434 1.379 . S
C4428 N4436 1.356 . S
C4429 C4428 1.363 . S
C4429 C4435 1.363 . S
C4430 C4431 1.363 . S
C4430 C4435 1.376 . S
C4430 N4437 1.356 . S
C4431 C4430 1.363 . S
C4431 C4434 1.363 . S
N4432 C4434 1.356 . S
N4432 H4444 0.984 . S
N4432 H4445 0.985 . S
N4433 C4435 1.359 1_655 S
N4433 H4438 0.984 . S
N4433 H4439 0.985 . S
C4434 C4428 1.379 . S
C4434 C4431 1.363 . S
C4434 N4432 1.356 . S
C4435 C4429 1.363 . S
C4435 C4430 1.376 . S
C4435 N4433 1.359 1_455 S
N4436 C4428 1.356 . S
N4436 H4442 0.984 . S
N4436 H4443 0.984 . S
N4437 C4430 1.356 . S
N4437 H4440 0.984 . S
N4437 H4441 0.985 1_455 S
H4438 N4433 0.984 . S
H4439 N4433 0.985 . S
H4440 N4437 0.984 . S
H4441 N4437 0.985 1_655 S
H4442 N4436 0.984 . S
H4443 N4436 0.984 . S
H4444 N4432 0.984 . S
H4445 N4432 0.985 . S
C4446 C4447 1.363 . S
C4446 C4452 1.379 . S
C4446 N4454 1.356 . S
C4447 C4446 1.363 . S
C4447 C4453 1.363 . S
C4448 C4449 1.363 . S
C4448 C4453 1.379 . S
C4448 N4455 1.356 . S
C4449 C4448 1.363 . S
C4449 C4452 1.363 . S
N4450 C4452 1.356 . S
N4450 H4462 0.984 . S
N4450 H4463 0.985 . S
N4451 C4453 1.356 . S
N4451 H4456 0.984 . S
N4451 H4457 0.985 . S
C4452 C4446 1.379 . S
C4452 C4449 1.363 . S
C4452 N4450 1.356 . S
C4453 C4447 1.363 . S
C4453 C4448 1.379 . S
C4453 N4451 1.356 . S
N4454 C4446 1.356 . S
N4454 H4460 0.984 . S
N4454 H4461 0.984 . S
N4455 C4448 1.356 . S
N4455 H4458 0.984 . S
N4455 H4459 0.985 . S
H4456 N4451 0.984 . S
H4457 N4451 0.985 . S
H4458 N4455 0.984 . S
H4459 N4455 0.985 . S
H4460 N4454 0.984 . S
H4461 N4454 0.984 . S
H4462 N4450 0.984 . S
H4463 N4450 0.985 . S
C4464 C4465 1.363 . S
C4464 C4470 1.379 . S
C4464 N4472 1.356 . S
C4465 C4464 1.363 . S
C4465 C4471 1.363 . S
C4466 C4467 1.363 . S
C4466 C4471 1.379 . S
C4466 N4473 1.356 . S
C4467 C4466 1.363 . S
C4467 C4470 1.363 . S
N4468 C4470 1.356 . S
N4468 H4480 0.984 . S
N4468 H4481 0.985 . S
N4469 C4471 1.356 . S
N4469 H4474 0.984 . S
N4469 H4475 0.985 . S
C4470 C4464 1.379 . S
C4470 C4467 1.363 . S
C4470 N4468 1.356 . S
C4471 C4465 1.363 . S
C4471 C4466 1.379 . S
C4471 N4469 1.356 . S
N4472 C4464 1.356 . S
N4472 H4478 0.984 . S
N4472 H4479 0.984 . S
N4473 C4466 1.356 . S
N4473 H4476 0.984 . S
N4473 H4477 0.985 . S
H4474 N4469 0.984 . S
H4475 N4469 0.985 . S
H4476 N4473 0.984 . S
H4477 N4473 0.985 . S
H4478 N4472 0.984 . S
H4479 N4472 0.984 . S
H4480 N4468 0.984 . S
H4481 N4468 0.985 . S
C4482 C4483 1.363 . S
C4482 C4488 1.379 . S
C4482 N4490 1.356 . S
C4483 C4482 1.363 . S
C4483 C4489 1.363 . S
C4484 C4485 1.363 . S
C4484 C4489 1.379 . S
C4484 N4491 1.356 . S
C4485 C4484 1.363 . S
C4485 C4488 1.363 . S
N4486 C4488 1.356 . S
N4486 H4498 0.984 . S
N4486 H4499 0.985 . S
N4487 C4489 1.356 . S
N4487 H4492 0.984 . S
N4487 H4493 0.985 . S
C4488 C4482 1.379 . S
C4488 C4485 1.363 . S
C4488 N4486 1.356 . S
C4489 C4483 1.363 . S
C4489 C4484 1.379 . S
C4489 N4487 1.356 . S
N4490 C4482 1.356 . S
N4490 H4496 0.984 . S
N4490 H4497 0.984 . S
N4491 C4484 1.356 . S
N4491 H4494 0.984 . S
N4491 H4495 0.985 . S
H4492 N4487 0.984 . S
H4493 N4487 0.985 . S
H4494 N4491 0.984 . S
H4495 N4491 0.985 . S
H4496 N4490 0.984 . S
H4497 N4490 0.984 . S
H4498 N4486 0.984 . S
H4499 N4486 0.985 . S
C4500 C4501 1.363 . S
C4500 C4506 1.379 . S
C4500 N4508 1.356 . S
C4501 C4500 1.363 . S
C4501 C4507 1.363 . S
C4502 C4503 1.363 . S
C4502 C4507 1.379 . S
C4502 N4509 1.356 . S
C4503 C4502 1.363 . S
C4503 C4506 1.363 . S
N4504 C4506 1.356 . S
N4504 H4516 0.984 . S
N4504 H4517 0.985 . S
N4505 C4507 1.356 . S
N4505 H4510 0.984 . S
N4505 H4511 0.985 . S
C4506 C4500 1.379 . S
C4506 C4503 1.363 . S
C4506 N4504 1.356 . S
C4507 C4501 1.363 . S
C4507 C4502 1.379 . S
C4507 N4505 1.356 . S
N4508 C4500 1.356 . S
N4508 H4514 0.984 . S
N4508 H4515 0.984 . S
N4509 C4502 1.356 . S
N4509 H4512 0.984 . S
N4509 H4513 0.985 . S
H4510 N4505 0.984 . S
H4511 N4505 0.985 . S
H4512 N4509 0.984 . S
H4513 N4509 0.985 . S
H4514 N4508 0.984 . S
H4515 N4508 0.984 . S
H4516 N4504 0.984 . S
H4517 N4504 0.985 . S
C4518 C4519 1.363 . S
C4518 C4524 1.379 . S
C4518 N4526 1.356 . S
C4519 C4518 1.363 . S
C4519 C4525 1.363 . S
C4520 C4521 1.363 . S
C4520 C4525 1.379 . S
C4520 N4527 1.356 . S
C4521 C4520 1.363 . S
C4521 C4524 1.363 . S
N4522 C4524 1.356 . S
N4522 H4534 0.984 . S
N4522 H4535 0.985 . S
N4523 C4525 1.356 . S
N4523 H4528 0.984 . S
N4523 H4529 0.985 . S
C4524 C4518 1.379 . S
C4524 C4521 1.363 . S
C4524 N4522 1.356 . S
C4525 C4519 1.363 . S
C4525 C4520 1.379 . S
C4525 N4523 1.356 . S
N4526 C4518 1.356 . S
N4526 H4532 0.984 . S
N4526 H4533 0.984 . S
N4527 C4520 1.356 . S
N4527 H4530 0.984 . S
N4527 H4531 0.985 . S
H4528 N4523 0.984 . S
H4529 N4523 0.985 . S
H4530 N4527 0.984 . S
H4531 N4527 0.985 . S
H4532 N4526 0.984 . S
H4533 N4526 0.984 . S
H4534 N4522 0.984 . S
H4535 N4522 0.985 . S
C4536 C4537 1.363 . S
C4536 C4542 1.379 . S
C4536 N4544 1.356 . S
C4537 C4536 1.363 . S
C4537 C4543 1.363 . S
C4538 C4539 1.363 . S
C4538 C4543 1.379 . S
C4538 N4545 1.356 . S
C4539 C4538 1.363 . S
C4539 C4542 1.363 . S
N4540 C4542 1.356 . S
N4540 H4552 0.984 . S
N4540 H4553 0.985 . S
N4541 C4543 1.356 . S
N4541 H4546 0.984 . S
N4541 H4547 0.985 . S
C4542 C4536 1.379 . S
C4542 C4539 1.363 . S
C4542 N4540 1.356 . S
C4543 C4537 1.363 . S
C4543 C4538 1.379 . S
C4543 N4541 1.356 . S
N4544 C4536 1.356 . S
N4544 H4550 0.984 . S
N4544 H4551 0.984 . S
N4545 C4538 1.356 . S
N4545 H4548 0.984 . S
N4545 H4549 0.985 . S
H4546 N4541 0.984 . S
H4547 N4541 0.985 . S
H4548 N4545 0.984 . S
H4549 N4545 0.985 . S
H4550 N4544 0.984 . S
H4551 N4544 0.984 . S
H4552 N4540 0.984 . S
H4553 N4540 0.985 . S
C4554 C4555 1.363 . S
C4554 C4560 1.379 . S
C4554 N4562 1.356 . S
C4555 C4554 1.363 . S
C4555 C4561 1.363 . S
C4556 C4557 1.363 . S
C4556 C4561 1.379 . S
C4556 N4563 1.356 . S
C4557 C4556 1.363 . S
C4557 C4560 1.363 . S
N4558 C4560 1.356 . S
N4558 H4570 0.984 . S
N4558 H4571 0.985 . S
N4559 C4561 1.356 . S
N4559 H4564 0.984 . S
N4559 H4565 0.985 . S
C4560 C4554 1.379 . S
C4560 C4557 1.363 . S
C4560 N4558 1.356 . S
C4561 C4555 1.363 . S
C4561 C4556 1.379 . S
C4561 N4559 1.356 . S
N4562 C4554 1.356 . S
N4562 H4568 0.984 . S
N4562 H4569 0.984 . S
N4563 C4556 1.356 . S
N4563 H4566 0.984 . S
N4563 H4567 0.985 . S
H4564 N4559 0.984 . S
H4565 N4559 0.985 . S
H4566 N4563 0.984 . S
H4567 N4563 0.985 . S
H4568 N4562 0.984 . S
H4569 N4562 0.984 . S
H4570 N4558 0.984 . S
H4571 N4558 0.985 . S
C4572 C4573 1.363 . S
C4572 C4578 1.379 . S
C4572 N4580 1.356 . S
C4573 C4572 1.363 . S
C4573 C4579 1.363 . S
C4574 C4575 1.363 . S
C4574 C4579 1.379 . S
C4574 N4581 1.356 . S
C4575 C4574 1.363 . S
C4575 C4578 1.363 . S
N4576 C4578 1.356 . S
N4576 H4588 0.984 . S
N4576 H4589 0.985 . S
N4577 C4579 1.356 . S
N4577 H4582 0.984 . S
N4577 H4583 0.985 . S
C4578 C4572 1.379 . S
C4578 C4575 1.363 . S
C4578 N4576 1.356 . S
C4579 C4573 1.363 . S
C4579 C4574 1.379 . S
C4579 N4577 1.356 . S
N4580 C4572 1.356 . S
N4580 H4586 0.984 . S
N4580 H4587 0.984 . S
N4581 C4574 1.356 . S
N4581 H4584 0.984 . S
N4581 H4585 0.985 . S
H4582 N4577 0.984 . S
H4583 N4577 0.985 . S
H4584 N4581 0.984 . S
H4585 N4581 0.985 . S
H4586 N4580 0.984 . S
H4587 N4580 0.984 . S
H4588 N4576 0.984 . S
H4589 N4576 0.985 . S
C4590 C4591 1.363 . S
C4590 C4596 1.379 . S
C4590 N4598 1.356 . S
C4591 C4590 1.363 . S
C4591 C4597 1.363 . S
C4592 C4593 1.363 . S
C4592 C4597 1.379 . S
C4592 N4599 1.356 . S
C4593 C4592 1.363 . S
C4593 C4596 1.363 . S
N4594 C4596 1.356 . S
N4594 H4606 0.984 . S
N4594 H4607 0.985 . S
N4595 C4597 1.356 . S
N4595 H4600 0.984 . S
N4595 H4601 0.985 . S
C4596 C4590 1.379 . S
C4596 C4593 1.363 . S
C4596 N4594 1.356 . S
C4597 C4591 1.363 . S
C4597 C4592 1.379 . S
C4597 N4595 1.356 . S
N4598 C4590 1.356 . S
N4598 H4604 0.984 . S
N4598 H4605 0.984 . S
N4599 C4592 1.356 . S
N4599 H4602 0.984 . S
N4599 H4603 0.985 . S
H4600 N4595 0.984 . S
H4601 N4595 0.985 . S
H4602 N4599 0.984 . S
H4603 N4599 0.985 . S
H4604 N4598 0.984 . S
H4605 N4598 0.984 . S
H4606 N4594 0.984 . S
H4607 N4594 0.985 . S
C4608 C4609 1.363 . S
C4608 C4614 1.379 . S
C4608 N4616 1.356 . S
C4609 C4608 1.363 . S
C4609 C4615 1.363 . S
C4610 C4611 1.363 . S
C4610 C4615 1.379 . S
C4610 N4617 1.356 . S
C4611 C4610 1.363 . S
C4611 C4614 1.363 . S
N4612 C4614 1.356 . S
N4612 H4624 0.984 . S
N4612 H4625 0.985 . S
N4613 C4615 1.356 . S
N4613 H4618 0.984 . S
N4613 H4619 0.985 . S
C4614 C4608 1.379 . S
C4614 C4611 1.363 . S
C4614 N4612 1.356 . S
C4615 C4609 1.363 . S
C4615 C4610 1.379 . S
C4615 N4613 1.356 . S
N4616 C4608 1.356 . S
N4616 H4622 0.984 . S
N4616 H4623 0.984 . S
N4617 C4610 1.356 . S
N4617 H4620 0.984 . S
N4617 H4621 0.985 . S
H4618 N4613 0.984 . S
H4619 N4613 0.985 . S
H4620 N4617 0.984 . S
H4621 N4617 0.985 . S
H4622 N4616 0.984 . S
H4623 N4616 0.984 . S
H4624 N4612 0.984 . S
H4625 N4612 0.985 . S
C4626 C4627 1.363 . S
C4626 C4632 1.379 . S
C4626 N4634 1.356 . S
C4627 C4626 1.363 . S
C4627 C4633 1.363 . S
C4628 C4629 1.363 . S
C4628 C4633 1.379 . S
C4628 N4635 1.356 . S
C4629 C4628 1.363 . S
C4629 C4632 1.363 . S
N4630 C4632 1.356 . S
N4630 H4642 0.984 . S
N4630 H4643 0.985 . S
N4631 C4633 1.356 . S
N4631 H4636 0.984 . S
N4631 H4637 0.985 . S
C4632 C4626 1.379 . S
C4632 C4629 1.363 . S
C4632 N4630 1.356 . S
C4633 C4627 1.363 . S
C4633 C4628 1.379 . S
C4633 N4631 1.356 . S
N4634 C4626 1.356 . S
N4634 H4640 0.984 . S
N4634 H4641 0.984 . S
N4635 C4628 1.356 . S
N4635 H4638 0.984 . S
N4635 H4639 0.985 . S
H4636 N4631 0.984 . S
H4637 N4631 0.985 . S
H4638 N4635 0.984 . S
H4639 N4635 0.985 . S
H4640 N4634 0.984 . S
H4641 N4634 0.984 . S
H4642 N4630 0.984 . S
H4643 N4630 0.985 . S
C4644 C4645 1.363 . S
C4644 C4650 1.379 . S
C4644 N4652 1.356 . S
C4645 C4644 1.363 . S
C4645 C4651 1.363 . S
C4646 C4647 1.363 . S
C4646 C4651 1.379 . S
C4646 N4653 1.356 . S
C4647 C4646 1.363 . S
C4647 C4650 1.363 . S
N4648 C4650 1.356 . S
N4648 H4660 0.984 . S
N4648 H4661 0.985 . S
N4649 C4651 1.356 . S
N4649 H4654 0.984 . S
N4649 H4655 0.985 . S
C4650 C4644 1.379 . S
C4650 C4647 1.363 . S
C4650 N4648 1.356 . S
C4651 C4645 1.363 . S
C4651 C4646 1.379 . S
C4651 N4649 1.356 . S
N4652 C4644 1.356 . S
N4652 H4658 0.984 . S
N4652 H4659 0.984 . S
N4653 C4646 1.356 . S
N4653 H4656 0.984 . S
N4653 H4657 0.985 . S
H4654 N4649 0.984 . S
H4655 N4649 0.985 . S
H4656 N4653 0.984 . S
H4657 N4653 0.985 . S
H4658 N4652 0.984 . S
H4659 N4652 0.984 . S
H4660 N4648 0.984 . S
H4661 N4648 0.985 . S
C4662 C4663 1.363 . S
C4662 C4668 1.379 . S
C4662 N4670 1.356 . S
C4663 C4662 1.363 . S
C4663 C4669 1.363 1_545 S
C4664 C4665 1.363 1_565 S
C4664 C4669 1.379 . S
C4664 N4671 1.356 . S
C4665 C4664 1.363 1_545 S
C4665 C4668 1.363 . S
N4666 C4668 1.356 . S
N4666 H4678 0.984 . S
N4666 H4679 0.985 . S
N4667 C4669 1.356 . S
N4667 H4672 0.984 . S
N4667 H4673 0.985 . S
C4668 C4662 1.379 . S
C4668 C4665 1.363 . S
C4668 N4666 1.356 . S
C4669 C4663 1.363 1_565 S
C4669 C4664 1.379 . S
C4669 N4667 1.356 . S
N4670 C4662 1.356 . S
N4670 H4676 0.984 . S
N4670 H4677 0.984 . S
N4671 C4664 1.356 . S
N4671 H4674 0.984 . S
N4671 H4675 0.985 . S
H4672 N4667 0.984 . S
H4673 N4667 0.985 . S
H4674 N4671 0.984 . S
H4675 N4671 0.985 . S
H4676 N4670 0.984 . S
H4677 N4670 0.984 . S
H4678 N4666 0.984 . S
H4679 N4666 0.985 . S
C4680 C4681 1.363 . S
C4680 C4686 1.379 . S
C4680 N4688 1.356 . S
C4681 C4680 1.363 . S
C4681 C4687 1.363 . S
C4682 C4683 1.363 . S
C4682 C4687 1.379 . S
C4682 N4689 1.356 . S
C4683 C4682 1.363 . S
C4683 C4686 1.363 . S
N4684 C4686 1.356 . S
N4684 H4696 0.984 . S
N4684 H4697 0.985 . S
N4685 C4687 1.356 . S
N4685 H4690 0.984 . S
N4685 H4691 0.985 . S
C4686 C4680 1.379 . S
C4686 C4683 1.363 . S
C4686 N4684 1.356 . S
C4687 C4681 1.363 . S
C4687 C4682 1.379 . S
C4687 N4685 1.356 . S
N4688 C4680 1.356 . S
N4688 H4694 0.984 . S
N4688 H4695 0.984 . S
N4689 C4682 1.356 . S
N4689 H4692 0.984 . S
N4689 H4693 0.985 . S
H4690 N4685 0.984 . S
H4691 N4685 0.985 . S
H4692 N4689 0.984 . S
H4693 N4689 0.985 . S
H4694 N4688 0.984 . S
H4695 N4688 0.984 . S
H4696 N4684 0.984 . S
H4697 N4684 0.985 . S
C4698 C4699 1.363 . S
C4698 C4704 1.379 . S
C4698 N4706 1.356 . S
C4699 C4698 1.363 . S
C4699 C4705 1.363 . S
C4700 C4701 1.363 . S
C4700 C4705 1.379 . S
C4700 N4707 1.356 . S
C4701 C4700 1.363 . S
C4701 C4704 1.363 . S
N4702 C4704 1.356 . S
N4702 H4714 0.984 . S
N4702 H4715 0.985 . S
N4703 C4705 1.356 1_556 S
N4703 H4708 0.984 . S
N4703 H4709 0.985 . S
C4704 C4698 1.379 . S
C4704 C4701 1.363 . S
C4704 N4702 1.356 . S
C4705 C4699 1.363 . S
C4705 C4700 1.379 . S
C4705 N4703 1.356 1_554 S
N4706 C4698 1.356 . S
N4706 H4712 0.984 . S
N4706 H4713 0.984 . S
N4707 C4700 1.356 . S
N4707 H4710 0.984 . S
N4707 H4711 0.985 1_554 S
H4708 N4703 0.984 . S
H4709 N4703 0.985 . S
H4710 N4707 0.984 . S
H4711 N4707 0.985 1_556 S
H4712 N4706 0.984 . S
H4713 N4706 0.984 . S
H4714 N4702 0.984 . S
H4715 N4702 0.985 . S
C4716 C4717 1.363 . S
C4716 C4722 1.379 . S
C4716 N4724 1.356 . S
C4717 C4716 1.363 . S
C4717 C4723 1.363 . S
C4718 C4719 1.363 . S
C4718 C4723 1.379 . S
C4718 N4725 1.356 . S
C4719 C4718 1.363 . S
C4719 C4722 1.363 . S
N4720 C4722 1.356 . S
N4720 H4732 0.984 . S
N4720 H4733 0.985 . S
N4721 C4723 1.356 . S
N4721 H4726 0.984 . S
N4721 H4727 0.985 . S
C4722 C4716 1.379 . S
C4722 C4719 1.363 . S
C4722 N4720 1.356 . S
C4723 C4717 1.363 . S
C4723 C4718 1.379 . S
C4723 N4721 1.356 . S
N4724 C4716 1.356 . S
N4724 H4730 0.984 . S
N4724 H4731 0.984 . S
N4725 C4718 1.356 . S
N4725 H4728 0.984 . S
N4725 H4729 0.985 . S
H4726 N4721 0.984 . S
H4727 N4721 0.985 . S
H4728 N4725 0.984 . S
H4729 N4725 0.985 . S
H4730 N4724 0.984 . S
H4731 N4724 0.984 . S
H4732 N4720 0.984 . S
H4733 N4720 0.985 . S
C4734 C4735 1.363 . S
C4734 C4740 1.379 . S
C4734 N4742 1.356 . S
C4735 C4734 1.363 . S
C4735 C4741 1.363 . S
C4736 C4737 1.363 . S
C4736 C4741 1.379 . S
C4736 N4743 1.356 . S
C4737 C4736 1.363 . S
C4737 C4740 1.363 . S
N4738 C4740 1.356 . S
N4738 H4750 0.984 . S
N4738 H4751 0.985 . S
N4739 C4741 1.356 . S
N4739 H4744 0.984 . S
N4739 H4745 0.985 . S
C4740 C4734 1.379 . S
C4740 C4737 1.363 . S
C4740 N4738 1.356 . S
C4741 C4735 1.363 . S
C4741 C4736 1.379 . S
C4741 N4739 1.356 . S
N4742 C4734 1.356 . S
N4742 H4748 0.984 . S
N4742 H4749 0.984 . S
N4743 C4736 1.356 . S
N4743 H4746 0.984 . S
N4743 H4747 0.985 . S
H4744 N4739 0.984 . S
H4745 N4739 0.985 . S
H4746 N4743 0.984 . S
H4747 N4743 0.985 . S
H4748 N4742 0.984 . S
H4749 N4742 0.984 . S
H4750 N4738 0.984 . S
H4751 N4738 0.985 . S
C4752 C4753 1.363 . S
C4752 C4758 1.379 . S
C4752 N4760 1.356 . S
C4753 C4752 1.363 . S
C4753 C4759 1.363 . S
C4754 C4755 1.363 . S
C4754 C4759 1.379 . S
C4754 N4761 1.356 . S
C4755 C4754 1.363 . S
C4755 C4758 1.363 . S
N4756 C4758 1.356 . S
N4756 H4768 0.984 . S
N4756 H4769 0.985 . S
N4757 C4759 1.356 . S
N4757 H4762 0.984 . S
N4757 H4763 0.985 . S
C4758 C4752 1.379 . S
C4758 C4755 1.363 . S
C4758 N4756 1.356 . S
C4759 C4753 1.363 . S
C4759 C4754 1.379 . S
C4759 N4757 1.356 . S
N4760 C4752 1.356 . S
N4760 H4766 0.984 . S
N4760 H4767 0.984 . S
N4761 C4754 1.356 . S
N4761 H4764 0.984 . S
N4761 H4765 0.985 . S
H4762 N4757 0.984 . S
H4763 N4757 0.985 . S
H4764 N4761 0.984 . S
H4765 N4761 0.985 . S
H4766 N4760 0.984 . S
H4767 N4760 0.984 . S
H4768 N4756 0.984 . S
H4769 N4756 0.985 . S
C4770 C4771 1.363 . S
C4770 C4776 1.379 . S
C4770 N4778 1.356 . S
C4771 C4770 1.363 . S
C4771 C4777 1.363 . S
C4772 C4773 1.363 . S
C4772 C4777 1.379 . S
C4772 N4779 1.356 . S
C4773 C4772 1.363 . S
C4773 C4776 1.363 . S
N4774 C4776 1.356 . S
N4774 H4786 0.984 . S
N4774 H4787 0.985 . S
N4775 C4777 1.356 . S
N4775 H4780 0.984 . S
N4775 H4781 0.985 . S
C4776 C4770 1.379 . S
C4776 C4773 1.363 . S
C4776 N4774 1.356 . S
C4777 C4771 1.363 . S
C4777 C4772 1.379 . S
C4777 N4775 1.356 . S
N4778 C4770 1.356 . S
N4778 H4784 0.984 . S
N4778 H4785 0.984 . S
N4779 C4772 1.356 . S
N4779 H4782 0.984 . S
N4779 H4783 0.985 . S
H4780 N4775 0.984 . S
H4781 N4775 0.985 . S
H4782 N4779 0.984 . S
H4783 N4779 0.985 . S
H4784 N4778 0.984 . S
H4785 N4778 0.984 . S
H4786 N4774 0.984 . S
H4787 N4774 0.985 . S
C4788 C4789 1.363 . S
C4788 C4794 1.379 . S
C4788 N4796 1.356 . S
C4789 C4788 1.363 . S
C4789 C4795 1.363 . S
C4790 C4791 1.363 . S
C4790 C4795 1.379 . S
C4790 N4797 1.356 . S
C4791 C4790 1.363 . S
C4791 C4794 1.363 . S
N4792 C4794 1.356 . S
N4792 H4804 0.984 . S
N4792 H4805 0.985 . S
N4793 C4795 1.339 1_556 S
N4793 H4798 0.985 1_556 S
N4793 H4799 1.003 . S
C4794 C4788 1.379 . S
C4794 C4791 1.363 . S
C4794 N4792 1.356 . S
C4795 C4789 1.363 . S
C4795 C4790 1.379 . S
C4795 N4793 1.339 1_554 S
N4796 C4788 1.356 . S
N4796 H4802 0.984 . S
N4796 H4803 0.984 . S
N4797 C4790 1.356 . S
N4797 H4800 0.984 . S
N4797 H4801 0.985 1_554 S
H4798 N4793 0.985 1_554 S
H4799 N4793 1.003 . S
H4800 N4797 0.984 . S
H4801 N4797 0.985 1_556 S
H4802 N4796 0.984 . S
H4803 N4796 0.984 . S
H4804 N4792 0.984 . S
H4805 N4792 0.985 . S
C4806 C4807 1.363 . S
C4806 C4812 1.379 . S
C4806 N4814 1.356 . S
C4807 C4806 1.363 . S
C4807 C4813 1.363 . S
C4808 C4809 1.363 . S
C4808 C4813 1.379 . S
C4808 N4815 1.356 . S
C4809 C4808 1.363 . S
C4809 C4812 1.363 . S
N4810 C4812 1.356 . S
N4810 H4822 0.984 . S
N4810 H4823 0.985 . S
N4811 C4813 1.356 . S
N4811 H4816 0.984 . S
N4811 H4817 0.985 . S
C4812 C4806 1.379 . S
C4812 C4809 1.363 . S
C4812 N4810 1.356 . S
C4813 C4807 1.363 . S
C4813 C4808 1.379 . S
C4813 N4811 1.356 . S
N4814 C4806 1.356 . S
N4814 H4820 0.984 . S
N4814 H4821 0.984 . S
N4815 C4808 1.356 . S
N4815 H4818 0.984 . S
N4815 H4819 0.985 . S
H4816 N4811 0.984 . S
H4817 N4811 0.985 . S
H4818 N4815 0.984 . S
H4819 N4815 0.985 . S
H4820 N4814 0.984 . S
H4821 N4814 0.984 . S
H4822 N4810 0.984 . S
H4823 N4810 0.985 . S
C4824 C4825 1.363 . S
C4824 C4830 1.379 . S
C4824 N4832 1.356 . S
C4825 C4824 1.363 . S
C4825 C4831 1.363 . S
C4826 C4827 1.363 . S
C4826 C4831 1.379 . S
C4826 N4833 1.356 . S
C4827 C4826 1.363 . S
C4827 C4830 1.363 . S
N4828 C4830 1.356 . S
N4828 H4840 0.984 . S
N4828 H4841 0.985 . S
N4829 C4831 1.356 . S
N4829 H4834 0.984 . S
N4829 H4835 0.985 . S
C4830 C4824 1.379 . S
C4830 C4827 1.363 . S
C4830 N4828 1.356 . S
C4831 C4825 1.363 . S
C4831 C4826 1.379 . S
C4831 N4829 1.356 . S
N4832 C4824 1.356 . S
N4832 H4838 0.984 . S
N4832 H4839 0.984 . S
N4833 C4826 1.356 . S
N4833 H4836 0.984 1_556 S
N4833 H4837 0.985 1_556 S
H4834 N4829 0.984 . S
H4835 N4829 0.985 . S
H4836 N4833 0.984 1_554 S
H4837 N4833 0.985 1_554 S
H4838 N4832 0.984 . S
H4839 N4832 0.984 . S
H4840 N4828 0.984 . S
H4841 N4828 0.985 . S
C4842 C4843 1.363 . S
C4842 C4848 1.379 . S
C4842 N4850 1.356 . S
C4843 C4842 1.363 . S
C4843 C4849 1.363 . S
C4844 C4845 1.363 . S
C4844 C4849 1.379 . S
C4844 N4851 1.356 . S
C4845 C4844 1.363 . S
C4845 C4848 1.363 . S
N4846 C4848 1.356 . S
N4846 H4858 0.984 . S
N4846 H4859 0.985 . S
N4847 C4849 1.356 . S
N4847 H4852 0.984 . S
N4847 H4853 0.985 . S
C4848 C4842 1.379 . S
C4848 C4845 1.363 . S
C4848 N4846 1.356 . S
C4849 C4843 1.363 . S
C4849 C4844 1.379 . S
C4849 N4847 1.356 . S
N4850 C4842 1.356 . S
N4850 H4856 0.984 . S
N4850 H4857 0.984 . S
N4851 C4844 1.356 . S
N4851 H4854 0.984 . S
N4851 H4855 0.985 . S
H4852 N4847 0.984 . S
H4853 N4847 0.985 . S
H4854 N4851 0.984 . S
H4855 N4851 0.985 . S
H4856 N4850 0.984 . S
H4857 N4850 0.984 . S
H4858 N4846 0.984 . S
H4859 N4846 0.985 . S
C4860 C4861 1.363 . S
C4860 C4866 1.379 . S
C4860 N4868 1.356 . S
C4861 C4860 1.363 . S
C4861 C4867 1.363 . S
C4862 C4863 1.363 . S
C4862 C4867 1.379 . S
C4862 N4869 1.356 . S
C4863 C4862 1.363 . S
C4863 C4866 1.363 . S
N4864 C4866 1.356 . S
N4864 H4876 0.984 . S
N4864 H4877 0.985 . S
N4865 C4867 1.356 . S
N4865 H4870 0.984 . S
N4865 H4871 0.985 . S
C4866 C4860 1.379 . S
C4866 C4863 1.363 . S
C4866 N4864 1.356 . S
C4867 C4861 1.363 . S
C4867 C4862 1.379 . S
C4867 N4865 1.356 . S
N4868 C4860 1.356 . S
N4868 H4874 0.984 . S
N4868 H4875 0.984 . S
N4869 C4862 1.356 . S
N4869 H4872 0.984 . S
N4869 H4873 0.985 1_455 S
H4870 N4865 0.984 . S
H4871 N4865 0.985 . S
H4872 N4869 0.984 . S
H4873 N4869 0.985 1_655 S
H4874 N4868 0.984 . S
H4875 N4868 0.984 . S
H4876 N4864 0.984 . S
H4877 N4864 0.985 . S
C4878 C4879 1.363 . S
C4878 C4884 1.379 . S
C4878 N4886 1.356 . S
C4879 C4878 1.363 . S
C4879 C4885 1.363 . S
C4880 C4881 1.363 . S
C4880 C4885 1.379 . S
C4880 N4887 1.356 . S
C4881 C4880 1.363 . S
C4881 C4884 1.363 . S
N4882 C4884 1.356 . S
N4882 H4894 0.984 . S
N4882 H4895 0.985 . S
N4883 C4885 1.356 . S
N4883 H4888 0.984 . S
N4883 H4889 0.985 . S
C4884 C4878 1.379 . S
C4884 C4881 1.363 . S
C4884 N4882 1.356 . S
C4885 C4879 1.363 . S
C4885 C4880 1.379 . S
C4885 N4883 1.356 . S
N4886 C4878 1.356 . S
N4886 H4892 0.984 . S
N4886 H4893 0.984 . S
N4887 C4880 1.356 . S
N4887 H4890 0.984 . S
N4887 H4891 0.985 . S
H4888 N4883 0.984 . S
H4889 N4883 0.985 . S
H4890 N4887 0.984 . S
H4891 N4887 0.985 . S
H4892 N4886 0.984 . S
H4893 N4886 0.984 . S
H4894 N4882 0.984 . S
H4895 N4882 0.985 . S
C4896 C4897 1.363 . S
C4896 C4902 1.379 . S
C4896 N4904 1.356 . S
C4897 C4896 1.363 . S
C4897 C4903 1.363 . S
C4898 C4899 1.363 . S
C4898 C4903 1.379 . S
C4898 N4905 1.356 . S
C4899 C4898 1.363 . S
C4899 C4902 1.363 . S
N4900 C4902 1.356 . S
N4900 H4912 0.984 . S
N4900 H4913 0.985 . S
N4901 C4903 1.356 . S
N4901 H4906 0.984 . S
N4901 H4907 0.985 . S
C4902 C4896 1.379 . S
C4902 C4899 1.363 . S
C4902 N4900 1.356 . S
C4903 C4897 1.363 . S
C4903 C4898 1.379 . S
C4903 N4901 1.356 . S
N4904 C4896 1.356 . S
N4904 H4910 0.984 . S
N4904 H4911 0.984 . S
N4905 C4898 1.356 . S
N4905 H4908 0.984 . S
N4905 H4909 0.985 . S
H4906 N4901 0.984 . S
H4907 N4901 0.985 . S
H4908 N4905 0.984 . S
H4909 N4905 0.985 . S
H4910 N4904 0.984 . S
H4911 N4904 0.984 . S
H4912 N4900 0.984 . S
H4913 N4900 0.985 . S
C4914 C4915 1.363 . S
C4914 C4920 1.379 . S
C4914 N4922 1.356 . S
C4915 C4914 1.363 . S
C4915 C4921 1.363 . S
C4916 C4917 1.363 . S
C4916 C4921 1.379 . S
C4916 N4923 1.356 . S
C4917 C4916 1.363 . S
C4917 C4920 1.363 . S
N4918 C4920 1.356 . S
N4918 H4930 0.984 . S
N4918 H4931 0.985 . S
N4919 C4921 1.356 . S
N4919 H4924 0.984 . S
N4919 H4925 0.985 . S
C4920 C4914 1.379 . S
C4920 C4917 1.363 . S
C4920 N4918 1.356 . S
C4921 C4915 1.363 . S
C4921 C4916 1.379 . S
C4921 N4919 1.356 . S
N4922 C4914 1.356 . S
N4922 H4928 0.984 . S
N4922 H4929 0.984 . S
N4923 C4916 1.356 . S
N4923 H4926 0.984 . S
N4923 H4927 0.985 . S
H4924 N4919 0.984 . S
H4925 N4919 0.985 . S
H4926 N4923 0.984 . S
H4927 N4923 0.985 . S
H4928 N4922 0.984 . S
H4929 N4922 0.984 . S
H4930 N4918 0.984 . S
H4931 N4918 0.985 . S
C4932 C4933 1.363 . S
C4932 C4938 1.379 . S
C4932 N4940 1.356 . S
C4933 C4932 1.363 . S
C4933 C4939 1.363 . S
C4934 C4935 1.363 . S
C4934 C4939 1.379 . S
C4934 N4941 1.356 1_655 S
C4935 C4934 1.363 . S
C4935 C4938 1.363 . S
N4936 C4938 1.356 . S
N4936 H4948 0.984 . S
N4936 H4949 0.985 . S
N4937 C4939 1.356 . S
N4937 H4942 0.984 . S
N4937 H4943 0.985 . S
C4938 C4932 1.379 . S
C4938 C4935 1.363 . S
C4938 N4936 1.356 . S
C4939 C4933 1.363 . S
C4939 C4934 1.379 . S
C4939 N4937 1.356 . S
N4940 C4932 1.356 . S
N4940 H4946 0.984 . S
N4940 H4947 0.984 . S
N4941 C4934 1.356 1_455 S
N4941 H4944 0.984 . S
N4941 H4945 0.985 . S
H4942 N4937 0.984 . S
H4943 N4937 0.985 . S
H4944 N4941 0.984 . S
H4945 N4941 0.985 . S
H4946 N4940 0.984 . S
H4947 N4940 0.984 . S
H4948 N4936 0.984 . S
H4949 N4936 0.985 . S
C4950 C4951 1.363 . S
C4950 C4956 1.379 . S
C4950 N4958 1.356 . S
C4951 C4950 1.363 . S
C4951 C4957 1.363 . S
C4952 C4953 1.363 . S
C4952 C4957 1.379 . S
C4952 N4959 1.356 . S
C4953 C4952 1.363 . S
C4953 C4956 1.363 . S
N4954 C4956 1.356 . S
N4954 H4966 0.984 . S
N4954 H4967 0.985 . S
N4955 C4957 1.356 . S
N4955 H4960 0.984 . S
N4955 H4961 0.985 . S
C4956 C4950 1.379 . S
C4956 C4953 1.363 . S
C4956 N4954 1.356 . S
C4957 C4951 1.363 . S
C4957 C4952 1.379 . S
C4957 N4955 1.356 . S
N4958 C4950 1.356 . S
N4958 H4964 0.984 . S
N4958 H4965 0.984 . S
N4959 C4952 1.356 . S
N4959 H4962 0.984 . S
N4959 H4963 0.985 . S
H4960 N4955 0.984 . S
H4961 N4955 0.985 . S
H4962 N4959 0.984 . S
H4963 N4959 0.985 . S
H4964 N4958 0.984 . S
H4965 N4958 0.984 . S
H4966 N4954 0.984 . S
H4967 N4954 0.985 . S
C4968 C4969 1.363 . S
C4968 C4974 1.379 . S
C4968 N4976 1.356 . S
C4969 C4968 1.363 . S
C4969 C4975 1.363 . S
C4970 C4971 1.363 . S
C4970 C4975 1.379 . S
C4970 N4977 1.356 . S
C4971 C4970 1.363 . S
C4971 C4974 1.363 . S
N4972 C4974 1.356 . S
N4972 H4984 0.984 . S
N4972 H4985 0.985 . S
N4973 C4975 1.356 . S
N4973 H4978 0.984 . S
N4973 H4979 0.985 . S
C4974 C4968 1.379 . S
C4974 C4971 1.363 . S
C4974 N4972 1.356 . S
C4975 C4969 1.363 . S
C4975 C4970 1.379 . S
C4975 N4973 1.356 . S
N4976 C4968 1.356 . S
N4976 H4982 0.984 . S
N4976 H4983 0.984 . S
N4977 C4970 1.356 . S
N4977 H4980 0.984 . S
N4977 H4981 0.985 . S
H4978 N4973 0.984 . S
H4979 N4973 0.985 . S
H4980 N4977 0.984 . S
H4981 N4977 0.985 . S
H4982 N4976 0.984 . S
H4983 N4976 0.984 . S
H4984 N4972 0.984 . S
H4985 N4972 0.985 . S
C4986 C4987 1.363 . S
C4986 C4992 1.379 . S
C4986 N4994 1.356 . S
C4987 C4986 1.363 . S
C4987 C4993 1.363 . S
C4988 C4989 1.363 . S
C4988 C4993 1.379 . S
C4988 N4995 1.356 . S
C4989 C4988 1.363 . S
C4989 C4992 1.363 . S
N4990 C4992 1.356 . S
N4990 H5002 0.984 . S
N4990 H5003 0.985 . S
N4991 C4993 1.356 . S
N4991 H4996 0.984 . S
N4991 H4997 0.985 . S
C4992 C4986 1.379 . S
C4992 C4989 1.363 . S
C4992 N4990 1.356 . S
C4993 C4987 1.363 . S
C4993 C4988 1.379 . S
C4993 N4991 1.356 . S
N4994 C4986 1.356 . S
N4994 H5000 0.984 . S
N4994 H5001 0.984 . S
N4995 C4988 1.356 . S
N4995 H4998 0.984 . S
N4995 H4999 0.985 . S
H4996 N4991 0.984 . S
H4997 N4991 0.985 . S
H4998 N4995 0.984 . S
H4999 N4995 0.985 . S
H5000 N4994 0.984 . S
H5001 N4994 0.984 . S
H5002 N4990 0.984 . S
H5003 N4990 0.985 . S
C5004 C5005 1.363 . S
C5004 C5010 1.379 . S
C5004 N5012 1.356 . S
C5005 C5004 1.363 . S
C5005 C5011 1.363 . S
C5006 C5007 1.363 . S
C5006 C5011 1.379 . S
C5006 N5013 1.356 . S
C5007 C5006 1.363 . S
C5007 C5010 1.363 . S
N5008 C5010 1.356 . S
N5008 H5020 0.984 . S
N5008 H5021 0.985 . S
N5009 C5011 1.356 . S
N5009 H5014 0.984 . S
N5009 H5015 0.985 . S
C5010 C5004 1.379 . S
C5010 C5007 1.363 . S
C5010 N5008 1.356 . S
C5011 C5005 1.363 . S
C5011 C5006 1.379 . S
C5011 N5009 1.356 . S
N5012 C5004 1.356 . S
N5012 H5018 0.984 . S
N5012 H5019 0.984 . S
N5013 C5006 1.356 . S
N5013 H5016 0.984 . S
N5013 H5017 0.985 . S
H5014 N5009 0.984 . S
H5015 N5009 0.985 . S
H5016 N5013 0.984 . S
H5017 N5013 0.985 . S
H5018 N5012 0.984 . S
H5019 N5012 0.984 . S
H5020 N5008 0.984 . S
H5021 N5008 0.985 . S
C5022 C5023 1.363 . S
C5022 C5028 1.379 . S
C5022 N5030 1.356 . S
C5023 C5022 1.363 . S
C5023 C5029 1.363 . S
C5024 C5025 1.363 . S
C5024 C5029 1.379 . S
C5024 N5031 1.356 . S
C5025 C5024 1.363 . S
C5025 C5028 1.363 . S
N5026 C5028 1.356 . S
N5026 H5038 0.984 . S
N5026 H5039 0.985 . S
N5027 C5029 1.356 . S
N5027 H5032 0.984 . S
N5027 H5033 0.985 . S
C5028 C5022 1.379 . S
C5028 C5025 1.363 . S
C5028 N5026 1.356 . S
C5029 C5023 1.363 . S
C5029 C5024 1.379 . S
C5029 N5027 1.356 . S
N5030 C5022 1.356 . S
N5030 H5036 0.984 . S
N5030 H5037 0.984 . S
N5031 C5024 1.356 . S
N5031 H5034 0.984 . S
N5031 H5035 0.985 . S
H5032 N5027 0.984 . S
H5033 N5027 0.985 . S
H5034 N5031 0.984 . S
H5035 N5031 0.985 . S
H5036 N5030 0.984 . S
H5037 N5030 0.984 . S
H5038 N5026 0.984 . S
H5039 N5026 0.985 . S
C5040 C5041 1.363 . S
C5040 C5046 1.379 . S
C5040 N5048 1.356 . S
C5041 C5040 1.363 . S
C5041 C5047 1.363 . S
C5042 C5043 1.363 . S
C5042 C5047 1.379 . S
C5042 N5049 1.356 . S
C5043 C5042 1.363 . S
C5043 C5046 1.363 . S
N5044 C5046 1.356 . S
N5044 H5056 0.984 . S
N5044 H5057 0.985 . S
N5045 C5047 1.356 . S
N5045 H5050 0.984 . S
N5045 H5051 0.985 . S
C5046 C5040 1.379 . S
C5046 C5043 1.363 . S
C5046 N5044 1.356 . S
C5047 C5041 1.363 . S
C5047 C5042 1.379 . S
C5047 N5045 1.356 . S
N5048 C5040 1.356 . S
N5048 H5054 0.984 . S
N5048 H5055 0.984 . S
N5049 C5042 1.356 . S
N5049 H5052 0.984 . S
N5049 H5053 0.985 . S
H5050 N5045 0.984 . S
H5051 N5045 0.985 . S
H5052 N5049 0.984 . S
H5053 N5049 0.985 . S
H5054 N5048 0.984 . S
H5055 N5048 0.984 . S
H5056 N5044 0.984 . S
H5057 N5044 0.985 . S
C5058 C5059 1.363 . S
C5058 C5064 1.379 . S
C5058 N5066 1.356 . S
C5059 C5058 1.363 . S
C5059 C5065 1.363 . S
C5060 C5061 1.363 . S
C5060 C5065 1.379 . S
C5060 N5067 1.356 . S
C5061 C5060 1.363 . S
C5061 C5064 1.363 . S
N5062 C5064 1.356 1_545 S
N5062 H5074 0.984 . S
N5062 H5075 0.985 . S
N5063 C5065 1.356 . S
N5063 H5068 0.984 . S
N5063 H5069 0.985 . S
C5064 C5058 1.379 . S
C5064 C5061 1.363 . S
C5064 N5062 1.356 1_565 S
C5065 C5059 1.363 . S
C5065 C5060 1.379 . S
C5065 N5063 1.356 . S
N5066 C5058 1.356 . S
N5066 H5072 0.984 . S
N5066 H5073 0.984 . S
N5067 C5060 1.356 . S
N5067 H5070 0.984 . S
N5067 H5071 0.985 . S
H5068 N5063 0.984 . S
H5069 N5063 0.985 . S
H5070 N5067 0.984 . S
H5071 N5067 0.985 . S
H5072 N5066 0.984 . S
H5073 N5066 0.984 . S
H5074 N5062 0.984 . S
H5075 N5062 0.985 . S
C5076 C5077 1.363 . S
C5076 C5082 1.379 . S
C5076 N5084 1.356 . S
C5077 C5076 1.363 . S
C5077 C5083 1.363 . S
C5078 C5079 1.363 . S
C5078 C5083 1.379 . S
C5078 N5085 1.356 . S
C5079 C5078 1.363 . S
C5079 C5082 1.363 . S
N5080 C5082 1.356 . S
N5080 H5092 0.984 . S
N5080 H5093 0.985 . S
N5081 C5083 1.356 . S
N5081 H5086 0.984 . S
N5081 H5087 0.985 . S
C5082 C5076 1.379 . S
C5082 C5079 1.363 . S
C5082 N5080 1.356 . S
C5083 C5077 1.363 . S
C5083 C5078 1.379 . S
C5083 N5081 1.356 . S
N5084 C5076 1.356 . S
N5084 H5090 0.984 . S
N5084 H5091 0.984 . S
N5085 C5078 1.356 . S
N5085 H5088 0.984 . S
N5085 H5089 0.985 . S
H5086 N5081 0.984 . S
H5087 N5081 0.985 . S
H5088 N5085 0.984 . S
H5089 N5085 0.985 . S
H5090 N5084 0.984 . S
H5091 N5084 0.984 . S
H5092 N5080 0.984 . S
H5093 N5080 0.985 . S
C5094 C5095 1.363 . S
C5094 C5100 1.379 . S
C5094 N5102 1.356 . S
C5095 C5094 1.363 . S
C5095 C5101 1.363 . S
C5096 C5097 1.363 . S
C5096 C5101 1.379 . S
C5096 N5103 1.356 . S
C5097 C5096 1.363 . S
C5097 C5100 1.363 . S
N5098 C5100 1.356 . S
N5098 H5110 0.984 . S
N5098 H5111 0.985 . S
N5099 C5101 1.356 . S
N5099 H5104 0.984 . S
N5099 H5105 0.985 1_554 S
C5100 C5094 1.379 . S
C5100 C5097 1.363 . S
C5100 N5098 1.356 . S
C5101 C5095 1.363 . S
C5101 C5096 1.379 . S
C5101 N5099 1.356 . S
N5102 C5094 1.356 . S
N5102 H5108 0.984 . S
N5102 H5109 0.984 . S
N5103 C5096 1.356 . S
N5103 H5106 0.984 . S
N5103 H5107 0.985 1_554 S
H5104 N5099 0.984 . S
H5105 N5099 0.985 1_556 S
H5106 N5103 0.984 . S
H5107 N5103 0.985 1_556 S
H5108 N5102 0.984 . S
H5109 N5102 0.984 . S
H5110 N5098 0.984 . S
H5111 N5098 0.985 . S
C5112 C5113 1.363 . S
C5112 C5118 1.379 . S
C5112 N5120 1.356 . S
C5113 C5112 1.363 . S
C5113 C5119 1.363 . S
C5114 C5115 1.363 . S
C5114 C5119 1.379 . S
C5114 N5121 1.356 . S
C5115 C5114 1.363 . S
C5115 C5118 1.363 . S
N5116 C5118 1.356 . S
N5116 H5128 0.984 . S
N5116 H5129 0.985 . S
N5117 C5119 1.356 . S
N5117 H5122 0.984 . S
N5117 H5123 0.985 . S
C5118 C5112 1.379 . S
C5118 C5115 1.363 . S
C5118 N5116 1.356 . S
C5119 C5113 1.363 . S
C5119 C5114 1.379 . S
C5119 N5117 1.356 . S
N5120 C5112 1.356 . S
N5120 H5126 0.984 . S
N5120 H5127 0.984 . S
N5121 C5114 1.356 . S
N5121 H5124 0.984 . S
N5121 H5125 0.985 . S
H5122 N5117 0.984 . S
H5123 N5117 0.985 . S
H5124 N5121 0.984 . S
H5125 N5121 0.985 . S
H5126 N5120 0.984 . S
H5127 N5120 0.984 . S
H5128 N5116 0.984 . S
H5129 N5116 0.985 . S
C5130 C5131 1.363 . S
C5130 C5136 1.379 . S
C5130 N5138 1.356 . S
C5131 C5130 1.363 . S
C5131 C5137 1.363 . S
C5132 C5133 1.363 . S
C5132 C5137 1.379 . S
C5132 N5139 1.356 . S
C5133 C5132 1.363 . S
C5133 C5136 1.363 . S
N5134 C5136 1.356 1_556 S
N5134 H5146 0.984 . S
N5134 H5147 0.985 . S
N5135 C5137 1.356 . S
N5135 H5140 0.984 . S
N5135 H5141 0.985 . S
C5136 C5130 1.379 . S
C5136 C5133 1.363 . S
C5136 N5134 1.356 1_554 S
C5137 C5131 1.363 . S
C5137 C5132 1.379 . S
C5137 N5135 1.356 . S
N5138 C5130 1.356 . S
N5138 H5144 0.984 1_554 S
N5138 H5145 0.984 . S
N5139 C5132 1.356 . S
N5139 H5142 0.984 . S
N5139 H5143 0.985 . S
H5140 N5135 0.984 . S
H5141 N5135 0.985 . S
H5142 N5139 0.984 . S
H5143 N5139 0.985 . S
H5144 N5138 0.984 1_556 S
H5145 N5138 0.984 . S
H5146 N5134 0.984 . S
H5147 N5134 0.985 . S
C5148 C5149 1.363 . S
C5148 C5154 1.379 . S
C5148 N5156 1.356 . S
C5149 C5148 1.363 . S
C5149 C5155 1.363 . S
C5150 C5151 1.363 . S
C5150 C5155 1.379 . S
C5150 N5157 1.356 . S
C5151 C5150 1.363 . S
C5151 C5154 1.363 . S
N5152 C5154 1.356 . S
N5152 H5164 0.984 . S
N5152 H5165 0.985 . S
N5153 C5155 1.356 . S
N5153 H5158 0.984 . S
N5153 H5159 0.985 . S
C5154 C5148 1.379 . S
C5154 C5151 1.363 . S
C5154 N5152 1.356 . S
C5155 C5149 1.363 . S
C5155 C5150 1.379 . S
C5155 N5153 1.356 . S
N5156 C5148 1.356 . S
N5156 H5162 0.984 . S
N5156 H5163 0.984 . S
N5157 C5150 1.356 . S
N5157 H5160 0.984 . S
N5157 H5161 0.985 . S
H5158 N5153 0.984 . S
H5159 N5153 0.985 . S
H5160 N5157 0.984 . S
H5161 N5157 0.985 . S
H5162 N5156 0.984 . S
H5163 N5156 0.984 . S
H5164 N5152 0.984 . S
H5165 N5152 0.985 . S
C5166 C5167 1.363 . S
C5166 C5172 1.379 . S
C5166 N5174 1.356 . S
C5167 C5166 1.363 . S
C5167 C5173 1.363 . S
C5168 C5169 1.363 . S
C5168 C5173 1.379 . S
C5168 N5175 1.356 . S
C5169 C5168 1.363 . S
C5169 C5172 1.363 . S
N5170 C5172 1.356 . S
N5170 H5182 0.984 . S
N5170 H5183 0.985 . S
N5171 C5173 1.356 . S
N5171 H5176 0.984 . S
N5171 H5177 0.985 . S
C5172 C5166 1.379 . S
C5172 C5169 1.363 . S
C5172 N5170 1.356 . S
C5173 C5167 1.363 . S
C5173 C5168 1.379 . S
C5173 N5171 1.356 . S
N5174 C5166 1.356 . S
N5174 H5180 0.984 . S
N5174 H5181 0.984 . S
N5175 C5168 1.356 . S
N5175 H5178 0.984 . S
N5175 H5179 0.985 . S
H5176 N5171 0.984 . S
H5177 N5171 0.985 . S
H5178 N5175 0.984 . S
H5179 N5175 0.985 . S
H5180 N5174 0.984 . S
H5181 N5174 0.984 . S
H5182 N5170 0.984 . S
H5183 N5170 0.985 . S
C3457 C665 2.237 1_455 S
C3459 C2168 2.307 . S
C3475 C381 1.878 . S
C3477 C2270 1.905 . S
C3493 C460 2.051 . S
C3495 C2336 2.134 . S
C3513 C2422 1.364 . S
C3511 C585 1.463 . S
C3529 C108 1.463 . S
C3531 C2506 1.364 . S
C3549 C2588 2.134 . S
C3547 C196 2.051 . S
C3567 C2690 1.905 . S
C3565 C313 1.878 . S
C3583 C49 2.237 . S
C3585 C2756 2.307 . S
C3603 C2186 1.682 . S
C3601 C1457 1.743 . S
C3619 C1545 0.877 . S
C3621 C2254 0.847 . S
C3639 C2354 1.080 . S
C3637 C1721 1.092 . S
C3657 C2420 1.740 . S
C3655 C1113 1.712 . S
C3673 C1428 1.712 1_455 S
C3675 C2504 1.740 . S
C3693 C2606 1.080 . S
C3691 C1516 1.091 . S
C3711 C2674 0.847 . S
C3709 C1692 0.877 . S
C3729 C2774 1.682 . S
C3727 C1085 1.743 . S
C3747 C2170 1.162 1_565 S
C3745 C988 1.121 1_554 S
C3763 C1817 1.672 . S
C3765 C2858 1.674 . S
C3783 C2926 1.339 . S
C3781 C2081 1.374 . S
C3801 C3008 0.977 . S
C3799 C1993 0.959 . S
C3817 C761 1.128 . S
C3819 C2758 1.174 . S
C3835 C821 1.374 . S
C3837 C2338 1.339 . S
C3853 C2053 1.672 . S
C3855 C3110 1.674 . S
C3873 C3176 0.977 . S
C3871 C1868 0.959 . S
C3891 C2179 2.302 . S
C3889 C372 2.238 . S
C3909 C3183 1.903 . S
C3907 C645 1.871 . S
C3925 C577 2.046 . S
C3927 C2347 2.128 . S
C3943 C497 1.462 . S
C3945 C3105 1.362 . S
C3963 C2517 1.361 . S
C3961 C57 1.462 . S
C3979 C293 2.047 . S
C3981 C2935 2.129 . S
C3999 C2679 1.903 1_556 S
C3997 C205 1.872 . S
C4017 C3271 2.302 . S
C4015 C145 2.238 . S
C4035 C2175 1.678 . S
C4033 C909 1.742 . S
C4053 C3189 0.845 . S
C4051 C1956 0.874 . S
C4069 C724 1.089 . S
C4071 C2343 1.078 . S
C4087 C1780 1.709 . S
C4089 C3103 1.735 . S
C4105 C937 1.709 . S
C4107 C2515 1.735 . S
C4125 C2931 1.078 . S
C4123 C1985 1.089 . S
C4141 C753 0.874 . S
C4143 C2685 0.869 . S
C4159 C1809 1.741 . S
C4161 C3267 1.677 . S
C4177 C1173 1.130 . S
C4179 C2181 1.171 . S
C4195 C1105 1.666 . S
C4197 C2847 1.673 . S
C4213 C1633 1.375 . S
C4215 C2601 1.338 . S
C4231 C1553 0.953 . S
C4233 C3019 0.972 . S
C4251 C3273 1.171 . S
C4249 C1729 1.129 . S
C4267 C1340 1.375 . S
C4269 C2349 1.338 . S
C4287 C2427 1.673 . S
C4285 C1604 1.666 . S
C4305 C2263 0.972 . S
C4303 C1252 0.953 . S
C4321 C489 2.237 . S
C4323 C3344 2.306 . S
C4341 C3194 1.905 . S
C4339 C557 1.878 . S
C4357 C636 2.051 . S
C4359 C3428 2.134 . S
C4375 C409 1.463 . S
C4377 C3094 1.364 . S
C4393 C284 1.463 . S
C4395 C2842 1.364 . S
C4413 C2924 2.134 . S
C4411 C20 2.051 . S
C4431 C3026 1.905 . S
C4429 C137 1.878 . S
C4449 C3260 2.307 . S
C4447 C225 2.237 . S
C4467 C3362 1.682 . S
C4465 C1641 1.743 . S
C4483 C1193 0.877 . S
C4485 C3178 0.847 . S
C4503 C3446 1.080 . S
C4501 C1289 1.092 . S
C4521 C3092 1.740 . S
C4519 C1377 1.712 . S
C4539 C2840 1.740 . S
C4537 C1613 1.712 . S
C4555 C1164 1.091 . S
C4557 C2942 1.080 . S
C4575 C3010 0.847 . S
C4573 C1261 0.877 . S
C4591 C1349 1.743 . S
C4593 C3278 1.682 . S
C4611 C3346 1.174 . S
C4609 C1965 1.128 . S
C4627 C849 1.672 . S
C4629 C2522 1.674 . S
C4647 C2590 1.339 . S
C4645 C929 1.374 . S
C4665 C2672 0.977 . S
C4663 C1017 0.958 . S
C4683 C3262 1.175 . S
C4681 C1897 1.128 . S
C4699 C1789 1.374 . S
C4701 C3430 1.339 . S
C4719 C2438 1.674 . S
C4717 C900 1.671 . S
C4737 C2252 0.977 . S
C4735 C733 0.958 . S
C4753 C548 2.238 . S
C4755 C3355 2.302 . S
C4773 C2259 1.903 . S
C4771 C469 1.871 . S
C4789 C401 2.046 . S
C4791 C3439 2.129 . S
C4807 C673 1.461 . S
C4809 C2433 1.361 . S
C4825 C233 1.461 . S
C4827 C2853 1.361 . S
C4845 C2599 2.129 . S
C4843 C117 2.047 . S
C4861 C29 1.871 . S
C4863 C3015 1.903 . S
C4879 C321 2.239 . S
C4881 C2767 2.302 . S
C4899 C3351 1.678 . S
C4897 C2044 1.742 . S
C4915 C997 0.873 . S
C4917 C2265 0.840 . S
C4935 C3435 1.078 1_655 S
C4933 C1877 1.089 . S
C4951 C812 1.709 . S
C4953 C2431 1.735 . S
C4969 C2073 1.709 . S
C4971 C2851 1.735 . S
C4989 C2595 1.080 . S
C4987 C1025 1.095 . S
C5005 C1905 0.874 . S
C5007 C3021 0.845 . S
C5025 C2763 1.678 . S
C5023 C841 1.742 . S
C5043 C3357 1.172 . S
C5041 C1525 1.130 . S
C5061 C2511 1.673 1_565 S
C5059 C1369 1.666 . S
C5077 C1465 1.375 . S
C5079 C2937 1.337 . S
C5097 C2683 0.971 . S
C5095 C1201 0.953 . S
C5113 C1281 1.130 . S
C5115 C2769 1.172 . S
C5131 C1076 1.375 . S
C5133 C3441 1.338 . S
C5151 C3099 1.673 . S
C5149 C1437 1.666 . S
C5169 C3187 0.971 . S
C5167 C1701 0.953 . S
