# Generated by pormake.
# Topology soc, (4,6)-cn, num edge types: 1
# Building blocks:
#     Node 0, Type 0, BuildingBlock: ESEHIV_clean_sbu_0, # of connection points: 4
#     Node 1, Type 0, BuildingBlock: ESEHIV_clean_sbu_0, # of connection points: 4
#     Node 2, Type 0, BuildingBlock: ESEHIV_clean_sbu_0, # of connection points: 4
#     Node 3, Type 0, BuildingBlock: ESEHIV_clean_sbu_0, # of connection points: 4
#     Node 4, Type 0, BuildingBlock: ESEHIV_clean_sbu_0, # of connection points: 4
#     Node 5, Type 0, BuildingBlock: ESEHIV_clean_sbu_0, # of connection points: 4
#     Node 6, Type 0, BuildingBlock: ESEHIV_clean_sbu_0, # of connection points: 4
#     Node 7, Type 0, BuildingBlock: ESEHIV_clean_sbu_0, # of connection points: 4
#     Node 8, Type 0, BuildingBlock: ESEHIV_clean_sbu_0, # of connection points: 4
#     Node 9, Type 0, BuildingBlock: ESEHIV_clean_sbu_0, # of connection points: 4
#     Node 10, Type 0, BuildingBlock: ESEHIV_clean_sbu_0, # of connection points: 4
#     Node 11, Type 0, BuildingBlock: ESEHIV_clean_sbu_0, # of connection points: 4
#     Node 12, Type 1, BuildingBlock: KUMBOL_clean_sbu_0, # of connection points: 6
#     Node 13, Type 1, BuildingBlock: KUMBOL_clean_sbu_0, # of connection points: 6
#     Node 14, Type 1, BuildingBlock: KUMBOL_clean_sbu_0, # of connection points: 6
#     Node 15, Type 1, BuildingBlock: KUMBOL_clean_sbu_0, # of connection points: 6
#     Node 16, Type 1, BuildingBlock: KUMBOL_clean_sbu_0, # of connection points: 6
#     Node 17, Type 1, BuildingBlock: KUMBOL_clean_sbu_0, # of connection points: 6
#     Node 18, Type 1, BuildingBlock: KUMBOL_clean_sbu_0, # of connection points: 6
#     Node 19, Type 1, BuildingBlock: KUMBOL_clean_sbu_0, # of connection points: 6
#     Edge 20, Type (0, 1), BuildingBlock: OJICUG_clean_linker_0, # of connection points: 2
#     Edge 21, Type (0, 1), BuildingBlock: OJICUG_clean_linker_0, # of connection points: 2
#     Edge 22, Type (0, 1), BuildingBlock: OJICUG_clean_linker_0, # of connection points: 2
#     Edge 23, Type (0, 1), BuildingBlock: OJICUG_clean_linker_0, # of connection points: 2
#     Edge 24, Type (0, 1), BuildingBlock: OJICUG_clean_linker_0, # of connection points: 2
#     Edge 25, Type (0, 1), BuildingBlock: OJICUG_clean_linker_0, # of connection points: 2
#     Edge 26, Type (0, 1), BuildingBlock: OJICUG_clean_linker_0, # of connection points: 2
#     Edge 27, Type (0, 1), BuildingBlock: OJICUG_clean_linker_0, # of connection points: 2
#     Edge 28, Type (0, 1), BuildingBlock: OJICUG_clean_linker_0, # of connection points: 2
#     Edge 29, Type (0, 1), BuildingBlock: OJICUG_clean_linker_0, # of connection points: 2
#     Edge 30, Type (0, 1), BuildingBlock: OJICUG_clean_linker_0, # of connection points: 2
#     Edge 31, Type (0, 1), BuildingBlock: OJICUG_clean_linker_0, # of connection points: 2
#     Edge 32, Type (0, 1), BuildingBlock: OJICUG_clean_linker_0, # of connection points: 2
#     Edge 33, Type (0, 1), BuildingBlock: OJICUG_clean_linker_0, # of connection points: 2
#     Edge 34, Type (0, 1), BuildingBlock: OJICUG_clean_linker_0, # of connection points: 2
#     Edge 35, Type (0, 1), BuildingBlock: OJICUG_clean_linker_0, # of connection points: 2
#     Edge 36, Type (0, 1), BuildingBlock: OJICUG_clean_linker_0, # of connection points: 2
#     Edge 37, Type (0, 1), BuildingBlock: OJICUG_clean_linker_0, # of connection points: 2
#     Edge 38, Type (0, 1), BuildingBlock: OJICUG_clean_linker_0, # of connection points: 2
#     Edge 39, Type (0, 1), BuildingBlock: OJICUG_clean_linker_0, # of connection points: 2
#     Edge 40, Type (0, 1), BuildingBlock: OJICUG_clean_linker_0, # of connection points: 2
#     Edge 41, Type (0, 1), BuildingBlock: OJICUG_clean_linker_0, # of connection points: 2
#     Edge 42, Type (0, 1), BuildingBlock: OJICUG_clean_linker_0, # of connection points: 2
#     Edge 43, Type (0, 1), BuildingBlock: OJICUG_clean_linker_0, # of connection points: 2
#     Edge 44, Type (0, 1), BuildingBlock: OJICUG_clean_linker_0, # of connection points: 2
#     Edge 45, Type (0, 1), BuildingBlock: OJICUG_clean_linker_0, # of connection points: 2
#     Edge 46, Type (0, 1), BuildingBlock: OJICUG_clean_linker_0, # of connection points: 2
#     Edge 47, Type (0, 1), BuildingBlock: OJICUG_clean_linker_0, # of connection points: 2
#     Edge 48, Type (0, 1), BuildingBlock: OJICUG_clean_linker_0, # of connection points: 2
#     Edge 49, Type (0, 1), BuildingBlock: OJICUG_clean_linker_0, # of connection points: 2
#     Edge 50, Type (0, 1), BuildingBlock: OJICUG_clean_linker_0, # of connection points: 2
#     Edge 51, Type (0, 1), BuildingBlock: OJICUG_clean_linker_0, # of connection points: 2
#     Edge 52, Type (0, 1), BuildingBlock: OJICUG_clean_linker_0, # of connection points: 2
#     Edge 53, Type (0, 1), BuildingBlock: OJICUG_clean_linker_0, # of connection points: 2
#     Edge 54, Type (0, 1), BuildingBlock: OJICUG_clean_linker_0, # of connection points: 2
#     Edge 55, Type (0, 1), BuildingBlock: OJICUG_clean_linker_0, # of connection points: 2
#     Edge 56, Type (0, 1), BuildingBlock: OJICUG_clean_linker_0, # of connection points: 2
#     Edge 57, Type (0, 1), BuildingBlock: OJICUG_clean_linker_0, # of connection points: 2
#     Edge 58, Type (0, 1), BuildingBlock: OJICUG_clean_linker_0, # of connection points: 2
#     Edge 59, Type (0, 1), BuildingBlock: OJICUG_clean_linker_0, # of connection points: 2
#     Edge 60, Type (0, 1), BuildingBlock: OJICUG_clean_linker_0, # of connection points: 2
#     Edge 61, Type (0, 1), BuildingBlock: OJICUG_clean_linker_0, # of connection points: 2
#     Edge 62, Type (0, 1), BuildingBlock: OJICUG_clean_linker_0, # of connection points: 2
#     Edge 63, Type (0, 1), BuildingBlock: OJICUG_clean_linker_0, # of connection points: 2
#     Edge 64, Type (0, 1), BuildingBlock: OJICUG_clean_linker_0, # of connection points: 2
#     Edge 65, Type (0, 1), BuildingBlock: OJICUG_clean_linker_0, # of connection points: 2
#     Edge 66, Type (0, 1), BuildingBlock: OJICUG_clean_linker_0, # of connection points: 2
#     Edge 67, Type (0, 1), BuildingBlock: OJICUG_clean_linker_0, # of connection points: 2
# Relax obj value: 0.097
# Max RMSD: 0.262
# Mean RMSD: 0.160
data_MOF--net-soc--node1-ESEHIV_clean_sbu_0--node2-KUMBOL_clean_sbu_0--edge1-OJICUG_clean_linker_0
_symmetry_space_group_name_H-M    P1
_symmetry_Int_Tables_number       1
_symmetry_cell_setting            triclinic
loop_
_symmetry_equiv_pos_as_xyz
'x, y, z'
_cell_length_a     39.747975
_cell_length_b     38.331086
_cell_length_c     31.026872
_cell_angle_alpha  81.48324
_cell_angle_beta   79.984989
_cell_angle_gamma 68.865025
loop_
_atom_site_label
_atom_site_type_symbol
_atom_site_fract_x
_atom_site_fract_y
_atom_site_fract_z
_atom_type_partial_charge
Cu0 Cu 0.05542 0.06048 0.40755 0.0
N1 N 0.06773 0.08638 0.44578 0.0
N2 N 0.09412 0.12088 0.47079 0.0
C3 C 0.09345 0.10271 0.43685 0.0
C4 C 0.06783 0.11552 0.50223 0.0
C5 C 0.05161 0.09446 0.4867 0.0
O6 O 0.10226 0.02542 0.38048 0.0
C7 C 0.9916 0.11873 0.38999 0.0
O8 O 0.98481 0.11135 0.43262 0.0
H9 H 0.1106 0.10209 0.4056 0.0
H10 H 0.02916 0.08623 0.50388 0.0
N11 N 0.02865 0.03138 0.43927 0.0
N12 N 0.99262 0.9966 0.45296 0.0
C13 C 1.00532 0.01994 0.42325 0.0
C14 C 0.03071 0.01486 0.48059 0.0
C15 C 1.00837 0.99357 0.48921 0.0
C16 C 0.10685 0.99195 0.37283 0.0
O17 O 0.07819 0.98194 0.37578 0.0
H18 H 0.99889 0.02753 0.38987 0.0
H19 H 0.04837 0.01683 0.50228 0.0
O20 O 1.02225 0.09944 0.36983 0.0
H21 H 0.06071 0.12601 0.53431 0.0
H22 H 1.00563 0.97551 0.51895 0.0
Cu23 Cu 0.07332 0.06299 0.73629 0.0
N24 N 0.05659 0.03998 0.69921 0.0
N25 N 0.02646 0.00827 0.67623 0.0
C26 C 0.03065 0.02406 0.71027 0.0
C27 C 0.05066 0.01473 0.64254 0.0
C28 C 0.0692 0.03407 0.65681 0.0
O29 O 0.03058 0.10055 0.76734 0.0
C30 C 0.13746 1.00272 0.74376 0.0
O31 O 0.139 0.0136 0.7015 0.0
H32 H 1.01586 0.02332 0.74295 0.0
H33 H 0.09088 0.04255 0.6377 0.0
N34 N 0.09888 0.09265 0.70362 0.0
N35 N 0.13386 0.12831 0.69192 0.0
C36 C 0.12147 0.10422 0.72059 0.0
C37 C 0.09664 0.11016 0.66267 0.0
C38 C 0.11858 0.13193 0.65518 0.0
C39 C 1.00838 0.12317 0.74177 0.0
O40 O 1.01457 0.11739 0.69999 0.0
H41 H 0.12847 0.09519 0.75361 0.0
H42 H 0.07943 0.10829 0.64033 0.0
O43 O 0.10949 0.02141 0.76895 0.0
H44 H 0.05474 1.00619 0.60976 0.0
H45 H 0.12214 0.14983 0.62558 0.0
Cu46 Cu 0.31663 0.07847 0.14627 0.0
N47 N 0.27864 0.06841 0.12863 0.0
N48 N 0.25748 0.03264 0.09776 0.0
C49 C 0.28704 0.03769 0.10739 0.0
C50 C 0.22889 0.06152 0.11373 0.0
C51 C 0.24206 0.08381 0.13258 0.0
O52 O 0.34153 0.0281 0.1769 0.0
C53 C 0.3168 0.12929 0.07351 0.0
O54 O 0.28389 0.14254 0.09481 0.0
H55 H 0.31467 0.0187 0.10029 0.0
H56 H 0.22592 0.10919 0.14784 0.0
N57 N 0.30253 0.11671 0.18512 0.0
N58 N 0.30553 0.16303 0.21948 0.0
C59 C 0.32456 0.13258 0.19717 0.0
C60 C 0.26861 0.13774 0.2011 0.0
C61 C 0.27037 0.16629 0.22197 0.0
C62 C 0.3223 0.01812 0.21097 0.0
O63 O 0.2917 0.04363 0.22573 0.0
H64 H 0.35379 0.12296 0.18821 0.0
H65 H 0.24406 0.13339 0.19709 0.0
O66 O 0.33905 0.09877 0.09014 0.0
H67 H 0.20063 0.06631 0.11173 0.0
H68 H 0.24755 0.18794 0.23769 0.0
Cu69 Cu 0.08747 0.31795 0.13715 0.0
N70 N 0.10462 0.34492 0.08657 0.0
N71 N 0.14214 0.35244 0.02457 0.0
C72 C 0.13633 0.32927 0.06046 0.0
C73 C 0.11262 0.38415 0.02863 0.0
C74 C 0.08968 0.37944 0.06654 0.0
O75 O 0.12675 0.30549 0.17655 0.0
C76 C 0.05546 0.26552 0.11606 0.0
O77 O 0.04159 0.26125 0.1573 0.0
H78 H 0.15426 0.30073 0.06717 0.0
H79 H 0.06371 0.39957 0.07818 0.0
N80 N 0.04093 0.3421 0.1713 0.0
N81 N 0.98499 0.3479 0.20944 0.0
C82 C 1.00719 0.3404 0.17057 0.0
C83 C 0.0389 0.35229 0.21171 0.0
C84 C 1.0051 0.35565 0.23497 0.0
C85 C 0.13715 0.33271 0.18159 0.0
O86 O 0.12094 0.36588 0.16176 0.0
H87 H 1.0 0.33066 0.14368 0.0
H88 H 0.06168 0.35367 0.22512 0.0
O89 O 0.08136 0.27886 0.1071 0.0
H90 H 0.10764 0.40914 1.00578 0.0
H91 H 0.99668 0.36119 0.26913 0.0
Cu92 Cu 0.79307 0.04331 0.99796 0.0
N93 N 0.8164 0.07184 0.95693 0.0
N94 N 0.82457 0.12406 0.91997 0.0
C95 C 0.80265 0.10977 0.94985 0.0
C96 C 0.85326 0.09363 0.90748 0.0
C97 C 0.84819 0.06159 0.93031 0.0
O98 O 0.76617 0.08048 0.04153 0.0
C99 C 0.79262 0.98886 0.94678 0.0
O100 O 0.82718 0.97902 0.95115 0.0
H101 H 0.77686 0.12657 0.96648 0.0
H102 H 0.86659 0.03297 0.92803 0.0
N103 N 0.8231 1.00345 0.03268 0.0
N104 N 0.83612 0.95978 0.08986 0.0
C105 C 0.80987 0.9835 0.06653 0.0
C106 C 0.85918 0.99154 0.03423 0.0
C107 C 0.86725 0.96473 0.06962 0.0
C108 C 0.78862 0.08927 0.05935 0.0
O109 O 0.82353 0.0724 0.04759 0.0
H110 H 0.78119 0.98762 0.07508 0.0
H111 H 0.87803 1.00259 1.0123 0.0
O112 O 0.77026 0.01838 0.96448 0.0
H113 H 0.87675 0.0944 0.88427 0.0
H114 H 0.89387 0.95032 0.07998 0.0
Cu115 Cu 0.05004 0.80433 1.01405 0.0
N116 N 1.0178 0.81774 0.97088 0.0
N117 N 0.97704 0.81942 0.92779 0.0
C118 C 0.99573 0.80052 0.96174 0.0
C119 C 0.98738 0.84965 0.91561 0.0
C120 C 1.01199 0.84877 0.94232 0.0
O121 O 0.02763 0.77974 0.07042 0.0
C122 C 0.11627 0.80341 0.95147 0.0
O123 O 0.093 0.83581 0.93816 0.0
H124 H 0.99346 0.77475 0.97944 0.0
H125 H 1.02433 0.86984 0.94141 0.0
N126 N 0.04932 0.84834 0.03383 0.0
N127 N 0.07222 0.88108 0.06675 0.0
C128 C 0.07956 0.85191 0.04309 0.0
C129 C 1.02155 0.87673 0.05204 0.0
C130 C 0.0357 0.89674 0.07306 0.0
C131 C 0.99349 0.79565 0.08501 0.0
O132 O 0.97421 0.82384 0.0599 0.0
H133 H 0.10637 0.83107 0.03675 0.0
H134 H 0.99305 0.88103 0.05295 0.0
O135 O 0.1039 0.78327 0.98352 0.0
H136 H 0.97706 0.87145 0.88989 0.0
H137 H 1.02046 0.91935 0.09353 0.0
Cu138 Cu 0.55903 0.55494 0.9024 0.0
N139 N 0.57482 0.57992 0.93796 0.0
N140 N 0.59974 0.61714 0.95978 0.0
C141 C 0.59849 0.59865 0.92646 0.0
C142 C 0.57603 0.60959 0.99333 0.0
C143 C 0.56056 0.58704 0.97969 0.0
O144 O 0.60184 0.52056 0.86713 0.0
C145 C 0.49856 0.59649 0.84807 0.0
O146 O 0.50545 0.56666 0.82737 0.0
H147 H 0.61318 0.60003 0.8938 0.0
H148 H 0.53928 0.57772 0.99847 0.0
N149 N 0.53668 0.52429 0.93915 0.0
N150 N 0.49921 0.49225 0.96466 0.0
C151 C 0.50904 0.5148 0.93112 0.0
C152 C 0.54492 0.5067 0.97882 0.0
C153 C 0.52166 0.48712 0.99479 0.0
C154 C 0.62997 0.50204 0.88652 0.0
O155 O 0.62982 0.50857 0.92692 0.0
H156 H 0.49658 0.52391 0.90119 0.0
H157 H 0.56672 0.50758 0.99471 0.0
O158 O 0.51951 0.59596 0.87527 0.0
H159 H 0.56975 0.62011 0.02534 0.0
H160 H 0.52218 0.46925 0.02534 0.0
Cu161 Cu 0.57607 0.57501 0.25961 0.0
N162 N 0.55864 0.54627 0.23148 0.0
N163 N 0.52601 0.51304 0.21842 0.0
C164 C 0.52556 0.54252 0.23796 0.0
C165 C 0.5604 0.49787 0.19894 0.0
C166 C 0.58039 0.51837 0.20705 0.0
O167 O 0.53456 0.6136 0.29042 0.0
C168 C 0.64654 0.52894 0.28517 0.0
O169 O 0.65876 0.55249 0.25778 0.0
H170 H 0.50237 0.55939 0.25879 0.0
H171 H 0.60934 0.51216 0.19788 0.0
N172 N 0.59986 0.6015 0.21731 0.0
N173 N 0.63084 0.63958 0.18744 0.0
C174 C 0.61471 0.62619 0.22488 0.0
C175 C 0.60611 0.59976 0.17352 0.0
C176 C 0.62523 0.62317 0.15501 0.0
C177 C 0.51413 0.63811 0.26454 0.0
O178 O 0.52166 0.6337 0.22232 0.0
H179 H 0.61432 0.63351 0.25739 0.0
H180 H 0.59784 0.58227 0.1563 0.0
O181 O 0.61213 0.53605 0.29409 0.0
H182 H 0.57053 0.47305 0.18118 0.0
H183 H 0.63536 0.62672 0.12053 0.0
Cu184 Cu 0.83418 0.60148 0.6202 0.0
N185 N 0.86411 0.61303 0.5692 0.0
N186 N 0.88552 0.62938 0.4998 0.0
C187 C 0.8638 0.61208 0.52567 0.0
C188 C 0.90089 0.64051 0.52825 0.0
C189 C 0.88779 0.63049 0.57046 0.0
O190 O 0.81992 0.64398 0.65865 0.0
C191 C 0.78357 0.59026 0.56822 0.0
O192 O 0.78482 0.61829 0.53881 0.0
H193 H 0.84785 0.59946 0.51285 0.0
H194 H 0.89367 0.63745 0.60014 0.0
N195 N 0.85958 0.55524 0.65039 0.0
N196 N 0.86921 0.49613 0.68179 0.0
C197 C 0.8442 0.53022 0.67223 0.0
C198 C 0.89563 0.5363 0.64631 0.0
C199 C 0.90163 0.50002 0.66564 0.0
C200 C 0.84255 0.64537 0.68277 0.0
O201 O 0.87344 0.61712 0.68379 0.0
H202 H 0.81512 0.53602 0.67793 0.0
H203 H 0.916 0.54735 0.62815 0.0
O204 O 0.79469 0.58757 0.6052 0.0
H205 H 0.91849 0.65709 0.51941 0.0
H206 H 0.92779 0.47776 0.66617 0.0
Cu207 Cu 0.59868 0.81984 0.60039 0.0
N208 N 0.64073 0.79245 0.5602 0.0
N209 N 0.6896 0.77988 0.50583 0.0
C210 C 0.65945 0.80664 0.52471 0.0
C211 C 0.68943 0.74776 0.5307 0.0
C212 C 0.65994 0.75545 0.56356 0.0
O213 O 0.6204 0.84183 0.63788 0.0
C214 C 0.55772 0.84165 0.53293 0.0
O215 O 0.58075 0.80884 0.52195 0.0
H216 H 0.6515 0.83626 0.51356 0.0
H217 H 0.65332 0.73531 0.58866 0.0
N218 N 0.56615 0.7953 0.63652 0.0
N219 N 0.51406 0.78744 0.67556 0.0
C220 C 0.52934 0.81129 0.64905 0.0
C221 C 0.57415 0.75992 0.65571 0.0
C222 C 0.54278 0.75512 0.67937 0.0
C223 C 0.62525 0.82942 0.67784 0.0
O224 O 0.61082 0.80438 0.69745 0.0
H225 H 0.51408 0.84026 0.63929 0.0
H226 H 0.60109 0.7389 0.6531 0.0
O227 O 0.56395 0.85592 0.56403 0.0
H228 H 0.70923 0.72014 0.52559 0.0
H229 H 0.54147 0.72924 0.69769 0.0
Cu230 Cu 0.27893 0.54245 0.5329 0.0
N231 N 0.30399 0.57363 0.49808 0.0
N232 N 0.31435 0.62515 0.46029 0.0
C233 C 0.29039 0.61155 0.48801 0.0
C234 C 0.34421 0.5943 0.45299 0.0
C235 C 0.33779 0.56298 0.47601 0.0
O236 O 0.23608 0.57962 0.56125 0.0
C237 C 0.28909 0.47921 0.48752 0.0
O238 O 0.31916 0.46617 0.5059 0.0
H239 H 0.26303 0.6287 0.50002 0.0
H240 H 0.35643 0.53429 0.47625 0.0
N241 N 0.30457 0.50924 0.57833 0.0
N242 N 0.31701 0.46728 0.63827 0.0
C243 C 0.29486 0.48257 0.60639 0.0
C244 C 0.33421 0.51031 0.59256 0.0
C245 C 0.34193 0.48471 0.62901 0.0
C246 C 0.234 0.58401 0.60167 0.0
O247 O 0.24258 0.55412 0.62989 0.0
H248 H 0.27089 0.47595 0.60467 0.0
H249 H 0.34865 0.52923 0.57817 0.0
O250 O 0.26722 0.51242 0.49438 0.0
H251 H 0.36927 0.59414 0.4326 0.0
H252 H 0.36419 0.47976 0.64747 0.0
Cu253 Cu 0.53061 0.29952 0.53965 0.0
N254 N 0.57532 0.27519 0.50379 0.0
N255 N 0.62962 0.27265 0.46383 0.0
C256 C 0.60742 0.28107 0.50227 0.0
C257 C 0.61096 0.26091 0.44024 0.0
C258 C 0.57789 0.26238 0.46471 0.0
O259 O 0.54586 0.33632 0.56372 0.0
C260 C 0.47805 0.29083 0.49357 0.0
O261 O 0.49213 0.25679 0.51267 0.0
H262 H 0.61307 0.29461 0.52695 0.0
H263 H 0.55586 0.25793 0.45289 0.0
N264 N 0.51458 0.27063 0.58965 0.0
N265 N 0.48382 0.25829 0.6554 0.0
C266 C 0.48593 0.28427 0.62104 0.0
C267 C 0.53072 0.23452 0.60445 0.0
C268 C 0.51201 0.22693 0.64469 0.0
C269 C 0.56043 0.32604 0.59958 0.0
O270 O 0.55702 0.29611 0.62373 0.0
H271 H 0.46809 0.31332 0.61971 0.0
H272 H 0.55516 0.21538 0.5879 0.0
O273 O 0.49057 0.31603 0.50034 0.0
H274 H 0.6197 0.25381 0.40665 0.0
H275 H 0.51902 0.20036 0.66478 0.0
Gd276 Gd 0.3227 0.34916 0.29324 0.0
Gd277 Gd 0.28227 0.29989 0.38615 0.0
C278 C 0.20612 0.39076 0.47333 0.0
C279 C 0.23632 0.37546 0.53879 0.0
C280 C 0.2605 0.33588 0.47823 0.0
C281 C 0.23288 0.35914 0.45482 0.0
C282 C 0.26212 0.34338 0.5208 0.0
C283 C 0.20829 0.39906 0.51514 0.0
C284 C 0.17806 0.41323 0.4492 0.0
C285 C 0.17698 0.40379 0.4079 0.0
N286 N 0.23227 0.35101 0.41388 0.0
C287 C 0.2043 0.37245 0.3907 0.0
H288 H 0.20294 0.36637 0.35851 0.0
C289 C 0.30953 0.27868 0.48451 0.0
N290 N 0.28543 0.30546 0.45981 0.0
C291 C 0.31262 0.28507 0.52648 0.0
C292 C 0.28945 0.31816 0.54421 0.0
H293 H 0.32739 0.25287 0.47106 0.0
H294 H 0.18825 0.42347 0.52961 0.0
H295 H 0.39853 0.27315 0.2994 0.0
H296 H 0.15703 0.43775 0.46224 0.0
H297 H 0.15525 0.42087 0.38905 0.0
H298 H 0.23744 0.3819 0.57126 0.0
H299 H 0.26709 0.41472 0.22933 0.0
H300 H 0.43773 0.23683 0.17056 0.0
H301 H 0.44355 0.22907 0.24976 0.0
H302 H 0.35699 0.33083 0.08065 0.0
H303 H 0.33305 0.26451 0.54474 0.0
H304 H 0.29229 0.32372 0.5762 0.0
H305 H 0.40553 0.2752 0.10761 0.0
H306 H 0.25942 0.42919 0.15039 0.0
N307 N 0.3658 0.30403 0.24955 0.0
C308 C 0.41735 0.25579 0.19241 0.0
C309 C 0.4208 0.25138 0.23705 0.0
C310 C 0.38836 0.28539 0.17621 0.0
C311 C 0.36237 0.30915 0.20605 0.0
C312 C 0.39511 0.27641 0.26513 0.0
N313 N 0.31018 0.36272 0.22015 0.0
C314 C 0.3339 0.33947 0.19089 0.0
C315 C 0.2803 0.40376 0.16135 0.0
C316 C 0.30382 0.37963 0.13094 0.0
C317 C 0.28451 0.39538 0.20593 0.0
C318 C 0.33147 0.34748 0.14542 0.0
H319 H 0.30103 0.38661 0.09629 0.0
O320 O 0.32299 0.40615 0.27727 0.0
O321 O 0.29747 0.35072 0.36259 0.0
O322 O 0.24763 0.31273 0.3295 0.0
O323 O 0.27108 0.34717 0.27121 0.0
O324 O 0.27903 0.39965 0.32265 0.0
O325 O 0.37403 0.35975 0.28124 0.0
O326 O 0.28529 0.24477 0.41886 0.0
O327 O 0.30991 0.29705 0.31788 0.0
O328 O 0.36335 0.32576 0.34423 0.0
O329 O 0.33726 0.29518 0.4042 0.0
O330 O 0.32802 0.24965 0.35979 0.0
O331 O 0.23575 0.28128 0.39346 0.0
C332 C 0.27806 0.38511 0.36297 0.0
C333 C 0.35761 0.32421 0.11569 0.0
C334 C 0.38554 0.29283 0.13106 0.0
C335 C 0.35841 0.39594 0.27293 0.0
C336 C 0.37598 0.41504 0.23585 0.0
C337 C 0.36707 0.4191 0.19313 0.0
C338 C 0.40094 0.431 0.24373 0.0
C339 C 0.41587 0.45177 0.20948 0.0
C340 C 0.38199 0.43946 0.15908 0.0
C341 C 0.40601 0.45602 0.16721 0.0
C342 C 0.24669 0.33103 0.28943 0.0
C343 C 0.33037 0.26293 0.31901 0.0
C344 C 0.25175 0.24933 0.41507 0.0
C345 C 0.22976 0.23718 0.45375 0.0
C346 C 0.23051 0.24549 0.49601 0.0
C347 C 0.2077 0.21685 0.44824 0.0
C348 C 0.18659 0.20472 0.48474 0.0
C349 C 0.21015 0.23321 0.53231 0.0
C350 C 0.18847 0.21292 0.52686 0.0
C351 C 0.36389 0.30748 0.38432 0.0
H352 H 0.34843 0.40693 0.18594 0.0
H353 H 0.40826 0.42786 0.27653 0.0
H354 H 0.37481 0.4425 0.12628 0.0
H355 H 0.41741 0.47161 0.14034 0.0
H356 H 0.24685 0.26131 0.50113 0.0
H357 H 0.20661 0.21102 0.41547 0.0
H358 H 0.2112 0.2394 0.56487 0.0
H359 H 0.17337 0.2034 0.5558 0.0
Gd360 Gd 0.79352 0.29399 0.29538 0.0
Gd361 Gd 0.81786 0.33385 0.38095 0.0
C362 C 0.92297 0.35727 0.37613 0.0
C363 C 0.95213 0.31201 0.43381 0.0
C364 C 0.89345 0.31493 0.41742 0.0
C365 C 0.89363 0.34368 0.38455 0.0
C366 C 0.92259 0.29901 0.44263 0.0
C367 C 0.95234 0.34103 0.40062 0.0
C368 C 0.92172 0.38712 0.3437 0.0
C369 C 0.89141 0.40318 0.3212 0.0
N370 N 0.86495 0.35875 0.36122 0.0
C371 C 0.86291 0.38887 0.3308 0.0
H372 H 0.83951 0.40162 0.31337 0.0
C373 C 0.86268 0.27549 0.45832 0.0
N374 N 0.86476 0.30249 0.42475 0.0
C375 C 0.89095 0.25892 0.48412 0.0
C376 C 0.92113 0.27056 0.47609 0.0
H377 H 0.83945 0.26633 0.46487 0.0
H378 H 0.97518 0.35099 0.39445 0.0
H379 H 0.8189 0.21768 0.37297 0.0
H380 H 0.94377 0.39825 0.33617 0.0
H381 H 0.88998 0.42656 0.29644 0.0
H382 H 0.97484 0.29999 0.45269 0.0
H383 H 0.72619 0.35365 0.23988 0.0
H384 H 0.73543 0.1699 0.39747 0.0
H385 H 0.79551 0.16894 0.40947 0.0
H386 H 0.64318 0.25365 0.3144 0.0
H387 H 0.88941 0.23724 0.51025 0.0
H388 H 0.94299 0.25764 0.49615 0.0
H389 H 0.67904 0.20157 0.36215 0.0
H390 H 0.66456 0.35967 0.22826 0.0
N391 N 0.77369 0.24636 0.33713 0.0
C392 C 0.74587 0.19141 0.38033 0.0
C393 C 0.7798 0.19072 0.3871 0.0
C394 C 0.7254 0.22026 0.35235 0.0
C395 C 0.74003 0.24787 0.33096 0.0
C396 C 0.79331 0.21851 0.36539 0.0
N397 N 0.73287 0.30532 0.28605 0.0
C398 C 0.71924 0.27796 0.30471 0.0
C399 C 0.67938 0.33685 0.25031 0.0
C400 C 0.66418 0.31019 0.27107 0.0
C401 C 0.71414 0.33358 0.25749 0.0
C402 C 0.68417 0.28012 0.29826 0.0
H403 H 0.63723 0.31273 0.26534 0.0
O404 O 0.7977 0.3016 0.22444 0.0
O405 O 0.83396 0.31593 0.31269 0.0
O406 O 0.78633 0.38006 0.333 0.0
O407 O 0.75206 0.35233 0.30626 0.0
O408 O 0.82352 0.32875 0.24908 0.0
O409 O 0.80565 0.24583 0.25738 0.0
O410 O 0.78604 0.35099 0.44346 0.0
O411 O 0.77537 0.31513 0.36188 0.0
O412 O 0.84651 0.25041 0.31813 0.0
O413 O 0.8629 0.27744 0.37088 0.0
O414 O 0.78664 0.29997 0.42563 0.0
O415 O 0.80374 0.39132 0.39834 0.0
C416 C 0.84351 0.33169 0.27603 0.0
C417 C 0.67007 0.25229 0.31892 0.0
C418 C 0.69055 0.22256 0.34598 0.0
C419 C 0.8011 0.26701 0.22019 0.0
C420 C 0.77742 0.26184 0.19057 0.0
C421 C 0.75361 0.29363 0.16888 0.0
C422 C 0.78001 0.22575 0.18095 0.0
C423 C 0.75891 0.22178 0.15034 0.0
C424 C 0.73198 0.28999 0.14029 0.0
C425 C 0.73461 0.25464 0.13095 0.0
C426 C 0.75716 0.38244 0.31602 0.0
C427 C 0.76611 0.2989 0.39832 0.0
C428 C 0.78873 0.38434 0.43789 0.0
C429 C 0.80014 0.3961 0.4751 0.0
C430 C 0.82155 0.36859 0.50391 0.0
C431 C 0.78868 0.43438 0.4834 0.0
C432 C 0.79831 0.44464 0.52049 0.0
C433 C 0.83158 0.37851 0.53982 0.0
C434 C 0.82021 0.41601 0.54804 0.0
C435 C 0.86867 0.24943 0.34662 0.0
H436 H 0.75185 0.32171 0.17335 0.0
H437 H 0.79887 0.20106 0.19659 0.0
H438 H 0.71376 0.31488 0.12414 0.0
H439 H 0.71865 0.25338 0.10667 0.0
H440 H 0.83023 0.33918 0.49918 0.0
H441 H 0.7718 0.45585 0.46175 0.0
H442 H 0.84817 0.35691 0.56159 0.0
H443 H 0.82903 0.4226 0.576 0.0
Gd444 Gd 0.86283 0.80657 0.33027 0.0
Gd445 Gd 0.82503 0.76699 0.2595 0.0
C446 C 0.88511 0.65515 0.19873 0.0
C447 C 0.91911 0.67398 0.13222 0.0
C448 C 0.88009 0.72033 0.18182 0.0
C449 C 0.87114 0.69265 0.2096 0.0
C450 C 0.90305 0.71158 0.14183 0.0
C451 C 0.91019 0.64574 0.16072 0.0
C452 C 0.87201 0.62868 0.22511 0.0
C453 C 0.84423 0.6403 0.25977 0.0
N454 N 0.84601 0.70306 0.24516 0.0
C455 C 0.83081 0.67795 0.26866 0.0
H456 H 0.80923 0.68681 0.29546 0.0
C457 C 0.86575 0.78516 0.16111 0.0
N458 N 0.86338 0.75634 0.19178 0.0
C459 C 0.88807 0.77801 0.12093 0.0
C460 C 0.90751 0.74102 0.11165 0.0
H461 H 0.85088 0.81385 0.1675 0.0
H462 H 0.92158 0.61703 0.15208 0.0
H463 H 0.79413 0.88869 0.30872 0.0
H464 H 0.88205 0.59959 0.21789 0.0
H465 H 0.83298 0.62035 0.27947 0.0
H466 H 0.93722 0.66664 0.10199 0.0
H467 H 0.90554 0.74422 0.41263 0.0
H468 H 0.72166 0.91597 0.42653 0.0
H469 H 0.73894 0.93023 0.34737 0.0
H470 H 0.77453 0.81674 0.53304 0.0
H471 H 0.89034 0.80108 0.09725 0.0
H472 H 0.92474 0.73555 0.08049 0.0
H473 H 0.73483 0.87337 0.49507 0.0
H474 H 0.89092 0.72634 0.49098 0.0
N475 N 0.80896 0.84936 0.36448 0.0
C476 C 0.74633 0.89732 0.40963 0.0
C477 C 0.75588 0.90532 0.36494 0.0
C478 C 0.76871 0.86538 0.43203 0.0
C479 C 0.80063 0.84185 0.40851 0.0
C480 C 0.78739 0.88111 0.34287 0.0
N481 N 0.85421 0.78795 0.4072 0.0
C482 C 0.82346 0.81009 0.4302 0.0
C483 C 0.87143 0.74962 0.47425 0.0
C484 C 0.83837 0.76976 0.49712 0.0
C485 C 0.87937 0.75977 0.42959 0.0
C486 C 0.81448 0.80113 0.47565 0.0
H487 H 0.83202 0.76158 0.53166 0.0
O488 O 0.91557 0.8043 0.3423 0.0
O489 O 0.87042 0.78808 0.26249 0.0
O490 O 0.86146 0.71746 0.30003 0.0
O491 O 0.87267 0.74633 0.35409 0.0
O492 O 0.91606 0.77076 0.29223 0.0
O493 O 0.87155 0.85744 0.34267 0.0
O494 O 0.78975 0.79587 0.20957 0.0
O495 O 0.81168 0.79742 0.32119 0.0
O496 O 0.84927 0.84922 0.27092 0.0
O497 O 0.81203 0.82959 0.23724 0.0
O498 O 0.79228 0.75382 0.32285 0.0
O499 O 0.77431 0.75706 0.25908 0.0
C500 C 0.90474 0.77084 0.25555 0.0
C501 C 0.78208 0.82368 0.49843 0.0
C502 C 0.75951 0.85596 0.47684 0.0
C503 C 0.90491 0.83924 0.35051 0.0
C504 C 0.91627 0.84633 0.39067 0.0
C505 C 0.92736 0.81705 0.42391 0.0
C506 C 0.91898 0.88142 0.3947 0.0
C507 C 0.93173 0.88709 0.43207 0.0
C508 C 0.93822 0.82299 0.46161 0.0
C509 C 0.94034 0.85769 0.46582 0.0
C510 C 0.87297 0.71648 0.33787 0.0
C511 C 0.79354 0.77839 0.34589 0.0
C512 C 0.7683 0.77643 0.22149 0.0
C513 C 0.76231 0.7571 0.1871 0.0
C514 C 0.78504 0.75295 0.14661 0.0
C515 C 0.73447 0.74145 0.19516 0.0
C516 C 0.72925 0.72203 0.16306 0.0
C517 C 0.78009 0.73362 0.11493 0.0
C518 C 0.75239 0.71839 0.12291 0.0
C519 C 0.82739 0.85437 0.24092 0.0
H520 H 0.92907 0.78902 0.4203 0.0
H521 H 0.91213 0.90378 0.36845 0.0
H522 H 0.94638 0.80011 0.48697 0.0
H523 H 0.95073 0.86072 0.49456 0.0
H524 H 0.8069 0.76431 0.1394 0.0
H525 H 0.71691 0.74445 0.22631 0.0
H526 H 0.79806 0.72995 0.08422 0.0
H527 H 0.74964 0.70298 0.09792 0.0
Gd528 Gd 0.33292 0.83407 0.37946 0.0
Gd529 Gd 0.30133 0.80877 0.28937 0.0
C530 C 0.28562 0.695 0.30504 0.0
C531 C 0.33214 0.66166 0.24902 0.0
C532 C 0.32391 0.72617 0.25861 0.0
C533 C 0.2964 0.72673 0.29274 0.0
C534 C 0.3413 0.69408 0.23536 0.0
C535 C 0.30436 0.6621 0.28387 0.0
C536 C 0.25562 0.6977 0.33723 0.0
C537 C 0.23632 0.73189 0.35493 0.0
N538 N 0.27866 0.7591 0.3121 0.0
C539 C 0.24795 0.76265 0.34142 0.0
H540 H 0.23291 0.78883 0.35557 0.0
C541 C 0.35384 0.7612 0.20759 0.0
N542 N 0.33163 0.75817 0.2459 0.0
C543 C 0.37199 0.73003 0.1836 0.0
C544 C 0.36622 0.6961 0.19801 0.0
H545 H 0.3585 0.78736 0.19654 0.0
H546 H 0.29679 0.63728 0.29324 0.0
H547 H 0.41006 0.82621 0.30749 0.0
H548 H 0.24655 0.67394 0.34772 0.0
H549 H 0.21259 0.73455 0.37913 0.0
H550 H 0.34552 0.63654 0.23196 0.0
H551 H 0.27094 0.88343 0.45603 0.0
H552 H 0.42989 0.92943 0.29725 0.0
H553 H 0.44726 0.86493 0.27629 0.0
H554 H 0.33417 1.00307 0.39753 0.0
H555 H 0.39043 0.7322 0.15408 0.0
H556 H 0.38016 0.67205 0.17924 0.0
H557 H 0.38739 0.98083 0.34198 0.0
H558 H 0.25212 0.94588 0.48371 0.0
N559 N 0.37139 0.86792 0.34676 0.0
C560 C 0.4134 0.9124 0.31153 0.0
C561 C 0.42333 0.87599 0.29968 0.0
C562 C 0.3825 0.92633 0.3419 0.0
C563 C 0.36178 0.90311 0.3594 0.0
C564 C 0.40209 0.85393 0.31785 0.0
N565 N 0.31174 0.89326 0.40661 0.0
C566 C 0.33119 0.91608 0.3901 0.0
C567 C 0.27414 0.93803 0.45708 0.0
C568 C 0.29212 0.96297 0.4383 0.0
C569 C 0.28481 0.9028 0.44135 0.0
C570 C 0.32138 0.95195 0.40492 0.0
H571 H 0.28384 0.99026 0.45059 0.0
O572 O 0.32871 0.82052 0.45 0.0
O573 O 0.31812 0.78968 0.35659 0.0
O574 O 0.2537 0.84304 0.33639 0.0
O575 O 0.27748 0.87756 0.36972 0.0
O576 O 0.29677 0.80314 0.4195 0.0
O577 O 0.38135 0.81613 0.41197 0.0
O578 O 0.2885 0.83524 0.22447 0.0
O579 O 0.31676 0.85258 0.31234 0.0
O580 O 0.38032 0.78584 0.34778 0.0
O581 O 0.35959 0.76995 0.28972 0.0
O582 O 0.33382 0.84285 0.24764 0.0
O583 O 0.2456 0.82855 0.27462 0.0
C584 C 0.30035 0.77995 0.39138 0.0
C585 C 0.34154 0.97531 0.38685 0.0
C586 C 0.37192 0.96259 0.35533 0.0
C587 C 0.36269 0.81617 0.45116 0.0
C588 C 0.36995 0.83568 0.48455 0.0
C589 C 0.34572 0.84358 0.5235 0.0
C590 C 0.40227 0.84396 0.4794 0.0
C591 C 0.41164 0.85783 0.51371 0.0
C592 C 0.35385 0.8588 0.55679 0.0
C593 C 0.38666 0.86537 0.55236 0.0
C594 C 0.24971 0.87303 0.35605 0.0
C595 C 0.33328 0.86348 0.27717 0.0
C596 C 0.25421 0.83884 0.23353 0.0
C597 C 0.23888 0.82642 0.20125 0.0
C598 C 0.25565 0.79016 0.18742 0.0
C599 C 0.20718 0.85081 0.18407 0.0
C600 C 0.19298 0.83893 0.15277 0.0
C601 C 0.24137 0.77829 0.15675 0.0
C602 C 0.21022 0.8025 0.13946 0.0
C603 C 0.38521 0.76567 0.31424 0.0
H604 H 0.32071 0.83739 0.52865 0.0
H605 H 0.42045 0.83863 0.44896 0.0
H606 H 0.33516 0.86434 0.58688 0.0
H607 H 0.39282 0.87493 0.58015 0.0
H608 H 0.27977 0.77095 0.20013 0.0
H609 H 0.19393 0.87887 0.19455 0.0
H610 H 0.25453 0.75027 0.14628 0.0
H611 H 0.19949 0.7928 0.11559 0.0
Gd612 Gd 0.30373 0.781 0.76536 0.0
Gd613 Gd 0.32429 0.81608 0.85327 0.0
C614 C 0.39652 0.8831 0.78135 0.0
C615 C 0.45615 0.84342 0.79996 0.0
C616 C 0.40283 0.82595 0.82959 0.0
C617 C 0.38094 0.85774 0.80727 0.0
C618 C 0.44052 0.81918 0.82724 0.0
C619 C 0.4342 0.87526 0.77697 0.0
C620 C 0.37374 0.91605 0.76115 0.0
C621 C 0.33632 0.92416 0.76903 0.0
N622 N 0.34449 0.8644 0.81168 0.0
C623 C 0.32212 0.89854 0.79533 0.0
H624 H 0.2932 0.90775 0.80346 0.0
C625 C 0.4069 0.77513 0.88375 0.0
N626 N 0.38724 0.80242 0.855 0.0
C627 C 0.44424 0.76706 0.88228 0.0
C628 C 0.46134 0.78864 0.85308 0.0
H629 H 0.39381 0.75957 0.9084 0.0
H630 H 0.44653 0.89416 0.7567 0.0
H631 H 0.31124 0.70164 0.83542 0.0
H632 H 0.38464 0.93612 0.741 0.0
H633 H 0.31823 0.95063 0.75564 0.0
H634 H 0.48507 0.83821 0.79715 0.0
H635 H 0.2569 0.83819 0.68631 0.0
H636 H 0.20742 0.68862 0.86177 0.0
H637 H 0.27194 0.66713 0.87346 0.0
H638 H 0.13507 0.78695 0.76774 0.0
H639 H 0.45966 0.74454 0.90418 0.0
H640 H 0.49029 0.78248 0.85208 0.0
H641 H 0.15644 0.73388 0.82309 0.0
H642 H 0.19474 0.85975 0.66595 0.0
N643 N 0.26971 0.74345 0.80214 0.0
C644 C 0.22465 0.70407 0.84467 0.0
C645 C 0.26105 0.69184 0.85131 0.0
C646 C 0.21106 0.73565 0.81542 0.0
C647 C 0.23456 0.75497 0.79411 0.0
C648 C 0.28338 0.7117 0.82943 0.0
N649 N 0.24556 0.8029 0.74246 0.0
C650 C 0.22216 0.78555 0.7636 0.0
C651 C 0.20186 0.83932 0.69393 0.0
C652 C 0.17623 0.82459 0.7182 0.0
C653 C 0.2369 0.82725 0.70575 0.0
C654 C 0.18649 0.79661 0.7527 0.0
H655 H 0.14912 0.83379 0.70884 0.0
O656 O 0.32125 0.78096 0.69553 0.0
O657 O 0.34919 0.79292 0.78775 0.0
O658 O 0.27116 0.85971 0.83052 0.0
O659 O 0.27044 0.84305 0.76186 0.0
O660 O 0.33787 0.81403 0.72496 0.0
O661 O 0.31339 0.73122 0.73184 0.0
O662 O 0.33137 0.80929 0.9218 0.0
O663 O 0.28022 0.8006 0.83336 0.0
O664 O 0.35026 0.73316 0.79427 0.0
O665 O 0.35667 0.75291 0.85883 0.0
O666 O 0.29126 0.78327 0.89686 0.0
O667 O 0.3052 0.86497 0.89096 0.0
C668 C 0.36075 0.80903 0.75215 0.0
C669 C 0.1627 0.77844 0.77522 0.0
C670 C 0.17492 0.7481 0.80659 0.0
C671 C 0.31937 0.74816 0.69308 0.0
C672 C 0.30066 0.7455 0.6568 0.0
C673 C 0.30044 0.77012 0.61834 0.0
C674 C 0.28513 0.71742 0.65864 0.0
C675 C 0.27043 0.71327 0.62203 0.0
C676 C 0.2854 0.76676 0.58254 0.0
C677 C 0.27089 0.73845 0.58407 0.0
C678 C 0.25787 0.86699 0.79226 0.0
C679 C 0.26949 0.78454 0.86976 0.0
C680 C 0.31548 0.84482 0.92712 0.0
C681 C 0.29179 0.85483 0.96885 0.0
C682 C 0.28034 0.82811 0.99746 0.0
C683 C 0.28461 0.89037 0.98272 0.0
C684 C 0.26743 0.89896 0.02548 0.0
C685 C 0.26316 0.83643 0.03975 0.0
C686 C 0.25709 0.8714 0.05395 0.0
C687 C 0.36559 0.72699 0.83077 0.0
H688 H 0.31245 0.79177 0.61554 0.0
H689 H 0.28495 0.69867 0.68835 0.0
H690 H 0.2858 0.78565 0.55298 0.0
H691 H 0.2611 0.73576 0.55473 0.0
H692 H 0.28566 0.80041 0.98775 0.0
H693 H 0.29346 0.91092 0.96048 0.0
H694 H 0.25525 0.81535 0.06191 0.0
H695 H 0.24495 0.87652 0.0875 0.0
Gd696 Gd 0.33824 0.31751 0.88654 0.0
Gd697 Gd 0.30659 0.26873 0.81826 0.0
C698 C 0.40459 0.19582 0.7307 0.0
C699 C 0.38982 0.22277 0.65762 0.0
C700 C 0.34853 0.24797 0.72223 0.0
C701 C 0.37197 0.22214 0.74923 0.0
C702 C 0.35691 0.24804 0.67613 0.0
C703 C 0.4136 0.19666 0.68486 0.0
C704 C 0.42725 0.16935 0.75874 0.0
C705 C 0.41725 0.16946 0.80402 0.0
N706 N 0.36271 0.22239 0.79353 0.0
C707 C 0.38487 0.19616 0.82092 0.0
H708 H 0.37874 0.19586 0.85595 0.0
C709 C 0.29094 0.29434 0.71535 0.0
N710 N 0.31699 0.27225 0.74089 0.0
C711 C 0.29805 0.29562 0.66968 0.0
C712 C 0.33155 0.27295 0.64994 0.0
H713 H 0.26469 0.3117 0.73034 0.0
H714 H 0.43872 0.17699 0.67016 0.0
H715 H 0.27857 0.40291 0.84528 0.0
H716 H 0.45251 0.14876 0.74579 0.0
H717 H 0.43469 0.14916 0.82606 0.0
H718 H 0.39682 0.22275 0.62226 0.0
H719 H 0.37037 0.2682 0.98053 0.0
H720 H 0.1991 0.45018 0.95021 0.0
H721 H 0.22412 0.45196 0.87181 0.0
H722 H 0.23764 0.36763 0.07667 0.0
H723 H 0.27747 0.31403 0.65006 0.0
H724 H 0.33734 0.27406 0.61458 0.0
H725 H 0.204 0.41841 0.02581 0.0
H726 H 0.35058 0.266 0.05996 0.0
N727 N 0.28602 0.37011 0.90758 0.0
C728 C 0.22352 0.42779 0.93878 0.0
C729 C 0.2375 0.42882 0.89454 0.0
C730 C 0.24149 0.39825 0.96788 0.0
C731 C 0.27326 0.36955 0.95137 0.0
C732 C 0.26887 0.4 0.8795 0.0
N733 N 0.32269 0.31339 0.96414 0.0
C734 C 0.29195 0.34048 0.9802 0.0
C735 C 0.33365 0.28698 0.03798 0.0
C736 C 0.30041 0.31221 0.05454 0.0
C737 C 0.34485 0.28863 0.99276 0.0
C738 C 0.27965 0.34007 0.02588 0.0
H739 H 0.29169 0.31084 0.08965 0.0
O740 O 0.39185 0.30852 0.90136 0.0
O741 O 0.34959 0.29155 0.82359 0.0
O742 O 0.31849 0.23011 0.88214 0.0
O743 O 0.33958 0.26141 0.92421 0.0
O744 O 0.39384 0.28062 0.85517 0.0
O745 O 0.35371 0.36557 0.89369 0.0
O746 O 0.25963 0.2639 0.79542 0.0
O747 O 0.29322 0.29746 0.87993 0.0
O748 O 0.32731 0.35406 0.82084 0.0
O749 O 0.29974 0.32689 0.7809 0.0
O750 O 0.25175 0.31097 0.84197 0.0
O751 O 0.2949 0.21696 0.83292 0.0
C752 C 0.38384 0.27652 0.81946 0.0
C753 C 0.24757 0.36788 0.04183 0.0
C754 C 0.22852 0.39685 1.01291 0.0
C755 C 0.38556 0.34391 0.90457 0.0
C756 C 0.39838 0.35239 0.94263 0.0
C757 C 0.40977 0.3246 0.97733 0.0
C758 C 0.40351 0.38692 0.94201 0.0
C759 C 0.41962 0.39354 0.97572 0.0
C760 C 0.42324 0.33193 1.01215 0.0
C761 C 0.42815 0.3661 1.0115 0.0
C762 C 0.33105 0.23227 0.91827 0.0
C763 C 0.25981 0.31652 0.87835 0.0
C764 C 0.26898 0.2281 0.80803 0.0
C765 C 0.27249 0.20304 0.77433 0.0
C766 C 0.307 0.18013 0.75631 0.0
C767 C 0.24139 0.20153 0.76016 0.0
C768 C 0.2448 0.17755 0.72802 0.0
C769 C 0.31057 0.15756 0.72335 0.0
C770 C 0.27972 0.15625 0.70917 0.0
C771 C 0.31112 0.35455 0.78621 0.0
H772 H 0.40991 0.29654 0.97696 0.0
H773 H 0.39659 0.4078 0.91431 0.0
H774 H 0.43167 0.31028 0.03869 0.0
H775 H 0.44102 0.36982 0.03766 0.0
H776 H 0.33131 0.17907 0.7681 0.0
H777 H 0.21465 0.21847 0.77462 0.0
H778 H 0.33734 0.14025 0.70957 0.0
H779 H 0.28325 0.13719 0.68489 0.0
Gd780 Gd 0.8471 0.33009 0.85091 0.0
Gd781 Gd 0.80132 0.31217 0.7658 0.0
C782 C 0.77231 0.20604 0.78127 0.0
C783 C 0.8084 0.17472 0.71733 0.0
C784 C 0.81037 0.23497 0.73023 0.0
C785 C 0.78621 0.23561 0.7684 0.0
C786 C 0.82094 0.20499 0.70365 0.0
C787 C 0.78422 0.17519 0.75612 0.0
C788 C 0.74608 0.20888 0.81833 0.0
C789 C 0.73326 0.24131 0.84045 0.0
N790 N 0.77495 0.26597 0.79183 0.0
C791 C 0.7476 0.27006 0.82618 0.0
H792 H 0.73747 0.29505 0.84344 0.0
C793 C 0.8421 0.26747 0.67787 0.0
N794 N 0.82219 0.26453 0.71799 0.0
C795 C 0.853 0.23859 0.65021 0.0
C796 C 0.84289 0.20691 0.66348 0.0
H797 H 0.8501 0.29181 0.66746 0.0
H798 H 0.77412 0.15204 0.76574 0.0
H799 H 0.92324 0.32418 0.78096 0.0
H800 H 0.73485 0.1867 0.82939 0.0
H801 H 0.71236 0.24417 0.86851 0.0
H802 H 0.81654 0.15123 0.6976 0.0
H803 H 0.79157 0.37348 0.93628 0.0
H804 H 0.93842 0.4304 0.76774 0.0
H805 H 0.95899 0.36482 0.7489 0.0
H806 H 0.84223 0.50122 0.86996 0.0
H807 H 0.86928 0.24071 0.61877 0.0
H808 H 0.85144 0.18453 0.64203 0.0
H809 H 0.89391 0.48157 0.81174 0.0
H810 H 0.7721 0.43531 0.96607 0.0
N811 N 0.88268 0.36638 0.81753 0.0
C812 C 0.9227 0.41263 0.78215 0.0
C813 C 0.93444 0.37559 0.7715 0.0
C814 C 0.89129 0.42603 0.81205 0.0
C815 C 0.87172 0.40181 0.82981 0.0
C816 C 0.91408 0.35264 0.78973 0.0
N817 N 0.82586 0.38801 0.88138 0.0
C818 C 0.84206 0.41321 0.86211 0.0
C819 C 0.7915 0.42959 0.93659 0.0
C820 C 0.80566 0.45698 0.9151 0.0
C821 C 0.80254 0.39472 0.91977 0.0
C822 C 0.83198 0.44864 0.87813 0.0
H823 H 0.79727 0.48386 0.92842 0.0
O824 O 0.85522 0.31446 0.92003 0.0
O825 O 0.82285 0.29234 0.83046 0.0
O826 O 0.75961 0.34836 0.81661 0.0
O827 O 0.79206 0.37679 0.84601 0.0
O828 O 0.81344 0.29885 0.89613 0.0
O829 O 0.90182 0.30427 0.87 0.0
O830 O 0.78213 0.35343 0.71135 0.0
O831 O 0.82693 0.34952 0.78551 0.0
O832 O 0.88778 0.28299 0.81003 0.0
O833 O 0.85707 0.26682 0.76196 0.0
O834 O 0.83784 0.33923 0.72017 0.0
O835 O 0.74619 0.32619 0.74896 0.0
C836 C 0.80932 0.28039 0.86697 0.0
C837 C 0.84999 0.47366 0.85856 0.0
C838 C 0.87955 0.46239 0.82555 0.0
C839 C 0.89076 0.30342 0.91222 0.0
C840 C 0.90974 0.31771 0.93965 0.0
C841 C 0.89996 0.35656 0.94083 0.0
C842 C 0.93776 0.2934 0.9644 0.0
C843 C 0.95562 0.30862 0.98877 0.0
C844 C 0.91736 0.37144 0.96459 0.0
C845 C 0.94499 0.34778 0.98817 0.0
C846 C 0.76112 0.37646 0.83565 0.0
C847 C 0.84333 0.35739 0.74859 0.0
C848 C 0.75114 0.34827 0.71418 0.0
C849 C 0.73992 0.34365 0.67233 0.0
C850 C 0.76553 0.3367 0.63434 0.0
C851 C 0.70333 0.34795 0.66923 0.0
C852 C 0.69267 0.34524 0.62865 0.0
C853 C 0.75542 0.3336 0.59468 0.0
C854 C 0.71957 0.3377 0.59179 0.0
C855 C 0.88649 0.26122 0.78085 0.0
H856 H 0.87871 0.37576 0.92353 0.0
H857 H 0.94573 0.26324 0.96442 0.0
H858 H 0.90926 0.40159 0.96479 0.0
H859 H 0.95794 0.36017 1.00658 0.0
H860 H 0.79352 0.33387 0.635 0.0
H861 H 0.68328 0.35391 0.69814 0.0
H862 H 0.77561 0.32785 0.56588 0.0
H863 H 0.71322 0.3341 0.56055 0.0
Gd864 Gd 0.81818 0.84923 0.76109 0.0
Gd865 Gd 0.77636 0.8081 0.8597 0.0
C866 C 0.73032 0.88227 0.97321 0.0
C867 C 0.76916 0.84709 0.02881 0.0
C868 C 0.77739 0.82265 0.95826 0.0
C869 C 0.74936 0.85402 0.94466 0.0
C870 C 0.78688 0.81827 1.00095 0.0
C871 C 0.74096 0.87906 1.01493 0.0
C872 C 0.7007 0.91246 0.95931 0.0
C873 C 0.69009 0.91336 0.91843 0.0
N874 N 0.73974 0.85619 0.90419 0.0
C875 C 0.70979 0.88463 0.89131 0.0
H876 H 0.70157 0.88593 0.8596 0.0
C877 C 0.81716 0.76113 0.94521 0.0
N878 N 0.79377 0.79524 0.93067 0.0
C879 C 0.82749 0.75546 0.9873 0.0
C880 C 0.81298 0.78452 1.01488 0.0
H881 H 0.82886 0.7389 0.92356 0.0
H882 H 0.72694 0.90069 0.03712 0.0
H883 H 0.89059 0.76945 0.75358 0.0
H884 H 0.68543 0.93479 0.9802 0.0
H885 H 0.66688 0.9363 0.90766 0.0
H886 H 0.77637 0.84445 0.06156 0.0
H887 H 0.76089 0.9224 0.70801 0.0
H888 H 0.90984 0.73864 0.62236 0.0
H889 H 0.92604 0.72606 0.69794 0.0
H890 H 0.82338 0.84164 0.54895 0.0
H891 H 0.8469 0.72887 0.99825 0.0
H892 H 0.8213 0.78025 0.04727 0.0
H893 H 0.87222 0.78249 0.56688 0.0
H894 H 0.74434 0.94253 0.63262 0.0
N895 N 0.85268 0.80497 0.71114 0.0
C896 C 0.89359 0.75739 0.64699 0.0
C897 C 0.90291 0.75029 0.68954 0.0
C898 C 0.86425 0.78939 0.6363 0.0
C899 C 0.84371 0.81275 0.66963 0.0
C900 C 0.88258 0.77497 0.72108 0.0
N901 N 0.79818 0.86883 0.69183 0.0
C902 C 0.81563 0.84567 0.65964 0.0
C903 C 0.7643 0.91518 0.63982 0.0
C904 C 0.78133 0.89136 0.6065 0.0
C905 C 0.77361 0.90371 0.68239 0.0
C906 C 0.80786 0.85647 0.61598 0.0
H907 H 0.77457 0.90059 0.57336 0.0
O908 O 0.8272 0.90254 0.74374 0.0
O909 O 0.79379 0.85628 0.83052 0.0
O910 O 0.73478 0.83677 0.81064 0.0
O911 O 0.76693 0.846 0.742 0.0
O912 O 0.7791 0.90373 0.78855 0.0
O913 O 0.87324 0.85074 0.74791 0.0
O914 O 0.77075 0.75347 0.87951 0.0
O915 O 0.80136 0.80007 0.79015 0.0
O916 O 0.86082 0.81536 0.80656 0.0
O917 O 0.82955 0.80859 0.87634 0.0
O918 O 0.81801 0.75442 0.83533 0.0
O919 O 0.72268 0.80324 0.87485 0.0
C920 C 0.77649 0.89125 0.82951 0.0
C921 C 0.82814 0.8332 0.58282 0.0
C922 C 0.85609 0.79963 0.59299 0.0
C923 C 0.86258 0.88709 0.73855 0.0
C924 C 0.88247 0.90133 0.6994 0.0
C925 C 0.87685 0.89815 0.65702 0.0
C926 C 0.90734 0.91847 0.70441 0.0
C927 C 0.92656 0.93221 0.66724 0.0
C928 C 0.89559 0.91174 0.62015 0.0
C929 C 0.92021 0.92869 0.62509 0.0
C930 C 0.73693 0.84394 0.76703 0.0
C931 C 0.82054 0.76548 0.7939 0.0
C932 C 0.73532 0.76709 0.8856 0.0
C933 C 0.71739 0.75278 0.92625 0.0
C934 C 0.71902 0.7629 0.96723 0.0
C935 C 0.69845 0.72854 0.92401 0.0
C936 C 0.68117 0.71438 0.96256 0.0
C937 C 0.70247 0.74861 1.00558 0.0
C938 C 0.68372 0.72448 1.00338 0.0
C939 C 0.85954 0.80896 0.85002 0.0
H940 H 0.85794 0.88535 0.65228 0.0
H941 H 0.91199 0.92065 0.73716 0.0
H942 H 0.8909 0.90926 0.58757 0.0
H943 H 0.93396 0.93948 0.59583 0.0
H944 H 0.73296 0.78182 0.96968 0.0
H945 H 0.69666 0.72131 0.8922 0.0
H946 H 0.70412 0.75636 0.0371 0.0
H947 H 0.67134 0.71358 0.03368 0.0
C948 C 0.15099 0.13568 0.44662 0.0
C949 C 0.11702 0.14249 0.47296 0.0
H950 H 0.19972 0.14948 0.42988 0.0
C951 C 0.10585 0.17072 0.50194 0.0
H952 H 0.16069 0.11399 0.42421 0.0
C953 C 0.12813 0.19109 0.5051 0.0
C954 C 0.16239 0.18387 0.47946 0.0
H955 H 0.07964 0.17747 0.52206 0.0
H956 H 0.1183 0.21277 0.52758 0.0
C957 C 0.17339 0.15611 0.44983 0.0
C958 C 0.9373 0.14877 0.3487 0.0
C959 C 0.96498 0.15216 0.3688 0.0
H960 H 0.88516 0.17674 0.32552 0.0
C961 C 0.96191 0.18795 0.37821 0.0
H962 H 0.9384 0.12132 0.34232 0.0
C963 C 0.93148 0.21942 0.36914 0.0
C964 C 0.90277 0.2161 0.35096 0.0
H965 H 0.98233 0.19134 0.39463 0.0
H966 H 0.93011 0.2463 0.37761 0.0
C967 C 0.90663 0.18048 0.33951 0.0
C968 C 0.9752 0.96215 0.40406 0.0
C969 C 0.97173 0.97456 0.44563 0.0
H970 H 0.96512 0.92477 0.36707 0.0
C971 C 0.95002 0.96233 0.48087 0.0
H972 H 0.99189 0.97088 0.37626 0.0
C973 C 0.93429 0.93627 0.47547 0.0
C974 C 0.94026 0.92144 0.4348 0.0
H975 H 0.94624 0.97196 0.51304 0.0
H976 H 0.91888 0.92634 0.50378 0.0
C977 C 0.95969 0.9358 0.39871 0.0
C978 C 0.17525 0.96863 0.37394 0.0
C979 C 0.14401 0.96267 0.36598 0.0
H980 H 0.23271 0.94535 0.37744 0.0
C981 C 0.14809 0.92694 0.35462 0.0
H982 H 0.17328 0.99558 0.38303 0.0
C983 C 0.18212 0.89802 0.35168 0.0
C984 C 0.21325 0.90369 0.36039 0.0
H985 H 0.12479 0.92107 0.34831 0.0
H986 H 0.1839 0.87105 0.34285 0.0
C987 C 0.20935 0.93955 0.37127 0.0
C988 C 0.19488 0.94868 0.72676 0.0
C989 C 0.16801 0.96867 0.75892 0.0
H990 H 0.24357 0.90249 0.71193 0.0
C991 C 0.1716 0.95544 0.80343 0.0
H992 H 0.19364 0.95758 0.69211 0.0
C993 C 0.20116 0.92299 0.81496 0.0
C994 C 0.22744 0.9029 0.78223 0.0
H995 H 0.15164 0.97 0.82919 0.0
H996 H 0.20299 0.91318 0.84934 0.0
C997 C 0.22381 0.9166 0.73814 0.0
C998 C 0.18309 0.15436 0.66513 0.0
C999 C 0.15843 0.14593 0.69965 0.0
H1000 H 0.2296 0.17173 0.64692 0.0
C1001 C 0.15961 0.15277 0.74255 0.0
H1002 H 0.18274 0.14953 0.63174 0.0
C1003 C 0.18635 0.16536 0.75127 0.0
C1004 C 0.21257 0.17136 0.71727 0.0
H1005 H 0.14042 0.1474 0.76968 0.0
H1006 H 0.18766 0.16837 0.78504 0.0
C1007 C 0.21 0.16686 0.67388 0.0
C1008 C 0.97647 0.17794 0.7894 0.0
C1009 C 0.97657 0.15666 0.75601 0.0
H1010 H 0.94862 0.22806 0.82294 0.0
C1011 C 0.94701 0.17013 0.73159 0.0
H1012 H 0.99899 0.1687 0.80853 0.0
C1013 C 0.91851 0.20381 0.73961 0.0
C1014 C 0.91844 0.22592 0.77198 0.0
H1015 H 0.94596 0.15465 0.70562 0.0
H1016 H 0.8965 0.21241 0.72001 0.0
C1017 C 0.9478 0.2123 0.79715 0.0
C1018 C 1.00997 0.96175 0.64492 0.0
C1019 C 1.00207 0.98802 0.67573 0.0
H1020 H 0.99301 0.92314 0.6188 0.0
C1021 C 0.96976 0.99448 0.70534 0.0
H1022 H 0.0349 0.95531 0.62227 0.0
C1023 C 0.94558 0.97581 0.70338 0.0
C1024 C 0.95315 0.9503 0.67175 0.0
H1025 H 0.96263 0.01469 0.72926 0.0
H1026 H 0.92045 0.98223 0.72577 0.0
C1027 C 0.98589 0.94318 0.64298 0.0
C1028 C 0.30481 0.22669 0.22652 0.0
C1029 C 0.31883 0.18766 0.2372 0.0
H1030 H 0.30005 0.28115 0.24115 0.0
C1031 C 0.34237 0.17373 0.26946 0.0
H1032 H 0.2869 0.2381 0.20141 0.0
C1033 C 0.34893 0.19851 0.29345 0.0
C1034 C 0.33255 0.23775 0.2852 0.0
H1035 H 0.35349 0.14377 0.27829 0.0
H1036 H 0.36491 0.1869 0.32044 0.0
C1037 C 0.31222 0.25139 0.24958 0.0
C1038 C 0.94513 0.3208 0.26473 0.0
C1039 C 0.95016 0.34232 0.22466 0.0
H1040 H 0.90898 0.29932 0.31142 0.0
C1041 C 0.91991 0.3598 0.20165 0.0
H1042 H 0.96779 0.30665 0.28328 0.0
C1043 C 0.88553 0.35679 0.21889 0.0
C1044 C 0.88026 0.33587 0.25947 0.0
H1045 H 0.92264 0.37659 0.17084 0.0
H1046 H 0.86286 0.37108 0.20039 0.0
C1047 C 0.91108 0.31694 0.28128 0.0
C1048 C 0.85236 0.93057 0.16358 0.0
C1049 C 0.83149 0.93583 0.12944 0.0
H1050 H 0.86624 0.90236 0.22624 0.0
C1051 C 0.8063 0.91702 0.13445 0.0
H1052 H 0.87153 0.94516 0.16102 0.0
C1053 C 0.80345 0.89202 0.17173 0.0
C1054 C 0.82533 0.88567 0.20527 0.0
H1055 H 0.78981 0.92055 0.1087 0.0
H1056 H 0.78499 0.87672 0.17349 0.0
C1057 C 0.84896 0.90628 0.20124 0.0
C1058 C 0.09474 0.88046 0.13585 0.0
C1059 C 0.09848 0.88555 0.0897 0.0
H1060 H 0.12287 0.8617 0.19282 0.0
C1061 C 0.13229 0.8842 0.06622 0.0
H1062 H 0.06893 0.88083 0.15449 0.0
C1063 C 0.16287 0.87299 0.08784 0.0
C1064 C 0.16009 0.86342 0.13338 0.0
H1065 H 0.13568 0.88773 0.03062 0.0
H1066 H 0.18907 0.86823 0.06834 0.0
C1067 C 0.12554 0.86936 0.15768 0.0
C1068 C 0.28804 0.98354 0.04691 0.0
C1069 C 0.25772 1.00151 0.07654 0.0
H1070 H 0.31522 0.93716 1.00848 0.0
C1071 C 0.22925 0.9869 0.08717 0.0
H1072 H 0.31018 0.99438 0.03747 0.0
C1073 C 0.23187 0.95408 0.06988 0.0
C1074 C 0.26293 0.93538 0.04144 0.0
H1075 H 0.20562 1.00004 0.11002 0.0
H1076 H 0.20978 0.94311 0.07917 0.0
C1077 C 0.2907 0.95089 0.02976 0.0
C1078 C 0.20566 0.31486 0.99356 0.0
C1079 C 0.17234 0.34437 0.98857 0.0
H1080 H 0.25882 0.2831 0.96308 0.0
C1081 C 0.16902 0.36527 0.94703 0.0
H1082 H 0.20983 0.29806 0.02469 0.0
C1083 C 0.19758 0.35666 0.91189 0.0
C1084 C 0.23082 0.32741 0.91712 0.0
H1085 H 0.14399 0.38786 0.9411 0.0
H1086 H 0.19361 0.37295 0.88037 0.0
C1087 C 0.23422 0.30648 0.95837 0.0
C1088 C 0.83633 0.17403 0.86494 0.0
C1089 C 0.81912 0.16344 0.90569 0.0
H1090 H 0.84656 0.21825 0.82067 0.0
C1091 C 0.79718 0.19213 0.93258 0.0
H1092 H 0.85304 0.15309 0.84296 0.0
C1093 C 0.7933 0.23001 0.91942 0.0
C1094 C 0.81079 0.24047 0.87879 0.0
H1095 H 0.78375 0.1853 0.96442 0.0
H1096 H 0.7769 0.25116 0.94136 0.0
C1097 C 0.83232 0.21181 0.85184 0.0
C1098 C 0.92117 0.80295 0.93517 0.0
C1099 C 0.95028 0.81123 0.90867 0.0
H1100 H 0.86943 0.79672 0.9378 0.0
C1101 C 0.95076 0.81553 0.86279 0.0
H1102 H 0.91979 0.80009 0.97063 0.0
C1103 C 0.92242 0.81264 0.84379 0.0
C1104 C 0.89222 0.80619 0.87019 0.0
H1105 H 0.97284 0.82199 0.84158 0.0
H1106 H 0.92362 0.817 0.80836 0.0
C1107 C 0.8923 0.80094 0.9162 0.0
C1108 C 0.17687 0.30178 0.24389 0.0
C1109 C 0.16675 0.32936 0.2085 0.0
H1110 H 0.20924 0.28091 0.29746 0.0
C1111 C 0.18367 0.35684 0.20012 0.0
H1112 H 0.16451 0.28026 0.25175 0.0
C1113 C 0.20921 0.35723 0.22608 0.0
C1114 C 0.21886 0.33039 0.26204 0.0
H1115 H 0.17696 0.37863 0.17326 0.0
H1116 H 0.22082 0.37927 0.21834 0.0
C1117 C 0.20233 0.30247 0.27044 0.0
C1118 C 0.18667 0.76767 0.94691 0.0
C1119 C 0.15602 0.7941 0.92901 0.0
H1120 H 0.24542 0.74396 0.94269 0.0
C1121 C 0.16377 0.81553 0.88944 0.0
H1122 H 0.18277 0.75077 0.97726 0.0
C1123 C 0.19978 0.81168 0.86952 0.0
C1124 C 0.23039 0.78585 0.8877 0.0
H1125 H 0.14164 0.83639 0.87389 0.0
H1126 H 0.20356 0.82987 0.8403 0.0
C1127 C 0.22293 0.76388 0.92687 0.0
C1128 C 0.31345 0.19208 0.03615 0.0
C1129 C 0.32654 0.15304 0.03393 0.0
H1130 H 0.30332 0.24642 1.00228 0.0
C1131 C 0.34233 0.13939 0.9926 0.0
H1132 H 0.30039 0.2038 0.06702 0.0
C1133 C 0.34407 0.16464 0.95448 0.0
C1134 C 0.33058 0.20387 0.95722 0.0
H1135 H 0.35178 0.10952 0.98941 0.0
H1136 H 0.35571 0.15355 0.923 0.0
C1137 C 0.3154 0.2168 0.99872 0.0
C1138 C 1.00029 0.26059 0.09023 0.0
C1139 C 0.03401 0.26645 0.08017 0.0
H1140 H 0.94918 0.26843 0.06859 0.0
C1141 C 0.04403 0.27905 0.03649 0.0
H1142 H 0.9914 0.25107 0.1234 0.0
C1143 C 1.01981 0.28871 1.00508 0.0
C1144 C 0.98499 0.28573 1.01615 0.0
H1145 H 0.06958 0.28404 0.02722 0.0
H1146 H 0.02722 0.30133 0.97291 0.0
C1147 C 0.97607 0.2702 0.05865 0.0
C1148 C 0.75705 0.97811 0.89141 0.0
C1149 C 0.78216 0.96408 0.92211 0.0
H1150 H 0.73565 0.9662 0.83799 0.0
C1151 C 0.80242 0.9253 0.92465 0.0
H1152 H 0.74136 0.00782 0.88791 0.0
C1153 C 0.79915 0.90164 0.89639 0.0
C1154 C 0.77541 0.9156 0.86425 0.0
H1155 H 0.82212 0.91327 0.9477 0.0
H1156 H 0.81656 0.87259 0.89875 0.0
C1157 C 0.754 0.95422 0.86257 0.0
C1158 C 0.9808 0.75117 0.15393 0.0
C1159 C 0.97424 0.78721 0.13067 0.0
H1160 H 0.96416 0.71739 0.21043 0.0
C1161 C 0.94539 0.81703 0.15019 0.0
H1162 H 1.00236 0.72722 0.14056 0.0
C1163 C 0.92376 0.81141 0.18998 0.0
C1164 C 0.92882 0.77551 0.21228 0.0
H1165 H 0.93915 0.84539 0.13438 0.0
H1166 H 0.90262 0.83551 0.2032 0.0
C1167 C 0.95852 0.74549 0.19405 0.0
C1168 C 0.30793 0.97037 0.26949 0.0
C1169 C 0.32985 0.97802 0.23083 0.0
H1170 H 0.29126 0.92938 0.31388 0.0
C1171 C 0.35516 0.94705 0.20989 0.0
H1172 H 0.28796 0.99316 0.28682 0.0
C1173 C 0.35729 0.90992 0.22619 0.0
C1174 C 0.33448 0.90255 0.26407 0.0
H1175 H 0.37226 0.95151 0.17993 0.0
H1176 H 0.37622 0.88686 0.20837 0.0
C1177 C 0.30994 0.93346 0.28549 0.0
C1178 C 0.8058 0.12535 0.10761 0.0
C1179 C 0.77818 0.12007 0.08895 0.0
H1180 H 0.82185 0.16073 0.14066 0.0
C1181 C 0.74281 0.14614 0.09605 0.0
H1182 H 0.83345 0.10574 0.10355 0.0
C1183 C 0.73591 0.17777 0.11881 0.0
C1184 C 0.76431 0.1845 0.13446 0.0
H1185 H 0.72079 0.14292 0.08266 0.0
H1186 H 0.70839 0.19759 0.12284 0.0
C1187 C 0.79908 0.15698 0.12967 0.0
C1188 C 0.65269 0.63758 0.93111 0.0
C1189 C 0.61992 0.64193 0.95927 0.0
H1190 H 0.69806 0.65661 0.9104 0.0
C1191 C 0.60717 0.67086 0.98745 0.0
H1192 H 0.66342 0.61543 0.90927 0.0
C1193 C 0.62686 0.6944 0.98806 0.0
C1194 C 0.65994 0.68972 0.96054 0.0
H1195 H 0.58166 0.6757 1.00885 0.0
H1196 H 0.61591 0.71656 1.00993 0.0
C1197 C 0.67251 0.66121 0.93175 0.0
C1198 C 0.44772 0.65251 0.87827 0.0
C1199 C 0.46419 0.62943 0.84366 0.0
H1200 H 0.40281 0.69894 0.90302 0.0
C1201 C 0.44646 0.63723 0.80601 0.0
H1202 H 0.45997 0.64686 0.90829 0.0
C1203 C 0.41402 0.66808 0.80242 0.0
C1204 C 0.39785 0.69168 0.83676 0.0
H1205 H 0.45806 0.61989 0.77888 0.0
H1206 H 0.40201 0.67379 0.77223 0.0
C1207 C 0.41482 0.68269 0.87515 0.0
C1208 C 0.4702 0.45999 0.92781 0.0
C1209 C 0.47357 0.47348 0.96593 0.0
H1210 H 0.45063 0.42387 0.90098 0.0
C1211 C 0.45399 0.46548 1.00601 0.0
H1212 H 0.48512 0.46566 0.89652 0.0
C1213 C 0.43346 0.44222 1.00852 0.0
C1214 C 0.43277 0.42581 0.97112 0.0
H1215 H 0.4556 0.47623 0.03568 0.0
H1216 H 0.41966 0.43554 0.04023 0.0
C1217 C 0.45016 0.43621 0.93038 0.0
C1218 C 0.6975 0.4727 0.87007 0.0
C1219 C 0.66283 0.47263 0.86614 0.0
H1220 H 0.75499 0.44413 0.86149 0.0
C1221 C 0.66059 0.44125 0.84982 0.0
H1222 H 0.70026 0.49631 0.88264 0.0
C1223 C 0.69228 0.41009 0.83955 0.0
C1224 C 0.727 0.40971 0.84498 0.0
H1225 H 0.63426 0.43997 0.84714 0.0
H1226 H 0.68946 0.38598 0.82828 0.0
C1227 C 0.72899 0.44219 0.85887 0.0
C1228 C 0.66469 0.45873 0.30375 0.0
C1229 C 0.6733 0.49175 0.29871 0.0
H1230 H 0.6844 0.3984 0.3123 0.0
C1231 C 0.70947 0.48842 0.30064 0.0
H1232 H 0.63726 0.46021 0.30176 0.0
C1233 C 0.73645 0.45309 0.3068 0.0
C1234 C 0.72822 0.41999 0.31015 0.0
H1235 H 0.71711 0.51325 0.29658 0.0
H1236 H 0.764 0.45173 0.30783 0.0
C1237 C 0.69189 0.42326 0.30905 0.0
C1238 C 0.67173 0.66306 0.21743 0.0
C1239 C 0.65266 0.66324 0.18313 0.0
H1240 H 0.71107 0.68124 0.23796 0.0
C1241 C 0.65682 0.6854 0.14362 0.0
H1242 H 0.66947 0.64602 0.24814 0.0
C1243 C 0.6805 0.7057 0.13792 0.0
C1244 C 0.70082 0.70418 0.17142 0.0
H1245 H 0.64203 0.68676 0.11687 0.0
H1246 H 0.68332 0.72223 0.10696 0.0
C1247 C 0.69558 0.68328 0.21163 0.0
C1248 C 0.4644 0.69857 0.24747 0.0
C1249 C 0.48273 0.67173 0.2795 0.0
H1250 H 0.42086 0.74942 0.23348 0.0
C1251 C 0.47026 0.67785 0.32411 0.0
H1252 H 0.4732 0.69552 0.21276 0.0
C1253 C 0.43948 0.70939 0.33602 0.0
C1254 C 0.42065 0.73522 0.30353 0.0
H1255 H 0.48374 0.65796 0.34968 0.0
H1256 H 0.42962 0.71277 0.37049 0.0
C1257 C 0.43407 0.72967 0.25929 0.0
C1258 C 0.4622 0.52215 0.21219 0.0
C1259 C 0.49711 0.49831 0.22064 0.0
H1260 H 0.40901 0.52582 0.20136 0.0
C1261 C 0.50415 0.45941 0.22869 0.0
H1262 H 0.4563 0.55217 0.20568 0.0
C1263 C 0.47705 0.44449 0.22732 0.0
C1264 C 0.44269 0.46812 0.21686 0.0
H1265 H 0.53083 0.44055 0.23552 0.0
H1266 H 0.48338 0.41434 0.23264 0.0
C1267 C 0.43533 0.50711 0.20968 0.0
C1268 C 0.85766 0.67242 0.74297 0.0
C1269 C 0.83589 0.67772 0.70954 0.0
H1270 H 0.86998 0.69553 0.79457 0.0
C1271 C 0.80993 0.71387 0.70184 0.0
H1272 H 0.87808 0.64533 0.75013 0.0
C1273 C 0.80579 0.7434 0.72733 0.0
C1274 C 0.82727 0.73736 0.7614 0.0
H1275 H 0.79292 0.71936 0.67615 0.0
H1276 H 0.78513 0.77053 0.72121 0.0
C1277 C 0.8532 0.70143 0.76852 0.0
C1278 C 0.4668 0.76965 0.73162 0.0
C1279 C 0.47581 0.79387 0.69579 0.0
H1280 H 0.42514 0.75505 0.77724 0.0
C1281 C 0.44607 0.82363 0.67992 0.0
H1282 H 0.48812 0.74652 0.74574 0.0
C1283 C 0.40944 0.82849 0.69849 0.0
C1284 C 0.40059 0.80442 0.73442 0.0
H1285 H 0.45095 0.84289 0.6524 0.0
H1286 H 0.38776 0.85142 0.68456 0.0
C1287 C 0.43021 0.77471 0.7503 0.0
C1288 C 0.33127 0.43655 0.71315 0.0
C1289 C 0.31397 0.44 0.67584 0.0
H1290 H 0.3437 0.40802 0.77635 0.0
C1291 C 0.294 0.41603 0.67636 0.0
H1292 H 0.34635 0.45465 0.71503 0.0
C1293 C 0.29216 0.38915 0.71235 0.0
C1294 C 0.31022 0.38519 0.74912 0.0
H1295 H 0.28023 0.41751 0.64863 0.0
H1296 H 0.27662 0.37139 0.71111 0.0
C1297 C 0.32942 0.40977 0.74895 0.0
C1298 C 0.60175 0.32868 0.65079 0.0
C1299 C 0.58862 0.34009 0.60964 0.0
H1300 H 0.64432 0.32091 0.68905 0.0
C1301 C 0.60725 0.35845 0.57701 0.0
H1302 H 0.58811 0.3146 0.67698 0.0
C1303 C 0.63966 0.36243 0.58424 0.0
C1304 C 0.65455 0.34793 0.62417 0.0
H1305 H 0.59815 0.36761 0.54496 0.0
H1306 H 0.65384 0.37559 0.55768 0.0
C1307 C 0.63416 0.33244 0.65793 0.0
C1308 C 0.77408 0.52813 0.58717 0.0
C1309 C 0.779 0.55643 0.555 0.0
H1310 H 0.77479 0.47158 0.60148 0.0
C1311 C 0.78509 0.54929 0.51046 0.0
H1312 H 0.76909 0.53259 0.62173 0.0
C1313 C 0.78904 0.51375 0.49872 0.0
C1314 C 0.78684 0.48458 0.53125 0.0
H1315 H 0.78924 0.5703 0.48473 0.0
H1316 H 0.79611 0.50845 0.4644 0.0
C1317 C 0.77765 0.49293 0.57547 0.0
C1318 C 0.75214 0.75568 0.4631 0.0
C1319 C 0.71691 0.78322 0.46784 0.0
H1320 H 0.80353 0.7336 0.42282 0.0
C1321 C 0.70904 0.81229 0.43315 0.0
H1322 H 0.76017 0.73298 0.48862 0.0
C1323 C 0.73471 0.81263 0.39479 0.0
C1324 C 0.7697 0.78464 0.39013 0.0
H1325 H 0.68243 0.83394 0.43468 0.0
H1326 H 0.72666 0.83415 0.36801 0.0
C1327 C 0.77756 0.75619 0.42513 0.0
C1328 C 0.33195 0.67185 0.40375 0.0
C1329 C 0.30962 0.66396 0.4419 0.0
H1330 H 0.3468 0.71359 0.35812 0.0
C1331 C 0.28334 0.695 0.46203 0.0
H1332 H 0.35227 0.64923 0.38662 0.0
C1333 C 0.28003 0.73228 0.44513 0.0
C1334 C 0.30246 0.74 0.40714 0.0
H1335 H 0.2658 0.69059 0.49154 0.0
H1336 H 0.25995 0.75523 0.4621 0.0
C1337 C 0.32856 0.70909 0.38688 0.0
C1338 C 0.42918 0.27185 0.47173 0.0
C1339 C 0.44818 0.29747 0.46546 0.0
H1340 H 0.3892 0.25436 0.45168 0.0
C1341 C 0.43954 0.32646 0.43106 0.0
H1342 H 0.4347 0.24903 0.49761 0.0
C1343 C 0.41315 0.32921 0.40383 0.0
C1344 C 0.3942 0.30342 0.41053 0.0
H1345 H 0.45354 0.34662 0.42468 0.0
H1346 H 0.40714 0.35199 0.37795 0.0
C1347 C 0.40276 0.27488 0.44517 0.0
C1348 C 0.64947 0.83211 0.74688 0.0
C1349 C 0.65081 0.83874 0.70079 0.0
H1350 H 0.67454 0.82931 0.80382 0.0
C1351 C 0.67918 0.85023 0.67709 0.0
H1352 H 0.62812 0.82316 0.76634 0.0
C1353 C 0.70634 0.85316 0.69864 0.0
C1354 C 0.70564 0.84544 0.74468 0.0
H1355 H 0.68146 0.85516 0.64158 0.0
H1356 H 0.72856 0.86027 0.67882 0.0
C1357 C 0.67623 0.83569 0.76849 0.0
C1358 C 0.66579 0.30555 0.41074 0.0
C1359 C 0.66329 0.28021 0.44804 0.0
H1360 H 0.69917 0.33285 0.36702 0.0
C1361 C 0.69463 0.26162 0.46874 0.0
H1362 H 0.64205 0.3206 0.39428 0.0
C1363 C 0.72777 0.26737 0.45192 0.0
C1364 C 0.73061 0.29217 0.41409 0.0
H1365 H 0.69362 0.24203 0.49749 0.0
H1366 H 0.75143 0.25214 0.4685 0.0
C1367 C 0.69871 0.31217 0.39471 0.0
C1368 C 0.91623 0.65107 0.42996 0.0
C1369 C 0.88672 0.64107 0.45295 0.0
H1370 H 0.93549 0.68193 0.37385 0.0
C1371 C 0.85651 0.64792 0.43079 0.0
H1372 H 0.9403 0.64557 0.44534 0.0
C1373 C 0.85429 0.66799 0.38889 0.0
C1374 C 0.88202 0.68187 0.36858 0.0
H1375 H 0.8332 0.64078 0.44724 0.0
H1376 H 0.82912 0.6763 0.37483 0.0
C1377 C 0.91381 0.67135 0.38849 0.0
C1378 C 0.51421 0.833 0.49048 0.0
C1379 C 0.52078 0.8538 0.51974 0.0
H1380 H 0.47585 0.81634 0.46713 0.0
C1381 C 0.49095 0.88071 0.54151 0.0
H1382 H 0.53649 0.81223 0.47272 0.0
C1383 C 0.45532 0.88425 0.53696 0.0
C1384 C 0.44877 0.86031 0.5114 0.0
H1385 H 0.49504 0.89744 0.56403 0.0
H1386 H 0.43306 0.90466 0.55511 0.0
C1387 C 0.4789 0.83571 0.48691 0.0
C1388 C 0.30317 0.41647 0.46 0.0
C1389 C 0.28231 0.45502 0.4586 0.0
H1390 H 0.31782 0.36456 0.43216 0.0
C1391 C 0.25722 0.46966 0.42791 0.0
H1392 H 0.32254 0.40388 0.48336 0.0
C1393 C 0.25456 0.4466 0.39804 0.0
C1394 C 0.27646 0.40831 0.39866 0.0
H1395 H 0.24067 0.49916 0.42583 0.0
H1396 H 0.23606 0.45895 0.37368 0.0
C1397 C 0.30033 0.39361 0.43057 0.0
C1398 C 0.46949 0.24234 0.73607 0.0
C1399 C 0.45865 0.26326 0.6963 0.0
H1400 H 0.4549 0.23055 0.80544 0.0
C1401 C 0.42275 0.28896 0.6976 0.0
H1402 H 0.49694 0.22266 0.73685 0.0
C1403 C 0.39843 0.29306 0.73707 0.0
C1404 C 0.40917 0.27178 0.77668 0.0
H1405 H 0.41319 0.30546 0.66787 0.0
H1406 H 0.37112 0.31281 0.7363 0.0
C1407 C 0.44536 0.24697 0.77562 0.0
C1408 C 0.83359 0.46137 0.73264 0.0
C1409 C 0.86266 0.46152 0.69941 0.0
H1410 H 0.80501 0.42837 0.77507 0.0
C1411 C 0.885 0.42716 0.68299 0.0
H1412 H 0.81576 0.48734 0.74584 0.0
C1413 C 0.87859 0.39365 0.6993 0.0
C1414 C 0.85055 0.39319 0.73366 0.0
H1415 H 0.9071 0.42627 0.65681 0.0
H1416 H 0.89598 0.36782 0.68538 0.0
C1417 C 0.82765 0.42757 0.74966 0.0
C1418 C 0.26359 0.61542 0.64057 0.0
C1419 C 0.23858 0.61834 0.61211 0.0
H1420 H 0.29418 0.64213 0.66489 0.0
C1421 C 0.22154 0.65342 0.59013 0.0
H1422 H 0.27765 0.58859 0.65751 0.0
C1423 C 0.23017 0.68473 0.59546 0.0
C1424 C 0.25702 0.68143 0.62174 0.0
H1425 H 0.20211 0.65645 0.56808 0.0
H1426 H 0.21631 0.71131 0.57798 0.0
C1427 C 0.27299 0.6464 0.64496 0.0
loop_
_geom_bond_atom_site_label_1
_geom_bond_atom_site_label_2
_geom_bond_distance
_geom_bond_site_symmetry_2
_ccdc_geom_bond_type
Cu0 N1 1.999 . S
Cu0 O6 1.974 . S
Cu0 N11 1.985 . S
Cu0 O20 1.959 1_455 S
N1 Cu0 1.999 . S
N1 C3 1.263 . S
N1 C5 1.389 . S
N2 C3 1.358 . S
N2 C4 1.400 . S
C3 N1 1.263 . S
C3 N2 1.358 . S
C3 H9 0.930 . S
C4 N2 1.400 . S
C4 C5 1.351 . S
C4 H21 0.930 . S
C5 N1 1.389 . S
C5 C4 1.351 . S
C5 H10 0.930 . S
O6 Cu0 1.974 . S
O6 C16 1.282 1_545 S
C7 O8 1.254 1_655 S
C7 O20 1.251 . S
O8 C7 1.254 1_455 S
H9 C3 0.930 . S
H10 C5 0.930 . S
N11 Cu0 1.985 . S
N11 C13 1.335 1_455 S
N11 C14 1.390 1_545 S
N12 C13 1.345 1_565 S
N12 C15 1.336 1_655 S
C13 N11 1.335 1_655 S
C13 N12 1.345 1_545 S
C13 H18 0.930 . S
C14 N11 1.390 1_565 S
C14 C15 1.346 . S
C14 H19 0.930 . S
C15 N12 1.336 1_455 S
C15 C14 1.346 . S
C15 H22 0.929 . S
C16 O6 1.282 1_565 S
C16 O17 1.216 1_565 S
O17 C16 1.216 1_545 S
H18 C13 0.930 . S
H19 C14 0.930 . S
O20 Cu0 1.959 1_655 S
O20 C7 1.251 . S
H21 C4 0.930 . S
H22 C15 0.929 . S
Cu23 N24 1.999 . S
Cu23 O29 1.974 1_455 S
Cu23 N34 1.985 . S
Cu23 O43 1.959 . S
N24 Cu23 1.999 . S
N24 C26 1.263 1_455 S
N24 C28 1.389 1_545 S
N25 C26 1.358 . S
N25 C27 1.400 1_545 S
C26 N24 1.263 1_655 S
C26 N25 1.358 . S
C26 H32 0.930 . S
C27 N25 1.400 1_565 S
C27 C28 1.351 1_655 S
C27 H44 0.930 . S
C28 N24 1.389 1_565 S
C28 C27 1.351 1_455 S
C28 H33 0.930 . S
O29 Cu23 1.974 1_655 S
O29 C39 1.282 . S
C30 O31 1.261 . S
C30 O43 1.251 . S
O31 C30 1.261 . S
H32 C26 0.930 . S
H33 C28 0.930 . S
N34 Cu23 1.985 . S
N34 C36 1.335 . S
N34 C37 1.390 . S
N35 C36 1.345 . S
N35 C38 1.336 . S
C36 N34 1.335 . S
C36 N35 1.345 . S
C36 H41 0.930 . S
C37 N34 1.390 . S
C37 C38 1.346 . S
C37 H42 0.930 . S
C38 N35 1.336 . S
C38 C37 1.346 . S
C38 H45 0.929 . S
C39 O29 1.282 . S
C39 O40 1.216 . S
O40 C39 1.216 . S
H41 C36 0.930 . S
H42 C37 0.930 . S
O43 Cu23 1.959 . S
O43 C30 1.251 . S
H44 C27 0.930 . S
H45 C38 0.929 . S
Cu46 N47 1.999 . S
Cu46 O52 1.974 . S
Cu46 N57 1.985 . S
Cu46 O66 1.959 . S
N47 Cu46 1.999 . S
N47 C49 1.263 . S
N47 C51 1.389 . S
N48 C49 1.358 . S
N48 C50 1.400 . S
C49 N47 1.263 . S
C49 N48 1.358 . S
C49 H55 0.930 . S
C50 N48 1.400 . S
C50 C51 1.351 . S
C50 H67 0.930 1_554 S
C51 N47 1.389 . S
C51 C50 1.351 . S
C51 H56 0.930 . S
O52 Cu46 1.974 . S
O52 C62 1.282 . S
C53 O54 1.261 . S
C53 O66 1.251 . S
O54 C53 1.261 . S
H55 C49 0.930 . S
H56 C51 0.930 . S
N57 Cu46 1.985 . S
N57 C59 1.335 . S
N57 C60 1.390 . S
N58 C59 1.345 . S
N58 C61 1.336 . S
C59 N57 1.335 . S
C59 N58 1.345 . S
C59 H64 0.930 . S
C60 N57 1.390 . S
C60 C61 1.346 . S
C60 H65 0.930 . S
C61 N58 1.336 . S
C61 C60 1.346 . S
C61 H68 0.929 . S
C62 O52 1.282 . S
C62 O63 1.216 . S
O63 C62 1.216 . S
H64 C59 0.930 . S
H65 C60 0.930 . S
O66 Cu46 1.959 . S
O66 C53 1.251 . S
H67 C50 0.930 1_556 S
H68 C61 0.929 . S
Cu69 N70 1.999 . S
Cu69 O75 1.974 . S
Cu69 N80 1.985 . S
Cu69 O89 1.959 . S
N70 Cu69 1.999 . S
N70 C72 1.263 . S
N70 C74 1.389 . S
N71 C72 1.358 . S
N71 C73 1.400 1_554 S
C72 N70 1.263 . S
C72 N71 1.358 . S
C72 H78 0.930 . S
C73 N71 1.400 1_556 S
C73 C74 1.351 1_556 S
C73 H90 0.930 . S
C74 N70 1.389 . S
C74 C73 1.351 1_554 S
C74 H79 0.930 1_554 S
O75 Cu69 1.974 . S
O75 C85 1.282 . S
C76 O77 1.261 . S
C76 O89 1.251 . S
O77 C76 1.261 . S
H78 C72 0.930 . S
H79 C74 0.930 1_556 S
N80 Cu69 1.985 . S
N80 C82 1.335 . S
N80 C83 1.390 . S
N81 C82 1.345 1_655 S
N81 C84 1.336 1_655 S
C82 N80 1.335 . S
C82 N81 1.345 1_455 S
C82 H87 0.930 1_455 S
C83 N80 1.390 . S
C83 C84 1.346 . S
C83 H88 0.930 . S
C84 N81 1.336 1_455 S
C84 C83 1.346 . S
C84 H91 0.929 . S
C85 O75 1.282 . S
C85 O86 1.216 . S
O86 C85 1.216 . S
H87 C82 0.930 1_655 S
H88 C83 0.930 . S
O89 Cu69 1.959 . S
O89 C76 1.251 . S
H90 C73 0.930 . S
H91 C84 0.929 . S
Cu92 N93 1.999 1_554 S
Cu92 O98 1.974 . S
Cu92 N103 1.985 1_545 S
Cu92 O112 1.959 1_544 S
N93 Cu92 1.999 1_556 S
N93 C95 1.263 . S
N93 C97 1.389 . S
N94 C95 1.358 . S
N94 C96 1.400 . S
C95 N93 1.263 . S
C95 N94 1.358 . S
C95 H101 0.930 . S
C96 N94 1.400 . S
C96 C97 1.351 . S
C96 H113 0.930 . S
C97 N93 1.389 . S
C97 C96 1.351 . S
C97 H102 0.930 . S
O98 Cu92 1.974 . S
O98 C108 1.282 . S
C99 O100 1.261 . S
C99 O112 1.251 . S
O100 C99 1.261 . S
H101 C95 0.930 . S
H102 C97 0.930 . S
N103 Cu92 1.985 1_565 S
N103 C105 1.335 . S
N103 C106 1.390 . S
N104 C105 1.345 . S
N104 C107 1.336 . S
C105 N103 1.335 . S
C105 N104 1.345 . S
C105 H110 0.930 . S
C106 N103 1.390 . S
C106 C107 1.346 . S
C106 H111 0.930 . S
C107 N104 1.336 . S
C107 C106 1.346 . S
C107 H114 0.929 . S
C108 O98 1.282 . S
C108 O109 1.216 . S
O109 C108 1.216 . S
H110 C105 0.930 . S
H111 C106 0.930 . S
O112 Cu92 1.959 1_566 S
O112 C99 1.251 . S
H113 C96 0.930 . S
H114 C107 0.929 . S
Cu115 N116 1.999 1_454 S
Cu115 O121 1.974 1_455 S
Cu115 N126 1.985 . S
Cu115 O135 1.959 1_554 S
N116 Cu115 1.999 1_656 S
N116 C118 1.263 . S
N116 C120 1.389 . S
N117 C118 1.358 . S
N117 C119 1.400 . S
C118 N116 1.263 . S
C118 N117 1.358 . S
C118 H124 0.930 . S
C119 N117 1.400 . S
C119 C120 1.351 . S
C119 H136 0.930 . S
C120 N116 1.389 . S
C120 C119 1.351 . S
C120 H125 0.930 1_655 S
O121 Cu115 1.974 1_655 S
O121 C131 1.282 . S
C122 O123 1.261 . S
C122 O135 1.251 . S
O123 C122 1.261 . S
H124 C118 0.930 . S
H125 C120 0.930 1_455 S
N126 Cu115 1.985 . S
N126 C128 1.335 . S
N126 C129 1.390 . S
N127 C128 1.345 . S
N127 C130 1.336 . S
C128 N126 1.335 . S
C128 N127 1.345 . S
C128 H133 0.930 . S
C129 N126 1.390 . S
C129 C130 1.346 . S
C129 H134 0.930 1_455 S
C130 N127 1.336 . S
C130 C129 1.346 . S
C130 H137 0.929 . S
C131 O121 1.282 . S
C131 O132 1.216 . S
O132 C131 1.216 . S
H133 C128 0.930 . S
H134 C129 0.930 1_655 S
O135 Cu115 1.959 1_556 S
O135 C122 1.251 . S
H136 C119 0.930 . S
H137 C130 0.929 . S
Cu138 N139 1.999 . S
Cu138 O144 1.974 . S
Cu138 N149 1.985 . S
Cu138 O158 1.959 . S
N139 Cu138 1.999 . S
N139 C141 1.263 . S
N139 C143 1.389 . S
N140 C141 1.358 . S
N140 C142 1.400 . S
C141 N139 1.263 . S
C141 N140 1.358 . S
C141 H147 0.930 . S
C142 N140 1.400 . S
C142 C143 1.351 . S
C142 H159 0.930 . S
C143 N139 1.389 . S
C143 C142 1.351 . S
C143 H148 0.930 . S
O144 Cu138 1.974 . S
O144 C154 1.282 . S
C145 O146 1.261 . S
C145 O158 1.251 . S
O146 C145 1.261 . S
H147 C141 0.930 . S
H148 C143 0.930 . S
N149 Cu138 1.985 . S
N149 C151 1.335 . S
N149 C152 1.390 . S
N150 C151 1.345 . S
N150 C153 1.336 . S
C151 N149 1.335 . S
C151 N150 1.345 . S
C151 H156 0.930 . S
C152 N149 1.390 . S
C152 C153 1.346 . S
C152 H157 0.930 . S
C153 N150 1.336 . S
C153 C152 1.346 . S
C153 H160 0.929 . S
C154 O144 1.282 . S
C154 O155 1.216 . S
O155 C154 1.216 . S
H156 C151 0.930 . S
H157 C152 0.930 . S
O158 Cu138 1.959 . S
O158 C145 1.251 . S
H159 C142 0.930 . S
H160 C153 0.929 . S
Cu161 N162 1.999 . S
Cu161 O167 1.974 . S
Cu161 N172 1.985 . S
Cu161 O181 1.959 . S
N162 Cu161 1.999 . S
N162 C164 1.263 . S
N162 C166 1.389 . S
N163 C164 1.358 . S
N163 C165 1.400 . S
C164 N162 1.263 . S
C164 N163 1.358 . S
C164 H170 0.930 . S
C165 N163 1.400 . S
C165 C166 1.351 . S
C165 H182 0.930 . S
C166 N162 1.389 . S
C166 C165 1.351 . S
C166 H171 0.930 . S
O167 Cu161 1.974 . S
O167 C177 1.282 . S
C168 O169 1.261 . S
C168 O181 1.251 . S
O169 C168 1.261 . S
H170 C164 0.930 . S
H171 C166 0.930 . S
N172 Cu161 1.985 . S
N172 C174 1.335 . S
N172 C175 1.390 . S
N173 C174 1.345 . S
N173 C176 1.336 . S
C174 N172 1.335 . S
C174 N173 1.345 . S
C174 H179 0.930 . S
C175 N172 1.390 . S
C175 C176 1.346 . S
C175 H180 0.930 . S
C176 N173 1.336 . S
C176 C175 1.346 . S
C176 H183 0.929 . S
C177 O167 1.282 . S
C177 O178 1.216 . S
O178 C177 1.216 . S
H179 C174 0.930 . S
H180 C175 0.930 . S
O181 Cu161 1.959 . S
O181 C168 1.251 . S
H182 C165 0.930 . S
H183 C176 0.929 . S
Cu184 N185 1.999 . S
Cu184 O190 1.974 . S
Cu184 N195 1.985 . S
Cu184 O204 1.959 . S
N185 Cu184 1.999 . S
N185 C187 1.263 . S
N185 C189 1.389 . S
N186 C187 1.358 . S
N186 C188 1.400 . S
C187 N185 1.263 . S
C187 N186 1.358 . S
C187 H193 0.930 . S
C188 N186 1.400 . S
C188 C189 1.351 . S
C188 H205 0.930 . S
C189 N185 1.389 . S
C189 C188 1.351 . S
C189 H194 0.930 . S
O190 Cu184 1.974 . S
O190 C200 1.282 . S
C191 O192 1.261 . S
C191 O204 1.251 . S
O192 C191 1.261 . S
H193 C187 0.930 . S
H194 C189 0.930 . S
N195 Cu184 1.985 . S
N195 C197 1.335 . S
N195 C198 1.390 . S
N196 C197 1.345 . S
N196 C199 1.336 . S
C197 N195 1.335 . S
C197 N196 1.345 . S
C197 H202 0.930 . S
C198 N195 1.390 . S
C198 C199 1.346 . S
C198 H203 0.930 . S
C199 N196 1.336 . S
C199 C198 1.346 . S
C199 H206 0.929 . S
C200 O190 1.282 . S
C200 O201 1.216 . S
O201 C200 1.216 . S
H202 C197 0.930 . S
H203 C198 0.930 . S
O204 Cu184 1.959 . S
O204 C191 1.251 . S
H205 C188 0.930 . S
H206 C199 0.929 . S
Cu207 N208 1.999 . S
Cu207 O213 1.974 . S
Cu207 N218 1.985 . S
Cu207 O227 1.959 . S
N208 Cu207 1.999 . S
N208 C210 1.263 . S
N208 C212 1.389 . S
N209 C210 1.358 . S
N209 C211 1.400 . S
C210 N208 1.263 . S
C210 N209 1.358 . S
C210 H216 0.930 . S
C211 N209 1.400 . S
C211 C212 1.351 . S
C211 H228 0.930 . S
C212 N208 1.389 . S
C212 C211 1.351 . S
C212 H217 0.930 . S
O213 Cu207 1.974 . S
O213 C223 1.282 . S
C214 O215 1.261 . S
C214 O227 1.251 . S
O215 C214 1.261 . S
H216 C210 0.930 . S
H217 C212 0.930 . S
N218 Cu207 1.985 . S
N218 C220 1.335 . S
N218 C221 1.390 . S
N219 C220 1.345 . S
N219 C222 1.336 . S
C220 N218 1.335 . S
C220 N219 1.345 . S
C220 H225 0.930 . S
C221 N218 1.390 . S
C221 C222 1.346 . S
C221 H226 0.930 . S
C222 N219 1.336 . S
C222 C221 1.346 . S
C222 H229 0.929 . S
C223 O213 1.282 . S
C223 O224 1.216 . S
O224 C223 1.216 . S
H225 C220 0.930 . S
H226 C221 0.930 . S
O227 Cu207 1.959 . S
O227 C214 1.251 . S
H228 C211 0.930 . S
H229 C222 0.929 . S
Cu230 N231 1.999 . S
Cu230 O236 1.974 . S
Cu230 N241 1.985 . S
Cu230 O250 1.959 . S
N231 Cu230 1.999 . S
N231 C233 1.263 . S
N231 C235 1.389 . S
N232 C233 1.358 . S
N232 C234 1.400 . S
C233 N231 1.263 . S
C233 N232 1.358 . S
C233 H239 0.930 . S
C234 N232 1.400 . S
C234 C235 1.351 . S
C234 H251 0.930 . S
C235 N231 1.389 . S
C235 C234 1.351 . S
C235 H240 0.930 . S
O236 Cu230 1.974 . S
O236 C246 1.282 . S
C237 O238 1.261 . S
C237 O250 1.251 . S
O238 C237 1.261 . S
H239 C233 0.930 . S
H240 C235 0.930 . S
N241 Cu230 1.985 . S
N241 C243 1.335 . S
N241 C244 1.390 . S
N242 C243 1.345 . S
N242 C245 1.336 . S
C243 N241 1.335 . S
C243 N242 1.345 . S
C243 H248 0.930 . S
C244 N241 1.390 . S
C244 C245 1.346 . S
C244 H249 0.930 . S
C245 N242 1.336 . S
C245 C244 1.346 . S
C245 H252 0.929 . S
C246 O236 1.282 . S
C246 O247 1.216 . S
O247 C246 1.216 . S
H248 C243 0.930 . S
H249 C244 0.930 . S
O250 Cu230 1.959 . S
O250 C237 1.251 . S
H251 C234 0.930 . S
H252 C245 0.929 . S
Cu253 N254 1.999 . S
Cu253 O259 1.974 . S
Cu253 N264 1.985 . S
Cu253 O273 1.959 . S
N254 Cu253 1.999 . S
N254 C256 1.263 . S
N254 C258 1.389 . S
N255 C256 1.358 . S
N255 C257 1.400 . S
C256 N254 1.263 . S
C256 N255 1.358 . S
C256 H262 0.930 . S
C257 N255 1.400 . S
C257 C258 1.351 . S
C257 H274 0.930 . S
C258 N254 1.389 . S
C258 C257 1.351 . S
C258 H263 0.930 . S
O259 Cu253 1.974 . S
O259 C269 1.282 . S
C260 O261 1.261 . S
C260 O273 1.251 . S
O261 C260 1.261 . S
H262 C256 0.930 . S
H263 C258 0.930 . S
N264 Cu253 1.985 . S
N264 C266 1.335 . S
N264 C267 1.390 . S
N265 C266 1.345 . S
N265 C268 1.336 . S
C266 N264 1.335 . S
C266 N265 1.345 . S
C266 H271 0.930 . S
C267 N264 1.390 . S
C267 C268 1.346 . S
C267 H272 0.930 . S
C268 N265 1.336 . S
C268 C267 1.346 . S
C268 H275 0.929 . S
C269 O259 1.282 . S
C269 O270 1.216 . S
O270 C269 1.216 . S
H271 C266 0.930 . S
H272 C267 0.930 . S
O273 Cu253 1.959 . S
O273 C260 1.251 . S
H274 C257 0.930 . S
H275 C268 0.929 . S
Gd276 N307 2.661 . S
Gd276 N313 2.601 . S
Gd276 O320 2.545 . S
Gd276 O321 2.606 . S
Gd276 O323 2.429 . S
Gd276 O324 2.545 . S
Gd276 O325 2.412 . S
Gd276 O327 2.362 . S
Gd276 O328 2.324 . S
Gd276 C335 2.828 . S
Gd277 N286 2.661 . S
Gd277 N290 2.601 . S
Gd277 O321 2.362 . S
Gd277 O322 2.324 . S
Gd277 O326 2.545 . S
Gd277 O327 2.606 . S
Gd277 O329 2.429 . S
Gd277 O330 2.545 . S
Gd277 O331 2.412 . S
Gd277 C344 2.828 . S
C278 C281 1.417 . S
C278 C283 1.431 . S
C278 C284 1.412 . S
C279 C282 1.437 . S
C279 C283 1.317 . S
C279 H298 0.929 . S
C280 C281 1.426 . S
C280 C282 1.413 . S
C280 N290 1.359 . S
C281 C278 1.417 . S
C281 C280 1.426 . S
C281 N286 1.350 . S
C282 C279 1.437 . S
C282 C280 1.413 . S
C282 C292 1.391 . S
C283 C278 1.431 . S
C283 C279 1.317 . S
C283 H294 0.930 . S
C284 C278 1.412 . S
C284 C285 1.355 . S
C284 H296 0.930 . S
C285 C284 1.355 . S
C285 C287 1.402 . S
C285 H297 0.930 . S
N286 Gd277 2.661 . S
N286 C281 1.350 . S
N286 C287 1.307 . S
C287 C285 1.402 . S
C287 N286 1.307 . S
C287 H288 0.930 . S
H288 C287 0.930 . S
C289 N290 1.334 . S
C289 C291 1.394 . S
C289 H293 0.930 . S
N290 Gd277 2.601 . S
N290 C280 1.359 . S
N290 C289 1.334 . S
C291 C289 1.394 . S
C291 C292 1.359 . S
C291 H303 0.930 . S
C292 C282 1.391 . S
C292 C291 1.359 . S
C292 H304 0.929 . S
H293 C289 0.930 . S
H294 C283 0.930 . S
H295 C312 0.930 . S
H296 C284 0.930 . S
H297 C285 0.930 . S
H298 C279 0.929 . S
H299 C317 0.930 . S
H300 C308 0.930 . S
H301 C309 0.930 . S
H302 C333 0.929 . S
H303 C291 0.930 . S
H304 C292 0.929 . S
H305 C334 0.930 . S
H306 C315 0.930 . S
N307 Gd276 2.661 . S
N307 C311 1.350 . S
N307 C312 1.307 . S
C308 H300 0.930 . S
C308 C309 1.355 . S
C308 C310 1.412 . S
C309 H301 0.930 . S
C309 C308 1.355 . S
C309 C312 1.402 . S
C310 C308 1.412 . S
C310 C311 1.417 . S
C310 C334 1.431 . S
C311 N307 1.350 . S
C311 C310 1.417 . S
C311 C314 1.426 . S
C312 H295 0.930 . S
C312 N307 1.307 . S
C312 C309 1.402 . S
N313 Gd276 2.601 . S
N313 C314 1.359 . S
N313 C317 1.334 . S
C314 C311 1.426 . S
C314 N313 1.359 . S
C314 C318 1.413 . S
C315 H306 0.930 . S
C315 C316 1.359 . S
C315 C317 1.394 . S
C316 C315 1.359 . S
C316 C318 1.391 . S
C316 H319 0.929 . S
C317 H299 0.930 . S
C317 N313 1.334 . S
C317 C315 1.394 . S
C318 C314 1.413 . S
C318 C316 1.391 . S
C318 C333 1.437 . S
H319 C316 0.929 . S
O320 Gd276 2.545 . S
O320 C335 1.258 . S
O321 Gd276 2.606 . S
O321 Gd277 2.362 . S
O321 C332 1.284 . S
O322 Gd277 2.324 . S
O322 C342 1.254 . S
O323 Gd276 2.429 . S
O323 C342 1.268 . S
O324 Gd276 2.545 . S
O324 C332 1.250 . S
O325 Gd276 2.412 . S
O325 C335 1.252 . S
O326 Gd277 2.545 . S
O326 C344 1.258 . S
O327 Gd276 2.362 . S
O327 Gd277 2.606 . S
O327 C343 1.284 . S
O328 Gd276 2.324 . S
O328 C351 1.254 . S
O329 Gd277 2.429 . S
O329 C351 1.268 . S
O330 Gd277 2.545 . S
O330 C343 1.250 . S
O331 Gd277 2.412 . S
O331 C344 1.252 . S
C332 O321 1.284 . S
C332 O324 1.250 . S
C333 H302 0.929 . S
C333 C318 1.437 . S
C333 C334 1.317 . S
C334 H305 0.930 . S
C334 C310 1.431 . S
C334 C333 1.317 . S
C335 Gd276 2.828 . S
C335 O320 1.258 . S
C335 O325 1.252 . S
C335 C336 1.497 . S
C336 C335 1.497 . S
C336 C337 1.395 . S
C336 C338 1.380 . S
C337 C336 1.395 . S
C337 C340 1.398 . S
C337 H352 0.930 . S
C338 C336 1.380 . S
C338 C339 1.391 . S
C338 H353 0.930 . S
C339 C338 1.391 . S
C339 C341 1.387 . S
C340 C337 1.398 . S
C340 C341 1.380 . S
C340 H354 0.930 . S
C341 C339 1.387 . S
C341 C340 1.380 . S
C341 H355 0.930 . S
C342 O322 1.254 . S
C342 O323 1.268 . S
C343 O327 1.284 . S
C343 O330 1.250 . S
C344 Gd277 2.828 . S
C344 O326 1.258 . S
C344 O331 1.252 . S
C344 C345 1.497 . S
C345 C344 1.497 . S
C345 C346 1.395 . S
C345 C347 1.380 . S
C346 C345 1.395 . S
C346 C349 1.398 . S
C346 H356 0.930 . S
C347 C345 1.380 . S
C347 C348 1.391 . S
C347 H357 0.930 . S
C348 C347 1.391 . S
C348 C350 1.387 . S
C349 C346 1.398 . S
C349 C350 1.380 . S
C349 H358 0.930 . S
C350 C348 1.387 . S
C350 C349 1.380 . S
C350 H359 0.930 . S
C351 O328 1.254 . S
C351 O329 1.268 . S
H352 C337 0.930 . S
H353 C338 0.930 . S
H354 C340 0.930 . S
H355 C341 0.930 . S
H356 C346 0.930 . S
H357 C347 0.930 . S
H358 C349 0.930 . S
H359 C350 0.930 . S
Gd360 N391 2.661 . S
Gd360 N397 2.601 . S
Gd360 O404 2.545 . S
Gd360 O405 2.606 . S
Gd360 O407 2.429 . S
Gd360 O408 2.545 . S
Gd360 O409 2.412 . S
Gd360 O411 2.362 . S
Gd360 O412 2.324 . S
Gd360 C419 2.828 . S
Gd361 N370 2.661 . S
Gd361 N374 2.601 . S
Gd361 O405 2.362 . S
Gd361 O406 2.324 . S
Gd361 O410 2.545 . S
Gd361 O411 2.606 . S
Gd361 O413 2.429 . S
Gd361 O414 2.545 . S
Gd361 O415 2.412 . S
Gd361 C428 2.828 . S
C362 C365 1.417 . S
C362 C367 1.431 . S
C362 C368 1.412 . S
C363 C366 1.437 . S
C363 C367 1.317 . S
C363 H382 0.929 . S
C364 C365 1.426 . S
C364 C366 1.413 . S
C364 N374 1.359 . S
C365 C362 1.417 . S
C365 C364 1.426 . S
C365 N370 1.350 . S
C366 C363 1.437 . S
C366 C364 1.413 . S
C366 C376 1.391 . S
C367 C362 1.431 . S
C367 C363 1.317 . S
C367 H378 0.930 . S
C368 C362 1.412 . S
C368 C369 1.355 . S
C368 H380 0.930 . S
C369 C368 1.355 . S
C369 C371 1.402 . S
C369 H381 0.930 . S
N370 Gd361 2.661 . S
N370 C365 1.350 . S
N370 C371 1.307 . S
C371 C369 1.402 . S
C371 N370 1.307 . S
C371 H372 0.930 . S
H372 C371 0.930 . S
C373 N374 1.334 . S
C373 C375 1.394 . S
C373 H377 0.930 . S
N374 Gd361 2.601 . S
N374 C364 1.359 . S
N374 C373 1.334 . S
C375 C373 1.394 . S
C375 C376 1.359 . S
C375 H387 0.930 . S
C376 C366 1.391 . S
C376 C375 1.359 . S
C376 H388 0.929 . S
H377 C373 0.930 . S
H378 C367 0.930 . S
H379 C396 0.930 . S
H380 C368 0.930 . S
H381 C369 0.930 . S
H382 C363 0.929 . S
H383 C401 0.930 . S
H384 C392 0.930 . S
H385 C393 0.930 . S
H386 C417 0.929 . S
H387 C375 0.930 . S
H388 C376 0.929 . S
H389 C418 0.930 . S
H390 C399 0.930 . S
N391 Gd360 2.661 . S
N391 C395 1.350 . S
N391 C396 1.307 . S
C392 H384 0.930 . S
C392 C393 1.355 . S
C392 C394 1.412 . S
C393 H385 0.930 . S
C393 C392 1.355 . S
C393 C396 1.402 . S
C394 C392 1.412 . S
C394 C395 1.417 . S
C394 C418 1.431 . S
C395 N391 1.350 . S
C395 C394 1.417 . S
C395 C398 1.426 . S
C396 H379 0.930 . S
C396 N391 1.307 . S
C396 C393 1.402 . S
N397 Gd360 2.601 . S
N397 C398 1.359 . S
N397 C401 1.334 . S
C398 C395 1.426 . S
C398 N397 1.359 . S
C398 C402 1.413 . S
C399 H390 0.930 . S
C399 C400 1.359 . S
C399 C401 1.394 . S
C400 C399 1.359 . S
C400 C402 1.391 . S
C400 H403 0.929 . S
C401 H383 0.930 . S
C401 N397 1.334 . S
C401 C399 1.394 . S
C402 C398 1.413 . S
C402 C400 1.391 . S
C402 C417 1.437 . S
H403 C400 0.929 . S
O404 Gd360 2.545 . S
O404 C419 1.258 . S
O405 Gd360 2.606 . S
O405 Gd361 2.362 . S
O405 C416 1.284 . S
O406 Gd361 2.324 . S
O406 C426 1.254 . S
O407 Gd360 2.429 . S
O407 C426 1.268 . S
O408 Gd360 2.545 . S
O408 C416 1.250 . S
O409 Gd360 2.412 . S
O409 C419 1.252 . S
O410 Gd361 2.545 . S
O410 C428 1.258 . S
O411 Gd360 2.362 . S
O411 Gd361 2.606 . S
O411 C427 1.284 . S
O412 Gd360 2.324 . S
O412 C435 1.254 . S
O413 Gd361 2.429 . S
O413 C435 1.268 . S
O414 Gd361 2.545 . S
O414 C427 1.250 . S
O415 Gd361 2.412 . S
O415 C428 1.252 . S
C416 O405 1.284 . S
C416 O408 1.250 . S
C417 H386 0.929 . S
C417 C402 1.437 . S
C417 C418 1.317 . S
C418 H389 0.930 . S
C418 C394 1.431 . S
C418 C417 1.317 . S
C419 Gd360 2.828 . S
C419 O404 1.258 . S
C419 O409 1.252 . S
C419 C420 1.497 . S
C420 C419 1.497 . S
C420 C421 1.395 . S
C420 C422 1.380 . S
C421 C420 1.395 . S
C421 C424 1.398 . S
C421 H436 0.930 . S
C422 C420 1.380 . S
C422 C423 1.391 . S
C422 H437 0.930 . S
C423 C422 1.391 . S
C423 C425 1.387 . S
C424 C421 1.398 . S
C424 C425 1.380 . S
C424 H438 0.930 . S
C425 C423 1.387 . S
C425 C424 1.380 . S
C425 H439 0.930 . S
C426 O406 1.254 . S
C426 O407 1.268 . S
C427 O411 1.284 . S
C427 O414 1.250 . S
C428 Gd361 2.828 . S
C428 O410 1.258 . S
C428 O415 1.252 . S
C428 C429 1.497 . S
C429 C428 1.497 . S
C429 C430 1.395 . S
C429 C431 1.380 . S
C430 C429 1.395 . S
C430 C433 1.398 . S
C430 H440 0.930 . S
C431 C429 1.380 . S
C431 C432 1.391 . S
C431 H441 0.930 . S
C432 C431 1.391 . S
C432 C434 1.387 . S
C433 C430 1.398 . S
C433 C434 1.380 . S
C433 H442 0.930 . S
C434 C432 1.387 . S
C434 C433 1.380 . S
C434 H443 0.930 . S
C435 O412 1.254 . S
C435 O413 1.268 . S
H436 C421 0.930 . S
H437 C422 0.930 . S
H438 C424 0.930 . S
H439 C425 0.930 . S
H440 C430 0.930 . S
H441 C431 0.930 . S
H442 C433 0.930 . S
H443 C434 0.930 . S
Gd444 N475 2.661 . S
Gd444 N481 2.601 . S
Gd444 O488 2.545 . S
Gd444 O489 2.606 . S
Gd444 O491 2.429 . S
Gd444 O492 2.545 . S
Gd444 O493 2.412 . S
Gd444 O495 2.362 . S
Gd444 O496 2.324 . S
Gd444 C503 2.828 . S
Gd445 N454 2.661 . S
Gd445 N458 2.601 . S
Gd445 O489 2.362 . S
Gd445 O490 2.324 . S
Gd445 O494 2.545 . S
Gd445 O495 2.606 . S
Gd445 O497 2.429 . S
Gd445 O498 2.545 . S
Gd445 O499 2.412 . S
Gd445 C512 2.828 . S
C446 C449 1.417 . S
C446 C451 1.431 . S
C446 C452 1.412 . S
C447 C450 1.437 . S
C447 C451 1.317 . S
C447 H466 0.929 . S
C448 C449 1.426 . S
C448 C450 1.413 . S
C448 N458 1.359 . S
C449 C446 1.417 . S
C449 C448 1.426 . S
C449 N454 1.350 . S
C450 C447 1.437 . S
C450 C448 1.413 . S
C450 C460 1.391 . S
C451 C446 1.431 . S
C451 C447 1.317 . S
C451 H462 0.930 . S
C452 C446 1.412 . S
C452 C453 1.355 . S
C452 H464 0.930 . S
C453 C452 1.355 . S
C453 C455 1.402 . S
C453 H465 0.930 . S
N454 Gd445 2.661 . S
N454 C449 1.350 . S
N454 C455 1.307 . S
C455 C453 1.402 . S
C455 N454 1.307 . S
C455 H456 0.930 . S
H456 C455 0.930 . S
C457 N458 1.334 . S
C457 C459 1.394 . S
C457 H461 0.930 . S
N458 Gd445 2.601 . S
N458 C448 1.359 . S
N458 C457 1.334 . S
C459 C457 1.394 . S
C459 C460 1.359 . S
C459 H471 0.930 . S
C460 C450 1.391 . S
C460 C459 1.359 . S
C460 H472 0.929 . S
H461 C457 0.930 . S
H462 C451 0.930 . S
H463 C480 0.930 . S
H464 C452 0.930 . S
H465 C453 0.930 . S
H466 C447 0.929 . S
H467 C485 0.930 . S
H468 C476 0.930 . S
H469 C477 0.930 . S
H470 C501 0.929 . S
H471 C459 0.930 . S
H472 C460 0.929 . S
H473 C502 0.930 . S
H474 C483 0.930 . S
N475 Gd444 2.661 . S
N475 C479 1.350 . S
N475 C480 1.307 . S
C476 H468 0.930 . S
C476 C477 1.355 . S
C476 C478 1.412 . S
C477 H469 0.930 . S
C477 C476 1.355 . S
C477 C480 1.402 . S
C478 C476 1.412 . S
C478 C479 1.417 . S
C478 C502 1.431 . S
C479 N475 1.350 . S
C479 C478 1.417 . S
C479 C482 1.426 . S
C480 H463 0.930 . S
C480 N475 1.307 . S
C480 C477 1.402 . S
N481 Gd444 2.601 . S
N481 C482 1.359 . S
N481 C485 1.334 . S
C482 C479 1.426 . S
C482 N481 1.359 . S
C482 C486 1.413 . S
C483 H474 0.930 . S
C483 C484 1.359 . S
C483 C485 1.394 . S
C484 C483 1.359 . S
C484 C486 1.391 . S
C484 H487 0.929 . S
C485 H467 0.930 . S
C485 N481 1.334 . S
C485 C483 1.394 . S
C486 C482 1.413 . S
C486 C484 1.391 . S
C486 C501 1.437 . S
H487 C484 0.929 . S
O488 Gd444 2.545 . S
O488 C503 1.258 . S
O489 Gd444 2.606 . S
O489 Gd445 2.362 . S
O489 C500 1.284 . S
O490 Gd445 2.324 . S
O490 C510 1.254 . S
O491 Gd444 2.429 . S
O491 C510 1.268 . S
O492 Gd444 2.545 . S
O492 C500 1.250 . S
O493 Gd444 2.412 . S
O493 C503 1.252 . S
O494 Gd445 2.545 . S
O494 C512 1.258 . S
O495 Gd444 2.362 . S
O495 Gd445 2.606 . S
O495 C511 1.284 . S
O496 Gd444 2.324 . S
O496 C519 1.254 . S
O497 Gd445 2.429 . S
O497 C519 1.268 . S
O498 Gd445 2.545 . S
O498 C511 1.250 . S
O499 Gd445 2.412 . S
O499 C512 1.252 . S
C500 O489 1.284 . S
C500 O492 1.250 . S
C501 H470 0.929 . S
C501 C486 1.437 . S
C501 C502 1.317 . S
C502 H473 0.930 . S
C502 C478 1.431 . S
C502 C501 1.317 . S
C503 Gd444 2.828 . S
C503 O488 1.258 . S
C503 O493 1.252 . S
C503 C504 1.497 . S
C504 C503 1.497 . S
C504 C505 1.395 . S
C504 C506 1.380 . S
C505 C504 1.395 . S
C505 C508 1.398 . S
C505 H520 0.930 . S
C506 C504 1.380 . S
C506 C507 1.391 . S
C506 H521 0.930 . S
C507 C506 1.391 . S
C507 C509 1.387 . S
C508 C505 1.398 . S
C508 C509 1.380 . S
C508 H522 0.930 . S
C509 C507 1.387 . S
C509 C508 1.380 . S
C509 H523 0.930 . S
C510 O490 1.254 . S
C510 O491 1.268 . S
C511 O495 1.284 . S
C511 O498 1.250 . S
C512 Gd445 2.828 . S
C512 O494 1.258 . S
C512 O499 1.252 . S
C512 C513 1.497 . S
C513 C512 1.497 . S
C513 C514 1.395 . S
C513 C515 1.380 . S
C514 C513 1.395 . S
C514 C517 1.398 . S
C514 H524 0.930 . S
C515 C513 1.380 . S
C515 C516 1.391 . S
C515 H525 0.930 . S
C516 C515 1.391 . S
C516 C518 1.387 . S
C517 C514 1.398 . S
C517 C518 1.380 . S
C517 H526 0.930 . S
C518 C516 1.387 . S
C518 C517 1.380 . S
C518 H527 0.930 . S
C519 O496 1.254 . S
C519 O497 1.268 . S
H520 C505 0.930 . S
H521 C506 0.930 . S
H522 C508 0.930 . S
H523 C509 0.930 . S
H524 C514 0.930 . S
H525 C515 0.930 . S
H526 C517 0.930 . S
H527 C518 0.930 . S
Gd528 N559 2.661 . S
Gd528 N565 2.601 . S
Gd528 O572 2.545 . S
Gd528 O573 2.606 . S
Gd528 O575 2.429 . S
Gd528 O576 2.545 . S
Gd528 O577 2.412 . S
Gd528 O579 2.362 . S
Gd528 O580 2.324 . S
Gd528 C587 2.828 . S
Gd529 N538 2.661 . S
Gd529 N542 2.601 . S
Gd529 O573 2.362 . S
Gd529 O574 2.324 . S
Gd529 O578 2.545 . S
Gd529 O579 2.606 . S
Gd529 O581 2.429 . S
Gd529 O582 2.545 . S
Gd529 O583 2.412 . S
Gd529 C596 2.828 . S
C530 C533 1.417 . S
C530 C535 1.431 . S
C530 C536 1.412 . S
C531 C534 1.437 . S
C531 C535 1.317 . S
C531 H550 0.929 . S
C532 C533 1.426 . S
C532 C534 1.413 . S
C532 N542 1.359 . S
C533 C530 1.417 . S
C533 C532 1.426 . S
C533 N538 1.350 . S
C534 C531 1.437 . S
C534 C532 1.413 . S
C534 C544 1.391 . S
C535 C530 1.431 . S
C535 C531 1.317 . S
C535 H546 0.930 . S
C536 C530 1.412 . S
C536 C537 1.355 . S
C536 H548 0.930 . S
C537 C536 1.355 . S
C537 C539 1.402 . S
C537 H549 0.930 . S
N538 Gd529 2.661 . S
N538 C533 1.350 . S
N538 C539 1.307 . S
C539 C537 1.402 . S
C539 N538 1.307 . S
C539 H540 0.930 . S
H540 C539 0.930 . S
C541 N542 1.334 . S
C541 C543 1.394 . S
C541 H545 0.930 . S
N542 Gd529 2.601 . S
N542 C532 1.359 . S
N542 C541 1.334 . S
C543 C541 1.394 . S
C543 C544 1.359 . S
C543 H555 0.930 . S
C544 C534 1.391 . S
C544 C543 1.359 . S
C544 H556 0.929 . S
H545 C541 0.930 . S
H546 C535 0.930 . S
H547 C564 0.930 . S
H548 C536 0.930 . S
H549 C537 0.930 . S
H550 C531 0.929 . S
H551 C569 0.930 . S
H552 C560 0.930 . S
H553 C561 0.930 . S
H554 C585 0.929 1_545 S
H555 C543 0.930 . S
H556 C544 0.929 . S
H557 C586 0.930 . S
H558 C567 0.930 . S
N559 Gd528 2.661 . S
N559 C563 1.350 . S
N559 C564 1.307 . S
C560 H552 0.930 . S
C560 C561 1.355 . S
C560 C562 1.412 . S
C561 H553 0.930 . S
C561 C560 1.355 . S
C561 C564 1.402 . S
C562 C560 1.412 . S
C562 C563 1.417 . S
C562 C586 1.431 . S
C563 N559 1.350 . S
C563 C562 1.417 . S
C563 C566 1.426 . S
C564 H547 0.930 . S
C564 N559 1.307 . S
C564 C561 1.402 . S
N565 Gd528 2.601 . S
N565 C566 1.359 . S
N565 C569 1.334 . S
C566 C563 1.426 . S
C566 N565 1.359 . S
C566 C570 1.413 . S
C567 H558 0.930 . S
C567 C568 1.359 . S
C567 C569 1.394 . S
C568 C567 1.359 . S
C568 C570 1.391 . S
C568 H571 0.929 . S
C569 H551 0.930 . S
C569 N565 1.334 . S
C569 C567 1.394 . S
C570 C566 1.413 . S
C570 C568 1.391 . S
C570 C585 1.437 . S
H571 C568 0.929 . S
O572 Gd528 2.545 . S
O572 C587 1.258 . S
O573 Gd528 2.606 . S
O573 Gd529 2.362 . S
O573 C584 1.284 . S
O574 Gd529 2.324 . S
O574 C594 1.254 . S
O575 Gd528 2.429 . S
O575 C594 1.268 . S
O576 Gd528 2.545 . S
O576 C584 1.250 . S
O577 Gd528 2.412 . S
O577 C587 1.252 . S
O578 Gd529 2.545 . S
O578 C596 1.258 . S
O579 Gd528 2.362 . S
O579 Gd529 2.606 . S
O579 C595 1.284 . S
O580 Gd528 2.324 . S
O580 C603 1.254 . S
O581 Gd529 2.429 . S
O581 C603 1.268 . S
O582 Gd529 2.545 . S
O582 C595 1.250 . S
O583 Gd529 2.412 . S
O583 C596 1.252 . S
C584 O573 1.284 . S
C584 O576 1.250 . S
C585 H554 0.929 1_565 S
C585 C570 1.437 . S
C585 C586 1.317 . S
C586 H557 0.930 . S
C586 C562 1.431 . S
C586 C585 1.317 . S
C587 Gd528 2.828 . S
C587 O572 1.258 . S
C587 O577 1.252 . S
C587 C588 1.497 . S
C588 C587 1.497 . S
C588 C589 1.395 . S
C588 C590 1.380 . S
C589 C588 1.395 . S
C589 C592 1.398 . S
C589 H604 0.930 . S
C590 C588 1.380 . S
C590 C591 1.391 . S
C590 H605 0.930 . S
C591 C590 1.391 . S
C591 C593 1.387 . S
C592 C589 1.398 . S
C592 C593 1.380 . S
C592 H606 0.930 . S
C593 C591 1.387 . S
C593 C592 1.380 . S
C593 H607 0.930 . S
C594 O574 1.254 . S
C594 O575 1.268 . S
C595 O579 1.284 . S
C595 O582 1.250 . S
C596 Gd529 2.828 . S
C596 O578 1.258 . S
C596 O583 1.252 . S
C596 C597 1.497 . S
C597 C596 1.497 . S
C597 C598 1.395 . S
C597 C599 1.380 . S
C598 C597 1.395 . S
C598 C601 1.398 . S
C598 H608 0.930 . S
C599 C597 1.380 . S
C599 C600 1.391 . S
C599 H609 0.930 . S
C600 C599 1.391 . S
C600 C602 1.387 . S
C601 C598 1.398 . S
C601 C602 1.380 . S
C601 H610 0.930 . S
C602 C600 1.387 . S
C602 C601 1.380 . S
C602 H611 0.930 . S
C603 O580 1.254 . S
C603 O581 1.268 . S
H604 C589 0.930 . S
H605 C590 0.930 . S
H606 C592 0.930 . S
H607 C593 0.930 . S
H608 C598 0.930 . S
H609 C599 0.930 . S
H610 C601 0.930 . S
H611 C602 0.930 . S
Gd612 N643 2.661 . S
Gd612 N649 2.601 . S
Gd612 O656 2.545 . S
Gd612 O657 2.606 . S
Gd612 O659 2.429 . S
Gd612 O660 2.545 . S
Gd612 O661 2.412 . S
Gd612 O663 2.362 . S
Gd612 O664 2.324 . S
Gd612 C671 2.828 . S
Gd613 N622 2.661 . S
Gd613 N626 2.601 . S
Gd613 O657 2.362 . S
Gd613 O658 2.324 . S
Gd613 O662 2.545 . S
Gd613 O663 2.606 . S
Gd613 O665 2.429 . S
Gd613 O666 2.545 . S
Gd613 O667 2.412 . S
Gd613 C680 2.828 . S
C614 C617 1.417 . S
C614 C619 1.431 . S
C614 C620 1.412 . S
C615 C618 1.437 . S
C615 C619 1.317 . S
C615 H634 0.929 . S
C616 C617 1.426 . S
C616 C618 1.413 . S
C616 N626 1.359 . S
C617 C614 1.417 . S
C617 C616 1.426 . S
C617 N622 1.350 . S
C618 C615 1.437 . S
C618 C616 1.413 . S
C618 C628 1.391 . S
C619 C614 1.431 . S
C619 C615 1.317 . S
C619 H630 0.930 . S
C620 C614 1.412 . S
C620 C621 1.355 . S
C620 H632 0.930 . S
C621 C620 1.355 . S
C621 C623 1.402 . S
C621 H633 0.930 . S
N622 Gd613 2.661 . S
N622 C617 1.350 . S
N622 C623 1.307 . S
C623 C621 1.402 . S
C623 N622 1.307 . S
C623 H624 0.930 . S
H624 C623 0.930 . S
C625 N626 1.334 . S
C625 C627 1.394 . S
C625 H629 0.930 . S
N626 Gd613 2.601 . S
N626 C616 1.359 . S
N626 C625 1.334 . S
C627 C625 1.394 . S
C627 C628 1.359 . S
C627 H639 0.930 . S
C628 C618 1.391 . S
C628 C627 1.359 . S
C628 H640 0.929 . S
H629 C625 0.930 . S
H630 C619 0.930 . S
H631 C648 0.930 . S
H632 C620 0.930 . S
H633 C621 0.930 . S
H634 C615 0.929 . S
H635 C653 0.930 . S
H636 C644 0.930 . S
H637 C645 0.930 . S
H638 C669 0.929 . S
H639 C627 0.930 . S
H640 C628 0.929 . S
H641 C670 0.930 . S
H642 C651 0.930 . S
N643 Gd612 2.661 . S
N643 C647 1.350 . S
N643 C648 1.307 . S
C644 H636 0.930 . S
C644 C645 1.355 . S
C644 C646 1.412 . S
C645 H637 0.930 . S
C645 C644 1.355 . S
C645 C648 1.402 . S
C646 C644 1.412 . S
C646 C647 1.417 . S
C646 C670 1.431 . S
C647 N643 1.350 . S
C647 C646 1.417 . S
C647 C650 1.426 . S
C648 H631 0.930 . S
C648 N643 1.307 . S
C648 C645 1.402 . S
N649 Gd612 2.601 . S
N649 C650 1.359 . S
N649 C653 1.334 . S
C650 C647 1.426 . S
C650 N649 1.359 . S
C650 C654 1.413 . S
C651 H642 0.930 . S
C651 C652 1.359 . S
C651 C653 1.394 . S
C652 C651 1.359 . S
C652 C654 1.391 . S
C652 H655 0.929 . S
C653 H635 0.930 . S
C653 N649 1.334 . S
C653 C651 1.394 . S
C654 C650 1.413 . S
C654 C652 1.391 . S
C654 C669 1.437 . S
H655 C652 0.929 . S
O656 Gd612 2.545 . S
O656 C671 1.258 . S
O657 Gd612 2.606 . S
O657 Gd613 2.362 . S
O657 C668 1.284 . S
O658 Gd613 2.324 . S
O658 C678 1.254 . S
O659 Gd612 2.429 . S
O659 C678 1.268 . S
O660 Gd612 2.545 . S
O660 C668 1.250 . S
O661 Gd612 2.412 . S
O661 C671 1.252 . S
O662 Gd613 2.545 . S
O662 C680 1.258 . S
O663 Gd612 2.362 . S
O663 Gd613 2.606 . S
O663 C679 1.284 . S
O664 Gd612 2.324 . S
O664 C687 1.254 . S
O665 Gd613 2.429 . S
O665 C687 1.268 . S
O666 Gd613 2.545 . S
O666 C679 1.250 . S
O667 Gd613 2.412 . S
O667 C680 1.252 . S
C668 O657 1.284 . S
C668 O660 1.250 . S
C669 H638 0.929 . S
C669 C654 1.437 . S
C669 C670 1.317 . S
C670 H641 0.930 . S
C670 C646 1.431 . S
C670 C669 1.317 . S
C671 Gd612 2.828 . S
C671 O656 1.258 . S
C671 O661 1.252 . S
C671 C672 1.497 . S
C672 C671 1.497 . S
C672 C673 1.395 . S
C672 C674 1.380 . S
C673 C672 1.395 . S
C673 C676 1.398 . S
C673 H688 0.930 . S
C674 C672 1.380 . S
C674 C675 1.391 . S
C674 H689 0.930 . S
C675 C674 1.391 . S
C675 C677 1.387 . S
C676 C673 1.398 . S
C676 C677 1.380 . S
C676 H690 0.930 . S
C677 C675 1.387 . S
C677 C676 1.380 . S
C677 H691 0.930 . S
C678 O658 1.254 . S
C678 O659 1.268 . S
C679 O663 1.284 . S
C679 O666 1.250 . S
C680 Gd613 2.828 . S
C680 O662 1.258 . S
C680 O667 1.252 . S
C680 C681 1.497 . S
C681 C680 1.497 . S
C681 C682 1.395 . S
C681 C683 1.380 . S
C682 C681 1.395 . S
C682 C685 1.398 1_556 S
C682 H692 0.930 . S
C683 C681 1.380 . S
C683 C684 1.391 . S
C683 H693 0.930 . S
C684 C683 1.391 . S
C684 C686 1.387 1_556 S
C685 C682 1.398 1_554 S
C685 C686 1.380 . S
C685 H694 0.930 . S
C686 C684 1.387 1_554 S
C686 C685 1.380 . S
C686 H695 0.930 . S
C687 O664 1.254 . S
C687 O665 1.268 . S
H688 C673 0.930 . S
H689 C674 0.930 . S
H690 C676 0.930 . S
H691 C677 0.930 . S
H692 C682 0.930 . S
H693 C683 0.930 . S
H694 C685 0.930 . S
H695 C686 0.930 . S
Gd696 N727 2.661 . S
Gd696 N733 2.601 . S
Gd696 O740 2.545 . S
Gd696 O741 2.606 . S
Gd696 O743 2.429 . S
Gd696 O744 2.545 . S
Gd696 O745 2.412 . S
Gd696 O747 2.362 . S
Gd696 O748 2.324 . S
Gd696 C755 2.828 . S
Gd697 N706 2.661 . S
Gd697 N710 2.601 . S
Gd697 O741 2.362 . S
Gd697 O742 2.324 . S
Gd697 O746 2.545 . S
Gd697 O747 2.606 . S
Gd697 O749 2.429 . S
Gd697 O750 2.545 . S
Gd697 O751 2.412 . S
Gd697 C764 2.828 . S
C698 C701 1.417 . S
C698 C703 1.431 . S
C698 C704 1.412 . S
C699 C702 1.437 . S
C699 C703 1.317 . S
C699 H718 0.929 . S
C700 C701 1.426 . S
C700 C702 1.413 . S
C700 N710 1.359 . S
C701 C698 1.417 . S
C701 C700 1.426 . S
C701 N706 1.350 . S
C702 C699 1.437 . S
C702 C700 1.413 . S
C702 C712 1.391 . S
C703 C698 1.431 . S
C703 C699 1.317 . S
C703 H714 0.930 . S
C704 C698 1.412 . S
C704 C705 1.355 . S
C704 H716 0.930 . S
C705 C704 1.355 . S
C705 C707 1.402 . S
C705 H717 0.930 . S
N706 Gd697 2.661 . S
N706 C701 1.350 . S
N706 C707 1.307 . S
C707 C705 1.402 . S
C707 N706 1.307 . S
C707 H708 0.930 . S
H708 C707 0.930 . S
C709 N710 1.334 . S
C709 C711 1.394 . S
C709 H713 0.930 . S
N710 Gd697 2.601 . S
N710 C700 1.359 . S
N710 C709 1.334 . S
C711 C709 1.394 . S
C711 C712 1.359 . S
C711 H723 0.930 . S
C712 C702 1.391 . S
C712 C711 1.359 . S
C712 H724 0.929 . S
H713 C709 0.930 . S
H714 C703 0.930 . S
H715 C732 0.930 . S
H716 C704 0.930 . S
H717 C705 0.930 . S
H718 C699 0.929 . S
H719 C737 0.930 . S
H720 C728 0.930 . S
H721 C729 0.930 . S
H722 C753 0.929 . S
H723 C711 0.930 . S
H724 C712 0.929 . S
H725 C754 0.930 1_554 S
H726 C735 0.930 . S
N727 Gd696 2.661 . S
N727 C731 1.350 . S
N727 C732 1.307 . S
C728 H720 0.930 . S
C728 C729 1.355 . S
C728 C730 1.412 . S
C729 H721 0.930 . S
C729 C728 1.355 . S
C729 C732 1.402 . S
C730 C728 1.412 . S
C730 C731 1.417 . S
C730 C754 1.431 . S
C731 N727 1.350 . S
C731 C730 1.417 . S
C731 C734 1.426 . S
C732 H715 0.930 . S
C732 N727 1.307 . S
C732 C729 1.402 . S
N733 Gd696 2.601 . S
N733 C734 1.359 . S
N733 C737 1.334 . S
C734 C731 1.426 . S
C734 N733 1.359 . S
C734 C738 1.413 1_556 S
C735 H726 0.930 . S
C735 C736 1.359 . S
C735 C737 1.394 1_554 S
C736 C735 1.359 . S
C736 C738 1.391 . S
C736 H739 0.929 . S
C737 H719 0.930 . S
C737 N733 1.334 . S
C737 C735 1.394 1_556 S
C738 C734 1.413 1_554 S
C738 C736 1.391 . S
C738 C753 1.437 . S
H739 C736 0.929 . S
O740 Gd696 2.545 . S
O740 C755 1.258 . S
O741 Gd696 2.606 . S
O741 Gd697 2.362 . S
O741 C752 1.284 . S
O742 Gd697 2.324 . S
O742 C762 1.254 . S
O743 Gd696 2.429 . S
O743 C762 1.268 . S
O744 Gd696 2.545 . S
O744 C752 1.250 . S
O745 Gd696 2.412 . S
O745 C755 1.252 . S
O746 Gd697 2.545 . S
O746 C764 1.258 . S
O747 Gd696 2.362 . S
O747 Gd697 2.606 . S
O747 C763 1.284 . S
O748 Gd696 2.324 . S
O748 C771 1.254 . S
O749 Gd697 2.429 . S
O749 C771 1.268 . S
O750 Gd697 2.545 . S
O750 C763 1.250 . S
O751 Gd697 2.412 . S
O751 C764 1.252 . S
C752 O741 1.284 . S
C752 O744 1.250 . S
C753 H722 0.929 . S
C753 C738 1.437 . S
C753 C754 1.317 1_554 S
C754 H725 0.930 1_556 S
C754 C730 1.431 . S
C754 C753 1.317 1_556 S
C755 Gd696 2.828 . S
C755 O740 1.258 . S
C755 O745 1.252 . S
C755 C756 1.497 . S
C756 C755 1.497 . S
C756 C757 1.395 . S
C756 C758 1.380 . S
C757 C756 1.395 . S
C757 C760 1.398 . S
C757 H772 0.930 . S
C758 C756 1.380 . S
C758 C759 1.391 . S
C758 H773 0.930 . S
C759 C758 1.391 . S
C759 C761 1.387 . S
C760 C757 1.398 . S
C760 C761 1.380 . S
C760 H774 0.930 . S
C761 C759 1.387 . S
C761 C760 1.380 . S
C761 H775 0.930 . S
C762 O742 1.254 . S
C762 O743 1.268 . S
C763 O747 1.284 . S
C763 O750 1.250 . S
C764 Gd697 2.828 . S
C764 O746 1.258 . S
C764 O751 1.252 . S
C764 C765 1.497 . S
C765 C764 1.497 . S
C765 C766 1.395 . S
C765 C767 1.380 . S
C766 C765 1.395 . S
C766 C769 1.398 . S
C766 H776 0.930 . S
C767 C765 1.380 . S
C767 C768 1.391 . S
C767 H777 0.930 . S
C768 C767 1.391 . S
C768 C770 1.387 . S
C769 C766 1.398 . S
C769 C770 1.380 . S
C769 H778 0.930 . S
C770 C768 1.387 . S
C770 C769 1.380 . S
C770 H779 0.930 . S
C771 O748 1.254 . S
C771 O749 1.268 . S
H772 C757 0.930 . S
H773 C758 0.930 . S
H774 C760 0.930 . S
H775 C761 0.930 . S
H776 C766 0.930 . S
H777 C767 0.930 . S
H778 C769 0.930 . S
H779 C770 0.930 . S
Gd780 N811 2.661 . S
Gd780 N817 2.601 . S
Gd780 O824 2.545 . S
Gd780 O825 2.606 . S
Gd780 O827 2.429 . S
Gd780 O828 2.545 . S
Gd780 O829 2.412 . S
Gd780 O831 2.362 . S
Gd780 O832 2.324 . S
Gd780 C839 2.828 . S
Gd781 N790 2.661 . S
Gd781 N794 2.601 . S
Gd781 O825 2.362 . S
Gd781 O826 2.324 . S
Gd781 O830 2.545 . S
Gd781 O831 2.606 . S
Gd781 O833 2.429 . S
Gd781 O834 2.545 . S
Gd781 O835 2.412 . S
Gd781 C848 2.828 . S
C782 C785 1.417 . S
C782 C787 1.431 . S
C782 C788 1.412 . S
C783 C786 1.437 . S
C783 C787 1.317 . S
C783 H802 0.929 . S
C784 C785 1.426 . S
C784 C786 1.413 . S
C784 N794 1.359 . S
C785 C782 1.417 . S
C785 C784 1.426 . S
C785 N790 1.350 . S
C786 C783 1.437 . S
C786 C784 1.413 . S
C786 C796 1.391 . S
C787 C782 1.431 . S
C787 C783 1.317 . S
C787 H798 0.930 . S
C788 C782 1.412 . S
C788 C789 1.355 . S
C788 H800 0.930 . S
C789 C788 1.355 . S
C789 C791 1.402 . S
C789 H801 0.930 . S
N790 Gd781 2.661 . S
N790 C785 1.350 . S
N790 C791 1.307 . S
C791 C789 1.402 . S
C791 N790 1.307 . S
C791 H792 0.930 . S
H792 C791 0.930 . S
C793 N794 1.334 . S
C793 C795 1.394 . S
C793 H797 0.930 . S
N794 Gd781 2.601 . S
N794 C784 1.359 . S
N794 C793 1.334 . S
C795 C793 1.394 . S
C795 C796 1.359 . S
C795 H807 0.930 . S
C796 C786 1.391 . S
C796 C795 1.359 . S
C796 H808 0.929 . S
H797 C793 0.930 . S
H798 C787 0.930 . S
H799 C816 0.930 . S
H800 C788 0.930 . S
H801 C789 0.930 . S
H802 C783 0.929 . S
H803 C821 0.930 . S
H804 C812 0.930 . S
H805 C813 0.930 . S
H806 C837 0.929 . S
H807 C795 0.930 . S
H808 C796 0.929 . S
H809 C838 0.930 . S
H810 C819 0.930 . S
N811 Gd780 2.661 . S
N811 C815 1.350 . S
N811 C816 1.307 . S
C812 H804 0.930 . S
C812 C813 1.355 . S
C812 C814 1.412 . S
C813 H805 0.930 . S
C813 C812 1.355 . S
C813 C816 1.402 . S
C814 C812 1.412 . S
C814 C815 1.417 . S
C814 C838 1.431 . S
C815 N811 1.350 . S
C815 C814 1.417 . S
C815 C818 1.426 . S
C816 H799 0.930 . S
C816 N811 1.307 . S
C816 C813 1.402 . S
N817 Gd780 2.601 . S
N817 C818 1.359 . S
N817 C821 1.334 . S
C818 C815 1.426 . S
C818 N817 1.359 . S
C818 C822 1.413 . S
C819 H810 0.930 . S
C819 C820 1.359 . S
C819 C821 1.394 . S
C820 C819 1.359 . S
C820 C822 1.391 . S
C820 H823 0.929 . S
C821 H803 0.930 . S
C821 N817 1.334 . S
C821 C819 1.394 . S
C822 C818 1.413 . S
C822 C820 1.391 . S
C822 C837 1.437 . S
H823 C820 0.929 . S
O824 Gd780 2.545 . S
O824 C839 1.258 . S
O825 Gd780 2.606 . S
O825 Gd781 2.362 . S
O825 C836 1.284 . S
O826 Gd781 2.324 . S
O826 C846 1.254 . S
O827 Gd780 2.429 . S
O827 C846 1.268 . S
O828 Gd780 2.545 . S
O828 C836 1.250 . S
O829 Gd780 2.412 . S
O829 C839 1.252 . S
O830 Gd781 2.545 . S
O830 C848 1.258 . S
O831 Gd780 2.362 . S
O831 Gd781 2.606 . S
O831 C847 1.284 . S
O832 Gd780 2.324 . S
O832 C855 1.254 . S
O833 Gd781 2.429 . S
O833 C855 1.268 . S
O834 Gd781 2.545 . S
O834 C847 1.250 . S
O835 Gd781 2.412 . S
O835 C848 1.252 . S
C836 O825 1.284 . S
C836 O828 1.250 . S
C837 H806 0.929 . S
C837 C822 1.437 . S
C837 C838 1.317 . S
C838 H809 0.930 . S
C838 C814 1.431 . S
C838 C837 1.317 . S
C839 Gd780 2.828 . S
C839 O824 1.258 . S
C839 O829 1.252 . S
C839 C840 1.497 . S
C840 C839 1.497 . S
C840 C841 1.395 . S
C840 C842 1.380 . S
C841 C840 1.395 . S
C841 C844 1.398 1_556 S
C841 H856 0.930 . S
C842 C840 1.380 . S
C842 C843 1.391 . S
C842 H857 0.930 . S
C843 C842 1.391 . S
C843 C845 1.387 1_556 S
C844 C841 1.398 1_554 S
C844 C845 1.380 . S
C844 H858 0.930 . S
C845 C843 1.387 1_554 S
C845 C844 1.380 . S
C845 H859 0.930 . S
C846 O826 1.254 . S
C846 O827 1.268 . S
C847 O831 1.284 . S
C847 O834 1.250 . S
C848 Gd781 2.828 . S
C848 O830 1.258 . S
C848 O835 1.252 . S
C848 C849 1.497 . S
C849 C848 1.497 . S
C849 C850 1.395 . S
C849 C851 1.380 . S
C850 C849 1.395 . S
C850 C853 1.398 . S
C850 H860 0.930 . S
C851 C849 1.380 . S
C851 C852 1.391 . S
C851 H861 0.930 . S
C852 C851 1.391 . S
C852 C854 1.387 . S
C853 C850 1.398 . S
C853 C854 1.380 . S
C853 H862 0.930 . S
C854 C852 1.387 . S
C854 C853 1.380 . S
C854 H863 0.930 . S
C855 O832 1.254 . S
C855 O833 1.268 . S
H856 C841 0.930 . S
H857 C842 0.930 . S
H858 C844 0.930 . S
H859 C845 0.930 . S
H860 C850 0.930 . S
H861 C851 0.930 . S
H862 C853 0.930 . S
H863 C854 0.930 . S
Gd864 N895 2.661 . S
Gd864 N901 2.601 . S
Gd864 O908 2.545 . S
Gd864 O909 2.606 . S
Gd864 O911 2.429 . S
Gd864 O912 2.545 . S
Gd864 O913 2.412 . S
Gd864 O915 2.362 . S
Gd864 O916 2.324 . S
Gd864 C923 2.828 . S
Gd865 N874 2.661 . S
Gd865 N878 2.601 . S
Gd865 O909 2.362 . S
Gd865 O910 2.324 . S
Gd865 O914 2.545 . S
Gd865 O915 2.606 . S
Gd865 O917 2.429 . S
Gd865 O918 2.545 . S
Gd865 O919 2.412 . S
Gd865 C932 2.828 . S
C866 C869 1.417 . S
C866 C871 1.431 . S
C866 C872 1.412 . S
C867 C870 1.437 1_554 S
C867 C871 1.317 1_554 S
C867 H886 0.929 . S
C868 C869 1.426 . S
C868 C870 1.413 . S
C868 N878 1.359 . S
C869 C866 1.417 . S
C869 C868 1.426 . S
C869 N874 1.350 . S
C870 C867 1.437 1_556 S
C870 C868 1.413 . S
C870 C880 1.391 1_556 S
C871 C866 1.431 . S
C871 C867 1.317 1_556 S
C871 H882 0.930 1_556 S
C872 C866 1.412 . S
C872 C873 1.355 . S
C872 H884 0.930 . S
C873 C872 1.355 . S
C873 C875 1.402 . S
C873 H885 0.930 . S
N874 Gd865 2.661 . S
N874 C869 1.350 . S
N874 C875 1.307 . S
C875 C873 1.402 . S
C875 N874 1.307 . S
C875 H876 0.930 . S
H876 C875 0.930 . S
C877 N878 1.334 . S
C877 C879 1.394 . S
C877 H881 0.930 . S
N878 Gd865 2.601 . S
N878 C868 1.359 . S
N878 C877 1.334 . S
C879 C877 1.394 . S
C879 C880 1.359 1_556 S
C879 H891 0.930 . S
C880 C870 1.391 1_554 S
C880 C879 1.359 1_554 S
C880 H892 0.929 . S
H881 C877 0.930 . S
H882 C871 0.930 1_554 S
H883 C900 0.930 . S
H884 C872 0.930 . S
H885 C873 0.930 . S
H886 C867 0.929 . S
H887 C905 0.930 . S
H888 C896 0.930 . S
H889 C897 0.930 . S
H890 C921 0.929 . S
H891 C879 0.930 . S
H892 C880 0.929 . S
H893 C922 0.930 . S
H894 C903 0.930 . S
N895 Gd864 2.661 . S
N895 C899 1.350 . S
N895 C900 1.307 . S
C896 H888 0.930 . S
C896 C897 1.355 . S
C896 C898 1.412 . S
C897 H889 0.930 . S
C897 C896 1.355 . S
C897 C900 1.402 . S
C898 C896 1.412 . S
C898 C899 1.417 . S
C898 C922 1.431 . S
C899 N895 1.350 . S
C899 C898 1.417 . S
C899 C902 1.426 . S
C900 H883 0.930 . S
C900 N895 1.307 . S
C900 C897 1.402 . S
N901 Gd864 2.601 . S
N901 C902 1.359 . S
N901 C905 1.334 . S
C902 C899 1.426 . S
C902 N901 1.359 . S
C902 C906 1.413 . S
C903 H894 0.930 . S
C903 C904 1.359 . S
C903 C905 1.394 . S
C904 C903 1.359 . S
C904 C906 1.391 . S
C904 H907 0.929 . S
C905 H887 0.930 . S
C905 N901 1.334 . S
C905 C903 1.394 . S
C906 C902 1.413 . S
C906 C904 1.391 . S
C906 C921 1.437 . S
H907 C904 0.929 . S
O908 Gd864 2.545 . S
O908 C923 1.258 . S
O909 Gd864 2.606 . S
O909 Gd865 2.362 . S
O909 C920 1.284 . S
O910 Gd865 2.324 . S
O910 C930 1.254 . S
O911 Gd864 2.429 . S
O911 C930 1.268 . S
O912 Gd864 2.545 . S
O912 C920 1.250 . S
O913 Gd864 2.412 . S
O913 C923 1.252 . S
O914 Gd865 2.545 . S
O914 C932 1.258 . S
O915 Gd864 2.362 . S
O915 Gd865 2.606 . S
O915 C931 1.284 . S
O916 Gd864 2.324 . S
O916 C939 1.254 . S
O917 Gd865 2.429 . S
O917 C939 1.268 . S
O918 Gd865 2.545 . S
O918 C931 1.250 . S
O919 Gd865 2.412 . S
O919 C932 1.252 . S
C920 O909 1.284 . S
C920 O912 1.250 . S
C921 H890 0.929 . S
C921 C906 1.437 . S
C921 C922 1.317 . S
C922 H893 0.930 . S
C922 C898 1.431 . S
C922 C921 1.317 . S
C923 Gd864 2.828 . S
C923 O908 1.258 . S
C923 O913 1.252 . S
C923 C924 1.497 . S
C924 C923 1.497 . S
C924 C925 1.395 . S
C924 C926 1.380 . S
C925 C924 1.395 . S
C925 C928 1.398 . S
C925 H940 0.930 . S
C926 C924 1.380 . S
C926 C927 1.391 . S
C926 H941 0.930 . S
C927 C926 1.391 . S
C927 C929 1.387 . S
C928 C925 1.398 . S
C928 C929 1.380 . S
C928 H942 0.930 . S
C929 C927 1.387 . S
C929 C928 1.380 . S
C929 H943 0.930 . S
C930 O910 1.254 . S
C930 O911 1.268 . S
C931 O915 1.284 . S
C931 O918 1.250 . S
C932 Gd865 2.828 . S
C932 O914 1.258 . S
C932 O919 1.252 . S
C932 C933 1.497 . S
C933 C932 1.497 . S
C933 C934 1.395 . S
C933 C935 1.380 . S
C934 C933 1.395 . S
C934 C937 1.398 . S
C934 H944 0.930 . S
C935 C933 1.380 . S
C935 C936 1.391 . S
C935 H945 0.930 . S
C936 C935 1.391 . S
C936 C938 1.387 . S
C937 C934 1.398 . S
C937 C938 1.380 . S
C937 H946 0.930 . S
C938 C936 1.387 . S
C938 C937 1.380 . S
C938 H947 0.930 . S
C939 O916 1.254 . S
C939 O917 1.268 . S
H940 C925 0.930 . S
H941 C926 0.930 . S
H942 C928 0.930 . S
H943 C929 0.930 . S
H944 C934 0.930 . S
H945 C935 0.930 . S
H946 C937 0.930 . S
H947 C938 0.930 . S
C948 C949 1.387 . S
C948 H952 0.950 . S
C948 C957 1.390 . S
C949 C948 1.387 . S
C949 C951 1.387 . S
H950 C957 0.950 . S
C951 C949 1.387 . S
C951 C953 1.390 . S
C951 H955 0.950 . S
H952 C948 0.950 . S
C953 C951 1.390 . S
C953 C954 1.387 . S
C953 H956 0.950 . S
C954 C953 1.387 . S
C954 C957 1.387 . S
H955 C951 0.950 . S
H956 C953 0.950 . S
C957 C948 1.390 . S
C957 H950 0.950 . S
C957 C954 1.387 . S
C958 C959 1.387 . S
C958 H962 0.950 . S
C958 C967 1.390 . S
C959 C958 1.387 . S
C959 C961 1.387 . S
H960 C967 0.950 . S
C961 C959 1.387 . S
C961 C963 1.390 . S
C961 H965 0.950 . S
H962 C958 0.950 . S
C963 C961 1.390 . S
C963 C964 1.387 . S
C963 H966 0.950 . S
C964 C963 1.387 . S
C964 C967 1.387 . S
H965 C961 0.950 . S
H966 C963 0.950 . S
C967 C958 1.390 . S
C967 H960 0.950 . S
C967 C964 1.387 . S
C968 C969 1.387 . S
C968 H972 0.950 . S
C968 C977 1.390 . S
C969 C968 1.387 . S
C969 C971 1.387 . S
H970 C977 0.950 . S
C971 C969 1.387 . S
C971 C973 1.390 . S
C971 H975 0.950 . S
H972 C968 0.950 . S
C973 C971 1.390 . S
C973 C974 1.387 . S
C973 H976 0.950 . S
C974 C973 1.387 . S
C974 C977 1.387 . S
H975 C971 0.950 . S
H976 C973 0.950 . S
C977 C968 1.390 . S
C977 H970 0.950 . S
C977 C974 1.387 . S
C978 C979 1.387 . S
C978 H982 0.950 . S
C978 C987 1.390 . S
C979 C978 1.387 . S
C979 C981 1.387 . S
H980 C987 0.950 . S
C981 C979 1.387 . S
C981 C983 1.390 . S
C981 H985 0.950 . S
H982 C978 0.950 . S
C983 C981 1.390 . S
C983 C984 1.387 . S
C983 H986 0.950 . S
C984 C983 1.387 . S
C984 C987 1.387 . S
H985 C981 0.950 . S
H986 C983 0.950 . S
C987 C978 1.390 . S
C987 H980 0.950 . S
C987 C984 1.387 . S
C988 C989 1.387 . S
C988 H992 0.950 . S
C988 C997 1.390 . S
C989 C988 1.387 . S
C989 C991 1.387 . S
H990 C997 0.950 . S
C991 C989 1.387 . S
C991 C993 1.390 . S
C991 H995 0.950 . S
H992 C988 0.950 . S
C993 C991 1.390 . S
C993 C994 1.387 . S
C993 H996 0.950 . S
C994 C993 1.387 . S
C994 C997 1.387 . S
H995 C991 0.950 . S
H996 C993 0.950 . S
C997 C988 1.390 . S
C997 H990 0.950 . S
C997 C994 1.387 . S
C998 C999 1.387 . S
C998 H1002 0.950 . S
C998 C1007 1.390 . S
C999 C998 1.387 . S
C999 C1001 1.387 . S
H1000 C1007 0.950 . S
C1001 C999 1.387 . S
C1001 C1003 1.390 . S
C1001 H1005 0.950 . S
H1002 C998 0.950 . S
C1003 C1001 1.390 . S
C1003 C1004 1.387 . S
C1003 H1006 0.950 . S
C1004 C1003 1.387 . S
C1004 C1007 1.387 . S
H1005 C1001 0.950 . S
H1006 C1003 0.950 . S
C1007 C998 1.390 . S
C1007 H1000 0.950 . S
C1007 C1004 1.387 . S
C1008 C1009 1.387 . S
C1008 H1012 0.950 . S
C1008 C1017 1.390 . S
C1009 C1008 1.387 . S
C1009 C1011 1.387 . S
H1010 C1017 0.950 . S
C1011 C1009 1.387 . S
C1011 C1013 1.390 . S
C1011 H1015 0.950 . S
H1012 C1008 0.950 . S
C1013 C1011 1.390 . S
C1013 C1014 1.387 . S
C1013 H1016 0.950 . S
C1014 C1013 1.387 . S
C1014 C1017 1.387 . S
H1015 C1011 0.950 . S
H1016 C1013 0.950 . S
C1017 C1008 1.390 . S
C1017 H1010 0.950 . S
C1017 C1014 1.387 . S
C1018 C1019 1.387 . S
C1018 H1022 0.950 . S
C1018 C1027 1.390 . S
C1019 C1018 1.387 . S
C1019 C1021 1.387 . S
H1020 C1027 0.950 . S
C1021 C1019 1.387 . S
C1021 C1023 1.390 . S
C1021 H1025 0.950 . S
H1022 C1018 0.950 . S
C1023 C1021 1.390 . S
C1023 C1024 1.387 . S
C1023 H1026 0.950 . S
C1024 C1023 1.387 . S
C1024 C1027 1.387 . S
H1025 C1021 0.950 . S
H1026 C1023 0.950 . S
C1027 C1018 1.390 . S
C1027 H1020 0.950 . S
C1027 C1024 1.387 . S
C1028 C1029 1.387 . S
C1028 H1032 0.950 . S
C1028 C1037 1.390 . S
C1029 C1028 1.387 . S
C1029 C1031 1.387 . S
H1030 C1037 0.950 . S
C1031 C1029 1.387 . S
C1031 C1033 1.390 . S
C1031 H1035 0.950 . S
H1032 C1028 0.950 . S
C1033 C1031 1.390 . S
C1033 C1034 1.387 . S
C1033 H1036 0.950 . S
C1034 C1033 1.387 . S
C1034 C1037 1.387 . S
H1035 C1031 0.950 . S
H1036 C1033 0.950 . S
C1037 C1028 1.390 . S
C1037 H1030 0.950 . S
C1037 C1034 1.387 . S
C1038 C1039 1.387 . S
C1038 H1042 0.950 . S
C1038 C1047 1.390 . S
C1039 C1038 1.387 . S
C1039 C1041 1.387 . S
H1040 C1047 0.950 . S
C1041 C1039 1.387 . S
C1041 C1043 1.390 . S
C1041 H1045 0.950 . S
H1042 C1038 0.950 . S
C1043 C1041 1.390 . S
C1043 C1044 1.387 . S
C1043 H1046 0.950 . S
C1044 C1043 1.387 . S
C1044 C1047 1.387 . S
H1045 C1041 0.950 . S
H1046 C1043 0.950 . S
C1047 C1038 1.390 . S
C1047 H1040 0.950 . S
C1047 C1044 1.387 . S
C1048 C1049 1.387 . S
C1048 H1052 0.950 . S
C1048 C1057 1.390 . S
C1049 C1048 1.387 . S
C1049 C1051 1.387 . S
H1050 C1057 0.950 . S
C1051 C1049 1.387 . S
C1051 C1053 1.390 . S
C1051 H1055 0.950 . S
H1052 C1048 0.950 . S
C1053 C1051 1.390 . S
C1053 C1054 1.387 . S
C1053 H1056 0.950 . S
C1054 C1053 1.387 . S
C1054 C1057 1.387 . S
H1055 C1051 0.950 . S
H1056 C1053 0.950 . S
C1057 C1048 1.390 . S
C1057 H1050 0.950 . S
C1057 C1054 1.387 . S
C1058 C1059 1.387 . S
C1058 H1062 0.950 . S
C1058 C1067 1.390 . S
C1059 C1058 1.387 . S
C1059 C1061 1.387 . S
H1060 C1067 0.950 . S
C1061 C1059 1.387 . S
C1061 C1063 1.390 . S
C1061 H1065 0.950 . S
H1062 C1058 0.950 . S
C1063 C1061 1.390 . S
C1063 C1064 1.387 . S
C1063 H1066 0.950 . S
C1064 C1063 1.387 . S
C1064 C1067 1.387 . S
H1065 C1061 0.950 . S
H1066 C1063 0.950 . S
C1067 C1058 1.390 . S
C1067 H1060 0.950 . S
C1067 C1064 1.387 . S
C1068 C1069 1.387 1_566 S
C1068 H1072 0.950 . S
C1068 C1077 1.390 . S
C1069 C1068 1.387 1_544 S
C1069 C1071 1.387 . S
H1070 C1077 0.950 . S
C1071 C1069 1.387 . S
C1071 C1073 1.390 1_545 S
C1071 H1075 0.950 . S
H1072 C1068 0.950 . S
C1073 C1071 1.390 1_565 S
C1073 C1074 1.387 1_554 S
C1073 H1076 0.950 . S
C1074 C1073 1.387 1_556 S
C1074 C1077 1.387 . S
H1075 C1071 0.950 . S
H1076 C1073 0.950 . S
C1077 C1068 1.390 . S
C1077 H1070 0.950 . S
C1077 C1074 1.387 . S
C1078 C1079 1.387 . S
C1078 H1082 0.950 . S
C1078 C1087 1.390 . S
C1079 C1078 1.387 . S
C1079 C1081 1.387 . S
H1080 C1087 0.950 . S
C1081 C1079 1.387 . S
C1081 C1083 1.390 . S
C1081 H1085 0.950 . S
H1082 C1078 0.950 . S
C1083 C1081 1.390 . S
C1083 C1084 1.387 . S
C1083 H1086 0.950 . S
C1084 C1083 1.387 . S
C1084 C1087 1.387 . S
H1085 C1081 0.950 . S
H1086 C1083 0.950 . S
C1087 C1078 1.390 . S
C1087 H1080 0.950 . S
C1087 C1084 1.387 . S
C1088 C1089 1.387 . S
C1088 H1092 0.950 . S
C1088 C1097 1.390 . S
C1089 C1088 1.387 . S
C1089 C1091 1.387 . S
H1090 C1097 0.950 . S
C1091 C1089 1.387 . S
C1091 C1093 1.390 . S
C1091 H1095 0.950 . S
H1092 C1088 0.950 . S
C1093 C1091 1.390 . S
C1093 C1094 1.387 . S
C1093 H1096 0.950 . S
C1094 C1093 1.387 . S
C1094 C1097 1.387 . S
H1095 C1091 0.950 . S
H1096 C1093 0.950 . S
C1097 C1088 1.390 . S
C1097 H1090 0.950 . S
C1097 C1094 1.387 . S
C1098 C1099 1.387 . S
C1098 H1102 0.950 . S
C1098 C1107 1.390 . S
C1099 C1098 1.387 . S
C1099 C1101 1.387 . S
H1100 C1107 0.950 . S
C1101 C1099 1.387 . S
C1101 C1103 1.390 . S
C1101 H1105 0.950 . S
H1102 C1098 0.950 . S
C1103 C1101 1.390 . S
C1103 C1104 1.387 . S
C1103 H1106 0.950 . S
C1104 C1103 1.387 . S
C1104 C1107 1.387 . S
H1105 C1101 0.950 . S
H1106 C1103 0.950 . S
C1107 C1098 1.390 . S
C1107 H1100 0.950 . S
C1107 C1104 1.387 . S
C1108 C1109 1.387 . S
C1108 H1112 0.950 . S
C1108 C1117 1.390 . S
C1109 C1108 1.387 . S
C1109 C1111 1.387 . S
H1110 C1117 0.950 . S
C1111 C1109 1.387 . S
C1111 C1113 1.390 . S
C1111 H1115 0.950 . S
H1112 C1108 0.950 . S
C1113 C1111 1.390 . S
C1113 C1114 1.387 . S
C1113 H1116 0.950 . S
C1114 C1113 1.387 . S
C1114 C1117 1.387 . S
H1115 C1111 0.950 . S
H1116 C1113 0.950 . S
C1117 C1108 1.390 . S
C1117 H1110 0.950 . S
C1117 C1114 1.387 . S
C1118 C1119 1.387 . S
C1118 H1122 0.950 . S
C1118 C1127 1.390 . S
C1119 C1118 1.387 . S
C1119 C1121 1.387 . S
H1120 C1127 0.950 . S
C1121 C1119 1.387 . S
C1121 C1123 1.390 . S
C1121 H1125 0.950 . S
H1122 C1118 0.950 . S
C1123 C1121 1.390 . S
C1123 C1124 1.387 . S
C1123 H1126 0.950 . S
C1124 C1123 1.387 . S
C1124 C1127 1.387 . S
H1125 C1121 0.950 . S
H1126 C1123 0.950 . S
C1127 C1118 1.390 . S
C1127 H1120 0.950 . S
C1127 C1124 1.387 . S
C1128 C1129 1.387 1_556 S
C1128 H1132 0.950 1_556 S
C1128 C1137 1.390 . S
C1129 C1128 1.387 1_554 S
C1129 C1131 1.387 1_554 S
H1130 C1137 0.950 . S
C1131 C1129 1.387 1_556 S
C1131 C1133 1.390 . S
C1131 H1135 0.950 . S
H1132 C1128 0.950 1_554 S
C1133 C1131 1.390 . S
C1133 C1134 1.387 . S
C1133 H1136 0.950 . S
C1134 C1133 1.387 . S
C1134 C1137 1.387 . S
H1135 C1131 0.950 . S
H1136 C1133 0.950 . S
C1137 C1128 1.390 . S
C1137 H1130 0.950 . S
C1137 C1134 1.387 . S
C1138 C1139 1.387 . S
C1138 H1142 0.950 . S
C1138 C1147 1.390 1_455 S
C1139 C1138 1.387 . S
C1139 C1141 1.387 1_454 S
H1140 C1147 0.950 . S
C1141 C1139 1.387 1_656 S
C1141 C1143 1.390 . S
C1141 H1145 0.950 . S
H1142 C1138 0.950 . S
C1143 C1141 1.390 . S
C1143 C1144 1.387 . S
C1143 H1146 0.950 . S
C1144 C1143 1.387 . S
C1144 C1147 1.387 1_556 S
H1145 C1141 0.950 . S
H1146 C1143 0.950 . S
C1147 C1138 1.390 1_655 S
C1147 H1140 0.950 . S
C1147 C1144 1.387 1_554 S
C1148 C1149 1.387 . S
C1148 H1152 0.950 . S
C1148 C1157 1.390 . S
C1149 C1148 1.387 . S
C1149 C1151 1.387 . S
H1150 C1157 0.950 . S
C1151 C1149 1.387 . S
C1151 C1153 1.390 . S
C1151 H1155 0.950 . S
H1152 C1148 0.950 . S
C1153 C1151 1.390 . S
C1153 C1154 1.387 . S
C1153 H1156 0.950 . S
C1154 C1153 1.387 . S
C1154 C1157 1.387 . S
H1155 C1151 0.950 . S
H1156 C1153 0.950 . S
C1157 C1148 1.390 . S
C1157 H1150 0.950 . S
C1157 C1154 1.387 . S
C1158 C1159 1.387 . S
C1158 H1162 0.950 . S
C1158 C1167 1.390 . S
C1159 C1158 1.387 . S
C1159 C1161 1.387 . S
H1160 C1167 0.950 . S
C1161 C1159 1.387 . S
C1161 C1163 1.390 . S
C1161 H1165 0.950 . S
H1162 C1158 0.950 . S
C1163 C1161 1.390 . S
C1163 C1164 1.387 . S
C1163 H1166 0.950 . S
C1164 C1163 1.387 . S
C1164 C1167 1.387 . S
H1165 C1161 0.950 . S
H1166 C1163 0.950 . S
C1167 C1158 1.390 . S
C1167 H1160 0.950 . S
C1167 C1164 1.387 . S
C1168 C1169 1.387 1_565 S
C1168 H1172 0.950 1_565 S
C1168 C1177 1.390 . S
C1169 C1168 1.387 1_545 S
C1169 C1171 1.387 1_545 S
H1170 C1177 0.950 . S
C1171 C1169 1.387 1_565 S
C1171 C1173 1.390 . S
C1171 H1175 0.950 . S
H1172 C1168 0.950 1_545 S
C1173 C1171 1.390 . S
C1173 C1174 1.387 . S
C1173 H1176 0.950 . S
C1174 C1173 1.387 . S
C1174 C1177 1.387 . S
H1175 C1171 0.950 . S
H1176 C1173 0.950 . S
C1177 C1168 1.390 . S
C1177 H1170 0.950 . S
C1177 C1174 1.387 . S
C1178 C1179 1.387 . S
C1178 H1182 0.950 . S
C1178 C1187 1.390 . S
C1179 C1178 1.387 . S
C1179 C1181 1.387 . S
H1180 C1187 0.950 . S
C1181 C1179 1.387 . S
C1181 C1183 1.390 . S
C1181 H1185 0.950 . S
H1182 C1178 0.950 . S
C1183 C1181 1.390 . S
C1183 C1184 1.387 . S
C1183 H1186 0.950 . S
C1184 C1183 1.387 . S
C1184 C1187 1.387 . S
H1185 C1181 0.950 . S
H1186 C1183 0.950 . S
C1187 C1178 1.390 . S
C1187 H1180 0.950 . S
C1187 C1184 1.387 . S
C1188 C1189 1.387 . S
C1188 H1192 0.950 . S
C1188 C1197 1.390 . S
C1189 C1188 1.387 . S
C1189 C1191 1.387 . S
H1190 C1197 0.950 . S
C1191 C1189 1.387 . S
C1191 C1193 1.390 . S
C1191 H1195 0.950 . S
H1192 C1188 0.950 . S
C1193 C1191 1.390 . S
C1193 C1194 1.387 . S
C1193 H1196 0.950 . S
C1194 C1193 1.387 . S
C1194 C1197 1.387 . S
H1195 C1191 0.950 . S
H1196 C1193 0.950 . S
C1197 C1188 1.390 . S
C1197 H1190 0.950 . S
C1197 C1194 1.387 . S
C1198 C1199 1.387 . S
C1198 H1202 0.950 . S
C1198 C1207 1.390 . S
C1199 C1198 1.387 . S
C1199 C1201 1.387 . S
H1200 C1207 0.950 . S
C1201 C1199 1.387 . S
C1201 C1203 1.390 . S
C1201 H1205 0.950 . S
H1202 C1198 0.950 . S
C1203 C1201 1.390 . S
C1203 C1204 1.387 . S
C1203 H1206 0.950 . S
C1204 C1203 1.387 . S
C1204 C1207 1.387 . S
H1205 C1201 0.950 . S
H1206 C1203 0.950 . S
C1207 C1198 1.390 . S
C1207 H1200 0.950 . S
C1207 C1204 1.387 . S
C1208 C1209 1.387 . S
C1208 H1212 0.950 . S
C1208 C1217 1.390 . S
C1209 C1208 1.387 . S
C1209 C1211 1.387 . S
H1210 C1217 0.950 . S
C1211 C1209 1.387 . S
C1211 C1213 1.390 . S
C1211 H1215 0.950 . S
H1212 C1208 0.950 . S
C1213 C1211 1.390 . S
C1213 C1214 1.387 . S
C1213 H1216 0.950 . S
C1214 C1213 1.387 . S
C1214 C1217 1.387 . S
H1215 C1211 0.950 . S
H1216 C1213 0.950 . S
C1217 C1208 1.390 . S
C1217 H1210 0.950 . S
C1217 C1214 1.387 . S
C1218 C1219 1.387 . S
C1218 H1222 0.950 . S
C1218 C1227 1.390 . S
C1219 C1218 1.387 . S
C1219 C1221 1.387 . S
H1220 C1227 0.950 . S
C1221 C1219 1.387 . S
C1221 C1223 1.390 . S
C1221 H1225 0.950 . S
H1222 C1218 0.950 . S
C1223 C1221 1.390 . S
C1223 C1224 1.387 . S
C1223 H1226 0.950 . S
C1224 C1223 1.387 . S
C1224 C1227 1.387 . S
H1225 C1221 0.950 . S
H1226 C1223 0.950 . S
C1227 C1218 1.390 . S
C1227 H1220 0.950 . S
C1227 C1224 1.387 . S
C1228 C1229 1.387 . S
C1228 H1232 0.950 . S
C1228 C1237 1.390 . S
C1229 C1228 1.387 . S
C1229 C1231 1.387 . S
H1230 C1237 0.950 . S
C1231 C1229 1.387 . S
C1231 C1233 1.390 . S
C1231 H1235 0.950 . S
H1232 C1228 0.950 . S
C1233 C1231 1.390 . S
C1233 C1234 1.387 . S
C1233 H1236 0.950 . S
C1234 C1233 1.387 . S
C1234 C1237 1.387 . S
H1235 C1231 0.950 . S
H1236 C1233 0.950 . S
C1237 C1228 1.390 . S
C1237 H1230 0.950 . S
C1237 C1234 1.387 . S
C1238 C1239 1.387 . S
C1238 H1242 0.950 . S
C1238 C1247 1.390 . S
C1239 C1238 1.387 . S
C1239 C1241 1.387 . S
H1240 C1247 0.950 . S
C1241 C1239 1.387 . S
C1241 C1243 1.390 . S
C1241 H1245 0.950 . S
H1242 C1238 0.950 . S
C1243 C1241 1.390 . S
C1243 C1244 1.387 . S
C1243 H1246 0.950 . S
C1244 C1243 1.387 . S
C1244 C1247 1.387 . S
H1245 C1241 0.950 . S
H1246 C1243 0.950 . S
C1247 C1238 1.390 . S
C1247 H1240 0.950 . S
C1247 C1244 1.387 . S
C1248 C1249 1.387 . S
C1248 H1252 0.950 . S
C1248 C1257 1.390 . S
C1249 C1248 1.387 . S
C1249 C1251 1.387 . S
H1250 C1257 0.950 . S
C1251 C1249 1.387 . S
C1251 C1253 1.390 . S
C1251 H1255 0.950 . S
H1252 C1248 0.950 . S
C1253 C1251 1.390 . S
C1253 C1254 1.387 . S
C1253 H1256 0.950 . S
C1254 C1253 1.387 . S
C1254 C1257 1.387 . S
H1255 C1251 0.950 . S
H1256 C1253 0.950 . S
C1257 C1248 1.390 . S
C1257 H1250 0.950 . S
C1257 C1254 1.387 . S
C1258 C1259 1.387 . S
C1258 H1262 0.950 . S
C1258 C1267 1.390 . S
C1259 C1258 1.387 . S
C1259 C1261 1.387 . S
H1260 C1267 0.950 . S
C1261 C1259 1.387 . S
C1261 C1263 1.390 . S
C1261 H1265 0.950 . S
H1262 C1258 0.950 . S
C1263 C1261 1.390 . S
C1263 C1264 1.387 . S
C1263 H1266 0.950 . S
C1264 C1263 1.387 . S
C1264 C1267 1.387 . S
H1265 C1261 0.950 . S
H1266 C1263 0.950 . S
C1267 C1258 1.390 . S
C1267 H1260 0.950 . S
C1267 C1264 1.387 . S
C1268 C1269 1.387 . S
C1268 H1272 0.950 . S
C1268 C1277 1.390 . S
C1269 C1268 1.387 . S
C1269 C1271 1.387 . S
H1270 C1277 0.950 . S
C1271 C1269 1.387 . S
C1271 C1273 1.390 . S
C1271 H1275 0.950 . S
H1272 C1268 0.950 . S
C1273 C1271 1.390 . S
C1273 C1274 1.387 . S
C1273 H1276 0.950 . S
C1274 C1273 1.387 . S
C1274 C1277 1.387 . S
H1275 C1271 0.950 . S
H1276 C1273 0.950 . S
C1277 C1268 1.390 . S
C1277 H1270 0.950 . S
C1277 C1274 1.387 . S
C1278 C1279 1.387 . S
C1278 H1282 0.950 . S
C1278 C1287 1.390 . S
C1279 C1278 1.387 . S
C1279 C1281 1.387 . S
H1280 C1287 0.950 . S
C1281 C1279 1.387 . S
C1281 C1283 1.390 . S
C1281 H1285 0.950 . S
H1282 C1278 0.950 . S
C1283 C1281 1.390 . S
C1283 C1284 1.387 . S
C1283 H1286 0.950 . S
C1284 C1283 1.387 . S
C1284 C1287 1.387 . S
H1285 C1281 0.950 . S
H1286 C1283 0.950 . S
C1287 C1278 1.390 . S
C1287 H1280 0.950 . S
C1287 C1284 1.387 . S
C1288 C1289 1.387 . S
C1288 H1292 0.950 . S
C1288 C1297 1.390 . S
C1289 C1288 1.387 . S
C1289 C1291 1.387 . S
H1290 C1297 0.950 . S
C1291 C1289 1.387 . S
C1291 C1293 1.390 . S
C1291 H1295 0.950 . S
H1292 C1288 0.950 . S
C1293 C1291 1.390 . S
C1293 C1294 1.387 . S
C1293 H1296 0.950 . S
C1294 C1293 1.387 . S
C1294 C1297 1.387 . S
H1295 C1291 0.950 . S
H1296 C1293 0.950 . S
C1297 C1288 1.390 . S
C1297 H1290 0.950 . S
C1297 C1294 1.387 . S
C1298 C1299 1.387 . S
C1298 H1302 0.950 . S
C1298 C1307 1.390 . S
C1299 C1298 1.387 . S
C1299 C1301 1.387 . S
H1300 C1307 0.950 . S
C1301 C1299 1.387 . S
C1301 C1303 1.390 . S
C1301 H1305 0.950 . S
H1302 C1298 0.950 . S
C1303 C1301 1.390 . S
C1303 C1304 1.387 . S
C1303 H1306 0.950 . S
C1304 C1303 1.387 . S
C1304 C1307 1.387 . S
H1305 C1301 0.950 . S
H1306 C1303 0.950 . S
C1307 C1298 1.390 . S
C1307 H1300 0.950 . S
C1307 C1304 1.387 . S
C1308 C1309 1.387 . S
C1308 H1312 0.950 . S
C1308 C1317 1.390 . S
C1309 C1308 1.387 . S
C1309 C1311 1.387 . S
H1310 C1317 0.950 . S
C1311 C1309 1.387 . S
C1311 C1313 1.390 . S
C1311 H1315 0.950 . S
H1312 C1308 0.950 . S
C1313 C1311 1.390 . S
C1313 C1314 1.387 . S
C1313 H1316 0.950 . S
C1314 C1313 1.387 . S
C1314 C1317 1.387 . S
H1315 C1311 0.950 . S
H1316 C1313 0.950 . S
C1317 C1308 1.390 . S
C1317 H1310 0.950 . S
C1317 C1314 1.387 . S
C1318 C1319 1.387 . S
C1318 H1322 0.950 . S
C1318 C1327 1.390 . S
C1319 C1318 1.387 . S
C1319 C1321 1.387 . S
H1320 C1327 0.950 . S
C1321 C1319 1.387 . S
C1321 C1323 1.390 . S
C1321 H1325 0.950 . S
H1322 C1318 0.950 . S
C1323 C1321 1.390 . S
C1323 C1324 1.387 . S
C1323 H1326 0.950 . S
C1324 C1323 1.387 . S
C1324 C1327 1.387 . S
H1325 C1321 0.950 . S
H1326 C1323 0.950 . S
C1327 C1318 1.390 . S
C1327 H1320 0.950 . S
C1327 C1324 1.387 . S
C1328 C1329 1.387 . S
C1328 H1332 0.950 . S
C1328 C1337 1.390 . S
C1329 C1328 1.387 . S
C1329 C1331 1.387 . S
H1330 C1337 0.950 . S
C1331 C1329 1.387 . S
C1331 C1333 1.390 . S
C1331 H1335 0.950 . S
H1332 C1328 0.950 . S
C1333 C1331 1.390 . S
C1333 C1334 1.387 . S
C1333 H1336 0.950 . S
C1334 C1333 1.387 . S
C1334 C1337 1.387 . S
H1335 C1331 0.950 . S
H1336 C1333 0.950 . S
C1337 C1328 1.390 . S
C1337 H1330 0.950 . S
C1337 C1334 1.387 . S
C1338 C1339 1.387 . S
C1338 H1342 0.950 . S
C1338 C1347 1.390 . S
C1339 C1338 1.387 . S
C1339 C1341 1.387 . S
H1340 C1347 0.950 . S
C1341 C1339 1.387 . S
C1341 C1343 1.390 . S
C1341 H1345 0.950 . S
H1342 C1338 0.950 . S
C1343 C1341 1.390 . S
C1343 C1344 1.387 . S
C1343 H1346 0.950 . S
C1344 C1343 1.387 . S
C1344 C1347 1.387 . S
H1345 C1341 0.950 . S
H1346 C1343 0.950 . S
C1347 C1338 1.390 . S
C1347 H1340 0.950 . S
C1347 C1344 1.387 . S
C1348 C1349 1.387 . S
C1348 H1352 0.950 . S
C1348 C1357 1.390 . S
C1349 C1348 1.387 . S
C1349 C1351 1.387 . S
H1350 C1357 0.950 . S
C1351 C1349 1.387 . S
C1351 C1353 1.390 . S
C1351 H1355 0.950 . S
H1352 C1348 0.950 . S
C1353 C1351 1.390 . S
C1353 C1354 1.387 . S
C1353 H1356 0.950 . S
C1354 C1353 1.387 . S
C1354 C1357 1.387 . S
H1355 C1351 0.950 . S
H1356 C1353 0.950 . S
C1357 C1348 1.390 . S
C1357 H1350 0.950 . S
C1357 C1354 1.387 . S
C1358 C1359 1.387 . S
C1358 H1362 0.950 . S
C1358 C1367 1.390 . S
C1359 C1358 1.387 . S
C1359 C1361 1.387 . S
H1360 C1367 0.950 . S
C1361 C1359 1.387 . S
C1361 C1363 1.390 . S
C1361 H1365 0.950 . S
H1362 C1358 0.950 . S
C1363 C1361 1.390 . S
C1363 C1364 1.387 . S
C1363 H1366 0.950 . S
C1364 C1363 1.387 . S
C1364 C1367 1.387 . S
H1365 C1361 0.950 . S
H1366 C1363 0.950 . S
C1367 C1358 1.390 . S
C1367 H1360 0.950 . S
C1367 C1364 1.387 . S
C1368 C1369 1.387 . S
C1368 H1372 0.950 . S
C1368 C1377 1.390 . S
C1369 C1368 1.387 . S
C1369 C1371 1.387 . S
H1370 C1377 0.950 . S
C1371 C1369 1.387 . S
C1371 C1373 1.390 . S
C1371 H1375 0.950 . S
H1372 C1368 0.950 . S
C1373 C1371 1.390 . S
C1373 C1374 1.387 . S
C1373 H1376 0.950 . S
C1374 C1373 1.387 . S
C1374 C1377 1.387 . S
H1375 C1371 0.950 . S
H1376 C1373 0.950 . S
C1377 C1368 1.390 . S
C1377 H1370 0.950 . S
C1377 C1374 1.387 . S
C1378 C1379 1.387 . S
C1378 H1382 0.950 . S
C1378 C1387 1.390 . S
C1379 C1378 1.387 . S
C1379 C1381 1.387 . S
H1380 C1387 0.950 . S
C1381 C1379 1.387 . S
C1381 C1383 1.390 . S
C1381 H1385 0.950 . S
H1382 C1378 0.950 . S
C1383 C1381 1.390 . S
C1383 C1384 1.387 . S
C1383 H1386 0.950 . S
C1384 C1383 1.387 . S
C1384 C1387 1.387 . S
H1385 C1381 0.950 . S
H1386 C1383 0.950 . S
C1387 C1378 1.390 . S
C1387 H1380 0.950 . S
C1387 C1384 1.387 . S
C1388 C1389 1.387 . S
C1388 H1392 0.950 . S
C1388 C1397 1.390 . S
C1389 C1388 1.387 . S
C1389 C1391 1.387 . S
H1390 C1397 0.950 . S
C1391 C1389 1.387 . S
C1391 C1393 1.390 . S
C1391 H1395 0.950 . S
H1392 C1388 0.950 . S
C1393 C1391 1.390 . S
C1393 C1394 1.387 . S
C1393 H1396 0.950 . S
C1394 C1393 1.387 . S
C1394 C1397 1.387 . S
H1395 C1391 0.950 . S
H1396 C1393 0.950 . S
C1397 C1388 1.390 . S
C1397 H1390 0.950 . S
C1397 C1394 1.387 . S
C1398 C1399 1.387 . S
C1398 H1402 0.950 . S
C1398 C1407 1.390 . S
C1399 C1398 1.387 . S
C1399 C1401 1.387 . S
H1400 C1407 0.950 . S
C1401 C1399 1.387 . S
C1401 C1403 1.390 . S
C1401 H1405 0.950 . S
H1402 C1398 0.950 . S
C1403 C1401 1.390 . S
C1403 C1404 1.387 . S
C1403 H1406 0.950 . S
C1404 C1403 1.387 . S
C1404 C1407 1.387 . S
H1405 C1401 0.950 . S
H1406 C1403 0.950 . S
C1407 C1398 1.390 . S
C1407 H1400 0.950 . S
C1407 C1404 1.387 . S
C1408 C1409 1.387 . S
C1408 H1412 0.950 . S
C1408 C1417 1.390 . S
C1409 C1408 1.387 . S
C1409 C1411 1.387 . S
H1410 C1417 0.950 . S
C1411 C1409 1.387 . S
C1411 C1413 1.390 . S
C1411 H1415 0.950 . S
H1412 C1408 0.950 . S
C1413 C1411 1.390 . S
C1413 C1414 1.387 . S
C1413 H1416 0.950 . S
C1414 C1413 1.387 . S
C1414 C1417 1.387 . S
H1415 C1411 0.950 . S
H1416 C1413 0.950 . S
C1417 C1408 1.390 . S
C1417 H1410 0.950 . S
C1417 C1414 1.387 . S
C1418 C1419 1.387 . S
C1418 H1422 0.950 . S
C1418 C1427 1.390 . S
C1419 C1418 1.387 . S
C1419 C1421 1.387 . S
H1420 C1427 0.950 . S
C1421 C1419 1.387 . S
C1421 C1423 1.390 . S
C1421 H1425 0.950 . S
H1422 C1418 0.950 . S
C1423 C1421 1.390 . S
C1423 C1424 1.387 . S
C1423 H1426 0.950 . S
C1424 C1423 1.387 . S
C1424 C1427 1.387 . S
H1425 C1421 0.950 . S
H1426 C1423 0.950 . S
C1427 C1418 1.390 . S
C1427 H1420 0.950 . S
C1427 C1424 1.387 . S
C954 C348 1.169 . S
C949 N2 1.284 . S
C964 C435 2.033 . S
C959 C7 2.040 . S
C974 C507 1.202 . S
C969 N12 1.460 . S
C979 C16 1.828 . S
C984 C594 1.875 . S
C994 C678 2.089 . S
C989 C30 2.097 1_565 S
C1004 C768 1.032 . S
C999 N35 1.332 . S
C1009 C39 2.006 . S
C1014 C855 1.991 . S
C1024 C927 1.134 . S
C1019 N25 1.172 1_565 S
C1034 C343 1.243 . S
C1029 N58 1.288 . S
C1039 N81 2.015 . S
C1044 C416 2.019 . S
C1054 C519 1.387 . S
C1049 N104 1.253 . S
C1059 N127 1.331 . S
C1064 C600 0.974 . S
C1074 C684 0.840 . S
C1069 N48 1.160 . S
C1084 C763 1.484 . S
C1079 N71 1.387 1_556 S
C1089 N94 1.703 . S
C1094 C836 1.739 . S
C1104 C939 1.556 . S
C1099 N117 1.505 . S
C1109 C85 2.288 . S
C1114 C342 2.285 . S
C1119 C122 2.511 . S
C1124 C679 2.501 . S
C1129 C53 1.995 . S
C1134 C762 2.096 . S
C1144 C843 1.240 . S
C1139 C76 1.554 . S
C1154 C920 1.986 . S
C1149 C99 2.107 . S
C1164 C500 2.035 . S
C1159 C131 2.077 . S
C1174 C595 2.222 . S
C1169 C62 2.245 . S
C1179 C108 1.335 . S
C1184 C423 1.075 . S
C1194 C936 1.149 . S
C1189 N140 1.327 . S
C1199 C145 2.031 . S
C1204 C687 2.024 . S
C1214 C759 1.123 . S
C1209 N150 1.315 . S
C1219 C154 1.827 . S
C1224 C846 1.876 . S
C1234 C426 2.094 . S
C1229 C168 2.102 . S
C1239 N173 1.177 . S
C1244 C516 0.972 . S
C1254 C603 1.997 . S
C1249 C177 2.013 . S
C1264 C339 1.095 . S
C1259 N163 1.159 . S
C1274 C931 1.668 . S
C1269 C200 1.714 . S
C1284 C668 2.295 . S
C1279 N219 2.292 . S
C1289 N242 1.515 . S
C1294 C771 1.668 . S
C1304 C852 1.194 . S
C1299 C269 1.610 . S
C1314 C432 1.031 . S
C1309 C191 1.377 . S
C1319 N209 1.658 . S
C1324 C511 1.756 . S
C1329 N232 1.990 . S
C1334 C584 2.030 . S
C1339 C260 2.037 . S
C1344 C351 2.040 . S
C1349 C223 1.970 . S
C1354 C930 1.968 . S
C1359 N255 2.136 . S
C1364 C427 2.114 . S
C1369 N186 1.687 . S
C1374 C510 1.778 . S
C1384 C591 1.021 . S
C1379 C214 1.239 . S
C1394 C332 1.695 . S
C1389 C237 1.799 . S
C1404 C752 1.677 . S
C1399 N265 1.582 . S
C1414 C847 1.845 . S
C1409 N196 1.825 . S
C1424 C675 0.887 . S
C1419 C246 1.025 . S
