# Generated by pormake.
# Topology pyr, (3,6)-cn, num edge types: 1
# Building blocks:
#     Node 0, Type 0, BuildingBlock: WUSLED_clean_sbu_0, # of connection points: 3
#     Node 1, Type 0, BuildingBlock: WUSLED_clean_sbu_0, # of connection points: 3
#     Node 2, Type 0, BuildingBlock: WUSLED_clean_sbu_0, # of connection points: 3
#     Node 3, Type 0, BuildingBlock: WUSLED_clean_sbu_0, # of connection points: 3
#     Node 4, Type 0, BuildingBlock: WUSLED_clean_sbu_0, # of connection points: 3
#     Node 5, Type 0, BuildingBlock: WUSLED_clean_sbu_0, # of connection points: 3
#     Node 6, Type 0, BuildingBlock: WUSLED_clean_sbu_0, # of connection points: 3
#     Node 7, Type 0, BuildingBlock: WUSLED_clean_sbu_0, # of connection points: 3
#     Node 8, Type 1, BuildingBlock: CIFDUS_clean_sbu_1, # of connection points: 6
#     Node 9, Type 1, BuildingBlock: CIFDUS_clean_sbu_1, # of connection points: 6
#     Node 10, Type 1, BuildingBlock: CIFDUS_clean_sbu_1, # of connection points: 6
#     Node 11, Type 1, BuildingBlock: CIFDUS_clean_sbu_1, # of connection points: 6
#     Edge 12, Type (0, 1), BuildingBlock: CIFDUS_clean_linker_0, # of connection points: 2
#     Edge 13, Type (0, 1), BuildingBlock: CIFDUS_clean_linker_0, # of connection points: 2
#     Edge 14, Type (0, 1), BuildingBlock: CIFDUS_clean_linker_0, # of connection points: 2
#     Edge 15, Type (0, 1), BuildingBlock: CIFDUS_clean_linker_0, # of connection points: 2
#     Edge 16, Type (0, 1), BuildingBlock: CIFDUS_clean_linker_0, # of connection points: 2
#     Edge 17, Type (0, 1), BuildingBlock: CIFDUS_clean_linker_0, # of connection points: 2
#     Edge 18, Type (0, 1), BuildingBlock: CIFDUS_clean_linker_0, # of connection points: 2
#     Edge 19, Type (0, 1), BuildingBlock: CIFDUS_clean_linker_0, # of connection points: 2
#     Edge 20, Type (0, 1), BuildingBlock: CIFDUS_clean_linker_0, # of connection points: 2
#     Edge 21, Type (0, 1), BuildingBlock: CIFDUS_clean_linker_0, # of connection points: 2
#     Edge 22, Type (0, 1), BuildingBlock: CIFDUS_clean_linker_0, # of connection points: 2
#     Edge 23, Type (0, 1), BuildingBlock: CIFDUS_clean_linker_0, # of connection points: 2
#     Edge 24, Type (0, 1), BuildingBlock: CIFDUS_clean_linker_0, # of connection points: 2
#     Edge 25, Type (0, 1), BuildingBlock: CIFDUS_clean_linker_0, # of connection points: 2
#     Edge 26, Type (0, 1), BuildingBlock: CIFDUS_clean_linker_0, # of connection points: 2
#     Edge 27, Type (0, 1), BuildingBlock: CIFDUS_clean_linker_0, # of connection points: 2
#     Edge 28, Type (0, 1), BuildingBlock: CIFDUS_clean_linker_0, # of connection points: 2
#     Edge 29, Type (0, 1), BuildingBlock: CIFDUS_clean_linker_0, # of connection points: 2
#     Edge 30, Type (0, 1), BuildingBlock: CIFDUS_clean_linker_0, # of connection points: 2
#     Edge 31, Type (0, 1), BuildingBlock: CIFDUS_clean_linker_0, # of connection points: 2
#     Edge 32, Type (0, 1), BuildingBlock: CIFDUS_clean_linker_0, # of connection points: 2
#     Edge 33, Type (0, 1), BuildingBlock: CIFDUS_clean_linker_0, # of connection points: 2
#     Edge 34, Type (0, 1), BuildingBlock: CIFDUS_clean_linker_0, # of connection points: 2
#     Edge 35, Type (0, 1), BuildingBlock: CIFDUS_clean_linker_0, # of connection points: 2
# Relax obj value: 0.035
# Max RMSD: 0.110
# Mean RMSD: 0.045
data_MOF--net-pry--node1-WUSLED_clean_sbu_0--node2-CIFDUS_clean_sbu_1--edge1-CIFDUS_clean_linker_0
_symmetry_space_group_name_H-M    P1
_symmetry_Int_Tables_number       1
_symmetry_cell_setting            triclinic
loop_
_symmetry_equiv_pos_as_xyz
'x, y, z'
_cell_length_a     43.201154
_cell_length_b     41.809029
_cell_length_c     41.466345
_cell_angle_alpha  92.251677
_cell_angle_beta   91.12726
_cell_angle_gamma 93.474196
loop_
_atom_site_label
_atom_site_type_symbol
_atom_site_fract_x
_atom_site_fract_y
_atom_site_fract_z
_atom_type_partial_charge
C0 C 0.13554 0.23693 0.1009 0.0
C1 C 0.10423 0.24088 0.10805 0.0
C2 C 0.10525 0.29114 0.079 0.0
C3 C 0.08926 0.26776 0.09726 0.0
C4 C 0.13679 0.28717 0.0729 0.0
C5 C 0.15154 0.26052 0.08352 0.0
U6 U 0.15774 0.16233 0.15072 0.0
O7 O 0.17448 0.11671 0.13095 0.0
O8 O 0.20492 0.14859 0.16245 0.0
C9 C 0.2021 0.12177 0.14475 0.0
C10 C 0.15242 0.20832 0.10944 0.0
C11 C 0.22941 0.11367 0.12561 0.0
C12 C 0.26927 0.12673 0.08673 0.0
C13 C 0.24134 0.13344 0.10168 0.0
C14 C 0.27326 0.07993 0.11868 0.0
C15 C 0.28621 0.10041 0.09574 0.0
C16 C 0.24523 0.08651 0.13336 0.0
C17 C 0.11403 0.13843 0.22859 0.0
C18 C 0.12602 0.09613 0.26485 0.0
C19 C 0.08388 0.12994 0.27691 0.0
C20 C 0.08989 0.14662 0.24886 0.0
C21 C 0.10188 0.10453 0.28544 0.0
C22 C 0.1321 0.11298 0.23672 0.0
C23 C 0.11994 0.15748 0.19973 0.0
O24 O 0.17084 0.21112 0.13513 0.0
O25 O 0.13778 0.17986 0.10573 0.0
O26 O 0.11415 0.14289 0.17139 0.0
O27 O 0.14553 0.17615 0.20046 0.0
H28 H 0.0913 0.22307 0.12152 0.0
H29 H 0.06501 0.26977 0.1026 0.0
H30 H 0.15042 0.30483 0.05995 0.0
H31 H 0.17568 0.25817 0.07777 0.0
H32 H 0.27796 0.14274 0.06864 0.0
H33 H 0.22954 0.15447 0.09517 0.0
H34 H 0.28549 0.05968 0.12655 0.0
H35 H 0.23644 0.07091 0.15179 0.0
H36 H 0.14048 0.0768 0.27069 0.0
H37 H 0.06475 0.13671 0.29169 0.0
H38 H 0.0756 0.16609 0.24299 0.0
H39 H 0.15092 0.10628 0.22148 0.0
C40 C 0.30375 0.9072 0.59759 0.0
C41 C 0.2974 0.93552 0.61482 0.0
C42 C 0.25 0.93934 0.5824 0.0
C43 C 0.27072 0.95144 0.60731 0.0
C44 C 0.25643 0.91071 0.56561 0.0
C45 C 0.28301 0.89484 0.57319 0.0
U46 U 0.378 0.89263 0.64673 0.0
O47 O 0.39654 0.84666 0.65887 0.0
O48 O 0.4236 0.88003 0.62911 0.0
C49 C 0.42164 0.85178 0.64197 0.0
C50 C 0.33192 0.89025 0.6042 0.0
C51 C 0.43128 0.82467 0.62168 0.0
C52 C 0.42178 0.7818 0.58057 0.0
C53 C 0.41149 0.80821 0.59848 0.0
C54 C 0.47138 0.78838 0.60909 0.0
C55 C 0.45195 0.77155 0.58571 0.0
C56 C 0.46121 0.81467 0.62662 0.0
C57 C 0.40227 0.94442 0.72268 0.0
C58 C 0.441 0.93106 0.76253 0.0
C59 C 0.41971 0.98334 0.7653 0.0
C60 C 0.40122 0.97484 0.73787 0.0
C61 C 0.43959 0.96146 0.7783 0.0
C62 C 0.4226 0.92267 0.73492 0.0
C63 C 0.38133 0.93571 0.69478 0.0
O64 O 0.35844 0.90664 0.60035 0.0
O65 O 0.33161 0.87329 0.63022 0.0
O66 O 0.36544 0.90795 0.69583 0.0
O67 O 0.39271 0.94113 0.66621 0.0
H68 H 0.31311 0.94534 0.63389 0.0
H69 H 0.26628 0.97316 0.62111 0.0
H70 H 0.24132 0.90091 0.54606 0.0
H71 H 0.28758 0.87299 0.55965 0.0
H72 H 0.40618 0.76954 0.56274 0.0
H73 H 0.38819 0.81563 0.59438 0.0
H74 H 0.49435 0.78083 0.61461 0.0
H75 H 0.47671 0.82697 0.64457 0.0
H76 H 0.45574 0.9134 0.77193 0.0
H77 H 0.41842 1.00713 0.77626 0.0
H78 H 0.38582 0.99202 0.72865 0.0
H79 H 0.42386 0.89906 0.72345 0.0
C80 C 0.60356 0.41889 0.81258 0.0
C81 C 0.61125 0.45103 0.80573 0.0
C82 C 0.58758 0.44204 0.75179 0.0
C83 C 0.60319 0.46261 0.77544 0.0
C84 C 0.58071 0.40984 0.75902 0.0
C85 C 0.5883 0.3986 0.78904 0.0
U86 U 0.64988 0.40853 0.89325 0.0
O87 O 0.632 0.38574 0.93683 0.0
O88 O 0.66803 0.36351 0.90861 0.0
C89 C 0.64849 0.36054 0.9323 0.0
C90 C 0.6117 0.40446 0.8431 0.0
C91 C 0.63251 0.32836 0.93415 0.0
C92 C 0.58621 0.29198 0.93315 0.0
C93 C 0.60014 0.32304 0.93103 0.0
C94 C 0.63682 0.27118 0.94032 0.0
C95 C 0.60437 0.26542 0.93781 0.0
C96 C 0.65056 0.30217 0.9389 0.0
C97 C 0.71832 0.46315 0.92526 0.0
C98 C 0.75471 0.44594 0.96565 0.0
C99 C 0.76228 0.49854 0.94357 0.0
C100 C 0.73549 0.49255 0.92429 0.0
C101 C 0.77277 0.47501 0.96393 0.0
C102 C 0.7277 0.4401 0.94653 0.0
C103 C 0.69213 0.45602 0.90236 0.0
O104 O 0.6383 0.39091 0.84374 0.0
O105 O 0.60543 0.41967 0.87037 0.0
O106 O 0.66422 0.45652 0.91443 0.0
O107 O 0.69533 0.43137 0.88232 0.0
H108 H 0.62334 0.46701 0.82363 0.0
H109 H 0.60874 0.48758 0.77077 0.0
H110 H 0.56957 0.39297 0.74132 0.0
H111 H 0.58248 0.37366 0.79377 0.0
H112 H 0.56117 0.28907 0.93161 0.0
H113 H 0.58559 0.34281 0.92716 0.0
H114 H 0.65199 0.25177 0.94299 0.0
H115 H 0.67558 0.30566 0.94123 0.0
H116 H 0.76209 0.4271 0.98068 0.0
H117 H 0.77508 0.52149 0.94201 0.0
H118 H 0.72859 0.51063 0.90803 0.0
H119 H 0.71468 0.41719 0.94754 0.0
C120 C 0.81473 0.58164 0.44301 0.0
C121 C 0.80935 0.59974 0.47147 0.0
C122 C 0.75854 0.57157 0.47593 0.0
C123 C 0.7814 0.5946 0.48795 0.0
C124 C 0.76462 0.55284 0.4482 0.0
C125 C 0.79245 0.55775 0.43201 0.0
U126 U 0.889 0.63102 0.41828 0.0
O127 O 0.93007 0.61389 0.39337 0.0
O128 O 0.90077 0.64796 0.37032 0.0
C129 C 0.92465 0.63016 0.36752 0.0
C130 C 0.84174 0.58868 0.42256 0.0
C131 C 0.92853 0.61467 0.33521 0.0
C132 C 0.93125 0.56841 0.29781 0.0
C133 C 0.92611 0.5813 0.32902 0.0
C134 C 0.94004 0.62203 0.27872 0.0
C135 C 0.93845 0.58864 0.27201 0.0
C136 C 0.93563 0.63468 0.30979 0.0
C137 C 0.91833 0.70694 0.46958 0.0
C138 C 0.95542 0.74896 0.45288 0.0
C139 C 0.93209 0.75345 0.50531 0.0
C140 C 0.91539 0.72406 0.49898 0.0
C141 C 0.95208 0.76666 0.48224 0.0
C142 C 0.93874 0.71939 0.44664 0.0
C143 C 0.89825 0.67745 0.46286 0.0
O144 O 0.84073 0.61478 0.40605 0.0
O145 O 0.86943 0.58462 0.43494 0.0
O146 O 0.91137 0.64992 0.46409 0.0
O147 O 0.87854 0.67842 0.43846 0.0
H148 H 0.82621 0.61844 0.48026 0.0
H149 H 0.77707 0.6095 0.50915 0.0
H150 H 0.7473 0.53504 0.43843 0.0
H151 H 0.79608 0.5436 0.4101 0.0
H152 H 0.93006 0.5426 0.29427 0.0
H153 H 0.9206 0.56524 0.34824 0.0
H154 H 0.94432 0.63892 0.26002 0.0
H155 H 0.93764 0.66049 0.31394 0.0
H156 H 0.97019 0.75835 0.43423 0.0
H157 H 0.9292 0.76583 0.52837 0.0
H158 H 0.8997 0.71489 0.51697 0.0
H159 H 0.94123 0.70664 0.42366 0.0
C160 C 0.90631 0.81348 0.94018 0.0
C161 C 0.9187 0.79629 0.91416 0.0
C162 C 0.93467 0.75491 0.95025 0.0
C163 C 0.93274 0.76738 0.91915 0.0
C164 C 0.92392 0.77329 0.97642 0.0
C165 C 0.90989 0.80216 0.97139 0.0
U166 U 0.87963 0.88692 0.89414 0.0
O167 O 0.83199 0.90028 0.88357 0.0
O168 O 0.86336 0.93275 0.91366 0.0
C169 C 0.83549 0.92756 0.90045 0.0
C170 C 0.887 0.84122 0.93525 0.0
C171 C 0.80858 0.9377 0.91913 0.0
C172 C 0.77342 0.93475 0.96444 0.0
C173 C 0.79967 0.92431 0.94833 0.0
C174 C 0.7652 0.97225 0.92263 0.0
C175 C 0.75563 0.95886 0.95171 0.0
C176 C 0.79111 0.96171 0.9066 0.0
C177 C 0.92375 0.90833 0.81498 0.0
C178 C 0.91644 0.95156 0.77828 0.0
C179 C 0.95494 0.91316 0.76689 0.0
C180 C 0.94705 0.89739 0.79497 0.0
C181 C 0.93981 0.94039 0.75829 0.0
C182 C 0.90826 0.93547 0.80637 0.0
C183 C 0.91677 0.89069 0.8445 0.0
O184 O 0.90076 0.87009 0.93901 0.0
O185 O 0.86732 0.83851 0.91057 0.0
O186 O 0.89084 0.87257 0.84419 0.0
O187 O 0.92284 0.90597 0.87243 0.0
H188 H 0.91654 0.8046 0.88984 0.0
H189 H 0.9413 0.75429 0.89845 0.0
H190 H 0.92477 0.76454 1.00063 0.0
H191 H 0.90057 0.81498 0.99186 0.0
H192 H 0.76681 0.92349 0.98655 0.0
H193 H 0.81277 0.9057 0.9585 0.0
H194 H 0.75289 0.99128 0.91222 0.0
H195 H 0.79759 0.97248 0.88416 0.0
H196 H 0.90477 0.97283 0.77228 0.0
H197 H 0.97347 0.90456 0.75227 0.0
H198 H 0.95944 0.87666 0.80128 0.0
H199 H 0.89021 0.94435 0.82145 0.0
C200 C 0.61815 0.13437 0.33008 0.0
C201 C 0.64197 0.1267 0.30902 0.0
C202 C 0.60421 0.09858 0.27162 0.0
C203 C 0.63505 0.10911 0.27999 0.0
C204 C 0.58089 0.10457 0.294 0.0
C205 C 0.58774 0.12254 0.32261 0.0
U206 U 0.66356 0.16484 0.40757 0.0
O207 O 0.67485 0.21404 0.42648 0.0
O208 O 0.64509 0.18127 0.4542 0.0
C209 C 0.65706 0.21069 0.45165 0.0
C210 C 0.62372 0.15605 0.35892 0.0
C211 C 0.63621 0.23673 0.4582 0.0
C212 C 0.60399 0.2782 0.43946 0.0
C213 C 0.61998 0.25057 0.43317 0.0
C214 C 0.61836 0.27714 0.49615 0.0
C215 C 0.60382 0.2923 0.47087 0.0
C216 C 0.63453 0.24965 0.48981 0.0
C217 C 0.73718 0.1202 0.43053 0.0
C218 C 0.77961 0.13612 0.46856 0.0
C219 C 0.77827 0.08444 0.43981 0.0
C220 C 0.75043 0.09089 0.42461 0.0
C221 C 0.79345 0.10715 0.46145 0.0
C222 C 0.75159 0.14272 0.45301 0.0
C223 C 0.70958 0.12677 0.41107 0.0
O224 O 0.61941 0.14309 0.38697 0.0
O225 O 0.64814 0.17642 0.35876 0.0
O226 O 0.711 0.15343 0.39524 0.0
O227 O 0.68243 0.12024 0.42381 0.0
H228 H 0.66576 0.1352 0.31443 0.0
H229 H 0.6537 0.10513 0.26353 0.0
H230 H 0.55703 0.09604 0.28918 0.0
H231 H 0.56904 0.12788 0.33861 0.0
H232 H 0.59273 0.28929 0.41955 0.0
H233 H 0.62073 0.2408 0.40862 0.0
H234 H 0.61882 0.28762 0.52048 0.0
H235 H 0.64686 0.23926 0.50943 0.0
H236 H 0.79108 0.15406 0.48498 0.0
H237 H 0.78849 0.06194 0.43398 0.0
H238 H 0.73967 0.07325 0.40736 0.0
H239 H 0.74169 0.16557 0.45783 0.0
C240 C 0.30286 0.62472 0.14799 0.0
C241 C 0.29519 0.64756 0.12568 0.0
C242 C 0.24964 0.61391 0.10746 0.0
C243 C 0.26871 0.64226 0.10567 0.0
C244 C 0.25793 0.5908 0.12932 0.0
C245 C 0.28425 0.59622 0.14944 0.0
U246 U 0.37485 0.67551 0.17677 0.0
O247 O 0.39003 0.69301 0.22555 0.0
O248 O 0.41955 0.66209 0.19698 0.0
C249 C 0.41571 0.67774 0.22461 0.0
C250 C 0.32942 0.6309 0.17067 0.0
C251 C 0.42454 0.66211 0.25427 0.0
C252 C 0.42227 0.61792 0.29088 0.0
C253 C 0.41234 0.63159 0.26229 0.0
C254 C 0.45587 0.66546 0.30353 0.0
C255 C 0.44449 0.63467 0.31163 0.0
C256 C 0.44611 0.67889 0.27518 0.0
C257 C 0.39571 0.75046 0.127 0.0
C258 C 0.42748 0.79891 0.14313 0.0
C259 C 0.40325 0.79343 0.08987 0.0
C260 C 0.39084 0.76297 0.09667 0.0
C261 C 0.42077 0.81228 0.11332 0.0
C262 C 0.41482 0.76817 0.15003 0.0
C263 C 0.37794 0.72055 0.13437 0.0
O264 O 0.35696 0.62756 0.15848 0.0
O265 O 0.32828 0.65676 0.18956 0.0
O266 O 0.36083 0.72178 0.16017 0.0
O267 O 0.39198 0.69366 0.13071 0.0
H268 H 0.30936 0.66971 0.12417 0.0
H269 H 0.26298 0.66043 0.089 0.0
H270 H 0.24344 0.56898 0.13167 0.0
H271 H 0.28973 0.5784 0.16661 0.0
H272 H 0.41319 0.59407 0.29633 0.0
H273 H 0.3955 0.61833 0.24641 0.0
H274 H 0.47249 0.67932 0.31915 0.0
H275 H 0.45559 0.70254 0.26948 0.0
H276 H 0.44117 0.81274 0.16154 0.0
H277 H 0.39834 0.80267 0.06638 0.0
H278 H 0.37635 0.74962 0.07854 0.0
H279 H 0.41898 0.75876 0.17359 0.0
C280 C 0.08096 0.34062 0.60986 0.0
C281 C 0.10211 0.3192 0.59739 0.0
C282 C 0.05948 0.28018 0.58217 0.0
C283 C 0.09141 0.28919 0.58356 0.0
C284 C 0.03848 0.30287 0.59205 0.0
C285 C 0.04912 0.3327 0.60575 0.0
U286 U 0.13563 0.41433 0.63786 0.0
O287 O 0.12402 0.45995 0.66215 0.0
O288 O 0.15355 0.42727 0.68687 0.0
C289 C 0.13926 0.45411 0.68884 0.0
C290 C 0.09099 0.36879 0.63118 0.0
C291 C 0.12421 0.46108 0.71978 0.0
C292 C 0.09118 0.44534 0.76411 0.0
C293 C 0.10202 0.43955 0.73282 0.0
C294 C 0.1234 0.49485 0.76888 0.0
C295 C 0.10218 0.47284 0.78253 0.0
C296 C 0.13443 0.4889 0.73787 0.0
C297 C 0.20914 0.43584 0.58927 0.0
C298 C 0.24687 0.48064 0.60068 0.0
C299 C 0.2607 0.43544 0.56682 0.0
C300 C 0.23095 0.42106 0.57012 0.0
C301 C 0.26937 0.46516 0.58251 0.0
C302 C 0.21709 0.466 0.60422 0.0
C303 C 0.17929 0.41802 0.5946 0.0
O304 O 0.11634 0.3663 0.6487 0.0
O305 O 0.08873 0.39742 0.6196 0.0
O306 O 0.15399 0.43394 0.59295 0.0
O307 O 0.17939 0.39844 0.61859 0.0
H308 H 0.12686 0.32482 0.60005 0.0
H309 H 0.10816 0.2722 0.57624 0.0
H310 H 1.01375 0.29674 0.59101 0.0
H311 H 0.03237 0.34881 0.61502 0.0
H312 H 0.07448 0.42826 0.77407 0.0
H313 H 0.09375 0.41798 0.7192 0.0
H314 H 0.13221 0.51615 0.78263 0.0
H315 H 0.15168 0.50569 0.72833 0.0
H316 H 0.25242 0.5038 0.61269 0.0
H317 H 0.27727 0.42242 0.5531 0.0
H318 H 0.22528 0.39772 0.55849 0.0
H319 H 0.20057 0.47786 0.61913 0.0
O320 O 0.97623 0.04163 0.5095 0.0
Mn321 Mn 0.01887 0.02223 0.52123 0.0
O322 O 0.96245 1.01579 0.46237 0.0
Mn323 Mn 0.99469 0.98902 0.46074 0.0
O324 O 0.06159 1.00136 0.53052 0.0
O325 O 0.03259 0.06714 0.54296 0.0
Mn326 Mn 0.05294 0.05302 0.57691 0.0
O327 O 0.99952 1.0048 0.56445 0.0
O328 O 0.08831 0.03438 0.56549 0.0
O329 O 0.0385 0.041 0.4785 0.0
O330 O 0.02876 1.00397 0.43927 0.0
O331 O 0.05747 0.09499 0.58441 0.0
O332 O 0.02732 0.03103 0.60417 0.0
C333 C 0.99525 0.949 0.48798 0.0
C334 C 0.95801 0.03681 0.48456 0.0
C335 C 0.08682 1.01033 0.54611 0.0
C336 C 0.04172 0.09497 0.55745 0.0
C337 C 1.00551 1.01103 0.59473 0.0
C338 C 0.04251 0.02997 0.44953 0.0
O339 O 1.0043 0.97768 0.50024 0.0
O340 O 0.98585 0.94671 0.45804 0.0
O341 O 0.50557 0.02419 0.97711 0.0
Mn342 Mn 0.5228 0.03218 0.02438 0.0
O343 O 0.52421 0.97812 0.96085 0.0
Mn344 Mn 0.53584 0.96601 1.00145 0.0
O345 O 0.5385 0.04081 0.07298 0.0
O346 O 0.53086 0.07994 1.01216 0.0
Mn347 Mn 0.51397 0.09899 0.0455 0.0
O348 O 0.47538 0.03754 0.03833 0.0
O349 O 0.53584 0.09353 0.0826 0.0
O350 O 0.56972 0.02583 1.00977 0.0
O351 O 0.57722 0.97323 1.01052 0.0
O352 O 0.52537 0.13257 0.02297 0.0
O353 O 0.47256 0.09016 0.04691 0.0
C354 C 0.5009 0.95768 0.03595 0.0
C355 C 0.50973 1.00271 0.95513 0.0
C356 C 0.54234 0.06615 0.09164 0.0
C357 C 0.53594 0.11016 1.00447 0.0
C358 C 0.45962 0.06227 0.04486 0.0
C359 C 0.5878 1.00209 1.00877 0.0
O360 O 0.51819 0.98443 0.03565 0.0
O361 O 0.50869 0.93554 1.01551 0.0
O362 O 0.56028 0.54352 0.51904 0.0
Mn363 Mn 0.51444 0.52787 0.5287 0.0
O364 O 0.56974 0.5169 0.4722 0.0
Mn365 Mn 0.52978 0.49877 0.46334 0.0
O366 O 0.46816 0.51188 0.53785 0.0
O367 O 0.52547 0.53255 0.57661 0.0
Mn368 Mn 0.49565 0.5529 0.59526 0.0
O369 O 0.50033 0.57521 0.52759 0.0
O370 O 0.45957 0.52729 0.58927 0.0
O371 O 0.52857 0.47974 0.52968 0.0
O372 O 0.51881 0.46004 0.47972 0.0
O373 O 0.52238 0.54613 0.6282 0.0
O374 O 0.4942 0.59268 0.57885 0.0
C375 C 0.49512 0.52937 0.45085 0.0
C376 C 0.57842 0.53581 0.4961 0.0
C377 C 0.45054 0.51328 0.5626 0.0
C378 C 0.53717 0.53154 0.60566 0.0
C379 C 0.49415 0.59704 0.54879 0.0
C380 C 0.526 0.45595 0.50884 0.0
O381 O 0.50444 0.52558 0.48041 0.0
O382 O 0.50781 0.51179 0.42902 0.0
O383 O 0.96837 0.51628 0.02859 0.0
Mn384 Mn 0.01781 0.52585 0.02729 0.0
O385 O 0.96607 0.48264 0.98953 0.0
Mn386 Mn 0.98581 0.51949 0.97523 0.0
O387 O 0.06628 0.53815 0.02798 0.0
O388 O 1.0118 0.53409 0.07709 0.0
Mn389 Mn 0.04737 0.51831 0.08977 0.0
O390 O 0.02477 0.47618 0.03329 0.0
O391 O 0.08073 0.54429 0.07957 0.0
O392 O 1.00984 0.57381 0.01998 0.0
O393 O 0.9726 0.561 0.98366 0.0
O394 O 0.03141 0.52787 0.12741 0.0
O395 O 0.04942 0.47529 0.08104 0.0
C396 C 0.01997 0.51615 0.94478 0.0
C397 C 0.95232 0.49418 1.01275 0.0
C398 C 0.08614 0.5479 0.0502 0.0
C399 C 1.00993 0.53804 0.10884 0.0
C400 C 0.03777 0.46096 0.05587 0.0
C401 C 0.98822 0.58217 1.00106 0.0
O402 O 0.02695 0.51888 0.97628 0.0
O403 O 0.99153 0.51459 0.9341 0.0
H404 H 0.0861 0.1284 0.34523 0.0
H405 H 0.1014 0.03975 0.29266 0.0
H406 H 0.08775 1.0096 0.34003 0.0
H407 H 0.06864 1.00786 0.39506 0.0
H408 H 0.05137 0.09566 0.44789 0.0
H409 H 0.06894 0.12668 0.40192 0.0
C410 C 0.08645 0.10247 0.34411 0.0
C411 C 0.09485 0.08646 0.31519 0.0
C412 C 0.0784 0.08513 0.37158 0.0
C413 C 0.0955 0.05285 0.31451 0.0
C414 C 0.08752 0.03552 0.3416 0.0
C415 C 0.06921 0.03385 0.3968 0.0
C416 C 0.05889 0.0494 0.42505 0.0
C417 C 0.07871 0.05137 0.37012 0.0
C418 C 0.05972 0.08308 0.42677 0.0
C419 C 0.0694 0.10079 0.40028 0.0
H420 H 0.42276 0.99694 0.83145 0.0
H421 H 0.4987 0.94557 0.79325 0.0
H422 H 0.52793 0.95643 0.84373 0.0
H423 H 0.53082 0.97757 0.89956 0.0
H424 H 0.45599 0.0301 0.93795 0.0
H425 H 0.42793 0.02285 0.88591 0.0
C426 C 0.44594 0.98861 0.83381 0.0
C427 C 0.45823 0.97005 0.80847 0.0
C428 C 0.46292 0.99535 0.86284 0.0
C429 C 0.48821 0.95919 0.81244 0.0
C430 C 0.50512 0.96564 0.84124 0.0
C431 C 0.50854 0.98785 0.89641 0.0
C432 C 0.49538 1.00416 0.92258 0.0
C433 C 0.4925 0.98324 0.86671 0.0
C434 C 0.46669 0.01763 0.91809 0.0
C435 C 0.45053 1.01319 0.88845 0.0
H436 H 0.61765 0.48585 0.713 0.0
H437 H 0.53384 0.42451 0.71877 0.0
H438 H 0.51794 0.43835 0.66515 0.0
H439 H 0.5239 0.47204 0.61962 0.0
H440 H 0.59902 0.54416 0.61916 0.0
H441 H 0.62356 0.52067 0.66584 0.0
C442 C 0.59591 0.47557 0.70254 0.0
C443 C 0.57752 0.45333 0.71978 0.0
C444 C 0.58589 0.48488 0.6719 0.0
C445 C 0.5492 0.44063 0.7058 0.0
C446 C 0.53994 0.44858 0.67502 0.0
C447 C 0.54649 0.48151 0.6288 0.0
C448 C 0.55986 0.50935 0.61591 0.0
C449 C 0.55793 0.47076 0.65797 0.0
C450 C 0.58867 0.52217 0.62834 0.0
C451 C 0.60212 0.50937 0.65569 0.0
H452 H 0.97385 0.61674 0.22487 0.0
H453 H 0.9172 0.53041 0.24216 0.0
H454 H 0.92917 0.50895 0.18873 0.0
H455 H 0.95984 0.51291 0.13892 0.0
H456 H 1.01145 0.60138 0.12061 0.0
H457 H 0.99504 0.62482 0.17179 0.0
C458 C 0.96282 0.59376 0.217 0.0
C459 C 0.94451 0.57554 0.23842 0.0
C460 C 0.96825 0.58218 0.18547 0.0
C461 C 0.93203 0.54505 0.22718 0.0
C462 C 0.93842 0.53283 0.19619 0.0
C463 C 0.96576 0.538 0.14522 0.0
C464 C 0.9863 0.55565 0.12563 0.0
C465 C 0.95678 0.55106 0.17523 0.0
C466 C 0.9948 0.58771 0.13465 0.0
C467 C 0.98614 0.60079 0.16443 0.0
H468 H 0.31646 0.04436 0.08168 0.0
H469 H 0.32989 0.14787 0.08442 0.0
H470 H 0.38252 0.14392 0.06691 0.0
H471 H 0.42468 0.11286 0.05231 0.0
H472 H 0.41698 1.00937 0.0526 0.0
H473 H 0.36188 1.01168 0.06716 0.0
C474 C 0.3309 0.06604 0.07844 0.0
C475 C 0.31849 0.09651 0.08382 0.0
C476 C 0.3621 0.06367 0.0689 0.0
C477 C 0.33789 0.12417 0.07949 0.0
C478 C 0.36832 0.12196 0.06977 0.0
C479 C 0.41142 0.09039 0.05552 0.0
C480 C 0.4255 0.06086 0.05144 0.0
C481 C 0.38057 0.09201 0.06452 0.0
C482 C 0.40705 0.03246 0.05548 0.0
C483 C 0.37555 0.03387 0.06397 0.0
H484 H 0.19167 0.91429 0.56458 0.0
H485 H 0.24604 1.00408 0.5792 0.0
H486 H 0.20087 0.03339 0.56567 0.0
H487 H 0.14574 0.03387 0.5525 0.0
H488 H 0.09039 0.94503 0.53757 0.0
H489 H 0.1366 0.91483 0.54699 0.0
C490 C 0.19378 0.94025 0.56438 0.0
C491 C 0.22228 0.9569 0.57335 0.0
C492 C 0.16769 0.95707 0.55614 0.0
C493 C 0.22436 0.99059 0.57323 0.0
C494 C 0.1986 1.0074 0.56514 0.0
C495 C 0.14385 1.00785 0.55082 0.0
C496 C 0.11474 0.99164 0.54453 0.0
C497 C 0.17015 0.99091 0.55695 0.0
C498 C 0.11262 0.958 0.54211 0.0
C499 C 0.13895 0.94081 0.54789 0.0
H500 H 0.82507 0.50506 0.94196 0.0
H501 H 0.79042 0.4551 0.02417 0.0
H502 H 0.84254 0.45909 0.04898 0.0
H503 H 0.89951 0.47343 0.04494 0.0
H504 H 0.93104 0.52338 0.9614 0.0
H505 H 0.87871 0.52405 0.94059 0.0
C506 C 0.82846 0.4958 0.96575 0.0
C507 C 0.80363 0.47979 0.981 0.0
C508 C 0.85822 0.49846 0.97997 0.0
C509 C 0.80912 0.46715 1.01147 0.0
C510 C 0.83895 0.46959 0.02583 0.0
C511 C 0.89465 0.4852 0.02273 0.0
C512 C 0.91929 0.49905 1.0053 0.0
C513 C 0.86393 0.48473 1.01002 0.0
C514 C 0.91266 0.51359 0.97606 0.0
C515 C 0.88262 0.5135 0.96369 0.0
H516 H 0.70656 0.58905 0.44747 0.0
H517 H 0.73995 0.54779 0.53395 0.0
H518 H 0.68619 0.53636 0.55094 0.0
H519 H 0.62918 0.53257 0.53717 0.0
H520 H 0.59791 0.57357 0.44939 0.0
H521 H 0.65101 0.59118 0.43716 0.0
C522 C 0.70198 0.57808 0.47033 0.0
C523 C 0.72693 0.56909 0.48936 0.0
C524 C 0.67128 0.57146 0.47959 0.0
C525 C 0.72095 0.55493 0.51896 0.0
C526 C 0.69024 0.54828 0.52854 0.0
C527 C 0.63409 0.54614 0.51591 0.0
C528 C 0.60973 0.55185 0.49412 0.0
C529 C 0.6651 0.55567 0.50858 0.0
C530 C 0.61632 0.56901 0.46642 0.0
C531 C 0.64668 0.57892 0.45933 0.0
H532 H 0.05943 0.32595 0.10657 0.0
H533 H 0.11564 0.32088 0.02179 0.0
H534 H 0.09654 0.371 1.00407 0.0
H535 H 0.06829 0.42005 1.01576 0.0
H536 H 1.01034 0.42337 0.09897 0.0
H537 H 0.02476 0.37018 0.11333 0.0
C538 C 0.06706 0.33527 0.08384 0.0
C539 C 0.08985 0.31969 0.06626 0.0
C540 C 0.05542 0.36405 0.0732 0.0
C541 C 0.09915 0.33265 0.03677 0.0
C542 C 0.08795 0.36133 0.02628 0.0
C543 C 0.05776 0.40845 0.03612 0.0
C544 C 0.03785 0.42549 0.05595 0.0
C545 C 0.06665 0.37777 0.04468 0.0
C546 C 0.02522 0.41049 0.08294 0.0
C547 C 0.03383 0.3802 0.09147 0.0
H548 H 0.62625 0.21546 0.97135 0.0
H549 H 0.54924 0.23908 0.91027 0.0
H550 H 0.52365 0.18673 0.9187 0.0
H551 H 0.52018 0.13736 0.9494 0.0
H552 H 0.59816 0.11315 1.00766 0.0
H553 H 0.6275 0.16158 0.99194 0.0
C554 C 0.60442 0.20914 0.95875 0.0
C555 C 0.58977 0.23206 0.94054 0.0
C556 C 0.59025 0.17836 0.96254 0.0
C557 C 0.56091 0.22285 0.92539 0.0
C558 C 0.54636 0.19253 0.92972 0.0
C559 C 0.54435 0.14162 0.95686 0.0
C560 C 0.55702 0.12163 0.97958 0.0
C561 C 0.56051 0.17037 0.94884 0.0
C562 C 0.5881 0.12774 0.98963 0.0
C563 C 0.60453 0.15605 0.98144 0.0
H564 H 0.9311 0.81943 0.51485 0.0
H565 H 1.01041 0.78741 0.4636 0.0
H566 H 0.03497 0.84147 0.46847 0.0
H567 H 0.03058 0.89906 0.48037 0.0
H568 H 0.95133 0.9313 0.53061 0.0
H569 H 0.93098 0.87571 0.53487 0.0
C570 C 0.95413 0.82388 0.50547 0.0
C571 C 0.96849 0.7991 0.48833 0.0
C572 C 0.96841 0.85512 0.50869 0.0
C573 C 0.99822 0.80593 0.47606 0.0
C574 C 1.01252 0.83686 0.47916 0.0
C575 C 1.00976 0.89373 0.49389 0.0
C576 C 0.99282 0.91922 0.50578 0.0
C577 C 0.99748 0.86181 0.49466 0.0
C578 C 0.96531 0.91211 0.52223 0.0
C579 C 0.95328 0.8803 0.52386 0.0
H580 H 0.41888 0.7155 0.56698 0.0
H581 H 0.51064 0.76247 0.56476 0.0
H582 H 0.53179 0.71232 0.54707 0.0
H583 H 0.52548 0.65359 0.54061 0.0
H584 H 0.43395 0.60695 0.54049 0.0
H585 H 0.41124 0.65867 0.54926 0.0
C586 C 0.44332 0.71515 0.56164 0.0
C587 C 0.4632 0.74268 0.56832 0.0
C588 C 0.4554 0.68625 0.55075 0.0
C589 C 0.49487 0.74145 0.56115 0.0
C590 C 0.50704 0.71281 0.55069 0.0
C591 C 0.50049 0.6551 0.54074 0.0
C592 C 0.4813 0.62688 0.53932 0.0
C593 C 0.48773 0.68482 0.54653 0.0
C594 C 0.44899 0.62869 0.54066 0.0
C595 C 0.43608 0.65817 0.54628 0.0
H596 H 0.93074 0.92482 0.69384 0.0
H597 H 0.97479 0.996 0.76047 0.0
H598 H 0.99816 0.02423 0.71558 0.0
H599 H 1.00722 0.02789 0.65834 0.0
H600 H 0.96358 0.9579 0.5899 0.0
H601 H 0.93814 0.93033 0.63451 0.0
C602 C 0.9451 0.94678 0.69828 0.0
C603 C 0.95085 0.95863 0.73032 0.0
C604 C 0.95836 0.96304 0.67216 0.0
C605 C 0.96972 0.98683 0.73601 0.0
C606 C 0.98317 1.00283 0.71037 0.0
C607 C 0.99211 1.00663 0.65286 0.0
C608 C 0.98761 0.99489 0.62059 0.0
C609 C 0.9778 0.99104 0.67846 0.0
C610 C 0.96756 0.9675 0.61437 0.0
C611 C 0.95311 0.95168 0.63993 0.0
H612 H 0.55185 0.10637 0.23637 0.0
H613 H 0.6377 0.05881 0.23201 0.0
H614 H 0.62518 0.04069 0.17609 0.0
H615 H 0.59129 0.04307 0.12642 0.0
H616 H 0.50398 0.08726 0.13536 0.0
H617 H 0.5152 0.10084 0.19188 0.0
C618 C 0.56755 0.09111 0.22391 0.0
C619 C 0.59578 0.08421 0.23873 0.0
C620 C 0.55988 0.08006 0.19233 0.0
C621 C 0.61604 0.0652 0.2212 0.0
C622 C 0.60878 0.05456 0.18922 0.0
C623 C 0.57441 0.05459 0.14117 0.0
C624 C 0.54698 0.0644 0.12678 0.0
C625 C 0.58097 0.06242 0.17421 0.0
C626 C 0.52531 0.07959 0.14599 0.0
C627 C 0.53176 0.08761 0.17827 0.0
H628 H 0.41336 0.5989 0.35659 0.0
H629 H 0.50466 0.63731 0.3323 0.0
H630 H 0.52662 0.61552 0.38043 0.0
H631 H 0.52135 0.58087 0.42587 0.0
H632 H 0.43257 0.53516 0.44665 0.0
H633 H 0.40782 0.56555 0.40477 0.0
C634 C 0.43803 0.6025 0.3619 0.0
C635 C 0.4572 0.62015 0.34095 0.0
C636 C 0.45082 0.5892 0.38954 0.0
C637 C 0.48917 0.62452 0.34826 0.0
C638 C 0.50183 0.61202 0.37582 0.0
C639 C 0.49633 0.57882 0.42222 0.0
C640 C 0.4786 0.55657 0.43972 0.0
C641 C 0.48298 0.59412 0.39643 0.0
C642 C 0.44644 0.553 0.43412 0.0
C643 C 0.4325 0.56974 0.40959 0.0
H644 H 0.07156 0.52266 0.80671 0.0
H645 H 0.11191 0.43575 0.83387 0.0
H646 H 0.0957 0.44467 0.88977 0.0
H647 H 0.06447 0.4743 0.92943 0.0
H648 H 0.02395 0.56077 0.9009 0.0
H649 H 0.04555 0.55506 0.84737 0.0
C650 C 0.07689 0.50582 0.82499 0.0
C651 C 0.09237 0.47834 0.81627 0.0
C652 C 0.06743 0.51109 0.85692 0.0
C653 C 0.09933 0.4567 0.84004 0.0
C654 C 0.09028 0.46193 0.872 0.0
C655 C 0.06177 0.49262 0.91196 0.0
C656 C 0.04324 0.51827 0.91932 0.0
C657 C 0.07375 0.48874 0.88066 0.0
C658 C 0.03888 0.54129 0.89603 0.0
C659 C 0.05078 0.53776 0.8652 0.0
H660 H 0.70214 0.97894 0.92397 0.0
H661 H 0.74456 0.96441 1.01703 0.0
H662 H 0.6977 0.98058 0.04356 0.0
H663 H 0.6428 0.9949 0.04012 0.0
H664 H 0.60237 1.01282 0.94735 0.0
H665 H 0.65058 1.00024 0.92106 0.0
C666 C 0.70167 0.97994 0.9501 0.0
C667 C 0.72719 0.96998 0.96822 0.0
C668 C 0.67493 0.99023 0.96537 0.0
C669 C 0.72528 0.97099 1.00214 0.0
C670 C 0.69851 0.98063 1.01746 0.0
C671 C 0.64513 0.99741 1.01433 0.0
C672 C 0.61938 1.00576 0.9958 0.0
C673 C 0.67301 0.98991 0.99932 0.0
C674 C 0.62224 1.00771 0.96224 0.0
C675 C 0.64964 0.99991 0.94714 0.0
H676 H 0.84278 0.09822 0.42538 0.0
H677 H 0.81437 0.10224 0.52422 0.0
H678 H 0.86493 0.08385 0.54179 0.0
H679 H 0.91545 0.06067 0.52738 0.0
H680 H 0.94146 0.05804 0.4273 0.0
H681 H 0.89392 0.08181 0.41196 0.0
C682 C 0.84788 0.0955 0.45084 0.0
C683 C 0.82502 0.10117 0.47346 0.0
C684 C 0.87657 0.08485 0.46049 0.0
C685 C 0.83179 0.09791 0.50641 0.0
C686 C 0.86059 0.08724 0.51637 0.0
C687 C 0.91092 0.06609 0.50243 0.0
C688 C 0.93179 0.05715 0.47847 0.0
C689 C 0.88298 0.07981 0.49347 0.0
C690 C 0.92559 0.06423 0.44617 0.0
C691 C 0.89838 0.07784 0.43727 0.0
H692 H 0.22697 0.56025 0.07324 0.0
H693 H 0.20561 0.65718 0.09948 0.0
H694 H 0.15342 0.64721 0.07608 0.0
H695 H 0.1114 0.6081 0.05715 0.0
H696 H 0.13222 0.51099 0.03218 0.0
H697 H 0.18711 0.52382 0.04548 0.0
C698 C 0.21101 0.5793 0.07336 0.0
C699 C 0.22 0.60925 0.0885 0.0
C700 C 0.18094 0.57334 0.06001 0.0
C701 C 0.19929 0.63391 0.088 0.0
C702 C 0.16937 0.62819 0.07475 0.0
C703 C 0.12833 0.59031 0.05298 0.0
C704 C 0.11808 0.55885 0.04314 0.0
C705 C 0.15962 0.59768 0.06171 0.0
C706 C 0.13986 0.53559 0.0388 0.0
C707 C 0.17112 0.54279 0.04706 0.0
H708 H 0.31097 0.46237 0.53292 0.0
H709 H 0.30277 0.49699 0.63185 0.0
H710 H 0.35747 0.51414 0.63388 0.0
H711 H 0.40777 0.51731 0.60919 0.0
H712 H 0.4181 0.48249 0.51077 0.0
H713 H 0.3625 0.46625 0.50751 0.0
C714 C 0.32112 0.4735 0.55502 0.0
C715 C 0.30239 0.47824 0.58221 0.0
C716 C 0.35309 0.48271 0.55639 0.0
C717 C 0.3161 0.49341 0.61031 0.0
C718 C 0.34762 0.50289 0.61168 0.0
C719 C 0.39816 0.50602 0.5869 0.0
C720 C 0.41741 0.50097 0.56031 0.0
C721 C 0.36634 0.49726 0.58508 0.0
C722 C 0.40405 0.48648 0.53173 0.0
C723 C 0.37219 0.47737 0.52982 0.0
H724 H 0.97032 0.73241 0.99982 0.0
H725 H 0.92081 0.70169 0.91139 0.0
H726 H 0.93316 0.6466 0.91949 0.0
H727 H 0.95623 0.60661 0.95195 0.0
H728 H 1.00643 0.63542 0.04032 0.0
H729 H 0.9953 0.69154 0.03213 0.0
C730 C 0.96225 0.71367 0.98231 0.0
C731 C 0.94469 0.72157 0.95486 0.0
C732 C 0.96931 0.68155 0.98723 0.0
C733 C 0.93479 0.69678 0.93237 0.0
C734 C 0.94159 0.66505 0.93714 0.0
C735 C 0.9647 0.62504 0.96964 0.0
C736 C 0.98187 0.61656 0.99699 0.0
C737 C 0.95855 0.65712 0.96456 0.0
C738 C 0.99304 0.64108 0.01917 0.0
C739 C 0.98667 0.67322 1.01444 0.0
H740 H 0.47761 0.84532 0.12302 0.0
H741 H 0.38399 0.85591 0.0888 0.0
H742 H 0.39929 0.90803 0.06805 0.0
H743 H 0.44101 0.94541 0.05053 0.0
H744 H 0.53445 0.93619 0.08498 0.0
H745 H 0.51759 0.88953 0.11528 0.0
C746 C 0.46046 0.85944 0.11175 0.0
C747 C 0.42989 0.84627 0.10655 0.0
C748 C 0.46942 0.88976 0.09986 0.0
C749 C 0.4079 0.86502 0.09214 0.0
C750 C 0.41656 0.89497 0.08042 0.0
C751 C 0.45726 0.93441 0.06632 0.0
C752 C 0.48877 0.94454 0.0659 0.0
C753 C 0.44748 0.90701 0.08294 0.0
C754 C 0.50985 0.92941 0.08569 0.0
C755 C 0.50033 0.90217 0.1024 0.0
H756 H 0.07198 0.23773 0.53165 0.0
H757 H 0.02238 0.24549 0.6207 0.0
H758 H 1.00542 0.18907 0.61552 0.0
H759 H 1.00923 0.13654 0.58962 0.0
H760 H 0.06235 0.12548 0.50377 0.0
H761 H 0.07161 0.18405 0.50231 0.0
C762 C 0.05708 0.22705 0.54956 0.0
C763 C 0.04814 0.246 0.57635 0.0
C764 C 0.04737 0.19407 0.54652 0.0
C765 C 0.02906 0.23174 0.59953 0.0
C766 C 0.01935 0.19939 0.59664 0.0
C767 C 0.02155 0.1471 0.56967 0.0
C768 C 0.0345 0.12682 0.54646 0.0
C769 C 0.02864 0.18029 0.57053 0.0
C770 C 0.05132 0.14063 0.52134 0.0
C771 C 0.05731 0.1741 0.52108 0.0
H772 H 0.56457 0.31338 0.51772 0.0
H773 H 0.61836 0.34441 0.43673 0.0
H774 H 0.60261 0.39886 0.44562 0.0
H775 H 0.57252 0.43704 0.47441 0.0
H776 H 0.5135 0.40746 0.55166 0.0
H777 H 0.53331 0.35327 0.54739 0.0
C778 C 0.57275 0.33217 0.50213 0.0
C779 C 0.59239 0.32482 0.47636 0.0
C780 C 0.56318 0.36366 0.50715 0.0
C781 C 0.60284 0.3493 0.45628 0.0
C782 C 0.59411 0.38051 0.46156 0.0
C783 C 0.56434 0.41885 0.49076 0.0
C784 C 0.54186 0.42614 0.51352 0.0
C785 C 0.57427 0.38784 0.48674 0.0
C786 C 0.53125 0.40249 0.5344 0.0
C787 C 0.54222 0.37146 0.53152 0.0
loop_
_geom_bond_atom_site_label_1
_geom_bond_atom_site_label_2
_geom_bond_distance
_geom_bond_site_symmetry_2
_ccdc_geom_bond_type
C0 C1 1.264 . S
C0 C5 1.479 . S
C0 C10 1.465 . S
C1 C0 1.264 . S
C1 C3 1.339 . S
C1 H28 0.931 . S
C2 C3 1.395 . S
C2 C4 1.320 . S
C3 C1 1.339 . S
C3 C2 1.395 . S
C3 H29 0.929 . S
C4 C2 1.320 . S
C4 C5 1.405 . S
C4 H30 0.930 . S
C5 C0 1.479 . S
C5 C4 1.405 . S
C5 H31 0.931 . S
U6 O7 2.454 . S
U6 O8 2.458 . S
U6 C9 2.984 . S
U6 C10 2.847 . S
U6 C23 2.882 . S
U6 O24 2.441 . S
U6 O25 2.420 . S
U6 O26 2.455 . S
U6 O27 2.449 . S
O7 U6 2.454 . S
O7 C9 1.353 . S
O8 U6 2.458 . S
O8 C9 1.286 . S
C9 U6 2.984 . S
C9 O7 1.353 . S
C9 O8 1.286 . S
C9 C11 1.363 . S
C10 C0 1.465 . S
C10 U6 2.847 . S
C10 O24 1.249 . S
C10 O25 1.202 . S
C11 C9 1.363 . S
C11 C13 1.408 . S
C11 C16 1.342 . S
C12 C13 1.310 . S
C12 C15 1.461 . S
C12 H32 0.932 . S
C13 C11 1.408 . S
C13 C12 1.310 . S
C13 H33 0.930 . S
C14 C15 1.474 . S
C14 C16 1.285 . S
C14 H34 0.929 . S
C15 C12 1.461 . S
C15 C14 1.474 . S
C16 C11 1.342 . S
C16 C14 1.285 . S
C16 H35 0.930 . S
C17 C20 1.424 . S
C17 C22 1.245 . S
C17 C23 1.428 . S
C18 C21 1.260 . S
C18 C22 1.477 . S
C18 H36 0.932 . S
C19 C20 1.384 . S
C19 C21 1.479 . S
C19 H37 0.929 . S
C20 C17 1.424 . S
C20 C19 1.384 . S
C20 H38 0.928 . S
C21 C18 1.260 . S
C21 C19 1.479 . S
C22 C17 1.245 . S
C22 C18 1.477 . S
C22 H39 0.932 . S
C23 U6 2.882 . S
C23 C17 1.428 . S
C23 O26 1.301 . S
C23 O27 1.282 . S
O24 U6 2.441 . S
O24 C10 1.249 . S
O25 U6 2.420 . S
O25 C10 1.202 . S
O26 U6 2.455 . S
O26 C23 1.301 . S
O27 U6 2.449 . S
O27 C23 1.282 . S
H28 C1 0.931 . S
H29 C3 0.929 . S
H30 C4 0.930 . S
H31 C5 0.931 . S
H32 C12 0.932 . S
H33 C13 0.930 . S
H34 C14 0.929 . S
H35 C16 0.930 . S
H36 C18 0.932 . S
H37 C19 0.929 . S
H38 C20 0.928 . S
H39 C22 0.932 . S
C40 C41 1.264 . S
C40 C45 1.479 . S
C40 C50 1.465 . S
C41 C40 1.264 . S
C41 C43 1.339 . S
C41 H68 0.931 . S
C42 C43 1.395 . S
C42 C44 1.320 . S
C43 C41 1.339 . S
C43 C42 1.395 . S
C43 H69 0.929 . S
C44 C42 1.320 . S
C44 C45 1.405 . S
C44 H70 0.930 . S
C45 C40 1.479 . S
C45 C44 1.405 . S
C45 H71 0.931 . S
U46 O47 2.454 . S
U46 O48 2.458 . S
U46 C49 2.984 . S
U46 C50 2.847 . S
U46 C63 2.882 . S
U46 O64 2.441 . S
U46 O65 2.420 . S
U46 O66 2.455 . S
U46 O67 2.449 . S
O47 U46 2.454 . S
O47 C49 1.353 . S
O48 U46 2.458 . S
O48 C49 1.286 . S
C49 U46 2.984 . S
C49 O47 1.353 . S
C49 O48 1.286 . S
C49 C51 1.363 . S
C50 C40 1.465 . S
C50 U46 2.847 . S
C50 O64 1.249 . S
C50 O65 1.202 . S
C51 C49 1.363 . S
C51 C53 1.408 . S
C51 C56 1.342 . S
C52 C53 1.310 . S
C52 C55 1.461 . S
C52 H72 0.932 . S
C53 C51 1.408 . S
C53 C52 1.310 . S
C53 H73 0.930 . S
C54 C55 1.474 . S
C54 C56 1.285 . S
C54 H74 0.929 . S
C55 C52 1.461 . S
C55 C54 1.474 . S
C56 C51 1.342 . S
C56 C54 1.285 . S
C56 H75 0.930 . S
C57 C60 1.424 . S
C57 C62 1.245 . S
C57 C63 1.428 . S
C58 C61 1.260 . S
C58 C62 1.477 . S
C58 H76 0.932 . S
C59 C60 1.384 . S
C59 C61 1.479 . S
C59 H77 0.929 . S
C60 C57 1.424 . S
C60 C59 1.384 . S
C60 H78 0.928 . S
C61 C58 1.260 . S
C61 C59 1.479 . S
C62 C57 1.245 . S
C62 C58 1.477 . S
C62 H79 0.932 . S
C63 U46 2.882 . S
C63 C57 1.428 . S
C63 O66 1.301 . S
C63 O67 1.282 . S
O64 U46 2.441 . S
O64 C50 1.249 . S
O65 U46 2.420 . S
O65 C50 1.202 . S
O66 U46 2.455 . S
O66 C63 1.301 . S
O67 U46 2.449 . S
O67 C63 1.282 . S
H68 C41 0.931 . S
H69 C43 0.929 . S
H70 C44 0.930 . S
H71 C45 0.931 . S
H72 C52 0.932 . S
H73 C53 0.930 . S
H74 C54 0.929 . S
H75 C56 0.930 . S
H76 C58 0.932 . S
H77 C59 0.929 . S
H78 C60 0.928 . S
H79 C62 0.932 . S
C80 C81 1.264 . S
C80 C85 1.479 . S
C80 C90 1.465 . S
C81 C80 1.264 . S
C81 C83 1.339 . S
C81 H108 0.931 . S
C82 C83 1.395 . S
C82 C84 1.320 . S
C83 C81 1.339 . S
C83 C82 1.395 . S
C83 H109 0.929 . S
C84 C82 1.320 . S
C84 C85 1.405 . S
C84 H110 0.930 . S
C85 C80 1.479 . S
C85 C84 1.405 . S
C85 H111 0.931 . S
U86 O87 2.454 . S
U86 O88 2.458 . S
U86 C89 2.984 . S
U86 C90 2.847 . S
U86 C103 2.882 . S
U86 O104 2.441 . S
U86 O105 2.420 . S
U86 O106 2.455 . S
U86 O107 2.449 . S
O87 U86 2.454 . S
O87 C89 1.353 . S
O88 U86 2.458 . S
O88 C89 1.286 . S
C89 U86 2.984 . S
C89 O87 1.353 . S
C89 O88 1.286 . S
C89 C91 1.363 . S
C90 C80 1.465 . S
C90 U86 2.847 . S
C90 O104 1.249 . S
C90 O105 1.202 . S
C91 C89 1.363 . S
C91 C93 1.408 . S
C91 C96 1.342 . S
C92 C93 1.310 . S
C92 C95 1.461 . S
C92 H112 0.932 . S
C93 C91 1.408 . S
C93 C92 1.310 . S
C93 H113 0.930 . S
C94 C95 1.474 . S
C94 C96 1.285 . S
C94 H114 0.929 . S
C95 C92 1.461 . S
C95 C94 1.474 . S
C96 C91 1.342 . S
C96 C94 1.285 . S
C96 H115 0.930 . S
C97 C100 1.424 . S
C97 C102 1.245 . S
C97 C103 1.428 . S
C98 C101 1.260 . S
C98 C102 1.477 . S
C98 H116 0.932 . S
C99 C100 1.384 . S
C99 C101 1.479 . S
C99 H117 0.929 . S
C100 C97 1.424 . S
C100 C99 1.384 . S
C100 H118 0.928 . S
C101 C98 1.260 . S
C101 C99 1.479 . S
C102 C97 1.245 . S
C102 C98 1.477 . S
C102 H119 0.932 . S
C103 U86 2.882 . S
C103 C97 1.428 . S
C103 O106 1.301 . S
C103 O107 1.282 . S
O104 U86 2.441 . S
O104 C90 1.249 . S
O105 U86 2.420 . S
O105 C90 1.202 . S
O106 U86 2.455 . S
O106 C103 1.301 . S
O107 U86 2.449 . S
O107 C103 1.282 . S
H108 C81 0.931 . S
H109 C83 0.929 . S
H110 C84 0.930 . S
H111 C85 0.931 . S
H112 C92 0.932 . S
H113 C93 0.930 . S
H114 C94 0.929 . S
H115 C96 0.930 . S
H116 C98 0.932 . S
H117 C99 0.929 . S
H118 C100 0.928 . S
H119 C102 0.932 . S
C120 C121 1.264 . S
C120 C125 1.479 . S
C120 C130 1.465 . S
C121 C120 1.264 . S
C121 C123 1.339 . S
C121 H148 0.931 . S
C122 C123 1.395 . S
C122 C124 1.320 . S
C123 C121 1.339 . S
C123 C122 1.395 . S
C123 H149 0.929 . S
C124 C122 1.320 . S
C124 C125 1.405 . S
C124 H150 0.930 . S
C125 C120 1.479 . S
C125 C124 1.405 . S
C125 H151 0.931 . S
U126 O127 2.454 . S
U126 O128 2.458 . S
U126 C129 2.984 . S
U126 C130 2.847 . S
U126 C143 2.882 . S
U126 O144 2.441 . S
U126 O145 2.420 . S
U126 O146 2.455 . S
U126 O147 2.449 . S
O127 U126 2.454 . S
O127 C129 1.353 . S
O128 U126 2.458 . S
O128 C129 1.286 . S
C129 U126 2.984 . S
C129 O127 1.353 . S
C129 O128 1.286 . S
C129 C131 1.363 . S
C130 C120 1.465 . S
C130 U126 2.847 . S
C130 O144 1.249 . S
C130 O145 1.202 . S
C131 C129 1.363 . S
C131 C133 1.408 . S
C131 C136 1.342 . S
C132 C133 1.310 . S
C132 C135 1.461 . S
C132 H152 0.932 . S
C133 C131 1.408 . S
C133 C132 1.310 . S
C133 H153 0.930 . S
C134 C135 1.474 . S
C134 C136 1.285 . S
C134 H154 0.929 . S
C135 C132 1.461 . S
C135 C134 1.474 . S
C136 C131 1.342 . S
C136 C134 1.285 . S
C136 H155 0.930 . S
C137 C140 1.424 . S
C137 C142 1.245 . S
C137 C143 1.428 . S
C138 C141 1.260 . S
C138 C142 1.477 . S
C138 H156 0.932 . S
C139 C140 1.384 . S
C139 C141 1.479 . S
C139 H157 0.929 . S
C140 C137 1.424 . S
C140 C139 1.384 . S
C140 H158 0.928 . S
C141 C138 1.260 . S
C141 C139 1.479 . S
C142 C137 1.245 . S
C142 C138 1.477 . S
C142 H159 0.932 . S
C143 U126 2.882 . S
C143 C137 1.428 . S
C143 O146 1.301 . S
C143 O147 1.282 . S
O144 U126 2.441 . S
O144 C130 1.249 . S
O145 U126 2.420 . S
O145 C130 1.202 . S
O146 U126 2.455 . S
O146 C143 1.301 . S
O147 U126 2.449 . S
O147 C143 1.282 . S
H148 C121 0.931 . S
H149 C123 0.929 . S
H150 C124 0.930 . S
H151 C125 0.931 . S
H152 C132 0.932 . S
H153 C133 0.930 . S
H154 C134 0.929 . S
H155 C136 0.930 . S
H156 C138 0.932 . S
H157 C139 0.929 . S
H158 C140 0.928 . S
H159 C142 0.932 . S
C160 C161 1.264 . S
C160 C165 1.479 . S
C160 C170 1.465 . S
C161 C160 1.264 . S
C161 C163 1.339 . S
C161 H188 0.931 . S
C162 C163 1.395 . S
C162 C164 1.320 . S
C163 C161 1.339 . S
C163 C162 1.395 . S
C163 H189 0.929 . S
C164 C162 1.320 . S
C164 C165 1.405 . S
C164 H190 0.930 . S
C165 C160 1.479 . S
C165 C164 1.405 . S
C165 H191 0.931 . S
U166 O167 2.454 . S
U166 O168 2.458 . S
U166 C169 2.984 . S
U166 C170 2.847 . S
U166 C183 2.882 . S
U166 O184 2.441 . S
U166 O185 2.420 . S
U166 O186 2.455 . S
U166 O187 2.449 . S
O167 U166 2.454 . S
O167 C169 1.353 . S
O168 U166 2.458 . S
O168 C169 1.286 . S
C169 U166 2.984 . S
C169 O167 1.353 . S
C169 O168 1.286 . S
C169 C171 1.363 . S
C170 C160 1.465 . S
C170 U166 2.847 . S
C170 O184 1.249 . S
C170 O185 1.202 . S
C171 C169 1.363 . S
C171 C173 1.408 . S
C171 C176 1.342 . S
C172 C173 1.310 . S
C172 C175 1.461 . S
C172 H192 0.932 . S
C173 C171 1.408 . S
C173 C172 1.310 . S
C173 H193 0.930 . S
C174 C175 1.474 . S
C174 C176 1.285 . S
C174 H194 0.929 . S
C175 C172 1.461 . S
C175 C174 1.474 . S
C176 C171 1.342 . S
C176 C174 1.285 . S
C176 H195 0.930 . S
C177 C180 1.424 . S
C177 C182 1.245 . S
C177 C183 1.428 . S
C178 C181 1.260 . S
C178 C182 1.477 . S
C178 H196 0.932 . S
C179 C180 1.384 . S
C179 C181 1.479 . S
C179 H197 0.929 . S
C180 C177 1.424 . S
C180 C179 1.384 . S
C180 H198 0.928 . S
C181 C178 1.260 . S
C181 C179 1.479 . S
C182 C177 1.245 . S
C182 C178 1.477 . S
C182 H199 0.932 . S
C183 U166 2.882 . S
C183 C177 1.428 . S
C183 O186 1.301 . S
C183 O187 1.282 . S
O184 U166 2.441 . S
O184 C170 1.249 . S
O185 U166 2.420 . S
O185 C170 1.202 . S
O186 U166 2.455 . S
O186 C183 1.301 . S
O187 U166 2.449 . S
O187 C183 1.282 . S
H188 C161 0.931 . S
H189 C163 0.929 . S
H190 C164 0.930 . S
H191 C165 0.931 . S
H192 C172 0.932 . S
H193 C173 0.930 . S
H194 C174 0.929 . S
H195 C176 0.930 . S
H196 C178 0.932 . S
H197 C179 0.929 . S
H198 C180 0.928 . S
H199 C182 0.932 . S
C200 C201 1.264 . S
C200 C205 1.479 . S
C200 C210 1.465 . S
C201 C200 1.264 . S
C201 C203 1.339 . S
C201 H228 0.931 . S
C202 C203 1.395 . S
C202 C204 1.320 . S
C203 C201 1.339 . S
C203 C202 1.395 . S
C203 H229 0.929 . S
C204 C202 1.320 . S
C204 C205 1.405 . S
C204 H230 0.930 . S
C205 C200 1.479 . S
C205 C204 1.405 . S
C205 H231 0.931 . S
U206 O207 2.454 . S
U206 O208 2.458 . S
U206 C209 2.984 . S
U206 C210 2.847 . S
U206 C223 2.882 . S
U206 O224 2.441 . S
U206 O225 2.420 . S
U206 O226 2.455 . S
U206 O227 2.449 . S
O207 U206 2.454 . S
O207 C209 1.353 . S
O208 U206 2.458 . S
O208 C209 1.286 . S
C209 U206 2.984 . S
C209 O207 1.353 . S
C209 O208 1.286 . S
C209 C211 1.363 . S
C210 C200 1.465 . S
C210 U206 2.847 . S
C210 O224 1.249 . S
C210 O225 1.202 . S
C211 C209 1.363 . S
C211 C213 1.408 . S
C211 C216 1.342 . S
C212 C213 1.310 . S
C212 C215 1.461 . S
C212 H232 0.932 . S
C213 C211 1.408 . S
C213 C212 1.310 . S
C213 H233 0.930 . S
C214 C215 1.474 . S
C214 C216 1.285 . S
C214 H234 0.929 . S
C215 C212 1.461 . S
C215 C214 1.474 . S
C216 C211 1.342 . S
C216 C214 1.285 . S
C216 H235 0.930 . S
C217 C220 1.424 . S
C217 C222 1.245 . S
C217 C223 1.428 . S
C218 C221 1.260 . S
C218 C222 1.477 . S
C218 H236 0.932 . S
C219 C220 1.384 . S
C219 C221 1.479 . S
C219 H237 0.929 . S
C220 C217 1.424 . S
C220 C219 1.384 . S
C220 H238 0.928 . S
C221 C218 1.260 . S
C221 C219 1.479 . S
C222 C217 1.245 . S
C222 C218 1.477 . S
C222 H239 0.932 . S
C223 U206 2.882 . S
C223 C217 1.428 . S
C223 O226 1.301 . S
C223 O227 1.282 . S
O224 U206 2.441 . S
O224 C210 1.249 . S
O225 U206 2.420 . S
O225 C210 1.202 . S
O226 U206 2.455 . S
O226 C223 1.301 . S
O227 U206 2.449 . S
O227 C223 1.282 . S
H228 C201 0.931 . S
H229 C203 0.929 . S
H230 C204 0.930 . S
H231 C205 0.931 . S
H232 C212 0.932 . S
H233 C213 0.930 . S
H234 C214 0.929 . S
H235 C216 0.930 . S
H236 C218 0.932 . S
H237 C219 0.929 . S
H238 C220 0.928 . S
H239 C222 0.932 . S
C240 C241 1.264 . S
C240 C245 1.479 . S
C240 C250 1.465 . S
C241 C240 1.264 . S
C241 C243 1.339 . S
C241 H268 0.931 . S
C242 C243 1.395 . S
C242 C244 1.320 . S
C243 C241 1.339 . S
C243 C242 1.395 . S
C243 H269 0.929 . S
C244 C242 1.320 . S
C244 C245 1.405 . S
C244 H270 0.930 . S
C245 C240 1.479 . S
C245 C244 1.405 . S
C245 H271 0.931 . S
U246 O247 2.454 . S
U246 O248 2.458 . S
U246 C249 2.984 . S
U246 C250 2.847 . S
U246 C263 2.882 . S
U246 O264 2.441 . S
U246 O265 2.420 . S
U246 O266 2.455 . S
U246 O267 2.449 . S
O247 U246 2.454 . S
O247 C249 1.353 . S
O248 U246 2.458 . S
O248 C249 1.286 . S
C249 U246 2.984 . S
C249 O247 1.353 . S
C249 O248 1.286 . S
C249 C251 1.363 . S
C250 C240 1.465 . S
C250 U246 2.847 . S
C250 O264 1.249 . S
C250 O265 1.202 . S
C251 C249 1.363 . S
C251 C253 1.408 . S
C251 C256 1.342 . S
C252 C253 1.310 . S
C252 C255 1.461 . S
C252 H272 0.932 . S
C253 C251 1.408 . S
C253 C252 1.310 . S
C253 H273 0.930 . S
C254 C255 1.474 . S
C254 C256 1.285 . S
C254 H274 0.929 . S
C255 C252 1.461 . S
C255 C254 1.474 . S
C256 C251 1.342 . S
C256 C254 1.285 . S
C256 H275 0.930 . S
C257 C260 1.424 . S
C257 C262 1.245 . S
C257 C263 1.428 . S
C258 C261 1.260 . S
C258 C262 1.477 . S
C258 H276 0.932 . S
C259 C260 1.384 . S
C259 C261 1.479 . S
C259 H277 0.929 . S
C260 C257 1.424 . S
C260 C259 1.384 . S
C260 H278 0.928 . S
C261 C258 1.260 . S
C261 C259 1.479 . S
C262 C257 1.245 . S
C262 C258 1.477 . S
C262 H279 0.932 . S
C263 U246 2.882 . S
C263 C257 1.428 . S
C263 O266 1.301 . S
C263 O267 1.282 . S
O264 U246 2.441 . S
O264 C250 1.249 . S
O265 U246 2.420 . S
O265 C250 1.202 . S
O266 U246 2.455 . S
O266 C263 1.301 . S
O267 U246 2.449 . S
O267 C263 1.282 . S
H268 C241 0.931 . S
H269 C243 0.929 . S
H270 C244 0.930 . S
H271 C245 0.931 . S
H272 C252 0.932 . S
H273 C253 0.930 . S
H274 C254 0.929 . S
H275 C256 0.930 . S
H276 C258 0.932 . S
H277 C259 0.929 . S
H278 C260 0.928 . S
H279 C262 0.932 . S
C280 C281 1.264 . S
C280 C285 1.479 . S
C280 C290 1.465 . S
C281 C280 1.264 . S
C281 C283 1.339 . S
C281 H308 0.931 . S
C282 C283 1.395 . S
C282 C284 1.320 . S
C283 C281 1.339 . S
C283 C282 1.395 . S
C283 H309 0.929 . S
C284 C282 1.320 . S
C284 C285 1.405 . S
C284 H310 0.930 . S
C285 C280 1.479 . S
C285 C284 1.405 . S
C285 H311 0.931 . S
U286 O287 2.454 . S
U286 O288 2.458 . S
U286 C289 2.984 . S
U286 C290 2.847 . S
U286 C303 2.882 . S
U286 O304 2.441 . S
U286 O305 2.420 . S
U286 O306 2.455 . S
U286 O307 2.449 . S
O287 U286 2.454 . S
O287 C289 1.353 . S
O288 U286 2.458 . S
O288 C289 1.286 . S
C289 U286 2.984 . S
C289 O287 1.353 . S
C289 O288 1.286 . S
C289 C291 1.363 . S
C290 C280 1.465 . S
C290 U286 2.847 . S
C290 O304 1.249 . S
C290 O305 1.202 . S
C291 C289 1.363 . S
C291 C293 1.408 . S
C291 C296 1.342 . S
C292 C293 1.310 . S
C292 C295 1.461 . S
C292 H312 0.932 . S
C293 C291 1.408 . S
C293 C292 1.310 . S
C293 H313 0.930 . S
C294 C295 1.474 . S
C294 C296 1.285 . S
C294 H314 0.929 . S
C295 C292 1.461 . S
C295 C294 1.474 . S
C296 C291 1.342 . S
C296 C294 1.285 . S
C296 H315 0.930 . S
C297 C300 1.424 . S
C297 C302 1.245 . S
C297 C303 1.428 . S
C298 C301 1.260 . S
C298 C302 1.477 . S
C298 H316 0.932 . S
C299 C300 1.384 . S
C299 C301 1.479 . S
C299 H317 0.929 . S
C300 C297 1.424 . S
C300 C299 1.384 . S
C300 H318 0.928 . S
C301 C298 1.260 . S
C301 C299 1.479 . S
C302 C297 1.245 . S
C302 C298 1.477 . S
C302 H319 0.932 . S
C303 U286 2.882 . S
C303 C297 1.428 . S
C303 O306 1.301 . S
C303 O307 1.282 . S
O304 U286 2.441 . S
O304 C290 1.249 . S
O305 U286 2.420 . S
O305 C290 1.202 . S
O306 U286 2.455 . S
O306 C303 1.301 . S
O307 U286 2.449 . S
O307 C303 1.282 . S
H308 C281 0.931 . S
H309 C283 0.929 . S
H310 C284 0.930 . S
H311 C285 0.931 . S
H312 C292 0.932 . S
H313 C293 0.930 . S
H314 C294 0.929 . S
H315 C296 0.930 . S
H316 C298 0.932 . S
H317 C299 0.929 . S
H318 C300 0.928 . S
H319 C302 0.932 . S
O320 Mn321 2.163 1_655 S
O320 C334 1.244 . S
Mn321 O320 2.163 1_455 S
Mn321 O324 2.160 1_545 S
Mn321 O325 2.221 . S
Mn321 O327 2.163 1_445 S
Mn321 O329 2.160 . S
Mn321 O339 2.221 1_445 S
O322 Mn323 2.087 1_545 S
O322 C334 1.256 . S
Mn323 O322 2.087 1_565 S
Mn323 O330 2.089 1_565 S
Mn323 O339 2.290 . S
Mn323 O340 2.251 . S
O324 Mn321 2.160 1_565 S
O324 C335 1.239 . S
O325 Mn321 2.221 . S
O325 Mn326 2.290 . S
O325 C336 1.278 . S
Mn326 O325 2.290 . S
Mn326 O328 2.089 1_545 S
Mn326 O331 2.251 . S
Mn326 O332 2.087 . S
O327 Mn321 2.163 1_665 S
O327 C337 1.244 . S
O328 Mn326 2.089 1_565 S
O328 C335 1.256 . S
O329 Mn321 2.160 . S
O329 C338 1.239 . S
O330 Mn323 2.089 1_545 S
O330 C338 1.256 1_655 S
O331 Mn326 2.251 . S
O331 C336 1.241 . S
O332 Mn326 2.087 . S
O332 C337 1.256 1_445 S
C333 O339 1.278 . S
C333 O340 1.241 . S
C334 O320 1.244 . S
C334 O322 1.256 . S
C335 O324 1.239 . S
C335 O328 1.256 . S
C336 O325 1.278 . S
C336 O331 1.241 . S
C337 O327 1.244 . S
C337 O332 1.256 1_665 S
C338 O329 1.239 . S
C338 O330 1.256 1_455 S
O339 Mn321 2.221 1_665 S
O339 Mn323 2.290 . S
O339 C333 1.278 . S
O340 Mn323 2.251 . S
O340 C333 1.241 . S
O341 Mn342 2.163 1_556 S
O341 C355 1.244 1_545 S
Mn342 O341 2.163 1_554 S
Mn342 O345 2.160 . S
Mn342 O346 2.223 . S
Mn342 O348 2.163 . S
Mn342 O350 2.160 1_554 S
Mn342 O360 2.221 1_545 S
O343 Mn344 2.087 . S
O343 C355 1.256 . S
Mn344 O343 2.087 . S
Mn344 O351 2.089 . S
Mn344 O360 2.290 1_556 S
Mn344 O361 2.251 1_556 S
O345 Mn342 2.160 . S
O345 C356 1.239 . S
O346 Mn342 2.223 . S
O346 Mn347 2.298 . S
O346 C357 1.270 1_554 S
Mn347 O346 2.298 . S
Mn347 O349 2.089 . S
Mn347 O352 2.251 1_554 S
Mn347 O353 2.087 . S
O348 Mn342 2.163 . S
O348 C358 1.244 . S
O349 Mn347 2.089 . S
O349 C356 1.256 . S
O350 Mn342 2.160 1_556 S
O350 C359 1.239 1_545 S
O351 Mn344 2.089 . S
O351 C359 1.256 . S
O352 Mn347 2.251 1_556 S
O352 C357 1.241 . S
O353 Mn347 2.087 . S
O353 C358 1.256 . S
C354 O360 1.278 . S
C354 O361 1.241 . S
C355 O341 1.244 1_565 S
C355 O343 1.256 . S
C356 O345 1.239 . S
C356 O349 1.256 . S
C357 O346 1.270 1_556 S
C357 O352 1.241 . S
C358 O348 1.244 . S
C358 O353 1.256 . S
C359 O350 1.239 1_565 S
C359 O351 1.256 . S
O360 Mn342 2.221 1_565 S
O360 Mn344 2.290 1_554 S
O360 C354 1.278 . S
O361 Mn344 2.251 1_554 S
O361 C354 1.241 . S
O362 Mn363 2.163 . S
O362 C376 1.244 . S
Mn363 O362 2.163 . S
Mn363 O366 2.160 . S
Mn363 O367 2.221 . S
Mn363 O369 2.163 . S
Mn363 O371 2.160 . S
Mn363 O381 2.221 . S
O364 Mn365 2.087 . S
O364 C376 1.256 . S
Mn365 O364 2.087 . S
Mn365 O372 2.089 . S
Mn365 O381 2.290 . S
Mn365 O382 2.251 . S
O366 Mn363 2.160 . S
O366 C377 1.239 . S
O367 Mn363 2.221 . S
O367 Mn368 2.290 . S
O367 C378 1.278 . S
Mn368 O367 2.290 . S
Mn368 O370 2.089 . S
Mn368 O373 2.251 . S
Mn368 O374 2.087 . S
O369 Mn363 2.163 . S
O369 C379 1.244 . S
O370 Mn368 2.089 . S
O370 C377 1.256 . S
O371 Mn363 2.160 . S
O371 C380 1.239 . S
O372 Mn365 2.089 . S
O372 C380 1.256 . S
O373 Mn368 2.251 . S
O373 C378 1.241 . S
O374 Mn368 2.087 . S
O374 C379 1.256 . S
C375 O381 1.278 . S
C375 O382 1.241 . S
C376 O362 1.244 . S
C376 O364 1.256 . S
C377 O366 1.239 . S
C377 O370 1.256 . S
C378 O367 1.278 . S
C378 O373 1.241 . S
C379 O369 1.244 . S
C379 O374 1.256 . S
C380 O371 1.239 . S
C380 O372 1.256 . S
O381 Mn363 2.221 . S
O381 Mn365 2.290 . S
O381 C375 1.278 . S
O382 Mn365 2.251 . S
O382 C375 1.241 . S
O383 Mn384 2.163 1_655 S
O383 C397 1.244 1_554 S
Mn384 O383 2.163 1_455 S
Mn384 O387 2.160 . S
Mn384 O388 2.221 1_455 S
Mn384 O390 2.163 . S
Mn384 O392 2.160 1_454 S
Mn384 O402 2.221 1_554 S
O385 Mn386 2.087 . S
O385 C397 1.256 . S
Mn386 O385 2.087 . S
Mn386 O393 2.089 . S
Mn386 O402 2.290 1_655 S
Mn386 O403 2.251 . S
O387 Mn384 2.160 . S
O387 C398 1.239 . S
O388 Mn384 2.221 1_655 S
O388 Mn389 2.290 1_655 S
O388 C399 1.278 . S
Mn389 O388 2.290 1_455 S
Mn389 O391 2.089 . S
Mn389 O394 2.251 1_455 S
Mn389 O395 2.087 . S
O390 Mn384 2.163 . S
O390 C400 1.244 . S
O391 Mn389 2.089 . S
O391 C398 1.256 . S
O392 Mn384 2.160 1_656 S
O392 C401 1.239 . S
O393 Mn386 2.089 . S
O393 C401 1.256 . S
O394 Mn389 2.251 1_655 S
O394 C399 1.241 . S
O395 Mn389 2.087 . S
O395 C400 1.256 . S
C396 O402 1.278 . S
C396 O403 1.241 1_455 S
C397 O383 1.244 1_556 S
C397 O385 1.256 . S
C398 O387 1.239 . S
C398 O391 1.256 . S
C399 O388 1.278 . S
C399 O394 1.241 . S
C400 O390 1.244 . S
C400 O395 1.256 . S
C401 O392 1.239 . S
C401 O393 1.256 . S
O402 Mn384 2.221 1_556 S
O402 Mn386 2.290 1_455 S
O402 C396 1.278 . S
O403 Mn386 2.251 . S
O403 C396 1.241 1_655 S
H404 C410 0.930 . S
H405 C413 0.930 . S
H406 C414 0.930 . S
H407 C415 0.930 . S
H408 C418 0.930 . S
H409 C419 0.930 . S
C410 H404 0.930 . S
C410 C411 1.355 . S
C410 C412 1.415 . S
C411 C410 1.355 . S
C411 C413 1.419 . S
C412 C410 1.415 . S
C412 C417 1.425 . S
C412 C419 1.409 . S
C413 H405 0.930 . S
C413 C411 1.419 . S
C413 C414 1.362 . S
C414 H406 0.930 . S
C414 C413 1.362 . S
C414 C417 1.409 . S
C415 H407 0.930 . S
C415 C416 1.355 . S
C415 C417 1.415 . S
C416 C415 1.355 . S
C416 C418 1.419 . S
C417 C412 1.425 . S
C417 C414 1.409 . S
C417 C415 1.415 . S
C418 H408 0.930 . S
C418 C416 1.419 . S
C418 C419 1.362 . S
C419 H409 0.930 . S
C419 C412 1.409 . S
C419 C418 1.362 . S
H420 C426 0.930 . S
H421 C429 0.930 . S
H422 C430 0.930 . S
H423 C431 0.930 . S
H424 C434 0.916 1_545 S
H425 C435 0.920 1_545 S
C426 H420 0.930 . S
C426 C427 1.355 . S
C426 C428 1.415 . S
C427 C426 1.355 . S
C427 C429 1.419 . S
C428 C426 1.415 . S
C428 C433 1.425 . S
C428 C435 1.409 . S
C429 H421 0.930 . S
C429 C427 1.419 . S
C429 C430 1.362 . S
C430 H422 0.930 . S
C430 C429 1.362 . S
C430 C433 1.409 . S
C431 H423 0.930 . S
C431 C432 1.355 . S
C431 C433 1.415 . S
C432 C431 1.355 . S
C432 C434 1.431 . S
C433 C428 1.425 . S
C433 C430 1.409 . S
C433 C431 1.415 . S
C434 H424 0.916 1_565 S
C434 C432 1.431 . S
C434 C435 1.365 . S
C435 H425 0.920 1_565 S
C435 C428 1.409 . S
C435 C434 1.365 . S
H436 C442 0.930 . S
H437 C445 0.930 . S
H438 C446 0.930 . S
H439 C447 0.930 . S
H440 C450 0.930 . S
H441 C451 0.930 . S
C442 H436 0.930 . S
C442 C443 1.355 . S
C442 C444 1.415 . S
C443 C442 1.355 . S
C443 C445 1.419 . S
C444 C442 1.415 . S
C444 C449 1.425 . S
C444 C451 1.409 . S
C445 H437 0.930 . S
C445 C443 1.419 . S
C445 C446 1.362 . S
C446 H438 0.930 . S
C446 C445 1.362 . S
C446 C449 1.409 . S
C447 H439 0.930 . S
C447 C448 1.355 . S
C447 C449 1.415 . S
C448 C447 1.355 . S
C448 C450 1.419 . S
C449 C444 1.425 . S
C449 C446 1.409 . S
C449 C447 1.415 . S
C450 H440 0.930 . S
C450 C448 1.419 . S
C450 C451 1.362 . S
C451 H441 0.930 . S
C451 C444 1.409 . S
C451 C450 1.362 . S
H452 C458 0.930 . S
H453 C461 0.930 . S
H454 C462 0.930 . S
H455 C463 0.930 . S
H456 C466 0.930 1_455 S
H457 C467 0.930 1_455 S
C458 H452 0.930 . S
C458 C459 1.355 . S
C458 C460 1.415 . S
C459 C458 1.355 . S
C459 C461 1.419 . S
C460 C458 1.415 . S
C460 C465 1.425 . S
C460 C467 1.409 . S
C461 H453 0.930 . S
C461 C459 1.419 . S
C461 C462 1.362 . S
C462 H454 0.930 . S
C462 C461 1.362 . S
C462 C465 1.409 . S
C463 H455 0.930 . S
C463 C464 1.355 . S
C463 C465 1.415 . S
C464 C463 1.355 . S
C464 C466 1.419 . S
C465 C460 1.425 . S
C465 C462 1.409 . S
C465 C463 1.415 . S
C466 H456 0.930 1_655 S
C466 C464 1.419 . S
C466 C467 1.362 . S
C467 H457 0.930 1_655 S
C467 C460 1.409 . S
C467 C466 1.362 . S
H468 C474 0.930 . S
H469 C477 0.930 . S
H470 C478 0.930 . S
H471 C479 0.930 . S
H472 C482 0.930 1_565 S
H473 C483 0.930 1_565 S
C474 H468 0.930 . S
C474 C475 1.355 . S
C474 C476 1.415 . S
C475 C474 1.355 . S
C475 C477 1.419 . S
C476 C474 1.415 . S
C476 C481 1.425 . S
C476 C483 1.409 . S
C477 H469 0.930 . S
C477 C475 1.419 . S
C477 C478 1.362 . S
C478 H470 0.930 . S
C478 C477 1.362 . S
C478 C481 1.409 . S
C479 H471 0.930 . S
C479 C480 1.355 . S
C479 C481 1.415 . S
C480 C479 1.355 . S
C480 C482 1.419 . S
C481 C476 1.425 . S
C481 C478 1.409 . S
C481 C479 1.415 . S
C482 H472 0.930 1_545 S
C482 C480 1.419 . S
C482 C483 1.362 . S
C483 H473 0.930 1_545 S
C483 C476 1.409 . S
C483 C482 1.362 . S
H484 C490 0.930 . S
H485 C493 0.928 . S
H486 C494 0.930 1_545 S
H487 C495 0.930 1_545 S
H488 C498 0.930 . S
H489 C499 0.930 . S
C490 H484 0.930 . S
C490 C491 1.355 . S
C490 C492 1.415 . S
C491 C490 1.355 . S
C491 C493 1.419 . S
C492 C490 1.415 . S
C492 C497 1.425 . S
C492 C499 1.409 . S
C493 H485 0.928 . S
C493 C491 1.419 . S
C493 C494 1.362 . S
C494 H486 0.930 1_565 S
C494 C493 1.362 . S
C494 C497 1.409 . S
C495 H487 0.930 1_565 S
C495 C496 1.355 . S
C495 C497 1.415 . S
C496 C495 1.355 . S
C496 C498 1.419 . S
C497 C492 1.425 . S
C497 C494 1.409 . S
C497 C495 1.415 . S
C498 H488 0.930 . S
C498 C496 1.419 . S
C498 C499 1.362 . S
C499 H489 0.930 . S
C499 C492 1.409 . S
C499 C498 1.362 . S
H500 C506 0.930 . S
H501 C509 0.930 . S
H502 C510 0.930 1_554 S
H503 C511 0.930 1_554 S
H504 C514 0.930 . S
H505 C515 0.930 . S
C506 H500 0.930 . S
C506 C507 1.355 . S
C506 C508 1.415 . S
C507 C506 1.355 . S
C507 C509 1.419 . S
C508 C506 1.415 . S
C508 C513 1.425 . S
C508 C515 1.409 . S
C509 H501 0.930 . S
C509 C507 1.419 . S
C509 C510 1.362 . S
C510 H502 0.930 1_556 S
C510 C509 1.362 . S
C510 C513 1.409 . S
C511 H503 0.930 1_556 S
C511 C512 1.355 . S
C511 C513 1.415 . S
C512 C511 1.355 . S
C512 C514 1.419 . S
C513 C508 1.425 . S
C513 C510 1.409 . S
C513 C511 1.415 . S
C514 H504 0.930 . S
C514 C512 1.419 . S
C514 C515 1.362 . S
C515 H505 0.930 . S
C515 C508 1.409 . S
C515 C514 1.362 . S
H516 C522 0.930 . S
H517 C525 0.930 . S
H518 C526 0.930 . S
H519 C527 0.930 . S
H520 C530 0.930 . S
H521 C531 0.930 . S
C522 H516 0.930 . S
C522 C523 1.355 . S
C522 C524 1.415 . S
C523 C522 1.355 . S
C523 C525 1.419 . S
C524 C522 1.415 . S
C524 C529 1.425 . S
C524 C531 1.409 . S
C525 H517 0.930 . S
C525 C523 1.419 . S
C525 C526 1.362 . S
C526 H518 0.930 . S
C526 C525 1.362 . S
C526 C529 1.409 . S
C527 H519 0.930 . S
C527 C528 1.355 . S
C527 C529 1.415 . S
C528 C527 1.355 . S
C528 C530 1.419 . S
C529 C524 1.425 . S
C529 C526 1.409 . S
C529 C527 1.415 . S
C530 H520 0.930 . S
C530 C528 1.419 . S
C530 C531 1.362 . S
C531 H521 0.930 . S
C531 C524 1.409 . S
C531 C530 1.362 . S
H532 C538 0.930 . S
H533 C541 0.930 . S
H534 C542 0.930 1_556 S
H535 C543 0.951 . S
H536 C546 0.930 . S
H537 C547 0.930 . S
C538 H532 0.930 . S
C538 C539 1.355 . S
C538 C540 1.415 . S
C539 C538 1.355 . S
C539 C541 1.419 . S
C540 C538 1.415 . S
C540 C545 1.425 . S
C540 C547 1.409 . S
C541 H533 0.930 . S
C541 C539 1.419 . S
C541 C542 1.362 . S
C542 H534 0.930 1_554 S
C542 C541 1.362 . S
C542 C545 1.409 . S
C543 H535 0.951 . S
C543 C544 1.355 . S
C543 C545 1.415 . S
C544 C543 1.355 . S
C544 C546 1.419 . S
C545 C540 1.425 . S
C545 C542 1.409 . S
C545 C543 1.415 . S
C546 H536 0.930 . S
C546 C544 1.419 . S
C546 C547 1.362 . S
C547 H537 0.930 . S
C547 C540 1.409 . S
C547 C546 1.362 . S
H548 C554 0.930 . S
H549 C557 0.930 . S
H550 C558 0.930 . S
H551 C559 0.930 . S
H552 C562 0.930 1_554 S
H553 C563 0.930 1_554 S
C554 H548 0.930 . S
C554 C555 1.355 . S
C554 C556 1.415 . S
C555 C554 1.355 . S
C555 C557 1.419 . S
C556 C554 1.415 . S
C556 C561 1.425 . S
C556 C563 1.409 . S
C557 H549 0.930 . S
C557 C555 1.419 . S
C557 C558 1.362 . S
C558 H550 0.930 . S
C558 C557 1.362 . S
C558 C561 1.409 . S
C559 H551 0.930 . S
C559 C560 1.355 . S
C559 C561 1.415 . S
C560 C559 1.355 . S
C560 C562 1.419 . S
C561 C556 1.425 . S
C561 C558 1.409 . S
C561 C559 1.415 . S
C562 H552 0.930 1_556 S
C562 C560 1.419 . S
C562 C563 1.362 . S
C563 H553 0.930 1_556 S
C563 C556 1.409 . S
C563 C562 1.362 . S
H564 C570 0.930 . S
H565 C573 0.930 . S
H566 C574 0.930 1_455 S
H567 C575 0.930 1_455 S
H568 C578 0.930 . S
H569 C579 0.930 . S
C570 H564 0.930 . S
C570 C571 1.355 . S
C570 C572 1.415 . S
C571 C570 1.355 . S
C571 C573 1.419 . S
C572 C570 1.415 . S
C572 C577 1.425 . S
C572 C579 1.409 . S
C573 H565 0.930 . S
C573 C571 1.419 . S
C573 C574 1.362 . S
C574 H566 0.930 1_655 S
C574 C573 1.362 . S
C574 C577 1.409 . S
C575 H567 0.930 1_655 S
C575 C576 1.355 . S
C575 C577 1.415 . S
C576 C575 1.355 . S
C576 C578 1.419 . S
C577 C572 1.425 . S
C577 C574 1.409 . S
C577 C575 1.415 . S
C578 H568 0.930 . S
C578 C576 1.419 . S
C578 C579 1.362 . S
C579 H569 0.930 . S
C579 C572 1.409 . S
C579 C578 1.362 . S
H580 C586 0.930 . S
H581 C589 0.930 . S
H582 C590 0.930 . S
H583 C591 0.930 . S
H584 C594 0.930 . S
H585 C595 0.930 . S
C586 H580 0.930 . S
C586 C587 1.355 . S
C586 C588 1.415 . S
C587 C586 1.355 . S
C587 C589 1.419 . S
C588 C586 1.415 . S
C588 C593 1.425 . S
C588 C595 1.409 . S
C589 H581 0.930 . S
C589 C587 1.419 . S
C589 C590 1.362 . S
C590 H582 0.930 . S
C590 C589 1.362 . S
C590 C593 1.409 . S
C591 H583 0.930 . S
C591 C592 1.355 . S
C591 C593 1.415 . S
C592 C591 1.355 . S
C592 C594 1.419 . S
C593 C588 1.425 . S
C593 C590 1.409 . S
C593 C591 1.415 . S
C594 H584 0.930 . S
C594 C592 1.419 . S
C594 C595 1.362 . S
C595 H585 0.930 . S
C595 C588 1.409 . S
C595 C594 1.362 . S
H596 C602 0.930 . S
H597 C605 0.930 . S
H598 C606 0.930 1_445 S
H599 C607 0.930 1_545 S
H600 C610 0.930 . S
H601 C611 0.930 . S
C602 H596 0.930 . S
C602 C603 1.355 . S
C602 C604 1.415 . S
C603 C602 1.355 . S
C603 C605 1.419 . S
C604 C602 1.415 . S
C604 C609 1.425 . S
C604 C611 1.409 . S
C605 H597 0.930 . S
C605 C603 1.419 . S
C605 C606 1.362 . S
C606 H598 0.930 1_665 S
C606 C605 1.362 . S
C606 C609 1.409 . S
C607 H599 0.930 1_565 S
C607 C608 1.355 . S
C607 C609 1.415 . S
C608 C607 1.355 . S
C608 C610 1.419 . S
C609 C604 1.425 . S
C609 C606 1.409 . S
C609 C607 1.415 . S
C610 H600 0.930 . S
C610 C608 1.419 . S
C610 C611 1.362 . S
C611 H601 0.930 . S
C611 C604 1.409 . S
C611 C610 1.362 . S
H612 C618 0.930 . S
H613 C621 0.930 . S
H614 C622 0.930 . S
H615 C623 0.930 . S
H616 C626 0.930 . S
H617 C627 0.930 . S
C618 H612 0.930 . S
C618 C619 1.355 . S
C618 C620 1.415 . S
C619 C618 1.355 . S
C619 C621 1.419 . S
C620 C618 1.415 . S
C620 C625 1.425 . S
C620 C627 1.409 . S
C621 H613 0.930 . S
C621 C619 1.419 . S
C621 C622 1.362 . S
C622 H614 0.930 . S
C622 C621 1.362 . S
C622 C625 1.409 . S
C623 H615 0.930 . S
C623 C624 1.355 . S
C623 C625 1.415 . S
C624 C623 1.355 . S
C624 C626 1.419 . S
C625 C620 1.425 . S
C625 C622 1.409 . S
C625 C623 1.415 . S
C626 H616 0.930 . S
C626 C624 1.419 . S
C626 C627 1.362 . S
C627 H617 0.930 . S
C627 C620 1.409 . S
C627 C626 1.362 . S
H628 C634 0.930 . S
H629 C637 0.930 . S
H630 C638 0.930 . S
H631 C639 0.930 . S
H632 C642 0.930 . S
H633 C643 0.930 . S
C634 H628 0.930 . S
C634 C635 1.355 . S
C634 C636 1.415 . S
C635 C634 1.355 . S
C635 C637 1.419 . S
C636 C634 1.415 . S
C636 C641 1.425 . S
C636 C643 1.409 . S
C637 H629 0.930 . S
C637 C635 1.419 . S
C637 C638 1.362 . S
C638 H630 0.930 . S
C638 C637 1.362 . S
C638 C641 1.409 . S
C639 H631 0.930 . S
C639 C640 1.355 . S
C639 C641 1.415 . S
C640 C639 1.355 . S
C640 C642 1.419 . S
C641 C636 1.425 . S
C641 C638 1.409 . S
C641 C639 1.415 . S
C642 H632 0.930 . S
C642 C640 1.419 . S
C642 C643 1.362 . S
C643 H633 0.930 . S
C643 C636 1.409 . S
C643 C642 1.362 . S
H644 C650 0.930 . S
H645 C653 0.930 . S
H646 C654 0.930 . S
H647 C655 0.930 . S
H648 C658 0.930 1_655 S
H649 C659 0.923 1_655 S
C650 H644 0.930 . S
C650 C651 1.355 . S
C650 C652 1.415 . S
C651 C650 1.355 . S
C651 C653 1.419 . S
C652 C650 1.415 . S
C652 C657 1.425 . S
C652 C659 1.416 . S
C653 H645 0.930 . S
C653 C651 1.419 . S
C653 C654 1.362 . S
C654 H646 0.930 . S
C654 C653 1.362 . S
C654 C657 1.409 . S
C655 H647 0.930 . S
C655 C656 1.355 . S
C655 C657 1.415 . S
C656 C655 1.355 . S
C656 C658 1.419 . S
C657 C652 1.425 . S
C657 C654 1.409 . S
C657 C655 1.415 . S
C658 H648 0.930 1_455 S
C658 C656 1.419 . S
C658 C659 1.363 . S
C659 H649 0.923 1_455 S
C659 C652 1.416 . S
C659 C658 1.363 . S
H660 C666 0.930 . S
H661 C669 0.930 . S
H662 C670 0.930 1_544 S
H663 C671 0.930 1_544 S
H664 C674 0.930 . S
H665 C675 0.930 . S
C666 H660 0.930 . S
C666 C667 1.355 . S
C666 C668 1.415 . S
C667 C666 1.355 . S
C667 C669 1.419 . S
C668 C666 1.415 . S
C668 C673 1.425 . S
C668 C675 1.409 . S
C669 H661 0.930 . S
C669 C667 1.419 . S
C669 C670 1.362 . S
C670 H662 0.930 1_566 S
C670 C669 1.362 . S
C670 C673 1.409 . S
C671 H663 0.930 1_566 S
C671 C672 1.355 . S
C671 C673 1.415 . S
C672 C671 1.355 . S
C672 C674 1.419 . S
C673 C668 1.425 . S
C673 C670 1.409 . S
C673 C671 1.415 . S
C674 H664 0.930 . S
C674 C672 1.419 . S
C674 C675 1.362 . S
C675 H665 0.930 . S
C675 C668 1.409 . S
C675 C674 1.362 . S
H676 C682 0.930 . S
H677 C685 0.930 . S
H678 C686 0.930 . S
H679 C687 0.930 . S
H680 C690 0.930 . S
H681 C691 0.930 . S
C682 H676 0.930 . S
C682 C683 1.355 . S
C682 C684 1.415 . S
C683 C682 1.355 . S
C683 C685 1.419 . S
C684 C682 1.415 . S
C684 C689 1.425 . S
C684 C691 1.409 . S
C685 H677 0.930 . S
C685 C683 1.419 . S
C685 C686 1.362 . S
C686 H678 0.930 . S
C686 C685 1.362 . S
C686 C689 1.409 . S
C687 H679 0.930 . S
C687 C688 1.355 . S
C687 C689 1.415 . S
C688 C687 1.355 . S
C688 C690 1.419 . S
C689 C684 1.425 . S
C689 C686 1.409 . S
C689 C687 1.415 . S
C690 H680 0.930 . S
C690 C688 1.419 . S
C690 C691 1.362 . S
C691 H681 0.930 . S
C691 C684 1.409 . S
C691 C690 1.362 . S
H692 C698 0.930 . S
H693 C701 0.930 . S
H694 C702 0.930 . S
H695 C703 0.930 . S
H696 C706 0.930 . S
H697 C707 0.930 . S
C698 H692 0.930 . S
C698 C699 1.355 . S
C698 C700 1.415 . S
C699 C698 1.355 . S
C699 C701 1.419 . S
C700 C698 1.415 . S
C700 C705 1.425 . S
C700 C707 1.409 . S
C701 H693 0.930 . S
C701 C699 1.419 . S
C701 C702 1.362 . S
C702 H694 0.930 . S
C702 C701 1.362 . S
C702 C705 1.409 . S
C703 H695 0.930 . S
C703 C704 1.355 . S
C703 C705 1.415 . S
C704 C703 1.355 . S
C704 C706 1.419 . S
C705 C700 1.425 . S
C705 C702 1.409 . S
C705 C703 1.415 . S
C706 H696 0.930 . S
C706 C704 1.419 . S
C706 C707 1.362 . S
C707 H697 0.930 . S
C707 C700 1.409 . S
C707 C706 1.362 . S
H708 C714 0.930 . S
H709 C717 0.930 . S
H710 C718 0.930 . S
H711 C719 0.930 . S
H712 C722 0.930 . S
H713 C723 0.930 . S
C714 H708 0.930 . S
C714 C715 1.355 . S
C714 C716 1.415 . S
C715 C714 1.355 . S
C715 C717 1.419 . S
C716 C714 1.415 . S
C716 C721 1.425 . S
C716 C723 1.409 . S
C717 H709 0.930 . S
C717 C715 1.419 . S
C717 C718 1.362 . S
C718 H710 0.930 . S
C718 C717 1.362 . S
C718 C721 1.409 . S
C719 H711 0.930 . S
C719 C720 1.355 . S
C719 C721 1.415 . S
C720 C719 1.355 . S
C720 C722 1.419 . S
C721 C716 1.425 . S
C721 C718 1.409 . S
C721 C719 1.415 . S
C722 H712 0.930 . S
C722 C720 1.419 . S
C722 C723 1.362 . S
C723 H713 0.930 . S
C723 C716 1.409 . S
C723 C722 1.362 . S
H724 C730 0.930 . S
H725 C733 0.930 . S
H726 C734 0.930 . S
H727 C735 0.930 . S
H728 C738 0.949 1_455 S
H729 C739 0.930 1_554 S
C730 H724 0.930 . S
C730 C731 1.355 . S
C730 C732 1.415 . S
C731 C730 1.355 . S
C731 C733 1.419 . S
C732 C730 1.415 . S
C732 C737 1.425 . S
C732 C739 1.409 . S
C733 H725 0.930 . S
C733 C731 1.419 . S
C733 C734 1.362 . S
C734 H726 0.930 . S
C734 C733 1.362 . S
C734 C737 1.409 . S
C735 H727 0.930 . S
C735 C736 1.355 . S
C735 C737 1.415 . S
C736 C735 1.355 . S
C736 C738 1.403 1_556 S
C737 C732 1.425 . S
C737 C734 1.409 . S
C737 C735 1.415 . S
C738 H728 0.949 1_655 S
C738 C736 1.403 1_554 S
C738 C739 1.360 1_554 S
C739 H729 0.930 1_556 S
C739 C732 1.409 . S
C739 C738 1.360 1_556 S
H740 C746 0.930 . S
H741 C749 0.930 . S
H742 C750 0.930 . S
H743 C751 0.930 . S
H744 C754 0.930 . S
H745 C755 0.930 . S
C746 H740 0.930 . S
C746 C747 1.355 . S
C746 C748 1.415 . S
C747 C746 1.355 . S
C747 C749 1.419 . S
C748 C746 1.415 . S
C748 C753 1.425 . S
C748 C755 1.409 . S
C749 H741 0.930 . S
C749 C747 1.419 . S
C749 C750 1.362 . S
C750 H742 0.930 . S
C750 C749 1.362 . S
C750 C753 1.409 . S
C751 H743 0.930 . S
C751 C752 1.355 . S
C751 C753 1.415 . S
C752 C751 1.355 . S
C752 C754 1.419 . S
C753 C748 1.425 . S
C753 C750 1.409 . S
C753 C751 1.415 . S
C754 H744 0.930 . S
C754 C752 1.419 . S
C754 C755 1.362 . S
C755 H745 0.930 . S
C755 C748 1.409 . S
C755 C754 1.362 . S
H756 C762 0.930 . S
H757 C765 0.930 . S
H758 C766 0.930 . S
H759 C767 0.930 . S
H760 C770 0.930 . S
H761 C771 0.930 . S
C762 H756 0.930 . S
C762 C763 1.355 . S
C762 C764 1.415 . S
C763 C762 1.355 . S
C763 C765 1.419 . S
C764 C762 1.415 . S
C764 C769 1.425 . S
C764 C771 1.409 . S
C765 H757 0.930 . S
C765 C763 1.419 . S
C765 C766 1.362 . S
C766 H758 0.930 . S
C766 C765 1.362 . S
C766 C769 1.409 . S
C767 H759 0.930 . S
C767 C768 1.355 . S
C767 C769 1.415 . S
C768 C767 1.355 . S
C768 C770 1.419 . S
C769 C764 1.425 . S
C769 C766 1.409 . S
C769 C767 1.415 . S
C770 H760 0.930 . S
C770 C768 1.419 . S
C770 C771 1.362 . S
C771 H761 0.930 . S
C771 C764 1.409 . S
C771 C770 1.362 . S
H772 C778 0.930 . S
H773 C781 0.930 . S
H774 C782 0.930 . S
H775 C783 0.930 . S
H776 C786 0.930 . S
H777 C787 0.930 . S
C778 H772 0.930 . S
C778 C779 1.355 . S
C778 C780 1.415 . S
C779 C778 1.355 . S
C779 C781 1.419 . S
C780 C778 1.415 . S
C780 C785 1.425 . S
C780 C787 1.409 . S
C781 H773 0.930 . S
C781 C779 1.419 . S
C781 C782 1.362 . S
C782 H774 0.930 . S
C782 C781 1.362 . S
C782 C785 1.409 . S
C783 H775 0.930 . S
C783 C784 1.355 . S
C783 C785 1.415 . S
C784 C783 1.355 . S
C784 C786 1.419 . S
C785 C780 1.425 . S
C785 C782 1.409 . S
C785 C783 1.415 . S
C786 H776 0.930 . S
C786 C784 1.419 . S
C786 C787 1.362 . S
C787 H777 0.930 . S
C787 C780 1.409 . S
C787 C786 1.362 . S
C411 C21 1.666 . S
C416 C338 1.603 . S
C427 C61 1.539 . S
C432 C355 1.532 . S
C448 C378 1.205 . S
C443 C82 1.430 . S
C459 C135 1.881 . S
C464 C399 1.457 . S
C480 C358 1.798 . S
C475 C15 1.807 . S
C496 C335 1.739 . S
C491 C42 1.748 . S
C512 C397 1.302 . S
C507 C101 1.397 . S
C528 C376 1.465 . S
C523 C122 1.550 . S
C539 C2 1.806 . S
C544 C400 1.741 . S
C560 C357 1.214 . S
C555 C95 1.596 . S
C571 C141 1.792 . S
C576 C333 1.644 . S
C587 C55 1.573 . S
C592 C379 1.575 . S
C608 C337 1.660 . S
C603 C181 1.687 . S
C619 C202 1.347 . S
C624 C356 1.297 . S
C635 C255 1.507 . S
C640 C375 1.268 . S
C651 C295 1.780 . S
C656 C396 1.367 . S
C667 C175 1.783 . S
C672 C359 1.740 . S
C688 C334 1.805 . S
C683 C221 1.836 . S
C704 C398 1.137 . S
C699 C242 1.182 . S
C720 C377 1.668 . S
C715 C301 1.693 . S
C731 C162 1.513 . S
C736 C401 1.592 . S
C752 C354 1.165 . S
C747 C261 1.431 . S
C768 C336 1.446 . S
C763 C282 1.529 . S
C779 C215 1.513 . S
C784 C380 1.570 . S
