# Generated by pormake.
# Topology rtl, (3,6)-cn, num edge types: 1
# Building blocks:
#     Node 0, Type 0, BuildingBlock: WUSLED_clean_sbu_0, # of connection points: 3
#     Node 1, Type 0, BuildingBlock: WUSLED_clean_sbu_0, # of connection points: 3
#     Node 2, Type 0, BuildingBlock: WUSLED_clean_sbu_0, # of connection points: 3
#     Node 3, Type 0, BuildingBlock: WUSLED_clean_sbu_0, # of connection points: 3
#     Node 4, Type 1, BuildingBlock: CIFDUS_clean_sbu_1, # of connection points: 6
#     Node 5, Type 1, BuildingBlock: CIFDUS_clean_sbu_1, # of connection points: 6
#     Edge 6, Type (0, 1), BuildingBlock: MIFKUJ_clean_linker_0, # of connection points: 2
#     Edge 7, Type (0, 1), BuildingBlock: MIFKUJ_clean_linker_0, # of connection points: 2
#     Edge 8, Type (0, 1), BuildingBlock: MIFKUJ_clean_linker_0, # of connection points: 2
#     Edge 9, Type (0, 1), BuildingBlock: MIFKUJ_clean_linker_0, # of connection points: 2
#     Edge 10, Type (0, 1), BuildingBlock: MIFKUJ_clean_linker_0, # of connection points: 2
#     Edge 11, Type (0, 1), BuildingBlock: MIFKUJ_clean_linker_0, # of connection points: 2
#     Edge 12, Type (0, 1), BuildingBlock: MIFKUJ_clean_linker_0, # of connection points: 2
#     Edge 13, Type (0, 1), BuildingBlock: MIFKUJ_clean_linker_0, # of connection points: 2
#     Edge 14, Type (0, 1), BuildingBlock: MIFKUJ_clean_linker_0, # of connection points: 2
#     Edge 15, Type (0, 1), BuildingBlock: MIFKUJ_clean_linker_0, # of connection points: 2
#     Edge 16, Type (0, 1), BuildingBlock: MIFKUJ_clean_linker_0, # of connection points: 2
#     Edge 17, Type (0, 1), BuildingBlock: MIFKUJ_clean_linker_0, # of connection points: 2
# Relax obj value: 0.026
# Max RMSD: 0.062
# Mean RMSD: 0.045
data_MOF--net-rtl--node1-WUSLED_clean_sbu_0--node2-CIFDUS_clean_sbu_1--edge1-MIFKUJ_clean_linker_0
_symmetry_space_group_name_H-M    P1
_symmetry_Int_Tables_number       1
_symmetry_cell_setting            triclinic
loop_
_symmetry_equiv_pos_as_xyz
'x, y, z'
_cell_length_a     49.040518
_cell_length_b     55.507001
_cell_length_c     38.07891
_cell_angle_alpha  90.669734
_cell_angle_beta   97.853201
_cell_angle_gamma 89.665619
loop_
_atom_site_label
_atom_site_type_symbol
_atom_site_fract_x
_atom_site_fract_y
_atom_site_fract_z
_atom_type_partial_charge
C0 C 0.26669 0.91901 0.2001 0.0
C1 C 0.2446 0.9346 0.18879 0.0
C2 C 0.23594 0.94038 0.24997 0.0
C3 C 0.22922 0.9451 0.21359 0.0
C4 C 0.25851 0.9254 0.26121 0.0
C5 C 0.27365 0.91474 0.23648 0.0
U6 U 0.28399 0.90318 0.10605 0.0
O7 O 0.32361 0.89177 0.0894 0.0
O8 O 0.28828 0.86725 0.08248 0.0
C9 C 0.31434 0.87029 0.07909 0.0
C10 C 0.28153 0.90556 0.17472 0.0
C11 C 0.33287 0.84941 0.08762 0.0
C12 C 0.35023 0.8157 0.12486 0.0
C13 C 0.33446 0.83696 0.11977 0.0
C14 C 0.36335 0.81953 0.06619 0.0
C15 C 0.36462 0.80652 0.09788 0.0
C16 C 0.34775 0.84068 0.06123 0.0
C17 C 0.24489 0.9391 0.02623 0.0
C18 C 0.24532 0.93312 0.96272 0.0
C19 C 0.21188 0.96009 0.98364 0.0
C20 C 0.22301 0.9554 0.01864 0.0
C21 C 0.2226 0.94877 0.95535 0.0
C22 C 0.25632 0.92816 0.99805 0.0
C23 C 0.25361 0.93308 0.06381 0.0
O24 O 0.26645 0.89091 0.15284 0.0
O25 O 0.29956 0.9176 0.15933 0.0
O26 O 0.27919 0.93766 0.07738 0.0
O27 O 0.24451 0.91259 0.07448 0.0
H28 H 0.23886 0.93814 0.16083 0.0
H29 H 0.21186 0.95662 0.20437 0.0
H30 H 0.26386 0.92131 0.28906 0.0
H31 H 0.29044 0.90263 0.24574 0.0
H32 H 0.35097 0.80635 0.14977 0.0
H33 H 0.32312 0.84337 0.14054 0.0
H34 H 0.37364 0.81295 0.04453 0.0
H35 H 0.34664 0.84988 0.03612 0.0
H36 H 0.25383 0.9241 0.94126 0.0
H37 H 0.19448 0.97227 0.97863 0.0
H38 H 0.21393 0.96406 0.03994 0.0
H39 H 0.27318 0.91544 1.00335 0.0
C40 C 0.73149 0.64764 0.68895 0.0
C41 C 0.71529 0.62744 0.67759 0.0
C42 C 0.70188 0.62354 0.73676 0.0
C43 C 0.70074 0.61535 0.70144 0.0
C44 C 0.71825 0.64365 0.74785 0.0
C45 C 0.73293 0.65548 0.72425 0.0
U46 U 0.7496 0.6638 0.5964 0.0
O47 O 0.75605 0.69947 0.57436 0.0
O48 O 0.7898 0.67305 0.58005 0.0
C49 C 0.78197 0.69509 0.5711 0.0
C50 C 0.74675 0.66126 0.66479 0.0
C51 C 0.80193 0.7148 0.58129 0.0
C52 C 0.81688 0.75096 0.61551 0.0
C53 C 0.79955 0.73078 0.60966 0.0
C54 C 0.83994 0.73884 0.56585 0.0
C55 C 0.83705 0.75538 0.59334 0.0
C56 C 0.82252 0.71888 0.55984 0.0
C57 C 0.70957 0.62729 0.51662 0.0
C58 C 0.70895 0.63151 0.45289 0.0
C59 C 0.67914 0.60256 0.47555 0.0
C60 C 0.6897 0.6092 0.51014 0.0
C61 C 0.68826 0.61387 0.44649 0.0
C62 C 0.71946 0.63831 0.48783 0.0
C63 C 0.71828 0.6345 0.5538 0.0
O64 O 0.76476 0.64906 0.649 0.0
O65 O 0.73213 0.67647 0.64366 0.0
O66 O 0.71009 0.6558 0.56368 0.0
O67 O 0.74353 0.62905 0.56778 0.0
H68 H 0.71378 0.62115 0.65036 0.0
H69 H 0.68813 0.59999 0.69214 0.0
H70 H 0.71975 0.65021 0.77495 0.0
H71 H 0.74533 0.67096 0.73358 0.0
H72 H 0.81431 0.76328 0.63709 0.0
H73 H 0.78388 0.72804 0.62668 0.0
H74 H 0.85501 0.74185 0.54805 0.0
H75 H 0.8246 0.70696 0.53761 0.0
H76 H 0.71632 0.64054 0.43096 0.0
H77 H 0.66357 0.58867 0.47151 0.0
H78 H 0.6819 0.60041 0.532 0.0
H79 H 0.73483 0.65234 0.49235 0.0
C80 C 0.78357 0.13734 0.11393 0.0
C81 C 0.80615 0.12254 0.10896 0.0
C82 C 0.81612 0.11632 0.17294 0.0
C83 C 0.82224 0.11197 0.13829 0.0
C84 C 0.79274 0.13022 0.17729 0.0
C85 C 0.77671 0.14057 0.14817 0.0
U86 U 0.76294 0.15633 0.01571 0.0
O87 O 0.72261 0.1693 0.98968 0.0
O88 O 0.75847 0.19319 0.99474 0.0
C89 C 0.73192 0.19097 0.98446 0.0
C90 C 0.76818 0.15148 0.08499 0.0
C91 C 0.71444 0.21196 0.99121 0.0
C92 C 0.68386 0.23439 0.02544 0.0
C93 C 0.70061 0.21412 0.02113 0.0
C94 C 0.69497 0.25053 0.97044 0.0
C95 C 0.68066 0.25288 0.99995 0.0
C96 C 0.71144 0.23038 0.96613 0.0
C97 C 0.79978 0.12148 0.94424 0.0
C98 C 0.79557 0.12415 0.87981 0.0
C99 C 0.83315 0.10155 0.91201 0.0
C100 C 0.82328 0.10708 0.9438 0.0
C101 C 0.81964 0.11016 0.87971 0.0
C102 C 0.78577 0.12995 0.912 0.0
C103 C 0.79151 0.12738 0.97921 0.0
O104 O 0.7828 0.16655 0.06897 0.0
O105 O 0.74929 0.14018 0.06312 0.0
O106 O 0.76604 0.12294 0.98432 0.0
O107 O 0.80133 0.14744 0.99447 0.0
H108 H 0.81182 0.1198 0.08268 0.0
H109 H 0.8401 0.10132 0.13405 0.0
H110 H 0.78712 0.13355 0.20347 0.0
H111 H 0.75936 0.15185 0.15259 0.0
H112 H 0.67313 0.23535 0.04845 0.0
H113 H 0.70263 0.20015 0.04095 0.0
H114 H 0.69383 0.26446 0.95063 0.0
H115 H 0.72198 0.22919 0.94293 0.0
H116 H 0.78484 0.13106 0.8552 0.0
H117 H 0.85153 0.09053 0.91269 0.0
H118 H 0.83431 0.10027 0.96832 0.0
H119 H 0.76759 0.14116 0.91176 0.0
C120 C 0.25653 0.41623 0.40657 0.0
C121 C 0.27459 0.43537 0.41705 0.0
C122 C 0.28743 0.43749 0.35705 0.0
C123 C 0.28986 0.44593 0.39251 0.0
C124 C 0.26905 0.41843 0.34697 0.0
C125 C 0.25382 0.40806 0.37134 0.0
U126 U 0.23718 0.40199 0.49996 0.0
O127 O 0.19692 0.39151 0.51509 0.0
O128 O 0.232 0.36649 0.52321 0.0
C129 C 0.20595 0.37021 0.52629 0.0
C130 C 0.24114 0.40354 0.43166 0.0
C131 C 0.18724 0.34931 0.51957 0.0
C132 C 0.16635 0.31602 0.48313 0.0
C133 C 0.18192 0.33742 0.48656 0.0
C134 C 0.16087 0.31869 0.54525 0.0
C135 C 0.15625 0.30608 0.51276 0.0
C136 C 0.17611 0.33998 0.54854 0.0
C137 C 0.27474 0.43755 0.58156 0.0
C138 C 0.27678 0.42831 0.6443 0.0
C139 C 0.30294 0.46166 0.62608 0.0
C140 C 0.29259 0.45689 0.5907 0.0
C141 C 0.29555 0.44729 0.65351 0.0
C142 C 0.26653 0.42342 0.6086 0.0
C143 C 0.26723 0.43166 0.54356 0.0
O144 O 0.25565 0.38885 0.45376 0.0
O145 O 0.22292 0.41613 0.44657 0.0
O146 O 0.24204 0.43677 0.52895 0.0
O147 O 0.27625 0.41087 0.53288 0.0
H148 H 0.27707 0.44198 0.44417 0.0
H149 H 0.30349 0.46072 0.40132 0.0
H150 H 0.26687 0.41098 0.32034 0.0
H151 H 0.24017 0.39322 0.36271 0.0
H152 H 0.16321 0.30675 0.45773 0.0
H153 H 0.19035 0.34427 0.46382 0.0
H154 H 0.15305 0.31186 0.56845 0.0
H155 H 0.1799 0.34886 0.57423 0.0
H156 H 0.27024 0.41704 0.66458 0.0
H157 H 0.31769 0.47611 0.63165 0.0
H158 H 0.29933 0.4679 0.57022 0.0
H159 H 0.25275 0.40836 0.60209 0.0
O160 O 0.99295 0.03591 0.51488 0.0
Mn161 Mn 0.01916 0.02126 0.559 0.0
O162 O 0.9777 1.00393 0.48232 0.0
Mn163 Mn 0.99918 0.98289 0.51012 0.0
O164 O 0.0458 1.00589 0.60276 0.0
O165 O 0.03813 0.05561 0.56149 0.0
Mn166 Mn 0.0438 0.05652 0.60881 0.0
O167 O 0.98975 0.0316 0.59278 0.0
O168 O 0.07086 0.03617 0.62759 0.0
O169 O 0.049 0.01129 0.525 0.0
O170 O 0.03311 0.97776 0.4976 0.0
O171 O 0.05588 0.0851 0.59976 0.0
O172 O 0.01297 0.05728 0.63065 0.0
C173 C 0.9865 0.96627 0.55147 0.0
C174 C 0.97882 0.02646 0.48716 0.0
C175 C 0.0662 0.01394 0.62464 0.0
C176 C 0.0499 0.07708 0.5675 0.0
C177 C 0.99138 0.04548 0.62032 0.0
C178 C 0.05164 0.99347 0.50366 0.0
O179 O 0.99898 0.9875 0.55631 0.0
O180 O 0.98245 0.95649 0.52008 0.0
O181 O 0.52946 0.53779 0.08953 0.0
Mn182 Mn 0.50213 0.52294 0.04821 0.0
O183 O 0.52528 0.51108 0.1308 0.0
Mn184 Mn 0.51078 0.48844 0.09718 0.0
O185 O 0.47482 0.50777 1.00407 0.0
O186 O 0.48546 0.5577 0.04461 0.0
Mn187 Mn 0.47864 0.55984 0.99826 0.0
O188 O 0.53152 0.53104 0.01386 0.0
O189 O 0.45169 0.53943 0.98048 0.0
O190 O 0.47097 0.5177 0.08218 0.0
O191 O 0.47498 0.48024 0.09766 0.0
O192 O 0.46693 0.58843 1.01109 0.0
O193 O 0.51048 0.55932 0.97826 0.0
C194 C 0.53446 0.46857 0.06889 0.0
C195 C 0.53423 0.53099 0.12162 0.0
C196 C 0.4557 0.51703 0.98132 0.0
C197 C 0.47491 0.57967 0.04226 0.0
C198 C 0.53127 0.54621 0.98838 0.0
C199 C 0.46084 0.49905 0.09516 0.0
O200 O 0.52244 0.4883 0.05381 0.0
O201 O 0.53134 0.46292 0.10099 0.0
H202 H 0.16542 0.26941 0.56009 0.0
H203 H 0.14359 0.22993 0.55796 0.0
H204 H 0.09413 0.24812 0.45937 0.0
H205 H 0.11593 0.28808 0.46143 0.0
H206 H 0.06514 0.22307 0.51382 0.0
H207 H 0.14697 0.21394 0.45285 0.0
H208 H 0.19674 0.21895 0.45107 0.0
H209 H 0.21495 0.17837 0.54684 0.0
H210 H 0.16531 0.17331 0.5493 0.0
H211 H 0.01912 0.10195 0.51309 0.0
H212 H 0.03414 0.13992 0.48931 0.0
H213 H 0.1156 0.12834 0.54626 0.0
H214 H 0.10159 0.08963 0.56495 0.0
H215 H 0.12513 0.15226 0.50094 0.0
H216 H 0.05234 0.1656 0.57449 0.0
H217 H 1.00524 0.16246 0.59005 0.0
H218 H 0.97274 0.19593 0.49195 0.0
H219 H 0.01964 0.19906 0.47572 0.0
C220 C 0.14969 0.26521 0.53809 0.0
C221 C 0.14245 0.28201 0.51093 0.0
C222 C 0.13726 0.24254 0.53687 0.0
C223 C 0.11724 0.23598 0.50849 0.0
C224 C 0.1095 0.25279 0.48157 0.0
C225 C 0.12215 0.27553 0.48261 0.0
C226 C 0.10571 0.21109 0.50636 0.0
C227 C 0.07806 0.20748 0.51062 0.0
C228 C 0.12273 0.19076 0.50339 0.0
C229 C 0.15249 0.19326 0.50121 0.0
C230 C 0.16162 0.20612 0.47351 0.0
C231 C 0.18979 0.20897 0.4724 0.0
C232 C 0.20899 0.19898 0.49881 0.0
C233 C 0.20007 0.18606 0.52635 0.0
C234 C 0.17193 0.18314 0.52756 0.0
C235 C 0.04064 0.10691 0.51828 0.0
C236 C 0.05931 0.09258 0.54035 0.0
C237 C 0.04909 0.12915 0.50587 0.0
C238 C 0.0759 0.13804 0.51705 0.0
C239 C 0.09486 0.12252 0.5367 0.0
C240 C 0.08685 0.1 0.54732 0.0
C241 C 0.08451 0.16354 0.51062 0.0
C242 C 0.11177 0.1675 0.50428 0.0
C243 C 0.06748 0.18411 0.51395 0.0
C244 C 0.03938 0.18225 0.5237 0.0
C245 C 0.03511 0.17217 0.5562 0.0
C246 C 1.00847 0.1704 0.56513 0.0
C247 C 0.98601 0.1789 0.54194 0.0
C248 C 0.99015 0.18928 0.50983 0.0
C249 C 0.01673 0.19106 0.50076 0.0
H250 H 0.9654 0.17751 0.54889 0.0
H251 H 0.23079 0.20124 0.49793 0.0
H252 H 0.41381 0.79459 0.07492 0.0
H253 H 0.4361 0.75517 0.07539 0.0
H254 H 0.37255 0.7254 0.12954 0.0
H255 H 0.35002 0.76486 0.12912 0.0
H256 H 0.42046 0.70596 0.15522 0.0
H257 H 0.3722 0.7187 0.03931 0.0
H258 H 0.35862 0.73972 0.9829 0.0
H259 H 0.44166 0.73498 0.95934 0.0
H260 H 0.45587 0.71435 0.01598 0.0
H261 H 0.43386 0.58376 0.08303 0.0
H262 H 0.41847 0.62319 0.10289 0.0
H263 H 0.49423 0.6549 0.08093 0.0
H264 H 0.50996 0.61548 0.06237 0.0
H265 H 0.44042 0.67255 0.03995 0.0
H266 H 0.48808 0.66047 0.15755 0.0
H267 H 0.49966 0.63561 0.21078 0.0
H268 H 0.41474 0.63574 0.22727 0.0
H269 H 0.40263 0.66038 0.17374 0.0
C270 C 0.4045 0.7797 0.08696 0.0
C271 C 0.37984 0.78299 0.10161 0.0
C272 C 0.41733 0.7571 0.08724 0.0
C273 C 0.40577 0.73707 0.10187 0.0
C274 C 0.38188 0.74049 0.11797 0.0
C275 C 0.36904 0.76315 0.11781 0.0
C276 C 0.41799 0.71249 0.09909 0.0
C277 C 0.42456 0.69868 0.1299 0.0
C278 C 0.42363 0.70276 0.06617 0.0
C279 C 0.41517 0.71524 0.03212 0.0
C280 C 0.38763 0.72235 0.02227 0.0
C281 C 0.37981 0.73417 0.99023 0.0
C282 C 0.39929 0.73875 0.9676 0.0
C283 C 0.42662 0.73148 0.97694 0.0
C284 C 0.43457 0.71973 1.00902 0.0
C285 C 0.44804 0.59877 0.08501 0.0
C286 C 0.47341 0.59641 0.07202 0.0
C287 C 0.43896 0.62142 0.09551 0.0
C288 C 0.45504 0.64201 0.09272 0.0
C289 C 0.48148 0.63926 0.08313 0.0
C290 C 0.49073 0.61659 0.07338 0.0
C291 C 0.44317 0.66651 0.09599 0.0
C292 C 0.43646 0.6801 0.06519 0.0
C293 C 0.43717 0.67588 0.12866 0.0
C294 C 0.44446 0.66219 0.16171 0.0
C295 C 0.47188 0.65517 0.17254 0.0
C296 C 0.47854 0.64112 0.20271 0.0
C297 C 0.45795 0.63414 0.22243 0.0
C298 C 0.43067 0.64123 0.21202 0.0
C299 C 0.4239 0.65528 0.1818 0.0
H300 H 0.46318 0.62328 0.24582 0.0
H301 H 0.39318 0.74788 0.94278 0.0
H302 H 0.89299 0.75979 0.59502 0.0
H303 H 0.92002 0.79704 0.59709 0.0
H304 H 0.84616 0.83891 0.60098 0.0
H305 H 0.81917 0.80177 0.59942 0.0
H306 H 0.87789 0.85405 0.54892 0.0
H307 H 0.89156 0.8343 0.67343 0.0
H308 H 0.90641 0.80969 0.72615 0.0
H309 H 0.98877 0.8072 0.69975 0.0
H310 H 0.9743 0.83147 0.64654 0.0
H311 H 0.93545 0.96919 0.57018 0.0
H312 H 0.91019 0.93344 0.58415 0.0
H313 H 0.98636 0.89337 0.6014 0.0
H314 H 0.0115 0.92926 0.58816 0.0
H315 H 0.95411 0.87644 0.64277 0.0
H316 H 0.94394 0.894 0.52021 0.0
H317 H 0.93221 0.91609 0.46435 0.0
H318 H 0.84743 0.91926 0.48108 0.0
H319 H 0.85873 0.89762 0.53743 0.0
C320 C 0.88259 0.77695 0.59668 0.0
C321 C 0.85394 0.77782 0.59726 0.0
C322 C 0.89807 0.79822 0.59798 0.0
C323 C 0.88518 0.82084 0.59936 0.0
C324 C 0.85661 0.82171 0.60008 0.0
C325 C 0.84122 0.80046 0.59941 0.0
C326 C 0.90111 0.84364 0.59842 0.0
C327 C 0.89425 0.85919 0.56975 0.0
C328 C 0.92335 0.84981 0.62466 0.0
C329 C 0.93176 0.83442 0.65579 0.0
C330 C 0.91274 0.8282 0.67859 0.0
C331 C 0.92111 0.81439 0.70863 0.0
C332 C 0.94849 0.80683 0.71624 0.0
C333 C 0.96755 0.81302 0.69378 0.0
C334 C 0.95927 0.82678 0.66368 0.0
C335 C 0.94699 0.95323 0.57937 0.0
C336 C 0.9756 0.9523 0.57899 0.0
C337 C 0.93242 0.93251 0.58626 0.0
C338 C 0.94618 0.91036 0.59273 0.0
C339 C 0.97511 0.9101 0.59627 0.0
C340 C 0.98963 0.93085 0.58951 0.0
C341 C 0.93054 0.8873 0.59361 0.0
C342 C 0.93761 0.87152 0.62201 0.0
C343 C 0.90894 0.8806 0.56654 0.0
C344 C 0.90229 0.89455 0.53342 0.0
C345 C 0.92287 0.89975 0.5123 0.0
C346 C 0.91628 0.91211 0.48046 0.0
C347 C 0.88912 0.91917 0.46925 0.0
C348 C 0.86849 0.91388 0.48987 0.0
C349 C 0.87498 0.9016 0.52179 0.0
H350 H 0.88404 0.92866 0.44453 0.0
H351 H 0.95496 0.79623 0.73961 0.0
H352 H 0.67132 0.27724 0.06115 0.0
H353 H 0.64444 0.31415 0.06615 0.0
H354 H 0.62361 0.3157 0.95258 0.0
H355 H 0.64918 0.27835 0.94727 0.0
H356 H 0.6435 0.36024 0.98198 0.0
H357 H 0.57547 0.30139 0.99891 0.0
H358 H 0.55581 0.26648 0.02588 0.0
H359 H 0.56654 0.30254 0.12718 0.0
H360 H 0.58668 0.33753 0.10091 0.0
H361 H 0.53096 0.45214 0.99847 0.0
H362 H 0.55534 0.41625 0.97853 0.0
H363 H 0.60142 0.41024 0.08282 0.0
H364 H 0.57887 0.44602 0.10199 0.0
H365 H 0.56512 0.36753 0.05111 0.0
H366 H 0.63799 0.42328 0.03754 0.0
H367 H 0.65851 0.45863 0.0129 0.0
H368 H 0.64032 0.42844 0.90802 0.0
H369 H 0.619 0.39313 0.93204 0.0
C370 C 0.66063 0.28509 0.03721 0.0
C371 C 0.66287 0.27469 1.00374 0.0
C372 C 0.64537 0.30635 0.04013 0.0
C373 C 0.63209 0.31783 1.0097 0.0
C374 C 0.63388 0.30736 0.97641 0.0
C375 C 0.64876 0.28598 0.97348 0.0
C376 C 0.6169 0.34104 1.01246 0.0
C377 C 0.62603 0.3617 0.99656 0.0
C378 C 0.59439 0.34318 0.03196 0.0
C379 C 0.58285 0.32197 0.048 0.0
C380 C 0.57395 0.30176 0.02702 0.0
C381 C 0.56264 0.28198 0.04216 0.0
C382 C 0.55999 0.28226 0.07824 0.0
C383 C 0.56865 0.30233 0.09925 0.0
C384 C 0.58 0.32214 0.08425 0.0
C385 C 0.54705 0.44367 0.01656 0.0
C386 C 0.55276 0.45187 0.05188 0.0
C387 C 0.56073 0.42303 1.00535 0.0
C388 C 0.57991 0.41039 0.02947 0.0
C389 C 0.58663 0.41954 0.06385 0.0
C390 C 0.57366 0.44013 0.07467 0.0
C391 C 0.59179 0.38664 0.02076 0.0
C392 C 0.5822 0.3659 0.03588 0.0
C393 C 0.61407 0.3845 1.001 0.0
C394 C 0.62632 0.40587 0.98647 0.0
C395 C 0.63784 0.4244 1.00915 0.0
C396 C 0.64975 0.44438 0.99532 0.0
C397 C 0.65056 0.44586 0.95888 0.0
C398 C 0.63952 0.42733 0.93622 0.0
C399 C 0.62748 0.40736 0.94991 0.0
H400 H 0.65987 0.4613 0.94823 0.0
H401 H 0.55117 0.26696 0.08989 0.0
H402 H 0.18435 0.92606 0.2576 0.0
H403 H 0.15623 0.93889 0.30287 0.0
H404 H 0.21988 0.98846 0.34635 0.0
H405 H 0.24868 0.97446 0.30201 0.0
H406 H 0.19988 0.96792 0.39857 0.0
H407 H 0.15699 1.00717 0.29257 0.0
H408 H 0.13649 0.0085 0.22974 0.0
H409 H 0.07419 0.95847 0.2501 0.0
H410 H 0.09448 0.95667 0.31298 0.0
H411 H 0.09865 0.02198 0.50358 0.0
H412 H 0.13351 0.018 0.46252 0.0
H413 H 0.08997 0.95687 0.41208 0.0
H414 H 0.05631 0.96011 0.45225 0.0
H415 H 0.10195 0.99032 0.36386 0.0
H416 H 0.14563 0.94696 0.46508 0.0
H417 H 0.16534 0.94236 0.52775 0.0
H418 H 0.22505 0.99701 0.51635 0.0
H419 H 0.20534 1.00221 0.45368 0.0
C420 C 0.19217 0.93984 0.27667 0.0
C421 C 0.21843 0.94956 0.27608 0.0
C422 C 0.17607 0.94727 0.3025 0.0
C423 C 0.18552 0.96517 0.3277 0.0
C424 C 0.21196 0.97477 0.3272 0.0
C425 C 0.22833 0.96692 0.30176 0.0
C426 C 0.16787 0.97355 0.35464 0.0
C427 C 0.17865 0.97336 0.39084 0.0
C428 C 0.13992 0.98024 0.34497 0.0
C429 C 0.1273 0.98175 0.3074 0.0
C430 C 0.13894 0.99644 0.2836 0.0
C431 C 0.12737 0.99725 0.24799 0.0
C432 C 0.10407 0.98356 0.23593 0.0
C433 C 0.09222 0.96908 0.25949 0.0
C434 C 0.10371 0.9682 0.29512 0.0
C435 C 0.0968 1.00757 0.48401 0.0
C436 C 0.0746 0.99138 0.48165 0.0
C437 C 0.11664 1.00534 0.4605 0.0
C438 C 0.11422 0.98718 0.43402 0.0
C439 C 0.09225 0.9711 0.432 0.0
C440 C 0.07297 0.97301 0.45544 0.0
C441 C 0.1339 0.98444 0.40762 0.0
C442 C 0.12342 0.98555 0.37147 0.0
C443 C 0.16192 0.97833 0.41738 0.0
C444 C 0.17374 0.97527 0.45494 0.0
C445 C 0.16275 0.9582 0.47607 0.0
C446 C 0.17396 0.95544 0.51155 0.0
C447 C 0.19635 0.96947 0.52608 0.0
C448 C 0.20764 0.98622 0.5051 0.0
C449 C 0.19645 0.9891 0.46961 0.0
H450 H 0.20502 0.9673 0.55356 0.0
H451 H 0.09518 0.98419 0.20833 0.0
H452 H 0.70027 0.57559 0.75377 0.0
H453 H 0.67667 0.55746 0.79981 0.0
H454 H 0.64273 0.62707 0.82201 0.0
H455 H 0.66727 0.64519 0.77747 0.0
H456 H 0.66006 0.60846 0.88036 0.0
H457 H 0.60548 0.57653 0.7747 0.0
H458 H 0.59668 0.5535 0.71854 0.0
H459 H 0.62732 0.48915 0.77212 0.0
H460 H 0.63667 0.5119 0.82848 0.0
H461 H 0.54479 0.58811 0.96104 0.0
H462 H 0.57852 0.59559 0.92199 0.0
H463 H 0.60728 0.52213 0.93356 0.0
H464 H 0.57188 0.51404 0.97241 0.0
H465 H 0.60012 0.53644 0.86395 0.0
H466 H 0.64711 0.56977 0.97218 0.0
H467 H 0.65058 0.59409 0.02724 0.0
H468 H 0.62939 0.65788 0.9666 0.0
H469 H 0.62542 0.63392 0.91124 0.0
C470 C 0.68753 0.58689 0.76834 0.0
C471 C 0.68569 0.61182 0.76215 0.0
C472 C 0.67395 0.57651 0.79459 0.0
C473 C 0.65765 0.59078 0.81451 0.0
C474 C 0.65528 0.61558 0.80743 0.0
C475 C 0.66925 0.62597 0.78183 0.0
C476 C 0.64386 0.58051 0.84372 0.0
C477 C 0.64684 0.59277 0.8765 0.0
C478 C 0.62735 0.55948 0.83962 0.0
C479 C 0.62216 0.54598 0.80564 0.0
C480 C 0.61062 0.55753 0.7744 0.0
C481 C 0.60548 0.54451 0.74256 0.0
C482 C 0.61154 0.5199 0.74173 0.0
C483 C 0.62272 0.50823 0.77276 0.0
C484 C 0.62796 0.52117 0.80464 0.0
C485 C 0.55838 0.57343 0.95573 0.0
C486 C 0.55553 0.55039 0.96984 0.0
C487 C 0.57792 0.57787 0.93346 0.0
C488 C 0.59586 0.55961 0.92516 0.0
C489 C 0.59375 0.53658 0.93983 0.0
C490 C 0.57377 0.53201 0.96227 0.0
C491 C 0.61559 0.56497 0.89976 0.0
C492 C 0.6138 0.55182 0.86785 0.0
C493 C 0.63286 0.58546 0.90434 0.0
C494 C 0.636 0.60002 0.93757 0.0
C495 C 0.64316 0.58898 0.97061 0.0
C496 C 0.64518 0.6027 1.00187 0.0
C497 C 0.64022 0.62751 1.00042 0.0
C498 C 0.63328 0.63867 0.96769 0.0
C499 C 0.63121 0.62503 0.93636 0.0
H500 H 0.64175 0.63809 0.02466 0.0
H501 H 0.6075 0.50984 0.71706 0.0
H502 H 0.83416 0.14228 0.23256 0.0
H503 H 0.86291 0.12901 0.28618 0.0
H504 H 0.86967 0.05839 0.23966 0.0
H505 H 0.84024 0.07159 0.18564 0.0
H506 H 0.8597 0.05524 0.30777 0.0
H507 H 0.92422 0.09538 0.24788 0.0
H508 H 0.94302 0.12788 0.21484 0.0
H509 H 0.94111 0.17621 0.30338 0.0
H510 H 0.92197 0.14403 0.33681 0.0
H511 H 0.97405 0.01338 0.41864 0.0
H512 H 0.94727 0.03196 0.36802 0.0
H513 H 0.92655 0.091 0.43412 0.0
H514 H 0.9536 0.07193 0.48639 0.0
H515 H 0.94297 0.10093 0.35829 0.0
H516 H 0.87918 0.05582 0.41844 0.0
H517 H 0.86556 0.01973 0.44883 0.0
H518 H 0.8712 0.97687 0.35546 0.0
H519 H 0.88526 0.01268 0.32468 0.0
C520 C 0.84162 0.12387 0.2337 0.0
C521 C 0.83471 0.10795 0.20485 0.0
C522 C 0.85829 0.11636 0.26433 0.0
C523 C 0.86868 0.09275 0.26699 0.0
C524 C 0.86193 0.07672 0.23824 0.0
C525 C 0.84528 0.08431 0.20731 0.0
C526 C 0.88618 0.08501 0.30013 0.0
C527 C 0.87796 0.06519 0.31861 0.0
C528 C 0.90999 0.09798 0.31463 0.0
C529 C 0.92139 0.1174 0.29468 0.0
C530 C 0.92758 0.11301 0.26018 0.0
C531 C 0.93835 0.13134 0.24141 0.0
C532 C 0.94318 0.15412 0.25696 0.0
C533 C 0.93732 0.15857 0.29135 0.0
C534 C 0.92654 0.14029 0.31024 0.0
C535 C 0.96395 0.0304 0.42277 0.0
C536 C 0.96549 0.04091 0.45687 0.0
C537 C 0.9487 0.04102 0.39357 0.0
C538 C 0.93456 0.06259 0.39736 0.0
C539 C 0.93725 0.07418 0.43081 0.0
C540 C 0.95269 0.06336 0.46056 0.0
C541 C 0.91602 0.07168 0.36616 0.0
C542 C 0.92431 0.09143 0.34774 0.0
C543 C 0.89263 0.05832 0.35131 0.0
C544 C 0.88341 0.0369 0.36935 0.0
C545 C 0.87764 0.03867 0.40446 0.0
C546 C 0.86984 0.01827 0.42174 0.0
C547 C 0.86756 0.99601 0.40411 0.0
C548 C 0.87297 0.99413 0.36908 0.0
C549 C 0.88081 0.01448 0.35169 0.0
H550 H 0.86157 0.98022 0.41756 0.0
H551 H 0.95152 0.1683 0.24239 0.0
H552 H 0.31105 0.41366 0.7054 0.0
H553 H 0.33771 0.42031 0.76377 0.0
H554 H 0.33809 0.49668 0.74466 0.0
H555 H 0.31056 0.49042 0.68701 0.0
H556 H 0.38941 0.4798 0.76508 0.0
H557 H 0.30215 0.47578 0.80514 0.0
H558 H 0.25688 0.45924 0.81304 0.0
H559 H 0.29618 0.3972 0.86435 0.0
H560 H 0.34172 0.41325 0.85632 0.0
H561 H 0.42575 0.53704 0.92407 0.0
H562 H 0.40153 0.51854 0.8723 0.0
H563 H 0.42469 0.44816 0.91305 0.0
H564 H 0.45019 0.46704 0.96721 0.0
H565 H 0.36594 0.45516 0.8821 0.0
H566 H 0.45583 0.46718 0.84682 0.0
H567 H 0.49786 0.49007 0.8407 0.0
H568 H 0.44926 0.54438 0.78162 0.0
H569 H 0.40694 0.52198 0.78771 0.0
C570 C 0.31614 0.43197 0.71385 0.0
C571 C 0.30883 0.45144 0.69095 0.0
C572 C 0.33157 0.43571 0.74728 0.0
C573 C 0.34017 0.45897 0.75854 0.0
C574 C 0.332 0.47852 0.73643 0.0
C575 C 0.31634 0.47485 0.70326 0.0
C576 C 0.35906 0.4629 0.79226 0.0
C577 C 0.38423 0.47439 0.79064 0.0
C578 C 0.3526 0.45554 0.82564 0.0
C579 C 0.32529 0.44552 0.82964 0.0
C580 C 0.30112 0.45845 0.81767 0.0
C581 C 0.27541 0.44921 0.82229 0.0
C582 C 0.27364 0.42713 0.83906 0.0
C583 C 0.29758 0.41426 0.85127 0.0
C584 C 0.32334 0.42342 0.8467 0.0
C585 C 0.42594 0.51753 0.92297 0.0
C586 C 0.44011 0.5036 0.95067 0.0
C587 C 0.41202 0.50699 0.89265 0.0
C588 C 0.41157 0.48203 0.88832 0.0
C589 C 0.42504 0.4676 0.91579 0.0
C590 C 0.43954 0.47834 0.94671 0.0
C591 C 0.39626 0.47204 0.85487 0.0
C592 C 0.37153 0.45974 0.85641 0.0
C593 C 0.40273 0.4793 0.82137 0.0
C594 C 0.4282 0.49287 0.81779 0.0
C595 C 0.45409 0.48407 0.83271 0.0
C596 C 0.47797 0.49695 0.8292 0.0
C597 C 0.47623 0.51866 0.81078 0.0
C598 C 0.4506 0.52754 0.79583 0.0
C599 C 0.42667 0.51473 0.79924 0.0
H600 H 0.49475 0.52859 0.80809 0.0
H601 H 0.25372 0.42003 0.8427 0.0
H602 H 0.63352 0.61081 0.42334 0.0
H603 H 0.61094 0.59842 0.36504 0.0
H604 H 0.69005 0.59012 0.32862 0.0
H605 H 0.71286 0.60327 0.38725 0.0
H606 H 0.65494 0.60903 0.27788 0.0
H607 H 0.65225 0.53997 0.35042 0.0
H608 H 0.64377 0.51631 0.40225 0.0
H609 H 0.55781 0.53441 0.38272 0.0
H610 H 0.56583 0.55838 0.33101 0.0
H611 H 0.5886 0.54213 0.12513 0.0
H612 H 0.61844 0.55821 0.17705 0.0
H613 H 0.54734 0.56832 0.2313 0.0
H614 H 0.51803 0.55094 0.1803 0.0
H615 H 0.58385 0.54539 0.27159 0.0
H616 H 0.58861 0.61675 0.19923 0.0
H617 H 0.59867 0.63841 0.14629 0.0
H618 H 0.68246 0.61353 0.16426 0.0
H619 H 0.6728 0.59154 0.2171 0.0
C620 C 0.64615 0.60633 0.40294 0.0
C621 C 0.67499 0.60773 0.41001 0.0
C622 C 0.63321 0.59914 0.3696 0.0
C623 C 0.64875 0.59266 0.34258 0.0
C624 C 0.67758 0.59482 0.3491 0.0
C625 C 0.69061 0.60236 0.38254 0.0
C626 C 0.63457 0.58368 0.30778 0.0
C627 C 0.63964 0.59488 0.27645 0.0
C628 C 0.61453 0.56526 0.30568 0.0
C629 C 0.60969 0.5511 0.33702 0.0
C630 C 0.63158 0.53905 0.35736 0.0
C631 C 0.62684 0.52555 0.38667 0.0
C632 C 0.60028 0.52389 0.39581 0.0
C633 C 0.57838 0.53571 0.37563 0.0
C634 C 0.583 0.54923 0.34629 0.0
C635 C 0.57941 0.54845 0.14787 0.0
C636 C 0.55109 0.54559 0.14881 0.0
C637 C 0.59643 0.55766 0.17755 0.0
C638 C 0.58524 0.56466 0.20826 0.0
C639 C 0.55661 0.56297 0.20814 0.0
C640 C 0.53979 0.55325 0.17892 0.0
C641 C 0.60315 0.57154 0.24176 0.0
C642 C 0.59905 0.55962 0.27292 0.0
C643 C 0.62418 0.58909 0.24351 0.0
C644 C 0.62992 0.60235 0.21186 0.0
C645 C 0.60912 0.61578 0.19173 0.0
C646 C 0.61476 0.62814 0.16178 0.0
C647 C 0.64116 0.62729 0.15186 0.0
C648 C 0.66201 0.61415 0.17194 0.0
C649 C 0.65648 0.60177 0.2019 0.0
H650 H 0.64548 0.63686 0.12865 0.0
H651 H 0.59665 0.51341 0.4185 0.0
H652 H 0.8717 0.11933 0.86736 0.0
H653 H 0.89373 0.1073 0.81602 0.0
H654 H 0.81742 0.07628 0.76645 0.0
H655 H 0.79512 0.08853 0.81816 0.0
H656 H 0.86446 0.04538 0.7661 0.0
H657 H 0.83825 0.12703 0.73315 0.0
H658 H 0.83524 0.17098 0.74229 0.0
H659 H 0.92342 0.17529 0.76222 0.0
H660 H 0.92694 0.13133 0.75362 0.0
H661 H 0.93683 0.02911 0.60835 0.0
H662 H 0.90035 0.03792 0.64578 0.0
H663 H 0.95871 0.07762 0.71904 0.0
H664 H 0.9944 0.06903 0.68329 0.0
H665 H 0.91196 0.10368 0.69787 0.0
H666 H 0.9408 0.02599 0.74215 0.0
H667 H 0.94911 0.98221 0.73985 0.0
H668 H 0.86293 0.97019 0.70696 0.0
H669 H 0.85419 0.01401 0.70844 0.0
C670 C 0.85953 0.11019 0.84534 0.0
C671 C 0.83169 0.10493 0.84666 0.0
C672 C 0.87211 0.10335 0.81598 0.0
C673 C 0.85721 0.09098 0.78727 0.0
C674 C 0.82928 0.08587 0.78828 0.0
C675 C 0.81652 0.09302 0.81762 0.0
C676 C 0.87136 0.08294 0.75694 0.0
C677 C 0.87423 0.05813 0.75044 0.0
C678 C 0.88491 0.0995 0.73736 0.0
C679 C 0.88282 0.12589 0.74287 0.0
C680 C 0.85698 0.13733 0.73973 0.0
C681 C 0.85519 0.16225 0.74477 0.0
C682 C 0.87912 0.17591 0.75285 0.0
C683 C 0.9049 0.16469 0.75594 0.0
C684 C 0.9068 0.13979 0.75093 0.0
C685 C 0.94178 0.03957 0.63254 0.0
C686 C 0.96856 0.04864 0.64224 0.0
C687 C 0.92098 0.04457 0.65389 0.0
C688 C 0.92678 0.05872 0.68499 0.0
C689 C 0.95359 0.06699 0.69499 0.0
C690 C 0.97408 0.06198 0.67419 0.0
C691 C 0.90543 0.06612 0.70728 0.0
C692 C 0.9014 0.09089 0.71256 0.0
C693 C 0.89163 0.04952 0.72648 0.0
C694 C 0.89692 0.02328 0.72466 0.0
C695 C 0.92369 0.01405 0.73384 0.0
C696 C 0.92846 0.98922 0.73283 0.0
C697 C 0.90658 0.97343 0.72306 0.0
C698 C 0.87987 0.98245 0.71434 0.0
C699 C 0.875 1.00728 0.71522 0.0
H700 H 0.9103 0.95421 0.72239 0.0
H701 H 0.87769 0.19521 0.75669 0.0
H702 H 0.27234 0.44435 0.28544 0.0
H703 H 0.30082 0.45768 0.24175 0.0
H704 H 0.36914 0.46815 0.32441 0.0
H705 H 0.34096 0.45424 0.36844 0.0
H706 H 0.366 0.50457 0.27745 0.0
H707 H 0.36612 0.41897 0.2713 0.0
H708 H 0.34595 0.37832 0.26577 0.0
H709 H 0.30535 0.39488 0.16164 0.0
H710 H 0.32484 0.43585 0.16683 0.0
H711 H 0.47059 0.50973 0.16472 0.0
H712 H 0.44071 0.50177 0.20945 0.0
H713 H 0.37475 0.4829 0.12686 0.0
H714 H 0.4056 0.48945 0.0821 0.0
H715 H 0.37672 0.45112 0.17489 0.0
H716 H 0.37868 0.53807 0.18274 0.0
H717 H 0.4014 0.5777 0.19032 0.0
H718 H 0.44088 0.55737 0.29343 0.0
H719 H 0.41879 0.51749 0.28623 0.0
C720 C 0.29348 0.44927 0.29452 0.0
C721 C 0.30429 0.4478 0.33072 0.0
C722 C 0.30976 0.45702 0.26936 0.0
C723 C 0.33735 0.4636 0.27955 0.0
C724 C 0.34796 0.46313 0.31576 0.0
C725 C 0.3317 0.45524 0.34101 0.0
C726 C 0.35517 0.47042 0.25228 0.0
C727 C 0.36854 0.49279 0.25518 0.0
C728 C 0.35837 0.45523 0.22292 0.0
C729 C 0.3467 0.43058 0.21962 0.0
C730 C 0.35269 0.41403 0.24734 0.0
C731 C 0.3414 0.39092 0.24426 0.0
C732 C 0.32431 0.38404 0.21342 0.0
C733 C 0.31853 0.40025 0.18555 0.0
C734 C 0.3297 0.42343 0.18855 0.0
C735 C 0.44937 0.50474 0.15608 0.0
C736 C 0.44008 0.50106 0.11984 0.0
C737 C 0.43223 0.50009 0.18175 0.0
C738 C 0.40502 0.49217 0.17187 0.0
C739 C 0.39549 0.48916 0.13542 0.0
C740 C 0.41293 0.49331 0.10971 0.0
C741 C 0.38721 0.48562 0.19946 0.0
C742 C 0.37398 0.46312 0.19684 0.0
C743 C 0.38437 0.50061 0.22926 0.0
C744 C 0.3972 0.52476 0.23384 0.0
C745 C 0.3923 0.54203 0.20696 0.0
C746 C 0.40508 0.56452 0.21118 0.0
C747 C 0.42258 0.57002 0.24232 0.0
C748 C 0.42732 0.55307 0.26933 0.0
C749 C 0.41466 0.53053 0.2652 0.0
H750 H 0.43241 0.58743 0.24557 0.0
H751 H 0.31561 0.36613 0.21106 0.0
H752 H 0.17055 0.93581 0.92966 0.0
H753 H 0.1451 0.94367 0.87095 0.0
H754 H 0.21653 0.97832 0.84016 0.0
H755 H 0.24228 0.97007 0.89913 0.0
H756 H 0.16679 1.00498 0.82328 0.0
H757 H 0.20043 0.92513 0.80517 0.0
H758 H 0.20902 0.88246 0.82044 0.0
H759 H 0.12206 0.87059 0.81491 0.0
H760 H 0.113 0.9133 0.79995 0.0
H761 H 0.12112 0.01619 0.64255 0.0
H762 H 0.14773 1.00222 0.69737 0.0
H763 H 0.07631 0.96538 0.72407 0.0
H764 H 0.04934 0.97954 0.66865 0.0
H765 H 0.12535 0.93954 0.74369 0.0
H766 H 0.09115 0.01866 0.76072 0.0
H767 H 0.08178 0.06168 0.74871 0.0
H768 H 0.16856 0.07566 0.75914 0.0
H769 H 0.17845 0.03263 0.77073 0.0
C770 C 0.18088 0.94486 0.91018 0.0
C771 C 0.20839 0.95217 0.91872 0.0
C772 C 0.16635 0.94935 0.87667 0.0
C773 C 0.1789 0.96148 0.85101 0.0
C774 C 0.20645 0.96887 0.8595 0.0
C775 C 0.22118 0.96403 0.893 0.0
C776 C 0.16292 0.96665 0.81567 0.0
C777 C 0.15815 0.99068 0.80558 0.0
C778 C 0.15076 0.94806 0.79311 0.0
C779 C 0.15606 0.92238 0.80167 0.0
C780 C 0.18316 0.91343 0.80741 0.0
C781 C 0.18811 0.88925 0.81596 0.0
C782 C 0.1661 0.87383 0.81869 0.0
C783 C 0.13909 0.88255 0.81278 0.0
C784 C 0.13403 0.90673 0.8042 0.0
C785 C 0.11129 1.00438 0.65945 0.0
C786 C 0.08321 0.99871 0.651 0.0
C787 C 0.12645 0.99668 0.69108 0.0
C788 C 0.11393 0.98318 0.71531 0.0
C789 C 0.0864 0.97588 0.70585 0.0
C790 C 0.07108 0.98368 0.67395 0.0
C791 C 0.12947 0.97791 0.75096 0.0
C792 C 0.13406 0.95388 0.76124 0.0
C793 C 0.14135 0.99656 0.77382 0.0
C794 C 0.13552 0.02236 0.76615 0.0
C795 C 0.10823 0.03085 0.76004 0.0
C796 C 0.10282 0.05525 0.75341 0.0
C797 C 0.12455 0.07138 0.75305 0.0
C798 C 0.15174 0.06314 0.75935 0.0
C799 C 0.15726 0.03874 0.76597 0.0
H800 H 0.12033 0.09027 0.74798 0.0
H801 H 0.16997 0.8551 0.82534 0.0
loop_
_geom_bond_atom_site_label_1
_geom_bond_atom_site_label_2
_geom_bond_distance
_geom_bond_site_symmetry_2
_ccdc_geom_bond_type
C0 C1 1.264 . S
C0 C5 1.479 . S
C0 C10 1.465 . S
C1 C0 1.264 . S
C1 C3 1.339 . S
C1 H28 0.931 . S
C2 C3 1.395 . S
C2 C4 1.320 . S
C3 C1 1.339 . S
C3 C2 1.395 . S
C3 H29 0.929 . S
C4 C2 1.320 . S
C4 C5 1.405 . S
C4 H30 0.930 . S
C5 C0 1.479 . S
C5 C4 1.405 . S
C5 H31 0.931 . S
U6 O7 2.454 . S
U6 O8 2.458 . S
U6 C9 2.984 . S
U6 C10 2.847 . S
U6 C23 2.882 . S
U6 O24 2.441 . S
U6 O25 2.420 . S
U6 O26 2.455 . S
U6 O27 2.449 . S
O7 U6 2.454 . S
O7 C9 1.353 . S
O8 U6 2.458 . S
O8 C9 1.286 . S
C9 U6 2.984 . S
C9 O7 1.353 . S
C9 O8 1.286 . S
C9 C11 1.363 . S
C10 C0 1.465 . S
C10 U6 2.847 . S
C10 O24 1.249 . S
C10 O25 1.202 . S
C11 C9 1.363 . S
C11 C13 1.408 . S
C11 C16 1.342 . S
C12 C13 1.310 . S
C12 C15 1.461 . S
C12 H32 0.932 . S
C13 C11 1.408 . S
C13 C12 1.310 . S
C13 H33 0.930 . S
C14 C15 1.474 . S
C14 C16 1.285 . S
C14 H34 0.929 . S
C15 C12 1.461 . S
C15 C14 1.474 . S
C16 C11 1.342 . S
C16 C14 1.285 . S
C16 H35 0.930 . S
C17 C20 1.424 . S
C17 C22 1.245 . S
C17 C23 1.428 1_556 S
C18 C21 1.260 . S
C18 C22 1.477 . S
C18 H36 0.932 . S
C19 C20 1.384 . S
C19 C21 1.479 . S
C19 H37 0.929 . S
C20 C17 1.424 . S
C20 C19 1.384 . S
C20 H38 0.928 1_556 S
C21 C18 1.260 . S
C21 C19 1.479 . S
C22 C17 1.245 . S
C22 C18 1.477 . S
C22 H39 0.932 . S
C23 U6 2.882 . S
C23 C17 1.428 1_554 S
C23 O26 1.301 . S
C23 O27 1.282 . S
O24 U6 2.441 . S
O24 C10 1.249 . S
O25 U6 2.420 . S
O25 C10 1.202 . S
O26 U6 2.455 . S
O26 C23 1.301 . S
O27 U6 2.449 . S
O27 C23 1.282 . S
H28 C1 0.931 . S
H29 C3 0.929 . S
H30 C4 0.930 . S
H31 C5 0.931 . S
H32 C12 0.932 . S
H33 C13 0.930 . S
H34 C14 0.929 . S
H35 C16 0.930 . S
H36 C18 0.932 . S
H37 C19 0.929 . S
H38 C20 0.928 1_554 S
H39 C22 0.932 . S
C40 C41 1.264 . S
C40 C45 1.479 . S
C40 C50 1.465 . S
C41 C40 1.264 . S
C41 C43 1.339 . S
C41 H68 0.931 . S
C42 C43 1.395 . S
C42 C44 1.320 . S
C43 C41 1.339 . S
C43 C42 1.395 . S
C43 H69 0.929 . S
C44 C42 1.320 . S
C44 C45 1.405 . S
C44 H70 0.930 . S
C45 C40 1.479 . S
C45 C44 1.405 . S
C45 H71 0.931 . S
U46 O47 2.454 . S
U46 O48 2.458 . S
U46 C49 2.984 . S
U46 C50 2.847 . S
U46 C63 2.882 . S
U46 O64 2.441 . S
U46 O65 2.420 . S
U46 O66 2.455 . S
U46 O67 2.449 . S
O47 U46 2.454 . S
O47 C49 1.353 . S
O48 U46 2.458 . S
O48 C49 1.286 . S
C49 U46 2.984 . S
C49 O47 1.353 . S
C49 O48 1.286 . S
C49 C51 1.363 . S
C50 C40 1.465 . S
C50 U46 2.847 . S
C50 O64 1.249 . S
C50 O65 1.202 . S
C51 C49 1.363 . S
C51 C53 1.408 . S
C51 C56 1.342 . S
C52 C53 1.310 . S
C52 C55 1.461 . S
C52 H72 0.932 . S
C53 C51 1.408 . S
C53 C52 1.310 . S
C53 H73 0.930 . S
C54 C55 1.474 . S
C54 C56 1.285 . S
C54 H74 0.929 . S
C55 C52 1.461 . S
C55 C54 1.474 . S
C56 C51 1.342 . S
C56 C54 1.285 . S
C56 H75 0.930 . S
C57 C60 1.424 . S
C57 C62 1.245 . S
C57 C63 1.428 . S
C58 C61 1.260 . S
C58 C62 1.477 . S
C58 H76 0.932 . S
C59 C60 1.384 . S
C59 C61 1.479 . S
C59 H77 0.929 . S
C60 C57 1.424 . S
C60 C59 1.384 . S
C60 H78 0.928 . S
C61 C58 1.260 . S
C61 C59 1.479 . S
C62 C57 1.245 . S
C62 C58 1.477 . S
C62 H79 0.932 . S
C63 U46 2.882 . S
C63 C57 1.428 . S
C63 O66 1.301 . S
C63 O67 1.282 . S
O64 U46 2.441 . S
O64 C50 1.249 . S
O65 U46 2.420 . S
O65 C50 1.202 . S
O66 U46 2.455 . S
O66 C63 1.301 . S
O67 U46 2.449 . S
O67 C63 1.282 . S
H68 C41 0.931 . S
H69 C43 0.929 . S
H70 C44 0.930 . S
H71 C45 0.931 . S
H72 C52 0.932 . S
H73 C53 0.930 . S
H74 C54 0.929 . S
H75 C56 0.930 . S
H76 C58 0.932 . S
H77 C59 0.929 . S
H78 C60 0.928 . S
H79 C62 0.932 . S
C80 C81 1.264 . S
C80 C85 1.479 . S
C80 C90 1.465 . S
C81 C80 1.264 . S
C81 C83 1.339 . S
C81 H108 0.931 . S
C82 C83 1.395 . S
C82 C84 1.320 . S
C83 C81 1.339 . S
C83 C82 1.395 . S
C83 H109 0.929 . S
C84 C82 1.320 . S
C84 C85 1.405 . S
C84 H110 0.930 . S
C85 C80 1.479 . S
C85 C84 1.405 . S
C85 H111 0.931 . S
U86 O87 2.454 . S
U86 O88 2.458 1_554 S
U86 C89 2.984 1_554 S
U86 C90 2.847 . S
U86 C103 2.882 1_554 S
U86 O104 2.441 . S
U86 O105 2.420 . S
U86 O106 2.455 1_554 S
U86 O107 2.449 1_554 S
O87 U86 2.454 . S
O87 C89 1.353 1_554 S
O88 U86 2.458 1_556 S
O88 C89 1.286 . S
C89 U86 2.984 1_556 S
C89 O87 1.353 1_556 S
C89 O88 1.286 . S
C89 C91 1.363 . S
C90 C80 1.465 . S
C90 U86 2.847 . S
C90 O104 1.249 . S
C90 O105 1.202 . S
C91 C89 1.363 . S
C91 C93 1.408 1_556 S
C91 C96 1.342 . S
C92 C93 1.310 . S
C92 C95 1.461 1_554 S
C92 H112 0.932 . S
C93 C91 1.408 1_554 S
C93 C92 1.310 . S
C93 H113 0.930 . S
C94 C95 1.474 . S
C94 C96 1.285 . S
C94 H114 0.929 . S
C95 C92 1.461 1_556 S
C95 C94 1.474 . S
C96 C91 1.342 . S
C96 C94 1.285 . S
C96 H115 0.930 . S
C97 C100 1.424 . S
C97 C102 1.245 . S
C97 C103 1.428 . S
C98 C101 1.260 . S
C98 C102 1.477 . S
C98 H116 0.932 . S
C99 C100 1.384 . S
C99 C101 1.479 . S
C99 H117 0.929 . S
C100 C97 1.424 . S
C100 C99 1.384 . S
C100 H118 0.928 . S
C101 C98 1.260 . S
C101 C99 1.479 . S
C102 C97 1.245 . S
C102 C98 1.477 . S
C102 H119 0.932 . S
C103 U86 2.882 1_556 S
C103 C97 1.428 . S
C103 O106 1.301 . S
C103 O107 1.282 . S
O104 U86 2.441 . S
O104 C90 1.249 . S
O105 U86 2.420 . S
O105 C90 1.202 . S
O106 U86 2.455 1_556 S
O106 C103 1.301 . S
O107 U86 2.449 1_556 S
O107 C103 1.282 . S
H108 C81 0.931 . S
H109 C83 0.929 . S
H110 C84 0.930 . S
H111 C85 0.931 . S
H112 C92 0.932 . S
H113 C93 0.930 . S
H114 C94 0.929 . S
H115 C96 0.930 . S
H116 C98 0.932 . S
H117 C99 0.929 . S
H118 C100 0.928 . S
H119 C102 0.932 . S
C120 C121 1.264 . S
C120 C125 1.479 . S
C120 C130 1.465 . S
C121 C120 1.264 . S
C121 C123 1.339 . S
C121 H148 0.931 . S
C122 C123 1.395 . S
C122 C124 1.320 . S
C123 C121 1.339 . S
C123 C122 1.395 . S
C123 H149 0.929 . S
C124 C122 1.320 . S
C124 C125 1.405 . S
C124 H150 0.930 . S
C125 C120 1.479 . S
C125 C124 1.405 . S
C125 H151 0.931 . S
U126 O127 2.454 . S
U126 O128 2.458 . S
U126 C129 2.984 . S
U126 C130 2.847 . S
U126 C143 2.882 . S
U126 O144 2.441 . S
U126 O145 2.420 . S
U126 O146 2.455 . S
U126 O147 2.449 . S
O127 U126 2.454 . S
O127 C129 1.353 . S
O128 U126 2.458 . S
O128 C129 1.286 . S
C129 U126 2.984 . S
C129 O127 1.353 . S
C129 O128 1.286 . S
C129 C131 1.363 . S
C130 C120 1.465 . S
C130 U126 2.847 . S
C130 O144 1.249 . S
C130 O145 1.202 . S
C131 C129 1.363 . S
C131 C133 1.408 . S
C131 C136 1.342 . S
C132 C133 1.310 . S
C132 C135 1.461 . S
C132 H152 0.932 . S
C133 C131 1.408 . S
C133 C132 1.310 . S
C133 H153 0.930 . S
C134 C135 1.474 . S
C134 C136 1.285 . S
C134 H154 0.929 . S
C135 C132 1.461 . S
C135 C134 1.474 . S
C136 C131 1.342 . S
C136 C134 1.285 . S
C136 H155 0.930 . S
C137 C140 1.424 . S
C137 C142 1.245 . S
C137 C143 1.428 . S
C138 C141 1.260 . S
C138 C142 1.477 . S
C138 H156 0.932 . S
C139 C140 1.384 . S
C139 C141 1.479 . S
C139 H157 0.929 . S
C140 C137 1.424 . S
C140 C139 1.384 . S
C140 H158 0.928 . S
C141 C138 1.260 . S
C141 C139 1.479 . S
C142 C137 1.245 . S
C142 C138 1.477 . S
C142 H159 0.932 . S
C143 U126 2.882 . S
C143 C137 1.428 . S
C143 O146 1.301 . S
C143 O147 1.282 . S
O144 U126 2.441 . S
O144 C130 1.249 . S
O145 U126 2.420 . S
O145 C130 1.202 . S
O146 U126 2.455 . S
O146 C143 1.301 . S
O147 U126 2.449 . S
O147 C143 1.282 . S
H148 C121 0.931 . S
H149 C123 0.929 . S
H150 C124 0.930 . S
H151 C125 0.931 . S
H152 C132 0.932 . S
H153 C133 0.930 . S
H154 C134 0.929 . S
H155 C136 0.930 . S
H156 C138 0.932 . S
H157 C139 0.929 . S
H158 C140 0.928 . S
H159 C142 0.932 . S
O160 Mn161 2.163 1_655 S
O160 C174 1.244 . S
Mn161 O160 2.163 1_455 S
Mn161 O164 2.160 1_545 S
Mn161 O165 2.221 . S
Mn161 O167 2.163 1_455 S
Mn161 O169 2.160 . S
Mn161 O179 2.221 1_445 S
O162 Mn163 2.087 1_545 S
O162 C174 1.256 . S
Mn163 O162 2.087 1_565 S
Mn163 O170 2.089 1_655 S
Mn163 O179 2.290 . S
Mn163 O180 2.251 . S
O164 Mn161 2.160 1_565 S
O164 C175 1.239 1_565 S
O165 Mn161 2.221 . S
O165 Mn166 2.290 . S
O165 C176 1.278 . S
Mn166 O165 2.290 . S
Mn166 O168 2.089 . S
Mn166 O171 2.251 . S
Mn166 O172 2.087 1_455 S
O167 Mn161 2.163 1_655 S
O167 C177 1.244 . S
O168 Mn166 2.089 . S
O168 C175 1.256 . S
O169 Mn161 2.160 . S
O169 C178 1.239 1_545 S
O170 Mn163 2.089 1_455 S
O170 C178 1.256 . S
O171 Mn166 2.251 . S
O171 C176 1.241 . S
O172 Mn166 2.087 1_655 S
O172 C177 1.256 . S
C173 O179 1.278 . S
C173 O180 1.241 . S
C174 O160 1.244 . S
C174 O162 1.256 . S
C175 O164 1.239 1_545 S
C175 O168 1.256 . S
C176 O165 1.278 . S
C176 O171 1.241 . S
C177 O167 1.244 . S
C177 O172 1.256 . S
C178 O169 1.239 1_565 S
C178 O170 1.256 . S
O179 Mn161 2.221 1_665 S
O179 Mn163 2.290 . S
O179 C173 1.278 . S
O180 Mn163 2.251 . S
O180 C173 1.241 . S
O181 Mn182 2.163 . S
O181 C195 1.244 . S
Mn182 O181 2.163 . S
Mn182 O185 2.160 1_554 S
Mn182 O186 2.221 . S
Mn182 O188 2.163 . S
Mn182 O190 2.160 . S
Mn182 O200 2.221 . S
O183 Mn184 2.087 . S
O183 C195 1.256 . S
Mn184 O183 2.087 . S
Mn184 O191 2.089 . S
Mn184 O200 2.290 . S
Mn184 O201 2.251 . S
O185 Mn182 2.160 1_556 S
O185 C196 1.239 . S
O186 Mn182 2.221 . S
O186 Mn187 2.290 1_554 S
O186 C197 1.278 . S
Mn187 O186 2.290 1_556 S
Mn187 O189 2.089 . S
Mn187 O192 2.251 1_556 S
Mn187 O193 2.087 . S
O188 Mn182 2.163 . S
O188 C198 1.244 1_554 S
O189 Mn187 2.089 . S
O189 C196 1.256 . S
O190 Mn182 2.160 . S
O190 C199 1.239 . S
O191 Mn184 2.089 . S
O191 C199 1.256 . S
O192 Mn187 2.251 1_554 S
O192 C197 1.241 . S
O193 Mn187 2.087 . S
O193 C198 1.256 . S
C194 O200 1.278 . S
C194 O201 1.241 . S
C195 O181 1.244 . S
C195 O183 1.256 . S
C196 O185 1.239 . S
C196 O189 1.256 . S
C197 O186 1.278 . S
C197 O192 1.241 . S
C198 O188 1.244 1_556 S
C198 O193 1.256 . S
C199 O190 1.239 . S
C199 O191 1.256 . S
O200 Mn182 2.221 . S
O200 Mn184 2.290 . S
O200 C194 1.278 . S
O201 Mn184 2.251 . S
O201 C194 1.241 . S
H202 C220 0.951 . S
H203 C222 0.951 . S
H204 C224 0.950 . S
H205 C225 0.950 . S
H206 C227 0.950 . S
H207 C230 0.950 . S
H208 C231 0.950 . S
H209 C233 0.950 . S
H210 C234 0.950 . S
H211 C235 0.951 . S
H212 C237 0.951 . S
H213 C239 0.950 . S
H214 C240 0.950 . S
H215 C242 0.950 . S
H216 C245 0.950 . S
H217 C246 0.950 . S
H218 C248 0.950 . S
H219 C249 0.950 . S
C220 H202 0.951 . S
C220 C221 1.366 . S
C220 C222 1.388 . S
C221 C220 1.366 . S
C221 C225 1.385 . S
C222 H203 0.951 . S
C222 C220 1.388 . S
C222 C223 1.366 . S
C223 C222 1.366 . S
C223 C224 1.414 . S
C223 C226 1.499 . S
C224 H204 0.950 . S
C224 C223 1.414 . S
C224 C225 1.374 . S
C225 H205 0.950 . S
C225 C221 1.385 . S
C225 C224 1.374 . S
C226 C223 1.499 . S
C226 C227 1.373 . S
C226 C228 1.389 . S
C227 H206 0.950 . S
C227 C226 1.373 . S
C227 C243 1.377 . S
C228 C226 1.389 . S
C228 C229 1.524 . S
C228 C242 1.377 . S
C229 C228 1.524 . S
C229 C230 1.397 . S
C229 C234 1.363 . S
C230 H207 0.950 . S
C230 C229 1.397 . S
C230 C231 1.334 . S
C231 H208 0.950 . S
C231 C230 1.334 . S
C231 C232 1.287 . S
C232 C231 1.287 . S
C232 C233 1.524 . S
C232 H251 0.913 . S
C233 H209 0.950 . S
C233 C232 1.524 . S
C233 C234 1.415 . S
C234 H210 0.950 . S
C234 C229 1.363 . S
C234 C233 1.415 . S
C235 H211 0.951 . S
C235 C236 1.366 . S
C235 C237 1.388 . S
C236 C235 1.366 . S
C236 C240 1.385 . S
C237 H212 0.951 . S
C237 C235 1.388 . S
C237 C238 1.366 . S
C238 C237 1.366 . S
C238 C239 1.414 . S
C238 C241 1.499 . S
C239 H213 0.950 . S
C239 C238 1.414 . S
C239 C240 1.374 . S
C240 H214 0.950 . S
C240 C236 1.385 . S
C240 C239 1.374 . S
C241 C238 1.499 . S
C241 C242 1.373 . S
C241 C243 1.389 . S
C242 H215 0.950 . S
C242 C228 1.377 . S
C242 C241 1.373 . S
C243 C227 1.377 . S
C243 C241 1.389 . S
C243 C244 1.524 . S
C244 C243 1.524 . S
C244 C245 1.397 . S
C244 C249 1.363 . S
C245 H216 0.950 . S
C245 C244 1.397 . S
C245 C246 1.334 1_455 S
C246 H217 0.950 . S
C246 C245 1.334 1_655 S
C246 C247 1.287 . S
C247 C246 1.287 . S
C247 C248 1.524 . S
C247 H250 0.999 . S
C248 H218 0.950 . S
C248 C247 1.524 . S
C248 C249 1.415 1_655 S
C249 H219 0.950 . S
C249 C244 1.363 . S
C249 C248 1.415 1_455 S
H250 C247 0.999 . S
H251 C232 0.913 . S
H252 C270 0.951 . S
H253 C272 0.951 . S
H254 C274 0.950 . S
H255 C275 0.950 . S
H256 C277 0.950 . S
H257 C280 0.950 . S
H258 C281 0.950 . S
H259 C283 0.950 . S
H260 C284 0.950 . S
H261 C285 0.951 . S
H262 C287 0.951 . S
H263 C289 0.950 . S
H264 C290 0.950 . S
H265 C292 0.950 . S
H266 C295 0.950 . S
H267 C296 0.950 . S
H268 C298 0.950 . S
H269 C299 0.950 . S
C270 H252 0.951 . S
C270 C271 1.366 . S
C270 C272 1.388 . S
C271 C270 1.366 . S
C271 C275 1.385 . S
C272 H253 0.951 . S
C272 C270 1.388 . S
C272 C273 1.366 . S
C273 C272 1.366 . S
C273 C274 1.414 . S
C273 C276 1.499 . S
C274 H254 0.950 . S
C274 C273 1.414 . S
C274 C275 1.374 . S
C275 H255 0.950 . S
C275 C271 1.385 . S
C275 C274 1.374 . S
C276 C273 1.499 . S
C276 C277 1.373 . S
C276 C278 1.389 . S
C277 H256 0.950 . S
C277 C276 1.373 . S
C277 C293 1.377 . S
C278 C276 1.389 . S
C278 C279 1.524 . S
C278 C292 1.377 . S
C279 C278 1.524 . S
C279 C280 1.397 . S
C279 C284 1.363 1_554 S
C280 H257 0.950 . S
C280 C279 1.397 . S
C280 C281 1.334 1_554 S
C281 H258 0.950 . S
C281 C280 1.334 1_556 S
C281 C282 1.287 . S
C282 C281 1.287 . S
C282 C283 1.524 . S
C282 H301 0.913 . S
C283 H259 0.950 . S
C283 C282 1.524 . S
C283 C284 1.415 . S
C284 H260 0.950 . S
C284 C279 1.363 1_556 S
C284 C283 1.415 . S
C285 H261 0.951 . S
C285 C286 1.366 . S
C285 C287 1.388 . S
C286 C285 1.366 . S
C286 C290 1.385 . S
C287 H262 0.951 . S
C287 C285 1.388 . S
C287 C288 1.366 . S
C288 C287 1.366 . S
C288 C289 1.414 . S
C288 C291 1.499 . S
C289 H263 0.950 . S
C289 C288 1.414 . S
C289 C290 1.374 . S
C290 H264 0.950 . S
C290 C286 1.385 . S
C290 C289 1.374 . S
C291 C288 1.499 . S
C291 C292 1.373 . S
C291 C293 1.389 . S
C292 H265 0.950 . S
C292 C278 1.377 . S
C292 C291 1.373 . S
C293 C277 1.377 . S
C293 C291 1.389 . S
C293 C294 1.524 . S
C294 C293 1.524 . S
C294 C295 1.397 . S
C294 C299 1.363 . S
C295 H266 0.950 . S
C295 C294 1.397 . S
C295 C296 1.334 . S
C296 H267 0.950 . S
C296 C295 1.334 . S
C296 C297 1.287 . S
C297 C296 1.287 . S
C297 C298 1.524 . S
C297 H300 0.999 . S
C298 H268 0.950 . S
C298 C297 1.524 . S
C298 C299 1.415 . S
C299 H269 0.950 . S
C299 C294 1.363 . S
C299 C298 1.415 . S
H300 C297 0.999 . S
H301 C282 0.913 . S
H302 C320 0.951 . S
H303 C322 0.951 . S
H304 C324 0.950 . S
H305 C325 0.950 . S
H306 C327 0.950 . S
H307 C330 0.950 . S
H308 C331 0.950 . S
H309 C333 0.950 . S
H310 C334 0.950 . S
H311 C335 0.951 . S
H312 C337 0.951 . S
H313 C339 0.950 . S
H314 C340 0.950 . S
H315 C342 0.950 . S
H316 C345 0.950 . S
H317 C346 0.950 . S
H318 C348 0.950 . S
H319 C349 0.950 . S
C320 H302 0.951 . S
C320 C321 1.366 . S
C320 C322 1.388 . S
C321 C320 1.366 . S
C321 C325 1.385 . S
C322 H303 0.951 . S
C322 C320 1.388 . S
C322 C323 1.366 . S
C323 C322 1.366 . S
C323 C324 1.414 . S
C323 C326 1.499 . S
C324 H304 0.950 . S
C324 C323 1.414 . S
C324 C325 1.374 . S
C325 H305 0.950 . S
C325 C321 1.385 . S
C325 C324 1.374 . S
C326 C323 1.499 . S
C326 C327 1.373 . S
C326 C328 1.389 . S
C327 H306 0.950 . S
C327 C326 1.373 . S
C327 C343 1.377 . S
C328 C326 1.389 . S
C328 C329 1.524 . S
C328 C342 1.377 . S
C329 C328 1.524 . S
C329 C330 1.397 . S
C329 C334 1.363 . S
C330 H307 0.950 . S
C330 C329 1.397 . S
C330 C331 1.334 . S
C331 H308 0.950 . S
C331 C330 1.334 . S
C331 C332 1.287 . S
C332 C331 1.287 . S
C332 C333 1.524 . S
C332 H351 0.913 . S
C333 H309 0.950 . S
C333 C332 1.524 . S
C333 C334 1.415 . S
C334 H310 0.950 . S
C334 C329 1.363 . S
C334 C333 1.415 . S
C335 H311 0.951 . S
C335 C336 1.366 . S
C335 C337 1.388 . S
C336 C335 1.366 . S
C336 C340 1.385 . S
C337 H312 0.951 . S
C337 C335 1.388 . S
C337 C338 1.366 . S
C338 C337 1.366 . S
C338 C339 1.414 . S
C338 C341 1.499 . S
C339 H313 0.950 . S
C339 C338 1.414 . S
C339 C340 1.374 . S
C340 H314 0.950 . S
C340 C336 1.385 . S
C340 C339 1.374 . S
C341 C338 1.499 . S
C341 C342 1.373 . S
C341 C343 1.389 . S
C342 H315 0.950 . S
C342 C328 1.377 . S
C342 C341 1.373 . S
C343 C327 1.377 . S
C343 C341 1.389 . S
C343 C344 1.524 . S
C344 C343 1.524 . S
C344 C345 1.397 . S
C344 C349 1.363 . S
C345 H316 0.950 . S
C345 C344 1.397 . S
C345 C346 1.334 . S
C346 H317 0.950 . S
C346 C345 1.334 . S
C346 C347 1.287 . S
C347 C346 1.287 . S
C347 C348 1.524 . S
C347 H350 0.999 . S
C348 H318 0.950 . S
C348 C347 1.524 . S
C348 C349 1.415 . S
C349 H319 0.950 . S
C349 C344 1.363 . S
C349 C348 1.415 . S
H350 C347 0.999 . S
H351 C332 0.913 . S
H352 C370 0.951 . S
H353 C372 0.951 . S
H354 C374 0.950 . S
H355 C375 0.950 . S
H356 C377 0.950 . S
H357 C380 0.950 1_556 S
H358 C381 0.950 . S
H359 C383 0.950 . S
H360 C384 0.950 . S
H361 C385 0.951 . S
H362 C387 0.951 . S
H363 C389 0.950 . S
H364 C390 0.950 . S
H365 C392 0.950 . S
H366 C395 0.950 1_554 S
H367 C396 0.950 1_554 S
H368 C398 0.950 . S
H369 C399 0.950 . S
C370 H352 0.951 . S
C370 C371 1.366 1_554 S
C370 C372 1.388 . S
C371 C370 1.366 1_556 S
C371 C375 1.385 . S
C372 H353 0.951 . S
C372 C370 1.388 . S
C372 C373 1.370 . S
C373 C372 1.370 . S
C373 C374 1.408 1_554 S
C373 C376 1.499 . S
C374 H354 0.950 . S
C374 C373 1.408 1_556 S
C374 C375 1.374 . S
C375 H355 0.950 . S
C375 C371 1.385 . S
C375 C374 1.374 . S
C376 C373 1.499 . S
C376 C377 1.373 1_554 S
C376 C378 1.389 . S
C377 H356 0.950 . S
C377 C376 1.373 1_556 S
C377 C393 1.377 . S
C378 C376 1.389 . S
C378 C379 1.524 . S
C378 C392 1.377 . S
C379 C378 1.524 . S
C379 C380 1.397 . S
C379 C384 1.363 . S
C380 H357 0.950 1_554 S
C380 C379 1.397 . S
C380 C381 1.334 . S
C381 H358 0.950 . S
C381 C380 1.334 . S
C381 C382 1.287 . S
C382 C381 1.287 . S
C382 C383 1.524 . S
C382 H401 0.913 . S
C383 H359 0.950 . S
C383 C382 1.524 . S
C383 C384 1.415 . S
C384 H360 0.950 . S
C384 C379 1.363 . S
C384 C383 1.415 . S
C385 H361 0.951 . S
C385 C386 1.366 1_556 S
C385 C387 1.388 . S
C386 C385 1.366 1_554 S
C386 C390 1.385 . S
C387 H362 0.951 . S
C387 C385 1.388 . S
C387 C388 1.366 1_556 S
C388 C387 1.366 1_554 S
C388 C389 1.414 . S
C388 C391 1.499 . S
C389 H363 0.950 . S
C389 C388 1.414 . S
C389 C390 1.374 . S
C390 H364 0.950 . S
C390 C386 1.385 . S
C390 C389 1.374 . S
C391 C388 1.499 . S
C391 C392 1.373 . S
C391 C393 1.389 1_554 S
C392 H365 0.950 . S
C392 C378 1.377 . S
C392 C391 1.373 . S
C393 C377 1.377 . S
C393 C391 1.389 1_556 S
C393 C394 1.524 . S
C394 C393 1.524 . S
C394 C395 1.397 . S
C394 C399 1.363 . S
C395 H366 0.950 1_556 S
C395 C394 1.397 . S
C395 C396 1.334 . S
C396 H367 0.950 1_556 S
C396 C395 1.334 . S
C396 C397 1.287 . S
C397 C396 1.287 . S
C397 C398 1.524 . S
C397 H400 0.999 . S
C398 H368 0.950 . S
C398 C397 1.524 . S
C398 C399 1.415 . S
C399 H369 0.950 . S
C399 C394 1.363 . S
C399 C398 1.415 . S
H400 C397 0.999 . S
H401 C382 0.913 . S
H402 C420 0.951 . S
H403 C422 0.951 . S
H404 C424 0.950 . S
H405 C425 0.950 . S
H406 C427 0.950 . S
H407 C430 0.950 . S
H408 C431 0.950 . S
H409 C433 0.950 . S
H410 C434 0.950 . S
H411 C435 0.951 . S
H412 C437 0.951 1_545 S
H413 C439 0.950 . S
H414 C440 0.950 . S
H415 C442 0.950 . S
H416 C445 0.950 . S
H417 C446 0.950 . S
H418 C448 0.950 . S
H419 C449 0.950 . S
C420 H402 0.951 . S
C420 C421 1.366 . S
C420 C422 1.388 . S
C421 C420 1.366 . S
C421 C425 1.385 . S
C422 H403 0.951 . S
C422 C420 1.388 . S
C422 C423 1.366 . S
C423 C422 1.366 . S
C423 C424 1.414 . S
C423 C426 1.499 . S
C424 H404 0.950 . S
C424 C423 1.414 . S
C424 C425 1.374 . S
C425 H405 0.950 . S
C425 C421 1.385 . S
C425 C424 1.374 . S
C426 C423 1.499 . S
C426 C427 1.373 . S
C426 C428 1.389 . S
C427 H406 0.950 . S
C427 C426 1.373 . S
C427 C443 1.377 . S
C428 C426 1.389 . S
C428 C429 1.524 . S
C428 C442 1.377 . S
C429 C428 1.524 . S
C429 C430 1.397 . S
C429 C434 1.363 . S
C430 H407 0.950 . S
C430 C429 1.397 . S
C430 C431 1.334 . S
C431 H408 0.950 . S
C431 C430 1.334 . S
C431 C432 1.287 . S
C432 C431 1.287 . S
C432 C433 1.524 . S
C432 H451 0.913 . S
C433 H409 0.950 . S
C433 C432 1.524 . S
C433 C434 1.415 . S
C434 H410 0.950 . S
C434 C429 1.363 . S
C434 C433 1.415 . S
C435 H411 0.951 . S
C435 C436 1.366 1_545 S
C435 C437 1.388 1_545 S
C436 C435 1.366 1_565 S
C436 C440 1.385 . S
C437 H412 0.951 1_565 S
C437 C435 1.388 1_565 S
C437 C438 1.366 . S
C438 C437 1.366 . S
C438 C439 1.414 . S
C438 C441 1.499 . S
C439 H413 0.950 . S
C439 C438 1.414 . S
C439 C440 1.374 . S
C440 H414 0.950 . S
C440 C436 1.385 . S
C440 C439 1.374 . S
C441 C438 1.499 . S
C441 C442 1.373 . S
C441 C443 1.389 . S
C442 H415 0.950 . S
C442 C428 1.377 . S
C442 C441 1.373 . S
C443 C427 1.377 . S
C443 C441 1.389 . S
C443 C444 1.524 . S
C444 C443 1.524 . S
C444 C445 1.397 . S
C444 C449 1.363 . S
C445 H416 0.950 . S
C445 C444 1.397 . S
C445 C446 1.334 . S
C446 H417 0.950 . S
C446 C445 1.334 . S
C446 C447 1.287 . S
C447 C446 1.287 . S
C447 C448 1.524 . S
C447 H450 0.999 . S
C448 H418 0.950 . S
C448 C447 1.524 . S
C448 C449 1.415 . S
C449 H419 0.950 . S
C449 C444 1.363 . S
C449 C448 1.415 . S
H450 C447 0.999 . S
H451 C432 0.913 . S
H452 C470 0.951 . S
H453 C472 0.951 . S
H454 C474 0.950 . S
H455 C475 0.950 . S
H456 C477 0.950 . S
H457 C480 0.950 . S
H458 C481 0.950 . S
H459 C483 0.950 . S
H460 C484 0.950 . S
H461 C485 0.951 . S
H462 C487 0.951 . S
H463 C489 0.950 . S
H464 C490 0.950 . S
H465 C492 0.950 . S
H466 C495 0.950 . S
H467 C496 0.950 1_554 S
H468 C498 0.950 . S
H469 C499 0.950 . S
C470 H452 0.951 . S
C470 C471 1.366 . S
C470 C472 1.388 . S
C471 C470 1.366 . S
C471 C475 1.385 . S
C472 H453 0.951 . S
C472 C470 1.388 . S
C472 C473 1.366 . S
C473 C472 1.366 . S
C473 C474 1.414 . S
C473 C476 1.499 . S
C474 H454 0.950 . S
C474 C473 1.414 . S
C474 C475 1.374 . S
C475 H455 0.950 . S
C475 C471 1.385 . S
C475 C474 1.374 . S
C476 C473 1.499 . S
C476 C477 1.373 . S
C476 C478 1.389 . S
C477 H456 0.950 . S
C477 C476 1.373 . S
C477 C493 1.377 . S
C478 C476 1.389 . S
C478 C479 1.524 . S
C478 C492 1.377 . S
C479 C478 1.524 . S
C479 C480 1.397 . S
C479 C484 1.363 . S
C480 H457 0.950 . S
C480 C479 1.397 . S
C480 C481 1.334 . S
C481 H458 0.950 . S
C481 C480 1.334 . S
C481 C482 1.287 . S
C482 C481 1.287 . S
C482 C483 1.524 . S
C482 H501 0.913 . S
C483 H459 0.950 . S
C483 C482 1.524 . S
C483 C484 1.415 . S
C484 H460 0.950 . S
C484 C479 1.363 . S
C484 C483 1.415 . S
C485 H461 0.951 . S
C485 C486 1.366 . S
C485 C487 1.388 . S
C486 C485 1.366 . S
C486 C490 1.385 . S
C487 H462 0.951 . S
C487 C485 1.388 . S
C487 C488 1.366 . S
C488 C487 1.366 . S
C488 C489 1.414 . S
C488 C491 1.499 . S
C489 H463 0.950 . S
C489 C488 1.414 . S
C489 C490 1.374 . S
C490 H464 0.950 . S
C490 C486 1.385 . S
C490 C489 1.374 . S
C491 C488 1.499 . S
C491 C492 1.373 . S
C491 C493 1.389 . S
C492 H465 0.950 . S
C492 C478 1.377 . S
C492 C491 1.373 . S
C493 C477 1.377 . S
C493 C491 1.389 . S
C493 C494 1.524 . S
C494 C493 1.524 . S
C494 C495 1.397 . S
C494 C499 1.363 . S
C495 H466 0.950 . S
C495 C494 1.397 . S
C495 C496 1.334 . S
C496 H467 0.950 1_556 S
C496 C495 1.334 . S
C496 C497 1.287 . S
C497 C496 1.287 . S
C497 C498 1.524 . S
C497 H500 0.999 1_556 S
C498 H468 0.950 . S
C498 C497 1.524 . S
C498 C499 1.415 . S
C499 H469 0.950 . S
C499 C494 1.363 . S
C499 C498 1.415 . S
H500 C497 0.999 1_554 S
H501 C482 0.913 . S
H502 C520 0.951 . S
H503 C522 0.951 . S
H504 C524 0.950 . S
H505 C525 0.950 . S
H506 C527 0.950 . S
H507 C530 0.950 . S
H508 C531 0.950 . S
H509 C533 0.950 . S
H510 C534 0.950 . S
H511 C535 0.951 . S
H512 C537 0.951 . S
H513 C539 0.950 . S
H514 C540 0.950 . S
H515 C542 0.950 . S
H516 C545 0.950 . S
H517 C546 0.950 . S
H518 C548 0.950 . S
H519 C549 0.950 . S
C520 H502 0.951 . S
C520 C521 1.366 . S
C520 C522 1.388 . S
C521 C520 1.366 . S
C521 C525 1.385 . S
C522 H503 0.951 . S
C522 C520 1.388 . S
C522 C523 1.366 . S
C523 C522 1.366 . S
C523 C524 1.414 . S
C523 C526 1.499 . S
C524 H504 0.950 . S
C524 C523 1.414 . S
C524 C525 1.374 . S
C525 H505 0.950 . S
C525 C521 1.385 . S
C525 C524 1.374 . S
C526 C523 1.499 . S
C526 C527 1.373 . S
C526 C528 1.389 . S
C527 H506 0.950 . S
C527 C526 1.373 . S
C527 C543 1.377 . S
C528 C526 1.389 . S
C528 C529 1.524 . S
C528 C542 1.377 . S
C529 C528 1.524 . S
C529 C530 1.397 . S
C529 C534 1.363 . S
C530 H507 0.950 . S
C530 C529 1.397 . S
C530 C531 1.334 . S
C531 H508 0.950 . S
C531 C530 1.334 . S
C531 C532 1.287 . S
C532 C531 1.287 . S
C532 C533 1.524 . S
C532 H551 0.913 . S
C533 H509 0.950 . S
C533 C532 1.524 . S
C533 C534 1.415 . S
C534 H510 0.950 . S
C534 C529 1.363 . S
C534 C533 1.415 . S
C535 H511 0.951 . S
C535 C536 1.366 . S
C535 C537 1.388 . S
C536 C535 1.366 . S
C536 C540 1.385 . S
C537 H512 0.951 . S
C537 C535 1.388 . S
C537 C538 1.366 . S
C538 C537 1.366 . S
C538 C539 1.414 . S
C538 C541 1.499 . S
C539 H513 0.950 . S
C539 C538 1.414 . S
C539 C540 1.374 . S
C540 H514 0.950 . S
C540 C536 1.385 . S
C540 C539 1.374 . S
C541 C538 1.499 . S
C541 C542 1.373 . S
C541 C543 1.389 . S
C542 H515 0.950 . S
C542 C528 1.377 . S
C542 C541 1.373 . S
C543 C527 1.377 . S
C543 C541 1.389 . S
C543 C544 1.524 . S
C544 C543 1.524 . S
C544 C545 1.397 . S
C544 C549 1.363 . S
C545 H516 0.950 . S
C545 C544 1.397 . S
C545 C546 1.334 . S
C546 H517 0.950 . S
C546 C545 1.334 . S
C546 C547 1.287 1_545 S
C547 C546 1.287 1_565 S
C547 C548 1.524 . S
C547 H550 0.999 . S
C548 H518 0.950 . S
C548 C547 1.524 . S
C548 C549 1.415 1_565 S
C549 H519 0.950 . S
C549 C544 1.363 . S
C549 C548 1.415 1_545 S
H550 C547 0.999 . S
H551 C532 0.913 . S
H552 C570 0.951 . S
H553 C572 0.951 . S
H554 C574 0.950 . S
H555 C575 0.950 . S
H556 C577 0.950 . S
H557 C580 0.950 . S
H558 C581 0.950 . S
H559 C583 0.950 . S
H560 C584 0.950 . S
H561 C585 0.951 . S
H562 C587 0.951 . S
H563 C589 0.950 . S
H564 C590 0.950 . S
H565 C592 0.950 . S
H566 C595 0.950 . S
H567 C596 0.950 . S
H568 C598 0.950 . S
H569 C599 0.950 . S
C570 H552 0.951 . S
C570 C571 1.366 . S
C570 C572 1.388 . S
C571 C570 1.366 . S
C571 C575 1.385 . S
C572 H553 0.951 . S
C572 C570 1.388 . S
C572 C573 1.366 . S
C573 C572 1.366 . S
C573 C574 1.414 . S
C573 C576 1.499 . S
C574 H554 0.950 . S
C574 C573 1.414 . S
C574 C575 1.374 . S
C575 H555 0.950 . S
C575 C571 1.385 . S
C575 C574 1.374 . S
C576 C573 1.499 . S
C576 C577 1.373 . S
C576 C578 1.389 . S
C577 H556 0.950 . S
C577 C576 1.373 . S
C577 C593 1.377 . S
C578 C576 1.389 . S
C578 C579 1.524 . S
C578 C592 1.377 . S
C579 C578 1.524 . S
C579 C580 1.397 . S
C579 C584 1.363 . S
C580 H557 0.950 . S
C580 C579 1.397 . S
C580 C581 1.334 . S
C581 H558 0.950 . S
C581 C580 1.334 . S
C581 C582 1.287 . S
C582 C581 1.287 . S
C582 C583 1.524 . S
C582 H601 0.913 . S
C583 H559 0.950 . S
C583 C582 1.524 . S
C583 C584 1.415 . S
C584 H560 0.950 . S
C584 C579 1.363 . S
C584 C583 1.415 . S
C585 H561 0.951 . S
C585 C586 1.366 . S
C585 C587 1.388 . S
C586 C585 1.366 . S
C586 C590 1.385 . S
C587 H562 0.951 . S
C587 C585 1.388 . S
C587 C588 1.366 . S
C588 C587 1.366 . S
C588 C589 1.414 . S
C588 C591 1.499 . S
C589 H563 0.950 . S
C589 C588 1.414 . S
C589 C590 1.374 . S
C590 H564 0.950 . S
C590 C586 1.385 . S
C590 C589 1.374 . S
C591 C588 1.499 . S
C591 C592 1.373 . S
C591 C593 1.389 . S
C592 H565 0.950 . S
C592 C578 1.377 . S
C592 C591 1.373 . S
C593 C577 1.377 . S
C593 C591 1.389 . S
C593 C594 1.524 . S
C594 C593 1.524 . S
C594 C595 1.397 . S
C594 C599 1.363 . S
C595 H566 0.950 . S
C595 C594 1.397 . S
C595 C596 1.334 . S
C596 H567 0.950 . S
C596 C595 1.334 . S
C596 C597 1.287 . S
C597 C596 1.287 . S
C597 C598 1.524 . S
C597 H600 0.999 . S
C598 H568 0.950 . S
C598 C597 1.524 . S
C598 C599 1.415 . S
C599 H569 0.950 . S
C599 C594 1.363 . S
C599 C598 1.415 . S
H600 C597 0.999 . S
H601 C582 0.913 . S
H602 C620 0.951 . S
H603 C622 0.951 . S
H604 C624 0.950 . S
H605 C625 0.950 . S
H606 C627 0.950 . S
H607 C630 0.950 . S
H608 C631 0.950 . S
H609 C633 0.950 . S
H610 C634 0.950 . S
H611 C635 0.951 . S
H612 C637 0.951 . S
H613 C639 0.950 . S
H614 C640 0.950 . S
H615 C642 0.950 . S
H616 C645 0.950 . S
H617 C646 0.950 . S
H618 C648 0.950 . S
H619 C649 0.950 . S
C620 H602 0.951 . S
C620 C621 1.366 . S
C620 C622 1.388 . S
C621 C620 1.366 . S
C621 C625 1.385 . S
C622 H603 0.951 . S
C622 C620 1.388 . S
C622 C623 1.366 . S
C623 C622 1.366 . S
C623 C624 1.414 . S
C623 C626 1.499 . S
C624 H604 0.950 . S
C624 C623 1.414 . S
C624 C625 1.374 . S
C625 H605 0.950 . S
C625 C621 1.385 . S
C625 C624 1.374 . S
C626 C623 1.499 . S
C626 C627 1.373 . S
C626 C628 1.389 . S
C627 H606 0.950 . S
C627 C626 1.373 . S
C627 C643 1.377 . S
C628 C626 1.389 . S
C628 C629 1.524 . S
C628 C642 1.377 . S
C629 C628 1.524 . S
C629 C630 1.397 . S
C629 C634 1.363 . S
C630 H607 0.950 . S
C630 C629 1.397 . S
C630 C631 1.334 . S
C631 H608 0.950 . S
C631 C630 1.334 . S
C631 C632 1.287 . S
C632 C631 1.287 . S
C632 C633 1.524 . S
C632 H651 0.913 . S
C633 H609 0.950 . S
C633 C632 1.524 . S
C633 C634 1.415 . S
C634 H610 0.950 . S
C634 C629 1.363 . S
C634 C633 1.415 . S
C635 H611 0.951 . S
C635 C636 1.366 . S
C635 C637 1.388 . S
C636 C635 1.366 . S
C636 C640 1.385 . S
C637 H612 0.951 . S
C637 C635 1.388 . S
C637 C638 1.366 . S
C638 C637 1.366 . S
C638 C639 1.414 . S
C638 C641 1.499 . S
C639 H613 0.950 . S
C639 C638 1.414 . S
C639 C640 1.374 . S
C640 H614 0.950 . S
C640 C636 1.385 . S
C640 C639 1.374 . S
C641 C638 1.499 . S
C641 C642 1.373 . S
C641 C643 1.389 . S
C642 H615 0.950 . S
C642 C628 1.377 . S
C642 C641 1.373 . S
C643 C627 1.377 . S
C643 C641 1.389 . S
C643 C644 1.524 . S
C644 C643 1.524 . S
C644 C645 1.397 . S
C644 C649 1.363 . S
C645 H616 0.950 . S
C645 C644 1.397 . S
C645 C646 1.334 . S
C646 H617 0.950 . S
C646 C645 1.334 . S
C646 C647 1.287 . S
C647 C646 1.287 . S
C647 C648 1.524 . S
C647 H650 0.999 . S
C648 H618 0.950 . S
C648 C647 1.524 . S
C648 C649 1.415 . S
C649 H619 0.950 . S
C649 C644 1.363 . S
C649 C648 1.415 . S
H650 C647 0.999 . S
H651 C632 0.913 . S
H652 C670 0.951 . S
H653 C672 0.951 . S
H654 C674 0.950 . S
H655 C675 0.950 . S
H656 C677 0.950 . S
H657 C680 0.950 . S
H658 C681 0.950 . S
H659 C683 0.950 . S
H660 C684 0.950 . S
H661 C685 0.951 . S
H662 C687 0.951 . S
H663 C689 0.950 . S
H664 C690 0.950 . S
H665 C692 0.950 . S
H666 C695 0.950 . S
H667 C696 0.950 . S
H668 C698 0.950 . S
H669 C699 0.950 . S
C670 H652 0.951 . S
C670 C671 1.366 . S
C670 C672 1.388 . S
C671 C670 1.366 . S
C671 C675 1.385 . S
C672 H653 0.951 . S
C672 C670 1.388 . S
C672 C673 1.366 . S
C673 C672 1.366 . S
C673 C674 1.414 . S
C673 C676 1.499 . S
C674 H654 0.950 . S
C674 C673 1.414 . S
C674 C675 1.374 . S
C675 H655 0.950 . S
C675 C671 1.385 . S
C675 C674 1.374 . S
C676 C673 1.499 . S
C676 C677 1.373 . S
C676 C678 1.389 . S
C677 H656 0.950 . S
C677 C676 1.373 . S
C677 C693 1.377 . S
C678 C676 1.389 . S
C678 C679 1.524 . S
C678 C692 1.377 . S
C679 C678 1.524 . S
C679 C680 1.397 . S
C679 C684 1.363 . S
C680 H657 0.950 . S
C680 C679 1.397 . S
C680 C681 1.334 . S
C681 H658 0.950 . S
C681 C680 1.334 . S
C681 C682 1.287 . S
C682 C681 1.287 . S
C682 C683 1.524 . S
C682 H701 0.913 . S
C683 H659 0.950 . S
C683 C682 1.524 . S
C683 C684 1.415 . S
C684 H660 0.950 . S
C684 C679 1.363 . S
C684 C683 1.415 . S
C685 H661 0.951 . S
C685 C686 1.366 . S
C685 C687 1.388 . S
C686 C685 1.366 . S
C686 C690 1.385 . S
C687 H662 0.951 . S
C687 C685 1.388 . S
C687 C688 1.366 . S
C688 C687 1.366 . S
C688 C689 1.414 . S
C688 C691 1.499 . S
C689 H663 0.950 . S
C689 C688 1.414 . S
C689 C690 1.374 . S
C690 H664 0.950 . S
C690 C686 1.385 . S
C690 C689 1.374 . S
C691 C688 1.499 . S
C691 C692 1.373 . S
C691 C693 1.389 . S
C692 H665 0.950 . S
C692 C678 1.377 . S
C692 C691 1.373 . S
C693 C677 1.377 . S
C693 C691 1.389 . S
C693 C694 1.524 . S
C694 C693 1.524 . S
C694 C695 1.397 . S
C694 C699 1.363 . S
C695 H666 0.950 . S
C695 C694 1.397 . S
C695 C696 1.334 1_545 S
C696 H667 0.950 . S
C696 C695 1.334 1_565 S
C696 C697 1.287 . S
C697 C696 1.287 . S
C697 C698 1.524 . S
C697 H700 0.999 . S
C698 H668 0.950 . S
C698 C697 1.524 . S
C698 C699 1.415 1_565 S
C699 H669 0.950 . S
C699 C694 1.363 . S
C699 C698 1.415 1_545 S
H700 C697 0.999 . S
H701 C682 0.913 . S
H702 C720 0.951 . S
H703 C722 0.951 . S
H704 C724 0.950 . S
H705 C725 0.950 . S
H706 C727 0.950 . S
H707 C730 0.950 . S
H708 C731 0.950 . S
H709 C733 0.950 . S
H710 C734 0.950 . S
H711 C735 0.951 . S
H712 C737 0.951 . S
H713 C739 0.950 . S
H714 C740 0.950 . S
H715 C742 0.950 . S
H716 C745 0.950 . S
H717 C746 0.950 . S
H718 C748 0.950 . S
H719 C749 0.950 . S
C720 H702 0.951 . S
C720 C721 1.366 . S
C720 C722 1.388 . S
C721 C720 1.366 . S
C721 C725 1.385 . S
C722 H703 0.951 . S
C722 C720 1.388 . S
C722 C723 1.366 . S
C723 C722 1.366 . S
C723 C724 1.414 . S
C723 C726 1.499 . S
C724 H704 0.950 . S
C724 C723 1.414 . S
C724 C725 1.374 . S
C725 H705 0.950 . S
C725 C721 1.385 . S
C725 C724 1.374 . S
C726 C723 1.499 . S
C726 C727 1.373 . S
C726 C728 1.389 . S
C727 H706 0.950 . S
C727 C726 1.373 . S
C727 C743 1.377 . S
C728 C726 1.389 . S
C728 C729 1.524 . S
C728 C742 1.377 . S
C729 C728 1.524 . S
C729 C730 1.397 . S
C729 C734 1.363 . S
C730 H707 0.950 . S
C730 C729 1.397 . S
C730 C731 1.334 . S
C731 H708 0.950 . S
C731 C730 1.334 . S
C731 C732 1.287 . S
C732 C731 1.287 . S
C732 C733 1.524 . S
C732 H751 0.913 . S
C733 H709 0.950 . S
C733 C732 1.524 . S
C733 C734 1.415 . S
C734 H710 0.950 . S
C734 C729 1.363 . S
C734 C733 1.415 . S
C735 H711 0.951 . S
C735 C736 1.366 . S
C735 C737 1.388 . S
C736 C735 1.366 . S
C736 C740 1.385 . S
C737 H712 0.951 . S
C737 C735 1.388 . S
C737 C738 1.366 . S
C738 C737 1.366 . S
C738 C739 1.414 . S
C738 C741 1.499 . S
C739 H713 0.950 . S
C739 C738 1.414 . S
C739 C740 1.374 . S
C740 H714 0.950 . S
C740 C736 1.385 . S
C740 C739 1.374 . S
C741 C738 1.499 . S
C741 C742 1.373 . S
C741 C743 1.389 . S
C742 H715 0.950 . S
C742 C728 1.377 . S
C742 C741 1.373 . S
C743 C727 1.377 . S
C743 C741 1.389 . S
C743 C744 1.524 . S
C744 C743 1.524 . S
C744 C745 1.397 . S
C744 C749 1.363 . S
C745 H716 0.950 . S
C745 C744 1.397 . S
C745 C746 1.334 . S
C746 H717 0.950 . S
C746 C745 1.334 . S
C746 C747 1.287 . S
C747 C746 1.287 . S
C747 C748 1.524 . S
C747 H750 0.999 . S
C748 H718 0.950 . S
C748 C747 1.524 . S
C748 C749 1.415 . S
C749 H719 0.950 . S
C749 C744 1.363 . S
C749 C748 1.415 . S
H750 C747 0.999 . S
H751 C732 0.913 . S
H752 C770 0.951 . S
H753 C772 0.951 . S
H754 C774 0.950 . S
H755 C775 0.950 . S
H756 C777 0.952 1_545 S
H757 C780 0.950 . S
H758 C781 0.950 . S
H759 C783 0.950 . S
H760 C784 0.950 . S
H761 C785 0.951 1_545 S
H762 C787 0.935 1_545 S
H763 C789 0.950 . S
H764 C790 0.950 . S
H765 C792 0.950 . S
H766 C795 0.950 . S
H767 C796 0.950 . S
H768 C798 0.950 . S
H769 C799 0.950 . S
C770 H752 0.951 . S
C770 C771 1.366 . S
C770 C772 1.388 . S
C771 C770 1.366 . S
C771 C775 1.385 . S
C772 H753 0.951 . S
C772 C770 1.388 . S
C772 C773 1.366 . S
C773 C772 1.366 . S
C773 C774 1.414 . S
C773 C776 1.499 . S
C774 H754 0.950 . S
C774 C773 1.414 . S
C774 C775 1.374 . S
C775 H755 0.950 . S
C775 C771 1.385 . S
C775 C774 1.374 . S
C776 C773 1.499 . S
C776 C777 1.373 . S
C776 C778 1.389 . S
C777 H756 0.952 1_565 S
C777 C776 1.373 . S
C777 C793 1.377 . S
C778 C776 1.389 . S
C778 C779 1.524 . S
C778 C792 1.377 . S
C779 C778 1.524 . S
C779 C780 1.397 . S
C779 C784 1.363 . S
C780 H757 0.950 . S
C780 C779 1.397 . S
C780 C781 1.334 . S
C781 H758 0.950 . S
C781 C780 1.334 . S
C781 C782 1.287 . S
C782 C781 1.287 . S
C782 C783 1.524 . S
C782 H801 0.913 . S
C783 H759 0.950 . S
C783 C782 1.524 . S
C783 C784 1.415 . S
C784 H760 0.950 . S
C784 C779 1.363 . S
C784 C783 1.415 . S
C785 H761 0.951 1_565 S
C785 C786 1.366 . S
C785 C787 1.388 . S
C786 C785 1.366 . S
C786 C790 1.385 . S
C787 H762 0.935 1_565 S
C787 C785 1.388 . S
C787 C788 1.366 . S
C788 C787 1.366 . S
C788 C789 1.414 . S
C788 C791 1.499 . S
C789 H763 0.950 . S
C789 C788 1.414 . S
C789 C790 1.374 . S
C790 H764 0.950 . S
C790 C786 1.385 . S
C790 C789 1.374 . S
C791 C788 1.499 . S
C791 C792 1.373 . S
C791 C793 1.389 . S
C792 H765 0.950 . S
C792 C778 1.377 . S
C792 C791 1.373 . S
C793 C777 1.377 . S
C793 C791 1.389 . S
C793 C794 1.524 1_565 S
C794 C793 1.524 1_545 S
C794 C795 1.397 . S
C794 C799 1.363 . S
C795 H766 0.950 . S
C795 C794 1.397 . S
C795 C796 1.334 . S
C796 H767 0.950 . S
C796 C795 1.334 . S
C796 C797 1.287 . S
C797 C796 1.287 . S
C797 C798 1.524 . S
C797 H800 0.999 . S
C798 H768 0.950 . S
C798 C797 1.524 . S
C798 C799 1.415 . S
C799 H769 0.950 . S
C799 C794 1.363 . S
C799 C798 1.415 . S
H800 C797 0.999 . S
H801 C782 0.913 . S
C236 C176 1.341 . S
C221 C135 1.510 . S
C271 C15 1.509 . S
C286 C197 1.334 . S
C321 C55 1.704 . S
C336 C173 1.501 . S
C371 C95 1.718 . S
C386 C194 1.513 . S
C436 C178 1.635 . S
C421 C2 1.664 . S
C486 C198 1.567 . S
C471 C42 1.569 . S
C521 C82 1.569 . S
C536 C174 1.500 . S
C571 C141 1.650 . S
C586 C196 1.566 . S
C636 C195 1.529 . S
C621 C61 1.549 . S
C686 C177 1.603 . S
C671 C101 1.640 . S
C736 C199 1.665 . S
C721 C122 1.694 . S
C771 C21 1.680 . S
C786 C175 1.597 1_565 S
