# Generated by pormake.
# Topology sit, (3,6)-cn, num edge types: 1
# Building blocks:
#     Node 0, Type 0, BuildingBlock: WUSLED_clean_sbu_0, # of connection points: 3
#     Node 1, Type 0, BuildingBlock: WUSLED_clean_sbu_0, # of connection points: 3
#     Node 2, Type 0, BuildingBlock: WUSLED_clean_sbu_0, # of connection points: 3
#     Node 3, Type 0, BuildingBlock: WUSLED_clean_sbu_0, # of connection points: 3
#     Node 4, Type 1, BuildingBlock: MIDCAF_clean_sbu_0, # of connection points: 6
#     Node 5, Type 1, BuildingBlock: MIDCAF_clean_sbu_0, # of connection points: 6
#     Edge 6, Type (0, 1), BuildingBlock: TEMPAE_clean_linker_10, # of connection points: 2
#     Edge 7, Type (0, 1), BuildingBlock: TEMPAE_clean_linker_10, # of connection points: 2
#     Edge 8, Type (0, 1), BuildingBlock: TEMPAE_clean_linker_10, # of connection points: 2
#     Edge 9, Type (0, 1), BuildingBlock: TEMPAE_clean_linker_10, # of connection points: 2
#     Edge 10, Type (0, 1), BuildingBlock: TEMPAE_clean_linker_10, # of connection points: 2
#     Edge 11, Type (0, 1), BuildingBlock: TEMPAE_clean_linker_10, # of connection points: 2
#     Edge 12, Type (0, 1), BuildingBlock: TEMPAE_clean_linker_10, # of connection points: 2
#     Edge 13, Type (0, 1), BuildingBlock: TEMPAE_clean_linker_10, # of connection points: 2
#     Edge 14, Type (0, 1), BuildingBlock: TEMPAE_clean_linker_10, # of connection points: 2
#     Edge 15, Type (0, 1), BuildingBlock: TEMPAE_clean_linker_10, # of connection points: 2
#     Edge 16, Type (0, 1), BuildingBlock: TEMPAE_clean_linker_10, # of connection points: 2
#     Edge 17, Type (0, 1), BuildingBlock: TEMPAE_clean_linker_10, # of connection points: 2
# Relax obj value: 0.107
# Max RMSD: 0.192
# Mean RMSD: 0.104
data_MOF--net-sit--node1-WUSLED_clean_sbu_0--node2-MIDCAF_clean_sbu_0--edge1-TEMPAE_clean_linker_10
_symmetry_space_group_name_H-M    P1
_symmetry_Int_Tables_number       1
_symmetry_cell_setting            triclinic
loop_
_symmetry_equiv_pos_as_xyz
'x, y, z'
_cell_length_a     30.197561
_cell_length_b     41.971311
_cell_length_c     46.485693
_cell_angle_alpha  90.110306
_cell_angle_beta   88.811977
_cell_angle_gamma 83.991814
loop_
_atom_site_label
_atom_site_type_symbol
_atom_site_fract_x
_atom_site_fract_y
_atom_site_fract_z
_atom_type_partial_charge
C0 C 0.97773 0.30219 0.00131 0.0
C1 C 0.99024 0.33161 0.99137 0.0
C2 C 0.91735 0.34439 0.9704 0.0
C3 C 0.96028 0.35257 0.97617 0.0
C4 C 0.90537 0.31452 0.97975 0.0
C5 C 0.93532 0.29363 0.99513 0.0
U6 U 0.09545 0.27732 0.02333 0.0
O7 O 0.12447 0.26659 0.06561 0.0
O8 O 0.13276 0.23027 0.03128 0.0
C9 C 0.13904 0.23696 0.05845 0.0
C10 C 0.00878 0.28066 0.01823 0.0
C11 C 0.13004 0.21209 0.07948 0.0
C12 C 0.08192 0.18899 0.1146 0.0
C13 C 0.08839 0.21192 0.09345 0.0
C14 C 0.15828 0.16585 0.10755 0.0
C15 C 0.11695 0.1658 0.12208 0.0
C16 C 0.1647 0.18876 0.08651 0.0
C17 C 0.17948 0.32975 0.98536 0.0
C18 C 0.26049 0.32465 0.98224 0.0
C19 C 0.21781 0.37301 0.96572 0.0
C20 C 0.17847 0.36028 0.97329 0.0
C21 C 0.2594 0.35536 0.9698 0.0
C22 C 0.2207 0.31188 0.98997 0.0
C23 C 0.13645 0.31781 0.9922 0.0
O24 O 0.03653 0.26064 0.00312 0.0
O25 O 0.02816 0.29465 0.03918 0.0
O26 O 0.11924 0.32475 0.01792 0.0
O27 O 0.13048 0.28885 0.98329 0.0
H28 H 0.02308 0.33851 0.99563 0.0
H29 H 0.9707 0.3752 0.96894 0.0
H30 H 0.87242 0.30765 0.97586 0.0
H31 H 0.92516 0.27098 0.0025 0.0
H32 H 0.04986 0.18997 0.12562 0.0
H33 H 0.06119 0.22981 0.08838 0.0
H34 H 0.18581 0.14818 0.11246 0.0
H35 H 0.19706 0.18851 0.07594 0.0
H36 H 0.29193 0.31035 0.98556 0.0
H37 H 0.21552 0.39696 0.95688 0.0
H38 H 0.14697 0.37444 0.96966 0.0
H39 H 0.22207 0.28818 0.99931 0.0
C40 C 0.90397 0.73858 0.99985 0.0
C41 C 0.92246 0.71123 0.9847 0.0
C42 C 0.84833 0.69714 0.97436 0.0
C43 C 0.89486 0.69059 0.97221 0.0
C44 C 0.82991 0.72531 0.98841 0.0
C45 C 0.85759 0.7458 0.00122 0.0
U46 U 0.02007 0.75652 0.01676 0.0
O47 O 0.0497 0.80139 0.02511 0.0
O48 O 0.05185 0.76371 0.05798 0.0
C49 C 0.06015 0.79302 0.05156 0.0
C50 C 0.93306 0.7582 0.01566 0.0
C51 C 0.04876 0.81738 0.07407 0.0
C52 C 0.00014 0.84136 0.11246 0.0
C53 C 0.00826 0.81931 0.08975 0.0
C54 C 0.0723 0.86016 0.10339 0.0
C55 C 0.03225 0.86193 0.11958 0.0
C56 C 0.08043 0.83811 0.08092 0.0
C57 C 0.11088 0.70157 0.97376 0.0
C58 C 0.19081 0.69256 0.98087 0.0
C59 C 0.1566 0.66334 0.94378 0.0
C60 C 0.11519 0.67938 0.95113 0.0
C61 C 0.19473 0.66917 0.95894 0.0
C62 C 0.14896 0.70859 0.98838 0.0
C63 C 0.06568 0.71495 0.98237 0.0
O64 O 0.95746 0.74241 0.03509 0.0
O65 O 0.95564 0.77707 0.99982 0.0
O66 O 0.05314 0.74463 0.97481 0.0
O67 O 0.05219 0.70792 0.00843 0.0
H68 H 0.95825 0.70537 0.98328 0.0
H69 H 0.90985 0.6692 0.96124 0.0
H70 H 0.79411 0.73078 0.99046 0.0
H71 H 0.84278 0.7668 0.01283 0.0
H72 H 0.96894 0.84225 0.12451 0.0
H73 H 0.98335 0.80346 0.08475 0.0
H74 H 0.09806 0.87519 0.10866 0.0
H75 H 0.11199 0.83678 0.06921 0.0
H76 H 0.21971 0.69753 0.99285 0.0
H77 H 0.1587 0.64592 0.92644 0.0
H78 H 0.08616 0.67379 0.93955 0.0
H79 H 0.14615 0.72574 0.00593 0.0
C80 C 0.4778 0.80651 0.50662 0.0
C81 C 0.49055 0.82949 0.48706 0.0
C82 C 0.41255 0.84691 0.47767 0.0
C83 C 0.45821 0.84951 0.4727 0.0
C84 C 0.40017 0.82353 0.49708 0.0
C85 C 0.43249 0.80354 0.51137 0.0
U86 U 0.59868 0.78019 0.5237 0.0
O87 O 0.63123 0.7701 0.56506 0.0
O88 O 0.6334 0.73245 0.53202 0.0
C89 C 0.64341 0.73996 0.55841 0.0
C90 C 0.5113 0.78608 0.52268 0.0
C91 C 0.63556 0.71644 0.58085 0.0
C92 C 0.58676 0.68594 0.60955 0.0
C93 C 0.59279 0.70804 0.58758 0.0
C94 C 0.6661 0.68053 0.618 0.0
C95 C 0.6234 0.67209 0.62514 0.0
C96 C 0.67205 0.70248 0.5961 0.0
C97 C 0.68656 0.82362 0.48132 0.0
C98 C 0.76563 0.82325 0.49063 0.0
C99 C 0.7336 0.85147 0.44931 0.0
C100 C 0.69201 0.84211 0.45678 0.0
C101 C 0.77095 0.84238 0.46616 0.0
C102 C 0.72363 0.81388 0.49816 0.0
C103 C 0.64127 0.81653 0.4892 0.0
O104 O 0.53645 0.76469 0.50728 0.0
O105 O 0.53393 0.80125 0.54121 0.0
O106 O 0.62666 0.82554 0.51509 0.0
O107 O 0.63033 0.78827 0.4816 0.0
H108 H 0.52548 0.83206 0.48307 0.0
H109 H 0.46898 0.86694 0.45765 0.0
H110 H 0.3654 0.82112 0.50177 0.0
H111 H 0.42205 0.786 0.52645 0.0
H112 H 0.55338 0.68022 0.61475 0.0
H113 H 0.56418 0.71873 0.57605 0.0
H114 H 0.69506 0.67007 0.62931 0.0
H115 H 0.7053 0.70869 0.59114 0.0
H116 H 0.79377 0.81574 0.50397 0.0
H117 H 0.73609 0.86678 0.43075 0.0
H118 H 0.66371 0.85001 0.44367 0.0
H119 H 0.71994 0.79954 0.51724 0.0
C120 C 0.4236 0.21803 0.47852 0.0
C121 C 0.41052 0.21081 0.45071 0.0
C122 C 0.34378 0.19038 0.47024 0.0
C123 C 0.37083 0.19722 0.44656 0.0
C124 C 0.35509 0.20007 0.49787 0.0
C125 C 0.39466 0.21394 0.50199 0.0
U126 U 0.51565 0.25956 0.51584 0.0
O127 O 0.48524 0.26773 0.55888 0.0
O128 O 0.48292 0.3073 0.52788 0.0
C129 C 0.47466 0.29849 0.55442 0.0
C130 C 0.46981 0.22506 0.48274 0.0
C131 C 0.48596 0.3203 0.57741 0.0
C132 C 0.46484 0.36789 0.60643 0.0
C133 C 0.45679 0.34776 0.58357 0.0
C134 C 0.53192 0.33355 0.61718 0.0
C135 C 0.50221 0.36088 0.62379 0.0
C136 C 0.52396 0.3135 0.59414 0.0
C137 C 0.63588 0.2317 0.49388 0.0
C138 C 0.71166 0.22054 0.47539 0.0
C139 C 0.65987 0.18058 0.47067 0.0
C140 C 0.62645 0.20151 0.48403 0.0
C141 C 0.70323 0.18957 0.46683 0.0
C142 C 0.67836 0.2413 0.48889 0.0
C143 C 0.60281 0.25254 0.51092 0.0
O144 O 0.48808 0.21449 0.5068 0.0
O145 O 0.47981 0.25375 0.47549 0.0
O146 O 0.57774 0.27423 0.49652 0.0
O147 O 0.58046 0.2378 0.53044 0.0
H148 H 0.43235 0.21382 0.43234 0.0
H149 H 0.36306 0.18988 0.42505 0.0
H150 H 0.33447 0.19544 0.51643 0.0
H151 H 0.40383 0.21968 0.52365 0.0
H152 H 0.44164 0.38895 0.61051 0.0
H153 H 0.42734 0.35343 0.57087 0.0
H154 H 0.56072 0.32712 0.63027 0.0
H155 H 0.547 0.2924 0.58978 0.0
H156 H 0.74429 0.22859 0.47206 0.0
H157 H 0.65216 0.15696 0.46437 0.0
H158 H 0.59366 0.19373 0.48749 0.0
H159 H 0.68614 0.26461 0.49607 0.0
Zn160 Zn 0.0609 0.06777 0.3644 0.0
Zn161 Zn 0.08753 0.9326 0.35918 0.0
Zn162 Zn 0.06179 0.01332 0.36491 0.0
C163 C 0.06878 0.96699 0.30576 0.0
C164 C 0.00725 0.9714 0.3929 0.0
O165 O 0.12047 0.02647 0.38982 0.0
O166 O 0.09688 0.07737 0.39655 0.0
C167 C 0.07539 0.05528 0.30875 0.0
O168 O 0.06052 0.99389 0.31964 0.0
O169 O 0.08172 0.94095 0.31816 0.0
O170 O 0.03892 0.95613 0.3796 0.0
O171 O 0.00319 1.00175 0.39008 0.0
O172 O 0.08427 0.07642 0.32635 0.0
O173 O 0.06315 0.02869 0.3184 0.0
O174 O 0.99571 0.03468 0.3864 0.0
O175 O 0.99881 0.08339 0.36988 0.0
C176 C 0.97718 0.06363 0.38292 0.0
O177 O 0.12673 0.99294 0.38562 0.0
O178 O 0.14376 0.94052 0.37586 0.0
C179 C 0.12425 0.05364 0.40204 0.0
C180 C 0.15318 0.96647 0.38691 0.0
Zn181 Zn 0.55729 0.56981 0.86434 0.0
Zn182 Zn 0.58914 0.46054 0.8656 0.0
Zn183 Zn 0.57052 0.51372 0.86397 0.0
C184 C 0.55723 0.46678 0.81248 0.0
C185 C 0.52327 0.46713 0.90425 0.0
O186 O 0.62631 0.53323 0.8867 0.0
O187 O 0.5943 0.58183 0.89618 0.0
C188 C 0.57619 0.5563 0.80788 0.0
O189 O 0.56638 0.4954 0.81848 0.0
O190 O 0.55842 0.44639 0.83232 0.0
O191 O 0.5605 0.45049 0.90253 0.0
O192 O 0.51712 0.49308 0.88941 0.0
O193 O 0.5766 0.57947 0.82513 0.0
O194 O 0.57099 0.52815 0.81763 0.0
O195 O 0.50438 0.52717 0.88668 0.0
O196 O 0.49319 0.57681 0.87094 0.0
C197 C 0.47896 0.55366 0.88409 0.0
O198 O 0.63733 0.49977 0.88438 0.0
O199 O 0.65442 0.4531 0.86311 0.0
C200 C 0.62648 0.56059 0.89932 0.0
C201 C 0.66573 0.47524 0.87872 0.0
C202 C 0.14474 0.13547 0.16579 0.0
C203 C 0.11102 0.14254 0.14574 0.0
C204 C 0.13843 0.11571 0.18955 0.0
C205 C 0.09731 0.10268 0.19352 0.0
C206 C 0.06401 0.10837 0.17259 0.0
C207 C 0.0712 0.12828 0.14902 0.0
C208 C 0.17476 0.11054 0.21142 0.0
C209 C 0.01976 0.09493 0.17598 0.0
C210 C 0.09129 0.04356 0.25576 0.0
C211 C 0.07487 0.0644 0.27798 0.0
C212 C 0.09689 0.0552 0.22753 0.0
C213 C 0.08645 0.08835 0.22183 0.0
C214 C 0.06791 0.10892 0.24404 0.0
C215 C 0.06194 0.09664 0.27156 0.0
C216 C 0.11582 0.03244 0.2042 0.0
C217 C 0.05667 0.14444 0.23928 0.0
H218 H 0.17547 0.14657 0.16367 0.0
H219 H 0.04525 0.13312 0.13338 0.0
H220 H 0.16379 0.12333 0.23167 0.0
H221 H 0.18144 0.08473 0.2166 0.0
H222 H 0.20632 0.11942 0.20376 0.0
H223 H -8e-05 0.09774 0.15612 0.0
H224 H 0.02476 0.06915 0.18163 0.0
H225 H 0.00019 0.10755 0.19384 0.0
H226 H 0.10196 0.0188 0.26066 0.0
H227 H 0.04861 0.1128 0.2886 0.0
H228 H 0.14997 0.03787 0.1982 0.0
H229 H 0.09545 0.03556 0.18462 0.0
H230 H 0.11732 1.00704 0.21115 0.0
H231 H 0.08765 0.15564 0.23436 0.0
H232 H 0.03999 0.15673 0.2584 0.0
H233 H 0.03457 0.1487 0.22062 0.0
C234 C 0.01148 0.87313 0.17145 0.0
C235 C 0.0258 0.88407 0.14468 0.0
C236 C 0.01287 0.89202 0.19636 0.0
C237 C 0.02872 0.92259 0.19435 0.0
C238 C 0.03978 0.93468 0.16705 0.0
C239 C 0.03834 0.91525 0.14257 0.0
C240 C 0.00058 0.87829 0.22508 0.0
C241 C 0.05629 0.96723 0.16395 0.0
C242 C 0.02023 0.9733 0.26287 0.0
C243 C 0.06194 0.96425 0.27465 0.0
C244 C 0.00923 0.96107 0.23596 0.0
C245 C 0.04071 0.93936 0.22091 0.0
C246 C 0.08385 0.93207 0.23202 0.0
C247 C 0.09393 0.94479 0.25861 0.0
C248 C 0.96306 0.9696 0.22469 0.0
C249 C 0.11841 0.90884 0.21697 0.0
H250 H 0.00182 0.84904 0.17324 0.0
H251 H 0.04865 0.92404 0.12184 0.0
H252 H 0.03089 0.87354 0.23815 0.0
H253 H 0.97708 0.89572 0.2372 0.0
H254 H 0.98512 0.85556 0.22275 0.0
H255 H 0.05668 0.97522 0.14119 0.0
H256 H 0.03522 0.98536 0.17698 0.0
H257 H 0.0907 0.96626 0.17207 0.0
H258 H 0.9952 0.98786 0.27555 0.0
H259 H 0.12608 0.93762 0.26794 0.0
H260 H 0.94317 0.94907 0.22792 0.0
H261 H 0.96436 0.97454 0.20126 0.0
H262 H 0.94557 0.99081 0.23596 0.0
H263 H 0.10681 0.88461 0.21678 0.0
H264 H 0.15114 0.90727 0.22766 0.0
H265 H 0.12318 0.91606 0.19428 0.0
C266 C 0.63989 0.65265 0.67511 0.0
C267 C 0.61722 0.64968 0.64935 0.0
C268 C 0.63342 0.6326 0.6986 0.0
C269 C 0.60358 0.60887 0.69636 0.0
C270 C 0.58162 0.60506 0.67014 0.0
C271 C 0.58853 0.62562 0.64699 0.0
C272 C 0.65718 0.63776 0.72626 0.0
C273 C 0.54977 0.57994 0.66689 0.0
C274 C 0.60979 0.54894 0.75809 0.0
C275 C 0.57728 0.56386 0.77697 0.0
C276 C 0.61721 0.56223 0.73077 0.0
C277 C 0.59157 0.59092 0.72253 0.0
C278 C 0.55672 0.60456 0.74091 0.0
C279 C 0.55004 0.59082 0.7678 0.0
C280 C 0.65431 0.54687 0.71156 0.0
C281 C 0.52868 0.63518 0.73327 0.0
H282 H 0.66172 0.6714 0.67725 0.0
H283 H 0.57139 0.62289 0.62702 0.0
H284 H 0.63246 0.64559 0.74351 0.0
H285 H 0.67564 0.61498 0.73333 0.0
H286 H 0.68101 0.6561 0.72401 0.0
H287 H 0.53883 0.57787 0.64436 0.0
H288 H 0.56555 0.55625 0.67393 0.0
H289 H 0.51989 0.58608 0.6809 0.0
H290 H 0.63109 0.52823 0.76532 0.0
H291 H 0.52488 0.60231 0.78251 0.0
H292 H 0.68229 0.56203 0.71111 0.0
H293 H 0.6428 0.54505 0.68916 0.0
H294 H 0.66699 0.52259 0.71913 0.0
H295 H 0.54959 0.6554 0.73356 0.0
H296 H 0.50014 0.64077 0.74856 0.0
H297 H 0.5156 0.63361 0.71126 0.0
C298 C 0.47304 0.39394 0.66662 0.0
C299 C 0.50932 0.3814 0.6492 0.0
C300 C 0.4793 0.41196 0.69141 0.0
C301 C 0.52296 0.41731 0.69929 0.0
C302 C 0.55964 0.40538 0.6815 0.0
C303 C 0.55237 0.38775 0.65662 0.0
C304 C 0.43928 0.42402 0.70988 0.0
C305 C 0.60681 0.40978 0.68955 0.0
C306 C 0.54226 0.47639 0.75945 0.0
C307 C 0.54755 0.45572 0.78308 0.0
C308 C 0.53379 0.46442 0.7319 0.0
C309 C 0.53079 0.43115 0.72806 0.0
C310 C 0.53592 0.4104 0.7519 0.0
C311 C 0.54395 0.4229 0.77891 0.0
C312 C 0.52802 0.48725 0.70692 0.0
C313 C 0.53323 0.37477 0.74897 0.0
H314 H 0.4397 0.38878 0.66144 0.0
H315 H 0.58059 0.3786 0.64315 0.0
H316 H 0.43994 0.41076 0.73051 0.0
H317 H 0.44017 0.44975 0.71512 0.0
H318 H 0.4074 0.42098 0.6992 0.0
H319 H 0.63133 0.40155 0.67227 0.0
H320 H 0.60994 0.43534 0.69435 0.0
H321 H 0.61549 0.39598 0.70936 0.0
H322 H 0.54449 0.50173 0.76247 0.0
H323 H 0.54788 0.40649 0.79687 0.0
H324 H 0.49489 0.48594 0.69735 0.0
H325 H 0.55344 0.4802 0.68988 0.0
H326 H 0.53099 0.51242 0.71341 0.0
H327 H 0.49941 0.37032 0.74222 0.0
H328 H 0.54048 0.36173 0.76939 0.0
H329 H 0.55716 0.3645 0.73213 0.0
C330 C 0.30158 0.3879 0.93579 0.0
C331 C 0.30086 0.36954 0.96099 0.0
C332 C 0.3383 0.4042 0.92833 0.0
C333 C 0.37592 0.40164 0.94612 0.0
C334 C 0.37644 0.382 0.97092 0.0
C335 C 0.33872 0.36639 0.9782 0.0
C336 C 0.33678 0.42423 0.90133 0.0
C337 C 0.41633 0.37802 0.99012 0.0
C338 C 0.48307 0.41934 0.90887 0.0
C339 C 0.48571 0.45144 0.91643 0.0
C340 C 0.44824 0.4027 0.919 0.0
C341 C 0.41532 0.41833 0.93764 0.0
C342 C 0.41833 0.45057 0.94607 0.0
C343 C 0.4533 0.46704 0.93495 0.0
C344 C 0.44619 0.36859 0.90913 0.0
C345 C 0.38437 0.46762 0.96655 0.0
H346 H 0.27311 0.38972 0.92185 0.0
H347 H 0.3385 0.3524 0.99776 0.0
H348 H 0.34222 0.44929 0.90665 0.0
H349 H 0.36392 0.41486 0.88616 0.0
H350 H 0.30453 0.42441 0.89023 0.0
H351 H 0.41473 0.35776 0.00532 0.0
H352 H 0.44776 0.37394 0.97723 0.0
H353 H 0.4177 0.40031 0.00279 0.0
H354 H 0.50796 0.40735 0.89427 0.0
H355 H 0.45566 0.49171 0.94101 0.0
H356 H 0.41588 0.36709 0.89631 0.0
H357 H 0.4439 0.35263 0.92797 0.0
H358 H 0.47571 0.35946 0.89572 0.0
H359 H 0.35103 0.4697 0.95671 0.0
H360 H 0.39265 0.492 0.97225 0.0
H361 H 0.38211 0.45346 0.98657 0.0
C362 C 0.78364 0.68316 0.94564 0.0
C363 C 0.81922 0.67359 0.96362 0.0
C364 C 0.75553 0.66094 0.93591 0.0
C365 C 0.7626 0.62861 0.94499 0.0
C366 C 0.79839 0.61892 0.96323 0.0
C367 C 0.82655 0.64147 0.97209 0.0
C368 C 0.71799 0.67212 0.91617 0.0
C369 C 0.80629 0.58494 0.97394 0.0
C370 C 0.65837 0.5861 0.94088 0.0
C371 C 0.66531 0.56963 0.9147 0.0
C372 C 0.69119 0.60358 0.95207 0.0
C373 C 0.73136 0.60535 0.93618 0.0
C374 C 0.73963 0.58703 0.9106 0.0
C375 C 0.70656 0.56897 0.90032 0.0
C376 C 0.68135 0.62202 0.97979 0.0
C377 C 0.78157 0.5888 0.8927 0.0
H378 H 0.77806 0.70799 0.93901 0.0
H379 H 0.85373 0.63416 0.98631 0.0
H380 H 0.71913 0.65651 0.89681 0.0
H381 H 0.68554 0.67035 0.92736 0.0
H382 H 0.71932 0.69729 0.90914 0.0
H383 H 0.8358 0.58121 0.98788 0.0
H384 H 0.77658 0.57881 0.98636 0.0
H385 H 0.81118 0.56807 0.95547 0.0
H386 H 0.6262 0.58674 0.95181 0.0
H387 H 0.71146 0.55669 0.87976 0.0
H388 H 0.67325 0.6478 0.9749 0.0
H389 H 0.71082 0.61978 0.99378 0.0
H390 H 0.65267 0.61365 0.9919 0.0
H391 H 0.77978 0.61235 0.88173 0.0
H392 H 0.78607 0.56963 0.87607 0.0
H393 H 0.81132 0.58695 0.90643 0.0
C394 C 0.87952 0.39984 0.96379 0.0
C395 C 0.88456 0.36742 0.9557 0.0
C396 C 0.84688 0.42159 0.95146 0.0
C397 C 0.81856 0.4107 0.93054 0.0
C398 C 0.82434 0.37818 0.92164 0.0
C399 C 0.85724 0.35693 0.93436 0.0
C400 C 0.84173 0.456 0.96152 0.0
C401 C 0.79499 0.36565 0.89921 0.0
C402 C 0.70225 0.45278 0.9218 0.0
C403 C 0.70631 0.46797 0.89526 0.0
C404 C 0.73889 0.43476 0.93393 0.0
C405 C 0.78084 0.43264 0.91945 0.0
C406 C 0.7857 0.4498 0.89354 0.0
C407 C 0.74807 0.46689 0.88147 0.0
C408 C 0.73183 0.41595 0.96102 0.0
C409 C 0.83002 0.44854 0.87774 0.0
H410 H 0.9002 0.40805 0.98048 0.0
H411 H 0.86143 0.33201 0.92772 0.0
H412 H 0.84176 0.47236 0.94281 0.0
H413 H 0.80925 0.46132 0.97305 0.0
H414 H 0.86865 0.46126 0.97618 0.0
H415 H 0.80442 0.33991 0.89424 0.0
H416 H 0.75974 0.36875 0.90684 0.0
H417 H 0.79701 0.37954 0.87904 0.0
H418 H 0.66951 0.45271 0.93185 0.0
H419 H 0.75074 0.47791 0.86051 0.0
H420 H 0.75655 0.42085 0.97733 0.0
H421 H 0.73685 0.38992 0.95608 0.0
H422 H 0.69784 0.42164 0.9705 0.0
H423 H 0.85595 0.45539 0.89244 0.0
H424 H 0.82878 0.46467 0.85879 0.0
H425 H 0.84047 0.42371 0.87028 0.0
C426 C 0.27714 0.66376 0.9479 0.0
C427 C 0.23759 0.64955 0.95237 0.0
C428 C 0.31668 0.64521 0.93913 0.0
C429 C 0.31651 0.61172 0.93492 0.0
C430 C 0.27709 0.59721 0.94063 0.0
C431 C 0.2382 0.61626 0.94926 0.0
C432 C 0.35801 0.66165 0.9331 0.0
C433 C 0.27554 0.56167 0.93659 0.0
C434 C 0.3998 0.57312 0.87984 0.0
C435 C 0.43409 0.55954 0.8972 0.0
C436 C 0.36097 0.58944 0.8919 0.0
C437 C 0.35625 0.59227 0.92217 0.0
C438 C 0.38979 0.57712 0.93992 0.0
C439 C 0.42853 0.56092 0.92716 0.0
C440 C 0.32629 0.60533 0.87212 0.0
C441 C 0.38618 0.57992 0.97226 0.0
H442 H 0.27676 0.6895 0.9502 0.0
H443 H 0.20785 0.60511 0.95321 0.0
H444 H 0.38734 0.64848 0.94331 0.0
H445 H 0.36492 0.66174 0.90957 0.0
H446 H 0.35441 0.68681 0.94098 0.0
H447 H 0.24302 0.55381 0.94359 0.0
H448 H 0.28144 0.5553 0.91355 0.0
H449 H 0.30236 0.54813 0.94892 0.0
H450 H 0.40472 0.57274 0.85665 0.0
H451 H 0.45579 0.55156 0.94058 0.0
H452 H 0.3247 0.63174 0.87452 0.0
H453 H 0.29289 0.59828 0.87798 0.0
H454 H 0.33367 0.59908 0.84916 0.0
H455 H 0.39036 0.60486 0.97878 0.0
H456 H 0.4119 0.56348 0.98301 0.0
H457 H 0.35277 0.57465 0.9801 0.0
C458 C 0.83981 0.86719 0.48003 0.0
C459 C 0.81413 0.85476 0.45869 0.0
C460 C 0.87601 0.88425 0.47258 0.0
C461 C 0.88602 0.88941 0.4432 0.0
C462 C 0.86252 0.87475 0.42168 0.0
C463 C 0.82715 0.85738 0.42971 0.0
C464 C 0.90164 0.89838 0.49613 0.0
C465 C 0.87319 0.87882 0.39007 0.0
C466 C 0.93298 0.96461 0.41652 0.0
C467 C 0.97695 0.95285 0.40975 0.0
C468 C 0.90369 0.94457 0.42931 0.0
C469 C 0.91859 0.91195 0.43455 0.0
C470 C 0.96337 0.90032 0.42857 0.0
C471 C 0.99206 0.92102 0.41671 0.0
C472 C 0.85616 0.95779 0.43591 0.0
C473 C 0.98072 0.86576 0.43367 0.0
H474 H 0.83022 0.86516 0.50249 0.0
H475 H 0.80844 0.84689 0.41314 0.0
H476 H 0.93788 0.89579 0.491 0.0
H477 H 0.89068 0.92436 0.49813 0.0
H478 H 0.89609 0.88691 0.51724 0.0
H479 H 0.85341 0.8644 0.37612 0.0
H480 H 0.86622 0.90442 0.38409 0.0
H481 H 0.90909 0.8717 0.38554 0.0
H482 H 0.92085 0.98872 0.4105 0.0
H483 H 0.0263 0.91177 0.41186 0.0
H484 H 0.84777 0.9535 0.45884 0.0
H485 H 0.83321 0.94516 0.42269 0.0
H486 H 0.85014 0.98386 0.43155 0.0
H487 H 0.97945 0.86057 0.45703 0.0
H488 H 0.01558 0.86006 0.42566 0.0
H489 H 0.95951 0.84951 0.42287 0.0
C490 C 0.3075 0.14161 0.48346 0.0
C491 C 0.30808 0.16912 0.46642 0.0
C492 C 0.27899 0.11826 0.47738 0.0
C493 C 0.24997 0.12274 0.45392 0.0
C494 C 0.24859 0.15137 0.43764 0.0
C495 C 0.27808 0.17406 0.44388 0.0
C496 C 0.28186 0.08802 0.49504 0.0
C497 C 0.21674 0.15767 0.41317 0.0
C498 C 0.20457 0.05681 0.41106 0.0
C499 C 0.16045 0.05954 0.42135 0.0
C500 C 0.23559 0.07543 0.42327 0.0
C501 C 0.22158 0.09738 0.44575 0.0
C502 C 0.17828 0.09762 0.45793 0.0
C503 C 0.14858 0.07816 0.44591 0.0
C504 C 0.28199 0.07394 0.41029 0.0
C505 C 0.16154 0.12099 0.48144 0.0
H506 H 0.33111 0.1375 0.50066 0.0
H507 H 0.27827 0.19542 0.43082 0.0
H508 H 0.24823 0.0823 0.50192 0.0
H509 H 0.29707 0.06768 0.48165 0.0
H510 H 0.30228 0.08984 0.51447 0.0
H511 H 0.21702 0.18225 0.4044 0.0
H512 H 0.22586 0.14024 0.39551 0.0
H513 H 0.1823 0.15436 0.42046 0.0
H514 H 0.21363 0.04271 0.39186 0.0
H515 H 0.11427 0.08024 0.4537 0.0
H516 H 0.30705 0.07413 0.4274 0.0
H517 H 0.28481 0.09535 0.39667 0.0
H518 H 0.2901 0.05222 0.39671 0.0
H519 H 0.18416 0.11881 0.49996 0.0
H520 H 0.12741 0.11726 0.48919 0.0
H521 H 0.16103 0.14585 0.47326 0.0
C522 C 0.33877 0.85736 0.45349 0.0
C523 C 0.37779 0.86887 0.46332 0.0
C524 C 0.30469 0.87804 0.44131 0.0
C525 C 0.3097 0.91111 0.43873 0.0
C526 C 0.34936 0.92278 0.44796 0.0
C527 C 0.38285 0.90158 0.46021 0.0
C528 C 0.26327 0.86444 0.43121 0.0
C529 C 0.35613 0.95776 0.44525 0.0
C530 C 0.23406 0.95339 0.3836 0.0
C531 C 0.19679 0.96455 0.40062 0.0
C532 C 0.27227 0.93762 0.39587 0.0
C533 C 0.2734 0.9332 0.42602 0.0
C534 C 0.23739 0.94704 0.44357 0.0
C535 C 0.19925 0.96251 0.4306 0.0
C536 C 0.30935 0.92291 0.37622 0.0
C537 C 0.23743 0.94289 0.4758 0.0
H538 H 0.3349 0.83205 0.45523 0.0
H539 H 0.41262 0.9108 0.46797 0.0
H540 H 0.23338 0.87671 0.44235 0.0
H541 H 0.25931 0.86873 0.40782 0.0
H542 H 0.26423 0.83829 0.4352 0.0
H543 H 0.38977 0.96277 0.45207 0.0
H544 H 0.35151 0.9657 0.42266 0.0
H545 H 0.33077 0.97232 0.45869 0.0
H546 H 0.23161 0.95428 0.36036 0.0
H547 H 0.16998 0.97031 0.44371 0.0
H548 H 0.30811 0.8966 0.37518 0.0
H549 H 0.34235 0.92718 0.38459 0.0
H550 H 0.30651 0.93254 0.35401 0.0
H551 H 0.23345 0.91757 0.48113 0.0
H552 H 0.20999 0.95844 0.48663 0.0
H553 H 0.26963 0.94843 0.48461 0.0
C554 C 0.73349 0.14578 0.43231 0.0
C555 C 0.74016 0.16646 0.45523 0.0
C556 C 0.76881 0.12468 0.42087 0.0
C557 C 0.81186 0.1244 0.43251 0.0
C558 C 0.81845 0.14465 0.4561 0.0
C559 C 0.78255 0.16517 0.46726 0.0
C560 C 0.76034 0.10328 0.39589 0.0
C561 C 0.86394 0.14578 0.46876 0.0
C562 C 0.90966 0.06105 0.41626 0.0
C563 C 0.93189 0.07584 0.39401 0.0
C564 C 0.86884 0.07559 0.42793 0.0
C565 C 0.85118 0.10617 0.41799 0.0
C566 C 0.87339 0.12094 0.39544 0.0
C567 C 0.91258 0.10534 0.3834 0.0
C568 C 0.84514 0.05878 0.45139 0.0
C569 C 0.857 0.15403 0.38481 0.0
H570 H 0.70093 0.14664 0.42279 0.0
H571 H 0.78785 0.18046 0.48541 0.0
H572 H 0.78041 0.1093 0.37679 0.0
H573 H 0.77091 0.07794 0.40135 0.0
H574 H 0.72468 0.10552 0.38998 0.0
H575 H 0.86303 0.16173 0.48792 0.0
H576 H 0.87813 0.12143 0.47508 0.0
H577 H 0.88688 0.15458 0.45234 0.0
H578 H 0.92491 0.039 0.42533 0.0
H579 H 0.92912 0.11713 0.36614 0.0
H580 H 0.81059 0.05601 0.44487 0.0
H581 H 0.84274 0.0734 0.47137 0.0
H582 H 0.86239 0.03478 0.45626 0.0
H583 H 0.82291 0.15416 0.37639 0.0
H584 H 0.87889 0.16245 0.36754 0.0
H585 H 0.85532 0.17146 0.40289 0.0
loop_
_geom_bond_atom_site_label_1
_geom_bond_atom_site_label_2
_geom_bond_distance
_geom_bond_site_symmetry_2
_ccdc_geom_bond_type
C0 C1 1.264 . S
C0 C5 1.479 . S
C0 C10 1.465 1_656 S
C1 C0 1.264 . S
C1 C3 1.339 . S
C1 H28 0.931 1_655 S
C2 C3 1.395 . S
C2 C4 1.320 . S
C3 C1 1.339 . S
C3 C2 1.395 . S
C3 H29 0.929 . S
C4 C2 1.320 . S
C4 C5 1.405 . S
C4 H30 0.930 . S
C5 C0 1.479 . S
C5 C4 1.405 . S
C5 H31 0.931 1_556 S
U6 O7 2.454 . S
U6 O8 2.458 . S
U6 C9 2.984 . S
U6 C10 2.847 . S
U6 C23 2.882 . S
U6 O24 2.441 . S
U6 O25 2.420 . S
U6 O26 2.455 . S
U6 O27 2.449 . S
O7 U6 2.454 . S
O7 C9 1.353 . S
O8 U6 2.458 . S
O8 C9 1.286 . S
C9 U6 2.984 . S
C9 O7 1.353 . S
C9 O8 1.286 . S
C9 C11 1.363 . S
C10 C0 1.465 1_454 S
C10 U6 2.847 . S
C10 O24 1.249 . S
C10 O25 1.202 . S
C11 C9 1.363 . S
C11 C13 1.408 . S
C11 C16 1.342 . S
C12 C13 1.310 . S
C12 C15 1.461 . S
C12 H32 0.932 . S
C13 C11 1.408 . S
C13 C12 1.310 . S
C13 H33 0.930 . S
C14 C15 1.474 . S
C14 C16 1.285 . S
C14 H34 0.929 . S
C15 C12 1.461 . S
C15 C14 1.474 . S
C16 C11 1.342 . S
C16 C14 1.285 . S
C16 H35 0.930 . S
C17 C20 1.424 . S
C17 C22 1.245 1_556 S
C17 C23 1.428 1_556 S
C18 C21 1.260 . S
C18 C22 1.477 1_556 S
C18 H36 0.932 . S
C19 C20 1.384 . S
C19 C21 1.479 . S
C19 H37 0.929 . S
C20 C17 1.424 . S
C20 C19 1.384 . S
C20 H38 0.928 . S
C21 C18 1.260 . S
C21 C19 1.479 . S
C22 C17 1.245 1_554 S
C22 C18 1.477 1_554 S
C22 H39 0.932 . S
C23 U6 2.882 . S
C23 C17 1.428 1_554 S
C23 O26 1.301 . S
C23 O27 1.282 . S
O24 U6 2.441 . S
O24 C10 1.249 . S
O25 U6 2.420 . S
O25 C10 1.202 . S
O26 U6 2.455 . S
O26 C23 1.301 . S
O27 U6 2.449 . S
O27 C23 1.282 . S
H28 C1 0.931 1_455 S
H29 C3 0.929 . S
H30 C4 0.930 . S
H31 C5 0.931 1_554 S
H32 C12 0.932 . S
H33 C13 0.930 . S
H34 C14 0.929 . S
H35 C16 0.930 . S
H36 C18 0.932 . S
H37 C19 0.929 . S
H38 C20 0.928 . S
H39 C22 0.932 . S
C40 C41 1.264 . S
C40 C45 1.479 . S
C40 C50 1.465 . S
C41 C40 1.264 . S
C41 C43 1.339 . S
C41 H68 0.931 . S
C42 C43 1.395 . S
C42 C44 1.320 . S
C43 C41 1.339 . S
C43 C42 1.395 . S
C43 H69 0.929 . S
C44 C42 1.320 . S
C44 C45 1.405 . S
C44 H70 0.930 . S
C45 C40 1.479 . S
C45 C44 1.405 . S
C45 H71 0.931 1_556 S
U46 O47 2.454 . S
U46 O48 2.458 1_655 S
U46 C49 2.984 . S
U46 C50 2.847 1_554 S
U46 C63 2.882 1_654 S
U46 O64 2.441 . S
U46 O65 2.420 1_554 S
U46 O66 2.455 1_655 S
U46 O67 2.449 1_654 S
O47 U46 2.454 . S
O47 C49 1.353 . S
O48 U46 2.458 1_455 S
O48 C49 1.286 1_455 S
C49 U46 2.984 . S
C49 O47 1.353 . S
C49 O48 1.286 1_655 S
C49 C51 1.363 . S
C50 C40 1.465 . S
C50 U46 2.847 1_556 S
C50 O64 1.249 1_556 S
C50 O65 1.202 . S
C51 C49 1.363 . S
C51 C53 1.408 . S
C51 C56 1.342 1_655 S
C52 C53 1.310 . S
C52 C55 1.481 . S
C52 H72 0.932 . S
C53 C51 1.408 . S
C53 C52 1.310 . S
C53 H73 0.930 . S
C54 C55 1.457 1_455 S
C54 C56 1.285 . S
C54 H74 0.929 . S
C55 C52 1.481 . S
C55 C54 1.457 1_655 S
C56 C51 1.342 1_455 S
C56 C54 1.285 . S
C56 H75 0.930 . S
C57 C60 1.424 . S
C57 C62 1.245 . S
C57 C63 1.428 . S
C58 C61 1.260 . S
C58 C62 1.477 . S
C58 H76 0.932 . S
C59 C60 1.384 . S
C59 C61 1.479 . S
C59 H77 0.929 . S
C60 C57 1.424 . S
C60 C59 1.384 . S
C60 H78 0.928 . S
C61 C58 1.260 . S
C61 C59 1.479 . S
C62 C57 1.245 . S
C62 C58 1.477 . S
C62 H79 0.930 . S
C63 U46 2.882 1_456 S
C63 C57 1.428 . S
C63 O66 1.301 1_556 S
C63 O67 1.282 . S
O64 U46 2.441 . S
O64 C50 1.249 1_554 S
O65 U46 2.420 1_556 S
O65 C50 1.202 . S
O66 U46 2.455 1_455 S
O66 C63 1.301 1_554 S
O67 U46 2.449 1_456 S
O67 C63 1.282 . S
H68 C41 0.931 . S
H69 C43 0.929 . S
H70 C44 0.930 . S
H71 C45 0.931 1_554 S
H72 C52 0.932 . S
H73 C53 0.930 . S
H74 C54 0.929 . S
H75 C56 0.930 . S
H76 C58 0.932 . S
H77 C59 0.929 . S
H78 C60 0.928 . S
H79 C62 0.930 . S
C80 C81 1.264 . S
C80 C85 1.479 . S
C80 C90 1.465 . S
C81 C80 1.264 . S
C81 C83 1.339 . S
C81 H108 0.931 . S
C82 C83 1.395 . S
C82 C84 1.320 . S
C83 C81 1.339 . S
C83 C82 1.395 . S
C83 H109 0.929 . S
C84 C82 1.320 . S
C84 C85 1.405 . S
C84 H110 0.930 . S
C85 C80 1.479 . S
C85 C84 1.405 . S
C85 H111 0.931 . S
U86 O87 2.454 . S
U86 O88 2.458 . S
U86 C89 2.984 . S
U86 C90 2.847 . S
U86 C103 2.882 . S
U86 O104 2.441 . S
U86 O105 2.420 . S
U86 O106 2.455 . S
U86 O107 2.449 . S
O87 U86 2.454 . S
O87 C89 1.353 . S
O88 U86 2.458 . S
O88 C89 1.286 . S
C89 U86 2.984 . S
C89 O87 1.353 . S
C89 O88 1.286 . S
C89 C91 1.363 . S
C90 C80 1.465 . S
C90 U86 2.847 . S
C90 O104 1.249 . S
C90 O105 1.202 . S
C91 C89 1.363 . S
C91 C93 1.408 . S
C91 C96 1.342 . S
C92 C93 1.310 . S
C92 C95 1.461 . S
C92 H112 0.932 . S
C93 C91 1.408 . S
C93 C92 1.310 . S
C93 H113 0.930 . S
C94 C95 1.474 . S
C94 C96 1.285 . S
C94 H114 0.929 . S
C95 C92 1.461 . S
C95 C94 1.474 . S
C96 C91 1.342 . S
C96 C94 1.285 . S
C96 H115 0.930 . S
C97 C100 1.424 . S
C97 C102 1.245 . S
C97 C103 1.428 . S
C98 C101 1.260 . S
C98 C102 1.477 . S
C98 H116 0.932 . S
C99 C100 1.384 . S
C99 C101 1.479 . S
C99 H117 0.929 . S
C100 C97 1.424 . S
C100 C99 1.384 . S
C100 H118 0.928 . S
C101 C98 1.260 . S
C101 C99 1.479 . S
C102 C97 1.245 . S
C102 C98 1.477 . S
C102 H119 0.932 . S
C103 U86 2.882 . S
C103 C97 1.428 . S
C103 O106 1.301 . S
C103 O107 1.282 . S
O104 U86 2.441 . S
O104 C90 1.249 . S
O105 U86 2.420 . S
O105 C90 1.202 . S
O106 U86 2.455 . S
O106 C103 1.301 . S
O107 U86 2.449 . S
O107 C103 1.282 . S
H108 C81 0.931 . S
H109 C83 0.929 . S
H110 C84 0.930 . S
H111 C85 0.931 . S
H112 C92 0.932 . S
H113 C93 0.930 . S
H114 C94 0.929 . S
H115 C96 0.930 . S
H116 C98 0.932 . S
H117 C99 0.929 . S
H118 C100 0.928 . S
H119 C102 0.932 . S
C120 C121 1.264 . S
C120 C125 1.479 . S
C120 C130 1.465 . S
C121 C120 1.264 . S
C121 C123 1.339 . S
C121 H148 0.931 . S
C122 C123 1.395 . S
C122 C124 1.320 . S
C123 C121 1.339 . S
C123 C122 1.395 . S
C123 H149 0.929 . S
C124 C122 1.320 . S
C124 C125 1.405 . S
C124 H150 0.930 . S
C125 C120 1.479 . S
C125 C124 1.405 . S
C125 H151 0.931 . S
U126 O127 2.454 . S
U126 O128 2.458 . S
U126 C129 2.984 . S
U126 C130 2.847 . S
U126 C143 2.882 . S
U126 O144 2.441 . S
U126 O145 2.420 . S
U126 O146 2.455 . S
U126 O147 2.449 . S
O127 U126 2.454 . S
O127 C129 1.353 . S
O128 U126 2.458 . S
O128 C129 1.286 . S
C129 U126 2.984 . S
C129 O127 1.353 . S
C129 O128 1.286 . S
C129 C131 1.363 . S
C130 C120 1.465 . S
C130 U126 2.847 . S
C130 O144 1.249 . S
C130 O145 1.202 . S
C131 C129 1.363 . S
C131 C133 1.408 . S
C131 C136 1.342 . S
C132 C133 1.310 . S
C132 C135 1.461 . S
C132 H152 0.932 . S
C133 C131 1.408 . S
C133 C132 1.310 . S
C133 H153 0.930 . S
C134 C135 1.474 . S
C134 C136 1.285 . S
C134 H154 0.929 . S
C135 C132 1.461 . S
C135 C134 1.474 . S
C136 C131 1.342 . S
C136 C134 1.285 . S
C136 H155 0.930 . S
C137 C140 1.424 . S
C137 C142 1.245 . S
C137 C143 1.428 . S
C138 C141 1.260 . S
C138 C142 1.477 . S
C138 H156 0.932 . S
C139 C140 1.384 . S
C139 C141 1.479 . S
C139 H157 0.929 . S
C140 C137 1.424 . S
C140 C139 1.384 . S
C140 H158 0.928 . S
C141 C138 1.260 . S
C141 C139 1.479 . S
C142 C137 1.245 . S
C142 C138 1.477 . S
C142 H159 0.932 . S
C143 U126 2.882 . S
C143 C137 1.428 . S
C143 O146 1.301 . S
C143 O147 1.282 . S
O144 U126 2.441 . S
O144 C130 1.249 . S
O145 U126 2.420 . S
O145 C130 1.202 . S
O146 U126 2.455 . S
O146 C143 1.301 . S
O147 U126 2.449 . S
O147 C143 1.282 . S
H148 C121 0.931 . S
H149 C123 0.929 . S
H150 C124 0.930 . S
H151 C125 0.931 . S
H152 C132 0.932 . S
H153 C133 0.930 . S
H154 C134 0.929 . S
H155 C136 0.930 . S
H156 C138 0.932 . S
H157 C139 0.929 . S
H158 C140 0.928 . S
H159 C142 0.932 . S
Zn160 O166 1.920 . S
Zn160 O172 1.898 . S
Zn160 O175 1.905 1_455 S
Zn161 O169 1.905 . S
Zn161 O170 1.898 . S
Zn161 O178 1.920 . S
Zn162 O165 2.080 . S
Zn162 O168 2.114 1_545 S
Zn162 O171 2.120 1_545 S
Zn162 O173 2.120 . S
Zn162 O174 2.114 . S
Zn162 O177 2.080 1_545 S
C163 O168 1.166 . S
C163 O169 1.182 . S
C164 O170 1.167 . S
C164 O171 1.299 . S
O165 Zn162 2.080 . S
O165 C179 1.305 . S
O166 Zn160 1.920 . S
O166 C179 1.234 . S
C167 O172 1.167 . S
C167 O173 1.299 . S
O168 Zn162 2.114 1_565 S
O168 C163 1.166 . S
O169 Zn161 1.905 . S
O169 C163 1.182 . S
O170 Zn161 1.898 . S
O170 C164 1.167 . S
O171 Zn162 2.120 1_565 S
O171 C164 1.299 . S
O172 Zn160 1.898 . S
O172 C167 1.167 . S
O173 Zn162 2.120 . S
O173 C167 1.299 . S
O174 Zn162 2.114 . S
O174 C176 1.166 1_455 S
O175 Zn160 1.905 1_655 S
O175 C176 1.182 . S
C176 O174 1.166 1_655 S
C176 O175 1.182 . S
O177 Zn162 2.080 1_565 S
O177 C180 1.305 . S
O178 Zn161 1.920 . S
O178 C180 1.234 . S
C179 O165 1.305 . S
C179 O166 1.234 . S
C180 O177 1.305 . S
C180 O178 1.234 . S
Zn181 O187 1.920 . S
Zn181 O193 1.898 . S
Zn181 O196 1.905 . S
Zn182 O190 1.905 . S
Zn182 O191 1.898 . S
Zn182 O199 1.920 . S
Zn183 O186 2.080 . S
Zn183 O189 2.114 . S
Zn183 O192 2.120 . S
Zn183 O194 2.120 . S
Zn183 O195 2.114 . S
Zn183 O198 2.080 . S
C184 O189 1.166 . S
C184 O190 1.182 . S
C185 O191 1.167 . S
C185 O192 1.299 . S
O186 Zn183 2.080 . S
O186 C200 1.305 . S
O187 Zn181 1.920 . S
O187 C200 1.234 . S
C188 O193 1.167 . S
C188 O194 1.299 . S
O189 Zn183 2.114 . S
O189 C184 1.166 . S
O190 Zn182 1.905 . S
O190 C184 1.182 . S
O191 Zn182 1.898 . S
O191 C185 1.167 . S
O192 Zn183 2.120 . S
O192 C185 1.299 . S
O193 Zn181 1.898 . S
O193 C188 1.167 . S
O194 Zn183 2.120 . S
O194 C188 1.299 . S
O195 Zn183 2.114 . S
O195 C197 1.166 . S
O196 Zn181 1.905 . S
O196 C197 1.182 . S
C197 O195 1.166 . S
C197 O196 1.182 . S
O198 Zn183 2.080 . S
O198 C201 1.305 . S
O199 Zn182 1.920 . S
O199 C201 1.234 . S
C200 O186 1.305 . S
C200 O187 1.234 . S
C201 O198 1.305 . S
C201 O199 1.234 . S
C202 C203 1.391 . S
C202 C204 1.394 . S
C202 H218 0.931 . S
C203 C202 1.391 . S
C203 C207 1.376 . S
C204 C202 1.394 . S
C204 C205 1.369 . S
C204 C208 1.531 . S
C205 C204 1.369 . S
C205 C206 1.410 . S
C205 C213 1.503 . S
C206 C205 1.410 . S
C206 C207 1.392 . S
C206 C209 1.511 . S
C207 C203 1.376 . S
C207 C206 1.392 . S
C207 H219 0.929 . S
C208 C204 1.531 . S
C208 H220 0.960 . S
C208 H221 0.962 . S
C208 H222 0.960 . S
C209 C206 1.511 . S
C209 H223 0.961 . S
C209 H224 0.961 . S
C209 H225 0.961 . S
C210 C211 1.370 . S
C210 C212 1.363 . S
C210 H226 0.931 . S
C211 C210 1.370 . S
C211 C215 1.408 . S
C212 C210 1.363 . S
C212 C213 1.370 . S
C212 C216 1.524 . S
C213 C205 1.503 . S
C213 C212 1.370 . S
C213 C214 1.403 . S
C214 C213 1.403 . S
C214 C215 1.404 . S
C214 C217 1.539 . S
C215 C211 1.408 . S
C215 C214 1.404 . S
C215 H227 0.930 . S
C216 C212 1.524 . S
C216 H228 0.956 . S
C216 H229 0.961 . S
C216 H230 0.961 . S
C217 C214 1.539 . S
C217 H231 0.958 . S
C217 H232 0.961 . S
C217 H233 0.960 . S
H218 C202 0.931 . S
H219 C207 0.929 . S
H220 C208 0.960 . S
H221 C208 0.962 . S
H222 C208 0.960 . S
H223 C209 0.961 . S
H224 C209 0.961 . S
H225 C209 0.961 . S
H226 C210 0.931 . S
H227 C215 0.930 . S
H228 C216 0.956 . S
H229 C216 0.961 . S
H230 C216 0.961 . S
H231 C217 0.958 . S
H232 C217 0.961 . S
H233 C217 0.960 . S
C234 C235 1.391 1_655 S
C234 C236 1.394 1_655 S
C234 H250 0.931 . S
C235 C234 1.391 1_455 S
C235 C239 1.376 . S
C236 C234 1.394 1_455 S
C236 C237 1.369 . S
C236 C240 1.531 1_455 S
C237 C236 1.369 . S
C237 C238 1.410 . S
C237 C245 1.503 . S
C238 C237 1.410 . S
C238 C239 1.392 . S
C238 C241 1.511 . S
C239 C235 1.376 . S
C239 C238 1.392 . S
C239 H251 0.929 . S
C240 C236 1.531 1_655 S
C240 H252 0.960 1_655 S
C240 H253 0.962 . S
C240 H254 0.960 . S
C241 C238 1.511 . S
C241 H255 0.961 . S
C241 H256 0.961 . S
C241 H257 0.961 . S
C242 C243 1.370 . S
C242 C244 1.363 1_455 S
C242 H258 0.931 1_455 S
C243 C242 1.370 . S
C243 C247 1.408 . S
C244 C242 1.363 1_655 S
C244 C245 1.370 1_655 S
C244 C248 1.524 . S
C245 C237 1.503 . S
C245 C244 1.370 1_455 S
C245 C246 1.403 . S
C246 C245 1.403 . S
C246 C247 1.404 . S
C246 C249 1.539 . S
C247 C243 1.408 . S
C247 C246 1.404 . S
C247 H259 0.930 . S
C248 C244 1.524 . S
C248 H260 0.956 . S
C248 H261 0.961 . S
C248 H262 0.961 . S
C249 C246 1.539 . S
C249 H263 0.958 . S
C249 H264 0.961 . S
C249 H265 0.960 . S
H250 C234 0.931 . S
H251 C239 0.929 . S
H252 C240 0.960 1_455 S
H253 C240 0.962 . S
H254 C240 0.960 . S
H255 C241 0.961 . S
H256 C241 0.961 . S
H257 C241 0.961 . S
H258 C242 0.931 1_655 S
H259 C247 0.930 . S
H260 C248 0.956 . S
H261 C248 0.961 . S
H262 C248 0.961 . S
H263 C249 0.958 . S
H264 C249 0.961 . S
H265 C249 0.960 . S
C266 C267 1.391 . S
C266 C268 1.394 . S
C266 H282 0.931 . S
C267 C266 1.391 . S
C267 C271 1.376 . S
C268 C266 1.394 . S
C268 C269 1.369 . S
C268 C272 1.531 . S
C269 C268 1.369 . S
C269 C270 1.410 . S
C269 C277 1.503 . S
C270 C269 1.410 . S
C270 C271 1.392 . S
C270 C273 1.511 . S
C271 C267 1.376 . S
C271 C270 1.392 . S
C271 H283 0.929 . S
C272 C268 1.531 . S
C272 H284 0.960 . S
C272 H285 0.962 . S
C272 H286 0.960 . S
C273 C270 1.511 . S
C273 H287 0.961 . S
C273 H288 0.961 . S
C273 H289 0.961 . S
C274 C275 1.370 . S
C274 C276 1.363 . S
C274 H290 0.931 . S
C275 C274 1.370 . S
C275 C279 1.408 . S
C276 C274 1.363 . S
C276 C277 1.370 . S
C276 C280 1.524 . S
C277 C269 1.503 . S
C277 C276 1.370 . S
C277 C278 1.403 . S
C278 C277 1.403 . S
C278 C279 1.404 . S
C278 C281 1.539 . S
C279 C275 1.408 . S
C279 C278 1.404 . S
C279 H291 0.930 . S
C280 C276 1.524 . S
C280 H292 0.956 . S
C280 H293 0.961 . S
C280 H294 0.961 . S
C281 C278 1.539 . S
C281 H295 0.958 . S
C281 H296 0.961 . S
C281 H297 0.960 . S
H282 C266 0.931 . S
H283 C271 0.929 . S
H284 C272 0.960 . S
H285 C272 0.962 . S
H286 C272 0.960 . S
H287 C273 0.961 . S
H288 C273 0.961 . S
H289 C273 0.961 . S
H290 C274 0.931 . S
H291 C279 0.930 . S
H292 C280 0.956 . S
H293 C280 0.961 . S
H294 C280 0.961 . S
H295 C281 0.958 . S
H296 C281 0.961 . S
H297 C281 0.960 . S
C298 C299 1.391 . S
C298 C300 1.394 . S
C298 H314 0.931 . S
C299 C298 1.391 . S
C299 C303 1.376 . S
C300 C298 1.394 . S
C300 C301 1.369 . S
C300 C304 1.531 . S
C301 C300 1.369 . S
C301 C302 1.410 . S
C301 C309 1.503 . S
C302 C301 1.410 . S
C302 C303 1.392 . S
C302 C305 1.511 . S
C303 C299 1.376 . S
C303 C302 1.392 . S
C303 H315 0.929 . S
C304 C300 1.531 . S
C304 H316 0.960 . S
C304 H317 0.962 . S
C304 H318 0.960 . S
C305 C302 1.511 . S
C305 H319 0.961 . S
C305 H320 0.961 . S
C305 H321 0.961 . S
C306 C307 1.370 . S
C306 C308 1.363 . S
C306 H322 0.931 . S
C307 C306 1.370 . S
C307 C311 1.408 . S
C308 C306 1.363 . S
C308 C309 1.370 . S
C308 C312 1.524 . S
C309 C301 1.503 . S
C309 C308 1.370 . S
C309 C310 1.403 . S
C310 C309 1.403 . S
C310 C311 1.404 . S
C310 C313 1.539 . S
C311 C307 1.408 . S
C311 C310 1.404 . S
C311 H323 0.930 . S
C312 C308 1.524 . S
C312 H324 0.956 . S
C312 H325 0.961 . S
C312 H326 0.961 . S
C313 C310 1.539 . S
C313 H327 0.958 . S
C313 H328 0.961 . S
C313 H329 0.960 . S
H314 C298 0.931 . S
H315 C303 0.929 . S
H316 C304 0.960 . S
H317 C304 0.962 . S
H318 C304 0.960 . S
H319 C305 0.961 . S
H320 C305 0.961 . S
H321 C305 0.961 . S
H322 C306 0.931 . S
H323 C311 0.930 . S
H324 C312 0.956 . S
H325 C312 0.961 . S
H326 C312 0.961 . S
H327 C313 0.958 . S
H328 C313 0.961 . S
H329 C313 0.960 . S
C330 C331 1.391 . S
C330 C332 1.394 . S
C330 H346 0.931 . S
C331 C330 1.391 . S
C331 C335 1.376 . S
C332 C330 1.394 . S
C332 C333 1.369 . S
C332 C336 1.531 . S
C333 C332 1.369 . S
C333 C334 1.410 . S
C333 C341 1.503 . S
C334 C333 1.410 . S
C334 C335 1.392 . S
C334 C337 1.511 . S
C335 C331 1.376 . S
C335 C334 1.392 . S
C335 H347 0.929 . S
C336 C332 1.531 . S
C336 H348 0.960 . S
C336 H349 0.962 . S
C336 H350 0.960 . S
C337 C334 1.511 . S
C337 H351 0.961 . S
C337 H352 0.961 . S
C337 H353 0.961 . S
C338 C339 1.370 . S
C338 C340 1.363 . S
C338 H354 0.931 . S
C339 C338 1.370 . S
C339 C343 1.408 . S
C340 C338 1.363 . S
C340 C341 1.370 . S
C340 C344 1.524 . S
C341 C333 1.503 . S
C341 C340 1.370 . S
C341 C342 1.403 . S
C342 C341 1.403 . S
C342 C343 1.404 . S
C342 C345 1.539 . S
C343 C339 1.408 . S
C343 C342 1.404 . S
C343 H355 0.930 . S
C344 C340 1.524 . S
C344 H356 0.956 . S
C344 H357 0.961 . S
C344 H358 0.961 . S
C345 C342 1.539 . S
C345 H359 0.958 . S
C345 H360 0.961 . S
C345 H361 0.960 . S
H346 C330 0.931 . S
H347 C335 0.929 . S
H348 C336 0.960 . S
H349 C336 0.962 . S
H350 C336 0.960 . S
H351 C337 0.961 . S
H352 C337 0.961 . S
H353 C337 0.961 . S
H354 C338 0.931 . S
H355 C343 0.930 . S
H356 C344 0.956 . S
H357 C344 0.961 . S
H358 C344 0.961 . S
H359 C345 0.958 . S
H360 C345 0.961 . S
H361 C345 0.960 . S
C362 C363 1.391 . S
C362 C364 1.394 . S
C362 H378 0.931 . S
C363 C362 1.391 . S
C363 C367 1.376 . S
C364 C362 1.394 . S
C364 C365 1.369 . S
C364 C368 1.531 . S
C365 C364 1.369 . S
C365 C366 1.410 . S
C365 C373 1.503 . S
C366 C365 1.410 . S
C366 C367 1.392 . S
C366 C369 1.511 . S
C367 C363 1.376 . S
C367 C366 1.392 . S
C367 H379 0.929 . S
C368 C364 1.531 . S
C368 H380 0.960 . S
C368 H381 0.962 . S
C368 H382 0.960 . S
C369 C366 1.511 . S
C369 H383 0.961 . S
C369 H384 0.961 . S
C369 H385 0.961 . S
C370 C371 1.370 . S
C370 C372 1.363 . S
C370 H386 0.931 . S
C371 C370 1.370 . S
C371 C375 1.408 . S
C372 C370 1.363 . S
C372 C373 1.370 . S
C372 C376 1.524 . S
C373 C365 1.503 . S
C373 C372 1.370 . S
C373 C374 1.403 . S
C374 C373 1.403 . S
C374 C375 1.404 . S
C374 C377 1.539 . S
C375 C371 1.408 . S
C375 C374 1.404 . S
C375 H387 0.930 . S
C376 C372 1.524 . S
C376 H388 0.956 . S
C376 H389 0.961 . S
C376 H390 0.961 . S
C377 C374 1.539 . S
C377 H391 0.958 . S
C377 H392 0.961 . S
C377 H393 0.960 . S
H378 C362 0.931 . S
H379 C367 0.929 . S
H380 C368 0.960 . S
H381 C368 0.962 . S
H382 C368 0.960 . S
H383 C369 0.961 . S
H384 C369 0.961 . S
H385 C369 0.961 . S
H386 C370 0.931 . S
H387 C375 0.930 . S
H388 C376 0.956 . S
H389 C376 0.961 . S
H390 C376 0.961 . S
H391 C377 0.958 . S
H392 C377 0.961 . S
H393 C377 0.960 . S
C394 C395 1.391 . S
C394 C396 1.394 . S
C394 H410 0.931 . S
C395 C394 1.391 . S
C395 C399 1.376 . S
C396 C394 1.394 . S
C396 C397 1.369 . S
C396 C400 1.531 . S
C397 C396 1.369 . S
C397 C398 1.410 . S
C397 C405 1.503 . S
C398 C397 1.410 . S
C398 C399 1.392 . S
C398 C401 1.511 . S
C399 C395 1.376 . S
C399 C398 1.392 . S
C399 H411 0.929 . S
C400 C396 1.531 . S
C400 H412 0.960 . S
C400 H413 0.962 . S
C400 H414 0.960 . S
C401 C398 1.511 . S
C401 H415 0.961 . S
C401 H416 0.961 . S
C401 H417 0.961 . S
C402 C403 1.370 . S
C402 C404 1.363 . S
C402 H418 0.931 . S
C403 C402 1.370 . S
C403 C407 1.408 . S
C404 C402 1.363 . S
C404 C405 1.370 . S
C404 C408 1.524 . S
C405 C397 1.503 . S
C405 C404 1.370 . S
C405 C406 1.403 . S
C406 C405 1.403 . S
C406 C407 1.404 . S
C406 C409 1.539 . S
C407 C403 1.408 . S
C407 C406 1.404 . S
C407 H419 0.930 . S
C408 C404 1.524 . S
C408 H420 0.956 . S
C408 H421 0.961 . S
C408 H422 0.961 . S
C409 C406 1.539 . S
C409 H423 0.958 . S
C409 H424 0.961 . S
C409 H425 0.960 . S
H410 C394 0.931 . S
H411 C399 0.929 . S
H412 C400 0.960 . S
H413 C400 0.962 . S
H414 C400 0.960 . S
H415 C401 0.961 . S
H416 C401 0.961 . S
H417 C401 0.961 . S
H418 C402 0.931 . S
H419 C407 0.930 . S
H420 C408 0.956 . S
H421 C408 0.961 . S
H422 C408 0.961 . S
H423 C409 0.958 . S
H424 C409 0.961 . S
H425 C409 0.960 . S
C426 C427 1.391 . S
C426 C428 1.394 . S
C426 H442 0.931 . S
C427 C426 1.391 . S
C427 C431 1.376 . S
C428 C426 1.394 . S
C428 C429 1.369 . S
C428 C432 1.531 . S
C429 C428 1.369 . S
C429 C430 1.410 . S
C429 C437 1.503 . S
C430 C429 1.410 . S
C430 C431 1.392 . S
C430 C433 1.511 . S
C431 C427 1.376 . S
C431 C430 1.392 . S
C431 H443 0.929 . S
C432 C428 1.531 . S
C432 H444 0.960 . S
C432 H445 0.962 . S
C432 H446 0.960 . S
C433 C430 1.511 . S
C433 H447 0.961 . S
C433 H448 0.961 . S
C433 H449 0.961 . S
C434 C435 1.370 . S
C434 C436 1.363 . S
C434 H450 0.931 . S
C435 C434 1.370 . S
C435 C439 1.408 . S
C436 C434 1.363 . S
C436 C437 1.370 . S
C436 C440 1.524 . S
C437 C429 1.503 . S
C437 C436 1.370 . S
C437 C438 1.403 . S
C438 C437 1.403 . S
C438 C439 1.404 . S
C438 C441 1.539 . S
C439 C435 1.408 . S
C439 C438 1.404 . S
C439 H451 0.930 . S
C440 C436 1.524 . S
C440 H452 0.956 . S
C440 H453 0.961 . S
C440 H454 0.961 . S
C441 C438 1.539 . S
C441 H455 0.958 . S
C441 H456 0.961 . S
C441 H457 0.960 . S
H442 C426 0.931 . S
H443 C431 0.929 . S
H444 C432 0.960 . S
H445 C432 0.962 . S
H446 C432 0.960 . S
H447 C433 0.961 . S
H448 C433 0.961 . S
H449 C433 0.961 . S
H450 C434 0.931 . S
H451 C439 0.930 . S
H452 C440 0.956 . S
H453 C440 0.961 . S
H454 C440 0.961 . S
H455 C441 0.958 . S
H456 C441 0.961 . S
H457 C441 0.960 . S
C458 C459 1.391 . S
C458 C460 1.394 . S
C458 H474 0.931 . S
C459 C458 1.391 . S
C459 C463 1.376 . S
C460 C458 1.394 . S
C460 C461 1.369 . S
C460 C464 1.531 . S
C461 C460 1.369 . S
C461 C462 1.410 . S
C461 C469 1.503 . S
C462 C461 1.410 . S
C462 C463 1.392 . S
C462 C465 1.511 . S
C463 C459 1.376 . S
C463 C462 1.392 . S
C463 H475 0.929 . S
C464 C460 1.531 . S
C464 H476 0.960 . S
C464 H477 0.962 . S
C464 H478 0.960 . S
C465 C462 1.511 . S
C465 H479 0.961 . S
C465 H480 0.961 . S
C465 H481 0.961 . S
C466 C467 1.370 . S
C466 C468 1.363 . S
C466 H482 0.931 . S
C467 C466 1.370 . S
C467 C471 1.408 1_655 S
C468 C466 1.363 . S
C468 C469 1.370 . S
C468 C472 1.524 . S
C469 C461 1.503 . S
C469 C468 1.370 . S
C469 C470 1.403 . S
C470 C469 1.403 . S
C470 C471 1.404 1_655 S
C470 C473 1.539 1_655 S
C471 C467 1.408 1_455 S
C471 C470 1.404 1_455 S
C471 H483 0.930 . S
C472 C468 1.524 . S
C472 H484 0.956 . S
C472 H485 0.961 . S
C472 H486 0.961 . S
C473 C470 1.539 1_455 S
C473 H487 0.958 . S
C473 H488 0.961 . S
C473 H489 0.960 1_455 S
H474 C458 0.931 . S
H475 C463 0.929 . S
H476 C464 0.960 . S
H477 C464 0.962 . S
H478 C464 0.960 . S
H479 C465 0.961 . S
H480 C465 0.961 . S
H481 C465 0.961 . S
H482 C466 0.931 . S
H483 C471 0.930 . S
H484 C472 0.956 . S
H485 C472 0.961 . S
H486 C472 0.961 . S
H487 C473 0.958 . S
H488 C473 0.961 . S
H489 C473 0.960 1_655 S
C490 C491 1.391 . S
C490 C492 1.394 . S
C490 H506 0.931 . S
C491 C490 1.391 . S
C491 C495 1.376 . S
C492 C490 1.394 . S
C492 C493 1.369 . S
C492 C496 1.531 . S
C493 C492 1.369 . S
C493 C494 1.410 . S
C493 C501 1.503 . S
C494 C493 1.410 . S
C494 C495 1.392 . S
C494 C497 1.511 . S
C495 C491 1.376 . S
C495 C494 1.392 . S
C495 H507 0.929 . S
C496 C492 1.531 . S
C496 H508 0.960 . S
C496 H509 0.962 . S
C496 H510 0.960 . S
C497 C494 1.511 . S
C497 H511 0.961 . S
C497 H512 0.961 . S
C497 H513 0.961 . S
C498 C499 1.370 . S
C498 C500 1.363 . S
C498 H514 0.931 . S
C499 C498 1.370 . S
C499 C503 1.408 . S
C500 C498 1.363 . S
C500 C501 1.370 . S
C500 C504 1.524 . S
C501 C493 1.503 . S
C501 C500 1.370 . S
C501 C502 1.403 . S
C502 C501 1.403 . S
C502 C503 1.404 . S
C502 C505 1.539 . S
C503 C499 1.408 . S
C503 C502 1.404 . S
C503 H515 0.930 . S
C504 C500 1.524 . S
C504 H516 0.956 . S
C504 H517 0.961 . S
C504 H518 0.961 . S
C505 C502 1.539 . S
C505 H519 0.958 . S
C505 H520 0.961 . S
C505 H521 0.960 . S
H506 C490 0.931 . S
H507 C495 0.929 . S
H508 C496 0.960 . S
H509 C496 0.962 . S
H510 C496 0.960 . S
H511 C497 0.961 . S
H512 C497 0.961 . S
H513 C497 0.961 . S
H514 C498 0.931 . S
H515 C503 0.930 . S
H516 C504 0.956 . S
H517 C504 0.961 . S
H518 C504 0.961 . S
H519 C505 0.958 . S
H520 C505 0.961 . S
H521 C505 0.960 . S
C522 C523 1.391 . S
C522 C524 1.394 . S
C522 H538 0.931 . S
C523 C522 1.391 . S
C523 C527 1.376 . S
C524 C522 1.394 . S
C524 C525 1.369 . S
C524 C528 1.531 . S
C525 C524 1.369 . S
C525 C526 1.410 . S
C525 C533 1.503 . S
C526 C525 1.410 . S
C526 C527 1.392 . S
C526 C529 1.511 . S
C527 C523 1.376 . S
C527 C526 1.392 . S
C527 H539 0.929 . S
C528 C524 1.531 . S
C528 H540 0.960 . S
C528 H541 0.962 . S
C528 H542 0.960 . S
C529 C526 1.511 . S
C529 H543 0.961 . S
C529 H544 0.961 . S
C529 H545 0.961 . S
C530 C531 1.370 . S
C530 C532 1.363 . S
C530 H546 0.931 . S
C531 C530 1.370 . S
C531 C535 1.408 . S
C532 C530 1.363 . S
C532 C533 1.370 . S
C532 C536 1.524 . S
C533 C525 1.503 . S
C533 C532 1.370 . S
C533 C534 1.403 . S
C534 C533 1.403 . S
C534 C535 1.404 . S
C534 C537 1.539 . S
C535 C531 1.408 . S
C535 C534 1.404 . S
C535 H547 0.930 . S
C536 C532 1.524 . S
C536 H548 0.956 . S
C536 H549 0.961 . S
C536 H550 0.961 . S
C537 C534 1.539 . S
C537 H551 0.958 . S
C537 H552 0.961 . S
C537 H553 0.960 . S
H538 C522 0.931 . S
H539 C527 0.929 . S
H540 C528 0.960 . S
H541 C528 0.962 . S
H542 C528 0.960 . S
H543 C529 0.961 . S
H544 C529 0.961 . S
H545 C529 0.961 . S
H546 C530 0.931 . S
H547 C535 0.930 . S
H548 C536 0.956 . S
H549 C536 0.961 . S
H550 C536 0.961 . S
H551 C537 0.958 . S
H552 C537 0.961 . S
H553 C537 0.960 . S
C554 C555 1.391 . S
C554 C556 1.394 . S
C554 H570 0.931 . S
C555 C554 1.391 . S
C555 C559 1.376 . S
C556 C554 1.394 . S
C556 C557 1.369 . S
C556 C560 1.531 . S
C557 C556 1.369 . S
C557 C558 1.410 . S
C557 C565 1.503 . S
C558 C557 1.410 . S
C558 C559 1.392 . S
C558 C561 1.511 . S
C559 C555 1.376 . S
C559 C558 1.392 . S
C559 H571 0.929 . S
C560 C556 1.531 . S
C560 H572 0.960 . S
C560 H573 0.962 . S
C560 H574 0.960 . S
C561 C558 1.511 . S
C561 H575 0.961 . S
C561 H576 0.961 . S
C561 H577 0.961 . S
C562 C563 1.370 . S
C562 C564 1.363 . S
C562 H578 0.931 . S
C563 C562 1.370 . S
C563 C567 1.408 . S
C564 C562 1.363 . S
C564 C565 1.370 . S
C564 C568 1.524 . S
C565 C557 1.503 . S
C565 C564 1.370 . S
C565 C566 1.403 . S
C566 C565 1.403 . S
C566 C567 1.404 . S
C566 C569 1.539 . S
C567 C563 1.408 . S
C567 C566 1.404 . S
C567 H579 0.930 . S
C568 C564 1.524 . S
C568 H580 0.956 . S
C568 H581 0.961 . S
C568 H582 0.961 . S
C569 C566 1.539 . S
C569 H583 0.958 . S
C569 H584 0.961 . S
C569 H585 0.960 . S
H570 C554 0.931 . S
H571 C559 0.929 . S
H572 C560 0.960 . S
H573 C560 0.962 . S
H574 C560 0.960 . S
H575 C561 0.961 . S
H576 C561 0.961 . S
H577 C561 0.961 . S
H578 C562 0.931 . S
H579 C567 0.930 . S
H580 C568 0.956 . S
H581 C568 0.961 . S
H582 C568 0.961 . S
H583 C569 0.958 . S
H584 C569 0.961 . S
H585 C569 0.960 . S
C211 C167 1.457 . S
C203 C15 1.529 . S
C243 C163 1.463 . S
C235 C55 1.524 1_455 S
C275 C188 1.462 . S
C267 C95 1.528 . S
C299 C135 1.529 . S
C307 C184 1.452 . S
C331 C21 1.143 . S
C339 C185 1.103 . S
C371 C200 1.090 . S
C363 C42 1.249 . S
C395 C2 1.695 . S
C403 C201 1.585 . S
C435 C197 1.606 . S
C427 C61 1.754 . S
C467 C164 1.046 1_655 S
C459 C101 1.230 . S
C491 C122 1.263 . S
C499 C179 1.077 . S
C531 C180 1.578 . S
C523 C82 1.677 . S
C563 C176 1.588 . S
C555 C141 1.744 . S
