# Generated by pormake.
# Topology gar, (4,6)-cn, num edge types: 1
# Building blocks:
#     Node 0, Type 0, BuildingBlock: QUQFOY_clean_sbu_3, # of connection points: 4
#     Node 1, Type 0, BuildingBlock: QUQFOY_clean_sbu_3, # of connection points: 4
#     Node 2, Type 0, BuildingBlock: QUQFOY_clean_sbu_3, # of connection points: 4
#     Node 3, Type 0, BuildingBlock: QUQFOY_clean_sbu_3, # of connection points: 4
#     Node 4, Type 0, BuildingBlock: QUQFOY_clean_sbu_3, # of connection points: 4
#     Node 5, Type 0, BuildingBlock: QUQFOY_clean_sbu_3, # of connection points: 4
#     Node 6, Type 0, BuildingBlock: QUQFOY_clean_sbu_3, # of connection points: 4
#     Node 7, Type 0, BuildingBlock: QUQFOY_clean_sbu_3, # of connection points: 4
#     Node 8, Type 0, BuildingBlock: QUQFOY_clean_sbu_3, # of connection points: 4
#     Node 9, Type 0, BuildingBlock: QUQFOY_clean_sbu_3, # of connection points: 4
#     Node 10, Type 0, BuildingBlock: QUQFOY_clean_sbu_3, # of connection points: 4
#     Node 11, Type 0, BuildingBlock: QUQFOY_clean_sbu_3, # of connection points: 4
#     Node 12, Type 0, BuildingBlock: QUQFOY_clean_sbu_3, # of connection points: 4
#     Node 13, Type 0, BuildingBlock: QUQFOY_clean_sbu_3, # of connection points: 4
#     Node 14, Type 0, BuildingBlock: QUQFOY_clean_sbu_3, # of connection points: 4
#     Node 15, Type 0, BuildingBlock: QUQFOY_clean_sbu_3, # of connection points: 4
#     Node 16, Type 0, BuildingBlock: QUQFOY_clean_sbu_3, # of connection points: 4
#     Node 17, Type 0, BuildingBlock: QUQFOY_clean_sbu_3, # of connection points: 4
#     Node 18, Type 0, BuildingBlock: QUQFOY_clean_sbu_3, # of connection points: 4
#     Node 19, Type 0, BuildingBlock: QUQFOY_clean_sbu_3, # of connection points: 4
#     Node 20, Type 0, BuildingBlock: QUQFOY_clean_sbu_3, # of connection points: 4
#     Node 21, Type 0, BuildingBlock: QUQFOY_clean_sbu_3, # of connection points: 4
#     Node 22, Type 0, BuildingBlock: QUQFOY_clean_sbu_3, # of connection points: 4
#     Node 23, Type 0, BuildingBlock: QUQFOY_clean_sbu_3, # of connection points: 4
#     Node 24, Type 1, BuildingBlock: BETDEL_clean_sbu_0, # of connection points: 6
#     Node 25, Type 1, BuildingBlock: BETDEL_clean_sbu_0, # of connection points: 6
#     Node 26, Type 1, BuildingBlock: BETDEL_clean_sbu_0, # of connection points: 6
#     Node 27, Type 1, BuildingBlock: BETDEL_clean_sbu_0, # of connection points: 6
#     Node 28, Type 1, BuildingBlock: BETDEL_clean_sbu_0, # of connection points: 6
#     Node 29, Type 1, BuildingBlock: BETDEL_clean_sbu_0, # of connection points: 6
#     Node 30, Type 1, BuildingBlock: BETDEL_clean_sbu_0, # of connection points: 6
#     Node 31, Type 1, BuildingBlock: BETDEL_clean_sbu_0, # of connection points: 6
#     Node 32, Type 1, BuildingBlock: BETDEL_clean_sbu_0, # of connection points: 6
#     Node 33, Type 1, BuildingBlock: BETDEL_clean_sbu_0, # of connection points: 6
#     Node 34, Type 1, BuildingBlock: BETDEL_clean_sbu_0, # of connection points: 6
#     Node 35, Type 1, BuildingBlock: BETDEL_clean_sbu_0, # of connection points: 6
#     Node 36, Type 1, BuildingBlock: BETDEL_clean_sbu_0, # of connection points: 6
#     Node 37, Type 1, BuildingBlock: BETDEL_clean_sbu_0, # of connection points: 6
#     Node 38, Type 1, BuildingBlock: BETDEL_clean_sbu_0, # of connection points: 6
#     Node 39, Type 1, BuildingBlock: BETDEL_clean_sbu_0, # of connection points: 6
#     Edge 40, Type (0, 1), None
#     Edge 41, Type (0, 1), None
#     Edge 42, Type (0, 1), None
#     Edge 43, Type (0, 1), None
#     Edge 44, Type (0, 1), None
#     Edge 45, Type (0, 1), None
#     Edge 46, Type (0, 1), None
#     Edge 47, Type (0, 1), None
#     Edge 48, Type (0, 1), None
#     Edge 49, Type (0, 1), None
#     Edge 50, Type (0, 1), None
#     Edge 51, Type (0, 1), None
#     Edge 52, Type (0, 1), None
#     Edge 53, Type (0, 1), None
#     Edge 54, Type (0, 1), None
#     Edge 55, Type (0, 1), None
#     Edge 56, Type (0, 1), None
#     Edge 57, Type (0, 1), None
#     Edge 58, Type (0, 1), None
#     Edge 59, Type (0, 1), None
#     Edge 60, Type (0, 1), None
#     Edge 61, Type (0, 1), None
#     Edge 62, Type (0, 1), None
#     Edge 63, Type (0, 1), None
#     Edge 64, Type (0, 1), None
#     Edge 65, Type (0, 1), None
#     Edge 66, Type (0, 1), None
#     Edge 67, Type (0, 1), None
#     Edge 68, Type (0, 1), None
#     Edge 69, Type (0, 1), None
#     Edge 70, Type (0, 1), None
#     Edge 71, Type (0, 1), None
#     Edge 72, Type (0, 1), None
#     Edge 73, Type (0, 1), None
#     Edge 74, Type (0, 1), None
#     Edge 75, Type (0, 1), None
#     Edge 76, Type (0, 1), None
#     Edge 77, Type (0, 1), None
#     Edge 78, Type (0, 1), None
#     Edge 79, Type (0, 1), None
#     Edge 80, Type (0, 1), None
#     Edge 81, Type (0, 1), None
#     Edge 82, Type (0, 1), None
#     Edge 83, Type (0, 1), None
#     Edge 84, Type (0, 1), None
#     Edge 85, Type (0, 1), None
#     Edge 86, Type (0, 1), None
#     Edge 87, Type (0, 1), None
#     Edge 88, Type (0, 1), None
#     Edge 89, Type (0, 1), None
#     Edge 90, Type (0, 1), None
#     Edge 91, Type (0, 1), None
#     Edge 92, Type (0, 1), None
#     Edge 93, Type (0, 1), None
#     Edge 94, Type (0, 1), None
#     Edge 95, Type (0, 1), None
#     Edge 96, Type (0, 1), None
#     Edge 97, Type (0, 1), None
#     Edge 98, Type (0, 1), None
#     Edge 99, Type (0, 1), None
#     Edge 100, Type (0, 1), None
#     Edge 101, Type (0, 1), None
#     Edge 102, Type (0, 1), None
#     Edge 103, Type (0, 1), None
#     Edge 104, Type (0, 1), None
#     Edge 105, Type (0, 1), None
#     Edge 106, Type (0, 1), None
#     Edge 107, Type (0, 1), None
#     Edge 108, Type (0, 1), None
#     Edge 109, Type (0, 1), None
#     Edge 110, Type (0, 1), None
#     Edge 111, Type (0, 1), None
#     Edge 112, Type (0, 1), None
#     Edge 113, Type (0, 1), None
#     Edge 114, Type (0, 1), None
#     Edge 115, Type (0, 1), None
#     Edge 116, Type (0, 1), None
#     Edge 117, Type (0, 1), None
#     Edge 118, Type (0, 1), None
#     Edge 119, Type (0, 1), None
#     Edge 120, Type (0, 1), None
#     Edge 121, Type (0, 1), None
#     Edge 122, Type (0, 1), None
#     Edge 123, Type (0, 1), None
#     Edge 124, Type (0, 1), None
#     Edge 125, Type (0, 1), None
#     Edge 126, Type (0, 1), None
#     Edge 127, Type (0, 1), None
#     Edge 128, Type (0, 1), None
#     Edge 129, Type (0, 1), None
#     Edge 130, Type (0, 1), None
#     Edge 131, Type (0, 1), None
#     Edge 132, Type (0, 1), None
#     Edge 133, Type (0, 1), None
#     Edge 134, Type (0, 1), None
#     Edge 135, Type (0, 1), None
# Relax obj value: 0.172
# Max RMSD: 0.317
# Mean RMSD: 0.153
data_MOF--net-gar--node1-QUQFOY_clean_sbu_3--node2-BETDEL_clean_sbu_0--edge1-none
_symmetry_space_group_name_H-M    P1
_symmetry_Int_Tables_number       1
_symmetry_cell_setting            triclinic
loop_
_symmetry_equiv_pos_as_xyz
'x, y, z'
_cell_length_a     27.067352
_cell_length_b     25.045369
_cell_length_c     26.336559
_cell_angle_alpha  96.402868
_cell_angle_beta   90.952884
_cell_angle_gamma 100.87711
loop_
_atom_site_label
_atom_site_type_symbol
_atom_site_fract_x
_atom_site_fract_y
_atom_site_fract_z
_atom_type_partial_charge
C0 C 0.96956 0.33235 0.33846 0.0
O1 O 0.00475 0.35782 0.31399 0.0
Cd2 Cd 0.09071 0.36461 0.33613 0.0
O3 O 0.97852 0.30359 0.37362 0.0
Cd4 Cd 0.05163 0.27742 0.41953 0.0
C5 C 0.0694 0.41242 0.46034 0.0
O6 O 0.09399 0.26944 0.3387 0.0
O7 O 0.13909 0.26051 0.40343 0.0
O8 O -0.00071 0.18889 0.43229 0.0
C9 C 0.13413 0.25757 0.35519 0.0
O10 O 0.08111 0.42142 0.41516 0.0
C11 C 0.01624 0.1876 0.47743 0.0
O12 O 0.06054 0.36426 0.47315 0.0
O13 O 0.04877 0.22866 0.49636 0.0
C14 C 0.91133 0.774 0.70064 0.0
O15 O 0.92682 0.73128 0.71013 0.0
Cd16 Cd 0.99036 0.68456 0.68252 0.0
O17 O 0.93127 0.80163 0.66562 0.0
Cd18 Cd 0.00519 0.7824 0.60857 0.0
C19 C 0.96922 0.65773 0.55047 0.0
O20 O 0.05681 0.75624 0.67664 0.0
O21 O 0.08441 0.74273 0.60131 0.0
O22 O 0.04832 0.87572 0.59971 0.0
C23 C 0.08925 0.73914 0.64864 0.0
O24 O 0.97819 0.64479 0.59453 0.0
C25 C 0.0348 0.87505 0.55313 0.0
O26 O 0.9675 0.7068 0.54415 0.0
O27 O 0.00708 0.83148 0.53209 0.0
C28 C 0.46957 0.83235 0.83846 0.0
O29 O 0.50475 0.85782 0.81399 0.0
Cd30 Cd 0.59071 0.86461 0.83613 0.0
O31 O 0.47852 0.80359 0.87362 0.0
Cd32 Cd 0.55163 0.77742 0.91953 0.0
C33 C 0.5694 0.91242 0.96034 0.0
O34 O 0.59399 0.76944 0.8387 0.0
O35 O 0.63909 0.76051 0.90343 0.0
O36 O 0.49929 0.68889 0.93229 0.0
C37 C 0.63413 0.75757 0.85519 0.0
O38 O 0.58111 0.92142 0.91516 0.0
C39 C 0.51624 0.6876 0.97743 0.0
O40 O 0.56054 0.86426 0.97315 0.0
O41 O 0.54877 0.72866 -0.00364 0.0
C42 C 0.41133 0.274 0.20064 0.0
O43 O 0.42683 0.23129 0.21013 0.0
Cd44 Cd 0.49036 0.18456 0.18252 0.0
O45 O 0.43127 0.30163 0.16562 0.0
Cd46 Cd 0.50519 0.28241 0.10857 0.0
C47 C 0.46922 0.15773 0.05047 0.0
O48 O 0.55681 0.25625 0.17664 0.0
O49 O 0.58441 0.24273 0.10131 0.0
O50 O 0.54832 0.37573 0.09971 0.0
C51 C 0.58925 0.23915 0.14864 0.0
O52 O 0.47819 0.14479 0.09453 0.0
C53 C 0.5348 0.37505 0.05313 0.0
O54 O 0.4675 0.2068 0.04415 0.0
O55 O 0.50708 0.33148 0.03209 0.0
C56 C 0.97838 0.7438 0.22506 0.0
O57 O 0.00348 0.71239 0.24412 0.0
Cd58 Cd 0.08711 0.71082 0.21697 0.0
O59 O -0.00513 0.77073 0.18855 0.0
Cd60 Cd 0.06539 0.78835 0.13045 0.0
C61 C 0.06771 0.6558 0.08879 0.0
O62 O 0.11411 0.80623 0.21158 0.0
O63 O 0.15933 0.81446 0.14664 0.0
O64 O 0.00644 0.84595 0.10285 0.0
C65 C 0.15776 0.81701 0.19491 0.0
O66 O 0.08242 0.65221 0.1341 0.0
C67 C 0.03621 0.86906 0.07184 0.0
O68 O 0.05502 0.69944 0.07736 0.0
O69 O 0.0794 0.85638 0.06956 0.0
C70 C 0.39503 0.7206 0.25504 0.0
O71 O 0.42747 0.7542 0.23483 0.0
Cd72 Cd 0.50403 0.79643 0.27629 0.0
O73 O 0.40381 0.7077 0.29965 0.0
Cd74 Cd 0.4848 0.72772 0.35782 0.0
C75 C 0.48081 0.85355 0.39828 0.0
O76 O 0.54267 0.72076 0.28819 0.0
O77 O 0.5681 0.78476 0.34997 0.0
O78 O 0.46789 0.63686 0.38785 0.0
C79 C 0.57797 0.75687 0.30968 0.0
O80 O 0.49834 0.86002 0.35431 0.0
C81 C 0.49873 0.64831 0.42618 0.0
O82 O 0.46567 0.80594 0.41081 0.0
O83 O 0.52292 0.69698 0.43397 0.0
C84 C 0.47838 0.2438 0.72506 0.0
O85 O 0.50348 0.21239 0.74412 0.0
Cd86 Cd 0.58711 0.21082 0.71697 0.0
O87 O 0.49487 0.27073 0.68855 0.0
Cd88 Cd 0.56539 0.28835 0.63045 0.0
C89 C 0.56771 0.1558 0.58879 0.0
O90 O 0.61411 0.30624 0.71158 0.0
O91 O 0.65933 0.31446 0.64663 0.0
O92 O 0.50644 0.34595 0.60285 0.0
C93 C 0.65776 0.31701 0.69491 0.0
O94 O 0.58242 0.15221 0.6341 0.0
C95 C 0.5362 0.36906 0.57184 0.0
O96 O 0.55502 0.19944 0.57736 0.0
O97 O 0.5794 0.35638 0.56955 0.0
C98 C 0.89503 0.2206 0.75504 0.0
O99 O 0.92747 0.2542 0.73483 0.0
Cd100 Cd 0.00403 0.29643 0.77629 0.0
O101 O 0.90381 0.2077 0.79965 0.0
Cd102 Cd 0.9848 0.22772 0.85782 0.0
C103 C 0.98082 0.35355 0.89828 0.0
O104 O 0.04267 0.22076 0.78819 0.0
O105 O 0.0681 0.28476 0.84997 0.0
O106 O 0.9679 0.13686 0.88785 0.0
C107 C 0.07797 0.25687 0.80968 0.0
O108 O -0.00166 0.36002 0.85431 0.0
C109 C -0.00127 0.14831 0.92618 0.0
O110 O 0.96567 0.30594 0.91081 0.0
O111 O 0.02292 0.19698 0.93397 0.0
C112 C 0.52155 0.03174 0.36614 0.0
O113 O 0.53869 0.00451 0.32928 0.0
Cd114 Cd 0.49881 0.97855 0.24655 0.0
O115 O 0.47761 0.04283 0.36315 0.0
Cd116 Cd 0.41436 0.02818 0.29252 0.0
C117 C 0.38182 0.9025 0.26357 0.0
O118 O 0.47804 0.06319 0.23463 0.0
O119 O 0.412 0.00728 0.20148 0.0
O120 O 0.37926 0.10581 0.32018 0.0
C121 C 0.45334 0.03846 0.19526 0.0
O122 O 0.41899 0.90958 0.23444 0.0
C123 C 0.33569 0.0863 0.29997 0.0
O124 O 0.37976 0.93594 0.30287 0.0
O125 O 0.32705 0.0373 0.27939 0.0
C126 C 0.33286 0.06739 0.50039 0.0
O127 O 0.29717 0.04044 0.52299 0.0
Cd128 Cd 0.21701 0.05985 0.53799 0.0
O129 O 0.3289 0.11222 0.48276 0.0
Cd130 Cd 0.25934 0.16846 0.47914 0.0
C131 C 0.25442 0.1851 0.6105 0.0
O132 O 0.19766 0.08391 0.45715 0.0
O133 O 0.16501 0.15071 0.48909 0.0
O134 O 0.28 0.19623 0.39243 0.0
C135 C 0.15841 0.10099 0.46982 0.0
O136 O 0.22961 0.13621 0.60654 0.0
C137 C 0.28155 0.24731 0.40191 0.0
O138 O 0.27372 0.20618 0.5716 0.0
O139 O 0.27262 0.26351 0.44769 0.0
C140 C 0.05751 -0.00344 0.87774 0.0
O141 O 0.04977 0.04167 0.86462 0.0
Cd142 Cd 0.08463 0.09433 0.79892 0.0
O143 O 0.09393 0.97523 0.85949 0.0
Cd144 Cd 0.15919 0.00262 0.79147 0.0
C145 C 0.21483 0.13548 0.81281 0.0
O146 O 0.0919 0.02232 0.73771 0.0
O147 O 0.16458 0.0352 0.70469 0.0
O148 O 0.16876 0.91099 0.75543 0.0
C149 C 0.11845 0.03804 0.70142 0.0
O150 O 0.17126 0.14513 0.8037 0.0
C151 C 0.21404 0.91424 0.77101 0.0
O152 O 0.22083 0.08764 0.82004 0.0
O153 O 0.23457 0.95839 0.79766 0.0
C154 C 0.36496 0.95864 0.97171 0.0
O155 O 0.34654 0.92748 0.93214 0.0
Cd156 Cd 0.25743 0.89676 0.96063 0.0
O157 O 0.3364 0.96437 0.00802 0.0
Cd158 Cd 0.26246 0.90179 0.97437 0.0
C159 C 0.24004 0.81081 0.87931 0.0
O160 O 0.20545 0.9632 0.95219 0.0
O161 O 0.22361 0.96845 0.03246 0.0
O162 O 0.30679 0.84727 0.02152 0.0
C163 C 0.20181 0.98651 -0.0031 0.0
O164 O 0.21112 0.8078 0.91629 0.0
C165 C 0.26779 0.8177 0.03645 0.0
O166 O 0.27442 0.8531 0.88183 0.0
O167 O 0.22493 0.82655 0.02261 0.0
C168 C 0.39037 0.47944 0.0418 0.0
O169 O 0.36679 0.50288 0.01176 0.0
Cd170 Cd 0.28499 0.47243 0.97523 0.0
O171 O 0.37029 0.43357 0.05768 0.0
Cd172 Cd 0.28402 0.36439 0.05071 0.0
C173 C 0.2954 0.34227 0.91764 0.0
O174 O 0.24281 0.44152 0.04625 0.0
O175 O 0.19323 0.36364 0.03046 0.0
O176 O 0.27187 0.34351 0.14289 0.0
C177 C 0.19903 0.41532 0.03445 0.0
O178 O 0.29074 0.39171 0.91587 0.0
C179 C 0.26485 0.29159 0.13412 0.0
O180 O 0.29495 0.32173 0.96019 0.0
O181 O 0.26959 0.27298 0.08788 0.0
C182 C 0.82678 0.04296 0.02476 0.0
O183 O 0.79759 0.02535 0.05876 0.0
Cd184 Cd 0.73897 0.08322 0.08432 0.0
O185 O 0.82508 0.08887 0.00899 0.0
Cd186 Cd 0.76972 0.15724 0.0168 0.0
C187 C 0.79618 0.2179 0.12742 0.0
O188 O 0.69691 0.08707 0.00574 0.0
O189 O 0.68429 0.16148 0.04846 0.0
O190 O 0.78156 0.15913 0.92746 0.0
C191 C 0.66646 0.11685 0.02113 0.0
O192 O 0.76478 0.17509 0.13479 0.0
C193 C 0.7692 0.20521 0.92588 0.0
O194 O 0.81616 0.22104 0.08457 0.0
O195 O 0.76091 0.23175 0.9676 0.0
C196 C 0.03886 0.54531 0.28745 0.0
O197 O 0.00898 0.56294 0.25881 0.0
Cd198 Cd 0.03775 0.56248 0.17762 0.0
O199 O 0.07483 0.52329 0.26999 0.0
Cd200 Cd 0.11442 0.49245 0.19157 0.0
C201 C 0.16234 0.60981 0.19194 0.0
O202 O 0.02826 0.46562 0.16111 0.0
O203 O 0.08255 0.44431 0.10871 0.0
O204 O 0.14289 0.41228 0.21079 0.0
C205 C 0.03676 0.44662 0.11652 0.0
O206 O 0.12081 0.61224 0.21254 0.0
C207 C 0.18714 0.43628 0.22603 0.0
O208 O 0.16528 0.57029 0.15868 0.0
O209 O 0.19834 0.48757 0.22599 0.0
C210 C 0.89037 0.97944 0.5418 0.0
O211 O 0.86679 0.00288 0.51176 0.0
Cd212 Cd 0.78499 0.97243 0.47523 0.0
O213 O 0.87029 0.93357 0.55768 0.0
Cd214 Cd 0.78402 0.86439 0.55071 0.0
C215 C 0.7954 0.84227 0.41764 0.0
O216 O 0.74281 0.94152 0.54625 0.0
O217 O 0.69323 0.86364 0.53046 0.0
O218 O 0.77187 0.84351 0.64289 0.0
C219 C 0.69903 0.91532 0.53445 0.0
O220 O 0.79074 0.89171 0.41587 0.0
C221 C 0.76485 0.79159 0.63412 0.0
O222 O 0.79495 0.82173 0.46019 0.0
O223 O 0.76959 0.77298 0.58788 0.0
C224 C 0.95715 0.98532 0.31004 0.0
O225 O 0.98056 0.95842 0.27834 0.0
Cd226 Cd 0.95886 0.94526 0.19156 0.0
O227 O 0.92384 0.01113 0.29546 0.0
Cd228 Cd 0.88511 0.02914 0.21202 0.0
C229 C 0.83405 0.89401 0.21147 0.0
O230 O 0.97106 0.04143 0.17845 0.0
O231 O 0.91363 0.03586 0.12086 0.0
O232 O 0.8735 0.11885 0.25415 0.0
C233 C 0.96041 0.04682 0.13279 0.0
O234 O 0.87827 0.88506 0.20496 0.0
C235 C 0.82925 0.11723 0.23616 0.0
O236 O 0.82503 0.94193 0.21129 0.0
O237 O 0.8107 0.07548 0.20514 0.0
C238 C 0.32678 0.54295 0.52476 0.0
O239 O 0.29759 0.52535 0.55876 0.0
Cd240 Cd 0.23897 0.58322 0.58432 0.0
O241 O 0.32508 0.58887 0.50899 0.0
Cd242 Cd 0.26972 0.65724 0.5168 0.0
C243 C 0.29618 0.7179 0.62742 0.0
O244 O 0.1969 0.58707 0.50574 0.0
O245 O 0.18429 0.66148 0.54846 0.0
O246 O 0.28156 0.65913 0.42746 0.0
C247 C 0.16646 0.61685 0.52112 0.0
O248 O 0.26478 0.67509 0.63479 0.0
C249 C 0.2692 0.70521 0.42588 0.0
O250 O 0.31616 0.72103 0.58457 0.0
O251 O 0.26091 0.73174 0.4676 0.0
C252 C 0.45715 0.48533 0.81004 0.0
O253 O 0.48056 0.45842 0.77834 0.0
Cd254 Cd 0.45886 0.44527 0.69156 0.0
O255 O 0.42384 0.51113 0.79546 0.0
Cd256 Cd 0.38511 0.52914 0.71202 0.0
C257 C 0.33406 0.39401 0.71147 0.0
O258 O 0.47105 0.54143 0.67844 0.0
O259 O 0.41363 0.53586 0.62086 0.0
O260 O 0.3735 0.61885 0.75415 0.0
C261 C 0.46041 0.54682 0.63279 0.0
O262 O 0.37827 0.38506 0.70496 0.0
C263 C 0.32924 0.61723 0.73616 0.0
O264 O 0.32503 0.44193 0.71129 0.0
O265 O 0.3107 0.57548 0.70514 0.0
C266 C 0.53886 0.04531 0.78745 0.0
O267 O 0.50898 0.06295 0.75881 0.0
Cd268 Cd 0.53775 0.06248 0.67762 0.0
O269 O 0.57484 0.02329 0.76999 0.0
Cd270 Cd 0.61442 0.99245 0.69157 0.0
C271 C 0.66234 0.10981 0.69194 0.0
O272 O 0.52826 0.96562 0.66111 0.0
O273 O 0.58255 0.94431 0.60871 0.0
O274 O 0.64289 0.91228 0.71079 0.0
C275 C 0.53676 0.94662 0.61652 0.0
O276 O 0.62081 0.11224 0.71254 0.0
C277 C 0.68714 0.93628 0.72603 0.0
O278 O 0.66528 0.07029 0.65868 0.0
O279 O 0.69834 0.98757 0.72599 0.0
C280 C 0.83286 0.56739 0.00039 0.0
O281 O 0.79717 0.54044 0.02299 0.0
Cd282 Cd 0.71701 0.55985 0.03799 0.0
O283 O 0.8289 0.61222 0.98276 0.0
Cd284 Cd 0.75934 0.66846 0.97914 0.0
C285 C 0.75442 0.6851 0.1105 0.0
O286 O 0.69766 0.58391 0.95715 0.0
O287 O 0.66501 0.65071 0.98908 0.0
O288 O 0.78 0.69623 0.89243 0.0
C289 C 0.65841 0.601 0.96982 0.0
O290 O 0.72961 0.63621 0.10654 0.0
C291 C 0.78155 0.74731 0.90191 0.0
O292 O 0.77372 0.70618 0.0716 0.0
O293 O 0.77262 0.76351 0.94769 0.0
C294 C 0.02155 0.53174 0.86614 0.0
O295 O 0.03869 0.50451 0.82928 0.0
Cd296 Cd -0.00119 0.47855 0.74654 0.0
O297 O 0.97761 0.54283 0.86315 0.0
Cd298 Cd 0.91436 0.52818 0.79252 0.0
C299 C 0.88182 0.4025 0.76357 0.0
O300 O 0.97804 0.56319 0.73463 0.0
O301 O 0.912 0.50729 0.70148 0.0
O302 O 0.87926 0.60581 0.82018 0.0
C303 C 0.95333 0.53846 0.69526 0.0
O304 O 0.91899 0.40958 0.73444 0.0
C305 C 0.83569 0.5863 0.79997 0.0
O306 O 0.87976 0.43594 0.80287 0.0
O307 O 0.82705 0.5373 0.77939 0.0
C308 C 0.86496 0.45864 0.47171 0.0
O309 O 0.84653 0.42748 0.43214 0.0
Cd310 Cd 0.75742 0.39676 0.46063 0.0
O311 O 0.83639 0.46437 0.50802 0.0
Cd312 Cd 0.76246 0.40179 0.47437 0.0
C313 C 0.74004 0.31081 0.37931 0.0
O314 O 0.70544 0.4632 0.45219 0.0
O315 O 0.7236 0.46844 0.53246 0.0
O316 O 0.80679 0.34727 0.52152 0.0
C317 C 0.70181 0.48651 0.4969 0.0
O318 O 0.71112 0.3078 0.41629 0.0
C319 C 0.76779 0.3177 0.53645 0.0
O320 O 0.77442 0.3531 0.38183 0.0
O321 O 0.72493 0.32655 0.52261 0.0
C322 C 0.55751 0.49655 0.37774 0.0
O323 O 0.54976 0.54167 0.36462 0.0
Cd324 Cd 0.58463 0.59433 0.29892 0.0
O325 O 0.59393 0.47523 0.35949 0.0
Cd326 Cd 0.65919 0.50262 0.29147 0.0
C327 C 0.71483 0.63548 0.31282 0.0
O328 O 0.5919 0.52232 0.23771 0.0
O329 O 0.66458 0.53519 0.20469 0.0
O330 O 0.66876 0.41099 0.25543 0.0
C331 C 0.61845 0.53804 0.20142 0.0
O332 O 0.67126 0.64513 0.3037 0.0
C333 C 0.71404 0.41424 0.27101 0.0
O334 O 0.72082 0.58764 0.32004 0.0
O335 O 0.73457 0.45839 0.29766 0.0
Dy336 Dy 0.95597 0.98298 0.99018 0.0
C337 C 0.16616 0.02364 0.00758 0.0
C338 C 0.87004 0.01823 0.01175 0.0
Dy339 Dy 0.07162 0.04134 0.02527 0.0
O340 O 0.87085 0.96718 -0.00616 0.0
O341 O 0.91472 0.04783 0.01682 0.0
O342 O 0.98175 0.94527 0.91372 0.0
O343 O 0.02589 0.00788 0.95938 0.0
C344 C 0.02756 0.97531 0.92019 0.0
C345 C -8e-05 0.05004 0.09383 0.0
O346 O 0.04981 0.10891 0.98397 0.0
O347 O 0.96795 0.06308 0.95613 0.0
O348 O 0.14963 0.03575 0.053 0.0
O349 O 0.13352 0.02885 0.97286 0.0
O350 O 0.04401 0.08348 0.0979 0.0
O351 O 0.00147 0.01196 0.0588 0.0
O352 O 0.9773 0.91839 0.03507 0.0
O353 O 0.06417 0.95263 0.03813 0.0
C354 C 0.00564 0.10614 0.95896 0.0
C355 C 0.02479 0.91417 0.04537 0.0
Dy356 Dy 0.28425 0.7534 0.17042 0.0
C357 C 0.26344 0.72532 0.37725 0.0
C358 C 0.27262 0.78334 0.07629 0.0
Dy359 Dy 0.25667 0.76041 0.28557 0.0
O360 O 0.31556 0.77778 0.09619 0.0
O361 O 0.23662 0.7702 0.10673 0.0
O362 O 0.33665 0.6954 0.183 0.0
O363 O 0.32118 0.75051 0.24203 0.0
C364 C 0.34396 0.71151 0.23224 0.0
C365 C 0.2007 0.80787 0.22579 0.0
O366 O 0.32018 0.83181 0.29064 0.0
O367 O 0.3284 0.83671 0.20302 0.0
O368 O 0.2469 0.76975 0.37025 0.0
O369 O 0.27355 0.69935 0.33453 0.0
O370 O 0.20524 0.82043 0.2755 0.0
O371 O 0.2202 0.76651 0.21444 0.0
O372 O 0.23216 0.67294 0.16628 0.0
O373 O 0.20705 0.68182 0.2511 0.0
C374 C 0.34075 0.85581 0.25176 0.0
C375 C 0.20421 0.65548 0.20406 0.0
Dy376 Dy 0.5834 0.994 0.49445 0.0
C377 C 0.37951 0.0459 0.49746 0.0
C378 C 0.65938 0.94292 0.51824 0.0
Dy379 Dy 0.46688 0.00805 0.5023 0.0
O380 O 0.66568 0.99411 0.5097 0.0
O381 O 0.61235 0.9197 0.51217 0.0
O382 O 0.59393 0.03835 0.4237 0.0
O383 O 0.52329 0.00441 0.44632 0.0
C384 C 0.54535 0.03494 0.41622 0.0
C385 C 0.50834 0.96153 0.57485 0.0
O386 O 0.45821 0.93407 0.44349 0.0
O387 O 0.53748 0.9127 0.45865 0.0
O388 O 0.38526 0.00214 0.51748 0.0
O389 O 0.42133 0.06873 0.47869 0.0
O390 O 0.45968 0.95417 0.56785 0.0
O391 O 0.52821 -0.00151 0.55005 0.0
O392 O 0.58906 0.07143 0.54951 0.0
O393 O 0.51022 0.09218 0.53173 0.0
C394 C 0.49079 0.90027 0.43796 0.0
C395 C 0.55662 0.10566 0.55251 0.0
Dy396 Dy 0.2242 0.27626 0.7627 0.0
C397 C 0.4286 0.24804 0.74324 0.0
C398 C 0.12709 0.26786 0.78779 0.0
Dy399 Dy 0.33218 0.25035 0.76799 0.0
O400 O 0.14351 0.23373 0.75472 0.0
O401 O 0.16276 0.30867 0.8045 0.0
O402 O 0.24682 0.34475 0.71416 0.0
O403 O 0.30024 0.3234 0.76339 0.0
C404 C 0.29462 0.35014 0.72633 0.0
C405 C 0.25825 0.17669 0.80134 0.0
O406 O 0.33366 0.30479 0.84223 0.0
O407 O 0.24668 0.29003 0.84682 0.0
O408 O 0.40463 0.21969 0.7768 0.0
O409 O 0.40062 0.27833 0.72463 0.0
O410 O 0.30502 0.18095 0.81644 0.0
O411 O 0.25655 0.20497 0.76526 0.0
O412 O 0.22248 0.22833 0.68555 0.0
O413 O 0.3076 0.22278 0.68485 0.0
C414 C 0.29238 0.30742 0.86826 0.0
C415 C 0.26235 0.21585 0.66184 0.0
Dy416 Dy 0.01358 0.01156 0.46018 0.0
C417 C 0.09569 0.05573 0.65701 0.0
C418 C 0.97251 0.98967 0.36379 0.0
Dy419 Dy 0.04143 0.05046 0.56828 0.0
O420 O 0.01145 0.97209 0.37963 0.0
O421 O 0.95417 0.01721 0.40107 0.0
O422 O 0.0956 0.01946 0.44165 0.0
O423 O 0.07425 0.07537 0.49733 0.0
C424 C 0.11107 0.06201 0.47455 0.0
C425 C 0.94342 0.00448 0.55371 0.0
O426 O 0.03704 0.13187 0.54103 0.0
O427 O 0.98599 0.09155 0.47073 0.0
O428 O 0.04914 0.06208 0.65408 0.0
O429 O 0.11386 0.05214 0.61188 0.0
O430 O 0.95979 0.04612 0.58773 0.0
O431 O 0.97947 0.98892 0.53092 0.0
O432 O 0.01244 0.93044 0.49018 0.0
O433 O 0.06747 0.97003 0.55633 0.0
C434 C 0.00814 0.13594 0.50069 0.0
C435 C 0.04279 0.92574 0.52875 0.0
Dy436 Dy 0.32827 0.79915 0.76922 0.0
C437 C 0.13172 0.71988 0.67127 0.0
C438 C 0.41774 0.83023 0.82094 0.0
Dy439 Dy 0.21515 0.73335 0.73372 0.0
O440 O 0.40568 0.85047 0.77992 0.0
O441 O 0.37958 0.79674 0.83595 0.0
O442 O 0.35554 0.77538 0.69029 0.0
O443 O 0.28047 0.77764 0.70121 0.0
C444 C 0.31048 0.76243 0.66934 0.0
C445 C 0.23029 0.77 0.83377 0.0
O446 O 0.25669 0.66232 0.72954 0.0
O447 O 0.33367 0.71059 0.76844 0.0
O448 O 0.13197 0.70616 0.71766 0.0
O449 O 0.17759 0.73438 0.65721 0.0
O450 O 0.18558 0.75237 0.81251 0.0
O451 O 0.26208 0.75775 0.80238 0.0
O452 O 0.28551 0.86858 0.78001 0.0
O453 O 0.21064 0.82209 0.73679 0.0
C454 C 0.30426 0.66507 0.74624 0.0
C455 C 0.23895 0.86666 0.76151 0.0
Dy456 Dy 0.51448 0.027 0.05426 0.0
C457 C 0.53157 0.0487 0.84129 0.0
C458 C 0.47719 0.03257 0.14737 0.0
Dy459 Dy 0.51511 0.04879 0.94066 0.0
O460 O 0.52008 0.06119 0.13667 0.0
O461 O 0.45732 -0.00212 0.10911 0.0
O462 O 0.56268 0.96324 0.04357 0.0
O463 O 0.51823 0.97835 0.98206 0.0
C464 C 0.55439 0.95622 -0.0059 0.0
C465 C 0.48112 0.12061 0.00786 0.0
O466 O 0.44624 0.98549 0.9382 0.0
O467 O 0.43428 0.0089 0.02375 0.0
O468 O 0.49595 0.06921 0.86365 0.0
O469 O 0.5589 0.02948 0.87298 0.0
O470 O 0.46757 0.11535 0.95976 0.0
O471 O 0.5153 0.09484 0.01308 0.0
O472 O 0.58694 0.08653 0.05537 0.0
O473 O 0.5954 0.07959 0.9668 0.0
C474 C 0.41731 0.98532 0.97768 0.0
C475 C 0.61347 0.09524 0.01431 0.0
Dy476 Dy 0.27602 0.33614 0.278 0.0
C477 C 0.30214 0.12334 0.2917 0.0
C478 C 0.2226 0.4043 0.24247 0.0
Dy479 Dy 0.26047 0.20306 0.25967 0.0
O480 O 0.26563 0.42198 0.26873 0.0
O481 O 0.21117 0.3515 0.23516 0.0
O482 O 0.28631 0.33646 0.36506 0.0
O483 O 0.29461 0.27001 0.31403 0.0
C484 C 0.291 0.28494 0.36096 0.0
C485 C 0.25252 0.2547 0.17552 0.0
O486 O 0.19202 0.21229 0.30521 0.0
O487 O 0.20271 0.30853 0.31538 0.0
O488 O 0.2618 0.11332 0.26101 0.0
O489 O 0.31786 0.17514 0.30385 0.0
O490 O 0.25614 0.203 0.17234 0.0
O491 O 0.24486 0.26933 0.22174 0.0
O492 O 0.34748 0.32778 0.23491 0.0
O493 O 0.33756 0.23239 0.23472 0.0
C494 C 0.17803 0.25905 0.32283 0.0
C495 C 0.36309 0.28017 0.22414 0.0
Dy496 Dy 0.51358 0.51156 0.96018 0.0
C497 C 0.59569 0.55573 0.15701 0.0
C498 C 0.47251 0.48967 0.86379 0.0
Dy499 Dy 0.54143 0.55047 0.06828 0.0
O500 O 0.51145 0.47209 0.87963 0.0
O501 O 0.45417 0.51721 0.90107 0.0
O502 O 0.59559 0.51946 0.94165 0.0
O503 O 0.57425 0.57537 -0.00267 0.0
C504 C 0.61107 0.56201 0.97455 0.0
C505 C 0.44342 0.50449 0.05371 0.0
O506 O 0.53704 0.63187 0.04103 0.0
O507 O 0.48599 0.59155 0.97073 0.0
O508 O 0.54913 0.56208 0.15408 0.0
O509 O 0.61386 0.55214 0.11188 0.0
O510 O 0.45979 0.54612 0.08773 0.0
O511 O 0.47947 0.48892 0.03092 0.0
O512 O 0.51244 0.43044 0.99018 0.0
O513 O 0.56747 0.47003 0.05633 0.0
C514 C 0.50814 0.63594 0.00069 0.0
C515 C 0.54279 0.42575 0.02875 0.0
Dy516 Dy 0.82827 0.29915 0.26922 0.0
C517 C 0.63173 0.21988 0.17127 0.0
C518 C 0.91774 0.33023 0.32094 0.0
Dy519 Dy 0.71515 0.23335 0.23372 0.0
O520 O 0.90568 0.35048 0.27992 0.0
O521 O 0.87958 0.29674 0.33595 0.0
O522 O 0.85554 0.27538 0.19029 0.0
O523 O 0.78047 0.27764 0.20121 0.0
C524 C 0.81048 0.26243 0.16934 0.0
C525 C 0.73029 0.27 0.33377 0.0
O526 O 0.75669 0.16232 0.22954 0.0
O527 O 0.83367 0.21059 0.26844 0.0
O528 O 0.63198 0.20616 0.21766 0.0
O529 O 0.67759 0.23438 0.15721 0.0
O530 O 0.68558 0.25237 0.31251 0.0
O531 O 0.76208 0.25775 0.30238 0.0
O532 O 0.78551 0.36858 0.28002 0.0
O533 O 0.71064 0.32209 0.23679 0.0
C534 C 0.80426 0.16507 0.24624 0.0
C535 C 0.73894 0.36666 0.26151 0.0
Dy536 Dy 0.01448 0.527 0.55426 0.0
C537 C 0.03157 0.5487 0.34129 0.0
C538 C 0.97719 0.53257 0.64737 0.0
Dy539 Dy 0.01511 0.54879 0.44065 0.0
O540 O 0.02007 0.56119 0.63667 0.0
O541 O 0.95732 0.49788 0.60911 0.0
O542 O 0.06268 0.46324 0.54357 0.0
O543 O 0.01823 0.47835 0.48206 0.0
C544 C 0.05439 0.45622 0.4941 0.0
C545 C 0.98112 0.62061 0.50786 0.0
O546 O 0.94624 0.48549 0.4382 0.0
O547 O 0.93428 0.5089 0.52375 0.0
O548 O -0.00405 0.5692 0.36365 0.0
O549 O 0.05889 0.52947 0.37298 0.0
O550 O 0.96757 0.61535 0.45976 0.0
O551 O 0.0153 0.59484 0.51308 0.0
O552 O 0.08694 0.58653 0.55537 0.0
O553 O 0.0954 0.57959 0.4668 0.0
C554 C 0.91731 0.48532 0.47768 0.0
C555 C 0.11347 0.59524 0.51431 0.0
Dy556 Dy 0.7242 0.77626 0.2627 0.0
C557 C 0.9286 0.74804 0.24324 0.0
C558 C 0.62709 0.76786 0.28779 0.0
Dy559 Dy 0.83218 0.75035 0.26799 0.0
O560 O 0.64351 0.73373 0.25472 0.0
O561 O 0.66275 0.80866 0.3045 0.0
O562 O 0.74682 0.84475 0.21416 0.0
O563 O 0.80024 0.8234 0.26339 0.0
C564 C 0.79461 0.85014 0.22633 0.0
C565 C 0.75825 0.67669 0.30134 0.0
O566 O 0.83366 0.80479 0.34223 0.0
O567 O 0.74668 0.79003 0.34682 0.0
O568 O 0.90463 0.71969 0.2768 0.0
O569 O 0.90062 0.77833 0.22463 0.0
O570 O 0.80502 0.68095 0.31644 0.0
O571 O 0.75654 0.70497 0.26526 0.0
O572 O 0.72248 0.72833 0.18555 0.0
O573 O 0.8076 0.72278 0.18485 0.0
C574 C 0.79238 0.80742 0.36826 0.0
C575 C 0.76235 0.71585 0.16184 0.0
Dy576 Dy 0.78425 0.2534 0.67042 0.0
C577 C 0.76344 0.22532 0.87725 0.0
C578 C 0.77262 0.28334 0.57629 0.0
Dy579 Dy 0.75667 0.26041 0.78557 0.0
O580 O 0.81556 0.27778 0.59619 0.0
O581 O 0.73663 0.2702 0.60673 0.0
O582 O 0.83665 0.1954 0.683 0.0
O583 O 0.82118 0.25051 0.74203 0.0
C584 C 0.84396 0.21151 0.73224 0.0
C585 C 0.7007 0.30787 0.72579 0.0
O586 O 0.82018 0.33181 0.79064 0.0
O587 O 0.8284 0.33671 0.70302 0.0
O588 O 0.7469 0.26975 0.87025 0.0
O589 O 0.77355 0.19935 0.83453 0.0
O590 O 0.70524 0.32043 0.7755 0.0
O591 O 0.7202 0.26651 0.71444 0.0
O592 O 0.73216 0.17294 0.66628 0.0
O593 O 0.70705 0.18182 0.7511 0.0
C594 C 0.84075 0.35581 0.75176 0.0
C595 C 0.70421 0.15548 0.70406 0.0
Dy596 Dy 0.77602 0.83614 0.778 0.0
C597 C 0.80214 0.62334 0.7917 0.0
C598 C 0.7226 0.9043 0.74247 0.0
Dy599 Dy 0.76046 0.70306 0.75967 0.0
O600 O 0.76563 0.92198 0.76873 0.0
O601 O 0.71117 0.8515 0.73516 0.0
O602 O 0.78631 0.83646 0.86506 0.0
O603 O 0.79461 0.77 0.81403 0.0
C604 C 0.791 0.78494 0.86096 0.0
C605 C 0.75252 0.7547 0.67552 0.0
O606 O 0.69202 0.71229 0.80521 0.0
O607 O 0.70271 0.80853 0.81538 0.0
O608 O 0.7618 0.61332 0.76101 0.0
O609 O 0.81786 0.67514 0.80385 0.0
O610 O 0.75614 0.703 0.67234 0.0
O611 O 0.74486 0.76933 0.72174 0.0
O612 O 0.84748 0.82778 0.73491 0.0
O613 O 0.83756 0.73239 0.73472 0.0
C614 C 0.67803 0.75905 0.82283 0.0
C615 C 0.86309 0.78017 0.72414 0.0
Dy616 Dy 0.45596 0.48297 0.49018 0.0
C617 C 0.66616 0.52363 0.50758 0.0
C618 C 0.37004 0.51823 0.51175 0.0
Dy619 Dy 0.57162 0.54134 0.52527 0.0
O620 O 0.37085 0.46717 0.49384 0.0
O621 O 0.41472 0.54782 0.51682 0.0
O622 O 0.48175 0.44527 0.41372 0.0
O623 O 0.52589 0.50787 0.45938 0.0
C624 C 0.52755 0.4753 0.42019 0.0
C625 C 0.49991 0.55004 0.59383 0.0
O626 O 0.54981 0.6089 0.48397 0.0
O627 O 0.46794 0.56308 0.45613 0.0
O628 O 0.64963 0.53575 0.553 0.0
O629 O 0.63351 0.52884 0.47286 0.0
O630 O 0.544 0.58348 0.5979 0.0
O631 O 0.50146 0.51195 0.5588 0.0
O632 O 0.47729 0.41839 0.53507 0.0
O633 O 0.56417 0.45263 0.53813 0.0
C634 C 0.50564 0.60614 0.45896 0.0
C635 C 0.52479 0.41417 0.54536 0.0
Dy636 Dy 0.0834 0.494 -0.00555 0.0
C637 C 0.87951 0.5459 -0.00254 0.0
C638 C 0.15938 0.44292 0.01824 0.0
Dy639 Dy 0.96688 0.50805 0.0023 0.0
O640 O 0.16568 0.49411 0.0097 0.0
O641 O 0.11235 0.4197 0.01217 0.0
O642 O 0.09393 0.53835 0.9237 0.0
O643 O 0.02329 0.50441 0.94632 0.0
C644 C 0.04535 0.53494 0.91622 0.0
C645 C 0.00834 0.46153 0.07485 0.0
O646 O 0.95821 0.43408 0.94349 0.0
O647 O 0.03748 0.4127 0.95864 0.0
O648 O 0.88526 0.50214 0.01748 0.0
O649 O 0.92133 0.56873 0.97869 0.0
O650 O 0.95968 0.45417 0.06785 0.0
O651 O 0.02821 0.49849 0.05005 0.0
O652 O 0.08906 0.57143 0.04951 0.0
O653 O 0.01022 0.59218 0.03173 0.0
C654 C 0.99079 0.40027 0.93796 0.0
C655 C 0.05662 0.60566 0.05251 0.0
loop_
_geom_bond_atom_site_label_1
_geom_bond_atom_site_label_2
_geom_bond_distance
_geom_bond_site_symmetry_2
_ccdc_geom_bond_type
C0 O1 1.306 . S
C0 O3 1.160 . S
O1 C0 1.306 . S
O1 Cd2 2.228 1_655 S
Cd2 O1 2.228 1_455 S
Cd2 O6 2.273 . S
Cd2 O10 2.277 . S
O3 C0 1.160 . S
O3 Cd4 2.203 1_655 S
Cd4 O3 2.203 1_455 S
Cd4 O6 2.411 . S
Cd4 O7 2.333 . S
Cd4 O8 2.352 . S
Cd4 O12 2.277 . S
Cd4 O13 2.356 . S
C5 O10 1.209 . S
C5 O12 1.226 . S
O6 Cd2 2.273 . S
O6 Cd4 2.411 . S
O6 C9 1.320 . S
O7 Cd4 2.333 . S
O7 C9 1.214 . S
O8 Cd4 2.352 . S
O8 C11 1.258 . S
C9 O6 1.320 . S
C9 O7 1.214 . S
O10 Cd2 2.277 . S
O10 C5 1.209 . S
C11 O8 1.258 . S
C11 O13 1.282 . S
O12 Cd4 2.277 . S
O12 C5 1.226 . S
O13 Cd4 2.356 . S
O13 C11 1.282 . S
C14 O15 1.306 . S
C14 O17 1.160 . S
O15 C14 1.306 . S
O15 Cd16 2.228 1_655 S
Cd16 O15 2.228 1_455 S
Cd16 O20 2.273 . S
Cd16 O24 2.277 . S
O17 C14 1.160 . S
O17 Cd18 2.203 1_655 S
Cd18 O17 2.203 1_455 S
Cd18 O20 2.411 . S
Cd18 O21 2.333 . S
Cd18 O22 2.352 . S
Cd18 O26 2.277 1_455 S
Cd18 O27 2.356 . S
C19 O24 1.209 1_655 S
C19 O26 1.226 . S
O20 Cd16 2.273 . S
O20 Cd18 2.411 . S
O20 C23 1.320 . S
O21 Cd18 2.333 . S
O21 C23 1.214 . S
O22 Cd18 2.352 . S
O22 C25 1.258 . S
C23 O20 1.320 . S
C23 O21 1.214 . S
O24 Cd16 2.277 . S
O24 C19 1.209 1_455 S
C25 O22 1.258 . S
C25 O27 1.282 . S
O26 Cd18 2.277 1_655 S
O26 C19 1.226 . S
O27 Cd18 2.356 . S
O27 C25 1.282 . S
C28 O29 1.306 . S
C28 O31 1.160 . S
O29 C28 1.306 . S
O29 Cd30 2.228 . S
Cd30 O29 2.228 . S
Cd30 O34 2.273 . S
Cd30 O38 2.277 . S
O31 C28 1.160 . S
O31 Cd32 2.203 . S
Cd32 O31 2.203 . S
Cd32 O34 2.411 . S
Cd32 O35 2.333 . S
Cd32 O36 2.352 . S
Cd32 O40 2.277 . S
Cd32 O41 2.356 . S
C33 O38 1.209 . S
C33 O40 1.226 . S
O34 Cd30 2.273 . S
O34 Cd32 2.411 . S
O34 C37 1.320 . S
O35 Cd32 2.333 . S
O35 C37 1.214 . S
O36 Cd32 2.352 . S
O36 C39 1.258 . S
C37 O34 1.320 . S
C37 O35 1.214 . S
O38 Cd30 2.277 . S
O38 C33 1.209 . S
C39 O36 1.258 . S
C39 O41 1.282 . S
O40 Cd32 2.277 . S
O40 C33 1.226 . S
O41 Cd32 2.356 . S
O41 C39 1.282 . S
C42 O43 1.306 . S
C42 O45 1.160 . S
O43 C42 1.306 . S
O43 Cd44 2.228 . S
Cd44 O43 2.228 . S
Cd44 O48 2.273 . S
Cd44 O52 2.277 . S
O45 C42 1.160 . S
O45 Cd46 2.203 . S
Cd46 O45 2.203 . S
Cd46 O48 2.411 . S
Cd46 O49 2.333 . S
Cd46 O50 2.352 . S
Cd46 O54 2.277 . S
Cd46 O55 2.356 . S
C47 O52 1.209 . S
C47 O54 1.226 . S
O48 Cd44 2.273 . S
O48 Cd46 2.411 . S
O48 C51 1.320 . S
O49 Cd46 2.333 . S
O49 C51 1.214 . S
O50 Cd46 2.352 . S
O50 C53 1.258 . S
C51 O48 1.320 . S
C51 O49 1.214 . S
O52 Cd44 2.277 . S
O52 C47 1.209 . S
C53 O50 1.258 . S
C53 O55 1.282 . S
O54 Cd46 2.277 . S
O54 C47 1.226 . S
O55 Cd46 2.356 . S
O55 C53 1.282 . S
C56 O57 1.306 . S
C56 O59 1.160 . S
O57 C56 1.306 . S
O57 Cd58 2.228 1_655 S
Cd58 O57 2.228 1_455 S
Cd58 O62 2.273 . S
Cd58 O66 2.277 . S
O59 C56 1.160 . S
O59 Cd60 2.203 1_655 S
Cd60 O59 2.203 1_455 S
Cd60 O62 2.411 . S
Cd60 O63 2.333 . S
Cd60 O64 2.352 . S
Cd60 O68 2.277 . S
Cd60 O69 2.356 . S
C61 O66 1.209 . S
C61 O68 1.226 . S
O62 Cd58 2.273 . S
O62 Cd60 2.411 . S
O62 C65 1.320 . S
O63 Cd60 2.333 . S
O63 C65 1.214 . S
O64 Cd60 2.352 . S
O64 C67 1.258 . S
C65 O62 1.320 . S
C65 O63 1.214 . S
O66 Cd58 2.277 . S
O66 C61 1.209 . S
C67 O64 1.258 . S
C67 O69 1.282 . S
O68 Cd60 2.277 . S
O68 C61 1.226 . S
O69 Cd60 2.356 . S
O69 C67 1.282 . S
C70 O71 1.306 . S
C70 O73 1.160 . S
O71 C70 1.306 . S
O71 Cd72 2.228 . S
Cd72 O71 2.228 . S
Cd72 O76 2.273 . S
Cd72 O80 2.277 . S
O73 C70 1.160 . S
O73 Cd74 2.203 . S
Cd74 O73 2.203 . S
Cd74 O76 2.411 . S
Cd74 O77 2.333 . S
Cd74 O78 2.352 . S
Cd74 O82 2.277 . S
Cd74 O83 2.356 . S
C75 O80 1.209 . S
C75 O82 1.226 . S
O76 Cd72 2.273 . S
O76 Cd74 2.411 . S
O76 C79 1.320 . S
O77 Cd74 2.333 . S
O77 C79 1.214 . S
O78 Cd74 2.352 . S
O78 C81 1.258 . S
C79 O76 1.320 . S
C79 O77 1.214 . S
O80 Cd72 2.277 . S
O80 C75 1.209 . S
C81 O78 1.258 . S
C81 O83 1.282 . S
O82 Cd74 2.277 . S
O82 C75 1.226 . S
O83 Cd74 2.356 . S
O83 C81 1.282 . S
C84 O85 1.306 . S
C84 O87 1.160 . S
O85 C84 1.306 . S
O85 Cd86 2.228 . S
Cd86 O85 2.228 . S
Cd86 O90 2.273 . S
Cd86 O94 2.277 . S
O87 C84 1.160 . S
O87 Cd88 2.203 . S
Cd88 O87 2.203 . S
Cd88 O90 2.411 . S
Cd88 O91 2.333 . S
Cd88 O92 2.352 . S
Cd88 O96 2.277 . S
Cd88 O97 2.356 . S
C89 O94 1.209 . S
C89 O96 1.226 . S
O90 Cd86 2.273 . S
O90 Cd88 2.411 . S
O90 C93 1.320 . S
O91 Cd88 2.333 . S
O91 C93 1.214 . S
O92 Cd88 2.352 . S
O92 C95 1.258 . S
C93 O90 1.320 . S
C93 O91 1.214 . S
O94 Cd86 2.277 . S
O94 C89 1.209 . S
C95 O92 1.258 . S
C95 O97 1.282 . S
O96 Cd88 2.277 . S
O96 C89 1.226 . S
O97 Cd88 2.356 . S
O97 C95 1.282 . S
C98 O99 1.306 . S
C98 O101 1.160 . S
O99 C98 1.306 . S
O99 Cd100 2.228 1_655 S
Cd100 O99 2.228 1_455 S
Cd100 O104 2.273 . S
Cd100 O108 2.277 . S
O101 C98 1.160 . S
O101 Cd102 2.203 1_655 S
Cd102 O101 2.203 1_455 S
Cd102 O104 2.411 . S
Cd102 O105 2.333 . S
Cd102 O106 2.352 1_455 S
Cd102 O110 2.277 . S
Cd102 O111 2.356 . S
C103 O108 1.209 . S
C103 O110 1.226 . S
O104 Cd100 2.273 . S
O104 Cd102 2.411 . S
O104 C107 1.320 . S
O105 Cd102 2.333 . S
O105 C107 1.214 . S
O106 Cd102 2.352 1_655 S
O106 C109 1.258 . S
C107 O104 1.320 . S
C107 O105 1.214 . S
O108 Cd100 2.277 . S
O108 C103 1.209 . S
C109 O106 1.258 . S
C109 O111 1.282 1_655 S
O110 Cd102 2.277 . S
O110 C103 1.226 . S
O111 Cd102 2.356 . S
O111 C109 1.282 1_455 S
C112 O113 1.306 1_545 S
C112 O115 1.160 . S
O113 C112 1.306 1_565 S
O113 Cd114 2.228 . S
Cd114 O113 2.228 . S
Cd114 O118 2.273 1_565 S
Cd114 O122 2.277 . S
O115 C112 1.160 . S
O115 Cd116 2.203 . S
Cd116 O115 2.203 . S
Cd116 O118 2.411 . S
Cd116 O119 2.333 . S
Cd116 O120 2.352 . S
Cd116 O124 2.277 1_545 S
Cd116 O125 2.356 . S
C117 O122 1.209 . S
C117 O124 1.226 . S
O118 Cd114 2.273 1_545 S
O118 Cd116 2.411 . S
O118 C121 1.320 . S
O119 Cd116 2.333 . S
O119 C121 1.214 . S
O120 Cd116 2.352 . S
O120 C123 1.258 . S
C121 O118 1.320 . S
C121 O119 1.214 . S
O122 Cd114 2.277 . S
O122 C117 1.209 . S
C123 O120 1.258 . S
C123 O125 1.282 . S
O124 Cd116 2.277 1_565 S
O124 C117 1.226 . S
O125 Cd116 2.356 . S
O125 C123 1.282 . S
C126 O127 1.306 . S
C126 O129 1.160 . S
O127 C126 1.306 . S
O127 Cd128 2.228 . S
Cd128 O127 2.228 . S
Cd128 O132 2.273 . S
Cd128 O136 2.277 . S
O129 C126 1.160 . S
O129 Cd130 2.203 . S
Cd130 O129 2.203 . S
Cd130 O132 2.411 . S
Cd130 O133 2.333 . S
Cd130 O134 2.352 . S
Cd130 O138 2.277 . S
Cd130 O139 2.356 . S
C131 O136 1.209 . S
C131 O138 1.226 . S
O132 Cd128 2.273 . S
O132 Cd130 2.411 . S
O132 C135 1.320 . S
O133 Cd130 2.333 . S
O133 C135 1.214 . S
O134 Cd130 2.352 . S
O134 C137 1.258 . S
C135 O132 1.320 . S
C135 O133 1.214 . S
O136 Cd128 2.277 . S
O136 C131 1.209 . S
C137 O134 1.258 . S
C137 O139 1.282 . S
O138 Cd130 2.277 . S
O138 C131 1.226 . S
O139 Cd130 2.356 . S
O139 C137 1.282 . S
C140 O141 1.306 . S
C140 O143 1.160 . S
O141 C140 1.306 . S
O141 Cd142 2.228 . S
Cd142 O141 2.228 . S
Cd142 O146 2.273 1_545 S
Cd142 O150 2.277 . S
O143 C140 1.160 . S
O143 Cd144 2.203 1_545 S
Cd144 O143 2.203 1_565 S
Cd144 O146 2.410 . S
Cd144 O147 2.333 . S
Cd144 O148 2.353 . S
Cd144 O152 2.275 1_565 S
Cd144 O153 2.358 . S
C145 O150 1.209 . S
C145 O152 1.226 . S
O146 Cd142 2.273 1_565 S
O146 Cd144 2.410 . S
O146 C149 1.320 . S
O147 Cd144 2.333 . S
O147 C149 1.214 . S
O148 Cd144 2.353 . S
O148 C151 1.258 . S
C149 O146 1.320 . S
C149 O147 1.214 . S
O150 Cd142 2.277 . S
O150 C145 1.209 . S
C151 O148 1.258 . S
C151 O153 1.282 . S
O152 Cd144 2.275 1_545 S
O152 C145 1.226 . S
O153 Cd144 2.358 . S
O153 C151 1.282 . S
C154 O155 1.299 1_564 S
C154 O157 1.160 . S
O155 C154 1.299 1_546 S
O155 Cd156 2.230 . S
Cd156 O155 2.230 . S
Cd156 O160 2.273 1_546 S
Cd156 O164 2.277 1_545 S
O157 C154 1.160 . S
O157 Cd158 2.203 . S
Cd158 O157 2.203 . S
Cd158 O160 2.411 . S
Cd158 O161 2.333 . S
Cd158 O162 2.352 . S
Cd158 O166 2.277 1_554 S
Cd158 O167 2.356 . S
C159 O164 1.209 . S
C159 O166 1.226 . S
O160 Cd156 2.273 1_564 S
O160 Cd158 2.411 . S
O160 C163 1.320 . S
O161 Cd158 2.333 . S
O161 C163 1.214 . S
O162 Cd158 2.352 . S
O162 C165 1.258 . S
C163 O160 1.320 . S
C163 O161 1.214 . S
O164 Cd156 2.277 1_565 S
O164 C159 1.209 . S
C165 O162 1.258 . S
C165 O167 1.282 . S
O166 Cd158 2.277 1_556 S
O166 C159 1.226 . S
O167 Cd158 2.356 . S
O167 C165 1.282 . S
C168 O169 1.306 1_554 S
C168 O171 1.160 . S
O169 C168 1.306 1_556 S
O169 Cd170 2.228 . S
Cd170 O169 2.228 . S
Cd170 O174 2.273 1_556 S
Cd170 O178 2.277 . S
O171 C168 1.160 . S
O171 Cd172 2.203 . S
Cd172 O171 2.203 . S
Cd172 O174 2.411 . S
Cd172 O175 2.333 . S
Cd172 O176 2.352 . S
Cd172 O180 2.277 1_554 S
Cd172 O181 2.356 . S
C173 O178 1.209 . S
C173 O180 1.226 . S
O174 Cd170 2.273 1_554 S
O174 Cd172 2.411 . S
O174 C177 1.320 . S
O175 Cd172 2.333 . S
O175 C177 1.214 . S
O176 Cd172 2.352 . S
O176 C179 1.258 . S
C177 O174 1.320 . S
C177 O175 1.214 . S
O178 Cd170 2.277 . S
O178 C173 1.209 . S
C179 O176 1.258 . S
C179 O181 1.282 . S
O180 Cd172 2.277 1_556 S
O180 C173 1.226 . S
O181 Cd172 2.356 . S
O181 C179 1.282 . S
C182 O183 1.306 . S
C182 O185 1.160 . S
O183 C182 1.306 . S
O183 Cd184 2.228 . S
Cd184 O183 2.228 . S
Cd184 O188 2.273 . S
Cd184 O192 2.277 . S
O185 C182 1.160 . S
O185 Cd186 2.203 . S
Cd186 O185 2.203 . S
Cd186 O188 2.411 . S
Cd186 O189 2.333 . S
Cd186 O190 2.352 1_554 S
Cd186 O194 2.277 . S
Cd186 O195 2.356 1_554 S
C187 O192 1.209 . S
C187 O194 1.226 . S
O188 Cd184 2.273 . S
O188 Cd186 2.411 . S
O188 C191 1.320 . S
O189 Cd186 2.333 . S
O189 C191 1.214 . S
O190 Cd186 2.352 1_556 S
O190 C193 1.258 . S
C191 O188 1.320 . S
C191 O189 1.214 . S
O192 Cd184 2.277 . S
O192 C187 1.209 . S
C193 O190 1.258 . S
C193 O195 1.282 . S
O194 Cd186 2.277 . S
O194 C187 1.226 . S
O195 Cd186 2.356 1_556 S
O195 C193 1.282 . S
C196 O197 1.306 . S
C196 O199 1.160 . S
O197 C196 1.306 . S
O197 Cd198 2.228 . S
Cd198 O197 2.228 . S
Cd198 O202 2.273 . S
Cd198 O206 2.277 . S
O199 C196 1.160 . S
O199 Cd200 2.203 . S
Cd200 O199 2.203 . S
Cd200 O202 2.411 . S
Cd200 O203 2.333 . S
Cd200 O204 2.352 . S
Cd200 O208 2.277 . S
Cd200 O209 2.356 . S
C201 O206 1.209 . S
C201 O208 1.226 . S
O202 Cd198 2.273 . S
O202 Cd200 2.411 . S
O202 C205 1.320 . S
O203 Cd200 2.333 . S
O203 C205 1.214 . S
O204 Cd200 2.352 . S
O204 C207 1.258 . S
C205 O202 1.320 . S
C205 O203 1.214 . S
O206 Cd198 2.277 . S
O206 C201 1.209 . S
C207 O204 1.258 . S
C207 O209 1.282 . S
O208 Cd200 2.277 . S
O208 C201 1.226 . S
O209 Cd200 2.356 . S
O209 C207 1.282 . S
C210 O211 1.306 . S
C210 O213 1.160 . S
O211 C210 1.306 . S
O211 Cd212 2.228 . S
Cd212 O211 2.228 . S
Cd212 O216 2.273 . S
Cd212 O220 2.277 . S
O213 C210 1.160 . S
O213 Cd214 2.203 . S
Cd214 O213 2.203 . S
Cd214 O216 2.411 . S
Cd214 O217 2.333 . S
Cd214 O218 2.352 . S
Cd214 O222 2.277 . S
Cd214 O223 2.356 . S
C215 O220 1.209 . S
C215 O222 1.226 . S
O216 Cd212 2.273 . S
O216 Cd214 2.411 . S
O216 C219 1.320 . S
O217 Cd214 2.333 . S
O217 C219 1.214 . S
O218 Cd214 2.352 . S
O218 C221 1.258 . S
C219 O216 1.320 . S
C219 O217 1.214 . S
O220 Cd212 2.277 . S
O220 C215 1.209 . S
C221 O218 1.258 . S
C221 O223 1.282 . S
O222 Cd214 2.277 . S
O222 C215 1.226 . S
O223 Cd214 2.356 . S
O223 C221 1.282 . S
C224 O225 1.306 . S
C224 O227 1.160 . S
O225 C224 1.306 . S
O225 Cd226 2.228 1_545 S
Cd226 O225 2.228 1_565 S
Cd226 O230 2.273 1_565 S
Cd226 O234 2.277 . S
O227 C224 1.160 . S
O227 Cd228 2.203 . S
Cd228 O227 2.203 . S
Cd228 O230 2.411 . S
Cd228 O231 2.333 . S
Cd228 O232 2.352 . S
Cd228 O236 2.277 1_545 S
Cd228 O237 2.356 . S
C229 O234 1.209 . S
C229 O236 1.226 . S
O230 Cd226 2.273 1_545 S
O230 Cd228 2.411 . S
O230 C233 1.320 . S
O231 Cd228 2.333 . S
O231 C233 1.214 . S
O232 Cd228 2.352 . S
O232 C235 1.258 . S
C233 O230 1.320 . S
C233 O231 1.214 . S
O234 Cd226 2.277 . S
O234 C229 1.209 . S
C235 O232 1.258 . S
C235 O237 1.282 . S
O236 Cd228 2.277 1_565 S
O236 C229 1.226 . S
O237 Cd228 2.356 . S
O237 C235 1.282 . S
C238 O239 1.306 . S
C238 O241 1.160 . S
O239 C238 1.306 . S
O239 Cd240 2.228 . S
Cd240 O239 2.228 . S
Cd240 O244 2.273 . S
Cd240 O248 2.277 . S
O241 C238 1.160 . S
O241 Cd242 2.203 . S
Cd242 O241 2.203 . S
Cd242 O244 2.411 . S
Cd242 O245 2.333 . S
Cd242 O246 2.352 . S
Cd242 O250 2.277 . S
Cd242 O251 2.356 . S
C243 O248 1.209 . S
C243 O250 1.226 . S
O244 Cd240 2.273 . S
O244 Cd242 2.411 . S
O244 C247 1.320 . S
O245 Cd242 2.333 . S
O245 C247 1.214 . S
O246 Cd242 2.352 . S
O246 C249 1.258 . S
C247 O244 1.320 . S
C247 O245 1.214 . S
O248 Cd240 2.277 . S
O248 C243 1.209 . S
C249 O246 1.258 . S
C249 O251 1.282 . S
O250 Cd242 2.277 . S
O250 C243 1.226 . S
O251 Cd242 2.356 . S
O251 C249 1.282 . S
C252 O253 1.306 . S
C252 O255 1.160 . S
O253 C252 1.306 . S
O253 Cd254 2.228 . S
Cd254 O253 2.228 . S
Cd254 O258 2.273 . S
Cd254 O262 2.277 . S
O255 C252 1.160 . S
O255 Cd256 2.203 . S
Cd256 O255 2.203 . S
Cd256 O258 2.411 . S
Cd256 O259 2.333 . S
Cd256 O260 2.352 . S
Cd256 O264 2.277 . S
Cd256 O265 2.356 . S
C257 O262 1.209 . S
C257 O264 1.226 . S
O258 Cd254 2.273 . S
O258 Cd256 2.411 . S
O258 C261 1.320 . S
O259 Cd256 2.333 . S
O259 C261 1.214 . S
O260 Cd256 2.352 . S
O260 C263 1.258 . S
C261 O258 1.320 . S
C261 O259 1.214 . S
O262 Cd254 2.277 . S
O262 C257 1.209 . S
C263 O260 1.258 . S
C263 O265 1.282 . S
O264 Cd256 2.277 . S
O264 C257 1.226 . S
O265 Cd256 2.356 . S
O265 C263 1.282 . S
C266 O267 1.306 . S
C266 O269 1.160 . S
O267 C266 1.306 . S
O267 Cd268 2.228 . S
Cd268 O267 2.228 . S
Cd268 O272 2.273 . S
Cd268 O276 2.277 . S
O269 C266 1.160 . S
O269 Cd270 2.203 . S
Cd270 O269 2.203 . S
Cd270 O272 2.411 . S
Cd270 O273 2.333 . S
Cd270 O274 2.352 1_545 S
Cd270 O278 2.277 . S
Cd270 O279 2.356 1_545 S
C271 O276 1.209 . S
C271 O278 1.226 . S
O272 Cd268 2.273 . S
O272 Cd270 2.411 . S
O272 C275 1.320 . S
O273 Cd270 2.333 . S
O273 C275 1.214 . S
O274 Cd270 2.352 1_565 S
O274 C277 1.258 . S
C275 O272 1.320 . S
C275 O273 1.214 . S
O276 Cd268 2.277 . S
O276 C271 1.209 . S
C277 O274 1.258 . S
C277 O279 1.282 . S
O278 Cd270 2.277 . S
O278 C271 1.226 . S
O279 Cd270 2.356 1_565 S
O279 C277 1.282 . S
C280 O281 1.306 . S
C280 O283 1.160 . S
O281 C280 1.306 . S
O281 Cd282 2.228 . S
Cd282 O281 2.228 . S
Cd282 O286 2.273 . S
Cd282 O290 2.277 . S
O283 C280 1.160 . S
O283 Cd284 2.203 1_554 S
Cd284 O283 2.203 1_556 S
Cd284 O286 2.409 1_556 S
Cd284 O287 2.332 . S
Cd284 O288 2.361 . S
Cd284 O292 2.269 1_556 S
Cd284 O293 2.363 . S
C285 O290 1.209 . S
C285 O292 1.226 . S
O286 Cd282 2.273 . S
O286 Cd284 2.409 1_554 S
O286 C289 1.320 1_554 S
O287 Cd284 2.332 . S
O287 C289 1.214 . S
O288 Cd284 2.361 . S
O288 C291 1.258 . S
C289 O286 1.320 1_556 S
C289 O287 1.214 . S
O290 Cd282 2.277 . S
O290 C285 1.209 . S
C291 O288 1.258 . S
C291 O293 1.282 . S
O292 Cd284 2.269 1_554 S
O292 C285 1.226 . S
O293 Cd284 2.363 . S
O293 C291 1.282 . S
C294 O295 1.306 1_655 S
C294 O297 1.160 . S
O295 C294 1.306 1_455 S
O295 Cd296 2.228 . S
Cd296 O295 2.228 . S
Cd296 O300 2.273 1_455 S
Cd296 O304 2.277 1_455 S
O297 C294 1.160 . S
O297 Cd298 2.203 . S
Cd298 O297 2.203 . S
Cd298 O300 2.411 . S
Cd298 O301 2.333 . S
Cd298 O302 2.352 . S
Cd298 O306 2.277 . S
Cd298 O307 2.356 . S
C299 O304 1.209 . S
C299 O306 1.226 . S
O300 Cd296 2.273 1_655 S
O300 Cd298 2.411 . S
O300 C303 1.320 . S
O301 Cd298 2.333 . S
O301 C303 1.214 . S
O302 Cd298 2.352 . S
O302 C305 1.258 . S
C303 O300 1.320 . S
C303 O301 1.214 . S
O304 Cd296 2.277 1_655 S
O304 C299 1.209 . S
C305 O302 1.258 . S
C305 O307 1.282 . S
O306 Cd298 2.277 . S
O306 C299 1.226 . S
O307 Cd298 2.356 . S
O307 C305 1.282 . S
C308 O309 1.306 . S
C308 O311 1.160 . S
O309 C308 1.306 . S
O309 Cd310 2.228 . S
Cd310 O309 2.228 . S
Cd310 O314 2.273 . S
Cd310 O318 2.277 . S
O311 C308 1.160 . S
O311 Cd312 2.203 . S
Cd312 O311 2.203 . S
Cd312 O314 2.411 . S
Cd312 O315 2.333 . S
Cd312 O316 2.352 . S
Cd312 O320 2.277 . S
Cd312 O321 2.356 . S
C313 O318 1.209 . S
C313 O320 1.226 . S
O314 Cd310 2.273 . S
O314 Cd312 2.411 . S
O314 C317 1.320 . S
O315 Cd312 2.333 . S
O315 C317 1.214 . S
O316 Cd312 2.352 . S
O316 C319 1.258 . S
C317 O314 1.320 . S
C317 O315 1.214 . S
O318 Cd310 2.277 . S
O318 C313 1.209 . S
C319 O316 1.258 . S
C319 O321 1.282 . S
O320 Cd312 2.277 . S
O320 C313 1.226 . S
O321 Cd312 2.356 . S
O321 C319 1.282 . S
C322 O323 1.306 . S
C322 O325 1.160 . S
O323 C322 1.306 . S
O323 Cd324 2.228 . S
Cd324 O323 2.228 . S
Cd324 O328 2.273 . S
Cd324 O332 2.277 . S
O325 C322 1.160 . S
O325 Cd326 2.203 . S
Cd326 O325 2.203 . S
Cd326 O328 2.411 . S
Cd326 O329 2.333 . S
Cd326 O330 2.352 . S
Cd326 O334 2.277 . S
Cd326 O335 2.356 . S
C327 O332 1.209 . S
C327 O334 1.226 . S
O328 Cd324 2.273 . S
O328 Cd326 2.411 . S
O328 C331 1.320 . S
O329 Cd326 2.333 . S
O329 C331 1.214 . S
O330 Cd326 2.352 . S
O330 C333 1.258 . S
C331 O328 1.320 . S
C331 O329 1.214 . S
O332 Cd324 2.277 . S
O332 C327 1.209 . S
C333 O330 1.258 . S
C333 O335 1.282 . S
O334 Cd326 2.277 . S
O334 C327 1.226 . S
O335 Cd326 2.356 . S
O335 C333 1.282 . S
Dy336 O340 2.398 1_565 S
Dy336 O341 2.491 1_566 S
Dy336 O342 2.403 . S
Dy336 O343 2.664 1_665 S
Dy336 O347 2.326 1_565 S
Dy336 O351 2.310 1_666 S
Dy336 O352 2.351 1_556 S
C337 O348 1.185 . S
C337 O349 1.355 1_545 S
C338 O340 1.185 . S
C338 O341 1.355 1_556 S
Dy339 O343 2.310 1_554 S
Dy339 O346 2.351 . S
Dy339 O348 2.398 . S
Dy339 O349 2.491 1_545 S
Dy339 O350 2.403 . S
Dy339 O351 2.664 . S
Dy339 O353 2.326 1_545 S
O340 Dy336 2.398 1_545 S
O340 C338 1.185 . S
O341 Dy336 2.491 1_544 S
O341 C338 1.355 1_554 S
O342 Dy336 2.403 . S
O342 C344 1.254 1_655 S
O343 Dy336 2.664 1_445 S
O343 Dy339 2.310 1_556 S
O343 C344 1.268 1_545 S
C344 O342 1.254 1_455 S
C344 O343 1.268 1_565 S
C345 O350 1.254 . S
C345 O351 1.268 . S
O346 Dy339 2.351 . S
O346 C354 1.249 1_554 S
O347 Dy336 2.326 1_545 S
O347 C354 1.267 1_655 S
O348 C337 1.185 . S
O348 Dy339 2.398 . S
O349 C337 1.355 1_565 S
O349 Dy339 2.491 1_565 S
O350 Dy339 2.403 . S
O350 C345 1.254 . S
O351 Dy336 2.310 1_444 S
O351 Dy339 2.664 . S
O351 C345 1.268 . S
O352 Dy336 2.351 1_554 S
O352 C355 1.249 1_655 S
O353 Dy339 2.326 1_565 S
O353 C355 1.267 . S
C354 O346 1.249 1_556 S
C354 O347 1.267 1_455 S
C355 O352 1.249 1_455 S
C355 O353 1.267 . S
Dy356 O360 2.398 . S
Dy356 O361 2.491 . S
Dy356 O362 2.403 . S
Dy356 O363 2.664 . S
Dy356 O367 2.326 . S
Dy356 O371 2.310 . S
Dy356 O372 2.351 . S
C357 O368 1.185 . S
C357 O369 1.355 . S
C358 O360 1.185 . S
C358 O361 1.355 . S
Dy359 O363 2.310 . S
Dy359 O366 2.351 . S
Dy359 O368 2.398 . S
Dy359 O369 2.491 . S
Dy359 O370 2.403 . S
Dy359 O371 2.664 . S
Dy359 O373 2.326 . S
O360 Dy356 2.398 . S
O360 C358 1.185 . S
O361 Dy356 2.491 . S
O361 C358 1.355 . S
O362 Dy356 2.403 . S
O362 C364 1.254 . S
O363 Dy356 2.664 . S
O363 Dy359 2.310 . S
O363 C364 1.268 . S
C364 O362 1.254 . S
C364 O363 1.268 . S
C365 O370 1.254 . S
C365 O371 1.268 . S
O366 Dy359 2.351 . S
O366 C374 1.249 . S
O367 Dy356 2.326 . S
O367 C374 1.267 . S
O368 C357 1.185 . S
O368 Dy359 2.398 . S
O369 C357 1.355 . S
O369 Dy359 2.491 . S
O370 Dy359 2.403 . S
O370 C365 1.254 . S
O371 Dy356 2.310 . S
O371 Dy359 2.664 . S
O371 C365 1.268 . S
O372 Dy356 2.351 . S
O372 C375 1.249 . S
O373 Dy359 2.326 . S
O373 C375 1.267 . S
C374 O366 1.249 . S
C374 O367 1.267 . S
C375 O372 1.249 . S
C375 O373 1.267 . S
Dy376 O380 2.398 1_545 S
Dy376 O381 2.491 1_545 S
Dy376 O382 2.403 . S
Dy376 O383 2.664 . S
Dy376 O387 2.326 1_545 S
Dy376 O391 2.310 . S
Dy376 O392 2.351 . S
C377 O388 1.185 . S
C377 O389 1.355 . S
C378 O380 1.185 . S
C378 O381 1.355 . S
Dy379 O383 2.310 . S
Dy379 O386 2.351 1_545 S
Dy379 O388 2.398 . S
Dy379 O389 2.491 . S
Dy379 O390 2.403 . S
Dy379 O391 2.664 . S
Dy379 O393 2.326 . S
O380 Dy376 2.398 1_565 S
O380 C378 1.185 . S
O381 Dy376 2.491 1_565 S
O381 C378 1.355 . S
O382 Dy376 2.403 . S
O382 C384 1.254 . S
O383 Dy376 2.664 . S
O383 Dy379 2.310 . S
O383 C384 1.268 . S
C384 O382 1.254 . S
C384 O383 1.268 . S
C385 O390 1.254 . S
C385 O391 1.268 . S
O386 Dy379 2.351 1_565 S
O386 C394 1.249 . S
O387 Dy376 2.326 1_565 S
O387 C394 1.267 . S
O388 C377 1.185 . S
O388 Dy379 2.398 . S
O389 C377 1.355 . S
O389 Dy379 2.491 . S
O390 Dy379 2.403 . S
O390 C385 1.254 . S
O391 Dy376 2.310 . S
O391 Dy379 2.664 . S
O391 C385 1.268 . S
O392 Dy376 2.351 . S
O392 C395 1.249 . S
O393 Dy379 2.326 . S
O393 C395 1.267 . S
C394 O386 1.249 . S
C394 O387 1.267 . S
C395 O392 1.249 . S
C395 O393 1.267 . S
Dy396 O400 2.398 . S
Dy396 O401 2.491 . S
Dy396 O402 2.403 . S
Dy396 O403 2.664 . S
Dy396 O407 2.326 . S
Dy396 O411 2.310 . S
Dy396 O412 2.351 . S
C397 O408 1.185 . S
C397 O409 1.355 . S
C398 O400 1.185 . S
C398 O401 1.355 . S
Dy399 O403 2.310 . S
Dy399 O406 2.351 . S
Dy399 O408 2.398 . S
Dy399 O409 2.491 . S
Dy399 O410 2.403 . S
Dy399 O411 2.664 . S
Dy399 O413 2.326 . S
O400 Dy396 2.398 . S
O400 C398 1.185 . S
O401 Dy396 2.491 . S
O401 C398 1.355 . S
O402 Dy396 2.403 . S
O402 C404 1.254 . S
O403 Dy396 2.664 . S
O403 Dy399 2.310 . S
O403 C404 1.268 . S
C404 O402 1.254 . S
C404 O403 1.268 . S
C405 O410 1.254 . S
C405 O411 1.268 . S
O406 Dy399 2.351 . S
O406 C414 1.249 . S
O407 Dy396 2.326 . S
O407 C414 1.267 . S
O408 C397 1.185 . S
O408 Dy399 2.398 . S
O409 C397 1.355 . S
O409 Dy399 2.491 . S
O410 Dy399 2.403 . S
O410 C405 1.254 . S
O411 Dy396 2.310 . S
O411 Dy399 2.664 . S
O411 C405 1.268 . S
O412 Dy396 2.351 . S
O412 C415 1.249 . S
O413 Dy399 2.326 . S
O413 C415 1.267 . S
C414 O406 1.249 . S
C414 O407 1.267 . S
C415 O412 1.249 . S
C415 O413 1.267 . S
Dy416 O420 2.398 1_565 S
Dy416 O421 2.491 1_465 S
Dy416 O422 2.403 1_565 S
Dy416 O423 2.664 1_565 S
Dy416 O427 2.326 1_565 S
Dy416 O431 2.310 1_465 S
Dy416 O432 2.351 . S
C417 O428 1.185 . S
C417 O429 1.355 . S
C418 O420 1.185 1_655 S
C418 O421 1.355 . S
Dy419 O423 2.310 . S
Dy419 O426 2.351 . S
Dy419 O428 2.398 . S
Dy419 O429 2.491 . S
Dy419 O430 2.403 1_455 S
Dy419 O431 2.664 1_455 S
Dy419 O433 2.326 1_545 S
O420 Dy416 2.398 1_545 S
O420 C418 1.185 1_455 S
O421 Dy416 2.491 1_645 S
O421 C418 1.355 . S
O422 Dy416 2.403 1_545 S
O422 C424 1.254 . S
O423 Dy416 2.664 1_545 S
O423 Dy419 2.310 . S
O423 C424 1.268 . S
C424 O422 1.254 . S
C424 O423 1.268 . S
C425 O430 1.254 1_565 S
C425 O431 1.268 1_565 S
O426 Dy419 2.351 . S
O426 C434 1.249 . S
O427 Dy416 2.326 1_545 S
O427 C434 1.267 . S
O428 C417 1.185 . S
O428 Dy419 2.398 . S
O429 C417 1.355 . S
O429 Dy419 2.491 . S
O430 Dy419 2.403 1_655 S
O430 C425 1.254 1_545 S
O431 Dy416 2.310 1_645 S
O431 Dy419 2.664 1_655 S
O431 C425 1.268 1_545 S
O432 Dy416 2.351 . S
O432 C435 1.249 . S
O433 Dy419 2.326 1_565 S
O433 C435 1.267 . S
C434 O426 1.249 . S
C434 O427 1.267 . S
C435 O432 1.249 . S
C435 O433 1.267 . S
Dy436 O440 2.398 . S
Dy436 O441 2.491 . S
Dy436 O442 2.403 . S
Dy436 O443 2.664 . S
Dy436 O447 2.326 . S
Dy436 O451 2.310 . S
Dy436 O452 2.351 . S
C437 O448 1.185 . S
C437 O449 1.355 . S
C438 O440 1.185 . S
C438 O441 1.355 . S
Dy439 O443 2.310 . S
Dy439 O446 2.351 . S
Dy439 O448 2.398 . S
Dy439 O449 2.491 . S
Dy439 O450 2.403 . S
Dy439 O451 2.664 . S
Dy439 O453 2.326 . S
O440 Dy436 2.398 . S
O440 C438 1.185 . S
O441 Dy436 2.491 . S
O441 C438 1.355 . S
O442 Dy436 2.403 . S
O442 C444 1.254 . S
O443 Dy436 2.664 . S
O443 Dy439 2.310 . S
O443 C444 1.268 . S
C444 O442 1.254 . S
C444 O443 1.268 . S
C445 O450 1.254 . S
C445 O451 1.268 . S
O446 Dy439 2.351 . S
O446 C454 1.249 . S
O447 Dy436 2.326 . S
O447 C454 1.267 . S
O448 C437 1.185 . S
O448 Dy439 2.398 . S
O449 C437 1.355 . S
O449 Dy439 2.491 . S
O450 Dy439 2.403 . S
O450 C445 1.254 . S
O451 Dy436 2.310 . S
O451 Dy439 2.664 . S
O451 C445 1.268 . S
O452 Dy436 2.351 . S
O452 C455 1.249 . S
O453 Dy439 2.326 . S
O453 C455 1.267 . S
C454 O446 1.249 . S
C454 O447 1.267 . S
C455 O452 1.249 . S
C455 O453 1.267 . S
Dy456 O460 2.398 1_545 S
Dy456 O461 2.491 . S
Dy456 O462 2.403 1_545 S
Dy456 O463 2.664 1_544 S
Dy456 O467 2.326 1_545 S
Dy456 O471 2.310 . S
Dy456 O472 2.351 . S
C457 O468 1.185 . S
C457 O469 1.355 . S
C458 O460 1.185 . S
C458 O461 1.355 1_565 S
Dy459 O463 2.310 1_545 S
Dy459 O466 2.353 . S
Dy459 O468 2.398 . S
Dy459 O469 2.491 . S
Dy459 O470 2.403 . S
Dy459 O471 2.664 1_556 S
Dy459 O473 2.326 . S
O460 Dy456 2.398 1_565 S
O460 C458 1.185 . S
O461 Dy456 2.491 . S
O461 C458 1.355 1_545 S
O462 Dy456 2.403 1_565 S
O462 C464 1.254 1_554 S
O463 Dy456 2.664 1_566 S
O463 Dy459 2.310 1_565 S
O463 C464 1.268 . S
C464 O462 1.254 1_556 S
C464 O463 1.268 . S
C465 O470 1.254 1_554 S
C465 O471 1.268 . S
O466 Dy459 2.353 . S
O466 C474 1.246 1_546 S
O467 Dy456 2.326 1_565 S
O467 C474 1.267 . S
O468 C457 1.185 . S
O468 Dy459 2.398 . S
O469 C457 1.355 . S
O469 Dy459 2.491 . S
O470 Dy459 2.403 . S
O470 C465 1.254 1_556 S
O471 Dy456 2.310 . S
O471 Dy459 2.664 1_554 S
O471 C465 1.268 . S
O472 Dy456 2.351 . S
O472 C475 1.249 . S
O473 Dy459 2.326 . S
O473 C475 1.267 1_556 S
C474 O466 1.246 1_564 S
C474 O467 1.267 . S
C475 O472 1.249 . S
C475 O473 1.267 1_554 S
Dy476 O480 2.398 . S
Dy476 O481 2.491 . S
Dy476 O482 2.403 . S
Dy476 O483 2.664 . S
Dy476 O487 2.326 . S
Dy476 O491 2.310 . S
Dy476 O492 2.351 . S
C477 O488 1.185 . S
C477 O489 1.355 . S
C478 O480 1.185 . S
C478 O481 1.355 . S
Dy479 O483 2.310 . S
Dy479 O486 2.351 . S
Dy479 O488 2.398 . S
Dy479 O489 2.491 . S
Dy479 O490 2.403 . S
Dy479 O491 2.664 . S
Dy479 O493 2.326 . S
O480 Dy476 2.398 . S
O480 C478 1.185 . S
O481 Dy476 2.491 . S
O481 C478 1.355 . S
O482 Dy476 2.403 . S
O482 C484 1.254 . S
O483 Dy476 2.664 . S
O483 Dy479 2.310 . S
O483 C484 1.268 . S
C484 O482 1.254 . S
C484 O483 1.268 . S
C485 O490 1.254 . S
C485 O491 1.268 . S
O486 Dy479 2.351 . S
O486 C494 1.249 . S
O487 Dy476 2.326 . S
O487 C494 1.267 . S
O488 C477 1.185 . S
O488 Dy479 2.398 . S
O489 C477 1.355 . S
O489 Dy479 2.491 . S
O490 Dy479 2.403 . S
O490 C485 1.254 . S
O491 Dy476 2.310 . S
O491 Dy479 2.664 . S
O491 C485 1.268 . S
O492 Dy476 2.351 . S
O492 C495 1.249 . S
O493 Dy479 2.326 . S
O493 C495 1.267 . S
C494 O486 1.249 . S
C494 O487 1.267 . S
C495 O492 1.249 . S
C495 O493 1.267 . S
Dy496 O500 2.398 . S
Dy496 O501 2.491 . S
Dy496 O502 2.403 . S
Dy496 O503 2.664 1_556 S
Dy496 O507 2.326 . S
Dy496 O511 2.310 1_556 S
Dy496 O512 2.351 . S
C497 O508 1.185 . S
C497 O509 1.355 . S
C498 O500 1.185 . S
C498 O501 1.355 . S
Dy499 O503 2.310 . S
Dy499 O506 2.351 . S
Dy499 O508 2.398 . S
Dy499 O509 2.491 . S
Dy499 O510 2.403 . S
Dy499 O511 2.664 . S
Dy499 O513 2.326 . S
O500 Dy496 2.398 . S
O500 C498 1.185 . S
O501 Dy496 2.491 . S
O501 C498 1.355 . S
O502 Dy496 2.403 . S
O502 C504 1.254 . S
O503 Dy496 2.664 1_554 S
O503 Dy499 2.310 . S
O503 C504 1.268 1_554 S
C504 O502 1.254 . S
C504 O503 1.268 1_556 S
C505 O510 1.254 . S
C505 O511 1.268 . S
O506 Dy499 2.351 . S
O506 C514 1.249 1_554 S
O507 Dy496 2.326 . S
O507 C514 1.267 . S
O508 C497 1.185 . S
O508 Dy499 2.398 . S
O509 C497 1.355 . S
O509 Dy499 2.491 . S
O510 Dy499 2.403 . S
O510 C505 1.254 . S
O511 Dy496 2.310 1_554 S
O511 Dy499 2.664 . S
O511 C505 1.268 . S
O512 Dy496 2.351 . S
O512 C515 1.249 1_556 S
O513 Dy499 2.326 . S
O513 C515 1.267 . S
C514 O506 1.249 1_556 S
C514 O507 1.267 . S
C515 O512 1.249 1_554 S
C515 O513 1.267 . S
Dy516 O520 2.398 . S
Dy516 O521 2.491 . S
Dy516 O522 2.403 . S
Dy516 O523 2.664 . S
Dy516 O527 2.326 . S
Dy516 O531 2.310 . S
Dy516 O532 2.351 . S
C517 O528 1.185 . S
C517 O529 1.355 . S
C518 O520 1.185 . S
C518 O521 1.355 . S
Dy519 O523 2.310 . S
Dy519 O526 2.351 . S
Dy519 O528 2.398 . S
Dy519 O529 2.491 . S
Dy519 O530 2.403 . S
Dy519 O531 2.664 . S
Dy519 O533 2.326 . S
O520 Dy516 2.398 . S
O520 C518 1.185 . S
O521 Dy516 2.491 . S
O521 C518 1.355 . S
O522 Dy516 2.403 . S
O522 C524 1.254 . S
O523 Dy516 2.664 . S
O523 Dy519 2.310 . S
O523 C524 1.268 . S
C524 O522 1.254 . S
C524 O523 1.268 . S
C525 O530 1.254 . S
C525 O531 1.268 . S
O526 Dy519 2.351 . S
O526 C534 1.249 . S
O527 Dy516 2.326 . S
O527 C534 1.267 . S
O528 C517 1.185 . S
O528 Dy519 2.398 . S
O529 C517 1.355 . S
O529 Dy519 2.491 . S
O530 Dy519 2.403 . S
O530 C525 1.254 . S
O531 Dy516 2.310 . S
O531 Dy519 2.664 . S
O531 C525 1.268 . S
O532 Dy516 2.351 . S
O532 C535 1.249 . S
O533 Dy519 2.326 . S
O533 C535 1.267 . S
C534 O526 1.249 . S
C534 O527 1.267 . S
C535 O532 1.249 . S
C535 O533 1.267 . S
Dy536 O540 2.391 1_455 S
Dy536 O541 2.491 1_455 S
Dy536 O542 2.403 . S
Dy536 O543 2.664 . S
Dy536 O547 2.326 1_455 S
Dy536 O551 2.310 . S
Dy536 O552 2.351 . S
C537 O548 1.185 . S
C537 O549 1.355 . S
C538 O540 1.201 . S
C538 O541 1.355 . S
Dy539 O543 2.310 . S
Dy539 O546 2.351 1_455 S
Dy539 O548 2.398 . S
Dy539 O549 2.491 . S
Dy539 O550 2.403 . S
Dy539 O551 2.664 . S
Dy539 O553 2.326 . S
O540 Dy536 2.391 1_655 S
O540 C538 1.201 . S
O541 Dy536 2.491 1_655 S
O541 C538 1.355 . S
O542 Dy536 2.403 . S
O542 C544 1.254 . S
O543 Dy536 2.664 . S
O543 Dy539 2.310 . S
O543 C544 1.268 . S
C544 O542 1.254 . S
C544 O543 1.268 . S
C545 O550 1.254 . S
C545 O551 1.268 . S
O546 Dy539 2.351 1_655 S
O546 C554 1.249 . S
O547 Dy536 2.326 1_655 S
O547 C554 1.267 . S
O548 C537 1.185 . S
O548 Dy539 2.398 . S
O549 C537 1.355 . S
O549 Dy539 2.491 . S
O550 Dy539 2.403 . S
O550 C545 1.254 . S
O551 Dy536 2.310 . S
O551 Dy539 2.664 . S
O551 C545 1.268 . S
O552 Dy536 2.351 . S
O552 C555 1.249 . S
O553 Dy539 2.326 . S
O553 C555 1.267 . S
C554 O546 1.249 . S
C554 O547 1.267 . S
C555 O552 1.249 . S
C555 O553 1.267 . S
Dy556 O560 2.398 . S
Dy556 O561 2.491 . S
Dy556 O562 2.403 . S
Dy556 O563 2.664 . S
Dy556 O567 2.326 . S
Dy556 O571 2.310 . S
Dy556 O572 2.351 . S
C557 O568 1.185 . S
C557 O569 1.355 . S
C558 O560 1.185 . S
C558 O561 1.355 . S
Dy559 O563 2.310 . S
Dy559 O566 2.351 . S
Dy559 O568 2.398 . S
Dy559 O569 2.491 . S
Dy559 O570 2.403 . S
Dy559 O571 2.664 . S
Dy559 O573 2.326 . S
O560 Dy556 2.398 . S
O560 C558 1.185 . S
O561 Dy556 2.491 . S
O561 C558 1.355 . S
O562 Dy556 2.403 . S
O562 C564 1.254 . S
O563 Dy556 2.664 . S
O563 Dy559 2.310 . S
O563 C564 1.268 . S
C564 O562 1.254 . S
C564 O563 1.268 . S
C565 O570 1.254 . S
C565 O571 1.268 . S
O566 Dy559 2.351 . S
O566 C574 1.249 . S
O567 Dy556 2.326 . S
O567 C574 1.267 . S
O568 C557 1.185 . S
O568 Dy559 2.398 . S
O569 C557 1.355 . S
O569 Dy559 2.491 . S
O570 Dy559 2.403 . S
O570 C565 1.254 . S
O571 Dy556 2.310 . S
O571 Dy559 2.664 . S
O571 C565 1.268 . S
O572 Dy556 2.351 . S
O572 C575 1.249 . S
O573 Dy559 2.326 . S
O573 C575 1.267 . S
C574 O566 1.249 . S
C574 O567 1.267 . S
C575 O572 1.249 . S
C575 O573 1.267 . S
Dy576 O580 2.398 . S
Dy576 O581 2.491 . S
Dy576 O582 2.403 . S
Dy576 O583 2.664 . S
Dy576 O587 2.326 . S
Dy576 O591 2.310 . S
Dy576 O592 2.351 . S
C577 O588 1.185 . S
C577 O589 1.355 . S
C578 O580 1.185 . S
C578 O581 1.355 . S
Dy579 O583 2.310 . S
Dy579 O586 2.351 . S
Dy579 O588 2.398 . S
Dy579 O589 2.491 . S
Dy579 O590 2.403 . S
Dy579 O591 2.664 . S
Dy579 O593 2.326 . S
O580 Dy576 2.398 . S
O580 C578 1.185 . S
O581 Dy576 2.491 . S
O581 C578 1.355 . S
O582 Dy576 2.403 . S
O582 C584 1.254 . S
O583 Dy576 2.664 . S
O583 Dy579 2.310 . S
O583 C584 1.268 . S
C584 O582 1.254 . S
C584 O583 1.268 . S
C585 O590 1.254 . S
C585 O591 1.268 . S
O586 Dy579 2.351 . S
O586 C594 1.249 . S
O587 Dy576 2.326 . S
O587 C594 1.267 . S
O588 C577 1.185 . S
O588 Dy579 2.398 . S
O589 C577 1.355 . S
O589 Dy579 2.491 . S
O590 Dy579 2.403 . S
O590 C585 1.254 . S
O591 Dy576 2.310 . S
O591 Dy579 2.664 . S
O591 C585 1.268 . S
O592 Dy576 2.351 . S
O592 C595 1.249 . S
O593 Dy579 2.326 . S
O593 C595 1.267 . S
C594 O586 1.249 . S
C594 O587 1.267 . S
C595 O592 1.249 . S
C595 O593 1.267 . S
Dy596 O600 2.398 . S
Dy596 O601 2.491 . S
Dy596 O602 2.403 . S
Dy596 O603 2.664 . S
Dy596 O607 2.326 . S
Dy596 O611 2.310 . S
Dy596 O612 2.351 . S
C597 O608 1.185 . S
C597 O609 1.355 . S
C598 O600 1.185 . S
C598 O601 1.355 . S
Dy599 O603 2.310 . S
Dy599 O606 2.351 . S
Dy599 O608 2.398 . S
Dy599 O609 2.491 . S
Dy599 O610 2.403 . S
Dy599 O611 2.664 . S
Dy599 O613 2.326 . S
O600 Dy596 2.398 . S
O600 C598 1.185 . S
O601 Dy596 2.491 . S
O601 C598 1.355 . S
O602 Dy596 2.403 . S
O602 C604 1.254 . S
O603 Dy596 2.664 . S
O603 Dy599 2.310 . S
O603 C604 1.268 . S
C604 O602 1.254 . S
C604 O603 1.268 . S
C605 O610 1.254 . S
C605 O611 1.268 . S
O606 Dy599 2.351 . S
O606 C614 1.249 . S
O607 Dy596 2.326 . S
O607 C614 1.267 . S
O608 C597 1.185 . S
O608 Dy599 2.398 . S
O609 C597 1.355 . S
O609 Dy599 2.491 . S
O610 Dy599 2.403 . S
O610 C605 1.254 . S
O611 Dy596 2.310 . S
O611 Dy599 2.664 . S
O611 C605 1.268 . S
O612 Dy596 2.351 . S
O612 C615 1.249 . S
O613 Dy599 2.326 . S
O613 C615 1.267 . S
C614 O606 1.249 . S
C614 O607 1.267 . S
C615 O612 1.249 . S
C615 O613 1.267 . S
Dy616 O620 2.398 . S
Dy616 O621 2.491 . S
Dy616 O622 2.403 . S
Dy616 O623 2.664 . S
Dy616 O627 2.326 . S
Dy616 O631 2.310 . S
Dy616 O632 2.351 . S
C617 O628 1.185 . S
C617 O629 1.355 . S
C618 O620 1.185 . S
C618 O621 1.355 . S
Dy619 O623 2.310 . S
Dy619 O626 2.351 . S
Dy619 O628 2.398 . S
Dy619 O629 2.491 . S
Dy619 O630 2.403 . S
Dy619 O631 2.664 . S
Dy619 O633 2.326 . S
O620 Dy616 2.398 . S
O620 C618 1.185 . S
O621 Dy616 2.491 . S
O621 C618 1.355 . S
O622 Dy616 2.403 . S
O622 C624 1.254 . S
O623 Dy616 2.664 . S
O623 Dy619 2.310 . S
O623 C624 1.268 . S
C624 O622 1.254 . S
C624 O623 1.268 . S
C625 O630 1.254 . S
C625 O631 1.268 . S
O626 Dy619 2.351 . S
O626 C634 1.249 . S
O627 Dy616 2.326 . S
O627 C634 1.267 . S
O628 C617 1.185 . S
O628 Dy619 2.398 . S
O629 C617 1.355 . S
O629 Dy619 2.491 . S
O630 Dy619 2.403 . S
O630 C625 1.254 . S
O631 Dy616 2.310 . S
O631 Dy619 2.664 . S
O631 C625 1.268 . S
O632 Dy616 2.351 . S
O632 C635 1.249 . S
O633 Dy619 2.326 . S
O633 C635 1.267 . S
C634 O626 1.249 . S
C634 O627 1.267 . S
C635 O632 1.249 . S
C635 O633 1.267 . S
Dy636 O640 2.398 . S
Dy636 O641 2.491 1_556 S
Dy636 O642 2.403 . S
Dy636 O643 2.664 . S
Dy636 O647 2.326 . S
Dy636 O651 2.310 1_556 S
Dy636 O652 2.351 1_556 S
C637 O648 1.185 . S
C637 O649 1.355 . S
C638 O640 1.185 . S
C638 O641 1.355 1_556 S
Dy639 O643 2.310 1_654 S
Dy639 O646 2.351 . S
Dy639 O648 2.398 . S
Dy639 O649 2.491 . S
Dy639 O650 2.403 . S
Dy639 O651 2.664 1_655 S
Dy639 O653 2.326 1_655 S
O640 Dy636 2.398 . S
O640 C638 1.185 . S
O641 Dy636 2.491 1_554 S
O641 C638 1.355 1_554 S
O642 Dy636 2.403 . S
O642 C644 1.254 . S
O643 Dy636 2.664 . S
O643 Dy639 2.310 1_456 S
O643 C644 1.268 . S
C644 O642 1.254 . S
C644 O643 1.268 . S
C645 O650 1.254 1_455 S
C645 O651 1.268 . S
O646 Dy639 2.351 . S
O646 C654 1.249 1_654 S
O647 Dy636 2.326 . S
O647 C654 1.267 . S
O648 C637 1.185 . S
O648 Dy639 2.398 . S
O649 C637 1.355 . S
O649 Dy639 2.491 . S
O650 Dy639 2.403 . S
O650 C645 1.254 1_655 S
O651 Dy636 2.310 1_554 S
O651 Dy639 2.664 1_455 S
O651 C645 1.268 . S
O652 Dy636 2.351 1_554 S
O652 C655 1.249 . S
O653 Dy639 2.326 1_455 S
O653 C655 1.267 . S
C654 O646 1.249 1_456 S
C654 O647 1.267 . S
C655 O652 1.249 . S
C655 O653 1.267 . S
C109 C354 1.980 1_655 S
C65 C365 2.259 . S
C75 C394 1.304 . S
C397 C84 1.437 . S
C25 C435 1.841 . S
C438 C28 1.655 . S
C465 C47 1.909 . S
C9 C494 2.191 . S
C345 C233 2.342 1_455 S
C249 C357 1.534 . S
C385 C275 1.785 . S
C414 C173 1.374 . S
C224 C418 1.562 . S
C444 C243 1.953 . S
C457 C266 0.755 . S
C485 C179 1.999 . S
C337 C163 2.242 1_545 S
C289 C504 2.122 . S
C535 C333 2.002 . S
C554 C308 0.822 . S
C123 C477 2.155 . S
C126 C377 1.937 . S
C327 C565 1.894 . S
C594 C299 1.377 . S
C355 C67 2.032 . S
C584 C98 2.110 . S
C89 C395 1.294 . S
C79 C558 1.590 . S
C434 C11 1.886 . S
C51 C517 1.823 . S
C464 C33 1.950 . S
C615 C14 2.067 . S
C344 C140 2.167 1_565 S
C578 C319 1.584 . S
C112 C384 1.730 . S
C285 C575 1.399 . S
C149 C417 1.729 1_565 S
C525 C313 1.931 . S
C121 C458 0.908 1_545 S
C291 C604 2.021 . S
C182 C338 2.249 1_554 S
C168 C505 2.015 . S
C263 C454 2.084 . S
C247 C555 0.849 . S
C598 C277 2.194 . S
C219 C378 2.101 . S
C404 C257 1.939 . S
C375 C201 1.262 . S
C81 C634 1.982 . S
C585 C93 2.259 . S
C103 C654 1.304 . S
C56 C557 1.437 . S
C53 C515 1.842 . S
C518 C0 1.655 . S
C545 C19 1.909 1_455 S
C614 C37 2.191 . S
C625 C261 2.342 . S
C193 C577 1.534 . S
C645 C205 1.785 . S
C574 C215 1.374 . S
C498 C252 1.562 . S
C187 C524 1.953 . S
C537 C196 0.755 . S
C221 C605 1.999 . S
C617 C317 2.241 . S
C135 C424 2.122 . S
C455 C151 2.002 . S
C474 C154 0.823 . S
C597 C305 2.156 . S
C280 C637 1.938 . S
C405 C145 1.895 . S
C374 C117 1.377 . S
C95 C635 2.032 . S
C364 C70 2.109 . S
C61 C655 1.294 . S
C107 C398 1.588 . S
C39 C514 1.886 . S
C437 C23 1.823 . S
C5 C544 1.949 . S
C42 C495 2.067 . S
C624 C322 2.167 . S
C165 C358 1.584 . S
C644 C294 1.729 1_455 S
C131 C415 1.399 . S
C331 C497 1.729 . S
C445 C159 1.930 . S
C303 C538 0.908 . S
C484 C137 2.021 . S
C618 C238 2.249 . S
C425 C210 2.015 . S
C235 C534 2.084 . S
C475 C191 0.849 . S
C207 C478 2.195 . S
C177 C638 2.101 1_554 S
C564 C229 1.939 . S
C595 C271 1.262 . S
