# Generated by pormake.
# Topology gar, (4,6)-cn, num edge types: 1
# Building blocks:
#     Node 0, Type 0, BuildingBlock: AZAVOO_clean_sbu_0, # of connection points: 4
#     Node 1, Type 0, BuildingBlock: AZAVOO_clean_sbu_0, # of connection points: 4
#     Node 2, Type 0, BuildingBlock: AZAVOO_clean_sbu_0, # of connection points: 4
#     Node 3, Type 0, BuildingBlock: AZAVOO_clean_sbu_0, # of connection points: 4
#     Node 4, Type 0, BuildingBlock: AZAVOO_clean_sbu_0, # of connection points: 4
#     Node 5, Type 0, BuildingBlock: AZAVOO_clean_sbu_0, # of connection points: 4
#     Node 6, Type 0, BuildingBlock: AZAVOO_clean_sbu_0, # of connection points: 4
#     Node 7, Type 0, BuildingBlock: AZAVOO_clean_sbu_0, # of connection points: 4
#     Node 8, Type 0, BuildingBlock: AZAVOO_clean_sbu_0, # of connection points: 4
#     Node 9, Type 0, BuildingBlock: AZAVOO_clean_sbu_0, # of connection points: 4
#     Node 10, Type 0, BuildingBlock: AZAVOO_clean_sbu_0, # of connection points: 4
#     Node 11, Type 0, BuildingBlock: AZAVOO_clean_sbu_0, # of connection points: 4
#     Node 12, Type 0, BuildingBlock: AZAVOO_clean_sbu_0, # of connection points: 4
#     Node 13, Type 0, BuildingBlock: AZAVOO_clean_sbu_0, # of connection points: 4
#     Node 14, Type 0, BuildingBlock: AZAVOO_clean_sbu_0, # of connection points: 4
#     Node 15, Type 0, BuildingBlock: AZAVOO_clean_sbu_0, # of connection points: 4
#     Node 16, Type 0, BuildingBlock: AZAVOO_clean_sbu_0, # of connection points: 4
#     Node 17, Type 0, BuildingBlock: AZAVOO_clean_sbu_0, # of connection points: 4
#     Node 18, Type 0, BuildingBlock: AZAVOO_clean_sbu_0, # of connection points: 4
#     Node 19, Type 0, BuildingBlock: AZAVOO_clean_sbu_0, # of connection points: 4
#     Node 20, Type 0, BuildingBlock: AZAVOO_clean_sbu_0, # of connection points: 4
#     Node 21, Type 0, BuildingBlock: AZAVOO_clean_sbu_0, # of connection points: 4
#     Node 22, Type 0, BuildingBlock: AZAVOO_clean_sbu_0, # of connection points: 4
#     Node 23, Type 0, BuildingBlock: AZAVOO_clean_sbu_0, # of connection points: 4
#     Node 24, Type 1, BuildingBlock: KUMBUR_clean_sbu_1, # of connection points: 6
#     Node 25, Type 1, BuildingBlock: KUMBUR_clean_sbu_1, # of connection points: 6
#     Node 26, Type 1, BuildingBlock: KUMBUR_clean_sbu_1, # of connection points: 6
#     Node 27, Type 1, BuildingBlock: KUMBUR_clean_sbu_1, # of connection points: 6
#     Node 28, Type 1, BuildingBlock: KUMBUR_clean_sbu_1, # of connection points: 6
#     Node 29, Type 1, BuildingBlock: KUMBUR_clean_sbu_1, # of connection points: 6
#     Node 30, Type 1, BuildingBlock: KUMBUR_clean_sbu_1, # of connection points: 6
#     Node 31, Type 1, BuildingBlock: KUMBUR_clean_sbu_1, # of connection points: 6
#     Node 32, Type 1, BuildingBlock: KUMBUR_clean_sbu_1, # of connection points: 6
#     Node 33, Type 1, BuildingBlock: KUMBUR_clean_sbu_1, # of connection points: 6
#     Node 34, Type 1, BuildingBlock: KUMBUR_clean_sbu_1, # of connection points: 6
#     Node 35, Type 1, BuildingBlock: KUMBUR_clean_sbu_1, # of connection points: 6
#     Node 36, Type 1, BuildingBlock: KUMBUR_clean_sbu_1, # of connection points: 6
#     Node 37, Type 1, BuildingBlock: KUMBUR_clean_sbu_1, # of connection points: 6
#     Node 38, Type 1, BuildingBlock: KUMBUR_clean_sbu_1, # of connection points: 6
#     Node 39, Type 1, BuildingBlock: KUMBUR_clean_sbu_1, # of connection points: 6
#     Edge 40, Type (0, 1), BuildingBlock: UVAHIK_clean_linker_0, # of connection points: 2
#     Edge 41, Type (0, 1), BuildingBlock: UVAHIK_clean_linker_0, # of connection points: 2
#     Edge 42, Type (0, 1), BuildingBlock: UVAHIK_clean_linker_0, # of connection points: 2
#     Edge 43, Type (0, 1), BuildingBlock: UVAHIK_clean_linker_0, # of connection points: 2
#     Edge 44, Type (0, 1), BuildingBlock: UVAHIK_clean_linker_0, # of connection points: 2
#     Edge 45, Type (0, 1), BuildingBlock: UVAHIK_clean_linker_0, # of connection points: 2
#     Edge 46, Type (0, 1), BuildingBlock: UVAHIK_clean_linker_0, # of connection points: 2
#     Edge 47, Type (0, 1), BuildingBlock: UVAHIK_clean_linker_0, # of connection points: 2
#     Edge 48, Type (0, 1), BuildingBlock: UVAHIK_clean_linker_0, # of connection points: 2
#     Edge 49, Type (0, 1), BuildingBlock: UVAHIK_clean_linker_0, # of connection points: 2
#     Edge 50, Type (0, 1), BuildingBlock: UVAHIK_clean_linker_0, # of connection points: 2
#     Edge 51, Type (0, 1), BuildingBlock: UVAHIK_clean_linker_0, # of connection points: 2
#     Edge 52, Type (0, 1), BuildingBlock: UVAHIK_clean_linker_0, # of connection points: 2
#     Edge 53, Type (0, 1), BuildingBlock: UVAHIK_clean_linker_0, # of connection points: 2
#     Edge 54, Type (0, 1), BuildingBlock: UVAHIK_clean_linker_0, # of connection points: 2
#     Edge 55, Type (0, 1), BuildingBlock: UVAHIK_clean_linker_0, # of connection points: 2
#     Edge 56, Type (0, 1), BuildingBlock: UVAHIK_clean_linker_0, # of connection points: 2
#     Edge 57, Type (0, 1), BuildingBlock: UVAHIK_clean_linker_0, # of connection points: 2
#     Edge 58, Type (0, 1), BuildingBlock: UVAHIK_clean_linker_0, # of connection points: 2
#     Edge 59, Type (0, 1), BuildingBlock: UVAHIK_clean_linker_0, # of connection points: 2
#     Edge 60, Type (0, 1), BuildingBlock: UVAHIK_clean_linker_0, # of connection points: 2
#     Edge 61, Type (0, 1), BuildingBlock: UVAHIK_clean_linker_0, # of connection points: 2
#     Edge 62, Type (0, 1), BuildingBlock: UVAHIK_clean_linker_0, # of connection points: 2
#     Edge 63, Type (0, 1), BuildingBlock: UVAHIK_clean_linker_0, # of connection points: 2
#     Edge 64, Type (0, 1), BuildingBlock: UVAHIK_clean_linker_0, # of connection points: 2
#     Edge 65, Type (0, 1), BuildingBlock: UVAHIK_clean_linker_0, # of connection points: 2
#     Edge 66, Type (0, 1), BuildingBlock: UVAHIK_clean_linker_0, # of connection points: 2
#     Edge 67, Type (0, 1), BuildingBlock: UVAHIK_clean_linker_0, # of connection points: 2
#     Edge 68, Type (0, 1), BuildingBlock: UVAHIK_clean_linker_0, # of connection points: 2
#     Edge 69, Type (0, 1), BuildingBlock: UVAHIK_clean_linker_0, # of connection points: 2
#     Edge 70, Type (0, 1), BuildingBlock: UVAHIK_clean_linker_0, # of connection points: 2
#     Edge 71, Type (0, 1), BuildingBlock: UVAHIK_clean_linker_0, # of connection points: 2
#     Edge 72, Type (0, 1), BuildingBlock: UVAHIK_clean_linker_0, # of connection points: 2
#     Edge 73, Type (0, 1), BuildingBlock: UVAHIK_clean_linker_0, # of connection points: 2
#     Edge 74, Type (0, 1), BuildingBlock: UVAHIK_clean_linker_0, # of connection points: 2
#     Edge 75, Type (0, 1), BuildingBlock: UVAHIK_clean_linker_0, # of connection points: 2
#     Edge 76, Type (0, 1), BuildingBlock: UVAHIK_clean_linker_0, # of connection points: 2
#     Edge 77, Type (0, 1), BuildingBlock: UVAHIK_clean_linker_0, # of connection points: 2
#     Edge 78, Type (0, 1), BuildingBlock: UVAHIK_clean_linker_0, # of connection points: 2
#     Edge 79, Type (0, 1), BuildingBlock: UVAHIK_clean_linker_0, # of connection points: 2
#     Edge 80, Type (0, 1), BuildingBlock: UVAHIK_clean_linker_0, # of connection points: 2
#     Edge 81, Type (0, 1), BuildingBlock: UVAHIK_clean_linker_0, # of connection points: 2
#     Edge 82, Type (0, 1), BuildingBlock: UVAHIK_clean_linker_0, # of connection points: 2
#     Edge 83, Type (0, 1), BuildingBlock: UVAHIK_clean_linker_0, # of connection points: 2
#     Edge 84, Type (0, 1), BuildingBlock: UVAHIK_clean_linker_0, # of connection points: 2
#     Edge 85, Type (0, 1), BuildingBlock: UVAHIK_clean_linker_0, # of connection points: 2
#     Edge 86, Type (0, 1), BuildingBlock: UVAHIK_clean_linker_0, # of connection points: 2
#     Edge 87, Type (0, 1), BuildingBlock: UVAHIK_clean_linker_0, # of connection points: 2
#     Edge 88, Type (0, 1), BuildingBlock: UVAHIK_clean_linker_0, # of connection points: 2
#     Edge 89, Type (0, 1), BuildingBlock: UVAHIK_clean_linker_0, # of connection points: 2
#     Edge 90, Type (0, 1), BuildingBlock: UVAHIK_clean_linker_0, # of connection points: 2
#     Edge 91, Type (0, 1), BuildingBlock: UVAHIK_clean_linker_0, # of connection points: 2
#     Edge 92, Type (0, 1), BuildingBlock: UVAHIK_clean_linker_0, # of connection points: 2
#     Edge 93, Type (0, 1), BuildingBlock: UVAHIK_clean_linker_0, # of connection points: 2
#     Edge 94, Type (0, 1), BuildingBlock: UVAHIK_clean_linker_0, # of connection points: 2
#     Edge 95, Type (0, 1), BuildingBlock: UVAHIK_clean_linker_0, # of connection points: 2
#     Edge 96, Type (0, 1), BuildingBlock: UVAHIK_clean_linker_0, # of connection points: 2
#     Edge 97, Type (0, 1), BuildingBlock: UVAHIK_clean_linker_0, # of connection points: 2
#     Edge 98, Type (0, 1), BuildingBlock: UVAHIK_clean_linker_0, # of connection points: 2
#     Edge 99, Type (0, 1), BuildingBlock: UVAHIK_clean_linker_0, # of connection points: 2
#     Edge 100, Type (0, 1), BuildingBlock: UVAHIK_clean_linker_0, # of connection points: 2
#     Edge 101, Type (0, 1), BuildingBlock: UVAHIK_clean_linker_0, # of connection points: 2
#     Edge 102, Type (0, 1), BuildingBlock: UVAHIK_clean_linker_0, # of connection points: 2
#     Edge 103, Type (0, 1), BuildingBlock: UVAHIK_clean_linker_0, # of connection points: 2
#     Edge 104, Type (0, 1), BuildingBlock: UVAHIK_clean_linker_0, # of connection points: 2
#     Edge 105, Type (0, 1), BuildingBlock: UVAHIK_clean_linker_0, # of connection points: 2
#     Edge 106, Type (0, 1), BuildingBlock: UVAHIK_clean_linker_0, # of connection points: 2
#     Edge 107, Type (0, 1), BuildingBlock: UVAHIK_clean_linker_0, # of connection points: 2
#     Edge 108, Type (0, 1), BuildingBlock: UVAHIK_clean_linker_0, # of connection points: 2
#     Edge 109, Type (0, 1), BuildingBlock: UVAHIK_clean_linker_0, # of connection points: 2
#     Edge 110, Type (0, 1), BuildingBlock: UVAHIK_clean_linker_0, # of connection points: 2
#     Edge 111, Type (0, 1), BuildingBlock: UVAHIK_clean_linker_0, # of connection points: 2
#     Edge 112, Type (0, 1), BuildingBlock: UVAHIK_clean_linker_0, # of connection points: 2
#     Edge 113, Type (0, 1), BuildingBlock: UVAHIK_clean_linker_0, # of connection points: 2
#     Edge 114, Type (0, 1), BuildingBlock: UVAHIK_clean_linker_0, # of connection points: 2
#     Edge 115, Type (0, 1), BuildingBlock: UVAHIK_clean_linker_0, # of connection points: 2
#     Edge 116, Type (0, 1), BuildingBlock: UVAHIK_clean_linker_0, # of connection points: 2
#     Edge 117, Type (0, 1), BuildingBlock: UVAHIK_clean_linker_0, # of connection points: 2
#     Edge 118, Type (0, 1), BuildingBlock: UVAHIK_clean_linker_0, # of connection points: 2
#     Edge 119, Type (0, 1), BuildingBlock: UVAHIK_clean_linker_0, # of connection points: 2
#     Edge 120, Type (0, 1), BuildingBlock: UVAHIK_clean_linker_0, # of connection points: 2
#     Edge 121, Type (0, 1), BuildingBlock: UVAHIK_clean_linker_0, # of connection points: 2
#     Edge 122, Type (0, 1), BuildingBlock: UVAHIK_clean_linker_0, # of connection points: 2
#     Edge 123, Type (0, 1), BuildingBlock: UVAHIK_clean_linker_0, # of connection points: 2
#     Edge 124, Type (0, 1), BuildingBlock: UVAHIK_clean_linker_0, # of connection points: 2
#     Edge 125, Type (0, 1), BuildingBlock: UVAHIK_clean_linker_0, # of connection points: 2
#     Edge 126, Type (0, 1), BuildingBlock: UVAHIK_clean_linker_0, # of connection points: 2
#     Edge 127, Type (0, 1), BuildingBlock: UVAHIK_clean_linker_0, # of connection points: 2
#     Edge 128, Type (0, 1), BuildingBlock: UVAHIK_clean_linker_0, # of connection points: 2
#     Edge 129, Type (0, 1), BuildingBlock: UVAHIK_clean_linker_0, # of connection points: 2
#     Edge 130, Type (0, 1), BuildingBlock: UVAHIK_clean_linker_0, # of connection points: 2
#     Edge 131, Type (0, 1), BuildingBlock: UVAHIK_clean_linker_0, # of connection points: 2
#     Edge 132, Type (0, 1), BuildingBlock: UVAHIK_clean_linker_0, # of connection points: 2
#     Edge 133, Type (0, 1), BuildingBlock: UVAHIK_clean_linker_0, # of connection points: 2
#     Edge 134, Type (0, 1), BuildingBlock: UVAHIK_clean_linker_0, # of connection points: 2
#     Edge 135, Type (0, 1), BuildingBlock: UVAHIK_clean_linker_0, # of connection points: 2
# Relax obj value: 0.086
# Max RMSD: 0.201
# Mean RMSD: 0.150
data_MOF--net-gar--node1-AZAVOO_clean_sbu_0--node2-KUMBUR_clean_sbu_1--edge1-UVAHIK_clean_linker_0
_symmetry_space_group_name_H-M    P1
_symmetry_Int_Tables_number       1
_symmetry_cell_setting            triclinic
loop_
_symmetry_equiv_pos_as_xyz
'x, y, z'
_cell_length_a     77.184771
_cell_length_b     74.716346
_cell_length_c     71.52092
_cell_angle_alpha  97.998224
_cell_angle_beta   95.377043
_cell_angle_gamma 101.58532
loop_
_atom_site_label
_atom_site_type_symbol
_atom_site_fract_x
_atom_site_fract_y
_atom_site_fract_z
_atom_type_partial_charge
Mg0 Mg 0.03324 0.28901 0.33904 0.0
O1 O 0.03604 0.31605 0.36163 0.0
O2 O 0.01313 0.31039 0.37865 0.0
Mg3 Mg 0.99476 0.28219 0.36715 0.0
C4 C 0.02721 0.32093 0.37511 0.0
C5 C 0.06917 0.28406 0.32166 0.0
O6 O 0.05751 0.26879 0.31414 0.0
O7 O 0.04057 0.27138 0.36191 0.0
O8 O 0.01624 0.26731 0.37702 0.0
O9 O 0.01377 0.29935 0.31799 0.0
O10 O 0.00508 0.28309 0.33967 0.0
C11 C 0.03166 0.26447 0.37445 0.0
C12 C 1.0007 0.29136 0.32608 0.0
O13 O 0.0637 0.29628 0.33267 0.0
Mg14 Mg 0.01358 0.75565 0.69021 0.0
O15 O 0.00991 0.7272 0.66984 0.0
O16 O 0.98536 0.72415 0.64951 0.0
Mg17 Mg 0.97082 0.74742 0.65829 0.0
C18 C 0.9991 0.71838 0.65525 0.0
C19 C 0.05263 0.76181 0.7152 0.0
O20 O 0.04416 0.76881 0.72854 0.0
O21 O 0.01969 0.77308 0.66588 0.0
O22 O 0.99269 0.76857 0.64913 0.0
O23 O 0.99531 0.74466 0.71245 0.0
O24 O 0.9855 0.75433 0.68715 0.0
C25 C 0.0092 0.77649 0.65243 0.0
C26 C 0.98201 0.74849 0.70261 0.0
O27 O 0.044 0.7554 0.69867 0.0
Mg28 Mg 0.53242 0.78724 0.83876 0.0
O29 O 0.53497 0.81416 0.86149 0.0
O30 O 0.51111 0.80807 0.87703 0.0
Mg31 Mg 0.49286 0.78008 0.86521 0.0
C32 C 0.52553 0.81875 0.8745 0.0
C33 C 0.5678 0.78605 0.81847 0.0
O34 O 0.5554 0.77424 0.80647 0.0
O35 O 0.53952 0.77001 0.86227 0.0
O36 O 0.51452 0.76615 0.87623 0.0
O37 O 0.51354 0.79775 0.81718 0.0
O38 O 0.50418 0.78128 0.83846 0.0
C39 C 0.53013 0.7634 0.87463 0.0
C40 C 0.50019 0.78975 0.82488 0.0
O41 O 0.56293 0.79472 0.83315 0.0
Mg42 Mg 0.51379 0.25552 0.18953 0.0
O43 O 0.5105 0.22735 0.16903 0.0
O44 O 0.48551 0.22295 0.14893 0.0
Mg45 Mg 0.4713 0.24677 0.15707 0.0
C46 C 0.49957 0.21788 0.15488 0.0
C47 C 0.55291 0.26191 0.21467 0.0
O48 O 0.54457 0.26928 0.22791 0.0
O49 O 0.52013 0.27289 0.16534 0.0
O50 O 0.49346 0.26763 0.14766 0.0
O51 O 0.49515 0.2439 0.21117 0.0
O52 O 0.48569 0.25425 0.18614 0.0
C53 C 0.5099 0.27578 0.15136 0.0
C54 C 0.482 0.24803 0.20137 0.0
O55 O 0.54418 0.25522 0.19824 0.0
Mg56 Mg 0.05154 0.79468 0.11712 0.0
O57 O 0.04806 0.76581 0.09723 0.0
O58 O 0.02094 0.75998 0.08083 0.0
Mg59 Mg 0.00742 0.78454 0.08843 0.0
C60 C 0.03558 0.7552 0.08522 0.0
C61 C 0.08572 0.79583 0.1446 0.0
O62 O 0.07318 0.79752 0.15552 0.0
O63 O 0.05553 0.81383 0.09336 0.0
O64 O 0.02765 0.80745 0.0784 0.0
O65 O 0.03701 0.78077 0.13924 0.0
O66 O 0.0234 0.79182 0.11668 0.0
C67 C 0.0437 0.81691 0.08096 0.0
C68 C 0.02234 0.78386 0.13144 0.0
O69 O 0.08175 0.79493 0.12665 0.0
Mg70 Mg 0.49852 0.75441 0.41631 0.0
O71 O 0.50238 0.78225 0.4376 0.0
O72 O 0.47772 0.7792 0.45188 0.0
Mg73 Mg 0.46018 0.74977 0.44229 0.0
C74 C 0.49247 0.78897 0.44885 0.0
C75 C 0.52986 0.75304 0.39387 0.0
O76 O 0.51601 0.74172 0.38341 0.0
O77 O 0.50513 0.73619 0.43866 0.0
O78 O 0.48023 0.73233 0.45251 0.0
O79 O 0.48347 0.76704 0.39518 0.0
O80 O 0.47032 0.74939 0.41435 0.0
C81 C 0.49541 0.7285 0.45015 0.0
C82 C 0.46894 0.75948 0.4013 0.0
O83 O 0.52756 0.76148 0.40988 0.0
Mg84 Mg 0.55216 0.29369 0.61709 0.0
O85 O 0.54842 0.26467 0.59748 0.0
O86 O 0.52108 0.2587 0.58154 0.0
Mg87 Mg 0.50765 0.28328 0.58918 0.0
C88 C 0.53578 0.25397 0.58573 0.0
C89 C 0.58687 0.297 0.64437 0.0
O90 O 0.57482 0.30051 0.65534 0.0
O91 O 0.55584 0.31223 0.5928 0.0
O92 O 0.52773 0.30578 0.57851 0.0
O93 O 0.53807 0.28015 0.63974 0.0
O94 O 0.52413 0.29081 0.61708 0.0
C95 C 0.54379 0.31514 0.58054 0.0
C96 C 0.5233 0.28307 0.632 0.0
O97 O 0.58237 0.29406 0.62634 0.0
Mg98 Mg 0.99843 0.25392 0.91626 0.0
O99 O 0.00295 0.2827 0.93603 0.0
O100 O 0.98082 0.28081 0.95413 0.0
Mg101 Mg 0.96142 0.25222 0.94418 0.0
C102 C 0.9949 0.28999 0.94896 0.0
C103 C 0.0295 0.2525 0.89251 0.0
O104 O 0.01544 0.24225 0.88145 0.0
O105 O 0.00501 0.23632 0.93953 0.0
O106 O 0.98024 0.23332 0.9536 0.0
O107 O 0.98348 0.26567 0.89446 0.0
O108 O 0.97038 0.25048 0.91543 0.0
C109 C 0.99513 0.22887 0.95105 0.0
C110 C 0.96898 0.25958 0.90148 0.0
O111 O 0.0274 0.25992 0.90907 0.0
Mg112 Mg 0.38578 0.03316 0.28267 0.0
O113 O 0.37288 0.00346 0.28318 0.0
O114 O 0.36844 0.00069 0.31321 0.0
Mg115 Mg 0.38099 0.02821 0.33239 0.0
C116 C 0.36707 0.99398 0.29559 0.0
C117 C 0.3769 0.02047 0.23598 0.0
O118 O 0.36574 0.01976 0.22071 0.0
O119 O 0.36042 0.04151 0.28911 0.0
O120 O 0.3586 0.04062 0.32 0.0
O121 O 0.41258 0.02532 0.28788 0.0
O122 O 0.39763 0.03606 0.3101 0.0
C123 C 0.35255 0.0438 0.30386 0.0
C124 C 0.41097 0.02937 0.30575 0.0
O125 O 0.37409 0.02888 0.25165 0.0
Mg126 Mg 0.26308 0.15914 0.49597 0.0
O127 O 0.26708 0.1783 0.52505 0.0
O128 O 0.2953 0.19433 0.52932 0.0
Mg129 Mg 0.30855 0.18716 0.50276 0.0
C130 C 0.2801 0.19003 0.5351 0.0
C131 C 0.22776 0.1334 0.49476 0.0
O132 O 0.23921 0.12287 0.49136 0.0
O133 O 0.26059 0.18248 0.47933 0.0
O134 O 0.28906 0.19788 0.48293 0.0
O135 O 0.27417 0.13801 0.50947 0.0
O136 O 0.29027 0.15992 0.49669 0.0
C137 C 0.27279 0.19537 0.47571 0.0
C138 C 0.28953 0.14585 0.50531 0.0
O139 O 0.23329 0.15088 0.49737 0.0
Mg140 Mg 0.12359 0.02872 0.7791 0.0
O141 O 0.14405 0.05627 0.78315 0.0
O142 O 0.16161 0.05801 0.8103 0.0
Mg143 Mg 0.15063 0.03389 0.82539 0.0
C144 C 0.15746 0.06447 0.79529 0.0
C145 C 0.1031 0.01834 0.73926 0.0
O146 O 0.09552 0.00521 0.74819 0.0
O147 O 0.14498 0.01232 0.77278 0.0
O148 O 0.158 0.01348 0.8025 0.0
O149 O 0.104 0.0415 0.79492 0.0
O150 O 0.1249 0.02929 0.80796 0.0
C151 C 0.1558 0.00739 0.78468 0.0
C152 C 0.11174 0.03713 0.80998 0.0
O153 O 0.11619 0.03066 0.74811 0.0
Mg154 Mg 0.28721 0.93439 0.01145 0.0
O155 O 0.28775 0.91797 0.98269 0.0
O156 O 0.31488 0.91222 0.98095 0.0
Mg157 Mg 0.3315 0.92459 0.00966 0.0
C158 C 0.29889 0.91105 0.97366 0.0
C159 C 0.254 0.94595 0.00785 0.0
O160 O 0.26617 0.96005 0.01719 0.0
O161 O 0.28508 0.90836 0.02408 0.0
O162 O 0.31331 0.90482 0.02485 0.0
O163 O 0.29751 0.96033 0.00044 0.0
O164 O 0.31403 0.94394 0.01507 0.0
C165 C 0.29731 0.89996 0.02851 0.0
C166 C 0.31298 0.95765 0.00636 0.0
O167 O 0.25803 0.93034 0.00428 0.0
Mg168 Mg 0.28379 0.38869 0.0364 0.0
O169 O 0.28059 0.36948 0.0073 0.0
O170 O 0.30199 0.35331 0.00868 0.0
Mg171 Mg 0.32009 0.3639 0.03703 0.0
C172 C 0.28849 0.35729 -0.00017 0.0
C173 C 0.24843 0.40166 0.04314 0.0
O174 O 0.25604 0.40459 0.06084 0.0
O175 O 0.2745 0.36523 0.05324 0.0
O176 O 0.29844 0.35264 0.05503 0.0
O177 O 0.30076 0.4109 0.02466 0.0
O178 O 0.31124 0.39036 0.03927 0.0
C179 C 0.28308 0.35392 0.05963 0.0
C180 C 0.31425 0.40428 0.03033 0.0
O181 O 0.25598 0.39416 0.03005 0.0
Mg182 Mg 0.77181 0.10946 0.02694 0.0
O183 O 0.76969 0.12917 0.0535 0.0
O184 O 0.79546 0.15023 0.06014 0.0
Mg185 Mg 0.8142 0.14298 0.03914 0.0
C186 C 0.77968 0.14365 0.06346 0.0
C187 C 0.73456 0.09482 0.03705 0.0
O188 O 0.74382 0.09644 0.05381 0.0
O189 O 0.76918 0.1317 0.0093 0.0
O190 O 0.79569 0.1514 0.01663 0.0
O191 O 0.78181 0.09101 0.04464 0.0
O192 O 0.79875 0.11423 0.03409 0.0
C193 C 0.78002 0.14646 0.00752 0.0
C194 C 0.79747 0.10115 0.04423 0.0
O195 O 0.74244 0.09905 0.023 0.0
Mg196 Mg 0.16729 0.52462 0.23893 0.0
O197 O 0.18028 0.55411 0.25256 0.0
O198 O 0.1906 0.55585 0.2834 0.0
Mg199 Mg 0.1915 0.52606 0.28533 0.0
C200 C 0.18722 0.56337 0.26885 0.0
C201 C 0.15101 0.51949 0.20082 0.0
O202 O 0.14819 0.50355 0.20707 0.0
O203 O 0.19326 0.51898 0.23002 0.0
O204 O 0.2044 0.53125 0.25873 0.0
O205 O 0.14359 0.52791 0.25225 0.0
O206 O 0.16537 0.51778 0.26689 0.0
C207 C 0.20494 0.52001 0.24395 0.0
C208 C 0.1506 0.5234 0.26755 0.0
O209 O 0.16152 0.53326 0.21105 0.0
Mg210 Mg 0.78332 0.88713 0.53527 0.0
O211 O 0.7803 0.86699 0.50662 0.0
O212 O 0.80311 0.85278 0.50889 0.0
Mg213 Mg 0.82111 0.86445 0.53706 0.0
C214 C 0.78908 0.85536 0.49965 0.0
C215 C 0.75261 0.90627 0.53986 0.0
O216 O 0.76587 0.91627 0.55222 0.0
O217 O 0.77489 0.86387 0.5526 0.0
O218 O 0.79964 0.85271 0.55505 0.0
O219 O 0.79974 0.90955 0.52286 0.0
O220 O 0.8109 0.88994 0.53817 0.0
C221 C 0.78402 0.85321 0.55939 0.0
C222 C 0.81356 0.90364 0.52893 0.0
O223 O 0.75501 0.89171 0.52984 0.0
Mg224 Mg 0.92659 0.01954 0.25766 0.0
O225 O 0.90508 0.99296 0.25627 0.0
O226 O 0.89128 0.99745 0.28209 0.0
Mg227 Mg 0.90404 0.02542 0.30014 0.0
C228 C 0.89316 0.98749 0.26671 0.0
C229 C 0.94613 0.01359 0.22313 0.0
O230 O 0.95897 0.01812 0.23747 0.0
O231 O 0.90581 0.03589 0.24956 0.0
O232 O 0.89391 0.0403 0.27676 0.0
O233 O 0.9463 0.00773 0.27455 0.0
O234 O 0.92857 0.02452 0.28713 0.0
C235 C 0.89511 0.04266 0.25955 0.0
C236 C 0.94058 0.01509 0.2896 0.0
O237 O 0.93011 0.01189 0.22663 0.0
Mg238 Mg 0.2716 0.6121 0.52639 0.0
O239 O 0.26765 0.62971 0.55357 0.0
O240 O 0.29362 0.64964 0.5643 0.0
Mg241 Mg 0.31308 0.64598 0.54289 0.0
C242 C 0.27742 0.64266 0.56579 0.0
C243 C 0.23471 0.59518 0.53399 0.0
O244 O 0.24412 0.59528 0.5503 0.0
O245 O 0.26955 0.63561 0.51071 0.0
O246 O 0.29534 0.65591 0.52045 0.0
O247 O 0.28077 0.5925 0.54312 0.0
O248 O 0.29831 0.617 0.53524 0.0
C249 C 0.28011 0.65097 0.51033 0.0
C250 C 0.29641 0.60324 0.54452 0.0
O251 O 0.24241 0.60121 0.52052 0.0
Mg252 Mg 0.42742 0.51801 0.75725 0.0
O253 O 0.40554 0.49145 0.75518 0.0
O254 O 0.39105 0.49649 0.78041 0.0
Mg255 Mg 0.40357 0.52425 0.79868 0.0
C256 C 0.39317 0.48636 0.76526 0.0
C257 C 0.44515 0.52314 0.72318 0.0
O258 O 0.45254 0.53718 0.73664 0.0
O259 O 0.40706 0.53432 0.74819 0.0
O260 O 0.39405 0.53868 0.77468 0.0
O261 O 0.44657 0.50626 0.77453 0.0
O262 O 0.42836 0.52289 0.78646 0.0
C263 C 0.3959 0.54097 0.75757 0.0
C264 C 0.44037 0.51352 0.78929 0.0
O265 O 0.43268 0.51076 0.72689 0.0
Mg266 Mg 0.6697 0.02254 0.73934 0.0
O267 O 0.68154 0.05261 0.75297 0.0
O268 O 0.69147 0.05475 0.78398 0.0
Mg269 Mg 0.69398 0.02547 0.78635 0.0
C270 C 0.68787 0.06209 0.76936 0.0
C271 C 0.64664 0.02152 0.70624 0.0
O272 O 0.64051 0.00791 0.71531 0.0
O273 O 0.69625 0.01782 0.73039 0.0
O274 O 0.706 0.0303 0.75929 0.0
O275 O 0.64586 0.02483 0.75275 0.0
O276 O 0.66807 0.01564 0.76763 0.0
C277 C 0.70719 0.01878 0.74498 0.0
C278 C 0.65296 0.02056 0.76808 0.0
O279 O 0.66224 0.03116 0.71158 0.0
Mg280 Mg 0.7626 0.65859 0.99471 0.0
O281 O 0.76599 0.67741 0.02391 0.0
O282 O 0.7939 0.69432 0.02866 0.0
Mg283 Mg 0.80786 0.68715 0.00262 0.0
C284 C 0.7786 0.68956 0.03408 0.0
C285 C 0.72694 0.63262 0.99044 0.0
O286 O 0.73808 0.62245 0.98471 0.0
O287 O 0.76029 0.68206 0.97805 0.0
O288 O 0.78871 0.6977 0.98226 0.0
O289 O 0.77339 0.63737 0.00818 0.0
O290 O 0.78986 0.65967 0.99619 0.0
C291 C 0.77254 0.69506 0.97467 0.0
C292 C 0.78892 0.64544 0.00462 0.0
O293 O 0.73279 0.64993 0.99563 0.0
Mg294 Mg 0.88747 0.53282 0.78454 0.0
O295 O 0.87441 0.50269 0.78261 0.0
O296 O 0.87036 0.49802 0.8123 0.0
Mg297 Mg 0.88445 0.52391 0.83345 0.0
C298 C 0.8685 0.49244 0.79438 0.0
C299 C 0.87707 0.52396 0.73784 0.0
O300 O 0.86585 0.52485 0.72319 0.0
O301 O 0.86262 0.54061 0.79364 0.0
O302 O 0.86228 0.53827 0.8245 0.0
O303 O 0.91449 0.52484 0.78746 0.0
O304 O 0.90005 0.53353 0.81108 0.0
C305 C 0.85563 0.54233 0.80906 0.0
C306 C 0.91343 0.52767 0.80554 0.0
O307 O 0.87495 0.53153 0.75419 0.0
Mg308 Mg 0.78489 0.43369 0.51303 0.0
O309 O 0.7873 0.41705 0.48473 0.0
O310 O 0.81394 0.4095 0.48581 0.0
Mg311 Mg 0.82798 0.42046 0.5159 0.0
C312 C 0.7988 0.40951 0.47703 0.0
C313 C 0.75146 0.43591 0.48775 0.0
O314 O 0.76362 0.44113 0.47677 0.0
O315 O 0.77945 0.40718 0.52503 0.0
O316 O 0.80638 0.40024 0.52673 0.0
O317 O 0.79844 0.45936 0.50349 0.0
O318 O 0.81171 0.44128 0.51946 0.0
C319 C 0.78991 0.39669 0.52911 0.0
C320 C 0.81289 0.45528 0.51074 0.0
O321 O 0.75613 0.43114 0.50347 0.0
Mg322 Mg 0.62495 0.52893 0.27908 0.0
O323 O 0.64519 0.55674 0.2829 0.0
O324 O 0.66209 0.55946 0.31069 0.0
Mg325 Mg 0.65199 0.5349 0.32555 0.0
C326 C 0.65809 0.56557 0.29542 0.0
C327 C 0.60138 0.52241 0.2414 0.0
O328 O 0.59116 0.51421 0.2528 0.0
O329 O 0.64657 0.51289 0.27294 0.0
O330 O 0.65984 0.51472 0.30268 0.0
O331 O 0.60504 0.54137 0.29484 0.0
O332 O 0.62622 0.52971 0.30808 0.0
C333 C 0.65766 0.50842 0.28491 0.0
C334 C 0.61285 0.53723 0.30998 0.0
O335 O 0.61741 0.53029 0.24789 0.0
Tb336 Tb 0.04405 0.03129 0.0247 0.0
C337 C 0.98586 0.96669 0.98145 0.0
N338 N 0.99488 0.98252 0.97642 0.0
C339 C 0.99803 0.96575 0.94623 0.0
C340 C 0.9832 0.94957 0.96926 0.0
C341 C 1.00048 0.98236 0.95884 0.0
C342 C 0.98946 0.94925 0.9515 0.0
C343 C 0.97082 0.95135 0.00506 0.0
C344 C 0.97957 0.96765 -0.00091 0.0
C345 C 0.96831 0.93425 0.99303 0.0
C346 C 0.97438 0.93338 0.97514 0.0
Tb347 Tb 0.99563 0.00891 0.99698 0.0
N348 N 0.98204 0.9845 0.01033 0.0
C349 C 0.9647 0.95274 0.02288 0.0
C350 C 0.97522 0.98594 0.02727 0.0
C351 C 0.96682 0.97012 0.03397 0.0
H352 H 0.00625 0.99504 0.9541 0.0
H353 H 0.96165 0.97138 0.04754 0.0
H354 H 0.03812 0.04527 0.06979 0.0
H355 H 0.0839 0.06656 0.97747 0.0
H356 H 0.97557 0.99914 0.03548 0.0
H357 H 0.95799 0.94054 0.02802 0.0
H358 H 0.06748 0.03949 0.98942 0.0
H359 H 0.00251 0.96573 0.93233 0.0
H360 H 0.96156 0.92161 0.99738 0.0
H361 H 0.97221 0.9201 0.96597 0.0
H362 H 0.04265 0.0746 0.09171 0.0
H363 H 0.98755 0.9364 0.94167 0.0
H364 H 0.08765 0.09794 0.99603 0.0
N365 N 0.04755 0.05771 0.04661 0.0
C366 C 0.05632 0.07354 0.04135 0.0
C367 C 0.04622 0.07457 0.07743 0.0
C368 C 0.05979 0.09066 0.05368 0.0
C369 C 0.04319 0.05793 0.06472 0.0
C370 C 0.05432 0.09106 0.0718 0.0
N371 N 0.06009 0.05545 0.01306 0.0
C372 C 0.06818 0.05313 0.997 0.0
C373 C 0.07283 0.08819 0.01826 0.0
C374 C 0.06294 0.07236 0.02403 0.0
C375 C 0.07999 0.08611 0.00101 0.0
C376 C 0.07785 0.06844 0.99046 0.0
H377 H 0.05686 0.1039 0.08176 0.0
H378 H 0.0719 0.11992 0.05706 0.0
H379 H 0.08316 0.11778 0.02591 0.0
O380 O 0.06429 0.01683 0.01951 0.0
O381 O 0.03181 0.04864 0.00726 0.0
O382 O 0.00146 0.03927 0.00747 0.0
O383 O 0.06514 0.03473 0.0467 0.0
O384 O 0.04152 0.0154 0.99591 0.0
O385 O 0.01596 0.02099 0.98093 0.0
O386 O 0.96777 0.00498 0.99209 0.0
O387 O 0.01449 0.99082 0.00316 0.0
O388 O 0.02912 0.00561 0.03197 0.0
O389 O 0.98415 0.01372 0.97091 0.0
O390 O 0.99509 0.02416 0.02542 0.0
O391 O 0.02253 0.02437 0.04214 0.0
C392 C 0.01569 0.05205 0.00608 0.0
C393 C 0.08935 0.01881 0.04348 0.0
C394 C 0.11488 0.00589 0.03682 0.0
C395 C 0.12164 0.0102 0.0562 0.0
C396 C 0.09604 0.02298 0.0629 0.0
C397 C 0.11213 0.0186 0.06922 0.0
C398 C 0.09872 0.01007 0.03056 0.0
C399 C 0.03205 0.01799 0.98065 0.0
C400 C 0.07264 0.02341 0.03653 0.0
C401 C 0.06919 0.10664 0.04782 0.0
C402 C 0.07564 0.10542 0.0301 0.0
C403 C 0.02332 0.99032 0.01972 0.0
C404 C 0.95765 0.02443 0.97188 0.0
C405 C 0.93649 0.04308 0.98107 0.0
C406 C 0.93736 0.05035 0.96404 0.0
C407 C 0.95818 0.03153 0.95469 0.0
C408 C 0.9467 0.03023 0.98497 0.0
C409 C 0.94814 0.0445 0.95087 0.0
C410 C 0.0058 0.0261 0.04144 0.0
C411 C 0.96813 0.01062 0.97567 0.0
H412 H 0.13416 0.00697 0.06122 0.0
H413 H 0.08886 0.02957 0.07316 0.0
H414 H 0.11726 0.02179 0.08418 0.0
H415 H 0.09369 0.00691 0.01552 0.0
H416 H 0.92939 0.06016 0.96074 0.0
H417 H 0.96632 0.02702 0.94421 0.0
H418 H 0.94602 0.02476 -0.00178 0.0
H419 H 0.94858 0.0499 0.9376 0.0
Tb420 Tb 0.26534 0.77437 0.29044 0.0
C421 C 0.30566 0.73836 0.2189 0.0
N422 N 0.31193 0.75104 0.2349 0.0
C423 C 0.33658 0.7365 0.24066 0.0
C424 C 0.31422 0.72378 0.21362 0.0
C425 C 0.32764 0.75072 0.24533 0.0
C426 C 0.32971 0.72282 0.2249 0.0
C427 C 0.28378 0.72737 0.19087 0.0
C428 C 0.29067 0.74015 0.20762 0.0
C429 C 0.29199 0.71255 0.18583 0.0
C430 C 0.30718 0.71075 0.19717 0.0
Tb431 Tb 0.29515 0.77272 0.24156 0.0
N432 N 0.2827 0.7543 0.2133 0.0
C433 C 0.2689 0.72995 0.17967 0.0
C434 C 0.26884 0.7575 0.20182 0.0
C435 C 0.26158 0.74524 0.18502 0.0
H436 H 0.33369 0.76156 0.25705 0.0
H437 H 0.25039 0.74765 0.17617 0.0
H438 H 0.22743 0.78549 0.27641 0.0
H439 H 0.31034 0.79849 0.35626 0.0
H440 H 0.26338 0.76956 0.20529 0.0
H441 H 0.2632 0.72044 0.16669 0.0
H442 H 0.29591 0.77598 0.32821 0.0
H443 H 0.34886 0.73622 0.24913 0.0
H444 H 0.2868 0.70249 0.17311 0.0
H445 H 0.31348 0.69936 0.193 0.0
H446 H 0.21215 0.81092 0.2846 0.0
H447 H 0.33669 0.71183 0.22133 0.0
H448 H 0.29966 0.8273 0.36458 0.0
N449 N 0.24924 0.79619 0.29826 0.0
C450 C 0.25624 0.80942 0.31351 0.0
C451 C 0.22463 0.81075 0.29278 0.0
C452 C 0.24798 0.82423 0.31876 0.0
C453 C 0.23341 0.79639 0.28811 0.0
C454 C 0.23204 0.82486 0.30805 0.0
N455 N 0.27839 0.7927 0.31885 0.0
C456 C 0.29157 0.78884 0.33082 0.0
C457 C 0.27893 0.8207 0.34056 0.0
C458 C 0.27148 0.80771 0.3241 0.0
C459 C 0.29351 0.81765 0.35184 0.0
C460 C 0.2996 0.80143 0.34716 0.0
H461 H 0.22522 0.83597 0.31165 0.0
H462 H 0.24971 0.84929 0.33882 0.0
H463 H 0.27686 0.84619 0.35798 0.0
O464 O 0.26368 0.75225 0.30562 0.0
O465 O 0.27448 0.80115 0.28177 0.0
O466 O 0.29682 0.79149 0.26823 0.0
O467 O 0.23994 0.75828 0.29218 0.0
O468 O 0.29232 0.76838 0.29535 0.0
O469 O 0.30978 0.77147 0.26973 0.0
O470 O 0.29652 0.79566 0.22767 0.0
O471 O 0.27856 0.74544 0.2416 0.0
O472 O 0.27513 0.76233 0.26682 0.0
O473 O 0.31949 0.78391 0.23232 0.0
O474 O 0.26835 0.78016 0.23839 0.0
O475 O 0.24981 0.77139 0.262 0.0
C476 C 0.28738 0.80404 0.27111 0.0
C477 C 0.23893 0.74791 0.32203 0.0
C478 C 0.24048 0.73784 0.35284 0.0
C479 C 0.22877 0.74902 0.35868 0.0
C480 C 0.22713 0.75903 0.32794 0.0
C481 C 0.22197 0.75941 0.34617 0.0
C482 C 0.24524 0.73701 0.33443 0.0
C483 C 0.30721 0.76824 0.28731 0.0
C484 C 0.24639 0.7488 0.30396 0.0
C485 C 0.25574 0.83769 0.33464 0.0
C486 C 0.27122 0.83595 0.34551 0.0
C487 C 0.27137 0.74598 0.25697 0.0
C488 C 0.31461 0.7945 0.20313 0.0
C489 C 0.30421 0.80083 0.17216 0.0
C490 C 0.317 0.79227 0.16408 0.0
C491 C 0.32747 0.78608 0.195 0.0
C492 C 0.30318 0.80195 0.19163 0.0
C493 C 0.32861 0.78498 0.17551 0.0
C494 C 0.25276 0.77714 0.24549 0.0
C495 C 0.31247 0.7952 0.22337 0.0
H496 H 0.22501 0.74975 0.37295 0.0
H497 H 0.22221 0.76772 0.3187 0.0
H498 H 0.21298 0.76807 0.35075 0.0
H499 H 0.25452 0.72854 0.33009 0.0
H500 H 0.31831 0.79163 0.14907 0.0
H501 H 0.33654 0.78027 0.2036 0.0
H502 H 0.29327 0.80856 0.1978 0.0
H503 H 0.33856 0.77855 0.16928 0.0
Tb504 Tb 0.49621 0.01964 0.51893 0.0
C505 C 0.56422 0.06217 0.49022 0.0
N506 N 0.55163 0.04675 0.48249 0.0
C507 C 0.55073 0.05711 0.45219 0.0
C508 C 0.57011 0.07601 0.4793 0.0
C509 C 0.54524 0.04379 0.46359 0.0
C510 C 0.56312 0.07335 0.4601 0.0
C511 C 0.58375 0.08022 0.5179 0.0
C512 C 0.57103 0.06419 0.50929 0.0
C513 C 0.58952 0.09412 0.50711 0.0
C514 C 0.58277 0.09199 0.48786 0.0
Tb515 Tb 0.54519 0.02553 0.50222 0.0
N516 N 0.56512 0.05048 0.51936 0.0
C517 C 0.59039 0.08174 0.53707 0.0
C518 C 0.57223 0.0515 0.53778 0.0
C519 C 0.5847 0.06725 0.547 0.0
H520 H 0.53627 0.03102 0.45698 0.0
H521 H 0.59016 0.06805 0.56167 0.0
H522 H 0.50403 0.02013 0.5664 0.0
H523 H 0.44855 0.97234 0.46593 0.0
H524 H 0.56892 0.04002 0.54525 0.0
H525 H 0.60015 0.09385 0.54423 0.0
H526 H 0.46976 0.00188 0.47937 0.0
H527 H 0.54555 0.05473 0.43725 0.0
H528 H 0.5993 0.10653 0.5135 0.0
H529 H 0.58744 0.10279 0.47971 0.0
H530 H 0.49966 0.99747 0.58816 0.0
H531 H 0.56736 0.08362 0.45122 0.0
H532 H 0.44353 0.94698 0.48506 0.0
N533 N 0.49254 1.00051 0.54144 0.0
C534 C 0.48215 0.98335 0.53493 0.0
C535 C 0.49498 0.9932 0.57314 0.0
C536 C 0.47844 0.97018 0.54717 0.0
C537 C 0.4979 0.00592 0.56056 0.0
C538 C 0.4855 0.97514 0.56637 0.0
N539 N 0.47742 0.99268 0.50502 0.0
C540 C 0.46792 0.99067 0.48749 0.0
C541 C 0.46191 0.9625 0.50936 0.0
C542 C 0.47396 0.97947 0.51626 0.0
C543 C 0.45296 0.95981 0.49087 0.0
C544 C 0.45578 0.97408 0.48 0.0
H545 H 0.48296 0.96542 0.57623 0.0
H546 H 0.46426 0.94252 0.54926 0.0
H547 H 0.44977 0.93581 0.51615 0.0
O548 O 0.47781 0.03459 0.50879 0.0
O549 O 0.50335 0.99564 0.50194 0.0
O550 O 0.53316 0.99941 0.51148 0.0
O551 O 0.47484 0.0226 0.53419 0.0
O552 O 0.50189 0.02997 0.49262 0.0
O553 O 0.52241 0.01482 0.48032 0.0
O554 O 0.5713 0.02048 0.50598 0.0
O555 O 0.53367 0.05081 0.50693 0.0
O556 O 0.51465 0.04639 0.52994 0.0
O557 O 0.55359 0.01011 0.47929 0.0
O558 O 0.54191 0.01708 0.52995 0.0
O559 O 0.51891 0.02966 0.54106 0.0
C560 C 0.51756 0.98864 0.50467 0.0
C561 C 0.46432 0.04967 0.53282 0.0
C562 C 0.44342 0.06987 0.53583 0.0
C563 C 0.45367 0.07983 0.55268 0.0
C564 C 0.47447 0.05963 0.54976 0.0
C565 C 0.46922 0.07476 0.55955 0.0
C566 C 0.44884 0.05491 0.52582 0.0
C567 C 0.50771 0.02104 0.47828 0.0
C568 C 0.46879 0.03291 0.52315 0.0
C569 C 0.46715 0.95284 0.54009 0.0
C570 C 0.45886 0.94903 0.52124 0.0
C571 C 0.52533 0.05739 0.52087 0.0
C572 C 0.58296 0.003 0.48039 0.0
C573 C 0.60694 0.98619 0.48269 0.0
C574 C 0.60761 0.98554 0.46304 0.0
C575 C 0.58387 0.00212 0.46079 0.0
C576 C 0.59477 0.99529 0.49145 0.0
C577 C 0.59625 0.99357 0.45223 0.0
C578 C 0.53361 0.02355 0.54376 0.0
C579 C 0.56911 0.01125 0.48881 0.0
H580 H 0.44949 0.09133 0.56061 0.0
H581 H 0.48619 0.05544 0.55563 0.0
H582 H 0.47701 0.08234 0.57265 0.0
H583 H 0.44072 0.04701 0.51298 0.0
H584 H 0.61697 0.97874 0.45603 0.0
H585 H 0.57497 0.00804 0.45207 0.0
H586 H 0.594 0.99568 0.50655 0.0
H587 H 0.59689 0.99298 0.43711 0.0
Tb588 Tb 0.30159 0.26549 0.76956 0.0
C589 C 0.23612 0.28679 0.72578 0.0
N590 N 0.24749 0.29606 0.74132 0.0
C591 C 0.24918 0.3245 0.7289 0.0
C592 C 0.2314 0.29595 0.71075 0.0
C593 C 0.2535 0.31479 0.74341 0.0
C594 C 0.23823 0.31501 0.7124 0.0
C595 C 0.21774 0.25783 0.70882 0.0
C596 C 0.2293 0.26797 0.7249 0.0
C597 C 0.21322 0.26684 0.69367 0.0
C598 C 0.21999 0.28586 0.69466 0.0
Tb599 Tb 0.25294 0.27889 0.76424 0.0
N600 N 0.23409 0.25965 0.73977 0.0
C601 C 0.21099 0.23895 0.70849 0.0
C602 C 0.2269 0.24141 0.73984 0.0
C603 C 0.21548 0.23076 0.72413 0.0
H604 H 0.26127 0.32244 0.75639 0.0
H605 H 0.20995 0.21626 0.7242 0.0
H606 H 0.29242 0.22065 0.77559 0.0
H607 H 0.3486 0.32413 0.81005 0.0
H608 H 0.22947 0.23502 0.75207 0.0
H609 H 0.20208 0.23066 0.69639 0.0
H610 H 0.32748 0.30681 0.78216 0.0
H611 H 0.25414 0.33932 0.73056 0.0
H612 H 0.20438 0.25925 0.68118 0.0
H613 H 0.21627 0.29264 0.68293 0.0
H614 H 0.29614 0.20322 0.80175 0.0
H615 H 0.23489 0.32257 0.7012 0.0
H616 H 0.35358 0.30925 0.83836 0.0
N617 N 0.30465 0.24699 0.79221 0.0
C618 C 0.31499 0.25571 0.80871 0.0
C619 C 0.30124 0.21805 0.80403 0.0
C620 C 0.31832 0.24602 0.82376 0.0
C621 C 0.29871 0.22816 0.78933 0.0
C622 C 0.31084 0.22707 0.82143 0.0
N623 N 0.31996 0.28298 0.79512 0.0
C624 C 0.32938 0.30043 0.79462 0.0
C625 C 0.33527 0.28339 0.82615 0.0
C626 C 0.32331 0.27416 0.81 0.0
C627 C 0.34424 0.30169 0.82624 0.0
C628 C 0.34143 0.31016 0.81031 0.0
H629 H 0.31306 0.21912 0.83266 0.0
H630 H 0.33221 0.24817 0.85205 0.0
H631 H 0.3471 0.28089 0.8541 0.0
O632 O 0.32108 0.27492 0.75218 0.0
O633 O 0.29415 0.28382 0.79316 0.0
O634 O 0.26428 0.27231 0.79089 0.0
O635 O 0.32211 0.25114 0.76541 0.0
O636 O 0.29812 0.28933 0.75627 0.0
O637 O 0.27668 0.30155 0.77103 0.0
O638 O 0.2261 0.27484 0.7706 0.0
O639 O 0.26606 0.27365 0.73834 0.0
O640 O 0.28257 0.25201 0.74446 0.0
O641 O 0.24542 0.30095 0.78051 0.0
O642 O 0.25421 0.25304 0.77504 0.0
O643 O 0.27805 0.24212 0.76328 0.0
C644 C 0.27919 0.2817 0.80084 0.0
C645 C 0.33634 0.2532 0.73758 0.0
C646 C 0.35988 0.25265 0.71692 0.0
C647 C 0.34973 0.23602 0.7063 0.0
C648 C 0.3266 0.23642 0.72694 0.0
C649 C 0.33323 0.22795 0.71132 0.0
C650 C 0.35312 0.26124 0.73261 0.0
C651 C 0.29146 0.30345 0.76292 0.0
C652 C 0.32971 0.26198 0.75446 0.0
C653 C 0.32958 0.25537 0.8403 0.0
C654 C 0.3381 0.27399 0.84146 0.0
C655 C 0.27376 0.25996 0.73251 0.0
C656 C 0.21565 0.30006 0.78906 0.0
C657 C 0.19024 0.29878 0.80733 0.0
C658 C 0.1916 0.31782 0.80733 0.0
C659 C 0.21664 0.31906 0.78933 0.0
C660 C 0.20217 0.28978 0.79784 0.0
C661 C 0.20461 0.32782 0.79828 0.0
C662 C 0.26269 0.23967 0.77046 0.0
C663 C 0.22918 0.29157 0.78008 0.0
H664 H 0.35473 0.22912 0.69426 0.0
H665 H 0.314 0.22973 0.73089 0.0
H666 H 0.32565 0.21498 0.7032 0.0
H667 H 0.3609 0.27405 0.74095 0.0
H668 H 0.18251 0.32498 0.81437 0.0
H669 H 0.22677 0.32718 0.78257 0.0
H670 H 0.20135 0.27514 0.79788 0.0
H671 H 0.20548 0.34246 0.79836 0.0
Tb672 Tb 0.02812 0.99942 0.51594 0.0
C673 C 0.00394 0.0701 0.55762 0.0
N674 N 0.99512 0.05721 0.54267 0.0
C675 C 0.96785 0.05583 0.5565 0.0
C676 C 0.99504 0.07621 0.57278 0.0
C677 C 0.97727 0.05019 0.5418 0.0
C678 C 0.97677 0.06887 0.57209 0.0
C679 C 0.0318 0.0899 0.57329 0.0
C680 C 0.02213 0.07668 0.55793 0.0
C681 C 0.02297 0.09615 0.58839 0.0
C682 C 0.00465 0.0893 0.58816 0.0
Tb683 Tb 0.01181 0.0493 0.51945 0.0
N684 N 0.03035 0.06974 0.54339 0.0
C685 C 0.05006 0.0964 0.57302 0.0
C686 C 0.04801 0.07666 0.54272 0.0
C687 C 0.05815 0.08987 0.55758 0.0
H688 H 0.97017 0.04063 0.52954 0.0
H689 H 0.07219 0.09513 0.55701 0.0
H690 H 0.07064 0.00442 0.51001 0.0
H691 H 0.96819 0.95651 0.47413 0.0
H692 H 0.05435 0.07254 0.53066 0.0
H693 H 0.05798 0.10658 0.58452 0.0
H694 H 0.98545 0.97751 0.5019 0.0
H695 H 0.95368 0.05023 0.55572 0.0
H696 H 0.03021 0.10625 0.60035 0.0
H697 H 0.99804 0.09418 0.59995 0.0
H698 H 0.08851 0.99349 0.4857 0.0
H699 H 0.96943 0.07322 0.58346 0.0
H700 H 0.98353 0.9446 0.4478 0.0
N701 N 0.04588 0.98959 0.49474 0.0
C702 C 0.03747 0.97737 0.47914 0.0
C703 C 0.07414 0.98894 0.48361 0.0
C704 C 0.04708 0.97064 0.46492 0.0
C705 C 0.06399 0.9953 0.49725 0.0
C706 C 0.06565 0.97661 0.46732 0.0
N707 N 0.01039 0.97906 0.49122 0.0
C708 C 0.99237 0.97318 0.49043 0.0
C709 C 0.00977 0.9594 0.46123 0.0
C710 C 0.0191 0.97183 0.47735 0.0
C711 C 0.99121 0.95411 0.45995 0.0
C712 C 0.98251 0.96089 0.47473 0.0
H713 H 0.07354 0.97173 0.45674 0.0
H714 H 0.045 0.953 0.43768 0.0
H715 H 0.0123 0.94319 0.43442 0.0
O716 O 0.01917 0.97805 0.53161 0.0
O717 O 0.02269 0.00926 0.48879 0.0
O718 O 0.00197 0.0264 0.4959 0.0
O719 O 0.04699 0.98727 0.52958 0.0
O720 O 0.00309 0.0015 0.52779 0.0
O721 O 0.99133 0.02354 0.51392 0.0
O722 O 0.01941 0.07151 0.50387 0.0
O723 O 0.0172 0.03928 0.54647 0.0
O724 O 0.03786 0.0232 0.53805 0.0
O725 O 0.9923 0.06306 0.51034 0.0
O726 O 0.03637 0.04735 0.50668 0.0
O727 O 0.04881 0.02509 0.51962 0.0
C728 C 0.01127 0.01912 0.48363 0.0
C729 C 0.03749 0.95612 0.53385 0.0
C730 C 0.03511 0.92678 0.5461 0.0
C731 C 0.04351 0.92005 0.53084 0.0
C732 C 0.04582 0.94898 0.51874 0.0
C733 C 0.04886 0.9311 0.51734 0.0
C734 C 0.03226 0.94498 0.54766 0.0
C735 C 0.98977 0.00948 0.52347 0.0
C736 C 0.03515 0.97544 0.53591 0.0
C737 C 0.03786 0.95829 0.4488 0.0
C738 C 0.01925 0.9527 0.44694 0.0
C739 C 0.0283 0.02891 0.55069 0.0
C740 C 0.99733 0.08903 0.49309 0.0
C741 C 0.00256 0.11528 0.47567 0.0
C742 C 0.98487 0.11692 0.47671 0.0
C743 C 0.97966 0.09106 0.49379 0.0
C744 C 0.00885 0.10125 0.48389 0.0
C745 C 0.97353 0.10487 0.48566 0.0
C746 C 0.04981 0.03928 0.5102 0.0
C747 C 0.00332 0.07448 0.50264 0.0
H748 H 0.04608 0.90623 0.52946 0.0
H749 H 0.0502 0.95726 0.50813 0.0
H750 H 0.05546 0.9258 0.50576 0.0
H751 H 0.02594 0.95039 0.55947 0.0
H752 H 0.97982 0.12759 0.47051 0.0
H753 H 0.9705 0.08203 0.50078 0.0
H754 H 0.02253 0.09998 0.48323 0.0
H755 H 0.95991 0.1063 0.48638 0.0
Tb756 Tb 0.27792 0.79525 0.75807 0.0
C757 C 0.23913 0.73102 0.79776 0.0
N758 N 0.25406 0.74453 0.80379 0.0
C759 C 0.24494 0.74922 0.83494 0.0
C760 C 0.22634 0.72628 0.81009 0.0
C761 C 0.25731 0.75335 0.82223 0.0
C762 C 0.22935 0.73569 0.82883 0.0
C763 C 0.2214 0.70781 0.77232 0.0
C764 C 0.23661 0.72202 0.77904 0.0
C765 C 0.20862 0.70305 0.78455 0.0
C766 C 0.21106 0.7123 0.80337 0.0
Tb767 Tb 0.27347 0.74907 0.78185 0.0
N768 N 0.24894 0.72745 0.76736 0.0
C769 C 0.21943 0.69891 0.75344 0.0
C770 C 0.24748 0.71819 0.74926 0.0
C771 C 0.2326 0.70405 0.74192 0.0
H772 H 0.26972 0.76309 0.8274 0.0
H773 H 0.23146 0.69691 0.72746 0.0
H774 H 0.28374 0.78192 0.71319 0.0
H775 H 0.31794 0.84657 0.81478 0.0
H776 H 0.25796 0.72106 0.74062 0.0
H777 H 0.20793 0.68794 0.74771 0.0
H778 H 0.29178 0.82256 0.8003 0.0
H779 H 0.24757 0.75628 0.84953 0.0
H780 H 0.19679 0.69225 0.7796 0.0
H781 H 0.20108 0.70847 0.81263 0.0
H782 H 0.30625 0.7904 0.69185 0.0
H783 H 0.21985 0.73245 0.83875 0.0
H784 H 0.34212 0.85656 0.79566 0.0
N785 N 0.29798 0.80106 0.73712 0.0
C786 C 0.31244 0.81493 0.7438 0.0
C787 C 0.30823 0.79731 0.70648 0.0
C788 C 0.32553 0.82042 0.73204 0.0
C789 C 0.29562 0.79231 0.7187 0.0
C790 C 0.32326 0.81141 0.71317 0.0
N791 N 0.30167 0.81719 0.7738 0.0
C792 C 0.30256 0.82583 0.79208 0.0
C793 C 0.32939 0.83741 0.77028 0.0
C794 C 0.31437 0.82323 0.76275 0.0
C795 C 0.33081 0.8456 0.78933 0.0
C796 C 0.31725 0.83989 0.80021 0.0
H797 H 0.33301 0.81526 0.70366 0.0
H798 H 0.35069 0.83898 0.73069 0.0
H799 H 0.35404 0.8539 0.76412 0.0
O800 O 0.26583 0.81824 0.7645 0.0
O801 O 0.30279 0.78493 0.76314 0.0
O802 O 0.29918 0.76925 0.78867 0.0
O803 O 0.26907 0.80725 0.7354 0.0
O804 O 0.26812 0.79512 0.78577 0.0
O805 O 0.28283 0.77572 0.80002 0.0
O806 O 0.2848 0.72575 0.77465 0.0
O807 O 0.24825 0.75859 0.77552 0.0
O808 O 0.25249 0.77512 0.75072 0.0
O809 O 0.28178 0.73593 0.80403 0.0
O810 O 0.28269 0.74865 0.75374 0.0
O811 O 0.26878 0.76882 0.73969 0.0
C812 C 0.30939 0.77747 0.77715 0.0
C813 C 0.25439 0.83284 0.7386 0.0
C814 C 0.24149 0.85998 0.74264 0.0
C815 C 0.23737 0.85801 0.72283 0.0
C816 C 0.25013 0.83103 0.71876 0.0
C817 C 0.24162 0.84354 0.71097 0.0
C818 C 0.24986 0.84729 0.75058 0.0
C819 C 0.27385 0.78884 0.80089 0.0
C820 C 0.26313 0.81929 0.74645 0.0
C821 C 0.3405 0.83455 0.73951 0.0
C822 C 0.34242 0.84302 0.75857 0.0
C823 C 0.24214 0.76698 0.76205 0.0
C824 C 0.29427 0.7087 0.79929 0.0
C825 C 0.30919 0.68306 0.79394 0.0
C826 C 0.30849 0.68061 0.81296 0.0
C827 C 0.29361 0.70603 0.81832 0.0
C828 C 0.302 0.69704 0.78705 0.0
C829 C 0.30066 0.69202 0.82506 0.0
C830 C 0.27657 0.75475 0.73863 0.0
C831 C 0.28671 0.72352 0.79242 0.0
H832 H 0.23083 0.8677 0.71657 0.0
H833 H 0.25328 0.81987 0.70923 0.0
H834 H 0.23834 0.84203 0.6957 0.0
H835 H 0.253 0.84885 0.7659 0.0
H836 H 0.31407 0.66989 0.81843 0.0
H837 H 0.28759 0.71472 0.828 0.0
H838 H 0.30266 0.69894 0.77235 0.0
H839 H 0.30012 0.69006 0.83973 0.0
Tb840 Tb 0.52602 0.03527 0.99238 0.0
C841 C 0.55392 0.99288 0.06349 0.0
N842 N 0.54141 0.98685 0.048 0.0
C843 C 0.55079 0.95794 0.04314 0.0
C844 C 0.56586 0.98198 0.06894 0.0
C845 C 0.53925 0.96929 0.03832 0.0
C846 C 0.56433 0.96442 0.05835 0.0
C847 C 0.56729 0.01692 0.09023 0.0
C848 C 0.55453 0.00997 0.0741 0.0
C849 C 0.5795 0.00632 0.09549 0.0
C850 C 0.57878 0.98888 0.08488 0.0
Tb851 Tb 0.52357 0.00685 0.04114 0.0
N852 N 0.54292 0.0201 0.06809 0.0
C853 C 0.56741 0.03432 0.10049 0.0
C854 C 0.54251 0.03673 0.07853 0.0
C855 C 0.55484 0.04418 0.09472 0.0
H856 H 0.52832 0.96368 0.02727 0.0
H857 H 0.55462 0.0575 0.10275 0.0
H858 H 0.52206 0.07827 0.00485 0.0
H859 H 0.48903 0.98037 0.93648 0.0
H860 H 0.53273 0.04435 0.07451 0.0
H861 H 0.57702 0.04017 0.11297 0.0
H862 H 0.51364 0.99509 0.96121 0.0
H863 H 0.54907 0.94412 0.03525 0.0
H864 H 0.5895 0.01146 0.10777 0.0
H865 H 0.58817 0.98077 0.08919 0.0
H866 H 0.50096 0.09776 0.99724 0.0
H867 H 0.57322 0.95559 0.06207 0.0
H868 H 0.4658 0.99718 0.92759 0.0
N869 N 0.50793 0.05469 0.98526 0.0
C870 C 0.49406 0.04773 0.97137 0.0
C871 C 0.49878 0.08366 0.98992 0.0
C872 C 0.48163 0.05832 0.9665 0.0
C873 C 0.51066 0.07252 0.99432 0.0
C874 C 0.48411 0.07649 0.97605 0.0
N875 N 0.5045 0.02012 0.96762 0.0
C876 C 0.50363 0.00269 0.95815 0.0
C877 C 0.47787 0.02186 0.94787 0.0
C878 C 0.49223 0.0298 0.96225 0.0
C879 C 0.47662 0.00379 0.93872 0.0
C880 C 0.48966 0.99424 0.94376 0.0
H881 H 0.47488 0.08511 0.97273 0.0
H882 H 0.45742 0.05831 0.94849 0.0
H883 H 0.45412 0.02634 0.93214 0.0
O884 O 0.54282 0.03371 0.97125 0.0
O885 O 0.49997 0.02815 0.00146 0.0
O886 O 0.50665 0.00412 0.01421 0.0
O887 O 0.54483 0.05938 0.99016 0.0
O888 O 0.53343 0.00769 0.98868 0.0
O889 O 0.52448 0.98994 0.01274 0.0
O890 O 0.50449 0.00981 0.06 0.0
O891 O 0.5508 0.02226 0.0413 0.0
O892 O 0.53658 0.02529 0.01564 0.0
O893 O 0.50772 0.98295 0.04787 0.0
O894 O 0.51657 0.03474 0.04265 0.0
O895 O 0.52987 0.0529 0.02081 0.0
C896 C 0.4953 0.01443 0.01077 0.0
C897 C 0.55118 0.0608 0.95828 0.0
C898 C 0.55962 0.06105 0.92625 0.0
C899 C 0.55465 0.07816 0.92611 0.0
C900 C 0.5463 0.07787 0.95792 0.0
C901 C 0.54801 0.08645 0.94184 0.0
C902 C 0.55773 0.05248 0.94241 0.0
C903 C 0.53036 0.99188 0.99586 0.0
C904 C 0.54998 0.05132 0.97496 0.0
C905 C 0.46717 0.05044 0.95237 0.0
C906 C 0.46529 0.03224 0.94307 0.0
C907 C 0.55179 0.02918 0.02601 0.0
C908 C 0.5022 0.98692 0.07984 0.0
C909 C 0.49463 0.98973 0.1122 0.0
C910 C 0.5062 0.97825 0.11668 0.0
C911 C 0.51364 0.97526 0.08455 0.0
C912 C 0.49251 0.99394 0.09372 0.0
C913 C 0.51557 0.97097 0.10286 0.0
C914 C 0.52245 0.0509 0.03678 0.0
C915 C 0.5007 0.99217 0.06074 0.0
H916 H 0.55627 0.08536 0.91404 0.0
H917 H 0.54125 0.08461 0.97 0.0
H918 H 0.54435 0.09968 0.94163 0.0
H919 H 0.56133 0.03921 0.94269 0.0
H920 H 0.50775 0.97468 0.13083 0.0
H921 H 0.52116 0.96945 0.07416 0.0
H922 H 0.48357 0.00282 0.09025 0.0
H923 H 0.52435 0.96198 0.10636 0.0
Tb924 Tb 0.26978 0.25022 0.25452 0.0
C925 C 0.32944 0.31624 0.30111 0.0
N926 N 0.31426 0.30552 0.30521 0.0
C927 C 0.32875 0.30526 0.3364 0.0
C928 C 0.34502 0.32147 0.31436 0.0
C929 C 0.3136 0.30055 0.32287 0.0
C930 C 0.34458 0.31561 0.33207 0.0
C931 C 0.34439 0.33432 0.27927 0.0
C932 C 0.3291 0.32278 0.28391 0.0
C933 C 0.36005 0.33917 0.29222 0.0
C934 C 0.36034 0.33282 0.30975 0.0
Tb935 Tb 0.29 0.30079 0.28257 0.0
N936 N 0.31374 0.31786 0.27172 0.0
C937 C 0.34341 0.34078 0.26183 0.0
C938 C 0.31244 0.32495 0.25519 0.0
C939 C 0.32731 0.33617 0.2498 0.0
H940 H 0.30127 0.29384 0.32708 0.0
H941 H 0.32625 0.34152 0.23653 0.0
H942 H 0.25665 0.25846 0.21183 0.0
H943 H 0.23367 0.21624 0.30625 0.0
H944 H 0.29992 0.3224 0.24628 0.0
H945 H 0.35487 0.34962 0.25771 0.0
H946 H 0.26036 0.23001 0.29321 0.0
H947 H 0.32807 0.30129 0.35035 0.0
H948 H 0.37192 0.34804 0.28892 0.0
H949 H 0.37242 0.33697 0.31975 0.0
H950 H 0.22872 0.25221 0.19013 0.0
H951 H 0.35622 0.31948 0.3427 0.0
H952 H 0.20407 0.2111 0.28744 0.0
N953 N 0.24445 0.24744 0.23441 0.0
C954 C 0.22934 0.23784 0.23976 0.0
C955 C 0.22863 0.24837 0.20417 0.0
C956 C 0.21303 0.2338 0.22772 0.0
C957 C 0.24443 0.25226 0.21668 0.0
C958 C 0.21283 0.2392 0.20975 0.0
N959 N 0.24633 0.23599 0.26855 0.0
C960 C 0.24768 0.22951 0.28546 0.0
C961 C 0.21455 0.22331 0.26398 0.0
C962 C 0.23019 0.23245 0.2576 0.0
C963 C 0.2158 0.218 0.28195 0.0
C964 C 0.23246 0.22098 0.29265 0.0
H965 H 0.2006 0.2362 0.20001 0.0
H966 H 0.18484 0.22139 0.22498 0.0
H967 H 0.1861 0.21245 0.25681 0.0
O968 O 0.26603 0.22131 0.24886 0.0
O969 O 0.25166 0.26966 0.25986 0.0
O970 O 0.2641 0.28606 0.2889 0.0
O971 O 0.27613 0.23814 0.22849 0.0
O972 O 0.28365 0.25083 0.28311 0.0
O973 O 0.28123 0.2791 0.29922 0.0
O974 O 0.27728 0.32236 0.27774 0.0
O975 O 0.30862 0.28764 0.2665 0.0
O976 O 0.2985 0.25611 0.26518 0.0
O977 O 0.29184 0.32222 0.30553 0.0
O978 O 0.27592 0.29801 0.25382 0.0
O979 O 0.28189 0.27123 0.23853 0.0
C980 C 0.24998 0.2792 0.2763 0.0
C981 C 0.28535 0.21018 0.22856 0.0
C982 C 0.30552 0.19128 0.23875 0.0
C983 C 0.30839 0.18662 0.2197 0.0
C984 C 0.28822 0.20531 0.20964 0.0
C985 C 0.29985 0.19372 0.20528 0.0
C986 C 0.2943 0.20347 0.24311 0.0
C987 C 0.28422 0.26238 0.29903 0.0
C988 C 0.27233 0.22153 0.23261 0.0
C989 C 0.1975 0.22459 0.23401 0.0
C990 C 0.19822 0.21951 0.25215 0.0
C991 C 0.31123 0.27056 0.26409 0.0
C992 C 0.27767 0.34787 0.30289 0.0
C993 C 0.2622 0.37206 0.2977 0.0
C994 C 0.26485 0.37875 0.3173 0.0
C995 C 0.28063 0.35466 0.32252 0.0
C996 C 0.26877 0.35685 0.29054 0.0
C997 C 0.27426 0.37014 0.32967 0.0
C998 C 0.27841 0.28767 0.23828 0.0
C999 C 0.28219 0.33051 0.29533 0.0
H1000 H 0.31661 0.17686 0.21583 0.0
H1001 H 0.28128 0.21029 0.19823 0.0
H1002 H 0.30185 0.1898 0.19062 0.0
H1003 H 0.29216 0.2073 0.25777 0.0
H1004 H 0.2597 0.39057 0.32294 0.0
H1005 H 0.28742 0.34777 0.33234 0.0
H1006 H 0.26631 0.35166 0.27537 0.0
H1007 H 0.27636 0.37527 0.3448 0.0
Tb1008 Tb 0.52926 0.49896 0.01419 0.0
C1009 C 0.50504 0.56855 0.05752 0.0
N1010 N 0.49581 0.55655 0.04215 0.0
C1011 C 0.46864 0.55602 0.05605 0.0
C1012 C 0.49642 0.57463 0.07295 0.0
C1013 C 0.47783 0.55027 0.04117 0.0
C1014 C 0.47798 0.56822 0.07205 0.0
C1015 C 0.53342 0.58672 0.07367 0.0
C1016 C 0.52329 0.57441 0.05788 0.0
C1017 C 0.52493 0.59278 0.08914 0.0
C1018 C 0.50648 0.58677 0.08878 0.0
Tb1019 Tb 0.51207 0.54778 0.01883 0.0
N1020 N 0.53107 0.56796 0.04276 0.0
C1021 C 0.55173 0.59273 0.07332 0.0
C1022 C 0.54867 0.57492 0.04183 0.0
C1023 C 0.55933 0.58701 0.0572 0.0
H1024 H 0.4705 0.54119 0.02871 0.0
H1025 H 0.57334 0.59219 0.05644 0.0
H1026 H 0.57166 0.50958 0.00676 0.0
H1027 H 0.47056 0.45533 0.97093 0.0
H1028 H 0.55457 0.57188 0.02914 0.0
H1029 H 0.56 0.60218 0.08516 0.0
H1030 H 0.48701 0.47631 -0.00076 0.0
H1031 H 0.45437 0.55108 0.05514 0.0
H1032 H 0.53251 0.60221 0.10141 0.0
H1033 H 0.50011 0.59159 0.10079 0.0
H1034 H 0.58977 0.50158 0.98149 0.0
H1035 H 0.47085 0.57262 0.08358 0.0
H1036 H 0.48659 0.4453 0.94438 0.0
N1037 N 0.54743 0.49268 0.99192 0.0
C1038 C 0.5395 0.48029 0.97622 0.0
C1039 C 0.57562 0.49557 0.97978 0.0
C1040 C 0.54935 0.47521 0.9615 0.0
C1041 C 0.56528 0.50027 0.99396 0.0
C1042 C 0.56763 0.48299 0.96347 0.0
N1043 N 0.51209 0.47939 0.98869 0.0
C1044 C 0.49418 0.47265 0.98771 0.0
C1045 C 0.51238 0.46109 0.95813 0.0
C1046 C 0.52124 0.47334 0.97457 0.0
C1047 C 0.49391 0.45471 0.95678 0.0
C1048 C 0.48481 0.46044 0.97169 0.0
H1049 H 0.57568 0.47943 0.95248 0.0
H1050 H 0.54795 0.45872 0.93374 0.0
H1051 H 0.51559 0.44636 0.93079 0.0
O1052 O 0.52154 0.47593 0.02884 0.0
O1053 O 0.52348 0.50977 0.98774 0.0
O1054 O 0.50175 0.52495 0.99562 0.0
O1055 O 0.54875 0.48528 0.02307 0.0
O1056 O 0.50424 0.4995 0.02647 0.0
O1057 O 0.49157 0.52193 0.01418 0.0
O1058 O 0.51962 0.5694 0.0025 0.0
O1059 O 0.51689 0.53659 0.0453 0.0
O1060 O 0.53894 0.52117 0.03839 0.0
O1061 O 0.4925 0.56121 0.00911 0.0
O1062 O 0.53675 0.54629 0.006 0.0
O1063 O 0.54875 0.52522 0.02087 0.0
C1064 C 0.51112 0.51864 0.98298 0.0
C1065 C 0.54423 0.45883 0.03941 0.0
C1066 C 0.54007 0.43232 0.05648 0.0
C1067 C 0.55815 0.43201 0.05618 0.0
C1068 C 0.5623 0.45804 0.03937 0.0
C1069 C 0.56915 0.44475 0.04767 0.0
C1070 C 0.53299 0.44577 0.048 0.0
C1071 C 0.4906 0.50725 0.02287 0.0
C1072 C 0.53781 0.4734 0.0303 0.0
C1073 C 0.54061 0.46281 0.9452 0.0
C1074 C 0.52217 0.45578 0.94352 0.0
C1075 C 0.52931 0.52797 0.05054 0.0
C1076 C 0.49717 0.58555 0.98978 0.0
C1077 C 0.50241 0.61238 0.97321 0.0
C1078 C 0.48391 0.61033 0.9691 0.0
C1079 C 0.47872 0.58389 0.98535 0.0
C1080 C 0.50911 0.59985 0.9835 0.0
C1081 C 0.47219 0.59616 0.97508 0.0
C1082 C 0.55012 0.53847 0.0104 0.0
C1083 C 0.50338 0.57193 0.00057 0.0
H1084 H 0.56378 0.42176 0.06255 0.0
H1085 H 0.57128 0.46774 0.03288 0.0
H1086 H 0.58307 0.44432 0.0475 0.0
H1087 H 0.51903 0.44607 0.04816 0.0
H1088 H 0.47853 0.61981 0.96125 0.0
H1089 H 0.46923 0.57299 0.98976 0.0
H1090 H 0.52337 0.60138 0.98677 0.0
H1091 H 0.45795 0.59471 0.97178 0.0
Tb1092 Tb 0.77788 0.29366 0.2592 0.0
C1093 C 0.73526 0.23072 0.29459 0.0
N1094 N 0.7501 0.24415 0.30144 0.0
C1095 C 0.73887 0.24953 0.33139 0.0
C1096 C 0.72135 0.22662 0.30579 0.0
C1097 C 0.75234 0.25309 0.31978 0.0
C1098 C 0.72325 0.23634 0.32434 0.0
C1099 C 0.71873 0.20728 0.26861 0.0
C1100 C 0.73399 0.22118 0.27614 0.0
C1101 C 0.7048 0.20326 0.27971 0.0
C1102 C 0.70611 0.21288 0.29824 0.0
Tb1103 Tb 0.7718 0.24654 0.28193 0.0
N1104 N 0.74762 0.2256 0.26559 0.0
C1105 C 0.71786 0.19792 0.25007 0.0
C1106 C 0.74715 0.21588 0.24785 0.0
C1107 C 0.73216 0.20221 0.23969 0.0
H1108 H 0.76473 0.26246 0.32582 0.0
H1109 H 0.73182 0.19468 0.22554 0.0
H1110 H 0.7825 0.27838 0.21384 0.0
H1111 H 0.81634 0.35007 0.31112 0.0
H1112 H 0.75852 0.21787 0.24023 0.0
H1113 H 0.70633 0.18723 0.24373 0.0
H1114 H 0.79094 0.32399 0.2986 0.0
H1115 H 0.74068 0.25671 0.3459 0.0
H1116 H 0.69295 0.19268 0.27411 0.0
H1117 H 0.69528 0.20954 0.30664 0.0
H1118 H 0.80481 0.28498 0.19204 0.0
H1119 H 0.71289 0.23353 0.33343 0.0
H1120 H 0.84021 0.35881 0.29116 0.0
N1121 N 0.79763 0.29759 0.23741 0.0
C1122 C 0.81199 0.31188 0.24304 0.0
C1123 C 0.80716 0.29243 0.20646 0.0
C1124 C 0.8248 0.31664 0.23073 0.0
C1125 C 0.79471 0.28836 0.21911 0.0
C1126 C 0.82236 0.30651 0.21234 0.0
N1127 N 0.8011 0.31708 0.27261 0.0
C1128 C 0.80161 0.32722 0.29013 0.0
C1129 C 0.82814 0.33722 0.26741 0.0
C1130 C 0.81361 0.32215 0.26109 0.0
C1131 C 0.82923 0.34716 0.28574 0.0
C1132 C 0.81584 0.3422 0.2971 0.0
H1133 H 0.83186 0.30976 0.20242 0.0
H1134 H 0.84939 0.33538 0.22774 0.0
H1135 H 0.85237 0.35332 0.2599 0.0
O1136 O 0.76229 0.31379 0.26643 0.0
O1137 O 0.80254 0.28892 0.27458 0.0
O1138 O 0.79901 0.25727 0.27537 0.0
O1139 O 0.77128 0.30872 0.23845 0.0
O1140 O 0.76831 0.2924 0.28674 0.0
O1141 O 0.78285 0.27268 0.30088 0.0
O1142 O 0.77451 0.21897 0.28078 0.0
O1143 O 0.74823 0.25904 0.27638 0.0
O1144 O 0.75324 0.27269 0.25001 0.0
O1145 O 0.7828 0.23858 0.30669 0.0
O1146 O 0.78184 0.2451 0.25427 0.0
O1147 O 0.77017 0.26706 0.24057 0.0
C1148 C 0.80908 0.27408 0.27647 0.0
C1149 C 0.75274 0.33067 0.24132 0.0
C1150 C 0.7401 0.35799 0.2449 0.0
C1151 C 0.73552 0.35545 0.22511 0.0
C1152 C 0.74795 0.32824 0.22152 0.0
C1153 C 0.73935 0.34056 0.2135 0.0
C1154 C 0.74856 0.34549 0.25308 0.0
C1155 C 0.77621 0.28759 0.30169 0.0
C1156 C 0.76244 0.31792 0.24931 0.0
C1157 C 0.83941 0.33155 0.237 0.0
C1158 C 0.84108 0.34181 0.2553 0.0
C1159 C 0.74235 0.26563 0.26141 0.0
C1160 C 0.79596 0.2123 0.30357 0.0
C1161 C 0.81474 0.19024 0.29604 0.0
C1162 C 0.82091 0.19235 0.31551 0.0
C1163 C 0.80233 0.21408 0.32293 0.0
C1164 C 0.80207 0.20012 0.29006 0.0
C1165 C 0.81471 0.20416 0.32883 0.0
C1166 C 0.77758 0.25269 0.23945 0.0
C1167 C 0.78145 0.22159 0.29847 0.0
H1168 H 0.72895 0.36503 0.21867 0.0
H1169 H 0.75091 0.31682 0.21218 0.0
H1170 H 0.73576 0.33865 0.19824 0.0
H1171 H 0.75224 0.34756 0.26836 0.0
H1172 H 0.83038 0.1846 0.32048 0.0
H1173 H 0.79741 0.22288 0.3336 0.0
H1174 H 0.79704 0.19825 0.2751 0.0
H1175 H 0.81938 0.20548 0.34381 0.0
Tb1176 Tb 0.02764 0.53648 0.49346 0.0
C1177 C 0.05307 0.49186 0.5624 0.0
N1178 N 0.04067 0.48668 0.54669 0.0
C1179 C 0.04986 0.45781 0.5401 0.0
C1180 C 0.0648 0.4805 0.56714 0.0
C1181 C 0.03856 0.46958 0.53591 0.0
C1182 C 0.06315 0.46335 0.55565 0.0
C1183 C 0.06705 0.51501 0.58974 0.0
C1184 C 0.05407 0.50875 0.57371 0.0
C1185 C 0.0789 0.50384 0.5944 0.0
C1186 C 0.07775 0.4866 0.58315 0.0
Tb1187 Tb 0.023 0.50726 0.54147 0.0
N1188 N 0.04297 0.51958 0.56813 0.0
C1189 C 0.06789 0.53244 0.60038 0.0
C1190 C 0.04328 0.53628 0.57888 0.0
C1191 C 0.05585 0.54304 0.595 0.0
H1192 H 0.02793 0.46464 0.52432 0.0
H1193 H 0.05624 0.55643 0.60327 0.0
H1194 H 0.01854 0.57701 0.50824 0.0
H1195 H 0.00125 0.4852 0.43043 0.0
H1196 H 0.03391 0.54445 0.57508 0.0
H1197 H 0.07771 0.5378 0.61277 0.0
H1198 H 0.02243 0.49959 0.4586 0.0
H1199 H 0.04819 0.44436 0.53141 0.0
H1200 H 0.08904 0.50843 0.60662 0.0
H1201 H 0.08697 0.47812 0.58694 0.0
H1202 H 0.99618 0.59477 0.49964 0.0
H1203 H 0.07189 0.45419 0.55881 0.0
H1204 H 0.97697 0.50016 0.42016 0.0
N1205 N 0.00835 0.55451 0.48572 0.0
C1206 C 0.99645 0.54784 0.46991 0.0
C1207 C 0.99602 0.58152 0.49121 0.0
C1208 C 0.9834 0.5575 0.4644 0.0
C1209 C 0.00861 0.57132 0.49615 0.0
C1210 C 0.98325 0.5745 0.47535 0.0
N1211 N 0.00966 0.52204 0.46581 0.0
C1212 C 0.01161 0.50609 0.45507 0.0
C1213 C 0.98483 0.52338 0.44318 0.0
C1214 C 0.99713 0.53102 0.45958 0.0
C1215 C 0.98615 0.50651 0.43283 0.0
C1216 C 0.99976 0.49797 0.43867 0.0
H1217 H 0.97343 0.58236 0.47161 0.0
H1218 H 0.9607 0.55695 0.44387 0.0
H1219 H 0.96199 0.52706 0.42521 0.0
O1220 O 0.04724 0.53628 0.4753 0.0
O1221 O 0.00094 0.52923 0.50118 0.0
O1222 O 0.00549 0.50455 0.51475 0.0
O1223 O 0.04537 0.56172 0.49239 0.0
O1224 O 0.03465 0.50866 0.4903 0.0
O1225 O 0.02138 0.49072 0.51226 0.0
O1226 O 0.0046 0.51038 0.56112 0.0
O1227 O 0.05068 0.5215 0.54172 0.0
O1228 O 0.03657 0.52578 0.51673 0.0
O1229 O 0.00758 0.48345 0.54884 0.0
O1230 O 0.01643 0.53533 0.54319 0.0
O1231 O 0.03108 0.55356 0.52219 0.0
C1232 C 0.99501 0.51545 0.51009 0.0
C1233 C 0.05349 0.56281 0.4611 0.0
C1234 C 0.05993 0.56104 0.42817 0.0
C1235 C 0.05484 0.57801 0.42741 0.0
C1236 C 0.04851 0.57976 0.46008 0.0
C1237 C 0.04919 0.58727 0.44328 0.0
C1238 C 0.05922 0.5536 0.44511 0.0
C1239 C 0.02949 0.49266 0.49665 0.0
C1240 C 0.05255 0.55419 0.47841 0.0
C1241 C 0.97093 0.54982 0.44827 0.0
C1242 C 0.97165 0.5328 0.43767 0.0
C1243 C 0.05188 0.52865 0.52668 0.0
C1244 C 0.0029 0.48754 0.58108 0.0
C1245 C 0.99543 0.4897 0.61349 0.0
C1246 C 0.00731 0.47844 0.61772 0.0
C1247 C 0.01462 0.47608 0.58553 0.0
C1248 C 0.99315 0.49415 0.59512 0.0
C1249 C 0.01678 0.4716 0.60376 0.0
C1250 C 0.02319 0.55155 0.53788 0.0
C1251 C 0.00092 0.49276 0.56198 0.0
H1252 H 0.05559 0.58436 0.41471 0.0
H1253 H 0.04406 0.58718 0.47218 0.0
H1254 H 0.04542 0.60037 0.44257 0.0
H1255 H 0.06295 0.54045 0.44581 0.0
H1256 H 0.009 0.47467 0.63177 0.0
H1257 H 0.02213 0.47051 0.57499 0.0
H1258 H 0.98395 0.50283 0.59182 0.0
H1259 H 0.02577 0.46275 0.60704 0.0
Tb1260 Tb 0.79947 0.76376 0.26753 0.0
C1261 C 0.7358 0.7897 0.22463 0.0
N1262 N 0.74754 0.79885 0.23994 0.0
C1263 C 0.75071 0.8269 0.22659 0.0
C1264 C 0.73122 0.79878 0.20949 0.0
C1265 C 0.75489 0.81727 0.24121 0.0
C1266 C 0.73886 0.81761 0.21063 0.0
C1267 C 0.71688 0.76086 0.20809 0.0
C1268 C 0.72884 0.77095 0.2239 0.0
C1269 C 0.71219 0.76985 0.193 0.0
C1270 C 0.71935 0.78876 0.19369 0.0
Tb1271 Tb 0.7531 0.78177 0.26299 0.0
N1272 N 0.7341 0.76258 0.23855 0.0
C1273 C 0.70995 0.74204 0.20798 0.0
C1274 C 0.72656 0.74451 0.23896 0.0
C1275 C 0.71466 0.7339 0.22358 0.0
H1276 H 0.76355 0.8247 0.25376 0.0
H1277 H 0.70891 0.71951 0.22391 0.0
H1278 H 0.7887 0.72039 0.27547 0.0
H1279 H 0.84235 0.82564 0.30897 0.0
H1280 H 0.72912 0.73828 0.25125 0.0
H1281 H 0.7007 0.73379 0.19611 0.0
H1282 H 0.82248 0.8075 0.28108 0.0
H1283 H 0.75654 0.8415 0.2277 0.0
H1284 H 0.70304 0.76231 0.18072 0.0
H1285 H 0.71566 0.79549 0.18191 0.0
H1286 H 0.79565 0.70283 0.30093 0.0
H1287 H 0.73567 0.8251 0.1993 0.0
H1288 H 0.85073 0.81042 0.33599 0.0
N1289 N 0.80494 0.74595 0.28989 0.0
C1290 C 0.81652 0.75478 0.30546 0.0
C1291 C 0.80155 0.71746 0.30241 0.0
C1292 C 0.82096 0.74527 0.32028 0.0
C1293 C 0.79749 0.7275 0.28811 0.0
C1294 C 0.81333 0.72637 0.31858 0.0
N1295 N 0.81816 0.78243 0.29253 0.0
C1296 C 0.82528 0.80076 0.29293 0.0
C1297 C 0.83508 0.78341 0.32296 0.0
C1298 C 0.82341 0.77363 0.30681 0.0
C1299 C 0.84172 0.8024 0.32383 0.0
C1300 C 0.83692 0.81106 0.30866 0.0
H1301 H 0.81642 0.71856 0.32966 0.0
H1302 H 0.83623 0.74789 0.34792 0.0
H1303 H 0.84863 0.78126 0.35025 0.0
O1304 O 0.82173 0.77118 0.25206 0.0
O1305 O 0.78818 0.7708 0.29432 0.0
O1306 O 0.77328 0.79317 0.28753 0.0
O1307 O 0.81325 0.74346 0.25869 0.0
O1308 O 0.79939 0.78912 0.25514 0.0
O1309 O 0.77823 0.80235 0.26931 0.0
O1310 O 0.73068 0.7751 0.27828 0.0
O1311 O 0.76452 0.77497 0.23631 0.0
O1312 O 0.77909 0.75242 0.24318 0.0
O1313 O 0.73971 0.80259 0.27131 0.0
O1314 O 0.75331 0.75647 0.27562 0.0
O1315 O 0.77427 0.74324 0.26104 0.0
C1316 C 0.77971 0.7839 0.29978 0.0
C1317 C 0.83812 0.74722 0.24038 0.0
C1318 C 0.8655 0.75112 0.22507 0.0
C1319 C 0.86329 0.7318 0.22138 0.0
C1320 C 0.83636 0.72792 0.23634 0.0
C1321 C 0.84882 0.72033 0.22691 0.0
C1322 C 0.85276 0.75893 0.2345 0.0
C1323 C 0.79203 0.80334 0.25965 0.0
C1324 C 0.82433 0.75436 0.25053 0.0
C1325 C 0.83265 0.75495 0.33638 0.0
C1326 C 0.83969 0.77397 0.33771 0.0
C1327 C 0.77274 0.76169 0.23088 0.0
C1328 C 0.71395 0.79912 0.28836 0.0
C1329 C 0.68914 0.79629 0.30751 0.0
C1330 C 0.68822 0.81464 0.30612 0.0
C1331 C 0.71257 0.81744 0.28719 0.0
C1332 C 0.70197 0.7884 0.29843 0.0
C1333 C 0.69979 0.82507 0.29596 0.0
C1334 C 0.76072 0.74229 0.27105 0.0
C1335 C 0.72821 0.79193 0.27923 0.0
H1336 H 0.87287 0.72555 0.21415 0.0
H1337 H 0.82526 0.71855 0.24043 0.0
H1338 H 0.84727 0.70545 0.22393 0.0
H1339 H 0.85438 0.77383 0.23745 0.0
H1340 H 0.6784 0.8209 0.31288 0.0
H1341 H 0.72145 0.826 0.2795 0.0
H1342 H 0.70281 0.77427 0.29952 0.0
H1343 H 0.69891 0.83919 0.29495 0.0
Tb1344 Tb 0.76535 0.27223 0.79004 0.0
C1345 C 0.80586 0.24053 0.71723 0.0
N1346 N 0.81175 0.25227 0.73395 0.0
C1347 C 0.83643 0.23764 0.73894 0.0
C1348 C 0.81469 0.2264 0.71109 0.0
C1349 C 0.82716 0.25135 0.74452 0.0
C1350 C 0.83008 0.22499 0.72226 0.0
C1351 C 0.78377 0.23023 0.68933 0.0
C1352 C 0.79064 0.24246 0.70644 0.0
C1353 C 0.79243 0.21602 0.68325 0.0
C1354 C 0.80785 0.21412 0.69409 0.0
Tb1355 Tb 0.79498 0.2736 0.74179 0.0
N1356 N 0.78217 0.25587 0.71323 0.0
C1357 C 0.76832 0.23256 0.67895 0.0
C1358 C 0.76755 0.25872 0.70268 0.0
C1359 C 0.76031 0.24699 0.68555 0.0
H1360 H 0.8327 0.26135 0.75704 0.0
H1361 H 0.74856 0.24913 0.67742 0.0
H1362 H 0.72672 0.2819 0.77643 0.0
H1363 H 0.81505 0.3018 0.85132 0.0
H1364 H 0.76145 0.27008 0.70714 0.0
H1365 H 0.7626 0.22343 0.66574 0.0
H1366 H 0.80086 0.27865 0.8239 0.0
H1367 H 0.84855 0.23692 0.74746 0.0
H1368 H 0.78728 0.20641 0.67019 0.0
H1369 H 0.81439 0.2031 0.68922 0.0
H1370 H 0.70972 0.30551 0.78612 0.0
H1371 H 0.83726 0.21433 0.71803 0.0
H1372 H 0.80109 0.32783 0.86197 0.0
N1373 N 0.74832 0.29295 0.79843 0.0
C1374 C 0.75495 0.306 0.81396 0.0
C1375 C 0.72248 0.30587 0.79403 0.0
C1376 C 0.74576 0.31983 0.81996 0.0
C1377 C 0.73221 0.29255 0.78853 0.0
C1378 C 0.72932 0.31964 0.80976 0.0
N1379 N 0.77949 0.2919 0.81727 0.0
C1380 C 0.79478 0.29016 0.82749 0.0
C1381 C 0.77868 0.31897 0.83976 0.0
C1382 C 0.77117 0.30556 0.82363 0.0
C1383 C 0.79485 0.3178 0.84953 0.0
C1384 C 0.80281 0.30318 0.8435 0.0
H1385 H 0.7218 0.33 0.81393 0.0
H1386 H 0.74647 0.3442 0.84063 0.0
H1387 H 0.77534 0.34345 0.85799 0.0
O1388 O 0.7643 0.25141 0.80682 0.0
O1389 O 0.77415 0.29993 0.78322 0.0
O1390 O 0.79637 0.29083 0.76932 0.0
O1391 O 0.74025 0.25555 0.79194 0.0
O1392 O 0.7912 0.26316 0.79322 0.0
O1393 O 0.80968 0.27338 0.77031 0.0
O1394 O 0.79633 0.2961 0.72709 0.0
O1395 O 0.77994 0.24525 0.74102 0.0
O1396 O 0.77495 0.26113 0.76588 0.0
O1397 O 0.81987 0.28615 0.7348 0.0
O1398 O 0.76849 0.28196 0.73995 0.0
O1399 O 0.74987 0.26876 0.76144 0.0
C1400 C 0.7872 0.30348 0.77295 0.0
C1401 C 0.7393 0.24745 0.82286 0.0
C1402 C 0.74158 0.2406 0.85512 0.0
C1403 C 0.72858 0.25075 0.85932 0.0
C1404 C 0.7262 0.25747 0.82713 0.0
C1405 C 0.72079 0.25896 0.84529 0.0
C1406 C 0.74661 0.23871 0.8368 0.0
C1407 C 0.80685 0.26636 0.78631 0.0
C1408 C 0.74698 0.24734 0.80483 0.0
C1409 C 0.75328 0.33338 0.83584 0.0
C1410 C 0.76972 0.33297 0.8457 0.0
C1411 C 0.77228 0.24487 0.75604 0.0
C1412 C 0.81801 0.29755 0.70577 0.0
C1413 C 0.81124 0.30354 0.6737 0.0
C1414 C 0.82753 0.29958 0.66914 0.0
C1415 C 0.8344 0.29384 0.70117 0.0
C1416 C 0.80655 0.30241 0.69195 0.0
C1417 C 0.83905 0.29478 0.68288 0.0
C1418 C 0.75268 0.27691 0.74619 0.0
C1419 C 0.81308 0.29705 0.72506 0.0
H1420 H 0.72435 0.25216 0.87337 0.0
H1421 H 0.72039 0.26444 0.81666 0.0
H1422 H 0.71074 0.26673 0.84858 0.0
H1423 H 0.75683 0.23107 0.83363 0.0
H1424 H 0.83153 0.3007 0.65516 0.0
H1425 H 0.84362 0.29032 0.71171 0.0
H1426 H 0.79396 0.30549 0.69537 0.0
H1427 H 0.85171 0.292 0.67942 0.0
Tb1428 Tb 0.77261 0.75568 0.75566 0.0
C1429 C 0.83305 0.81876 0.80036 0.0
N1430 N 0.81783 0.80931 0.80573 0.0
C1431 C 0.83337 0.80868 0.83619 0.0
C1432 C 0.84915 0.82334 0.81277 0.0
C1433 C 0.81774 0.80431 0.82338 0.0
C1434 C 0.84914 0.81827 0.83089 0.0
C1435 C 0.84834 0.83228 0.77582 0.0
C1436 C 0.83259 0.82321 0.78203 0.0
C1437 C 0.86435 0.83705 0.78824 0.0
C1438 C 0.86474 0.83267 0.80667 0.0
Tb1439 Tb 0.79299 0.8065 0.78487 0.0
N1440 N 0.81681 0.81843 0.7703 0.0
C1441 C 0.84753 0.83643 0.75733 0.0
C1442 C 0.81586 0.8234 0.75264 0.0
C1443 C 0.83121 0.83203 0.74573 0.0
H1444 H 0.8055 0.7977 0.82797 0.0
H1445 H 0.83034 0.83575 0.73163 0.0
H1446 H 0.76384 0.76211 0.71087 0.0
H1447 H 0.7324 0.71813 0.80149 0.0
H1448 H 0.80337 0.82165 0.74404 0.0
H1449 H 0.85934 0.84335 0.75201 0.0
H1450 H 0.75996 0.73544 0.79236 0.0
H1451 H 0.83319 0.80489 0.85025 0.0
H1452 H 0.87653 0.84415 0.78372 0.0
H1453 H 0.87722 0.83641 0.81605 0.0
H1454 H 0.73789 0.75497 0.68619 0.0
H1455 H 0.86122 0.82167 0.84088 0.0
H1456 H 0.70467 0.71024 0.77888 0.0
N1457 N 0.74946 0.75033 0.73172 0.0
C1458 C 0.7338 0.7401 0.73523 0.0
C1459 C 0.73647 0.75095 0.70003 0.0
C1460 C 0.7187 0.73523 0.72137 0.0
C1461 C 0.75108 0.75542 0.71423 0.0
C1462 C 0.72017 0.7409 0.70364 0.0
N1463 N 0.74787 0.73931 0.76575 0.0
C1464 C 0.74792 0.73305 0.78278 0.0
C1465 C 0.71698 0.72383 0.7571 0.0
C1466 C 0.73299 0.73433 0.75279 0.0
C1467 C 0.71672 0.71829 0.77499 0.0
C1468 C 0.73231 0.7228 0.78782 0.0
H1469 H 0.7089 0.73735 0.69256 0.0
H1470 H 0.69096 0.72085 0.7151 0.0
H1471 H 0.68942 0.711 0.74645 0.0
O1472 O 0.78423 0.73289 0.76045 0.0
O1473 O 0.75184 0.76966 0.76582 0.0
O1474 O 0.76395 0.79799 0.78558 0.0
O1475 O 0.7733 0.73626 0.73211 0.0
O1476 O 0.78507 0.75832 0.78524 0.0
O1477 O 0.78062 0.78592 0.80099 0.0
O1478 O 0.79367 0.83463 0.78425 0.0
O1479 O 0.81115 0.78701 0.77998 0.0
O1480 O 0.79836 0.77163 0.75088 0.0
O1481 O 0.79295 0.82387 0.81056 0.0
O1482 O 0.77744 0.80547 0.75695 0.0
O1483 O 0.78246 0.77865 0.74121 0.0
C1484 C 0.75031 0.78461 0.77722 0.0
C1485 C 0.78663 0.71013 0.733 0.0
C1486 C 0.79778 0.68233 0.7353 0.0
C1487 C 0.79804 0.67945 0.71548 0.0
C1488 C 0.78684 0.70708 0.71318 0.0
C1489 C 0.79255 0.69179 0.7045 0.0
C1490 C 0.7921 0.69775 0.74398 0.0
C1491 C 0.78272 0.7689 0.80076 0.0
C1492 C 0.78147 0.72666 0.74219 0.0
C1493 C 0.70271 0.72474 0.72557 0.0
C1494 C 0.70183 0.71911 0.74342 0.0
C1495 C 0.81225 0.77655 0.76393 0.0
C1496 C 0.77862 0.84829 0.80785 0.0
C1497 C 0.75538 0.8645 0.79965 0.0
C1498 C 0.75364 0.86876 0.81908 0.0
C1499 C 0.77685 0.85277 0.8272 0.0
C1500 C 0.76772 0.85404 0.79412 0.0
C1501 C 0.7643 0.86284 0.83275 0.0
C1502 C 0.77646 0.79382 0.74108 0.0
C1503 C 0.79223 0.83812 0.80232 0.0
H1504 H 0.80257 0.66773 0.70849 0.0
H1505 H 0.78281 0.71661 0.70442 0.0
H1506 H 0.79278 0.68953 0.68925 0.0
H1507 H 0.79168 0.69998 0.75923 0.0
H1508 H 0.7445 0.87721 0.82377 0.0
H1509 H 0.78527 0.84858 0.83803 0.0
H1510 H 0.769 0.8507 0.77914 0.0
H1511 H 0.76308 0.86638 0.84769 0.0
Tb1512 Tb 0.54541 0.53427 0.52565 0.0
C1513 C 0.48649 0.46699 0.47919 0.0
N1514 N 0.49528 0.48336 0.47496 0.0
C1515 C 0.49801 0.46818 0.44385 0.0
C1516 C 0.48351 0.45047 0.46601 0.0
C1517 C 0.5005 0.48424 0.45731 0.0
C1518 C 0.48961 0.4512 0.44825 0.0
C1519 C 0.47085 0.45025 0.50161 0.0
C1520 C 0.4802 0.46685 0.49677 0.0
C1521 C 0.46803 0.43374 0.48859 0.0
C1522 C 0.47435 0.43385 0.47084 0.0
Tb1523 Tb 0.49705 0.50851 0.49784 0.0
N1524 N 0.48345 0.48302 0.5092 0.0
C1525 C 0.46442 0.45081 0.5193 0.0
C1526 C 0.47623 0.48385 0.52591 0.0
C1527 C 0.46696 0.46773 0.53141 0.0
H1528 H 0.50585 0.49731 0.45316 0.0
H1529 H 0.46144 0.46844 0.54479 0.0
H1530 H 0.534 0.54705 0.56856 0.0
H1531 H 0.57572 0.57323 0.47421 0.0
H1532 H 0.47696 0.49693 0.5347 0.0
H1533 H 0.45711 0.43837 0.52353 0.0
H1534 H 0.56325 0.54501 0.48642 0.0
H1535 H 0.50224 0.46897 0.42992 0.0
H1536 H 0.46086 0.42084 0.49204 0.0
H1537 H 0.47193 0.42102 0.46088 0.0
H1538 H 0.53731 0.57619 0.59067 0.0
H1539 H 0.48754 0.43882 0.43771 0.0
H1540 H 0.57897 0.60378 0.49418 0.0
N1541 N 0.54525 0.5601 0.54651 0.0
C1542 C 0.5535 0.57622 0.54136 0.0
C1543 C 0.54174 0.57641 0.57677 0.0
C1544 C 0.55593 0.59319 0.55373 0.0
C1545 C 0.53956 0.55991 0.56402 0.0
C1546 C 0.54996 0.59312 0.57162 0.0
N1547 N 0.55657 0.55909 0.51172 0.0
C1548 C 0.56305 0.55808 0.49459 0.0
C1549 C 0.56714 0.59231 0.51737 0.0
C1550 C 0.55905 0.57574 0.52333 0.0
C1551 C 0.57272 0.59137 0.49928 0.0
C1552 C 0.57078 0.57416 0.48791 0.0
H1553 H 0.55167 0.60586 0.58156 0.0
H1554 H 0.56616 0.62281 0.5572 0.0
H1555 H 0.57591 0.62206 0.5254 0.0
O1556 O 0.5729 0.53667 0.52483 0.0
O1557 O 0.52473 0.55053 0.5206 0.0
O1558 O 0.50838 0.53646 0.49196 0.0
O1559 O 0.56179 0.53598 0.55122 0.0
O1560 O 0.54461 0.51854 0.49703 0.0
O1561 O 0.51747 0.51999 0.48142 0.0
O1562 O 0.47328 0.51645 0.50365 0.0
O1563 O 0.51231 0.48942 0.50918 0.0
O1564 O 0.54074 0.50412 0.52438 0.0
O1565 O 0.47637 0.50397 0.47542 0.0
O1566 O 0.49988 0.5236 0.52683 0.0
O1567 O 0.52636 0.52021 0.54213 0.0
C1568 C 0.51561 0.55152 0.50437 0.0
C1569 C 0.58559 0.52102 0.5471 0.0
C1570 C 0.60703 0.50253 0.53864 0.0
C1571 C 0.60237 0.49188 0.55282 0.0
C1572 C 0.58138 0.51063 0.56167 0.0
C1573 C 0.58973 0.49609 0.56443 0.0
C1574 C 0.59878 0.51716 0.53597 0.0
C1575 C 0.53383 0.51761 0.48134 0.0
C1576 C 0.57585 0.53528 0.54275 0.0
C1577 C 0.56411 0.60965 0.54785 0.0
C1578 C 0.56964 0.60922 0.52971 0.0
C1579 C 0.528 0.4892 0.51815 0.0
C1580 C 0.45724 0.52489 0.47784 0.0
C1581 C 0.43405 0.54242 0.47991 0.0
C1582 C 0.43789 0.54866 0.46279 0.0
C1583 C 0.46107 0.53116 0.46073 0.0
C1584 C 0.44382 0.53059 0.4873 0.0
C1585 C 0.45137 0.54302 0.45326 0.0
C1586 C 0.50945 0.52063 0.54179 0.0
C1587 C 0.46622 0.5117 0.48591 0.0
H1588 H 0.6087 0.48052 0.55504 0.0
H1589 H 0.57137 0.5134 0.57065 0.0
H1590 H 0.58624 0.48795 0.57546 0.0
H1591 H 0.60231 0.52519 0.52482 0.0
H1592 H 0.43041 0.55776 0.45676 0.0
H1593 H 0.4714 0.52685 0.45309 0.0
H1594 H 0.4411 0.52589 0.50063 0.0
H1595 H 0.45424 0.54778 0.44004 0.0
Tb1596 Tb 0.9963 0.52038 0.0193 0.0
C1597 C 0.06445 0.56269 0.99048 0.0
N1598 N 0.05169 0.54735 0.98292 0.0
C1599 C 0.05082 0.55744 0.95248 0.0
C1600 C 0.07044 0.57635 0.97941 0.0
C1601 C 0.04526 0.54428 0.96401 0.0
C1602 C 0.06337 0.57361 0.96023 0.0
C1603 C 0.0843 0.58072 0.01795 0.0
C1604 C 0.07136 0.56479 0.00954 0.0
C1605 C 0.09019 0.59444 0.00699 0.0
C1606 C 0.08332 0.59224 0.98777 0.0
Tb1607 Tb 0.04529 0.52631 0.00285 0.0
N1608 N 0.06534 0.55126 0.01979 0.0
C1609 C 0.09102 0.58234 0.03711 0.0
C1610 C 0.07247 0.55241 0.03822 0.0
C1611 C 0.08516 0.56806 0.04724 0.0
H1612 H 0.03623 0.53153 0.95749 0.0
H1613 H 0.09066 0.56896 0.06191 0.0
H1614 H 0.00394 0.52115 0.06679 0.0
H1615 H 0.95004 0.47187 0.96594 0.0
H1616 H 0.06896 0.54108 0.04588 0.0
H1617 H 0.10097 0.59438 0.04411 0.0
H1618 H 0.97028 0.50195 0.97955 0.0
H1619 H 0.0456 0.55498 0.93755 0.0
H1620 H 0.10013 0.60677 0.01323 0.0
H1621 H 0.08807 0.60289 0.97949 0.0
H1622 H 0.99988 0.49859 0.08868 0.0
H1623 H 0.06768 0.58375 0.95122 0.0
H1624 H 0.94558 0.44655 0.98515 0.0
N1625 N 0.99301 0.50128 0.04186 0.0
C1626 C 0.98298 0.48395 0.03534 0.0
C1627 C 0.99537 0.49417 0.07364 0.0
C1628 C 0.9794 0.47082 0.04765 0.0
C1629 C 0.99814 0.50685 0.06099 0.0
C1630 C 0.98623 0.47599 0.0669 0.0
N1631 N 0.97817 0.49304 0.0053 0.0
C1632 C 0.96876 0.49074 0.98768 0.0
C1633 C 0.96339 0.46259 0.00962 0.0
C1634 C 0.97499 0.47982 0.01658 0.0
C1635 C 0.95468 0.45959 0.991 0.0
C1636 C 0.95718 0.47383 0.98009 0.0
H1637 H 0.98378 0.46631 0.07682 0.0
H1638 H 0.96561 0.44304 0.04981 0.0
H1639 H 0.95161 0.43584 0.01652 0.0
O1640 O 0.9776 0.53516 0.00944 0.0
O1641 O 0.00379 0.49674 0.00219 0.0
O1642 O 0.03344 0.50006 0.01219 0.0
O1643 O 0.9747 0.52246 0.03441 0.0
O1644 O 0.00174 0.5307 0.9929 0.0
O1645 O 0.02253 0.51563 0.98102 0.0
O1646 O 0.07148 0.52133 0.00646 0.0
O1647 O 0.0339 0.55171 0.0075 0.0
O1648 O 0.01443 0.54734 0.03013 0.0
O1649 O 0.05359 0.51086 0.9799 0.0
O1650 O 0.042 0.51812 0.03064 0.0
O1651 O 0.01893 0.53076 0.04144 0.0
C1652 C 0.01764 0.48948 0.00576 0.0
C1653 C 0.96322 0.54901 0.03355 0.0
C1654 C 0.94154 0.56836 0.03606 0.0
C1655 C 0.95058 0.57758 0.05379 0.0
C1656 C 0.97227 0.55833 0.0513 0.0
C1657 C 0.96594 0.57258 0.06134 0.0
C1658 C 0.94789 0.55412 0.02595 0.0
C1659 C 0.00794 0.52198 0.97869 0.0
C1660 C 0.96845 0.53282 0.02361 0.0
C1661 C 0.96844 0.45331 0.04057 0.0
C1662 C 0.96043 0.44921 0.02161 0.0
C1663 C 0.02519 0.55831 0.0211 0.0
C1664 C 0.08302 0.50407 0.98055 0.0
C1665 C 0.10714 0.48746 0.98238 0.0
C1666 C 0.10784 0.48717 0.96279 0.0
C1667 C 0.08397 0.50365 0.96099 0.0
C1668 C 0.09488 0.49622 0.99134 0.0
C1669 C 0.09642 0.49537 0.95223 0.0
C1670 C 0.03364 0.52471 0.04431 0.0
C1671 C 0.06922 0.51217 0.98924 0.0
H1672 H 0.94562 0.58845 0.06183 0.0
H1673 H 0.98396 0.55434 0.05755 0.0
H1674 H 0.97279 0.57959 0.07511 0.0
H1675 H 0.94067 0.54677 0.01242 0.0
H1676 H 0.11724 0.48055 0.95567 0.0
H1677 H 0.07505 0.50973 0.95249 0.0
H1678 H 0.09412 0.49631 0.00642 0.0
H1679 H 0.09708 0.49512 0.93715 0.0
C1680 C 0.98828 0.20383 0.97155 0.0
C1681 C 0.99957 0.21273 0.95964 0.0
C1682 C 0.99071 0.1872 0.97745 0.0
C1683 C 0.01282 0.14725 0.96479 0.0
H1684 H 0.99867 0.13414 0.01256 0.0
C1685 C 0.02695 0.08115 0.99263 0.0
C1686 C 0.01359 0.07049 0.00112 0.0
C1687 C 0.0254 0.09848 0.98799 0.0
C1688 C 0.00253 0.13746 -0.00093 0.0
H1689 H 0.02276 0.21092 0.94519 0.0
H1690 H 0.02732 0.18235 0.95584 0.0
H1691 H 0.99668 0.16443 0.00457 0.0
H1692 H 0.98796 0.07001 0.01125 0.0
H1693 H 0.9853 0.1004 0.00335 0.0
H1694 H 0.01895 0.12033 0.9595 0.0
C1695 C 0.01625 0.18801 0.96034 0.0
C1696 C 0.00137 0.15494 0.9944 0.0
C1697 C 0.01378 0.20467 0.95439 0.0
C1698 C 0.99854 0.07777 0.00477 0.0
C1699 C 0.99708 0.09529 0.00033 0.0
C1700 C 0.01415 0.12985 0.96955 0.0
C1701 C 0.00457 0.17875 0.97173 0.0
C1702 C 0.00641 0.16019 0.97711 0.0
C1703 C 0.01047 0.10593 0.99179 0.0
C1704 C 0.00896 0.1246 0.98673 0.0
H1705 H 0.9771 0.2094 0.97589 0.0
H1706 H 0.98122 0.18065 0.98598 0.0
H1707 H 0.01652 0.15033 0.95118 0.0
H1708 H 0.03863 0.07601 0.98929 0.0
H1709 H 0.03608 0.10618 0.9816 0.0
C1710 C 0.11805 0.79304 0.1431 0.0
C1711 C 0.10367 0.79436 0.15357 0.0
C1712 C 0.13465 0.79151 0.15216 0.0
C1713 C 0.16072 0.79839 0.201 0.0
H1714 H 0.19035 0.76941 0.1752 0.0
C1715 C 0.23076 0.79618 0.23706 0.0
C1716 C 0.23686 0.77971 0.23359 0.0
C1717 C 0.21513 0.7983 0.22665 0.0
C1718 C 0.18222 0.77744 0.18277 0.0
H1719 H 0.09567 0.79478 0.18191 0.0
H1720 H 0.12389 0.7917 0.19731 0.0
H1721 H 0.16218 0.77211 0.15854 0.0
H1722 H 0.23142 0.75248 0.21656 0.0
H1723 H 0.20402 0.75591 0.19855 0.0
H1724 H 0.18024 0.8031 0.22545 0.0
C1725 C 0.12277 0.79235 0.18223 0.0
C1726 C 0.16607 0.77923 0.17304 0.0
C1727 C 0.10636 0.79398 0.17326 0.0
C1728 C 0.22709 0.76541 0.2194 0.0
C1729 C 0.21139 0.76747 0.20901 0.0
C1730 C 0.17674 0.79649 0.21075 0.0
C1731 C 0.13731 0.7912 0.17195 0.0
C1732 C 0.15496 0.78968 0.182 0.0
C1733 C 0.20502 0.78392 0.21252 0.0
C1734 C 0.18784 0.78598 0.20185 0.0
H1735 H 0.11653 0.79325 0.12793 0.0
H1736 H 0.14545 0.79083 0.14366 0.0
H1737 H 0.15288 0.80684 0.20847 0.0
H1738 H 0.23805 0.80741 0.24795 0.0
H1739 H 0.21105 0.81133 0.22969 0.0
C1740 C 0.5141 0.81983 0.46129 0.0
C1741 C 0.49654 0.80934 0.45621 0.0
C1742 C 0.51739 0.83918 0.46717 0.0
C1743 C 0.49815 0.87961 0.46109 0.0
H1744 H 0.52747 0.90464 0.508 0.0
C1745 C 0.5006 0.95696 0.48835 0.0
C1746 C 0.51604 0.96821 0.49927 0.0
C1747 C 0.49889 0.93778 0.48346 0.0
C1748 C 0.51948 0.89804 0.49466 0.0
H1749 H 0.46878 0.81121 0.45296 0.0
H1750 H 0.47455 0.84472 0.46246 0.0
H1751 H 0.52388 0.87121 0.49875 0.0
H1752 H 0.54217 0.96785 0.51303 0.0
H1753 H 0.53962 0.93463 0.50383 0.0
H1754 H 0.49408 0.90619 0.45646 0.0
C1755 C 0.48576 0.83802 0.46233 0.0
C1756 C 0.51738 0.87877 0.48941 0.0
C1757 C 0.48246 0.81874 0.45703 0.0
C1758 C 0.52998 0.95968 0.50474 0.0
C1759 C 0.52841 0.94048 0.49959 0.0
C1760 C 0.50049 0.89887 0.46612 0.0
C1761 C 0.50325 0.84856 0.46747 0.0
C1762 C 0.50649 0.86925 0.47267 0.0
C1763 C 0.5128 0.92912 0.48885 0.0
C1764 C 0.51098 0.90848 0.48315 0.0
H1765 H 0.52526 0.81309 0.46074 0.0
H1766 H 0.53103 0.84688 0.47098 0.0
H1767 H 0.48987 0.8728 0.44796 0.0
H1768 H 0.48981 0.96297 0.48333 0.0
H1769 H 0.48649 0.92979 0.4755 0.0
C1770 C 0.4911 0.28446 0.63306 0.0
C1771 C 0.50646 0.2793 0.6408 0.0
C1772 C 0.4758 0.28279 0.64237 0.0
C1773 C 0.4537 0.25949 0.67942 0.0
H1774 H 0.42593 0.29735 0.67914 0.0
C1775 C 0.39321 0.25781 0.72166 0.0
C1776 C 0.37765 0.26039 0.71157 0.0
C1777 C 0.40966 0.26201 0.71461 0.0
C1778 C 0.43349 0.28661 0.67929 0.0
H1779 H 0.51761 0.26816 0.66443 0.0
H1780 H 0.491 0.26528 0.68068 0.0
H1781 H 0.45282 0.30016 0.6633 0.0
H1782 H 0.36708 0.27 0.68667 0.0
H1783 H 0.39579 0.27771 0.67446 0.0
H1784 H 0.43436 0.24592 0.69534 0.0
C1785 C 0.49067 0.27043 0.66726 0.0
C1786 C 0.4489 0.28817 0.67012 0.0
C1787 C 0.50598 0.2721 0.65794 0.0
C1788 C 0.37894 0.26806 0.69478 0.0
C1789 C 0.3954 0.27247 0.68783 0.0
C1790 C 0.43836 0.25798 0.68864 0.0
C1791 C 0.47539 0.27592 0.65972 0.0
C1792 C 0.45916 0.27454 0.6699 0.0
C1793 C 0.41091 0.26901 0.69735 0.0
C1794 C 0.42794 0.27142 0.68859 0.0
H1795 H 0.49098 0.29018 0.61995 0.0
H1796 H 0.46425 0.28689 0.63591 0.0
H1797 H 0.46104 0.24856 0.67936 0.0
H1798 H 0.3925 0.25174 0.73455 0.0
H1799 H 0.42135 0.2594 0.72245 0.0
C1800 C 0.00624 0.79138 0.62348 0.0
C1801 C 0.01515 0.79179 0.64166 0.0
C1802 C 0.00854 0.80715 0.61475 0.0
C1803 C 0.03665 0.85437 0.61659 0.0
H1804 H 0.9941 0.86158 0.58789 0.0
C1805 C 0.0369 0.91883 0.57926 0.0
C1806 C 0.02954 0.91438 0.56003 0.0
C1807 C 0.03414 0.9055 0.59138 0.0
C1808 C 0.00612 0.85979 0.59582 0.0
H1809 H 0.03406 0.80902 0.66459 0.0
H1810 H 0.03807 0.83674 0.64938 0.0
H1811 H 0.99244 0.83494 0.60425 0.0
H1812 H 0.01272 0.89302 0.5387 0.0
H1813 H 0.00762 0.86998 0.55975 0.0
H1814 H 0.05028 0.87931 0.60802 0.0
C1815 C 0.0294 0.8241 0.64176 0.0
C1816 C 0.00522 0.8444 0.60513 0.0
C1817 C 0.0272 0.80816 0.65047 0.0
C1818 C 0.01854 0.8968 0.55347 0.0
C1819 C 0.01559 0.88363 0.56558 0.0
C1820 C 0.03752 0.86986 0.60734 0.0
C1821 C 0.01967 0.82395 0.62401 0.0
C1822 C 0.02056 0.84119 0.61528 0.0
C1823 C 0.02375 0.88758 0.58455 0.0
C1824 C 0.02235 0.87255 0.59648 0.0
H1825 H 0.9969 0.77897 0.61626 0.0
H1826 H 0.00124 0.80624 0.60083 0.0
H1827 H 0.04875 0.8524 0.62419 0.0
H1828 H 0.04552 0.93225 0.58465 0.0
H1829 H 0.04046 0.90907 0.60598 0.0
C1830 C 0.47586 0.80105 0.80588 0.0
C1831 C 0.48104 0.78996 0.81887 0.0
C1832 C 0.45762 0.80041 0.80036 0.0
C1833 C 0.4121 0.77011 0.79976 0.0
H1834 H 0.3945 0.81388 0.79192 0.0
C1835 C 0.33658 0.77041 0.79489 0.0
C1836 C 0.32927 0.77946 0.78107 0.0
C1837 C 0.3551 0.77204 0.79858 0.0
C1838 C 0.39919 0.80147 0.79389 0.0
H1839 H 0.47071 0.76933 0.83591 0.0
H1840 H 0.43959 0.76856 0.82683 0.0
H1841 H 0.42657 0.81624 0.7997 0.0
H1842 H 0.33629 0.79705 0.76006 0.0
H1843 H 0.36844 0.80046 0.76695 0.0
H1844 H 0.3848 0.75539 0.79425 0.0
C1845 C 0.4494 0.77763 0.82061 0.0
C1846 C 0.41766 0.80281 0.79832 0.0
C1847 C 0.46745 0.77829 0.82608 0.0
C1848 C 0.34121 0.79019 0.77108 0.0
C1849 C 0.35978 0.79212 0.77502 0.0
C1850 C 0.39371 0.76881 0.79549 0.0
C1851 C 0.44406 0.78853 0.80753 0.0
C1852 C 0.42444 0.78717 0.80159 0.0
C1853 C 0.36705 0.78297 0.78875 0.0
C1854 C 0.38688 0.78447 0.79267 0.0
H1855 H 0.48587 0.81017 0.79995 0.0
H1856 H 0.45416 0.80897 0.79018 0.0
H1857 H 0.41663 0.75759 0.80159 0.0
H1858 H 0.32797 0.76189 0.80285 0.0
H1859 H 0.36009 0.76486 0.80935 0.0
C1860 C 0.49531 0.18327 0.1477 0.0
C1861 C 0.50355 0.20087 0.14435 0.0
C1862 C 0.49793 0.16716 0.13665 0.0
C1863 C 0.5272 0.14983 0.10237 0.0
H1864 H 0.48709 0.10798 0.08875 0.0
C1865 C 0.52977 0.08577 0.04675 0.0
C1866 C 0.52053 0.06815 0.0492 0.0
C1867 C 0.52791 0.10189 0.05839 0.0
C1868 C 0.49857 0.11938 0.09258 0.0
H1869 H 0.52084 0.21546 0.12673 0.0
H1870 H 0.52528 0.18748 0.10723 0.0
H1871 H 0.48378 0.13573 0.109 0.0
H1872 H 0.5022 0.05393 0.0663 0.0
H1873 H 0.49946 0.08175 0.08687 0.0
H1874 H 0.54202 0.13346 0.08598 0.0
C1875 C 0.5171 0.18596 0.11866 0.0
C1876 C 0.49665 0.13542 0.10428 0.0
C1877 C 0.51455 0.20205 0.1298 0.0
C1878 C 0.50952 0.06718 0.06383 0.0
C1879 C 0.5078 0.08327 0.07559 0.0
C1880 C 0.52915 0.13376 0.0907 0.0
C1881 C 0.50873 0.16821 0.12178 0.0
C1882 C 0.51092 0.15094 0.1094 0.0
C1883 C 0.51689 0.10095 0.07305 0.0
C1884 C 0.51486 0.11822 0.08558 0.0
H1885 H 0.48669 0.18198 0.15877 0.0
H1886 H 0.49146 0.15386 0.13979 0.0
H1887 H 0.53863 0.1613 0.10613 0.0
H1888 H 0.53861 0.08719 0.0359 0.0
H1889 H 0.53502 0.11514 0.05571 0.0
C1890 C 0.09236 0.27296 0.30321 0.0
C1891 C 0.08823 0.28605 0.31733 0.0
C1892 C 0.10994 0.27352 0.29929 0.0
C1893 C 0.15698 0.30308 0.30802 0.0
H1894 H 0.16845 0.25621 0.28903 0.0
C1895 C 0.22985 0.2918 0.29874 0.0
C1896 C 0.23184 0.28165 0.28116 0.0
C1897 C 0.21285 0.29359 0.30353 0.0
C1898 C 0.16551 0.26947 0.29421 0.0
H1899 H 0.09997 0.31039 0.3382 0.0
H1900 H 0.13081 0.31121 0.33172 0.0
H1901 H 0.13872 0.25689 0.29722 0.0
H1902 H 0.21705 0.26673 0.25448 0.0
H1903 H 0.18764 0.26846 0.26333 0.0
H1904 H 0.18432 0.31538 0.3056 0.0
C1905 C 0.12028 0.30051 0.3234 0.0
C1906 C 0.14825 0.26994 0.29883 0.0
C1907 C 0.10249 0.30003 0.32722 0.0
C1908 C 0.21624 0.27382 0.26844 0.0
C1909 C 0.19926 0.27506 0.27346 0.0
C1910 C 0.17442 0.30253 0.30372 0.0
C1911 C 0.1244 0.28707 0.30948 0.0
C1912 C 0.14344 0.28677 0.30553 0.0
C1913 C 0.19723 0.28492 0.2911 0.0
C1914 C 0.17889 0.28572 0.2965 0.0
H1915 H 0.08191 0.26204 0.29503 0.0
H1916 H 0.11205 0.26322 0.28804 0.0
H1917 H 0.15409 0.3164 0.31292 0.0
H1918 H 0.24144 0.29834 0.30892 0.0
H1919 H 0.2119 0.30136 0.31722 0.0
C1920 C 0.93699 0.01072 0.18804 0.0
C1921 C 0.95047 0.01307 0.20339 0.0
C1922 C 0.94137 0.01258 0.16976 0.0
C1923 C 0.97873 0.03471 0.14626 0.0
H1924 H 0.9533 0.00293 0.10028 0.0
C1925 C 0.00705 0.02248 0.07568 0.0
C1926 C 0.99803 0.02711 0.05963 0.0
C1927 C 0.99973 0.02262 0.09272 0.0
C1928 C 0.96025 0.01209 0.11303 0.0
H1929 H 0.97906 0.01811 0.21139 0.0
H1930 H 0.98665 0.02101 0.17958 0.0
H1931 H 0.9436 0.99809 0.13123 0.0
H1932 H 0.97392 0.03504 0.04885 0.0
H1933 H 0.96064 0.03435 0.07878 0.0
H1934 H 0.99592 0.04803 0.1281 0.0
C1935 C 0.97271 0.01824 0.1817 0.0
C1936 C 0.95477 0.00931 0.13071 0.0
C1937 C 0.96835 0.01641 0.19992 0.0
C1938 C 0.98127 0.03158 0.061 0.0
C1939 C 0.97367 0.03118 0.07803 0.0
C1940 C 0.98429 0.03732 0.12866 0.0
C1941 C 0.95931 0.01683 0.16651 0.0
C1942 C 0.9642 0.02037 0.14755 0.0
C1943 C 0.98296 0.02678 0.09398 0.0
C1944 C 0.97527 0.02586 0.11198 0.0
H1945 H 0.92307 0.00806 0.19024 0.0
H1946 H 0.93073 0.01138 0.15835 0.0
H1947 H 0.986 0.04377 0.15891 0.0
H1948 H 0.01966 0.0183 0.07506 0.0
H1949 H 0.00697 0.01893 0.10482 0.0
C1950 C 0.2868 0.679 0.49445 0.0
C1951 C 0.2753 0.66234 0.49619 0.0
C1952 C 0.28364 0.68798 0.47901 0.0
C1953 C 0.2497 0.68822 0.43855 0.0
H1954 H 0.29123 0.70708 0.41464 0.0
C1955 C 0.24217 0.70863 0.36506 0.0
C1956 C 0.24838 0.72776 0.36631 0.0
C1957 C 0.24776 0.6996 0.37957 0.0
C1958 C 0.27958 0.70173 0.42118 0.0
H1959 H 0.25064 0.64287 0.48398 0.0
H1960 H 0.24546 0.6581 0.45698 0.0
H1961 H 0.2951 0.69499 0.4445 0.0
H1962 H 0.26636 0.75227 0.38224 0.0
H1963 H 0.27641 0.73637 0.40762 0.0
H1964 H 0.23422 0.69455 0.41496 0.0
C1965 C 0.25686 0.66441 0.4675 0.0
C1966 C 0.28175 0.69507 0.43836 0.0
C1967 C 0.25991 0.65557 0.48298 0.0
C1968 C 0.26132 0.73751 0.38127 0.0
C1969 C 0.26715 0.72843 0.3956 0.0
C1970 C 0.24755 0.69452 0.42125 0.0
C1971 C 0.26898 0.68039 0.465 0.0
C1972 C 0.26681 0.6883 0.44727 0.0
C1973 C 0.25981 0.70961 0.39524 0.0
C1974 C 0.26244 0.70136 0.41249 0.0
H1975 H 0.29861 0.68475 0.50459 0.0
H1976 H 0.29293 0.70059 0.47779 0.0
H1977 H 0.23794 0.68344 0.44516 0.0
H1978 H 0.2323 0.70093 0.35343 0.0
H1979 H 0.24205 0.68502 0.37904 0.0
C1980 C 0.64017 0.03526 0.67721 0.0
C1981 C 0.63436 0.0274 0.69282 0.0
C1982 C 0.62776 0.03922 0.66377 0.0
C1983 C 0.58173 0.0204 0.64501 0.0
H1984 H 0.58793 0.05987 0.61468 0.0
C1985 C 0.55115 0.0119 0.56813 0.0
C1986 C 0.54205 0.02532 0.5632 0.0
C1987 C 0.56061 0.01435 0.58612 0.0
C1988 C 0.58595 0.04897 0.62329 0.0
H1989 H 0.61174 0.01943 0.70804 0.0
H1990 H 0.59021 0.0267 0.68487 0.0
H1991 H 0.60886 0.0622 0.64341 0.0
H1992 H 0.53541 0.05167 0.57272 0.0
H1993 H 0.55241 0.05613 0.60439 0.0
H1994 H 0.55933 0.00683 0.6246 0.0
C1995 C 0.60412 0.02921 0.68258 0.0
C1996 C 0.59793 0.05022 0.63953 0.0
C1997 C 0.61639 0.02494 0.69573 0.0
C1998 C 0.54224 0.04109 0.57646 0.0
C1999 C 0.552 0.04371 0.59438 0.0
C2000 C 0.56991 0.01911 0.6288 0.0
C2001 C 0.60956 0.0356 0.66611 0.0
C2002 C 0.59603 0.03578 0.65031 0.0
C2003 C 0.56128 0.03037 0.59922 0.0
C2004 C 0.57218 0.03317 0.61766 0.0
H2005 H 0.65407 0.03745 0.67493 0.0
H2006 H 0.63224 0.04406 0.65109 0.0
H2007 H 0.58014 0.00892 0.65289 0.0
H2008 H 0.55112 0.99966 0.55801 0.0
H2009 H 0.56784 0.00398 0.58962 0.0
C2010 C 0.28098 0.33022 0.97326 0.0
C2011 C 0.28367 0.34936 0.97942 0.0
C2012 C 0.27884 0.32304 0.95378 0.0
C2013 C 0.29099 0.33659 0.90818 0.0
H2014 H 0.25752 0.29103 0.88567 0.0
C2015 C 0.29474 0.30007 0.83229 0.0
C2016 C 0.27901 0.28998 0.82102 0.0
C2017 C 0.29469 0.30728 0.85143 0.0
C2018 C 0.26684 0.30388 0.89159 0.0
H2019 H 0.28635 0.37604 0.97016 0.0
H2020 H 0.28296 0.36362 0.93618 0.0
H2021 H 0.25772 0.30372 0.91901 0.0
H2022 H 0.25052 0.28052 0.821 0.0
H2023 H 0.2502 0.29387 0.85397 0.0
H2024 H 0.29991 0.33711 0.88083 0.0
C2025 C 0.28223 0.35407 0.94632 0.0
C2026 C 0.26709 0.31104 0.91085 0.0
C2027 C 0.28396 0.36118 0.96576 0.0
C2028 C 0.26301 0.28792 0.82927 0.0
C2029 C 0.26286 0.29548 0.84833 0.0
C2030 C 0.29072 0.32948 0.88895 0.0
C2031 C 0.27985 0.33491 0.94006 0.0
C2032 C 0.2792 0.32746 0.91942 0.0
C2033 C 0.27874 0.30514 0.8598 0.0
C2034 C 0.27871 0.31295 0.88032 0.0
H2035 H 0.28086 0.32084 0.98355 0.0
H2036 H 0.27712 0.30824 0.94952 0.0
H2037 H 0.30066 0.34914 0.91433 0.0
H2038 H 0.30717 0.30249 0.82636 0.0
H2039 H 0.30727 0.31439 0.85966 0.0
C2040 C 0.961 0.00311 0.31189 0.0
C2041 C 0.94788 0.01339 0.30899 0.0
C2042 C 0.9689 0.00299 0.33032 0.0
C2043 C 0.9775 0.03119 0.37812 0.0
H2044 H 0.98559 0.98652 0.39598 0.0
C2045 C 0.9929 0.02824 0.45743 0.0
C2046 C 0.00575 0.0185 0.46311 0.0
C2047 C 0.98718 0.02746 0.4382 0.0
C2048 C 0.98365 0.99915 0.3911 0.0
H2049 H 0.93251 0.03128 0.32321 0.0
H2050 H 0.94601 0.03083 0.35512 0.0
H2051 H 0.97273 0.98493 0.36301 0.0
H2052 H 0.02304 0.00068 0.4529 0.0
H2053 H 0.0129 0.99922 0.41921 0.0
H2054 H 0.9882 0.04542 0.40612 0.0
C2055 C 0.9504 0.02307 0.34321 0.0
C2056 C 0.97628 0.99823 0.37225 0.0
C2057 C 0.94252 0.02315 0.32488 0.0
C2058 C 0.01295 0.00815 0.44905 0.0
C2059 C 0.00712 0.00729 0.42974 0.0
C2060 C 0.98485 0.03211 0.39689 0.0
C2061 C 0.96388 0.01325 0.34614 0.0
C2062 C 0.97283 0.0142 0.36567 0.0
C2063 C 0.99417 0.01695 0.42412 0.0
C2064 C 0.98773 0.01606 0.40371 0.0
H2065 H 0.96544 0.99548 0.29992 0.0
H2066 H 0.9793 0.99534 0.33213 0.0
H2067 H 0.9754 0.04383 0.37336 0.0
H2068 H 0.98712 0.03644 0.46783 0.0
H2069 H 0.97703 0.03488 0.43437 0.0
C2070 C 0.25743 0.66021 0.58181 0.0
C2071 C 0.27017 0.6493 0.58281 0.0
C2072 C 0.25317 0.66942 0.59853 0.0
C2073 C 0.25981 0.6741 0.65119 0.0
H2074 H 0.26854 0.72674 0.64917 0.0
C2075 C 0.28502 0.72938 0.71729 0.0
C2076 C 0.27537 0.74339 0.71986 0.0
C2077 C 0.28215 0.71725 0.70009 0.0
C2078 C 0.26587 0.71207 0.64987 0.0
H2079 H 0.28727 0.63785 0.60133 0.0
H2080 H 0.27981 0.65375 0.63059 0.0
H2081 H 0.26427 0.70471 0.61975 0.0
H2082 H 0.25564 0.75614 0.7063 0.0
H2083 H 0.25101 0.73522 0.67623 0.0
H2084 H 0.2622 0.68163 0.68145 0.0
C2085 C 0.27309 0.65533 0.61712 0.0
C2086 C 0.26323 0.69945 0.63306 0.0
C2087 C 0.2775 0.64637 0.60046 0.0
C2088 C 0.26339 0.74556 0.70472 0.0
C2089 C 0.26067 0.73358 0.68751 0.0
C2090 C 0.26254 0.68673 0.66801 0.0
C2091 C 0.26151 0.66758 0.61629 0.0
C2092 C 0.2606 0.68038 0.63362 0.0
C2093 C 0.26974 0.71913 0.68522 0.0
C2094 C 0.26596 0.70579 0.66745 0.0
H2095 H 0.25167 0.6625 0.56817 0.0
H2096 H 0.2441 0.67869 0.59757 0.0
H2097 H 0.25766 0.65945 0.65195 0.0
H2098 H 0.2944 0.72748 0.7287 0.0
H2099 H 0.2895 0.70633 0.69844 0.0
C2100 C 0.65039 0.01734 0.80247 0.0
C2101 C 0.64418 0.02274 0.78547 0.0
C2102 C 0.64144 0.01962 0.81856 0.0
C2103 C 0.61123 0.04746 0.83857 0.0
H2104 H 0.59827 0.00896 0.86908 0.0
C2105 C 0.56121 0.0537 0.8912 0.0
C2106 C 0.56747 0.05252 0.90999 0.0
C2107 C 0.56984 0.04745 0.87612 0.0
C2108 C 0.60188 0.0198 0.86066 0.0
H2109 H 0.62369 0.0346 0.77199 0.0
H2110 H 0.60833 0.03838 0.79958 0.0
H2111 H 0.61637 0.00392 0.84311 0.0
H2112 H 0.58709 0.04278 0.92746 0.0
H2113 H 0.60192 0.03165 0.90101 0.0
H2114 H 0.59664 0.06325 0.85573 0.0
C2115 C 0.62012 0.03262 0.80073 0.0
C2116 C 0.61231 0.01699 0.84596 0.0
C2117 C 0.62893 0.03033 0.78483 0.0
C2118 C 0.58183 0.04384 0.91318 0.0
C2119 C 0.59036 0.03744 0.89805 0.0
C2120 C 0.60075 0.05018 0.85304 0.0
C2121 C 0.62631 0.02747 0.81781 0.0
C2122 C 0.61684 0.03073 0.83461 0.0
C2123 C 0.58482 0.03979 0.87949 0.0
C2124 C 0.59578 0.03633 0.86407 0.0
H2125 H 0.66208 0.0114 0.80332 0.0
H2126 H 0.64648 0.01557 0.83161 0.0
H2127 H 0.61483 0.05847 0.83034 0.0
H2128 H 0.54988 0.05981 0.88818 0.0
H2129 H 0.56514 0.0491 0.86184 0.0
C2130 C 0.26789 0.35301 0.08908 0.0
C2131 C 0.27686 0.34439 0.07542 0.0
C2132 C 0.26573 0.34635 0.10628 0.0
C2133 C 0.26731 0.30588 0.13062 0.0
H2134 H 0.28162 0.34256 0.17637 0.0
C2135 C 0.28384 0.28578 0.20411 0.0
C2136 C 0.27744 0.29467 0.21983 0.0
C2137 C 0.28248 0.29183 0.18651 0.0
C2138 C 0.27734 0.33216 0.16375 0.0
H2139 H 0.28964 0.32141 0.06866 0.0
H2140 H 0.28542 0.30949 0.09836 0.0
H2141 H 0.28036 0.35249 0.14522 0.0
H2142 H 0.26491 0.31722 0.22941 0.0
H2143 H 0.26268 0.32793 0.19863 0.0
H2144 H 0.26449 0.28553 0.14911 0.0
C2145 C 0.28018 0.32148 0.09589 0.0
C2146 C 0.27658 0.33785 0.14589 0.0
C2147 C 0.2826 0.3283 0.07884 0.0
C2148 C 0.26997 0.31005 0.21759 0.0
C2149 C 0.26873 0.31621 0.19997 0.0
C2150 C 0.26804 0.30019 0.14846 0.0
C2151 C 0.27222 0.33075 0.11007 0.0
C2152 C 0.27172 0.32476 0.12909 0.0
C2153 C 0.27482 0.30705 0.18416 0.0
C2154 C 0.27325 0.31324 0.16525 0.0
H2155 H 0.26354 0.36559 0.087 0.0
H2156 H 0.25938 0.3537 0.11684 0.0
H2157 H 0.2633 0.29546 0.11799 0.0
H2158 H 0.28986 0.27402 0.20534 0.0
H2159 H 0.28761 0.28466 0.17475 0.0
C2160 C 0.22381 0.9339 0.98954 0.0
C2161 C 0.23692 0.94885 -0.00044 0.0
C2162 C 0.2076 0.93688 0.98172 0.0
C2163 C 0.18375 0.97405 0.9729 0.0
H2164 H 0.14738 0.94617 0.99783 0.0
C2165 C 0.14218 0.00656 0.02109 0.0
C2166 C 0.12483 0.99753 0.02284 0.0
C2167 C 0.15177 0.99859 0.00799 0.0
C2168 C 0.15703 0.95374 0.99012 0.0
H2169 H 0.2439 0.97866 0.0084 0.0
H2170 H 0.21559 0.98377 0.99535 0.0
H2171 H 0.17376 0.93446 0.99217 0.0
H2172 H 0.10339 0.97374 0.01199 0.0
H2173 H 0.12054 0.95931 0.98938 0.0
H2174 H 0.16776 0.99435 0.97287 0.0
C2175 C 0.21783 0.96981 0.99312 0.0
C2176 C 0.17219 0.947 0.98683 0.0
C2177 C 0.23393 0.96684 0.00097 0.0
C2178 C 0.11687 0.98078 0.01087 0.0
C2179 C 0.12656 0.97266 0.99791 0.0
C2180 C 0.16861 0.98084 0.97628 0.0
C2181 C 0.20437 0.95483 0.98377 0.0
C2182 C 0.18624 0.95784 0.9796 0.0
C2183 C 0.14418 0.98138 0.9966 0.0
C2184 C 0.15584 0.97137 0.98621 0.0
H2185 H 0.22592 0.9199 0.98804 0.0
H2186 H 0.19739 0.92512 0.97464 0.0
H2187 H 0.1943 0.98244 0.96692 0.0
H2188 H 0.14836 0.01965 0.03002 0.0
H2189 H 0.16547 0.00543 0.00755 0.0
C2190 C 0.7023 0.60448 0.98603 0.0
C2191 C 0.7082 0.62374 0.99147 0.0
C2192 C 0.6848 0.59582 0.98739 0.0
C2193 C 0.64654 0.60121 0.01253 0.0
H2194 H 0.62026 0.5627 0.97188 0.0
C2195 C 0.58253 0.5498 0.02131 0.0
C2196 C 0.56802 0.54776 0.00723 0.0
C2197 C 0.59934 0.55962 0.01896 0.0
C2198 C 0.62743 0.57351 0.98326 0.0
H2199 H 0.70031 0.64902 0.00258 0.0
H2200 H 0.66959 0.63381 0.00488 0.0
H2201 H 0.65018 0.57931 0.96836 0.0
H2202 H 0.55955 0.55394 0.97957 0.0
H2203 H 0.58927 0.57069 0.97512 0.0
H2204 H 0.62381 0.59522 0.02748 0.0
C2205 C 0.67862 0.62546 -0.00033 0.0
C2206 C 0.64456 0.58291 0.98133 0.0
C2207 C 0.69617 0.63417 -0.00174 0.0
C2208 C 0.57061 0.55537 0.99059 0.0
C2209 C 0.58754 0.56487 0.98805 0.0
C2210 C 0.62948 0.59167 0.01453 0.0
C2211 C 0.67278 0.6062 0.99424 0.0
C2212 C 0.65432 0.59679 0.99598 0.0
C2213 C 0.60199 0.56725 0.00232 0.0
C2214 C 0.61982 0.57769 -5e-05 0.0
H2215 H 0.71125 0.59601 0.98085 0.0
H2216 H 0.68077 0.58092 0.98338 0.0
H2217 H 0.6538 0.61174 0.0241 0.0
H2218 H 0.58078 0.54421 0.03437 0.0
H2219 H 0.61031 0.56117 0.0301 0.0
C2220 C 0.65927 0.47609 0.2856 0.0
C2221 C 0.66567 0.49276 0.27916 0.0
C2222 C 0.66825 0.46171 0.2832 0.0
C2223 C 0.7022 0.44467 0.25702 0.0
H2224 H 0.70649 0.41749 0.29912 0.0
C2225 C 0.74539 0.39181 0.25467 0.0
C2226 C 0.73617 0.37411 0.2565 0.0
C2227 C 0.73871 0.40726 0.26089 0.0
C2228 C 0.70538 0.42499 0.2873 0.0
H2229 H 0.68606 0.50773 0.26497 0.0
H2230 H 0.70214 0.48255 0.26085 0.0
H2231 H 0.6902 0.44242 0.30151 0.0
H2232 H 0.71371 0.35846 0.26743 0.0
H2233 H 0.70184 0.38564 0.27837 0.0
H2234 H 0.71738 0.42729 0.24284 0.0
C2235 C 0.68999 0.48042 0.26746 0.0
C2236 C 0.69597 0.43916 0.28857 0.0
C2237 C 0.68085 0.4948 0.26975 0.0
C2238 C 0.72105 0.3721 0.2661 0.0
C2239 C 0.71429 0.38761 0.2723 0.0
C2240 C 0.71171 0.43065 0.25583 0.0
C2241 C 0.68396 0.46387 0.27454 0.0
C2242 C 0.6942 0.44907 0.27337 0.0
C2243 C 0.72261 0.40517 0.26884 0.0
C2244 C 0.71337 0.42068 0.27093 0.0
H2245 H 0.64756 0.4744 0.293 0.0
H2246 H 0.66302 0.44902 0.28839 0.0
H2247 H 0.70081 0.45178 0.24494 0.0
H2248 H 0.75708 0.39353 0.24725 0.0
H2249 H 0.74551 0.42072 0.25839 0.0
C2250 C 0.83345 0.46723 0.48843 0.0
C2251 C 0.83046 0.46398 0.50682 0.0
C2252 C 0.85085 0.47079 0.48379 0.0
C2253 C 0.89404 0.46144 0.49795 0.0
H2254 H 0.91505 0.50828 0.48349 0.0
C2255 C 0.96765 0.49548 0.51774 0.0
C2256 C 0.97593 0.50727 0.50607 0.0
C2257 C 0.94959 0.4872 0.51337 0.0
C2258 C 0.90939 0.49487 0.48698 0.0
H2259 H 0.84274 0.46292 0.53505 0.0
H2260 H 0.87306 0.4695 0.52707 0.0
H2261 H 0.88297 0.49954 0.48291 0.0
H2262 H 0.97206 0.51894 0.48029 0.0
H2263 H 0.94123 0.50376 0.47202 0.0
H2264 H 0.92045 0.45691 0.50257 0.0
C2265 C 0.8621 0.46887 0.51617 0.0
C2266 C 0.89103 0.48994 0.48664 0.0
C2267 C 0.84487 0.46542 0.52078 0.0
C2268 C 0.96609 0.51015 0.48969 0.0
C2269 C 0.94831 0.50145 0.48496 0.0
C2270 C 0.91241 0.46622 0.49803 0.0
C2271 C 0.86513 0.47094 0.49753 0.0
C2272 C 0.88341 0.47365 0.49299 0.0
C2273 C 0.93974 0.49026 0.49697 0.0
C2274 C 0.9203 0.48338 0.49338 0.0
H2275 H 0.82239 0.46582 0.47743 0.0
H2276 H 0.85312 0.47261 0.46939 0.0
H2277 H 0.88823 0.44868 0.50273 0.0
H2278 H 0.97503 0.49295 0.53037 0.0
H2279 H 0.94328 0.47889 0.52313 0.0
C2280 C 0.33781 0.06791 0.31803 0.0
C2281 C 0.33833 0.05409 0.30279 0.0
C2282 C 0.33057 0.08298 0.31466 0.0
C2283 C 0.32875 0.10703 0.27414 0.0
H2284 H 0.31212 0.14311 0.30827 0.0
C2285 C 0.32897 0.17699 0.25352 0.0
C2286 C 0.31215 0.18142 0.25349 0.0
C2287 C 0.33334 0.16398 0.26429 0.0
C2288 C 0.31681 0.13315 0.29863 0.0
H2289 H 0.32853 0.04287 0.27324 0.0
H2290 H 0.31499 0.06868 0.26758 0.0
H2291 H 0.31159 0.11229 0.31634 0.0
H2292 H 0.28748 0.17727 0.26626 0.0
H2293 H 0.295 0.15461 0.28477 0.0
H2294 H 0.33337 0.12736 0.25608 0.0
C2295 C 0.32107 0.06852 0.28183 0.0
C2296 C 0.31647 0.11553 0.30323 0.0
C2297 C 0.32864 0.05367 0.28508 0.0
C2298 C 0.30058 0.17418 0.26596 0.0
C2299 C 0.30491 0.16116 0.27666 0.0
C2300 C 0.32895 0.12448 0.2695 0.0
C2301 C 0.3235 0.08406 0.29613 0.0
C2302 C 0.32228 0.10224 0.29091 0.0
C2303 C 0.32087 0.15515 0.27505 0.0
C2304 C 0.32289 0.13771 0.28161 0.0
H2305 H 0.34503 0.06839 0.33189 0.0
H2306 H 0.33243 0.09462 0.32606 0.0
H2307 H 0.33391 0.09736 0.26462 0.0
H2308 H 0.33832 0.18276 0.2444 0.0
H2309 H 0.34598 0.15995 0.26321 0.0
C2310 C 0.32082 0.14427 0.50052 0.0
C2311 C 0.30543 0.13816 0.50897 0.0
C2312 C 0.33524 0.13572 0.50226 0.0
C2313 C 0.35596 0.10791 0.53215 0.0
H2314 H 0.37919 0.09493 0.48795 0.0
C2315 C 0.41118 0.06764 0.5375 0.0
C2316 C 0.42649 0.07449 0.52944 0.0
C2317 C 0.39548 0.07353 0.53311 0.0
C2318 C 0.3729 0.09858 0.50043 0.0
H2319 H 0.29317 0.11855 0.52607 0.0
H2320 H 0.3185 0.10375 0.52933 0.0
H2321 H 0.35382 0.1098 0.48464 0.0
H2322 H 0.43759 0.09201 0.50995 0.0
H2323 H 0.41015 0.10275 0.50244 0.0
H2324 H 0.37511 0.09714 0.54807 0.0
C2325 C 0.31938 0.11516 0.52138 0.0
C2326 C 0.35842 0.1071 0.49854 0.0
C2327 C 0.30489 0.12362 0.51952 0.0
C2328 C 0.42581 0.08666 0.51629 0.0
C2329 C 0.41012 0.09266 0.51195 0.0
C2330 C 0.37043 0.0995 0.53406 0.0
C2331 C 0.33461 0.12101 0.51261 0.0
C2332 C 0.34985 0.11186 0.51441 0.0
C2333 C 0.39493 0.08653 0.52073 0.0
C2334 C 0.37907 0.09474 0.51824 0.0
H2335 H 0.32157 0.15537 0.49216 0.0
H2336 H 0.34691 0.14064 0.49555 0.0
H2337 H 0.34978 0.1117 0.54468 0.0
H2338 H 0.41152 0.05811 0.54758 0.0
H2339 H 0.38389 0.06825 0.53977 0.0
C2340 C 0.68043 0.59521 0.30738 0.0
C2341 C 0.66874 0.58354 0.29231 0.0
C2342 C 0.69052 0.61216 0.30466 0.0
C2343 C 0.69373 0.64663 0.27138 0.0
H2344 H 0.74066 0.66517 0.30011 0.0
C2345 C 0.7478 0.70902 0.25839 0.0
C2346 C 0.75106 0.72386 0.27356 0.0
C2347 C 0.73778 0.69174 0.2603 0.0
C2348 C 0.72756 0.66011 0.29207 0.0
H2349 H 0.65864 0.58053 0.26245 0.0
H2350 H 0.6767 0.60982 0.2575 0.0
H2351 H 0.72338 0.63488 0.30347 0.0
H2352 H 0.74696 0.73237 0.3027 0.0
H2353 H 0.73011 0.70166 0.30639 0.0
H2354 H 0.69848 0.67178 0.25949 0.0
C2355 C 0.67775 0.60611 0.2716 0.0
C2356 C 0.71756 0.64284 0.29405 0.0
C2357 C 0.66745 0.58923 0.2744 0.0
C2358 C 0.74453 0.72109 0.29083 0.0
C2359 C 0.73497 0.70363 0.29293 0.0
C2360 C 0.70392 0.66375 0.26913 0.0
C2361 C 0.68943 0.61784 0.28671 0.0
C2362 C 0.70039 0.63593 0.28392 0.0
C2363 C 0.73136 0.68892 0.2776 0.0
C2364 C 0.7208 0.67066 0.27961 0.0
H2365 H 0.68167 0.59137 0.32142 0.0
H2366 H 0.69899 0.62091 0.31679 0.0
H2367 H 0.68051 0.642 0.26356 0.0
H2368 H 0.75258 0.71094 0.24488 0.0
H2369 H 0.73511 0.68054 0.24833 0.0
C2370 C 0.84183 0.46749 0.79256 0.0
C2371 C 0.85857 0.47362 0.78696 0.0
C2372 C 0.8327 0.44926 0.78667 0.0
C2373 C 0.83212 0.40505 0.75534 0.0
H2374 H 0.81044 0.38495 0.79691 0.0
C2375 C 0.81085 0.32751 0.76394 0.0
C2376 C 0.79369 0.32231 0.76923 0.0
C2377 C 0.8177 0.34583 0.76215 0.0
C2378 C 0.81625 0.39045 0.78512 0.0
H2379 H 0.87869 0.46628 0.77001 0.0
H2380 H 0.8632 0.43375 0.76063 0.0
H2381 H 0.82475 0.41744 0.80125 0.0
H2382 H 0.77004 0.3319 0.77629 0.0
H2383 H 0.78232 0.36416 0.77382 0.0
H2384 H 0.82419 0.37738 0.73967 0.0
C2385 C 0.85688 0.44311 0.76914 0.0
C2386 C 0.82437 0.40906 0.78752 0.0
C2387 C 0.8658 0.4616 0.77462 0.0
C2388 C 0.7833 0.33557 0.7722 0.0
C2389 C 0.79026 0.35394 0.77071 0.0
C2390 C 0.82416 0.3862 0.75303 0.0
C2391 C 0.84047 0.43666 0.77563 0.0
C2392 C 0.83214 0.41668 0.7726 0.0
C2393 C 0.80761 0.35921 0.76604 0.0
C2394 C 0.81596 0.37892 0.76786 0.0
H2395 H 0.83587 0.47678 0.80165 0.0
H2396 H 0.81977 0.44488 0.79129 0.0
H2397 H 0.83805 0.41053 0.74361 0.0
H2398 H 0.81932 0.31765 0.76204 0.0
H2399 H 0.83124 0.34973 0.75886 0.0
C2400 C 0.03717 0.83423 0.05419 0.0
C2401 C 0.04698 0.83401 0.07176 0.0
C2402 C 0.03645 0.85093 0.04749 0.0
C2403 C 0.05571 0.90281 0.05694 0.0
H2404 H 0.01091 0.90393 0.0282 0.0
C2405 C 0.03613 0.97199 0.04276 0.0
C2406 C 0.02688 0.97239 0.02489 0.0
C2407 C 0.03946 0.95533 0.04784 0.0
C2408 C 0.02361 0.90392 0.03602 0.0
H2409 H 0.06415 0.85162 0.09578 0.0
H2410 H 0.0627 0.88072 0.08442 0.0
H2411 H 0.01555 0.87517 0.03784 0.0
H2412 H 0.01453 0.95519 -0.00178 0.0
H2413 H 0.01979 0.92622 0.00719 0.0
H2414 H 0.06345 0.93183 0.05549 0.0
C2415 C 0.0558 0.86792 0.07545 0.0
C2416 C 0.02637 0.88724 0.04155 0.0
C2417 C 0.05675 0.8511 0.08201 0.0
C2418 C 0.02125 0.95553 0.01224 0.0
C2419 C 0.02436 0.93882 0.01741 0.0
C2420 C 0.05286 0.91956 0.05155 0.0
C2421 C 0.04519 0.86822 0.05829 0.0
C2422 C 0.0425 0.88626 0.0521 0.0
C2423 C 0.03354 0.93839 0.03532 0.0
C2424 C 0.03675 0.92042 0.04097 0.0
H2425 H 0.02941 0.82141 0.04588 0.0
H2426 H 0.02862 0.85021 0.03394 0.0
H2427 H 0.06843 0.90288 0.06476 0.0
H2428 H 0.04081 0.9846 0.05296 0.0
H2429 H 0.04642 0.95571 0.0618 0.0
C2430 C 0.93537 0.25099 0.89627 0.0
C2431 C 0.95146 0.26178 0.89261 0.0
C2432 C 0.91907 0.25156 0.88608 0.0
C2433 C 0.89771 0.27983 0.85575 0.0
H2434 H 0.86391 0.23361 0.83619 0.0
C2435 C 0.8397 0.27566 0.79729 0.0
C2436 C 0.8229 0.26474 0.79869 0.0
C2437 C 0.85477 0.27501 0.80943 0.0
C2438 C 0.87308 0.24667 0.84174 0.0
H2439 H 0.96292 0.28206 0.87576 0.0
H2440 H 0.93468 0.28317 0.85821 0.0
H2441 H 0.89108 0.2335 0.85668 0.0
H2442 H 0.8089 0.24439 0.81396 0.0
H2443 H 0.83529 0.24329 0.8353 0.0
H2444 H 0.87987 0.29301 0.84075 0.0
C2445 C 0.93454 0.27427 0.86895 0.0
C2446 C 0.88868 0.24662 0.85352 0.0
C2447 C 0.95079 0.27359 0.87899 0.0
C2448 C 0.82163 0.25296 0.81247 0.0
C2449 C 0.83679 0.25227 0.82464 0.0
C2450 C 0.88216 0.27989 0.84401 0.0
C2451 C 0.91846 0.26309 0.87213 0.0
C2452 C 0.9013 0.26318 0.86053 0.0
C2453 C 0.85354 0.26344 0.8234 0.0
C2454 C 0.86971 0.2633 0.83664 0.0
H2455 H 0.93541 0.24167 0.90659 0.0
H2456 H 0.90695 0.24291 0.88907 0.0
H2457 H 0.90692 0.2929 0.86114 0.0
H2458 H 0.8412 0.28505 0.78701 0.0
H2459 H 0.86745 0.28359 0.80781 0.0
C2460 C 0.54901 0.2297 0.56685 0.0
C2461 C 0.53678 0.23438 0.57906 0.0
C2462 C 0.54893 0.21096 0.56019 0.0
C2463 C 0.53471 0.16347 0.57186 0.0
H2464 H 0.53696 0.14619 0.51869 0.0
C2465 C 0.52001 0.08486 0.54272 0.0
C2466 C 0.52795 0.07799 0.52708 0.0
C2467 C 0.52189 0.10393 0.54866 0.0
C2468 C 0.53661 0.15069 0.53367 0.0
H2469 H 0.51509 0.22311 0.59402 0.0
H2470 H 0.51528 0.1907 0.58302 0.0
H2471 H 0.53926 0.17913 0.52979 0.0
H2472 H 0.54423 0.0865 0.50548 0.0
H2473 H 0.54855 0.11968 0.51649 0.0
H2474 H 0.53248 0.13538 0.57606 0.0
C2475 C 0.52487 0.20134 0.57838 0.0
C2476 C 0.53788 0.16971 0.54004 0.0
C2477 C 0.5247 0.21996 0.58465 0.0
C2478 C 0.53807 0.09104 0.51771 0.0
C2479 C 0.54031 0.11024 0.52391 0.0
C2480 C 0.53368 0.14456 0.56559 0.0
C2481 C 0.5369 0.19647 0.56596 0.0
C2482 C 0.5367 0.17637 0.5592 0.0
C2483 C 0.53221 0.1171 0.53952 0.0
C2484 C 0.53431 0.13768 0.54631 0.0
H2485 H 0.5584 0.2405 0.56218 0.0
H2486 H 0.55843 0.20781 0.5507 0.0
H2487 H 0.53406 0.16802 0.58679 0.0
H2488 H 0.51225 0.07548 0.55054 0.0
H2489 H 0.51498 0.10826 0.56039 0.0
C2490 C 0.56267 0.76782 0.39739 0.0
C2491 C 0.54754 0.75576 0.38673 0.0
C2492 C 0.57917 0.77034 0.39025 0.0
C2493 C 0.60373 0.74931 0.35339 0.0
H2494 H 0.63304 0.79892 0.36057 0.0
C2495 C 0.66189 0.77221 0.30946 0.0
C2496 C 0.67643 0.78608 0.31866 0.0
C2497 C 0.64733 0.76626 0.31914 0.0
C2498 C 0.6252 0.7849 0.35868 0.0
H2499 H 0.53799 0.73686 0.36019 0.0
H2500 H 0.56647 0.74147 0.34773 0.0
H2501 H 0.60547 0.79347 0.3748 0.0
H2502 H 0.68778 0.80371 0.34538 0.0
H2503 H 0.66276 0.79299 0.36246 0.0
H2504 H 0.62338 0.74089 0.33685 0.0
C2505 C 0.56577 0.74876 0.36174 0.0
C2506 C 0.60933 0.78177 0.36687 0.0
C2507 C 0.54934 0.74623 0.36886 0.0
C2508 C 0.67675 0.79292 0.33802 0.0
C2509 C 0.6623 0.78695 0.3477 0.0
C2510 C 0.61962 0.75246 0.34512 0.0
C2511 C 0.58093 0.76087 0.37229 0.0
C2512 C 0.5983 0.76396 0.36427 0.0
C2513 C 0.64708 0.77412 0.33819 0.0
C2514 C 0.63054 0.77032 0.34762 0.0
H2515 H 0.56178 0.77534 0.41122 0.0
H2516 H 0.59057 0.77963 0.39889 0.0
H2517 H 0.59573 0.73535 0.35129 0.0
H2518 H 0.66123 0.76696 0.29445 0.0
H2519 H 0.63582 0.7564 0.31135 0.0
C2520 C 0.03902 0.25278 0.4046 0.0
C2521 C 0.03766 0.25046 0.38465 0.0
C2522 C 0.03986 0.23777 0.4142 0.0
C2523 C 0.02308 0.18777 0.40685 0.0
H2524 H 0.05295 0.18922 0.45397 0.0
C2525 C 0.01355 0.12478 0.44604 0.0
C2526 C 0.01381 0.12859 0.46584 0.0
C2527 C 0.01986 0.13894 0.43581 0.0
C2528 C 0.0444 0.18859 0.4409 0.0
H2529 H 0.03626 0.23074 0.35908 0.0
H2530 H 0.03742 0.20439 0.37577 0.0
H2531 H 0.05794 0.21559 0.43683 0.0
H2532 H 0.02122 0.14998 0.49059 0.0
H2533 H 0.03234 0.17474 0.47291 0.0
H2534 H 0.00898 0.16127 0.41117 0.0
C2535 C 0.03821 0.21789 0.38404 0.0
C2536 C 0.04732 0.20371 0.43104 0.0
C2537 C 0.0378 0.23301 0.3745 0.0
C2538 C 0.02128 0.14662 0.47536 0.0
C2539 C 0.02758 0.16081 0.46516 0.0
C2540 C 0.02004 0.17276 0.41677 0.0
C2541 C 0.0388 0.21999 0.40399 0.0
C2542 C 0.03665 0.20351 0.41393 0.0
C2543 C 0.02641 0.15732 0.44514 0.0
C2544 C 0.03058 0.17294 0.43401 0.0
H2545 H 0.03852 0.266 0.41271 0.0
H2546 H 0.04018 0.23985 0.42953 0.0
H2547 H 0.01436 0.1873 0.39392 0.0
H2548 H 0.00751 0.11106 0.43835 0.0
H2549 H 0.01902 0.13558 0.42049 0.0
C2550 C 0.58115 0.26813 0.2377 0.0
C2551 C 0.57233 0.26176 0.21909 0.0
C2552 C 0.59934 0.26842 0.24212 0.0
C2553 C 0.63744 0.24975 0.22365 0.0
H2554 H 0.6657 0.28819 0.26302 0.0
C2555 C 0.71055 0.24844 0.25126 0.0
C2556 C 0.72297 0.26524 0.25715 0.0
C2557 C 0.69234 0.24804 0.24677 0.0
C2558 C 0.65816 0.27743 0.25184 0.0
H2559 H 0.57613 0.25064 0.19051 0.0
H2560 H 0.60788 0.25148 0.19805 0.0
H2561 H 0.63439 0.28773 0.25445 0.0
H2562 H 0.72611 0.29498 0.2622 0.0
H2563 H 0.69448 0.29451 0.25404 0.0
H2564 H 0.66138 0.23985 0.22057 0.0
C2565 C 0.60065 0.25599 0.20942 0.0
C2566 C 0.63995 0.27698 0.24708 0.0
C2567 C 0.58236 0.2556 0.20502 0.0
C2568 C 0.71681 0.28177 0.258 0.0
C2569 C 0.69859 0.28144 0.25343 0.0
C2570 C 0.65568 0.25027 0.22834 0.0
C2571 C 0.60952 0.26247 0.22808 0.0
C2572 C 0.62918 0.26309 0.23294 0.0
C2573 C 0.68597 0.26453 0.24771 0.0
C2574 C 0.6664 0.26408 0.24257 0.0
H2575 H 0.57398 0.27291 0.24903 0.0
H2576 H 0.60534 0.27314 0.25673 0.0
H2577 H 0.62977 0.23867 0.21287 0.0
H2578 H 0.71495 0.2356 0.24955 0.0
H2579 H 0.68327 0.23469 0.24259 0.0
C2580 C 0.53895 0.8533 0.88083 0.0
C2581 C 0.53072 0.83706 0.88719 0.0
C2582 C 0.54085 0.87075 0.89223 0.0
C2583 C 0.51928 0.89285 0.93041 0.0
H2584 H 0.56077 0.93329 0.93829 0.0
C2585 C 0.52287 0.95724 0.98616 0.0
C2586 C 0.53199 0.97471 0.98328 0.0
C2587 C 0.52394 0.9411 0.97423 0.0
C2588 C 0.54894 0.92227 0.93607 0.0
H2589 H 0.51933 0.82635 0.91104 0.0
H2590 H 0.52293 0.85635 0.93079 0.0
H2591 H 0.56102 0.90426 0.91776 0.0
H2592 H 0.54895 0.98879 0.9649 0.0
H2593 H 0.55008 0.96071 0.94345 0.0
H2594 H 0.50689 0.91062 0.94808 0.0
C2595 C 0.52744 0.85583 0.91687 0.0
C2596 C 0.54915 0.90557 0.9243 0.0
C2597 C 0.52547 0.83857 0.90555 0.0
C2598 C 0.54192 0.97557 0.96775 0.0
C2599 C 0.54269 0.95938 0.9555 0.0
C2600 C 0.51899 0.9095 0.94191 0.0
C2601 C 0.5346 0.87221 0.91017 0.0
C2602 C 0.53441 0.89052 0.92163 0.0
C2603 C 0.53366 0.94185 0.95852 0.0
C2604 C 0.53391 0.92441 0.94528 0.0
H2605 H 0.54305 0.85261 0.86672 0.0
H2606 H 0.54645 0.8831 0.88664 0.0
H2607 H 0.5075 0.88175 0.92832 0.0
H2608 H 0.51445 0.95595 0.99737 0.0
H2609 H 0.517 0.92799 0.97739 0.0
C2610 C 0.96047 0.74474 0.72757 0.0
C2611 C 0.96402 0.7482 0.70928 0.0
C2612 C 0.94413 0.74668 0.73418 0.0
C2613 C 0.89764 0.75169 0.71679 0.0
H2614 H 0.89587 0.76859 0.7701 0.0
C2615 C 0.8301 0.75898 0.74323 0.0
C2616 C 0.8297 0.77212 0.75924 0.0
C2617 C 0.84627 0.75515 0.73808 0.0
C2618 C 0.896 0.76408 0.75508 0.0
H2619 H 0.95283 0.75663 0.68381 0.0
H2620 H 0.92502 0.76016 0.69512 0.0
H2621 H 0.92389 0.76393 0.75943 0.0
H2622 H 0.84646 0.79087 0.78279 0.0
H2623 H 0.87455 0.78548 0.77314 0.0
H2624 H 0.87021 0.75282 0.71208 0.0
C2625 C 0.93446 0.75546 0.70439 0.0
C2626 C 0.9122 0.76107 0.74896 0.0
C2627 C 0.95065 0.75346 0.69782 0.0
C2628 C 0.84608 0.78103 0.77014 0.0
C2629 C 0.86235 0.77762 0.76468 0.0
C2630 C 0.88158 0.75496 0.72282 0.0
C2631 C 0.93082 0.7522 0.72272 0.0
C2632 C 0.91336 0.75486 0.72965 0.0
C2633 C 0.86284 0.76465 0.74843 0.0
C2634 C 0.88032 0.76118 0.74211 0.0
H2635 H 0.97046 0.7409 0.73695 0.0
H2636 H 0.94197 0.74384 0.74831 0.0
H2637 H 0.8976 0.74659 0.70186 0.0
H2638 H 0.81782 0.75148 0.73461 0.0
H2639 H 0.84562 0.74457 0.72592 0.0
C2640 C 0.08937 0.04579 0.83088 0.0
C2641 C 0.10482 0.03894 0.8285 0.0
C2642 C 0.08141 0.04445 0.84758 0.0
C2643 C 0.07737 0.01553 0.88476 0.0
H2644 H 0.06202 0.05587 0.91405 0.0
C2645 C 0.05475 0.0118 0.95912 0.0
C2646 C 0.04007 0.01953 0.96291 0.0
C2647 C 0.06243 0.01405 0.94243 0.0
C2648 C 0.06605 0.04441 0.90588 0.0
H2649 H 0.12437 0.02595 0.84205 0.0
H2650 H 0.11066 0.02388 0.87091 0.0
H2651 H 0.07566 0.06087 0.88521 0.0
H2652 H 0.02162 0.03526 0.95209 0.0
H2653 H 0.03475 0.03878 0.92299 0.0
H2654 H 0.06768 0.999 0.90527 0.0
C2655 C 0.1046 0.03008 0.85989 0.0
C2656 C 0.07384 0.0473 0.88942 0.0
C2657 C 0.11256 0.03151 0.84339 0.0
C2658 C 0.03297 0.02915 0.94959 0.0
C2659 C 0.04058 0.03134 0.93299 0.0
C2660 C 0.0695 0.0126 0.90114 0.0
C2661 C 0.08874 0.0361 0.86195 0.0
C2662 C 0.07969 0.03293 0.87883 0.0
C2663 C 0.0555 0.02402 0.92931 0.0
C2664 C 0.06385 0.02704 0.91191 0.0
H2665 H 0.08307 0.05149 0.81961 0.0
H2666 H 0.06915 0.04921 0.84891 0.0
H2667 H 0.08157 0.00415 0.87664 0.0
H2668 H 0.06038 0.00423 0.96912 0.0
H2669 H 0.074 0.00832 0.93998 0.0
C2670 C 0.76727 0.37997 0.54699 0.0
C2671 C 0.78358 0.38141 0.5394 0.0
C2672 C 0.76356 0.36887 0.56089 0.0
C2673 C 0.78837 0.36001 0.6003 0.0
H2674 H 0.75352 0.31569 0.60388 0.0
C2675 C 0.79547 0.30089 0.64106 0.0
C2676 C 0.7996 0.31006 0.65991 0.0
C2677 C 0.78618 0.30839 0.62759 0.0
C2678 C 0.76301 0.32831 0.60312 0.0
H2679 H 0.8076 0.37047 0.53838 0.0
H2680 H 0.80112 0.35135 0.56279 0.0
H2681 H 0.75152 0.33032 0.57512 0.0
H2682 H 0.7964 0.3335 0.67989 0.0
H2683 H 0.78066 0.34694 0.65606 0.0
H2684 H 0.80031 0.35784 0.62777 0.0
C2685 C 0.7914 0.35897 0.55813 0.0
C2686 C 0.76192 0.33654 0.58678 0.0
C2687 C 0.79509 0.36995 0.54424 0.0
C2688 C 0.79332 0.32617 0.6654 0.0
C2689 C 0.78425 0.33379 0.65189 0.0
C2690 C 0.78926 0.35205 0.61665 0.0
C2691 C 0.77609 0.35915 0.56716 0.0
C2692 C 0.77506 0.35195 0.58508 0.0
C2693 C 0.78117 0.32525 0.63281 0.0
C2694 C 0.77699 0.3358 0.61787 0.0
H2695 H 0.75804 0.38847 0.54334 0.0
H2696 H 0.75167 0.36906 0.56778 0.0
H2697 H 0.79855 0.372 0.59918 0.0
H2698 H 0.80001 0.28833 0.63663 0.0
H2699 H 0.78418 0.30181 0.61283 0.0
C2700 C 0.42377 0.03514 0.33936 0.0
C2701 C 0.42227 0.02466 0.32119 0.0
C2702 C 0.43146 0.02944 0.35517 0.0
C2703 C 0.46274 0.0035 0.37145 0.0
H2704 H 0.43971 0.00954 0.4172 0.0
C2705 C 0.49803 0.00205 0.44605 0.0
C2706 C 0.49689 0.01716 0.4596 0.0
C2707 C 0.48707 0.99796 0.42865 0.0
C2708 C 0.44625 0.00766 0.40452 0.0
H2709 H 0.42808 1.00026 0.30509 0.0
H2710 H 0.44215 0.99034 0.33315 0.0
H2711 H 0.42384 0.01116 0.38659 0.0
H2712 H 0.48361 0.03989 0.4657 0.0
H2713 H 0.46484 0.03306 0.43525 0.0
H2714 H 0.48552 0.00101 0.38958 0.0
C2715 C 0.43716 0.00294 0.33496 0.0
C2716 C 0.43717 0.00853 0.38703 0.0
C2717 C 0.42934 0.00869 0.31896 0.0
C2718 C 0.48469 0.02811 0.45552 0.0
C2719 C 0.47382 0.02407 0.43817 0.0
C2720 C 0.47186 0.00263 0.389 0.0
C2721 C 0.43785 0.01309 0.35323 0.0
C2722 C 0.44567 0.0074 0.3705 0.0
C2723 C 0.47486 0.00895 0.42457 0.0
C2724 C 0.46399 0.00562 0.40578 0.0
H2725 H 0.41851 0.04758 0.34146 0.0
H2726 H 0.4323 0.03784 0.369 0.0
H2727 H 0.46955 0.00255 0.35889 0.0
H2728 H 0.50717 0.99324 0.449 0.0
H2729 H 0.48807 0.98618 0.41844 0.0
C2730 C 0.76642 0.71045 0.05753 0.0
C2731 C 0.77628 0.6968 0.0537 0.0
C2732 C 0.76536 0.71796 0.0764 0.0
C2733 C 0.78869 0.7227 0.12551 0.0
H2734 H 0.7457 0.73628 0.14122 0.0
C2735 C 0.77996 0.73972 0.20449 0.0
C2736 C 0.77243 0.75493 0.21027 0.0
C2737 C 0.77993 0.7332 0.18522 0.0
C2738 C 0.75786 0.73273 0.13701 0.0
H2739 H 0.79226 0.67981 0.0662 0.0
H2740 H 0.7899 0.69224 0.09903 0.0
H2741 H 0.7463 0.72355 0.10794 0.0
H2742 H 0.75911 0.7753 0.20006 0.0
H2743 H 0.75889 0.76375 0.16631 0.0
H2744 H 0.80017 0.73161 0.15454 0.0
C2745 C 0.78344 0.69771 0.08768 0.0
C2746 C 0.75823 0.72544 0.11791 0.0
C2747 C 0.78468 0.69044 0.06889 0.0
C2748 C 0.76482 0.76343 0.19618 0.0
C2749 C 0.76468 0.75679 0.17681 0.0
C2750 C 0.78828 0.72985 0.14455 0.0
C2751 C 0.77402 0.7118 0.09175 0.0
C2752 C 0.7736 0.72015 0.11193 0.0
C2753 C 0.77236 0.74167 0.17111 0.0
C2754 C 0.77283 0.7348 0.1506 0.0
H2755 H 0.75993 0.7156 0.04595 0.0
H2756 H 0.75813 0.72889 0.07892 0.0
H2757 H 0.80094 0.71929 0.12144 0.0
H2758 H 0.78596 0.73278 0.21487 0.0
H2759 H 0.78574 0.72137 0.18136 0.0
C2760 C 0.10141 0.0351 0.71136 0.0
C2761 C 0.09577 0.0193 0.71966 0.0
C2762 C 0.09379 0.03631 0.69318 0.0
C2763 C 0.05387 0.0157 0.65788 0.0
H2764 H 0.08293 0.03944 0.62311 0.0
C2765 C 0.03045 0.01174 0.57775 0.0
C2766 C 0.03402 0.02849 0.57067 0.0
C2767 C 0.03737 0.01085 0.59629 0.0
C2768 C 0.07464 0.03291 0.63275 0.0
H2769 H 0.078 0.99221 0.71527 0.0
H2770 H 0.06511 0.99406 0.68342 0.0
H2771 H 0.09665 0.03711 0.65455 0.0
H2772 H 0.04773 0.05723 0.57682 0.0
H2773 H 0.05989 0.0558 0.60929 0.0
H2774 H 0.03196 0.01115 0.63576 0.0
C2775 C 0.07508 0.00575 0.69108 0.0
C2776 C 0.08247 0.03161 0.65078 0.0
C2777 C 0.08258 0.00462 0.70931 0.0
C2778 C 0.04452 0.04433 0.58223 0.0
C2779 C 0.05163 0.04342 0.60067 0.0
C2780 C 0.04609 0.01683 0.63976 0.0
C2781 C 0.08048 0.02167 0.68284 0.0
C2782 C 0.07218 0.02302 0.6636 0.0
C2783 C 0.04822 0.02664 0.60782 0.0
C2784 C 0.0564 0.02549 0.62706 0.0
H2785 H 0.11146 0.04672 0.71903 0.0
H2786 H 0.09811 0.04889 0.68741 0.0
H2787 H 0.04546 0.00929 0.66748 0.0
H2788 H 0.02251 0.99933 0.56888 0.0
H2789 H 0.03468 0.9977 0.6014 0.0
C2790 C 0.78442 0.3799 0.45675 0.0
C2791 C 0.79345 0.39836 0.45823 0.0
C2792 C 0.77997 0.36867 0.43901 0.0
C2793 C 0.79562 0.36406 0.3926 0.0
H2794 H 0.75261 0.32548 0.37867 0.0
C2795 C 0.79096 0.30194 0.33422 0.0
C2796 C 0.77621 0.29865 0.32025 0.0
C2797 C 0.79162 0.31411 0.35105 0.0
C2798 C 0.76463 0.33626 0.38239 0.0
H2799 H 0.80421 0.42014 0.44286 0.0
H2800 H 0.79633 0.40044 0.4115 0.0
H2801 H 0.75531 0.34843 0.40735 0.0
H2802 H 0.75016 0.30436 0.31306 0.0
H2803 H 0.75116 0.32538 0.34272 0.0
H2804 H 0.80496 0.35185 0.36772 0.0
C2805 C 0.79293 0.39456 0.42403 0.0
C2806 C 0.7662 0.34932 0.39877 0.0
C2807 C 0.79742 0.4058 0.44184 0.0
C2808 C 0.76176 0.30691 0.32364 0.0
C2809 C 0.76227 0.31881 0.34058 0.0
C2810 C 0.79408 0.35097 0.37632 0.0
C2811 C 0.78448 0.37579 0.42252 0.0
C2812 C 0.78183 0.36319 0.40415 0.0
C2813 C 0.77739 0.32284 0.35421 0.0
C2814 C 0.7787 0.33683 0.37124 0.0
H2815 H 0.78121 0.37407 0.46938 0.0
H2816 H 0.77367 0.35422 0.43833 0.0
H2817 H 0.80788 0.37447 0.39649 0.0
H2818 H 0.80224 0.29569 0.3318 0.0
H2819 H 0.80334 0.31691 0.3615 0.0
C2820 C 0.39112 0.99661 0.22063 0.0
C2821 C 0.39267 0.01257 0.23404 0.0
C2822 C 0.40614 0.9924 0.21331 0.0
C2823 C 0.44675 0.0203 0.20204 0.0
H2824 H 0.44901 0.9733 0.17271 0.0
C2825 C 0.49342 0.00743 0.14396 0.0
C2826 C 0.4844 0.99655 0.12692 0.0
C2827 C 0.48423 0.01063 0.15956 0.0
C2828 C 0.4485 0.9865 0.18087 0.0
H2829 H 0.41109 0.03531 0.25234 0.0
H2830 H 0.43765 0.02774 0.23981 0.0
H2831 H 0.43202 0.9737 0.19981 0.0
H2832 H 0.45878 0.98143 0.11213 0.0
H2833 H 0.44265 0.98674 0.13966 0.0
H2834 H 0.46331 0.03297 0.18291 0.0
C2835 C 0.42478 0.01869 0.23461 0.0
C2836 C 0.43889 0.98675 0.19642 0.0
C2837 C 0.40964 0.0229 0.24197 0.0
C2838 C 0.46592 0.98988 0.12519 0.0
C2839 C 0.45678 0.99279 0.14089 0.0
C2840 C 0.45667 0.02001 0.1867 0.0
C2841 C 0.42299 0.0042 0.21921 0.0
C2842 C 0.4372 0.00367 0.20665 0.0
C2843 C 0.46602 0.00263 0.15834 0.0
C2844 C 0.457 0.00312 0.17559 0.0
H2845 H 0.37811 0.98835 0.21449 0.0
H2846 H 0.40413 0.98108 0.20155 0.0
H2847 H 0.4456 0.03361 0.20939 0.0
H2848 H 0.5077 0.01268 0.14546 0.0
H2849 H 0.49153 0.01834 0.17288 0.0
C2850 C 0.7587 0.6949 0.94174 0.0
C2851 C 0.7691 0.70481 0.95857 0.0
C2852 C 0.7593 0.70219 0.92476 0.0
C2853 C 0.78928 0.73672 0.90294 0.0
H2854 H 0.74991 0.72573 0.8623 0.0
C2855 C 0.77553 0.77057 0.83431 0.0
C2856 C 0.78225 0.76143 0.81895 0.0
C2857 C 0.77429 0.76335 0.85123 0.0
C2858 C 0.761 0.72875 0.87355 0.0
H2859 H 0.78709 0.73066 0.97124 0.0
H2860 H 0.78726 0.74395 0.94195 0.0
H2861 H 0.74542 0.71482 0.89255 0.0
H2862 H 0.79338 0.73772 0.80962 0.0
H2863 H 0.79108 0.72504 0.83945 0.0
H2864 H 0.80463 0.75106 0.88384 0.0
C2865 C 0.77928 0.73019 0.94157 0.0
C2866 C 0.75849 0.7225 0.89085 0.0
C2867 C 0.77897 0.72273 0.95845 0.0
C2868 C 0.78807 0.74505 0.82112 0.0
C2869 C 0.78679 0.73781 0.83813 0.0
C2870 C 0.79174 0.74299 0.88564 0.0
C2871 C 0.77007 0.7197 0.92432 0.0
C2872 C 0.77257 0.72651 0.90587 0.0
C2873 C 0.77975 0.74687 0.85319 0.0
C2874 C 0.7776 0.73909 0.87088 0.0
H2875 H 0.75121 0.6809 0.94133 0.0
H2876 H 0.75213 0.69359 0.91182 0.0
H2877 H 0.80057 0.73975 0.91394 0.0
H2878 H 0.77095 0.78321 0.83319 0.0
H2879 H 0.7689 0.77055 0.86277 0.0
C2880 C 0.81275 0.078 0.05608 0.0
C2881 C 0.81356 0.09615 0.05258 0.0
C2882 C 0.82824 0.07114 0.05737 0.0
C2883 C 0.87703 0.0823 0.0555 0.0
H2884 H 0.86496 0.0427 0.01209 0.0
C2885 C 0.92487 0.06676 0.00138 0.0
C2886 C 0.92434 0.04813 0.99449 0.0
C2887 C 0.913 0.07138 0.01382 0.0
C2888 C 0.86857 0.05342 0.02451 0.0
H2889 H 0.83126 0.1223 0.05117 0.0
H2890 H 0.85817 0.11032 0.05321 0.0
H2891 H 0.84136 0.0529 0.02781 0.0
H2892 H 0.91143 0.0197 0.99519 0.0
H2893 H 0.89052 0.02777 0.01681 0.0
H2894 H 0.90433 0.08339 0.05133 0.0
C2895 C 0.8457 0.1013 0.05476 0.0
C2896 C 0.85505 0.05919 0.03361 0.0
C2897 C 0.83022 0.10813 0.05338 0.0
C2898 C 0.91206 0.03417 0.00042 0.0
C2899 C 0.90012 0.03877 0.0127 0.0
C2900 C 0.89061 0.07647 0.04637 0.0
C2901 C 0.84461 0.08241 0.0553 0.0
C2902 C 0.85913 0.07394 0.04892 0.0
C2903 C 0.90036 0.05741 0.01934 0.0
C2904 C 0.88643 0.06225 0.03055 0.0
H2905 H 0.80006 0.06854 0.05579 0.0
H2906 H 0.82717 0.05657 0.05807 0.0
H2907 H 0.88044 0.09379 0.06719 0.0
H2908 H 0.9344 0.07769 0.99707 0.0
H2909 H 0.91329 0.08586 0.01858 0.0
C2910 C 0.33589 0.43113 0.02301 0.0
C2911 C 0.33253 0.41326 0.02781 0.0
C2912 C 0.35332 0.44069 0.02278 0.0
C2913 C 0.39939 0.43506 0.02033 0.0
H2914 H 0.41123 0.48683 0.04358 0.0
C2915 C 0.47103 0.48113 0.03454 0.0
C2916 C 0.47275 0.49686 0.02548 0.0
C2917 C 0.4542 0.47048 0.03568 0.0
C2918 C 0.40804 0.47239 0.03705 0.0
H2919 H 0.34475 0.39111 0.03536 0.0
H2920 H 0.37526 0.40777 0.03473 0.0
H2921 H 0.38113 0.46856 0.04329 0.0
H2922 H 0.45798 0.51337 0.0102 0.0
H2923 H 0.4287 0.4955 0.01344 0.0
H2924 H 0.42649 0.43901 0.01429 0.0
C2925 C 0.36439 0.41438 0.03123 0.0
C2926 C 0.39085 0.46197 0.03677 0.0
C2927 C 0.34692 0.40486 0.03164 0.0
C2928 C 0.45724 0.50182 0.01789 0.0
C2929 C 0.44044 0.49146 0.01952 0.0
C2930 C 0.41667 0.44547 0.02079 0.0
C2931 C 0.36777 0.43255 0.0272 0.0
C2932 C 0.38627 0.44328 0.02815 0.0
C2933 C 0.43882 0.47562 0.02821 0.0
C2934 C 0.42102 0.46426 0.02895 0.0
H2935 H 0.32509 0.43801 0.02005 0.0
H2936 H 0.3555 0.45457 0.01931 0.0
H2937 H 0.39619 0.42074 0.01345 0.0
H2938 H 0.48267 0.4768 0.04042 0.0
H2939 H 0.45318 0.45826 0.04244 0.0
C2940 C 0.39725 0.57229 0.75003 0.0
C2941 C 0.38708 0.55452 0.75005 0.0
C2942 C 0.38887 0.58702 0.74866 0.0
C2943 C 0.34796 0.60264 0.73772 0.0
H2944 H 0.36258 0.63542 0.7861 0.0
C2945 C 0.30828 0.65511 0.7701 0.0
C2946 C 0.31813 0.67127 0.78177 0.0
C2947 C 0.31703 0.64196 0.76174 0.0
C2948 C 0.35861 0.62674 0.77231 0.0
H2949 H 0.36042 0.53763 0.7473 0.0
H2950 H 0.34559 0.56343 0.74407 0.0
H2951 H 0.37726 0.61005 0.77821 0.0
H2952 H 0.34453 0.68724 0.79298 0.0
H2953 H 0.35993 0.66467 0.77793 0.0
H2954 H 0.32917 0.6194 0.7319 0.0
C2955 C 0.36 0.56596 0.74521 0.0
C2956 C 0.36698 0.61215 0.76786 0.0
C2957 C 0.36842 0.55126 0.74704 0.0
C2958 C 0.33677 0.67481 0.78397 0.0
C2959 C 0.34551 0.66181 0.77551 0.0
C2960 C 0.33967 0.61748 0.74208 0.0
C2961 C 0.3702 0.58405 0.74695 0.0
C2962 C 0.36174 0.59999 0.75058 0.0
C2963 C 0.33573 0.64489 0.76499 0.0
C2964 C 0.34492 0.62968 0.75947 0.0
H2965 H 0.41167 0.57509 0.75274 0.0
H2966 H 0.39696 0.60091 0.75018 0.0
H2967 H 0.34367 0.59328 0.72436 0.0
H2968 H 0.29385 0.65218 0.76839 0.0
H2969 H 0.30911 0.62906 0.75378 0.0
C2970 C 0.20604 0.58906 0.54755 0.0
C2971 C 0.21532 0.58931 0.53159 0.0
C2972 C 0.18749 0.58465 0.5451 0.0
C2973 C 0.15042 0.55677 0.51666 0.0
H2974 H 0.12271 0.59359 0.53008 0.0
C2975 C 0.0758 0.53505 0.50667 0.0
C2976 C 0.06804 0.54032 0.52283 0.0
C2977 C 0.09277 0.54436 0.50451 0.0
C2978 C 0.13031 0.58321 0.52629 0.0
H2979 H 0.2128 0.58471 0.5007 0.0
H2980 H 0.18026 0.57639 0.49654 0.0
H2981 H 0.15537 0.60257 0.53439 0.0
H2982 H 0.07106 0.5593 0.54925 0.0
H2983 H 0.1013 0.57512 0.54612 0.0
H2984 H 0.1258 0.53712 0.50958 0.0
C2985 C 0.18741 0.57999 0.5108 0.0
C2986 C 0.14884 0.58833 0.52878 0.0
C2987 C 0.2059 0.58469 0.51321 0.0
C2988 C 0.07698 0.5553 0.53659 0.0
C2989 C 0.09412 0.56441 0.53466 0.0
C2990 C 0.13198 0.55158 0.51444 0.0
C2991 C 0.17821 0.58018 0.52672 0.0
C2992 C 0.15886 0.57507 0.52404 0.0
C2993 C 0.10241 0.55848 0.51897 0.0
C2994 C 0.12175 0.56473 0.51931 0.0
H2995 H 0.21306 0.59264 0.56185 0.0
H2996 H 0.18039 0.5846 0.55748 0.0
H2997 H 0.15813 0.54643 0.51309 0.0
H2998 H 0.06925 0.52307 0.49628 0.0
H2999 H 0.0988 0.53969 0.49217 0.0
C3000 C 0.70083 0.99034 0.75914 0.0
C3001 C 0.71114 0.00112 0.74801 0.0
C3002 C 0.70318 0.97267 0.76058 0.0
C3003 C 0.7225 0.9347 0.73888 0.0
H3004 H 0.72165 0.92196 0.78959 0.0
C3005 C 0.75494 0.88158 0.77211 0.0
C3006 C 0.7457 0.87263 0.78545 0.0
C3007 C 0.74716 0.89308 0.76183 0.0
C3008 C 0.72151 0.92515 0.77525 0.0
H3009 H 0.73149 0.0021 0.72911 0.0
H3010 H 0.73646 0.97119 0.73248 0.0
H3011 H 0.71682 0.95188 0.78421 0.0
H3012 H 0.72037 0.86649 0.79656 0.0
H3013 H 0.70689 0.88695 0.77882 0.0
H3014 H 0.72844 0.90807 0.73045 0.0
C3015 C 0.72633 0.97631 0.73981 0.0
C3016 C 0.7188 0.94231 0.77217 0.0
C3017 C 0.72373 0.994 0.73811 0.0
C3018 C 0.72788 0.87362 0.7867 0.0
C3019 C 0.72013 0.88511 0.77644 0.0
C3020 C 0.72552 0.91749 0.74207 0.0
C3021 C 0.71609 0.96555 0.75115 0.0
C3022 C 0.71917 0.94725 0.75398 0.0
C3023 C 0.73014 0.89577 0.76489 0.0
C3024 C 0.72493 0.91263 0.76029 0.0
H3025 H 0.69058 0.99529 0.76627 0.0
H3026 H 0.69474 0.96451 0.76899 0.0
H3027 H 0.72275 0.93817 0.72469 0.0
H3028 H 0.76871 0.88107 0.77086 0.0
H3029 H 0.75513 0.90129 0.75308 0.0
C3030 C 0.72151 0.90253 0.52352 0.0
C3031 C 0.73575 0.91274 0.53692 0.0
C3032 C 0.70614 0.90939 0.51997 0.0
C3033 C 0.68175 0.94516 0.53866 0.0
H3034 H 0.66206 0.9387 0.48569 0.0
C3035 C 0.63142 0.98626 0.50857 0.0
C3036 C 0.61859 0.97657 0.4934 0.0
C3037 C 0.64443 0.97766 0.51619 0.0
C3038 C 0.66719 0.94042 0.5006 0.0
H3039 H 0.74478 0.93797 0.55751 0.0
H3040 H 0.71824 0.95006 0.55103 0.0
H3041 H 0.68703 0.92506 0.49433 0.0
H3042 H 0.60829 0.95006 0.47538 0.0
H3043 H 0.63059 0.93497 0.48887 0.0
H3044 H 0.662 0.96098 0.54473 0.0
C3045 C 0.71876 0.93663 0.54344 0.0
C3046 C 0.68154 0.93254 0.50558 0.0
C3047 C 0.73407 0.92973 0.54706 0.0
C3048 C 0.6182 0.95788 0.4869 0.0
C3049 C 0.63104 0.94929 0.49455 0.0
C3050 C 0.66737 0.95315 0.53365 0.0
C3051 C 0.70469 0.92669 0.52965 0.0
C3052 C 0.68901 0.93474 0.52466 0.0
C3053 C 0.64472 0.95925 0.50877 0.0
C3054 C 0.65988 0.95078 0.51454 0.0
H3055 H 0.72231 0.88934 0.51557 0.0
H3056 H 0.69543 0.90118 0.5095 0.0
H3057 H 0.68707 0.94702 0.55353 0.0
H3058 H 0.63199 0.00072 0.51377 0.0
H3059 H 0.6548 0.98572 0.52713 0.0
C3060 C 0.36508 0.46426 0.76783 0.0
C3061 C 0.38128 0.46779 0.76014 0.0
C3062 C 0.35486 0.44634 0.76563 0.0
C3063 C 0.3464 0.39909 0.73939 0.0
H3064 H 0.3326 0.38616 0.78741 0.0
C3065 C 0.31448 0.32431 0.74887 0.0
C3066 C 0.30105 0.32215 0.76091 0.0
C3067 C 0.32405 0.34191 0.74741 0.0
C3068 C 0.33608 0.38958 0.77382 0.0
H3069 H 0.39892 0.45545 0.74302 0.0
H3070 H 0.38091 0.4238 0.73927 0.0
H3071 H 0.34944 0.41709 0.7864 0.0
H3072 H 0.28712 0.33679 0.78079 0.0
H3073 H 0.3034 0.3675 0.7778 0.0
H3074 H 0.33282 0.37153 0.72679 0.0
C3075 C 0.37622 0.43505 0.74698 0.0
C3076 C 0.3458 0.40729 0.77326 0.0
C3077 C 0.3865 0.45313 0.74913 0.0
C3078 C 0.29727 0.33797 0.77128 0.0
C3079 C 0.30675 0.35558 0.76971 0.0
C3080 C 0.33652 0.38131 0.73992 0.0
C3081 C 0.3606 0.43147 0.75577 0.0
C3082 C 0.35088 0.41231 0.75603 0.0
C3083 C 0.32039 0.35774 0.75793 0.0
C3084 C 0.33111 0.37644 0.75714 0.0
H3085 H 0.3605 0.4753 0.77607 0.0
H3086 H 0.34266 0.44402 0.77216 0.0
H3087 H 0.35015 0.40264 0.72593 0.0
H3088 H 0.31774 0.31239 0.74067 0.0
H3089 H 0.3346 0.34306 0.73839 0.0
C3090 C 0.18508 0.5928 0.25753 0.0
C3091 C 0.19341 0.58332 0.27004 0.0
C3092 C 0.19217 0.61134 0.25709 0.0
C3093 C 0.22172 0.6525 0.28541 0.0
H3094 H 0.2252 0.66925 0.23666 0.0
C3095 C 0.2662 0.72055 0.27523 0.0
C3096 C 0.25962 0.73021 0.26181 0.0
C3097 C 0.25622 0.7036 0.27774 0.0
C3098 C 0.22399 0.6648 0.25036 0.0
H3099 H 0.2158 0.58539 0.29154 0.0
H3100 H 0.22838 0.61784 0.29061 0.0
H3101 H 0.21202 0.63695 0.23758 0.0
H3102 H 0.23781 0.73073 0.24074 0.0
H3103 H 0.21996 0.70094 0.24529 0.0
H3104 H 0.23404 0.68028 0.29816 0.0
C3105 C 0.2161 0.61108 0.28157 0.0
C3106 C 0.21653 0.64636 0.25088 0.0
C3107 C 0.20889 0.59259 0.28216 0.0
C3108 C 0.24284 0.72332 0.25129 0.0
C3109 C 0.23279 0.70637 0.25382 0.0
C3110 C 0.22919 0.67093 0.28488 0.0
C3111 C 0.20778 0.62057 0.26904 0.0
C3112 C 0.21542 0.64008 0.26842 0.0
C3113 C 0.23965 0.69619 0.26669 0.0
C3114 C 0.23044 0.67717 0.26736 0.0
H3115 H 0.17318 0.58582 0.24796 0.0
H3116 H 0.18544 0.61844 0.24744 0.0
H3117 H 0.22079 0.64798 0.2991 0.0
H3118 H 0.27938 0.72572 0.28313 0.0
H3119 H 0.26189 0.69587 0.28754 0.0
C3120 C 0.49052 0.70472 0.4723 0.0
C3121 C 0.50037 0.71263 0.45872 0.0
C3122 C 0.49323 0.68818 0.47819 0.0
C3123 C 0.51109 0.64623 0.46229 0.0
H3124 H 0.50485 0.63635 0.51326 0.0
C3125 C 0.50707 0.57205 0.48118 0.0
C3126 C 0.51368 0.57011 0.49966 0.0
C3127 C 0.5058 0.58953 0.47662 0.0
C3128 C 0.50685 0.63879 0.49898 0.0
H3129 H 0.52131 0.70921 0.44121 0.0
H3130 H 0.52616 0.68063 0.45159 0.0
H3131 H 0.50327 0.66664 0.50532 0.0
H3132 H 0.52302 0.58531 0.52803 0.0
H3133 H 0.52213 0.61565 0.51995 0.0
H3134 H 0.51511 0.61858 0.45603 0.0
C3135 C 0.51612 0.6871 0.45755 0.0
C3136 C 0.50569 0.65625 0.49432 0.0
C3137 C 0.51349 0.70373 0.45175 0.0
C3138 C 0.51856 0.58619 0.51349 0.0
C3139 C 0.51763 0.6037 0.50888 0.0
C3140 C 0.5123 0.62878 0.46695 0.0
C3141 C 0.50582 0.67882 0.47064 0.0
C3142 C 0.50771 0.6603 0.47587 0.0
C3143 C 0.51123 0.60577 0.49033 0.0
C3144 C 0.51013 0.62464 0.48537 0.0
H3145 H 0.48025 0.71102 0.478 0.0
H3146 H 0.48489 0.68235 0.48816 0.0
H3147 H 0.51251 0.64854 0.44785 0.0
H3148 H 0.50291 0.56004 0.47012 0.0
H3149 H 0.50035 0.59021 0.4623 0.0
C3150 C 0.60858 0.29893 0.67345 0.0
C3151 C 0.60485 0.29576 0.65345 0.0
C3152 C 0.62495 0.29732 0.68254 0.0
C3153 C 0.66478 0.27702 0.67507 0.0
H3154 H 0.6847 0.30957 0.72255 0.0
C3155 C 0.72373 0.26407 0.72497 0.0
C3156 C 0.73663 0.27946 0.7345 0.0
C3157 C 0.70829 0.26638 0.71434 0.0
C3158 C 0.67949 0.30044 0.70923 0.0
H3159 H 0.61581 0.28839 0.62739 0.0
H3160 H 0.64462 0.28582 0.64327 0.0
H3161 H 0.65736 0.3134 0.70523 0.0
H3162 H 0.74345 0.30935 0.74053 0.0
H3163 H 0.71642 0.31351 0.72223 0.0
H3164 H 0.68712 0.26424 0.67902 0.0
C3165 C 0.63467 0.28937 0.65196 0.0
C3166 C 0.66357 0.30248 0.69934 0.0
C3167 C 0.61816 0.29098 0.64279 0.0
C3168 C 0.73377 0.29725 0.73321 0.0
C3169 C 0.71818 0.29958 0.72283 0.0
C3170 C 0.68071 0.27495 0.685 0.0
C3171 C 0.63834 0.29253 0.67203 0.0
C3172 C 0.65585 0.29074 0.68213 0.0
C3173 C 0.70516 0.28417 0.71319 0.0
C3174 C 0.68831 0.28659 0.7023 0.0
H3175 H 0.59873 0.30253 0.68227 0.0
H3176 H 0.62693 0.29951 0.69795 0.0
H3177 H 0.65929 0.26756 0.66202 0.0
H3178 H 0.72559 0.25021 0.72567 0.0
H3179 H 0.69861 0.25414 0.70736 0.0
C3180 C 0.00315 0.32285 0.94286 0.0
C3181 C 1.00009 0.31043 0.95593 0.0
C3182 C 0.00536 0.34204 0.94868 0.0
C3183 C 0.0213 0.38048 0.9866 0.0
H3184 H 0.98457 0.40376 0.9668 0.0
C3185 C 0.02517 0.45922 0.01171 0.0
C3186 C 0.01569 0.46903 0.00062 0.0
C3187 C 0.02308 0.4399 0.00692 0.0
C3188 C 0.9953 0.39788 0.97229 0.0
H3189 H 0.99735 0.30866 0.98549 0.0
H3190 H 0.0024 0.34234 0.99588 0.0
H3191 H 0.98245 0.3709 0.9569 0.0
H3192 H 0.99679 0.46624 0.97554 0.0
H3193 H 0.9941 0.43327 0.9663 0.0
H3194 H 0.03488 0.40725 0.00106 0.0
C3195 C 0.00271 0.33709 0.98105 0.0
C3196 C 0.99388 0.37877 0.96666 0.0
C3197 C 0.99988 0.31782 0.97511 0.0
C3198 C 0.00421 0.45908 0.9845 0.0
C3199 C 0.00255 0.4399 0.97932 0.0
C3200 C 0.02305 0.39972 0.99179 0.0
C3201 C 0.00512 0.34942 0.96783 0.0
C3202 C 0.0068 0.36981 0.97381 0.0
C3203 C 0.01188 0.42975 0.99044 0.0
C3204 C 0.01004 0.40893 0.98484 0.0
H3205 H 0.00302 0.31764 0.92792 0.0
H3206 H 0.00714 0.35115 0.93815 0.0
H3207 H 0.03154 0.374 0.99228 0.0
H3208 H 0.03394 0.46644 0.02439 0.0
H3209 H 0.03022 0.43307 0.01643 0.0
C3210 C 0.005 0.77317 0.1574 0.0
C3211 C 0.00545 0.78019 0.14018 0.0
C3212 C 0.98976 0.7717 0.16681 0.0
C3213 C 0.94785 0.78936 0.16976 0.0
H3214 H 0.93535 0.74858 0.19751 0.0
C3215 C 0.88057 0.76921 0.20183 0.0
C3216 C 0.88161 0.76228 0.21909 0.0
C3217 C 0.89597 0.77419 0.193 0.0
C3218 C 0.93876 0.76022 0.19006 0.0
H3219 H 0.98996 0.79093 0.11922 0.0
H3220 H 0.96326 0.78791 0.13532 0.0
H3221 H 0.96079 0.75035 0.17977 0.0
H3222 H 0.89956 0.75616 0.24119 0.0
H3223 H 0.92639 0.76514 0.22612 0.0
H3224 H 0.92534 0.79887 0.17984 0.0
C3225 C 0.9748 0.78383 0.14179 0.0
C3226 C 0.95343 0.76125 0.17984 0.0
C3227 C 0.99009 0.78534 0.1324 0.0
C3228 C 0.89843 0.76169 0.22801 0.0
C3229 C 0.91375 0.76658 0.21922 0.0
C3230 C 0.93301 0.78822 0.17991 0.0
C3231 C 0.97445 0.77714 0.15925 0.0
C3232 C 0.95834 0.7759 0.16965 0.0
C3233 C 0.91263 0.7721 0.2012 0.0
C3234 C 0.92839 0.77372 0.19035 0.0
H3235 H 0.01662 0.76926 0.16393 0.0
H3236 H 0.99022 0.76675 0.18033 0.0
H3237 H 0.95127 0.80098 0.1623 0.0
H3238 H 0.86771 0.76943 0.19447 0.0
H3239 H 0.89462 0.77837 0.17912 0.0
C3240 C 0.52486 0.30859 0.15027 0.0
C3241 C 0.51596 0.29098 0.1406 0.0
C3242 C 0.52643 0.32409 0.14096 0.0
C3243 C 0.52417 0.33867 0.09354 0.0
H3244 H 0.5104 0.38183 0.11943 0.0
C3245 C 0.52119 0.40082 0.05517 0.0
C3246 C 0.52937 0.41819 0.06582 0.0
C3247 C 0.51671 0.38534 0.06423 0.0
C3248 C 0.51441 0.36997 0.11202 0.0
H3249 H 0.50253 0.27566 0.11344 0.0
H3250 H 0.50593 0.30247 0.09701 0.0
H3251 H 0.51074 0.35501 0.1354 0.0
H3252 H 0.5384 0.43328 0.09423 0.0
H3253 H 0.53053 0.40648 0.11013 0.0
H3254 H 0.52827 0.35362 0.07036 0.0
C3255 C 0.51152 0.30441 0.1118 0.0
C3256 C 0.51467 0.3546 0.12122 0.0
C3257 C 0.50964 0.28902 0.12118 0.0
C3258 C 0.53175 0.4201 0.08575 0.0
C3259 C 0.52731 0.40465 0.09483 0.0
C3260 C 0.52406 0.35406 0.0844 0.0
C3261 C 0.51943 0.32223 0.1217 0.0
C3262 C 0.51961 0.33878 0.11212 0.0
C3263 C 0.52051 0.38688 0.08414 0.0
C3264 C 0.51923 0.36999 0.0935 0.0
H3265 H 0.52954 0.31059 0.16533 0.0
H3266 H 0.53275 0.3376 0.14894 0.0
H3267 H 0.52816 0.32678 0.08617 0.0
H3268 H 0.51953 0.39894 0.03976 0.0
H3269 H 0.5111 0.372 0.05553 0.0
C3270 C 0.96812 0.27813 0.32632 0.0
C3271 C 0.98142 0.29111 0.32022 0.0
C3272 C 0.94997 0.2769 0.3207 0.0
C3273 C 0.91703 0.30258 0.30328 0.0
H3274 H 0.88665 0.25357 0.28861 0.0
C3275 C 0.84099 0.2919 0.27705 0.0
C3276 C 0.82898 0.27636 0.28085 0.0
C3277 C 0.85955 0.29403 0.28112 0.0
C3278 C 0.89476 0.26741 0.29295 0.0
H3279 H 0.98569 0.3132 0.3034 0.0
H3280 H 0.95376 0.31135 0.29387 0.0
H3281 H 0.91858 0.25699 0.29676 0.0
H3282 H 0.82764 0.25083 0.29235 0.0
H3283 H 0.85973 0.25465 0.29993 0.0
H3284 H 0.89318 0.31304 0.29997 0.0
C3285 C 0.95756 0.30201 0.303 0.0
C3286 C 0.91323 0.26937 0.29755 0.0
C3287 C 0.97589 0.30305 0.30841 0.0
C3288 C 0.83629 0.26297 0.28899 0.0
C3289 C 0.85487 0.26515 0.29327 0.0
C3290 C 0.89847 0.30062 0.29888 0.0
C3291 C 0.94431 0.28875 0.30892 0.0
C3292 C 0.92468 0.28696 0.30295 0.0
C3293 C 0.86691 0.28071 0.28936 0.0
C3294 C 0.88692 0.28297 0.29376 0.0
H3295 H 0.97173 0.26858 0.33529 0.0
H3296 H 0.94029 0.26668 0.32578 0.0
H3297 H 0.92533 0.31635 0.30752 0.0
H3298 H 0.83616 0.30236 0.27056 0.0
H3299 H 0.86809 0.30605 0.27745 0.0
C3300 C 0.99379 0.69453 0.62551 0.0
C3301 C 0.0027 0.70128 0.64403 0.0
C3302 C 0.99707 0.67873 0.61461 0.0
C3303 C 0.01387 0.63599 0.618 0.0
H3304 H 0.01664 0.63535 0.56406 0.0
C3305 C 0.01083 0.56809 0.56529 0.0
C3306 C 0.02177 0.56885 0.55057 0.0
C3307 C 0.00949 0.58427 0.57716 0.0
C3308 C 0.01604 0.63527 0.57911 0.0
H3309 H 0.02211 0.6963 0.66552 0.0
H3310 H 0.02766 0.66848 0.64657 0.0
H3311 H 0.01295 0.66337 0.58379 0.0
H3312 H 0.04023 0.5876 0.53734 0.0
H3313 H 0.03764 0.61571 0.55772 0.0
H3314 H 0.01694 0.60784 0.61328 0.0
C3315 C 0.0181 0.67555 0.64049 0.0
C3316 C 0.01374 0.65135 0.59044 0.0
C3317 C 0.01498 0.69158 0.65135 0.0
C3318 C 0.03141 0.58635 0.54823 0.0
C3319 C 0.02993 0.60256 0.55999 0.0
C3320 C 0.01602 0.61983 0.60662 0.0
C3321 C 0.00925 0.66895 0.62189 0.0
C3322 C 0.01251 0.65195 0.61004 0.0
C3323 C 0.01893 0.6018 0.57463 0.0
C3324 C 0.01706 0.61918 0.58696 0.0
H3325 H 0.98429 0.70157 0.61925 0.0
H3326 H 0.98981 0.67402 0.60049 0.0
H3327 H 0.01287 0.63584 0.63298 0.0
H3328 H 0.00317 0.55495 0.56762 0.0
H3329 H 1.00073 0.58306 0.5881 0.0
C3330 C 0.59113 0.7791 0.79773 0.0
C3331 C 0.58703 0.78802 0.81495 0.0
C3332 C 0.60884 0.77952 0.79435 0.0
C3333 C 0.65644 0.80399 0.81035 0.0
H3334 H 0.66613 0.75924 0.78303 0.0
C3335 C 0.72928 0.79718 0.79838 0.0
C3336 C 0.73189 0.78593 0.7818 0.0
C3337 C 0.71199 0.79776 0.80298 0.0
C3338 C 0.66379 0.77203 0.79041 0.0
H3339 H 0.59892 0.80481 0.84201 0.0
H3340 H 0.62993 0.80553 0.83615 0.0
H3341 H 0.63607 0.75999 0.78994 0.0
H3342 H 0.71789 0.767 0.75678 0.0
H3343 H 0.68811 0.76822 0.76443 0.0
H3344 H 0.68418 0.8161 0.81062 0.0
C3345 C 0.61928 0.79823 0.82515 0.0
C3346 C 0.64636 0.77244 0.79446 0.0
C3347 C 0.60143 0.7978 0.82856 0.0
C3348 C 0.71659 0.77554 0.76985 0.0
C3349 C 0.69934 0.77622 0.77435 0.0
C3350 C 0.67392 0.80362 0.80618 0.0
C3351 C 0.6233 0.78885 0.80805 0.0
C3352 C 0.64228 0.78845 0.80438 0.0
C3353 C 0.69663 0.78724 0.79109 0.0
C3354 C 0.67795 0.78766 0.796 0.0
H3355 H 0.58057 0.77155 0.78673 0.0
H3356 H 0.61115 0.77249 0.78083 0.0
H3357 H 0.65398 0.81666 0.81786 0.0
H3358 H 0.74064 0.80531 0.80807 0.0
H3359 H 0.71075 0.80625 0.81613 0.0
C3360 C 0.44502 0.50637 0.69024 0.0
C3361 C 0.45125 0.52215 0.7042 0.0
C3362 C 0.45094 0.50569 0.67232 0.0
C3363 C 0.48762 0.52703 0.64766 0.0
H3364 H 0.45415 0.50786 0.60189 0.0
C3365 C 0.48988 0.5314 0.56476 0.0
C3366 C 0.50181 0.52017 0.55977 0.0
C3367 C 0.48307 0.5312 0.58216 0.0
C3368 C 0.46355 0.51326 0.61462 0.0
H3369 H 0.46847 0.54961 0.71034 0.0
H3370 H 0.47856 0.54851 0.67911 0.0
H3371 H 0.44351 0.50809 0.63317 0.0
H3372 H 0.51569 0.49961 0.56846 0.0
H3373 H 0.50371 0.49928 0.599 0.0
H3374 H 0.50762 0.53208 0.62902 0.0
C3375 C 0.46934 0.53655 0.68206 0.0
C3376 C 0.45755 0.51326 0.63245 0.0
C3377 C 0.46349 0.5372 0.69993 0.0
C3378 C 0.50668 0.50856 0.57221 0.0
C3379 C 0.49984 0.50832 0.58954 0.0
C3380 C 0.49362 0.52682 0.62987 0.0
C3381 C 0.46317 0.52079 0.66807 0.0
C3382 C 0.46952 0.52024 0.64915 0.0
C3383 C 0.4881 0.51971 0.59464 0.0
C3384 C 0.48161 0.52 0.61329 0.0
H3385 H 0.43567 0.49451 0.69317 0.0
H3386 H 0.44613 0.49328 0.66188 0.0
H3387 H 0.49718 0.53233 0.66027 0.0
H3388 H 0.48614 0.5406 0.55541 0.0
H3389 H 0.47417 0.54023 0.58604 0.0
C3390 C 0.76284 0.14913 0.97724 0.0
C3391 C 0.77486 0.1576 0.99345 0.0
C3392 C 0.75999 0.15897 0.9625 0.0
C3393 C 0.782 0.19993 0.94313 0.0
H3394 H 0.73708 0.1893 0.91024 0.0
C3395 C 0.75704 0.24228 0.88775 0.0
C3396 C 0.74991 0.23192 0.8698 0.0
C3397 C 0.76329 0.2336 0.90223 0.0
C3398 C 0.74974 0.1922 0.91925 0.0
H3399 H 0.79206 0.18336 0.00792 0.0
H3400 H 0.78642 0.20088 0.98253 0.0
H3401 H 0.73927 0.17457 0.93836 0.0
H3402 H 0.74488 0.20483 0.85231 0.0
H3403 H 0.75524 0.18949 0.87797 0.0
H3404 H 0.792 0.2184 0.92423 0.0
C3405 C 0.77987 0.1864 0.98074 0.0
C3406 C 0.75103 0.18378 0.93532 0.0
C3407 C 0.783 0.17644 0.99533 0.0
C3408 C 0.75017 0.21303 0.86613 0.0
C3409 C 0.75612 0.2043 0.88069 0.0
C3410 C 0.78056 0.20868 0.92721 0.0
C3411 C 0.76882 0.1776 0.96388 0.0
C3412 C 0.7672 0.18742 0.94739 0.0
C3413 C 0.76218 0.21445 0.89895 0.0
C3414 C 0.76444 0.20471 0.91514 0.0
H3415 H 0.75639 0.13461 0.97546 0.0
H3416 H 0.75151 0.15166 0.94968 0.0
H3417 H 0.79476 0.20277 0.9519 0.0
H3418 H 0.7573 0.25696 0.89071 0.0
H3419 H 0.76791 0.2416 0.91628 0.0
C3420 C 0.11973 0.51933 0.19142 0.0
C3421 C 0.13737 0.52309 0.18741 0.0
C3422 C 0.1064 0.52356 0.17956 0.0
C3423 C 0.09772 0.54788 0.13921 0.0
H3424 H 0.057 0.50652 0.12548 0.0
C3425 C 0.04206 0.54198 0.07713 0.0
C3426 C 0.0417 0.5262 0.06381 0.0
C3427 C 0.05125 0.54409 0.09528 0.0
C3428 C 0.06814 0.5183 0.12945 0.0
H3429 H 0.15545 0.53472 0.16872 0.0
H3430 H 0.13175 0.54096 0.14683 0.0
H3431 H 0.07909 0.5065 0.15192 0.0
H3432 H 0.04982 0.50002 0.05869 0.0
H3433 H 0.0656 0.50349 0.0906 0.0
H3434 H 0.08714 0.55888 0.11561 0.0
C3435 C 0.1283 0.53533 0.15948 0.0
C3436 C 0.08074 0.51838 0.14461 0.0
C3437 C 0.14176 0.53151 0.17171 0.0
C3438 C 0.05002 0.51228 0.06886 0.0
C3439 C 0.05889 0.51421 0.08704 0.0
C3440 C 0.08504 0.54777 0.12396 0.0
C3441 C 0.11047 0.53117 0.16324 0.0
C3442 C 0.09594 0.53286 0.14923 0.0
C3443 C 0.05974 0.53021 0.10024 0.0
C3444 C 0.07058 0.53262 0.11864 0.0
H3445 H 0.1163 0.51337 0.20391 0.0
H3446 H 0.09286 0.52059 0.183 0.0
H3447 H 0.10922 0.55931 0.14269 0.0
H3448 H 0.0358 0.55293 0.07327 0.0
H3449 H 0.05192 0.55655 0.10533 0.0
C3450 C 0.7906 0.82996 0.47331 0.0
C3451 C 0.78414 0.84579 0.47958 0.0
C3452 C 0.7882 0.82229 0.454 0.0
C3453 C 0.78198 0.83559 0.40656 0.0
H3454 H 0.77227 0.78271 0.38862 0.0
C3455 C 0.77222 0.80561 0.32634 0.0
C3456 C 0.77959 0.79031 0.32045 0.0
C3457 C 0.77194 0.81185 0.34566 0.0
C3458 C 0.77521 0.79753 0.3934 0.0
H3459 H 0.76953 0.8656 0.47038 0.0
H3460 H 0.76537 0.85223 0.43659 0.0
H3461 H 0.77222 0.79418 0.42231 0.0
H3462 H 0.79219 0.76937 0.3305 0.0
H3463 H 0.79198 0.78044 0.36426 0.0
H3464 H 0.78526 0.83901 0.37778 0.0
C3465 C 0.77239 0.8458 0.44668 0.0
C3466 C 0.77511 0.80411 0.41273 0.0
C3467 C 0.77461 0.85336 0.46608 0.0
C3468 C 0.78655 0.78129 0.33446 0.0
C3469 C 0.78627 0.78755 0.35386 0.0
C3470 C 0.78214 0.82903 0.38726 0.0
C3471 C 0.77944 0.83035 0.44035 0.0
C3472 C 0.77855 0.82324 0.41959 0.0
C3473 C 0.779 0.80297 0.35973 0.0
C3474 C 0.7788 0.80989 0.38038 0.0
H3475 H 0.79797 0.82373 0.4833 0.0
H3476 H 0.7939 0.81048 0.44968 0.0
H3477 H 0.78502 0.85041 0.41135 0.0
H3478 H 0.76658 0.81286 0.31602 0.0
H3479 H 0.76595 0.82354 0.34954 0.0
C3480 C 0.44069 0.52054 0.82444 0.0
C3481 C 0.4473 0.51191 0.80877 0.0
C3482 C 0.44837 0.52076 0.84291 0.0
C3483 C 0.47686 0.4985 0.87206 0.0
H3484 H 0.48409 0.5449 0.90674 0.0
C3485 C 0.5139 0.51012 0.94839 0.0
C3486 C 0.50541 0.51848 0.96268 0.0
C3487 C 0.50792 0.50946 0.92921 0.0
C3488 C 0.48206 0.53183 0.89725 0.0
H3489 H 0.4669 0.49632 0.80016 0.0
H3490 H 0.48048 0.49685 0.83257 0.0
H3491 H 0.47116 0.54281 0.87391 0.0
H3492 H 0.48438 0.53326 0.96804 0.0
H3493 H 0.47401 0.53208 0.93468 0.0
H3494 H 0.4877 0.48752 0.89554 0.0
C3495 C 0.46921 0.50329 0.83051 0.0
C3496 C 0.47463 0.53061 0.87848 0.0
C3497 C 0.46146 0.50302 0.81197 0.0
C3498 C 0.49116 0.52659 0.95741 0.0
C3499 C 0.48527 0.52603 0.93828 0.0
C3500 C 0.48434 0.49973 0.89088 0.0
C3501 C 0.46292 0.51246 0.84613 0.0
C3502 C 0.47169 0.51386 0.86576 0.0
C3503 C 0.4935 0.51735 0.92398 0.0
C3504 C 0.48677 0.51634 0.90372 0.0
H3505 H 0.42986 0.52757 0.82253 0.0
H3506 H 0.443 0.52761 0.85468 0.0
H3507 H 0.47464 0.48538 0.86261 0.0
H3508 H 0.52511 0.50403 0.95197 0.0
H3509 H 0.51466 0.50289 0.91847 0.0
C3510 C 0.77676 0.17274 0.08266 0.0
C3511 C 0.7729 0.15336 0.0794 0.0
C3512 C 0.7725 0.18229 0.09907 0.0
C3513 C 0.77009 0.17694 0.14798 0.0
H3514 H 0.75654 0.22441 0.15111 0.0
C3515 C 0.78841 0.23103 0.21594 0.0
C3516 C 0.77581 0.24145 0.22066 0.0
C3517 C 0.78585 0.21952 0.19835 0.0
C3518 C 0.76011 0.21106 0.15054 0.0
H3519 H 0.76066 0.12856 0.0898 0.0
H3520 H 0.75355 0.14539 0.11908 0.0
H3521 H 0.75282 0.20451 0.12041 0.0
H3522 H 0.75058 0.24796 0.2112 0.0
H3523 H 0.74582 0.22748 0.1809 0.0
H3524 H 0.77738 0.18345 0.17809 0.0
C3525 C 0.75979 0.15314 0.10885 0.0
C3526 C 0.75805 0.19974 0.13296 0.0
C3527 C 0.76378 0.14356 0.09218 0.0
C3528 C 0.76066 0.24028 0.20768 0.0
C3529 C 0.75794 0.22856 0.19033 0.0
C3530 C 0.77203 0.18821 0.1656 0.0
C3531 C 0.76457 0.17258 0.11263 0.0
C3532 C 0.76345 0.18281 0.13146 0.0
C3533 C 0.77047 0.21802 0.18547 0.0
C3534 C 0.76744 0.20557 0.16699 0.0
H3535 H 0.78358 0.1805 0.07277 0.0
H3536 H 0.77644 0.19726 0.10167 0.0
H3537 H 0.77457 0.16405 0.14717 0.0
H3538 H 0.80018 0.23184 0.22581 0.0
H3539 H 0.79592 0.21184 0.19483 0.0
C3540 C 0.12705 0.53371 0.28493 0.0
C3541 C 0.14206 0.52574 0.28512 0.0
C3542 C 0.11828 0.53567 0.30094 0.0
C3543 C 0.11086 0.51799 0.34565 0.0
H3544 H 0.093 0.56278 0.35674 0.0
C3545 C 0.08158 0.54347 0.41436 0.0
C3546 C 0.06676 0.55159 0.41164 0.0
C3547 C 0.08957 0.53694 0.39882 0.0
C3548 C 0.09771 0.55009 0.35366 0.0
H3549 H 0.15981 0.51376 0.30245 0.0
H3550 H 0.14442 0.51739 0.33086 0.0
H3551 H 0.11117 0.55964 0.33105 0.0
H3552 H 0.04753 0.55726 0.39037 0.0
H3553 H 0.06181 0.54633 0.36328 0.0
H3554 H 0.09762 0.50882 0.36887 0.0
C3555 C 0.13939 0.52189 0.31807 0.0
C3556 C 0.10816 0.5483 0.33899 0.0
C3557 C 0.14826 0.51992 0.30188 0.0
C3558 C 0.05927 0.55167 0.39298 0.0
C3559 C 0.06734 0.54528 0.37748 0.0
C3560 C 0.10051 0.5199 0.36059 0.0
C3561 C 0.1243 0.52982 0.31772 0.0
C3562 C 0.11461 0.53212 0.33456 0.0
C3563 C 0.08296 0.53857 0.38033 0.0
C3564 C 0.09363 0.53588 0.36448 0.0
H3565 H 0.12189 0.53838 0.27229 0.0
H3566 H 0.10655 0.54154 0.30005 0.0
H3567 H 0.11555 0.5053 0.34249 0.0
H3568 H 0.08771 0.54317 0.42853 0.0
H3569 H 0.10161 0.53183 0.40136 0.0
C3570 C 0.787 0.83036 0.58133 0.0
C3571 C 0.77793 0.84345 0.57514 0.0
C3572 C 0.78443 0.82428 0.59867 0.0
C3573 C 0.75654 0.82303 0.63828 0.0
H3574 H 0.80154 0.82386 0.66783 0.0
C3575 C 0.76403 0.81277 0.71849 0.0
C3576 C 0.77516 0.8007 0.72258 0.0
C3577 C 0.76298 0.81855 0.70057 0.0
C3578 C 0.78882 0.82342 0.65976 0.0
H3579 H 0.75796 0.85925 0.58174 0.0
H3580 H 0.75349 0.84859 0.61212 0.0
H3581 H 0.80128 0.83112 0.63579 0.0
H3582 H 0.7943 0.78571 0.7113 0.0
H3583 H 0.79231 0.79548 0.68053 0.0
H3584 H 0.74415 0.81518 0.6625 0.0
C3585 C 0.76261 0.84307 0.60349 0.0
C3586 C 0.78866 0.82752 0.64131 0.0
C3587 C 0.76515 0.84915 0.58604 0.0
C3588 C 0.7854 0.79485 0.70861 0.0
C3589 C 0.7844 0.8006 0.69094 0.0
C3590 C 0.75669 0.81886 0.65685 0.0
C3591 C 0.77278 0.83115 0.61036 0.0
C3592 C 0.77253 0.82709 0.63019 0.0
C3593 C 0.77326 0.81257 0.68665 0.0
C3594 C 0.77285 0.81871 0.66768 0.0
H3595 H 0.79678 0.82548 0.57322 0.0
H3596 H 0.79212 0.8147 0.60328 0.0
H3597 H 0.74389 0.82262 0.6301 0.0
H3598 H 0.75605 0.81753 0.72901 0.0
H3599 H 0.75434 0.82788 0.69772 0.0
C3600 C 0.72969 0.45049 0.47064 0.0
C3601 C 0.73359 0.43968 0.48442 0.0
C3602 C 0.71459 0.45809 0.47093 0.0
C3603 C 0.69222 0.47771 0.50612 0.0
H3604 H 0.64918 0.47046 0.47076 0.0
C3605 C 0.63582 0.51196 0.52605 0.0
C3606 C 0.62048 0.49839 0.52653 0.0
C3607 C 0.64932 0.50755 0.51586 0.0
C3608 C 0.66131 0.47281 0.48055 0.0
H3609 H 0.72379 0.42651 0.50777 0.0
H3610 H 0.69765 0.43998 0.50832 0.0
H3611 H 0.67336 0.45521 0.46184 0.0
H3612 H 0.60634 0.4702 0.51586 0.0
H3613 H 0.63002 0.4624 0.49792 0.0
H3614 H 0.68017 0.49459 0.52517 0.0
C3615 C 0.70634 0.44269 0.49751 0.0
C3616 C 0.675 0.46415 0.47547 0.0
C3617 C 0.72128 0.43502 0.49716 0.0
C3618 C 0.61824 0.48073 0.5158 0.0
C3619 C 0.63161 0.47639 0.50537 0.0
C3620 C 0.67872 0.48652 0.51108 0.0
C3621 C 0.7034 0.4549 0.48498 0.0
C3622 C 0.69018 0.46607 0.48855 0.0
C3623 C 0.64746 0.4896 0.50581 0.0
C3624 C 0.66293 0.48364 0.4986 0.0
H3625 H 0.73892 0.45418 0.46058 0.0
H3626 H 0.71238 0.46748 0.46115 0.0
H3627 H 0.70397 0.47936 0.51631 0.0
H3628 H 0.63767 0.5257 0.53423 0.0
H3629 H 0.6615 0.51789 0.51642 0.0
C3630 C 0.19562 0.1351 0.49527 0.0
C3631 C 0.20896 0.12479 0.49568 0.0
C3632 C 0.17781 0.12649 0.49561 0.0
C3633 C 0.1478 0.07961 0.48763 0.0
H3634 H 0.11657 0.10473 0.51571 0.0
C3635 C 0.08317 0.04453 0.51478 0.0
C3636 C 0.06761 0.04894 0.50658 0.0
C3637 C 0.09993 0.05415 0.51198 0.0
C3638 C 0.12518 0.09769 0.50771 0.0
H3639 H 0.21421 0.09756 0.49738 0.0
H3640 H 0.18351 0.08281 0.49868 0.0
H3641 H 0.14708 0.12113 0.5141 0.0
H3642 H 0.05755 0.0674 0.48945 0.0
H3643 H 0.08702 0.08476 0.48538 0.0
H3644 H 0.12606 0.0559 0.48216 0.0
C3645 C 0.18654 0.09734 0.4974 0.0
C3646 C 0.14258 0.10705 0.50668 0.0
C3647 C 0.20422 0.10586 0.49681 0.0
C3648 C 0.06924 0.0635 0.49583 0.0
C3649 C 0.08604 0.07347 0.4935 0.0
C3650 C 0.13055 0.0702 0.48898 0.0
C3651 C 0.17305 0.10746 0.49657 0.0
C3652 C 0.15419 0.09804 0.4968 0.0
C3653 C 0.10145 0.06876 0.50149 0.0
C3654 C 0.1192 0.07914 0.49912 0.0
H3655 H 0.1989 0.14972 0.49438 0.0
H3656 H 0.16776 0.13469 0.4948 0.0
H3657 H 0.15616 0.07236 0.47949 0.0
H3658 H 0.08252 0.03401 0.5238 0.0
H3659 H 0.11175 0.05051 0.51842 0.0
C3660 C 0.17884 0.99409 0.76892 0.0
C3661 C 0.16389 0.99185 0.77871 0.0
C3662 C 0.1883 0.97999 0.7666 0.0
C3663 C 0.19565 0.93916 0.78788 0.0
H3664 H 0.21666 0.9278 0.74176 0.0
C3665 C 0.22203 0.87304 0.76416 0.0
C3666 C 0.23713 0.87567 0.75455 0.0
C3667 C 0.21493 0.8882 0.77076 0.0
C3668 C 0.21108 0.93102 0.75485 0.0
H3669 H 0.14655 0.97341 0.7932 0.0
H3670 H 0.16252 0.94846 0.78846 0.0
H3671 H 0.19948 0.95175 0.74409 0.0
H3672 H 0.25771 0.89582 0.74577 0.0
H3673 H 0.24552 0.92237 0.75755 0.0
H3674 H 0.20685 0.91781 0.79826 0.0
C3675 C 0.16733 0.96112 0.78302 0.0
C3676 C 0.20124 0.94474 0.75617 0.0
C3677 C 0.15805 0.97524 0.78548 0.0
C3678 C 0.24603 0.89362 0.75317 0.0
C3679 C 0.239 0.90871 0.75977 0.0
C3680 C 0.20537 0.92526 0.78646 0.0
C3681 C 0.18283 0.9635 0.77399 0.0
C3682 C 0.1934 0.94897 0.77268 0.0
C3683 C 0.2229 0.90601 0.76768 0.0
C3684 C 0.21323 0.92116 0.76995 0.0
H3685 H 0.18366 0.00701 0.76393 0.0
H3686 H 0.20028 0.98231 0.75971 0.0
H3687 H 0.19002 0.9423 0.80094 0.0
H3688 H 0.21496 0.8592 0.76519 0.0
H3689 H 0.20247 0.88579 0.77681 0.0
C3690 C 0.3422 0.97753 0.01631 0.0
C3691 C 0.32929 0.96797 0.00134 0.0
C3692 C 0.36003 0.98084 0.01364 0.0
C3693 C 0.39222 0.98348 0.98058 0.0
H3694 H 0.41996 0.96829 0.02135 0.0
C3695 C 0.4641 0.01732 0.00478 0.0
C3696 C 0.47627 0.00652 0.00938 0.0
C3697 C 0.44611 0.0093 0.00054 0.0
C3698 C 0.41237 0.97217 0.00963 0.0
H3699 H 0.32416 0.95525 0.97171 0.0
H3700 H 0.35574 0.96155 0.9668 0.0
H3701 H 0.38757 0.96143 0.01915 0.0
H3702 H 0.4793 0.97912 0.01404 0.0
H3703 H 0.44752 0.9651 0.0068 0.0
H3704 H 0.4171 0.99478 0.97144 0.0
C3705 C 0.35201 0.96648 0.9805 0.0
C3706 C 0.39393 0.96845 0.00849 0.0
C3707 C 0.33406 0.96317 0.9832 0.0
C3708 C 0.47013 0.98774 0.01053 0.0
C3709 C 0.45205 0.97969 0.00625 0.0
C3710 C 0.4107 0.98718 0.98169 0.0
C3711 C 0.36505 0.97444 0.99602 0.0
C3712 C 0.38388 0.97496 0.99458 0.0
C3713 C 0.44001 0.99038 0.00086 0.0
C3714 C 0.42087 0.98238 0.9968 0.0
H3715 H 0.33864 0.98089 0.03049 0.0
H3716 H 0.36997 0.98736 0.02567 0.0
H3717 H 0.38458 0.98837 0.96963 0.0
H3718 H 0.46852 0.03189 0.00401 0.0
H3719 H 0.43695 0.01795 0.99707 0.0
C3720 C 0.84314 0.5681 0.82352 0.0
C3721 C 0.8414 0.55256 0.80941 0.0
C3722 C 0.83521 0.58263 0.81969 0.0
C3723 C 0.82909 0.60125 0.77709 0.0
H3724 H 0.80624 0.63681 0.80429 0.0
C3725 C 0.79677 0.64994 0.74022 0.0
C3726 C 0.80285 0.66893 0.74686 0.0
C3727 C 0.80147 0.63713 0.75091 0.0
C3728 C 0.81289 0.62706 0.7968 0.0
H3729 H 0.82766 0.53819 0.782 0.0
H3730 H 0.81324 0.56322 0.77562 0.0
H3731 H 0.81124 0.60973 0.81848 0.0
H3732 H 0.81837 0.68954 0.76999 0.0
H3733 H 0.82646 0.66677 0.78894 0.0
H3734 H 0.83055 0.61816 0.75534 0.0
C3735 C 0.82116 0.56453 0.78928 0.0
C3736 C 0.81558 0.61162 0.80478 0.0
C3737 C 0.82928 0.5502 0.79295 0.0
C3738 C 0.81343 0.67493 0.76463 0.0
C3739 C 0.81804 0.66202 0.77544 0.0
C3740 C 0.82642 0.61653 0.7692 0.0
C3741 C 0.82538 0.5814 0.80187 0.0
C3742 C 0.8231 0.59831 0.79458 0.0
C3743 C 0.81222 0.64308 0.76846 0.0
C3744 C 0.8178 0.62917 0.7787 0.0
H3745 H 0.85245 0.5701 0.83634 0.0
H3746 H 0.83849 0.5955 0.82964 0.0
H3747 H 0.83561 0.59153 0.76932 0.0
H3748 H 0.78826 0.64496 0.72682 0.0
H3749 H 0.79674 0.6225 0.74544 0.0
C3750 C 0.82097 0.64528 0.00229 0.0
C3751 C 0.80476 0.63771 0.00854 0.0
C3752 C 0.83537 0.63667 0.00393 0.0
C3753 C 0.8531 0.60352 0.02965 0.0
H3754 H 0.88152 0.59945 0.98791 0.0
C3755 C 0.90858 0.56333 0.03218 0.0
C3756 C 0.92504 0.57317 0.02859 0.0
C3757 C 0.89303 0.56932 0.02724 0.0
C3758 C 0.8737 0.60052 -0.00034 0.0
H3759 H 0.79102 0.6154 0.0217 0.0
H3760 H 0.81613 0.60035 0.02453 0.0
H3761 H 0.85626 0.61452 0.98518 0.0
H3762 H 0.93847 0.59608 0.01619 0.0
H3763 H 0.91122 0.60672 0.00751 0.0
H3764 H 0.87054 0.58971 0.04421 0.0
C3765 C 0.81777 0.61303 0.01852 0.0
C3766 C 0.85932 0.60922 -0.00184 0.0
C3767 C 0.80338 0.62164 0.01689 0.0
C3768 C 0.92579 0.58842 0.01909 0.0
C3769 C 0.91023 0.59438 0.01405 0.0
C3770 C 0.86739 0.5948 0.03112 0.0
C3771 C 0.83385 0.62033 0.01186 0.0
C3772 C 0.84895 0.6109 0.0132 0.0
C3773 C 0.89379 0.58523 0.01863 0.0
C3774 C 0.87789 0.59329 0.0162 0.0
H3775 H 0.82243 0.6576 0.99569 0.0
H3776 H 0.84769 0.64278 -0.00105 0.0
H3777 H 0.84555 0.60486 0.0416 0.0
H3778 H 0.90785 0.55145 0.03944 0.0
H3779 H 0.88049 0.56185 0.03066 0.0
C3780 C 0.16229 0.09253 0.77911 0.0
C3781 C 0.1687 0.08197 0.7919 0.0
C3782 C 0.17292 0.10924 0.7763 0.0
C3783 C 0.21252 0.14518 0.79917 0.0
H3784 H 0.21174 0.16026 0.74942 0.0
C3785 C 0.24419 0.21889 0.78862 0.0
C3786 C 0.25387 0.22097 0.77311 0.0
C3787 C 0.23447 0.20156 0.7906 0.0
C3788 C 0.21223 0.15613 0.76335 0.0
H3789 H 0.19147 0.0804 0.81134 0.0
H3790 H 0.2101 0.1091 0.80606 0.0
H3791 H 0.19333 0.13061 0.75319 0.0
H3792 H 0.26098 0.20673 0.74744 0.0
H3793 H 0.24378 0.17617 0.75084 0.0
H3794 H 0.23158 0.1705 0.80927 0.0
C3795 C 0.19671 0.10485 0.7986 0.0
C3796 C 0.20151 0.13926 0.76558 0.0
C3797 C 0.18603 0.08831 0.80157 0.0
C3798 C 0.25379 0.20538 0.75965 0.0
C3799 C 0.24381 0.18799 0.7615 0.0
C3800 C 0.22322 0.16197 0.79693 0.0
C3801 C 0.19025 0.11563 0.78607 0.0
C3802 C 0.20153 0.13358 0.78353 0.0
C3803 C 0.23402 0.18594 0.77699 0.0
C3804 C 0.22316 0.16768 0.77903 0.0
H3805 H 0.14895 0.08807 0.77152 0.0
H3806 H 0.16742 0.11729 0.76675 0.0
H3807 H 0.2127 0.14143 0.81326 0.0
H3808 H 0.24403 0.23075 0.79917 0.0
H3809 H 0.22692 0.2005 0.80258 0.0
C3810 C 0.34258 0.96734 0.2966 0.0
C3811 C 0.35817 0.97461 0.28926 0.0
C3812 C 0.33424 0.94882 0.29105 0.0
C3813 C 0.33282 0.90648 0.25655 0.0
H3814 H 0.31378 0.88321 0.29772 0.0
C3815 C 0.31133 0.82778 0.26207 0.0
C3816 C 0.29409 0.82277 0.26722 0.0
C3817 C 0.31855 0.84614 0.26076 0.0
C3818 C 0.31894 0.88961 0.28609 0.0
H3819 H 0.37714 0.96879 0.27001 0.0
H3820 H 0.36312 0.93586 0.26112 0.0
H3821 H 0.32833 0.91574 0.30381 0.0
H3822 H 0.27054 0.83269 0.27414 0.0
H3823 H 0.28351 0.86499 0.27257 0.0
H3824 H 0.32395 0.87966 0.23917 0.0
C3825 C 0.35703 0.94456 0.27072 0.0
C3826 C 0.32717 0.90823 0.2895 0.0
C3827 C 0.36512 0.9633 0.27589 0.0
C3828 C 0.28388 0.83622 0.27022 0.0
C3829 C 0.29121 0.8546 0.26921 0.0
C3830 C 0.3248 0.88762 0.25323 0.0
C3831 C 0.34168 0.93708 0.27855 0.0
C3832 C 0.33384 0.917 0.27471 0.0
C3833 C 0.30871 0.85968 0.26495 0.0
C3834 C 0.31753 0.87928 0.26794 0.0
H3835 H 0.3368 0.97602 0.30656 0.0
H3836 H 0.32207 0.94364 0.29681 0.0
H3837 H 0.33786 0.91285 0.24488 0.0
H3838 H 0.31961 0.81775 0.26002 0.0
H3839 H 0.33218 0.84994 0.25774 0.0
C3840 C 0.55849 0.34863 0.5796 0.0
C3841 C 0.54695 0.33188 0.57075 0.0
C3842 C 0.55791 0.3654 0.57279 0.0
C3843 C 0.52676 0.3864 0.54321 0.0
H3844 H 0.56744 0.42741 0.54818 0.0
C3845 C 0.52132 0.45397 0.51287 0.0
C3846 C 0.53109 0.47105 0.5231 0.0
C3847 C 0.52389 0.43708 0.51803 0.0
C3848 C 0.55584 0.41621 0.54684 0.0
H3849 H 0.52657 0.31975 0.54692 0.0
H3850 H 0.52608 0.34848 0.53471 0.0
H3851 H 0.57138 0.39824 0.55779 0.0
H3852 H 0.55116 0.48339 0.54707 0.0
H3853 H 0.55579 0.45423 0.556 0.0
H3854 H 0.51119 0.40433 0.53239 0.0
C3855 C 0.53519 0.34895 0.54733 0.0
C3856 C 0.55813 0.39935 0.55238 0.0
C3857 C 0.53566 0.3323 0.5542 0.0
C3858 C 0.54363 0.47062 0.53858 0.0
C3859 C 0.54626 0.45376 0.54373 0.0
C3860 C 0.52449 0.40322 0.53766 0.0
C3861 C 0.54583 0.36596 0.55685 0.0
C3862 C 0.54363 0.38408 0.55066 0.0
C3863 C 0.53639 0.43663 0.53361 0.0
C3864 C 0.53896 0.41848 0.53938 0.0
H3865 H 0.56715 0.34902 0.59254 0.0
H3866 H 0.56633 0.37807 0.58066 0.0
H3867 H 0.51509 0.37531 0.54199 0.0
H3868 H 0.51183 0.45357 0.50067 0.0
H3869 H 0.51619 0.42433 0.50957 0.0
C3870 C 0.44746 0.77779 0.38953 0.0
C3871 C 0.45136 0.76064 0.39201 0.0
C3872 C 0.43131 0.77858 0.37921 0.0
C3873 C 0.39848 0.75315 0.33992 0.0
H3874 H 0.36592 0.78173 0.36046 0.0
C3875 C 0.33004 0.75094 0.29753 0.0
C3876 C 0.32308 0.76693 0.29978 0.0
C3877 C 0.34537 0.74996 0.30919 0.0
C3878 C 0.37495 0.77392 0.35428 0.0
H3879 H 0.44172 0.73093 0.38551 0.0
H3880 H 0.41385 0.73228 0.36677 0.0
H3881 H 0.39334 0.78097 0.38 0.0
H3882 H 0.32672 0.79461 0.31539 0.0
H3883 H 0.35371 0.7933 0.33534 0.0
H3884 H 0.3807 0.74663 0.31396 0.0
C3885 C 0.42303 0.74509 0.37319 0.0
C3886 C 0.39064 0.77342 0.3656 0.0
C3887 C 0.43888 0.74432 0.38402 0.0
C3888 C 0.33173 0.78201 0.31367 0.0
C3889 C 0.34717 0.78116 0.32516 0.0
C3890 C 0.38299 0.75393 0.32845 0.0
C3891 C 0.41909 0.76222 0.37062 0.0
C3892 C 0.40252 0.76295 0.35858 0.0
C3893 C 0.35427 0.7651 0.32317 0.0
C3894 C 0.37089 0.76427 0.33545 0.0
H3895 H 0.45693 0.79054 0.3955 0.0
H3896 H 0.42862 0.79196 0.37742 0.0
H3897 H 0.40751 0.74512 0.33406 0.0
H3898 H 0.32355 0.73916 0.28684 0.0
H3899 H 0.3501 0.73722 0.30732 0.0
C3900 C 0.02445 0.72118 0.0842 0.0
C3901 C 0.03657 0.73557 0.07862 0.0
C3902 C 0.0246 0.70254 0.07801 0.0
C3903 C 0.03827 0.67076 0.04001 0.0
H3904 H 0.03092 0.63622 0.07569 0.0
C3905 C 0.03864 0.59197 0.0185 0.0
C3906 C 0.02759 0.57893 0.02712 0.0
C3907 C 0.04083 0.61118 0.02464 0.0
C3908 C 0.0327 0.64549 0.06533 0.0
H3909 H 0.05828 0.74157 0.06182 0.0
H3910 H 0.05833 0.70886 0.05053 0.0
H3911 H 0.03272 0.66894 0.08638 0.0
H3912 H 0.00987 0.57647 0.04888 0.0
H3913 H 0.01294 0.60936 0.05882 0.0
H3914 H 0.03787 0.64724 0.01883 0.0
C3915 C 0.04878 0.71204 0.05993 0.0
C3916 C 0.03382 0.66443 0.07157 0.0
C3917 C 0.04885 0.73081 0.06649 0.0
C3918 C 0.01859 0.58584 0.04184 0.0
C3919 C 0.02055 0.60495 0.04777 0.0
C3920 C 0.03698 0.65172 0.0337 0.0
C3921 C 0.03669 0.69757 0.06569 0.0
C3922 C 0.03646 0.67741 0.05901 0.0
C3923 C 0.03183 0.61807 0.03944 0.0
C3924 C 0.03398 0.63866 0.0462 0.0
H3925 H 0.0148 0.72438 0.0935 0.0
H3926 H 0.01495 0.69196 0.08264 0.0
H3927 H 0.04016 0.68021 0.02982 0.0
H3928 H 0.04558 0.58742 0.00695 0.0
H3929 H 0.04977 0.6206 0.01784 0.0
C3930 C 0.0489 0.24685 0.86702 0.0
C3931 C 0.04722 0.25537 0.8854 0.0
C3932 C 0.06533 0.24969 0.85987 0.0
C3933 C 0.10905 0.28256 0.8663 0.0
H3934 H 0.12282 0.24314 0.83369 0.0
C3935 C 0.17646 0.29559 0.83721 0.0
C3936 C 0.17651 0.28904 0.81784 0.0
C3937 C 0.16183 0.28938 0.84655 0.0
C3938 C 0.11913 0.25434 0.84266 0.0
H3939 H 0.06173 0.27343 0.91076 0.0
H3940 H 0.0905 0.2783 0.89835 0.0
H3941 H 0.09522 0.23669 0.84812 0.0
H3942 H 0.16167 0.2702 0.79323 0.0
H3943 H 0.13584 0.25938 0.80948 0.0
H3944 H 0.13271 0.30029 0.86067 0.0
C3945 C 0.07899 0.26955 0.88936 0.0
C3946 C 0.10328 0.25065 0.85095 0.0
C3947 C 0.06251 0.26669 0.89653 0.0
C3948 C 0.16202 0.27533 0.80823 0.0
C3949 C 0.14724 0.26918 0.81756 0.0
C3950 C 0.12486 0.28624 0.85803 0.0
C3951 C 0.08061 0.26115 0.87087 0.0
C3952 C 0.09795 0.26475 0.86279 0.0
C3953 C 0.14671 0.27661 0.8367 0.0
C3954 C 0.13012 0.27222 0.84603 0.0
H3955 H 0.03744 0.23806 0.85798 0.0
H3956 H 0.06592 0.24321 0.8455 0.0
H3957 H 0.10528 0.29386 0.87501 0.0
H3958 H 0.18751 0.30612 0.84495 0.0
H3959 H 0.16217 0.29505 0.86139 0.0
C3960 C 0.54216 0.73524 0.87945 0.0
C3961 C 0.53639 0.75109 0.88706 0.0
C3962 C 0.54299 0.72096 0.89023 0.0
C3963 C 0.52144 0.70291 0.93009 0.0
H3964 H 0.5537 0.66926 0.92756 0.0
C3965 C 0.51485 0.64618 0.97639 0.0
C3966 C 0.51404 0.62821 0.96697 0.0
C3967 C 0.52127 0.66159 0.96794 0.0
C3968 C 0.54457 0.67854 0.92836 0.0
H3969 H 0.52845 0.76516 0.91232 0.0
H3970 H 0.53073 0.74097 0.93132 0.0
H3971 H 0.5585 0.69579 0.9104 0.0
H3972 H 0.51993 0.6122 0.9417 0.0
H3973 H 0.53137 0.63923 0.92686 0.0
H3974 H 0.5074 0.68579 0.94777 0.0
C3975 C 0.53399 0.73905 0.91687 0.0
C3976 C 0.5473 0.69372 0.9185 0.0
C3977 C 0.53292 0.75308 0.90608 0.0
C3978 C 0.52078 0.62596 0.94942 0.0
C3979 C 0.52725 0.64143 0.94091 0.0
C3980 C 0.51881 0.68792 0.93996 0.0
C3981 C 0.53816 0.72239 0.90885 0.0
C3982 C 0.5358 0.7062 0.91934 0.0
C3983 C 0.52687 0.6594 0.94974 0.0
C3984 C 0.53035 0.67556 0.93935 0.0
H3985 H 0.54466 0.73323 0.86473 0.0
H3986 H 0.54627 0.70837 0.88354 0.0
H3987 H 0.5119 0.71175 0.93062 0.0
H3988 H 0.50948 0.64824 0.9898 0.0
H3989 H 0.52106 0.67522 0.9753 0.0
C3990 C 0.08082 0.76808 0.73829 0.0
C3991 C 0.07206 0.76173 0.71964 0.0
C3992 C 0.09901 0.7684 0.74276 0.0
C3993 C 0.13704 0.74944 0.72497 0.0
H3994 H 0.16545 0.78905 0.76309 0.0
C3995 C 0.2101 0.74924 0.75474 0.0
C3996 C 0.22263 0.76615 0.75822 0.0
C3997 C 0.19184 0.74858 0.75007 0.0
C3998 C 0.15781 0.77793 0.75231 0.0
H3999 H 0.07595 0.75067 0.69108 0.0
H4000 H 0.10772 0.75145 0.69876 0.0
H4001 H 0.13405 0.78836 0.75438 0.0
H4002 H 0.22579 0.79572 0.75934 0.0
H4003 H 0.19402 0.79475 0.75149 0.0
H4004 H 0.161 0.73926 0.72267 0.0
C4005 C 0.10042 0.75597 0.71008 0.0
C4006 C 0.13961 0.77738 0.74744 0.0
C4007 C 0.08214 0.75561 0.7056 0.0
C4008 C 0.21645 0.78246 0.75691 0.0
C4009 C 0.19817 0.78187 0.75249 0.0
C4010 C 0.15526 0.74997 0.72988 0.0
C4011 C 0.10921 0.76246 0.72875 0.0
C4012 C 0.12885 0.76311 0.7337 0.0
C4013 C 0.18553 0.76489 0.74885 0.0
C4014 C 0.16598 0.76423 0.74364 0.0
H4015 H 0.07361 0.77282 0.74959 0.0
H4016 H 0.10499 0.77314 0.75737 0.0
H4017 H 0.12934 0.7381 0.71448 0.0
H4018 H 0.21444 0.73645 0.75498 0.0
H4019 H 0.18265 0.73523 0.74748 0.0
C4020 C 0.03521 0.34178 0.40655 0.0
C4021 C 0.03238 0.33974 0.3866 0.0
C4022 C 0.03676 0.35908 0.41786 0.0
C4023 C 0.02203 0.40294 0.41746 0.0
H4024 H 0.05624 0.42049 0.46283 0.0
C4025 C 0.01518 0.46196 0.47686 0.0
C4026 C 0.03064 0.47554 0.48403 0.0
C4027 C 0.01609 0.44603 0.46436 0.0
C4028 C 0.04665 0.41586 0.45016 0.0
H4029 H 0.02877 0.35419 0.36283 0.0
H4030 H 0.03121 0.38448 0.38258 0.0
H4031 H 0.0574 0.39197 0.44198 0.0
H4032 H 0.05917 0.48316 0.48396 0.0
H4033 H 0.06095 0.45494 0.46271 0.0
H4034 H 0.01109 0.42666 0.42583 0.0
C4035 C 0.03254 0.37273 0.38949 0.0
C4036 C 0.04725 0.39943 0.43826 0.0
C4037 C 0.03139 0.35546 0.37816 0.0
C4038 C 0.04707 0.47284 0.47863 0.0
C4039 C 0.04806 0.45667 0.46653 0.0
C4040 C 0.02127 0.41923 0.42952 0.0
C4041 C 0.03502 0.37472 0.40952 0.0
C4042 C 0.03493 0.39271 0.42175 0.0
C4043 C 0.03256 0.44309 0.45911 0.0
C4044 C 0.03356 0.4259 0.44606 0.0
H4045 H 0.03568 0.32982 0.41343 0.0
H4046 H 0.0385 0.36001 0.43319 0.0
H4047 H 0.01221 0.39812 0.405 0.0
H4048 H 0.00232 0.46384 0.48065 0.0
H4049 H 0.00391 0.43585 0.45902 0.0
C4050 C 0.45884 0.24023 0.22406 0.0
C4051 C 0.46402 0.24792 0.208 0.0
C4052 C 0.44249 0.2419 0.23082 0.0
C4053 C 0.40831 0.27119 0.22935 0.0
H4054 H 0.37796 0.23102 0.24747 0.0
C4055 C 0.34425 0.28203 0.26228 0.0
C4056 C 0.32908 0.26741 0.25917 0.0
C4057 C 0.36079 0.27933 0.25711 0.0
C4058 C 0.38615 0.24241 0.24235 0.0
H4059 H 0.45574 0.26349 0.18663 0.0
H4060 H 0.42774 0.26644 0.19831 0.0
H4061 H 0.40612 0.22676 0.23643 0.0
H4062 H 0.31984 0.23823 0.24793 0.0
H4063 H 0.34841 0.23352 0.23849 0.0
H4064 H 0.38836 0.28676 0.2348 0.0
C4065 C 0.43618 0.25909 0.20578 0.0
C4066 C 0.40251 0.24 0.2362 0.0
C4067 C 0.45229 0.25719 0.19891 0.0
C4068 C 0.33114 0.24986 0.25077 0.0
C4069 C 0.34768 0.24715 0.24539 0.0
C4070 C 0.39204 0.27362 0.23554 0.0
C4071 C 0.431 0.25163 0.22194 0.0
C4072 C 0.41382 0.2543 0.22941 0.0
C4073 C 0.36284 0.26188 0.24836 0.0
C4074 C 0.38054 0.25926 0.24207 0.0
H4075 H 0.46752 0.23312 0.23155 0.0
H4076 H 0.43909 0.23602 0.24334 0.0
H4077 H 0.41664 0.28268 0.22452 0.0
H4078 H 0.34346 0.29566 0.26881 0.0
H4079 H 0.37203 0.29104 0.26015 0.0
C4080 C 0.58969 0.54459 0.3305 0.0
C4081 C 0.60577 0.53886 0.32846 0.0
C4082 C 0.58169 0.54294 0.34715 0.0
C4083 C 0.57986 0.51504 0.38552 0.0
H4084 H 0.56033 0.55349 0.41259 0.0
C4085 C 0.557 0.51201 0.4601 0.0
C4086 C 0.54136 0.51825 0.46315 0.0
C4087 C 0.56454 0.51407 0.44326 0.0
C4088 C 0.56555 0.54253 0.40505 0.0
H4089 H 0.62635 0.52761 0.34263 0.0
H4090 H 0.61264 0.5251 0.37142 0.0
H4091 H 0.57392 0.55885 0.38382 0.0
H4092 H 0.52123 0.53133 0.45088 0.0
H4093 H 0.53408 0.53443 0.4216 0.0
H4094 H 0.57145 0.49868 0.40667 0.0
C4095 C 0.60608 0.53059 0.36014 0.0
C4096 C 0.5733 0.54563 0.38861 0.0
C4097 C 0.61405 0.53229 0.34367 0.0
C4098 C 0.53324 0.52623 0.44895 0.0
C4099 C 0.5407 0.52823 0.43222 0.0
C4100 C 0.57205 0.51192 0.40192 0.0
C4101 C 0.58962 0.53543 0.36187 0.0
C4102 C 0.58066 0.53197 0.3788 0.0
C4103 C 0.55656 0.52245 0.4293 0.0
C4104 C 0.56487 0.52566 0.41189 0.0
H4105 H 0.58295 0.5496 0.31898 0.0
H4106 H 0.56897 0.54679 0.34817 0.0
H4107 H 0.5852 0.50415 0.37802 0.0
H4108 H 0.56354 0.50585 0.47082 0.0
H4109 H 0.57685 0.50957 0.44141 0.0
C4110 C 0.30424 0.89508 0.06098 0.0
C4111 C 0.29438 0.88841 0.04311 0.0
C4112 C 0.30033 0.88622 0.07628 0.0
C4113 C 0.26658 0.85067 0.09258 0.0
H4114 H 0.30707 0.85186 0.12953 0.0
C4115 C 0.28457 0.80106 0.14248 0.0
C4116 C 0.29278 0.80984 0.16067 0.0
C4117 C 0.27687 0.81106 0.13025 0.0
C4118 C 0.29558 0.85177 0.11952 0.0
H4119 H 0.27285 0.8674 0.0267 0.0
H4120 H 0.267 0.85045 0.05334 0.0
H4121 H 0.31167 0.86719 0.10242 0.0
H4122 H 0.29755 0.83511 0.18129 0.0
H4123 H 0.28461 0.85267 0.15962 0.0
H4124 H 0.251 0.83327 0.10927 0.0
C4125 C 0.27723 0.86307 0.05575 0.0
C4126 C 0.29817 0.86059 0.10395 0.0
C4127 C 0.28072 0.87249 0.04047 0.0
C4128 C 0.29136 0.82804 0.16727 0.0
C4129 C 0.28376 0.83803 0.15502 0.0
C4130 C 0.26409 0.84122 0.10802 0.0
C4131 C 0.28696 0.86996 0.07387 0.0
C4132 C 0.28374 0.86026 0.09029 0.0
C4133 C 0.2776 0.82992 0.13608 0.0
C4134 C 0.27864 0.84184 0.12153 0.0
H4135 H 0.31448 0.90772 0.06332 0.0
H4136 H 0.30768 0.89239 0.09008 0.0
H4137 H 0.25514 0.85032 0.08243 0.0
H4138 H 0.28517 0.78689 0.13731 0.0
H4139 H 0.27232 0.80468 0.11559 0.0
C4140 C 0.93083 0.50604 0.81819 0.0
C4141 C 0.9258 0.52317 0.82005 0.0
C4142 C 0.9386 0.50032 0.83425 0.0
C4143 C 0.93906 0.50776 0.88579 0.0
H4144 H 0.98688 0.49875 0.8904 0.0
C4145 C 0.98505 0.52835 0.95526 0.0
C4146 C 0.99717 0.51754 0.95998 0.0
C4147 C 0.97438 0.52383 0.93777 0.0
C4148 C 0.97333 0.50074 0.88927 0.0
H4149 H 0.92567 0.54816 0.83943 0.0
H4150 H 0.93934 0.5384 0.8671 0.0
H4151 H 0.97188 0.49978 0.85904 0.0
H4152 H 0.00742 0.49327 0.95052 0.0
H4153 H 0.98864 0.48532 0.9198 0.0
H4154 H 0.94071 0.50962 0.91602 0.0
C4155 C 0.93707 0.52922 0.85355 0.0
C4156 C 0.96478 0.50131 0.87133 0.0
C4157 C 0.9295 0.5349 0.83769 0.0
C4158 C 0.99836 0.50201 0.94703 0.0
C4159 C 0.98758 0.4974 0.92954 0.0
C4160 C 0.94753 0.5071 0.90366 0.0
C4161 C 0.94114 0.51168 0.85213 0.0
C4162 C 0.948 0.50579 0.86965 0.0
C4163 C 0.97554 0.50832 0.92472 0.0
C4164 C 0.9651 0.50457 0.90566 0.0
H4165 H 0.92774 0.49667 0.80475 0.0
H4166 H 0.94184 0.48679 0.83291 0.0
H4167 H 0.92596 0.51098 0.88473 0.0
H4168 H 0.98393 0.54042 0.96502 0.0
H4169 H 0.96552 0.53277 0.93429 0.0
C4170 C 0.26442 0.20657 0.55901 0.0
C4171 C 0.27823 0.19758 0.55483 0.0
C4172 C 0.26329 0.21411 0.57786 0.0
C4173 C 0.29036 0.22643 0.62631 0.0
H4174 H 0.24478 0.22961 0.6436 0.0
C4175 C 0.2804 0.23808 0.70558 0.0
C4176 C 0.27282 0.25315 0.71176 0.0
C4177 C 0.28048 0.23202 0.68622 0.0
C4178 C 0.25759 0.22889 0.63889 0.0
H4179 H 0.30113 0.18858 0.56688 0.0
H4180 H 0.29855 0.2004 0.59965 0.0
H4181 H 0.24592 0.21722 0.61037 0.0
H4182 H 0.25904 0.2734 0.70204 0.0
H4183 H 0.25822 0.26203 0.6681 0.0
H4184 H 0.30182 0.23726 0.65514 0.0
C4185 C 0.28911 0.20274 0.58857 0.0
C4186 C 0.25832 0.22188 0.61979 0.0
C4187 C 0.29053 0.19575 0.56976 0.0
C4188 C 0.26478 0.26162 0.69792 0.0
C4189 C 0.26439 0.25519 0.67845 0.0
C4190 C 0.28956 0.23301 0.64542 0.0
C4191 C 0.27566 0.21234 0.59298 0.0
C4192 C 0.27473 0.2204 0.61321 0.0
C4193 C 0.27251 0.24051 0.67245 0.0
C4194 C 0.27319 0.23423 0.65193 0.0
H4195 H 0.2548 0.20817 0.54767 0.0
H4196 H 0.25288 0.22157 0.58046 0.0
H4197 H 0.30335 0.22617 0.6219 0.0
H4198 H 0.28638 0.23092 0.71571 0.0
H4199 H 0.28669 0.22056 0.68199 0.0
C4200 C 0.57602 0.51495 0.21515 0.0
C4201 C 0.59403 0.52297 0.22168 0.0
C4202 C 0.56876 0.51596 0.1968 0.0
C4203 C 0.57632 0.54282 0.15749 0.0
H4204 H 0.54167 0.50125 0.12792 0.0
C4205 C 0.55402 0.53609 0.07705 0.0
C4206 C 0.53571 0.53013 0.07084 0.0
C4207 C 0.56055 0.53646 0.09598 0.0
C4208 C 0.55116 0.51303 0.13614 0.0
H4209 H 0.61865 0.53804 0.21389 0.0
H4210 H 0.60606 0.53953 0.1817 0.0
H4211 H 0.5549 0.49862 0.15951 0.0
H4212 H 0.50975 0.52028 0.07927 0.0
H4213 H 0.52128 0.52041 0.11255 0.0
H4214 H 0.57286 0.557 0.1338 0.0
C4215 C 0.59745 0.53275 0.19092 0.0
C4216 C 0.55876 0.51155 0.15422 0.0
C4217 C 0.60471 0.53179 0.20933 0.0
C4218 C 0.52392 0.52498 0.08388 0.0
C4219 C 0.53051 0.52495 0.10278 0.0
C4220 C 0.56884 0.54423 0.13934 0.0
C4221 C 0.57935 0.52496 0.18448 0.0
C4222 C 0.57143 0.52643 0.16513 0.0
C4223 C 0.54892 0.53051 0.10892 0.0
C4224 C 0.55619 0.52936 0.12851 0.0
H4225 H 0.5674 0.50806 0.2243 0.0
H4226 H 0.55473 0.51001 0.19243 0.0
H4227 H 0.58579 0.55466 0.16562 0.0
H4228 H 0.5633 0.54024 0.06718 0.0
H4229 H 0.57479 0.54075 0.10032 0.0
C4230 C 0.27497 0.89035 0.9501 0.0
C4231 C 0.29268 0.90044 0.95454 0.0
C4232 C 0.26947 0.87877 0.93263 0.0
C4233 C 0.2807 0.86847 0.88423 0.0
H4234 H 0.26189 0.81704 0.88817 0.0
C4235 C 0.28662 0.80274 0.83413 0.0
C4236 C 0.27234 0.79894 0.81949 0.0
C4237 C 0.28605 0.81437 0.85095 0.0
C4238 C 0.2669 0.8314 0.88695 0.0
H4239 H 0.31817 0.90743 0.94397 0.0
H4240 H 0.30844 0.8874 0.91318 0.0
H4241 H 0.26611 0.84096 0.91642 0.0
H4242 H 0.24592 0.8031 0.81107 0.0
H4243 H 0.24489 0.82346 0.84083 0.0
H4244 H 0.28199 0.85873 0.85487 0.0
C4245 C 0.29891 0.88829 0.92329 0.0
C4246 C 0.26921 0.84504 0.90296 0.0
C4247 C 0.30452 0.89959 0.9409 0.0
C4248 C 0.25712 0.80607 0.8222 0.0
C4249 C 0.25648 0.81755 0.8391 0.0
C4250 C 0.27824 0.85487 0.86823 0.0
C4251 C 0.28149 0.87744 0.91924 0.0
C4252 C 0.27653 0.86361 0.90179 0.0
C4253 C 0.2711 0.82204 0.85331 0.0
C4254 C 0.27168 0.83629 0.86966 0.0
H4255 H 0.26559 0.89081 0.96043 0.0
H4256 H 0.25595 0.87057 0.92973 0.0
H4257 H 0.28627 0.88272 0.88303 0.0
H4258 H 0.29855 0.79749 0.83218 0.0
H4259 H 0.29751 0.81798 0.8618 0.0
C4260 C 0.88956 0.49977 0.72028 0.0
C4261 C 0.89213 0.5152 0.7346 0.0
C4262 C 0.90408 0.49473 0.71251 0.0
C4263 C 0.94647 0.52013 0.70254 0.0
H4264 H 0.94614 0.47284 0.67215 0.0
C4265 C 0.99379 0.5062 0.64575 0.0
C4266 C 0.985 0.49597 0.6283 0.0
C4267 C 0.98425 0.50924 0.66109 0.0
C4268 C 0.94635 0.48612 0.68059 0.0
H4269 H 0.91171 0.53631 0.7536 0.0
H4270 H 0.93736 0.52724 0.74031 0.0
H4271 H 0.92836 0.47395 0.69859 0.0
H4272 H 0.95946 0.48173 0.61264 0.0
H4273 H 0.94271 0.48677 0.63969 0.0
H4274 H 0.96448 0.5322 0.68435 0.0
C4275 C 0.9241 0.5192 0.73484 0.0
C4276 C 0.93628 0.48677 0.69576 0.0
C4277 C 0.90948 0.52424 0.74264 0.0
C4278 C 0.96644 0.48968 0.62601 0.0
C4279 C 0.95694 0.49242 0.64145 0.0
C4280 C 0.9568 0.51943 0.68755 0.0
C4281 C 0.92144 0.50519 0.71885 0.0
C4282 C 0.93563 0.50386 0.70642 0.0
C4283 C 0.96589 0.50173 0.65923 0.0
C4284 C 0.95628 0.50249 0.67607 0.0
H4285 H 0.87624 0.49254 0.71399 0.0
H4286 H 0.90142 0.48387 0.70025 0.0
H4287 H 0.94613 0.53358 0.71023 0.0
H4288 H 0.00813 0.51119 0.6477 0.0
H4289 H 0.99136 0.51655 0.67466 0.0
C4290 C 0.25847 0.19461 0.44292 0.0
C4291 C 0.26919 0.20481 0.45943 0.0
C4292 C 0.25926 0.20114 0.42556 0.0
C4293 C 0.29059 0.23286 0.40237 0.0
H4294 H 0.25145 0.22189 0.3615 0.0
C4295 C 0.27631 0.26388 0.33214 0.0
C4296 C 0.28415 0.25525 0.31738 0.0
C4297 C 0.27519 0.25705 0.34921 0.0
C4298 C 0.2625 0.2248 0.37278 0.0
H4299 H 0.28771 0.23059 0.47121 0.0
H4300 H 0.28824 0.24261 0.44118 0.0
H4301 H 0.24621 0.21291 0.39241 0.0
H4302 H 0.2971 0.2327 0.30912 0.0
H4303 H 0.29507 0.22061 0.33943 0.0
H4304 H 0.30664 0.24529 0.38264 0.0
C4305 C 0.2799 0.22914 0.44137 0.0
C4306 C 0.25954 0.21971 0.39049 0.0
C4307 C 0.27939 0.22243 0.45865 0.0
C4308 C 0.29106 0.23965 0.32024 0.0
C4309 C 0.28993 0.23279 0.3375 0.0
C4310 C 0.29352 0.23793 0.38464 0.0
C4311 C 0.27054 0.21818 0.42443 0.0
C4312 C 0.27352 0.22382 0.40559 0.0
C4313 C 0.28182 0.2414 0.35196 0.0
C4314 C 0.27946 0.23399 0.36979 0.0
H4315 H 0.25068 0.18084 0.44303 0.0
H4316 H 0.25192 0.19223 0.41287 0.0
H4317 H 0.30178 0.23593 0.4135 0.0
H4318 H 0.27066 0.27579 0.33043 0.0
H4319 H 0.26892 0.26386 0.36024 0.0
C4320 C 0.31191 0.57957 0.55463 0.0
C4321 C 0.31206 0.59829 0.55389 0.0
C4322 C 0.32792 0.57362 0.55554 0.0
C4323 C 0.36133 0.58618 0.52888 0.0
H4324 H 0.38686 0.55135 0.54777 0.0
C4325 C 0.41958 0.56727 0.49362 0.0
C4326 C 0.42033 0.54853 0.49064 0.0
C4327 C 0.40763 0.57332 0.50508 0.0
C4328 C 0.37972 0.56102 0.54236 0.0
H4329 H 0.32871 0.62593 0.55804 0.0
H4330 H 0.35657 0.61551 0.55949 0.0
H4331 H 0.36458 0.56251 0.56611 0.0
H4332 H 0.40903 0.5213 0.49692 0.0
H4333 H 0.3879 0.53192 0.51682 0.0
H4334 H 0.3754 0.58414 0.50475 0.0
C4335 C 0.34422 0.60543 0.55899 0.0
C4336 C 0.3672 0.56746 0.5529 0.0
C4337 C 0.32826 0.61136 0.55788 0.0
C4338 C 0.40879 0.53588 0.49914 0.0
C4339 C 0.39681 0.54194 0.51061 0.0
C4340 C 0.37356 0.57964 0.51833 0.0
C4341 C 0.34397 0.58644 0.55588 0.0
C4342 C 0.35818 0.58029 0.54629 0.0
C4343 C 0.39615 0.56072 0.51365 0.0
C4344 C 0.38301 0.56718 0.52503 0.0
H4345 H 0.29952 0.56926 0.55194 0.0
H4346 H 0.32751 0.55888 0.55322 0.0
H4347 H 0.35393 0.59551 0.52316 0.0
H4348 H 0.42857 0.57733 0.48754 0.0
H4349 H 0.40751 0.58793 0.5074 0.0
C4350 C 0.84667 0.90697 0.53396 0.0
C4351 C 0.83177 0.91297 0.52639 0.0
C4352 C 0.86391 0.91706 0.5335 0.0
C4353 C 0.88788 0.96429 0.53014 0.0
H4354 H 0.9274 0.94069 0.52112 0.0
C4355 C 0.95654 0.00315 0.51563 0.0
C4356 C 0.97164 0.99955 0.52576 0.0
C4357 C 0.93956 0.9928 0.5166 0.0
C4358 C 0.91649 0.94742 0.52385 0.0
H4359 H 0.82328 0.93392 0.5118 0.0
H4360 H 0.85334 0.95135 0.51072 0.0
H4361 H 0.89747 0.92164 0.51984 0.0
H4362 H 0.98067 0.98216 0.54484 0.0
H4363 H 0.95094 0.96377 0.54611 0.0
H4364 H 0.9069 0.99008 0.53375 0.0
C4365 C 0.85171 0.93902 0.51732 0.0
C4366 C 0.89937 0.93654 0.52312 0.0
C4367 C 0.83448 0.92893 0.51777 0.0
C4368 C 0.96933 0.98535 0.53692 0.0
C4369 C 0.95234 0.97477 0.5376 0.0
C4370 C 0.90495 0.97515 0.53069 0.0
C4371 C 0.86662 0.9334 0.52548 0.0
C4372 C 0.88485 0.94486 0.52619 0.0
C4373 C 0.93733 0.97837 0.52739 0.0
C4374 C 0.91939 0.96682 0.5275 0.0
H4375 H 0.84505 0.8948 0.54079 0.0
H4376 H 0.87508 0.91241 0.54004 0.0
H4377 H 0.87708 0.97114 0.533 0.0
H4378 H 0.95783 0.01363 0.5065 0.0
H4379 H 0.9282 0.99568 0.5084 0.0
C4380 C 0.86811 0.05283 0.24668 0.0
C4381 C 0.88649 0.05672 0.25277 0.0
C4382 C 0.85931 0.06734 0.24505 0.0
C4383 C 0.86254 0.11204 0.2714 0.0
H4384 H 0.83061 0.1233 0.23161 0.0
C4385 C 0.84012 0.17906 0.28327 0.0
C4386 C 0.82163 0.17733 0.28253 0.0
C4387 C 0.84708 0.16465 0.27466 0.0
C4388 C 0.83941 0.12017 0.24282 0.0
H4389 H 0.91029 0.07834 0.26113 0.0
H4390 H 0.89496 0.10365 0.25865 0.0
H4391 H 0.84479 0.09659 0.22511 0.0
H4392 H 0.79586 0.16003 0.27067 0.0
H4393 H 0.80817 0.1345 0.25548 0.0
H4394 H 0.85725 0.13516 0.28922 0.0
C4395 C 0.88738 0.08952 0.25476 0.0
C4396 C 0.84748 0.10499 0.23911 0.0
C4397 C 0.89615 0.07508 0.2561 0.0
C4398 C 0.81019 0.16165 0.27141 0.0
C4399 C 0.81721 0.14708 0.26276 0.0
C4400 C 0.85452 0.12701 0.27508 0.0
C4401 C 0.86881 0.0858 0.24995 0.0
C4402 C 0.85938 0.10109 0.25334 0.0
C4403 C 0.8357 0.14815 0.2652 0.0
C4404 C 0.84319 0.1315 0.26078 0.0
H4405 H 0.86044 0.0387 0.2443 0.0
H4406 H 0.84497 0.06419 0.24143 0.0
H4407 H 0.87128 0.10901 0.28274 0.0
H4408 H 0.84919 0.1911 0.29161 0.0
H4409 H 0.8614 0.16594 0.27647 0.0
C4410 C 0.70592 0.08315 0.01613 0.0
C4411 C 0.71511 0.08913 0.03455 0.0
C4412 C 0.68743 0.07874 0.01341 0.0
C4413 C 0.64876 0.0892 0.03196 0.0
H4414 H 0.62459 0.03971 0.00748 0.0
C4415 C 0.57662 0.05582 0.03727 0.0
C4416 C 0.56752 0.04184 0.02254 0.0
C4417 C 0.5937 0.06536 0.03572 0.0
C4418 C 0.6311 0.05376 0.01382 0.0
H4419 H 0.71237 0.09502 0.06457 0.0
H4420 H 0.67968 0.08745 0.05965 0.0
H4421 H 0.65695 0.04798 0.01198 0.0
H4422 H 0.56827 0.02707 0.99453 0.0
H4423 H 0.59781 0.04445 0.99121 0.0
H4424 H 0.62289 0.09501 0.03383 0.0
C4425 C 0.68697 0.08626 0.04746 0.0
C4426 C 0.64958 0.05835 0.0166 0.0
C4427 C 0.70554 0.09042 0.05025 0.0
C4428 C 0.57496 0.03826 0.00573 0.0
C4429 C 0.59192 0.04799 0.00401 0.0
C4430 C 0.6302 0.08469 0.02893 0.0
C4431 C 0.6779 0.0805 0.02901 0.0
C4432 C 0.65846 0.07597 0.0259 0.0
C4433 C 0.6018 0.06086 0.01943 0.0
C4434 C 0.62123 0.06683 0.02006 0.0
H4435 H 0.71302 0.08195 0.0038 0.0
H4436 H 0.68054 0.07424 -0.00091 0.0
H4437 H 0.65555 0.10295 0.03899 0.0
H4438 H 0.57094 0.05857 0.0504 0.0
H4439 H 0.60102 0.07508 0.0479 0.0
C4440 C 0.19679 0.48988 0.2542 0.0
C4441 C 0.20892 0.50232 0.24631 0.0
C4442 C 0.19919 0.47207 0.25456 0.0
C4443 C 0.22358 0.4374 0.23559 0.0
H4444 H 0.21847 0.42244 0.28492 0.0
C4445 C 0.26072 0.39009 0.27138 0.0
C4446 C 0.2521 0.38048 0.28455 0.0
C4447 C 0.25151 0.39993 0.26036 0.0
C4448 C 0.21944 0.42608 0.27085 0.0
H4449 H 0.23248 0.50628 0.2319 0.0
H4450 H 0.23748 0.47508 0.23361 0.0
H4451 H 0.21097 0.45103 0.27896 0.0
H4452 H 0.22698 0.37104 0.29495 0.0
H4453 H 0.21065 0.38818 0.27548 0.0
H4454 H 0.23333 0.41273 0.22817 0.0
C4455 C 0.22594 0.479 0.23913 0.0
C4456 C 0.21522 0.44254 0.26747 0.0
C4457 C 0.22333 0.49683 0.23848 0.0
C4458 C 0.23384 0.37897 0.28521 0.0
C4459 C 0.22454 0.38849 0.27395 0.0
C4460 C 0.228 0.42085 0.23907 0.0
C4461 C 0.21392 0.46656 0.24732 0.0
C4462 C 0.21739 0.44844 0.24992 0.0
C4463 C 0.23361 0.39998 0.26241 0.0
C4464 C 0.2261 0.41524 0.25683 0.0
H4465 H 0.18526 0.49381 0.25967 0.0
H4466 H 0.18954 0.46261 0.2606 0.0
H4467 H 0.22526 0.4417 0.2219 0.0
H4468 H 0.2748 0.39092 0.27052 0.0
H4469 H 0.25879 0.40877 0.25162 0.0
C4470 C 0.228 0.4119 0.01959 0.0
C4471 C 0.23239 0.40895 0.03825 0.0
C4472 C 0.21365 0.41998 0.01513 0.0
C4473 C 0.18304 0.44725 0.03719 0.0
H4474 H 0.15684 0.43271 0.98663 0.0
C4475 C 0.13285 0.48767 0.00666 0.0
C4476 C 0.11882 0.47778 0.99287 0.0
C4477 C 0.14563 0.47873 0.0141 0.0
C4478 C 0.16373 0.43678 0.00096 0.0
H4479 H 0.22499 0.4119 0.06683 0.0
H4480 H 0.19938 0.42521 0.05888 0.0
H4481 H 0.18049 0.41764 0.99569 0.0
H4482 H 0.10631 0.45079 0.97692 0.0
H4483 H 0.12791 0.43496 0.99048 0.0
H4484 H 0.16565 0.4659 0.04262 0.0
C4485 C 0.20734 0.42182 0.04777 0.0
C4486 C 0.17764 0.42833 0.00606 0.0
C4487 C 0.22193 0.41401 0.05231 0.0
C4488 C 0.11712 0.45869 0.98747 0.0
C4489 C 0.12964 0.4497 0.9951 0.0
C4490 C 0.16889 0.45554 0.03217 0.0
C4491 C 0.20305 0.42501 0.02912 0.0
C4492 C 0.18767 0.43357 0.02415 0.0
C4493 C 0.14446 0.45969 0.00799 0.0
C4494 C 0.1591 0.45048 0.01392 0.0
H4495 H 0.23597 0.40844 0.00849 0.0
H4496 H 0.21114 0.42261 0.00073 0.0
H4497 H 0.19054 0.45185 0.0512 0.0
H4498 H 0.13444 0.50246 0.01093 0.0
H4499 H 0.15685 0.48695 0.0239 0.0
C4500 C 0.88636 0.95489 0.24872 0.0
C4501 C 0.88177 0.96861 0.26172 0.0
C4502 C 0.87666 0.93653 0.24606 0.0
C4503 C 0.8496 0.90553 0.27264 0.0
H4504 H 0.83305 0.8731 0.22434 0.0
C4505 C 0.79916 0.83775 0.26856 0.0
C4506 C 0.80187 0.82186 0.25726 0.0
C4507 C 0.80915 0.85517 0.26736 0.0
C4508 C 0.83779 0.88195 0.23792 0.0
H4509 H 0.86265 0.97406 0.28101 0.0
H4510 H 0.8458 0.94231 0.27624 0.0
H4511 H 0.8501 0.90472 0.22491 0.0
H4512 H 0.81707 0.81181 0.23563 0.0
H4513 H 0.83484 0.84246 0.23374 0.0
H4514 H 0.83749 0.88304 0.28575 0.0
C4515 C 0.85711 0.94559 0.26846 0.0
C4516 C 0.84751 0.90001 0.23824 0.0
C4517 C 0.86675 0.96381 0.27114 0.0
C4518 C 0.81467 0.82383 0.2445 0.0
C4519 C 0.82476 0.84136 0.24333 0.0
C4520 C 0.84001 0.88759 0.27233 0.0
C4521 C 0.86226 0.93166 0.25636 0.0
C4522 C 0.85315 0.91208 0.25561 0.0
C4523 C 0.82227 0.85717 0.25499 0.0
C4524 C 0.83364 0.87572 0.25499 0.0
H4525 H 0.89785 0.95816 0.24122 0.0
H4526 H 0.88089 0.92604 0.23662 0.0
H4527 H 0.85419 0.91435 0.28627 0.0
H4528 H 0.78955 0.83674 0.27868 0.0
H4529 H 0.8067 0.86712 0.2763 0.0
C4530 C 0.70791 0.09211 0.78368 0.0
C4531 C 0.69318 0.08222 0.77077 0.0
C4532 C 0.71458 0.11077 0.78331 0.0
C4533 C 0.71558 0.14511 0.75136 0.0
H4534 H 0.73455 0.17981 0.79778 0.0
C4535 C 0.74426 0.22135 0.74958 0.0
C4536 C 0.76088 0.22848 0.76037 0.0
C4537 C 0.73406 0.20456 0.75233 0.0
C4538 C 0.72931 0.17023 0.78473 0.0
H4539 H 0.67344 0.08398 0.74784 0.0
H4540 H 0.68469 0.11689 0.7477 0.0
H4541 H 0.71999 0.1481 0.79971 0.0
H4542 H 0.78024 0.22436 0.78233 0.0
H4543 H 0.76258 0.1946 0.78696 0.0
H4544 H 0.72513 0.16715 0.73637 0.0
C4545 C 0.69134 0.11012 0.75776 0.0
C4546 C 0.72103 0.15212 0.78582 0.0
C4547 C 0.68483 0.09137 0.75793 0.0
C4548 C 0.76723 0.21903 0.77415 0.0
C4549 C 0.75712 0.20214 0.7768 0.0
C4550 C 0.72379 0.16322 0.75028 0.0
C4551 C 0.70646 0.1199 0.77024 0.0
C4552 C 0.71424 0.13936 0.76914 0.0
C4553 C 0.74059 0.19462 0.76566 0.0
C4554 C 0.73085 0.17588 0.76695 0.0
H4555 H 0.71481 0.08525 0.79344 0.0
H4556 H 0.72648 0.11786 0.79281 0.0
H4557 H 0.71078 0.13547 0.73825 0.0
H4558 H 0.73939 0.22855 0.73878 0.0
H4559 H 0.72126 0.19914 0.74373 0.0
loop_
_geom_bond_atom_site_label_1
_geom_bond_atom_site_label_2
_geom_bond_distance
_geom_bond_site_symmetry_2
_ccdc_geom_bond_type
Mg0 O1 2.028 . S
Mg0 O7 1.986 . S
Mg0 O9 2.114 . S
Mg0 O10 2.251 . S
Mg0 O13 2.010 . S
O1 Mg0 2.028 . S
O1 C4 1.250 . S
O2 Mg3 2.023 1_455 S
O2 C4 1.248 . S
Mg3 O2 2.023 1_655 S
Mg3 O8 2.025 1_655 S
Mg3 O10 2.076 1_655 S
C4 O1 1.250 . S
C4 O2 1.248 . S
C5 O6 1.264 . S
C5 O13 1.249 . S
O6 C5 1.264 . S
O7 Mg0 1.986 . S
O7 C11 1.246 . S
O8 Mg3 2.025 1_455 S
O8 C11 1.259 . S
O9 Mg0 2.114 . S
O9 C12 1.252 . S
O10 Mg0 2.251 . S
O10 Mg3 2.076 1_455 S
O10 C12 1.273 . S
C11 O7 1.246 . S
C11 O8 1.259 . S
C12 O9 1.252 . S
C12 O10 1.273 . S
O13 Mg0 2.010 . S
O13 C5 1.249 . S
Mg14 O15 2.028 . S
Mg14 O21 1.986 . S
Mg14 O23 2.142 . S
Mg14 O24 2.251 1_455 S
Mg14 O27 2.010 . S
O15 Mg14 2.028 . S
O15 C18 1.250 . S
O16 Mg17 2.028 . S
O16 C18 1.248 1_655 S
Mg17 O16 2.028 . S
Mg17 O22 2.032 . S
Mg17 O24 2.079 . S
C18 O15 1.250 . S
C18 O16 1.248 1_455 S
C19 O20 1.264 . S
C19 O27 1.249 . S
O20 C19 1.264 . S
O21 Mg14 1.986 . S
O21 C25 1.246 . S
O22 Mg17 2.032 . S
O22 C25 1.259 1_655 S
O23 Mg14 2.142 . S
O23 C26 1.207 1_455 S
O24 Mg14 2.251 1_655 S
O24 Mg17 2.079 . S
O24 C26 1.273 . S
C25 O21 1.246 . S
C25 O22 1.259 1_455 S
C26 O23 1.207 1_655 S
C26 O24 1.273 . S
O27 Mg14 2.010 . S
O27 C19 1.249 . S
Mg28 O29 2.028 . S
Mg28 O35 1.986 . S
Mg28 O37 2.114 . S
Mg28 O38 2.251 . S
Mg28 O41 2.010 . S
O29 Mg28 2.028 . S
O29 C32 1.250 . S
O30 Mg31 2.028 . S
O30 C32 1.248 . S
Mg31 O30 2.028 . S
Mg31 O36 2.032 . S
Mg31 O38 2.079 . S
C32 O29 1.250 . S
C32 O30 1.248 . S
C33 O34 1.264 . S
C33 O41 1.249 . S
O34 C33 1.264 . S
O35 Mg28 1.986 . S
O35 C39 1.246 . S
O36 Mg31 2.032 . S
O36 C39 1.259 . S
O37 Mg28 2.114 . S
O37 C40 1.252 . S
O38 Mg28 2.251 . S
O38 Mg31 2.079 . S
O38 C40 1.273 . S
C39 O35 1.246 . S
C39 O36 1.259 . S
C40 O37 1.252 . S
C40 O38 1.273 . S
O41 Mg28 2.010 . S
O41 C33 1.249 . S
Mg42 O43 2.028 . S
Mg42 O49 1.986 . S
Mg42 O51 2.114 . S
Mg42 O52 2.251 . S
Mg42 O55 2.010 . S
O43 Mg42 2.028 . S
O43 C46 1.250 . S
O44 Mg45 2.028 . S
O44 C46 1.248 . S
Mg45 O44 2.028 . S
Mg45 O50 2.032 . S
Mg45 O52 2.079 . S
C46 O43 1.250 . S
C46 O44 1.248 . S
C47 O48 1.264 . S
C47 O55 1.249 . S
O48 C47 1.264 . S
O49 Mg42 1.986 . S
O49 C53 1.246 . S
O50 Mg45 2.032 . S
O50 C53 1.259 . S
O51 Mg42 2.114 . S
O51 C54 1.252 . S
O52 Mg42 2.251 . S
O52 Mg45 2.079 . S
O52 C54 1.273 . S
C53 O49 1.246 . S
C53 O50 1.259 . S
C54 O51 1.252 . S
C54 O52 1.273 . S
O55 Mg42 2.010 . S
O55 C47 1.249 . S
Mg56 O57 2.028 . S
Mg56 O63 1.986 . S
Mg56 O65 2.114 . S
Mg56 O66 2.251 . S
Mg56 O69 2.010 . S
O57 Mg56 2.028 . S
O57 C60 1.250 . S
O58 Mg59 2.028 . S
O58 C60 1.248 . S
Mg59 O58 2.028 . S
Mg59 O64 2.032 . S
Mg59 O66 2.079 . S
C60 O57 1.250 . S
C60 O58 1.248 . S
C61 O62 1.264 . S
C61 O69 1.249 . S
O62 C61 1.264 . S
O63 Mg56 1.986 . S
O63 C67 1.246 . S
O64 Mg59 2.032 . S
O64 C67 1.259 . S
O65 Mg56 2.114 . S
O65 C68 1.252 . S
O66 Mg56 2.251 . S
O66 Mg59 2.079 . S
O66 C68 1.273 . S
C67 O63 1.246 . S
C67 O64 1.259 . S
C68 O65 1.252 . S
C68 O66 1.273 . S
O69 Mg56 2.010 . S
O69 C61 1.249 . S
Mg70 O71 2.028 . S
Mg70 O77 1.986 . S
Mg70 O79 2.114 . S
Mg70 O80 2.251 . S
Mg70 O83 2.010 . S
O71 Mg70 2.028 . S
O71 C74 1.250 . S
O72 Mg73 2.028 . S
O72 C74 1.248 . S
Mg73 O72 2.028 . S
Mg73 O78 2.032 . S
Mg73 O80 2.079 . S
C74 O71 1.250 . S
C74 O72 1.248 . S
C75 O76 1.264 . S
C75 O83 1.249 . S
O76 C75 1.264 . S
O77 Mg70 1.986 . S
O77 C81 1.246 . S
O78 Mg73 2.032 . S
O78 C81 1.259 . S
O79 Mg70 2.114 . S
O79 C82 1.252 . S
O80 Mg70 2.251 . S
O80 Mg73 2.079 . S
O80 C82 1.273 . S
C81 O77 1.246 . S
C81 O78 1.259 . S
C82 O79 1.252 . S
C82 O80 1.273 . S
O83 Mg70 2.010 . S
O83 C75 1.249 . S
Mg84 O85 2.028 . S
Mg84 O91 1.986 . S
Mg84 O93 2.114 . S
Mg84 O94 2.251 . S
Mg84 O97 2.010 . S
O85 Mg84 2.028 . S
O85 C88 1.250 . S
O86 Mg87 2.028 . S
O86 C88 1.248 . S
Mg87 O86 2.028 . S
Mg87 O92 2.032 . S
Mg87 O94 2.079 . S
C88 O85 1.250 . S
C88 O86 1.248 . S
C89 O90 1.264 . S
C89 O97 1.249 . S
O90 C89 1.264 . S
O91 Mg84 1.986 . S
O91 C95 1.246 . S
O92 Mg87 2.032 . S
O92 C95 1.259 . S
O93 Mg84 2.114 . S
O93 C96 1.252 . S
O94 Mg84 2.251 . S
O94 Mg87 2.079 . S
O94 C96 1.273 . S
C95 O91 1.246 . S
C95 O92 1.259 . S
C96 O93 1.252 . S
C96 O94 1.273 . S
O97 Mg84 2.010 . S
O97 C89 1.249 . S
Mg98 O99 2.028 1_655 S
Mg98 O105 1.986 1_655 S
Mg98 O107 2.114 . S
Mg98 O108 2.251 . S
Mg98 O111 2.010 1_655 S
O99 Mg98 2.028 1_455 S
O99 C102 1.236 1_455 S
O100 Mg101 2.028 . S
O100 C102 1.268 . S
Mg101 O100 2.028 . S
Mg101 O106 2.032 . S
Mg101 O108 2.079 . S
C102 O99 1.236 1_655 S
C102 O100 1.268 . S
C103 O104 1.264 . S
C103 O111 1.249 . S
O104 C103 1.264 . S
O105 Mg98 1.986 1_455 S
O105 C109 1.246 1_455 S
O106 Mg101 2.032 . S
O106 C109 1.259 . S
O107 Mg98 2.114 . S
O107 C110 1.252 . S
O108 Mg98 2.251 . S
O108 Mg101 2.079 . S
O108 C110 1.273 . S
C109 O105 1.246 1_655 S
C109 O106 1.259 . S
C110 O107 1.252 . S
C110 O108 1.273 . S
O111 Mg98 2.010 1_455 S
O111 C103 1.249 . S
Mg112 O113 2.028 1_545 S
Mg112 O119 1.986 . S
Mg112 O121 2.114 . S
Mg112 O122 2.251 . S
Mg112 O125 2.010 . S
O113 Mg112 2.028 1_565 S
O113 C116 1.250 . S
O114 Mg115 2.028 1_565 S
O114 C116 1.248 . S
Mg115 O114 2.028 1_545 S
Mg115 O120 2.032 . S
Mg115 O122 2.079 . S
C116 O113 1.250 . S
C116 O114 1.248 . S
C117 O118 1.264 . S
C117 O125 1.249 . S
O118 C117 1.264 . S
O119 Mg112 1.986 . S
O119 C123 1.246 . S
O120 Mg115 2.032 . S
O120 C123 1.259 . S
O121 Mg112 2.114 . S
O121 C124 1.252 . S
O122 Mg112 2.251 . S
O122 Mg115 2.079 . S
O122 C124 1.273 . S
C123 O119 1.246 . S
C123 O120 1.259 . S
C124 O121 1.252 . S
C124 O122 1.273 . S
O125 Mg112 2.010 . S
O125 C117 1.249 . S
Mg126 O127 2.028 . S
Mg126 O133 1.986 . S
Mg126 O135 2.114 . S
Mg126 O136 2.251 . S
Mg126 O139 2.010 . S
O127 Mg126 2.028 . S
O127 C130 1.250 . S
O128 Mg129 2.028 . S
O128 C130 1.248 . S
Mg129 O128 2.028 . S
Mg129 O134 2.032 . S
Mg129 O136 2.079 . S
C130 O127 1.250 . S
C130 O128 1.248 . S
C131 O132 1.264 . S
C131 O139 1.249 . S
O132 C131 1.264 . S
O133 Mg126 1.986 . S
O133 C137 1.246 . S
O134 Mg129 2.032 . S
O134 C137 1.259 . S
O135 Mg126 2.114 . S
O135 C138 1.252 . S
O136 Mg126 2.251 . S
O136 Mg129 2.079 . S
O136 C138 1.273 . S
C137 O133 1.246 . S
C137 O134 1.259 . S
C138 O135 1.252 . S
C138 O136 1.273 . S
O139 Mg126 2.010 . S
O139 C131 1.249 . S
Mg140 O141 2.028 . S
Mg140 O147 1.986 . S
Mg140 O149 2.114 . S
Mg140 O150 2.251 . S
Mg140 O153 2.010 . S
O141 Mg140 2.028 . S
O141 C144 1.250 . S
O142 Mg143 2.028 . S
O142 C144 1.248 . S
Mg143 O142 2.028 . S
Mg143 O148 2.032 . S
Mg143 O150 2.079 . S
C144 O141 1.250 . S
C144 O142 1.248 . S
C145 O146 1.264 . S
C145 O153 1.249 . S
O146 C145 1.264 . S
O147 Mg140 1.986 . S
O147 C151 1.246 . S
O148 Mg143 2.032 . S
O148 C151 1.259 . S
O149 Mg140 2.114 . S
O149 C152 1.252 . S
O150 Mg140 2.251 . S
O150 Mg143 2.079 . S
O150 C152 1.273 . S
C151 O147 1.246 . S
C151 O148 1.259 . S
C152 O149 1.252 . S
C152 O150 1.273 . S
O153 Mg140 2.010 . S
O153 C145 1.249 . S
Mg154 O155 2.028 1_554 S
Mg154 O161 1.986 . S
Mg154 O163 2.114 1_554 S
Mg154 O164 2.251 . S
Mg154 O167 2.010 . S
O155 Mg154 2.028 1_556 S
O155 C158 1.250 . S
O156 Mg157 2.028 1_556 S
O156 C158 1.248 . S
Mg157 O156 2.028 1_554 S
Mg157 O162 2.032 . S
Mg157 O164 2.079 . S
C158 O155 1.250 . S
C158 O156 1.248 . S
C159 O160 1.264 . S
C159 O167 1.249 . S
O160 C159 1.264 . S
O161 Mg154 1.986 . S
O161 C165 1.246 . S
O162 Mg157 2.032 . S
O162 C165 1.259 . S
O163 Mg154 2.114 1_556 S
O163 C166 1.252 1_556 S
O164 Mg154 2.251 . S
O164 Mg157 2.079 . S
O164 C166 1.273 . S
C165 O161 1.246 . S
C165 O162 1.259 . S
C166 O163 1.252 1_554 S
C166 O164 1.273 . S
O167 Mg154 2.010 . S
O167 C159 1.249 . S
Mg168 O169 2.028 . S
Mg168 O175 1.986 . S
Mg168 O177 2.114 . S
Mg168 O178 2.251 . S
Mg168 O181 2.010 . S
O169 Mg168 2.028 . S
O169 C172 1.250 . S
O170 Mg171 2.028 . S
O170 C172 1.248 . S
Mg171 O170 2.028 . S
Mg171 O176 2.032 . S
Mg171 O178 2.079 . S
C172 O169 1.250 . S
C172 O170 1.248 . S
C173 O174 1.264 . S
C173 O181 1.249 . S
O174 C173 1.264 . S
O175 Mg168 1.986 . S
O175 C179 1.246 . S
O176 Mg171 2.032 . S
O176 C179 1.259 . S
O177 Mg168 2.114 . S
O177 C180 1.252 . S
O178 Mg168 2.251 . S
O178 Mg171 2.079 . S
O178 C180 1.273 . S
C179 O175 1.246 . S
C179 O176 1.259 . S
C180 O177 1.252 . S
C180 O178 1.273 . S
O181 Mg168 2.010 . S
O181 C173 1.249 . S
Mg182 O183 2.028 . S
Mg182 O189 1.986 . S
Mg182 O191 2.114 . S
Mg182 O192 2.251 . S
Mg182 O195 2.010 . S
O183 Mg182 2.028 . S
O183 C186 1.250 . S
O184 Mg185 2.028 . S
O184 C186 1.248 . S
Mg185 O184 2.028 . S
Mg185 O190 2.032 . S
Mg185 O192 2.079 . S
C186 O183 1.250 . S
C186 O184 1.248 . S
C187 O188 1.264 . S
C187 O195 1.249 . S
O188 C187 1.264 . S
O189 Mg182 1.986 . S
O189 C193 1.246 . S
O190 Mg185 2.032 . S
O190 C193 1.259 . S
O191 Mg182 2.114 . S
O191 C194 1.252 . S
O192 Mg182 2.251 . S
O192 Mg185 2.079 . S
O192 C194 1.273 . S
C193 O189 1.246 . S
C193 O190 1.259 . S
C194 O191 1.252 . S
C194 O192 1.273 . S
O195 Mg182 2.010 . S
O195 C187 1.249 . S
Mg196 O197 2.028 . S
Mg196 O203 1.986 . S
Mg196 O205 2.114 . S
Mg196 O206 2.251 . S
Mg196 O209 2.010 . S
O197 Mg196 2.028 . S
O197 C200 1.250 . S
O198 Mg199 2.028 . S
O198 C200 1.248 . S
Mg199 O198 2.028 . S
Mg199 O204 2.032 . S
Mg199 O206 2.079 . S
C200 O197 1.250 . S
C200 O198 1.248 . S
C201 O202 1.264 . S
C201 O209 1.249 . S
O202 C201 1.264 . S
O203 Mg196 1.986 . S
O203 C207 1.246 . S
O204 Mg199 2.032 . S
O204 C207 1.259 . S
O205 Mg196 2.114 . S
O205 C208 1.252 . S
O206 Mg196 2.251 . S
O206 Mg199 2.079 . S
O206 C208 1.273 . S
C207 O203 1.246 . S
C207 O204 1.259 . S
C208 O205 1.252 . S
C208 O206 1.273 . S
O209 Mg196 2.010 . S
O209 C201 1.249 . S
Mg210 O211 2.028 . S
Mg210 O217 1.986 . S
Mg210 O219 2.114 . S
Mg210 O220 2.251 . S
Mg210 O223 2.010 . S
O211 Mg210 2.028 . S
O211 C214 1.250 . S
O212 Mg213 2.028 . S
O212 C214 1.248 . S
Mg213 O212 2.028 . S
Mg213 O218 2.032 . S
Mg213 O220 2.079 . S
C214 O211 1.250 . S
C214 O212 1.248 . S
C215 O216 1.264 . S
C215 O223 1.249 . S
O216 C215 1.264 . S
O217 Mg210 1.986 . S
O217 C221 1.246 . S
O218 Mg213 2.032 . S
O218 C221 1.259 . S
O219 Mg210 2.114 . S
O219 C222 1.252 . S
O220 Mg210 2.251 . S
O220 Mg213 2.079 . S
O220 C222 1.273 . S
C221 O217 1.246 . S
C221 O218 1.259 . S
C222 O219 1.252 . S
C222 O220 1.273 . S
O223 Mg210 2.010 . S
O223 C215 1.249 . S
Mg224 O225 2.028 1_545 S
Mg224 O231 1.986 . S
Mg224 O233 2.114 . S
Mg224 O234 2.251 . S
Mg224 O237 2.010 . S
O225 Mg224 2.028 1_565 S
O225 C228 1.250 . S
O226 Mg227 2.028 1_565 S
O226 C228 1.248 . S
Mg227 O226 2.028 1_545 S
Mg227 O232 2.032 . S
Mg227 O234 2.079 . S
C228 O225 1.250 . S
C228 O226 1.248 . S
C229 O230 1.264 . S
C229 O237 1.249 . S
O230 C229 1.264 . S
O231 Mg224 1.986 . S
O231 C235 1.246 . S
O232 Mg227 2.032 . S
O232 C235 1.259 . S
O233 Mg224 2.114 . S
O233 C236 1.252 . S
O234 Mg224 2.251 . S
O234 Mg227 2.079 . S
O234 C236 1.273 . S
C235 O231 1.246 . S
C235 O232 1.259 . S
C236 O233 1.252 . S
C236 O234 1.273 . S
O237 Mg224 2.010 . S
O237 C229 1.249 . S
Mg238 O239 2.028 . S
Mg238 O245 1.986 . S
Mg238 O247 2.114 . S
Mg238 O248 2.251 . S
Mg238 O251 2.010 . S
O239 Mg238 2.028 . S
O239 C242 1.250 . S
O240 Mg241 2.028 . S
O240 C242 1.248 . S
Mg241 O240 2.028 . S
Mg241 O246 2.032 . S
Mg241 O248 2.079 . S
C242 O239 1.250 . S
C242 O240 1.248 . S
C243 O244 1.264 . S
C243 O251 1.249 . S
O244 C243 1.264 . S
O245 Mg238 1.986 . S
O245 C249 1.246 . S
O246 Mg241 2.032 . S
O246 C249 1.259 . S
O247 Mg238 2.114 . S
O247 C250 1.252 . S
O248 Mg238 2.251 . S
O248 Mg241 2.079 . S
O248 C250 1.273 . S
C249 O245 1.246 . S
C249 O246 1.259 . S
C250 O247 1.252 . S
C250 O248 1.273 . S
O251 Mg238 2.010 . S
O251 C243 1.249 . S
Mg252 O253 2.028 . S
Mg252 O259 1.986 . S
Mg252 O261 2.114 . S
Mg252 O262 2.251 . S
Mg252 O265 2.010 . S
O253 Mg252 2.028 . S
O253 C256 1.250 . S
O254 Mg255 2.028 . S
O254 C256 1.248 . S
Mg255 O254 2.028 . S
Mg255 O260 2.032 . S
Mg255 O262 2.079 . S
C256 O253 1.250 . S
C256 O254 1.248 . S
C257 O258 1.264 . S
C257 O265 1.249 . S
O258 C257 1.264 . S
O259 Mg252 1.986 . S
O259 C263 1.246 . S
O260 Mg255 2.032 . S
O260 C263 1.259 . S
O261 Mg252 2.114 . S
O261 C264 1.252 . S
O262 Mg252 2.251 . S
O262 Mg255 2.079 . S
O262 C264 1.273 . S
C263 O259 1.246 . S
C263 O260 1.259 . S
C264 O261 1.252 . S
C264 O262 1.273 . S
O265 Mg252 2.010 . S
O265 C257 1.249 . S
Mg266 O267 2.028 . S
Mg266 O273 1.986 . S
Mg266 O275 2.114 . S
Mg266 O276 2.251 . S
Mg266 O279 2.010 . S
O267 Mg266 2.028 . S
O267 C270 1.250 . S
O268 Mg269 2.028 . S
O268 C270 1.248 . S
Mg269 O268 2.028 . S
Mg269 O274 2.032 . S
Mg269 O276 2.079 . S
C270 O267 1.250 . S
C270 O268 1.248 . S
C271 O272 1.264 . S
C271 O279 1.249 . S
O272 C271 1.264 . S
O273 Mg266 1.986 . S
O273 C277 1.246 . S
O274 Mg269 2.032 . S
O274 C277 1.259 . S
O275 Mg266 2.114 . S
O275 C278 1.252 . S
O276 Mg266 2.251 . S
O276 Mg269 2.079 . S
O276 C278 1.273 . S
C277 O273 1.246 . S
C277 O274 1.259 . S
C278 O275 1.252 . S
C278 O276 1.273 . S
O279 Mg266 2.010 . S
O279 C271 1.249 . S
Mg280 O281 2.028 1_556 S
Mg280 O287 1.986 . S
Mg280 O289 2.114 1_556 S
Mg280 O290 2.251 . S
Mg280 O293 2.010 . S
O281 Mg280 2.028 1_554 S
O281 C284 1.250 . S
O282 Mg283 2.028 . S
O282 C284 1.248 . S
Mg283 O282 2.028 . S
Mg283 O288 2.032 1_554 S
Mg283 O290 2.079 1_554 S
C284 O281 1.250 . S
C284 O282 1.248 . S
C285 O286 1.264 . S
C285 O293 1.249 . S
O286 C285 1.264 . S
O287 Mg280 1.986 . S
O287 C291 1.246 . S
O288 Mg283 2.032 1_556 S
O288 C291 1.259 . S
O289 Mg280 2.114 1_554 S
O289 C292 1.252 . S
O290 Mg280 2.251 . S
O290 Mg283 2.079 1_556 S
O290 C292 1.273 1_556 S
C291 O287 1.246 . S
C291 O288 1.259 . S
C292 O289 1.252 . S
C292 O290 1.273 1_554 S
O293 Mg280 2.010 . S
O293 C285 1.249 . S
Mg294 O295 2.028 . S
Mg294 O301 1.986 . S
Mg294 O303 2.114 . S
Mg294 O304 2.251 . S
Mg294 O307 2.010 . S
O295 Mg294 2.028 . S
O295 C298 1.250 . S
O296 Mg297 2.028 . S
O296 C298 1.248 . S
Mg297 O296 2.028 . S
Mg297 O302 2.032 . S
Mg297 O304 2.079 . S
C298 O295 1.250 . S
C298 O296 1.248 . S
C299 O300 1.264 . S
C299 O307 1.249 . S
O300 C299 1.264 . S
O301 Mg294 1.986 . S
O301 C305 1.246 . S
O302 Mg297 2.032 . S
O302 C305 1.259 . S
O303 Mg294 2.114 . S
O303 C306 1.252 . S
O304 Mg294 2.251 . S
O304 Mg297 2.079 . S
O304 C306 1.273 . S
C305 O301 1.246 . S
C305 O302 1.259 . S
C306 O303 1.252 . S
C306 O304 1.273 . S
O307 Mg294 2.010 . S
O307 C299 1.249 . S
Mg308 O309 2.028 . S
Mg308 O315 1.986 . S
Mg308 O317 2.114 . S
Mg308 O318 2.251 . S
Mg308 O321 2.010 . S
O309 Mg308 2.028 . S
O309 C312 1.250 . S
O310 Mg311 2.028 . S
O310 C312 1.248 . S
Mg311 O310 2.028 . S
Mg311 O316 2.032 . S
Mg311 O318 2.079 . S
C312 O309 1.250 . S
C312 O310 1.248 . S
C313 O314 1.264 . S
C313 O321 1.249 . S
O314 C313 1.264 . S
O315 Mg308 1.986 . S
O315 C319 1.246 . S
O316 Mg311 2.032 . S
O316 C319 1.259 . S
O317 Mg308 2.114 . S
O317 C320 1.252 . S
O318 Mg308 2.251 . S
O318 Mg311 2.079 . S
O318 C320 1.273 . S
C319 O315 1.246 . S
C319 O316 1.259 . S
C320 O317 1.252 . S
C320 O318 1.273 . S
O321 Mg308 2.010 . S
O321 C313 1.249 . S
Mg322 O323 2.028 . S
Mg322 O329 1.986 . S
Mg322 O331 2.114 . S
Mg322 O332 2.251 . S
Mg322 O335 2.010 . S
O323 Mg322 2.028 . S
O323 C326 1.250 . S
O324 Mg325 2.028 . S
O324 C326 1.248 . S
Mg325 O324 2.028 . S
Mg325 O330 2.032 . S
Mg325 O332 2.079 . S
C326 O323 1.250 . S
C326 O324 1.248 . S
C327 O328 1.264 . S
C327 O335 1.249 . S
O328 C327 1.264 . S
O329 Mg322 1.986 . S
O329 C333 1.246 . S
O330 Mg325 2.032 . S
O330 C333 1.259 . S
O331 Mg322 2.114 . S
O331 C334 1.252 . S
O332 Mg322 2.251 . S
O332 Mg325 2.079 . S
O332 C334 1.273 . S
C333 O329 1.246 . S
C333 O330 1.259 . S
C334 O331 1.252 . S
C334 O332 1.273 . S
O335 Mg322 2.010 . S
O335 C327 1.249 . S
Tb336 N365 2.617 . S
Tb336 N371 2.572 . S
Tb336 O380 2.465 . S
Tb336 O381 2.387 . S
Tb336 O383 2.428 . S
Tb336 O384 2.308 1_554 S
Tb336 O388 2.349 1_545 S
Tb336 O391 2.393 . S
Tb336 C400 2.802 . S
C337 N338 1.379 . S
C337 C340 1.416 . S
C337 C344 1.424 . S
N338 C337 1.379 . S
N338 C341 1.334 . S
N338 Tb347 2.647 1_565 S
C339 C341 1.390 . S
C339 C342 1.339 . S
C339 H359 0.930 . S
C340 C337 1.416 . S
C340 C342 1.416 . S
C340 C346 1.448 . S
C341 N338 1.334 . S
C341 C339 1.390 . S
C341 H352 0.930 . S
C342 C339 1.339 . S
C342 C340 1.416 . S
C342 H363 0.930 . S
C343 C344 1.391 1_554 S
C343 C345 1.399 1_554 S
C343 C349 1.466 . S
C344 C337 1.424 . S
C344 C343 1.391 1_556 S
C344 N348 1.361 1_556 S
C345 C343 1.399 1_556 S
C345 C346 1.328 . S
C345 H360 0.929 . S
C346 C340 1.448 . S
C346 C345 1.328 . S
C346 H361 0.930 . S
Tb347 N338 2.647 1_545 S
Tb347 N348 2.552 1_546 S
Tb347 O382 2.352 1_656 S
Tb347 O385 2.431 1_655 S
Tb347 O386 2.449 1_556 S
Tb347 O387 2.376 1_646 S
Tb347 O389 2.455 . S
Tb347 O390 2.263 1_656 S
Tb347 C411 2.809 . S
N348 C344 1.361 1_554 S
N348 Tb347 2.552 1_564 S
N348 C350 1.340 . S
C349 C343 1.466 . S
C349 C351 1.332 . S
C349 H357 0.931 . S
C350 N348 1.340 . S
C350 C351 1.407 . S
C350 H356 0.930 . S
C351 C349 1.332 . S
C351 C350 1.407 . S
C351 H353 0.929 . S
H352 C341 0.930 . S
H353 C351 0.929 . S
H354 C369 0.930 . S
H355 C376 0.929 . S
H356 C350 0.930 . S
H357 C349 0.931 . S
H358 C372 0.930 1_556 S
H359 C339 0.930 . S
H360 C345 0.929 . S
H361 C346 0.930 . S
H362 C367 0.930 . S
H363 C342 0.930 . S
H364 C375 0.931 . S
N365 Tb336 2.617 . S
N365 C366 1.379 . S
N365 C369 1.334 . S
C366 N365 1.379 . S
C366 C368 1.416 . S
C366 C374 1.424 . S
C367 H362 0.930 . S
C367 C369 1.390 . S
C367 C370 1.339 . S
C368 C366 1.416 . S
C368 C370 1.416 . S
C368 C401 1.448 . S
C369 H354 0.930 . S
C369 N365 1.334 . S
C369 C367 1.390 . S
C370 C367 1.339 . S
C370 C368 1.416 . S
C370 H377 0.930 . S
N371 Tb336 2.572 . S
N371 C372 1.340 . S
N371 C374 1.361 . S
C372 H358 0.930 1_554 S
C372 N371 1.340 . S
C372 C376 1.407 1_554 S
C373 C374 1.413 . S
C373 C375 1.416 . S
C373 C402 1.427 . S
C374 C366 1.424 . S
C374 N371 1.361 . S
C374 C373 1.413 . S
C375 H364 0.931 . S
C375 C373 1.416 . S
C375 C376 1.332 1_554 S
C376 H355 0.929 . S
C376 C372 1.407 1_556 S
C376 C375 1.332 1_556 S
H377 C370 0.930 . S
H378 C401 0.930 . S
H379 C402 0.929 . S
O380 Tb336 2.465 . S
O380 C400 1.264 . S
O381 Tb336 2.387 . S
O381 C392 1.264 . S
O382 Tb347 2.352 1_454 S
O382 C392 1.243 . S
O383 Tb336 2.428 . S
O383 C400 1.256 . S
O384 Tb336 2.308 1_556 S
O384 C399 1.266 . S
O385 Tb347 2.431 1_455 S
O385 C399 1.248 . S
O386 Tb347 2.449 1_554 S
O386 C411 1.264 1_554 S
O387 Tb347 2.376 1_464 S
O387 C403 1.264 . S
O388 Tb336 2.349 1_565 S
O388 C403 1.243 . S
O389 Tb347 2.455 . S
O389 C411 1.256 . S
O390 Tb347 2.263 1_454 S
O390 C410 1.266 . S
O391 Tb336 2.393 . S
O391 C410 1.248 . S
C392 O381 1.264 . S
C392 O382 1.243 . S
C393 C396 1.399 . S
C393 C398 1.383 . S
C393 C400 1.496 . S
C394 C395 1.411 1_565 S
C394 C398 1.375 1_565 S
C395 C394 1.411 1_545 S
C395 C397 1.392 . S
C395 H412 0.911 1_545 S
C396 C393 1.399 . S
C396 C397 1.392 . S
C396 H413 0.929 . S
C397 C395 1.392 . S
C397 C396 1.392 . S
C397 H414 0.929 . S
C398 C393 1.383 . S
C398 C394 1.375 1_545 S
C398 H415 0.931 . S
C399 O384 1.266 . S
C399 O385 1.248 . S
C400 Tb336 2.802 . S
C400 O380 1.264 . S
C400 O383 1.256 . S
C400 C393 1.496 . S
C401 C368 1.448 . S
C401 H378 0.930 . S
C401 C402 1.328 . S
C402 C373 1.427 . S
C402 H379 0.929 . S
C402 C401 1.328 . S
C403 O387 1.264 . S
C403 O388 1.243 . S
C404 C407 1.399 . S
C404 C408 1.383 1_556 S
C404 C411 1.496 . S
C405 C406 1.370 1_554 S
C405 C408 1.394 . S
C406 C405 1.370 1_556 S
C406 C409 1.380 . S
C406 H416 0.929 . S
C407 C404 1.399 . S
C407 C409 1.392 . S
C407 H417 0.929 . S
C408 C404 1.383 1_554 S
C408 C405 1.394 . S
C408 H418 0.931 . S
C409 C406 1.380 . S
C409 C407 1.392 . S
C409 H419 0.929 . S
C410 O390 1.266 . S
C410 O391 1.248 . S
C411 Tb347 2.809 . S
C411 O386 1.264 1_556 S
C411 O389 1.256 . S
C411 C404 1.496 . S
H412 C395 0.911 1_565 S
H413 C396 0.929 . S
H414 C397 0.929 . S
H415 C398 0.931 . S
H416 C406 0.929 . S
H417 C407 0.929 . S
H418 C408 0.931 . S
H419 C409 0.929 . S
Tb420 N449 2.617 . S
Tb420 N455 2.572 . S
Tb420 O464 2.465 . S
Tb420 O465 2.387 . S
Tb420 O467 2.428 . S
Tb420 O468 2.308 . S
Tb420 O472 2.349 . S
Tb420 O475 2.393 . S
Tb420 C484 2.802 . S
C421 N422 1.379 . S
C421 C424 1.416 . S
C421 C428 1.424 . S
N422 C421 1.379 . S
N422 C425 1.334 . S
N422 Tb431 2.617 . S
C423 C425 1.390 . S
C423 C426 1.339 . S
C423 H443 0.930 . S
C424 C421 1.416 . S
C424 C426 1.416 . S
C424 C430 1.448 . S
C425 N422 1.334 . S
C425 C423 1.390 . S
C425 H436 0.930 . S
C426 C423 1.339 . S
C426 C424 1.416 . S
C426 H447 0.930 . S
C427 C428 1.413 . S
C427 C429 1.427 . S
C427 C433 1.416 . S
C428 C421 1.424 . S
C428 C427 1.413 . S
C428 N432 1.361 . S
C429 C427 1.427 . S
C429 C430 1.328 . S
C429 H444 0.929 . S
C430 C424 1.448 . S
C430 C429 1.328 . S
C430 H445 0.930 . S
Tb431 N422 2.617 . S
Tb431 N432 2.572 . S
Tb431 O466 2.349 . S
Tb431 O469 2.393 . S
Tb431 O470 2.465 . S
Tb431 O471 2.387 . S
Tb431 O473 2.428 . S
Tb431 O474 2.308 . S
Tb431 C495 2.802 . S
N432 C428 1.361 . S
N432 Tb431 2.572 . S
N432 C434 1.340 . S
C433 C427 1.416 . S
C433 C435 1.332 . S
C433 H441 0.931 . S
C434 N432 1.340 . S
C434 C435 1.407 . S
C434 H440 0.930 . S
C435 C433 1.332 . S
C435 C434 1.407 . S
C435 H437 0.929 . S
H436 C425 0.930 . S
H437 C435 0.929 . S
H438 C453 0.930 . S
H439 C460 0.929 . S
H440 C434 0.930 . S
H441 C433 0.931 . S
H442 C456 0.930 . S
H443 C423 0.930 . S
H444 C429 0.929 . S
H445 C430 0.930 . S
H446 C451 0.930 . S
H447 C426 0.930 . S
H448 C459 0.931 . S
N449 Tb420 2.617 . S
N449 C450 1.379 . S
N449 C453 1.334 . S
C450 N449 1.379 . S
C450 C452 1.416 . S
C450 C458 1.424 . S
C451 H446 0.930 . S
C451 C453 1.390 . S
C451 C454 1.339 . S
C452 C450 1.416 . S
C452 C454 1.416 . S
C452 C485 1.448 . S
C453 H438 0.930 . S
C453 N449 1.334 . S
C453 C451 1.390 . S
C454 C451 1.339 . S
C454 C452 1.416 . S
C454 H461 0.930 . S
N455 Tb420 2.572 . S
N455 C456 1.340 . S
N455 C458 1.361 . S
C456 H442 0.930 . S
C456 N455 1.340 . S
C456 C460 1.407 . S
C457 C458 1.413 . S
C457 C459 1.416 . S
C457 C486 1.427 . S
C458 C450 1.424 . S
C458 N455 1.361 . S
C458 C457 1.413 . S
C459 H448 0.931 . S
C459 C457 1.416 . S
C459 C460 1.332 . S
C460 H439 0.929 . S
C460 C456 1.407 . S
C460 C459 1.332 . S
H461 C454 0.930 . S
H462 C485 0.930 . S
H463 C486 0.929 . S
O464 Tb420 2.465 . S
O464 C484 1.264 . S
O465 Tb420 2.387 . S
O465 C476 1.264 . S
O466 Tb431 2.349 . S
O466 C476 1.243 . S
O467 Tb420 2.428 . S
O467 C484 1.256 . S
O468 Tb420 2.308 . S
O468 C483 1.266 . S
O469 Tb431 2.393 . S
O469 C483 1.248 . S
O470 Tb431 2.465 . S
O470 C495 1.264 . S
O471 Tb431 2.387 . S
O471 C487 1.264 . S
O472 Tb420 2.349 . S
O472 C487 1.243 . S
O473 Tb431 2.428 . S
O473 C495 1.256 . S
O474 Tb431 2.308 . S
O474 C494 1.266 . S
O475 Tb420 2.393 . S
O475 C494 1.248 . S
C476 O465 1.264 . S
C476 O466 1.243 . S
C477 C480 1.399 . S
C477 C482 1.383 . S
C477 C484 1.496 . S
C478 C479 1.399 . S
C478 C482 1.389 . S
C479 C478 1.399 . S
C479 C481 1.380 . S
C479 H496 0.929 . S
C480 C477 1.399 . S
C480 C481 1.392 . S
C480 H497 0.929 . S
C481 C479 1.380 . S
C481 C480 1.392 . S
C481 H498 0.929 . S
C482 C477 1.383 . S
C482 C478 1.389 . S
C482 H499 0.931 . S
C483 O468 1.266 . S
C483 O469 1.248 . S
C484 Tb420 2.802 . S
C484 O464 1.264 . S
C484 O467 1.256 . S
C484 C477 1.496 . S
C485 C452 1.448 . S
C485 H462 0.930 . S
C485 C486 1.328 . S
C486 C457 1.427 . S
C486 H463 0.929 . S
C486 C485 1.328 . S
C487 O471 1.264 . S
C487 O472 1.243 . S
C488 C491 1.399 . S
C488 C492 1.383 . S
C488 C495 1.496 . S
C489 C490 1.399 . S
C489 C492 1.389 . S
C490 C489 1.399 . S
C490 C493 1.380 . S
C490 H500 0.929 . S
C491 C488 1.399 . S
C491 C493 1.392 . S
C491 H501 0.929 . S
C492 C488 1.383 . S
C492 C489 1.389 . S
C492 H502 0.931 . S
C493 C490 1.380 . S
C493 C491 1.392 . S
C493 H503 0.929 . S
C494 O474 1.266 . S
C494 O475 1.248 . S
C495 Tb431 2.802 . S
C495 O470 1.264 . S
C495 O473 1.256 . S
C495 C488 1.496 . S
H496 C479 0.929 . S
H497 C480 0.929 . S
H498 C481 0.929 . S
H499 C482 0.931 . S
H500 C490 0.929 . S
H501 C491 0.929 . S
H502 C492 0.931 . S
H503 C493 0.929 . S
Tb504 N533 2.617 1_545 S
Tb504 N539 2.572 1_545 S
Tb504 O548 2.465 . S
Tb504 O549 2.387 1_545 S
Tb504 O551 2.428 . S
Tb504 O552 2.308 . S
Tb504 O556 2.349 . S
Tb504 O559 2.393 . S
Tb504 C568 2.802 . S
C505 N506 1.379 . S
C505 C508 1.416 . S
C505 C512 1.424 . S
N506 C505 1.379 . S
N506 C509 1.334 . S
N506 Tb515 2.617 . S
C507 C509 1.390 . S
C507 C510 1.339 . S
C507 H527 0.930 . S
C508 C505 1.416 . S
C508 C510 1.416 . S
C508 C514 1.448 . S
C509 N506 1.334 . S
C509 C507 1.390 . S
C509 H520 0.930 . S
C510 C507 1.339 . S
C510 C508 1.416 . S
C510 H531 0.930 . S
C511 C512 1.413 . S
C511 C513 1.427 . S
C511 C517 1.416 . S
C512 C505 1.424 . S
C512 C511 1.413 . S
C512 N516 1.361 . S
C513 C511 1.427 . S
C513 C514 1.328 . S
C513 H528 0.929 . S
C514 C508 1.448 . S
C514 C513 1.328 . S
C514 H529 0.930 . S
Tb515 N506 2.617 . S
Tb515 N516 2.572 . S
Tb515 O550 2.349 1_545 S
Tb515 O553 2.393 . S
Tb515 O554 2.465 . S
Tb515 O555 2.387 . S
Tb515 O557 2.428 . S
Tb515 O558 2.308 . S
Tb515 C579 2.802 . S
N516 C512 1.361 . S
N516 Tb515 2.572 . S
N516 C518 1.340 . S
C517 C511 1.416 . S
C517 C519 1.332 . S
C517 H525 0.931 . S
C518 N516 1.340 . S
C518 C519 1.407 . S
C518 H524 0.930 . S
C519 C517 1.332 . S
C519 C518 1.407 . S
C519 H521 0.929 . S
H520 C509 0.930 . S
H521 C519 0.929 . S
H522 C537 0.930 . S
H523 C544 0.929 . S
H524 C518 0.930 . S
H525 C517 0.931 . S
H526 C540 0.970 . S
H527 C507 0.930 . S
H528 C513 0.929 . S
H529 C514 0.930 . S
H530 C535 0.930 . S
H531 C510 0.930 . S
H532 C543 0.931 . S
N533 Tb504 2.617 1_565 S
N533 C534 1.379 . S
N533 C537 1.334 1_565 S
C534 N533 1.379 . S
C534 C536 1.416 . S
C534 C542 1.424 . S
C535 H530 0.930 . S
C535 C537 1.390 1_565 S
C535 C538 1.339 . S
C536 C534 1.416 . S
C536 C538 1.416 . S
C536 C569 1.448 . S
C537 H522 0.930 . S
C537 N533 1.334 1_545 S
C537 C535 1.390 1_545 S
C538 C535 1.339 . S
C538 C536 1.416 . S
C538 H545 0.930 . S
N539 Tb504 2.572 1_565 S
N539 C540 1.340 . S
N539 C542 1.361 . S
C540 H526 0.970 . S
C540 N539 1.340 . S
C540 C544 1.407 . S
C541 C542 1.413 . S
C541 C543 1.416 . S
C541 C570 1.427 . S
C542 C534 1.424 . S
C542 N539 1.361 . S
C542 C541 1.413 . S
C543 H532 0.931 . S
C543 C541 1.416 . S
C543 C544 1.332 . S
C544 H523 0.929 . S
C544 C540 1.407 . S
C544 C543 1.332 . S
H545 C538 0.930 . S
H546 C569 0.930 . S
H547 C570 0.929 . S
O548 Tb504 2.465 . S
O548 C568 1.264 . S
O549 Tb504 2.387 1_565 S
O549 C560 1.264 . S
O550 Tb515 2.349 1_565 S
O550 C560 1.243 . S
O551 Tb504 2.428 . S
O551 C568 1.256 . S
O552 Tb504 2.308 . S
O552 C567 1.266 . S
O553 Tb515 2.393 . S
O553 C567 1.248 . S
O554 Tb515 2.465 . S
O554 C579 1.264 . S
O555 Tb515 2.387 . S
O555 C571 1.264 . S
O556 Tb504 2.349 . S
O556 C571 1.243 . S
O557 Tb515 2.428 . S
O557 C579 1.256 . S
O558 Tb515 2.308 . S
O558 C578 1.266 . S
O559 Tb504 2.393 . S
O559 C578 1.248 . S
C560 O549 1.264 . S
C560 O550 1.243 . S
C561 C564 1.399 . S
C561 C566 1.383 . S
C561 C568 1.496 . S
C562 C563 1.399 . S
C562 C566 1.389 . S
C563 C562 1.399 . S
C563 C565 1.380 . S
C563 H580 0.929 . S
C564 C561 1.399 . S
C564 C565 1.392 . S
C564 H581 0.929 . S
C565 C563 1.380 . S
C565 C564 1.392 . S
C565 H582 0.929 . S
C566 C561 1.383 . S
C566 C562 1.389 . S
C566 H583 0.931 . S
C567 O552 1.266 . S
C567 O553 1.248 . S
C568 Tb504 2.802 . S
C568 O548 1.264 . S
C568 O551 1.256 . S
C568 C561 1.496 . S
C569 C536 1.448 . S
C569 H546 0.930 . S
C569 C570 1.328 . S
C570 C541 1.427 . S
C570 H547 0.929 . S
C570 C569 1.328 . S
C571 O555 1.264 . S
C571 O556 1.243 . S
C572 C575 1.399 . S
C572 C576 1.383 . S
C572 C579 1.496 1_565 S
C573 C574 1.399 . S
C573 C576 1.389 . S
C574 C573 1.399 . S
C574 C577 1.380 . S
C574 H584 0.929 . S
C575 C572 1.399 . S
C575 C577 1.392 . S
C575 H585 0.929 . S
C576 C572 1.383 . S
C576 C573 1.389 . S
C576 H586 0.931 . S
C577 C574 1.380 . S
C577 C575 1.392 . S
C577 H587 0.929 . S
C578 O558 1.266 . S
C578 O559 1.248 . S
C579 Tb515 2.802 . S
C579 O554 1.264 . S
C579 O557 1.256 . S
C579 C572 1.496 1_545 S
H580 C563 0.929 . S
H581 C564 0.929 . S
H582 C565 0.929 . S
H583 C566 0.931 . S
H584 C574 0.929 . S
H585 C575 0.929 . S
H586 C576 0.931 . S
H587 C577 0.929 . S
Tb588 N617 2.617 . S
Tb588 N623 2.572 . S
Tb588 O632 2.465 . S
Tb588 O633 2.387 . S
Tb588 O635 2.428 . S
Tb588 O636 2.308 . S
Tb588 O640 2.349 . S
Tb588 O643 2.393 . S
Tb588 C652 2.802 . S
C589 N590 1.379 . S
C589 C592 1.416 . S
C589 C596 1.424 . S
N590 C589 1.379 . S
N590 C593 1.334 . S
N590 Tb599 2.617 . S
C591 C593 1.390 . S
C591 C594 1.339 . S
C591 H611 0.930 . S
C592 C589 1.416 . S
C592 C594 1.416 . S
C592 C598 1.448 . S
C593 N590 1.334 . S
C593 C591 1.390 . S
C593 H604 0.930 . S
C594 C591 1.339 . S
C594 C592 1.416 . S
C594 H615 0.930 . S
C595 C596 1.413 . S
C595 C597 1.427 . S
C595 C601 1.416 . S
C596 C589 1.424 . S
C596 C595 1.413 . S
C596 N600 1.361 . S
C597 C595 1.427 . S
C597 C598 1.328 . S
C597 H612 0.929 . S
C598 C592 1.448 . S
C598 C597 1.328 . S
C598 H613 0.930 . S
Tb599 N590 2.617 . S
Tb599 N600 2.572 . S
Tb599 O634 2.349 . S
Tb599 O637 2.393 . S
Tb599 O638 2.465 . S
Tb599 O639 2.387 . S
Tb599 O641 2.428 . S
Tb599 O642 2.308 . S
Tb599 C663 2.802 . S
N600 C596 1.361 . S
N600 Tb599 2.572 . S
N600 C602 1.340 . S
C601 C595 1.416 . S
C601 C603 1.332 . S
C601 H609 0.931 . S
C602 N600 1.340 . S
C602 C603 1.407 . S
C602 H608 0.930 . S
C603 C601 1.332 . S
C603 C602 1.407 . S
C603 H605 0.929 . S
H604 C593 0.930 . S
H605 C603 0.929 . S
H606 C621 0.930 . S
H607 C628 0.929 . S
H608 C602 0.930 . S
H609 C601 0.931 . S
H610 C624 0.930 . S
H611 C591 0.930 . S
H612 C597 0.929 . S
H613 C598 0.930 . S
H614 C619 0.930 . S
H615 C594 0.930 . S
H616 C627 0.931 . S
N617 Tb588 2.617 . S
N617 C618 1.379 . S
N617 C621 1.334 . S
C618 N617 1.379 . S
C618 C620 1.416 . S
C618 C626 1.424 . S
C619 H614 0.930 . S
C619 C621 1.390 . S
C619 C622 1.339 . S
C620 C618 1.416 . S
C620 C622 1.416 . S
C620 C653 1.448 . S
C621 H606 0.930 . S
C621 N617 1.334 . S
C621 C619 1.390 . S
C622 C619 1.339 . S
C622 C620 1.416 . S
C622 H629 0.930 . S
N623 Tb588 2.572 . S
N623 C624 1.340 . S
N623 C626 1.361 . S
C624 H610 0.930 . S
C624 N623 1.340 . S
C624 C628 1.407 . S
C625 C626 1.413 . S
C625 C627 1.416 . S
C625 C654 1.427 . S
C626 C618 1.424 . S
C626 N623 1.361 . S
C626 C625 1.413 . S
C627 H616 0.931 . S
C627 C625 1.416 . S
C627 C628 1.332 . S
C628 H607 0.929 . S
C628 C624 1.407 . S
C628 C627 1.332 . S
H629 C622 0.930 . S
H630 C653 0.930 . S
H631 C654 0.929 . S
O632 Tb588 2.465 . S
O632 C652 1.264 . S
O633 Tb588 2.387 . S
O633 C644 1.264 . S
O634 Tb599 2.349 . S
O634 C644 1.243 . S
O635 Tb588 2.428 . S
O635 C652 1.256 . S
O636 Tb588 2.308 . S
O636 C651 1.266 . S
O637 Tb599 2.393 . S
O637 C651 1.248 . S
O638 Tb599 2.465 . S
O638 C663 1.264 . S
O639 Tb599 2.387 . S
O639 C655 1.264 . S
O640 Tb588 2.349 . S
O640 C655 1.243 . S
O641 Tb599 2.428 . S
O641 C663 1.256 . S
O642 Tb599 2.308 . S
O642 C662 1.266 . S
O643 Tb588 2.393 . S
O643 C662 1.248 . S
C644 O633 1.264 . S
C644 O634 1.243 . S
C645 C648 1.399 . S
C645 C650 1.383 . S
C645 C652 1.496 . S
C646 C647 1.399 . S
C646 C650 1.389 . S
C647 C646 1.399 . S
C647 C649 1.380 . S
C647 H664 0.929 . S
C648 C645 1.399 . S
C648 C649 1.392 . S
C648 H665 0.929 . S
C649 C647 1.380 . S
C649 C648 1.392 . S
C649 H666 0.929 . S
C650 C645 1.383 . S
C650 C646 1.389 . S
C650 H667 0.931 . S
C651 O636 1.266 . S
C651 O637 1.248 . S
C652 Tb588 2.802 . S
C652 O632 1.264 . S
C652 O635 1.256 . S
C652 C645 1.496 . S
C653 C620 1.448 . S
C653 H630 0.930 . S
C653 C654 1.328 . S
C654 C625 1.427 . S
C654 H631 0.929 . S
C654 C653 1.328 . S
C655 O639 1.264 . S
C655 O640 1.243 . S
C656 C659 1.399 . S
C656 C660 1.383 . S
C656 C663 1.496 . S
C657 C658 1.399 . S
C657 C660 1.389 . S
C658 C657 1.399 . S
C658 C661 1.380 . S
C658 H668 0.929 . S
C659 C656 1.399 . S
C659 C661 1.392 . S
C659 H669 0.929 . S
C660 C656 1.383 . S
C660 C657 1.389 . S
C660 H670 0.931 . S
C661 C658 1.380 . S
C661 C659 1.392 . S
C661 H671 0.929 . S
C662 O642 1.266 . S
C662 O643 1.248 . S
C663 Tb599 2.802 . S
C663 O638 1.264 . S
C663 O641 1.256 . S
C663 C656 1.496 . S
H664 C647 0.929 . S
H665 C648 0.929 . S
H666 C649 0.929 . S
H667 C650 0.931 . S
H668 C658 0.929 . S
H669 C659 0.929 . S
H670 C660 0.931 . S
H671 C661 0.929 . S
Tb672 N701 2.617 . S
Tb672 N707 2.572 . S
Tb672 O716 2.465 . S
Tb672 O717 2.387 1_565 S
Tb672 O719 2.428 . S
Tb672 O720 2.250 1_465 S
Tb672 O724 2.349 1_565 S
Tb672 O727 2.393 1_565 S
Tb672 C736 2.802 . S
C673 N674 1.381 . S
C673 C676 1.420 . S
C673 C680 1.417 1_655 S
N674 C673 1.381 . S
N674 C677 1.334 . S
N674 Tb683 2.617 1_655 S
C675 C677 1.390 . S
C675 C678 1.339 . S
C675 H695 0.930 . S
C676 C673 1.420 . S
C676 C678 1.416 . S
C676 C682 1.430 1_655 S
C677 N674 1.334 . S
C677 C675 1.390 . S
C677 H688 0.930 . S
C678 C675 1.339 . S
C678 C676 1.416 . S
C678 H699 0.930 . S
C679 C680 1.413 . S
C679 C681 1.427 . S
C679 C685 1.416 . S
C680 C673 1.417 1_455 S
C680 C679 1.413 . S
C680 N684 1.361 . S
C681 C679 1.427 . S
C681 C682 1.383 . S
C681 H696 0.929 . S
C682 C676 1.430 1_455 S
C682 C681 1.383 . S
C682 H697 0.896 1_455 S
Tb683 N674 2.617 1_455 S
Tb683 N684 2.572 . S
Tb683 O718 2.349 . S
Tb683 O721 2.393 1_455 S
Tb683 O722 2.465 . S
Tb683 O723 2.387 . S
Tb683 O725 2.428 1_455 S
Tb683 O726 2.308 . S
Tb683 C747 2.802 . S
N684 C680 1.361 . S
N684 Tb683 2.572 . S
N684 C686 1.340 . S
C685 C679 1.416 . S
C685 C687 1.332 . S
C685 H693 0.931 . S
C686 N684 1.340 . S
C686 C687 1.407 . S
C686 H692 0.930 . S
C687 C685 1.332 . S
C687 C686 1.407 . S
C687 H689 0.929 . S
H688 C677 0.930 . S
H689 C687 0.929 . S
H690 C705 0.930 1_545 S
H691 C712 0.929 . S
H692 C686 0.930 . S
H693 C685 0.931 . S
H694 C708 0.930 . S
H695 C675 0.930 . S
H696 C681 0.929 . S
H697 C682 0.896 1_655 S
H698 C703 0.930 . S
H699 C678 0.930 . S
H700 C711 0.931 . S
N701 Tb672 2.617 . S
N701 C702 1.379 . S
N701 C705 1.334 . S
C702 N701 1.379 . S
C702 C704 1.416 . S
C702 C710 1.424 . S
C703 H698 0.930 . S
C703 C705 1.390 . S
C703 C706 1.339 . S
C704 C702 1.416 . S
C704 C706 1.416 . S
C704 C737 1.448 . S
C705 H690 0.930 1_565 S
C705 N701 1.334 . S
C705 C703 1.390 . S
C706 C703 1.339 . S
C706 C704 1.416 . S
C706 H713 0.930 . S
N707 Tb672 2.572 . S
N707 C708 1.340 1_455 S
N707 C710 1.361 . S
C708 H694 0.930 . S
C708 N707 1.340 1_655 S
C708 C712 1.407 . S
C709 C710 1.413 . S
C709 C711 1.416 1_455 S
C709 C738 1.427 . S
C710 C702 1.424 . S
C710 N707 1.361 . S
C710 C709 1.413 . S
C711 H700 0.931 . S
C711 C709 1.416 1_655 S
C711 C712 1.332 . S
C712 H691 0.929 . S
C712 C708 1.407 . S
C712 C711 1.332 . S
H713 C706 0.930 . S
H714 C737 0.930 . S
H715 C738 0.929 . S
O716 Tb672 2.465 . S
O716 C736 1.264 . S
O717 Tb672 2.387 1_545 S
O717 C728 1.264 . S
O718 Tb683 2.349 . S
O718 C728 1.243 . S
O719 Tb672 2.428 . S
O719 C736 1.256 . S
O720 Tb672 2.250 1_645 S
O720 C735 1.320 . S
O721 Tb683 2.393 1_655 S
O721 C735 1.248 . S
O722 Tb683 2.465 . S
O722 C747 1.264 . S
O723 Tb683 2.387 . S
O723 C739 1.264 . S
O724 Tb672 2.349 1_545 S
O724 C739 1.243 . S
O725 Tb683 2.428 1_655 S
O725 C747 1.256 1_655 S
O726 Tb683 2.308 . S
O726 C746 1.266 . S
O727 Tb672 2.393 1_545 S
O727 C746 1.248 . S
C728 O717 1.264 . S
C728 O718 1.243 . S
C729 C732 1.399 . S
C729 C734 1.383 . S
C729 C736 1.496 . S
C730 C731 1.399 . S
C730 C734 1.389 . S
C731 C730 1.399 . S
C731 C733 1.380 . S
C731 H748 0.929 . S
C732 C729 1.399 . S
C732 C733 1.392 . S
C732 H749 0.929 . S
C733 C731 1.380 . S
C733 C732 1.392 . S
C733 H750 0.929 . S
C734 C729 1.383 . S
C734 C730 1.389 . S
C734 H751 0.931 . S
C735 O720 1.320 . S
C735 O721 1.248 . S
C736 Tb672 2.802 . S
C736 O716 1.264 . S
C736 O719 1.256 . S
C736 C729 1.496 . S
C737 C704 1.448 . S
C737 H714 0.930 . S
C737 C738 1.328 . S
C738 C709 1.427 . S
C738 H715 0.929 . S
C738 C737 1.328 . S
C739 O723 1.264 . S
C739 O724 1.243 . S
C740 C743 1.399 1_455 S
C740 C744 1.383 . S
C740 C747 1.496 . S
C741 C742 1.399 1_455 S
C741 C744 1.389 . S
C742 C741 1.399 1_655 S
C742 C745 1.380 . S
C742 H752 0.929 . S
C743 C740 1.399 1_655 S
C743 C745 1.392 . S
C743 H753 0.929 . S
C744 C740 1.383 . S
C744 C741 1.389 . S
C744 H754 0.931 . S
C745 C742 1.380 . S
C745 C743 1.392 . S
C745 H755 0.929 . S
C746 O726 1.266 . S
C746 O727 1.248 . S
C747 Tb683 2.802 . S
C747 O722 1.264 . S
C747 O725 1.256 1_455 S
C747 C740 1.496 . S
H748 C731 0.929 . S
H749 C732 0.929 . S
H750 C733 0.929 . S
H751 C734 0.931 . S
H752 C742 0.929 . S
H753 C743 0.929 . S
H754 C744 0.931 . S
H755 C745 0.929 . S
Tb756 N785 2.617 . S
Tb756 N791 2.572 . S
Tb756 O800 2.465 . S
Tb756 O801 2.387 . S
Tb756 O803 2.428 . S
Tb756 O804 2.308 . S
Tb756 O808 2.349 . S
Tb756 O811 2.393 . S
Tb756 C820 2.802 . S
C757 N758 1.379 . S
C757 C760 1.416 . S
C757 C764 1.424 . S
N758 C757 1.379 . S
N758 C761 1.334 . S
N758 Tb767 2.617 . S
C759 C761 1.390 . S
C759 C762 1.339 . S
C759 H779 0.930 . S
C760 C757 1.416 . S
C760 C762 1.416 . S
C760 C766 1.448 . S
C761 N758 1.334 . S
C761 C759 1.390 . S
C761 H772 0.930 . S
C762 C759 1.339 . S
C762 C760 1.416 . S
C762 H783 0.930 . S
C763 C764 1.413 . S
C763 C765 1.427 . S
C763 C769 1.416 . S
C764 C757 1.424 . S
C764 C763 1.413 . S
C764 N768 1.361 . S
C765 C763 1.427 . S
C765 C766 1.328 . S
C765 H780 0.929 . S
C766 C760 1.448 . S
C766 C765 1.328 . S
C766 H781 0.930 . S
Tb767 N758 2.617 . S
Tb767 N768 2.572 . S
Tb767 O802 2.349 . S
Tb767 O805 2.393 . S
Tb767 O806 2.465 . S
Tb767 O807 2.387 . S
Tb767 O809 2.428 . S
Tb767 O810 2.308 . S
Tb767 C831 2.802 . S
N768 C764 1.361 . S
N768 Tb767 2.572 . S
N768 C770 1.340 . S
C769 C763 1.416 . S
C769 C771 1.332 . S
C769 H777 0.931 . S
C770 N768 1.340 . S
C770 C771 1.407 . S
C770 H776 0.930 . S
C771 C769 1.332 . S
C771 C770 1.407 . S
C771 H773 0.929 . S
H772 C761 0.930 . S
H773 C771 0.929 . S
H774 C789 0.930 . S
H775 C796 0.929 . S
H776 C770 0.930 . S
H777 C769 0.931 . S
H778 C792 0.930 . S
H779 C759 0.930 . S
H780 C765 0.929 . S
H781 C766 0.930 . S
H782 C787 0.930 . S
H783 C762 0.930 . S
H784 C795 0.931 . S
N785 Tb756 2.617 . S
N785 C786 1.379 . S
N785 C789 1.334 . S
C786 N785 1.379 . S
C786 C788 1.416 . S
C786 C794 1.424 . S
C787 H782 0.930 . S
C787 C789 1.390 . S
C787 C790 1.339 . S
C788 C786 1.416 . S
C788 C790 1.416 . S
C788 C821 1.448 . S
C789 H774 0.930 . S
C789 N785 1.334 . S
C789 C787 1.390 . S
C790 C787 1.339 . S
C790 C788 1.416 . S
C790 H797 0.930 . S
N791 Tb756 2.572 . S
N791 C792 1.340 . S
N791 C794 1.361 . S
C792 H778 0.930 . S
C792 N791 1.340 . S
C792 C796 1.407 . S
C793 C794 1.413 . S
C793 C795 1.416 . S
C793 C822 1.427 . S
C794 C786 1.424 . S
C794 N791 1.361 . S
C794 C793 1.413 . S
C795 H784 0.931 . S
C795 C793 1.416 . S
C795 C796 1.332 . S
C796 H775 0.929 . S
C796 C792 1.407 . S
C796 C795 1.332 . S
H797 C790 0.930 . S
H798 C821 0.930 . S
H799 C822 0.929 . S
O800 Tb756 2.465 . S
O800 C820 1.264 . S
O801 Tb756 2.387 . S
O801 C812 1.264 . S
O802 Tb767 2.349 . S
O802 C812 1.243 . S
O803 Tb756 2.428 . S
O803 C820 1.256 . S
O804 Tb756 2.308 . S
O804 C819 1.266 . S
O805 Tb767 2.393 . S
O805 C819 1.248 . S
O806 Tb767 2.465 . S
O806 C831 1.264 . S
O807 Tb767 2.387 . S
O807 C823 1.264 . S
O808 Tb756 2.349 . S
O808 C823 1.243 . S
O809 Tb767 2.428 . S
O809 C831 1.256 . S
O810 Tb767 2.308 . S
O810 C830 1.266 . S
O811 Tb756 2.393 . S
O811 C830 1.248 . S
C812 O801 1.264 . S
C812 O802 1.243 . S
C813 C816 1.399 . S
C813 C818 1.383 . S
C813 C820 1.496 . S
C814 C815 1.399 . S
C814 C818 1.389 . S
C815 C814 1.399 . S
C815 C817 1.380 . S
C815 H832 0.929 . S
C816 C813 1.399 . S
C816 C817 1.392 . S
C816 H833 0.929 . S
C817 C815 1.380 . S
C817 C816 1.392 . S
C817 H834 0.929 . S
C818 C813 1.383 . S
C818 C814 1.389 . S
C818 H835 0.931 . S
C819 O804 1.266 . S
C819 O805 1.248 . S
C820 Tb756 2.802 . S
C820 O800 1.264 . S
C820 O803 1.256 . S
C820 C813 1.496 . S
C821 C788 1.448 . S
C821 H798 0.930 . S
C821 C822 1.328 . S
C822 C793 1.427 . S
C822 H799 0.929 . S
C822 C821 1.328 . S
C823 O807 1.264 . S
C823 O808 1.243 . S
C824 C827 1.399 . S
C824 C828 1.383 . S
C824 C831 1.496 . S
C825 C826 1.399 . S
C825 C828 1.389 . S
C826 C825 1.399 . S
C826 C829 1.380 . S
C826 H836 0.929 . S
C827 C824 1.399 . S
C827 C829 1.392 . S
C827 H837 0.929 . S
C828 C824 1.383 . S
C828 C825 1.389 . S
C828 H838 0.931 . S
C829 C826 1.380 . S
C829 C827 1.392 . S
C829 H839 0.929 . S
C830 O810 1.266 . S
C830 O811 1.248 . S
C831 Tb767 2.802 . S
C831 O806 1.264 . S
C831 O809 1.256 . S
C831 C824 1.496 . S
H832 C815 0.929 . S
H833 C816 0.929 . S
H834 C817 0.929 . S
H835 C818 0.931 . S
H836 C826 0.929 . S
H837 C827 0.929 . S
H838 C828 0.931 . S
H839 C829 0.929 . S
Tb840 N869 2.617 . S
Tb840 N875 2.572 . S
Tb840 O884 2.465 . S
Tb840 O885 2.387 1_556 S
Tb840 O887 2.428 . S
Tb840 O888 2.308 . S
Tb840 O892 2.349 1_556 S
Tb840 O895 2.393 1_556 S
Tb840 C904 2.802 . S
C841 N842 1.379 . S
C841 C844 1.416 . S
C841 C848 1.424 1_565 S
N842 C841 1.379 . S
N842 C845 1.334 . S
N842 Tb851 2.617 1_565 S
C843 C845 1.390 . S
C843 C846 1.339 . S
C843 H863 0.930 . S
C844 C841 1.416 . S
C844 C846 1.416 . S
C844 C850 1.448 . S
C845 N842 1.334 . S
C845 C843 1.390 . S
C845 H856 0.930 . S
C846 C843 1.339 . S
C846 C844 1.416 . S
C846 H867 0.930 . S
C847 C848 1.413 . S
C847 C849 1.427 . S
C847 C853 1.416 . S
C848 C841 1.424 1_545 S
C848 C847 1.413 . S
C848 N852 1.361 . S
C849 C847 1.427 . S
C849 C850 1.328 1_545 S
C849 H864 0.929 . S
C850 C844 1.448 . S
C850 C849 1.328 1_565 S
C850 H865 0.930 . S
Tb851 N842 2.617 1_545 S
Tb851 N852 2.572 . S
Tb851 O886 2.349 . S
Tb851 O889 2.393 1_545 S
Tb851 O890 2.465 . S
Tb851 O891 2.387 . S
Tb851 O893 2.428 1_545 S
Tb851 O894 2.308 . S
Tb851 C915 2.802 1_545 S
N852 C848 1.361 . S
N852 Tb851 2.572 . S
N852 C854 1.340 . S
C853 C847 1.416 . S
C853 C855 1.332 . S
C853 H861 0.931 . S
C854 N852 1.340 . S
C854 C855 1.407 . S
C854 H860 0.930 . S
C855 C853 1.332 . S
C855 C854 1.407 . S
C855 H857 0.929 . S
H856 C845 0.930 . S
H857 C855 0.929 . S
H858 C873 0.932 . S
H859 C880 0.929 . S
H860 C854 0.930 . S
H861 C853 0.931 . S
H862 C876 0.914 1_565 S
H863 C843 0.930 . S
H864 C849 0.929 . S
H865 C850 0.930 . S
H866 C871 0.930 . S
H867 C846 0.930 . S
H868 C879 0.935 . S
N869 Tb840 2.617 . S
N869 C870 1.379 . S
N869 C873 1.334 . S
C870 N869 1.379 . S
C870 C872 1.416 . S
C870 C878 1.424 . S
C871 H866 0.930 . S
C871 C873 1.390 . S
C871 C874 1.339 . S
C872 C870 1.416 . S
C872 C874 1.416 . S
C872 C905 1.448 . S
C873 H858 0.932 . S
C873 N869 1.334 . S
C873 C871 1.390 . S
C874 C871 1.339 . S
C874 C872 1.416 . S
C874 H881 0.930 . S
N875 Tb840 2.572 . S
N875 C876 1.360 . S
N875 C878 1.361 . S
C876 H862 0.914 1_545 S
C876 N875 1.360 . S
C876 C880 1.402 1_545 S
C877 C878 1.413 . S
C877 C879 1.402 1_545 S
C877 C906 1.427 . S
C878 C870 1.424 . S
C878 N875 1.361 . S
C878 C877 1.413 . S
C879 H868 0.935 . S
C879 C877 1.402 1_565 S
C879 C880 1.343 . S
C880 H859 0.929 . S
C880 C876 1.402 1_565 S
C880 C879 1.343 . S
H881 C874 0.930 . S
H882 C905 0.930 . S
H883 C906 0.929 . S
O884 Tb840 2.465 . S
O884 C904 1.264 . S
O885 Tb840 2.387 1_554 S
O885 C896 1.264 . S
O886 Tb851 2.349 . S
O886 C896 1.243 . S
O887 Tb840 2.428 . S
O887 C904 1.256 . S
O888 Tb840 2.308 . S
O888 C903 1.275 1_545 S
O889 Tb851 2.393 1_565 S
O889 C903 1.226 1_554 S
O890 Tb851 2.465 . S
O890 C915 1.264 1_545 S
O891 Tb851 2.387 . S
O891 C907 1.264 . S
O892 Tb840 2.349 1_554 S
O892 C907 1.243 . S
O893 Tb851 2.428 1_565 S
O893 C915 1.256 . S
O894 Tb851 2.308 . S
O894 C914 1.266 . S
O895 Tb840 2.393 1_554 S
O895 C914 1.248 . S
C896 O885 1.264 . S
C896 O886 1.243 . S
C897 C900 1.399 . S
C897 C902 1.383 . S
C897 C904 1.496 . S
C898 C899 1.399 . S
C898 C902 1.389 . S
C899 C898 1.399 . S
C899 C901 1.380 . S
C899 H916 0.929 . S
C900 C897 1.399 . S
C900 C901 1.392 . S
C900 H917 0.929 . S
C901 C899 1.380 . S
C901 C900 1.392 . S
C901 H918 0.929 . S
C902 C897 1.383 . S
C902 C898 1.389 . S
C902 H919 0.931 . S
C903 O888 1.275 1_565 S
C903 O889 1.226 1_556 S
C904 Tb840 2.802 . S
C904 O884 1.264 . S
C904 O887 1.256 . S
C904 C897 1.496 . S
C905 C872 1.448 . S
C905 H882 0.930 . S
C905 C906 1.328 . S
C906 C877 1.427 . S
C906 H883 0.929 . S
C906 C905 1.328 . S
C907 O891 1.264 . S
C907 O892 1.243 . S
C908 C911 1.399 . S
C908 C912 1.383 1_565 S
C908 C915 1.496 . S
C909 C910 1.366 1_545 S
C909 C912 1.399 . S
C910 C909 1.366 1_565 S
C910 C913 1.380 . S
C910 H920 0.929 . S
C911 C908 1.399 . S
C911 C913 1.392 . S
C911 H921 0.929 . S
C912 C908 1.383 1_545 S
C912 C909 1.399 . S
C912 H922 0.931 . S
C913 C910 1.380 . S
C913 C911 1.392 . S
C913 H923 0.929 . S
C914 O894 1.266 . S
C914 O895 1.248 . S
C915 Tb851 2.802 1_565 S
C915 O890 1.264 1_565 S
C915 O893 1.256 . S
C915 C908 1.496 . S
H916 C899 0.929 . S
H917 C900 0.929 . S
H918 C901 0.929 . S
H919 C902 0.931 . S
H920 C910 0.929 . S
H921 C911 0.929 . S
H922 C912 0.931 . S
H923 C913 0.929 . S
Tb924 N953 2.617 . S
Tb924 N959 2.572 . S
Tb924 O968 2.465 . S
Tb924 O969 2.387 . S
Tb924 O971 2.428 . S
Tb924 O972 2.308 . S
Tb924 O976 2.349 . S
Tb924 O979 2.393 . S
Tb924 C988 2.802 . S
C925 N926 1.379 . S
C925 C928 1.416 . S
C925 C932 1.424 . S
N926 C925 1.379 . S
N926 C929 1.334 . S
N926 Tb935 2.617 . S
C927 C929 1.390 . S
C927 C930 1.339 . S
C927 H947 0.930 . S
C928 C925 1.416 . S
C928 C930 1.416 . S
C928 C934 1.448 . S
C929 N926 1.334 . S
C929 C927 1.390 . S
C929 H940 0.930 . S
C930 C927 1.339 . S
C930 C928 1.416 . S
C930 H951 0.930 . S
C931 C932 1.413 . S
C931 C933 1.427 . S
C931 C937 1.416 . S
C932 C925 1.424 . S
C932 C931 1.413 . S
C932 N936 1.361 . S
C933 C931 1.427 . S
C933 C934 1.328 . S
C933 H948 0.929 . S
C934 C928 1.448 . S
C934 C933 1.328 . S
C934 H949 0.930 . S
Tb935 N926 2.617 . S
Tb935 N936 2.572 . S
Tb935 O970 2.349 . S
Tb935 O973 2.393 . S
Tb935 O974 2.465 . S
Tb935 O975 2.387 . S
Tb935 O977 2.428 . S
Tb935 O978 2.308 . S
Tb935 C999 2.802 . S
N936 C932 1.361 . S
N936 Tb935 2.572 . S
N936 C938 1.340 . S
C937 C931 1.416 . S
C937 C939 1.332 . S
C937 H945 0.931 . S
C938 N936 1.340 . S
C938 C939 1.407 . S
C938 H944 0.930 . S
C939 C937 1.332 . S
C939 C938 1.407 . S
C939 H941 0.929 . S
H940 C929 0.930 . S
H941 C939 0.929 . S
H942 C957 0.930 . S
H943 C964 0.929 . S
H944 C938 0.930 . S
H945 C937 0.931 . S
H946 C960 0.930 . S
H947 C927 0.930 . S
H948 C933 0.929 . S
H949 C934 0.930 . S
H950 C955 0.930 . S
H951 C930 0.930 . S
H952 C963 0.931 . S
N953 Tb924 2.617 . S
N953 C954 1.379 . S
N953 C957 1.334 . S
C954 N953 1.379 . S
C954 C956 1.416 . S
C954 C962 1.424 . S
C955 H950 0.930 . S
C955 C957 1.390 . S
C955 C958 1.339 . S
C956 C954 1.416 . S
C956 C958 1.416 . S
C956 C989 1.448 . S
C957 H942 0.930 . S
C957 N953 1.334 . S
C957 C955 1.390 . S
C958 C955 1.339 . S
C958 C956 1.416 . S
C958 H965 0.930 . S
N959 Tb924 2.572 . S
N959 C960 1.340 . S
N959 C962 1.361 . S
C960 H946 0.930 . S
C960 N959 1.340 . S
C960 C964 1.407 . S
C961 C962 1.413 . S
C961 C963 1.416 . S
C961 C990 1.427 . S
C962 C954 1.424 . S
C962 N959 1.361 . S
C962 C961 1.413 . S
C963 H952 0.931 . S
C963 C961 1.416 . S
C963 C964 1.332 . S
C964 H943 0.929 . S
C964 C960 1.407 . S
C964 C963 1.332 . S
H965 C958 0.930 . S
H966 C989 0.930 . S
H967 C990 0.929 . S
O968 Tb924 2.465 . S
O968 C988 1.264 . S
O969 Tb924 2.387 . S
O969 C980 1.264 . S
O970 Tb935 2.349 . S
O970 C980 1.243 . S
O971 Tb924 2.428 . S
O971 C988 1.256 . S
O972 Tb924 2.308 . S
O972 C987 1.266 . S
O973 Tb935 2.393 . S
O973 C987 1.248 . S
O974 Tb935 2.465 . S
O974 C999 1.264 . S
O975 Tb935 2.387 . S
O975 C991 1.264 . S
O976 Tb924 2.349 . S
O976 C991 1.243 . S
O977 Tb935 2.428 . S
O977 C999 1.256 . S
O978 Tb935 2.308 . S
O978 C998 1.266 . S
O979 Tb924 2.393 . S
O979 C998 1.248 . S
C980 O969 1.264 . S
C980 O970 1.243 . S
C981 C984 1.399 . S
C981 C986 1.383 . S
C981 C988 1.496 . S
C982 C983 1.399 . S
C982 C986 1.389 . S
C983 C982 1.399 . S
C983 C985 1.380 . S
C983 H1000 0.929 . S
C984 C981 1.399 . S
C984 C985 1.392 . S
C984 H1001 0.929 . S
C985 C983 1.380 . S
C985 C984 1.392 . S
C985 H1002 0.929 . S
C986 C981 1.383 . S
C986 C982 1.389 . S
C986 H1003 0.931 . S
C987 O972 1.266 . S
C987 O973 1.248 . S
C988 Tb924 2.802 . S
C988 O968 1.264 . S
C988 O971 1.256 . S
C988 C981 1.496 . S
C989 C956 1.448 . S
C989 H966 0.930 . S
C989 C990 1.328 . S
C990 C961 1.427 . S
C990 H967 0.929 . S
C990 C989 1.328 . S
C991 O975 1.264 . S
C991 O976 1.243 . S
C992 C995 1.399 . S
C992 C996 1.383 . S
C992 C999 1.496 . S
C993 C994 1.399 . S
C993 C996 1.389 . S
C994 C993 1.399 . S
C994 C997 1.380 . S
C994 H1004 0.929 . S
C995 C992 1.399 . S
C995 C997 1.392 . S
C995 H1005 0.929 . S
C996 C992 1.383 . S
C996 C993 1.389 . S
C996 H1006 0.931 . S
C997 C994 1.380 . S
C997 C995 1.392 . S
C997 H1007 0.929 . S
C998 O978 1.266 . S
C998 O979 1.248 . S
C999 Tb935 2.802 . S
C999 O974 1.264 . S
C999 O977 1.256 . S
C999 C992 1.496 . S
H1000 C983 0.929 . S
H1001 C984 0.929 . S
H1002 C985 0.929 . S
H1003 C986 0.931 . S
H1004 C994 0.929 . S
H1005 C995 0.929 . S
H1006 C996 0.931 . S
H1007 C997 0.929 . S
Tb1008 N1037 2.617 1_554 S
Tb1008 N1043 2.572 1_554 S
Tb1008 O1052 2.465 . S
Tb1008 O1053 2.387 1_554 S
Tb1008 O1055 2.428 . S
Tb1008 O1056 2.308 . S
Tb1008 O1060 2.349 . S
Tb1008 O1063 2.393 . S
Tb1008 C1072 2.802 . S
C1009 N1010 1.379 . S
C1009 C1012 1.416 . S
C1009 C1016 1.424 . S
N1010 C1009 1.379 . S
N1010 C1013 1.334 . S
N1010 Tb1019 2.617 . S
C1011 C1013 1.390 . S
C1011 C1014 1.339 . S
C1011 H1031 0.930 . S
C1012 C1009 1.416 . S
C1012 C1014 1.416 . S
C1012 C1018 1.448 . S
C1013 N1010 1.334 . S
C1013 C1011 1.390 . S
C1013 H1024 0.930 . S
C1014 C1011 1.339 . S
C1014 C1012 1.416 . S
C1014 H1035 0.930 . S
C1015 C1016 1.413 . S
C1015 C1017 1.427 . S
C1015 C1021 1.416 . S
C1016 C1009 1.424 . S
C1016 C1015 1.413 . S
C1016 N1020 1.361 . S
C1017 C1015 1.427 . S
C1017 C1018 1.328 . S
C1017 H1032 0.929 . S
C1018 C1012 1.448 . S
C1018 C1017 1.328 . S
C1018 H1033 0.930 . S
Tb1019 N1010 2.617 . S
Tb1019 N1020 2.572 . S
Tb1019 O1054 2.349 1_554 S
Tb1019 O1057 2.393 . S
Tb1019 O1058 2.465 . S
Tb1019 O1059 2.387 . S
Tb1019 O1061 2.428 . S
Tb1019 O1062 2.308 . S
Tb1019 C1083 2.802 . S
N1020 C1016 1.361 . S
N1020 Tb1019 2.572 . S
N1020 C1022 1.340 . S
C1021 C1015 1.416 . S
C1021 C1023 1.332 . S
C1021 H1029 0.931 . S
C1022 N1020 1.340 . S
C1022 C1023 1.407 . S
C1022 H1028 0.930 . S
C1023 C1021 1.332 . S
C1023 C1022 1.407 . S
C1023 H1025 0.929 . S
H1024 C1013 0.930 . S
H1025 C1023 0.929 . S
H1026 C1041 0.930 . S
H1027 C1048 0.929 . S
H1028 C1022 0.930 . S
H1029 C1021 0.931 . S
H1030 C1044 0.930 . S
H1031 C1011 0.930 . S
H1032 C1017 0.929 . S
H1033 C1018 0.930 . S
H1034 C1039 0.930 . S
H1035 C1014 0.930 . S
H1036 C1047 0.931 . S
N1037 Tb1008 2.617 1_556 S
N1037 C1038 1.379 . S
N1037 C1041 1.334 . S
C1038 N1037 1.379 . S
C1038 C1040 1.416 . S
C1038 C1046 1.424 . S
C1039 H1034 0.930 . S
C1039 C1041 1.390 . S
C1039 C1042 1.339 . S
C1040 C1038 1.416 . S
C1040 C1042 1.416 . S
C1040 C1073 1.448 . S
C1041 H1026 0.930 . S
C1041 N1037 1.334 . S
C1041 C1039 1.390 . S
C1042 C1039 1.339 . S
C1042 C1040 1.416 . S
C1042 H1049 0.930 . S
N1043 Tb1008 2.572 1_556 S
N1043 C1044 1.340 . S
N1043 C1046 1.361 . S
C1044 H1030 0.930 . S
C1044 N1043 1.340 . S
C1044 C1048 1.407 . S
C1045 C1046 1.413 . S
C1045 C1047 1.416 . S
C1045 C1074 1.427 . S
C1046 C1038 1.424 . S
C1046 N1043 1.361 . S
C1046 C1045 1.413 . S
C1047 H1036 0.931 . S
C1047 C1045 1.416 . S
C1047 C1048 1.332 . S
C1048 H1027 0.929 . S
C1048 C1044 1.407 . S
C1048 C1047 1.332 . S
H1049 C1042 0.930 . S
H1050 C1073 0.930 . S
H1051 C1074 0.929 . S
O1052 Tb1008 2.465 . S
O1052 C1072 1.264 . S
O1053 Tb1008 2.387 1_556 S
O1053 C1064 1.264 . S
O1054 Tb1019 2.349 1_556 S
O1054 C1064 1.243 . S
O1055 Tb1008 2.428 . S
O1055 C1072 1.256 . S
O1056 Tb1008 2.308 . S
O1056 C1071 1.266 . S
O1057 Tb1019 2.393 . S
O1057 C1071 1.248 . S
O1058 Tb1019 2.465 . S
O1058 C1083 1.264 . S
O1059 Tb1019 2.387 . S
O1059 C1075 1.264 . S
O1060 Tb1008 2.349 . S
O1060 C1075 1.243 . S
O1061 Tb1019 2.428 . S
O1061 C1083 1.256 . S
O1062 Tb1019 2.308 . S
O1062 C1082 1.266 . S
O1063 Tb1008 2.393 . S
O1063 C1082 1.248 . S
C1064 O1053 1.264 . S
C1064 O1054 1.243 . S
C1065 C1068 1.399 . S
C1065 C1070 1.383 . S
C1065 C1072 1.496 . S
C1066 C1067 1.399 . S
C1066 C1070 1.389 . S
C1067 C1066 1.399 . S
C1067 C1069 1.380 . S
C1067 H1084 0.929 . S
C1068 C1065 1.399 . S
C1068 C1069 1.392 . S
C1068 H1085 0.929 . S
C1069 C1067 1.380 . S
C1069 C1068 1.392 . S
C1069 H1086 0.929 . S
C1070 C1065 1.383 . S
C1070 C1066 1.389 . S
C1070 H1087 0.931 . S
C1071 O1056 1.266 . S
C1071 O1057 1.248 . S
C1072 Tb1008 2.802 . S
C1072 O1052 1.264 . S
C1072 O1055 1.256 . S
C1072 C1065 1.496 . S
C1073 C1040 1.448 . S
C1073 H1050 0.930 . S
C1073 C1074 1.328 . S
C1074 C1045 1.427 . S
C1074 H1051 0.929 . S
C1074 C1073 1.328 . S
C1075 O1059 1.264 . S
C1075 O1060 1.243 . S
C1076 C1079 1.399 . S
C1076 C1080 1.383 . S
C1076 C1083 1.496 1_556 S
C1077 C1078 1.399 . S
C1077 C1080 1.389 . S
C1078 C1077 1.399 . S
C1078 C1081 1.380 . S
C1078 H1088 0.929 . S
C1079 C1076 1.399 . S
C1079 C1081 1.392 . S
C1079 H1089 0.929 . S
C1080 C1076 1.383 . S
C1080 C1077 1.389 . S
C1080 H1090 0.931 . S
C1081 C1078 1.380 . S
C1081 C1079 1.392 . S
C1081 H1091 0.929 . S
C1082 O1062 1.266 . S
C1082 O1063 1.248 . S
C1083 Tb1019 2.802 . S
C1083 O1058 1.264 . S
C1083 O1061 1.256 . S
C1083 C1076 1.496 1_554 S
H1084 C1067 0.929 . S
H1085 C1068 0.929 . S
H1086 C1069 0.929 . S
H1087 C1070 0.931 . S
H1088 C1078 0.929 . S
H1089 C1079 0.929 . S
H1090 C1080 0.931 . S
H1091 C1081 0.929 . S
Tb1092 N1121 2.617 . S
Tb1092 N1127 2.572 . S
Tb1092 O1136 2.465 . S
Tb1092 O1137 2.387 . S
Tb1092 O1139 2.428 . S
Tb1092 O1140 2.308 . S
Tb1092 O1144 2.349 . S
Tb1092 O1147 2.393 . S
Tb1092 C1156 2.802 . S
C1093 N1094 1.379 . S
C1093 C1096 1.416 . S
C1093 C1100 1.424 . S
N1094 C1093 1.379 . S
N1094 C1097 1.334 . S
N1094 Tb1103 2.617 . S
C1095 C1097 1.390 . S
C1095 C1098 1.339 . S
C1095 H1115 0.930 . S
C1096 C1093 1.416 . S
C1096 C1098 1.416 . S
C1096 C1102 1.448 . S
C1097 N1094 1.334 . S
C1097 C1095 1.390 . S
C1097 H1108 0.930 . S
C1098 C1095 1.339 . S
C1098 C1096 1.416 . S
C1098 H1119 0.930 . S
C1099 C1100 1.413 . S
C1099 C1101 1.427 . S
C1099 C1105 1.416 . S
C1100 C1093 1.424 . S
C1100 C1099 1.413 . S
C1100 N1104 1.361 . S
C1101 C1099 1.427 . S
C1101 C1102 1.328 . S
C1101 H1116 0.929 . S
C1102 C1096 1.448 . S
C1102 C1101 1.328 . S
C1102 H1117 0.930 . S
Tb1103 N1094 2.617 . S
Tb1103 N1104 2.572 . S
Tb1103 O1138 2.349 . S
Tb1103 O1141 2.393 . S
Tb1103 O1142 2.465 . S
Tb1103 O1143 2.387 . S
Tb1103 O1145 2.428 . S
Tb1103 O1146 2.308 . S
Tb1103 C1167 2.802 . S
N1104 C1100 1.361 . S
N1104 Tb1103 2.572 . S
N1104 C1106 1.340 . S
C1105 C1099 1.416 . S
C1105 C1107 1.332 . S
C1105 H1113 0.931 . S
C1106 N1104 1.340 . S
C1106 C1107 1.407 . S
C1106 H1112 0.930 . S
C1107 C1105 1.332 . S
C1107 C1106 1.407 . S
C1107 H1109 0.929 . S
H1108 C1097 0.930 . S
H1109 C1107 0.929 . S
H1110 C1125 0.930 . S
H1111 C1132 0.929 . S
H1112 C1106 0.930 . S
H1113 C1105 0.931 . S
H1114 C1128 0.930 . S
H1115 C1095 0.930 . S
H1116 C1101 0.929 . S
H1117 C1102 0.930 . S
H1118 C1123 0.930 . S
H1119 C1098 0.930 . S
H1120 C1131 0.931 . S
N1121 Tb1092 2.617 . S
N1121 C1122 1.379 . S
N1121 C1125 1.334 . S
C1122 N1121 1.379 . S
C1122 C1124 1.416 . S
C1122 C1130 1.424 . S
C1123 H1118 0.930 . S
C1123 C1125 1.390 . S
C1123 C1126 1.339 . S
C1124 C1122 1.416 . S
C1124 C1126 1.416 . S
C1124 C1157 1.448 . S
C1125 H1110 0.930 . S
C1125 N1121 1.334 . S
C1125 C1123 1.390 . S
C1126 C1123 1.339 . S
C1126 C1124 1.416 . S
C1126 H1133 0.930 . S
N1127 Tb1092 2.572 . S
N1127 C1128 1.340 . S
N1127 C1130 1.361 . S
C1128 H1114 0.930 . S
C1128 N1127 1.340 . S
C1128 C1132 1.407 . S
C1129 C1130 1.413 . S
C1129 C1131 1.416 . S
C1129 C1158 1.427 . S
C1130 C1122 1.424 . S
C1130 N1127 1.361 . S
C1130 C1129 1.413 . S
C1131 H1120 0.931 . S
C1131 C1129 1.416 . S
C1131 C1132 1.332 . S
C1132 H1111 0.929 . S
C1132 C1128 1.407 . S
C1132 C1131 1.332 . S
H1133 C1126 0.930 . S
H1134 C1157 0.930 . S
H1135 C1158 0.929 . S
O1136 Tb1092 2.465 . S
O1136 C1156 1.264 . S
O1137 Tb1092 2.387 . S
O1137 C1148 1.264 . S
O1138 Tb1103 2.349 . S
O1138 C1148 1.243 . S
O1139 Tb1092 2.428 . S
O1139 C1156 1.256 . S
O1140 Tb1092 2.308 . S
O1140 C1155 1.266 . S
O1141 Tb1103 2.393 . S
O1141 C1155 1.248 . S
O1142 Tb1103 2.465 . S
O1142 C1167 1.264 . S
O1143 Tb1103 2.387 . S
O1143 C1159 1.264 . S
O1144 Tb1092 2.349 . S
O1144 C1159 1.243 . S
O1145 Tb1103 2.428 . S
O1145 C1167 1.256 . S
O1146 Tb1103 2.308 . S
O1146 C1166 1.266 . S
O1147 Tb1092 2.393 . S
O1147 C1166 1.248 . S
C1148 O1137 1.264 . S
C1148 O1138 1.243 . S
C1149 C1152 1.399 . S
C1149 C1154 1.383 . S
C1149 C1156 1.496 . S
C1150 C1151 1.399 . S
C1150 C1154 1.389 . S
C1151 C1150 1.399 . S
C1151 C1153 1.380 . S
C1151 H1168 0.929 . S
C1152 C1149 1.399 . S
C1152 C1153 1.392 . S
C1152 H1169 0.929 . S
C1153 C1151 1.380 . S
C1153 C1152 1.392 . S
C1153 H1170 0.929 . S
C1154 C1149 1.383 . S
C1154 C1150 1.389 . S
C1154 H1171 0.931 . S
C1155 O1140 1.266 . S
C1155 O1141 1.248 . S
C1156 Tb1092 2.802 . S
C1156 O1136 1.264 . S
C1156 O1139 1.256 . S
C1156 C1149 1.496 . S
C1157 C1124 1.448 . S
C1157 H1134 0.930 . S
C1157 C1158 1.328 . S
C1158 C1129 1.427 . S
C1158 H1135 0.929 . S
C1158 C1157 1.328 . S
C1159 O1143 1.264 . S
C1159 O1144 1.243 . S
C1160 C1163 1.399 . S
C1160 C1164 1.383 . S
C1160 C1167 1.496 . S
C1161 C1162 1.399 . S
C1161 C1164 1.389 . S
C1162 C1161 1.399 . S
C1162 C1165 1.380 . S
C1162 H1172 0.929 . S
C1163 C1160 1.399 . S
C1163 C1165 1.392 . S
C1163 H1173 0.929 . S
C1164 C1160 1.383 . S
C1164 C1161 1.389 . S
C1164 H1174 0.931 . S
C1165 C1162 1.380 . S
C1165 C1163 1.392 . S
C1165 H1175 0.929 . S
C1166 O1146 1.266 . S
C1166 O1147 1.248 . S
C1167 Tb1103 2.802 . S
C1167 O1142 1.264 . S
C1167 O1145 1.256 . S
C1167 C1160 1.496 . S
H1168 C1151 0.929 . S
H1169 C1152 0.929 . S
H1170 C1153 0.929 . S
H1171 C1154 0.931 . S
H1172 C1162 0.929 . S
H1173 C1163 0.929 . S
H1174 C1164 0.931 . S
H1175 C1165 0.929 . S
Tb1176 N1205 2.617 1_455 S
Tb1176 N1211 2.572 1_455 S
Tb1176 O1220 2.465 . S
Tb1176 O1221 2.387 1_455 S
Tb1176 O1223 2.428 . S
Tb1176 O1224 2.308 . S
Tb1176 O1228 2.349 . S
Tb1176 O1231 2.393 . S
Tb1176 C1240 2.802 . S
C1177 N1178 1.379 . S
C1177 C1180 1.416 . S
C1177 C1184 1.424 . S
N1178 C1177 1.379 . S
N1178 C1181 1.334 . S
N1178 Tb1187 2.617 . S
C1179 C1181 1.390 . S
C1179 C1182 1.339 . S
C1179 H1199 0.930 . S
C1180 C1177 1.416 . S
C1180 C1182 1.416 . S
C1180 C1186 1.448 . S
C1181 N1178 1.334 . S
C1181 C1179 1.390 . S
C1181 H1192 0.930 . S
C1182 C1179 1.339 . S
C1182 C1180 1.416 . S
C1182 H1203 0.930 . S
C1183 C1184 1.413 . S
C1183 C1185 1.427 . S
C1183 C1189 1.416 . S
C1184 C1177 1.424 . S
C1184 C1183 1.413 . S
C1184 N1188 1.361 . S
C1185 C1183 1.427 . S
C1185 C1186 1.328 . S
C1185 H1200 0.929 . S
C1186 C1180 1.448 . S
C1186 C1185 1.328 . S
C1186 H1201 0.930 . S
Tb1187 N1178 2.617 . S
Tb1187 N1188 2.572 . S
Tb1187 O1222 2.349 1_455 S
Tb1187 O1225 2.393 . S
Tb1187 O1226 2.465 . S
Tb1187 O1227 2.387 . S
Tb1187 O1229 2.428 . S
Tb1187 O1230 2.308 . S
Tb1187 C1251 2.802 . S
N1188 C1184 1.361 . S
N1188 Tb1187 2.572 . S
N1188 C1190 1.340 . S
C1189 C1183 1.416 . S
C1189 C1191 1.332 . S
C1189 H1197 0.931 . S
C1190 N1188 1.340 . S
C1190 C1191 1.407 . S
C1190 H1196 0.930 . S
C1191 C1189 1.332 . S
C1191 C1190 1.407 . S
C1191 H1193 0.929 . S
H1192 C1181 0.930 . S
H1193 C1191 0.929 . S
H1194 C1209 0.930 . S
H1195 C1216 0.929 . S
H1196 C1190 0.930 . S
H1197 C1189 0.931 . S
H1198 C1212 0.930 1_455 S
H1199 C1179 0.930 . S
H1200 C1185 0.929 . S
H1201 C1186 0.930 . S
H1202 C1207 0.930 . S
H1203 C1182 0.930 . S
H1204 C1215 0.931 . S
N1205 Tb1176 2.617 1_655 S
N1205 C1206 1.379 . S
N1205 C1209 1.334 1_655 S
C1206 N1205 1.379 . S
C1206 C1208 1.416 . S
C1206 C1214 1.424 . S
C1207 H1202 0.930 . S
C1207 C1209 1.390 1_655 S
C1207 C1210 1.339 . S
C1208 C1206 1.416 . S
C1208 C1210 1.416 . S
C1208 C1241 1.448 . S
C1209 H1194 0.930 . S
C1209 N1205 1.334 1_455 S
C1209 C1207 1.390 1_455 S
C1210 C1207 1.339 . S
C1210 C1208 1.416 . S
C1210 H1217 0.930 . S
N1211 Tb1176 2.572 1_655 S
N1211 C1212 1.340 . S
N1211 C1214 1.361 . S
C1212 H1198 0.930 1_655 S
C1212 N1211 1.340 . S
C1212 C1216 1.407 . S
C1213 C1214 1.413 . S
C1213 C1215 1.416 . S
C1213 C1242 1.427 . S
C1214 C1206 1.424 . S
C1214 N1211 1.361 . S
C1214 C1213 1.413 . S
C1215 H1204 0.931 . S
C1215 C1213 1.416 . S
C1215 C1216 1.332 . S
C1216 H1195 0.929 . S
C1216 C1212 1.407 . S
C1216 C1215 1.332 . S
H1217 C1210 0.930 . S
H1218 C1241 0.930 . S
H1219 C1242 0.929 . S
O1220 Tb1176 2.465 . S
O1220 C1240 1.264 . S
O1221 Tb1176 2.387 1_655 S
O1221 C1232 1.264 . S
O1222 Tb1187 2.349 1_655 S
O1222 C1232 1.243 . S
O1223 Tb1176 2.428 . S
O1223 C1240 1.256 . S
O1224 Tb1176 2.308 . S
O1224 C1239 1.266 . S
O1225 Tb1187 2.393 . S
O1225 C1239 1.248 . S
O1226 Tb1187 2.465 . S
O1226 C1251 1.264 . S
O1227 Tb1187 2.387 . S
O1227 C1243 1.264 . S
O1228 Tb1176 2.349 . S
O1228 C1243 1.243 . S
O1229 Tb1187 2.428 . S
O1229 C1251 1.256 . S
O1230 Tb1187 2.308 . S
O1230 C1250 1.266 . S
O1231 Tb1176 2.393 . S
O1231 C1250 1.248 . S
C1232 O1221 1.264 . S
C1232 O1222 1.243 . S
C1233 C1236 1.399 . S
C1233 C1238 1.383 . S
C1233 C1240 1.496 . S
C1234 C1235 1.399 . S
C1234 C1238 1.389 . S
C1235 C1234 1.399 . S
C1235 C1237 1.380 . S
C1235 H1252 0.929 . S
C1236 C1233 1.399 . S
C1236 C1237 1.392 . S
C1236 H1253 0.929 . S
C1237 C1235 1.380 . S
C1237 C1236 1.392 . S
C1237 H1254 0.929 . S
C1238 C1233 1.383 . S
C1238 C1234 1.389 . S
C1238 H1255 0.931 . S
C1239 O1224 1.266 . S
C1239 O1225 1.248 . S
C1240 Tb1176 2.802 . S
C1240 O1220 1.264 . S
C1240 O1223 1.256 . S
C1240 C1233 1.496 . S
C1241 C1208 1.448 . S
C1241 H1218 0.930 . S
C1241 C1242 1.328 . S
C1242 C1213 1.427 . S
C1242 H1219 0.929 . S
C1242 C1241 1.328 . S
C1243 O1227 1.264 . S
C1243 O1228 1.243 . S
C1244 C1247 1.399 . S
C1244 C1248 1.383 . S
C1244 C1251 1.496 1_655 S
C1245 C1246 1.399 . S
C1245 C1248 1.389 . S
C1246 C1245 1.399 . S
C1246 C1249 1.380 . S
C1246 H1256 0.929 . S
C1247 C1244 1.399 . S
C1247 C1249 1.392 . S
C1247 H1257 0.929 . S
C1248 C1244 1.383 . S
C1248 C1245 1.389 . S
C1248 H1258 0.931 . S
C1249 C1246 1.380 . S
C1249 C1247 1.392 . S
C1249 H1259 0.929 . S
C1250 O1230 1.266 . S
C1250 O1231 1.248 . S
C1251 Tb1187 2.802 . S
C1251 O1226 1.264 . S
C1251 O1229 1.256 . S
C1251 C1244 1.496 1_455 S
H1252 C1235 0.929 . S
H1253 C1236 0.929 . S
H1254 C1237 0.929 . S
H1255 C1238 0.931 . S
H1256 C1246 0.929 . S
H1257 C1247 0.929 . S
H1258 C1248 0.931 . S
H1259 C1249 0.929 . S
Tb1260 N1289 2.617 . S
Tb1260 N1295 2.572 . S
Tb1260 O1304 2.465 . S
Tb1260 O1305 2.387 . S
Tb1260 O1307 2.428 . S
Tb1260 O1308 2.308 . S
Tb1260 O1312 2.349 . S
Tb1260 O1315 2.393 . S
Tb1260 C1324 2.802 . S
C1261 N1262 1.379 . S
C1261 C1264 1.416 . S
C1261 C1268 1.424 . S
N1262 C1261 1.379 . S
N1262 C1265 1.334 . S
N1262 Tb1271 2.617 . S
C1263 C1265 1.390 . S
C1263 C1266 1.339 . S
C1263 H1283 0.930 . S
C1264 C1261 1.416 . S
C1264 C1266 1.416 . S
C1264 C1270 1.448 . S
C1265 N1262 1.334 . S
C1265 C1263 1.390 . S
C1265 H1276 0.930 . S
C1266 C1263 1.339 . S
C1266 C1264 1.416 . S
C1266 H1287 0.930 . S
C1267 C1268 1.413 . S
C1267 C1269 1.427 . S
C1267 C1273 1.416 . S
C1268 C1261 1.424 . S
C1268 C1267 1.413 . S
C1268 N1272 1.361 . S
C1269 C1267 1.427 . S
C1269 C1270 1.328 . S
C1269 H1284 0.929 . S
C1270 C1264 1.448 . S
C1270 C1269 1.328 . S
C1270 H1285 0.930 . S
Tb1271 N1262 2.617 . S
Tb1271 N1272 2.572 . S
Tb1271 O1306 2.349 . S
Tb1271 O1309 2.393 . S
Tb1271 O1310 2.465 . S
Tb1271 O1311 2.387 . S
Tb1271 O1313 2.428 . S
Tb1271 O1314 2.308 . S
Tb1271 C1335 2.802 . S
N1272 C1268 1.361 . S
N1272 Tb1271 2.572 . S
N1272 C1274 1.340 . S
C1273 C1267 1.416 . S
C1273 C1275 1.332 . S
C1273 H1281 0.931 . S
C1274 N1272 1.340 . S
C1274 C1275 1.407 . S
C1274 H1280 0.930 . S
C1275 C1273 1.332 . S
C1275 C1274 1.407 . S
C1275 H1277 0.929 . S
H1276 C1265 0.930 . S
H1277 C1275 0.929 . S
H1278 C1293 0.930 . S
H1279 C1300 0.929 . S
H1280 C1274 0.930 . S
H1281 C1273 0.931 . S
H1282 C1296 0.930 . S
H1283 C1263 0.930 . S
H1284 C1269 0.929 . S
H1285 C1270 0.930 . S
H1286 C1291 0.930 . S
H1287 C1266 0.930 . S
H1288 C1299 0.931 . S
N1289 Tb1260 2.617 . S
N1289 C1290 1.379 . S
N1289 C1293 1.334 . S
C1290 N1289 1.379 . S
C1290 C1292 1.416 . S
C1290 C1298 1.424 . S
C1291 H1286 0.930 . S
C1291 C1293 1.390 . S
C1291 C1294 1.339 . S
C1292 C1290 1.416 . S
C1292 C1294 1.416 . S
C1292 C1325 1.448 . S
C1293 H1278 0.930 . S
C1293 N1289 1.334 . S
C1293 C1291 1.390 . S
C1294 C1291 1.339 . S
C1294 C1292 1.416 . S
C1294 H1301 0.930 . S
N1295 Tb1260 2.572 . S
N1295 C1296 1.340 . S
N1295 C1298 1.361 . S
C1296 H1282 0.930 . S
C1296 N1295 1.340 . S
C1296 C1300 1.407 . S
C1297 C1298 1.413 . S
C1297 C1299 1.416 . S
C1297 C1326 1.427 . S
C1298 C1290 1.424 . S
C1298 N1295 1.361 . S
C1298 C1297 1.413 . S
C1299 H1288 0.931 . S
C1299 C1297 1.416 . S
C1299 C1300 1.332 . S
C1300 H1279 0.929 . S
C1300 C1296 1.407 . S
C1300 C1299 1.332 . S
H1301 C1294 0.930 . S
H1302 C1325 0.930 . S
H1303 C1326 0.929 . S
O1304 Tb1260 2.465 . S
O1304 C1324 1.264 . S
O1305 Tb1260 2.387 . S
O1305 C1316 1.264 . S
O1306 Tb1271 2.349 . S
O1306 C1316 1.243 . S
O1307 Tb1260 2.428 . S
O1307 C1324 1.256 . S
O1308 Tb1260 2.308 . S
O1308 C1323 1.266 . S
O1309 Tb1271 2.393 . S
O1309 C1323 1.248 . S
O1310 Tb1271 2.465 . S
O1310 C1335 1.264 . S
O1311 Tb1271 2.387 . S
O1311 C1327 1.264 . S
O1312 Tb1260 2.349 . S
O1312 C1327 1.243 . S
O1313 Tb1271 2.428 . S
O1313 C1335 1.256 . S
O1314 Tb1271 2.308 . S
O1314 C1334 1.266 . S
O1315 Tb1260 2.393 . S
O1315 C1334 1.248 . S
C1316 O1305 1.264 . S
C1316 O1306 1.243 . S
C1317 C1320 1.399 . S
C1317 C1322 1.383 . S
C1317 C1324 1.496 . S
C1318 C1319 1.399 . S
C1318 C1322 1.389 . S
C1319 C1318 1.399 . S
C1319 C1321 1.380 . S
C1319 H1336 0.929 . S
C1320 C1317 1.399 . S
C1320 C1321 1.392 . S
C1320 H1337 0.929 . S
C1321 C1319 1.380 . S
C1321 C1320 1.392 . S
C1321 H1338 0.929 . S
C1322 C1317 1.383 . S
C1322 C1318 1.389 . S
C1322 H1339 0.931 . S
C1323 O1308 1.266 . S
C1323 O1309 1.248 . S
C1324 Tb1260 2.802 . S
C1324 O1304 1.264 . S
C1324 O1307 1.256 . S
C1324 C1317 1.496 . S
C1325 C1292 1.448 . S
C1325 H1302 0.930 . S
C1325 C1326 1.328 . S
C1326 C1297 1.427 . S
C1326 H1303 0.929 . S
C1326 C1325 1.328 . S
C1327 O1311 1.264 . S
C1327 O1312 1.243 . S
C1328 C1331 1.399 . S
C1328 C1332 1.383 . S
C1328 C1335 1.496 . S
C1329 C1330 1.399 . S
C1329 C1332 1.389 . S
C1330 C1329 1.399 . S
C1330 C1333 1.380 . S
C1330 H1340 0.929 . S
C1331 C1328 1.399 . S
C1331 C1333 1.392 . S
C1331 H1341 0.929 . S
C1332 C1328 1.383 . S
C1332 C1329 1.389 . S
C1332 H1342 0.931 . S
C1333 C1330 1.380 . S
C1333 C1331 1.392 . S
C1333 H1343 0.929 . S
C1334 O1314 1.266 . S
C1334 O1315 1.248 . S
C1335 Tb1271 2.802 . S
C1335 O1310 1.264 . S
C1335 O1313 1.256 . S
C1335 C1328 1.496 . S
H1336 C1319 0.929 . S
H1337 C1320 0.929 . S
H1338 C1321 0.929 . S
H1339 C1322 0.931 . S
H1340 C1330 0.929 . S
H1341 C1331 0.929 . S
H1342 C1332 0.931 . S
H1343 C1333 0.929 . S
Tb1344 N1373 2.617 . S
Tb1344 N1379 2.572 . S
Tb1344 O1388 2.465 . S
Tb1344 O1389 2.387 . S
Tb1344 O1391 2.428 . S
Tb1344 O1392 2.308 . S
Tb1344 O1396 2.349 . S
Tb1344 O1399 2.393 . S
Tb1344 C1408 2.802 . S
C1345 N1346 1.379 . S
C1345 C1348 1.416 . S
C1345 C1352 1.424 . S
N1346 C1345 1.379 . S
N1346 C1349 1.334 . S
N1346 Tb1355 2.617 . S
C1347 C1349 1.390 . S
C1347 C1350 1.339 . S
C1347 H1367 0.930 . S
C1348 C1345 1.416 . S
C1348 C1350 1.416 . S
C1348 C1354 1.448 . S
C1349 N1346 1.334 . S
C1349 C1347 1.390 . S
C1349 H1360 0.930 . S
C1350 C1347 1.339 . S
C1350 C1348 1.416 . S
C1350 H1371 0.930 . S
C1351 C1352 1.413 . S
C1351 C1353 1.427 . S
C1351 C1357 1.416 . S
C1352 C1345 1.424 . S
C1352 C1351 1.413 . S
C1352 N1356 1.361 . S
C1353 C1351 1.427 . S
C1353 C1354 1.328 . S
C1353 H1368 0.929 . S
C1354 C1348 1.448 . S
C1354 C1353 1.328 . S
C1354 H1369 0.930 . S
Tb1355 N1346 2.617 . S
Tb1355 N1356 2.572 . S
Tb1355 O1390 2.349 . S
Tb1355 O1393 2.393 . S
Tb1355 O1394 2.465 . S
Tb1355 O1395 2.387 . S
Tb1355 O1397 2.428 . S
Tb1355 O1398 2.308 . S
Tb1355 C1419 2.802 . S
N1356 C1352 1.361 . S
N1356 Tb1355 2.572 . S
N1356 C1358 1.340 . S
C1357 C1351 1.416 . S
C1357 C1359 1.332 . S
C1357 H1365 0.931 . S
C1358 N1356 1.340 . S
C1358 C1359 1.407 . S
C1358 H1364 0.930 . S
C1359 C1357 1.332 . S
C1359 C1358 1.407 . S
C1359 H1361 0.929 . S
H1360 C1349 0.930 . S
H1361 C1359 0.929 . S
H1362 C1377 0.930 . S
H1363 C1384 0.929 . S
H1364 C1358 0.930 . S
H1365 C1357 0.931 . S
H1366 C1380 0.930 . S
H1367 C1347 0.930 . S
H1368 C1353 0.929 . S
H1369 C1354 0.930 . S
H1370 C1375 0.930 . S
H1371 C1350 0.930 . S
H1372 C1383 0.931 . S
N1373 Tb1344 2.617 . S
N1373 C1374 1.379 . S
N1373 C1377 1.334 . S
C1374 N1373 1.379 . S
C1374 C1376 1.416 . S
C1374 C1382 1.424 . S
C1375 H1370 0.930 . S
C1375 C1377 1.390 . S
C1375 C1378 1.339 . S
C1376 C1374 1.416 . S
C1376 C1378 1.416 . S
C1376 C1409 1.448 . S
C1377 H1362 0.930 . S
C1377 N1373 1.334 . S
C1377 C1375 1.390 . S
C1378 C1375 1.339 . S
C1378 C1376 1.416 . S
C1378 H1385 0.930 . S
N1379 Tb1344 2.572 . S
N1379 C1380 1.340 . S
N1379 C1382 1.361 . S
C1380 H1366 0.930 . S
C1380 N1379 1.340 . S
C1380 C1384 1.407 . S
C1381 C1382 1.413 . S
C1381 C1383 1.416 . S
C1381 C1410 1.427 . S
C1382 C1374 1.424 . S
C1382 N1379 1.361 . S
C1382 C1381 1.413 . S
C1383 H1372 0.931 . S
C1383 C1381 1.416 . S
C1383 C1384 1.332 . S
C1384 H1363 0.929 . S
C1384 C1380 1.407 . S
C1384 C1383 1.332 . S
H1385 C1378 0.930 . S
H1386 C1409 0.930 . S
H1387 C1410 0.929 . S
O1388 Tb1344 2.465 . S
O1388 C1408 1.264 . S
O1389 Tb1344 2.387 . S
O1389 C1400 1.264 . S
O1390 Tb1355 2.349 . S
O1390 C1400 1.243 . S
O1391 Tb1344 2.428 . S
O1391 C1408 1.256 . S
O1392 Tb1344 2.308 . S
O1392 C1407 1.266 . S
O1393 Tb1355 2.393 . S
O1393 C1407 1.248 . S
O1394 Tb1355 2.465 . S
O1394 C1419 1.264 . S
O1395 Tb1355 2.387 . S
O1395 C1411 1.264 . S
O1396 Tb1344 2.349 . S
O1396 C1411 1.243 . S
O1397 Tb1355 2.428 . S
O1397 C1419 1.256 . S
O1398 Tb1355 2.308 . S
O1398 C1418 1.266 . S
O1399 Tb1344 2.393 . S
O1399 C1418 1.248 . S
C1400 O1389 1.264 . S
C1400 O1390 1.243 . S
C1401 C1404 1.399 . S
C1401 C1406 1.383 . S
C1401 C1408 1.496 . S
C1402 C1403 1.399 . S
C1402 C1406 1.389 . S
C1403 C1402 1.399 . S
C1403 C1405 1.380 . S
C1403 H1420 0.929 . S
C1404 C1401 1.399 . S
C1404 C1405 1.392 . S
C1404 H1421 0.929 . S
C1405 C1403 1.380 . S
C1405 C1404 1.392 . S
C1405 H1422 0.929 . S
C1406 C1401 1.383 . S
C1406 C1402 1.389 . S
C1406 H1423 0.931 . S
C1407 O1392 1.266 . S
C1407 O1393 1.248 . S
C1408 Tb1344 2.802 . S
C1408 O1388 1.264 . S
C1408 O1391 1.256 . S
C1408 C1401 1.496 . S
C1409 C1376 1.448 . S
C1409 H1386 0.930 . S
C1409 C1410 1.328 . S
C1410 C1381 1.427 . S
C1410 H1387 0.929 . S
C1410 C1409 1.328 . S
C1411 O1395 1.264 . S
C1411 O1396 1.243 . S
C1412 C1415 1.399 . S
C1412 C1416 1.383 . S
C1412 C1419 1.496 . S
C1413 C1414 1.399 . S
C1413 C1416 1.389 . S
C1414 C1413 1.399 . S
C1414 C1417 1.380 . S
C1414 H1424 0.929 . S
C1415 C1412 1.399 . S
C1415 C1417 1.392 . S
C1415 H1425 0.929 . S
C1416 C1412 1.383 . S
C1416 C1413 1.389 . S
C1416 H1426 0.931 . S
C1417 C1414 1.380 . S
C1417 C1415 1.392 . S
C1417 H1427 0.929 . S
C1418 O1398 1.266 . S
C1418 O1399 1.248 . S
C1419 Tb1355 2.802 . S
C1419 O1394 1.264 . S
C1419 O1397 1.256 . S
C1419 C1412 1.496 . S
H1420 C1403 0.929 . S
H1421 C1404 0.929 . S
H1422 C1405 0.929 . S
H1423 C1406 0.931 . S
H1424 C1414 0.929 . S
H1425 C1415 0.929 . S
H1426 C1416 0.931 . S
H1427 C1417 0.929 . S
Tb1428 N1457 2.617 . S
Tb1428 N1463 2.572 . S
Tb1428 O1472 2.465 . S
Tb1428 O1473 2.387 . S
Tb1428 O1475 2.428 . S
Tb1428 O1476 2.308 . S
Tb1428 O1480 2.349 . S
Tb1428 O1483 2.393 . S
Tb1428 C1492 2.802 . S
C1429 N1430 1.379 . S
C1429 C1432 1.416 . S
C1429 C1436 1.424 . S
N1430 C1429 1.379 . S
N1430 C1433 1.334 . S
N1430 Tb1439 2.617 . S
C1431 C1433 1.390 . S
C1431 C1434 1.339 . S
C1431 H1451 0.930 . S
C1432 C1429 1.416 . S
C1432 C1434 1.416 . S
C1432 C1438 1.448 . S
C1433 N1430 1.334 . S
C1433 C1431 1.390 . S
C1433 H1444 0.930 . S
C1434 C1431 1.339 . S
C1434 C1432 1.416 . S
C1434 H1455 0.930 . S
C1435 C1436 1.413 . S
C1435 C1437 1.427 . S
C1435 C1441 1.416 . S
C1436 C1429 1.424 . S
C1436 C1435 1.413 . S
C1436 N1440 1.361 . S
C1437 C1435 1.427 . S
C1437 C1438 1.328 . S
C1437 H1452 0.929 . S
C1438 C1432 1.448 . S
C1438 C1437 1.328 . S
C1438 H1453 0.930 . S
Tb1439 N1430 2.617 . S
Tb1439 N1440 2.572 . S
Tb1439 O1474 2.349 . S
Tb1439 O1477 2.393 . S
Tb1439 O1478 2.465 . S
Tb1439 O1479 2.387 . S
Tb1439 O1481 2.428 . S
Tb1439 O1482 2.308 . S
Tb1439 C1503 2.802 . S
N1440 C1436 1.361 . S
N1440 Tb1439 2.572 . S
N1440 C1442 1.340 . S
C1441 C1435 1.416 . S
C1441 C1443 1.332 . S
C1441 H1449 0.931 . S
C1442 N1440 1.340 . S
C1442 C1443 1.407 . S
C1442 H1448 0.930 . S
C1443 C1441 1.332 . S
C1443 C1442 1.407 . S
C1443 H1445 0.929 . S
H1444 C1433 0.930 . S
H1445 C1443 0.929 . S
H1446 C1461 0.930 . S
H1447 C1468 0.929 . S
H1448 C1442 0.930 . S
H1449 C1441 0.931 . S
H1450 C1464 0.930 . S
H1451 C1431 0.930 . S
H1452 C1437 0.929 . S
H1453 C1438 0.930 . S
H1454 C1459 0.930 . S
H1455 C1434 0.930 . S
H1456 C1467 0.931 . S
N1457 Tb1428 2.617 . S
N1457 C1458 1.379 . S
N1457 C1461 1.334 . S
C1458 N1457 1.379 . S
C1458 C1460 1.416 . S
C1458 C1466 1.424 . S
C1459 H1454 0.930 . S
C1459 C1461 1.390 . S
C1459 C1462 1.339 . S
C1460 C1458 1.416 . S
C1460 C1462 1.416 . S
C1460 C1493 1.448 . S
C1461 H1446 0.930 . S
C1461 N1457 1.334 . S
C1461 C1459 1.390 . S
C1462 C1459 1.339 . S
C1462 C1460 1.416 . S
C1462 H1469 0.930 . S
N1463 Tb1428 2.572 . S
N1463 C1464 1.340 . S
N1463 C1466 1.361 . S
C1464 H1450 0.930 . S
C1464 N1463 1.340 . S
C1464 C1468 1.407 . S
C1465 C1466 1.413 . S
C1465 C1467 1.416 . S
C1465 C1494 1.427 . S
C1466 C1458 1.424 . S
C1466 N1463 1.361 . S
C1466 C1465 1.413 . S
C1467 H1456 0.931 . S
C1467 C1465 1.416 . S
C1467 C1468 1.332 . S
C1468 H1447 0.929 . S
C1468 C1464 1.407 . S
C1468 C1467 1.332 . S
H1469 C1462 0.930 . S
H1470 C1493 0.930 . S
H1471 C1494 0.929 . S
O1472 Tb1428 2.465 . S
O1472 C1492 1.264 . S
O1473 Tb1428 2.387 . S
O1473 C1484 1.264 . S
O1474 Tb1439 2.349 . S
O1474 C1484 1.243 . S
O1475 Tb1428 2.428 . S
O1475 C1492 1.256 . S
O1476 Tb1428 2.308 . S
O1476 C1491 1.266 . S
O1477 Tb1439 2.393 . S
O1477 C1491 1.248 . S
O1478 Tb1439 2.465 . S
O1478 C1503 1.264 . S
O1479 Tb1439 2.387 . S
O1479 C1495 1.264 . S
O1480 Tb1428 2.349 . S
O1480 C1495 1.243 . S
O1481 Tb1439 2.428 . S
O1481 C1503 1.256 . S
O1482 Tb1439 2.308 . S
O1482 C1502 1.266 . S
O1483 Tb1428 2.393 . S
O1483 C1502 1.248 . S
C1484 O1473 1.264 . S
C1484 O1474 1.243 . S
C1485 C1488 1.399 . S
C1485 C1490 1.383 . S
C1485 C1492 1.496 . S
C1486 C1487 1.399 . S
C1486 C1490 1.389 . S
C1487 C1486 1.399 . S
C1487 C1489 1.380 . S
C1487 H1504 0.929 . S
C1488 C1485 1.399 . S
C1488 C1489 1.392 . S
C1488 H1505 0.929 . S
C1489 C1487 1.380 . S
C1489 C1488 1.392 . S
C1489 H1506 0.929 . S
C1490 C1485 1.383 . S
C1490 C1486 1.389 . S
C1490 H1507 0.931 . S
C1491 O1476 1.266 . S
C1491 O1477 1.248 . S
C1492 Tb1428 2.802 . S
C1492 O1472 1.264 . S
C1492 O1475 1.256 . S
C1492 C1485 1.496 . S
C1493 C1460 1.448 . S
C1493 H1470 0.930 . S
C1493 C1494 1.328 . S
C1494 C1465 1.427 . S
C1494 H1471 0.929 . S
C1494 C1493 1.328 . S
C1495 O1479 1.264 . S
C1495 O1480 1.243 . S
C1496 C1499 1.399 . S
C1496 C1500 1.383 . S
C1496 C1503 1.496 . S
C1497 C1498 1.399 . S
C1497 C1500 1.389 . S
C1498 C1497 1.399 . S
C1498 C1501 1.380 . S
C1498 H1508 0.929 . S
C1499 C1496 1.399 . S
C1499 C1501 1.392 . S
C1499 H1509 0.929 . S
C1500 C1496 1.383 . S
C1500 C1497 1.389 . S
C1500 H1510 0.931 . S
C1501 C1498 1.380 . S
C1501 C1499 1.392 . S
C1501 H1511 0.929 . S
C1502 O1482 1.266 . S
C1502 O1483 1.248 . S
C1503 Tb1439 2.802 . S
C1503 O1478 1.264 . S
C1503 O1481 1.256 . S
C1503 C1496 1.496 . S
H1504 C1487 0.929 . S
H1505 C1488 0.929 . S
H1506 C1489 0.929 . S
H1507 C1490 0.931 . S
H1508 C1498 0.929 . S
H1509 C1499 0.929 . S
H1510 C1500 0.931 . S
H1511 C1501 0.929 . S
Tb1512 N1541 2.617 . S
Tb1512 N1547 2.572 . S
Tb1512 O1556 2.465 . S
Tb1512 O1557 2.387 . S
Tb1512 O1559 2.428 . S
Tb1512 O1560 2.308 . S
Tb1512 O1564 2.349 . S
Tb1512 O1567 2.393 . S
Tb1512 C1576 2.802 . S
C1513 N1514 1.379 . S
C1513 C1516 1.416 . S
C1513 C1520 1.424 . S
N1514 C1513 1.379 . S
N1514 C1517 1.334 . S
N1514 Tb1523 2.617 . S
C1515 C1517 1.390 . S
C1515 C1518 1.339 . S
C1515 H1535 0.930 . S
C1516 C1513 1.416 . S
C1516 C1518 1.416 . S
C1516 C1522 1.448 . S
C1517 N1514 1.334 . S
C1517 C1515 1.390 . S
C1517 H1528 0.930 . S
C1518 C1515 1.339 . S
C1518 C1516 1.416 . S
C1518 H1539 0.930 . S
C1519 C1520 1.413 . S
C1519 C1521 1.427 . S
C1519 C1525 1.416 . S
C1520 C1513 1.424 . S
C1520 C1519 1.413 . S
C1520 N1524 1.361 . S
C1521 C1519 1.427 . S
C1521 C1522 1.328 . S
C1521 H1536 0.929 . S
C1522 C1516 1.448 . S
C1522 C1521 1.328 . S
C1522 H1537 0.930 . S
Tb1523 N1514 2.617 . S
Tb1523 N1524 2.572 . S
Tb1523 O1558 2.349 . S
Tb1523 O1561 2.393 . S
Tb1523 O1562 2.465 . S
Tb1523 O1563 2.387 . S
Tb1523 O1565 2.428 . S
Tb1523 O1566 2.308 . S
Tb1523 C1587 2.802 . S
N1524 C1520 1.361 . S
N1524 Tb1523 2.572 . S
N1524 C1526 1.340 . S
C1525 C1519 1.416 . S
C1525 C1527 1.332 . S
C1525 H1533 0.931 . S
C1526 N1524 1.340 . S
C1526 C1527 1.407 . S
C1526 H1532 0.930 . S
C1527 C1525 1.332 . S
C1527 C1526 1.407 . S
C1527 H1529 0.929 . S
H1528 C1517 0.930 . S
H1529 C1527 0.929 . S
H1530 C1545 0.930 . S
H1531 C1552 0.929 . S
H1532 C1526 0.930 . S
H1533 C1525 0.931 . S
H1534 C1548 0.930 . S
H1535 C1515 0.930 . S
H1536 C1521 0.929 . S
H1537 C1522 0.930 . S
H1538 C1543 0.930 . S
H1539 C1518 0.930 . S
H1540 C1551 0.931 . S
N1541 Tb1512 2.617 . S
N1541 C1542 1.379 . S
N1541 C1545 1.334 . S
C1542 N1541 1.379 . S
C1542 C1544 1.416 . S
C1542 C1550 1.424 . S
C1543 H1538 0.930 . S
C1543 C1545 1.390 . S
C1543 C1546 1.339 . S
C1544 C1542 1.416 . S
C1544 C1546 1.416 . S
C1544 C1577 1.448 . S
C1545 H1530 0.930 . S
C1545 N1541 1.334 . S
C1545 C1543 1.390 . S
C1546 C1543 1.339 . S
C1546 C1544 1.416 . S
C1546 H1553 0.930 . S
N1547 Tb1512 2.572 . S
N1547 C1548 1.340 . S
N1547 C1550 1.361 . S
C1548 H1534 0.930 . S
C1548 N1547 1.340 . S
C1548 C1552 1.407 . S
C1549 C1550 1.413 . S
C1549 C1551 1.416 . S
C1549 C1578 1.427 . S
C1550 C1542 1.424 . S
C1550 N1547 1.361 . S
C1550 C1549 1.413 . S
C1551 H1540 0.931 . S
C1551 C1549 1.416 . S
C1551 C1552 1.332 . S
C1552 H1531 0.929 . S
C1552 C1548 1.407 . S
C1552 C1551 1.332 . S
H1553 C1546 0.930 . S
H1554 C1577 0.930 . S
H1555 C1578 0.929 . S
O1556 Tb1512 2.465 . S
O1556 C1576 1.264 . S
O1557 Tb1512 2.387 . S
O1557 C1568 1.264 . S
O1558 Tb1523 2.349 . S
O1558 C1568 1.243 . S
O1559 Tb1512 2.428 . S
O1559 C1576 1.256 . S
O1560 Tb1512 2.308 . S
O1560 C1575 1.266 . S
O1561 Tb1523 2.393 . S
O1561 C1575 1.248 . S
O1562 Tb1523 2.465 . S
O1562 C1587 1.264 . S
O1563 Tb1523 2.387 . S
O1563 C1579 1.264 . S
O1564 Tb1512 2.349 . S
O1564 C1579 1.243 . S
O1565 Tb1523 2.428 . S
O1565 C1587 1.256 . S
O1566 Tb1523 2.308 . S
O1566 C1586 1.266 . S
O1567 Tb1512 2.393 . S
O1567 C1586 1.248 . S
C1568 O1557 1.264 . S
C1568 O1558 1.243 . S
C1569 C1572 1.399 . S
C1569 C1574 1.383 . S
C1569 C1576 1.496 . S
C1570 C1571 1.399 . S
C1570 C1574 1.389 . S
C1571 C1570 1.399 . S
C1571 C1573 1.380 . S
C1571 H1588 0.929 . S
C1572 C1569 1.399 . S
C1572 C1573 1.392 . S
C1572 H1589 0.929 . S
C1573 C1571 1.380 . S
C1573 C1572 1.392 . S
C1573 H1590 0.929 . S
C1574 C1569 1.383 . S
C1574 C1570 1.389 . S
C1574 H1591 0.931 . S
C1575 O1560 1.266 . S
C1575 O1561 1.248 . S
C1576 Tb1512 2.802 . S
C1576 O1556 1.264 . S
C1576 O1559 1.256 . S
C1576 C1569 1.496 . S
C1577 C1544 1.448 . S
C1577 H1554 0.930 . S
C1577 C1578 1.328 . S
C1578 C1549 1.427 . S
C1578 H1555 0.929 . S
C1578 C1577 1.328 . S
C1579 O1563 1.264 . S
C1579 O1564 1.243 . S
C1580 C1583 1.399 . S
C1580 C1584 1.383 . S
C1580 C1587 1.496 . S
C1581 C1582 1.399 . S
C1581 C1584 1.389 . S
C1582 C1581 1.399 . S
C1582 C1585 1.380 . S
C1582 H1592 0.929 . S
C1583 C1580 1.399 . S
C1583 C1585 1.392 . S
C1583 H1593 0.929 . S
C1584 C1580 1.383 . S
C1584 C1581 1.389 . S
C1584 H1594 0.931 . S
C1585 C1582 1.380 . S
C1585 C1583 1.392 . S
C1585 H1595 0.929 . S
C1586 O1566 1.266 . S
C1586 O1567 1.248 . S
C1587 Tb1523 2.802 . S
C1587 O1562 1.264 . S
C1587 O1565 1.256 . S
C1587 C1580 1.496 . S
H1588 C1571 0.929 . S
H1589 C1572 0.929 . S
H1590 C1573 0.929 . S
H1591 C1574 0.931 . S
H1592 C1582 0.929 . S
H1593 C1583 0.929 . S
H1594 C1584 0.931 . S
H1595 C1585 0.929 . S
Tb1596 N1625 2.617 . S
Tb1596 N1631 2.572 . S
Tb1596 O1640 2.465 . S
Tb1596 O1641 2.387 1_655 S
Tb1596 O1643 2.428 . S
Tb1596 O1644 2.305 1_654 S
Tb1596 O1648 2.349 1_655 S
Tb1596 O1651 2.393 1_655 S
Tb1596 C1660 2.802 . S
C1597 N1598 1.379 . S
C1597 C1600 1.416 . S
C1597 C1604 1.424 1_556 S
N1598 C1597 1.379 . S
N1598 C1601 1.334 . S
N1598 Tb1607 2.617 1_556 S
C1599 C1601 1.390 . S
C1599 C1602 1.339 . S
C1599 H1619 0.930 . S
C1600 C1597 1.416 . S
C1600 C1602 1.416 . S
C1600 C1606 1.448 . S
C1601 N1598 1.334 . S
C1601 C1599 1.390 . S
C1601 H1612 0.930 . S
C1602 C1599 1.339 . S
C1602 C1600 1.416 . S
C1602 H1623 0.930 . S
C1603 C1604 1.413 . S
C1603 C1605 1.427 1_554 S
C1603 C1609 1.416 . S
C1604 C1597 1.424 1_554 S
C1604 C1603 1.413 . S
C1604 N1608 1.361 . S
C1605 C1603 1.427 1_556 S
C1605 C1606 1.328 . S
C1605 H1620 0.929 1_556 S
C1606 C1600 1.448 . S
C1606 C1605 1.328 . S
C1606 H1621 0.930 . S
Tb1607 N1598 2.617 1_554 S
Tb1607 N1608 2.572 . S
Tb1607 O1642 2.349 . S
Tb1607 O1645 2.393 1_554 S
Tb1607 O1646 2.465 . S
Tb1607 O1647 2.387 . S
Tb1607 O1649 2.428 1_554 S
Tb1607 O1650 2.308 . S
Tb1607 C1671 2.802 1_554 S
N1608 C1604 1.361 . S
N1608 Tb1607 2.572 . S
N1608 C1610 1.340 . S
C1609 C1603 1.416 . S
C1609 C1611 1.332 . S
C1609 H1617 0.931 . S
C1610 N1608 1.340 . S
C1610 C1611 1.407 . S
C1610 H1616 0.930 . S
C1611 C1609 1.332 . S
C1611 C1610 1.407 . S
C1611 H1613 0.929 . S
H1612 C1601 0.930 . S
H1613 C1611 0.929 . S
H1614 C1629 0.930 1_455 S
H1615 C1636 0.929 . S
H1616 C1610 0.930 . S
H1617 C1609 0.931 . S
H1618 C1632 0.930 . S
H1619 C1599 0.930 . S
H1620 C1605 0.929 1_554 S
H1621 C1606 0.930 . S
H1622 C1627 0.930 . S
H1623 C1602 0.930 . S
H1624 C1635 0.925 1_556 S
N1625 Tb1596 2.617 . S
N1625 C1626 1.379 . S
N1625 C1629 1.334 . S
C1626 N1625 1.379 . S
C1626 C1628 1.416 . S
C1626 C1634 1.424 . S
C1627 H1622 0.930 . S
C1627 C1629 1.390 . S
C1627 C1630 1.339 . S
C1628 C1626 1.416 . S
C1628 C1630 1.416 . S
C1628 C1661 1.448 . S
C1629 H1614 0.930 1_655 S
C1629 N1625 1.334 . S
C1629 C1627 1.390 . S
C1630 C1627 1.339 . S
C1630 C1628 1.416 . S
C1630 H1637 0.930 . S
N1631 Tb1596 2.572 . S
N1631 C1632 1.340 1_554 S
N1631 C1634 1.361 . S
C1632 H1618 0.930 . S
C1632 N1631 1.340 1_556 S
C1632 C1636 1.407 . S
C1633 C1634 1.413 . S
C1633 C1635 1.440 . S
C1633 C1662 1.427 . S
C1634 C1626 1.424 . S
C1634 N1631 1.361 . S
C1634 C1633 1.413 . S
C1635 H1624 0.925 1_554 S
C1635 C1633 1.440 . S
C1635 C1636 1.314 1_554 S
C1636 H1615 0.929 . S
C1636 C1632 1.407 . S
C1636 C1635 1.314 1_556 S
H1637 C1630 0.930 . S
H1638 C1661 0.930 . S
H1639 C1662 0.929 . S
O1640 Tb1596 2.465 . S
O1640 C1660 1.264 . S
O1641 Tb1596 2.387 1_455 S
O1641 C1652 1.264 . S
O1642 Tb1607 2.349 . S
O1642 C1652 1.243 . S
O1643 Tb1596 2.428 . S
O1643 C1660 1.256 . S
O1644 Tb1596 2.305 1_456 S
O1644 C1659 1.271 . S
O1645 Tb1607 2.393 1_556 S
O1645 C1659 1.248 . S
O1646 Tb1607 2.465 . S
O1646 C1671 1.264 1_554 S
O1647 Tb1607 2.387 . S
O1647 C1663 1.264 . S
O1648 Tb1596 2.349 1_455 S
O1648 C1663 1.243 . S
O1649 Tb1607 2.428 1_556 S
O1649 C1671 1.256 . S
O1650 Tb1607 2.308 . S
O1650 C1670 1.266 . S
O1651 Tb1596 2.393 1_455 S
O1651 C1670 1.248 . S
C1652 O1641 1.264 . S
C1652 O1642 1.243 . S
C1653 C1656 1.399 . S
C1653 C1658 1.383 . S
C1653 C1660 1.496 . S
C1654 C1655 1.399 . S
C1654 C1658 1.389 . S
C1655 C1654 1.399 . S
C1655 C1657 1.380 . S
C1655 H1672 0.929 . S
C1656 C1653 1.399 . S
C1656 C1657 1.392 . S
C1656 H1673 0.929 . S
C1657 C1655 1.380 . S
C1657 C1656 1.392 . S
C1657 H1674 0.929 . S
C1658 C1653 1.383 . S
C1658 C1654 1.389 . S
C1658 H1675 0.931 . S
C1659 O1644 1.271 . S
C1659 O1645 1.248 . S
C1660 Tb1596 2.802 . S
C1660 O1640 1.264 . S
C1660 O1643 1.256 . S
C1660 C1653 1.496 . S
C1661 C1628 1.448 . S
C1661 H1638 0.930 . S
C1661 C1662 1.328 . S
C1662 C1633 1.427 . S
C1662 H1639 0.929 . S
C1662 C1661 1.328 . S
C1663 O1647 1.264 . S
C1663 O1648 1.243 . S
C1664 C1667 1.399 . S
C1664 C1668 1.383 1_556 S
C1664 C1671 1.496 . S
C1665 C1666 1.399 1_554 S
C1665 C1668 1.389 . S
C1666 C1665 1.399 1_556 S
C1666 C1669 1.380 . S
C1666 H1676 0.929 . S
C1667 C1664 1.399 . S
C1667 C1669 1.392 . S
C1667 H1677 0.929 . S
C1668 C1664 1.383 1_554 S
C1668 C1665 1.389 . S
C1668 H1678 0.931 . S
C1669 C1666 1.380 . S
C1669 C1667 1.392 . S
C1669 H1679 0.929 . S
C1670 O1650 1.266 . S
C1670 O1651 1.248 . S
C1671 Tb1607 2.802 1_556 S
C1671 O1646 1.264 1_556 S
C1671 O1649 1.256 . S
C1671 C1664 1.496 . S
H1672 C1655 0.929 . S
H1673 C1656 0.929 . S
H1674 C1657 0.929 . S
H1675 C1658 0.931 . S
H1676 C1666 0.929 . S
H1677 C1667 0.929 . S
H1678 C1668 0.931 . S
H1679 C1669 0.929 . S
C1680 C1681 1.349 . S
C1680 C1682 1.327 . S
C1680 H1705 0.950 . S
C1681 C1680 1.349 . S
C1681 C1697 1.349 1_655 S
C1682 C1680 1.327 . S
C1682 C1701 1.429 1_655 S
C1682 H1706 0.950 . S
C1683 C1700 1.574 . S
C1683 C1702 1.368 . S
C1683 H1707 0.949 . S
H1684 C1688 0.911 1_654 S
C1685 C1686 1.349 1_556 S
C1685 C1687 1.327 . S
C1685 H1708 0.950 . S
C1686 C1685 1.349 1_554 S
C1686 C1698 1.349 . S
C1687 C1685 1.327 . S
C1687 C1703 1.429 . S
C1687 H1709 0.950 . S
C1688 H1684 0.911 1_456 S
C1688 C1696 1.590 1_455 S
C1688 C1704 1.396 . S
H1689 C1697 0.950 . S
H1690 C1695 0.950 . S
H1691 C1696 0.943 1_554 S
H1692 C1698 0.950 . S
H1693 C1699 0.908 1_655 S
H1694 C1700 0.949 . S
C1695 H1690 0.950 . S
C1695 C1697 1.327 . S
C1695 C1701 1.429 . S
C1696 C1688 1.590 1_655 S
C1696 H1691 0.943 1_556 S
C1696 C1702 1.368 1_655 S
C1697 C1681 1.349 1_455 S
C1697 H1689 0.950 . S
C1697 C1695 1.327 . S
C1698 C1686 1.349 . S
C1698 H1692 0.950 . S
C1698 C1699 1.327 . S
C1699 H1693 0.908 1_455 S
C1699 C1698 1.327 . S
C1699 C1703 1.429 1_554 S
C1700 C1683 1.574 . S
C1700 H1694 0.949 . S
C1700 C1704 1.368 . S
C1701 C1682 1.429 1_455 S
C1701 C1695 1.429 . S
C1701 C1702 1.523 . S
C1702 C1683 1.368 . S
C1702 C1696 1.368 1_455 S
C1702 C1701 1.523 . S
C1703 C1687 1.429 . S
C1703 C1699 1.429 1_556 S
C1703 C1704 1.523 . S
C1704 C1688 1.396 . S
C1704 C1700 1.368 . S
C1704 C1703 1.523 . S
H1705 C1680 0.950 . S
H1706 C1682 0.950 . S
H1707 C1683 0.949 . S
H1708 C1685 0.950 . S
H1709 C1687 0.950 . S
C1710 C1711 1.349 . S
C1710 C1712 1.327 . S
C1710 H1735 0.950 . S
C1711 C1710 1.349 . S
C1711 C1727 1.349 . S
C1712 C1710 1.327 . S
C1712 C1731 1.429 . S
C1712 H1736 0.950 . S
C1713 C1730 1.574 . S
C1713 C1732 1.368 . S
C1713 H1737 0.949 . S
H1714 C1718 0.949 . S
C1715 C1716 1.349 . S
C1715 C1717 1.327 . S
C1715 H1738 0.950 . S
C1716 C1715 1.349 . S
C1716 C1728 1.349 . S
C1717 C1715 1.327 . S
C1717 C1733 1.429 . S
C1717 H1739 0.950 . S
C1718 H1714 0.949 . S
C1718 C1726 1.574 . S
C1718 C1734 1.368 . S
H1719 C1727 0.950 . S
H1720 C1725 0.950 . S
H1721 C1726 0.949 . S
H1722 C1728 0.950 . S
H1723 C1729 0.950 . S
H1724 C1730 0.949 . S
C1725 H1720 0.950 . S
C1725 C1727 1.327 . S
C1725 C1731 1.429 . S
C1726 C1718 1.574 . S
C1726 H1721 0.949 . S
C1726 C1732 1.368 . S
C1727 C1711 1.349 . S
C1727 H1719 0.950 . S
C1727 C1725 1.327 . S
C1728 C1716 1.349 . S
C1728 H1722 0.950 . S
C1728 C1729 1.327 . S
C1729 H1723 0.950 . S
C1729 C1728 1.327 . S
C1729 C1733 1.429 . S
C1730 C1713 1.574 . S
C1730 H1724 0.949 . S
C1730 C1734 1.368 . S
C1731 C1712 1.429 . S
C1731 C1725 1.429 . S
C1731 C1732 1.523 . S
C1732 C1713 1.368 . S
C1732 C1726 1.368 . S
C1732 C1731 1.523 . S
C1733 C1717 1.429 . S
C1733 C1729 1.429 . S
C1733 C1734 1.523 . S
C1734 C1718 1.368 . S
C1734 C1730 1.368 . S
C1734 C1733 1.523 . S
H1735 C1710 0.950 . S
H1736 C1712 0.950 . S
H1737 C1713 0.949 . S
H1738 C1715 0.950 . S
H1739 C1717 0.950 . S
C1740 C1741 1.349 . S
C1740 C1742 1.327 . S
C1740 H1765 0.950 . S
C1741 C1740 1.349 . S
C1741 C1757 1.349 . S
C1742 C1740 1.327 . S
C1742 C1761 1.429 . S
C1742 H1766 0.950 . S
C1743 C1760 1.574 . S
C1743 C1762 1.368 . S
C1743 H1767 0.949 . S
H1744 C1748 0.949 . S
C1745 C1746 1.349 . S
C1745 C1747 1.327 . S
C1745 H1768 0.950 . S
C1746 C1745 1.349 . S
C1746 C1758 1.349 . S
C1747 C1745 1.327 . S
C1747 C1763 1.429 . S
C1747 H1769 0.950 . S
C1748 H1744 0.949 . S
C1748 C1756 1.574 . S
C1748 C1764 1.368 . S
H1749 C1757 0.950 . S
H1750 C1755 0.950 . S
H1751 C1756 0.949 . S
H1752 C1758 0.950 . S
H1753 C1759 0.950 . S
H1754 C1760 0.949 . S
C1755 H1750 0.950 . S
C1755 C1757 1.327 . S
C1755 C1761 1.429 . S
C1756 C1748 1.574 . S
C1756 H1751 0.949 . S
C1756 C1762 1.368 . S
C1757 C1741 1.349 . S
C1757 H1749 0.950 . S
C1757 C1755 1.327 . S
C1758 C1746 1.349 . S
C1758 H1752 0.950 . S
C1758 C1759 1.327 . S
C1759 H1753 0.950 . S
C1759 C1758 1.327 . S
C1759 C1763 1.429 . S
C1760 C1743 1.574 . S
C1760 H1754 0.949 . S
C1760 C1764 1.368 . S
C1761 C1742 1.429 . S
C1761 C1755 1.429 . S
C1761 C1762 1.523 . S
C1762 C1743 1.368 . S
C1762 C1756 1.368 . S
C1762 C1761 1.523 . S
C1763 C1747 1.429 . S
C1763 C1759 1.429 . S
C1763 C1764 1.523 . S
C1764 C1748 1.368 . S
C1764 C1760 1.368 . S
C1764 C1763 1.523 . S
H1765 C1740 0.950 . S
H1766 C1742 0.950 . S
H1767 C1743 0.949 . S
H1768 C1745 0.950 . S
H1769 C1747 0.950 . S
C1770 C1771 1.349 . S
C1770 C1772 1.327 . S
C1770 H1795 0.950 . S
C1771 C1770 1.349 . S
C1771 C1787 1.349 . S
C1772 C1770 1.327 . S
C1772 C1791 1.429 . S
C1772 H1796 0.950 . S
C1773 C1790 1.574 . S
C1773 C1792 1.368 . S
C1773 H1797 0.949 . S
H1774 C1778 0.949 . S
C1775 C1776 1.349 . S
C1775 C1777 1.327 . S
C1775 H1798 0.950 . S
C1776 C1775 1.349 . S
C1776 C1788 1.349 . S
C1777 C1775 1.327 . S
C1777 C1793 1.429 . S
C1777 H1799 0.950 . S
C1778 H1774 0.949 . S
C1778 C1786 1.574 . S
C1778 C1794 1.368 . S
H1779 C1787 0.950 . S
H1780 C1785 0.950 . S
H1781 C1786 0.949 . S
H1782 C1788 0.950 . S
H1783 C1789 0.950 . S
H1784 C1790 0.949 . S
C1785 H1780 0.950 . S
C1785 C1787 1.327 . S
C1785 C1791 1.429 . S
C1786 C1778 1.574 . S
C1786 H1781 0.949 . S
C1786 C1792 1.368 . S
C1787 C1771 1.349 . S
C1787 H1779 0.950 . S
C1787 C1785 1.327 . S
C1788 C1776 1.349 . S
C1788 H1782 0.950 . S
C1788 C1789 1.327 . S
C1789 H1783 0.950 . S
C1789 C1788 1.327 . S
C1789 C1793 1.429 . S
C1790 C1773 1.574 . S
C1790 H1784 0.949 . S
C1790 C1794 1.368 . S
C1791 C1772 1.429 . S
C1791 C1785 1.429 . S
C1791 C1792 1.523 . S
C1792 C1773 1.368 . S
C1792 C1786 1.368 . S
C1792 C1791 1.523 . S
C1793 C1777 1.429 . S
C1793 C1789 1.429 . S
C1793 C1794 1.523 . S
C1794 C1778 1.368 . S
C1794 C1790 1.368 . S
C1794 C1793 1.523 . S
H1795 C1770 0.950 . S
H1796 C1772 0.950 . S
H1797 C1773 0.949 . S
H1798 C1775 0.950 . S
H1799 C1777 0.950 . S
C1800 C1801 1.349 . S
C1800 C1802 1.327 . S
C1800 H1825 0.950 1_455 S
C1801 C1800 1.349 . S
C1801 C1817 1.349 . S
C1802 C1800 1.327 . S
C1802 C1821 1.429 . S
C1802 H1826 0.950 1_455 S
C1803 C1820 1.574 . S
C1803 C1822 1.368 . S
C1803 H1827 0.949 . S
H1804 C1808 0.949 1_655 S
C1805 C1806 1.349 . S
C1805 C1807 1.327 . S
C1805 H1828 0.950 . S
C1806 C1805 1.349 . S
C1806 C1818 1.349 . S
C1807 C1805 1.327 . S
C1807 C1823 1.429 . S
C1807 H1829 0.950 . S
C1808 H1804 0.949 1_455 S
C1808 C1816 1.574 . S
C1808 C1824 1.368 . S
H1809 C1817 0.950 . S
H1810 C1815 0.950 . S
H1811 C1816 0.949 1_655 S
H1812 C1818 0.950 1_655 S
H1813 C1819 0.950 1_655 S
H1814 C1820 0.949 . S
C1815 H1810 0.950 . S
C1815 C1817 1.327 . S
C1815 C1821 1.429 . S
C1816 C1808 1.574 . S
C1816 H1811 0.949 1_455 S
C1816 C1822 1.368 . S
C1817 C1801 1.349 . S
C1817 H1809 0.950 . S
C1817 C1815 1.327 . S
C1818 C1806 1.349 . S
C1818 H1812 0.950 1_455 S
C1818 C1819 1.327 . S
C1819 H1813 0.950 1_455 S
C1819 C1818 1.327 . S
C1819 C1823 1.429 . S
C1820 C1803 1.574 . S
C1820 H1814 0.949 . S
C1820 C1824 1.368 . S
C1821 C1802 1.429 . S
C1821 C1815 1.429 . S
C1821 C1822 1.523 . S
C1822 C1803 1.368 . S
C1822 C1816 1.368 . S
C1822 C1821 1.523 . S
C1823 C1807 1.429 . S
C1823 C1819 1.429 . S
C1823 C1824 1.523 . S
C1824 C1808 1.368 . S
C1824 C1820 1.368 . S
C1824 C1823 1.523 . S
H1825 C1800 0.950 1_655 S
H1826 C1802 0.950 1_655 S
H1827 C1803 0.949 . S
H1828 C1805 0.950 . S
H1829 C1807 0.950 . S
C1830 C1831 1.349 . S
C1830 C1832 1.327 . S
C1830 H1855 0.950 . S
C1831 C1830 1.349 . S
C1831 C1847 1.349 . S
C1832 C1830 1.327 . S
C1832 C1851 1.429 . S
C1832 H1856 0.950 . S
C1833 C1850 1.574 . S
C1833 C1852 1.368 . S
C1833 H1857 0.949 . S
H1834 C1838 0.949 . S
C1835 C1836 1.349 . S
C1835 C1837 1.327 . S
C1835 H1858 0.950 . S
C1836 C1835 1.349 . S
C1836 C1848 1.349 . S
C1837 C1835 1.327 . S
C1837 C1853 1.429 . S
C1837 H1859 0.950 . S
C1838 H1834 0.949 . S
C1838 C1846 1.574 . S
C1838 C1854 1.368 . S
H1839 C1847 0.950 . S
H1840 C1845 0.950 . S
H1841 C1846 0.949 . S
H1842 C1848 0.950 . S
H1843 C1849 0.950 . S
H1844 C1850 0.949 . S
C1845 H1840 0.950 . S
C1845 C1847 1.327 . S
C1845 C1851 1.429 . S
C1846 C1838 1.574 . S
C1846 H1841 0.949 . S
C1846 C1852 1.368 . S
C1847 C1831 1.349 . S
C1847 H1839 0.950 . S
C1847 C1845 1.327 . S
C1848 C1836 1.349 . S
C1848 H1842 0.950 . S
C1848 C1849 1.327 . S
C1849 H1843 0.950 . S
C1849 C1848 1.327 . S
C1849 C1853 1.429 . S
C1850 C1833 1.574 . S
C1850 H1844 0.949 . S
C1850 C1854 1.368 . S
C1851 C1832 1.429 . S
C1851 C1845 1.429 . S
C1851 C1852 1.523 . S
C1852 C1833 1.368 . S
C1852 C1846 1.368 . S
C1852 C1851 1.523 . S
C1853 C1837 1.429 . S
C1853 C1849 1.429 . S
C1853 C1854 1.523 . S
C1854 C1838 1.368 . S
C1854 C1850 1.368 . S
C1854 C1853 1.523 . S
H1855 C1830 0.950 . S
H1856 C1832 0.950 . S
H1857 C1833 0.949 . S
H1858 C1835 0.950 . S
H1859 C1837 0.950 . S
C1860 C1861 1.349 . S
C1860 C1862 1.327 . S
C1860 H1885 0.950 . S
C1861 C1860 1.349 . S
C1861 C1877 1.349 . S
C1862 C1860 1.327 . S
C1862 C1881 1.429 . S
C1862 H1886 0.950 . S
C1863 C1880 1.574 . S
C1863 C1882 1.368 . S
C1863 H1887 0.949 . S
H1864 C1868 0.949 . S
C1865 C1866 1.349 . S
C1865 C1867 1.327 . S
C1865 H1888 0.950 . S
C1866 C1865 1.349 . S
C1866 C1878 1.349 . S
C1867 C1865 1.327 . S
C1867 C1883 1.429 . S
C1867 H1889 0.950 . S
C1868 H1864 0.949 . S
C1868 C1876 1.574 . S
C1868 C1884 1.368 . S
H1869 C1877 0.950 . S
H1870 C1875 0.950 . S
H1871 C1876 0.949 . S
H1872 C1878 0.950 . S
H1873 C1879 0.950 . S
H1874 C1880 0.949 . S
C1875 H1870 0.950 . S
C1875 C1877 1.327 . S
C1875 C1881 1.429 . S
C1876 C1868 1.574 . S
C1876 H1871 0.949 . S
C1876 C1882 1.368 . S
C1877 C1861 1.349 . S
C1877 H1869 0.950 . S
C1877 C1875 1.327 . S
C1878 C1866 1.349 . S
C1878 H1872 0.950 . S
C1878 C1879 1.327 . S
C1879 H1873 0.950 . S
C1879 C1878 1.327 . S
C1879 C1883 1.429 . S
C1880 C1863 1.574 . S
C1880 H1874 0.949 . S
C1880 C1884 1.368 . S
C1881 C1862 1.429 . S
C1881 C1875 1.429 . S
C1881 C1882 1.523 . S
C1882 C1863 1.368 . S
C1882 C1876 1.368 . S
C1882 C1881 1.523 . S
C1883 C1867 1.429 . S
C1883 C1879 1.429 . S
C1883 C1884 1.523 . S
C1884 C1868 1.368 . S
C1884 C1880 1.368 . S
C1884 C1883 1.523 . S
H1885 C1860 0.950 . S
H1886 C1862 0.950 . S
H1887 C1863 0.949 . S
H1888 C1865 0.950 . S
H1889 C1867 0.950 . S
C1890 C1891 1.349 . S
C1890 C1892 1.327 . S
C1890 H1915 0.950 . S
C1891 C1890 1.349 . S
C1891 C1907 1.349 . S
C1892 C1890 1.327 . S
C1892 C1911 1.429 . S
C1892 H1916 0.950 . S
C1893 C1910 1.574 . S
C1893 C1912 1.368 . S
C1893 H1917 0.949 . S
H1894 C1898 0.949 . S
C1895 C1896 1.349 . S
C1895 C1897 1.327 . S
C1895 H1918 0.950 . S
C1896 C1895 1.349 . S
C1896 C1908 1.349 . S
C1897 C1895 1.327 . S
C1897 C1913 1.429 . S
C1897 H1919 0.950 . S
C1898 H1894 0.949 . S
C1898 C1906 1.574 . S
C1898 C1914 1.368 . S
H1899 C1907 0.950 . S
H1900 C1905 0.950 . S
H1901 C1906 0.949 . S
H1902 C1908 0.950 . S
H1903 C1909 0.950 . S
H1904 C1910 0.949 . S
C1905 H1900 0.950 . S
C1905 C1907 1.327 . S
C1905 C1911 1.429 . S
C1906 C1898 1.574 . S
C1906 H1901 0.949 . S
C1906 C1912 1.368 . S
C1907 C1891 1.349 . S
C1907 H1899 0.950 . S
C1907 C1905 1.327 . S
C1908 C1896 1.349 . S
C1908 H1902 0.950 . S
C1908 C1909 1.327 . S
C1909 H1903 0.950 . S
C1909 C1908 1.327 . S
C1909 C1913 1.429 . S
C1910 C1893 1.574 . S
C1910 H1904 0.949 . S
C1910 C1914 1.368 . S
C1911 C1892 1.429 . S
C1911 C1905 1.429 . S
C1911 C1912 1.523 . S
C1912 C1893 1.368 . S
C1912 C1906 1.368 . S
C1912 C1911 1.523 . S
C1913 C1897 1.429 . S
C1913 C1909 1.429 . S
C1913 C1914 1.523 . S
C1914 C1898 1.368 . S
C1914 C1910 1.368 . S
C1914 C1913 1.523 . S
H1915 C1890 0.950 . S
H1916 C1892 0.950 . S
H1917 C1893 0.949 . S
H1918 C1895 0.950 . S
H1919 C1897 0.950 . S
C1920 C1921 1.349 . S
C1920 C1922 1.327 . S
C1920 H1945 0.950 1_545 S
C1921 C1920 1.349 . S
C1921 C1937 1.349 . S
C1922 C1920 1.327 . S
C1922 C1941 1.429 . S
C1922 H1946 0.950 1_545 S
C1923 C1940 1.574 . S
C1923 C1942 1.368 . S
C1923 H1947 0.949 . S
H1924 C1928 0.949 . S
C1925 C1926 1.349 . S
C1925 C1927 1.327 . S
C1925 H1948 0.950 . S
C1926 C1925 1.349 . S
C1926 C1938 1.349 1_455 S
C1927 C1925 1.327 . S
C1927 C1943 1.429 1_455 S
C1927 H1949 0.950 . S
C1928 H1924 0.949 . S
C1928 C1936 1.574 . S
C1928 C1944 1.368 . S
H1929 C1937 0.950 . S
H1930 C1935 0.950 . S
H1931 C1936 0.962 . S
H1932 C1938 0.950 . S
H1933 C1939 0.950 . S
H1934 C1940 0.949 1_455 S
C1935 H1930 0.950 . S
C1935 C1937 1.327 . S
C1935 C1941 1.429 . S
C1936 C1928 1.574 . S
C1936 H1931 0.962 . S
C1936 C1942 1.368 . S
C1937 C1921 1.349 . S
C1937 H1929 0.950 . S
C1937 C1935 1.327 . S
C1938 C1926 1.349 1_655 S
C1938 H1932 0.950 . S
C1938 C1939 1.327 . S
C1939 H1933 0.950 . S
C1939 C1938 1.327 . S
C1939 C1943 1.429 . S
C1940 C1923 1.574 . S
C1940 H1934 0.949 1_655 S
C1940 C1944 1.368 . S
C1941 C1922 1.429 . S
C1941 C1935 1.429 . S
C1941 C1942 1.523 . S
C1942 C1923 1.368 . S
C1942 C1936 1.368 . S
C1942 C1941 1.523 . S
C1943 C1927 1.429 1_655 S
C1943 C1939 1.429 . S
C1943 C1944 1.523 . S
C1944 C1928 1.368 . S
C1944 C1940 1.368 . S
C1944 C1943 1.523 . S
H1945 C1920 0.950 1_565 S
H1946 C1922 0.950 1_565 S
H1947 C1923 0.949 . S
H1948 C1925 0.950 . S
H1949 C1927 0.950 . S
C1950 C1951 1.349 . S
C1950 C1952 1.327 . S
C1950 H1975 0.950 . S
C1951 C1950 1.349 . S
C1951 C1967 1.349 . S
C1952 C1950 1.327 . S
C1952 C1971 1.429 . S
C1952 H1976 0.950 . S
C1953 C1970 1.574 . S
C1953 C1972 1.368 . S
C1953 H1977 0.949 . S
H1954 C1958 0.949 . S
C1955 C1956 1.349 . S
C1955 C1957 1.327 . S
C1955 H1978 0.950 . S
C1956 C1955 1.349 . S
C1956 C1968 1.349 . S
C1957 C1955 1.327 . S
C1957 C1973 1.429 . S
C1957 H1979 0.950 . S
C1958 H1954 0.949 . S
C1958 C1966 1.574 . S
C1958 C1974 1.368 . S
H1959 C1967 0.950 . S
H1960 C1965 0.950 . S
H1961 C1966 0.949 . S
H1962 C1968 0.950 . S
H1963 C1969 0.950 . S
H1964 C1970 0.949 . S
C1965 H1960 0.950 . S
C1965 C1967 1.327 . S
C1965 C1971 1.429 . S
C1966 C1958 1.574 . S
C1966 H1961 0.949 . S
C1966 C1972 1.368 . S
C1967 C1951 1.349 . S
C1967 H1959 0.950 . S
C1967 C1965 1.327 . S
C1968 C1956 1.349 . S
C1968 H1962 0.950 . S
C1968 C1969 1.327 . S
C1969 H1963 0.950 . S
C1969 C1968 1.327 . S
C1969 C1973 1.429 . S
C1970 C1953 1.574 . S
C1970 H1964 0.949 . S
C1970 C1974 1.368 . S
C1971 C1952 1.429 . S
C1971 C1965 1.429 . S
C1971 C1972 1.523 . S
C1972 C1953 1.368 . S
C1972 C1966 1.368 . S
C1972 C1971 1.523 . S
C1973 C1957 1.429 . S
C1973 C1969 1.429 . S
C1973 C1974 1.523 . S
C1974 C1958 1.368 . S
C1974 C1970 1.368 . S
C1974 C1973 1.523 . S
H1975 C1950 0.950 . S
H1976 C1952 0.950 . S
H1977 C1953 0.949 . S
H1978 C1955 0.950 . S
H1979 C1957 0.950 . S
C1980 C1981 1.349 . S
C1980 C1982 1.327 . S
C1980 H2005 0.950 . S
C1981 C1980 1.349 . S
C1981 C1997 1.349 . S
C1982 C1980 1.327 . S
C1982 C2001 1.429 . S
C1982 H2006 0.950 . S
C1983 C2000 1.574 . S
C1983 C2002 1.368 . S
C1983 H2007 0.949 . S
H1984 C1988 0.949 . S
C1985 C1986 1.349 . S
C1985 C1987 1.327 . S
C1985 H2008 0.944 1_545 S
C1986 C1985 1.349 . S
C1986 C1998 1.349 . S
C1987 C1985 1.327 . S
C1987 C2003 1.429 . S
C1987 H2009 0.950 . S
C1988 H1984 0.949 . S
C1988 C1996 1.574 . S
C1988 C2004 1.368 . S
H1989 C1997 0.950 . S
H1990 C1995 0.950 . S
H1991 C1996 0.949 . S
H1992 C1998 0.950 . S
H1993 C1999 0.950 . S
H1994 C2000 0.949 . S
C1995 H1990 0.950 . S
C1995 C1997 1.327 . S
C1995 C2001 1.429 . S
C1996 C1988 1.574 . S
C1996 H1991 0.949 . S
C1996 C2002 1.368 . S
C1997 C1981 1.349 . S
C1997 H1989 0.950 . S
C1997 C1995 1.327 . S
C1998 C1986 1.349 . S
C1998 H1992 0.950 . S
C1998 C1999 1.327 . S
C1999 H1993 0.950 . S
C1999 C1998 1.327 . S
C1999 C2003 1.429 . S
C2000 C1983 1.574 . S
C2000 H1994 0.949 . S
C2000 C2004 1.368 . S
C2001 C1982 1.429 . S
C2001 C1995 1.429 . S
C2001 C2002 1.523 . S
C2002 C1983 1.368 . S
C2002 C1996 1.368 . S
C2002 C2001 1.523 . S
C2003 C1987 1.429 . S
C2003 C1999 1.429 . S
C2003 C2004 1.523 . S
C2004 C1988 1.368 . S
C2004 C2000 1.368 . S
C2004 C2003 1.523 . S
H2005 C1980 0.950 . S
H2006 C1982 0.950 . S
H2007 C1983 0.949 . S
H2008 C1985 0.944 1_565 S
H2009 C1987 0.950 . S
C2010 C2011 1.349 . S
C2010 C2012 1.327 . S
C2010 H2035 0.950 . S
C2011 C2010 1.349 . S
C2011 C2027 1.349 . S
C2012 C2010 1.327 . S
C2012 C2031 1.429 . S
C2012 H2036 0.950 . S
C2013 C2030 1.574 . S
C2013 C2032 1.368 . S
C2013 H2037 0.949 . S
H2014 C2018 0.949 . S
C2015 C2016 1.349 . S
C2015 C2017 1.327 . S
C2015 H2038 0.950 . S
C2016 C2015 1.349 . S
C2016 C2028 1.349 . S
C2017 C2015 1.327 . S
C2017 C2033 1.429 . S
C2017 H2039 0.950 . S
C2018 H2014 0.949 . S
C2018 C2026 1.574 . S
C2018 C2034 1.368 . S
H2019 C2027 0.950 . S
H2020 C2025 0.950 . S
H2021 C2026 0.949 . S
H2022 C2028 0.950 . S
H2023 C2029 0.950 . S
H2024 C2030 0.949 . S
C2025 H2020 0.950 . S
C2025 C2027 1.327 . S
C2025 C2031 1.429 . S
C2026 C2018 1.574 . S
C2026 H2021 0.949 . S
C2026 C2032 1.368 . S
C2027 C2011 1.349 . S
C2027 H2019 0.950 . S
C2027 C2025 1.327 . S
C2028 C2016 1.349 . S
C2028 H2022 0.950 . S
C2028 C2029 1.327 . S
C2029 H2023 0.950 . S
C2029 C2028 1.327 . S
C2029 C2033 1.429 . S
C2030 C2013 1.574 . S
C2030 H2024 0.949 . S
C2030 C2034 1.368 . S
C2031 C2012 1.429 . S
C2031 C2025 1.429 . S
C2031 C2032 1.523 . S
C2032 C2013 1.368 . S
C2032 C2026 1.368 . S
C2032 C2031 1.523 . S
C2033 C2017 1.429 . S
C2033 C2029 1.429 . S
C2033 C2034 1.523 . S
C2034 C2018 1.368 . S
C2034 C2030 1.368 . S
C2034 C2033 1.523 . S
H2035 C2010 0.950 . S
H2036 C2012 0.950 . S
H2037 C2013 0.949 . S
H2038 C2015 0.950 . S
H2039 C2017 0.950 . S
C2040 C2041 1.349 . S
C2040 C2042 1.327 . S
C2040 H2065 0.950 1_545 S
C2041 C2040 1.349 . S
C2041 C2057 1.349 . S
C2042 C2040 1.327 . S
C2042 C2061 1.429 . S
C2042 H2066 0.950 1_545 S
C2043 C2060 1.574 . S
C2043 C2062 1.368 . S
C2043 H2067 0.949 . S
H2044 C2048 0.949 1_565 S
C2045 C2046 1.321 1_655 S
C2045 C2047 1.327 . S
C2045 H2068 0.950 . S
C2046 C2045 1.321 1_455 S
C2046 C2058 1.365 . S
C2047 C2045 1.327 . S
C2047 C2063 1.429 . S
C2047 H2069 0.950 . S
C2048 H2044 0.949 1_545 S
C2048 C2056 1.574 . S
C2048 C2064 1.368 . S
H2049 C2057 0.950 . S
H2050 C2055 0.950 . S
H2051 C2056 0.949 1_565 S
H2052 C2058 0.950 1_565 S
H2053 C2059 0.950 1_565 S
H2054 C2060 0.949 . S
C2055 H2050 0.950 . S
C2055 C2057 1.327 . S
C2055 C2061 1.429 . S
C2056 C2048 1.574 . S
C2056 H2051 0.949 1_545 S
C2056 C2062 1.368 . S
C2057 C2041 1.349 . S
C2057 H2049 0.950 . S
C2057 C2055 1.327 . S
C2058 C2046 1.365 . S
C2058 H2052 0.950 1_545 S
C2058 C2059 1.327 1_455 S
C2059 H2053 0.950 1_545 S
C2059 C2058 1.327 1_655 S
C2059 C2063 1.429 . S
C2060 C2043 1.574 . S
C2060 H2054 0.949 . S
C2060 C2064 1.368 . S
C2061 C2042 1.429 . S
C2061 C2055 1.429 . S
C2061 C2062 1.523 . S
C2062 C2043 1.368 . S
C2062 C2056 1.368 . S
C2062 C2061 1.523 . S
C2063 C2047 1.429 . S
C2063 C2059 1.429 . S
C2063 C2064 1.523 . S
C2064 C2048 1.368 . S
C2064 C2060 1.368 . S
C2064 C2063 1.523 . S
H2065 C2040 0.950 1_565 S
H2066 C2042 0.950 1_565 S
H2067 C2043 0.949 . S
H2068 C2045 0.950 . S
H2069 C2047 0.950 . S
C2070 C2071 1.349 . S
C2070 C2072 1.327 . S
C2070 H2095 0.950 . S
C2071 C2070 1.349 . S
C2071 C2087 1.349 . S
C2072 C2070 1.327 . S
C2072 C2091 1.429 . S
C2072 H2096 0.950 . S
C2073 C2090 1.574 . S
C2073 C2092 1.368 . S
C2073 H2097 0.949 . S
H2074 C2078 0.949 . S
C2075 C2076 1.349 . S
C2075 C2077 1.327 . S
C2075 H2098 0.950 . S
C2076 C2075 1.349 . S
C2076 C2088 1.349 . S
C2077 C2075 1.327 . S
C2077 C2093 1.429 . S
C2077 H2099 0.950 . S
C2078 H2074 0.949 . S
C2078 C2086 1.574 . S
C2078 C2094 1.368 . S
H2079 C2087 0.950 . S
H2080 C2085 0.950 . S
H2081 C2086 0.949 . S
H2082 C2088 0.950 . S
H2083 C2089 0.950 . S
H2084 C2090 0.949 . S
C2085 H2080 0.950 . S
C2085 C2087 1.327 . S
C2085 C2091 1.429 . S
C2086 C2078 1.574 . S
C2086 H2081 0.949 . S
C2086 C2092 1.368 . S
C2087 C2071 1.349 . S
C2087 H2079 0.950 . S
C2087 C2085 1.327 . S
C2088 C2076 1.349 . S
C2088 H2082 0.950 . S
C2088 C2089 1.327 . S
C2089 H2083 0.950 . S
C2089 C2088 1.327 . S
C2089 C2093 1.429 . S
C2090 C2073 1.574 . S
C2090 H2084 0.949 . S
C2090 C2094 1.368 . S
C2091 C2072 1.429 . S
C2091 C2085 1.429 . S
C2091 C2092 1.523 . S
C2092 C2073 1.368 . S
C2092 C2086 1.368 . S
C2092 C2091 1.523 . S
C2093 C2077 1.429 . S
C2093 C2089 1.429 . S
C2093 C2094 1.523 . S
C2094 C2078 1.368 . S
C2094 C2090 1.368 . S
C2094 C2093 1.523 . S
H2095 C2070 0.950 . S
H2096 C2072 0.950 . S
H2097 C2073 0.949 . S
H2098 C2075 0.950 . S
H2099 C2077 0.950 . S
C2100 C2101 1.349 . S
C2100 C2102 1.327 . S
C2100 H2125 0.950 . S
C2101 C2100 1.349 . S
C2101 C2117 1.349 . S
C2102 C2100 1.327 . S
C2102 C2121 1.429 . S
C2102 H2126 0.950 . S
C2103 C2120 1.574 . S
C2103 C2122 1.368 . S
C2103 H2127 0.949 . S
H2104 C2108 0.949 . S
C2105 C2106 1.349 . S
C2105 C2107 1.327 . S
C2105 H2128 0.950 . S
C2106 C2105 1.349 . S
C2106 C2118 1.349 . S
C2107 C2105 1.327 . S
C2107 C2123 1.429 . S
C2107 H2129 0.950 . S
C2108 H2104 0.949 . S
C2108 C2116 1.574 . S
C2108 C2124 1.368 . S
H2109 C2117 0.950 . S
H2110 C2115 0.950 . S
H2111 C2116 0.949 . S
H2112 C2118 0.950 . S
H2113 C2119 0.950 . S
H2114 C2120 0.949 . S
C2115 H2110 0.950 . S
C2115 C2117 1.327 . S
C2115 C2121 1.429 . S
C2116 C2108 1.574 . S
C2116 H2111 0.949 . S
C2116 C2122 1.368 . S
C2117 C2101 1.349 . S
C2117 H2109 0.950 . S
C2117 C2115 1.327 . S
C2118 C2106 1.349 . S
C2118 H2112 0.950 . S
C2118 C2119 1.327 . S
C2119 H2113 0.950 . S
C2119 C2118 1.327 . S
C2119 C2123 1.429 . S
C2120 C2103 1.574 . S
C2120 H2114 0.949 . S
C2120 C2124 1.368 . S
C2121 C2102 1.429 . S
C2121 C2115 1.429 . S
C2121 C2122 1.523 . S
C2122 C2103 1.368 . S
C2122 C2116 1.368 . S
C2122 C2121 1.523 . S
C2123 C2107 1.429 . S
C2123 C2119 1.429 . S
C2123 C2124 1.523 . S
C2124 C2108 1.368 . S
C2124 C2120 1.368 . S
C2124 C2123 1.523 . S
H2125 C2100 0.950 . S
H2126 C2102 0.950 . S
H2127 C2103 0.949 . S
H2128 C2105 0.950 . S
H2129 C2107 0.950 . S
C2130 C2131 1.349 . S
C2130 C2132 1.327 . S
C2130 H2155 0.950 . S
C2131 C2130 1.349 . S
C2131 C2147 1.349 . S
C2132 C2130 1.327 . S
C2132 C2151 1.429 . S
C2132 H2156 0.950 . S
C2133 C2150 1.574 . S
C2133 C2152 1.368 . S
C2133 H2157 0.949 . S
H2134 C2138 0.949 . S
C2135 C2136 1.349 . S
C2135 C2137 1.327 . S
C2135 H2158 0.950 . S
C2136 C2135 1.349 . S
C2136 C2148 1.349 . S
C2137 C2135 1.327 . S
C2137 C2153 1.429 . S
C2137 H2159 0.950 . S
C2138 H2134 0.949 . S
C2138 C2146 1.574 . S
C2138 C2154 1.368 . S
H2139 C2147 0.950 . S
H2140 C2145 0.950 . S
H2141 C2146 0.949 . S
H2142 C2148 0.950 . S
H2143 C2149 0.950 . S
H2144 C2150 0.949 . S
C2145 H2140 0.950 . S
C2145 C2147 1.327 . S
C2145 C2151 1.429 . S
C2146 C2138 1.574 . S
C2146 H2141 0.949 . S
C2146 C2152 1.368 . S
C2147 C2131 1.349 . S
C2147 H2139 0.950 . S
C2147 C2145 1.327 . S
C2148 C2136 1.349 . S
C2148 H2142 0.950 . S
C2148 C2149 1.327 . S
C2149 H2143 0.950 . S
C2149 C2148 1.327 . S
C2149 C2153 1.429 . S
C2150 C2133 1.574 . S
C2150 H2144 0.949 . S
C2150 C2154 1.368 . S
C2151 C2132 1.429 . S
C2151 C2145 1.429 . S
C2151 C2152 1.523 . S
C2152 C2133 1.368 . S
C2152 C2146 1.368 . S
C2152 C2151 1.523 . S
C2153 C2137 1.429 . S
C2153 C2149 1.429 . S
C2153 C2154 1.523 . S
C2154 C2138 1.368 . S
C2154 C2150 1.368 . S
C2154 C2153 1.523 . S
H2155 C2130 0.950 . S
H2156 C2132 0.950 . S
H2157 C2133 0.949 . S
H2158 C2135 0.950 . S
H2159 C2137 0.950 . S
C2160 C2161 1.349 1_554 S
C2160 C2162 1.327 . S
C2160 H2185 0.950 . S
C2161 C2160 1.349 1_556 S
C2161 C2177 1.349 . S
C2162 C2160 1.327 . S
C2162 C2181 1.429 . S
C2162 H2186 0.950 . S
C2163 C2180 1.575 1_556 S
C2163 C2182 1.370 1_556 S
C2163 H2187 0.946 . S
H2164 C2168 0.949 . S
C2165 C2166 1.349 1_545 S
C2165 C2167 1.352 . S
C2165 H2188 0.950 . S
C2166 C2165 1.349 1_565 S
C2166 C2178 1.349 . S
C2167 C2165 1.352 . S
C2167 C2183 1.378 1_545 S
C2167 H2189 0.977 . S
C2168 H2164 0.949 . S
C2168 C2176 1.574 . S
C2168 C2184 1.368 . S
H2169 C2177 0.950 . S
H2170 C2175 0.950 . S
H2171 C2176 0.949 . S
H2172 C2178 0.950 . S
H2173 C2179 0.950 . S
H2174 C2180 0.933 1_545 S
C2175 H2170 0.950 . S
C2175 C2177 1.327 . S
C2175 C2181 1.429 1_556 S
C2176 C2168 1.574 . S
C2176 H2171 0.949 . S
C2176 C2182 1.368 . S
C2177 C2161 1.349 . S
C2177 H2169 0.950 . S
C2177 C2175 1.327 . S
C2178 C2166 1.349 . S
C2178 H2172 0.950 . S
C2178 C2179 1.327 . S
C2179 H2173 0.950 . S
C2179 C2178 1.327 . S
C2179 C2183 1.429 . S
C2180 C2163 1.575 1_554 S
C2180 H2174 0.933 1_565 S
C2180 C2184 1.368 . S
C2181 C2162 1.429 . S
C2181 C2175 1.429 1_554 S
C2181 C2182 1.523 . S
C2182 C2163 1.370 1_554 S
C2182 C2176 1.368 . S
C2182 C2181 1.523 . S
C2183 C2167 1.378 1_565 S
C2183 C2179 1.429 . S
C2183 C2184 1.523 . S
C2184 C2168 1.368 . S
C2184 C2180 1.368 . S
C2184 C2183 1.523 . S
H2185 C2160 0.950 . S
H2186 C2162 0.950 . S
H2187 C2163 0.946 . S
H2188 C2165 0.950 . S
H2189 C2167 0.977 . S
C2190 C2191 1.349 1_556 S
C2190 C2192 1.327 . S
C2190 H2215 0.950 . S
C2191 C2190 1.349 1_554 S
C2191 C2207 1.349 . S
C2192 C2190 1.327 . S
C2192 C2211 1.429 1_556 S
C2192 H2216 0.950 . S
C2193 C2210 1.574 . S
C2193 C2212 1.368 . S
C2193 H2217 0.949 . S
H2194 C2198 0.949 . S
C2195 C2196 1.349 . S
C2195 C2197 1.327 . S
C2195 H2218 0.950 . S
C2196 C2195 1.349 . S
C2196 C2208 1.349 1_554 S
C2197 C2195 1.327 . S
C2197 C2213 1.429 . S
C2197 H2219 0.950 . S
C2198 H2194 0.949 . S
C2198 C2206 1.574 . S
C2198 C2214 1.368 1_556 S
H2199 C2207 0.950 . S
H2200 C2205 0.950 . S
H2201 C2206 0.949 . S
H2202 C2208 0.950 . S
H2203 C2209 0.950 . S
H2204 C2210 0.949 . S
C2205 H2200 0.950 . S
C2205 C2207 1.327 . S
C2205 C2211 1.429 . S
C2206 C2198 1.574 . S
C2206 H2201 0.949 . S
C2206 C2212 1.368 1_556 S
C2207 C2191 1.349 . S
C2207 H2199 0.950 . S
C2207 C2205 1.327 . S
C2208 C2196 1.349 1_556 S
C2208 H2202 0.950 . S
C2208 C2209 1.327 . S
C2209 H2203 0.950 . S
C2209 C2208 1.327 . S
C2209 C2213 1.429 1_556 S
C2210 C2193 1.574 . S
C2210 H2204 0.949 . S
C2210 C2214 1.368 . S
C2211 C2192 1.429 1_554 S
C2211 C2205 1.429 . S
C2211 C2212 1.523 . S
C2212 C2193 1.368 . S
C2212 C2206 1.368 1_554 S
C2212 C2211 1.523 . S
C2213 C2197 1.429 . S
C2213 C2209 1.429 1_554 S
C2213 C2214 1.523 . S
C2214 C2198 1.368 1_554 S
C2214 C2210 1.368 . S
C2214 C2213 1.523 . S
H2215 C2190 0.950 . S
H2216 C2192 0.950 . S
H2217 C2193 0.949 . S
H2218 C2195 0.950 . S
H2219 C2197 0.950 . S
C2220 C2221 1.349 . S
C2220 C2222 1.327 . S
C2220 H2245 0.950 . S
C2221 C2220 1.349 . S
C2221 C2237 1.349 . S
C2222 C2220 1.327 . S
C2222 C2241 1.429 . S
C2222 H2246 0.950 . S
C2223 C2240 1.574 . S
C2223 C2242 1.368 . S
C2223 H2247 0.949 . S
H2224 C2228 0.949 . S
C2225 C2226 1.349 . S
C2225 C2227 1.327 . S
C2225 H2248 0.950 . S
C2226 C2225 1.349 . S
C2226 C2238 1.349 . S
C2227 C2225 1.327 . S
C2227 C2243 1.429 . S
C2227 H2249 0.950 . S
C2228 H2224 0.949 . S
C2228 C2236 1.574 . S
C2228 C2244 1.368 . S
H2229 C2237 0.950 . S
H2230 C2235 0.950 . S
H2231 C2236 0.949 . S
H2232 C2238 0.950 . S
H2233 C2239 0.950 . S
H2234 C2240 0.949 . S
C2235 H2230 0.950 . S
C2235 C2237 1.327 . S
C2235 C2241 1.429 . S
C2236 C2228 1.574 . S
C2236 H2231 0.949 . S
C2236 C2242 1.368 . S
C2237 C2221 1.349 . S
C2237 H2229 0.950 . S
C2237 C2235 1.327 . S
C2238 C2226 1.349 . S
C2238 H2232 0.950 . S
C2238 C2239 1.327 . S
C2239 H2233 0.950 . S
C2239 C2238 1.327 . S
C2239 C2243 1.429 . S
C2240 C2223 1.574 . S
C2240 H2234 0.949 . S
C2240 C2244 1.368 . S
C2241 C2222 1.429 . S
C2241 C2235 1.429 . S
C2241 C2242 1.523 . S
C2242 C2223 1.368 . S
C2242 C2236 1.368 . S
C2242 C2241 1.523 . S
C2243 C2227 1.429 . S
C2243 C2239 1.429 . S
C2243 C2244 1.523 . S
C2244 C2228 1.368 . S
C2244 C2240 1.368 . S
C2244 C2243 1.523 . S
H2245 C2220 0.950 . S
H2246 C2222 0.950 . S
H2247 C2223 0.949 . S
H2248 C2225 0.950 . S
H2249 C2227 0.950 . S
C2250 C2251 1.349 . S
C2250 C2252 1.327 . S
C2250 H2275 0.950 . S
C2251 C2250 1.349 . S
C2251 C2267 1.349 . S
C2252 C2250 1.327 . S
C2252 C2271 1.429 . S
C2252 H2276 0.950 . S
C2253 C2270 1.574 . S
C2253 C2272 1.368 . S
C2253 H2277 0.949 . S
H2254 C2258 0.949 . S
C2255 C2256 1.349 . S
C2255 C2257 1.327 . S
C2255 H2278 0.950 . S
C2256 C2255 1.349 . S
C2256 C2268 1.349 . S
C2257 C2255 1.327 . S
C2257 C2273 1.429 . S
C2257 H2279 0.950 . S
C2258 H2254 0.949 . S
C2258 C2266 1.574 . S
C2258 C2274 1.368 . S
H2259 C2267 0.950 . S
H2260 C2265 0.950 . S
H2261 C2266 0.949 . S
H2262 C2268 0.950 . S
H2263 C2269 0.950 . S
H2264 C2270 0.949 . S
C2265 H2260 0.950 . S
C2265 C2267 1.327 . S
C2265 C2271 1.429 . S
C2266 C2258 1.574 . S
C2266 H2261 0.949 . S
C2266 C2272 1.368 . S
C2267 C2251 1.349 . S
C2267 H2259 0.950 . S
C2267 C2265 1.327 . S
C2268 C2256 1.349 . S
C2268 H2262 0.950 . S
C2268 C2269 1.327 . S
C2269 H2263 0.950 . S
C2269 C2268 1.327 . S
C2269 C2273 1.429 . S
C2270 C2253 1.574 . S
C2270 H2264 0.949 . S
C2270 C2274 1.368 . S
C2271 C2252 1.429 . S
C2271 C2265 1.429 . S
C2271 C2272 1.523 . S
C2272 C2253 1.368 . S
C2272 C2266 1.368 . S
C2272 C2271 1.523 . S
C2273 C2257 1.429 . S
C2273 C2269 1.429 . S
C2273 C2274 1.523 . S
C2274 C2258 1.368 . S
C2274 C2270 1.368 . S
C2274 C2273 1.523 . S
H2275 C2250 0.950 . S
H2276 C2252 0.950 . S
H2277 C2253 0.949 . S
H2278 C2255 0.950 . S
H2279 C2257 0.950 . S
C2280 C2281 1.349 . S
C2280 C2282 1.327 . S
C2280 H2305 0.950 . S
C2281 C2280 1.349 . S
C2281 C2297 1.349 . S
C2282 C2280 1.327 . S
C2282 C2301 1.429 . S
C2282 H2306 0.950 . S
C2283 C2300 1.574 . S
C2283 C2302 1.368 . S
C2283 H2307 0.949 . S
H2284 C2288 0.949 . S
C2285 C2286 1.349 . S
C2285 C2287 1.327 . S
C2285 H2308 0.950 . S
C2286 C2285 1.349 . S
C2286 C2298 1.349 . S
C2287 C2285 1.327 . S
C2287 C2303 1.429 . S
C2287 H2309 0.950 . S
C2288 H2284 0.949 . S
C2288 C2296 1.574 . S
C2288 C2304 1.368 . S
H2289 C2297 0.950 . S
H2290 C2295 0.950 . S
H2291 C2296 0.949 . S
H2292 C2298 0.950 . S
H2293 C2299 0.950 . S
H2294 C2300 0.949 . S
C2295 H2290 0.950 . S
C2295 C2297 1.327 . S
C2295 C2301 1.429 . S
C2296 C2288 1.574 . S
C2296 H2291 0.949 . S
C2296 C2302 1.368 . S
C2297 C2281 1.349 . S
C2297 H2289 0.950 . S
C2297 C2295 1.327 . S
C2298 C2286 1.349 . S
C2298 H2292 0.950 . S
C2298 C2299 1.327 . S
C2299 H2293 0.950 . S
C2299 C2298 1.327 . S
C2299 C2303 1.429 . S
C2300 C2283 1.574 . S
C2300 H2294 0.949 . S
C2300 C2304 1.368 . S
C2301 C2282 1.429 . S
C2301 C2295 1.429 . S
C2301 C2302 1.523 . S
C2302 C2283 1.368 . S
C2302 C2296 1.368 . S
C2302 C2301 1.523 . S
C2303 C2287 1.429 . S
C2303 C2299 1.429 . S
C2303 C2304 1.523 . S
C2304 C2288 1.368 . S
C2304 C2300 1.368 . S
C2304 C2303 1.523 . S
H2305 C2280 0.950 . S
H2306 C2282 0.950 . S
H2307 C2283 0.949 . S
H2308 C2285 0.950 . S
H2309 C2287 0.950 . S
C2310 C2311 1.349 . S
C2310 C2312 1.327 . S
C2310 H2335 0.950 . S
C2311 C2310 1.349 . S
C2311 C2327 1.349 . S
C2312 C2310 1.327 . S
C2312 C2331 1.429 . S
C2312 H2336 0.950 . S
C2313 C2330 1.574 . S
C2313 C2332 1.368 . S
C2313 H2337 0.949 . S
H2314 C2318 0.949 . S
C2315 C2316 1.349 . S
C2315 C2317 1.327 . S
C2315 H2338 0.950 . S
C2316 C2315 1.349 . S
C2316 C2328 1.349 . S
C2317 C2315 1.327 . S
C2317 C2333 1.429 . S
C2317 H2339 0.950 . S
C2318 H2314 0.949 . S
C2318 C2326 1.574 . S
C2318 C2334 1.368 . S
H2319 C2327 0.950 . S
H2320 C2325 0.950 . S
H2321 C2326 0.949 . S
H2322 C2328 0.950 . S
H2323 C2329 0.950 . S
H2324 C2330 0.949 . S
C2325 H2320 0.950 . S
C2325 C2327 1.327 . S
C2325 C2331 1.429 . S
C2326 C2318 1.574 . S
C2326 H2321 0.949 . S
C2326 C2332 1.368 . S
C2327 C2311 1.349 . S
C2327 H2319 0.950 . S
C2327 C2325 1.327 . S
C2328 C2316 1.349 . S
C2328 H2322 0.950 . S
C2328 C2329 1.327 . S
C2329 H2323 0.950 . S
C2329 C2328 1.327 . S
C2329 C2333 1.429 . S
C2330 C2313 1.574 . S
C2330 H2324 0.949 . S
C2330 C2334 1.368 . S
C2331 C2312 1.429 . S
C2331 C2325 1.429 . S
C2331 C2332 1.523 . S
C2332 C2313 1.368 . S
C2332 C2326 1.368 . S
C2332 C2331 1.523 . S
C2333 C2317 1.429 . S
C2333 C2329 1.429 . S
C2333 C2334 1.523 . S
C2334 C2318 1.368 . S
C2334 C2330 1.368 . S
C2334 C2333 1.523 . S
H2335 C2310 0.950 . S
H2336 C2312 0.950 . S
H2337 C2313 0.949 . S
H2338 C2315 0.950 . S
H2339 C2317 0.950 . S
C2340 C2341 1.349 . S
C2340 C2342 1.327 . S
C2340 H2365 0.950 . S
C2341 C2340 1.349 . S
C2341 C2357 1.349 . S
C2342 C2340 1.327 . S
C2342 C2361 1.429 . S
C2342 H2366 0.950 . S
C2343 C2360 1.574 . S
C2343 C2362 1.368 . S
C2343 H2367 0.949 . S
H2344 C2348 0.949 . S
C2345 C2346 1.349 . S
C2345 C2347 1.327 . S
C2345 H2368 0.950 . S
C2346 C2345 1.349 . S
C2346 C2358 1.349 . S
C2347 C2345 1.327 . S
C2347 C2363 1.429 . S
C2347 H2369 0.950 . S
C2348 H2344 0.949 . S
C2348 C2356 1.574 . S
C2348 C2364 1.368 . S
H2349 C2357 0.950 . S
H2350 C2355 0.950 . S
H2351 C2356 0.949 . S
H2352 C2358 0.950 . S
H2353 C2359 0.950 . S
H2354 C2360 0.949 . S
C2355 H2350 0.950 . S
C2355 C2357 1.327 . S
C2355 C2361 1.429 . S
C2356 C2348 1.574 . S
C2356 H2351 0.949 . S
C2356 C2362 1.368 . S
C2357 C2341 1.349 . S
C2357 H2349 0.950 . S
C2357 C2355 1.327 . S
C2358 C2346 1.349 . S
C2358 H2352 0.950 . S
C2358 C2359 1.327 . S
C2359 H2353 0.950 . S
C2359 C2358 1.327 . S
C2359 C2363 1.429 . S
C2360 C2343 1.574 . S
C2360 H2354 0.949 . S
C2360 C2364 1.368 . S
C2361 C2342 1.429 . S
C2361 C2355 1.429 . S
C2361 C2362 1.523 . S
C2362 C2343 1.368 . S
C2362 C2356 1.368 . S
C2362 C2361 1.523 . S
C2363 C2347 1.429 . S
C2363 C2359 1.429 . S
C2363 C2364 1.523 . S
C2364 C2348 1.368 . S
C2364 C2360 1.368 . S
C2364 C2363 1.523 . S
H2365 C2340 0.950 . S
H2366 C2342 0.950 . S
H2367 C2343 0.949 . S
H2368 C2345 0.950 . S
H2369 C2347 0.950 . S
C2370 C2371 1.349 . S
C2370 C2372 1.327 . S
C2370 H2395 0.950 . S
C2371 C2370 1.349 . S
C2371 C2387 1.349 . S
C2372 C2370 1.327 . S
C2372 C2391 1.429 . S
C2372 H2396 0.950 . S
C2373 C2390 1.574 . S
C2373 C2392 1.368 . S
C2373 H2397 0.949 . S
H2374 C2378 0.949 . S
C2375 C2376 1.349 . S
C2375 C2377 1.327 . S
C2375 H2398 0.950 . S
C2376 C2375 1.349 . S
C2376 C2388 1.349 . S
C2377 C2375 1.327 . S
C2377 C2393 1.429 . S
C2377 H2399 0.950 . S
C2378 H2374 0.949 . S
C2378 C2386 1.574 . S
C2378 C2394 1.368 . S
H2379 C2387 0.950 . S
H2380 C2385 0.950 . S
H2381 C2386 0.949 . S
H2382 C2388 0.950 . S
H2383 C2389 0.950 . S
H2384 C2390 0.949 . S
C2385 H2380 0.950 . S
C2385 C2387 1.327 . S
C2385 C2391 1.429 . S
C2386 C2378 1.574 . S
C2386 H2381 0.949 . S
C2386 C2392 1.368 . S
C2387 C2371 1.349 . S
C2387 H2379 0.950 . S
C2387 C2385 1.327 . S
C2388 C2376 1.349 . S
C2388 H2382 0.950 . S
C2388 C2389 1.327 . S
C2389 H2383 0.950 . S
C2389 C2388 1.327 . S
C2389 C2393 1.429 . S
C2390 C2373 1.574 . S
C2390 H2384 0.949 . S
C2390 C2394 1.368 . S
C2391 C2372 1.429 . S
C2391 C2385 1.429 . S
C2391 C2392 1.523 . S
C2392 C2373 1.368 . S
C2392 C2386 1.368 . S
C2392 C2391 1.523 . S
C2393 C2377 1.429 . S
C2393 C2389 1.429 . S
C2393 C2394 1.523 . S
C2394 C2378 1.368 . S
C2394 C2390 1.368 . S
C2394 C2393 1.523 . S
H2395 C2370 0.950 . S
H2396 C2372 0.950 . S
H2397 C2373 0.949 . S
H2398 C2375 0.950 . S
H2399 C2377 0.950 . S
C2400 C2401 1.349 . S
C2400 C2402 1.327 . S
C2400 H2425 0.950 . S
C2401 C2400 1.349 . S
C2401 C2417 1.349 . S
C2402 C2400 1.327 . S
C2402 C2421 1.429 . S
C2402 H2426 0.950 . S
C2403 C2420 1.574 . S
C2403 C2422 1.368 . S
C2403 H2427 0.949 . S
H2404 C2408 0.949 . S
C2405 C2406 1.349 . S
C2405 C2407 1.327 . S
C2405 H2428 0.950 . S
C2406 C2405 1.349 . S
C2406 C2418 1.349 . S
C2407 C2405 1.327 . S
C2407 C2423 1.429 . S
C2407 H2429 0.950 . S
C2408 H2404 0.949 . S
C2408 C2416 1.574 . S
C2408 C2424 1.368 . S
H2409 C2417 0.950 . S
H2410 C2415 0.950 . S
H2411 C2416 0.949 . S
H2412 C2418 0.950 . S
H2413 C2419 0.950 . S
H2414 C2420 0.949 . S
C2415 H2410 0.950 . S
C2415 C2417 1.327 . S
C2415 C2421 1.429 . S
C2416 C2408 1.574 . S
C2416 H2411 0.949 . S
C2416 C2422 1.368 . S
C2417 C2401 1.349 . S
C2417 H2409 0.950 . S
C2417 C2415 1.327 . S
C2418 C2406 1.349 . S
C2418 H2412 0.950 . S
C2418 C2419 1.327 . S
C2419 H2413 0.950 . S
C2419 C2418 1.327 . S
C2419 C2423 1.429 . S
C2420 C2403 1.574 . S
C2420 H2414 0.949 . S
C2420 C2424 1.368 . S
C2421 C2402 1.429 . S
C2421 C2415 1.429 . S
C2421 C2422 1.523 . S
C2422 C2403 1.368 . S
C2422 C2416 1.368 . S
C2422 C2421 1.523 . S
C2423 C2407 1.429 . S
C2423 C2419 1.429 . S
C2423 C2424 1.523 . S
C2424 C2408 1.368 . S
C2424 C2420 1.368 . S
C2424 C2423 1.523 . S
H2425 C2400 0.950 . S
H2426 C2402 0.950 . S
H2427 C2403 0.949 . S
H2428 C2405 0.950 . S
H2429 C2407 0.950 . S
C2430 C2431 1.349 . S
C2430 C2432 1.327 . S
C2430 H2455 0.950 . S
C2431 C2430 1.349 . S
C2431 C2447 1.349 . S
C2432 C2430 1.327 . S
C2432 C2451 1.429 . S
C2432 H2456 0.950 . S
C2433 C2450 1.574 . S
C2433 C2452 1.368 . S
C2433 H2457 0.949 . S
H2434 C2438 0.949 . S
C2435 C2436 1.349 . S
C2435 C2437 1.327 . S
C2435 H2458 0.950 . S
C2436 C2435 1.349 . S
C2436 C2448 1.349 . S
C2437 C2435 1.327 . S
C2437 C2453 1.429 . S
C2437 H2459 0.950 . S
C2438 H2434 0.949 . S
C2438 C2446 1.574 . S
C2438 C2454 1.368 . S
H2439 C2447 0.950 . S
H2440 C2445 0.950 . S
H2441 C2446 0.949 . S
H2442 C2448 0.950 . S
H2443 C2449 0.950 . S
H2444 C2450 0.949 . S
C2445 H2440 0.950 . S
C2445 C2447 1.327 . S
C2445 C2451 1.429 . S
C2446 C2438 1.574 . S
C2446 H2441 0.949 . S
C2446 C2452 1.368 . S
C2447 C2431 1.349 . S
C2447 H2439 0.950 . S
C2447 C2445 1.327 . S
C2448 C2436 1.349 . S
C2448 H2442 0.950 . S
C2448 C2449 1.327 . S
C2449 H2443 0.950 . S
C2449 C2448 1.327 . S
C2449 C2453 1.429 . S
C2450 C2433 1.574 . S
C2450 H2444 0.949 . S
C2450 C2454 1.368 . S
C2451 C2432 1.429 . S
C2451 C2445 1.429 . S
C2451 C2452 1.523 . S
C2452 C2433 1.368 . S
C2452 C2446 1.368 . S
C2452 C2451 1.523 . S
C2453 C2437 1.429 . S
C2453 C2449 1.429 . S
C2453 C2454 1.523 . S
C2454 C2438 1.368 . S
C2454 C2450 1.368 . S
C2454 C2453 1.523 . S
H2455 C2430 0.950 . S
H2456 C2432 0.950 . S
H2457 C2433 0.949 . S
H2458 C2435 0.950 . S
H2459 C2437 0.950 . S
C2460 C2461 1.349 . S
C2460 C2462 1.327 . S
C2460 H2485 0.950 . S
C2461 C2460 1.349 . S
C2461 C2477 1.349 . S
C2462 C2460 1.327 . S
C2462 C2481 1.429 . S
C2462 H2486 0.950 . S
C2463 C2480 1.574 . S
C2463 C2482 1.368 . S
C2463 H2487 0.949 . S
H2464 C2468 0.949 . S
C2465 C2466 1.349 . S
C2465 C2467 1.327 . S
C2465 H2488 0.950 . S
C2466 C2465 1.349 . S
C2466 C2478 1.349 . S
C2467 C2465 1.327 . S
C2467 C2483 1.429 . S
C2467 H2489 0.950 . S
C2468 H2464 0.949 . S
C2468 C2476 1.574 . S
C2468 C2484 1.368 . S
H2469 C2477 0.950 . S
H2470 C2475 0.950 . S
H2471 C2476 0.949 . S
H2472 C2478 0.950 . S
H2473 C2479 0.950 . S
H2474 C2480 0.949 . S
C2475 H2470 0.950 . S
C2475 C2477 1.327 . S
C2475 C2481 1.429 . S
C2476 C2468 1.574 . S
C2476 H2471 0.949 . S
C2476 C2482 1.368 . S
C2477 C2461 1.349 . S
C2477 H2469 0.950 . S
C2477 C2475 1.327 . S
C2478 C2466 1.349 . S
C2478 H2472 0.950 . S
C2478 C2479 1.327 . S
C2479 H2473 0.950 . S
C2479 C2478 1.327 . S
C2479 C2483 1.429 . S
C2480 C2463 1.574 . S
C2480 H2474 0.949 . S
C2480 C2484 1.368 . S
C2481 C2462 1.429 . S
C2481 C2475 1.429 . S
C2481 C2482 1.523 . S
C2482 C2463 1.368 . S
C2482 C2476 1.368 . S
C2482 C2481 1.523 . S
C2483 C2467 1.429 . S
C2483 C2479 1.429 . S
C2483 C2484 1.523 . S
C2484 C2468 1.368 . S
C2484 C2480 1.368 . S
C2484 C2483 1.523 . S
H2485 C2460 0.950 . S
H2486 C2462 0.950 . S
H2487 C2463 0.949 . S
H2488 C2465 0.950 . S
H2489 C2467 0.950 . S
C2490 C2491 1.349 . S
C2490 C2492 1.327 . S
C2490 H2515 0.950 . S
C2491 C2490 1.349 . S
C2491 C2507 1.349 . S
C2492 C2490 1.327 . S
C2492 C2511 1.429 . S
C2492 H2516 0.950 . S
C2493 C2510 1.574 . S
C2493 C2512 1.368 . S
C2493 H2517 0.949 . S
H2494 C2498 0.949 . S
C2495 C2496 1.349 . S
C2495 C2497 1.327 . S
C2495 H2518 0.950 . S
C2496 C2495 1.349 . S
C2496 C2508 1.349 . S
C2497 C2495 1.327 . S
C2497 C2513 1.429 . S
C2497 H2519 0.950 . S
C2498 H2494 0.949 . S
C2498 C2506 1.574 . S
C2498 C2514 1.368 . S
H2499 C2507 0.950 . S
H2500 C2505 0.950 . S
H2501 C2506 0.949 . S
H2502 C2508 0.950 . S
H2503 C2509 0.950 . S
H2504 C2510 0.949 . S
C2505 H2500 0.950 . S
C2505 C2507 1.327 . S
C2505 C2511 1.429 . S
C2506 C2498 1.574 . S
C2506 H2501 0.949 . S
C2506 C2512 1.368 . S
C2507 C2491 1.349 . S
C2507 H2499 0.950 . S
C2507 C2505 1.327 . S
C2508 C2496 1.349 . S
C2508 H2502 0.950 . S
C2508 C2509 1.327 . S
C2509 H2503 0.950 . S
C2509 C2508 1.327 . S
C2509 C2513 1.429 . S
C2510 C2493 1.574 . S
C2510 H2504 0.949 . S
C2510 C2514 1.368 . S
C2511 C2492 1.429 . S
C2511 C2505 1.429 . S
C2511 C2512 1.523 . S
C2512 C2493 1.368 . S
C2512 C2506 1.368 . S
C2512 C2511 1.523 . S
C2513 C2497 1.429 . S
C2513 C2509 1.429 . S
C2513 C2514 1.523 . S
C2514 C2498 1.368 . S
C2514 C2510 1.368 . S
C2514 C2513 1.523 . S
H2515 C2490 0.950 . S
H2516 C2492 0.950 . S
H2517 C2493 0.949 . S
H2518 C2495 0.950 . S
H2519 C2497 0.950 . S
C2520 C2521 1.349 . S
C2520 C2522 1.327 . S
C2520 H2545 0.950 . S
C2521 C2520 1.349 . S
C2521 C2537 1.349 . S
C2522 C2520 1.327 . S
C2522 C2541 1.429 . S
C2522 H2546 0.950 . S
C2523 C2540 1.574 . S
C2523 C2542 1.368 . S
C2523 H2547 0.949 . S
H2524 C2528 0.949 . S
C2525 C2526 1.349 . S
C2525 C2527 1.327 . S
C2525 H2548 0.950 . S
C2526 C2525 1.349 . S
C2526 C2538 1.349 . S
C2527 C2525 1.327 . S
C2527 C2543 1.429 . S
C2527 H2549 0.950 . S
C2528 H2524 0.949 . S
C2528 C2536 1.574 . S
C2528 C2544 1.368 . S
H2529 C2537 0.950 . S
H2530 C2535 0.950 . S
H2531 C2536 0.949 . S
H2532 C2538 0.950 . S
H2533 C2539 0.950 . S
H2534 C2540 0.949 . S
C2535 H2530 0.950 . S
C2535 C2537 1.327 . S
C2535 C2541 1.429 . S
C2536 C2528 1.574 . S
C2536 H2531 0.949 . S
C2536 C2542 1.368 . S
C2537 C2521 1.349 . S
C2537 H2529 0.950 . S
C2537 C2535 1.327 . S
C2538 C2526 1.349 . S
C2538 H2532 0.950 . S
C2538 C2539 1.327 . S
C2539 H2533 0.950 . S
C2539 C2538 1.327 . S
C2539 C2543 1.429 . S
C2540 C2523 1.574 . S
C2540 H2534 0.949 . S
C2540 C2544 1.368 . S
C2541 C2522 1.429 . S
C2541 C2535 1.429 . S
C2541 C2542 1.523 . S
C2542 C2523 1.368 . S
C2542 C2536 1.368 . S
C2542 C2541 1.523 . S
C2543 C2527 1.429 . S
C2543 C2539 1.429 . S
C2543 C2544 1.523 . S
C2544 C2528 1.368 . S
C2544 C2540 1.368 . S
C2544 C2543 1.523 . S
H2545 C2520 0.950 . S
H2546 C2522 0.950 . S
H2547 C2523 0.949 . S
H2548 C2525 0.950 . S
H2549 C2527 0.950 . S
C2550 C2551 1.349 . S
C2550 C2552 1.327 . S
C2550 H2575 0.950 . S
C2551 C2550 1.349 . S
C2551 C2567 1.349 . S
C2552 C2550 1.327 . S
C2552 C2571 1.429 . S
C2552 H2576 0.950 . S
C2553 C2570 1.574 . S
C2553 C2572 1.368 . S
C2553 H2577 0.949 . S
H2554 C2558 0.949 . S
C2555 C2556 1.349 . S
C2555 C2557 1.327 . S
C2555 H2578 0.950 . S
C2556 C2555 1.349 . S
C2556 C2568 1.349 . S
C2557 C2555 1.327 . S
C2557 C2573 1.429 . S
C2557 H2579 0.950 . S
C2558 H2554 0.949 . S
C2558 C2566 1.574 . S
C2558 C2574 1.368 . S
H2559 C2567 0.950 . S
H2560 C2565 0.950 . S
H2561 C2566 0.949 . S
H2562 C2568 0.950 . S
H2563 C2569 0.950 . S
H2564 C2570 0.949 . S
C2565 H2560 0.950 . S
C2565 C2567 1.327 . S
C2565 C2571 1.429 . S
C2566 C2558 1.574 . S
C2566 H2561 0.949 . S
C2566 C2572 1.368 . S
C2567 C2551 1.349 . S
C2567 H2559 0.950 . S
C2567 C2565 1.327 . S
C2568 C2556 1.349 . S
C2568 H2562 0.950 . S
C2568 C2569 1.327 . S
C2569 H2563 0.950 . S
C2569 C2568 1.327 . S
C2569 C2573 1.429 . S
C2570 C2553 1.574 . S
C2570 H2564 0.949 . S
C2570 C2574 1.368 . S
C2571 C2552 1.429 . S
C2571 C2565 1.429 . S
C2571 C2572 1.523 . S
C2572 C2553 1.368 . S
C2572 C2566 1.368 . S
C2572 C2571 1.523 . S
C2573 C2557 1.429 . S
C2573 C2569 1.429 . S
C2573 C2574 1.523 . S
C2574 C2558 1.368 . S
C2574 C2570 1.368 . S
C2574 C2573 1.523 . S
H2575 C2550 0.950 . S
H2576 C2552 0.950 . S
H2577 C2553 0.949 . S
H2578 C2555 0.950 . S
H2579 C2557 0.950 . S
C2580 C2581 1.349 . S
C2580 C2582 1.327 . S
C2580 H2605 0.950 . S
C2581 C2580 1.349 . S
C2581 C2597 1.349 . S
C2582 C2580 1.327 . S
C2582 C2601 1.429 . S
C2582 H2606 0.950 . S
C2583 C2600 1.574 . S
C2583 C2602 1.368 . S
C2583 H2607 0.949 . S
H2584 C2588 0.949 . S
C2585 C2586 1.349 . S
C2585 C2587 1.327 . S
C2585 H2608 0.945 . S
C2586 C2585 1.349 . S
C2586 C2598 1.349 . S
C2587 C2585 1.327 . S
C2587 C2603 1.429 . S
C2587 H2609 0.950 . S
C2588 H2584 0.949 . S
C2588 C2596 1.574 . S
C2588 C2604 1.368 . S
H2589 C2597 0.950 . S
H2590 C2595 0.950 . S
H2591 C2596 0.949 . S
H2592 C2598 0.950 . S
H2593 C2599 0.950 . S
H2594 C2600 0.949 . S
C2595 H2590 0.950 . S
C2595 C2597 1.327 . S
C2595 C2601 1.429 . S
C2596 C2588 1.574 . S
C2596 H2591 0.949 . S
C2596 C2602 1.368 . S
C2597 C2581 1.349 . S
C2597 H2589 0.950 . S
C2597 C2595 1.327 . S
C2598 C2586 1.349 . S
C2598 H2592 0.950 . S
C2598 C2599 1.327 . S
C2599 H2593 0.950 . S
C2599 C2598 1.327 . S
C2599 C2603 1.429 . S
C2600 C2583 1.574 . S
C2600 H2594 0.949 . S
C2600 C2604 1.368 . S
C2601 C2582 1.429 . S
C2601 C2595 1.429 . S
C2601 C2602 1.523 . S
C2602 C2583 1.368 . S
C2602 C2596 1.368 . S
C2602 C2601 1.523 . S
C2603 C2587 1.429 . S
C2603 C2599 1.429 . S
C2603 C2604 1.523 . S
C2604 C2588 1.368 . S
C2604 C2600 1.368 . S
C2604 C2603 1.523 . S
H2605 C2580 0.950 . S
H2606 C2582 0.950 . S
H2607 C2583 0.949 . S
H2608 C2585 0.945 . S
H2609 C2587 0.950 . S
C2610 C2611 1.349 . S
C2610 C2612 1.327 . S
C2610 H2635 0.950 . S
C2611 C2610 1.349 . S
C2611 C2627 1.349 . S
C2612 C2610 1.327 . S
C2612 C2631 1.429 . S
C2612 H2636 0.950 . S
C2613 C2630 1.574 . S
C2613 C2632 1.368 . S
C2613 H2637 0.949 . S
H2614 C2618 0.949 . S
C2615 C2616 1.349 . S
C2615 C2617 1.327 . S
C2615 H2638 0.950 . S
C2616 C2615 1.349 . S
C2616 C2628 1.349 . S
C2617 C2615 1.327 . S
C2617 C2633 1.429 . S
C2617 H2639 0.950 . S
C2618 H2614 0.949 . S
C2618 C2626 1.574 . S
C2618 C2634 1.368 . S
H2619 C2627 0.950 . S
H2620 C2625 0.950 . S
H2621 C2626 0.949 . S
H2622 C2628 0.950 . S
H2623 C2629 0.950 . S
H2624 C2630 0.949 . S
C2625 H2620 0.950 . S
C2625 C2627 1.327 . S
C2625 C2631 1.429 . S
C2626 C2618 1.574 . S
C2626 H2621 0.949 . S
C2626 C2632 1.368 . S
C2627 C2611 1.349 . S
C2627 H2619 0.950 . S
C2627 C2625 1.327 . S
C2628 C2616 1.349 . S
C2628 H2622 0.950 . S
C2628 C2629 1.327 . S
C2629 H2623 0.950 . S
C2629 C2628 1.327 . S
C2629 C2633 1.429 . S
C2630 C2613 1.574 . S
C2630 H2624 0.949 . S
C2630 C2634 1.368 . S
C2631 C2612 1.429 . S
C2631 C2625 1.429 . S
C2631 C2632 1.523 . S
C2632 C2613 1.368 . S
C2632 C2626 1.368 . S
C2632 C2631 1.523 . S
C2633 C2617 1.429 . S
C2633 C2629 1.429 . S
C2633 C2634 1.523 . S
C2634 C2618 1.368 . S
C2634 C2630 1.368 . S
C2634 C2633 1.523 . S
H2635 C2610 0.950 . S
H2636 C2612 0.950 . S
H2637 C2613 0.949 . S
H2638 C2615 0.950 . S
H2639 C2617 0.950 . S
C2640 C2641 1.349 . S
C2640 C2642 1.327 . S
C2640 H2665 0.950 . S
C2641 C2640 1.349 . S
C2641 C2657 1.349 . S
C2642 C2640 1.327 . S
C2642 C2661 1.429 . S
C2642 H2666 0.950 . S
C2643 C2660 1.574 . S
C2643 C2662 1.368 . S
C2643 H2667 0.949 . S
H2644 C2648 0.949 . S
C2645 C2646 1.349 . S
C2645 C2647 1.327 . S
C2645 H2668 0.950 1_545 S
C2646 C2645 1.349 . S
C2646 C2658 1.349 . S
C2647 C2645 1.327 . S
C2647 C2663 1.429 . S
C2647 H2669 0.950 1_545 S
C2648 H2644 0.949 . S
C2648 C2656 1.574 . S
C2648 C2664 1.368 . S
H2649 C2657 0.950 . S
H2650 C2655 0.950 . S
H2651 C2656 0.949 . S
H2652 C2658 0.950 . S
H2653 C2659 0.950 . S
H2654 C2660 0.949 1_565 S
C2655 H2650 0.950 . S
C2655 C2657 1.327 . S
C2655 C2661 1.429 . S
C2656 C2648 1.574 . S
C2656 H2651 0.949 . S
C2656 C2662 1.368 . S
C2657 C2641 1.349 . S
C2657 H2649 0.950 . S
C2657 C2655 1.327 . S
C2658 C2646 1.349 . S
C2658 H2652 0.950 . S
C2658 C2659 1.327 . S
C2659 H2653 0.950 . S
C2659 C2658 1.327 . S
C2659 C2663 1.429 . S
C2660 C2643 1.574 . S
C2660 H2654 0.949 1_545 S
C2660 C2664 1.368 . S
C2661 C2642 1.429 . S
C2661 C2655 1.429 . S
C2661 C2662 1.523 . S
C2662 C2643 1.368 . S
C2662 C2656 1.368 . S
C2662 C2661 1.523 . S
C2663 C2647 1.429 . S
C2663 C2659 1.429 . S
C2663 C2664 1.523 . S
C2664 C2648 1.368 . S
C2664 C2660 1.368 . S
C2664 C2663 1.523 . S
H2665 C2640 0.950 . S
H2666 C2642 0.950 . S
H2667 C2643 0.949 . S
H2668 C2645 0.950 1_565 S
H2669 C2647 0.950 1_565 S
C2670 C2671 1.349 . S
C2670 C2672 1.327 . S
C2670 H2695 0.950 . S
C2671 C2670 1.349 . S
C2671 C2687 1.349 . S
C2672 C2670 1.327 . S
C2672 C2691 1.429 . S
C2672 H2696 0.950 . S
C2673 C2690 1.574 . S
C2673 C2692 1.368 . S
C2673 H2697 0.949 . S
H2674 C2678 0.949 . S
C2675 C2676 1.349 . S
C2675 C2677 1.327 . S
C2675 H2698 0.950 . S
C2676 C2675 1.349 . S
C2676 C2688 1.349 . S
C2677 C2675 1.327 . S
C2677 C2693 1.429 . S
C2677 H2699 0.950 . S
C2678 H2674 0.949 . S
C2678 C2686 1.574 . S
C2678 C2694 1.368 . S
H2679 C2687 0.950 . S
H2680 C2685 0.950 . S
H2681 C2686 0.949 . S
H2682 C2688 0.950 . S
H2683 C2689 0.950 . S
H2684 C2690 0.949 . S
C2685 H2680 0.950 . S
C2685 C2687 1.327 . S
C2685 C2691 1.429 . S
C2686 C2678 1.574 . S
C2686 H2681 0.949 . S
C2686 C2692 1.368 . S
C2687 C2671 1.349 . S
C2687 H2679 0.950 . S
C2687 C2685 1.327 . S
C2688 C2676 1.349 . S
C2688 H2682 0.950 . S
C2688 C2689 1.327 . S
C2689 H2683 0.950 . S
C2689 C2688 1.327 . S
C2689 C2693 1.429 . S
C2690 C2673 1.574 . S
C2690 H2684 0.949 . S
C2690 C2694 1.368 . S
C2691 C2672 1.429 . S
C2691 C2685 1.429 . S
C2691 C2692 1.523 . S
C2692 C2673 1.368 . S
C2692 C2686 1.368 . S
C2692 C2691 1.523 . S
C2693 C2677 1.429 . S
C2693 C2689 1.429 . S
C2693 C2694 1.523 . S
C2694 C2678 1.368 . S
C2694 C2690 1.368 . S
C2694 C2693 1.523 . S
H2695 C2670 0.950 . S
H2696 C2672 0.950 . S
H2697 C2673 0.949 . S
H2698 C2675 0.950 . S
H2699 C2677 0.950 . S
C2700 C2701 1.349 . S
C2700 C2702 1.327 . S
C2700 H2725 0.950 . S
C2701 C2700 1.349 . S
C2701 C2717 1.324 1_545 S
C2702 C2700 1.327 . S
C2702 C2721 1.429 . S
C2702 H2726 0.950 . S
C2703 C2720 1.574 . S
C2703 C2722 1.368 . S
C2703 H2727 0.949 1_545 S
H2704 C2708 0.949 . S
C2705 C2706 1.349 . S
C2705 C2707 1.327 . S
C2705 H2728 0.950 . S
C2706 C2705 1.349 . S
C2706 C2718 1.349 . S
C2707 C2705 1.327 . S
C2707 C2723 1.429 . S
C2707 H2729 0.950 1_545 S
C2708 H2704 0.949 . S
C2708 C2716 1.574 . S
C2708 C2724 1.368 . S
H2709 C2717 0.970 . S
H2710 C2715 0.914 1_565 S
H2711 C2716 0.949 . S
H2712 C2718 0.950 . S
H2713 C2719 0.950 . S
H2714 C2720 0.949 1_565 S
C2715 H2710 0.914 1_545 S
C2715 C2717 1.342 1_545 S
C2715 C2721 1.457 . S
C2716 C2708 1.574 . S
C2716 H2711 0.949 . S
C2716 C2722 1.368 . S
C2717 C2701 1.324 1_565 S
C2717 H2709 0.970 . S
C2717 C2715 1.342 1_565 S
C2718 C2706 1.349 . S
C2718 H2712 0.950 . S
C2718 C2719 1.327 . S
C2719 H2713 0.950 . S
C2719 C2718 1.327 . S
C2719 C2723 1.429 . S
C2720 C2703 1.574 . S
C2720 H2714 0.949 1_545 S
C2720 C2724 1.368 . S
C2721 C2702 1.429 . S
C2721 C2715 1.457 . S
C2721 C2722 1.523 . S
C2722 C2703 1.368 . S
C2722 C2716 1.368 . S
C2722 C2721 1.523 . S
C2723 C2707 1.429 . S
C2723 C2719 1.429 . S
C2723 C2724 1.523 . S
C2724 C2708 1.368 . S
C2724 C2720 1.368 . S
C2724 C2723 1.523 . S
H2725 C2700 0.950 . S
H2726 C2702 0.950 . S
H2727 C2703 0.949 1_565 S
H2728 C2705 0.950 . S
H2729 C2707 0.950 1_565 S
C2730 C2731 1.349 . S
C2730 C2732 1.327 . S
C2730 H2755 0.950 . S
C2731 C2730 1.349 . S
C2731 C2747 1.349 . S
C2732 C2730 1.327 . S
C2732 C2751 1.429 . S
C2732 H2756 0.950 . S
C2733 C2750 1.574 . S
C2733 C2752 1.368 . S
C2733 H2757 0.949 . S
H2734 C2738 0.949 . S
C2735 C2736 1.349 . S
C2735 C2737 1.327 . S
C2735 H2758 0.950 . S
C2736 C2735 1.349 . S
C2736 C2748 1.349 . S
C2737 C2735 1.327 . S
C2737 C2753 1.429 . S
C2737 H2759 0.950 . S
C2738 H2734 0.949 . S
C2738 C2746 1.574 . S
C2738 C2754 1.368 . S
H2739 C2747 0.950 . S
H2740 C2745 0.950 . S
H2741 C2746 0.949 . S
H2742 C2748 0.950 . S
H2743 C2749 0.950 . S
H2744 C2750 0.949 . S
C2745 H2740 0.950 . S
C2745 C2747 1.327 . S
C2745 C2751 1.429 . S
C2746 C2738 1.574 . S
C2746 H2741 0.949 . S
C2746 C2752 1.368 . S
C2747 C2731 1.349 . S
C2747 H2739 0.950 . S
C2747 C2745 1.327 . S
C2748 C2736 1.349 . S
C2748 H2742 0.950 . S
C2748 C2749 1.327 . S
C2749 H2743 0.950 . S
C2749 C2748 1.327 . S
C2749 C2753 1.429 . S
C2750 C2733 1.574 . S
C2750 H2744 0.949 . S
C2750 C2754 1.368 . S
C2751 C2732 1.429 . S
C2751 C2745 1.429 . S
C2751 C2752 1.523 . S
C2752 C2733 1.368 . S
C2752 C2746 1.368 . S
C2752 C2751 1.523 . S
C2753 C2737 1.429 . S
C2753 C2749 1.429 . S
C2753 C2754 1.523 . S
C2754 C2738 1.368 . S
C2754 C2750 1.368 . S
C2754 C2753 1.523 . S
H2755 C2730 0.950 . S
H2756 C2732 0.950 . S
H2757 C2733 0.949 . S
H2758 C2735 0.950 . S
H2759 C2737 0.950 . S
C2760 C2761 1.349 . S
C2760 C2762 1.327 . S
C2760 H2785 0.950 . S
C2761 C2760 1.349 . S
C2761 C2777 1.349 . S
C2762 C2760 1.327 . S
C2762 C2781 1.429 . S
C2762 H2786 0.950 . S
C2763 C2780 1.574 . S
C2763 C2782 1.368 . S
C2763 H2787 0.949 . S
H2764 C2768 0.949 . S
C2765 C2766 1.349 . S
C2765 C2767 1.327 . S
C2765 H2788 0.950 . S
C2766 C2765 1.349 . S
C2766 C2778 1.349 . S
C2767 C2765 1.327 . S
C2767 C2783 1.429 . S
C2767 H2789 0.950 . S
C2768 H2764 0.949 . S
C2768 C2776 1.574 . S
C2768 C2784 1.368 . S
H2769 C2777 0.950 . S
H2770 C2775 0.950 . S
H2771 C2776 0.949 . S
H2772 C2778 0.950 . S
H2773 C2779 0.950 . S
H2774 C2780 0.949 . S
C2775 H2770 0.950 . S
C2775 C2777 1.327 . S
C2775 C2781 1.429 . S
C2776 C2768 1.574 . S
C2776 H2771 0.949 . S
C2776 C2782 1.368 . S
C2777 C2761 1.349 . S
C2777 H2769 0.950 . S
C2777 C2775 1.327 . S
C2778 C2766 1.349 . S
C2778 H2772 0.950 . S
C2778 C2779 1.327 . S
C2779 H2773 0.950 . S
C2779 C2778 1.327 . S
C2779 C2783 1.429 . S
C2780 C2763 1.574 . S
C2780 H2774 0.949 . S
C2780 C2784 1.368 . S
C2781 C2762 1.429 . S
C2781 C2775 1.429 . S
C2781 C2782 1.523 . S
C2782 C2763 1.368 . S
C2782 C2776 1.368 . S
C2782 C2781 1.523 . S
C2783 C2767 1.429 . S
C2783 C2779 1.429 . S
C2783 C2784 1.523 . S
C2784 C2768 1.368 . S
C2784 C2780 1.368 . S
C2784 C2783 1.523 . S
H2785 C2760 0.950 . S
H2786 C2762 0.950 . S
H2787 C2763 0.949 . S
H2788 C2765 0.950 . S
H2789 C2767 0.950 . S
C2790 C2791 1.349 . S
C2790 C2792 1.327 . S
C2790 H2815 0.950 . S
C2791 C2790 1.349 . S
C2791 C2807 1.349 . S
C2792 C2790 1.327 . S
C2792 C2811 1.429 . S
C2792 H2816 0.950 . S
C2793 C2810 1.574 . S
C2793 C2812 1.368 . S
C2793 H2817 0.949 . S
H2794 C2798 0.949 . S
C2795 C2796 1.349 . S
C2795 C2797 1.327 . S
C2795 H2818 0.950 . S
C2796 C2795 1.349 . S
C2796 C2808 1.349 . S
C2797 C2795 1.327 . S
C2797 C2813 1.429 . S
C2797 H2819 0.950 . S
C2798 H2794 0.949 . S
C2798 C2806 1.574 . S
C2798 C2814 1.368 . S
H2799 C2807 0.950 . S
H2800 C2805 0.950 . S
H2801 C2806 0.949 . S
H2802 C2808 0.950 . S
H2803 C2809 0.950 . S
H2804 C2810 0.949 . S
C2805 H2800 0.950 . S
C2805 C2807 1.327 . S
C2805 C2811 1.429 . S
C2806 C2798 1.574 . S
C2806 H2801 0.949 . S
C2806 C2812 1.368 . S
C2807 C2791 1.349 . S
C2807 H2799 0.950 . S
C2807 C2805 1.327 . S
C2808 C2796 1.349 . S
C2808 H2802 0.950 . S
C2808 C2809 1.327 . S
C2809 H2803 0.950 . S
C2809 C2808 1.327 . S
C2809 C2813 1.429 . S
C2810 C2793 1.574 . S
C2810 H2804 0.949 . S
C2810 C2814 1.368 . S
C2811 C2792 1.429 . S
C2811 C2805 1.429 . S
C2811 C2812 1.523 . S
C2812 C2793 1.368 . S
C2812 C2806 1.368 . S
C2812 C2811 1.523 . S
C2813 C2797 1.429 . S
C2813 C2809 1.429 . S
C2813 C2814 1.523 . S
C2814 C2798 1.368 . S
C2814 C2810 1.368 . S
C2814 C2813 1.523 . S
H2815 C2790 0.950 . S
H2816 C2792 0.950 . S
H2817 C2793 0.949 . S
H2818 C2795 0.950 . S
H2819 C2797 0.950 . S
C2820 C2821 1.349 1_565 S
C2820 C2822 1.327 . S
C2820 H2845 0.950 . S
C2821 C2820 1.349 1_545 S
C2821 C2837 1.349 . S
C2822 C2820 1.327 . S
C2822 C2841 1.429 1_565 S
C2822 H2846 0.950 . S
C2823 C2840 1.574 . S
C2823 C2842 1.368 . S
C2823 H2847 0.949 . S
H2824 C2828 0.949 . S
C2825 C2826 1.349 . S
C2825 C2827 1.327 . S
C2825 H2848 0.950 . S
C2826 C2825 1.349 . S
C2826 C2838 1.349 1_545 S
C2827 C2825 1.327 . S
C2827 C2843 1.429 . S
C2827 H2849 0.950 . S
C2828 H2824 0.949 . S
C2828 C2836 1.574 . S
C2828 C2844 1.368 1_565 S
H2829 C2837 0.950 . S
H2830 C2835 0.950 . S
H2831 C2836 0.949 . S
H2832 C2838 0.950 . S
H2833 C2839 0.950 . S
H2834 C2840 0.949 . S
C2835 H2830 0.950 . S
C2835 C2837 1.327 . S
C2835 C2841 1.429 . S
C2836 C2828 1.574 . S
C2836 H2831 0.949 . S
C2836 C2842 1.368 1_565 S
C2837 C2821 1.349 . S
C2837 H2829 0.950 . S
C2837 C2835 1.327 . S
C2838 C2826 1.349 1_565 S
C2838 H2832 0.950 . S
C2838 C2839 1.327 . S
C2839 H2833 0.950 . S
C2839 C2838 1.327 . S
C2839 C2843 1.429 1_565 S
C2840 C2823 1.574 . S
C2840 H2834 0.949 . S
C2840 C2844 1.368 . S
C2841 C2822 1.429 1_545 S
C2841 C2835 1.429 . S
C2841 C2842 1.523 . S
C2842 C2823 1.368 . S
C2842 C2836 1.368 1_545 S
C2842 C2841 1.523 . S
C2843 C2827 1.429 . S
C2843 C2839 1.429 1_545 S
C2843 C2844 1.523 . S
C2844 C2828 1.368 1_545 S
C2844 C2840 1.368 . S
C2844 C2843 1.523 . S
H2845 C2820 0.950 . S
H2846 C2822 0.950 . S
H2847 C2823 0.949 . S
H2848 C2825 0.950 . S
H2849 C2827 0.950 . S
C2850 C2851 1.349 . S
C2850 C2852 1.327 . S
C2850 H2875 0.950 . S
C2851 C2850 1.349 . S
C2851 C2867 1.349 . S
C2852 C2850 1.327 . S
C2852 C2871 1.429 . S
C2852 H2876 0.950 . S
C2853 C2870 1.574 . S
C2853 C2872 1.368 . S
C2853 H2877 0.949 . S
H2854 C2858 0.949 . S
C2855 C2856 1.349 . S
C2855 C2857 1.327 . S
C2855 H2878 0.950 . S
C2856 C2855 1.349 . S
C2856 C2868 1.349 . S
C2857 C2855 1.327 . S
C2857 C2873 1.429 . S
C2857 H2879 0.950 . S
C2858 H2854 0.949 . S
C2858 C2866 1.574 . S
C2858 C2874 1.368 . S
H2859 C2867 0.950 . S
H2860 C2865 0.950 . S
H2861 C2866 0.949 . S
H2862 C2868 0.950 . S
H2863 C2869 0.950 . S
H2864 C2870 0.949 . S
C2865 H2860 0.950 . S
C2865 C2867 1.327 . S
C2865 C2871 1.429 . S
C2866 C2858 1.574 . S
C2866 H2861 0.949 . S
C2866 C2872 1.368 . S
C2867 C2851 1.349 . S
C2867 H2859 0.950 . S
C2867 C2865 1.327 . S
C2868 C2856 1.349 . S
C2868 H2862 0.950 . S
C2868 C2869 1.327 . S
C2869 H2863 0.950 . S
C2869 C2868 1.327 . S
C2869 C2873 1.429 . S
C2870 C2853 1.574 . S
C2870 H2864 0.949 . S
C2870 C2874 1.368 . S
C2871 C2852 1.429 . S
C2871 C2865 1.429 . S
C2871 C2872 1.523 . S
C2872 C2853 1.368 . S
C2872 C2866 1.368 . S
C2872 C2871 1.523 . S
C2873 C2857 1.429 . S
C2873 C2869 1.429 . S
C2873 C2874 1.523 . S
C2874 C2858 1.368 . S
C2874 C2870 1.368 . S
C2874 C2873 1.523 . S
H2875 C2850 0.950 . S
H2876 C2852 0.950 . S
H2877 C2853 0.949 . S
H2878 C2855 0.950 . S
H2879 C2857 0.950 . S
C2880 C2881 1.349 . S
C2880 C2882 1.327 . S
C2880 H2905 0.950 . S
C2881 C2880 1.349 . S
C2881 C2897 1.349 . S
C2882 C2880 1.327 . S
C2882 C2901 1.429 . S
C2882 H2906 0.950 . S
C2883 C2900 1.574 . S
C2883 C2902 1.368 . S
C2883 H2907 0.949 . S
H2884 C2888 0.949 . S
C2885 C2886 1.349 . S
C2885 C2887 1.327 . S
C2885 H2908 0.950 . S
C2886 C2885 1.349 . S
C2886 C2898 1.365 . S
C2887 C2885 1.327 . S
C2887 C2903 1.429 . S
C2887 H2909 0.950 . S
C2888 H2884 0.949 . S
C2888 C2896 1.574 . S
C2888 C2904 1.368 . S
H2889 C2897 0.950 . S
H2890 C2895 0.950 . S
H2891 C2896 0.949 . S
H2892 C2898 0.924 1_556 S
H2893 C2899 0.950 1_556 S
H2894 C2900 0.949 . S
C2895 H2890 0.950 . S
C2895 C2897 1.327 . S
C2895 C2901 1.429 . S
C2896 C2888 1.574 . S
C2896 H2891 0.949 . S
C2896 C2902 1.368 . S
C2897 C2881 1.349 . S
C2897 H2889 0.950 . S
C2897 C2895 1.327 . S
C2898 C2886 1.365 . S
C2898 H2892 0.924 1_554 S
C2898 C2899 1.340 . S
C2899 H2893 0.950 1_554 S
C2899 C2898 1.340 . S
C2899 C2903 1.429 . S
C2900 C2883 1.574 . S
C2900 H2894 0.949 . S
C2900 C2904 1.368 . S
C2901 C2882 1.429 . S
C2901 C2895 1.429 . S
C2901 C2902 1.523 . S
C2902 C2883 1.368 . S
C2902 C2896 1.368 . S
C2902 C2901 1.523 . S
C2903 C2887 1.429 . S
C2903 C2899 1.429 . S
C2903 C2904 1.523 . S
C2904 C2888 1.368 . S
C2904 C2900 1.368 . S
C2904 C2903 1.523 . S
H2905 C2880 0.950 . S
H2906 C2882 0.950 . S
H2907 C2883 0.949 . S
H2908 C2885 0.950 . S
H2909 C2887 0.950 . S
C2910 C2911 1.349 . S
C2910 C2912 1.327 . S
C2910 H2935 0.950 . S
C2911 C2910 1.349 . S
C2911 C2927 1.349 . S
C2912 C2910 1.327 . S
C2912 C2931 1.429 . S
C2912 H2936 0.950 . S
C2913 C2930 1.574 . S
C2913 C2932 1.368 . S
C2913 H2937 0.949 . S
H2914 C2918 0.949 . S
C2915 C2916 1.349 . S
C2915 C2917 1.327 . S
C2915 H2938 0.950 . S
C2916 C2915 1.349 . S
C2916 C2928 1.349 . S
C2917 C2915 1.327 . S
C2917 C2933 1.429 . S
C2917 H2939 0.950 . S
C2918 H2914 0.949 . S
C2918 C2926 1.574 . S
C2918 C2934 1.368 . S
H2919 C2927 0.950 . S
H2920 C2925 0.950 . S
H2921 C2926 0.949 . S
H2922 C2928 0.950 . S
H2923 C2929 0.950 . S
H2924 C2930 0.949 . S
C2925 H2920 0.950 . S
C2925 C2927 1.327 . S
C2925 C2931 1.429 . S
C2926 C2918 1.574 . S
C2926 H2921 0.949 . S
C2926 C2932 1.368 . S
C2927 C2911 1.349 . S
C2927 H2919 0.950 . S
C2927 C2925 1.327 . S
C2928 C2916 1.349 . S
C2928 H2922 0.950 . S
C2928 C2929 1.327 . S
C2929 H2923 0.950 . S
C2929 C2928 1.327 . S
C2929 C2933 1.429 . S
C2930 C2913 1.574 . S
C2930 H2924 0.949 . S
C2930 C2934 1.368 . S
C2931 C2912 1.429 . S
C2931 C2925 1.429 . S
C2931 C2932 1.523 . S
C2932 C2913 1.368 . S
C2932 C2926 1.368 . S
C2932 C2931 1.523 . S
C2933 C2917 1.429 . S
C2933 C2929 1.429 . S
C2933 C2934 1.523 . S
C2934 C2918 1.368 . S
C2934 C2930 1.368 . S
C2934 C2933 1.523 . S
H2935 C2910 0.950 . S
H2936 C2912 0.950 . S
H2937 C2913 0.949 . S
H2938 C2915 0.950 . S
H2939 C2917 0.950 . S
C2940 C2941 1.349 . S
C2940 C2942 1.327 . S
C2940 H2965 0.950 . S
C2941 C2940 1.349 . S
C2941 C2957 1.349 . S
C2942 C2940 1.327 . S
C2942 C2961 1.429 . S
C2942 H2966 0.950 . S
C2943 C2960 1.574 . S
C2943 C2962 1.368 . S
C2943 H2967 0.949 . S
H2944 C2948 0.949 . S
C2945 C2946 1.349 . S
C2945 C2947 1.327 . S
C2945 H2968 0.950 . S
C2946 C2945 1.349 . S
C2946 C2958 1.349 . S
C2947 C2945 1.327 . S
C2947 C2963 1.429 . S
C2947 H2969 0.950 . S
C2948 H2944 0.949 . S
C2948 C2956 1.574 . S
C2948 C2964 1.368 . S
H2949 C2957 0.950 . S
H2950 C2955 0.950 . S
H2951 C2956 0.949 . S
H2952 C2958 0.950 . S
H2953 C2959 0.950 . S
H2954 C2960 0.949 . S
C2955 H2950 0.950 . S
C2955 C2957 1.327 . S
C2955 C2961 1.429 . S
C2956 C2948 1.574 . S
C2956 H2951 0.949 . S
C2956 C2962 1.368 . S
C2957 C2941 1.349 . S
C2957 H2949 0.950 . S
C2957 C2955 1.327 . S
C2958 C2946 1.349 . S
C2958 H2952 0.950 . S
C2958 C2959 1.327 . S
C2959 H2953 0.950 . S
C2959 C2958 1.327 . S
C2959 C2963 1.429 . S
C2960 C2943 1.574 . S
C2960 H2954 0.949 . S
C2960 C2964 1.368 . S
C2961 C2942 1.429 . S
C2961 C2955 1.429 . S
C2961 C2962 1.523 . S
C2962 C2943 1.368 . S
C2962 C2956 1.368 . S
C2962 C2961 1.523 . S
C2963 C2947 1.429 . S
C2963 C2959 1.429 . S
C2963 C2964 1.523 . S
C2964 C2948 1.368 . S
C2964 C2960 1.368 . S
C2964 C2963 1.523 . S
H2965 C2940 0.950 . S
H2966 C2942 0.950 . S
H2967 C2943 0.949 . S
H2968 C2945 0.950 . S
H2969 C2947 0.950 . S
C2970 C2971 1.349 . S
C2970 C2972 1.327 . S
C2970 H2995 0.950 . S
C2971 C2970 1.349 . S
C2971 C2987 1.349 . S
C2972 C2970 1.327 . S
C2972 C2991 1.429 . S
C2972 H2996 0.950 . S
C2973 C2990 1.574 . S
C2973 C2992 1.368 . S
C2973 H2997 0.949 . S
H2974 C2978 0.949 . S
C2975 C2976 1.349 . S
C2975 C2977 1.327 . S
C2975 H2998 0.950 . S
C2976 C2975 1.349 . S
C2976 C2988 1.349 . S
C2977 C2975 1.327 . S
C2977 C2993 1.429 . S
C2977 H2999 0.950 . S
C2978 H2974 0.949 . S
C2978 C2986 1.574 . S
C2978 C2994 1.368 . S
H2979 C2987 0.950 . S
H2980 C2985 0.950 . S
H2981 C2986 0.949 . S
H2982 C2988 0.950 . S
H2983 C2989 0.950 . S
H2984 C2990 0.949 . S
C2985 H2980 0.950 . S
C2985 C2987 1.327 . S
C2985 C2991 1.429 . S
C2986 C2978 1.574 . S
C2986 H2981 0.949 . S
C2986 C2992 1.368 . S
C2987 C2971 1.349 . S
C2987 H2979 0.950 . S
C2987 C2985 1.327 . S
C2988 C2976 1.349 . S
C2988 H2982 0.950 . S
C2988 C2989 1.327 . S
C2989 H2983 0.950 . S
C2989 C2988 1.327 . S
C2989 C2993 1.429 . S
C2990 C2973 1.574 . S
C2990 H2984 0.949 . S
C2990 C2994 1.368 . S
C2991 C2972 1.429 . S
C2991 C2985 1.429 . S
C2991 C2992 1.523 . S
C2992 C2973 1.368 . S
C2992 C2986 1.368 . S
C2992 C2991 1.523 . S
C2993 C2977 1.429 . S
C2993 C2989 1.429 . S
C2993 C2994 1.523 . S
C2994 C2978 1.368 . S
C2994 C2990 1.368 . S
C2994 C2993 1.523 . S
H2995 C2970 0.950 . S
H2996 C2972 0.950 . S
H2997 C2973 0.949 . S
H2998 C2975 0.950 . S
H2999 C2977 0.950 . S
C3000 C3001 1.349 1_565 S
C3000 C3002 1.327 . S
C3000 H3025 0.930 1_565 S
C3001 C3000 1.349 1_545 S
C3001 C3017 1.349 1_545 S
C3002 C3000 1.327 . S
C3002 C3021 1.429 . S
C3002 H3026 0.950 . S
C3003 C3020 1.574 . S
C3003 C3022 1.368 . S
C3003 H3027 0.949 . S
H3004 C3008 0.949 . S
C3005 C3006 1.349 . S
C3005 C3007 1.327 . S
C3005 H3028 0.950 . S
C3006 C3005 1.349 . S
C3006 C3018 1.349 . S
C3007 C3005 1.327 . S
C3007 C3023 1.429 . S
C3007 H3029 0.950 . S
C3008 H3004 0.949 . S
C3008 C3016 1.574 . S
C3008 C3024 1.368 . S
H3009 C3017 0.927 1_545 S
H3010 C3015 0.950 . S
H3011 C3016 0.949 . S
H3012 C3018 0.950 . S
H3013 C3019 0.950 . S
H3014 C3020 0.949 . S
C3015 H3010 0.950 . S
C3015 C3017 1.327 . S
C3015 C3021 1.429 . S
C3016 C3008 1.574 . S
C3016 H3011 0.949 . S
C3016 C3022 1.368 . S
C3017 C3001 1.349 1_565 S
C3017 H3009 0.927 1_565 S
C3017 C3015 1.327 . S
C3018 C3006 1.349 . S
C3018 H3012 0.950 . S
C3018 C3019 1.327 . S
C3019 H3013 0.950 . S
C3019 C3018 1.327 . S
C3019 C3023 1.429 . S
C3020 C3003 1.574 . S
C3020 H3014 0.949 . S
C3020 C3024 1.368 . S
C3021 C3002 1.429 . S
C3021 C3015 1.429 . S
C3021 C3022 1.523 . S
C3022 C3003 1.368 . S
C3022 C3016 1.368 . S
C3022 C3021 1.523 . S
C3023 C3007 1.429 . S
C3023 C3019 1.429 . S
C3023 C3024 1.523 . S
C3024 C3008 1.368 . S
C3024 C3020 1.368 . S
C3024 C3023 1.523 . S
H3025 C3000 0.930 1_545 S
H3026 C3002 0.950 . S
H3027 C3003 0.949 . S
H3028 C3005 0.950 . S
H3029 C3007 0.950 . S
C3030 C3031 1.349 . S
C3030 C3032 1.327 . S
C3030 H3055 0.950 . S
C3031 C3030 1.349 . S
C3031 C3047 1.349 . S
C3032 C3030 1.327 . S
C3032 C3051 1.429 . S
C3032 H3056 0.950 . S
C3033 C3050 1.574 . S
C3033 C3052 1.368 . S
C3033 H3057 0.949 . S
H3034 C3038 0.949 . S
C3035 C3036 1.349 . S
C3035 C3037 1.327 . S
C3035 H3058 0.950 . S
C3036 C3035 1.349 . S
C3036 C3048 1.349 . S
C3037 C3035 1.327 . S
C3037 C3053 1.429 . S
C3037 H3059 0.950 . S
C3038 H3034 0.949 . S
C3038 C3046 1.574 . S
C3038 C3054 1.368 . S
H3039 C3047 0.950 . S
H3040 C3045 0.950 . S
H3041 C3046 0.949 . S
H3042 C3048 0.950 . S
H3043 C3049 0.950 . S
H3044 C3050 0.949 . S
C3045 H3040 0.950 . S
C3045 C3047 1.327 . S
C3045 C3051 1.429 . S
C3046 C3038 1.574 . S
C3046 H3041 0.949 . S
C3046 C3052 1.368 . S
C3047 C3031 1.349 . S
C3047 H3039 0.950 . S
C3047 C3045 1.327 . S
C3048 C3036 1.349 . S
C3048 H3042 0.950 . S
C3048 C3049 1.327 . S
C3049 H3043 0.950 . S
C3049 C3048 1.327 . S
C3049 C3053 1.429 . S
C3050 C3033 1.574 . S
C3050 H3044 0.949 . S
C3050 C3054 1.368 . S
C3051 C3032 1.429 . S
C3051 C3045 1.429 . S
C3051 C3052 1.523 . S
C3052 C3033 1.368 . S
C3052 C3046 1.368 . S
C3052 C3051 1.523 . S
C3053 C3037 1.429 . S
C3053 C3049 1.429 . S
C3053 C3054 1.523 . S
C3054 C3038 1.368 . S
C3054 C3050 1.368 . S
C3054 C3053 1.523 . S
H3055 C3030 0.950 . S
H3056 C3032 0.950 . S
H3057 C3033 0.949 . S
H3058 C3035 0.950 . S
H3059 C3037 0.950 . S
C3060 C3061 1.349 . S
C3060 C3062 1.327 . S
C3060 H3085 0.950 . S
C3061 C3060 1.349 . S
C3061 C3077 1.349 . S
C3062 C3060 1.327 . S
C3062 C3081 1.429 . S
C3062 H3086 0.950 . S
C3063 C3080 1.574 . S
C3063 C3082 1.368 . S
C3063 H3087 0.949 . S
H3064 C3068 0.949 . S
C3065 C3066 1.349 . S
C3065 C3067 1.327 . S
C3065 H3088 0.950 . S
C3066 C3065 1.349 . S
C3066 C3078 1.349 . S
C3067 C3065 1.327 . S
C3067 C3083 1.429 . S
C3067 H3089 0.950 . S
C3068 H3064 0.949 . S
C3068 C3076 1.574 . S
C3068 C3084 1.368 . S
H3069 C3077 0.950 . S
H3070 C3075 0.950 . S
H3071 C3076 0.949 . S
H3072 C3078 0.950 . S
H3073 C3079 0.950 . S
H3074 C3080 0.949 . S
C3075 H3070 0.950 . S
C3075 C3077 1.327 . S
C3075 C3081 1.429 . S
C3076 C3068 1.574 . S
C3076 H3071 0.949 . S
C3076 C3082 1.368 . S
C3077 C3061 1.349 . S
C3077 H3069 0.950 . S
C3077 C3075 1.327 . S
C3078 C3066 1.349 . S
C3078 H3072 0.950 . S
C3078 C3079 1.327 . S
C3079 H3073 0.950 . S
C3079 C3078 1.327 . S
C3079 C3083 1.429 . S
C3080 C3063 1.574 . S
C3080 H3074 0.949 . S
C3080 C3084 1.368 . S
C3081 C3062 1.429 . S
C3081 C3075 1.429 . S
C3081 C3082 1.523 . S
C3082 C3063 1.368 . S
C3082 C3076 1.368 . S
C3082 C3081 1.523 . S
C3083 C3067 1.429 . S
C3083 C3079 1.429 . S
C3083 C3084 1.523 . S
C3084 C3068 1.368 . S
C3084 C3080 1.368 . S
C3084 C3083 1.523 . S
H3085 C3060 0.950 . S
H3086 C3062 0.950 . S
H3087 C3063 0.949 . S
H3088 C3065 0.950 . S
H3089 C3067 0.950 . S
C3090 C3091 1.349 . S
C3090 C3092 1.327 . S
C3090 H3115 0.950 . S
C3091 C3090 1.349 . S
C3091 C3107 1.349 . S
C3092 C3090 1.327 . S
C3092 C3111 1.429 . S
C3092 H3116 0.950 . S
C3093 C3110 1.574 . S
C3093 C3112 1.368 . S
C3093 H3117 0.949 . S
H3094 C3098 0.949 . S
C3095 C3096 1.349 . S
C3095 C3097 1.327 . S
C3095 H3118 0.950 . S
C3096 C3095 1.349 . S
C3096 C3108 1.349 . S
C3097 C3095 1.327 . S
C3097 C3113 1.429 . S
C3097 H3119 0.950 . S
C3098 H3094 0.949 . S
C3098 C3106 1.574 . S
C3098 C3114 1.368 . S
H3099 C3107 0.950 . S
H3100 C3105 0.950 . S
H3101 C3106 0.949 . S
H3102 C3108 0.950 . S
H3103 C3109 0.950 . S
H3104 C3110 0.949 . S
C3105 H3100 0.950 . S
C3105 C3107 1.327 . S
C3105 C3111 1.429 . S
C3106 C3098 1.574 . S
C3106 H3101 0.949 . S
C3106 C3112 1.368 . S
C3107 C3091 1.349 . S
C3107 H3099 0.950 . S
C3107 C3105 1.327 . S
C3108 C3096 1.349 . S
C3108 H3102 0.950 . S
C3108 C3109 1.327 . S
C3109 H3103 0.950 . S
C3109 C3108 1.327 . S
C3109 C3113 1.429 . S
C3110 C3093 1.574 . S
C3110 H3104 0.949 . S
C3110 C3114 1.368 . S
C3111 C3092 1.429 . S
C3111 C3105 1.429 . S
C3111 C3112 1.523 . S
C3112 C3093 1.368 . S
C3112 C3106 1.368 . S
C3112 C3111 1.523 . S
C3113 C3097 1.429 . S
C3113 C3109 1.429 . S
C3113 C3114 1.523 . S
C3114 C3098 1.368 . S
C3114 C3110 1.368 . S
C3114 C3113 1.523 . S
H3115 C3090 0.950 . S
H3116 C3092 0.950 . S
H3117 C3093 0.949 . S
H3118 C3095 0.950 . S
H3119 C3097 0.950 . S
C3120 C3121 1.349 . S
C3120 C3122 1.327 . S
C3120 H3145 0.950 . S
C3121 C3120 1.349 . S
C3121 C3137 1.349 . S
C3122 C3120 1.327 . S
C3122 C3141 1.429 . S
C3122 H3146 0.950 . S
C3123 C3140 1.574 . S
C3123 C3142 1.368 . S
C3123 H3147 0.949 . S
H3124 C3128 0.949 . S
C3125 C3126 1.349 . S
C3125 C3127 1.327 . S
C3125 H3148 0.950 . S
C3126 C3125 1.349 . S
C3126 C3138 1.349 . S
C3127 C3125 1.327 . S
C3127 C3143 1.429 . S
C3127 H3149 0.950 . S
C3128 H3124 0.949 . S
C3128 C3136 1.574 . S
C3128 C3144 1.368 . S
H3129 C3137 0.950 . S
H3130 C3135 0.950 . S
H3131 C3136 0.949 . S
H3132 C3138 0.950 . S
H3133 C3139 0.950 . S
H3134 C3140 0.949 . S
C3135 H3130 0.950 . S
C3135 C3137 1.327 . S
C3135 C3141 1.429 . S
C3136 C3128 1.574 . S
C3136 H3131 0.949 . S
C3136 C3142 1.368 . S
C3137 C3121 1.349 . S
C3137 H3129 0.950 . S
C3137 C3135 1.327 . S
C3138 C3126 1.349 . S
C3138 H3132 0.950 . S
C3138 C3139 1.327 . S
C3139 H3133 0.950 . S
C3139 C3138 1.327 . S
C3139 C3143 1.429 . S
C3140 C3123 1.574 . S
C3140 H3134 0.949 . S
C3140 C3144 1.368 . S
C3141 C3122 1.429 . S
C3141 C3135 1.429 . S
C3141 C3142 1.523 . S
C3142 C3123 1.368 . S
C3142 C3136 1.368 . S
C3142 C3141 1.523 . S
C3143 C3127 1.429 . S
C3143 C3139 1.429 . S
C3143 C3144 1.523 . S
C3144 C3128 1.368 . S
C3144 C3140 1.368 . S
C3144 C3143 1.523 . S
H3145 C3120 0.950 . S
H3146 C3122 0.950 . S
H3147 C3123 0.949 . S
H3148 C3125 0.950 . S
H3149 C3127 0.950 . S
C3150 C3151 1.349 . S
C3150 C3152 1.327 . S
C3150 H3175 0.950 . S
C3151 C3150 1.349 . S
C3151 C3167 1.349 . S
C3152 C3150 1.327 . S
C3152 C3171 1.429 . S
C3152 H3176 0.950 . S
C3153 C3170 1.574 . S
C3153 C3172 1.368 . S
C3153 H3177 0.949 . S
H3154 C3158 0.949 . S
C3155 C3156 1.349 . S
C3155 C3157 1.327 . S
C3155 H3178 0.950 . S
C3156 C3155 1.349 . S
C3156 C3168 1.349 . S
C3157 C3155 1.327 . S
C3157 C3173 1.429 . S
C3157 H3179 0.950 . S
C3158 H3154 0.949 . S
C3158 C3166 1.574 . S
C3158 C3174 1.368 . S
H3159 C3167 0.950 . S
H3160 C3165 0.950 . S
H3161 C3166 0.949 . S
H3162 C3168 0.950 . S
H3163 C3169 0.950 . S
H3164 C3170 0.949 . S
C3165 H3160 0.950 . S
C3165 C3167 1.327 . S
C3165 C3171 1.429 . S
C3166 C3158 1.574 . S
C3166 H3161 0.949 . S
C3166 C3172 1.368 . S
C3167 C3151 1.349 . S
C3167 H3159 0.950 . S
C3167 C3165 1.327 . S
C3168 C3156 1.349 . S
C3168 H3162 0.950 . S
C3168 C3169 1.327 . S
C3169 H3163 0.950 . S
C3169 C3168 1.327 . S
C3169 C3173 1.429 . S
C3170 C3153 1.574 . S
C3170 H3164 0.949 . S
C3170 C3174 1.368 . S
C3171 C3152 1.429 . S
C3171 C3165 1.429 . S
C3171 C3172 1.523 . S
C3172 C3153 1.368 . S
C3172 C3166 1.368 . S
C3172 C3171 1.523 . S
C3173 C3157 1.429 . S
C3173 C3169 1.429 . S
C3173 C3174 1.523 . S
C3174 C3158 1.368 . S
C3174 C3170 1.368 . S
C3174 C3173 1.523 . S
H3175 C3150 0.950 . S
H3176 C3152 0.950 . S
H3177 C3153 0.949 . S
H3178 C3155 0.950 . S
H3179 C3157 0.950 . S
C3180 C3181 1.349 1_655 S
C3180 C3182 1.327 . S
C3180 H3205 0.950 . S
C3181 C3180 1.349 1_455 S
C3181 C3197 1.349 . S
C3182 C3180 1.327 . S
C3182 C3201 1.429 1_655 S
C3182 H3206 0.950 . S
C3183 C3200 1.574 . S
C3183 C3202 1.368 . S
C3183 H3207 0.949 . S
H3184 C3188 0.949 1_655 S
C3185 C3186 1.386 . S
C3185 C3187 1.327 . S
C3185 H3208 0.950 . S
C3186 C3185 1.386 . S
C3186 C3198 1.306 1_554 S
C3187 C3185 1.327 . S
C3187 C3203 1.429 1_554 S
C3187 H3209 0.950 . S
C3188 H3184 0.949 1_455 S
C3188 C3196 1.574 1_455 S
C3188 C3204 1.368 . S
H3189 C3197 0.950 . S
H3190 C3195 0.950 . S
H3191 C3196 0.949 . S
H3192 C3198 0.938 1_655 S
H3193 C3199 0.950 1_655 S
H3194 C3200 0.949 1_554 S
C3195 H3190 0.950 . S
C3195 C3197 1.327 . S
C3195 C3201 1.429 . S
C3196 C3188 1.574 1_655 S
C3196 H3191 0.949 . S
C3196 C3202 1.368 1_655 S
C3197 C3181 1.349 . S
C3197 H3189 0.950 . S
C3197 C3195 1.327 . S
C3198 C3186 1.306 1_556 S
C3198 H3192 0.938 1_455 S
C3198 C3199 1.327 . S
C3199 H3193 0.950 1_455 S
C3199 C3198 1.327 . S
C3199 C3203 1.429 . S
C3200 C3183 1.574 . S
C3200 H3194 0.949 1_556 S
C3200 C3204 1.368 . S
C3201 C3182 1.429 1_455 S
C3201 C3195 1.429 . S
C3201 C3202 1.523 . S
C3202 C3183 1.368 . S
C3202 C3196 1.368 1_455 S
C3202 C3201 1.523 . S
C3203 C3187 1.429 1_556 S
C3203 C3199 1.429 . S
C3203 C3204 1.523 . S
C3204 C3188 1.368 . S
C3204 C3200 1.368 . S
C3204 C3203 1.523 . S
H3205 C3180 0.950 . S
H3206 C3182 0.950 . S
H3207 C3183 0.949 . S
H3208 C3185 0.950 . S
H3209 C3187 0.950 . S
C3210 C3211 1.354 . S
C3210 C3212 1.294 1_455 S
C3210 H3235 0.980 . S
C3211 C3210 1.354 . S
C3211 C3227 1.349 1_455 S
C3212 C3210 1.294 1_655 S
C3212 C3231 1.429 . S
C3212 H3236 0.950 . S
C3213 C3230 1.574 . S
C3213 C3232 1.368 . S
C3213 H3237 0.949 . S
H3214 C3218 0.949 . S
C3215 C3216 1.349 . S
C3215 C3217 1.327 . S
C3215 H3238 0.950 . S
C3216 C3215 1.349 . S
C3216 C3228 1.349 . S
C3217 C3215 1.327 . S
C3217 C3233 1.429 . S
C3217 H3239 0.950 . S
C3218 H3214 0.949 . S
C3218 C3226 1.574 . S
C3218 C3234 1.368 . S
H3219 C3227 0.950 . S
H3220 C3225 0.950 . S
H3221 C3226 0.949 . S
H3222 C3228 0.950 . S
H3223 C3229 0.950 . S
H3224 C3230 0.949 . S
C3225 H3220 0.950 . S
C3225 C3227 1.327 . S
C3225 C3231 1.429 . S
C3226 C3218 1.574 . S
C3226 H3221 0.949 . S
C3226 C3232 1.368 . S
C3227 C3211 1.349 1_655 S
C3227 H3219 0.950 . S
C3227 C3225 1.327 . S
C3228 C3216 1.349 . S
C3228 H3222 0.950 . S
C3228 C3229 1.327 . S
C3229 H3223 0.950 . S
C3229 C3228 1.327 . S
C3229 C3233 1.429 . S
C3230 C3213 1.574 . S
C3230 H3224 0.949 . S
C3230 C3234 1.368 . S
C3231 C3212 1.429 . S
C3231 C3225 1.429 . S
C3231 C3232 1.523 . S
C3232 C3213 1.368 . S
C3232 C3226 1.368 . S
C3232 C3231 1.523 . S
C3233 C3217 1.429 . S
C3233 C3229 1.429 . S
C3233 C3234 1.523 . S
C3234 C3218 1.368 . S
C3234 C3230 1.368 . S
C3234 C3233 1.523 . S
H3235 C3210 0.980 . S
H3236 C3212 0.950 . S
H3237 C3213 0.949 . S
H3238 C3215 0.950 . S
H3239 C3217 0.950 . S
C3240 C3241 1.349 . S
C3240 C3242 1.327 . S
C3240 H3265 0.950 . S
C3241 C3240 1.349 . S
C3241 C3257 1.349 . S
C3242 C3240 1.327 . S
C3242 C3261 1.429 . S
C3242 H3266 0.950 . S
C3243 C3260 1.574 . S
C3243 C3262 1.368 . S
C3243 H3267 0.949 . S
H3244 C3248 0.949 . S
C3245 C3246 1.349 . S
C3245 C3247 1.327 . S
C3245 H3268 0.950 . S
C3246 C3245 1.349 . S
C3246 C3258 1.349 . S
C3247 C3245 1.327 . S
C3247 C3263 1.429 . S
C3247 H3269 0.950 . S
C3248 H3244 0.949 . S
C3248 C3256 1.574 . S
C3248 C3264 1.368 . S
H3249 C3257 0.950 . S
H3250 C3255 0.950 . S
H3251 C3256 0.949 . S
H3252 C3258 0.950 . S
H3253 C3259 0.950 . S
H3254 C3260 0.949 . S
C3255 H3250 0.950 . S
C3255 C3257 1.327 . S
C3255 C3261 1.429 . S
C3256 C3248 1.574 . S
C3256 H3251 0.949 . S
C3256 C3262 1.368 . S
C3257 C3241 1.349 . S
C3257 H3249 0.950 . S
C3257 C3255 1.327 . S
C3258 C3246 1.349 . S
C3258 H3252 0.950 . S
C3258 C3259 1.327 . S
C3259 H3253 0.950 . S
C3259 C3258 1.327 . S
C3259 C3263 1.429 . S
C3260 C3243 1.574 . S
C3260 H3254 0.949 . S
C3260 C3264 1.368 . S
C3261 C3242 1.429 . S
C3261 C3255 1.429 . S
C3261 C3262 1.523 . S
C3262 C3243 1.368 . S
C3262 C3256 1.368 . S
C3262 C3261 1.523 . S
C3263 C3247 1.429 . S
C3263 C3259 1.429 . S
C3263 C3264 1.523 . S
C3264 C3248 1.368 . S
C3264 C3260 1.368 . S
C3264 C3263 1.523 . S
H3265 C3240 0.950 . S
H3266 C3242 0.950 . S
H3267 C3243 0.949 . S
H3268 C3245 0.950 . S
H3269 C3247 0.950 . S
C3270 C3271 1.349 . S
C3270 C3272 1.327 . S
C3270 H3295 0.950 . S
C3271 C3270 1.349 . S
C3271 C3287 1.349 . S
C3272 C3270 1.327 . S
C3272 C3291 1.429 . S
C3272 H3296 0.950 . S
C3273 C3290 1.574 . S
C3273 C3292 1.368 . S
C3273 H3297 0.949 . S
H3274 C3278 0.949 . S
C3275 C3276 1.349 . S
C3275 C3277 1.327 . S
C3275 H3298 0.950 . S
C3276 C3275 1.349 . S
C3276 C3288 1.349 . S
C3277 C3275 1.327 . S
C3277 C3293 1.429 . S
C3277 H3299 0.950 . S
C3278 H3274 0.949 . S
C3278 C3286 1.574 . S
C3278 C3294 1.368 . S
H3279 C3287 0.950 . S
H3280 C3285 0.950 . S
H3281 C3286 0.949 . S
H3282 C3288 0.950 . S
H3283 C3289 0.950 . S
H3284 C3290 0.949 . S
C3285 H3280 0.950 . S
C3285 C3287 1.327 . S
C3285 C3291 1.429 . S
C3286 C3278 1.574 . S
C3286 H3281 0.949 . S
C3286 C3292 1.368 . S
C3287 C3271 1.349 . S
C3287 H3279 0.950 . S
C3287 C3285 1.327 . S
C3288 C3276 1.349 . S
C3288 H3282 0.950 . S
C3288 C3289 1.327 . S
C3289 H3283 0.950 . S
C3289 C3288 1.327 . S
C3289 C3293 1.429 . S
C3290 C3273 1.574 . S
C3290 H3284 0.949 . S
C3290 C3294 1.368 . S
C3291 C3272 1.429 . S
C3291 C3285 1.429 . S
C3291 C3292 1.523 . S
C3292 C3273 1.368 . S
C3292 C3286 1.368 . S
C3292 C3291 1.523 . S
C3293 C3277 1.429 . S
C3293 C3289 1.429 . S
C3293 C3294 1.523 . S
C3294 C3278 1.368 . S
C3294 C3290 1.368 . S
C3294 C3293 1.523 . S
H3295 C3270 0.950 . S
H3296 C3272 0.950 . S
H3297 C3273 0.949 . S
H3298 C3275 0.950 . S
H3299 C3277 0.950 . S
C3300 C3301 1.349 . S
C3300 C3302 1.327 . S
C3300 H3325 0.950 . S
C3301 C3300 1.349 . S
C3301 C3317 1.349 . S
C3302 C3300 1.327 . S
C3302 C3321 1.429 . S
C3302 H3326 0.950 . S
C3303 C3320 1.574 . S
C3303 C3322 1.368 . S
C3303 H3327 0.949 . S
H3304 C3308 0.949 . S
C3305 C3306 1.349 . S
C3305 C3307 1.327 . S
C3305 H3328 0.950 . S
C3306 C3305 1.349 . S
C3306 C3318 1.349 . S
C3307 C3305 1.327 . S
C3307 C3323 1.429 . S
C3307 H3329 0.950 . S
C3308 H3304 0.949 . S
C3308 C3316 1.574 . S
C3308 C3324 1.368 . S
H3309 C3317 0.950 . S
H3310 C3315 0.950 . S
H3311 C3316 0.949 . S
H3312 C3318 0.950 . S
H3313 C3319 0.950 . S
H3314 C3320 0.949 . S
C3315 H3310 0.950 . S
C3315 C3317 1.327 . S
C3315 C3321 1.429 . S
C3316 C3308 1.574 . S
C3316 H3311 0.949 . S
C3316 C3322 1.368 . S
C3317 C3301 1.349 . S
C3317 H3309 0.950 . S
C3317 C3315 1.327 . S
C3318 C3306 1.349 . S
C3318 H3312 0.950 . S
C3318 C3319 1.327 . S
C3319 H3313 0.950 . S
C3319 C3318 1.327 . S
C3319 C3323 1.429 . S
C3320 C3303 1.574 . S
C3320 H3314 0.949 . S
C3320 C3324 1.368 . S
C3321 C3302 1.429 . S
C3321 C3315 1.429 . S
C3321 C3322 1.523 . S
C3322 C3303 1.368 . S
C3322 C3316 1.368 . S
C3322 C3321 1.523 . S
C3323 C3307 1.429 . S
C3323 C3319 1.429 . S
C3323 C3324 1.523 . S
C3324 C3308 1.368 . S
C3324 C3320 1.368 . S
C3324 C3323 1.523 . S
H3325 C3300 0.950 . S
H3326 C3302 0.950 . S
H3327 C3303 0.949 . S
H3328 C3305 0.950 . S
H3329 C3307 0.950 . S
C3330 C3331 1.349 . S
C3330 C3332 1.327 . S
C3330 H3355 0.950 . S
C3331 C3330 1.349 . S
C3331 C3347 1.349 . S
C3332 C3330 1.327 . S
C3332 C3351 1.429 . S
C3332 H3356 0.950 . S
C3333 C3350 1.574 . S
C3333 C3352 1.368 . S
C3333 H3357 0.949 . S
H3334 C3338 0.949 . S
C3335 C3336 1.349 . S
C3335 C3337 1.327 . S
C3335 H3358 0.950 . S
C3336 C3335 1.349 . S
C3336 C3348 1.349 . S
C3337 C3335 1.327 . S
C3337 C3353 1.429 . S
C3337 H3359 0.950 . S
C3338 H3334 0.949 . S
C3338 C3346 1.574 . S
C3338 C3354 1.368 . S
H3339 C3347 0.950 . S
H3340 C3345 0.950 . S
H3341 C3346 0.949 . S
H3342 C3348 0.950 . S
H3343 C3349 0.950 . S
H3344 C3350 0.949 . S
C3345 H3340 0.950 . S
C3345 C3347 1.327 . S
C3345 C3351 1.429 . S
C3346 C3338 1.574 . S
C3346 H3341 0.949 . S
C3346 C3352 1.368 . S
C3347 C3331 1.349 . S
C3347 H3339 0.950 . S
C3347 C3345 1.327 . S
C3348 C3336 1.349 . S
C3348 H3342 0.950 . S
C3348 C3349 1.327 . S
C3349 H3343 0.950 . S
C3349 C3348 1.327 . S
C3349 C3353 1.429 . S
C3350 C3333 1.574 . S
C3350 H3344 0.949 . S
C3350 C3354 1.368 . S
C3351 C3332 1.429 . S
C3351 C3345 1.429 . S
C3351 C3352 1.523 . S
C3352 C3333 1.368 . S
C3352 C3346 1.368 . S
C3352 C3351 1.523 . S
C3353 C3337 1.429 . S
C3353 C3349 1.429 . S
C3353 C3354 1.523 . S
C3354 C3338 1.368 . S
C3354 C3350 1.368 . S
C3354 C3353 1.523 . S
H3355 C3330 0.950 . S
H3356 C3332 0.950 . S
H3357 C3333 0.949 . S
H3358 C3335 0.950 . S
H3359 C3337 0.950 . S
C3360 C3361 1.349 . S
C3360 C3362 1.327 . S
C3360 H3385 0.950 . S
C3361 C3360 1.349 . S
C3361 C3377 1.349 . S
C3362 C3360 1.327 . S
C3362 C3381 1.429 . S
C3362 H3386 0.950 . S
C3363 C3380 1.574 . S
C3363 C3382 1.368 . S
C3363 H3387 0.949 . S
H3364 C3368 0.949 . S
C3365 C3366 1.349 . S
C3365 C3367 1.327 . S
C3365 H3388 0.950 . S
C3366 C3365 1.349 . S
C3366 C3378 1.349 . S
C3367 C3365 1.327 . S
C3367 C3383 1.429 . S
C3367 H3389 0.950 . S
C3368 H3364 0.949 . S
C3368 C3376 1.574 . S
C3368 C3384 1.368 . S
H3369 C3377 0.950 . S
H3370 C3375 0.950 . S
H3371 C3376 0.949 . S
H3372 C3378 0.950 . S
H3373 C3379 0.950 . S
H3374 C3380 0.949 . S
C3375 H3370 0.950 . S
C3375 C3377 1.327 . S
C3375 C3381 1.429 . S
C3376 C3368 1.574 . S
C3376 H3371 0.949 . S
C3376 C3382 1.368 . S
C3377 C3361 1.349 . S
C3377 H3369 0.950 . S
C3377 C3375 1.327 . S
C3378 C3366 1.349 . S
C3378 H3372 0.950 . S
C3378 C3379 1.327 . S
C3379 H3373 0.950 . S
C3379 C3378 1.327 . S
C3379 C3383 1.429 . S
C3380 C3363 1.574 . S
C3380 H3374 0.949 . S
C3380 C3384 1.368 . S
C3381 C3362 1.429 . S
C3381 C3375 1.429 . S
C3381 C3382 1.523 . S
C3382 C3363 1.368 . S
C3382 C3376 1.368 . S
C3382 C3381 1.523 . S
C3383 C3367 1.429 . S
C3383 C3379 1.429 . S
C3383 C3384 1.523 . S
C3384 C3368 1.368 . S
C3384 C3380 1.368 . S
C3384 C3383 1.523 . S
H3385 C3360 0.950 . S
H3386 C3362 0.950 . S
H3387 C3363 0.949 . S
H3388 C3365 0.950 . S
H3389 C3367 0.950 . S
C3390 C3391 1.324 1_556 S
C3390 C3392 1.327 . S
C3390 H3415 0.950 . S
C3391 C3390 1.324 1_554 S
C3391 C3407 1.346 . S
C3392 C3390 1.327 . S
C3392 C3411 1.429 . S
C3392 H3416 0.950 . S
C3393 C3410 1.574 . S
C3393 C3412 1.368 . S
C3393 H3417 0.949 . S
H3394 C3398 0.949 . S
C3395 C3396 1.349 . S
C3395 C3397 1.327 . S
C3395 H3418 0.950 . S
C3396 C3395 1.349 . S
C3396 C3408 1.349 . S
C3397 C3395 1.327 . S
C3397 C3413 1.429 . S
C3397 H3419 0.950 . S
C3398 H3394 0.949 . S
C3398 C3406 1.574 . S
C3398 C3414 1.368 . S
H3399 C3407 0.950 . S
H3400 C3405 0.950 . S
H3401 C3406 0.949 . S
H3402 C3408 0.950 . S
H3403 C3409 0.950 . S
H3404 C3410 0.949 . S
C3405 H3400 0.950 . S
C3405 C3407 1.327 1_556 S
C3405 C3411 1.429 . S
C3406 C3398 1.574 . S
C3406 H3401 0.949 . S
C3406 C3412 1.368 . S
C3407 C3391 1.346 . S
C3407 H3399 0.950 . S
C3407 C3405 1.327 1_554 S
C3408 C3396 1.349 . S
C3408 H3402 0.950 . S
C3408 C3409 1.327 . S
C3409 H3403 0.950 . S
C3409 C3408 1.327 . S
C3409 C3413 1.429 . S
C3410 C3393 1.574 . S
C3410 H3404 0.949 . S
C3410 C3414 1.368 . S
C3411 C3392 1.429 . S
C3411 C3405 1.429 . S
C3411 C3412 1.523 . S
C3412 C3393 1.368 . S
C3412 C3406 1.368 . S
C3412 C3411 1.523 . S
C3413 C3397 1.429 . S
C3413 C3409 1.429 . S
C3413 C3414 1.523 . S
C3414 C3398 1.368 . S
C3414 C3410 1.368 . S
C3414 C3413 1.523 . S
H3415 C3390 0.950 . S
H3416 C3392 0.950 . S
H3417 C3393 0.949 . S
H3418 C3395 0.950 . S
H3419 C3397 0.950 . S
C3420 C3421 1.349 . S
C3420 C3422 1.327 . S
C3420 H3445 0.950 . S
C3421 C3420 1.349 . S
C3421 C3437 1.349 . S
C3422 C3420 1.327 . S
C3422 C3441 1.429 . S
C3422 H3446 0.950 . S
C3423 C3440 1.574 . S
C3423 C3442 1.368 . S
C3423 H3447 0.949 . S
H3424 C3428 0.949 . S
C3425 C3426 1.349 . S
C3425 C3427 1.327 . S
C3425 H3448 0.950 . S
C3426 C3425 1.349 . S
C3426 C3438 1.349 . S
C3427 C3425 1.327 . S
C3427 C3443 1.429 . S
C3427 H3449 0.950 . S
C3428 H3424 0.949 . S
C3428 C3436 1.574 . S
C3428 C3444 1.368 . S
H3429 C3437 0.950 . S
H3430 C3435 0.950 . S
H3431 C3436 0.949 . S
H3432 C3438 0.950 . S
H3433 C3439 0.950 . S
H3434 C3440 0.949 . S
C3435 H3430 0.950 . S
C3435 C3437 1.327 . S
C3435 C3441 1.429 . S
C3436 C3428 1.574 . S
C3436 H3431 0.949 . S
C3436 C3442 1.368 . S
C3437 C3421 1.349 . S
C3437 H3429 0.950 . S
C3437 C3435 1.327 . S
C3438 C3426 1.349 . S
C3438 H3432 0.950 . S
C3438 C3439 1.327 . S
C3439 H3433 0.950 . S
C3439 C3438 1.327 . S
C3439 C3443 1.429 . S
C3440 C3423 1.574 . S
C3440 H3434 0.949 . S
C3440 C3444 1.368 . S
C3441 C3422 1.429 . S
C3441 C3435 1.429 . S
C3441 C3442 1.523 . S
C3442 C3423 1.368 . S
C3442 C3436 1.368 . S
C3442 C3441 1.523 . S
C3443 C3427 1.429 . S
C3443 C3439 1.429 . S
C3443 C3444 1.523 . S
C3444 C3428 1.368 . S
C3444 C3440 1.368 . S
C3444 C3443 1.523 . S
H3445 C3420 0.950 . S
H3446 C3422 0.950 . S
H3447 C3423 0.949 . S
H3448 C3425 0.950 . S
H3449 C3427 0.950 . S
C3450 C3451 1.349 . S
C3450 C3452 1.327 . S
C3450 H3475 0.950 . S
C3451 C3450 1.349 . S
C3451 C3467 1.349 . S
C3452 C3450 1.327 . S
C3452 C3471 1.429 . S
C3452 H3476 0.950 . S
C3453 C3470 1.574 . S
C3453 C3472 1.368 . S
C3453 H3477 0.949 . S
H3454 C3458 0.949 . S
C3455 C3456 1.349 . S
C3455 C3457 1.327 . S
C3455 H3478 0.950 . S
C3456 C3455 1.349 . S
C3456 C3468 1.349 . S
C3457 C3455 1.327 . S
C3457 C3473 1.429 . S
C3457 H3479 0.950 . S
C3458 H3454 0.949 . S
C3458 C3466 1.574 . S
C3458 C3474 1.368 . S
H3459 C3467 0.950 . S
H3460 C3465 0.950 . S
H3461 C3466 0.949 . S
H3462 C3468 0.950 . S
H3463 C3469 0.950 . S
H3464 C3470 0.949 . S
C3465 H3460 0.950 . S
C3465 C3467 1.327 . S
C3465 C3471 1.429 . S
C3466 C3458 1.574 . S
C3466 H3461 0.949 . S
C3466 C3472 1.368 . S
C3467 C3451 1.349 . S
C3467 H3459 0.950 . S
C3467 C3465 1.327 . S
C3468 C3456 1.349 . S
C3468 H3462 0.950 . S
C3468 C3469 1.327 . S
C3469 H3463 0.950 . S
C3469 C3468 1.327 . S
C3469 C3473 1.429 . S
C3470 C3453 1.574 . S
C3470 H3464 0.949 . S
C3470 C3474 1.368 . S
C3471 C3452 1.429 . S
C3471 C3465 1.429 . S
C3471 C3472 1.523 . S
C3472 C3453 1.368 . S
C3472 C3466 1.368 . S
C3472 C3471 1.523 . S
C3473 C3457 1.429 . S
C3473 C3469 1.429 . S
C3473 C3474 1.523 . S
C3474 C3458 1.368 . S
C3474 C3470 1.368 . S
C3474 C3473 1.523 . S
H3475 C3450 0.950 . S
H3476 C3452 0.950 . S
H3477 C3453 0.949 . S
H3478 C3455 0.950 . S
H3479 C3457 0.950 . S
C3480 C3481 1.349 . S
C3480 C3482 1.327 . S
C3480 H3505 0.950 . S
C3481 C3480 1.349 . S
C3481 C3497 1.349 . S
C3482 C3480 1.327 . S
C3482 C3501 1.429 . S
C3482 H3506 0.950 . S
C3483 C3500 1.574 . S
C3483 C3502 1.368 . S
C3483 H3507 0.949 . S
H3484 C3488 0.949 . S
C3485 C3486 1.349 . S
C3485 C3487 1.327 . S
C3485 H3508 0.950 . S
C3486 C3485 1.349 . S
C3486 C3498 1.349 . S
C3487 C3485 1.327 . S
C3487 C3503 1.429 . S
C3487 H3509 0.950 . S
C3488 H3484 0.949 . S
C3488 C3496 1.574 . S
C3488 C3504 1.368 . S
H3489 C3497 0.950 . S
H3490 C3495 0.950 . S
H3491 C3496 0.949 . S
H3492 C3498 0.950 . S
H3493 C3499 0.950 . S
H3494 C3500 0.949 . S
C3495 H3490 0.950 . S
C3495 C3497 1.327 . S
C3495 C3501 1.429 . S
C3496 C3488 1.574 . S
C3496 H3491 0.949 . S
C3496 C3502 1.368 . S
C3497 C3481 1.349 . S
C3497 H3489 0.950 . S
C3497 C3495 1.327 . S
C3498 C3486 1.349 . S
C3498 H3492 0.950 . S
C3498 C3499 1.327 . S
C3499 H3493 0.950 . S
C3499 C3498 1.327 . S
C3499 C3503 1.429 . S
C3500 C3483 1.574 . S
C3500 H3494 0.949 . S
C3500 C3504 1.368 . S
C3501 C3482 1.429 . S
C3501 C3495 1.429 . S
C3501 C3502 1.523 . S
C3502 C3483 1.368 . S
C3502 C3496 1.368 . S
C3502 C3501 1.523 . S
C3503 C3487 1.429 . S
C3503 C3499 1.429 . S
C3503 C3504 1.523 . S
C3504 C3488 1.368 . S
C3504 C3500 1.368 . S
C3504 C3503 1.523 . S
H3505 C3480 0.950 . S
H3506 C3482 0.950 . S
H3507 C3483 0.949 . S
H3508 C3485 0.950 . S
H3509 C3487 0.950 . S
C3510 C3511 1.349 . S
C3510 C3512 1.327 . S
C3510 H3535 0.950 . S
C3511 C3510 1.349 . S
C3511 C3527 1.349 . S
C3512 C3510 1.327 . S
C3512 C3531 1.429 . S
C3512 H3536 0.950 . S
C3513 C3530 1.574 . S
C3513 C3532 1.368 . S
C3513 H3537 0.949 . S
H3514 C3518 0.949 . S
C3515 C3516 1.349 . S
C3515 C3517 1.327 . S
C3515 H3538 0.950 . S
C3516 C3515 1.349 . S
C3516 C3528 1.349 . S
C3517 C3515 1.327 . S
C3517 C3533 1.429 . S
C3517 H3539 0.950 . S
C3518 H3514 0.949 . S
C3518 C3526 1.574 . S
C3518 C3534 1.368 . S
H3519 C3527 0.950 . S
H3520 C3525 0.950 . S
H3521 C3526 0.949 . S
H3522 C3528 0.950 . S
H3523 C3529 0.950 . S
H3524 C3530 0.949 . S
C3525 H3520 0.950 . S
C3525 C3527 1.327 . S
C3525 C3531 1.429 . S
C3526 C3518 1.574 . S
C3526 H3521 0.949 . S
C3526 C3532 1.368 . S
C3527 C3511 1.349 . S
C3527 H3519 0.950 . S
C3527 C3525 1.327 . S
C3528 C3516 1.349 . S
C3528 H3522 0.950 . S
C3528 C3529 1.327 . S
C3529 H3523 0.950 . S
C3529 C3528 1.327 . S
C3529 C3533 1.429 . S
C3530 C3513 1.574 . S
C3530 H3524 0.949 . S
C3530 C3534 1.368 . S
C3531 C3512 1.429 . S
C3531 C3525 1.429 . S
C3531 C3532 1.523 . S
C3532 C3513 1.368 . S
C3532 C3526 1.368 . S
C3532 C3531 1.523 . S
C3533 C3517 1.429 . S
C3533 C3529 1.429 . S
C3533 C3534 1.523 . S
C3534 C3518 1.368 . S
C3534 C3530 1.368 . S
C3534 C3533 1.523 . S
H3535 C3510 0.950 . S
H3536 C3512 0.950 . S
H3537 C3513 0.949 . S
H3538 C3515 0.950 . S
H3539 C3517 0.950 . S
C3540 C3541 1.349 . S
C3540 C3542 1.327 . S
C3540 H3565 0.950 . S
C3541 C3540 1.349 . S
C3541 C3557 1.349 . S
C3542 C3540 1.327 . S
C3542 C3561 1.429 . S
C3542 H3566 0.950 . S
C3543 C3560 1.574 . S
C3543 C3562 1.368 . S
C3543 H3567 0.949 . S
H3544 C3548 0.949 . S
C3545 C3546 1.349 . S
C3545 C3547 1.327 . S
C3545 H3568 0.950 . S
C3546 C3545 1.349 . S
C3546 C3558 1.349 . S
C3547 C3545 1.327 . S
C3547 C3563 1.429 . S
C3547 H3569 0.950 . S
C3548 H3544 0.949 . S
C3548 C3556 1.574 . S
C3548 C3564 1.368 . S
H3549 C3557 0.950 . S
H3550 C3555 0.950 . S
H3551 C3556 0.949 . S
H3552 C3558 0.950 . S
H3553 C3559 0.950 . S
H3554 C3560 0.949 . S
C3555 H3550 0.950 . S
C3555 C3557 1.327 . S
C3555 C3561 1.429 . S
C3556 C3548 1.574 . S
C3556 H3551 0.949 . S
C3556 C3562 1.368 . S
C3557 C3541 1.349 . S
C3557 H3549 0.950 . S
C3557 C3555 1.327 . S
C3558 C3546 1.349 . S
C3558 H3552 0.950 . S
C3558 C3559 1.327 . S
C3559 H3553 0.950 . S
C3559 C3558 1.327 . S
C3559 C3563 1.429 . S
C3560 C3543 1.574 . S
C3560 H3554 0.949 . S
C3560 C3564 1.368 . S
C3561 C3542 1.429 . S
C3561 C3555 1.429 . S
C3561 C3562 1.523 . S
C3562 C3543 1.368 . S
C3562 C3556 1.368 . S
C3562 C3561 1.523 . S
C3563 C3547 1.429 . S
C3563 C3559 1.429 . S
C3563 C3564 1.523 . S
C3564 C3548 1.368 . S
C3564 C3560 1.368 . S
C3564 C3563 1.523 . S
H3565 C3540 0.950 . S
H3566 C3542 0.950 . S
H3567 C3543 0.949 . S
H3568 C3545 0.950 . S
H3569 C3547 0.950 . S
C3570 C3571 1.349 . S
C3570 C3572 1.327 . S
C3570 H3595 0.950 . S
C3571 C3570 1.349 . S
C3571 C3587 1.349 . S
C3572 C3570 1.327 . S
C3572 C3591 1.429 . S
C3572 H3596 0.950 . S
C3573 C3590 1.574 . S
C3573 C3592 1.368 . S
C3573 H3597 0.949 . S
H3574 C3578 0.949 . S
C3575 C3576 1.349 . S
C3575 C3577 1.327 . S
C3575 H3598 0.950 . S
C3576 C3575 1.349 . S
C3576 C3588 1.349 . S
C3577 C3575 1.327 . S
C3577 C3593 1.429 . S
C3577 H3599 0.950 . S
C3578 H3574 0.949 . S
C3578 C3586 1.574 . S
C3578 C3594 1.368 . S
H3579 C3587 0.950 . S
H3580 C3585 0.950 . S
H3581 C3586 0.949 . S
H3582 C3588 0.950 . S
H3583 C3589 0.950 . S
H3584 C3590 0.949 . S
C3585 H3580 0.950 . S
C3585 C3587 1.327 . S
C3585 C3591 1.429 . S
C3586 C3578 1.574 . S
C3586 H3581 0.949 . S
C3586 C3592 1.368 . S
C3587 C3571 1.349 . S
C3587 H3579 0.950 . S
C3587 C3585 1.327 . S
C3588 C3576 1.349 . S
C3588 H3582 0.950 . S
C3588 C3589 1.327 . S
C3589 H3583 0.950 . S
C3589 C3588 1.327 . S
C3589 C3593 1.429 . S
C3590 C3573 1.574 . S
C3590 H3584 0.949 . S
C3590 C3594 1.368 . S
C3591 C3572 1.429 . S
C3591 C3585 1.429 . S
C3591 C3592 1.523 . S
C3592 C3573 1.368 . S
C3592 C3586 1.368 . S
C3592 C3591 1.523 . S
C3593 C3577 1.429 . S
C3593 C3589 1.429 . S
C3593 C3594 1.523 . S
C3594 C3578 1.368 . S
C3594 C3590 1.368 . S
C3594 C3593 1.523 . S
H3595 C3570 0.950 . S
H3596 C3572 0.950 . S
H3597 C3573 0.949 . S
H3598 C3575 0.950 . S
H3599 C3577 0.950 . S
C3600 C3601 1.349 . S
C3600 C3602 1.327 . S
C3600 H3625 0.950 . S
C3601 C3600 1.349 . S
C3601 C3617 1.349 . S
C3602 C3600 1.327 . S
C3602 C3621 1.429 . S
C3602 H3626 0.950 . S
C3603 C3620 1.574 . S
C3603 C3622 1.368 . S
C3603 H3627 0.949 . S
H3604 C3608 0.949 . S
C3605 C3606 1.349 . S
C3605 C3607 1.327 . S
C3605 H3628 0.950 . S
C3606 C3605 1.349 . S
C3606 C3618 1.349 . S
C3607 C3605 1.327 . S
C3607 C3623 1.429 . S
C3607 H3629 0.950 . S
C3608 H3604 0.949 . S
C3608 C3616 1.574 . S
C3608 C3624 1.368 . S
H3609 C3617 0.950 . S
H3610 C3615 0.950 . S
H3611 C3616 0.949 . S
H3612 C3618 0.950 . S
H3613 C3619 0.950 . S
H3614 C3620 0.949 . S
C3615 H3610 0.950 . S
C3615 C3617 1.327 . S
C3615 C3621 1.429 . S
C3616 C3608 1.574 . S
C3616 H3611 0.949 . S
C3616 C3622 1.368 . S
C3617 C3601 1.349 . S
C3617 H3609 0.950 . S
C3617 C3615 1.327 . S
C3618 C3606 1.349 . S
C3618 H3612 0.950 . S
C3618 C3619 1.327 . S
C3619 H3613 0.950 . S
C3619 C3618 1.327 . S
C3619 C3623 1.429 . S
C3620 C3603 1.574 . S
C3620 H3614 0.949 . S
C3620 C3624 1.368 . S
C3621 C3602 1.429 . S
C3621 C3615 1.429 . S
C3621 C3622 1.523 . S
C3622 C3603 1.368 . S
C3622 C3616 1.368 . S
C3622 C3621 1.523 . S
C3623 C3607 1.429 . S
C3623 C3619 1.429 . S
C3623 C3624 1.523 . S
C3624 C3608 1.368 . S
C3624 C3620 1.368 . S
C3624 C3623 1.523 . S
H3625 C3600 0.950 . S
H3626 C3602 0.950 . S
H3627 C3603 0.949 . S
H3628 C3605 0.950 . S
H3629 C3607 0.950 . S
C3630 C3631 1.349 . S
C3630 C3632 1.327 . S
C3630 H3655 0.950 . S
C3631 C3630 1.349 . S
C3631 C3647 1.349 . S
C3632 C3630 1.327 . S
C3632 C3651 1.429 . S
C3632 H3656 0.950 . S
C3633 C3650 1.574 . S
C3633 C3652 1.368 . S
C3633 H3657 0.949 . S
H3634 C3638 0.949 . S
C3635 C3636 1.349 . S
C3635 C3637 1.327 . S
C3635 H3658 0.950 . S
C3636 C3635 1.349 . S
C3636 C3648 1.349 . S
C3637 C3635 1.327 . S
C3637 C3653 1.429 . S
C3637 H3659 0.950 . S
C3638 H3634 0.949 . S
C3638 C3646 1.574 . S
C3638 C3654 1.368 . S
H3639 C3647 0.950 . S
H3640 C3645 0.950 . S
H3641 C3646 0.949 . S
H3642 C3648 0.950 . S
H3643 C3649 0.950 . S
H3644 C3650 0.949 . S
C3645 H3640 0.950 . S
C3645 C3647 1.327 . S
C3645 C3651 1.429 . S
C3646 C3638 1.574 . S
C3646 H3641 0.949 . S
C3646 C3652 1.368 . S
C3647 C3631 1.349 . S
C3647 H3639 0.950 . S
C3647 C3645 1.327 . S
C3648 C3636 1.349 . S
C3648 H3642 0.950 . S
C3648 C3649 1.327 . S
C3649 H3643 0.950 . S
C3649 C3648 1.327 . S
C3649 C3653 1.429 . S
C3650 C3633 1.574 . S
C3650 H3644 0.949 . S
C3650 C3654 1.368 . S
C3651 C3632 1.429 . S
C3651 C3645 1.429 . S
C3651 C3652 1.523 . S
C3652 C3633 1.368 . S
C3652 C3646 1.368 . S
C3652 C3651 1.523 . S
C3653 C3637 1.429 . S
C3653 C3649 1.429 . S
C3653 C3654 1.523 . S
C3654 C3638 1.368 . S
C3654 C3650 1.368 . S
C3654 C3653 1.523 . S
H3655 C3630 0.950 . S
H3656 C3632 0.950 . S
H3657 C3633 0.949 . S
H3658 C3635 0.950 . S
H3659 C3637 0.950 . S
C3660 C3661 1.349 . S
C3660 C3662 1.327 . S
C3660 H3685 0.987 . S
C3661 C3660 1.349 . S
C3661 C3677 1.349 . S
C3662 C3660 1.327 . S
C3662 C3681 1.429 . S
C3662 H3686 0.950 . S
C3663 C3680 1.574 . S
C3663 C3682 1.368 . S
C3663 H3687 0.949 . S
H3664 C3668 0.949 . S
C3665 C3666 1.349 . S
C3665 C3667 1.327 . S
C3665 H3688 0.950 . S
C3666 C3665 1.349 . S
C3666 C3678 1.349 . S
C3667 C3665 1.327 . S
C3667 C3683 1.429 . S
C3667 H3689 0.950 . S
C3668 H3664 0.949 . S
C3668 C3676 1.574 . S
C3668 C3684 1.368 . S
H3669 C3677 0.950 . S
H3670 C3675 0.950 . S
H3671 C3676 0.949 . S
H3672 C3678 0.950 . S
H3673 C3679 0.950 . S
H3674 C3680 0.949 . S
C3675 H3670 0.950 . S
C3675 C3677 1.327 . S
C3675 C3681 1.429 . S
C3676 C3668 1.574 . S
C3676 H3671 0.949 . S
C3676 C3682 1.368 . S
C3677 C3661 1.349 . S
C3677 H3669 0.950 . S
C3677 C3675 1.327 . S
C3678 C3666 1.349 . S
C3678 H3672 0.950 . S
C3678 C3679 1.327 . S
C3679 H3673 0.950 . S
C3679 C3678 1.327 . S
C3679 C3683 1.429 . S
C3680 C3663 1.574 . S
C3680 H3674 0.949 . S
C3680 C3684 1.368 . S
C3681 C3662 1.429 . S
C3681 C3675 1.429 . S
C3681 C3682 1.523 . S
C3682 C3663 1.368 . S
C3682 C3676 1.368 . S
C3682 C3681 1.523 . S
C3683 C3667 1.429 . S
C3683 C3679 1.429 . S
C3683 C3684 1.523 . S
C3684 C3668 1.368 . S
C3684 C3680 1.368 . S
C3684 C3683 1.523 . S
H3685 C3660 0.987 . S
H3686 C3662 0.950 . S
H3687 C3663 0.949 . S
H3688 C3665 0.950 . S
H3689 C3667 0.950 . S
C3690 C3691 1.349 . S
C3690 C3692 1.327 . S
C3690 H3715 0.950 . S
C3691 C3690 1.349 . S
C3691 C3707 1.349 1_554 S
C3692 C3690 1.327 . S
C3692 C3711 1.429 . S
C3692 H3716 0.950 . S
C3693 C3710 1.574 . S
C3693 C3712 1.368 1_556 S
C3693 H3717 0.949 . S
H3694 C3698 0.949 . S
C3695 C3696 1.348 1_556 S
C3695 C3697 1.327 . S
C3695 H3718 0.951 . S
C3696 C3695 1.348 1_554 S
C3696 C3708 1.349 1_545 S
C3697 C3695 1.327 . S
C3697 C3713 1.429 1_546 S
C3697 H3719 0.950 . S
C3698 H3694 0.949 . S
C3698 C3706 1.574 . S
C3698 C3714 1.368 . S
H3699 C3707 0.950 . S
H3700 C3705 0.950 . S
H3701 C3706 0.949 . S
H3702 C3708 0.950 . S
H3703 C3709 0.950 . S
H3704 C3710 0.949 . S
C3705 H3700 0.950 . S
C3705 C3707 1.327 . S
C3705 C3711 1.429 1_556 S
C3706 C3698 1.574 . S
C3706 H3701 0.949 . S
C3706 C3712 1.368 . S
C3707 C3691 1.349 1_556 S
C3707 H3699 0.950 . S
C3707 C3705 1.327 . S
C3708 C3696 1.349 1_565 S
C3708 H3702 0.950 . S
C3708 C3709 1.327 . S
C3709 H3703 0.950 . S
C3709 C3708 1.327 . S
C3709 C3713 1.429 . S
C3710 C3693 1.574 . S
C3710 H3704 0.949 . S
C3710 C3714 1.368 1_556 S
C3711 C3692 1.429 . S
C3711 C3705 1.429 1_554 S
C3711 C3712 1.523 . S
C3712 C3693 1.368 1_554 S
C3712 C3706 1.368 . S
C3712 C3711 1.523 . S
C3713 C3697 1.429 1_564 S
C3713 C3709 1.429 . S
C3713 C3714 1.523 . S
C3714 C3698 1.368 . S
C3714 C3710 1.368 1_554 S
C3714 C3713 1.523 . S
H3715 C3690 0.950 . S
H3716 C3692 0.950 . S
H3717 C3693 0.949 . S
H3718 C3695 0.951 . S
H3719 C3697 0.950 . S
C3720 C3721 1.349 . S
C3720 C3722 1.327 . S
C3720 H3745 0.950 . S
C3721 C3720 1.349 . S
C3721 C3737 1.349 . S
C3722 C3720 1.327 . S
C3722 C3741 1.429 . S
C3722 H3746 0.950 . S
C3723 C3740 1.574 . S
C3723 C3742 1.368 . S
C3723 H3747 0.949 . S
H3724 C3728 0.949 . S
C3725 C3726 1.349 . S
C3725 C3727 1.327 . S
C3725 H3748 0.950 . S
C3726 C3725 1.349 . S
C3726 C3738 1.349 . S
C3727 C3725 1.327 . S
C3727 C3743 1.429 . S
C3727 H3749 0.950 . S
C3728 H3724 0.949 . S
C3728 C3736 1.574 . S
C3728 C3744 1.368 . S
H3729 C3737 0.950 . S
H3730 C3735 0.950 . S
H3731 C3736 0.949 . S
H3732 C3738 0.950 . S
H3733 C3739 0.950 . S
H3734 C3740 0.949 . S
C3735 H3730 0.950 . S
C3735 C3737 1.327 . S
C3735 C3741 1.429 . S
C3736 C3728 1.574 . S
C3736 H3731 0.949 . S
C3736 C3742 1.368 . S
C3737 C3721 1.349 . S
C3737 H3729 0.950 . S
C3737 C3735 1.327 . S
C3738 C3726 1.349 . S
C3738 H3732 0.950 . S
C3738 C3739 1.327 . S
C3739 H3733 0.950 . S
C3739 C3738 1.327 . S
C3739 C3743 1.429 . S
C3740 C3723 1.574 . S
C3740 H3734 0.949 . S
C3740 C3744 1.368 . S
C3741 C3722 1.429 . S
C3741 C3735 1.429 . S
C3741 C3742 1.523 . S
C3742 C3723 1.368 . S
C3742 C3736 1.368 . S
C3742 C3741 1.523 . S
C3743 C3727 1.429 . S
C3743 C3739 1.429 . S
C3743 C3744 1.523 . S
C3744 C3728 1.368 . S
C3744 C3740 1.368 . S
C3744 C3743 1.523 . S
H3745 C3720 0.950 . S
H3746 C3722 0.950 . S
H3747 C3723 0.949 . S
H3748 C3725 0.950 . S
H3749 C3727 0.950 . S
C3750 C3751 1.349 1_556 S
C3750 C3752 1.327 . S
C3750 H3775 0.950 . S
C3751 C3750 1.349 1_554 S
C3751 C3767 1.349 . S
C3752 C3750 1.327 . S
C3752 C3771 1.429 1_556 S
C3752 H3776 0.950 . S
C3753 C3770 1.574 . S
C3753 C3772 1.368 . S
C3753 H3777 0.949 . S
H3754 C3758 0.938 1_556 S
C3755 C3756 1.349 . S
C3755 C3757 1.327 . S
C3755 H3778 0.950 . S
C3756 C3755 1.349 . S
C3756 C3768 1.349 . S
C3757 C3755 1.327 . S
C3757 C3773 1.429 . S
C3757 H3779 0.950 . S
C3758 H3754 0.938 1_554 S
C3758 C3766 1.572 1_554 S
C3758 C3774 1.382 . S
H3759 C3767 0.950 . S
H3760 C3765 0.950 . S
H3761 C3766 0.949 . S
H3762 C3768 0.950 1_556 S
H3763 C3769 0.950 1_556 S
H3764 C3770 0.949 . S
C3765 H3760 0.950 . S
C3765 C3767 1.327 . S
C3765 C3771 1.429 . S
C3766 C3758 1.572 1_556 S
C3766 H3761 0.949 . S
C3766 C3772 1.368 1_556 S
C3767 C3751 1.349 . S
C3767 H3759 0.950 . S
C3767 C3765 1.327 . S
C3768 C3756 1.349 . S
C3768 H3762 0.950 1_554 S
C3768 C3769 1.327 . S
C3769 H3763 0.950 1_554 S
C3769 C3768 1.327 . S
C3769 C3773 1.429 . S
C3770 C3753 1.574 . S
C3770 H3764 0.949 . S
C3770 C3774 1.368 . S
C3771 C3752 1.429 1_554 S
C3771 C3765 1.429 . S
C3771 C3772 1.523 . S
C3772 C3753 1.368 . S
C3772 C3766 1.368 1_554 S
C3772 C3771 1.523 . S
C3773 C3757 1.429 . S
C3773 C3769 1.429 . S
C3773 C3774 1.523 . S
C3774 C3758 1.382 . S
C3774 C3770 1.368 . S
C3774 C3773 1.523 . S
H3775 C3750 0.950 . S
H3776 C3752 0.950 . S
H3777 C3753 0.949 . S
H3778 C3755 0.950 . S
H3779 C3757 0.950 . S
C3780 C3781 1.349 . S
C3780 C3782 1.327 . S
C3780 H3805 0.950 . S
C3781 C3780 1.349 . S
C3781 C3797 1.349 . S
C3782 C3780 1.327 . S
C3782 C3801 1.429 . S
C3782 H3806 0.950 . S
C3783 C3800 1.574 . S
C3783 C3802 1.368 . S
C3783 H3807 0.949 . S
H3784 C3788 0.949 . S
C3785 C3786 1.349 . S
C3785 C3787 1.327 . S
C3785 H3808 0.950 . S
C3786 C3785 1.349 . S
C3786 C3798 1.349 . S
C3787 C3785 1.327 . S
C3787 C3803 1.429 . S
C3787 H3809 0.950 . S
C3788 H3784 0.949 . S
C3788 C3796 1.574 . S
C3788 C3804 1.368 . S
H3789 C3797 0.950 . S
H3790 C3795 0.950 . S
H3791 C3796 0.949 . S
H3792 C3798 0.950 . S
H3793 C3799 0.950 . S
H3794 C3800 0.949 . S
C3795 H3790 0.950 . S
C3795 C3797 1.327 . S
C3795 C3801 1.429 . S
C3796 C3788 1.574 . S
C3796 H3791 0.949 . S
C3796 C3802 1.368 . S
C3797 C3781 1.349 . S
C3797 H3789 0.950 . S
C3797 C3795 1.327 . S
C3798 C3786 1.349 . S
C3798 H3792 0.950 . S
C3798 C3799 1.327 . S
C3799 H3793 0.950 . S
C3799 C3798 1.327 . S
C3799 C3803 1.429 . S
C3800 C3783 1.574 . S
C3800 H3794 0.949 . S
C3800 C3804 1.368 . S
C3801 C3782 1.429 . S
C3801 C3795 1.429 . S
C3801 C3802 1.523 . S
C3802 C3783 1.368 . S
C3802 C3796 1.368 . S
C3802 C3801 1.523 . S
C3803 C3787 1.429 . S
C3803 C3799 1.429 . S
C3803 C3804 1.523 . S
C3804 C3788 1.368 . S
C3804 C3800 1.368 . S
C3804 C3803 1.523 . S
H3805 C3780 0.950 . S
H3806 C3782 0.950 . S
H3807 C3783 0.949 . S
H3808 C3785 0.950 . S
H3809 C3787 0.950 . S
C3810 C3811 1.349 . S
C3810 C3812 1.327 . S
C3810 H3835 0.950 . S
C3811 C3810 1.349 . S
C3811 C3827 1.349 . S
C3812 C3810 1.327 . S
C3812 C3831 1.429 . S
C3812 H3836 0.950 . S
C3813 C3830 1.574 . S
C3813 C3832 1.368 . S
C3813 H3837 0.949 . S
H3814 C3818 0.949 . S
C3815 C3816 1.349 . S
C3815 C3817 1.327 . S
C3815 H3838 0.950 . S
C3816 C3815 1.349 . S
C3816 C3828 1.349 . S
C3817 C3815 1.327 . S
C3817 C3833 1.429 . S
C3817 H3839 0.950 . S
C3818 H3814 0.949 . S
C3818 C3826 1.574 . S
C3818 C3834 1.368 . S
H3819 C3827 0.950 . S
H3820 C3825 0.950 . S
H3821 C3826 0.949 . S
H3822 C3828 0.950 . S
H3823 C3829 0.950 . S
H3824 C3830 0.949 . S
C3825 H3820 0.950 . S
C3825 C3827 1.327 . S
C3825 C3831 1.429 . S
C3826 C3818 1.574 . S
C3826 H3821 0.949 . S
C3826 C3832 1.368 . S
C3827 C3811 1.349 . S
C3827 H3819 0.950 . S
C3827 C3825 1.327 . S
C3828 C3816 1.349 . S
C3828 H3822 0.950 . S
C3828 C3829 1.327 . S
C3829 H3823 0.950 . S
C3829 C3828 1.327 . S
C3829 C3833 1.429 . S
C3830 C3813 1.574 . S
C3830 H3824 0.949 . S
C3830 C3834 1.368 . S
C3831 C3812 1.429 . S
C3831 C3825 1.429 . S
C3831 C3832 1.523 . S
C3832 C3813 1.368 . S
C3832 C3826 1.368 . S
C3832 C3831 1.523 . S
C3833 C3817 1.429 . S
C3833 C3829 1.429 . S
C3833 C3834 1.523 . S
C3834 C3818 1.368 . S
C3834 C3830 1.368 . S
C3834 C3833 1.523 . S
H3835 C3810 0.950 . S
H3836 C3812 0.950 . S
H3837 C3813 0.949 . S
H3838 C3815 0.950 . S
H3839 C3817 0.950 . S
C3840 C3841 1.349 . S
C3840 C3842 1.327 . S
C3840 H3865 0.950 . S
C3841 C3840 1.349 . S
C3841 C3857 1.349 . S
C3842 C3840 1.327 . S
C3842 C3861 1.429 . S
C3842 H3866 0.950 . S
C3843 C3860 1.574 . S
C3843 C3862 1.368 . S
C3843 H3867 0.949 . S
H3844 C3848 0.949 . S
C3845 C3846 1.349 . S
C3845 C3847 1.327 . S
C3845 H3868 0.950 . S
C3846 C3845 1.349 . S
C3846 C3858 1.349 . S
C3847 C3845 1.327 . S
C3847 C3863 1.429 . S
C3847 H3869 0.950 . S
C3848 H3844 0.949 . S
C3848 C3856 1.574 . S
C3848 C3864 1.368 . S
H3849 C3857 0.950 . S
H3850 C3855 0.950 . S
H3851 C3856 0.949 . S
H3852 C3858 0.950 . S
H3853 C3859 0.950 . S
H3854 C3860 0.949 . S
C3855 H3850 0.950 . S
C3855 C3857 1.327 . S
C3855 C3861 1.429 . S
C3856 C3848 1.574 . S
C3856 H3851 0.949 . S
C3856 C3862 1.368 . S
C3857 C3841 1.349 . S
C3857 H3849 0.950 . S
C3857 C3855 1.327 . S
C3858 C3846 1.349 . S
C3858 H3852 0.950 . S
C3858 C3859 1.327 . S
C3859 H3853 0.950 . S
C3859 C3858 1.327 . S
C3859 C3863 1.429 . S
C3860 C3843 1.574 . S
C3860 H3854 0.949 . S
C3860 C3864 1.368 . S
C3861 C3842 1.429 . S
C3861 C3855 1.429 . S
C3861 C3862 1.523 . S
C3862 C3843 1.368 . S
C3862 C3856 1.368 . S
C3862 C3861 1.523 . S
C3863 C3847 1.429 . S
C3863 C3859 1.429 . S
C3863 C3864 1.523 . S
C3864 C3848 1.368 . S
C3864 C3860 1.368 . S
C3864 C3863 1.523 . S
H3865 C3840 0.950 . S
H3866 C3842 0.950 . S
H3867 C3843 0.949 . S
H3868 C3845 0.950 . S
H3869 C3847 0.950 . S
C3870 C3871 1.349 . S
C3870 C3872 1.327 . S
C3870 H3895 0.950 . S
C3871 C3870 1.349 . S
C3871 C3887 1.349 . S
C3872 C3870 1.327 . S
C3872 C3891 1.429 . S
C3872 H3896 0.950 . S
C3873 C3890 1.574 . S
C3873 C3892 1.368 . S
C3873 H3897 0.949 . S
H3874 C3878 0.949 . S
C3875 C3876 1.349 . S
C3875 C3877 1.327 . S
C3875 H3898 0.950 . S
C3876 C3875 1.349 . S
C3876 C3888 1.349 . S
C3877 C3875 1.327 . S
C3877 C3893 1.429 . S
C3877 H3899 0.950 . S
C3878 H3874 0.949 . S
C3878 C3886 1.574 . S
C3878 C3894 1.368 . S
H3879 C3887 0.950 . S
H3880 C3885 0.950 . S
H3881 C3886 0.949 . S
H3882 C3888 0.950 . S
H3883 C3889 0.950 . S
H3884 C3890 0.949 . S
C3885 H3880 0.950 . S
C3885 C3887 1.327 . S
C3885 C3891 1.429 . S
C3886 C3878 1.574 . S
C3886 H3881 0.949 . S
C3886 C3892 1.368 . S
C3887 C3871 1.349 . S
C3887 H3879 0.950 . S
C3887 C3885 1.327 . S
C3888 C3876 1.349 . S
C3888 H3882 0.950 . S
C3888 C3889 1.327 . S
C3889 H3883 0.950 . S
C3889 C3888 1.327 . S
C3889 C3893 1.429 . S
C3890 C3873 1.574 . S
C3890 H3884 0.949 . S
C3890 C3894 1.368 . S
C3891 C3872 1.429 . S
C3891 C3885 1.429 . S
C3891 C3892 1.523 . S
C3892 C3873 1.368 . S
C3892 C3886 1.368 . S
C3892 C3891 1.523 . S
C3893 C3877 1.429 . S
C3893 C3889 1.429 . S
C3893 C3894 1.523 . S
C3894 C3878 1.368 . S
C3894 C3890 1.368 . S
C3894 C3893 1.523 . S
H3895 C3870 0.950 . S
H3896 C3872 0.950 . S
H3897 C3873 0.949 . S
H3898 C3875 0.950 . S
H3899 C3877 0.950 . S
C3900 C3901 1.349 . S
C3900 C3902 1.327 . S
C3900 H3925 0.950 . S
C3901 C3900 1.349 . S
C3901 C3917 1.349 . S
C3902 C3900 1.327 . S
C3902 C3921 1.429 . S
C3902 H3926 0.950 . S
C3903 C3920 1.574 . S
C3903 C3922 1.368 . S
C3903 H3927 0.949 . S
H3904 C3908 0.949 . S
C3905 C3906 1.349 . S
C3905 C3907 1.327 . S
C3905 H3928 0.950 . S
C3906 C3905 1.349 . S
C3906 C3918 1.349 . S
C3907 C3905 1.327 . S
C3907 C3923 1.429 . S
C3907 H3929 0.950 . S
C3908 H3904 0.949 . S
C3908 C3916 1.574 . S
C3908 C3924 1.368 . S
H3909 C3917 0.950 . S
H3910 C3915 0.950 . S
H3911 C3916 0.949 . S
H3912 C3918 0.950 . S
H3913 C3919 0.950 . S
H3914 C3920 0.949 . S
C3915 H3910 0.950 . S
C3915 C3917 1.327 . S
C3915 C3921 1.429 . S
C3916 C3908 1.574 . S
C3916 H3911 0.949 . S
C3916 C3922 1.368 . S
C3917 C3901 1.349 . S
C3917 H3909 0.950 . S
C3917 C3915 1.327 . S
C3918 C3906 1.349 . S
C3918 H3912 0.950 . S
C3918 C3919 1.327 . S
C3919 H3913 0.950 . S
C3919 C3918 1.327 . S
C3919 C3923 1.429 . S
C3920 C3903 1.574 . S
C3920 H3914 0.949 . S
C3920 C3924 1.368 . S
C3921 C3902 1.429 . S
C3921 C3915 1.429 . S
C3921 C3922 1.523 . S
C3922 C3903 1.368 . S
C3922 C3916 1.368 . S
C3922 C3921 1.523 . S
C3923 C3907 1.429 . S
C3923 C3919 1.429 . S
C3923 C3924 1.523 . S
C3924 C3908 1.368 . S
C3924 C3920 1.368 . S
C3924 C3923 1.523 . S
H3925 C3900 0.950 . S
H3926 C3902 0.950 . S
H3927 C3903 0.949 . S
H3928 C3905 0.950 . S
H3929 C3907 0.950 . S
C3930 C3931 1.349 . S
C3930 C3932 1.327 . S
C3930 H3955 0.950 . S
C3931 C3930 1.349 . S
C3931 C3947 1.349 . S
C3932 C3930 1.327 . S
C3932 C3951 1.429 . S
C3932 H3956 0.950 . S
C3933 C3950 1.574 . S
C3933 C3952 1.368 . S
C3933 H3957 0.949 . S
H3934 C3938 0.949 . S
C3935 C3936 1.349 . S
C3935 C3937 1.327 . S
C3935 H3958 0.950 . S
C3936 C3935 1.349 . S
C3936 C3948 1.349 . S
C3937 C3935 1.327 . S
C3937 C3953 1.429 . S
C3937 H3959 0.950 . S
C3938 H3934 0.949 . S
C3938 C3946 1.574 . S
C3938 C3954 1.368 . S
H3939 C3947 0.950 . S
H3940 C3945 0.950 . S
H3941 C3946 0.949 . S
H3942 C3948 0.950 . S
H3943 C3949 0.950 . S
H3944 C3950 0.949 . S
C3945 H3940 0.950 . S
C3945 C3947 1.327 . S
C3945 C3951 1.429 . S
C3946 C3938 1.574 . S
C3946 H3941 0.949 . S
C3946 C3952 1.368 . S
C3947 C3931 1.349 . S
C3947 H3939 0.950 . S
C3947 C3945 1.327 . S
C3948 C3936 1.349 . S
C3948 H3942 0.950 . S
C3948 C3949 1.327 . S
C3949 H3943 0.950 . S
C3949 C3948 1.327 . S
C3949 C3953 1.429 . S
C3950 C3933 1.574 . S
C3950 H3944 0.949 . S
C3950 C3954 1.368 . S
C3951 C3932 1.429 . S
C3951 C3945 1.429 . S
C3951 C3952 1.523 . S
C3952 C3933 1.368 . S
C3952 C3946 1.368 . S
C3952 C3951 1.523 . S
C3953 C3937 1.429 . S
C3953 C3949 1.429 . S
C3953 C3954 1.523 . S
C3954 C3938 1.368 . S
C3954 C3950 1.368 . S
C3954 C3953 1.523 . S
H3955 C3930 0.950 . S
H3956 C3932 0.950 . S
H3957 C3933 0.949 . S
H3958 C3935 0.950 . S
H3959 C3937 0.950 . S
C3960 C3961 1.349 . S
C3960 C3962 1.327 . S
C3960 H3985 0.950 . S
C3961 C3960 1.349 . S
C3961 C3977 1.349 . S
C3962 C3960 1.327 . S
C3962 C3981 1.429 . S
C3962 H3986 0.950 . S
C3963 C3980 1.574 . S
C3963 C3982 1.368 . S
C3963 H3987 0.949 . S
H3964 C3968 0.949 . S
C3965 C3966 1.349 . S
C3965 C3967 1.327 . S
C3965 H3988 0.950 . S
C3966 C3965 1.349 . S
C3966 C3978 1.349 . S
C3967 C3965 1.327 . S
C3967 C3983 1.429 . S
C3967 H3989 0.950 . S
C3968 H3964 0.949 . S
C3968 C3976 1.574 . S
C3968 C3984 1.368 . S
H3969 C3977 0.950 . S
H3970 C3975 0.950 . S
H3971 C3976 0.949 . S
H3972 C3978 0.950 . S
H3973 C3979 0.950 . S
H3974 C3980 0.949 . S
C3975 H3970 0.950 . S
C3975 C3977 1.327 . S
C3975 C3981 1.429 . S
C3976 C3968 1.574 . S
C3976 H3971 0.949 . S
C3976 C3982 1.368 . S
C3977 C3961 1.349 . S
C3977 H3969 0.950 . S
C3977 C3975 1.327 . S
C3978 C3966 1.349 . S
C3978 H3972 0.950 . S
C3978 C3979 1.327 . S
C3979 H3973 0.950 . S
C3979 C3978 1.327 . S
C3979 C3983 1.429 . S
C3980 C3963 1.574 . S
C3980 H3974 0.949 . S
C3980 C3984 1.368 . S
C3981 C3962 1.429 . S
C3981 C3975 1.429 . S
C3981 C3982 1.523 . S
C3982 C3963 1.368 . S
C3982 C3976 1.368 . S
C3982 C3981 1.523 . S
C3983 C3967 1.429 . S
C3983 C3979 1.429 . S
C3983 C3984 1.523 . S
C3984 C3968 1.368 . S
C3984 C3980 1.368 . S
C3984 C3983 1.523 . S
H3985 C3960 0.950 . S
H3986 C3962 0.950 . S
H3987 C3963 0.949 . S
H3988 C3965 0.950 . S
H3989 C3967 0.950 . S
C3990 C3991 1.349 . S
C3990 C3992 1.327 . S
C3990 H4015 0.950 . S
C3991 C3990 1.349 . S
C3991 C4007 1.349 . S
C3992 C3990 1.327 . S
C3992 C4011 1.429 . S
C3992 H4016 0.950 . S
C3993 C4010 1.574 . S
C3993 C4012 1.368 . S
C3993 H4017 0.949 . S
H3994 C3998 0.949 . S
C3995 C3996 1.349 . S
C3995 C3997 1.327 . S
C3995 H4018 0.950 . S
C3996 C3995 1.349 . S
C3996 C4008 1.349 . S
C3997 C3995 1.327 . S
C3997 C4013 1.429 . S
C3997 H4019 0.950 . S
C3998 H3994 0.949 . S
C3998 C4006 1.574 . S
C3998 C4014 1.368 . S
H3999 C4007 0.950 . S
H4000 C4005 0.950 . S
H4001 C4006 0.949 . S
H4002 C4008 0.950 . S
H4003 C4009 0.950 . S
H4004 C4010 0.949 . S
C4005 H4000 0.950 . S
C4005 C4007 1.327 . S
C4005 C4011 1.429 . S
C4006 C3998 1.574 . S
C4006 H4001 0.949 . S
C4006 C4012 1.368 . S
C4007 C3991 1.349 . S
C4007 H3999 0.950 . S
C4007 C4005 1.327 . S
C4008 C3996 1.349 . S
C4008 H4002 0.950 . S
C4008 C4009 1.327 . S
C4009 H4003 0.950 . S
C4009 C4008 1.327 . S
C4009 C4013 1.429 . S
C4010 C3993 1.574 . S
C4010 H4004 0.949 . S
C4010 C4014 1.368 . S
C4011 C3992 1.429 . S
C4011 C4005 1.429 . S
C4011 C4012 1.523 . S
C4012 C3993 1.368 . S
C4012 C4006 1.368 . S
C4012 C4011 1.523 . S
C4013 C3997 1.429 . S
C4013 C4009 1.429 . S
C4013 C4014 1.523 . S
C4014 C3998 1.368 . S
C4014 C4010 1.368 . S
C4014 C4013 1.523 . S
H4015 C3990 0.950 . S
H4016 C3992 0.950 . S
H4017 C3993 0.949 . S
H4018 C3995 0.950 . S
H4019 C3997 0.950 . S
C4020 C4021 1.349 . S
C4020 C4022 1.327 . S
C4020 H4045 0.950 . S
C4021 C4020 1.349 . S
C4021 C4037 1.349 . S
C4022 C4020 1.327 . S
C4022 C4041 1.429 . S
C4022 H4046 0.950 . S
C4023 C4040 1.574 . S
C4023 C4042 1.368 . S
C4023 H4047 0.949 . S
H4024 C4028 0.949 . S
C4025 C4026 1.349 . S
C4025 C4027 1.327 . S
C4025 H4048 0.950 . S
C4026 C4025 1.349 . S
C4026 C4038 1.349 . S
C4027 C4025 1.327 . S
C4027 C4043 1.429 . S
C4027 H4049 0.950 . S
C4028 H4024 0.949 . S
C4028 C4036 1.574 . S
C4028 C4044 1.368 . S
H4029 C4037 0.950 . S
H4030 C4035 0.950 . S
H4031 C4036 0.949 . S
H4032 C4038 0.950 . S
H4033 C4039 0.950 . S
H4034 C4040 0.949 . S
C4035 H4030 0.950 . S
C4035 C4037 1.327 . S
C4035 C4041 1.429 . S
C4036 C4028 1.574 . S
C4036 H4031 0.949 . S
C4036 C4042 1.368 . S
C4037 C4021 1.349 . S
C4037 H4029 0.950 . S
C4037 C4035 1.327 . S
C4038 C4026 1.349 . S
C4038 H4032 0.950 . S
C4038 C4039 1.327 . S
C4039 H4033 0.950 . S
C4039 C4038 1.327 . S
C4039 C4043 1.429 . S
C4040 C4023 1.574 . S
C4040 H4034 0.949 . S
C4040 C4044 1.368 . S
C4041 C4022 1.429 . S
C4041 C4035 1.429 . S
C4041 C4042 1.523 . S
C4042 C4023 1.368 . S
C4042 C4036 1.368 . S
C4042 C4041 1.523 . S
C4043 C4027 1.429 . S
C4043 C4039 1.429 . S
C4043 C4044 1.523 . S
C4044 C4028 1.368 . S
C4044 C4040 1.368 . S
C4044 C4043 1.523 . S
H4045 C4020 0.950 . S
H4046 C4022 0.950 . S
H4047 C4023 0.949 . S
H4048 C4025 0.950 . S
H4049 C4027 0.950 . S
C4050 C4051 1.349 . S
C4050 C4052 1.327 . S
C4050 H4075 0.950 . S
C4051 C4050 1.349 . S
C4051 C4067 1.349 . S
C4052 C4050 1.327 . S
C4052 C4071 1.429 . S
C4052 H4076 0.950 . S
C4053 C4070 1.574 . S
C4053 C4072 1.368 . S
C4053 H4077 0.949 . S
H4054 C4058 0.949 . S
C4055 C4056 1.349 . S
C4055 C4057 1.327 . S
C4055 H4078 0.950 . S
C4056 C4055 1.349 . S
C4056 C4068 1.349 . S
C4057 C4055 1.327 . S
C4057 C4073 1.429 . S
C4057 H4079 0.950 . S
C4058 H4054 0.949 . S
C4058 C4066 1.574 . S
C4058 C4074 1.368 . S
H4059 C4067 0.950 . S
H4060 C4065 0.950 . S
H4061 C4066 0.949 . S
H4062 C4068 0.950 . S
H4063 C4069 0.950 . S
H4064 C4070 0.949 . S
C4065 H4060 0.950 . S
C4065 C4067 1.327 . S
C4065 C4071 1.429 . S
C4066 C4058 1.574 . S
C4066 H4061 0.949 . S
C4066 C4072 1.368 . S
C4067 C4051 1.349 . S
C4067 H4059 0.950 . S
C4067 C4065 1.327 . S
C4068 C4056 1.349 . S
C4068 H4062 0.950 . S
C4068 C4069 1.327 . S
C4069 H4063 0.950 . S
C4069 C4068 1.327 . S
C4069 C4073 1.429 . S
C4070 C4053 1.574 . S
C4070 H4064 0.949 . S
C4070 C4074 1.368 . S
C4071 C4052 1.429 . S
C4071 C4065 1.429 . S
C4071 C4072 1.523 . S
C4072 C4053 1.368 . S
C4072 C4066 1.368 . S
C4072 C4071 1.523 . S
C4073 C4057 1.429 . S
C4073 C4069 1.429 . S
C4073 C4074 1.523 . S
C4074 C4058 1.368 . S
C4074 C4070 1.368 . S
C4074 C4073 1.523 . S
H4075 C4050 0.950 . S
H4076 C4052 0.950 . S
H4077 C4053 0.949 . S
H4078 C4055 0.950 . S
H4079 C4057 0.950 . S
C4080 C4081 1.349 . S
C4080 C4082 1.327 . S
C4080 H4105 0.950 . S
C4081 C4080 1.349 . S
C4081 C4097 1.349 . S
C4082 C4080 1.327 . S
C4082 C4101 1.429 . S
C4082 H4106 0.950 . S
C4083 C4100 1.574 . S
C4083 C4102 1.368 . S
C4083 H4107 0.949 . S
H4084 C4088 0.949 . S
C4085 C4086 1.349 . S
C4085 C4087 1.327 . S
C4085 H4108 0.950 . S
C4086 C4085 1.349 . S
C4086 C4098 1.349 . S
C4087 C4085 1.327 . S
C4087 C4103 1.429 . S
C4087 H4109 0.950 . S
C4088 H4084 0.949 . S
C4088 C4096 1.574 . S
C4088 C4104 1.368 . S
H4089 C4097 0.950 . S
H4090 C4095 0.950 . S
H4091 C4096 0.949 . S
H4092 C4098 0.950 . S
H4093 C4099 0.950 . S
H4094 C4100 0.949 . S
C4095 H4090 0.950 . S
C4095 C4097 1.327 . S
C4095 C4101 1.429 . S
C4096 C4088 1.574 . S
C4096 H4091 0.949 . S
C4096 C4102 1.368 . S
C4097 C4081 1.349 . S
C4097 H4089 0.950 . S
C4097 C4095 1.327 . S
C4098 C4086 1.349 . S
C4098 H4092 0.950 . S
C4098 C4099 1.327 . S
C4099 H4093 0.950 . S
C4099 C4098 1.327 . S
C4099 C4103 1.429 . S
C4100 C4083 1.574 . S
C4100 H4094 0.949 . S
C4100 C4104 1.368 . S
C4101 C4082 1.429 . S
C4101 C4095 1.429 . S
C4101 C4102 1.523 . S
C4102 C4083 1.368 . S
C4102 C4096 1.368 . S
C4102 C4101 1.523 . S
C4103 C4087 1.429 . S
C4103 C4099 1.429 . S
C4103 C4104 1.523 . S
C4104 C4088 1.368 . S
C4104 C4100 1.368 . S
C4104 C4103 1.523 . S
H4105 C4080 0.950 . S
H4106 C4082 0.950 . S
H4107 C4083 0.949 . S
H4108 C4085 0.950 . S
H4109 C4087 0.950 . S
C4110 C4111 1.349 . S
C4110 C4112 1.327 . S
C4110 H4135 0.950 . S
C4111 C4110 1.349 . S
C4111 C4127 1.349 . S
C4112 C4110 1.327 . S
C4112 C4131 1.429 . S
C4112 H4136 0.950 . S
C4113 C4130 1.574 . S
C4113 C4132 1.368 . S
C4113 H4137 0.949 . S
H4114 C4118 0.949 . S
C4115 C4116 1.349 . S
C4115 C4117 1.327 . S
C4115 H4138 0.950 . S
C4116 C4115 1.349 . S
C4116 C4128 1.349 . S
C4117 C4115 1.327 . S
C4117 C4133 1.429 . S
C4117 H4139 0.950 . S
C4118 H4114 0.949 . S
C4118 C4126 1.574 . S
C4118 C4134 1.368 . S
H4119 C4127 0.950 . S
H4120 C4125 0.950 . S
H4121 C4126 0.949 . S
H4122 C4128 0.950 . S
H4123 C4129 0.950 . S
H4124 C4130 0.949 . S
C4125 H4120 0.950 . S
C4125 C4127 1.327 . S
C4125 C4131 1.429 . S
C4126 C4118 1.574 . S
C4126 H4121 0.949 . S
C4126 C4132 1.368 . S
C4127 C4111 1.349 . S
C4127 H4119 0.950 . S
C4127 C4125 1.327 . S
C4128 C4116 1.349 . S
C4128 H4122 0.950 . S
C4128 C4129 1.327 . S
C4129 H4123 0.950 . S
C4129 C4128 1.327 . S
C4129 C4133 1.429 . S
C4130 C4113 1.574 . S
C4130 H4124 0.949 . S
C4130 C4134 1.368 . S
C4131 C4112 1.429 . S
C4131 C4125 1.429 . S
C4131 C4132 1.523 . S
C4132 C4113 1.368 . S
C4132 C4126 1.368 . S
C4132 C4131 1.523 . S
C4133 C4117 1.429 . S
C4133 C4129 1.429 . S
C4133 C4134 1.523 . S
C4134 C4118 1.368 . S
C4134 C4130 1.368 . S
C4134 C4133 1.523 . S
H4135 C4110 0.950 . S
H4136 C4112 0.950 . S
H4137 C4113 0.949 . S
H4138 C4115 0.950 . S
H4139 C4117 0.950 . S
C4140 C4141 1.349 . S
C4140 C4142 1.327 . S
C4140 H4165 0.950 . S
C4141 C4140 1.349 . S
C4141 C4157 1.349 . S
C4142 C4140 1.327 . S
C4142 C4161 1.429 . S
C4142 H4166 0.950 . S
C4143 C4160 1.574 . S
C4143 C4162 1.368 . S
C4143 H4167 0.949 . S
H4144 C4148 0.949 . S
C4145 C4146 1.349 . S
C4145 C4147 1.327 . S
C4145 H4168 0.950 . S
C4146 C4145 1.349 . S
C4146 C4158 1.349 . S
C4147 C4145 1.327 . S
C4147 C4163 1.429 . S
C4147 H4169 0.950 . S
C4148 H4144 0.949 . S
C4148 C4156 1.574 . S
C4148 C4164 1.368 . S
H4149 C4157 0.950 . S
H4150 C4155 0.950 . S
H4151 C4156 0.949 . S
H4152 C4158 0.950 1_455 S
H4153 C4159 0.950 . S
H4154 C4160 0.949 . S
C4155 H4150 0.950 . S
C4155 C4157 1.327 . S
C4155 C4161 1.429 . S
C4156 C4148 1.574 . S
C4156 H4151 0.949 . S
C4156 C4162 1.368 . S
C4157 C4141 1.349 . S
C4157 H4149 0.950 . S
C4157 C4155 1.327 . S
C4158 C4146 1.349 . S
C4158 H4152 0.950 1_655 S
C4158 C4159 1.327 . S
C4159 H4153 0.950 . S
C4159 C4158 1.327 . S
C4159 C4163 1.429 . S
C4160 C4143 1.574 . S
C4160 H4154 0.949 . S
C4160 C4164 1.368 . S
C4161 C4142 1.429 . S
C4161 C4155 1.429 . S
C4161 C4162 1.523 . S
C4162 C4143 1.368 . S
C4162 C4156 1.368 . S
C4162 C4161 1.523 . S
C4163 C4147 1.429 . S
C4163 C4159 1.429 . S
C4163 C4164 1.523 . S
C4164 C4148 1.368 . S
C4164 C4160 1.368 . S
C4164 C4163 1.523 . S
H4165 C4140 0.950 . S
H4166 C4142 0.950 . S
H4167 C4143 0.949 . S
H4168 C4145 0.950 . S
H4169 C4147 0.950 . S
C4170 C4171 1.349 . S
C4170 C4172 1.327 . S
C4170 H4195 0.950 . S
C4171 C4170 1.349 . S
C4171 C4187 1.349 . S
C4172 C4170 1.327 . S
C4172 C4191 1.429 . S
C4172 H4196 0.950 . S
C4173 C4190 1.574 . S
C4173 C4192 1.368 . S
C4173 H4197 0.949 . S
H4174 C4178 0.949 . S
C4175 C4176 1.349 . S
C4175 C4177 1.327 . S
C4175 H4198 0.950 . S
C4176 C4175 1.349 . S
C4176 C4188 1.349 . S
C4177 C4175 1.327 . S
C4177 C4193 1.429 . S
C4177 H4199 0.950 . S
C4178 H4174 0.949 . S
C4178 C4186 1.574 . S
C4178 C4194 1.368 . S
H4179 C4187 0.950 . S
H4180 C4185 0.950 . S
H4181 C4186 0.949 . S
H4182 C4188 0.950 . S
H4183 C4189 0.950 . S
H4184 C4190 0.949 . S
C4185 H4180 0.950 . S
C4185 C4187 1.327 . S
C4185 C4191 1.429 . S
C4186 C4178 1.574 . S
C4186 H4181 0.949 . S
C4186 C4192 1.368 . S
C4187 C4171 1.349 . S
C4187 H4179 0.950 . S
C4187 C4185 1.327 . S
C4188 C4176 1.349 . S
C4188 H4182 0.950 . S
C4188 C4189 1.327 . S
C4189 H4183 0.950 . S
C4189 C4188 1.327 . S
C4189 C4193 1.429 . S
C4190 C4173 1.574 . S
C4190 H4184 0.949 . S
C4190 C4194 1.368 . S
C4191 C4172 1.429 . S
C4191 C4185 1.429 . S
C4191 C4192 1.523 . S
C4192 C4173 1.368 . S
C4192 C4186 1.368 . S
C4192 C4191 1.523 . S
C4193 C4177 1.429 . S
C4193 C4189 1.429 . S
C4193 C4194 1.523 . S
C4194 C4178 1.368 . S
C4194 C4190 1.368 . S
C4194 C4193 1.523 . S
H4195 C4170 0.950 . S
H4196 C4172 0.950 . S
H4197 C4173 0.949 . S
H4198 C4175 0.950 . S
H4199 C4177 0.950 . S
C4200 C4201 1.349 . S
C4200 C4202 1.327 . S
C4200 H4225 0.950 . S
C4201 C4200 1.349 . S
C4201 C4217 1.349 . S
C4202 C4200 1.327 . S
C4202 C4221 1.429 . S
C4202 H4226 0.950 . S
C4203 C4220 1.574 . S
C4203 C4222 1.368 . S
C4203 H4227 0.949 . S
H4204 C4208 0.949 . S
C4205 C4206 1.349 . S
C4205 C4207 1.327 . S
C4205 H4228 0.950 . S
C4206 C4205 1.349 . S
C4206 C4218 1.349 . S
C4207 C4205 1.327 . S
C4207 C4223 1.429 . S
C4207 H4229 0.950 . S
C4208 H4204 0.949 . S
C4208 C4216 1.574 . S
C4208 C4224 1.368 . S
H4209 C4217 0.950 . S
H4210 C4215 0.950 . S
H4211 C4216 0.949 . S
H4212 C4218 0.950 . S
H4213 C4219 0.950 . S
H4214 C4220 0.949 . S
C4215 H4210 0.950 . S
C4215 C4217 1.327 . S
C4215 C4221 1.429 . S
C4216 C4208 1.574 . S
C4216 H4211 0.949 . S
C4216 C4222 1.368 . S
C4217 C4201 1.349 . S
C4217 H4209 0.950 . S
C4217 C4215 1.327 . S
C4218 C4206 1.349 . S
C4218 H4212 0.950 . S
C4218 C4219 1.327 . S
C4219 H4213 0.950 . S
C4219 C4218 1.327 . S
C4219 C4223 1.429 . S
C4220 C4203 1.574 . S
C4220 H4214 0.949 . S
C4220 C4224 1.368 . S
C4221 C4202 1.429 . S
C4221 C4215 1.429 . S
C4221 C4222 1.523 . S
C4222 C4203 1.368 . S
C4222 C4216 1.368 . S
C4222 C4221 1.523 . S
C4223 C4207 1.429 . S
C4223 C4219 1.429 . S
C4223 C4224 1.523 . S
C4224 C4208 1.368 . S
C4224 C4220 1.368 . S
C4224 C4223 1.523 . S
H4225 C4200 0.950 . S
H4226 C4202 0.950 . S
H4227 C4203 0.949 . S
H4228 C4205 0.950 . S
H4229 C4207 0.950 . S
C4230 C4231 1.349 . S
C4230 C4232 1.327 . S
C4230 H4255 0.950 . S
C4231 C4230 1.349 . S
C4231 C4247 1.349 . S
C4232 C4230 1.327 . S
C4232 C4251 1.429 . S
C4232 H4256 0.950 . S
C4233 C4250 1.574 . S
C4233 C4252 1.368 . S
C4233 H4257 0.949 . S
H4234 C4238 0.949 . S
C4235 C4236 1.349 . S
C4235 C4237 1.327 . S
C4235 H4258 0.950 . S
C4236 C4235 1.349 . S
C4236 C4248 1.349 . S
C4237 C4235 1.327 . S
C4237 C4253 1.429 . S
C4237 H4259 0.950 . S
C4238 H4234 0.949 . S
C4238 C4246 1.574 . S
C4238 C4254 1.368 . S
H4239 C4247 0.950 . S
H4240 C4245 0.950 . S
H4241 C4246 0.949 . S
H4242 C4248 0.950 . S
H4243 C4249 0.950 . S
H4244 C4250 0.949 . S
C4245 H4240 0.950 . S
C4245 C4247 1.327 . S
C4245 C4251 1.429 . S
C4246 C4238 1.574 . S
C4246 H4241 0.949 . S
C4246 C4252 1.368 . S
C4247 C4231 1.349 . S
C4247 H4239 0.950 . S
C4247 C4245 1.327 . S
C4248 C4236 1.349 . S
C4248 H4242 0.950 . S
C4248 C4249 1.327 . S
C4249 H4243 0.950 . S
C4249 C4248 1.327 . S
C4249 C4253 1.429 . S
C4250 C4233 1.574 . S
C4250 H4244 0.949 . S
C4250 C4254 1.368 . S
C4251 C4232 1.429 . S
C4251 C4245 1.429 . S
C4251 C4252 1.523 . S
C4252 C4233 1.368 . S
C4252 C4246 1.368 . S
C4252 C4251 1.523 . S
C4253 C4237 1.429 . S
C4253 C4249 1.429 . S
C4253 C4254 1.523 . S
C4254 C4238 1.368 . S
C4254 C4250 1.368 . S
C4254 C4253 1.523 . S
H4255 C4230 0.950 . S
H4256 C4232 0.950 . S
H4257 C4233 0.949 . S
H4258 C4235 0.950 . S
H4259 C4237 0.950 . S
C4260 C4261 1.349 . S
C4260 C4262 1.327 . S
C4260 H4285 0.950 . S
C4261 C4260 1.349 . S
C4261 C4277 1.349 . S
C4262 C4260 1.327 . S
C4262 C4281 1.429 . S
C4262 H4286 0.950 . S
C4263 C4280 1.574 . S
C4263 C4282 1.368 . S
C4263 H4287 0.949 . S
H4264 C4268 0.949 . S
C4265 C4266 1.349 . S
C4265 C4267 1.327 . S
C4265 H4288 0.950 . S
C4266 C4265 1.349 . S
C4266 C4278 1.349 . S
C4267 C4265 1.327 . S
C4267 C4283 1.429 . S
C4267 H4289 0.950 . S
C4268 H4264 0.949 . S
C4268 C4276 1.574 . S
C4268 C4284 1.368 . S
H4269 C4277 0.950 . S
H4270 C4275 0.950 . S
H4271 C4276 0.949 . S
H4272 C4278 0.950 . S
H4273 C4279 0.950 . S
H4274 C4280 0.949 . S
C4275 H4270 0.950 . S
C4275 C4277 1.327 . S
C4275 C4281 1.429 . S
C4276 C4268 1.574 . S
C4276 H4271 0.949 . S
C4276 C4282 1.368 . S
C4277 C4261 1.349 . S
C4277 H4269 0.950 . S
C4277 C4275 1.327 . S
C4278 C4266 1.349 . S
C4278 H4272 0.950 . S
C4278 C4279 1.327 . S
C4279 H4273 0.950 . S
C4279 C4278 1.327 . S
C4279 C4283 1.429 . S
C4280 C4263 1.574 . S
C4280 H4274 0.949 . S
C4280 C4284 1.368 . S
C4281 C4262 1.429 . S
C4281 C4275 1.429 . S
C4281 C4282 1.523 . S
C4282 C4263 1.368 . S
C4282 C4276 1.368 . S
C4282 C4281 1.523 . S
C4283 C4267 1.429 . S
C4283 C4279 1.429 . S
C4283 C4284 1.523 . S
C4284 C4268 1.368 . S
C4284 C4280 1.368 . S
C4284 C4283 1.523 . S
H4285 C4260 0.950 . S
H4286 C4262 0.950 . S
H4287 C4263 0.949 . S
H4288 C4265 0.950 . S
H4289 C4267 0.950 . S
C4290 C4291 1.349 . S
C4290 C4292 1.327 . S
C4290 H4315 0.950 . S
C4291 C4290 1.349 . S
C4291 C4307 1.349 . S
C4292 C4290 1.327 . S
C4292 C4311 1.429 . S
C4292 H4316 0.950 . S
C4293 C4310 1.574 . S
C4293 C4312 1.368 . S
C4293 H4317 0.949 . S
H4294 C4298 0.949 . S
C4295 C4296 1.349 . S
C4295 C4297 1.327 . S
C4295 H4318 0.950 . S
C4296 C4295 1.349 . S
C4296 C4308 1.349 . S
C4297 C4295 1.327 . S
C4297 C4313 1.429 . S
C4297 H4319 0.950 . S
C4298 H4294 0.949 . S
C4298 C4306 1.574 . S
C4298 C4314 1.368 . S
H4299 C4307 0.950 . S
H4300 C4305 0.950 . S
H4301 C4306 0.949 . S
H4302 C4308 0.950 . S
H4303 C4309 0.950 . S
H4304 C4310 0.949 . S
C4305 H4300 0.950 . S
C4305 C4307 1.327 . S
C4305 C4311 1.429 . S
C4306 C4298 1.574 . S
C4306 H4301 0.949 . S
C4306 C4312 1.368 . S
C4307 C4291 1.349 . S
C4307 H4299 0.950 . S
C4307 C4305 1.327 . S
C4308 C4296 1.349 . S
C4308 H4302 0.950 . S
C4308 C4309 1.327 . S
C4309 H4303 0.950 . S
C4309 C4308 1.327 . S
C4309 C4313 1.429 . S
C4310 C4293 1.574 . S
C4310 H4304 0.949 . S
C4310 C4314 1.368 . S
C4311 C4292 1.429 . S
C4311 C4305 1.429 . S
C4311 C4312 1.523 . S
C4312 C4293 1.368 . S
C4312 C4306 1.368 . S
C4312 C4311 1.523 . S
C4313 C4297 1.429 . S
C4313 C4309 1.429 . S
C4313 C4314 1.523 . S
C4314 C4298 1.368 . S
C4314 C4310 1.368 . S
C4314 C4313 1.523 . S
H4315 C4290 0.950 . S
H4316 C4292 0.950 . S
H4317 C4293 0.949 . S
H4318 C4295 0.950 . S
H4319 C4297 0.950 . S
C4320 C4321 1.349 . S
C4320 C4322 1.327 . S
C4320 H4345 0.950 . S
C4321 C4320 1.349 . S
C4321 C4337 1.349 . S
C4322 C4320 1.327 . S
C4322 C4341 1.429 . S
C4322 H4346 0.950 . S
C4323 C4340 1.574 . S
C4323 C4342 1.368 . S
C4323 H4347 0.949 . S
H4324 C4328 0.949 . S
C4325 C4326 1.349 . S
C4325 C4327 1.327 . S
C4325 H4348 0.950 . S
C4326 C4325 1.349 . S
C4326 C4338 1.349 . S
C4327 C4325 1.327 . S
C4327 C4343 1.429 . S
C4327 H4349 0.950 . S
C4328 H4324 0.949 . S
C4328 C4336 1.574 . S
C4328 C4344 1.368 . S
H4329 C4337 0.950 . S
H4330 C4335 0.950 . S
H4331 C4336 0.949 . S
H4332 C4338 0.950 . S
H4333 C4339 0.950 . S
H4334 C4340 0.949 . S
C4335 H4330 0.950 . S
C4335 C4337 1.327 . S
C4335 C4341 1.429 . S
C4336 C4328 1.574 . S
C4336 H4331 0.949 . S
C4336 C4342 1.368 . S
C4337 C4321 1.349 . S
C4337 H4329 0.950 . S
C4337 C4335 1.327 . S
C4338 C4326 1.349 . S
C4338 H4332 0.950 . S
C4338 C4339 1.327 . S
C4339 H4333 0.950 . S
C4339 C4338 1.327 . S
C4339 C4343 1.429 . S
C4340 C4323 1.574 . S
C4340 H4334 0.949 . S
C4340 C4344 1.368 . S
C4341 C4322 1.429 . S
C4341 C4335 1.429 . S
C4341 C4342 1.523 . S
C4342 C4323 1.368 . S
C4342 C4336 1.368 . S
C4342 C4341 1.523 . S
C4343 C4327 1.429 . S
C4343 C4339 1.429 . S
C4343 C4344 1.523 . S
C4344 C4328 1.368 . S
C4344 C4340 1.368 . S
C4344 C4343 1.523 . S
H4345 C4320 0.950 . S
H4346 C4322 0.950 . S
H4347 C4323 0.949 . S
H4348 C4325 0.950 . S
H4349 C4327 0.950 . S
C4350 C4351 1.349 . S
C4350 C4352 1.327 . S
C4350 H4375 0.950 . S
C4351 C4350 1.349 . S
C4351 C4367 1.349 . S
C4352 C4350 1.327 . S
C4352 C4371 1.429 . S
C4352 H4376 0.950 . S
C4353 C4370 1.574 . S
C4353 C4372 1.368 . S
C4353 H4377 0.949 . S
H4354 C4358 0.949 . S
C4355 C4356 1.349 1_545 S
C4355 C4357 1.327 1_545 S
C4355 H4378 0.950 . S
C4356 C4355 1.349 1_565 S
C4356 C4368 1.349 . S
C4357 C4355 1.327 1_565 S
C4357 C4373 1.429 . S
C4357 H4379 0.918 1_565 S
C4358 H4354 0.949 . S
C4358 C4366 1.574 . S
C4358 C4374 1.368 . S
H4359 C4367 0.950 . S
H4360 C4365 0.950 . S
H4361 C4366 0.949 . S
H4362 C4368 0.950 . S
H4363 C4369 0.950 . S
H4364 C4370 0.949 . S
C4365 H4360 0.950 . S
C4365 C4367 1.327 . S
C4365 C4371 1.429 . S
C4366 C4358 1.574 . S
C4366 H4361 0.949 . S
C4366 C4372 1.368 . S
C4367 C4351 1.349 . S
C4367 H4359 0.950 . S
C4367 C4365 1.327 . S
C4368 C4356 1.349 . S
C4368 H4362 0.950 . S
C4368 C4369 1.327 . S
C4369 H4363 0.950 . S
C4369 C4368 1.327 . S
C4369 C4373 1.429 . S
C4370 C4353 1.574 . S
C4370 H4364 0.949 . S
C4370 C4374 1.368 . S
C4371 C4352 1.429 . S
C4371 C4365 1.429 . S
C4371 C4372 1.523 . S
C4372 C4353 1.368 . S
C4372 C4366 1.368 . S
C4372 C4371 1.523 . S
C4373 C4357 1.429 . S
C4373 C4369 1.429 . S
C4373 C4374 1.523 . S
C4374 C4358 1.368 . S
C4374 C4370 1.368 . S
C4374 C4373 1.523 . S
H4375 C4350 0.950 . S
H4376 C4352 0.950 . S
H4377 C4353 0.949 . S
H4378 C4355 0.950 . S
H4379 C4357 0.918 1_545 S
C4380 C4381 1.349 . S
C4380 C4382 1.327 . S
C4380 H4405 0.950 . S
C4381 C4380 1.349 . S
C4381 C4397 1.349 . S
C4382 C4380 1.327 . S
C4382 C4401 1.429 . S
C4382 H4406 0.950 . S
C4383 C4400 1.574 . S
C4383 C4402 1.368 . S
C4383 H4407 0.949 . S
H4384 C4388 0.949 . S
C4385 C4386 1.349 . S
C4385 C4387 1.327 . S
C4385 H4408 0.950 . S
C4386 C4385 1.349 . S
C4386 C4398 1.349 . S
C4387 C4385 1.327 . S
C4387 C4403 1.429 . S
C4387 H4409 0.950 . S
C4388 H4384 0.949 . S
C4388 C4396 1.574 . S
C4388 C4404 1.368 . S
H4389 C4397 0.950 . S
H4390 C4395 0.950 . S
H4391 C4396 0.949 . S
H4392 C4398 0.950 . S
H4393 C4399 0.950 . S
H4394 C4400 0.949 . S
C4395 H4390 0.950 . S
C4395 C4397 1.327 . S
C4395 C4401 1.429 . S
C4396 C4388 1.574 . S
C4396 H4391 0.949 . S
C4396 C4402 1.368 . S
C4397 C4381 1.349 . S
C4397 H4389 0.950 . S
C4397 C4395 1.327 . S
C4398 C4386 1.349 . S
C4398 H4392 0.950 . S
C4398 C4399 1.327 . S
C4399 H4393 0.950 . S
C4399 C4398 1.327 . S
C4399 C4403 1.429 . S
C4400 C4383 1.574 . S
C4400 H4394 0.949 . S
C4400 C4404 1.368 . S
C4401 C4382 1.429 . S
C4401 C4395 1.429 . S
C4401 C4402 1.523 . S
C4402 C4383 1.368 . S
C4402 C4396 1.368 . S
C4402 C4401 1.523 . S
C4403 C4387 1.429 . S
C4403 C4399 1.429 . S
C4403 C4404 1.523 . S
C4404 C4388 1.368 . S
C4404 C4400 1.368 . S
C4404 C4403 1.523 . S
H4405 C4380 0.950 . S
H4406 C4382 0.950 . S
H4407 C4383 0.949 . S
H4408 C4385 0.950 . S
H4409 C4387 0.950 . S
C4410 C4411 1.349 . S
C4410 C4412 1.327 . S
C4410 H4435 0.950 . S
C4411 C4410 1.349 . S
C4411 C4427 1.349 . S
C4412 C4410 1.327 . S
C4412 C4431 1.429 . S
C4412 H4436 0.950 . S
C4413 C4430 1.574 . S
C4413 C4432 1.368 . S
C4413 H4437 0.949 . S
H4414 C4418 0.949 . S
C4415 C4416 1.349 . S
C4415 C4417 1.327 . S
C4415 H4438 0.950 . S
C4416 C4415 1.349 . S
C4416 C4428 1.349 . S
C4417 C4415 1.327 . S
C4417 C4433 1.429 . S
C4417 H4439 0.950 . S
C4418 H4414 0.949 . S
C4418 C4426 1.574 . S
C4418 C4434 1.368 . S
H4419 C4427 0.950 . S
H4420 C4425 0.950 . S
H4421 C4426 0.949 . S
H4422 C4428 0.950 1_556 S
H4423 C4429 0.936 1_556 S
H4424 C4430 0.949 . S
C4425 H4420 0.950 . S
C4425 C4427 1.327 . S
C4425 C4431 1.429 . S
C4426 C4418 1.574 . S
C4426 H4421 0.949 . S
C4426 C4432 1.368 . S
C4427 C4411 1.349 . S
C4427 H4419 0.950 . S
C4427 C4425 1.327 . S
C4428 C4416 1.349 . S
C4428 H4422 0.950 1_554 S
C4428 C4429 1.327 . S
C4429 H4423 0.936 1_554 S
C4429 C4428 1.327 . S
C4429 C4433 1.429 . S
C4430 C4413 1.574 . S
C4430 H4424 0.949 . S
C4430 C4434 1.368 . S
C4431 C4412 1.429 . S
C4431 C4425 1.429 . S
C4431 C4432 1.523 . S
C4432 C4413 1.368 . S
C4432 C4426 1.368 . S
C4432 C4431 1.523 . S
C4433 C4417 1.429 . S
C4433 C4429 1.429 . S
C4433 C4434 1.523 . S
C4434 C4418 1.368 . S
C4434 C4430 1.368 . S
C4434 C4433 1.523 . S
H4435 C4410 0.950 . S
H4436 C4412 0.950 . S
H4437 C4413 0.949 . S
H4438 C4415 0.950 . S
H4439 C4417 0.950 . S
C4440 C4441 1.349 . S
C4440 C4442 1.327 . S
C4440 H4465 0.950 . S
C4441 C4440 1.349 . S
C4441 C4457 1.349 . S
C4442 C4440 1.327 . S
C4442 C4461 1.429 . S
C4442 H4466 0.950 . S
C4443 C4460 1.574 . S
C4443 C4462 1.368 . S
C4443 H4467 0.949 . S
H4444 C4448 0.949 . S
C4445 C4446 1.349 . S
C4445 C4447 1.327 . S
C4445 H4468 0.950 . S
C4446 C4445 1.349 . S
C4446 C4458 1.349 . S
C4447 C4445 1.327 . S
C4447 C4463 1.429 . S
C4447 H4469 0.950 . S
C4448 H4444 0.949 . S
C4448 C4456 1.574 . S
C4448 C4464 1.368 . S
H4449 C4457 0.950 . S
H4450 C4455 0.950 . S
H4451 C4456 0.949 . S
H4452 C4458 0.950 . S
H4453 C4459 0.950 . S
H4454 C4460 0.949 . S
C4455 H4450 0.950 . S
C4455 C4457 1.327 . S
C4455 C4461 1.429 . S
C4456 C4448 1.574 . S
C4456 H4451 0.949 . S
C4456 C4462 1.368 . S
C4457 C4441 1.349 . S
C4457 H4449 0.950 . S
C4457 C4455 1.327 . S
C4458 C4446 1.349 . S
C4458 H4452 0.950 . S
C4458 C4459 1.327 . S
C4459 H4453 0.950 . S
C4459 C4458 1.327 . S
C4459 C4463 1.429 . S
C4460 C4443 1.574 . S
C4460 H4454 0.949 . S
C4460 C4464 1.368 . S
C4461 C4442 1.429 . S
C4461 C4455 1.429 . S
C4461 C4462 1.523 . S
C4462 C4443 1.368 . S
C4462 C4456 1.368 . S
C4462 C4461 1.523 . S
C4463 C4447 1.429 . S
C4463 C4459 1.429 . S
C4463 C4464 1.523 . S
C4464 C4448 1.368 . S
C4464 C4460 1.368 . S
C4464 C4463 1.523 . S
H4465 C4440 0.950 . S
H4466 C4442 0.950 . S
H4467 C4443 0.949 . S
H4468 C4445 0.950 . S
H4469 C4447 0.950 . S
C4470 C4471 1.349 . S
C4470 C4472 1.327 . S
C4470 H4495 0.936 1_554 S
C4471 C4470 1.349 . S
C4471 C4487 1.349 . S
C4472 C4470 1.327 . S
C4472 C4491 1.429 . S
C4472 H4496 0.950 1_554 S
C4473 C4490 1.574 . S
C4473 C4492 1.368 . S
C4473 H4497 0.949 . S
H4474 C4478 0.935 1_556 S
C4475 C4476 1.349 . S
C4475 C4477 1.327 . S
C4475 H4498 0.950 . S
C4476 C4475 1.349 . S
C4476 C4488 1.349 1_554 S
C4477 C4475 1.327 . S
C4477 C4493 1.429 . S
C4477 H4499 0.950 . S
C4478 H4474 0.935 1_554 S
C4478 C4486 1.575 . S
C4478 C4494 1.382 . S
H4479 C4487 0.950 . S
H4480 C4485 0.950 . S
H4481 C4486 0.949 1_556 S
H4482 C4488 0.950 . S
H4483 C4489 0.950 . S
H4484 C4490 0.949 . S
C4485 H4480 0.950 . S
C4485 C4487 1.327 . S
C4485 C4491 1.429 . S
C4486 C4478 1.575 . S
C4486 H4481 0.949 1_554 S
C4486 C4492 1.368 . S
C4487 C4471 1.349 . S
C4487 H4479 0.950 . S
C4487 C4485 1.327 . S
C4488 C4476 1.349 1_556 S
C4488 H4482 0.950 . S
C4488 C4489 1.327 . S
C4489 H4483 0.950 . S
C4489 C4488 1.327 . S
C4489 C4493 1.429 1_556 S
C4490 C4473 1.574 . S
C4490 H4484 0.949 . S
C4490 C4494 1.368 . S
C4491 C4472 1.429 . S
C4491 C4485 1.429 . S
C4491 C4492 1.523 . S
C4492 C4473 1.368 . S
C4492 C4486 1.368 . S
C4492 C4491 1.523 . S
C4493 C4477 1.429 . S
C4493 C4489 1.429 1_554 S
C4493 C4494 1.523 . S
C4494 C4478 1.382 . S
C4494 C4490 1.368 . S
C4494 C4493 1.523 . S
H4495 C4470 0.936 1_556 S
H4496 C4472 0.950 1_556 S
H4497 C4473 0.949 . S
H4498 C4475 0.950 . S
H4499 C4477 0.950 . S
C4500 C4501 1.349 . S
C4500 C4502 1.327 . S
C4500 H4525 0.950 . S
C4501 C4500 1.349 . S
C4501 C4517 1.349 . S
C4502 C4500 1.327 . S
C4502 C4521 1.429 . S
C4502 H4526 0.950 . S
C4503 C4520 1.574 . S
C4503 C4522 1.368 . S
C4503 H4527 0.949 . S
H4504 C4508 0.949 . S
C4505 C4506 1.349 . S
C4505 C4507 1.327 . S
C4505 H4528 0.950 . S
C4506 C4505 1.349 . S
C4506 C4518 1.349 . S
C4507 C4505 1.327 . S
C4507 C4523 1.429 . S
C4507 H4529 0.950 . S
C4508 H4504 0.949 . S
C4508 C4516 1.574 . S
C4508 C4524 1.368 . S
H4509 C4517 0.950 . S
H4510 C4515 0.950 . S
H4511 C4516 0.949 . S
H4512 C4518 0.950 . S
H4513 C4519 0.950 . S
H4514 C4520 0.949 . S
C4515 H4510 0.950 . S
C4515 C4517 1.327 . S
C4515 C4521 1.429 . S
C4516 C4508 1.574 . S
C4516 H4511 0.949 . S
C4516 C4522 1.368 . S
C4517 C4501 1.349 . S
C4517 H4509 0.950 . S
C4517 C4515 1.327 . S
C4518 C4506 1.349 . S
C4518 H4512 0.950 . S
C4518 C4519 1.327 . S
C4519 H4513 0.950 . S
C4519 C4518 1.327 . S
C4519 C4523 1.429 . S
C4520 C4503 1.574 . S
C4520 H4514 0.949 . S
C4520 C4524 1.368 . S
C4521 C4502 1.429 . S
C4521 C4515 1.429 . S
C4521 C4522 1.523 . S
C4522 C4503 1.368 . S
C4522 C4516 1.368 . S
C4522 C4521 1.523 . S
C4523 C4507 1.429 . S
C4523 C4519 1.429 . S
C4523 C4524 1.523 . S
C4524 C4508 1.368 . S
C4524 C4520 1.368 . S
C4524 C4523 1.523 . S
H4525 C4500 0.950 . S
H4526 C4502 0.950 . S
H4527 C4503 0.949 . S
H4528 C4505 0.950 . S
H4529 C4507 0.950 . S
C4530 C4531 1.349 . S
C4530 C4532 1.327 . S
C4530 H4555 0.950 . S
C4531 C4530 1.349 . S
C4531 C4547 1.349 . S
C4532 C4530 1.327 . S
C4532 C4551 1.429 . S
C4532 H4556 0.950 . S
C4533 C4550 1.574 . S
C4533 C4552 1.368 . S
C4533 H4557 0.949 . S
H4534 C4538 0.949 . S
C4535 C4536 1.349 . S
C4535 C4537 1.327 . S
C4535 H4558 0.950 . S
C4536 C4535 1.349 . S
C4536 C4548 1.349 . S
C4537 C4535 1.327 . S
C4537 C4553 1.429 . S
C4537 H4559 0.950 . S
C4538 H4534 0.949 . S
C4538 C4546 1.574 . S
C4538 C4554 1.368 . S
H4539 C4547 0.950 . S
H4540 C4545 0.950 . S
H4541 C4546 0.949 . S
H4542 C4548 0.950 . S
H4543 C4549 0.950 . S
H4544 C4550 0.949 . S
C4545 H4540 0.950 . S
C4545 C4547 1.327 . S
C4545 C4551 1.429 . S
C4546 C4538 1.574 . S
C4546 H4541 0.949 . S
C4546 C4552 1.368 . S
C4547 C4531 1.349 . S
C4547 H4539 0.950 . S
C4547 C4545 1.327 . S
C4548 C4536 1.349 . S
C4548 H4542 0.950 . S
C4548 C4549 1.327 . S
C4549 H4543 0.950 . S
C4549 C4548 1.327 . S
C4549 C4553 1.429 . S
C4550 C4533 1.574 . S
C4550 H4544 0.949 . S
C4550 C4554 1.368 . S
C4551 C4532 1.429 . S
C4551 C4545 1.429 . S
C4551 C4552 1.523 . S
C4552 C4533 1.368 . S
C4552 C4546 1.368 . S
C4552 C4551 1.523 . S
C4553 C4537 1.429 . S
C4553 C4549 1.429 . S
C4553 C4554 1.523 . S
C4554 C4538 1.368 . S
C4554 C4550 1.368 . S
C4554 C4553 1.523 . S
H4555 C4530 0.950 . S
H4556 C4532 0.950 . S
H4557 C4533 0.949 . S
H4558 C4535 0.950 . S
H4559 C4537 0.950 . S
C1681 C109 1.862 . S
C1686 C392 1.862 . S
C1711 C61 1.560 . S
C1716 C494 1.764 . S
C1741 C74 1.742 . S
C1746 C560 1.784 . S
C1776 C646 1.467 . S
C1771 C96 1.588 . S
C1801 C25 1.499 . S
C1806 C730 1.388 . S
C1836 C812 1.787 . S
C1831 C40 1.766 . S
C1866 C914 1.865 . S
C1861 C46 1.868 . S
C1891 C5 1.628 . S
C1896 C980 1.962 . S
C1926 C410 1.425 . S
C1921 C229 1.203 . S
C1951 C249 0.800 . S
C1956 C478 0.788 . S
C1986 C578 0.891 . S
C1981 C271 0.820 . S
C2016 C644 1.690 . S
C2011 C172 1.644 1_556 S
C2041 C236 1.514 . S
C2046 C728 1.531 . S
C2076 C830 1.244 . S
C2071 C242 1.242 . S
C2106 C898 0.791 . S
C2101 C278 0.807 . S
C2136 C998 1.528 . S
C2131 C179 1.555 . S
C2166 C394 0.849 . S
C2161 C159 0.797 1_556 S
C2191 C285 1.406 1_554 S
C2196 C1082 1.576 . S
C2226 C1150 1.163 . S
C2221 C333 1.242 . S
C2256 C1232 0.731 . S
C2251 C320 0.731 . S
C2281 C123 0.812 . S
C2286 C982 0.799 . S
C2311 C138 1.389 . S
C2316 C562 1.300 . S
C2341 C326 1.719 . S
C2346 C1334 1.709 . S
C2376 C1400 0.801 . S
C2371 C298 0.798 . S
C2406 C403 1.843 . S
C2401 C67 1.792 . S
C2436 C1407 1.682 . S
C2431 C110 1.706 . S
C2461 C88 1.733 . S
C2466 C571 1.760 . S
C2491 C75 1.236 . S
C2496 C1329 1.369 . S
C2526 C741 1.344 . S
C2521 C11 1.439 . S
C2551 C47 1.535 . S
C2556 C1159 1.732 . S
C2586 C903 1.742 . S
C2581 C32 1.667 . S
C2616 C1495 1.953 . S
C2611 C26 1.936 . S
C2646 C399 1.504 . S
C2641 C152 1.542 . S
C2676 C1413 0.782 . S
C2671 C319 0.791 . S
C2701 C124 0.865 . S
C2706 C567 0.860 . S
C2731 C284 1.684 . S
C2736 C1327 1.700 . S
C2761 C145 1.274 . S
C2766 C739 1.450 . S
C2796 C1155 1.093 . S
C2791 C312 1.080 . S
C2821 C117 0.713 . S
C2826 C909 0.690 . S
C2851 C291 1.416 . S
C2856 C1491 1.402 . S
C2881 C194 0.890 . S
C2886 C405 0.893 . S
C2911 C180 1.555 . S
C2916 C1071 1.529 . S
C2941 C263 1.123 . S
C2946 C825 1.074 . S
C2971 C243 0.707 . S
C2976 C1243 0.647 . S
C3006 C1497 0.813 . S
C3001 C277 0.818 . S
C3031 C215 1.151 . S
C3036 C573 1.266 . S
C3066 C651 1.598 . S
C3061 C256 1.558 . S
C3096 C487 0.863 . S
C3091 C200 0.856 . S
C3121 C81 1.862 . S
C3126 C1568 1.864 . S
C3156 C1418 1.764 . S
C3151 C89 1.560 . S
C3181 C102 1.741 1_455 S
C3186 C1652 1.795 . S
C3211 C68 1.589 . S
C3216 C1318 1.467 . S
C3241 C53 1.499 . S
C3246 C1066 1.388 . S
C3276 C1148 1.787 . S
C3271 C12 1.766 1_655 S
C3306 C1250 1.865 . S
C3301 C18 1.868 . S
C3336 C1484 1.962 . S
C3331 C33 1.627 . S
C3366 C1586 1.425 . S
C3361 C257 1.203 . S
C3391 C193 0.828 . S
C3396 C1402 0.788 . S
C3426 C1670 0.891 . S
C3421 C201 0.820 . S
C3456 C1316 1.690 . S
C3451 C214 1.644 . S
C3486 C1064 1.517 . S
C3481 C264 1.514 . S
C3511 C186 1.241 . S
C3516 C1166 1.244 . S
C3546 C1234 0.791 . S
C3541 C208 0.807 . S
C3571 C221 1.555 . S
C3576 C1502 1.528 . S
C3606 C1570 0.838 . S
C3601 C313 0.792 . S
C3631 C131 1.405 . S
C3636 C746 1.576 . S
C3666 C814 1.163 . S
C3661 C151 1.242 1_565 S
C3696 C896 0.731 . S
C3691 C166 0.732 . S
C3726 C1486 0.799 . S
C3721 C305 0.812 . S
C3751 C292 1.388 . S
C3756 C1654 1.299 . S
C3786 C662 1.709 . S
C3781 C144 1.719 . S
C3816 C476 0.802 . S
C3811 C116 0.798 . S
C3841 C95 1.793 . S
C3846 C1579 1.843 . S
C3876 C483 1.682 . S
C3871 C82 1.699 . S
C3901 C60 1.732 . S
C3906 C1663 1.760 . S
C3931 C103 1.235 . S
C3936 C657 1.363 . S
C3961 C39 1.439 . S
C3966 C1077 1.343 . S
C3996 C823 1.732 . S
C3991 C19 1.535 . S
C4021 C4 1.667 . S
C4026 C1239 1.729 . S
C4051 C54 1.936 . S
C4056 C991 1.953 . S
C4086 C1575 1.504 . S
C4081 C334 1.542 . S
C4111 C165 0.790 . S
C4116 C489 0.778 . S
C4146 C1659 0.860 1_655 S
C4141 C306 0.865 . S
C4171 C130 1.684 . S
C4176 C655 1.700 . S
C4201 C327 1.274 . S
C4206 C1075 1.450 . S
C4236 C819 1.094 . S
C4231 C158 1.087 . S
C4261 C299 0.713 . S
C4266 C1245 0.663 . S
C4296 C987 1.402 . S
C4291 C137 1.416 . S
C4326 C1581 0.871 . S
C4321 C250 0.891 . S
C4356 C735 1.529 1_565 S
C4351 C222 1.555 . S
C4381 C235 1.123 . S
C4386 C1161 1.073 . S
C4416 C907 0.647 . S
C4411 C187 0.707 . S
C4441 C207 0.818 . S
C4446 C993 0.814 . S
C4471 C173 1.151 . S
C4476 C1665 1.267 . S
C4506 C1323 1.598 . S
C4501 C228 1.558 . S
C4536 C1411 0.863 . S
C4531 C270 0.856 . S
