# Generated by pormake.
# Topology apo, (3,6)-cn, num edge types: 1
# Building blocks:
#     Node 0, Type 0, BuildingBlock: OLANEW_clean_sbu_2, # of connection points: 3
#     Node 1, Type 0, BuildingBlock: OLANEW_clean_sbu_2, # of connection points: 3
#     Node 2, Type 0, BuildingBlock: OLANEW_clean_sbu_2, # of connection points: 3
#     Node 3, Type 0, BuildingBlock: OLANEW_clean_sbu_2, # of connection points: 3
#     Node 4, Type 0, BuildingBlock: OLANEW_clean_sbu_2, # of connection points: 3
#     Node 5, Type 0, BuildingBlock: OLANEW_clean_sbu_2, # of connection points: 3
#     Node 6, Type 0, BuildingBlock: OLANEW_clean_sbu_2, # of connection points: 3
#     Node 7, Type 0, BuildingBlock: OLANEW_clean_sbu_2, # of connection points: 3
#     Node 8, Type 1, BuildingBlock: KUMBUR_clean_sbu_1, # of connection points: 6
#     Node 9, Type 1, BuildingBlock: KUMBUR_clean_sbu_1, # of connection points: 6
#     Node 10, Type 1, BuildingBlock: KUMBUR_clean_sbu_1, # of connection points: 6
#     Node 11, Type 1, BuildingBlock: KUMBUR_clean_sbu_1, # of connection points: 6
#     Edge 12, Type (0, 1), BuildingBlock: UVAHIK_clean_linker_0, # of connection points: 2
#     Edge 13, Type (0, 1), BuildingBlock: UVAHIK_clean_linker_0, # of connection points: 2
#     Edge 14, Type (0, 1), BuildingBlock: UVAHIK_clean_linker_0, # of connection points: 2
#     Edge 15, Type (0, 1), BuildingBlock: UVAHIK_clean_linker_0, # of connection points: 2
#     Edge 16, Type (0, 1), BuildingBlock: UVAHIK_clean_linker_0, # of connection points: 2
#     Edge 17, Type (0, 1), BuildingBlock: UVAHIK_clean_linker_0, # of connection points: 2
#     Edge 18, Type (0, 1), BuildingBlock: UVAHIK_clean_linker_0, # of connection points: 2
#     Edge 19, Type (0, 1), BuildingBlock: UVAHIK_clean_linker_0, # of connection points: 2
#     Edge 20, Type (0, 1), BuildingBlock: UVAHIK_clean_linker_0, # of connection points: 2
#     Edge 21, Type (0, 1), BuildingBlock: UVAHIK_clean_linker_0, # of connection points: 2
#     Edge 22, Type (0, 1), BuildingBlock: UVAHIK_clean_linker_0, # of connection points: 2
#     Edge 23, Type (0, 1), BuildingBlock: UVAHIK_clean_linker_0, # of connection points: 2
#     Edge 24, Type (0, 1), BuildingBlock: UVAHIK_clean_linker_0, # of connection points: 2
#     Edge 25, Type (0, 1), BuildingBlock: UVAHIK_clean_linker_0, # of connection points: 2
#     Edge 26, Type (0, 1), BuildingBlock: UVAHIK_clean_linker_0, # of connection points: 2
#     Edge 27, Type (0, 1), BuildingBlock: UVAHIK_clean_linker_0, # of connection points: 2
#     Edge 28, Type (0, 1), BuildingBlock: UVAHIK_clean_linker_0, # of connection points: 2
#     Edge 29, Type (0, 1), BuildingBlock: UVAHIK_clean_linker_0, # of connection points: 2
#     Edge 30, Type (0, 1), BuildingBlock: UVAHIK_clean_linker_0, # of connection points: 2
#     Edge 31, Type (0, 1), BuildingBlock: UVAHIK_clean_linker_0, # of connection points: 2
#     Edge 32, Type (0, 1), BuildingBlock: UVAHIK_clean_linker_0, # of connection points: 2
#     Edge 33, Type (0, 1), BuildingBlock: UVAHIK_clean_linker_0, # of connection points: 2
#     Edge 34, Type (0, 1), BuildingBlock: UVAHIK_clean_linker_0, # of connection points: 2
#     Edge 35, Type (0, 1), BuildingBlock: UVAHIK_clean_linker_0, # of connection points: 2
# Relax obj value: 0.029
# Max RMSD: 0.212
# Mean RMSD: 0.128
data_MOF--net-apo--node1-OLANEW_clean_sbu_2--node2-KUMBUR_clean_sbu_1--edge1-UVAHIK_clean_linker_0
_symmetry_space_group_name_H-M    P1
_symmetry_Int_Tables_number       1
_symmetry_cell_setting            triclinic
loop_
_symmetry_equiv_pos_as_xyz
'x, y, z'
_cell_length_a     34.975504
_cell_length_b     58.350592
_cell_length_c     69.412573
_cell_angle_alpha  88.941897
_cell_angle_beta   90.127114
_cell_angle_gamma 91.233273
loop_
_atom_site_label
_atom_site_type_symbol
_atom_site_fract_x
_atom_site_fract_y
_atom_site_fract_z
_atom_type_partial_charge
O0 O 0.31882 0.37276 0.38428 0.0
Cd1 Cd 0.2963 0.34068 0.40475 0.0
O2 O 0.37899 0.36855 0.39275 0.0
Cd3 Cd 0.36657 0.34663 0.41799 0.0
O4 O 0.36969 0.34405 0.44951 0.0
C5 C 0.38115 0.36251 0.45731 0.0
O6 O 0.3894 0.38035 0.44612 0.0
C7 C 0.35399 0.37823 0.38225 0.0
C8 C 0.25962 0.30716 0.3826 0.0
O9 O 0.24073 0.32323 0.39024 0.0
O10 O 0.29579 0.30683 0.38556 0.0
O11 O 0.24526 0.14018 0.93771 0.0
Cd12 Cd 0.24829 0.14046 0.90239 0.0
O13 O 0.27063 0.1061 0.94049 0.0
Cd14 Cd 0.27171 0.10036 0.90953 0.0
O15 O 0.25246 0.08261 0.88373 0.0
C16 C 0.26268 0.06204 0.8816 0.0
O17 O 0.28626 0.053 0.89423 0.0
C18 C 0.25689 0.12368 0.94827 0.0
C19 C 0.29491 0.17487 0.88571 0.0
O20 O 0.25993 0.17856 0.8899 0.0
O21 O 0.30813 0.15503 0.88979 0.0
O22 O 0.81504 0.10984 0.61663 0.0
Cd23 Cd 0.78478 0.13941 0.5967 0.0
O24 O 0.86588 0.10624 0.59832 0.0
Cd25 Cd 0.84837 0.1288 0.57462 0.0
O26 O 0.84971 0.13697 0.54375 0.0
C27 C 0.84319 0.12047 0.5324 0.0
O28 O 0.83424 0.10016 0.53977 0.0
C29 C 0.84704 0.10072 0.61341 0.0
C30 C 0.75254 0.17313 0.61933 0.0
O31 O 0.73485 0.15407 0.61634 0.0
O32 O 0.7855 0.17638 0.61159 0.0
O33 O 0.73465 0.33685 0.06046 0.0
Cd34 Cd 0.74188 0.34327 0.09508 0.0
O35 O 0.7623 0.36969 0.05189 0.0
Cd36 Cd 0.76393 0.38236 0.0813 0.0
O37 O 0.74387 0.40435 0.10417 0.0
C38 C 0.72311 0.42079 0.09849 0.0
O39 O 0.71628 0.42327 0.07995 0.0
C40 C 0.74676 0.35064 0.04732 0.0
C41 C 0.78711 0.31067 0.11368 0.0
O42 O 0.75115 0.30712 0.11124 0.0
O43 O 0.8018 0.32959 0.10719 0.0
O44 O 0.72844 0.60481 0.61935 0.0
Cd45 Cd 0.74826 0.63673 0.59803 0.0
O46 O 0.71809 0.58222 0.59477 0.0
Cd47 Cd 0.73053 0.60766 0.57213 0.0
O48 O 0.72649 0.62103 0.54268 0.0
C49 C 0.69346 0.62556 0.53617 0.0
O50 O 0.66394 0.62349 0.5478 0.0
C51 C 0.71859 0.58531 0.61285 0.0
C52 C 0.7864 0.6717 0.61766 0.0
O53 O 0.75002 0.6718 0.61543 0.0
O54 O 0.80473 0.65499 0.61066 0.0
O55 O 0.79797 0.88759 0.12577 0.0
Cd56 Cd 0.7672 0.85804 0.10609 0.0
O57 O 0.81864 0.906 0.09973 0.0
Cd58 Cd 0.79966 0.88188 0.07785 0.0
O59 O 0.81085 0.87358 0.04787 0.0
C60 C 0.84597 0.87496 0.04323 0.0
O61 O 0.87129 0.87958 0.05671 0.0
C62 C 0.81565 0.90462 0.11797 0.0
C63 C 0.73024 0.82319 0.12755 0.0
O64 O 0.76497 0.8212 0.12206 0.0
O65 O 0.71315 0.84177 0.12309 0.0
O66 O 0.21939 0.87203 0.36264 0.0
Cd67 Cd 0.23508 0.84018 0.38465 0.0
O68 O 0.21829 0.89609 0.38668 0.0
Cd69 Cd 0.22842 0.87173 0.41027 0.0
O70 O 0.22397 0.86324 0.44097 0.0
C71 C 0.19384 0.86993 0.44917 0.0
O72 O 0.16768 0.88009 0.43864 0.0
C73 C 0.21509 0.89223 0.36877 0.0
C74 C 0.27838 0.80608 0.36794 0.0
O75 O 0.24174 0.80497 0.36772 0.0
O76 O 0.29455 0.82344 0.37586 0.0
O77 O 0.30615 0.60057 0.86425 0.0
Cd78 Cd 0.27585 0.62995 0.88343 0.0
O79 O 0.33095 0.58487 0.89038 0.0
Cd80 Cd 0.31064 0.60869 0.91174 0.0
O81 O 0.31301 0.61767 0.94211 0.0
C82 C 0.34477 0.61368 0.95032 0.0
O83 O 0.37285 0.60591 0.9399 0.0
C84 C 0.32601 0.58502 0.87222 0.0
C85 C 0.23748 0.66291 0.86151 0.0
O86 O 0.27261 0.66598 0.86632 0.0
O87 O 0.22064 0.64414 0.86688 0.0
Tb88 Tb 0.08231 0.11624 0.22254 0.0
C89 C 0.92646 0.07901 0.25116 0.0
N90 N 0.93767 0.10096 0.24724 0.0
C91 C 0.87972 0.10715 0.22955 0.0
C92 C 0.89225 0.06976 0.24355 0.0
C93 C 0.91415 0.11545 0.23736 0.0
C94 C 0.86903 0.08408 0.23237 0.0
C95 C 0.93732 0.04371 0.26891 0.0
C96 C 0.94859 0.0663 0.26365 0.0
C97 C 0.90456 0.03377 0.26042 0.0
C98 C 0.88197 0.04681 0.24779 0.0
Tb99 Tb 0.99444 0.11291 0.2602 0.0
N100 N 0.97933 0.07681 0.27188 0.0
C101 C 0.95831 0.03225 0.28316 0.0
C102 C 0.99744 0.06651 0.2871 0.0
C103 C 0.98802 0.0439 0.29258 0.0
H104 H 0.92244 0.13325 0.2352 0.0
H105 H 1.00328 0.0356 0.30426 0.0
H106 H 0.14107 0.07568 0.24004 0.0
H107 H 0.1108 0.20558 0.20678 0.0
H108 H 0.01909 0.07573 0.29514 0.0
H109 H 0.95068 0.01486 0.28761 0.0
H110 H 0.07541 0.16846 0.2046 0.0
H111 H 0.86154 0.1185 0.22132 0.0
H112 H 0.89568 0.01633 0.26408 0.0
H113 H 0.8561 0.03921 0.24184 0.0
H114 H 0.19905 0.07452 0.25998 0.0
H115 H 0.84243 0.07767 0.22627 0.0
H116 H 0.16891 0.20857 0.22713 0.0
N117 N 0.13837 0.11221 0.23952 0.0
C118 C 0.15848 0.132 0.24266 0.0
C119 C 0.18754 0.09087 0.25554 0.0
C120 C 0.19292 0.13212 0.25325 0.0
C121 C 0.15389 0.09164 0.24464 0.0
C122 C 0.20675 0.11123 0.26022 0.0
N123 N 0.1127 0.15108 0.22386 0.0
C124 C 0.10073 0.16973 0.2135 0.0
C125 C 0.16669 0.17276 0.23593 0.0
C126 C 0.14572 0.15203 0.23414 0.0
C127 C 0.15359 0.19229 0.22615 0.0
C128 C 0.12075 0.19069 0.21468 0.0
H129 H 0.23308 0.11057 0.26844 0.0
H130 H 0.23941 0.1534 0.26418 0.0
H131 H 0.21637 0.18902 0.249 0.0
O132 O 0.0767 0.12085 0.19257 0.0
O133 O 0.07052 0.14328 0.24337 0.0
O134 O 0.051 0.12354 0.27027 0.0
O135 O 0.12673 0.1056 0.2046 0.0
O136 O 0.02974 0.13244 0.21256 0.0
O137 O 0.99636 0.14257 0.2401 0.0
O138 O 0.96348 0.11414 0.28658 0.0
O139 O 0.98687 0.10093 0.23056 0.0
O140 O 0.04422 0.08593 0.22154 0.0
O141 O 0.97645 0.1449 0.26931 0.0
O142 O 0.04842 0.09617 0.26811 0.0
O143 O 0.07507 0.08426 0.2396 0.0
C144 C 0.07049 0.1405 0.26216 0.0
C145 C 0.10727 0.09366 0.17385 0.0
C146 C 0.12149 0.0829 0.14086 0.0
C147 C 0.1036 0.06141 0.14445 0.0
C148 C 0.0897 0.07214 0.17722 0.0
C149 C 0.08789 0.05611 0.16254 0.0
C150 C 0.12315 0.09895 0.15573 0.0
C151 C 1.0047 0.14502 0.22158 0.0
C152 C 0.10873 0.11103 0.18886 0.0
C153 C 0.21312 0.15292 0.2559 0.0
C154 C 0.20008 0.1732 0.24721 0.0
C155 C 1.00659 0.08524 0.22196 0.0
C156 C 0.93976 0.15075 0.29823 0.0
C157 C 0.91176 0.15713 0.32985 0.0
C158 C 0.89969 0.17874 0.32328 0.0
C159 C 0.92755 0.17246 0.29205 0.0
C160 C 0.93188 0.14314 0.31719 0.0
C161 C 0.90761 0.18632 0.30452 0.0
C162 C 0.06781 0.08131 0.25813 0.0
C163 C 0.96012 0.13621 0.28464 0.0
H164 H 0.10213 0.04861 0.13335 0.0
H165 H 0.0774 0.06777 0.19113 0.0
H166 H 0.07428 0.03951 0.16518 0.0
H167 H 0.13621 0.11575 0.15315 0.0
H168 H 0.8846 0.18997 0.33277 0.0
H169 H 0.93314 0.17868 0.2775 0.0
H170 H 0.94111 0.12638 0.32204 0.0
H171 H 0.8983 0.20302 0.29963 0.0
Tb172 Tb 0.49515 0.37044 0.73499 0.0
C173 C 0.66636 0.38287 0.75785 0.0
N174 N 0.64258 0.36435 0.76036 0.0
C175 C 0.69164 0.3398 0.74907 0.0
C176 C 0.70322 0.38072 0.75001 0.0
C177 C 0.65561 0.34281 0.75723 0.0
C178 C 0.71531 0.35888 0.74511 0.0
C179 C 0.67908 0.42331 0.76316 0.0
C180 C 0.6546 0.40385 0.76437 0.0
C181 C 0.71517 0.42151 0.75454 0.0
C182 C 0.7272 0.40026 0.74795 0.0
Tb183 Tb 0.58363 0.37186 0.77275 0.0
N184 N 0.61934 0.405 0.77235 0.0
C185 C 0.66675 0.44383 0.77097 0.0
C186 C 0.60818 0.42451 0.78118 0.0
C187 C 0.63138 0.44433 0.78028 0.0
H188 H 0.63846 0.32784 0.76116 0.0
H189 H 0.62204 0.45995 0.78681 0.0
H190 H 0.42627 0.39381 0.75939 0.0
H191 H 0.50593 0.28596 0.70413 0.0
H192 H 0.58103 0.42487 0.78853 0.0
H193 H 0.68469 0.4592 0.77032 0.0
H194 H 0.52117 0.32704 0.7066 0.0
H195 H 0.70137 0.32273 0.74612 0.0
H196 H 0.73428 0.43632 0.75327 0.0
H197 H 0.75548 0.39899 0.74178 0.0
H198 H 0.3667 0.38104 0.77604 0.0
H199 H 0.7434 0.35648 0.73901 0.0
H200 H 0.45336 0.2684 0.72352 0.0
N201 N 0.43989 0.36032 0.7505 0.0
C202 C 0.42837 0.33804 0.74938 0.0
C203 C 0.38394 0.36874 0.76871 0.0
C204 C 0.39497 0.3299 0.75877 0.0
C205 C 0.41761 0.37593 0.75933 0.0
C206 C 0.37281 0.34557 0.76865 0.0
N207 N 0.48151 0.33243 0.72933 0.0
C208 C 0.49985 0.31951 0.71611 0.0
C209 C 0.43953 0.3002 0.73721 0.0
C210 C 0.45047 0.32348 0.73881 0.0
C211 C 0.46076 0.28638 0.72514 0.0
C212 C 0.49055 0.29621 0.71424 0.0
H213 H 0.34691 0.34002 0.77605 0.0
H214 H 0.35959 0.29981 0.76528 0.0
H215 H 0.39857 0.27377 0.74633 0.0
O216 O 0.46678 0.36726 0.70794 0.0
O217 O 0.49063 0.35975 0.76546 0.0
O218 O 0.54635 0.34156 0.77091 0.0
O219 O 0.46639 0.39899 0.72398 0.0
O220 O 0.54973 0.35657 0.7252 0.0
O221 O 0.57629 0.34259 0.75343 0.0
O222 O 0.56749 0.37102 0.802 0.0
O223 O 0.57872 0.40021 0.75156 0.0
O224 O 0.54914 0.3854 0.72445 0.0
O225 O 0.62431 0.36257 0.79363 0.0
O226 O 0.53358 0.39215 0.78028 0.0
O227 O 0.50082 0.40161 0.75192 0.0
C228 C 0.50941 0.34283 0.77335 0.0
C229 C 0.43109 0.39932 0.69397 0.0
C230 C 0.40896 0.4035 0.6607 0.0
C231 C 0.38651 0.42198 0.66625 0.0
C232 C 0.40858 0.41788 0.69911 0.0
C233 C 0.38627 0.42902 0.68533 0.0
C234 C 0.43085 0.39196 0.67476 0.0
C235 C 0.57396 0.34333 0.73451 0.0
C236 C 0.45517 0.38822 0.70872 0.0
C237 C 0.38485 0.30652 0.75793 0.0
C238 C 0.40714 0.29168 0.7472 0.0
C239 C 0.572 0.40032 0.73292 0.0
C240 C 0.59947 0.34334 0.82084 0.0
C241 C 0.61437 0.32615 0.85227 0.0
C242 C 0.60138 0.30476 0.84545 0.0
C243 C 0.58721 0.32183 0.81428 0.0
C244 C 0.61285 0.34546 0.8398 0.0
C245 C 0.58779 0.3027 0.82661 0.0
C246 C 0.50972 0.40498 0.77016 0.0
C247 C 0.60034 0.36344 0.8078 0.0
H248 H 0.36896 0.43095 0.65581 0.0
H249 H 0.40814 0.42376 0.71382 0.0
H250 H 0.36888 0.44325 0.68943 0.0
H251 H 0.44855 0.37784 0.67065 0.0
H252 H 0.60258 0.28948 0.8545 0.0
H253 H 0.57782 0.3198 0.79956 0.0
H254 H 0.62222 0.36218 0.84476 0.0
H255 H 0.57828 0.28613 0.82145 0.0
Tb256 Tb 0.0631 0.87925 0.72584 0.0
C257 C 0.88585 0.87357 0.74878 0.0
N258 N 0.91228 0.89059 0.7516 0.0
C259 C 0.86611 0.91879 0.74289 0.0
C260 C 0.84849 0.87849 0.74259 0.0
C261 C 0.90279 0.91304 0.74913 0.0
C262 C 0.83888 0.90144 0.7395 0.0
C263 C 0.87 0.83288 0.74937 0.0
C264 C 0.89642 0.85108 0.75216 0.0
C265 C 0.83275 0.83766 0.74309 0.0
C266 C 0.82202 0.86041 0.7397 0.0
Tb267 Tb 0.97135 0.87898 0.76114 0.0
N268 N 0.93317 0.84709 0.75749 0.0
C269 C 0.88196 0.81044 0.75284 0.0
C270 C 0.94455 0.8253 0.76166 0.0
C271 C 0.9193 0.80666 0.75915 0.0
H272 H 0.92323 0.92655 0.75239 0.0
H273 H 0.92862 0.78939 0.76216 0.0
H274 H 0.12643 0.84907 0.7502 0.0
H275 H 0.06394 0.96842 0.70213 0.0
H276 H 0.97299 0.82213 0.76684 0.0
H277 H 0.86256 0.79595 0.75082 0.0
H278 H 0.04333 0.92801 0.70138 0.0
H279 H 0.85877 0.9366 0.74085 0.0
H280 H 0.81205 0.82389 0.74079 0.0
H281 H 0.79318 0.86383 0.73488 0.0
H282 H 0.18677 0.8565 0.76793 0.0
H283 H 0.81047 0.90595 0.73471 0.0
H284 H 0.11863 0.98022 0.72259 0.0
N285 N 0.11889 0.8841 0.74247 0.0
C286 C 0.13354 0.90585 0.7429 0.0
C287 C 0.17199 0.87053 0.761 0.0
C288 C 0.16772 0.9109 0.75287 0.0
C289 C 0.13782 0.86637 0.75103 0.0
C290 C 0.18691 0.8929 0.76203 0.0
N291 N 0.08091 0.91735 0.72388 0.0
C292 C 0.06492 0.93306 0.71162 0.0
C293 C 0.12783 0.94586 0.73368 0.0
C294 C 0.11355 0.92307 0.73357 0.0
C295 C 0.10862 0.96252 0.7229 0.0
C296 C 0.07756 0.95596 0.71146 0.0
H297 H 0.21324 0.89608 0.76988 0.0
H298 H 0.20728 0.93799 0.76136 0.0
H299 H 0.1725 0.96859 0.74445 0.0
O300 O 0.07342 0.88412 0.69614 0.0
O301 O 0.06714 0.88774 0.75662 0.0
O302 O 1.0128 0.90735 0.76178 0.0
O303 O 0.10538 0.85978 0.71266 0.0
O304 O 1.01001 0.89555 0.71588 0.0
O305 O 0.98553 0.90955 0.7439 0.0
O306 O 0.98137 0.87013 0.7902 0.0
O307 O 0.96262 0.86197 0.73347 0.0
O308 O 0.02121 0.85175 0.72052 0.0
O309 O 0.93547 0.89232 0.78224 0.0
O310 O 0.01795 0.85545 0.76837 0.0
O311 O 0.05319 0.84662 0.74101 0.0
C312 C 0.04926 0.90438 0.7649 0.0
C313 C 0.13639 0.87772 0.68594 0.0
C314 C 0.17112 0.88316 0.65566 0.0
C315 C 0.20209 0.89278 0.66589 0.0
C316 C 0.16776 0.88712 0.69592 0.0
C317 C 0.20035 0.89469 0.6859 0.0
C318 C 0.13825 0.87575 0.66585 0.0
C319 C 0.98782 0.90971 0.72503 0.0
C320 C 0.10137 0.86985 0.696 0.0
C321 C 0.1813 0.93369 0.75357 0.0
C322 C 0.16137 0.95114 0.74402 0.0
C323 C 0.98367 0.85004 0.72176 0.0
C324 C 0.96522 0.89866 0.81209 0.0
C325 C 0.96492 0.9072 0.84635 0.0
C326 C 0.98611 0.9275 0.84237 0.0
C327 C 0.98563 0.91921 0.80835 0.0
C328 C 0.95475 0.89277 0.83106 0.0
C329 C 0.9963 0.93345 0.82346 0.0
C330 C 0.04174 0.84245 0.75886 0.0
C331 C 0.95451 0.88323 0.7964 0.0
H332 H 0.22789 0.89848 0.65847 0.0
H333 H 0.16731 0.88849 0.71139 0.0
H334 H 0.22445 0.90192 0.69369 0.0
H335 H 0.11389 0.86862 0.65815 0.0
H336 H 0.99411 0.93901 0.85383 0.0
H337 H 0.99303 0.92432 0.79378 0.0
H338 H 0.93892 0.87689 0.83391 0.0
H339 H 1.01221 0.94923 0.82048 0.0
Tb340 Tb 0.46063 0.60467 0.23164 0.0
C341 C 0.62474 0.63724 0.24421 0.0
N342 N 0.61184 0.61514 0.24352 0.0
C343 C 0.66295 0.60604 0.22218 0.0
C344 C 0.65688 0.64478 0.23344 0.0
C345 C 0.63072 0.59941 0.23298 0.0
C346 C 0.676 0.62884 0.22234 0.0
C347 C 0.61698 0.67559 0.25618 0.0
C348 C 0.60468 0.65244 0.25528 0.0
C349 C 0.64848 0.68334 0.24514 0.0
C350 C 0.66845 0.66795 0.23384 0.0
Tb351 Tb 0.55949 0.6061 0.2619 0.0
N352 N 0.5741 0.64436 0.26567 0.0
C353 C 0.59803 0.69007 0.26863 0.0
C354 C 0.55873 0.65784 0.27945 0.0
C355 C 0.56937 0.68101 0.28065 0.0
H356 H 0.6209 0.58175 0.23295 0.0
H357 H 0.55618 0.6917 0.29123 0.0
H358 H 0.40456 0.64332 0.25077 0.0
H359 H 0.44132 0.51349 0.22078 0.0
H360 H 0.5393 0.65079 0.29012 0.0
H361 H 0.60656 0.70796 0.26975 0.0
H362 H 0.4739 0.55092 0.21712 0.0
H363 H 0.67766 0.59357 0.21374 0.0
H364 H 0.65805 0.70111 0.24551 0.0
H365 H 0.69286 0.67414 0.22552 0.0
H366 H 0.34318 0.64353 0.26824 0.0
H367 H 0.70079 0.63396 0.21383 0.0
H368 H 0.3798 0.5101 0.23822 0.0
N369 N 0.40353 0.60722 0.2472 0.0
C370 C 0.38323 0.58725 0.24956 0.0
C371 C 0.35425 0.62755 0.26317 0.0
C372 C 0.3477 0.58659 0.25909 0.0
C373 C 0.38932 0.62734 0.25354 0.0
C374 C 0.33341 0.60708 0.26604 0.0
N375 N 0.43323 0.5687 0.23367 0.0
C376 C 0.44804 0.54979 0.22542 0.0
C377 C 0.37826 0.54627 0.24448 0.0
C378 C 0.39837 0.56735 0.24238 0.0
C379 C 0.39432 0.52664 0.2369 0.0
C380 C 0.42916 0.52847 0.22715 0.0
H381 H 0.30621 0.60731 0.27347 0.0
H382 H 0.30035 0.56471 0.2687 0.0
H383 H 0.3271 0.52942 0.2559 0.0
O384 O 0.4574 0.59989 0.20165 0.0
O385 O 0.46068 0.58661 0.25982 0.0
O386 O 0.52274 0.5758 0.26666 0.0
O387 O 0.41893 0.62235 0.21578 0.0
O388 O 0.51001 0.58694 0.21971 0.0
O389 O 0.5494 0.57536 0.245 0.0
O390 O 0.57638 0.60796 0.2913 0.0
O391 O 0.55725 0.61909 0.23195 0.0
O392 O 0.49832 0.63505 0.22918 0.0
O393 O 0.60602 0.58656 0.27111 0.0
O394 O 0.5071 0.61931 0.27515 0.0
O395 O 0.47463 0.63435 0.24908 0.0
C396 C 0.48544 0.57302 0.26823 0.0
C397 C 0.39558 0.60328 0.18827 0.0
C398 C 0.36611 0.59696 0.15684 0.0
C399 C 0.33507 0.58564 0.16602 0.0
C400 C 0.36406 0.59222 0.19714 0.0
C401 C 0.33412 0.58335 0.18606 0.0
C402 C 0.39641 0.60568 0.16812 0.0
C403 C 0.53676 0.57377 0.22716 0.0
C404 C 0.42759 0.61272 0.19969 0.0
C405 C 0.32768 0.56559 0.26136 0.0
C406 C 0.34291 0.54548 0.25407 0.0
C407 C 0.53491 0.63499 0.22505 0.0
C408 C 0.63051 0.58605 0.30377 0.0
C409 C 0.65679 0.58889 0.33631 0.0
C410 C 0.68181 0.57106 0.33222 0.0
C411 C 0.65591 0.56834 0.30002 0.0
C412 C 0.63099 0.59624 0.32198 0.0
C413 C 0.6813 0.5609 0.3142 0.0
C414 C 0.48194 0.63347 0.26764 0.0
C415 C 0.60397 0.5938 0.28858 0.0
H416 H 0.31118 0.57896 0.15774 0.0
H417 H 0.36225 0.59062 0.21259 0.0
H418 H 0.30991 0.57485 0.19303 0.0
H419 H 0.42074 0.61421 0.16123 0.0
H420 H 0.70147 0.56472 0.34305 0.0
H421 H 0.6561 0.56016 0.28614 0.0
H422 H 0.6118 0.61009 0.32487 0.0
H423 H 0.70062 0.54716 0.31122 0.0
C424 C 0.19691 0.9075 0.33587 0.0
C425 C 0.2049 0.91132 0.35543 0.0
C426 C 0.18514 0.92554 0.32379 0.0
C427 C 0.18278 0.98914 0.32032 0.0
H428 H 0.09672 0.97853 0.28608 0.0
C429 C 0.0959 0.06306 0.28766 0.0
C430 C 0.08483 0.06153 0.26827 0.0
C431 C 0.11254 0.04443 0.29713 0.0
C432 C 0.12108 0.98171 0.29539 0.0
H433 H 0.20746 0.93723 0.37749 0.0
H434 H 0.18675 0.96834 0.35661 0.0
H435 H 0.12336 0.94643 0.30433 0.0
H436 H 0.08258 0.03945 0.24352 0.0
H437 H 0.11176 0.00683 0.26007 0.0
H438 H 0.18006 0.02446 0.31167 0.0
C439 C 0.18995 0.95156 0.35047 0.0
C440 C 0.13642 0.9633 0.30581 0.0
C441 C 0.2016 0.93362 0.36251 0.0
C442 C 0.0908 0.04105 0.2585 0.0
C443 C 0.10728 0.02236 0.268 0.0
C444 C 0.1674 0.00751 0.30996 0.0
C445 C 0.18129 0.94776 0.331 0.0
C446 C 0.1671 0.96687 0.31863 0.0
C447 C 0.11845 0.02386 0.28741 0.0
C448 C 0.13604 0.00407 0.29758 0.0
H449 H 0.19919 0.89054 0.32995 0.0
H450 H 0.17903 0.92208 0.3088 0.0
H451 H 0.20688 -0.00758 0.32977 0.0
H452 H 0.09201 0.07874 0.29546 0.0
H453 H 0.12044 0.04606 0.31214 0.0
C454 C 0.33929 0.56632 0.84055 0.0
C455 C 0.34355 0.56688 0.86068 0.0
C456 C 0.35604 0.54897 0.82996 0.0
C457 C 0.39489 0.49063 0.83574 0.0
H458 H 0.44716 0.50492 0.78767 0.0
C459 C 0.49435 0.4266 0.79999 0.0
C460 C 0.49105 0.42412 0.77995 0.0
C461 C 0.47562 0.4442 0.80926 0.0
C462 C 0.43233 0.50063 0.80098 0.0
H463 H 0.36902 0.54966 0.88542 0.0
H464 H 0.3983 0.51981 0.86704 0.0
H465 H 0.41488 0.53524 0.80469 0.0
H466 H 0.46583 0.43854 0.7539 0.0
H467 H 0.43319 0.46916 0.77013 0.0
H468 H 0.41261 0.45611 0.83216 0.0
C469 C 0.38158 0.53249 0.85941 0.0
C470 C 0.41377 0.51798 0.8107 0.0
C471 C 0.36495 0.54976 0.86995 0.0
C472 C 0.469 0.43988 0.76937 0.0
C473 C 0.45043 0.45753 0.77864 0.0
C474 C 0.4135 0.47334 0.82607 0.0
C475 C 0.37726 0.5318 0.83931 0.0
C476 C 0.39517 0.51322 0.82831 0.0
C477 C 0.45329 0.45979 0.79871 0.0
C478 C 0.43273 0.47816 0.80867 0.0
H479 H 0.32297 0.57924 0.83297 0.0
H480 H 0.35195 0.54881 0.81449 0.0
H481 H 0.38017 0.48627 0.84907 0.0
H482 H 0.5111 0.41483 0.8086 0.0
H483 H 0.4788 0.44568 0.82472 0.0
C484 C 0.70423 0.56948 0.64608 0.0
C485 C 0.70631 0.56634 0.62607 0.0
C486 C 0.6906 0.55176 0.65827 0.0
C487 C 0.63021 0.49922 0.65738 0.0
H488 H 0.67772 0.4853 0.70662 0.0
C489 C 0.56246 0.43453 0.7118 0.0
C490 C 0.58741 0.41947 0.72114 0.0
C491 C 0.57696 0.45303 0.7008 0.0
C492 C 0.66425 0.48893 0.69286 0.0
H493 H 0.69674 0.54185 0.60329 0.0
H494 H 0.67342 0.51107 0.62449 0.0
H495 H 0.70421 0.51628 0.6862 0.0
H496 H 0.64658 0.41083 0.72543 0.0
H497 H 0.67224 0.4433 0.70653 0.0
H498 H 0.59076 0.47165 0.66378 0.0
C499 C 0.68166 0.52732 0.63074 0.0
C500 C 0.6792 0.50681 0.68126 0.0
C501 C 0.69528 0.54496 0.6186 0.0
C502 C 0.62696 0.42283 0.71907 0.0
C503 C 0.64153 0.44133 0.70811 0.0
C504 C 0.61525 0.48142 0.66897 0.0
C505 C 0.6787 0.53059 0.65067 0.0
C506 C 0.66248 0.51203 0.66333 0.0
C507 C 0.61669 0.45666 0.69885 0.0
C508 C 0.63217 0.47599 0.6868 0.0
H509 H 0.71252 0.58574 0.6523 0.0
H510 H 0.68846 0.55484 0.67356 0.0
H511 H 0.61637 0.503 0.64375 0.0
H512 H 0.53177 0.43214 0.71322 0.0
H513 H 0.55706 0.46461 0.69397 0.0
C514 C 0.83083 0.9223 0.15004 0.0
C515 C 0.8333 0.92292 0.12981 0.0
C516 C 0.84796 0.93973 0.16093 0.0
C517 C 0.88448 -0.00031 0.1565 0.0
H518 H 0.941 0.98512 0.20309 0.0
C519 C 0.94951 0.07035 0.20411 0.0
C520 C 0.98603 0.06671 0.2118 0.0
C521 C 0.92934 0.05263 0.19511 0.0
C522 C 0.9255 0.98945 0.19004 0.0
H523 H 0.85598 0.94233 0.10523 0.0
H524 H 0.88593 0.97231 0.1241 0.0
H525 H 0.90855 0.95444 0.18551 0.0
H526 H 0.03071 0.04189 0.21568 0.0
H527 H 0.99602 0.01101 0.19938 0.0
H528 H 0.90231 0.03451 0.16059 0.0
C529 C 0.8703 0.95864 0.1316 0.0
C530 C 0.9065 0.9719 0.18011 0.0
C531 C 0.85326 0.94131 0.12077 0.0
C532 C 1.00248 0.04513 0.20993 0.0
C533 C 0.98241 0.02739 0.2008 0.0
C534 C 0.90346 0.01718 0.16639 0.0
C535 C 0.86778 0.95814 0.1518 0.0
C536 C 0.88611 0.9768 0.1631 0.0
C537 C 0.94554 0.03092 0.19332 0.0
C538 C 0.92444 0.01227 0.1832 0.0
H539 H 0.81567 0.90838 0.15746 0.0
H540 H 0.84527 0.93894 0.17647 0.0
H541 H 0.86859 0.00412 0.1436 0.0
H542 H 0.93658 0.08697 0.20494 0.0
H543 H 0.90091 0.05593 0.18965 0.0
C544 C 0.89911 0.07486 0.62462 0.0
C545 C 0.86157 0.08261 0.62657 0.0
C546 C 0.91205 0.05656 0.63593 0.0
C547 C 0.89009 0.02144 0.6799 0.0
H548 H 0.95568 0.97799 0.65527 0.0
C549 C 0.96628 0.95017 0.72281 0.0
C550 C 0.97055 0.92884 0.71412 0.0
C551 C 0.95168 0.96868 0.71235 0.0
C552 C 0.93701 0.98978 0.66233 0.0
H553 H 0.80841 0.07749 0.64225 0.0
H554 H 0.8307 0.04522 0.66171 0.0
H555 H 0.93266 0.01078 0.63692 0.0
H556 H 0.96271 0.90999 0.68779 0.0
H557 H 0.93624 0.9422 0.66953 0.0
H558 H 0.89345 -2e-05 0.70514 0.0
C559 C 0.8504 0.05353 0.65166 0.0
C560 C 0.92429 0.00883 0.65188 0.0
C561 C 0.83755 0.072 0.64044 0.0
C562 C 0.9597 0.92629 0.6948 0.0
C563 C 0.94479 0.94478 0.68434 0.0
C564 C 0.9026 0.00228 0.69032 0.0
C565 C 0.88768 0.04539 0.64936 0.0
C566 C 0.90087 0.025 0.66055 0.0
C567 C 0.94083 0.96627 0.69296 0.0
C568 C 0.9264 0.98626 0.6817 0.0
H569 H 0.91848 0.08279 0.61419 0.0
H570 H 0.94121 0.05114 0.63408 0.0
H571 H 0.87236 0.03361 0.68711 0.0
H572 H 0.97517 0.95275 0.73759 0.0
H573 H 0.94982 0.98504 0.71936 0.0
C574 C 0.68278 0.45442 0.10568 0.0
C575 C 0.70599 0.43658 0.11236 0.0
C576 C 0.66576 0.46913 0.1186 0.0
C577 C 0.63632 0.47331 0.1694 0.0
H578 H 0.62973 0.53805 0.15647 0.0
C579 C 0.57912 0.5402 0.22228 0.0
C580 C 0.5551 0.55705 0.2145 0.0
C581 C 0.59791 0.52517 0.21023 0.0
C582 C 0.631 0.51997 0.1602 0.0
H583 H 0.72983 0.42034 0.13791 0.0
H584 H 0.70033 0.44623 0.16053 0.0
H585 H 0.66307 0.5128 0.1349 0.0
H586 H 0.53138 0.57098 0.18796 0.0
H587 H 0.56391 0.54467 0.167 0.0
H588 H 0.60421 0.48057 0.19474 0.0
C589 C 0.69495 0.44864 0.14526 0.0
C590 C 0.65013 0.50549 0.14784 0.0
C591 C 0.71203 0.43388 0.1323 0.0
C592 C 0.54973 0.55825 0.19444 0.0
C593 C 0.56861 0.54328 0.1824 0.0
C594 C 0.61725 0.48782 0.1818 0.0
C595 C 0.67155 0.46641 0.13855 0.0
C596 C 0.65273 0.48195 0.1522 0.0
C597 C 0.59317 0.5267 0.19014 0.0
C598 C 0.6141 0.51129 0.17724 0.0
H599 H 0.67741 0.45697 0.09043 0.0
H600 H 0.64745 0.4824 0.11294 0.0
H601 H 0.63738 0.45521 0.17307 0.0
H602 H 0.58379 0.53874 0.23768 0.0
H603 H 0.61683 0.51269 0.21662 0.0
C604 C 0.33914 0.41212 0.36092 0.0
C605 C 0.36591 0.39672 0.36848 0.0
C606 C 0.35106 0.43077 0.34929 0.0
C607 C 0.43811 0.46603 0.33797 0.0
H608 H 0.37656 0.48948 0.29576 0.0
C609 C 0.4949 0.53464 0.28398 0.0
C610 C 0.47082 0.55303 0.27967 0.0
C611 C 0.48123 0.51552 0.29443 0.0
C612 C 0.39387 0.48318 0.30761 0.0
H613 H 0.42594 0.38818 0.36897 0.0
H614 H 0.44654 0.4201 0.34823 0.0
H615 H 0.35446 0.45552 0.31403 0.0
H616 H 0.41376 0.56599 0.28358 0.0
H617 H 0.38953 0.53221 0.30133 0.0
H618 H 0.47779 0.49345 0.33131 0.0
C619 C 0.41648 0.41832 0.35177 0.0
C620 C 0.38122 0.46377 0.31811 0.0
C621 C 0.40463 0.39987 0.36356 0.0
C622 C 0.43278 0.55189 0.28619 0.0
C623 C 0.41892 0.53259 0.29643 0.0
C624 C 0.4509 0.48524 0.32736 0.0
C625 C 0.39 0.4343 0.34478 0.0
C626 C 0.40324 0.45489 0.33342 0.0
C627 C 0.44309 0.51426 0.30073 0.0
C628 C 0.42898 0.494 0.31206 0.0
H629 H 0.30909 0.41023 0.3645 0.0
H630 H 0.32987 0.44281 0.34435 0.0
H631 H 0.45543 0.46011 0.34994 0.0
H632 H 0.52432 0.53487 0.27911 0.0
H633 H 0.50042 0.50155 0.29739 0.0
C634 C 0.21585 0.05631 0.85459 0.0
C635 C 0.24495 0.04767 0.8665 0.0
C636 C 0.19638 0.04198 0.84177 0.0
C637 C 0.20061 0.98597 0.81757 0.0
H638 H 0.08998 0.98942 0.81772 0.0
C639 C 0.10296 0.91449 0.78706 0.0
C640 C 0.07117 0.92126 0.77619 0.0
C641 C 0.1249 0.9307 0.79699 0.0
C642 C 0.12086 0.98844 0.8173 0.0
H643 H 0.27749 0.01743 0.87369 0.0
H644 H 0.24345 -0.00753 0.85143 0.0
H645 H 0.12805 0.01677 0.83617 0.0
H646 H 0.03691 0.95007 0.76724 0.0
H647 H 0.07515 0.97847 0.78466 0.0
H648 H 0.19331 0.95744 0.79884 0.0
C649 C 0.23579 0.01033 0.85191 0.0
C650 C 0.14269 0.00414 0.82785 0.0
C651 C 0.25518 0.02464 0.86475 0.0
C652 C 0.06117 0.94442 0.77568 0.0
C653 C 0.08307 0.96065 0.78562 0.0
C654 C 0.17876 0.97028 0.80699 0.0
C655 C 0.20568 0.01873 0.84054 0.0
C656 C 0.1828 0.00296 0.82826 0.0
C657 C 0.11531 0.95399 0.79631 0.0
C658 C 0.13862 0.9712 0.8069 0.0
H659 H 0.20737 0.074 0.85551 0.0
H660 H 0.1737 0.04904 0.83299 0.0
H661 H 0.23147 0.98481 0.81738 0.0
H662 H 0.11095 0.89666 0.78778 0.0
H663 H 0.14921 0.92497 0.80533 0.0
C664 C 0.22891 0.14071 0.97792 0.0
C665 C 0.25075 0.12367 0.96941 0.0
C666 C 0.21841 0.13881 -0.00267 0.0
C667 C 0.23876 0.10809 0.04342 0.0
H668 H 0.13154 0.11815 0.05373 0.0
C669 C 0.11817 0.08298 0.10471 0.0
C670 C 0.13804 0.0887 0.12163 0.0
C671 C 0.13342 0.08879 0.08663 0.0
C672 C 0.16152 0.1152 0.05108 0.0
H673 H 0.28048 0.09194 0.97496 0.0
H674 H 0.26215 0.08866 0.0087 0.0
H675 H 0.15705 0.12626 0.02162 0.0
H676 H 0.18985 0.10468 0.13281 0.0
H677 H 0.21634 0.11499 0.10122 0.0
H678 H 0.24291 0.09642 0.07278 0.0
C679 C 0.25319 0.10352 0.00042 0.0
C680 C 0.17628 0.12013 0.03274 0.0
C681 C 0.26355 0.10536 0.98101 0.0
C682 C 0.17366 0.10023 0.12004 0.0
C683 C 0.189 0.10594 0.10195 0.0
C684 C 0.22403 0.10325 0.06181 0.0
C685 C 0.2297 0.11991 0.00868 0.0
C686 C 0.21497 0.1164 0.02863 0.0
C687 C 0.16898 0.10037 0.08504 0.0
C688 C 0.18512 0.10648 0.06577 0.0
H689 H 0.21866 0.15508 0.96943 0.0
H690 H 0.20078 0.15191 0.00336 0.0
H691 H 0.26875 0.10518 0.04075 0.0
H692 H 0.09052 0.07428 0.10543 0.0
H693 H 0.11748 0.084 0.07387 0.0
C694 C 0.37871 0.34528 0.49089 0.0
C695 C 0.38475 0.36438 0.47851 0.0
C696 C 0.38176 0.34756 0.51092 0.0
C697 C 0.37512 0.39104 0.54836 0.0
H698 H 0.43245 0.34909 0.5807 0.0
C699 C 0.41349 0.41403 0.62572 0.0
C700 C 0.40983 0.39694 0.64014 0.0
C701 C 0.41126 0.40844 0.6063 0.0
C702 C 0.41594 0.36079 0.57189 0.0
H703 H 0.39928 0.40074 0.4775 0.0
H704 H 0.4044 0.40465 0.51219 0.0
H705 H 0.42592 0.34197 0.54614 0.0
H706 H 0.40235 0.36044 0.64553 0.0
H707 H 0.39797 0.35058 0.61139 0.0
H708 H 0.36485 0.40983 0.57386 0.0
C709 C 0.397 0.38797 0.50649 0.0
C710 C 0.41222 0.35671 0.55212 0.0
C711 C 0.39423 0.38568 0.48657 0.0
C712 C 0.40533 0.37395 0.6347 0.0
C713 C 0.40286 0.36833 0.61517 0.0
C714 C 0.37865 0.39504 0.56803 0.0
C715 C 0.39052 0.36902 0.51891 0.0
C716 C 0.39234 0.37206 0.54011 0.0
C717 C 0.40504 0.38561 0.60075 0.0
C718 C 0.3997 0.38024 0.58001 0.0
H719 H 0.37149 0.32861 0.48512 0.0
H720 H 0.3765 0.33267 0.52016 0.0
H721 H 0.35892 0.40291 0.53956 0.0
H722 H 0.41782 0.43184 0.62947 0.0
H723 H 0.41418 0.42211 0.5956 0.0
C724 C 0.71454 0.32764 0.02155 0.0
C725 C 0.73986 0.34551 0.02675 0.0
C726 C 0.70446 0.3245 0.00225 0.0
C727 C 0.70086 0.35664 0.95577 0.0
H728 H 0.67742 0.29664 0.93516 0.0
C729 C 0.66211 0.34269 0.87569 0.0
C730 C 0.63034 0.32816 0.8721 0.0
C731 C 0.67743 0.34437 0.89425 0.0
C732 C 0.68366 0.31351 0.94077 0.0
H733 H 0.77605 0.37335 0.01564 0.0
H734 H 0.75942 0.36746 0.98197 0.0
H735 H 0.70263 0.29974 0.96784 0.0
H736 H 0.58955 0.30424 0.88543 0.0
H737 H 0.61676 0.3069 0.91771 0.0
H738 H 0.68212 0.37035 0.9286 0.0
C739 C 0.7464 0.35626 0.99283 0.0
C740 C 0.69805 0.31531 0.95951 0.0
C741 C 0.7562 0.35953 0.01214 0.0
C742 C 0.61438 0.31531 0.88756 0.0
C743 C 0.62993 0.31684 0.90608 0.0
C744 C 0.68682 0.35482 0.93698 0.0
C745 C 0.71974 0.33903 0.98767 0.0
C746 C 0.70652 0.33692 0.96733 0.0
C747 C 0.66158 0.33141 0.90962 0.0
C748 C 0.67773 0.33325 0.92935 0.0
H749 H 0.7013 0.31658 0.03244 0.0
H750 H 0.68354 0.31122 -0.0011 0.0
H751 H 0.70631 0.3736 0.96138 0.0
H752 H 0.67566 0.3525 0.8641 0.0
H753 H 0.7021 0.35554 0.8965 0.0
C754 C 0.83928 0.10542 0.49888 0.0
C755 C 0.84812 0.12355 0.51131 0.0
C756 C 0.84569 0.1078 0.47907 0.0
C757 C 0.90336 0.14085 0.44357 0.0
H758 H 0.82783 0.11883 0.40692 0.0
C759 C 0.93277 0.14045 0.36166 0.0
C760 C 0.90376 0.14963 0.35001 0.0
C761 C 0.92602 0.13544 0.38117 0.0
C762 C 0.84918 0.12507 0.41698 0.0
H763 H 0.87021 0.15851 0.51262 0.0
H764 H 0.88131 0.16266 0.478 0.0
H765 H 0.81533 0.11471 0.44143 0.0
H766 H 0.84449 0.15974 0.34938 0.0
H767 H 0.83271 0.15104 0.38338 0.0
H768 H 0.93694 0.15155 0.41912 0.0
C769 C 0.86973 0.14654 0.48364 0.0
C770 C 0.84215 0.12257 0.43674 0.0
C771 C 0.8631 0.14421 0.50345 0.0
C772 C 0.8675 0.15289 0.35807 0.0
C773 C 0.86067 0.14773 0.3775 0.0
C774 C 0.9105 0.14322 0.42382 0.0
C775 C 0.86129 0.12831 0.47124 0.0
C776 C 0.86902 0.1306 0.45025 0.0
C777 C 0.89001 0.1393 0.38934 0.0
C778 C 0.88336 0.13552 0.4103 0.0
H779 H 0.82774 0.08926 0.50445 0.0
H780 H 0.83919 0.09338 0.46992 0.0
H781 H 0.92482 0.14696 0.45362 0.0
H782 H 0.96105 0.13787 0.35585 0.0
H783 H 0.94907 0.12874 0.3899 0.0
C784 C 0.83115 0.87123 0.00794 0.0
C785 C 0.85809 0.87398 0.02284 0.0
C786 C 0.84265 0.87262 0.98864 0.0
C787 C 0.91852 0.8987 0.9586 0.0
H788 H 0.88102 0.85788 0.91903 0.0
C789 C 0.97892 0.90375 0.8817 0.0
C790 C 0.95301 0.90129 0.86636 0.0
C791 C 0.96739 0.89895 0.90062 0.0
C792 C 0.89143 0.86958 0.92987 0.0
H793 H 0.91842 0.8793 0.02914 0.0
H794 H 0.93831 0.88165 0.99559 0.0
H795 H 0.86035 0.85178 0.95239 0.0
H796 H 0.8947 0.89182 0.85879 0.0
H797 H 0.87431 0.88375 0.89187 0.0
H798 H 0.94899 0.9168 0.93624 0.0
C799 C 0.90827 0.87876 -0.0012 0.0
C800 C 0.87963 0.86604 0.94898 0.0
C801 C 0.89686 0.87728 0.01804 0.0
C802 C 0.91542 0.89363 0.87032 0.0
C803 C 0.90378 0.88896 0.88927 0.0
C804 C 0.9301 0.90232 0.93955 0.0
C805 C 0.88124 0.87689 0.98389 0.0
C806 C 0.89327 0.88049 0.96355 0.0
C807 C 0.92955 0.89174 0.90468 0.0
C808 C 0.9169 0.88775 0.92494 0.0
H809 H 0.80106 0.86864 0.01117 0.0
H810 H 0.82115 0.87119 0.97744 0.0
H811 H 0.92891 0.91042 0.96945 0.0
H812 H 1.00824 0.90929 0.87905 0.0
H813 H 0.98822 0.90082 0.91208 0.0
C814 C 0.65052 0.63247 0.50783 0.0
C815 C 0.68762 0.63002 0.51532 0.0
C816 C 0.64443 0.63365 0.48794 0.0
C817 C 0.69301 0.64185 0.44072 0.0
H818 H 0.6137 0.5999 0.42279 0.0
C819 C 0.69267 0.60402 0.36484 0.0
C820 C 0.6576 0.59948 0.3556 0.0
C821 C 0.69364 0.61224 0.3836 0.0
C822 C 0.63546 0.61207 0.42748 0.0
H823 H 0.74765 0.62822 0.5078 0.0
H824 H 0.737 0.63011 0.47313 0.0
H825 H 0.62035 0.60681 0.45708 0.0
H826 H 0.59598 0.60078 0.3586 0.0
H827 H 0.59766 0.61553 0.39129 0.0
H828 H 0.70872 0.64662 0.4111 0.0
C829 C 0.7126 0.63125 0.48262 0.0
C830 C 0.63928 0.61602 0.44718 0.0
C831 C 0.71869 0.63003 0.50251 0.0
C832 C 0.62347 0.60418 0.36529 0.0
C833 C 0.62444 0.61242 0.38408 0.0
C834 C 0.68913 0.63793 0.421 0.0
C835 C 0.67532 0.63248 0.47511 0.0
C836 C 0.6686 0.63058 0.45406 0.0
C837 C 0.65954 0.61618 0.39357 0.0
C838 C 0.66082 0.6226 0.41419 0.0
H839 H 0.62596 0.6327 0.5173 0.0
H840 H 0.61543 0.63496 0.48259 0.0
H841 H 0.71552 0.65342 0.44556 0.0
H842 H 0.71948 0.60091 0.35766 0.0
H843 H 0.72117 0.6147 0.39051 0.0
C844 C 0.38387 0.60953 0.98031 0.0
C845 C 0.34929 0.61563 0.97144 0.0
C846 C 0.38743 0.60936 0.00034 0.0
C847 C 0.34518 0.63038 0.04517 0.0
H848 H 0.39128 0.57645 0.06807 0.0
C849 C 0.37686 0.62105 0.12691 0.0
C850 C 0.36651 0.59984 0.13555 0.0
C851 C 0.37594 0.62392 0.10687 0.0
C852 C 0.37824 0.59158 0.0619 0.0
H853 H 0.29175 0.62719 0.97665 0.0
H854 H 0.29801 0.62685 0.01174 0.0
H855 H 0.38715 0.58041 0.03313 0.0
H856 H 0.34784 0.56492 0.12998 0.0
H857 H 0.34612 0.56994 0.09503 0.0
H858 H 0.33575 0.64133 0.07405 0.0
C859 C 0.32239 0.62227 0.00313 0.0
C860 C 0.37622 0.59397 0.04188 0.0
C861 C 0.31875 0.62237 0.98304 0.0
C862 C 0.35567 0.58151 0.12374 0.0
C863 C 0.35502 0.58433 0.10373 0.0
C864 C 0.34743 0.62806 0.06524 0.0
C865 C 0.35655 0.61535 0.01199 0.0
C866 C 0.35952 0.61333 0.03329 0.0
C867 C 0.36498 0.60559 0.09507 0.0
C868 C 0.36374 0.60854 0.0738 0.0
H869 H 0.40806 0.6044 0.97182 0.0
H870 H 0.41432 0.60431 0.00674 0.0
H871 H 0.33238 0.64556 0.03895 0.0
H872 H 0.38501 0.63554 0.13566 0.0
H873 H 0.38408 0.64044 0.1006 0.0
C874 C 0.21851 0.85898 0.48202 0.0
C875 C 0.18952 0.86823 0.47037 0.0
C876 C 0.21547 0.85913 0.50212 0.0
C877 C 0.16874 0.89054 0.54064 0.0
H878 H 0.19935 0.83951 0.57332 0.0
C879 C 0.18797 0.89878 0.62276 0.0
C880 C 0.1731 0.8808 0.63443 0.0
C881 C 0.18963 0.8966 0.60277 0.0
C882 C 0.19049 0.85384 0.56437 0.0
H883 H 0.13397 0.88411 0.4707 0.0
H884 H 0.12866 0.88422 0.50566 0.0
H885 H 0.20178 0.8361 0.53829 0.0
H886 H 0.14884 0.84628 0.63429 0.0
H887 H 0.15145 0.84255 0.59933 0.0
H888 H 0.15718 0.90824 0.56665 0.0
C889 C 0.15399 0.87718 0.49928 0.0
C890 C 0.19221 0.85197 0.54433 0.0
C891 C 0.15696 0.87698 0.47923 0.0
C892 C 0.16012 0.86053 0.62567 0.0
C893 C 0.16198 0.8583 0.60568 0.0
C894 C 0.16721 0.89246 0.56064 0.0
C895 C 0.18345 0.86858 0.51096 0.0
C896 C 0.18131 0.8703 0.53225 0.0
C897 C 0.17664 0.87634 0.594 0.0
C898 C 0.17811 0.87415 0.57274 0.0
H899 H 0.24396 0.8521 0.47565 0.0
H900 H 0.23876 0.8525 0.51073 0.0
H901 H 0.16056 0.90507 0.53174 0.0
H902 H 0.19791 0.91468 0.62907 0.0
H903 H 0.20142 0.91073 0.59418 0.0
C904 C 0.26167 0.27327 0.36093 0.0
C905 C 0.2403 0.28966 0.37055 0.0
C906 C 0.24351 0.25703 0.34927 0.0
C907 C 0.15315 0.24586 0.32268 0.0
H908 H 0.1891 0.18348 0.32206 0.0
C909 C 0.09615 0.18014 0.26786 0.0
C910 C 0.08998 0.1575 0.27447 0.0
C911 C 0.11505 0.19614 0.27944 0.0
C912 C 0.17849 0.20078 0.32217 0.0
H913 H 0.183 0.30166 0.37563 0.0
H914 H 0.15129 0.27312 0.35559 0.0
H915 H 0.22019 0.21133 0.34298 0.0
H916 H 0.09796 0.13387 0.29851 0.0
H917 H 0.13005 0.16192 0.319 0.0
H918 H 0.11078 0.23516 0.30227 0.0
C919 C 0.18217 0.27305 0.35675 0.0
C920 C 0.19664 0.21684 0.334 0.0
C921 C 0.20034 0.28934 0.36835 0.0
C922 C 0.10246 0.15122 0.29303 0.0
C923 C 0.12119 0.16724 0.30467 0.0
C924 C 0.13494 0.22979 0.3109 0.0
C925 C 0.20353 0.25673 0.34699 0.0
C926 C 0.1842 0.23959 0.33441 0.0
C927 C 0.12777 0.18991 0.29802 0.0
C928 C 0.14736 0.20704 0.31049 0.0
H929 H 0.29253 0.27309 0.36224 0.0
H930 H 0.26094 0.24494 0.34177 0.0
H931 H 0.14308 0.26328 0.32243 0.0
H932 H 0.08615 0.18556 0.25377 0.0
H933 H 0.11994 0.21336 0.27375 0.0
C934 C 0.30504 0.21494 0.87278 0.0
C935 C 0.31885 0.19272 0.87581 0.0
C936 C 0.32674 0.23145 0.86255 0.0
C937 C 0.42507 0.24511 0.8448 0.0
H938 H 0.37177 0.28542 0.80927 0.0
C939 C 0.50241 0.30346 0.78794 0.0
C940 C 0.48927 0.32594 0.78597 0.0
C941 C 0.48252 0.28731 0.79945 0.0
C942 C 0.38702 0.27442 0.81927 0.0
H943 H 0.36656 0.17051 0.87066 0.0
H944 H 0.40408 0.19915 0.8525 0.0
H945 H 0.33553 0.25716 0.82846 0.0
H946 H 0.44585 0.34941 0.79487 0.0
H947 H 0.41058 0.32114 0.81461 0.0
H948 H 0.47666 0.26226 0.83528 0.0
C949 C 0.37676 0.20398 0.8583 0.0
C950 C 0.36625 0.25826 0.83032 0.0
C951 C 0.35514 0.1875 0.86864 0.0
C952 C 0.4562 0.33208 0.79588 0.0
C953 C 0.43607 0.31591 0.80719 0.0
C954 C 0.44586 0.2612 0.83364 0.0
C955 C 0.36269 0.22612 0.85497 0.0
C956 C 0.38497 0.24342 0.84329 0.0
C957 C 0.44892 0.29332 0.80905 0.0
C958 C 0.42703 0.27607 0.8208 0.0
H959 H 0.2773 0.21957 0.87821 0.0
H960 H 0.31529 0.24844 0.8606 0.0
H961 H 0.44041 0.2342 0.85481 0.0
H962 H 0.52767 0.29824 0.78031 0.0
H963 H 0.49293 0.26998 0.80048 0.0
C964 C 0.70728 0.18468 0.64507 0.0
C965 C 0.73537 0.19082 0.6314 0.0
C966 C 0.69106 0.20131 0.65657 0.0
C967 C 0.70461 0.26221 0.67196 0.0
H968 H 0.59926 0.2538 0.68842 0.0
C969 C 0.61069 0.33251 0.70542 0.0
C970 C 0.59466 0.32634 0.72334 0.0
C971 C 0.62942 0.31624 0.69454 0.0
C972 C 0.62877 0.25627 0.68397 0.0
H973 H 0.76817 0.2192 0.61882 0.0
H974 H 0.73857 0.24841 0.63809 0.0
H975 H 0.62809 0.22524 0.66819 0.0
H976 H 0.58498 0.29851 0.74394 0.0
H977 H 0.61669 0.26978 0.72456 0.0
H978 H 0.70416 0.29393 0.68717 0.0
C979 C 0.72992 0.23068 0.64055 0.0
C980 C 0.64551 0.23983 0.67249 0.0
C981 C 0.74675 0.21395 0.62936 0.0
C982 C 0.59746 0.30367 0.73022 0.0
C983 C 0.61535 0.28727 0.71914 0.0
C984 C 0.68752 0.2789 0.6831 0.0
C985 C 0.70186 0.22462 0.65439 0.0
C986 C 0.68382 0.24243 0.66641 0.0
C987 C 0.63148 0.29344 0.70122 0.0
C988 C 0.64957 0.27596 0.6893 0.0
H989 H 0.69822 0.16693 0.6471 0.0
H990 H 0.67034 0.19574 0.66732 0.0
H991 H 0.73431 0.26474 0.66797 0.0
H992 H 0.60884 0.34994 0.69988 0.0
H993 H 0.64152 0.32132 0.68072 0.0
C994 C 0.84874 0.29899 0.12919 0.0
C995 C 0.8108 0.29358 0.12396 0.0
C996 C 0.8707 0.28306 0.13937 0.0
C997 C 0.87867 0.22136 0.15012 0.0
H998 H 0.9372 0.24126 0.19454 0.0
C999 C 0.98598 0.16303 0.18994 0.0
C1000 C 0.98392 0.16252 0.21018 0.0
C1001 C 0.96565 0.17919 0.17916 0.0
C1002 C 0.92091 0.23545 0.1822 0.0
H1003 H 0.76634 0.26709 0.12509 0.0
H1004 H 0.8048 0.23926 0.14272 0.0
H1005 H 0.90002 0.26905 0.17604 0.0
H1006 H 0.95916 0.17885 0.23494 0.0
H1007 H 0.92393 0.20709 0.21608 0.0
H1008 H 0.89935 0.18773 0.15635 0.0
C1009 C 0.81755 0.25581 0.13892 0.0
C1010 C 0.89992 0.25139 0.17151 0.0
C1011 C 0.79547 0.2718 0.12891 0.0
C1012 C 0.9614 0.17872 0.21938 0.0
C1013 C 0.94135 0.19499 0.20859 0.0
C1014 C 0.89996 0.20547 0.16069 0.0
C1015 C 0.85532 0.26131 0.14437 0.0
C1016 C 0.8784 0.24449 0.15542 0.0
C1017 C 0.9431 0.19533 0.18836 0.0
C1018 C 0.92115 0.21232 0.17691 0.0
H1019 H 0.86141 0.31562 0.1256 0.0
H1020 H 0.89985 0.28771 0.14321 0.0
H1021 H 0.86259 0.21557 0.1377 0.0
H1022 H 1.00301 0.15082 0.18235 0.0
H1023 H 0.96784 0.17917 0.16359 0.0
C1024 C 0.78642 0.70893 0.63511 0.0
C1025 C 0.80666 0.69035 0.62798 0.0
C1026 C 0.80553 0.72655 0.64482 0.0
C1027 C 0.90146 0.75313 0.6517 0.0
H1028 H 0.8556 0.77827 0.6973 0.0
C1029 C 0.98378 0.81413 0.70255 0.0
C1030 C 0.96378 0.83267 0.70989 0.0
C1031 C 0.9646 0.79714 0.69211 0.0
C1032 C 0.86858 0.77162 0.68446 0.0
H1033 H 0.86288 0.6757 0.6255 0.0
H1034 H 0.89614 0.7063 0.64265 0.0
H1035 H 0.82213 0.74782 0.68006 0.0
H1036 H 0.90829 0.84846 0.71128 0.0
H1037 H 0.87479 0.81872 0.69327 0.0
H1038 H 0.94801 0.77687 0.65619 0.0
C1039 C 0.86556 0.70741 0.6405 0.0
C1040 C 0.8494 0.75416 0.67457 0.0
C1041 C 0.84645 0.68979 0.63077 0.0
C1042 C 0.92436 0.83411 0.70622 0.0
C1043 C 0.90516 0.81709 0.69587 0.0
C1044 C 0.92067 0.77056 0.66161 0.0
C1045 C 0.84533 0.726 0.64765 0.0
C1046 C 0.86563 0.74469 0.65808 0.0
C1047 C 0.92502 0.79834 0.68878 0.0
C1048 C 0.90446 0.77998 0.67811 0.0
H1049 H 0.75577 0.70992 0.63313 0.0
H1050 H 0.78916 0.74077 0.64991 0.0
H1051 H 0.91449 0.74647 0.63888 0.0
H1052 H 1.01413 0.81244 0.7052 0.0
H1053 H 0.98065 0.78279 0.68701 0.0
C1054 C 0.67393 0.80777 0.14637 0.0
C1055 C 0.7102 0.80441 0.13835 0.0
C1056 C 0.65458 0.78985 0.15613 0.0
C1057 C 0.66947 0.73265 0.17927 0.0
H1058 H 0.55964 0.72599 0.17277 0.0
C1059 C 0.58529 0.65099 0.20295 0.0
C1060 C 0.55217 0.65426 0.21384 0.0
C1061 C 0.60396 0.66957 0.19383 0.0
C1062 C 0.59026 0.72776 0.17484 0.0
H1063 H 0.75459 0.77959 0.13429 0.0
H1064 H 0.72053 0.74821 0.15085 0.0
H1065 H 0.59386 0.75792 0.15691 0.0
H1066 H 0.51151 0.67928 0.2231 0.0
H1067 H 0.54374 0.71182 0.20674 0.0
H1068 H 0.66578 0.70213 0.19686 0.0
C1069 C 0.70729 0.76481 0.15001 0.0
C1070 C 0.60991 0.7461 0.16582 0.0
C1071 C 0.72678 0.78278 0.1404 0.0
C1072 C 0.53697 0.67629 0.21473 0.0
C1073 C 0.55545 0.69488 0.20544 0.0
C1074 C 0.64986 0.7142 0.18813 0.0
C1075 C 0.67087 0.76807 0.15796 0.0
C1076 C 0.64981 0.74877 0.16787 0.0
C1077 C 0.58946 0.69175 0.19514 0.0
C1078 C 0.61008 0.71153 0.18595 0.0
H1079 H 0.66045 0.82427 0.14514 0.0
H1080 H 0.62691 0.79315 0.16234 0.0
H1081 H 0.70004 0.73436 0.18151 0.0
H1082 H 0.59714 0.63408 0.20174 0.0
H1083 H 0.62978 0.66659 0.18574 0.0
C1084 C 0.3415 0.78942 0.3593 0.0
C1085 C 0.30134 0.78778 0.35941 0.0
C1086 C 0.36314 0.77222 0.35115 0.0
C1087 C 0.35836 0.71166 0.33597 0.0
H1088 H 0.44311 0.73022 0.30288 0.0
C1089 C 0.45428 0.67206 0.27181 0.0
C1090 C 0.46433 0.65079 0.27991 0.0
C1091 C 0.43685 0.68845 0.28298 0.0
C1092 C 0.41952 0.72475 0.31208 0.0
H1093 H 0.25245 0.76661 0.35118 0.0
H1094 H 0.2902 0.73673 0.33681 0.0
H1095 H 0.40726 0.75925 0.31947 0.0
H1096 H 0.46469 0.63008 0.30611 0.0
H1097 H 0.4339 0.65891 0.32582 0.0
H1098 H 0.37006 0.67716 0.32808 0.0
C1099 C 0.30498 0.7512 0.34323 0.0
C1100 C 0.3992 0.74138 0.32174 0.0
C1101 C 0.28333 0.76842 0.35133 0.0
C1102 C 0.45712 0.64634 0.29953 0.0
C1103 C 0.43935 0.66276 0.31074 0.0
C1104 C 0.37882 0.695 0.32635 0.0
C1105 C 0.34514 0.75294 0.34295 0.0
C1106 C 0.36806 0.73507 0.3336 0.0
C1107 C 0.42898 0.68399 0.30255 0.0
C1108 C 0.40927 0.7014 0.31407 0.0
H1109 H 0.3563 0.80405 0.36548 0.0
H1110 H 0.39403 0.77397 0.35136 0.0
H1111 H 0.3348 0.70622 0.34519 0.0
H1112 H 0.45982 0.67605 0.25675 0.0
H1113 H 0.42884 0.7045 0.27617 0.0
C1114 C 0.17918 0.6765 0.84397 0.0
C1115 C 0.21676 0.68071 0.85043 0.0
C1116 C 0.15932 0.69348 0.83389 0.0
C1117 C 0.15641 0.75598 0.82633 0.0
H1118 H 0.0972 0.74095 0.78079 0.0
C1119 C 0.07884 0.80612 0.75924 0.0
C1120 C 0.05853 0.82267 0.76927 0.0
C1121 C 0.09656 0.78819 0.76918 0.0
C1122 C 0.1137 0.74541 0.79345 0.0
H1123 H 0.263 0.70605 0.85129 0.0
H1124 H 0.2283 0.73568 0.83373 0.0
H1125 H 0.13215 0.71092 0.79784 0.0
H1126 H 0.04041 0.83305 0.79765 0.0
H1127 H 0.07135 0.80175 0.81493 0.0
H1128 H 0.13828 0.79049 0.82185 0.0
C1129 C 0.21413 0.71928 0.83656 0.0
C1130 C 0.13345 0.72819 0.8033 0.0
C1131 C 0.23409 0.70225 0.84652 0.0
C1132 C 0.05578 0.82062 0.78944 0.0
C1133 C 0.07375 0.80278 0.79938 0.0
C1134 C 0.13643 0.77315 0.81657 0.0
C1135 C 0.1765 0.71511 0.83017 0.0
C1136 C 0.15517 0.73331 0.8198 0.0
C1137 C 0.09458 0.78648 0.78937 0.0
C1138 C 0.11498 0.76807 0.79998 0.0
H1139 H 0.16498 0.6601 0.84676 0.0
H1140 H 0.13024 0.68982 0.8293 0.0
H1141 H 0.17259 0.76042 0.8391 0.0
H1142 H 0.08145 0.80713 0.7437 0.0
H1143 H 0.11265 0.77599 0.76107 0.0
loop_
_geom_bond_atom_site_label_1
_geom_bond_atom_site_label_2
_geom_bond_distance
_geom_bond_site_symmetry_2
_ccdc_geom_bond_type
O0 Cd1 2.300 . S
O0 C7 1.275 . S
Cd1 O0 2.300 . S
Cd1 O9 2.381 . S
Cd1 O10 2.378 . S
O2 Cd3 2.385 . S
O2 C7 1.255 . S
Cd3 O2 2.385 . S
Cd3 O4 2.317 . S
O4 Cd3 2.317 . S
O4 C5 1.232 . S
C5 O4 1.232 . S
C5 O6 1.218 . S
O6 C5 1.218 . S
C7 O0 1.275 . S
C7 O2 1.255 . S
C8 O9 1.258 . S
C8 O10 1.256 . S
O9 Cd1 2.381 . S
O9 C8 1.258 . S
O10 Cd1 2.378 . S
O10 C8 1.256 . S
O11 Cd12 2.300 . S
O11 C18 1.275 . S
Cd12 O11 2.300 . S
Cd12 O20 2.381 . S
Cd12 O21 2.378 . S
O13 Cd14 2.385 . S
O13 C18 1.255 . S
Cd14 O13 2.385 . S
Cd14 O15 2.317 . S
O15 Cd14 2.317 . S
O15 C16 1.232 . S
C16 O15 1.232 . S
C16 O17 1.218 . S
O17 C16 1.218 . S
C18 O11 1.275 . S
C18 O13 1.255 . S
C19 O20 1.258 . S
C19 O21 1.256 . S
O20 Cd12 2.381 . S
O20 C19 1.258 . S
O21 Cd12 2.378 . S
O21 C19 1.256 . S
O22 Cd23 2.300 . S
O22 C29 1.275 . S
Cd23 O22 2.300 . S
Cd23 O31 2.381 . S
Cd23 O32 2.378 . S
O24 Cd25 2.385 . S
O24 C29 1.255 . S
Cd25 O24 2.385 . S
Cd25 O26 2.317 . S
O26 Cd25 2.317 . S
O26 C27 1.232 . S
C27 O26 1.232 . S
C27 O28 1.218 . S
O28 C27 1.218 . S
C29 O22 1.275 . S
C29 O24 1.255 . S
C30 O31 1.258 . S
C30 O32 1.256 . S
O31 Cd23 2.381 . S
O31 C30 1.258 . S
O32 Cd23 2.378 . S
O32 C30 1.256 . S
O33 Cd34 2.300 . S
O33 C40 1.275 . S
Cd34 O33 2.300 . S
Cd34 O42 2.381 . S
Cd34 O43 2.378 . S
O35 Cd36 2.385 . S
O35 C40 1.255 . S
Cd36 O35 2.385 . S
Cd36 O37 2.317 . S
O37 Cd36 2.317 . S
O37 C38 1.232 . S
C38 O37 1.232 . S
C38 O39 1.218 . S
O39 C38 1.218 . S
C40 O33 1.275 . S
C40 O35 1.255 . S
C41 O42 1.258 . S
C41 O43 1.256 . S
O42 Cd34 2.381 . S
O42 C41 1.258 . S
O43 Cd34 2.378 . S
O43 C41 1.256 . S
O44 Cd45 2.300 . S
O44 C51 1.275 . S
Cd45 O44 2.300 . S
Cd45 O53 2.381 . S
Cd45 O54 2.378 . S
O46 Cd47 2.385 . S
O46 C51 1.255 . S
Cd47 O46 2.385 . S
Cd47 O48 2.317 . S
O48 Cd47 2.317 . S
O48 C49 1.232 . S
C49 O48 1.232 . S
C49 O50 1.218 . S
O50 C49 1.218 . S
C51 O44 1.275 . S
C51 O46 1.255 . S
C52 O53 1.258 . S
C52 O54 1.256 . S
O53 Cd45 2.381 . S
O53 C52 1.258 . S
O54 Cd45 2.378 . S
O54 C52 1.256 . S
O55 Cd56 2.300 . S
O55 C62 1.275 . S
Cd56 O55 2.300 . S
Cd56 O64 2.381 . S
Cd56 O65 2.378 . S
O57 Cd58 2.385 . S
O57 C62 1.255 . S
Cd58 O57 2.385 . S
Cd58 O59 2.317 . S
O59 Cd58 2.317 . S
O59 C60 1.232 . S
C60 O59 1.232 . S
C60 O61 1.218 . S
O61 C60 1.218 . S
C62 O55 1.275 . S
C62 O57 1.255 . S
C63 O64 1.258 . S
C63 O65 1.256 . S
O64 Cd56 2.381 . S
O64 C63 1.258 . S
O65 Cd56 2.378 . S
O65 C63 1.256 . S
O66 Cd67 2.300 . S
O66 C73 1.275 . S
Cd67 O66 2.300 . S
Cd67 O75 2.381 . S
Cd67 O76 2.378 . S
O68 Cd69 2.385 . S
O68 C73 1.255 . S
Cd69 O68 2.385 . S
Cd69 O70 2.317 . S
O70 Cd69 2.317 . S
O70 C71 1.232 . S
C71 O70 1.232 . S
C71 O72 1.218 . S
O72 C71 1.218 . S
C73 O66 1.275 . S
C73 O68 1.255 . S
C74 O75 1.258 . S
C74 O76 1.256 . S
O75 Cd67 2.381 . S
O75 C74 1.258 . S
O76 Cd67 2.378 . S
O76 C74 1.256 . S
O77 Cd78 2.300 . S
O77 C84 1.275 . S
Cd78 O77 2.300 . S
Cd78 O86 2.381 . S
Cd78 O87 2.378 . S
O79 Cd80 2.385 . S
O79 C84 1.255 . S
Cd80 O79 2.385 . S
Cd80 O81 2.317 . S
O81 Cd80 2.317 . S
O81 C82 1.232 . S
C82 O81 1.232 . S
C82 O83 1.218 . S
O83 C82 1.218 . S
C84 O77 1.275 . S
C84 O79 1.255 . S
C85 O86 1.258 . S
C85 O87 1.256 . S
O86 Cd78 2.381 . S
O86 C85 1.258 . S
O87 Cd78 2.378 . S
O87 C85 1.256 . S
Tb88 N117 2.617 . S
Tb88 N123 2.572 . S
Tb88 O132 2.465 . S
Tb88 O133 2.387 . S
Tb88 O135 2.428 . S
Tb88 O136 2.308 . S
Tb88 O140 2.349 . S
Tb88 O143 2.393 . S
Tb88 C152 2.802 . S
C89 N90 1.379 . S
C89 C92 1.416 . S
C89 C96 1.424 . S
N90 C89 1.379 . S
N90 C93 1.334 . S
N90 Tb99 2.617 . S
C91 C93 1.390 . S
C91 C94 1.339 . S
C91 H111 0.930 . S
C92 C89 1.416 . S
C92 C94 1.416 . S
C92 C98 1.448 . S
C93 N90 1.334 . S
C93 C91 1.390 . S
C93 H104 0.930 . S
C94 C91 1.339 . S
C94 C92 1.416 . S
C94 H115 0.930 . S
C95 C96 1.413 . S
C95 C97 1.427 . S
C95 C101 1.416 . S
C96 C89 1.424 . S
C96 C95 1.413 . S
C96 N100 1.361 . S
C97 C95 1.427 . S
C97 C98 1.328 . S
C97 H112 0.929 . S
C98 C92 1.448 . S
C98 C97 1.328 . S
C98 H113 0.930 . S
Tb99 N90 2.617 . S
Tb99 N100 2.572 . S
Tb99 O134 2.349 1_655 S
Tb99 O137 2.393 . S
Tb99 O138 2.465 . S
Tb99 O139 2.387 . S
Tb99 O141 2.428 . S
Tb99 O142 2.308 1_655 S
Tb99 C163 2.802 . S
N100 C96 1.361 . S
N100 Tb99 2.572 . S
N100 C102 1.340 . S
C101 C95 1.416 . S
C101 C103 1.332 . S
C101 H109 0.931 . S
C102 N100 1.340 . S
C102 C103 1.407 . S
C102 H108 0.930 . S
C103 C101 1.332 . S
C103 C102 1.407 . S
C103 H105 0.929 . S
H104 C93 0.930 . S
H105 C103 0.929 . S
H106 C121 0.930 . S
H107 C128 0.929 . S
H108 C102 0.930 . S
H109 C101 0.931 . S
H110 C124 0.930 . S
H111 C91 0.930 . S
H112 C97 0.929 . S
H113 C98 0.930 . S
H114 C119 0.930 . S
H115 C94 0.930 . S
H116 C127 0.931 . S
N117 Tb88 2.617 . S
N117 C118 1.379 . S
N117 C121 1.334 . S
C118 N117 1.379 . S
C118 C120 1.416 . S
C118 C126 1.424 . S
C119 H114 0.930 . S
C119 C121 1.390 . S
C119 C122 1.339 . S
C120 C118 1.416 . S
C120 C122 1.416 . S
C120 C153 1.448 . S
C121 H106 0.930 . S
C121 N117 1.334 . S
C121 C119 1.390 . S
C122 C119 1.339 . S
C122 C120 1.416 . S
C122 H129 0.930 . S
N123 Tb88 2.572 . S
N123 C124 1.340 . S
N123 C126 1.361 . S
C124 H110 0.930 . S
C124 N123 1.340 . S
C124 C128 1.407 . S
C125 C126 1.413 . S
C125 C127 1.416 . S
C125 C154 1.427 . S
C126 C118 1.424 . S
C126 N123 1.361 . S
C126 C125 1.413 . S
C127 H116 0.931 . S
C127 C125 1.416 . S
C127 C128 1.332 . S
C128 H107 0.929 . S
C128 C124 1.407 . S
C128 C127 1.332 . S
H129 C122 0.930 . S
H130 C153 0.930 . S
H131 C154 0.929 . S
O132 Tb88 2.465 . S
O132 C152 1.264 . S
O133 Tb88 2.387 . S
O133 C144 1.264 . S
O134 Tb99 2.349 1_455 S
O134 C144 1.243 . S
O135 Tb88 2.428 . S
O135 C152 1.256 . S
O136 Tb88 2.308 . S
O136 C151 1.266 1_455 S
O137 Tb99 2.393 . S
O137 C151 1.248 . S
O138 Tb99 2.465 . S
O138 C163 1.264 . S
O139 Tb99 2.387 . S
O139 C155 1.264 . S
O140 Tb88 2.349 . S
O140 C155 1.243 1_455 S
O141 Tb99 2.428 . S
O141 C163 1.256 . S
O142 Tb99 2.308 1_455 S
O142 C162 1.266 . S
O143 Tb88 2.393 . S
O143 C162 1.248 . S
C144 O133 1.264 . S
C144 O134 1.243 . S
C145 C148 1.399 . S
C145 C150 1.383 . S
C145 C152 1.496 . S
C146 C147 1.399 . S
C146 C150 1.389 . S
C147 C146 1.399 . S
C147 C149 1.380 . S
C147 H164 0.929 . S
C148 C145 1.399 . S
C148 C149 1.392 . S
C148 H165 0.929 . S
C149 C147 1.380 . S
C149 C148 1.392 . S
C149 H166 0.929 . S
C150 C145 1.383 . S
C150 C146 1.389 . S
C150 H167 0.931 . S
C151 O136 1.266 1_655 S
C151 O137 1.248 . S
C152 Tb88 2.802 . S
C152 O132 1.264 . S
C152 O135 1.256 . S
C152 C145 1.496 . S
C153 C120 1.448 . S
C153 H130 0.930 . S
C153 C154 1.328 . S
C154 C125 1.427 . S
C154 H131 0.929 . S
C154 C153 1.328 . S
C155 O139 1.264 . S
C155 O140 1.243 1_655 S
C156 C159 1.399 . S
C156 C160 1.383 . S
C156 C163 1.496 . S
C157 C158 1.399 . S
C157 C160 1.389 . S
C158 C157 1.399 . S
C158 C161 1.380 . S
C158 H168 0.929 . S
C159 C156 1.399 . S
C159 C161 1.392 . S
C159 H169 0.929 . S
C160 C156 1.383 . S
C160 C157 1.389 . S
C160 H170 0.931 . S
C161 C158 1.380 . S
C161 C159 1.392 . S
C161 H171 0.929 . S
C162 O142 1.266 . S
C162 O143 1.248 . S
C163 Tb99 2.802 . S
C163 O138 1.264 . S
C163 O141 1.256 . S
C163 C156 1.496 . S
H164 C147 0.929 . S
H165 C148 0.929 . S
H166 C149 0.929 . S
H167 C150 0.931 . S
H168 C158 0.929 . S
H169 C159 0.929 . S
H170 C160 0.931 . S
H171 C161 0.929 . S
Tb172 N201 2.617 . S
Tb172 N207 2.572 . S
Tb172 O216 2.465 . S
Tb172 O217 2.387 . S
Tb172 O219 2.428 . S
Tb172 O220 2.308 . S
Tb172 O224 2.349 . S
Tb172 O227 2.393 . S
Tb172 C236 2.802 . S
C173 N174 1.379 . S
C173 C176 1.416 . S
C173 C180 1.424 . S
N174 C173 1.379 . S
N174 C177 1.334 . S
N174 Tb183 2.617 . S
C175 C177 1.390 . S
C175 C178 1.339 . S
C175 H195 0.930 . S
C176 C173 1.416 . S
C176 C178 1.416 . S
C176 C182 1.448 . S
C177 N174 1.334 . S
C177 C175 1.390 . S
C177 H188 0.930 . S
C178 C175 1.339 . S
C178 C176 1.416 . S
C178 H199 0.930 . S
C179 C180 1.413 . S
C179 C181 1.427 . S
C179 C185 1.416 . S
C180 C173 1.424 . S
C180 C179 1.413 . S
C180 N184 1.361 . S
C181 C179 1.427 . S
C181 C182 1.328 . S
C181 H196 0.929 . S
C182 C176 1.448 . S
C182 C181 1.328 . S
C182 H197 0.930 . S
Tb183 N174 2.617 . S
Tb183 N184 2.572 . S
Tb183 O218 2.349 . S
Tb183 O221 2.393 . S
Tb183 O222 2.465 . S
Tb183 O223 2.387 . S
Tb183 O225 2.428 . S
Tb183 O226 2.308 . S
Tb183 C247 2.802 . S
N184 C180 1.361 . S
N184 Tb183 2.572 . S
N184 C186 1.340 . S
C185 C179 1.416 . S
C185 C187 1.332 . S
C185 H193 0.931 . S
C186 N184 1.340 . S
C186 C187 1.407 . S
C186 H192 0.930 . S
C187 C185 1.332 . S
C187 C186 1.407 . S
C187 H189 0.929 . S
H188 C177 0.930 . S
H189 C187 0.929 . S
H190 C205 0.930 . S
H191 C212 0.929 . S
H192 C186 0.930 . S
H193 C185 0.931 . S
H194 C208 0.930 . S
H195 C175 0.930 . S
H196 C181 0.929 . S
H197 C182 0.930 . S
H198 C203 0.930 . S
H199 C178 0.930 . S
H200 C211 0.931 . S
N201 Tb172 2.617 . S
N201 C202 1.379 . S
N201 C205 1.334 . S
C202 N201 1.379 . S
C202 C204 1.416 . S
C202 C210 1.424 . S
C203 H198 0.930 . S
C203 C205 1.390 . S
C203 C206 1.339 . S
C204 C202 1.416 . S
C204 C206 1.416 . S
C204 C237 1.448 . S
C205 H190 0.930 . S
C205 N201 1.334 . S
C205 C203 1.390 . S
C206 C203 1.339 . S
C206 C204 1.416 . S
C206 H213 0.930 . S
N207 Tb172 2.572 . S
N207 C208 1.340 . S
N207 C210 1.361 . S
C208 H194 0.930 . S
C208 N207 1.340 . S
C208 C212 1.407 . S
C209 C210 1.413 . S
C209 C211 1.416 . S
C209 C238 1.427 . S
C210 C202 1.424 . S
C210 N207 1.361 . S
C210 C209 1.413 . S
C211 H200 0.931 . S
C211 C209 1.416 . S
C211 C212 1.332 . S
C212 H191 0.929 . S
C212 C208 1.407 . S
C212 C211 1.332 . S
H213 C206 0.930 . S
H214 C237 0.930 . S
H215 C238 0.929 . S
O216 Tb172 2.465 . S
O216 C236 1.264 . S
O217 Tb172 2.387 . S
O217 C228 1.264 . S
O218 Tb183 2.349 . S
O218 C228 1.243 . S
O219 Tb172 2.428 . S
O219 C236 1.256 . S
O220 Tb172 2.308 . S
O220 C235 1.266 . S
O221 Tb183 2.393 . S
O221 C235 1.248 . S
O222 Tb183 2.465 . S
O222 C247 1.264 . S
O223 Tb183 2.387 . S
O223 C239 1.264 . S
O224 Tb172 2.349 . S
O224 C239 1.243 . S
O225 Tb183 2.428 . S
O225 C247 1.256 . S
O226 Tb183 2.308 . S
O226 C246 1.266 . S
O227 Tb172 2.393 . S
O227 C246 1.248 . S
C228 O217 1.264 . S
C228 O218 1.243 . S
C229 C232 1.399 . S
C229 C234 1.383 . S
C229 C236 1.496 . S
C230 C231 1.399 . S
C230 C234 1.389 . S
C231 C230 1.399 . S
C231 C233 1.380 . S
C231 H248 0.929 . S
C232 C229 1.399 . S
C232 C233 1.392 . S
C232 H249 0.929 . S
C233 C231 1.380 . S
C233 C232 1.392 . S
C233 H250 0.929 . S
C234 C229 1.383 . S
C234 C230 1.389 . S
C234 H251 0.931 . S
C235 O220 1.266 . S
C235 O221 1.248 . S
C236 Tb172 2.802 . S
C236 O216 1.264 . S
C236 O219 1.256 . S
C236 C229 1.496 . S
C237 C204 1.448 . S
C237 H214 0.930 . S
C237 C238 1.328 . S
C238 C209 1.427 . S
C238 H215 0.929 . S
C238 C237 1.328 . S
C239 O223 1.264 . S
C239 O224 1.243 . S
C240 C243 1.399 . S
C240 C244 1.383 . S
C240 C247 1.496 . S
C241 C242 1.399 . S
C241 C244 1.389 . S
C242 C241 1.399 . S
C242 C245 1.380 . S
C242 H252 0.929 . S
C243 C240 1.399 . S
C243 C245 1.392 . S
C243 H253 0.929 . S
C244 C240 1.383 . S
C244 C241 1.389 . S
C244 H254 0.931 . S
C245 C242 1.380 . S
C245 C243 1.392 . S
C245 H255 0.929 . S
C246 O226 1.266 . S
C246 O227 1.248 . S
C247 Tb183 2.802 . S
C247 O222 1.264 . S
C247 O225 1.256 . S
C247 C240 1.496 . S
H248 C231 0.929 . S
H249 C232 0.929 . S
H250 C233 0.929 . S
H251 C234 0.931 . S
H252 C242 0.929 . S
H253 C243 0.929 . S
H254 C244 0.931 . S
H255 C245 0.929 . S
Tb256 N285 2.617 . S
Tb256 N291 2.572 . S
Tb256 O300 2.465 . S
Tb256 O301 2.387 . S
Tb256 O303 2.428 . S
Tb256 O304 2.320 . S
Tb256 O308 2.330 1_455 S
Tb256 O311 2.393 . S
Tb256 C320 2.802 . S
C257 N258 1.379 . S
C257 C260 1.416 . S
C257 C264 1.424 . S
N258 C257 1.379 . S
N258 C261 1.334 . S
N258 Tb267 2.617 . S
C259 C261 1.390 . S
C259 C262 1.339 . S
C259 H279 0.930 . S
C260 C257 1.416 . S
C260 C262 1.416 . S
C260 C266 1.448 . S
C261 N258 1.334 . S
C261 C259 1.390 . S
C261 H272 0.930 . S
C262 C259 1.339 . S
C262 C260 1.416 . S
C262 H283 0.930 . S
C263 C264 1.413 . S
C263 C265 1.427 . S
C263 C269 1.416 . S
C264 C257 1.424 . S
C264 C263 1.413 . S
C264 N268 1.361 . S
C265 C263 1.427 . S
C265 C266 1.328 . S
C265 H280 0.929 . S
C266 C260 1.448 . S
C266 C265 1.328 . S
C266 H281 0.930 . S
Tb267 N258 2.617 . S
Tb267 N268 2.572 . S
Tb267 O302 2.349 1_655 S
Tb267 O305 2.393 . S
Tb267 O306 2.465 . S
Tb267 O307 2.387 . S
Tb267 O309 2.428 . S
Tb267 O310 2.309 1_655 S
Tb267 C331 2.802 . S
N268 C264 1.361 . S
N268 Tb267 2.572 . S
N268 C270 1.340 . S
C269 C263 1.416 . S
C269 C271 1.332 . S
C269 H277 0.931 . S
C270 N268 1.340 . S
C270 C271 1.407 . S
C270 H276 0.930 . S
C271 C269 1.332 . S
C271 C270 1.407 . S
C271 H273 0.929 . S
H272 C261 0.930 . S
H273 C271 0.929 . S
H274 C289 0.930 . S
H275 C296 0.929 . S
H276 C270 0.930 . S
H277 C269 0.931 . S
H278 C292 0.930 . S
H279 C259 0.930 . S
H280 C265 0.929 . S
H281 C266 0.930 . S
H282 C287 0.930 . S
H283 C262 0.930 . S
H284 C295 0.931 . S
N285 Tb256 2.617 . S
N285 C286 1.379 . S
N285 C289 1.334 . S
C286 N285 1.379 . S
C286 C288 1.416 . S
C286 C294 1.424 . S
C287 H282 0.930 . S
C287 C289 1.390 . S
C287 C290 1.339 . S
C288 C286 1.416 . S
C288 C290 1.416 . S
C288 C321 1.448 . S
C289 H274 0.930 . S
C289 N285 1.334 . S
C289 C287 1.390 . S
C290 C287 1.339 . S
C290 C288 1.416 . S
C290 H297 0.930 . S
N291 Tb256 2.572 . S
N291 C292 1.340 . S
N291 C294 1.361 . S
C292 H278 0.930 . S
C292 N291 1.340 . S
C292 C296 1.407 . S
C293 C294 1.413 . S
C293 C295 1.416 . S
C293 C322 1.427 . S
C294 C286 1.424 . S
C294 N291 1.361 . S
C294 C293 1.413 . S
C295 H284 0.931 . S
C295 C293 1.416 . S
C295 C296 1.332 . S
C296 H275 0.929 . S
C296 C292 1.407 . S
C296 C295 1.332 . S
H297 C290 0.930 . S
H298 C321 0.930 . S
H299 C322 0.929 . S
O300 Tb256 2.465 . S
O300 C320 1.264 . S
O301 Tb256 2.387 . S
O301 C312 1.264 . S
O302 Tb267 2.349 1_455 S
O302 C312 1.243 . S
O303 Tb256 2.428 . S
O303 C320 1.256 . S
O304 Tb256 2.320 . S
O304 C319 1.252 1_455 S
O305 Tb267 2.393 . S
O305 C319 1.248 . S
O306 Tb267 2.465 . S
O306 C331 1.264 . S
O307 Tb267 2.387 . S
O307 C323 1.264 . S
O308 Tb256 2.330 1_655 S
O308 C323 1.267 . S
O309 Tb267 2.428 . S
O309 C331 1.256 . S
O310 Tb267 2.309 1_455 S
O310 C330 1.265 . S
O311 Tb256 2.393 . S
O311 C330 1.248 . S
C312 O301 1.264 . S
C312 O302 1.243 . S
C313 C316 1.399 . S
C313 C318 1.383 . S
C313 C320 1.496 . S
C314 C315 1.399 . S
C314 C318 1.389 . S
C315 C314 1.399 . S
C315 C317 1.380 . S
C315 H332 0.929 . S
C316 C313 1.399 . S
C316 C317 1.392 . S
C316 H333 0.929 . S
C317 C315 1.380 . S
C317 C316 1.392 . S
C317 H334 0.929 . S
C318 C313 1.383 . S
C318 C314 1.389 . S
C318 H335 0.931 . S
C319 O304 1.252 1_655 S
C319 O305 1.248 . S
C320 Tb256 2.802 . S
C320 O300 1.264 . S
C320 O303 1.256 . S
C320 C313 1.496 . S
C321 C288 1.448 . S
C321 H298 0.930 . S
C321 C322 1.328 . S
C322 C293 1.427 . S
C322 H299 0.929 . S
C322 C321 1.328 . S
C323 O307 1.264 . S
C323 O308 1.267 . S
C324 C327 1.399 . S
C324 C328 1.383 . S
C324 C331 1.496 . S
C325 C326 1.399 . S
C325 C328 1.389 . S
C326 C325 1.399 . S
C326 C329 1.380 . S
C326 H336 0.929 . S
C327 C324 1.399 . S
C327 C329 1.392 . S
C327 H337 0.929 . S
C328 C324 1.383 . S
C328 C325 1.389 . S
C328 H338 0.931 . S
C329 C326 1.380 . S
C329 C327 1.392 . S
C329 H339 0.929 . S
C330 O310 1.265 . S
C330 O311 1.248 . S
C331 Tb267 2.802 . S
C331 O306 1.264 . S
C331 O309 1.256 . S
C331 C324 1.496 . S
H332 C315 0.929 . S
H333 C316 0.929 . S
H334 C317 0.929 . S
H335 C318 0.931 . S
H336 C326 0.929 . S
H337 C327 0.929 . S
H338 C328 0.931 . S
H339 C329 0.929 . S
Tb340 N369 2.617 . S
Tb340 N375 2.572 . S
Tb340 O384 2.465 . S
Tb340 O385 2.387 . S
Tb340 O387 2.428 . S
Tb340 O388 2.308 . S
Tb340 O392 2.349 . S
Tb340 O395 2.393 . S
Tb340 C404 2.802 . S
C341 N342 1.379 . S
C341 C344 1.416 . S
C341 C348 1.424 . S
N342 C341 1.379 . S
N342 C345 1.334 . S
N342 Tb351 2.617 . S
C343 C345 1.390 . S
C343 C346 1.339 . S
C343 H363 0.930 . S
C344 C341 1.416 . S
C344 C346 1.416 . S
C344 C350 1.448 . S
C345 N342 1.334 . S
C345 C343 1.390 . S
C345 H356 0.930 . S
C346 C343 1.339 . S
C346 C344 1.416 . S
C346 H367 0.930 . S
C347 C348 1.413 . S
C347 C349 1.427 . S
C347 C353 1.416 . S
C348 C341 1.424 . S
C348 C347 1.413 . S
C348 N352 1.361 . S
C349 C347 1.427 . S
C349 C350 1.328 . S
C349 H364 0.929 . S
C350 C344 1.448 . S
C350 C349 1.328 . S
C350 H365 0.930 . S
Tb351 N342 2.617 . S
Tb351 N352 2.572 . S
Tb351 O386 2.349 . S
Tb351 O389 2.393 . S
Tb351 O390 2.465 . S
Tb351 O391 2.387 . S
Tb351 O393 2.428 . S
Tb351 O394 2.308 . S
Tb351 C415 2.802 . S
N352 C348 1.361 . S
N352 Tb351 2.572 . S
N352 C354 1.340 . S
C353 C347 1.416 . S
C353 C355 1.332 . S
C353 H361 0.931 . S
C354 N352 1.340 . S
C354 C355 1.407 . S
C354 H360 0.930 . S
C355 C353 1.332 . S
C355 C354 1.407 . S
C355 H357 0.929 . S
H356 C345 0.930 . S
H357 C355 0.929 . S
H358 C373 0.930 . S
H359 C380 0.929 . S
H360 C354 0.930 . S
H361 C353 0.931 . S
H362 C376 0.930 . S
H363 C343 0.930 . S
H364 C349 0.929 . S
H365 C350 0.930 . S
H366 C371 0.930 . S
H367 C346 0.930 . S
H368 C379 0.931 . S
N369 Tb340 2.617 . S
N369 C370 1.379 . S
N369 C373 1.334 . S
C370 N369 1.379 . S
C370 C372 1.416 . S
C370 C378 1.424 . S
C371 H366 0.930 . S
C371 C373 1.390 . S
C371 C374 1.339 . S
C372 C370 1.416 . S
C372 C374 1.416 . S
C372 C405 1.448 . S
C373 H358 0.930 . S
C373 N369 1.334 . S
C373 C371 1.390 . S
C374 C371 1.339 . S
C374 C372 1.416 . S
C374 H381 0.930 . S
N375 Tb340 2.572 . S
N375 C376 1.340 . S
N375 C378 1.361 . S
C376 H362 0.930 . S
C376 N375 1.340 . S
C376 C380 1.407 . S
C377 C378 1.413 . S
C377 C379 1.416 . S
C377 C406 1.427 . S
C378 C370 1.424 . S
C378 N375 1.361 . S
C378 C377 1.413 . S
C379 H368 0.931 . S
C379 C377 1.416 . S
C379 C380 1.332 . S
C380 H359 0.929 . S
C380 C376 1.407 . S
C380 C379 1.332 . S
H381 C374 0.930 . S
H382 C405 0.930 . S
H383 C406 0.929 . S
O384 Tb340 2.465 . S
O384 C404 1.264 . S
O385 Tb340 2.387 . S
O385 C396 1.264 . S
O386 Tb351 2.349 . S
O386 C396 1.243 . S
O387 Tb340 2.428 . S
O387 C404 1.256 . S
O388 Tb340 2.308 . S
O388 C403 1.266 . S
O389 Tb351 2.393 . S
O389 C403 1.248 . S
O390 Tb351 2.465 . S
O390 C415 1.264 . S
O391 Tb351 2.387 . S
O391 C407 1.264 . S
O392 Tb340 2.349 . S
O392 C407 1.243 . S
O393 Tb351 2.428 . S
O393 C415 1.256 . S
O394 Tb351 2.308 . S
O394 C414 1.266 . S
O395 Tb340 2.393 . S
O395 C414 1.248 . S
C396 O385 1.264 . S
C396 O386 1.243 . S
C397 C400 1.399 . S
C397 C402 1.383 . S
C397 C404 1.496 . S
C398 C399 1.399 . S
C398 C402 1.389 . S
C399 C398 1.399 . S
C399 C401 1.380 . S
C399 H416 0.929 . S
C400 C397 1.399 . S
C400 C401 1.392 . S
C400 H417 0.929 . S
C401 C399 1.380 . S
C401 C400 1.392 . S
C401 H418 0.929 . S
C402 C397 1.383 . S
C402 C398 1.389 . S
C402 H419 0.931 . S
C403 O388 1.266 . S
C403 O389 1.248 . S
C404 Tb340 2.802 . S
C404 O384 1.264 . S
C404 O387 1.256 . S
C404 C397 1.496 . S
C405 C372 1.448 . S
C405 H382 0.930 . S
C405 C406 1.328 . S
C406 C377 1.427 . S
C406 H383 0.929 . S
C406 C405 1.328 . S
C407 O391 1.264 . S
C407 O392 1.243 . S
C408 C411 1.399 . S
C408 C412 1.383 . S
C408 C415 1.496 . S
C409 C410 1.399 . S
C409 C412 1.389 . S
C410 C409 1.399 . S
C410 C413 1.380 . S
C410 H420 0.929 . S
C411 C408 1.399 . S
C411 C413 1.392 . S
C411 H421 0.929 . S
C412 C408 1.383 . S
C412 C409 1.389 . S
C412 H422 0.931 . S
C413 C410 1.380 . S
C413 C411 1.392 . S
C413 H423 0.929 . S
C414 O394 1.266 . S
C414 O395 1.248 . S
C415 Tb351 2.802 . S
C415 O390 1.264 . S
C415 O393 1.256 . S
C415 C408 1.496 . S
H416 C399 0.929 . S
H417 C400 0.929 . S
H418 C401 0.929 . S
H419 C402 0.931 . S
H420 C410 0.929 . S
H421 C411 0.929 . S
H422 C412 0.931 . S
H423 C413 0.929 . S
C424 C425 1.349 . S
C424 C426 1.327 . S
C424 H449 0.950 . S
C425 C424 1.349 . S
C425 C441 1.349 . S
C426 C424 1.327 . S
C426 C445 1.429 . S
C426 H450 0.950 . S
C427 C444 1.574 1_565 S
C427 C446 1.368 . S
C427 H451 0.949 . S
H428 C432 0.949 . S
C429 C430 1.349 . S
C429 C431 1.327 . S
C429 H452 0.950 . S
C430 C429 1.349 . S
C430 C442 1.349 . S
C431 C429 1.327 . S
C431 C447 1.429 . S
C431 H453 0.950 . S
C432 H428 0.949 . S
C432 C440 1.574 . S
C432 C448 1.368 . S
H433 C441 0.950 . S
H434 C439 0.950 . S
H435 C440 0.949 . S
H436 C442 0.950 . S
H437 C443 0.947 1_565 S
H438 C444 0.949 . S
C439 H434 0.950 . S
C439 C441 1.327 . S
C439 C445 1.429 . S
C440 C432 1.574 . S
C440 H435 0.949 . S
C440 C446 1.368 . S
C441 C425 1.349 . S
C441 H433 0.950 . S
C441 C439 1.327 . S
C442 C430 1.349 . S
C442 H436 0.950 . S
C442 C443 1.327 . S
C443 H437 0.947 1_545 S
C443 C442 1.327 . S
C443 C447 1.429 . S
C444 C427 1.574 1_545 S
C444 H438 0.949 . S
C444 C448 1.368 1_545 S
C445 C426 1.429 . S
C445 C439 1.429 . S
C445 C446 1.523 . S
C446 C427 1.368 . S
C446 C440 1.368 . S
C446 C445 1.523 . S
C447 C431 1.429 . S
C447 C443 1.429 . S
C447 C448 1.523 1_545 S
C448 C432 1.368 . S
C448 C444 1.368 1_565 S
C448 C447 1.523 1_565 S
H449 C424 0.950 . S
H450 C426 0.950 . S
H451 C427 0.949 . S
H452 C429 0.950 . S
H453 C431 0.950 . S
C454 C455 1.349 . S
C454 C456 1.327 . S
C454 H479 0.950 . S
C455 C454 1.349 . S
C455 C471 1.349 . S
C456 C454 1.327 . S
C456 C475 1.429 . S
C456 H480 0.950 . S
C457 C474 1.574 . S
C457 C476 1.368 . S
C457 H481 0.949 . S
H458 C462 0.949 . S
C459 C460 1.349 . S
C459 C461 1.327 . S
C459 H482 0.950 . S
C460 C459 1.349 . S
C460 C472 1.349 . S
C461 C459 1.327 . S
C461 C477 1.429 . S
C461 H483 0.950 . S
C462 H458 0.949 . S
C462 C470 1.574 . S
C462 C478 1.368 . S
H463 C471 0.950 . S
H464 C469 0.950 . S
H465 C470 0.949 . S
H466 C472 0.950 . S
H467 C473 0.950 . S
H468 C474 0.949 . S
C469 H464 0.950 . S
C469 C471 1.327 . S
C469 C475 1.429 . S
C470 C462 1.574 . S
C470 H465 0.949 . S
C470 C476 1.368 . S
C471 C455 1.349 . S
C471 H463 0.950 . S
C471 C469 1.327 . S
C472 C460 1.349 . S
C472 H466 0.950 . S
C472 C473 1.327 . S
C473 H467 0.950 . S
C473 C472 1.327 . S
C473 C477 1.429 . S
C474 C457 1.574 . S
C474 H468 0.949 . S
C474 C478 1.368 . S
C475 C456 1.429 . S
C475 C469 1.429 . S
C475 C476 1.523 . S
C476 C457 1.368 . S
C476 C470 1.368 . S
C476 C475 1.523 . S
C477 C461 1.429 . S
C477 C473 1.429 . S
C477 C478 1.523 . S
C478 C462 1.368 . S
C478 C474 1.368 . S
C478 C477 1.523 . S
H479 C454 0.950 . S
H480 C456 0.950 . S
H481 C457 0.949 . S
H482 C459 0.950 . S
H483 C461 0.950 . S
C484 C485 1.349 . S
C484 C486 1.327 . S
C484 H509 0.950 . S
C485 C484 1.349 . S
C485 C501 1.349 . S
C486 C484 1.327 . S
C486 C505 1.429 . S
C486 H510 0.950 . S
C487 C504 1.574 . S
C487 C506 1.368 . S
C487 H511 0.949 . S
H488 C492 0.949 . S
C489 C490 1.349 . S
C489 C491 1.327 . S
C489 H512 0.950 . S
C490 C489 1.349 . S
C490 C502 1.349 . S
C491 C489 1.327 . S
C491 C507 1.429 . S
C491 H513 0.950 . S
C492 H488 0.949 . S
C492 C500 1.574 . S
C492 C508 1.368 . S
H493 C501 0.950 . S
H494 C499 0.950 . S
H495 C500 0.949 . S
H496 C502 0.950 . S
H497 C503 0.950 . S
H498 C504 0.949 . S
C499 H494 0.950 . S
C499 C501 1.327 . S
C499 C505 1.429 . S
C500 C492 1.574 . S
C500 H495 0.949 . S
C500 C506 1.368 . S
C501 C485 1.349 . S
C501 H493 0.950 . S
C501 C499 1.327 . S
C502 C490 1.349 . S
C502 H496 0.950 . S
C502 C503 1.327 . S
C503 H497 0.950 . S
C503 C502 1.327 . S
C503 C507 1.429 . S
C504 C487 1.574 . S
C504 H498 0.949 . S
C504 C508 1.368 . S
C505 C486 1.429 . S
C505 C499 1.429 . S
C505 C506 1.523 . S
C506 C487 1.368 . S
C506 C500 1.368 . S
C506 C505 1.523 . S
C507 C491 1.429 . S
C507 C503 1.429 . S
C507 C508 1.523 . S
C508 C492 1.368 . S
C508 C504 1.368 . S
C508 C507 1.523 . S
H509 C484 0.950 . S
H510 C486 0.950 . S
H511 C487 0.949 . S
H512 C489 0.950 . S
H513 C491 0.950 . S
C514 C515 1.349 . S
C514 C516 1.327 . S
C514 H539 0.950 . S
C515 C514 1.349 . S
C515 C531 1.349 . S
C516 C514 1.327 . S
C516 C535 1.429 . S
C516 H540 0.950 . S
C517 C534 1.574 1_565 S
C517 C536 1.368 . S
C517 H541 0.949 . S
H518 C522 0.949 . S
C519 C520 1.349 . S
C519 C521 1.327 . S
C519 H542 0.950 . S
C520 C519 1.349 . S
C520 C532 1.349 . S
C521 C519 1.327 . S
C521 C537 1.429 . S
C521 H543 0.950 . S
C522 H518 0.949 . S
C522 C530 1.574 . S
C522 C538 1.368 1_565 S
H523 C531 0.950 . S
H524 C529 0.950 . S
H525 C530 0.949 . S
H526 C532 0.950 . S
H527 C533 0.950 1_565 S
H528 C534 0.949 . S
C529 H524 0.950 . S
C529 C531 1.327 . S
C529 C535 1.429 . S
C530 C522 1.574 . S
C530 H525 0.949 . S
C530 C536 1.368 . S
C531 C515 1.349 . S
C531 H523 0.950 . S
C531 C529 1.327 . S
C532 C520 1.349 . S
C532 H526 0.950 . S
C532 C533 1.327 . S
C533 H527 0.950 1_545 S
C533 C532 1.327 . S
C533 C537 1.429 . S
C534 C517 1.574 1_545 S
C534 H528 0.949 . S
C534 C538 1.368 . S
C535 C516 1.429 . S
C535 C529 1.429 . S
C535 C536 1.523 . S
C536 C517 1.368 . S
C536 C530 1.368 . S
C536 C535 1.523 . S
C537 C521 1.429 . S
C537 C533 1.429 . S
C537 C538 1.523 . S
C538 C522 1.368 1_545 S
C538 C534 1.368 . S
C538 C537 1.523 . S
H539 C514 0.950 . S
H540 C516 0.950 . S
H541 C517 0.949 . S
H542 C519 0.950 . S
H543 C521 0.950 . S
C544 C545 1.349 . S
C544 C546 1.327 . S
C544 H569 0.950 . S
C545 C544 1.349 . S
C545 C561 1.349 . S
C546 C544 1.327 . S
C546 C565 1.429 . S
C546 H570 0.950 . S
C547 C564 1.574 . S
C547 C566 1.368 . S
C547 H571 0.949 . S
H548 C552 0.949 1_565 S
C549 C550 1.349 . S
C549 C551 1.327 . S
C549 H572 0.950 . S
C550 C549 1.349 . S
C550 C562 1.349 . S
C551 C549 1.327 . S
C551 C567 1.429 . S
C551 H573 0.950 . S
C552 H548 0.949 1_545 S
C552 C560 1.574 . S
C552 C568 1.370 . S
H553 C561 0.950 . S
H554 C559 0.950 . S
H555 C560 0.949 . S
H556 C562 0.950 . S
H557 C563 0.950 . S
H558 C564 0.949 . S
C559 H554 0.950 . S
C559 C561 1.327 . S
C559 C565 1.429 . S
C560 C552 1.574 . S
C560 H555 0.949 . S
C560 C566 1.368 . S
C561 C545 1.349 . S
C561 H553 0.950 . S
C561 C559 1.327 . S
C562 C550 1.349 . S
C562 H556 0.950 . S
C562 C563 1.327 . S
C563 H557 0.950 . S
C563 C562 1.327 . S
C563 C567 1.429 . S
C564 C547 1.574 . S
C564 H558 0.949 . S
C564 C568 1.390 . S
C565 C546 1.429 . S
C565 C559 1.429 . S
C565 C566 1.523 . S
C566 C547 1.368 . S
C566 C560 1.368 . S
C566 C565 1.523 . S
C567 C551 1.429 . S
C567 C563 1.429 . S
C567 C568 1.494 1_565 S
C568 C552 1.370 . S
C568 C564 1.390 . S
C568 C567 1.494 1_545 S
H569 C544 0.950 . S
H570 C546 0.950 . S
H571 C547 0.949 . S
H572 C549 0.950 . S
H573 C551 0.950 . S
C574 C575 1.349 . S
C574 C576 1.327 . S
C574 H599 0.950 . S
C575 C574 1.349 . S
C575 C591 1.349 . S
C576 C574 1.327 . S
C576 C595 1.429 . S
C576 H600 0.950 . S
C577 C594 1.574 . S
C577 C596 1.368 . S
C577 H601 0.949 . S
H578 C582 0.949 . S
C579 C580 1.349 . S
C579 C581 1.327 . S
C579 H602 0.950 . S
C580 C579 1.349 . S
C580 C592 1.349 . S
C581 C579 1.327 . S
C581 C597 1.429 . S
C581 H603 0.950 . S
C582 H578 0.949 . S
C582 C590 1.574 . S
C582 C598 1.368 . S
H583 C591 0.950 . S
H584 C589 0.950 . S
H585 C590 0.949 . S
H586 C592 0.950 . S
H587 C593 0.950 . S
H588 C594 0.949 . S
C589 H584 0.950 . S
C589 C591 1.327 . S
C589 C595 1.429 . S
C590 C582 1.574 . S
C590 H585 0.949 . S
C590 C596 1.368 . S
C591 C575 1.349 . S
C591 H583 0.950 . S
C591 C589 1.327 . S
C592 C580 1.349 . S
C592 H586 0.950 . S
C592 C593 1.327 . S
C593 H587 0.950 . S
C593 C592 1.327 . S
C593 C597 1.429 . S
C594 C577 1.574 . S
C594 H588 0.949 . S
C594 C598 1.368 . S
C595 C576 1.429 . S
C595 C589 1.429 . S
C595 C596 1.523 . S
C596 C577 1.368 . S
C596 C590 1.368 . S
C596 C595 1.523 . S
C597 C581 1.429 . S
C597 C593 1.429 . S
C597 C598 1.523 . S
C598 C582 1.368 . S
C598 C594 1.368 . S
C598 C597 1.523 . S
H599 C574 0.950 . S
H600 C576 0.950 . S
H601 C577 0.949 . S
H602 C579 0.950 . S
H603 C581 0.950 . S
C604 C605 1.349 . S
C604 C606 1.327 . S
C604 H629 0.950 . S
C605 C604 1.349 . S
C605 C621 1.349 . S
C606 C604 1.327 . S
C606 C625 1.429 . S
C606 H630 0.950 . S
C607 C624 1.574 . S
C607 C626 1.368 . S
C607 H631 0.949 . S
H608 C612 0.949 . S
C609 C610 1.349 . S
C609 C611 1.327 . S
C609 H632 0.950 . S
C610 C609 1.349 . S
C610 C622 1.349 . S
C611 C609 1.327 . S
C611 C627 1.429 . S
C611 H633 0.950 . S
C612 H608 0.949 . S
C612 C620 1.574 . S
C612 C628 1.368 . S
H613 C621 0.950 . S
H614 C619 0.950 . S
H615 C620 0.949 . S
H616 C622 0.950 . S
H617 C623 0.950 . S
H618 C624 0.949 . S
C619 H614 0.950 . S
C619 C621 1.327 . S
C619 C625 1.429 . S
C620 C612 1.574 . S
C620 H615 0.949 . S
C620 C626 1.368 . S
C621 C605 1.349 . S
C621 H613 0.950 . S
C621 C619 1.327 . S
C622 C610 1.349 . S
C622 H616 0.950 . S
C622 C623 1.327 . S
C623 H617 0.950 . S
C623 C622 1.327 . S
C623 C627 1.429 . S
C624 C607 1.574 . S
C624 H618 0.949 . S
C624 C628 1.368 . S
C625 C606 1.429 . S
C625 C619 1.429 . S
C625 C626 1.523 . S
C626 C607 1.368 . S
C626 C620 1.368 . S
C626 C625 1.523 . S
C627 C611 1.429 . S
C627 C623 1.429 . S
C627 C628 1.523 . S
C628 C612 1.368 . S
C628 C624 1.368 . S
C628 C627 1.523 . S
H629 C604 0.950 . S
H630 C606 0.950 . S
H631 C607 0.949 . S
H632 C609 0.950 . S
H633 C611 0.950 . S
C634 C635 1.349 . S
C634 C636 1.327 . S
C634 H659 0.950 . S
C635 C634 1.349 . S
C635 C651 1.349 . S
C636 C634 1.327 . S
C636 C655 1.429 . S
C636 H660 0.950 . S
C637 C654 1.574 . S
C637 C656 1.368 1_565 S
C637 H661 0.949 . S
H638 C642 0.949 . S
C639 C640 1.349 . S
C639 C641 1.327 . S
C639 H662 0.950 . S
C640 C639 1.349 . S
C640 C652 1.349 . S
C641 C639 1.327 . S
C641 C657 1.429 . S
C641 H663 0.950 . S
C642 H638 0.949 . S
C642 C650 1.574 . S
C642 C658 1.368 1_545 S
H643 C651 0.950 . S
H644 C649 0.950 . S
H645 C650 0.949 . S
H646 C652 0.950 . S
H647 C653 0.950 . S
H648 C654 0.949 . S
C649 H644 0.950 . S
C649 C651 1.327 . S
C649 C655 1.429 . S
C650 C642 1.574 . S
C650 H645 0.949 . S
C650 C656 1.368 . S
C651 C635 1.349 . S
C651 H643 0.950 . S
C651 C649 1.327 . S
C652 C640 1.349 . S
C652 H646 0.950 . S
C652 C653 1.327 . S
C653 H647 0.950 . S
C653 C652 1.327 . S
C653 C657 1.429 . S
C654 C637 1.574 . S
C654 H648 0.949 . S
C654 C658 1.368 . S
C655 C636 1.429 . S
C655 C649 1.429 . S
C655 C656 1.523 . S
C656 C637 1.368 1_545 S
C656 C650 1.368 . S
C656 C655 1.523 . S
C657 C641 1.429 . S
C657 C653 1.429 . S
C657 C658 1.523 . S
C658 C642 1.368 1_565 S
C658 C654 1.368 . S
C658 C657 1.523 . S
H659 C634 0.950 . S
H660 C636 0.950 . S
H661 C637 0.949 . S
H662 C639 0.950 . S
H663 C641 0.950 . S
C664 C665 1.349 . S
C664 C666 1.327 . S
C664 H689 0.950 . S
C665 C664 1.349 . S
C665 C681 1.349 . S
C666 C664 1.327 . S
C666 C685 1.425 1_556 S
C666 H690 0.950 . S
C667 C684 1.574 . S
C667 C686 1.368 . S
C667 H691 0.949 . S
H668 C672 0.949 . S
C669 C670 1.349 . S
C669 C671 1.327 . S
C669 H692 0.950 . S
C670 C669 1.349 . S
C670 C682 1.349 . S
C671 C669 1.327 . S
C671 C687 1.429 . S
C671 H693 0.950 . S
C672 H668 0.949 . S
C672 C680 1.574 . S
C672 C688 1.368 . S
H673 C681 0.950 . S
H674 C679 0.950 1_554 S
H675 C680 0.949 . S
H676 C682 0.950 . S
H677 C683 0.950 . S
H678 C684 0.949 . S
C679 H674 0.950 1_556 S
C679 C681 1.327 . S
C679 C685 1.427 1_556 S
C680 C672 1.574 . S
C680 H675 0.949 . S
C680 C686 1.368 . S
C681 C665 1.349 . S
C681 H673 0.950 . S
C681 C679 1.327 . S
C682 C670 1.349 . S
C682 H676 0.950 . S
C682 C683 1.327 . S
C683 H677 0.950 . S
C683 C682 1.327 . S
C683 C687 1.429 . S
C684 C667 1.574 . S
C684 H678 0.949 . S
C684 C688 1.368 . S
C685 C666 1.425 1_554 S
C685 C679 1.427 1_554 S
C685 C686 1.528 . S
C686 C667 1.368 . S
C686 C680 1.368 . S
C686 C685 1.528 . S
C687 C671 1.429 . S
C687 C683 1.429 . S
C687 C688 1.523 . S
C688 C672 1.368 . S
C688 C684 1.368 . S
C688 C687 1.523 . S
H689 C664 0.950 . S
H690 C666 0.950 . S
H691 C667 0.949 . S
H692 C669 0.950 . S
H693 C671 0.950 . S
C694 C695 1.349 . S
C694 C696 1.327 . S
C694 H719 0.950 . S
C695 C694 1.349 . S
C695 C711 1.349 . S
C696 C694 1.327 . S
C696 C715 1.429 . S
C696 H720 0.950 . S
C697 C714 1.574 . S
C697 C716 1.368 . S
C697 H721 0.949 . S
H698 C702 0.949 . S
C699 C700 1.349 . S
C699 C701 1.327 . S
C699 H722 0.950 . S
C700 C699 1.349 . S
C700 C712 1.349 . S
C701 C699 1.327 . S
C701 C717 1.429 . S
C701 H723 0.950 . S
C702 H698 0.949 . S
C702 C710 1.574 . S
C702 C718 1.368 . S
H703 C711 0.950 . S
H704 C709 0.950 . S
H705 C710 0.949 . S
H706 C712 0.950 . S
H707 C713 0.950 . S
H708 C714 0.949 . S
C709 H704 0.950 . S
C709 C711 1.327 . S
C709 C715 1.429 . S
C710 C702 1.574 . S
C710 H705 0.949 . S
C710 C716 1.368 . S
C711 C695 1.349 . S
C711 H703 0.950 . S
C711 C709 1.327 . S
C712 C700 1.349 . S
C712 H706 0.950 . S
C712 C713 1.327 . S
C713 H707 0.950 . S
C713 C712 1.327 . S
C713 C717 1.429 . S
C714 C697 1.574 . S
C714 H708 0.949 . S
C714 C718 1.368 . S
C715 C696 1.429 . S
C715 C709 1.429 . S
C715 C716 1.523 . S
C716 C697 1.368 . S
C716 C710 1.368 . S
C716 C715 1.523 . S
C717 C701 1.429 . S
C717 C713 1.429 . S
C717 C718 1.523 . S
C718 C702 1.368 . S
C718 C714 1.368 . S
C718 C717 1.523 . S
H719 C694 0.950 . S
H720 C696 0.950 . S
H721 C697 0.949 . S
H722 C699 0.950 . S
H723 C701 0.950 . S
C724 C725 1.349 . S
C724 C726 1.327 . S
C724 H749 0.950 . S
C725 C724 1.349 . S
C725 C741 1.349 . S
C726 C724 1.327 . S
C726 C745 1.429 . S
C726 H750 0.950 . S
C727 C744 1.574 . S
C727 C746 1.368 . S
C727 H751 0.949 . S
H728 C732 0.949 . S
C729 C730 1.349 . S
C729 C731 1.327 . S
C729 H752 0.950 . S
C730 C729 1.349 . S
C730 C742 1.349 . S
C731 C729 1.327 . S
C731 C747 1.429 . S
C731 H753 0.950 . S
C732 H728 0.949 . S
C732 C740 1.574 . S
C732 C748 1.368 . S
H733 C741 0.950 . S
H734 C739 0.950 . S
H735 C740 0.949 . S
H736 C742 0.950 . S
H737 C743 0.950 . S
H738 C744 0.949 . S
C739 H734 0.950 . S
C739 C741 1.327 . S
C739 C745 1.429 . S
C740 C732 1.574 . S
C740 H735 0.949 . S
C740 C746 1.368 . S
C741 C725 1.349 . S
C741 H733 0.950 . S
C741 C739 1.327 . S
C742 C730 1.349 . S
C742 H736 0.950 . S
C742 C743 1.327 . S
C743 H737 0.950 . S
C743 C742 1.327 . S
C743 C747 1.429 . S
C744 C727 1.574 . S
C744 H738 0.949 . S
C744 C748 1.368 . S
C745 C726 1.429 . S
C745 C739 1.429 . S
C745 C746 1.523 1_554 S
C746 C727 1.368 . S
C746 C740 1.368 . S
C746 C745 1.523 1_556 S
C747 C731 1.429 . S
C747 C743 1.429 . S
C747 C748 1.523 . S
C748 C732 1.368 . S
C748 C744 1.368 . S
C748 C747 1.523 . S
H749 C724 0.950 . S
H750 C726 0.950 . S
H751 C727 0.949 . S
H752 C729 0.950 . S
H753 C731 0.950 . S
C754 C755 1.349 . S
C754 C756 1.327 . S
C754 H779 0.950 . S
C755 C754 1.349 . S
C755 C771 1.349 . S
C756 C754 1.327 . S
C756 C775 1.429 . S
C756 H780 0.950 . S
C757 C774 1.574 . S
C757 C776 1.368 . S
C757 H781 0.949 . S
H758 C762 0.949 . S
C759 C760 1.349 . S
C759 C761 1.327 . S
C759 H782 0.950 . S
C760 C759 1.349 . S
C760 C772 1.349 . S
C761 C759 1.327 . S
C761 C777 1.429 . S
C761 H783 0.950 . S
C762 H758 0.949 . S
C762 C770 1.574 . S
C762 C778 1.368 . S
H763 C771 0.950 . S
H764 C769 0.950 . S
H765 C770 0.949 . S
H766 C772 0.950 . S
H767 C773 0.950 . S
H768 C774 0.949 . S
C769 H764 0.950 . S
C769 C771 1.327 . S
C769 C775 1.429 . S
C770 C762 1.574 . S
C770 H765 0.949 . S
C770 C776 1.368 . S
C771 C755 1.349 . S
C771 H763 0.950 . S
C771 C769 1.327 . S
C772 C760 1.349 . S
C772 H766 0.950 . S
C772 C773 1.327 . S
C773 H767 0.950 . S
C773 C772 1.327 . S
C773 C777 1.429 . S
C774 C757 1.574 . S
C774 H768 0.949 . S
C774 C778 1.368 . S
C775 C756 1.429 . S
C775 C769 1.429 . S
C775 C776 1.523 . S
C776 C757 1.368 . S
C776 C770 1.368 . S
C776 C775 1.523 . S
C777 C761 1.429 . S
C777 C773 1.429 . S
C777 C778 1.523 . S
C778 C762 1.368 . S
C778 C774 1.368 . S
C778 C777 1.523 . S
H779 C754 0.950 . S
H780 C756 0.950 . S
H781 C757 0.949 . S
H782 C759 0.950 . S
H783 C761 0.950 . S
C784 C785 1.349 . S
C784 C786 1.323 . S
C784 H809 0.950 . S
C785 C784 1.349 . S
C785 C801 1.349 . S
C786 C784 1.323 . S
C786 C805 1.430 1_554 S
C786 H810 0.952 1_554 S
C787 C804 1.574 . S
C787 C806 1.368 . S
C787 H811 0.949 . S
H788 C792 0.949 . S
C789 C790 1.349 . S
C789 C791 1.327 . S
C789 H812 0.950 . S
C790 C789 1.349 . S
C790 C802 1.349 . S
C791 C789 1.327 . S
C791 C807 1.429 . S
C791 H813 0.950 . S
C792 H788 0.949 . S
C792 C800 1.574 . S
C792 C808 1.368 . S
H793 C801 0.950 . S
H794 C799 0.950 1_556 S
H795 C800 0.949 . S
H796 C802 0.950 . S
H797 C803 0.950 . S
H798 C804 0.949 . S
C799 H794 0.950 1_554 S
C799 C801 1.327 . S
C799 C805 1.429 1_554 S
C800 C792 1.574 . S
C800 H795 0.949 . S
C800 C806 1.368 . S
C801 C785 1.349 . S
C801 H793 0.950 . S
C801 C799 1.327 . S
C802 C790 1.349 . S
C802 H796 0.950 . S
C802 C803 1.327 . S
C803 H797 0.950 . S
C803 C802 1.327 . S
C803 C807 1.429 . S
C804 C787 1.574 . S
C804 H798 0.949 . S
C804 C808 1.368 . S
C805 C786 1.430 1_556 S
C805 C799 1.429 1_556 S
C805 C806 1.523 . S
C806 C787 1.368 . S
C806 C800 1.368 . S
C806 C805 1.523 . S
C807 C791 1.429 . S
C807 C803 1.429 . S
C807 C808 1.523 . S
C808 C792 1.368 . S
C808 C804 1.368 . S
C808 C807 1.523 . S
H809 C784 0.950 . S
H810 C786 0.952 1_556 S
H811 C787 0.949 . S
H812 C789 0.950 . S
H813 C791 0.950 . S
C814 C815 1.349 . S
C814 C816 1.327 . S
C814 H839 0.950 . S
C815 C814 1.349 . S
C815 C831 1.349 . S
C816 C814 1.327 . S
C816 C835 1.429 . S
C816 H840 0.950 . S
C817 C834 1.574 . S
C817 C836 1.368 . S
C817 H841 0.949 . S
H818 C822 0.949 . S
C819 C820 1.349 . S
C819 C821 1.327 . S
C819 H842 0.950 . S
C820 C819 1.349 . S
C820 C832 1.349 . S
C821 C819 1.327 . S
C821 C837 1.429 . S
C821 H843 0.950 . S
C822 H818 0.949 . S
C822 C830 1.574 . S
C822 C838 1.368 . S
H823 C831 0.950 . S
H824 C829 0.950 . S
H825 C830 0.949 . S
H826 C832 0.950 . S
H827 C833 0.950 . S
H828 C834 0.949 . S
C829 H824 0.950 . S
C829 C831 1.327 . S
C829 C835 1.429 . S
C830 C822 1.574 . S
C830 H825 0.949 . S
C830 C836 1.368 . S
C831 C815 1.349 . S
C831 H823 0.950 . S
C831 C829 1.327 . S
C832 C820 1.349 . S
C832 H826 0.950 . S
C832 C833 1.327 . S
C833 H827 0.950 . S
C833 C832 1.327 . S
C833 C837 1.429 . S
C834 C817 1.574 . S
C834 H828 0.949 . S
C834 C838 1.368 . S
C835 C816 1.429 . S
C835 C829 1.429 . S
C835 C836 1.523 . S
C836 C817 1.368 . S
C836 C830 1.368 . S
C836 C835 1.523 . S
C837 C821 1.429 . S
C837 C833 1.429 . S
C837 C838 1.523 . S
C838 C822 1.368 . S
C838 C834 1.368 . S
C838 C837 1.523 . S
H839 C814 0.950 . S
H840 C816 0.950 . S
H841 C817 0.949 . S
H842 C819 0.950 . S
H843 C821 0.950 . S
C844 C845 1.349 . S
C844 C846 1.327 . S
C844 H869 0.950 . S
C845 C844 1.349 . S
C845 C861 1.349 . S
C846 C844 1.327 . S
C846 C865 1.429 1_556 S
C846 H870 0.950 . S
C847 C864 1.574 . S
C847 C866 1.368 . S
C847 H871 0.949 . S
H848 C852 0.949 . S
C849 C850 1.349 . S
C849 C851 1.327 . S
C849 H872 0.950 . S
C850 C849 1.349 . S
C850 C862 1.349 . S
C851 C849 1.327 . S
C851 C867 1.429 . S
C851 H873 0.950 . S
C852 H848 0.949 . S
C852 C860 1.574 . S
C852 C868 1.368 . S
H853 C861 0.950 . S
H854 C859 0.950 . S
H855 C860 0.949 . S
H856 C862 0.950 . S
H857 C863 0.950 . S
H858 C864 0.949 . S
C859 H854 0.950 . S
C859 C861 1.327 1_554 S
C859 C865 1.429 . S
C860 C852 1.574 . S
C860 H855 0.949 . S
C860 C866 1.368 . S
C861 C845 1.349 . S
C861 H853 0.950 . S
C861 C859 1.327 1_556 S
C862 C850 1.349 . S
C862 H856 0.950 . S
C862 C863 1.327 . S
C863 H857 0.950 . S
C863 C862 1.327 . S
C863 C867 1.429 . S
C864 C847 1.574 . S
C864 H858 0.949 . S
C864 C868 1.368 . S
C865 C846 1.429 1_554 S
C865 C859 1.429 . S
C865 C866 1.523 . S
C866 C847 1.368 . S
C866 C860 1.368 . S
C866 C865 1.523 . S
C867 C851 1.429 . S
C867 C863 1.429 . S
C867 C868 1.523 . S
C868 C852 1.368 . S
C868 C864 1.368 . S
C868 C867 1.523 . S
H869 C844 0.950 . S
H870 C846 0.950 . S
H871 C847 0.949 . S
H872 C849 0.950 . S
H873 C851 0.950 . S
C874 C875 1.349 . S
C874 C876 1.327 . S
C874 H899 0.950 . S
C875 C874 1.349 . S
C875 C891 1.349 . S
C876 C874 1.327 . S
C876 C895 1.429 . S
C876 H900 0.950 . S
C877 C894 1.574 . S
C877 C896 1.368 . S
C877 H901 0.949 . S
H878 C882 0.949 . S
C879 C880 1.349 . S
C879 C881 1.327 . S
C879 H902 0.950 . S
C880 C879 1.349 . S
C880 C892 1.349 . S
C881 C879 1.327 . S
C881 C897 1.429 . S
C881 H903 0.950 . S
C882 H878 0.949 . S
C882 C890 1.574 . S
C882 C898 1.368 . S
H883 C891 0.950 . S
H884 C889 0.950 . S
H885 C890 0.949 . S
H886 C892 0.950 . S
H887 C893 0.950 . S
H888 C894 0.949 . S
C889 H884 0.950 . S
C889 C891 1.327 . S
C889 C895 1.429 . S
C890 C882 1.574 . S
C890 H885 0.949 . S
C890 C896 1.368 . S
C891 C875 1.349 . S
C891 H883 0.950 . S
C891 C889 1.327 . S
C892 C880 1.349 . S
C892 H886 0.950 . S
C892 C893 1.327 . S
C893 H887 0.950 . S
C893 C892 1.327 . S
C893 C897 1.429 . S
C894 C877 1.574 . S
C894 H888 0.949 . S
C894 C898 1.368 . S
C895 C876 1.429 . S
C895 C889 1.429 . S
C895 C896 1.523 . S
C896 C877 1.368 . S
C896 C890 1.368 . S
C896 C895 1.523 . S
C897 C881 1.429 . S
C897 C893 1.429 . S
C897 C898 1.523 . S
C898 C882 1.368 . S
C898 C894 1.368 . S
C898 C897 1.523 . S
H899 C874 0.950 . S
H900 C876 0.950 . S
H901 C877 0.949 . S
H902 C879 0.950 . S
H903 C881 0.950 . S
C904 C905 1.349 . S
C904 C906 1.327 . S
C904 H929 0.950 . S
C905 C904 1.349 . S
C905 C921 1.349 . S
C906 C904 1.327 . S
C906 C925 1.429 . S
C906 H930 0.950 . S
C907 C924 1.574 . S
C907 C926 1.368 . S
C907 H931 0.949 . S
H908 C912 0.949 . S
C909 C910 1.349 . S
C909 C911 1.327 . S
C909 H932 0.950 . S
C910 C909 1.349 . S
C910 C922 1.349 . S
C911 C909 1.327 . S
C911 C927 1.429 . S
C911 H933 0.950 . S
C912 H908 0.949 . S
C912 C920 1.574 . S
C912 C928 1.368 . S
H913 C921 0.950 . S
H914 C919 0.950 . S
H915 C920 0.949 . S
H916 C922 0.950 . S
H917 C923 0.950 . S
H918 C924 0.949 . S
C919 H914 0.950 . S
C919 C921 1.327 . S
C919 C925 1.429 . S
C920 C912 1.574 . S
C920 H915 0.949 . S
C920 C926 1.368 . S
C921 C905 1.349 . S
C921 H913 0.950 . S
C921 C919 1.327 . S
C922 C910 1.349 . S
C922 H916 0.950 . S
C922 C923 1.327 . S
C923 H917 0.950 . S
C923 C922 1.327 . S
C923 C927 1.429 . S
C924 C907 1.574 . S
C924 H918 0.949 . S
C924 C928 1.368 . S
C925 C906 1.429 . S
C925 C919 1.429 . S
C925 C926 1.523 . S
C926 C907 1.368 . S
C926 C920 1.368 . S
C926 C925 1.523 . S
C927 C911 1.429 . S
C927 C923 1.429 . S
C927 C928 1.523 . S
C928 C912 1.368 . S
C928 C924 1.368 . S
C928 C927 1.523 . S
H929 C904 0.950 . S
H930 C906 0.950 . S
H931 C907 0.949 . S
H932 C909 0.950 . S
H933 C911 0.950 . S
C934 C935 1.349 . S
C934 C936 1.327 . S
C934 H959 0.950 . S
C935 C934 1.349 . S
C935 C951 1.349 . S
C936 C934 1.327 . S
C936 C955 1.429 . S
C936 H960 0.950 . S
C937 C954 1.574 . S
C937 C956 1.368 . S
C937 H961 0.949 . S
H938 C942 0.949 . S
C939 C940 1.349 . S
C939 C941 1.327 . S
C939 H962 0.950 . S
C940 C939 1.349 . S
C940 C952 1.349 . S
C941 C939 1.327 . S
C941 C957 1.429 . S
C941 H963 0.950 . S
C942 H938 0.949 . S
C942 C950 1.574 . S
C942 C958 1.368 . S
H943 C951 0.950 . S
H944 C949 0.950 . S
H945 C950 0.949 . S
H946 C952 0.950 . S
H947 C953 0.950 . S
H948 C954 0.949 . S
C949 H944 0.950 . S
C949 C951 1.327 . S
C949 C955 1.429 . S
C950 C942 1.574 . S
C950 H945 0.949 . S
C950 C956 1.368 . S
C951 C935 1.349 . S
C951 H943 0.950 . S
C951 C949 1.327 . S
C952 C940 1.349 . S
C952 H946 0.950 . S
C952 C953 1.327 . S
C953 H947 0.950 . S
C953 C952 1.327 . S
C953 C957 1.429 . S
C954 C937 1.574 . S
C954 H948 0.949 . S
C954 C958 1.368 . S
C955 C936 1.429 . S
C955 C949 1.429 . S
C955 C956 1.523 . S
C956 C937 1.368 . S
C956 C950 1.368 . S
C956 C955 1.523 . S
C957 C941 1.429 . S
C957 C953 1.429 . S
C957 C958 1.523 . S
C958 C942 1.368 . S
C958 C954 1.368 . S
C958 C957 1.523 . S
H959 C934 0.950 . S
H960 C936 0.950 . S
H961 C937 0.949 . S
H962 C939 0.950 . S
H963 C941 0.950 . S
C964 C965 1.349 . S
C964 C966 1.327 . S
C964 H989 0.950 . S
C965 C964 1.349 . S
C965 C981 1.349 . S
C966 C964 1.327 . S
C966 C985 1.429 . S
C966 H990 0.950 . S
C967 C984 1.574 . S
C967 C986 1.368 . S
C967 H991 0.949 . S
H968 C972 0.949 . S
C969 C970 1.349 . S
C969 C971 1.327 . S
C969 H992 0.950 . S
C970 C969 1.349 . S
C970 C982 1.349 . S
C971 C969 1.327 . S
C971 C987 1.429 . S
C971 H993 0.950 . S
C972 H968 0.949 . S
C972 C980 1.574 . S
C972 C988 1.368 . S
H973 C981 0.950 . S
H974 C979 0.950 . S
H975 C980 0.949 . S
H976 C982 0.950 . S
H977 C983 0.950 . S
H978 C984 0.949 . S
C979 H974 0.950 . S
C979 C981 1.327 . S
C979 C985 1.429 . S
C980 C972 1.574 . S
C980 H975 0.949 . S
C980 C986 1.368 . S
C981 C965 1.349 . S
C981 H973 0.950 . S
C981 C979 1.327 . S
C982 C970 1.349 . S
C982 H976 0.950 . S
C982 C983 1.327 . S
C983 H977 0.950 . S
C983 C982 1.327 . S
C983 C987 1.429 . S
C984 C967 1.574 . S
C984 H978 0.949 . S
C984 C988 1.368 . S
C985 C966 1.429 . S
C985 C979 1.429 . S
C985 C986 1.523 . S
C986 C967 1.368 . S
C986 C980 1.368 . S
C986 C985 1.523 . S
C987 C971 1.429 . S
C987 C983 1.429 . S
C987 C988 1.523 . S
C988 C972 1.368 . S
C988 C984 1.368 . S
C988 C987 1.523 . S
H989 C964 0.950 . S
H990 C966 0.950 . S
H991 C967 0.949 . S
H992 C969 0.950 . S
H993 C971 0.950 . S
C994 C995 1.349 . S
C994 C996 1.327 . S
C994 H1019 0.950 . S
C995 C994 1.349 . S
C995 C1011 1.349 . S
C996 C994 1.327 . S
C996 C1015 1.429 . S
C996 H1020 0.950 . S
C997 C1014 1.574 . S
C997 C1016 1.368 . S
C997 H1021 0.949 . S
H998 C1002 0.949 . S
C999 C1000 1.349 . S
C999 C1001 1.327 . S
C999 H1022 0.950 . S
C1000 C999 1.349 . S
C1000 C1012 1.349 . S
C1001 C999 1.327 . S
C1001 C1017 1.429 . S
C1001 H1023 0.950 . S
C1002 H998 0.949 . S
C1002 C1010 1.574 . S
C1002 C1018 1.368 . S
H1003 C1011 0.950 . S
H1004 C1009 0.950 . S
H1005 C1010 0.949 . S
H1006 C1012 0.950 . S
H1007 C1013 0.950 . S
H1008 C1014 0.949 . S
C1009 H1004 0.950 . S
C1009 C1011 1.327 . S
C1009 C1015 1.429 . S
C1010 C1002 1.574 . S
C1010 H1005 0.949 . S
C1010 C1016 1.368 . S
C1011 C995 1.349 . S
C1011 H1003 0.950 . S
C1011 C1009 1.327 . S
C1012 C1000 1.349 . S
C1012 H1006 0.950 . S
C1012 C1013 1.327 . S
C1013 H1007 0.950 . S
C1013 C1012 1.327 . S
C1013 C1017 1.429 . S
C1014 C997 1.574 . S
C1014 H1008 0.949 . S
C1014 C1018 1.368 . S
C1015 C996 1.429 . S
C1015 C1009 1.429 . S
C1015 C1016 1.523 . S
C1016 C997 1.368 . S
C1016 C1010 1.368 . S
C1016 C1015 1.523 . S
C1017 C1001 1.429 . S
C1017 C1013 1.429 . S
C1017 C1018 1.523 . S
C1018 C1002 1.368 . S
C1018 C1014 1.368 . S
C1018 C1017 1.523 . S
H1019 C994 0.950 . S
H1020 C996 0.950 . S
H1021 C997 0.949 . S
H1022 C999 0.950 . S
H1023 C1001 0.950 . S
C1024 C1025 1.349 . S
C1024 C1026 1.327 . S
C1024 H1049 0.950 . S
C1025 C1024 1.349 . S
C1025 C1041 1.349 . S
C1026 C1024 1.327 . S
C1026 C1045 1.429 . S
C1026 H1050 0.950 . S
C1027 C1044 1.574 . S
C1027 C1046 1.368 . S
C1027 H1051 0.949 . S
H1028 C1032 0.949 . S
C1029 C1030 1.349 . S
C1029 C1031 1.327 . S
C1029 H1052 0.950 . S
C1030 C1029 1.349 . S
C1030 C1042 1.349 . S
C1031 C1029 1.327 . S
C1031 C1047 1.429 . S
C1031 H1053 0.950 . S
C1032 H1028 0.949 . S
C1032 C1040 1.574 . S
C1032 C1048 1.368 . S
H1033 C1041 0.950 . S
H1034 C1039 0.950 . S
H1035 C1040 0.949 . S
H1036 C1042 0.950 . S
H1037 C1043 0.950 . S
H1038 C1044 0.949 . S
C1039 H1034 0.950 . S
C1039 C1041 1.327 . S
C1039 C1045 1.429 . S
C1040 C1032 1.574 . S
C1040 H1035 0.949 . S
C1040 C1046 1.368 . S
C1041 C1025 1.349 . S
C1041 H1033 0.950 . S
C1041 C1039 1.327 . S
C1042 C1030 1.349 . S
C1042 H1036 0.950 . S
C1042 C1043 1.327 . S
C1043 H1037 0.950 . S
C1043 C1042 1.327 . S
C1043 C1047 1.429 . S
C1044 C1027 1.574 . S
C1044 H1038 0.949 . S
C1044 C1048 1.368 . S
C1045 C1026 1.429 . S
C1045 C1039 1.429 . S
C1045 C1046 1.523 . S
C1046 C1027 1.368 . S
C1046 C1040 1.368 . S
C1046 C1045 1.523 . S
C1047 C1031 1.429 . S
C1047 C1043 1.429 . S
C1047 C1048 1.523 . S
C1048 C1032 1.368 . S
C1048 C1044 1.368 . S
C1048 C1047 1.523 . S
H1049 C1024 0.950 . S
H1050 C1026 0.950 . S
H1051 C1027 0.949 . S
H1052 C1029 0.950 . S
H1053 C1031 0.950 . S
C1054 C1055 1.349 . S
C1054 C1056 1.327 . S
C1054 H1079 0.950 . S
C1055 C1054 1.349 . S
C1055 C1071 1.349 . S
C1056 C1054 1.327 . S
C1056 C1075 1.429 . S
C1056 H1080 0.950 . S
C1057 C1074 1.574 . S
C1057 C1076 1.368 . S
C1057 H1081 0.949 . S
H1058 C1062 0.949 . S
C1059 C1060 1.349 . S
C1059 C1061 1.327 . S
C1059 H1082 0.950 . S
C1060 C1059 1.349 . S
C1060 C1072 1.349 . S
C1061 C1059 1.327 . S
C1061 C1077 1.429 . S
C1061 H1083 0.950 . S
C1062 H1058 0.949 . S
C1062 C1070 1.574 . S
C1062 C1078 1.368 . S
H1063 C1071 0.950 . S
H1064 C1069 0.950 . S
H1065 C1070 0.949 . S
H1066 C1072 0.950 . S
H1067 C1073 0.950 . S
H1068 C1074 0.949 . S
C1069 H1064 0.950 . S
C1069 C1071 1.327 . S
C1069 C1075 1.429 . S
C1070 C1062 1.574 . S
C1070 H1065 0.949 . S
C1070 C1076 1.368 . S
C1071 C1055 1.349 . S
C1071 H1063 0.950 . S
C1071 C1069 1.327 . S
C1072 C1060 1.349 . S
C1072 H1066 0.950 . S
C1072 C1073 1.327 . S
C1073 H1067 0.950 . S
C1073 C1072 1.327 . S
C1073 C1077 1.429 . S
C1074 C1057 1.574 . S
C1074 H1068 0.949 . S
C1074 C1078 1.368 . S
C1075 C1056 1.429 . S
C1075 C1069 1.429 . S
C1075 C1076 1.523 . S
C1076 C1057 1.368 . S
C1076 C1070 1.368 . S
C1076 C1075 1.523 . S
C1077 C1061 1.429 . S
C1077 C1073 1.429 . S
C1077 C1078 1.523 . S
C1078 C1062 1.368 . S
C1078 C1074 1.368 . S
C1078 C1077 1.523 . S
H1079 C1054 0.950 . S
H1080 C1056 0.950 . S
H1081 C1057 0.949 . S
H1082 C1059 0.950 . S
H1083 C1061 0.950 . S
C1084 C1085 1.349 . S
C1084 C1086 1.327 . S
C1084 H1109 0.950 . S
C1085 C1084 1.349 . S
C1085 C1101 1.349 . S
C1086 C1084 1.327 . S
C1086 C1105 1.429 . S
C1086 H1110 0.950 . S
C1087 C1104 1.574 . S
C1087 C1106 1.368 . S
C1087 H1111 0.949 . S
H1088 C1092 0.949 . S
C1089 C1090 1.349 . S
C1089 C1091 1.327 . S
C1089 H1112 0.950 . S
C1090 C1089 1.349 . S
C1090 C1102 1.349 . S
C1091 C1089 1.327 . S
C1091 C1107 1.429 . S
C1091 H1113 0.950 . S
C1092 H1088 0.949 . S
C1092 C1100 1.574 . S
C1092 C1108 1.368 . S
H1093 C1101 0.950 . S
H1094 C1099 0.950 . S
H1095 C1100 0.949 . S
H1096 C1102 0.950 . S
H1097 C1103 0.950 . S
H1098 C1104 0.949 . S
C1099 H1094 0.950 . S
C1099 C1101 1.327 . S
C1099 C1105 1.429 . S
C1100 C1092 1.574 . S
C1100 H1095 0.949 . S
C1100 C1106 1.368 . S
C1101 C1085 1.349 . S
C1101 H1093 0.950 . S
C1101 C1099 1.327 . S
C1102 C1090 1.349 . S
C1102 H1096 0.950 . S
C1102 C1103 1.327 . S
C1103 H1097 0.950 . S
C1103 C1102 1.327 . S
C1103 C1107 1.429 . S
C1104 C1087 1.574 . S
C1104 H1098 0.949 . S
C1104 C1108 1.368 . S
C1105 C1086 1.429 . S
C1105 C1099 1.429 . S
C1105 C1106 1.523 . S
C1106 C1087 1.368 . S
C1106 C1100 1.368 . S
C1106 C1105 1.523 . S
C1107 C1091 1.429 . S
C1107 C1103 1.429 . S
C1107 C1108 1.523 . S
C1108 C1092 1.368 . S
C1108 C1104 1.368 . S
C1108 C1107 1.523 . S
H1109 C1084 0.950 . S
H1110 C1086 0.950 . S
H1111 C1087 0.949 . S
H1112 C1089 0.950 . S
H1113 C1091 0.950 . S
C1114 C1115 1.349 . S
C1114 C1116 1.327 . S
C1114 H1139 0.950 . S
C1115 C1114 1.349 . S
C1115 C1131 1.349 . S
C1116 C1114 1.327 . S
C1116 C1135 1.429 . S
C1116 H1140 0.950 . S
C1117 C1134 1.574 . S
C1117 C1136 1.368 . S
C1117 H1141 0.949 . S
H1118 C1122 0.949 . S
C1119 C1120 1.349 . S
C1119 C1121 1.327 . S
C1119 H1142 0.950 . S
C1120 C1119 1.349 . S
C1120 C1132 1.349 . S
C1121 C1119 1.327 . S
C1121 C1137 1.429 . S
C1121 H1143 0.950 . S
C1122 H1118 0.949 . S
C1122 C1130 1.574 . S
C1122 C1138 1.368 . S
H1123 C1131 0.950 . S
H1124 C1129 0.950 . S
H1125 C1130 0.949 . S
H1126 C1132 0.950 . S
H1127 C1133 0.950 . S
H1128 C1134 0.949 . S
C1129 H1124 0.950 . S
C1129 C1131 1.327 . S
C1129 C1135 1.429 . S
C1130 C1122 1.574 . S
C1130 H1125 0.949 . S
C1130 C1136 1.368 . S
C1131 C1115 1.349 . S
C1131 H1123 0.950 . S
C1131 C1129 1.327 . S
C1132 C1120 1.349 . S
C1132 H1126 0.950 . S
C1132 C1133 1.327 . S
C1133 H1127 0.950 . S
C1133 C1132 1.327 . S
C1133 C1137 1.429 . S
C1134 C1117 1.574 . S
C1134 H1128 0.949 . S
C1134 C1138 1.368 . S
C1135 C1116 1.429 . S
C1135 C1129 1.429 . S
C1135 C1136 1.523 . S
C1136 C1117 1.368 . S
C1136 C1130 1.368 . S
C1136 C1135 1.523 . S
C1137 C1121 1.429 . S
C1137 C1133 1.429 . S
C1137 C1138 1.523 . S
C1138 C1122 1.368 . S
C1138 C1134 1.368 . S
C1138 C1137 1.523 . S
H1139 C1114 0.950 . S
H1140 C1116 0.950 . S
H1141 C1117 0.949 . S
H1142 C1119 0.950 . S
H1143 C1121 0.950 . S
C425 C73 1.618 . S
C430 C162 1.651 . S
C460 C246 1.771 . S
C455 C84 1.757 . S
C490 C239 1.653 . S
C485 C51 1.607 . S
C515 C62 1.748 . S
C520 C155 1.784 . S
C550 C319 1.655 . S
C545 C29 1.604 . S
C580 C403 1.578 . S
C575 C38 1.458 . S
C605 C7 1.586 . S
C610 C396 1.661 . S
C635 C16 1.463 . S
C640 C312 1.582 . S
C670 C146 1.513 . S
C665 C18 1.664 . S
C700 C230 1.541 . S
C695 C5 1.452 . S
C730 C241 1.488 . S
C725 C40 1.676 . S
C760 C157 1.514 . S
C755 C27 1.471 . S
C790 C325 1.339 . S
C785 C60 1.354 . S
C815 C49 1.366 . S
C820 C409 1.369 . S
C850 C398 1.338 . S
C845 C82 1.364 . S
C875 C71 1.373 . S
C880 C314 1.355 . S
C910 C144 1.698 . S
C905 C8 1.676 . S
C940 C228 1.569 . S
C935 C19 1.565 . S
C965 C30 1.677 . S
C970 C235 1.675 . S
C1000 C151 1.537 . S
C995 C41 1.554 . S
C1030 C323 1.420 . S
C1025 C52 1.417 . S
C1055 C63 1.572 . S
C1060 C407 1.571 . S
C1085 C74 1.410 . S
C1090 C414 1.387 . S
C1115 C85 1.563 . S
C1120 C330 1.533 . S
