# Generated by pormake.
# Topology gar, (4,6)-cn, num edge types: 1
# Building blocks:
#     Node 0, Type 0, BuildingBlock: QUQFOY_clean_sbu_3, # of connection points: 4
#     Node 1, Type 0, BuildingBlock: QUQFOY_clean_sbu_3, # of connection points: 4
#     Node 2, Type 0, BuildingBlock: QUQFOY_clean_sbu_3, # of connection points: 4
#     Node 3, Type 0, BuildingBlock: QUQFOY_clean_sbu_3, # of connection points: 4
#     Node 4, Type 0, BuildingBlock: QUQFOY_clean_sbu_3, # of connection points: 4
#     Node 5, Type 0, BuildingBlock: QUQFOY_clean_sbu_3, # of connection points: 4
#     Node 6, Type 0, BuildingBlock: QUQFOY_clean_sbu_3, # of connection points: 4
#     Node 7, Type 0, BuildingBlock: QUQFOY_clean_sbu_3, # of connection points: 4
#     Node 8, Type 0, BuildingBlock: QUQFOY_clean_sbu_3, # of connection points: 4
#     Node 9, Type 0, BuildingBlock: QUQFOY_clean_sbu_3, # of connection points: 4
#     Node 10, Type 0, BuildingBlock: QUQFOY_clean_sbu_3, # of connection points: 4
#     Node 11, Type 0, BuildingBlock: QUQFOY_clean_sbu_3, # of connection points: 4
#     Node 12, Type 0, BuildingBlock: QUQFOY_clean_sbu_3, # of connection points: 4
#     Node 13, Type 0, BuildingBlock: QUQFOY_clean_sbu_3, # of connection points: 4
#     Node 14, Type 0, BuildingBlock: QUQFOY_clean_sbu_3, # of connection points: 4
#     Node 15, Type 0, BuildingBlock: QUQFOY_clean_sbu_3, # of connection points: 4
#     Node 16, Type 0, BuildingBlock: QUQFOY_clean_sbu_3, # of connection points: 4
#     Node 17, Type 0, BuildingBlock: QUQFOY_clean_sbu_3, # of connection points: 4
#     Node 18, Type 0, BuildingBlock: QUQFOY_clean_sbu_3, # of connection points: 4
#     Node 19, Type 0, BuildingBlock: QUQFOY_clean_sbu_3, # of connection points: 4
#     Node 20, Type 0, BuildingBlock: QUQFOY_clean_sbu_3, # of connection points: 4
#     Node 21, Type 0, BuildingBlock: QUQFOY_clean_sbu_3, # of connection points: 4
#     Node 22, Type 0, BuildingBlock: QUQFOY_clean_sbu_3, # of connection points: 4
#     Node 23, Type 0, BuildingBlock: QUQFOY_clean_sbu_3, # of connection points: 4
#     Node 24, Type 1, BuildingBlock: NUHQIS_clean_sbu_0, # of connection points: 6
#     Node 25, Type 1, BuildingBlock: NUHQIS_clean_sbu_0, # of connection points: 6
#     Node 26, Type 1, BuildingBlock: NUHQIS_clean_sbu_0, # of connection points: 6
#     Node 27, Type 1, BuildingBlock: NUHQIS_clean_sbu_0, # of connection points: 6
#     Node 28, Type 1, BuildingBlock: NUHQIS_clean_sbu_0, # of connection points: 6
#     Node 29, Type 1, BuildingBlock: NUHQIS_clean_sbu_0, # of connection points: 6
#     Node 30, Type 1, BuildingBlock: NUHQIS_clean_sbu_0, # of connection points: 6
#     Node 31, Type 1, BuildingBlock: NUHQIS_clean_sbu_0, # of connection points: 6
#     Node 32, Type 1, BuildingBlock: NUHQIS_clean_sbu_0, # of connection points: 6
#     Node 33, Type 1, BuildingBlock: NUHQIS_clean_sbu_0, # of connection points: 6
#     Node 34, Type 1, BuildingBlock: NUHQIS_clean_sbu_0, # of connection points: 6
#     Node 35, Type 1, BuildingBlock: NUHQIS_clean_sbu_0, # of connection points: 6
#     Node 36, Type 1, BuildingBlock: NUHQIS_clean_sbu_0, # of connection points: 6
#     Node 37, Type 1, BuildingBlock: NUHQIS_clean_sbu_0, # of connection points: 6
#     Node 38, Type 1, BuildingBlock: NUHQIS_clean_sbu_0, # of connection points: 6
#     Node 39, Type 1, BuildingBlock: NUHQIS_clean_sbu_0, # of connection points: 6
#     Edge 40, Type (0, 1), BuildingBlock: EZIPEK_clean_linker_0, # of connection points: 2
#     Edge 41, Type (0, 1), BuildingBlock: EZIPEK_clean_linker_0, # of connection points: 2
#     Edge 42, Type (0, 1), BuildingBlock: EZIPEK_clean_linker_0, # of connection points: 2
#     Edge 43, Type (0, 1), BuildingBlock: EZIPEK_clean_linker_0, # of connection points: 2
#     Edge 44, Type (0, 1), BuildingBlock: EZIPEK_clean_linker_0, # of connection points: 2
#     Edge 45, Type (0, 1), BuildingBlock: EZIPEK_clean_linker_0, # of connection points: 2
#     Edge 46, Type (0, 1), BuildingBlock: EZIPEK_clean_linker_0, # of connection points: 2
#     Edge 47, Type (0, 1), BuildingBlock: EZIPEK_clean_linker_0, # of connection points: 2
#     Edge 48, Type (0, 1), BuildingBlock: EZIPEK_clean_linker_0, # of connection points: 2
#     Edge 49, Type (0, 1), BuildingBlock: EZIPEK_clean_linker_0, # of connection points: 2
#     Edge 50, Type (0, 1), BuildingBlock: EZIPEK_clean_linker_0, # of connection points: 2
#     Edge 51, Type (0, 1), BuildingBlock: EZIPEK_clean_linker_0, # of connection points: 2
#     Edge 52, Type (0, 1), BuildingBlock: EZIPEK_clean_linker_0, # of connection points: 2
#     Edge 53, Type (0, 1), BuildingBlock: EZIPEK_clean_linker_0, # of connection points: 2
#     Edge 54, Type (0, 1), BuildingBlock: EZIPEK_clean_linker_0, # of connection points: 2
#     Edge 55, Type (0, 1), BuildingBlock: EZIPEK_clean_linker_0, # of connection points: 2
#     Edge 56, Type (0, 1), BuildingBlock: EZIPEK_clean_linker_0, # of connection points: 2
#     Edge 57, Type (0, 1), BuildingBlock: EZIPEK_clean_linker_0, # of connection points: 2
#     Edge 58, Type (0, 1), BuildingBlock: EZIPEK_clean_linker_0, # of connection points: 2
#     Edge 59, Type (0, 1), BuildingBlock: EZIPEK_clean_linker_0, # of connection points: 2
#     Edge 60, Type (0, 1), BuildingBlock: EZIPEK_clean_linker_0, # of connection points: 2
#     Edge 61, Type (0, 1), BuildingBlock: EZIPEK_clean_linker_0, # of connection points: 2
#     Edge 62, Type (0, 1), BuildingBlock: EZIPEK_clean_linker_0, # of connection points: 2
#     Edge 63, Type (0, 1), BuildingBlock: EZIPEK_clean_linker_0, # of connection points: 2
#     Edge 64, Type (0, 1), BuildingBlock: EZIPEK_clean_linker_0, # of connection points: 2
#     Edge 65, Type (0, 1), BuildingBlock: EZIPEK_clean_linker_0, # of connection points: 2
#     Edge 66, Type (0, 1), BuildingBlock: EZIPEK_clean_linker_0, # of connection points: 2
#     Edge 67, Type (0, 1), BuildingBlock: EZIPEK_clean_linker_0, # of connection points: 2
#     Edge 68, Type (0, 1), BuildingBlock: EZIPEK_clean_linker_0, # of connection points: 2
#     Edge 69, Type (0, 1), BuildingBlock: EZIPEK_clean_linker_0, # of connection points: 2
#     Edge 70, Type (0, 1), BuildingBlock: EZIPEK_clean_linker_0, # of connection points: 2
#     Edge 71, Type (0, 1), BuildingBlock: EZIPEK_clean_linker_0, # of connection points: 2
#     Edge 72, Type (0, 1), BuildingBlock: EZIPEK_clean_linker_0, # of connection points: 2
#     Edge 73, Type (0, 1), BuildingBlock: EZIPEK_clean_linker_0, # of connection points: 2
#     Edge 74, Type (0, 1), BuildingBlock: EZIPEK_clean_linker_0, # of connection points: 2
#     Edge 75, Type (0, 1), BuildingBlock: EZIPEK_clean_linker_0, # of connection points: 2
#     Edge 76, Type (0, 1), BuildingBlock: EZIPEK_clean_linker_0, # of connection points: 2
#     Edge 77, Type (0, 1), BuildingBlock: EZIPEK_clean_linker_0, # of connection points: 2
#     Edge 78, Type (0, 1), BuildingBlock: EZIPEK_clean_linker_0, # of connection points: 2
#     Edge 79, Type (0, 1), BuildingBlock: EZIPEK_clean_linker_0, # of connection points: 2
#     Edge 80, Type (0, 1), BuildingBlock: EZIPEK_clean_linker_0, # of connection points: 2
#     Edge 81, Type (0, 1), BuildingBlock: EZIPEK_clean_linker_0, # of connection points: 2
#     Edge 82, Type (0, 1), BuildingBlock: EZIPEK_clean_linker_0, # of connection points: 2
#     Edge 83, Type (0, 1), BuildingBlock: EZIPEK_clean_linker_0, # of connection points: 2
#     Edge 84, Type (0, 1), BuildingBlock: EZIPEK_clean_linker_0, # of connection points: 2
#     Edge 85, Type (0, 1), BuildingBlock: EZIPEK_clean_linker_0, # of connection points: 2
#     Edge 86, Type (0, 1), BuildingBlock: EZIPEK_clean_linker_0, # of connection points: 2
#     Edge 87, Type (0, 1), BuildingBlock: EZIPEK_clean_linker_0, # of connection points: 2
#     Edge 88, Type (0, 1), BuildingBlock: EZIPEK_clean_linker_0, # of connection points: 2
#     Edge 89, Type (0, 1), BuildingBlock: EZIPEK_clean_linker_0, # of connection points: 2
#     Edge 90, Type (0, 1), BuildingBlock: EZIPEK_clean_linker_0, # of connection points: 2
#     Edge 91, Type (0, 1), BuildingBlock: EZIPEK_clean_linker_0, # of connection points: 2
#     Edge 92, Type (0, 1), BuildingBlock: EZIPEK_clean_linker_0, # of connection points: 2
#     Edge 93, Type (0, 1), BuildingBlock: EZIPEK_clean_linker_0, # of connection points: 2
#     Edge 94, Type (0, 1), BuildingBlock: EZIPEK_clean_linker_0, # of connection points: 2
#     Edge 95, Type (0, 1), BuildingBlock: EZIPEK_clean_linker_0, # of connection points: 2
#     Edge 96, Type (0, 1), BuildingBlock: EZIPEK_clean_linker_0, # of connection points: 2
#     Edge 97, Type (0, 1), BuildingBlock: EZIPEK_clean_linker_0, # of connection points: 2
#     Edge 98, Type (0, 1), BuildingBlock: EZIPEK_clean_linker_0, # of connection points: 2
#     Edge 99, Type (0, 1), BuildingBlock: EZIPEK_clean_linker_0, # of connection points: 2
#     Edge 100, Type (0, 1), BuildingBlock: EZIPEK_clean_linker_0, # of connection points: 2
#     Edge 101, Type (0, 1), BuildingBlock: EZIPEK_clean_linker_0, # of connection points: 2
#     Edge 102, Type (0, 1), BuildingBlock: EZIPEK_clean_linker_0, # of connection points: 2
#     Edge 103, Type (0, 1), BuildingBlock: EZIPEK_clean_linker_0, # of connection points: 2
#     Edge 104, Type (0, 1), BuildingBlock: EZIPEK_clean_linker_0, # of connection points: 2
#     Edge 105, Type (0, 1), BuildingBlock: EZIPEK_clean_linker_0, # of connection points: 2
#     Edge 106, Type (0, 1), BuildingBlock: EZIPEK_clean_linker_0, # of connection points: 2
#     Edge 107, Type (0, 1), BuildingBlock: EZIPEK_clean_linker_0, # of connection points: 2
#     Edge 108, Type (0, 1), BuildingBlock: EZIPEK_clean_linker_0, # of connection points: 2
#     Edge 109, Type (0, 1), BuildingBlock: EZIPEK_clean_linker_0, # of connection points: 2
#     Edge 110, Type (0, 1), BuildingBlock: EZIPEK_clean_linker_0, # of connection points: 2
#     Edge 111, Type (0, 1), BuildingBlock: EZIPEK_clean_linker_0, # of connection points: 2
#     Edge 112, Type (0, 1), BuildingBlock: EZIPEK_clean_linker_0, # of connection points: 2
#     Edge 113, Type (0, 1), BuildingBlock: EZIPEK_clean_linker_0, # of connection points: 2
#     Edge 114, Type (0, 1), BuildingBlock: EZIPEK_clean_linker_0, # of connection points: 2
#     Edge 115, Type (0, 1), BuildingBlock: EZIPEK_clean_linker_0, # of connection points: 2
#     Edge 116, Type (0, 1), BuildingBlock: EZIPEK_clean_linker_0, # of connection points: 2
#     Edge 117, Type (0, 1), BuildingBlock: EZIPEK_clean_linker_0, # of connection points: 2
#     Edge 118, Type (0, 1), BuildingBlock: EZIPEK_clean_linker_0, # of connection points: 2
#     Edge 119, Type (0, 1), BuildingBlock: EZIPEK_clean_linker_0, # of connection points: 2
#     Edge 120, Type (0, 1), BuildingBlock: EZIPEK_clean_linker_0, # of connection points: 2
#     Edge 121, Type (0, 1), BuildingBlock: EZIPEK_clean_linker_0, # of connection points: 2
#     Edge 122, Type (0, 1), BuildingBlock: EZIPEK_clean_linker_0, # of connection points: 2
#     Edge 123, Type (0, 1), BuildingBlock: EZIPEK_clean_linker_0, # of connection points: 2
#     Edge 124, Type (0, 1), BuildingBlock: EZIPEK_clean_linker_0, # of connection points: 2
#     Edge 125, Type (0, 1), BuildingBlock: EZIPEK_clean_linker_0, # of connection points: 2
#     Edge 126, Type (0, 1), BuildingBlock: EZIPEK_clean_linker_0, # of connection points: 2
#     Edge 127, Type (0, 1), BuildingBlock: EZIPEK_clean_linker_0, # of connection points: 2
#     Edge 128, Type (0, 1), BuildingBlock: EZIPEK_clean_linker_0, # of connection points: 2
#     Edge 129, Type (0, 1), BuildingBlock: EZIPEK_clean_linker_0, # of connection points: 2
#     Edge 130, Type (0, 1), BuildingBlock: EZIPEK_clean_linker_0, # of connection points: 2
#     Edge 131, Type (0, 1), BuildingBlock: EZIPEK_clean_linker_0, # of connection points: 2
#     Edge 132, Type (0, 1), BuildingBlock: EZIPEK_clean_linker_0, # of connection points: 2
#     Edge 133, Type (0, 1), BuildingBlock: EZIPEK_clean_linker_0, # of connection points: 2
#     Edge 134, Type (0, 1), BuildingBlock: EZIPEK_clean_linker_0, # of connection points: 2
#     Edge 135, Type (0, 1), BuildingBlock: EZIPEK_clean_linker_0, # of connection points: 2
# Relax obj value: 0.288
# Max RMSD: 0.362
# Mean RMSD: 0.146
data_MOF--net-gar--node1-QUQFOY_clean_sbu_3--node2-NUHQIS_clean_sbu_0--edge1-EZIPEK_clean_linker_0
_symmetry_space_group_name_H-M    P1
_symmetry_Int_Tables_number       1
_symmetry_cell_setting            triclinic
loop_
_symmetry_equiv_pos_as_xyz
'x, y, z'
_cell_length_a     43.592408
_cell_length_b     46.659536
_cell_length_c     43.419268
_cell_angle_alpha  93.56596
_cell_angle_beta   97.897174
_cell_angle_gamma 100.58809
loop_
_atom_site_label
_atom_site_type_symbol
_atom_site_fract_x
_atom_site_fract_y
_atom_site_fract_z
_atom_type_partial_charge
C0 C 1.02217 0.32354 0.37292 0.0
O1 O 0.04013 0.34568 0.3655 0.0
Cd2 Cd 0.08994 0.34963 0.39954 0.0
O3 O 0.03489 0.30836 0.39329 0.0
Cd4 Cd 0.09647 0.31591 0.42491 0.0
C5 C 0.09902 0.39966 0.45092 0.0
O6 O 0.12772 0.32754 0.37399 0.0
O7 O 0.15569 0.31706 0.41414 0.0
O8 O 0.08066 0.25636 0.42708 0.0
C9 C 0.15454 0.32244 0.38562 0.0
O10 O 0.1011 0.40078 0.42216 0.0
C11 C 0.09003 0.25283 0.45557 0.0
O12 O 0.09646 0.37314 0.46042 0.0
O13 O 0.1021 0.27771 0.47086 0.0
C14 C 1.00292 0.81999 0.7061 0.0
O15 O 1.01757 0.80017 0.71508 0.0
Cd16 Cd 0.06133 0.80122 0.68464 0.0
O17 O 1.01544 0.83592 0.68557 0.0
Cd18 Cd 0.07238 0.83784 0.65678 0.0
C19 C 0.07001 0.75483 0.6325 0.0
O20 O 0.10999 0.83347 0.71011 0.0
O21 O 0.1327 0.83982 0.66978 0.0
O22 O 0.07885 0.89723 0.65418 0.0
C23 C 0.13585 0.83715 0.69892 0.0
O24 O 0.06806 0.75343 0.6613 0.0
C25 C 0.07793 0.90031 0.62505 0.0
O26 O 0.06979 0.78073 0.62221 0.0
O27 O 0.07433 0.8753 0.60956 0.0
C28 C 0.51944 0.82 0.87472 0.0
O29 O 0.53678 0.84192 0.8661 0.0
Cd30 Cd 0.58841 0.84669 0.8975 0.0
O31 O 0.53288 0.80524 0.89501 0.0
Cd32 Cd 0.59491 0.81223 0.92409 0.0
C33 C 0.5978 0.89589 0.94979 0.0
O34 O 0.62414 0.82178 0.87189 0.0
O35 O 0.6543 0.81576 0.91267 0.0
O36 O 0.57898 0.75291 0.92654 0.0
C37 C 0.65186 0.81891 0.88352 0.0
O38 O 0.60172 0.89763 0.92151 0.0
C39 C 0.5894 0.74946 0.95478 0.0
O40 O 0.59392 0.86919 0.95881 0.0
O41 O 0.60219 0.77429 0.96982 0.0
C42 C 0.50381 0.31766 0.20724 0.0
O43 O 0.51777 0.2976 0.21676 0.0
Cd44 Cd 0.56093 0.2977 0.18564 0.0
O45 O 0.51622 0.33281 0.18611 0.0
Cd46 Cd 0.57195 0.33371 0.15603 0.0
C47 C 0.56806 0.24957 0.13443 0.0
O48 O 0.61059 0.33032 0.20889 0.0
O49 O 0.63218 0.3359 0.16772 0.0
O50 O 0.57796 0.39309 0.15291 0.0
C51 C 0.63606 0.33381 0.19696 0.0
O52 O 0.566 0.24916 0.16329 0.0
C53 C 0.57695 0.39609 0.12376 0.0
O54 O 0.56839 0.27523 0.12327 0.0
O55 O 0.57347 0.37102 0.10839 0.0
C56 C 0.11942 0.89545 0.23454 0.0
O57 O 0.13758 0.88476 0.25412 0.0
Cd58 Cd 0.18896 0.87816 0.24951 0.0
O59 O 0.12807 0.90566 0.20997 0.0
Cd60 Cd 0.17331 0.91227 0.18225 0.0
C61 C 0.16585 0.83863 0.17753 0.0
O62 O 0.20841 0.92257 0.22912 0.0
O63 O 0.23186 0.92634 0.18919 0.0
O64 O 0.15444 0.95235 0.16033 0.0
C65 C 0.23408 0.92483 0.21839 0.0
O66 O 0.17434 0.83932 0.20685 0.0
C67 C 0.15193 0.94098 0.13243 0.0
O68 O 0.16355 0.86159 0.164 0.0
O69 O 0.16182 0.91736 0.12791 0.0
C70 C 0.47613 0.72361 0.36346 0.0
O71 O 0.49401 0.72949 0.34298 0.0
Cd72 Cd 0.54894 0.74746 0.34992 0.0
O73 O 0.48743 0.72313 0.39213 0.0
Cd74 Cd 0.53944 0.73129 0.42572 0.0
C75 C 0.54091 0.80041 0.40613 0.0
O76 O 0.56775 0.7185 0.38683 0.0
O77 O 0.59712 0.73986 0.42872 0.0
O78 O 0.533 0.69258 0.45939 0.0
C79 C 0.59495 0.73031 0.4005 0.0
O80 O 0.5474 0.79354 0.37919 0.0
C81 C 0.54324 0.70987 0.48404 0.0
O82 O 0.53615 0.78182 0.42601 0.0
O83 O 0.54807 0.73725 0.48159 0.0
C84 C 0.61883 0.39582 0.73127 0.0
O85 O 0.64072 0.38973 0.75068 0.0
Cd86 Cd 0.69189 0.38557 0.74109 0.0
O87 O 0.62277 0.40218 0.70392 0.0
Cd88 Cd 0.66277 0.40835 0.6704 0.0
C89 C 0.66218 0.33682 0.67563 0.0
O90 O 0.7065 0.42375 0.71032 0.0
O91 O 0.718 0.4114 0.66591 0.0
O92 O 0.6458 0.45043 0.65053 0.0
C93 C 0.72721 0.41714 0.69492 0.0
O94 O 0.6774 0.34268 0.70324 0.0
C95 C 0.63775 0.43857 0.62269 0.0
O96 O 0.65243 0.35629 0.65981 0.0
O97 O 0.64294 0.41304 0.61678 0.0
C98 C 0.97116 0.22991 0.86071 0.0
O99 O 0.99125 0.24307 0.8452 0.0
Cd100 Cd 0.04511 0.26287 0.85866 0.0
O101 O 0.97925 0.22447 0.88879 0.0
Cd102 Cd 0.02963 0.23485 0.92553 0.0
C103 C 0.03149 0.30585 0.92089 0.0
O104 O 0.06198 0.22701 0.88792 0.0
O105 O 0.08701 0.25077 0.93074 0.0
O106 O 1.02625 0.18986 0.94987 0.0
C107 C 0.08795 0.23926 0.90384 0.0
O108 O 0.04098 0.30347 0.89458 0.0
C109 C 0.0361 0.20288 0.97703 0.0
O110 O 1.02377 0.28403 0.9362 0.0
O111 O 0.03777 0.23034 0.9805 0.0
C112 C 0.57978 0.17428 0.39619 0.0
O113 O 0.59419 0.16735 0.37451 0.0
Cd114 Cd 0.61699 0.12707 0.36016 0.0
O115 O 0.55772 0.18792 0.38885 0.0
Cd116 Cd 0.5419 0.15835 0.33704 0.0
C117 C 0.54522 0.08353 0.35416 0.0
O118 O 0.58891 0.14827 0.32122 0.0
O119 O 0.56152 0.16725 0.28628 0.0
O120 O 0.50086 0.18223 0.31499 0.0
C121 C 0.5848 0.15502 0.29373 0.0
O122 O 0.57502 0.08495 0.35753 0.0
C123 C 0.48026 0.1586 0.30974 0.0
O124 O 0.53309 0.10605 0.34899 0.0
O125 O 0.48836 0.13503 0.31775 0.0
C126 C 0.41231 0.15242 0.54999 0.0
O127 O 0.39672 0.1452 0.57182 0.0
Cd128 Cd 0.35519 0.17445 0.56795 0.0
O129 O 0.40164 0.17106 0.53219 0.0
Cd130 Cd 0.34775 0.19904 0.53107 0.0
C131 C 0.34999 0.22692 0.61417 0.0
O132 O 0.30598 0.14997 0.53565 0.0
O133 O 0.28718 0.18892 0.53268 0.0
O134 O 0.3383 0.20507 0.46951 0.0
C135 C 0.28141 0.16134 0.53395 0.0
O136 O 0.34859 0.19987 0.61733 0.0
C137 C 0.34727 0.23266 0.4693 0.0
O138 O 0.35239 0.23501 0.58637 0.0
O139 O 0.35658 0.24515 0.49686 0.0
C140 C 0.20674 0.1074 0.94029 0.0
O141 O 0.19129 0.12663 0.93092 0.0
Cd142 Cd 0.18206 0.14407 0.88112 0.0
O143 O 0.22486 0.09684 0.92414 0.0
Cd144 Cd 0.23892 0.10541 0.87374 0.0
C145 C 0.25519 0.17859 0.87247 0.0
O146 O 0.18461 0.09919 0.85495 0.0
O147 O 0.21387 0.09999 0.8189 0.0
O148 O 0.255 0.05956 0.86667 0.0
C149 C 0.18649 0.09775 0.82634 0.0
O150 O 0.22637 0.18008 0.87219 0.0
C151 C 0.28227 0.07151 0.86167 0.0
O152 O 0.26516 0.15504 0.8762 0.0
O153 O 0.28977 0.09919 0.86422 0.0
C154 C 0.41089 0.96609 0.05188 0.0
O155 O 0.39423 0.97967 0.03395 0.0
Cd156 Cd 0.33948 0.96902 0.01943 0.0
O157 O 0.39897 0.94279 0.06334 0.0
Cd158 Cd 0.34459 0.91339 0.06224 0.0
C159 C 0.33047 0.90117 0.98006 0.0
O160 O 0.32784 0.95858 0.06956 0.0
O161 O 0.28981 0.92146 0.06681 0.0
O162 O 0.35986 0.90966 0.11831 0.0
C163 C 0.29955 0.94893 0.0723 0.0
O164 O 0.32956 0.92822 0.97976 0.0
C165 C 0.35268 0.88205 0.11768 0.0
O166 O 0.33621 0.88987 1.00593 0.0
O167 O 0.34286 0.86828 0.09085 0.0
C168 C 0.37961 0.4942 0.03777 0.0
O169 O 0.36117 0.50284 0.01682 0.0
Cd170 Cd 0.31107 0.47013 0.01629 0.0
O171 O 0.36674 0.47407 0.05391 0.0
Cd172 Cd 0.30363 0.44479 0.05072 0.0
C173 C 0.30354 0.41728 0.96786 0.0
O174 O 0.27397 0.49164 0.04303 0.0
O175 O 0.2431 0.45064 0.04115 0.0
O176 O 0.32253 0.43725 0.11093 0.0
C177 C 0.24542 0.47827 0.04141 0.0
O178 O 0.29924 0.44309 0.96423 0.0
C179 C 0.30488 0.41291 0.11415 0.0
O180 O 0.30687 0.41025 0.99646 0.0
O181 O 0.28665 0.40293 0.08866 0.0
C182 C 0.85322 0.18297 0.03635 0.0
O183 O 0.83459 0.16769 0.05181 0.0
Cd184 Cd 0.7862 0.17497 0.06525 0.0
O185 O 0.8471 0.20622 0.025 0.0
Cd186 Cd 0.80163 0.23158 0.01945 0.0
C187 C 0.81112 0.24613 0.10049 0.0
O188 O 0.76766 0.18512 0.01476 0.0
O189 O 0.74281 0.22071 0.01314 0.0
O190 O 0.81153 0.23294 0.96524 0.0
C191 C 0.74163 0.19329 0.01144 0.0
O192 O 0.80075 0.21892 0.10158 0.0
C193 C 0.80578 0.25831 0.96174 0.0
O194 O 0.81442 0.257 0.07444 0.0
O195 O 0.80021 0.27244 0.98573 0.0
C196 C 0.0666 0.49584 0.27099 0.0
O197 O 0.05958 0.50417 0.24443 0.0
Cd198 Cd 0.04649 0.5197 0.19538 0.0
O199 O 0.08681 0.47957 0.27526 0.0
Cd200 Cd 0.11412 0.48293 0.23055 0.0
C201 C 0.11653 0.56052 0.22094 0.0
O202 O 0.07304 0.4814 0.19111 0.0
O203 O 0.10078 0.45075 0.17925 0.0
O204 O 0.15106 0.45456 0.25157 0.0
C205 C 0.07762 0.46299 0.17102 0.0
O206 O 0.08924 0.56092 0.20621 0.0
C207 C 0.17485 0.47408 0.24869 0.0
O208 O 0.125 0.53694 0.22899 0.0
O209 O 0.17017 0.49696 0.2358 0.0
C210 C 0.88135 0.99568 0.53473 0.0
O211 O 0.86291 1.00637 0.51562 0.0
Cd212 Cd 0.81316 0.97231 0.51205 0.0
O213 O 0.86854 0.97368 0.54867 0.0
Cd214 Cd 0.80538 0.94376 0.54608 0.0
C215 C 0.80662 0.91776 0.46347 0.0
O216 O 0.77464 0.98949 0.54113 0.0
O217 O 0.74458 0.94795 0.53333 0.0
O218 O 0.81749 0.93846 0.60761 0.0
C219 C 0.74613 0.97553 0.53682 0.0
O220 O 0.80425 0.94418 0.46046 0.0
C221 C 0.8055 0.91151 0.60869 0.0
O222 O 0.80834 0.90978 0.49166 0.0
O223 O 0.79356 0.89895 0.58159 0.0
C224 C 0.96661 0.03537 0.24386 0.0
O225 O 0.98159 0.02198 0.22642 0.0
Cd226 Cd 0.96415 1.0091 0.17263 0.0
O227 O 0.94088 0.04313 0.23344 0.0
Cd228 Cd 0.90326 0.04082 0.18539 0.0
C229 C 0.89483 0.96793 0.18707 0.0
O230 O 0.94838 0.05425 0.16528 0.0
O231 O 0.90781 0.05029 0.12965 0.0
O232 O 0.89565 0.08336 0.21381 0.0
C233 C 0.93746 0.05768 0.13784 0.0
O234 O 0.92163 0.96885 0.17827 0.0
C235 C 0.86667 0.08031 0.20265 0.0
O236 O 0.88343 0.99076 0.19101 0.0
O237 O 0.85444 0.05868 0.18278 0.0
C238 C 0.35803 0.67775 0.53958 0.0
O239 O 0.34162 0.66317 0.55742 0.0
Cd240 Cd 0.2945 0.67428 0.57196 0.0
O241 O 0.35118 0.70125 0.52947 0.0
Cd242 Cd 0.30824 0.72964 0.52984 0.0
C243 C 0.31754 0.7434 0.61051 0.0
O244 O 0.27308 0.68334 0.52091 0.0
O245 O 0.24948 0.71943 0.52289 0.0
O246 O 0.31553 0.73218 0.47575 0.0
C247 C 0.24747 0.69226 0.51582 0.0
O248 O 0.30771 0.71608 0.61106 0.0
C249 C 0.31619 0.75926 0.47411 0.0
O250 O 0.32087 0.75459 0.58471 0.0
O251 O 0.31394 0.7739 0.49915 0.0
C252 C 0.4833 0.53425 0.74003 0.0
O253 O 0.4877 0.52083 0.71506 0.0
Cd254 Cd 0.451 0.50378 0.66761 0.0
O255 O 0.45814 0.54398 0.74219 0.0
Cd256 Cd 0.41155 0.54925 0.70713 0.0
C257 C 0.39055 0.47461 0.70419 0.0
O258 O 0.4237 0.5419 0.65811 0.0
O259 O 0.43428 0.58735 0.67583 0.0
O260 O 0.40197 0.58458 0.74385 0.0
C261 C 0.43806 0.56764 0.65614 0.0
O262 O 0.41339 0.47021 0.69032 0.0
C263 C 0.37362 0.58312 0.73106 0.0
O264 O 0.38459 0.49995 0.70924 0.0
O265 O 0.36261 0.56507 0.70721 0.0
C266 C 0.54718 1.02071 0.7525 0.0
O267 O 0.53129 1.01893 0.72541 0.0
Cd268 Cd 0.54566 1.00243 0.67763 0.0
O269 O 0.57425 1.01382 0.75753 0.0
Cd270 Cd 0.61343 0.99754 0.72977 0.0
C271 C 0.61037 0.05676 0.68593 0.0
O272 O 0.57286 0.96581 0.69568 0.0
O273 O 0.61848 0.95826 0.69102 0.0
O274 O 0.63842 0.9875 0.78061 0.0
C275 C 0.58989 0.95509 0.67863 0.0
O276 O 0.58372 0.04552 0.66986 0.0
C277 C 0.66598 0.99143 0.77302 0.0
O278 O 0.62352 0.0437 0.70736 0.0
O279 O 0.66858 0.9988 0.74567 0.0
C280 C 0.9114 0.65497 0.04479 0.0
O281 O 0.8939 0.6456 0.06447 0.0
Cd282 Cd 0.85328 0.67591 0.06078 0.0
O283 O 0.90145 0.67461 0.02797 0.0
Cd284 Cd 0.84529 0.69973 0.02493 0.0
C285 C 0.84759 0.72754 0.1073 0.0
O286 O 0.80361 0.65036 0.0314 0.0
O287 O 0.78415 0.68835 0.02296 0.0
O288 O 0.84228 0.70586 0.96356 0.0
C289 C 0.77878 0.66129 0.0271 0.0
O290 O 0.84673 0.70057 0.11053 0.0
C291 C 0.8449 0.73356 0.96356 0.0
O292 O 0.84968 0.73571 0.07953 0.0
O293 O 0.84794 0.74605 0.99111 0.0
C294 C 0.08611 0.65418 0.88119 0.0
O295 O 0.10945 0.64524 0.87199 0.0
Cd296 Cd 0.10261 0.60888 0.82887 0.0
O297 O 0.05931 0.64858 0.86386 0.0
Cd298 Cd 0.03043 0.62585 0.8137 0.0
C299 C 0.03716 0.56577 0.85093 0.0
O300 O 0.07198 0.62322 0.78546 0.0
O301 O 0.02758 0.59425 0.76691 0.0
O302 O 1.0019 0.66291 0.79634 0.0
C303 C 0.05676 0.6023 0.76608 0.0
O304 O 0.06626 0.56955 0.84782 0.0
C305 C 0.97533 0.64572 0.79529 0.0
O306 O 1.02027 0.58353 0.84055 0.0
O307 O 0.97501 0.62015 0.80372 0.0
C308 C 0.91745 0.46748 0.55113 0.0
O309 O 0.90088 0.48001 0.53193 0.0
Cd310 Cd 0.84613 0.46682 0.51495 0.0
O311 O 0.90577 0.44384 0.56213 0.0
Cd312 Cd 0.8519 0.41221 0.5575 0.0
C313 C 0.83855 0.39932 0.47567 0.0
O314 O 0.83014 0.45539 0.56343 0.0
O315 O 0.79525 0.41552 0.55775 0.0
O316 O 0.86413 0.40704 0.6137 0.0
C317 C 0.80188 0.44314 0.56344 0.0
O318 O 0.83641 0.42607 0.47488 0.0
C319 C 0.85824 0.37932 0.61175 0.0
O320 O 0.84521 0.38865 0.50172 0.0
O321 O 0.85054 0.36637 0.58434 0.0
C322 C 0.69443 0.60942 0.41225 0.0
O323 O 0.67528 0.61903 0.39261 0.0
Cd324 Cd 0.67511 0.62005 0.33855 0.0
O325 O 0.71885 0.60105 0.40497 0.0
Cd326 Cd 0.73917 0.59483 0.35644 0.0
C327 C 0.74664 0.66416 0.33923 0.0
O328 O 0.68699 0.57254 0.33386 0.0
O329 O 0.72004 0.5728 0.30215 0.0
O330 O 0.76261 0.55738 0.3807 0.0
C331 C 0.69229 0.5636 0.30762 0.0
O332 O 0.71692 0.66005 0.33114 0.0
C333 C 0.78569 0.56146 0.36548 0.0
O334 O 0.76005 0.64463 0.35091 0.0
O335 O 0.78836 0.58276 0.34869 0.0
Tb336 Tb 0.05852 0.06099 0.0358 0.0
Eu337 Eu 0.12099 0.08674 0.10174 0.0
C338 C 0.12746 0.07427 0.02615 0.0
C339 C 0.09574 1.01764 0.06791 0.0
C340 C 0.98175 0.07127 0.01219 0.0
C341 C 0.93345 0.08829 0.99596 0.0
C342 C 0.95238 0.06736 0.99326 0.0
C343 C 0.99225 0.09632 0.0333 0.0
C344 C 0.97405 0.11753 0.03525 0.0
C345 C 0.9443 0.11339 0.01707 0.0
C346 C 1.00255 0.05023 1.0104 0.0
O347 O 0.06945 0.07304 0.08308 0.0
O348 O 0.08065 0.0894 0.12997 0.0
O349 O 0.10863 0.12679 0.07918 0.0
O350 O 0.06737 0.10797 0.03786 0.0
C351 C 0.05782 0.07908 0.10769 0.0
O352 O 0.15029 0.07913 0.14432 0.0
O353 O 0.1679 0.11379 0.11657 0.0
O354 O 0.1356 0.07146 0.05609 0.0
O355 O 0.09816 0.07169 0.01212 0.0
O356 O 0.07838 0.02258 0.04219 0.0
O357 O 0.10819 0.03704 0.09213 0.0
C358 C 0.08733 0.12949 0.05517 0.0
O359 O 1.026 0.05822 0.99484 0.0
O360 O 1.01183 0.04101 0.03736 0.0
C361 C 0.20052 0.08027 0.1309 0.0
C362 C 0.23708 0.03878 0.11646 0.0
C363 C 0.23819 0.04974 0.14767 0.0
C364 C 0.21926 0.0698 0.15492 0.0
C365 C 0.20175 0.07101 0.09983 0.0
C366 C 0.21891 0.04998 0.09271 0.0
C367 C 0.17529 0.09594 0.13721 0.0
H368 H 0.91032 0.08484 0.98194 0.0
H369 H 0.94402 0.04814 0.97687 0.0
H370 H 1.01429 0.09927 0.04888 0.0
H371 H 0.98257 0.13658 0.05189 0.0
H372 H 0.25251 0.04176 0.16639 0.0
H373 H 0.21848 0.07638 0.17911 0.0
H374 H 0.18851 0.07916 0.08081 0.0
H375 H 0.21798 0.04243 0.06843 0.0
Tb376 Tb 0.37237 0.84146 0.31209 0.0
Eu377 Eu 0.31684 0.78795 0.27643 0.0
C378 C 0.30674 0.85459 0.28703 0.0
C379 C 0.32922 0.79858 0.35117 0.0
C380 C 0.43222 0.91078 0.34164 0.0
C381 C 0.45388 0.95647 0.37361 0.0
C382 C 0.43731 0.92762 0.37048 0.0
C383 C 0.44335 0.92338 0.31574 0.0
C384 C 0.46022 0.95212 0.31897 0.0
C385 C 0.46593 0.96865 0.34801 0.0
C386 C 0.41804 0.87955 0.34008 0.0
O387 O 0.39345 0.8045 0.29928 0.0
O388 O 0.35304 0.76659 0.30158 0.0
O389 O 0.3478 0.80498 0.24136 0.0
O390 O 0.36412 0.85213 0.26331 0.0
C391 C 0.38317 0.77777 0.30577 0.0
O392 O 0.30169 0.74827 0.24481 0.0
O393 O 0.26684 0.77146 0.26073 0.0
O394 O 0.30231 0.83032 0.26892 0.0
O395 O 0.3308 0.86131 0.30949 0.0
O396 O 0.35676 0.81485 0.34906 0.0
O397 O 0.3077 0.78926 0.32653 0.0
C398 C 0.35691 0.83297 0.23849 0.0
O399 O 0.39099 0.87287 0.35004 0.0
O400 O 0.41931 0.86318 0.31501 0.0
C401 C 0.25009 0.72113 0.24569 0.0
C402 C 0.20765 0.668 0.24267 0.0
C403 C 0.23947 0.66985 0.25504 0.0
C404 C 0.26069 0.69643 0.25667 0.0
C405 C 0.21807 0.71928 0.23415 0.0
C406 C 0.19691 0.69286 0.2328 0.0
C407 C 0.27174 0.74877 0.24438 0.0
H408 H 0.45803 0.96906 0.3961 0.0
H409 H 0.42921 0.91818 0.3908 0.0
H410 H 0.43978 0.91088 0.29323 0.0
H411 H 0.46931 0.96134 0.29898 0.0
H412 H 0.24787 0.65064 0.26276 0.0
H413 H 0.28532 0.6975 0.26583 0.0
H414 H 0.20956 0.73816 0.22558 0.0
H415 H 0.17232 0.69155 0.22337 0.0
Tb416 Tb 0.55781 0.04011 0.51262 0.0
Eu417 Eu 0.5991 0.0866 0.56566 0.0
C418 C 0.5724 1.02163 0.58108 0.0
C419 C 0.52503 0.09211 0.54427 0.0
C420 C 0.52465 0.97527 0.45839 0.0
C421 C 0.49862 0.92499 0.44357 0.0
C422 C 0.49712 0.95368 0.45313 0.0
C423 C 0.55369 0.9681 0.45368 0.0
C424 C 0.55504 0.93967 0.44345 0.0
C425 C 0.52762 0.91797 0.4388 0.0
C426 C 0.52325 1.0048 0.47032 0.0
O427 O 0.58686 0.07203 0.48971 0.0
O428 O 0.58672 0.11027 0.52399 0.0
O429 O 0.63463 0.05938 0.5497 0.0
O430 O 0.60243 0.02212 0.51712 0.0
C431 C 0.58776 0.0998 0.4958 0.0
O432 O 0.64264 0.11899 0.57664 0.0
O433 O 0.6125 0.1089 0.61223 0.0
O434 O 0.58254 0.04886 0.59237 0.0
O435 O 0.56361 1.01375 0.55131 0.0
O436 O 0.52376 0.06944 0.52349 0.0
O437 O 0.55144 0.10167 0.56408 0.0
C438 C 0.6309 0.03406 0.53259 0.0
O439 O 0.51719 1.00746 0.49881 0.0
O440 O 0.54627 0.02521 0.46547 0.0
C441 C 0.63814 0.15754 0.61127 0.0
C442 C 0.64167 0.21718 0.62546 0.0
C443 C 0.66939 0.20616 0.62453 0.0
C444 C 0.66761 0.17634 0.61767 0.0
C445 C 0.61034 0.16887 0.61011 0.0
C446 C 0.61212 0.19867 0.61711 0.0
C447 C 0.63667 0.12639 0.60437 0.0
H448 H 0.47735 0.90825 0.44019 0.0
H449 H 0.47466 0.95891 0.45698 0.0
H450 H 0.57537 0.98436 0.45804 0.0
H451 H 0.57758 0.93436 0.43997 0.0
H452 H 0.69234 0.22043 0.63056 0.0
H453 H 0.68918 0.16789 0.61784 0.0
H454 H 0.58733 0.15468 0.60424 0.0
H455 H 0.5906 0.20716 0.61718 0.0
Tb456 Tb 0.29469 0.32042 0.77765 0.0
Eu457 Eu 0.36733 0.32847 0.80472 0.0
C458 C 0.3417 0.37248 0.75942 0.0
C459 C 0.339 0.29626 0.73327 0.0
C460 C 0.21401 0.29317 0.77905 0.0
C461 C 0.16227 0.28204 0.79405 0.0
C462 C 0.18192 0.29417 0.77352 0.0
C463 C 0.22616 0.2792 0.8044 0.0
C464 C 0.20668 0.26703 0.82468 0.0
C465 C 0.17491 0.26901 0.81991 0.0
C466 C 0.23613 0.30912 0.76114 0.0
O467 O 0.30368 0.27973 0.79474 0.0
O468 O 0.34336 0.29724 0.83431 0.0
O469 O 0.34874 0.35769 0.83952 0.0
O470 O 0.29684 0.3357 0.82831 0.0
C471 C 0.31892 0.27764 0.82225 0.0
O472 O 0.40955 0.31024 0.81604 0.0
O473 O 0.41044 0.35639 0.82824 0.0
O474 O 0.36523 0.35961 0.76804 0.0
O475 O 0.31335 0.36357 0.76584 0.0
O476 O 0.31409 0.30845 0.73497 0.0
O477 O 0.36046 0.29792 0.7586 0.0
C478 C 0.32017 0.35334 0.84737 0.0
O479 O 0.25133 0.33427 0.775 0.0
O480 O 0.25506 0.29371 0.75055 0.0
C481 C 0.45384 0.34444 0.80993 0.0
C482 C 0.50447 0.36502 0.77979 0.0
C483 C 0.50964 0.36169 0.81183 0.0
C484 C 0.48422 0.35146 0.82696 0.0
C485 C 0.44869 0.3479 0.77789 0.0
C486 C 0.47401 0.35826 0.76282 0.0
C487 C 0.42696 0.33597 0.82572 0.0
H488 H 0.13765 0.28392 0.79065 0.0
H489 H 0.17246 0.30527 0.75428 0.0
H490 H 0.25099 0.27887 0.80943 0.0
H491 H 0.21664 0.25744 0.84491 0.0
H492 H 0.53327 0.36687 0.82493 0.0
H493 H 0.48817 0.34926 0.85181 0.0
H494 H 0.42509 0.34288 0.76473 0.0
H495 H 0.47001 0.36073 0.73801 0.0
Tb496 Tb 0.08302 0.06058 0.50878 0.0
Eu497 Eu 0.08474 0.09297 0.57254 0.0
C498 C 0.14938 0.09807 0.54123 0.0
C499 C 0.08741 1.02112 0.56921 0.0
C500 C 0.06464 0.03871 0.42535 0.0
C501 C 0.05193 0.02496 0.37005 0.0
C502 C 0.06903 0.02232 0.39886 0.0
C503 C 0.04343 0.05803 0.4231 0.0
C504 C 1.02632 0.06066 0.39432 0.0
C505 C 0.03047 0.04398 0.36786 0.0
C506 C 0.08185 0.03547 0.45547 0.0
O507 O 0.03132 0.05267 0.51211 0.0
O508 O 0.0337 0.06739 0.5635 0.0
O509 O 0.07812 0.13072 0.54126 0.0
O510 O 0.08045 0.10673 0.49462 0.0
C511 C 1.01738 0.05355 0.53736 0.0
O512 O 0.06215 0.11324 0.60785 0.0
O513 O 0.11285 0.11452 0.61513 0.0
O514 O 0.13359 0.11083 0.55978 0.0
O515 O 0.13486 0.07362 0.52438 0.0
O516 O 0.0855 0.02267 0.53852 0.0
O517 O 0.09031 0.04614 0.58694 0.0
C518 C 0.0798 0.1318 0.51112 0.0
O519 O 0.10275 0.0583 0.46754 0.0
O520 O 0.06436 0.02495 0.47558 0.0
C521 C 0.08721 0.10924 0.6587 0.0
C522 C 0.09876 0.103 0.72211 0.0
C523 C 0.07545 0.11839 0.71081 0.0
C524 C 0.07025 0.12212 0.67902 0.0
C525 C 0.10649 0.08987 0.66963 0.0
C526 C 0.11263 0.08717 0.70131 0.0
C527 C 0.08837 0.11902 0.62759 0.0
H528 H 0.05511 1.01201 0.34955 0.0
H529 H 0.08541 1.0074 0.40052 0.0
H530 H 0.03995 0.07077 0.44361 0.0
H531 H 1.00971 0.07536 0.39265 0.0
H532 H 0.06401 0.13 0.72681 0.0
H533 H 0.05478 0.13661 0.67069 0.0
H534 H 0.11897 0.07878 0.65417 0.0
H535 H 0.13005 0.07451 0.70978 0.0
Tb536 Tb 0.31019 0.79392 0.80388 0.0
Eu537 Eu 0.3394 0.85601 0.7845 0.0
C538 C 0.31921 0.84915 0.8522 0.0
C539 C 0.26333 0.83152 0.76908 0.0
C540 C 0.28793 0.71496 0.80415 0.0
C541 C 0.30823 0.67062 0.81145 0.0
C542 C 0.29888 0.69523 0.82397 0.0
C543 C 0.28415 0.70874 0.77157 0.0
C544 C 0.2932 0.68401 0.7591 0.0
C545 C 0.3064 0.66562 0.77908 0.0
C546 C 0.28597 0.74393 0.81751 0.0
O547 O 0.31269 0.78522 0.75413 0.0
O548 O 0.34809 0.82567 0.74571 0.0
O549 O 0.38065 0.84224 0.81417 0.0
O550 O 0.36191 0.79304 0.81034 0.0
C551 C 0.33077 0.7998 0.73615 0.0
O552 O 0.34039 0.89141 0.75402 0.0
O553 O 0.37686 0.89467 0.79389 0.0
O554 O 0.31885 0.86547 0.8286 0.0
O555 O 0.32016 0.82136 0.84787 0.0
O556 O 0.26797 0.8141 0.79153 0.0
O557 O 0.28804 0.84781 0.76021 0.0
C558 C 0.38554 0.81576 0.81864 0.0
O559 O 0.31257 0.75919 0.83201 0.0
O560 O 0.27097 0.75952 0.7993 0.0
C561 C 0.35612 0.93577 0.78446 0.0
C562 C 0.34297 0.98661 0.81184 0.0
C563 C 0.37061 0.98788 0.79845 0.0
C564 C 0.37721 0.96232 0.78472 0.0
C565 C 0.32878 0.93463 0.79836 0.0
C566 C 0.32218 0.95998 0.81192 0.0
C567 C 0.36344 0.90855 0.7725 0.0
H568 H 0.31876 0.65658 0.82696 0.0
H569 H 0.30227 0.69994 0.84909 0.0
H570 H 0.27615 0.72383 0.75576 0.0
H571 H 0.29204 0.68033 0.73404 0.0
H572 H 0.38668 1.00854 0.79839 0.0
H573 H 0.39869 0.9632 0.77458 0.0
H574 H 0.31266 0.91409 0.79887 0.0
H575 H 0.30077 0.95893 0.82226 0.0
Tb576 Tb 0.60197 0.0652 0.07247 0.0
Eu577 Eu 0.56132 0.07934 0.01165 0.0
C578 C 0.59032 1.01674 0.01174 0.0
C579 C 0.6336 0.10592 0.02577 0.0
C580 C 0.64965 0.07079 0.15002 0.0
C581 C 0.64959 0.07364 0.20567 0.0
C582 C 0.6495 0.05713 0.17782 0.0
C583 C 0.65534 0.10142 0.15094 0.0
C584 C 0.65513 0.11793 0.17871 0.0
C585 C 0.64949 0.10365 0.20538 0.0
C586 C 0.6339 0.0536 0.12122 0.0
O587 O 0.58529 0.10626 0.09023 0.0
O588 O 0.56642 0.12189 0.04385 0.0
O589 O 0.52774 0.06441 0.04458 0.0
O590 O 0.55761 0.03374 0.065 0.0
C591 C 0.57455 0.12725 0.07446 0.0
O592 O 0.55088 0.11033 0.9783 0.0
O593 O 0.5197 0.06811 0.97601 0.0
O594 O 0.57059 0.03223 0.99749 0.0
O595 O 0.60776 0.02827 0.03883 0.0
O596 O 0.63157 0.10141 0.05494 0.0
O597 O 0.61132 0.09302 1.00333 0.0
C598 C 0.53002 0.04057 0.05795 0.0
O599 O 0.60327 0.05137 0.11726 0.0
O600 O 0.64575 0.05969 0.09582 0.0
C601 C 0.52647 0.08807 0.92928 0.0
C602 C 0.52471 0.07168 0.86646 0.0
C603 C 0.49666 0.07402 0.87778 0.0
C604 C 0.49756 0.08224 0.90929 0.0
C605 C 0.55467 0.08688 0.91757 0.0
C606 C 0.55377 0.07885 0.88612 0.0
C607 C 0.52666 0.09217 0.96266 0.0
H608 H 0.64518 0.06246 0.22623 0.0
H609 H 0.64505 0.03347 0.17735 0.0
H610 H 0.6559 0.11214 0.12959 0.0
H611 H 0.6551 0.14113 0.17834 0.0
H612 H 0.47415 0.06819 0.86259 0.0
H613 H 0.47568 0.0828 0.9183 0.0
H614 H 0.57713 0.09093 0.9329 0.0
H615 H 0.57548 0.0768 0.87741 0.0
Tb616 Tb 0.34145 0.35214 0.3098 0.0
Eu617 Eu 0.31199 0.29143 0.27365 0.0
C618 C 0.34152 0.29493 0.34922 0.0
C619 C 0.38688 0.32077 0.26973 0.0
C620 C 0.34318 0.42712 0.33086 0.0
C621 C 0.29254 0.44088 0.33345 0.0
C622 C 0.31696 0.42783 0.34634 0.0
C623 C 0.34663 0.44352 0.30497 0.0
C624 C 0.32215 0.45659 0.29208 0.0
C625 C 0.29439 0.45379 0.30537 0.0
C626 C 0.36082 0.40324 0.33553 0.0
O627 O 0.31842 0.36542 0.26442 0.0
O628 O 0.30811 0.32231 0.23425 0.0
O629 O 0.26822 0.30297 0.29306 0.0
O630 O 0.2927 0.345 0.32324 0.0
C631 C 0.31157 0.35112 0.23605 0.0
O632 O 0.30585 0.26077 0.232 0.0
O633 O 0.28469 0.24686 0.2717 0.0
O634 O 0.32621 0.27903 0.32368 0.0
O635 O 0.35272 0.32318 0.34761 0.0
O636 O 0.38274 0.34387 0.28694 0.0
O637 O 0.36423 0.29714 0.26547 0.0
C638 C 0.26736 0.32392 0.31489 0.0
O639 O 0.34753 0.3817 0.34975 0.0
O640 O 0.37082 0.39343 0.31085 0.0
C641 C 0.31695 0.21826 0.25187 0.0
C642 C 0.36321 0.18422 0.26182 0.0
C643 C 0.33627 0.17408 0.23936 0.0
C644 C 0.31304 0.19124 0.23431 0.0
C645 C 0.34389 0.22781 0.2743 0.0
C646 C 0.36673 0.21101 0.27929 0.0
C647 C 0.29522 0.23851 0.24671 0.0
H648 H 0.2712 0.43889 0.34401 0.0
H649 H 0.31371 0.41573 0.36654 0.0
H650 H 0.36671 0.44365 0.29275 0.0
H651 H 0.3238 0.46679 0.27046 0.0
H652 H 0.33355 0.15333 0.22566 0.0
H653 H 0.29255 0.18375 0.21664 0.0
H654 H 0.34773 0.2487 0.28768 0.0
H655 H 0.38751 0.21917 0.29652 0.0
Tb656 Tb 0.57973 0.55675 1.00771 0.0
Eu657 Eu 0.58387 0.59001 0.07183 0.0
C658 C 0.64721 0.59745 0.03623 0.0
C659 C 0.58503 0.51712 0.06762 0.0
C660 C 0.57574 0.53731 0.92236 0.0
C661 C 0.57197 0.51643 0.86941 0.0
C662 C 0.57909 0.51453 0.90135 0.0
C663 C 0.56922 0.56357 0.91137 0.0
C664 C 0.56172 0.56534 0.87942 0.0
C665 C 0.56118 0.54102 0.85861 0.0
C666 C 0.57203 0.53077 0.95415 0.0
O667 O 0.53305 0.53899 0.02183 0.0
O668 O 0.53017 0.57485 0.05811 0.0
O669 O 0.58188 0.62883 0.04139 0.0
O670 O 0.57722 0.60314 0.99404 0.0
C671 C 0.51627 0.55085 0.04033 0.0
O672 O 0.56253 0.61051 0.10789 0.0
O673 O 0.61252 0.60972 0.1153 0.0
O674 O 0.63402 0.6052 0.06021 0.0
O675 O 0.63077 0.57732 0.01445 0.0
O676 O 0.58552 0.51919 0.03722 0.0
O677 O 0.58523 0.54178 0.08505 0.0
C678 C 0.58009 0.62894 1.01074 0.0
O679 O 0.5976 0.53247 0.97422 0.0
O680 O 0.55036 0.54202 0.96577 0.0
C681 C 0.58671 0.60301 0.15768 0.0
C682 C 0.60448 0.57438 0.20943 0.0
C683 C 0.58338 0.55866 0.18421 0.0
C684 C 0.57458 0.57302 0.15822 0.0
C685 C 0.6048 0.61917 0.18434 0.0
C686 C 0.61368 0.60484 0.21024 0.0
C687 C 0.5885 0.61513 0.12787 0.0
H688 H 0.57152 0.49754 0.85339 0.0
H689 H 0.58416 0.4942 0.9096 0.0
H690 H 0.56679 0.58148 0.92741 0.0
H691 H 0.55338 0.58442 0.87121 0.0
H692 H 0.57628 0.53509 0.18345 0.0
H693 H 0.56097 0.56024 0.13753 0.0
H694 H 0.61467 0.64221 0.18397 0.0
H695 H 0.62999 0.61708 0.22976 0.0
Tb696 Tb 0.81338 0.29324 0.29671 0.0
Eu697 Eu 0.84154 0.35691 0.27745 0.0
C698 C 0.82546 0.34742 0.34797 0.0
C699 C 0.76537 0.33016 0.26396 0.0
C700 C 0.79276 0.21398 0.28979 0.0
C701 C 0.81259 0.16887 0.28917 0.0
C702 C 0.80496 0.1924 0.30578 0.0
C703 C 0.78654 0.21092 0.25694 0.0
C704 C 0.79386 0.18723 0.24037 0.0
C705 C 0.80787 0.16673 0.25648 0.0
C706 C 0.79159 0.24154 0.30717 0.0
O707 O 0.81438 0.28596 0.24635 0.0
O708 O 0.84654 0.32783 0.23588 0.0
O709 O 0.88452 0.34426 0.30531 0.0
O710 O 0.86561 0.29521 0.30608 0.0
C711 C 0.83011 0.30144 0.2272 0.0
O712 O 0.83293 0.39788 0.26045 0.0
O713 O 0.88094 0.39114 0.27071 0.0
O714 O 0.8311 0.36573 0.32663 0.0
O715 O 0.8191 0.31894 0.34141 0.0
O716 O 0.77075 0.31297 0.28638 0.0
O717 O 0.78965 0.34626 0.25409 0.0
C718 C 0.88916 0.31823 0.31233 0.0
O719 O 0.8189 0.25629 0.32055 0.0
O720 O 0.77471 0.25831 0.29289 0.0
C721 C 0.86998 0.43722 0.28495 0.0
C722 C 0.85861 0.48259 0.32374 0.0
C723 C 0.85734 0.48519 0.29162 0.0
C724 C 0.86307 0.46251 0.27224 0.0
C725 C 0.875 0.43621 0.31753 0.0
C726 C 0.8695 0.45903 0.33698 0.0
C727 C 0.86276 0.40999 0.26475 0.0
H728 H 0.82354 0.15311 0.30175 0.0
H729 H 0.81026 0.19465 0.33104 0.0
H730 H 0.77754 0.22751 0.244 0.0
H731 H 0.79029 0.18574 0.21508 0.0
H732 H 0.84873 0.50328 0.28123 0.0
H733 H 0.8587 0.46336 0.24716 0.0
H734 H 0.87986 0.41657 0.32769 0.0
H735 H 0.87018 0.45675 0.36174 0.0
Tb736 Tb 0.10735 0.57316 0.57127 0.0
Eu737 Eu 0.06333 0.58371 0.51065 0.0
C738 C 0.09239 0.52115 0.51283 0.0
C739 C 0.13613 0.60867 0.51898 0.0
C740 C 0.14356 0.54096 0.63859 0.0
C741 C 0.15625 0.54201 0.69441 0.0
C742 C 0.16619 0.5462 0.66553 0.0
C743 C 0.11405 0.52318 0.63953 0.0
C744 C 0.10374 0.52022 0.66831 0.0
C745 C 0.12376 0.53395 0.69533 0.0
C746 C 0.1441 0.56447 0.61794 0.0
O747 O 0.09091 0.61468 0.58708 0.0
O748 O 0.06938 0.62789 0.54042 0.0
O749 O 0.03133 0.56778 0.54473 0.0
O750 O 0.06353 0.54188 0.57141 0.0
C751 C 0.07926 0.6347 0.57064 0.0
O752 O 0.05152 0.60979 0.4725 0.0
O753 O 1.01802 0.57153 0.48044 0.0
O754 O 0.07672 0.53846 0.49624 0.0
O755 O 0.1061 0.53105 0.5418 0.0
O756 O 0.13694 0.60509 0.54857 0.0
O757 O 0.11169 0.59706 0.49834 0.0
C758 C 0.03518 0.54578 0.56091 0.0
O759 O 0.14863 0.55863 0.58937 0.0
O760 O 0.12104 0.57867 0.61933 0.0
C761 C 1.02518 0.5792 0.42948 0.0
C762 C 0.03412 0.56035 0.37023 0.0
C763 C 1.02065 0.58508 0.37426 0.0
C764 C 1.01628 0.59464 0.40415 0.0
C765 C 0.03772 0.55397 0.42488 0.0
C766 C 0.04212 0.54458 0.3954 0.0
C767 C 1.02581 0.59103 0.46122 0.0
H768 H 0.17226 0.55163 0.71534 0.0
H769 H 0.18949 0.55901 0.66504 0.0
H770 H 0.09666 0.51784 0.61862 0.0
H771 H 0.07873 0.51281 0.66868 0.0
H772 H 1.01448 0.59724 0.35464 0.0
H773 H 1.00704 0.61442 0.40767 0.0
H774 H 0.04504 0.54197 0.44417 0.0
H775 H 0.05257 0.52542 0.39227 0.0
Tb776 Tb 0.79299 0.82361 0.27048 0.0
Eu777 Eu 0.86512 0.82415 0.2985 0.0
C778 C 0.84521 0.87132 0.2522 0.0
C779 C 0.83549 0.79567 0.22612 0.0
C780 C 0.71279 0.80248 0.27377 0.0
C781 C 0.66051 0.78562 0.28594 0.0
C782 C 0.68008 0.7995 0.26615 0.0
C783 C 0.72574 0.7911 0.30068 0.0
C784 C 0.70643 0.77694 0.31996 0.0
C785 C 0.67388 0.77454 0.31289 0.0
C786 C 0.73461 0.81743 0.25483 0.0
O787 O 0.79556 0.78044 0.2849 0.0
O788 O 0.8392 0.78892 0.3222 0.0
O789 O 0.8488 0.85124 0.33679 0.0
O790 O 0.79564 0.84031 0.32075 0.0
C791 C 0.81231 0.77304 0.30932 0.0
O792 O 0.90742 0.80499 0.30373 0.0
O793 O 0.90782 0.84745 0.32759 0.0
O794 O 0.86681 0.85715 0.26349 0.0
O795 O 0.81575 0.86452 0.2563 0.0
O796 O 0.81159 0.80931 0.22803 0.0
O797 O 0.85656 0.79558 0.25128 0.0
C798 C 0.82003 0.85241 0.3423 0.0
O799 O 0.75213 0.84172 0.26855 0.0
O800 O 0.75142 0.80057 0.24291 0.0
C801 C 0.95168 0.84206 0.30466 0.0
C802 C 1.00257 0.86639 0.27632 0.0
C803 C 1.00451 0.84241 0.2939 0.0
C804 C 0.97904 0.83026 0.30812 0.0
C805 C 0.94975 0.86594 0.28669 0.0
C806 C 0.97526 0.87822 0.27276 0.0
C807 C 0.92463 0.82897 0.3187 0.0
H808 H 0.63521 0.78404 0.28073 0.0
H809 H 0.66988 0.80828 0.24549 0.0
H810 H 0.7509 0.79369 0.30725 0.0
H811 H 0.7169 0.76887 0.34101 0.0
H812 H 1.02573 0.83325 0.29664 0.0
H813 H 0.98062 0.8117 0.32165 0.0
H814 H 0.92861 0.87515 0.28347 0.0
H815 H 0.97371 0.89674 0.25915 0.0
Tb816 Tb 0.85538 0.33493 0.80367 0.0
Eu817 Eu 0.80877 0.27886 0.76541 0.0
C818 C 0.79163 0.34275 0.76705 0.0
C819 C 0.80611 0.29736 0.83783 0.0
C820 C 0.9159 0.4016 0.83958 0.0
C821 C 0.94884 0.44184 0.87315 0.0
C822 C 0.92854 0.41487 0.86951 0.0
C823 C 0.92314 0.41559 0.81309 0.0
C824 C 0.94359 0.44274 0.81676 0.0
C825 C 0.95671 0.45565 0.84685 0.0
C826 C 0.89668 0.37251 0.83724 0.0
O827 O 0.86992 0.29517 0.81818 0.0
O828 O 0.85532 0.26576 0.7734 0.0
O829 O 0.83696 0.29806 0.72955 0.0
O830 O 0.86083 0.34279 0.75509 0.0
C831 C 0.87249 0.2723 0.80065 0.0
O832 O 0.79236 0.23195 0.75876 0.0
O833 O 0.77176 0.25995 0.72679 0.0
O834 O 0.78092 0.31488 0.76916 0.0
O835 O 0.82155 0.35447 0.77556 0.0
O836 O 0.8189 0.32392 0.83265 0.0
O837 O 0.80412 0.27558 0.81641 0.0
C838 C 0.85143 0.32518 0.72919 0.0
O839 O 0.86644 0.37079 0.83737 0.0
O840 O 0.90311 0.35287 0.81754 0.0
C841 C 0.74164 0.21245 0.73038 0.0
C842 C 0.69005 0.16683 0.71097 0.0
C843 C 0.71498 0.16253 0.73304 0.0
C844 C 0.74067 0.18521 0.7427 0.0
C845 C 0.71561 0.21723 0.70985 0.0
C846 C 0.6899 0.19446 0.70038 0.0
C847 C 0.77168 0.23329 0.7344 0.0
H848 H 0.9584 0.45196 0.89645 0.0
H849 H 0.92296 0.40417 0.89006 0.0
H850 H 0.91339 0.40539 0.78984 0.0
H851 H 0.94945 0.45352 0.79635 0.0
H852 H 0.71529 0.14119 0.74147 0.0
H853 H 0.76055 0.18082 0.7583 0.0
H854 H 0.71579 0.23793 0.6998 0.0
H855 H 0.67044 0.19789 0.68391 0.0
Tb856 Tb 0.83738 0.8535 0.80529 0.0
Eu857 Eu 0.80813 0.79276 0.76843 0.0
C858 C 0.83878 0.79662 0.84424 0.0
C859 C 0.88452 0.82408 0.76735 0.0
C860 C 0.82635 0.92379 0.82843 0.0
C861 C 0.80461 0.96515 0.84597 0.0
C862 C 0.82906 0.94919 0.84844 0.0
C863 C 0.79917 0.91452 0.80618 0.0
C864 C 0.77511 0.93032 0.80362 0.0
C865 C 0.77757 0.95564 0.82347 0.0
C866 C 0.84978 0.90488 0.8313 0.0
O867 O 0.82471 0.8654 0.7561 0.0
O868 O 0.79582 0.82284 0.73037 0.0
O869 O 0.76448 0.80086 0.78969 0.0
O870 O 0.78764 0.84461 0.817 0.0
C871 C 0.80865 0.85073 0.72986 0.0
O872 O 0.80464 0.76254 0.72699 0.0
O873 O 0.7821 0.74767 0.76562 0.0
O874 O 0.82295 0.78084 0.81873 0.0
O875 O 0.8502 0.82483 0.8427 0.0
O876 O 0.88178 0.84461 0.78894 0.0
O877 O 0.8599 0.80254 0.75795 0.0
C878 C 0.76317 0.82236 0.81046 0.0
O879 O 0.8419 0.88193 0.84601 0.0
O880 O 0.85913 0.8977 0.80526 0.0
C881 C 0.8155 0.72004 0.74654 0.0
C882 C 0.86226 0.6868 0.75692 0.0
C883 C 0.83573 0.67648 0.73406 0.0
C884 C 0.81222 0.69324 0.7288 0.0
C885 C 0.84202 0.72982 0.76938 0.0
C886 C 0.86506 0.7133 0.77471 0.0
C887 C 0.79361 0.73995 0.74101 0.0
H888 H 0.80662 0.98467 0.86155 0.0
H889 H 0.84966 0.95636 0.86605 0.0
H890 H 0.79627 0.89466 0.79104 0.0
H891 H 0.75435 0.92262 0.78626 0.0
H892 H 0.83356 0.6559 0.72021 0.0
H893 H 0.79204 0.68566 0.71079 0.0
H894 H 0.84539 0.75078 0.78261 0.0
H895 H 0.8855 0.72145 0.79233 0.0
Tb896 Tb 0.555 0.56402 0.5196 0.0
Eu897 Eu 0.613 0.57959 0.57999 0.0
C898 C 0.62407 0.58292 0.50977 0.0
C899 C 0.58635 0.51695 0.54892 0.0
C900 C 0.48358 0.5743 0.47662 0.0
C901 C 0.47095 0.6226 0.48419 0.0
C902 C 0.49171 0.60493 0.47645 0.0
C903 C 0.45345 0.5617 0.48285 0.0
C904 C 0.43266 0.57951 0.49064 0.0
C905 C 0.44183 0.61005 0.49231 0.0
C906 C 0.5084 0.5566 0.4775 0.0
O907 O 0.5348 0.57863 0.55856 0.0
O908 O 0.5679 0.56573 0.59903 0.0
O909 O 0.59424 0.6209 0.57989 0.0
O910 O 0.56744 0.61153 0.52903 0.0
C911 C 0.54074 0.57172 0.58714 0.0
O912 O 0.63532 0.56332 0.62167 0.0
O913 O 0.65959 0.60193 0.60345 0.0
O914 O 0.63097 0.59658 0.53775 0.0
O915 O 0.59827 0.56314 0.50082 0.0
O916 O 0.55886 0.52315 0.53945 0.0
O917 O 0.61147 0.53737 0.55252 0.0
C918 C 0.57914 0.62906 0.55468 0.0
O919 O 0.53643 0.57028 0.47378 0.0
O920 O 0.5098 0.54038 0.50086 0.0
C921 C 0.68673 0.56378 0.61304 0.0
C922 C 0.72525 0.5247 0.59765 0.0
C923 C 0.72848 0.53739 0.62851 0.0
C924 C 0.70877 0.55643 0.63632 0.0
C925 C 0.6848 0.5522 0.58205 0.0
C926 C 0.70318 0.53224 0.57456 0.0
C927 C 0.66253 0.58008 0.62033 0.0
H928 H 0.47796 0.64612 0.48476 0.0
H929 H 0.5148 0.6155 0.47212 0.0
H930 H 0.44681 0.53824 0.48367 0.0
H931 H 0.4101 0.56959 0.49683 0.0
H932 H 0.74549 0.53178 0.64662 0.0
H933 H 0.71031 0.56491 0.66039 0.0
H934 H 0.66844 0.55807 0.56363 0.0
H935 H 0.70025 0.52271 0.55066 0.0
Tb936 Tb 0.06154 0.54966 1.00703 0.0
Eu937 Eu 0.10089 0.59242 0.06366 0.0
C938 C 0.0683 0.52614 0.07298 0.0
C939 C 0.02766 0.59904 0.04061 0.0
C940 C 1.02383 0.4837 0.95872 0.0
C941 C 1.023 0.43726 0.9809 0.0
C942 C 1.0242 0.46727 0.98479 0.0
C943 C 1.02181 0.46984 0.92896 0.0
C944 C 1.02045 0.43983 0.92492 0.0
C945 C 1.02151 0.42364 0.95098 0.0
C946 C 0.02913 0.51555 0.96272 0.0
O947 O 0.09239 0.58213 0.98667 0.0
O948 O 0.09261 0.61909 0.0227 0.0
O949 O 0.13762 0.5674 0.0474 0.0
O950 O 0.10427 0.52899 0.01817 0.0
C951 C 0.09438 0.60983 0.99414 0.0
O952 O 0.1455 0.62164 0.08029 0.0
O953 O 0.10968 0.61408 0.11083 0.0
O954 O 0.0883 0.54996 0.08501 0.0
O955 O 0.05302 0.52318 0.04472 0.0
O956 O 0.02932 0.58141 0.01581 0.0
O957 O 0.0515 0.60392 0.06398 0.0
C958 C 0.13312 0.54084 0.03303 0.0
O959 O 1.01722 0.52646 0.98561 0.0
O960 O 0.05807 0.52868 0.96215 0.0
C961 C 0.14028 0.66101 0.11324 0.0
C962 C 0.14669 0.72101 0.12644 0.0
C963 C 0.13548 0.70851 0.09595 0.0
C964 C 0.13213 0.67847 0.08936 0.0
C965 C 0.15151 0.67362 0.14368 0.0
C966 C 0.15475 0.70365 0.15026 0.0
C967 C 0.13663 0.62962 0.10649 0.0
H968 H 1.02418 0.42483 1.00116 0.0
H969 H 1.02629 0.47762 1.00815 0.0
H970 H 1.02231 0.48254 0.90917 0.0
H971 H 1.01956 0.4294 0.90173 0.0
H972 H 0.12904 0.72191 0.07753 0.0
H973 H 0.12311 0.66886 0.06574 0.0
H974 H 0.15745 0.66027 0.16227 0.0
H975 H 0.16325 0.71341 0.17388 0.0
C976 C 0.08159 0.17924 0.9932 0.0
C977 C 0.05412 0.18879 1.00066 0.0
C978 C 0.06498 0.17403 0.05328 0.0
C979 C 0.08668 0.15805 0.04306 0.0
N980 N 0.11749 0.14626 1.004 0.0
N981 N 1.01966 0.19613 0.03817 0.0
C982 C 0.09616 0.16161 0.01348 0.0
C983 C 0.04601 0.18689 0.03104 0.0
N984 N 0.09405 0.18734 0.9671 0.0
N985 N 0.06302 0.17691 0.08427 0.0
H986 H 1.00515 0.20543 0.02216 0.0
H987 H 1.01102 0.19262 0.0591 0.0
H988 H 0.07908 0.16947 0.10046 0.0
H989 H 0.04866 0.18949 0.09383 0.0
H990 H 0.11583 0.18348 0.96248 0.0
H991 H 0.08413 0.2003 0.95146 0.0
H992 H 0.12206 0.1443 0.98111 0.0
H993 H 0.12943 0.1343 0.01924 0.0
C994 C 0.25126 0.87912 0.22945 0.0
C995 C 0.25776 0.90987 0.23429 0.0
C996 C 0.29619 0.90672 0.28031 0.0
C997 C 0.2863 0.8756 0.27661 0.0
N998 N 0.24258 0.836 0.25683 0.0
N999 N 0.28285 0.95343 0.26737 0.0
C1000 C 0.25962 0.86318 0.25436 0.0
C1001 C 0.27923 0.92392 0.2607 0.0
N1002 N 0.23719 0.86496 0.20129 0.0
N1003 N 0.32119 0.92 0.30204 0.0
H1004 H 0.27178 0.96649 0.25255 0.0
H1005 H 0.29542 0.96449 0.28819 0.0
H1006 H 0.33096 0.90953 0.32028 0.0
H1007 H 0.33198 0.94187 0.30203 0.0
H1008 H 0.23427 0.8423 0.1969 0.0
H1009 H 0.2319 0.87598 0.18174 0.0
H1010 H 0.2225 0.82646 0.24108 0.0
H1011 H 0.24684 0.82473 0.27654 0.0
C1012 C 0.5163 0.84346 0.3945 0.0
C1013 C 0.53756 0.83052 0.41429 0.0
C1014 C 0.54766 0.8731 0.45231 0.0
C1015 C 0.5299 0.88751 0.43063 0.0
N1016 N 0.50162 0.88848 0.37892 0.0
N1017 N 0.57824 0.83522 0.45926 0.0
C1018 C 0.51542 0.87332 0.40104 0.0
C1019 C 0.5546 0.84591 0.44249 0.0
N1020 N 0.49593 0.82699 0.37037 0.0
N1021 N 0.55709 0.88496 0.4825 0.0
H1022 H 0.58463 0.81557 0.45259 0.0
H1023 H 0.59355 0.84724 0.47812 0.0
H1024 H 0.5517 0.9046 0.49089 0.0
H1025 H 0.56744 0.87388 0.49996 0.0
H1026 H 0.47812 0.83493 0.357 0.0
H1027 H 0.49454 0.80457 0.36565 0.0
H1028 H 0.49379 0.87996 0.35584 0.0
H1029 H 0.50049 0.91047 0.38284 0.0
C1030 C 0.56849 0.3617 0.73057 0.0
C1031 C 0.58689 0.39015 0.73874 0.0
C1032 C 0.54696 0.40394 0.76753 0.0
C1033 C 0.53141 0.3742 0.76368 0.0
N1034 N 0.52847 0.32382 0.74456 0.0
N1035 N 0.59494 0.43872 0.76446 0.0
C1036 C 0.54221 0.35279 0.74573 0.0
C1037 C 0.57639 0.41155 0.75687 0.0
N1038 N 0.57613 0.34331 0.70832 0.0
N1039 N 0.53336 0.42472 0.78101 0.0
H1040 H 0.616 0.44524 0.75565 0.0
H1041 H 0.59032 0.45428 0.78052 0.0
H1042 H 0.51171 0.41967 0.7891 0.0
H1043 H 0.54214 0.44712 0.78198 0.0
H1044 H 0.56183 0.3233 0.69942 0.0
H1045 H 0.59526 0.34927 0.6965 0.0
H1046 H 0.53788 0.30699 0.73492 0.0
H1047 H 0.50903 0.31624 0.75545 0.0
C1048 C 0.10101 0.94022 0.58792 0.0
C1049 C 0.08042 0.93138 0.61039 0.0
C1050 C 0.0642 0.98108 0.60575 0.0
C1051 C 0.08527 0.99012 0.58378 0.0
N1052 N 0.12743 0.97817 0.55836 0.0
N1053 N 0.03834 0.94342 0.63596 0.0
C1054 C 0.10424 0.96931 0.57587 0.0
C1055 C 0.06139 0.95221 0.61826 0.0
N1056 N 0.11779 0.92054 0.57761 0.0
N1057 N 0.04625 1.00027 0.61484 0.0
H1058 H 0.03459 0.92288 0.64446 0.0
H1059 H 1.02102 0.95512 0.64023 0.0
H1060 H 0.04404 1.01912 0.60379 0.0
H1061 H 0.03438 0.99831 0.63402 0.0
H1062 H 0.12936 0.92277 0.55823 0.0
H1063 H 0.11881 0.9009 0.58748 0.0
H1064 H 0.14475 0.9664 0.55423 0.0
H1065 H 0.13135 0.99884 0.55014 0.0
C1066 C 0.46468 0.83261 0.8764 0.0
C1067 C 0.4836 0.81455 0.86337 0.0
C1068 C 0.43751 0.79501 0.82163 0.0
C1069 C 0.41839 0.81265 0.83519 0.0
N1070 N 0.41231 0.84229 0.8805 0.0
N1071 N 0.4859 0.77496 0.82626 0.0
C1072 C 0.43171 0.82976 0.86399 0.0
C1073 C 0.4692 0.79457 0.83688 0.0
N1074 N 0.47843 0.85317 0.90054 0.0
N1075 N 0.42606 0.77972 0.79329 0.0
H1076 H 0.50888 0.77446 0.83651 0.0
H1077 H 0.47631 0.75781 0.80918 0.0
H1078 H 0.40323 0.77899 0.78195 0.0
H1079 H 0.43962 0.76925 0.78007 0.0
H1080 H 0.46756 0.86971 0.90845 0.0
H1081 H 0.5016 0.8548 0.91155 0.0
H1082 H 0.41941 0.85282 0.90288 0.0
H1083 H 0.38804 0.83928 0.87325 0.0
C1084 C 0.59576 0.20421 0.12758 0.0
C1085 C 0.57152 0.21986 0.11619 0.0
C1086 C 0.54749 0.17372 0.08048 0.0
C1087 C 0.57296 0.15881 0.09028 0.0
N1088 N 0.62514 0.16521 0.11965 0.0
N1089 N 0.52662 0.2191 0.07725 0.0
C1090 C 0.5979 0.17558 0.11307 0.0
C1091 C 0.54835 0.20444 0.09112 0.0
N1092 N 0.61753 0.21687 0.15265 0.0
N1093 N 0.52097 0.15789 0.06237 0.0
H1094 H 0.52583 0.24056 0.08486 0.0
H1095 H 0.51135 0.21105 0.05669 0.0
H1096 H 0.51821 0.13557 0.05592 0.0
H1097 H 0.50031 0.16585 0.05673 0.0
H1098 H 0.6325 0.20546 0.16551 0.0
H1099 H 0.61965 0.23852 0.16156 0.0
H1100 H 0.64566 0.17733 0.13292 0.0
H1101 H 0.62855 0.14579 0.10885 0.0
C1102 C 0.19848 0.29803 0.36449 0.0
C1103 C 0.1831 0.3226 0.36669 0.0
C1104 C 0.2207 0.34681 0.33211 0.0
C1105 C 0.23755 0.32317 0.33198 0.0
N1106 N 0.24451 0.2782 0.35382 0.0
N1107 N 0.18413 0.37256 0.35531 0.0
C1108 C 0.22677 0.29933 0.34969 0.0
C1109 C 0.19547 0.34744 0.351 0.0
N1110 N 0.18525 0.27256 0.37545 0.0
N1111 N 0.22813 0.36856 0.31319 0.0
H1112 H 0.16635 0.37416 0.36875 0.0
H1113 H 0.19413 0.39251 0.34799 0.0
H1114 H 0.24599 0.3689 0.29943 0.0
H1115 H 0.21503 0.38483 0.30902 0.0
H1116 H 0.19259 0.25281 0.37155 0.0
H1117 H 0.1649 0.27047 0.38591 0.0
H1118 H 0.24077 0.26235 0.36948 0.0
H1119 H 0.26487 0.27809 0.34377 0.0
C1120 C 0.97882 0.09452 0.12313 0.0
C1121 C 0.96018 0.066 0.11679 0.0
C1122 C 1.00511 0.04652 0.10359 0.0
C1123 C 1.024 0.075 0.10978 0.0
N1124 N 0.02833 0.12696 0.12074 0.0
N1125 N 0.95227 1.01705 0.09286 0.0
C1126 C 1.01058 0.09937 0.11777 0.0
C1127 C 0.97221 0.04291 0.10357 0.0
N1128 N 0.96675 0.11622 0.13696 0.0
N1129 N 1.01889 0.02269 0.1003 0.0
H1130 H 0.92803 1.01416 0.09338 0.0
H1131 H 0.95922 0.99987 0.08088 0.0
H1132 H 0.0432 0.02436 0.10159 0.0
H1133 H 1.00653 1.00122 0.0992 0.0
H1134 H 0.98009 0.1366 0.14597 0.0
H1135 H 0.94324 0.11311 0.14064 0.0
H1136 H 1.01901 0.14585 0.12303 0.0
H1137 H 0.0523 0.13091 0.11917 0.0
C1138 C 0.30004 0.79007 0.43031 0.0
C1139 C 0.32064 0.77241 0.44414 0.0
C1140 C 0.34141 0.76768 0.39496 0.0
C1141 C 0.32407 0.78823 0.3823 0.0
N1142 N 0.28986 0.82233 0.3898 0.0
N1143 N 0.36686 0.7512 0.44164 0.0
C1144 C 0.3043 0.80052 0.40059 0.0
C1145 C 0.34324 0.76346 0.42709 0.0
N1146 N 0.27536 0.79553 0.44449 0.0
N1147 N 0.35439 0.75059 0.37592 0.0
H1148 H 0.3702 0.74927 0.46563 0.0
H1149 H 0.38509 0.74597 0.43057 0.0
H1150 H 0.35024 0.75071 0.35187 0.0
H1151 H 0.36507 0.73351 0.3835 0.0
H1152 H 0.25773 0.80556 0.43383 0.0
H1153 H 0.27087 0.78779 0.46574 0.0
H1154 H 0.2779 0.83427 0.40347 0.0
H1155 H 0.29182 0.82987 0.36789 0.0
C1156 C 0.60793 0.96798 0.62915 0.0
C1157 C 0.5825 0.95669 0.64438 0.0
C1158 C 0.5478 0.98021 0.60929 0.0
C1159 C 0.57524 0.99834 0.6019 0.0
N1160 N 0.6323 1.01008 0.606 0.0
N1161 N 0.52654 0.94409 0.64302 0.0
C1162 C 0.60562 0.99221 0.61182 0.0
C1163 C 0.55161 0.95957 0.63168 0.0
N1164 N 0.63437 0.95608 0.63231 0.0
N1165 N 0.51856 0.98356 0.59591 0.0
H1166 H 0.52959 0.92822 0.65852 0.0
H1167 H 0.50339 0.94704 0.63768 0.0
H1168 H 0.5152 0.99953 0.58068 0.0
H1169 H 0.49763 0.9699 0.59879 0.0
H1170 H 0.65339 0.96274 0.62057 0.0
H1171 H 0.63533 0.93734 0.64409 0.0
H1172 H 0.65499 1.00746 0.61481 0.0
H1173 H 0.63192 0.02917 0.59503 0.0
C1174 C 0.33294 0.38413 0.93614 0.0
C1175 C 0.306 0.39715 0.93858 0.0
C1176 C 0.28912 0.38273 0.88111 0.0
C1177 C 0.31471 0.36776 0.87912 0.0
N1178 N 0.35704 0.34928 0.90831 0.0
N1179 N 0.25477 0.40217 0.91338 0.0
C1180 C 0.33544 0.36712 0.9077 0.0
C1181 C 0.28311 0.39439 0.91099 0.0
N1182 N 0.35728 0.38916 0.96044 0.0
N1183 N 0.2713 0.3875 0.85419 0.0
H1184 H 0.24911 0.4099 0.93453 0.0
H1185 H 0.23576 0.39793 0.89528 0.0
H1186 H 0.27535 0.38057 0.83209 0.0
H1187 H 0.25469 0.40098 0.85361 0.0
H1188 H 0.37911 0.38356 0.9589 0.0
H1189 H 0.35674 0.40125 0.98128 0.0
H1190 H 0.37028 0.34517 0.92884 0.0
H1191 H 0.35942 0.33613 0.88884 0.0
C1192 C 0.96433 0.02764 0.29973 0.0
C1193 C 0.97985 0.04235 0.27689 0.0
C1194 C 1.02513 0.06399 0.31625 0.0
C1195 C 1.0117 0.04567 0.33766 0.0
N1196 N 0.96997 1.00882 0.35047 0.0
N1197 N 1.0237 0.07571 0.26253 0.0
C1198 C 0.98148 0.02743 0.32978 0.0
C1199 C 1.00982 0.06112 0.28497 0.0
N1200 N 0.93339 1.01384 0.29275 0.0
N1201 N 0.05235 0.08412 0.32605 0.0
H1202 H 1.01197 0.076 0.23996 0.0
H1203 H 0.04707 0.08678 0.2658 0.0
H1204 H 0.0643 0.08642 0.34887 0.0
H1205 H 0.06201 0.09997 0.31244 0.0
H1206 H 0.92003 1.00534 0.30938 0.0
H1207 H 0.92001 1.01288 0.27079 0.0
H1208 H 0.95006 0.99225 0.34463 0.0
H1209 H 0.98151 1.00856 0.37312 0.0
C1210 C 0.29484 0.76709 0.6532 0.0
C1211 C 0.32191 0.76218 0.64049 0.0
C1212 C 0.35556 0.78286 0.69015 0.0
C1213 C 0.32842 0.78814 0.70272 0.0
N1214 N 0.27378 0.79279 0.693 0.0
N1215 N 0.37842 0.76969 0.64436 0.0
C1216 C 0.29849 0.78234 0.68331 0.0
C1217 C 0.35245 0.77161 0.65818 0.0
N1218 N 0.26542 0.75667 0.63667 0.0
N1219 N 0.38403 0.78725 0.70916 0.0
H1220 H 0.37677 0.76102 0.62132 0.0
H1221 H 0.40145 0.77866 0.65471 0.0
H1222 H 0.38725 0.7957 0.73241 0.0
H1223 H 0.40402 0.7808 0.70269 0.0
H1224 H 0.24469 0.75583 0.64628 0.0
H1225 H 0.26169 0.74722 0.61371 0.0
H1226 H 0.25226 0.79193 0.67883 0.0
H1227 H 0.27585 0.80519 0.71418 0.0
C1228 C 0.52372 1.01485 0.8008 0.0
C1229 C 0.5354 0.03344 0.77885 0.0
C1230 C 0.53105 0.07666 0.8112 0.0
C1231 C 0.52381 0.05833 0.83495 0.0
N1232 N 0.51475 1.01046 0.85419 0.0
N1233 N 0.55275 0.08175 0.76302 0.0
C1234 C 0.52009 0.02746 0.83017 0.0
C1235 C 0.53936 0.06431 0.78372 0.0
N1236 N 0.51611 0.98522 0.7934 0.0
N1237 N 0.53014 0.10578 0.81516 0.0
H1238 H 0.55891 0.07338 0.74241 0.0
H1239 H 0.55969 0.10439 0.76712 0.0
H1240 H 0.52437 0.1154 0.83538 0.0
H1241 H 0.53243 0.11985 0.79756 0.0
H1242 H 0.50467 0.97063 0.80727 0.0
H1243 H 0.51882 0.97538 0.77195 0.0
H1244 H 0.51583 0.98833 0.85331 0.0
H1245 H 0.51103 1.0188 0.87592 0.0
C1246 C 0.31851 0.4126 0.1758 0.0
C1247 C 0.30565 0.39717 0.14569 0.0
C1248 C 0.29044 0.35356 0.17608 0.0
C1249 C 0.30836 0.3676 0.20516 0.0
N1250 N 0.3477 0.41025 0.2271 0.0
N1251 N 0.28673 0.34836 0.11958 0.0
C1252 C 0.32465 0.39705 0.20336 0.0
C1253 C 0.29372 0.36636 0.14661 0.0
N1254 N 0.32385 0.44243 0.17907 0.0
N1255 N 0.26889 0.32836 0.17618 0.0
H1256 H 0.2911 0.35538 0.09806 0.0
H1257 H 0.28066 0.32565 0.11928 0.0
H1258 H 0.26321 0.31967 0.19665 0.0
H1259 H 0.25353 0.31854 0.15623 0.0
H1260 H 0.33058 0.45443 0.20081 0.0
H1261 H 0.31737 0.45491 0.16113 0.0
H1262 H 0.36184 0.43062 0.2258 0.0
H1263 H 0.35578 0.39945 0.24589 0.0
C1264 C 0.26646 0.96646 0.11005 0.0
C1265 C 0.28005 0.96954 0.08233 0.0
C1266 C 0.27288 1.02013 0.08311 0.0
C1267 C 0.25451 1.01567 0.10755 0.0
N1268 N 0.22826 0.98134 0.13975 0.0
N1269 N 0.28751 0.99681 0.03777 0.0
C1270 C 0.24979 0.98797 0.11997 0.0
C1271 C 0.28068 0.99568 0.06744 0.0
N1272 N 0.27057 0.94395 0.12779 0.0
N1273 N 0.2834 0.04772 0.07522 0.0
H1274 H 0.28972 0.97809 0.02453 0.0
H1275 H 0.2864 1.01499 0.02517 0.0
H1276 H 0.27962 0.06641 0.08745 0.0
H1277 H 0.29883 0.05201 0.05898 0.0
H1278 H 0.26497 0.94351 0.15028 0.0
H1279 H 0.2825 0.92757 0.12158 0.0
H1280 H 0.22217 0.96038 0.14674 0.0
H1281 H 0.21373 0.99541 0.14604 0.0
C1282 C 0.73795 0.63101 0.05673 0.0
C1283 C 0.74528 0.64383 0.02888 0.0
C1284 C 0.6881 0.62785 1.00653 0.0
C1285 C 0.68133 0.61277 0.0333 0.0
N1286 N 0.70233 0.59662 0.08197 0.0
N1287 N 0.72713 0.64995 0.9753 0.0
C1288 C 0.70704 0.61355 0.05784 0.0
C1289 C 0.72019 0.64097 1.00333 0.0
N1290 N 0.76015 0.63666 0.08294 0.0
N1291 N 0.66362 0.63111 0.98463 0.0
H1292 H 0.74991 0.65945 0.972 0.0
H1293 H 0.71104 0.64557 0.95473 0.0
H1294 H 0.64013 0.62235 0.98597 0.0
H1295 H 0.66625 0.64478 0.96672 0.0
H1296 H 0.75543 0.63117 0.10492 0.0
H1297 H 0.78262 0.64926 0.08337 0.0
H1298 H 0.72051 0.59347 0.09886 0.0
H1299 H 0.68061 0.58343 0.0835 0.0
C1300 C 0.8379 0.54673 0.36866 0.0
C1301 C 0.80457 0.539 0.36159 0.0
C1302 C 0.80802 0.49094 0.33858 0.0
C1303 C 0.84118 0.50037 0.34128 0.0
N1304 N 0.88829 0.53687 0.35768 0.0
N1305 N 0.75767 0.5058 0.33486 0.0
C1306 C 0.85642 0.52808 0.35634 0.0
C1307 C 0.78942 0.51146 0.34573 0.0
N1308 N 0.8516 0.57186 0.38712 0.0
N1309 N 0.79422 0.46255 0.32843 0.0
H1310 H 0.74275 0.52033 0.33848 0.0
H1311 H 0.74641 0.48766 0.3196 0.0
H1312 H 0.80685 0.44689 0.32175 0.0
H1313 H 0.7706 0.45384 0.32931 0.0
H1314 H 0.8757 0.57769 0.39523 0.0
H1315 H 0.83836 0.58578 0.3965 0.0
H1316 H 0.90041 0.55807 0.36511 0.0
H1317 H 0.90251 0.52312 0.34982 0.0
C1318 C 0.96315 0.49934 0.5863 0.0
C1319 C 0.95132 0.48039 0.55871 0.0
C1320 C 0.99518 0.5027 0.53379 0.0
C1321 C 1.00751 0.52195 0.56127 0.0
N1322 N 1.00726 0.53437 0.61589 0.0
N1323 N 0.96077 0.45737 0.51095 0.0
C1324 C 0.99294 0.51869 0.58843 0.0
C1325 C 0.96922 0.47973 0.53421 0.0
N1326 N 0.94514 0.49989 0.60962 0.0
N1327 N 1.00695 0.50729 0.50664 0.0
H1328 H 0.94155 0.44029 0.51092 0.0
H1329 H 0.9746 0.45412 0.49377 0.0
H1330 H 1.02503 0.52455 0.50497 0.0
H1331 H 0.99676 0.49588 0.4852 0.0
H1332 H 0.95058 0.51552 0.62873 0.0
H1333 H 0.92382 0.48523 0.60903 0.0
H1334 H 0.99923 0.5311 0.63714 0.0
H1335 H 0.02863 0.54922 0.6178 0.0
C1336 C 0.44426 0.16751 0.26338 0.0
C1337 C 0.44822 0.15853 0.29401 0.0
C1338 C 0.39175 0.15392 0.29541 0.0
C1339 C 0.38914 0.16812 0.2676 0.0
N1340 N 0.41229 0.18932 0.22492 0.0
N1341 N 0.42655 0.14389 0.34021 0.0
C1342 C 0.41507 0.17462 0.25112 0.0
C1343 C 0.42207 0.15126 0.31014 0.0
N1344 N 0.46833 0.16897 0.24604 0.0
N1345 N 0.36519 0.14395 0.30806 0.0
H1346 H 0.44848 0.14191 0.35195 0.0
H1347 H 0.40901 0.14168 0.3544 0.0
H1348 H 0.34278 0.14605 0.29757 0.0
H1349 H 0.36492 0.1314 0.32706 0.0
H1350 H 0.46589 0.17288 0.22256 0.0
H1351 H 0.48997 0.16355 0.25433 0.0
H1352 H 0.43143 0.19826 0.2143 0.0
H1353 H 0.39083 0.19385 0.21464 0.0
C1354 C 0.46367 0.13588 0.57464 0.0
C1355 C 0.44267 0.13921 0.54712 0.0
C1356 C 0.47803 0.1151 0.51723 0.0
C1357 C 0.49609 0.10798 0.54502 0.0
N1358 N 0.4993 0.10739 0.60081 0.0
N1359 N 0.42873 0.12645 0.49168 0.0
C1360 C 0.48694 0.11731 0.57382 0.0
C1361 C 0.44963 0.12724 0.51829 0.0
N1362 N 0.46265 0.15171 0.60187 0.0
N1363 N 0.48904 0.11209 0.4896 0.0
H1364 H 0.40809 0.13478 0.49126 0.0
H1365 H 0.43048 0.11519 0.4707 0.0
H1366 H 0.5107 0.1062 0.48859 0.0
H1367 H 0.47904 0.11912 0.46893 0.0
H1368 H 0.47921 0.15263 0.62184 0.0
H1369 H 0.44787 0.16679 0.60337 0.0
H1370 H 0.49134 0.11093 0.62202 0.0
H1371 H 0.51473 0.09274 0.60138 0.0
C1372 C 0.78238 0.69196 0.30704 0.0
C1373 C 0.76636 0.69152 0.33335 0.0
C1374 C 0.78916 0.74304 0.34863 0.0
C1375 C 0.80146 0.74442 0.32012 0.0
N1376 N 0.81084 0.72122 0.27203 0.0
N1377 N 0.75265 0.71589 0.37867 0.0
C1378 C 0.79864 0.71907 0.29939 0.0
C1379 C 0.76937 0.71682 0.35416 0.0
N1380 N 0.78207 0.66645 0.28953 0.0
N1381 N 0.79655 0.76671 0.37034 0.0
H1382 H 0.7389 0.69668 0.38417 0.0
H1383 H 0.75074 0.73438 0.39241 0.0
H1384 H 0.81126 0.7862 0.36708 0.0
H1385 H 0.79046 0.76637 0.39269 0.0
H1386 H 0.79607 0.66483 0.27216 0.0
H1387 H 0.76919 0.64624 0.29355 0.0
H1388 H 0.8058 0.70468 0.25382 0.0
H1389 H 0.82529 0.74023 0.26696 0.0
C1390 C 0.0325 0.51197 0.85684 0.0
C1391 C 1.02055 0.53795 0.86096 0.0
C1392 C 0.96754 0.50934 0.86073 0.0
C1393 C 0.97863 0.48397 0.85136 0.0
N1394 N 1.02104 0.46021 0.83988 0.0
N1395 N 0.98084 0.56034 0.88084 0.0
C1396 C 1.01093 0.48501 0.84906 0.0
C1397 C 0.98923 0.53627 0.86735 0.0
N1398 N 0.0642 0.51272 0.86337 0.0
N1399 N 0.93601 0.50792 0.8615 0.0
H1400 H 0.99692 0.57997 0.88703 0.0
H1401 H 0.95938 0.56014 0.88885 0.0
H1402 H 0.9193 0.4885 0.85658 0.0
H1403 H 0.92588 0.52622 0.86465 0.0
H1404 H 0.07423 0.49413 0.86285 0.0
H1405 H 0.07997 0.53129 0.8742 0.0
H1406 H 0.04358 0.46034 0.83441 0.0
H1407 H 1.00629 0.43962 0.83584 0.0
C1408 C 0.10144 0.95229 0.10754 0.0
C1409 C 0.13398 0.95263 0.10687 0.0
C1410 C 0.13497 0.98617 0.06636 0.0
C1411 C 0.10398 0.98892 0.07038 0.0
N1412 N 0.05395 0.96766 0.08378 0.0
N1413 N 0.17854 0.96111 0.07904 0.0
C1414 C 0.08582 0.96931 0.08718 0.0
C1415 C 0.14964 0.96639 0.0837 0.0
N1416 N 0.08604 0.93655 0.1283 0.0
N1417 N 0.15067 1.00384 0.04737 0.0
H1418 H 0.18943 0.94623 0.09122 0.0
H1419 H 0.19074 0.96955 0.06161 0.0
H1420 H 0.13958 1.01773 0.03393 0.0
H1421 H 0.17425 1.00502 0.04499 0.0
H1422 H 0.06337 0.93801 0.13237 0.0
H1423 H 0.09639 0.92237 0.14218 0.0
H1424 H 0.03866 0.95292 0.09433 0.0
H1425 H 0.04269 0.97952 0.06766 0.0
C1426 C 0.93209 0.22259 0.81318 0.0
C1427 C 0.93764 0.22547 0.84619 0.0
C1428 C 0.88993 0.24566 0.846 0.0
C1429 C 0.89121 0.25158 0.81438 0.0
N1430 N 0.91478 0.24562 0.7675 0.0
N1431 N 0.91785 0.23477 0.8945 0.0
C1432 C 0.91195 0.2393 0.79742 0.0
C1433 C 0.91499 0.23491 0.86282 0.0
N1434 N 0.94792 0.20539 0.79732 0.0
N1435 N 0.8643 0.24938 0.85954 0.0
H1436 H 0.93221 0.22274 0.90716 0.0
H1437 H 0.90552 0.24635 0.90815 0.0
H1438 H 0.84444 0.25467 0.84688 0.0
H1439 H 0.86101 0.24366 0.88184 0.0
H1440 H 0.94346 0.20089 0.77313 0.0
H1441 H 0.96311 0.19339 0.80908 0.0
H1442 H 0.93211 0.23948 0.75565 0.0
H1443 H 0.90194 0.25916 0.75532 0.0
C1444 C 0.66537 0.29944 0.63304 0.0
C1445 C 0.65518 0.30641 0.66178 0.0
C1446 C 0.63548 0.2547 0.66653 0.0
C1447 C 0.64393 0.24792 0.63689 0.0
N1448 N 0.66051 0.26367 0.58892 0.0
N1449 N 0.62446 0.29174 0.70244 0.0
C1450 C 0.65691 0.27029 0.61918 0.0
C1451 C 0.63847 0.28435 0.67756 0.0
N1452 N 0.68437 0.32028 0.61973 0.0
N1453 N 0.62574 0.23293 0.68476 0.0
H1454 H 0.62621 0.31325 0.71156 0.0
H1455 H 0.60875 0.27674 0.71233 0.0
H1456 H 0.62177 0.21073 0.67736 0.0
H1457 H 0.62375 0.23686 0.70822 0.0
H1458 H 0.69557 0.31552 0.60088 0.0
H1459 H 0.69128 0.342 0.62907 0.0
H1460 H 0.66691 0.27948 0.57384 0.0
H1461 H 0.65419 0.24246 0.57792 0.0
C1462 C 0.62791 0.72182 0.36014 0.0
C1463 C 0.61886 0.74184 0.3814 0.0
C1464 C 0.64905 0.78303 0.35957 0.0
C1465 C 0.65446 0.76318 0.33592 0.0
N1466 N 0.64794 0.71421 0.3115 0.0
N1467 N 0.6163 0.79212 0.39775 0.0
C1468 C 0.64364 0.73266 0.33558 0.0
C1469 C 0.62842 0.77263 0.38046 0.0
N1470 N 0.62192 0.69253 0.36393 0.0
N1471 N 0.66393 0.8118 0.36234 0.0
H1472 H 0.60104 0.78621 0.4136 0.0
H1473 H 0.61919 0.81431 0.39435 0.0
H1474 H 0.67843 0.82073 0.34674 0.0
H1475 H 0.66398 0.82628 0.38162 0.0
H1476 H 0.63043 0.67702 0.35098 0.0
H1477 H 0.61077 0.68398 0.38208 0.0
H1478 H 0.63768 0.69206 0.30814 0.0
H1479 H 0.66005 0.7215 0.29345 0.0
C1480 C 0.11182 0.21458 0.49233 0.0
C1481 C 0.08735 0.22147 0.46976 0.0
C1482 C 0.05972 0.16831 0.47128 0.0
C1483 C 0.08255 0.16255 0.49611 0.0
N1484 N 0.12971 0.18363 0.53192 0.0
N1485 N 0.0345 0.20355 0.44267 0.0
C1486 C 0.10812 0.18687 0.5071 0.0
C1487 C 0.06058 0.19772 0.46048 0.0
N1488 N 0.14009 0.23375 0.49838 0.0
N1489 N 0.03661 0.14548 0.45769 0.0
H1490 H 0.03313 0.22424 0.43557 0.0
H1491 H 1.01303 0.18884 0.43776 0.0
H1492 H 0.03386 0.12474 0.46582 0.0
H1493 H 1.02171 0.14648 0.43704 0.0
H1494 H 0.16021 0.22912 0.51138 0.0
H1495 H 0.14463 0.25306 0.48757 0.0
H1496 H 0.1461 0.20104 0.54424 0.0
H1497 H 0.13005 0.16376 0.54148 0.0
C1498 C 0.67734 0.30589 0.22264 0.0
C1499 C 0.66862 0.33309 0.21574 0.0
C1500 C 0.72137 0.35822 0.24439 0.0
C1501 C 0.73136 0.33098 0.24848 0.0
N1502 N 0.71934 0.2787 0.23525 0.0
N1503 N 0.68479 0.38531 0.217 0.0
C1504 C 0.70931 0.30477 0.23611 0.0
C1505 C 0.69146 0.35924 0.2257 0.0
N1506 N 0.65493 0.28079 0.21632 0.0
N1507 N 0.73982 0.38327 0.25971 0.0
H1508 H 0.66305 0.38708 0.20462 0.0
H1509 H 0.70148 0.40473 0.22005 0.0
H1510 H 0.76092 0.38341 0.27438 0.0
H1511 H 0.73277 0.40341 0.26052 0.0
H1512 H 0.6584 0.26071 0.22387 0.0
H1513 H 0.6319 0.28047 0.20568 0.0
H1514 H 0.70584 0.25943 0.22339 0.0
H1515 H 0.74239 0.27683 0.24354 0.0
C1516 C 0.62236 0.95063 0.97151 0.0
C1517 C 0.59724 0.9255 0.97001 0.0
C1518 C 0.56915 0.95942 0.99879 0.0
C1519 C 0.59279 0.98509 0.99731 0.0
N1520 N 0.64116 1.00391 0.97875 0.0
N1521 N 0.54411 0.90884 0.97941 0.0
C1522 C 0.61917 0.9801 0.98278 0.0
C1523 C 0.57006 0.93084 0.9831 0.0
N1524 N 0.65029 0.94619 0.96311 0.0
N1525 N 0.54607 0.96197 0.01644 0.0
H1526 H 0.54393 0.88806 0.96898 0.0
H1527 H 0.52218 0.91179 0.9845 0.0
H1528 H 0.5453 0.98165 0.02872 0.0
H1529 H 0.52974 0.94425 0.02139 0.0
H1530 H 0.67081 0.96217 0.96643 0.0
H1531 H 0.65385 0.92553 0.95563 0.0
H1532 H 0.65894 1.00308 0.96518 0.0
H1533 H 0.6401 0.02511 0.98707 0.0
C1534 C 0.96274 0.84973 0.729 0.0
C1535 C 0.97143 0.82259 0.71965 0.0
C1536 C 0.92703 0.79811 0.74645 0.0
C1537 C 0.91586 0.82454 0.75258 0.0
N1538 N 0.92156 0.8754 0.74251 0.0
N1539 N 0.9528 0.77022 0.71244 0.0
C1540 C 0.93343 0.85031 0.74188 0.0
C1541 C 0.9509 0.79671 0.72645 0.0
N1542 N 0.98291 0.87532 0.7268 0.0
N1543 N 0.91602 0.77413 0.76105 0.0
H1544 H 0.96759 0.768 0.69587 0.0
H1545 H 0.93665 0.75112 0.71408 0.0
H1546 H 0.90091 0.77481 0.7776 0.0
H1547 H 0.92515 0.75501 0.75986 0.0
H1548 H 0.97998 0.89553 0.73627 0.0
H1549 H 1.00408 0.87604 0.71802 0.0
H1550 H 0.93105 0.89388 0.73214 0.0
H1551 H 0.9004 0.87678 0.75056 0.0
C1552 C 0.16952 0.06738 0.95694 0.0
C1553 C 0.19533 0.0912 0.96527 0.0
C1554 C 0.17981 0.1007 0.01568 0.0
C1555 C 0.15284 0.07772 1.00698 0.0
N1556 N 0.12716 0.03392 0.97375 0.0
N1557 N 0.23116 0.12373 1.00435 0.0
C1558 C 0.14946 0.05918 0.9791 0.0
C1559 C 0.20272 0.10522 0.99557 0.0
N1560 N 0.16274 0.05422 0.9271 0.0
N1561 N 0.1822 0.11994 0.04137 0.0
H1562 H 0.24786 0.12734 0.9892 0.0
H1563 H 0.23932 0.13293 0.02714 0.0
H1564 H 0.16529 0.11889 0.05618 0.0
H1565 H 0.19956 0.13884 0.04652 0.0
H1566 H 0.14164 0.03988 0.91835 0.0
H1567 H 0.17765 0.05868 0.91044 0.0
H1568 H 0.12604 1.01812 0.95538 0.0
H1569 H 0.11144 0.02731 0.98914 0.0
C1570 C 0.8845 0.36793 0.66408 0.0
C1571 C 0.85751 0.36319 0.64048 0.0
C1572 C 0.82706 0.33211 0.67407 0.0
C1573 C 0.85403 0.33723 0.69804 0.0
N1574 N 0.90996 0.35445 0.713 0.0
N1575 N 0.80228 0.34306 0.62359 0.0
C1576 C 0.88312 0.35384 0.69233 0.0
C1577 C 0.82878 0.3453 0.64535 0.0
N1578 N 0.91153 0.38622 0.65954 0.0
N1579 N 0.79933 0.31527 0.67904 0.0
H1580 H 0.80152 0.35436 0.60366 0.0
H1581 H 0.78013 0.3311 0.6253 0.0
H1582 H 0.79434 0.31027 0.70099 0.0
H1583 H 0.78096 0.30575 0.66146 0.0
H1584 H 0.93045 0.39419 0.67715 0.0
H1585 H 0.91465 0.39459 0.63823 0.0
H1586 H 0.93255 0.36365 0.70911 0.0
H1587 H 0.91021 0.34324 0.73304 0.0
C1588 C 0.60866 0.16156 0.44527 0.0
C1589 C 0.58034 0.15743 0.42366 0.0
C1590 C 0.55872 0.11353 0.44724 0.0
C1591 C 0.58602 0.11884 0.47028 0.0
N1592 N 0.63592 0.14889 0.49353 0.0
N1593 N 0.52569 0.13282 0.40802 0.0
C1594 C 0.61064 0.14327 0.47008 0.0
C1595 C 0.55456 0.13447 0.42577 0.0
N1596 N 0.6339 0.18263 0.44162 0.0
N1597 N 0.53668 0.0883 0.44547 0.0
H1598 H 0.52109 0.14634 0.39055 0.0
H1599 H 0.50525 0.11902 0.41208 0.0
H1600 H 0.53594 0.07416 0.46298 0.0
H1601 H 0.5194 0.081 0.4261 0.0
H1602 H 0.65645 0.18438 0.45405 0.0
H1603 H 0.63273 0.19769 0.42492 0.0
H1604 H 0.65259 0.16831 0.49697 0.0
H1605 H 0.63956 0.13466 0.51067 0.0
C1606 C 0.81563 0.74172 0.14971 0.0
C1607 C 0.84365 0.74782 0.13563 0.0
C1608 C 0.86498 0.78759 0.17894 0.0
C1609 C 0.83829 0.77942 0.19462 0.0
N1610 N 0.78989 0.74531 0.19589 0.0
N1611 N 0.8966 0.77522 0.13949 0.0
C1612 C 0.81403 0.75568 0.18004 0.0
C1613 C 0.86865 0.77056 0.15096 0.0
N1614 N 0.78982 0.72301 0.13351 0.0
N1615 N 0.88651 0.81242 0.19019 0.0
H1616 H 0.89983 0.76391 0.11907 0.0
H1617 H 0.91712 0.78872 0.15121 0.0
H1618 H 0.88463 0.82528 0.21012 0.0
H1619 H 0.90466 0.82165 0.17847 0.0
H1620 H 0.76758 0.71982 0.14039 0.0
H1621 H 0.78982 0.71275 0.11146 0.0
H1622 H 0.77356 0.726 0.18873 0.0
H1623 H 0.78775 0.75457 0.21777 0.0
C1624 C 0.16084 0.12844 0.7903 0.0
C1625 C 0.15966 0.10153 0.80397 0.0
C1626 C 0.10955 0.08041 0.77131 0.0
C1627 C 0.11265 0.10597 0.75519 0.0
N1628 N 0.13572 0.15694 0.7533 0.0
N1629 N 0.13045 0.05466 0.81376 0.0
C1630 C 0.13634 0.13103 0.76629 0.0
C1631 C 0.13295 0.07848 0.79675 0.0
N1632 N 0.18585 0.15109 0.79985 0.0
N1633 N 0.08524 0.05747 0.76068 0.0
H1634 H 0.14792 0.05198 0.83172 0.0
H1635 H 0.11045 0.03817 0.81141 0.0
H1636 H 0.06703 0.05926 0.74301 0.0
H1637 H 0.08326 0.03671 0.76857 0.0
H1638 H 0.19051 0.17013 0.78868 0.0
H1639 H 0.20292 0.15067 0.81901 0.0
H1640 H 0.15091 0.17661 0.76153 0.0
H1641 H 0.11845 0.15967 0.73531 0.0
C1642 C 0.80427 0.3719 0.42723 0.0
C1643 C 0.83479 0.38145 0.44506 0.0
C1644 C 0.859 0.36929 0.39916 0.0
C1645 C 0.82848 0.35914 0.38143 0.0
N1646 N 0.77214 0.34631 0.37972 0.0
N1647 N 0.89097 0.38462 0.45003 0.0
C1648 C 0.80113 0.35896 0.39591 0.0
C1649 C 0.86206 0.37855 0.43162 0.0
N1650 N 0.7783 0.37607 0.44003 0.0
N1651 N 0.88516 0.37078 0.38476 0.0
H1652 H 0.8941 0.39204 0.47362 0.0
H1653 H 0.91152 0.38012 0.44282 0.0
H1654 H 0.88406 0.36343 0.36145 0.0
H1655 H 0.9078 0.38098 0.39512 0.0
H1656 H 0.7557 0.37309 0.42738 0.0
H1657 H 0.77963 0.38395 0.46329 0.0
H1658 H 0.7516 0.34247 0.38978 0.0
H1659 H 0.76883 0.33793 0.3564 0.0
C1660 C 0.63485 0.15196 0.27319 0.0
C1661 C 0.60161 0.14329 0.27057 0.0
C1662 C 0.60005 0.11041 0.22449 0.0
C1663 C 0.63356 0.11741 0.22826 0.0
N1664 N 0.68344 0.14134 0.25789 0.0
N1665 N 0.55392 0.10824 0.24978 0.0
C1666 C 0.65122 0.13722 0.25315 0.0
C1667 C 0.58449 0.12086 0.24792 0.0
N1668 N 0.6505 0.1746 0.29438 0.0
N1669 N 0.58295 0.09436 0.1982 0.0
H1670 H 0.54155 0.11461 0.2671 0.0
H1671 H 0.54183 0.08939 0.23602 0.0
H1672 H 0.59314 0.08606 0.1801 0.0
H1673 H 0.55847 0.09154 0.19299 0.0
H1674 H 0.67432 0.18376 0.29555 0.0
H1675 H 0.63907 0.18574 0.30944 0.0
H1676 H 0.69766 0.15324 0.27744 0.0
H1677 H 0.69595 0.13106 0.24318 0.0
C1678 C 0.82516 0.77222 0.92792 0.0
C1679 C 0.84415 0.75038 0.93312 0.0
C1680 C 0.85951 0.75863 0.87983 0.0
C1681 C 0.84237 0.78187 0.87575 0.0
N1682 N 0.81215 0.81305 0.89938 0.0
N1683 N 0.88404 0.72723 0.9146 0.0
C1684 C 0.82646 0.78937 0.901 0.0
C1685 C 0.86235 0.74473 0.90901 0.0
N1686 N 0.80393 0.77541 0.94767 0.0
N1687 N 0.87353 0.74973 0.85565 0.0
H1688 H 0.88771 0.71756 0.93544 0.0
H1689 H 0.90053 0.72452 0.90001 0.0
H1690 H 0.87473 0.76089 0.83564 0.0
H1691 H 0.88247 0.73054 0.85468 0.0
H1692 H 0.78674 0.7881 0.94358 0.0
H1693 H 0.80118 0.76296 0.96657 0.0
H1694 H 0.80358 0.82218 0.91815 0.0
H1695 H 0.81083 0.82499 0.87989 0.0
C1696 C 0.89791 0.16105 0.05727 0.0
C1697 C 0.88205 0.17223 0.03147 0.0
C1698 C 0.91371 0.15078 0.99742 0.0
C1699 C 0.92379 0.13451 0.02203 0.0
N1700 N 0.91953 0.11984 0.074 0.0
N1701 N 0.87239 0.17476 0.97534 0.0
C1702 C 0.91455 0.1386 0.05174 0.0
C1703 C 0.88953 0.16677 1.00102 0.0
N1704 N 0.89655 0.17155 0.08703 0.0
N1705 N 0.92725 0.15109 0.97084 0.0
H1706 H 0.85401 0.18602 0.97637 0.0
H1707 H 0.87486 0.16807 0.9526 0.0
H1708 H 0.94535 0.13985 0.9677 0.0
H1709 H 0.92265 0.16477 0.9534 0.0
H1710 H 0.90964 0.16535 0.10658 0.0
H1711 H 0.8851 0.18878 0.09171 0.0
H1712 H 0.90972 0.12028 0.09456 0.0
H1713 H 0.92999 0.10179 0.07035 0.0
C1714 C 0.43471 0.52018 0.06854 0.0
C1715 C 0.41559 0.50626 0.04034 0.0
C1716 C 0.46075 0.52478 0.01234 0.0
C1717 C 0.48112 0.53642 0.04076 0.0
N1718 N 0.48717 0.54008 0.09719 0.0
N1719 N 0.4149 0.48942 0.98661 0.0
C1720 C 0.46792 0.53269 0.06919 0.0
C1721 C 0.43007 0.50688 0.01272 0.0
N1722 N 0.42095 0.52268 0.09473 0.0
N1723 N 0.4697 0.53223 0.98451 0.0
H1724 H 0.39332 0.47519 0.98608 0.0
H1725 H 0.4254 0.48651 0.96678 0.0
H1726 H 0.4905 0.54681 0.98293 0.0
H1727 H 0.45472 0.52692 0.96326 0.0
H1728 H 0.4322 0.53556 0.11501 0.0
H1729 H 0.39732 0.5137 0.09533 0.0
H1730 H 0.48021 0.53445 0.11837 0.0
H1731 H 0.51094 0.54962 0.09923 0.0
C1732 C 0.32682 0.59339 0.75365 0.0
C1733 C 0.35525 0.60373 0.742 0.0
C1734 C 0.35274 0.65418 0.75716 0.0
C1735 C 0.32294 0.64409 0.76633 0.0
N1736 N 0.27904 0.60511 0.76944 0.0
N1737 N 0.39152 0.64357 0.72574 0.0
C1738 C 0.30914 0.61394 0.76341 0.0
C1739 C 0.36718 0.63404 0.74174 0.0
N1740 N 0.31752 0.5642 0.7566 0.0
N1741 N 0.3677 0.68279 0.76407 0.0
H1742 H 0.40227 0.62941 0.71327 0.0
H1743 H 0.39891 0.66548 0.72215 0.0
H1744 H 0.35801 0.69844 0.77559 0.0
H1745 H 0.39097 0.69042 0.76094 0.0
H1746 H 0.29881 0.55578 0.76805 0.0
H1747 H 0.33005 0.54848 0.74981 0.0
H1748 H 0.26652 0.58368 0.76458 0.0
H1749 H 0.26563 0.61972 0.77711 0.0
C1750 C 0.1876 0.68018 0.50569 0.0
C1751 C 0.21688 0.67102 0.50626 0.0
C1752 C 0.19031 0.61975 0.50494 0.0
C1753 C 0.16231 0.62937 0.50979 0.0
N1754 N 0.13328 0.66835 0.5144 0.0
N1755 N 0.24115 0.63196 0.48777 0.0
C1756 C 0.16051 0.65945 0.50957 0.0
C1757 C 0.21692 0.64067 0.50033 0.0
N1758 N 0.18508 0.70786 0.49867 0.0
N1759 N 0.19188 0.59082 0.50594 0.0
H1760 H 0.2586 0.64673 0.47969 0.0
H1761 H 0.2414 0.61021 0.48097 0.0
H1762 H 0.17237 0.57471 0.50794 0.0
H1763 H 0.2129 0.5831 0.50668 0.0
H1764 H 0.16385 0.71529 0.49588 0.0
H1765 H 0.20322 0.722 0.49085 0.0
H1766 H 0.1319 0.69014 0.51953 0.0
H1767 H 0.11225 0.65368 0.51459 0.0
C1768 C 0.69332 0.96316 0.81305 0.0
C1769 C 0.69431 0.98714 0.79418 0.0
C1770 C 0.75207 0.99554 0.80203 0.0
C1771 C 0.75092 0.97127 0.82003 0.0
N1772 N 0.72248 0.93913 0.85199 0.0
N1773 N 0.72469 0.03277 0.78233 0.0
C1774 C 0.72213 0.95777 0.82898 0.0
C1775 C 0.72378 1.00555 0.7925 0.0
N1776 N 0.66569 0.94405 0.81388 0.0
N1777 N 0.7797 1.00807 0.79263 0.0
H1778 H 0.70436 0.04141 0.77693 0.0
H1779 H 0.74564 0.04787 0.7829 0.0
H1780 H 0.80111 1.00172 0.79975 0.0
H1781 H 0.78091 0.02351 0.77627 0.0
H1782 H 0.66427 0.92557 0.82611 0.0
H1783 H 0.64423 0.94482 0.80057 0.0
H1784 H 0.70265 0.93133 0.86217 0.0
H1785 H 0.74343 0.93435 0.86329 0.0
C1786 C 0.68777 0.97709 0.54602 0.0
C1787 C 0.71631 0.99054 0.53534 0.0
C1788 C 0.68936 0.03315 0.52427 0.0
C1789 C 0.6599 1.0184 0.53202 0.0
N1790 N 0.63098 0.97252 0.54489 0.0
N1791 N 0.7393 0.02953 0.50656 0.0
C1792 C 0.65913 0.98916 0.54089 0.0
C1793 C 0.71571 1.01818 0.52261 0.0
N1794 N 0.68826 0.95358 0.56318 0.0
N1795 N 0.69236 0.06168 0.51768 0.0
H1796 H 0.75746 1.01881 0.50242 0.0
H1797 H 0.7388 0.04776 0.49397 0.0
H1798 H 0.67345 0.07257 0.51508 0.0
H1799 H 0.71406 0.07499 0.51646 0.0
H1800 H 0.6694 0.94412 0.57388 0.0
H1801 H 0.70867 0.94555 0.56996 0.0
H1802 H 0.6279 0.95014 0.54726 0.0
H1803 H 0.61008 0.98042 0.5436 0.0
C1804 C 0.37547 0.45105 0.75129 0.0
C1805 C 0.37297 0.45018 0.71817 0.0
C1806 C 0.34276 0.40004 0.7125 0.0
C1807 C 0.34864 0.39997 0.74535 0.0
N1808 N 0.36966 0.4239 0.79664 0.0
N1809 N 0.35331 0.42558 0.66687 0.0
C1810 C 0.36426 0.42521 0.76496 0.0
C1811 C 0.35608 0.42519 0.69861 0.0
N1812 N 0.38886 0.47634 0.76974 0.0
N1813 N 0.32457 0.37602 0.69484 0.0
H1814 H 0.36075 0.44443 0.65604 0.0
H1815 H 0.34437 0.40732 0.65106 0.0
H1816 H 0.31478 0.35722 0.70456 0.0
H1817 H 0.31745 0.37501 0.67089 0.0
H1818 H 0.38749 0.47931 0.79343 0.0
H1819 H 0.40021 0.49529 0.76154 0.0
H1820 H 0.38496 0.43985 0.81211 0.0
H1821 H 0.35981 0.40597 0.80766 0.0
C1822 C 0.16248 0.5938 0.20626 0.0
C1823 C 0.14004 0.58784 0.22689 0.0
C1824 C 0.16475 0.63261 0.26013 0.0
C1825 C 0.18555 0.63967 0.23817 0.0
N1826 N 0.20208 0.62975 0.18841 0.0
N1827 N 0.11673 0.60231 0.2712 0.0
C1828 C 0.18395 0.62097 0.21074 0.0
C1829 C 0.14028 0.60745 0.25326 0.0
N1830 N 0.16338 0.57334 0.18257 0.0
N1831 N 0.16881 0.64975 0.28768 0.0
H1832 H 0.0986 0.58389 0.26692 0.0
H1833 H 0.11377 0.61711 0.28897 0.0
H1834 H 0.18631 0.66858 0.29318 0.0
H1835 H 0.15653 0.64428 0.30608 0.0
H1836 H 0.18145 0.57492 0.16901 0.0
H1837 H 0.14709 0.55366 0.1776 0.0
H1838 H 0.19912 0.61884 0.16623 0.0
H1839 H 0.21858 0.64932 0.19104 0.0
C1840 C 0.58775 0.69751 0.51964 0.0
C1841 C 0.55506 0.69837 0.51307 0.0
C1842 C 0.54308 0.66361 0.55121 0.0
C1843 C 0.57445 0.65921 0.55351 0.0
N1844 N 0.62873 0.6783 0.5511 0.0
N1845 N 0.50351 0.68995 0.52834 0.0
C1846 C 0.59763 0.67884 0.54187 0.0
C1847 C 0.53332 0.68416 0.53115 0.0
N1848 N 0.60873 0.71272 0.50301 0.0
N1849 N 0.52263 0.64671 0.56693 0.0
H1850 H 0.49638 0.70514 0.51362 0.0
H1851 H 0.48643 0.68105 0.54141 0.0
H1852 H 0.53037 0.63261 0.58269 0.0
H1853 H 0.4987 0.64696 0.56499 0.0
H1854 H 0.63213 0.71039 0.50412 0.0
H1855 H 0.60248 0.72731 0.48719 0.0
H1856 H 0.64734 0.69308 0.54492 0.0
H1857 H 0.63569 0.66415 0.56722 0.0
C1858 C 0.76389 0.41137 0.74268 0.0
C1859 C 0.75084 0.40169 0.71114 0.0
C1860 C 0.75443 0.35161 0.72119 0.0
C1861 C 0.77108 0.36132 0.75147 0.0
N1862 N 0.79107 0.40063 0.79201 0.0
N1863 N 0.74746 0.36481 0.66845 0.0
C1864 C 0.77573 0.39139 0.76247 0.0
C1865 C 0.75063 0.37256 0.69969 0.0
N1866 N 0.76422 0.43952 0.75368 0.0
N1867 N 0.74141 0.32278 0.71289 0.0
H1868 H 0.74988 0.38022 0.65214 0.0
H1869 H 0.74728 0.34358 0.65942 0.0
H1870 H 0.74029 0.30692 0.72868 0.0
H1871 H 0.72771 0.3154 0.69125 0.0
H1872 H 0.76948 0.44715 0.77721 0.0
H1873 H 0.75836 0.45515 0.73892 0.0
H1874 H 0.79897 0.42256 0.8002 0.0
H1875 H 0.79635 0.38603 0.8083 0.0
C1876 C 0.998 0.34256 0.92797 0.0
C1877 C 0.02803 0.33467 0.93311 0.0
C1878 C 0.05353 0.38479 0.9516 0.0
C1879 C 1.02346 0.3927 0.94697 0.0
N1880 N 0.96667 0.37939 0.93653 0.0
N1881 N 0.08277 0.34549 0.95637 0.0
C1882 C 0.99547 0.3716 0.93704 0.0
C1883 C 0.05535 0.35495 0.94705 0.0
N1884 N 0.97228 0.32263 0.91332 0.0
N1885 N 0.08033 0.40591 0.95904 0.0
H1886 H 0.08447 0.32348 0.95392 0.0
H1887 H 0.10281 0.35883 0.96918 0.0
H1888 H 0.07999 0.42812 0.96307 0.0
H1889 H 0.103 0.40176 0.95909 0.0
H1890 H 0.95053 0.32795 0.90556 0.0
H1891 H 0.97309 0.30082 0.90723 0.0
H1892 H 0.94532 0.36448 0.93234 0.0
H1893 H 0.96413 0.40072 0.94264 0.0
C1894 C 0.06207 0.87432 0.2213 0.0
C1895 C 0.08701 0.89444 0.24008 0.0
C1896 C 0.05408 0.90043 0.28 0.0
C1897 C 0.0297 0.87928 0.262 0.0
N1898 N 1.0066 0.85147 0.21301 0.0
N1899 N 0.10491 0.93258 0.28194 0.0
C1900 C 0.03236 0.86817 0.23163 0.0
C1901 C 0.08228 0.90957 0.2677 0.0
N1902 N 0.0674 0.85965 0.19489 0.0
N1903 N 0.05072 0.91067 0.30932 0.0
H1904 H 0.1257 0.9398 0.27291 0.0
H1905 H 0.10199 0.94611 0.30086 0.0
H1906 H 0.02977 0.90525 0.31858 0.0
H1907 H 0.06906 0.92334 0.32508 0.0
H1908 H 0.05153 0.84183 0.1827 0.0
H1909 H 0.08847 0.86431 0.18579 0.0
H1910 H 1.00619 0.84507 0.18954 0.0
H1911 H 0.98464 0.84591 0.22035 0.0
C1912 C 0.59963 0.43626 0.08653 0.0
C1913 C 0.57909 0.42714 0.10898 0.0
C1914 C 0.56219 0.47655 0.10416 0.0
C1915 C 0.58322 0.48596 0.0822 0.0
N1916 N 0.62618 0.47462 0.05756 0.0
N1917 N 0.53681 0.43874 0.13449 0.0
C1918 C 0.60265 0.46541 0.07457 0.0
C1919 C 0.55981 0.44775 0.11679 0.0
N1920 N 0.61658 0.41677 0.07615 0.0
N1921 N 0.54378 0.49529 0.11309 0.0
H1922 H 0.53332 0.41823 0.14307 0.0
H1923 H 0.51929 0.45022 0.13868 0.0
H1924 H 0.54063 0.51349 0.10135 0.0
H1925 H 0.53231 0.49349 0.13256 0.0
H1926 H 0.62813 0.41919 0.05676 0.0
H1927 H 0.61766 0.39707 0.08588 0.0
H1928 H 0.64372 0.46302 0.05373 0.0
H1929 H 0.63024 0.49542 0.04971 0.0
C1930 C 0.97948 0.31663 0.32437 0.0
C1931 C 0.98711 0.31672 0.35749 0.0
C1932 C 0.92931 0.3117 0.36 0.0
C1933 C 0.92248 0.31528 0.32746 0.0
N1934 N 0.9427 0.32423 0.27939 0.0
N1935 N 0.96839 0.31761 0.40714 0.0
C1936 C 0.94811 0.31861 0.30997 0.0
C1937 C 0.96165 0.31473 0.37531 0.0
N1938 N 1.00214 0.31347 0.30627 0.0
N1939 N 0.90479 0.30564 0.37657 0.0
H1940 H 0.9912 0.31973 0.41913 0.0
H1941 H 0.95183 0.3201 0.42173 0.0
H1942 H 0.88134 0.30443 0.36669 0.0
H1943 H 0.90736 0.2997 0.39935 0.0
H1944 H 0.9977 0.31026 0.28201 0.0
H1945 H 1.02471 0.31086 0.31564 0.0
H1946 H 0.96067 0.33068 0.2663 0.0
H1947 H 0.92021 0.32436 0.26763 0.0
C1948 C 0.04908 0.70907 0.5906 0.0
C1949 C 0.07396 0.726 0.61315 0.0
C1950 C 0.10347 0.68443 0.6059 0.0
C1951 C 0.07724 0.6661 0.58599 0.0
N1952 N 1.02255 0.66131 0.56395 0.0
N1953 N 0.12417 0.72648 0.64441 0.0
C1954 C 0.04955 0.67882 0.5794 0.0
C1955 C 0.10076 0.71248 0.62133 0.0
N1956 N 1.0245 0.72188 0.5797 0.0
N1957 N 0.13203 0.67598 0.60888 0.0
H1958 H 0.12479 0.74756 0.6543 0.0
H1959 H 0.14197 0.71657 0.65492 0.0
H1960 H 0.13549 0.65671 0.59761 0.0
H1961 H 0.15296 0.68938 0.61984 0.0
H1962 H 1.00724 0.71272 0.56091 0.0
H1963 H 1.02299 0.74303 0.58778 0.0
H1964 H 1.00069 0.66756 0.561 0.0
H1965 H 1.02118 0.63929 0.55689 0.0
C1966 C 0.68888 0.84248 0.84469 0.0
C1967 C 0.68003 0.81935 0.864 0.0
C1968 C 0.72623 0.7988 0.84903 0.0
C1969 C 0.73385 0.82098 0.82829 0.0
N1970 N 0.71833 0.86172 0.80361 0.0
N1971 N 0.6883 0.77227 0.87893 0.0
C1972 C 0.71392 0.84215 0.8255 0.0
C1973 C 0.69837 0.79677 0.86462 0.0
N1974 N 0.67431 0.8659 0.84569 0.0
N1975 N 0.74645 0.77999 0.855 0.0
H1976 H 0.66825 0.7696 0.88988 0.0
H1977 H 0.69789 0.75346 0.8774 0.0
H1978 H 0.76631 0.7802 0.84405 0.0
H1979 H 0.74515 0.76592 0.87268 0.0
H1980 H 0.68132 0.88461 0.83481 0.0
H1981 H 0.65697 0.86775 0.85959 0.0
H1982 H 0.70302 0.87574 0.79723 0.0
H1983 H 0.7361 0.86224 0.78971 0.0
C1984 C 0.45903 0.55819 0.60748 0.0
C1985 C 0.4643 0.57205 0.63814 0.0
C1986 C 0.51997 0.58868 0.63425 0.0
C1987 C 0.51535 0.57082 0.60584 0.0
N1988 N 0.48176 0.53358 0.56857 0.0
N1989 N 0.50187 0.59505 0.68362 0.0
C1990 C 0.48522 0.55413 0.59329 0.0
C1991 C 0.49529 0.58602 0.65245 0.0
N1992 N 0.42903 0.54936 0.59174 0.0
N1993 N 0.54742 0.60857 0.64354 0.0
H1994 H 0.4857 0.59099 0.6991 0.0
H1995 H 0.52463 0.60378 0.69494 0.0
H1996 H 0.56614 0.61132 0.63075 0.0
H1997 H 0.55034 0.62435 0.66233 0.0
H1998 H 0.42424 0.54164 0.56819 0.0
H1999 H 0.40912 0.55284 0.60119 0.0
H2000 H 0.46058 0.51909 0.5604 0.0
H2001 H 0.50078 0.5288 0.55846 0.0
C2002 C 0.82084 0.29731 0.92591 0.0
C2003 C 0.80298 0.26974 0.93034 0.0
C2004 C 0.77999 0.26353 0.8746 0.0
C2005 C 0.79879 0.29089 0.87009 0.0
N2006 N 0.82296 0.33903 0.89573 0.0
N2007 N 0.75936 0.23005 0.91088 0.0
C2008 C 0.81506 0.30946 0.89694 0.0
C2009 C 0.78082 0.25372 0.90519 0.0
N2010 N 0.84402 0.31172 0.94901 0.0
N2011 N 0.76049 0.24736 0.84977 0.0
H2012 H 0.75836 0.22282 0.93302 0.0
H2013 H 0.7407 0.21897 0.89436 0.0
H2014 H 0.75408 0.25631 0.82898 0.0
H2015 H 0.7505 0.22532 0.84984 0.0
H2016 H 0.85997 0.33042 0.94564 0.0
H2017 H 0.84931 0.30346 0.97047 0.0
H2018 H 0.83335 0.35343 0.91524 0.0
H2019 H 0.81407 0.34967 0.87713 0.0
C2020 C 0.03803 0.47919 0.13386 0.0
C2021 C 0.06276 0.46339 0.1385 0.0
C2022 C 0.08099 0.47922 0.09098 0.0
C2023 C 0.06249 0.50134 0.09192 0.0
N2024 N 1.02025 0.52053 0.11107 0.0
N2025 N 0.09609 0.43668 0.11422 0.0
C2026 C 0.03939 0.50035 0.11191 0.0
C2027 C 0.0805 0.45948 0.11448 0.0
N2028 N 1.01434 0.47444 0.15155 0.0
N2029 N 0.09945 0.47774 0.06826 0.0
H2030 H 0.09333 0.42097 0.13025 0.0
H2031 H 0.10906 0.43167 0.09693 0.0
H2032 H 0.09667 0.48895 0.04853 0.0
H2033 H 0.11674 0.46506 0.06843 0.0
H2034 H 0.99455 0.48411 0.14854 0.0
H2035 H 1.01378 0.45876 0.16773 0.0
H2036 H 1.0054 0.52296 0.12749 0.0
H2037 H 1.02017 0.53574 0.09443 0.0
C2038 C 0.78779 0.87351 0.4205 0.0
C2039 C 0.81079 0.8985 0.43429 0.0
C2040 C 0.83676 0.89521 0.38649 0.0
C2041 C 0.81564 0.86852 0.37374 0.0
N2042 N 0.77291 0.83048 0.38279 0.0
N2043 N 0.86134 0.92872 0.43214 0.0
C2044 C 0.79163 0.85729 0.39195 0.0
C2045 C 0.83645 0.90786 0.41771 0.0
N2046 N 0.76138 0.86573 0.43407 0.0
N2047 N 0.85598 0.91001 0.36797 0.0
H2048 H 0.86235 0.9382 0.45476 0.0
H2049 H 0.88235 0.9343 0.42308 0.0
H2050 H 0.8553 0.90334 0.34452 0.0
H2051 H 0.86959 0.93083 0.37458 0.0
H2052 H 0.74172 0.85033 0.42357 0.0
H2053 H 0.75826 0.87635 0.45494 0.0
H2054 H 0.75774 0.81941 0.39657 0.0
H2055 H 0.77429 0.81803 0.36252 0.0
C2056 C 0.49419 0.51683 0.79214 0.0
C2057 C 0.50519 0.53413 0.76883 0.0
C2058 C 0.55527 0.55294 0.80298 0.0
C2059 C 0.54248 0.53849 0.8274 0.0
N2060 N 0.4978 0.51081 0.84717 0.0
N2061 N 0.5452 0.56947 0.75137 0.0
C2062 C 0.51139 0.52151 0.82255 0.0
C2063 C 0.53559 0.55233 0.77394 0.0
N2064 N 0.46783 0.49522 0.78488 0.0
N2065 N 0.58627 0.56667 0.80747 0.0
H2066 H 0.53199 0.56808 0.72927 0.0
H2067 H 0.56539 0.58586 0.75491 0.0
H2068 H 0.60109 0.56769 0.8287 0.0
H2069 H 0.59791 0.57524 0.78972 0.0
H2070 H 0.46046 0.48002 0.80025 0.0
H2071 H 0.45526 0.49044 0.76234 0.0
H2072 H 0.47402 0.50114 0.84527 0.0
H2073 H 0.50935 0.51393 0.87015 0.0
C2074 C 0.84803 0.27328 0.14753 0.0
C2075 C 0.81701 0.26507 0.13054 0.0
C2076 C 0.79575 0.285 0.17505 0.0
C2077 C 0.82616 0.28986 0.19353 0.0
N2078 N 0.88117 0.287 0.19811 0.0
N2079 N 0.7609 0.26118 0.12853 0.0
C2080 C 0.85241 0.28391 0.17983 0.0
C2081 C 0.7908 0.2705 0.14443 0.0
N2082 N 0.87324 0.2707 0.13275 0.0
N2083 N 0.77178 0.29547 0.18623 0.0
H2084 H 0.75632 0.25251 0.10526 0.0
H2085 H 0.7406 0.26055 0.13884 0.0
H2086 H 0.77467 0.30681 0.20809 0.0
H2087 H 0.75003 0.2955 0.17289 0.0
H2088 H 0.89662 0.27871 0.14262 0.0
H2089 H 0.87064 0.26247 0.10944 0.0
H2090 H 0.90061 0.28025 0.19068 0.0
H2091 H 0.88507 0.29448 0.22172 0.0
C2092 C 1.02604 0.51023 0.29932 0.0
C2093 C 0.05846 0.51257 0.29673 0.0
C2094 C 0.07338 0.55423 0.33603 0.0
C2095 C 0.04135 0.55038 0.34012 0.0
N2096 N 0.98704 0.53104 0.32437 0.0
N2097 N 0.11218 0.54053 0.30622 0.0
C2098 C 1.01747 0.53039 0.32071 0.0
C2099 C 0.08204 0.53569 0.31322 0.0
N2100 N 1.00407 0.48832 0.28196 0.0
N2101 N 0.09536 0.57497 0.35494 0.0
H2102 H 0.11984 0.52743 0.28973 0.0
H2103 H 0.12949 0.55867 0.31524 0.0
H2104 H 0.089 0.59009 0.37041 0.0
H2105 H 0.11965 0.57682 0.35613 0.0
H2106 H 0.9801 0.48428 0.28336 0.0
H2107 H 1.01006 0.47284 0.26664 0.0
H2108 H 0.96709 0.51797 0.31108 0.0
H2109 H 0.96709 0.51797 0.31108 0.0
C2110 C 0.81763 0.86898 0.64292 0.0
C2111 C 0.80574 0.89558 0.63979 0.0
C2112 C 0.79275 0.89106 0.6946 0.0
C2113 C 0.80676 0.86583 0.69843 0.0
N2114 N 0.83745 0.83412 0.67656 0.0
N2115 N 0.78426 0.93293 0.66563 0.0
C2116 C 0.82021 0.85565 0.67247 0.0
C2117 C 0.79423 0.90687 0.66666 0.0
N2118 N 0.82698 0.85621 0.61755 0.0
N2119 N 0.77626 0.89914 0.71716 0.0
H2120 H 0.78192 0.94374 0.64542 0.0
H2121 H 0.77987 0.94466 0.6852 0.0
H2122 H 0.77385 0.88778 0.73689 0.0
H2123 H 0.76252 0.91515 0.71514 0.0
H2124 H 0.83137 0.83501 0.61635 0.0
H2125 H 0.82874 0.86613 0.59688 0.0
H2126 H 0.85135 0.82796 0.66062 0.0
H2127 H 0.84024 0.82408 0.69728 0.0
C2128 C 0.76257 0.45704 0.59605 0.0
C2129 C 0.77844 0.46104 0.56983 0.0
C2130 C 0.76321 0.50855 0.56501 0.0
C2131 C 0.7445 0.50319 0.58906 0.0
N2132 N 0.72002 0.46851 0.62167 0.0
N2133 N 0.78558 0.48635 0.52392 0.0
C2134 C 0.7423 0.47633 0.60296 0.0
C2135 C 0.77625 0.48556 0.55263 0.0
N2136 N 0.76806 0.43602 0.61545 0.0
N2137 N 0.76941 0.53578 0.55466 0.0
H2138 H 0.79237 0.46843 0.51312 0.0
H2139 H 0.7825 0.50288 0.50939 0.0
H2140 H 0.76144 0.55363 0.56418 0.0
H2141 H 0.78523 0.54128 0.53905 0.0
H2142 H 0.76052 0.43538 0.63717 0.0
H2143 H 0.78258 0.4212 0.61138 0.0
H2144 H 0.71499 0.44749 0.62865 0.0
H2145 H 0.70393 0.48145 0.62675 0.0
C2146 C 0.22205 0.14431 0.51084 0.0
C2147 C 0.24776 0.14368 0.535 0.0
C2148 C 0.20899 0.11302 0.56328 0.0
C2149 C 0.18369 0.11258 0.5385 0.0
N2150 N 0.16693 0.12642 0.4874 0.0
N2151 N 0.26536 0.12514 0.58359 0.0
C2152 C 0.19061 0.12786 0.51196 0.0
C2153 C 0.24102 0.1272 0.56089 0.0
N2154 N 0.22763 0.16099 0.48666 0.0
N2155 N 0.20221 0.10047 0.58979 0.0
H2156 H 0.28822 0.13702 0.58455 0.0
H2157 H 0.26345 0.11065 0.6008 0.0
H2158 H 0.17983 0.08883 0.59178 0.0
H2159 H 0.21801 0.10282 0.61045 0.0
H2160 H 0.21 0.16603 0.47043 0.0
H2161 H 0.25022 0.17105 0.48342 0.0
H2162 H 0.17028 0.13398 0.46585 0.0
H2163 H 0.14374 0.11598 0.48785 0.0
C2164 C 0.31999 0.03795 0.87011 0.0
C2165 C 0.303 0.05391 0.84962 0.0
C2166 C 0.31748 0.02939 0.80417 0.0
C2167 C 0.33422 1.01316 0.82463 0.0
N2168 N 0.35752 1.00548 0.87626 0.0
N2169 N 0.29052 0.07008 0.79835 0.0
C2170 C 0.33758 1.01873 0.85746 0.0
C2171 C 0.30361 0.05152 0.81701 0.0
N2172 N 0.31842 0.04058 0.90138 0.0
N2173 N 0.31309 0.02229 0.77259 0.0
H2174 H 0.27875 0.0858 0.80662 0.0
H2175 H 0.29333 0.07147 0.77503 0.0
H2176 H 0.32359 1.00664 0.76215 0.0
H2177 H 0.29756 0.03059 0.75674 0.0
H2178 H 0.32729 0.02713 0.91716 0.0
H2179 H 0.30677 0.05553 0.91148 0.0
H2180 H 0.36305 1.01029 0.90034 0.0
H2181 H 0.37068 0.99123 0.86735 0.0
C2182 C 0.46065 0.978 0.03139 0.0
C2183 C 0.445 0.97769 0.05764 0.0
C2184 C 0.48894 1.01396 0.08662 0.0
C2185 C 0.50133 1.01824 0.05836 0.0
N2186 N 0.49691 1.00613 1.0027 0.0
N2187 N 0.44308 0.995 0.11061 0.0
C2188 C 0.48675 1.00061 0.03044 0.0
C2189 C 0.45907 0.99518 0.08566 0.0
N2190 N 0.45011 0.95672 1.00724 0.0
N2191 N 0.50545 0.02809 0.11409 0.0
H2192 H 0.4217 0.98069 0.11083 0.0
H2193 H 0.45023 1.00979 0.13038 0.0
H2194 H 0.52688 0.04273 0.11532 0.0
H2195 H 0.49908 0.02378 0.13584 0.0
H2196 H 0.46214 0.95419 0.98841 0.0
H2197 H 0.43107 0.93966 1.00793 0.0
H2198 H 0.48489 0.99618 0.98117 0.0
H2199 H 0.51612 0.02231 1.00103 0.0
C2200 C 0.94018 0.66346 0.75356 0.0
C2201 C 0.94554 0.65461 0.78417 0.0
C2202 C 0.89181 0.65793 0.79149 0.0
C2203 C 0.88819 0.67087 0.76293 0.0
N2204 N 0.90988 0.68955 0.71825 0.0
N2205 N 0.92845 0.64722 0.83424 0.0
C2206 C 0.91253 0.67446 0.74417 0.0
C2207 C 0.9218 0.65258 0.80365 0.0
N2208 N 0.96089 0.66048 0.73316 0.0
N2209 N 0.86656 0.65118 0.80703 0.0
H2210 H 0.95059 0.64422 0.84445 0.0
H2211 H 0.91302 0.64853 0.85034 0.0
H2212 H 0.84423 0.65502 0.79854 0.0
H2213 H 0.86697 0.63935 0.8266 0.0
H2214 H 0.9564 0.66384 0.7096 0.0
H2215 H 0.98123 0.65196 0.73895 0.0
H2216 H 0.92851 0.69583 0.70589 0.0
H2217 H 0.88969 0.69754 0.71023 0.0
C2218 C 0.9595 0.63379 0.07079 0.0
C2219 C 0.94285 0.64296 0.04326 0.0
C2220 C 0.98587 0.62881 0.01601 0.0
C2221 C 0.99852 0.61454 0.04176 0.0
N2222 N 0.99134 0.60018 0.09303 0.0
N2223 N 0.94005 0.64344 0.9873 0.0
C2224 C 0.9835 0.61613 0.06889 0.0
C2225 C 0.95602 0.63874 0.01521 0.0
N2226 N 0.95417 0.64357 0.09949 0.0
N2227 N 1.00379 0.6355 0.99325 0.0
H2228 H 0.91827 0.64986 0.98521 0.0
H2229 H 0.94712 0.63811 0.96603 0.0
H2230 H 1.02709 0.63267 0.99575 0.0
H2231 H 0.99745 0.648 0.97522 0.0
H2232 H 0.96742 0.63984 0.12021 0.0
H2233 H 0.93989 0.65882 0.10256 0.0
H2234 H 0.97908 0.59814 0.11202 0.0
H2235 H 1.00774 0.58655 0.09251 0.0
C2236 C 0.2838 0.23013 0.88088 0.0
C2237 C 0.27627 0.2031 0.86242 0.0
C2238 C 0.30599 0.2241 0.82286 0.0
C2239 C 0.30883 0.25202 0.83872 0.0
N2240 N 0.29827 0.28257 0.88163 0.0
N2241 N 0.27642 0.1746 0.81379 0.0
C2242 C 0.29764 0.25537 0.8677 0.0
C2243 C 0.28665 0.19994 0.83299 0.0
N2244 N 0.27787 0.23155 0.91099 0.0
N2245 N 0.32186 0.22078 0.7982 0.0
H2246 H 0.26177 0.15622 0.81983 0.0
H2247 H 0.28022 0.17264 0.79065 0.0
H2248 H 0.33669 0.23822 0.79055 0.0
H2249 H 0.32288 0.20046 0.78746 0.0
H2250 H 0.28571 0.25017 0.9266 0.0
H2251 H 0.2676 0.21324 0.92123 0.0
H2252 H 0.28659 0.28626 0.90044 0.0
H2253 H 0.30866 0.30169 0.87315 0.0
C2254 C 0.49529 0.04695 0.33258 0.0
C2255 C 0.52402 0.05456 0.35398 0.0
C2256 C 0.51584 1.00444 0.36946 0.0
C2257 C 0.48528 0.99856 0.35157 0.0
N2258 N 0.44308 1.01659 0.32179 0.0
N2259 N 0.55791 0.04152 0.39783 0.0
C2260 C 0.47401 1.02067 0.33514 0.0
C2261 C 0.53321 0.0336 0.374 0.0
N2262 N 0.48935 0.06315 0.30807 0.0
N2263 N 0.52884 0.98213 0.3811 0.0
H2264 H 0.5694 0.06312 0.40418 0.0
H2265 H 0.56499 0.02708 0.4134 0.0
H2266 H 0.51696 0.96042 0.37822 0.0
H2267 H 0.55254 0.98477 0.39071 0.0
H2268 H 0.46982 0.05682 0.29065 0.0
H2269 H 0.50582 0.08044 0.30249 0.0
H2270 H 0.43318 0.03324 0.31192 0.0
H2271 H 0.4267 0.99759 0.3234 0.0
C2272 C 0.63103 0.45981 0.57107 0.0
C2273 C 0.61958 0.45269 0.59919 0.0
C2274 C 0.5779 0.48077 0.58835 0.0
C2275 C 0.59012 0.48886 0.56082 0.0
N2276 N 0.62103 0.47944 0.52102 0.0
N2277 N 0.57645 0.44773 0.62911 0.0
C2278 C 0.61418 0.47585 0.55047 0.0
C2279 C 0.5911 0.46034 0.60602 0.0
N2280 N 0.6588 0.45281 0.56491 0.0
N2281 N 0.55541 0.494 0.59898 0.0
H2282 H 0.58517 0.43212 0.64215 0.0
H2283 H 0.55408 0.45041 0.63312 0.0
H2284 H 0.54337 0.5076 0.58605 0.0
H2285 H 0.54956 0.4924 0.62137 0.0
H2286 H 0.67044 0.46098 0.54696 0.0
H2287 H 0.67129 0.44017 0.57887 0.0
H2288 H 0.63696 0.46904 0.51109 0.0
H2289 H 0.60823 0.49073 0.5055 0.0
C2290 C 0.43447 0.751 0.37049 0.0
C2291 C 0.44314 0.72711 0.35468 0.0
C2292 C 0.4072 0.73305 0.30796 0.0
C2293 C 0.40521 0.761 0.32159 0.0
N2294 N 0.42093 0.79834 0.3654 0.0
N2295 N 0.43536 0.69266 0.30974 0.0
C2296 C 0.42004 0.77059 0.35274 0.0
C2297 C 0.42803 0.71689 0.32397 0.0
N2298 N 0.44035 0.75511 0.40232 0.0
N2299 N 0.38997 0.72242 0.27951 0.0
H2300 H 0.44939 0.67994 0.32196 0.0
H2301 H 0.42857 0.68584 0.2861 0.0
H2302 H 0.37665 0.73471 0.26584 0.0
H2303 H 0.3878 0.70098 0.27 0.0
H2304 H 0.43335 0.77173 0.41516 0.0
H2305 H 0.44806 0.73941 0.41589 0.0
H2306 H 0.4334 0.80667 0.3873 0.0
H2307 H 0.41269 0.81433 0.3529 0.0
C2308 C 0.17992 0.80199 0.14068 0.0
C2309 C 0.15795 0.81031 0.15899 0.0
C2310 C 0.12434 0.7619 0.1473 0.0
C2311 C 0.14905 0.75237 0.13408 0.0
N2312 N 0.20107 0.76198 0.11924 0.0
N2313 N 0.10892 0.79932 0.17966 0.0
C2314 C 0.17695 0.77208 0.13069 0.0
C2315 C 0.12983 0.79066 0.16203 0.0
N2316 N 0.20332 0.82262 0.13265 0.0
N2317 N 0.09579 0.74342 0.14565 0.0
H2318 H 0.1116 0.82071 0.18966 0.0
H2319 H 0.08978 0.78513 0.18574 0.0
H2320 H 0.09123 0.722 0.13524 0.0
H2321 H 0.07583 0.74991 0.1522 0.0
H2322 H 0.2184 0.81804 0.11717 0.0
H2323 H 0.20558 0.8449 0.1388 0.0
H2324 H 0.22348 0.77472 0.11995 0.0
H2325 H 0.19935 0.74021 0.11086 0.0
C2326 C 0.12526 0.22435 0.8712 0.0
C2327 C 0.11521 0.2472 0.88778 0.0
C2328 C 0.15052 0.28369 0.86487 0.0
C2329 C 0.15601 0.26105 0.84443 0.0
N2330 N 0.14841 0.20993 0.82648 0.0
N2331 N 0.1148 0.29907 0.89692 0.0
C2332 C 0.1436 0.2313 0.84727 0.0
C2333 C 0.12718 0.27706 0.88415 0.0
N2334 N 0.1173 0.19614 0.87855 0.0
N2335 N 0.16772 0.3115 0.86599 0.0
H2336 H 0.09747 0.29579 0.91117 0.0
H2337 H 0.11992 0.32062 0.89121 0.0
H2338 H 0.1851 0.31733 0.852 0.0
H2339 H 0.16691 0.32807 0.88293 0.0
H2340 H 0.12618 0.17885 0.86917 0.0
H2341 H 0.10406 0.1905 0.89633 0.0
H2342 H 0.13706 0.18812 0.82525 0.0
H2343 H 0.16225 0.21436 0.80892 0.0
C2344 C 0.55955 0.695 0.96119 0.0
C2345 C 0.58702 0.71821 0.96898 0.0
C2346 C 0.60918 0.68326 1.00485 0.0
C2347 C 0.58272 0.65942 0.99531 0.0
N2348 N 0.53448 0.64318 0.95963 0.0
N2349 N 0.64103 0.72957 0.99441 0.0
C2350 C 0.55872 0.66558 0.9719 0.0
C2351 C 0.61243 0.71089 0.99001 0.0
N2352 N 0.53289 0.70141 0.945 0.0
N2353 N 0.63207 0.67961 0.02828 0.0
H2354 H 0.64512 0.74886 0.98349 0.0
H2355 H 0.66161 0.72454 1.00606 0.0
H2356 H 0.63287 0.65965 0.0375 0.0
H2357 H 0.64936 0.69679 0.03979 0.0
H2358 H 0.51107 0.68719 0.94138 0.0
H2359 H 0.53161 0.72217 0.93804 0.0
H2360 H 0.5185 0.64444 0.93983 0.0
H2361 H 0.53169 0.6225 0.96788 0.0
C2362 C 0.17603 0.80841 0.7253 0.0
C2363 C 0.16795 0.83586 0.71835 0.0
C2364 C 0.22019 0.86023 0.74866 0.0
C2365 C 0.22967 0.83278 0.75287 0.0
N2366 N 0.21719 0.78057 0.73924 0.0
N2367 N 0.18498 0.88804 0.72038 0.0
C2368 C 0.20757 0.80683 0.73978 0.0
C2369 C 0.19092 0.86174 0.72911 0.0
N2370 N 0.15344 0.78351 0.71804 0.0
N2371 N 0.23845 0.885 0.76474 0.0
H2372 H 0.16368 0.89016 0.70735 0.0
H2373 H 0.20193 0.90729 0.72405 0.0
H2374 H 0.25888 0.8847 0.78022 0.0
H2375 H 0.23171 0.90528 0.76537 0.0
H2376 H 0.1563 0.76327 0.72557 0.0
H2377 H 0.13081 0.78349 0.70651 0.0
H2378 H 0.20382 0.76148 0.72689 0.0
H2379 H 0.23988 0.77832 0.74846 0.0
C2380 C 0.11988 0.45641 0.46534 0.0
C2381 C 0.09942 0.42981 0.47094 0.0
C2382 C 0.07697 0.4628 0.50722 0.0
C2383 C 0.09483 0.48944 0.4985 0.0
N2384 N 0.13075 0.5098 0.46477 0.0
N2385 N 0.05486 0.41028 0.49553 0.0
C2386 C 0.11535 0.48549 0.47618 0.0
C2387 C 0.07719 0.43387 0.49168 0.0
N2388 N 0.14535 0.454 0.45093 0.0
N2389 N 0.05957 0.46496 0.53079 0.0
H2390 H 0.05424 0.38939 0.48519 0.0
H2391 H 0.0356 0.41178 0.50688 0.0
H2392 H 0.05825 0.48504 0.54194 0.0
H2393 H 0.04855 0.44697 0.54091 0.0
H2394 H 0.16304 0.47174 0.44872 0.0
H2395 H 0.15091 0.43386 0.44461 0.0
H2396 H 0.14284 0.50887 0.44575 0.0
H2397 H 0.12925 0.53099 0.47271 0.0
C2398 C 0.44237 0.31022 0.20596 0.0
C2399 C 0.47361 0.32233 0.22152 0.0
C2400 C 0.44866 0.33228 0.26939 0.0
C2401 C 0.41717 0.32172 0.25323 0.0
N2402 N 0.38551 0.30729 0.20268 0.0
N2403 N 0.50501 0.34932 0.26757 0.0
C2404 C 0.41461 0.31249 0.22059 0.0
C2405 C 0.47609 0.33467 0.25307 0.0
N2406 N 0.43898 0.29549 0.17717 0.0
N2407 N 0.45277 0.33866 0.30098 0.0
H2408 H 0.52512 0.3513 0.2567 0.0
H2409 H 0.50858 0.36172 0.28898 0.0
H2410 H 0.43402 0.33652 0.31373 0.0
H2411 H 0.47476 0.34339 0.31499 0.0
H2412 H 0.4177 0.28275 0.16608 0.0
H2413 H 0.45808 0.29428 0.16538 0.0
H2414 H 0.38205 0.30356 0.17844 0.0
H2415 H 0.36506 0.30985 0.21156 0.0
C2416 C 0.6755 0.62641 0.45942 0.0
C2417 C 0.68459 0.60346 0.44237 0.0
C2418 C 0.66051 0.56827 0.47549 0.0
C2419 C 0.64617 0.59027 0.48789 0.0
N2420 N 0.63624 0.63959 0.48861 0.0
N2421 N 0.68232 0.55125 0.43144 0.0
C2422 C 0.65293 0.61934 0.47944 0.0
C2423 C 0.67674 0.574 0.44991 0.0
N2424 N 0.68802 0.65485 0.45584 0.0
N2425 N 0.65885 0.54208 0.48825 0.0
H2426 H 0.69372 0.55381 0.41197 0.0
H2427 H 0.67325 0.52941 0.43403 0.0
H2428 H 0.64738 0.53736 0.50739 0.0
H2429 H 0.67155 0.52636 0.48193 0.0
H2430 H 0.68407 0.67253 0.4696 0.0
H2431 H 0.70493 0.66042 0.44125 0.0
H2432 H 0.63813 0.66022 0.48033 0.0
H2433 H 0.61814 0.63477 0.50193 0.0
C2434 C 0.32711 0.8488 0.1548 0.0
C2435 C 0.35448 0.86715 0.14735 0.0
C2436 C 0.3843 0.85981 0.19804 0.0
C2437 C 0.35641 0.84337 0.20644 0.0
N2438 N 0.3004 0.82355 0.1936 0.0
N2439 N 0.40906 0.89101 0.16205 0.0
C2440 C 0.32771 0.83784 0.18484 0.0
C2441 C 0.38301 0.87294 0.16911 0.0
N2442 N 0.30016 0.84212 0.13332 0.0
N2443 N 0.41244 0.86157 0.21711 0.0
H2444 H 0.41053 0.89823 0.13997 0.0
H2445 H 0.42895 0.89977 0.17831 0.0
H2446 H 0.41438 0.85175 0.23805 0.0
H2447 H 0.4343 0.87055 0.21124 0.0
H2448 H 0.28135 0.82521 0.13483 0.0
H2449 H 0.29677 0.85254 0.11298 0.0
H2450 H 0.27803 0.82245 0.1811 0.0
H2451 H 0.29946 0.81365 0.21428 0.0
C2452 C 0.05939 0.64674 0.92681 0.0
C2453 C 0.08685 0.65981 0.91545 0.0
C2454 C 0.11803 0.65034 0.96389 0.0
C2455 C 0.09171 0.62914 0.96875 0.0
N2456 N 0.03807 0.60348 0.94966 0.0
N2457 N 0.14213 0.68053 0.92643 0.0
C2458 C 0.06239 0.62634 0.94893 0.0
C2459 C 0.11616 0.66432 0.93555 0.0
N2460 N 0.03066 0.65222 0.91487 0.0
N2461 N 0.14477 0.65611 0.98549 0.0
H2462 H 0.14023 0.69189 0.90648 0.0
H2463 H 0.16504 0.68217 0.93797 0.0
H2464 H 0.14688 0.64539 1.00584 0.0
H2465 H 0.16396 0.67272 0.98421 0.0
H2466 H 1.00985 0.64325 0.92293 0.0
H2467 H 0.02866 0.66836 0.8995 0.0
H2468 H 1.01656 0.6008 0.93503 0.0
H2469 H 0.03998 0.58616 0.96322 0.0
C2470 C 0.37077 0.27123 0.65685 0.0
C2471 C 0.34639 0.24735 0.64272 0.0
C2472 C 0.31856 0.25443 0.68878 0.0
C2473 C 0.34197 0.27935 0.70206 0.0
N2474 N 0.38784 0.31418 0.69486 0.0
N2475 N 0.29368 0.22073 0.64324 0.0
C2476 C 0.36737 0.28841 0.68492 0.0
C2477 C 0.3194 0.24036 0.65827 0.0
N2478 N 0.39798 0.27692 0.64416 0.0
N2479 N 0.296 0.2431 0.70602 0.0
H2480 H 0.29294 0.21056 0.62099 0.0
H2481 H 0.27199 0.2168 0.65128 0.0
H2482 H 0.29465 0.25224 0.72821 0.0
H2483 H 0.28051 0.22315 0.69972 0.0
H2484 H 0.41821 0.29146 0.65492 0.0
H2485 H 0.40102 0.26547 0.62375 0.0
H2486 H 0.40485 0.32395 0.68212 0.0
H2487 H 0.38604 0.32713 0.71475 0.0
C2488 C 0.67209 0.5461 0.25171 0.0
C2489 C 0.66577 0.55148 0.28228 0.0
C2490 C 0.61245 0.55732 0.26244 0.0
C2491 C 0.62159 0.55908 0.23253 0.0
N2492 N 0.65822 0.55214 0.19692 0.0
N2493 N 0.62534 0.54453 0.31528 0.0
C2494 C 0.65049 0.55161 0.22638 0.0
C2495 C 0.6343 0.55133 0.28729 0.0
N2496 N 0.69826 0.53513 0.24725 0.0
N2497 N 0.58382 0.56316 0.2673 0.0
H2498 H 0.64032 0.53702 0.33248 0.0
H2499 H 0.60228 0.54264 0.31989 0.0
H2500 H 0.5669 0.56636 0.24903 0.0
H2501 H 0.57739 0.56598 0.28935 0.0
H2502 H 0.70336 0.52884 0.22539 0.0
H2503 H 0.7129 0.52913 0.26586 0.0
H2504 H 0.68054 0.55066 0.19179 0.0
H2505 H 0.64259 0.55532 0.17758 0.0
C2506 C 0.30075 0.86452 0.93533 0.0
C2507 C 0.32868 0.88438 0.94909 0.0
C2508 C 0.349 0.88311 0.89881 0.0
C2509 C 0.32156 0.86237 0.88512 0.0
N2510 N 0.2729 0.83054 0.89132 0.0
N2511 N 0.382 0.90779 0.94614 0.0
C2512 C 0.29802 0.8521 0.9038 0.0
C2513 C 0.35351 0.89227 0.93137 0.0
N2514 N 0.27626 0.85858 0.952 0.0
N2515 N 0.37087 0.89427 0.88073 0.0
H2516 H 0.38619 0.91446 0.96997 0.0
H2517 H 0.40232 0.91165 0.93571 0.0
H2518 H 0.37003 0.88684 0.85747 0.0
H2519 H 0.38906 0.91215 0.88823 0.0
H2520 H 0.25381 0.84716 0.94246 0.0
H2521 H 0.27794 0.86656 0.97528 0.0
H2522 H 0.25705 0.81948 0.90446 0.0
H2523 H 0.26861 0.82265 0.86781 0.0
C2524 C 0.09193 0.59769 0.72692 0.0
C2525 C 0.07361 0.58426 0.74837 0.0
C2526 C 0.08943 0.53742 0.73676 0.0
C2527 C 0.1094 0.55137 0.71694 0.0
N2528 N 0.13312 0.59427 0.69523 0.0
N2529 N 0.05748 0.54262 0.77722 0.0
C2530 C 0.11173 0.58165 0.71292 0.0
C2531 C 0.07292 0.55443 0.75425 0.0
N2532 N 0.08898 0.62509 0.71879 0.0
N2533 N 0.08577 0.50783 0.73827 0.0
H2534 H 0.04393 0.55367 0.78977 0.0
H2535 H 0.05962 0.52242 0.7853 0.0
H2536 H 0.09913 0.49515 0.72717 0.0
H2537 H 0.06845 0.49562 0.74901 0.0
H2538 H 0.09856 0.63486 0.70048 0.0
H2539 H 0.07431 0.63732 0.72845 0.0
H2540 H 0.13847 0.61654 0.69228 0.0
H2541 H 0.13847 0.61654 0.69228 0.0
C2542 C 0.33301 0.27503 0.43574 0.0
C2543 C 0.34667 0.24932 0.43865 0.0
C2544 C 0.3604 0.25593 0.38437 0.0
C2545 C 0.34491 0.28029 0.38082 0.0
N2546 N 0.31214 0.30983 0.40269 0.0
N2547 N 0.37159 0.21454 0.41284 0.0
C2548 C 0.3304 0.28906 0.40661 0.0
C2549 C 0.35961 0.23959 0.41197 0.0
N2550 N 0.32189 0.2862 0.46087 0.0
N2551 N 0.37755 0.2492 0.36179 0.0
H2552 H 0.37491 0.20377 0.43297 0.0
H2553 H 0.37693 0.20356 0.39326 0.0
H2554 H 0.37931 0.26083 0.34215 0.0
H2555 H 0.39233 0.23404 0.36363 0.0
H2556 H 0.31623 0.30691 0.46249 0.0
H2557 H 0.31963 0.2754 0.48095 0.0
H2558 H 0.2973 0.31475 0.41825 0.0
H2559 H 0.30967 0.32059 0.38243 0.0
C2560 C 0.40548 0.65497 0.54802 0.0
C2561 C 0.38244 0.66445 0.52693 0.0
C2562 C 0.40184 0.6419 0.48282 0.0
C2563 C 0.42171 0.62911 0.50417 0.0
N2564 N 0.43941 0.61982 0.55718 0.0
N2565 N 0.35459 0.66213 0.47416 0.0
C2566 C 0.42273 0.63461 0.53684 0.0
C2567 C 0.37969 0.65701 0.49421 0.0
N2568 N 0.41132 0.66597 0.57863 0.0
N2569 N 0.40377 0.63927 0.45164 0.0
H2570 H 0.3368 0.67195 0.48121 0.0
H2571 H 0.34966 0.65404 0.45074 0.0
H2572 H 0.41849 0.62699 0.44214 0.0
H2573 H 0.39253 0.65106 0.43553 0.0
H2574 H 0.42991 0.66198 0.59451 0.0
H2575 H 0.39953 0.68152 0.58734 0.0
H2576 H 0.43797 0.62048 0.58096 0.0
H2577 H 0.45314 0.60528 0.55006 0.0
C2578 C 0.93954 0.99327 0.52872 0.0
C2579 C 0.91718 1.00907 0.53916 0.0
C2580 C 0.95958 0.0543 0.54566 0.0
C2581 C 0.98247 0.03823 0.53698 0.0
N2582 N 0.99458 0.99061 0.52625 0.0
N2583 N 0.90857 0.05422 0.56298 0.0
C2584 C 0.97242 1.00721 0.53016 0.0
C2585 C 0.92813 0.03947 0.54915 0.0
N2586 N 0.92917 0.96505 0.51601 0.0
N2587 N 0.9674 0.08417 0.54926 0.0
H2588 H 0.88595 0.04421 0.56626 0.0
H2589 H 0.91571 0.07536 0.57391 0.0
H2590 H 0.98958 0.09572 0.54652 0.0
H2591 H 0.95118 0.09759 0.55206 0.0
H2592 H 0.94293 0.95333 0.50436 0.0
H2593 H 0.90594 0.95401 0.5151 0.0
H2594 H 0.98983 0.96783 0.52488 0.0
H2595 H 1.01843 0.99964 0.52711 0.0
C2596 C 0.86036 0.13179 0.20957 0.0
C2597 C 0.84848 0.10185 0.21224 0.0
C2598 C 0.8057 0.11475 0.23769 0.0
C2599 C 0.82053 0.14456 0.2393 0.0
N2600 N 0.86473 0.18154 0.23115 0.0
N2601 N 0.81231 0.06445 0.23235 0.0
C2602 C 0.84854 0.15321 0.22627 0.0
C2603 C 0.82156 0.09308 0.22693 0.0
N2604 N 0.8825 0.13968 0.19059 0.0
N2605 N 0.77647 0.10724 0.24628 0.0
H2606 H 0.82357 0.04784 0.22533 0.0
H2607 H 0.79508 0.05752 0.24613 0.0
H2608 H 0.76427 0.12272 0.25438 0.0
H2609 H 0.76318 0.08603 0.2427 0.0
H2610 H 0.88979 0.16119 0.18554 0.0
H2611 H 0.89112 0.12442 0.17728 0.0
H2612 H 0.88713 0.18814 0.22514 0.0
H2613 H 0.85717 0.19805 0.24367 0.0
C2614 C 0.70368 0.14662 0.99145 0.0
C2615 C 0.71251 0.17203 0.01296 0.0
C2616 C 0.66572 0.1567 0.03676 0.0
C2617 C 0.65949 0.12908 0.01905 0.0
N2618 N 0.67527 0.09635 0.98163 0.0
N2619 N 0.70597 0.19696 0.06149 0.0
C2620 C 0.6791 0.12362 0.99673 0.0
C2621 C 0.69475 0.17591 0.0372 0.0
N2622 N 0.71832 0.14472 0.96573 0.0
N2623 N 0.64311 0.16551 0.05165 0.0
H2624 H 0.72803 0.21074 0.06381 0.0
H2625 H 0.69477 0.19844 0.08111 0.0
H2626 H 0.6203 0.15343 0.04853 0.0
H2627 H 0.64573 0.18645 0.06283 0.0
H2628 H 0.71076 0.12803 0.94772 0.0
H2629 H 0.73614 0.16131 0.96096 0.0
H2630 H 0.69101 0.09044 0.96754 0.0
H2631 H 0.65789 0.07887 0.98523 0.0
C2632 C 0.21901 0.44726 0.24831 0.0
C2633 C 0.20688 0.47072 0.26103 0.0
C2634 C 0.25543 0.48654 0.29826 0.0
C2635 C 0.26572 0.461 0.2882 0.0
N2636 N 0.25627 0.41494 0.25631 0.0
N2637 N 0.21115 0.51073 0.30053 0.0
C2638 C 0.24735 0.44081 0.26378 0.0
C2639 C 0.22453 0.49008 0.28649 0.0
N2640 N 0.20379 0.43164 0.22105 0.0
N2641 N 0.27532 0.50741 0.31888 0.0
H2642 H 0.18838 0.51391 0.29287 0.0
H2643 H 0.22157 0.52315 0.32135 0.0
H2644 H 0.29811 0.50525 0.32808 0.0
H2645 H 0.27035 0.52787 0.32475 0.0
H2646 H 0.21322 0.41623 0.20892 0.0
H2647 H 0.18298 0.43598 0.20896 0.0
H2648 H 0.24187 0.39793 0.24139 0.0
H2649 H 0.27712 0.40941 0.26679 0.0
C2650 C 0.21191 0.51354 0.0643 0.0
C2651 C 0.21628 0.49398 0.03926 0.0
C2652 C 0.16731 0.50631 1.00902 0.0
C2653 C 0.16136 0.52382 0.03508 0.0
N2654 N 0.17549 0.53644 0.09067 0.0
N2655 N 0.19363 0.46871 0.98893 0.0
C2656 C 0.18317 0.52541 0.06348 0.0
C2657 C 0.19242 0.48936 0.01218 0.0
N2658 N 0.23521 0.52082 0.08947 0.0
N2659 N 0.15028 0.50711 0.98035 0.0
H2660 H 0.21212 0.45734 0.98914 0.0
H2661 H 0.17519 0.46136 0.97062 0.0
H2662 H 0.1332 0.51995 0.97647 0.0
H2663 H 0.15536 0.49757 0.9598 0.0
H2664 H 0.2356 0.53758 0.10663 0.0
H2665 H 0.25537 0.51162 0.092 0.0
H2666 H 0.18845 0.53566 0.11252 0.0
H2667 H 0.15409 0.543 0.09199 0.0
C2668 C 0.8542 0.92275 0.1883 0.0
C2669 C 0.88181 0.9425 0.20258 0.0
C2670 C 0.88048 0.91886 0.25106 0.0
C2671 C 0.85549 0.89685 0.23557 0.0
N2672 N 0.82116 0.87503 0.18815 0.0
N2673 N 0.92427 0.95712 0.24613 0.0
C2674 C 0.84279 0.89804 0.20386 0.0
C2675 C 0.89591 0.93985 0.23351 0.0
N2676 N 0.83889 0.92769 0.16008 0.0
N2677 N 0.88866 0.92038 0.28279 0.0
H2678 H 0.93608 0.97385 0.23486 0.0
H2679 H 0.93732 0.9534 0.26695 0.0
H2680 H 0.8773 0.90567 0.29665 0.0
H2681 H 0.90445 0.93787 0.29573 0.0
H2682 H 0.81676 0.91577 0.15014 0.0
H2683 H 0.8474 0.9451 0.14762 0.0
H2684 H 0.81389 0.87336 0.16412 0.0
H2685 H 0.81229 0.85642 0.19861 0.0
C2686 C 0.65653 0.09117 0.67315 0.0
C2687 C 0.62604 0.08668 0.68194 0.0
C2688 C 0.635 0.13742 0.70424 0.0
C2689 C 0.66598 0.14138 0.69672 0.0
N2690 N 0.7025 0.12618 0.66515 0.0
N2691 N 0.5826 0.10728 0.69649 0.0
C2692 C 0.67545 0.11958 0.67805 0.0
C2693 C 0.61393 0.11053 0.69405 0.0
N2694 N 0.66782 0.06798 0.66146 0.0
N2695 N 0.62645 0.15842 0.72283 0.0
H2696 H 0.56649 0.08783 0.68937 0.0
H2697 H 0.57199 0.1246 0.7027 0.0
H2698 H 0.64123 0.17851 0.73064 0.0
H2699 H 0.60552 0.15526 0.73229 0.0
H2700 H 0.69116 0.06917 0.65797 0.0
H2701 H 0.65399 0.04702 0.65679 0.0
H2702 H 0.70916 0.11194 0.64903 0.0
H2703 H 0.71667 0.14708 0.66819 0.0
loop_
_geom_bond_atom_site_label_1
_geom_bond_atom_site_label_2
_geom_bond_distance
_geom_bond_site_symmetry_2
_ccdc_geom_bond_type
C0 O1 1.306 1_655 S
C0 O3 1.160 1_655 S
O1 C0 1.306 1_455 S
O1 Cd2 2.228 . S
Cd2 O1 2.228 . S
Cd2 O6 2.273 . S
Cd2 O10 2.277 . S
O3 C0 1.160 1_455 S
O3 Cd4 2.203 . S
Cd4 O3 2.203 . S
Cd4 O6 2.411 . S
Cd4 O7 2.333 . S
Cd4 O8 2.352 . S
Cd4 O12 2.277 . S
Cd4 O13 2.356 . S
C5 O10 1.209 . S
C5 O12 1.226 . S
O6 Cd2 2.273 . S
O6 Cd4 2.411 . S
O6 C9 1.320 . S
O7 Cd4 2.333 . S
O7 C9 1.214 . S
O8 Cd4 2.352 . S
O8 C11 1.258 . S
C9 O6 1.320 . S
C9 O7 1.214 . S
O10 Cd2 2.277 . S
O10 C5 1.209 . S
C11 O8 1.258 . S
C11 O13 1.282 . S
O12 Cd4 2.277 . S
O12 C5 1.226 . S
O13 Cd4 2.356 . S
O13 C11 1.282 . S
C14 O15 1.306 1_655 S
C14 O17 1.160 1_655 S
O15 C14 1.306 1_455 S
O15 Cd16 2.228 . S
Cd16 O15 2.228 . S
Cd16 O20 2.273 . S
Cd16 O24 2.277 . S
O17 C14 1.160 1_455 S
O17 Cd18 2.203 . S
Cd18 O17 2.203 . S
Cd18 O20 2.411 . S
Cd18 O21 2.333 . S
Cd18 O22 2.352 . S
Cd18 O26 2.277 . S
Cd18 O27 2.356 . S
C19 O24 1.209 . S
C19 O26 1.226 . S
O20 Cd16 2.273 . S
O20 Cd18 2.411 . S
O20 C23 1.320 . S
O21 Cd18 2.333 . S
O21 C23 1.214 . S
O22 Cd18 2.352 . S
O22 C25 1.258 . S
C23 O20 1.320 . S
C23 O21 1.214 . S
O24 Cd16 2.277 . S
O24 C19 1.209 . S
C25 O22 1.258 . S
C25 O27 1.282 . S
O26 Cd18 2.277 . S
O26 C19 1.226 . S
O27 Cd18 2.356 . S
O27 C25 1.282 . S
C28 O29 1.306 . S
C28 O31 1.160 . S
O29 C28 1.306 . S
O29 Cd30 2.228 . S
Cd30 O29 2.228 . S
Cd30 O34 2.273 . S
Cd30 O38 2.277 . S
O31 C28 1.160 . S
O31 Cd32 2.203 . S
Cd32 O31 2.203 . S
Cd32 O34 2.411 . S
Cd32 O35 2.333 . S
Cd32 O36 2.352 . S
Cd32 O40 2.277 . S
Cd32 O41 2.356 . S
C33 O38 1.209 . S
C33 O40 1.226 . S
O34 Cd30 2.273 . S
O34 Cd32 2.411 . S
O34 C37 1.320 . S
O35 Cd32 2.333 . S
O35 C37 1.214 . S
O36 Cd32 2.352 . S
O36 C39 1.258 . S
C37 O34 1.320 . S
C37 O35 1.214 . S
O38 Cd30 2.277 . S
O38 C33 1.209 . S
C39 O36 1.258 . S
C39 O41 1.282 . S
O40 Cd32 2.277 . S
O40 C33 1.226 . S
O41 Cd32 2.356 . S
O41 C39 1.282 . S
C42 O43 1.306 . S
C42 O45 1.160 . S
O43 C42 1.306 . S
O43 Cd44 2.228 . S
Cd44 O43 2.228 . S
Cd44 O48 2.273 . S
Cd44 O52 2.277 . S
O45 C42 1.160 . S
O45 Cd46 2.203 . S
Cd46 O45 2.203 . S
Cd46 O48 2.411 . S
Cd46 O49 2.333 . S
Cd46 O50 2.352 . S
Cd46 O54 2.277 . S
Cd46 O55 2.356 . S
C47 O52 1.209 . S
C47 O54 1.226 . S
O48 Cd44 2.273 . S
O48 Cd46 2.411 . S
O48 C51 1.320 . S
O49 Cd46 2.333 . S
O49 C51 1.214 . S
O50 Cd46 2.352 . S
O50 C53 1.258 . S
C51 O48 1.320 . S
C51 O49 1.214 . S
O52 Cd44 2.277 . S
O52 C47 1.209 . S
C53 O50 1.258 . S
C53 O55 1.282 . S
O54 Cd46 2.277 . S
O54 C47 1.226 . S
O55 Cd46 2.356 . S
O55 C53 1.282 . S
C56 O57 1.306 . S
C56 O59 1.160 . S
O57 C56 1.306 . S
O57 Cd58 2.228 . S
Cd58 O57 2.228 . S
Cd58 O62 2.273 . S
Cd58 O66 2.277 . S
O59 C56 1.160 . S
O59 Cd60 2.203 . S
Cd60 O59 2.203 . S
Cd60 O62 2.411 . S
Cd60 O63 2.333 . S
Cd60 O64 2.352 . S
Cd60 O68 2.277 . S
Cd60 O69 2.356 . S
C61 O66 1.209 . S
C61 O68 1.226 . S
O62 Cd58 2.273 . S
O62 Cd60 2.411 . S
O62 C65 1.320 . S
O63 Cd60 2.333 . S
O63 C65 1.214 . S
O64 Cd60 2.352 . S
O64 C67 1.258 . S
C65 O62 1.320 . S
C65 O63 1.214 . S
O66 Cd58 2.277 . S
O66 C61 1.209 . S
C67 O64 1.258 . S
C67 O69 1.282 . S
O68 Cd60 2.277 . S
O68 C61 1.226 . S
O69 Cd60 2.356 . S
O69 C67 1.282 . S
C70 O71 1.306 . S
C70 O73 1.160 . S
O71 C70 1.306 . S
O71 Cd72 2.228 . S
Cd72 O71 2.228 . S
Cd72 O76 2.273 . S
Cd72 O80 2.277 . S
O73 C70 1.160 . S
O73 Cd74 2.203 . S
Cd74 O73 2.203 . S
Cd74 O76 2.411 . S
Cd74 O77 2.333 . S
Cd74 O78 2.352 . S
Cd74 O82 2.277 . S
Cd74 O83 2.356 . S
C75 O80 1.209 . S
C75 O82 1.226 . S
O76 Cd72 2.273 . S
O76 Cd74 2.411 . S
O76 C79 1.320 . S
O77 Cd74 2.333 . S
O77 C79 1.214 . S
O78 Cd74 2.352 . S
O78 C81 1.258 . S
C79 O76 1.320 . S
C79 O77 1.214 . S
O80 Cd72 2.277 . S
O80 C75 1.209 . S
C81 O78 1.258 . S
C81 O83 1.282 . S
O82 Cd74 2.277 . S
O82 C75 1.226 . S
O83 Cd74 2.356 . S
O83 C81 1.282 . S
C84 O85 1.306 . S
C84 O87 1.160 . S
O85 C84 1.306 . S
O85 Cd86 2.228 . S
Cd86 O85 2.228 . S
Cd86 O90 2.273 . S
Cd86 O94 2.277 . S
O87 C84 1.160 . S
O87 Cd88 2.203 . S
Cd88 O87 2.203 . S
Cd88 O90 2.411 . S
Cd88 O91 2.333 . S
Cd88 O92 2.352 . S
Cd88 O96 2.277 . S
Cd88 O97 2.356 . S
C89 O94 1.209 . S
C89 O96 1.226 . S
O90 Cd86 2.273 . S
O90 Cd88 2.411 . S
O90 C93 1.320 . S
O91 Cd88 2.333 . S
O91 C93 1.214 . S
O92 Cd88 2.352 . S
O92 C95 1.258 . S
C93 O90 1.320 . S
C93 O91 1.214 . S
O94 Cd86 2.277 . S
O94 C89 1.209 . S
C95 O92 1.258 . S
C95 O97 1.282 . S
O96 Cd88 2.277 . S
O96 C89 1.226 . S
O97 Cd88 2.356 . S
O97 C95 1.282 . S
C98 O99 1.306 . S
C98 O101 1.160 . S
O99 C98 1.306 . S
O99 Cd100 2.228 1_655 S
Cd100 O99 2.228 1_455 S
Cd100 O104 2.273 . S
Cd100 O108 2.277 . S
O101 C98 1.160 . S
O101 Cd102 2.203 1_655 S
Cd102 O101 2.203 1_455 S
Cd102 O104 2.411 . S
Cd102 O105 2.333 . S
Cd102 O106 2.352 1_455 S
Cd102 O110 2.277 . S
Cd102 O111 2.356 . S
C103 O108 1.209 . S
C103 O110 1.226 . S
O104 Cd100 2.273 . S
O104 Cd102 2.411 . S
O104 C107 1.320 . S
O105 Cd102 2.333 . S
O105 C107 1.214 . S
O106 Cd102 2.352 1_655 S
O106 C109 1.260 . S
C107 O104 1.320 . S
C107 O105 1.214 . S
O108 Cd100 2.277 . S
O108 C103 1.209 . S
C109 O106 1.260 . S
C109 O111 1.282 1_655 S
O110 Cd102 2.277 . S
O110 C103 1.226 . S
O111 Cd102 2.356 . S
O111 C109 1.282 1_455 S
C112 O113 1.306 . S
C112 O115 1.160 . S
O113 C112 1.306 . S
O113 Cd114 2.228 . S
Cd114 O113 2.228 . S
Cd114 O118 2.273 . S
Cd114 O122 2.277 . S
O115 C112 1.160 . S
O115 Cd116 2.203 . S
Cd116 O115 2.203 . S
Cd116 O118 2.411 . S
Cd116 O119 2.333 . S
Cd116 O120 2.352 . S
Cd116 O124 2.277 . S
Cd116 O125 2.356 . S
C117 O122 1.209 . S
C117 O124 1.226 . S
O118 Cd114 2.273 . S
O118 Cd116 2.411 . S
O118 C121 1.320 . S
O119 Cd116 2.333 . S
O119 C121 1.214 . S
O120 Cd116 2.352 . S
O120 C123 1.258 . S
C121 O118 1.320 . S
C121 O119 1.214 . S
O122 Cd114 2.277 . S
O122 C117 1.209 . S
C123 O120 1.258 . S
C123 O125 1.282 . S
O124 Cd116 2.277 . S
O124 C117 1.226 . S
O125 Cd116 2.356 . S
O125 C123 1.282 . S
C126 O127 1.306 . S
C126 O129 1.160 . S
O127 C126 1.306 . S
O127 Cd128 2.228 . S
Cd128 O127 2.228 . S
Cd128 O132 2.273 . S
Cd128 O136 2.277 . S
O129 C126 1.160 . S
O129 Cd130 2.203 . S
Cd130 O129 2.203 . S
Cd130 O132 2.411 . S
Cd130 O133 2.333 . S
Cd130 O134 2.352 . S
Cd130 O138 2.277 . S
Cd130 O139 2.356 . S
C131 O136 1.209 . S
C131 O138 1.226 . S
O132 Cd128 2.273 . S
O132 Cd130 2.411 . S
O132 C135 1.320 . S
O133 Cd130 2.333 . S
O133 C135 1.214 . S
O134 Cd130 2.352 . S
O134 C137 1.258 . S
C135 O132 1.320 . S
C135 O133 1.214 . S
O136 Cd128 2.277 . S
O136 C131 1.209 . S
C137 O134 1.258 . S
C137 O139 1.282 . S
O138 Cd130 2.277 . S
O138 C131 1.226 . S
O139 Cd130 2.356 . S
O139 C137 1.282 . S
C140 O141 1.306 . S
C140 O143 1.160 . S
O141 C140 1.306 . S
O141 Cd142 2.228 . S
Cd142 O141 2.228 . S
Cd142 O146 2.273 . S
Cd142 O150 2.277 . S
O143 C140 1.160 . S
O143 Cd144 2.203 . S
Cd144 O143 2.203 . S
Cd144 O146 2.411 . S
Cd144 O147 2.333 . S
Cd144 O148 2.352 . S
Cd144 O152 2.277 . S
Cd144 O153 2.356 . S
C145 O150 1.209 . S
C145 O152 1.226 . S
O146 Cd142 2.273 . S
O146 Cd144 2.411 . S
O146 C149 1.320 . S
O147 Cd144 2.333 . S
O147 C149 1.214 . S
O148 Cd144 2.352 . S
O148 C151 1.258 . S
C149 O146 1.320 . S
C149 O147 1.214 . S
O150 Cd142 2.277 . S
O150 C145 1.209 . S
C151 O148 1.258 . S
C151 O153 1.282 . S
O152 Cd144 2.277 . S
O152 C145 1.226 . S
O153 Cd144 2.356 . S
O153 C151 1.282 . S
C154 O155 1.306 . S
C154 O157 1.160 . S
O155 C154 1.306 . S
O155 Cd156 2.228 . S
Cd156 O155 2.228 . S
Cd156 O160 2.273 . S
Cd156 O164 2.277 . S
O157 C154 1.160 . S
O157 Cd158 2.203 . S
Cd158 O157 2.203 . S
Cd158 O160 2.411 . S
Cd158 O161 2.333 . S
Cd158 O162 2.352 . S
Cd158 O166 2.277 . S
Cd158 O167 2.356 . S
C159 O164 1.209 1_556 S
C159 O166 1.226 1_556 S
O160 Cd156 2.273 . S
O160 Cd158 2.411 . S
O160 C163 1.320 . S
O161 Cd158 2.333 . S
O161 C163 1.214 . S
O162 Cd158 2.352 . S
O162 C165 1.258 . S
C163 O160 1.320 . S
C163 O161 1.214 . S
O164 Cd156 2.277 . S
O164 C159 1.209 1_554 S
C165 O162 1.258 . S
C165 O167 1.282 . S
O166 Cd158 2.277 . S
O166 C159 1.226 1_554 S
O167 Cd158 2.356 . S
O167 C165 1.282 . S
C168 O169 1.306 . S
C168 O171 1.160 . S
O169 C168 1.306 . S
O169 Cd170 2.228 1_554 S
Cd170 O169 2.228 1_556 S
Cd170 O174 2.273 1_556 S
Cd170 O178 2.277 . S
O171 C168 1.160 . S
O171 Cd172 2.203 . S
Cd172 O171 2.203 . S
Cd172 O174 2.411 . S
Cd172 O175 2.333 . S
Cd172 O176 2.352 . S
Cd172 O180 2.277 1_554 S
Cd172 O181 2.356 . S
C173 O178 1.209 . S
C173 O180 1.226 . S
O174 Cd170 2.273 1_554 S
O174 Cd172 2.411 . S
O174 C177 1.320 . S
O175 Cd172 2.333 . S
O175 C177 1.214 . S
O176 Cd172 2.352 . S
O176 C179 1.258 . S
C177 O174 1.320 . S
C177 O175 1.214 . S
O178 Cd170 2.277 . S
O178 C173 1.209 . S
C179 O176 1.258 . S
C179 O181 1.282 . S
O180 Cd172 2.277 1_556 S
O180 C173 1.226 . S
O181 Cd172 2.356 . S
O181 C179 1.282 . S
C182 O183 1.306 . S
C182 O185 1.173 . S
O183 C182 1.306 . S
O183 Cd184 2.228 . S
Cd184 O183 2.228 . S
Cd184 O188 2.273 1_554 S
Cd184 O192 2.277 . S
O185 C182 1.173 . S
O185 Cd186 2.205 1_554 S
Cd186 O185 2.205 1_556 S
Cd186 O188 2.411 . S
Cd186 O189 2.333 . S
Cd186 O190 2.352 . S
Cd186 O194 2.277 1_556 S
Cd186 O195 2.356 . S
C187 O192 1.209 . S
C187 O194 1.226 . S
O188 Cd184 2.273 1_556 S
O188 Cd186 2.411 . S
O188 C191 1.320 . S
O189 Cd186 2.333 . S
O189 C191 1.214 . S
O190 Cd186 2.352 . S
O190 C193 1.258 . S
C191 O188 1.320 . S
C191 O189 1.214 . S
O192 Cd184 2.277 . S
O192 C187 1.209 . S
C193 O190 1.258 . S
C193 O195 1.282 . S
O194 Cd186 2.277 1_554 S
O194 C187 1.226 . S
O195 Cd186 2.356 . S
O195 C193 1.282 . S
C196 O197 1.306 . S
C196 O199 1.160 . S
O197 C196 1.306 . S
O197 Cd198 2.228 . S
Cd198 O197 2.228 . S
Cd198 O202 2.273 . S
Cd198 O206 2.277 . S
O199 C196 1.160 . S
O199 Cd200 2.203 . S
Cd200 O199 2.203 . S
Cd200 O202 2.411 . S
Cd200 O203 2.333 . S
Cd200 O204 2.352 . S
Cd200 O208 2.277 . S
Cd200 O209 2.356 . S
C201 O206 1.209 . S
C201 O208 1.226 . S
O202 Cd198 2.273 . S
O202 Cd200 2.411 . S
O202 C205 1.320 . S
O203 Cd200 2.333 . S
O203 C205 1.214 . S
O204 Cd200 2.352 . S
O204 C207 1.258 . S
C205 O202 1.320 . S
C205 O203 1.214 . S
O206 Cd198 2.277 . S
O206 C201 1.209 . S
C207 O204 1.258 . S
C207 O209 1.282 . S
O208 Cd200 2.277 . S
O208 C201 1.226 . S
O209 Cd200 2.356 . S
O209 C207 1.282 . S
C210 O211 1.306 . S
C210 O213 1.160 . S
O211 C210 1.306 . S
O211 Cd212 2.228 . S
Cd212 O211 2.228 . S
Cd212 O216 2.273 . S
Cd212 O220 2.277 . S
O213 C210 1.160 . S
O213 Cd214 2.203 . S
Cd214 O213 2.203 . S
Cd214 O216 2.411 . S
Cd214 O217 2.333 . S
Cd214 O218 2.352 . S
Cd214 O222 2.277 . S
Cd214 O223 2.356 . S
C215 O220 1.209 . S
C215 O222 1.226 . S
O216 Cd212 2.273 . S
O216 Cd214 2.411 . S
O216 C219 1.320 . S
O217 Cd214 2.333 . S
O217 C219 1.214 . S
O218 Cd214 2.352 . S
O218 C221 1.258 . S
C219 O216 1.320 . S
C219 O217 1.214 . S
O220 Cd212 2.277 . S
O220 C215 1.209 . S
C221 O218 1.258 . S
C221 O223 1.282 . S
O222 Cd214 2.277 . S
O222 C215 1.226 . S
O223 Cd214 2.356 . S
O223 C221 1.282 . S
C224 O225 1.306 1_545 S
C224 O227 1.160 . S
O225 C224 1.306 1_565 S
O225 Cd226 2.228 . S
Cd226 O225 2.228 . S
Cd226 O230 2.273 1_565 S
Cd226 O234 2.277 . S
O227 C224 1.160 . S
O227 Cd228 2.203 . S
Cd228 O227 2.203 . S
Cd228 O230 2.411 . S
Cd228 O231 2.333 . S
Cd228 O232 2.352 . S
Cd228 O236 2.277 1_545 S
Cd228 O237 2.356 . S
C229 O234 1.209 . S
C229 O236 1.226 . S
O230 Cd226 2.273 1_545 S
O230 Cd228 2.411 . S
O230 C233 1.320 . S
O231 Cd228 2.333 . S
O231 C233 1.214 . S
O232 Cd228 2.352 . S
O232 C235 1.258 . S
C233 O230 1.320 . S
C233 O231 1.214 . S
O234 Cd226 2.277 . S
O234 C229 1.209 . S
C235 O232 1.258 . S
C235 O237 1.282 . S
O236 Cd228 2.277 1_565 S
O236 C229 1.226 . S
O237 Cd228 2.356 . S
O237 C235 1.282 . S
C238 O239 1.306 . S
C238 O241 1.160 . S
O239 C238 1.306 . S
O239 Cd240 2.228 . S
Cd240 O239 2.228 . S
Cd240 O244 2.273 . S
Cd240 O248 2.277 . S
O241 C238 1.160 . S
O241 Cd242 2.203 . S
Cd242 O241 2.203 . S
Cd242 O244 2.411 . S
Cd242 O245 2.333 . S
Cd242 O246 2.352 . S
Cd242 O250 2.277 . S
Cd242 O251 2.356 . S
C243 O248 1.209 . S
C243 O250 1.226 . S
O244 Cd240 2.273 . S
O244 Cd242 2.411 . S
O244 C247 1.320 . S
O245 Cd242 2.333 . S
O245 C247 1.214 . S
O246 Cd242 2.352 . S
O246 C249 1.258 . S
C247 O244 1.320 . S
C247 O245 1.214 . S
O248 Cd240 2.277 . S
O248 C243 1.209 . S
C249 O246 1.258 . S
C249 O251 1.282 . S
O250 Cd242 2.277 . S
O250 C243 1.226 . S
O251 Cd242 2.356 . S
O251 C249 1.282 . S
C252 O253 1.306 . S
C252 O255 1.160 . S
O253 C252 1.306 . S
O253 Cd254 2.228 . S
Cd254 O253 2.228 . S
Cd254 O258 2.273 . S
Cd254 O262 2.277 . S
O255 C252 1.160 . S
O255 Cd256 2.203 . S
Cd256 O255 2.203 . S
Cd256 O258 2.411 . S
Cd256 O259 2.333 . S
Cd256 O260 2.352 . S
Cd256 O264 2.277 . S
Cd256 O265 2.356 . S
C257 O262 1.209 . S
C257 O264 1.226 . S
O258 Cd254 2.273 . S
O258 Cd256 2.411 . S
O258 C261 1.320 . S
O259 Cd256 2.333 . S
O259 C261 1.214 . S
O260 Cd256 2.352 . S
O260 C263 1.258 . S
C261 O258 1.320 . S
C261 O259 1.214 . S
O262 Cd254 2.277 . S
O262 C257 1.209 . S
C263 O260 1.258 . S
C263 O265 1.282 . S
O264 Cd256 2.277 . S
O264 C257 1.226 . S
O265 Cd256 2.356 . S
O265 C263 1.282 . S
C266 O267 1.306 . S
C266 O269 1.160 . S
O267 C266 1.306 . S
O267 Cd268 2.228 . S
Cd268 O267 2.228 . S
Cd268 O272 2.273 . S
Cd268 O276 2.277 . S
O269 C266 1.160 . S
O269 Cd270 2.203 . S
Cd270 O269 2.203 . S
Cd270 O272 2.411 . S
Cd270 O273 2.333 . S
Cd270 O274 2.352 1_545 S
Cd270 O278 2.277 . S
Cd270 O279 2.356 1_545 S
C271 O276 1.209 . S
C271 O278 1.226 . S
O272 Cd268 2.273 . S
O272 Cd270 2.411 . S
O272 C275 1.320 . S
O273 Cd270 2.333 . S
O273 C275 1.214 . S
O274 Cd270 2.352 1_565 S
O274 C277 1.258 . S
C275 O272 1.320 . S
C275 O273 1.214 . S
O276 Cd268 2.277 . S
O276 C271 1.209 . S
C277 O274 1.258 . S
C277 O279 1.282 . S
O278 Cd270 2.277 . S
O278 C271 1.226 . S
O279 Cd270 2.356 1_565 S
O279 C277 1.282 . S
C280 O281 1.306 . S
C280 O283 1.160 . S
O281 C280 1.306 . S
O281 Cd282 2.228 . S
Cd282 O281 2.228 . S
Cd282 O286 2.273 . S
Cd282 O290 2.277 . S
O283 C280 1.160 . S
O283 Cd284 2.203 . S
Cd284 O283 2.203 . S
Cd284 O286 2.411 . S
Cd284 O287 2.333 . S
Cd284 O288 2.352 1_554 S
Cd284 O292 2.277 . S
Cd284 O293 2.356 1_554 S
C285 O290 1.209 . S
C285 O292 1.226 . S
O286 Cd282 2.273 . S
O286 Cd284 2.411 . S
O286 C289 1.320 . S
O287 Cd284 2.333 . S
O287 C289 1.214 . S
O288 Cd284 2.352 1_556 S
O288 C291 1.258 . S
C289 O286 1.320 . S
C289 O287 1.214 . S
O290 Cd282 2.277 . S
O290 C285 1.209 . S
C291 O288 1.258 . S
C291 O293 1.282 . S
O292 Cd284 2.277 . S
O292 C285 1.226 . S
O293 Cd284 2.356 1_556 S
O293 C291 1.282 . S
C294 O295 1.306 . S
C294 O297 1.160 . S
O295 C294 1.306 . S
O295 Cd296 2.228 . S
Cd296 O295 2.228 . S
Cd296 O300 2.273 . S
Cd296 O304 2.273 1_455 S
O297 C294 1.160 . S
O297 Cd298 2.203 1_455 S
Cd298 O297 2.203 1_655 S
Cd298 O300 2.411 1_655 S
Cd298 O301 2.333 . S
Cd298 O302 2.352 1_655 S
Cd298 O306 2.277 . S
Cd298 O307 2.356 . S
C299 O304 1.212 . S
C299 O306 1.226 . S
O300 Cd296 2.273 . S
O300 Cd298 2.411 1_455 S
O300 C303 1.320 . S
O301 Cd298 2.333 . S
O301 C303 1.214 1_655 S
O302 Cd298 2.352 1_455 S
O302 C305 1.258 1_455 S
C303 O300 1.320 . S
C303 O301 1.214 1_455 S
O304 Cd296 2.273 1_655 S
O304 C299 1.212 . S
C305 O302 1.258 1_655 S
C305 O307 1.282 . S
O306 Cd298 2.277 . S
O306 C299 1.226 . S
O307 Cd298 2.356 . S
O307 C305 1.282 . S
C308 O309 1.306 . S
C308 O311 1.160 . S
O309 C308 1.306 . S
O309 Cd310 2.228 . S
Cd310 O309 2.228 . S
Cd310 O314 2.273 . S
Cd310 O318 2.277 . S
O311 C308 1.160 . S
O311 Cd312 2.203 . S
Cd312 O311 2.203 . S
Cd312 O314 2.411 . S
Cd312 O315 2.333 . S
Cd312 O316 2.352 . S
Cd312 O320 2.277 . S
Cd312 O321 2.356 . S
C313 O318 1.209 . S
C313 O320 1.226 . S
O314 Cd310 2.273 . S
O314 Cd312 2.411 . S
O314 C317 1.320 . S
O315 Cd312 2.333 . S
O315 C317 1.214 . S
O316 Cd312 2.352 . S
O316 C319 1.258 . S
C317 O314 1.320 . S
C317 O315 1.214 . S
O318 Cd310 2.277 . S
O318 C313 1.209 . S
C319 O316 1.258 . S
C319 O321 1.282 . S
O320 Cd312 2.277 . S
O320 C313 1.226 . S
O321 Cd312 2.356 . S
O321 C319 1.282 . S
C322 O323 1.306 . S
C322 O325 1.160 . S
O323 C322 1.306 . S
O323 Cd324 2.228 . S
Cd324 O323 2.228 . S
Cd324 O328 2.273 . S
Cd324 O332 2.277 . S
O325 C322 1.160 . S
O325 Cd326 2.203 . S
Cd326 O325 2.203 . S
Cd326 O328 2.411 . S
Cd326 O329 2.333 . S
Cd326 O330 2.352 . S
Cd326 O334 2.277 . S
Cd326 O335 2.356 . S
C327 O332 1.209 . S
C327 O334 1.226 . S
O328 Cd324 2.273 . S
O328 Cd326 2.411 . S
O328 C331 1.320 . S
O329 Cd326 2.333 . S
O329 C331 1.214 . S
O330 Cd326 2.352 . S
O330 C333 1.258 . S
C331 O328 1.320 . S
C331 O329 1.214 . S
O332 Cd324 2.277 . S
O332 C327 1.209 . S
C333 O330 1.258 . S
C333 O335 1.282 . S
O334 Cd326 2.277 . S
O334 C327 1.226 . S
O335 Cd326 2.356 . S
O335 C333 1.282 . S
Tb336 C346 2.825 1_454 S
Tb336 O347 2.347 . S
Tb336 O350 2.366 . S
Tb336 O355 2.418 1_554 S
Tb336 O356 2.384 . S
Tb336 O359 2.479 1_454 S
Tb336 O360 2.471 1_455 S
Eu337 O348 2.418 . S
Eu337 O349 2.384 . S
Eu337 O352 2.479 . S
Eu337 O353 2.471 . S
Eu337 O354 2.347 . S
Eu337 O357 2.366 . S
Eu337 C367 2.825 . S
C338 O354 1.259 1_556 S
C338 O355 1.265 . S
C339 O356 1.262 . S
C339 O357 1.279 . S
C340 C342 1.380 . S
C340 C343 1.374 . S
C340 C346 1.507 . S
C341 C342 1.384 . S
C341 C345 1.387 . S
C341 H368 0.930 . S
C342 C340 1.380 . S
C342 C341 1.384 . S
C342 H369 0.931 . S
C343 C340 1.374 . S
C343 C344 1.390 . S
C343 H370 0.930 1_556 S
C344 C343 1.390 . S
C344 C345 1.391 . S
C344 H371 0.930 . S
C345 C341 1.387 . S
C345 C344 1.391 . S
C346 Tb336 2.825 1_656 S
C346 C340 1.507 . S
C346 O359 1.238 . S
C346 O360 1.247 1_556 S
O347 Tb336 2.347 . S
O347 C351 1.259 . S
O348 Eu337 2.418 . S
O348 C351 1.265 . S
O349 Eu337 2.384 . S
O349 C358 1.255 . S
O350 Tb336 2.366 . S
O350 C358 1.265 . S
C351 O347 1.259 . S
C351 O348 1.265 . S
O352 Eu337 2.479 . S
O352 C367 1.238 . S
O353 Eu337 2.471 . S
O353 C367 1.247 . S
O354 Eu337 2.347 . S
O354 C338 1.259 1_554 S
O355 Tb336 2.418 1_556 S
O355 C338 1.265 . S
O356 Tb336 2.384 . S
O356 C339 1.262 . S
O357 Eu337 2.366 . S
O357 C339 1.279 . S
C358 O349 1.255 . S
C358 O350 1.265 . S
O359 Tb336 2.479 1_656 S
O359 C346 1.238 . S
O360 Tb336 2.471 1_655 S
O360 C346 1.247 1_554 S
C361 C364 1.380 . S
C361 C365 1.374 . S
C361 C367 1.507 . S
C362 C363 1.387 . S
C362 C366 1.391 . S
C363 C362 1.387 . S
C363 C364 1.384 . S
C363 H372 0.930 . S
C364 C361 1.380 . S
C364 C363 1.384 . S
C364 H373 0.931 . S
C365 C361 1.374 . S
C365 C366 1.390 . S
C365 H374 0.930 . S
C366 C362 1.391 . S
C366 C365 1.390 . S
C366 H375 0.930 . S
C367 Eu337 2.825 . S
C367 O352 1.238 . S
C367 O353 1.247 . S
C367 C361 1.507 . S
H368 C341 0.930 . S
H369 C342 0.931 . S
H370 C343 0.930 1_554 S
H371 C344 0.930 . S
H372 C363 0.930 . S
H373 C364 0.931 . S
H374 C365 0.930 . S
H375 C366 0.930 . S
Tb376 C386 2.825 . S
Tb376 O387 2.347 . S
Tb376 O390 2.366 . S
Tb376 O395 2.418 . S
Tb376 O396 2.384 . S
Tb376 O399 2.479 . S
Tb376 O400 2.471 . S
Eu377 O388 2.418 . S
Eu377 O389 2.384 . S
Eu377 O392 2.479 . S
Eu377 O393 2.471 . S
Eu377 O394 2.347 . S
Eu377 O397 2.366 . S
Eu377 C407 2.825 . S
C378 O394 1.259 . S
C378 O395 1.265 . S
C379 O396 1.255 . S
C379 O397 1.265 . S
C380 C382 1.380 . S
C380 C383 1.374 . S
C380 C386 1.507 . S
C381 C382 1.384 . S
C381 C385 1.387 . S
C381 H408 0.930 . S
C382 C380 1.380 . S
C382 C381 1.384 . S
C382 H409 0.931 . S
C383 C380 1.374 . S
C383 C384 1.390 . S
C383 H410 0.930 . S
C384 C383 1.390 . S
C384 C385 1.391 . S
C384 H411 0.930 . S
C385 C381 1.387 . S
C385 C384 1.391 . S
C386 Tb376 2.825 . S
C386 C380 1.507 . S
C386 O399 1.238 . S
C386 O400 1.247 . S
O387 Tb376 2.347 . S
O387 C391 1.259 . S
O388 Eu377 2.418 . S
O388 C391 1.265 . S
O389 Eu377 2.384 . S
O389 C398 1.255 . S
O390 Tb376 2.366 . S
O390 C398 1.265 . S
C391 O387 1.259 . S
C391 O388 1.265 . S
O392 Eu377 2.479 . S
O392 C407 1.238 . S
O393 Eu377 2.471 . S
O393 C407 1.247 . S
O394 Eu377 2.347 . S
O394 C378 1.259 . S
O395 Tb376 2.418 . S
O395 C378 1.265 . S
O396 Tb376 2.384 . S
O396 C379 1.255 . S
O397 Eu377 2.366 . S
O397 C379 1.265 . S
C398 O389 1.255 . S
C398 O390 1.265 . S
O399 Tb376 2.479 . S
O399 C386 1.238 . S
O400 Tb376 2.471 . S
O400 C386 1.247 . S
C401 C404 1.380 . S
C401 C405 1.374 . S
C401 C407 1.507 . S
C402 C403 1.387 . S
C402 C406 1.391 . S
C403 C402 1.387 . S
C403 C404 1.384 . S
C403 H412 0.930 . S
C404 C401 1.380 . S
C404 C403 1.384 . S
C404 H413 0.931 . S
C405 C401 1.374 . S
C405 C406 1.390 . S
C405 H414 0.930 . S
C406 C402 1.391 . S
C406 C405 1.390 . S
C406 H415 0.930 . S
C407 Eu377 2.825 . S
C407 O392 1.238 . S
C407 O393 1.247 . S
C407 C401 1.507 . S
H408 C381 0.930 . S
H409 C382 0.931 . S
H410 C383 0.930 . S
H411 C384 0.930 . S
H412 C403 0.930 . S
H413 C404 0.931 . S
H414 C405 0.930 . S
H415 C406 0.930 . S
Tb416 C426 2.825 1_545 S
Tb416 O427 2.347 . S
Tb416 O430 2.366 . S
Tb416 O435 2.418 . S
Tb416 O436 2.384 . S
Tb416 O439 2.479 1_545 S
Tb416 O440 2.471 1_545 S
Eu417 O428 2.418 . S
Eu417 O429 2.384 . S
Eu417 O432 2.479 . S
Eu417 O433 2.471 . S
Eu417 O434 2.347 . S
Eu417 O437 2.366 . S
Eu417 C447 2.825 . S
C418 O434 1.259 . S
C418 O435 1.265 . S
C419 O436 1.255 . S
C419 O437 1.265 . S
C420 C422 1.380 . S
C420 C423 1.374 . S
C420 C426 1.507 . S
C421 C422 1.384 . S
C421 C425 1.387 . S
C421 H448 0.930 . S
C422 C420 1.380 . S
C422 C421 1.384 . S
C422 H449 0.931 . S
C423 C420 1.374 . S
C423 C424 1.390 . S
C423 H450 0.930 . S
C424 C423 1.390 . S
C424 C425 1.391 . S
C424 H451 0.930 . S
C425 C421 1.387 . S
C425 C424 1.391 . S
C426 Tb416 2.825 1_565 S
C426 C420 1.507 . S
C426 O439 1.238 . S
C426 O440 1.247 . S
O427 Tb416 2.347 . S
O427 C431 1.259 . S
O428 Eu417 2.418 . S
O428 C431 1.265 . S
O429 Eu417 2.384 . S
O429 C438 1.255 . S
O430 Tb416 2.366 . S
O430 C438 1.265 . S
C431 O427 1.259 . S
C431 O428 1.265 . S
O432 Eu417 2.479 . S
O432 C447 1.238 . S
O433 Eu417 2.471 . S
O433 C447 1.247 . S
O434 Eu417 2.347 . S
O434 C418 1.259 . S
O435 Tb416 2.418 . S
O435 C418 1.265 . S
O436 Tb416 2.384 . S
O436 C419 1.255 . S
O437 Eu417 2.366 . S
O437 C419 1.265 . S
C438 O429 1.255 . S
C438 O430 1.265 . S
O439 Tb416 2.479 1_565 S
O439 C426 1.238 . S
O440 Tb416 2.471 1_565 S
O440 C426 1.247 . S
C441 C444 1.380 . S
C441 C445 1.374 . S
C441 C447 1.507 . S
C442 C443 1.387 . S
C442 C446 1.391 . S
C443 C442 1.387 . S
C443 C444 1.384 . S
C443 H452 0.930 . S
C444 C441 1.380 . S
C444 C443 1.384 . S
C444 H453 0.931 . S
C445 C441 1.374 . S
C445 C446 1.390 . S
C445 H454 0.930 . S
C446 C442 1.391 . S
C446 C445 1.390 . S
C446 H455 0.930 . S
C447 Eu417 2.825 . S
C447 O432 1.238 . S
C447 O433 1.247 . S
C447 C441 1.507 . S
H448 C421 0.930 . S
H449 C422 0.931 . S
H450 C423 0.930 . S
H451 C424 0.930 . S
H452 C443 0.930 . S
H453 C444 0.931 . S
H454 C445 0.930 . S
H455 C446 0.930 . S
Tb456 C466 2.825 . S
Tb456 O467 2.347 . S
Tb456 O470 2.366 . S
Tb456 O475 2.418 . S
Tb456 O476 2.384 . S
Tb456 O479 2.479 . S
Tb456 O480 2.471 . S
Eu457 O468 2.418 . S
Eu457 O469 2.384 . S
Eu457 O472 2.479 . S
Eu457 O473 2.471 . S
Eu457 O474 2.347 . S
Eu457 O477 2.366 . S
Eu457 C487 2.825 . S
C458 O474 1.259 . S
C458 O475 1.265 . S
C459 O476 1.255 . S
C459 O477 1.265 . S
C460 C462 1.380 . S
C460 C463 1.374 . S
C460 C466 1.507 . S
C461 C462 1.384 . S
C461 C465 1.387 . S
C461 H488 0.930 . S
C462 C460 1.380 . S
C462 C461 1.384 . S
C462 H489 0.931 . S
C463 C460 1.374 . S
C463 C464 1.390 . S
C463 H490 0.930 . S
C464 C463 1.390 . S
C464 C465 1.391 . S
C464 H491 0.930 . S
C465 C461 1.387 . S
C465 C464 1.391 . S
C466 Tb456 2.825 . S
C466 C460 1.507 . S
C466 O479 1.238 . S
C466 O480 1.247 . S
O467 Tb456 2.347 . S
O467 C471 1.259 . S
O468 Eu457 2.418 . S
O468 C471 1.265 . S
O469 Eu457 2.384 . S
O469 C478 1.255 . S
O470 Tb456 2.366 . S
O470 C478 1.265 . S
C471 O467 1.259 . S
C471 O468 1.265 . S
O472 Eu457 2.479 . S
O472 C487 1.238 . S
O473 Eu457 2.471 . S
O473 C487 1.247 . S
O474 Eu457 2.347 . S
O474 C458 1.259 . S
O475 Tb456 2.418 . S
O475 C458 1.265 . S
O476 Tb456 2.384 . S
O476 C459 1.255 . S
O477 Eu457 2.366 . S
O477 C459 1.265 . S
C478 O469 1.255 . S
C478 O470 1.265 . S
O479 Tb456 2.479 . S
O479 C466 1.238 . S
O480 Tb456 2.471 . S
O480 C466 1.247 . S
C481 C484 1.380 . S
C481 C485 1.374 . S
C481 C487 1.507 . S
C482 C483 1.387 . S
C482 C486 1.391 . S
C483 C482 1.387 . S
C483 C484 1.384 . S
C483 H492 0.930 . S
C484 C481 1.380 . S
C484 C483 1.384 . S
C484 H493 0.931 . S
C485 C481 1.374 . S
C485 C486 1.390 . S
C485 H494 0.930 . S
C486 C482 1.391 . S
C486 C485 1.390 . S
C486 H495 0.930 . S
C487 Eu457 2.825 . S
C487 O472 1.238 . S
C487 O473 1.247 . S
C487 C481 1.507 . S
H488 C461 0.930 . S
H489 C462 0.931 . S
H490 C463 0.930 . S
H491 C464 0.930 . S
H492 C483 0.930 . S
H493 C484 0.931 . S
H494 C485 0.930 . S
H495 C486 0.930 . S
Tb496 C506 2.825 . S
Tb496 O507 2.347 . S
Tb496 O510 2.366 . S
Tb496 O515 2.418 . S
Tb496 O516 2.384 . S
Tb496 O519 2.479 . S
Tb496 O520 2.471 . S
Eu497 O508 2.418 . S
Eu497 O509 2.384 . S
Eu497 O512 2.479 . S
Eu497 O513 2.471 . S
Eu497 O514 2.347 . S
Eu497 O517 2.366 . S
Eu497 C527 2.825 . S
C498 O514 1.259 . S
C498 O515 1.265 . S
C499 O516 1.255 . S
C499 O517 1.265 . S
C500 C502 1.380 . S
C500 C503 1.374 1_455 S
C500 C506 1.507 . S
C501 C502 1.384 . S
C501 C505 1.387 1_455 S
C501 H528 0.930 . S
C502 C500 1.380 . S
C502 C501 1.384 . S
C502 H529 0.931 . S
C503 C500 1.374 1_655 S
C503 C504 1.390 . S
C503 H530 0.930 . S
C504 C503 1.390 . S
C504 C505 1.391 . S
C504 H531 0.930 . S
C505 C501 1.387 1_655 S
C505 C504 1.391 . S
C506 Tb496 2.825 . S
C506 C500 1.507 . S
C506 O519 1.238 . S
C506 O520 1.247 . S
O507 Tb496 2.347 . S
O507 C511 1.259 1_455 S
O508 Eu497 2.418 . S
O508 C511 1.265 1_455 S
O509 Eu497 2.384 . S
O509 C518 1.255 . S
O510 Tb496 2.366 . S
O510 C518 1.265 . S
C511 O507 1.259 1_655 S
C511 O508 1.265 1_655 S
O512 Eu497 2.479 . S
O512 C527 1.238 . S
O513 Eu497 2.471 . S
O513 C527 1.247 . S
O514 Eu497 2.347 . S
O514 C498 1.259 . S
O515 Tb496 2.418 . S
O515 C498 1.265 . S
O516 Tb496 2.384 . S
O516 C499 1.255 . S
O517 Eu497 2.366 . S
O517 C499 1.265 . S
C518 O509 1.255 . S
C518 O510 1.265 . S
O519 Tb496 2.479 . S
O519 C506 1.238 . S
O520 Tb496 2.471 . S
O520 C506 1.247 . S
C521 C524 1.380 . S
C521 C525 1.374 . S
C521 C527 1.507 . S
C522 C523 1.387 . S
C522 C526 1.391 . S
C523 C522 1.387 . S
C523 C524 1.384 . S
C523 H532 0.930 . S
C524 C521 1.380 . S
C524 C523 1.384 . S
C524 H533 0.931 . S
C525 C521 1.374 . S
C525 C526 1.390 . S
C525 H534 0.930 . S
C526 C522 1.391 . S
C526 C525 1.390 . S
C526 H535 0.930 . S
C527 Eu497 2.825 . S
C527 O512 1.238 . S
C527 O513 1.247 . S
C527 C521 1.507 . S
H528 C501 0.930 . S
H529 C502 0.931 . S
H530 C503 0.930 . S
H531 C504 0.930 . S
H532 C523 0.930 . S
H533 C524 0.931 . S
H534 C525 0.930 . S
H535 C526 0.930 . S
Tb536 C546 2.825 . S
Tb536 O547 2.347 . S
Tb536 O550 2.366 . S
Tb536 O555 2.418 . S
Tb536 O556 2.384 . S
Tb536 O559 2.479 . S
Tb536 O560 2.471 . S
Eu537 O548 2.418 . S
Eu537 O549 2.384 . S
Eu537 O552 2.479 . S
Eu537 O553 2.471 . S
Eu537 O554 2.347 . S
Eu537 O557 2.366 . S
Eu537 C567 2.825 . S
C538 O554 1.259 . S
C538 O555 1.265 . S
C539 O556 1.255 . S
C539 O557 1.265 . S
C540 C542 1.380 . S
C540 C543 1.374 . S
C540 C546 1.507 . S
C541 C542 1.384 . S
C541 C545 1.387 . S
C541 H568 0.930 . S
C542 C540 1.380 . S
C542 C541 1.384 . S
C542 H569 0.931 . S
C543 C540 1.374 . S
C543 C544 1.390 . S
C543 H570 0.930 . S
C544 C543 1.390 . S
C544 C545 1.391 . S
C544 H571 0.930 . S
C545 C541 1.387 . S
C545 C544 1.391 . S
C546 Tb536 2.825 . S
C546 C540 1.507 . S
C546 O559 1.238 . S
C546 O560 1.247 . S
O547 Tb536 2.347 . S
O547 C551 1.259 . S
O548 Eu537 2.418 . S
O548 C551 1.265 . S
O549 Eu537 2.384 . S
O549 C558 1.255 . S
O550 Tb536 2.366 . S
O550 C558 1.265 . S
C551 O547 1.259 . S
C551 O548 1.265 . S
O552 Eu537 2.479 . S
O552 C567 1.238 . S
O553 Eu537 2.471 . S
O553 C567 1.247 . S
O554 Eu537 2.347 . S
O554 C538 1.259 . S
O555 Tb536 2.418 . S
O555 C538 1.265 . S
O556 Tb536 2.384 . S
O556 C539 1.255 . S
O557 Eu537 2.366 . S
O557 C539 1.265 . S
C558 O549 1.255 . S
C558 O550 1.265 . S
O559 Tb536 2.479 . S
O559 C546 1.238 . S
O560 Tb536 2.471 . S
O560 C546 1.247 . S
C561 C564 1.380 . S
C561 C565 1.374 . S
C561 C567 1.507 . S
C562 C563 1.387 . S
C562 C566 1.391 . S
C563 C562 1.387 . S
C563 C564 1.384 . S
C563 H572 0.930 . S
C564 C561 1.380 . S
C564 C563 1.384 . S
C564 H573 0.931 . S
C565 C561 1.374 . S
C565 C566 1.390 . S
C565 H574 0.930 . S
C566 C562 1.391 . S
C566 C565 1.390 . S
C566 H575 0.930 . S
C567 Eu537 2.825 . S
C567 O552 1.238 . S
C567 O553 1.247 . S
C567 C561 1.507 . S
H568 C541 0.930 . S
H569 C542 0.931 . S
H570 C543 0.930 . S
H571 C544 0.930 . S
H572 C563 0.930 . S
H573 C564 0.931 . S
H574 C565 0.930 . S
H575 C566 0.930 . S
Tb576 C586 2.825 . S
Tb576 O587 2.347 . S
Tb576 O590 2.366 . S
Tb576 O595 2.427 . S
Tb576 O596 2.384 . S
Tb576 O599 2.479 . S
Tb576 O600 2.471 . S
Eu577 O588 2.418 1_556 S
Eu577 O589 2.384 1_556 S
Eu577 O592 2.479 . S
Eu577 O593 2.471 . S
Eu577 O594 2.347 1_556 S
Eu577 O597 2.366 . S
Eu577 C607 2.825 . S
C578 O594 1.276 . S
C578 O595 1.263 . S
C579 O596 1.255 . S
C579 O597 1.265 1_554 S
C580 C582 1.380 . S
C580 C583 1.374 . S
C580 C586 1.507 . S
C581 C582 1.384 . S
C581 C585 1.387 . S
C581 H608 0.930 1_545 S
C582 C580 1.380 . S
C582 C581 1.384 . S
C582 H609 0.931 . S
C583 C580 1.374 . S
C583 C584 1.390 . S
C583 H610 0.930 . S
C584 C583 1.390 . S
C584 C585 1.391 . S
C584 H611 0.930 . S
C585 C581 1.387 . S
C585 C584 1.391 . S
C586 Tb576 2.825 . S
C586 C580 1.507 . S
C586 O599 1.238 . S
C586 O600 1.247 . S
O587 Tb576 2.347 . S
O587 C591 1.259 . S
O588 Eu577 2.418 1_554 S
O588 C591 1.265 . S
O589 Eu577 2.384 1_554 S
O589 C598 1.255 . S
O590 Tb576 2.366 . S
O590 C598 1.265 . S
C591 O587 1.259 . S
C591 O588 1.265 . S
O592 Eu577 2.479 . S
O592 C607 1.238 . S
O593 Eu577 2.471 . S
O593 C607 1.247 . S
O594 Eu577 2.347 1_554 S
O594 C578 1.276 . S
O595 Tb576 2.427 . S
O595 C578 1.263 . S
O596 Tb576 2.384 . S
O596 C579 1.255 . S
O597 Eu577 2.366 . S
O597 C579 1.265 1_556 S
C598 O589 1.255 . S
C598 O590 1.265 . S
O599 Tb576 2.479 . S
O599 C586 1.238 . S
O600 Tb576 2.471 . S
O600 C586 1.247 . S
C601 C604 1.380 . S
C601 C605 1.374 . S
C601 C607 1.507 . S
C602 C603 1.387 . S
C602 C606 1.391 . S
C603 C602 1.387 . S
C603 C604 1.384 . S
C603 H612 0.930 . S
C604 C601 1.380 . S
C604 C603 1.384 . S
C604 H613 0.931 . S
C605 C601 1.374 . S
C605 C606 1.390 . S
C605 H614 0.930 . S
C606 C602 1.391 . S
C606 C605 1.390 . S
C606 H615 0.930 . S
C607 Eu577 2.825 . S
C607 O592 1.238 . S
C607 O593 1.247 . S
C607 C601 1.507 . S
H608 C581 0.930 1_565 S
H609 C582 0.931 . S
H610 C583 0.930 . S
H611 C584 0.930 . S
H612 C603 0.930 . S
H613 C604 0.931 . S
H614 C605 0.930 . S
H615 C606 0.930 . S
Tb616 C626 2.825 . S
Tb616 O627 2.347 . S
Tb616 O630 2.366 . S
Tb616 O635 2.418 . S
Tb616 O636 2.384 . S
Tb616 O639 2.479 . S
Tb616 O640 2.471 . S
Eu617 O628 2.418 . S
Eu617 O629 2.384 . S
Eu617 O632 2.479 . S
Eu617 O633 2.471 . S
Eu617 O634 2.347 . S
Eu617 O637 2.366 . S
Eu617 C647 2.825 . S
C618 O634 1.259 . S
C618 O635 1.265 . S
C619 O636 1.255 . S
C619 O637 1.265 . S
C620 C622 1.380 . S
C620 C623 1.374 . S
C620 C626 1.507 . S
C621 C622 1.384 . S
C621 C625 1.387 . S
C621 H648 0.930 . S
C622 C620 1.380 . S
C622 C621 1.384 . S
C622 H649 0.931 . S
C623 C620 1.374 . S
C623 C624 1.390 . S
C623 H650 0.930 . S
C624 C623 1.390 . S
C624 C625 1.391 . S
C624 H651 0.930 . S
C625 C621 1.387 . S
C625 C624 1.391 . S
C626 Tb616 2.825 . S
C626 C620 1.507 . S
C626 O639 1.238 . S
C626 O640 1.247 . S
O627 Tb616 2.347 . S
O627 C631 1.259 . S
O628 Eu617 2.418 . S
O628 C631 1.265 . S
O629 Eu617 2.384 . S
O629 C638 1.255 . S
O630 Tb616 2.366 . S
O630 C638 1.265 . S
C631 O627 1.259 . S
C631 O628 1.265 . S
O632 Eu617 2.479 . S
O632 C647 1.238 . S
O633 Eu617 2.471 . S
O633 C647 1.247 . S
O634 Eu617 2.347 . S
O634 C618 1.259 . S
O635 Tb616 2.418 . S
O635 C618 1.265 . S
O636 Tb616 2.384 . S
O636 C619 1.255 . S
O637 Eu617 2.366 . S
O637 C619 1.265 . S
C638 O629 1.255 . S
C638 O630 1.265 . S
O639 Tb616 2.479 . S
O639 C626 1.238 . S
O640 Tb616 2.471 . S
O640 C626 1.247 . S
C641 C644 1.380 . S
C641 C645 1.374 . S
C641 C647 1.507 . S
C642 C643 1.387 . S
C642 C646 1.391 . S
C643 C642 1.387 . S
C643 C644 1.384 . S
C643 H652 0.930 . S
C644 C641 1.380 . S
C644 C643 1.384 . S
C644 H653 0.931 . S
C645 C641 1.374 . S
C645 C646 1.390 . S
C645 H654 0.930 . S
C646 C642 1.391 . S
C646 C645 1.390 . S
C646 H655 0.930 . S
C647 Eu617 2.825 . S
C647 O632 1.238 . S
C647 O633 1.247 . S
C647 C641 1.507 . S
H648 C621 0.930 . S
H649 C622 0.931 . S
H650 C623 0.930 . S
H651 C624 0.930 . S
H652 C643 0.930 . S
H653 C644 0.931 . S
H654 C645 0.930 . S
H655 C646 0.930 . S
Tb656 C666 2.825 . S
Tb656 O667 2.347 1_556 S
Tb656 O670 2.366 . S
Tb656 O675 2.418 . S
Tb656 O676 2.384 1_556 S
Tb656 O679 2.479 . S
Tb656 O680 2.471 . S
Eu657 O668 2.418 . S
Eu657 O669 2.384 . S
Eu657 O672 2.479 . S
Eu657 O673 2.471 . S
Eu657 O674 2.347 . S
Eu657 O677 2.366 . S
Eu657 C687 2.825 . S
C658 O674 1.259 . S
C658 O675 1.265 1_554 S
C659 O676 1.255 . S
C659 O677 1.265 . S
C660 C662 1.380 . S
C660 C663 1.374 . S
C660 C666 1.507 . S
C661 C662 1.384 . S
C661 C665 1.387 . S
C661 H688 0.930 . S
C662 C660 1.380 . S
C662 C661 1.384 . S
C662 H689 0.931 . S
C663 C660 1.374 . S
C663 C664 1.390 . S
C663 H690 0.930 . S
C664 C663 1.390 . S
C664 C665 1.391 . S
C664 H691 0.930 . S
C665 C661 1.387 . S
C665 C664 1.391 . S
C666 Tb656 2.825 . S
C666 C660 1.507 . S
C666 O679 1.238 . S
C666 O680 1.247 . S
O667 Tb656 2.347 1_554 S
O667 C671 1.259 . S
O668 Eu657 2.418 . S
O668 C671 1.265 . S
O669 Eu657 2.384 . S
O669 C678 1.229 1_554 S
O670 Tb656 2.366 . S
O670 C678 1.278 . S
C671 O667 1.259 . S
C671 O668 1.265 . S
O672 Eu657 2.479 . S
O672 C687 1.238 . S
O673 Eu657 2.471 . S
O673 C687 1.247 . S
O674 Eu657 2.347 . S
O674 C658 1.259 . S
O675 Tb656 2.418 . S
O675 C658 1.265 1_556 S
O676 Tb656 2.384 1_554 S
O676 C659 1.255 . S
O677 Eu657 2.366 . S
O677 C659 1.265 . S
C678 O669 1.229 1_556 S
C678 O670 1.278 . S
O679 Tb656 2.479 . S
O679 C666 1.238 . S
O680 Tb656 2.471 . S
O680 C666 1.247 . S
C681 C684 1.380 . S
C681 C685 1.374 . S
C681 C687 1.507 . S
C682 C683 1.387 . S
C682 C686 1.391 . S
C683 C682 1.387 . S
C683 C684 1.384 . S
C683 H692 0.930 . S
C684 C681 1.380 . S
C684 C683 1.384 . S
C684 H693 0.931 . S
C685 C681 1.374 . S
C685 C686 1.390 . S
C685 H694 0.930 . S
C686 C682 1.391 . S
C686 C685 1.390 . S
C686 H695 0.930 . S
C687 Eu657 2.825 . S
C687 O672 1.238 . S
C687 O673 1.247 . S
C687 C681 1.507 . S
H688 C661 0.930 . S
H689 C662 0.931 . S
H690 C663 0.930 . S
H691 C664 0.930 . S
H692 C683 0.930 . S
H693 C684 0.931 . S
H694 C685 0.930 . S
H695 C686 0.930 . S
Tb696 C706 2.825 . S
Tb696 O707 2.347 . S
Tb696 O710 2.366 . S
Tb696 O715 2.418 . S
Tb696 O716 2.384 . S
Tb696 O719 2.479 . S
Tb696 O720 2.471 . S
Eu697 O708 2.418 . S
Eu697 O709 2.384 . S
Eu697 O712 2.479 . S
Eu697 O713 2.471 . S
Eu697 O714 2.347 . S
Eu697 O717 2.366 . S
Eu697 C727 2.825 . S
C698 O714 1.259 . S
C698 O715 1.265 . S
C699 O716 1.255 . S
C699 O717 1.265 . S
C700 C702 1.380 . S
C700 C703 1.374 . S
C700 C706 1.507 . S
C701 C702 1.384 . S
C701 C705 1.387 . S
C701 H728 0.930 . S
C702 C700 1.380 . S
C702 C701 1.384 . S
C702 H729 0.931 . S
C703 C700 1.374 . S
C703 C704 1.390 . S
C703 H730 0.930 . S
C704 C703 1.390 . S
C704 C705 1.391 . S
C704 H731 0.930 . S
C705 C701 1.387 . S
C705 C704 1.391 . S
C706 Tb696 2.825 . S
C706 C700 1.507 . S
C706 O719 1.238 . S
C706 O720 1.247 . S
O707 Tb696 2.347 . S
O707 C711 1.259 . S
O708 Eu697 2.418 . S
O708 C711 1.265 . S
O709 Eu697 2.384 . S
O709 C718 1.255 . S
O710 Tb696 2.366 . S
O710 C718 1.265 . S
C711 O707 1.259 . S
C711 O708 1.265 . S
O712 Eu697 2.479 . S
O712 C727 1.238 . S
O713 Eu697 2.471 . S
O713 C727 1.247 . S
O714 Eu697 2.347 . S
O714 C698 1.259 . S
O715 Tb696 2.418 . S
O715 C698 1.265 . S
O716 Tb696 2.384 . S
O716 C699 1.255 . S
O717 Eu697 2.366 . S
O717 C699 1.265 . S
C718 O709 1.255 . S
C718 O710 1.265 . S
O719 Tb696 2.479 . S
O719 C706 1.238 . S
O720 Tb696 2.471 . S
O720 C706 1.247 . S
C721 C724 1.380 . S
C721 C725 1.374 . S
C721 C727 1.507 . S
C722 C723 1.387 . S
C722 C726 1.391 . S
C723 C722 1.387 . S
C723 C724 1.384 . S
C723 H732 0.930 . S
C724 C721 1.380 . S
C724 C723 1.384 . S
C724 H733 0.931 . S
C725 C721 1.374 . S
C725 C726 1.390 . S
C725 H734 0.930 . S
C726 C722 1.391 . S
C726 C725 1.390 . S
C726 H735 0.930 . S
C727 Eu697 2.825 . S
C727 O712 1.238 . S
C727 O713 1.247 . S
C727 C721 1.507 . S
H728 C701 0.930 . S
H729 C702 0.931 . S
H730 C703 0.930 . S
H731 C704 0.930 . S
H732 C723 0.930 . S
H733 C724 0.931 . S
H734 C725 0.930 . S
H735 C726 0.930 . S
Tb736 C746 2.825 . S
Tb736 O747 2.347 . S
Tb736 O750 2.366 . S
Tb736 O755 2.418 . S
Tb736 O756 2.384 . S
Tb736 O759 2.479 . S
Tb736 O760 2.471 . S
Eu737 O748 2.418 . S
Eu737 O749 2.384 1_455 S
Eu737 O752 2.479 . S
Eu737 O753 2.471 . S
Eu737 O754 2.347 . S
Eu737 O757 2.366 . S
Eu737 C767 2.825 . S
C738 O754 1.259 . S
C738 O755 1.265 . S
C739 O756 1.255 . S
C739 O757 1.265 . S
C740 C742 1.380 . S
C740 C743 1.374 . S
C740 C746 1.507 . S
C741 C742 1.384 . S
C741 C745 1.387 . S
C741 H768 0.930 . S
C742 C740 1.380 . S
C742 C741 1.384 . S
C742 H769 0.931 . S
C743 C740 1.374 . S
C743 C744 1.390 . S
C743 H770 0.930 . S
C744 C743 1.390 . S
C744 C745 1.391 . S
C744 H771 0.922 1_455 S
C745 C741 1.387 . S
C745 C744 1.391 . S
C746 Tb736 2.825 . S
C746 C740 1.507 . S
C746 O759 1.238 . S
C746 O760 1.247 . S
O747 Tb736 2.347 . S
O747 C751 1.259 . S
O748 Eu737 2.418 . S
O748 C751 1.265 . S
O749 Eu737 2.384 1_655 S
O749 C758 1.255 . S
O750 Tb736 2.366 . S
O750 C758 1.265 1_455 S
C751 O747 1.259 . S
C751 O748 1.265 . S
O752 Eu737 2.479 . S
O752 C767 1.238 . S
O753 Eu737 2.471 . S
O753 C767 1.247 . S
O754 Eu737 2.347 . S
O754 C738 1.259 . S
O755 Tb736 2.418 . S
O755 C738 1.265 . S
O756 Tb736 2.384 . S
O756 C739 1.255 . S
O757 Eu737 2.366 . S
O757 C739 1.265 . S
C758 O749 1.255 . S
C758 O750 1.265 1_655 S
O759 Tb736 2.479 . S
O759 C746 1.238 . S
O760 Tb736 2.471 . S
O760 C746 1.247 . S
C761 C764 1.380 . S
C761 C765 1.374 . S
C761 C767 1.507 . S
C762 C763 1.387 . S
C762 C766 1.391 . S
C763 C762 1.387 . S
C763 C764 1.384 . S
C763 H772 0.930 . S
C764 C761 1.380 . S
C764 C763 1.384 . S
C764 H773 0.931 . S
C765 C761 1.374 . S
C765 C766 1.390 . S
C765 H774 0.930 . S
C766 C762 1.391 . S
C766 C765 1.390 . S
C766 H775 0.930 . S
C767 Eu737 2.825 . S
C767 O752 1.238 . S
C767 O753 1.247 . S
C767 C761 1.507 . S
H768 C741 0.930 . S
H769 C742 0.931 . S
H770 C743 0.930 . S
H771 C744 0.922 1_655 S
H772 C763 0.930 . S
H773 C764 0.931 . S
H774 C765 0.930 . S
H775 C766 0.930 . S
Tb776 C786 2.825 . S
Tb776 O787 2.347 . S
Tb776 O790 2.366 . S
Tb776 O795 2.418 . S
Tb776 O796 2.384 . S
Tb776 O799 2.479 . S
Tb776 O800 2.471 . S
Eu777 O788 2.418 . S
Eu777 O789 2.384 . S
Eu777 O792 2.479 . S
Eu777 O793 2.471 . S
Eu777 O794 2.347 . S
Eu777 O797 2.366 . S
Eu777 C807 2.825 . S
C778 O794 1.259 . S
C778 O795 1.265 . S
C779 O796 1.255 . S
C779 O797 1.265 . S
C780 C782 1.380 . S
C780 C783 1.374 . S
C780 C786 1.507 . S
C781 C782 1.384 . S
C781 C785 1.387 . S
C781 H808 0.930 . S
C782 C780 1.380 . S
C782 C781 1.384 . S
C782 H809 0.931 . S
C783 C780 1.374 . S
C783 C784 1.390 . S
C783 H810 0.930 . S
C784 C783 1.390 . S
C784 C785 1.391 . S
C784 H811 0.930 . S
C785 C781 1.387 . S
C785 C784 1.391 . S
C786 Tb776 2.825 . S
C786 C780 1.507 . S
C786 O799 1.238 . S
C786 O800 1.247 . S
O787 Tb776 2.347 . S
O787 C791 1.259 . S
O788 Eu777 2.418 . S
O788 C791 1.265 . S
O789 Eu777 2.384 . S
O789 C798 1.255 . S
O790 Tb776 2.366 . S
O790 C798 1.265 . S
C791 O787 1.259 . S
C791 O788 1.265 . S
O792 Eu777 2.479 . S
O792 C807 1.238 . S
O793 Eu777 2.471 . S
O793 C807 1.247 . S
O794 Eu777 2.347 . S
O794 C778 1.259 . S
O795 Tb776 2.418 . S
O795 C778 1.265 . S
O796 Tb776 2.384 . S
O796 C779 1.255 . S
O797 Eu777 2.366 . S
O797 C779 1.265 . S
C798 O789 1.255 . S
C798 O790 1.265 . S
O799 Tb776 2.479 . S
O799 C786 1.238 . S
O800 Tb776 2.471 . S
O800 C786 1.247 . S
C801 C804 1.380 . S
C801 C805 1.374 . S
C801 C807 1.507 . S
C802 C803 1.387 . S
C802 C806 1.391 . S
C803 C802 1.387 . S
C803 C804 1.384 . S
C803 H812 0.930 . S
C804 C801 1.380 . S
C804 C803 1.384 . S
C804 H813 0.931 . S
C805 C801 1.374 . S
C805 C806 1.390 . S
C805 H814 0.930 . S
C806 C802 1.391 . S
C806 C805 1.390 . S
C806 H815 0.930 . S
C807 Eu777 2.825 . S
C807 O792 1.238 . S
C807 O793 1.247 . S
C807 C801 1.507 . S
H808 C781 0.930 . S
H809 C782 0.931 . S
H810 C783 0.930 . S
H811 C784 0.930 . S
H812 C803 0.930 . S
H813 C804 0.931 . S
H814 C805 0.930 . S
H815 C806 0.930 . S
Tb816 C826 2.825 . S
Tb816 O827 2.347 . S
Tb816 O830 2.366 . S
Tb816 O835 2.418 . S
Tb816 O836 2.384 . S
Tb816 O839 2.479 . S
Tb816 O840 2.471 . S
Eu817 O828 2.418 . S
Eu817 O829 2.384 . S
Eu817 O832 2.479 . S
Eu817 O833 2.471 . S
Eu817 O834 2.347 . S
Eu817 O837 2.366 . S
Eu817 C847 2.825 . S
C818 O834 1.259 . S
C818 O835 1.265 . S
C819 O836 1.255 . S
C819 O837 1.265 . S
C820 C822 1.380 . S
C820 C823 1.374 . S
C820 C826 1.507 . S
C821 C822 1.384 . S
C821 C825 1.387 . S
C821 H848 0.930 . S
C822 C820 1.380 . S
C822 C821 1.384 . S
C822 H849 0.931 . S
C823 C820 1.374 . S
C823 C824 1.390 . S
C823 H850 0.930 . S
C824 C823 1.390 . S
C824 C825 1.391 . S
C824 H851 0.930 . S
C825 C821 1.387 . S
C825 C824 1.391 . S
C826 Tb816 2.825 . S
C826 C820 1.507 . S
C826 O839 1.238 . S
C826 O840 1.247 . S
O827 Tb816 2.347 . S
O827 C831 1.259 . S
O828 Eu817 2.418 . S
O828 C831 1.265 . S
O829 Eu817 2.384 . S
O829 C838 1.255 . S
O830 Tb816 2.366 . S
O830 C838 1.265 . S
C831 O827 1.259 . S
C831 O828 1.265 . S
O832 Eu817 2.479 . S
O832 C847 1.238 . S
O833 Eu817 2.471 . S
O833 C847 1.247 . S
O834 Eu817 2.347 . S
O834 C818 1.259 . S
O835 Tb816 2.418 . S
O835 C818 1.265 . S
O836 Tb816 2.384 . S
O836 C819 1.255 . S
O837 Eu817 2.366 . S
O837 C819 1.265 . S
C838 O829 1.255 . S
C838 O830 1.265 . S
O839 Tb816 2.479 . S
O839 C826 1.238 . S
O840 Tb816 2.471 . S
O840 C826 1.247 . S
C841 C844 1.380 . S
C841 C845 1.374 . S
C841 C847 1.507 . S
C842 C843 1.387 . S
C842 C846 1.391 . S
C843 C842 1.387 . S
C843 C844 1.384 . S
C843 H852 0.930 . S
C844 C841 1.380 . S
C844 C843 1.384 . S
C844 H853 0.931 . S
C845 C841 1.374 . S
C845 C846 1.390 . S
C845 H854 0.930 . S
C846 C842 1.391 . S
C846 C845 1.390 . S
C846 H855 0.930 . S
C847 Eu817 2.825 . S
C847 O832 1.238 . S
C847 O833 1.247 . S
C847 C841 1.507 . S
H848 C821 0.930 . S
H849 C822 0.931 . S
H850 C823 0.930 . S
H851 C824 0.930 . S
H852 C843 0.930 . S
H853 C844 0.931 . S
H854 C845 0.930 . S
H855 C846 0.930 . S
Tb856 C866 2.825 . S
Tb856 O867 2.347 . S
Tb856 O870 2.366 . S
Tb856 O875 2.418 . S
Tb856 O876 2.384 . S
Tb856 O879 2.479 . S
Tb856 O880 2.471 . S
Eu857 O868 2.418 . S
Eu857 O869 2.384 . S
Eu857 O872 2.479 . S
Eu857 O873 2.471 . S
Eu857 O874 2.347 . S
Eu857 O877 2.366 . S
Eu857 C887 2.825 . S
C858 O874 1.259 . S
C858 O875 1.265 . S
C859 O876 1.255 . S
C859 O877 1.265 . S
C860 C862 1.380 . S
C860 C863 1.374 . S
C860 C866 1.507 . S
C861 C862 1.384 . S
C861 C865 1.387 . S
C861 H888 0.930 . S
C862 C860 1.380 . S
C862 C861 1.384 . S
C862 H889 0.931 . S
C863 C860 1.374 . S
C863 C864 1.390 . S
C863 H890 0.930 . S
C864 C863 1.390 . S
C864 C865 1.391 . S
C864 H891 0.930 . S
C865 C861 1.387 . S
C865 C864 1.391 . S
C866 Tb856 2.825 . S
C866 C860 1.507 . S
C866 O879 1.238 . S
C866 O880 1.247 . S
O867 Tb856 2.347 . S
O867 C871 1.259 . S
O868 Eu857 2.418 . S
O868 C871 1.265 . S
O869 Eu857 2.384 . S
O869 C878 1.255 . S
O870 Tb856 2.366 . S
O870 C878 1.265 . S
C871 O867 1.259 . S
C871 O868 1.265 . S
O872 Eu857 2.479 . S
O872 C887 1.238 . S
O873 Eu857 2.471 . S
O873 C887 1.247 . S
O874 Eu857 2.347 . S
O874 C858 1.259 . S
O875 Tb856 2.418 . S
O875 C858 1.265 . S
O876 Tb856 2.384 . S
O876 C859 1.255 . S
O877 Eu857 2.366 . S
O877 C859 1.265 . S
C878 O869 1.255 . S
C878 O870 1.265 . S
O879 Tb856 2.479 . S
O879 C866 1.238 . S
O880 Tb856 2.471 . S
O880 C866 1.247 . S
C881 C884 1.380 . S
C881 C885 1.374 . S
C881 C887 1.507 . S
C882 C883 1.387 . S
C882 C886 1.391 . S
C883 C882 1.387 . S
C883 C884 1.384 . S
C883 H892 0.930 . S
C884 C881 1.380 . S
C884 C883 1.384 . S
C884 H893 0.931 . S
C885 C881 1.374 . S
C885 C886 1.390 . S
C885 H894 0.930 . S
C886 C882 1.391 . S
C886 C885 1.390 . S
C886 H895 0.930 . S
C887 Eu857 2.825 . S
C887 O872 1.238 . S
C887 O873 1.247 . S
C887 C881 1.507 . S
H888 C861 0.930 . S
H889 C862 0.931 . S
H890 C863 0.930 . S
H891 C864 0.930 . S
H892 C883 0.930 . S
H893 C884 0.931 . S
H894 C885 0.930 . S
H895 C886 0.930 . S
Tb896 C906 2.825 . S
Tb896 O907 2.347 . S
Tb896 O910 2.366 . S
Tb896 O915 2.418 . S
Tb896 O916 2.384 . S
Tb896 O919 2.479 . S
Tb896 O920 2.471 . S
Eu897 O908 2.418 . S
Eu897 O909 2.384 . S
Eu897 O912 2.479 . S
Eu897 O913 2.471 . S
Eu897 O914 2.347 . S
Eu897 O917 2.366 . S
Eu897 C927 2.825 . S
C898 O914 1.259 . S
C898 O915 1.265 . S
C899 O916 1.255 . S
C899 O917 1.265 . S
C900 C902 1.380 . S
C900 C903 1.374 . S
C900 C906 1.507 . S
C901 C902 1.384 . S
C901 C905 1.387 . S
C901 H928 0.930 . S
C902 C900 1.380 . S
C902 C901 1.384 . S
C902 H929 0.931 . S
C903 C900 1.374 . S
C903 C904 1.390 . S
C903 H930 0.930 . S
C904 C903 1.390 . S
C904 C905 1.391 . S
C904 H931 0.930 . S
C905 C901 1.387 . S
C905 C904 1.391 . S
C906 Tb896 2.825 . S
C906 C900 1.507 . S
C906 O919 1.238 . S
C906 O920 1.247 . S
O907 Tb896 2.347 . S
O907 C911 1.259 . S
O908 Eu897 2.418 . S
O908 C911 1.265 . S
O909 Eu897 2.384 . S
O909 C918 1.255 . S
O910 Tb896 2.366 . S
O910 C918 1.265 . S
C911 O907 1.259 . S
C911 O908 1.265 . S
O912 Eu897 2.479 . S
O912 C927 1.238 . S
O913 Eu897 2.471 . S
O913 C927 1.247 . S
O914 Eu897 2.347 . S
O914 C898 1.259 . S
O915 Tb896 2.418 . S
O915 C898 1.265 . S
O916 Tb896 2.384 . S
O916 C899 1.255 . S
O917 Eu897 2.366 . S
O917 C899 1.265 . S
C918 O909 1.255 . S
C918 O910 1.265 . S
O919 Tb896 2.479 . S
O919 C906 1.238 . S
O920 Tb896 2.471 . S
O920 C906 1.247 . S
C921 C924 1.380 . S
C921 C925 1.374 . S
C921 C927 1.507 . S
C922 C923 1.387 . S
C922 C926 1.391 . S
C923 C922 1.387 . S
C923 C924 1.384 . S
C923 H932 0.930 . S
C924 C921 1.380 . S
C924 C923 1.384 . S
C924 H933 0.931 . S
C925 C921 1.374 . S
C925 C926 1.390 . S
C925 H934 0.930 . S
C926 C922 1.391 . S
C926 C925 1.390 . S
C926 H935 0.930 . S
C927 Eu897 2.825 . S
C927 O912 1.238 . S
C927 O913 1.247 . S
C927 C921 1.507 . S
H928 C901 0.930 . S
H929 C902 0.931 . S
H930 C903 0.930 . S
H931 C904 0.930 . S
H932 C923 0.930 . S
H933 C924 0.931 . S
H934 C925 0.930 . S
H935 C926 0.930 . S
Tb936 C946 2.825 1_554 S
Tb936 O947 2.347 1_554 S
Tb936 O950 2.366 . S
Tb936 O955 2.418 . S
Tb936 O956 2.384 . S
Tb936 O959 2.479 . S
Tb936 O960 2.471 1_554 S
Eu937 O948 2.418 1_554 S
Eu937 O949 2.384 . S
Eu937 O952 2.479 . S
Eu937 O953 2.471 . S
Eu937 O954 2.347 . S
Eu937 O957 2.366 . S
Eu937 C967 2.825 . S
C938 O954 1.259 . S
C938 O955 1.265 . S
C939 O956 1.255 . S
C939 O957 1.265 . S
C940 C942 1.401 . S
C940 C943 1.374 . S
C940 C946 1.507 . S
C941 C942 1.398 . S
C941 C945 1.387 . S
C941 H968 0.930 . S
C942 C940 1.401 . S
C942 C941 1.398 . S
C942 H969 0.897 1_556 S
C943 C940 1.374 . S
C943 C944 1.390 . S
C943 H970 0.930 . S
C944 C943 1.390 . S
C944 C945 1.391 . S
C944 H971 0.930 . S
C945 C941 1.387 . S
C945 C944 1.391 . S
C946 Tb936 2.825 1_556 S
C946 C940 1.507 . S
C946 O959 1.238 1_556 S
C946 O960 1.247 . S
O947 Tb936 2.347 1_556 S
O947 C951 1.259 . S
O948 Eu937 2.418 1_556 S
O948 C951 1.265 . S
O949 Eu937 2.384 . S
O949 C958 1.255 . S
O950 Tb936 2.366 . S
O950 C958 1.265 . S
C951 O947 1.259 . S
C951 O948 1.265 . S
O952 Eu937 2.479 . S
O952 C967 1.238 . S
O953 Eu937 2.471 . S
O953 C967 1.247 . S
O954 Eu937 2.347 . S
O954 C938 1.259 . S
O955 Tb936 2.418 . S
O955 C938 1.265 . S
O956 Tb936 2.384 . S
O956 C939 1.255 . S
O957 Eu937 2.366 . S
O957 C939 1.265 . S
C958 O949 1.255 . S
C958 O950 1.265 . S
O959 Tb936 2.479 . S
O959 C946 1.238 1_554 S
O960 Tb936 2.471 1_556 S
O960 C946 1.247 . S
C961 C964 1.380 . S
C961 C965 1.374 . S
C961 C967 1.507 . S
C962 C963 1.387 . S
C962 C966 1.391 . S
C963 C962 1.387 . S
C963 C964 1.384 . S
C963 H972 0.930 . S
C964 C961 1.380 . S
C964 C963 1.384 . S
C964 H973 0.931 . S
C965 C961 1.374 . S
C965 C966 1.390 . S
C965 H974 0.930 . S
C966 C962 1.391 . S
C966 C965 1.390 . S
C966 H975 0.930 . S
C967 Eu937 2.825 . S
C967 O952 1.238 . S
C967 O953 1.247 . S
C967 C961 1.507 . S
H968 C941 0.930 . S
H969 C942 0.897 1_554 S
H970 C943 0.930 . S
H971 C944 0.930 . S
H972 C963 0.930 . S
H973 C964 0.931 . S
H974 C965 0.930 . S
H975 C966 0.930 . S
C976 C977 1.363 . S
C976 C982 1.379 . S
C976 N984 1.356 . S
C977 C976 1.363 . S
C977 C983 1.363 1_455 S
C978 C979 1.367 . S
C978 C983 1.379 1_454 S
C978 N985 1.356 . S
C979 C978 1.367 . S
C979 C982 1.338 1_554 S
N980 C982 1.356 . S
N980 H992 0.984 . S
N980 H993 0.985 1_556 S
N981 C983 1.356 . S
N981 H986 0.984 . S
N981 H987 0.985 . S
C982 C976 1.379 . S
C982 C979 1.338 1_556 S
C982 N980 1.356 . S
C983 C977 1.363 1_655 S
C983 C978 1.379 1_656 S
C983 N981 1.356 . S
N984 C976 1.356 . S
N984 H990 0.984 . S
N984 H991 0.984 . S
N985 C978 1.356 . S
N985 H988 0.984 . S
N985 H989 0.985 1_455 S
H986 N981 0.984 . S
H987 N981 0.985 . S
H988 N985 0.984 . S
H989 N985 0.985 1_655 S
H990 N984 0.984 . S
H991 N984 0.984 . S
H992 N980 0.984 . S
H993 N980 0.985 1_554 S
C994 C995 1.363 . S
C994 C1000 1.379 . S
C994 N1002 1.356 . S
C995 C994 1.363 . S
C995 C1001 1.363 . S
C996 C997 1.363 . S
C996 C1001 1.379 . S
C996 N1003 1.356 . S
C997 C996 1.363 . S
C997 C1000 1.363 . S
N998 C1000 1.356 . S
N998 H1010 0.984 . S
N998 H1011 0.985 . S
N999 C1001 1.356 . S
N999 H1004 0.984 . S
N999 H1005 0.985 . S
C1000 C994 1.379 . S
C1000 C997 1.363 . S
C1000 N998 1.356 . S
C1001 C995 1.363 . S
C1001 C996 1.379 . S
C1001 N999 1.356 . S
N1002 C994 1.356 . S
N1002 H1008 0.984 . S
N1002 H1009 0.984 . S
N1003 C996 1.356 . S
N1003 H1006 0.984 . S
N1003 H1007 0.985 . S
H1004 N999 0.984 . S
H1005 N999 0.985 . S
H1006 N1003 0.984 . S
H1007 N1003 0.985 . S
H1008 N1002 0.984 . S
H1009 N1002 0.984 . S
H1010 N998 0.984 . S
H1011 N998 0.985 . S
C1012 C1013 1.363 . S
C1012 C1018 1.379 . S
C1012 N1020 1.356 . S
C1013 C1012 1.363 . S
C1013 C1019 1.363 . S
C1014 C1015 1.363 . S
C1014 C1019 1.379 . S
C1014 N1021 1.356 . S
C1015 C1014 1.363 . S
C1015 C1018 1.363 . S
N1016 C1018 1.356 . S
N1016 H1028 0.984 . S
N1016 H1029 0.985 . S
N1017 C1019 1.356 . S
N1017 H1022 0.984 . S
N1017 H1023 0.985 . S
C1018 C1012 1.379 . S
C1018 C1015 1.363 . S
C1018 N1016 1.356 . S
C1019 C1013 1.363 . S
C1019 C1014 1.379 . S
C1019 N1017 1.356 . S
N1020 C1012 1.356 . S
N1020 H1026 0.984 . S
N1020 H1027 0.984 . S
N1021 C1014 1.356 . S
N1021 H1024 0.984 . S
N1021 H1025 0.985 . S
H1022 N1017 0.984 . S
H1023 N1017 0.985 . S
H1024 N1021 0.984 . S
H1025 N1021 0.985 . S
H1026 N1020 0.984 . S
H1027 N1020 0.984 . S
H1028 N1016 0.984 . S
H1029 N1016 0.985 . S
C1030 C1031 1.363 . S
C1030 C1036 1.379 . S
C1030 N1038 1.356 . S
C1031 C1030 1.363 . S
C1031 C1037 1.363 . S
C1032 C1033 1.363 . S
C1032 C1037 1.379 . S
C1032 N1039 1.356 . S
C1033 C1032 1.363 . S
C1033 C1036 1.363 . S
N1034 C1036 1.356 . S
N1034 H1046 0.984 . S
N1034 H1047 0.985 . S
N1035 C1037 1.356 . S
N1035 H1040 0.984 . S
N1035 H1041 0.985 . S
C1036 C1030 1.379 . S
C1036 C1033 1.363 . S
C1036 N1034 1.356 . S
C1037 C1031 1.363 . S
C1037 C1032 1.379 . S
C1037 N1035 1.356 . S
N1038 C1030 1.356 . S
N1038 H1044 0.984 . S
N1038 H1045 0.984 . S
N1039 C1032 1.356 . S
N1039 H1042 0.984 . S
N1039 H1043 0.985 . S
H1040 N1035 0.984 . S
H1041 N1035 0.985 . S
H1042 N1039 0.984 . S
H1043 N1039 0.985 . S
H1044 N1038 0.984 . S
H1045 N1038 0.984 . S
H1046 N1034 0.984 . S
H1047 N1034 0.985 . S
C1048 C1049 1.363 . S
C1048 C1054 1.379 . S
C1048 N1056 1.356 . S
C1049 C1048 1.363 . S
C1049 C1055 1.363 . S
C1050 C1051 1.363 . S
C1050 C1055 1.379 . S
C1050 N1057 1.356 . S
C1051 C1050 1.363 . S
C1051 C1054 1.363 . S
N1052 C1054 1.356 . S
N1052 H1064 0.984 . S
N1052 H1065 0.985 . S
N1053 C1055 1.356 . S
N1053 H1058 0.984 . S
N1053 H1059 0.985 . S
C1054 C1048 1.379 . S
C1054 C1051 1.363 . S
C1054 N1052 1.356 . S
C1055 C1049 1.363 . S
C1055 C1050 1.379 . S
C1055 N1053 1.356 . S
N1056 C1048 1.356 . S
N1056 H1062 0.984 . S
N1056 H1063 0.984 . S
N1057 C1050 1.356 . S
N1057 H1060 0.984 . S
N1057 H1061 0.985 . S
H1058 N1053 0.984 . S
H1059 N1053 0.985 . S
H1060 N1057 0.984 . S
H1061 N1057 0.985 . S
H1062 N1056 0.984 . S
H1063 N1056 0.984 . S
H1064 N1052 0.984 . S
H1065 N1052 0.985 . S
C1066 C1067 1.363 . S
C1066 C1072 1.379 . S
C1066 N1074 1.356 . S
C1067 C1066 1.363 . S
C1067 C1073 1.363 . S
C1068 C1069 1.363 . S
C1068 C1073 1.379 . S
C1068 N1075 1.356 . S
C1069 C1068 1.363 . S
C1069 C1072 1.363 . S
N1070 C1072 1.356 . S
N1070 H1082 0.984 . S
N1070 H1083 0.985 . S
N1071 C1073 1.356 . S
N1071 H1076 0.984 . S
N1071 H1077 0.985 . S
C1072 C1066 1.379 . S
C1072 C1069 1.363 . S
C1072 N1070 1.356 . S
C1073 C1067 1.363 . S
C1073 C1068 1.379 . S
C1073 N1071 1.356 . S
N1074 C1066 1.356 . S
N1074 H1080 0.984 . S
N1074 H1081 0.984 . S
N1075 C1068 1.356 . S
N1075 H1078 0.984 . S
N1075 H1079 0.985 . S
H1076 N1071 0.984 . S
H1077 N1071 0.985 . S
H1078 N1075 0.984 . S
H1079 N1075 0.985 . S
H1080 N1074 0.984 . S
H1081 N1074 0.984 . S
H1082 N1070 0.984 . S
H1083 N1070 0.985 . S
C1084 C1085 1.363 . S
C1084 C1090 1.379 . S
C1084 N1092 1.356 . S
C1085 C1084 1.363 . S
C1085 C1091 1.363 . S
C1086 C1087 1.363 . S
C1086 C1091 1.379 . S
C1086 N1093 1.356 . S
C1087 C1086 1.363 . S
C1087 C1090 1.363 . S
N1088 C1090 1.356 . S
N1088 H1100 0.984 . S
N1088 H1101 0.985 . S
N1089 C1091 1.356 . S
N1089 H1094 0.984 . S
N1089 H1095 0.985 . S
C1090 C1084 1.379 . S
C1090 C1087 1.363 . S
C1090 N1088 1.356 . S
C1091 C1085 1.363 . S
C1091 C1086 1.379 . S
C1091 N1089 1.356 . S
N1092 C1084 1.356 . S
N1092 H1098 0.984 . S
N1092 H1099 0.984 . S
N1093 C1086 1.356 . S
N1093 H1096 0.984 . S
N1093 H1097 0.985 . S
H1094 N1089 0.984 . S
H1095 N1089 0.985 . S
H1096 N1093 0.984 . S
H1097 N1093 0.985 . S
H1098 N1092 0.984 . S
H1099 N1092 0.984 . S
H1100 N1088 0.984 . S
H1101 N1088 0.985 . S
C1102 C1103 1.363 . S
C1102 C1108 1.379 . S
C1102 N1110 1.356 . S
C1103 C1102 1.363 . S
C1103 C1109 1.363 . S
C1104 C1105 1.363 . S
C1104 C1109 1.379 . S
C1104 N1111 1.356 . S
C1105 C1104 1.363 . S
C1105 C1108 1.363 . S
N1106 C1108 1.356 . S
N1106 H1118 0.984 . S
N1106 H1119 0.985 . S
N1107 C1109 1.356 . S
N1107 H1112 0.984 . S
N1107 H1113 0.985 . S
C1108 C1102 1.379 . S
C1108 C1105 1.363 . S
C1108 N1106 1.356 . S
C1109 C1103 1.363 . S
C1109 C1104 1.379 . S
C1109 N1107 1.356 . S
N1110 C1102 1.356 . S
N1110 H1116 0.984 . S
N1110 H1117 0.984 . S
N1111 C1104 1.356 . S
N1111 H1114 0.984 . S
N1111 H1115 0.985 . S
H1112 N1107 0.984 . S
H1113 N1107 0.985 . S
H1114 N1111 0.984 . S
H1115 N1111 0.985 . S
H1116 N1110 0.984 . S
H1117 N1110 0.984 . S
H1118 N1106 0.984 . S
H1119 N1106 0.985 . S
C1120 C1121 1.363 . S
C1120 C1126 1.379 . S
C1120 N1128 1.356 . S
C1121 C1120 1.363 . S
C1121 C1127 1.361 . S
C1122 C1123 1.363 . S
C1122 C1127 1.379 1_455 S
C1122 N1129 1.355 . S
C1123 C1122 1.363 . S
C1123 C1126 1.363 1_455 S
N1124 C1126 1.356 . S
N1124 H1136 0.984 . S
N1124 H1137 0.985 1_655 S
N1125 C1127 1.360 1_565 S
N1125 H1130 0.984 . S
N1125 H1131 0.985 . S
C1126 C1120 1.379 . S
C1126 C1123 1.363 1_655 S
C1126 N1124 1.356 . S
C1127 C1121 1.361 . S
C1127 C1122 1.379 1_655 S
C1127 N1125 1.360 1_545 S
N1128 C1120 1.356 . S
N1128 H1134 0.984 . S
N1128 H1135 0.984 . S
N1129 C1122 1.355 . S
N1129 H1132 0.984 . S
N1129 H1133 0.985 1_545 S
H1130 N1125 0.984 . S
H1131 N1125 0.985 . S
H1132 N1129 0.984 . S
H1133 N1129 0.985 1_565 S
H1134 N1128 0.984 . S
H1135 N1128 0.984 . S
H1136 N1124 0.984 . S
H1137 N1124 0.985 1_455 S
C1138 C1139 1.363 . S
C1138 C1144 1.379 . S
C1138 N1146 1.356 . S
C1139 C1138 1.363 . S
C1139 C1145 1.363 . S
C1140 C1141 1.363 . S
C1140 C1145 1.379 . S
C1140 N1147 1.356 . S
C1141 C1140 1.363 . S
C1141 C1144 1.363 . S
N1142 C1144 1.356 . S
N1142 H1154 0.984 . S
N1142 H1155 0.985 . S
N1143 C1145 1.356 . S
N1143 H1148 0.984 . S
N1143 H1149 0.985 . S
C1144 C1138 1.379 . S
C1144 C1141 1.363 . S
C1144 N1142 1.356 . S
C1145 C1139 1.363 . S
C1145 C1140 1.379 . S
C1145 N1143 1.356 . S
N1146 C1138 1.356 . S
N1146 H1152 0.984 . S
N1146 H1153 0.984 . S
N1147 C1140 1.356 . S
N1147 H1150 0.984 . S
N1147 H1151 0.985 . S
H1148 N1143 0.984 . S
H1149 N1143 0.985 . S
H1150 N1147 0.984 . S
H1151 N1147 0.985 . S
H1152 N1146 0.984 . S
H1153 N1146 0.984 . S
H1154 N1142 0.984 . S
H1155 N1142 0.985 . S
C1156 C1157 1.371 . S
C1156 C1162 1.396 . S
C1156 N1164 1.331 1_545 S
C1157 C1156 1.371 . S
C1157 C1163 1.363 . S
C1158 C1159 1.363 . S
C1158 C1163 1.379 . S
C1158 N1165 1.356 . S
C1159 C1158 1.363 . S
C1159 C1162 1.363 . S
N1160 C1162 1.356 . S
N1160 H1172 0.984 . S
N1160 H1173 0.985 . S
N1161 C1163 1.356 . S
N1161 H1166 0.984 . S
N1161 H1167 0.985 . S
C1162 C1156 1.396 . S
C1162 C1159 1.363 . S
C1162 N1160 1.356 . S
C1163 C1157 1.363 . S
C1163 C1158 1.379 . S
C1163 N1161 1.356 . S
N1164 C1156 1.331 1_565 S
N1164 H1170 0.984 . S
N1164 H1171 0.984 . S
N1165 C1158 1.356 . S
N1165 H1168 0.984 . S
N1165 H1169 0.985 . S
H1166 N1161 0.984 . S
H1167 N1161 0.985 . S
H1168 N1165 0.984 . S
H1169 N1165 0.985 . S
H1170 N1164 0.984 . S
H1171 N1164 0.984 . S
H1172 N1160 0.984 . S
H1173 N1160 0.985 . S
C1174 C1175 1.363 . S
C1174 C1180 1.379 . S
C1174 N1182 1.356 . S
C1175 C1174 1.363 . S
C1175 C1181 1.363 . S
C1176 C1177 1.363 . S
C1176 C1181 1.379 . S
C1176 N1183 1.356 . S
C1177 C1176 1.363 . S
C1177 C1180 1.363 . S
N1178 C1180 1.356 . S
N1178 H1190 0.984 . S
N1178 H1191 0.985 . S
N1179 C1181 1.356 . S
N1179 H1184 0.984 . S
N1179 H1185 0.985 . S
C1180 C1174 1.379 . S
C1180 C1177 1.363 . S
C1180 N1178 1.356 . S
C1181 C1175 1.363 . S
C1181 C1176 1.379 . S
C1181 N1179 1.356 . S
N1182 C1174 1.356 . S
N1182 H1188 0.984 . S
N1182 H1189 0.984 . S
N1183 C1176 1.356 . S
N1183 H1186 0.984 . S
N1183 H1187 0.985 . S
H1184 N1179 0.984 . S
H1185 N1179 0.985 . S
H1186 N1183 0.984 . S
H1187 N1183 0.985 . S
H1188 N1182 0.984 . S
H1189 N1182 0.984 . S
H1190 N1178 0.984 . S
H1191 N1178 0.985 . S
C1192 C1193 1.363 . S
C1192 C1198 1.379 . S
C1192 N1200 1.356 1_545 S
C1193 C1192 1.363 . S
C1193 C1199 1.363 . S
C1194 C1195 1.363 . S
C1194 C1199 1.379 . S
C1194 N1201 1.356 1_655 S
C1195 C1194 1.363 . S
C1195 C1198 1.363 . S
N1196 C1198 1.356 . S
N1196 H1208 0.984 . S
N1196 H1209 0.985 . S
N1197 C1199 1.356 . S
N1197 H1202 0.984 . S
N1197 H1203 0.985 . S
C1198 C1192 1.379 . S
C1198 C1195 1.363 . S
C1198 N1196 1.356 . S
C1199 C1193 1.363 . S
C1199 C1194 1.379 . S
C1199 N1197 1.356 . S
N1200 C1192 1.356 1_565 S
N1200 H1206 0.984 . S
N1200 H1207 0.984 . S
N1201 C1194 1.356 1_455 S
N1201 H1204 0.984 . S
N1201 H1205 0.985 . S
H1202 N1197 0.984 . S
H1203 N1197 0.985 . S
H1204 N1201 0.984 . S
H1205 N1201 0.985 . S
H1206 N1200 0.984 . S
H1207 N1200 0.984 . S
H1208 N1196 0.984 . S
H1209 N1196 0.985 . S
C1210 C1211 1.363 . S
C1210 C1216 1.379 . S
C1210 N1218 1.356 . S
C1211 C1210 1.363 . S
C1211 C1217 1.363 . S
C1212 C1213 1.363 . S
C1212 C1217 1.379 . S
C1212 N1219 1.356 . S
C1213 C1212 1.363 . S
C1213 C1216 1.363 . S
N1214 C1216 1.356 . S
N1214 H1226 0.984 . S
N1214 H1227 0.985 . S
N1215 C1217 1.356 . S
N1215 H1220 0.984 . S
N1215 H1221 0.985 . S
C1216 C1210 1.379 . S
C1216 C1213 1.363 . S
C1216 N1214 1.356 . S
C1217 C1211 1.363 . S
C1217 C1212 1.379 . S
C1217 N1215 1.356 . S
N1218 C1210 1.356 . S
N1218 H1224 0.984 . S
N1218 H1225 0.984 . S
N1219 C1212 1.356 . S
N1219 H1222 0.984 . S
N1219 H1223 0.985 . S
H1220 N1215 0.984 . S
H1221 N1215 0.985 . S
H1222 N1219 0.984 . S
H1223 N1219 0.985 . S
H1224 N1218 0.984 . S
H1225 N1218 0.984 . S
H1226 N1214 0.984 . S
H1227 N1214 0.985 . S
C1228 C1229 1.363 . S
C1228 C1234 1.379 . S
C1228 N1236 1.356 1_545 S
C1229 C1228 1.363 . S
C1229 C1235 1.363 . S
C1230 C1231 1.363 . S
C1230 C1235 1.379 . S
C1230 N1237 1.356 . S
C1231 C1230 1.363 . S
C1231 C1234 1.363 . S
N1232 C1234 1.356 . S
N1232 H1244 0.984 . S
N1232 H1245 0.985 . S
N1233 C1235 1.356 . S
N1233 H1238 0.984 . S
N1233 H1239 0.985 . S
C1234 C1228 1.379 . S
C1234 C1231 1.363 . S
C1234 N1232 1.356 . S
C1235 C1229 1.363 . S
C1235 C1230 1.379 . S
C1235 N1233 1.356 . S
N1236 C1228 1.356 1_565 S
N1236 H1242 0.984 . S
N1236 H1243 0.984 . S
N1237 C1230 1.356 . S
N1237 H1240 0.984 . S
N1237 H1241 0.985 . S
H1238 N1233 0.984 . S
H1239 N1233 0.985 . S
H1240 N1237 0.984 . S
H1241 N1237 0.985 . S
H1242 N1236 0.984 . S
H1243 N1236 0.984 . S
H1244 N1232 0.984 . S
H1245 N1232 0.985 . S
C1246 C1247 1.363 . S
C1246 C1252 1.379 . S
C1246 N1254 1.356 . S
C1247 C1246 1.363 . S
C1247 C1253 1.363 . S
C1248 C1249 1.363 . S
C1248 C1253 1.379 . S
C1248 N1255 1.356 . S
C1249 C1248 1.363 . S
C1249 C1252 1.363 . S
N1250 C1252 1.356 . S
N1250 H1262 0.984 . S
N1250 H1263 0.985 . S
N1251 C1253 1.356 . S
N1251 H1256 0.984 . S
N1251 H1257 0.985 . S
C1252 C1246 1.379 . S
C1252 C1249 1.363 . S
C1252 N1250 1.356 . S
C1253 C1247 1.363 . S
C1253 C1248 1.379 . S
C1253 N1251 1.356 . S
N1254 C1246 1.356 . S
N1254 H1260 0.984 . S
N1254 H1261 0.984 . S
N1255 C1248 1.356 . S
N1255 H1258 0.984 . S
N1255 H1259 0.985 . S
H1256 N1251 0.984 . S
H1257 N1251 0.985 . S
H1258 N1255 0.984 . S
H1259 N1255 0.985 . S
H1260 N1254 0.984 . S
H1261 N1254 0.984 . S
H1262 N1250 0.984 . S
H1263 N1250 0.985 . S
C1264 C1265 1.363 . S
C1264 C1270 1.379 . S
C1264 N1272 1.356 . S
C1265 C1264 1.363 . S
C1265 C1271 1.363 . S
C1266 C1267 1.363 . S
C1266 C1271 1.379 . S
C1266 N1273 1.356 1_565 S
C1267 C1266 1.363 . S
C1267 C1270 1.363 . S
N1268 C1270 1.356 . S
N1268 H1280 0.984 . S
N1268 H1281 0.985 . S
N1269 C1271 1.356 . S
N1269 H1274 0.984 . S
N1269 H1275 0.985 . S
C1270 C1264 1.379 . S
C1270 C1267 1.363 . S
C1270 N1268 1.356 . S
C1271 C1265 1.363 . S
C1271 C1266 1.379 . S
C1271 N1269 1.356 . S
N1272 C1264 1.356 . S
N1272 H1278 0.984 . S
N1272 H1279 0.984 . S
N1273 C1266 1.356 1_545 S
N1273 H1276 0.984 . S
N1273 H1277 0.985 . S
H1274 N1269 0.984 . S
H1275 N1269 0.985 . S
H1276 N1273 0.984 . S
H1277 N1273 0.985 . S
H1278 N1272 0.984 . S
H1279 N1272 0.984 . S
H1280 N1268 0.984 . S
H1281 N1268 0.985 . S
C1282 C1283 1.363 . S
C1282 C1288 1.379 . S
C1282 N1290 1.356 . S
C1283 C1282 1.363 . S
C1283 C1289 1.363 1_554 S
C1284 C1285 1.331 1_556 S
C1284 C1289 1.389 . S
C1284 N1291 1.371 . S
C1285 C1284 1.331 1_554 S
C1285 C1288 1.363 . S
N1286 C1288 1.356 . S
N1286 H1298 0.984 . S
N1286 H1299 0.985 . S
N1287 C1289 1.356 . S
N1287 H1292 0.984 . S
N1287 H1293 0.985 . S
C1288 C1282 1.379 . S
C1288 C1285 1.363 . S
C1288 N1286 1.356 . S
C1289 C1283 1.363 1_556 S
C1289 C1284 1.389 . S
C1289 N1287 1.356 . S
N1290 C1282 1.356 . S
N1290 H1296 0.984 . S
N1290 H1297 0.984 . S
N1291 C1284 1.371 . S
N1291 H1294 0.984 . S
N1291 H1295 0.985 . S
H1292 N1287 0.984 . S
H1293 N1287 0.985 . S
H1294 N1291 0.984 . S
H1295 N1291 0.985 . S
H1296 N1290 0.984 . S
H1297 N1290 0.984 . S
H1298 N1286 0.984 . S
H1299 N1286 0.985 . S
C1300 C1301 1.363 . S
C1300 C1306 1.379 . S
C1300 N1308 1.356 . S
C1301 C1300 1.363 . S
C1301 C1307 1.363 . S
C1302 C1303 1.363 . S
C1302 C1307 1.379 . S
C1302 N1309 1.356 . S
C1303 C1302 1.363 . S
C1303 C1306 1.363 . S
N1304 C1306 1.356 . S
N1304 H1316 0.984 . S
N1304 H1317 0.985 . S
N1305 C1307 1.356 . S
N1305 H1310 0.984 . S
N1305 H1311 0.985 . S
C1306 C1300 1.379 . S
C1306 C1303 1.363 . S
C1306 N1304 1.356 . S
C1307 C1301 1.363 . S
C1307 C1302 1.379 . S
C1307 N1305 1.356 . S
N1308 C1300 1.356 . S
N1308 H1314 0.984 . S
N1308 H1315 0.984 . S
N1309 C1302 1.356 . S
N1309 H1312 0.984 . S
N1309 H1313 0.985 . S
H1310 N1305 0.984 . S
H1311 N1305 0.985 . S
H1312 N1309 0.984 . S
H1313 N1309 0.985 . S
H1314 N1308 0.984 . S
H1315 N1308 0.984 . S
H1316 N1304 0.984 . S
H1317 N1304 0.985 . S
C1318 C1319 1.363 . S
C1318 C1324 1.379 . S
C1318 N1326 1.356 . S
C1319 C1318 1.363 . S
C1319 C1325 1.363 . S
C1320 C1321 1.363 . S
C1320 C1325 1.379 . S
C1320 N1327 1.356 . S
C1321 C1320 1.363 . S
C1321 C1324 1.363 . S
N1322 C1324 1.356 . S
N1322 H1334 0.984 . S
N1322 H1335 0.985 . S
N1323 C1325 1.356 . S
N1323 H1328 0.984 . S
N1323 H1329 0.985 . S
C1324 C1318 1.379 . S
C1324 C1321 1.363 . S
C1324 N1322 1.356 . S
C1325 C1319 1.363 . S
C1325 C1320 1.379 . S
C1325 N1323 1.356 . S
N1326 C1318 1.356 . S
N1326 H1332 0.984 . S
N1326 H1333 0.984 . S
N1327 C1320 1.356 . S
N1327 H1330 0.984 . S
N1327 H1331 0.985 . S
H1328 N1323 0.984 . S
H1329 N1323 0.985 . S
H1330 N1327 0.984 . S
H1331 N1327 0.985 . S
H1332 N1326 0.984 . S
H1333 N1326 0.984 . S
H1334 N1322 0.984 . S
H1335 N1322 0.985 . S
C1336 C1337 1.363 . S
C1336 C1342 1.379 . S
C1336 N1344 1.356 . S
C1337 C1336 1.363 . S
C1337 C1343 1.363 . S
C1338 C1339 1.363 . S
C1338 C1343 1.379 . S
C1338 N1345 1.356 . S
C1339 C1338 1.363 . S
C1339 C1342 1.363 . S
N1340 C1342 1.356 . S
N1340 H1352 0.984 . S
N1340 H1353 0.985 . S
N1341 C1343 1.356 . S
N1341 H1346 0.984 . S
N1341 H1347 0.985 . S
C1342 C1336 1.379 . S
C1342 C1339 1.363 . S
C1342 N1340 1.356 . S
C1343 C1337 1.363 . S
C1343 C1338 1.379 . S
C1343 N1341 1.356 . S
N1344 C1336 1.356 . S
N1344 H1350 0.984 . S
N1344 H1351 0.984 . S
N1345 C1338 1.356 . S
N1345 H1348 0.984 . S
N1345 H1349 0.985 . S
H1346 N1341 0.984 . S
H1347 N1341 0.985 . S
H1348 N1345 0.984 . S
H1349 N1345 0.985 . S
H1350 N1344 0.984 . S
H1351 N1344 0.984 . S
H1352 N1340 0.984 . S
H1353 N1340 0.985 . S
C1354 C1355 1.363 . S
C1354 C1360 1.379 . S
C1354 N1362 1.356 . S
C1355 C1354 1.363 . S
C1355 C1361 1.363 . S
C1356 C1357 1.363 . S
C1356 C1361 1.379 . S
C1356 N1363 1.356 . S
C1357 C1356 1.363 . S
C1357 C1360 1.363 . S
N1358 C1360 1.356 . S
N1358 H1370 0.984 . S
N1358 H1371 0.985 . S
N1359 C1361 1.356 . S
N1359 H1364 0.984 . S
N1359 H1365 0.985 . S
C1360 C1354 1.379 . S
C1360 C1357 1.363 . S
C1360 N1358 1.356 . S
C1361 C1355 1.363 . S
C1361 C1356 1.379 . S
C1361 N1359 1.356 . S
N1362 C1354 1.356 . S
N1362 H1368 0.984 . S
N1362 H1369 0.984 . S
N1363 C1356 1.356 . S
N1363 H1366 0.984 . S
N1363 H1367 0.985 . S
H1364 N1359 0.984 . S
H1365 N1359 0.985 . S
H1366 N1363 0.984 . S
H1367 N1363 0.985 . S
H1368 N1362 0.984 . S
H1369 N1362 0.984 . S
H1370 N1358 0.984 . S
H1371 N1358 0.985 . S
C1372 C1373 1.363 . S
C1372 C1378 1.379 . S
C1372 N1380 1.356 . S
C1373 C1372 1.363 . S
C1373 C1379 1.363 . S
C1374 C1375 1.363 . S
C1374 C1379 1.379 . S
C1374 N1381 1.356 . S
C1375 C1374 1.363 . S
C1375 C1378 1.363 . S
N1376 C1378 1.356 . S
N1376 H1388 0.984 . S
N1376 H1389 0.985 . S
N1377 C1379 1.356 . S
N1377 H1382 0.984 . S
N1377 H1383 0.985 . S
C1378 C1372 1.379 . S
C1378 C1375 1.363 . S
C1378 N1376 1.356 . S
C1379 C1373 1.363 . S
C1379 C1374 1.379 . S
C1379 N1377 1.356 . S
N1380 C1372 1.356 . S
N1380 H1386 0.984 . S
N1380 H1387 0.984 . S
N1381 C1374 1.356 . S
N1381 H1384 0.984 . S
N1381 H1385 0.985 . S
H1382 N1377 0.984 . S
H1383 N1377 0.985 . S
H1384 N1381 0.984 . S
H1385 N1381 0.985 . S
H1386 N1380 0.984 . S
H1387 N1380 0.984 . S
H1388 N1376 0.984 . S
H1389 N1376 0.985 . S
C1390 C1391 1.363 . S
C1390 C1396 1.379 . S
C1390 N1398 1.356 1_655 S
C1391 C1390 1.363 . S
C1391 C1397 1.363 . S
C1392 C1393 1.363 . S
C1392 C1397 1.379 . S
C1392 N1399 1.356 . S
C1393 C1392 1.363 . S
C1393 C1396 1.363 . S
N1394 C1396 1.356 . S
N1394 H1406 0.984 . S
N1394 H1407 0.985 . S
N1395 C1397 1.356 . S
N1395 H1400 0.984 . S
N1395 H1401 0.985 . S
C1396 C1390 1.379 . S
C1396 C1393 1.363 . S
C1396 N1394 1.356 . S
C1397 C1391 1.363 . S
C1397 C1392 1.379 . S
C1397 N1395 1.356 . S
N1398 C1390 1.356 1_455 S
N1398 H1404 0.984 . S
N1398 H1405 0.984 . S
N1399 C1392 1.356 . S
N1399 H1402 0.984 . S
N1399 H1403 0.985 . S
H1400 N1395 0.984 . S
H1401 N1395 0.985 . S
H1402 N1399 0.984 . S
H1403 N1399 0.985 . S
H1404 N1398 0.984 . S
H1405 N1398 0.984 . S
H1406 N1394 0.984 . S
H1407 N1394 0.985 . S
C1408 C1409 1.363 . S
C1408 C1414 1.379 . S
C1408 N1416 1.356 . S
C1409 C1408 1.363 . S
C1409 C1415 1.363 . S
C1410 C1411 1.363 . S
C1410 C1415 1.379 . S
C1410 N1417 1.356 1_565 S
C1411 C1410 1.363 . S
C1411 C1414 1.363 . S
N1412 C1414 1.356 . S
N1412 H1424 0.984 . S
N1412 H1425 0.985 . S
N1413 C1415 1.356 . S
N1413 H1418 0.984 . S
N1413 H1419 0.985 1_565 S
C1414 C1408 1.379 . S
C1414 C1411 1.363 . S
C1414 N1412 1.356 . S
C1415 C1409 1.363 . S
C1415 C1410 1.379 . S
C1415 N1413 1.356 . S
N1416 C1408 1.356 . S
N1416 H1422 0.984 . S
N1416 H1423 0.984 . S
N1417 C1410 1.356 1_545 S
N1417 H1420 0.984 . S
N1417 H1421 0.985 . S
H1418 N1413 0.984 . S
H1419 N1413 0.985 1_545 S
H1420 N1417 0.984 . S
H1421 N1417 0.985 . S
H1422 N1416 0.984 . S
H1423 N1416 0.984 . S
H1424 N1412 0.984 . S
H1425 N1412 0.985 . S
C1426 C1427 1.363 . S
C1426 C1432 1.379 . S
C1426 N1434 1.356 . S
C1427 C1426 1.363 . S
C1427 C1433 1.363 . S
C1428 C1429 1.363 . S
C1428 C1433 1.379 . S
C1428 N1435 1.356 . S
C1429 C1428 1.363 . S
C1429 C1432 1.363 . S
N1430 C1432 1.356 . S
N1430 H1442 0.984 . S
N1430 H1443 0.985 . S
N1431 C1433 1.356 . S
N1431 H1436 0.984 . S
N1431 H1437 0.985 . S
C1432 C1426 1.379 . S
C1432 C1429 1.363 . S
C1432 N1430 1.356 . S
C1433 C1427 1.363 . S
C1433 C1428 1.379 . S
C1433 N1431 1.356 . S
N1434 C1426 1.356 . S
N1434 H1440 0.984 . S
N1434 H1441 0.984 . S
N1435 C1428 1.356 . S
N1435 H1438 0.984 . S
N1435 H1439 0.985 . S
H1436 N1431 0.984 . S
H1437 N1431 0.985 . S
H1438 N1435 0.984 . S
H1439 N1435 0.985 . S
H1440 N1434 0.984 . S
H1441 N1434 0.984 . S
H1442 N1430 0.984 . S
H1443 N1430 0.985 . S
C1444 C1445 1.363 . S
C1444 C1450 1.379 . S
C1444 N1452 1.356 . S
C1445 C1444 1.363 . S
C1445 C1451 1.363 . S
C1446 C1447 1.363 . S
C1446 C1451 1.379 . S
C1446 N1453 1.356 . S
C1447 C1446 1.363 . S
C1447 C1450 1.363 . S
N1448 C1450 1.356 . S
N1448 H1460 0.984 . S
N1448 H1461 0.985 . S
N1449 C1451 1.356 . S
N1449 H1454 0.984 . S
N1449 H1455 0.985 . S
C1450 C1444 1.379 . S
C1450 C1447 1.363 . S
C1450 N1448 1.356 . S
C1451 C1445 1.363 . S
C1451 C1446 1.379 . S
C1451 N1449 1.356 . S
N1452 C1444 1.356 . S
N1452 H1458 0.984 . S
N1452 H1459 0.984 . S
N1453 C1446 1.356 . S
N1453 H1456 0.984 . S
N1453 H1457 0.985 . S
H1454 N1449 0.984 . S
H1455 N1449 0.985 . S
H1456 N1453 0.984 . S
H1457 N1453 0.985 . S
H1458 N1452 0.984 . S
H1459 N1452 0.984 . S
H1460 N1448 0.984 . S
H1461 N1448 0.985 . S
C1462 C1463 1.363 . S
C1462 C1468 1.379 . S
C1462 N1470 1.356 . S
C1463 C1462 1.363 . S
C1463 C1469 1.363 . S
C1464 C1465 1.363 . S
C1464 C1469 1.379 . S
C1464 N1471 1.356 . S
C1465 C1464 1.363 . S
C1465 C1468 1.363 . S
N1466 C1468 1.356 . S
N1466 H1478 0.984 . S
N1466 H1479 0.985 . S
N1467 C1469 1.356 . S
N1467 H1472 0.984 . S
N1467 H1473 0.985 . S
C1468 C1462 1.379 . S
C1468 C1465 1.363 . S
C1468 N1466 1.356 . S
C1469 C1463 1.363 . S
C1469 C1464 1.379 . S
C1469 N1467 1.356 . S
N1470 C1462 1.356 . S
N1470 H1476 0.984 . S
N1470 H1477 0.984 . S
N1471 C1464 1.356 . S
N1471 H1474 0.984 . S
N1471 H1475 0.985 . S
H1472 N1467 0.984 . S
H1473 N1467 0.985 . S
H1474 N1471 0.984 . S
H1475 N1471 0.985 . S
H1476 N1470 0.984 . S
H1477 N1470 0.984 . S
H1478 N1466 0.984 . S
H1479 N1466 0.985 . S
C1480 C1481 1.363 . S
C1480 C1486 1.379 . S
C1480 N1488 1.356 . S
C1481 C1480 1.363 . S
C1481 C1487 1.363 . S
C1482 C1483 1.363 . S
C1482 C1487 1.379 . S
C1482 N1489 1.369 . S
C1483 C1482 1.363 . S
C1483 C1486 1.363 . S
N1484 C1486 1.356 . S
N1484 H1496 0.984 . S
N1484 H1497 0.985 . S
N1485 C1487 1.356 . S
N1485 H1490 0.984 . S
N1485 H1491 0.985 1_455 S
C1486 C1480 1.379 . S
C1486 C1483 1.363 . S
C1486 N1484 1.356 . S
C1487 C1481 1.363 . S
C1487 C1482 1.379 . S
C1487 N1485 1.356 . S
N1488 C1480 1.356 . S
N1488 H1494 0.984 . S
N1488 H1495 0.984 . S
N1489 C1482 1.369 . S
N1489 H1492 0.992 . S
N1489 H1493 0.965 1_455 S
H1490 N1485 0.984 . S
H1491 N1485 0.985 1_655 S
H1492 N1489 0.992 . S
H1493 N1489 0.965 1_655 S
H1494 N1488 0.984 . S
H1495 N1488 0.984 . S
H1496 N1484 0.984 . S
H1497 N1484 0.985 . S
C1498 C1499 1.363 . S
C1498 C1504 1.379 . S
C1498 N1506 1.356 . S
C1499 C1498 1.363 . S
C1499 C1505 1.363 . S
C1500 C1501 1.363 . S
C1500 C1505 1.379 . S
C1500 N1507 1.356 . S
C1501 C1500 1.363 . S
C1501 C1504 1.363 . S
N1502 C1504 1.356 . S
N1502 H1514 0.984 . S
N1502 H1515 0.985 . S
N1503 C1505 1.356 . S
N1503 H1508 0.984 . S
N1503 H1509 0.985 . S
C1504 C1498 1.379 . S
C1504 C1501 1.363 . S
C1504 N1502 1.356 . S
C1505 C1499 1.363 . S
C1505 C1500 1.379 . S
C1505 N1503 1.356 . S
N1506 C1498 1.356 . S
N1506 H1512 0.984 . S
N1506 H1513 0.984 . S
N1507 C1500 1.356 . S
N1507 H1510 0.984 . S
N1507 H1511 0.985 . S
H1508 N1503 0.984 . S
H1509 N1503 0.985 . S
H1510 N1507 0.984 . S
H1511 N1507 0.985 . S
H1512 N1506 0.984 . S
H1513 N1506 0.984 . S
H1514 N1502 0.984 . S
H1515 N1502 0.985 . S
C1516 C1517 1.363 . S
C1516 C1522 1.379 . S
C1516 N1524 1.356 . S
C1517 C1516 1.363 . S
C1517 C1523 1.363 . S
C1518 C1519 1.363 . S
C1518 C1523 1.379 . S
C1518 N1525 1.360 . S
C1519 C1518 1.363 . S
C1519 C1522 1.363 . S
N1520 C1522 1.356 . S
N1520 H1532 0.984 . S
N1520 H1533 0.985 . S
N1521 C1523 1.356 . S
N1521 H1526 0.984 . S
N1521 H1527 0.985 . S
C1522 C1516 1.379 . S
C1522 C1519 1.363 . S
C1522 N1520 1.356 . S
C1523 C1517 1.363 . S
C1523 C1518 1.379 . S
C1523 N1521 1.356 . S
N1524 C1516 1.356 . S
N1524 H1530 0.984 . S
N1524 H1531 0.984 . S
N1525 C1518 1.360 . S
N1525 H1528 0.983 1_556 S
N1525 H1529 0.983 1_556 S
H1526 N1521 0.984 . S
H1527 N1521 0.985 . S
H1528 N1525 0.983 1_554 S
H1529 N1525 0.983 1_554 S
H1530 N1524 0.984 . S
H1531 N1524 0.984 . S
H1532 N1520 0.984 . S
H1533 N1520 0.985 . S
C1534 C1535 1.363 . S
C1534 C1540 1.379 . S
C1534 N1542 1.356 . S
C1535 C1534 1.363 . S
C1535 C1541 1.363 . S
C1536 C1537 1.363 . S
C1536 C1541 1.379 . S
C1536 N1543 1.356 . S
C1537 C1536 1.363 . S
C1537 C1540 1.363 . S
N1538 C1540 1.356 . S
N1538 H1550 0.984 . S
N1538 H1551 0.985 . S
N1539 C1541 1.356 . S
N1539 H1544 0.984 . S
N1539 H1545 0.985 . S
C1540 C1534 1.379 . S
C1540 C1537 1.363 . S
C1540 N1538 1.356 . S
C1541 C1535 1.363 . S
C1541 C1536 1.379 . S
C1541 N1539 1.356 . S
N1542 C1534 1.356 . S
N1542 H1548 0.984 . S
N1542 H1549 0.984 . S
N1543 C1536 1.356 . S
N1543 H1546 0.984 . S
N1543 H1547 0.985 . S
H1544 N1539 0.984 . S
H1545 N1539 0.985 . S
H1546 N1543 0.984 . S
H1547 N1543 0.985 . S
H1548 N1542 0.984 . S
H1549 N1542 0.984 . S
H1550 N1538 0.984 . S
H1551 N1538 0.985 . S
C1552 C1553 1.363 . S
C1552 C1558 1.379 . S
C1552 N1560 1.356 . S
C1553 C1552 1.363 . S
C1553 C1559 1.363 . S
C1554 C1555 1.363 . S
C1554 C1559 1.379 . S
C1554 N1561 1.356 . S
C1555 C1554 1.363 . S
C1555 C1558 1.363 . S
N1556 C1558 1.356 . S
N1556 H1568 0.984 . S
N1556 H1569 0.985 . S
N1557 C1559 1.356 . S
N1557 H1562 0.984 . S
N1557 H1563 0.985 . S
C1558 C1552 1.379 . S
C1558 C1555 1.363 . S
C1558 N1556 1.356 . S
C1559 C1553 1.363 . S
C1559 C1554 1.379 . S
C1559 N1557 1.356 . S
N1560 C1552 1.356 . S
N1560 H1566 0.984 . S
N1560 H1567 0.984 . S
N1561 C1554 1.356 . S
N1561 H1564 0.984 1_556 S
N1561 H1565 0.985 1_556 S
H1562 N1557 0.984 . S
H1563 N1557 0.985 . S
H1564 N1561 0.984 1_554 S
H1565 N1561 0.985 1_554 S
H1566 N1560 0.984 . S
H1567 N1560 0.984 . S
H1568 N1556 0.984 . S
H1569 N1556 0.985 . S
C1570 C1571 1.363 . S
C1570 C1576 1.379 . S
C1570 N1578 1.356 . S
C1571 C1570 1.363 . S
C1571 C1577 1.363 . S
C1572 C1573 1.363 . S
C1572 C1577 1.379 . S
C1572 N1579 1.356 . S
C1573 C1572 1.363 . S
C1573 C1576 1.363 . S
N1574 C1576 1.356 . S
N1574 H1586 0.984 . S
N1574 H1587 0.985 . S
N1575 C1577 1.356 . S
N1575 H1580 0.984 . S
N1575 H1581 0.985 . S
C1576 C1570 1.379 . S
C1576 C1573 1.363 . S
C1576 N1574 1.356 . S
C1577 C1571 1.363 . S
C1577 C1572 1.379 . S
C1577 N1575 1.356 . S
N1578 C1570 1.356 . S
N1578 H1584 0.984 . S
N1578 H1585 0.984 . S
N1579 C1572 1.356 . S
N1579 H1582 0.984 . S
N1579 H1583 0.985 . S
H1580 N1575 0.984 . S
H1581 N1575 0.985 . S
H1582 N1579 0.984 . S
H1583 N1579 0.985 . S
H1584 N1578 0.984 . S
H1585 N1578 0.984 . S
H1586 N1574 0.984 . S
H1587 N1574 0.985 . S
C1588 C1589 1.363 . S
C1588 C1594 1.379 . S
C1588 N1596 1.356 . S
C1589 C1588 1.363 . S
C1589 C1595 1.363 . S
C1590 C1591 1.363 . S
C1590 C1595 1.379 . S
C1590 N1597 1.356 . S
C1591 C1590 1.363 . S
C1591 C1594 1.363 . S
N1592 C1594 1.356 . S
N1592 H1604 0.984 . S
N1592 H1605 0.985 . S
N1593 C1595 1.356 . S
N1593 H1598 0.984 . S
N1593 H1599 0.985 . S
C1594 C1588 1.379 . S
C1594 C1591 1.363 . S
C1594 N1592 1.356 . S
C1595 C1589 1.363 . S
C1595 C1590 1.379 . S
C1595 N1593 1.356 . S
N1596 C1588 1.356 . S
N1596 H1602 0.984 . S
N1596 H1603 0.984 . S
N1597 C1590 1.356 . S
N1597 H1600 0.984 . S
N1597 H1601 0.985 . S
H1598 N1593 0.984 . S
H1599 N1593 0.985 . S
H1600 N1597 0.984 . S
H1601 N1597 0.985 . S
H1602 N1596 0.984 . S
H1603 N1596 0.984 . S
H1604 N1592 0.984 . S
H1605 N1592 0.985 . S
C1606 C1607 1.363 . S
C1606 C1612 1.379 . S
C1606 N1614 1.356 . S
C1607 C1606 1.363 . S
C1607 C1613 1.363 . S
C1608 C1609 1.363 . S
C1608 C1613 1.379 . S
C1608 N1615 1.356 . S
C1609 C1608 1.363 . S
C1609 C1612 1.363 . S
N1610 C1612 1.356 . S
N1610 H1622 0.984 . S
N1610 H1623 0.985 . S
N1611 C1613 1.356 . S
N1611 H1616 0.984 . S
N1611 H1617 0.985 . S
C1612 C1606 1.379 . S
C1612 C1609 1.363 . S
C1612 N1610 1.356 . S
C1613 C1607 1.363 . S
C1613 C1608 1.379 . S
C1613 N1611 1.356 . S
N1614 C1606 1.356 . S
N1614 H1620 0.984 . S
N1614 H1621 0.984 . S
N1615 C1608 1.356 . S
N1615 H1618 0.984 . S
N1615 H1619 0.985 . S
H1616 N1611 0.984 . S
H1617 N1611 0.985 . S
H1618 N1615 0.984 . S
H1619 N1615 0.985 . S
H1620 N1614 0.984 . S
H1621 N1614 0.984 . S
H1622 N1610 0.984 . S
H1623 N1610 0.985 . S
C1624 C1625 1.363 . S
C1624 C1630 1.379 . S
C1624 N1632 1.356 . S
C1625 C1624 1.363 . S
C1625 C1631 1.363 . S
C1626 C1627 1.363 . S
C1626 C1631 1.379 . S
C1626 N1633 1.356 . S
C1627 C1626 1.363 . S
C1627 C1630 1.363 . S
N1628 C1630 1.356 . S
N1628 H1640 0.984 . S
N1628 H1641 0.985 . S
N1629 C1631 1.356 . S
N1629 H1634 0.984 . S
N1629 H1635 0.985 . S
C1630 C1624 1.379 . S
C1630 C1627 1.363 . S
C1630 N1628 1.356 . S
C1631 C1625 1.363 . S
C1631 C1626 1.379 . S
C1631 N1629 1.356 . S
N1632 C1624 1.356 . S
N1632 H1638 0.984 . S
N1632 H1639 0.984 . S
N1633 C1626 1.356 . S
N1633 H1636 0.984 . S
N1633 H1637 0.985 . S
H1634 N1629 0.984 . S
H1635 N1629 0.985 . S
H1636 N1633 0.984 . S
H1637 N1633 0.985 . S
H1638 N1632 0.984 . S
H1639 N1632 0.984 . S
H1640 N1628 0.984 . S
H1641 N1628 0.985 . S
C1642 C1643 1.363 . S
C1642 C1648 1.379 . S
C1642 N1650 1.356 . S
C1643 C1642 1.363 . S
C1643 C1649 1.363 . S
C1644 C1645 1.363 . S
C1644 C1649 1.379 . S
C1644 N1651 1.356 . S
C1645 C1644 1.363 . S
C1645 C1648 1.363 . S
N1646 C1648 1.356 . S
N1646 H1658 0.984 . S
N1646 H1659 0.985 . S
N1647 C1649 1.356 . S
N1647 H1652 0.984 . S
N1647 H1653 0.985 . S
C1648 C1642 1.379 . S
C1648 C1645 1.363 . S
C1648 N1646 1.356 . S
C1649 C1643 1.363 . S
C1649 C1644 1.379 . S
C1649 N1647 1.356 . S
N1650 C1642 1.356 . S
N1650 H1656 0.984 . S
N1650 H1657 0.984 . S
N1651 C1644 1.356 . S
N1651 H1654 0.984 . S
N1651 H1655 0.985 . S
H1652 N1647 0.984 . S
H1653 N1647 0.985 . S
H1654 N1651 0.984 . S
H1655 N1651 0.985 . S
H1656 N1650 0.984 . S
H1657 N1650 0.984 . S
H1658 N1646 0.984 . S
H1659 N1646 0.985 . S
C1660 C1661 1.363 . S
C1660 C1666 1.379 . S
C1660 N1668 1.356 . S
C1661 C1660 1.363 . S
C1661 C1667 1.363 . S
C1662 C1663 1.363 . S
C1662 C1667 1.379 . S
C1662 N1669 1.356 . S
C1663 C1662 1.363 . S
C1663 C1666 1.363 . S
N1664 C1666 1.356 . S
N1664 H1676 0.966 1_545 S
N1664 H1677 0.985 1_545 S
N1665 C1667 1.356 . S
N1665 H1670 0.984 . S
N1665 H1671 0.985 . S
C1666 C1660 1.379 . S
C1666 C1663 1.363 . S
C1666 N1664 1.356 . S
C1667 C1661 1.363 . S
C1667 C1662 1.379 . S
C1667 N1665 1.356 . S
N1668 C1660 1.356 . S
N1668 H1674 0.984 . S
N1668 H1675 0.984 . S
N1669 C1662 1.356 . S
N1669 H1672 0.984 . S
N1669 H1673 0.985 . S
H1670 N1665 0.984 . S
H1671 N1665 0.985 . S
H1672 N1669 0.984 . S
H1673 N1669 0.985 . S
H1674 N1668 0.984 . S
H1675 N1668 0.984 . S
H1676 N1664 0.966 1_565 S
H1677 N1664 0.985 1_565 S
C1678 C1679 1.363 . S
C1678 C1684 1.379 . S
C1678 N1686 1.356 . S
C1679 C1678 1.363 . S
C1679 C1685 1.363 . S
C1680 C1681 1.363 . S
C1680 C1685 1.379 . S
C1680 N1687 1.356 . S
C1681 C1680 1.363 . S
C1681 C1684 1.363 . S
N1682 C1684 1.356 . S
N1682 H1694 0.984 . S
N1682 H1695 0.985 . S
N1683 C1685 1.356 . S
N1683 H1688 0.984 . S
N1683 H1689 0.985 . S
C1684 C1678 1.379 . S
C1684 C1681 1.363 . S
C1684 N1682 1.356 . S
C1685 C1679 1.363 . S
C1685 C1680 1.379 . S
C1685 N1683 1.356 . S
N1686 C1678 1.356 . S
N1686 H1692 0.984 . S
N1686 H1693 0.984 . S
N1687 C1680 1.356 . S
N1687 H1690 0.984 . S
N1687 H1691 0.985 . S
H1688 N1683 0.984 . S
H1689 N1683 0.985 . S
H1690 N1687 0.984 . S
H1691 N1687 0.985 . S
H1692 N1686 0.984 . S
H1693 N1686 0.984 . S
H1694 N1682 0.984 . S
H1695 N1682 0.985 . S
C1696 C1697 1.363 1_554 S
C1696 C1702 1.379 1_554 S
C1696 N1704 1.356 . S
C1697 C1696 1.363 1_556 S
C1697 C1703 1.363 . S
C1698 C1699 1.363 . S
C1698 C1703 1.379 . S
C1698 N1705 1.356 . S
C1699 C1698 1.363 . S
C1699 C1702 1.363 . S
N1700 C1702 1.355 . S
N1700 H1712 0.988 1_556 S
N1700 H1713 0.982 . S
N1701 C1703 1.356 . S
N1701 H1706 0.984 . S
N1701 H1707 0.985 . S
C1702 C1696 1.379 1_556 S
C1702 C1699 1.363 . S
C1702 N1700 1.355 . S
C1703 C1697 1.363 . S
C1703 C1698 1.379 . S
C1703 N1701 1.356 . S
N1704 C1696 1.356 . S
N1704 H1710 0.984 . S
N1704 H1711 0.984 . S
N1705 C1698 1.356 . S
N1705 H1708 0.984 . S
N1705 H1709 0.985 . S
H1706 N1701 0.984 . S
H1707 N1701 0.985 . S
H1708 N1705 0.984 . S
H1709 N1705 0.985 . S
H1710 N1704 0.984 . S
H1711 N1704 0.984 . S
H1712 N1700 0.988 1_554 S
H1713 N1700 0.982 . S
C1714 C1715 1.363 . S
C1714 C1720 1.379 . S
C1714 N1722 1.356 . S
C1715 C1714 1.363 . S
C1715 C1721 1.363 . S
C1716 C1717 1.363 . S
C1716 C1721 1.379 . S
C1716 N1723 1.356 1_554 S
C1717 C1716 1.363 . S
C1717 C1720 1.363 . S
N1718 C1720 1.356 . S
N1718 H1730 0.984 . S
N1718 H1731 0.985 . S
N1719 C1721 1.356 1_556 S
N1719 H1724 0.984 1_556 S
N1719 H1725 0.985 . S
C1720 C1714 1.379 . S
C1720 C1717 1.363 . S
C1720 N1718 1.356 . S
C1721 C1715 1.363 . S
C1721 C1716 1.379 . S
C1721 N1719 1.356 1_554 S
N1722 C1714 1.356 . S
N1722 H1728 0.984 . S
N1722 H1729 0.984 . S
N1723 C1716 1.356 1_556 S
N1723 H1726 0.984 . S
N1723 H1727 0.985 . S
H1724 N1719 0.984 1_554 S
H1725 N1719 0.985 . S
H1726 N1723 0.984 . S
H1727 N1723 0.985 . S
H1728 N1722 0.984 . S
H1729 N1722 0.984 . S
H1730 N1718 0.984 . S
H1731 N1718 0.985 . S
C1732 C1733 1.363 . S
C1732 C1738 1.379 . S
C1732 N1740 1.356 . S
C1733 C1732 1.363 . S
C1733 C1739 1.363 . S
C1734 C1735 1.363 . S
C1734 C1739 1.379 . S
C1734 N1741 1.356 . S
C1735 C1734 1.363 . S
C1735 C1738 1.363 . S
N1736 C1738 1.356 . S
N1736 H1748 0.984 . S
N1736 H1749 0.985 . S
N1737 C1739 1.356 . S
N1737 H1742 0.984 . S
N1737 H1743 0.985 . S
C1738 C1732 1.379 . S
C1738 C1735 1.363 . S
C1738 N1736 1.356 . S
C1739 C1733 1.363 . S
C1739 C1734 1.379 . S
C1739 N1737 1.356 . S
N1740 C1732 1.356 . S
N1740 H1746 0.984 . S
N1740 H1747 0.984 . S
N1741 C1734 1.356 . S
N1741 H1744 0.984 . S
N1741 H1745 0.985 . S
H1742 N1737 0.984 . S
H1743 N1737 0.985 . S
H1744 N1741 0.984 . S
H1745 N1741 0.985 . S
H1746 N1740 0.984 . S
H1747 N1740 0.984 . S
H1748 N1736 0.984 . S
H1749 N1736 0.985 . S
C1750 C1751 1.363 . S
C1750 C1756 1.379 . S
C1750 N1758 1.356 . S
C1751 C1750 1.363 . S
C1751 C1757 1.363 . S
C1752 C1753 1.363 . S
C1752 C1757 1.379 . S
C1752 N1759 1.356 . S
C1753 C1752 1.363 . S
C1753 C1756 1.363 . S
N1754 C1756 1.356 . S
N1754 H1766 0.984 . S
N1754 H1767 0.985 . S
N1755 C1757 1.356 . S
N1755 H1760 0.984 . S
N1755 H1761 0.985 . S
C1756 C1750 1.379 . S
C1756 C1753 1.363 . S
C1756 N1754 1.356 . S
C1757 C1751 1.363 . S
C1757 C1752 1.379 . S
C1757 N1755 1.356 . S
N1758 C1750 1.356 . S
N1758 H1764 0.984 . S
N1758 H1765 0.984 . S
N1759 C1752 1.356 . S
N1759 H1762 0.984 . S
N1759 H1763 0.985 . S
H1760 N1755 0.984 . S
H1761 N1755 0.985 . S
H1762 N1759 0.984 . S
H1763 N1759 0.985 . S
H1764 N1758 0.984 . S
H1765 N1758 0.984 . S
H1766 N1754 0.984 . S
H1767 N1754 0.985 . S
C1768 C1769 1.363 . S
C1768 C1774 1.379 . S
C1768 N1776 1.356 . S
C1769 C1768 1.363 . S
C1769 C1775 1.363 . S
C1770 C1771 1.363 . S
C1770 C1775 1.379 . S
C1770 N1777 1.356 . S
C1771 C1770 1.363 . S
C1771 C1774 1.363 . S
N1772 C1774 1.356 . S
N1772 H1784 0.984 . S
N1772 H1785 0.985 . S
N1773 C1775 1.356 . S
N1773 H1778 0.984 . S
N1773 H1779 0.985 1_565 S
C1774 C1768 1.379 . S
C1774 C1771 1.363 . S
C1774 N1772 1.356 . S
C1775 C1769 1.363 . S
C1775 C1770 1.379 . S
C1775 N1773 1.356 . S
N1776 C1768 1.356 . S
N1776 H1782 0.984 . S
N1776 H1783 0.984 . S
N1777 C1770 1.356 . S
N1777 H1780 0.984 . S
N1777 H1781 0.977 1_565 S
H1778 N1773 0.984 . S
H1779 N1773 0.985 1_545 S
H1780 N1777 0.984 . S
H1781 N1777 0.977 1_545 S
H1782 N1776 0.984 . S
H1783 N1776 0.984 . S
H1784 N1772 0.984 . S
H1785 N1772 0.985 . S
C1786 C1787 1.363 . S
C1786 C1792 1.379 . S
C1786 N1794 1.356 . S
C1787 C1786 1.363 . S
C1787 C1793 1.363 . S
C1788 C1789 1.363 . S
C1788 C1793 1.379 . S
C1788 N1795 1.356 1_565 S
C1789 C1788 1.363 . S
C1789 C1792 1.363 . S
N1790 C1792 1.356 . S
N1790 H1802 0.984 . S
N1790 H1803 0.985 . S
N1791 C1793 1.356 . S
N1791 H1796 0.984 . S
N1791 H1797 0.985 . S
C1792 C1786 1.379 . S
C1792 C1789 1.363 . S
C1792 N1790 1.356 . S
C1793 C1787 1.363 . S
C1793 C1788 1.379 . S
C1793 N1791 1.356 . S
N1794 C1786 1.356 . S
N1794 H1800 0.984 . S
N1794 H1801 0.984 . S
N1795 C1788 1.356 1_545 S
N1795 H1798 0.984 . S
N1795 H1799 0.985 . S
H1796 N1791 0.984 . S
H1797 N1791 0.985 . S
H1798 N1795 0.984 . S
H1799 N1795 0.985 . S
H1800 N1794 0.984 . S
H1801 N1794 0.984 . S
H1802 N1790 0.984 . S
H1803 N1790 0.985 . S
C1804 C1805 1.363 . S
C1804 C1810 1.379 . S
C1804 N1812 1.356 . S
C1805 C1804 1.363 . S
C1805 C1811 1.363 . S
C1806 C1807 1.363 . S
C1806 C1811 1.379 . S
C1806 N1813 1.356 . S
C1807 C1806 1.363 . S
C1807 C1810 1.363 . S
N1808 C1810 1.356 . S
N1808 H1820 0.984 . S
N1808 H1821 0.985 . S
N1809 C1811 1.356 . S
N1809 H1814 0.984 . S
N1809 H1815 0.985 . S
C1810 C1804 1.379 . S
C1810 C1807 1.363 . S
C1810 N1808 1.356 . S
C1811 C1805 1.363 . S
C1811 C1806 1.379 . S
C1811 N1809 1.356 . S
N1812 C1804 1.356 . S
N1812 H1818 0.984 . S
N1812 H1819 0.984 . S
N1813 C1806 1.356 . S
N1813 H1816 0.984 . S
N1813 H1817 0.985 . S
H1814 N1809 0.984 . S
H1815 N1809 0.985 . S
H1816 N1813 0.984 . S
H1817 N1813 0.985 . S
H1818 N1812 0.984 . S
H1819 N1812 0.984 . S
H1820 N1808 0.984 . S
H1821 N1808 0.985 . S
C1822 C1823 1.363 . S
C1822 C1828 1.379 . S
C1822 N1830 1.356 . S
C1823 C1822 1.363 . S
C1823 C1829 1.363 . S
C1824 C1825 1.363 . S
C1824 C1829 1.379 . S
C1824 N1831 1.356 . S
C1825 C1824 1.363 . S
C1825 C1828 1.363 . S
N1826 C1828 1.356 . S
N1826 H1838 0.984 . S
N1826 H1839 0.985 . S
N1827 C1829 1.356 . S
N1827 H1832 0.984 . S
N1827 H1833 0.985 . S
C1828 C1822 1.379 . S
C1828 C1825 1.363 . S
C1828 N1826 1.356 . S
C1829 C1823 1.363 . S
C1829 C1824 1.379 . S
C1829 N1827 1.356 . S
N1830 C1822 1.356 . S
N1830 H1836 0.984 . S
N1830 H1837 0.984 . S
N1831 C1824 1.356 . S
N1831 H1834 0.984 . S
N1831 H1835 0.985 . S
H1832 N1827 0.984 . S
H1833 N1827 0.985 . S
H1834 N1831 0.984 . S
H1835 N1831 0.985 . S
H1836 N1830 0.984 . S
H1837 N1830 0.984 . S
H1838 N1826 0.984 . S
H1839 N1826 0.985 . S
C1840 C1841 1.363 . S
C1840 C1846 1.379 . S
C1840 N1848 1.356 . S
C1841 C1840 1.363 . S
C1841 C1847 1.363 . S
C1842 C1843 1.363 . S
C1842 C1847 1.379 . S
C1842 N1849 1.356 . S
C1843 C1842 1.363 . S
C1843 C1846 1.363 . S
N1844 C1846 1.356 . S
N1844 H1856 0.984 . S
N1844 H1857 0.985 . S
N1845 C1847 1.356 . S
N1845 H1850 0.984 . S
N1845 H1851 0.985 . S
C1846 C1840 1.379 . S
C1846 C1843 1.363 . S
C1846 N1844 1.356 . S
C1847 C1841 1.363 . S
C1847 C1842 1.379 . S
C1847 N1845 1.356 . S
N1848 C1840 1.356 . S
N1848 H1854 0.984 . S
N1848 H1855 0.984 . S
N1849 C1842 1.356 . S
N1849 H1852 0.984 . S
N1849 H1853 0.985 . S
H1850 N1845 0.984 . S
H1851 N1845 0.985 . S
H1852 N1849 0.984 . S
H1853 N1849 0.985 . S
H1854 N1848 0.984 . S
H1855 N1848 0.984 . S
H1856 N1844 0.984 . S
H1857 N1844 0.985 . S
C1858 C1859 1.363 . S
C1858 C1864 1.379 . S
C1858 N1866 1.356 . S
C1859 C1858 1.363 . S
C1859 C1865 1.363 . S
C1860 C1861 1.363 . S
C1860 C1865 1.379 . S
C1860 N1867 1.356 . S
C1861 C1860 1.363 . S
C1861 C1864 1.363 . S
N1862 C1864 1.356 . S
N1862 H1874 0.984 . S
N1862 H1875 0.985 . S
N1863 C1865 1.356 . S
N1863 H1868 0.984 . S
N1863 H1869 0.985 . S
C1864 C1858 1.379 . S
C1864 C1861 1.363 . S
C1864 N1862 1.356 . S
C1865 C1859 1.363 . S
C1865 C1860 1.379 . S
C1865 N1863 1.356 . S
N1866 C1858 1.356 . S
N1866 H1872 0.984 . S
N1866 H1873 0.984 . S
N1867 C1860 1.356 . S
N1867 H1870 0.984 . S
N1867 H1871 0.985 . S
H1868 N1863 0.984 . S
H1869 N1863 0.985 . S
H1870 N1867 0.984 . S
H1871 N1867 0.985 . S
H1872 N1866 0.984 . S
H1873 N1866 0.984 . S
H1874 N1862 0.984 . S
H1875 N1862 0.985 . S
C1876 C1877 1.363 1_655 S
C1876 C1882 1.379 . S
C1876 N1884 1.356 . S
C1877 C1876 1.363 1_455 S
C1877 C1883 1.363 . S
C1878 C1879 1.363 . S
C1878 C1883 1.379 . S
C1878 N1885 1.356 . S
C1879 C1878 1.363 . S
C1879 C1882 1.363 1_455 S
N1880 C1882 1.356 . S
N1880 H1892 0.984 . S
N1880 H1893 0.985 . S
N1881 C1883 1.356 . S
N1881 H1886 0.984 . S
N1881 H1887 0.985 . S
C1882 C1876 1.379 . S
C1882 C1879 1.363 1_655 S
C1882 N1880 1.356 . S
C1883 C1877 1.363 . S
C1883 C1878 1.379 . S
C1883 N1881 1.356 . S
N1884 C1876 1.356 . S
N1884 H1890 0.984 . S
N1884 H1891 0.984 . S
N1885 C1878 1.356 . S
N1885 H1888 0.984 . S
N1885 H1889 0.985 . S
H1886 N1881 0.984 . S
H1887 N1881 0.985 . S
H1888 N1885 0.984 . S
H1889 N1885 0.985 . S
H1890 N1884 0.984 . S
H1891 N1884 0.984 . S
H1892 N1880 0.984 . S
H1893 N1880 0.985 . S
C1894 C1895 1.363 . S
C1894 C1900 1.379 . S
C1894 N1902 1.356 . S
C1895 C1894 1.363 . S
C1895 C1901 1.363 . S
C1896 C1897 1.363 . S
C1896 C1901 1.379 . S
C1896 N1903 1.356 . S
C1897 C1896 1.363 . S
C1897 C1900 1.363 . S
N1898 C1900 1.356 1_655 S
N1898 H1910 0.984 . S
N1898 H1911 0.985 . S
N1899 C1901 1.356 . S
N1899 H1904 0.984 . S
N1899 H1905 0.985 . S
C1900 C1894 1.379 . S
C1900 C1897 1.363 . S
C1900 N1898 1.356 1_455 S
C1901 C1895 1.363 . S
C1901 C1896 1.379 . S
C1901 N1899 1.356 . S
N1902 C1894 1.356 . S
N1902 H1908 0.984 . S
N1902 H1909 0.984 . S
N1903 C1896 1.356 . S
N1903 H1906 0.984 . S
N1903 H1907 0.985 . S
H1904 N1899 0.984 . S
H1905 N1899 0.985 . S
H1906 N1903 0.984 . S
H1907 N1903 0.985 . S
H1908 N1902 0.984 . S
H1909 N1902 0.984 . S
H1910 N1898 0.984 . S
H1911 N1898 0.985 . S
C1912 C1913 1.363 . S
C1912 C1918 1.379 . S
C1912 N1920 1.356 . S
C1913 C1912 1.363 . S
C1913 C1919 1.363 . S
C1914 C1915 1.363 . S
C1914 C1919 1.379 . S
C1914 N1921 1.356 . S
C1915 C1914 1.363 . S
C1915 C1918 1.363 . S
N1916 C1918 1.356 . S
N1916 H1928 0.984 . S
N1916 H1929 0.985 . S
N1917 C1919 1.356 . S
N1917 H1922 0.984 . S
N1917 H1923 0.985 . S
C1918 C1912 1.379 . S
C1918 C1915 1.363 . S
C1918 N1916 1.356 . S
C1919 C1913 1.363 . S
C1919 C1914 1.379 . S
C1919 N1917 1.356 . S
N1920 C1912 1.356 . S
N1920 H1926 0.984 . S
N1920 H1927 0.984 . S
N1921 C1914 1.356 . S
N1921 H1924 0.984 . S
N1921 H1925 0.985 . S
H1922 N1917 0.984 . S
H1923 N1917 0.985 . S
H1924 N1921 0.984 . S
H1925 N1921 0.985 . S
H1926 N1920 0.984 . S
H1927 N1920 0.984 . S
H1928 N1916 0.984 . S
H1929 N1916 0.985 . S
C1930 C1931 1.363 . S
C1930 C1936 1.379 . S
C1930 N1938 1.356 . S
C1931 C1930 1.363 . S
C1931 C1937 1.363 . S
C1932 C1933 1.363 . S
C1932 C1937 1.379 . S
C1932 N1939 1.356 . S
C1933 C1932 1.363 . S
C1933 C1936 1.363 . S
N1934 C1936 1.356 . S
N1934 H1946 0.984 . S
N1934 H1947 0.985 . S
N1935 C1937 1.356 . S
N1935 H1940 0.984 . S
N1935 H1941 0.985 . S
C1936 C1930 1.379 . S
C1936 C1933 1.363 . S
C1936 N1934 1.356 . S
C1937 C1931 1.363 . S
C1937 C1932 1.379 . S
C1937 N1935 1.356 . S
N1938 C1930 1.356 . S
N1938 H1944 0.984 . S
N1938 H1945 0.987 . S
N1939 C1932 1.356 . S
N1939 H1942 0.984 . S
N1939 H1943 0.985 . S
H1940 N1935 0.984 . S
H1941 N1935 0.985 . S
H1942 N1939 0.984 . S
H1943 N1939 0.985 . S
H1944 N1938 0.984 . S
H1945 N1938 0.987 . S
H1946 N1934 0.984 . S
H1947 N1934 0.985 . S
C1948 C1949 1.363 . S
C1948 C1954 1.379 . S
C1948 N1956 1.356 . S
C1949 C1948 1.363 . S
C1949 C1955 1.363 . S
C1950 C1951 1.363 . S
C1950 C1955 1.379 . S
C1950 N1957 1.356 . S
C1951 C1950 1.363 . S
C1951 C1954 1.363 . S
N1952 C1954 1.356 . S
N1952 H1964 0.984 1_455 S
N1952 H1965 0.985 . S
N1953 C1955 1.356 . S
N1953 H1958 0.984 . S
N1953 H1959 0.985 . S
C1954 C1948 1.379 . S
C1954 C1951 1.363 . S
C1954 N1952 1.356 . S
C1955 C1949 1.363 . S
C1955 C1950 1.379 . S
C1955 N1953 1.356 . S
N1956 C1948 1.356 . S
N1956 H1962 0.984 1_455 S
N1956 H1963 0.984 . S
N1957 C1950 1.356 . S
N1957 H1960 0.984 . S
N1957 H1961 0.985 . S
H1958 N1953 0.984 . S
H1959 N1953 0.985 . S
H1960 N1957 0.984 . S
H1961 N1957 0.985 . S
H1962 N1956 0.984 1_655 S
H1963 N1956 0.984 . S
H1964 N1952 0.984 1_655 S
H1965 N1952 0.985 . S
C1966 C1967 1.363 . S
C1966 C1972 1.379 . S
C1966 N1974 1.356 . S
C1967 C1966 1.363 . S
C1967 C1973 1.363 . S
C1968 C1969 1.363 . S
C1968 C1973 1.379 . S
C1968 N1975 1.356 . S
C1969 C1968 1.363 . S
C1969 C1972 1.363 . S
N1970 C1972 1.356 . S
N1970 H1982 0.984 . S
N1970 H1983 0.985 . S
N1971 C1973 1.356 . S
N1971 H1976 0.984 . S
N1971 H1977 0.985 . S
C1972 C1966 1.379 . S
C1972 C1969 1.363 . S
C1972 N1970 1.356 . S
C1973 C1967 1.363 . S
C1973 C1968 1.379 . S
C1973 N1971 1.356 . S
N1974 C1966 1.356 . S
N1974 H1980 0.984 . S
N1974 H1981 0.984 . S
N1975 C1968 1.356 . S
N1975 H1978 0.984 . S
N1975 H1979 0.985 . S
H1976 N1971 0.984 . S
H1977 N1971 0.985 . S
H1978 N1975 0.984 . S
H1979 N1975 0.985 . S
H1980 N1974 0.984 . S
H1981 N1974 0.984 . S
H1982 N1970 0.984 . S
H1983 N1970 0.985 . S
C1984 C1985 1.363 . S
C1984 C1990 1.379 . S
C1984 N1992 1.356 . S
C1985 C1984 1.363 . S
C1985 C1991 1.363 . S
C1986 C1987 1.363 . S
C1986 C1991 1.379 . S
C1986 N1993 1.356 . S
C1987 C1986 1.363 . S
C1987 C1990 1.363 . S
N1988 C1990 1.356 . S
N1988 H2000 0.984 . S
N1988 H2001 0.985 . S
N1989 C1991 1.356 . S
N1989 H1994 0.984 . S
N1989 H1995 0.985 . S
C1990 C1984 1.379 . S
C1990 C1987 1.363 . S
C1990 N1988 1.356 . S
C1991 C1985 1.363 . S
C1991 C1986 1.379 . S
C1991 N1989 1.356 . S
N1992 C1984 1.356 . S
N1992 H1998 0.984 . S
N1992 H1999 0.984 . S
N1993 C1986 1.356 . S
N1993 H1996 0.984 . S
N1993 H1997 0.985 . S
H1994 N1989 0.984 . S
H1995 N1989 0.985 . S
H1996 N1993 0.984 . S
H1997 N1993 0.985 . S
H1998 N1992 0.984 . S
H1999 N1992 0.984 . S
H2000 N1988 0.984 . S
H2001 N1988 0.985 . S
C2002 C2003 1.363 . S
C2002 C2008 1.379 . S
C2002 N2010 1.356 . S
C2003 C2002 1.363 . S
C2003 C2009 1.363 . S
C2004 C2005 1.363 . S
C2004 C2009 1.379 . S
C2004 N2011 1.356 . S
C2005 C2004 1.363 . S
C2005 C2008 1.363 . S
N2006 C2008 1.356 . S
N2006 H2018 0.984 . S
N2006 H2019 0.985 . S
N2007 C2009 1.356 . S
N2007 H2012 0.984 . S
N2007 H2013 0.985 . S
C2008 C2002 1.379 . S
C2008 C2005 1.363 . S
C2008 N2006 1.356 . S
C2009 C2003 1.363 . S
C2009 C2004 1.379 . S
C2009 N2007 1.356 . S
N2010 C2002 1.356 . S
N2010 H2016 0.984 . S
N2010 H2017 0.984 . S
N2011 C2004 1.356 . S
N2011 H2014 0.984 . S
N2011 H2015 0.985 . S
H2012 N2007 0.984 . S
H2013 N2007 0.985 . S
H2014 N2011 0.984 . S
H2015 N2011 0.985 . S
H2016 N2010 0.984 . S
H2017 N2010 0.984 . S
H2018 N2006 0.984 . S
H2019 N2006 0.985 . S
C2020 C2021 1.363 . S
C2020 C2026 1.379 . S
C2020 N2028 1.356 . S
C2021 C2020 1.363 . S
C2021 C2027 1.363 . S
C2022 C2023 1.363 . S
C2022 C2027 1.379 . S
C2022 N2029 1.356 . S
C2023 C2022 1.363 . S
C2023 C2026 1.363 . S
N2024 C2026 1.356 . S
N2024 H2036 0.984 . S
N2024 H2037 0.985 . S
N2025 C2027 1.356 . S
N2025 H2030 0.984 . S
N2025 H2031 0.985 . S
C2026 C2020 1.379 . S
C2026 C2023 1.363 . S
C2026 N2024 1.356 . S
C2027 C2021 1.363 . S
C2027 C2022 1.379 . S
C2027 N2025 1.356 . S
N2028 C2020 1.356 . S
N2028 H2034 0.984 . S
N2028 H2035 0.984 . S
N2029 C2022 1.356 . S
N2029 H2032 0.984 . S
N2029 H2033 0.985 . S
H2030 N2025 0.984 . S
H2031 N2025 0.985 . S
H2032 N2029 0.984 . S
H2033 N2029 0.985 . S
H2034 N2028 0.984 . S
H2035 N2028 0.984 . S
H2036 N2024 0.984 . S
H2037 N2024 0.985 . S
C2038 C2039 1.363 . S
C2038 C2044 1.379 . S
C2038 N2046 1.356 . S
C2039 C2038 1.363 . S
C2039 C2045 1.363 . S
C2040 C2041 1.363 . S
C2040 C2045 1.379 . S
C2040 N2047 1.356 . S
C2041 C2040 1.363 . S
C2041 C2044 1.363 . S
N2042 C2044 1.356 . S
N2042 H2054 0.984 . S
N2042 H2055 0.985 . S
N2043 C2045 1.356 . S
N2043 H2048 0.984 . S
N2043 H2049 0.985 . S
C2044 C2038 1.379 . S
C2044 C2041 1.363 . S
C2044 N2042 1.356 . S
C2045 C2039 1.363 . S
C2045 C2040 1.379 . S
C2045 N2043 1.356 . S
N2046 C2038 1.356 . S
N2046 H2052 0.984 . S
N2046 H2053 0.984 . S
N2047 C2040 1.356 . S
N2047 H2050 0.984 . S
N2047 H2051 0.985 . S
H2048 N2043 0.984 . S
H2049 N2043 0.985 . S
H2050 N2047 0.984 . S
H2051 N2047 0.985 . S
H2052 N2046 0.984 . S
H2053 N2046 0.984 . S
H2054 N2042 0.984 . S
H2055 N2042 0.985 . S
C2056 C2057 1.363 . S
C2056 C2062 1.379 . S
C2056 N2064 1.356 . S
C2057 C2056 1.363 . S
C2057 C2063 1.363 . S
C2058 C2059 1.363 . S
C2058 C2063 1.379 . S
C2058 N2065 1.356 . S
C2059 C2058 1.363 . S
C2059 C2062 1.363 . S
N2060 C2062 1.356 . S
N2060 H2072 0.984 . S
N2060 H2073 0.985 . S
N2061 C2063 1.356 . S
N2061 H2066 0.984 . S
N2061 H2067 0.985 . S
C2062 C2056 1.379 . S
C2062 C2059 1.363 . S
C2062 N2060 1.356 . S
C2063 C2057 1.363 . S
C2063 C2058 1.379 . S
C2063 N2061 1.356 . S
N2064 C2056 1.356 . S
N2064 H2070 0.984 . S
N2064 H2071 0.984 . S
N2065 C2058 1.356 . S
N2065 H2068 0.984 . S
N2065 H2069 0.985 . S
H2066 N2061 0.984 . S
H2067 N2061 0.985 . S
H2068 N2065 0.984 . S
H2069 N2065 0.985 . S
H2070 N2064 0.984 . S
H2071 N2064 0.984 . S
H2072 N2060 0.984 . S
H2073 N2060 0.985 . S
C2074 C2075 1.363 . S
C2074 C2080 1.379 . S
C2074 N2082 1.356 . S
C2075 C2074 1.363 . S
C2075 C2081 1.363 . S
C2076 C2077 1.363 . S
C2076 C2081 1.379 . S
C2076 N2083 1.356 . S
C2077 C2076 1.363 . S
C2077 C2080 1.363 . S
N2078 C2080 1.356 . S
N2078 H2090 0.984 . S
N2078 H2091 0.985 . S
N2079 C2081 1.356 . S
N2079 H2084 0.984 . S
N2079 H2085 0.985 . S
C2080 C2074 1.379 . S
C2080 C2077 1.363 . S
C2080 N2078 1.356 . S
C2081 C2075 1.363 . S
C2081 C2076 1.379 . S
C2081 N2079 1.356 . S
N2082 C2074 1.356 . S
N2082 H2088 0.984 . S
N2082 H2089 0.984 . S
N2083 C2076 1.356 . S
N2083 H2086 0.984 . S
N2083 H2087 0.985 . S
H2084 N2079 0.984 . S
H2085 N2079 0.985 . S
H2086 N2083 0.984 . S
H2087 N2083 0.985 . S
H2088 N2082 0.984 . S
H2089 N2082 0.984 . S
H2090 N2078 0.984 . S
H2091 N2078 0.985 . S
C2092 C2093 1.363 . S
C2092 C2098 1.379 . S
C2092 N2100 1.356 . S
C2093 C2092 1.363 . S
C2093 C2099 1.363 . S
C2094 C2095 1.363 . S
C2094 C2099 1.379 . S
C2094 N2101 1.356 . S
C2095 C2094 1.363 . S
C2095 C2098 1.363 . S
N2096 C2098 1.356 . S
N2096 H2108 0.984 . S
N2096 H2109 0.985 . S
N2097 C2099 1.356 . S
N2097 H2102 0.984 . S
N2097 H2103 0.985 . S
C2098 C2092 1.379 . S
C2098 C2095 1.363 . S
C2098 N2096 1.356 . S
C2099 C2093 1.363 . S
C2099 C2094 1.379 . S
C2099 N2097 1.356 . S
N2100 C2092 1.356 . S
N2100 H2106 0.984 . S
N2100 H2107 0.984 . S
N2101 C2094 1.356 . S
N2101 H2104 0.984 . S
N2101 H2105 0.985 . S
H2102 N2097 0.984 . S
H2103 N2097 0.985 . S
H2104 N2101 0.984 . S
H2105 N2101 0.985 . S
H2106 N2100 0.984 . S
H2107 N2100 0.984 . S
H2108 N2096 0.984 . S
H2109 N2096 0.985 . S
C2110 C2111 1.363 . S
C2110 C2116 1.379 . S
C2110 N2118 1.356 . S
C2111 C2110 1.363 . S
C2111 C2117 1.363 . S
C2112 C2113 1.363 . S
C2112 C2117 1.379 . S
C2112 N2119 1.356 . S
C2113 C2112 1.363 . S
C2113 C2116 1.363 . S
N2114 C2116 1.356 . S
N2114 H2126 0.984 . S
N2114 H2127 0.985 . S
N2115 C2117 1.356 . S
N2115 H2120 0.984 . S
N2115 H2121 0.985 . S
C2116 C2110 1.379 . S
C2116 C2113 1.363 . S
C2116 N2114 1.356 . S
C2117 C2111 1.363 . S
C2117 C2112 1.379 . S
C2117 N2115 1.356 . S
N2118 C2110 1.356 . S
N2118 H2124 0.984 . S
N2118 H2125 0.984 . S
N2119 C2112 1.356 . S
N2119 H2122 0.984 . S
N2119 H2123 0.985 . S
H2120 N2115 0.984 . S
H2121 N2115 0.985 . S
H2122 N2119 0.984 . S
H2123 N2119 0.985 . S
H2124 N2118 0.984 . S
H2125 N2118 0.984 . S
H2126 N2114 0.984 . S
H2127 N2114 0.985 . S
C2128 C2129 1.363 . S
C2128 C2134 1.379 . S
C2128 N2136 1.356 . S
C2129 C2128 1.363 . S
C2129 C2135 1.363 . S
C2130 C2131 1.363 . S
C2130 C2135 1.379 . S
C2130 N2137 1.356 . S
C2131 C2130 1.363 . S
C2131 C2134 1.363 . S
N2132 C2134 1.356 . S
N2132 H2144 0.984 . S
N2132 H2145 0.985 . S
N2133 C2135 1.356 . S
N2133 H2138 0.984 . S
N2133 H2139 0.985 . S
C2134 C2128 1.379 . S
C2134 C2131 1.363 . S
C2134 N2132 1.356 . S
C2135 C2129 1.363 . S
C2135 C2130 1.379 . S
C2135 N2133 1.356 . S
N2136 C2128 1.356 . S
N2136 H2142 0.984 . S
N2136 H2143 0.984 . S
N2137 C2130 1.356 . S
N2137 H2140 0.984 . S
N2137 H2141 0.985 . S
H2138 N2133 0.984 . S
H2139 N2133 0.985 . S
H2140 N2137 0.984 . S
H2141 N2137 0.985 . S
H2142 N2136 0.984 . S
H2143 N2136 0.984 . S
H2144 N2132 0.984 . S
H2145 N2132 0.985 . S
C2146 C2147 1.363 . S
C2146 C2152 1.379 . S
C2146 N2154 1.356 . S
C2147 C2146 1.363 . S
C2147 C2153 1.363 . S
C2148 C2149 1.363 . S
C2148 C2153 1.379 . S
C2148 N2155 1.356 . S
C2149 C2148 1.363 . S
C2149 C2152 1.363 . S
N2150 C2152 1.356 . S
N2150 H2162 0.984 . S
N2150 H2163 0.985 . S
N2151 C2153 1.356 . S
N2151 H2156 0.984 . S
N2151 H2157 0.985 . S
C2152 C2146 1.379 . S
C2152 C2149 1.363 . S
C2152 N2150 1.356 . S
C2153 C2147 1.363 . S
C2153 C2148 1.379 . S
C2153 N2151 1.356 . S
N2154 C2146 1.356 . S
N2154 H2160 0.984 . S
N2154 H2161 0.984 . S
N2155 C2148 1.356 . S
N2155 H2158 0.984 . S
N2155 H2159 0.985 . S
H2156 N2151 0.984 . S
H2157 N2151 0.985 . S
H2158 N2155 0.984 . S
H2159 N2155 0.985 . S
H2160 N2154 0.984 . S
H2161 N2154 0.984 . S
H2162 N2150 0.984 . S
H2163 N2150 0.985 . S
C2164 C2165 1.329 1_565 S
C2164 C2170 1.403 . S
C2164 N2172 1.357 1_565 S
C2165 C2164 1.329 1_545 S
C2165 C2171 1.363 . S
C2166 C2167 1.363 1_545 S
C2166 C2171 1.379 . S
C2166 N2173 1.356 1_545 S
C2167 C2166 1.363 1_565 S
C2167 C2170 1.363 . S
N2168 C2170 1.356 . S
N2168 H2180 0.984 . S
N2168 H2181 0.985 . S
N2169 C2171 1.356 . S
N2169 H2174 0.984 . S
N2169 H2175 0.985 . S
C2170 C2164 1.403 . S
C2170 C2167 1.363 . S
C2170 N2168 1.356 . S
C2171 C2165 1.363 . S
C2171 C2166 1.379 . S
C2171 N2169 1.356 . S
N2172 C2164 1.357 1_545 S
N2172 H2178 0.984 1_545 S
N2172 H2179 0.984 . S
N2173 C2166 1.356 1_565 S
N2173 H2176 0.995 . S
N2173 H2177 0.974 1_565 S
H2174 N2169 0.984 . S
H2175 N2169 0.985 . S
H2176 N2173 0.995 . S
H2177 N2173 0.974 1_545 S
H2178 N2172 0.984 1_565 S
H2179 N2172 0.984 . S
H2180 N2168 0.984 . S
H2181 N2168 0.985 . S
C2182 C2183 1.363 . S
C2182 C2188 1.379 . S
C2182 N2190 1.356 . S
C2183 C2182 1.363 . S
C2183 C2189 1.363 . S
C2184 C2185 1.363 . S
C2184 C2189 1.379 . S
C2184 N2191 1.356 1_565 S
C2185 C2184 1.363 . S
C2185 C2188 1.363 . S
N2186 C2188 1.356 1_545 S
N2186 H2198 0.984 1_544 S
N2186 H2199 0.985 . S
N2187 C2189 1.356 . S
N2187 H2192 0.984 . S
N2187 H2193 0.985 . S
C2188 C2182 1.379 . S
C2188 C2185 1.363 . S
C2188 N2186 1.356 1_565 S
C2189 C2183 1.363 . S
C2189 C2184 1.379 . S
C2189 N2187 1.356 . S
N2190 C2182 1.356 . S
N2190 H2196 0.984 1_554 S
N2190 H2197 0.984 . S
N2191 C2184 1.356 1_545 S
N2191 H2194 0.984 . S
N2191 H2195 0.985 . S
H2192 N2187 0.984 . S
H2193 N2187 0.985 . S
H2194 N2191 0.984 . S
H2195 N2191 0.985 . S
H2196 N2190 0.984 1_556 S
H2197 N2190 0.984 . S
H2198 N2186 0.984 1_566 S
H2199 N2186 0.985 . S
C2200 C2201 1.363 . S
C2200 C2206 1.379 . S
C2200 N2208 1.356 . S
C2201 C2200 1.363 . S
C2201 C2207 1.363 . S
C2202 C2203 1.363 . S
C2202 C2207 1.379 . S
C2202 N2209 1.356 . S
C2203 C2202 1.363 . S
C2203 C2206 1.363 . S
N2204 C2206 1.356 . S
N2204 H2216 0.984 . S
N2204 H2217 0.985 . S
N2205 C2207 1.356 . S
N2205 H2210 0.984 . S
N2205 H2211 0.985 . S
C2206 C2200 1.379 . S
C2206 C2203 1.363 . S
C2206 N2204 1.356 . S
C2207 C2201 1.363 . S
C2207 C2202 1.379 . S
C2207 N2205 1.356 . S
N2208 C2200 1.356 . S
N2208 H2214 0.984 . S
N2208 H2215 0.984 . S
N2209 C2202 1.356 . S
N2209 H2212 0.984 . S
N2209 H2213 0.985 . S
H2210 N2205 0.984 . S
H2211 N2205 0.985 . S
H2212 N2209 0.984 . S
H2213 N2209 0.985 . S
H2214 N2208 0.984 . S
H2215 N2208 0.984 . S
H2216 N2204 0.984 . S
H2217 N2204 0.985 . S
C2218 C2219 1.363 . S
C2218 C2224 1.379 . S
C2218 N2226 1.356 . S
C2219 C2218 1.363 . S
C2219 C2225 1.363 . S
C2220 C2221 1.363 . S
C2220 C2225 1.379 . S
C2220 N2227 1.356 1_554 S
C2221 C2220 1.363 . S
C2221 C2224 1.363 . S
N2222 C2224 1.356 . S
N2222 H2234 0.984 . S
N2222 H2235 0.985 1_655 S
N2223 C2225 1.356 1_556 S
N2223 H2228 0.984 . S
N2223 H2229 0.985 . S
C2224 C2218 1.379 . S
C2224 C2221 1.363 . S
C2224 N2222 1.356 . S
C2225 C2219 1.363 . S
C2225 C2220 1.379 . S
C2225 N2223 1.356 1_554 S
N2226 C2218 1.356 . S
N2226 H2232 0.984 . S
N2226 H2233 0.984 . S
N2227 C2220 1.356 1_556 S
N2227 H2230 0.984 1_556 S
N2227 H2231 0.985 . S
H2228 N2223 0.984 . S
H2229 N2223 0.985 . S
H2230 N2227 0.984 1_554 S
H2231 N2227 0.985 . S
H2232 N2226 0.984 . S
H2233 N2226 0.984 . S
H2234 N2222 0.984 . S
H2235 N2222 0.985 1_455 S
C2236 C2237 1.363 . S
C2236 C2242 1.379 . S
C2236 N2244 1.356 . S
C2237 C2236 1.363 . S
C2237 C2243 1.363 . S
C2238 C2239 1.363 . S
C2238 C2243 1.379 . S
C2238 N2245 1.356 . S
C2239 C2238 1.363 . S
C2239 C2242 1.363 . S
N2240 C2242 1.356 . S
N2240 H2252 0.984 . S
N2240 H2253 0.985 . S
N2241 C2243 1.356 . S
N2241 H2246 0.984 . S
N2241 H2247 0.985 . S
C2242 C2236 1.379 . S
C2242 C2239 1.363 . S
C2242 N2240 1.356 . S
C2243 C2237 1.363 . S
C2243 C2238 1.379 . S
C2243 N2241 1.356 . S
N2244 C2236 1.356 . S
N2244 H2250 0.984 . S
N2244 H2251 0.984 . S
N2245 C2238 1.356 . S
N2245 H2248 0.984 . S
N2245 H2249 0.985 . S
H2246 N2241 0.984 . S
H2247 N2241 0.985 . S
H2248 N2245 0.984 . S
H2249 N2245 0.985 . S
H2250 N2244 0.984 . S
H2251 N2244 0.984 . S
H2252 N2240 0.984 . S
H2253 N2240 0.985 . S
C2254 C2255 1.363 . S
C2254 C2260 1.379 . S
C2254 N2262 1.356 . S
C2255 C2254 1.363 . S
C2255 C2261 1.363 1_545 S
C2256 C2257 1.363 . S
C2256 C2261 1.379 . S
C2256 N2263 1.356 . S
C2257 C2256 1.363 . S
C2257 C2260 1.363 1_565 S
N2258 C2260 1.356 . S
N2258 H2270 0.984 . S
N2258 H2271 0.985 1_545 S
N2259 C2261 1.356 . S
N2259 H2264 0.974 1_565 S
N2259 H2265 0.985 . S
C2260 C2254 1.379 . S
C2260 C2257 1.363 1_545 S
C2260 N2258 1.356 . S
C2261 C2255 1.363 1_565 S
C2261 C2256 1.379 . S
C2261 N2259 1.356 . S
N2262 C2254 1.356 . S
N2262 H2268 0.984 . S
N2262 H2269 0.984 . S
N2263 C2256 1.356 . S
N2263 H2266 0.984 . S
N2263 H2267 0.985 . S
H2264 N2259 0.974 1_545 S
H2265 N2259 0.985 . S
H2266 N2263 0.984 . S
H2267 N2263 0.985 . S
H2268 N2262 0.984 . S
H2269 N2262 0.984 . S
H2270 N2258 0.984 . S
H2271 N2258 0.985 1_565 S
C2272 C2273 1.363 . S
C2272 C2278 1.379 . S
C2272 N2280 1.356 . S
C2273 C2272 1.363 . S
C2273 C2279 1.363 . S
C2274 C2275 1.363 . S
C2274 C2279 1.379 . S
C2274 N2281 1.356 . S
C2275 C2274 1.363 . S
C2275 C2278 1.363 . S
N2276 C2278 1.356 . S
N2276 H2288 0.984 . S
N2276 H2289 0.985 . S
N2277 C2279 1.356 . S
N2277 H2282 0.984 . S
N2277 H2283 0.985 . S
C2278 C2272 1.379 . S
C2278 C2275 1.363 . S
C2278 N2276 1.356 . S
C2279 C2273 1.363 . S
C2279 C2274 1.379 . S
C2279 N2277 1.356 . S
N2280 C2272 1.356 . S
N2280 H2286 0.984 . S
N2280 H2287 0.984 . S
N2281 C2274 1.356 . S
N2281 H2284 0.984 . S
N2281 H2285 0.985 . S
H2282 N2277 0.984 . S
H2283 N2277 0.985 . S
H2284 N2281 0.984 . S
H2285 N2281 0.985 . S
H2286 N2280 0.984 . S
H2287 N2280 0.984 . S
H2288 N2276 0.984 . S
H2289 N2276 0.985 . S
C2290 C2291 1.363 . S
C2290 C2296 1.379 . S
C2290 N2298 1.356 . S
C2291 C2290 1.363 . S
C2291 C2297 1.363 . S
C2292 C2293 1.363 . S
C2292 C2297 1.379 . S
C2292 N2299 1.356 . S
C2293 C2292 1.363 . S
C2293 C2296 1.363 . S
N2294 C2296 1.356 . S
N2294 H2306 0.984 . S
N2294 H2307 0.985 . S
N2295 C2297 1.356 . S
N2295 H2300 0.984 . S
N2295 H2301 0.985 . S
C2296 C2290 1.379 . S
C2296 C2293 1.363 . S
C2296 N2294 1.356 . S
C2297 C2291 1.363 . S
C2297 C2292 1.379 . S
C2297 N2295 1.356 . S
N2298 C2290 1.356 . S
N2298 H2304 0.984 . S
N2298 H2305 0.984 . S
N2299 C2292 1.356 . S
N2299 H2302 0.984 . S
N2299 H2303 0.985 . S
H2300 N2295 0.984 . S
H2301 N2295 0.985 . S
H2302 N2299 0.984 . S
H2303 N2299 0.985 . S
H2304 N2298 0.984 . S
H2305 N2298 0.984 . S
H2306 N2294 0.984 . S
H2307 N2294 0.985 . S
C2308 C2309 1.363 . S
C2308 C2314 1.379 . S
C2308 N2316 1.356 . S
C2309 C2308 1.363 . S
C2309 C2315 1.363 . S
C2310 C2311 1.363 . S
C2310 C2315 1.379 . S
C2310 N2317 1.356 . S
C2311 C2310 1.363 . S
C2311 C2314 1.363 . S
N2312 C2314 1.356 . S
N2312 H2324 0.984 . S
N2312 H2325 0.985 . S
N2313 C2315 1.356 . S
N2313 H2318 0.984 . S
N2313 H2319 0.985 . S
C2314 C2308 1.379 . S
C2314 C2311 1.363 . S
C2314 N2312 1.356 . S
C2315 C2309 1.363 . S
C2315 C2310 1.379 . S
C2315 N2313 1.356 . S
N2316 C2308 1.356 . S
N2316 H2322 0.984 . S
N2316 H2323 0.984 . S
N2317 C2310 1.356 . S
N2317 H2320 0.984 . S
N2317 H2321 0.985 . S
H2318 N2313 0.984 . S
H2319 N2313 0.985 . S
H2320 N2317 0.984 . S
H2321 N2317 0.985 . S
H2322 N2316 0.984 . S
H2323 N2316 0.984 . S
H2324 N2312 0.984 . S
H2325 N2312 0.985 . S
C2326 C2327 1.363 . S
C2326 C2332 1.379 . S
C2326 N2334 1.356 . S
C2327 C2326 1.363 . S
C2327 C2333 1.363 . S
C2328 C2329 1.363 . S
C2328 C2333 1.379 . S
C2328 N2335 1.356 . S
C2329 C2328 1.363 . S
C2329 C2332 1.363 . S
N2330 C2332 1.356 . S
N2330 H2342 0.984 . S
N2330 H2343 0.985 . S
N2331 C2333 1.356 . S
N2331 H2336 0.984 . S
N2331 H2337 0.985 . S
C2332 C2326 1.379 . S
C2332 C2329 1.363 . S
C2332 N2330 1.356 . S
C2333 C2327 1.363 . S
C2333 C2328 1.379 . S
C2333 N2331 1.356 . S
N2334 C2326 1.356 . S
N2334 H2340 0.984 . S
N2334 H2341 0.984 . S
N2335 C2328 1.356 . S
N2335 H2338 0.984 . S
N2335 H2339 0.985 . S
H2336 N2331 0.984 . S
H2337 N2331 0.985 . S
H2338 N2335 0.984 . S
H2339 N2335 0.985 . S
H2340 N2334 0.984 . S
H2341 N2334 0.984 . S
H2342 N2330 0.984 . S
H2343 N2330 0.985 . S
C2344 C2345 1.363 . S
C2344 C2350 1.379 . S
C2344 N2352 1.356 . S
C2345 C2344 1.363 . S
C2345 C2351 1.363 . S
C2346 C2347 1.363 . S
C2346 C2351 1.379 . S
C2346 N2353 1.361 . S
C2347 C2346 1.363 . S
C2347 C2350 1.363 . S
N2348 C2350 1.356 . S
N2348 H2360 0.984 . S
N2348 H2361 0.985 . S
N2349 C2351 1.356 . S
N2349 H2354 0.984 . S
N2349 H2355 0.985 . S
C2350 C2344 1.379 . S
C2350 C2347 1.363 . S
C2350 N2348 1.356 . S
C2351 C2345 1.363 . S
C2351 C2346 1.379 . S
C2351 N2349 1.356 . S
N2352 C2344 1.356 . S
N2352 H2358 0.984 . S
N2352 H2359 0.984 . S
N2353 C2346 1.361 . S
N2353 H2356 0.982 1_556 S
N2353 H2357 0.983 1_556 S
H2354 N2349 0.984 . S
H2355 N2349 0.985 . S
H2356 N2353 0.982 1_554 S
H2357 N2353 0.983 1_554 S
H2358 N2352 0.984 . S
H2359 N2352 0.984 . S
H2360 N2348 0.984 . S
H2361 N2348 0.985 . S
C2362 C2363 1.363 . S
C2362 C2368 1.379 . S
C2362 N2370 1.356 . S
C2363 C2362 1.363 . S
C2363 C2369 1.363 . S
C2364 C2365 1.363 . S
C2364 C2369 1.379 . S
C2364 N2371 1.356 . S
C2365 C2364 1.363 . S
C2365 C2368 1.363 . S
N2366 C2368 1.356 . S
N2366 H2378 0.984 . S
N2366 H2379 0.985 . S
N2367 C2369 1.356 . S
N2367 H2372 0.984 . S
N2367 H2373 0.985 . S
C2368 C2362 1.379 . S
C2368 C2365 1.363 . S
C2368 N2366 1.356 . S
C2369 C2363 1.363 . S
C2369 C2364 1.379 . S
C2369 N2367 1.356 . S
N2370 C2362 1.356 . S
N2370 H2376 0.984 . S
N2370 H2377 0.984 . S
N2371 C2364 1.356 . S
N2371 H2374 0.984 . S
N2371 H2375 0.985 . S
H2372 N2367 0.984 . S
H2373 N2367 0.985 . S
H2374 N2371 0.984 . S
H2375 N2371 0.985 . S
H2376 N2370 0.984 . S
H2377 N2370 0.984 . S
H2378 N2366 0.984 . S
H2379 N2366 0.985 . S
C2380 C2381 1.363 . S
C2380 C2386 1.379 . S
C2380 N2388 1.356 . S
C2381 C2380 1.363 . S
C2381 C2387 1.363 . S
C2382 C2383 1.363 . S
C2382 C2387 1.379 . S
C2382 N2389 1.356 . S
C2383 C2382 1.363 . S
C2383 C2386 1.363 . S
N2384 C2386 1.356 . S
N2384 H2396 0.984 . S
N2384 H2397 0.985 . S
N2385 C2387 1.356 . S
N2385 H2390 0.984 . S
N2385 H2391 0.985 . S
C2386 C2380 1.379 . S
C2386 C2383 1.363 . S
C2386 N2384 1.356 . S
C2387 C2381 1.363 . S
C2387 C2382 1.379 . S
C2387 N2385 1.356 . S
N2388 C2380 1.356 . S
N2388 H2394 0.984 . S
N2388 H2395 0.984 . S
N2389 C2382 1.356 . S
N2389 H2392 0.984 . S
N2389 H2393 0.985 . S
H2390 N2385 0.984 . S
H2391 N2385 0.985 . S
H2392 N2389 0.984 . S
H2393 N2389 0.985 . S
H2394 N2388 0.984 . S
H2395 N2388 0.984 . S
H2396 N2384 0.984 . S
H2397 N2384 0.985 . S
C2398 C2399 1.363 . S
C2398 C2404 1.379 . S
C2398 N2406 1.356 . S
C2399 C2398 1.363 . S
C2399 C2405 1.363 . S
C2400 C2401 1.363 . S
C2400 C2405 1.379 . S
C2400 N2407 1.356 . S
C2401 C2400 1.363 . S
C2401 C2404 1.363 . S
N2402 C2404 1.356 . S
N2402 H2414 0.984 . S
N2402 H2415 0.985 . S
N2403 C2405 1.356 . S
N2403 H2408 0.984 . S
N2403 H2409 0.985 . S
C2404 C2398 1.379 . S
C2404 C2401 1.363 . S
C2404 N2402 1.356 . S
C2405 C2399 1.363 . S
C2405 C2400 1.379 . S
C2405 N2403 1.356 . S
N2406 C2398 1.356 . S
N2406 H2412 0.984 . S
N2406 H2413 0.984 . S
N2407 C2400 1.356 . S
N2407 H2410 0.984 . S
N2407 H2411 0.985 . S
H2408 N2403 0.984 . S
H2409 N2403 0.985 . S
H2410 N2407 0.984 . S
H2411 N2407 0.985 . S
H2412 N2406 0.984 . S
H2413 N2406 0.984 . S
H2414 N2402 0.984 . S
H2415 N2402 0.985 . S
C2416 C2417 1.363 . S
C2416 C2422 1.379 . S
C2416 N2424 1.356 . S
C2417 C2416 1.363 . S
C2417 C2423 1.363 . S
C2418 C2419 1.363 . S
C2418 C2423 1.379 . S
C2418 N2425 1.356 . S
C2419 C2418 1.363 . S
C2419 C2422 1.363 . S
N2420 C2422 1.356 . S
N2420 H2432 0.984 . S
N2420 H2433 0.985 . S
N2421 C2423 1.356 . S
N2421 H2426 0.984 . S
N2421 H2427 0.985 . S
C2422 C2416 1.379 . S
C2422 C2419 1.363 . S
C2422 N2420 1.356 . S
C2423 C2417 1.363 . S
C2423 C2418 1.379 . S
C2423 N2421 1.356 . S
N2424 C2416 1.356 . S
N2424 H2430 0.984 . S
N2424 H2431 0.984 . S
N2425 C2418 1.356 . S
N2425 H2428 0.984 . S
N2425 H2429 0.985 . S
H2426 N2421 0.984 . S
H2427 N2421 0.985 . S
H2428 N2425 0.984 . S
H2429 N2425 0.985 . S
H2430 N2424 0.984 . S
H2431 N2424 0.984 . S
H2432 N2420 0.984 . S
H2433 N2420 0.985 . S
C2434 C2435 1.363 . S
C2434 C2440 1.379 . S
C2434 N2442 1.356 . S
C2435 C2434 1.363 . S
C2435 C2441 1.363 . S
C2436 C2437 1.363 . S
C2436 C2441 1.379 . S
C2436 N2443 1.356 . S
C2437 C2436 1.363 . S
C2437 C2440 1.363 . S
N2438 C2440 1.356 . S
N2438 H2450 0.984 . S
N2438 H2451 0.985 . S
N2439 C2441 1.356 . S
N2439 H2444 0.984 . S
N2439 H2445 0.985 . S
C2440 C2434 1.379 . S
C2440 C2437 1.363 . S
C2440 N2438 1.356 . S
C2441 C2435 1.363 . S
C2441 C2436 1.379 . S
C2441 N2439 1.356 . S
N2442 C2434 1.356 . S
N2442 H2448 0.984 . S
N2442 H2449 0.984 . S
N2443 C2436 1.356 . S
N2443 H2446 0.984 . S
N2443 H2447 0.985 . S
H2444 N2439 0.984 . S
H2445 N2439 0.985 . S
H2446 N2443 0.984 . S
H2447 N2443 0.985 . S
H2448 N2442 0.984 . S
H2449 N2442 0.984 . S
H2450 N2438 0.984 . S
H2451 N2438 0.985 . S
C2452 C2453 1.363 . S
C2452 C2458 1.379 . S
C2452 N2460 1.356 1_455 S
C2453 C2452 1.363 . S
C2453 C2459 1.363 . S
C2454 C2455 1.363 . S
C2454 C2459 1.379 . S
C2454 N2461 1.356 . S
C2455 C2454 1.363 . S
C2455 C2458 1.363 . S
N2456 C2458 1.356 . S
N2456 H2468 0.984 1_455 S
N2456 H2469 0.985 . S
N2457 C2459 1.356 . S
N2457 H2462 0.984 . S
N2457 H2463 0.985 . S
C2458 C2452 1.379 . S
C2458 C2455 1.363 . S
C2458 N2456 1.356 . S
C2459 C2453 1.363 . S
C2459 C2454 1.379 . S
C2459 N2457 1.356 . S
N2460 C2452 1.356 1_655 S
N2460 H2466 0.984 . S
N2460 H2467 0.984 . S
N2461 C2454 1.356 . S
N2461 H2464 0.984 . S
N2461 H2465 0.985 . S
H2462 N2457 0.984 . S
H2463 N2457 0.985 . S
H2464 N2461 0.984 . S
H2465 N2461 0.985 . S
H2466 N2460 0.984 . S
H2467 N2460 0.984 . S
H2468 N2456 0.984 1_655 S
H2469 N2456 0.985 . S
C2470 C2471 1.363 . S
C2470 C2476 1.379 . S
C2470 N2478 1.356 . S
C2471 C2470 1.363 . S
C2471 C2477 1.363 . S
C2472 C2473 1.363 . S
C2472 C2477 1.379 . S
C2472 N2479 1.356 . S
C2473 C2472 1.363 . S
C2473 C2476 1.363 . S
N2474 C2476 1.356 . S
N2474 H2486 0.984 . S
N2474 H2487 0.985 . S
N2475 C2477 1.356 . S
N2475 H2480 0.984 . S
N2475 H2481 0.985 . S
C2476 C2470 1.379 . S
C2476 C2473 1.363 . S
C2476 N2474 1.356 . S
C2477 C2471 1.363 . S
C2477 C2472 1.379 . S
C2477 N2475 1.356 . S
N2478 C2470 1.356 . S
N2478 H2484 0.984 . S
N2478 H2485 0.984 . S
N2479 C2472 1.356 . S
N2479 H2482 0.984 . S
N2479 H2483 0.985 . S
H2480 N2475 0.984 . S
H2481 N2475 0.985 . S
H2482 N2479 0.984 . S
H2483 N2479 0.985 . S
H2484 N2478 0.984 . S
H2485 N2478 0.984 . S
H2486 N2474 0.984 . S
H2487 N2474 0.985 . S
C2488 C2489 1.363 . S
C2488 C2494 1.379 . S
C2488 N2496 1.356 . S
C2489 C2488 1.363 . S
C2489 C2495 1.363 . S
C2490 C2491 1.363 . S
C2490 C2495 1.379 . S
C2490 N2497 1.356 . S
C2491 C2490 1.363 . S
C2491 C2494 1.363 . S
N2492 C2494 1.356 . S
N2492 H2504 0.984 . S
N2492 H2505 0.985 . S
N2493 C2495 1.356 . S
N2493 H2498 0.984 . S
N2493 H2499 0.985 . S
C2494 C2488 1.379 . S
C2494 C2491 1.363 . S
C2494 N2492 1.356 . S
C2495 C2489 1.363 . S
C2495 C2490 1.379 . S
C2495 N2493 1.356 . S
N2496 C2488 1.356 . S
N2496 H2502 0.984 . S
N2496 H2503 0.984 . S
N2497 C2490 1.356 . S
N2497 H2500 0.984 . S
N2497 H2501 0.985 . S
H2498 N2493 0.984 . S
H2499 N2493 0.985 . S
H2500 N2497 0.984 . S
H2501 N2497 0.985 . S
H2502 N2496 0.984 . S
H2503 N2496 0.984 . S
H2504 N2492 0.984 . S
H2505 N2492 0.985 . S
C2506 C2507 1.363 . S
C2506 C2512 1.379 . S
C2506 N2514 1.356 . S
C2507 C2506 1.363 . S
C2507 C2513 1.363 . S
C2508 C2509 1.363 . S
C2508 C2513 1.379 . S
C2508 N2515 1.356 . S
C2509 C2508 1.363 . S
C2509 C2512 1.363 . S
N2510 C2512 1.356 . S
N2510 H2522 0.984 . S
N2510 H2523 0.985 . S
N2511 C2513 1.356 . S
N2511 H2516 0.984 . S
N2511 H2517 0.985 . S
C2512 C2506 1.379 . S
C2512 C2509 1.363 . S
C2512 N2510 1.356 . S
C2513 C2507 1.363 . S
C2513 C2508 1.379 . S
C2513 N2511 1.356 . S
N2514 C2506 1.356 . S
N2514 H2520 0.984 . S
N2514 H2521 0.984 . S
N2515 C2508 1.356 . S
N2515 H2518 0.984 . S
N2515 H2519 0.985 . S
H2516 N2511 0.984 . S
H2517 N2511 0.985 . S
H2518 N2515 0.984 . S
H2519 N2515 0.985 . S
H2520 N2514 0.984 . S
H2521 N2514 0.984 . S
H2522 N2510 0.984 . S
H2523 N2510 0.985 . S
C2524 C2525 1.363 . S
C2524 C2530 1.379 . S
C2524 N2532 1.356 . S
C2525 C2524 1.363 . S
C2525 C2531 1.363 . S
C2526 C2527 1.363 . S
C2526 C2531 1.379 . S
C2526 N2533 1.356 1_455 S
C2527 C2526 1.363 . S
C2527 C2530 1.363 . S
N2528 C2530 1.356 . S
N2528 H2540 0.984 . S
N2528 H2541 0.985 . S
N2529 C2531 1.356 . S
N2529 H2534 0.984 . S
N2529 H2535 0.985 1_455 S
C2530 C2524 1.379 . S
C2530 C2527 1.363 . S
C2530 N2528 1.356 . S
C2531 C2525 1.363 . S
C2531 C2526 1.379 . S
C2531 N2529 1.356 . S
N2532 C2524 1.356 . S
N2532 H2538 0.984 . S
N2532 H2539 0.984 . S
N2533 C2526 1.356 1_655 S
N2533 H2536 0.984 . S
N2533 H2537 0.985 . S
H2534 N2529 0.984 . S
H2535 N2529 0.985 1_655 S
H2536 N2533 0.984 . S
H2537 N2533 0.985 . S
H2538 N2532 0.984 . S
H2539 N2532 0.984 . S
H2540 N2528 0.984 . S
H2541 N2528 0.985 . S
C2542 C2543 1.363 . S
C2542 C2548 1.379 . S
C2542 N2550 1.356 . S
C2543 C2542 1.363 . S
C2543 C2549 1.363 . S
C2544 C2545 1.363 . S
C2544 C2549 1.379 . S
C2544 N2551 1.356 . S
C2545 C2544 1.363 . S
C2545 C2548 1.363 . S
N2546 C2548 1.356 . S
N2546 H2558 0.984 . S
N2546 H2559 0.985 . S
N2547 C2549 1.356 . S
N2547 H2552 0.984 . S
N2547 H2553 0.985 . S
C2548 C2542 1.379 . S
C2548 C2545 1.363 . S
C2548 N2546 1.356 . S
C2549 C2543 1.363 . S
C2549 C2544 1.379 . S
C2549 N2547 1.356 . S
N2550 C2542 1.356 . S
N2550 H2556 0.984 . S
N2550 H2557 0.984 . S
N2551 C2544 1.356 . S
N2551 H2554 0.984 . S
N2551 H2555 0.985 . S
H2552 N2547 0.984 . S
H2553 N2547 0.985 . S
H2554 N2551 0.984 . S
H2555 N2551 0.985 . S
H2556 N2550 0.984 . S
H2557 N2550 0.984 . S
H2558 N2546 0.984 . S
H2559 N2546 0.985 . S
C2560 C2561 1.363 . S
C2560 C2566 1.379 . S
C2560 N2568 1.356 . S
C2561 C2560 1.363 . S
C2561 C2567 1.363 . S
C2562 C2563 1.363 . S
C2562 C2567 1.379 . S
C2562 N2569 1.356 . S
C2563 C2562 1.363 . S
C2563 C2566 1.363 . S
N2564 C2566 1.356 . S
N2564 H2576 0.984 . S
N2564 H2577 0.985 . S
N2565 C2567 1.356 . S
N2565 H2570 0.984 . S
N2565 H2571 0.985 . S
C2566 C2560 1.379 . S
C2566 C2563 1.363 . S
C2566 N2564 1.356 . S
C2567 C2561 1.363 . S
C2567 C2562 1.379 . S
C2567 N2565 1.356 . S
N2568 C2560 1.356 . S
N2568 H2574 0.984 . S
N2568 H2575 0.984 . S
N2569 C2562 1.356 . S
N2569 H2572 0.984 . S
N2569 H2573 0.985 . S
H2570 N2565 0.984 . S
H2571 N2565 0.985 . S
H2572 N2569 0.984 . S
H2573 N2569 0.985 . S
H2574 N2568 0.984 . S
H2575 N2568 0.984 . S
H2576 N2564 0.984 . S
H2577 N2564 0.985 . S
C2578 C2579 1.363 . S
C2578 C2584 1.379 . S
C2578 N2586 1.356 . S
C2579 C2578 1.363 . S
C2579 C2585 1.355 1_565 S
C2580 C2581 1.363 . S
C2580 C2585 1.383 . S
C2580 N2587 1.356 . S
C2581 C2580 1.363 . S
C2581 C2584 1.363 1_545 S
N2582 C2584 1.356 . S
N2582 H2594 0.984 . S
N2582 H2595 0.985 . S
N2583 C2585 1.358 . S
N2583 H2588 0.984 1_545 S
N2583 H2589 0.985 . S
C2584 C2578 1.379 . S
C2584 C2581 1.363 1_565 S
C2584 N2582 1.356 . S
C2585 C2579 1.355 1_545 S
C2585 C2580 1.383 . S
C2585 N2583 1.358 . S
N2586 C2578 1.356 . S
N2586 H2592 0.984 . S
N2586 H2593 0.984 . S
N2587 C2580 1.356 . S
N2587 H2590 0.984 . S
N2587 H2591 0.985 . S
H2588 N2583 0.984 1_565 S
H2589 N2583 0.985 . S
H2590 N2587 0.984 . S
H2591 N2587 0.985 . S
H2592 N2586 0.984 . S
H2593 N2586 0.984 . S
H2594 N2582 0.984 . S
H2595 N2582 0.985 . S
C2596 C2597 1.363 . S
C2596 C2602 1.379 . S
C2596 N2604 1.356 . S
C2597 C2596 1.363 . S
C2597 C2603 1.363 . S
C2598 C2599 1.363 . S
C2598 C2603 1.379 . S
C2598 N2605 1.356 . S
C2599 C2598 1.363 . S
C2599 C2602 1.363 . S
N2600 C2602 1.356 . S
N2600 H2612 0.984 . S
N2600 H2613 0.985 . S
N2601 C2603 1.356 . S
N2601 H2606 0.984 . S
N2601 H2607 0.985 . S
C2602 C2596 1.379 . S
C2602 C2599 1.363 . S
C2602 N2600 1.356 . S
C2603 C2597 1.363 . S
C2603 C2598 1.379 . S
C2603 N2601 1.356 . S
N2604 C2596 1.356 . S
N2604 H2610 0.984 . S
N2604 H2611 0.984 . S
N2605 C2598 1.356 . S
N2605 H2608 0.984 . S
N2605 H2609 0.985 . S
H2606 N2601 0.984 . S
H2607 N2601 0.985 . S
H2608 N2605 0.984 . S
H2609 N2605 0.985 . S
H2610 N2604 0.984 . S
H2611 N2604 0.984 . S
H2612 N2600 0.984 . S
H2613 N2600 0.985 . S
C2614 C2615 1.363 . S
C2614 C2620 1.379 . S
C2614 N2622 1.356 . S
C2615 C2614 1.363 . S
C2615 C2621 1.363 1_556 S
C2616 C2617 1.363 . S
C2616 C2621 1.379 . S
C2616 N2623 1.356 . S
C2617 C2616 1.363 . S
C2617 C2620 1.363 1_554 S
N2618 C2620 1.356 . S
N2618 H2630 0.984 . S
N2618 H2631 0.985 . S
N2619 C2621 1.356 . S
N2619 H2624 0.984 . S
N2619 H2625 0.985 . S
C2620 C2614 1.379 . S
C2620 C2617 1.363 1_556 S
C2620 N2618 1.356 . S
C2621 C2615 1.363 1_554 S
C2621 C2616 1.379 . S
C2621 N2619 1.356 . S
N2622 C2614 1.356 . S
N2622 H2628 0.984 . S
N2622 H2629 0.984 . S
N2623 C2616 1.356 . S
N2623 H2626 0.984 . S
N2623 H2627 0.985 . S
H2624 N2619 0.984 . S
H2625 N2619 0.985 . S
H2626 N2623 0.984 . S
H2627 N2623 0.985 . S
H2628 N2622 0.984 . S
H2629 N2622 0.984 . S
H2630 N2618 0.984 . S
H2631 N2618 0.985 . S
C2632 C2633 1.363 . S
C2632 C2638 1.379 . S
C2632 N2640 1.356 . S
C2633 C2632 1.363 . S
C2633 C2639 1.363 . S
C2634 C2635 1.363 . S
C2634 C2639 1.379 . S
C2634 N2641 1.356 . S
C2635 C2634 1.363 . S
C2635 C2638 1.363 . S
N2636 C2638 1.356 . S
N2636 H2648 0.984 . S
N2636 H2649 0.985 . S
N2637 C2639 1.356 . S
N2637 H2642 0.984 . S
N2637 H2643 0.985 . S
C2638 C2632 1.379 . S
C2638 C2635 1.363 . S
C2638 N2636 1.356 . S
C2639 C2633 1.363 . S
C2639 C2634 1.379 . S
C2639 N2637 1.356 . S
N2640 C2632 1.356 . S
N2640 H2646 0.984 . S
N2640 H2647 0.984 . S
N2641 C2634 1.356 . S
N2641 H2644 0.984 . S
N2641 H2645 0.985 . S
H2642 N2637 0.984 . S
H2643 N2637 0.985 . S
H2644 N2641 0.984 . S
H2645 N2641 0.985 . S
H2646 N2640 0.984 . S
H2647 N2640 0.984 . S
H2648 N2636 0.984 . S
H2649 N2636 0.985 . S
C2650 C2651 1.363 . S
C2650 C2656 1.379 . S
C2650 N2658 1.356 . S
C2651 C2650 1.363 . S
C2651 C2657 1.363 . S
C2652 C2653 1.363 . S
C2652 C2657 1.379 . S
C2652 N2659 1.356 . S
C2653 C2652 1.363 . S
C2653 C2656 1.363 . S
N2654 C2656 1.356 . S
N2654 H2666 0.984 . S
N2654 H2667 0.985 . S
N2655 C2657 1.356 . S
N2655 H2660 0.984 . S
N2655 H2661 0.985 . S
C2656 C2650 1.379 . S
C2656 C2653 1.363 . S
C2656 N2654 1.356 . S
C2657 C2651 1.363 . S
C2657 C2652 1.379 . S
C2657 N2655 1.356 . S
N2658 C2650 1.356 . S
N2658 H2664 0.984 . S
N2658 H2665 0.984 . S
N2659 C2652 1.356 . S
N2659 H2662 0.984 . S
N2659 H2663 0.985 . S
H2660 N2655 0.984 . S
H2661 N2655 0.985 . S
H2662 N2659 0.984 . S
H2663 N2659 0.985 . S
H2664 N2658 0.984 . S
H2665 N2658 0.984 . S
H2666 N2654 0.984 . S
H2667 N2654 0.985 . S
C2668 C2669 1.363 . S
C2668 C2674 1.379 . S
C2668 N2676 1.356 . S
C2669 C2668 1.363 . S
C2669 C2675 1.363 . S
C2670 C2671 1.363 . S
C2670 C2675 1.379 . S
C2670 N2677 1.356 . S
C2671 C2670 1.363 . S
C2671 C2674 1.363 . S
N2672 C2674 1.356 . S
N2672 H2684 0.984 . S
N2672 H2685 0.985 . S
N2673 C2675 1.356 . S
N2673 H2678 0.984 . S
N2673 H2679 0.985 . S
C2674 C2668 1.379 . S
C2674 C2671 1.363 . S
C2674 N2672 1.356 . S
C2675 C2669 1.363 . S
C2675 C2670 1.379 . S
C2675 N2673 1.356 . S
N2676 C2668 1.356 . S
N2676 H2682 0.984 . S
N2676 H2683 0.984 . S
N2677 C2670 1.356 . S
N2677 H2680 0.984 . S
N2677 H2681 0.985 . S
H2678 N2673 0.984 . S
H2679 N2673 0.985 . S
H2680 N2677 0.984 . S
H2681 N2677 0.985 . S
H2682 N2676 0.984 . S
H2683 N2676 0.984 . S
H2684 N2672 0.984 . S
H2685 N2672 0.985 . S
C2686 C2687 1.363 . S
C2686 C2692 1.379 . S
C2686 N2694 1.356 . S
C2687 C2686 1.363 . S
C2687 C2693 1.363 . S
C2688 C2689 1.363 . S
C2688 C2693 1.379 . S
C2688 N2695 1.356 . S
C2689 C2688 1.363 . S
C2689 C2692 1.363 . S
N2690 C2692 1.356 . S
N2690 H2702 0.984 . S
N2690 H2703 0.985 . S
N2691 C2693 1.356 . S
N2691 H2696 0.984 . S
N2691 H2697 0.985 . S
C2692 C2686 1.379 . S
C2692 C2689 1.363 . S
C2692 N2690 1.356 . S
C2693 C2687 1.363 . S
C2693 C2688 1.379 . S
C2693 N2691 1.356 . S
N2694 C2686 1.356 . S
N2694 H2700 0.984 . S
N2694 H2701 0.984 . S
N2695 C2688 1.356 . S
N2695 H2698 0.984 . S
N2695 H2699 0.985 . S
H2696 N2691 0.984 . S
H2697 N2691 0.985 . S
H2698 N2695 0.984 . S
H2699 N2695 0.985 . S
H2700 N2694 0.984 . S
H2701 N2694 0.984 . S
H2702 N2690 0.984 . S
H2703 N2690 0.985 . S
C977 C109 1.849 1_455 S
C979 C358 1.874 . S
C995 C65 1.444 . S
C997 C378 1.411 . S
C1013 C75 0.867 . S
C1015 C425 0.862 . S
C1033 C482 1.225 . S
C1031 C84 1.222 . S
C1049 C25 2.616 . S
C1051 C499 2.595 1_565 S
C1069 C558 1.892 . S
C1067 C28 1.889 . S
C1087 C591 2.753 . S
C1085 C47 2.751 . S
C1103 C9 2.598 . S
C1105 C638 2.549 . S
C1123 C351 1.947 . S
C1121 C233 1.877 . S
C1139 C249 1.573 . S
C1141 C379 1.558 . S
C1159 C418 0.695 . S
C1157 C275 0.699 . S
C1177 C478 2.275 . S
C1175 C173 2.255 . S
C1193 C224 0.702 . S
C1195 C505 0.709 . S
C1213 C551 2.252 . S
C1211 C243 2.262 . S
C1231 C602 0.923 . S
C1229 C266 0.931 . S
C1249 C631 2.342 . S
C1247 C179 2.309 . S
C1267 C362 2.135 1_565 S
C1265 C163 2.220 . S
C1283 C289 2.204 . S
C1285 C658 2.162 . S
C1303 C722 1.577 . S
C1301 C333 1.566 . S
C1321 C758 1.556 . S
C1319 C308 1.507 . S
C1337 C123 1.843 . S
C1339 C642 1.926 . S
C1355 C126 2.638 . S
C1357 C419 2.651 . S
C1373 C327 1.592 . S
C1375 C791 1.665 . S
C1393 C825 0.593 . S
C1391 C299 0.567 . S
C1411 C339 1.938 1_565 S
C1409 C67 1.952 . S
C1429 C831 1.614 . S
C1427 C98 1.561 . S
C1445 C89 0.892 . S
C1447 C442 0.884 . S
C1463 C79 1.346 . S
C1465 C785 1.292 . S
C1483 C518 2.618 . S
C1481 C11 2.640 . S
C1499 C51 1.952 . S
C1501 C699 1.931 . S
C1519 C578 2.750 1_566 S
C1517 C33 2.765 . S
C1537 C859 2.550 . S
C1535 C14 2.583 . S
C1555 C338 1.840 . S
C1553 C140 1.773 . S
C1573 C838 1.584 . S
C1571 C319 1.596 . S
C1589 C112 0.697 . S
C1591 C431 0.692 . S
C1607 C285 2.256 . S
C1609 C779 2.276 . S
C1625 C149 0.748 . S
C1627 C522 0.748 . S
C1645 C698 2.293 . S
C1643 C313 2.305 . S
C1661 C121 0.953 . S
C1663 C585 0.921 . S
C1679 C291 2.315 . S
C1681 C858 2.346 . S
C1697 C182 2.095 1_556 S
C1699 C345 2.017 . S
C1715 C168 2.151 . S
C1717 C671 2.138 . S
C1733 C263 1.613 . S
C1735 C545 1.595 . S
C1751 C247 1.638 . S
C1753 C739 1.618 . S
C1771 C865 1.864 . S
C1769 C277 1.817 . S
C1787 C219 2.662 . S
C1789 C438 2.658 1_565 S
C1807 C458 1.685 . S
C1805 C257 1.614 . S
C1825 C402 0.706 . S
C1823 C201 0.704 . S
C1841 C81 1.980 . S
C1843 C918 1.999 . S
C1861 C818 1.417 . S
C1859 C93 1.460 . S
C1877 C103 0.791 . S
C1879 C945 0.791 . S
C1895 C56 1.267 . S
C1897 C802 1.269 1_455 S
C1913 C53 2.605 . S
C1915 C659 2.583 . S
C1933 C718 1.924 . S
C1931 C0 1.920 . S
C1951 C751 2.762 . S
C1949 C19 2.760 . S
C1969 C878 2.485 . S
C1967 C37 2.537 . S
C1987 C911 1.894 . S
C1985 C261 1.828 . S
C2003 C193 1.548 . S
C2005 C819 1.535 . S
C2023 C938 0.709 . S
C2021 C205 0.708 . S
C2041 C798 2.267 . S
C2039 C215 2.250 . S
C2059 C665 0.700 . S
C2057 C252 0.691 . S
C2075 C187 2.297 . S
C2077 C711 2.284 . S
C2095 C762 0.913 . S
C2093 C196 0.923 . S
C2111 C221 2.286 . S
C2113 C871 2.318 . S
C2131 C922 2.153 . S
C2129 C317 2.239 . S
C2147 C135 2.238 . S
C2149 C498 2.194 . S
C2167 C562 1.537 . S
C2165 C151 1.528 . S
C2185 C598 1.556 1_565 S
C2183 C154 1.506 . S
C2203 C882 1.688 . S
C2201 C305 1.632 . S
C2219 C280 2.660 . S
C2221 C939 2.672 1_655 S
C2239 C471 1.695 . S
C2237 C145 1.625 . S
C2257 C385 0.692 . S
C2255 C117 0.693 . S
C2273 C95 1.987 . S
C2275 C899 1.995 . S
C2293 C391 1.420 . S
C2291 C70 1.356 . S
C2309 C61 0.901 . S
C2311 C962 0.893 . S
C2327 C107 1.229 . S
C2329 C465 1.171 . S
C2345 C39 2.632 . S
C2347 C678 2.625 . S
C2365 C539 1.952 . S
C2363 C23 1.975 . S
C2381 C5 2.794 . S
C2383 C738 2.796 . S
C2399 C42 2.540 . S
C2401 C619 2.499 . S
C2419 C898 1.875 . S
C2417 C322 1.802 . S
C2435 C165 1.581 . S
C2437 C398 1.569 . S
C2455 C951 0.627 . S
C2453 C294 0.626 . S
C2471 C131 2.274 . S
C2473 C459 2.290 . S
C2489 C331 0.728 . S
C2491 C682 0.730 . S
C2509 C538 2.324 . S
C2507 C159 2.335 . S
C2525 C303 0.909 . S
C2527 C745 0.876 . S
C2545 C618 2.339 . S
C2543 C137 2.310 . S
C2563 C905 2.081 . S
C2561 C238 2.166 . S
C2581 C511 2.185 . S
C2579 C210 2.196 . S
C2597 C235 1.579 . S
C2599 C705 1.560 . S
C2617 C579 1.575 . S
C2615 C191 1.594 . S
C2633 C207 1.816 . S
C2635 C625 1.856 . S
C2651 C177 2.699 . S
C2653 C958 2.691 . S
C2671 C778 1.706 . S
C2669 C229 1.634 . S
C2689 C842 0.741 . S
C2687 C271 0.741 . S
