# Generated by pormake.
# Topology pth, (4,4)-cn, num edge types: 1
# Building blocks:
#     Node 0, Type 0, BuildingBlock: AZAVOO_clean_sbu_0, # of connection points: 4
#     Node 1, Type 0, BuildingBlock: AZAVOO_clean_sbu_0, # of connection points: 4
#     Node 2, Type 0, BuildingBlock: AZAVOO_clean_sbu_0, # of connection points: 4
#     Node 3, Type 1, BuildingBlock: KOZSID_clean_sbu_0, # of connection points: 4
#     Node 4, Type 1, BuildingBlock: KOZSID_clean_sbu_0, # of connection points: 4
#     Node 5, Type 1, BuildingBlock: KOZSID_clean_sbu_0, # of connection points: 4
#     Edge 6, Type (0, 1), BuildingBlock: MIFKUJ_clean_linker_0, # of connection points: 2
#     Edge 7, Type (0, 1), BuildingBlock: MIFKUJ_clean_linker_0, # of connection points: 2
#     Edge 8, Type (0, 1), BuildingBlock: MIFKUJ_clean_linker_0, # of connection points: 2
#     Edge 9, Type (0, 1), BuildingBlock: MIFKUJ_clean_linker_0, # of connection points: 2
#     Edge 10, Type (0, 1), BuildingBlock: MIFKUJ_clean_linker_0, # of connection points: 2
#     Edge 11, Type (0, 1), BuildingBlock: MIFKUJ_clean_linker_0, # of connection points: 2
#     Edge 12, Type (0, 1), BuildingBlock: MIFKUJ_clean_linker_0, # of connection points: 2
#     Edge 13, Type (0, 1), BuildingBlock: MIFKUJ_clean_linker_0, # of connection points: 2
#     Edge 14, Type (0, 1), BuildingBlock: MIFKUJ_clean_linker_0, # of connection points: 2
#     Edge 15, Type (0, 1), BuildingBlock: MIFKUJ_clean_linker_0, # of connection points: 2
#     Edge 16, Type (0, 1), BuildingBlock: MIFKUJ_clean_linker_0, # of connection points: 2
#     Edge 17, Type (0, 1), BuildingBlock: MIFKUJ_clean_linker_0, # of connection points: 2
# Relax obj value: 0.065
# Max RMSD: 0.213
# Mean RMSD: 0.106
data_MOF--net-pth--node1-AZAVOO_clean_sbu_0--node2-KOZSID_clean_sbu_0--edge1-MIFKUJ_clean_linker_0
_symmetry_space_group_name_H-M    P1
_symmetry_Int_Tables_number       1
_symmetry_cell_setting            triclinic
loop_
_symmetry_equiv_pos_as_xyz
'x, y, z'
_cell_length_a     33.497651
_cell_length_b     34.137788
_cell_length_c     75.291412
_cell_angle_alpha  88.704301
_cell_angle_beta   90.395786
_cell_angle_gamma 121.83858
loop_
_atom_site_label
_atom_site_type_symbol
_atom_site_fract_x
_atom_site_fract_y
_atom_site_fract_z
_atom_type_partial_charge
Mg0 Mg 0.12522 0.07842 0.02773 0.0
O1 O 0.05976 0.02987 0.01163 0.0
O2 O 0.04191 0.0721 0.99411 0.0
Mg3 Mg 0.09578 0.14796 0.9991 0.0
C4 C 0.03394 0.03315 -0.00012 0.0
C5 C 0.11982 0.02098 0.06203 0.0
O6 O 0.13783 0.06141 0.06939 0.0
O7 O 0.08274 0.09609 0.04583 0.0
O8 O 0.06855 0.13995 0.02759 0.0
O9 O 0.17158 0.08084 0.00587 0.0
O10 O 0.1463 0.12876 0.00775 0.0
C11 C 0.06541 0.12111 0.04279 0.0
C12 C 0.16881 0.11441 0.99897 0.0
O13 O 0.111 0.01744 0.0455 0.0
Mg14 Mg 0.9789 0.02767 0.35853 0.0
O15 O 0.04435 0.05399 0.37581 0.0
O16 O 0.04517 0.10113 0.39618 0.0
Mg17 Mg 0.9817 0.10795 0.39102 0.0
C18 C 0.06295 0.08005 0.3891 0.0
C19 C 0.02478 0.97437 0.34506 0.0
O20 O 0.02806 0.96992 0.3623 0.0
O21 O 0.01393 0.09677 0.34331 0.0
O22 O 0.01068 0.14176 0.36365 0.0
O23 O 0.93474 0.97014 0.37831 0.0
O24 O 0.94631 0.04012 0.37889 0.0
C25 C 0.0209 0.13564 0.34804 0.0
C26 C 0.92876 -2e-05 0.3862 0.0
O27 O 0.00686 0.997 0.33925 0.0
Mg28 Mg 0.04939 0.01996 0.68095 0.0
O29 O 0.09465 0.0743 0.70138 0.0
O30 O 0.04768 0.07588 0.72188 0.0
Mg31 Mg 0.97197 0.02028 0.71513 0.0
C32 C 0.08854 0.09062 0.71547 0.0
C33 C 0.15094 0.05622 0.66771 0.0
O34 O 0.15383 0.04539 0.68433 0.0
O35 O 0.02563 0.06644 0.66908 0.0
O36 O 0.97486 0.06023 0.68972 0.0
O37 O 0.05185 0.96503 0.69691 0.0
O38 O 0.99845 0.98369 0.70035 0.0
C39 C 0.99512 0.07505 0.6746 0.0
C40 C 0.01593 0.95969 0.70552 0.0
O41 O 0.11214 0.04989 0.66207 0.0
C42 C 0.10407 0.62928 0.16435 0.0
C43 C 0.14721 0.66145 0.1568 0.0
C44 C 0.18012 0.6564 0.1655 0.0
C45 C 0.15525 0.62151 0.17776 0.0
N46 N 0.10829 0.60324 0.17716 0.0
Co47 Co 0.0591 0.55358 0.19311 0.0
N48 N 0.10795 0.54954 0.20718 0.0
C49 C 0.15508 0.57482 0.20466 0.0
C50 C 0.17935 0.56294 0.216 0.0
C51 C 0.1457 0.52735 0.22618 0.0
C52 C 0.10272 0.51958 0.22038 0.0
N53 N 0.0099 0.50421 0.20918 0.0
C54 C 0.0142 0.47884 0.22229 0.0
C55 C 0.97098 0.4467 0.22981 0.0
C56 C 0.93809 0.45155 0.22097 0.0
C57 C 0.96296 0.48616 0.2086 0.0
N58 N 0.01025 0.55741 0.17887 0.0
C59 C 0.96305 0.53146 0.18115 0.0
C60 C 0.93887 0.54365 0.16989 0.0
C61 C 0.9726 0.58007 0.16003 0.0
C62 C 0.01559 0.58792 0.16585 0.0
N63 N 0.05356 0.50532 0.17719 0.0
C64 C 0.04527 0.43253 0.15724 0.0
C65 C 0.00547 0.43193 0.16302 0.0
C66 C 0.01037 0.46833 0.17287 0.0
C67 C 0.08935 0.47076 0.16121 0.0
C68 C 0.09265 0.50661 0.17102 0.0
N69 N 0.0645 0.60164 0.20909 0.0
C70 C 0.02796 0.63582 0.22476 0.0
C71 C 0.07157 0.67174 0.23038 0.0
C72 C 0.11166 0.67176 0.22547 0.0
C73 C 0.1074 0.63681 0.21475 0.0
C74 C 0.02521 0.60121 0.21438 0.0
H75 H 0.13928 0.63928 0.21105 0.0
H76 H 0.99086 0.57466 0.21071 0.0
H77 H 0.97862 0.46524 0.17707 0.0
H78 H 0.1272 0.53472 0.17362 0.0
C79 C 0.17522 0.60751 0.19081 0.0
C80 C 0.06058 0.62683 0.15966 0.0
C81 C 0.05791 0.48196 0.22723 0.0
C82 C 0.94295 0.49945 0.19526 0.0
H83 H 0.15422 0.68685 0.14645 0.0
H84 H 0.21783 0.67684 0.16357 0.0
H85 H 0.21691 0.57748 0.21645 0.0
H86 H 0.15193 0.50845 0.23642 0.0
H87 H 0.96381 0.42142 0.24023 0.0
H88 H 0.90037 0.43105 0.22286 0.0
H89 H 0.90132 0.52921 0.16948 0.0
H90 H 0.96627 0.59965 0.15014 0.0
H91 H 0.97053 0.40296 0.16032 0.0
H92 H 0.12123 0.47318 0.1567 0.0
H93 H 0.99592 0.63418 0.22851 0.0
H94 H 0.14621 0.69915 0.22955 0.0
C95 C 0.50001 0.07817 0.54912 0.0
C96 C 0.46645 0.04281 0.56005 0.0
C97 C 0.46149 0.00289 0.55433 0.0
C98 C 0.4921 0.01598 0.54032 0.0
N99 N 0.51646 0.06195 0.53672 0.0
Co100 Co 0.56456 0.09564 0.51743 0.0
N101 N 0.55657 0.03668 0.50897 0.0
C102 C 0.52484 0.99335 0.5148 0.0
C103 C 0.52844 0.95993 0.50656 0.0
C104 C 0.56511 0.98334 0.49494 0.0
C105 C 0.58185 0.02986 0.49686 0.0
N106 N 0.6139 0.12937 0.49852 0.0
C107 C 0.63448 0.11369 0.48775 0.0
C108 C 0.66989 0.14903 0.47742 0.0
C109 C 0.67218 0.18861 0.48199 0.0
C110 C 0.63838 0.17527 0.49485 0.0
N111 N 0.57169 0.15451 0.52564 0.0
C112 C 0.59984 0.19726 0.51846 0.0
C113 C 0.59606 0.23068 0.5266 0.0
C114 C 0.56319 0.2079 0.53967 0.0
C115 C 0.54878 0.16172 0.53871 0.0
N116 N 0.61429 0.10338 0.53398 0.0
C117 C 0.68631 0.11348 0.55651 0.0
C118 C 0.69133 0.15112 0.54678 0.0
C119 C 0.65498 0.14543 0.53579 0.0
C120 C 0.64455 0.0708 0.5549 0.0
C121 C 0.60936 0.06649 0.54358 0.0
N122 N 0.51457 0.088 0.50077 0.0
C123 C 0.48746 0.11898 0.47772 0.0
C124 C 0.44218 0.08011 0.47888 0.0
C125 C 0.43388 0.04466 0.49078 0.0
C126 C 0.47039 0.04904 0.50135 0.0
C127 C 0.52273 0.1223 0.48876 0.0
H128 H 0.46165 0.02059 0.51 0.0
H129 H 0.556 0.15338 0.48747 0.0
H130 H 0.66063 0.17546 0.52882 0.0
H131 H 0.57861 0.03292 0.54267 0.0
C132 C 0.49648 0.98565 0.52957 0.0
C133 C 0.51302 0.12608 0.55044 0.0
C134 C 0.62341 0.06631 0.48764 0.0
C135 C 0.63022 0.20511 0.50434 0.0
H136 H 0.4467 0.04529 0.5708 0.0
H137 H 0.43757 0.96833 0.5595 0.0
H138 H 0.50828 0.92312 0.50927 0.0
H139 H 0.57898 0.96808 0.48643 0.0
H140 H 0.69255 0.14666 0.46791 0.0
H141 H 0.69658 0.2232 0.47695 0.0
H142 H 0.61498 0.26726 0.52342 0.0
H143 H 0.55107 0.22344 0.54885 0.0
H144 H 0.72297 0.18494 0.5478 0.0
H145 H 0.63937 0.04059 0.56209 0.0
H146 H 0.49534 0.14745 0.46874 0.0
H147 H 0.3993 0.01362 0.49194 0.0
C148 C 0.67869 0.58167 0.83288 0.0
C149 C 0.71478 0.57388 0.82977 0.0
C150 C 0.70461 0.53555 0.83951 0.0
C151 C 0.66341 0.52242 0.84812 0.0
N152 N 0.64629 0.54981 0.8444 0.0
Co153 Co 0.58958 0.54553 0.85533 0.0
N154 N 0.57526 0.4895 0.86985 0.0
C155 C 0.59938 0.46783 0.86996 0.0
C156 C 0.5794 0.42852 0.88038 0.0
C157 C 0.53966 0.42432 0.88714 0.0
C158 C 0.5379 0.46167 0.88047 0.0
N159 N 0.53361 0.542 0.86664 0.0
C160 C 0.50095 0.50981 0.87797 0.0
C161 C 0.46742 0.52 0.88256 0.0
C162 C 0.47887 0.55976 0.87356 0.0
C163 C 0.51864 0.57157 0.86409 0.0
N164 N 0.60301 0.60067 0.84041 0.0
C165 C 0.57749 0.62093 0.83972 0.0
C166 C 0.59445 0.65717 0.82779 0.0
C167 C 0.63332 0.66055 0.82049 0.0
C168 C 0.63813 0.62629 0.82857 0.0
N169 N 0.54906 0.50455 0.83623 0.0
C170 C 0.48555 0.44117 0.81149 0.0
C171 C 0.48092 0.47701 0.81751 0.0
C172 C 0.51298 0.50822 0.82959 0.0
C173 C 0.52368 0.43868 0.81763 0.0
C174 C 0.55475 0.47045 0.82991 0.0
N175 N 0.63003 0.58655 0.87452 0.0
C176 C 0.65963 0.65611 0.89127 0.0
C177 C 0.69084 0.64768 0.90041 0.0
C178 C 0.69035 0.60754 0.89667 0.0
C179 C 0.6598 0.57762 0.88383 0.0
C180 C 0.62982 0.62539 0.87854 0.0
H181 H 0.66129 0.54777 0.88157 0.0
H182 H 0.60748 0.63432 0.87194 0.0
H183 H 0.50711 0.53439 0.83367 0.0
H184 H 0.58264 0.46631 0.8343 0.0
C185 C 0.64011 0.48467 0.85982 0.0
C186 C 0.67734 0.62033 0.8249 0.0
C187 C 0.49914 0.46817 0.88407 0.0
C188 C 0.53945 0.60691 0.8512 0.0
H189 H 0.74568 0.59405 0.82152 0.0
H190 H 0.72514 0.51952 0.84039 0.0
H191 H 0.59173 0.40518 0.8825 0.0
H192 H 0.51438 0.39643 0.89574 0.0
H193 H 0.43714 0.50004 0.89116 0.0
H194 H 0.45945 0.57699 0.87339 0.0
H195 H 0.58066 0.67905 0.82495 0.0
H196 H 0.65591 0.68582 0.81051 0.0
H197 H 0.4518 0.48036 0.8134 0.0
H198 H 0.52948 0.41217 0.81311 0.0
H199 H 0.65903 0.68702 0.89354 0.0
H200 H 0.71346 0.59919 0.90359 0.0
H201 H 0.09258 0.13199 0.07751 0.0
H202 H 0.07742 0.17393 0.09966 0.0
H203 H 0.98143 0.18275 0.06366 0.0
H204 H 0.99801 0.14254 0.04127 0.0
H205 H 0.04479 0.26412 0.07327 0.0
H206 H 0.94632 0.12138 0.1048 0.0
H207 H 0.92516 0.04739 0.11934 0.0
H208 H 0.03712 0.11877 0.15669 0.0
H209 H 0.05939 0.1932 0.14223 0.0
H210 H 0.98439 0.38601 0.13031 0.0
H211 H 0.97767 0.32252 0.11339 0.0
H212 H 0.0892 0.32763 0.14426 0.0
H213 H 0.09556 0.39072 0.16151 0.0
H214 H 0.01432 0.23699 0.13811 0.0
H215 H 0.11526 0.37817 0.10512 0.0
H216 H 0.13663 0.45221 0.09055 0.0
H217 H 0.01852 0.38186 0.05566 0.0
H218 H 0.99604 0.30743 0.07021 0.0
C219 C 0.06708 0.14156 0.07456 0.0
C220 C 0.04681 0.13447 0.05763 0.0
C221 C 0.05837 0.16552 0.08725 0.0
C222 C 0.02842 0.18176 0.08332 0.0
C223 C 0.005 0.17096 0.06695 0.0
C224 C 0.01434 0.14783 0.05418 0.0
C225 C 0.02654 0.21522 0.09503 0.0
C226 C 0.03705 0.25757 0.08738 0.0
C227 C 0.01815 0.20758 0.11356 0.0
C228 C 0.00477 0.16287 0.12232 0.0
C229 C 0.96668 0.1213 0.11603 0.0
C230 C 0.95443 0.07927 0.12427 0.0
C231 C 0.97985 0.07837 0.1389 0.0
C232 C 0.01749 0.11952 0.14535 0.0
C233 C 0.0299 0.16164 0.13714 0.0
C234 C 0.00711 0.37327 0.13364 0.0
C235 C 0.04073 0.39355 0.14716 0.0
C236 C 0.00334 0.33712 0.12393 0.0
C237 C 0.03313 0.32062 0.12753 0.0
C238 C 0.06588 0.3399 0.14131 0.0
C239 C 0.06983 0.37624 0.15099 0.0
C240 C 0.03187 0.2851 0.1162 0.0
C241 C 0.02131 0.24285 0.12394 0.0
C242 C 0.0401 0.29261 0.0977 0.0
C243 C 0.05369 0.33731 0.08888 0.0
C244 C 0.09362 0.37854 0.09444 0.0
C245 C 0.10597 0.42057 0.08617 0.0
C246 C 0.07887 0.42176 0.07222 0.0
C247 C 0.03943 0.3809 0.06648 0.0
C248 C 0.02688 0.33878 0.07473 0.0
H249 H 0.0885 0.45433 0.06583 0.0
H250 H 0.97031 0.0458 0.14527 0.0
H251 H 0.83978 0.92835 0.3926 0.0
H252 H 0.78621 0.92825 0.41471 0.0
H253 H 0.90259 0.04853 0.43846 0.0
H254 H 0.95581 0.049 0.41631 0.0
H255 H 0.7749 0.93659 0.45269 0.0
H256 H 0.87521 0.13005 0.43563 0.0
H257 H 0.92967 0.18386 0.41251 0.0
H258 H 0.866 0.07686 0.37408 0.0
H259 H 0.81063 0.02276 0.39688 0.0
H260 H 0.68481 0.04794 0.50347 0.0
H261 H 0.73669 0.02736 0.48907 0.0
H262 H 0.68395 0.03761 0.43779 0.0
H263 H 0.63262 0.05877 0.45225 0.0
H264 H 0.77728 0.08007 0.43724 0.0
H265 H 0.64804 0.93357 0.45744 0.0
H266 H 0.59189 0.87796 0.47968 0.0
H267 H 0.70564 0.88584 0.50944 0.0
H268 H 0.76259 0.94218 0.48753 0.0
C269 C 0.85411 0.95331 0.40309 0.0
C270 C 0.90149 0.98919 0.40267 0.0
C271 C 0.82355 0.95326 0.4157 0.0
C272 C 0.84042 0.98899 0.42793 0.0
C273 C 0.88891 0.02102 0.42897 0.0
C274 C 0.91921 0.02137 0.4163 0.0
C275 C 0.80743 0.99896 0.43666 0.0
C276 C 0.77543 0.96797 0.44943 0.0
C277 C 0.80752 0.03943 0.43202 0.0
C278 C 0.83912 0.07231 0.418 0.0
C279 C 0.87262 0.11816 0.42221 0.0
C280 C 0.90366 0.14868 0.40917 0.0
C281 C 0.90136 0.13376 0.39185 0.0
C282 C 0.86779 0.08837 0.3875 0.0
C283 C 0.83657 0.05778 0.40047 0.0
C284 C 0.68465 0.04585 0.48912 0.0
C285 C 0.65538 0.0551 0.47884 0.0
C286 C 0.71391 0.03388 0.48094 0.0
C287 C 0.71381 0.03053 0.46238 0.0
C288 C 0.68455 0.04002 0.45213 0.0
C289 C 0.65538 0.05208 0.46032 0.0
C290 C 0.74489 0.01807 0.45356 0.0
C291 C 0.77665 0.0487 0.44065 0.0
C292 C 0.74386 0.97692 0.4579 0.0
C293 C 0.70962 0.94239 0.47092 0.0
C294 C 0.66112 0.92367 0.46879 0.0
C295 C 0.62914 0.89201 0.48133 0.0
C296 C 0.64519 0.87843 0.49598 0.0
C297 C 0.69326 0.89641 0.49809 0.0
C298 C 0.72541 0.9282 0.48561 0.0
H299 H 0.62038 0.85392 0.50568 0.0
H300 H 0.92559 0.15736 0.38179 0.0
H301 H 0.98292 0.97088 0.73668 0.0
H302 H 0.93423 0.91066 0.75878 0.0
H303 H 0.94927 0.81215 0.72941 0.0
H304 H 0.99906 0.87273 0.70742 0.0
H305 H 0.85093 0.79577 0.73649 0.0
H306 H 0.99479 0.82793 0.76465 0.0
H307 H 0.07273 0.87849 0.7779 0.0
H308 H 0.01109 0.91973 0.81741 0.0
H309 H 0.93283 0.86993 0.80423 0.0
H310 H 0.70319 0.60585 0.79269 0.0
H311 H 0.76876 0.66183 0.77375 0.0
H312 H 0.80345 0.76786 0.81184 0.0
H313 H 0.73948 0.71098 0.83123 0.0
H314 H 0.88053 0.77858 0.8 0.0
H315 H 0.74171 0.75693 0.77265 0.0
H316 H 0.66223 0.71376 0.75985 0.0
H317 H 0.71136 0.66246 0.71931 0.0
H318 H 0.79105 0.70481 0.73204 0.0
C319 C 0.97649 0.93659 0.73512 0.0
C320 C 0.99419 0.92613 0.72033 0.0
C321 C 0.949 0.90238 0.74778 0.0
C322 C 0.93823 0.85715 0.74563 0.0
C323 C 0.9575 0.84703 0.73126 0.0
C324 C 0.98597 0.88156 0.7188 0.0
C325 C 0.90255 0.81977 0.75724 0.0
C326 C 0.85749 0.79119 0.75029 0.0
C327 C 0.91098 0.81562 0.77537 0.0
C328 C 0.958 0.84552 0.78334 0.0
C329 C 0.9979 0.84813 0.77605 0.0
C330 C 0.04213 0.87657 0.78358 0.0
C331 C 0.04688 0.9024 0.79846 0.0
C332 C 0.00737 0.89975 0.80587 0.0
C333 C 0.96306 0.87138 0.79839 0.0
C334 C 0.72516 0.6411 0.79699 0.0
C335 C 0.71661 0.65442 0.8133 0.0
C336 C 0.76235 0.6731 0.78616 0.0
C337 C 0.79066 0.7193 0.79123 0.0
C338 C 0.78218 0.73246 0.80764 0.0
C339 C 0.74554 0.7002 0.81863 0.0
C340 C 0.8285 0.75406 0.77927 0.0
C341 C 0.87388 0.78251 0.78615 0.0
C342 C 0.82009 0.75908 0.76114 0.0
C343 C 0.77223 0.73363 0.75342 0.0
C344 C 0.73549 0.73615 0.76109 0.0
C345 C 0.69041 0.71187 0.75383 0.0
C346 C 0.68172 0.68528 0.73881 0.0
C347 C 0.71813 0.68301 0.73098 0.0
C348 C 0.76327 0.70715 0.7382 0.0
H349 H 0.6468 0.66652 0.73321 0.0
H350 H 0.08115 0.92439 0.80427 0.0
H351 H 0.13705 0.01662 0.09741 0.0
H352 H 0.12403 0.94931 0.11471 0.0
H353 H 0.06969 0.86578 0.06818 0.0
H354 H 0.08202 0.93266 0.05084 0.0
H355 H 0.01658 0.82081 0.09711 0.0
H356 H 0.18087 0.90537 0.08191 0.0
H357 H 0.26137 0.97363 0.08014 0.0
H358 H 0.2665 0.981 0.13704 0.0
H359 H 0.18573 0.91311 0.13913 0.0
H360 H 0.03743 0.6316 0.12523 0.0
H361 H 0.04458 0.69874 0.10935 0.0
H362 H 0.09724 0.77814 0.157 0.0
H363 H 0.09027 0.71102 0.17278 0.0
H364 H 0.15003 0.82561 0.12829 0.0
H365 H 0.98641 0.73837 0.14344 0.0
H366 H 0.90662 0.66903 0.14497 0.0
H367 H 0.90038 0.6659 0.08801 0.0
H368 H 0.98051 0.73481 0.08613 0.0
C369 C 0.1222 0.98392 0.09086 0.0
C370 C 0.11084 0.98011 0.07271 0.0
C371 C 0.11492 0.9455 0.10076 0.0
C372 C 0.09638 0.90264 0.09268 0.0
C373 C 0.08407 0.89852 0.07467 0.0
C374 C 0.09133 0.93687 0.06477 0.0
C375 C 0.09052 0.86221 0.10289 0.0
C376 C 0.04584 0.82167 0.10377 0.0
C377 C 0.12851 0.86367 0.11189 0.0
C378 C 0.17707 0.90448 0.11066 0.0
C379 C 0.19901 0.92179 0.09403 0.0
C380 C 0.24472 0.96036 0.09297 0.0
C381 C 0.26898 0.98172 0.10846 0.0
C382 C 0.24763 0.96447 0.12505 0.0
C383 C 0.2019 0.92593 0.12618 0.0
C384 C 0.05008 0.66338 0.13225 0.0
C385 C 0.06289 0.66646 0.15016 0.0
C386 C 0.05411 0.70157 0.12324 0.0
C387 C 0.071 0.7433 0.13206 0.0
C388 C 0.08405 0.74629 0.14997 0.0
C389 C 0.07994 0.70809 0.15897 0.0
C390 C 0.07613 0.78417 0.12248 0.0
C391 C 0.1207 0.8248 0.1217 0.0
C392 C 0.03806 0.78272 0.11356 0.0
C393 C 0.98967 0.74152 0.11465 0.0
C394 C 0.96818 0.7227 0.13124 0.0
C395 C 0.92287 0.68349 0.13217 0.0
C396 C 0.89848 0.66301 0.1166 0.0
C397 C 0.91933 0.68177 0.10006 0.0
C398 C 0.96469 0.72092 0.09905 0.0
H399 H 0.8634 0.63266 0.11735 0.0
H400 H 0.30437 0.01158 0.10761 0.0
H401 H 0.13346 0.07763 0.3723 0.0
H402 H 0.20156 0.08068 0.38589 0.0
H403 H 0.15324 0.09044 0.4377 0.0
H404 H 0.0871 0.09069 0.42399 0.0
H405 H 0.24085 0.14233 0.43733 0.0
H406 H 0.13746 0.98561 0.4191 0.0
H407 H 0.08993 0.92428 0.39781 0.0
H408 H 0.21354 0.9651 0.36681 0.0
H409 H 0.26172 0.02713 0.38778 0.0
H410 H 0.35609 0.05812 0.49077 0.0
H411 H 0.29395 0.05906 0.47375 0.0
H412 H 0.37884 0.09739 0.42625 0.0
H413 H 0.44151 0.09707 0.44327 0.0
H414 H 0.27739 0.0233 0.42306 0.0
H415 H 0.37989 0.17873 0.44351 0.0
H416 H 0.42455 0.23638 0.46636 0.0
H417 H 0.29694 0.19167 0.49528 0.0
H418 H 0.25159 0.13324 0.47273 0.0
C419 C 0.13774 0.08083 0.38658 0.0
C420 C 0.1051 0.08387 0.39712 0.0
C421 C 0.17642 0.08217 0.39436 0.0
C422 C 0.18209 0.08464 0.41291 0.0
C423 C 0.14978 0.08848 0.42338 0.0
C424 C 0.11194 0.08857 0.41555 0.0
C425 C 0.22128 0.08291 0.42152 0.0
C426 C 0.24831 0.1159 0.43429 0.0
C427 C 0.23194 0.04903 0.41739 0.0
C428 C 0.20312 0.01129 0.40492 0.0
C429 C 0.15446 0.98165 0.4077 0.0
C430 C 0.12741 0.94677 0.39569 0.0
C431 C 0.14869 0.94087 0.38095 0.0
C432 C 0.1971 0.96976 0.37822 0.0
C433 C 0.2243 0.00476 0.39017 0.0
C434 C 0.36122 0.06619 0.47665 0.0
C435 C 0.40352 0.07759 0.4683 0.0
C436 C 0.32587 0.06687 0.46699 0.0
C437 C 0.33204 0.07844 0.4488 0.0
C438 C 0.37356 0.08836 0.44028 0.0
C439 C 0.40929 0.0884 0.45001 0.0
C440 C 0.29581 0.08208 0.43892 0.0
C441 C 0.26964 0.04962 0.42595 0.0
C442 C 0.28528 0.11581 0.44308 0.0
C443 C 0.31242 0.15134 0.45652 0.0
C444 C 0.3614 0.18095 0.45482 0.0
C445 C 0.38683 0.21381 0.4677 0.0
C446 C 0.36362 0.21762 0.48228 0.0
C447 C 0.31489 0.18865 0.48398 0.0
C448 C 0.2893 0.15569 0.47115 0.0
H449 H 0.38337 0.24307 0.49225 0.0
H450 H 0.12771 0.91384 0.37167 0.0
H451 H 0.09048 0.14078 0.74372 0.0
H452 H 0.15942 0.20107 0.75909 0.0
H453 H 0.24977 0.18265 0.72427 0.0
H454 H 0.1812 0.12318 0.70855 0.0
H455 H 0.22542 0.20119 0.77773 0.0
H456 H 0.35265 0.28671 0.71708 0.0
H457 H 0.34864 0.30077 0.68503 0.0
H458 H 0.21598 0.28923 0.69268 0.0
H459 H 0.21979 0.27656 0.72485 0.0
H460 H 0.45147 0.34826 0.81162 0.0
H461 H 0.38749 0.28944 0.79392 0.0
H462 H 0.37137 0.39405 0.76778 0.0
H463 H 0.43758 0.45343 0.78442 0.0
H464 H 0.35703 0.33385 0.74494 0.0
H465 H 0.30063 0.32653 0.80383 0.0
H466 H 0.30096 0.32042 0.83653 0.0
H467 H 0.28255 0.18644 0.83325 0.0
H468 H 0.28276 0.19203 0.8005 0.0
C469 C 0.12501 0.14961 0.73928 0.0
C470 C 0.13026 0.12727 0.72483 0.0
C471 C 0.16439 0.18398 0.74814 0.0
C472 C 0.20979 0.19668 0.74274 0.0
C473 C 0.21513 0.17399 0.72849 0.0
C474 C 0.17581 0.13987 0.71953 0.0
C475 C 0.25153 0.23369 0.75202 0.0
C476 C 0.25421 0.23016 0.77055 0.0
C477 C 0.28868 0.27205 0.74271 0.0
C478 C 0.28622 0.27999 0.72337 0.0
C479 C 0.32268 0.28729 0.71194 0.0
C480 C 0.32044 0.29501 0.69374 0.0
C481 C 0.2819 0.29545 0.6868 0.0
C482 C 0.24568 0.28859 0.69806 0.0
C483 C 0.24788 0.28117 0.71628 0.0
C484 C 0.43519 0.359 0.80179 0.0
C485 C 0.44946 0.40569 0.79963 0.0
C486 C 0.39808 0.32516 0.79185 0.0
C487 C 0.37378 0.33715 0.77984 0.0
C488 C 0.38926 0.38385 0.77708 0.0
C489 C 0.42684 0.41777 0.78679 0.0
C490 C 0.33119 0.30107 0.77061 0.0
C491 C 0.32834 0.30475 0.7521 0.0
C492 C 0.29312 0.26375 0.78001 0.0
C493 C 0.29214 0.25988 0.79971 0.0
C494 C 0.29689 0.29586 0.81008 0.0
C495 C 0.29697 0.29249 0.82863 0.0
C496 C 0.29189 0.25311 0.83696 0.0
C497 C 0.28655 0.21694 0.82677 0.0
C498 C 0.28652 0.22017 0.80822 0.0
H499 H 0.29198 0.25059 0.85132 0.0
H500 H 0.28022 0.30133 0.6727 0.0
H501 H 0.92668 0.09355 0.68111 0.0
H502 H 0.88549 0.11295 0.65931 0.0
H503 H 0.98145 0.12614 0.61842 0.0
H504 H 0.0229 0.10585 0.64014 0.0
H505 H 0.94098 0.19497 0.61976 0.0
H506 H 0.90257 0.03595 0.61505 0.0
H507 H 0.88334 0.96116 0.62828 0.0
H508 H 0.7627 0.94753 0.65421 0.0
H509 H 0.78175 0.02268 0.64135 0.0
H510 H 0.78003 0.15633 0.54881 0.0
H511 H 0.84196 0.1608 0.56779 0.0
H512 H 0.7401 0.08707 0.60965 0.0
H513 H 0.67812 0.08162 0.59058 0.0
H514 H 0.79063 0.0512 0.60574 0.0
H515 H 0.82436 0.20603 0.61055 0.0
H516 H 0.84263 0.28232 0.59946 0.0
H517 H 0.96956 0.30625 0.57526 0.0
H518 H 0.95171 0.2298 0.58602 0.0
C519 C 0.93997 0.10162 0.6676 0.0
C520 C 0.97765 0.09725 0.66233 0.0
C521 C 0.91639 0.1129 0.65518 0.0
C522 C 0.93032 0.12057 0.63731 0.0
C523 C 0.97039 0.1204 0.63221 0.0
C524 C 0.99387 0.10863 0.64463 0.0
C525 C 0.89852 0.12142 0.62386 0.0
C526 C 0.90846 0.1636 0.61636 0.0
C527 C 0.85577 0.08053 0.61987 0.0
C528 C 0.84386 0.03508 0.6274 0.0
C529 C 0.8722 0.01718 0.62371 0.0
C530 C 0.86129 0.9747 0.63111 0.0
C531 C 0.82189 0.94966 0.64212 0.0
C532 C 0.79324 0.96699 0.6457 0.0
C533 C 0.80406 0.0095 0.63835 0.0
C534 C 0.77109 0.14153 0.56214 0.0
C535 C 0.72432 0.11848 0.56824 0.0
C536 C 0.80647 0.14421 0.57299 0.0
C537 C 0.79579 0.12457 0.59021 0.0
C538 C 0.74918 0.1023 0.59639 0.0
C539 C 0.71378 0.09913 0.58549 0.0
C540 C 0.83239 0.12501 0.6016 0.0
C541 C 0.82331 0.0828 0.60882 0.0
C542 C 0.87564 0.16602 0.60538 0.0
C543 C 0.88643 0.21198 0.59892 0.0
C544 C 0.85597 0.2274 0.60273 0.0
C545 C 0.86629 0.2707 0.59653 0.0
C546 C 0.90716 0.29905 0.58661 0.0
C547 C 0.93787 0.28421 0.58292 0.0
C548 C 0.92769 0.24092 0.58907 0.0
H549 H 0.91509 0.33257 0.58183 0.0
H550 H 0.81349 0.91678 0.64784 0.0
H551 H 0.00638 0.94364 0.00812 0.0
H552 H 0.94687 0.87405 0.99318 0.0
H553 H 0.91391 0.95614 0.959 0.0
H554 H 0.9735 0.02593 0.97367 0.0
H555 H 0.85206 0.83253 0.98805 0.0
H556 H 0.89699 0.91432 0.9173 0.0
H557 H 0.96475 0.97716 0.90074 0.0
H558 H 0.05951 0.96523 0.93588 0.0
H559 H 0.99235 0.90191 0.95248 0.0
H560 H 0.67514 0.69561 0.92521 0.0
H561 H 0.73302 0.75648 0.94424 0.0
H562 H 0.84104 0.7369 0.92368 0.0
H563 H 0.78366 0.67699 0.90421 0.0
H564 H 0.86909 0.82568 0.92295 0.0
H565 H 0.79892 0.70167 0.96579 0.0
H566 H 0.73414 0.63678 0.98273 0.0
H567 H 0.69546 0.72792 0.00402 0.0
H568 H 0.75962 0.79326 0.98702 0.0
C569 C 0.98625 0.94694 0.99751 0.0
C570 C 0.99511 0.9905 0.99198 0.0
C571 C 0.95215 0.90707 0.98904 0.0
C572 C 0.9265 0.91007 0.97485 0.0
C573 C 0.93386 0.95321 0.96977 0.0
C574 C 0.96789 0.99306 0.97821 0.0
C575 C 0.89353 0.86846 0.9648 0.0
C576 C 0.85569 0.83094 0.97382 0.0
C577 C 0.89894 0.86614 0.94631 0.0
C578 C 0.93961 0.90368 0.93623 0.0
C579 C 0.93229 0.92498 0.92144 0.0
C580 C 0.97059 0.9607 0.91206 0.0
C581 C 0.0164 0.97527 0.91729 0.0
C582 C 0.02401 0.95403 0.93188 0.0
C583 C 0.98584 0.91826 0.94129 0.0
C584 C 0.71121 0.70421 0.92477 0.0
C585 C 0.72485 0.68158 0.91316 0.0
C586 C 0.74414 0.73869 0.93578 0.0
C587 C 0.79128 0.75101 0.93545 0.0
C588 C 0.80481 0.72784 0.92415 0.0
C589 C 0.7719 0.69335 0.91315 0.0
C590 C 0.82697 0.78989 0.94612 0.0
C591 C 0.86538 0.82706 0.93719 0.0
C592 C 0.82241 0.79149 0.96472 0.0
C593 C 0.78385 0.75229 0.975 0.0
C594 C 0.77637 0.70781 0.97398 0.0
C595 C 0.73981 0.67096 0.98361 0.0
C596 C 0.71064 0.6782 0.99441 0.0
C597 C 0.71805 0.72235 0.99564 0.0
C598 C 0.75455 0.75931 0.98602 0.0
H599 H 0.68235 0.64962 0.00186 0.0
H600 H 0.046 0.00297 0.91002 0.0
H601 H 0.01056 0.96565 0.30919 0.0
H602 H 0.02614 0.91959 0.28929 0.0
H603 H 0.08477 0.88219 0.33283 0.0
H604 H 0.0693 0.92821 0.35288 0.0
H605 H 0.13581 0.90204 0.30057 0.0
H606 H 0.9764 0.80884 0.32218 0.0
H607 H 0.89633 0.7916 0.32814 0.0
H608 H 0.87584 0.80321 0.27236 0.0
H609 H 0.95609 0.82118 0.26609 0.0
H610 H 0.11666 0.70333 0.26199 0.0
H611 H 0.11569 0.76006 0.28107 0.0
H612 H 0.03338 0.78093 0.24195 0.0
H613 H 0.03286 0.72302 0.22326 0.0
H614 H 0.99605 0.77066 0.27256 0.0
H615 H 0.15404 0.86264 0.25031 0.0
H616 H 0.2344 0.8813 0.24387 0.0
H617 H 0.2586 0.87412 0.2996 0.0
H618 H 0.17813 0.8548 0.30636 0.0
C619 C 0.02723 0.94806 0.31452 0.0
C620 C 0.03823 0.95018 0.33266 0.0
C621 C 0.03605 0.92172 0.30313 0.0
C622 C 0.05608 0.8971 0.30965 0.0
C623 C 0.06918 0.90088 0.32756 0.0
C624 C 0.06012 0.92702 0.339 0.0
C625 C 0.06057 0.86521 0.29801 0.0
C626 C 0.10532 0.873 0.29455 0.0
C627 C 0.02078 0.82792 0.28995 0.0
C628 C 0.9724 0.8168 0.29369 0.0
C629 C 0.95495 0.80807 0.3112 0.0
C630 C 0.90952 0.79811 0.31463 0.0
C631 C 0.88106 0.79643 0.30064 0.0
C632 C 0.89794 0.80458 0.28318 0.0
C633 C 0.94338 0.81462 0.27968 0.0
C634 C 0.0989 0.72054 0.25744 0.0
C635 C 0.0747 0.70883 0.24123 0.0
C636 C 0.09848 0.75306 0.26829 0.0
C637 C 0.0748 0.77518 0.2629 0.0
C638 C 0.05172 0.76426 0.24645 0.0
C639 C 0.05146 0.73125 0.23577 0.0
C640 C 0.07154 0.80766 0.27475 0.0
C641 C 0.0268 0.7998 0.27841 0.0
C642 C 0.11143 0.84503 0.28284 0.0
C643 C 0.1599 0.85684 0.27882 0.0
C644 C 0.17638 0.8647 0.26118 0.0
C645 C 0.22197 0.87545 0.25748 0.0
C646 C 0.25154 0.87877 0.27131 0.0
C647 C 0.23563 0.87148 0.28889 0.0
C648 C 0.19005 0.86067 0.29267 0.0
H649 H 0.28682 0.88709 0.26842 0.0
H650 H 0.84589 0.78871 0.30332 0.0
H651 H 0.23828 0.07298 0.67563 0.0
H652 H 0.3042 0.0976 0.65528 0.0
H653 H 0.22244 0.10417 0.61211 0.0
H654 H 0.15599 0.07891 0.63234 0.0
H655 H 0.26273 0.0569 0.60336 0.0
H656 H 0.31374 0.20239 0.63021 0.0
H657 H 0.33334 0.25534 0.65505 0.0
H658 H 0.44043 0.23005 0.67224 0.0
H659 H 0.42099 0.17639 0.64767 0.0
H660 H 0.44441 0.14168 0.54085 0.0
H661 H 0.38779 0.14415 0.56056 0.0
H662 H 0.46095 0.13427 0.60621 0.0
H663 H 0.51814 0.13286 0.58642 0.0
H664 H 0.42539 0.18844 0.61281 0.0
H665 H 0.37075 0.03853 0.5896 0.0
H666 H 0.35284 0.98304 0.56587 0.0
H667 H 0.25352 0.01316 0.54342 0.0
H668 H 0.27133 0.06934 0.56691 0.0
C669 C 0.23438 0.07998 0.66184 0.0
C670 C 0.19178 0.07378 0.6556 0.0
C671 C 0.27224 0.09435 0.65024 0.0
C672 C 0.2684 0.10315 0.63221 0.0
C673 C 0.22618 0.09766 0.62599 0.0
C674 C 0.18826 0.08326 0.63758 0.0
C675 C 0.30735 0.11521 0.61964 0.0
C676 C 0.29806 0.08626 0.60523 0.0
C677 C 0.35381 0.15262 0.62242 0.0
C678 C 0.36564 0.18507 0.63716 0.0
C679 C 0.34122 0.20784 0.63937 0.0
C680 C 0.35235 0.23803 0.65339 0.0
C681 C 0.38806 0.24598 0.66523 0.0
C682 C 0.41276 0.22383 0.66306 0.0
C683 C 0.40173 0.19356 0.64908 0.0
C684 C 0.44899 0.14145 0.5551 0.0
C685 C 0.48509 0.13686 0.56226 0.0
C686 C 0.41665 0.1426 0.56633 0.0
C687 C 0.41971 0.13852 0.58484 0.0
C688 C 0.45792 0.13739 0.59198 0.0
C689 C 0.49045 0.13653 0.58074 0.0
C690 C 0.38053 0.1303 0.59656 0.0
C691 C 0.38983 0.15961 0.61083 0.0
C692 C 0.33412 0.09281 0.59386 0.0
C693 C 0.32273 0.05848 0.5799 0.0
C694 C 0.3453 0.03352 0.57954 0.0
C695 C 0.33516 0.00194 0.56614 0.0
C696 C 0.30219 0.9947 0.55311 0.0
C697 C 0.27913 0.01888 0.5535 0.0
C698 C 0.28919 0.05057 0.56687 0.0
H699 H 0.29442 0.97027 0.54273 0.0
H700 H 0.39673 0.26938 0.67608 0.0
H701 H 0.25067 0.12724 0.98599 0.0
H702 H 0.29871 0.18065 0.96184 0.0
H703 H 0.18829 0.20624 0.94972 0.0
H704 H 0.14062 0.1535 0.97383 0.0
H705 H 0.29421 0.1978 0.92546 0.0
H706 H 0.2379 0.32157 0.9472 0.0
H707 H 0.20234 0.33487 0.97319 0.0
H708 H 0.2631 0.2787 0.00783 0.0
H709 H 0.29953 0.26572 0.98208 0.0
H710 H 0.41659 0.40074 0.87035 0.0
H711 H 0.35099 0.33514 0.88655 0.0
H712 H 0.42472 0.3881 0.93592 0.0
H713 H 0.48966 0.45382 0.91971 0.0
H714 H 0.33273 0.35535 0.93977 0.0
H715 H 0.42973 0.30504 0.9139 0.0
H716 H 0.46896 0.29364 0.88871 0.0
H717 H 0.33518 0.20499 0.86432 0.0
H718 H 0.2952 0.21658 0.88922 0.0
C719 C 0.23621 0.14333 0.97784 0.0
C720 C 0.19257 0.13741 0.9821 0.0
C721 C 0.26359 0.17369 0.96403 0.0
C722 C 0.2474 0.19811 0.95429 0.0
C723 C 0.20176 0.18839 0.95733 0.0
C724 C 0.17471 0.15855 0.97123 0.0
C725 C 0.28041 0.23836 0.94299 0.0
C726 C 0.30238 0.2322 0.92846 0.0
C727 C 0.29148 0.28331 0.94708 0.0
C728 C 0.27099 0.29228 0.96271 0.0
C729 C 0.24384 0.31231 0.96038 0.0
C730 C 0.22351 0.31975 0.97506 0.0
C731 C 0.23033 0.3075 0.99214 0.0
C732 C 0.25772 0.28804 0.99459 0.0
C733 C 0.27821 0.28064 0.97996 0.0
C734 C 0.41807 0.39845 0.88469 0.0
C735 C 0.45761 0.43174 0.89393 0.0
C736 C 0.38095 0.36107 0.8939 0.0
C737 C 0.38333 0.35652 0.9124 0.0
C738 C 0.42221 0.39099 0.92165 0.0
C739 C 0.45918 0.42835 0.91246 0.0
C740 C 0.34665 0.31497 0.92219 0.0
C741 C 0.32403 0.3209 0.93652 0.0
C742 C 0.33565 0.27006 0.91805 0.0
C743 C 0.35952 0.26194 0.90335 0.0
C744 C 0.4087 0.28326 0.90313 0.0
C745 C 0.43107 0.2768 0.8889 0.0
C746 C 0.40458 0.24867 0.87491 0.0
C747 C 0.35565 0.22681 0.87515 0.0
C748 C 0.33311 0.2333 0.88933 0.0
H749 H 0.42196 0.24375 0.86389 0.0
H750 H 0.21446 0.31317 0.00348 0.0
H751 H 0.03669 0.13517 0.31219 0.0
H752 H 0.04924 0.19421 0.2899 0.0
H753 H 0.05099 0.2802 0.33134 0.0
H754 H 0.03891 0.22215 0.35361 0.0
H755 H 0.98501 0.26179 0.30461 0.0
H756 H 0.14905 0.31137 0.31055 0.0
H757 H 0.21647 0.30095 0.30982 0.0
H758 H 0.18973 0.26459 0.25492 0.0
H759 H 0.1217 0.27418 0.25539 0.0
H760 H 0.04958 0.47311 0.26314 0.0
H761 H 0.04823 0.41297 0.28209 0.0
H762 H 0.0628 0.34947 0.23565 0.0
H763 H 0.06493 0.41032 0.21676 0.0
H764 H 0.11773 0.35056 0.26235 0.0
H765 H 0.95775 0.30417 0.25514 0.0
H766 H 0.88944 0.3132 0.25487 0.0
H767 H 0.90496 0.33873 0.31082 0.0
H768 H 0.97399 0.33076 0.31137 0.0
C769 C 0.0407 0.16704 0.31659 0.0
C770 C 0.03625 0.17362 0.33469 0.0
C771 C 0.04785 0.20069 0.30383 0.0
C772 C 0.05062 0.2413 0.30901 0.0
C773 C 0.04858 0.2489 0.32709 0.0
C774 C 0.04176 0.21561 0.33981 0.0
C775 C 0.05187 0.27449 0.29569 0.0
C776 C 0.01425 0.28156 0.29548 0.0
C777 C 0.08912 0.29877 0.28335 0.0
C778 C 0.12994 0.29294 0.28307 0.0
C779 C 0.15725 0.3007 0.29837 0.0
C780 C 0.19564 0.29505 0.29799 0.0
C781 C 0.20728 0.28197 0.28235 0.0
C782 C 0.18062 0.27463 0.26704 0.0
C783 C 0.14216 0.2802 0.26735 0.0
C784 C 0.05242 0.44618 0.25709 0.0
C785 C 0.05681 0.44557 0.23864 0.0
C786 C 0.05162 0.41193 0.26784 0.0
C787 C 0.05479 0.37641 0.26024 0.0
C788 C 0.0602 0.37647 0.24176 0.0
C789 C 0.06115 0.41088 0.23101 0.0
C790 C 0.05147 0.33884 0.27165 0.0
C791 C 0.08838 0.33063 0.27141 0.0
C792 C 0.01322 0.31294 0.28347 0.0
C793 C 0.97133 0.31724 0.28326 0.0
C794 C 0.94683 0.31205 0.26736 0.0
C795 C 0.90795 0.31695 0.26716 0.0
C796 C 0.89292 0.32661 0.28281 0.0
C797 C 0.91668 0.33129 0.2987 0.0
C798 C 0.95568 0.32656 0.29897 0.0
H799 H 0.8628 0.33038 0.28263 0.0
H800 H 0.23703 0.27764 0.28208 0.0
loop_
_geom_bond_atom_site_label_1
_geom_bond_atom_site_label_2
_geom_bond_distance
_geom_bond_site_symmetry_2
_ccdc_geom_bond_type
Mg0 O1 2.028 . S
Mg0 O7 1.986 . S
Mg0 O9 2.114 . S
Mg0 O10 2.251 . S
Mg0 O13 2.010 . S
O1 Mg0 2.028 . S
O1 C4 1.250 . S
O2 Mg3 2.032 . S
O2 C4 1.259 . S
Mg3 O2 2.032 . S
Mg3 O8 2.032 . S
Mg3 O10 2.079 . S
C4 O1 1.250 . S
C4 O2 1.259 . S
C5 O6 1.264 . S
C5 O13 1.249 . S
O6 C5 1.264 . S
O7 Mg0 1.986 . S
O7 C11 1.246 . S
O8 Mg3 2.032 . S
O8 C11 1.259 . S
O9 Mg0 2.114 . S
O9 C12 1.252 . S
O10 Mg0 2.251 . S
O10 Mg3 2.079 . S
O10 C12 1.273 . S
C11 O7 1.246 . S
C11 O8 1.259 . S
C12 O9 1.252 . S
C12 O10 1.273 . S
O13 Mg0 2.010 . S
O13 C5 1.249 . S
Mg14 O15 2.028 . S
Mg14 O21 1.986 . S
Mg14 O23 2.114 1_455 S
Mg14 O24 2.251 1_455 S
Mg14 O27 2.010 1_455 S
O15 Mg14 2.028 . S
O15 C18 1.250 . S
O16 Mg17 2.028 . S
O16 C18 1.248 . S
Mg17 O16 2.028 . S
Mg17 O22 2.032 . S
Mg17 O24 2.079 1_455 S
C18 O15 1.250 . S
C18 O16 1.248 . S
C19 O20 1.264 . S
C19 O27 1.249 1_565 S
O20 C19 1.264 . S
O21 Mg14 1.986 . S
O21 C25 1.246 . S
O22 Mg17 2.032 . S
O22 C25 1.259 . S
O23 Mg14 2.114 1_655 S
O23 C26 1.252 . S
O24 Mg14 2.251 1_655 S
O24 Mg17 2.079 1_655 S
O24 C26 1.273 . S
C25 O21 1.246 . S
C25 O22 1.259 . S
C26 O23 1.252 . S
C26 O24 1.273 . S
O27 Mg14 2.010 1_655 S
O27 C19 1.249 1_545 S
Mg28 O29 2.028 . S
Mg28 O35 1.986 . S
Mg28 O37 2.114 1_545 S
Mg28 O38 2.251 1_545 S
Mg28 O41 2.010 . S
O29 Mg28 2.028 . S
O29 C32 1.250 . S
O30 Mg31 2.028 1_455 S
O30 C32 1.248 . S
Mg31 O30 2.028 1_655 S
Mg31 O36 2.032 . S
Mg31 O38 2.079 1_645 S
C32 O29 1.250 . S
C32 O30 1.248 . S
C33 O34 1.264 1_545 S
C33 O41 1.249 . S
O34 C33 1.264 1_565 S
O35 Mg28 1.986 . S
O35 C39 1.246 . S
O36 Mg31 2.032 . S
O36 C39 1.259 1_655 S
O37 Mg28 2.114 1_565 S
O37 C40 1.252 . S
O38 Mg28 2.251 1_565 S
O38 Mg31 2.079 1_465 S
O38 C40 1.273 . S
C39 O35 1.246 . S
C39 O36 1.259 1_455 S
C40 O37 1.252 . S
C40 O38 1.273 . S
O41 Mg28 2.010 . S
O41 C33 1.249 . S
C42 C43 1.443 . S
C42 N46 1.376 . S
C42 C80 1.389 . S
C43 C42 1.443 . S
C43 C44 1.340 . S
C43 H83 0.951 . S
C44 C43 1.340 . S
C44 C45 1.439 . S
C44 H84 0.950 . S
C45 C44 1.439 . S
C45 N46 1.374 . S
C45 C79 1.395 . S
N46 C42 1.376 . S
N46 C45 1.374 . S
N46 Co47 2.008 . S
Co47 N46 2.008 . S
Co47 N48 1.995 . S
Co47 N53 2.008 1_455 S
Co47 N58 1.995 . S
Co47 N63 2.282 . S
Co47 N69 2.282 . S
N48 Co47 1.995 . S
N48 C49 1.376 . S
N48 C52 1.383 . S
C49 N48 1.376 . S
C49 C50 1.446 . S
C49 C79 1.391 . S
C50 C49 1.446 . S
C50 C51 1.339 . S
C50 H85 0.949 . S
C51 C50 1.339 . S
C51 C52 1.439 . S
C51 H86 0.950 . S
C52 N48 1.383 . S
C52 C51 1.439 . S
C52 C81 1.392 . S
N53 Co47 2.008 1_655 S
N53 C54 1.374 1_655 S
N53 C57 1.374 . S
C54 N53 1.374 1_455 S
C54 C55 1.441 1_455 S
C54 C81 1.394 . S
C55 C54 1.441 1_655 S
C55 C56 1.340 . S
C55 H87 0.951 . S
C56 C55 1.340 . S
C56 C57 1.439 . S
C56 H88 0.950 . S
C57 N53 1.374 . S
C57 C56 1.439 . S
C57 C82 1.395 . S
N58 Co47 1.995 . S
N58 C59 1.376 1_455 S
N58 C62 1.383 . S
C59 N58 1.376 1_655 S
C59 C60 1.446 . S
C59 C82 1.391 . S
C60 C59 1.446 . S
C60 C61 1.339 . S
C60 H89 0.949 . S
C61 C60 1.339 . S
C61 C62 1.439 1_655 S
C61 H90 0.950 . S
C62 N58 1.383 . S
C62 C61 1.439 1_455 S
C62 C80 1.392 . S
N63 Co47 2.282 . S
N63 C66 1.332 . S
N63 C68 1.332 . S
C64 C65 1.386 . S
C64 C67 1.388 . S
C65 C64 1.386 . S
C65 C66 1.382 . S
C65 H91 0.950 1_455 S
C66 N63 1.332 . S
C66 C65 1.382 . S
C66 H77 0.952 1_455 S
C67 C64 1.388 . S
C67 C68 1.382 . S
C67 H92 0.950 . S
C68 N63 1.332 . S
C68 C67 1.382 . S
C68 H78 0.948 . S
N69 Co47 2.282 . S
N69 C73 1.332 . S
N69 C74 1.332 . S
C70 C71 1.396 . S
C70 C74 1.389 . S
C70 H93 0.936 1_455 S
C71 C70 1.396 . S
C71 C72 1.386 . S
C72 C71 1.386 . S
C72 C73 1.382 . S
C72 H94 0.950 . S
C73 N69 1.332 . S
C73 C72 1.382 . S
C73 H75 0.952 . S
C74 N69 1.332 . S
C74 C70 1.389 . S
C74 H76 0.948 1_455 S
H75 C73 0.952 . S
H76 C74 0.948 1_655 S
H77 C66 0.952 1_655 S
H78 C68 0.948 . S
C79 C45 1.395 . S
C79 C49 1.391 . S
C80 C42 1.389 . S
C80 C62 1.392 . S
C81 C52 1.392 . S
C81 C54 1.394 . S
C82 C57 1.395 . S
C82 C59 1.391 . S
H83 C43 0.951 . S
H84 C44 0.950 . S
H85 C50 0.949 . S
H86 C51 0.950 . S
H87 C55 0.951 . S
H88 C56 0.950 . S
H89 C60 0.949 . S
H90 C61 0.950 . S
H91 C65 0.950 1_655 S
H92 C67 0.950 . S
H93 C70 0.936 1_655 S
H94 C72 0.950 . S
C95 C96 1.443 . S
C95 N99 1.376 . S
C95 C133 1.389 . S
C96 C95 1.443 . S
C96 C97 1.340 1_545 S
C96 H136 0.951 . S
C97 C96 1.340 1_565 S
C97 C98 1.439 1_565 S
C97 H137 0.950 . S
C98 C97 1.439 1_545 S
C98 N99 1.375 . S
C98 C132 1.394 1_545 S
N99 C95 1.376 . S
N99 C98 1.375 . S
N99 Co100 2.008 . S
Co100 N99 2.008 . S
Co100 N101 1.995 . S
Co100 N106 2.008 . S
Co100 N111 1.995 . S
Co100 N116 2.282 . S
Co100 N122 2.282 . S
N101 Co100 1.995 . S
N101 C102 1.376 . S
N101 C105 1.383 . S
C102 N101 1.376 . S
C102 C103 1.446 1_545 S
C102 C132 1.391 1_545 S
C103 C102 1.446 1_565 S
C103 C104 1.339 1_565 S
C103 H138 0.949 . S
C104 C103 1.339 1_545 S
C104 C105 1.439 . S
C104 H139 0.950 . S
C105 N101 1.383 . S
C105 C104 1.439 . S
C105 C134 1.392 . S
N106 Co100 2.008 . S
N106 C107 1.376 . S
N106 C110 1.374 . S
C107 N106 1.376 . S
C107 C108 1.443 . S
C107 C134 1.389 . S
C108 C107 1.443 . S
C108 C109 1.340 . S
C108 H140 0.951 . S
C109 C108 1.340 . S
C109 C110 1.439 . S
C109 H141 0.950 . S
C110 N106 1.374 . S
C110 C109 1.439 . S
C110 C135 1.395 . S
N111 Co100 1.995 . S
N111 C112 1.376 . S
N111 C115 1.383 . S
C112 N111 1.376 . S
C112 C113 1.446 . S
C112 C135 1.391 . S
C113 C112 1.446 . S
C113 C114 1.339 . S
C113 H142 0.949 . S
C114 C113 1.339 . S
C114 C115 1.439 . S
C114 H143 0.950 . S
C115 N111 1.383 . S
C115 C114 1.439 . S
C115 C133 1.392 . S
N116 Co100 2.282 . S
N116 C119 1.332 . S
N116 C121 1.332 . S
C117 C118 1.386 . S
C117 C120 1.388 . S
C118 C117 1.386 . S
C118 C119 1.382 . S
C118 H144 0.950 . S
C119 N116 1.332 . S
C119 C118 1.382 . S
C119 H130 0.952 . S
C120 C117 1.388 . S
C120 C121 1.382 . S
C120 H145 0.950 . S
C121 N116 1.332 . S
C121 C120 1.382 . S
C121 H131 0.948 . S
N122 Co100 2.282 . S
N122 C126 1.332 . S
N122 C127 1.332 . S
C123 C124 1.388 . S
C123 C127 1.382 . S
C123 H146 0.950 . S
C124 C123 1.388 . S
C124 C125 1.386 . S
C125 C124 1.386 . S
C125 C126 1.382 . S
C125 H147 0.950 . S
C126 N122 1.332 . S
C126 C125 1.382 . S
C126 H128 0.952 . S
C127 N122 1.332 . S
C127 C123 1.382 . S
C127 H129 0.948 . S
H128 C126 0.952 . S
H129 C127 0.948 . S
H130 C119 0.952 . S
H131 C121 0.948 . S
C132 C98 1.394 1_565 S
C132 C102 1.391 1_565 S
C133 C95 1.389 . S
C133 C115 1.392 . S
C134 C105 1.392 . S
C134 C107 1.389 . S
C135 C110 1.395 . S
C135 C112 1.391 . S
H136 C96 0.951 . S
H137 C97 0.950 . S
H138 C103 0.949 . S
H139 C104 0.950 . S
H140 C108 0.951 . S
H141 C109 0.950 . S
H142 C113 0.949 . S
H143 C114 0.950 . S
H144 C118 0.950 . S
H145 C120 0.950 . S
H146 C123 0.950 . S
H147 C125 0.950 . S
C148 C149 1.443 . S
C148 N152 1.376 . S
C148 C186 1.389 . S
C149 C148 1.443 . S
C149 C150 1.340 . S
C149 H189 0.951 . S
C150 C149 1.340 . S
C150 C151 1.439 . S
C150 H190 0.950 . S
C151 C150 1.439 . S
C151 N152 1.374 . S
C151 C185 1.395 . S
N152 C148 1.376 . S
N152 C151 1.374 . S
N152 Co153 2.008 . S
Co153 N152 2.008 . S
Co153 N154 1.995 . S
Co153 N159 2.008 . S
Co153 N164 1.995 . S
Co153 N169 2.282 . S
Co153 N175 2.282 . S
N154 Co153 1.995 . S
N154 C155 1.376 . S
N154 C158 1.383 . S
C155 N154 1.376 . S
C155 C156 1.446 . S
C155 C185 1.391 . S
C156 C155 1.446 . S
C156 C157 1.339 . S
C156 H191 0.949 . S
C157 C156 1.339 . S
C157 C158 1.439 . S
C157 H192 0.950 . S
C158 N154 1.383 . S
C158 C157 1.439 . S
C158 C187 1.392 . S
N159 Co153 2.008 . S
N159 C160 1.376 . S
N159 C163 1.374 . S
C160 N159 1.376 . S
C160 C161 1.443 . S
C160 C187 1.389 . S
C161 C160 1.443 . S
C161 C162 1.340 . S
C161 H193 0.951 . S
C162 C161 1.340 . S
C162 C163 1.439 . S
C162 H194 0.950 . S
C163 N159 1.374 . S
C163 C162 1.439 . S
C163 C188 1.395 . S
N164 Co153 1.995 . S
N164 C165 1.376 . S
N164 C168 1.383 . S
C165 N164 1.376 . S
C165 C166 1.446 . S
C165 C188 1.391 . S
C166 C165 1.446 . S
C166 C167 1.339 . S
C166 H195 0.949 . S
C167 C166 1.339 . S
C167 C168 1.439 . S
C167 H196 0.950 . S
C168 N164 1.383 . S
C168 C167 1.439 . S
C168 C186 1.392 . S
N169 Co153 2.282 . S
N169 C172 1.332 . S
N169 C174 1.332 . S
C170 C171 1.386 . S
C170 C173 1.388 . S
C171 C170 1.386 . S
C171 C172 1.382 . S
C171 H197 0.950 . S
C172 N169 1.332 . S
C172 C171 1.382 . S
C172 H183 0.952 . S
C173 C170 1.388 . S
C173 C174 1.382 . S
C173 H198 0.950 . S
C174 N169 1.332 . S
C174 C173 1.382 . S
C174 H184 0.948 . S
N175 Co153 2.282 . S
N175 C179 1.332 . S
N175 C180 1.332 . S
C176 C177 1.388 . S
C176 C180 1.382 . S
C176 H199 0.950 . S
C177 C176 1.388 . S
C177 C178 1.386 . S
C178 C177 1.386 . S
C178 C179 1.382 . S
C178 H200 0.950 . S
C179 N175 1.332 . S
C179 C178 1.382 . S
C179 H181 0.952 . S
C180 N175 1.332 . S
C180 C176 1.382 . S
C180 H182 0.948 . S
H181 C179 0.952 . S
H182 C180 0.948 . S
H183 C172 0.952 . S
H184 C174 0.948 . S
C185 C151 1.395 . S
C185 C155 1.391 . S
C186 C148 1.389 . S
C186 C168 1.392 . S
C187 C158 1.392 . S
C187 C160 1.389 . S
C188 C163 1.395 . S
C188 C165 1.391 . S
H189 C149 0.951 . S
H190 C150 0.950 . S
H191 C156 0.949 . S
H192 C157 0.950 . S
H193 C161 0.951 . S
H194 C162 0.950 . S
H195 C166 0.949 . S
H196 C167 0.950 . S
H197 C171 0.950 . S
H198 C173 0.950 . S
H199 C176 0.950 . S
H200 C178 0.950 . S
H201 C219 0.951 . S
H202 C221 0.951 . S
H203 C223 0.950 . S
H204 C224 0.950 . S
H205 C226 0.950 . S
H206 C229 0.950 . S
H207 C230 0.950 . S
H208 C232 0.950 . S
H209 C233 0.950 . S
H210 C234 0.951 1_655 S
H211 C236 0.951 . S
H212 C238 0.950 . S
H213 C239 0.950 . S
H214 C241 0.950 . S
H215 C244 0.950 . S
H216 C245 0.950 . S
H217 C247 0.950 1_655 S
H218 C248 0.950 1_655 S
C219 H201 0.951 . S
C219 C220 1.366 . S
C219 C221 1.388 . S
C220 C219 1.366 . S
C220 C224 1.385 . S
C221 H202 0.951 . S
C221 C219 1.388 . S
C221 C222 1.366 . S
C222 C221 1.366 . S
C222 C223 1.414 . S
C222 C225 1.499 . S
C223 H203 0.950 . S
C223 C222 1.414 . S
C223 C224 1.374 . S
C224 H204 0.950 . S
C224 C220 1.385 . S
C224 C223 1.374 . S
C225 C222 1.499 . S
C225 C226 1.373 . S
C225 C227 1.389 . S
C226 H205 0.950 . S
C226 C225 1.373 . S
C226 C242 1.377 . S
C227 C225 1.389 . S
C227 C228 1.524 . S
C227 C241 1.377 . S
C228 C227 1.524 . S
C228 C229 1.397 . S
C228 C233 1.363 . S
C229 H206 0.950 . S
C229 C228 1.397 . S
C229 C230 1.334 . S
C230 H207 0.950 . S
C230 C229 1.334 . S
C230 C231 1.287 . S
C231 C230 1.287 . S
C231 C232 1.524 . S
C231 H250 0.913 . S
C232 H208 0.950 . S
C232 C231 1.524 . S
C232 C233 1.415 . S
C233 H209 0.950 . S
C233 C228 1.363 . S
C233 C232 1.415 . S
C234 H210 0.951 1_455 S
C234 C235 1.366 . S
C234 C236 1.388 . S
C235 C234 1.366 . S
C235 C239 1.385 . S
C236 H211 0.951 . S
C236 C234 1.388 . S
C236 C237 1.366 . S
C237 C236 1.366 . S
C237 C238 1.414 . S
C237 C240 1.499 . S
C238 H212 0.950 . S
C238 C237 1.414 . S
C238 C239 1.374 . S
C239 H213 0.950 . S
C239 C235 1.385 . S
C239 C238 1.374 . S
C240 C237 1.499 . S
C240 C241 1.373 . S
C240 C242 1.389 . S
C241 H214 0.950 . S
C241 C227 1.377 . S
C241 C240 1.373 . S
C242 C226 1.377 . S
C242 C240 1.389 . S
C242 C243 1.524 . S
C243 C242 1.524 . S
C243 C244 1.397 . S
C243 C248 1.363 . S
C244 H215 0.950 . S
C244 C243 1.397 . S
C244 C245 1.334 . S
C245 H216 0.950 . S
C245 C244 1.334 . S
C245 C246 1.287 . S
C246 C245 1.287 . S
C246 C247 1.524 . S
C246 H249 0.999 . S
C247 H217 0.950 1_455 S
C247 C246 1.524 . S
C247 C248 1.415 . S
C248 H218 0.950 1_455 S
C248 C243 1.363 . S
C248 C247 1.415 . S
H249 C246 0.999 . S
H250 C231 0.913 . S
H251 C269 0.951 . S
H252 C271 0.951 . S
H253 C273 0.950 . S
H254 C274 0.950 . S
H255 C276 0.950 . S
H256 C279 0.950 . S
H257 C280 0.950 . S
H258 C282 0.950 . S
H259 C283 0.950 . S
H260 C284 0.951 . S
H261 C286 0.951 . S
H262 C288 0.950 . S
H263 C289 0.950 . S
H264 C291 0.950 . S
H265 C294 0.950 . S
H266 C295 0.950 . S
H267 C297 0.950 . S
H268 C298 0.950 . S
C269 H251 0.951 . S
C269 C270 1.366 . S
C269 C271 1.388 . S
C270 C269 1.366 . S
C270 C274 1.385 . S
C271 H252 0.951 . S
C271 C269 1.388 . S
C271 C272 1.366 . S
C272 C271 1.366 . S
C272 C273 1.414 . S
C272 C275 1.499 . S
C273 H253 0.950 . S
C273 C272 1.414 . S
C273 C274 1.374 . S
C274 H254 0.950 . S
C274 C270 1.385 . S
C274 C273 1.374 . S
C275 C272 1.499 . S
C275 C276 1.373 . S
C275 C277 1.389 . S
C276 H255 0.950 . S
C276 C275 1.373 . S
C276 C292 1.377 . S
C277 C275 1.389 . S
C277 C278 1.524 . S
C277 C291 1.377 . S
C278 C277 1.524 . S
C278 C279 1.397 . S
C278 C283 1.363 . S
C279 H256 0.950 . S
C279 C278 1.397 . S
C279 C280 1.334 . S
C280 H257 0.950 . S
C280 C279 1.334 . S
C280 C281 1.287 . S
C281 C280 1.287 . S
C281 C282 1.524 . S
C281 H300 0.913 . S
C282 H258 0.950 . S
C282 C281 1.524 . S
C282 C283 1.415 . S
C283 H259 0.950 . S
C283 C278 1.363 . S
C283 C282 1.415 . S
C284 H260 0.951 . S
C284 C285 1.366 . S
C284 C286 1.388 . S
C285 C284 1.366 . S
C285 C289 1.385 . S
C286 H261 0.951 . S
C286 C284 1.388 . S
C286 C287 1.366 . S
C287 C286 1.366 . S
C287 C288 1.414 . S
C287 C290 1.499 . S
C288 H262 0.950 . S
C288 C287 1.414 . S
C288 C289 1.374 . S
C289 H263 0.950 . S
C289 C285 1.385 . S
C289 C288 1.374 . S
C290 C287 1.499 . S
C290 C291 1.373 . S
C290 C292 1.389 . S
C291 H264 0.950 . S
C291 C277 1.377 . S
C291 C290 1.373 . S
C292 C276 1.377 . S
C292 C290 1.389 . S
C292 C293 1.524 . S
C293 C292 1.524 . S
C293 C294 1.397 1_545 S
C293 C298 1.363 . S
C294 H265 0.950 . S
C294 C293 1.397 1_565 S
C294 C295 1.334 . S
C295 H266 0.950 . S
C295 C294 1.334 . S
C295 C296 1.287 . S
C296 C295 1.287 . S
C296 C297 1.524 . S
C296 H299 0.999 . S
C297 H267 0.950 . S
C297 C296 1.524 . S
C297 C298 1.415 1_565 S
C298 H268 0.950 . S
C298 C293 1.363 . S
C298 C297 1.415 1_545 S
H299 C296 0.999 . S
H300 C281 0.913 . S
H301 C319 0.951 . S
H302 C321 0.951 . S
H303 C323 0.950 . S
H304 C324 0.950 . S
H305 C326 0.950 . S
H306 C329 0.950 . S
H307 C330 0.950 . S
H308 C332 0.950 . S
H309 C333 0.950 . S
H310 C334 0.951 . S
H311 C336 0.951 . S
H312 C338 0.950 . S
H313 C339 0.950 . S
H314 C341 0.950 . S
H315 C344 0.950 . S
H316 C345 0.950 . S
H317 C347 0.950 . S
H318 C348 0.950 . S
C319 H301 0.951 . S
C319 C320 1.366 . S
C319 C321 1.388 . S
C320 C319 1.366 . S
C320 C324 1.385 . S
C321 H302 0.951 . S
C321 C319 1.388 . S
C321 C322 1.366 . S
C322 C321 1.366 . S
C322 C323 1.414 . S
C322 C325 1.499 . S
C323 H303 0.950 . S
C323 C322 1.414 . S
C323 C324 1.374 . S
C324 H304 0.950 . S
C324 C320 1.385 . S
C324 C323 1.374 . S
C325 C322 1.499 . S
C325 C326 1.373 . S
C325 C327 1.389 . S
C326 H305 0.950 . S
C326 C325 1.373 . S
C326 C342 1.377 . S
C327 C325 1.389 . S
C327 C328 1.524 . S
C327 C341 1.377 . S
C328 C327 1.524 . S
C328 C329 1.397 . S
C328 C333 1.363 . S
C329 H306 0.950 . S
C329 C328 1.397 . S
C329 C330 1.334 1_655 S
C330 H307 0.950 . S
C330 C329 1.334 1_455 S
C330 C331 1.287 . S
C331 C330 1.287 . S
C331 C332 1.524 1_455 S
C331 H350 0.913 . S
C332 H308 0.950 . S
C332 C331 1.524 1_655 S
C332 C333 1.415 . S
C333 H309 0.950 . S
C333 C328 1.363 . S
C333 C332 1.415 . S
C334 H310 0.951 . S
C334 C335 1.366 . S
C334 C336 1.388 . S
C335 C334 1.366 . S
C335 C339 1.385 . S
C336 H311 0.951 . S
C336 C334 1.388 . S
C336 C337 1.366 . S
C337 C336 1.366 . S
C337 C338 1.414 . S
C337 C340 1.499 . S
C338 H312 0.950 . S
C338 C337 1.414 . S
C338 C339 1.374 . S
C339 H313 0.950 . S
C339 C335 1.385 . S
C339 C338 1.374 . S
C340 C337 1.499 . S
C340 C341 1.373 . S
C340 C342 1.389 . S
C341 H314 0.950 . S
C341 C327 1.377 . S
C341 C340 1.373 . S
C342 C326 1.377 . S
C342 C340 1.389 . S
C342 C343 1.524 . S
C343 C342 1.524 . S
C343 C344 1.397 . S
C343 C348 1.363 . S
C344 H315 0.950 . S
C344 C343 1.397 . S
C344 C345 1.334 . S
C345 H316 0.950 . S
C345 C344 1.334 . S
C345 C346 1.287 . S
C346 C345 1.287 . S
C346 C347 1.524 . S
C346 H349 0.999 . S
C347 H317 0.950 . S
C347 C346 1.524 . S
C347 C348 1.415 . S
C348 H318 0.950 . S
C348 C343 1.363 . S
C348 C347 1.415 . S
H349 C346 0.999 . S
H350 C331 0.913 . S
H351 C369 0.944 1_545 S
H352 C371 0.951 . S
H353 C373 0.950 . S
H354 C374 0.950 . S
H355 C376 0.950 . S
H356 C379 0.950 . S
H357 C380 0.950 . S
H358 C382 0.950 . S
H359 C383 0.950 . S
H360 C384 0.951 . S
H361 C386 0.951 . S
H362 C388 0.950 . S
H363 C389 0.950 . S
H364 C391 0.950 . S
H365 C394 0.941 1_455 S
H366 C395 0.950 . S
H367 C397 0.950 . S
H368 C398 0.950 . S
C369 H351 0.944 1_565 S
C369 C370 1.366 . S
C369 C371 1.388 . S
C370 C369 1.366 . S
C370 C374 1.385 . S
C371 H352 0.951 . S
C371 C369 1.388 . S
C371 C372 1.366 . S
C372 C371 1.366 . S
C372 C373 1.414 . S
C372 C375 1.499 . S
C373 H353 0.950 . S
C373 C372 1.414 . S
C373 C374 1.374 . S
C374 H354 0.950 . S
C374 C370 1.385 . S
C374 C373 1.374 . S
C375 C372 1.499 . S
C375 C376 1.373 . S
C375 C377 1.389 . S
C376 H355 0.950 . S
C376 C375 1.373 . S
C376 C392 1.377 . S
C377 C375 1.389 . S
C377 C378 1.524 . S
C377 C391 1.377 . S
C378 C377 1.524 . S
C378 C379 1.397 . S
C378 C383 1.363 . S
C379 H356 0.950 . S
C379 C378 1.397 . S
C379 C380 1.334 . S
C380 H357 0.950 . S
C380 C379 1.334 . S
C380 C381 1.287 . S
C381 C380 1.287 . S
C381 C382 1.524 . S
C381 H400 0.913 . S
C382 H358 0.950 . S
C382 C381 1.524 . S
C382 C383 1.415 . S
C383 H359 0.950 . S
C383 C378 1.363 . S
C383 C382 1.415 . S
C384 H360 0.951 . S
C384 C385 1.366 . S
C384 C386 1.388 . S
C385 C384 1.366 . S
C385 C389 1.385 . S
C386 H361 0.951 . S
C386 C384 1.388 . S
C386 C387 1.366 . S
C387 C386 1.366 . S
C387 C388 1.414 . S
C387 C390 1.499 . S
C388 H362 0.950 . S
C388 C387 1.414 . S
C388 C389 1.374 . S
C389 H363 0.950 . S
C389 C385 1.385 . S
C389 C388 1.374 . S
C390 C387 1.499 . S
C390 C391 1.373 . S
C390 C392 1.389 . S
C391 H364 0.950 . S
C391 C377 1.377 . S
C391 C390 1.373 . S
C392 C376 1.377 . S
C392 C390 1.389 . S
C392 C393 1.524 1_455 S
C393 C392 1.524 1_655 S
C393 C394 1.397 . S
C393 C398 1.363 . S
C394 H365 0.941 1_655 S
C394 C393 1.397 . S
C394 C395 1.334 . S
C395 H366 0.950 . S
C395 C394 1.334 . S
C395 C396 1.287 . S
C396 C395 1.287 . S
C396 C397 1.524 . S
C396 H399 0.999 . S
C397 H367 0.950 . S
C397 C396 1.524 . S
C397 C398 1.415 . S
C398 H368 0.950 . S
C398 C393 1.363 . S
C398 C397 1.415 . S
H399 C396 0.999 . S
H400 C381 0.913 . S
H401 C419 0.951 . S
H402 C421 0.951 . S
H403 C423 0.950 . S
H404 C424 0.950 . S
H405 C426 0.950 . S
H406 C429 0.950 1_565 S
H407 C430 0.950 . S
H408 C432 0.950 . S
H409 C433 0.950 . S
H410 C434 0.951 . S
H411 C436 0.951 . S
H412 C438 0.950 . S
H413 C439 0.950 . S
H414 C441 0.950 . S
H415 C444 0.950 . S
H416 C445 0.950 . S
H417 C447 0.950 . S
H418 C448 0.950 . S
C419 H401 0.951 . S
C419 C420 1.366 . S
C419 C421 1.388 . S
C420 C419 1.366 . S
C420 C424 1.385 . S
C421 H402 0.951 . S
C421 C419 1.388 . S
C421 C422 1.366 . S
C422 C421 1.366 . S
C422 C423 1.414 . S
C422 C425 1.499 . S
C423 H403 0.950 . S
C423 C422 1.414 . S
C423 C424 1.374 . S
C424 H404 0.950 . S
C424 C420 1.385 . S
C424 C423 1.374 . S
C425 C422 1.499 . S
C425 C426 1.373 . S
C425 C427 1.389 . S
C426 H405 0.950 . S
C426 C425 1.373 . S
C426 C442 1.377 . S
C427 C425 1.389 . S
C427 C428 1.524 . S
C427 C441 1.377 . S
C428 C427 1.524 . S
C428 C429 1.397 . S
C428 C433 1.363 . S
C429 H406 0.950 1_545 S
C429 C428 1.397 . S
C429 C430 1.334 1_545 S
C430 H407 0.950 . S
C430 C429 1.334 1_565 S
C430 C431 1.287 . S
C431 C430 1.287 . S
C431 C432 1.524 1_565 S
C431 H450 0.913 . S
C432 H408 0.950 . S
C432 C431 1.524 1_545 S
C432 C433 1.415 . S
C433 H409 0.950 . S
C433 C428 1.363 . S
C433 C432 1.415 . S
C434 H410 0.951 . S
C434 C435 1.366 . S
C434 C436 1.388 . S
C435 C434 1.366 . S
C435 C439 1.385 . S
C436 H411 0.951 . S
C436 C434 1.388 . S
C436 C437 1.366 . S
C437 C436 1.366 . S
C437 C438 1.414 . S
C437 C440 1.499 . S
C438 H412 0.950 . S
C438 C437 1.414 . S
C438 C439 1.374 . S
C439 H413 0.950 . S
C439 C435 1.385 . S
C439 C438 1.374 . S
C440 C437 1.499 . S
C440 C441 1.373 . S
C440 C442 1.389 . S
C441 H414 0.950 . S
C441 C427 1.377 . S
C441 C440 1.373 . S
C442 C426 1.377 . S
C442 C440 1.389 . S
C442 C443 1.524 . S
C443 C442 1.524 . S
C443 C444 1.397 . S
C443 C448 1.363 . S
C444 H415 0.950 . S
C444 C443 1.397 . S
C444 C445 1.334 . S
C445 H416 0.950 . S
C445 C444 1.334 . S
C445 C446 1.287 . S
C446 C445 1.287 . S
C446 C447 1.524 . S
C446 H449 0.999 . S
C447 H417 0.950 . S
C447 C446 1.524 . S
C447 C448 1.415 . S
C448 H418 0.950 . S
C448 C443 1.363 . S
C448 C447 1.415 . S
H449 C446 0.999 . S
H450 C431 0.913 . S
H451 C469 0.951 . S
H452 C471 0.951 . S
H453 C473 0.950 . S
H454 C474 0.950 . S
H455 C476 0.950 . S
H456 C479 0.950 . S
H457 C480 0.950 . S
H458 C482 0.950 . S
H459 C483 0.950 . S
H460 C484 0.951 . S
H461 C486 0.951 . S
H462 C488 0.950 . S
H463 C489 0.950 . S
H464 C491 0.950 . S
H465 C494 0.950 . S
H466 C495 0.950 . S
H467 C497 0.950 . S
H468 C498 0.950 . S
C469 H451 0.951 . S
C469 C470 1.366 . S
C469 C471 1.388 . S
C470 C469 1.366 . S
C470 C474 1.385 . S
C471 H452 0.951 . S
C471 C469 1.388 . S
C471 C472 1.366 . S
C472 C471 1.366 . S
C472 C473 1.414 . S
C472 C475 1.499 . S
C473 H453 0.950 . S
C473 C472 1.414 . S
C473 C474 1.374 . S
C474 H454 0.950 . S
C474 C470 1.385 . S
C474 C473 1.374 . S
C475 C472 1.499 . S
C475 C476 1.373 . S
C475 C477 1.389 . S
C476 H455 0.950 . S
C476 C475 1.373 . S
C476 C492 1.377 . S
C477 C475 1.389 . S
C477 C478 1.524 . S
C477 C491 1.377 . S
C478 C477 1.524 . S
C478 C479 1.397 . S
C478 C483 1.363 . S
C479 H456 0.950 . S
C479 C478 1.397 . S
C479 C480 1.334 . S
C480 H457 0.950 . S
C480 C479 1.334 . S
C480 C481 1.287 . S
C481 C480 1.287 . S
C481 C482 1.524 . S
C481 H500 0.913 . S
C482 H458 0.950 . S
C482 C481 1.524 . S
C482 C483 1.415 . S
C483 H459 0.950 . S
C483 C478 1.363 . S
C483 C482 1.415 . S
C484 H460 0.951 . S
C484 C485 1.366 . S
C484 C486 1.388 . S
C485 C484 1.366 . S
C485 C489 1.385 . S
C486 H461 0.951 . S
C486 C484 1.388 . S
C486 C487 1.366 . S
C487 C486 1.366 . S
C487 C488 1.414 . S
C487 C490 1.499 . S
C488 H462 0.950 . S
C488 C487 1.414 . S
C488 C489 1.374 . S
C489 H463 0.950 . S
C489 C485 1.385 . S
C489 C488 1.374 . S
C490 C487 1.499 . S
C490 C491 1.373 . S
C490 C492 1.389 . S
C491 H464 0.950 . S
C491 C477 1.377 . S
C491 C490 1.373 . S
C492 C476 1.377 . S
C492 C490 1.389 . S
C492 C493 1.524 . S
C493 C492 1.524 . S
C493 C494 1.397 . S
C493 C498 1.363 . S
C494 H465 0.950 . S
C494 C493 1.397 . S
C494 C495 1.334 . S
C495 H466 0.950 . S
C495 C494 1.334 . S
C495 C496 1.287 . S
C496 C495 1.287 . S
C496 C497 1.524 . S
C496 H499 0.999 . S
C497 H467 0.950 . S
C497 C496 1.524 . S
C497 C498 1.415 . S
C498 H468 0.950 . S
C498 C493 1.363 . S
C498 C497 1.415 . S
H499 C496 0.999 . S
H500 C481 0.913 . S
H501 C519 0.951 . S
H502 C521 0.951 . S
H503 C523 0.950 . S
H504 C524 0.950 1_455 S
H505 C526 0.950 . S
H506 C529 0.950 . S
H507 C530 0.950 . S
H508 C532 0.950 . S
H509 C533 0.950 . S
H510 C534 0.951 . S
H511 C536 0.951 . S
H512 C538 0.950 . S
H513 C539 0.950 . S
H514 C541 0.950 . S
H515 C544 0.950 . S
H516 C545 0.950 . S
H517 C547 0.950 . S
H518 C548 0.950 . S
C519 H501 0.951 . S
C519 C520 1.366 . S
C519 C521 1.388 . S
C520 C519 1.366 . S
C520 C524 1.385 . S
C521 H502 0.951 . S
C521 C519 1.388 . S
C521 C522 1.366 . S
C522 C521 1.366 . S
C522 C523 1.414 . S
C522 C525 1.499 . S
C523 H503 0.950 . S
C523 C522 1.414 . S
C523 C524 1.374 . S
C524 H504 0.950 1_655 S
C524 C520 1.385 . S
C524 C523 1.374 . S
C525 C522 1.499 . S
C525 C526 1.373 . S
C525 C527 1.389 . S
C526 H505 0.950 . S
C526 C525 1.373 . S
C526 C542 1.377 . S
C527 C525 1.389 . S
C527 C528 1.524 1_545 S
C527 C541 1.377 . S
C528 C527 1.524 1_565 S
C528 C529 1.397 . S
C528 C533 1.363 . S
C529 H506 0.950 . S
C529 C528 1.397 . S
C529 C530 1.334 . S
C530 H507 0.950 . S
C530 C529 1.334 . S
C530 C531 1.287 . S
C531 C530 1.287 . S
C531 C532 1.524 . S
C531 H550 0.913 . S
C532 H508 0.950 . S
C532 C531 1.524 . S
C532 C533 1.415 . S
C533 H509 0.950 . S
C533 C528 1.363 . S
C533 C532 1.415 . S
C534 H510 0.951 . S
C534 C535 1.366 . S
C534 C536 1.388 . S
C535 C534 1.366 . S
C535 C539 1.385 . S
C536 H511 0.951 . S
C536 C534 1.388 . S
C536 C537 1.366 . S
C537 C536 1.366 . S
C537 C538 1.414 . S
C537 C540 1.499 . S
C538 H512 0.950 . S
C538 C537 1.414 . S
C538 C539 1.374 . S
C539 H513 0.950 . S
C539 C535 1.385 . S
C539 C538 1.374 . S
C540 C537 1.499 . S
C540 C541 1.373 . S
C540 C542 1.389 . S
C541 H514 0.950 . S
C541 C527 1.377 . S
C541 C540 1.373 . S
C542 C526 1.377 . S
C542 C540 1.389 . S
C542 C543 1.524 . S
C543 C542 1.524 . S
C543 C544 1.397 . S
C543 C548 1.363 . S
C544 H515 0.950 . S
C544 C543 1.397 . S
C544 C545 1.334 . S
C545 H516 0.950 . S
C545 C544 1.334 . S
C545 C546 1.287 . S
C546 C545 1.287 . S
C546 C547 1.524 . S
C546 H549 0.999 . S
C547 H517 0.950 . S
C547 C546 1.524 . S
C547 C548 1.415 . S
C548 H518 0.950 . S
C548 C543 1.363 . S
C548 C547 1.415 . S
H549 C546 0.999 . S
H550 C531 0.913 . S
H551 C569 0.951 . S
H552 C571 0.951 1_455 S
H553 C573 0.950 . S
H554 C574 0.950 . S
H555 C576 0.950 . S
H556 C579 0.950 . S
H557 C580 0.950 . S
H558 C582 0.950 . S
H559 C583 0.950 . S
H560 C584 0.951 . S
H561 C586 0.951 . S
H562 C588 0.950 . S
H563 C589 0.950 . S
H564 C591 0.950 . S
H565 C594 0.950 . S
H566 C595 0.950 . S
H567 C597 0.950 1_554 S
H568 C598 0.950 . S
C569 H551 0.951 . S
C569 C570 1.366 . S
C569 C571 1.388 1_455 S
C570 C569 1.366 . S
C570 C574 1.385 1_456 S
C571 H552 0.951 1_655 S
C571 C569 1.388 1_655 S
C571 C572 1.366 . S
C572 C571 1.366 . S
C572 C573 1.414 . S
C572 C575 1.499 . S
C573 H553 0.950 . S
C573 C572 1.414 . S
C573 C574 1.374 1_556 S
C574 H554 0.950 . S
C574 C570 1.385 1_654 S
C574 C573 1.374 1_554 S
C575 C572 1.499 . S
C575 C576 1.373 . S
C575 C577 1.389 . S
C576 H555 0.950 . S
C576 C575 1.373 . S
C576 C592 1.377 . S
C577 C575 1.389 . S
C577 C578 1.524 . S
C577 C591 1.377 . S
C578 C577 1.524 . S
C578 C579 1.397 . S
C578 C583 1.363 . S
C579 H556 0.950 . S
C579 C578 1.397 . S
C579 C580 1.334 1_565 S
C580 H557 0.950 . S
C580 C579 1.334 1_545 S
C580 C581 1.287 1_655 S
C581 C580 1.287 1_455 S
C581 C582 1.524 1_545 S
C581 H600 0.913 . S
C582 H558 0.950 . S
C582 C581 1.524 1_565 S
C582 C583 1.415 1_455 S
C583 H559 0.950 . S
C583 C578 1.363 . S
C583 C582 1.415 1_655 S
C584 H560 0.951 . S
C584 C585 1.366 . S
C584 C586 1.388 . S
C585 C584 1.366 . S
C585 C589 1.385 . S
C586 H561 0.951 . S
C586 C584 1.388 . S
C586 C587 1.366 . S
C587 C586 1.366 . S
C587 C588 1.414 . S
C587 C590 1.499 . S
C588 H562 0.950 . S
C588 C587 1.414 . S
C588 C589 1.374 . S
C589 H563 0.950 . S
C589 C585 1.385 . S
C589 C588 1.374 . S
C590 C587 1.499 . S
C590 C591 1.373 . S
C590 C592 1.389 . S
C591 H564 0.950 . S
C591 C577 1.377 . S
C591 C590 1.373 . S
C592 C576 1.377 . S
C592 C590 1.389 . S
C592 C593 1.524 . S
C593 C592 1.524 . S
C593 C594 1.397 . S
C593 C598 1.363 . S
C594 H565 0.950 . S
C594 C593 1.397 . S
C594 C595 1.334 . S
C595 H566 0.950 . S
C595 C594 1.334 . S
C595 C596 1.287 . S
C596 C595 1.287 . S
C596 C597 1.524 . S
C596 H599 0.999 . S
C597 H567 0.950 1_556 S
C597 C596 1.524 . S
C597 C598 1.415 . S
C598 H568 0.950 . S
C598 C593 1.363 . S
C598 C597 1.415 . S
H599 C596 0.999 . S
H600 C581 0.913 . S
H601 C619 0.951 1_655 S
H602 C621 0.951 . S
H603 C623 0.950 . S
H604 C624 0.950 . S
H605 C626 0.950 . S
H606 C629 0.950 . S
H607 C630 0.950 . S
H608 C632 0.950 . S
H609 C633 0.950 . S
H610 C634 0.951 . S
H611 C636 0.951 . S
H612 C638 0.950 . S
H613 C639 0.950 . S
H614 C641 0.950 . S
H615 C644 0.950 . S
H616 C645 0.950 . S
H617 C647 0.950 . S
H618 C648 0.950 . S
C619 H601 0.951 1_455 S
C619 C620 1.366 . S
C619 C621 1.388 . S
C620 C619 1.366 . S
C620 C624 1.385 . S
C621 H602 0.951 . S
C621 C619 1.388 . S
C621 C622 1.366 . S
C622 C621 1.366 . S
C622 C623 1.414 . S
C622 C625 1.499 . S
C623 H603 0.950 . S
C623 C622 1.414 . S
C623 C624 1.374 . S
C624 H604 0.950 . S
C624 C620 1.385 . S
C624 C623 1.374 . S
C625 C622 1.499 . S
C625 C626 1.373 . S
C625 C627 1.389 1_455 S
C626 H605 0.950 . S
C626 C625 1.373 . S
C626 C642 1.377 . S
C627 C625 1.389 1_655 S
C627 C628 1.524 . S
C627 C641 1.377 . S
C628 C627 1.524 . S
C628 C629 1.397 . S
C628 C633 1.363 . S
C629 H606 0.950 . S
C629 C628 1.397 . S
C629 C630 1.334 . S
C630 H607 0.950 . S
C630 C629 1.334 . S
C630 C631 1.287 . S
C631 C630 1.287 . S
C631 C632 1.524 . S
C631 H650 0.913 . S
C632 H608 0.950 . S
C632 C631 1.524 . S
C632 C633 1.415 . S
C633 H609 0.950 . S
C633 C628 1.363 . S
C633 C632 1.415 . S
C634 H610 0.951 . S
C634 C635 1.366 . S
C634 C636 1.388 . S
C635 C634 1.366 . S
C635 C639 1.385 . S
C636 H611 0.951 . S
C636 C634 1.388 . S
C636 C637 1.366 . S
C637 C636 1.366 . S
C637 C638 1.414 . S
C637 C640 1.499 . S
C638 H612 0.950 . S
C638 C637 1.414 . S
C638 C639 1.374 . S
C639 H613 0.950 . S
C639 C635 1.385 . S
C639 C638 1.374 . S
C640 C637 1.499 . S
C640 C641 1.373 1_455 S
C640 C642 1.389 . S
C641 H614 0.950 . S
C641 C627 1.377 . S
C641 C640 1.373 1_655 S
C642 C626 1.377 . S
C642 C640 1.389 . S
C642 C643 1.524 . S
C643 C642 1.524 . S
C643 C644 1.397 . S
C643 C648 1.363 . S
C644 H615 0.950 . S
C644 C643 1.397 . S
C644 C645 1.334 . S
C645 H616 0.950 . S
C645 C644 1.334 . S
C645 C646 1.287 . S
C646 C645 1.287 . S
C646 C647 1.524 . S
C646 H649 0.999 . S
C647 H617 0.950 . S
C647 C646 1.524 . S
C647 C648 1.415 . S
C648 H618 0.950 . S
C648 C643 1.363 . S
C648 C647 1.415 . S
H649 C646 0.999 . S
H650 C631 0.913 . S
H651 C669 0.951 . S
H652 C671 0.951 . S
H653 C673 0.950 . S
H654 C674 0.950 1_565 S
H655 C676 0.950 1_565 S
H656 C679 0.950 . S
H657 C680 0.950 . S
H658 C682 0.950 . S
H659 C683 0.950 . S
H660 C684 0.951 . S
H661 C686 0.951 . S
H662 C688 0.950 . S
H663 C689 0.950 . S
H664 C691 0.950 . S
H665 C694 0.950 . S
H666 C695 0.950 . S
H667 C697 0.950 . S
H668 C698 0.950 . S
C669 H651 0.951 . S
C669 C670 1.366 . S
C669 C671 1.388 . S
C670 C669 1.366 . S
C670 C674 1.385 . S
C671 H652 0.951 . S
C671 C669 1.388 . S
C671 C672 1.366 . S
C672 C671 1.366 . S
C672 C673 1.414 . S
C672 C675 1.499 . S
C673 H653 0.950 . S
C673 C672 1.414 . S
C673 C674 1.374 . S
C674 H654 0.950 1_545 S
C674 C670 1.385 . S
C674 C673 1.374 . S
C675 C672 1.499 . S
C675 C676 1.373 . S
C675 C677 1.389 . S
C676 H655 0.950 1_545 S
C676 C675 1.373 . S
C676 C692 1.377 . S
C677 C675 1.389 . S
C677 C678 1.524 . S
C677 C691 1.377 . S
C678 C677 1.524 . S
C678 C679 1.397 . S
C678 C683 1.363 . S
C679 H656 0.950 . S
C679 C678 1.397 . S
C679 C680 1.334 . S
C680 H657 0.950 . S
C680 C679 1.334 . S
C680 C681 1.287 . S
C681 C680 1.287 . S
C681 C682 1.524 . S
C681 H700 0.913 . S
C682 H658 0.950 . S
C682 C681 1.524 . S
C682 C683 1.415 . S
C683 H659 0.950 . S
C683 C678 1.363 . S
C683 C682 1.415 . S
C684 H660 0.951 . S
C684 C685 1.366 . S
C684 C686 1.388 . S
C685 C684 1.366 . S
C685 C689 1.385 . S
C686 H661 0.951 . S
C686 C684 1.388 . S
C686 C687 1.366 . S
C687 C686 1.366 . S
C687 C688 1.414 . S
C687 C690 1.499 . S
C688 H662 0.950 . S
C688 C687 1.414 . S
C688 C689 1.374 . S
C689 H663 0.950 . S
C689 C685 1.385 . S
C689 C688 1.374 . S
C690 C687 1.499 . S
C690 C691 1.373 . S
C690 C692 1.389 . S
C691 H664 0.950 . S
C691 C677 1.377 . S
C691 C690 1.373 . S
C692 C676 1.377 . S
C692 C690 1.389 . S
C692 C693 1.524 1_545 S
C693 C692 1.524 1_565 S
C693 C694 1.397 . S
C693 C698 1.363 . S
C694 H665 0.950 . S
C694 C693 1.397 . S
C694 C695 1.334 . S
C695 H666 0.950 . S
C695 C694 1.334 . S
C695 C696 1.287 . S
C696 C695 1.287 . S
C696 C697 1.524 . S
C696 H699 0.999 . S
C697 H667 0.950 . S
C697 C696 1.524 . S
C697 C698 1.415 . S
C698 H668 0.950 . S
C698 C693 1.363 . S
C698 C697 1.415 . S
H699 C696 0.999 . S
H700 C681 0.913 . S
H701 C719 0.957 1_554 S
H702 C721 0.951 . S
H703 C723 0.950 . S
H704 C724 0.950 . S
H705 C726 0.950 . S
H706 C729 0.950 . S
H707 C730 0.950 . S
H708 C732 0.950 1_554 S
H709 C733 0.950 . S
H710 C734 0.951 . S
H711 C736 0.951 . S
H712 C738 0.950 . S
H713 C739 0.950 . S
H714 C741 0.950 . S
H715 C744 0.950 . S
H716 C745 0.950 . S
H717 C747 0.950 . S
H718 C748 0.950 . S
C719 H701 0.957 1_556 S
C719 C720 1.363 . S
C719 C721 1.384 . S
C720 C719 1.363 . S
C720 C724 1.385 . S
C721 H702 0.951 . S
C721 C719 1.384 . S
C721 C722 1.366 . S
C722 C721 1.366 . S
C722 C723 1.414 . S
C722 C725 1.499 . S
C723 H703 0.950 . S
C723 C722 1.414 . S
C723 C724 1.374 . S
C724 H704 0.950 . S
C724 C720 1.385 . S
C724 C723 1.374 . S
C725 C722 1.499 . S
C725 C726 1.373 . S
C725 C727 1.389 . S
C726 H705 0.950 . S
C726 C725 1.373 . S
C726 C742 1.377 . S
C727 C725 1.389 . S
C727 C728 1.524 . S
C727 C741 1.377 . S
C728 C727 1.524 . S
C728 C729 1.397 . S
C728 C733 1.363 . S
C729 H706 0.950 . S
C729 C728 1.397 . S
C729 C730 1.334 . S
C730 H707 0.950 . S
C730 C729 1.334 . S
C730 C731 1.287 . S
C731 C730 1.287 . S
C731 C732 1.524 . S
C731 H750 0.949 . S
C732 H708 0.950 1_556 S
C732 C731 1.524 . S
C732 C733 1.415 . S
C733 H709 0.950 . S
C733 C728 1.363 . S
C733 C732 1.415 . S
C734 H710 0.951 . S
C734 C735 1.366 . S
C734 C736 1.388 . S
C735 C734 1.366 . S
C735 C739 1.385 . S
C736 H711 0.951 . S
C736 C734 1.388 . S
C736 C737 1.366 . S
C737 C736 1.366 . S
C737 C738 1.414 . S
C737 C740 1.499 . S
C738 H712 0.950 . S
C738 C737 1.414 . S
C738 C739 1.374 . S
C739 H713 0.950 . S
C739 C735 1.385 . S
C739 C738 1.374 . S
C740 C737 1.499 . S
C740 C741 1.373 . S
C740 C742 1.389 . S
C741 H714 0.950 . S
C741 C727 1.377 . S
C741 C740 1.373 . S
C742 C726 1.377 . S
C742 C740 1.389 . S
C742 C743 1.524 . S
C743 C742 1.524 . S
C743 C744 1.397 . S
C743 C748 1.363 . S
C744 H715 0.950 . S
C744 C743 1.397 . S
C744 C745 1.334 . S
C745 H716 0.950 . S
C745 C744 1.334 . S
C745 C746 1.287 . S
C746 C745 1.287 . S
C746 C747 1.524 . S
C746 H749 0.999 . S
C747 H717 0.950 . S
C747 C746 1.524 . S
C747 C748 1.415 . S
C748 H718 0.950 . S
C748 C743 1.363 . S
C748 C747 1.415 . S
H749 C746 0.999 . S
H750 C731 0.949 . S
H751 C769 0.951 . S
H752 C771 0.951 . S
H753 C773 0.950 . S
H754 C774 0.950 . S
H755 C776 0.950 1_655 S
H756 C779 0.950 . S
H757 C780 0.950 . S
H758 C782 0.950 . S
H759 C783 0.950 . S
H760 C784 0.951 . S
H761 C786 0.951 . S
H762 C788 0.950 . S
H763 C789 0.950 . S
H764 C791 0.950 . S
H765 C794 0.950 . S
H766 C795 0.950 . S
H767 C797 0.950 . S
H768 C798 0.950 . S
C769 H751 0.951 . S
C769 C770 1.366 . S
C769 C771 1.388 . S
C770 C769 1.366 . S
C770 C774 1.385 . S
C771 H752 0.951 . S
C771 C769 1.388 . S
C771 C772 1.366 . S
C772 C771 1.366 . S
C772 C773 1.414 . S
C772 C775 1.499 . S
C773 H753 0.950 . S
C773 C772 1.414 . S
C773 C774 1.374 . S
C774 H754 0.950 . S
C774 C770 1.385 . S
C774 C773 1.374 . S
C775 C772 1.499 . S
C775 C776 1.373 . S
C775 C777 1.389 . S
C776 H755 0.950 1_455 S
C776 C775 1.373 . S
C776 C792 1.377 . S
C777 C775 1.389 . S
C777 C778 1.524 . S
C777 C791 1.377 . S
C778 C777 1.524 . S
C778 C779 1.397 . S
C778 C783 1.363 . S
C779 H756 0.950 . S
C779 C778 1.397 . S
C779 C780 1.334 . S
C780 H757 0.950 . S
C780 C779 1.334 . S
C780 C781 1.287 . S
C781 C780 1.287 . S
C781 C782 1.524 . S
C781 H800 0.913 . S
C782 H758 0.950 . S
C782 C781 1.524 . S
C782 C783 1.415 . S
C783 H759 0.950 . S
C783 C778 1.363 . S
C783 C782 1.415 . S
C784 H760 0.951 . S
C784 C785 1.366 . S
C784 C786 1.388 . S
C785 C784 1.366 . S
C785 C789 1.385 . S
C786 H761 0.951 . S
C786 C784 1.388 . S
C786 C787 1.366 . S
C787 C786 1.366 . S
C787 C788 1.414 . S
C787 C790 1.499 . S
C788 H762 0.950 . S
C788 C787 1.414 . S
C788 C789 1.374 . S
C789 H763 0.950 . S
C789 C785 1.385 . S
C789 C788 1.374 . S
C790 C787 1.499 . S
C790 C791 1.373 . S
C790 C792 1.389 . S
C791 H764 0.950 . S
C791 C777 1.377 . S
C791 C790 1.373 . S
C792 C776 1.377 . S
C792 C790 1.389 . S
C792 C793 1.524 1_455 S
C793 C792 1.524 1_655 S
C793 C794 1.397 . S
C793 C798 1.363 . S
C794 H765 0.950 . S
C794 C793 1.397 . S
C794 C795 1.334 . S
C795 H766 0.950 . S
C795 C794 1.334 . S
C795 C796 1.287 . S
C796 C795 1.287 . S
C796 C797 1.524 . S
C796 H799 0.999 . S
C797 H767 0.950 . S
C797 C796 1.524 . S
C797 C798 1.415 . S
C798 H768 0.950 . S
C798 C793 1.363 . S
C798 C797 1.415 . S
H799 C796 0.999 . S
H800 C781 0.913 . S
C235 C64 1.362 . S
C220 C11 1.342 . S
C270 C26 1.517 . S
C285 C134 1.529 . S
C320 C40 1.382 1_655 S
C335 C186 1.390 . S
C370 C5 1.211 1_565 S
C385 C80 1.360 . S
C435 C124 1.519 . S
C420 C18 1.502 . S
C470 C32 1.370 . S
C485 C170 1.387 . S
C535 C117 1.249 . S
C520 C39 1.236 1_655 S
C570 C4 1.379 1_566 S
C585 C177 1.395 . S
C635 C71 1.358 . S
C620 C19 1.197 1_455 S
C685 C133 1.271 . S
C670 C33 1.131 . S
C735 C187 1.405 . S
C720 C12 1.394 1_556 S
C770 C25 1.341 . S
C785 C81 1.363 . S
