# Generated by pormake.
# Topology ctn, (3,4)-cn, num edge types: 1
# Building blocks:
#     Node 0, Type 0, BuildingBlock: WUSLED_clean_sbu_0, # of connection points: 3
#     Node 1, Type 0, BuildingBlock: WUSLED_clean_sbu_0, # of connection points: 3
#     Node 2, Type 0, BuildingBlock: WUSLED_clean_sbu_0, # of connection points: 3
#     Node 3, Type 0, BuildingBlock: WUSLED_clean_sbu_0, # of connection points: 3
#     Node 4, Type 0, BuildingBlock: WUSLED_clean_sbu_0, # of connection points: 3
#     Node 5, Type 0, BuildingBlock: WUSLED_clean_sbu_0, # of connection points: 3
#     Node 6, Type 0, BuildingBlock: WUSLED_clean_sbu_0, # of connection points: 3
#     Node 7, Type 0, BuildingBlock: WUSLED_clean_sbu_0, # of connection points: 3
#     Node 8, Type 0, BuildingBlock: WUSLED_clean_sbu_0, # of connection points: 3
#     Node 9, Type 0, BuildingBlock: WUSLED_clean_sbu_0, # of connection points: 3
#     Node 10, Type 0, BuildingBlock: WUSLED_clean_sbu_0, # of connection points: 3
#     Node 11, Type 0, BuildingBlock: WUSLED_clean_sbu_0, # of connection points: 3
#     Node 12, Type 0, BuildingBlock: WUSLED_clean_sbu_0, # of connection points: 3
#     Node 13, Type 0, BuildingBlock: WUSLED_clean_sbu_0, # of connection points: 3
#     Node 14, Type 0, BuildingBlock: WUSLED_clean_sbu_0, # of connection points: 3
#     Node 15, Type 0, BuildingBlock: WUSLED_clean_sbu_0, # of connection points: 3
#     Node 16, Type 1, BuildingBlock: NAHDIM_clean_sbu_0, # of connection points: 4
#     Node 17, Type 1, BuildingBlock: NAHDIM_clean_sbu_0, # of connection points: 4
#     Node 18, Type 1, BuildingBlock: NAHDIM_clean_sbu_0, # of connection points: 4
#     Node 19, Type 1, BuildingBlock: NAHDIM_clean_sbu_0, # of connection points: 4
#     Node 20, Type 1, BuildingBlock: NAHDIM_clean_sbu_0, # of connection points: 4
#     Node 21, Type 1, BuildingBlock: NAHDIM_clean_sbu_0, # of connection points: 4
#     Node 22, Type 1, BuildingBlock: NAHDIM_clean_sbu_0, # of connection points: 4
#     Node 23, Type 1, BuildingBlock: NAHDIM_clean_sbu_0, # of connection points: 4
#     Node 24, Type 1, BuildingBlock: NAHDIM_clean_sbu_0, # of connection points: 4
#     Node 25, Type 1, BuildingBlock: NAHDIM_clean_sbu_0, # of connection points: 4
#     Node 26, Type 1, BuildingBlock: NAHDIM_clean_sbu_0, # of connection points: 4
#     Node 27, Type 1, BuildingBlock: NAHDIM_clean_sbu_0, # of connection points: 4
#     Edge 28, Type (0, 1), BuildingBlock: EZIPEK_clean_linker_0, # of connection points: 2
#     Edge 29, Type (0, 1), BuildingBlock: EZIPEK_clean_linker_0, # of connection points: 2
#     Edge 30, Type (0, 1), BuildingBlock: EZIPEK_clean_linker_0, # of connection points: 2
#     Edge 31, Type (0, 1), BuildingBlock: EZIPEK_clean_linker_0, # of connection points: 2
#     Edge 32, Type (0, 1), BuildingBlock: EZIPEK_clean_linker_0, # of connection points: 2
#     Edge 33, Type (0, 1), BuildingBlock: EZIPEK_clean_linker_0, # of connection points: 2
#     Edge 34, Type (0, 1), BuildingBlock: EZIPEK_clean_linker_0, # of connection points: 2
#     Edge 35, Type (0, 1), BuildingBlock: EZIPEK_clean_linker_0, # of connection points: 2
#     Edge 36, Type (0, 1), BuildingBlock: EZIPEK_clean_linker_0, # of connection points: 2
#     Edge 37, Type (0, 1), BuildingBlock: EZIPEK_clean_linker_0, # of connection points: 2
#     Edge 38, Type (0, 1), BuildingBlock: EZIPEK_clean_linker_0, # of connection points: 2
#     Edge 39, Type (0, 1), BuildingBlock: EZIPEK_clean_linker_0, # of connection points: 2
#     Edge 40, Type (0, 1), BuildingBlock: EZIPEK_clean_linker_0, # of connection points: 2
#     Edge 41, Type (0, 1), BuildingBlock: EZIPEK_clean_linker_0, # of connection points: 2
#     Edge 42, Type (0, 1), BuildingBlock: EZIPEK_clean_linker_0, # of connection points: 2
#     Edge 43, Type (0, 1), BuildingBlock: EZIPEK_clean_linker_0, # of connection points: 2
#     Edge 44, Type (0, 1), BuildingBlock: EZIPEK_clean_linker_0, # of connection points: 2
#     Edge 45, Type (0, 1), BuildingBlock: EZIPEK_clean_linker_0, # of connection points: 2
#     Edge 46, Type (0, 1), BuildingBlock: EZIPEK_clean_linker_0, # of connection points: 2
#     Edge 47, Type (0, 1), BuildingBlock: EZIPEK_clean_linker_0, # of connection points: 2
#     Edge 48, Type (0, 1), BuildingBlock: EZIPEK_clean_linker_0, # of connection points: 2
#     Edge 49, Type (0, 1), BuildingBlock: EZIPEK_clean_linker_0, # of connection points: 2
#     Edge 50, Type (0, 1), BuildingBlock: EZIPEK_clean_linker_0, # of connection points: 2
#     Edge 51, Type (0, 1), BuildingBlock: EZIPEK_clean_linker_0, # of connection points: 2
#     Edge 52, Type (0, 1), BuildingBlock: EZIPEK_clean_linker_0, # of connection points: 2
#     Edge 53, Type (0, 1), BuildingBlock: EZIPEK_clean_linker_0, # of connection points: 2
#     Edge 54, Type (0, 1), BuildingBlock: EZIPEK_clean_linker_0, # of connection points: 2
#     Edge 55, Type (0, 1), BuildingBlock: EZIPEK_clean_linker_0, # of connection points: 2
#     Edge 56, Type (0, 1), BuildingBlock: EZIPEK_clean_linker_0, # of connection points: 2
#     Edge 57, Type (0, 1), BuildingBlock: EZIPEK_clean_linker_0, # of connection points: 2
#     Edge 58, Type (0, 1), BuildingBlock: EZIPEK_clean_linker_0, # of connection points: 2
#     Edge 59, Type (0, 1), BuildingBlock: EZIPEK_clean_linker_0, # of connection points: 2
#     Edge 60, Type (0, 1), BuildingBlock: EZIPEK_clean_linker_0, # of connection points: 2
#     Edge 61, Type (0, 1), BuildingBlock: EZIPEK_clean_linker_0, # of connection points: 2
#     Edge 62, Type (0, 1), BuildingBlock: EZIPEK_clean_linker_0, # of connection points: 2
#     Edge 63, Type (0, 1), BuildingBlock: EZIPEK_clean_linker_0, # of connection points: 2
#     Edge 64, Type (0, 1), BuildingBlock: EZIPEK_clean_linker_0, # of connection points: 2
#     Edge 65, Type (0, 1), BuildingBlock: EZIPEK_clean_linker_0, # of connection points: 2
#     Edge 66, Type (0, 1), BuildingBlock: EZIPEK_clean_linker_0, # of connection points: 2
#     Edge 67, Type (0, 1), BuildingBlock: EZIPEK_clean_linker_0, # of connection points: 2
#     Edge 68, Type (0, 1), BuildingBlock: EZIPEK_clean_linker_0, # of connection points: 2
#     Edge 69, Type (0, 1), BuildingBlock: EZIPEK_clean_linker_0, # of connection points: 2
#     Edge 70, Type (0, 1), BuildingBlock: EZIPEK_clean_linker_0, # of connection points: 2
#     Edge 71, Type (0, 1), BuildingBlock: EZIPEK_clean_linker_0, # of connection points: 2
#     Edge 72, Type (0, 1), BuildingBlock: EZIPEK_clean_linker_0, # of connection points: 2
#     Edge 73, Type (0, 1), BuildingBlock: EZIPEK_clean_linker_0, # of connection points: 2
#     Edge 74, Type (0, 1), BuildingBlock: EZIPEK_clean_linker_0, # of connection points: 2
#     Edge 75, Type (0, 1), BuildingBlock: EZIPEK_clean_linker_0, # of connection points: 2
# Relax obj value: 0.002
# Max RMSD: 0.033
# Mean RMSD: 0.019
data_MOF--net-ctn--node1-WUSLED_clean_sbu_0--node2-NAHDIM_clean_sbu_0--edge1-EZIPEK_clean_linker_0
_symmetry_space_group_name_H-M    P1
_symmetry_Int_Tables_number       1
_symmetry_cell_setting            triclinic
loop_
_symmetry_equiv_pos_as_xyz
'x, y, z'
_cell_length_a     55.581572
_cell_length_b     56.250967
_cell_length_c     55.80402
_cell_angle_alpha  91.81279
_cell_angle_beta   90.017982
_cell_angle_gamma 92.086547
loop_
_atom_site_label
_atom_site_type_symbol
_atom_site_fract_x
_atom_site_fract_y
_atom_site_fract_z
_atom_type_partial_charge
C0 C 1.00782 0.06876 0.10384 0.0
C1 C 0.01732 0.05125 0.11816 0.0
C2 C 0.98345 0.05454 0.14562 0.0
C3 C 1.00521 0.0442 0.13895 0.0
C4 C 0.97393 0.07188 0.13117 0.0
C5 C 0.98603 0.07893 0.11045 0.0
U6 U 0.05771 0.06472 0.05614 0.0
O7 O 0.05524 0.06955 0.01717 0.0
O8 O 0.07875 0.09352 0.03925 0.0
C9 C 0.06922 0.0889 0.01796 0.0
C10 C 0.02034 0.07685 0.08212 0.0
C11 C 0.06021 0.10947 1.00528 0.0
C12 C 0.03897 0.14659 1.00479 0.0
C13 C 0.0468 0.12697 0.01718 0.0
C14 C 0.05752 0.13129 0.96845 0.0
C15 C 0.04435 0.1489 0.98035 0.0
C16 C 0.0654 0.11176 0.98083 0.0
C17 C 0.10412 1.01508 0.06017 0.0
C18 C 0.14458 1.01349 0.04351 0.0
C19 C 0.12434 0.97743 0.05692 0.0
C20 C 0.10426 0.99044 0.06345 0.0
C21 C 0.1447 0.98886 0.04704 0.0
C22 C 0.1244 0.02652 0.04999 0.0
C23 C 0.08299 0.02833 0.06838 0.0
O24 O 0.04211 0.08632 0.08539 0.0
O25 O 0.01874 0.06226 0.06328 0.0
O26 O 0.06372 0.02614 0.05472 0.0
O27 O 0.08716 0.05017 0.07686 0.0
H28 H 0.03412 0.04318 0.11331 0.0
H29 H 1.01283 0.03082 0.14992 0.0
H30 H 0.95719 0.08005 0.13604 0.0
H31 H 0.97843 0.09244 0.09961 0.0
H32 H 0.02878 0.15999 0.01423 0.0
H33 H 0.0425 0.12551 0.03602 0.0
H34 H 0.0618 0.13276 0.94961 0.0
H35 H 0.07568 0.09846 0.97133 0.0
H36 H 0.16012 0.02258 0.03583 0.0
H37 H 0.1241 0.95846 0.05973 0.0
H38 H 0.08885 0.98127 0.07131 0.0
H39 H 0.12473 0.04551 0.04723 0.0
C40 C 0.28114 0.76191 0.17132 0.0
C41 C 0.30234 0.77102 0.16063 0.0
C42 C 0.27878 0.79621 0.13554 0.0
C43 C 0.30114 0.78802 0.14282 0.0
C44 C 0.25772 0.78751 0.14659 0.0
C45 C 0.25889 0.7705 0.16427 0.0
U46 U 0.30684 0.73001 0.22586 0.0
O47 O 0.28706 0.71269 0.25521 0.0
O48 O 0.30998 0.69168 0.23128 0.0
C49 C 0.29448 0.69144 0.24908 0.0
C50 C 0.28142 0.74275 0.18891 0.0
C51 C 0.276 0.6719 0.24845 0.0
C52 C 0.24617 0.64623 0.22738 0.0
C53 C 0.26271 0.66571 0.2276 0.0
C54 C 0.25571 0.6393 0.2689 0.0
C55 C 0.24272 0.63279 0.248 0.0
C56 C 0.27221 0.65869 0.2691 0.0
C57 C 0.36326 0.75589 0.25958 0.0
C58 C 0.3974 0.73827 0.27898 0.0
C59 C 0.38459 0.77718 0.29235 0.0
C60 C 0.36623 0.77591 0.27514 0.0
C61 C 0.40047 0.75849 0.29426 0.0
C62 C 0.37891 0.73694 0.26182 0.0
C63 C 0.34469 0.75594 0.24045 0.0
O64 O 0.29911 0.72788 0.18716 0.0
O65 O 0.27627 0.74889 0.21119 0.0
O66 O 0.32264 0.76017 0.24747 0.0
O67 O 0.34555 0.73925 0.22344 0.0
H68 H 0.31974 0.76476 0.16576 0.0
H69 H 0.31758 0.79455 0.13448 0.0
H70 H 0.24031 0.79359 0.14119 0.0
H71 H 0.24233 0.76371 0.1722 0.0
H72 H 0.23632 0.64143 0.21108 0.0
H73 H 0.26536 0.6757 0.21147 0.0
H74 H 0.25331 0.62915 0.28495 0.0
H75 H 0.28228 0.66317 0.28534 0.0
H76 H 0.40954 0.72371 0.28013 0.0
H77 H 0.38673 0.79296 0.3039 0.0
H78 H 0.35455 0.79082 0.27372 0.0
H79 H 0.37717 0.72126 0.25009 0.0
C80 C 0.97194 0.43382 1.00506 0.0
C81 C 0.99618 0.42754 1.00569 0.0
C82 C 0.98752 0.39428 0.97759 0.0
C83 C 1.00393 0.40793 0.99199 0.0
C84 C 0.96323 0.40027 0.97741 0.0
C85 C 0.95552 0.41989 0.99101 0.0
U86 U 0.97527 0.48078 0.05694 0.0
O87 O 0.96996 0.51938 0.05621 0.0
O88 O 0.94581 0.49675 0.07751 0.0
C89 C 0.95046 0.51815 0.0695 0.0
C90 C 0.96344 0.45511 0.01822 0.0
C91 C 0.92961 0.53081 0.06066 0.0
C92 C 0.89572 0.53406 0.03343 0.0
C93 C 0.91558 0.52169 0.04129 0.0
C94 C 0.90379 0.56477 0.06411 0.0
C95 C 0.88969 0.55568 0.04483 0.0
C96 C 0.92358 0.55242 0.07196 0.0
C97 C 0.02458 0.47699 0.10536 0.0
C98 C 0.0339 0.50709 0.13664 0.0
C99 C 0.05227 0.46872 0.13756 0.0
C100 C 0.04001 0.46152 0.11652 0.0
C101 C 0.04933 0.49154 0.14777 0.0
C102 C 0.02155 0.49985 0.11555 0.0
C103 C 1.01195 0.46875 0.08321 0.0
O104 O 0.95376 0.45147 0.03933 0.0
O105 O 0.97778 0.47422 0.01798 0.0
O106 O 1.01412 0.48267 0.06479 0.0
O107 O 0.98994 0.45994 0.08597 0.0
H108 H 1.00915 0.43798 0.01649 0.0
H109 H 0.02275 0.40359 0.99234 0.0
H110 H 0.95032 0.38997 0.96642 0.0
H111 H 0.93675 0.42441 0.99029 0.0
H112 H 0.88504 0.52678 0.01852 0.0
H113 H 0.91997 0.50504 0.03233 0.0
H114 H 0.89943 0.58141 0.07311 0.0
H115 H 0.93419 0.55974 0.08691 0.0
H116 H 0.03135 0.52474 0.14433 0.0
H117 H 0.06404 0.45647 0.14594 0.0
H118 H 0.04256 0.44382 0.10895 0.0
H119 H 1.00966 0.51202 0.10724 0.0
C120 C 0.72445 0.76509 0.17593 0.0
C121 C 0.74903 0.76537 0.16994 0.0
C122 C 0.7403 0.73961 0.13489 0.0
C123 C 0.7569 0.75264 0.14959 0.0
C124 C 0.71574 0.7396 0.1407 0.0
C125 C 0.70789 0.7522 0.1611 0.0
U126 U 0.72963 0.81506 0.22444 0.0
O127 O 0.70147 0.8367 0.24091 0.0
O128 O 0.72267 0.81384 0.26326 0.0
C129 C 0.70456 0.82816 0.2623 0.0
C130 C 0.71573 0.77776 0.19764 0.0
C131 C 0.68251 0.82049 0.27504 0.0
C132 C 0.64535 0.79643 0.2776 0.0
C133 C 0.66639 0.803 0.26519 0.0
C134 C 0.65647 0.82456 0.30985 0.0
C135 C 0.64022 0.80724 0.29999 0.0
C136 C 0.67744 0.83112 0.29747 0.0
C137 C 0.78351 0.86052 0.22198 0.0
C138 C 0.78693 0.90138 0.23781 0.0
C139 C 0.82285 0.88058 0.22661 0.0
C140 C 0.80867 0.86039 0.21996 0.0
C141 C 0.81209 0.9013 0.23535 0.0
C142 C 0.77272 0.8811 0.23123 0.0
C143 C 0.76909 0.83941 0.2132 0.0
O144 O 0.729 0.7764 0.21703 0.0
O145 O 0.70795 0.79923 0.19449 0.0
O146 O 0.7478 0.84336 0.20416 0.0
O147 O 0.76907 0.8207 0.22672 0.0
H148 H 0.76211 0.77529 0.18106 0.0
H149 H 0.77592 0.75288 0.14532 0.0
H150 H 0.7027 0.72966 0.12955 0.0
H151 H 0.68887 0.75179 0.16538 0.0
H152 H 0.633 0.78304 0.26971 0.0
H153 H 0.67003 0.79456 0.24791 0.0
H154 H 0.65283 0.83308 0.32709 0.0
H155 H 0.68967 0.84462 0.30536 0.0
H156 H 0.77832 0.91723 0.2445 0.0
H157 H 0.84221 0.88019 0.22457 0.0
H158 H 0.81736 0.84475 0.21283 0.0
H159 H 0.75334 0.88163 0.23302 0.0
C160 C 0.99996 0.9802 0.43239 0.0
C161 C 1.00848 0.99919 0.41859 0.0
C162 C 0.97279 0.99499 0.39321 0.0
C163 C 0.99497 1.00653 0.39907 0.0
C164 C 0.96439 0.97598 0.40701 0.0
C165 C 0.97787 0.96867 0.42644 0.0
U166 U 0.05282 0.9853 0.47725 0.0
O167 O 0.05233 0.98028 0.51629 0.0
O168 O 0.07355 0.95701 0.49289 0.0
C169 C 0.06534 0.96124 0.51466 0.0
C170 C 1.01354 0.97224 0.45319 0.0
C171 C 0.05649 0.94045 0.52829 0.0
C172 C 0.04494 0.89833 0.53087 0.0
C173 C 0.05187 0.91791 0.51717 0.0
C174 C 0.04667 0.92348 0.56689 0.0
C175 C 0.0424 0.90095 0.55586 0.0
C176 C 0.05371 0.943 0.55325 0.0
C177 C 0.10075 0.03648 0.47142 0.0
C178 C 0.13808 0.0413 0.49422 0.0
C179 C 0.12593 0.07254 0.46835 0.0
C180 C 0.10524 0.05896 0.46183 0.0
C181 C 0.14251 0.06385 0.48458 0.0
C182 C 0.11728 0.0277 0.48771 0.0
C183 C 0.07878 0.02268 0.46399 0.0
O184 O 0.03475 0.96358 0.44855 0.0
O185 O 1.01358 0.98649 0.4723 0.0
O186 O 0.06031 0.02406 0.4786 0.0
O187 O 0.08184 1.001 0.45532 0.0
H188 H 0.02549 1.00834 0.42295 0.0
H189 H 1.00174 0.02121 0.38861 0.0
H190 H 0.94734 0.96688 0.40276 0.0
H191 H 0.97099 0.95401 0.43689 0.0
H192 H 0.04175 0.88108 0.52203 0.0
H193 H 0.05386 0.91533 0.49797 0.0
H194 H 0.04484 0.92588 0.58614 0.0
H195 H 0.05729 0.9601 0.56228 0.0
H196 H 0.15067 0.03432 0.50678 0.0
H197 H 0.12902 0.08987 0.46075 0.0
H198 H 0.09271 0.06603 0.44925 0.0
H199 H 0.11411 1.01039 0.49533 0.0
C200 C 0.22248 0.78256 0.85962 0.0
C201 C 0.23384 0.7709 0.87821 0.0
C202 C 0.23877 0.80838 0.90105 0.0
C203 C 0.24187 0.78373 0.89882 0.0
C204 C 0.22775 0.82005 0.88233 0.0
C205 C 0.21964 0.80722 0.8618 0.0
U206 U 0.22298 0.73053 0.81315 0.0
O207 O 0.1926 0.70931 0.79715 0.0
O208 O 0.21664 0.73038 0.7742 0.0
C209 C 0.19691 0.71684 0.77547 0.0
C210 C 0.21299 0.76938 0.8381 0.0
C211 C 0.17582 0.72446 0.76198 0.0
C212 C 0.14915 0.75491 0.7488 0.0
C213 C 0.16902 0.7483 0.76227 0.0
C214 C 0.14254 0.71396 0.73487 0.0
C215 C 0.13578 0.73775 0.73499 0.0
C216 C 0.16239 0.70739 0.74824 0.0
C217 C 0.27111 0.68279 0.8188 0.0
C218 C 0.29175 0.65822 0.78909 0.0
C219 C 0.28859 0.64566 0.83011 0.0
C220 C 0.27594 0.66605 0.83616 0.0
C221 C 0.29678 0.64168 0.80659 0.0
C222 C 0.27896 0.6786 0.79511 0.0
C223 C 0.25909 0.70491 0.82628 0.0
O224 O 0.22704 0.76943 0.81916 0.0
O225 O 0.20252 0.74846 0.84173 0.0
O226 O 0.23725 0.70226 0.83505 0.0
O227 O 0.26155 0.72311 0.81214 0.0
H228 H 0.23632 0.75189 0.87688 0.0
H229 H 0.25038 0.77446 0.91308 0.0
H230 H 0.22524 0.83905 0.88374 0.0
H231 H 0.21096 0.81655 0.84767 0.0
H232 H 0.14419 0.77336 0.74911 0.0
H233 H 0.17911 0.76176 0.7728 0.0
H234 H 0.13246 0.70047 0.72436 0.0
H235 H 0.16733 0.68892 0.74778 0.0
H236 H 0.29792 0.65545 0.77084 0.0
H237 H 0.29227 0.63311 0.84386 0.0
H238 H 0.27019 0.66893 0.85455 0.0
H239 H 0.27552 0.69118 0.78133 0.0
C240 C 0.97838 0.60845 0.53284 0.0
C241 C 0.99325 0.62545 0.52155 0.0
C242 C 0.99401 0.65052 0.55797 0.0
C243 C 1.00097 0.64639 0.53404 0.0
C244 C 0.97934 0.63342 0.56927 0.0
C245 C 0.97158 0.61257 0.55679 0.0
U246 U 0.98129 0.56059 0.48203 0.0
O247 O 0.97484 0.52178 0.48356 0.0
O248 O 0.95178 0.54285 0.46118 0.0
C249 C 0.95565 0.52184 0.46981 0.0
C250 C 0.96948 0.58649 0.52003 0.0
C251 C 0.93427 0.50833 0.4784 0.0
C252 C 0.89793 0.50503 0.50263 0.0
C253 C 0.91823 0.51831 0.49502 0.0
C254 C 0.90964 0.47167 0.47725 0.0
C255 C 0.89352 0.48158 0.49378 0.0
C256 C 0.92983 0.48494 0.46963 0.0
C257 C 0.0322 0.56516 0.43493 0.0
C258 C 0.03374 0.54391 0.39626 0.0
C259 C 0.0689 0.56644 0.41119 0.0
C260 C 0.05625 0.57291 0.43191 0.0
C261 C 0.0577 0.55211 0.3931 0.0
C262 C 0.02106 0.55038 0.41707 0.0
C263 C 0.01909 0.5734 0.45647 0.0
O264 O 0.96034 0.58918 0.49859 0.0
O265 O 0.98337 0.56814 0.52101 0.0
O266 O 0.02037 0.56007 0.47531 0.0
O267 O 0.99742 0.58125 0.45291 0.0
H268 H 0.99878 0.62257 0.5031 0.0
H269 H 1.01233 0.65938 0.52506 0.0
H270 H 0.97382 0.6363 0.58772 0.0
H271 H 0.96014 0.59967 0.56581 0.0
H272 H 0.88568 0.51298 0.51539 0.0
H273 H 0.92138 0.53634 0.50204 0.0
H274 H 0.90656 0.45363 0.47023 0.0
H275 H 0.942 0.47693 0.45681 0.0
H276 H 0.02481 0.53283 0.38248 0.0
H277 H 0.08735 0.57293 0.40907 0.0
H278 H 0.06516 0.5843 0.44547 0.0
H279 H 1.00252 0.54414 0.41908 0.0
C280 C 0.78577 0.78353 0.86837 0.0
C281 C 0.79189 0.75997 0.86266 0.0
C282 C 0.78301 0.74857 0.90359 0.0
C283 C 0.79048 0.7426 0.88017 0.0
C284 C 0.77743 0.77219 0.90936 0.0
C285 C 0.77876 0.78949 0.8919 0.0
U286 U 0.80931 0.81474 0.81156 0.0
O287 O 0.78871 0.83043 0.78275 0.0
O288 O 0.81307 0.85321 0.80519 0.0
C289 C 0.79642 0.85227 0.78841 0.0
C290 C 0.7855 0.80203 0.85013 0.0
C291 C 0.77811 0.87076 0.79005 0.0
C292 C 0.73648 0.88285 0.79297 0.0
C293 C 0.75347 0.86501 0.79316 0.0
C294 C 0.76849 0.91248 0.78717 0.0
C295 C 0.74387 0.90671 0.78982 0.0
C296 C 0.78542 0.89467 0.78723 0.0
C297 C 0.86404 0.79013 0.7769 0.0
C298 C 0.89367 0.81042 0.75176 0.0
C299 C 0.88928 0.7674 0.74964 0.0
C300 C 0.87104 0.76826 0.76687 0.0
C301 C 0.90091 0.78843 0.74211 0.0
C302 C 0.87531 0.81129 0.76899 0.0
C303 C 0.84598 0.7901 0.79639 0.0
O304 O 0.80366 0.81767 0.85065 0.0
O305 O 0.77917 0.79499 0.82825 0.0
O306 O 0.82359 0.78481 0.79007 0.0
O307 O 0.84791 0.80752 0.81263 0.0
H308 H 0.79741 0.75495 0.84465 0.0
H309 H 0.79489 0.72446 0.8754 0.0
H310 H 0.77164 0.77713 0.92732 0.0
H311 H 0.77396 0.80752 0.89669 0.0
H312 H 0.71756 0.87805 0.79502 0.0
H313 H 0.74728 0.84673 0.79539 0.0
H314 H 0.77454 0.93076 0.78469 0.0
H315 H 0.80427 0.89954 0.78471 0.0
H316 H 0.90249 0.82683 0.74622 0.0
H317 H 0.89466 0.75028 0.74247 0.0
H318 H 0.86267 0.75174 0.77273 0.0
H319 H 0.87023 0.8284 0.77642 0.0
C320 C 0.28554 0.27872 0.36757 0.0
C321 C 0.30122 0.25986 0.36424 0.0
C322 C 0.28494 0.24104 0.39982 0.0
C323 C 0.3009 0.24111 0.38027 0.0
C324 C 0.26941 0.25999 0.40315 0.0
C325 C 0.26973 0.27866 0.38716 0.0
U326 U 0.30966 0.31377 0.31368 0.0
O327 O 0.28956 0.33105 0.2855 0.0
O328 O 0.31329 0.35265 0.30969 0.0
C329 C 0.29714 0.3526 0.29247 0.0
C330 C 0.28512 0.29853 0.35086 0.0
C331 C 0.27892 0.37118 0.29435 0.0
C332 C 0.2373 0.38356 0.29501 0.0
C333 C 0.25406 0.36551 0.29532 0.0
C334 C 0.2699 0.41321 0.29336 0.0
C335 C 0.24511 0.40754 0.29381 0.0
C336 C 0.28662 0.39521 0.29358 0.0
C337 C 0.36549 0.29166 0.27849 0.0
C338 C 0.40665 0.30171 0.26608 0.0
C339 C 0.38034 0.27806 0.23942 0.0
C340 C 0.36179 0.27934 0.25635 0.0
C341 C 0.40301 0.28891 0.24431 0.0
C342 C 0.38812 0.30302 0.28304 0.0
C343 C 0.34689 0.29042 0.29766 0.0
O344 O 0.30316 0.31424 0.35264 0.0
O345 O 0.27932 0.29274 0.32854 0.0
O346 O 0.32458 0.28521 0.29092 0.0
O347 O 0.34836 0.30677 0.31503 0.0
H348 H 0.31357 0.2596 0.34922 0.0
H349 H 0.31299 0.22662 0.37739 0.0
H350 H 0.25697 0.26024 0.41808 0.0
H351 H 0.25751 0.29305 0.39003 0.0
H352 H 0.21824 0.37883 0.29534 0.0
H353 H 0.24755 0.34715 0.2959 0.0
H354 H 0.27629 0.43159 0.2924 0.0
H355 H 0.30564 0.40004 0.29268 0.0
H356 H 0.42408 0.31009 0.27023 0.0
H357 H 0.37725 0.26796 0.22278 0.0
H358 H 0.34478 0.27006 0.25235 0.0
H359 H 0.39177 0.31234 0.3 0.0
C360 C 0.47443 0.93495 0.50133 0.0
C361 C 0.49739 0.9263 0.5056 0.0
C362 C 0.4905 0.89492 0.47498 0.0
C363 C 0.50539 0.90643 0.49247 0.0
C364 C 0.46742 0.90338 0.47105 0.0
C365 C 0.45947 0.92324 0.48411 0.0
U366 U 0.47736 0.98203 0.553 0.0
O367 O 0.47247 0.0207 0.55198 0.0
O368 O 0.44783 0.9984 0.57309 0.0
C369 C 0.45281 0.01973 0.56503 0.0
C370 C 0.46587 0.95638 0.51415 0.0
C371 C 0.43219 0.03263 0.55598 0.0
C372 C 0.39729 0.03532 0.52993 0.0
C373 C 0.41719 0.0229 0.53762 0.0
C374 C 0.40739 0.06739 0.5586 0.0
C375 C 0.3922 0.05761 0.54047 0.0
C376 C 0.42722 0.05499 0.56628 0.0
C377 C 0.5259 0.97761 0.60218 0.0
C378 C 0.53259 1.00605 0.63553 0.0
C379 C 0.55527 0.97006 0.63309 0.0
C380 C 0.54333 0.96319 0.61178 0.0
C381 C 0.54998 0.9915 0.64515 0.0
C382 C 0.52059 0.99913 0.61415 0.0
C383 C 0.51347 0.96959 0.57985 0.0
O384 O 0.45582 0.95293 0.53513 0.0
O385 O 0.48049 0.97528 0.5141 0.0
O386 O 0.51609 0.98354 0.5615 0.0
O387 O 0.4913 0.96109 0.5823 0.0
H388 H 0.50919 0.93505 0.51887 0.0
H389 H 0.52327 0.90017 0.49573 0.0
H390 H 0.45569 0.89476 0.45764 0.0
H391 H 0.4417 0.92962 0.48057 0.0
H392 H 0.38574 0.02748 0.51594 0.0
H393 H 0.42076 1.00567 0.52943 0.0
H394 H 0.40374 0.08453 0.56696 0.0
H395 H 0.43857 0.06279 0.58046 0.0
H396 H 0.52823 0.02262 0.64465 0.0
H397 H 0.56857 0.9586 0.64027 0.0
H398 H 0.54765 0.94652 0.60281 0.0
H399 H 0.50714 1.01046 0.60703 0.0
C400 C 0.22092 0.26592 0.67725 0.0
C401 C 0.22253 0.27654 0.65476 0.0
C402 C 0.234 0.23897 0.63597 0.0
C403 C 0.22897 0.26315 0.63431 0.0
C404 C 0.23275 0.22843 0.65842 0.0
C405 C 0.22617 0.24176 0.67883 0.0
U406 U 0.22715 0.31695 0.725 0.0
O407 O 0.19932 0.33864 0.74205 0.0
O408 O 0.22126 0.31606 0.76398 0.0
C409 C 0.2029 0.33011 0.76337 0.0
C410 C 0.21287 0.27925 0.69901 0.0
C411 C 0.18108 0.32192 0.77618 0.0
C412 C 0.14806 0.29308 0.78206 0.0
C413 C 0.16883 0.3004 0.76963 0.0
C414 C 0.15158 0.32868 0.80763 0.0
C415 C 0.1393 0.3072 0.80113 0.0
C416 C 0.17232 0.33597 0.79524 0.0
C417 C 0.28159 0.36164 0.72046 0.0
C418 C 0.29673 0.38938 0.75169 0.0
C419 C 0.31476 0.38951 0.71253 0.0
C420 C 0.29831 0.37157 0.70463 0.0
C421 C 0.31611 0.39721 0.73696 0.0
C422 C 0.28022 0.37132 0.7438 0.0
C423 C 0.26631 0.341 0.71224 0.0
O424 O 0.2266 0.27813 0.71809 0.0
O425 O 0.20468 0.30062 0.69601 0.0
O426 O 0.24473 0.34551 0.70431 0.0
O427 O 0.26649 0.32232 0.72579 0.0
H428 H 0.21859 0.2951 0.65287 0.0
H429 H 0.22986 0.27159 0.61714 0.0
H430 H 0.23658 0.20981 0.66005 0.0
H431 H 0.22493 0.2331 0.69588 0.0
H432 H 0.13878 0.27646 0.77679 0.0
H433 H 0.1753 0.28935 0.75492 0.0
H434 H 0.14508 0.33979 0.82227 0.0
H435 H 0.18152 0.35262 0.80053 0.0
H436 H 0.29356 0.39707 0.76925 0.0
H437 H 0.32636 0.39719 0.69909 0.0
H438 H 0.29883 0.36527 0.68609 0.0
H439 H 0.26645 0.36487 0.75597 0.0
C440 C 0.78114 0.26325 0.67262 0.0
C441 C 0.80214 0.27655 0.66686 0.0
C442 C 0.78007 0.29741 0.63669 0.0
C443 C 0.8016 0.29354 0.64898 0.0
C444 C 0.75907 0.2844 0.6428 0.0
C445 C 0.75962 0.26746 0.66059 0.0
U446 U 0.80658 0.23177 0.72746 0.0
O447 O 0.78681 0.21494 0.75695 0.0
O448 O 0.80904 0.19327 0.73297 0.0
C449 C 0.79348 0.19344 0.7507 0.0
C450 C 0.78118 0.24439 0.69045 0.0
C451 C 0.77425 0.17461 0.74967 0.0
C452 C 0.73333 0.16053 0.73997 0.0
C453 C 0.75157 0.17843 0.73963 0.0
C454 C 0.76037 0.13467 0.7599 0.0
C455 C 0.73759 0.13857 0.75024 0.0
C456 C 0.77853 0.15256 0.75963 0.0
C457 C 0.86347 0.2573 0.76065 0.0
C458 C 0.89525 0.23814 0.78223 0.0
C459 C 0.88747 0.27962 0.79082 0.0
C460 C 0.86897 0.27852 0.77377 0.0
C461 C 0.9009 0.25952 0.79504 0.0
C462 C 0.87663 0.237 0.76521 0.0
C463 C 0.84482 0.25732 0.74165 0.0
O464 O 0.79878 0.22943 0.68879 0.0
O465 O 0.7763 0.25096 0.71267 0.0
O466 O 0.82288 0.26188 0.74878 0.0
O467 O 0.84541 0.24038 0.72489 0.0
H468 H 0.81893 0.27361 0.67598 0.0
H469 H 0.81797 0.30346 0.64453 0.0
H470 H 0.74231 0.28715 0.63355 0.0
H471 H 0.74324 0.25739 0.66476 0.0
H472 H 0.71586 0.16384 0.73242 0.0
H473 H 0.74789 0.1953 0.7318 0.0
H474 H 0.76399 0.11785 0.76787 0.0
H475 H 0.79589 0.14926 0.76746 0.0
H476 H 0.90548 0.22246 0.7852 0.0
H477 H 0.89159 0.29629 0.80047 0.0
H478 H 0.85917 0.29442 0.77053 0.0
H479 H 0.8728 0.22037 0.7554 0.0
C480 C 0.50613 0.57004 0.60533 0.0
C481 C 0.51646 0.55344 0.62015 0.0
C482 C 0.48217 0.55549 0.64723 0.0
C483 C 0.50456 0.54624 0.64101 0.0
C484 C 0.47178 0.57187 0.63223 0.0
C485 C 0.48369 0.5791 0.61146 0.0
U486 U 0.55584 0.56645 0.55753 0.0
O487 O 0.5537 0.57183 0.51871 0.0
O488 O 0.57718 0.59546 0.54116 0.0
C489 C 0.56791 0.59104 0.51974 0.0
C490 C 0.51853 0.57845 0.58365 0.0
C491 C 0.55931 0.61181 0.50717 0.0
C492 C 0.52888 0.64076 0.49965 0.0
C493 C 0.53675 0.62128 0.51224 0.0
C494 C 0.56608 0.64165 0.47702 0.0
C495 C 0.54349 0.65105 0.48191 0.0
C496 C 0.57391 0.62219 0.48954 0.0
C497 C 0.60193 0.51655 0.56103 0.0
C498 C 0.64206 0.51505 0.54361 0.0
C499 C 0.62249 0.47909 0.55806 0.0
C500 C 0.60238 0.49201 0.56474 0.0
C501 C 0.64253 0.49053 0.5476 0.0
C502 C 0.62186 0.52799 0.55023 0.0
C503 C 0.58082 0.52974 0.56938 0.0
O504 O 0.54033 0.58784 0.58696 0.0
O505 O 0.51683 0.56415 0.5646 0.0
O506 O 0.56162 0.52785 0.55562 0.0
O507 O 0.58508 0.55146 0.57817 0.0
H508 H 0.53376 0.54623 0.61568 0.0
H509 H 0.51285 0.53359 0.65238 0.0
H510 H 0.45454 0.5792 0.63675 0.0
H511 H 0.47544 0.59191 0.60023 0.0
H512 H 0.51139 0.64778 0.50367 0.0
H513 H 0.52523 0.61353 0.5258 0.0
H514 H 0.5776 0.64934 0.46342 0.0
H515 H 0.59136 0.61515 0.48539 0.0
H516 H 0.65736 0.52415 0.53549 0.0
H517 H 0.62252 0.46019 0.56125 0.0
H518 H 0.58723 0.48285 0.57306 0.0
H519 H 0.62191 0.54691 0.54713 0.0
C520 C 0.50306 0.47795 0.93156 0.0
C521 C 0.51477 0.48694 0.91122 0.0
C522 C 0.47608 0.49155 0.8917 0.0
C523 C 0.50134 0.49363 0.89139 0.0
C524 C 0.46442 0.48311 0.91221 0.0
C525 C 0.4778 0.47633 0.93194 0.0
U526 U 0.55619 0.48055 0.9764 0.0
O527 O 0.55598 0.47421 0.01511 0.0
O528 O 0.57642 0.45114 0.99081 0.0
C529 C 0.56883 0.4551 1.01282 0.0
C530 C 0.5166 0.46924 0.95217 0.0
C531 C 0.55996 0.43401 0.02575 0.0
C532 C 0.52757 0.40708 0.03878 0.0
C533 C 0.53553 0.4266 0.02546 0.0
C534 C 0.56839 0.40193 0.05243 0.0
C535 C 0.54396 0.39469 0.05247 0.0
C536 C 0.5763 0.42142 0.03918 0.0
C537 C 0.60538 0.53052 0.9721 0.0
C538 C 0.63799 0.5379 1.00083 0.0
C539 C 0.63514 0.56257 0.96618 0.0
C540 C 0.61453 0.54941 0.9586 0.0
C541 C 0.64693 0.55703 0.98742 0.0
C542 C 0.61732 0.5247 0.99321 0.0
C543 C 0.58305 0.51769 0.96412 0.0
O544 O 0.53749 0.45993 0.94739 0.0
O545 O 0.51694 0.48292 0.97171 0.0
O546 O 0.56465 0.51906 0.97882 0.0
O547 O 0.5855 0.4962 0.95471 0.0
H548 H 0.53423 0.48845 0.91051 0.0
H549 H 0.51063 0.5001 0.87569 0.0
H550 H 0.44496 0.48133 0.91273 0.0
H551 H 0.46841 0.46944 0.94741 0.0
H552 H 0.50865 0.40175 0.03861 0.0
H553 H 0.52261 0.43604 0.01516 0.0
H554 H 0.58128 0.39261 0.06286 0.0
H555 H 0.59521 0.42685 0.03964 0.0
H556 H 0.64683 0.53343 0.0173 0.0
H557 H 0.64174 0.57728 0.95565 0.0
H558 H 0.60556 0.55417 0.94228 0.0
H559 H 0.6105 0.51019 1.00388 0.0
C560 C 0.7228 0.28364 0.36129 0.0
C561 C 0.7173 0.27619 0.3846 0.0
C562 C 0.73781 0.31162 0.40203 0.0
C563 C 0.72475 0.29004 0.40475 0.0
C564 C 0.74342 0.31908 0.37886 0.0
C565 C 0.7359 0.3053 0.35871 0.0
U566 U 0.72528 0.23184 0.31423 0.0
O567 O 0.69578 0.20933 0.29827 0.0
O568 O 0.71866 0.23162 0.27534 0.0
C569 C 0.69954 0.21724 0.27664 0.0
C570 C 0.71373 0.26988 0.33971 0.0
C571 C 0.678 0.22421 0.26345 0.0
C572 C 0.64978 0.25374 0.25137 0.0
C573 C 0.66995 0.24762 0.26467 0.0
C574 C 0.64534 0.21312 0.23579 0.0
C575 C 0.63736 0.23652 0.2368 0.0
C576 C 0.66549 0.20704 0.24899 0.0
C577 C 0.77621 0.18712 0.31923 0.0
C578 C 0.77807 0.14849 0.29851 0.0
C579 C 0.81254 0.1644 0.32116 0.0
C580 C 0.7999 0.18476 0.32728 0.0
C581 C 0.80168 0.14603 0.30689 0.0
C582 C 0.7654 0.16893 0.30462 0.0
C583 C 0.76309 0.20836 0.32696 0.0
O584 O 0.72725 0.27076 0.3204 0.0
O585 O 0.70419 0.24851 0.34314 0.0
O586 O 0.7414 0.20442 0.33572 0.0
O587 O 0.76436 0.22643 0.3126 0.0
H588 H 0.70699 0.2598 0.38734 0.0
H589 H 0.72018 0.28403 0.42248 0.0
H590 H 0.7534 0.33573 0.3764 0.0
H591 H 0.74012 0.31175 0.34106 0.0
H592 H 0.64387 0.27188 0.25239 0.0
H593 H 0.67932 0.26114 0.27576 0.0
H594 H 0.636 0.19959 0.22469 0.0
H595 H 0.67141 0.1889 0.24781 0.0
H596 H 0.76941 0.13448 0.28747 0.0
H597 H 0.83073 0.16283 0.32777 0.0
H598 H 0.80854 0.1986 0.33857 0.0
H599 H 0.74715 0.17043 0.29819 0.0
C600 C 0.47764 0.1115 0.03015 0.0
C601 C 0.50124 0.12067 0.02696 0.0
C602 C 0.49391 0.15311 0.05573 0.0
C603 C 0.50933 0.14133 0.03971 0.0
C604 C 0.47028 0.14403 0.05869 0.0
C605 C 0.46223 0.12339 0.04601 0.0
U606 U 0.48043 0.06303 0.9798 0.0
O607 O 0.47353 0.02438 0.98148 0.0
O608 O 0.45057 0.04553 0.95904 0.0
C609 C 0.45413 0.02461 0.96799 0.0
C610 C 0.46871 0.0895 0.01745 0.0
C611 C 0.43248 1.01127 0.97657 0.0
C612 C 0.40951 0.9918 1.0081 0.0
C613 C 0.42925 1.00608 1.00089 0.0
C614 C 0.39553 0.98829 0.96699 0.0
C615 C 0.39264 0.98259 0.99115 0.0
C616 C 0.4153 1.00244 0.95977 0.0
C617 C 0.53148 0.06696 0.93266 0.0
C618 C 0.53342 0.04441 0.89476 0.0
C619 C 0.56762 0.06931 0.90814 0.0
C620 C 0.55503 0.07586 0.92887 0.0
C621 C 0.55685 0.05374 0.8908 0.0
C622 C 0.52079 0.05098 0.91558 0.0
C623 C 0.51836 0.07532 0.95415 0.0
O624 O 0.45975 0.09215 0.99594 0.0
O625 O 0.48241 0.071 0.01863 0.0
O626 O 0.51949 0.06205 0.97305 0.0
O627 O 0.49675 0.08327 0.95048 0.0
H628 H 0.51339 0.11179 0.01475 0.0
H629 H 0.52763 0.14809 0.0372 0.0
H630 H 0.45812 0.15287 0.07093 0.0
H631 H 0.44396 0.11662 0.04869 0.0
H632 H 0.40759 0.98761 0.02683 0.0
H633 H 0.44217 1.01269 0.01426 0.0
H634 H 0.38272 0.98137 0.95365 0.0
H635 H 0.41742 1.00614 0.94093 0.0
H636 H 0.52483 0.03235 0.88158 0.0
H637 H 0.58565 0.07668 0.90542 0.0
H638 H 0.56358 0.08819 0.94183 0.0
H639 H 0.50263 0.04388 0.9182 0.0
C640 C 0.22769 0.93338 0.02147 0.0
O641 O 0.23747 0.93604 1.00026 0.0
O642 O 0.25521 0.87826 0.99617 0.0
Zn643 Zn 0.26502 0.8991 0.02535 0.0
O644 O 0.29264 0.92187 0.01603 0.0
C645 C 0.26149 0.86074 0.05892 0.0
O646 O 0.24122 0.85602 0.04735 0.0
O647 O 0.23634 0.91854 0.03562 0.0
C648 C 0.31464 0.91792 0.02015 0.0
O649 O 0.3202 0.89841 0.03089 0.0
C650 C 0.26904 0.86308 0.98666 0.0
O651 O 0.29042 0.86031 0.99598 0.0
O652 O 0.27494 0.87832 0.05284 0.0
C653 C 0.18025 0.48607 0.28825 0.0
O654 O 0.18314 0.50384 0.30394 0.0
O655 O 0.12055 0.5179 0.2979 0.0
Zn656 Zn 0.14287 0.51546 0.26885 0.0
O657 O 0.16415 0.5456 0.26685 0.0
C658 C 0.1014 0.51581 0.23601 0.0
O659 O 0.09042 0.52581 0.25433 0.0
O660 O 0.16421 0.48701 0.27205 0.0
C661 C 0.17907 0.54852 0.24981 0.0
O662 O 0.18075 0.53183 0.23296 0.0
C663 C 0.11607 0.5379 0.30797 0.0
O664 O 0.12571 0.55748 0.29932 0.0
O665 O 0.1233 0.51028 0.23806 0.0
C666 C 0.8076 0.60832 0.01418 0.0
O667 O 0.79457 0.60008 0.99591 0.0
O668 O 0.78186 0.66787 0.98781 0.0
Zn669 Zn 0.77294 0.64632 0.01547 0.0
O670 O 0.74533 0.62353 1.00479 0.0
C671 C 0.77291 0.68554 0.05142 0.0
O672 O 0.792 0.69334 0.03981 0.0
O673 O 0.80197 0.62757 0.02505 0.0
C674 C 0.72917 0.61648 0.01938 0.0
O675 O 0.73034 0.62375 0.04196 0.0
C676 C 0.76708 0.68294 0.98072 0.0
O677 O 0.7461 0.6844 0.9914 0.0
O678 O 0.76205 0.66627 0.04437 0.0
C679 C 0.85392 0.06021 0.28564 0.0
O680 O 0.84321 0.03949 0.2895 0.0
O681 O 0.91663 0.02345 0.29448 0.0
Zn682 Zn 0.89339 0.03128 0.26784 0.0
O683 O 0.86961 1.00345 0.26152 0.0
C684 C 0.93227 0.02894 0.23232 0.0
O685 O 0.94183 1.01433 0.24722 0.0
O686 O 0.87514 0.06103 0.27705 0.0
C687 C 0.87662 0.98256 0.25673 0.0
O688 O 0.89974 0.97867 0.25566 0.0
C689 C 0.90973 0.02099 0.31603 0.0
O690 O 0.887 0.02375 0.3215 0.0
O691 O 0.91215 0.03799 0.23729 0.0
C692 C 0.30825 0.1092 0.51296 0.0
O693 O 0.29306 0.09933 0.49725 0.0
O694 O 0.27783 0.17075 0.49066 0.0
Zn695 Zn 0.27278 0.14667 0.51698 0.0
O696 O 0.24568 0.12255 0.50793 0.0
C697 C 0.25654 0.18556 0.54859 0.0
O698 O 0.25387 0.1966 0.52844 0.0
O699 O 0.30363 0.12914 0.52303 0.0
C700 C 0.22371 0.12818 0.50814 0.0
O701 O 0.21823 0.1501 0.51406 0.0
C702 C 0.27836 0.16531 0.46836 0.0
O703 O 0.27611 0.14287 0.46121 0.0
O704 O 0.2641 0.16444 0.54813 0.0
C705 C 0.35131 0.55716 0.78587 0.0
O706 O 0.34145 0.53624 0.79053 0.0
O707 O 0.41591 0.52454 0.7964 0.0
Zn708 Zn 0.3922 0.52949 0.76899 0.0
O709 O 0.36986 0.50022 0.76282 0.0
C710 C 0.43205 0.52915 0.73433 0.0
O711 O 0.44272 0.5163 0.75014 0.0
O712 O 0.37239 0.55847 0.77699 0.0
C713 C 0.37876 0.47998 0.75868 0.0
O714 O 0.40227 0.47836 0.75831 0.0
C715 C 0.41223 0.50947 0.81267 0.0
O716 O 0.39239 0.49612 0.81234 0.0
O717 O 0.41099 0.53641 0.73846 0.0
C718 C 0.7258 0.43525 0.52264 0.0
O719 O 0.73553 0.43731 0.50132 0.0
O720 O 0.75369 0.38002 0.49902 0.0
Zn721 Zn 0.76342 0.40143 0.52787 0.0
O722 O 0.79119 0.42426 0.51907 0.0
C723 C 0.76624 0.35945 0.55723 0.0
O724 O 0.75399 0.34916 0.5394 0.0
O725 O 0.73461 0.42099 0.53729 0.0
C726 C 0.81321 0.41952 0.52191 0.0
O727 O 0.81865 0.39915 0.53104 0.0
C728 C 0.76867 0.37117 0.4843 0.0
O729 O 0.79182 0.37566 0.48752 0.0
O730 O 0.77262 0.38137 0.55621 0.0
C731 C 0.67904 0.98529 0.78558 0.0
O732 O 0.68339 1.00347 0.80049 0.0
O733 O 0.6208 0.01952 0.79634 0.0
Zn734 Zn 0.64284 0.01614 0.76705 0.0
O735 O 0.667 0.04427 0.7651 0.0
C736 C 0.60066 1.01438 0.7346 0.0
O737 O 0.58853 0.02022 0.75396 0.0
O738 O 0.66227 0.98635 0.77014 0.0
C739 C 0.6628 0.06387 0.75538 0.0
O740 O 0.6415 0.06712 0.74614 0.0
C741 C 0.61435 0.03951 0.80501 0.0
O742 O 0.62159 0.05915 0.79469 0.0
O743 O 0.62334 1.01214 0.73596 0.0
C744 C 1.01451 0.22974 0.9266 0.0
O745 O 0.99249 0.2373 0.92859 0.0
O746 O 0.99359 0.2599 0.86994 0.0
Zn747 Zn 0.02097 0.26891 0.89336 0.0
O748 O 1.01065 0.29581 0.91617 0.0
C749 C 0.05255 0.27788 0.85202 0.0
O750 O 0.03406 0.26946 0.83935 0.0
O751 O 0.02937 0.24025 0.91277 0.0
C752 C 0.02011 0.31676 0.91574 0.0
O753 O 0.0373 0.3215 0.90029 0.0
C754 C 0.9781 0.27493 0.86439 0.0
O755 O 0.97958 0.29654 0.87401 0.0
O756 O 0.05105 0.27934 0.87479 0.0
C757 C 0.51438 0.73142 0.4271 0.0
O758 O 0.49355 0.74116 0.43088 0.0
O759 O 0.4942 0.76007 0.36769 0.0
Zn760 Zn 0.52142 0.76854 0.39153 0.0
O761 O 0.51162 0.79608 0.41378 0.0
C762 C 0.55211 0.78271 0.3511 0.0
O763 O 0.53171 0.78251 0.33922 0.0
O764 O 0.52865 0.73985 0.41141 0.0
C765 C 0.52391 0.81556 0.41618 0.0
O766 O 0.54414 0.81836 0.40426 0.0
C767 C 0.47676 0.77376 0.36473 0.0
O768 O 0.47585 0.79373 0.37748 0.0
O769 O 0.55206 0.77763 0.37317 0.0
C770 C 1.01539 0.82326 0.61803 0.0
O771 O 0.99598 0.82564 0.63117 0.0
O772 O 0.99335 0.78779 0.66667 0.0
Zn773 Zn 0.02018 0.77838 0.64345 0.0
O774 O 1.00988 0.74817 0.62445 0.0
C775 C 0.0514 0.75659 0.67811 0.0
O776 O 0.03222 0.74289 0.68179 0.0
O777 O 0.02788 0.8049 0.62011 0.0
C778 C 0.02445 0.73704 0.61099 0.0
O779 O 0.04681 0.74513 0.60915 0.0
C780 C 0.97776 0.77252 0.67396 0.0
O781 O 0.97881 0.75021 0.66652 0.0
O782 O 0.0506 0.77273 0.66268 0.0
C783 C 0.51425 0.31538 0.11137 0.0
O784 O 0.49156 0.30811 0.1123 0.0
O785 O 0.49475 0.2865 0.16868 0.0
Zn786 Zn 0.52181 0.27763 0.14561 0.0
O787 O 0.51153 0.24816 0.12542 0.0
C788 C 0.55268 0.25481 0.18007 0.0
O789 O 0.53354 0.24092 0.18329 0.0
O790 O 0.52986 0.3052 0.12377 0.0
C791 C 0.52578 0.23786 0.11094 0.0
O792 O 0.54795 0.24635 0.10863 0.0
C793 C 0.47988 0.27074 0.17636 0.0
O794 O 0.48186 0.24843 0.1692 0.0
O795 O 0.55192 0.2713 0.16501 0.0
C796 C 0.23196 0.82192 0.94388 0.0
C797 C 0.24675 0.82204 0.92315 0.0
C798 C 0.27504 0.85062 0.94339 0.0
C799 C 0.26133 0.84894 0.9648 0.0
N800 N 0.22914 0.82966 0.98674 0.0
N801 N 0.28417 0.8334 0.90416 0.0
C802 C 0.24038 0.83372 0.9654 0.0
C803 C 0.26885 0.83548 0.92321 0.0
N804 N 0.20958 0.81102 0.94284 0.0
N805 N 0.2933 0.86748 0.94192 0.0
H806 H 0.28008 0.82276 0.88894 0.0
H807 H 0.30169 0.84061 0.90422 0.0
H808 H 0.29809 0.87926 0.95607 0.0
H809 H 0.30227 0.8713 0.92605 0.0
H810 H 0.19686 0.81266 0.95643 0.0
H811 H 0.20294 0.80183 0.92756 0.0
H812 H 0.2154 0.8168 0.98879 0.0
H813 H 0.235 0.83759 1.00293 0.0
C814 C 0.08923 0.52949 0.37048 0.0
C815 C 0.07103 0.54654 0.37053 0.0
C816 C 0.07944 0.55408 0.3282 0.0
C817 C 0.09971 0.53944 0.32908 0.0
N818 N 0.12585 0.51547 0.35214 0.0
N819 N 0.05052 0.57728 0.35039 0.0
C820 C 0.10503 0.52753 0.35045 0.0
C821 C 0.06651 0.55937 0.3496 0.0
N822 N 0.0912 0.51495 0.3895 0.0
N823 N 0.07203 0.5623 0.30672 0.0
H824 H 0.04045 0.58155 0.36559 0.0
H825 H 0.04861 0.58914 0.33662 0.0
H826 H 0.08073 0.55846 0.29058 0.0
H827 H 0.05595 0.57092 0.3045 0.0
H828 H 0.10239 0.5005 0.3895 0.0
H829 H 0.08003 0.51604 0.40449 0.0
H830 H 0.13202 0.50872 0.36809 0.0
H831 H 0.13814 0.5139 0.33813 0.0
C832 C 0.75941 0.71474 0.92209 0.0
C833 C 0.78025 0.73009 0.92209 0.0
C834 C 0.79302 0.71426 0.96043 0.0
C835 C 0.77274 0.6981 0.95987 0.0
N836 N 0.73994 0.67907 0.93737 0.0
N837 N 0.81927 0.74127 0.93845 0.0
C838 C 0.75689 0.69721 0.93986 0.0
C839 C 0.79782 0.72881 0.9404 0.0
N840 N 0.74158 0.71746 0.90562 0.0
N841 N 0.80699 0.71668 0.98059 0.0
H842 H 0.82327 0.75223 0.92413 0.0
H843 H 0.83385 0.73917 0.94982 0.0
H844 H 0.8041 0.7065 0.99565 0.0
H845 H 0.82026 0.73006 0.98317 0.0
H846 H 0.72475 0.70876 0.90648 0.0
H847 H 0.74286 0.7298 0.89209 0.0
H848 H 0.7295 0.67605 0.922 0.0
H849 H 0.73797 0.66553 0.94965 0.0
C850 C 0.95674 0.98843 0.35124 0.0
C851 C 0.95808 1.0027 0.37267 0.0
C852 C 0.93069 0.03081 0.35523 0.0
C853 C 0.92715 1.01509 0.33501 0.0
N854 N 0.93407 0.97715 0.31528 0.0
N855 N 0.94407 0.03592 0.39651 0.0
C856 C 0.93957 0.99347 0.33332 0.0
C857 C 0.94449 0.02353 0.37504 0.0
N858 N 0.97223 0.9703 0.34783 0.0
N859 N 0.92154 0.05304 0.35516 0.0
H860 H 0.9541 0.03133 0.41135 0.0
H861 H 0.93237 0.0496 0.40021 0.0
H862 H 0.91165 0.05915 0.34085 0.0
H863 H 0.92563 0.06622 0.36821 0.0
H864 H 0.97392 0.96087 0.3316 0.0
H865 H 0.98499 0.96607 0.36059 0.0
H866 H 0.94052 0.95999 0.31462 0.0
H867 H 0.92134 0.97994 0.30203 0.0
C868 C 0.26302 0.22816 0.60303 0.0
C869 C 0.24021 0.22458 0.61407 0.0
C870 C 0.22973 0.19287 0.58413 0.0
C871 C 0.25148 0.19814 0.57176 0.0
N872 N 0.28804 0.22211 0.56788 0.0
N873 N 0.20041 0.20598 0.61345 0.0
C874 C 0.26789 0.2162 0.58076 0.0
C875 C 0.2232 0.20748 0.60424 0.0
N876 N 0.28033 0.24235 0.61431 0.0
N877 N 0.21533 0.17383 0.57672 0.0
H878 H 0.19487 0.21645 0.62803 0.0
H879 H 0.18638 0.19581 0.60549 0.0
H880 H 0.2191 0.16327 0.56161 0.0
H881 H 0.20067 0.16737 0.58649 0.0
H882 H 0.29813 0.24374 0.60858 0.0
H883 H 0.27744 0.2513 0.63065 0.0
H884 H 0.29917 0.237 0.57187 0.0
H885 H 0.29293 0.21291 0.55221 0.0
C886 C 0.46949 0.56472 0.68971 0.0
C887 C 0.4697 0.54845 0.66973 0.0
C888 C 0.44688 0.51879 0.69287 0.0
C889 C 0.44492 0.53579 0.71206 0.0
N890 N 0.45191 0.57575 0.72811 0.0
N891 N 0.45591 0.51132 0.65079 0.0
C892 C 0.45546 0.55903 0.71025 0.0
C893 C 0.45771 0.52578 0.67092 0.0
N894 N 0.48347 0.58523 0.68938 0.0
N895 N 0.43857 0.49587 0.69573 0.0
H896 H 0.46369 0.51579 0.63445 0.0
H897 H 0.44518 0.49577 0.64967 0.0
H898 H 0.42978 0.49032 0.7112 0.0
H899 H 0.44183 0.48197 0.68354 0.0
H900 H 0.48624 0.59662 0.70427 0.0
H901 H 0.49402 0.58997 0.67471 0.0
H902 H 0.45663 0.59372 0.72665 0.0
H903 H 0.44272 0.57199 0.74392 0.0
C904 C 0.7876 0.30821 0.59374 0.0
C905 C 0.77929 0.31472 0.617 0.0
C906 C 0.76326 0.35136 0.60144 0.0
C907 C 0.7724 0.34528 0.57835 0.0
N908 N 0.79802 0.32093 0.55379 0.0
N909 N 0.76388 0.34456 0.64419 0.0
C910 C 0.78601 0.32458 0.57489 0.0
C911 C 0.76862 0.33701 0.62121 0.0
N912 N 0.79615 0.286 0.58939 0.0
N913 N 0.74832 0.37002 0.60427 0.0
H914 H 0.76746 0.33441 0.65903 0.0
H915 H 0.75845 0.36164 0.64872 0.0
H916 H 0.74374 0.38088 0.5903 0.0
H917 H 0.73887 0.37362 0.62 0.0
H918 H 0.79978 0.27916 0.57227 0.0
H919 H 0.79796 0.27363 0.60275 0.0
H920 H 0.81018 0.30747 0.551 0.0
H921 H 0.79765 0.3328 0.53981 0.0
C922 C 0.55517 0.98692 0.6895 0.0
C923 C 0.56241 0.99826 0.6682 0.0
C924 C 0.59337 0.02184 0.69084 0.0
C925 C 0.58765 1.00883 0.71163 0.0
N926 N 0.56613 0.97583 0.72953 0.0
N927 N 0.59042 0.02412 0.64757 0.0
C928 C 0.56929 0.99056 0.71067 0.0
C929 C 0.58209 1.01508 0.66858 0.0
N930 N 0.53449 0.97299 0.68963 0.0
N931 N 0.60887 0.04125 0.69254 0.0
H932 H 0.58236 0.01994 0.63101 0.0
H933 H 0.60637 0.0343 0.64627 0.0
H934 H 0.61731 0.04687 0.70851 0.0
H935 H 0.61178 0.05299 0.67869 0.0
H936 H 0.52682 0.96638 0.7052 0.0
H937 H 0.52378 0.96975 0.67443 0.0
H938 H 0.55486 0.96062 0.72887 0.0
H939 H 0.57651 0.97738 0.74511 0.0
C940 C 0.94299 0.27409 0.80558 0.0
C941 C 0.92158 0.2614 0.81217 0.0
C942 C 0.9393 0.2538 0.85148 0.0
C943 C 0.95943 0.26889 0.84589 0.0
N944 N 0.98009 0.29476 0.81834 0.0
N945 N 0.89811 0.24091 0.84196 0.0
C946 C 0.96117 0.2794 0.82311 0.0
C947 C 0.91947 0.25151 0.83521 0.0
N948 N 0.94622 0.28042 0.7823 0.0
N949 N 0.93911 0.24174 0.87237 0.0
H950 H 0.88329 0.23877 0.83053 0.0
H951 H 0.8944 0.23573 0.85936 0.0
H952 H 0.95281 0.24372 0.88513 0.0
H953 H 0.9263 0.22848 0.87634 0.0
H954 H 0.96237 0.28745 0.77567 0.0
H955 H 0.93337 0.27669 0.76895 0.0
H956 H 0.98089 0.30534 0.80337 0.0
H957 H 0.99452 0.29802 0.83008 0.0
C958 C 0.50083 0.85168 0.47012 0.0
C959 C 0.49927 0.87448 0.46013 0.0
C960 C 0.51099 0.8578 0.42083 0.0
C961 C 0.5149 0.83559 0.43132 0.0
N962 N 0.5172 0.81231 0.46678 0.0
N963 N 0.50683 0.90028 0.42705 0.0
C964 C 0.51074 0.83273 0.45621 0.0
C965 C 0.5055 0.87783 0.43577 0.0
N966 N 0.49221 0.84795 0.49269 0.0
N967 N 0.51143 0.85953 0.39644 0.0
H968 H 0.50298 0.91543 0.43741 0.0
H969 H 0.51383 0.90413 0.41024 0.0
H970 H 0.51471 0.84515 0.38479 0.0
H971 H 0.50619 0.87456 0.38764 0.0
H972 H 0.49038 0.83117 0.49998 0.0
H973 H 0.48501 0.86141 0.50346 0.0
H974 H 0.51706 0.81018 0.48525 0.0
H975 H 0.52473 0.79815 0.4573 0.0
C976 C 0.11829 0.28218 0.83202 0.0
C977 C 0.11711 0.29965 0.81429 0.0
C978 C 0.07437 0.3048 0.82353 0.0
C979 C 0.075 0.28578 0.83963 0.0
N980 N 0.09652 0.25383 0.85659 0.0
N981 N 0.09348 0.32524 0.79054 0.0
C982 C 0.09671 0.27382 0.84326 0.0
C983 C 0.09497 0.31031 0.8093 0.0
N984 N 0.14013 0.274 0.83855 0.0
N985 N 0.0544 0.31824 0.82255 0.0
H986 H 0.10822 0.32987 0.77986 0.0
H987 H 0.0773 0.33149 0.78429 0.0
H988 H 0.03913 0.31502 0.83299 0.0
H989 H 0.05373 0.33387 0.81311 0.0
H990 H 0.14253 0.26331 0.8532 0.0
H991 H 0.15626 0.27943 0.83049 0.0
H992 H 0.11108 0.24279 0.85768 0.0
H993 H 0.08111 0.24708 0.86503 0.0
C994 C 0.53609 0.69484 0.4789 0.0
C995 C 0.53518 0.67159 0.46818 0.0
C996 C 0.5218 0.68774 0.43015 0.0
C997 C 0.52135 0.71078 0.44128 0.0
N998 N 0.52518 0.73614 0.47685 0.0
N999 N 0.52367 0.64509 0.43506 0.0
C1000 C 0.52753 0.71426 0.46589 0.0
C1001 C 0.5271 0.66782 0.44417 0.0
N1002 N 0.54611 0.6985 0.50117 0.0
N1003 N 0.51732 0.68492 0.40611 0.0
H1004 H 0.52736 0.6301 0.44477 0.0
H1005 H 0.5154 0.64089 0.41866 0.0
H1006 H 0.51203 0.69876 0.39552 0.0
H1007 H 0.52021 0.66925 0.39629 0.0
H1008 H 0.54988 0.71528 0.50896 0.0
H1009 H 0.55238 0.68474 0.51131 0.0
H1010 H 0.52655 0.73924 0.4953 0.0
H1011 H 0.52035 0.75112 0.46768 0.0
C1012 C 0.94388 0.77896 0.73313 0.0
C1013 C 0.92149 0.78705 0.72499 0.0
C1014 C 0.93802 0.79024 0.68427 0.0
C1015 C 0.95922 0.77931 0.69185 0.0
N1016 N 0.98202 0.76164 0.72298 0.0
N1017 N 0.89622 0.79865 0.69259 0.0
C1018 C 0.96209 0.77328 0.71618 0.0
C1019 C 0.91834 0.79246 0.70052 0.0
N1020 N 0.94791 0.77731 0.75719 0.0
N1021 N 0.93671 0.79848 0.66154 0.0
H1022 H 0.8815 0.80068 0.70397 0.0
H1023 H 0.8919 0.8002 0.67457 0.0
H1024 H 0.95049 0.79651 0.64902 0.0
H1025 H 0.92288 0.80882 0.65562 0.0
H1026 H 0.96463 0.77393 0.76451 0.0
H1027 H 0.93503 0.78143 0.77011 0.0
H1028 H 0.98389 0.75415 0.73967 0.0
H1029 H 0.99622 0.75813 0.71136 0.0
C1030 C 0.05326 0.87084 0.58616 0.0
C1031 C 0.03582 0.88007 0.57072 0.0
C1032 C 1.00636 0.84943 0.58355 0.0
C1033 C 0.02283 0.84221 0.60116 0.0
N1034 N 0.06073 0.84896 0.62193 0.0
N1035 N 0.99464 0.8804 0.55712 0.0
C1036 C 0.04602 0.85361 0.60313 0.0
C1037 C 1.01204 0.86994 0.57003 0.0
N1038 N 0.07688 0.87814 0.58425 0.0
N1039 N 0.98566 0.83615 0.57908 0.0
H1040 H 0.99806 0.89541 0.54699 0.0
H1041 H 0.97644 0.87543 0.55808 0.0
H1042 H 0.98115 0.82068 0.58814 0.0
H1043 H 0.97417 0.83911 0.56481 0.0
H1044 H 0.09078 0.87021 0.59322 0.0
H1045 H 0.0829 0.89062 0.57196 0.0
H1046 H 0.07667 0.85866 0.62573 0.0
H1047 H 0.05597 0.83699 0.63516 0.0
C1048 C 0.09254 0.74958 0.7319 0.0
C1049 C 0.11466 0.74448 0.72046 0.0
C1050 C 0.0953 0.74702 0.68105 0.0
C1051 C 0.07359 0.75357 0.69249 0.0
N1052 N 0.05313 0.7663 0.7285 0.0
N1053 N 0.13848 0.74302 0.6844 0.0
C1054 C 0.07267 0.75635 0.71786 0.0
C1055 C 0.11645 0.74464 0.69508 0.0
N1056 N 0.09021 0.74711 0.75609 0.0
N1057 N 0.09547 0.74192 0.65694 0.0
H1058 H 0.15434 0.7413 0.69411 0.0
H1059 H 0.14136 0.74553 0.6662 0.0
H1060 H 0.08036 0.74325 0.64606 0.0
H1061 H 0.10996 0.73443 0.64804 0.0
H1062 H 0.0738 0.74791 0.76503 0.0
H1063 H 0.10434 0.74233 0.76703 0.0
H1064 H 0.0524 0.77101 0.74668 0.0
H1065 H 0.03856 0.77208 0.71876 0.0
C1066 C 0.98952 0.6941 0.56815 0.0
C1067 C 1.00196 0.67282 0.57132 0.0
C1068 C 0.02744 0.69312 0.60221 0.0
C1069 C 0.0164 0.71489 0.59757 0.0
N1070 N 0.98966 0.73708 0.57344 0.0
N1071 N 0.03497 0.65265 0.58864 0.0
C1072 C 0.99811 0.71565 0.57985 0.0
C1073 C 0.02158 0.67251 0.58758 0.0
N1074 N 0.96913 0.69359 0.5544 0.0
N1075 N 0.04275 0.69188 0.62129 0.0
H1076 H 0.03102 0.63713 0.57845 0.0
H1077 H 0.05108 0.65216 0.59811 0.0
H1078 H 0.0472 0.70647 0.63265 0.0
H1079 H 0.04936 0.67601 0.6272 0.0
H1080 H 0.9577 0.70779 0.55358 0.0
H1081 H 0.96256 0.67828 0.54519 0.0
H1082 H 0.97832 0.73909 0.55885 0.0
H1083 H 0.99559 0.75326 0.58143 0.0
C1084 C 0.83744 0.93634 0.22195 0.0
C1085 C 0.8273 0.92315 0.241 0.0
C1086 C 0.84679 0.95118 0.27032 0.0
C1087 C 0.85886 0.96279 0.2513 0.0
N1088 N 0.86756 0.96556 0.20915 0.0
N1089 N 0.82412 0.91618 0.2833 0.0
C1090 C 0.85471 0.95511 0.22714 0.0
C1091 C 0.83232 0.93017 0.26522 0.0
N1092 N 0.82991 0.93139 0.19893 0.0
N1093 N 0.84912 0.96031 0.29324 0.0
H1094 H 0.81337 0.90078 0.28027 0.0
H1095 H 0.82932 0.91876 0.30113 0.0
H1096 H 0.86024 0.97511 0.29775 0.0
H1097 H 0.83878 0.95433 0.30754 0.0
H1098 H 0.83462 0.94187 0.18451 0.0
H1099 H 0.8172 0.91787 0.19446 0.0
H1100 H 0.86764 0.95892 0.19152 0.0
H1101 H 0.87942 0.98017 0.21208 0.0
C1102 C 0.82488 0.12011 0.27808 0.0
C1103 C 0.81497 0.12398 0.30126 0.0
C1104 C 0.83314 0.08757 0.3148 0.0
C1105 C 0.84107 0.0825 0.29106 0.0
N1106 N 0.84096 0.09184 0.24914 0.0
N1107 N 0.80621 0.10958 0.34067 0.0
C1108 C 0.83605 0.09824 0.27242 0.0
C1109 C 0.81813 0.10718 0.31935 0.0
N1110 N 0.82419 0.13761 0.26166 0.0
N1111 N 0.84078 0.07424 0.33321 0.0
H1112 H 0.79507 0.12369 0.34469 0.0
H1113 H 0.80567 0.09655 0.35353 0.0
H1114 H 0.85213 0.06001 0.33069 0.0
H1115 H 0.83777 0.07862 0.35121 0.0
H1116 H 0.83345 0.13695 0.24545 0.0
H1117 H 0.81598 0.15375 0.26507 0.0
H1118 H 0.83529 0.1013 0.23456 0.0
H1119 H 0.84884 0.07588 0.24417 0.0
C1120 C 0.3528 0.97511 1.01188 0.0
C1121 C 0.37243 0.96618 0.9985 0.0
C1122 C 0.3524 0.92651 0.99665 0.0
C1123 C 0.3341 0.93481 1.01222 0.0
N1124 N 0.3189 0.96621 0.03785 0.0
N1125 N 0.393 0.93251 0.98169 0.0
C1126 C 0.33478 0.95894 0.02066 0.0
C1127 C 0.37281 0.94162 0.99187 0.0
N1128 N 0.35102 0.99911 0.01565 0.0
N1129 N 0.34981 0.90454 0.98556 0.0
H1130 H 0.40841 0.94291 0.97804 0.0
H1131 H 0.39531 0.91434 0.97889 0.0
H1132 H 0.33483 0.89318 0.98804 0.0
H1133 H 0.36127 0.89856 0.97208 0.0
H1134 H 0.33584 1.00687 0.02297 0.0
H1135 H 0.36386 1.01147 1.00955 0.0
H1136 H 0.32018 0.98284 0.04659 0.0
H1137 H 0.30567 0.9549 0.04502 0.0
C1138 C 0.21419 0.43414 0.31263 0.0
C1139 C 0.22744 0.4268 0.29213 0.0
C1140 C 0.21057 0.45896 0.26932 0.0
C1141 C 0.19595 0.4652 0.28927 0.0
N1142 N 0.18025 0.45567 0.32825 0.0
N1143 N 0.23465 0.42904 0.24964 0.0
C1144 C 0.19676 0.45192 0.31049 0.0
C1145 C 0.22453 0.43827 0.27006 0.0
N1146 N 0.21881 0.42469 0.33436 0.0
N1147 N 0.21211 0.47343 0.25011 0.0
H1148 H 0.24494 0.41389 0.24943 0.0
H1149 H 0.23103 0.43506 0.23259 0.0
H1150 H 0.20251 0.48892 0.24892 0.0
H1151 H 0.22454 0.47128 0.23632 0.0
H1152 H 0.21174 0.43121 0.35044 0.0
H1153 H 0.2313 0.41154 0.33662 0.0
H1154 H 0.17828 0.44488 0.34299 0.0
H1155 H 0.16693 0.46818 0.32716 0.0
C1156 C 0.18349 0.08146 0.47474 0.0
C1157 C 0.16441 0.07865 0.49144 0.0
C1158 C 0.18663 0.10481 0.52046 0.0
C1159 C 0.20415 0.11003 0.50269 0.0
N1160 N 0.2179 0.10553 0.46185 0.0
N1161 N 0.14622 0.08986 0.52918 0.0
C1162 C 0.20234 0.0988 0.47957 0.0
C1163 C 0.16558 0.09086 0.51409 0.0
N1164 N 0.18381 0.0672 0.45445 0.0
N1165 N 0.19052 0.11251 0.54367 0.0
H1166 H 0.13056 0.0797 0.52529 0.0
H1167 H 0.14491 0.10055 0.54467 0.0
H1168 H 0.20603 0.1222 0.54911 0.0
H1169 H 0.17964 0.1073 0.5579 0.0
H1170 H 0.19842 0.06662 0.4428 0.0
H1171 H 0.17031 0.05435 0.45035 0.0
H1172 H 0.2158 0.10005 0.44395 0.0
H1173 H 0.23187 0.11818 0.46462 0.0
C1174 C 0.71151 0.10594 0.73046 0.0
C1175 C 0.71808 0.11969 0.75138 0.0
C1176 C 0.68991 0.09548 0.77529 0.0
C1177 C 0.68203 0.0829 0.75407 0.0
N1178 N 0.68336 0.0775 0.71102 0.0
N1179 N 0.71106 0.1303 0.79289 0.0
C1180 C 0.69218 0.08863 0.7315 0.0
C1181 C 0.70663 0.11516 0.7736 0.0
N1182 N 0.72445 0.10877 0.70983 0.0
N1183 N 0.68151 0.08855 0.79711 0.0
H1184 H 0.72311 0.14493 0.79234 0.0
H1185 H 0.70139 0.12965 0.80885 0.0
H1186 H 0.66839 0.07504 0.79911 0.0
H1187 H 0.68868 0.09503 0.81337 0.0
H1188 H 0.72247 0.09755 0.69471 0.0
H1189 H 0.73862 0.1213 0.70835 0.0
H1190 H 0.68779 0.0829 0.69385 0.0
H1191 H 0.67043 0.06359 0.71107 0.0
C1192 C 0.34995 0.07059 0.54812 0.0
C1193 C 0.37056 0.07056 0.53309 0.0
C1194 C 0.34976 0.09475 0.50412 0.0
C1195 C 0.3299 0.09628 0.52003 0.0
N1196 N 0.31178 0.08795 0.55827 0.0
N1197 N 0.39165 0.08497 0.49842 0.0
C1198 C 0.33025 0.08493 0.5424 0.0
C1199 C 0.37087 0.08323 0.51147 0.0
N1200 N 0.34885 0.05616 0.5674 0.0
N1201 N 0.34837 0.10419 0.4819 0.0
H1202 H 0.40733 0.0766 0.50312 0.0
H1203 H 0.394 0.09606 0.48397 0.0
H1204 H 0.33378 0.1138 0.47636 0.0
H1205 H 0.36093 0.10131 0.46838 0.0
H1206 H 0.3334 0.05326 0.57758 0.0
H1207 H 0.3629 0.04543 0.57216 0.0
H1208 H 0.31226 0.08264 0.57596 0.0
H1209 H 0.29642 0.0972 0.5543 0.0
C1210 C 0.66381 0.46212 0.51983 0.0
C1211 C 0.66408 0.4767 0.54106 0.0
C1212 C 0.70551 0.46546 0.54935 0.0
C1213 C 0.70444 0.44925 0.52929 0.0
N1214 N 0.68102 0.42895 0.49794 0.0
N1215 N 0.68354 0.48959 0.57808 0.0
C1216 C 0.68318 0.44675 0.51515 0.0
C1217 C 0.68448 0.47761 0.55642 0.0
N1218 N 0.64527 0.46336 0.50387 0.0
N1219 N 0.72689 0.4701 0.561 0.0
H1220 H 0.66863 0.49902 0.58372 0.0
H1221 H 0.69671 0.48864 0.59126 0.0
H1222 H 0.74278 0.46188 0.55619 0.0
H1223 H 0.72944 0.48362 0.57403 0.0
H1224 H 0.64533 0.45521 0.48685 0.0
H1225 H 0.63066 0.47421 0.50681 0.0
H1226 H 0.66505 0.42459 0.4888 0.0
H1227 H 0.69454 0.41696 0.4943 0.0
C1228 C 0.73393 0.34843 0.42851 0.0
C1229 C 0.74531 0.32664 0.42346 0.0
C1230 C 0.76943 0.33261 0.46016 0.0
C1231 C 0.76014 0.35567 0.46365 0.0
N1232 N 0.73662 0.38725 0.44856 0.0
N1233 N 0.77671 0.29975 0.43229 0.0
C1234 C 0.74314 0.36404 0.44717 0.0
C1235 C 0.76386 0.31921 0.43869 0.0
N1236 N 0.7139 0.35393 0.4159 0.0
N1237 N 0.7827 0.32302 0.47783 0.0
H1238 H 0.77324 0.28949 0.41669 0.0
H1239 H 0.79215 0.29503 0.44131 0.0
H1240 H 0.7865 0.3319 0.49416 0.0
H1241 H 0.78783 0.30539 0.47733 0.0
H1242 H 0.70331 0.36828 0.4205 0.0
H1243 H 0.70656 0.34293 0.40217 0.0
H1244 H 0.72628 0.39497 0.43553 0.0
H1245 H 0.74341 0.39952 0.46147 0.0
C1246 C 0.56396 0.05908 0.84664 0.0
C1247 C 0.57008 0.04799 0.8682 0.0
C1248 C 0.60529 0.03092 0.8484 0.0
C1249 C 0.59838 0.04092 0.82645 0.0
N1250 N 0.56802 0.05967 0.80344 0.0
N1251 N 0.59341 0.01942 0.88839 0.0
C1252 C 0.57678 0.05358 0.82522 0.0
C1253 C 0.58976 0.03263 0.86866 0.0
N1254 N 0.54654 0.07563 0.8468 0.0
N1255 N 0.62728 0.02102 0.85038 0.0
H1256 H 0.58243 0.02032 0.90353 0.0
H1257 H 0.60587 1.00605 0.8889 0.0
H1258 H 0.63946 0.01984 0.83624 0.0
H1259 H 0.63438 1.01585 0.8666 0.0
H1260 H 0.5433 0.08636 0.83236 0.0
H1261 H 0.53658 0.08007 0.86202 0.0
H1262 H 0.55112 0.06669 0.80117 0.0
H1263 H 0.57656 0.05551 0.78729 0.0
C1264 C 0.30196 0.21947 0.43465 0.0
C1265 C 0.28401 0.22096 0.41671 0.0
C1266 C 0.2616 0.187 0.43366 0.0
C1267 C 0.28046 0.18434 0.45044 0.0
N1268 N 0.32058 0.1953 0.46425 0.0
N1269 N 0.24902 0.2037 0.39632 0.0
C1270 C 0.30121 0.19984 0.45022 0.0
C1271 C 0.26451 0.20397 0.41538 0.0
N1272 N 0.31932 0.23721 0.43732 0.0
N1273 N 0.24039 0.17416 0.43589 0.0
H1274 H 0.25053 0.21588 0.38264 0.0
H1275 H 0.23604 0.1902 0.39295 0.0
H1276 H 0.23731 0.16193 0.4493 0.0
H1277 H 0.22506 0.17719 0.42587 0.0
H1278 H 0.33125 0.23858 0.45173 0.0
H1279 H 0.32065 0.25168 0.4261 0.0
H1280 H 0.33718 0.20438 0.46301 0.0
H1281 H 0.3208 0.18101 0.4757 0.0
C1282 C 0.4515 0.51984 0.86857 0.0
C1283 C 0.46164 0.49714 0.8702 0.0
C1284 C 0.44294 0.4845 0.83176 0.0
C1285 C 0.43058 0.50613 0.83155 0.0
N1286 N 0.42127 0.54378 0.85051 0.0
N1287 N 0.46569 0.45701 0.85464 0.0
C1288 C 0.43454 0.52377 0.85005 0.0
C1289 C 0.4571 0.47927 0.85207 0.0
N1290 N 0.45835 0.53769 0.88461 0.0
N1291 N 0.44168 0.46927 0.81217 0.0
H1292 H 0.47674 0.45267 0.86885 0.0
H1293 H 0.46063 0.4424 0.84363 0.0
H1294 H 0.43162 0.47264 0.79695 0.0
H1295 H 0.45222 0.45443 0.81004 0.0
H1296 H 0.45364 0.55531 0.88304 0.0
H1297 H 0.47038 0.53526 0.8986 0.0
H1298 H 0.4212 0.55603 0.86487 0.0
H1299 H 0.40894 0.54741 0.83713 0.0
C1300 C 0.75557 0.70187 0.11593 0.0
C1301 C 0.74863 0.72572 0.11347 0.0
C1302 C 0.75541 0.72235 0.07 0.0
C1303 C 0.76417 0.69918 0.07274 0.0
N1304 N 0.77608 0.66809 0.09856 0.0
N1305 N 0.74462 0.75989 0.08901 0.0
C1306 C 0.7651 0.6892 0.09577 0.0
C1307 C 0.74933 0.73632 0.09072 0.0
N1308 N 0.75263 0.69119 0.13746 0.0
N1309 N 0.75198 0.7306 0.04751 0.0
H1310 H 0.73947 0.7705 0.10367 0.0
H1311 H 0.74746 0.76942 0.07352 0.0
H1312 H 0.75608 0.72086 0.03192 0.0
H1313 H 0.74321 0.7462 0.04414 0.0
H1314 H 0.75467 0.67309 0.13977 0.0
H1315 H 0.74642 0.70011 0.15279 0.0
H1316 H 0.7798 0.66116 0.11518 0.0
H1317 H 0.78332 0.65831 0.08429 0.0
C1318 C 0.97199 0.06319 0.18854 0.0
C1319 C 0.97073 0.04762 0.16801 0.0
C1320 C 0.94564 0.01899 0.19027 0.0
C1321 C 0.94534 0.03541 0.21011 0.0
N1322 N 0.95582 0.07416 0.22759 0.0
N1323 N 0.95397 1.01224 0.14792 0.0
C1324 C 0.95777 0.05785 0.20905 0.0
C1325 C 0.95696 0.02587 0.16851 0.0
N1326 N 0.98748 0.08266 0.18871 0.0
N1327 N 0.93524 0.99673 0.19231 0.0
H1328 H 0.96213 0.01661 0.13173 0.0
H1329 H 0.94204 0.99759 0.14631 0.0
H1330 H 0.92586 0.99143 0.20754 0.0
H1331 H 0.93717 0.98299 0.1796 0.0
H1332 H 0.99128 0.09332 0.20392 0.0
H1333 H 0.99816 0.08714 0.17405 0.0
H1334 H 0.962 0.09181 0.22677 0.0
H1335 H 0.94656 0.07053 0.24338 0.0
C1336 C 0.27496 0.83794 0.12122 0.0
C1337 C 0.27707 0.81329 0.11573 0.0
C1338 C 0.27371 0.82092 0.07275 0.0
C1339 C 0.26872 0.84501 0.07843 0.0
N1340 N 0.26244 0.87633 0.10802 0.0
N1341 N 0.27663 0.78067 0.08664 0.0
C1342 C 0.26901 0.85358 0.10265 0.0
C1343 C 0.2761 0.80462 0.09156 0.0
N1344 N 0.27892 0.8464 0.14417 0.0
N1345 N 0.27684 0.8138 0.04932 0.0
H1346 H 0.27905 0.76823 0.09982 0.0
H1347 H 0.2731 0.77292 0.06976 0.0
H1348 H 0.27538 0.8253 0.03513 0.0
H1349 H 0.28298 0.79718 0.04403 0.0
H1350 H 0.28016 0.86443 0.14898 0.0
H1351 H 0.28294 0.83537 0.1582 0.0
H1352 H 0.25952 0.88284 0.1254 0.0
H1353 H 0.2582 0.88835 0.09495 0.0
C1354 C 0.05319 0.49055 0.1926 0.0
C1355 C 0.06218 0.49879 0.17045 0.0
C1356 C 0.09564 0.52017 0.19158 0.0
C1357 C 0.08794 0.51002 0.2134 0.0
N1358 N 0.06176 0.48228 0.23403 0.0
N1359 N 0.0935 0.51886 0.1481 0.0
C1360 C 0.06727 0.4944 0.21377 0.0
C1361 C 0.08384 0.51292 0.16972 0.0
N1362 N 0.03093 0.47944 0.19349 0.0
N1363 N 0.1136 0.53745 0.19187 0.0
H1364 H 0.08514 0.51429 0.13177 0.0
H1365 H 0.11061 0.52675 0.14621 0.0
H1366 H 0.12252 0.54339 0.20751 0.0
H1367 H 0.11829 0.54737 0.17703 0.0
H1368 H 0.02221 0.47537 0.20944 0.0
H1369 H 0.0202 0.47608 0.17832 0.0
H1370 H 0.04854 0.46871 0.23462 0.0
H1371 H 0.07187 0.48416 0.24976 0.0
C1372 C 0.4406 0.77684 0.30683 0.0
C1373 C 0.42099 0.76079 0.31154 0.0
C1374 C 0.44027 0.75021 0.34925 0.0
C1375 C 0.45835 0.76828 0.34582 0.0
N1376 N 0.47485 0.80036 0.32246 0.0
N1377 N 0.40062 0.73385 0.33819 0.0
C1378 C 0.45826 0.78204 0.32491 0.0
C1379 C 0.4205 0.74774 0.33294 0.0
N1380 N 0.44274 0.78653 0.28473 0.0
N1381 N 0.44196 0.73548 0.36816 0.0
H1382 H 0.38587 0.73155 0.32668 0.0
H1383 H 0.39787 0.72599 0.35464 0.0
H1384 H 0.45559 0.73739 0.381 0.0
H1385 H 0.43092 0.72034 0.37022 0.0
H1386 H 0.45788 0.79633 0.27922 0.0
H1387 H 0.43027 0.783 0.27098 0.0
H1388 H 0.47389 0.81291 0.3092 0.0
H1389 H 0.48884 0.80403 0.33461 0.0
C1390 C 0.99715 0.37696 0.93673 0.0
C1391 C 0.99587 0.37424 0.96191 0.0
C1392 C 1.01187 0.3342 0.95707 0.0
C1393 C 1.0111 0.33616 0.93175 0.0
N1394 N 0.99823 0.35749 0.89744 0.0
N1395 N 0.99815 0.34897 0.99586 0.0
C1396 C 1.00243 0.35703 0.92156 0.0
C1397 C 1.00212 0.35246 0.97204 0.0
N1398 N 0.99407 0.39879 0.92733 0.0
N1399 N 0.02286 0.31544 0.96688 0.0
H1400 H 0.99119 0.36196 1.00739 0.0
H1401 H 0.99984 0.3326 1.00378 0.0
H1402 H 0.03046 0.30186 0.95659 0.0
H1403 H 0.02633 0.31438 0.98514 0.0
H1404 H 0.99742 0.40245 0.90943 0.0
H1405 H 0.99027 0.41387 0.93781 0.0
H1406 H 0.98948 0.37121 0.88935 0.0
H1407 H 1.00127 0.34309 0.88573 0.0
C1408 C 0.61566 0.77907 0.32534 0.0
C1409 C 0.61764 0.80079 0.31308 0.0
C1410 C 0.57801 0.8118 0.32841 0.0
C1411 C 0.57502 0.78911 0.33869 0.0
N1412 N 0.58931 0.74958 0.34375 0.0
N1413 N 0.59931 0.83625 0.29971 0.0
C1414 C 0.59343 0.77232 0.33637 0.0
C1415 C 0.5984 0.81672 0.31371 0.0
N1416 N 0.63523 0.76518 0.327 0.0
N1417 N 0.56184 0.829 0.33349 0.0
H1418 H 0.61395 0.84049 0.28876 0.0
H1419 H 0.58477 0.8471 0.29736 0.0
H1420 H 0.54692 0.82624 0.34453 0.0
H1421 H 0.56439 0.84665 0.32866 0.0
H1422 H 0.63577 0.75054 0.33793 0.0
H1423 H 0.65172 0.76941 0.31897 0.0
H1424 H 0.60095 0.73584 0.34011 0.0
H1425 H 0.57325 0.74386 0.35173 0.0
C1426 C 1.01571 0.16752 0.95208 0.0
C1427 C 0.03633 0.16984 0.96708 0.0
C1428 C 0.04123 0.21204 0.95733 0.0
C1429 C 0.02202 0.20912 0.94056 0.0
N1430 N 0.99341 0.18314 0.91906 0.0
N1431 N 0.07089 0.19316 0.98155 0.0
C1432 C 1.00983 0.18661 0.93721 0.0
C1433 C 0.04971 0.1918 0.96902 0.0
N1434 N 1.00143 0.14722 0.95243 0.0
N1435 N 0.05068 0.23432 0.96289 0.0
H1436 H 0.07746 0.17888 0.99071 0.0
H1437 H 0.08287 0.20782 0.98133 0.0
H1438 H 0.04472 0.24963 0.95506 0.0
H1439 H 0.06287 0.23793 0.97682 0.0
H1440 H 0.98472 0.14544 0.94398 0.0
H1441 H 1.00533 0.13277 0.96285 0.0
H1442 H 0.98586 0.16652 0.91403 0.0
H1443 H 0.98889 0.19651 0.90753 0.0
C1444 C 0.42495 0.29844 0.206 0.0
C1445 C 0.42341 0.2854 0.22734 0.0
C1446 C 0.46108 0.26609 0.21692 0.0
C1447 C 0.46115 0.27702 0.19432 0.0
N1448 N 0.44159 0.30143 0.16595 0.0
N1449 N 0.43804 0.25431 0.25171 0.0
C1450 C 0.44275 0.29278 0.18852 0.0
C1451 C 0.44098 0.26857 0.23245 0.0
N1452 N 0.40967 0.31655 0.20266 0.0
N1453 N 0.48067 0.25403 0.22394 0.0
H1454 H 0.42369 0.25563 0.26366 0.0
H1455 H 0.4487 0.23986 0.25476 0.0
H1456 H 0.4959 0.25216 0.21325 0.0
H1457 H 0.48284 0.2479 0.24119 0.0
H1458 H 0.41147 0.32841 0.18877 0.0
H1459 H 0.39629 0.32097 0.21496 0.0
H1460 H 0.42714 0.3108 0.15976 0.0
H1461 H 0.45418 0.29766 0.15264 0.0
C1462 C 0.53027 0.35173 0.05649 0.0
C1463 C 0.53558 0.37446 0.06742 0.0
C1464 C 0.52828 0.35809 0.10723 0.0
C1465 C 0.52156 0.33572 0.09622 0.0
N1466 N 0.51328 0.31164 0.06044 0.0
N1467 N 0.53606 0.40046 0.10257 0.0
C1468 C 0.5216 0.3327 0.07084 0.0
C1469 C 0.53364 0.37795 0.09265 0.0
N1470 N 0.53445 0.3481 0.03252 0.0
N1471 N 0.52967 0.36034 0.13168 0.0
H1472 H 0.53997 0.41542 0.09249 0.0
H1473 H 0.53231 0.40471 0.12044 0.0
H1474 H 0.52453 0.34669 0.14303 0.0
H1475 H 0.53728 0.37521 0.14077 0.0
H1476 H 0.53359 0.33143 0.02387 0.0
H1477 H 0.54056 0.36163 0.02144 0.0
H1478 H 0.51014 0.30915 0.04213 0.0
H1479 H 0.50803 0.29689 0.0703 0.0
C1480 C 0.61797 0.2441 0.19709 0.0
C1481 C 0.61601 0.24281 0.22239 0.0
C1482 C 0.57356 0.2532 0.21995 0.0
C1483 C 0.57479 0.25161 0.19452 0.0
N1484 N 0.59734 0.24208 0.15876 0.0
N1485 N 0.59116 0.24285 0.25781 0.0
C1486 C 0.59682 0.24626 0.18302 0.0
C1487 C 0.59358 0.24652 0.23382 0.0
N1488 N 0.64016 0.24378 0.18654 0.0
N1489 N 0.55358 0.26197 0.23086 0.0
H1490 H 0.60539 0.23808 0.26863 0.0
H1491 H 0.57463 0.24262 0.26661 0.0
H1492 H 0.53883 0.26766 0.22132 0.0
H1493 H 0.55257 0.26584 0.2492 0.0
H1494 H 0.64305 0.24719 0.16851 0.0
H1495 H 0.65603 0.24225 0.19626 0.0
H1496 H 0.6122 0.23551 0.14971 0.0
H1497 H 0.58222 0.24314 0.14784 0.0
C1498 C 0.50796 0.17319 0.09449 0.0
C1499 C 0.50249 0.17483 0.06974 0.0
C1500 C 0.51378 0.21754 0.07169 0.0
C1501 C 0.51752 0.21623 0.0968 0.0
N1502 N 0.51581 0.19364 0.13282 0.0
N1503 N 0.49688 0.19883 0.03532 0.0
C1504 C 0.51381 0.19429 0.10842 0.0
C1505 C 0.50459 0.19708 0.05845 0.0
N1506 N 0.50846 0.1513 0.10445 0.0
N1507 N 0.51911 0.23835 0.06048 0.0
H1508 H 0.49021 0.18425 0.02502 0.0
H1509 H 0.49534 0.21491 0.02682 0.0
H1510 H 0.52455 0.25405 0.06969 0.0
H1511 H 0.51958 0.23979 0.04194 0.0
H1512 H 0.51482 0.14853 0.12164 0.0
H1513 H 0.5043 0.13548 0.09483 0.0
H1514 H 0.5105 0.17896 0.1427 0.0
H1515 H 0.52139 0.20834 0.14352 0.0
C1516 C 0.35606 0.42081 0.73083 0.0
C1517 C 0.33615 0.41486 0.7457 0.0
C1518 C 0.34698 0.44965 0.77174 0.0
C1519 C 0.36319 0.45818 0.75397 0.0
N1520 N 0.38153 0.4522 0.71506 0.0
N1521 N 0.32993 0.41384 0.78831 0.0
C1522 C 0.36742 0.44376 0.73317 0.0
C1523 C 0.3359 0.42654 0.76864 0.0
N1524 N 0.36643 0.40349 0.71713 0.0
N1525 N 0.34238 0.46314 0.79186 0.0
H1526 H 0.3278 0.39532 0.78725 0.0
H1527 H 0.33138 0.42083 0.8058 0.0
H1528 H 0.35065 0.47974 0.79556 0.0
H1529 H 0.32888 0.45842 0.80397 0.0
H1530 H 0.38237 0.40635 0.70763 0.0
H1531 H 0.36088 0.38561 0.71815 0.0
H1532 H 0.38329 0.44301 0.69867 0.0
H1533 H 0.38935 0.46935 0.71545 0.0
C1534 C 0.30058 0.60116 0.78651 0.0
C1535 C 0.31105 0.62035 0.80052 0.0
C1536 C 0.34732 0.59747 0.80627 0.0
C1537 C 0.33768 0.57913 0.79061 0.0
N1538 N 0.30723 0.56574 0.76191 0.0
N1539 N 0.3461 0.63876 0.81989 0.0
C1540 C 0.31486 0.58158 0.77964 0.0
C1541 C 0.33495 0.61908 0.80926 0.0
N1542 N 0.27676 0.60126 0.78042 0.0
N1543 N 0.36771 0.59385 0.81918 0.0
H1544 H 0.33769 0.65494 0.8223 0.0
H1545 H 0.36432 0.63972 0.8243 0.0
H1546 H 0.37707 0.57813 0.8179 0.0
H1547 H 0.37409 0.60551 0.83279 0.0
H1548 H 0.26746 0.58661 0.77255 0.0
H1549 H 0.26571 0.61527 0.78507 0.0
H1550 H 0.29198 0.56804 0.7515 0.0
H1551 H 0.31737 0.55148 0.75595 0.0
C1552 C 0.87139 0.45763 0.52489 0.0
C1553 C 0.87202 0.46721 0.50166 0.0
C1554 C 0.83427 0.44514 0.49134 0.0
C1555 C 0.83278 0.43683 0.51512 0.0
N1556 N 0.84704 0.43972 0.55599 0.0
N1557 N 0.85169 0.47418 0.46453 0.0
C1558 C 0.85054 0.44439 0.53233 0.0
C1559 C 0.85269 0.46222 0.48543 0.0
N1560 N 0.89105 0.46041 0.53956 0.0
N1561 N 0.81895 0.43581 0.47403 0.0
H1562 H 0.86483 0.48682 0.45963 0.0
H1563 H 0.83679 0.47321 0.45316 0.0
H1564 H 0.8055 0.42295 0.47736 0.0
H1565 H 0.82093 0.4392 0.45588 0.0
H1566 H 0.8927 0.45153 0.55555 0.0
H1567 H 0.90663 0.47006 0.53486 0.0
H1568 H 0.85812 0.44686 0.56967 0.0
H1569 H 0.8317 0.4307 0.56228 0.0
C1570 C 0.72145 0.93623 0.76622 0.0
C1571 C 0.72589 0.92572 0.78851 0.0
C1572 C 0.69647 0.95164 0.80783 0.0
C1573 C 0.69435 0.96412 0.78623 0.0
N1574 N 0.70809 0.97076 0.74583 0.0
N1575 N 0.72009 0.92539 0.83132 0.0
C1576 C 0.7076 0.957 0.76561 0.0
C1577 C 0.71401 0.93391 0.80955 0.0
N1578 N 0.73004 0.92606 0.74551 0.0
N1579 N 0.68115 0.95616 0.82645 0.0
H1580 H 0.73275 0.91236 0.83332 0.0
H1581 H 0.71406 0.93259 0.84756 0.0
H1582 H 0.66779 0.96867 0.8257 0.0
H1583 H 0.68013 0.94598 0.8417 0.0
H1584 H 0.72525 0.93141 0.72851 0.0
H1585 H 0.74017 0.9108 0.74522 0.0
H1586 H 0.71956 0.96788 0.73135 0.0
H1587 H 0.69876 0.98643 0.74475 0.0
C1588 C 0.6918 0.56377 0.99254 0.0
C1589 C 0.66814 0.57195 0.99595 0.0
C1590 C 0.68476 0.61015 1.01226 0.0
C1591 C 0.7083 0.60123 1.01081 0.0
N1592 N 0.73414 0.56835 1.00307 0.0
N1593 N 0.64174 0.60128 1.01256 0.0
C1594 C 0.71183 0.57771 1.00183 0.0
C1595 C 0.66453 0.59469 1.00683 0.0
N1596 N 0.69517 0.54296 0.97986 0.0
N1597 N 0.68177 0.63371 0.01786 0.0
H1598 H 0.62645 0.59051 1.00875 0.0
H1599 H 0.63811 0.61646 0.02289 0.0
H1600 H 0.69614 0.64571 0.02159 0.0
H1601 H 0.66532 0.64187 0.01664 0.0
H1602 H 0.71201 0.53733 0.97443 0.0
H1603 H 0.68094 0.53212 0.97313 0.0
H1604 H 0.73739 0.55051 0.99928 0.0
H1605 H 0.74918 0.57796 1.00985 0.0
C1606 C 0.23596 0.58832 0.2469 0.0
C1607 C 0.22617 0.61128 0.24767 0.0
C1608 C 0.1853 0.59306 0.24784 0.0
C1609 C 0.19519 0.57022 0.24937 0.0
N1610 N 0.2299 0.54644 0.25493 0.0
N1611 N 0.19177 0.63588 0.25238 0.0
C1612 C 0.22053 0.56792 0.25008 0.0
C1613 C 0.20088 0.61377 0.24911 0.0
N1614 N 0.25998 0.58594 0.24253 0.0
N1615 N 0.16112 0.59494 0.24421 0.0
H1616 H 0.20258 0.65144 0.25308 0.0
H1617 H 0.17376 0.63871 0.25627 0.0
H1618 H 0.14916 0.58023 0.24298 0.0
H1619 H 0.15318 0.61086 0.24034 0.0
H1620 H 0.26771 0.56959 0.23915 0.0
H1621 H 0.27187 0.60045 0.24014 0.0
H1622 H 0.24811 0.54422 0.25823 0.0
H1623 H 0.21924 0.53121 0.25798 0.0
C1624 C 0.8703 0.58269 0.01586 0.0
C1625 C 0.86851 0.5689 0.03671 0.0
C1626 C 0.8275 0.58256 0.04385 0.0
C1627 C 0.8287 0.59505 0.02212 0.0
N1628 N 0.84996 0.60515 0.98596 0.0
N1629 N 0.8446 0.55279 0.06876 0.0
C1630 C 0.84971 0.59448 1.00765 0.0
C1631 C 0.84689 0.5681 0.05027 0.0
N1632 N 0.89198 0.58525 1.00446 0.0
N1633 N 0.80783 0.58459 0.0584 0.0
H1634 H 0.8584 0.54199 0.074 0.0
H1635 H 0.82852 0.54932 0.07776 0.0
H1636 H 0.7927 0.59385 0.05373 0.0
H1637 H 0.80702 0.57837 0.07576 0.0
H1638 H 0.89531 0.59714 0.99084 0.0
H1639 H 0.90736 0.57674 1.00981 0.0
H1640 H 0.86344 0.60294 0.97323 0.0
H1641 H 0.83588 0.6152 0.97996 0.0
C1642 C 0.16594 0.96072 0.01896 0.0
C1643 C 0.16615 0.97488 0.04046 0.0
C1644 C 0.20736 0.963 0.04889 0.0
C1645 C 0.20633 0.94725 0.02846 0.0
N1646 N 0.18297 0.92775 0.99659 0.0
N1647 N 0.18535 0.98678 0.0779 0.0
C1648 C 0.18517 0.94523 0.01414 0.0
C1649 C 0.18639 0.97523 0.05602 0.0
N1650 N 0.1476 0.9625 1.00285 0.0
N1651 N 0.22865 0.96712 0.06085 0.0
H1652 H 0.17048 0.99624 0.08359 0.0
H1653 H 0.19837 0.98542 0.09117 0.0
H1654 H 0.24447 0.95878 0.05604 0.0
H1655 H 0.23121 0.98032 0.0742 0.0
H1656 H 0.14776 0.9547 0.98568 0.0
H1657 H 0.1331 0.97346 1.00586 0.0
H1658 H 0.16704 0.92374 0.98727 0.0
H1659 H 0.19637 0.91567 0.99288 0.0
loop_
_geom_bond_atom_site_label_1
_geom_bond_atom_site_label_2
_geom_bond_distance
_geom_bond_site_symmetry_2
_ccdc_geom_bond_type
C0 C1 1.264 . S
C0 C5 1.479 . S
C0 C10 1.465 . S
C1 C0 1.264 . S
C1 C3 1.339 . S
C1 H28 0.955 . S
C2 C3 1.395 . S
C2 C4 1.320 . S
C3 C1 1.339 . S
C3 C2 1.395 . S
C3 H29 0.929 1_545 S
C4 C2 1.320 . S
C4 C5 1.405 . S
C4 H30 0.930 . S
C5 C0 1.479 . S
C5 C4 1.405 . S
C5 H31 0.931 . S
U6 O7 2.454 . S
U6 O8 2.458 . S
U6 C9 2.984 . S
U6 C10 2.847 1_455 S
U6 C23 2.882 . S
U6 O24 2.441 1_455 S
U6 O25 2.420 . S
U6 O26 2.455 . S
U6 O27 2.449 . S
O7 U6 2.454 . S
O7 C9 1.353 . S
O8 U6 2.458 . S
O8 C9 1.286 . S
C9 U6 2.984 . S
C9 O7 1.353 . S
C9 O8 1.286 . S
C9 C11 1.363 1_554 S
C10 C0 1.465 . S
C10 U6 2.847 1_655 S
C10 O24 1.249 . S
C10 O25 1.202 1_655 S
C11 C9 1.363 1_556 S
C11 C13 1.414 . S
C11 C16 1.342 . S
C12 C13 1.341 . S
C12 C15 1.461 . S
C12 H32 0.932 1_455 S
C13 C11 1.414 . S
C13 C12 1.341 . S
C13 H33 0.895 1_456 S
C14 C15 1.474 . S
C14 C16 1.285 . S
C14 H34 0.929 . S
C15 C12 1.461 . S
C15 C14 1.474 . S
C16 C11 1.342 . S
C16 C14 1.285 . S
C16 H35 0.930 . S
C17 C20 1.424 . S
C17 C22 1.245 . S
C17 C23 1.428 1_565 S
C18 C21 1.260 . S
C18 C22 1.477 . S
C18 H36 0.952 . S
C19 C20 1.384 . S
C19 C21 1.479 . S
C19 H37 0.929 . S
C20 C17 1.424 . S
C20 C19 1.384 . S
C20 H38 0.928 . S
C21 C18 1.260 . S
C21 C19 1.479 . S
C22 C17 1.245 . S
C22 C18 1.477 . S
C22 H39 0.932 1_565 S
C23 U6 2.882 . S
C23 C17 1.428 1_545 S
C23 O26 1.301 . S
C23 O27 1.282 . S
O24 U6 2.441 1_655 S
O24 C10 1.249 . S
O25 U6 2.420 . S
O25 C10 1.202 1_455 S
O26 U6 2.455 . S
O26 C23 1.301 . S
O27 U6 2.449 . S
O27 C23 1.282 . S
H28 C1 0.955 . S
H29 C3 0.929 1_565 S
H30 C4 0.930 . S
H31 C5 0.931 . S
H32 C12 0.932 1_655 S
H33 C13 0.895 1_654 S
H34 C14 0.929 . S
H35 C16 0.930 . S
H36 C18 0.952 . S
H37 C19 0.929 . S
H38 C20 0.928 . S
H39 C22 0.932 1_545 S
C40 C41 1.264 . S
C40 C45 1.479 . S
C40 C50 1.465 . S
C41 C40 1.264 . S
C41 C43 1.339 . S
C41 H68 0.931 . S
C42 C43 1.395 . S
C42 C44 1.320 . S
C43 C41 1.339 . S
C43 C42 1.395 . S
C43 H69 0.929 . S
C44 C42 1.320 . S
C44 C45 1.405 . S
C44 H70 0.930 . S
C45 C40 1.479 . S
C45 C44 1.405 . S
C45 H71 0.931 . S
U46 O47 2.454 . S
U46 O48 2.458 . S
U46 C49 2.984 . S
U46 C50 2.847 . S
U46 C63 2.882 . S
U46 O64 2.441 . S
U46 O65 2.420 . S
U46 O66 2.455 . S
U46 O67 2.449 . S
O47 U46 2.454 . S
O47 C49 1.353 . S
O48 U46 2.458 . S
O48 C49 1.286 . S
C49 U46 2.984 . S
C49 O47 1.353 . S
C49 O48 1.286 . S
C49 C51 1.363 . S
C50 C40 1.465 . S
C50 U46 2.847 . S
C50 O64 1.249 . S
C50 O65 1.202 . S
C51 C49 1.363 . S
C51 C53 1.408 . S
C51 C56 1.342 . S
C52 C53 1.310 . S
C52 C55 1.461 . S
C52 H72 0.932 . S
C53 C51 1.408 . S
C53 C52 1.310 . S
C53 H73 0.930 . S
C54 C55 1.474 . S
C54 C56 1.285 . S
C54 H74 0.929 . S
C55 C52 1.461 . S
C55 C54 1.474 . S
C56 C51 1.342 . S
C56 C54 1.285 . S
C56 H75 0.930 . S
C57 C60 1.424 . S
C57 C62 1.245 . S
C57 C63 1.428 . S
C58 C61 1.260 . S
C58 C62 1.477 . S
C58 H76 0.932 . S
C59 C60 1.384 . S
C59 C61 1.479 . S
C59 H77 0.929 . S
C60 C57 1.424 . S
C60 C59 1.384 . S
C60 H78 0.928 . S
C61 C58 1.260 . S
C61 C59 1.479 . S
C62 C57 1.245 . S
C62 C58 1.477 . S
C62 H79 0.932 . S
C63 U46 2.882 . S
C63 C57 1.428 . S
C63 O66 1.301 . S
C63 O67 1.282 . S
O64 U46 2.441 . S
O64 C50 1.249 . S
O65 U46 2.420 . S
O65 C50 1.202 . S
O66 U46 2.455 . S
O66 C63 1.301 . S
O67 U46 2.449 . S
O67 C63 1.282 . S
H68 C41 0.931 . S
H69 C43 0.929 . S
H70 C44 0.930 . S
H71 C45 0.931 . S
H72 C52 0.932 . S
H73 C53 0.930 . S
H74 C54 0.929 . S
H75 C56 0.930 . S
H76 C58 0.932 . S
H77 C59 0.929 . S
H78 C60 0.928 . S
H79 C62 0.932 . S
C80 C81 1.264 1_655 S
C80 C85 1.479 . S
C80 C90 1.465 . S
C81 C80 1.264 1_455 S
C81 C83 1.339 . S
C81 H108 0.938 . S
C82 C83 1.395 1_655 S
C82 C84 1.320 . S
C83 C81 1.339 . S
C83 C82 1.395 1_455 S
C83 H109 0.929 . S
C84 C82 1.320 . S
C84 C85 1.405 . S
C84 H110 0.930 . S
C85 C80 1.479 . S
C85 C84 1.405 . S
C85 H111 0.931 . S
U86 O87 2.454 . S
U86 O88 2.458 . S
U86 C89 2.984 . S
U86 C90 2.847 1_554 S
U86 C103 2.882 1_655 S
U86 O104 2.441 1_554 S
U86 O105 2.420 . S
U86 O106 2.455 . S
U86 O107 2.449 1_655 S
O87 U86 2.454 . S
O87 C89 1.353 . S
O88 U86 2.458 . S
O88 C89 1.286 . S
C89 U86 2.984 . S
C89 O87 1.353 . S
C89 O88 1.286 . S
C89 C91 1.363 . S
C90 C80 1.465 . S
C90 U86 2.847 1_556 S
C90 O104 1.249 . S
C90 O105 1.202 1_556 S
C91 C89 1.363 . S
C91 C93 1.408 . S
C91 C96 1.342 . S
C92 C93 1.310 . S
C92 C95 1.461 . S
C92 H112 0.932 1_554 S
C93 C91 1.408 . S
C93 C92 1.310 . S
C93 H113 0.930 1_554 S
C94 C95 1.474 . S
C94 C96 1.285 . S
C94 H114 0.929 . S
C95 C92 1.461 . S
C95 C94 1.474 . S
C96 C91 1.342 . S
C96 C94 1.285 . S
C96 H115 0.930 . S
C97 C100 1.424 . S
C97 C102 1.245 . S
C97 C103 1.428 . S
C98 C101 1.260 . S
C98 C102 1.477 . S
C98 H116 0.932 . S
C99 C100 1.384 . S
C99 C101 1.479 . S
C99 H117 0.929 . S
C100 C97 1.424 . S
C100 C99 1.384 . S
C100 H118 0.928 . S
C101 C98 1.260 . S
C101 C99 1.479 . S
C102 C97 1.245 . S
C102 C98 1.477 . S
C102 H119 0.932 . S
C103 U86 2.882 1_455 S
C103 C97 1.428 . S
C103 O106 1.301 1_455 S
C103 O107 1.282 . S
O104 U86 2.441 1_556 S
O104 C90 1.249 . S
O105 U86 2.420 . S
O105 C90 1.202 1_554 S
O106 U86 2.455 . S
O106 C103 1.301 1_655 S
O107 U86 2.449 1_455 S
O107 C103 1.282 . S
H108 C81 0.938 . S
H109 C83 0.929 . S
H110 C84 0.930 . S
H111 C85 0.931 . S
H112 C92 0.932 1_556 S
H113 C93 0.930 1_556 S
H114 C94 0.929 . S
H115 C96 0.930 . S
H116 C98 0.932 . S
H117 C99 0.929 . S
H118 C100 0.928 . S
H119 C102 0.932 . S
C120 C121 1.264 . S
C120 C125 1.479 . S
C120 C130 1.465 . S
C121 C120 1.264 . S
C121 C123 1.339 . S
C121 H148 0.931 . S
C122 C123 1.395 . S
C122 C124 1.320 . S
C123 C121 1.339 . S
C123 C122 1.395 . S
C123 H149 0.929 . S
C124 C122 1.320 . S
C124 C125 1.405 . S
C124 H150 0.930 . S
C125 C120 1.479 . S
C125 C124 1.405 . S
C125 H151 0.931 . S
U126 O127 2.454 . S
U126 O128 2.458 . S
U126 C129 2.984 . S
U126 C130 2.847 . S
U126 C143 2.882 . S
U126 O144 2.441 . S
U126 O145 2.420 . S
U126 O146 2.455 . S
U126 O147 2.449 . S
O127 U126 2.454 . S
O127 C129 1.353 . S
O128 U126 2.458 . S
O128 C129 1.286 . S
C129 U126 2.984 . S
C129 O127 1.353 . S
C129 O128 1.286 . S
C129 C131 1.363 . S
C130 C120 1.465 . S
C130 U126 2.847 . S
C130 O144 1.249 . S
C130 O145 1.202 . S
C131 C129 1.363 . S
C131 C133 1.408 . S
C131 C136 1.342 . S
C132 C133 1.310 . S
C132 C135 1.461 . S
C132 H152 0.932 . S
C133 C131 1.408 . S
C133 C132 1.310 . S
C133 H153 0.930 . S
C134 C135 1.474 . S
C134 C136 1.285 . S
C134 H154 0.929 . S
C135 C132 1.461 . S
C135 C134 1.474 . S
C136 C131 1.342 . S
C136 C134 1.285 . S
C136 H155 0.930 . S
C137 C140 1.424 . S
C137 C142 1.245 . S
C137 C143 1.428 . S
C138 C141 1.260 . S
C138 C142 1.477 . S
C138 H156 0.932 . S
C139 C140 1.384 . S
C139 C141 1.479 . S
C139 H157 0.929 . S
C140 C137 1.424 . S
C140 C139 1.384 . S
C140 H158 0.928 . S
C141 C138 1.260 . S
C141 C139 1.479 . S
C142 C137 1.245 . S
C142 C138 1.477 . S
C142 H159 0.932 . S
C143 U126 2.882 . S
C143 C137 1.428 . S
C143 O146 1.301 . S
C143 O147 1.282 . S
O144 U126 2.441 . S
O144 C130 1.249 . S
O145 U126 2.420 . S
O145 C130 1.202 . S
O146 U126 2.455 . S
O146 C143 1.301 . S
O147 U126 2.449 . S
O147 C143 1.282 . S
H148 C121 0.931 . S
H149 C123 0.929 . S
H150 C124 0.930 . S
H151 C125 0.931 . S
H152 C132 0.932 . S
H153 C133 0.930 . S
H154 C134 0.929 . S
H155 C136 0.930 . S
H156 C138 0.932 . S
H157 C139 0.929 . S
H158 C140 0.928 . S
H159 C142 0.932 . S
C160 C161 1.264 1_565 S
C160 C165 1.479 . S
C160 C170 1.467 . S
C161 C160 1.264 1_545 S
C161 C163 1.339 . S
C161 H188 0.931 1_655 S
C162 C163 1.395 1_565 S
C162 C164 1.320 . S
C163 C161 1.339 . S
C163 C162 1.395 1_545 S
C163 H189 0.929 . S
C164 C162 1.320 . S
C164 C165 1.405 . S
C164 H190 0.930 . S
C165 C160 1.479 . S
C165 C164 1.405 . S
C165 H191 0.931 . S
U166 O167 2.454 . S
U166 O168 2.458 . S
U166 C169 2.984 . S
U166 C170 2.844 1_455 S
U166 C183 2.882 1_565 S
U166 O184 2.441 1_455 S
U166 O185 2.403 1_565 S
U166 O186 2.455 . S
U166 O187 2.449 1_565 S
O167 U166 2.454 . S
O167 C169 1.353 . S
O168 U166 2.458 . S
O168 C169 1.286 . S
C169 U166 2.984 . S
C169 O167 1.353 . S
C169 O168 1.286 . S
C169 C171 1.363 . S
C170 C160 1.467 . S
C170 U166 2.844 1_655 S
C170 O184 1.249 . S
C170 O185 1.179 1_665 S
C171 C169 1.363 . S
C171 C173 1.408 . S
C171 C176 1.342 . S
C172 C173 1.310 . S
C172 C175 1.461 . S
C172 H192 0.932 1_455 S
C173 C171 1.408 . S
C173 C172 1.310 . S
C173 H193 0.930 1_455 S
C174 C175 1.474 . S
C174 C176 1.285 . S
C174 H194 0.929 . S
C175 C172 1.461 . S
C175 C174 1.474 . S
C176 C171 1.342 . S
C176 C174 1.285 . S
C176 H195 0.930 . S
C177 C180 1.424 . S
C177 C182 1.245 . S
C177 C183 1.428 . S
C178 C181 1.260 . S
C178 C182 1.477 . S
C178 H196 0.932 . S
C179 C180 1.384 . S
C179 C181 1.479 . S
C179 H197 0.929 . S
C180 C177 1.424 . S
C180 C179 1.384 . S
C180 H198 0.928 . S
C181 C178 1.260 . S
C181 C179 1.479 . S
C182 C177 1.245 . S
C182 C178 1.477 . S
C182 H199 0.932 . S
C183 U166 2.882 1_545 S
C183 C177 1.428 . S
C183 O186 1.301 1_545 S
C183 O187 1.282 . S
O184 U166 2.441 1_655 S
O184 C170 1.249 . S
O185 U166 2.403 1_545 S
O185 C170 1.179 1_445 S
O186 U166 2.455 . S
O186 C183 1.301 1_565 S
O187 U166 2.449 1_545 S
O187 C183 1.282 . S
H188 C161 0.931 1_455 S
H189 C163 0.929 . S
H190 C164 0.930 . S
H191 C165 0.931 . S
H192 C172 0.932 1_655 S
H193 C173 0.930 1_655 S
H194 C174 0.929 . S
H195 C176 0.930 . S
H196 C178 0.932 . S
H197 C179 0.929 . S
H198 C180 0.928 . S
H199 C182 0.932 . S
C200 C201 1.264 . S
C200 C205 1.479 . S
C200 C210 1.465 . S
C201 C200 1.264 . S
C201 C203 1.339 . S
C201 H228 0.931 . S
C202 C203 1.395 . S
C202 C204 1.320 . S
C203 C201 1.339 . S
C203 C202 1.395 . S
C203 H229 0.929 . S
C204 C202 1.320 . S
C204 C205 1.405 . S
C204 H230 0.930 . S
C205 C200 1.479 . S
C205 C204 1.405 . S
C205 H231 0.931 . S
U206 O207 2.454 . S
U206 O208 2.458 . S
U206 C209 2.984 . S
U206 C210 2.847 . S
U206 C223 2.882 . S
U206 O224 2.441 . S
U206 O225 2.420 . S
U206 O226 2.455 . S
U206 O227 2.449 . S
O207 U206 2.454 . S
O207 C209 1.353 . S
O208 U206 2.458 . S
O208 C209 1.286 . S
C209 U206 2.984 . S
C209 O207 1.353 . S
C209 O208 1.286 . S
C209 C211 1.363 . S
C210 C200 1.465 . S
C210 U206 2.847 . S
C210 O224 1.249 . S
C210 O225 1.202 . S
C211 C209 1.363 . S
C211 C213 1.408 . S
C211 C216 1.342 . S
C212 C213 1.310 . S
C212 C215 1.461 . S
C212 H232 0.932 . S
C213 C211 1.408 . S
C213 C212 1.310 . S
C213 H233 0.930 . S
C214 C215 1.474 . S
C214 C216 1.285 . S
C214 H234 0.929 . S
C215 C212 1.461 . S
C215 C214 1.474 . S
C216 C211 1.342 . S
C216 C214 1.285 . S
C216 H235 0.930 . S
C217 C220 1.424 . S
C217 C222 1.245 . S
C217 C223 1.428 . S
C218 C221 1.260 . S
C218 C222 1.477 . S
C218 H236 0.932 . S
C219 C220 1.384 . S
C219 C221 1.479 . S
C219 H237 0.929 . S
C220 C217 1.424 . S
C220 C219 1.384 . S
C220 H238 0.928 . S
C221 C218 1.260 . S
C221 C219 1.479 . S
C222 C217 1.245 . S
C222 C218 1.477 . S
C222 H239 0.932 . S
C223 U206 2.882 . S
C223 C217 1.428 . S
C223 O226 1.301 . S
C223 O227 1.282 . S
O224 U206 2.441 . S
O224 C210 1.249 . S
O225 U206 2.420 . S
O225 C210 1.202 . S
O226 U206 2.455 . S
O226 C223 1.301 . S
O227 U206 2.449 . S
O227 C223 1.282 . S
H228 C201 0.931 . S
H229 C203 0.929 . S
H230 C204 0.930 . S
H231 C205 0.931 . S
H232 C212 0.932 . S
H233 C213 0.930 . S
H234 C214 0.929 . S
H235 C216 0.930 . S
H236 C218 0.932 . S
H237 C219 0.929 . S
H238 C220 0.928 . S
H239 C222 0.932 . S
C240 C241 1.264 1_655 S
C240 C245 1.479 . S
C240 C250 1.465 . S
C241 C240 1.264 1_455 S
C241 C243 1.339 . S
C241 H268 0.931 . S
C242 C243 1.395 1_655 S
C242 C244 1.320 . S
C243 C241 1.339 . S
C243 C242 1.395 1_455 S
C243 H269 0.929 . S
C244 C242 1.320 . S
C244 C245 1.405 . S
C244 H270 0.930 . S
C245 C240 1.479 . S
C245 C244 1.405 . S
C245 H271 0.931 . S
U246 O247 2.454 . S
U246 O248 2.458 . S
U246 C249 2.984 . S
U246 C250 2.847 . S
U246 C263 2.882 1_655 S
U246 O264 2.441 . S
U246 O265 2.420 . S
U246 O266 2.455 . S
U246 O267 2.449 1_655 S
O247 U246 2.454 . S
O247 C249 1.353 . S
O248 U246 2.458 . S
O248 C249 1.286 . S
C249 U246 2.984 . S
C249 O247 1.353 . S
C249 O248 1.286 . S
C249 C251 1.363 . S
C250 C240 1.465 . S
C250 U246 2.847 . S
C250 O264 1.249 . S
C250 O265 1.202 . S
C251 C249 1.363 . S
C251 C253 1.408 . S
C251 C256 1.342 . S
C252 C253 1.310 . S
C252 C255 1.461 . S
C252 H272 0.932 . S
C253 C251 1.408 . S
C253 C252 1.310 . S
C253 H273 0.930 . S
C254 C255 1.474 . S
C254 C256 1.285 . S
C254 H274 0.929 . S
C255 C252 1.461 . S
C255 C254 1.474 . S
C256 C251 1.342 . S
C256 C254 1.285 . S
C256 H275 0.930 . S
C257 C260 1.424 . S
C257 C262 1.245 . S
C257 C263 1.428 . S
C258 C261 1.260 . S
C258 C262 1.477 . S
C258 H276 0.932 . S
C259 C260 1.384 . S
C259 C261 1.479 . S
C259 H277 0.929 . S
C260 C257 1.424 . S
C260 C259 1.384 . S
C260 H278 0.928 . S
C261 C258 1.260 . S
C261 C259 1.479 . S
C262 C257 1.245 . S
C262 C258 1.477 . S
C262 H279 0.922 1_455 S
C263 U246 2.882 1_455 S
C263 C257 1.428 . S
C263 O266 1.301 1_455 S
C263 O267 1.282 . S
O264 U246 2.441 . S
O264 C250 1.249 . S
O265 U246 2.420 . S
O265 C250 1.202 . S
O266 U246 2.455 . S
O266 C263 1.301 1_655 S
O267 U246 2.449 1_455 S
O267 C263 1.282 . S
H268 C241 0.931 . S
H269 C243 0.929 . S
H270 C244 0.930 . S
H271 C245 0.931 . S
H272 C252 0.932 . S
H273 C253 0.930 . S
H274 C254 0.929 . S
H275 C256 0.930 . S
H276 C258 0.932 . S
H277 C259 0.929 . S
H278 C260 0.928 . S
H279 C262 0.922 1_655 S
C280 C281 1.264 . S
C280 C285 1.479 . S
C280 C290 1.465 . S
C281 C280 1.264 . S
C281 C283 1.339 . S
C281 H308 0.931 . S
C282 C283 1.395 . S
C282 C284 1.320 . S
C283 C281 1.339 . S
C283 C282 1.395 . S
C283 H309 0.929 . S
C284 C282 1.320 . S
C284 C285 1.405 . S
C284 H310 0.930 . S
C285 C280 1.479 . S
C285 C284 1.405 . S
C285 H311 0.931 . S
U286 O287 2.454 . S
U286 O288 2.458 . S
U286 C289 2.984 . S
U286 C290 2.847 . S
U286 C303 2.882 . S
U286 O304 2.441 . S
U286 O305 2.420 . S
U286 O306 2.455 . S
U286 O307 2.449 . S
O287 U286 2.454 . S
O287 C289 1.353 . S
O288 U286 2.458 . S
O288 C289 1.286 . S
C289 U286 2.984 . S
C289 O287 1.353 . S
C289 O288 1.286 . S
C289 C291 1.363 . S
C290 C280 1.465 . S
C290 U286 2.847 . S
C290 O304 1.249 . S
C290 O305 1.202 . S
C291 C289 1.363 . S
C291 C293 1.408 . S
C291 C296 1.342 . S
C292 C293 1.310 . S
C292 C295 1.461 . S
C292 H312 0.932 . S
C293 C291 1.408 . S
C293 C292 1.310 . S
C293 H313 0.930 . S
C294 C295 1.474 . S
C294 C296 1.285 . S
C294 H314 0.929 . S
C295 C292 1.461 . S
C295 C294 1.474 . S
C296 C291 1.342 . S
C296 C294 1.285 . S
C296 H315 0.930 . S
C297 C300 1.424 . S
C297 C302 1.245 . S
C297 C303 1.428 . S
C298 C301 1.260 . S
C298 C302 1.477 . S
C298 H316 0.932 . S
C299 C300 1.384 . S
C299 C301 1.479 . S
C299 H317 0.929 . S
C300 C297 1.424 . S
C300 C299 1.384 . S
C300 H318 0.928 . S
C301 C298 1.260 . S
C301 C299 1.479 . S
C302 C297 1.245 . S
C302 C298 1.477 . S
C302 H319 0.932 . S
C303 U286 2.882 . S
C303 C297 1.428 . S
C303 O306 1.301 . S
C303 O307 1.282 . S
O304 U286 2.441 . S
O304 C290 1.249 . S
O305 U286 2.420 . S
O305 C290 1.202 . S
O306 U286 2.455 . S
O306 C303 1.301 . S
O307 U286 2.449 . S
O307 C303 1.282 . S
H308 C281 0.931 . S
H309 C283 0.929 . S
H310 C284 0.930 . S
H311 C285 0.931 . S
H312 C292 0.932 . S
H313 C293 0.930 . S
H314 C294 0.929 . S
H315 C296 0.930 . S
H316 C298 0.932 . S
H317 C299 0.929 . S
H318 C300 0.928 . S
H319 C302 0.932 . S
C320 C321 1.264 . S
C320 C325 1.479 . S
C320 C330 1.465 . S
C321 C320 1.264 . S
C321 C323 1.339 . S
C321 H348 0.931 . S
C322 C323 1.395 . S
C322 C324 1.320 . S
C323 C321 1.339 . S
C323 C322 1.395 . S
C323 H349 0.929 . S
C324 C322 1.320 . S
C324 C325 1.405 . S
C324 H350 0.930 . S
C325 C320 1.479 . S
C325 C324 1.405 . S
C325 H351 0.931 . S
U326 O327 2.454 . S
U326 O328 2.458 . S
U326 C329 2.984 . S
U326 C330 2.847 . S
U326 C343 2.882 . S
U326 O344 2.441 . S
U326 O345 2.420 . S
U326 O346 2.455 . S
U326 O347 2.449 . S
O327 U326 2.454 . S
O327 C329 1.353 . S
O328 U326 2.458 . S
O328 C329 1.286 . S
C329 U326 2.984 . S
C329 O327 1.353 . S
C329 O328 1.286 . S
C329 C331 1.363 . S
C330 C320 1.465 . S
C330 U326 2.847 . S
C330 O344 1.249 . S
C330 O345 1.202 . S
C331 C329 1.363 . S
C331 C333 1.408 . S
C331 C336 1.342 . S
C332 C333 1.310 . S
C332 C335 1.461 . S
C332 H352 0.932 . S
C333 C331 1.408 . S
C333 C332 1.310 . S
C333 H353 0.930 . S
C334 C335 1.474 . S
C334 C336 1.285 . S
C334 H354 0.929 . S
C335 C332 1.461 . S
C335 C334 1.474 . S
C336 C331 1.342 . S
C336 C334 1.285 . S
C336 H355 0.930 . S
C337 C340 1.424 . S
C337 C342 1.245 . S
C337 C343 1.428 . S
C338 C341 1.260 . S
C338 C342 1.477 . S
C338 H356 0.932 . S
C339 C340 1.384 . S
C339 C341 1.479 . S
C339 H357 0.929 . S
C340 C337 1.424 . S
C340 C339 1.384 . S
C340 H358 0.928 . S
C341 C338 1.260 . S
C341 C339 1.479 . S
C342 C337 1.245 . S
C342 C338 1.477 . S
C342 H359 0.932 . S
C343 U326 2.882 . S
C343 C337 1.428 . S
C343 O346 1.301 . S
C343 O347 1.282 . S
O344 U326 2.441 . S
O344 C330 1.249 . S
O345 U326 2.420 . S
O345 C330 1.202 . S
O346 U326 2.455 . S
O346 C343 1.301 . S
O347 U326 2.449 . S
O347 C343 1.282 . S
H348 C321 0.931 . S
H349 C323 0.929 . S
H350 C324 0.930 . S
H351 C325 0.931 . S
H352 C332 0.932 . S
H353 C333 0.930 . S
H354 C334 0.929 . S
H355 C336 0.930 . S
H356 C338 0.932 . S
H357 C339 0.929 . S
H358 C340 0.928 . S
H359 C342 0.932 . S
C360 C361 1.264 . S
C360 C365 1.479 . S
C360 C370 1.465 . S
C361 C360 1.264 . S
C361 C363 1.339 . S
C361 H388 0.931 . S
C362 C363 1.395 . S
C362 C364 1.320 . S
C363 C361 1.339 . S
C363 C362 1.395 . S
C363 H389 0.929 . S
C364 C362 1.320 . S
C364 C365 1.405 . S
C364 H390 0.930 . S
C365 C360 1.479 . S
C365 C364 1.405 . S
C365 H391 0.931 . S
U366 O367 2.454 . S
U366 O368 2.458 1_565 S
U366 C369 2.984 1_565 S
U366 C370 2.847 . S
U366 C383 2.882 . S
U366 O384 2.441 . S
U366 O385 2.420 . S
U366 O386 2.455 . S
U366 O387 2.449 . S
O367 U366 2.454 . S
O367 C369 1.353 1_565 S
O368 U366 2.458 1_545 S
O368 C369 1.286 . S
C369 U366 2.984 1_545 S
C369 O367 1.353 1_545 S
C369 O368 1.286 . S
C369 C371 1.363 . S
C370 C360 1.465 . S
C370 U366 2.847 . S
C370 O384 1.249 . S
C370 O385 1.202 . S
C371 C369 1.363 . S
C371 C373 1.408 . S
C371 C376 1.342 . S
C372 C373 1.310 . S
C372 C375 1.461 . S
C372 H392 0.932 . S
C373 C371 1.408 . S
C373 C372 1.310 . S
C373 H393 0.930 . S
C374 C375 1.474 . S
C374 C376 1.285 . S
C374 H394 0.929 . S
C375 C372 1.461 . S
C375 C374 1.474 . S
C376 C371 1.342 . S
C376 C374 1.285 . S
C376 H395 0.930 . S
C377 C380 1.424 . S
C377 C382 1.245 1_565 S
C377 C383 1.428 . S
C378 C381 1.260 1_545 S
C378 C382 1.477 . S
C378 H396 0.932 . S
C379 C380 1.384 . S
C379 C381 1.479 . S
C379 H397 0.929 . S
C380 C377 1.424 . S
C380 C379 1.384 . S
C380 H398 0.928 . S
C381 C378 1.260 1_565 S
C381 C379 1.479 . S
C382 C377 1.245 1_545 S
C382 C378 1.477 . S
C382 H399 0.932 . S
C383 U366 2.882 . S
C383 C377 1.428 . S
C383 O386 1.301 . S
C383 O387 1.282 . S
O384 U366 2.441 . S
O384 C370 1.249 . S
O385 U366 2.420 . S
O385 C370 1.202 . S
O386 U366 2.455 . S
O386 C383 1.301 . S
O387 U366 2.449 . S
O387 C383 1.282 . S
H388 C361 0.931 . S
H389 C363 0.929 . S
H390 C364 0.930 . S
H391 C365 0.931 . S
H392 C372 0.932 . S
H393 C373 0.930 . S
H394 C374 0.929 . S
H395 C376 0.930 . S
H396 C378 0.932 . S
H397 C379 0.929 . S
H398 C380 0.928 . S
H399 C382 0.932 . S
C400 C401 1.264 . S
C400 C405 1.479 . S
C400 C410 1.465 . S
C401 C400 1.264 . S
C401 C403 1.339 . S
C401 H428 0.931 . S
C402 C403 1.395 . S
C402 C404 1.320 . S
C403 C401 1.339 . S
C403 C402 1.395 . S
C403 H429 0.929 . S
C404 C402 1.320 . S
C404 C405 1.405 . S
C404 H430 0.930 . S
C405 C400 1.479 . S
C405 C404 1.405 . S
C405 H431 0.931 . S
U406 O407 2.454 . S
U406 O408 2.458 . S
U406 C409 2.984 . S
U406 C410 2.847 . S
U406 C423 2.882 . S
U406 O424 2.441 . S
U406 O425 2.420 . S
U406 O426 2.455 . S
U406 O427 2.449 . S
O407 U406 2.454 . S
O407 C409 1.353 . S
O408 U406 2.458 . S
O408 C409 1.286 . S
C409 U406 2.984 . S
C409 O407 1.353 . S
C409 O408 1.286 . S
C409 C411 1.363 . S
C410 C400 1.465 . S
C410 U406 2.847 . S
C410 O424 1.249 . S
C410 O425 1.202 . S
C411 C409 1.363 . S
C411 C413 1.408 . S
C411 C416 1.342 . S
C412 C413 1.310 . S
C412 C415 1.461 . S
C412 H432 0.932 . S
C413 C411 1.408 . S
C413 C412 1.310 . S
C413 H433 0.930 . S
C414 C415 1.474 . S
C414 C416 1.285 . S
C414 H434 0.929 . S
C415 C412 1.461 . S
C415 C414 1.474 . S
C416 C411 1.342 . S
C416 C414 1.285 . S
C416 H435 0.930 . S
C417 C420 1.424 . S
C417 C422 1.245 . S
C417 C423 1.428 . S
C418 C421 1.260 . S
C418 C422 1.477 . S
C418 H436 0.932 . S
C419 C420 1.384 . S
C419 C421 1.479 . S
C419 H437 0.929 . S
C420 C417 1.424 . S
C420 C419 1.384 . S
C420 H438 0.928 . S
C421 C418 1.260 . S
C421 C419 1.479 . S
C422 C417 1.245 . S
C422 C418 1.477 . S
C422 H439 0.932 . S
C423 U406 2.882 . S
C423 C417 1.428 . S
C423 O426 1.301 . S
C423 O427 1.282 . S
O424 U406 2.441 . S
O424 C410 1.249 . S
O425 U406 2.420 . S
O425 C410 1.202 . S
O426 U406 2.455 . S
O426 C423 1.301 . S
O427 U406 2.449 . S
O427 C423 1.282 . S
H428 C401 0.931 . S
H429 C403 0.929 . S
H430 C404 0.930 . S
H431 C405 0.931 . S
H432 C412 0.932 . S
H433 C413 0.930 . S
H434 C414 0.929 . S
H435 C416 0.930 . S
H436 C418 0.932 . S
H437 C419 0.929 . S
H438 C420 0.928 . S
H439 C422 0.932 . S
C440 C441 1.264 . S
C440 C445 1.479 . S
C440 C450 1.465 . S
C441 C440 1.264 . S
C441 C443 1.339 . S
C441 H468 0.931 . S
C442 C443 1.395 . S
C442 C444 1.320 . S
C443 C441 1.339 . S
C443 C442 1.395 . S
C443 H469 0.929 . S
C444 C442 1.320 . S
C444 C445 1.405 . S
C444 H470 0.930 . S
C445 C440 1.479 . S
C445 C444 1.405 . S
C445 H471 0.931 . S
U446 O447 2.454 . S
U446 O448 2.458 . S
U446 C449 2.984 . S
U446 C450 2.847 . S
U446 C463 2.882 . S
U446 O464 2.441 . S
U446 O465 2.420 . S
U446 O466 2.455 . S
U446 O467 2.449 . S
O447 U446 2.454 . S
O447 C449 1.353 . S
O448 U446 2.458 . S
O448 C449 1.286 . S
C449 U446 2.984 . S
C449 O447 1.353 . S
C449 O448 1.286 . S
C449 C451 1.363 . S
C450 C440 1.465 . S
C450 U446 2.847 . S
C450 O464 1.249 . S
C450 O465 1.202 . S
C451 C449 1.363 . S
C451 C453 1.408 . S
C451 C456 1.342 . S
C452 C453 1.310 . S
C452 C455 1.461 . S
C452 H472 0.932 . S
C453 C451 1.408 . S
C453 C452 1.310 . S
C453 H473 0.930 . S
C454 C455 1.474 . S
C454 C456 1.285 . S
C454 H474 0.929 . S
C455 C452 1.461 . S
C455 C454 1.474 . S
C456 C451 1.342 . S
C456 C454 1.285 . S
C456 H475 0.930 . S
C457 C460 1.424 . S
C457 C462 1.245 . S
C457 C463 1.428 . S
C458 C461 1.260 . S
C458 C462 1.477 . S
C458 H476 0.932 . S
C459 C460 1.384 . S
C459 C461 1.479 . S
C459 H477 0.929 . S
C460 C457 1.424 . S
C460 C459 1.384 . S
C460 H478 0.928 . S
C461 C458 1.260 . S
C461 C459 1.479 . S
C462 C457 1.245 . S
C462 C458 1.477 . S
C462 H479 0.932 . S
C463 U446 2.882 . S
C463 C457 1.428 . S
C463 O466 1.301 . S
C463 O467 1.282 . S
O464 U446 2.441 . S
O464 C450 1.249 . S
O465 U446 2.420 . S
O465 C450 1.202 . S
O466 U446 2.455 . S
O466 C463 1.301 . S
O467 U446 2.449 . S
O467 C463 1.282 . S
H468 C441 0.931 . S
H469 C443 0.929 . S
H470 C444 0.930 . S
H471 C445 0.931 . S
H472 C452 0.932 . S
H473 C453 0.930 . S
H474 C454 0.929 . S
H475 C456 0.930 . S
H476 C458 0.932 . S
H477 C459 0.929 . S
H478 C460 0.928 . S
H479 C462 0.932 . S
C480 C481 1.264 . S
C480 C485 1.479 . S
C480 C490 1.465 . S
C481 C480 1.264 . S
C481 C483 1.339 . S
C481 H508 0.931 . S
C482 C483 1.395 . S
C482 C484 1.320 . S
C483 C481 1.339 . S
C483 C482 1.395 . S
C483 H509 0.929 . S
C484 C482 1.320 . S
C484 C485 1.405 . S
C484 H510 0.930 . S
C485 C480 1.479 . S
C485 C484 1.405 . S
C485 H511 0.931 . S
U486 O487 2.454 . S
U486 O488 2.458 . S
U486 C489 2.984 . S
U486 C490 2.847 . S
U486 C503 2.882 . S
U486 O504 2.441 . S
U486 O505 2.420 . S
U486 O506 2.455 . S
U486 O507 2.449 . S
O487 U486 2.454 . S
O487 C489 1.353 . S
O488 U486 2.458 . S
O488 C489 1.286 . S
C489 U486 2.984 . S
C489 O487 1.353 . S
C489 O488 1.286 . S
C489 C491 1.363 . S
C490 C480 1.465 . S
C490 U486 2.847 . S
C490 O504 1.249 . S
C490 O505 1.202 . S
C491 C489 1.363 . S
C491 C493 1.408 . S
C491 C496 1.342 . S
C492 C493 1.310 . S
C492 C495 1.461 . S
C492 H512 0.932 . S
C493 C491 1.408 . S
C493 C492 1.310 . S
C493 H513 0.930 . S
C494 C495 1.474 . S
C494 C496 1.285 . S
C494 H514 0.929 . S
C495 C492 1.461 . S
C495 C494 1.474 . S
C496 C491 1.342 . S
C496 C494 1.285 . S
C496 H515 0.930 . S
C497 C500 1.424 . S
C497 C502 1.245 . S
C497 C503 1.428 . S
C498 C501 1.260 . S
C498 C502 1.477 . S
C498 H516 0.932 . S
C499 C500 1.384 . S
C499 C501 1.479 . S
C499 H517 0.929 . S
C500 C497 1.424 . S
C500 C499 1.384 . S
C500 H518 0.928 . S
C501 C498 1.260 . S
C501 C499 1.479 . S
C502 C497 1.245 . S
C502 C498 1.477 . S
C502 H519 0.932 . S
C503 U486 2.882 . S
C503 C497 1.428 . S
C503 O506 1.301 . S
C503 O507 1.282 . S
O504 U486 2.441 . S
O504 C490 1.249 . S
O505 U486 2.420 . S
O505 C490 1.202 . S
O506 U486 2.455 . S
O506 C503 1.301 . S
O507 U486 2.449 . S
O507 C503 1.282 . S
H508 C481 0.931 . S
H509 C483 0.929 . S
H510 C484 0.930 . S
H511 C485 0.931 . S
H512 C492 0.932 . S
H513 C493 0.930 . S
H514 C494 0.929 . S
H515 C496 0.930 . S
H516 C498 0.932 . S
H517 C499 0.929 . S
H518 C500 0.928 . S
H519 C502 0.932 . S
C520 C521 1.264 . S
C520 C525 1.479 . S
C520 C530 1.465 . S
C521 C520 1.264 . S
C521 C523 1.339 . S
C521 H548 0.931 . S
C522 C523 1.395 . S
C522 C524 1.320 . S
C523 C521 1.339 . S
C523 C522 1.395 . S
C523 H549 0.929 . S
C524 C522 1.320 . S
C524 C525 1.405 . S
C524 H550 0.930 . S
C525 C520 1.479 . S
C525 C524 1.405 . S
C525 H551 0.931 . S
U526 O527 2.454 . S
U526 O528 2.466 . S
U526 C529 2.984 . S
U526 C530 2.847 . S
U526 C543 2.882 . S
U526 O544 2.441 . S
U526 O545 2.420 . S
U526 O546 2.455 . S
U526 O547 2.449 . S
O527 U526 2.454 . S
O527 C529 1.353 . S
O528 U526 2.466 . S
O528 C529 1.286 . S
C529 U526 2.984 . S
C529 O527 1.353 . S
C529 O528 1.286 . S
C529 C531 1.363 1_556 S
C530 C520 1.465 . S
C530 U526 2.847 . S
C530 O544 1.249 . S
C530 O545 1.202 . S
C531 C529 1.363 1_554 S
C531 C533 1.408 . S
C531 C536 1.342 . S
C532 C533 1.310 . S
C532 C535 1.461 . S
C532 H552 0.932 . S
C533 C531 1.408 . S
C533 C532 1.310 . S
C533 H553 0.930 1_554 S
C534 C535 1.474 . S
C534 C536 1.285 . S
C534 H554 0.929 . S
C535 C532 1.461 . S
C535 C534 1.474 . S
C536 C531 1.342 . S
C536 C534 1.285 . S
C536 H555 0.930 . S
C537 C540 1.424 . S
C537 C542 1.245 . S
C537 C543 1.428 . S
C538 C541 1.260 . S
C538 C542 1.477 . S
C538 H556 0.932 1_556 S
C539 C540 1.384 . S
C539 C541 1.479 . S
C539 H557 0.929 . S
C540 C537 1.424 . S
C540 C539 1.384 . S
C540 H558 0.928 . S
C541 C538 1.260 . S
C541 C539 1.479 . S
C542 C537 1.245 . S
C542 C538 1.477 . S
C542 H559 0.932 1_556 S
C543 U526 2.882 . S
C543 C537 1.428 . S
C543 O546 1.301 . S
C543 O547 1.282 . S
O544 U526 2.441 . S
O544 C530 1.249 . S
O545 U526 2.420 . S
O545 C530 1.202 . S
O546 U526 2.455 . S
O546 C543 1.301 . S
O547 U526 2.449 . S
O547 C543 1.282 . S
H548 C521 0.931 . S
H549 C523 0.929 . S
H550 C524 0.930 . S
H551 C525 0.931 . S
H552 C532 0.932 . S
H553 C533 0.930 1_556 S
H554 C534 0.929 . S
H555 C536 0.930 . S
H556 C538 0.932 1_554 S
H557 C539 0.929 . S
H558 C540 0.928 . S
H559 C542 0.932 1_554 S
C560 C561 1.264 . S
C560 C565 1.479 . S
C560 C570 1.465 . S
C561 C560 1.264 . S
C561 C563 1.339 . S
C561 H588 0.931 . S
C562 C563 1.395 . S
C562 C564 1.320 . S
C563 C561 1.339 . S
C563 C562 1.395 . S
C563 H589 0.929 . S
C564 C562 1.320 . S
C564 C565 1.405 . S
C564 H590 0.930 . S
C565 C560 1.479 . S
C565 C564 1.405 . S
C565 H591 0.931 . S
U566 O567 2.454 . S
U566 O568 2.458 . S
U566 C569 2.984 . S
U566 C570 2.847 . S
U566 C583 2.882 . S
U566 O584 2.441 . S
U566 O585 2.420 . S
U566 O586 2.455 . S
U566 O587 2.449 . S
O567 U566 2.454 . S
O567 C569 1.353 . S
O568 U566 2.458 . S
O568 C569 1.286 . S
C569 U566 2.984 . S
C569 O567 1.353 . S
C569 O568 1.286 . S
C569 C571 1.363 . S
C570 C560 1.465 . S
C570 U566 2.847 . S
C570 O584 1.249 . S
C570 O585 1.202 . S
C571 C569 1.363 . S
C571 C573 1.408 . S
C571 C576 1.342 . S
C572 C573 1.310 . S
C572 C575 1.461 . S
C572 H592 0.932 . S
C573 C571 1.408 . S
C573 C572 1.310 . S
C573 H593 0.930 . S
C574 C575 1.474 . S
C574 C576 1.285 . S
C574 H594 0.929 . S
C575 C572 1.461 . S
C575 C574 1.474 . S
C576 C571 1.342 . S
C576 C574 1.285 . S
C576 H595 0.930 . S
C577 C580 1.424 . S
C577 C582 1.245 . S
C577 C583 1.428 . S
C578 C581 1.260 . S
C578 C582 1.477 . S
C578 H596 0.932 . S
C579 C580 1.384 . S
C579 C581 1.479 . S
C579 H597 0.929 . S
C580 C577 1.424 . S
C580 C579 1.384 . S
C580 H598 0.928 . S
C581 C578 1.260 . S
C581 C579 1.479 . S
C582 C577 1.245 . S
C582 C578 1.477 . S
C582 H599 0.932 . S
C583 U566 2.882 . S
C583 C577 1.428 . S
C583 O586 1.301 . S
C583 O587 1.282 . S
O584 U566 2.441 . S
O584 C570 1.249 . S
O585 U566 2.420 . S
O585 C570 1.202 . S
O586 U566 2.455 . S
O586 C583 1.301 . S
O587 U566 2.449 . S
O587 C583 1.282 . S
H588 C561 0.931 . S
H589 C563 0.929 . S
H590 C564 0.930 . S
H591 C565 0.931 . S
H592 C572 0.932 . S
H593 C573 0.930 . S
H594 C574 0.929 . S
H595 C576 0.930 . S
H596 C578 0.932 . S
H597 C579 0.929 . S
H598 C580 0.928 . S
H599 C582 0.932 . S
C600 C601 1.264 . S
C600 C605 1.479 . S
C600 C610 1.465 . S
C601 C600 1.264 . S
C601 C603 1.339 . S
C601 H628 0.931 . S
C602 C603 1.395 . S
C602 C604 1.320 . S
C603 C601 1.339 . S
C603 C602 1.395 . S
C603 H629 0.929 . S
C604 C602 1.320 . S
C604 C605 1.405 . S
C604 H630 0.930 . S
C605 C600 1.479 . S
C605 C604 1.405 . S
C605 H631 0.931 . S
U606 O607 2.454 . S
U606 O608 2.458 . S
U606 C609 2.984 . S
U606 C610 2.847 1_556 S
U606 C623 2.882 . S
U606 O624 2.441 1_556 S
U606 O625 2.420 . S
U606 O626 2.455 . S
U606 O627 2.449 . S
O607 U606 2.454 . S
O607 C609 1.353 . S
O608 U606 2.458 . S
O608 C609 1.286 . S
C609 U606 2.984 . S
C609 O607 1.353 . S
C609 O608 1.286 . S
C609 C611 1.363 1_545 S
C610 C600 1.465 . S
C610 U606 2.847 1_554 S
C610 O624 1.249 . S
C610 O625 1.202 1_554 S
C611 C609 1.363 1_565 S
C611 C613 1.408 1_556 S
C611 C616 1.342 . S
C612 C613 1.310 . S
C612 C615 1.461 1_554 S
C612 H632 0.932 . S
C613 C611 1.408 1_554 S
C613 C612 1.310 . S
C613 H633 0.930 1_565 S
C614 C615 1.474 . S
C614 C616 1.285 . S
C614 H634 0.929 . S
C615 C612 1.461 1_556 S
C615 C614 1.474 . S
C616 C611 1.342 . S
C616 C614 1.285 . S
C616 H635 0.930 . S
C617 C620 1.424 . S
C617 C622 1.245 . S
C617 C623 1.428 . S
C618 C621 1.260 . S
C618 C622 1.477 . S
C618 H636 0.932 1_545 S
C619 C620 1.384 . S
C619 C621 1.479 . S
C619 H637 0.929 . S
C620 C617 1.424 . S
C620 C619 1.384 . S
C620 H638 0.928 . S
C621 C618 1.260 . S
C621 C619 1.479 . S
C622 C617 1.245 . S
C622 C618 1.477 . S
C622 H639 0.932 1_545 S
C623 U606 2.882 . S
C623 C617 1.428 . S
C623 O626 1.301 . S
C623 O627 1.282 . S
O624 U606 2.441 1_554 S
O624 C610 1.249 . S
O625 U606 2.420 . S
O625 C610 1.202 1_556 S
O626 U606 2.455 . S
O626 C623 1.301 . S
O627 U606 2.449 . S
O627 C623 1.282 . S
H628 C601 0.931 . S
H629 C603 0.929 . S
H630 C604 0.930 . S
H631 C605 0.931 . S
H632 C612 0.932 . S
H633 C613 0.930 1_545 S
H634 C614 0.929 . S
H635 C616 0.930 . S
H636 C618 0.932 1_565 S
H637 C619 0.929 . S
H638 C620 0.928 . S
H639 C622 0.932 1_565 S
C640 O641 1.160 1_554 S
C640 O647 1.185 . S
O641 C640 1.160 1_556 S
O642 Zn643 1.899 1_556 S
O642 C650 1.284 . S
Zn643 O642 1.899 1_554 S
Zn643 O644 2.032 . S
Zn643 O647 2.086 . S
Zn643 O652 1.977 . S
O644 Zn643 2.032 . S
O644 C648 1.278 . S
C645 O646 1.203 . S
C645 O652 1.267 . S
O646 C645 1.203 . S
O647 C640 1.185 . S
O647 Zn643 2.086 . S
C648 O644 1.278 . S
C648 O649 1.211 . S
O649 C648 1.211 . S
C650 O642 1.284 . S
C650 O651 1.273 . S
O651 C650 1.273 . S
O652 Zn643 1.977 . S
O652 C645 1.267 . S
C653 O654 1.160 . S
C653 O660 1.185 . S
O654 C653 1.160 . S
O655 Zn656 1.899 . S
O655 C663 1.284 . S
Zn656 O655 1.899 . S
Zn656 O657 2.032 . S
Zn656 O660 2.086 . S
Zn656 O665 1.977 . S
O657 Zn656 2.032 . S
O657 C661 1.278 . S
C658 O659 1.203 . S
C658 O665 1.267 . S
O659 C658 1.203 . S
O660 C653 1.185 . S
O660 Zn656 2.086 . S
C661 O657 1.278 . S
C661 O662 1.211 . S
O662 C661 1.211 . S
C663 O655 1.284 . S
C663 O664 1.273 . S
O664 C663 1.273 . S
O665 Zn656 1.977 . S
O665 C658 1.267 . S
C666 O667 1.160 1_554 S
C666 O673 1.185 . S
O667 C666 1.160 1_556 S
O668 Zn669 1.899 1_556 S
O668 C676 1.284 . S
Zn669 O668 1.899 1_554 S
Zn669 O670 2.032 1_554 S
Zn669 O673 2.086 . S
Zn669 O678 1.977 . S
O670 Zn669 2.032 1_556 S
O670 C674 1.278 . S
C671 O672 1.203 . S
C671 O678 1.267 . S
O672 C671 1.203 . S
O673 C666 1.185 . S
O673 Zn669 2.086 . S
C674 O670 1.278 . S
C674 O675 1.211 1_556 S
O675 C674 1.211 1_554 S
C676 O668 1.284 . S
C676 O677 1.273 . S
O677 C676 1.273 . S
O678 Zn669 1.977 . S
O678 C671 1.267 . S
C679 O680 1.160 . S
C679 O686 1.185 . S
O680 C679 1.160 . S
O681 Zn682 1.899 . S
O681 C689 1.284 . S
Zn682 O681 1.899 . S
Zn682 O683 2.032 1_545 S
Zn682 O686 2.086 . S
Zn682 O691 1.977 . S
O683 Zn682 2.032 1_565 S
O683 C687 1.278 . S
C684 O685 1.203 . S
C684 O691 1.267 . S
O685 C684 1.203 . S
O686 C679 1.185 . S
O686 Zn682 2.086 . S
C687 O683 1.278 . S
C687 O688 1.211 . S
O688 C687 1.211 . S
C689 O681 1.284 . S
C689 O690 1.273 1_545 S
O690 C689 1.273 1_565 S
O691 Zn682 1.977 . S
O691 C684 1.267 . S
C692 O693 1.160 . S
C692 O699 1.185 . S
O693 C692 1.160 . S
O694 Zn695 1.899 . S
O694 C702 1.284 . S
Zn695 O694 1.899 . S
Zn695 O696 2.032 . S
Zn695 O699 2.086 . S
Zn695 O704 1.977 . S
O696 Zn695 2.032 . S
O696 C700 1.278 . S
C697 O698 1.203 . S
C697 O704 1.267 . S
O698 C697 1.203 . S
O699 C692 1.185 . S
O699 Zn695 2.086 . S
C700 O696 1.278 . S
C700 O701 1.211 . S
O701 C700 1.211 . S
C702 O694 1.284 . S
C702 O703 1.273 . S
O703 C702 1.273 . S
O704 Zn695 1.977 . S
O704 C697 1.267 . S
C705 O706 1.160 . S
C705 O712 1.185 . S
O706 C705 1.160 . S
O707 Zn708 1.899 . S
O707 C715 1.284 . S
Zn708 O707 1.899 . S
Zn708 O709 2.032 . S
Zn708 O712 2.086 . S
Zn708 O717 1.977 . S
O709 Zn708 2.032 . S
O709 C713 1.278 . S
C710 O711 1.203 . S
C710 O717 1.267 . S
O711 C710 1.203 . S
O712 C705 1.185 . S
O712 Zn708 2.086 . S
C713 O709 1.278 . S
C713 O714 1.211 . S
O714 C713 1.211 . S
C715 O707 1.284 . S
C715 O716 1.273 . S
O716 C715 1.273 . S
O717 Zn708 1.977 . S
O717 C710 1.267 . S
C718 O719 1.160 . S
C718 O725 1.185 . S
O719 C718 1.160 . S
O720 Zn721 1.899 . S
O720 C728 1.284 . S
Zn721 O720 1.899 . S
Zn721 O722 2.032 . S
Zn721 O725 2.086 . S
Zn721 O730 1.977 . S
O722 Zn721 2.032 . S
O722 C726 1.278 . S
C723 O724 1.203 . S
C723 O730 1.267 . S
O724 C723 1.203 . S
O725 C718 1.185 . S
O725 Zn721 2.086 . S
C726 O722 1.278 . S
C726 O727 1.211 . S
O727 C726 1.211 . S
C728 O720 1.284 . S
C728 O729 1.273 . S
O729 C728 1.273 . S
O730 Zn721 1.977 . S
O730 C723 1.267 . S
C731 O732 1.160 . S
C731 O738 1.185 . S
O732 C731 1.160 . S
O733 Zn734 1.899 . S
O733 C741 1.284 1_565 S
Zn734 O733 1.899 . S
Zn734 O735 2.032 1_565 S
Zn734 O738 2.086 . S
Zn734 O743 1.977 . S
O735 Zn734 2.032 1_545 S
O735 C739 1.278 . S
C736 O737 1.203 1_565 S
C736 O743 1.267 . S
O737 C736 1.203 1_545 S
O738 C731 1.185 . S
O738 Zn734 2.086 . S
C739 O735 1.278 . S
C739 O740 1.211 . S
O740 C739 1.211 . S
C741 O733 1.284 1_545 S
C741 O742 1.273 . S
O742 C741 1.273 . S
O743 Zn734 1.977 . S
O743 C736 1.267 . S
C744 O745 1.160 1_455 S
C744 O751 1.185 . S
O745 C744 1.160 1_655 S
O746 Zn747 1.899 1_655 S
O746 C754 1.284 . S
Zn747 O746 1.899 1_455 S
Zn747 O748 2.032 . S
Zn747 O751 2.086 . S
Zn747 O756 1.977 . S
O748 Zn747 2.032 . S
O748 C752 1.278 . S
C749 O750 1.203 . S
C749 O756 1.267 . S
O750 C749 1.203 . S
O751 C744 1.185 . S
O751 Zn747 2.086 . S
C752 O748 1.278 . S
C752 O753 1.211 . S
O753 C752 1.211 . S
C754 O746 1.284 . S
C754 O755 1.273 . S
O755 C754 1.273 . S
O756 Zn747 1.977 . S
O756 C749 1.267 . S
C757 O758 1.160 . S
C757 O764 1.185 . S
O758 C757 1.160 . S
O759 Zn760 1.899 . S
O759 C767 1.284 . S
Zn760 O759 1.899 . S
Zn760 O761 2.032 . S
Zn760 O764 2.086 . S
Zn760 O769 1.977 . S
O761 Zn760 2.032 . S
O761 C765 1.278 . S
C762 O763 1.203 . S
C762 O769 1.267 . S
O763 C762 1.203 . S
O764 C757 1.185 . S
O764 Zn760 2.086 . S
C765 O761 1.278 . S
C765 O766 1.211 . S
O766 C765 1.211 . S
C767 O759 1.284 . S
C767 O768 1.273 . S
O768 C767 1.273 . S
O769 Zn760 1.977 . S
O769 C762 1.267 . S
C770 O771 1.160 1_455 S
C770 O777 1.185 . S
O771 C770 1.160 1_655 S
O772 Zn773 1.899 1_655 S
O772 C780 1.284 . S
Zn773 O772 1.899 1_455 S
Zn773 O774 2.033 1_455 S
Zn773 O777 2.086 . S
Zn773 O782 1.977 . S
O774 Zn773 2.033 1_655 S
O774 C778 1.278 1_655 S
C775 O776 1.203 . S
C775 O782 1.267 . S
O776 C775 1.203 . S
O777 C770 1.185 . S
O777 Zn773 2.086 . S
C778 O774 1.278 1_455 S
C778 O779 1.211 . S
O779 C778 1.211 . S
C780 O772 1.284 . S
C780 O781 1.273 . S
O781 C780 1.273 . S
O782 Zn773 1.977 . S
O782 C775 1.267 . S
C783 O784 1.160 . S
C783 O790 1.185 . S
O784 C783 1.160 . S
O785 Zn786 1.899 . S
O785 C793 1.284 . S
Zn786 O785 1.899 . S
Zn786 O787 2.032 . S
Zn786 O790 2.086 . S
Zn786 O795 1.977 . S
O787 Zn786 2.032 . S
O787 C791 1.278 . S
C788 O789 1.203 . S
C788 O795 1.267 . S
O789 C788 1.203 . S
O790 C783 1.185 . S
O790 Zn786 2.086 . S
C791 O787 1.278 . S
C791 O792 1.211 . S
O792 C791 1.211 . S
C793 O785 1.284 . S
C793 O794 1.273 . S
O794 C793 1.273 . S
O795 Zn786 1.977 . S
O795 C788 1.267 . S
C796 C797 1.363 . S
C796 C802 1.379 . S
C796 N804 1.356 . S
C797 C796 1.363 . S
C797 C803 1.363 . S
C798 C799 1.363 . S
C798 C803 1.379 . S
C798 N805 1.356 . S
C799 C798 1.363 . S
C799 C802 1.363 . S
N800 C802 1.356 . S
N800 H812 0.984 . S
N800 H813 0.985 . S
N801 C803 1.356 . S
N801 H806 0.984 . S
N801 H807 0.985 . S
C802 C796 1.379 . S
C802 C799 1.363 . S
C802 N800 1.356 . S
C803 C797 1.363 . S
C803 C798 1.379 . S
C803 N801 1.356 . S
N804 C796 1.356 . S
N804 H810 0.984 . S
N804 H811 0.984 . S
N805 C798 1.356 . S
N805 H808 0.984 . S
N805 H809 0.985 . S
H806 N801 0.984 . S
H807 N801 0.985 . S
H808 N805 0.984 . S
H809 N805 0.985 . S
H810 N804 0.984 . S
H811 N804 0.984 . S
H812 N800 0.984 . S
H813 N800 0.985 . S
C814 C815 1.363 . S
C814 C820 1.379 . S
C814 N822 1.356 . S
C815 C814 1.363 . S
C815 C821 1.363 . S
C816 C817 1.363 . S
C816 C821 1.379 . S
C816 N823 1.356 . S
C817 C816 1.363 . S
C817 C820 1.363 . S
N818 C820 1.356 . S
N818 H830 0.984 . S
N818 H831 0.985 . S
N819 C821 1.356 . S
N819 H824 0.984 . S
N819 H825 0.985 . S
C820 C814 1.379 . S
C820 C817 1.363 . S
C820 N818 1.356 . S
C821 C815 1.363 . S
C821 C816 1.379 . S
C821 N819 1.356 . S
N822 C814 1.356 . S
N822 H828 0.984 . S
N822 H829 0.984 . S
N823 C816 1.356 . S
N823 H826 0.984 . S
N823 H827 0.985 . S
H824 N819 0.984 . S
H825 N819 0.985 . S
H826 N823 0.984 . S
H827 N823 0.985 . S
H828 N822 0.984 . S
H829 N822 0.984 . S
H830 N818 0.984 . S
H831 N818 0.985 . S
C832 C833 1.363 . S
C832 C838 1.379 . S
C832 N840 1.356 . S
C833 C832 1.363 . S
C833 C839 1.363 . S
C834 C835 1.363 . S
C834 C839 1.379 . S
C834 N841 1.356 . S
C835 C834 1.363 . S
C835 C838 1.363 . S
N836 C838 1.356 . S
N836 H848 0.984 . S
N836 H849 0.985 . S
N837 C839 1.356 . S
N837 H842 0.984 . S
N837 H843 0.985 . S
C838 C832 1.379 . S
C838 C835 1.363 . S
C838 N836 1.356 . S
C839 C833 1.363 . S
C839 C834 1.379 . S
C839 N837 1.356 . S
N840 C832 1.356 . S
N840 H846 0.984 . S
N840 H847 0.984 . S
N841 C834 1.356 . S
N841 H844 0.984 . S
N841 H845 0.985 . S
H842 N837 0.984 . S
H843 N837 0.985 . S
H844 N841 0.984 . S
H845 N841 0.985 . S
H846 N840 0.984 . S
H847 N840 0.984 . S
H848 N836 0.984 . S
H849 N836 0.985 . S
C850 C851 1.363 . S
C850 C856 1.379 . S
C850 N858 1.356 . S
C851 C850 1.363 . S
C851 C857 1.363 1_565 S
C852 C853 1.363 . S
C852 C857 1.379 . S
C852 N859 1.356 . S
C853 C852 1.363 . S
C853 C856 1.363 1_545 S
N854 C856 1.356 . S
N854 H866 0.984 . S
N854 H867 0.985 . S
N855 C857 1.356 . S
N855 H860 0.984 . S
N855 H861 0.985 . S
C856 C850 1.379 . S
C856 C853 1.363 1_565 S
C856 N854 1.356 . S
C857 C851 1.363 1_545 S
C857 C852 1.379 . S
C857 N855 1.356 . S
N858 C850 1.356 . S
N858 H864 0.984 . S
N858 H865 0.984 . S
N859 C852 1.356 . S
N859 H862 0.984 . S
N859 H863 0.985 . S
H860 N855 0.984 . S
H861 N855 0.985 . S
H862 N859 0.984 . S
H863 N859 0.985 . S
H864 N858 0.984 . S
H865 N858 0.984 . S
H866 N854 0.984 . S
H867 N854 0.985 . S
C868 C869 1.363 . S
C868 C874 1.379 . S
C868 N876 1.356 . S
C869 C868 1.363 . S
C869 C875 1.363 . S
C870 C871 1.363 . S
C870 C875 1.379 . S
C870 N877 1.356 . S
C871 C870 1.363 . S
C871 C874 1.363 . S
N872 C874 1.356 . S
N872 H884 0.984 . S
N872 H885 0.985 . S
N873 C875 1.356 . S
N873 H878 0.984 . S
N873 H879 0.985 . S
C874 C868 1.379 . S
C874 C871 1.363 . S
C874 N872 1.356 . S
C875 C869 1.363 . S
C875 C870 1.379 . S
C875 N873 1.356 . S
N876 C868 1.356 . S
N876 H882 0.984 . S
N876 H883 0.984 . S
N877 C870 1.356 . S
N877 H880 0.984 . S
N877 H881 0.985 . S
H878 N873 0.984 . S
H879 N873 0.985 . S
H880 N877 0.984 . S
H881 N877 0.985 . S
H882 N876 0.984 . S
H883 N876 0.984 . S
H884 N872 0.984 . S
H885 N872 0.985 . S
C886 C887 1.363 . S
C886 C892 1.379 . S
C886 N894 1.356 . S
C887 C886 1.363 . S
C887 C893 1.363 . S
C888 C889 1.363 . S
C888 C893 1.379 . S
C888 N895 1.356 . S
C889 C888 1.363 . S
C889 C892 1.363 . S
N890 C892 1.356 . S
N890 H902 0.984 . S
N890 H903 0.985 . S
N891 C893 1.356 . S
N891 H896 0.984 . S
N891 H897 0.985 . S
C892 C886 1.379 . S
C892 C889 1.363 . S
C892 N890 1.356 . S
C893 C887 1.363 . S
C893 C888 1.379 . S
C893 N891 1.356 . S
N894 C886 1.356 . S
N894 H900 0.984 . S
N894 H901 0.984 . S
N895 C888 1.356 . S
N895 H898 0.984 . S
N895 H899 0.985 . S
H896 N891 0.984 . S
H897 N891 0.985 . S
H898 N895 0.984 . S
H899 N895 0.985 . S
H900 N894 0.984 . S
H901 N894 0.984 . S
H902 N890 0.984 . S
H903 N890 0.985 . S
C904 C905 1.363 . S
C904 C910 1.379 . S
C904 N912 1.356 . S
C905 C904 1.363 . S
C905 C911 1.363 . S
C906 C907 1.363 . S
C906 C911 1.379 . S
C906 N913 1.356 . S
C907 C906 1.363 . S
C907 C910 1.363 . S
N908 C910 1.356 . S
N908 H920 0.984 . S
N908 H921 0.985 . S
N909 C911 1.356 . S
N909 H914 0.984 . S
N909 H915 0.985 . S
C910 C904 1.379 . S
C910 C907 1.363 . S
C910 N908 1.356 . S
C911 C905 1.363 . S
C911 C906 1.379 . S
C911 N909 1.356 . S
N912 C904 1.356 . S
N912 H918 0.984 . S
N912 H919 0.984 . S
N913 C906 1.356 . S
N913 H916 0.984 . S
N913 H917 0.985 . S
H914 N909 0.984 . S
H915 N909 0.985 . S
H916 N913 0.984 . S
H917 N913 0.985 . S
H918 N912 0.984 . S
H919 N912 0.984 . S
H920 N908 0.984 . S
H921 N908 0.985 . S
C922 C923 1.363 . S
C922 C928 1.379 . S
C922 N930 1.356 . S
C923 C922 1.363 . S
C923 C929 1.363 1_565 S
C924 C925 1.363 1_545 S
C924 C929 1.379 . S
C924 N931 1.356 . S
C925 C924 1.363 1_565 S
C925 C928 1.363 . S
N926 C928 1.356 . S
N926 H938 0.984 . S
N926 H939 0.985 . S
N927 C929 1.356 . S
N927 H932 0.984 . S
N927 H933 0.985 . S
C928 C922 1.379 . S
C928 C925 1.363 . S
C928 N926 1.356 . S
C929 C923 1.363 1_545 S
C929 C924 1.379 . S
C929 N927 1.356 . S
N930 C922 1.356 . S
N930 H936 0.984 . S
N930 H937 0.984 . S
N931 C924 1.356 . S
N931 H934 0.984 . S
N931 H935 0.985 . S
H932 N927 0.984 . S
H933 N927 0.985 . S
H934 N931 0.984 . S
H935 N931 0.985 . S
H936 N930 0.984 . S
H937 N930 0.984 . S
H938 N926 0.984 . S
H939 N926 0.985 . S
C940 C941 1.363 . S
C940 C946 1.379 . S
C940 N948 1.356 . S
C941 C940 1.363 . S
C941 C947 1.363 . S
C942 C943 1.363 . S
C942 C947 1.379 . S
C942 N949 1.356 . S
C943 C942 1.363 . S
C943 C946 1.363 . S
N944 C946 1.356 . S
N944 H956 0.984 . S
N944 H957 0.985 . S
N945 C947 1.356 . S
N945 H950 0.984 . S
N945 H951 0.985 . S
C946 C940 1.379 . S
C946 C943 1.363 . S
C946 N944 1.356 . S
C947 C941 1.363 . S
C947 C942 1.379 . S
C947 N945 1.356 . S
N948 C940 1.356 . S
N948 H954 0.984 . S
N948 H955 0.984 . S
N949 C942 1.356 . S
N949 H952 0.984 . S
N949 H953 0.985 . S
H950 N945 0.984 . S
H951 N945 0.985 . S
H952 N949 0.984 . S
H953 N949 0.985 . S
H954 N948 0.984 . S
H955 N948 0.984 . S
H956 N944 0.984 . S
H957 N944 0.985 . S
C958 C959 1.363 . S
C958 C964 1.379 . S
C958 N966 1.356 . S
C959 C958 1.363 . S
C959 C965 1.363 . S
C960 C961 1.363 . S
C960 C965 1.379 . S
C960 N967 1.356 . S
C961 C960 1.363 . S
C961 C964 1.363 . S
N962 C964 1.356 . S
N962 H974 0.984 . S
N962 H975 0.985 . S
N963 C965 1.356 . S
N963 H968 0.984 . S
N963 H969 0.985 . S
C964 C958 1.379 . S
C964 C961 1.363 . S
C964 N962 1.356 . S
C965 C959 1.363 . S
C965 C960 1.379 . S
C965 N963 1.356 . S
N966 C958 1.356 . S
N966 H972 0.984 . S
N966 H973 0.984 . S
N967 C960 1.356 . S
N967 H970 0.984 . S
N967 H971 0.985 . S
H968 N963 0.984 . S
H969 N963 0.985 . S
H970 N967 0.984 . S
H971 N967 0.985 . S
H972 N966 0.984 . S
H973 N966 0.984 . S
H974 N962 0.984 . S
H975 N962 0.985 . S
C976 C977 1.363 . S
C976 C982 1.379 . S
C976 N984 1.356 . S
C977 C976 1.363 . S
C977 C983 1.363 . S
C978 C979 1.363 . S
C978 C983 1.379 . S
C978 N985 1.356 . S
C979 C978 1.363 . S
C979 C982 1.363 . S
N980 C982 1.356 . S
N980 H992 0.984 . S
N980 H993 0.985 . S
N981 C983 1.356 . S
N981 H986 0.984 . S
N981 H987 0.985 . S
C982 C976 1.379 . S
C982 C979 1.363 . S
C982 N980 1.356 . S
C983 C977 1.363 . S
C983 C978 1.379 . S
C983 N981 1.356 . S
N984 C976 1.356 . S
N984 H990 0.984 . S
N984 H991 0.984 . S
N985 C978 1.356 . S
N985 H988 0.984 . S
N985 H989 0.985 . S
H986 N981 0.984 . S
H987 N981 0.985 . S
H988 N985 0.984 . S
H989 N985 0.985 . S
H990 N984 0.984 . S
H991 N984 0.984 . S
H992 N980 0.984 . S
H993 N980 0.985 . S
C994 C995 1.363 . S
C994 C1000 1.379 . S
C994 N1002 1.356 . S
C995 C994 1.363 . S
C995 C1001 1.363 . S
C996 C997 1.363 . S
C996 C1001 1.379 . S
C996 N1003 1.356 . S
C997 C996 1.363 . S
C997 C1000 1.363 . S
N998 C1000 1.356 . S
N998 H1010 0.984 . S
N998 H1011 0.985 . S
N999 C1001 1.356 . S
N999 H1004 0.984 . S
N999 H1005 0.985 . S
C1000 C994 1.379 . S
C1000 C997 1.363 . S
C1000 N998 1.356 . S
C1001 C995 1.363 . S
C1001 C996 1.379 . S
C1001 N999 1.356 . S
N1002 C994 1.356 . S
N1002 H1008 0.984 . S
N1002 H1009 0.984 . S
N1003 C996 1.356 . S
N1003 H1006 0.984 . S
N1003 H1007 0.985 . S
H1004 N999 0.984 . S
H1005 N999 0.985 . S
H1006 N1003 0.984 . S
H1007 N1003 0.985 . S
H1008 N1002 0.984 . S
H1009 N1002 0.984 . S
H1010 N998 0.984 . S
H1011 N998 0.985 . S
C1012 C1013 1.363 . S
C1012 C1018 1.379 . S
C1012 N1020 1.356 . S
C1013 C1012 1.363 . S
C1013 C1019 1.363 . S
C1014 C1015 1.363 . S
C1014 C1019 1.379 . S
C1014 N1021 1.356 . S
C1015 C1014 1.363 . S
C1015 C1018 1.363 . S
N1016 C1018 1.356 . S
N1016 H1028 0.984 . S
N1016 H1029 0.985 . S
N1017 C1019 1.356 . S
N1017 H1022 0.984 . S
N1017 H1023 0.985 . S
C1018 C1012 1.379 . S
C1018 C1015 1.363 . S
C1018 N1016 1.356 . S
C1019 C1013 1.363 . S
C1019 C1014 1.379 . S
C1019 N1017 1.356 . S
N1020 C1012 1.356 . S
N1020 H1026 0.984 . S
N1020 H1027 0.984 . S
N1021 C1014 1.356 . S
N1021 H1024 0.984 . S
N1021 H1025 0.985 . S
H1022 N1017 0.984 . S
H1023 N1017 0.985 . S
H1024 N1021 0.984 . S
H1025 N1021 0.985 . S
H1026 N1020 0.984 . S
H1027 N1020 0.984 . S
H1028 N1016 0.984 . S
H1029 N1016 0.985 . S
C1030 C1031 1.363 . S
C1030 C1036 1.379 . S
C1030 N1038 1.356 . S
C1031 C1030 1.363 . S
C1031 C1037 1.344 1_455 S
C1032 C1033 1.363 1_655 S
C1032 C1037 1.381 . S
C1032 N1039 1.356 . S
C1033 C1032 1.363 1_455 S
C1033 C1036 1.363 . S
N1034 C1036 1.356 . S
N1034 H1046 0.984 . S
N1034 H1047 0.985 . S
N1035 C1037 1.369 . S
N1035 H1040 0.984 . S
N1035 H1041 0.985 . S
C1036 C1030 1.379 . S
C1036 C1033 1.363 . S
C1036 N1034 1.356 . S
C1037 C1031 1.344 1_655 S
C1037 C1032 1.381 . S
C1037 N1035 1.369 . S
N1038 C1030 1.356 . S
N1038 H1044 0.984 . S
N1038 H1045 0.984 . S
N1039 C1032 1.356 . S
N1039 H1042 0.984 . S
N1039 H1043 0.985 . S
H1040 N1035 0.984 . S
H1041 N1035 0.985 . S
H1042 N1039 0.984 . S
H1043 N1039 0.985 . S
H1044 N1038 0.984 . S
H1045 N1038 0.984 . S
H1046 N1034 0.984 . S
H1047 N1034 0.985 . S
C1048 C1049 1.363 . S
C1048 C1054 1.379 . S
C1048 N1056 1.356 . S
C1049 C1048 1.363 . S
C1049 C1055 1.363 . S
C1050 C1051 1.363 . S
C1050 C1055 1.379 . S
C1050 N1057 1.356 . S
C1051 C1050 1.363 . S
C1051 C1054 1.363 . S
N1052 C1054 1.356 . S
N1052 H1064 0.984 . S
N1052 H1065 0.985 . S
N1053 C1055 1.356 . S
N1053 H1058 0.984 . S
N1053 H1059 0.985 . S
C1054 C1048 1.379 . S
C1054 C1051 1.363 . S
C1054 N1052 1.356 . S
C1055 C1049 1.363 . S
C1055 C1050 1.379 . S
C1055 N1053 1.356 . S
N1056 C1048 1.356 . S
N1056 H1062 0.984 . S
N1056 H1063 0.984 . S
N1057 C1050 1.356 . S
N1057 H1060 0.984 . S
N1057 H1061 0.985 . S
H1058 N1053 0.984 . S
H1059 N1053 0.985 . S
H1060 N1057 0.984 . S
H1061 N1057 0.985 . S
H1062 N1056 0.984 . S
H1063 N1056 0.984 . S
H1064 N1052 0.984 . S
H1065 N1052 0.985 . S
C1066 C1067 1.363 . S
C1066 C1072 1.379 . S
C1066 N1074 1.356 . S
C1067 C1066 1.363 . S
C1067 C1073 1.363 . S
C1068 C1069 1.363 . S
C1068 C1073 1.379 . S
C1068 N1075 1.356 1_655 S
C1069 C1068 1.363 . S
C1069 C1072 1.363 . S
N1070 C1072 1.356 . S
N1070 H1082 0.984 . S
N1070 H1083 0.985 . S
N1071 C1073 1.356 . S
N1071 H1076 0.984 . S
N1071 H1077 0.984 1_655 S
C1072 C1066 1.379 . S
C1072 C1069 1.363 . S
C1072 N1070 1.356 . S
C1073 C1067 1.363 . S
C1073 C1068 1.379 . S
C1073 N1071 1.356 . S
N1074 C1066 1.356 . S
N1074 H1080 0.984 . S
N1074 H1081 0.984 . S
N1075 C1068 1.356 1_455 S
N1075 H1078 0.984 . S
N1075 H1079 0.985 . S
H1076 N1071 0.984 . S
H1077 N1071 0.984 1_455 S
H1078 N1075 0.984 . S
H1079 N1075 0.985 . S
H1080 N1074 0.984 . S
H1081 N1074 0.984 . S
H1082 N1070 0.984 . S
H1083 N1070 0.985 . S
C1084 C1085 1.363 . S
C1084 C1090 1.379 . S
C1084 N1092 1.356 . S
C1085 C1084 1.363 . S
C1085 C1091 1.363 . S
C1086 C1087 1.363 . S
C1086 C1091 1.379 . S
C1086 N1093 1.356 . S
C1087 C1086 1.363 . S
C1087 C1090 1.363 . S
N1088 C1090 1.356 . S
N1088 H1100 0.984 . S
N1088 H1101 0.985 . S
N1089 C1091 1.356 . S
N1089 H1094 0.984 . S
N1089 H1095 0.985 . S
C1090 C1084 1.379 . S
C1090 C1087 1.363 . S
C1090 N1088 1.356 . S
C1091 C1085 1.363 . S
C1091 C1086 1.379 . S
C1091 N1089 1.356 . S
N1092 C1084 1.356 . S
N1092 H1098 0.984 . S
N1092 H1099 0.984 . S
N1093 C1086 1.356 . S
N1093 H1096 0.984 . S
N1093 H1097 0.985 . S
H1094 N1089 0.984 . S
H1095 N1089 0.985 . S
H1096 N1093 0.984 . S
H1097 N1093 0.985 . S
H1098 N1092 0.984 . S
H1099 N1092 0.984 . S
H1100 N1088 0.984 . S
H1101 N1088 0.985 . S
C1102 C1103 1.363 . S
C1102 C1108 1.379 . S
C1102 N1110 1.356 . S
C1103 C1102 1.363 . S
C1103 C1109 1.363 . S
C1104 C1105 1.363 . S
C1104 C1109 1.379 . S
C1104 N1111 1.356 . S
C1105 C1104 1.363 . S
C1105 C1108 1.363 . S
N1106 C1108 1.356 . S
N1106 H1118 0.984 . S
N1106 H1119 0.985 . S
N1107 C1109 1.356 . S
N1107 H1112 0.984 . S
N1107 H1113 0.985 . S
C1108 C1102 1.379 . S
C1108 C1105 1.363 . S
C1108 N1106 1.356 . S
C1109 C1103 1.363 . S
C1109 C1104 1.379 . S
C1109 N1107 1.356 . S
N1110 C1102 1.356 . S
N1110 H1116 0.984 . S
N1110 H1117 0.984 . S
N1111 C1104 1.356 . S
N1111 H1114 0.984 . S
N1111 H1115 0.985 . S
H1112 N1107 0.984 . S
H1113 N1107 0.985 . S
H1114 N1111 0.984 . S
H1115 N1111 0.985 . S
H1116 N1110 0.984 . S
H1117 N1110 0.984 . S
H1118 N1106 0.984 . S
H1119 N1106 0.985 . S
C1120 C1121 1.363 1_554 S
C1120 C1126 1.379 . S
C1120 N1128 1.356 . S
C1121 C1120 1.363 1_556 S
C1121 C1127 1.363 . S
C1122 C1123 1.363 1_556 S
C1122 C1127 1.379 . S
C1122 N1129 1.356 . S
C1123 C1122 1.363 1_554 S
C1123 C1126 1.363 . S
N1124 C1126 1.356 . S
N1124 H1136 0.984 . S
N1124 H1137 0.985 . S
N1125 C1127 1.356 . S
N1125 H1130 0.984 . S
N1125 H1131 0.985 . S
C1126 C1120 1.379 . S
C1126 C1123 1.363 . S
C1126 N1124 1.356 . S
C1127 C1121 1.363 . S
C1127 C1122 1.379 . S
C1127 N1125 1.356 . S
N1128 C1120 1.356 . S
N1128 H1134 0.984 . S
N1128 H1135 0.984 . S
N1129 C1122 1.356 . S
N1129 H1132 0.984 . S
N1129 H1133 0.985 . S
H1130 N1125 0.984 . S
H1131 N1125 0.985 . S
H1132 N1129 0.984 . S
H1133 N1129 0.985 . S
H1134 N1128 0.984 . S
H1135 N1128 0.984 . S
H1136 N1124 0.984 . S
H1137 N1124 0.985 . S
C1138 C1139 1.363 . S
C1138 C1144 1.379 . S
C1138 N1146 1.356 . S
C1139 C1138 1.363 . S
C1139 C1145 1.363 . S
C1140 C1141 1.363 . S
C1140 C1145 1.379 . S
C1140 N1147 1.356 . S
C1141 C1140 1.363 . S
C1141 C1144 1.363 . S
N1142 C1144 1.356 . S
N1142 H1154 0.984 . S
N1142 H1155 0.985 . S
N1143 C1145 1.356 . S
N1143 H1148 0.984 . S
N1143 H1149 0.985 . S
C1144 C1138 1.379 . S
C1144 C1141 1.363 . S
C1144 N1142 1.356 . S
C1145 C1139 1.363 . S
C1145 C1140 1.379 . S
C1145 N1143 1.356 . S
N1146 C1138 1.356 . S
N1146 H1152 0.984 . S
N1146 H1153 0.984 . S
N1147 C1140 1.356 . S
N1147 H1150 0.984 . S
N1147 H1151 0.985 . S
H1148 N1143 0.984 . S
H1149 N1143 0.985 . S
H1150 N1147 0.984 . S
H1151 N1147 0.985 . S
H1152 N1146 0.984 . S
H1153 N1146 0.984 . S
H1154 N1142 0.984 . S
H1155 N1142 0.985 . S
C1156 C1157 1.363 . S
C1156 C1162 1.379 . S
C1156 N1164 1.356 . S
C1157 C1156 1.363 . S
C1157 C1163 1.363 . S
C1158 C1159 1.363 . S
C1158 C1163 1.379 . S
C1158 N1165 1.356 . S
C1159 C1158 1.363 . S
C1159 C1162 1.363 . S
N1160 C1162 1.356 . S
N1160 H1172 0.984 . S
N1160 H1173 0.985 . S
N1161 C1163 1.356 . S
N1161 H1166 0.984 . S
N1161 H1167 0.985 . S
C1162 C1156 1.379 . S
C1162 C1159 1.363 . S
C1162 N1160 1.356 . S
C1163 C1157 1.363 . S
C1163 C1158 1.379 . S
C1163 N1161 1.356 . S
N1164 C1156 1.356 . S
N1164 H1170 0.984 . S
N1164 H1171 0.984 . S
N1165 C1158 1.356 . S
N1165 H1168 0.984 . S
N1165 H1169 0.985 . S
H1166 N1161 0.984 . S
H1167 N1161 0.985 . S
H1168 N1165 0.984 . S
H1169 N1165 0.985 . S
H1170 N1164 0.984 . S
H1171 N1164 0.984 . S
H1172 N1160 0.984 . S
H1173 N1160 0.985 . S
C1174 C1175 1.363 . S
C1174 C1180 1.379 . S
C1174 N1182 1.356 . S
C1175 C1174 1.363 . S
C1175 C1181 1.363 . S
C1176 C1177 1.363 . S
C1176 C1181 1.379 . S
C1176 N1183 1.356 . S
C1177 C1176 1.363 . S
C1177 C1180 1.363 . S
N1178 C1180 1.356 . S
N1178 H1190 0.984 . S
N1178 H1191 0.985 . S
N1179 C1181 1.356 . S
N1179 H1184 0.984 . S
N1179 H1185 0.985 . S
C1180 C1174 1.379 . S
C1180 C1177 1.363 . S
C1180 N1178 1.356 . S
C1181 C1175 1.363 . S
C1181 C1176 1.379 . S
C1181 N1179 1.356 . S
N1182 C1174 1.356 . S
N1182 H1188 0.984 . S
N1182 H1189 0.984 . S
N1183 C1176 1.356 . S
N1183 H1186 0.984 . S
N1183 H1187 0.985 . S
H1184 N1179 0.984 . S
H1185 N1179 0.985 . S
H1186 N1183 0.984 . S
H1187 N1183 0.985 . S
H1188 N1182 0.984 . S
H1189 N1182 0.984 . S
H1190 N1178 0.984 . S
H1191 N1178 0.985 . S
C1192 C1193 1.363 . S
C1192 C1198 1.379 . S
C1192 N1200 1.356 . S
C1193 C1192 1.363 . S
C1193 C1199 1.363 . S
C1194 C1195 1.363 . S
C1194 C1199 1.379 . S
C1194 N1201 1.356 . S
C1195 C1194 1.363 . S
C1195 C1198 1.363 . S
N1196 C1198 1.356 . S
N1196 H1208 0.984 . S
N1196 H1209 0.985 . S
N1197 C1199 1.356 . S
N1197 H1202 0.984 . S
N1197 H1203 0.985 . S
C1198 C1192 1.379 . S
C1198 C1195 1.363 . S
C1198 N1196 1.356 . S
C1199 C1193 1.363 . S
C1199 C1194 1.379 . S
C1199 N1197 1.356 . S
N1200 C1192 1.356 . S
N1200 H1206 0.984 . S
N1200 H1207 0.984 . S
N1201 C1194 1.356 . S
N1201 H1204 0.984 . S
N1201 H1205 0.985 . S
H1202 N1197 0.984 . S
H1203 N1197 0.985 . S
H1204 N1201 0.984 . S
H1205 N1201 0.985 . S
H1206 N1200 0.984 . S
H1207 N1200 0.984 . S
H1208 N1196 0.984 . S
H1209 N1196 0.985 . S
C1210 C1211 1.363 . S
C1210 C1216 1.379 . S
C1210 N1218 1.356 . S
C1211 C1210 1.363 . S
C1211 C1217 1.363 . S
C1212 C1213 1.363 . S
C1212 C1217 1.379 . S
C1212 N1219 1.356 . S
C1213 C1212 1.363 . S
C1213 C1216 1.363 . S
N1214 C1216 1.356 . S
N1214 H1226 0.984 . S
N1214 H1227 0.985 . S
N1215 C1217 1.356 . S
N1215 H1220 0.984 . S
N1215 H1221 0.985 . S
C1216 C1210 1.379 . S
C1216 C1213 1.363 . S
C1216 N1214 1.356 . S
C1217 C1211 1.363 . S
C1217 C1212 1.379 . S
C1217 N1215 1.356 . S
N1218 C1210 1.356 . S
N1218 H1224 0.984 . S
N1218 H1225 0.984 . S
N1219 C1212 1.356 . S
N1219 H1222 0.984 . S
N1219 H1223 0.985 . S
H1220 N1215 0.984 . S
H1221 N1215 0.985 . S
H1222 N1219 0.984 . S
H1223 N1219 0.985 . S
H1224 N1218 0.984 . S
H1225 N1218 0.984 . S
H1226 N1214 0.984 . S
H1227 N1214 0.985 . S
C1228 C1229 1.363 . S
C1228 C1234 1.379 . S
C1228 N1236 1.356 . S
C1229 C1228 1.363 . S
C1229 C1235 1.363 . S
C1230 C1231 1.363 . S
C1230 C1235 1.379 . S
C1230 N1237 1.356 . S
C1231 C1230 1.363 . S
C1231 C1234 1.363 . S
N1232 C1234 1.356 . S
N1232 H1244 0.984 . S
N1232 H1245 0.985 . S
N1233 C1235 1.356 . S
N1233 H1238 0.984 . S
N1233 H1239 0.985 . S
C1234 C1228 1.379 . S
C1234 C1231 1.363 . S
C1234 N1232 1.356 . S
C1235 C1229 1.363 . S
C1235 C1230 1.379 . S
C1235 N1233 1.356 . S
N1236 C1228 1.356 . S
N1236 H1242 0.984 . S
N1236 H1243 0.984 . S
N1237 C1230 1.356 . S
N1237 H1240 0.984 . S
N1237 H1241 0.985 . S
H1238 N1233 0.984 . S
H1239 N1233 0.985 . S
H1240 N1237 0.984 . S
H1241 N1237 0.985 . S
H1242 N1236 0.984 . S
H1243 N1236 0.984 . S
H1244 N1232 0.984 . S
H1245 N1232 0.985 . S
C1246 C1247 1.363 . S
C1246 C1252 1.379 . S
C1246 N1254 1.356 . S
C1247 C1246 1.363 . S
C1247 C1253 1.365 1_545 S
C1248 C1249 1.363 1_565 S
C1248 C1253 1.378 . S
C1248 N1255 1.356 . S
C1249 C1248 1.363 1_545 S
C1249 C1252 1.363 . S
N1250 C1252 1.356 . S
N1250 H1262 0.984 . S
N1250 H1263 0.985 . S
N1251 C1253 1.355 . S
N1251 H1256 0.984 . S
N1251 H1257 0.985 . S
C1252 C1246 1.379 . S
C1252 C1249 1.363 . S
C1252 N1250 1.356 . S
C1253 C1247 1.365 1_565 S
C1253 C1248 1.378 . S
C1253 N1251 1.355 . S
N1254 C1246 1.356 . S
N1254 H1260 0.984 . S
N1254 H1261 0.984 . S
N1255 C1248 1.356 . S
N1255 H1258 0.984 . S
N1255 H1259 0.985 . S
H1256 N1251 0.984 . S
H1257 N1251 0.985 . S
H1258 N1255 0.984 . S
H1259 N1255 0.985 . S
H1260 N1254 0.984 . S
H1261 N1254 0.984 . S
H1262 N1250 0.984 . S
H1263 N1250 0.985 . S
C1264 C1265 1.363 . S
C1264 C1270 1.379 . S
C1264 N1272 1.356 . S
C1265 C1264 1.363 . S
C1265 C1271 1.363 . S
C1266 C1267 1.363 . S
C1266 C1271 1.379 . S
C1266 N1273 1.356 . S
C1267 C1266 1.363 . S
C1267 C1270 1.363 . S
N1268 C1270 1.356 . S
N1268 H1280 0.984 . S
N1268 H1281 0.985 . S
N1269 C1271 1.356 . S
N1269 H1274 0.984 . S
N1269 H1275 0.985 . S
C1270 C1264 1.379 . S
C1270 C1267 1.363 . S
C1270 N1268 1.356 . S
C1271 C1265 1.363 . S
C1271 C1266 1.379 . S
C1271 N1269 1.356 . S
N1272 C1264 1.356 . S
N1272 H1278 0.984 . S
N1272 H1279 0.984 . S
N1273 C1266 1.356 . S
N1273 H1276 0.984 . S
N1273 H1277 0.985 . S
H1274 N1269 0.984 . S
H1275 N1269 0.985 . S
H1276 N1273 0.984 . S
H1277 N1273 0.985 . S
H1278 N1272 0.984 . S
H1279 N1272 0.984 . S
H1280 N1268 0.984 . S
H1281 N1268 0.985 . S
C1282 C1283 1.363 . S
C1282 C1288 1.379 . S
C1282 N1290 1.356 . S
C1283 C1282 1.363 . S
C1283 C1289 1.363 . S
C1284 C1285 1.363 . S
C1284 C1289 1.379 . S
C1284 N1291 1.356 . S
C1285 C1284 1.363 . S
C1285 C1288 1.363 . S
N1286 C1288 1.356 . S
N1286 H1298 0.984 . S
N1286 H1299 0.985 . S
N1287 C1289 1.356 . S
N1287 H1292 0.984 . S
N1287 H1293 0.985 . S
C1288 C1282 1.379 . S
C1288 C1285 1.363 . S
C1288 N1286 1.356 . S
C1289 C1283 1.363 . S
C1289 C1284 1.379 . S
C1289 N1287 1.356 . S
N1290 C1282 1.356 . S
N1290 H1296 0.984 . S
N1290 H1297 0.984 . S
N1291 C1284 1.356 . S
N1291 H1294 0.984 . S
N1291 H1295 0.985 . S
H1292 N1287 0.984 . S
H1293 N1287 0.985 . S
H1294 N1291 0.984 . S
H1295 N1291 0.985 . S
H1296 N1290 0.984 . S
H1297 N1290 0.984 . S
H1298 N1286 0.984 . S
H1299 N1286 0.985 . S
C1300 C1301 1.363 . S
C1300 C1306 1.379 . S
C1300 N1308 1.356 . S
C1301 C1300 1.363 . S
C1301 C1307 1.363 . S
C1302 C1303 1.363 . S
C1302 C1307 1.379 . S
C1302 N1309 1.356 . S
C1303 C1302 1.363 . S
C1303 C1306 1.363 . S
N1304 C1306 1.356 . S
N1304 H1316 0.984 . S
N1304 H1317 0.985 . S
N1305 C1307 1.356 . S
N1305 H1310 0.984 . S
N1305 H1311 0.985 . S
C1306 C1300 1.379 . S
C1306 C1303 1.363 . S
C1306 N1304 1.356 . S
C1307 C1301 1.363 . S
C1307 C1302 1.379 . S
C1307 N1305 1.356 . S
N1308 C1300 1.356 . S
N1308 H1314 0.984 . S
N1308 H1315 0.984 . S
N1309 C1302 1.356 . S
N1309 H1312 0.984 . S
N1309 H1313 0.985 . S
H1310 N1305 0.984 . S
H1311 N1305 0.985 . S
H1312 N1309 0.984 . S
H1313 N1309 0.985 . S
H1314 N1308 0.984 . S
H1315 N1308 0.984 . S
H1316 N1304 0.984 . S
H1317 N1304 0.985 . S
C1318 C1319 1.363 . S
C1318 C1324 1.379 . S
C1318 N1326 1.356 . S
C1319 C1318 1.363 . S
C1319 C1325 1.363 . S
C1320 C1321 1.363 . S
C1320 C1325 1.379 . S
C1320 N1327 1.356 1_545 S
C1321 C1320 1.363 . S
C1321 C1324 1.363 . S
N1322 C1324 1.356 . S
N1322 H1334 0.984 . S
N1322 H1335 0.985 . S
N1323 C1325 1.356 1_565 S
N1323 H1328 0.984 . S
N1323 H1329 0.985 . S
C1324 C1318 1.379 . S
C1324 C1321 1.363 . S
C1324 N1322 1.356 . S
C1325 C1319 1.363 . S
C1325 C1320 1.379 . S
C1325 N1323 1.356 1_545 S
N1326 C1318 1.356 . S
N1326 H1332 0.984 . S
N1326 H1333 0.984 . S
N1327 C1320 1.356 1_565 S
N1327 H1330 0.984 . S
N1327 H1331 0.985 . S
H1328 N1323 0.984 . S
H1329 N1323 0.985 . S
H1330 N1327 0.984 . S
H1331 N1327 0.985 . S
H1332 N1326 0.984 . S
H1333 N1326 0.984 . S
H1334 N1322 0.984 . S
H1335 N1322 0.985 . S
C1336 C1337 1.363 . S
C1336 C1342 1.379 . S
C1336 N1344 1.356 . S
C1337 C1336 1.363 . S
C1337 C1343 1.363 . S
C1338 C1339 1.363 . S
C1338 C1343 1.379 . S
C1338 N1345 1.356 . S
C1339 C1338 1.363 . S
C1339 C1342 1.363 . S
N1340 C1342 1.356 . S
N1340 H1352 0.984 . S
N1340 H1353 0.985 . S
N1341 C1343 1.356 . S
N1341 H1346 0.984 . S
N1341 H1347 0.985 . S
C1342 C1336 1.379 . S
C1342 C1339 1.363 . S
C1342 N1340 1.356 . S
C1343 C1337 1.363 . S
C1343 C1338 1.379 . S
C1343 N1341 1.356 . S
N1344 C1336 1.356 . S
N1344 H1350 0.984 . S
N1344 H1351 0.984 . S
N1345 C1338 1.356 . S
N1345 H1348 0.984 . S
N1345 H1349 0.985 . S
H1346 N1341 0.984 . S
H1347 N1341 0.985 . S
H1348 N1345 0.984 . S
H1349 N1345 0.985 . S
H1350 N1344 0.984 . S
H1351 N1344 0.984 . S
H1352 N1340 0.984 . S
H1353 N1340 0.985 . S
C1354 C1355 1.363 . S
C1354 C1360 1.379 . S
C1354 N1362 1.356 . S
C1355 C1354 1.363 . S
C1355 C1361 1.363 . S
C1356 C1357 1.363 . S
C1356 C1361 1.379 . S
C1356 N1363 1.356 . S
C1357 C1356 1.363 . S
C1357 C1360 1.363 . S
N1358 C1360 1.356 . S
N1358 H1370 0.984 . S
N1358 H1371 0.985 . S
N1359 C1361 1.356 . S
N1359 H1364 0.984 . S
N1359 H1365 0.985 . S
C1360 C1354 1.379 . S
C1360 C1357 1.363 . S
C1360 N1358 1.356 . S
C1361 C1355 1.363 . S
C1361 C1356 1.379 . S
C1361 N1359 1.356 . S
N1362 C1354 1.356 . S
N1362 H1368 0.984 . S
N1362 H1369 0.984 . S
N1363 C1356 1.356 . S
N1363 H1366 0.984 . S
N1363 H1367 0.985 . S
H1364 N1359 0.984 . S
H1365 N1359 0.985 . S
H1366 N1363 0.984 . S
H1367 N1363 0.985 . S
H1368 N1362 0.984 . S
H1369 N1362 0.984 . S
H1370 N1358 0.984 . S
H1371 N1358 0.985 . S
C1372 C1373 1.363 . S
C1372 C1378 1.379 . S
C1372 N1380 1.356 . S
C1373 C1372 1.363 . S
C1373 C1379 1.363 . S
C1374 C1375 1.363 . S
C1374 C1379 1.379 . S
C1374 N1381 1.356 . S
C1375 C1374 1.363 . S
C1375 C1378 1.363 . S
N1376 C1378 1.356 . S
N1376 H1388 0.984 . S
N1376 H1389 0.985 . S
N1377 C1379 1.356 . S
N1377 H1382 0.984 . S
N1377 H1383 0.985 . S
C1378 C1372 1.379 . S
C1378 C1375 1.363 . S
C1378 N1376 1.356 . S
C1379 C1373 1.363 . S
C1379 C1374 1.379 . S
C1379 N1377 1.356 . S
N1380 C1372 1.356 . S
N1380 H1386 0.984 . S
N1380 H1387 0.984 . S
N1381 C1374 1.356 . S
N1381 H1384 0.984 . S
N1381 H1385 0.985 . S
H1382 N1377 0.984 . S
H1383 N1377 0.985 . S
H1384 N1381 0.984 . S
H1385 N1381 0.985 . S
H1386 N1380 0.984 . S
H1387 N1380 0.984 . S
H1388 N1376 0.984 . S
H1389 N1376 0.985 . S
C1390 C1391 1.363 . S
C1390 C1396 1.379 . S
C1390 N1398 1.356 . S
C1391 C1390 1.363 . S
C1391 C1397 1.363 1_655 S
C1392 C1393 1.363 1_455 S
C1392 C1397 1.379 . S
C1392 N1399 1.356 . S
C1393 C1392 1.363 1_655 S
C1393 C1396 1.363 . S
N1394 C1396 1.356 . S
N1394 H1406 0.984 . S
N1394 H1407 0.985 . S
N1395 C1397 1.356 . S
N1395 H1400 0.984 . S
N1395 H1401 0.985 . S
C1396 C1390 1.379 . S
C1396 C1393 1.363 . S
C1396 N1394 1.356 . S
C1397 C1391 1.363 1_455 S
C1397 C1392 1.379 . S
C1397 N1395 1.356 . S
N1398 C1390 1.356 . S
N1398 H1404 0.984 . S
N1398 H1405 0.984 . S
N1399 C1392 1.356 . S
N1399 H1402 0.984 . S
N1399 H1403 0.985 . S
H1400 N1395 0.984 . S
H1401 N1395 0.985 . S
H1402 N1399 0.984 . S
H1403 N1399 0.985 . S
H1404 N1398 0.984 . S
H1405 N1398 0.984 . S
H1406 N1394 0.984 . S
H1407 N1394 0.985 . S
C1408 C1409 1.363 . S
C1408 C1414 1.379 . S
C1408 N1416 1.356 . S
C1409 C1408 1.363 . S
C1409 C1415 1.363 . S
C1410 C1411 1.363 . S
C1410 C1415 1.379 . S
C1410 N1417 1.356 . S
C1411 C1410 1.363 . S
C1411 C1414 1.363 . S
N1412 C1414 1.356 . S
N1412 H1424 0.984 . S
N1412 H1425 0.985 . S
N1413 C1415 1.356 . S
N1413 H1418 0.984 . S
N1413 H1419 0.985 . S
C1414 C1408 1.379 . S
C1414 C1411 1.363 . S
C1414 N1412 1.356 . S
C1415 C1409 1.363 . S
C1415 C1410 1.379 . S
C1415 N1413 1.356 . S
N1416 C1408 1.356 . S
N1416 H1422 0.984 . S
N1416 H1423 0.984 . S
N1417 C1410 1.356 . S
N1417 H1420 0.984 . S
N1417 H1421 0.985 . S
H1418 N1413 0.984 . S
H1419 N1413 0.985 . S
H1420 N1417 0.984 . S
H1421 N1417 0.985 . S
H1422 N1416 0.984 . S
H1423 N1416 0.984 . S
H1424 N1412 0.984 . S
H1425 N1412 0.985 . S
C1426 C1427 1.363 . S
C1426 C1432 1.379 . S
C1426 N1434 1.356 1_455 S
C1427 C1426 1.363 . S
C1427 C1433 1.363 . S
C1428 C1429 1.363 . S
C1428 C1433 1.379 . S
C1428 N1435 1.356 . S
C1429 C1428 1.363 . S
C1429 C1432 1.363 . S
N1430 C1432 1.356 1_655 S
N1430 H1442 0.984 . S
N1430 H1443 0.985 . S
N1431 C1433 1.356 . S
N1431 H1436 0.984 . S
N1431 H1437 0.985 . S
C1432 C1426 1.379 . S
C1432 C1429 1.363 . S
C1432 N1430 1.356 1_455 S
C1433 C1427 1.363 . S
C1433 C1428 1.379 . S
C1433 N1431 1.356 . S
N1434 C1426 1.356 1_655 S
N1434 H1440 0.984 . S
N1434 H1441 0.984 1_655 S
N1435 C1428 1.356 . S
N1435 H1438 0.984 . S
N1435 H1439 0.985 . S
H1436 N1431 0.984 . S
H1437 N1431 0.985 . S
H1438 N1435 0.984 . S
H1439 N1435 0.985 . S
H1440 N1434 0.984 . S
H1441 N1434 0.984 1_455 S
H1442 N1430 0.984 . S
H1443 N1430 0.985 . S
C1444 C1445 1.363 . S
C1444 C1450 1.379 . S
C1444 N1452 1.356 . S
C1445 C1444 1.363 . S
C1445 C1451 1.363 . S
C1446 C1447 1.363 . S
C1446 C1451 1.379 . S
C1446 N1453 1.356 . S
C1447 C1446 1.363 . S
C1447 C1450 1.363 . S
N1448 C1450 1.356 . S
N1448 H1460 0.984 . S
N1448 H1461 0.985 . S
N1449 C1451 1.356 . S
N1449 H1454 0.984 . S
N1449 H1455 0.985 . S
C1450 C1444 1.379 . S
C1450 C1447 1.363 . S
C1450 N1448 1.356 . S
C1451 C1445 1.363 . S
C1451 C1446 1.379 . S
C1451 N1449 1.356 . S
N1452 C1444 1.356 . S
N1452 H1458 0.984 . S
N1452 H1459 0.984 . S
N1453 C1446 1.356 . S
N1453 H1456 0.984 . S
N1453 H1457 0.985 . S
H1454 N1449 0.984 . S
H1455 N1449 0.985 . S
H1456 N1453 0.984 . S
H1457 N1453 0.985 . S
H1458 N1452 0.984 . S
H1459 N1452 0.984 . S
H1460 N1448 0.984 . S
H1461 N1448 0.985 . S
C1462 C1463 1.363 . S
C1462 C1468 1.379 . S
C1462 N1470 1.356 . S
C1463 C1462 1.363 . S
C1463 C1469 1.363 . S
C1464 C1465 1.363 . S
C1464 C1469 1.379 . S
C1464 N1471 1.356 . S
C1465 C1464 1.363 . S
C1465 C1468 1.363 . S
N1466 C1468 1.356 . S
N1466 H1478 0.984 . S
N1466 H1479 0.985 . S
N1467 C1469 1.356 . S
N1467 H1472 0.984 . S
N1467 H1473 0.985 . S
C1468 C1462 1.379 . S
C1468 C1465 1.363 . S
C1468 N1466 1.356 . S
C1469 C1463 1.363 . S
C1469 C1464 1.379 . S
C1469 N1467 1.356 . S
N1470 C1462 1.356 . S
N1470 H1476 0.984 . S
N1470 H1477 0.984 . S
N1471 C1464 1.356 . S
N1471 H1474 0.984 . S
N1471 H1475 0.985 . S
H1472 N1467 0.984 . S
H1473 N1467 0.985 . S
H1474 N1471 0.984 . S
H1475 N1471 0.985 . S
H1476 N1470 0.984 . S
H1477 N1470 0.984 . S
H1478 N1466 0.984 . S
H1479 N1466 0.985 . S
C1480 C1481 1.363 . S
C1480 C1486 1.379 . S
C1480 N1488 1.356 . S
C1481 C1480 1.363 . S
C1481 C1487 1.363 . S
C1482 C1483 1.363 . S
C1482 C1487 1.379 . S
C1482 N1489 1.356 . S
C1483 C1482 1.363 . S
C1483 C1486 1.363 . S
N1484 C1486 1.356 . S
N1484 H1496 0.984 . S
N1484 H1497 0.985 . S
N1485 C1487 1.356 . S
N1485 H1490 0.984 . S
N1485 H1491 0.985 . S
C1486 C1480 1.379 . S
C1486 C1483 1.363 . S
C1486 N1484 1.356 . S
C1487 C1481 1.363 . S
C1487 C1482 1.379 . S
C1487 N1485 1.356 . S
N1488 C1480 1.356 . S
N1488 H1494 0.984 . S
N1488 H1495 0.984 . S
N1489 C1482 1.356 . S
N1489 H1492 0.984 . S
N1489 H1493 0.985 . S
H1490 N1485 0.984 . S
H1491 N1485 0.985 . S
H1492 N1489 0.984 . S
H1493 N1489 0.985 . S
H1494 N1488 0.984 . S
H1495 N1488 0.984 . S
H1496 N1484 0.984 . S
H1497 N1484 0.985 . S
C1498 C1499 1.363 . S
C1498 C1504 1.379 . S
C1498 N1506 1.356 . S
C1499 C1498 1.363 . S
C1499 C1505 1.363 . S
C1500 C1501 1.363 . S
C1500 C1505 1.379 . S
C1500 N1507 1.356 . S
C1501 C1500 1.363 . S
C1501 C1504 1.363 . S
N1502 C1504 1.356 . S
N1502 H1514 0.984 . S
N1502 H1515 0.985 . S
N1503 C1505 1.356 . S
N1503 H1508 0.984 . S
N1503 H1509 0.985 . S
C1504 C1498 1.379 . S
C1504 C1501 1.363 . S
C1504 N1502 1.356 . S
C1505 C1499 1.363 . S
C1505 C1500 1.379 . S
C1505 N1503 1.356 . S
N1506 C1498 1.356 . S
N1506 H1512 0.984 . S
N1506 H1513 0.984 . S
N1507 C1500 1.356 . S
N1507 H1510 0.984 . S
N1507 H1511 0.985 . S
H1508 N1503 0.984 . S
H1509 N1503 0.985 . S
H1510 N1507 0.984 . S
H1511 N1507 0.985 . S
H1512 N1506 0.984 . S
H1513 N1506 0.984 . S
H1514 N1502 0.984 . S
H1515 N1502 0.985 . S
C1516 C1517 1.363 . S
C1516 C1522 1.379 . S
C1516 N1524 1.356 . S
C1517 C1516 1.363 . S
C1517 C1523 1.363 . S
C1518 C1519 1.363 . S
C1518 C1523 1.379 . S
C1518 N1525 1.356 . S
C1519 C1518 1.363 . S
C1519 C1522 1.363 . S
N1520 C1522 1.356 . S
N1520 H1532 0.984 . S
N1520 H1533 0.985 . S
N1521 C1523 1.356 . S
N1521 H1526 0.984 . S
N1521 H1527 0.985 . S
C1522 C1516 1.379 . S
C1522 C1519 1.363 . S
C1522 N1520 1.356 . S
C1523 C1517 1.363 . S
C1523 C1518 1.379 . S
C1523 N1521 1.356 . S
N1524 C1516 1.356 . S
N1524 H1530 0.984 . S
N1524 H1531 0.984 . S
N1525 C1518 1.356 . S
N1525 H1528 0.984 . S
N1525 H1529 0.985 . S
H1526 N1521 0.984 . S
H1527 N1521 0.985 . S
H1528 N1525 0.984 . S
H1529 N1525 0.985 . S
H1530 N1524 0.984 . S
H1531 N1524 0.984 . S
H1532 N1520 0.984 . S
H1533 N1520 0.985 . S
C1534 C1535 1.363 . S
C1534 C1540 1.379 . S
C1534 N1542 1.356 . S
C1535 C1534 1.363 . S
C1535 C1541 1.363 . S
C1536 C1537 1.363 . S
C1536 C1541 1.379 . S
C1536 N1543 1.356 . S
C1537 C1536 1.363 . S
C1537 C1540 1.363 . S
N1538 C1540 1.356 . S
N1538 H1550 0.984 . S
N1538 H1551 0.985 . S
N1539 C1541 1.356 . S
N1539 H1544 0.984 . S
N1539 H1545 0.985 . S
C1540 C1534 1.379 . S
C1540 C1537 1.363 . S
C1540 N1538 1.356 . S
C1541 C1535 1.363 . S
C1541 C1536 1.379 . S
C1541 N1539 1.356 . S
N1542 C1534 1.356 . S
N1542 H1548 0.984 . S
N1542 H1549 0.984 . S
N1543 C1536 1.356 . S
N1543 H1546 0.984 . S
N1543 H1547 0.985 . S
H1544 N1539 0.984 . S
H1545 N1539 0.985 . S
H1546 N1543 0.984 . S
H1547 N1543 0.985 . S
H1548 N1542 0.984 . S
H1549 N1542 0.984 . S
H1550 N1538 0.984 . S
H1551 N1538 0.985 . S
C1552 C1553 1.363 . S
C1552 C1558 1.379 . S
C1552 N1560 1.356 . S
C1553 C1552 1.363 . S
C1553 C1559 1.363 . S
C1554 C1555 1.363 . S
C1554 C1559 1.379 . S
C1554 N1561 1.356 . S
C1555 C1554 1.363 . S
C1555 C1558 1.363 . S
N1556 C1558 1.356 . S
N1556 H1568 0.984 . S
N1556 H1569 0.985 . S
N1557 C1559 1.356 . S
N1557 H1562 0.984 . S
N1557 H1563 0.985 . S
C1558 C1552 1.379 . S
C1558 C1555 1.363 . S
C1558 N1556 1.356 . S
C1559 C1553 1.363 . S
C1559 C1554 1.379 . S
C1559 N1557 1.356 . S
N1560 C1552 1.356 . S
N1560 H1566 0.984 . S
N1560 H1567 0.984 . S
N1561 C1554 1.356 . S
N1561 H1564 0.984 . S
N1561 H1565 0.985 . S
H1562 N1557 0.984 . S
H1563 N1557 0.985 . S
H1564 N1561 0.984 . S
H1565 N1561 0.985 . S
H1566 N1560 0.984 . S
H1567 N1560 0.984 . S
H1568 N1556 0.984 . S
H1569 N1556 0.985 . S
C1570 C1571 1.363 . S
C1570 C1576 1.379 . S
C1570 N1578 1.356 . S
C1571 C1570 1.363 . S
C1571 C1577 1.363 . S
C1572 C1573 1.363 . S
C1572 C1577 1.379 . S
C1572 N1579 1.356 . S
C1573 C1572 1.363 . S
C1573 C1576 1.363 . S
N1574 C1576 1.356 . S
N1574 H1586 0.984 . S
N1574 H1587 0.985 . S
N1575 C1577 1.356 . S
N1575 H1580 0.984 . S
N1575 H1581 0.985 . S
C1576 C1570 1.379 . S
C1576 C1573 1.363 . S
C1576 N1574 1.356 . S
C1577 C1571 1.363 . S
C1577 C1572 1.379 . S
C1577 N1575 1.356 . S
N1578 C1570 1.356 . S
N1578 H1584 0.984 . S
N1578 H1585 0.984 . S
N1579 C1572 1.356 . S
N1579 H1582 0.984 . S
N1579 H1583 0.985 . S
H1580 N1575 0.984 . S
H1581 N1575 0.985 . S
H1582 N1579 0.984 . S
H1583 N1579 0.985 . S
H1584 N1578 0.984 . S
H1585 N1578 0.984 . S
H1586 N1574 0.984 . S
H1587 N1574 0.985 . S
C1588 C1589 1.363 . S
C1588 C1594 1.379 . S
C1588 N1596 1.356 . S
C1589 C1588 1.363 . S
C1589 C1595 1.363 . S
C1590 C1591 1.363 . S
C1590 C1595 1.379 . S
C1590 N1597 1.356 1_556 S
C1591 C1590 1.363 . S
C1591 C1594 1.363 . S
N1592 C1594 1.356 . S
N1592 H1604 0.984 . S
N1592 H1605 0.985 . S
N1593 C1595 1.356 . S
N1593 H1598 0.984 . S
N1593 H1599 0.988 . S
C1594 C1588 1.379 . S
C1594 C1591 1.363 . S
C1594 N1592 1.356 . S
C1595 C1589 1.363 . S
C1595 C1590 1.379 . S
C1595 N1593 1.356 . S
N1596 C1588 1.356 . S
N1596 H1602 0.984 . S
N1596 H1603 0.984 . S
N1597 C1590 1.356 1_554 S
N1597 H1600 0.984 . S
N1597 H1601 0.985 . S
H1598 N1593 0.984 . S
H1599 N1593 0.988 . S
H1600 N1597 0.984 . S
H1601 N1597 0.985 . S
H1602 N1596 0.984 . S
H1603 N1596 0.984 . S
H1604 N1592 0.984 . S
H1605 N1592 0.985 . S
C1606 C1607 1.363 . S
C1606 C1612 1.379 . S
C1606 N1614 1.356 . S
C1607 C1606 1.363 . S
C1607 C1613 1.363 . S
C1608 C1609 1.363 . S
C1608 C1613 1.379 . S
C1608 N1615 1.356 . S
C1609 C1608 1.363 . S
C1609 C1612 1.363 . S
N1610 C1612 1.356 . S
N1610 H1622 0.984 . S
N1610 H1623 0.985 . S
N1611 C1613 1.356 . S
N1611 H1616 0.984 . S
N1611 H1617 0.985 . S
C1612 C1606 1.379 . S
C1612 C1609 1.363 . S
C1612 N1610 1.356 . S
C1613 C1607 1.363 . S
C1613 C1608 1.379 . S
C1613 N1611 1.356 . S
N1614 C1606 1.356 . S
N1614 H1620 0.984 . S
N1614 H1621 0.984 . S
N1615 C1608 1.356 . S
N1615 H1618 0.984 . S
N1615 H1619 0.985 . S
H1616 N1611 0.984 . S
H1617 N1611 0.985 . S
H1618 N1615 0.984 . S
H1619 N1615 0.985 . S
H1620 N1614 0.984 . S
H1621 N1614 0.984 . S
H1622 N1610 0.984 . S
H1623 N1610 0.985 . S
C1624 C1625 1.363 1_556 S
C1624 C1630 1.379 . S
C1624 N1632 1.356 . S
C1625 C1624 1.363 1_554 S
C1625 C1631 1.363 . S
C1626 C1627 1.363 . S
C1626 C1631 1.379 . S
C1626 N1633 1.356 . S
C1627 C1626 1.363 . S
C1627 C1630 1.363 1_554 S
N1628 C1630 1.356 . S
N1628 H1640 0.984 . S
N1628 H1641 0.985 . S
N1629 C1631 1.356 . S
N1629 H1634 0.984 . S
N1629 H1635 0.985 . S
C1630 C1624 1.379 . S
C1630 C1627 1.363 1_556 S
C1630 N1628 1.356 . S
C1631 C1625 1.363 . S
C1631 C1626 1.379 . S
C1631 N1629 1.356 . S
N1632 C1624 1.356 . S
N1632 H1638 0.984 . S
N1632 H1639 0.984 . S
N1633 C1626 1.356 . S
N1633 H1636 0.984 . S
N1633 H1637 0.985 . S
H1634 N1629 0.984 . S
H1635 N1629 0.985 . S
H1636 N1633 0.984 . S
H1637 N1633 0.985 . S
H1638 N1632 0.984 . S
H1639 N1632 0.984 . S
H1640 N1628 0.984 . S
H1641 N1628 0.985 . S
C1642 C1643 1.363 . S
C1642 C1648 1.379 . S
C1642 N1650 1.356 1_554 S
C1643 C1642 1.363 . S
C1643 C1649 1.363 . S
C1644 C1645 1.363 . S
C1644 C1649 1.379 . S
C1644 N1651 1.356 . S
C1645 C1644 1.363 . S
C1645 C1648 1.363 . S
N1646 C1648 1.356 1_556 S
N1646 H1658 0.984 . S
N1646 H1659 0.985 . S
N1647 C1649 1.356 . S
N1647 H1652 0.984 . S
N1647 H1653 0.985 . S
C1648 C1642 1.379 . S
C1648 C1645 1.363 . S
C1648 N1646 1.356 1_554 S
C1649 C1643 1.363 . S
C1649 C1644 1.379 . S
C1649 N1647 1.356 . S
N1650 C1642 1.356 1_556 S
N1650 H1656 0.984 . S
N1650 H1657 0.977 1_556 S
N1651 C1644 1.356 . S
N1651 H1654 0.984 . S
N1651 H1655 0.985 . S
H1652 N1647 0.984 . S
H1653 N1647 0.985 . S
H1654 N1651 0.984 . S
H1655 N1651 0.985 . S
H1656 N1650 0.984 . S
H1657 N1650 0.977 1_554 S
H1658 N1646 0.984 . S
H1659 N1646 0.985 . S
C799 C650 1.421 . S
C797 C202 1.419 . S
C817 C663 1.604 . S
C815 C261 1.613 . S
C833 C282 1.454 . S
C835 C676 1.458 . S
C853 C689 1.522 . S
C851 C162 1.521 . S
C871 C697 1.453 . S
C869 C402 1.481 . S
C889 C710 1.422 . S
C887 C482 1.434 . S
C905 C442 1.514 . S
C907 C723 1.502 . S
C925 C736 1.514 . S
C923 C381 1.525 . S
C941 C461 1.474 . S
C943 C754 1.471 . S
C961 C765 1.477 . S
C959 C362 1.506 . S
C977 C415 1.431 . S
C979 C749 1.398 . S
C997 C757 1.476 . S
C995 C495 1.505 . S
C1013 C301 1.528 . S
C1015 C780 1.525 . S
C1031 C175 1.531 . S
C1033 C770 1.495 . S
C1049 C215 1.478 . S
C1051 C775 1.441 . S
C1067 C242 1.536 . S
C1069 C778 1.509 1_655 S
C1085 C141 1.499 . S
C1087 C687 1.467 . S
C1103 C581 1.465 . S
C1105 C679 1.448 . S
C1123 C648 1.501 . S
C1121 C615 1.528 . S
C1141 C653 1.488 . S
C1139 C335 1.505 . S
C1157 C181 1.581 . S
C1159 C700 1.553 . S
C1177 C739 1.492 . S
C1175 C455 1.517 . S
C1195 C692 1.440 . S
C1193 C375 1.468 . S
C1213 C718 1.490 . S
C1211 C501 1.523 . S
C1231 C728 1.421 . S
C1229 C562 1.419 . S
C1247 C621 1.613 . S
C1249 C741 1.604 . S
C1265 C322 1.454 . S
C1267 C702 1.457 . S
C1285 C715 1.522 . S
C1283 C522 1.521 . S
C1301 C122 1.481 . S
C1303 C671 1.452 . S
C1321 C684 1.422 . S
C1319 C2 1.434 . S
C1339 C645 1.502 . S
C1337 C42 1.514 . S
C1357 C658 1.514 . S
C1355 C101 1.525 . S
C1373 C61 1.474 . S
C1375 C767 1.471 . S
C1391 C82 1.506 . S
C1393 C752 1.477 1_655 S
C1409 C135 1.431 . S
C1411 C762 1.398 . S
C1427 C15 1.505 . S
C1429 C744 1.476 . S
C1447 C793 1.525 . S
C1445 C341 1.528 . S
C1465 C783 1.495 . S
C1463 C535 1.531 . S
C1483 C788 1.441 . S
C1481 C575 1.478 . S
C1499 C602 1.536 . S
C1501 C791 1.509 . S
C1517 C421 1.499 . S
C1519 C713 1.467 . S
C1537 C705 1.448 . S
C1535 C221 1.465 . S
C1555 C726 1.501 . S
C1553 C255 1.528 . S
C1573 C731 1.488 . S
C1571 C295 1.507 . S
C1589 C541 1.581 . S
C1591 C674 1.553 . S
C1609 C661 1.492 . S
C1607 C55 1.519 . S
C1625 C95 1.468 . S
C1627 C666 1.440 . S
C1645 C640 1.490 . S
C1643 C21 1.523 . S
