# Generated by pormake.
# Topology pyr, (3,6)-cn, num edge types: 1
# Building blocks:
#     Node 0, Type 0, BuildingBlock: OLANEW_clean_sbu_2, # of connection points: 3
#     Node 1, Type 0, BuildingBlock: OLANEW_clean_sbu_2, # of connection points: 3
#     Node 2, Type 0, BuildingBlock: OLANEW_clean_sbu_2, # of connection points: 3
#     Node 3, Type 0, BuildingBlock: OLANEW_clean_sbu_2, # of connection points: 3
#     Node 4, Type 0, BuildingBlock: OLANEW_clean_sbu_2, # of connection points: 3
#     Node 5, Type 0, BuildingBlock: OLANEW_clean_sbu_2, # of connection points: 3
#     Node 6, Type 0, BuildingBlock: OLANEW_clean_sbu_2, # of connection points: 3
#     Node 7, Type 0, BuildingBlock: OLANEW_clean_sbu_2, # of connection points: 3
#     Node 8, Type 1, BuildingBlock: LEVNOQ01_clean_sbu_1, # of connection points: 6
#     Node 9, Type 1, BuildingBlock: LEVNOQ01_clean_sbu_1, # of connection points: 6
#     Node 10, Type 1, BuildingBlock: LEVNOQ01_clean_sbu_1, # of connection points: 6
#     Node 11, Type 1, BuildingBlock: LEVNOQ01_clean_sbu_1, # of connection points: 6
#     Edge 12, Type (0, 1), BuildingBlock: XIVTED_clean_linker_0, # of connection points: 2
#     Edge 13, Type (0, 1), BuildingBlock: XIVTED_clean_linker_0, # of connection points: 2
#     Edge 14, Type (0, 1), BuildingBlock: XIVTED_clean_linker_0, # of connection points: 2
#     Edge 15, Type (0, 1), BuildingBlock: XIVTED_clean_linker_0, # of connection points: 2
#     Edge 16, Type (0, 1), BuildingBlock: XIVTED_clean_linker_0, # of connection points: 2
#     Edge 17, Type (0, 1), BuildingBlock: XIVTED_clean_linker_0, # of connection points: 2
#     Edge 18, Type (0, 1), BuildingBlock: XIVTED_clean_linker_0, # of connection points: 2
#     Edge 19, Type (0, 1), BuildingBlock: XIVTED_clean_linker_0, # of connection points: 2
#     Edge 20, Type (0, 1), BuildingBlock: XIVTED_clean_linker_0, # of connection points: 2
#     Edge 21, Type (0, 1), BuildingBlock: XIVTED_clean_linker_0, # of connection points: 2
#     Edge 22, Type (0, 1), BuildingBlock: XIVTED_clean_linker_0, # of connection points: 2
#     Edge 23, Type (0, 1), BuildingBlock: XIVTED_clean_linker_0, # of connection points: 2
#     Edge 24, Type (0, 1), BuildingBlock: XIVTED_clean_linker_0, # of connection points: 2
#     Edge 25, Type (0, 1), BuildingBlock: XIVTED_clean_linker_0, # of connection points: 2
#     Edge 26, Type (0, 1), BuildingBlock: XIVTED_clean_linker_0, # of connection points: 2
#     Edge 27, Type (0, 1), BuildingBlock: XIVTED_clean_linker_0, # of connection points: 2
#     Edge 28, Type (0, 1), BuildingBlock: XIVTED_clean_linker_0, # of connection points: 2
#     Edge 29, Type (0, 1), BuildingBlock: XIVTED_clean_linker_0, # of connection points: 2
#     Edge 30, Type (0, 1), BuildingBlock: XIVTED_clean_linker_0, # of connection points: 2
#     Edge 31, Type (0, 1), BuildingBlock: XIVTED_clean_linker_0, # of connection points: 2
#     Edge 32, Type (0, 1), BuildingBlock: XIVTED_clean_linker_0, # of connection points: 2
#     Edge 33, Type (0, 1), BuildingBlock: XIVTED_clean_linker_0, # of connection points: 2
#     Edge 34, Type (0, 1), BuildingBlock: XIVTED_clean_linker_0, # of connection points: 2
#     Edge 35, Type (0, 1), BuildingBlock: XIVTED_clean_linker_0, # of connection points: 2
# Relax obj value: 0.070
# Max RMSD: 0.149
# Mean RMSD: 0.120
data_MOF--net-pry--node1-OLANEW_clean_sbu_2--node2-LEVNOQ01_clean_sbu_1--edge1-XIVTED_clean_linker_0
_symmetry_space_group_name_H-M    P1
_symmetry_Int_Tables_number       1
_symmetry_cell_setting            triclinic
loop_
_symmetry_equiv_pos_as_xyz
'x, y, z'
_cell_length_a     39.499384
_cell_length_b     38.584379
_cell_length_c     37.471226
_cell_angle_alpha  96.551205
_cell_angle_beta   90.38667
_cell_angle_gamma 99.623581
loop_
_atom_site_label
_atom_site_type_symbol
_atom_site_fract_x
_atom_site_fract_y
_atom_site_fract_z
_atom_type_partial_charge
O0 O 0.17867 0.13163 0.10669 0.0
Cd1 Cd 0.12755 0.15645 0.12631 0.0
O2 O 0.18595 0.11716 0.1611 0.0
Cd3 Cd 0.14213 0.13407 0.189 0.0
O4 O 0.11807 0.12446 0.24015 0.0
C5 C 0.12279 0.09524 0.25026 0.0
O6 O 0.13957 0.07475 0.22919 0.0
C7 C 0.1956 0.11805 0.12886 0.0
C8 C 0.11128 0.21171 0.0904 0.0
O9 O 0.13303 0.21781 0.11686 0.0
O10 O 0.09796 0.17943 0.08021 0.0
O11 O 0.44471 0.93928 0.69641 0.0
Cd12 Cd 0.43267 0.91981 0.63222 0.0
O13 O 0.3901 0.92258 0.70395 0.0
Cd14 Cd 0.3385 0.91234 0.72519 0.0
O15 O 0.2877 0.90958 0.7009 0.0
C16 C 0.28964 0.91997 0.66987 0.0
O17 O 0.32019 0.93062 0.65744 0.0
C18 C 0.41948 0.93688 0.71734 0.0
C19 C 0.45433 0.85615 0.60861 0.0
O20 O 0.47498 0.88573 0.61055 0.0
O21 O 0.42322 0.85653 0.61797 0.0
O22 O 0.67285 0.46366 0.94217 0.0
Cd23 Cd 0.61723 0.46548 0.91493 0.0
O24 O 0.67143 0.41755 0.90271 0.0
Cd25 Cd 0.68073 0.36806 0.87333 0.0
O26 O 0.66472 0.31274 0.88017 0.0
C27 C 0.66841 0.30713 0.91257 0.0
O28 O 0.68296 0.33349 0.93598 0.0
C29 C 0.6874 0.4386 0.92835 0.0
C30 C 0.62283 0.46073 0.84052 0.0
O31 O 0.6317 0.49004 0.86066 0.0
O32 O 0.61073 0.43315 0.85545 0.0
O33 O 0.94968 0.64879 0.45216 0.0
Cd34 Cd 0.92997 0.58863 0.42314 0.0
O35 O 0.95631 0.63489 0.50695 0.0
Cd36 Cd 0.92876 0.58134 0.49303 0.0
O37 O 0.87355 0.56618 0.49724 0.0
C38 C 0.8574 0.59021 0.48926 0.0
O39 O 0.87482 0.6187 0.47777 0.0
C40 C 0.95909 0.65786 0.48491 0.0
C41 C 0.93599 0.5865 0.34865 0.0
O42 O 0.9619 0.58631 0.36932 0.0
O43 O 0.90672 0.58728 0.36299 0.0
O44 O 0.89416 0.87805 0.88172 0.0
Cd45 Cd 0.88012 0.8608 0.94177 0.0
O46 O 0.88791 0.93306 0.89932 0.0
Cd47 Cd 0.86205 0.92562 0.94992 0.0
O48 O 0.81542 0.93911 0.97533 0.0
C49 C 0.79077 0.93745 0.95287 0.0
O50 O 0.79545 0.92691 0.91893 0.0
C51 C 0.89636 0.91007 0.87544 0.0
C52 C 0.91 0.80363 0.9591 0.0
O53 O 0.87877 0.799 0.94754 0.0
O54 O 0.92722 0.83511 0.96218 0.0
O55 O 0.62313 0.06129 0.40866 0.0
Cd56 Cd 0.63289 0.08183 0.47277 0.0
O57 O 0.6359 0.11817 0.40769 0.0
Cd58 Cd 0.6362 0.16964 0.38928 0.0
O59 O 0.61763 0.21928 0.40259 0.0
C60 C 0.62099 0.23312 0.43515 0.0
O61 O 0.6375 0.21836 0.45822 0.0
C62 C 0.62642 0.08757 0.39074 0.0
C63 C 0.69887 0.07989 0.49789 0.0
O64 O 0.67407 0.05424 0.50022 0.0
O65 O 0.69261 0.10668 0.48326 0.0
O66 O 0.40805 0.70402 0.16896 0.0
Cd67 Cd 0.38995 0.64251 0.18111 0.0
O68 O 0.3862 0.73213 0.21527 0.0
Cd69 Cd 0.35148 0.68286 0.21695 0.0
O70 O 0.31444 0.64492 0.18312 0.0
C71 C 0.30669 0.65456 0.15321 0.0
O72 O 0.32125 0.68576 0.14508 0.0
C73 C 0.40507 0.73282 0.188 0.0
C74 C 0.40484 0.63306 0.25194 0.0
O75 O 0.42865 0.63817 0.22915 0.0
O76 O 0.37377 0.63159 0.24121 0.0
O77 O 0.12976 0.48504 0.67369 0.0
Cd78 Cd 0.13044 0.47415 0.60807 0.0
O79 O 0.13473 0.42947 0.66576 0.0
Cd80 Cd 0.13589 0.37591 0.67691 0.0
O81 O 0.11477 0.3253 0.64762 0.0
C82 C 0.08313 0.32063 0.63858 0.0
O83 O 0.06478 0.34501 0.64967 0.0
C84 C 0.13136 0.45659 0.6871 0.0
C85 C 0.19666 0.46912 0.58618 0.0
O86 O 0.18424 0.49753 0.58447 0.0
O87 O 0.17755 0.44267 0.5976 0.0
O88 O 0.01653 0.01901 0.65622 0.0
Mg89 Mg 0.05289 0.04415 0.62249 0.0
O90 O 0.98344 0.98232 0.61474 0.0
Mg91 Mg 0.0019 -0.0023 0.55778 0.0
O92 O 0.02506 0.05313 0.58047 0.0
O93 O 0.05553 0.09722 0.6159 0.0
O94 O 0.02181 0.01421 0.50194 0.0
O95 O 0.951 0.02106 0.55302 0.0
Mg96 Mg 0.95341 0.95826 0.49309 0.0
O97 O 0.97833 0.94096 0.53387 0.0
O98 O 0.99029 0.97994 0.45801 0.0
O99 O 0.91603 0.98833 0.51096 0.0
O100 O 0.94374 0.90457 0.49332 0.0
C101 C 0.08298 0.98639 0.57933 0.0
C102 C 0.99138 0.99419 0.64764 0.0
C103 C 0.03495 0.08664 0.58855 0.0
C104 C 0.01549 0.00393 0.46854 0.0
C105 C 0.92241 0.01408 0.53546 0.0
C106 C 0.96502 0.90909 0.52037 0.0
O107 O 0.08953 0.0148 0.60062 0.0
O108 O 0.05328 0.9754 0.56443 0.0
O109 O 0.44803 0.10556 0.08952 0.0
Mg110 Mg 0.50177 0.11434 0.08919 0.0
O111 O 0.44687 0.04926 0.06936 0.0
Mg112 Mg 0.50286 0.03848 0.05703 0.0
O113 O 0.52433 0.09537 0.0435 0.0
O114 O 0.52498 0.15311 0.06122 0.0
O115 O 0.55656 0.02457 0.04342 0.0
O116 O 0.48757 0.03404 0.99351 0.0
Mg117 Mg 0.48563 0.98401 0.02368 0.0
O118 O 0.4817 0.98078 0.07695 0.0
O119 O 0.53486 0.98399 -3e-05 0.0
O120 O 0.44256 0.99404 0.99524 0.0
O121 O 0.47046 0.93447 0.03389 0.0
C122 C 0.53244 0.07588 0.14108 0.0
C123 C 0.43146 0.07487 0.08033 0.0
C124 C 0.53423 0.12847 0.03911 0.0
C125 C 0.56096 0.00226 0.01685 0.0
C126 C 0.45969 0.0171 0.97855 0.0
C127 C 0.47131 0.94713 0.06723 0.0
O128 O 0.52846 0.10654 0.13497 0.0
O129 O 0.52266 0.04895 0.11789 0.0
O130 O 0.52422 0.61265 0.60927 0.0
Mg131 Mg 0.51239 0.55882 0.6161 0.0
O132 O 0.52081 0.59579 0.55097 0.0
Mg133 Mg 0.52582 0.53573 0.53847 0.0
O134 O 0.54606 0.52737 0.59506 0.0
O135 O 0.54048 0.54268 0.65413 0.0
O136 O 0.53034 0.47546 0.52431 0.0
O137 O 0.58389 0.5537 0.52687 0.0
Mg138 Mg 0.54102 0.51758 0.4587 0.0
O139 O 0.50573 0.5447 0.48232 0.0
O140 O 0.53087 0.46406 0.46509 0.0
O141 O 0.59131 0.54541 0.46815 0.0
O142 O 0.51089 0.53402 0.42264 0.0
C143 C 0.44918 0.51781 0.57811 0.0
C144 C 0.52261 0.62003 0.57741 0.0
C145 C 0.5546 0.52562 0.62832 0.0
C146 C 0.52995 0.45364 0.49589 0.0
C147 C 0.60308 0.55632 0.49968 0.0
C148 C 0.49613 0.54817 0.44986 0.0
O149 O 0.46115 0.53265 0.60856 0.0
O150 O 0.46813 0.51726 0.55065 0.0
O151 O -0.00024 0.42714 0.05439 0.0
Mg152 Mg 0.02346 0.48046 0.06759 0.0
O153 O 0.03125 0.44723 0.01167 0.0
Mg154 Mg 0.01409 0.5044 0.01075 0.0
O155 O 0.9951 0.52016 0.07068 0.0
O156 O 0.0114 0.49527 0.11819 0.0
O157 O -0.00014 0.56196 0.00686 0.0
O158 O 0.95692 0.47629 0.00077 0.0
Mg159 Mg 0.99316 0.51636 0.94348 0.0
O160 O 0.03321 0.4903 0.95122 0.0
O161 O 0.00415 0.57135 0.95027 0.0
O162 O 0.94258 0.49083 0.9483 0.0
O163 O 0.01102 0.49711 0.89721 0.0
C164 C 0.08996 0.51961 0.04455 0.0
C165 C 0.01862 0.4212 0.02829 0.0
C166 C 0.99516 0.51738 0.10503 0.0
C167 C 0.00083 0.5829 0.98263 0.0
C168 C 0.93472 0.47541 0.97575 0.0
C169 C 0.0335 0.48606 0.91614 0.0
O170 O 0.0778 0.49496 0.06289 0.0
O171 O 0.07002 0.53173 0.02414 0.0
H172 H 0.0953 0.13406 0.30573 0.0
H173 H 0.04053 0.96761 0.41196 0.0
H174 H 0.12205 0.03113 0.27418 0.0
H175 H 0.04045 0.07388 0.46199 0.0
H176 H 0.07065 0.99135 0.36123 0.0
H177 H 0.07439 0.11377 0.36271 0.0
C178 C 0.0968 0.10727 0.31077 0.0
C179 C 0.11021 0.08417 0.28503 0.0
C180 C 0.06445 0.00964 0.38337 0.0
C181 C 0.08646 0.06093 0.34992 0.0
C182 C 0.04726 -0.00395 0.41231 0.0
C183 C 0.03798 0.01887 0.44096 0.0
C184 C 0.07171 0.04641 0.38252 0.0
C185 C 0.04736 0.0555 0.44032 0.0
C186 C 0.08509 0.09581 0.34335 0.0
C187 C 0.11181 0.04985 0.29309 0.0
N188 N 0.06329 0.06825 0.41116 0.0
N189 N 0.09987 0.03925 0.32462 0.0
H190 H 0.48009 0.95359 0.75551 0.0
H191 H 0.39736 0.00113 0.94372 0.0
H192 H 0.37165 0.95497 0.76653 0.0
H193 H 0.50571 0.02775 0.92511 0.0
H194 H 0.38686 0.98476 0.87907 0.0
H195 H 0.48972 0.97956 0.81799 0.0
C196 C 0.45822 0.95923 0.77106 0.0
C197 C 0.42487 0.95149 0.75572 0.0
C198 C 0.41287 0.99477 0.88901 0.0
C199 C 0.43583 0.98158 0.82743 0.0
C200 C 0.41884 0.00434 0.92586 0.0
C201 C 0.45243 0.01593 0.93971 0.0
C202 C 0.44078 -0.00392 0.86592 0.0
C203 C 0.47938 0.01932 0.9155 0.0
C204 C 0.4638 0.97424 0.80672 0.0
C205 C 0.39762 0.95946 0.77728 0.0
N206 N 0.47304 0.00886 0.87982 0.0
N207 N 0.40368 0.97393 0.81206 0.0
H208 H 0.66393 0.5065 0.80285 0.0
H209 H 0.54027 0.45568 0.63496 0.0
H210 H 0.58649 0.41261 0.78854 0.0
H211 H 0.62129 0.54607 0.64886 0.0
H212 H 0.56835 0.4288 0.68053 0.0
H213 H 0.66002 0.51117 0.73876 0.0
C214 C 0.64638 0.48657 0.78605 0.0
C215 C 0.62484 0.45969 0.8011 0.0
C216 C 0.58084 0.45385 0.67264 0.0
C217 C 0.61972 0.46517 0.72762 0.0
C218 C 0.56506 0.46891 0.64617 0.0
C219 C 0.57855 0.5031 0.63844 0.0
C220 C 0.60988 0.47358 0.69166 0.0
C221 C 0.61021 0.51959 0.65418 0.0
C222 C 0.64424 0.48913 0.74936 0.0
C223 C 0.60316 0.4341 0.77802 0.0
N224 N 0.6244 0.50509 0.68075 0.0
N225 N 0.60051 0.43795 0.7425 0.0
H226 H 0.9933 0.61095 0.31332 0.0
H227 H 0.93029 0.50224 0.12882 0.0
H228 H 0.888 0.55963 0.29485 0.0
H229 H 0.02225 0.58052 0.14134 0.0
H230 H 0.91043 0.52769 0.18631 0.0
H231 H 0.00181 0.60445 0.24867 0.0
C232 C 0.97189 0.59848 0.29554 0.0
C233 C 0.94005 0.58541 0.30941 0.0
C234 C 0.93439 0.54013 0.17595 0.0
C235 C 0.94965 0.57743 0.23523 0.0
C236 C 0.94551 0.52584 0.14299 0.0
C237 C 0.97767 0.5397 0.13041 0.0
C238 C 0.95616 0.56779 0.19667 0.0
C239 C 0.99707 0.56949 0.15009 0.0
C240 C 0.97666 0.59498 0.25858 0.0
C241 C 0.91302 0.56992 0.28518 0.0
N242 N 0.98632 0.58217 0.18261 0.0
N243 N 0.9186 0.56572 0.24923 0.0
H244 H 0.22552 0.11307 0.06234 0.0
H245 H 0.39918 0.07387 0.14323 0.0
H246 H 0.23803 0.0906 0.1715 0.0
H247 H 0.38011 0.06545 0.02903 0.0
H248 H 0.33871 0.0771 0.15318 0.0
H249 H 0.28049 0.09351 0.04809 0.0
C250 C 0.23963 0.10385 0.08321 0.0
C251 C 0.22732 0.10403 0.1183 0.0
C252 C 0.3474 0.07382 0.12584 0.0
C253 C 0.29005 0.08173 0.10223 0.0
C254 C 0.38186 0.07181 0.12023 0.0
C255 C 0.39424 0.06907 0.08534 0.0
C256 C 0.32533 0.07407 0.09631 0.0
C257 C 0.37117 0.06719 0.05633 0.0
C258 C 0.2709 0.09255 0.07503 0.0
C259 C 0.24656 0.09141 0.14417 0.0
N260 N 0.33777 0.07027 0.06246 0.0
N261 N 0.27701 0.08119 0.13571 0.0
H262 H 0.28624 0.95054 0.60822 0.0
H263 H 0.08125 0.9208 0.59974 0.0
H264 H 0.22227 0.89339 0.68257 0.0
H265 H 0.1468 0.00481 0.55477 0.0
H266 H 0.13231 0.89632 0.61528 0.0
H267 H 0.23483 0.95716 0.57509 0.0
C268 C 0.26138 0.93904 0.61741 0.0
C269 C 0.25852 0.92177 0.64851 0.0
C270 C 0.13537 0.91947 0.60101 0.0
C271 C 0.19955 0.92904 0.6104 0.0
C272 C 0.10629 0.93307 0.59166 0.0
C273 C 0.11009 0.96465 0.57587 0.0
C274 C 0.16816 0.93762 0.59418 0.0
C275 C 0.14299 0.98024 0.56675 0.0
C276 C 0.23205 0.9428 0.5984 0.0
C277 C 0.2256 0.90728 0.65898 0.0
N278 N 0.17085 0.96679 0.5764 0.0
N279 N 0.19731 0.91145 0.64008 0.0
H280 H 0.73107 0.39308 0.90169 0.0
H281 H 0.88987 0.49363 0.02645 0.0
H282 H 0.72356 0.47729 0.98608 0.0
H283 H 0.898 0.42248 0.93081 0.0
H284 H 0.82699 0.47766 0.02132 0.0
H285 H 0.78968 0.39323 0.92141 0.0
C286 C 0.74124 0.41116 0.92472 0.0
C287 C 0.72197 0.43522 0.94202 0.0
C288 C 0.84255 0.46481 0.00202 0.0
C289 C 0.79003 0.43621 0.96434 0.0
C290 C 0.87834 0.47362 0.0052 0.0
C291 C 0.89879 0.45908 0.97908 0.0
C292 C 0.82743 0.44123 0.97261 0.0
C293 C 0.88288 0.43406 0.95148 0.0
C294 C 0.77506 0.4114 0.93589 0.0
C295 C 0.73738 0.45837 0.97162 0.0
N296 N 0.84811 0.42609 0.9488 0.0
N297 N 0.77059 0.45858 0.98156 0.0
H298 H 0.81503 0.54307 0.52567 0.0
H299 H 0.64392 0.59673 0.45708 0.0
H300 H 0.81486 0.63142 0.46462 0.0
H301 H 0.64646 0.54351 0.55195 0.0
H302 H 0.70666 0.60852 0.45826 0.0
H303 H 0.75306 0.54008 0.53379 0.0
C304 C 0.80197 0.56177 0.51395 0.0
C305 C 0.82004 0.58737 0.49421 0.0
C306 C 0.69356 0.59474 0.47917 0.0
C307 C 0.7495 0.58414 0.50347 0.0
C308 C 0.65781 0.58808 0.47852 0.0
C309 C 0.6402 0.56915 0.50443 0.0
C310 C 0.71179 0.5815 0.50533 0.0
C311 C 0.65925 0.55841 0.53164 0.0
C312 C 0.76674 0.56025 0.51888 0.0
C313 C 0.80194 0.61116 0.4799 0.0
N314 N 0.69417 0.56416 0.53103 0.0
N315 N 0.76763 0.60876 0.48454 0.0
H316 H 0.05691 0.20873 0.04371 0.0
H317 H 0.08647 0.41641 0.02797 0.0
H318 H 0.14045 0.28198 0.09904 0.0
H319 H 0.98564 0.35287 0.02601 0.0
H320 H 0.11176 0.36415 0.03784 0.0
H321 H 0.03591 0.25861 0.02105 0.0
C322 C 0.07109 0.23521 0.05075 0.0
C323 C 0.10035 0.24119 0.07358 0.0
C324 C 0.08416 0.36153 0.03441 0.0
C325 C 0.07657 0.29821 0.04742 0.0
C326 C 0.06975 0.39115 0.02835 0.0
C327 C 0.03395 0.38869 0.02575 0.0
C328 C 0.0626 0.32914 0.03712 0.0
C329 C 0.01336 0.35566 0.02757 0.0
C330 C 0.059 0.26362 0.0379 0.0
C331 C 0.11768 0.27615 0.08173 0.0
N332 N 0.02797 0.3271 0.03307 0.0
N333 N 0.10551 0.30335 0.0687 0.0
H334 H 0.62209 0.25291 0.87692 0.0
H335 H 0.60242 0.14665 0.04857 0.0
H336 H 0.68019 0.28416 0.97674 0.0
H337 H 0.52059 0.13883 0.97005 0.0
H338 H 0.64021 0.18434 0.01201 0.0
H339 H 0.59303 0.19976 0.90163 0.0
C340 C 0.62914 0.24831 0.90375 0.0
C341 C 0.65346 0.27303 0.92492 0.0
C342 C 0.61431 0.17356 0.00218 0.0
C343 C 0.6207 0.21248 0.95295 0.0
C344 C 0.59296 0.1517 0.02276 0.0
C345 C 0.55873 0.13938 0.01183 0.0
C346 C 0.60113 0.18338 0.97065 0.0
C347 C 0.54713 0.14747 0.97887 0.0
C348 C 0.6125 0.2181 0.91779 0.0
C349 C 0.66151 0.2659 0.95954 0.0
N350 N 0.56824 0.16943 0.95949 0.0
N351 N 0.64508 0.23637 0.9725 0.0
H352 H 0.95195 0.69119 0.55203 0.0
H353 H 0.02036 0.88313 0.49547 0.0
H354 H 0.98997 0.71045 0.44717 0.0
H355 H 0.93452 0.8627 0.5647 0.0
H356 H 0.02739 0.82095 0.49302 0.0
H357 H 0.96255 0.75526 0.57058 0.0
C358 C 0.96329 0.70884 0.53322 0.0
C359 C 0.96999 0.69563 0.49796 0.0
C360 C 0.00782 0.83041 0.50979 0.0
C361 C 0.98257 0.76843 0.51919 0.0
C362 C 0.00413 0.86587 0.51162 0.0
C363 C 0.97718 0.87784 0.53075 0.0
C364 C 0.98446 0.80703 0.52741 0.0
C365 C 0.95596 0.85436 0.5502 0.0
C366 C 0.96917 0.74527 0.5438 0.0
C367 C 0.98429 0.71962 0.47452 0.0
N368 N 0.95982 0.81981 0.54778 0.0
N369 N 0.99005 0.75493 0.48554 0.0
H370 H 0.52057 0.84482 0.60382 0.0
H371 H 0.4754 0.63914 0.5335 0.0
H372 H 0.41579 0.791 0.58676 0.0
H373 H 0.55767 0.68221 0.61033 0.0
H374 H 0.45961 0.69838 0.53507 0.0
H375 H 0.54037 0.78826 0.58854 0.0
C376 C 0.50174 0.82119 0.59649 0.0
C377 C 0.46646 0.82252 0.59696 0.0
C378 C 0.48154 0.69485 0.55095 0.0
C379 C 0.48904 0.75808 0.57889 0.0
C380 C 0.49075 0.6613 0.5498 0.0
C381 C 0.51785 0.65605 0.57184 0.0
C382 C 0.5002 0.72324 0.57355 0.0
C383 C 0.53661 0.68534 0.593 0.0
C384 C 0.51308 0.78902 0.58783 0.0
C385 C 0.44321 0.79106 0.58711 0.0
N386 N 0.52744 0.71776 0.59334 0.0
N387 N 0.45492 0.76002 0.57847 0.0
H388 H 0.91034 0.97725 0.85746 0.0
H389 H 0.95889 0.92562 0.65308 0.0
H390 H 0.90861 0.86861 0.81313 0.0
H391 H 0.97896 0.0307 0.71049 0.0
H392 H 0.93295 0.90327 0.70764 0.0
H393 H 0.92859 -0.00373 0.80016 0.0
C394 C 0.9138 0.95728 0.83564 0.0
C395 C 0.90807 0.92123 0.84032 0.0
C396 C 0.94284 0.93123 0.70802 0.0
C397 C 0.92908 0.94305 0.77395 0.0
C398 C 0.95733 0.94398 0.67689 0.0
C399 C 0.97129 0.97998 0.67745 0.0
C400 C 0.94203 0.95486 0.73942 0.0
C401 C 0.96886 0.00268 0.70898 0.0
C402 C 0.92426 0.96822 0.80278 0.0
C403 C 0.91298 0.89671 0.81082 0.0
N404 N 0.95469 0.98975 0.73856 0.0
N405 N 0.92325 0.90807 0.77881 0.0
H406 H 0.65022 0.12979 0.33924 0.0
H407 H 0.52362 0.02003 0.18212 0.0
H408 H 0.58104 0.03379 0.35402 0.0
H409 H 0.58129 0.12468 0.17752 0.0
H410 H 0.54982 0.01972 0.24196 0.0
H411 H 0.63059 0.12364 0.27664 0.0
C412 C 0.63062 0.10761 0.32941 0.0
C413 C 0.61657 0.08281 0.35212 0.0
C414 C 0.55688 0.04257 0.22761 0.0
C415 C 0.59434 0.0751 0.28013 0.0
C416 C 0.54206 0.04266 0.1935 0.0
C417 C 0.54997 0.07261 0.17517 0.0
C418 C 0.58002 0.07243 0.24299 0.0
C419 C 0.57401 0.10128 0.19101 0.0
C420 C 0.61962 0.10388 0.29353 0.0
C421 C 0.59234 0.05367 0.33744 0.0
N422 N 0.58805 0.10051 0.22394 0.0
N423 N 0.58173 0.05076 0.30242 0.0
H424 H 0.46568 0.65569 0.28876 0.0
H425 H 0.42905 0.52725 0.43063 0.0
H426 H 0.36253 0.60089 0.30034 0.0
H427 H 0.509 0.61853 0.4472 0.0
H428 H 0.39977 0.55701 0.38848 0.0
H429 H 0.48005 0.64499 0.34958 0.0
C430 C 0.446 0.6416 0.30426 0.0
C431 C 0.41302 0.62875 0.28944 0.0
C432 C 0.42295 0.57122 0.40246 0.0
C433 C 0.42924 0.6163 0.35895 0.0
C434 C 0.43936 0.55441 0.4269 0.0
C435 C 0.47129 0.57064 0.44228 0.0
C436 C 0.43935 0.60385 0.39273 0.0
C437 C 0.48422 0.60537 0.43593 0.0
C438 C 0.45407 0.63584 0.33911 0.0
C439 C 0.38834 0.61103 0.31078 0.0
N440 N 0.46877 0.62047 0.41068 0.0
N441 N 0.39713 0.60467 0.34428 0.0
H442 H 0.15203 0.50899 0.74152 0.0
H443 H 0.0249 0.42226 0.87628 0.0
H444 H 0.10003 0.40089 0.72099 0.0
H445 H 0.09966 0.51566 0.90768 0.0
H446 H 0.05853 0.40848 0.82364 0.0
H447 H 0.13889 0.5085 0.80513 0.0
C448 C 0.13837 0.48494 0.75057 0.0
C449 C 0.12723 0.45492 0.72602 0.0
C450 C 0.06839 0.43129 0.84266 0.0
C451 C 0.11168 0.45419 0.79867 0.0
C452 C 0.0494 0.43886 0.87296 0.0
C453 C 0.05981 0.46994 0.89629 0.0
C454 C 0.09736 0.45565 0.83523 0.0
C455 C 0.09112 0.49122 0.89041 0.0
C456 C 0.13106 0.48456 0.78691 0.0
C457 C 0.10965 0.42441 0.73908 0.0
N458 N 0.1084 0.4842 0.85989 0.0
N459 N 0.10189 0.42502 0.77443 0.0
H460 H 0.77467 0.97209 0.0175 0.0
H461 H 0.57831 0.96239 0.9572 0.0
H462 H 0.73139 0.92714 0.913 0.0
H463 H 0.62276 0.02634 0.05355 0.0
H464 H 0.63438 0.9476 0.94244 0.0
H465 H 0.71938 0.99026 0.03332 0.0
C466 C 0.75356 0.96592 0.99797 0.0
C467 C 0.75764 0.94799 0.96389 0.0
C468 C 0.63205 0.96505 0.96673 0.0
C469 C 0.69457 0.96866 0.98175 0.0
C470 C 0.59994 0.97355 0.97521 0.0
C471 C 0.59573 -0.00434 0.0067 0.0
C472 C 0.66041 0.97848 0.98998 0.0
C473 C 0.62484 0.00927 0.02893 0.0
C474 C 0.72211 0.97645 0.00695 0.0
C475 C 0.72951 0.9409 0.93957 0.0
N476 N 0.65596 0.00029 0.02026 0.0
N477 N 0.69927 0.95113 0.94901 0.0
H478 H 0.75976 0.12285 0.48627 0.0
H479 H 0.86975 0.00068 0.58005 0.0
H480 H 0.71736 0.03279 0.54002 0.0
H481 H 0.91251 0.07296 0.5062 0.0
H482 H 0.81604 0.0243 0.57885 0.0
H483 H 0.81759 0.11557 0.50501 0.0
C484 C 0.76258 0.1018 0.5023 0.0
C485 C 0.73376 0.07804 0.51117 0.0
C486 C 0.8374 0.03567 0.56356 0.0
C487 C 0.79955 0.06988 0.53293 0.0
C488 C 0.8681 0.02247 0.56462 0.0
C489 C 0.89536 0.03525 0.54348 0.0
C490 C 0.83388 0.06137 0.54067 0.0
C491 C 0.89195 0.06284 0.52316 0.0
C492 C 0.79554 0.0977 0.51298 0.0
C493 C 0.73885 0.05141 0.53215 0.0
N494 N 0.86148 0.07474 0.52184 0.0
N495 N 0.77108 0.04794 0.54211 0.0
H496 H 0.27278 0.67363 0.09649 0.0
H497 H 0.14125 0.491 0.07248 0.0
H498 H 0.2795 0.58487 0.1551 0.0
H499 H 0.12189 0.58498 0.02912 0.0
H500 H 0.19884 0.52127 0.09117 0.0
H501 H 0.2242 0.638 0.06113 0.0
C502 C 0.2643 0.64652 0.10164 0.0
C503 C 0.2798 0.63233 0.1292 0.0
C504 C 0.18217 0.53521 0.07725 0.0
C505 C 0.2245 0.59151 0.08874 0.0
C506 C 0.14928 0.51794 0.06653 0.0
C507 C 0.12652 0.53577 0.04989 0.0
C508 C 0.19237 0.57074 0.07164 0.0
C509 C 0.13853 0.57039 0.04221 0.0
C510 C 0.23657 0.62625 0.08146 0.0
C511 C 0.26794 0.59704 0.13454 0.0
N512 N 0.17053 0.58701 0.05369 0.0
N513 N 0.24086 0.57794 0.11467 0.0
H514 H 0.23588 0.50552 0.53861 0.0
H515 H 0.40886 0.49012 0.62991 0.0
H516 H 0.23964 0.43078 0.61523 0.0
H517 H 0.40607 0.5103 0.51908 0.0
H518 H 0.34673 0.47028 0.62649 0.0
H519 H 0.29801 0.50966 0.53132 0.0
C520 C 0.24978 0.48967 0.55353 0.0
C521 C 0.23283 0.46801 0.57774 0.0
C522 C 0.35979 0.47849 0.60276 0.0
C523 C 0.30359 0.47316 0.57012 0.0
C524 C 0.39516 0.49001 0.60473 0.0
C525 C 0.41249 0.50208 0.57478 0.0
C526 C 0.34151 0.47993 0.57091 0.0
C527 C 0.3936 0.50119 0.54276 0.0
C528 C 0.2851 0.49191 0.54924 0.0
C529 C 0.25184 0.44781 0.59629 0.0
N530 N 0.3589 0.49095 0.54184 0.0
N531 N 0.28643 0.45144 0.59268 0.0
H532 H 0.97833 0.79923 0.96298 0.0
H533 H 0.94959 0.60449 0.02361 0.0
H534 H 0.87764 0.73953 0.97655 0.0
H535 H 0.03291 0.64247 0.95684 0.0
H536 H 0.92857 0.66102 0.02306 0.0
H537 H 0.00381 0.74814 0.97617 0.0
C538 C 0.96161 0.77551 0.96904 0.0
C539 C 0.9258 0.7735 0.96839 0.0
C540 C 0.95186 0.65715 0.0092 0.0
C541 C 0.95481 0.71541 0.9842 0.0
C542 C 0.96407 0.62519 0.00989 0.0
C543 C 0.99304 0.61903 0.99034 0.0
C544 C 0.96921 0.68321 0.98943 0.0
C545 C 0.0105 0.64634 0.97229 0.0
C546 C 0.97617 0.74643 0.97653 0.0
C547 C 0.90535 0.74207 0.97643 0.0
N548 N -0.0017 0.67724 0.97221 0.0
N549 N 0.92014 0.71427 0.9841 0.0
H550 H 0.42387 0.74359 0.12031 0.0
H551 H 0.49566 0.94483 0.13635 0.0
H552 H 0.4181 0.79938 0.22621 0.0
H553 H 0.41927 0.89257 0.05636 0.0
H554 H 0.48098 0.8941 0.17176 0.0
H555 H 0.43962 0.80005 0.09665 0.0
C556 C 0.42658 0.7677 0.13877 0.0
C557 C 0.41943 0.76685 0.17524 0.0
C558 C 0.46714 0.89443 0.14679 0.0
C559 C 0.43754 0.83146 0.1482 0.0
C560 C 0.47534 0.92321 0.12677 0.0
C561 C 0.45906 0.92231 0.09317 0.0
C562 C 0.44294 0.86509 0.13253 0.0
C563 C 0.43298 0.89382 0.08173 0.0
C564 C 0.43532 0.79986 0.12517 0.0
C565 C 0.42314 0.79907 0.19783 0.0
N566 N 0.42615 0.8661 0.10104 0.0
N567 N 0.43198 0.83037 0.1839 0.0
H568 H 0.0151 0.29101 0.63186 0.0
H569 H 0.06662 0.11672 0.53342 0.0
H570 H 0.11512 0.27717 0.593 0.0
H571 H 0.98019 0.11918 0.60236 0.0
H572 H 0.0697 0.17989 0.52927 0.0
H573 H 0.99061 0.23353 0.59887 0.0
C574 C 0.03177 0.27615 0.61589 0.0
C575 C 0.06729 0.28825 0.61586 0.0
C576 C 0.04906 0.16634 0.54403 0.0
C577 C 0.03945 0.22332 0.57759 0.0
C578 C 0.04697 0.13018 0.54589 0.0
C579 C 0.02358 0.11326 0.56883 0.0
C580 C 0.02794 0.18531 0.5658 0.0
C581 C -0.00117 0.13169 0.58471 0.0
C582 C 0.01776 0.24356 0.59693 0.0
C583 C 0.08772 0.2683 0.59447 0.0
N584 N 0.00235 0.16721 0.58396 0.0
N585 N 0.07356 0.23663 0.5765 0.0
H586 H 0.57563 0.26204 0.39749 0.0
H587 H 0.56792 0.42593 0.54369 0.0
H588 H 0.62739 0.27311 0.50105 0.0
H589 H 0.50048 0.39732 0.45021 0.0
H590 H 0.58677 0.36815 0.53267 0.0
H591 H 0.54653 0.311 0.41854 0.0
C592 C 0.58094 0.27484 0.42468 0.0
C593 C 0.6041 0.26357 0.44748 0.0
C594 C 0.56722 0.37423 0.51513 0.0
C595 C 0.57062 0.31975 0.47198 0.0
C596 C 0.55619 0.40698 0.52167 0.0
C597 C 0.53299 0.41638 0.4975 0.0
C598 C 0.55493 0.35119 0.48421 0.0
C599 C 0.51879 0.39116 0.46917 0.0
C600 C 0.56406 0.30265 0.43684 0.0
C601 C 0.60977 0.28104 0.48256 0.0
N602 N 0.53039 0.35998 0.46296 0.0
N603 N 0.59333 0.3085 0.49369 0.0
loop_
_geom_bond_atom_site_label_1
_geom_bond_atom_site_label_2
_geom_bond_distance
_geom_bond_site_symmetry_2
_ccdc_geom_bond_type
O0 Cd1 2.300 . S
O0 C7 1.275 . S
Cd1 O0 2.300 . S
Cd1 O9 2.381 . S
Cd1 O10 2.378 . S
O2 Cd3 2.385 . S
O2 C7 1.255 . S
Cd3 O2 2.385 . S
Cd3 O4 2.317 . S
O4 Cd3 2.317 . S
O4 C5 1.232 . S
C5 O4 1.232 . S
C5 O6 1.218 . S
O6 C5 1.218 . S
C7 O0 1.275 . S
C7 O2 1.255 . S
C8 O9 1.258 . S
C8 O10 1.256 . S
O9 Cd1 2.381 . S
O9 C8 1.258 . S
O10 Cd1 2.378 . S
O10 C8 1.256 . S
O11 Cd12 2.300 . S
O11 C18 1.275 . S
Cd12 O11 2.300 . S
Cd12 O20 2.381 . S
Cd12 O21 2.378 . S
O13 Cd14 2.385 . S
O13 C18 1.255 . S
Cd14 O13 2.385 . S
Cd14 O15 2.317 . S
O15 Cd14 2.317 . S
O15 C16 1.232 . S
C16 O15 1.232 . S
C16 O17 1.218 . S
O17 C16 1.218 . S
C18 O11 1.275 . S
C18 O13 1.255 . S
C19 O20 1.258 . S
C19 O21 1.256 . S
O20 Cd12 2.381 . S
O20 C19 1.258 . S
O21 Cd12 2.378 . S
O21 C19 1.256 . S
O22 Cd23 2.300 . S
O22 C29 1.275 . S
Cd23 O22 2.300 . S
Cd23 O31 2.381 . S
Cd23 O32 2.378 . S
O24 Cd25 2.385 . S
O24 C29 1.255 . S
Cd25 O24 2.385 . S
Cd25 O26 2.317 . S
O26 Cd25 2.317 . S
O26 C27 1.232 . S
C27 O26 1.232 . S
C27 O28 1.218 . S
O28 C27 1.218 . S
C29 O22 1.275 . S
C29 O24 1.255 . S
C30 O31 1.258 . S
C30 O32 1.256 . S
O31 Cd23 2.381 . S
O31 C30 1.258 . S
O32 Cd23 2.378 . S
O32 C30 1.256 . S
O33 Cd34 2.300 . S
O33 C40 1.275 . S
Cd34 O33 2.300 . S
Cd34 O42 2.381 . S
Cd34 O43 2.378 . S
O35 Cd36 2.385 . S
O35 C40 1.255 . S
Cd36 O35 2.385 . S
Cd36 O37 2.317 . S
O37 Cd36 2.317 . S
O37 C38 1.232 . S
C38 O37 1.232 . S
C38 O39 1.218 . S
O39 C38 1.218 . S
C40 O33 1.275 . S
C40 O35 1.255 . S
C41 O42 1.258 . S
C41 O43 1.256 . S
O42 Cd34 2.381 . S
O42 C41 1.258 . S
O43 Cd34 2.378 . S
O43 C41 1.256 . S
O44 Cd45 2.300 . S
O44 C51 1.275 . S
Cd45 O44 2.300 . S
Cd45 O53 2.381 . S
Cd45 O54 2.378 . S
O46 Cd47 2.385 . S
O46 C51 1.255 . S
Cd47 O46 2.385 . S
Cd47 O48 2.317 . S
O48 Cd47 2.317 . S
O48 C49 1.232 . S
C49 O48 1.232 . S
C49 O50 1.218 . S
O50 C49 1.218 . S
C51 O44 1.275 . S
C51 O46 1.255 . S
C52 O53 1.258 . S
C52 O54 1.256 . S
O53 Cd45 2.381 . S
O53 C52 1.258 . S
O54 Cd45 2.378 . S
O54 C52 1.256 . S
O55 Cd56 2.300 . S
O55 C62 1.275 . S
Cd56 O55 2.300 . S
Cd56 O64 2.381 . S
Cd56 O65 2.378 . S
O57 Cd58 2.385 . S
O57 C62 1.255 . S
Cd58 O57 2.385 . S
Cd58 O59 2.317 . S
O59 Cd58 2.317 . S
O59 C60 1.232 . S
C60 O59 1.232 . S
C60 O61 1.218 . S
O61 C60 1.218 . S
C62 O55 1.275 . S
C62 O57 1.255 . S
C63 O64 1.258 . S
C63 O65 1.256 . S
O64 Cd56 2.381 . S
O64 C63 1.258 . S
O65 Cd56 2.378 . S
O65 C63 1.256 . S
O66 Cd67 2.300 . S
O66 C73 1.275 . S
Cd67 O66 2.300 . S
Cd67 O75 2.381 . S
Cd67 O76 2.378 . S
O68 Cd69 2.385 . S
O68 C73 1.255 . S
Cd69 O68 2.385 . S
Cd69 O70 2.317 . S
O70 Cd69 2.317 . S
O70 C71 1.232 . S
C71 O70 1.232 . S
C71 O72 1.218 . S
O72 C71 1.218 . S
C73 O66 1.275 . S
C73 O68 1.255 . S
C74 O75 1.258 . S
C74 O76 1.256 . S
O75 Cd67 2.381 . S
O75 C74 1.258 . S
O76 Cd67 2.378 . S
O76 C74 1.256 . S
O77 Cd78 2.300 . S
O77 C84 1.275 . S
Cd78 O77 2.300 . S
Cd78 O86 2.381 . S
Cd78 O87 2.378 . S
O79 Cd80 2.385 . S
O79 C84 1.255 . S
Cd80 O79 2.385 . S
Cd80 O81 2.317 . S
O81 Cd80 2.317 . S
O81 C82 1.232 . S
C82 O81 1.232 . S
C82 O83 1.218 . S
O83 C82 1.218 . S
C84 O77 1.275 . S
C84 O79 1.255 . S
C85 O86 1.258 . S
C85 O87 1.256 . S
O86 Cd78 2.381 . S
O86 C85 1.258 . S
O87 Cd78 2.378 . S
O87 C85 1.256 . S
O88 Mg89 1.990 . S
O88 C102 1.253 1_445 S
Mg89 O88 1.990 . S
Mg89 O92 2.180 . S
Mg89 O93 2.117 . S
Mg89 O107 2.049 . S
O90 Mg91 2.072 1_665 S
O90 C102 1.260 . S
Mg91 O90 2.072 1_445 S
Mg91 O92 2.099 . S
Mg91 O94 2.079 . S
Mg91 O95 2.072 1_455 S
Mg91 O97 2.099 1_445 S
Mg91 O108 2.079 1_545 S
O92 Mg89 2.180 . S
O92 Mg91 2.099 . S
O92 C103 1.279 . S
O93 Mg89 2.117 . S
O93 C103 1.250 . S
O94 Mg91 2.079 . S
O94 C104 1.264 . S
O95 Mg91 2.072 1_655 S
O95 C105 1.260 . S
Mg96 O97 2.180 . S
Mg96 O98 2.030 1_565 S
Mg96 O99 1.990 . S
Mg96 O100 2.117 . S
O97 Mg91 2.099 1_665 S
O97 Mg96 2.180 . S
O97 C106 1.279 . S
O98 Mg96 2.030 1_545 S
O98 C104 1.248 1_655 S
O99 Mg96 1.990 . S
O99 C105 1.253 1_565 S
O100 Mg96 2.117 . S
O100 C106 1.250 . S
C101 O107 1.239 1_565 S
C101 O108 1.264 . S
C102 O88 1.253 1_665 S
C102 O90 1.260 . S
C103 O92 1.279 . S
C103 O93 1.250 . S
C104 O94 1.264 . S
C104 O98 1.248 1_455 S
C105 O95 1.260 . S
C105 O99 1.253 1_545 S
C106 O97 1.279 . S
C106 O100 1.250 . S
O107 Mg89 2.049 . S
O107 C101 1.239 1_545 S
O108 Mg91 2.079 1_565 S
O108 C101 1.264 . S
O109 Mg110 1.990 . S
O109 C123 1.253 . S
Mg110 O109 1.990 . S
Mg110 O113 2.180 . S
Mg110 O114 2.117 . S
Mg110 O128 2.030 . S
O111 Mg112 2.072 . S
O111 C123 1.260 . S
Mg112 O111 2.072 . S
Mg112 O113 2.099 . S
Mg112 O115 2.079 . S
Mg112 O116 2.072 . S
Mg112 O118 2.099 1_545 S
Mg112 O129 2.079 . S
O113 Mg110 2.180 . S
O113 Mg112 2.099 . S
O113 C124 1.279 . S
O114 Mg110 2.117 . S
O114 C124 1.250 . S
O115 Mg112 2.079 . S
O115 C125 1.264 . S
O116 Mg112 2.072 . S
O116 C126 1.260 1_554 S
Mg117 O118 2.180 . S
Mg117 O119 2.030 . S
Mg117 O120 1.990 1_554 S
Mg117 O121 2.117 . S
O118 Mg112 2.099 1_565 S
O118 Mg117 2.180 . S
O118 C127 1.279 . S
O119 Mg117 2.030 . S
O119 C125 1.248 1_565 S
O120 Mg117 1.990 1_556 S
O120 C126 1.253 1_565 S
O121 Mg117 2.117 . S
O121 C127 1.250 . S
C122 O128 1.248 . S
C122 O129 1.264 . S
C123 O109 1.253 . S
C123 O111 1.260 . S
C124 O113 1.279 . S
C124 O114 1.250 . S
C125 O115 1.264 . S
C125 O119 1.248 1_545 S
C126 O116 1.260 1_556 S
C126 O120 1.253 1_545 S
C127 O118 1.279 . S
C127 O121 1.250 . S
O128 Mg110 2.030 . S
O128 C122 1.248 . S
O129 Mg112 2.079 . S
O129 C122 1.264 . S
O130 Mg131 1.990 . S
O130 C144 1.253 . S
Mg131 O130 1.990 . S
Mg131 O134 2.180 . S
Mg131 O135 2.117 . S
Mg131 O149 2.030 . S
O132 Mg133 2.072 . S
O132 C144 1.260 . S
Mg133 O132 2.072 . S
Mg133 O134 2.099 . S
Mg133 O136 2.079 . S
Mg133 O137 2.072 . S
Mg133 O139 2.099 . S
Mg133 O150 2.079 . S
O134 Mg131 2.180 . S
O134 Mg133 2.099 . S
O134 C145 1.279 . S
O135 Mg131 2.117 . S
O135 C145 1.250 . S
O136 Mg133 2.079 . S
O136 C146 1.264 . S
O137 Mg133 2.072 . S
O137 C147 1.260 . S
Mg138 O139 2.180 . S
Mg138 O140 2.030 . S
Mg138 O141 1.990 . S
Mg138 O142 2.117 . S
O139 Mg133 2.099 . S
O139 Mg138 2.180 . S
O139 C148 1.279 . S
O140 Mg138 2.030 . S
O140 C146 1.248 . S
O141 Mg138 1.990 . S
O141 C147 1.253 . S
O142 Mg138 2.117 . S
O142 C148 1.250 . S
C143 O149 1.248 . S
C143 O150 1.264 . S
C144 O130 1.253 . S
C144 O132 1.260 . S
C145 O134 1.279 . S
C145 O135 1.250 . S
C146 O136 1.264 . S
C146 O140 1.248 . S
C147 O137 1.260 . S
C147 O141 1.253 . S
C148 O139 1.279 . S
C148 O142 1.250 . S
O149 Mg131 2.030 . S
O149 C143 1.248 . S
O150 Mg133 2.079 . S
O150 C143 1.264 . S
O151 Mg152 1.990 . S
O151 C165 1.253 . S
Mg152 O151 1.990 . S
Mg152 O155 2.180 . S
Mg152 O156 2.117 . S
Mg152 O170 2.030 . S
O153 Mg154 2.072 . S
O153 C165 1.260 . S
Mg154 O153 2.072 . S
Mg154 O155 2.099 . S
Mg154 O157 2.079 . S
Mg154 O158 2.072 1_455 S
Mg154 O160 2.099 1_554 S
Mg154 O171 2.079 . S
O155 Mg152 2.180 . S
O155 Mg154 2.099 . S
O155 C166 1.279 1_455 S
O156 Mg152 2.117 . S
O156 C166 1.250 1_455 S
O157 Mg154 2.079 . S
O157 C167 1.264 1_454 S
O158 Mg154 2.072 1_655 S
O158 C168 1.260 1_554 S
Mg159 O160 2.180 1_655 S
Mg159 O161 2.030 . S
Mg159 O162 1.990 . S
Mg159 O163 2.117 1_655 S
O160 Mg154 2.099 1_556 S
O160 Mg159 2.180 1_455 S
O160 C169 1.279 . S
O161 Mg159 2.030 . S
O161 C167 1.248 . S
O162 Mg159 1.990 . S
O162 C168 1.253 . S
O163 Mg159 2.117 1_455 S
O163 C169 1.250 . S
C164 O170 1.248 . S
C164 O171 1.264 . S
C165 O151 1.253 . S
C165 O153 1.260 . S
C166 O155 1.279 1_655 S
C166 O156 1.250 1_655 S
C167 O157 1.264 1_656 S
C167 O161 1.248 . S
C168 O158 1.260 1_556 S
C168 O162 1.253 . S
C169 O160 1.279 . S
C169 O163 1.250 . S
O170 Mg152 2.030 . S
O170 C164 1.248 . S
O171 Mg154 2.079 . S
O171 C164 1.264 . S
H172 C178 0.930 . S
H173 C182 0.930 1_565 S
H174 C187 0.929 . S
H175 C185 0.929 . S
H176 C180 0.929 . S
H177 C186 0.929 . S
C178 H172 0.930 . S
C178 C179 1.367 . S
C178 C186 1.378 . S
C179 C178 1.367 . S
C179 C187 1.433 . S
C180 H176 0.929 . S
C180 C182 1.378 . S
C180 C184 1.350 . S
C181 C184 1.463 . S
C181 C186 1.350 . S
C181 N189 1.427 . S
C182 H173 0.930 1_545 S
C182 C180 1.378 . S
C182 C183 1.367 . S
C183 C182 1.367 . S
C183 C185 1.433 . S
C184 C180 1.350 . S
C184 C181 1.463 . S
C184 N188 1.427 . S
C185 H175 0.929 . S
C185 C183 1.433 . S
C185 N188 1.384 . S
C186 H177 0.929 . S
C186 C178 1.378 . S
C186 C181 1.350 . S
C187 H174 0.929 . S
C187 C179 1.433 . S
C187 N189 1.384 . S
N188 C184 1.427 . S
N188 C185 1.384 . S
N189 C181 1.427 . S
N189 C187 1.384 . S
H190 C196 0.930 . S
H191 C200 0.930 . S
H192 C205 0.929 . S
H193 C203 0.929 . S
H194 C198 0.929 . S
H195 C204 0.929 . S
C196 H190 0.930 . S
C196 C197 1.367 . S
C196 C204 1.378 . S
C197 C196 1.367 . S
C197 C205 1.433 . S
C198 H194 0.929 . S
C198 C200 1.378 . S
C198 C202 1.350 1_545 S
C199 C202 1.463 . S
C199 C204 1.350 . S
C199 N207 1.427 . S
C200 H191 0.930 . S
C200 C198 1.378 . S
C200 C201 1.367 . S
C201 C200 1.367 . S
C201 C203 1.433 1_545 S
C202 C198 1.350 1_565 S
C202 C199 1.463 . S
C202 N206 1.427 . S
C203 H193 0.929 . S
C203 C201 1.433 1_565 S
C203 N206 1.384 . S
C204 H195 0.929 . S
C204 C196 1.378 . S
C204 C199 1.350 . S
C205 H192 0.929 . S
C205 C197 1.433 . S
C205 N207 1.384 . S
N206 C202 1.427 . S
N206 C203 1.384 . S
N207 C199 1.427 . S
N207 C205 1.384 . S
H208 C214 0.930 . S
H209 C218 0.930 . S
H210 C223 0.929 . S
H211 C221 0.929 . S
H212 C216 0.929 . S
H213 C222 0.929 . S
C214 H208 0.930 . S
C214 C215 1.367 . S
C214 C222 1.378 . S
C215 C214 1.367 . S
C215 C223 1.433 . S
C216 H212 0.929 . S
C216 C218 1.378 . S
C216 C220 1.350 . S
C217 C220 1.463 . S
C217 C222 1.350 . S
C217 N225 1.427 . S
C218 H209 0.930 . S
C218 C216 1.378 . S
C218 C219 1.367 . S
C219 C218 1.367 . S
C219 C221 1.433 . S
C220 C216 1.350 . S
C220 C217 1.463 . S
C220 N224 1.427 . S
C221 H211 0.929 . S
C221 C219 1.433 . S
C221 N224 1.384 . S
C222 H213 0.929 . S
C222 C214 1.378 . S
C222 C217 1.350 . S
C223 H210 0.929 . S
C223 C215 1.433 . S
C223 N225 1.384 . S
N224 C220 1.427 . S
N224 C221 1.384 . S
N225 C217 1.427 . S
N225 C223 1.384 . S
H226 C232 0.930 . S
H227 C236 0.930 . S
H228 C241 0.929 . S
H229 C239 0.929 1_455 S
H230 C234 0.929 . S
H231 C240 0.929 . S
C232 H226 0.930 . S
C232 C233 1.367 . S
C232 C240 1.378 . S
C233 C232 1.367 . S
C233 C241 1.433 . S
C234 H230 0.929 . S
C234 C236 1.378 . S
C234 C238 1.350 . S
C235 C238 1.463 . S
C235 C240 1.350 . S
C235 N243 1.427 . S
C236 H227 0.930 . S
C236 C234 1.378 . S
C236 C237 1.367 . S
C237 C236 1.367 . S
C237 C239 1.433 . S
C238 C234 1.350 . S
C238 C235 1.463 . S
C238 N242 1.427 . S
C239 H229 0.929 1_655 S
C239 C237 1.433 . S
C239 N242 1.384 . S
C240 H231 0.929 . S
C240 C232 1.378 . S
C240 C235 1.350 . S
C241 H228 0.929 . S
C241 C233 1.433 . S
C241 N243 1.384 . S
N242 C238 1.427 . S
N242 C239 1.384 . S
N243 C235 1.427 . S
N243 C241 1.384 . S
H244 C250 0.930 . S
H245 C254 0.930 . S
H246 C259 0.929 . S
H247 C257 0.929 . S
H248 C252 0.929 . S
H249 C258 0.929 . S
C250 H244 0.930 . S
C250 C251 1.367 . S
C250 C258 1.378 . S
C251 C250 1.367 . S
C251 C259 1.433 . S
C252 H248 0.929 . S
C252 C254 1.378 . S
C252 C256 1.350 . S
C253 C256 1.463 . S
C253 C258 1.350 . S
C253 N261 1.427 . S
C254 H245 0.930 . S
C254 C252 1.378 . S
C254 C255 1.367 . S
C255 C254 1.367 . S
C255 C257 1.433 . S
C256 C252 1.350 . S
C256 C253 1.463 . S
C256 N260 1.427 . S
C257 H247 0.929 . S
C257 C255 1.433 . S
C257 N260 1.384 . S
C258 H249 0.929 . S
C258 C250 1.378 . S
C258 C253 1.350 . S
C259 H246 0.929 . S
C259 C251 1.433 . S
C259 N261 1.384 . S
N260 C256 1.427 . S
N260 C257 1.384 . S
N261 C253 1.427 . S
N261 C259 1.384 . S
H262 C268 0.930 . S
H263 C272 0.930 . S
H264 C277 0.929 . S
H265 C275 0.929 1_545 S
H266 C270 0.929 . S
H267 C276 0.929 1_545 S
C268 H262 0.930 . S
C268 C269 1.367 . S
C268 C276 1.378 . S
C269 C268 1.367 . S
C269 C277 1.433 . S
C270 H266 0.929 . S
C270 C272 1.378 . S
C270 C274 1.350 . S
C271 C274 1.463 . S
C271 C276 1.350 . S
C271 N279 1.427 . S
C272 H263 0.930 . S
C272 C270 1.378 . S
C272 C273 1.367 . S
C273 C272 1.367 . S
C273 C275 1.433 . S
C274 C270 1.350 . S
C274 C271 1.463 . S
C274 N278 1.427 . S
C275 H265 0.929 1_565 S
C275 C273 1.433 . S
C275 N278 1.384 . S
C276 H267 0.929 1_565 S
C276 C268 1.378 . S
C276 C271 1.350 . S
C277 H264 0.929 . S
C277 C269 1.433 . S
C277 N279 1.384 . S
N278 C274 1.427 . S
N278 C275 1.384 . S
N279 C271 1.427 . S
N279 C277 1.384 . S
H280 C286 0.930 . S
H281 C290 0.937 . S
H282 C295 0.929 . S
H283 C293 0.929 . S
H284 C288 0.929 . S
H285 C294 0.929 . S
C286 H280 0.930 . S
C286 C287 1.367 . S
C286 C294 1.378 . S
C287 C286 1.367 . S
C287 C295 1.433 . S
C288 H284 0.929 . S
C288 C290 1.378 . S
C288 C292 1.350 . S
C289 C292 1.463 . S
C289 C294 1.350 . S
C289 N297 1.427 . S
C290 H281 0.937 . S
C290 C288 1.378 . S
C290 C291 1.367 . S
C291 C290 1.367 . S
C291 C293 1.433 . S
C292 C288 1.350 . S
C292 C289 1.463 . S
C292 N296 1.427 . S
C293 H283 0.929 . S
C293 C291 1.433 . S
C293 N296 1.384 . S
C294 H285 0.929 . S
C294 C286 1.378 . S
C294 C289 1.350 . S
C295 H282 0.929 . S
C295 C287 1.433 . S
C295 N297 1.384 . S
N296 C292 1.427 . S
N296 C293 1.384 . S
N297 C289 1.427 . S
N297 C295 1.384 . S
H298 C304 0.930 . S
H299 C308 0.930 . S
H300 C313 0.929 . S
H301 C311 0.929 . S
H302 C306 0.929 . S
H303 C312 0.929 . S
C304 H298 0.930 . S
C304 C305 1.367 . S
C304 C312 1.378 . S
C305 C304 1.367 . S
C305 C313 1.433 . S
C306 H302 0.929 . S
C306 C308 1.378 . S
C306 C310 1.350 . S
C307 C310 1.463 . S
C307 C312 1.350 . S
C307 N315 1.427 . S
C308 H299 0.930 . S
C308 C306 1.378 . S
C308 C309 1.367 . S
C309 C308 1.367 . S
C309 C311 1.433 . S
C310 C306 1.350 . S
C310 C307 1.463 . S
C310 N314 1.427 . S
C311 H301 0.929 . S
C311 C309 1.433 . S
C311 N314 1.384 . S
C312 H303 0.929 . S
C312 C304 1.378 . S
C312 C307 1.350 . S
C313 H300 0.929 . S
C313 C305 1.433 . S
C313 N315 1.384 . S
N314 C310 1.427 . S
N314 C311 1.384 . S
N315 C307 1.427 . S
N315 C313 1.384 . S
H316 C322 0.930 . S
H317 C326 0.930 . S
H318 C331 0.929 . S
H319 C329 0.929 1_556 S
H320 C324 0.929 . S
H321 C330 0.929 . S
C322 H316 0.930 . S
C322 C323 1.367 . S
C322 C330 1.378 . S
C323 C322 1.367 . S
C323 C331 1.433 . S
C324 H320 0.929 . S
C324 C326 1.378 . S
C324 C328 1.350 . S
C325 C328 1.463 . S
C325 C330 1.350 . S
C325 N333 1.427 . S
C326 H317 0.930 . S
C326 C324 1.378 . S
C326 C327 1.367 . S
C327 C326 1.367 . S
C327 C329 1.433 . S
C328 C324 1.350 . S
C328 C325 1.463 . S
C328 N332 1.427 . S
C329 H319 0.929 1_554 S
C329 C327 1.433 . S
C329 N332 1.384 . S
C330 H321 0.929 . S
C330 C322 1.378 . S
C330 C325 1.350 . S
C331 H318 0.929 . S
C331 C323 1.433 . S
C331 N333 1.384 . S
N332 C328 1.427 . S
N332 C329 1.384 . S
N333 C325 1.427 . S
N333 C331 1.384 . S
H334 C340 0.930 . S
H335 C344 0.930 . S
H336 C349 0.929 . S
H337 C347 0.929 . S
H338 C342 0.929 . S
H339 C348 0.929 . S
C340 H334 0.930 . S
C340 C341 1.367 . S
C340 C348 1.378 . S
C341 C340 1.367 . S
C341 C349 1.433 1_556 S
C342 H338 0.929 . S
C342 C344 1.378 . S
C342 C346 1.350 1_554 S
C343 C346 1.463 . S
C343 C348 1.350 . S
C343 N351 1.427 1_556 S
C344 H335 0.930 . S
C344 C342 1.378 . S
C344 C345 1.367 . S
C345 C344 1.367 . S
C345 C347 1.433 1_554 S
C346 C342 1.350 1_556 S
C346 C343 1.463 . S
C346 N350 1.427 . S
C347 H337 0.929 . S
C347 C345 1.433 1_556 S
C347 N350 1.384 . S
C348 H339 0.929 . S
C348 C340 1.378 . S
C348 C343 1.350 . S
C349 H336 0.929 . S
C349 C341 1.433 1_554 S
C349 N351 1.384 . S
N350 C346 1.427 . S
N350 C347 1.384 . S
N351 C343 1.427 1_554 S
N351 C349 1.384 . S
H352 C358 0.930 . S
H353 C362 0.930 . S
H354 C367 0.929 . S
H355 C365 0.929 . S
H356 C360 0.929 . S
H357 C366 0.929 . S
C358 H352 0.930 . S
C358 C359 1.367 . S
C358 C366 1.378 . S
C359 C358 1.367 . S
C359 C367 1.433 . S
C360 H356 0.929 . S
C360 C362 1.378 . S
C360 C364 1.350 . S
C361 C364 1.463 . S
C361 C366 1.350 . S
C361 N369 1.427 . S
C362 H353 0.930 . S
C362 C360 1.378 . S
C362 C363 1.367 . S
C363 C362 1.367 . S
C363 C365 1.433 . S
C364 C360 1.350 . S
C364 C361 1.463 . S
C364 N368 1.427 . S
C365 H355 0.929 . S
C365 C363 1.433 . S
C365 N368 1.384 . S
C366 H357 0.929 . S
C366 C358 1.378 . S
C366 C361 1.350 . S
C367 H354 0.929 . S
C367 C359 1.433 . S
C367 N369 1.384 . S
N368 C364 1.427 . S
N368 C365 1.384 . S
N369 C361 1.427 . S
N369 C367 1.384 . S
H370 C376 0.930 . S
H371 C380 0.930 . S
H372 C385 0.929 . S
H373 C383 0.929 . S
H374 C378 0.929 . S
H375 C384 0.929 . S
C376 H370 0.930 . S
C376 C377 1.367 . S
C376 C384 1.378 . S
C377 C376 1.367 . S
C377 C385 1.433 . S
C378 H374 0.929 . S
C378 C380 1.378 . S
C378 C382 1.350 . S
C379 C382 1.463 . S
C379 C384 1.350 . S
C379 N387 1.427 . S
C380 H371 0.930 . S
C380 C378 1.378 . S
C380 C381 1.367 . S
C381 C380 1.367 . S
C381 C383 1.433 . S
C382 C378 1.350 . S
C382 C379 1.463 . S
C382 N386 1.427 . S
C383 H373 0.929 . S
C383 C381 1.433 . S
C383 N386 1.384 . S
C384 H375 0.929 . S
C384 C376 1.378 . S
C384 C379 1.350 . S
C385 H372 0.929 . S
C385 C377 1.433 . S
C385 N387 1.384 . S
N386 C382 1.427 . S
N386 C383 1.384 . S
N387 C379 1.427 . S
N387 C385 1.384 . S
H388 C394 0.930 . S
H389 C398 0.930 . S
H390 C403 0.929 . S
H391 C401 0.929 1_445 S
H392 C396 0.929 . S
H393 C402 0.929 . S
C394 H388 0.930 . S
C394 C395 1.367 . S
C394 C402 1.378 . S
C395 C394 1.367 . S
C395 C403 1.433 . S
C396 H392 0.929 . S
C396 C398 1.378 . S
C396 C400 1.350 . S
C397 C400 1.463 . S
C397 C402 1.350 . S
C397 N405 1.427 . S
C398 H389 0.930 . S
C398 C396 1.378 . S
C398 C399 1.367 . S
C399 C398 1.367 . S
C399 C401 1.433 . S
C400 C396 1.350 . S
C400 C397 1.463 . S
C400 N404 1.427 . S
C401 H391 0.929 1_665 S
C401 C399 1.433 . S
C401 N404 1.384 . S
C402 H393 0.929 . S
C402 C394 1.378 . S
C402 C397 1.350 . S
C403 H390 0.929 . S
C403 C395 1.433 . S
C403 N405 1.384 . S
N404 C400 1.427 . S
N404 C401 1.384 . S
N405 C397 1.427 . S
N405 C403 1.384 . S
H406 C412 0.930 . S
H407 C416 0.930 . S
H408 C421 0.929 . S
H409 C419 0.929 . S
H410 C414 0.929 . S
H411 C420 0.929 . S
C412 H406 0.930 . S
C412 C413 1.367 . S
C412 C420 1.378 . S
C413 C412 1.367 . S
C413 C421 1.433 . S
C414 H410 0.929 . S
C414 C416 1.378 . S
C414 C418 1.350 . S
C415 C418 1.463 . S
C415 C420 1.350 . S
C415 N423 1.427 . S
C416 H407 0.930 . S
C416 C414 1.378 . S
C416 C417 1.367 . S
C417 C416 1.367 . S
C417 C419 1.433 . S
C418 C414 1.350 . S
C418 C415 1.463 . S
C418 N422 1.427 . S
C419 H409 0.929 . S
C419 C417 1.433 . S
C419 N422 1.384 . S
C420 H411 0.929 . S
C420 C412 1.378 . S
C420 C415 1.350 . S
C421 H408 0.929 . S
C421 C413 1.433 . S
C421 N423 1.384 . S
N422 C418 1.427 . S
N422 C419 1.384 . S
N423 C415 1.427 . S
N423 C421 1.384 . S
H424 C430 0.930 . S
H425 C434 0.930 . S
H426 C439 0.929 . S
H427 C437 0.929 . S
H428 C432 0.929 . S
H429 C438 0.929 . S
C430 H424 0.930 . S
C430 C431 1.367 . S
C430 C438 1.378 . S
C431 C430 1.367 . S
C431 C439 1.433 . S
C432 H428 0.929 . S
C432 C434 1.378 . S
C432 C436 1.350 . S
C433 C436 1.463 . S
C433 C438 1.350 . S
C433 N441 1.427 . S
C434 H425 0.930 . S
C434 C432 1.378 . S
C434 C435 1.367 . S
C435 C434 1.367 . S
C435 C437 1.433 . S
C436 C432 1.350 . S
C436 C433 1.463 . S
C436 N440 1.427 . S
C437 H427 0.929 . S
C437 C435 1.433 . S
C437 N440 1.384 . S
C438 H429 0.929 . S
C438 C430 1.378 . S
C438 C433 1.350 . S
C439 H426 0.929 . S
C439 C431 1.433 . S
C439 N441 1.384 . S
N440 C436 1.427 . S
N440 C437 1.384 . S
N441 C433 1.427 . S
N441 C439 1.384 . S
H442 C448 0.930 . S
H443 C452 0.930 . S
H444 C457 0.929 . S
H445 C455 0.929 . S
H446 C450 0.929 . S
H447 C456 0.929 . S
C448 H442 0.930 . S
C448 C449 1.367 . S
C448 C456 1.378 . S
C449 C448 1.367 . S
C449 C457 1.433 . S
C450 H446 0.929 . S
C450 C452 1.378 . S
C450 C454 1.350 . S
C451 C454 1.463 . S
C451 C456 1.350 . S
C451 N459 1.427 . S
C452 H443 0.930 . S
C452 C450 1.378 . S
C452 C453 1.367 . S
C453 C452 1.367 . S
C453 C455 1.433 . S
C454 C450 1.350 . S
C454 C451 1.463 . S
C454 N458 1.427 . S
C455 H445 0.929 . S
C455 C453 1.433 . S
C455 N458 1.384 . S
C456 H447 0.929 . S
C456 C448 1.378 . S
C456 C451 1.350 . S
C457 H444 0.929 . S
C457 C449 1.433 . S
C457 N459 1.384 . S
N458 C454 1.427 . S
N458 C455 1.384 . S
N459 C451 1.427 . S
N459 C457 1.384 . S
H460 C466 0.946 . S
H461 C470 0.930 . S
H462 C475 0.929 . S
H463 C473 0.929 . S
H464 C468 0.929 . S
H465 C474 0.929 1_544 S
C466 H460 0.946 . S
C466 C467 1.367 . S
C466 C474 1.378 . S
C467 C466 1.367 . S
C467 C475 1.433 . S
C468 H464 0.929 . S
C468 C470 1.378 . S
C468 C472 1.350 . S
C469 C472 1.463 . S
C469 C474 1.350 . S
C469 N477 1.427 . S
C470 H461 0.930 . S
C470 C468 1.378 . S
C470 C471 1.367 1_556 S
C471 C470 1.367 1_554 S
C471 C473 1.433 1_565 S
C472 C468 1.350 . S
C472 C469 1.463 . S
C472 N476 1.427 1_566 S
C473 H463 0.929 . S
C473 C471 1.433 1_545 S
C473 N476 1.384 . S
C474 H465 0.929 1_566 S
C474 C466 1.378 . S
C474 C469 1.350 . S
C475 H462 0.929 . S
C475 C467 1.433 . S
C475 N477 1.384 . S
N476 C472 1.427 1_544 S
N476 C473 1.384 . S
N477 C469 1.427 . S
N477 C475 1.384 . S
H478 C484 0.930 . S
H479 C488 0.930 1_565 S
H480 C493 0.929 . S
H481 C491 0.929 . S
H482 C486 0.929 . S
H483 C492 0.929 . S
C484 H478 0.930 . S
C484 C485 1.367 . S
C484 C492 1.378 . S
C485 C484 1.367 . S
C485 C493 1.433 . S
C486 H482 0.929 . S
C486 C488 1.378 . S
C486 C490 1.350 . S
C487 C490 1.463 . S
C487 C492 1.350 . S
C487 N495 1.427 . S
C488 H479 0.930 1_545 S
C488 C486 1.378 . S
C488 C489 1.367 . S
C489 C488 1.367 . S
C489 C491 1.433 . S
C490 C486 1.350 . S
C490 C487 1.463 . S
C490 N494 1.427 . S
C491 H481 0.929 . S
C491 C489 1.433 . S
C491 N494 1.384 . S
C492 H483 0.929 . S
C492 C484 1.378 . S
C492 C487 1.350 . S
C493 H480 0.929 . S
C493 C485 1.433 . S
C493 N495 1.384 . S
N494 C490 1.427 . S
N494 C491 1.384 . S
N495 C487 1.427 . S
N495 C493 1.384 . S
H496 C502 0.930 . S
H497 C506 0.930 . S
H498 C511 0.929 . S
H499 C509 0.929 . S
H500 C504 0.929 . S
H501 C510 0.929 . S
C502 H496 0.930 . S
C502 C503 1.367 . S
C502 C510 1.378 . S
C503 C502 1.367 . S
C503 C511 1.433 . S
C504 H500 0.929 . S
C504 C506 1.378 . S
C504 C508 1.350 . S
C505 C508 1.463 . S
C505 C510 1.350 . S
C505 N513 1.427 . S
C506 H497 0.930 . S
C506 C504 1.378 . S
C506 C507 1.367 . S
C507 C506 1.367 . S
C507 C509 1.433 . S
C508 C504 1.350 . S
C508 C505 1.463 . S
C508 N512 1.427 . S
C509 H499 0.929 . S
C509 C507 1.433 . S
C509 N512 1.384 . S
C510 H501 0.929 . S
C510 C502 1.378 . S
C510 C505 1.350 . S
C511 H498 0.929 . S
C511 C503 1.433 . S
C511 N513 1.384 . S
N512 C508 1.427 . S
N512 C509 1.384 . S
N513 C505 1.427 . S
N513 C511 1.384 . S
H514 C520 0.930 . S
H515 C524 0.930 . S
H516 C529 0.929 . S
H517 C527 0.929 . S
H518 C522 0.929 . S
H519 C528 0.929 . S
C520 H514 0.930 . S
C520 C521 1.367 . S
C520 C528 1.378 . S
C521 C520 1.367 . S
C521 C529 1.433 . S
C522 H518 0.929 . S
C522 C524 1.378 . S
C522 C526 1.350 . S
C523 C526 1.463 . S
C523 C528 1.350 . S
C523 N531 1.427 . S
C524 H515 0.930 . S
C524 C522 1.378 . S
C524 C525 1.367 . S
C525 C524 1.367 . S
C525 C527 1.433 . S
C526 C522 1.350 . S
C526 C523 1.463 . S
C526 N530 1.427 . S
C527 H517 0.929 . S
C527 C525 1.433 . S
C527 N530 1.384 . S
C528 H519 0.929 . S
C528 C520 1.378 . S
C528 C523 1.350 . S
C529 H516 0.929 . S
C529 C521 1.433 . S
C529 N531 1.384 . S
N530 C526 1.427 . S
N530 C527 1.384 . S
N531 C523 1.427 . S
N531 C529 1.384 . S
H532 C538 0.930 . S
H533 C542 0.930 1_554 S
H534 C547 0.929 . S
H535 C545 0.929 . S
H536 C540 0.929 . S
H537 C546 0.938 . S
C538 H532 0.930 . S
C538 C539 1.367 . S
C538 C546 1.378 . S
C539 C538 1.367 . S
C539 C547 1.433 . S
C540 H536 0.929 . S
C540 C542 1.378 . S
C540 C544 1.350 . S
C541 C544 1.463 . S
C541 C546 1.350 . S
C541 N549 1.427 . S
C542 H533 0.930 1_556 S
C542 C540 1.378 . S
C542 C543 1.367 . S
C543 C542 1.367 . S
C543 C545 1.433 1_655 S
C544 C540 1.350 . S
C544 C541 1.463 . S
C544 N548 1.458 . S
C545 H535 0.929 . S
C545 C543 1.433 1_455 S
C545 N548 1.369 1_455 S
C546 H537 0.938 . S
C546 C538 1.378 . S
C546 C541 1.350 . S
C547 H534 0.929 . S
C547 C539 1.433 . S
C547 N549 1.384 . S
N548 C544 1.458 . S
N548 C545 1.369 1_655 S
N549 C541 1.427 . S
N549 C547 1.384 . S
H550 C556 0.930 . S
H551 C560 0.930 . S
H552 C565 0.929 . S
H553 C563 0.929 . S
H554 C558 0.929 . S
H555 C564 0.929 . S
C556 H550 0.930 . S
C556 C557 1.367 . S
C556 C564 1.378 . S
C557 C556 1.367 . S
C557 C565 1.433 . S
C558 H554 0.929 . S
C558 C560 1.378 . S
C558 C562 1.350 . S
C559 C562 1.463 . S
C559 C564 1.350 . S
C559 N567 1.427 . S
C560 H551 0.930 . S
C560 C558 1.378 . S
C560 C561 1.367 . S
C561 C560 1.367 . S
C561 C563 1.433 . S
C562 C558 1.350 . S
C562 C559 1.463 . S
C562 N566 1.427 . S
C563 H553 0.929 . S
C563 C561 1.433 . S
C563 N566 1.384 . S
C564 H555 0.929 . S
C564 C556 1.378 . S
C564 C559 1.350 . S
C565 H552 0.929 . S
C565 C557 1.433 . S
C565 N567 1.384 . S
N566 C562 1.427 . S
N566 C563 1.384 . S
N567 C559 1.427 . S
N567 C565 1.384 . S
H568 C574 0.930 . S
H569 C578 0.930 . S
H570 C583 0.929 . S
H571 C581 0.929 1_655 S
H572 C576 0.929 . S
H573 C582 0.929 . S
C574 H568 0.930 . S
C574 C575 1.367 . S
C574 C582 1.378 . S
C575 C574 1.367 . S
C575 C583 1.433 . S
C576 H572 0.929 . S
C576 C578 1.378 . S
C576 C580 1.350 . S
C577 C580 1.463 . S
C577 C582 1.350 . S
C577 N585 1.427 . S
C578 H569 0.930 . S
C578 C576 1.378 . S
C578 C579 1.367 . S
C579 C578 1.367 . S
C579 C581 1.433 . S
C580 C576 1.350 . S
C580 C577 1.463 . S
C580 N584 1.427 . S
C581 H571 0.929 1_455 S
C581 C579 1.433 . S
C581 N584 1.384 . S
C582 H573 0.929 . S
C582 C574 1.378 . S
C582 C577 1.350 . S
C583 H570 0.929 . S
C583 C575 1.433 . S
C583 N585 1.384 . S
N584 C580 1.427 . S
N584 C581 1.384 . S
N585 C577 1.427 . S
N585 C583 1.384 . S
H586 C592 0.930 . S
H587 C596 0.930 . S
H588 C601 0.929 . S
H589 C599 0.929 . S
H590 C594 0.929 . S
H591 C600 0.929 . S
C592 H586 0.930 . S
C592 C593 1.367 . S
C592 C600 1.378 . S
C593 C592 1.367 . S
C593 C601 1.433 . S
C594 H590 0.929 . S
C594 C596 1.378 . S
C594 C598 1.350 . S
C595 C598 1.463 . S
C595 C600 1.350 . S
C595 N603 1.427 . S
C596 H587 0.930 . S
C596 C594 1.378 . S
C596 C597 1.367 . S
C597 C596 1.367 . S
C597 C599 1.433 . S
C598 C594 1.350 . S
C598 C595 1.463 . S
C598 N602 1.427 . S
C599 H589 0.929 . S
C599 C597 1.433 . S
C599 N602 1.384 . S
C600 H591 0.929 . S
C600 C592 1.378 . S
C600 C595 1.350 . S
C601 H588 0.929 . S
C601 C593 1.433 . S
C601 N603 1.384 . S
N602 C598 1.427 . S
N602 C599 1.384 . S
N603 C595 1.427 . S
N603 C601 1.384 . S
C179 C5 1.772 . S
C183 C104 1.842 . S
C197 C18 1.496 . S
C201 C126 1.563 . S
C219 C145 1.094 . S
C215 C30 1.278 . S
C233 C41 1.537 . S
C237 C166 1.216 . S
C255 C123 2.012 . S
C251 C7 2.035 . S
C273 C101 1.833 . S
C269 C16 1.593 . S
C291 C168 1.364 . S
C287 C29 1.330 . S
C309 C147 1.040 . S
C305 C38 1.020 . S
C323 C8 1.826 . S
C327 C165 1.736 . S
C345 C124 1.440 . S
C341 C27 1.430 . S
C359 C40 1.631 . S
C363 C106 1.423 . S
C377 C19 1.189 . S
C381 C144 1.183 . S
C399 C102 1.646 . S
C395 C51 1.647 . S
C413 C62 1.442 . S
C417 C122 1.487 . S
C431 C74 1.428 . S
C435 C148 1.246 . S
C449 C84 1.433 . S
C453 C169 1.270 . S
C467 C49 1.886 . S
C471 C125 1.985 1_565 S
C489 C105 1.650 . S
C485 C63 1.682 . S
C507 C164 1.170 . S
C503 C71 1.046 . S
C525 C143 1.243 . S
C521 C85 1.259 . S
C539 C52 1.596 . S
C543 C167 1.560 . S
C561 C127 1.448 . S
C557 C73 1.681 . S
C579 C103 1.194 . S
C575 C82 1.048 . S
C593 C60 1.261 . S
C597 C146 1.543 . S
