# Generated by pormake.
# Topology pts, (4,4)-cn, num edge types: 1
# Building blocks:
#     Node 0, Type 0, BuildingBlock: ESEHIV_clean_sbu_0, # of connection points: 4
#     Node 1, Type 0, BuildingBlock: ESEHIV_clean_sbu_0, # of connection points: 4
#     Node 2, Type 1, BuildingBlock: AZAVOO_clean_sbu_0, # of connection points: 4
#     Node 3, Type 1, BuildingBlock: AZAVOO_clean_sbu_0, # of connection points: 4
#     Edge 4, Type (0, 1), BuildingBlock: UVAHIK_clean_linker_0, # of connection points: 2
#     Edge 5, Type (0, 1), BuildingBlock: UVAHIK_clean_linker_0, # of connection points: 2
#     Edge 6, Type (0, 1), BuildingBlock: UVAHIK_clean_linker_0, # of connection points: 2
#     Edge 7, Type (0, 1), BuildingBlock: UVAHIK_clean_linker_0, # of connection points: 2
#     Edge 8, Type (0, 1), BuildingBlock: UVAHIK_clean_linker_0, # of connection points: 2
#     Edge 9, Type (0, 1), BuildingBlock: UVAHIK_clean_linker_0, # of connection points: 2
#     Edge 10, Type (0, 1), BuildingBlock: UVAHIK_clean_linker_0, # of connection points: 2
#     Edge 11, Type (0, 1), BuildingBlock: UVAHIK_clean_linker_0, # of connection points: 2
# Relax obj value: 0.001
# Max RMSD: 0.095
# Mean RMSD: 0.063
data_MOF--net-pts--node1-ESEHIV_clean_sbu_0--node2-AZAVOO_clean_sbu_0--edge1-UVAHIK_clean_linker_0
_symmetry_space_group_name_H-M    P1
_symmetry_Int_Tables_number       1
_symmetry_cell_setting            triclinic
loop_
_symmetry_equiv_pos_as_xyz
'x, y, z'
_cell_length_a     31.335369
_cell_length_b     32.433975
_cell_length_c     48.510682
_cell_angle_alpha  92.804295
_cell_angle_beta   98.820387
_cell_angle_gamma 89.535203
loop_
_atom_site_label
_atom_site_type_symbol
_atom_site_fract_x
_atom_site_fract_y
_atom_site_fract_z
_atom_type_partial_charge
Cu0 Cu 0.54271 0.02954 0.00743 0.0
N1 N 0.56849 0.99735 0.98154 0.0
N2 N 0.61327 0.98256 0.95074 0.0
C3 C 0.60187 0.01042 0.96982 0.0
C4 C 0.58563 0.95069 0.9502 0.0
C5 C 0.55804 0.95987 0.96936 0.0
O6 O 0.58889 0.06105 0.03059 0.0
C7 C 0.46362 0.03969 0.97579 0.0
O8 O 0.46276 1.00039 0.98101 0.0
H9 H 0.61679 0.04041 0.97476 0.0
H10 H 0.53189 0.94093 0.97378 0.0
N11 N 0.51659 0.99886 0.03187 0.0
N12 N 0.47206 0.98589 0.06223 0.0
C13 C 0.484 0.01318 0.04477 0.0
C14 C 0.52594 0.96116 0.04157 0.0
C15 C 0.49851 0.9531 0.06044 0.0
C16 C 0.62185 0.03941 0.03957 0.0
O17 O 0.6216 0.99967 0.0329 0.0
H18 H 0.46997 0.04355 0.0418 0.0
H19 H 0.55117 0.94123 0.0356 0.0
O20 O 0.49711 0.06091 0.98562 0.0
H21 H 0.58536 0.92284 0.93694 0.0
H22 H 0.49801 0.92532 0.07188 0.0
Cu23 Cu 0.09958 0.55522 0.51997 0.0
N24 N 0.12553 0.52132 0.54763 0.0
N25 N 0.1293 0.47349 0.57949 0.0
C26 C 0.10438 0.49143 0.55821 0.0
C27 C 0.16782 0.49284 0.58241 0.0
C28 C 0.16545 0.52232 0.56259 0.0
O29 O 0.07907 0.52039 0.48706 0.0
C30 C 0.03707 0.61715 0.52487 0.0
O31 O 0.04318 0.62573 0.49959 0.0
H32 H 0.07079 0.48399 0.55098 0.0
H33 H 0.19081 0.5433 0.55963 0.0
N34 N 0.1372 0.59514 0.51117 0.0
N35 N 0.15476 0.64961 0.48876 0.0
C36 C 0.13288 0.61366 0.48664 0.0
C37 C 0.16332 0.61985 0.52934 0.0
C38 C 0.17431 0.65344 0.51556 0.0
C39 C 0.10774 0.50404 0.47403 0.0
O40 O 0.14852 0.51294 0.48291 0.0
H41 H 0.11 0.60354 0.46858 0.0
H42 H 0.17027 0.61596 0.55159 0.0
O43 O 0.0545 0.58502 0.53568 0.0
H44 H 0.19562 0.48617 0.59772 0.0
H45 H 0.19246 0.68011 0.52503 0.0
Mg46 Mg 0.08763 0.04537 0.28015 0.0
O47 O 0.02068 0.04497 0.25208 0.0
O48 O 0.97214 0.0424 0.28131 0.0
Mg49 Mg 1.00596 0.03748 0.32616 0.0
C50 C 0.98156 0.04488 0.25675 0.0
C51 C 0.16234 0.04729 0.25043 0.0
O52 O 0.17331 0.03067 0.27468 0.0
O53 O 0.07674 0.1129 0.29424 0.0
O54 O 0.02903 0.10387 0.32343 0.0
O55 O 0.09168 0.97629 0.27889 0.0
O56 O 0.0638 0.01365 0.31082 0.0
C57 C 0.05278 0.12717 0.31163 0.0
C58 C 0.07377 0.97778 0.30123 0.0
O59 O 0.12404 0.06112 0.24453 0.0
Mg60 Mg 0.99839 0.03395 0.73721 0.0
O61 O 0.06589 0.03566 0.76416 0.0
O62 O 0.11274 0.03342 0.73361 0.0
Mg63 Mg 0.07712 0.0233 0.68883 0.0
C64 C 0.10452 0.03671 0.75864 0.0
C65 C 0.92411 0.03963 0.76697 0.0
O66 O 0.91269 0.02325 0.74161 0.0
O67 O 1.00852 0.10071 0.72543 0.0
O68 O 0.05028 0.08898 0.69215 0.0
O69 O 0.99501 0.96471 0.7362 0.0
O70 O 0.02152 1.00007 0.70518 0.0
C71 C 0.02809 0.11309 0.70605 0.0
C72 C 0.01245 0.96477 0.71371 0.0
O73 O 0.96289 0.0521 0.77385 0.0
C74 C 0.4435 0.97496 0.10612 0.0
C75 C 0.439 0.99186 0.07972 0.0
C76 C 0.41267 0.98305 0.12374 0.0
C77 C 0.29986 0.01508 0.12475 0.0
H78 H 0.34116 0.04715 0.20221 0.0
C79 C 0.18283 0.06154 0.20337 0.0
C80 C 0.19351 0.04646 0.23024 0.0
C81 C 0.2123 0.0581 0.18428 0.0
C82 C 0.32896 0.03783 0.18072 0.0
H83 H 0.39779 0.02908 0.05064 0.0
H84 H 0.34382 0.04298 0.08133 0.0
H85 H 0.39281 0.03246 0.17031 0.0
H86 H 0.24374 0.01625 0.25811 0.0
H87 H 0.29406 0.0096 0.22507 0.0
H88 H 0.23598 0.01945 0.13531 0.0
C89 C 0.37131 0.02373 0.08847 0.0
C90 C 0.35866 0.02943 0.16244 0.0
C91 C 0.40239 0.01604 0.07101 0.0
C92 C 0.23436 0.02844 0.23767 0.0
C93 C 0.26353 0.02486 0.2187 0.0
C94 C 0.27006 0.02311 0.14314 0.0
C95 C 0.37639 0.00777 0.11518 0.0
C96 C 0.3445 0.01755 0.13432 0.0
C97 C 0.253 0.03949 0.1917 0.0
C98 C 0.28426 0.0341 0.17147 0.0
H99 H 0.47144 0.95643 0.11346 0.0
H100 H 0.41722 0.96996 0.1441 0.0
H101 H 0.28798 0.00583 0.1032 0.0
H102 H 0.15162 0.07557 0.19699 0.0
H103 H 0.20324 0.07009 0.16376 0.0
C104 C 0.08586 0.41176 0.58376 0.0
C105 C 0.11636 0.44135 0.59595 0.0
C106 C 0.07208 0.38123 0.59968 0.0
C107 C 0.10238 0.32749 0.66554 0.0
H108 H 0.98501 0.28661 0.64678 0.0
C109 C 0.03986 0.18833 0.71871 0.0
C110 C 0.02572 0.15661 0.69876 0.0
C111 C 0.04566 0.22839 0.71024 0.0
C112 C 0.01775 0.29799 0.65242 0.0
H113 H 0.1562 0.46232 0.63448 0.0
H114 H 0.13162 0.40931 0.66259 0.0
H115 H 1.00675 0.34693 0.62425 0.0
H116 H 1.00443 0.1417 0.65486 0.0
H117 H 0.01286 0.21168 0.64021 0.0
H118 H 0.11318 0.27802 0.69357 0.0
C119 C 0.11887 0.40925 0.64054 0.0
C120 C 0.03041 0.33229 0.63934 0.0
C121 C 0.13301 0.43962 0.62447 0.0
C122 C 0.01506 0.16585 0.6706 0.0
C123 C 0.01983 0.20585 0.66225 0.0
C124 C 0.08951 0.29345 0.6789 0.0
C125 C 0.08806 0.37971 0.62835 0.0
C126 C 0.07329 0.34666 0.64501 0.0
C127 C 0.03635 0.23725 0.68184 0.0
C128 C 0.04744 0.27766 0.67183 0.0
H129 H 0.07302 0.41188 0.56174 0.0
H130 H 0.0493 0.35841 0.58931 0.0
H131 H 0.13572 0.3374 0.67034 0.0
H132 H 0.04881 0.18164 0.7405 0.0
H133 H 0.05847 0.25213 0.7257 0.0
C134 C 0.65534 0.08186 0.08181 0.0
C135 C 0.65985 0.0567 0.05807 0.0
C136 C 0.69111 0.08965 0.10259 0.0
C137 C 0.81048 0.08406 0.11883 0.0
H138 H 0.79014 0.04892 0.1909 0.0
C139 C 0.95104 0.04267 0.20546 0.0
C140 C 0.94562 0.05048 0.23346 0.0
C141 C 0.91663 0.04846 0.18383 0.0
C142 C 0.79652 0.05971 0.17117 0.0
H143 H 0.70522 0.02253 0.03627 0.0
H144 H 0.76766 0.03715 0.07194 0.0
H145 H 0.72967 0.05529 0.1535 0.0
H146 H 0.90019 0.07197 0.26057 0.0
H147 H 0.84125 0.0834 0.22319 0.0
H148 H 0.87733 0.08858 0.13641 0.0
C149 C 0.73677 0.05058 0.07479 0.0
C150 C 0.76166 0.06336 0.14969 0.0
C151 C 0.70102 0.04212 0.05441 0.0
C152 C 0.90535 0.06492 0.23928 0.0
C153 C 0.87133 0.07134 0.21773 0.0
C154 C 0.84536 0.08099 0.14046 0.0
C155 C 0.73195 0.07311 0.09957 0.0
C156 C 0.76831 0.07494 0.12318 0.0
C157 C 0.87622 0.06284 0.18968 0.0
C158 C 0.83898 0.06815 0.16685 0.0
H159 H 0.6238 0.09303 0.08521 0.0
H160 H 0.68657 0.10729 0.12147 0.0
H161 H 0.81652 0.09316 0.09859 0.0
H162 H 0.98164 0.03152 0.20028 0.0
H163 H 0.9216 0.04095 0.16256 0.0
C164 C 0.01641 0.69034 0.53488 0.0
C165 C 0.02052 0.64941 0.54317 0.0
C166 C 1.00983 0.72243 0.55405 0.0
C167 C 0.02893 0.74651 0.63027 0.0
H168 H 0.96995 0.84817 0.6087 0.0
C169 C 1.00901 0.88761 0.70663 0.0
C170 C 0.01772 0.92631 0.69687 0.0
C171 C 1.0081 0.85199 0.68904 0.0
C172 C 0.98669 0.81998 0.61497 0.0
H173 H 0.01743 0.6097 0.5775 0.0
H174 H 1.0044 0.66554 0.61071 0.0
H175 H 0.96498 0.78888 0.5755 0.0
H176 H 0.03372 0.95774 0.66132 0.0
H177 H 0.03193 0.89573 0.63074 0.0
H178 H 0.05022 0.77789 0.66991 0.0
C179 C 1.00774 0.67305 0.58964 0.0
C180 C 0.98391 0.786 0.59595 0.0
C181 C 0.01475 0.64096 0.57051 0.0
C182 C 0.02702 0.92843 0.66954 0.0
C183 C 0.02558 0.89299 0.65191 0.0
C184 C 0.03124 0.7804 0.64942 0.0
C185 C 1.0067 0.71434 0.58192 0.0
C186 C 1.00567 0.74904 0.60314 0.0
C187 C 0.0153 0.85456 0.66129 0.0
C188 C 1.01084 0.8177 0.64175 0.0
H189 H 0.02089 0.69802 0.51403 0.0
H190 H 1.00963 0.75377 0.54732 0.0
H191 H 0.04671 0.71886 0.63647 0.0
H192 H 1.00164 0.88501 0.72758 0.0
H193 H 1.00012 0.8227 0.69679 0.0
C194 C 0.3847 0.04384 0.96041 0.0
C195 C 0.42637 0.05683 0.95759 0.0
C196 C 0.34952 0.05189 0.94005 0.0
C197 C 0.32588 0.06026 0.86541 0.0
H198 H 0.21061 0.08931 0.87944 0.0
C199 C 0.1812 0.05733 0.77598 0.0
C200 C 0.14109 0.0438 0.78173 0.0
C201 C 0.21565 0.06501 0.79753 0.0
C202 C 0.24247 0.08067 0.87515 0.0
H203 H 0.46395 0.08986 0.93195 0.0
H204 H 0.40214 0.10341 0.89571 0.0
H205 H 0.27135 0.09522 0.9175 0.0
H206 H 0.1059 0.02761 0.81478 0.0
H207 H 0.16645 0.03939 0.85233 0.0
H208 H 0.29722 0.04356 0.82358 0.0
C209 C 0.39678 0.08736 0.91393 0.0
C210 C 0.27732 0.08448 0.89694 0.0
C211 C 0.432 0.07998 0.93472 0.0
C212 C 0.13631 0.0381 0.80962 0.0
C213 C 0.17103 0.04524 0.8312 0.0
C214 C 0.29102 0.05593 0.84372 0.0
C215 C 0.35538 0.07241 0.91609 0.0
C216 C 0.31932 0.07384 0.89237 0.0
C217 C 0.21124 0.05882 0.82546 0.0
C218 C 0.24868 0.06557 0.84833 0.0
H219 H 0.37964 0.02575 0.97784 0.0
H220 H 0.31818 0.03969 0.94222 0.0
H221 H 0.35775 0.05109 0.86136 0.0
H222 H 0.18593 0.06263 0.75478 0.0
H223 H 0.24566 0.07624 0.79223 0.0
C224 C 0.12846 0.45675 0.43601 0.0
C225 C 0.09635 0.47268 0.45089 0.0
C226 C 0.1193 0.4242 0.4161 0.0
C227 C 0.0465 0.33588 0.40017 0.0
H228 H 0.09628 0.3245 0.33173 0.0
C229 C 0.01692 0.18944 0.32971 0.0
C230 C 0.05297 0.17178 0.31964 0.0
C231 C 0.01847 0.22975 0.34117 0.0
C232 C 0.08237 0.32712 0.35085 0.0
H233 H 0.02886 0.46817 0.45556 0.0
H234 H 0.0128 0.41123 0.42067 0.0
H235 H 0.10508 0.38921 0.36009 0.0
H236 H 0.1182 0.18328 0.31232 0.0
H237 H 0.12145 0.25371 0.33311 0.0
H238 H 0.025 0.27369 0.39168 0.0
C239 C 0.04523 0.42372 0.42469 0.0
C240 C 0.08731 0.36421 0.36705 0.0
C241 C 0.05436 0.45647 0.44456 0.0
C242 C 0.08991 0.19613 0.31988 0.0
C243 C 0.09167 0.23651 0.33174 0.0
C244 C 0.04173 0.29887 0.3841 0.0
C245 C 0.07784 0.40669 0.41064 0.0
C246 C 0.06972 0.36886 0.39203 0.0
C247 C 0.05635 0.25334 0.34327 0.0
C248 C 0.05981 0.29384 0.35932 0.0
H249 H 0.16113 0.46865 0.44027 0.0
H250 H 0.14525 0.4116 0.40587 0.0
H251 H 0.03332 0.33807 0.41957 0.0
H252 H 0.9877 0.17167 0.32937 0.0
H253 H 0.99023 0.24206 0.34908 0.0
C254 C 0.64172 0.97117 0.90614 0.0
C255 C 0.64672 0.98746 0.93381 0.0
C256 C 0.6728 0.97873 0.88914 0.0
C257 C 0.7864 0.0078 0.89028 0.0
H258 H 0.74557 0.04391 0.81584 0.0
C259 C 0.90429 0.05355 0.81516 0.0
C260 C 0.89291 0.03965 0.7871 0.0
C261 C 0.87482 0.05048 0.83406 0.0
C262 C 0.75762 0.03344 0.83644 0.0
H263 H 0.68907 0.02287 0.96572 0.0
H264 H 0.74354 0.03577 0.93609 0.0
H265 H 0.69376 0.02933 0.84668 0.0
H266 H 0.84141 0.01212 0.75691 0.0
H267 H 0.79108 0.00607 0.78956 0.0
H268 H 0.85025 0.01087 0.87981 0.0
C269 C 0.71545 0.01744 0.9275 0.0
C270 C 0.72784 0.02511 0.85412 0.0
C271 C 0.68412 0.01033 0.94437 0.0
C272 C 0.85135 0.02333 0.77832 0.0
C273 C 0.82218 0.02012 0.79709 0.0
C274 C 0.81627 0.01574 0.87246 0.0
C275 C 0.70982 0.00226 0.89957 0.0
C276 C 0.74183 0.0118 0.88112 0.0
C277 C 0.83344 0.03343 0.82525 0.0
C278 C 0.80222 0.02819 0.84516 0.0
H279 H 0.61316 0.95366 0.8974 0.0
H280 H 0.66782 0.96626 0.86777 0.0
H281 H 0.79812 0.99746 0.91098 0.0
H282 H 0.93605 0.06626 0.82259 0.0
H283 H 0.88445 0.06146 0.85553 0.0
C284 C 0.14406 0.72285 0.47796 0.0
C285 C 0.14855 0.6815 0.46889 0.0
C286 C 0.13403 0.75339 0.45868 0.0
C287 C 0.08952 0.76782 0.38396 0.0
H288 H 0.13415 0.87858 0.4021 0.0
C289 C 0.08186 0.90147 0.30678 0.0
C290 C 0.07061 0.94057 0.31731 0.0
C291 C 0.08695 0.86784 0.32404 0.0
C292 C 0.12113 0.84786 0.39687 0.0
H293 H 0.14696 0.63974 0.43261 0.0
H294 H 0.13118 0.6933 0.39871 0.0
H295 H 0.15546 0.82427 0.43424 0.0
H296 H 0.05339 0.97443 0.35373 0.0
H297 H 0.06274 0.91592 0.38379 0.0
H298 H 0.05642 0.79177 0.34596 0.0
C299 C 0.13418 0.7021 0.42074 0.0
C300 C 0.13322 0.81665 0.41533 0.0
C301 C 0.1436 0.67142 0.4401 0.0
C302 C 0.0621 0.94477 0.34493 0.0
C303 C 0.06774 0.91136 0.36224 0.0
C304 C 0.07797 0.79903 0.36524 0.0
C305 C 0.12882 0.7435 0.42977 0.0
C306 C 0.11725 0.77625 0.40933 0.0
C307 C 0.08142 0.87291 0.3522 0.0
C308 C 0.09331 0.83943 0.3717 0.0
H309 H 0.14664 0.73142 0.5 0.0
H310 H 0.12921 0.78461 0.46656 0.0
H311 H 0.07601 0.73732 0.37873 0.0
H312 H 0.08862 0.89724 0.28559 0.0
H313 H 0.09753 0.8385 0.3158 0.0
loop_
_geom_bond_atom_site_label_1
_geom_bond_atom_site_label_2
_geom_bond_distance
_geom_bond_site_symmetry_2
_ccdc_geom_bond_type
Cu0 N1 1.999 1_554 S
Cu0 O6 1.974 . S
Cu0 N11 1.985 . S
Cu0 O20 1.959 1_554 S
N1 Cu0 1.999 1_556 S
N1 C3 1.263 . S
N1 C5 1.389 . S
N2 C3 1.358 . S
N2 C4 1.400 . S
C3 N1 1.263 . S
C3 N2 1.358 . S
C3 H9 0.930 . S
C4 N2 1.400 . S
C4 C5 1.351 . S
C4 H21 0.930 . S
C5 N1 1.389 . S
C5 C4 1.351 . S
C5 H10 0.930 . S
O6 Cu0 1.974 . S
O6 C16 1.282 . S
C7 O8 1.261 1_545 S
C7 O20 1.251 . S
O8 C7 1.261 1_565 S
H9 C3 0.930 . S
H10 C5 0.930 . S
N11 Cu0 1.985 . S
N11 C13 1.335 . S
N11 C14 1.390 . S
N12 C13 1.345 . S
N12 C15 1.336 . S
C13 N11 1.335 . S
C13 N12 1.345 . S
C13 H18 0.930 . S
C14 N11 1.390 . S
C14 C15 1.346 . S
C14 H19 0.930 . S
C15 N12 1.336 . S
C15 C14 1.346 . S
C15 H22 0.929 . S
C16 O6 1.282 . S
C16 O17 1.216 1_545 S
O17 C16 1.216 1_565 S
H18 C13 0.930 . S
H19 C14 0.930 . S
O20 Cu0 1.959 1_556 S
O20 C7 1.251 . S
H21 C4 0.930 . S
H22 C15 0.929 . S
Cu23 N24 1.999 . S
Cu23 O29 1.974 . S
Cu23 N34 1.985 . S
Cu23 O43 1.959 . S
N24 Cu23 1.999 . S
N24 C26 1.263 . S
N24 C28 1.389 1_455 S
N25 C26 1.358 . S
N25 C27 1.400 1_455 S
C26 N24 1.263 . S
C26 N25 1.358 . S
C26 H32 0.930 . S
C27 N25 1.400 1_655 S
C27 C28 1.351 . S
C27 H44 0.930 . S
C28 N24 1.389 1_655 S
C28 C27 1.351 . S
C28 H33 0.930 . S
O29 Cu23 1.974 . S
O29 C39 1.282 . S
C30 O31 1.261 . S
C30 O43 1.251 . S
O31 C30 1.261 . S
H32 C26 0.930 . S
H33 C28 0.930 . S
N34 Cu23 1.985 . S
N34 C36 1.335 . S
N34 C37 1.390 . S
N35 C36 1.345 . S
N35 C38 1.336 . S
C36 N34 1.335 . S
C36 N35 1.345 . S
C36 H41 0.930 . S
C37 N34 1.390 . S
C37 C38 1.346 . S
C37 H42 0.930 . S
C38 N35 1.336 . S
C38 C37 1.346 . S
C38 H45 0.929 . S
C39 O29 1.282 . S
C39 O40 1.216 . S
O40 C39 1.216 . S
H41 C36 0.930 . S
H42 C37 0.930 . S
O43 Cu23 1.959 . S
O43 C30 1.251 . S
H44 C27 0.930 . S
H45 C38 0.929 . S
Mg46 O47 2.028 . S
Mg46 O53 1.986 . S
Mg46 O55 2.114 1_545 S
Mg46 O56 2.251 . S
Mg46 O59 2.010 . S
O47 Mg46 2.028 . S
O47 C50 1.250 1_455 S
O48 Mg49 2.028 . S
O48 C50 1.248 . S
Mg49 O48 2.028 . S
Mg49 O54 2.032 1_655 S
Mg49 O56 2.079 1_655 S
C50 O47 1.250 1_655 S
C50 O48 1.248 . S
C51 O52 1.264 . S
C51 O59 1.249 . S
O52 C51 1.264 . S
O53 Mg46 1.986 . S
O53 C57 1.246 . S
O54 Mg49 2.032 1_455 S
O54 C57 1.259 . S
O55 Mg46 2.114 1_565 S
O55 C58 1.252 . S
O56 Mg46 2.251 . S
O56 Mg49 2.079 1_455 S
O56 C58 1.273 1_545 S
C57 O53 1.246 . S
C57 O54 1.259 . S
C58 O55 1.252 . S
C58 O56 1.273 1_565 S
O59 Mg46 2.010 . S
O59 C51 1.249 . S
Mg60 O61 2.028 . S
Mg60 O67 1.986 . S
Mg60 O69 2.114 1_545 S
Mg60 O70 2.251 . S
Mg60 O73 2.010 1_455 S
O61 Mg60 2.028 . S
O61 C64 1.250 . S
O62 Mg63 2.028 . S
O62 C64 1.248 . S
Mg63 O62 2.028 . S
Mg63 O68 2.032 . S
Mg63 O70 2.079 . S
C64 O61 1.250 . S
C64 O62 1.248 . S
C65 O66 1.264 . S
C65 O73 1.249 . S
O66 C65 1.264 . S
O67 Mg60 1.986 . S
O67 C71 1.246 . S
O68 Mg63 2.032 . S
O68 C71 1.259 . S
O69 Mg60 2.114 1_565 S
O69 C72 1.252 . S
O70 Mg60 2.251 . S
O70 Mg63 2.079 . S
O70 C72 1.273 1_545 S
C71 O67 1.246 . S
C71 O68 1.259 . S
C72 O69 1.252 . S
C72 O70 1.273 1_565 S
O73 Mg60 2.010 1_655 S
O73 C65 1.249 . S
C74 C75 1.349 . S
C74 C76 1.327 . S
C74 H99 0.950 1_545 S
C75 C74 1.349 . S
C75 C91 1.349 . S
C76 C74 1.327 . S
C76 C95 1.429 . S
C76 H100 0.950 1_545 S
C77 C94 1.574 . S
C77 C96 1.368 . S
C77 H101 0.949 . S
H78 C82 0.954 . S
C79 C80 1.349 . S
C79 C81 1.327 . S
C79 H102 0.950 . S
C80 C79 1.349 . S
C80 C92 1.349 . S
C81 C79 1.327 . S
C81 C97 1.429 . S
C81 H103 0.950 . S
C82 H78 0.954 . S
C82 C90 1.574 . S
C82 C98 1.368 . S
H83 C91 0.950 . S
H84 C89 0.950 . S
H85 C90 0.933 1_565 S
H86 C92 0.950 . S
H87 C93 0.950 . S
H88 C94 0.949 . S
C89 H84 0.950 . S
C89 C91 1.327 . S
C89 C95 1.429 . S
C90 C82 1.574 . S
C90 H85 0.933 1_545 S
C90 C96 1.368 . S
C91 C75 1.349 . S
C91 H83 0.950 . S
C91 C89 1.327 . S
C92 C80 1.349 . S
C92 H86 0.950 . S
C92 C93 1.327 . S
C93 H87 0.950 . S
C93 C92 1.327 . S
C93 C97 1.429 . S
C94 C77 1.574 . S
C94 H88 0.949 . S
C94 C98 1.368 . S
C95 C76 1.429 . S
C95 C89 1.429 . S
C95 C96 1.523 . S
C96 C77 1.368 . S
C96 C90 1.368 . S
C96 C95 1.523 . S
C97 C81 1.429 . S
C97 C93 1.429 . S
C97 C98 1.523 . S
C98 C82 1.368 . S
C98 C94 1.368 . S
C98 C97 1.523 . S
H99 C74 0.950 1_565 S
H100 C76 0.950 1_565 S
H101 C77 0.949 . S
H102 C79 0.950 . S
H103 C81 0.950 . S
C104 C105 1.349 . S
C104 C106 1.327 . S
C104 H129 0.950 . S
C105 C104 1.349 . S
C105 C121 1.349 . S
C106 C104 1.327 . S
C106 C125 1.429 . S
C106 H130 0.950 . S
C107 C124 1.574 . S
C107 C126 1.368 . S
C107 H131 0.949 1_455 S
H108 C112 0.949 . S
C109 C110 1.349 . S
C109 C111 1.327 . S
C109 H132 0.950 1_455 S
C110 C109 1.349 . S
C110 C122 1.349 . S
C111 C109 1.327 . S
C111 C127 1.429 . S
C111 H133 0.950 1_455 S
C112 H108 0.949 . S
C112 C120 1.574 . S
C112 C128 1.368 . S
H113 C121 0.950 1_655 S
H114 C119 0.950 1_655 S
H115 C120 0.949 . S
H116 C122 0.950 . S
H117 C123 0.950 . S
H118 C124 0.949 1_655 S
C119 H114 0.950 1_455 S
C119 C121 1.327 . S
C119 C125 1.429 . S
C120 C112 1.574 . S
C120 H115 0.949 . S
C120 C126 1.368 . S
C121 C105 1.349 . S
C121 H113 0.950 1_455 S
C121 C119 1.327 . S
C122 C110 1.349 . S
C122 H116 0.950 . S
C122 C123 1.327 . S
C123 H117 0.950 . S
C123 C122 1.327 . S
C123 C127 1.429 . S
C124 C107 1.574 . S
C124 H118 0.949 1_455 S
C124 C128 1.368 . S
C125 C106 1.429 . S
C125 C119 1.429 . S
C125 C126 1.523 . S
C126 C107 1.368 . S
C126 C120 1.368 . S
C126 C125 1.523 . S
C127 C111 1.429 . S
C127 C123 1.429 . S
C127 C128 1.523 . S
C128 C112 1.368 . S
C128 C124 1.368 . S
C128 C127 1.523 . S
H129 C104 0.950 . S
H130 C106 0.950 . S
H131 C107 0.949 1_655 S
H132 C109 0.950 1_655 S
H133 C111 0.950 1_655 S
C134 C135 1.349 . S
C134 C136 1.327 . S
C134 H159 0.950 . S
C135 C134 1.349 . S
C135 C151 1.349 1_545 S
C136 C134 1.327 . S
C136 C155 1.429 . S
C136 H160 0.950 . S
C137 C154 1.574 . S
C137 C156 1.368 . S
C137 H161 0.949 1_545 S
H138 C142 0.949 . S
C139 C140 1.349 . S
C139 C141 1.327 . S
C139 H162 0.945 1_545 S
C140 C139 1.349 . S
C140 C152 1.349 . S
C141 C139 1.327 . S
C141 C157 1.429 . S
C141 H163 0.950 1_545 S
C142 H138 0.949 . S
C142 C150 1.574 . S
C142 C158 1.368 . S
H143 C151 0.950 . S
H144 C149 0.954 . S
H145 C150 0.949 . S
H146 C152 0.950 . S
H147 C153 0.950 . S
H148 C154 0.949 1_565 S
C149 H144 0.954 . S
C149 C151 1.327 . S
C149 C155 1.424 1_565 S
C150 C142 1.574 . S
C150 H145 0.949 . S
C150 C156 1.368 . S
C151 C135 1.349 1_565 S
C151 H143 0.950 . S
C151 C149 1.327 . S
C152 C140 1.349 . S
C152 H146 0.950 . S
C152 C153 1.327 . S
C153 H147 0.950 . S
C153 C152 1.327 . S
C153 C157 1.429 . S
C154 C137 1.574 . S
C154 H148 0.949 1_545 S
C154 C158 1.368 . S
C155 C136 1.429 . S
C155 C149 1.424 1_545 S
C155 C156 1.523 . S
C156 C137 1.368 . S
C156 C150 1.368 . S
C156 C155 1.523 . S
C157 C141 1.429 . S
C157 C153 1.429 . S
C157 C158 1.523 . S
C158 C142 1.368 . S
C158 C154 1.368 . S
C158 C157 1.523 . S
H159 C134 0.950 . S
H160 C136 0.950 . S
H161 C137 0.949 1_565 S
H162 C139 0.945 1_565 S
H163 C141 0.950 1_565 S
C164 C165 1.349 . S
C164 C166 1.327 . S
C164 H189 0.950 . S
C165 C164 1.349 . S
C165 C181 1.349 . S
C166 C164 1.327 . S
C166 C185 1.429 . S
C166 H190 0.950 . S
C167 C184 1.574 . S
C167 C186 1.368 . S
C167 H191 0.949 . S
H168 C172 0.949 . S
C169 C170 1.349 . S
C169 C171 1.327 . S
C169 H192 0.950 . S
C170 C169 1.349 . S
C170 C182 1.349 . S
C171 C169 1.327 . S
C171 C187 1.429 . S
C171 H193 0.950 . S
C172 H168 0.949 . S
C172 C180 1.574 . S
C172 C188 1.368 . S
H173 C181 0.950 . S
H174 C179 0.950 . S
H175 C180 0.949 . S
H176 C182 0.950 . S
H177 C183 0.950 . S
H178 C184 0.949 . S
C179 H174 0.950 . S
C179 C181 1.327 . S
C179 C185 1.429 . S
C180 C172 1.574 . S
C180 H175 0.949 . S
C180 C186 1.368 . S
C181 C165 1.349 . S
C181 H173 0.950 . S
C181 C179 1.327 . S
C182 C170 1.349 . S
C182 H176 0.950 . S
C182 C183 1.327 . S
C183 H177 0.950 . S
C183 C182 1.327 . S
C183 C187 1.429 . S
C184 C167 1.574 . S
C184 H178 0.949 . S
C184 C188 1.368 . S
C185 C166 1.429 . S
C185 C179 1.429 . S
C185 C186 1.523 . S
C186 C167 1.368 . S
C186 C180 1.368 . S
C186 C185 1.523 . S
C187 C171 1.429 . S
C187 C183 1.429 . S
C187 C188 1.523 . S
C188 C172 1.368 . S
C188 C184 1.368 . S
C188 C187 1.523 . S
H189 C164 0.950 . S
H190 C166 0.950 . S
H191 C167 0.949 . S
H192 C169 0.950 . S
H193 C171 0.950 . S
C194 C195 1.349 1_565 S
C194 C196 1.327 . S
C194 H219 0.950 . S
C195 C194 1.349 1_545 S
C195 C211 1.349 . S
C196 C194 1.327 . S
C196 C215 1.429 1_565 S
C196 H220 0.950 . S
C197 C214 1.574 . S
C197 C216 1.368 . S
C197 H221 0.949 . S
H198 C202 0.949 . S
C199 C200 1.349 . S
C199 C201 1.327 . S
C199 H222 0.950 . S
C200 C199 1.349 . S
C200 C212 1.349 . S
C201 C199 1.327 . S
C201 C217 1.429 . S
C201 H223 0.950 . S
C202 H198 0.949 . S
C202 C210 1.574 . S
C202 C218 1.368 1_565 S
H203 C211 0.950 . S
H204 C209 0.950 . S
H205 C210 0.949 . S
H206 C212 0.950 1_565 S
H207 C213 0.928 1_565 S
H208 C214 0.949 . S
C209 H204 0.950 . S
C209 C211 1.327 . S
C209 C215 1.429 . S
C210 C202 1.574 . S
C210 H205 0.949 . S
C210 C216 1.368 1_565 S
C211 C195 1.349 . S
C211 H203 0.950 . S
C211 C209 1.327 . S
C212 C200 1.349 . S
C212 H206 0.950 1_545 S
C212 C213 1.330 . S
C213 H207 0.928 1_545 S
C213 C212 1.330 . S
C213 C217 1.448 . S
C214 C197 1.574 . S
C214 H208 0.949 . S
C214 C218 1.368 . S
C215 C196 1.429 1_545 S
C215 C209 1.429 . S
C215 C216 1.523 . S
C216 C197 1.368 . S
C216 C210 1.368 1_545 S
C216 C215 1.523 . S
C217 C201 1.429 . S
C217 C213 1.448 . S
C217 C218 1.523 . S
C218 C202 1.368 1_545 S
C218 C214 1.368 . S
C218 C217 1.523 . S
H219 C194 0.950 . S
H220 C196 0.950 . S
H221 C197 0.949 . S
H222 C199 0.950 . S
H223 C201 0.950 . S
C224 C225 1.349 . S
C224 C226 1.327 . S
C224 H249 0.950 . S
C225 C224 1.349 . S
C225 C241 1.349 . S
C226 C224 1.327 . S
C226 C245 1.429 . S
C226 H250 0.950 . S
C227 C244 1.574 . S
C227 C246 1.368 . S
C227 H251 0.949 . S
H228 C232 0.949 . S
C229 C230 1.349 . S
C229 C231 1.327 . S
C229 H252 0.950 . S
C230 C229 1.349 . S
C230 C242 1.349 . S
C231 C229 1.327 . S
C231 C247 1.429 . S
C231 H253 0.950 . S
C232 H228 0.949 . S
C232 C240 1.574 . S
C232 C248 1.368 . S
H233 C241 0.950 . S
H234 C239 0.950 . S
H235 C240 0.949 . S
H236 C242 0.950 . S
H237 C243 0.950 . S
H238 C244 0.949 . S
C239 H234 0.950 . S
C239 C241 1.327 . S
C239 C245 1.429 . S
C240 C232 1.574 . S
C240 H235 0.949 . S
C240 C246 1.368 . S
C241 C225 1.349 . S
C241 H233 0.950 . S
C241 C239 1.327 . S
C242 C230 1.349 . S
C242 H236 0.950 . S
C242 C243 1.327 . S
C243 H237 0.950 . S
C243 C242 1.327 . S
C243 C247 1.429 . S
C244 C227 1.574 . S
C244 H238 0.949 . S
C244 C248 1.368 . S
C245 C226 1.429 . S
C245 C239 1.429 . S
C245 C246 1.523 . S
C246 C227 1.368 . S
C246 C240 1.368 . S
C246 C245 1.523 . S
C247 C231 1.429 . S
C247 C243 1.429 . S
C247 C248 1.523 . S
C248 C232 1.368 . S
C248 C244 1.368 . S
C248 C247 1.523 . S
H249 C224 0.950 . S
H250 C226 0.950 . S
H251 C227 0.949 . S
H252 C229 0.950 . S
H253 C231 0.950 . S
C254 C255 1.349 . S
C254 C256 1.327 . S
C254 H279 0.950 1_545 S
C255 C254 1.349 . S
C255 C271 1.349 . S
C256 C254 1.327 . S
C256 C275 1.429 . S
C256 H280 0.950 1_545 S
C257 C274 1.574 . S
C257 C276 1.368 . S
C257 H281 0.949 . S
H258 C262 0.949 1_565 S
C259 C260 1.349 . S
C259 C261 1.327 . S
C259 H282 0.950 . S
C260 C259 1.349 . S
C260 C272 1.349 . S
C261 C259 1.327 . S
C261 C277 1.429 . S
C261 H283 0.950 . S
C262 H258 0.949 1_545 S
C262 C270 1.574 . S
C262 C278 1.368 . S
H263 C271 0.950 . S
H264 C269 0.950 . S
H265 C270 0.949 1_565 S
H266 C272 0.950 1_565 S
H267 C273 0.950 1_565 S
H268 C274 0.949 . S
C269 H264 0.950 . S
C269 C271 1.327 . S
C269 C275 1.429 . S
C270 C262 1.574 . S
C270 H265 0.949 1_545 S
C270 C276 1.368 . S
C271 C255 1.349 . S
C271 H263 0.950 . S
C271 C269 1.327 . S
C272 C260 1.349 . S
C272 H266 0.950 1_545 S
C272 C273 1.327 . S
C273 H267 0.950 1_545 S
C273 C272 1.327 . S
C273 C277 1.429 . S
C274 C257 1.574 . S
C274 H268 0.949 . S
C274 C278 1.368 . S
C275 C256 1.429 . S
C275 C269 1.429 . S
C275 C276 1.523 . S
C276 C257 1.368 . S
C276 C270 1.368 . S
C276 C275 1.523 . S
C277 C261 1.429 . S
C277 C273 1.429 . S
C277 C278 1.523 . S
C278 C262 1.368 . S
C278 C274 1.368 . S
C278 C277 1.523 . S
H279 C254 0.950 1_565 S
H280 C256 0.950 1_565 S
H281 C257 0.949 . S
H282 C259 0.950 . S
H283 C261 0.950 . S
C284 C285 1.349 . S
C284 C286 1.327 . S
C284 H309 0.950 . S
C285 C284 1.349 . S
C285 C301 1.349 . S
C286 C284 1.327 . S
C286 C305 1.429 . S
C286 H310 0.950 . S
C287 C304 1.574 . S
C287 C306 1.368 . S
C287 H311 0.949 . S
H288 C292 0.949 . S
C289 C290 1.349 . S
C289 C291 1.327 . S
C289 H312 0.950 . S
C290 C289 1.349 . S
C290 C302 1.349 . S
C291 C289 1.327 . S
C291 C307 1.429 . S
C291 H313 0.950 . S
C292 H288 0.949 . S
C292 C300 1.574 . S
C292 C308 1.368 . S
H293 C301 0.950 1_655 S
H294 C299 0.950 1_655 S
H295 C300 0.949 . S
H296 C302 0.950 . S
H297 C303 0.950 . S
H298 C304 0.949 . S
C299 H294 0.950 1_455 S
C299 C301 1.327 . S
C299 C305 1.429 . S
C300 C292 1.574 . S
C300 H295 0.949 . S
C300 C306 1.368 . S
C301 C285 1.349 . S
C301 H293 0.950 1_455 S
C301 C299 1.327 . S
C302 C290 1.349 . S
C302 H296 0.950 . S
C302 C303 1.327 . S
C303 H297 0.950 . S
C303 C302 1.327 . S
C303 C307 1.429 . S
C304 C287 1.574 . S
C304 H298 0.949 . S
C304 C308 1.368 . S
C305 C286 1.429 . S
C305 C299 1.429 . S
C305 C306 1.523 . S
C306 C287 1.368 . S
C306 C300 1.368 . S
C306 C305 1.523 . S
C307 C291 1.429 . S
C307 C303 1.429 . S
C307 C308 1.523 . S
C308 C292 1.368 . S
C308 C304 1.368 . S
C308 C307 1.523 . S
H309 C284 0.950 . S
H310 C286 0.950 . S
H311 C287 0.949 . S
H312 C289 0.950 . S
H313 C291 0.950 . S
C80 C51 1.235 . S
C75 N12 1.430 . S
C110 C71 1.479 . S
C105 N25 1.471 . S
C140 C50 1.426 . S
C135 C16 1.459 . S
C170 C72 1.508 . S
C165 C30 1.507 . S
C200 C64 1.472 . S
C195 C7 1.510 . S
C230 C57 1.424 . S
C225 C39 1.443 . S
C260 C65 1.264 . S
C255 N2 1.466 . S
C285 N35 1.440 . S
C290 C58 1.475 . S
