# Generated by pormake.
# Topology iac, (4,6)-cn, num edge types: 1
# Building blocks:
#     Node 0, Type 0, BuildingBlock: QUQFOY_clean_sbu_3, # of connection points: 4
#     Node 1, Type 0, BuildingBlock: QUQFOY_clean_sbu_3, # of connection points: 4
#     Node 2, Type 0, BuildingBlock: QUQFOY_clean_sbu_3, # of connection points: 4
#     Node 3, Type 0, BuildingBlock: QUQFOY_clean_sbu_3, # of connection points: 4
#     Node 4, Type 0, BuildingBlock: QUQFOY_clean_sbu_3, # of connection points: 4
#     Node 5, Type 0, BuildingBlock: QUQFOY_clean_sbu_3, # of connection points: 4
#     Node 6, Type 0, BuildingBlock: QUQFOY_clean_sbu_3, # of connection points: 4
#     Node 7, Type 0, BuildingBlock: QUQFOY_clean_sbu_3, # of connection points: 4
#     Node 8, Type 0, BuildingBlock: QUQFOY_clean_sbu_3, # of connection points: 4
#     Node 9, Type 0, BuildingBlock: QUQFOY_clean_sbu_3, # of connection points: 4
#     Node 10, Type 0, BuildingBlock: QUQFOY_clean_sbu_3, # of connection points: 4
#     Node 11, Type 0, BuildingBlock: QUQFOY_clean_sbu_3, # of connection points: 4
#     Node 12, Type 0, BuildingBlock: QUQFOY_clean_sbu_3, # of connection points: 4
#     Node 13, Type 0, BuildingBlock: QUQFOY_clean_sbu_3, # of connection points: 4
#     Node 14, Type 0, BuildingBlock: QUQFOY_clean_sbu_3, # of connection points: 4
#     Node 15, Type 0, BuildingBlock: QUQFOY_clean_sbu_3, # of connection points: 4
#     Node 16, Type 0, BuildingBlock: QUQFOY_clean_sbu_3, # of connection points: 4
#     Node 17, Type 0, BuildingBlock: QUQFOY_clean_sbu_3, # of connection points: 4
#     Node 18, Type 0, BuildingBlock: QUQFOY_clean_sbu_3, # of connection points: 4
#     Node 19, Type 0, BuildingBlock: QUQFOY_clean_sbu_3, # of connection points: 4
#     Node 20, Type 0, BuildingBlock: QUQFOY_clean_sbu_3, # of connection points: 4
#     Node 21, Type 0, BuildingBlock: QUQFOY_clean_sbu_3, # of connection points: 4
#     Node 22, Type 0, BuildingBlock: QUQFOY_clean_sbu_3, # of connection points: 4
#     Node 23, Type 0, BuildingBlock: QUQFOY_clean_sbu_3, # of connection points: 4
#     Node 24, Type 1, BuildingBlock: JUFBIX_clean_sbu_0, # of connection points: 6
#     Node 25, Type 1, BuildingBlock: JUFBIX_clean_sbu_0, # of connection points: 6
#     Node 26, Type 1, BuildingBlock: JUFBIX_clean_sbu_0, # of connection points: 6
#     Node 27, Type 1, BuildingBlock: JUFBIX_clean_sbu_0, # of connection points: 6
#     Node 28, Type 1, BuildingBlock: JUFBIX_clean_sbu_0, # of connection points: 6
#     Node 29, Type 1, BuildingBlock: JUFBIX_clean_sbu_0, # of connection points: 6
#     Node 30, Type 1, BuildingBlock: JUFBIX_clean_sbu_0, # of connection points: 6
#     Node 31, Type 1, BuildingBlock: JUFBIX_clean_sbu_0, # of connection points: 6
#     Node 32, Type 1, BuildingBlock: JUFBIX_clean_sbu_0, # of connection points: 6
#     Node 33, Type 1, BuildingBlock: JUFBIX_clean_sbu_0, # of connection points: 6
#     Node 34, Type 1, BuildingBlock: JUFBIX_clean_sbu_0, # of connection points: 6
#     Node 35, Type 1, BuildingBlock: JUFBIX_clean_sbu_0, # of connection points: 6
#     Node 36, Type 1, BuildingBlock: JUFBIX_clean_sbu_0, # of connection points: 6
#     Node 37, Type 1, BuildingBlock: JUFBIX_clean_sbu_0, # of connection points: 6
#     Node 38, Type 1, BuildingBlock: JUFBIX_clean_sbu_0, # of connection points: 6
#     Node 39, Type 1, BuildingBlock: JUFBIX_clean_sbu_0, # of connection points: 6
#     Edge 40, Type (0, 1), BuildingBlock: TEMPAE_clean_linker_10, # of connection points: 2
#     Edge 41, Type (0, 1), BuildingBlock: TEMPAE_clean_linker_10, # of connection points: 2
#     Edge 42, Type (0, 1), BuildingBlock: TEMPAE_clean_linker_10, # of connection points: 2
#     Edge 43, Type (0, 1), BuildingBlock: TEMPAE_clean_linker_10, # of connection points: 2
#     Edge 44, Type (0, 1), BuildingBlock: TEMPAE_clean_linker_10, # of connection points: 2
#     Edge 45, Type (0, 1), BuildingBlock: TEMPAE_clean_linker_10, # of connection points: 2
#     Edge 46, Type (0, 1), BuildingBlock: TEMPAE_clean_linker_10, # of connection points: 2
#     Edge 47, Type (0, 1), BuildingBlock: TEMPAE_clean_linker_10, # of connection points: 2
#     Edge 48, Type (0, 1), BuildingBlock: TEMPAE_clean_linker_10, # of connection points: 2
#     Edge 49, Type (0, 1), BuildingBlock: TEMPAE_clean_linker_10, # of connection points: 2
#     Edge 50, Type (0, 1), BuildingBlock: TEMPAE_clean_linker_10, # of connection points: 2
#     Edge 51, Type (0, 1), BuildingBlock: TEMPAE_clean_linker_10, # of connection points: 2
#     Edge 52, Type (0, 1), BuildingBlock: TEMPAE_clean_linker_10, # of connection points: 2
#     Edge 53, Type (0, 1), BuildingBlock: TEMPAE_clean_linker_10, # of connection points: 2
#     Edge 54, Type (0, 1), BuildingBlock: TEMPAE_clean_linker_10, # of connection points: 2
#     Edge 55, Type (0, 1), BuildingBlock: TEMPAE_clean_linker_10, # of connection points: 2
#     Edge 56, Type (0, 1), BuildingBlock: TEMPAE_clean_linker_10, # of connection points: 2
#     Edge 57, Type (0, 1), BuildingBlock: TEMPAE_clean_linker_10, # of connection points: 2
#     Edge 58, Type (0, 1), BuildingBlock: TEMPAE_clean_linker_10, # of connection points: 2
#     Edge 59, Type (0, 1), BuildingBlock: TEMPAE_clean_linker_10, # of connection points: 2
#     Edge 60, Type (0, 1), BuildingBlock: TEMPAE_clean_linker_10, # of connection points: 2
#     Edge 61, Type (0, 1), BuildingBlock: TEMPAE_clean_linker_10, # of connection points: 2
#     Edge 62, Type (0, 1), BuildingBlock: TEMPAE_clean_linker_10, # of connection points: 2
#     Edge 63, Type (0, 1), BuildingBlock: TEMPAE_clean_linker_10, # of connection points: 2
#     Edge 64, Type (0, 1), BuildingBlock: TEMPAE_clean_linker_10, # of connection points: 2
#     Edge 65, Type (0, 1), BuildingBlock: TEMPAE_clean_linker_10, # of connection points: 2
#     Edge 66, Type (0, 1), BuildingBlock: TEMPAE_clean_linker_10, # of connection points: 2
#     Edge 67, Type (0, 1), BuildingBlock: TEMPAE_clean_linker_10, # of connection points: 2
#     Edge 68, Type (0, 1), BuildingBlock: TEMPAE_clean_linker_10, # of connection points: 2
#     Edge 69, Type (0, 1), BuildingBlock: TEMPAE_clean_linker_10, # of connection points: 2
#     Edge 70, Type (0, 1), BuildingBlock: TEMPAE_clean_linker_10, # of connection points: 2
#     Edge 71, Type (0, 1), BuildingBlock: TEMPAE_clean_linker_10, # of connection points: 2
#     Edge 72, Type (0, 1), BuildingBlock: TEMPAE_clean_linker_10, # of connection points: 2
#     Edge 73, Type (0, 1), BuildingBlock: TEMPAE_clean_linker_10, # of connection points: 2
#     Edge 74, Type (0, 1), BuildingBlock: TEMPAE_clean_linker_10, # of connection points: 2
#     Edge 75, Type (0, 1), BuildingBlock: TEMPAE_clean_linker_10, # of connection points: 2
#     Edge 76, Type (0, 1), BuildingBlock: TEMPAE_clean_linker_10, # of connection points: 2
#     Edge 77, Type (0, 1), BuildingBlock: TEMPAE_clean_linker_10, # of connection points: 2
#     Edge 78, Type (0, 1), BuildingBlock: TEMPAE_clean_linker_10, # of connection points: 2
#     Edge 79, Type (0, 1), BuildingBlock: TEMPAE_clean_linker_10, # of connection points: 2
#     Edge 80, Type (0, 1), BuildingBlock: TEMPAE_clean_linker_10, # of connection points: 2
#     Edge 81, Type (0, 1), BuildingBlock: TEMPAE_clean_linker_10, # of connection points: 2
#     Edge 82, Type (0, 1), BuildingBlock: TEMPAE_clean_linker_10, # of connection points: 2
#     Edge 83, Type (0, 1), BuildingBlock: TEMPAE_clean_linker_10, # of connection points: 2
#     Edge 84, Type (0, 1), BuildingBlock: TEMPAE_clean_linker_10, # of connection points: 2
#     Edge 85, Type (0, 1), BuildingBlock: TEMPAE_clean_linker_10, # of connection points: 2
#     Edge 86, Type (0, 1), BuildingBlock: TEMPAE_clean_linker_10, # of connection points: 2
#     Edge 87, Type (0, 1), BuildingBlock: TEMPAE_clean_linker_10, # of connection points: 2
#     Edge 88, Type (0, 1), BuildingBlock: TEMPAE_clean_linker_10, # of connection points: 2
#     Edge 89, Type (0, 1), BuildingBlock: TEMPAE_clean_linker_10, # of connection points: 2
#     Edge 90, Type (0, 1), BuildingBlock: TEMPAE_clean_linker_10, # of connection points: 2
#     Edge 91, Type (0, 1), BuildingBlock: TEMPAE_clean_linker_10, # of connection points: 2
#     Edge 92, Type (0, 1), BuildingBlock: TEMPAE_clean_linker_10, # of connection points: 2
#     Edge 93, Type (0, 1), BuildingBlock: TEMPAE_clean_linker_10, # of connection points: 2
#     Edge 94, Type (0, 1), BuildingBlock: TEMPAE_clean_linker_10, # of connection points: 2
#     Edge 95, Type (0, 1), BuildingBlock: TEMPAE_clean_linker_10, # of connection points: 2
#     Edge 96, Type (0, 1), BuildingBlock: TEMPAE_clean_linker_10, # of connection points: 2
#     Edge 97, Type (0, 1), BuildingBlock: TEMPAE_clean_linker_10, # of connection points: 2
#     Edge 98, Type (0, 1), BuildingBlock: TEMPAE_clean_linker_10, # of connection points: 2
#     Edge 99, Type (0, 1), BuildingBlock: TEMPAE_clean_linker_10, # of connection points: 2
#     Edge 100, Type (0, 1), BuildingBlock: TEMPAE_clean_linker_10, # of connection points: 2
#     Edge 101, Type (0, 1), BuildingBlock: TEMPAE_clean_linker_10, # of connection points: 2
#     Edge 102, Type (0, 1), BuildingBlock: TEMPAE_clean_linker_10, # of connection points: 2
#     Edge 103, Type (0, 1), BuildingBlock: TEMPAE_clean_linker_10, # of connection points: 2
#     Edge 104, Type (0, 1), BuildingBlock: TEMPAE_clean_linker_10, # of connection points: 2
#     Edge 105, Type (0, 1), BuildingBlock: TEMPAE_clean_linker_10, # of connection points: 2
#     Edge 106, Type (0, 1), BuildingBlock: TEMPAE_clean_linker_10, # of connection points: 2
#     Edge 107, Type (0, 1), BuildingBlock: TEMPAE_clean_linker_10, # of connection points: 2
#     Edge 108, Type (0, 1), BuildingBlock: TEMPAE_clean_linker_10, # of connection points: 2
#     Edge 109, Type (0, 1), BuildingBlock: TEMPAE_clean_linker_10, # of connection points: 2
#     Edge 110, Type (0, 1), BuildingBlock: TEMPAE_clean_linker_10, # of connection points: 2
#     Edge 111, Type (0, 1), BuildingBlock: TEMPAE_clean_linker_10, # of connection points: 2
#     Edge 112, Type (0, 1), BuildingBlock: TEMPAE_clean_linker_10, # of connection points: 2
#     Edge 113, Type (0, 1), BuildingBlock: TEMPAE_clean_linker_10, # of connection points: 2
#     Edge 114, Type (0, 1), BuildingBlock: TEMPAE_clean_linker_10, # of connection points: 2
#     Edge 115, Type (0, 1), BuildingBlock: TEMPAE_clean_linker_10, # of connection points: 2
#     Edge 116, Type (0, 1), BuildingBlock: TEMPAE_clean_linker_10, # of connection points: 2
#     Edge 117, Type (0, 1), BuildingBlock: TEMPAE_clean_linker_10, # of connection points: 2
#     Edge 118, Type (0, 1), BuildingBlock: TEMPAE_clean_linker_10, # of connection points: 2
#     Edge 119, Type (0, 1), BuildingBlock: TEMPAE_clean_linker_10, # of connection points: 2
#     Edge 120, Type (0, 1), BuildingBlock: TEMPAE_clean_linker_10, # of connection points: 2
#     Edge 121, Type (0, 1), BuildingBlock: TEMPAE_clean_linker_10, # of connection points: 2
#     Edge 122, Type (0, 1), BuildingBlock: TEMPAE_clean_linker_10, # of connection points: 2
#     Edge 123, Type (0, 1), BuildingBlock: TEMPAE_clean_linker_10, # of connection points: 2
#     Edge 124, Type (0, 1), BuildingBlock: TEMPAE_clean_linker_10, # of connection points: 2
#     Edge 125, Type (0, 1), BuildingBlock: TEMPAE_clean_linker_10, # of connection points: 2
#     Edge 126, Type (0, 1), BuildingBlock: TEMPAE_clean_linker_10, # of connection points: 2
#     Edge 127, Type (0, 1), BuildingBlock: TEMPAE_clean_linker_10, # of connection points: 2
#     Edge 128, Type (0, 1), BuildingBlock: TEMPAE_clean_linker_10, # of connection points: 2
#     Edge 129, Type (0, 1), BuildingBlock: TEMPAE_clean_linker_10, # of connection points: 2
#     Edge 130, Type (0, 1), BuildingBlock: TEMPAE_clean_linker_10, # of connection points: 2
#     Edge 131, Type (0, 1), BuildingBlock: TEMPAE_clean_linker_10, # of connection points: 2
#     Edge 132, Type (0, 1), BuildingBlock: TEMPAE_clean_linker_10, # of connection points: 2
#     Edge 133, Type (0, 1), BuildingBlock: TEMPAE_clean_linker_10, # of connection points: 2
#     Edge 134, Type (0, 1), BuildingBlock: TEMPAE_clean_linker_10, # of connection points: 2
#     Edge 135, Type (0, 1), BuildingBlock: TEMPAE_clean_linker_10, # of connection points: 2
# Relax obj value: 0.224
# Max RMSD: 0.231
# Mean RMSD: 0.112
data_MOF--net-iac--node1-QUQFOY_clean_sbu_3--node2-JUFBIX_clean_sbu_0--edge1-TEMPAE_clean_linker_10
_symmetry_space_group_name_H-M    P1
_symmetry_Int_Tables_number       1
_symmetry_cell_setting            triclinic
loop_
_symmetry_equiv_pos_as_xyz
'x, y, z'
_cell_length_a     55.234921
_cell_length_b     57.649206
_cell_length_c     56.503221
_cell_angle_alpha  90.178085
_cell_angle_beta   88.162634
_cell_angle_gamma 89.188604
loop_
_atom_site_label
_atom_site_type_symbol
_atom_site_fract_x
_atom_site_fract_y
_atom_site_fract_z
_atom_type_partial_charge
C0 C 0.98987 0.25904 0.17756 0.0
O1 O 0.00311 0.24377 0.18716 0.0
Cd2 Cd 0.04428 0.23528 0.17632 0.0
O3 O -0.00176 0.27101 0.16017 0.0
Cd4 Cd 0.03832 0.27344 0.13681 0.0
C5 C 0.03643 0.21529 0.12006 0.0
O6 O 0.06095 0.27324 0.17341 0.0
O7 O 0.08363 0.27101 0.142 0.0
O8 O 0.02654 0.31494 0.13279 0.0
C9 C 0.08212 0.27351 0.16431 0.0
O10 O 0.04369 0.21094 0.14075 0.0
C11 C 0.03497 0.31771 0.11184 0.0
O12 O 0.03137 0.23615 0.11407 0.0
O13 O 0.04441 0.29976 0.10194 0.0
C14 C 0.02039 0.76555 0.36465 0.0
O15 O 0.03762 0.77725 0.35564 0.0
Cd16 Cd 0.06929 0.78959 0.38003 0.0
O17 O 0.0215 0.75801 0.38578 0.0
Cd18 Cd 0.05073 0.75691 0.41825 0.0
C19 C 0.0339 0.81148 0.42657 0.0
O20 O 0.08822 0.75544 0.39561 0.0
O21 O 0.09076 0.76963 0.43083 0.0
O22 O 0.04145 0.71613 0.42175 0.0
C23 C 0.10144 0.76133 0.41244 0.0
O24 O 0.04822 0.81556 0.40898 0.0
C25 C 0.04273 0.71573 0.44413 0.0
O26 O 0.03042 0.79086 0.43355 0.0
O27 O 0.04693 0.73469 0.45458 0.0
C28 C 0.48058 0.77144 0.68338 0.0
O29 O 0.49461 0.75688 0.69301 0.0
Cd30 Cd 0.53468 0.74714 0.67986 0.0
O31 O 0.48731 0.782 0.66443 0.0
Cd32 Cd 0.52566 0.78321 0.63816 0.0
C33 C 0.52412 0.72437 0.62489 0.0
O34 O 0.55031 0.7848 0.673 0.0
O35 O 0.57141 0.78045 0.64088 0.0
O36 O 0.51358 0.82451 0.63309 0.0
C37 C 0.57106 0.78397 0.66306 0.0
O38 O 0.5322 0.7214 0.64552 0.0
C39 C 0.52105 0.82657 0.61174 0.0
O40 O 0.51831 0.74471 0.6178 0.0
O41 O 0.52999 0.80829 0.60207 0.0
C42 C 0.53007 0.26227 0.86013 0.0
O43 O 0.54573 0.27518 0.85014 0.0
Cd44 Cd 0.58071 0.28688 0.86992 0.0
O45 O 0.53415 0.25283 0.88002 0.0
Cd46 Cd 0.56766 0.24872 0.90815 0.0
C47 C 0.55264 0.30252 0.92381 0.0
O48 O 0.60116 0.25199 0.88036 0.0
O49 O 0.60891 0.26102 0.91633 0.0
O50 O 0.55888 0.20758 0.9085 0.0
C51 C 0.6167 0.25736 0.8953 0.0
O52 O 0.5634 0.30828 0.90444 0.0
C53 C 0.5623 0.2051 0.93046 0.0
O54 O 0.55058 0.28131 0.9295 0.0
O55 O 0.56815 0.22292 0.94208 0.0
C56 C 0.11028 0.004 0.32332 0.0
O57 O 0.09758 0.01669 0.31002 0.0
Cd58 Cd 0.10789 0.02718 0.27055 0.0
O59 O 0.13078 0.99579 0.31609 0.0
Cd60 Cd 0.15657 -0.00353 0.27952 0.0
C61 C 0.16099 0.0548 0.28173 0.0
O62 O 0.12232 0.99059 0.25628 0.0
O63 O 0.15515 0.99577 0.23571 0.0
O64 O 0.16902 0.95833 0.29216 0.0
C65 C 0.13282 0.99104 0.23617 0.0
O66 O 0.13923 0.0562 0.275 0.0
C67 C 0.19077 0.96013 0.2845 0.0
O68 O 0.17097 0.03523 0.28554 0.0
O69 O 0.19685 0.97933 0.2753 0.0
C70 C 0.28373 0.94286 0.53248 0.0
O71 O 0.2682 0.95915 0.53059 0.0
Cd72 Cd 0.22893 0.94622 0.52117 0.0
O73 O 0.27708 0.92215 0.53667 0.0
Cd74 Cd 0.24086 0.89892 0.54731 0.0
C75 C 0.24951 0.89709 0.48965 0.0
O76 O 0.21181 0.92948 0.55633 0.0
O77 O 0.19713 0.89601 0.54723 0.0
O78 O 0.25755 0.89065 0.58556 0.0
C79 C 0.19353 0.9166 0.55458 0.0
O80 O 0.24365 0.91852 0.49068 0.0
C81 C 0.25162 0.86943 0.58541 0.0
O82 O 0.24844 0.88433 0.50794 0.0
O83 O 0.24181 0.86176 0.56698 0.0
C84 C 0.45586 0.03112 0.77626 0.0
O85 O 0.46327 0.01584 0.76139 0.0
Cd86 Cd 0.43956 0.00299 0.72922 0.0
O87 O 0.43569 0.04162 0.77371 0.0
Cd88 Cd 0.40237 0.04355 0.74606 0.0
C89 C 0.38698 0.98904 0.75975 0.0
O90 O 0.42482 0.03663 0.70979 0.0
O91 O 0.38571 0.03555 0.70753 0.0
O92 O 0.4009 0.0853 0.74408 0.0
C93 C 0.40639 0.03455 0.69719 0.0
O94 O 0.40584 0.98234 0.74792 0.0
C95 C 0.37966 0.08718 0.75321 0.0
O96 O 0.38203 0.01049 0.76257 0.0
O97 O 0.36933 0.06869 0.75993 0.0
C98 C 0.29781 0.11226 0.04173 0.0
O99 O 0.28418 0.10238 0.05706 0.0
Cd100 Cd 0.24351 0.11406 0.06685 0.0
O101 O 0.29031 0.13021 0.03078 0.0
Cd102 Cd 0.25213 0.15461 0.02981 0.0
C103 C 0.25344 0.16795 0.08966 0.0
O104 O 0.22776 0.11977 0.02837 0.0
O105 O 0.20639 0.151 0.03089 0.0
O106 O 0.26557 0.15998 0.98813 0.0
C107 C 0.20699 0.12913 0.02819 0.0
O108 O 0.24535 0.14767 0.09331 0.0
C109 C 0.26003 0.18136 0.98672 0.0
O110 O 0.25904 0.17459 0.06866 0.0
O111 O 0.25089 0.19068 0.00544 0.0
C112 C 0.77937 0.44032 0.00887 0.0
O113 O 0.76418 0.44742 0.99404 0.0
Cd114 Cd 0.72455 0.43259 0.99288 0.0
O115 O 0.77318 0.4261 0.02517 0.0
Cd116 Cd 0.73567 0.40633 0.03945 0.0
C117 C 0.74232 0.37529 0.98945 0.0
O118 O 0.70927 0.43878 0.03261 0.0
O119 O 0.69131 0.40597 0.03517 0.0
O120 O 0.74969 0.411 0.08 0.0
C121 C 0.68965 0.42791 0.03471 0.0
O122 O 0.73295 0.39261 0.97899 0.0
C123 C 0.74075 0.39198 0.08712 0.0
O124 O 0.74597 0.37606 0.0115 0.0
O125 O 0.73 0.37981 0.07207 0.0
C126 C 0.95559 0.54926 0.27809 0.0
O127 O 0.96638 0.53772 0.26167 0.0
Cd128 Cd 0.94304 0.51995 0.23212 0.0
O129 O 0.93304 0.55387 0.277 0.0
Cd130 Cd 0.89987 0.54944 0.24917 0.0
C131 C 0.89748 0.4948 0.266 0.0
O132 O 0.92097 0.5495 0.21174 0.0
O133 O 0.88589 0.53298 0.21214 0.0
O134 O 0.8923 0.59 0.24535 0.0
C135 C 0.90338 0.54177 0.20037 0.0
O136 O 0.91728 0.49235 0.254 0.0
C137 C 0.87065 0.58964 0.25344 0.0
O138 O 0.88675 0.51439 0.2677 0.0
O139 O 0.86257 0.5704 0.26094 0.0
C140 C 0.80169 0.61225 0.53076 0.0
O141 O 0.78748 0.60154 0.54491 0.0
Cd142 Cd 0.74691 0.61272 0.55545 0.0
O143 O 0.79488 0.63113 0.52101 0.0
Cd144 Cd 0.75704 0.65609 0.52065 0.0
C145 C 0.75694 0.66579 0.58092 0.0
O146 O 0.73154 0.6224 0.51795 0.0
O147 O 0.71142 0.65411 0.52321 0.0
O148 O 0.76873 0.6626 0.4788 0.0
C149 C 0.7111 0.63241 0.51944 0.0
O150 O 0.74878 0.64534 0.58308 0.0
C151 C 0.76421 0.68424 0.47853 0.0
O152 O 0.7633 0.67372 0.56059 0.0
O153 O 0.75667 0.69321 0.49804 0.0
C154 C 0.60821 0.48185 0.80291 0.0
O155 O 0.59857 0.49084 0.78496 0.0
Cd156 Cd 0.61987 0.50314 0.75044 0.0
O157 O 0.63112 0.47867 0.80352 0.0
Cd158 Cd 0.66622 0.48395 0.77498 0.0
C159 C 0.6588 0.54224 0.77352 0.0
O160 O 0.64444 0.46913 0.7428 0.0
O161 O 0.67721 0.48555 0.73138 0.0
O162 O 0.6861 0.44955 0.79042 0.0
C163 C 0.65923 0.4734 0.72603 0.0
O164 O 0.64063 0.53944 0.76053 0.0
C165 C 0.70667 0.45889 0.79217 0.0
O166 O 0.66999 0.52482 0.78176 0.0
O167 O 0.70819 0.48006 0.78636 0.0
C168 C 0.97025 0.7807 0.86442 0.0
O169 O 0.98347 0.79586 0.85439 0.0
Cd170 Cd 0.02553 0.80209 0.86188 0.0
O171 O 0.97833 0.76826 0.8812 0.0
Cd172 Cd 0.01696 0.76577 0.90434 0.0
C173 C 0.02101 0.82498 0.91774 0.0
O174 O 0.04396 0.76517 0.86882 0.0
O175 O 0.06174 0.76679 0.90213 0.0
O176 O 0.01257 0.72327 0.90648 0.0
C177 C 0.06364 0.765 0.87976 0.0
O178 O 0.02761 0.82727 0.89611 0.0
C179 C 0.01261 0.72125 0.92882 0.0
O180 O 0.0139 0.80528 0.92565 0.0
O181 O 0.01382 0.74012 0.94046 0.0
C182 C 0.9917 0.26108 0.66268 0.0
O183 O 0.00826 0.25321 0.67568 0.0
Cd184 Cd 0.04945 0.26502 0.67343 0.0
O185 O -0.00348 0.27523 0.64592 0.0
Cd186 Cd 0.03127 0.29474 0.62643 0.0
C187 C 0.06338 0.24464 0.61742 0.0
O188 O 0.04389 0.30495 0.66448 0.0
O189 O 0.06813 0.31663 0.63696 0.0
O190 O -0.00029 0.32154 0.61432 0.0
C191 C 0.06324 0.31518 0.65897 0.0
O192 O 0.06681 0.24368 0.63958 0.0
C193 C 0.01006 0.32629 0.59458 0.0
O194 O 0.05009 0.26047 0.60876 0.0
O195 O 0.03008 0.31605 0.5896 0.0
C196 C 0.48089 0.29271 0.36606 0.0
O197 O 0.49366 0.30896 0.35743 0.0
Cd198 Cd 0.53575 0.31439 0.36543 0.0
O199 O 0.48938 0.27908 0.38168 0.0
Cd200 Cd 0.52782 0.27511 0.40514 0.0
C201 C 0.53129 0.33294 0.4231 0.0
O202 O 0.55326 0.27639 0.36822 0.0
O203 O 0.57263 0.27335 0.40043 0.0
O204 O 0.51071 0.23545 0.40954 0.0
C205 C 0.57347 0.27424 0.37804 0.0
O206 O 0.53799 0.33679 0.40173 0.0
C207 C 0.52139 0.23009 0.42834 0.0
O208 O 0.52414 0.31273 0.42941 0.0
O209 O 0.5344 0.24577 0.43707 0.0
C210 C 0.46614 0.74728 0.15501 0.0
O211 O 0.48205 0.7335 0.16296 0.0
Cd212 Cd 0.52422 0.73733 0.15437 0.0
O213 O 0.47215 0.76358 0.1409 0.0
Cd214 Cd 0.50903 0.77918 0.12113 0.0
C215 C 0.52486 0.72833 0.09462 0.0
O216 O 0.52899 0.77848 0.15819 0.0
O217 O 0.55172 0.78892 0.1287 0.0
O218 O 0.48421 0.81458 0.12056 0.0
C219 C 0.54916 0.78608 0.15085 0.0
O220 O 0.5308 0.72098 0.11486 0.0
C221 C 0.4934 0.82176 0.10111 0.0
O222 O 0.51542 0.74839 0.09232 0.0
O223 O 0.50948 0.80896 0.09096 0.0
C224 C 0.92899 0.03979 0.77006 0.0
O225 O 0.94195 0.03464 0.75176 0.0
Cd226 Cd 0.92671 0.03616 0.71294 0.0
O227 O 0.90733 0.04742 0.76832 0.0
Cd228 Cd 0.87666 0.05879 0.73957 0.0
C229 C 0.87613 0.00225 0.72414 0.0
O230 O 0.9071 0.07314 0.71394 0.0
O231 O 0.8721 0.07367 0.69857 0.0
O232 O 0.87011 0.09075 0.76595 0.0
C233 C 0.89446 0.07827 0.69647 0.0
O234 O 0.89739 0.00472 0.71513 0.0
C235 C 0.84717 0.09107 0.76527 0.0
O236 O 0.86469 0.0191 0.73416 0.0
O237 O 0.83742 0.07529 0.75319 0.0
C238 C 0.84017 0.13234 0.52597 0.0
O239 O 0.82969 0.12172 0.543 0.0
Cd240 Cd 0.78796 0.12803 0.55477 0.0
O241 O 0.82863 0.14725 0.514 0.0
Cd242 Cd 0.78779 0.16453 0.51117 0.0
C243 C 0.78686 0.18691 0.56655 0.0
O244 O 0.76615 0.1288 0.51917 0.0
O245 O 0.74429 0.15989 0.51604 0.0
O246 O 0.7979 0.16109 0.46923 0.0
C247 C 0.74526 0.13821 0.51953 0.0
O248 O 0.78489 0.16597 0.5734 0.0
C249 C 0.79069 0.18132 0.46387 0.0
O250 O 0.78999 0.19167 0.54465 0.0
O251 O 0.78215 0.19402 0.48067 0.0
C252 C 0.61629 0.04051 0.32588 0.0
O253 O 0.5994 0.04942 0.31394 0.0
Cd254 Cd 0.59504 0.04291 0.27214 0.0
O255 O 0.63237 0.02742 0.31603 0.0
Cd256 Cd 0.64522 0.01081 0.27813 0.0
C257 C 0.65001 0.06409 0.2531 0.0
O258 O 0.60459 0.00258 0.26838 0.0
O259 O 0.63135 0.99251 0.24181 0.0
O260 O 0.65935 0.97989 0.30293 0.0
C261 C 0.60914 0.99411 0.24805 0.0
O262 O 0.62699 0.06591 0.2533 0.0
C263 C 0.67944 0.97713 0.29166 0.0
O264 O 0.66055 0.04661 0.26211 0.0
O265 O 0.68365 0.99035 0.27409 0.0
C266 C 0.7999 0.94232 0.01088 0.0
O267 O 0.7837 0.9527 -0.00073 0.0
Cd268 Cd 0.74328 0.93981 0.99401 0.0
O269 O 0.79523 0.92329 0.02161 0.0
Cd270 Cd 0.75834 0.89789 0.02898 0.0
C271 C 0.75251 0.88513 0.96953 0.0
O272 O 0.72933 0.93022 0.03278 0.0
O273 O 0.71303 0.89671 0.03149 0.0
O274 O 0.76804 0.89555 0.07119 0.0
C275 C 0.71019 0.91847 0.03391 0.0
O276 O 0.74471 0.90594 0.96791 0.0
C277 C 0.76806 0.87362 0.07295 0.0
O278 O 0.76043 0.87752 0.98915 0.0
O279 O 0.76448 0.86244 0.05395 0.0
C280 C 0.29387 0.61271 0.0095 0.0
O281 O 0.27471 0.60168 0.01464 0.0
Cd282 Cd 0.23888 0.6207 0.03001 0.0
O283 O 0.29431 0.63478 0.0101 0.0
Cd284 Cd 0.26825 0.66961 0.01525 0.0
C285 C 0.26271 0.65754 0.07302 0.0
O286 O 0.23294 0.6508 0.00267 0.0
O287 O 0.22598 0.68404 0.0188 0.0
O288 O 0.29045 0.67765 0.97924 0.0
C289 C 0.21747 0.66572 0.01004 0.0
O290 O 0.24986 0.64049 0.0667 0.0
C291 C 0.29067 0.69948 0.98174 0.0
O292 O 0.27333 0.67048 0.05774 0.0
O293 O 0.28089 0.70792 0.00062 0.0
C294 C 0.11388 0.53313 0.8251 0.0
O295 O 0.09725 0.5426 0.81326 0.0
Cd296 Cd 0.0942 0.53692 0.77126 0.0
O297 O 0.12953 0.5197 0.81507 0.0
Cd298 Cd 0.14179 0.50282 0.77706 0.0
C299 C 0.15051 0.55662 0.75471 0.0
O300 O 0.10089 0.49589 0.76649 0.0
O301 O 0.12807 0.48634 0.74001 0.0
O302 O 0.15438 0.47142 0.80213 0.0
C303 C 0.1058 0.48769 0.74608 0.0
O304 O 0.12764 0.55986 0.75495 0.0
C305 C 0.17438 0.46785 0.79093 0.0
O306 O 0.1597 0.5379 0.76245 0.0
O307 O 0.17911 0.48061 0.77312 0.0
C308 C 0.30333 0.44186 0.52265 0.0
O309 O 0.28773 0.45297 0.51094 0.0
Cd310 Cd 0.24753 0.44063 0.50338 0.0
O311 O 0.29807 0.42242 0.53227 0.0
Cd312 Cd 0.26093 0.39706 0.5375 0.0
C313 C 0.25746 0.38667 0.47711 0.0
O314 O 0.23212 0.42949 0.54117 0.0
O315 O 0.21547 0.39625 0.53853 0.0
O316 O 0.26971 0.39438 0.57992 0.0
C317 C 0.21279 0.418 0.54124 0.0
O318 O 0.24997 0.40764 0.47608 0.0
C319 C 0.27008 0.37244 0.58154 0.0
O320 O 0.26443 0.37816 0.49674 0.0
O321 O 0.26685 0.36133 0.5624 0.0
C322 C 0.46185 0.5323 0.27088 0.0
O323 O 0.47437 0.52247 0.25436 0.0
Cd324 Cd 0.46001 0.52326 0.21434 0.0
O325 O 0.44192 0.54244 0.26653 0.0
Cd326 Cd 0.41348 0.55243 0.23636 0.0
C327 C 0.40637 0.49534 0.22442 0.0
O328 O 0.44601 0.56279 0.20908 0.0
O329 O 0.40995 0.56656 0.19607 0.0
O330 O 0.40447 0.58226 0.26566 0.0
C331 C 0.43256 0.56839 0.19222 0.0
O332 O 0.42752 0.49457 0.21476 0.0
C333 C 0.38229 0.58416 0.26074 0.0
O334 O 0.39798 0.51388 0.23395 0.0
O335 O 0.37461 0.57149 0.24426 0.0
Co336 Co 0.00898 0.03194 -0.00283 0.0
C337 C 0.00409 0.06445 0.03451 0.0
Co338 Co 0.01179 0.01695 0.03242 0.0
C339 C 0.99563 0.03784 0.94917 0.0
C340 C 0.01802 0.06535 0.96086 0.0
N341 N 0.00716 0.0457 0.96813 0.0
N342 N -0.00106 0.05172 0.93022 0.0
C343 C 0.01298 0.06911 0.93753 0.0
H344 H 0.98498 0.02223 0.94937 0.0
H345 H 0.0292 0.07603 0.97174 0.0
C346 C 0.01749 0.98435 0.99526 0.0
N347 N 0.01383 0.00287 0.06123 0.0
C348 C 0.02869 0.00829 0.0787 0.0
C349 C 0.00302 0.98307 0.0682 0.0
N350 N 0.02796 0.99244 0.09611 0.0
C351 C 0.01178 0.97655 0.0897 0.0
C352 C 0.96508 0.01598 0.0154 0.0
O353 O 0.01417 0.00205 0.98231 0.0
O354 O 0.01803 0.98726 0.01754 0.0
O355 O 0.97802 0.01089 0.03284 0.0
O356 O 0.9748 0.02631 -0.00226 0.0
O357 O 0.00583 0.04651 0.04744 0.0
H358 H 0.99044 0.97345 0.05781 0.0
H359 H 0.04089 0.02282 0.078 0.0
O360 O 0.00406 0.06182 0.01214 0.0
O361 O 0.04285 0.03753 -0.00352 0.0
O362 O 0.04577 0.02346 0.03211 0.0
C363 C 0.05554 0.03361 0.01439 0.0
H364 H 0.01963 0.08324 0.92667 0.0
H365 H 0.00716 0.96104 0.0995 0.0
Co366 Co 0.30437 0.77544 0.30932 0.0
C367 C 0.30282 0.72869 0.31061 0.0
Co368 Co 0.27738 0.76214 0.28503 0.0
C369 C 0.31768 0.80815 0.34267 0.0
C370 C 0.34688 0.78373 0.33815 0.0
N371 N 0.32474 0.78922 0.33024 0.0
N372 N 0.33421 0.81495 0.35805 0.0
C373 C 0.35268 0.7995 0.35557 0.0
H374 H 0.29987 0.81606 0.34149 0.0
H375 H 0.35765 0.76886 0.33227 0.0
C376 C 0.27909 0.80903 0.28369 0.0
N377 N 0.25649 0.74894 0.26428 0.0
C378 C 0.26248 0.73256 0.24802 0.0
C379 C 0.23311 0.75437 0.26053 0.0
N380 N 0.24401 0.72775 0.23389 0.0
C381 C 0.22539 0.7414 0.24177 0.0
C382 C 0.25752 0.77108 0.32875 0.0
O383 O 0.29489 0.80516 0.29898 0.0
O384 O 0.2687 0.79202 0.27424 0.0
O385 O 0.25261 0.76421 0.30817 0.0
O386 O 0.27913 0.77618 0.33336 0.0
O387 O 0.28614 0.73216 0.296 0.0
H388 H 0.22266 0.76748 0.27025 0.0
H389 H 0.28055 0.72521 0.24578 0.0
O390 O 0.31385 0.7458 0.31917 0.0
O391 O 0.32923 0.77445 0.28548 0.0
O392 O 0.30247 0.76035 0.26171 0.0
C393 C 0.32398 0.76652 0.26529 0.0
H394 H 0.36879 0.79923 0.36599 0.0
H395 H 0.20768 0.74243 0.23416 0.0
Co396 Co 0.50525 0.01989 0.50113 0.0
C397 C 0.51508 0.06665 0.49558 0.0
Co398 Co 0.53115 0.03216 0.52695 0.0
C399 C 0.46361 0.99552 0.49087 0.0
C400 C 0.47724 0.01066 0.45877 0.0
N401 N 0.48172 0.00852 0.48198 0.0
N402 N 0.44782 0.98934 0.47447 0.0
C403 C 0.45618 -0.00105 0.4541 0.0
H404 H 0.46155 0.99147 0.50949 0.0
H405 H 0.48825 0.02039 0.44624 0.0
C406 C 0.52129 0.9854 0.53277 0.0
N407 N 0.55446 0.04286 0.54662 0.0
C408 C 0.57417 0.05444 0.53908 0.0
C409 C 0.55776 0.03894 0.56983 0.0
N410 N 0.59006 0.05742 0.55632 0.0
C411 C 0.57975 0.04799 0.5759 0.0
C412 C 0.48501 0.03693 0.54372 0.0
O413 O 0.50753 0.9898 0.51572 0.0
O414 O 0.53425 0.00164 0.54051 0.0
O415 O 0.50675 0.03978 0.54957 0.0
O416 O 0.4807 0.0288 0.52349 0.0
O417 O 0.52785 0.06263 0.51352 0.0
H418 H 0.54555 0.02924 0.58126 0.0
H419 H 0.57715 0.06 0.52095 0.0
O420 O 0.50335 0.05009 0.48658 0.0
O421 O 0.52957 0.01127 0.47893 0.0
O422 O 0.55562 0.02469 0.5038 0.0
C423 C 0.55123 0.01593 0.48381 0.0
H424 H 0.44761 -0.00212 0.43718 0.0
H425 H 0.58803 0.04668 0.59296 0.0
Co426 Co 0.29598 0.28727 0.78928 0.0
C427 C 0.28057 0.29681 0.74371 0.0
Co428 Co 0.26055 0.27243 0.78246 0.0
C429 C 0.34498 0.28539 0.80348 0.0
C430 C 0.33543 0.31914 0.79074 0.0
N431 N 0.32645 0.29786 0.7949 0.0
N432 N 0.36525 0.29795 0.80474 0.0
C433 C 0.35935 0.31927 0.79687 0.0
H434 H 0.34359 0.26742 0.80876 0.0
H435 H 0.32534 0.33349 0.78342 0.0
C436 C 0.27532 0.26281 0.82779 0.0
N437 N 0.22989 0.26255 0.77665 0.0
C438 C 0.21321 0.27627 0.76671 0.0
C439 C 0.21871 0.24223 0.78065 0.0
N440 N 0.19199 0.26561 0.76433 0.0
C441 C 0.19528 0.24402 0.77289 0.0
C442 C 0.29702 0.24213 0.77125 0.0
O443 O 0.29363 0.27457 0.82099 0.0
O444 O 0.25839 0.25979 0.81343 0.0
O445 O 0.27412 0.24417 0.77098 0.0
O446 O 0.30949 0.259 0.77817 0.0
O447 O 0.26262 0.28514 0.75126 0.0
H448 H 0.22706 0.22717 0.78856 0.0
H449 H 0.21684 0.29374 0.76073 0.0
O450 O 0.29808 0.29986 0.75746 0.0
O451 O 0.28247 0.31548 0.80054 0.0
O452 O 0.24709 0.30067 0.79413 0.0
C453 C 0.25961 0.31748 0.80104 0.0
H454 H 0.37159 0.33371 0.79512 0.0
H455 H 0.18179 0.23057 0.7735 0.0
Co456 Co 0.0026 0.01074 0.51738 0.0
C457 C 0.99054 0.03972 0.55471 0.0
Co458 Co 0.02943 0.03777 0.52326 0.0
C459 C 0.98629 0.96553 0.50944 0.0
C460 C 0.95618 0.98918 0.50894 0.0
N461 N 0.98025 0.98802 0.51236 0.0
N462 N 0.9672 0.95247 0.50433 0.0
C463 C 0.9481 0.96721 0.50369 0.0
H464 H 0.00476 0.95899 0.50965 0.0
H465 H 0.94543 0.00502 0.5094 0.0
C466 C 0.04121 0.0091 0.48538 0.0
N467 N 0.05245 0.05983 0.528 0.0
C468 C 0.04864 0.08218 0.53408 0.0
C469 C 0.07674 0.05695 0.52704 0.0
N470 N 0.06956 0.09338 0.53725 0.0
C471 C 0.08734 0.07759 0.53271 0.0
C472 C 0.03884 -0.00302 0.54689 0.0
O473 O 0.02109 -0.00012 0.49076 0.0
O474 O 0.04817 0.02621 0.49741 0.0
O475 O 0.04595 0.01757 0.54367 0.0
O476 O 0.01995 0.99025 0.53693 0.0
O477 O 0.01034 0.04943 0.54895 0.0
H478 H 0.0861 0.04073 0.52302 0.0
H479 H 0.03077 0.08996 0.53638 0.0
O480 O 0.98414 0.02164 0.54381 0.0
O481 O 0.98543 0.03149 0.49806 0.0
O482 O 0.0127 0.05814 0.50319 0.0
C483 C 0.99273 0.05206 0.4947 0.0
H484 H 0.92991 0.96256 0.49915 0.0
H485 H 0.10654 0.08048 0.53432 0.0
Co486 Co 0.27312 0.79233 0.78796 0.0
C487 C 0.22862 0.77061 0.79687 0.0
Co488 Co 0.27142 0.7567 0.7744 0.0
C489 C 0.28229 0.84077 0.79141 0.0
C490 C 0.26603 0.82758 0.82342 0.0
N491 N 0.27348 0.82134 0.80129 0.0
N492 N 0.28087 0.85888 0.80652 0.0
C493 C 0.27074 0.85072 0.82675 0.0
H494 H 0.29061 0.84134 0.77381 0.0
H495 H 0.25825 0.81592 0.83646 0.0
C496 C 0.31575 0.77858 0.76514 0.0
N497 N 0.27114 0.72764 0.76056 0.0
C498 C 0.25678 0.70955 0.76581 0.0
C499 C 0.28351 0.72125 0.74053 0.0
N500 N 0.25954 0.69228 0.74971 0.0
C501 C 0.2765 0.69953 0.73389 0.0
C502 C 0.25812 0.791 0.74257 0.0
O503 O 0.30561 0.79595 0.77546 0.0
O504 O 0.30417 0.7598 0.76395 0.0
O505 O 0.26151 0.76941 0.74545 0.0
O506 O 0.26113 0.8048 0.75972 0.0
O507 O 0.23836 0.7539 0.78513 0.0
H508 H 0.29596 0.73213 0.73064 0.0
H509 H 0.24354 0.70961 0.78034 0.0
O510 O 0.24084 0.78878 0.80015 0.0
O511 O 0.28535 0.77982 0.81604 0.0
O512 O 0.28156 0.74403 0.80344 0.0
C513 C 0.28729 0.75817 0.81958 0.0
H514 H 0.26746 0.86062 0.84287 0.0
H515 H 0.28283 0.69014 0.71821 0.0
Co516 Co 0.5032 0.01182 0.00879 0.0
C517 C 0.54627 -0.00113 0.03015 0.0
Co518 Co 0.50674 0.02594 0.04458 0.0
C519 C 0.49917 0.01224 0.95845 0.0
C520 C 0.50402 0.97777 0.97167 0.0
N521 N 0.50159 0.00013 0.9786 0.0
N522 N 0.50006 -0.00163 0.93924 0.0
C523 C 0.50292 0.97662 0.94741 0.0
H524 H 0.49671 0.0309 0.95787 0.0
H525 H 0.50684 0.9633 0.98345 0.0
C526 C 0.4639 0.03904 0.02342 0.0
N527 N 0.50829 0.0373 0.07478 0.0
C528 C 0.5139 0.02478 0.0939 0.0
C529 C 0.50329 0.05887 0.08305 0.0
N530 N 0.51255 0.03754 0.11386 0.0
C531 C 0.5061 0.05912 0.1072 0.0
C532 C 0.52511 0.05484 0.01043 0.0
O533 O 0.47229 0.02709 0.00594 0.0
O534 O 0.47609 0.04025 0.04202 0.0
O535 O 0.52132 0.05302 0.03259 0.0
O536 O 0.51897 0.03855 -0.00318 0.0
O537 O 0.53787 0.01141 0.04713 0.0
H538 H 0.49791 0.0734 0.07224 0.0
H539 H 0.51941 0.00669 0.09311 0.0
O540 O 0.53391 -0.00325 0.0117 0.0
O541 O 0.4876 0.98514 0.02093 0.0
O542 O 0.49204 -0.00117 0.05662 0.0
C543 C 0.48499 0.98283 0.04317 0.0
H544 H 0.50457 0.96112 0.93658 0.0
H545 H 0.50365 0.07393 0.1189 0.0
Co546 Co 0.26943 0.26448 0.28838 0.0
C547 C 0.31758 0.27769 0.2914 0.0
Co548 Co 0.27744 0.29689 0.27001 0.0
C549 C 0.25133 0.21919 0.29572 0.0
C550 C 0.26832 0.23162 0.32672 0.0
N551 N 0.26285 0.23758 0.30444 0.0
N552 N 0.24942 0.20188 0.31156 0.0
C553 C 0.25996 0.2096 0.33121 0.0
H554 H 0.24418 0.21867 0.27811 0.0
H555 H 0.27784 0.24252 0.33884 0.0
C556 C 0.22945 0.28339 0.26647 0.0
N557 N 0.28368 0.3235 0.25309 0.0
C558 C 0.29973 0.34033 0.2571 0.0
C559 C 0.27421 0.32882 0.23206 0.0
N560 N 0.30083 0.35587 0.23923 0.0
C561 C 0.28469 0.34863 0.2235 0.0
C562 C 0.28142 0.25752 0.24086 0.0
O563 O 0.2367 0.26601 0.27821 0.0
O564 O 0.24398 0.29993 0.26267 0.0
O565 O 0.28248 0.27948 0.2414 0.0
O566 O 0.27781 0.24675 0.26021 0.0
O567 O 0.31113 0.29364 0.27731 0.0
H568 H 0.26114 0.31845 0.22306 0.0
H569 H 0.31063 0.34086 0.27266 0.0
O570 O 0.30206 0.26295 0.29841 0.0
O571 O 0.26097 0.28215 0.31633 0.0
O572 O 0.27217 0.31436 0.29893 0.0
C573 C 0.26479 0.30383 0.31756 0.0
H574 H 0.26181 0.19993 0.34745 0.0
H575 H 0.28133 0.35648 0.20653 0.0
Co576 Co 0.48589 0.50461 0.99048 0.0
C577 C 0.48307 0.53663 0.02649 0.0
Co578 Co 0.50038 0.5385 0.97999 0.0
C579 C 0.48784 0.45609 -0.00307 0.0
C580 C 0.45271 0.46913 0.00752 0.0
N581 N 0.47467 0.47581 -0.0009 0.0
N582 N 0.47517 0.43736 0.00357 0.0
C583 C 0.45287 0.44529 0.00999 0.0
H584 H 0.50614 0.4553 0.98947 0.0
H585 H 0.43744 0.48073 0.01105 0.0
C586 C 0.50397 0.50634 0.94422 0.0
N587 N 0.51221 0.56715 0.97134 0.0
C588 C 0.5057 0.58772 0.9811 0.0
C589 C 0.53104 0.57188 0.95643 0.0
N590 N 0.52002 0.60508 0.97341 0.0
C591 C 0.53596 0.59519 0.95773 0.0
C592 C 0.53459 0.5094 -0.0015 0.0
O593 O 0.49513 0.4928 0.95984 0.0
O594 O 0.5066 0.52756 0.94926 0.0
O595 O 0.53212 0.52887 0.98839 0.0
O596 O 0.51644 0.4965 0.00155 0.0
O597 O 0.49406 0.54924 0.01138 0.0
H598 H 0.5414 0.55901 0.94628 0.0
H599 H 0.49185 0.58962 0.99498 0.0
O600 O 0.47712 0.51624 0.02072 0.0
O601 O 0.45525 0.51312 0.97986 0.0
O602 O 0.46865 0.54796 0.97175 0.0
C603 C 0.45125 0.53376 0.97316 0.0
H604 H 0.43778 0.43461 0.01556 0.0
H605 H 0.55082 0.60391 0.94874 0.0
Co606 Co 0.78302 0.29291 0.28026 0.0
C607 C 0.7354 0.27978 0.28851 0.0
Co608 Co 0.77322 0.26276 0.25901 0.0
C609 C 0.80507 0.33551 0.29056 0.0
C610 C 0.79131 0.31991 0.3224 0.0
N611 N 0.7925 0.31726 0.29869 0.0
N612 N 0.81231 0.34942 0.30814 0.0
C613 C 0.8035 0.3397 0.32829 0.0
H614 H 0.80908 0.33816 0.27193 0.0
H615 H 0.78289 0.30782 0.33462 0.0
C616 C 0.82077 0.27559 0.2507 0.0
N617 N 0.7643 0.23863 0.24007 0.0
C618 C 0.75027 0.22063 0.24625 0.0
C619 C 0.76906 0.23593 0.21666 0.0
N620 N 0.74577 0.20685 0.22759 0.0
C621 C 0.75768 0.2164 0.20892 0.0
C622 C 0.76612 0.30549 0.23715 0.0
O623 O 0.81491 0.29142 0.2656 0.0
O624 O 0.80515 0.26057 0.24567 0.0
O625 O 0.76487 0.28366 0.23478 0.0
O626 O 0.77298 0.31387 0.25655 0.0
O627 O 0.7411 0.26493 0.27253 0.0
H628 H 0.77969 0.24771 0.20584 0.0
H629 H 0.74348 0.21785 0.26417 0.0
O630 O 0.75123 0.29422 0.29477 0.0
O631 O 0.79299 0.27202 0.30378 0.0
O632 O 0.78163 0.24183 0.28346 0.0
C633 C 0.79034 0.25027 0.30211 0.0
H634 H 0.80627 0.34591 0.34607 0.0
H635 H 0.75768 0.21015 0.19084 0.0
Co636 Co 0.00964 0.51516 0.50569 0.0
C637 C 0.0507 0.50104 0.52993 0.0
Co638 Co 0.00873 0.52512 0.54318 0.0
C639 C 0.0078 0.52119 0.45571 0.0
C640 C 0.018 0.48641 0.46466 0.0
N641 N 0.01174 0.50718 0.47424 0.0
N642 N 0.01131 0.51001 0.4349 0.0
C643 C 0.01762 0.48807 0.4404 0.0
H644 H 0.00201 0.53915 0.45747 0.0
H645 H 0.02257 0.47109 0.47469 0.0
C646 C 0.96792 0.53933 0.51921 0.0
N647 N 0.00636 0.5331 0.57457 0.0
C648 C 0.01131 0.51928 0.59296 0.0
C649 C -0.00109 0.55347 0.58431 0.0
N650 N 0.00735 0.53018 0.61385 0.0
C651 C -0.00031 0.55178 0.60856 0.0
C652 C 0.02852 0.55852 0.51477 0.0
O653 O 0.97844 0.52948 0.50144 0.0
O654 O 0.97806 0.53881 0.53901 0.0
O655 O 0.02307 0.55375 0.53614 0.0
O656 O 0.02473 0.54377 0.49865 0.0
O657 O 0.03995 0.51118 0.5474 0.0
H658 H 0.9935 0.56861 0.5744 0.0
H659 H 0.01848 0.50178 0.59102 0.0
O660 O 0.04062 0.501 0.51002 0.0
O661 O 0.99458 0.48658 0.51285 0.0
O662 O 0.99418 0.49658 0.55024 0.0
C663 C 0.98958 0.48185 0.53436 0.0
H664 H 0.02175 0.47429 0.42779 0.0
H665 H 0.99534 0.56541 0.62128 0.0
Co666 Co 0.79208 0.79053 0.28113 0.0
C667 C 0.77527 0.79935 0.23578 0.0
Co668 Co 0.75547 0.77753 0.27594 0.0
C669 C 0.84156 0.78842 0.29396 0.0
C670 C 0.83223 0.82179 0.28012 0.0
N671 N 0.82301 0.8008 0.28528 0.0
N672 N 0.86203 0.80078 0.29442 0.0
C673 C 0.85627 0.82186 0.28584 0.0
H674 H 0.83997 0.77073 0.30013 0.0
H675 H 0.82215 0.83604 0.27259 0.0
C676 C 0.77208 0.76855 0.32109 0.0
N677 N 0.72467 0.76712 0.27172 0.0
C678 C 0.70737 0.77777 0.25932 0.0
C679 C 0.71497 0.74685 0.27877 0.0
N680 N 0.68733 0.76488 0.25801 0.0
C681 C 0.69197 0.74538 0.27027 0.0
C682 C 0.79093 0.74534 0.26497 0.0
O683 O 0.79079 0.77896 0.31312 0.0
O684 O 0.75422 0.76633 0.30767 0.0
O685 O 0.76818 0.74861 0.2655 0.0
O686 O 0.80465 0.76175 0.27061 0.0
O687 O 0.75683 0.78882 0.24408 0.0
H688 H 0.72428 0.73374 0.28885 0.0
H689 H 0.70989 0.79425 0.25049 0.0
O690 O 0.79327 0.80198 0.24901 0.0
O691 O 0.77935 0.81925 0.29186 0.0
O692 O 0.74278 0.80641 0.28643 0.0
C693 C 0.7566 0.82258 0.29267 0.0
H694 H 0.86862 0.83615 0.28356 0.0
H695 H 0.6798 0.73095 0.27257 0.0
Co696 Co 0.81753 0.28923 0.80163 0.0
C697 C 0.79506 0.24907 0.78671 0.0
Co698 Co 0.79487 0.29361 0.77042 0.0
C699 C 0.8304 0.29906 0.84841 0.0
C700 C 0.84396 0.26552 0.83796 0.0
N701 N 0.83372 0.28506 0.82945 0.0
N702 N 0.83708 0.28882 0.86857 0.0
C703 C 0.84567 0.26767 0.86218 0.0
H704 H 0.82004 0.31514 0.84798 0.0
H705 H 0.84733 0.24982 0.82777 0.0
C706 C 0.8162 0.33407 0.78576 0.0
N707 N 0.77846 0.29755 0.74267 0.0
C708 C 0.78324 0.28526 0.72274 0.0
C709 C 0.76138 0.31329 0.73671 0.0
N710 N 0.77035 0.29284 0.70446 0.0
C711 C 0.75621 0.3103 0.7131 0.0
C712 C 0.76859 0.30032 0.8112 0.0
O713 O 0.82513 0.3212 0.80156 0.0
O714 O 0.80306 0.32514 0.77019 0.0
O715 O 0.76644 0.30075 0.78888 0.0
O716 O 0.78909 0.29583 0.81962 0.0
O717 O 0.78664 0.262 0.77075 0.0
H718 H 0.7537 0.32643 0.74855 0.0
H719 H 0.79617 0.27099 0.72153 0.0
O720 O 0.80921 0.25746 0.80168 0.0
O721 O 0.84599 0.28231 0.78346 0.0
O722 O 0.82333 0.28617 0.75248 0.0
C723 C 0.84365 0.2814 0.7612 0.0
H724 H 0.85057 0.25404 0.87434 0.0
H725 H 0.74372 0.32056 0.70294 0.0
Co726 Co 0.75906 0.75775 0.784 0.0
C727 C 0.80793 0.76812 0.78819 0.0
Co728 Co 0.76981 0.78976 0.76599 0.0
C729 C 0.73737 0.71363 0.78999 0.0
C730 C 0.75296 0.72477 0.82222 0.0
N731 N 0.74985 0.73105 0.79954 0.0
N732 N 0.73253 0.69667 0.8057 0.0
C733 C 0.74222 0.70359 0.82609 0.0
H734 H 0.73155 0.7136 0.77188 0.0
H735 H 0.76232 0.73495 0.83509 0.0
C736 C 0.72103 0.7794 0.76156 0.0
N737 N 0.77787 0.81606 0.74918 0.0
C738 C 0.79401 0.83281 0.75334 0.0
C739 C 0.76818 0.82181 0.72835 0.0
N740 N 0.79472 0.84875 0.73581 0.0
C741 C 0.77835 0.84185 0.72018 0.0
C742 C 0.77237 0.75051 0.7368 0.0
O743 O 0.72675 0.76141 0.77312 0.0
O744 O 0.73687 0.79482 0.75808 0.0
O745 O 0.7746 0.77234 0.73755 0.0
O746 O 0.76714 0.73981 0.75588 0.0
O747 O 0.80287 0.78452 0.77405 0.0
H748 H 0.75457 0.81196 0.71952 0.0
H749 H 0.80522 0.83306 0.76869 0.0
O750 O 0.79135 0.75422 0.79481 0.0
O751 O 0.75113 0.77585 0.81193 0.0
O752 O 0.76494 0.80725 0.79467 0.0
C753 C 0.75645 0.79725 0.81316 0.0
H754 H 0.74189 0.69391 0.84248 0.0
H755 H 0.77371 0.8508 0.70411 0.0
Co756 Co 0.50935 0.53532 0.50889 0.0
C757 C 0.50312 0.56836 0.54531 0.0
Co758 Co 0.5152 0.52125 0.54435 0.0
C759 C 0.50004 0.53675 0.45898 0.0
C760 C 0.51028 0.56972 0.47265 0.0
N761 N 0.50519 0.5478 0.47924 0.0
N762 N 0.50207 0.55082 0.44001 0.0
C763 C 0.50827 0.57165 0.44861 0.0
H764 H 0.49607 0.51846 0.45801 0.0
H765 H 0.51618 0.58323 0.48437 0.0
C766 C 0.52183 0.48815 0.5081 0.0
N767 N 0.52037 0.50923 0.57395 0.0
C768 C 0.54141 0.50043 0.58168 0.0
C769 C 0.50512 0.50932 0.59305 0.0
N770 N 0.54016 0.49544 0.60496 0.0
C771 C 0.51725 0.50086 0.61217 0.0
C772 C 0.46797 0.51621 0.52938 0.0
O773 O 0.51649 0.50542 0.49522 0.0
O774 O 0.52333 0.49135 0.53032 0.0
O775 O 0.48195 0.51225 0.54642 0.0
O776 O 0.4761 0.52708 0.5113 0.0
O777 O 0.50721 0.55097 0.55847 0.0
H778 H 0.4867 0.51596 0.59328 0.0
H779 H 0.55777 0.49892 0.5707 0.0
O780 O 0.5024 0.56517 0.52307 0.0
O781 O 0.54235 0.54344 0.5062 0.0
O782 O 0.54837 0.53071 0.54188 0.0
C783 C 0.55639 0.54069 0.52329 0.0
H784 H 0.51158 0.58712 0.43827 0.0
H785 H 0.50993 0.49945 0.6301 0.0
Co786 Co 0.011 0.51327 0.00772 0.0
C787 C 0.01841 0.56028 0.00276 0.0
Co788 Co 0.03903 0.52517 0.03145 0.0
C789 C 0.96781 0.49049 -0.00283 0.0
C790 C 0.98377 0.50481 0.96558 0.0
N791 N 0.98743 0.50178 0.98886 0.0
N792 N 0.95162 0.48696 0.98034 0.0
C793 C 0.96162 0.49564 0.96025 0.0
H794 H 0.96488 0.4859 0.0156 0.0
H795 H 0.99574 0.51418 0.95361 0.0
C796 C 0.03127 0.47814 0.03634 0.0
N797 N 0.06222 0.53716 0.05057 0.0
C798 C 0.07593 0.55541 0.0445 0.0
C799 C 0.06753 0.53262 0.07328 0.0
N800 N 0.08906 0.56292 0.06248 0.0
C801 C 0.08432 0.54848 0.08065 0.0
C802 C 0.99327 0.52696 0.05173 0.0
O803 O 0.01566 0.48282 0.02088 0.0
O804 O 0.04466 0.49439 0.04348 0.0
O805 O 0.01542 0.53027 0.05566 0.0
O806 O 0.98726 0.52007 0.0315 0.0
O807 O 0.03304 0.55592 0.01913 0.0
H808 H 0.05909 0.51929 0.084 0.0
H809 H 0.07601 0.56347 0.02721 0.0
O810 O 0.00618 0.54371 0.99462 0.0
O811 O 0.03487 0.50682 0.98409 0.0
O812 O 0.06272 0.5202 0.00717 0.0
C813 C 0.0568 0.51199 0.98736 0.0
H814 H 0.95286 0.49669 0.94342 0.0
H815 H 0.09168 0.54988 0.09811 0.0
C816 C 0.01158 0.19437 0.09022 0.0
C817 C 0.03232 0.1953 0.10388 0.0
C818 C 0.00572 0.17397 0.07781 0.0
C819 C 0.02132 0.1542 0.07847 0.0
C820 C 0.04292 0.15555 0.0913 0.0
C821 C 0.04789 0.17583 0.10414 0.0
C822 C 0.98231 0.17325 0.0648 0.0
C823 C 0.0606 0.13534 0.09187 0.0
C824 C -0.00125 0.09245 0.06876 0.0
C825 C 0.00583 0.08813 0.04507 0.0
C826 C 0.00272 0.11416 0.07948 0.0
C827 C 0.01483 0.13185 0.06651 0.0
C828 C 0.02183 0.12761 0.04251 0.0
C829 C 0.01695 0.10601 0.03203 0.0
C830 C 0.99443 0.11797 0.10492 0.0
C831 C 0.03556 0.14547 0.02817 0.0
H832 H -0.00072 0.20919 0.0902 0.0
H833 H 0.06396 0.17641 0.11463 0.0
H834 H 0.98589 0.16821 0.04604 0.0
H835 H 0.97037 0.15988 0.07284 0.0
H836 H 0.97249 0.1902 0.06532 0.0
H837 H 0.07747 0.13979 0.10095 0.0
H838 H 0.05207 0.12052 0.10124 0.0
H839 H 0.06547 0.12946 0.07359 0.0
H840 H 0.99026 0.07874 0.07901 0.0
H841 H 0.02293 0.10273 0.01385 0.0
H842 H 0.98359 0.13428 0.10661 0.0
H843 H 0.01039 0.11982 0.11616 0.0
H844 H 0.98335 0.10342 0.11188 0.0
H845 H 0.02584 0.16243 0.02891 0.0
H846 H 0.03828 0.1402 0.00933 0.0
H847 H 0.05358 0.14805 0.03583 0.0
C848 C 0.14062 0.78177 0.41567 0.0
C849 C 0.12777 0.76226 0.40873 0.0
C850 C 0.16469 0.78479 0.40768 0.0
C851 C 0.17597 0.76762 0.39295 0.0
C852 C 0.16375 0.74679 0.38815 0.0
C853 C 0.13959 0.74454 0.39578 0.0
C854 C 0.1771 0.80727 0.41307 0.0
C855 C 0.17539 0.72775 0.37308 0.0
C856 C 0.21523 0.78153 0.33962 0.0
C857 C 0.23792 0.77366 0.34667 0.0
C858 C 0.19529 0.78163 0.35542 0.0
C859 C 0.19806 0.77299 0.37862 0.0
C860 C 0.22132 0.76642 0.38631 0.0
C861 C 0.24118 0.76708 0.37019 0.0
C862 C 0.17094 0.78948 0.34669 0.0
C863 C 0.22494 0.75705 0.41086 0.0
H864 H 0.13134 0.79545 0.42575 0.0
H865 H 0.12961 0.72931 0.39079 0.0
H866 H 0.19657 0.80429 0.41644 0.0
H867 H 0.17595 0.81893 0.39754 0.0
H868 H 0.16842 0.81627 0.42863 0.0
H869 H 0.1651 0.71135 0.37431 0.0
H870 H 0.17616 0.7333 0.35428 0.0
H871 H 0.19424 0.72427 0.37846 0.0
H872 H 0.21295 0.78708 0.32148 0.0
H873 H 0.25889 0.76114 0.37556 0.0
H874 H 0.16171 0.80127 0.35977 0.0
H875 H 0.15923 0.77419 0.34446 0.0
H876 H 0.17255 0.7986 0.32943 0.0
H877 H 0.21373 0.76681 0.42426 0.0
H878 H 0.24424 0.75773 0.41577 0.0
H879 H 0.2192 0.73869 0.41149 0.0
C880 C 0.53226 0.85246 0.5772 0.0
C881 C 0.52021 0.84941 0.59923 0.0
C882 C 0.53265 0.87429 0.56593 0.0
C883 C 0.52051 0.89362 0.57673 0.0
C884 C 0.50798 0.89054 0.59877 0.0
C885 C 0.50809 0.8686 0.60976 0.0
C886 C 0.54637 0.87673 0.54256 0.0
C887 C 0.49453 0.91049 0.61086 0.0
C888 C 0.53918 0.95537 0.55988 0.0
C889 C 0.5215 0.96181 0.54374 0.0
C890 C 0.53926 0.93322 0.57047 0.0
C891 C 0.52101 0.91709 0.56513 0.0
C892 C 0.50306 0.92357 0.54893 0.0
C893 C 0.50361 0.94568 0.53837 0.0
C894 C 0.55887 0.92709 0.58745 0.0
C895 C 0.48305 0.9072 0.54291 0.0
H896 H 0.54178 0.83785 0.56892 0.0
H897 H 0.49868 0.86652 0.62673 0.0
H898 H 0.53401 0.88311 0.52884 0.0
H899 H 0.56082 0.88976 0.54423 0.0
H900 H 0.5548 0.86008 0.53638 0.0
H901 H 0.48512 0.90516 0.62761 0.0
H902 H 0.50735 0.92449 0.61491 0.0
H903 H 0.48092 0.91791 0.59889 0.0
H904 H 0.5531 0.96762 0.56418 0.0
H905 H 0.48972 0.95046 0.52608 0.0
H906 H 0.56876 0.91119 0.58128 0.0
H907 H 0.55067 0.92326 0.60517 0.0
H908 H 0.5721 0.94126 0.58933 0.0
H909 H 0.49089 0.89098 0.5351 0.0
H910 H 0.47028 0.91491 0.53021 0.0
H911 H 0.47268 0.90235 0.55925 0.0
C912 C 0.48578 0.25463 0.86428 0.0
C913 C 0.50587 0.26071 0.84994 0.0
C914 C 0.46218 0.25767 0.85631 0.0
C915 C 0.45873 0.26672 0.8334 0.0
C916 C 0.47897 0.27103 0.81815 0.0
C917 C 0.50234 0.26808 0.82666 0.0
C918 C 0.441 0.25289 0.87306 0.0
C919 C 0.47597 0.28029 0.79343 0.0
C920 C 0.39615 0.26698 0.80773 0.0
C921 C 0.38851 0.28993 0.8122 0.0
C922 C 0.41897 0.25904 0.81458 0.0
C923 C 0.43428 0.27439 0.82642 0.0
C924 C 0.42651 0.2975 0.83122 0.0
C925 C 0.40375 0.30502 0.82391 0.0
C926 C 0.42679 0.23437 0.80897 0.0
C927 C 0.44229 0.31433 0.84401 0.0
H928 H 0.4884 0.24888 0.88229 0.0
H929 H 0.51782 0.27251 0.81538 0.0
H930 H 0.43254 0.26958 0.87898 0.0
H931 H 0.42696 0.2429 0.86402 0.0
H932 H 0.44658 0.24312 0.88895 0.0
H933 H 0.49327 0.27977 0.78283 0.0
H934 H 0.46229 0.27019 0.784 0.0
H935 H 0.46937 0.29855 0.79443 0.0
H936 H 0.38446 0.25537 0.79841 0.0
H937 H 0.39769 0.32265 0.82761 0.0
H938 H 0.43006 0.22484 0.82561 0.0
H939 H 0.44411 0.23422 0.79846 0.0
H940 H 0.41306 0.22492 0.7989 0.0
H941 H 0.44717 0.30712 0.86144 0.0
H942 H 0.43325 0.33148 0.84694 0.0
H943 H 0.45942 0.31696 0.83362 0.0
C944 C 0.00062 0.82616 0.45385 0.0
C945 C 0.02054 0.83075 0.43859 0.0
C946 C 0.98773 0.84421 0.46541 0.0
C947 C 0.99517 0.86732 0.46186 0.0
C948 C 0.01503 0.87211 0.44624 0.0
C949 C 0.0274 0.85375 0.43467 0.0
C950 C 0.96645 0.83856 0.48173 0.0
C951 C 0.02364 0.8966 0.44221 0.0
C952 C 0.95769 0.9211 0.47671 0.0
C953 C 0.96902 0.92864 0.49709 0.0
C954 C 0.9647 0.90003 0.46584 0.0
C955 C 0.98347 0.88651 0.47566 0.0
C956 C 0.99328 0.89308 0.49746 0.0
C957 C 0.98576 0.91403 0.50798 0.0
C958 C 0.95354 0.89328 0.44283 0.0
C959 C 0.01332 0.87918 0.50855 0.0
H960 H 0.99503 0.80841 0.45673 0.0
H961 H 0.04273 0.85739 0.42288 0.0
H962 H 0.97068 0.84312 0.50022 0.0
H963 H 0.95032 0.84902 0.47698 0.0
H964 H 0.9618 0.81989 0.48108 0.0
H965 H 0.03888 0.89742 0.42894 0.0
H966 H 0.00855 0.90771 0.43606 0.0
H967 H 0.02968 0.90409 0.45912 0.0
H968 H 0.94479 0.93246 0.46828 0.0
H969 H 0.99421 0.91984 0.52396 0.0
H970 H 0.94959 0.87447 0.44252 0.0
H971 H 0.96652 0.8968 0.42792 0.0
H972 H 0.93653 0.90321 0.43981 0.0
H973 H 0.00877 0.86052 0.50922 0.0
H974 H 0.01693 0.88523 0.52677 0.0
H975 H 0.03023 0.8808 0.49757 0.0
C976 C 0.45278 0.77044 0.71904 0.0
C977 C 0.45657 0.77633 0.69511 0.0
C978 C 0.43011 0.77358 0.73054 0.0
C979 C 0.41047 0.78259 0.7178 0.0
C980 C 0.41429 0.78934 0.69386 0.0
C981 C 0.43738 0.78628 0.68282 0.0
C982 C 0.42697 0.76635 0.75613 0.0
C983 C 0.39375 0.79885 0.67964 0.0
C984 C 0.3492 0.76121 0.73982 0.0
C985 C 0.34003 0.78014 0.75319 0.0
C986 C 0.37165 0.76218 0.72763 0.0
C987 C 0.38561 0.7825 0.72896 0.0
C988 C 0.37648 0.8018 0.74226 0.0
C989 C 0.35373 0.80043 0.75417 0.0
C990 C 0.3806 0.74121 0.71362 0.0
C991 C 0.39092 0.8237 0.74425 0.0
H992 H 0.46758 0.7631 0.72885 0.0
H993 H 0.44017 0.79096 0.66438 0.0
H994 H 0.41815 0.78052 0.76674 0.0
H995 H 0.415 0.75109 0.75739 0.0
H996 H 0.44449 0.76173 0.76414 0.0
H997 H 0.40011 0.80538 0.66207 0.0
H998 H 0.38036 0.78501 0.67685 0.0
H999 H 0.3842 0.81315 0.68943 0.0
H1000 H 0.33877 0.74548 0.73877 0.0
H1001 H 0.34674 0.81518 0.76432 0.0
H1002 H 0.39721 0.73402 0.72153 0.0
H1003 H 0.38545 0.74625 0.69515 0.0
H1004 H 0.3669 0.72731 0.71316 0.0
H1005 H 0.4079 0.81993 0.75358 0.0
H1006 H 0.3807 0.83764 0.75405 0.0
H1007 H 0.39617 0.83018 0.72638 0.0
C1008 C 0.54042 0.16808 0.93534 0.0
C1009 C 0.55911 0.18258 0.94205 0.0
C1010 C 0.53633 0.14705 0.94702 0.0
C1011 C 0.55197 0.14005 0.96513 0.0
C1012 C 0.57144 0.15429 0.97136 0.0
C1013 C 0.57448 0.1757 0.96004 0.0
C1014 C 0.51488 0.13266 0.94045 0.0
C1015 C 0.58901 0.14692 0.98993 0.0
C1016 C 0.52686 0.09773 0.01034 0.0
C1017 C 0.53434 0.07649 0.00031 0.0
C1018 C 0.53279 0.11865 -0.00078 0.0
C1019 C 0.54729 0.1182 0.97809 0.0
C1020 C 0.55599 0.09678 0.96863 0.0
C1021 C 0.54896 0.07607 0.97962 0.0
C1022 C 0.52248 0.1411 0.00938 0.0
C1023 C 0.57217 0.0957 0.94659 0.0
H1024 H 0.52849 0.17359 0.9215 0.0
H1025 H 0.58909 0.18693 0.96498 0.0
H1026 H 0.5211 0.11527 0.93414 0.0
H1027 H 0.50284 0.13001 0.95628 0.0
H1028 H 0.50414 0.14091 0.92639 0.0
H1029 H 0.6042 0.15921 0.99143 0.0
H1030 H 0.57945 0.14572 0.00743 0.0
H1031 H 0.5966 0.12942 0.98562 0.0
H1032 H 0.51528 0.09793 0.02621 0.0
H1033 H 0.55476 0.05955 0.97198 0.0
H1034 H 0.51042 0.14936 -0.0036 0.0
H1035 H 0.53722 0.15342 0.01271 0.0
H1036 H 0.51193 0.13844 0.0262 0.0
H1037 H 0.56169 0.10081 0.93098 0.0
H1038 H 0.57989 0.07802 0.94338 0.0
H1039 H 0.58727 0.10808 0.94799 0.0
C1040 C 0.12723 0.27105 0.17023 0.0
C1041 C 0.10366 0.27519 0.17945 0.0
C1042 C 0.14745 0.27231 0.18481 0.0
C1043 C 0.14406 0.27813 0.20913 0.0
C1044 C 0.12032 0.28249 0.21843 0.0
C1045 C 0.10049 0.28085 0.20356 0.0
C1046 C 0.17243 0.26728 0.17423 0.0
C1047 C 0.11585 0.28895 0.24414 0.0
C1048 C 0.19339 0.26193 0.25223 0.0
C1049 C 0.20605 0.28278 0.25409 0.0
C1050 C 0.17323 0.26017 0.23771 0.0
C1051 C 0.16529 0.27979 0.22488 0.0
C1052 C 0.17757 0.30106 0.22723 0.0
C1053 C 0.19782 0.30226 0.24166 0.0
C1054 C 0.16083 0.23712 0.23563 0.0
C1055 C 0.16958 0.32248 0.21412 0.0
H1056 H 0.12987 0.2666 0.15167 0.0
H1057 H 0.08238 0.28417 0.21088 0.0
H1058 H 0.18413 0.28257 0.1764 0.0
H1059 H 0.18098 0.25263 0.18372 0.0
H1060 H 0.17204 0.26284 0.1551 0.0
H1061 H 0.09633 0.29201 0.2486 0.0
H1062 H 0.12271 0.27494 0.25566 0.0
H1063 H 0.1259 0.3049 0.24835 0.0
H1064 H 0.19974 0.24667 0.26147 0.0
H1065 H 0.20753 0.31842 0.24283 0.0
H1066 H 0.16213 0.23098 0.21699 0.0
H1067 H 0.1413 0.23906 0.24053 0.0
H1068 H 0.1689 0.22363 0.24709 0.0
H1069 H 0.17111 0.31931 0.19475 0.0
H1070 H 0.18054 0.33786 0.21839 0.0
H1071 H 0.15026 0.32652 0.21856 0.0
C1072 C 0.13006 0.99069 0.19216 0.0
C1073 C 0.11875 0.98943 0.21464 0.0
C1074 C 0.1163 0.99023 0.17176 0.0
C1075 C 0.0908 0.98863 0.17414 0.0
C1076 C 0.07939 0.98692 0.19678 0.0
C1077 C 0.09354 0.98724 0.21677 0.0
C1078 C 0.12893 0.99188 0.14773 0.0
C1079 C 0.05217 0.98533 0.19994 0.0
C1080 C 0.05101 0.01191 0.12649 0.0
C1081 C 0.04367 0.9914 0.11573 0.0
C1082 C 0.06693 0.01129 0.1452 0.0
C1083 C 0.07573 0.98961 0.15312 0.0
C1084 C 0.06869 0.96883 0.14208 0.0
C1085 C 0.05258 0.96998 0.12352 0.0
C1086 C 0.07387 0.03377 0.15683 0.0
C1087 C 0.07793 0.94544 0.15007 0.0
H1088 H 0.14957 0.99228 0.19051 0.0
H1089 H 0.08472 0.98619 0.23415 0.0
H1090 H 0.12366 0.9772 0.13635 0.0
H1091 H 0.12321 0.0081 0.13884 0.0
H1092 H 0.14897 0.99177 0.14891 0.0
H1093 H 0.04626 0.98358 0.21882 0.0
H1094 H 0.04341 0.00109 0.19267 0.0
H1095 H 0.0455 0.97022 0.18998 0.0
H1096 H 0.04396 0.02843 0.12046 0.0
H1097 H 0.04725 0.95417 0.11482 0.0
H1098 H 0.09387 0.03523 0.15688 0.0
H1099 H 0.0672 0.03399 0.17556 0.0
H1100 H 0.06629 0.0492 0.14776 0.0
H1101 H 0.09803 0.94522 0.14998 0.0
H1102 H 0.07183 0.93108 0.13865 0.0
H1103 H 0.07147 0.94214 0.16853 0.0
C1104 C 0.25749 0.86658 0.45908 0.0
C1105 C 0.26274 0.88827 0.46855 0.0
C1106 C 0.27192 0.85712 0.4405 0.0
C1107 C 0.29264 0.86927 0.4321 0.0
C1108 C 0.29808 0.89113 0.44184 0.0
C1109 C 0.28277 0.90056 0.45973 0.0
C1110 C 0.26507 0.83411 0.42994 0.0
C1111 C 0.32037 0.90421 0.43386 0.0
C1112 C 0.33655 0.82886 0.39919 0.0
C1113 C 0.32962 0.83245 0.37585 0.0
C1114 C 0.32614 0.84226 0.41776 0.0
C1115 C 0.30813 0.85913 0.41272 0.0
C1116 C 0.3029 0.86428 0.38898 0.0
C1117 C 0.31413 0.85116 0.37082 0.0
C1118 C 0.33295 0.83709 0.44287 0.0
C1119 C 0.28363 0.8819 0.38278 0.0
H1120 H 0.24212 0.85708 0.46621 0.0
H1121 H 0.2871 0.91712 0.46761 0.0
H1122 H 0.26336 0.83579 0.4105 0.0
H1123 H 0.27951 0.82099 0.433 0.0
H1124 H 0.24772 0.82757 0.43763 0.0
H1125 H 0.32173 0.92121 0.443 0.0
H1126 H 0.33681 0.89368 0.43742 0.0
H1127 H 0.3203 0.90725 0.41449 0.0
H1128 H 0.34864 0.81452 0.40314 0.0
H1129 H 0.30929 0.85434 0.35266 0.0
H1130 H 0.31826 0.82718 0.45185 0.0
H1131 H 0.33516 0.85341 0.45299 0.0
H1132 H 0.35 0.82668 0.44351 0.0
H1133 H 0.26552 0.87481 0.38742 0.0
H1134 H 0.28424 0.88614 0.36362 0.0
H1135 H 0.28554 0.89817 0.39302 0.0
C1136 C 0.39466 0.0446 0.65643 0.0
C1137 C 0.40926 0.03181 0.67159 0.0
C1138 C 0.40079 0.04593 0.63221 0.0
C1139 C 0.42162 0.03382 0.62334 0.0
C1140 C 0.43474 0.01889 0.6383 0.0
C1141 C 0.42858 0.01838 0.66241 0.0
C1142 C 0.38638 0.06197 0.6168 0.0
C1143 C 0.45667 0.0051 0.62935 0.0
C1144 C 0.4448 0.02621 0.5607 0.0
C1145 C 0.46515 0.04046 0.56115 0.0
C1146 C 0.42852 0.02544 0.58016 0.0
C1147 C 0.43266 0.03961 0.60004 0.0
C1148 C 0.45143 0.05611 0.59918 0.0
C1149 C 0.46775 0.05608 0.5798 0.0
C1150 C 0.40862 0.00776 0.58043 0.0
C1151 C 0.45591 0.07205 0.6198 0.0
H1152 H 0.37967 0.05492 0.66373 0.0
H1153 H 0.43953 0.00822 0.6743 0.0
H1154 H 0.3953 0.07909 0.61599 0.0
H1155 H 0.38552 0.05523 0.59845 0.0
H1156 H 0.36764 0.06468 0.62413 0.0
H1157 H 0.46259 0.99199 0.64241 0.0
H1158 H 0.4528 -0.00393 0.61255 0.0
H1159 H 0.47193 0.01704 0.62571 0.0
H1160 H 0.44271 0.01425 0.54608 0.0
H1161 H 0.48324 0.06743 0.57979 0.0
H1162 H 0.39161 0.01515 0.58846 0.0
H1163 H 0.41405 0.99272 0.59137 0.0
H1164 H 0.40502 0.00133 0.56234 0.0
H1165 H 0.43863 0.07976 0.62687 0.0
H1166 H 0.46837 0.08629 0.61475 0.0
H1167 H 0.46415 0.06195 0.63425 0.0
C1168 C 0.25637 0.21783 0.96244 0.0
C1169 C 0.26367 0.19448 0.96417 0.0
C1170 C 0.25896 0.23002 0.94092 0.0
C1171 C 0.26912 0.21865 0.92056 0.0
C1172 C 0.27691 0.19521 0.92233 0.0
C1173 C 0.27409 0.18345 0.94402 0.0
C1174 C 0.2504 0.25496 0.93986 0.0
C1175 C 0.28784 0.18236 0.90115 0.0
C1176 C 0.25289 0.24009 0.85915 0.0
C1177 C 0.27368 0.25228 0.85189 0.0
C1178 C 0.25109 0.22941 0.88148 0.0
C1179 C 0.27056 0.23082 0.89713 0.0
C1180 C 0.29152 0.24329 0.89004 0.0
C1181 C 0.29282 0.25387 0.86756 0.0
C1182 C 0.2284 0.21635 0.88821 0.0
C1183 C 0.3127 0.24521 0.90611 0.0
H1184 H 0.24834 0.22655 0.97785 0.0
H1185 H 0.27986 0.16545 0.94511 0.0
H1186 H 0.26528 0.2661 0.9331 0.0
H1187 H 0.2354 0.25656 0.92733 0.0
H1188 H 0.24391 0.26165 0.95743 0.0
H1189 H 0.29395 0.16452 0.90564 0.0
H1190 H 0.27432 0.18122 0.8871 0.0
H1191 H 0.30355 0.19198 0.89364 0.0
H1192 H 0.23794 0.23872 0.84728 0.0
H1193 H 0.30898 0.26319 0.86217 0.0
H1194 H 0.22026 0.22338 0.90499 0.0
H1195 H 0.23297 0.19782 0.89128 0.0
H1196 H 0.21462 0.21737 0.87434 0.0
H1197 H 0.30662 0.25284 0.92338 0.0
H1198 H 0.32739 0.25603 0.89833 0.0
H1199 H 0.32023 0.22767 0.90972 0.0
C1200 C 0.08037 0.01083 0.35644 0.0
C1201 C 0.10121 -0.00079 0.34761 0.0
C1202 C 0.07217 0.00783 0.37983 0.0
C1203 C 0.08502 0.99264 0.39472 0.0
C1204 C 0.10538 0.97995 0.38567 0.0
C1205 C 0.1134 0.98353 0.36217 0.0
C1206 C 0.05036 0.02175 0.38887 0.0
C1207 C 0.11921 0.96332 0.40098 0.0
C1208 C 0.0763 0.01347 0.45728 0.0
C1209 C 0.05557 0.00128 0.46441 0.0
C1210 C 0.08769 0.00918 0.43525 0.0
C1211 C 0.07818 0.99216 0.42019 0.0
C1212 C 0.05893 0.97806 0.42837 0.0
C1213 C 0.04769 0.98289 0.45045 0.0
C1214 C 0.10831 0.02451 0.42718 0.0
C1215 C 0.04885 0.95926 0.41304 0.0
H1216 H 0.07075 0.02286 0.34527 0.0
H1217 H 0.12937 0.97428 0.35535 0.0
H1218 H 0.03653 0.01008 0.39676 0.0
H1219 H 0.05583 0.03386 0.40299 0.0
H1220 H 0.04186 0.03204 0.37468 0.0
H1221 H 0.13136 0.95158 0.39025 0.0
H1222 H 0.13047 0.97326 0.41324 0.0
H1223 H 0.10663 0.95266 0.41195 0.0
H1224 H 0.0828 0.02738 0.46825 0.0
H1225 H 0.032 0.97302 0.45618 0.0
H1226 H 0.10175 0.03696 0.4138 0.0
H1227 H 0.1232 0.01405 0.4187 0.0
H1228 H 0.1157 0.03454 0.44207 0.0
H1229 H 0.03743 0.96727 0.39939 0.0
H1230 H 0.03752 0.94701 0.42355 0.0
H1231 H 0.06367 0.94936 0.4037 0.0
C1232 C 0.23615 0.83825 0.61172 0.0
C1233 C 0.25363 0.85505 0.60668 0.0
C1234 C 0.23569 0.82654 0.63341 0.0
C1235 C 0.25363 0.83129 0.64999 0.0
C1236 C 0.27203 0.84744 0.64446 0.0
C1237 C 0.27155 0.85947 0.62297 0.0
C1238 C 0.21544 0.80988 0.63898 0.0
C1239 C 0.29192 0.85234 0.66144 0.0
C1240 C 0.24253 0.82148 0.71564 0.0
C1241 C 0.25429 0.8001 0.71873 0.0
C1242 C 0.24126 0.83138 0.69309 0.0
C1243 C 0.25277 0.81994 0.67346 0.0
C1244 C 0.26433 0.79817 0.67647 0.0
C1245 C 0.26462 0.78832 0.69907 0.0
C1246 C 0.22813 0.85432 0.69036 0.0
C1247 C 0.27742 0.78581 0.65609 0.0
H1248 H 0.22209 0.83508 0.59919 0.0
H1249 H 0.28508 0.87244 0.61897 0.0
H1250 H 0.22294 0.79265 0.64379 0.0
H1251 H 0.20449 0.81636 0.6545 0.0
H1252 H 0.20329 0.80766 0.62387 0.0
H1253 H 0.30594 0.8639 0.65361 0.0
H1254 H 0.28411 0.86072 0.67771 0.0
H1255 H 0.30079 0.83589 0.66685 0.0
H1256 H 0.23456 0.83053 0.7309 0.0
H1257 H 0.27406 0.77192 0.70154 0.0
H1258 H 0.21501 0.8532 0.67594 0.0
H1259 H 0.2413 0.86795 0.68537 0.0
H1260 H 0.21825 0.85982 0.70692 0.0
H1261 H 0.26509 0.78341 0.6412 0.0
H1262 H 0.28471 0.76857 0.66127 0.0
H1263 H 0.29269 0.79655 0.64944 0.0
C1264 C 0.49101 0.0228 0.80183 0.0
C1265 C 0.46858 0.03387 0.79866 0.0
C1266 C 0.50026 0.02031 0.82451 0.0
C1267 C 0.4865 0.02877 0.84434 0.0
C1268 C 0.46514 0.042 0.84098 0.0
C1269 C 0.45655 0.0446 0.8181 0.0
C1270 C 0.52357 0.00679 0.82739 0.0
C1271 C 0.44989 0.05126 0.86168 0.0
C1272 C 0.48507 0.99189 0.89947 0.0
C1273 C 0.49804 0.00542 0.91508 0.0
C1274 C 0.48162 -0.00083 0.87623 0.0
C1275 C 0.49183 0.02032 0.86835 0.0
C1276 C 0.50572 0.03367 0.8838 0.0
C1277 C 0.50845 0.02615 0.90716 0.0
C1278 C 0.46637 0.98458 0.86036 0.0
C1279 C 0.51732 0.05599 0.87582 0.0
H1280 H 0.50065 0.01485 0.78682 0.0
H1281 H 0.43934 0.05344 0.81579 0.0
H1282 H 0.5347 0.01478 0.84114 0.0
H1283 H 0.51933 0.98888 0.83319 0.0
H1284 H 0.53444 0.0057 0.81052 0.0
H1285 H 0.43589 0.06392 0.85602 0.0
H1286 H 0.44062 0.03662 0.8707 0.0
H1287 H 0.46134 0.05975 0.87484 0.0
H1288 H 0.47691 0.97598 0.90575 0.0
H1289 H 0.51878 0.03641 0.91925 0.0
H1290 H 0.47695 0.9796 0.84407 0.0
H1291 H 0.45035 0.9948 0.85483 0.0
H1292 H 0.45994 0.96853 0.86921 0.0
H1293 H 0.52798 0.05316 0.85905 0.0
H1294 H 0.52943 0.06312 0.8893 0.0
H1295 H 0.50309 0.06917 0.87223 0.0
C1296 C 0.27844 0.19654 0.11163 0.0
C1297 C 0.25751 0.18314 0.11046 0.0
C1298 C 0.28377 0.20883 0.13243 0.0
C1299 C 0.26736 0.20838 0.15227 0.0
C1300 C 0.24575 0.19556 0.15079 0.0
C1301 C 0.24134 0.18277 0.13013 0.0
C1302 C 0.30728 0.22176 0.1334 0.0
C1303 C 0.22726 0.19527 0.17106 0.0
C1304 C 0.28705 0.22186 0.21516 0.0
C1305 C 0.2802 0.24527 0.21771 0.0
C1306 C 0.28387 0.2099 0.19367 0.0
C1307 C 0.27267 0.22133 0.17457 0.0
C1308 C 0.26566 0.24496 0.17716 0.0
C1309 C 0.26988 0.2567 0.19847 0.0
C1310 C 0.29217 0.18491 0.19155 0.0
C1311 C 0.25271 0.25763 0.1578 0.0
H1312 H 0.29117 0.19662 0.09663 0.0
H1313 H 0.22511 0.17247 0.12931 0.0
H1314 H 0.30362 0.24042 0.13705 0.0
H1315 H 0.31812 0.21497 0.14814 0.0
H1316 H 0.31827 0.22017 0.11665 0.0
H1317 H 0.21078 0.18555 0.16662 0.0
H1318 H 0.23529 0.18717 0.18683 0.0
H1319 H 0.22181 0.21328 0.17606 0.0
H1320 H 0.29487 0.2129 0.22999 0.0
H1321 H 0.26403 0.27465 0.20045 0.0
H1322 H 0.30369 0.18241 0.17526 0.0
H1323 H 0.27625 0.17356 0.19001 0.0
H1324 H 0.30255 0.1792 0.20705 0.0
H1325 H 0.26361 0.25677 0.14099 0.0
H1326 H 0.24902 0.27614 0.16231 0.0
H1327 H 0.23521 0.24911 0.15461 0.0
C1328 C 0.18736 0.09092 0.0215 0.0
C1329 C 0.18492 0.11477 0.02636 0.0
C1330 C 0.16702 0.07675 0.01968 0.0
C1331 C 0.1435 0.08653 0.02294 0.0
C1332 C 0.14085 0.11058 0.02803 0.0
C1333 C 0.16158 0.12444 0.02957 0.0
C1334 C 0.17072 0.05128 0.01409 0.0
C1335 C 0.11608 0.12165 0.03182 0.0
C1336 C 0.09022 0.05563 -0.00377 0.0
C1337 C 0.07975 0.04441 0.01599 0.0
C1338 C 0.11107 0.06912 -0.00179 0.0
C1339 C 0.12174 0.07164 0.02052 0.0
C1340 C 0.11167 0.05986 0.04041 0.0
C1341 C 0.09088 0.04633 0.03789 0.0
C1342 C 0.12133 0.08115 0.97649 0.0
C1343 C 0.12243 0.0621 0.06452 0.0
H1344 H 0.20528 0.08325 0.01895 0.0
H1345 H 0.15952 0.1428 0.03341 0.0
H1346 H 0.16215 0.04062 0.02828 0.0
H1347 H 0.16181 0.04694 -0.00265 0.0
H1348 H 0.19019 0.0463 0.01225 0.0
H1349 H 0.11705 0.14043 0.03612 0.0
H1350 H 0.1054 0.11959 0.01567 0.0
H1351 H 0.10606 0.11282 0.04646 0.0
H1352 H 0.08173 0.05438 0.97925 0.0
H1353 H 0.08281 0.03799 0.05334 0.0
H1354 H 0.14068 0.07621 0.97354 0.0
H1355 H 0.12049 0.10022 0.97918 0.0
H1356 H 0.1114 0.07685 0.9603 0.0
H1357 H 0.14187 0.05697 0.06362 0.0
H1358 H 0.11296 0.05124 0.07804 0.0
H1359 H 0.12136 0.08047 0.07043 0.0
C1360 C 0.66399 0.46335 0.03911 0.0
C1361 C 0.66646 0.44016 0.03186 0.0
C1362 C 0.6427 0.47598 0.0351 0.0
C1363 C 0.62384 0.46529 0.02295 0.0
C1364 C 0.62617 0.44178 0.01575 0.0
C1365 C 0.64741 0.42935 0.02062 0.0
C1366 C 0.64045 0.50077 0.04373 0.0
C1367 C 0.6065 0.42996 0.00239 0.0
C1368 C 0.55955 0.48839 0.02711 0.0
C1369 C 0.5582 0.50096 0.00604 0.0
C1370 C 0.58119 0.47752 0.03337 0.0
C1371 C 0.60162 0.47867 0.01771 0.0
C1372 C 0.60048 0.49181 -0.00339 0.0
C1373 C 0.57875 0.50317 0.99118 0.0
C1374 C 0.58196 0.46425 0.05635 0.0
C1375 C 0.62179 0.49292 0.97925 0.0
H1376 H 0.67875 0.4716 0.04794 0.0
H1377 H 0.64948 0.41146 0.01484 0.0
H1378 H 0.63866 0.51264 0.02846 0.0
H1379 H 0.62385 0.503 0.05515 0.0
H1380 H 0.65632 0.5061 0.05393 0.0
H1381 H 0.61137 0.41172 -0.00231 0.0
H1382 H 0.58937 0.43003 0.01318 0.0
H1383 H 0.60295 0.43962 0.98587 0.0
H1384 H 0.54352 0.48681 0.03856 0.0
H1385 H 0.57744 0.51268 0.97472 0.0
H1386 H 0.59784 0.46951 0.06654 0.0
H1387 H 0.584 0.44542 0.05259 0.0
H1388 H 0.56529 0.46706 0.06757 0.0
H1389 H 0.63799 0.49933 0.98819 0.0
H1390 H 0.61811 0.50439 0.96397 0.0
H1391 H 0.62628 0.47525 0.97245 0.0
C1392 C 0.86084 0.47251 0.27704 0.0
C1393 C 0.88606 0.47446 0.27691 0.0
C1394 C 0.84966 0.45226 0.28507 0.0
C1395 C 0.86407 0.43392 0.29388 0.0
C1396 C 0.88944 0.43647 0.29525 0.0
C1397 C 0.90024 0.4566 0.28627 0.0
C1398 C 0.82263 0.44991 0.28265 0.0
C1399 C 0.90523 0.4176 0.30535 0.0
C1400 C 0.82833 0.38609 0.324 0.0
C1401 C 0.82698 0.36984 0.30553 0.0
C1402 C 0.84148 0.40659 0.32096 0.0
C1403 C 0.85289 0.41119 0.29874 0.0
C1404 C 0.85223 0.39463 0.2803 0.0
C1405 C 0.83973 0.37402 0.28409 0.0
C1406 C 0.84257 0.42359 0.34125 0.0
C1407 C 0.86392 0.39903 0.25619 0.0
H1408 H 0.84994 0.48636 0.26971 0.0
H1409 H 0.91976 0.45834 0.28643 0.0
H1410 H 0.81902 0.43607 0.26958 0.0
H1411 H 0.81398 0.44472 0.29976 0.0
H1412 H 0.8139 0.46628 0.27672 0.0
H1413 H 0.92377 0.42378 0.30873 0.0
H1414 H 0.89704 0.41097 0.32215 0.0
H1415 H 0.90675 0.40282 0.29275 0.0
H1416 H 0.81872 0.38314 0.34068 0.0
H1417 H 0.83978 0.36138 0.26993 0.0
H1418 H 0.83143 0.43921 0.33742 0.0
H1419 H 0.86145 0.42938 0.34345 0.0
H1420 H 0.83575 0.41603 0.35821 0.0
H1421 H 0.86173 0.38428 0.24376 0.0
H1422 H 0.88354 0.4022 0.25783 0.0
H1423 H 0.85577 0.41481 0.24832 0.0
C1424 C 0.83173 0.57961 0.53296 0.0
C1425 C 0.82617 0.6022 0.52545 0.0
C1426 C 0.85488 0.56983 0.52902 0.0
C1427 C 0.8731 0.58297 0.51739 0.0
C1428 C 0.8675 0.60552 0.50909 0.0
C1429 C 0.84404 0.61487 0.51315 0.0
C1430 C 0.86003 0.54568 0.53807 0.0
C1431 C 0.8865 0.62008 0.4967 0.0
C1432 C 0.93623 0.56639 0.53589 0.0
C1433 C 0.94438 0.55171 0.51735 0.0
C1434 C 0.91356 0.57751 0.5355 0.0
C1435 C 0.89844 0.57378 0.51615 0.0
C1436 C 0.90684 0.55964 0.49694 0.0
C1437 C 0.92982 0.54881 0.49771 0.0
C1438 C 0.90542 0.59257 0.55629 0.0
C1439 C 0.8912 0.55523 0.47603 0.0
H1440 H 0.81801 0.56952 0.54221 0.0
H1441 H 0.83989 0.63228 0.50718 0.0
H1442 H 0.86832 0.53472 0.52373 0.0
H1443 H 0.87321 0.54653 0.55246 0.0
H1444 H 0.84342 0.53708 0.54507 0.0
H1445 H 0.87873 0.63629 0.48932 0.0
H1446 H 0.90057 0.62479 0.50938 0.0
H1447 H 0.89567 0.61006 0.48212 0.0
H1448 H 0.94751 0.56904 0.551 0.0
H1449 H 0.93606 0.53759 0.48328 0.0
H1450 H 0.8899 0.58441 0.56584 0.0
H1451 H 0.89914 0.60979 0.55004 0.0
H1452 H 0.92008 0.59519 0.569 0.0
H1453 H 0.8754 0.54473 0.48175 0.0
H1454 H 0.90124 0.54583 0.4615 0.0
H1455 H 0.88405 0.57184 0.46904 0.0
C1456 C 0.16339 0.09802 0.28384 0.0
C1457 C 0.17465 0.07619 0.2859 0.0
C1458 C 0.17597 0.11838 0.28845 0.0
C1459 C 0.20039 0.11683 0.29518 0.0
C1460 C 0.21192 0.09492 0.29718 0.0
C1461 C 0.1989 0.07483 0.29253 0.0
C1462 C 0.16314 0.14154 0.28614 0.0
C1463 C 0.23801 0.09269 0.3042 0.0
C1464 C 0.2386 0.16998 0.28518 0.0
C1465 C 0.23823 0.1799 0.30787 0.0
C1466 C 0.22662 0.14926 0.28086 0.0
C1467 C 0.21398 0.13823 0.29974 0.0
C1468 C 0.21393 0.14787 0.32281 0.0
C1469 C 0.22615 0.16863 0.32662 0.0
C1470 C 0.22722 0.13936 0.25606 0.0
C1471 C 0.20054 0.13654 0.34333 0.0
H1472 H 0.14465 0.09922 0.27879 0.0
H1473 H 0.20776 0.05804 0.29416 0.0
H1474 H 0.1634 0.15113 0.30319 0.0
H1475 H 0.17275 0.15227 0.27265 0.0
H1476 H 0.14402 0.13971 0.28099 0.0
H1477 H 0.24428 0.07432 0.30502 0.0
H1478 H 0.24989 0.10202 0.29132 0.0
H1479 H 0.2403 0.10085 0.32178 0.0
H1480 H 0.24833 0.17845 0.27075 0.0
H1481 H 0.22569 0.1764 0.34411 0.0
H1482 H 0.20855 0.13858 0.24944 0.0
H1483 H 0.23458 0.12136 0.25611 0.0
H1484 H 0.23841 0.14982 0.2435 0.0
H1485 H 0.18092 0.13597 0.33979 0.0
H1486 H 0.20292 0.14589 0.36029 0.0
H1487 H 0.20698 0.11835 0.34534 0.0
C1488 C 0.32193 0.93016 0.5118 0.0
C1489 C 0.30909 0.94705 0.52522 0.0
C1490 C 0.34481 0.93481 0.50165 0.0
C1491 C 0.35535 0.95662 0.5057 0.0
C1492 C 0.3428 0.97345 0.51993 0.0
C1493 C 0.31957 0.96861 0.52918 0.0
C1494 C 0.35741 0.91664 0.48617 0.0
C1495 C 0.35381 -0.00333 0.52517 0.0
C1496 C 0.42312 0.96358 0.49972 0.0
C1497 C 0.42538 0.97759 0.47949 0.0
C1498 C 0.40049 0.95609 0.50813 0.0
C1499 C 0.37967 0.96184 0.49539 0.0
C1500 C 0.38204 0.97402 0.47371 0.0
C1501 C 0.4049 0.98202 0.46612 0.0
C1502 C 0.39876 0.94346 0.53151 0.0
C1503 C 0.36026 0.97962 0.45919 0.0
H1504 H 0.31359 0.91362 0.5083 0.0
H1505 H 0.30954 0.98168 0.53944 0.0
H1506 H 0.36182 0.92397 0.46844 0.0
H1507 H 0.37477 0.91126 0.49397 0.0
H1508 H 0.34619 0.90098 0.48392 0.0
H1509 H 0.34241 0.00716 0.53786 0.0
H1510 H 0.372 0.99416 0.53263 0.0
H1511 H 0.35623 0.00665 0.50853 0.0
H1512 H 0.43898 0.95928 0.50967 0.0
H1513 H 0.40647 0.99267 0.45042 0.0
H1514 H 0.38796 0.92751 0.52991 0.0
H1515 H 0.38932 0.95477 0.54491 0.0
H1516 H 0.41686 0.93863 0.53816 0.0
H1517 H 0.34917 0.96392 0.45688 0.0
H1518 H 0.36551 0.98651 0.44144 0.0
H1519 H 0.34867 0.99278 0.4686 0.0
C1520 C 0.8594 0.62681 0.23499 0.0
C1521 C 0.85559 0.61071 0.25317 0.0
C1522 C 0.84654 0.64782 0.23494 0.0
C1523 C 0.83007 0.65301 0.25393 0.0
C1524 C 0.8255 0.63644 0.27193 0.0
C1525 C 0.83816 0.6152 0.27114 0.0
C1526 C 0.8514 0.66486 0.21515 0.0
C1527 C 0.80838 0.64169 0.29269 0.0
C1528 C 0.82406 0.71652 0.26929 0.0
C1529 C 0.80126 0.72209 0.26059 0.0
C1530 C 0.83342 0.69394 0.26753 0.0
C1531 C 0.81985 0.67672 0.25627 0.0
C1532 C 0.79707 0.68233 0.2469 0.0
C1533 C 0.78785 0.705 0.24943 0.0
C1534 C 0.85768 0.6885 0.27802 0.0
C1535 C 0.78251 0.66442 0.23424 0.0
H1536 H 0.87265 0.62304 0.22087 0.0
H1537 H 0.83529 0.60261 0.28513 0.0
H1538 H 0.83411 0.67164 0.20823 0.0
H1539 H 0.86142 0.67988 0.222 0.0
H1540 H 0.86229 0.65695 0.20027 0.0
H1541 H 0.80527 0.62625 0.30404 0.0
H1542 H 0.81601 0.65564 0.30367 0.0
H1543 H 0.79068 0.64812 0.28645 0.0
H1544 H 0.83433 0.72965 0.27819 0.0
H1545 H 0.7702 0.70936 0.24272 0.0
H1546 H 0.87076 0.68254 0.26391 0.0
H1547 H 0.85582 0.67421 0.29104 0.0
H1548 H 0.86541 0.70375 0.28702 0.0
H1549 H 0.79336 0.65707 0.21906 0.0
H1550 H 0.76534 0.67176 0.22756 0.0
H1551 H 0.77813 0.64987 0.24635 0.0
C1552 C 0.75122 0.45541 0.79841 0.0
C1553 C 0.72832 0.44515 0.79827 0.0
C1554 C 0.77234 0.44176 0.80002 0.0
C1555 C 0.77037 0.41736 0.80111 0.0
C1556 C 0.74718 0.40713 0.80297 0.0
C1557 C 0.72644 0.4212 0.80164 0.0
C1558 C 0.79661 0.45344 0.79887 0.0
C1559 C 0.74418 0.38112 0.80449 0.0
C1560 C 0.80873 0.37305 0.76938 0.0
C1561 C 0.81548 0.35943 0.7886 0.0
C1562 C 0.79682 0.39436 0.77311 0.0
C1563 C 0.79178 0.40201 0.79661 0.0
C1564 C 0.80261 0.39042 0.81569 0.0
C1565 C 0.81446 0.36905 0.81145 0.0
C1566 C 0.78634 0.40666 0.75214 0.0
C1567 C 0.79875 0.39876 0.84086 0.0
H1568 H 0.75278 0.47401 0.79618 0.0
H1569 H 0.70878 0.41323 0.80191 0.0
H1570 H 0.81054 0.44337 0.80836 0.0
H1571 H 0.80282 0.45505 0.78009 0.0
H1572 H 0.79528 0.47121 0.80653 0.0
H1573 H 0.72495 0.37613 0.80727 0.0
H1574 H 0.75126 0.37282 0.78786 0.0
H1575 H 0.75469 0.37394 0.81924 0.0
H1576 H 0.81012 0.36582 0.75162 0.0
H1577 H 0.8201 0.35875 0.82637 0.0
H1578 H 0.7885 0.42568 0.75371 0.0
H1579 H 0.76665 0.40313 0.7516 0.0
H1580 H 0.79504 0.40072 0.73514 0.0
H1581 H 0.79811 0.41799 0.84177 0.0
H1582 H 0.8133 0.39218 0.85231 0.0
H1583 H 0.78121 0.39224 0.84805 0.0
C1584 C 0.04074 0.86175 0.92966 0.0
C1585 C 0.02167 0.84611 0.93304 0.0
C1586 C 0.04059 0.88349 0.94107 0.0
C1587 C 0.02054 0.89028 0.95587 0.0
C1588 C 0.00144 0.87433 0.95986 0.0
C1589 C 0.00236 0.85233 0.94862 0.0
C1590 C 0.06169 0.89947 0.93669 0.0
C1591 C 0.9795 0.88092 0.97514 0.0
C1592 C 0.028 0.94174 -0.00195 0.0
C1593 C 0.01896 0.96043 0.9849 0.0
C1594 C 0.02854 0.91891 0.98894 0.0
C1595 C 0.0193 0.91438 0.96627 0.0
C1596 C 0.00989 0.93317 0.95304 0.0
C1597 C 0.01007 0.9559 0.96237 0.0
C1598 C 0.03929 0.89966 0.00347 0.0
C1599 C -0.0005 0.92925 0.92899 0.0
H1600 H 0.05574 0.85708 0.91766 0.0
H1601 H 0.9874 0.84052 0.95106 0.0
H1602 H 0.0556 0.915 0.92686 0.0
H1603 H 0.0687 0.90559 0.95377 0.0
H1604 H 0.07676 0.89092 0.92632 0.0
H1605 H 0.96675 0.86631 0.97745 0.0
H1606 H 0.9851 0.88676 0.99284 0.0
H1607 H 0.96978 0.89569 0.96696 0.0
H1608 H 0.03487 0.94499 0.01549 0.0
H1609 H 0.00274 0.97011 0.95216 0.0
H1610 H 0.05487 0.8915 0.99355 0.0
H1611 H 0.02571 0.88595 0.00673 0.0
H1612 H 0.04559 0.90593 0.0208 0.0
H1613 H 0.01382 0.92241 0.91653 0.0
H1614 H 0.99177 0.94541 0.92145 0.0
H1615 H 0.98508 0.91606 0.93025 0.0
C1616 C 0.96022 0.23923 0.68554 0.0
C1617 C 0.96626 0.25744 0.67017 0.0
C1618 C 0.9379 0.23929 0.69804 0.0
C1619 C 0.92174 0.2583 0.69546 0.0
C1620 C 0.92675 0.27547 0.67822 0.0
C1621 C 0.9489 0.27464 0.6655 0.0
C1622 C 0.93264 0.22013 0.71552 0.0
C1623 C 0.91003 0.29612 0.67505 0.0
C1624 C 0.85918 0.26186 0.72453 0.0
C1625 C 0.86385 0.27415 0.74531 0.0
C1626 C 0.87802 0.25555 0.70853 0.0
C1627 C 0.90187 0.26236 0.7132 0.0
C1628 C 0.9067 0.27445 0.7344 0.0
C1629 C 0.88759 0.27989 0.75043 0.0
C1630 C 0.87239 0.24187 0.68659 0.0
C1631 C 0.9319 0.28239 0.73977 0.0
H1632 H 0.97348 0.22569 0.68888 0.0
H1633 H 0.95344 0.28872 0.65354 0.0
H1634 H 0.93641 0.22626 0.73365 0.0
H1635 H 0.9133 0.21521 0.71535 0.0
H1636 H 0.94408 0.20447 0.71172 0.0
H1637 H 0.91505 0.30631 0.65902 0.0
H1638 H 0.89099 0.29055 0.67373 0.0
H1639 H 0.91088 0.30767 0.69074 0.0
H1640 H 0.84076 0.25707 0.72083 0.0
H1641 H 0.89107 0.28941 0.76653 0.0
H1642 H 0.88367 0.2258 0.68567 0.0
H1643 H 0.87696 0.25211 0.67052 0.0
H1644 H 0.853 0.23706 0.68618 0.0
H1645 H 0.94452 0.26727 0.74021 0.0
H1646 H 0.9325 0.29169 0.75698 0.0
H1647 H 0.93863 0.29413 0.72556 0.0
C1648 C 0.53947 0.19626 0.44996 0.0
C1649 C 0.51961 0.20641 0.43883 0.0
C1650 C 0.53864 0.17332 0.45858 0.0
C1651 C 0.51707 0.16039 0.45691 0.0
C1652 C 0.49676 0.17081 0.44619 0.0
C1653 C 0.49844 0.19345 0.43687 0.0
C1654 C 0.56102 0.16276 0.46907 0.0
C1655 C 0.47313 0.15813 0.44475 0.0
C1656 C 0.51938 0.09396 0.46118 0.0
C1657 C 0.51434 0.09037 0.48536 0.0
C1658 C 0.52059 0.11658 0.45173 0.0
C1659 C 0.51572 0.13611 0.46661 0.0
C1660 C 0.50991 0.13241 0.49094 0.0
C1661 C 0.50983 0.10968 0.50009 0.0
C1662 C 0.52783 0.11957 0.42595 0.0
C1663 C 0.50372 0.15248 0.50737 0.0
H1664 H 0.556 0.20604 0.45127 0.0
H1665 H 0.483 0.20118 0.42834 0.0
H1666 H 0.55734 0.15833 0.48791 0.0
H1667 H 0.56608 0.14639 0.45965 0.0
H1668 H 0.5767 0.17462 0.46802 0.0
H1669 H 0.45871 0.16896 0.43686 0.0
H1670 H 0.47576 0.14217 0.43392 0.0
H1671 H 0.46686 0.15268 0.46272 0.0
H1672 H 0.52326 0.07907 0.44984 0.0
H1673 H 0.50593 0.10694 0.51879 0.0
H1674 H 0.54482 0.12959 0.42446 0.0
H1675 H 0.51371 0.12962 0.41674 0.0
H1676 H 0.53074 0.10269 0.41668 0.0
H1677 H 0.51969 0.16375 0.509 0.0
H1678 H 0.49789 0.14662 0.52535 0.0
H1679 H 0.48899 0.16326 0.49998 0.0
C1680 C 0.59339 0.78915 0.15808 0.0
C1681 C 0.5695 0.78774 0.16697 0.0
C1682 C 0.61289 0.7877 0.17333 0.0
C1683 C 0.60822 0.78498 0.19795 0.0
C1684 C 0.58411 0.78495 0.20711 0.0
C1685 C 0.56502 0.78626 0.19148 0.0
C1686 C 0.63844 0.78783 0.163 0.0
C1687 C 0.57845 0.78236 0.2333 0.0
C1688 C 0.65457 0.75191 0.2329 0.0
C1689 C 0.6667 0.76992 0.24397 0.0
C1690 C 0.63551 0.75665 0.21783 0.0
C1691 C 0.62839 0.77996 0.21386 0.0
C1692 C 0.64029 0.79823 0.22526 0.0
C1693 C 0.65938 0.79297 0.24018 0.0
C1694 C 0.62323 0.73671 0.2059 0.0
C1695 C 0.63296 0.82326 0.22161 0.0
H1696 H 0.5969 0.79039 0.13914 0.0
H1697 H 0.54653 0.78545 0.19844 0.0
H1698 H 0.64958 0.80042 0.17259 0.0
H1699 H 0.64693 0.77043 0.16514 0.0
H1700 H 0.63902 0.79227 0.14387 0.0
H1701 H 0.55888 0.7851 0.23776 0.0
H1702 H 0.58379 0.76467 0.23905 0.0
H1703 H 0.589 0.79487 0.24361 0.0
H1704 H 0.66043 0.73413 0.2355 0.0
H1705 H 0.66859 0.80689 0.24895 0.0
H1706 H 0.62492 0.7386 0.18638 0.0
H1707 H 0.60361 0.73691 0.21077 0.0
H1708 H 0.63104 0.7196 0.21083 0.0
H1709 H 0.63505 0.82778 0.2026 0.0
H1710 H 0.64392 0.83539 0.23203 0.0
H1711 H 0.61357 0.8259 0.22679 0.0
C1712 C 0.08522 0.20676 0.6117 0.0
C1713 C 0.07246 0.22547 0.60202 0.0
C1714 C 0.0892 0.18624 0.59877 0.0
C1715 C 0.08022 0.18452 0.57568 0.0
C1716 C 0.06968 0.20416 0.56492 0.0
C1717 C 0.06593 0.22448 0.57825 0.0
C1718 C 0.10081 0.1657 0.61073 0.0
C1719 C 0.06014 0.20305 0.5402 0.0
C1720 C 0.09302 0.1293 0.54051 0.0
C1721 C 0.07214 0.11658 0.54606 0.0
C1722 C 0.09594 0.15167 0.54975 0.0
C1723 C 0.07753 0.16136 0.56485 0.0
C1724 C 0.05632 0.14868 0.57028 0.0
C1725 C 0.05393 0.12645 0.56085 0.0
C1726 C 0.1187 0.16482 0.54358 0.0
C1727 C 0.03625 0.15841 0.58639 0.0
H1728 H 0.09076 0.20753 0.62992 0.0
H1729 H 0.05645 0.23902 0.57046 0.0
H1730 H 0.08656 0.15324 0.61618 0.0
H1731 H 0.11371 0.15649 0.59841 0.0
H1732 H 0.11056 0.17094 0.62675 0.0
H1733 H 0.05683 0.22062 0.53285 0.0
H1734 H 0.07294 0.19345 0.52809 0.0
H1735 H 0.04276 0.1936 0.54063 0.0
H1736 H 0.10702 0.12179 0.52889 0.0
H1737 H 0.03799 0.11657 0.5656 0.0
H1738 H 0.12874 0.16832 0.55987 0.0
H1739 H 0.11402 0.18187 0.53577 0.0
H1740 H 0.13088 0.15515 0.53088 0.0
H1741 H 0.0433 0.16188 0.6042 0.0
H1742 H 0.02073 0.14644 0.58837 0.0
H1743 H 0.02948 0.17515 0.57934 0.0
C1744 C 0.61848 0.2677 0.37481 0.0
C1745 C 0.59687 0.27454 0.36426 0.0
C1746 C 0.64083 0.26827 0.36215 0.0
C1747 C 0.64173 0.27629 0.33846 0.0
C1748 C 0.61996 0.28326 0.32773 0.0
C1749 C 0.5978 0.28211 0.34067 0.0
C1750 C 0.6635 0.26027 0.37415 0.0
C1751 C 0.62012 0.29224 0.30265 0.0
C1752 C 0.70258 0.29818 0.31442 0.0
C1753 C 0.71103 0.27938 0.30049 0.0
C1754 C 0.6799 0.29758 0.32648 0.0
C1755 C 0.66546 0.27751 0.325 0.0
C1756 C 0.67391 0.25849 0.31094 0.0
C1757 C 0.69645 0.25973 0.29872 0.0
C1758 C 0.67143 0.31839 0.34095 0.0
C1759 C 0.65936 0.23661 0.30915 0.0
H1760 H 0.61792 0.26173 0.393 0.0
H1761 H 0.58122 0.28756 0.33242 0.0
H1762 H 0.6726 0.24617 0.36366 0.0
H1763 H 0.67642 0.27477 0.37508 0.0
H1764 H 0.65966 0.25386 0.39239 0.0
H1765 H 0.6017 0.29714 0.29691 0.0
H1766 H 0.63188 0.30765 0.30112 0.0
H1767 H 0.62783 0.27886 0.29032 0.0
H1768 H 0.71368 0.31345 0.31585 0.0
H1769 H 0.7029 0.24503 0.28817 0.0
H1770 H 0.6692 0.31349 0.35985 0.0
H1771 H 0.65347 0.32449 0.33503 0.0
H1772 H 0.6843 0.33299 0.33954 0.0
H1773 H 0.65648 0.22898 0.327 0.0
H1774 H 0.66842 0.22339 0.29741 0.0
H1775 H 0.64123 0.24069 0.30222 0.0
C1776 C 0.46504 0.85574 0.09829 0.0
C1777 C 0.48692 0.84463 0.09148 0.0
C1778 C 0.45966 0.87823 0.09037 0.0
C1779 C 0.47693 0.88997 0.07598 0.0
C1780 C 0.49882 0.87859 0.06868 0.0
C1781 C 0.50338 0.85592 0.07627 0.0
C1782 C 0.43583 0.8896 0.09785 0.0
C1783 C 0.51793 0.89069 0.05369 0.0
C1784 C 0.46708 0.94354 0.03915 0.0
C1785 C 0.4775 0.96045 0.05334 0.0
C1786 C 0.46455 0.92071 0.04726 0.0
C1787 C 0.47327 0.91468 0.06974 0.0
C1788 C 0.48207 0.93209 0.0848 0.0
C1789 C 0.48378 0.95487 0.0765 0.0
C1790 C 0.45428 0.90274 0.03106 0.0
C1791 C 0.49188 0.92635 0.10877 0.0
H1792 H 0.45221 0.8469 0.10991 0.0
H1793 H 0.52035 0.84739 0.07107 0.0
H1794 H 0.43904 0.90381 0.11059 0.0
H1795 H 0.42705 0.89744 0.08233 0.0
H1796 H 0.42316 0.87712 0.10638 0.0
H1797 H 0.53386 0.87928 0.04941 0.0
H1798 H 0.51019 0.89668 0.03686 0.0
H1799 H 0.52425 0.90626 0.06316 0.0
H1800 H 0.46191 0.94788 0.02134 0.0
H1801 H 0.49177 0.9679 0.08759 0.0
H1802 H 0.44213 0.89088 0.04111 0.0
H1803 H 0.46927 0.89208 0.02299 0.0
H1804 H 0.44404 0.91084 0.01655 0.0
H1805 H 0.47901 0.91544 0.11908 0.0
H1806 H 0.49556 0.94217 0.11928 0.0
H1807 H 0.50905 0.91627 0.10637 0.0
C1808 C 0.93811 0.75512 0.84876 0.0
C1809 C 0.94557 0.7772 0.85565 0.0
C1810 C 0.9159 0.75214 0.83759 0.0
C1811 C 0.90041 0.77158 0.83407 0.0
C1812 C 0.90752 0.79376 0.84196 0.0
C1813 C 0.93023 0.79636 0.85215 0.0
C1814 C 0.90945 0.72835 0.82876 0.0
C1815 C 0.89125 0.81482 0.83945 0.0
C1816 C 0.85306 0.77289 0.78627 0.0
C1817 C 0.83196 0.76699 0.79915 0.0
C1818 C 0.87563 0.7734 0.79718 0.0
C1819 C 0.87696 0.76892 0.82179 0.0
C1820 C 0.85561 0.76297 0.83484 0.0
C1821 C 0.8335 0.76165 0.82327 0.0
C1822 C 0.89802 0.77905 0.7824 0.0
C1823 C 0.85592 0.759 0.86123 0.0
H1824 H 0.95016 0.74036 0.85112 0.0
H1825 H 0.93602 0.81345 0.85746 0.0
H1826 H 0.89181 0.72298 0.83671 0.0
H1827 H 0.90745 0.72884 0.80928 0.0
H1828 H 0.92339 0.71502 0.83292 0.0
H1829 H 0.89852 0.83037 0.84827 0.0
H1830 H 0.8891 0.8188 0.82044 0.0
H1831 H 0.87294 0.81131 0.84718 0.0
H1832 H 0.85191 0.77704 0.76764 0.0
H1833 H 0.81712 0.75747 0.83338 0.0
H1834 H 0.91247 0.76588 0.78528 0.0
H1835 H 0.90508 0.79609 0.78788 0.0
H1836 H 0.89437 0.77975 0.76319 0.0
H1837 H 0.86917 0.74509 0.86537 0.0
H1838 H 0.83786 0.75414 0.86873 0.0
H1839 H 0.86178 0.77503 0.87021 0.0
C1840 C 0.92452 0.04066 0.81407 0.0
C1841 C 0.93947 0.03816 0.79367 0.0
C1842 C 0.93437 0.04107 0.83656 0.0
C1843 C 0.95977 0.03913 0.8386 0.0
C1844 C 0.9749 0.03578 0.81818 0.0
C1845 C 0.96453 0.03524 0.7959 0.0
C1846 C 0.9177 0.04439 0.85806 0.0
C1847 C 0.00209 0.03374 0.81978 0.0
C1848 C 0.9857 0.06755 0.89231 0.0
C1849 C 0.98962 0.04844 0.90702 0.0
C1850 C 0.97631 0.06468 0.86981 0.0
C1851 C 0.97056 0.04216 0.86197 0.0
C1852 C 0.9746 0.02275 0.87661 0.0
C1853 C 0.9842 0.02612 0.89896 0.0
C1854 C 0.97226 0.08578 0.85456 0.0
C1855 C 0.96859 -0.00151 0.86875 0.0
H1856 H 0.9051 0.04269 0.81247 0.0
H1857 H 0.97618 0.03328 0.78019 0.0
H1858 H 0.92124 0.03074 0.87135 0.0
H1859 H 0.92123 0.06136 0.8665 0.0
H1860 H 0.89828 0.04389 0.85355 0.0
H1861 H 0.01112 0.02956 0.80241 0.0
H1862 H 0.00935 0.05035 0.82632 0.0
H1863 H 0.00698 0.0201 0.83265 0.0
H1864 H 0.98956 0.08484 0.89854 0.0
H1865 H 0.98761 0.01122 0.91006 0.0
H1866 H 0.95271 0.08777 0.85098 0.0
H1867 H 0.98204 0.08359 0.83722 0.0
H1868 H 0.97846 0.10198 0.86301 0.0
H1869 H 0.94898 -0.00254 0.86527 0.0
H1870 H 0.97314 0.98522 0.88219 0.0
H1871 H 0.97859 0.99417 0.85194 0.0
C1872 C 0.78113 0.19996 0.60848 0.0
C1873 C 0.78459 0.20569 0.5845 0.0
C1874 C 0.77823 0.21716 0.62589 0.0
C1875 C 0.77885 0.24079 0.61925 0.0
C1876 C 0.78231 0.24682 0.59512 0.0
C1877 C 0.78514 0.22916 0.57797 0.0
C1878 C 0.77471 0.20997 0.65147 0.0
C1879 C 0.78324 0.27186 0.5875 0.0
C1880 C 0.75192 0.27953 0.6678 0.0
C1881 C 0.77254 0.28403 0.68069 0.0
C1882 C 0.75381 0.26686 0.64651 0.0
C1883 C 0.7769 0.25886 0.63802 0.0
C1884 C 0.79792 0.26523 0.64998 0.0
C1885 C 0.79544 0.27762 0.67126 0.0
C1886 C 0.73099 0.26041 0.63423 0.0
C1887 C 0.8229 0.25735 0.64147 0.0
H1888 H 0.78064 0.18191 0.61377 0.0
H1889 H 0.78773 0.23375 0.55949 0.0
H1890 H 0.78986 0.21644 0.66199 0.0
H1891 H 0.75772 0.21778 0.6591 0.0
H1892 H 0.77389 0.19084 0.65355 0.0
H1893 H 0.78531 0.27367 0.56797 0.0
H1894 H 0.76647 0.28119 0.59362 0.0
H1895 H 0.79865 0.28051 0.59582 0.0
H1896 H 0.73425 0.28453 0.67516 0.0
H1897 H 0.81142 0.28152 0.68111 0.0
H1898 H 0.72714 0.24183 0.6375 0.0
H1899 H 0.73324 0.26272 0.61481 0.0
H1900 H 0.7151 0.27091 0.64075 0.0
H1901 H 0.82556 0.23878 0.64594 0.0
H1902 H 0.83733 0.26743 0.64988 0.0
H1903 H 0.82507 0.25901 0.62197 0.0
C1904 C 0.63139 0.02874 0.36521 0.0
C1905 C 0.6153 0.04215 0.35196 0.0
C1906 C 0.62697 0.02508 0.38941 0.0
C1907 C 0.60614 0.03525 0.40049 0.0
C1908 C 0.59157 0.05109 0.38789 0.0
C1909 C 0.59631 0.05431 0.36365 0.0
C1910 C 0.64312 0.00837 0.40233 0.0
C1911 C 0.56954 0.06282 0.39938 0.0
C1912 C 0.56653 0.00318 0.44415 0.0
C1913 C 0.56994 0.01597 0.4648 0.0
C1914 C 0.57997 0.008 0.42343 0.0
C1915 C 0.59683 0.02629 0.42343 0.0
C1916 C 0.60196 0.03778 0.44477 0.0
C1917 C 0.5886 0.03222 0.46541 0.0
C1918 C 0.57444 0.99496 0.40104 0.0
C1919 C 0.62003 0.05716 0.44538 0.0
H1920 H 0.64645 0.01962 0.3564 0.0
H1921 H 0.58413 0.0651 0.35362 0.0
H1922 H 0.64521 0.01374 0.421 0.0
H1923 H 0.63484 0.99094 0.40243 0.0
H1924 H 0.66136 0.00683 0.39353 0.0
H1925 H 0.56234 0.07705 0.38828 0.0
H1926 H 0.55505 0.04988 0.40223 0.0
H1927 H 0.57386 0.07005 0.41694 0.0
H1928 H 0.55229 0.99044 0.4438 0.0
H1929 H 0.59135 0.04207 0.48144 0.0
H1930 H 0.59144 0.98909 0.39176 0.0
H1931 H 0.5647 0.00665 0.38888 0.0
H1932 H 0.563 0.97959 0.40465 0.0
H1933 H 0.63811 0.05073 0.43901 0.0
H1934 H 0.62165 0.06452 0.46344 0.0
H1935 H 0.61456 0.07132 0.43333 0.0
C1936 C 0.76948 0.87508 0.11733 0.0
C1937 C 0.77092 0.86197 0.09632 0.0
C1938 C 0.77079 0.8645 0.13969 0.0
C1939 C 0.77402 0.84013 0.14128 0.0
C1940 C 0.77601 0.82681 0.12012 0.0
C1941 C 0.77422 0.83783 0.09795 0.0
C1942 C 0.7682 0.8794 0.16168 0.0
C1943 C 0.77982 0.80086 0.12092 0.0
C1944 C 0.79675 0.81676 0.20008 0.0
C1945 C 0.7753 0.80901 0.21127 0.0
C1946 C 0.79672 0.82634 0.17713 0.0
C1947 C 0.77465 0.82865 0.16511 0.0
C1948 C 0.75297 0.82076 0.17631 0.0
C1949 C 0.75358 0.81091 0.19907 0.0
C1950 C 0.82032 0.83417 0.16579 0.0
C1951 C 0.72895 0.82317 0.16445 0.0
H1952 H 0.76679 0.89371 0.11636 0.0
H1953 H 0.7754 0.82753 0.08187 0.0
H1954 H 0.75227 0.87384 0.17259 0.0
H1955 H 0.78437 0.8772 0.17264 0.0
H1956 H 0.76594 0.89811 0.15748 0.0
H1957 H 0.78217 0.79309 0.10296 0.0
H1958 H 0.79606 0.79658 0.13121 0.0
H1959 H 0.76409 0.79267 0.13009 0.0
H1960 H 0.81363 0.81531 0.20926 0.0
H1961 H 0.73686 0.80511 0.20753 0.0
H1962 H 0.81961 0.85317 0.16281 0.0
H1963 H 0.82323 0.82574 0.14823 0.0
H1964 H 0.83608 0.83007 0.17685 0.0
H1965 H 0.72492 0.84177 0.1611 0.0
H1966 H 0.71378 0.81589 0.17532 0.0
H1967 H 0.72979 0.81422 0.14704 0.0
C1968 C 0.89331 0.0831 0.65251 0.0
C1969 C 0.9064 0.08292 0.67335 0.0
C1970 C 0.90546 0.08179 0.63034 0.0
C1971 C 0.93104 0.07985 0.62933 0.0
C1972 C 0.94425 0.08247 0.65016 0.0
C1973 C 0.93172 0.08424 0.67194 0.0
C1974 C 0.89099 0.08076 0.60818 0.0
C1975 C 0.97159 0.08068 0.64984 0.0
C1976 C 0.9607 0.03592 0.58794 0.0
C1977 C 0.97438 0.05014 0.5729 0.0
C1978 C 0.94565 0.04555 0.60582 0.0
C1979 C 0.94372 0.07003 0.60809 0.0
C1980 C 0.95643 0.08449 0.59195 0.0
C1981 C 0.97199 0.07431 0.57468 0.0
C1982 C 0.93268 0.02949 0.62295 0.0
C1983 C 0.95363 0.11056 0.59293 0.0
H1984 H 0.87368 0.0828 0.65355 0.0
H1985 H 0.94192 0.08478 0.68801 0.0
H1986 H 0.89736 0.09429 0.59562 0.0
H1987 H 0.89382 0.0637 0.5993 0.0
H1988 H 0.87129 0.08347 0.61192 0.0
H1989 H 0.97912 0.08561 0.66712 0.0
H1990 H 0.97733 0.06254 0.64572 0.0
H1991 H 0.97964 0.09194 0.63589 0.0
H1992 H 0.96247 0.01722 0.58624 0.0
H1993 H 0.98206 0.08523 0.56236 0.0
H1994 H 0.9129 0.03305 0.62308 0.0
H1995 H 0.93892 0.03257 0.64116 0.0
H1996 H 0.9359 0.01091 0.61843 0.0
H1997 H 0.93485 0.11548 0.58843 0.0
H1998 H 0.96635 0.11932 0.58034 0.0
H1999 H 0.95662 0.11715 0.61105 0.0
C2000 C 0.80714 0.17803 0.42233 0.0
C2001 C 0.79202 0.18949 0.43915 0.0
C2002 C 0.80869 0.18562 0.39877 0.0
C2003 C 0.79442 0.20485 0.39186 0.0
C2004 C 0.77881 0.21625 0.4087 0.0
C2005 C 0.77799 0.20857 0.43223 0.0
C2006 C 0.82585 0.17335 0.3814 0.0
C2007 C 0.76305 0.23663 0.40189 0.0
C2008 C 0.81105 0.24305 0.33978 0.0
C2009 C 0.7947 0.23572 0.32295 0.0
C2010 C 0.81224 0.2321 0.3618 0.0
C2011 C 0.7963 0.21374 0.36725 0.0
C2012 C 0.78068 0.20543 0.34983 0.0
C2013 C 0.78024 0.21642 0.3277 0.0
C2014 C 0.82956 0.24111 0.37971 0.0
C2015 C 0.76323 0.18606 0.35509 0.0
H2016 H 0.81809 0.1633 0.42766 0.0
H2017 H 0.76614 0.21734 0.44515 0.0
H2018 H 0.81584 0.16699 0.36602 0.0
H2019 H 0.83958 0.18569 0.3745 0.0
H2020 H 0.83538 0.15841 0.38952 0.0
H2021 H 0.75108 0.24284 0.41683 0.0
H2022 H 0.77456 0.2512 0.39582 0.0
H2023 H 0.75158 0.23177 0.38693 0.0
H2024 H 0.82234 0.25792 0.33603 0.0
H2025 H 0.76743 0.21088 0.31475 0.0
H2026 H 0.83975 0.22654 0.3877 0.0
H2027 H 0.81921 0.25013 0.39425 0.0
H2028 H 0.84271 0.25347 0.37174 0.0
H2029 H 0.77272 0.17111 0.36315 0.0
H2030 H 0.75421 0.18 0.33894 0.0
H2031 H 0.74907 0.19222 0.3681 0.0
C2032 C 0.59657 0.98945 0.20649 0.0
C2033 C 0.59015 0.99299 0.23041 0.0
C2034 C 0.57987 0.99385 0.1889 0.0
C2035 C 0.55621 0.00168 0.19556 0.0
C2036 C 0.54889 0.00286 0.21973 0.0
C2037 C 0.56605 -0.00142 0.23696 0.0
C2038 C 0.58826 0.99214 0.16323 0.0
C2039 C 0.52358 0.01046 0.2274 0.0
C2040 C 0.53251 0.04434 0.1513 0.0
C2041 C 0.5194 0.02979 0.13678 0.0
C2042 C 0.54338 0.03564 0.17152 0.0
C2043 C 0.54074 0.0119 0.17734 0.0
C2044 C 0.52577 -0.00237 0.16387 0.0
C2045 C 0.51537 0.00675 0.14358 0.0
C2046 C 0.55923 0.05142 0.18554 0.0
C2047 C 0.52206 0.9724 0.16985 0.0
H2048 H 0.61509 0.98478 0.20137 0.0
H2049 H 0.5609 0.00095 0.2555 0.0
H2050 H 0.57509 0.98234 0.15285 0.0
H2051 H 0.5894 0.00982 0.15558 0.0
H2052 H 0.60633 0.98354 0.16104 0.0
H2053 H 0.51941 0.00602 0.2462 0.0
H2054 H 0.52176 0.02955 0.22544 0.0
H2055 H 0.50993 0.00236 0.21613 0.0
H2056 H 0.53566 0.06211 0.14597 0.0
H2057 H 0.50478 0.99564 0.13251 0.0
H2058 H 0.57843 0.04567 0.18328 0.0
H2059 H 0.55429 0.05047 0.20469 0.0
H2060 H 0.55775 0.06979 0.17982 0.0
H2061 H 0.53822 0.96214 0.1637 0.0
H2062 H 0.50599 0.96532 0.16112 0.0
H2063 H 0.51983 0.96994 0.18926 0.0
C2064 C 0.76889 0.85184 0.94412 0.0
C2065 C 0.75219 0.87014 0.94794 0.0
C2066 C 0.76968 0.83917 0.92263 0.0
C2067 C 0.75303 0.84458 0.90474 0.0
C2068 C 0.73561 0.86251 0.90894 0.0
C2069 C 0.73558 0.87515 0.93026 0.0
C2070 C 0.78879 0.82046 0.91878 0.0
C2071 C 0.71717 0.86862 0.89071 0.0
C2072 C 0.76767 0.83025 0.83969 0.0
C2073 C 0.75476 0.80974 0.83635 0.0
C2074 C 0.76771 0.84139 0.86191 0.0
C2075 C 0.75414 0.83214 0.88133 0.0
C2076 C 0.74086 0.81157 0.878 0.0
C2077 C 0.74153 0.80052 0.85568 0.0
C2078 C 0.78241 0.86306 0.86465 0.0
C2079 C 0.72575 0.80133 0.89798 0.0
H2080 H 0.78188 0.84793 0.95757 0.0
H2081 H 0.72244 0.88911 0.93308 0.0
H2082 H 0.7802 0.80378 0.91439 0.0
H2083 H 0.80088 0.82508 0.9035 0.0
H2084 H 0.79999 0.8179 0.93457 0.0
H2085 H 0.70394 0.88205 0.89723 0.0
H2086 H 0.72649 0.87518 0.87444 0.0
H2087 H 0.70711 0.85293 0.88567 0.0
H2088 H 0.77823 0.83738 0.825 0.0
H2089 H 0.73156 0.78466 0.85334 0.0
H2090 H 0.79527 0.86078 0.87918 0.0
H2091 H 0.77028 0.87793 0.86953 0.0
H2092 H 0.79283 0.86749 0.84817 0.0
H2093 H 0.73731 0.79729 0.91317 0.0
H2094 H 0.71653 0.78523 0.8926 0.0
H2095 H 0.71181 0.81415 0.90429 0.0
C2096 C 0.84514 0.93978 0.01521 0.0
C2097 C 0.82407 0.95318 0.01231 0.0
C2098 C 0.86807 0.95021 0.0155 0.0
C2099 C 0.86988 0.97467 0.01354 0.0
C2100 C 0.84857 0.98827 0.01118 0.0
C2101 C 0.82603 0.97736 0.01028 0.0
C2102 C 0.89039 0.93504 0.01753 0.0
C2103 C 0.84953 0.0144 0.0097 0.0
C2104 C 0.92691 0.00278 0.03597 0.0
C2105 C 0.93987 0.00749 0.01481 0.0
C2106 C 0.90397 0.9925 0.0358 0.0
C2107 C 0.894 0.98612 0.01396 0.0
C2108 C 0.90699 0.99094 0.99252 0.0
C2109 C 0.9296 0.00183 0.99319 0.0
C2110 C 0.89049 0.98832 0.05903 0.0
C2111 C 0.89728 0.98402 0.96888 0.0
H2112 H 0.84376 0.9211 0.01664 0.0
H2113 H 0.80981 0.98788 0.00827 0.0
H2114 H 0.90291 0.93791 0.00209 0.0
H2115 H 0.90021 0.93976 0.03363 0.0
H2116 H 0.886 0.91631 0.01838 0.0
H2117 H 0.83123 0.02253 0.00878 0.0
H2118 H 0.85857 0.02145 0.02539 0.0
H2119 H 0.86042 0.01959 0.99381 0.0
H2120 H 0.93478 0.00707 0.05274 0.0
H2121 H 0.93971 0.00507 0.97679 0.0
H2122 H 0.88783 0.96945 0.06161 0.0
H2123 H 0.87225 -0.00337 0.05881 0.0
H2124 H 0.90024 0.99521 0.07438 0.0
H2125 H 0.89438 0.96502 0.96846 0.0
H2126 H 0.90973 0.98868 0.95386 0.0
H2127 H 0.87947 0.9926 0.96628 0.0
C2128 C 0.31485 0.58394 0.98304 0.0
C2129 C 0.31578 0.60001 0.00159 0.0
C2130 C 0.33598 0.57254 0.97452 0.0
C2131 C 0.35814 0.57672 0.98555 0.0
C2132 C 0.359 0.59281 0.00452 0.0
C2133 C 0.3378 0.60466 0.01197 0.0
C2134 C 0.33465 0.55618 0.9537 0.0
C2135 C 0.38215 0.59715 0.01726 0.0
C2136 C 0.40796 0.53139 0.98543 0.0
C2137 C 0.42611 0.54226 0.97175 0.0
C2138 C 0.38523 0.54196 0.9892 0.0
C2139 C 0.38031 0.56349 0.9783 0.0
C2140 C 0.39779 0.57348 0.9627 0.0
C2141 C 0.42075 0.56293 0.95994 0.0
C2142 C 0.36735 0.53108 0.00651 0.0
C2143 C 0.39278 0.59599 0.95007 0.0
H2144 H 0.29772 0.58076 0.97484 0.0
H2145 H 0.3383 0.61719 0.0263 0.0
H2146 H 0.34799 0.56122 0.9396 0.0
H2147 H 0.33943 0.53829 0.95918 0.0
H2148 H 0.31632 0.55605 0.94615 0.0
H2149 H 0.3795 0.60973 0.03208 0.0
H2150 H 0.3893 0.58061 0.02446 0.0
H2151 H 0.39615 0.60395 0.00472 0.0
H2152 H 0.41209 0.51549 0.99476 0.0
H2153 H 0.43475 0.57126 0.94926 0.0
H2154 H 0.34923 0.52994 -0.00124 0.0
H2155 H 0.36539 0.54214 0.02259 0.0
H2156 H 0.37319 0.51342 0.01195 0.0
H2157 H 0.37442 0.59599 0.94266 0.0
H2158 H 0.40631 0.59916 0.93551 0.0
H2159 H 0.39339 0.61061 0.96283 0.0
C2160 C 0.19196 0.57201 0.74713 0.0
C2161 C 0.16679 0.57573 0.74794 0.0
C2162 C 0.20786 0.5906 0.74481 0.0
C2163 C 0.1983 0.61339 0.74328 0.0
C2164 C 0.17297 0.61715 0.74246 0.0
C2165 C 0.15747 0.59822 0.74476 0.0
C2166 C 0.23481 0.58596 0.74549 0.0
C2167 C 0.1622 0.64128 0.74066 0.0
C2168 C 0.23501 0.66185 0.76861 0.0
C2169 C 0.24504 0.67189 0.74809 0.0
C2170 C 0.21983 0.6427 0.76725 0.0
C2171 C 0.21464 0.63339 0.74479 0.0
C2172 C 0.22494 0.64323 0.724 0.0
C2173 C 0.24003 0.66241 0.7259 0.0
C2174 C 0.20921 0.63254 0.78984 0.0
C2175 C 0.21972 0.63371 0.69978 0.0
H2176 H 0.19931 0.55464 0.74929 0.0
H2177 H 0.13804 0.60122 0.74523 0.0
H2178 H 0.24443 0.59516 0.73085 0.0
H2179 H 0.24177 0.59267 0.76235 0.0
H2180 H 0.23936 0.56716 0.74414 0.0
H2181 H 0.14242 0.64104 0.73767 0.0
H2182 H 0.1652 0.65097 0.75729 0.0
H2183 H 0.17123 0.65098 0.72602 0.0
H2184 H 0.23909 0.66897 0.78577 0.0
H2185 H 0.24739 0.67034 0.70994 0.0
H2186 H 0.21457 0.61398 0.7912 0.0
H2187 H 0.18914 0.63337 0.78963 0.0
H2188 H 0.21519 0.64177 0.80587 0.0
H2189 H 0.22461 0.615 0.69879 0.0
H2190 H 0.2298 0.64293 0.6854 0.0
H2191 H 0.20005 0.63526 0.6966 0.0
C2192 C 0.18702 0.45408 0.54048 0.0
C2193 C 0.18864 0.42978 0.54147 0.0
C2194 C 0.1645 0.46564 0.53962 0.0
C2195 C 0.14293 0.45264 0.53996 0.0
C2196 C 0.14438 0.42812 0.54151 0.0
C2197 C 0.16721 0.41698 0.54214 0.0
C2198 C 0.16383 0.49177 0.53779 0.0
C2199 C 0.12181 0.41364 0.54213 0.0
C2200 C 0.08366 0.48503 0.5552 0.0
C2201 C 0.07435 0.48884 0.53268 0.0
C2202 C 0.10574 0.47297 0.5579 0.0
C2203 C 0.11899 0.46472 0.5376 0.0
C2204 C 0.10968 0.46857 0.51486 0.0
C2205 C 0.08748 0.48045 0.51269 0.0
C2206 C 0.1149 0.46907 0.58248 0.0
C2207 C 0.12328 0.46028 0.49273 0.0
H2208 H 0.20345 0.46415 0.53994 0.0
H2209 H 0.16827 0.39821 0.543 0.0
H2210 H 0.15558 0.49699 0.52094 0.0
H2211 H 0.15236 0.49931 0.55242 0.0
H2212 H 0.18216 0.49939 0.53844 0.0
H2213 H 0.1259 0.3949 0.54464 0.0
H2214 H 0.10925 0.41963 0.55668 0.0
H2215 H 0.11217 0.41579 0.52533 0.0
H2216 H 0.07357 0.49128 0.57077 0.0
H2217 H 0.08046 0.48328 0.49521 0.0
H2218 H 0.13264 0.47758 0.58427 0.0
H2219 H 0.11783 0.45025 0.58553 0.0
H2220 H 0.10214 0.47597 0.59648 0.0
H2221 H 0.14139 0.46837 0.49157 0.0
H2222 H 0.11351 0.4645 0.47637 0.0
H2223 H 0.12623 0.44123 0.49346 0.0
C2224 C 0.88003 0.95913 0.72235 0.0
C2225 C 0.86525 0.97905 0.72452 0.0
C2226 C 0.87015 0.93695 0.72449 0.0
C2227 C 0.84488 0.93475 0.72845 0.0
C2228 C 0.82981 0.95478 0.73019 0.0
C2229 C 0.84022 0.97673 0.7284 0.0
C2230 C 0.88675 0.91592 0.72286 0.0
C2231 C 0.8027 0.95303 0.73394 0.0
C2232 C 0.81427 0.87915 0.71174 0.0
C2233 C 0.80928 0.86922 0.73398 0.0
C2234 C 0.82631 0.90025 0.70965 0.0
C2235 C 0.83399 0.91149 0.7303 0.0
C2236 C 0.83012 0.90107 0.75273 0.0
C2237 C 0.81765 0.88008 0.75433 0.0
C2238 C 0.83005 0.9109 0.68543 0.0
C2239 C 0.83844 0.91248 0.77509 0.0
H2240 H 0.89943 0.96085 0.71961 0.0
H2241 H 0.82874 0.9921 0.73 0.0
H2242 H 0.88504 0.90568 0.73941 0.0
H2243 H 0.88143 0.9045 0.70814 0.0
H2244 H 0.90604 0.92066 0.71994 0.0
H2245 H 0.79353 0.97031 0.73457 0.0
H2246 H 0.79502 0.94271 0.71944 0.0
H2247 H 0.79845 0.94385 0.75076 0.0
H2248 H 0.80848 0.87058 0.69587 0.0
H2249 H 0.81381 0.87261 0.77157 0.0
H2250 H 0.84949 0.9146 0.682 0.0
H2251 H 0.82001 0.92767 0.68466 0.0
H2252 H 0.82376 0.89947 0.67106 0.0
H2253 H 0.85787 0.91697 0.77318 0.0
H2254 H 0.83589 0.90119 0.79085 0.0
H2255 H 0.82811 0.92889 0.77827 0.0
C2256 C 0.7004 0.13517 0.52321 0.0
C2257 C 0.72336 0.12514 0.52616 0.0
C2258 C 0.67936 0.12318 0.52971 0.0
C2259 C 0.68139 0.10076 0.53964 0.0
C2260 C 0.70451 0.09065 0.54297 0.0
C2261 C 0.72528 0.10294 0.53603 0.0
C2262 C 0.65495 0.13434 0.52557 0.0
C2263 C 0.70727 0.06676 0.55353 0.0
C2264 C 0.62445 0.07929 0.57129 0.0
C2265 C 0.61401 0.06654 0.55324 0.0
C2266 C 0.64698 0.08987 0.56747 0.0
C2267 C 0.65918 0.08746 0.54514 0.0
C2268 C 0.64923 0.07361 0.52731 0.0
C2269 C 0.62677 0.06334 0.53159 0.0
C2270 C 0.65726 0.10433 0.58696 0.0
C2271 C 0.66168 0.07047 0.50328 0.0
H2272 H 0.69886 0.15232 0.51557 0.0
H2273 H 0.74303 0.09521 0.53851 0.0
H2274 H 0.64486 0.12369 0.51291 0.0
H2275 H 0.64402 0.13514 0.54237 0.0
H2276 H 0.65654 0.15218 0.51836 0.0
H2277 H 0.72654 0.06191 0.55614 0.0
H2278 H 0.69728 0.06591 0.57085 0.0
H2279 H 0.69927 0.0537 0.54175 0.0
H2280 H 0.6146 0.0817 0.58802 0.0
H2281 H 0.61903 0.05295 0.51781 0.0
H2282 H 0.65722 0.12285 0.58168 0.0
H2283 H 0.67635 0.09914 0.58987 0.0
H2284 H 0.64671 0.1027 0.60393 0.0
H2285 H 0.65969 0.0867 0.49295 0.0
H2286 H 0.65383 0.05605 0.49309 0.0
H2287 H 0.68134 0.06695 0.50497 0.0
C2288 C 0.20698 0.43932 0.78037 0.0
C2289 C 0.19055 0.44862 0.79733 0.0
C2290 C 0.2199 0.41888 0.7849 0.0
C2291 C 0.21664 0.40791 0.80714 0.0
C2292 C 0.20154 0.41825 0.825 0.0
C2293 C 0.18837 0.43842 0.81977 0.0
C2294 C 0.23566 0.40817 0.7653 0.0
C2295 C 0.1982 0.40731 0.8491 0.0
C2296 C 0.22318 0.3431 0.80201 0.0
C2297 C 0.24769 0.33981 0.80694 0.0
C2298 C 0.21242 0.36513 0.8034 0.0
C2299 C 0.22645 0.38421 0.81027 0.0
C2300 C 0.25059 0.3807 0.81721 0.0
C2301 C 0.26106 0.35847 0.81525 0.0
C2302 C 0.18662 0.36818 0.79567 0.0
C2303 C 0.26579 0.4006 0.82528 0.0
H2304 H 0.20871 0.44726 0.76304 0.0
H2305 H 0.17589 0.44585 0.83302 0.0
H2306 H 0.25396 0.40401 0.77176 0.0
H2307 H 0.22761 0.39166 0.75947 0.0
H2308 H 0.23761 0.41976 0.7497 0.0
H2309 H 0.18941 0.41948 0.86214 0.0
H2310 H 0.18667 0.3918 0.84771 0.0
H2311 H 0.21589 0.40146 0.85591 0.0
H2312 H 0.2127 0.3287 0.79571 0.0
H2313 H 0.27995 0.35591 0.81937 0.0
H2314 H 0.18658 0.37743 0.77847 0.0
H2315 H 0.17588 0.37884 0.80867 0.0
H2316 H 0.17745 0.35131 0.7935 0.0
H2317 H 0.27145 0.41118 0.80975 0.0
H2318 H 0.28234 0.39443 0.83415 0.0
H2319 H 0.25519 0.41211 0.83765 0.0
C2320 C 0.36637 0.60396 0.29718 0.0
C2321 C 0.36663 0.60158 0.27253 0.0
C2322 C 0.35322 0.62209 0.30836 0.0
C2323 C 0.34135 0.63874 0.29432 0.0
C2324 C 0.34103 0.6359 0.26939 0.0
C2325 C 0.35328 0.61695 0.25884 0.0
C2326 C 0.35283 0.62391 0.33502 0.0
C2327 C 0.32915 0.65365 0.2537 0.0
C2328 C 0.29711 0.6861 0.31301 0.0
C2329 C 0.31252 0.70515 0.31339 0.0
C2330 C 0.30657 0.66362 0.30947 0.0
C2331 C 0.33177 0.66058 0.30501 0.0
C2332 C 0.34748 0.67963 0.30708 0.0
C2333 C 0.33763 0.70168 0.31179 0.0
C2334 C 0.28943 0.64351 0.30867 0.0
C2335 C 0.37439 0.67728 0.30172 0.0
H2336 H 0.3766 0.59176 0.30765 0.0
H2337 H 0.3537 0.61497 0.23974 0.0
H2338 H 0.36547 0.63755 0.34049 0.0
H2339 H 0.33445 0.62891 0.34197 0.0
H2340 H 0.3584 0.60732 0.34335 0.0
H2341 H 0.33059 0.64875 0.23467 0.0
H2342 H 0.30971 0.6558 0.25882 0.0
H2343 H 0.33778 0.67076 0.25595 0.0
H2344 H 0.27766 0.68889 0.3144 0.0
H2345 H 0.34947 0.71653 0.31186 0.0
H2346 H 0.2976 0.62774 0.31655 0.0
H2347 H 0.28549 0.63947 0.29 0.0
H2348 H 0.27199 0.64761 0.31822 0.0
H2349 H 0.38423 0.6934 0.30586 0.0
H2350 H 0.37752 0.67324 0.28263 0.0
H2351 H 0.38231 0.66281 0.3119 0.0
C2352 C 0.53803 0.68533 0.60995 0.0
C2353 C 0.52075 0.70342 0.60987 0.0
C2354 C 0.53427 0.66422 0.5981 0.0
C2355 C 0.51224 0.6606 0.58651 0.0
C2356 C 0.49479 0.67893 0.58614 0.0
C2357 C 0.49942 0.70023 0.5975 0.0
C2358 C 0.5538 0.64563 0.59831 0.0
C2359 C 0.47084 0.67572 0.57455 0.0
C2360 C 0.51092 0.611 0.54138 0.0
C2361 C 0.50264 0.59239 0.5553 0.0
C2362 C 0.51372 0.6333 0.55113 0.0
C2363 C 0.50744 0.63745 0.57532 0.0
C2364 C 0.49804 0.61894 0.58919 0.0
C2365 C 0.49616 0.5966 0.57916 0.0
C2366 C 0.52457 0.65214 0.5358 0.0
C2367 C 0.49052 0.62259 0.61486 0.0
H2368 H 0.55456 0.68767 0.61947 0.0
H2369 H 0.48583 0.71399 0.59767 0.0
H2370 H 0.54714 0.63034 0.6083 0.0
H2371 H 0.55841 0.63975 0.57997 0.0
H2372 H 0.57057 0.65175 0.60654 0.0
H2373 H 0.45942 0.69174 0.57525 0.0
H2374 H 0.47381 0.67048 0.55577 0.0
H2375 H 0.46076 0.66155 0.58354 0.0
H2376 H 0.51636 0.60789 0.52303 0.0
H2377 H 0.48979 0.58235 0.59006 0.0
H2378 H 0.54239 0.65705 0.54267 0.0
H2379 H 0.51282 0.6679 0.53645 0.0
H2380 H 0.52722 0.64658 0.51704 0.0
H2381 H 0.5067 0.62613 0.62534 0.0
H2382 H 0.48125 0.60723 0.62253 0.0
H2383 H 0.4782 0.6379 0.61674 0.0
C2384 C 0.64991 0.28603 0.89587 0.0
C2385 C 0.64053 0.26539 0.88704 0.0
C2386 C 0.67097 0.29554 0.88559 0.0
C2387 C 0.68308 0.28365 0.86663 0.0
C2388 C 0.67412 0.26229 0.85838 0.0
C2389 C 0.65267 0.25363 0.86845 0.0
C2390 C 0.67972 0.31862 0.89436 0.0
C2391 C 0.68703 0.2487 0.83871 0.0
C2392 C 0.72473 0.30903 0.8197 0.0
C2393 C 0.74722 0.30119 0.8274 0.0
C2394 C 0.70364 0.30551 0.83362 0.0
C2395 C 0.70521 0.29319 0.85519 0.0
C2396 C 0.72808 0.2868 0.86379 0.0
C2397 C 0.74889 0.29135 0.84999 0.0
C2398 C 0.67955 0.31336 0.82438 0.0
C2399 C 0.73048 0.27318 0.88643 0.0
H2400 H 0.64015 0.29528 0.91002 0.0
H2401 H 0.64524 0.23769 0.8617 0.0
H2402 H 0.6986 0.31693 0.90029 0.0
H2403 H 0.67981 0.33137 0.87969 0.0
H2404 H 0.66819 0.32562 0.90927 0.0
H2405 H 0.67846 0.23171 0.83547 0.0
H2406 H 0.68694 0.25883 0.82206 0.0
H2407 H 0.70624 0.24555 0.84311 0.0
H2408 H 0.72349 0.31703 0.80243 0.0
H2409 H 0.76631 0.28548 0.85617 0.0
H2410 H 0.6679 0.32099 0.83884 0.0
H2411 H 0.66998 0.2982 0.81723 0.0
H2412 H 0.68175 0.32635 0.81001 0.0
H2413 H 0.72168 0.28275 0.9015 0.0
H2414 H 0.74969 0.26963 0.89057 0.0
H2415 H 0.72116 0.25634 0.88488 0.0
C2416 C 0.04691 0.34452 0.07828 0.0
C2417 C 0.03442 0.34089 0.09998 0.0
C2418 C 0.04721 0.36656 0.06745 0.0
C2419 C 0.03454 0.38553 0.07838 0.0
C2420 C 0.02173 0.38189 0.10018 0.0
C2421 C 0.02192 0.35975 0.11072 0.0
C2422 C 0.06123 0.36959 0.04432 0.0
C2423 C 0.00776 0.40144 0.11242 0.0
C2424 C 0.05092 0.44812 0.06237 0.0
C2425 C 0.03288 0.45421 0.04647 0.0
C2426 C 0.05193 0.4258 0.07256 0.0
C2427 C 0.03436 0.40908 0.06695 0.0
C2428 C 0.01622 0.41511 0.05079 0.0
C2429 C 0.01576 0.43744 0.04073 0.0
C2430 C 0.07172 0.42015 0.08952 0.0
C2431 C -0.00302 0.39804 0.04439 0.0
H2432 H 0.05673 0.33017 0.06985 0.0
H2433 H 0.0122 0.35722 0.12745 0.0
H2434 H 0.04888 0.3756 0.03043 0.0
H2435 H 0.07513 0.38311 0.04629 0.0
H2436 H 0.07036 0.35326 0.03819 0.0
H2437 H -0.00141 0.39582 0.12918 0.0
H2438 H 0.02015 0.4158 0.11645 0.0
H2439 H 0.99388 0.4085 0.10052 0.0
H2440 H 0.06425 0.46085 0.06697 0.0
H2441 H 0.00165 0.44187 0.02856 0.0
H2442 H 0.08206 0.40453 0.08332 0.0
H2443 H 0.06362 0.41609 0.10722 0.0
H2444 H 0.08452 0.43468 0.09143 0.0
H2445 H 0.00554 0.38198 0.03695 0.0
H2446 H 0.98433 0.40522 0.03129 0.0
H2447 H 0.98636 0.39305 0.06053 0.0
C2448 C -0.00309 0.76975 0.32784 0.0
C2449 C -0.00239 0.76366 0.35182 0.0
C2450 C 0.97477 0.77263 0.31669 0.0
C2451 C 0.95289 0.76962 0.32997 0.0
C2452 C 0.95351 0.76178 0.35365 0.0
C2453 C 0.97592 0.75872 0.36426 0.0
C2454 C 0.9748 0.7805 0.29123 0.0
C2455 C 0.93055 0.75846 0.3684 0.0
C2456 C 0.90001 0.80848 0.3143 0.0
C2457 C 0.88507 0.79301 0.30272 0.0
C2458 C 0.92215 0.80101 0.32322 0.0
C2459 C 0.92962 0.77755 0.32018 0.0
C2460 C 0.91477 0.7619 0.30816 0.0
C2461 C 0.89255 0.76981 0.29969 0.0
C2462 C 0.93737 0.81818 0.3362 0.0
C2463 C 0.92233 0.73687 0.3043 0.0
H2464 H 0.01363 0.77331 0.31803 0.0
H2465 H 0.97631 0.75395 0.38279 0.0
H2466 H 0.96164 0.77045 0.28105 0.0
H2467 H 0.96915 0.79902 0.29054 0.0
H2468 H 0.993 0.77862 0.28242 0.0
H2469 H 0.93403 0.7496 0.38542 0.0
H2470 H 0.92201 0.77563 0.37238 0.0
H2471 H 0.91733 0.74819 0.35855 0.0
H2472 H 0.89408 0.82633 0.31688 0.0
H2473 H 0.88111 0.75791 0.29045 0.0
H2474 H 0.95545 0.81956 0.32723 0.0
H2475 H 0.94027 0.81203 0.3545 0.0
H2476 H 0.92886 0.83575 0.33715 0.0
H2477 H 0.94015 0.73592 0.29467 0.0
H2478 H 0.90895 0.72709 0.29408 0.0
H2479 H 0.92455 0.72819 0.32161 0.0
C2480 C 0.53971 0.34357 0.93137 0.0
C2481 C 0.54132 0.3206 0.93929 0.0
C2482 C 0.52784 0.36068 0.9452 0.0
C2483 C 0.51751 0.35472 0.96759 0.0
C2484 C 0.51945 0.33171 0.97593 0.0
C2485 C 0.53127 0.31486 0.96162 0.0
C2486 C 0.52611 0.38511 0.93568 0.0
C2487 C 0.50895 0.32491 -0.00013 0.0
C2488 C 0.50741 0.40805 0.00535 0.0
C2489 C 0.48348 0.41392 0.00017 0.0
C2490 C 0.51823 0.38758 -0.00347 0.0
C2491 C 0.50475 0.37286 0.98203 0.0
C2492 C 0.47988 0.37767 0.97857 0.0
C2493 C 0.46945 0.39821 0.98786 0.0
C2494 C 0.54468 0.38292 0.00093 0.0
C2495 C 0.46494 0.36238 0.96316 0.0
H2496 H 0.54736 0.34814 0.91414 0.0
H2497 H 0.53253 0.29715 0.9679 0.0
H2498 H 0.50683 0.39052 0.93455 0.0
H2499 H 0.53478 0.39737 0.94788 0.0
H2500 H 0.53497 0.38677 0.91785 0.0
H2501 H 0.51251 0.30636 0.00399 0.0
H2502 H 0.51671 0.33577 0.0139 0.0
H2503 H 0.48908 0.32808 0.00052 0.0
H2504 H 0.51808 0.42027 0.01507 0.0
H2505 H 0.451 0.40294 0.98376 0.0
H2506 H 0.55564 0.38706 0.98472 0.0
H2507 H 0.5479 0.36435 0.00502 0.0
H2508 H 0.55126 0.39364 0.01572 0.0
H2509 H 0.47063 0.36486 0.94433 0.0
H2510 H 0.44527 0.36652 0.96515 0.0
H2511 H 0.46792 0.34382 0.96744 0.0
C2512 C 0.94847 0.27818 0.17648 0.0
C2513 C 0.96477 0.26299 0.18735 0.0
C2514 C 0.92476 0.28168 0.18592 0.0
C2515 C 0.91722 0.26985 0.20679 0.0
C2516 C 0.93368 0.25472 0.21793 0.0
C2517 C 0.95711 0.25144 0.20809 0.0
C2518 C 0.90769 0.29787 0.17346 0.0
C2519 C 0.92648 0.24181 0.24025 0.0
C2520 C 0.86309 0.29059 0.24515 0.0
C2521 C 0.84524 0.2748 0.23895 0.0
C2522 C 0.88639 0.28967 0.23433 0.0
C2523 C 0.89198 0.2726 0.2168 0.0
C2524 C 0.87384 0.25699 0.21008 0.0
C2525 C 0.85077 0.25824 0.22124 0.0
C2526 C 0.90522 0.30658 0.24208 0.0
C2527 C 0.87897 0.23859 0.19144 0.0
H2528 H 0.95417 0.2872 0.1605 0.0
H2529 H 0.9695 0.23975 0.21679 0.0
H2530 H 0.89168 0.28818 0.1677 0.0
H2531 H 0.90095 0.31167 0.18582 0.0
H2532 H 0.91643 0.30615 0.15771 0.0
H2533 H 0.94162 0.23114 0.2471 0.0
H2534 H 0.92029 0.25427 0.25426 0.0
H2535 H 0.91111 0.23024 0.23679 0.0
H2536 H 0.85897 0.30354 0.2587 0.0
H2537 H 0.83706 0.24608 0.21615 0.0
H2538 H 0.91332 0.31561 0.2265 0.0
H2539 H 0.92008 0.29704 0.25074 0.0
H2540 H 0.89757 0.3198 0.25469 0.0
H2541 H 0.88646 0.24658 0.17499 0.0
H2542 H 0.86251 0.2288 0.18709 0.0
H2543 H 0.89282 0.22613 0.19775 0.0
C2544 C 0.02484 0.67691 0.45016 0.0
C2545 C 0.04103 0.69385 0.45714 0.0
C2546 C 0.02405 0.6554 0.46154 0.0
C2547 C 0.04057 0.65053 0.47961 0.0
C2548 C 0.05703 0.66762 0.48665 0.0
C2549 C 0.05673 0.68933 0.47559 0.0
C2550 C 0.00569 0.63784 0.45412 0.0
C2551 C 0.07544 0.66268 0.50523 0.0
C2552 C 0.02413 0.60093 0.52029 0.0
C2553 C 0.03528 0.58219 0.50823 0.0
C2554 C 0.0263 0.62352 0.51157 0.0
C2555 C 0.04067 0.62738 0.49082 0.0
C2556 C 0.05341 0.60868 0.4796 0.0
C2557 C 0.05015 0.58614 0.48819 0.0
C2558 C 0.01179 0.64289 0.52353 0.0
C2559 C 0.06955 0.6123 0.45789 0.0
H2560 H 0.01271 0.68058 0.43588 0.0
H2561 H 0.06948 0.70244 0.48066 0.0
H2562 H 0.01509 0.62252 0.446 0.0
H2563 H 0.99508 0.63167 0.46983 0.0
H2564 H 0.99293 0.64507 0.44114 0.0
H2565 H 0.08686 0.67794 0.50878 0.0
H2566 H 0.06625 0.65739 0.52205 0.0
H2567 H 0.08741 0.64801 0.49934 0.0
H2568 H 0.01232 0.59774 0.53561 0.0
H2569 H 0.05874 0.57155 0.47894 0.0
H2570 H -0.0025 0.64901 0.51157 0.0
H2571 H 0.02348 0.65789 0.5271 0.0
H2572 H 0.00298 0.6373 0.54048 0.0
H2573 H 0.05827 0.61625 0.44248 0.0
H2574 H 0.08092 0.59671 0.45355 0.0
H2575 H 0.08159 0.62729 0.4605 0.0
C2576 C 0.616 0.77796 0.66747 0.0
C2577 C 0.5932 0.78418 0.67735 0.0
C2578 C 0.63667 0.77727 0.68148 0.0
C2579 C 0.63451 0.78315 0.70586 0.0
C2580 C 0.61159 0.78975 0.71579 0.0
C2581 C 0.59127 0.79009 0.70148 0.0
C2582 C 0.66078 0.77 0.67025 0.0
C2583 C 0.60848 0.79638 0.74161 0.0
C2584 C 0.68276 0.76159 0.74765 0.0
C2585 C 0.69758 0.78106 0.74942 0.0
C2586 C 0.66221 0.76202 0.73356 0.0
C2587 C 0.65617 0.78247 0.72106 0.0
C2588 C 0.67069 0.80236 0.72329 0.0
C2589 C 0.69123 0.80139 0.73734 0.0
C2590 C 0.64728 0.7404 0.73161 0.0
C2591 C 0.66475 0.8246 0.71052 0.0
H2592 H 0.61764 0.7733 0.64889 0.0
H2593 H 0.57375 0.79501 0.70929 0.0
H2594 H 0.67413 0.784 0.67233 0.0
H2595 H 0.66793 0.75444 0.67935 0.0
H2596 H 0.65947 0.76597 0.6511 0.0
H2597 H 0.5895 0.80144 0.74654 0.0
H2598 H 0.61396 0.78162 0.7529 0.0
H2599 H 0.62043 0.81108 0.74567 0.0
H2600 H 0.68764 0.74571 0.75668 0.0
H2601 H 0.7026 0.8165 0.73849 0.0
H2602 H 0.64726 0.73453 0.71289 0.0
H2603 H 0.6282 0.74421 0.73719 0.0
H2604 H 0.65423 0.72599 0.74262 0.0
H2605 H 0.66537 0.82152 0.69112 0.0
H2606 H 0.6775 0.8387 0.71455 0.0
H2607 H 0.64608 0.83054 0.71552 0.0
C2608 C 0.63523 0.45307 0.69657 0.0
C2609 C 0.651 0.47109 0.70167 0.0
C2610 C 0.62043 0.4543 0.67698 0.0
C2611 C 0.6214 0.47415 0.66236 0.0
C2612 C 0.63942 0.49099 0.66578 0.0
C2613 C 0.65417 0.48922 0.6855 0.0
C2614 C 0.60175 0.43577 0.67377 0.0
C2615 C 0.64122 0.51225 0.65035 0.0
C2616 C 0.58041 0.47706 0.60969 0.0
C2617 C 0.5602 0.48916 0.61945 0.0
C2618 C 0.6007 0.47219 0.62327 0.0
C2619 C 0.60066 0.47952 0.64716 0.0
C2620 C 0.58024 0.49156 0.65716 0.0
C2621 C 0.5603 0.49623 0.64318 0.0
C2622 C 0.62213 0.45927 0.6121 0.0
C2623 C 0.57945 0.49964 0.68266 0.0
H2624 H 0.633 0.43893 0.70903 0.0
H2625 H 0.66638 0.50318 0.68945 0.0
H2626 H 0.58389 0.44225 0.68074 0.0
H2627 H 0.59985 0.43153 0.65478 0.0
H2628 H 0.60641 0.41962 0.68341 0.0
H2629 H 0.6589 0.52096 0.65207 0.0
H2630 H 0.63883 0.50775 0.63147 0.0
H2631 H 0.6266 0.52477 0.65571 0.0
H2632 H 0.58034 0.47134 0.59142 0.0
H2633 H 0.54501 0.50594 0.65074 0.0
H2634 H 0.62535 0.44284 0.62175 0.0
H2635 H 0.63872 0.46975 0.61345 0.0
H2636 H 0.61946 0.45513 0.59315 0.0
H2637 H 0.5814 0.48455 0.69462 0.0
H2638 H 0.56229 0.50898 0.6876 0.0
H2639 H 0.59479 0.51137 0.68579 0.0
C2640 C 0.77188 0.34245 0.98447 0.0
C2641 C 0.753 0.3559 0.97526 0.0
C2642 C 0.78617 0.32774 0.9698 0.0
C2643 C 0.78113 0.32615 0.9455 0.0
C2644 C 0.76067 0.33794 0.9366 0.0
C2645 C 0.74697 0.3529 0.95156 0.0
C2646 C 0.80793 0.31566 0.97993 0.0
C2647 C 0.7543 0.33608 0.91086 0.0
C2648 C 0.83091 0.31894 0.89861 0.0
C2649 C 0.82771 0.29602 0.89138 0.0
C2650 C 0.81684 0.32851 0.91731 0.0
C2651 C 0.79885 0.31485 0.92872 0.0
C2652 C 0.79658 0.29122 0.92246 0.0
C2653 C 0.81122 0.282 0.90386 0.0
C2654 C 0.8201 0.35371 0.92372 0.0
C2655 C 0.77775 0.27614 0.93443 0.0
H2656 H 0.77668 0.34464 0.00278 0.0
H2657 H 0.73223 0.36303 0.94442 0.0
H2658 H 0.81002 0.29771 0.97299 0.0
H2659 H 0.82452 0.32519 0.97457 0.0
H2660 H 0.80672 0.31504 -0.00041 0.0
H2661 H 0.73616 0.34373 0.9075 0.0
H2662 H 0.76797 0.34532 0.89975 0.0
H2663 H 0.75458 0.31767 0.90507 0.0
H2664 H 0.84351 0.32969 0.88864 0.0
H2665 H 0.8085 0.26438 0.89787 0.0
H2666 H 0.82144 0.35574 0.94316 0.0
H2667 H 0.80409 0.36397 0.91824 0.0
H2668 H 0.83653 0.3611 0.91496 0.0
H2669 H 0.78103 0.27506 0.95365 0.0
H2670 H 0.77782 0.25828 0.92698 0.0
H2671 H 0.75945 0.28399 0.93256 0.0
C2672 C 0.912 0.56049 0.16213 0.0
C2673 C 0.90513 0.54065 0.17462 0.0
C2674 C 0.92021 0.55884 0.13855 0.0
C2675 C 0.92241 0.53667 0.12784 0.0
C2676 C 0.91288 0.51698 0.13959 0.0
C2677 C 0.90405 0.51927 0.16302 0.0
C2678 C 0.92944 0.58035 0.12629 0.0
C2679 C 0.915 0.49305 0.12876 0.0
C2680 C 0.95026 0.53199 0.06583 0.0
C2681 C 0.97489 0.5297 0.07086 0.0
C2682 C 0.93268 0.53421 0.08418 0.0
C2683 C 0.94004 0.53347 0.10789 0.0
C2684 C 0.96487 0.5307 0.11297 0.0
C2685 C 0.98201 0.52912 0.09436 0.0
C2686 C 0.90641 0.53753 0.07823 0.0
C2687 C 0.97345 0.52955 0.13811 0.0
H2688 H 0.91243 0.57705 0.17126 0.0
H2689 H 0.89864 0.50401 0.17291 0.0
H2690 H 0.94943 0.58096 0.12756 0.0
H2691 H 0.92518 0.58017 0.10723 0.0
H2692 H 0.92157 0.59638 0.13456 0.0
H2693 H 0.90217 0.48084 0.13748 0.0
H2694 H 0.91161 0.4935 0.10954 0.0
H2695 H 0.93368 0.48623 0.13093 0.0
H2696 H 0.94478 0.53234 0.04757 0.0
H2697 H 0.00101 0.52702 0.09824 0.0
H2698 H 0.89876 0.55325 0.08723 0.0
H2699 H 0.89577 0.52255 0.08476 0.0
H2700 H 0.90395 0.53924 0.05887 0.0
H2701 H 0.96949 0.54629 0.14728 0.0
H2702 H 0.99321 0.5259 0.13886 0.0
H2703 H 0.96368 0.51582 0.14808 0.0
C2704 C 0.76052 0.72165 0.4558 0.0
C2705 C 0.76693 0.698 0.4563 0.0
C2706 C 0.76197 0.73441 0.43456 0.0
C2707 C 0.77003 0.72331 0.41324 0.0
C2708 C 0.77695 0.69956 0.41376 0.0
C2709 C 0.77531 0.68724 0.4352 0.0
C2710 C 0.75443 0.75968 0.43484 0.0
C2711 C 0.78566 0.68699 0.39152 0.0
C2712 C 0.75038 0.74693 0.35375 0.0
C2713 C 0.7713 0.7582 0.34527 0.0
C2714 C 0.74961 0.73596 0.37596 0.0
C2715 C 0.77026 0.73614 0.3902 0.0
C2716 C 0.7913 0.74782 0.38195 0.0
C2717 C 0.79157 0.7587 0.35963 0.0
C2718 C 0.72678 0.72376 0.38398 0.0
C2719 C 0.81372 0.74844 0.39651 0.0
H2720 H 0.75403 0.73015 0.47197 0.0
H2721 H 0.78035 0.669 0.43533 0.0
H2722 H 0.76926 0.77042 0.42729 0.0
H2723 H 0.73853 0.76226 0.42358 0.0
H2724 H 0.74963 0.76605 0.45299 0.0
H2725 H 0.79128 0.66877 0.39502 0.0
H2726 H 0.77102 0.68687 0.37852 0.0
H2727 H 0.80122 0.69618 0.38317 0.0
H2728 H 0.73458 0.74641 0.34287 0.0
H2729 H 0.80784 0.76729 0.35328 0.0
H2730 H 0.72034 0.73054 0.40151 0.0
H2731 H 0.73063 0.70495 0.3861 0.0
H2732 H 0.71199 0.72592 0.37127 0.0
H2733 H 0.80919 0.75561 0.41438 0.0
H2734 H 0.82824 0.75906 0.38811 0.0
H2735 H 0.82085 0.73055 0.39895 0.0
C2736 C 0.60125 0.47727 0.84652 0.0
C2737 C 0.59243 0.47633 0.82359 0.0
C2738 C 0.58524 0.4768 0.86629 0.0
C2739 C 0.56003 0.47512 0.86286 0.0
C2740 C 0.55143 0.47146 0.8399 0.0
C2741 C 0.56773 0.47236 0.82046 0.0
C2742 C 0.59506 0.48033 0.89065 0.0
C2743 C 0.52478 0.46867 0.83568 0.0
C2744 C 0.51943 0.47365 0.91839 0.0
C2745 C 0.51432 0.49738 0.92158 0.0
C2746 C 0.53348 0.46577 0.89874 0.0
C2747 C 0.54271 0.4821 0.88223 0.0
C2748 C 0.53636 0.50588 0.88472 0.0
C2749 C 0.52213 0.51317 0.90428 0.0
C2750 C 0.53941 0.44022 0.89654 0.0
C2751 C 0.54562 0.52388 0.86739 0.0
H2752 H 0.62038 0.48005 0.84898 0.0
H2753 H 0.56095 0.47099 0.80272 0.0
H2754 H 0.59017 0.49805 0.89706 0.0
H2755 H 0.58689 0.46782 0.90335 0.0
H2756 H 0.61509 0.47827 0.89067 0.0
H2757 H 0.52158 0.46179 0.81768 0.0
H2758 H 0.51646 0.45684 0.84899 0.0
H2759 H 0.51543 0.48577 0.83756 0.0
H2760 H 0.51348 0.46136 0.93177 0.0
H2761 H 0.51803 0.53151 0.90654 0.0
H2762 H 0.55672 0.43652 0.90531 0.0
H2763 H 0.54152 0.43465 0.87776 0.0
H2764 H 0.52513 0.42964 0.90538 0.0
H2765 H 0.5657 0.52429 0.8675 0.0
H2766 H 0.53846 0.54157 0.87163 0.0
H2767 H 0.54045 0.51934 0.84916 0.0
C2768 C 0.72457 0.37059 0.12205 0.0
C2769 C 0.74303 0.38384 0.11158 0.0
C2770 C 0.72728 0.36064 0.14439 0.0
C2771 C 0.74934 0.36337 0.1561 0.0
C2772 C 0.76769 0.3775 0.14599 0.0
C2773 C 0.76415 0.38791 0.12391 0.0
C2774 C 0.70702 0.34624 0.1549 0.0
C2775 C 0.79169 0.38033 0.15766 0.0
C2776 C 0.75338 0.34352 0.21997 0.0
C2777 C 0.76162 0.3206 0.21678 0.0
C2778 C 0.74923 0.35781 0.20037 0.0
C2779 C 0.75422 0.34907 0.17724 0.0
C2780 C 0.76315 0.3261 0.17406 0.0
C2781 C 0.76638 0.31205 0.19386 0.0
C2782 C 0.73907 0.382 0.20434 0.0
C2783 C 0.76926 0.3163 0.14972 0.0
H2784 H 0.70811 0.36772 0.11257 0.0
H2785 H 0.77843 0.39813 0.11571 0.0
H2786 H 0.7123 0.32761 0.15413 0.0
H2787 H 0.70355 0.35084 0.1738 0.0
H2788 H 0.68993 0.34858 0.14528 0.0
H2789 H 0.80299 0.39377 0.14885 0.0
H2790 H 0.78889 0.38504 0.1766 0.0
H2791 H 0.80184 0.36358 0.15694 0.0
H2792 H 0.74972 0.3501 0.23775 0.0
H2793 H 0.77314 0.29442 0.19141 0.0
H2794 H 0.7213 0.38369 0.19584 0.0
H2795 H 0.75125 0.39493 0.19594 0.0
H2796 H 0.73659 0.3863 0.22345 0.0
H2797 H 0.75261 0.31534 0.13932 0.0
H2798 H 0.77757 0.29867 0.15046 0.0
H2799 H 0.782 0.32788 0.14002 0.0
C2800 C 0.99277 0.54798 0.30207 0.0
C2801 C 0.96807 0.55349 0.30039 0.0
C2802 C 0.00321 0.54549 0.32422 0.0
C2803 C 0.98845 0.54832 0.34498 0.0
C2804 C 0.96431 0.55655 0.34335 0.0
C2805 C 0.95445 0.55924 0.321 0.0
C2806 C 0.02927 0.53747 0.32531 0.0
C2807 C 0.94798 0.55986 0.36509 0.0
C2808 C -0.00247 0.50541 0.39437 0.0
C2809 C 0.00741 0.51933 0.4118 0.0
C2810 C 0.9918 0.51463 0.37236 0.0
C2811 C -0.00359 0.53831 0.36759 0.0
C2812 C 0.00725 0.55228 0.3848 0.0
C2813 C 0.01244 0.54263 0.40686 0.0
C2814 C 0.98002 0.49918 0.35452 0.0
C2815 C 0.01284 0.57744 0.38015 0.0
H2816 H 0.00357 0.544 0.28618 0.0
H2817 H 0.93543 0.56387 0.31986 0.0
H2818 H 0.03845 0.54607 0.34007 0.0
H2819 H 0.02989 0.5185 0.32855 0.0
H2820 H 0.03951 0.54098 0.30849 0.0
H2821 H 0.93125 0.56985 0.36114 0.0
H2822 H 0.94263 0.54262 0.37204 0.0
H2823 H 0.95753 0.56895 0.37929 0.0
H2824 H 0.99342 0.48749 0.39831 0.0
H2825 H 0.0204 0.5533 0.4203 0.0
H2826 H 0.99092 0.49879 0.33769 0.0
H2827 H 0.96179 0.50621 0.35052 0.0
H2828 H 0.978 0.48109 0.36094 0.0
H2829 H 0.0227 0.57932 0.36286 0.0
H2830 H 0.02386 0.58508 0.39423 0.0
H2831 H 0.9957 0.5876 0.37919 0.0
C2832 C 0.74162 0.67926 0.62076 0.0
C2833 C 0.75958 0.67988 0.60268 0.0
C2834 C 0.74432 0.69118 0.64225 0.0
C2835 C 0.76597 0.7033 0.64619 0.0
C2836 C 0.78426 0.70388 0.62799 0.0
C2837 C 0.78066 0.69251 0.60628 0.0
C2838 C 0.72394 0.69082 0.66071 0.0
C2839 C 0.80788 0.71602 0.63168 0.0
C2840 C 0.76472 0.75055 0.69354 0.0
C2841 C 0.77259 0.7385 0.7135 0.0
C2842 C 0.76254 0.73935 0.67161 0.0
C2843 C 0.7692 0.71563 0.66924 0.0
C2844 C 0.77791 0.70352 0.68917 0.0
C2845 C 0.77904 0.71498 0.71119 0.0
C2846 C 0.75223 0.75273 0.65122 0.0
C2847 C 0.7858 0.6784 0.68729 0.0
H2848 H 0.72528 0.66953 0.618 0.0
H2849 H 0.79473 0.69273 0.59246 0.0
H2850 H 0.73012 0.68213 0.67697 0.0
H2851 H 0.71845 0.70882 0.6657 0.0
H2852 H 0.7078 0.68163 0.65442 0.0
H2853 H 0.82053 0.71438 0.61606 0.0
H2854 H 0.80446 0.73471 0.63536 0.0
H2855 H 0.81681 0.70863 0.64735 0.0
H2856 H 0.75928 0.76864 0.6953 0.0
H2857 H 0.78507 0.70559 0.72656 0.0
H2858 H 0.73529 0.74449 0.64563 0.0
H2859 H 0.76512 0.75228 0.63577 0.0
H2860 H 0.74814 0.77113 0.65589 0.0
H2861 H 0.76996 0.66746 0.68375 0.0
H2862 H 0.79422 0.67211 0.70371 0.0
H2863 H 0.79899 0.67599 0.67222 0.0
C2864 C 0.66592 0.62916 0.52548 0.0
C2865 C 0.68849 0.61876 0.51986 0.0
C2866 C 0.64468 0.61593 0.52648 0.0
C2867 C 0.64605 0.59179 0.52159 0.0
C2868 C 0.66878 0.58127 0.51583 0.0
C2869 C 0.68968 0.59485 0.51508 0.0
C2870 C 0.62076 0.62776 0.53278 0.0
C2871 C 0.67103 0.55565 0.51035 0.0
C2872 C 0.59413 0.55348 0.5429 0.0
C2873 C 0.58057 0.55162 0.52241 0.0
C2874 C 0.61555 0.56639 0.54288 0.0
C2875 C 0.62367 0.57761 0.52186 0.0
C2876 C 0.61042 0.57522 0.50098 0.0
C2877 C 0.58906 0.56232 0.50152 0.0
C2878 C 0.62918 0.56849 0.56551 0.0
C2879 C 0.61857 0.58669 0.47814 0.0
H2880 H 0.66487 0.64759 0.52928 0.0
H2881 H 0.70703 0.58664 0.51069 0.0
H2882 H 0.60816 0.62577 0.51803 0.0
H2883 H 0.61224 0.61944 0.54858 0.0
H2884 H 0.62279 0.64655 0.53651 0.0
H2885 H 0.69008 0.55008 0.50643 0.0
H2886 H 0.66384 0.54542 0.52554 0.0
H2887 H 0.66005 0.55138 0.49486 0.0
H2888 H 0.58764 0.54541 0.55916 0.0
H2889 H 0.57871 0.56103 0.4856 0.0
H2890 H 0.62957 0.58694 0.57111 0.0
H2891 H 0.64825 0.56259 0.56254 0.0
H2892 H 0.62089 0.55817 0.58015 0.0
H2893 H 0.61884 0.60578 0.4806 0.0
H2894 H 0.60657 0.58266 0.46331 0.0
H2895 H 0.6373 0.58097 0.4731 0.0
C2896 C 0.16184 0.94525 0.54509 0.0
C2897 C 0.16899 0.92597 0.55812 0.0
C2898 C 0.13815 0.95399 0.54733 0.0
C2899 C 0.12165 0.94371 0.56381 0.0
C2900 C 0.1291 0.92458 0.57756 0.0
C2901 C 0.15269 0.91556 0.57414 0.0
C2902 C 0.13071 0.97401 0.5318 0.0
C2903 C 0.11231 0.9139 0.59596 0.0
C2904 C 0.07158 0.98727 0.5744 0.0
C2905 C 0.05525 0.98005 0.55754 0.0
C2906 C 0.09207 0.97371 0.57918 0.0
C2907 C 0.09662 0.95311 0.56599 0.0
C2908 C 0.0788 0.94457 0.55088 0.0
C2909 C 0.05801 0.95805 0.54716 0.0
C2910 C 0.11011 0.98278 0.59631 0.0
C2911 C 0.08307 0.92293 0.53611 0.0
H2912 H 0.17464 0.95306 0.53262 0.0
H2913 H 0.15856 0.90068 0.58428 0.0
H2914 H 0.11447 0.96939 0.52182 0.0
H2915 H 0.12584 0.98938 0.5429 0.0
H2916 H 0.14534 0.97897 0.51892 0.0
H2917 H 0.12104 0.89926 0.60535 0.0
H2918 H 0.10639 0.92726 0.60917 0.0
H2919 H 0.09577 0.9075 0.5876 0.0
H2920 H 0.0692 0.0042 0.58264 0.0
H2921 H 0.04535 0.95247 0.53408 0.0
H2922 H 0.12485 0.99173 0.58633 0.0
H2923 H 0.11841 0.96839 0.60637 0.0
H2924 H 0.10152 0.9954 0.60901 0.0
H2925 H 0.09539 0.92705 0.52084 0.0
H2926 H 0.06591 0.91625 0.52912 0.0
H2927 H 0.09185 0.90901 0.5464 0.0
C2928 C 0.34723 0.97854 0.77878 0.0
C2929 C 0.37017 0.97168 0.76965 0.0
C2930 C 0.33053 0.96206 0.78684 0.0
C2931 C 0.33706 0.93828 0.78584 0.0
C2932 C 0.36044 0.93131 0.77736 0.0
C2933 C 0.3767 0.94811 0.76929 0.0
C2934 C 0.30568 0.97001 0.79569 0.0
C2935 C 0.36806 0.90603 0.77623 0.0
C2936 C 0.304 0.89199 0.82056 0.0
C2937 C 0.29147 0.88111 0.80255 0.0
C2938 C 0.31799 0.91158 0.81571 0.0
C2939 C 0.31917 0.92042 0.79238 0.0
C2940 C 0.30514 0.91048 0.77458 0.0
C2941 C 0.29149 0.89084 0.7799 0.0
C2942 C 0.33278 0.92177 0.8351 0.0
C2943 C 0.30572 0.91965 0.74956 0.0
H2944 H 0.34206 -0.00326 0.77911 0.0
H2945 H 0.39446 0.94273 0.76244 0.0
H2946 H 0.29181 0.96364 0.78357 0.0
H2947 H 0.30147 0.96259 0.81341 0.0
H2948 H 0.30405 0.98921 0.79687 0.0
H2949 H 0.38733 0.90364 0.77038 0.0
H2950 H 0.36539 0.89787 0.79386 0.0
H2951 H 0.3566 0.89663 0.76371 0.0
H2952 H 0.30409 0.88433 0.83804 0.0
H2953 H 0.28143 0.88254 0.76613 0.0
H2954 H 0.33086 0.94094 0.83549 0.0
H2955 H 0.35223 0.91755 0.83155 0.0
H2956 H 0.32743 0.91487 0.85282 0.0
H2957 H 0.30288 0.93874 0.74958 0.0
H2958 H 0.29174 0.91161 0.73859 0.0
H2959 H 0.32378 0.916 0.74108 0.0
C2960 C 0.32895 0.08079 0.04606 0.0
C2961 C 0.3223 0.10223 0.0363 0.0
C2962 C 0.35197 0.07092 0.04149 0.0
C2963 C 0.36897 0.08281 0.02691 0.0
C2964 C 0.36231 0.10426 0.01662 0.0
C2965 C 0.33902 0.1137 0.02138 0.0
C2966 C 0.35829 0.04798 0.05277 0.0
C2967 C 0.38 0.11749 0.00108 0.0
C2968 C 0.43413 0.068 0.04024 0.0
C2969 C 0.44029 0.0515 0.02266 0.0
C2970 C 0.41138 0.07908 0.0411 0.0
C2971 C 0.39418 0.07345 0.02406 0.0
C2972 C 0.40053 0.05743 0.00573 0.0
C2973 C 0.4236 0.04669 0.00518 0.0
C2974 C 0.40546 0.09617 0.06085 0.0
C2975 C 0.38265 0.05096 0.98727 0.0
H2976 H 0.31615 0.07163 0.05743 0.0
H2977 H 0.33404 0.13023 0.01369 0.0
H2978 H 0.36503 0.03545 0.03906 0.0
H2979 H 0.37303 0.05041 0.06538 0.0
H2980 H 0.34256 0.04028 0.06248 0.0
H2981 H 0.37154 0.1331 0.99312 0.0
H2982 H 0.39547 0.12308 0.01167 0.0
H2983 H 0.38747 0.10615 0.98664 0.0
H2984 H 0.44702 0.07209 0.05366 0.0
H2985 H 0.42827 0.03403 0.9915 0.0
H2986 H 0.3911 0.08904 0.07281 0.0
H2987 H 0.39835 0.11266 0.05354 0.0
H2988 H 0.42147 0.10006 0.07151 0.0
H2989 H 0.36749 0.04128 -0.00424 0.0
H2990 H 0.39107 0.03999 0.97296 0.0
H2991 H 0.37476 0.06678 0.97926 0.0
C2992 C 0.69049 0.56819 0.78882 0.0
C2993 C 0.66777 0.56574 0.77873 0.0
C2994 C 0.69986 0.59011 0.79347 0.0
C2995 C 0.68607 0.61017 0.78816 0.0
C2996 C 0.66294 0.60792 0.77833 0.0
C2997 C 0.6541 0.58568 0.77357 0.0
C2998 C 0.72473 0.59178 0.80369 0.0
C2999 C 0.64767 0.62898 0.77269 0.0
C3000 C 0.70566 0.66511 0.81895 0.0
C3001 C 0.72006 0.67545 0.80117 0.0
C3002 C 0.69365 0.64428 0.81469 0.0
C3003 C 0.69644 0.63343 0.79222 0.0
C3004 C 0.71071 0.64397 0.77412 0.0
C3005 C 0.72225 0.6649 0.7788 0.0
C3006 C 0.67835 0.63366 0.83433 0.0
C3007 C 0.71445 0.63278 0.75005 0.0
H3008 H 0.70126 0.55291 0.79279 0.0
H3009 H 0.63649 0.58393 0.76588 0.0
H3010 H 0.73693 0.60139 0.79133 0.0
H3011 H 0.72366 0.60162 0.8206 0.0
H3012 H 0.733 0.57447 0.80704 0.0
H3013 H 0.62966 0.62426 0.76608 0.0
H3014 H 0.64496 0.64 0.78872 0.0
H3015 H 0.65717 0.63962 0.75906 0.0
H3016 H 0.70367 0.67342 0.83613 0.0
H3017 H 0.7336 0.67271 0.7651 0.0
H3018 H 0.68658 0.6169 0.83973 0.0
H3019 H 0.65999 0.62993 0.82802 0.0
H3020 H 0.67656 0.64513 0.85015 0.0
H3021 H 0.72421 0.61595 0.75187 0.0
H3022 H 0.72504 0.64384 0.73754 0.0
H3023 H 0.69673 0.62907 0.74226 0.0
C3024 C 0.81049 0.4676 0.99323 0.0
C3025 C 0.80478 0.44752 0.00605 0.0
C3026 C 0.83461 0.4739 0.98896 0.0
C3027 C 0.85342 0.45954 -0.00263 0.0
C3028 C 0.8478 0.43929 0.01041 0.0
C3029 C 0.82347 0.43362 0.0148 0.0
C3030 C 0.83997 0.4959 0.97543 0.0
C3031 C 0.86747 0.42351 0.01947 0.0
C3032 C 0.91558 0.46612 0.96781 0.0
C3033 C 0.9271 0.47977 0.98445 0.0
C3034 C 0.89163 0.45899 0.97196 0.0
C3035 C 0.87899 0.4661 0.99303 0.0
C3036 C 0.89055 0.48002 0.00979 0.0
C3037 C 0.91449 0.48664 0.0053 0.0
C3038 C 0.87986 0.44388 0.95388 0.0
C3039 C 0.87753 0.4883 0.03225 0.0
H3040 H 0.79606 0.47842 0.98652 0.0
H3041 H 0.81911 0.41795 0.02451 0.0
H3042 H 0.85085 0.50766 0.98631 0.0
H3043 H 0.85089 0.49178 0.9591 0.0
H3044 H 0.82322 0.50529 0.97039 0.0
H3045 H 0.86003 0.40818 0.02892 0.0
H3046 H 0.87938 0.41736 0.00448 0.0
H3047 H 0.87897 0.4332 0.03172 0.0
H3048 H 0.92545 0.46081 0.95178 0.0
H3049 H 0.92324 0.49764 0.01793 0.0
H3050 H 0.86379 0.45297 0.94686 0.0
H3051 H 0.8734 0.42766 0.96234 0.0
H3052 H 0.89244 0.43926 0.93881 0.0
H3053 H 0.86208 0.4998 0.02775 0.0
H3054 H 0.88961 0.49799 0.044 0.0
H3055 H 0.87 0.47338 0.04223 0.0
C3056 C 0.37317 0.12728 0.73869 0.0
C3057 C 0.36715 0.10976 0.75487 0.0
C3058 C 0.36096 0.14871 0.7395 0.0
C3059 C 0.34287 0.15281 0.75736 0.0
C3060 C 0.33676 0.13518 0.77378 0.0
C3061 C 0.34879 0.11367 0.77212 0.0
C3062 C 0.36749 0.16697 0.72137 0.0
C3063 C 0.31802 0.13926 0.79347 0.0
C3064 C 0.33155 0.21495 0.7761 0.0
C3065 C 0.30913 0.21976 0.76612 0.0
C3066 C 0.34268 0.19318 0.77339 0.0
C3067 C 0.33141 0.17604 0.75979 0.0
C3068 C 0.30915 0.18099 0.74899 0.0
C3069 C 0.29804 0.2028 0.75259 0.0
C3070 C 0.36618 0.18837 0.78559 0.0
C3071 C 0.29703 0.16322 0.73386 0.0
H3072 H 0.38716 0.12408 0.72513 0.0
H3073 H 0.3442 0.10006 0.78462 0.0
H3074 H 0.35097 0.17329 0.71261 0.0
H3075 H 0.37553 0.18209 0.73023 0.0
H3076 H 0.38063 0.16036 0.70757 0.0
H3077 H 0.31515 0.1236 0.80456 0.0
H3078 H 0.3238 0.15365 0.80501 0.0
H3079 H 0.30047 0.14456 0.78602 0.0
H3080 H 0.34006 0.22799 0.78679 0.0
H3081 H 0.28073 0.20658 0.74482 0.0
H3082 H 0.38077 0.18413 0.77226 0.0
H3083 H 0.36421 0.17311 0.79738 0.0
H3084 H 0.37198 0.20336 0.79632 0.0
H3085 H 0.30983 0.15693 0.71964 0.0
H3086 H 0.28051 0.1703 0.72561 0.0
H3087 H 0.29189 0.148 0.74477 0.0
C3088 C 0.20222 0.92097 0.29888 0.0
C3089 C 0.20753 0.94011 0.28455 0.0
C3090 C 0.21648 0.90076 0.29732 0.0
C3091 C 0.23625 0.89964 0.28076 0.0
C3092 C 0.24213 0.91913 0.2667 0.0
C3093 C 0.22774 0.93929 0.2689 0.0
C3094 C 0.21002 0.88041 0.31298 0.0
C3095 C 0.26298 0.91839 0.24875 0.0
C3096 C 0.28046 0.85114 0.29293 0.0
C3097 C 0.2711 0.83309 0.27941 0.0
C3098 C 0.27016 0.87341 0.29251 0.0
C3099 C 0.25026 0.87772 0.27799 0.0
C3100 C 0.24196 0.86008 0.26289 0.0
C3101 C 0.25243 0.83785 0.26387 0.0
C3102 C 0.27942 0.8918 0.30889 0.0
C3103 C 0.22098 0.86426 0.24688 0.0
H3104 H 0.18668 0.92166 0.31108 0.0
H3105 H 0.23175 0.95406 0.25768 0.0
H3106 H 0.20486 0.86546 0.30192 0.0
H3107 H 0.22595 0.87489 0.32316 0.0
H3108 H 0.19477 0.88454 0.32567 0.0
H3109 H 0.26614 0.93554 0.24037 0.0
H3110 H 0.27986 0.91257 0.25719 0.0
H3111 H 0.25917 0.90562 0.23466 0.0
H3112 H 0.29505 0.84764 0.30486 0.0
H3113 H 0.24529 0.824 0.25324 0.0
H3114 H 0.26556 0.89557 0.32308 0.0
H3115 H 0.28264 0.9082 0.29915 0.0
H3116 H 0.2965 0.88634 0.31729 0.0
H3117 H 0.20397 0.86608 0.25776 0.0
H3118 H 0.21886 0.84982 0.23409 0.0
H3119 H 0.22342 0.88064 0.23689 0.0
C3120 C 0.51251 0.35725 0.45647 0.0
C3121 C 0.53158 0.35291 0.43998 0.0
C3122 C 0.51101 0.37834 0.46938 0.0
C3123 C 0.52929 0.39526 0.46613 0.0
C3124 C 0.54925 0.39024 0.4505 0.0
C3125 C 0.54997 0.36939 0.43747 0.0
C3126 C 0.48921 0.38303 0.48553 0.0
C3127 C 0.56947 0.40734 0.44676 0.0
C3128 C 0.5151 0.4599 0.47504 0.0
C3129 C 0.52427 0.46439 0.49748 0.0
C3130 C 0.51602 0.43747 0.46505 0.0
C3131 C 0.52682 0.41888 0.4775 0.0
C3132 C 0.53625 0.42329 0.50013 0.0
C3133 C 0.53463 0.44587 0.50994 0.0
C3134 C 0.5054 0.43369 0.44107 0.0
C3135 C 0.54837 0.40422 0.51384 0.0
H3136 H 0.49809 0.34476 0.45832 0.0
H3137 H 0.56483 0.36615 0.42483 0.0
H3138 H 0.49495 0.38865 0.50325 0.0
H3139 H 0.4782 0.39739 0.47818 0.0
H3140 H 0.47758 0.36755 0.48764 0.0
H3141 H 0.58486 0.3999 0.43595 0.0
H3142 H 0.56252 0.42296 0.43762 0.0
H3143 H 0.5763 0.41309 0.46404 0.0
H3144 H 0.50676 0.47393 0.46533 0.0
H3145 H 0.54172 0.44907 0.52729 0.0
H3146 H 0.49193 0.4196 0.44207 0.0
H3147 H 0.51989 0.42817 0.42813 0.0
H3148 H 0.49644 0.44959 0.43426 0.0
H3149 H 0.53575 0.38961 0.51667 0.0
H3150 H 0.55444 0.41028 0.53134 0.0
H3151 H 0.56433 0.39733 0.50351 0.0
C3152 C 0.42504 0.76516 0.16145 0.0
C3153 C 0.44116 0.74658 0.1651 0.0
C3154 C 0.40354 0.76748 0.17513 0.0
C3155 C 0.39808 0.75075 0.19268 0.0
C3156 C 0.41309 0.73084 0.19487 0.0
C3157 C 0.43451 0.72899 0.18103 0.0
C3158 C 0.38778 0.78883 0.17215 0.0
C3159 C 0.40758 0.71243 0.21315 0.0
C3160 C 0.36624 0.77126 0.24935 0.0
C3161 C 0.34268 0.76343 0.2463 0.0
C3162 C 0.38432 0.76752 0.23178 0.0
C3163 C 0.37868 0.75555 0.21077 0.0
C3164 C 0.35486 0.74781 0.20745 0.0
C3165 C 0.3371 0.75191 0.22526 0.0
C3166 C 0.40958 0.7761 0.23585 0.0
C3167 C 0.34826 0.73489 0.18532 0.0
H3168 H 0.42992 0.77872 0.149 0.0
H3169 H 0.44669 0.71439 0.18369 0.0
H3170 H 0.36838 0.78416 0.172 0.0
H3171 H 0.3901 0.80073 0.18736 0.0
H3172 H 0.39251 0.7983 0.15558 0.0
H3173 H 0.41904 0.69661 0.21032 0.0
H3174 H 0.41092 0.71941 0.23107 0.0
H3175 H 0.38826 0.70748 0.21286 0.0
H3176 H 0.37061 0.78019 0.26555 0.0
H3177 H 0.3189 0.74573 0.22282 0.0
H3178 H 0.41541 0.78777 0.22124 0.0
H3179 H 0.42253 0.76121 0.23591 0.0
H3180 H 0.41079 0.78563 0.25289 0.0
H3181 H 0.32867 0.73077 0.18516 0.0
H3182 H 0.35885 0.71842 0.18389 0.0
H3183 H 0.35297 0.7453 0.16939 0.0
C3184 C 0.01755 0.67785 0.9267 0.0
C3185 C 0.01228 0.69787 0.94029 0.0
C3186 C 0.01825 0.65565 0.93705 0.0
C3187 C 0.01303 0.65309 0.96162 0.0
C3188 C 0.00734 0.67319 0.97541 0.0
C3189 C 0.00729 0.69531 0.96466 0.0
C3190 C 0.0251 0.63493 0.92171 0.0
C3191 C 0.00131 0.67133 0.00156 0.0
C3192 C 0.99524 0.59226 0.98261 0.0
C3193 C 0.01662 0.58416 0.99275 0.0
C3194 C 0.99359 0.61482 0.97307 0.0
C3195 C 0.01407 0.62945 0.97285 0.0
C3196 C 0.03581 0.62114 0.98273 0.0
C3197 C 0.03666 0.59888 0.99295 0.0
C3198 C 0.96991 0.62301 0.9632 0.0
C3199 C 0.05837 0.63561 0.98224 0.0
H3200 H 0.02165 0.67956 0.90791 0.0
H3201 H 0.00317 0.7106 0.97534 0.0
H3202 H 0.0414 0.62614 0.92863 0.0
H3203 H 0.01027 0.62215 0.92224 0.0
H3204 H 0.02894 0.6398 0.90297 0.0
H3205 H 0.99598 0.68833 0.00959 0.0
H3206 H 0.98628 0.659 0.00458 0.0
H3207 H 0.0172 0.66436 0.01087 0.0
H3208 H 0.97965 0.58105 0.98246 0.0
H3209 H 0.05334 0.59272 0.00054 0.0
H3210 H 0.9723 0.62645 0.94398 0.0
H3211 H 0.96402 0.63957 0.97182 0.0
H3212 H 0.95532 0.61012 0.96583 0.0
H3213 H 0.06218 0.64235 0.96415 0.0
H3214 H 0.07448 0.62559 0.98791 0.0
H3215 H 0.05563 0.6508 0.99418 0.0
C3216 C 0.1067 0.31662 0.66949 0.0
C3217 C 0.08217 0.31678 0.67661 0.0
C3218 C 0.12461 0.31143 0.68576 0.0
C3219 C 0.11766 0.30641 0.70952 0.0
C3220 C 0.09318 0.30893 0.71724 0.0
C3221 C 0.0757 0.31417 0.70065 0.0
C3222 C 0.1507 0.30934 0.67705 0.0
C3223 C 0.08512 0.30399 0.74249 0.0
C3224 C 0.15668 0.26142 0.73932 0.0
C3225 C 0.17133 0.27538 0.75299 0.0
C3226 C 0.13868 0.27135 0.72549 0.0
C3227 C 0.13541 0.29578 0.72541 0.0
C3228 C 0.14944 0.30988 0.73996 0.0
C3229 C 0.16713 0.29947 0.75374 0.0
C3230 C 0.1238 0.25577 0.71028 0.0
C3231 C 0.14627 0.33594 0.74044 0.0
H3232 H 0.11178 0.3188 0.65095 0.0
H3233 H 0.05673 0.31461 0.70625 0.0
H3234 H 0.16281 0.31817 0.6894 0.0
H3235 H 0.1562 0.29076 0.67636 0.0
H3236 H 0.1535 0.31684 0.6591 0.0
H3237 H 0.06634 0.31035 0.74646 0.0
H3238 H 0.08574 0.28498 0.74554 0.0
H3239 H 0.09742 0.31209 0.75515 0.0
H3240 H 0.16 0.24287 0.73862 0.0
H3241 H 0.1781 0.31025 0.76475 0.0
H3242 H 0.12736 0.25981 0.69131 0.0
H3243 H 0.1042 0.25892 0.71412 0.0
H3244 H 0.12792 0.23709 0.71314 0.0
H3245 H 0.14963 0.34307 0.72244 0.0
H3246 H 0.15874 0.3444 0.75274 0.0
H3247 H 0.12736 0.34067 0.74588 0.0
C3248 C 0.53176 0.68903 0.07693 0.0
C3249 C 0.52745 0.71282 0.07381 0.0
C3250 C 0.53177 0.67368 0.0577 0.0
C3251 C 0.52772 0.6824 0.03474 0.0
C3252 C 0.52452 0.7065 0.03126 0.0
C3253 C 0.52425 0.72146 0.0509 0.0
C3254 C 0.53515 0.648 0.06211 0.0
C3255 C 0.52055 0.71639 0.00696 0.0
C3256 C 0.5437 0.63828 0.98698 0.0
C3257 C 0.52128 0.62758 0.98436 0.0
C3258 C 0.54584 0.65746 0.00206 0.0
C3259 C 0.52511 0.66589 0.01488 0.0
C3260 C 0.50214 0.65637 0.0108 0.0
C3261 C 0.5005 0.63745 0.9954 0.0
C3262 C 0.57056 0.66748 0.00564 0.0
C3263 C 0.47959 0.66484 0.02417 0.0
H3264 H 0.53427 0.68223 0.09456 0.0
H3265 H 0.52112 0.73987 0.04834 0.0
H3266 H 0.51887 0.63855 0.05667 0.0
H3267 H 0.55077 0.64116 0.05126 0.0
H3268 H 0.5383 0.64409 0.08101 0.0
H3269 H 0.52102 0.73565 0.00689 0.0
H3270 H 0.53453 0.70961 0.9941 0.0
H3271 H 0.50268 0.71089 0.00068 0.0
H3272 H 0.55987 0.63078 0.97855 0.0
H3273 H 0.48307 0.62956 0.99297 0.0
H3274 H 0.57737 0.6616 0.02292 0.0
H3275 H 0.56961 0.68671 0.00607 0.0
H3276 H 0.58384 0.66189 0.9915 0.0
H3277 H 0.48062 0.65977 0.04306 0.0
H3278 H 0.46286 0.65744 0.017 0.0
H3279 H 0.47814 0.68403 0.02357 0.0
C3280 C 0.08908 0.76678 0.84224 0.0
C3281 C 0.08756 0.76429 0.86695 0.0
C3282 C 0.11163 0.76692 0.82994 0.0
C3283 C 0.13321 0.76426 0.8426 0.0
C3284 C 0.13176 0.76123 0.86748 0.0
C3285 C 0.10899 0.76142 0.87936 0.0
C3286 C 0.11236 0.77045 0.80347 0.0
C3287 C 0.15432 0.75811 0.88161 0.0
C3288 C 0.19203 0.7475 0.8091 0.0
C3289 C 0.20373 0.76892 0.80745 0.0
C3290 C 0.16904 0.74569 0.82039 0.0
C3291 C 0.15734 0.76581 0.83 0.0
C3292 C 0.16887 0.78752 0.82792 0.0
C3293 C 0.19193 0.78878 0.81683 0.0
C3294 C 0.15747 0.72219 0.82243 0.0
C3295 C 0.15696 0.80945 0.83764 0.0
H3296 H 0.07263 0.76903 0.8325 0.0
H3297 H 0.10798 0.75935 0.89842 0.0
H3298 H 0.12199 0.78672 0.79907 0.0
H3299 H 0.12259 0.75603 0.79455 0.0
H3300 H 0.09396 0.77148 0.79613 0.0
H3301 H 0.15008 0.7547 0.90063 0.0
H3302 H 0.1655 0.74348 0.87429 0.0
H3303 H 0.16546 0.77394 0.88026 0.0
H3304 H 0.20107 0.73205 0.80202 0.0
H3305 H 0.20076 0.80543 0.81557 0.0
H3306 H 0.13941 0.72261 0.81438 0.0
H3307 H 0.1546 0.71766 0.84137 0.0
H3308 H 0.16869 0.70831 0.81365 0.0
H3309 H 0.13891 0.81198 0.82989 0.0
H3310 H 0.16796 0.82507 0.83388 0.0
H3311 H 0.15405 0.80797 0.85709 0.0
C3312 C 0.97646 0.35216 0.5816 0.0
C3313 C 0.00079 0.34498 0.57958 0.0
C3314 C 0.96862 0.37267 0.57077 0.0
C3315 C 0.98579 0.38657 0.55857 0.0
C3316 C 0.00995 0.37842 0.55497 0.0
C3317 C 0.01705 0.35747 0.56523 0.0
C3318 C 0.94245 0.38023 0.5739 0.0
C3319 C 0.02894 0.39287 0.54232 0.0
C3320 C 0.97632 0.4418 0.52427 0.0
C3321 C 0.98235 0.45828 0.54132 0.0
C3322 C 0.97474 0.41824 0.5302 0.0
C3323 C 0.98012 0.41117 0.55343 0.0
C3324 C 0.98414 0.428 0.57112 0.0
C3325 C 0.98481 0.45141 0.5649 0.0
C3326 C 0.96914 0.40086 0.5112 0.0
C3327 C 0.99019 0.42125 0.59611 0.0
H3328 H 0.96376 0.34223 0.59238 0.0
H3329 H 0.03585 0.35186 0.56357 0.0
H3330 H 0.94056 0.39272 0.58884 0.0
H3331 H 0.93604 0.38903 0.55778 0.0
H3332 H 0.93057 0.36526 0.57795 0.0
H3333 H 0.04644 0.38332 0.53966 0.0
H3334 H 0.0226 0.39846 0.5248 0.0
H3335 H 0.03222 0.40876 0.55283 0.0
H3336 H 0.97398 0.44711 0.50609 0.0
H3337 H 0.98921 0.4641 0.57824 0.0
H3338 H 0.95835 0.38632 0.51858 0.0
H3339 H 0.98631 0.39348 0.50352 0.0
H3340 H 0.95907 0.40909 0.49666 0.0
H3341 H 0.99142 0.43654 0.60801 0.0
H3342 H 0.00785 0.41179 0.59591 0.0
H3343 H 0.97632 0.40945 0.60368 0.0
C3344 C 0.44908 0.26731 0.3494 0.0
C3345 C 0.45631 0.28927 0.35692 0.0
C3346 C 0.42688 0.2644 0.33821 0.0
C3347 C 0.41109 0.28374 0.33533 0.0
C3348 C 0.41801 0.3058 0.34374 0.0
C3349 C 0.44074 0.30838 0.35393 0.0
C3350 C 0.42066 0.24076 0.32879 0.0
C3351 C 0.40142 0.32673 0.34196 0.0
C3352 C 0.36242 0.28479 0.28868 0.0
C3353 C 0.34187 0.27788 0.30189 0.0
C3354 C 0.38523 0.2859 0.29909 0.0
C3355 C 0.38734 0.28101 0.32356 0.0
C3356 C 0.36652 0.27426 0.33697 0.0
C3357 C 0.3442 0.27233 0.32588 0.0
C3358 C 0.40706 0.29241 0.28393 0.0
C3359 C 0.3676 0.26985 0.36325 0.0
H3360 H 0.46128 0.25259 0.35136 0.0
H3361 H 0.44631 0.32537 0.35973 0.0
H3362 H 0.40345 0.23476 0.3372 0.0
H3363 H 0.41787 0.24181 0.30945 0.0
H3364 H 0.43506 0.2276 0.332 0.0
H3365 H 0.4087 0.34222 0.35089 0.0
H3366 H 0.39874 0.33101 0.3231 0.0
H3367 H 0.38335 0.32287 0.35004 0.0
H3368 H 0.36067 0.2891 0.27014 0.0
H3369 H 0.32826 0.26737 0.33626 0.0
H3370 H 0.42187 0.27944 0.28603 0.0
H3371 H 0.41393 0.30942 0.28972 0.0
H3372 H 0.40285 0.29357 0.26487 0.0
H3373 H 0.38091 0.2558 0.36675 0.0
H3374 H 0.34974 0.26493 0.37119 0.0
H3375 H 0.37381 0.28568 0.37234 0.0
C3376 C 0.48968 0.51865 0.30244 0.0
C3377 C 0.47002 0.5324 0.2955 0.0
C3378 C 0.49701 0.51885 0.32603 0.0
C3379 C 0.48448 0.53329 0.34278 0.0
C3380 C 0.46462 0.54712 0.33583 0.0
C3381 C 0.45763 0.54646 0.31234 0.0
C3382 C 0.51813 0.50376 0.33302 0.0
C3383 C 0.4509 0.56291 0.35315 0.0
C3384 C 0.48469 0.52634 0.40916 0.0
C3385 C 0.49971 0.54458 0.41554 0.0
C3386 C 0.48093 0.52124 0.3853 0.0
C3387 C 0.49232 0.53487 0.36751 0.0
C3388 C 0.50854 0.55243 0.3738 0.0
C3389 C 0.51211 0.55701 0.39775 0.0
C3390 C 0.46362 0.50225 0.37922 0.0
C3391 C 0.52099 0.56737 0.3553 0.0
H3392 H 0.49923 0.50767 0.28952 0.0
H3393 H 0.44245 0.55722 0.30715 0.0
H3394 H 0.5329 0.51474 0.33945 0.0
H3395 H 0.51254 0.49221 0.34783 0.0
H3396 H 0.52539 0.4929 0.31807 0.0
H3397 H 0.43567 0.57233 0.34488 0.0
H3398 H 0.44349 0.55269 0.36825 0.0
H3399 H 0.46335 0.57587 0.36044 0.0
H3400 H 0.47506 0.51665 0.42279 0.0
H3401 H 0.52433 0.57065 0.40253 0.0
H3402 H 0.47125 0.49133 0.36452 0.0
H3403 H 0.44645 0.51012 0.37318 0.0
H3404 H 0.45937 0.49095 0.39465 0.0
H3405 H 0.52947 0.55645 0.34104 0.0
H3406 H 0.53514 0.57839 0.36293 0.0
H3407 H 0.50738 0.57885 0.34704 0.0
C3408 C 0.24789 0.65241 0.11491 0.0
C3409 C 0.26315 0.66375 0.09845 0.0
C3410 C 0.24529 0.66028 0.13836 0.0
C3411 C 0.25836 0.67987 0.14552 0.0
C3412 C 0.27491 0.69052 0.12943 0.0
C3413 C 0.27706 0.68236 0.10604 0.0
C3414 C 0.22755 0.64844 0.15506 0.0
C3415 C 0.28941 0.71128 0.13658 0.0
C3416 C 0.23151 0.71959 0.19324 0.0
C3417 C 0.2456 0.71389 0.21263 0.0
C3418 C 0.23503 0.70812 0.17149 0.0
C3419 C 0.25313 0.69057 0.16906 0.0
C3420 C 0.26676 0.68405 0.18879 0.0
C3421 C 0.26276 0.69575 0.21038 0.0
C3422 C 0.22002 0.71545 0.15083 0.0
C3423 C 0.28614 0.66534 0.1869 0.0
H3424 H 0.23712 0.63795 0.10927 0.0
H3425 H 0.28905 0.6911 0.09352 0.0
H3426 H 0.23605 0.64463 0.17217 0.0
H3427 H 0.2118 0.66017 0.15888 0.0
H3428 H 0.22082 0.63199 0.14758 0.0
H3429 H 0.30301 0.71625 0.12267 0.0
H3430 H 0.27702 0.72631 0.14008 0.0
H3431 H 0.29892 0.70765 0.15319 0.0
H3432 H 0.21841 0.73371 0.19472 0.0
H3433 H 0.27341 0.69097 0.22541 0.0
H3434 H 0.21118 0.70016 0.14307 0.0
H3435 H 0.23193 0.72302 0.13677 0.0
H3436 H 0.2058 0.72848 0.156 0.0
H3437 H 0.27888 0.64942 0.17884 0.0
H3438 H 0.29351 0.66086 0.2044 0.0
H3439 H 0.30127 0.67129 0.17515 0.0
C3440 C 0.13006 0.52211 0.86422 0.0
C3441 C 0.11345 0.53509 0.85115 0.0
C3442 C 0.12668 0.51939 0.88869 0.0
C3443 C 0.10633 0.52999 0.90021 0.0
C3444 C 0.09114 0.54524 0.88759 0.0
C3445 C 0.09485 0.54756 0.8631 0.0
C3446 C 0.14352 0.50338 0.90168 0.0
C3447 C 0.06958 0.55736 0.89952 0.0
C3448 C 0.06944 0.49906 0.947 0.0
C3449 C 0.07395 0.51242 0.96701 0.0
C3450 C 0.08147 0.50349 0.92541 0.0
C3451 C 0.09814 0.52192 0.92389 0.0
C3452 C 0.10436 0.5341 0.94453 0.0
C3453 C 0.09221 0.52909 0.96601 0.0
C3454 C 0.07479 0.48972 0.90383 0.0
C3455 C 0.12213 0.55375 0.94364 0.0
H3456 H 0.14484 0.51278 0.85519 0.0
H3457 H 0.08226 0.558 0.85318 0.0
H3458 H 0.14733 0.51036 0.91948 0.0
H3459 H 0.13477 0.48632 0.90421 0.0
H3460 H 0.16095 0.50053 0.89167 0.0
H3461 H 0.06177 0.57106 0.88814 0.0
H3462 H 0.05531 0.54449 0.90362 0.0
H3463 H 0.07473 0.56534 0.91648 0.0
H3464 H 0.05548 0.48602 0.94789 0.0
H3465 H 0.09567 0.53951 0.98152 0.0
H3466 H 0.09133 0.48351 0.89396 0.0
H3467 H 0.06445 0.501 0.89176 0.0
H3468 H 0.06353 0.47449 0.90852 0.0
H3469 H 0.13755 0.54989 0.93112 0.0
H3470 H 0.12929 0.55746 0.9614 0.0
H3471 H 0.11285 0.56967 0.93736 0.0
C3472 C 0.27158 0.37376 0.62595 0.0
C3473 C 0.27325 0.36074 0.60487 0.0
C3474 C 0.27351 0.36318 0.64827 0.0
C3475 C 0.27764 0.33892 0.64976 0.0
C3476 C 0.27981 0.3257 0.62853 0.0
C3477 C 0.27739 0.33671 0.6064 0.0
C3478 C 0.27063 0.37797 0.67031 0.0
C3479 C 0.28452 0.29987 0.62921 0.0
C3480 C 0.30141 0.31577 0.70837 0.0
C3481 C 0.2803 0.30718 0.71949 0.0
C3482 C 0.30096 0.32562 0.68552 0.0
C3483 C 0.27878 0.32738 0.67357 0.0
C3484 C 0.25741 0.31879 0.68478 0.0
C3485 C 0.25848 0.30867 0.70739 0.0
C3486 C 0.32422 0.33423 0.67418 0.0
C3487 C 0.23326 0.32064 0.67308 0.0
H3488 H 0.26826 0.39231 0.62507 0.0
H3489 H 0.27878 0.32647 0.59028 0.0
H3490 H 0.25497 0.37192 0.68131 0.0
H3491 H 0.28694 0.37621 0.68115 0.0
H3492 H 0.26774 0.39661 0.66619 0.0
H3493 H 0.287 0.29223 0.61121 0.0
H3494 H 0.30098 0.29608 0.63937 0.0
H3495 H 0.26915 0.29118 0.63846 0.0
H3496 H 0.31837 0.31465 0.71747 0.0
H3497 H 0.24198 0.30226 0.7158 0.0
H3498 H 0.32282 0.35321 0.67118 0.0
H3499 H 0.32741 0.32588 0.65661 0.0
H3500 H 0.34013 0.33067 0.68522 0.0
H3501 H 0.22876 0.33913 0.66968 0.0
H3502 H 0.21833 0.31307 0.68407 0.0
H3503 H 0.2342 0.31162 0.6557 0.0
C3504 C 0.42692 0.57802 0.14985 0.0
C3505 C 0.44252 0.57231 0.16809 0.0
C3506 C 0.43505 0.57706 0.12615 0.0
C3507 C 0.45924 0.57008 0.12072 0.0
C3508 C 0.47568 0.56671 0.13913 0.0
C3509 C 0.4671 0.56788 0.16271 0.0
C3510 C 0.41719 0.58142 0.10692 0.0
C3511 C 0.50176 0.55975 0.13393 0.0
C3512 C 0.46728 0.53058 0.06762 0.0
C3513 C 0.47728 0.54547 0.05052 0.0
C3514 C 0.46159 0.53848 0.09054 0.0
C3515 C 0.46585 0.56192 0.09649 0.0
C3516 C 0.47585 0.57715 0.07932 0.0
C3517 C 0.48165 0.56866 0.0565 0.0
C3518 C 0.45087 0.5217 0.10838 0.0
C3519 C 0.48071 0.60224 0.08497 0.0
H3520 H 0.40801 0.58197 0.15398 0.0
H3521 H 0.47932 0.56382 0.1768 0.0
H3522 H 0.4254 0.59225 0.09266 0.0
H3523 H 0.41221 0.56464 0.09886 0.0
H3524 H 0.40037 0.59017 0.11387 0.0
H3525 H 0.51297 0.56128 0.14982 0.0
H3526 H 0.50262 0.54146 0.12773 0.0
H3527 H 0.50972 0.57063 0.1196 0.0
H3528 H 0.46393 0.51264 0.06312 0.0
H3529 H 0.48945 0.58024 0.04334 0.0
H3530 H 0.43269 0.528 0.11465 0.0
H3531 H 0.46244 0.52058 0.12404 0.0
H3532 H 0.44901 0.50398 0.10093 0.0
H3533 H 0.46594 0.60998 0.09632 0.0
H3534 H 0.48283 0.61281 0.06865 0.0
H3535 H 0.49772 0.6033 0.09481 0.0
C3536 C 0.28379 0.73278 0.95514 0.0
C3537 C 0.29837 0.71397 0.96164 0.0
C3538 C 0.28587 0.74201 0.93225 0.0
C3539 C 0.30343 0.73257 0.91596 0.0
C3540 C 0.32008 0.71548 0.92351 0.0
C3541 C 0.31706 0.70605 0.94621 0.0
C3542 C 0.26758 0.76006 0.92479 0.0
C3543 C 0.3397 0.7057 0.90699 0.0
C3544 C 0.28407 0.72973 0.85239 0.0
C3545 C 0.2942 0.74994 0.84304 0.0
C3546 C 0.28739 0.72366 0.87606 0.0
C3547 C 0.30179 0.73782 0.89039 0.0
C3548 C 0.31332 0.75747 0.88056 0.0
C3549 C 0.30903 0.76353 0.85704 0.0
C3550 C 0.27449 0.70272 0.88602 0.0
C3551 C 0.32949 0.77247 0.89503 0.0
H3552 H 0.26921 0.73872 0.96706 0.0
H3553 H 0.32841 0.69155 0.95139 0.0
H3554 H 0.27663 0.77437 0.91508 0.0
H3555 H 0.25475 0.752 0.91258 0.0
H3556 H 0.25704 0.76749 0.94015 0.0
H3557 H 0.35391 0.69628 0.91678 0.0
H3558 H 0.33163 0.69337 0.89446 0.0
H3559 H 0.34832 0.71968 0.89638 0.0
H3560 H 0.27244 0.71936 0.84158 0.0
H3561 H 0.31699 0.77913 0.84968 0.0
H3562 H 0.26183 0.70817 0.90071 0.0
H3563 H 0.28776 0.69032 0.89342 0.0
H3564 H 0.26405 0.69354 0.87246 0.0
H3565 H 0.31833 0.7825 0.90826 0.0
H3566 H 0.33989 0.78489 0.88384 0.0
H3567 H 0.34241 0.76157 0.90492 0.0
C3568 C 0.09354 0.48369 0.70438 0.0
C3569 C 0.08691 0.48573 0.72843 0.0
C3570 C 0.07644 0.48726 0.687 0.0
C3571 C 0.05214 0.49259 0.69398 0.0
C3572 C 0.04484 0.49202 0.71817 0.0
C3573 C 0.06243 0.48879 0.73522 0.0
C3574 C 0.08491 0.4876 0.6613 0.0
C3575 C 0.0189 0.49675 0.72615 0.0
C3576 C 0.02526 0.53602 0.65244 0.0
C3577 C 0.01403 0.52143 0.63646 0.0
C3578 C 0.03639 0.52691 0.67231 0.0
C3579 C 0.03588 0.50267 0.67635 0.0
C3580 C 0.02261 0.48816 0.66146 0.0
C3581 C 0.01199 0.49773 0.64147 0.0
C3582 C 0.05045 0.54298 0.68777 0.0
C3583 C 0.02101 0.46237 0.66564 0.0
H3584 H 0.1124 0.48097 0.69906 0.0
H3585 H 0.05717 0.48991 0.75384 0.0
H3586 H 0.07282 0.47714 0.65033 0.0
H3587 H 0.08425 0.50568 0.65463 0.0
H3588 H 0.10374 0.48079 0.65873 0.0
H3589 H 0.01521 0.49056 0.7445 0.0
H3590 H 0.01518 0.51571 0.72574 0.0
H3591 H 0.00616 0.48831 0.71413 0.0
H3592 H 0.02691 0.55431 0.64848 0.0
H3593 H 0.00288 0.48655 0.62924 0.0
H3594 H 0.07011 0.53889 0.68567 0.0
H3595 H 0.0452 0.54049 0.70669 0.0
H3596 H 0.04751 0.56152 0.68323 0.0
H3597 H 0.03802 0.45375 0.65907 0.0
H3598 H 0.00571 0.45469 0.65616 0.0
H3599 H 0.01877 0.45852 0.6848 0.0
C3600 C 0.27482 0.35467 0.45045 0.0
C3601 C 0.2578 0.37262 0.45481 0.0
C3602 C 0.27622 0.343 0.42838 0.0
C3603 C 0.25985 0.34899 0.41041 0.0
C3604 C 0.24216 0.36656 0.4151 0.0
C3605 C 0.24154 0.37826 0.437 0.0
C3606 C 0.29563 0.32466 0.42404 0.0
C3607 C 0.22394 0.37322 0.39685 0.0
C3608 C 0.27516 0.33658 0.34492 0.0
C3609 C 0.26261 0.31599 0.34094 0.0
C3610 C 0.27487 0.34716 0.36749 0.0
C3611 C 0.26128 0.33725 0.38656 0.0
C3612 C 0.24829 0.31665 0.38253 0.0
C3613 C 0.24934 0.30617 0.35993 0.0
C3614 C 0.28933 0.36886 0.37098 0.0
C3615 C 0.2331 0.30574 0.40207 0.0
H3616 H 0.28757 0.3503 0.46398 0.0
H3617 H 0.22818 0.39196 0.44021 0.0
H3618 H 0.28731 0.308 0.41913 0.0
H3619 H 0.30769 0.32986 0.40894 0.0
H3620 H 0.30681 0.3218 0.43979 0.0
H3621 H 0.21056 0.3864 0.40364 0.0
H3622 H 0.23342 0.38033 0.38092 0.0
H3623 H 0.21402 0.35767 0.39115 0.0
H3624 H 0.28577 0.34415 0.33052 0.0
H3625 H 0.23962 0.29024 0.3571 0.0
H3626 H 0.30212 0.36624 0.38551 0.0
H3627 H 0.27703 0.38348 0.37626 0.0
H3628 H 0.29978 0.37385 0.3547 0.0
H3629 H 0.24458 0.30123 0.41717 0.0
H3630 H 0.22397 0.2898 0.39609 0.0
H3631 H 0.21907 0.31833 0.40872 0.0
C3632 C 0.32974 0.47653 0.52525 0.0
C3633 C 0.3275 0.4523 0.52554 0.0
C3634 C 0.35236 0.48706 0.52723 0.0
C3635 C 0.37349 0.47306 0.52889 0.0
C3636 C 0.37138 0.44856 0.52934 0.0
C3637 C 0.34835 0.43847 0.52801 0.0
C3638 C 0.35364 0.51322 0.52731 0.0
C3639 C 0.39351 0.433 0.53054 0.0
C3640 C 0.43247 0.50105 0.50804 0.0
C3641 C 0.44333 0.50622 0.52951 0.0
C3642 C 0.41006 0.48984 0.50763 0.0
C3643 C 0.3978 0.48416 0.52921 0.0
C3644 C 0.40849 0.48971 0.55096 0.0
C3645 C 0.43128 0.50037 0.55084 0.0
C3646 C 0.39962 0.48382 0.48404 0.0
C3647 C 0.39576 0.48455 0.57435 0.0
H3648 H 0.31367 0.48735 0.52363 0.0
H3649 H 0.34675 0.41975 0.52814 0.0
H3650 H 0.36341 0.51925 0.54299 0.0
H3651 H 0.36396 0.51917 0.51135 0.0
H3652 H 0.3354 0.52161 0.52754 0.0
H3653 H 0.38881 0.41433 0.53111 0.0
H3654 H 0.40565 0.436 0.51485 0.0
H3655 H 0.40386 0.43722 0.54645 0.0
H3656 H 0.44186 0.50517 0.49147 0.0
H3657 H 0.4396 0.50428 0.56748 0.0
H3658 H 0.38205 0.49304 0.48204 0.0
H3659 H 0.39605 0.46494 0.48317 0.0
H3660 H 0.4119 0.48848 0.46889 0.0
H3661 H 0.37776 0.49335 0.57524 0.0
H3662 H 0.40629 0.49029 0.58968 0.0
H3663 H 0.39261 0.46565 0.57594 0.0
C3664 C 0.8785 0.10988 0.5319 0.0
C3665 C 0.86534 0.12589 0.51861 0.0
C3666 C 0.90121 0.10155 0.52375 0.0
C3667 C 0.91102 0.10947 0.50179 0.0
C3668 C 0.89841 0.12643 0.48882 0.0
C3669 C 0.87567 0.13445 0.49739 0.0
C3670 C 0.91438 0.0837 0.5383 0.0
C3671 C 0.90844 0.13538 0.46548 0.0
C3672 C 0.97692 0.09251 0.49669 0.0
C3673 C 0.97508 0.06993 0.48761 0.0
C3674 C 0.95637 0.10693 0.49926 0.0
C3675 C 0.93376 0.09865 0.49209 0.0
C3676 C 0.93264 0.07735 0.47966 0.0
C3677 C 0.95339 0.06314 0.47763 0.0
C3678 C 0.95841 0.12962 0.5124 0.0
C3679 C 0.90894 0.06812 0.47129 0.0
H3680 H 0.87079 0.10336 0.54843 0.0
H3681 H 0.86567 0.14689 0.48702 0.0
H3682 H 0.91743 0.06752 0.52787 0.0
H3683 H 0.93239 0.09029 0.54291 0.0
H3684 H 0.90423 0.07929 0.55491 0.0
H3685 H 0.89799 0.15062 0.45914 0.0
H3686 H 0.92767 0.1403 0.46701 0.0
H3687 H 0.90786 0.12147 0.45191 0.0
H3688 H 0.99369 0.09798 0.5043 0.0
H3689 H 0.95199 0.04582 0.47031 0.0
H3690 H 0.95312 0.12698 0.53131 0.0
H3691 H 0.94613 0.14307 0.50524 0.0
H3692 H 0.97726 0.13611 0.51154 0.0
H3693 H 0.89821 0.06149 0.48671 0.0
H3694 H 0.91178 0.0537 0.45835 0.0
H3695 H 0.89809 0.08204 0.463 0.0
C3696 C 0.68875 0.08554 0.25114 0.0
C3697 C 0.66477 0.08346 0.24413 0.0
C3698 C 0.70207 0.10534 0.24557 0.0
C3699 C 0.69125 0.12324 0.23229 0.0
C3700 C 0.66764 0.12057 0.22379 0.0
C3701 C 0.65453 0.10075 0.23003 0.0
C3702 C 0.72714 0.10773 0.25519 0.0
C3703 C 0.65582 0.13912 0.2091 0.0
C3704 C 0.71332 0.18333 0.24576 0.0
C3705 C 0.73095 0.18651 0.22769 0.0
C3706 C 0.69985 0.16302 0.24709 0.0
C3707 C 0.70373 0.14564 0.2296 0.0
C3708 C 0.72063 0.14911 0.21068 0.0
C3709 C 0.73423 0.16945 0.21005 0.0
C3710 C 0.68205 0.15985 0.26766 0.0
C3711 C 0.72486 0.13105 0.19151 0.0
H3712 H 0.69677 0.07222 0.26203 0.0
H3713 H 0.63609 0.09905 0.22432 0.0
H3714 H 0.7403 0.11243 0.24083 0.0
H3715 H 0.72701 0.12191 0.26852 0.0
H3716 H 0.73359 0.09153 0.26369 0.0
H3717 H 0.63889 0.13301 0.20116 0.0
H3718 H 0.65131 0.15446 0.22038 0.0
H3719 H 0.66843 0.1449 0.19469 0.0
H3720 H 0.71009 0.19665 0.25907 0.0
H3721 H 0.74785 0.17167 0.19608 0.0
H3722 H 0.68766 0.14472 0.27838 0.0
H3723 H 0.66378 0.15622 0.26109 0.0
H3724 H 0.68073 0.17536 0.27939 0.0
H3725 H 0.73368 0.11545 0.19905 0.0
H3726 H 0.73657 0.13752 0.17667 0.0
H3727 H 0.70736 0.12553 0.18439 0.0
C3728 C 0.6648 0.91681 0.03834 0.0
C3729 C 0.68588 0.92987 0.03508 0.0
C3730 C 0.64173 0.92753 0.03878 0.0
C3731 C 0.63967 0.95185 0.03559 0.0
C3732 C 0.66092 0.96512 0.03253 0.0
C3733 C 0.68371 0.95401 0.03246 0.0
C3734 C 0.61953 0.91281 0.04239 0.0
C3735 C 0.65956 0.99103 0.0288 0.0
C3736 C 0.58135 0.97688 0.01143 0.0
C3737 C 0.57004 0.9867 0.03175 0.0
C3738 C 0.60389 0.96541 0.01249 0.0
C3739 C 0.61534 0.96338 0.03447 0.0
C3740 C 0.60386 0.97295 0.05514 0.0
C3741 C 0.58144 0.98464 0.05351 0.0
C3742 C 0.61562 0.95573 0.98998 0.0
C3743 C 0.6153 0.97091 0.07897 0.0
H3744 H 0.66632 0.89817 0.04049 0.0
H3745 H 0.69989 0.96425 0.02989 0.0
H3746 H 0.60818 0.91962 0.05748 0.0
H3747 H 0.60837 0.91365 0.02643 0.0
H3748 H 0.62422 0.89436 0.04585 0.0
H3749 H 0.67777 -0.00108 0.02717 0.0
H3750 H 0.64962 0.9949 0.01249 0.0
H3751 H 0.64934 -0.00053 0.04378 0.0
H3752 H 0.57271 0.97841 0.99453 0.0
H3753 H 0.57274 0.99201 0.06933 0.0
H3754 H 0.61904 0.93683 0.99186 0.0
H3755 H 0.63341 0.96399 0.98659 0.0
H3756 H 0.60427 0.95859 0.97434 0.0
H3757 H 0.61903 0.95241 0.08303 0.0
H3758 H 0.60362 0.97847 0.09348 0.0
H3759 H 0.63292 0.97992 0.0786 0.0
C3760 C 0.39692 0.45511 0.21104 0.0
C3761 C 0.39159 0.47424 0.22577 0.0
C3762 C 0.38289 0.43503 0.21254 0.0
C3763 C 0.36342 0.43406 0.22941 0.0
C3764 C 0.35817 0.45321 0.24448 0.0
C3765 C 0.3722 0.47313 0.24235 0.0
C3766 C 0.38869 0.41499 0.19595 0.0
C3767 C 0.33772 0.45266 0.2629 0.0
C3768 C 0.31112 0.39353 0.22123 0.0
C3769 C 0.3168 0.37531 0.2366 0.0
C3770 C 0.32658 0.41238 0.21813 0.0
C3771 C 0.34803 0.41328 0.23106 0.0
C3772 C 0.35399 0.395 0.24656 0.0
C3773 C 0.33837 0.37615 0.24903 0.0
C3774 C 0.31972 0.43154 0.20132 0.0
C3775 C 0.37663 0.39556 0.26084 0.0
H3776 H 0.41187 0.45593 0.19818 0.0
H3777 H 0.36814 0.48776 0.25397 0.0
H3778 H 0.39249 0.39907 0.20624 0.0
H3779 H 0.37282 0.4114 0.18503 0.0
H3780 H 0.40456 0.41845 0.18396 0.0
H3781 H 0.33653 0.46878 0.27373 0.0
H3782 H 0.32021 0.45035 0.25417 0.0
H3783 H 0.34022 0.43768 0.2749 0.0
H3784 H 0.29439 0.3933 0.21181 0.0
H3785 H 0.34321 0.36203 0.26062 0.0
H3786 H 0.33488 0.43479 0.18845 0.0
H3787 H 0.31621 0.44788 0.21136 0.0
H3788 H 0.3033 0.42741 0.19135 0.0
H3789 H 0.39282 0.39749 0.24892 0.0
H3790 H 0.37899 0.37965 0.27162 0.0
H3791 H 0.37588 0.41081 0.2729 0.0
C3792 C 0.18204 0.66577 0.03846 0.0
C3793 C 0.19311 0.65789 0.01718 0.0
C3794 C 0.16244 0.6539 0.04884 0.0
C3795 C 0.15378 0.63391 0.03747 0.0
C3796 C 0.16355 0.62718 0.01496 0.0
C3797 C 0.18321 0.63923 0.00513 0.0
C3798 C 0.1524 0.6617 0.07276 0.0
C3799 C 0.15438 0.60625 0.00197 0.0
C3800 C 0.1279 0.5817 0.06872 0.0
C3801 C 0.10391 0.58305 0.06171 0.0
C3802 C 0.14415 0.59936 0.06265 0.0
C3803 C 0.13592 0.6187 0.04954 0.0
C3804 C 0.1111 0.62121 0.04471 0.0
C3805 C 0.09539 0.60319 0.0507 0.0
C3806 C 0.17051 0.59629 0.06836 0.0
C3807 C 0.10155 0.64196 0.03152 0.0
H3808 H 0.18979 0.68012 0.04793 0.0
H3809 H 0.19175 0.63322 0.98864 0.0
H3810 H 0.13246 0.65973 0.07412 0.0
H3811 H 0.16042 0.65075 0.08669 0.0
H3812 H 0.15686 0.68006 0.07646 0.0
H3813 H 0.16283 0.60435 0.98394 0.0
H3814 H 0.1584 0.5903 0.01215 0.0
H3815 H 0.13445 0.60751 0.00035 0.0
H3816 H 0.13431 0.56607 0.07725 0.0
H3817 H 0.07663 0.60425 0.04568 0.0
H3818 H 0.17766 0.61254 0.07584 0.0
H3819 H 0.18122 0.59231 0.05184 0.0
H3820 H 0.17339 0.58198 0.08113 0.0
H3821 H 0.10848 0.65826 0.03909 0.0
H3822 H 0.08144 0.64279 0.03207 0.0
H3823 H 0.10804 0.64105 0.01275 0.0
C3824 C 0.713 0.94992 0.28014 0.0
C3825 C 0.69589 0.95781 0.29723 0.0
C3826 C 0.72531 0.92882 0.28308 0.0
C3827 C 0.72063 0.91567 0.30379 0.0
C3828 C 0.70519 0.92469 0.32212 0.0
C3829 C 0.69274 0.94563 0.31851 0.0
C3830 C 0.74159 0.91967 0.26307 0.0
C3831 C 0.70038 0.91142 0.34474 0.0
C3832 C 0.72276 0.85127 0.2925 0.0
C3833 C 0.74643 0.84559 0.29874 0.0
C3834 C 0.71381 0.87395 0.29501 0.0
C3835 C 0.7288 0.89119 0.30442 0.0
C3836 C 0.75213 0.88526 0.31223 0.0
C3837 C 0.76082 0.86248 0.30905 0.0
C3838 C 0.68884 0.87969 0.2863 0.0
C3839 C 0.76829 0.90313 0.3229 0.0
H3840 H 0.71556 0.95941 0.26373 0.0
H3841 H 0.67978 0.95195 0.33193 0.0
H3842 H 0.75909 0.91336 0.26987 0.0
H3843 H 0.73283 0.90472 0.25454 0.0
H3844 H 0.7453 0.93303 0.24935 0.0
H3845 H 0.6919 0.92263 0.35882 0.0
H3846 H 0.68793 0.89695 0.34126 0.0
H3847 H 0.71741 0.90375 0.35134 0.0
H3848 H 0.71158 0.83824 0.28454 0.0
H3849 H 0.77907 0.85803 0.31412 0.0
H3850 H 0.69034 0.89193 0.27121 0.0
H3851 H 0.6777 0.88836 0.30049 0.0
H3852 H 0.67918 0.86403 0.28037 0.0
H3853 H 0.77525 0.91485 0.30879 0.0
H3854 H 0.78403 0.895 0.33161 0.0
H3855 H 0.75797 0.91398 0.33608 0.0
C3856 C 0.80775 0.11152 0.77516 0.0
C3857 C 0.83314 0.11091 0.77524 0.0
C3858 C 0.79484 0.13215 0.78053 0.0
C3859 C 0.8078 0.15258 0.78516 0.0
C3860 C 0.83334 0.15158 0.78676 0.0
C3861 C 0.8456 0.13065 0.78222 0.0
C3862 C 0.76756 0.13219 0.77989 0.0
C3863 C 0.84801 0.17301 0.79141 0.0
C3864 C 0.79165 0.21227 0.76465 0.0
C3865 C 0.79096 0.22405 0.78633 0.0
C3866 C 0.79441 0.18811 0.76393 0.0
C3867 C 0.79574 0.17567 0.78545 0.0
C3868 C 0.7914 0.18729 0.80729 0.0
C3869 C 0.7897 0.21155 0.80753 0.0
C3870 C 0.79898 0.17639 0.74023 0.0
C3871 C 0.791 0.17437 0.83046 0.0
H3872 H 0.79801 0.09618 0.77009 0.0
H3873 H 0.86521 0.13024 0.78254 0.0
H3874 H 0.75926 0.14554 0.79193 0.0
H3875 H 0.76192 0.13597 0.76163 0.0
H3876 H 0.76032 0.11494 0.78489 0.0
H3877 H 0.86775 0.16913 0.79199 0.0
H3878 H 0.84508 0.18601 0.77731 0.0
H3879 H 0.84212 0.18107 0.80851 0.0
H3880 H 0.79243 0.22206 0.74828 0.0
H3881 H 0.78858 0.22078 0.82429 0.0
H3882 H 0.78791 0.16059 0.73889 0.0
H3883 H 0.81832 0.17096 0.73846 0.0
H3884 H 0.7948 0.18803 0.72522 0.0
H3885 H 0.78225 0.15726 0.8286 0.0
H3886 H 0.78123 0.18447 0.84466 0.0
H3887 H 0.80983 0.17123 0.83605 0.0
loop_
_geom_bond_atom_site_label_1
_geom_bond_atom_site_label_2
_geom_bond_distance
_geom_bond_site_symmetry_2
_ccdc_geom_bond_type
C0 O1 1.306 . S
C0 O3 1.160 . S
O1 C0 1.306 . S
O1 Cd2 2.228 1_655 S
Cd2 O1 2.228 1_455 S
Cd2 O6 2.273 . S
Cd2 O10 2.277 . S
O3 C0 1.160 . S
O3 Cd4 2.203 1_655 S
Cd4 O3 2.203 1_455 S
Cd4 O6 2.411 . S
Cd4 O7 2.333 . S
Cd4 O8 2.352 . S
Cd4 O12 2.277 . S
Cd4 O13 2.356 . S
C5 O10 1.209 . S
C5 O12 1.226 . S
O6 Cd2 2.273 . S
O6 Cd4 2.411 . S
O6 C9 1.320 . S
O7 Cd4 2.333 . S
O7 C9 1.214 . S
O8 Cd4 2.352 . S
O8 C11 1.258 . S
C9 O6 1.320 . S
C9 O7 1.214 . S
O10 Cd2 2.277 . S
O10 C5 1.209 . S
C11 O8 1.258 . S
C11 O13 1.282 . S
O12 Cd4 2.277 . S
O12 C5 1.226 . S
O13 Cd4 2.356 . S
O13 C11 1.282 . S
C14 O15 1.306 . S
C14 O17 1.160 . S
O15 C14 1.306 . S
O15 Cd16 2.228 . S
Cd16 O15 2.228 . S
Cd16 O20 2.273 . S
Cd16 O24 2.277 . S
O17 C14 1.160 . S
O17 Cd18 2.203 . S
Cd18 O17 2.203 . S
Cd18 O20 2.411 . S
Cd18 O21 2.333 . S
Cd18 O22 2.352 . S
Cd18 O26 2.277 . S
Cd18 O27 2.356 . S
C19 O24 1.209 . S
C19 O26 1.226 . S
O20 Cd16 2.273 . S
O20 Cd18 2.411 . S
O20 C23 1.320 . S
O21 Cd18 2.333 . S
O21 C23 1.214 . S
O22 Cd18 2.352 . S
O22 C25 1.258 . S
C23 O20 1.320 . S
C23 O21 1.214 . S
O24 Cd16 2.277 . S
O24 C19 1.209 . S
C25 O22 1.258 . S
C25 O27 1.282 . S
O26 Cd18 2.277 . S
O26 C19 1.226 . S
O27 Cd18 2.356 . S
O27 C25 1.282 . S
C28 O29 1.306 . S
C28 O31 1.160 . S
O29 C28 1.306 . S
O29 Cd30 2.228 . S
Cd30 O29 2.228 . S
Cd30 O34 2.273 . S
Cd30 O38 2.277 . S
O31 C28 1.160 . S
O31 Cd32 2.203 . S
Cd32 O31 2.203 . S
Cd32 O34 2.411 . S
Cd32 O35 2.333 . S
Cd32 O36 2.352 . S
Cd32 O40 2.277 . S
Cd32 O41 2.356 . S
C33 O38 1.209 . S
C33 O40 1.226 . S
O34 Cd30 2.273 . S
O34 Cd32 2.411 . S
O34 C37 1.320 . S
O35 Cd32 2.333 . S
O35 C37 1.214 . S
O36 Cd32 2.352 . S
O36 C39 1.258 . S
C37 O34 1.320 . S
C37 O35 1.214 . S
O38 Cd30 2.277 . S
O38 C33 1.209 . S
C39 O36 1.258 . S
C39 O41 1.282 . S
O40 Cd32 2.277 . S
O40 C33 1.226 . S
O41 Cd32 2.356 . S
O41 C39 1.282 . S
C42 O43 1.306 . S
C42 O45 1.160 . S
O43 C42 1.306 . S
O43 Cd44 2.228 . S
Cd44 O43 2.228 . S
Cd44 O48 2.273 . S
Cd44 O52 2.277 . S
O45 C42 1.160 . S
O45 Cd46 2.203 . S
Cd46 O45 2.203 . S
Cd46 O48 2.411 . S
Cd46 O49 2.333 . S
Cd46 O50 2.352 . S
Cd46 O54 2.277 . S
Cd46 O55 2.356 . S
C47 O52 1.209 . S
C47 O54 1.226 . S
O48 Cd44 2.273 . S
O48 Cd46 2.411 . S
O48 C51 1.320 . S
O49 Cd46 2.333 . S
O49 C51 1.214 . S
O50 Cd46 2.352 . S
O50 C53 1.258 . S
C51 O48 1.320 . S
C51 O49 1.214 . S
O52 Cd44 2.277 . S
O52 C47 1.209 . S
C53 O50 1.258 . S
C53 O55 1.282 . S
O54 Cd46 2.277 . S
O54 C47 1.226 . S
O55 Cd46 2.356 . S
O55 C53 1.282 . S
C56 O57 1.306 . S
C56 O59 1.160 . S
O57 C56 1.306 . S
O57 Cd58 2.228 . S
Cd58 O57 2.228 . S
Cd58 O62 2.273 . S
Cd58 O66 2.277 . S
O59 C56 1.160 . S
O59 Cd60 2.203 . S
Cd60 O59 2.203 . S
Cd60 O62 2.411 . S
Cd60 O63 2.333 . S
Cd60 O64 2.352 1_545 S
Cd60 O68 2.277 . S
Cd60 O69 2.356 1_545 S
C61 O66 1.209 . S
C61 O68 1.226 . S
O62 Cd58 2.273 . S
O62 Cd60 2.411 . S
O62 C65 1.320 . S
O63 Cd60 2.333 . S
O63 C65 1.214 . S
O64 Cd60 2.352 1_565 S
O64 C67 1.258 . S
C65 O62 1.320 . S
C65 O63 1.214 . S
O66 Cd58 2.277 . S
O66 C61 1.209 . S
C67 O64 1.258 . S
C67 O69 1.282 . S
O68 Cd60 2.277 . S
O68 C61 1.226 . S
O69 Cd60 2.356 1_565 S
O69 C67 1.282 . S
C70 O71 1.306 . S
C70 O73 1.160 . S
O71 C70 1.306 . S
O71 Cd72 2.228 . S
Cd72 O71 2.228 . S
Cd72 O76 2.273 . S
Cd72 O80 2.277 . S
O73 C70 1.160 . S
O73 Cd74 2.203 . S
Cd74 O73 2.203 . S
Cd74 O76 2.411 . S
Cd74 O77 2.333 . S
Cd74 O78 2.352 . S
Cd74 O82 2.277 . S
Cd74 O83 2.356 . S
C75 O80 1.209 . S
C75 O82 1.226 . S
O76 Cd72 2.273 . S
O76 Cd74 2.411 . S
O76 C79 1.320 . S
O77 Cd74 2.333 . S
O77 C79 1.214 . S
O78 Cd74 2.352 . S
O78 C81 1.258 . S
C79 O76 1.320 . S
C79 O77 1.214 . S
O80 Cd72 2.277 . S
O80 C75 1.209 . S
C81 O78 1.258 . S
C81 O83 1.282 . S
O82 Cd74 2.277 . S
O82 C75 1.226 . S
O83 Cd74 2.356 . S
O83 C81 1.282 . S
C84 O85 1.306 . S
C84 O87 1.160 . S
O85 C84 1.306 . S
O85 Cd86 2.228 . S
Cd86 O85 2.228 . S
Cd86 O90 2.273 . S
Cd86 O94 2.277 . S
O87 C84 1.160 . S
O87 Cd88 2.203 . S
Cd88 O87 2.203 . S
Cd88 O90 2.411 . S
Cd88 O91 2.333 . S
Cd88 O92 2.352 . S
Cd88 O96 2.277 . S
Cd88 O97 2.356 . S
C89 O94 1.209 . S
C89 O96 1.226 . S
O90 Cd86 2.273 . S
O90 Cd88 2.411 . S
O90 C93 1.320 . S
O91 Cd88 2.333 . S
O91 C93 1.214 . S
O92 Cd88 2.352 . S
O92 C95 1.258 . S
C93 O90 1.320 . S
C93 O91 1.214 . S
O94 Cd86 2.277 . S
O94 C89 1.209 . S
C95 O92 1.258 . S
C95 O97 1.282 . S
O96 Cd88 2.277 . S
O96 C89 1.226 . S
O97 Cd88 2.356 . S
O97 C95 1.282 . S
C98 O99 1.306 . S
C98 O101 1.160 . S
O99 C98 1.306 . S
O99 Cd100 2.228 . S
Cd100 O99 2.228 . S
Cd100 O104 2.273 . S
Cd100 O108 2.277 . S
O101 C98 1.160 . S
O101 Cd102 2.203 . S
Cd102 O101 2.203 . S
Cd102 O104 2.411 . S
Cd102 O105 2.333 . S
Cd102 O106 2.352 1_554 S
Cd102 O110 2.277 . S
Cd102 O111 2.356 1_554 S
C103 O108 1.209 . S
C103 O110 1.226 . S
O104 Cd100 2.273 . S
O104 Cd102 2.411 . S
O104 C107 1.320 . S
O105 Cd102 2.333 . S
O105 C107 1.214 . S
O106 Cd102 2.352 1_556 S
O106 C109 1.258 . S
C107 O104 1.320 . S
C107 O105 1.214 . S
O108 Cd100 2.277 . S
O108 C103 1.209 . S
C109 O106 1.258 . S
C109 O111 1.282 . S
O110 Cd102 2.277 . S
O110 C103 1.226 . S
O111 Cd102 2.356 1_556 S
O111 C109 1.282 . S
C112 O113 1.306 . S
C112 O115 1.160 . S
O113 C112 1.306 . S
O113 Cd114 2.228 . S
Cd114 O113 2.228 . S
Cd114 O118 2.273 . S
Cd114 O122 2.277 . S
O115 C112 1.160 . S
O115 Cd116 2.203 . S
Cd116 O115 2.203 . S
Cd116 O118 2.411 . S
Cd116 O119 2.333 . S
Cd116 O120 2.352 . S
Cd116 O124 2.277 . S
Cd116 O125 2.356 . S
C117 O122 1.209 . S
C117 O124 1.226 . S
O118 Cd114 2.273 . S
O118 Cd116 2.411 . S
O118 C121 1.320 . S
O119 Cd116 2.333 . S
O119 C121 1.214 . S
O120 Cd116 2.352 . S
O120 C123 1.258 . S
C121 O118 1.320 . S
C121 O119 1.214 . S
O122 Cd114 2.277 . S
O122 C117 1.209 . S
C123 O120 1.258 . S
C123 O125 1.282 . S
O124 Cd116 2.277 . S
O124 C117 1.226 . S
O125 Cd116 2.356 . S
O125 C123 1.282 . S
C126 O127 1.306 . S
C126 O129 1.160 . S
O127 C126 1.306 . S
O127 Cd128 2.228 . S
Cd128 O127 2.228 . S
Cd128 O132 2.273 . S
Cd128 O136 2.277 . S
O129 C126 1.160 . S
O129 Cd130 2.203 . S
Cd130 O129 2.203 . S
Cd130 O132 2.411 . S
Cd130 O133 2.333 . S
Cd130 O134 2.352 . S
Cd130 O138 2.277 . S
Cd130 O139 2.356 . S
C131 O136 1.209 . S
C131 O138 1.226 . S
O132 Cd128 2.273 . S
O132 Cd130 2.411 . S
O132 C135 1.320 . S
O133 Cd130 2.333 . S
O133 C135 1.214 . S
O134 Cd130 2.352 . S
O134 C137 1.258 . S
C135 O132 1.320 . S
C135 O133 1.214 . S
O136 Cd128 2.277 . S
O136 C131 1.209 . S
C137 O134 1.258 . S
C137 O139 1.282 . S
O138 Cd130 2.277 . S
O138 C131 1.226 . S
O139 Cd130 2.356 . S
O139 C137 1.282 . S
C140 O141 1.306 . S
C140 O143 1.160 . S
O141 C140 1.306 . S
O141 Cd142 2.228 . S
Cd142 O141 2.228 . S
Cd142 O146 2.273 . S
Cd142 O150 2.277 . S
O143 C140 1.160 . S
O143 Cd144 2.203 . S
Cd144 O143 2.203 . S
Cd144 O146 2.411 . S
Cd144 O147 2.333 . S
Cd144 O148 2.352 . S
Cd144 O152 2.277 . S
Cd144 O153 2.356 . S
C145 O150 1.209 . S
C145 O152 1.226 . S
O146 Cd142 2.273 . S
O146 Cd144 2.411 . S
O146 C149 1.320 . S
O147 Cd144 2.333 . S
O147 C149 1.214 . S
O148 Cd144 2.352 . S
O148 C151 1.258 . S
C149 O146 1.320 . S
C149 O147 1.214 . S
O150 Cd142 2.277 . S
O150 C145 1.209 . S
C151 O148 1.258 . S
C151 O153 1.282 . S
O152 Cd144 2.277 . S
O152 C145 1.226 . S
O153 Cd144 2.356 . S
O153 C151 1.282 . S
C154 O155 1.306 . S
C154 O157 1.160 . S
O155 C154 1.306 . S
O155 Cd156 2.228 . S
Cd156 O155 2.228 . S
Cd156 O160 2.273 . S
Cd156 O164 2.277 . S
O157 C154 1.160 . S
O157 Cd158 2.203 . S
Cd158 O157 2.203 . S
Cd158 O160 2.411 . S
Cd158 O161 2.333 . S
Cd158 O162 2.352 . S
Cd158 O166 2.277 . S
Cd158 O167 2.356 . S
C159 O164 1.209 . S
C159 O166 1.226 . S
O160 Cd156 2.273 . S
O160 Cd158 2.411 . S
O160 C163 1.320 . S
O161 Cd158 2.333 . S
O161 C163 1.214 . S
O162 Cd158 2.352 . S
O162 C165 1.258 . S
C163 O160 1.320 . S
C163 O161 1.214 . S
O164 Cd156 2.277 . S
O164 C159 1.209 . S
C165 O162 1.258 . S
C165 O167 1.282 . S
O166 Cd158 2.277 . S
O166 C159 1.226 . S
O167 Cd158 2.356 . S
O167 C165 1.282 . S
C168 O169 1.306 . S
C168 O171 1.160 . S
O169 C168 1.306 . S
O169 Cd170 2.228 1_655 S
Cd170 O169 2.228 1_455 S
Cd170 O174 2.273 . S
Cd170 O178 2.277 . S
O171 C168 1.160 . S
O171 Cd172 2.203 1_655 S
Cd172 O171 2.203 1_455 S
Cd172 O174 2.411 . S
Cd172 O175 2.333 . S
Cd172 O176 2.352 . S
Cd172 O180 2.277 . S
Cd172 O181 2.356 . S
C173 O178 1.209 . S
C173 O180 1.226 . S
O174 Cd170 2.273 . S
O174 Cd172 2.411 . S
O174 C177 1.320 . S
O175 Cd172 2.333 . S
O175 C177 1.214 . S
O176 Cd172 2.352 . S
O176 C179 1.258 . S
C177 O174 1.320 . S
C177 O175 1.214 . S
O178 Cd170 2.277 . S
O178 C173 1.209 . S
C179 O176 1.258 . S
C179 O181 1.282 . S
O180 Cd172 2.277 . S
O180 C173 1.226 . S
O181 Cd172 2.356 . S
O181 C179 1.282 . S
C182 O183 1.306 . S
C182 O185 1.160 . S
O183 C182 1.306 . S
O183 Cd184 2.228 1_655 S
Cd184 O183 2.228 1_455 S
Cd184 O188 2.273 . S
Cd184 O192 2.277 . S
O185 C182 1.160 . S
O185 Cd186 2.203 1_655 S
Cd186 O185 2.203 1_455 S
Cd186 O188 2.411 . S
Cd186 O189 2.333 . S
Cd186 O190 2.351 1_455 S
Cd186 O194 2.277 1_455 S
Cd186 O195 2.356 . S
C187 O192 1.215 . S
C187 O194 1.225 1_455 S
O188 Cd184 2.273 . S
O188 Cd186 2.411 . S
O188 C191 1.320 . S
O189 Cd186 2.333 . S
O189 C191 1.214 . S
O190 Cd186 2.351 1_655 S
O190 C193 1.255 1_655 S
C191 O188 1.320 . S
C191 O189 1.214 . S
O192 Cd184 2.277 . S
O192 C187 1.215 . S
C193 O190 1.255 1_455 S
C193 O195 1.282 . S
O194 Cd186 2.277 1_655 S
O194 C187 1.225 1_655 S
O195 Cd186 2.356 . S
O195 C193 1.282 . S
C196 O197 1.306 . S
C196 O199 1.160 . S
O197 C196 1.306 . S
O197 Cd198 2.228 . S
Cd198 O197 2.228 . S
Cd198 O202 2.273 . S
Cd198 O206 2.277 . S
O199 C196 1.160 . S
O199 Cd200 2.203 . S
Cd200 O199 2.203 . S
Cd200 O202 2.411 . S
Cd200 O203 2.333 . S
Cd200 O204 2.352 . S
Cd200 O208 2.277 . S
Cd200 O209 2.356 . S
C201 O206 1.209 . S
C201 O208 1.226 . S
O202 Cd198 2.273 . S
O202 Cd200 2.411 . S
O202 C205 1.320 . S
O203 Cd200 2.333 . S
O203 C205 1.214 . S
O204 Cd200 2.352 . S
O204 C207 1.258 . S
C205 O202 1.320 . S
C205 O203 1.214 . S
O206 Cd198 2.277 . S
O206 C201 1.209 . S
C207 O204 1.258 . S
C207 O209 1.282 . S
O208 Cd200 2.277 . S
O208 C201 1.226 . S
O209 Cd200 2.356 . S
O209 C207 1.282 . S
C210 O211 1.306 . S
C210 O213 1.160 . S
O211 C210 1.306 . S
O211 Cd212 2.228 . S
Cd212 O211 2.228 . S
Cd212 O216 2.273 . S
Cd212 O220 2.277 . S
O213 C210 1.160 . S
O213 Cd214 2.203 . S
Cd214 O213 2.203 . S
Cd214 O216 2.411 . S
Cd214 O217 2.333 . S
Cd214 O218 2.352 . S
Cd214 O222 2.277 . S
Cd214 O223 2.356 . S
C215 O220 1.209 . S
C215 O222 1.226 . S
O216 Cd212 2.273 . S
O216 Cd214 2.411 . S
O216 C219 1.320 . S
O217 Cd214 2.333 . S
O217 C219 1.214 . S
O218 Cd214 2.352 . S
O218 C221 1.258 . S
C219 O216 1.320 . S
C219 O217 1.214 . S
O220 Cd212 2.277 . S
O220 C215 1.209 . S
C221 O218 1.258 . S
C221 O223 1.282 . S
O222 Cd214 2.277 . S
O222 C215 1.226 . S
O223 Cd214 2.356 . S
O223 C221 1.282 . S
C224 O225 1.306 . S
C224 O227 1.160 . S
O225 C224 1.306 . S
O225 Cd226 2.228 . S
Cd226 O225 2.228 . S
Cd226 O230 2.273 . S
Cd226 O234 2.277 . S
O227 C224 1.160 . S
O227 Cd228 2.203 . S
Cd228 O227 2.203 . S
Cd228 O230 2.411 . S
Cd228 O231 2.333 . S
Cd228 O232 2.352 . S
Cd228 O236 2.277 . S
Cd228 O237 2.356 . S
C229 O234 1.209 . S
C229 O236 1.226 . S
O230 Cd226 2.273 . S
O230 Cd228 2.411 . S
O230 C233 1.320 . S
O231 Cd228 2.333 . S
O231 C233 1.214 . S
O232 Cd228 2.352 . S
O232 C235 1.258 . S
C233 O230 1.320 . S
C233 O231 1.214 . S
O234 Cd226 2.277 . S
O234 C229 1.209 . S
C235 O232 1.258 . S
C235 O237 1.282 . S
O236 Cd228 2.277 . S
O236 C229 1.226 . S
O237 Cd228 2.356 . S
O237 C235 1.282 . S
C238 O239 1.306 . S
C238 O241 1.160 . S
O239 C238 1.306 . S
O239 Cd240 2.228 . S
Cd240 O239 2.228 . S
Cd240 O244 2.273 . S
Cd240 O248 2.277 . S
O241 C238 1.160 . S
O241 Cd242 2.203 . S
Cd242 O241 2.203 . S
Cd242 O244 2.411 . S
Cd242 O245 2.333 . S
Cd242 O246 2.352 . S
Cd242 O250 2.277 . S
Cd242 O251 2.356 . S
C243 O248 1.209 . S
C243 O250 1.226 . S
O244 Cd240 2.273 . S
O244 Cd242 2.411 . S
O244 C247 1.320 . S
O245 Cd242 2.333 . S
O245 C247 1.214 . S
O246 Cd242 2.352 . S
O246 C249 1.258 . S
C247 O244 1.320 . S
C247 O245 1.214 . S
O248 Cd240 2.277 . S
O248 C243 1.209 . S
C249 O246 1.258 . S
C249 O251 1.282 . S
O250 Cd242 2.277 . S
O250 C243 1.226 . S
O251 Cd242 2.356 . S
O251 C249 1.282 . S
C252 O253 1.306 . S
C252 O255 1.160 . S
O253 C252 1.306 . S
O253 Cd254 2.228 . S
Cd254 O253 2.228 . S
Cd254 O258 2.273 . S
Cd254 O262 2.277 . S
O255 C252 1.160 . S
O255 Cd256 2.203 . S
Cd256 O255 2.203 . S
Cd256 O258 2.411 . S
Cd256 O259 2.333 . S
Cd256 O260 2.352 1_545 S
Cd256 O264 2.277 . S
Cd256 O265 2.356 1_545 S
C257 O262 1.209 . S
C257 O264 1.226 . S
O258 Cd254 2.273 . S
O258 Cd256 2.411 . S
O258 C261 1.320 . S
O259 Cd256 2.333 . S
O259 C261 1.214 . S
O260 Cd256 2.352 1_565 S
O260 C263 1.258 . S
C261 O258 1.320 . S
C261 O259 1.214 . S
O262 Cd254 2.277 . S
O262 C257 1.209 . S
C263 O260 1.258 . S
C263 O265 1.282 . S
O264 Cd256 2.277 . S
O264 C257 1.226 . S
O265 Cd256 2.356 1_565 S
O265 C263 1.282 . S
C266 O267 1.306 . S
C266 O269 1.160 . S
O267 C266 1.306 . S
O267 Cd268 2.228 1_554 S
Cd268 O267 2.228 1_556 S
Cd268 O272 2.273 1_556 S
Cd268 O276 2.277 . S
O269 C266 1.160 . S
O269 Cd270 2.203 . S
Cd270 O269 2.203 . S
Cd270 O272 2.411 . S
Cd270 O273 2.333 . S
Cd270 O274 2.352 . S
Cd270 O278 2.277 1_554 S
Cd270 O279 2.356 . S
C271 O276 1.209 . S
C271 O278 1.226 . S
O272 Cd268 2.273 1_554 S
O272 Cd270 2.411 . S
O272 C275 1.320 . S
O273 Cd270 2.333 . S
O273 C275 1.214 . S
O274 Cd270 2.352 . S
O274 C277 1.258 . S
C275 O272 1.320 . S
C275 O273 1.214 . S
O276 Cd268 2.277 . S
O276 C271 1.209 . S
C277 O274 1.258 . S
C277 O279 1.282 . S
O278 Cd270 2.277 1_556 S
O278 C271 1.226 . S
O279 Cd270 2.356 . S
O279 C277 1.282 . S
C280 O281 1.306 . S
C280 O283 1.160 1_554 S
O281 C280 1.306 . S
O281 Cd282 2.228 . S
Cd282 O281 2.228 . S
Cd282 O286 2.273 . S
Cd282 O290 2.277 . S
O283 C280 1.160 1_556 S
O283 Cd284 2.203 . S
Cd284 O283 2.203 . S
Cd284 O286 2.411 1_556 S
Cd284 O287 2.333 . S
Cd284 O288 2.352 . S
Cd284 O292 2.277 1_556 S
Cd284 O293 2.356 . S
C285 O290 1.209 . S
C285 O292 1.226 . S
O286 Cd282 2.273 . S
O286 Cd284 2.411 1_554 S
O286 C289 1.323 . S
O287 Cd284 2.333 . S
O287 C289 1.210 1_556 S
O288 Cd284 2.352 . S
O288 C291 1.258 . S
C289 O286 1.323 . S
C289 O287 1.210 1_554 S
O290 Cd282 2.277 . S
O290 C285 1.209 . S
C291 O288 1.258 . S
C291 O293 1.282 . S
O292 Cd284 2.277 1_554 S
O292 C285 1.226 . S
O293 Cd284 2.356 . S
O293 C291 1.282 . S
C294 O295 1.306 . S
C294 O297 1.160 . S
O295 C294 1.306 . S
O295 Cd296 2.228 . S
Cd296 O295 2.228 . S
Cd296 O300 2.273 . S
Cd296 O304 2.277 . S
O297 C294 1.160 . S
O297 Cd298 2.203 . S
Cd298 O297 2.203 . S
Cd298 O300 2.411 . S
Cd298 O301 2.333 . S
Cd298 O302 2.352 . S
Cd298 O306 2.277 . S
Cd298 O307 2.356 . S
C299 O304 1.209 . S
C299 O306 1.226 . S
O300 Cd296 2.273 . S
O300 Cd298 2.411 . S
O300 C303 1.320 . S
O301 Cd298 2.333 . S
O301 C303 1.214 . S
O302 Cd298 2.352 . S
O302 C305 1.258 . S
C303 O300 1.320 . S
C303 O301 1.214 . S
O304 Cd296 2.277 . S
O304 C299 1.209 . S
C305 O302 1.258 . S
C305 O307 1.282 . S
O306 Cd298 2.277 . S
O306 C299 1.226 . S
O307 Cd298 2.356 . S
O307 C305 1.282 . S
C308 O309 1.306 . S
C308 O311 1.160 . S
O309 C308 1.306 . S
O309 Cd310 2.228 . S
Cd310 O309 2.228 . S
Cd310 O314 2.273 . S
Cd310 O318 2.277 . S
O311 C308 1.160 . S
O311 Cd312 2.203 . S
Cd312 O311 2.203 . S
Cd312 O314 2.411 . S
Cd312 O315 2.333 . S
Cd312 O316 2.352 . S
Cd312 O320 2.277 . S
Cd312 O321 2.356 . S
C313 O318 1.209 . S
C313 O320 1.226 . S
O314 Cd310 2.273 . S
O314 Cd312 2.411 . S
O314 C317 1.320 . S
O315 Cd312 2.333 . S
O315 C317 1.214 . S
O316 Cd312 2.352 . S
O316 C319 1.258 . S
C317 O314 1.320 . S
C317 O315 1.214 . S
O318 Cd310 2.277 . S
O318 C313 1.209 . S
C319 O316 1.258 . S
C319 O321 1.282 . S
O320 Cd312 2.277 . S
O320 C313 1.226 . S
O321 Cd312 2.356 . S
O321 C319 1.282 . S
C322 O323 1.306 . S
C322 O325 1.160 . S
O323 C322 1.306 . S
O323 Cd324 2.228 . S
Cd324 O323 2.228 . S
Cd324 O328 2.273 . S
Cd324 O332 2.277 . S
O325 C322 1.160 . S
O325 Cd326 2.203 . S
Cd326 O325 2.203 . S
Cd326 O328 2.411 . S
Cd326 O329 2.333 . S
Cd326 O330 2.352 . S
Cd326 O334 2.277 . S
Cd326 O335 2.356 . S
C327 O332 1.209 . S
C327 O334 1.226 . S
O328 Cd324 2.273 . S
O328 Cd326 2.411 . S
O328 C331 1.320 . S
O329 Cd326 2.333 . S
O329 C331 1.214 . S
O330 Cd326 2.352 . S
O330 C333 1.258 . S
C331 O328 1.320 . S
C331 O329 1.214 . S
O332 Cd324 2.277 . S
O332 C327 1.209 . S
C333 O330 1.258 . S
C333 O335 1.282 . S
O334 Cd326 2.277 . S
O334 C327 1.226 . S
O335 Cd326 2.356 . S
O335 C333 1.282 . S
Co336 N341 2.057 1_554 S
Co336 O353 2.021 1_554 S
Co336 O356 2.062 1_455 S
Co336 O360 2.117 . S
Co336 O361 2.020 . S
C337 O357 1.259 . S
C337 O360 1.258 . S
Co338 N347 2.057 . S
Co338 O354 2.117 1_545 S
Co338 O355 2.020 1_455 S
Co338 O357 2.021 . S
Co338 O362 2.062 . S
C339 N341 1.316 . S
C339 N342 1.347 1_455 S
C339 H344 0.931 . S
C340 N341 1.365 1_655 S
C340 C343 1.366 . S
C340 H345 0.923 1_655 S
N341 Co336 2.057 1_556 S
N341 C339 1.316 . S
N341 C340 1.365 1_455 S
N342 C339 1.347 1_655 S
N342 C343 1.373 . S
C343 C340 1.366 . S
C343 N342 1.373 . S
C343 H364 0.931 . S
H344 C339 0.931 . S
H345 C340 0.923 1_455 S
C346 O353 1.259 1_564 S
C346 O354 1.258 . S
N347 Co338 2.057 . S
N347 C348 1.316 . S
N347 C349 1.375 1_545 S
C348 N347 1.316 . S
C348 N350 1.347 . S
C348 H359 0.931 . S
C349 N347 1.375 1_565 S
C349 C351 1.350 . S
C349 H358 0.930 . S
N350 C348 1.347 . S
N350 C351 1.373 1_545 S
C351 C349 1.350 . S
C351 N350 1.373 1_565 S
C351 H365 0.931 . S
C352 O355 1.256 . S
C352 O356 1.255 . S
O353 Co336 2.021 1_556 S
O353 C346 1.259 1_546 S
O354 Co338 2.117 1_565 S
O354 C346 1.258 . S
O355 Co338 2.020 1_655 S
O355 C352 1.256 . S
O356 Co336 2.062 1_655 S
O356 C352 1.255 . S
O357 C337 1.259 . S
O357 Co338 2.021 . S
H358 C349 0.930 . S
H359 C348 0.931 . S
O360 Co336 2.117 . S
O360 C337 1.258 . S
O361 Co336 2.020 . S
O361 C363 1.256 . S
O362 Co338 2.062 . S
O362 C363 1.255 . S
C363 O361 1.256 . S
C363 O362 1.255 . S
H364 C343 0.931 . S
H365 C351 0.931 . S
Co366 N371 2.057 . S
Co366 O383 2.021 . S
Co366 O386 2.062 . S
Co366 O390 2.117 . S
Co366 O391 2.020 . S
C367 O387 1.259 . S
C367 O390 1.258 . S
Co368 N377 2.057 . S
Co368 O384 2.117 . S
Co368 O385 2.020 . S
Co368 O387 2.021 . S
Co368 O392 2.062 . S
C369 N371 1.316 . S
C369 N372 1.347 . S
C369 H374 0.931 . S
C370 N371 1.375 . S
C370 C373 1.350 . S
C370 H375 0.930 . S
N371 Co366 2.057 . S
N371 C369 1.316 . S
N371 C370 1.375 . S
N372 C369 1.347 . S
N372 C373 1.373 . S
C373 C370 1.350 . S
C373 N372 1.373 . S
C373 H394 0.931 . S
H374 C369 0.931 . S
H375 C370 0.930 . S
C376 O383 1.259 . S
C376 O384 1.258 . S
N377 Co368 2.057 . S
N377 C378 1.316 . S
N377 C379 1.375 . S
C378 N377 1.316 . S
C378 N380 1.347 . S
C378 H389 0.931 . S
C379 N377 1.375 . S
C379 C381 1.350 . S
C379 H388 0.930 . S
N380 C378 1.347 . S
N380 C381 1.373 . S
C381 C379 1.350 . S
C381 N380 1.373 . S
C381 H395 0.931 . S
C382 O385 1.256 . S
C382 O386 1.255 . S
O383 Co366 2.021 . S
O383 C376 1.259 . S
O384 Co368 2.117 . S
O384 C376 1.258 . S
O385 Co368 2.020 . S
O385 C382 1.256 . S
O386 Co366 2.062 . S
O386 C382 1.255 . S
O387 C367 1.259 . S
O387 Co368 2.021 . S
H388 C379 0.930 . S
H389 C378 0.931 . S
O390 Co366 2.117 . S
O390 C367 1.258 . S
O391 Co366 2.020 . S
O391 C393 1.256 . S
O392 Co368 2.062 . S
O392 C393 1.255 . S
C393 O391 1.256 . S
C393 O392 1.255 . S
H394 C373 0.931 . S
H395 C381 0.931 . S
Co396 N401 2.057 . S
Co396 O413 2.021 1_545 S
Co396 O416 2.062 . S
Co396 O420 2.117 . S
Co396 O421 2.020 . S
C397 O417 1.259 . S
C397 O420 1.258 . S
Co398 N407 2.057 . S
Co398 O414 2.117 . S
Co398 O415 2.020 . S
Co398 O417 2.021 . S
Co398 O422 2.062 . S
C399 N401 1.316 1_565 S
C399 N402 1.347 1_565 S
C399 H404 0.931 . S
C400 N401 1.375 . S
C400 C403 1.350 . S
C400 H405 0.930 . S
N401 Co396 2.057 . S
N401 C399 1.316 1_545 S
N401 C400 1.375 . S
N402 C399 1.347 1_545 S
N402 C403 1.373 . S
C403 C400 1.350 . S
C403 N402 1.373 . S
C403 H424 0.931 . S
H404 C399 0.931 . S
H405 C400 0.930 . S
C406 O413 1.259 . S
C406 O414 1.258 1_565 S
N407 Co398 2.057 . S
N407 C408 1.316 . S
N407 C409 1.375 . S
C408 N407 1.316 . S
C408 N410 1.347 . S
C408 H419 0.931 . S
C409 N407 1.375 . S
C409 C411 1.350 . S
C409 H418 0.930 . S
N410 C408 1.347 . S
N410 C411 1.373 . S
C411 C409 1.350 . S
C411 N410 1.373 . S
C411 H425 0.931 . S
C412 O415 1.256 . S
C412 O416 1.255 . S
O413 Co396 2.021 1_565 S
O413 C406 1.259 . S
O414 Co398 2.117 . S
O414 C406 1.258 1_545 S
O415 Co398 2.020 . S
O415 C412 1.256 . S
O416 Co396 2.062 . S
O416 C412 1.255 . S
O417 C397 1.259 . S
O417 Co398 2.021 . S
H418 C409 0.930 . S
H419 C408 0.931 . S
O420 Co396 2.117 . S
O420 C397 1.258 . S
O421 Co396 2.020 . S
O421 C423 1.256 . S
O422 Co398 2.062 . S
O422 C423 1.255 . S
C423 O421 1.256 . S
C423 O422 1.255 . S
H424 C403 0.931 . S
H425 C411 0.931 . S
Co426 N431 2.057 . S
Co426 O443 2.021 . S
Co426 O446 2.062 . S
Co426 O450 2.117 . S
Co426 O451 2.020 . S
C427 O447 1.259 . S
C427 O450 1.258 . S
Co428 N437 2.057 . S
Co428 O444 2.117 . S
Co428 O445 2.020 . S
Co428 O447 2.021 . S
Co428 O452 2.062 . S
C429 N431 1.316 . S
C429 N432 1.347 . S
C429 H434 0.931 . S
C430 N431 1.375 . S
C430 C433 1.350 . S
C430 H435 0.930 . S
N431 Co426 2.057 . S
N431 C429 1.316 . S
N431 C430 1.375 . S
N432 C429 1.347 . S
N432 C433 1.373 . S
C433 C430 1.350 . S
C433 N432 1.373 . S
C433 H454 0.931 . S
H434 C429 0.931 . S
H435 C430 0.930 . S
C436 O443 1.259 . S
C436 O444 1.258 . S
N437 Co428 2.057 . S
N437 C438 1.316 . S
N437 C439 1.375 . S
C438 N437 1.316 . S
C438 N440 1.347 . S
C438 H449 0.931 . S
C439 N437 1.375 . S
C439 C441 1.350 . S
C439 H448 0.930 . S
N440 C438 1.347 . S
N440 C441 1.373 . S
C441 C439 1.350 . S
C441 N440 1.373 . S
C441 H455 0.931 . S
C442 O445 1.256 . S
C442 O446 1.255 . S
O443 Co426 2.021 . S
O443 C436 1.259 . S
O444 Co428 2.117 . S
O444 C436 1.258 . S
O445 Co428 2.020 . S
O445 C442 1.256 . S
O446 Co426 2.062 . S
O446 C442 1.255 . S
O447 C427 1.259 . S
O447 Co428 2.021 . S
H448 C439 0.930 . S
H449 C438 0.931 . S
O450 Co426 2.117 . S
O450 C427 1.258 . S
O451 Co426 2.020 . S
O451 C453 1.256 . S
O452 Co428 2.062 . S
O452 C453 1.255 . S
C453 O451 1.256 . S
C453 O452 1.255 . S
H454 C433 0.931 . S
H455 C441 0.931 . S
Co456 N461 2.057 1_545 S
Co456 O473 2.021 . S
Co456 O476 2.051 1_545 S
Co456 O480 2.117 . S
Co456 O481 2.020 1_455 S
C457 O477 1.259 . S
C457 O480 1.258 . S
Co458 N467 2.057 . S
Co458 O474 2.117 . S
Co458 O475 2.020 . S
Co458 O477 2.021 . S
Co458 O482 2.062 1_455 S
C459 N461 1.316 . S
C459 N462 1.347 . S
C459 H464 0.931 . S
C460 N461 1.375 1_655 S
C460 C463 1.350 . S
C460 H465 0.930 . S
N461 Co456 2.057 1_565 S
N461 C459 1.316 . S
N461 C460 1.375 1_455 S
N462 C459 1.347 . S
N462 C463 1.373 1_455 S
C463 C460 1.350 . S
C463 N462 1.373 1_655 S
C463 H484 0.931 . S
H464 C459 0.931 . S
H465 C460 0.930 . S
C466 O473 1.259 . S
C466 O474 1.258 . S
N467 Co458 2.057 . S
N467 C468 1.316 . S
N467 C469 1.375 . S
C468 N467 1.316 . S
C468 N470 1.347 . S
C468 H479 0.931 . S
C469 N467 1.375 . S
C469 C471 1.350 . S
C469 H478 0.930 . S
N470 C468 1.347 . S
N470 C471 1.373 . S
C471 C469 1.350 . S
C471 N470 1.373 . S
C471 H485 0.931 . S
C472 O475 1.256 . S
C472 O476 1.227 1_545 S
O473 Co456 2.021 . S
O473 C466 1.259 . S
O474 Co458 2.117 . S
O474 C466 1.258 . S
O475 Co458 2.020 . S
O475 C472 1.256 . S
O476 Co456 2.051 1_565 S
O476 C472 1.227 1_565 S
O477 C457 1.259 . S
O477 Co458 2.021 . S
H478 C469 0.930 . S
H479 C468 0.931 . S
O480 Co456 2.117 . S
O480 C457 1.258 . S
O481 Co456 2.020 1_655 S
O481 C483 1.256 . S
O482 Co458 2.062 1_655 S
O482 C483 1.255 . S
C483 O481 1.256 . S
C483 O482 1.255 . S
H484 C463 0.931 . S
H485 C471 0.931 . S
Co486 N491 2.057 . S
Co486 O503 2.021 . S
Co486 O506 2.062 . S
Co486 O510 2.117 . S
Co486 O511 2.020 . S
C487 O507 1.259 . S
C487 O510 1.258 . S
Co488 N497 2.057 . S
Co488 O504 2.117 . S
Co488 O505 2.020 . S
Co488 O507 2.021 . S
Co488 O512 2.062 . S
C489 N491 1.316 . S
C489 N492 1.347 . S
C489 H494 0.931 . S
C490 N491 1.375 . S
C490 C493 1.350 . S
C490 H495 0.930 . S
N491 Co486 2.057 . S
N491 C489 1.316 . S
N491 C490 1.375 . S
N492 C489 1.347 . S
N492 C493 1.373 . S
C493 C490 1.350 . S
C493 N492 1.373 . S
C493 H514 0.931 . S
H494 C489 0.931 . S
H495 C490 0.930 . S
C496 O503 1.259 . S
C496 O504 1.258 . S
N497 Co488 2.057 . S
N497 C498 1.316 . S
N497 C499 1.375 . S
C498 N497 1.316 . S
C498 N500 1.347 . S
C498 H509 0.931 . S
C499 N497 1.375 . S
C499 C501 1.350 . S
C499 H508 0.930 . S
N500 C498 1.347 . S
N500 C501 1.373 . S
C501 C499 1.350 . S
C501 N500 1.373 . S
C501 H515 0.931 . S
C502 O505 1.256 . S
C502 O506 1.255 . S
O503 Co486 2.021 . S
O503 C496 1.259 . S
O504 Co488 2.117 . S
O504 C496 1.258 . S
O505 Co488 2.020 . S
O505 C502 1.256 . S
O506 Co486 2.062 . S
O506 C502 1.255 . S
O507 C487 1.259 . S
O507 Co488 2.021 . S
H508 C499 0.930 . S
H509 C498 0.931 . S
O510 Co486 2.117 . S
O510 C487 1.258 . S
O511 Co486 2.020 . S
O511 C513 1.256 . S
O512 Co488 2.062 . S
O512 C513 1.255 . S
C513 O511 1.256 . S
C513 O512 1.255 . S
H514 C493 0.931 . S
H515 C501 0.931 . S
Co516 N521 2.057 1_554 S
Co516 O533 2.021 . S
Co516 O536 2.062 1_554 S
Co516 O540 2.117 . S
Co516 O541 2.020 1_545 S
C517 O537 1.259 . S
C517 O540 1.258 . S
Co518 N527 2.057 . S
Co518 O534 2.117 . S
Co518 O535 2.020 . S
Co518 O537 2.021 . S
Co518 O542 2.062 . S
C519 N521 1.316 . S
C519 N522 1.347 . S
C519 H524 0.931 . S
C520 N521 1.375 . S
C520 C523 1.350 . S
C520 H525 0.930 1_545 S
N521 Co516 2.057 1_556 S
N521 C519 1.316 . S
N521 C520 1.375 . S
N522 C519 1.347 . S
N522 C523 1.373 . S
C523 C520 1.350 . S
C523 N522 1.373 . S
C523 H544 0.931 1_545 S
H524 C519 0.931 . S
H525 C520 0.930 1_565 S
C526 O533 1.259 . S
C526 O534 1.258 . S
N527 Co518 2.057 . S
N527 C528 1.316 . S
N527 C529 1.375 . S
C528 N527 1.316 . S
C528 N530 1.347 . S
C528 H539 0.931 . S
C529 N527 1.375 . S
C529 C531 1.350 . S
C529 H538 0.930 . S
N530 C528 1.347 . S
N530 C531 1.373 . S
C531 C529 1.350 . S
C531 N530 1.373 . S
C531 H545 0.931 . S
C532 O535 1.256 . S
C532 O536 1.255 1_554 S
O533 Co516 2.021 . S
O533 C526 1.259 . S
O534 Co518 2.117 . S
O534 C526 1.258 . S
O535 Co518 2.020 . S
O535 C532 1.256 . S
O536 Co516 2.062 1_556 S
O536 C532 1.255 1_556 S
O537 C517 1.259 . S
O537 Co518 2.021 . S
H538 C529 0.930 . S
H539 C528 0.931 . S
O540 Co516 2.117 . S
O540 C517 1.258 . S
O541 Co516 2.020 1_565 S
O541 C543 1.256 . S
O542 Co518 2.062 . S
O542 C543 1.255 1_545 S
C543 O541 1.256 . S
C543 O542 1.255 1_565 S
H544 C523 0.931 1_565 S
H545 C531 0.931 . S
Co546 N551 2.057 . S
Co546 O563 2.021 . S
Co546 O566 2.062 . S
Co546 O570 2.117 . S
Co546 O571 2.020 . S
C547 O567 1.259 . S
C547 O570 1.258 . S
Co548 N557 2.057 . S
Co548 O564 2.117 . S
Co548 O565 2.020 . S
Co548 O567 2.021 . S
Co548 O572 2.062 . S
C549 N551 1.316 . S
C549 N552 1.347 . S
C549 H554 0.931 . S
C550 N551 1.375 . S
C550 C553 1.350 . S
C550 H555 0.930 . S
N551 Co546 2.057 . S
N551 C549 1.316 . S
N551 C550 1.375 . S
N552 C549 1.347 . S
N552 C553 1.373 . S
C553 C550 1.350 . S
C553 N552 1.373 . S
C553 H574 0.931 . S
H554 C549 0.931 . S
H555 C550 0.930 . S
C556 O563 1.259 . S
C556 O564 1.258 . S
N557 Co548 2.057 . S
N557 C558 1.316 . S
N557 C559 1.375 . S
C558 N557 1.316 . S
C558 N560 1.347 . S
C558 H569 0.931 . S
C559 N557 1.375 . S
C559 C561 1.350 . S
C559 H568 0.930 . S
N560 C558 1.347 . S
N560 C561 1.373 . S
C561 C559 1.350 . S
C561 N560 1.373 . S
C561 H575 0.931 . S
C562 O565 1.256 . S
C562 O566 1.255 . S
O563 Co546 2.021 . S
O563 C556 1.259 . S
O564 Co548 2.117 . S
O564 C556 1.258 . S
O565 Co548 2.020 . S
O565 C562 1.256 . S
O566 Co546 2.062 . S
O566 C562 1.255 . S
O567 C547 1.259 . S
O567 Co548 2.021 . S
H568 C559 0.930 . S
H569 C558 0.931 . S
O570 Co546 2.117 . S
O570 C547 1.258 . S
O571 Co546 2.020 . S
O571 C573 1.256 . S
O572 Co548 2.062 . S
O572 C573 1.255 . S
C573 O571 1.256 . S
C573 O572 1.255 . S
H574 C553 0.931 . S
H575 C561 0.931 . S
Co576 N581 2.057 . S
Co576 O593 2.021 1_554 S
Co576 O596 2.062 . S
Co576 O600 2.117 . S
Co576 O601 2.020 . S
C577 O597 1.259 . S
C577 O600 1.258 . S
Co578 N587 2.057 . S
Co578 O594 2.117 . S
Co578 O595 2.020 . S
Co578 O597 2.021 . S
Co578 O602 2.062 . S
C579 N581 1.316 1_556 S
C579 N582 1.347 1_556 S
C579 H584 0.931 . S
C580 N581 1.375 . S
C580 C583 1.350 . S
C580 H585 0.930 . S
N581 Co576 2.057 . S
N581 C579 1.316 1_554 S
N581 C580 1.375 . S
N582 C579 1.347 1_554 S
N582 C583 1.373 . S
C583 C580 1.350 . S
C583 N582 1.373 . S
C583 H604 0.931 . S
H584 C579 0.931 . S
H585 C580 0.930 . S
C586 O593 1.259 . S
C586 O594 1.258 1_556 S
N587 Co578 2.057 . S
N587 C588 1.316 . S
N587 C589 1.375 . S
C588 N587 1.316 . S
C588 N590 1.347 . S
C588 H599 0.931 . S
C589 N587 1.375 . S
C589 C591 1.350 . S
C589 H598 0.930 . S
N590 C588 1.347 . S
N590 C591 1.373 . S
C591 C589 1.350 . S
C591 N590 1.373 . S
C591 H605 0.931 . S
C592 O595 1.256 . S
C592 O596 1.255 . S
O593 Co576 2.021 1_556 S
O593 C586 1.259 . S
O594 Co578 2.117 . S
O594 C586 1.258 1_554 S
O595 Co578 2.020 . S
O595 C592 1.256 . S
O596 Co576 2.062 . S
O596 C592 1.255 . S
O597 C577 1.259 . S
O597 Co578 2.021 . S
H598 C589 0.930 . S
H599 C588 0.931 . S
O600 Co576 2.117 . S
O600 C577 1.258 . S
O601 Co576 2.020 . S
O601 C603 1.256 . S
O602 Co578 2.062 . S
O602 C603 1.255 . S
C603 O601 1.256 . S
C603 O602 1.255 . S
H604 C583 0.931 . S
H605 C591 0.931 . S
Co606 N611 2.057 . S
Co606 O623 2.021 . S
Co606 O626 2.062 . S
Co606 O630 2.117 . S
Co606 O631 2.020 . S
C607 O627 1.259 . S
C607 O630 1.258 . S
Co608 N617 2.057 . S
Co608 O624 2.117 . S
Co608 O625 2.020 . S
Co608 O627 2.021 . S
Co608 O632 2.062 . S
C609 N611 1.316 . S
C609 N612 1.347 . S
C609 H614 0.931 . S
C610 N611 1.375 . S
C610 C613 1.350 . S
C610 H615 0.930 . S
N611 Co606 2.057 . S
N611 C609 1.316 . S
N611 C610 1.375 . S
N612 C609 1.347 . S
N612 C613 1.373 . S
C613 C610 1.350 . S
C613 N612 1.373 . S
C613 H634 0.931 . S
H614 C609 0.931 . S
H615 C610 0.930 . S
C616 O623 1.259 . S
C616 O624 1.258 . S
N617 Co608 2.057 . S
N617 C618 1.316 . S
N617 C619 1.375 . S
C618 N617 1.316 . S
C618 N620 1.347 . S
C618 H629 0.931 . S
C619 N617 1.375 . S
C619 C621 1.350 . S
C619 H628 0.930 . S
N620 C618 1.347 . S
N620 C621 1.373 . S
C621 C619 1.350 . S
C621 N620 1.373 . S
C621 H635 0.931 . S
C622 O625 1.256 . S
C622 O626 1.255 . S
O623 Co606 2.021 . S
O623 C616 1.259 . S
O624 Co608 2.117 . S
O624 C616 1.258 . S
O625 Co608 2.020 . S
O625 C622 1.256 . S
O626 Co606 2.062 . S
O626 C622 1.255 . S
O627 C607 1.259 . S
O627 Co608 2.021 . S
H628 C619 0.930 . S
H629 C618 0.931 . S
O630 Co606 2.117 . S
O630 C607 1.258 . S
O631 Co606 2.020 . S
O631 C633 1.256 . S
O632 Co608 2.062 . S
O632 C633 1.255 . S
C633 O631 1.256 . S
C633 O632 1.255 . S
H634 C613 0.931 . S
H635 C621 0.931 . S
Co636 N641 2.057 . S
Co636 O653 2.021 1_455 S
Co636 O656 2.062 . S
Co636 O660 2.117 . S
Co636 O661 2.020 . S
C637 O657 1.259 . S
C637 O660 1.258 . S
Co638 N647 2.057 . S
Co638 O654 2.121 . S
Co638 O655 2.020 . S
Co638 O657 2.021 . S
Co638 O662 2.062 . S
C639 N641 1.316 1_655 S
C639 N642 1.351 . S
C639 H644 0.931 . S
C640 N641 1.375 . S
C640 C643 1.350 . S
C640 H645 0.930 . S
N641 Co636 2.057 . S
N641 C639 1.316 1_455 S
N641 C640 1.375 . S
N642 C639 1.351 . S
N642 C643 1.349 1_655 S
C643 C640 1.350 . S
C643 N642 1.349 1_455 S
C643 H664 0.931 . S
H644 C639 0.931 . S
H645 C640 0.930 . S
C646 O653 1.259 . S
C646 O654 1.255 1_655 S
N647 Co638 2.057 . S
N647 C648 1.316 . S
N647 C649 1.375 . S
C648 N647 1.316 . S
C648 N650 1.347 . S
C648 H659 0.931 . S
C649 N647 1.375 . S
C649 C651 1.350 . S
C649 H658 0.930 . S
N650 C648 1.347 . S
N650 C651 1.373 . S
C651 C649 1.350 . S
C651 N650 1.373 . S
C651 H665 0.931 . S
C652 O655 1.256 . S
C652 O656 1.255 . S
O653 Co636 2.021 1_655 S
O653 C646 1.259 . S
O654 Co638 2.121 . S
O654 C646 1.255 1_455 S
O655 Co638 2.020 . S
O655 C652 1.256 . S
O656 Co636 2.062 . S
O656 C652 1.255 . S
O657 C637 1.259 . S
O657 Co638 2.021 . S
H658 C649 0.930 . S
H659 C648 0.931 . S
O660 Co636 2.117 . S
O660 C637 1.258 . S
O661 Co636 2.020 . S
O661 C663 1.256 . S
O662 Co638 2.062 . S
O662 C663 1.255 . S
C663 O661 1.256 . S
C663 O662 1.255 . S
H664 C643 0.931 . S
H665 C651 0.931 . S
Co666 N671 2.057 . S
Co666 O683 2.021 . S
Co666 O686 2.062 . S
Co666 O690 2.117 . S
Co666 O691 2.020 . S
C667 O687 1.259 . S
C667 O690 1.258 . S
Co668 N677 2.057 . S
Co668 O684 2.117 . S
Co668 O685 2.020 . S
Co668 O687 2.021 . S
Co668 O692 2.062 . S
C669 N671 1.316 . S
C669 N672 1.347 . S
C669 H674 0.931 . S
C670 N671 1.375 . S
C670 C673 1.350 . S
C670 H675 0.930 . S
N671 Co666 2.057 . S
N671 C669 1.316 . S
N671 C670 1.375 . S
N672 C669 1.347 . S
N672 C673 1.373 . S
C673 C670 1.350 . S
C673 N672 1.373 . S
C673 H694 0.931 . S
H674 C669 0.931 . S
H675 C670 0.930 . S
C676 O683 1.259 . S
C676 O684 1.258 . S
N677 Co668 2.057 . S
N677 C678 1.316 . S
N677 C679 1.375 . S
C678 N677 1.316 . S
C678 N680 1.347 . S
C678 H689 0.931 . S
C679 N677 1.375 . S
C679 C681 1.350 . S
C679 H688 0.930 . S
N680 C678 1.347 . S
N680 C681 1.373 . S
C681 C679 1.350 . S
C681 N680 1.373 . S
C681 H695 0.931 . S
C682 O685 1.256 . S
C682 O686 1.255 . S
O683 Co666 2.021 . S
O683 C676 1.259 . S
O684 Co668 2.117 . S
O684 C676 1.258 . S
O685 Co668 2.020 . S
O685 C682 1.256 . S
O686 Co666 2.062 . S
O686 C682 1.255 . S
O687 C667 1.259 . S
O687 Co668 2.021 . S
H688 C679 0.930 . S
H689 C678 0.931 . S
O690 Co666 2.117 . S
O690 C667 1.258 . S
O691 Co666 2.020 . S
O691 C693 1.256 . S
O692 Co668 2.062 . S
O692 C693 1.255 . S
C693 O691 1.256 . S
C693 O692 1.255 . S
H694 C673 0.931 . S
H695 C681 0.931 . S
Co696 N701 2.057 . S
Co696 O713 2.021 . S
Co696 O716 2.062 . S
Co696 O720 2.117 . S
Co696 O721 2.020 . S
C697 O717 1.259 . S
C697 O720 1.258 . S
Co698 N707 2.057 . S
Co698 O714 2.117 . S
Co698 O715 2.020 . S
Co698 O717 2.021 . S
Co698 O722 2.062 . S
C699 N701 1.316 . S
C699 N702 1.347 . S
C699 H704 0.931 . S
C700 N701 1.375 . S
C700 C703 1.350 . S
C700 H705 0.930 . S
N701 Co696 2.057 . S
N701 C699 1.316 . S
N701 C700 1.375 . S
N702 C699 1.347 . S
N702 C703 1.373 . S
C703 C700 1.350 . S
C703 N702 1.373 . S
C703 H724 0.931 . S
H704 C699 0.931 . S
H705 C700 0.930 . S
C706 O713 1.259 . S
C706 O714 1.258 . S
N707 Co698 2.057 . S
N707 C708 1.316 . S
N707 C709 1.375 . S
C708 N707 1.316 . S
C708 N710 1.347 . S
C708 H719 0.931 . S
C709 N707 1.375 . S
C709 C711 1.350 . S
C709 H718 0.930 . S
N710 C708 1.347 . S
N710 C711 1.373 . S
C711 C709 1.350 . S
C711 N710 1.373 . S
C711 H725 0.931 . S
C712 O715 1.256 . S
C712 O716 1.255 . S
O713 Co696 2.021 . S
O713 C706 1.259 . S
O714 Co698 2.117 . S
O714 C706 1.258 . S
O715 Co698 2.020 . S
O715 C712 1.256 . S
O716 Co696 2.062 . S
O716 C712 1.255 . S
O717 C697 1.259 . S
O717 Co698 2.021 . S
H718 C709 0.930 . S
H719 C708 0.931 . S
O720 Co696 2.117 . S
O720 C697 1.258 . S
O721 Co696 2.020 . S
O721 C723 1.256 . S
O722 Co698 2.062 . S
O722 C723 1.255 . S
C723 O721 1.256 . S
C723 O722 1.255 . S
H724 C703 0.931 . S
H725 C711 0.931 . S
Co726 N731 2.057 . S
Co726 O743 2.021 . S
Co726 O746 2.062 . S
Co726 O750 2.117 . S
Co726 O751 2.020 . S
C727 O747 1.259 . S
C727 O750 1.258 . S
Co728 N737 2.057 . S
Co728 O744 2.117 . S
Co728 O745 2.020 . S
Co728 O747 2.021 . S
Co728 O752 2.062 . S
C729 N731 1.316 . S
C729 N732 1.347 . S
C729 H734 0.931 . S
C730 N731 1.375 . S
C730 C733 1.350 . S
C730 H735 0.930 . S
N731 Co726 2.057 . S
N731 C729 1.316 . S
N731 C730 1.375 . S
N732 C729 1.347 . S
N732 C733 1.373 . S
C733 C730 1.350 . S
C733 N732 1.373 . S
C733 H754 0.931 . S
H734 C729 0.931 . S
H735 C730 0.930 . S
C736 O743 1.259 . S
C736 O744 1.258 . S
N737 Co728 2.057 . S
N737 C738 1.316 . S
N737 C739 1.375 . S
C738 N737 1.316 . S
C738 N740 1.347 . S
C738 H749 0.931 . S
C739 N737 1.375 . S
C739 C741 1.350 . S
C739 H748 0.930 . S
N740 C738 1.347 . S
N740 C741 1.373 . S
C741 C739 1.350 . S
C741 N740 1.373 . S
C741 H755 0.931 . S
C742 O745 1.256 . S
C742 O746 1.255 . S
O743 Co726 2.021 . S
O743 C736 1.259 . S
O744 Co728 2.117 . S
O744 C736 1.258 . S
O745 Co728 2.020 . S
O745 C742 1.256 . S
O746 Co726 2.062 . S
O746 C742 1.255 . S
O747 C727 1.259 . S
O747 Co728 2.021 . S
H748 C739 0.930 . S
H749 C738 0.931 . S
O750 Co726 2.117 . S
O750 C727 1.258 . S
O751 Co726 2.020 . S
O751 C753 1.256 . S
O752 Co728 2.062 . S
O752 C753 1.255 . S
C753 O751 1.256 . S
C753 O752 1.255 . S
H754 C733 0.931 . S
H755 C741 0.931 . S
Co756 N761 2.057 . S
Co756 O773 2.021 . S
Co756 O776 2.062 . S
Co756 O780 2.117 . S
Co756 O781 2.020 . S
C757 O777 1.259 . S
C757 O780 1.258 . S
Co758 N767 2.057 . S
Co758 O774 2.117 . S
Co758 O775 2.020 . S
Co758 O777 2.021 . S
Co758 O782 2.062 . S
C759 N761 1.316 . S
C759 N762 1.347 . S
C759 H764 0.931 . S
C760 N761 1.375 . S
C760 C763 1.350 . S
C760 H765 0.930 . S
N761 Co756 2.057 . S
N761 C759 1.316 . S
N761 C760 1.375 . S
N762 C759 1.347 . S
N762 C763 1.373 . S
C763 C760 1.350 . S
C763 N762 1.373 . S
C763 H784 0.931 . S
H764 C759 0.931 . S
H765 C760 0.930 . S
C766 O773 1.259 . S
C766 O774 1.258 . S
N767 Co758 2.057 . S
N767 C768 1.316 . S
N767 C769 1.375 . S
C768 N767 1.316 . S
C768 N770 1.347 . S
C768 H779 0.931 . S
C769 N767 1.375 . S
C769 C771 1.350 . S
C769 H778 0.930 . S
N770 C768 1.347 . S
N770 C771 1.373 . S
C771 C769 1.350 . S
C771 N770 1.373 . S
C771 H785 0.931 . S
C772 O775 1.256 . S
C772 O776 1.255 . S
O773 Co756 2.021 . S
O773 C766 1.259 . S
O774 Co758 2.117 . S
O774 C766 1.258 . S
O775 Co758 2.020 . S
O775 C772 1.256 . S
O776 Co756 2.062 . S
O776 C772 1.255 . S
O777 C757 1.259 . S
O777 Co758 2.021 . S
H778 C769 0.930 . S
H779 C768 0.931 . S
O780 Co756 2.117 . S
O780 C757 1.258 . S
O781 Co756 2.020 . S
O781 C783 1.256 . S
O782 Co758 2.062 . S
O782 C783 1.255 . S
C783 O781 1.256 . S
C783 O782 1.255 . S
H784 C763 0.931 . S
H785 C771 0.931 . S
Co786 N791 2.057 1_455 S
Co786 O803 2.021 . S
Co786 O806 2.062 1_455 S
Co786 O810 2.117 . S
Co786 O811 2.020 1_554 S
C787 O807 1.259 . S
C787 O810 1.258 . S
Co788 N797 2.057 . S
Co788 O804 2.117 . S
Co788 O805 2.020 . S
Co788 O807 2.021 . S
Co788 O812 2.062 1_554 S
C789 N791 1.316 . S
C789 N792 1.347 . S
C789 H794 0.931 . S
C790 N791 1.381 . S
C790 C793 1.350 . S
C790 H795 0.925 1_554 S
N791 Co786 2.057 1_655 S
N791 C789 1.316 . S
N791 C790 1.381 . S
N792 C789 1.347 . S
N792 C793 1.373 . S
C793 C790 1.350 . S
C793 N792 1.373 . S
C793 H814 0.931 1_554 S
H794 C789 0.931 . S
H795 C790 0.925 1_556 S
C796 O803 1.259 . S
C796 O804 1.258 . S
N797 Co788 2.057 . S
N797 C798 1.316 . S
N797 C799 1.375 . S
C798 N797 1.316 . S
C798 N800 1.347 . S
C798 H809 0.931 . S
C799 N797 1.375 . S
C799 C801 1.350 . S
C799 H808 0.930 . S
N800 C798 1.347 . S
N800 C801 1.373 . S
C801 C799 1.350 . S
C801 N800 1.373 . S
C801 H815 0.931 . S
C802 O805 1.256 . S
C802 O806 1.255 1_455 S
O803 Co786 2.021 . S
O803 C796 1.259 . S
O804 Co788 2.117 . S
O804 C796 1.258 . S
O805 Co788 2.020 . S
O805 C802 1.256 . S
O806 Co786 2.062 1_655 S
O806 C802 1.255 1_655 S
O807 C787 1.259 . S
O807 Co788 2.021 . S
H808 C799 0.930 . S
H809 C798 0.931 . S
O810 Co786 2.117 . S
O810 C787 1.258 . S
O811 Co786 2.020 1_556 S
O811 C813 1.256 . S
O812 Co788 2.062 1_556 S
O812 C813 1.255 . S
C813 O811 1.256 . S
C813 O812 1.255 . S
H814 C793 0.931 1_556 S
H815 C801 0.931 . S
C816 C817 1.391 . S
C816 C818 1.394 . S
C816 H832 0.931 . S
C817 C816 1.391 . S
C817 C821 1.376 . S
C818 C816 1.394 . S
C818 C819 1.369 . S
C818 C822 1.531 1_455 S
C819 C818 1.369 . S
C819 C820 1.410 . S
C819 C827 1.503 . S
C820 C819 1.410 . S
C820 C821 1.392 . S
C820 C823 1.511 . S
C821 C817 1.376 . S
C821 C820 1.392 . S
C821 H833 0.929 . S
C822 C818 1.531 1_655 S
C822 H834 0.960 1_655 S
C822 H835 0.962 . S
C822 H836 0.960 . S
C823 C820 1.511 . S
C823 H837 0.961 . S
C823 H838 0.961 . S
C823 H839 0.961 . S
C824 C825 1.385 . S
C824 C826 1.368 . S
C824 H840 0.912 1_455 S
C825 C824 1.385 . S
C825 C829 1.408 . S
C826 C824 1.368 . S
C826 C827 1.370 . S
C826 C830 1.524 1_455 S
C827 C819 1.503 . S
C827 C826 1.370 . S
C827 C828 1.403 . S
C828 C827 1.403 . S
C828 C829 1.404 . S
C828 C831 1.539 . S
C829 C825 1.408 . S
C829 C828 1.404 . S
C829 H841 0.930 . S
C830 C826 1.524 1_655 S
C830 H842 0.956 . S
C830 H843 0.961 . S
C830 H844 0.961 . S
C831 C828 1.539 . S
C831 H845 0.958 . S
C831 H846 0.961 . S
C831 H847 0.960 . S
H832 C816 0.931 . S
H833 C821 0.929 . S
H834 C822 0.960 1_455 S
H835 C822 0.962 . S
H836 C822 0.960 . S
H837 C823 0.961 . S
H838 C823 0.961 . S
H839 C823 0.961 . S
H840 C824 0.912 1_655 S
H841 C829 0.930 . S
H842 C830 0.956 . S
H843 C830 0.961 . S
H844 C830 0.961 . S
H845 C831 0.958 . S
H846 C831 0.961 . S
H847 C831 0.960 . S
C848 C849 1.391 . S
C848 C850 1.394 . S
C848 H864 0.931 . S
C849 C848 1.391 . S
C849 C853 1.376 . S
C850 C848 1.394 . S
C850 C851 1.369 . S
C850 C854 1.531 . S
C851 C850 1.369 . S
C851 C852 1.410 . S
C851 C859 1.503 . S
C852 C851 1.410 . S
C852 C853 1.392 . S
C852 C855 1.511 . S
C853 C849 1.376 . S
C853 C852 1.392 . S
C853 H865 0.929 . S
C854 C850 1.531 . S
C854 H866 0.960 . S
C854 H867 0.962 . S
C854 H868 0.960 . S
C855 C852 1.511 . S
C855 H869 0.961 . S
C855 H870 0.961 . S
C855 H871 0.961 . S
C856 C857 1.370 . S
C856 C858 1.363 . S
C856 H872 0.931 . S
C857 C856 1.370 . S
C857 C861 1.408 . S
C858 C856 1.363 . S
C858 C859 1.370 . S
C858 C862 1.524 . S
C859 C851 1.503 . S
C859 C858 1.370 . S
C859 C860 1.403 . S
C860 C859 1.403 . S
C860 C861 1.404 . S
C860 C863 1.539 . S
C861 C857 1.408 . S
C861 C860 1.404 . S
C861 H873 0.930 . S
C862 C858 1.524 . S
C862 H874 0.956 . S
C862 H875 0.961 . S
C862 H876 0.961 . S
C863 C860 1.539 . S
C863 H877 0.958 . S
C863 H878 0.961 . S
C863 H879 0.960 . S
H864 C848 0.931 . S
H865 C853 0.929 . S
H866 C854 0.960 . S
H867 C854 0.962 . S
H868 C854 0.960 . S
H869 C855 0.961 . S
H870 C855 0.961 . S
H871 C855 0.961 . S
H872 C856 0.931 . S
H873 C861 0.930 . S
H874 C862 0.956 . S
H875 C862 0.961 . S
H876 C862 0.961 . S
H877 C863 0.958 . S
H878 C863 0.961 . S
H879 C863 0.960 . S
C880 C881 1.391 . S
C880 C882 1.394 . S
C880 H896 0.931 . S
C881 C880 1.391 . S
C881 C885 1.376 . S
C882 C880 1.394 . S
C882 C883 1.369 . S
C882 C886 1.531 . S
C883 C882 1.369 . S
C883 C884 1.410 . S
C883 C891 1.503 . S
C884 C883 1.410 . S
C884 C885 1.392 . S
C884 C887 1.511 . S
C885 C881 1.376 . S
C885 C884 1.392 . S
C885 H897 0.929 . S
C886 C882 1.531 . S
C886 H898 0.960 . S
C886 H899 0.962 . S
C886 H900 0.960 . S
C887 C884 1.511 . S
C887 H901 0.961 . S
C887 H902 0.961 . S
C887 H903 0.961 . S
C888 C889 1.370 . S
C888 C890 1.363 . S
C888 H904 0.931 . S
C889 C888 1.370 . S
C889 C893 1.408 . S
C890 C888 1.363 . S
C890 C891 1.370 . S
C890 C894 1.524 . S
C891 C883 1.503 . S
C891 C890 1.370 . S
C891 C892 1.403 . S
C892 C891 1.403 . S
C892 C893 1.404 . S
C892 C895 1.539 . S
C893 C889 1.408 . S
C893 C892 1.404 . S
C893 H905 0.930 . S
C894 C890 1.524 . S
C894 H906 0.956 . S
C894 H907 0.961 . S
C894 H908 0.961 . S
C895 C892 1.539 . S
C895 H909 0.958 . S
C895 H910 0.961 . S
C895 H911 0.960 . S
H896 C880 0.931 . S
H897 C885 0.929 . S
H898 C886 0.960 . S
H899 C886 0.962 . S
H900 C886 0.960 . S
H901 C887 0.961 . S
H902 C887 0.961 . S
H903 C887 0.961 . S
H904 C888 0.931 . S
H905 C893 0.930 . S
H906 C894 0.956 . S
H907 C894 0.961 . S
H908 C894 0.961 . S
H909 C895 0.958 . S
H910 C895 0.961 . S
H911 C895 0.960 . S
C912 C913 1.391 . S
C912 C914 1.394 . S
C912 H928 0.931 . S
C913 C912 1.391 . S
C913 C917 1.376 . S
C914 C912 1.394 . S
C914 C915 1.369 . S
C914 C918 1.531 . S
C915 C914 1.369 . S
C915 C916 1.410 . S
C915 C923 1.503 . S
C916 C915 1.410 . S
C916 C917 1.392 . S
C916 C919 1.511 . S
C917 C913 1.376 . S
C917 C916 1.392 . S
C917 H929 0.929 . S
C918 C914 1.531 . S
C918 H930 0.960 . S
C918 H931 0.962 . S
C918 H932 0.960 . S
C919 C916 1.511 . S
C919 H933 0.961 . S
C919 H934 0.961 . S
C919 H935 0.961 . S
C920 C921 1.370 . S
C920 C922 1.363 . S
C920 H936 0.931 . S
C921 C920 1.370 . S
C921 C925 1.408 . S
C922 C920 1.363 . S
C922 C923 1.370 . S
C922 C926 1.524 . S
C923 C915 1.503 . S
C923 C922 1.370 . S
C923 C924 1.403 . S
C924 C923 1.403 . S
C924 C925 1.404 . S
C924 C927 1.539 . S
C925 C921 1.408 . S
C925 C924 1.404 . S
C925 H937 0.930 . S
C926 C922 1.524 . S
C926 H938 0.956 . S
C926 H939 0.961 . S
C926 H940 0.961 . S
C927 C924 1.539 . S
C927 H941 0.958 . S
C927 H942 0.961 . S
C927 H943 0.960 . S
H928 C912 0.931 . S
H929 C917 0.929 . S
H930 C918 0.960 . S
H931 C918 0.962 . S
H932 C918 0.960 . S
H933 C919 0.961 . S
H934 C919 0.961 . S
H935 C919 0.961 . S
H936 C920 0.931 . S
H937 C925 0.930 . S
H938 C926 0.956 . S
H939 C926 0.961 . S
H940 C926 0.961 . S
H941 C927 0.958 . S
H942 C927 0.961 . S
H943 C927 0.960 . S
C944 C945 1.391 . S
C944 C946 1.394 . S
C944 H960 0.931 . S
C945 C944 1.391 . S
C945 C949 1.376 . S
C946 C944 1.394 . S
C946 C947 1.369 . S
C946 C950 1.531 1_455 S
C947 C946 1.369 . S
C947 C948 1.410 . S
C947 C955 1.503 . S
C948 C947 1.410 . S
C948 C949 1.392 . S
C948 C951 1.511 . S
C949 C945 1.376 . S
C949 C948 1.392 . S
C949 H961 0.929 . S
C950 C946 1.531 1_655 S
C950 H962 0.960 . S
C950 H963 0.962 . S
C950 H964 0.960 . S
C951 C948 1.511 . S
C951 H965 0.961 . S
C951 H966 0.961 . S
C951 H967 0.961 . S
C952 C953 1.370 . S
C952 C954 1.363 . S
C952 H968 0.931 . S
C953 C952 1.370 . S
C953 C957 1.408 . S
C954 C952 1.363 . S
C954 C955 1.370 . S
C954 C958 1.524 . S
C955 C947 1.503 . S
C955 C954 1.370 . S
C955 C956 1.403 . S
C956 C955 1.403 . S
C956 C957 1.404 . S
C956 C959 1.539 . S
C957 C953 1.408 . S
C957 C956 1.404 . S
C957 H969 0.930 1_455 S
C958 C954 1.524 . S
C958 H970 0.956 . S
C958 H971 0.961 . S
C958 H972 0.961 . S
C959 C956 1.539 . S
C959 H973 0.958 1_455 S
C959 H974 0.961 . S
C959 H975 0.960 . S
H960 C944 0.931 . S
H961 C949 0.929 . S
H962 C950 0.960 . S
H963 C950 0.962 . S
H964 C950 0.960 . S
H965 C951 0.961 . S
H966 C951 0.961 . S
H967 C951 0.961 . S
H968 C952 0.931 . S
H969 C957 0.930 1_655 S
H970 C958 0.956 . S
H971 C958 0.961 . S
H972 C958 0.961 . S
H973 C959 0.958 1_655 S
H974 C959 0.961 . S
H975 C959 0.960 . S
C976 C977 1.391 . S
C976 C978 1.394 . S
C976 H992 0.931 . S
C977 C976 1.391 . S
C977 C981 1.376 . S
C978 C976 1.394 . S
C978 C979 1.369 . S
C978 C982 1.531 . S
C979 C978 1.369 . S
C979 C980 1.410 . S
C979 C987 1.503 . S
C980 C979 1.410 . S
C980 C981 1.392 . S
C980 C983 1.511 . S
C981 C977 1.376 . S
C981 C980 1.392 . S
C981 H993 0.929 . S
C982 C978 1.531 . S
C982 H994 0.960 . S
C982 H995 0.962 . S
C982 H996 0.960 . S
C983 C980 1.511 . S
C983 H997 0.961 . S
C983 H998 0.961 . S
C983 H999 0.961 . S
C984 C985 1.370 . S
C984 C986 1.363 . S
C984 H1000 0.931 . S
C985 C984 1.370 . S
C985 C989 1.408 . S
C986 C984 1.363 . S
C986 C987 1.370 . S
C986 C990 1.524 . S
C987 C979 1.503 . S
C987 C986 1.370 . S
C987 C988 1.403 . S
C988 C987 1.403 . S
C988 C989 1.404 . S
C988 C991 1.539 . S
C989 C985 1.408 . S
C989 C988 1.404 . S
C989 H1001 0.930 . S
C990 C986 1.524 . S
C990 H1002 0.956 . S
C990 H1003 0.961 . S
C990 H1004 0.961 . S
C991 C988 1.539 . S
C991 H1005 0.958 . S
C991 H1006 0.961 . S
C991 H1007 0.960 . S
H992 C976 0.931 . S
H993 C981 0.929 . S
H994 C982 0.960 . S
H995 C982 0.962 . S
H996 C982 0.960 . S
H997 C983 0.961 . S
H998 C983 0.961 . S
H999 C983 0.961 . S
H1000 C984 0.931 . S
H1001 C989 0.930 . S
H1002 C990 0.956 . S
H1003 C990 0.961 . S
H1004 C990 0.961 . S
H1005 C991 0.958 . S
H1006 C991 0.961 . S
H1007 C991 0.960 . S
C1008 C1009 1.391 . S
C1008 C1010 1.394 . S
C1008 H1024 0.931 . S
C1009 C1008 1.391 . S
C1009 C1013 1.376 . S
C1010 C1008 1.394 . S
C1010 C1011 1.369 . S
C1010 C1014 1.531 . S
C1011 C1010 1.369 . S
C1011 C1012 1.410 . S
C1011 C1019 1.503 . S
C1012 C1011 1.410 . S
C1012 C1013 1.392 . S
C1012 C1015 1.511 . S
C1013 C1009 1.376 . S
C1013 C1012 1.392 . S
C1013 H1025 0.929 . S
C1014 C1010 1.531 . S
C1014 H1026 0.960 . S
C1014 H1027 0.962 . S
C1014 H1028 0.960 . S
C1015 C1012 1.511 . S
C1015 H1029 0.961 . S
C1015 H1030 0.961 . S
C1015 H1031 0.961 . S
C1016 C1017 1.374 . S
C1016 C1018 1.363 1_554 S
C1016 H1032 0.931 . S
C1017 C1016 1.374 . S
C1017 C1021 1.388 1_554 S
C1018 C1016 1.363 1_556 S
C1018 C1019 1.370 . S
C1018 C1022 1.524 . S
C1019 C1011 1.503 . S
C1019 C1018 1.370 . S
C1019 C1020 1.403 . S
C1020 C1019 1.403 . S
C1020 C1021 1.404 . S
C1020 C1023 1.539 . S
C1021 C1017 1.388 1_556 S
C1021 C1020 1.404 . S
C1021 H1033 0.930 . S
C1022 C1018 1.524 . S
C1022 H1034 0.956 . S
C1022 H1035 0.967 . S
C1022 H1036 0.961 1_556 S
C1023 C1020 1.539 . S
C1023 H1037 0.958 . S
C1023 H1038 0.961 . S
C1023 H1039 0.960 . S
H1024 C1008 0.931 . S
H1025 C1013 0.929 . S
H1026 C1014 0.960 . S
H1027 C1014 0.962 . S
H1028 C1014 0.960 . S
H1029 C1015 0.961 . S
H1030 C1015 0.961 . S
H1031 C1015 0.961 . S
H1032 C1016 0.931 . S
H1033 C1021 0.930 . S
H1034 C1022 0.956 . S
H1035 C1022 0.967 . S
H1036 C1022 0.961 1_554 S
H1037 C1023 0.958 . S
H1038 C1023 0.961 . S
H1039 C1023 0.960 . S
C1040 C1041 1.391 . S
C1040 C1042 1.394 . S
C1040 H1056 0.931 . S
C1041 C1040 1.391 . S
C1041 C1045 1.376 . S
C1042 C1040 1.394 . S
C1042 C1043 1.369 . S
C1042 C1046 1.531 . S
C1043 C1042 1.369 . S
C1043 C1044 1.410 . S
C1043 C1051 1.503 . S
C1044 C1043 1.410 . S
C1044 C1045 1.392 . S
C1044 C1047 1.511 . S
C1045 C1041 1.376 . S
C1045 C1044 1.392 . S
C1045 H1057 0.929 . S
C1046 C1042 1.531 . S
C1046 H1058 0.960 . S
C1046 H1059 0.962 . S
C1046 H1060 0.960 . S
C1047 C1044 1.511 . S
C1047 H1061 0.961 . S
C1047 H1062 0.961 . S
C1047 H1063 0.961 . S
C1048 C1049 1.370 . S
C1048 C1050 1.363 . S
C1048 H1064 0.931 . S
C1049 C1048 1.370 . S
C1049 C1053 1.408 . S
C1050 C1048 1.363 . S
C1050 C1051 1.370 . S
C1050 C1054 1.524 . S
C1051 C1043 1.503 . S
C1051 C1050 1.370 . S
C1051 C1052 1.403 . S
C1052 C1051 1.403 . S
C1052 C1053 1.404 . S
C1052 C1055 1.539 . S
C1053 C1049 1.408 . S
C1053 C1052 1.404 . S
C1053 H1065 0.930 . S
C1054 C1050 1.524 . S
C1054 H1066 0.956 . S
C1054 H1067 0.961 . S
C1054 H1068 0.961 . S
C1055 C1052 1.539 . S
C1055 H1069 0.958 . S
C1055 H1070 0.961 . S
C1055 H1071 0.960 . S
H1056 C1040 0.931 . S
H1057 C1045 0.929 . S
H1058 C1046 0.960 . S
H1059 C1046 0.962 . S
H1060 C1046 0.960 . S
H1061 C1047 0.961 . S
H1062 C1047 0.961 . S
H1063 C1047 0.961 . S
H1064 C1048 0.931 . S
H1065 C1053 0.930 . S
H1066 C1054 0.956 . S
H1067 C1054 0.961 . S
H1068 C1054 0.961 . S
H1069 C1055 0.958 . S
H1070 C1055 0.961 . S
H1071 C1055 0.960 . S
C1072 C1073 1.377 1_565 S
C1072 C1074 1.399 . S
C1072 H1088 0.942 . S
C1073 C1072 1.377 1_545 S
C1073 C1077 1.376 . S
C1074 C1072 1.399 . S
C1074 C1075 1.369 1_565 S
C1074 C1078 1.531 . S
C1075 C1074 1.369 1_545 S
C1075 C1076 1.410 . S
C1075 C1083 1.503 . S
C1076 C1075 1.410 . S
C1076 C1077 1.392 . S
C1076 C1079 1.511 . S
C1077 C1073 1.376 . S
C1077 C1076 1.392 . S
C1077 H1089 0.929 . S
C1078 C1074 1.531 . S
C1078 H1090 0.960 . S
C1078 H1091 0.962 1_565 S
C1078 H1092 0.960 . S
C1079 C1076 1.511 . S
C1079 H1093 0.961 . S
C1079 H1094 0.961 . S
C1079 H1095 0.919 1_545 S
C1080 C1081 1.370 . S
C1080 C1082 1.363 . S
C1080 H1096 0.931 . S
C1081 C1080 1.370 . S
C1081 C1085 1.408 1_545 S
C1082 C1080 1.363 . S
C1082 C1083 1.370 . S
C1082 C1086 1.524 . S
C1083 C1075 1.503 . S
C1083 C1082 1.370 . S
C1083 C1084 1.403 1_545 S
C1084 C1083 1.403 1_565 S
C1084 C1085 1.404 . S
C1084 C1087 1.539 . S
C1085 C1081 1.408 1_565 S
C1085 C1084 1.404 . S
C1085 H1097 0.930 . S
C1086 C1082 1.524 . S
C1086 H1098 0.956 . S
C1086 H1099 0.961 . S
C1086 H1100 0.961 . S
C1087 C1084 1.539 . S
C1087 H1101 0.958 . S
C1087 H1102 0.961 . S
C1087 H1103 0.960 . S
H1088 C1072 0.942 . S
H1089 C1077 0.929 . S
H1090 C1078 0.960 . S
H1091 C1078 0.962 1_545 S
H1092 C1078 0.960 . S
H1093 C1079 0.961 . S
H1094 C1079 0.961 . S
H1095 C1079 0.919 1_565 S
H1096 C1080 0.931 . S
H1097 C1085 0.930 . S
H1098 C1086 0.956 . S
H1099 C1086 0.961 . S
H1100 C1086 0.961 . S
H1101 C1087 0.958 . S
H1102 C1087 0.961 . S
H1103 C1087 0.960 . S
C1104 C1105 1.391 . S
C1104 C1106 1.394 . S
C1104 H1120 0.931 . S
C1105 C1104 1.391 . S
C1105 C1109 1.376 . S
C1106 C1104 1.394 . S
C1106 C1107 1.369 . S
C1106 C1110 1.531 . S
C1107 C1106 1.369 . S
C1107 C1108 1.410 . S
C1107 C1115 1.503 . S
C1108 C1107 1.410 . S
C1108 C1109 1.392 . S
C1108 C1111 1.511 . S
C1109 C1105 1.376 . S
C1109 C1108 1.392 . S
C1109 H1121 0.929 . S
C1110 C1106 1.531 . S
C1110 H1122 0.960 . S
C1110 H1123 0.962 . S
C1110 H1124 0.960 . S
C1111 C1108 1.511 . S
C1111 H1125 0.961 . S
C1111 H1126 0.961 . S
C1111 H1127 0.961 . S
C1112 C1113 1.370 . S
C1112 C1114 1.363 . S
C1112 H1128 0.931 . S
C1113 C1112 1.370 . S
C1113 C1117 1.408 . S
C1114 C1112 1.363 . S
C1114 C1115 1.370 . S
C1114 C1118 1.524 . S
C1115 C1107 1.503 . S
C1115 C1114 1.370 . S
C1115 C1116 1.403 . S
C1116 C1115 1.403 . S
C1116 C1117 1.404 . S
C1116 C1119 1.539 . S
C1117 C1113 1.408 . S
C1117 C1116 1.404 . S
C1117 H1129 0.930 . S
C1118 C1114 1.524 . S
C1118 H1130 0.956 . S
C1118 H1131 0.961 . S
C1118 H1132 0.961 . S
C1119 C1116 1.539 . S
C1119 H1133 0.958 . S
C1119 H1134 0.961 . S
C1119 H1135 0.960 . S
H1120 C1104 0.931 . S
H1121 C1109 0.929 . S
H1122 C1110 0.960 . S
H1123 C1110 0.962 . S
H1124 C1110 0.960 . S
H1125 C1111 0.961 . S
H1126 C1111 0.961 . S
H1127 C1111 0.961 . S
H1128 C1112 0.931 . S
H1129 C1117 0.930 . S
H1130 C1118 0.956 . S
H1131 C1118 0.961 . S
H1132 C1118 0.961 . S
H1133 C1119 0.958 . S
H1134 C1119 0.961 . S
H1135 C1119 0.960 . S
C1136 C1137 1.391 . S
C1136 C1138 1.394 . S
C1136 H1152 0.931 . S
C1137 C1136 1.391 . S
C1137 C1141 1.376 . S
C1138 C1136 1.394 . S
C1138 C1139 1.369 . S
C1138 C1142 1.531 . S
C1139 C1138 1.369 . S
C1139 C1140 1.410 . S
C1139 C1147 1.503 . S
C1140 C1139 1.410 . S
C1140 C1141 1.392 . S
C1140 C1143 1.511 . S
C1141 C1137 1.376 . S
C1141 C1140 1.392 . S
C1141 H1153 0.929 . S
C1142 C1138 1.531 . S
C1142 H1154 0.960 . S
C1142 H1155 0.962 . S
C1142 H1156 0.960 . S
C1143 C1140 1.511 . S
C1143 H1157 0.961 . S
C1143 H1158 0.961 . S
C1143 H1159 0.961 . S
C1144 C1145 1.370 . S
C1144 C1146 1.363 . S
C1144 H1160 0.931 . S
C1145 C1144 1.370 . S
C1145 C1149 1.408 . S
C1146 C1144 1.363 . S
C1146 C1147 1.370 . S
C1146 C1150 1.524 . S
C1147 C1139 1.503 . S
C1147 C1146 1.370 . S
C1147 C1148 1.403 . S
C1148 C1147 1.403 . S
C1148 C1149 1.404 . S
C1148 C1151 1.539 . S
C1149 C1145 1.408 . S
C1149 C1148 1.404 . S
C1149 H1161 0.930 . S
C1150 C1146 1.524 . S
C1150 H1162 0.956 . S
C1150 H1163 0.961 . S
C1150 H1164 0.961 . S
C1151 C1148 1.539 . S
C1151 H1165 0.958 . S
C1151 H1166 0.961 . S
C1151 H1167 0.960 . S
H1152 C1136 0.931 . S
H1153 C1141 0.929 . S
H1154 C1142 0.960 . S
H1155 C1142 0.962 . S
H1156 C1142 0.960 . S
H1157 C1143 0.961 . S
H1158 C1143 0.961 . S
H1159 C1143 0.961 . S
H1160 C1144 0.931 . S
H1161 C1149 0.930 . S
H1162 C1150 0.956 . S
H1163 C1150 0.961 . S
H1164 C1150 0.961 . S
H1165 C1151 0.958 . S
H1166 C1151 0.961 . S
H1167 C1151 0.960 . S
C1168 C1169 1.391 . S
C1168 C1170 1.394 . S
C1168 H1184 0.931 . S
C1169 C1168 1.391 . S
C1169 C1173 1.376 . S
C1170 C1168 1.394 . S
C1170 C1171 1.369 . S
C1170 C1174 1.531 . S
C1171 C1170 1.369 . S
C1171 C1172 1.410 . S
C1171 C1179 1.503 . S
C1172 C1171 1.410 . S
C1172 C1173 1.392 . S
C1172 C1175 1.511 . S
C1173 C1169 1.376 . S
C1173 C1172 1.392 . S
C1173 H1185 0.929 . S
C1174 C1170 1.531 . S
C1174 H1186 0.960 . S
C1174 H1187 0.962 . S
C1174 H1188 0.960 . S
C1175 C1172 1.511 . S
C1175 H1189 0.961 . S
C1175 H1190 0.961 . S
C1175 H1191 0.961 . S
C1176 C1177 1.370 . S
C1176 C1178 1.363 . S
C1176 H1192 0.931 . S
C1177 C1176 1.370 . S
C1177 C1181 1.408 . S
C1178 C1176 1.363 . S
C1178 C1179 1.370 . S
C1178 C1182 1.524 . S
C1179 C1171 1.503 . S
C1179 C1178 1.370 . S
C1179 C1180 1.403 . S
C1180 C1179 1.403 . S
C1180 C1181 1.404 . S
C1180 C1183 1.539 . S
C1181 C1177 1.408 . S
C1181 C1180 1.404 . S
C1181 H1193 0.930 . S
C1182 C1178 1.524 . S
C1182 H1194 0.956 . S
C1182 H1195 0.961 . S
C1182 H1196 0.961 . S
C1183 C1180 1.539 . S
C1183 H1197 0.958 . S
C1183 H1198 0.961 . S
C1183 H1199 0.960 . S
H1184 C1168 0.931 . S
H1185 C1173 0.929 . S
H1186 C1174 0.960 . S
H1187 C1174 0.962 . S
H1188 C1174 0.960 . S
H1189 C1175 0.961 . S
H1190 C1175 0.961 . S
H1191 C1175 0.961 . S
H1192 C1176 0.931 . S
H1193 C1181 0.930 . S
H1194 C1182 0.956 . S
H1195 C1182 0.961 . S
H1196 C1182 0.961 . S
H1197 C1183 0.958 . S
H1198 C1183 0.961 . S
H1199 C1183 0.960 . S
C1200 C1201 1.391 . S
C1200 C1202 1.394 . S
C1200 H1216 0.931 . S
C1201 C1200 1.391 . S
C1201 C1205 1.376 1_545 S
C1202 C1200 1.394 . S
C1202 C1203 1.369 . S
C1202 C1206 1.531 . S
C1203 C1202 1.369 . S
C1203 C1204 1.410 1_545 S
C1203 C1211 1.503 . S
C1204 C1203 1.410 1_565 S
C1204 C1205 1.392 . S
C1204 C1207 1.511 . S
C1205 C1201 1.376 1_565 S
C1205 C1204 1.392 . S
C1205 H1217 0.929 . S
C1206 C1202 1.531 . S
C1206 H1218 0.960 . S
C1206 H1219 0.962 . S
C1206 H1220 0.960 . S
C1207 C1204 1.511 . S
C1207 H1221 0.961 . S
C1207 H1222 0.961 . S
C1207 H1223 0.961 . S
C1208 C1209 1.370 . S
C1208 C1210 1.363 . S
C1208 H1224 0.931 . S
C1209 C1208 1.370 . S
C1209 C1213 1.408 . S
C1210 C1208 1.363 . S
C1210 C1211 1.370 . S
C1210 C1214 1.524 . S
C1211 C1203 1.503 . S
C1211 C1210 1.370 . S
C1211 C1212 1.403 . S
C1212 C1211 1.403 . S
C1212 C1213 1.404 . S
C1212 C1215 1.539 . S
C1213 C1209 1.408 . S
C1213 C1212 1.404 . S
C1213 H1225 0.930 . S
C1214 C1210 1.524 . S
C1214 H1226 0.956 . S
C1214 H1227 0.961 . S
C1214 H1228 0.961 . S
C1215 C1212 1.539 . S
C1215 H1229 0.958 . S
C1215 H1230 0.961 1_545 S
C1215 H1231 0.960 1_545 S
H1216 C1200 0.931 . S
H1217 C1205 0.929 . S
H1218 C1206 0.960 . S
H1219 C1206 0.962 . S
H1220 C1206 0.960 . S
H1221 C1207 0.961 . S
H1222 C1207 0.961 . S
H1223 C1207 0.961 . S
H1224 C1208 0.931 . S
H1225 C1213 0.930 . S
H1226 C1214 0.956 . S
H1227 C1214 0.961 . S
H1228 C1214 0.961 . S
H1229 C1215 0.958 . S
H1230 C1215 0.961 1_565 S
H1231 C1215 0.960 1_565 S
C1232 C1233 1.391 . S
C1232 C1234 1.394 . S
C1232 H1248 0.931 . S
C1233 C1232 1.391 . S
C1233 C1237 1.376 . S
C1234 C1232 1.394 . S
C1234 C1235 1.369 . S
C1234 C1238 1.531 . S
C1235 C1234 1.369 . S
C1235 C1236 1.410 . S
C1235 C1243 1.503 . S
C1236 C1235 1.410 . S
C1236 C1237 1.392 . S
C1236 C1239 1.511 . S
C1237 C1233 1.376 . S
C1237 C1236 1.392 . S
C1237 H1249 0.929 . S
C1238 C1234 1.531 . S
C1238 H1250 0.960 . S
C1238 H1251 0.962 . S
C1238 H1252 0.960 . S
C1239 C1236 1.511 . S
C1239 H1253 0.961 . S
C1239 H1254 0.961 . S
C1239 H1255 0.961 . S
C1240 C1241 1.370 . S
C1240 C1242 1.363 . S
C1240 H1256 0.931 . S
C1241 C1240 1.370 . S
C1241 C1245 1.408 . S
C1242 C1240 1.363 . S
C1242 C1243 1.370 . S
C1242 C1246 1.524 . S
C1243 C1235 1.503 . S
C1243 C1242 1.370 . S
C1243 C1244 1.403 . S
C1244 C1243 1.403 . S
C1244 C1245 1.404 . S
C1244 C1247 1.539 . S
C1245 C1241 1.408 . S
C1245 C1244 1.404 . S
C1245 H1257 0.930 . S
C1246 C1242 1.524 . S
C1246 H1258 0.956 . S
C1246 H1259 0.961 . S
C1246 H1260 0.961 . S
C1247 C1244 1.539 . S
C1247 H1261 0.958 . S
C1247 H1262 0.961 . S
C1247 H1263 0.960 . S
H1248 C1232 0.931 . S
H1249 C1237 0.929 . S
H1250 C1238 0.960 . S
H1251 C1238 0.962 . S
H1252 C1238 0.960 . S
H1253 C1239 0.961 . S
H1254 C1239 0.961 . S
H1255 C1239 0.961 . S
H1256 C1240 0.931 . S
H1257 C1245 0.930 . S
H1258 C1246 0.956 . S
H1259 C1246 0.961 . S
H1260 C1246 0.961 . S
H1261 C1247 0.958 . S
H1262 C1247 0.961 . S
H1263 C1247 0.960 . S
C1264 C1265 1.391 . S
C1264 C1266 1.394 . S
C1264 H1280 0.931 . S
C1265 C1264 1.391 . S
C1265 C1269 1.376 . S
C1266 C1264 1.394 . S
C1266 C1267 1.369 . S
C1266 C1270 1.531 1_545 S
C1267 C1266 1.369 . S
C1267 C1268 1.410 . S
C1267 C1275 1.503 . S
C1268 C1267 1.410 . S
C1268 C1269 1.392 . S
C1268 C1271 1.511 . S
C1269 C1265 1.376 . S
C1269 C1268 1.392 . S
C1269 H1281 0.929 . S
C1270 C1266 1.531 1_565 S
C1270 H1282 0.960 . S
C1270 H1283 0.962 . S
C1270 H1284 0.960 . S
C1271 C1268 1.511 . S
C1271 H1285 0.961 . S
C1271 H1286 0.961 . S
C1271 H1287 0.961 . S
C1272 C1273 1.370 . S
C1272 C1274 1.363 . S
C1272 H1288 0.931 . S
C1273 C1272 1.370 . S
C1273 C1277 1.408 . S
C1274 C1272 1.363 . S
C1274 C1275 1.370 . S
C1274 C1278 1.524 . S
C1275 C1267 1.503 . S
C1275 C1274 1.370 . S
C1275 C1276 1.403 . S
C1276 C1275 1.403 . S
C1276 C1277 1.404 . S
C1276 C1279 1.539 . S
C1277 C1273 1.408 . S
C1277 C1276 1.404 . S
C1277 H1289 0.930 . S
C1278 C1274 1.524 . S
C1278 H1290 0.956 . S
C1278 H1291 0.961 . S
C1278 H1292 0.961 . S
C1279 C1276 1.539 . S
C1279 H1293 0.958 . S
C1279 H1294 0.961 . S
C1279 H1295 0.960 . S
H1280 C1264 0.931 . S
H1281 C1269 0.929 . S
H1282 C1270 0.960 . S
H1283 C1270 0.962 . S
H1284 C1270 0.960 . S
H1285 C1271 0.961 . S
H1286 C1271 0.961 . S
H1287 C1271 0.961 . S
H1288 C1272 0.931 . S
H1289 C1277 0.930 . S
H1290 C1278 0.956 . S
H1291 C1278 0.961 . S
H1292 C1278 0.961 . S
H1293 C1279 0.958 . S
H1294 C1279 0.961 . S
H1295 C1279 0.960 . S
C1296 C1297 1.391 . S
C1296 C1298 1.394 . S
C1296 H1312 0.931 . S
C1297 C1296 1.391 . S
C1297 C1301 1.376 . S
C1298 C1296 1.394 . S
C1298 C1299 1.369 . S
C1298 C1302 1.531 . S
C1299 C1298 1.369 . S
C1299 C1300 1.410 . S
C1299 C1307 1.503 . S
C1300 C1299 1.410 . S
C1300 C1301 1.392 . S
C1300 C1303 1.511 . S
C1301 C1297 1.376 . S
C1301 C1300 1.392 . S
C1301 H1313 0.929 . S
C1302 C1298 1.531 . S
C1302 H1314 0.960 . S
C1302 H1315 0.962 . S
C1302 H1316 0.960 . S
C1303 C1300 1.511 . S
C1303 H1317 0.961 . S
C1303 H1318 0.961 . S
C1303 H1319 0.961 . S
C1304 C1305 1.370 . S
C1304 C1306 1.363 . S
C1304 H1320 0.931 . S
C1305 C1304 1.370 . S
C1305 C1309 1.408 . S
C1306 C1304 1.363 . S
C1306 C1307 1.370 . S
C1306 C1310 1.524 . S
C1307 C1299 1.503 . S
C1307 C1306 1.370 . S
C1307 C1308 1.403 . S
C1308 C1307 1.403 . S
C1308 C1309 1.404 . S
C1308 C1311 1.539 . S
C1309 C1305 1.408 . S
C1309 C1308 1.404 . S
C1309 H1321 0.930 . S
C1310 C1306 1.524 . S
C1310 H1322 0.956 . S
C1310 H1323 0.961 . S
C1310 H1324 0.961 . S
C1311 C1308 1.539 . S
C1311 H1325 0.958 . S
C1311 H1326 0.961 . S
C1311 H1327 0.960 . S
H1312 C1296 0.931 . S
H1313 C1301 0.929 . S
H1314 C1302 0.960 . S
H1315 C1302 0.962 . S
H1316 C1302 0.960 . S
H1317 C1303 0.961 . S
H1318 C1303 0.961 . S
H1319 C1303 0.961 . S
H1320 C1304 0.931 . S
H1321 C1309 0.930 . S
H1322 C1310 0.956 . S
H1323 C1310 0.961 . S
H1324 C1310 0.961 . S
H1325 C1311 0.958 . S
H1326 C1311 0.961 . S
H1327 C1311 0.960 . S
C1328 C1329 1.391 . S
C1328 C1330 1.394 . S
C1328 H1344 0.931 . S
C1329 C1328 1.391 . S
C1329 C1333 1.376 . S
C1330 C1328 1.394 . S
C1330 C1331 1.369 . S
C1330 C1334 1.531 . S
C1331 C1330 1.369 . S
C1331 C1332 1.410 . S
C1331 C1339 1.503 . S
C1332 C1331 1.410 . S
C1332 C1333 1.392 . S
C1332 C1335 1.511 . S
C1333 C1329 1.376 . S
C1333 C1332 1.392 . S
C1333 H1345 0.929 . S
C1334 C1330 1.531 . S
C1334 H1346 0.960 . S
C1334 H1347 0.962 . S
C1334 H1348 0.960 . S
C1335 C1332 1.511 . S
C1335 H1349 0.961 . S
C1335 H1350 0.961 . S
C1335 H1351 0.961 . S
C1336 C1337 1.393 . S
C1336 C1338 1.369 . S
C1336 H1352 0.902 1_554 S
C1337 C1336 1.393 . S
C1337 C1341 1.408 . S
C1338 C1336 1.369 . S
C1338 C1339 1.370 . S
C1338 C1342 1.524 1_554 S
C1339 C1331 1.503 . S
C1339 C1338 1.370 . S
C1339 C1340 1.403 . S
C1340 C1339 1.403 . S
C1340 C1341 1.404 . S
C1340 C1343 1.539 . S
C1341 C1337 1.408 . S
C1341 C1340 1.404 . S
C1341 H1353 0.930 . S
C1342 C1338 1.524 1_556 S
C1342 H1354 0.956 . S
C1342 H1355 0.961 . S
C1342 H1356 0.961 . S
C1343 C1340 1.539 . S
C1343 H1357 0.958 . S
C1343 H1358 0.961 . S
C1343 H1359 0.960 . S
H1344 C1328 0.931 . S
H1345 C1333 0.929 . S
H1346 C1334 0.960 . S
H1347 C1334 0.962 . S
H1348 C1334 0.960 . S
H1349 C1335 0.961 . S
H1350 C1335 0.961 . S
H1351 C1335 0.961 . S
H1352 C1336 0.902 1_556 S
H1353 C1341 0.930 . S
H1354 C1342 0.956 . S
H1355 C1342 0.961 . S
H1356 C1342 0.961 . S
H1357 C1343 0.958 . S
H1358 C1343 0.961 . S
H1359 C1343 0.960 . S
C1360 C1361 1.391 . S
C1360 C1362 1.394 . S
C1360 H1376 0.931 . S
C1361 C1360 1.391 . S
C1361 C1365 1.376 . S
C1362 C1360 1.394 . S
C1362 C1363 1.369 . S
C1362 C1366 1.531 . S
C1363 C1362 1.369 . S
C1363 C1364 1.410 . S
C1363 C1371 1.503 . S
C1364 C1363 1.410 . S
C1364 C1365 1.392 . S
C1364 C1367 1.511 . S
C1365 C1361 1.376 . S
C1365 C1364 1.392 . S
C1365 H1377 0.929 . S
C1366 C1362 1.531 . S
C1366 H1378 0.960 . S
C1366 H1379 0.962 . S
C1366 H1380 0.960 . S
C1367 C1364 1.511 . S
C1367 H1381 0.961 . S
C1367 H1382 0.961 . S
C1367 H1383 0.961 . S
C1368 C1369 1.370 . S
C1368 C1370 1.363 . S
C1368 H1384 0.931 . S
C1369 C1368 1.370 . S
C1369 C1373 1.408 . S
C1370 C1368 1.363 . S
C1370 C1371 1.370 . S
C1370 C1374 1.524 . S
C1371 C1363 1.503 . S
C1371 C1370 1.370 . S
C1371 C1372 1.403 . S
C1372 C1371 1.403 . S
C1372 C1373 1.404 . S
C1372 C1375 1.539 . S
C1373 C1369 1.408 . S
C1373 C1372 1.404 . S
C1373 H1385 0.930 . S
C1374 C1370 1.524 . S
C1374 H1386 0.956 . S
C1374 H1387 0.961 . S
C1374 H1388 0.961 . S
C1375 C1372 1.539 . S
C1375 H1389 0.958 . S
C1375 H1390 0.961 1_554 S
C1375 H1391 0.960 . S
H1376 C1360 0.931 . S
H1377 C1365 0.929 . S
H1378 C1366 0.960 . S
H1379 C1366 0.962 . S
H1380 C1366 0.960 . S
H1381 C1367 0.961 . S
H1382 C1367 0.961 . S
H1383 C1367 0.961 . S
H1384 C1368 0.931 . S
H1385 C1373 0.930 . S
H1386 C1374 0.956 . S
H1387 C1374 0.961 . S
H1388 C1374 0.961 . S
H1389 C1375 0.958 . S
H1390 C1375 0.961 1_556 S
H1391 C1375 0.960 . S
C1392 C1393 1.391 . S
C1392 C1394 1.394 . S
C1392 H1408 0.931 . S
C1393 C1392 1.391 . S
C1393 C1397 1.376 . S
C1394 C1392 1.394 . S
C1394 C1395 1.369 . S
C1394 C1398 1.531 . S
C1395 C1394 1.369 . S
C1395 C1396 1.410 . S
C1395 C1403 1.503 . S
C1396 C1395 1.410 . S
C1396 C1397 1.392 . S
C1396 C1399 1.511 . S
C1397 C1393 1.376 . S
C1397 C1396 1.392 . S
C1397 H1409 0.929 . S
C1398 C1394 1.531 . S
C1398 H1410 0.960 . S
C1398 H1411 0.962 . S
C1398 H1412 0.960 . S
C1399 C1396 1.511 . S
C1399 H1413 0.961 . S
C1399 H1414 0.961 . S
C1399 H1415 0.961 . S
C1400 C1401 1.370 . S
C1400 C1402 1.363 . S
C1400 H1416 0.931 . S
C1401 C1400 1.370 . S
C1401 C1405 1.408 . S
C1402 C1400 1.363 . S
C1402 C1403 1.370 . S
C1402 C1406 1.524 . S
C1403 C1395 1.503 . S
C1403 C1402 1.370 . S
C1403 C1404 1.403 . S
C1404 C1403 1.403 . S
C1404 C1405 1.404 . S
C1404 C1407 1.539 . S
C1405 C1401 1.408 . S
C1405 C1404 1.404 . S
C1405 H1417 0.930 . S
C1406 C1402 1.524 . S
C1406 H1418 0.956 . S
C1406 H1419 0.961 . S
C1406 H1420 0.961 . S
C1407 C1404 1.539 . S
C1407 H1421 0.958 . S
C1407 H1422 0.961 . S
C1407 H1423 0.960 . S
H1408 C1392 0.931 . S
H1409 C1397 0.929 . S
H1410 C1398 0.960 . S
H1411 C1398 0.962 . S
H1412 C1398 0.960 . S
H1413 C1399 0.961 . S
H1414 C1399 0.961 . S
H1415 C1399 0.961 . S
H1416 C1400 0.931 . S
H1417 C1405 0.930 . S
H1418 C1406 0.956 . S
H1419 C1406 0.961 . S
H1420 C1406 0.961 . S
H1421 C1407 0.958 . S
H1422 C1407 0.961 . S
H1423 C1407 0.960 . S
C1424 C1425 1.391 . S
C1424 C1426 1.394 . S
C1424 H1440 0.931 . S
C1425 C1424 1.391 . S
C1425 C1429 1.376 . S
C1426 C1424 1.394 . S
C1426 C1427 1.369 . S
C1426 C1430 1.531 . S
C1427 C1426 1.369 . S
C1427 C1428 1.410 . S
C1427 C1435 1.503 . S
C1428 C1427 1.410 . S
C1428 C1429 1.392 . S
C1428 C1431 1.511 . S
C1429 C1425 1.376 . S
C1429 C1428 1.392 . S
C1429 H1441 0.929 . S
C1430 C1426 1.531 . S
C1430 H1442 0.960 . S
C1430 H1443 0.962 . S
C1430 H1444 0.960 . S
C1431 C1428 1.511 . S
C1431 H1445 0.961 . S
C1431 H1446 0.961 . S
C1431 H1447 0.961 . S
C1432 C1433 1.370 . S
C1432 C1434 1.363 . S
C1432 H1448 0.931 . S
C1433 C1432 1.370 . S
C1433 C1437 1.408 . S
C1434 C1432 1.363 . S
C1434 C1435 1.370 . S
C1434 C1438 1.524 . S
C1435 C1427 1.503 . S
C1435 C1434 1.370 . S
C1435 C1436 1.403 . S
C1436 C1435 1.403 . S
C1436 C1437 1.404 . S
C1436 C1439 1.539 . S
C1437 C1433 1.408 . S
C1437 C1436 1.404 . S
C1437 H1449 0.930 . S
C1438 C1434 1.524 . S
C1438 H1450 0.956 . S
C1438 H1451 0.961 . S
C1438 H1452 0.961 . S
C1439 C1436 1.539 . S
C1439 H1453 0.958 . S
C1439 H1454 0.961 . S
C1439 H1455 0.960 . S
H1440 C1424 0.931 . S
H1441 C1429 0.929 . S
H1442 C1430 0.960 . S
H1443 C1430 0.962 . S
H1444 C1430 0.960 . S
H1445 C1431 0.961 . S
H1446 C1431 0.961 . S
H1447 C1431 0.961 . S
H1448 C1432 0.931 . S
H1449 C1437 0.930 . S
H1450 C1438 0.956 . S
H1451 C1438 0.961 . S
H1452 C1438 0.961 . S
H1453 C1439 0.958 . S
H1454 C1439 0.961 . S
H1455 C1439 0.960 . S
C1456 C1457 1.391 . S
C1456 C1458 1.394 . S
C1456 H1472 0.931 . S
C1457 C1456 1.391 . S
C1457 C1461 1.376 . S
C1458 C1456 1.394 . S
C1458 C1459 1.369 . S
C1458 C1462 1.531 . S
C1459 C1458 1.369 . S
C1459 C1460 1.410 . S
C1459 C1467 1.503 . S
C1460 C1459 1.410 . S
C1460 C1461 1.392 . S
C1460 C1463 1.511 . S
C1461 C1457 1.376 . S
C1461 C1460 1.392 . S
C1461 H1473 0.929 . S
C1462 C1458 1.531 . S
C1462 H1474 0.960 . S
C1462 H1475 0.962 . S
C1462 H1476 0.960 . S
C1463 C1460 1.511 . S
C1463 H1477 0.961 . S
C1463 H1478 0.961 . S
C1463 H1479 0.961 . S
C1464 C1465 1.370 . S
C1464 C1466 1.363 . S
C1464 H1480 0.931 . S
C1465 C1464 1.370 . S
C1465 C1469 1.408 . S
C1466 C1464 1.363 . S
C1466 C1467 1.370 . S
C1466 C1470 1.524 . S
C1467 C1459 1.503 . S
C1467 C1466 1.370 . S
C1467 C1468 1.403 . S
C1468 C1467 1.403 . S
C1468 C1469 1.404 . S
C1468 C1471 1.539 . S
C1469 C1465 1.408 . S
C1469 C1468 1.404 . S
C1469 H1481 0.930 . S
C1470 C1466 1.524 . S
C1470 H1482 0.956 . S
C1470 H1483 0.961 . S
C1470 H1484 0.961 . S
C1471 C1468 1.539 . S
C1471 H1485 0.958 . S
C1471 H1486 0.961 . S
C1471 H1487 0.960 . S
H1472 C1456 0.931 . S
H1473 C1461 0.929 . S
H1474 C1462 0.960 . S
H1475 C1462 0.962 . S
H1476 C1462 0.960 . S
H1477 C1463 0.961 . S
H1478 C1463 0.961 . S
H1479 C1463 0.961 . S
H1480 C1464 0.931 . S
H1481 C1469 0.930 . S
H1482 C1470 0.956 . S
H1483 C1470 0.961 . S
H1484 C1470 0.961 . S
H1485 C1471 0.958 . S
H1486 C1471 0.961 . S
H1487 C1471 0.960 . S
C1488 C1489 1.391 . S
C1488 C1490 1.394 . S
C1488 H1504 0.931 . S
C1489 C1488 1.391 . S
C1489 C1493 1.376 . S
C1490 C1488 1.394 . S
C1490 C1491 1.369 . S
C1490 C1494 1.531 . S
C1491 C1490 1.369 . S
C1491 C1492 1.410 . S
C1491 C1499 1.503 . S
C1492 C1491 1.410 . S
C1492 C1493 1.392 . S
C1492 C1495 1.511 . S
C1493 C1489 1.376 . S
C1493 C1492 1.392 . S
C1493 H1505 0.929 . S
C1494 C1490 1.531 . S
C1494 H1506 0.960 . S
C1494 H1507 0.962 . S
C1494 H1508 0.960 . S
C1495 C1492 1.511 . S
C1495 H1509 0.964 . S
C1495 H1510 0.957 1_565 S
C1495 H1511 0.961 1_565 S
C1496 C1497 1.370 . S
C1496 C1498 1.363 . S
C1496 H1512 0.931 . S
C1497 C1496 1.370 . S
C1497 C1501 1.408 . S
C1498 C1496 1.363 . S
C1498 C1499 1.370 . S
C1498 C1502 1.524 . S
C1499 C1491 1.503 . S
C1499 C1498 1.370 . S
C1499 C1500 1.403 . S
C1500 C1499 1.403 . S
C1500 C1501 1.404 . S
C1500 C1503 1.539 . S
C1501 C1497 1.408 . S
C1501 C1500 1.404 . S
C1501 H1513 0.930 1_565 S
C1502 C1498 1.524 . S
C1502 H1514 0.956 . S
C1502 H1515 0.961 . S
C1502 H1516 0.961 . S
C1503 C1500 1.539 . S
C1503 H1517 0.958 . S
C1503 H1518 0.961 . S
C1503 H1519 0.960 . S
H1504 C1488 0.931 . S
H1505 C1493 0.929 . S
H1506 C1494 0.960 . S
H1507 C1494 0.962 . S
H1508 C1494 0.960 . S
H1509 C1495 0.964 . S
H1510 C1495 0.957 1_545 S
H1511 C1495 0.961 1_545 S
H1512 C1496 0.931 . S
H1513 C1501 0.930 1_545 S
H1514 C1502 0.956 . S
H1515 C1502 0.961 . S
H1516 C1502 0.961 . S
H1517 C1503 0.958 . S
H1518 C1503 0.961 . S
H1519 C1503 0.960 . S
C1520 C1521 1.391 . S
C1520 C1522 1.394 . S
C1520 H1536 0.931 . S
C1521 C1520 1.391 . S
C1521 C1525 1.376 . S
C1522 C1520 1.394 . S
C1522 C1523 1.369 . S
C1522 C1526 1.531 . S
C1523 C1522 1.369 . S
C1523 C1524 1.410 . S
C1523 C1531 1.503 . S
C1524 C1523 1.410 . S
C1524 C1525 1.392 . S
C1524 C1527 1.511 . S
C1525 C1521 1.376 . S
C1525 C1524 1.392 . S
C1525 H1537 0.929 . S
C1526 C1522 1.531 . S
C1526 H1538 0.960 . S
C1526 H1539 0.962 . S
C1526 H1540 0.960 . S
C1527 C1524 1.511 . S
C1527 H1541 0.961 . S
C1527 H1542 0.961 . S
C1527 H1543 0.961 . S
C1528 C1529 1.370 . S
C1528 C1530 1.363 . S
C1528 H1544 0.931 . S
C1529 C1528 1.370 . S
C1529 C1533 1.408 . S
C1530 C1528 1.363 . S
C1530 C1531 1.370 . S
C1530 C1534 1.524 . S
C1531 C1523 1.503 . S
C1531 C1530 1.370 . S
C1531 C1532 1.403 . S
C1532 C1531 1.403 . S
C1532 C1533 1.404 . S
C1532 C1535 1.539 . S
C1533 C1529 1.408 . S
C1533 C1532 1.404 . S
C1533 H1545 0.930 . S
C1534 C1530 1.524 . S
C1534 H1546 0.956 . S
C1534 H1547 0.961 . S
C1534 H1548 0.961 . S
C1535 C1532 1.539 . S
C1535 H1549 0.958 . S
C1535 H1550 0.961 . S
C1535 H1551 0.960 . S
H1536 C1520 0.931 . S
H1537 C1525 0.929 . S
H1538 C1526 0.960 . S
H1539 C1526 0.962 . S
H1540 C1526 0.960 . S
H1541 C1527 0.961 . S
H1542 C1527 0.961 . S
H1543 C1527 0.961 . S
H1544 C1528 0.931 . S
H1545 C1533 0.930 . S
H1546 C1534 0.956 . S
H1547 C1534 0.961 . S
H1548 C1534 0.961 . S
H1549 C1535 0.958 . S
H1550 C1535 0.961 . S
H1551 C1535 0.960 . S
C1552 C1553 1.391 . S
C1552 C1554 1.394 . S
C1552 H1568 0.931 . S
C1553 C1552 1.391 . S
C1553 C1557 1.376 . S
C1554 C1552 1.394 . S
C1554 C1555 1.369 . S
C1554 C1558 1.531 . S
C1555 C1554 1.369 . S
C1555 C1556 1.410 . S
C1555 C1563 1.503 . S
C1556 C1555 1.410 . S
C1556 C1557 1.392 . S
C1556 C1559 1.511 . S
C1557 C1553 1.376 . S
C1557 C1556 1.392 . S
C1557 H1569 0.929 . S
C1558 C1554 1.531 . S
C1558 H1570 0.960 . S
C1558 H1571 0.962 . S
C1558 H1572 0.960 . S
C1559 C1556 1.511 . S
C1559 H1573 0.961 . S
C1559 H1574 0.961 . S
C1559 H1575 0.961 . S
C1560 C1561 1.370 . S
C1560 C1562 1.363 . S
C1560 H1576 0.931 . S
C1561 C1560 1.370 . S
C1561 C1565 1.408 . S
C1562 C1560 1.363 . S
C1562 C1563 1.370 . S
C1562 C1566 1.524 . S
C1563 C1555 1.503 . S
C1563 C1562 1.370 . S
C1563 C1564 1.403 . S
C1564 C1563 1.403 . S
C1564 C1565 1.404 . S
C1564 C1567 1.539 . S
C1565 C1561 1.408 . S
C1565 C1564 1.404 . S
C1565 H1577 0.930 . S
C1566 C1562 1.524 . S
C1566 H1578 0.956 . S
C1566 H1579 0.961 . S
C1566 H1580 0.961 . S
C1567 C1564 1.539 . S
C1567 H1581 0.958 . S
C1567 H1582 0.961 . S
C1567 H1583 0.960 . S
H1568 C1552 0.931 . S
H1569 C1557 0.929 . S
H1570 C1558 0.960 . S
H1571 C1558 0.962 . S
H1572 C1558 0.960 . S
H1573 C1559 0.961 . S
H1574 C1559 0.961 . S
H1575 C1559 0.961 . S
H1576 C1560 0.931 . S
H1577 C1565 0.930 . S
H1578 C1566 0.956 . S
H1579 C1566 0.961 . S
H1580 C1566 0.961 . S
H1581 C1567 0.958 . S
H1582 C1567 0.961 . S
H1583 C1567 0.960 . S
C1584 C1585 1.391 . S
C1584 C1586 1.394 . S
C1584 H1600 0.931 . S
C1585 C1584 1.391 . S
C1585 C1589 1.376 . S
C1586 C1584 1.394 . S
C1586 C1587 1.369 . S
C1586 C1590 1.531 . S
C1587 C1586 1.369 . S
C1587 C1588 1.410 . S
C1587 C1595 1.503 . S
C1588 C1587 1.410 . S
C1588 C1589 1.392 . S
C1588 C1591 1.511 1_455 S
C1589 C1585 1.376 . S
C1589 C1588 1.392 . S
C1589 H1601 0.929 1_455 S
C1590 C1586 1.531 . S
C1590 H1602 0.960 . S
C1590 H1603 0.962 . S
C1590 H1604 0.960 . S
C1591 C1588 1.511 1_655 S
C1591 H1605 0.961 . S
C1591 H1606 0.961 . S
C1591 H1607 0.961 . S
C1592 C1593 1.370 1_554 S
C1592 C1594 1.363 1_554 S
C1592 H1608 0.931 . S
C1593 C1592 1.370 1_556 S
C1593 C1597 1.408 . S
C1594 C1592 1.363 1_556 S
C1594 C1595 1.370 . S
C1594 C1598 1.524 1_556 S
C1595 C1587 1.503 . S
C1595 C1594 1.370 . S
C1595 C1596 1.403 . S
C1596 C1595 1.403 . S
C1596 C1597 1.404 . S
C1596 C1599 1.539 . S
C1597 C1593 1.408 . S
C1597 C1596 1.404 . S
C1597 H1609 0.930 . S
C1598 C1594 1.524 1_554 S
C1598 H1610 0.956 . S
C1598 H1611 0.933 1_454 S
C1598 H1612 0.961 . S
C1599 C1596 1.539 . S
C1599 H1613 0.958 . S
C1599 H1614 0.961 . S
C1599 H1615 0.960 . S
H1600 C1584 0.931 . S
H1601 C1589 0.929 1_655 S
H1602 C1590 0.960 . S
H1603 C1590 0.962 . S
H1604 C1590 0.960 . S
H1605 C1591 0.961 . S
H1606 C1591 0.961 . S
H1607 C1591 0.961 . S
H1608 C1592 0.931 . S
H1609 C1597 0.930 . S
H1610 C1598 0.956 . S
H1611 C1598 0.933 1_656 S
H1612 C1598 0.961 . S
H1613 C1599 0.958 . S
H1614 C1599 0.961 . S
H1615 C1599 0.960 . S
C1616 C1617 1.391 . S
C1616 C1618 1.394 . S
C1616 H1632 0.931 . S
C1617 C1616 1.391 . S
C1617 C1621 1.376 . S
C1618 C1616 1.394 . S
C1618 C1619 1.369 . S
C1618 C1622 1.531 . S
C1619 C1618 1.369 . S
C1619 C1620 1.410 . S
C1619 C1627 1.503 . S
C1620 C1619 1.410 . S
C1620 C1621 1.392 . S
C1620 C1623 1.511 . S
C1621 C1617 1.376 . S
C1621 C1620 1.392 . S
C1621 H1633 0.929 . S
C1622 C1618 1.531 . S
C1622 H1634 0.960 . S
C1622 H1635 0.962 . S
C1622 H1636 0.960 . S
C1623 C1620 1.511 . S
C1623 H1637 0.961 . S
C1623 H1638 0.961 . S
C1623 H1639 0.961 . S
C1624 C1625 1.370 . S
C1624 C1626 1.363 . S
C1624 H1640 0.931 . S
C1625 C1624 1.370 . S
C1625 C1629 1.408 . S
C1626 C1624 1.363 . S
C1626 C1627 1.370 . S
C1626 C1630 1.524 . S
C1627 C1619 1.503 . S
C1627 C1626 1.370 . S
C1627 C1628 1.403 . S
C1628 C1627 1.403 . S
C1628 C1629 1.404 . S
C1628 C1631 1.539 . S
C1629 C1625 1.408 . S
C1629 C1628 1.404 . S
C1629 H1641 0.930 . S
C1630 C1626 1.524 . S
C1630 H1642 0.956 . S
C1630 H1643 0.961 . S
C1630 H1644 0.961 . S
C1631 C1628 1.539 . S
C1631 H1645 0.958 . S
C1631 H1646 0.961 . S
C1631 H1647 0.960 . S
H1632 C1616 0.931 . S
H1633 C1621 0.929 . S
H1634 C1622 0.960 . S
H1635 C1622 0.962 . S
H1636 C1622 0.960 . S
H1637 C1623 0.961 . S
H1638 C1623 0.961 . S
H1639 C1623 0.961 . S
H1640 C1624 0.931 . S
H1641 C1629 0.930 . S
H1642 C1630 0.956 . S
H1643 C1630 0.961 . S
H1644 C1630 0.961 . S
H1645 C1631 0.958 . S
H1646 C1631 0.961 . S
H1647 C1631 0.960 . S
C1648 C1649 1.391 . S
C1648 C1650 1.394 . S
C1648 H1664 0.931 . S
C1649 C1648 1.391 . S
C1649 C1653 1.376 . S
C1650 C1648 1.394 . S
C1650 C1651 1.369 . S
C1650 C1654 1.531 . S
C1651 C1650 1.369 . S
C1651 C1652 1.410 . S
C1651 C1659 1.503 . S
C1652 C1651 1.410 . S
C1652 C1653 1.392 . S
C1652 C1655 1.511 . S
C1653 C1649 1.376 . S
C1653 C1652 1.392 . S
C1653 H1665 0.929 . S
C1654 C1650 1.531 . S
C1654 H1666 0.960 . S
C1654 H1667 0.962 . S
C1654 H1668 0.960 . S
C1655 C1652 1.511 . S
C1655 H1669 0.961 . S
C1655 H1670 0.961 . S
C1655 H1671 0.961 . S
C1656 C1657 1.370 . S
C1656 C1658 1.363 . S
C1656 H1672 0.931 . S
C1657 C1656 1.370 . S
C1657 C1661 1.408 . S
C1658 C1656 1.363 . S
C1658 C1659 1.370 . S
C1658 C1662 1.524 . S
C1659 C1651 1.503 . S
C1659 C1658 1.370 . S
C1659 C1660 1.403 . S
C1660 C1659 1.403 . S
C1660 C1661 1.404 . S
C1660 C1663 1.539 . S
C1661 C1657 1.408 . S
C1661 C1660 1.404 . S
C1661 H1673 0.930 . S
C1662 C1658 1.524 . S
C1662 H1674 0.956 . S
C1662 H1675 0.961 . S
C1662 H1676 0.961 . S
C1663 C1660 1.539 . S
C1663 H1677 0.958 . S
C1663 H1678 0.961 . S
C1663 H1679 0.960 . S
H1664 C1648 0.931 . S
H1665 C1653 0.929 . S
H1666 C1654 0.960 . S
H1667 C1654 0.962 . S
H1668 C1654 0.960 . S
H1669 C1655 0.961 . S
H1670 C1655 0.961 . S
H1671 C1655 0.961 . S
H1672 C1656 0.931 . S
H1673 C1661 0.930 . S
H1674 C1662 0.956 . S
H1675 C1662 0.961 . S
H1676 C1662 0.961 . S
H1677 C1663 0.958 . S
H1678 C1663 0.961 . S
H1679 C1663 0.960 . S
C1680 C1681 1.391 . S
C1680 C1682 1.394 . S
C1680 H1696 0.931 . S
C1681 C1680 1.391 . S
C1681 C1685 1.376 . S
C1682 C1680 1.394 . S
C1682 C1683 1.369 . S
C1682 C1686 1.531 . S
C1683 C1682 1.369 . S
C1683 C1684 1.410 . S
C1683 C1691 1.503 . S
C1684 C1683 1.410 . S
C1684 C1685 1.392 . S
C1684 C1687 1.511 . S
C1685 C1681 1.376 . S
C1685 C1684 1.392 . S
C1685 H1697 0.929 . S
C1686 C1682 1.531 . S
C1686 H1698 0.960 . S
C1686 H1699 0.962 . S
C1686 H1700 0.960 . S
C1687 C1684 1.511 . S
C1687 H1701 0.961 . S
C1687 H1702 0.961 . S
C1687 H1703 0.961 . S
C1688 C1689 1.370 . S
C1688 C1690 1.363 . S
C1688 H1704 0.931 . S
C1689 C1688 1.370 . S
C1689 C1693 1.408 . S
C1690 C1688 1.363 . S
C1690 C1691 1.370 . S
C1690 C1694 1.524 . S
C1691 C1683 1.503 . S
C1691 C1690 1.370 . S
C1691 C1692 1.403 . S
C1692 C1691 1.403 . S
C1692 C1693 1.404 . S
C1692 C1695 1.539 . S
C1693 C1689 1.408 . S
C1693 C1692 1.404 . S
C1693 H1705 0.930 . S
C1694 C1690 1.524 . S
C1694 H1706 0.956 . S
C1694 H1707 0.961 . S
C1694 H1708 0.961 . S
C1695 C1692 1.539 . S
C1695 H1709 0.958 . S
C1695 H1710 0.961 . S
C1695 H1711 0.960 . S
H1696 C1680 0.931 . S
H1697 C1685 0.929 . S
H1698 C1686 0.960 . S
H1699 C1686 0.962 . S
H1700 C1686 0.960 . S
H1701 C1687 0.961 . S
H1702 C1687 0.961 . S
H1703 C1687 0.961 . S
H1704 C1688 0.931 . S
H1705 C1693 0.930 . S
H1706 C1694 0.956 . S
H1707 C1694 0.961 . S
H1708 C1694 0.961 . S
H1709 C1695 0.958 . S
H1710 C1695 0.961 . S
H1711 C1695 0.960 . S
C1712 C1713 1.391 . S
C1712 C1714 1.394 . S
C1712 H1728 0.931 . S
C1713 C1712 1.391 . S
C1713 C1717 1.376 1_455 S
C1714 C1712 1.394 . S
C1714 C1715 1.369 . S
C1714 C1718 1.531 . S
C1715 C1714 1.369 . S
C1715 C1716 1.410 1_455 S
C1715 C1723 1.503 . S
C1716 C1715 1.410 1_655 S
C1716 C1717 1.392 . S
C1716 C1719 1.511 . S
C1717 C1713 1.376 1_655 S
C1717 C1716 1.392 . S
C1717 H1729 0.929 . S
C1718 C1714 1.531 . S
C1718 H1730 0.960 . S
C1718 H1731 0.962 . S
C1718 H1732 0.960 . S
C1719 C1716 1.511 . S
C1719 H1733 0.961 . S
C1719 H1734 0.961 . S
C1719 H1735 0.961 . S
C1720 C1721 1.370 . S
C1720 C1722 1.363 . S
C1720 H1736 0.931 . S
C1721 C1720 1.370 . S
C1721 C1725 1.408 . S
C1722 C1720 1.363 . S
C1722 C1723 1.370 . S
C1722 C1726 1.524 . S
C1723 C1715 1.503 . S
C1723 C1722 1.370 . S
C1723 C1724 1.403 . S
C1724 C1723 1.403 . S
C1724 C1725 1.404 . S
C1724 C1727 1.539 . S
C1725 C1721 1.408 . S
C1725 C1724 1.404 . S
C1725 H1737 0.930 . S
C1726 C1722 1.524 . S
C1726 H1738 0.956 . S
C1726 H1739 0.961 . S
C1726 H1740 0.961 . S
C1727 C1724 1.539 . S
C1727 H1741 0.958 . S
C1727 H1742 0.961 . S
C1727 H1743 0.960 . S
H1728 C1712 0.931 . S
H1729 C1717 0.929 . S
H1730 C1718 0.960 . S
H1731 C1718 0.962 . S
H1732 C1718 0.960 . S
H1733 C1719 0.961 . S
H1734 C1719 0.961 . S
H1735 C1719 0.961 . S
H1736 C1720 0.931 . S
H1737 C1725 0.930 . S
H1738 C1726 0.956 . S
H1739 C1726 0.961 . S
H1740 C1726 0.961 . S
H1741 C1727 0.958 . S
H1742 C1727 0.961 . S
H1743 C1727 0.960 . S
C1744 C1745 1.391 . S
C1744 C1746 1.394 . S
C1744 H1760 0.931 . S
C1745 C1744 1.391 . S
C1745 C1749 1.376 . S
C1746 C1744 1.394 . S
C1746 C1747 1.369 . S
C1746 C1750 1.531 . S
C1747 C1746 1.369 . S
C1747 C1748 1.410 . S
C1747 C1755 1.503 . S
C1748 C1747 1.410 . S
C1748 C1749 1.392 . S
C1748 C1751 1.511 . S
C1749 C1745 1.376 . S
C1749 C1748 1.392 . S
C1749 H1761 0.929 . S
C1750 C1746 1.531 . S
C1750 H1762 0.960 . S
C1750 H1763 0.962 . S
C1750 H1764 0.960 . S
C1751 C1748 1.511 . S
C1751 H1765 0.961 . S
C1751 H1766 0.961 . S
C1751 H1767 0.961 . S
C1752 C1753 1.370 . S
C1752 C1754 1.363 . S
C1752 H1768 0.931 . S
C1753 C1752 1.370 . S
C1753 C1757 1.408 . S
C1754 C1752 1.363 . S
C1754 C1755 1.370 . S
C1754 C1758 1.524 . S
C1755 C1747 1.503 . S
C1755 C1754 1.370 . S
C1755 C1756 1.403 . S
C1756 C1755 1.403 . S
C1756 C1757 1.404 . S
C1756 C1759 1.539 . S
C1757 C1753 1.408 . S
C1757 C1756 1.404 . S
C1757 H1769 0.930 . S
C1758 C1754 1.524 . S
C1758 H1770 0.956 . S
C1758 H1771 0.961 . S
C1758 H1772 0.961 . S
C1759 C1756 1.539 . S
C1759 H1773 0.958 . S
C1759 H1774 0.961 . S
C1759 H1775 0.960 . S
H1760 C1744 0.931 . S
H1761 C1749 0.929 . S
H1762 C1750 0.960 . S
H1763 C1750 0.962 . S
H1764 C1750 0.960 . S
H1765 C1751 0.961 . S
H1766 C1751 0.961 . S
H1767 C1751 0.961 . S
H1768 C1752 0.931 . S
H1769 C1757 0.930 . S
H1770 C1758 0.956 . S
H1771 C1758 0.961 . S
H1772 C1758 0.961 . S
H1773 C1759 0.958 . S
H1774 C1759 0.961 . S
H1775 C1759 0.960 . S
C1776 C1777 1.391 . S
C1776 C1778 1.394 . S
C1776 H1792 0.931 . S
C1777 C1776 1.391 . S
C1777 C1781 1.376 . S
C1778 C1776 1.394 . S
C1778 C1779 1.369 . S
C1778 C1782 1.531 . S
C1779 C1778 1.369 . S
C1779 C1780 1.410 . S
C1779 C1787 1.503 . S
C1780 C1779 1.410 . S
C1780 C1781 1.392 . S
C1780 C1783 1.511 . S
C1781 C1777 1.376 . S
C1781 C1780 1.392 . S
C1781 H1793 0.929 . S
C1782 C1778 1.531 . S
C1782 H1794 0.960 . S
C1782 H1795 0.962 . S
C1782 H1796 0.960 . S
C1783 C1780 1.511 . S
C1783 H1797 0.961 . S
C1783 H1798 0.961 . S
C1783 H1799 0.961 . S
C1784 C1785 1.370 . S
C1784 C1786 1.363 . S
C1784 H1800 0.931 . S
C1785 C1784 1.370 . S
C1785 C1789 1.408 . S
C1786 C1784 1.363 . S
C1786 C1787 1.370 . S
C1786 C1790 1.524 . S
C1787 C1779 1.503 . S
C1787 C1786 1.370 . S
C1787 C1788 1.403 . S
C1788 C1787 1.403 . S
C1788 C1789 1.404 . S
C1788 C1791 1.539 . S
C1789 C1785 1.408 . S
C1789 C1788 1.404 . S
C1789 H1801 0.930 . S
C1790 C1786 1.524 . S
C1790 H1802 0.956 . S
C1790 H1803 0.961 . S
C1790 H1804 0.961 . S
C1791 C1788 1.539 . S
C1791 H1805 0.958 . S
C1791 H1806 0.961 . S
C1791 H1807 0.960 . S
H1792 C1776 0.931 . S
H1793 C1781 0.929 . S
H1794 C1782 0.960 . S
H1795 C1782 0.962 . S
H1796 C1782 0.960 . S
H1797 C1783 0.961 . S
H1798 C1783 0.961 . S
H1799 C1783 0.961 . S
H1800 C1784 0.931 . S
H1801 C1789 0.930 . S
H1802 C1790 0.956 . S
H1803 C1790 0.961 . S
H1804 C1790 0.961 . S
H1805 C1791 0.958 . S
H1806 C1791 0.961 . S
H1807 C1791 0.960 . S
C1808 C1809 1.391 . S
C1808 C1810 1.394 . S
C1808 H1824 0.931 . S
C1809 C1808 1.391 . S
C1809 C1813 1.376 . S
C1810 C1808 1.394 . S
C1810 C1811 1.369 . S
C1810 C1814 1.531 . S
C1811 C1810 1.369 . S
C1811 C1812 1.410 . S
C1811 C1819 1.503 . S
C1812 C1811 1.410 . S
C1812 C1813 1.392 . S
C1812 C1815 1.511 . S
C1813 C1809 1.376 . S
C1813 C1812 1.392 . S
C1813 H1825 0.929 . S
C1814 C1810 1.531 . S
C1814 H1826 0.960 . S
C1814 H1827 0.962 . S
C1814 H1828 0.960 . S
C1815 C1812 1.511 . S
C1815 H1829 0.961 . S
C1815 H1830 0.961 . S
C1815 H1831 0.961 . S
C1816 C1817 1.370 . S
C1816 C1818 1.363 . S
C1816 H1832 0.931 . S
C1817 C1816 1.370 . S
C1817 C1821 1.408 . S
C1818 C1816 1.363 . S
C1818 C1819 1.370 . S
C1818 C1822 1.524 . S
C1819 C1811 1.503 . S
C1819 C1818 1.370 . S
C1819 C1820 1.403 . S
C1820 C1819 1.403 . S
C1820 C1821 1.404 . S
C1820 C1823 1.539 . S
C1821 C1817 1.408 . S
C1821 C1820 1.404 . S
C1821 H1833 0.930 . S
C1822 C1818 1.524 . S
C1822 H1834 0.956 . S
C1822 H1835 0.961 . S
C1822 H1836 0.961 . S
C1823 C1820 1.539 . S
C1823 H1837 0.958 . S
C1823 H1838 0.961 . S
C1823 H1839 0.960 . S
H1824 C1808 0.931 . S
H1825 C1813 0.929 . S
H1826 C1814 0.960 . S
H1827 C1814 0.962 . S
H1828 C1814 0.960 . S
H1829 C1815 0.961 . S
H1830 C1815 0.961 . S
H1831 C1815 0.961 . S
H1832 C1816 0.931 . S
H1833 C1821 0.930 . S
H1834 C1822 0.956 . S
H1835 C1822 0.961 . S
H1836 C1822 0.961 . S
H1837 C1823 0.958 . S
H1838 C1823 0.961 . S
H1839 C1823 0.960 . S
C1840 C1841 1.391 . S
C1840 C1842 1.394 . S
C1840 H1856 0.931 . S
C1841 C1840 1.391 . S
C1841 C1845 1.376 . S
C1842 C1840 1.394 . S
C1842 C1843 1.369 . S
C1842 C1846 1.531 . S
C1843 C1842 1.369 . S
C1843 C1844 1.410 . S
C1843 C1851 1.503 . S
C1844 C1843 1.410 . S
C1844 C1845 1.392 . S
C1844 C1847 1.511 . S
C1845 C1841 1.376 . S
C1845 C1844 1.392 . S
C1845 H1857 0.929 . S
C1846 C1842 1.531 . S
C1846 H1858 0.960 . S
C1846 H1859 0.962 . S
C1846 H1860 0.960 . S
C1847 C1844 1.511 . S
C1847 H1861 0.961 . S
C1847 H1862 0.961 . S
C1847 H1863 0.961 . S
C1848 C1849 1.370 . S
C1848 C1850 1.363 . S
C1848 H1864 0.931 . S
C1849 C1848 1.370 . S
C1849 C1853 1.408 . S
C1850 C1848 1.363 . S
C1850 C1851 1.370 . S
C1850 C1854 1.524 . S
C1851 C1843 1.503 . S
C1851 C1850 1.370 . S
C1851 C1852 1.403 . S
C1852 C1851 1.403 . S
C1852 C1853 1.404 . S
C1852 C1855 1.539 . S
C1853 C1849 1.408 . S
C1853 C1852 1.404 . S
C1853 H1865 0.930 1_655 S
C1854 C1850 1.524 . S
C1854 H1866 0.956 . S
C1854 H1867 0.961 . S
C1854 H1868 0.961 . S
C1855 C1852 1.539 . S
C1855 H1869 0.958 . S
C1855 H1870 0.961 1_655 S
C1855 H1871 0.960 . S
H1856 C1840 0.931 . S
H1857 C1845 0.929 . S
H1858 C1846 0.960 . S
H1859 C1846 0.962 . S
H1860 C1846 0.960 . S
H1861 C1847 0.961 . S
H1862 C1847 0.961 . S
H1863 C1847 0.961 . S
H1864 C1848 0.931 . S
H1865 C1853 0.930 1_455 S
H1866 C1854 0.956 . S
H1867 C1854 0.961 . S
H1868 C1854 0.961 . S
H1869 C1855 0.958 . S
H1870 C1855 0.961 1_455 S
H1871 C1855 0.960 . S
C1872 C1873 1.391 . S
C1872 C1874 1.394 . S
C1872 H1888 0.931 . S
C1873 C1872 1.391 . S
C1873 C1877 1.376 . S
C1874 C1872 1.394 . S
C1874 C1875 1.369 . S
C1874 C1878 1.531 . S
C1875 C1874 1.369 . S
C1875 C1876 1.410 . S
C1875 C1883 1.503 . S
C1876 C1875 1.410 . S
C1876 C1877 1.392 . S
C1876 C1879 1.511 . S
C1877 C1873 1.376 . S
C1877 C1876 1.392 . S
C1877 H1889 0.929 . S
C1878 C1874 1.531 . S
C1878 H1890 0.960 . S
C1878 H1891 0.962 . S
C1878 H1892 0.960 . S
C1879 C1876 1.511 . S
C1879 H1893 0.961 . S
C1879 H1894 0.961 . S
C1879 H1895 0.961 . S
C1880 C1881 1.370 . S
C1880 C1882 1.363 . S
C1880 H1896 0.931 . S
C1881 C1880 1.370 . S
C1881 C1885 1.408 . S
C1882 C1880 1.363 . S
C1882 C1883 1.370 . S
C1882 C1886 1.524 . S
C1883 C1875 1.503 . S
C1883 C1882 1.370 . S
C1883 C1884 1.403 . S
C1884 C1883 1.403 . S
C1884 C1885 1.404 . S
C1884 C1887 1.539 . S
C1885 C1881 1.408 . S
C1885 C1884 1.404 . S
C1885 H1897 0.930 . S
C1886 C1882 1.524 . S
C1886 H1898 0.956 . S
C1886 H1899 0.961 . S
C1886 H1900 0.961 . S
C1887 C1884 1.539 . S
C1887 H1901 0.958 . S
C1887 H1902 0.961 . S
C1887 H1903 0.960 . S
H1888 C1872 0.931 . S
H1889 C1877 0.929 . S
H1890 C1878 0.960 . S
H1891 C1878 0.962 . S
H1892 C1878 0.960 . S
H1893 C1879 0.961 . S
H1894 C1879 0.961 . S
H1895 C1879 0.961 . S
H1896 C1880 0.931 . S
H1897 C1885 0.930 . S
H1898 C1886 0.956 . S
H1899 C1886 0.961 . S
H1900 C1886 0.961 . S
H1901 C1887 0.958 . S
H1902 C1887 0.961 . S
H1903 C1887 0.960 . S
C1904 C1905 1.391 1_565 S
C1904 C1906 1.394 . S
C1904 H1920 0.931 . S
C1905 C1904 1.391 1_545 S
C1905 C1909 1.376 . S
C1906 C1904 1.394 . S
C1906 C1907 1.369 1_565 S
C1906 C1910 1.531 . S
C1907 C1906 1.369 1_545 S
C1907 C1908 1.410 . S
C1907 C1915 1.503 . S
C1908 C1907 1.410 . S
C1908 C1909 1.392 . S
C1908 C1911 1.511 . S
C1909 C1905 1.376 . S
C1909 C1908 1.392 . S
C1909 H1921 0.929 . S
C1910 C1906 1.531 . S
C1910 H1922 0.960 . S
C1910 H1923 0.962 . S
C1910 H1924 0.960 . S
C1911 C1908 1.511 . S
C1911 H1925 0.961 . S
C1911 H1926 0.961 . S
C1911 H1927 0.961 . S
C1912 C1913 1.370 . S
C1912 C1914 1.363 . S
C1912 H1928 0.931 . S
C1913 C1912 1.370 . S
C1913 C1917 1.408 . S
C1914 C1912 1.363 . S
C1914 C1915 1.370 . S
C1914 C1918 1.524 . S
C1915 C1907 1.503 . S
C1915 C1914 1.370 . S
C1915 C1916 1.403 . S
C1916 C1915 1.403 . S
C1916 C1917 1.404 . S
C1916 C1919 1.539 . S
C1917 C1913 1.408 . S
C1917 C1916 1.404 . S
C1917 H1929 0.930 . S
C1918 C1914 1.524 . S
C1918 H1930 0.956 1_545 S
C1918 H1931 0.961 . S
C1918 H1932 0.961 . S
C1919 C1916 1.539 . S
C1919 H1933 0.958 . S
C1919 H1934 0.961 . S
C1919 H1935 0.960 . S
H1920 C1904 0.931 . S
H1921 C1909 0.929 . S
H1922 C1910 0.960 . S
H1923 C1910 0.962 . S
H1924 C1910 0.960 . S
H1925 C1911 0.961 . S
H1926 C1911 0.961 . S
H1927 C1911 0.961 . S
H1928 C1912 0.931 . S
H1929 C1917 0.930 . S
H1930 C1918 0.956 1_565 S
H1931 C1918 0.961 . S
H1932 C1918 0.961 . S
H1933 C1919 0.958 . S
H1934 C1919 0.961 . S
H1935 C1919 0.960 . S
C1936 C1937 1.391 . S
C1936 C1938 1.394 . S
C1936 H1952 0.931 . S
C1937 C1936 1.391 . S
C1937 C1941 1.376 . S
C1938 C1936 1.394 . S
C1938 C1939 1.369 . S
C1938 C1942 1.531 . S
C1939 C1938 1.369 . S
C1939 C1940 1.410 . S
C1939 C1947 1.503 . S
C1940 C1939 1.410 . S
C1940 C1941 1.392 . S
C1940 C1943 1.511 . S
C1941 C1937 1.376 . S
C1941 C1940 1.392 . S
C1941 H1953 0.929 . S
C1942 C1938 1.531 . S
C1942 H1954 0.960 . S
C1942 H1955 0.962 . S
C1942 H1956 0.960 . S
C1943 C1940 1.511 . S
C1943 H1957 0.961 . S
C1943 H1958 0.961 . S
C1943 H1959 0.961 . S
C1944 C1945 1.370 . S
C1944 C1946 1.363 . S
C1944 H1960 0.931 . S
C1945 C1944 1.370 . S
C1945 C1949 1.408 . S
C1946 C1944 1.363 . S
C1946 C1947 1.370 . S
C1946 C1950 1.524 . S
C1947 C1939 1.503 . S
C1947 C1946 1.370 . S
C1947 C1948 1.403 . S
C1948 C1947 1.403 . S
C1948 C1949 1.404 . S
C1948 C1951 1.539 . S
C1949 C1945 1.408 . S
C1949 C1948 1.404 . S
C1949 H1961 0.930 . S
C1950 C1946 1.524 . S
C1950 H1962 0.956 . S
C1950 H1963 0.961 . S
C1950 H1964 0.961 . S
C1951 C1948 1.539 . S
C1951 H1965 0.958 . S
C1951 H1966 0.961 . S
C1951 H1967 0.960 . S
H1952 C1936 0.931 . S
H1953 C1941 0.929 . S
H1954 C1942 0.960 . S
H1955 C1942 0.962 . S
H1956 C1942 0.960 . S
H1957 C1943 0.961 . S
H1958 C1943 0.961 . S
H1959 C1943 0.961 . S
H1960 C1944 0.931 . S
H1961 C1949 0.930 . S
H1962 C1950 0.956 . S
H1963 C1950 0.961 . S
H1964 C1950 0.961 . S
H1965 C1951 0.958 . S
H1966 C1951 0.961 . S
H1967 C1951 0.960 . S
C1968 C1969 1.391 . S
C1968 C1970 1.394 . S
C1968 H1984 0.931 . S
C1969 C1968 1.391 . S
C1969 C1973 1.376 . S
C1970 C1968 1.394 . S
C1970 C1971 1.369 . S
C1970 C1974 1.531 . S
C1971 C1970 1.369 . S
C1971 C1972 1.410 . S
C1971 C1979 1.503 . S
C1972 C1971 1.410 . S
C1972 C1973 1.392 . S
C1972 C1975 1.511 . S
C1973 C1969 1.376 . S
C1973 C1972 1.392 . S
C1973 H1985 0.929 . S
C1974 C1970 1.531 . S
C1974 H1986 0.960 . S
C1974 H1987 0.962 . S
C1974 H1988 0.960 . S
C1975 C1972 1.511 . S
C1975 H1989 0.961 . S
C1975 H1990 0.977 . S
C1975 H1991 0.961 . S
C1976 C1977 1.370 . S
C1976 C1978 1.363 . S
C1976 H1992 0.931 1_545 S
C1977 C1976 1.370 . S
C1977 C1981 1.408 . S
C1978 C1976 1.363 . S
C1978 C1979 1.370 . S
C1978 C1982 1.524 1_545 S
C1979 C1971 1.503 . S
C1979 C1978 1.370 . S
C1979 C1980 1.403 . S
C1980 C1979 1.403 . S
C1980 C1981 1.404 . S
C1980 C1983 1.539 . S
C1981 C1977 1.408 . S
C1981 C1980 1.404 . S
C1981 H1993 0.930 . S
C1982 C1978 1.524 1_565 S
C1982 H1994 0.956 . S
C1982 H1995 0.961 . S
C1982 H1996 0.961 . S
C1983 C1980 1.539 . S
C1983 H1997 0.958 . S
C1983 H1998 0.961 . S
C1983 H1999 0.960 . S
H1984 C1968 0.931 . S
H1985 C1973 0.929 . S
H1986 C1974 0.960 . S
H1987 C1974 0.962 . S
H1988 C1974 0.960 . S
H1989 C1975 0.961 . S
H1990 C1975 0.977 . S
H1991 C1975 0.961 . S
H1992 C1976 0.931 1_565 S
H1993 C1981 0.930 . S
H1994 C1982 0.956 . S
H1995 C1982 0.961 . S
H1996 C1982 0.961 . S
H1997 C1983 0.958 . S
H1998 C1983 0.961 . S
H1999 C1983 0.960 . S
C2000 C2001 1.391 . S
C2000 C2002 1.394 . S
C2000 H2016 0.931 . S
C2001 C2000 1.391 . S
C2001 C2005 1.376 . S
C2002 C2000 1.394 . S
C2002 C2003 1.369 . S
C2002 C2006 1.531 . S
C2003 C2002 1.369 . S
C2003 C2004 1.410 . S
C2003 C2011 1.503 . S
C2004 C2003 1.410 . S
C2004 C2005 1.392 . S
C2004 C2007 1.511 . S
C2005 C2001 1.376 . S
C2005 C2004 1.392 . S
C2005 H2017 0.929 . S
C2006 C2002 1.531 . S
C2006 H2018 0.960 . S
C2006 H2019 0.962 . S
C2006 H2020 0.960 . S
C2007 C2004 1.511 . S
C2007 H2021 0.961 . S
C2007 H2022 0.961 . S
C2007 H2023 0.961 . S
C2008 C2009 1.370 . S
C2008 C2010 1.363 . S
C2008 H2024 0.931 . S
C2009 C2008 1.370 . S
C2009 C2013 1.408 . S
C2010 C2008 1.363 . S
C2010 C2011 1.370 . S
C2010 C2014 1.524 . S
C2011 C2003 1.503 . S
C2011 C2010 1.370 . S
C2011 C2012 1.403 . S
C2012 C2011 1.403 . S
C2012 C2013 1.404 . S
C2012 C2015 1.539 . S
C2013 C2009 1.408 . S
C2013 C2012 1.404 . S
C2013 H2025 0.930 . S
C2014 C2010 1.524 . S
C2014 H2026 0.956 . S
C2014 H2027 0.961 . S
C2014 H2028 0.961 . S
C2015 C2012 1.539 . S
C2015 H2029 0.958 . S
C2015 H2030 0.961 . S
C2015 H2031 0.960 . S
H2016 C2000 0.931 . S
H2017 C2005 0.929 . S
H2018 C2006 0.960 . S
H2019 C2006 0.962 . S
H2020 C2006 0.960 . S
H2021 C2007 0.961 . S
H2022 C2007 0.961 . S
H2023 C2007 0.961 . S
H2024 C2008 0.931 . S
H2025 C2013 0.930 . S
H2026 C2014 0.956 . S
H2027 C2014 0.961 . S
H2028 C2014 0.961 . S
H2029 C2015 0.958 . S
H2030 C2015 0.961 . S
H2031 C2015 0.960 . S
C2032 C2033 1.391 . S
C2032 C2034 1.394 . S
C2032 H2048 0.931 1_545 S
C2033 C2032 1.391 . S
C2033 C2037 1.376 . S
C2034 C2032 1.394 . S
C2034 C2035 1.369 . S
C2034 C2038 1.531 . S
C2035 C2034 1.369 . S
C2035 C2036 1.410 . S
C2035 C2043 1.503 . S
C2036 C2035 1.410 . S
C2036 C2037 1.392 . S
C2036 C2039 1.511 . S
C2037 C2033 1.376 . S
C2037 C2036 1.392 . S
C2037 H2049 0.929 . S
C2038 C2034 1.531 . S
C2038 H2050 0.960 1_545 S
C2038 H2051 0.962 . S
C2038 H2052 0.960 1_545 S
C2039 C2036 1.511 . S
C2039 H2053 0.961 . S
C2039 H2054 0.961 . S
C2039 H2055 0.961 . S
C2040 C2041 1.370 . S
C2040 C2042 1.363 . S
C2040 H2056 0.931 . S
C2041 C2040 1.370 . S
C2041 C2045 1.408 . S
C2042 C2040 1.363 . S
C2042 C2043 1.370 . S
C2042 C2046 1.524 . S
C2043 C2035 1.503 . S
C2043 C2042 1.370 . S
C2043 C2044 1.403 . S
C2044 C2043 1.403 . S
C2044 C2045 1.404 . S
C2044 C2047 1.539 1_545 S
C2045 C2041 1.408 . S
C2045 C2044 1.404 . S
C2045 H2057 0.930 . S
C2046 C2042 1.524 . S
C2046 H2058 0.956 . S
C2046 H2059 0.961 . S
C2046 H2060 0.961 . S
C2047 C2044 1.539 1_565 S
C2047 H2061 0.958 . S
C2047 H2062 0.961 . S
C2047 H2063 0.960 . S
H2048 C2032 0.931 1_565 S
H2049 C2037 0.929 . S
H2050 C2038 0.960 1_565 S
H2051 C2038 0.962 . S
H2052 C2038 0.960 1_565 S
H2053 C2039 0.961 . S
H2054 C2039 0.961 . S
H2055 C2039 0.961 . S
H2056 C2040 0.931 . S
H2057 C2045 0.930 . S
H2058 C2046 0.956 . S
H2059 C2046 0.961 . S
H2060 C2046 0.961 . S
H2061 C2047 0.958 . S
H2062 C2047 0.961 . S
H2063 C2047 0.960 . S
C2064 C2065 1.391 . S
C2064 C2066 1.394 . S
C2064 H2080 0.931 . S
C2065 C2064 1.391 . S
C2065 C2069 1.376 . S
C2066 C2064 1.394 . S
C2066 C2067 1.369 . S
C2066 C2070 1.531 . S
C2067 C2066 1.369 . S
C2067 C2068 1.410 . S
C2067 C2075 1.503 . S
C2068 C2067 1.410 . S
C2068 C2069 1.392 . S
C2068 C2071 1.511 . S
C2069 C2065 1.376 . S
C2069 C2068 1.392 . S
C2069 H2081 0.929 . S
C2070 C2066 1.531 . S
C2070 H2082 0.960 . S
C2070 H2083 0.962 . S
C2070 H2084 0.960 . S
C2071 C2068 1.511 . S
C2071 H2085 0.961 . S
C2071 H2086 0.961 . S
C2071 H2087 0.961 . S
C2072 C2073 1.370 . S
C2072 C2074 1.363 . S
C2072 H2088 0.931 . S
C2073 C2072 1.370 . S
C2073 C2077 1.408 . S
C2074 C2072 1.363 . S
C2074 C2075 1.370 . S
C2074 C2078 1.524 . S
C2075 C2067 1.503 . S
C2075 C2074 1.370 . S
C2075 C2076 1.403 . S
C2076 C2075 1.403 . S
C2076 C2077 1.404 . S
C2076 C2079 1.539 . S
C2077 C2073 1.408 . S
C2077 C2076 1.404 . S
C2077 H2089 0.930 . S
C2078 C2074 1.524 . S
C2078 H2090 0.956 . S
C2078 H2091 0.961 . S
C2078 H2092 0.961 . S
C2079 C2076 1.539 . S
C2079 H2093 0.958 . S
C2079 H2094 0.961 . S
C2079 H2095 0.960 . S
H2080 C2064 0.931 . S
H2081 C2069 0.929 . S
H2082 C2070 0.960 . S
H2083 C2070 0.962 . S
H2084 C2070 0.960 . S
H2085 C2071 0.961 . S
H2086 C2071 0.961 . S
H2087 C2071 0.961 . S
H2088 C2072 0.931 . S
H2089 C2077 0.930 . S
H2090 C2078 0.956 . S
H2091 C2078 0.961 . S
H2092 C2078 0.961 . S
H2093 C2079 0.958 . S
H2094 C2079 0.961 . S
H2095 C2079 0.960 . S
C2096 C2097 1.391 . S
C2096 C2098 1.394 . S
C2096 H2112 0.931 . S
C2097 C2096 1.391 . S
C2097 C2101 1.376 . S
C2098 C2096 1.394 . S
C2098 C2099 1.369 . S
C2098 C2102 1.531 . S
C2099 C2098 1.369 . S
C2099 C2100 1.410 . S
C2099 C2107 1.503 . S
C2100 C2099 1.410 . S
C2100 C2101 1.392 . S
C2100 C2103 1.511 1_565 S
C2101 C2097 1.376 . S
C2101 C2100 1.392 . S
C2101 H2113 0.929 . S
C2102 C2098 1.531 . S
C2102 H2114 0.960 . S
C2102 H2115 0.962 . S
C2102 H2116 0.960 . S
C2103 C2100 1.511 1_545 S
C2103 H2117 0.961 . S
C2103 H2118 0.961 . S
C2103 H2119 0.961 . S
C2104 C2105 1.370 1_565 S
C2104 C2106 1.363 . S
C2104 H2120 0.931 . S
C2105 C2104 1.370 1_545 S
C2105 C2109 1.408 . S
C2106 C2104 1.363 . S
C2106 C2107 1.370 . S
C2106 C2110 1.524 . S
C2107 C2099 1.503 . S
C2107 C2106 1.370 . S
C2107 C2108 1.403 . S
C2108 C2107 1.403 . S
C2108 C2109 1.403 1_565 S
C2108 C2111 1.539 1_554 S
C2109 C2105 1.408 . S
C2109 C2108 1.403 1_545 S
C2109 H2121 0.930 1_554 S
C2110 C2106 1.524 . S
C2110 H2122 0.956 . S
C2110 H2123 0.961 . S
C2110 H2124 0.961 . S
C2111 C2108 1.539 1_556 S
C2111 H2125 0.958 . S
C2111 H2126 0.961 . S
C2111 H2127 0.960 . S
H2112 C2096 0.931 . S
H2113 C2101 0.929 . S
H2114 C2102 0.960 . S
H2115 C2102 0.962 . S
H2116 C2102 0.960 . S
H2117 C2103 0.961 . S
H2118 C2103 0.961 . S
H2119 C2103 0.961 . S
H2120 C2104 0.931 . S
H2121 C2109 0.930 1_556 S
H2122 C2110 0.956 . S
H2123 C2110 0.961 . S
H2124 C2110 0.961 . S
H2125 C2111 0.958 . S
H2126 C2111 0.961 . S
H2127 C2111 0.960 . S
C2128 C2129 1.372 1_556 S
C2128 C2130 1.394 . S
C2128 H2144 0.931 . S
C2129 C2128 1.372 1_554 S
C2129 C2133 1.396 . S
C2130 C2128 1.394 . S
C2130 C2131 1.369 1_556 S
C2130 C2134 1.531 . S
C2131 C2130 1.369 1_554 S
C2131 C2132 1.410 . S
C2131 C2139 1.503 . S
C2132 C2131 1.410 . S
C2132 C2133 1.392 . S
C2132 C2135 1.511 . S
C2133 C2129 1.396 . S
C2133 C2132 1.392 . S
C2133 H2145 0.929 . S
C2134 C2130 1.531 . S
C2134 H2146 0.960 . S
C2134 H2147 0.962 . S
C2134 H2148 0.960 . S
C2135 C2132 1.511 . S
C2135 H2149 0.961 . S
C2135 H2150 0.961 . S
C2135 H2151 0.961 . S
C2136 C2137 1.370 . S
C2136 C2138 1.363 . S
C2136 H2152 0.931 . S
C2137 C2136 1.370 . S
C2137 C2141 1.408 1_554 S
C2138 C2136 1.363 . S
C2138 C2139 1.370 . S
C2138 C2142 1.524 . S
C2139 C2131 1.503 . S
C2139 C2138 1.370 . S
C2139 C2140 1.403 1_554 S
C2140 C2139 1.403 1_556 S
C2140 C2141 1.404 . S
C2140 C2143 1.539 . S
C2141 C2137 1.408 1_556 S
C2141 C2140 1.404 . S
C2141 H2153 0.930 . S
C2142 C2138 1.524 . S
C2142 H2154 0.956 . S
C2142 H2155 0.961 . S
C2142 H2156 0.961 . S
C2143 C2140 1.539 . S
C2143 H2157 0.958 . S
C2143 H2158 0.961 . S
C2143 H2159 0.960 . S
H2144 C2128 0.931 . S
H2145 C2133 0.929 . S
H2146 C2134 0.960 . S
H2147 C2134 0.962 . S
H2148 C2134 0.960 . S
H2149 C2135 0.961 . S
H2150 C2135 0.961 . S
H2151 C2135 0.961 . S
H2152 C2136 0.931 . S
H2153 C2141 0.930 . S
H2154 C2142 0.956 . S
H2155 C2142 0.961 . S
H2156 C2142 0.961 . S
H2157 C2143 0.958 . S
H2158 C2143 0.961 . S
H2159 C2143 0.960 . S
C2160 C2161 1.391 . S
C2160 C2162 1.394 . S
C2160 H2176 0.931 . S
C2161 C2160 1.391 . S
C2161 C2165 1.376 . S
C2162 C2160 1.394 . S
C2162 C2163 1.369 . S
C2162 C2166 1.531 . S
C2163 C2162 1.369 . S
C2163 C2164 1.410 . S
C2163 C2171 1.503 . S
C2164 C2163 1.410 . S
C2164 C2165 1.392 . S
C2164 C2167 1.511 . S
C2165 C2161 1.376 . S
C2165 C2164 1.392 . S
C2165 H2177 0.929 . S
C2166 C2162 1.531 . S
C2166 H2178 0.960 . S
C2166 H2179 0.962 . S
C2166 H2180 0.960 . S
C2167 C2164 1.511 . S
C2167 H2181 0.961 . S
C2167 H2182 0.961 . S
C2167 H2183 0.961 . S
C2168 C2169 1.370 . S
C2168 C2170 1.363 . S
C2168 H2184 0.931 . S
C2169 C2168 1.370 . S
C2169 C2173 1.408 . S
C2170 C2168 1.363 . S
C2170 C2171 1.370 . S
C2170 C2174 1.524 . S
C2171 C2163 1.503 . S
C2171 C2170 1.370 . S
C2171 C2172 1.403 . S
C2172 C2171 1.403 . S
C2172 C2173 1.404 . S
C2172 C2175 1.539 . S
C2173 C2169 1.408 . S
C2173 C2172 1.404 . S
C2173 H2185 0.930 . S
C2174 C2170 1.524 . S
C2174 H2186 0.956 . S
C2174 H2187 0.961 . S
C2174 H2188 0.961 . S
C2175 C2172 1.539 . S
C2175 H2189 0.958 . S
C2175 H2190 0.961 . S
C2175 H2191 0.960 . S
H2176 C2160 0.931 . S
H2177 C2165 0.929 . S
H2178 C2166 0.960 . S
H2179 C2166 0.962 . S
H2180 C2166 0.960 . S
H2181 C2167 0.961 . S
H2182 C2167 0.961 . S
H2183 C2167 0.961 . S
H2184 C2168 0.931 . S
H2185 C2173 0.930 . S
H2186 C2174 0.956 . S
H2187 C2174 0.961 . S
H2188 C2174 0.961 . S
H2189 C2175 0.958 . S
H2190 C2175 0.961 . S
H2191 C2175 0.960 . S
C2192 C2193 1.391 . S
C2192 C2194 1.394 . S
C2192 H2208 0.931 . S
C2193 C2192 1.391 . S
C2193 C2197 1.376 . S
C2194 C2192 1.394 . S
C2194 C2195 1.369 . S
C2194 C2198 1.531 . S
C2195 C2194 1.369 . S
C2195 C2196 1.410 . S
C2195 C2203 1.503 . S
C2196 C2195 1.410 . S
C2196 C2197 1.392 . S
C2196 C2199 1.511 . S
C2197 C2193 1.376 . S
C2197 C2196 1.392 . S
C2197 H2209 0.929 . S
C2198 C2194 1.531 . S
C2198 H2210 0.960 . S
C2198 H2211 0.962 . S
C2198 H2212 0.960 . S
C2199 C2196 1.511 . S
C2199 H2213 0.961 . S
C2199 H2214 0.961 . S
C2199 H2215 0.961 . S
C2200 C2201 1.370 . S
C2200 C2202 1.363 . S
C2200 H2216 0.931 . S
C2201 C2200 1.370 . S
C2201 C2205 1.408 . S
C2202 C2200 1.363 . S
C2202 C2203 1.370 . S
C2202 C2206 1.524 . S
C2203 C2195 1.503 . S
C2203 C2202 1.370 . S
C2203 C2204 1.403 . S
C2204 C2203 1.403 . S
C2204 C2205 1.404 . S
C2204 C2207 1.539 . S
C2205 C2201 1.408 . S
C2205 C2204 1.404 . S
C2205 H2217 0.930 . S
C2206 C2202 1.524 . S
C2206 H2218 0.956 . S
C2206 H2219 0.961 . S
C2206 H2220 0.961 . S
C2207 C2204 1.539 . S
C2207 H2221 0.958 . S
C2207 H2222 0.961 . S
C2207 H2223 0.960 . S
H2208 C2192 0.931 . S
H2209 C2197 0.929 . S
H2210 C2198 0.960 . S
H2211 C2198 0.962 . S
H2212 C2198 0.960 . S
H2213 C2199 0.961 . S
H2214 C2199 0.961 . S
H2215 C2199 0.961 . S
H2216 C2200 0.931 . S
H2217 C2205 0.930 . S
H2218 C2206 0.956 . S
H2219 C2206 0.961 . S
H2220 C2206 0.961 . S
H2221 C2207 0.958 . S
H2222 C2207 0.961 . S
H2223 C2207 0.960 . S
C2224 C2225 1.391 . S
C2224 C2226 1.394 . S
C2224 H2240 0.931 . S
C2225 C2224 1.391 . S
C2225 C2229 1.376 . S
C2226 C2224 1.394 . S
C2226 C2227 1.369 . S
C2226 C2230 1.531 . S
C2227 C2226 1.369 . S
C2227 C2228 1.410 . S
C2227 C2235 1.503 . S
C2228 C2227 1.410 . S
C2228 C2229 1.392 . S
C2228 C2231 1.511 . S
C2229 C2225 1.376 . S
C2229 C2228 1.392 . S
C2229 H2241 0.929 1_565 S
C2230 C2226 1.531 . S
C2230 H2242 0.960 . S
C2230 H2243 0.962 . S
C2230 H2244 0.960 . S
C2231 C2228 1.511 . S
C2231 H2245 0.961 . S
C2231 H2246 0.961 . S
C2231 H2247 0.961 . S
C2232 C2233 1.370 . S
C2232 C2234 1.363 . S
C2232 H2248 0.931 . S
C2233 C2232 1.370 . S
C2233 C2237 1.408 . S
C2234 C2232 1.363 . S
C2234 C2235 1.370 . S
C2234 C2238 1.524 . S
C2235 C2227 1.503 . S
C2235 C2234 1.370 . S
C2235 C2236 1.403 . S
C2236 C2235 1.403 . S
C2236 C2237 1.404 . S
C2236 C2239 1.539 . S
C2237 C2233 1.408 . S
C2237 C2236 1.404 . S
C2237 H2249 0.930 . S
C2238 C2234 1.524 . S
C2238 H2250 0.956 . S
C2238 H2251 0.961 . S
C2238 H2252 0.961 . S
C2239 C2236 1.539 . S
C2239 H2253 0.958 . S
C2239 H2254 0.961 . S
C2239 H2255 0.960 . S
H2240 C2224 0.931 . S
H2241 C2229 0.929 1_545 S
H2242 C2230 0.960 . S
H2243 C2230 0.962 . S
H2244 C2230 0.960 . S
H2245 C2231 0.961 . S
H2246 C2231 0.961 . S
H2247 C2231 0.961 . S
H2248 C2232 0.931 . S
H2249 C2237 0.930 . S
H2250 C2238 0.956 . S
H2251 C2238 0.961 . S
H2252 C2238 0.961 . S
H2253 C2239 0.958 . S
H2254 C2239 0.961 . S
H2255 C2239 0.960 . S
C2256 C2257 1.391 . S
C2256 C2258 1.394 . S
C2256 H2272 0.931 . S
C2257 C2256 1.391 . S
C2257 C2261 1.376 . S
C2258 C2256 1.394 . S
C2258 C2259 1.369 . S
C2258 C2262 1.531 . S
C2259 C2258 1.369 . S
C2259 C2260 1.410 . S
C2259 C2267 1.503 . S
C2260 C2259 1.410 . S
C2260 C2261 1.392 . S
C2260 C2263 1.511 . S
C2261 C2257 1.376 . S
C2261 C2260 1.392 . S
C2261 H2273 0.929 . S
C2262 C2258 1.531 . S
C2262 H2274 0.960 . S
C2262 H2275 0.962 . S
C2262 H2276 0.960 . S
C2263 C2260 1.511 . S
C2263 H2277 0.961 . S
C2263 H2278 0.961 . S
C2263 H2279 0.961 . S
C2264 C2265 1.370 . S
C2264 C2266 1.363 . S
C2264 H2280 0.931 . S
C2265 C2264 1.370 . S
C2265 C2269 1.408 . S
C2266 C2264 1.363 . S
C2266 C2267 1.370 . S
C2266 C2270 1.524 . S
C2267 C2259 1.503 . S
C2267 C2266 1.370 . S
C2267 C2268 1.403 . S
C2268 C2267 1.403 . S
C2268 C2269 1.404 . S
C2268 C2271 1.539 . S
C2269 C2265 1.408 . S
C2269 C2268 1.404 . S
C2269 H2281 0.930 . S
C2270 C2266 1.524 . S
C2270 H2282 0.956 . S
C2270 H2283 0.961 . S
C2270 H2284 0.961 . S
C2271 C2268 1.539 . S
C2271 H2285 0.958 . S
C2271 H2286 0.961 . S
C2271 H2287 0.960 . S
H2272 C2256 0.931 . S
H2273 C2261 0.929 . S
H2274 C2262 0.960 . S
H2275 C2262 0.962 . S
H2276 C2262 0.960 . S
H2277 C2263 0.961 . S
H2278 C2263 0.961 . S
H2279 C2263 0.961 . S
H2280 C2264 0.931 . S
H2281 C2269 0.930 . S
H2282 C2270 0.956 . S
H2283 C2270 0.961 . S
H2284 C2270 0.961 . S
H2285 C2271 0.958 . S
H2286 C2271 0.961 . S
H2287 C2271 0.960 . S
C2288 C2289 1.391 . S
C2288 C2290 1.394 . S
C2288 H2304 0.931 . S
C2289 C2288 1.391 . S
C2289 C2293 1.376 . S
C2290 C2288 1.394 . S
C2290 C2291 1.369 . S
C2290 C2294 1.531 . S
C2291 C2290 1.369 . S
C2291 C2292 1.410 . S
C2291 C2299 1.503 . S
C2292 C2291 1.410 . S
C2292 C2293 1.392 . S
C2292 C2295 1.511 . S
C2293 C2289 1.376 . S
C2293 C2292 1.392 . S
C2293 H2305 0.929 . S
C2294 C2290 1.531 . S
C2294 H2306 0.960 . S
C2294 H2307 0.962 . S
C2294 H2308 0.960 . S
C2295 C2292 1.511 . S
C2295 H2309 0.961 . S
C2295 H2310 0.961 . S
C2295 H2311 0.961 . S
C2296 C2297 1.370 . S
C2296 C2298 1.363 . S
C2296 H2312 0.931 . S
C2297 C2296 1.370 . S
C2297 C2301 1.408 . S
C2298 C2296 1.363 . S
C2298 C2299 1.370 . S
C2298 C2302 1.524 . S
C2299 C2291 1.503 . S
C2299 C2298 1.370 . S
C2299 C2300 1.403 . S
C2300 C2299 1.403 . S
C2300 C2301 1.404 . S
C2300 C2303 1.539 . S
C2301 C2297 1.408 . S
C2301 C2300 1.404 . S
C2301 H2313 0.930 . S
C2302 C2298 1.524 . S
C2302 H2314 0.956 . S
C2302 H2315 0.961 . S
C2302 H2316 0.961 . S
C2303 C2300 1.539 . S
C2303 H2317 0.958 . S
C2303 H2318 0.961 . S
C2303 H2319 0.960 . S
H2304 C2288 0.931 . S
H2305 C2293 0.929 . S
H2306 C2294 0.960 . S
H2307 C2294 0.962 . S
H2308 C2294 0.960 . S
H2309 C2295 0.961 . S
H2310 C2295 0.961 . S
H2311 C2295 0.961 . S
H2312 C2296 0.931 . S
H2313 C2301 0.930 . S
H2314 C2302 0.956 . S
H2315 C2302 0.961 . S
H2316 C2302 0.961 . S
H2317 C2303 0.958 . S
H2318 C2303 0.961 . S
H2319 C2303 0.960 . S
C2320 C2321 1.391 . S
C2320 C2322 1.394 . S
C2320 H2336 0.931 . S
C2321 C2320 1.391 . S
C2321 C2325 1.376 . S
C2322 C2320 1.394 . S
C2322 C2323 1.369 . S
C2322 C2326 1.531 . S
C2323 C2322 1.369 . S
C2323 C2324 1.410 . S
C2323 C2331 1.503 . S
C2324 C2323 1.410 . S
C2324 C2325 1.392 . S
C2324 C2327 1.511 . S
C2325 C2321 1.376 . S
C2325 C2324 1.392 . S
C2325 H2337 0.929 . S
C2326 C2322 1.531 . S
C2326 H2338 0.960 . S
C2326 H2339 0.962 . S
C2326 H2340 0.960 . S
C2327 C2324 1.511 . S
C2327 H2341 0.961 . S
C2327 H2342 0.961 . S
C2327 H2343 0.961 . S
C2328 C2329 1.370 . S
C2328 C2330 1.363 . S
C2328 H2344 0.931 . S
C2329 C2328 1.370 . S
C2329 C2333 1.408 . S
C2330 C2328 1.363 . S
C2330 C2331 1.370 . S
C2330 C2334 1.524 . S
C2331 C2323 1.503 . S
C2331 C2330 1.370 . S
C2331 C2332 1.403 . S
C2332 C2331 1.403 . S
C2332 C2333 1.404 . S
C2332 C2335 1.539 . S
C2333 C2329 1.408 . S
C2333 C2332 1.404 . S
C2333 H2345 0.930 . S
C2334 C2330 1.524 . S
C2334 H2346 0.956 . S
C2334 H2347 0.961 . S
C2334 H2348 0.961 . S
C2335 C2332 1.539 . S
C2335 H2349 0.958 . S
C2335 H2350 0.961 . S
C2335 H2351 0.960 . S
H2336 C2320 0.931 . S
H2337 C2325 0.929 . S
H2338 C2326 0.960 . S
H2339 C2326 0.962 . S
H2340 C2326 0.960 . S
H2341 C2327 0.961 . S
H2342 C2327 0.961 . S
H2343 C2327 0.961 . S
H2344 C2328 0.931 . S
H2345 C2333 0.930 . S
H2346 C2334 0.956 . S
H2347 C2334 0.961 . S
H2348 C2334 0.961 . S
H2349 C2335 0.958 . S
H2350 C2335 0.961 . S
H2351 C2335 0.960 . S
C2352 C2353 1.391 . S
C2352 C2354 1.394 . S
C2352 H2368 0.931 . S
C2353 C2352 1.391 . S
C2353 C2357 1.376 . S
C2354 C2352 1.394 . S
C2354 C2355 1.369 . S
C2354 C2358 1.531 . S
C2355 C2354 1.369 . S
C2355 C2356 1.410 . S
C2355 C2363 1.503 . S
C2356 C2355 1.410 . S
C2356 C2357 1.392 . S
C2356 C2359 1.511 . S
C2357 C2353 1.376 . S
C2357 C2356 1.392 . S
C2357 H2369 0.929 . S
C2358 C2354 1.531 . S
C2358 H2370 0.960 . S
C2358 H2371 0.962 . S
C2358 H2372 0.960 . S
C2359 C2356 1.511 . S
C2359 H2373 0.961 . S
C2359 H2374 0.961 . S
C2359 H2375 0.961 . S
C2360 C2361 1.370 . S
C2360 C2362 1.363 . S
C2360 H2376 0.931 . S
C2361 C2360 1.370 . S
C2361 C2365 1.408 . S
C2362 C2360 1.363 . S
C2362 C2363 1.370 . S
C2362 C2366 1.524 . S
C2363 C2355 1.503 . S
C2363 C2362 1.370 . S
C2363 C2364 1.403 . S
C2364 C2363 1.403 . S
C2364 C2365 1.404 . S
C2364 C2367 1.539 . S
C2365 C2361 1.408 . S
C2365 C2364 1.404 . S
C2365 H2377 0.930 . S
C2366 C2362 1.524 . S
C2366 H2378 0.956 . S
C2366 H2379 0.961 . S
C2366 H2380 0.961 . S
C2367 C2364 1.539 . S
C2367 H2381 0.958 . S
C2367 H2382 0.961 . S
C2367 H2383 0.960 . S
H2368 C2352 0.931 . S
H2369 C2357 0.929 . S
H2370 C2358 0.960 . S
H2371 C2358 0.962 . S
H2372 C2358 0.960 . S
H2373 C2359 0.961 . S
H2374 C2359 0.961 . S
H2375 C2359 0.961 . S
H2376 C2360 0.931 . S
H2377 C2365 0.930 . S
H2378 C2366 0.956 . S
H2379 C2366 0.961 . S
H2380 C2366 0.961 . S
H2381 C2367 0.958 . S
H2382 C2367 0.961 . S
H2383 C2367 0.960 . S
C2384 C2385 1.391 . S
C2384 C2386 1.394 . S
C2384 H2400 0.931 . S
C2385 C2384 1.391 . S
C2385 C2389 1.376 . S
C2386 C2384 1.394 . S
C2386 C2387 1.369 . S
C2386 C2390 1.531 . S
C2387 C2386 1.369 . S
C2387 C2388 1.410 . S
C2387 C2395 1.503 . S
C2388 C2387 1.410 . S
C2388 C2389 1.392 . S
C2388 C2391 1.511 . S
C2389 C2385 1.376 . S
C2389 C2388 1.392 . S
C2389 H2401 0.929 . S
C2390 C2386 1.531 . S
C2390 H2402 0.960 . S
C2390 H2403 0.962 . S
C2390 H2404 0.960 . S
C2391 C2388 1.511 . S
C2391 H2405 0.961 . S
C2391 H2406 0.961 . S
C2391 H2407 0.961 . S
C2392 C2393 1.370 . S
C2392 C2394 1.363 . S
C2392 H2408 0.931 . S
C2393 C2392 1.370 . S
C2393 C2397 1.408 . S
C2394 C2392 1.363 . S
C2394 C2395 1.370 . S
C2394 C2398 1.524 . S
C2395 C2387 1.503 . S
C2395 C2394 1.370 . S
C2395 C2396 1.403 . S
C2396 C2395 1.403 . S
C2396 C2397 1.404 . S
C2396 C2399 1.539 . S
C2397 C2393 1.408 . S
C2397 C2396 1.404 . S
C2397 H2409 0.930 . S
C2398 C2394 1.524 . S
C2398 H2410 0.956 . S
C2398 H2411 0.961 . S
C2398 H2412 0.961 . S
C2399 C2396 1.539 . S
C2399 H2413 0.958 . S
C2399 H2414 0.961 . S
C2399 H2415 0.960 . S
H2400 C2384 0.931 . S
H2401 C2389 0.929 . S
H2402 C2390 0.960 . S
H2403 C2390 0.962 . S
H2404 C2390 0.960 . S
H2405 C2391 0.961 . S
H2406 C2391 0.961 . S
H2407 C2391 0.961 . S
H2408 C2392 0.931 . S
H2409 C2397 0.930 . S
H2410 C2398 0.956 . S
H2411 C2398 0.961 . S
H2412 C2398 0.961 . S
H2413 C2399 0.958 . S
H2414 C2399 0.961 . S
H2415 C2399 0.960 . S
C2416 C2417 1.391 . S
C2416 C2418 1.394 . S
C2416 H2432 0.913 1_455 S
C2417 C2416 1.391 . S
C2417 C2421 1.376 . S
C2418 C2416 1.394 . S
C2418 C2419 1.369 . S
C2418 C2422 1.531 1_455 S
C2419 C2418 1.369 . S
C2419 C2420 1.410 . S
C2419 C2427 1.503 . S
C2420 C2419 1.410 . S
C2420 C2421 1.392 . S
C2420 C2423 1.511 . S
C2421 C2417 1.376 . S
C2421 C2420 1.392 . S
C2421 H2433 0.929 . S
C2422 C2418 1.531 1_655 S
C2422 H2434 0.960 . S
C2422 H2435 0.962 1_655 S
C2422 H2436 0.960 . S
C2423 C2420 1.511 . S
C2423 H2437 0.961 . S
C2423 H2438 0.961 . S
C2423 H2439 0.961 . S
C2424 C2425 1.370 . S
C2424 C2426 1.363 . S
C2424 H2440 0.931 . S
C2425 C2424 1.370 . S
C2425 C2429 1.408 . S
C2426 C2424 1.363 . S
C2426 C2427 1.370 . S
C2426 C2430 1.524 . S
C2427 C2419 1.503 . S
C2427 C2426 1.370 . S
C2427 C2428 1.403 . S
C2428 C2427 1.403 . S
C2428 C2429 1.404 . S
C2428 C2431 1.539 . S
C2429 C2425 1.408 . S
C2429 C2428 1.404 . S
C2429 H2441 0.930 . S
C2430 C2426 1.524 . S
C2430 H2442 0.956 . S
C2430 H2443 0.961 . S
C2430 H2444 0.961 . S
C2431 C2428 1.539 . S
C2431 H2445 0.958 1_455 S
C2431 H2446 0.961 . S
C2431 H2447 0.960 . S
H2432 C2416 0.913 1_655 S
H2433 C2421 0.929 . S
H2434 C2422 0.960 . S
H2435 C2422 0.962 1_455 S
H2436 C2422 0.960 . S
H2437 C2423 0.961 . S
H2438 C2423 0.961 . S
H2439 C2423 0.961 . S
H2440 C2424 0.931 . S
H2441 C2429 0.930 . S
H2442 C2430 0.956 . S
H2443 C2430 0.961 . S
H2444 C2430 0.961 . S
H2445 C2431 0.958 1_655 S
H2446 C2431 0.961 . S
H2447 C2431 0.960 . S
C2448 C2449 1.391 . S
C2448 C2450 1.394 . S
C2448 H2464 0.931 . S
C2449 C2448 1.391 . S
C2449 C2453 1.376 . S
C2450 C2448 1.394 . S
C2450 C2451 1.369 . S
C2450 C2454 1.531 . S
C2451 C2450 1.369 . S
C2451 C2452 1.410 . S
C2451 C2459 1.503 . S
C2452 C2451 1.410 . S
C2452 C2453 1.392 . S
C2452 C2455 1.511 . S
C2453 C2449 1.376 . S
C2453 C2452 1.392 . S
C2453 H2465 0.929 . S
C2454 C2450 1.531 . S
C2454 H2466 0.960 . S
C2454 H2467 0.962 . S
C2454 H2468 0.960 . S
C2455 C2452 1.511 . S
C2455 H2469 0.961 . S
C2455 H2470 0.961 . S
C2455 H2471 0.961 . S
C2456 C2457 1.370 . S
C2456 C2458 1.363 . S
C2456 H2472 0.931 . S
C2457 C2456 1.370 . S
C2457 C2461 1.408 . S
C2458 C2456 1.363 . S
C2458 C2459 1.370 . S
C2458 C2462 1.524 . S
C2459 C2451 1.503 . S
C2459 C2458 1.370 . S
C2459 C2460 1.403 . S
C2460 C2459 1.403 . S
C2460 C2461 1.404 . S
C2460 C2463 1.539 . S
C2461 C2457 1.408 . S
C2461 C2460 1.404 . S
C2461 H2473 0.930 . S
C2462 C2458 1.524 . S
C2462 H2474 0.956 . S
C2462 H2475 0.961 . S
C2462 H2476 0.961 . S
C2463 C2460 1.539 . S
C2463 H2477 0.958 . S
C2463 H2478 0.961 . S
C2463 H2479 0.960 . S
H2464 C2448 0.931 . S
H2465 C2453 0.929 . S
H2466 C2454 0.960 . S
H2467 C2454 0.962 . S
H2468 C2454 0.960 . S
H2469 C2455 0.961 . S
H2470 C2455 0.961 . S
H2471 C2455 0.961 . S
H2472 C2456 0.931 . S
H2473 C2461 0.930 . S
H2474 C2462 0.956 . S
H2475 C2462 0.961 . S
H2476 C2462 0.961 . S
H2477 C2463 0.958 . S
H2478 C2463 0.961 . S
H2479 C2463 0.960 . S
C2480 C2481 1.391 . S
C2480 C2482 1.394 . S
C2480 H2496 0.931 . S
C2481 C2480 1.391 . S
C2481 C2485 1.376 . S
C2482 C2480 1.394 . S
C2482 C2483 1.369 . S
C2482 C2486 1.531 . S
C2483 C2482 1.369 . S
C2483 C2484 1.410 . S
C2483 C2491 1.503 . S
C2484 C2483 1.410 . S
C2484 C2485 1.392 . S
C2484 C2487 1.511 . S
C2485 C2481 1.376 . S
C2485 C2484 1.392 . S
C2485 H2497 0.929 . S
C2486 C2482 1.531 . S
C2486 H2498 0.960 . S
C2486 H2499 0.962 . S
C2486 H2500 0.960 . S
C2487 C2484 1.511 . S
C2487 H2501 0.961 . S
C2487 H2502 0.961 . S
C2487 H2503 0.961 . S
C2488 C2489 1.370 1_554 S
C2488 C2490 1.363 1_554 S
C2488 H2504 0.931 . S
C2489 C2488 1.370 1_556 S
C2489 C2493 1.408 . S
C2490 C2488 1.363 1_556 S
C2490 C2491 1.370 . S
C2490 C2494 1.524 1_556 S
C2491 C2483 1.503 . S
C2491 C2490 1.370 . S
C2491 C2492 1.403 . S
C2492 C2491 1.403 . S
C2492 C2493 1.404 . S
C2492 C2495 1.539 . S
C2493 C2489 1.408 . S
C2493 C2492 1.404 . S
C2493 H2505 0.930 . S
C2494 C2490 1.524 1_554 S
C2494 H2506 0.951 1_554 S
C2494 H2507 0.961 1_554 S
C2494 H2508 0.961 . S
C2495 C2492 1.539 . S
C2495 H2509 0.958 . S
C2495 H2510 0.961 . S
C2495 H2511 0.960 . S
H2496 C2480 0.931 . S
H2497 C2485 0.929 . S
H2498 C2486 0.960 . S
H2499 C2486 0.962 . S
H2500 C2486 0.960 . S
H2501 C2487 0.961 . S
H2502 C2487 0.961 . S
H2503 C2487 0.961 . S
H2504 C2488 0.931 . S
H2505 C2493 0.930 . S
H2506 C2494 0.951 1_556 S
H2507 C2494 0.961 1_556 S
H2508 C2494 0.961 . S
H2509 C2495 0.958 . S
H2510 C2495 0.961 . S
H2511 C2495 0.960 . S
C2512 C2513 1.391 . S
C2512 C2514 1.394 . S
C2512 H2528 0.931 . S
C2513 C2512 1.391 . S
C2513 C2517 1.376 . S
C2514 C2512 1.394 . S
C2514 C2515 1.369 . S
C2514 C2518 1.531 . S
C2515 C2514 1.369 . S
C2515 C2516 1.410 . S
C2515 C2523 1.503 . S
C2516 C2515 1.410 . S
C2516 C2517 1.392 . S
C2516 C2519 1.511 . S
C2517 C2513 1.376 . S
C2517 C2516 1.392 . S
C2517 H2529 0.929 . S
C2518 C2514 1.531 . S
C2518 H2530 0.960 . S
C2518 H2531 0.962 . S
C2518 H2532 0.960 . S
C2519 C2516 1.511 . S
C2519 H2533 0.961 . S
C2519 H2534 0.961 . S
C2519 H2535 0.961 . S
C2520 C2521 1.370 . S
C2520 C2522 1.363 . S
C2520 H2536 0.931 . S
C2521 C2520 1.370 . S
C2521 C2525 1.408 . S
C2522 C2520 1.363 . S
C2522 C2523 1.370 . S
C2522 C2526 1.524 . S
C2523 C2515 1.503 . S
C2523 C2522 1.370 . S
C2523 C2524 1.403 . S
C2524 C2523 1.403 . S
C2524 C2525 1.404 . S
C2524 C2527 1.539 . S
C2525 C2521 1.408 . S
C2525 C2524 1.404 . S
C2525 H2537 0.930 . S
C2526 C2522 1.524 . S
C2526 H2538 0.956 . S
C2526 H2539 0.961 . S
C2526 H2540 0.961 . S
C2527 C2524 1.539 . S
C2527 H2541 0.958 . S
C2527 H2542 0.961 . S
C2527 H2543 0.960 . S
H2528 C2512 0.931 . S
H2529 C2517 0.929 . S
H2530 C2518 0.960 . S
H2531 C2518 0.962 . S
H2532 C2518 0.960 . S
H2533 C2519 0.961 . S
H2534 C2519 0.961 . S
H2535 C2519 0.961 . S
H2536 C2520 0.931 . S
H2537 C2525 0.930 . S
H2538 C2526 0.956 . S
H2539 C2526 0.961 . S
H2540 C2526 0.961 . S
H2541 C2527 0.958 . S
H2542 C2527 0.961 . S
H2543 C2527 0.960 . S
C2544 C2545 1.391 . S
C2544 C2546 1.394 . S
C2544 H2560 0.931 . S
C2545 C2544 1.391 . S
C2545 C2549 1.376 . S
C2546 C2544 1.394 . S
C2546 C2547 1.369 . S
C2546 C2550 1.531 . S
C2547 C2546 1.369 . S
C2547 C2548 1.410 . S
C2547 C2555 1.503 . S
C2548 C2547 1.410 . S
C2548 C2549 1.392 . S
C2548 C2551 1.511 . S
C2549 C2545 1.376 . S
C2549 C2548 1.392 . S
C2549 H2561 0.929 . S
C2550 C2546 1.531 . S
C2550 H2562 0.960 . S
C2550 H2563 0.962 . S
C2550 H2564 0.960 . S
C2551 C2548 1.511 . S
C2551 H2565 0.961 . S
C2551 H2566 0.961 . S
C2551 H2567 0.961 . S
C2552 C2553 1.370 . S
C2552 C2554 1.363 . S
C2552 H2568 0.931 . S
C2553 C2552 1.370 . S
C2553 C2557 1.408 . S
C2554 C2552 1.363 . S
C2554 C2555 1.370 . S
C2554 C2558 1.524 . S
C2555 C2547 1.503 . S
C2555 C2554 1.370 . S
C2555 C2556 1.403 . S
C2556 C2555 1.403 . S
C2556 C2557 1.404 . S
C2556 C2559 1.539 . S
C2557 C2553 1.408 . S
C2557 C2556 1.404 . S
C2557 H2569 0.930 . S
C2558 C2554 1.524 . S
C2558 H2570 0.956 . S
C2558 H2571 0.961 . S
C2558 H2572 0.961 . S
C2559 C2556 1.539 . S
C2559 H2573 0.958 . S
C2559 H2574 0.961 . S
C2559 H2575 0.960 . S
H2560 C2544 0.931 . S
H2561 C2549 0.929 . S
H2562 C2550 0.960 . S
H2563 C2550 0.962 . S
H2564 C2550 0.960 . S
H2565 C2551 0.961 . S
H2566 C2551 0.961 . S
H2567 C2551 0.961 . S
H2568 C2552 0.931 . S
H2569 C2557 0.930 . S
H2570 C2558 0.956 . S
H2571 C2558 0.961 . S
H2572 C2558 0.961 . S
H2573 C2559 0.958 . S
H2574 C2559 0.961 . S
H2575 C2559 0.960 . S
C2576 C2577 1.391 . S
C2576 C2578 1.394 . S
C2576 H2592 0.931 . S
C2577 C2576 1.391 . S
C2577 C2581 1.376 . S
C2578 C2576 1.394 . S
C2578 C2579 1.369 . S
C2578 C2582 1.531 . S
C2579 C2578 1.369 . S
C2579 C2580 1.410 . S
C2579 C2587 1.503 . S
C2580 C2579 1.410 . S
C2580 C2581 1.392 . S
C2580 C2583 1.511 . S
C2581 C2577 1.376 . S
C2581 C2580 1.392 . S
C2581 H2593 0.929 . S
C2582 C2578 1.531 . S
C2582 H2594 0.960 . S
C2582 H2595 0.962 . S
C2582 H2596 0.960 . S
C2583 C2580 1.511 . S
C2583 H2597 0.961 . S
C2583 H2598 0.961 . S
C2583 H2599 0.961 . S
C2584 C2585 1.370 . S
C2584 C2586 1.363 . S
C2584 H2600 0.931 . S
C2585 C2584 1.370 . S
C2585 C2589 1.408 . S
C2586 C2584 1.363 . S
C2586 C2587 1.370 . S
C2586 C2590 1.524 . S
C2587 C2579 1.503 . S
C2587 C2586 1.370 . S
C2587 C2588 1.403 . S
C2588 C2587 1.403 . S
C2588 C2589 1.404 . S
C2588 C2591 1.539 . S
C2589 C2585 1.408 . S
C2589 C2588 1.404 . S
C2589 H2601 0.930 . S
C2590 C2586 1.524 . S
C2590 H2602 0.956 . S
C2590 H2603 0.961 . S
C2590 H2604 0.961 . S
C2591 C2588 1.539 . S
C2591 H2605 0.958 . S
C2591 H2606 0.961 . S
C2591 H2607 0.960 . S
H2592 C2576 0.931 . S
H2593 C2581 0.929 . S
H2594 C2582 0.960 . S
H2595 C2582 0.962 . S
H2596 C2582 0.960 . S
H2597 C2583 0.961 . S
H2598 C2583 0.961 . S
H2599 C2583 0.961 . S
H2600 C2584 0.931 . S
H2601 C2589 0.930 . S
H2602 C2590 0.956 . S
H2603 C2590 0.961 . S
H2604 C2590 0.961 . S
H2605 C2591 0.958 . S
H2606 C2591 0.961 . S
H2607 C2591 0.960 . S
C2608 C2609 1.391 . S
C2608 C2610 1.394 . S
C2608 H2624 0.931 . S
C2609 C2608 1.391 . S
C2609 C2613 1.376 . S
C2610 C2608 1.394 . S
C2610 C2611 1.369 . S
C2610 C2614 1.531 . S
C2611 C2610 1.369 . S
C2611 C2612 1.410 . S
C2611 C2619 1.503 . S
C2612 C2611 1.410 . S
C2612 C2613 1.392 . S
C2612 C2615 1.511 . S
C2613 C2609 1.376 . S
C2613 C2612 1.392 . S
C2613 H2625 0.929 . S
C2614 C2610 1.531 . S
C2614 H2626 0.960 . S
C2614 H2627 0.962 . S
C2614 H2628 0.960 . S
C2615 C2612 1.511 . S
C2615 H2629 0.961 . S
C2615 H2630 0.961 . S
C2615 H2631 0.961 . S
C2616 C2617 1.370 . S
C2616 C2618 1.363 . S
C2616 H2632 0.931 . S
C2617 C2616 1.370 . S
C2617 C2621 1.408 . S
C2618 C2616 1.363 . S
C2618 C2619 1.370 . S
C2618 C2622 1.524 . S
C2619 C2611 1.503 . S
C2619 C2618 1.370 . S
C2619 C2620 1.403 . S
C2620 C2619 1.403 . S
C2620 C2621 1.404 . S
C2620 C2623 1.539 . S
C2621 C2617 1.408 . S
C2621 C2620 1.404 . S
C2621 H2633 0.930 . S
C2622 C2618 1.524 . S
C2622 H2634 0.956 . S
C2622 H2635 0.961 . S
C2622 H2636 0.961 . S
C2623 C2620 1.539 . S
C2623 H2637 0.958 . S
C2623 H2638 0.961 . S
C2623 H2639 0.960 . S
H2624 C2608 0.931 . S
H2625 C2613 0.929 . S
H2626 C2614 0.960 . S
H2627 C2614 0.962 . S
H2628 C2614 0.960 . S
H2629 C2615 0.961 . S
H2630 C2615 0.961 . S
H2631 C2615 0.961 . S
H2632 C2616 0.931 . S
H2633 C2621 0.930 . S
H2634 C2622 0.956 . S
H2635 C2622 0.961 . S
H2636 C2622 0.961 . S
H2637 C2623 0.958 . S
H2638 C2623 0.961 . S
H2639 C2623 0.960 . S
C2640 C2641 1.391 . S
C2640 C2642 1.394 . S
C2640 H2656 0.931 . S
C2641 C2640 1.391 . S
C2641 C2645 1.376 . S
C2642 C2640 1.394 . S
C2642 C2643 1.369 . S
C2642 C2646 1.531 . S
C2643 C2642 1.369 . S
C2643 C2644 1.410 . S
C2643 C2651 1.503 . S
C2644 C2643 1.410 . S
C2644 C2645 1.392 . S
C2644 C2647 1.511 . S
C2645 C2641 1.376 . S
C2645 C2644 1.392 . S
C2645 H2657 0.929 . S
C2646 C2642 1.531 . S
C2646 H2658 0.960 . S
C2646 H2659 0.962 . S
C2646 H2660 0.960 . S
C2647 C2644 1.511 . S
C2647 H2661 0.961 . S
C2647 H2662 0.961 . S
C2647 H2663 0.961 . S
C2648 C2649 1.370 . S
C2648 C2650 1.363 . S
C2648 H2664 0.931 . S
C2649 C2648 1.370 . S
C2649 C2653 1.408 . S
C2650 C2648 1.363 . S
C2650 C2651 1.370 . S
C2650 C2654 1.524 . S
C2651 C2643 1.503 . S
C2651 C2650 1.370 . S
C2651 C2652 1.403 . S
C2652 C2651 1.403 . S
C2652 C2653 1.404 . S
C2652 C2655 1.539 . S
C2653 C2649 1.408 . S
C2653 C2652 1.404 . S
C2653 H2665 0.930 . S
C2654 C2650 1.524 . S
C2654 H2666 0.956 . S
C2654 H2667 0.961 . S
C2654 H2668 0.961 . S
C2655 C2652 1.539 . S
C2655 H2669 0.958 . S
C2655 H2670 0.961 . S
C2655 H2671 0.960 . S
H2656 C2640 0.931 . S
H2657 C2645 0.929 . S
H2658 C2646 0.960 . S
H2659 C2646 0.962 . S
H2660 C2646 0.960 . S
H2661 C2647 0.961 . S
H2662 C2647 0.961 . S
H2663 C2647 0.961 . S
H2664 C2648 0.931 . S
H2665 C2653 0.930 . S
H2666 C2654 0.956 . S
H2667 C2654 0.961 . S
H2668 C2654 0.961 . S
H2669 C2655 0.958 . S
H2670 C2655 0.961 . S
H2671 C2655 0.960 . S
C2672 C2673 1.391 . S
C2672 C2674 1.394 . S
C2672 H2688 0.931 . S
C2673 C2672 1.391 . S
C2673 C2677 1.376 . S
C2674 C2672 1.394 . S
C2674 C2675 1.369 . S
C2674 C2678 1.531 . S
C2675 C2674 1.369 . S
C2675 C2676 1.410 . S
C2675 C2683 1.503 . S
C2676 C2675 1.410 . S
C2676 C2677 1.392 . S
C2676 C2679 1.511 . S
C2677 C2673 1.376 . S
C2677 C2676 1.392 . S
C2677 H2689 0.929 . S
C2678 C2674 1.531 . S
C2678 H2690 0.960 . S
C2678 H2691 0.962 . S
C2678 H2692 0.960 . S
C2679 C2676 1.511 . S
C2679 H2693 0.961 . S
C2679 H2694 0.961 . S
C2679 H2695 0.961 . S
C2680 C2681 1.404 . S
C2680 C2682 1.363 . S
C2680 H2696 0.931 . S
C2681 C2680 1.404 . S
C2681 C2685 1.392 1_655 S
C2682 C2680 1.363 . S
C2682 C2683 1.370 . S
C2682 C2686 1.524 . S
C2683 C2675 1.503 . S
C2683 C2682 1.370 . S
C2683 C2684 1.403 . S
C2684 C2683 1.403 . S
C2684 C2685 1.404 1_655 S
C2684 C2687 1.539 1_655 S
C2685 C2681 1.392 1_455 S
C2685 C2684 1.404 1_455 S
C2685 H2697 0.930 . S
C2686 C2682 1.524 . S
C2686 H2698 0.956 . S
C2686 H2699 0.961 . S
C2686 H2700 0.961 . S
C2687 C2684 1.539 1_455 S
C2687 H2701 0.958 . S
C2687 H2702 0.961 . S
C2687 H2703 0.960 1_455 S
H2688 C2672 0.931 . S
H2689 C2677 0.929 . S
H2690 C2678 0.960 . S
H2691 C2678 0.962 . S
H2692 C2678 0.960 . S
H2693 C2679 0.961 . S
H2694 C2679 0.961 . S
H2695 C2679 0.961 . S
H2696 C2680 0.931 . S
H2697 C2685 0.930 . S
H2698 C2686 0.956 . S
H2699 C2686 0.961 . S
H2700 C2686 0.961 . S
H2701 C2687 0.958 . S
H2702 C2687 0.961 . S
H2703 C2687 0.960 1_655 S
C2704 C2705 1.391 . S
C2704 C2706 1.394 . S
C2704 H2720 0.931 . S
C2705 C2704 1.391 . S
C2705 C2709 1.376 . S
C2706 C2704 1.394 . S
C2706 C2707 1.369 . S
C2706 C2710 1.531 . S
C2707 C2706 1.369 . S
C2707 C2708 1.410 . S
C2707 C2715 1.503 . S
C2708 C2707 1.410 . S
C2708 C2709 1.392 . S
C2708 C2711 1.511 . S
C2709 C2705 1.376 . S
C2709 C2708 1.392 . S
C2709 H2721 0.929 . S
C2710 C2706 1.531 . S
C2710 H2722 0.960 . S
C2710 H2723 0.962 . S
C2710 H2724 0.960 . S
C2711 C2708 1.511 . S
C2711 H2725 0.961 . S
C2711 H2726 0.961 . S
C2711 H2727 0.961 . S
C2712 C2713 1.370 . S
C2712 C2714 1.363 . S
C2712 H2728 0.931 . S
C2713 C2712 1.370 . S
C2713 C2717 1.408 . S
C2714 C2712 1.363 . S
C2714 C2715 1.370 . S
C2714 C2718 1.524 . S
C2715 C2707 1.503 . S
C2715 C2714 1.370 . S
C2715 C2716 1.403 . S
C2716 C2715 1.403 . S
C2716 C2717 1.404 . S
C2716 C2719 1.539 . S
C2717 C2713 1.408 . S
C2717 C2716 1.404 . S
C2717 H2729 0.930 . S
C2718 C2714 1.524 . S
C2718 H2730 0.956 . S
C2718 H2731 0.961 . S
C2718 H2732 0.961 . S
C2719 C2716 1.539 . S
C2719 H2733 0.958 . S
C2719 H2734 0.961 . S
C2719 H2735 0.960 . S
H2720 C2704 0.931 . S
H2721 C2709 0.929 . S
H2722 C2710 0.960 . S
H2723 C2710 0.962 . S
H2724 C2710 0.960 . S
H2725 C2711 0.961 . S
H2726 C2711 0.961 . S
H2727 C2711 0.961 . S
H2728 C2712 0.931 . S
H2729 C2717 0.930 . S
H2730 C2718 0.956 . S
H2731 C2718 0.961 . S
H2732 C2718 0.961 . S
H2733 C2719 0.958 . S
H2734 C2719 0.961 . S
H2735 C2719 0.960 . S
C2736 C2737 1.391 . S
C2736 C2738 1.394 . S
C2736 H2752 0.931 . S
C2737 C2736 1.391 . S
C2737 C2741 1.376 . S
C2738 C2736 1.394 . S
C2738 C2739 1.369 . S
C2738 C2742 1.531 . S
C2739 C2738 1.369 . S
C2739 C2740 1.410 . S
C2739 C2747 1.503 . S
C2740 C2739 1.410 . S
C2740 C2741 1.392 . S
C2740 C2743 1.511 . S
C2741 C2737 1.376 . S
C2741 C2740 1.392 . S
C2741 H2753 0.929 . S
C2742 C2738 1.531 . S
C2742 H2754 0.960 . S
C2742 H2755 0.962 . S
C2742 H2756 0.960 . S
C2743 C2740 1.511 . S
C2743 H2757 0.961 . S
C2743 H2758 0.961 . S
C2743 H2759 0.961 . S
C2744 C2745 1.370 . S
C2744 C2746 1.363 . S
C2744 H2760 0.931 . S
C2745 C2744 1.370 . S
C2745 C2749 1.408 . S
C2746 C2744 1.363 . S
C2746 C2747 1.370 . S
C2746 C2750 1.524 . S
C2747 C2739 1.503 . S
C2747 C2746 1.370 . S
C2747 C2748 1.403 . S
C2748 C2747 1.403 . S
C2748 C2749 1.404 . S
C2748 C2751 1.539 . S
C2749 C2745 1.408 . S
C2749 C2748 1.404 . S
C2749 H2761 0.930 . S
C2750 C2746 1.524 . S
C2750 H2762 0.956 . S
C2750 H2763 0.961 . S
C2750 H2764 0.961 . S
C2751 C2748 1.539 . S
C2751 H2765 0.958 . S
C2751 H2766 0.961 . S
C2751 H2767 0.960 . S
H2752 C2736 0.931 . S
H2753 C2741 0.929 . S
H2754 C2742 0.960 . S
H2755 C2742 0.962 . S
H2756 C2742 0.960 . S
H2757 C2743 0.961 . S
H2758 C2743 0.961 . S
H2759 C2743 0.961 . S
H2760 C2744 0.931 . S
H2761 C2749 0.930 . S
H2762 C2750 0.956 . S
H2763 C2750 0.961 . S
H2764 C2750 0.961 . S
H2765 C2751 0.958 . S
H2766 C2751 0.961 . S
H2767 C2751 0.960 . S
C2768 C2769 1.391 . S
C2768 C2770 1.394 . S
C2768 H2784 0.931 . S
C2769 C2768 1.391 . S
C2769 C2773 1.376 . S
C2770 C2768 1.394 . S
C2770 C2771 1.369 . S
C2770 C2774 1.531 . S
C2771 C2770 1.369 . S
C2771 C2772 1.410 . S
C2771 C2779 1.503 . S
C2772 C2771 1.410 . S
C2772 C2773 1.392 . S
C2772 C2775 1.511 . S
C2773 C2769 1.376 . S
C2773 C2772 1.392 . S
C2773 H2785 0.929 . S
C2774 C2770 1.531 . S
C2774 H2786 0.960 . S
C2774 H2787 0.962 . S
C2774 H2788 0.960 . S
C2775 C2772 1.511 . S
C2775 H2789 0.961 . S
C2775 H2790 0.961 . S
C2775 H2791 0.961 . S
C2776 C2777 1.370 . S
C2776 C2778 1.363 . S
C2776 H2792 0.931 . S
C2777 C2776 1.370 . S
C2777 C2781 1.408 . S
C2778 C2776 1.363 . S
C2778 C2779 1.370 . S
C2778 C2782 1.524 . S
C2779 C2771 1.503 . S
C2779 C2778 1.370 . S
C2779 C2780 1.403 . S
C2780 C2779 1.403 . S
C2780 C2781 1.404 . S
C2780 C2783 1.539 . S
C2781 C2777 1.408 . S
C2781 C2780 1.404 . S
C2781 H2793 0.930 . S
C2782 C2778 1.524 . S
C2782 H2794 0.956 . S
C2782 H2795 0.961 . S
C2782 H2796 0.961 . S
C2783 C2780 1.539 . S
C2783 H2797 0.958 . S
C2783 H2798 0.961 . S
C2783 H2799 0.960 . S
H2784 C2768 0.931 . S
H2785 C2773 0.929 . S
H2786 C2774 0.960 . S
H2787 C2774 0.962 . S
H2788 C2774 0.960 . S
H2789 C2775 0.961 . S
H2790 C2775 0.961 . S
H2791 C2775 0.961 . S
H2792 C2776 0.931 . S
H2793 C2781 0.930 . S
H2794 C2782 0.956 . S
H2795 C2782 0.961 . S
H2796 C2782 0.961 . S
H2797 C2783 0.958 . S
H2798 C2783 0.961 . S
H2799 C2783 0.960 . S
C2800 C2801 1.391 . S
C2800 C2802 1.394 . S
C2800 H2816 0.931 . S
C2801 C2800 1.391 . S
C2801 C2805 1.376 . S
C2802 C2800 1.394 . S
C2802 C2803 1.369 . S
C2802 C2806 1.531 . S
C2803 C2802 1.369 . S
C2803 C2804 1.410 . S
C2803 C2811 1.503 . S
C2804 C2803 1.410 . S
C2804 C2805 1.392 . S
C2804 C2807 1.511 . S
C2805 C2801 1.376 . S
C2805 C2804 1.392 . S
C2805 H2817 0.929 . S
C2806 C2802 1.531 . S
C2806 H2818 0.960 . S
C2806 H2819 0.962 . S
C2806 H2820 0.960 . S
C2807 C2804 1.511 . S
C2807 H2821 0.961 . S
C2807 H2822 0.961 . S
C2807 H2823 0.961 . S
C2808 C2809 1.370 . S
C2808 C2810 1.363 . S
C2808 H2824 0.931 1_655 S
C2809 C2808 1.370 . S
C2809 C2813 1.408 . S
C2810 C2808 1.363 . S
C2810 C2811 1.370 . S
C2810 C2814 1.524 . S
C2811 C2803 1.503 . S
C2811 C2810 1.370 . S
C2811 C2812 1.403 . S
C2812 C2811 1.403 . S
C2812 C2813 1.404 . S
C2812 C2815 1.539 . S
C2813 C2809 1.408 . S
C2813 C2812 1.404 . S
C2813 H2825 0.930 . S
C2814 C2810 1.524 . S
C2814 H2826 0.956 . S
C2814 H2827 0.961 . S
C2814 H2828 0.961 1_655 S
C2815 C2812 1.539 . S
C2815 H2829 0.958 . S
C2815 H2830 0.961 . S
C2815 H2831 0.960 . S
H2816 C2800 0.931 . S
H2817 C2805 0.929 . S
H2818 C2806 0.960 . S
H2819 C2806 0.962 . S
H2820 C2806 0.960 . S
H2821 C2807 0.961 . S
H2822 C2807 0.961 . S
H2823 C2807 0.961 . S
H2824 C2808 0.931 1_455 S
H2825 C2813 0.930 . S
H2826 C2814 0.956 . S
H2827 C2814 0.961 . S
H2828 C2814 0.961 1_455 S
H2829 C2815 0.958 . S
H2830 C2815 0.961 . S
H2831 C2815 0.960 . S
C2832 C2833 1.391 . S
C2832 C2834 1.394 . S
C2832 H2848 0.931 . S
C2833 C2832 1.391 . S
C2833 C2837 1.376 . S
C2834 C2832 1.394 . S
C2834 C2835 1.369 . S
C2834 C2838 1.531 . S
C2835 C2834 1.369 . S
C2835 C2836 1.410 . S
C2835 C2843 1.503 . S
C2836 C2835 1.410 . S
C2836 C2837 1.392 . S
C2836 C2839 1.511 . S
C2837 C2833 1.376 . S
C2837 C2836 1.392 . S
C2837 H2849 0.929 . S
C2838 C2834 1.531 . S
C2838 H2850 0.960 . S
C2838 H2851 0.962 . S
C2838 H2852 0.960 . S
C2839 C2836 1.511 . S
C2839 H2853 0.961 . S
C2839 H2854 0.961 . S
C2839 H2855 0.961 . S
C2840 C2841 1.370 . S
C2840 C2842 1.363 . S
C2840 H2856 0.931 . S
C2841 C2840 1.370 . S
C2841 C2845 1.408 . S
C2842 C2840 1.363 . S
C2842 C2843 1.370 . S
C2842 C2846 1.524 . S
C2843 C2835 1.503 . S
C2843 C2842 1.370 . S
C2843 C2844 1.403 . S
C2844 C2843 1.403 . S
C2844 C2845 1.404 . S
C2844 C2847 1.539 . S
C2845 C2841 1.408 . S
C2845 C2844 1.404 . S
C2845 H2857 0.930 . S
C2846 C2842 1.524 . S
C2846 H2858 0.956 . S
C2846 H2859 0.961 . S
C2846 H2860 0.961 . S
C2847 C2844 1.539 . S
C2847 H2861 0.958 . S
C2847 H2862 0.961 . S
C2847 H2863 0.960 . S
H2848 C2832 0.931 . S
H2849 C2837 0.929 . S
H2850 C2838 0.960 . S
H2851 C2838 0.962 . S
H2852 C2838 0.960 . S
H2853 C2839 0.961 . S
H2854 C2839 0.961 . S
H2855 C2839 0.961 . S
H2856 C2840 0.931 . S
H2857 C2845 0.930 . S
H2858 C2846 0.956 . S
H2859 C2846 0.961 . S
H2860 C2846 0.961 . S
H2861 C2847 0.958 . S
H2862 C2847 0.961 . S
H2863 C2847 0.960 . S
C2864 C2865 1.391 . S
C2864 C2866 1.394 . S
C2864 H2880 0.931 . S
C2865 C2864 1.391 . S
C2865 C2869 1.376 . S
C2866 C2864 1.394 . S
C2866 C2867 1.369 . S
C2866 C2870 1.531 . S
C2867 C2866 1.369 . S
C2867 C2868 1.410 . S
C2867 C2875 1.503 . S
C2868 C2867 1.410 . S
C2868 C2869 1.392 . S
C2868 C2871 1.511 . S
C2869 C2865 1.376 . S
C2869 C2868 1.392 . S
C2869 H2881 0.929 . S
C2870 C2866 1.531 . S
C2870 H2882 0.960 . S
C2870 H2883 0.962 . S
C2870 H2884 0.960 . S
C2871 C2868 1.511 . S
C2871 H2885 0.961 . S
C2871 H2886 0.961 . S
C2871 H2887 0.961 . S
C2872 C2873 1.370 . S
C2872 C2874 1.363 . S
C2872 H2888 0.931 . S
C2873 C2872 1.370 . S
C2873 C2877 1.408 . S
C2874 C2872 1.363 . S
C2874 C2875 1.370 . S
C2874 C2878 1.524 . S
C2875 C2867 1.503 . S
C2875 C2874 1.370 . S
C2875 C2876 1.403 . S
C2876 C2875 1.403 . S
C2876 C2877 1.404 . S
C2876 C2879 1.539 . S
C2877 C2873 1.408 . S
C2877 C2876 1.404 . S
C2877 H2889 0.930 . S
C2878 C2874 1.524 . S
C2878 H2890 0.956 . S
C2878 H2891 0.961 . S
C2878 H2892 0.961 . S
C2879 C2876 1.539 . S
C2879 H2893 0.958 . S
C2879 H2894 0.961 . S
C2879 H2895 0.960 . S
H2880 C2864 0.931 . S
H2881 C2869 0.929 . S
H2882 C2870 0.960 . S
H2883 C2870 0.962 . S
H2884 C2870 0.960 . S
H2885 C2871 0.961 . S
H2886 C2871 0.961 . S
H2887 C2871 0.961 . S
H2888 C2872 0.931 . S
H2889 C2877 0.930 . S
H2890 C2878 0.956 . S
H2891 C2878 0.961 . S
H2892 C2878 0.961 . S
H2893 C2879 0.958 . S
H2894 C2879 0.961 . S
H2895 C2879 0.960 . S
C2896 C2897 1.391 . S
C2896 C2898 1.394 . S
C2896 H2912 0.931 . S
C2897 C2896 1.391 . S
C2897 C2901 1.376 . S
C2898 C2896 1.394 . S
C2898 C2899 1.369 . S
C2898 C2902 1.531 . S
C2899 C2898 1.369 . S
C2899 C2900 1.410 . S
C2899 C2907 1.503 . S
C2900 C2899 1.410 . S
C2900 C2901 1.392 . S
C2900 C2903 1.511 . S
C2901 C2897 1.376 . S
C2901 C2900 1.392 . S
C2901 H2913 0.929 . S
C2902 C2898 1.531 . S
C2902 H2914 0.960 . S
C2902 H2915 0.962 1_565 S
C2902 H2916 0.960 . S
C2903 C2900 1.511 . S
C2903 H2917 0.961 . S
C2903 H2918 0.961 . S
C2903 H2919 0.961 . S
C2904 C2905 1.370 . S
C2904 C2906 1.363 1_545 S
C2904 H2920 0.931 . S
C2905 C2904 1.370 . S
C2905 C2909 1.408 1_545 S
C2906 C2904 1.363 1_565 S
C2906 C2907 1.370 . S
C2906 C2910 1.524 . S
C2907 C2899 1.503 . S
C2907 C2906 1.370 . S
C2907 C2908 1.403 . S
C2908 C2907 1.403 . S
C2908 C2909 1.404 . S
C2908 C2911 1.539 . S
C2909 C2905 1.408 1_565 S
C2909 C2908 1.404 . S
C2909 H2921 0.930 . S
C2910 C2906 1.524 . S
C2910 H2922 0.956 . S
C2910 H2923 0.961 . S
C2910 H2924 0.961 . S
C2911 C2908 1.539 . S
C2911 H2925 0.958 . S
C2911 H2926 0.961 . S
C2911 H2927 0.960 . S
H2912 C2896 0.931 . S
H2913 C2901 0.929 . S
H2914 C2902 0.960 . S
H2915 C2902 0.962 1_545 S
H2916 C2902 0.960 . S
H2917 C2903 0.961 . S
H2918 C2903 0.961 . S
H2919 C2903 0.961 . S
H2920 C2904 0.931 . S
H2921 C2909 0.930 . S
H2922 C2910 0.956 . S
H2923 C2910 0.961 . S
H2924 C2910 0.961 . S
H2925 C2911 0.958 . S
H2926 C2911 0.961 . S
H2927 C2911 0.960 . S
C2928 C2929 1.391 . S
C2928 C2930 1.394 . S
C2928 H2944 0.959 . S
C2929 C2928 1.391 . S
C2929 C2933 1.376 . S
C2930 C2928 1.394 . S
C2930 C2931 1.369 . S
C2930 C2934 1.531 . S
C2931 C2930 1.369 . S
C2931 C2932 1.410 . S
C2931 C2939 1.503 . S
C2932 C2931 1.410 . S
C2932 C2933 1.392 . S
C2932 C2935 1.511 . S
C2933 C2929 1.376 . S
C2933 C2932 1.392 . S
C2933 H2945 0.929 . S
C2934 C2930 1.531 . S
C2934 H2946 0.960 . S
C2934 H2947 0.962 . S
C2934 H2948 0.960 . S
C2935 C2932 1.511 . S
C2935 H2949 0.961 . S
C2935 H2950 0.961 . S
C2935 H2951 0.961 . S
C2936 C2937 1.370 . S
C2936 C2938 1.363 . S
C2936 H2952 0.931 . S
C2937 C2936 1.370 . S
C2937 C2941 1.408 . S
C2938 C2936 1.363 . S
C2938 C2939 1.370 . S
C2938 C2942 1.524 . S
C2939 C2931 1.503 . S
C2939 C2938 1.370 . S
C2939 C2940 1.403 . S
C2940 C2939 1.403 . S
C2940 C2941 1.404 . S
C2940 C2943 1.539 . S
C2941 C2937 1.408 . S
C2941 C2940 1.404 . S
C2941 H2953 0.930 . S
C2942 C2938 1.524 . S
C2942 H2954 0.956 . S
C2942 H2955 0.961 . S
C2942 H2956 0.961 . S
C2943 C2940 1.539 . S
C2943 H2957 0.958 . S
C2943 H2958 0.961 . S
C2943 H2959 0.960 . S
H2944 C2928 0.959 . S
H2945 C2933 0.929 . S
H2946 C2934 0.960 . S
H2947 C2934 0.962 . S
H2948 C2934 0.960 . S
H2949 C2935 0.961 . S
H2950 C2935 0.961 . S
H2951 C2935 0.961 . S
H2952 C2936 0.931 . S
H2953 C2941 0.930 . S
H2954 C2942 0.956 . S
H2955 C2942 0.961 . S
H2956 C2942 0.961 . S
H2957 C2943 0.958 . S
H2958 C2943 0.961 . S
H2959 C2943 0.960 . S
C2960 C2961 1.391 . S
C2960 C2962 1.394 . S
C2960 H2976 0.931 . S
C2961 C2960 1.391 . S
C2961 C2965 1.376 . S
C2962 C2960 1.394 . S
C2962 C2963 1.369 . S
C2962 C2966 1.528 . S
C2963 C2962 1.369 . S
C2963 C2964 1.410 . S
C2963 C2971 1.503 . S
C2964 C2963 1.410 . S
C2964 C2965 1.392 . S
C2964 C2967 1.511 . S
C2965 C2961 1.376 . S
C2965 C2964 1.392 . S
C2965 H2977 0.929 . S
C2966 C2962 1.528 . S
C2966 H2978 0.961 1_554 S
C2966 H2979 0.960 . S
C2966 H2980 0.964 1_554 S
C2967 C2964 1.511 . S
C2967 H2981 0.961 . S
C2967 H2982 0.961 . S
C2967 H2983 0.961 . S
C2968 C2969 1.370 . S
C2968 C2970 1.363 . S
C2968 H2984 0.931 . S
C2969 C2968 1.370 . S
C2969 C2973 1.408 . S
C2970 C2968 1.363 . S
C2970 C2971 1.370 . S
C2970 C2974 1.524 . S
C2971 C2963 1.503 . S
C2971 C2970 1.370 . S
C2971 C2972 1.403 . S
C2972 C2971 1.403 . S
C2972 C2973 1.404 . S
C2972 C2975 1.521 1_554 S
C2973 C2969 1.408 . S
C2973 C2972 1.404 . S
C2973 H2985 0.930 . S
C2974 C2970 1.524 . S
C2974 H2986 0.956 . S
C2974 H2987 0.961 . S
C2974 H2988 0.961 . S
C2975 C2972 1.521 1_556 S
C2975 H2989 0.983 . S
C2975 H2990 0.963 . S
C2975 H2991 0.952 1_556 S
H2976 C2960 0.931 . S
H2977 C2965 0.929 . S
H2978 C2966 0.961 1_556 S
H2979 C2966 0.960 . S
H2980 C2966 0.964 1_556 S
H2981 C2967 0.961 . S
H2982 C2967 0.961 . S
H2983 C2967 0.961 . S
H2984 C2968 0.931 . S
H2985 C2973 0.930 . S
H2986 C2974 0.956 . S
H2987 C2974 0.961 . S
H2988 C2974 0.961 . S
H2989 C2975 0.983 . S
H2990 C2975 0.963 . S
H2991 C2975 0.952 1_554 S
C2992 C2993 1.391 . S
C2992 C2994 1.394 . S
C2992 H3008 0.931 . S
C2993 C2992 1.391 . S
C2993 C2997 1.376 . S
C2994 C2992 1.394 . S
C2994 C2995 1.369 . S
C2994 C2998 1.531 . S
C2995 C2994 1.369 . S
C2995 C2996 1.410 . S
C2995 C3003 1.503 . S
C2996 C2995 1.410 . S
C2996 C2997 1.392 . S
C2996 C2999 1.511 . S
C2997 C2993 1.376 . S
C2997 C2996 1.392 . S
C2997 H3009 0.929 . S
C2998 C2994 1.531 . S
C2998 H3010 0.960 . S
C2998 H3011 0.962 . S
C2998 H3012 0.960 . S
C2999 C2996 1.511 . S
C2999 H3013 0.961 . S
C2999 H3014 0.961 . S
C2999 H3015 0.961 . S
C3000 C3001 1.370 . S
C3000 C3002 1.363 . S
C3000 H3016 0.931 . S
C3001 C3000 1.370 . S
C3001 C3005 1.408 . S
C3002 C3000 1.363 . S
C3002 C3003 1.370 . S
C3002 C3006 1.524 . S
C3003 C2995 1.503 . S
C3003 C3002 1.370 . S
C3003 C3004 1.403 . S
C3004 C3003 1.403 . S
C3004 C3005 1.404 . S
C3004 C3007 1.539 . S
C3005 C3001 1.408 . S
C3005 C3004 1.404 . S
C3005 H3017 0.930 . S
C3006 C3002 1.524 . S
C3006 H3018 0.956 . S
C3006 H3019 0.961 . S
C3006 H3020 0.961 . S
C3007 C3004 1.539 . S
C3007 H3021 0.958 . S
C3007 H3022 0.961 . S
C3007 H3023 0.960 . S
H3008 C2992 0.931 . S
H3009 C2997 0.929 . S
H3010 C2998 0.960 . S
H3011 C2998 0.962 . S
H3012 C2998 0.960 . S
H3013 C2999 0.961 . S
H3014 C2999 0.961 . S
H3015 C2999 0.961 . S
H3016 C3000 0.931 . S
H3017 C3005 0.930 . S
H3018 C3006 0.956 . S
H3019 C3006 0.961 . S
H3020 C3006 0.961 . S
H3021 C3007 0.958 . S
H3022 C3007 0.961 . S
H3023 C3007 0.960 . S
C3024 C3025 1.391 . S
C3024 C3026 1.394 . S
C3024 H3040 0.931 . S
C3025 C3024 1.391 . S
C3025 C3029 1.376 . S
C3026 C3024 1.394 . S
C3026 C3027 1.369 . S
C3026 C3030 1.531 1_554 S
C3027 C3026 1.369 . S
C3027 C3028 1.410 . S
C3027 C3035 1.503 . S
C3028 C3027 1.410 . S
C3028 C3029 1.392 . S
C3028 C3031 1.511 . S
C3029 C3025 1.376 . S
C3029 C3028 1.392 . S
C3029 H3041 0.929 . S
C3030 C3026 1.531 1_556 S
C3030 H3042 0.960 . S
C3030 H3043 0.962 . S
C3030 H3044 0.960 . S
C3031 C3028 1.511 . S
C3031 H3045 0.961 . S
C3031 H3046 0.961 . S
C3031 H3047 0.961 . S
C3032 C3033 1.370 . S
C3032 C3034 1.363 . S
C3032 H3048 0.931 . S
C3033 C3032 1.370 . S
C3033 C3037 1.408 . S
C3034 C3032 1.363 . S
C3034 C3035 1.370 . S
C3034 C3038 1.524 . S
C3035 C3027 1.503 . S
C3035 C3034 1.370 . S
C3035 C3036 1.403 . S
C3036 C3035 1.403 . S
C3036 C3037 1.404 . S
C3036 C3039 1.539 . S
C3037 C3033 1.408 . S
C3037 C3036 1.404 . S
C3037 H3049 0.930 . S
C3038 C3034 1.524 . S
C3038 H3050 0.956 . S
C3038 H3051 0.961 . S
C3038 H3052 0.961 . S
C3039 C3036 1.539 . S
C3039 H3053 0.958 . S
C3039 H3054 0.961 . S
C3039 H3055 0.960 . S
H3040 C3024 0.931 . S
H3041 C3029 0.929 . S
H3042 C3030 0.960 . S
H3043 C3030 0.962 . S
H3044 C3030 0.960 . S
H3045 C3031 0.961 . S
H3046 C3031 0.961 . S
H3047 C3031 0.961 . S
H3048 C3032 0.931 . S
H3049 C3037 0.930 . S
H3050 C3038 0.956 . S
H3051 C3038 0.961 . S
H3052 C3038 0.961 . S
H3053 C3039 0.958 . S
H3054 C3039 0.961 . S
H3055 C3039 0.960 . S
C3056 C3057 1.391 . S
C3056 C3058 1.394 . S
C3056 H3072 0.931 . S
C3057 C3056 1.391 . S
C3057 C3061 1.376 . S
C3058 C3056 1.394 . S
C3058 C3059 1.369 . S
C3058 C3062 1.531 . S
C3059 C3058 1.369 . S
C3059 C3060 1.410 . S
C3059 C3067 1.503 . S
C3060 C3059 1.410 . S
C3060 C3061 1.392 . S
C3060 C3063 1.511 . S
C3061 C3057 1.376 . S
C3061 C3060 1.392 . S
C3061 H3073 0.929 . S
C3062 C3058 1.531 . S
C3062 H3074 0.960 . S
C3062 H3075 0.962 . S
C3062 H3076 0.960 . S
C3063 C3060 1.511 . S
C3063 H3077 0.961 . S
C3063 H3078 0.961 . S
C3063 H3079 0.961 . S
C3064 C3065 1.370 . S
C3064 C3066 1.363 . S
C3064 H3080 0.931 . S
C3065 C3064 1.370 . S
C3065 C3069 1.408 . S
C3066 C3064 1.363 . S
C3066 C3067 1.370 . S
C3066 C3070 1.524 . S
C3067 C3059 1.503 . S
C3067 C3066 1.370 . S
C3067 C3068 1.403 . S
C3068 C3067 1.403 . S
C3068 C3069 1.404 . S
C3068 C3071 1.539 . S
C3069 C3065 1.408 . S
C3069 C3068 1.404 . S
C3069 H3081 0.930 . S
C3070 C3066 1.524 . S
C3070 H3082 0.956 . S
C3070 H3083 0.961 . S
C3070 H3084 0.961 . S
C3071 C3068 1.539 . S
C3071 H3085 0.958 . S
C3071 H3086 0.961 . S
C3071 H3087 0.960 . S
H3072 C3056 0.931 . S
H3073 C3061 0.929 . S
H3074 C3062 0.960 . S
H3075 C3062 0.962 . S
H3076 C3062 0.960 . S
H3077 C3063 0.961 . S
H3078 C3063 0.961 . S
H3079 C3063 0.961 . S
H3080 C3064 0.931 . S
H3081 C3069 0.930 . S
H3082 C3070 0.956 . S
H3083 C3070 0.961 . S
H3084 C3070 0.961 . S
H3085 C3071 0.958 . S
H3086 C3071 0.961 . S
H3087 C3071 0.960 . S
C3088 C3089 1.391 . S
C3088 C3090 1.394 . S
C3088 H3104 0.931 . S
C3089 C3088 1.391 . S
C3089 C3093 1.376 . S
C3090 C3088 1.394 . S
C3090 C3091 1.369 . S
C3090 C3094 1.531 . S
C3091 C3090 1.369 . S
C3091 C3092 1.410 . S
C3091 C3099 1.503 . S
C3092 C3091 1.410 . S
C3092 C3093 1.392 . S
C3092 C3095 1.511 . S
C3093 C3089 1.376 . S
C3093 C3092 1.392 . S
C3093 H3105 0.929 . S
C3094 C3090 1.531 . S
C3094 H3106 0.960 . S
C3094 H3107 0.962 . S
C3094 H3108 0.960 . S
C3095 C3092 1.511 . S
C3095 H3109 0.961 . S
C3095 H3110 0.961 . S
C3095 H3111 0.961 . S
C3096 C3097 1.370 . S
C3096 C3098 1.363 . S
C3096 H3112 0.931 . S
C3097 C3096 1.370 . S
C3097 C3101 1.408 . S
C3098 C3096 1.363 . S
C3098 C3099 1.370 . S
C3098 C3102 1.524 . S
C3099 C3091 1.503 . S
C3099 C3098 1.370 . S
C3099 C3100 1.403 . S
C3100 C3099 1.403 . S
C3100 C3101 1.404 . S
C3100 C3103 1.539 . S
C3101 C3097 1.408 . S
C3101 C3100 1.404 . S
C3101 H3113 0.930 . S
C3102 C3098 1.524 . S
C3102 H3114 0.956 . S
C3102 H3115 0.961 . S
C3102 H3116 0.961 . S
C3103 C3100 1.539 . S
C3103 H3117 0.958 . S
C3103 H3118 0.961 . S
C3103 H3119 0.960 . S
H3104 C3088 0.931 . S
H3105 C3093 0.929 . S
H3106 C3094 0.960 . S
H3107 C3094 0.962 . S
H3108 C3094 0.960 . S
H3109 C3095 0.961 . S
H3110 C3095 0.961 . S
H3111 C3095 0.961 . S
H3112 C3096 0.931 . S
H3113 C3101 0.930 . S
H3114 C3102 0.956 . S
H3115 C3102 0.961 . S
H3116 C3102 0.961 . S
H3117 C3103 0.958 . S
H3118 C3103 0.961 . S
H3119 C3103 0.960 . S
C3120 C3121 1.391 . S
C3120 C3122 1.394 . S
C3120 H3136 0.931 . S
C3121 C3120 1.391 . S
C3121 C3125 1.376 . S
C3122 C3120 1.394 . S
C3122 C3123 1.369 . S
C3122 C3126 1.531 . S
C3123 C3122 1.369 . S
C3123 C3124 1.410 . S
C3123 C3131 1.503 . S
C3124 C3123 1.410 . S
C3124 C3125 1.392 . S
C3124 C3127 1.511 . S
C3125 C3121 1.376 . S
C3125 C3124 1.392 . S
C3125 H3137 0.929 . S
C3126 C3122 1.531 . S
C3126 H3138 0.960 . S
C3126 H3139 0.962 . S
C3126 H3140 0.960 . S
C3127 C3124 1.511 . S
C3127 H3141 0.961 . S
C3127 H3142 0.961 . S
C3127 H3143 0.961 . S
C3128 C3129 1.370 . S
C3128 C3130 1.363 . S
C3128 H3144 0.931 . S
C3129 C3128 1.370 . S
C3129 C3133 1.408 . S
C3130 C3128 1.363 . S
C3130 C3131 1.370 . S
C3130 C3134 1.524 . S
C3131 C3123 1.503 . S
C3131 C3130 1.370 . S
C3131 C3132 1.403 . S
C3132 C3131 1.403 . S
C3132 C3133 1.404 . S
C3132 C3135 1.539 . S
C3133 C3129 1.408 . S
C3133 C3132 1.404 . S
C3133 H3145 0.930 . S
C3134 C3130 1.524 . S
C3134 H3146 0.956 . S
C3134 H3147 0.961 . S
C3134 H3148 0.961 . S
C3135 C3132 1.539 . S
C3135 H3149 0.958 . S
C3135 H3150 0.961 . S
C3135 H3151 0.960 . S
H3136 C3120 0.931 . S
H3137 C3125 0.929 . S
H3138 C3126 0.960 . S
H3139 C3126 0.962 . S
H3140 C3126 0.960 . S
H3141 C3127 0.961 . S
H3142 C3127 0.961 . S
H3143 C3127 0.961 . S
H3144 C3128 0.931 . S
H3145 C3133 0.930 . S
H3146 C3134 0.956 . S
H3147 C3134 0.961 . S
H3148 C3134 0.961 . S
H3149 C3135 0.958 . S
H3150 C3135 0.961 . S
H3151 C3135 0.960 . S
C3152 C3153 1.391 . S
C3152 C3154 1.394 . S
C3152 H3168 0.931 . S
C3153 C3152 1.391 . S
C3153 C3157 1.376 . S
C3154 C3152 1.394 . S
C3154 C3155 1.369 . S
C3154 C3158 1.531 . S
C3155 C3154 1.369 . S
C3155 C3156 1.410 . S
C3155 C3163 1.503 . S
C3156 C3155 1.410 . S
C3156 C3157 1.392 . S
C3156 C3159 1.511 . S
C3157 C3153 1.376 . S
C3157 C3156 1.392 . S
C3157 H3169 0.929 . S
C3158 C3154 1.531 . S
C3158 H3170 0.960 . S
C3158 H3171 0.962 . S
C3158 H3172 0.960 . S
C3159 C3156 1.511 . S
C3159 H3173 0.961 . S
C3159 H3174 0.961 . S
C3159 H3175 0.961 . S
C3160 C3161 1.370 . S
C3160 C3162 1.363 . S
C3160 H3176 0.931 . S
C3161 C3160 1.370 . S
C3161 C3165 1.408 . S
C3162 C3160 1.363 . S
C3162 C3163 1.370 . S
C3162 C3166 1.524 . S
C3163 C3155 1.503 . S
C3163 C3162 1.370 . S
C3163 C3164 1.403 . S
C3164 C3163 1.403 . S
C3164 C3165 1.404 . S
C3164 C3167 1.539 . S
C3165 C3161 1.408 . S
C3165 C3164 1.404 . S
C3165 H3177 0.930 . S
C3166 C3162 1.524 . S
C3166 H3178 0.956 . S
C3166 H3179 0.961 . S
C3166 H3180 0.961 . S
C3167 C3164 1.539 . S
C3167 H3181 0.958 . S
C3167 H3182 0.961 . S
C3167 H3183 0.960 . S
H3168 C3152 0.931 . S
H3169 C3157 0.929 . S
H3170 C3158 0.960 . S
H3171 C3158 0.962 . S
H3172 C3158 0.960 . S
H3173 C3159 0.961 . S
H3174 C3159 0.961 . S
H3175 C3159 0.961 . S
H3176 C3160 0.931 . S
H3177 C3165 0.930 . S
H3178 C3166 0.956 . S
H3179 C3166 0.961 . S
H3180 C3166 0.961 . S
H3181 C3167 0.958 . S
H3182 C3167 0.961 . S
H3183 C3167 0.960 . S
C3184 C3185 1.391 . S
C3184 C3186 1.394 . S
C3184 H3200 0.931 1_455 S
C3185 C3184 1.391 . S
C3185 C3189 1.376 . S
C3186 C3184 1.394 . S
C3186 C3187 1.369 . S
C3186 C3190 1.531 1_455 S
C3187 C3186 1.369 . S
C3187 C3188 1.410 . S
C3187 C3195 1.503 . S
C3188 C3187 1.410 . S
C3188 C3189 1.392 . S
C3188 C3191 1.511 . S
C3189 C3185 1.376 . S
C3189 C3188 1.392 . S
C3189 H3201 0.929 . S
C3190 C3186 1.531 1_655 S
C3190 H3202 0.960 . S
C3190 H3203 0.962 . S
C3190 H3204 0.960 . S
C3191 C3188 1.511 . S
C3191 H3205 0.961 . S
C3191 H3206 0.961 . S
C3191 H3207 0.961 . S
C3192 C3193 1.370 1_554 S
C3192 C3194 1.363 1_554 S
C3192 H3208 0.931 1_455 S
C3193 C3192 1.370 1_556 S
C3193 C3197 1.408 . S
C3194 C3192 1.363 1_556 S
C3194 C3195 1.370 . S
C3194 C3198 1.524 1_456 S
C3195 C3187 1.503 . S
C3195 C3194 1.370 . S
C3195 C3196 1.403 . S
C3196 C3195 1.403 . S
C3196 C3197 1.404 . S
C3196 C3199 1.539 . S
C3197 C3193 1.408 . S
C3197 C3196 1.404 . S
C3197 H3209 0.930 . S
C3198 C3194 1.524 1_654 S
C3198 H3210 0.956 1_554 S
C3198 H3211 0.961 1_655 S
C3198 H3212 0.961 . S
C3199 C3196 1.539 . S
C3199 H3213 0.958 . S
C3199 H3214 0.961 . S
C3199 H3215 0.960 . S
H3200 C3184 0.931 1_655 S
H3201 C3189 0.929 . S
H3202 C3190 0.960 . S
H3203 C3190 0.962 . S
H3204 C3190 0.960 . S
H3205 C3191 0.961 . S
H3206 C3191 0.961 . S
H3207 C3191 0.961 . S
H3208 C3192 0.931 1_655 S
H3209 C3197 0.930 . S
H3210 C3198 0.956 1_556 S
H3211 C3198 0.961 1_455 S
H3212 C3198 0.961 . S
H3213 C3199 0.958 . S
H3214 C3199 0.961 . S
H3215 C3199 0.960 . S
C3216 C3217 1.391 . S
C3216 C3218 1.394 . S
C3216 H3232 0.931 . S
C3217 C3216 1.391 . S
C3217 C3221 1.376 . S
C3218 C3216 1.394 . S
C3218 C3219 1.369 . S
C3218 C3222 1.531 . S
C3219 C3218 1.369 . S
C3219 C3220 1.410 . S
C3219 C3227 1.503 . S
C3220 C3219 1.410 . S
C3220 C3221 1.392 . S
C3220 C3223 1.511 . S
C3221 C3217 1.376 . S
C3221 C3220 1.392 . S
C3221 H3233 0.929 . S
C3222 C3218 1.531 . S
C3222 H3234 0.960 . S
C3222 H3235 0.962 . S
C3222 H3236 0.960 . S
C3223 C3220 1.511 . S
C3223 H3237 0.961 . S
C3223 H3238 0.961 . S
C3223 H3239 0.961 . S
C3224 C3225 1.370 . S
C3224 C3226 1.363 . S
C3224 H3240 0.931 . S
C3225 C3224 1.370 . S
C3225 C3229 1.408 . S
C3226 C3224 1.363 . S
C3226 C3227 1.370 . S
C3226 C3230 1.524 . S
C3227 C3219 1.503 . S
C3227 C3226 1.370 . S
C3227 C3228 1.403 . S
C3228 C3227 1.403 . S
C3228 C3229 1.404 . S
C3228 C3231 1.539 . S
C3229 C3225 1.408 . S
C3229 C3228 1.404 . S
C3229 H3241 0.930 . S
C3230 C3226 1.524 . S
C3230 H3242 0.956 . S
C3230 H3243 0.961 . S
C3230 H3244 0.961 . S
C3231 C3228 1.539 . S
C3231 H3245 0.958 . S
C3231 H3246 0.961 . S
C3231 H3247 0.960 . S
H3232 C3216 0.931 . S
H3233 C3221 0.929 . S
H3234 C3222 0.960 . S
H3235 C3222 0.962 . S
H3236 C3222 0.960 . S
H3237 C3223 0.961 . S
H3238 C3223 0.961 . S
H3239 C3223 0.961 . S
H3240 C3224 0.931 . S
H3241 C3229 0.930 . S
H3242 C3230 0.956 . S
H3243 C3230 0.961 . S
H3244 C3230 0.961 . S
H3245 C3231 0.958 . S
H3246 C3231 0.961 . S
H3247 C3231 0.960 . S
C3248 C3249 1.391 . S
C3248 C3250 1.394 . S
C3248 H3264 0.931 . S
C3249 C3248 1.391 . S
C3249 C3253 1.376 . S
C3250 C3248 1.394 . S
C3250 C3251 1.369 . S
C3250 C3254 1.531 . S
C3251 C3250 1.369 . S
C3251 C3252 1.410 . S
C3251 C3259 1.503 . S
C3252 C3251 1.410 . S
C3252 C3253 1.392 . S
C3252 C3255 1.511 . S
C3253 C3249 1.376 . S
C3253 C3252 1.392 . S
C3253 H3265 0.929 . S
C3254 C3250 1.531 . S
C3254 H3266 0.960 . S
C3254 H3267 0.962 . S
C3254 H3268 0.960 . S
C3255 C3252 1.511 . S
C3255 H3269 0.961 . S
C3255 H3270 0.961 . S
C3255 H3271 0.961 . S
C3256 C3257 1.370 . S
C3256 C3258 1.363 . S
C3256 H3272 0.931 . S
C3257 C3256 1.370 . S
C3257 C3261 1.408 . S
C3258 C3256 1.363 . S
C3258 C3259 1.370 . S
C3258 C3262 1.524 . S
C3259 C3251 1.503 . S
C3259 C3258 1.370 . S
C3259 C3260 1.403 . S
C3260 C3259 1.403 . S
C3260 C3261 1.404 . S
C3260 C3263 1.539 . S
C3261 C3257 1.408 . S
C3261 C3260 1.404 . S
C3261 H3273 0.930 . S
C3262 C3258 1.524 . S
C3262 H3274 0.956 . S
C3262 H3275 0.961 . S
C3262 H3276 0.961 . S
C3263 C3260 1.539 . S
C3263 H3277 0.958 . S
C3263 H3278 0.961 . S
C3263 H3279 0.960 . S
H3264 C3248 0.931 . S
H3265 C3253 0.929 . S
H3266 C3254 0.960 . S
H3267 C3254 0.962 . S
H3268 C3254 0.960 . S
H3269 C3255 0.961 . S
H3270 C3255 0.961 . S
H3271 C3255 0.961 . S
H3272 C3256 0.931 . S
H3273 C3261 0.930 . S
H3274 C3262 0.956 . S
H3275 C3262 0.961 . S
H3276 C3262 0.961 . S
H3277 C3263 0.958 . S
H3278 C3263 0.961 . S
H3279 C3263 0.960 . S
C3280 C3281 1.391 . S
C3280 C3282 1.394 . S
C3280 H3296 0.931 . S
C3281 C3280 1.391 . S
C3281 C3285 1.376 . S
C3282 C3280 1.394 . S
C3282 C3283 1.369 . S
C3282 C3286 1.531 . S
C3283 C3282 1.369 . S
C3283 C3284 1.410 . S
C3283 C3291 1.503 . S
C3284 C3283 1.410 . S
C3284 C3285 1.392 . S
C3284 C3287 1.511 . S
C3285 C3281 1.376 . S
C3285 C3284 1.392 . S
C3285 H3297 0.929 . S
C3286 C3282 1.531 . S
C3286 H3298 0.960 . S
C3286 H3299 0.962 . S
C3286 H3300 0.960 . S
C3287 C3284 1.511 . S
C3287 H3301 0.961 . S
C3287 H3302 0.961 . S
C3287 H3303 0.961 . S
C3288 C3289 1.370 . S
C3288 C3290 1.363 . S
C3288 H3304 0.931 . S
C3289 C3288 1.370 . S
C3289 C3293 1.408 . S
C3290 C3288 1.363 . S
C3290 C3291 1.370 . S
C3290 C3294 1.524 . S
C3291 C3283 1.503 . S
C3291 C3290 1.370 . S
C3291 C3292 1.403 . S
C3292 C3291 1.403 . S
C3292 C3293 1.404 . S
C3292 C3295 1.539 . S
C3293 C3289 1.408 . S
C3293 C3292 1.404 . S
C3293 H3305 0.930 . S
C3294 C3290 1.524 . S
C3294 H3306 0.956 . S
C3294 H3307 0.961 . S
C3294 H3308 0.961 . S
C3295 C3292 1.539 . S
C3295 H3309 0.958 . S
C3295 H3310 0.961 . S
C3295 H3311 0.960 . S
H3296 C3280 0.931 . S
H3297 C3285 0.929 . S
H3298 C3286 0.960 . S
H3299 C3286 0.962 . S
H3300 C3286 0.960 . S
H3301 C3287 0.961 . S
H3302 C3287 0.961 . S
H3303 C3287 0.961 . S
H3304 C3288 0.931 . S
H3305 C3293 0.930 . S
H3306 C3294 0.956 . S
H3307 C3294 0.961 . S
H3308 C3294 0.961 . S
H3309 C3295 0.958 . S
H3310 C3295 0.961 . S
H3311 C3295 0.960 . S
C3312 C3313 1.391 1_655 S
C3312 C3314 1.394 . S
C3312 H3328 0.931 . S
C3313 C3312 1.391 1_455 S
C3313 C3317 1.376 . S
C3314 C3312 1.394 . S
C3314 C3315 1.369 1_655 S
C3314 C3318 1.531 . S
C3315 C3314 1.369 1_455 S
C3315 C3316 1.410 . S
C3315 C3323 1.503 . S
C3316 C3315 1.410 . S
C3316 C3317 1.392 . S
C3316 C3319 1.511 . S
C3317 C3313 1.376 . S
C3317 C3316 1.392 . S
C3317 H3329 0.929 . S
C3318 C3314 1.531 . S
C3318 H3330 0.960 . S
C3318 H3331 0.962 . S
C3318 H3332 0.960 . S
C3319 C3316 1.511 . S
C3319 H3333 0.961 . S
C3319 H3334 0.961 . S
C3319 H3335 0.961 . S
C3320 C3321 1.345 1_655 S
C3320 C3322 1.365 . S
C3320 H3336 0.957 . S
C3321 C3320 1.345 1_455 S
C3321 C3325 1.408 . S
C3322 C3320 1.365 . S
C3322 C3323 1.370 1_655 S
C3322 C3326 1.524 . S
C3323 C3315 1.503 . S
C3323 C3322 1.370 1_455 S
C3323 C3324 1.403 . S
C3324 C3323 1.403 . S
C3324 C3325 1.404 . S
C3324 C3327 1.539 . S
C3325 C3321 1.408 . S
C3325 C3324 1.404 . S
C3325 H3337 0.930 . S
C3326 C3322 1.524 . S
C3326 H3338 0.956 . S
C3326 H3339 0.961 . S
C3326 H3340 0.961 . S
C3327 C3324 1.539 . S
C3327 H3341 0.958 . S
C3327 H3342 0.961 . S
C3327 H3343 0.960 . S
H3328 C3312 0.931 . S
H3329 C3317 0.929 . S
H3330 C3318 0.960 . S
H3331 C3318 0.962 . S
H3332 C3318 0.960 . S
H3333 C3319 0.961 . S
H3334 C3319 0.961 . S
H3335 C3319 0.961 . S
H3336 C3320 0.957 . S
H3337 C3325 0.930 . S
H3338 C3326 0.956 . S
H3339 C3326 0.961 . S
H3340 C3326 0.961 . S
H3341 C3327 0.958 . S
H3342 C3327 0.961 . S
H3343 C3327 0.960 . S
C3344 C3345 1.391 . S
C3344 C3346 1.394 . S
C3344 H3360 0.931 . S
C3345 C3344 1.391 . S
C3345 C3349 1.376 . S
C3346 C3344 1.394 . S
C3346 C3347 1.369 . S
C3346 C3350 1.531 . S
C3347 C3346 1.369 . S
C3347 C3348 1.410 . S
C3347 C3355 1.503 . S
C3348 C3347 1.410 . S
C3348 C3349 1.392 . S
C3348 C3351 1.511 . S
C3349 C3345 1.376 . S
C3349 C3348 1.392 . S
C3349 H3361 0.929 . S
C3350 C3346 1.531 . S
C3350 H3362 0.960 . S
C3350 H3363 0.962 . S
C3350 H3364 0.960 . S
C3351 C3348 1.511 . S
C3351 H3365 0.961 . S
C3351 H3366 0.961 . S
C3351 H3367 0.961 . S
C3352 C3353 1.370 . S
C3352 C3354 1.363 . S
C3352 H3368 0.931 . S
C3353 C3352 1.370 . S
C3353 C3357 1.408 . S
C3354 C3352 1.363 . S
C3354 C3355 1.370 . S
C3354 C3358 1.524 . S
C3355 C3347 1.503 . S
C3355 C3354 1.370 . S
C3355 C3356 1.403 . S
C3356 C3355 1.403 . S
C3356 C3357 1.404 . S
C3356 C3359 1.539 . S
C3357 C3353 1.408 . S
C3357 C3356 1.404 . S
C3357 H3369 0.930 . S
C3358 C3354 1.524 . S
C3358 H3370 0.956 . S
C3358 H3371 0.961 . S
C3358 H3372 0.961 . S
C3359 C3356 1.539 . S
C3359 H3373 0.958 . S
C3359 H3374 0.961 . S
C3359 H3375 0.960 . S
H3360 C3344 0.931 . S
H3361 C3349 0.929 . S
H3362 C3350 0.960 . S
H3363 C3350 0.962 . S
H3364 C3350 0.960 . S
H3365 C3351 0.961 . S
H3366 C3351 0.961 . S
H3367 C3351 0.961 . S
H3368 C3352 0.931 . S
H3369 C3357 0.930 . S
H3370 C3358 0.956 . S
H3371 C3358 0.961 . S
H3372 C3358 0.961 . S
H3373 C3359 0.958 . S
H3374 C3359 0.961 . S
H3375 C3359 0.960 . S
C3376 C3377 1.391 . S
C3376 C3378 1.394 . S
C3376 H3392 0.931 . S
C3377 C3376 1.391 . S
C3377 C3381 1.376 . S
C3378 C3376 1.394 . S
C3378 C3379 1.369 . S
C3378 C3382 1.531 . S
C3379 C3378 1.369 . S
C3379 C3380 1.410 . S
C3379 C3387 1.503 . S
C3380 C3379 1.410 . S
C3380 C3381 1.392 . S
C3380 C3383 1.511 . S
C3381 C3377 1.376 . S
C3381 C3380 1.392 . S
C3381 H3393 0.929 . S
C3382 C3378 1.531 . S
C3382 H3394 0.960 . S
C3382 H3395 0.962 . S
C3382 H3396 0.960 . S
C3383 C3380 1.511 . S
C3383 H3397 0.961 . S
C3383 H3398 0.961 . S
C3383 H3399 0.961 . S
C3384 C3385 1.370 . S
C3384 C3386 1.363 . S
C3384 H3400 0.931 . S
C3385 C3384 1.370 . S
C3385 C3389 1.408 . S
C3386 C3384 1.363 . S
C3386 C3387 1.370 . S
C3386 C3390 1.524 . S
C3387 C3379 1.503 . S
C3387 C3386 1.370 . S
C3387 C3388 1.403 . S
C3388 C3387 1.403 . S
C3388 C3389 1.404 . S
C3388 C3391 1.539 . S
C3389 C3385 1.408 . S
C3389 C3388 1.404 . S
C3389 H3401 0.930 . S
C3390 C3386 1.524 . S
C3390 H3402 0.956 . S
C3390 H3403 0.961 . S
C3390 H3404 0.961 . S
C3391 C3388 1.539 . S
C3391 H3405 0.958 . S
C3391 H3406 0.961 . S
C3391 H3407 0.960 . S
H3392 C3376 0.931 . S
H3393 C3381 0.929 . S
H3394 C3382 0.960 . S
H3395 C3382 0.962 . S
H3396 C3382 0.960 . S
H3397 C3383 0.961 . S
H3398 C3383 0.961 . S
H3399 C3383 0.961 . S
H3400 C3384 0.931 . S
H3401 C3389 0.930 . S
H3402 C3390 0.956 . S
H3403 C3390 0.961 . S
H3404 C3390 0.961 . S
H3405 C3391 0.958 . S
H3406 C3391 0.961 . S
H3407 C3391 0.960 . S
C3408 C3409 1.391 . S
C3408 C3410 1.394 . S
C3408 H3424 0.931 . S
C3409 C3408 1.391 . S
C3409 C3413 1.376 . S
C3410 C3408 1.394 . S
C3410 C3411 1.369 . S
C3410 C3414 1.531 . S
C3411 C3410 1.369 . S
C3411 C3412 1.410 . S
C3411 C3419 1.503 . S
C3412 C3411 1.410 . S
C3412 C3413 1.392 . S
C3412 C3415 1.511 . S
C3413 C3409 1.376 . S
C3413 C3412 1.392 . S
C3413 H3425 0.929 . S
C3414 C3410 1.531 . S
C3414 H3426 0.960 . S
C3414 H3427 0.962 . S
C3414 H3428 0.960 . S
C3415 C3412 1.511 . S
C3415 H3429 0.961 . S
C3415 H3430 0.961 . S
C3415 H3431 0.961 . S
C3416 C3417 1.370 . S
C3416 C3418 1.363 . S
C3416 H3432 0.931 . S
C3417 C3416 1.370 . S
C3417 C3421 1.408 . S
C3418 C3416 1.363 . S
C3418 C3419 1.370 . S
C3418 C3422 1.524 . S
C3419 C3411 1.503 . S
C3419 C3418 1.370 . S
C3419 C3420 1.403 . S
C3420 C3419 1.403 . S
C3420 C3421 1.404 . S
C3420 C3423 1.539 . S
C3421 C3417 1.408 . S
C3421 C3420 1.404 . S
C3421 H3433 0.930 . S
C3422 C3418 1.524 . S
C3422 H3434 0.956 . S
C3422 H3435 0.961 . S
C3422 H3436 0.961 . S
C3423 C3420 1.539 . S
C3423 H3437 0.958 . S
C3423 H3438 0.961 . S
C3423 H3439 0.960 . S
H3424 C3408 0.931 . S
H3425 C3413 0.929 . S
H3426 C3414 0.960 . S
H3427 C3414 0.962 . S
H3428 C3414 0.960 . S
H3429 C3415 0.961 . S
H3430 C3415 0.961 . S
H3431 C3415 0.961 . S
H3432 C3416 0.931 . S
H3433 C3421 0.930 . S
H3434 C3422 0.956 . S
H3435 C3422 0.961 . S
H3436 C3422 0.961 . S
H3437 C3423 0.958 . S
H3438 C3423 0.961 . S
H3439 C3423 0.960 . S
C3440 C3441 1.391 . S
C3440 C3442 1.394 . S
C3440 H3456 0.931 . S
C3441 C3440 1.391 . S
C3441 C3445 1.376 . S
C3442 C3440 1.394 . S
C3442 C3443 1.369 . S
C3442 C3446 1.531 . S
C3443 C3442 1.369 . S
C3443 C3444 1.410 . S
C3443 C3451 1.503 . S
C3444 C3443 1.410 . S
C3444 C3445 1.392 . S
C3444 C3447 1.511 . S
C3445 C3441 1.376 . S
C3445 C3444 1.392 . S
C3445 H3457 0.929 . S
C3446 C3442 1.531 . S
C3446 H3458 0.960 . S
C3446 H3459 0.962 . S
C3446 H3460 0.960 . S
C3447 C3444 1.511 . S
C3447 H3461 0.961 . S
C3447 H3462 0.961 . S
C3447 H3463 0.961 . S
C3448 C3449 1.370 . S
C3448 C3450 1.363 . S
C3448 H3464 0.931 . S
C3449 C3448 1.370 . S
C3449 C3453 1.408 . S
C3450 C3448 1.363 . S
C3450 C3451 1.370 . S
C3450 C3454 1.524 . S
C3451 C3443 1.503 . S
C3451 C3450 1.370 . S
C3451 C3452 1.403 . S
C3452 C3451 1.403 . S
C3452 C3453 1.404 . S
C3452 C3455 1.539 . S
C3453 C3449 1.408 . S
C3453 C3452 1.404 . S
C3453 H3465 0.930 . S
C3454 C3450 1.524 . S
C3454 H3466 0.956 . S
C3454 H3467 0.961 . S
C3454 H3468 0.961 . S
C3455 C3452 1.539 . S
C3455 H3469 0.958 . S
C3455 H3470 0.961 . S
C3455 H3471 0.960 . S
H3456 C3440 0.931 . S
H3457 C3445 0.929 . S
H3458 C3446 0.960 . S
H3459 C3446 0.962 . S
H3460 C3446 0.960 . S
H3461 C3447 0.961 . S
H3462 C3447 0.961 . S
H3463 C3447 0.961 . S
H3464 C3448 0.931 . S
H3465 C3453 0.930 . S
H3466 C3454 0.956 . S
H3467 C3454 0.961 . S
H3468 C3454 0.961 . S
H3469 C3455 0.958 . S
H3470 C3455 0.961 . S
H3471 C3455 0.960 . S
C3472 C3473 1.391 . S
C3472 C3474 1.394 . S
C3472 H3488 0.931 . S
C3473 C3472 1.391 . S
C3473 C3477 1.376 . S
C3474 C3472 1.394 . S
C3474 C3475 1.369 . S
C3474 C3478 1.531 . S
C3475 C3474 1.369 . S
C3475 C3476 1.410 . S
C3475 C3483 1.503 . S
C3476 C3475 1.410 . S
C3476 C3477 1.392 . S
C3476 C3479 1.511 . S
C3477 C3473 1.376 . S
C3477 C3476 1.392 . S
C3477 H3489 0.929 . S
C3478 C3474 1.531 . S
C3478 H3490 0.960 . S
C3478 H3491 0.962 . S
C3478 H3492 0.960 . S
C3479 C3476 1.511 . S
C3479 H3493 0.961 . S
C3479 H3494 0.961 . S
C3479 H3495 0.961 . S
C3480 C3481 1.370 . S
C3480 C3482 1.363 . S
C3480 H3496 0.931 . S
C3481 C3480 1.370 . S
C3481 C3485 1.408 . S
C3482 C3480 1.363 . S
C3482 C3483 1.370 . S
C3482 C3486 1.524 . S
C3483 C3475 1.503 . S
C3483 C3482 1.370 . S
C3483 C3484 1.403 . S
C3484 C3483 1.403 . S
C3484 C3485 1.404 . S
C3484 C3487 1.539 . S
C3485 C3481 1.408 . S
C3485 C3484 1.404 . S
C3485 H3497 0.930 . S
C3486 C3482 1.524 . S
C3486 H3498 0.956 . S
C3486 H3499 0.961 . S
C3486 H3500 0.961 . S
C3487 C3484 1.539 . S
C3487 H3501 0.958 . S
C3487 H3502 0.961 . S
C3487 H3503 0.960 . S
H3488 C3472 0.931 . S
H3489 C3477 0.929 . S
H3490 C3478 0.960 . S
H3491 C3478 0.962 . S
H3492 C3478 0.960 . S
H3493 C3479 0.961 . S
H3494 C3479 0.961 . S
H3495 C3479 0.961 . S
H3496 C3480 0.931 . S
H3497 C3485 0.930 . S
H3498 C3486 0.956 . S
H3499 C3486 0.961 . S
H3500 C3486 0.961 . S
H3501 C3487 0.958 . S
H3502 C3487 0.961 . S
H3503 C3487 0.960 . S
C3504 C3505 1.391 . S
C3504 C3506 1.394 . S
C3504 H3520 0.931 . S
C3505 C3504 1.391 . S
C3505 C3509 1.376 . S
C3506 C3504 1.394 . S
C3506 C3507 1.369 . S
C3506 C3510 1.531 . S
C3507 C3506 1.369 . S
C3507 C3508 1.410 . S
C3507 C3515 1.503 . S
C3508 C3507 1.410 . S
C3508 C3509 1.392 . S
C3508 C3511 1.511 . S
C3509 C3505 1.376 . S
C3509 C3508 1.392 . S
C3509 H3521 0.929 . S
C3510 C3506 1.531 . S
C3510 H3522 0.960 . S
C3510 H3523 0.962 . S
C3510 H3524 0.960 . S
C3511 C3508 1.511 . S
C3511 H3525 0.961 . S
C3511 H3526 0.961 . S
C3511 H3527 0.961 . S
C3512 C3513 1.370 . S
C3512 C3514 1.363 . S
C3512 H3528 0.931 . S
C3513 C3512 1.370 . S
C3513 C3517 1.408 . S
C3514 C3512 1.363 . S
C3514 C3515 1.370 . S
C3514 C3518 1.524 . S
C3515 C3507 1.503 . S
C3515 C3514 1.370 . S
C3515 C3516 1.403 . S
C3516 C3515 1.403 . S
C3516 C3517 1.404 . S
C3516 C3519 1.539 . S
C3517 C3513 1.408 . S
C3517 C3516 1.404 . S
C3517 H3529 0.930 . S
C3518 C3514 1.524 . S
C3518 H3530 0.956 . S
C3518 H3531 0.961 . S
C3518 H3532 0.961 . S
C3519 C3516 1.539 . S
C3519 H3533 0.958 . S
C3519 H3534 0.961 . S
C3519 H3535 0.960 . S
H3520 C3504 0.931 . S
H3521 C3509 0.929 . S
H3522 C3510 0.960 . S
H3523 C3510 0.962 . S
H3524 C3510 0.960 . S
H3525 C3511 0.961 . S
H3526 C3511 0.961 . S
H3527 C3511 0.961 . S
H3528 C3512 0.931 . S
H3529 C3517 0.930 . S
H3530 C3518 0.956 . S
H3531 C3518 0.961 . S
H3532 C3518 0.961 . S
H3533 C3519 0.958 . S
H3534 C3519 0.961 . S
H3535 C3519 0.960 . S
C3536 C3537 1.391 . S
C3536 C3538 1.394 . S
C3536 H3552 0.931 . S
C3537 C3536 1.391 . S
C3537 C3541 1.376 . S
C3538 C3536 1.394 . S
C3538 C3539 1.369 . S
C3538 C3542 1.531 . S
C3539 C3538 1.369 . S
C3539 C3540 1.410 . S
C3539 C3547 1.503 . S
C3540 C3539 1.410 . S
C3540 C3541 1.392 . S
C3540 C3543 1.511 . S
C3541 C3537 1.376 . S
C3541 C3540 1.392 . S
C3541 H3553 0.929 . S
C3542 C3538 1.531 . S
C3542 H3554 0.960 . S
C3542 H3555 0.962 . S
C3542 H3556 0.960 . S
C3543 C3540 1.511 . S
C3543 H3557 0.961 . S
C3543 H3558 0.961 . S
C3543 H3559 0.961 . S
C3544 C3545 1.370 . S
C3544 C3546 1.363 . S
C3544 H3560 0.931 . S
C3545 C3544 1.370 . S
C3545 C3549 1.408 . S
C3546 C3544 1.363 . S
C3546 C3547 1.370 . S
C3546 C3550 1.524 . S
C3547 C3539 1.503 . S
C3547 C3546 1.370 . S
C3547 C3548 1.403 . S
C3548 C3547 1.403 . S
C3548 C3549 1.404 . S
C3548 C3551 1.539 . S
C3549 C3545 1.408 . S
C3549 C3548 1.404 . S
C3549 H3561 0.930 . S
C3550 C3546 1.524 . S
C3550 H3562 0.956 . S
C3550 H3563 0.961 . S
C3550 H3564 0.961 . S
C3551 C3548 1.539 . S
C3551 H3565 0.958 . S
C3551 H3566 0.961 . S
C3551 H3567 0.960 . S
H3552 C3536 0.931 . S
H3553 C3541 0.929 . S
H3554 C3542 0.960 . S
H3555 C3542 0.962 . S
H3556 C3542 0.960 . S
H3557 C3543 0.961 . S
H3558 C3543 0.961 . S
H3559 C3543 0.961 . S
H3560 C3544 0.931 . S
H3561 C3549 0.930 . S
H3562 C3550 0.956 . S
H3563 C3550 0.961 . S
H3564 C3550 0.961 . S
H3565 C3551 0.958 . S
H3566 C3551 0.961 . S
H3567 C3551 0.960 . S
C3568 C3569 1.391 . S
C3568 C3570 1.394 . S
C3568 H3584 0.931 . S
C3569 C3568 1.391 . S
C3569 C3573 1.376 . S
C3570 C3568 1.394 . S
C3570 C3571 1.369 . S
C3570 C3574 1.531 . S
C3571 C3570 1.369 . S
C3571 C3572 1.410 . S
C3571 C3579 1.503 . S
C3572 C3571 1.410 . S
C3572 C3573 1.392 . S
C3572 C3575 1.511 . S
C3573 C3569 1.376 . S
C3573 C3572 1.392 . S
C3573 H3585 0.929 . S
C3574 C3570 1.531 . S
C3574 H3586 0.960 . S
C3574 H3587 0.962 . S
C3574 H3588 0.960 . S
C3575 C3572 1.511 . S
C3575 H3589 0.961 . S
C3575 H3590 0.961 . S
C3575 H3591 0.961 . S
C3576 C3577 1.370 . S
C3576 C3578 1.363 . S
C3576 H3592 0.931 . S
C3577 C3576 1.370 . S
C3577 C3581 1.408 . S
C3578 C3576 1.363 . S
C3578 C3579 1.370 . S
C3578 C3582 1.524 . S
C3579 C3571 1.503 . S
C3579 C3578 1.370 . S
C3579 C3580 1.403 . S
C3580 C3579 1.403 . S
C3580 C3581 1.404 . S
C3580 C3583 1.539 . S
C3581 C3577 1.408 . S
C3581 C3580 1.404 . S
C3581 H3593 0.930 . S
C3582 C3578 1.524 . S
C3582 H3594 0.956 . S
C3582 H3595 0.961 . S
C3582 H3596 0.961 . S
C3583 C3580 1.539 . S
C3583 H3597 0.958 . S
C3583 H3598 0.961 . S
C3583 H3599 0.960 . S
H3584 C3568 0.931 . S
H3585 C3573 0.929 . S
H3586 C3574 0.960 . S
H3587 C3574 0.962 . S
H3588 C3574 0.960 . S
H3589 C3575 0.961 . S
H3590 C3575 0.961 . S
H3591 C3575 0.961 . S
H3592 C3576 0.931 . S
H3593 C3581 0.930 . S
H3594 C3582 0.956 . S
H3595 C3582 0.961 . S
H3596 C3582 0.961 . S
H3597 C3583 0.958 . S
H3598 C3583 0.961 . S
H3599 C3583 0.960 . S
C3600 C3601 1.391 . S
C3600 C3602 1.394 . S
C3600 H3616 0.931 . S
C3601 C3600 1.391 . S
C3601 C3605 1.376 . S
C3602 C3600 1.394 . S
C3602 C3603 1.369 . S
C3602 C3606 1.531 . S
C3603 C3602 1.369 . S
C3603 C3604 1.410 . S
C3603 C3611 1.503 . S
C3604 C3603 1.410 . S
C3604 C3605 1.392 . S
C3604 C3607 1.511 . S
C3605 C3601 1.376 . S
C3605 C3604 1.392 . S
C3605 H3617 0.929 . S
C3606 C3602 1.531 . S
C3606 H3618 0.960 . S
C3606 H3619 0.962 . S
C3606 H3620 0.960 . S
C3607 C3604 1.511 . S
C3607 H3621 0.961 . S
C3607 H3622 0.961 . S
C3607 H3623 0.961 . S
C3608 C3609 1.370 . S
C3608 C3610 1.363 . S
C3608 H3624 0.931 . S
C3609 C3608 1.370 . S
C3609 C3613 1.408 . S
C3610 C3608 1.363 . S
C3610 C3611 1.370 . S
C3610 C3614 1.524 . S
C3611 C3603 1.503 . S
C3611 C3610 1.370 . S
C3611 C3612 1.403 . S
C3612 C3611 1.403 . S
C3612 C3613 1.404 . S
C3612 C3615 1.539 . S
C3613 C3609 1.408 . S
C3613 C3612 1.404 . S
C3613 H3625 0.930 . S
C3614 C3610 1.524 . S
C3614 H3626 0.956 . S
C3614 H3627 0.961 . S
C3614 H3628 0.961 . S
C3615 C3612 1.539 . S
C3615 H3629 0.958 . S
C3615 H3630 0.961 . S
C3615 H3631 0.960 . S
H3616 C3600 0.931 . S
H3617 C3605 0.929 . S
H3618 C3606 0.960 . S
H3619 C3606 0.962 . S
H3620 C3606 0.960 . S
H3621 C3607 0.961 . S
H3622 C3607 0.961 . S
H3623 C3607 0.961 . S
H3624 C3608 0.931 . S
H3625 C3613 0.930 . S
H3626 C3614 0.956 . S
H3627 C3614 0.961 . S
H3628 C3614 0.961 . S
H3629 C3615 0.958 . S
H3630 C3615 0.961 . S
H3631 C3615 0.960 . S
C3632 C3633 1.391 . S
C3632 C3634 1.394 . S
C3632 H3648 0.931 . S
C3633 C3632 1.391 . S
C3633 C3637 1.376 . S
C3634 C3632 1.394 . S
C3634 C3635 1.369 . S
C3634 C3638 1.531 . S
C3635 C3634 1.369 . S
C3635 C3636 1.410 . S
C3635 C3643 1.503 . S
C3636 C3635 1.410 . S
C3636 C3637 1.392 . S
C3636 C3639 1.511 . S
C3637 C3633 1.376 . S
C3637 C3636 1.392 . S
C3637 H3649 0.929 . S
C3638 C3634 1.531 . S
C3638 H3650 0.960 . S
C3638 H3651 0.962 . S
C3638 H3652 0.960 . S
C3639 C3636 1.511 . S
C3639 H3653 0.961 . S
C3639 H3654 0.961 . S
C3639 H3655 0.961 . S
C3640 C3641 1.370 . S
C3640 C3642 1.363 . S
C3640 H3656 0.931 . S
C3641 C3640 1.370 . S
C3641 C3645 1.408 . S
C3642 C3640 1.363 . S
C3642 C3643 1.370 . S
C3642 C3646 1.524 . S
C3643 C3635 1.503 . S
C3643 C3642 1.370 . S
C3643 C3644 1.403 . S
C3644 C3643 1.403 . S
C3644 C3645 1.404 . S
C3644 C3647 1.539 . S
C3645 C3641 1.408 . S
C3645 C3644 1.404 . S
C3645 H3657 0.930 . S
C3646 C3642 1.524 . S
C3646 H3658 0.956 . S
C3646 H3659 0.961 . S
C3646 H3660 0.961 . S
C3647 C3644 1.539 . S
C3647 H3661 0.958 . S
C3647 H3662 0.961 . S
C3647 H3663 0.960 . S
H3648 C3632 0.931 . S
H3649 C3637 0.929 . S
H3650 C3638 0.960 . S
H3651 C3638 0.962 . S
H3652 C3638 0.960 . S
H3653 C3639 0.961 . S
H3654 C3639 0.961 . S
H3655 C3639 0.961 . S
H3656 C3640 0.931 . S
H3657 C3645 0.930 . S
H3658 C3646 0.956 . S
H3659 C3646 0.961 . S
H3660 C3646 0.961 . S
H3661 C3647 0.958 . S
H3662 C3647 0.961 . S
H3663 C3647 0.960 . S
C3664 C3665 1.391 . S
C3664 C3666 1.394 . S
C3664 H3680 0.931 . S
C3665 C3664 1.391 . S
C3665 C3669 1.376 . S
C3666 C3664 1.394 . S
C3666 C3667 1.369 . S
C3666 C3670 1.531 . S
C3667 C3666 1.369 . S
C3667 C3668 1.410 . S
C3667 C3675 1.503 . S
C3668 C3667 1.410 . S
C3668 C3669 1.392 . S
C3668 C3671 1.511 . S
C3669 C3665 1.376 . S
C3669 C3668 1.392 . S
C3669 H3681 0.929 . S
C3670 C3666 1.531 . S
C3670 H3682 0.960 . S
C3670 H3683 0.962 . S
C3670 H3684 0.960 . S
C3671 C3668 1.511 . S
C3671 H3685 0.961 . S
C3671 H3686 0.961 . S
C3671 H3687 0.961 . S
C3672 C3673 1.370 . S
C3672 C3674 1.363 . S
C3672 H3688 0.931 . S
C3673 C3672 1.370 . S
C3673 C3677 1.408 . S
C3674 C3672 1.363 . S
C3674 C3675 1.370 . S
C3674 C3678 1.524 . S
C3675 C3667 1.503 . S
C3675 C3674 1.370 . S
C3675 C3676 1.403 . S
C3676 C3675 1.403 . S
C3676 C3677 1.404 . S
C3676 C3679 1.539 . S
C3677 C3673 1.408 . S
C3677 C3676 1.404 . S
C3677 H3689 0.930 . S
C3678 C3674 1.524 . S
C3678 H3690 0.956 . S
C3678 H3691 0.961 . S
C3678 H3692 0.961 . S
C3679 C3676 1.539 . S
C3679 H3693 0.958 . S
C3679 H3694 0.961 . S
C3679 H3695 0.960 . S
H3680 C3664 0.931 . S
H3681 C3669 0.929 . S
H3682 C3670 0.960 . S
H3683 C3670 0.962 . S
H3684 C3670 0.960 . S
H3685 C3671 0.961 . S
H3686 C3671 0.961 . S
H3687 C3671 0.961 . S
H3688 C3672 0.931 . S
H3689 C3677 0.930 . S
H3690 C3678 0.956 . S
H3691 C3678 0.961 . S
H3692 C3678 0.961 . S
H3693 C3679 0.958 . S
H3694 C3679 0.961 . S
H3695 C3679 0.960 . S
C3696 C3697 1.391 . S
C3696 C3698 1.394 . S
C3696 H3712 0.931 . S
C3697 C3696 1.391 . S
C3697 C3701 1.376 . S
C3698 C3696 1.394 . S
C3698 C3699 1.369 . S
C3698 C3702 1.531 . S
C3699 C3698 1.369 . S
C3699 C3700 1.410 . S
C3699 C3707 1.503 . S
C3700 C3699 1.410 . S
C3700 C3701 1.392 . S
C3700 C3703 1.511 . S
C3701 C3697 1.376 . S
C3701 C3700 1.392 . S
C3701 H3713 0.929 . S
C3702 C3698 1.531 . S
C3702 H3714 0.960 . S
C3702 H3715 0.962 . S
C3702 H3716 0.960 . S
C3703 C3700 1.511 . S
C3703 H3717 0.961 . S
C3703 H3718 0.961 . S
C3703 H3719 0.961 . S
C3704 C3705 1.370 . S
C3704 C3706 1.363 . S
C3704 H3720 0.931 . S
C3705 C3704 1.370 . S
C3705 C3709 1.408 . S
C3706 C3704 1.363 . S
C3706 C3707 1.370 . S
C3706 C3710 1.524 . S
C3707 C3699 1.503 . S
C3707 C3706 1.370 . S
C3707 C3708 1.403 . S
C3708 C3707 1.403 . S
C3708 C3709 1.404 . S
C3708 C3711 1.539 . S
C3709 C3705 1.408 . S
C3709 C3708 1.404 . S
C3709 H3721 0.930 . S
C3710 C3706 1.524 . S
C3710 H3722 0.956 . S
C3710 H3723 0.961 . S
C3710 H3724 0.961 . S
C3711 C3708 1.539 . S
C3711 H3725 0.958 . S
C3711 H3726 0.961 . S
C3711 H3727 0.960 . S
H3712 C3696 0.931 . S
H3713 C3701 0.929 . S
H3714 C3702 0.960 . S
H3715 C3702 0.962 . S
H3716 C3702 0.960 . S
H3717 C3703 0.961 . S
H3718 C3703 0.961 . S
H3719 C3703 0.961 . S
H3720 C3704 0.931 . S
H3721 C3709 0.930 . S
H3722 C3710 0.956 . S
H3723 C3710 0.961 . S
H3724 C3710 0.961 . S
H3725 C3711 0.958 . S
H3726 C3711 0.961 . S
H3727 C3711 0.960 . S
C3728 C3729 1.391 . S
C3728 C3730 1.394 . S
C3728 H3744 0.931 . S
C3729 C3728 1.391 . S
C3729 C3733 1.376 . S
C3730 C3728 1.394 . S
C3730 C3731 1.369 . S
C3730 C3734 1.531 . S
C3731 C3730 1.369 . S
C3731 C3732 1.410 . S
C3731 C3739 1.503 . S
C3732 C3731 1.410 . S
C3732 C3733 1.392 . S
C3732 C3735 1.511 1_565 S
C3733 C3729 1.376 . S
C3733 C3732 1.392 . S
C3733 H3745 0.929 . S
C3734 C3730 1.531 . S
C3734 H3746 0.960 . S
C3734 H3747 0.962 . S
C3734 H3748 0.960 . S
C3735 C3732 1.511 1_545 S
C3735 H3749 0.961 . S
C3735 H3750 0.961 . S
C3735 H3751 0.961 . S
C3736 C3737 1.384 1_556 S
C3736 C3738 1.369 . S
C3736 H3752 0.931 . S
C3737 C3736 1.384 1_554 S
C3737 C3741 1.422 . S
C3738 C3736 1.369 . S
C3738 C3739 1.337 1_556 S
C3738 C3742 1.552 . S
C3739 C3731 1.503 . S
C3739 C3738 1.337 1_554 S
C3739 C3740 1.403 . S
C3740 C3739 1.403 . S
C3740 C3741 1.404 . S
C3740 C3743 1.539 . S
C3741 C3737 1.422 . S
C3741 C3740 1.404 . S
C3741 H3753 0.930 . S
C3742 C3738 1.552 . S
C3742 H3754 0.956 . S
C3742 H3755 0.961 . S
C3742 H3756 0.961 . S
C3743 C3740 1.539 . S
C3743 H3757 0.958 . S
C3743 H3758 0.961 . S
C3743 H3759 0.960 . S
H3744 C3728 0.931 . S
H3745 C3733 0.929 . S
H3746 C3734 0.960 . S
H3747 C3734 0.962 . S
H3748 C3734 0.960 . S
H3749 C3735 0.961 . S
H3750 C3735 0.961 . S
H3751 C3735 0.961 . S
H3752 C3736 0.931 . S
H3753 C3741 0.930 . S
H3754 C3742 0.956 . S
H3755 C3742 0.961 . S
H3756 C3742 0.961 . S
H3757 C3743 0.958 . S
H3758 C3743 0.961 . S
H3759 C3743 0.960 . S
C3760 C3761 1.391 . S
C3760 C3762 1.394 . S
C3760 H3776 0.931 . S
C3761 C3760 1.391 . S
C3761 C3765 1.376 . S
C3762 C3760 1.394 . S
C3762 C3763 1.369 . S
C3762 C3766 1.531 . S
C3763 C3762 1.369 . S
C3763 C3764 1.410 . S
C3763 C3771 1.503 . S
C3764 C3763 1.410 . S
C3764 C3765 1.392 . S
C3764 C3767 1.511 . S
C3765 C3761 1.376 . S
C3765 C3764 1.392 . S
C3765 H3777 0.929 . S
C3766 C3762 1.531 . S
C3766 H3778 0.960 . S
C3766 H3779 0.962 . S
C3766 H3780 0.960 . S
C3767 C3764 1.511 . S
C3767 H3781 0.961 . S
C3767 H3782 0.961 . S
C3767 H3783 0.961 . S
C3768 C3769 1.370 . S
C3768 C3770 1.363 . S
C3768 H3784 0.931 . S
C3769 C3768 1.370 . S
C3769 C3773 1.408 . S
C3770 C3768 1.363 . S
C3770 C3771 1.370 . S
C3770 C3774 1.524 . S
C3771 C3763 1.503 . S
C3771 C3770 1.370 . S
C3771 C3772 1.403 . S
C3772 C3771 1.403 . S
C3772 C3773 1.404 . S
C3772 C3775 1.539 . S
C3773 C3769 1.408 . S
C3773 C3772 1.404 . S
C3773 H3785 0.930 . S
C3774 C3770 1.524 . S
C3774 H3786 0.956 . S
C3774 H3787 0.961 . S
C3774 H3788 0.961 . S
C3775 C3772 1.539 . S
C3775 H3789 0.958 . S
C3775 H3790 0.961 . S
C3775 H3791 0.960 . S
H3776 C3760 0.931 . S
H3777 C3765 0.929 . S
H3778 C3766 0.960 . S
H3779 C3766 0.962 . S
H3780 C3766 0.960 . S
H3781 C3767 0.961 . S
H3782 C3767 0.961 . S
H3783 C3767 0.961 . S
H3784 C3768 0.931 . S
H3785 C3773 0.930 . S
H3786 C3774 0.956 . S
H3787 C3774 0.961 . S
H3788 C3774 0.961 . S
H3789 C3775 0.958 . S
H3790 C3775 0.961 . S
H3791 C3775 0.960 . S
C3792 C3793 1.391 . S
C3792 C3794 1.394 . S
C3792 H3808 0.931 . S
C3793 C3792 1.391 . S
C3793 C3797 1.376 1_554 S
C3794 C3792 1.394 . S
C3794 C3795 1.369 . S
C3794 C3798 1.531 . S
C3795 C3794 1.369 . S
C3795 C3796 1.410 1_554 S
C3795 C3803 1.503 . S
C3796 C3795 1.410 1_556 S
C3796 C3797 1.392 . S
C3796 C3799 1.511 . S
C3797 C3793 1.376 1_556 S
C3797 C3796 1.392 . S
C3797 H3809 0.929 . S
C3798 C3794 1.531 . S
C3798 H3810 0.960 . S
C3798 H3811 0.962 . S
C3798 H3812 0.960 . S
C3799 C3796 1.511 . S
C3799 H3813 0.961 . S
C3799 H3814 0.961 . S
C3799 H3815 0.961 . S
C3800 C3801 1.370 . S
C3800 C3802 1.363 . S
C3800 H3816 0.931 . S
C3801 C3800 1.370 . S
C3801 C3805 1.408 . S
C3802 C3800 1.363 . S
C3802 C3803 1.370 . S
C3802 C3806 1.524 . S
C3803 C3795 1.503 . S
C3803 C3802 1.370 . S
C3803 C3804 1.403 . S
C3804 C3803 1.403 . S
C3804 C3805 1.404 . S
C3804 C3807 1.539 . S
C3805 C3801 1.408 . S
C3805 C3804 1.404 . S
C3805 H3817 0.930 . S
C3806 C3802 1.524 . S
C3806 H3818 0.956 . S
C3806 H3819 0.961 . S
C3806 H3820 0.961 . S
C3807 C3804 1.539 . S
C3807 H3821 0.958 . S
C3807 H3822 0.961 1_554 S
C3807 H3823 0.960 1_554 S
H3808 C3792 0.931 . S
H3809 C3797 0.929 . S
H3810 C3798 0.960 . S
H3811 C3798 0.962 . S
H3812 C3798 0.960 . S
H3813 C3799 0.961 . S
H3814 C3799 0.961 . S
H3815 C3799 0.961 . S
H3816 C3800 0.931 . S
H3817 C3805 0.930 . S
H3818 C3806 0.956 . S
H3819 C3806 0.961 . S
H3820 C3806 0.961 . S
H3821 C3807 0.958 . S
H3822 C3807 0.961 1_556 S
H3823 C3807 0.960 1_556 S
C3824 C3825 1.391 . S
C3824 C3826 1.394 . S
C3824 H3840 0.931 . S
C3825 C3824 1.391 . S
C3825 C3829 1.376 . S
C3826 C3824 1.394 . S
C3826 C3827 1.369 . S
C3826 C3830 1.531 . S
C3827 C3826 1.369 . S
C3827 C3828 1.410 . S
C3827 C3835 1.503 . S
C3828 C3827 1.410 . S
C3828 C3829 1.392 . S
C3828 C3831 1.511 . S
C3829 C3825 1.376 . S
C3829 C3828 1.392 . S
C3829 H3841 0.929 . S
C3830 C3826 1.531 . S
C3830 H3842 0.960 . S
C3830 H3843 0.962 . S
C3830 H3844 0.960 . S
C3831 C3828 1.511 . S
C3831 H3845 0.961 . S
C3831 H3846 0.961 . S
C3831 H3847 0.961 . S
C3832 C3833 1.370 . S
C3832 C3834 1.363 . S
C3832 H3848 0.931 . S
C3833 C3832 1.370 . S
C3833 C3837 1.408 . S
C3834 C3832 1.363 . S
C3834 C3835 1.370 . S
C3834 C3838 1.524 . S
C3835 C3827 1.503 . S
C3835 C3834 1.370 . S
C3835 C3836 1.403 . S
C3836 C3835 1.403 . S
C3836 C3837 1.404 . S
C3836 C3839 1.539 . S
C3837 C3833 1.408 . S
C3837 C3836 1.404 . S
C3837 H3849 0.930 . S
C3838 C3834 1.524 . S
C3838 H3850 0.956 . S
C3838 H3851 0.961 . S
C3838 H3852 0.961 . S
C3839 C3836 1.539 . S
C3839 H3853 0.958 . S
C3839 H3854 0.961 . S
C3839 H3855 0.960 . S
H3840 C3824 0.931 . S
H3841 C3829 0.929 . S
H3842 C3830 0.960 . S
H3843 C3830 0.962 . S
H3844 C3830 0.960 . S
H3845 C3831 0.961 . S
H3846 C3831 0.961 . S
H3847 C3831 0.961 . S
H3848 C3832 0.931 . S
H3849 C3837 0.930 . S
H3850 C3838 0.956 . S
H3851 C3838 0.961 . S
H3852 C3838 0.961 . S
H3853 C3839 0.958 . S
H3854 C3839 0.961 . S
H3855 C3839 0.960 . S
C3856 C3857 1.391 . S
C3856 C3858 1.394 . S
C3856 H3872 0.931 . S
C3857 C3856 1.391 . S
C3857 C3861 1.376 . S
C3858 C3856 1.394 . S
C3858 C3859 1.369 . S
C3858 C3862 1.531 . S
C3859 C3858 1.369 . S
C3859 C3860 1.410 . S
C3859 C3867 1.503 . S
C3860 C3859 1.410 . S
C3860 C3861 1.392 . S
C3860 C3863 1.511 . S
C3861 C3857 1.376 . S
C3861 C3860 1.392 . S
C3861 H3873 0.929 . S
C3862 C3858 1.531 . S
C3862 H3874 0.960 . S
C3862 H3875 0.962 . S
C3862 H3876 0.960 . S
C3863 C3860 1.511 . S
C3863 H3877 0.961 . S
C3863 H3878 0.961 . S
C3863 H3879 0.961 . S
C3864 C3865 1.370 . S
C3864 C3866 1.363 . S
C3864 H3880 0.931 . S
C3865 C3864 1.370 . S
C3865 C3869 1.408 . S
C3866 C3864 1.363 . S
C3866 C3867 1.370 . S
C3866 C3870 1.524 . S
C3867 C3859 1.503 . S
C3867 C3866 1.370 . S
C3867 C3868 1.403 . S
C3868 C3867 1.403 . S
C3868 C3869 1.404 . S
C3868 C3871 1.539 . S
C3869 C3865 1.408 . S
C3869 C3868 1.404 . S
C3869 H3881 0.930 . S
C3870 C3866 1.524 . S
C3870 H3882 0.956 . S
C3870 H3883 0.961 . S
C3870 H3884 0.961 . S
C3871 C3868 1.539 . S
C3871 H3885 0.958 . S
C3871 H3886 0.961 . S
C3871 H3887 0.960 . S
H3872 C3856 0.931 . S
H3873 C3861 0.929 . S
H3874 C3862 0.960 . S
H3875 C3862 0.962 . S
H3876 C3862 0.960 . S
H3877 C3863 0.961 . S
H3878 C3863 0.961 . S
H3879 C3863 0.961 . S
H3880 C3864 0.931 . S
H3881 C3869 0.930 . S
H3882 C3870 0.956 . S
H3883 C3870 0.961 . S
H3884 C3870 0.961 . S
H3885 C3871 0.958 . S
H3886 C3871 0.961 . S
H3887 C3871 0.960 . S
C825 C337 1.787 . S
C817 C5 1.819 . S
C849 C23 1.006 . S
C857 C382 1.009 . S
C881 C39 1.678 . S
C889 C406 1.643 . S
C921 N432 1.035 . S
C913 C42 0.981 . S
C945 C19 1.106 . S
C953 N462 1.130 . S
C985 C496 1.586 . S
C977 C28 1.616 . S
C1017 C532 1.142 . S
C1009 C53 1.139 . S
C1041 C9 1.754 . S
C1049 C556 1.733 . S
C1073 C65 0.988 . S
C1081 N350 0.994 . S
C1105 C75 1.124 . S
C1113 N372 1.124 . S
C1145 C412 1.083 . S
C1137 C93 1.078 . S
C1177 C436 1.710 . S
C1169 C109 1.746 . S
C1201 C56 1.214 . S
C1209 C466 1.199 . S
C1241 C502 1.048 . S
C1233 C81 1.018 . S
C1273 N522 1.103 . S
C1265 C84 1.084 . S
C1305 C562 1.701 . S
C1297 C103 1.726 . S
C1337 C363 1.634 . S
C1329 C107 1.663 . S
C1369 C592 1.016 . S
C1361 C121 1.027 . S
C1393 C131 1.157 . S
C1401 N612 1.155 . S
C1433 C646 1.596 . S
C1425 C140 1.629 . S
C1457 C61 0.961 . S
C1465 N552 0.963 . S
C1497 N402 1.043 1_565 S
C1489 C70 0.989 . S
C1521 C137 1.044 . S
C1529 C682 1.058 . S
C1561 C706 0.985 . S
C1553 C165 1.030 . S
C1585 C173 1.786 . S
C1593 C346 1.758 1_556 S
C1625 C723 0.969 . S
C1617 C182 0.943 . S
C1649 C207 1.640 . S
C1657 C397 1.624 . S
C1681 C219 1.019 . S
C1689 N680 1.022 . S
C1721 N470 1.100 . S
C1713 C187 1.101 . S
C1753 C607 1.565 . S
C1745 C205 1.595 . S
C1785 C543 1.093 . S
C1777 C221 1.113 . S
C1817 C727 1.701 . S
C1809 C168 1.731 . S
C1849 N342 0.973 . S
C1841 C224 0.953 . S
C1873 C243 1.104 . S
C1881 N710 1.091 . S
C1913 C423 1.014 . S
C1905 C252 1.031 . S
C1937 C277 1.702 . S
C1945 C667 1.679 . S
C1969 C233 1.237 . S
C1977 C457 1.188 1_655 S
C2001 C249 1.041 . S
C2009 C633 1.015 . S
C2041 N530 1.089 . S
C2033 C261 1.101 . S
C2065 C271 1.694 . S
C2073 C753 1.684 . S
C2097 C266 1.622 . S
C2105 C352 1.605 . S
C2129 C280 1.007 . S
C2137 C603 0.976 . S
C2161 C299 1.083 . S
C2169 N500 1.116 . S
C2193 C317 1.602 . S
C2201 C637 1.584 . S
C2233 N740 0.939 . S
C2225 C229 0.945 1_565 S
C2265 N410 1.037 . S
C2257 C247 1.048 . S
C2297 C453 1.027 . S
C2289 C305 1.005 . S
C2329 C367 0.982 . S
C2321 C333 1.029 . S
C2353 C33 1.815 . S
C2361 C757 1.789 . S
C2393 C712 1.013 . S
C2385 C51 1.004 . S
C2425 C796 1.647 . S
C2417 C11 1.680 . S
C2449 C14 0.998 1_655 S
C2457 N672 1.033 . S
C2481 C47 1.122 . S
C2489 N582 1.132 1_556 S
C2521 C616 1.599 . S
C2513 C0 1.591 . S
C2553 C652 1.130 . S
C2545 C25 1.139 . S
C2585 C736 1.742 . S
C2577 C37 1.745 . S
C2617 N770 0.997 . S
C2609 C163 0.996 . S
C2641 C117 1.106 1_556 S
C2649 N702 1.123 . S
C2673 C135 1.084 . S
C2681 C802 1.060 1_655 S
C2713 C676 1.710 . S
C2705 C151 1.745 . S
C2745 C586 1.217 . S
C2737 C154 1.189 . S
C2769 C123 1.014 . S
C2777 C622 1.042 . S
C2809 N642 1.123 . S
C2801 C126 1.111 . S
C2833 C145 1.721 . S
C2841 C742 1.712 . S
C2873 C783 1.649 . S
C2865 C149 1.645 . S
C2905 C472 1.012 . S
C2897 C79 1.029 . S
C2937 N492 1.153 . S
C2929 C89 1.162 1_565 S
C2961 C98 1.632 . S
C2969 C526 1.600 . S
C3001 N732 0.968 . S
C2993 C159 0.964 . S
C3025 C112 1.016 . S
C3033 N792 1.040 . S
C3065 C442 1.057 . S
C3057 C95 1.040 . S
C3097 C376 1.013 . S
C3089 C67 0.989 . S
C3121 C201 1.790 . S
C3129 C766 1.762 . S
C3161 C393 0.954 . S
C3153 C210 0.940 . S
C3193 C787 1.618 1_556 S
C3185 C179 1.653 . S
C3217 C191 1.030 . S
C3225 N440 1.015 . S
C3249 C215 1.112 . S
C3257 N590 1.098 . S
C3281 C177 1.596 . S
C3289 C487 1.581 . S
C3313 C193 1.106 . S
C3321 C663 1.091 . S
C3345 C196 1.731 . S
C3353 C547 1.700 . S
C3385 N762 0.969 . S
C3377 C322 0.956 . S
C3409 C285 1.102 . S
C3417 N380 1.089 . S
C3449 C813 1.012 . S
C3441 C294 1.015 . S
C3473 C319 1.714 . S
C3481 C427 1.676 . S
C3505 C331 1.237 . S
C3513 C577 1.191 . S
C3545 C513 1.029 . S
C3537 C291 1.011 . S
C3569 C303 1.098 . S
C3577 N650 1.090 . S
C3609 C573 1.681 . S
C3601 C313 1.697 . S
C3641 C772 1.608 . S
C3633 C308 1.631 . S
C3673 C483 0.987 . S
C3665 C238 0.994 . S
C3697 C257 1.082 . S
C3705 N620 1.114 . S
C3737 C517 1.543 1_565 S
C3729 C275 1.598 . S
C3769 N560 0.947 . S
C3761 C327 0.942 . S
C3793 C289 1.042 . S
C3801 N800 1.040 . S
C3833 C693 1.027 . S
C3825 C263 1.028 . S
C3865 C697 1.007 . S
C3857 C235 1.004 . S
