# Generated by pormake.
# Topology gar, (4,6)-cn, num edge types: 1
# Building blocks:
#     Node 0, Type 0, BuildingBlock: AZAVOO_clean_sbu_0, # of connection points: 4
#     Node 1, Type 0, BuildingBlock: AZAVOO_clean_sbu_0, # of connection points: 4
#     Node 2, Type 0, BuildingBlock: AZAVOO_clean_sbu_0, # of connection points: 4
#     Node 3, Type 0, BuildingBlock: AZAVOO_clean_sbu_0, # of connection points: 4
#     Node 4, Type 0, BuildingBlock: AZAVOO_clean_sbu_0, # of connection points: 4
#     Node 5, Type 0, BuildingBlock: AZAVOO_clean_sbu_0, # of connection points: 4
#     Node 6, Type 0, BuildingBlock: AZAVOO_clean_sbu_0, # of connection points: 4
#     Node 7, Type 0, BuildingBlock: AZAVOO_clean_sbu_0, # of connection points: 4
#     Node 8, Type 0, BuildingBlock: AZAVOO_clean_sbu_0, # of connection points: 4
#     Node 9, Type 0, BuildingBlock: AZAVOO_clean_sbu_0, # of connection points: 4
#     Node 10, Type 0, BuildingBlock: AZAVOO_clean_sbu_0, # of connection points: 4
#     Node 11, Type 0, BuildingBlock: AZAVOO_clean_sbu_0, # of connection points: 4
#     Node 12, Type 0, BuildingBlock: AZAVOO_clean_sbu_0, # of connection points: 4
#     Node 13, Type 0, BuildingBlock: AZAVOO_clean_sbu_0, # of connection points: 4
#     Node 14, Type 0, BuildingBlock: AZAVOO_clean_sbu_0, # of connection points: 4
#     Node 15, Type 0, BuildingBlock: AZAVOO_clean_sbu_0, # of connection points: 4
#     Node 16, Type 0, BuildingBlock: AZAVOO_clean_sbu_0, # of connection points: 4
#     Node 17, Type 0, BuildingBlock: AZAVOO_clean_sbu_0, # of connection points: 4
#     Node 18, Type 0, BuildingBlock: AZAVOO_clean_sbu_0, # of connection points: 4
#     Node 19, Type 0, BuildingBlock: AZAVOO_clean_sbu_0, # of connection points: 4
#     Node 20, Type 0, BuildingBlock: AZAVOO_clean_sbu_0, # of connection points: 4
#     Node 21, Type 0, BuildingBlock: AZAVOO_clean_sbu_0, # of connection points: 4
#     Node 22, Type 0, BuildingBlock: AZAVOO_clean_sbu_0, # of connection points: 4
#     Node 23, Type 0, BuildingBlock: AZAVOO_clean_sbu_0, # of connection points: 4
#     Node 24, Type 1, BuildingBlock: HISSIN_clean_sbu_0, # of connection points: 6
#     Node 25, Type 1, BuildingBlock: HISSIN_clean_sbu_0, # of connection points: 6
#     Node 26, Type 1, BuildingBlock: HISSIN_clean_sbu_0, # of connection points: 6
#     Node 27, Type 1, BuildingBlock: HISSIN_clean_sbu_0, # of connection points: 6
#     Node 28, Type 1, BuildingBlock: HISSIN_clean_sbu_0, # of connection points: 6
#     Node 29, Type 1, BuildingBlock: HISSIN_clean_sbu_0, # of connection points: 6
#     Node 30, Type 1, BuildingBlock: HISSIN_clean_sbu_0, # of connection points: 6
#     Node 31, Type 1, BuildingBlock: HISSIN_clean_sbu_0, # of connection points: 6
#     Node 32, Type 1, BuildingBlock: HISSIN_clean_sbu_0, # of connection points: 6
#     Node 33, Type 1, BuildingBlock: HISSIN_clean_sbu_0, # of connection points: 6
#     Node 34, Type 1, BuildingBlock: HISSIN_clean_sbu_0, # of connection points: 6
#     Node 35, Type 1, BuildingBlock: HISSIN_clean_sbu_0, # of connection points: 6
#     Node 36, Type 1, BuildingBlock: HISSIN_clean_sbu_0, # of connection points: 6
#     Node 37, Type 1, BuildingBlock: HISSIN_clean_sbu_0, # of connection points: 6
#     Node 38, Type 1, BuildingBlock: HISSIN_clean_sbu_0, # of connection points: 6
#     Node 39, Type 1, BuildingBlock: HISSIN_clean_sbu_0, # of connection points: 6
#     Edge 40, Type (0, 1), BuildingBlock: OJICUG_clean_linker_0, # of connection points: 2
#     Edge 41, Type (0, 1), BuildingBlock: OJICUG_clean_linker_0, # of connection points: 2
#     Edge 42, Type (0, 1), BuildingBlock: OJICUG_clean_linker_0, # of connection points: 2
#     Edge 43, Type (0, 1), BuildingBlock: OJICUG_clean_linker_0, # of connection points: 2
#     Edge 44, Type (0, 1), BuildingBlock: OJICUG_clean_linker_0, # of connection points: 2
#     Edge 45, Type (0, 1), BuildingBlock: OJICUG_clean_linker_0, # of connection points: 2
#     Edge 46, Type (0, 1), BuildingBlock: OJICUG_clean_linker_0, # of connection points: 2
#     Edge 47, Type (0, 1), BuildingBlock: OJICUG_clean_linker_0, # of connection points: 2
#     Edge 48, Type (0, 1), BuildingBlock: OJICUG_clean_linker_0, # of connection points: 2
#     Edge 49, Type (0, 1), BuildingBlock: OJICUG_clean_linker_0, # of connection points: 2
#     Edge 50, Type (0, 1), BuildingBlock: OJICUG_clean_linker_0, # of connection points: 2
#     Edge 51, Type (0, 1), BuildingBlock: OJICUG_clean_linker_0, # of connection points: 2
#     Edge 52, Type (0, 1), BuildingBlock: OJICUG_clean_linker_0, # of connection points: 2
#     Edge 53, Type (0, 1), BuildingBlock: OJICUG_clean_linker_0, # of connection points: 2
#     Edge 54, Type (0, 1), BuildingBlock: OJICUG_clean_linker_0, # of connection points: 2
#     Edge 55, Type (0, 1), BuildingBlock: OJICUG_clean_linker_0, # of connection points: 2
#     Edge 56, Type (0, 1), BuildingBlock: OJICUG_clean_linker_0, # of connection points: 2
#     Edge 57, Type (0, 1), BuildingBlock: OJICUG_clean_linker_0, # of connection points: 2
#     Edge 58, Type (0, 1), BuildingBlock: OJICUG_clean_linker_0, # of connection points: 2
#     Edge 59, Type (0, 1), BuildingBlock: OJICUG_clean_linker_0, # of connection points: 2
#     Edge 60, Type (0, 1), BuildingBlock: OJICUG_clean_linker_0, # of connection points: 2
#     Edge 61, Type (0, 1), BuildingBlock: OJICUG_clean_linker_0, # of connection points: 2
#     Edge 62, Type (0, 1), BuildingBlock: OJICUG_clean_linker_0, # of connection points: 2
#     Edge 63, Type (0, 1), BuildingBlock: OJICUG_clean_linker_0, # of connection points: 2
#     Edge 64, Type (0, 1), BuildingBlock: OJICUG_clean_linker_0, # of connection points: 2
#     Edge 65, Type (0, 1), BuildingBlock: OJICUG_clean_linker_0, # of connection points: 2
#     Edge 66, Type (0, 1), BuildingBlock: OJICUG_clean_linker_0, # of connection points: 2
#     Edge 67, Type (0, 1), BuildingBlock: OJICUG_clean_linker_0, # of connection points: 2
#     Edge 68, Type (0, 1), BuildingBlock: OJICUG_clean_linker_0, # of connection points: 2
#     Edge 69, Type (0, 1), BuildingBlock: OJICUG_clean_linker_0, # of connection points: 2
#     Edge 70, Type (0, 1), BuildingBlock: OJICUG_clean_linker_0, # of connection points: 2
#     Edge 71, Type (0, 1), BuildingBlock: OJICUG_clean_linker_0, # of connection points: 2
#     Edge 72, Type (0, 1), BuildingBlock: OJICUG_clean_linker_0, # of connection points: 2
#     Edge 73, Type (0, 1), BuildingBlock: OJICUG_clean_linker_0, # of connection points: 2
#     Edge 74, Type (0, 1), BuildingBlock: OJICUG_clean_linker_0, # of connection points: 2
#     Edge 75, Type (0, 1), BuildingBlock: OJICUG_clean_linker_0, # of connection points: 2
#     Edge 76, Type (0, 1), BuildingBlock: OJICUG_clean_linker_0, # of connection points: 2
#     Edge 77, Type (0, 1), BuildingBlock: OJICUG_clean_linker_0, # of connection points: 2
#     Edge 78, Type (0, 1), BuildingBlock: OJICUG_clean_linker_0, # of connection points: 2
#     Edge 79, Type (0, 1), BuildingBlock: OJICUG_clean_linker_0, # of connection points: 2
#     Edge 80, Type (0, 1), BuildingBlock: OJICUG_clean_linker_0, # of connection points: 2
#     Edge 81, Type (0, 1), BuildingBlock: OJICUG_clean_linker_0, # of connection points: 2
#     Edge 82, Type (0, 1), BuildingBlock: OJICUG_clean_linker_0, # of connection points: 2
#     Edge 83, Type (0, 1), BuildingBlock: OJICUG_clean_linker_0, # of connection points: 2
#     Edge 84, Type (0, 1), BuildingBlock: OJICUG_clean_linker_0, # of connection points: 2
#     Edge 85, Type (0, 1), BuildingBlock: OJICUG_clean_linker_0, # of connection points: 2
#     Edge 86, Type (0, 1), BuildingBlock: OJICUG_clean_linker_0, # of connection points: 2
#     Edge 87, Type (0, 1), BuildingBlock: OJICUG_clean_linker_0, # of connection points: 2
#     Edge 88, Type (0, 1), BuildingBlock: OJICUG_clean_linker_0, # of connection points: 2
#     Edge 89, Type (0, 1), BuildingBlock: OJICUG_clean_linker_0, # of connection points: 2
#     Edge 90, Type (0, 1), BuildingBlock: OJICUG_clean_linker_0, # of connection points: 2
#     Edge 91, Type (0, 1), BuildingBlock: OJICUG_clean_linker_0, # of connection points: 2
#     Edge 92, Type (0, 1), BuildingBlock: OJICUG_clean_linker_0, # of connection points: 2
#     Edge 93, Type (0, 1), BuildingBlock: OJICUG_clean_linker_0, # of connection points: 2
#     Edge 94, Type (0, 1), BuildingBlock: OJICUG_clean_linker_0, # of connection points: 2
#     Edge 95, Type (0, 1), BuildingBlock: OJICUG_clean_linker_0, # of connection points: 2
#     Edge 96, Type (0, 1), BuildingBlock: OJICUG_clean_linker_0, # of connection points: 2
#     Edge 97, Type (0, 1), BuildingBlock: OJICUG_clean_linker_0, # of connection points: 2
#     Edge 98, Type (0, 1), BuildingBlock: OJICUG_clean_linker_0, # of connection points: 2
#     Edge 99, Type (0, 1), BuildingBlock: OJICUG_clean_linker_0, # of connection points: 2
#     Edge 100, Type (0, 1), BuildingBlock: OJICUG_clean_linker_0, # of connection points: 2
#     Edge 101, Type (0, 1), BuildingBlock: OJICUG_clean_linker_0, # of connection points: 2
#     Edge 102, Type (0, 1), BuildingBlock: OJICUG_clean_linker_0, # of connection points: 2
#     Edge 103, Type (0, 1), BuildingBlock: OJICUG_clean_linker_0, # of connection points: 2
#     Edge 104, Type (0, 1), BuildingBlock: OJICUG_clean_linker_0, # of connection points: 2
#     Edge 105, Type (0, 1), BuildingBlock: OJICUG_clean_linker_0, # of connection points: 2
#     Edge 106, Type (0, 1), BuildingBlock: OJICUG_clean_linker_0, # of connection points: 2
#     Edge 107, Type (0, 1), BuildingBlock: OJICUG_clean_linker_0, # of connection points: 2
#     Edge 108, Type (0, 1), BuildingBlock: OJICUG_clean_linker_0, # of connection points: 2
#     Edge 109, Type (0, 1), BuildingBlock: OJICUG_clean_linker_0, # of connection points: 2
#     Edge 110, Type (0, 1), BuildingBlock: OJICUG_clean_linker_0, # of connection points: 2
#     Edge 111, Type (0, 1), BuildingBlock: OJICUG_clean_linker_0, # of connection points: 2
#     Edge 112, Type (0, 1), BuildingBlock: OJICUG_clean_linker_0, # of connection points: 2
#     Edge 113, Type (0, 1), BuildingBlock: OJICUG_clean_linker_0, # of connection points: 2
#     Edge 114, Type (0, 1), BuildingBlock: OJICUG_clean_linker_0, # of connection points: 2
#     Edge 115, Type (0, 1), BuildingBlock: OJICUG_clean_linker_0, # of connection points: 2
#     Edge 116, Type (0, 1), BuildingBlock: OJICUG_clean_linker_0, # of connection points: 2
#     Edge 117, Type (0, 1), BuildingBlock: OJICUG_clean_linker_0, # of connection points: 2
#     Edge 118, Type (0, 1), BuildingBlock: OJICUG_clean_linker_0, # of connection points: 2
#     Edge 119, Type (0, 1), BuildingBlock: OJICUG_clean_linker_0, # of connection points: 2
#     Edge 120, Type (0, 1), BuildingBlock: OJICUG_clean_linker_0, # of connection points: 2
#     Edge 121, Type (0, 1), BuildingBlock: OJICUG_clean_linker_0, # of connection points: 2
#     Edge 122, Type (0, 1), BuildingBlock: OJICUG_clean_linker_0, # of connection points: 2
#     Edge 123, Type (0, 1), BuildingBlock: OJICUG_clean_linker_0, # of connection points: 2
#     Edge 124, Type (0, 1), BuildingBlock: OJICUG_clean_linker_0, # of connection points: 2
#     Edge 125, Type (0, 1), BuildingBlock: OJICUG_clean_linker_0, # of connection points: 2
#     Edge 126, Type (0, 1), BuildingBlock: OJICUG_clean_linker_0, # of connection points: 2
#     Edge 127, Type (0, 1), BuildingBlock: OJICUG_clean_linker_0, # of connection points: 2
#     Edge 128, Type (0, 1), BuildingBlock: OJICUG_clean_linker_0, # of connection points: 2
#     Edge 129, Type (0, 1), BuildingBlock: OJICUG_clean_linker_0, # of connection points: 2
#     Edge 130, Type (0, 1), BuildingBlock: OJICUG_clean_linker_0, # of connection points: 2
#     Edge 131, Type (0, 1), BuildingBlock: OJICUG_clean_linker_0, # of connection points: 2
#     Edge 132, Type (0, 1), BuildingBlock: OJICUG_clean_linker_0, # of connection points: 2
#     Edge 133, Type (0, 1), BuildingBlock: OJICUG_clean_linker_0, # of connection points: 2
#     Edge 134, Type (0, 1), BuildingBlock: OJICUG_clean_linker_0, # of connection points: 2
#     Edge 135, Type (0, 1), BuildingBlock: OJICUG_clean_linker_0, # of connection points: 2
# Relax obj value: 0.285
# Max RMSD: 0.325
# Mean RMSD: 0.199
data_MOF--net-gar--node1-AZAVOO_clean_sbu_0--node2-HISSIN_clean_sbu_0--edge1-OJICUG_clean_linker_0
_symmetry_space_group_name_H-M    P1
_symmetry_Int_Tables_number       1
_symmetry_cell_setting            triclinic
loop_
_symmetry_equiv_pos_as_xyz
'x, y, z'
_cell_length_a     46.10926
_cell_length_b     44.270177
_cell_length_c     43.021044
_cell_angle_alpha  104.73518
_cell_angle_beta   92.198977
_cell_angle_gamma 102.47298
loop_
_atom_site_label
_atom_site_type_symbol
_atom_site_fract_x
_atom_site_fract_y
_atom_site_fract_z
_atom_type_partial_charge
Mg0 Mg 0.14165 0.32063 0.39997 0.0
O1 O 0.13091 0.36982 0.42213 0.0
O2 O 0.08128 0.36075 0.42279 0.0
Mg3 Mg 0.06192 0.30699 0.40872 0.0
C4 C 0.10702 0.37975 0.42703 0.0
C5 C 0.19884 0.36049 0.3902 0.0
O6 O 0.18145 0.37885 0.38465 0.0
O7 O 0.13873 0.30841 0.44799 0.0
O8 O 0.08951 0.30106 0.45169 0.0
O9 O 0.13172 0.32595 0.3513 0.0
O10 O 0.09856 0.30179 0.37846 0.0
C11 C 0.11583 0.30199 0.46298 0.0
C12 C 0.10428 0.31317 0.35405 0.0
O13 O 0.19075 0.34264 0.40871 0.0
Mg14 Mg 0.0254 0.77135 0.67101 0.0
O15 O 0.06505 0.75157 0.67055 0.0
O16 O 0.03028 0.724 0.63016 0.0
Mg17 Mg 0.9863 0.74146 0.62345 0.0
C18 C 0.05566 0.72801 0.64577 0.0
C19 C 0.06166 0.82536 0.7363 0.0
O20 O 0.06434 0.85322 0.75754 0.0
O21 O 0.04592 0.80268 0.63924 0.0
O22 O 1.01002 0.7794 0.59999 0.0
O23 O 0.99844 0.74691 0.7017 0.0
O24 O 0.98149 0.77601 0.67278 0.0
C25 C 0.03406 0.80033 0.61137 0.0
C26 C 0.97859 0.76191 0.6958 0.0
O27 O 0.03963 0.81526 0.71478 0.0
Mg28 Mg 0.64143 0.84245 0.91168 0.0
O29 O 0.6535 0.89827 0.93674 0.0
O30 O 0.61138 0.87408 0.94644 0.0
Mg31 Mg 0.56729 0.84622 0.95048 0.0
C32 C 0.6292 0.90046 0.94859 0.0
C33 C 0.68627 0.8278 0.87062 0.0
O34 O 0.66016 0.80949 0.85721 0.0
O35 O 0.64452 0.82635 0.95861 0.0
O36 O 0.59799 0.82299 0.97491 0.0
O37 O 0.62086 0.85235 0.86888 0.0
O38 O 0.59502 0.83964 0.908 0.0
C39 C 0.62456 0.81876 0.97719 0.0
C40 C 0.59565 0.8476 0.88118 0.0
O41 O 0.68833 0.84493 0.89957 0.0
Mg42 Mg 0.5115 0.28731 0.1694 0.0
O43 O 0.51265 0.2384 0.13939 0.0
O44 O 0.47587 0.21889 0.09957 0.0
Mg45 Mg 0.44968 0.25831 0.10677 0.0
C46 C 0.49886 0.2164 0.11522 0.0
C47 C 0.55887 0.26703 0.20228 0.0
O48 O 0.53463 0.24461 0.20083 0.0
O49 O 0.52874 0.30831 0.1294 0.0
O50 O 0.48993 0.291 0.09154 0.0
O51 O 0.48455 0.26512 0.20103 0.0
O52 O 0.46527 0.27812 0.1595 0.0
C53 C 0.51674 0.30679 0.10169 0.0
C54 C 0.46131 0.26542 0.1835 0.0
O55 O 0.55749 0.29049 0.19078 0.0
Mg56 Mg 0.13838 0.82382 0.15 0.0
O57 O 0.12627 0.77546 0.11035 0.0
O58 O 0.0812 0.76921 0.08379 0.0
Mg59 Mg 0.06157 0.81268 0.10242 0.0
C60 C 0.10482 0.75944 0.0885 0.0
C61 C 0.18668 0.79932 0.17915 0.0
O62 O 0.16275 0.77753 0.18051 0.0
O63 O 0.15603 0.84808 0.11009 0.0
O64 O 0.10882 0.83643 0.11118 0.0
O65 O 0.11202 0.80128 0.18359 0.0
O66 O 0.09015 0.81984 0.14839 0.0
C67 C 0.13057 0.84401 0.09564 0.0
C68 C 0.08773 0.80407 0.16992 0.0
O69 O 0.18451 0.81983 0.16379 0.0
Mg70 Mg 0.53868 0.8109 0.42232 0.0
O71 O 0.52875 0.857 0.45 0.0
O72 O 0.48356 0.85283 0.46714 0.0
Mg73 Mg 0.46339 0.79846 0.44766 0.0
C74 C 0.50941 0.86946 0.46539 0.0
C75 C 0.59308 0.86427 0.42117 0.0
O76 O 0.5713 0.87524 0.41089 0.0
O77 O 0.54332 0.80046 0.46994 0.0
O78 O 0.49709 0.79113 0.48516 0.0
O79 O 0.52141 0.81526 0.37586 0.0
O80 O 0.49384 0.7919 0.40833 0.0
C81 C 0.52519 0.7937 0.49013 0.0
C82 C 0.49551 0.80105 0.38206 0.0
O83 O 0.58702 0.83743 0.42801 0.0
Mg84 Mg 0.6392 0.33163 0.65304 0.0
O85 O 0.63227 0.27936 0.62288 0.0
O86 O 0.58835 0.26498 0.59265 0.0
Mg87 Mg 0.5677 0.30796 0.60253 0.0
C88 C 0.61254 0.25888 0.60187 0.0
C89 C 0.68798 0.31081 0.6839 0.0
O90 O 0.66363 0.28934 0.68472 0.0
O91 O 0.65267 0.34798 0.60853 0.0
O92 O 0.60765 0.33155 0.58049 0.0
O93 O 0.61521 0.31547 0.69136 0.0
O94 O 0.59274 0.32587 0.65035 0.0
C95 C 0.63562 0.34401 0.58309 0.0
C96 C 0.59073 0.31462 0.67524 0.0
O97 O 0.68642 0.3322 0.66943 0.0
Mg98 Mg 0.0309 0.3072 0.92407 0.0
O99 O 0.02444 0.35369 0.95411 0.0
O100 O 0.97916 0.35313 0.97034 0.0
Mg101 Mg 0.95521 0.30022 0.94842 0.0
C102 C 1.00617 0.3676 0.9699 0.0
C103 C 0.0875 0.35648 0.92288 0.0
O104 O 0.06644 0.36892 0.91344 0.0
O105 O 0.03295 0.2943 0.97026 0.0
O106 O 0.98668 0.28914 0.98559 0.0
O107 O 1.0173 0.31672 0.87971 0.0
O108 O 0.98561 0.29324 0.90902 0.0
C109 C 1.01426 0.28916 0.9904 0.0
C110 C 0.99014 0.30486 0.88436 0.0
O111 O 0.08026 0.32992 0.93018 0.0
Mg112 Mg 0.49255 0.06419 0.31943 0.0
O113 O 0.46057 0.01999 0.32699 0.0
O114 O 0.43446 0.033 0.36898 0.0
Mg115 Mg 0.44761 0.08755 0.38653 0.0
C116 C 0.44112 1.01221 0.34562 0.0
C117 C 0.5001 1.007 0.25391 0.0
O118 O 0.52017 0.99194 0.24095 0.0
O119 O 0.45293 0.07362 0.29304 0.0
O120 O 0.42839 0.08717 0.33649 0.0
O121 O 0.52582 0.06131 0.35466 0.0
O122 O 0.49124 0.08862 0.36824 0.0
C123 C 0.43051 0.08217 0.30614 0.0
C124 C 0.51203 0.07626 0.37681 0.0
O125 O 0.50858 0.03001 0.27914 0.0
Mg126 Mg 0.3058 0.20462 0.51412 0.0
O127 O 0.30886 0.24033 0.56588 0.0
O128 O 0.35613 0.2684 0.57487 0.0
Mg129 Mg 0.38205 0.25332 0.53096 0.0
C130 C 0.33035 0.26112 0.58461 0.0
C131 C 0.24346 0.16085 0.49524 0.0
O132 O 0.26075 0.14497 0.47753 0.0
O133 O 0.30627 0.24085 0.4829 0.0
O134 O 0.35459 0.26572 0.4914 0.0
O135 O 0.31971 0.17075 0.5385 0.0
O136 O 0.3516 0.2054 0.52017 0.0
C137 C 0.32875 0.26006 0.4762 0.0
C138 C 0.34709 0.18361 0.53556 0.0
O139 O 0.25488 0.18933 0.51247 0.0
Mg140 Mg 0.19522 0.02649 0.78504 0.0
O141 O 0.22539 0.08128 0.78427 0.0
O142 O 0.24949 0.09662 0.83208 0.0
Mg143 Mg 0.24432 0.04188 0.82471 0.0
C144 C 0.24256 0.10401 0.8066 0.0
C145 C 0.15516 0.04153 0.72207 0.0
O146 O 0.14725 0.06085 0.74718 0.0
O147 O 0.22351 0.97906 0.76956 0.0
O148 O 0.24791 0.98898 0.81694 0.0
O149 O 0.16463 0.05152 0.82167 0.0
O150 O 0.19707 0.03208 0.84346 0.0
C151 C 0.24014 0.96964 0.789 0.0
C152 C 0.17415 0.04475 0.84701 0.0
O153 O 0.17341 0.02451 0.72822 0.0
Mg154 Mg 0.32516 0.99769 1.01643 0.0
O155 O 0.32358 0.95201 0.97067 0.0
O156 O 0.36227 0.93279 0.98355 0.0
Mg157 Mg 0.38852 0.95962 0.03188 0.0
C158 C 0.34016 0.93149 0.96406 0.0
C159 C 0.26568 0.02701 0.02905 0.0
O160 O 0.28583 0.04611 0.05211 0.0
O161 O 0.30706 0.96303 0.04723 0.0
O162 O 0.34746 0.94456 0.05593 0.0
O163 O 0.36532 0.03188 0.99847 0.0
O164 O 0.37203 1.00041 0.02725 0.0
C165 C 0.32054 0.94602 0.05992 0.0
C166 C 0.38403 0.02117 1.01323 0.0
O167 O 0.27413 1.00474 1.00816 0.0
Mg168 Mg 0.36288 0.40864 0.07077 0.0
O169 O 0.35259 0.37172 0.02031 0.0
O170 O 0.38852 0.34525 1.01562 0.0
Mg171 Mg 0.41757 0.36284 0.0653 0.0
C172 C 0.36563 0.35158 1.00332 0.0
C173 C 0.31858 0.44641 0.06688 0.0
O174 O 0.34411 0.46693 0.07872 0.0
O175 O 0.34644 0.37551 0.10285 0.0
O176 O 0.38295 0.34964 0.1017 0.0
O177 O 0.39058 0.44084 0.04642 0.0
O178 O 0.4099 0.41258 0.07401 0.0
C179 C 0.35915 0.35648 0.11306 0.0
C180 C 0.41374 0.43269 0.05649 0.0
O181 O 0.3172 0.4167 0.06225 0.0
Mg182 Mg 0.84878 0.11485 0.0492 0.0
O183 O 0.85609 0.15413 0.09934 0.0
O184 O 0.89758 0.19126 0.09978 0.0
Mg185 Mg 0.92228 0.17542 0.05517 0.0
C186 C 0.87408 0.18137 0.11257 0.0
C187 C 0.77561 0.09987 0.0327 0.0
O188 O 0.78551 0.10518 1.0059 0.0
O189 O 0.84006 0.15305 0.02468 0.0
O190 O 0.88476 0.1865 0.0272 0.0
O191 O 0.88213 0.0819 0.05846 0.0
O192 O 0.89777 0.12474 0.04421 0.0
C193 C 0.85675 0.17749 0.01856 0.0
C194 C 0.90436 0.1001 0.05001 0.0
O195 O 0.79516 0.10032 0.05514 0.0
Mg196 Mg 0.22235 0.55053 0.22965 0.0
O197 O 0.24956 0.6041 0.24642 0.0
O198 O 0.26123 0.61636 0.30011 0.0
Mg199 Mg 0.2627 0.56873 0.30772 0.0
C200 C 0.25964 0.6245 0.27376 0.0
C201 C 0.18887 0.53534 0.16673 0.0
O202 O 0.17715 0.51304 0.1807 0.0
O203 O 0.26288 0.52855 0.2183 0.0
O204 O 0.28281 0.56663 0.26036 0.0
O205 O 0.18531 0.56757 0.25255 0.0
O206 O 0.21868 0.55111 0.27871 0.0
C207 C 0.28375 0.5403 0.24103 0.0
C208 C 0.1966 0.56491 0.27944 0.0
O209 O 0.21327 0.5548 0.17963 0.0
Mg210 Mg 0.85843 0.90921 0.56917 0.0
O211 O 0.85241 0.87418 0.5181 0.0
O212 O 0.89153 0.85211 0.51422 0.0
Mg213 Mg 0.92185 0.87326 0.56305 0.0
C214 C 0.86741 0.85583 0.50161 0.0
C215 C 0.81022 0.94291 0.5678 0.0
O216 O 0.83458 0.96441 0.58189 0.0
O217 O 0.84585 0.87111 0.59744 0.0
O218 O 0.88975 0.85792 0.60002 0.0
O219 O 0.88358 0.94742 0.54894 0.0
O220 O 0.90565 0.91786 0.57169 0.0
C221 C 0.86385 0.85802 0.60978 0.0
C222 C 0.90797 0.94033 0.55722 0.0
O223 O 0.81084 0.91343 0.5609 0.0
Mg224 Mg 0.9645 0.07889 0.29122 0.0
O225 O 0.93296 0.02062 0.28129 0.0
O226 O 0.9142 0.02656 0.32776 0.0
Mg227 Mg 0.91968 0.07919 0.32894 0.0
C228 C 0.91863 1.00748 0.30188 0.0
C229 C 1.00631 0.08555 0.2243 0.0
O230 O 0.01965 0.1128 0.24516 0.0
O231 O 0.9353 0.12212 0.28232 0.0
O232 O 0.91827 0.13175 0.32961 0.0
O233 O 0.99512 0.05889 0.32182 0.0
O234 O 0.9691 0.08984 0.34981 0.0
C235 C 0.92214 0.14016 0.3036 0.0
C236 C 0.98845 0.07245 0.34995 0.0
O237 O 0.98414 0.06755 0.23419 0.0
Mg238 Mg 0.34874 0.61402 0.54434 0.0
O239 O 0.35484 0.65281 0.59413 0.0
O240 O 0.39469 0.69208 0.59502 0.0
Mg241 Mg 0.41955 0.67695 0.55023 0.0
C242 C 0.37151 0.68075 0.6075 0.0
C243 C 0.27549 0.59558 0.53127 0.0
O244 O 0.28351 0.60324 0.50478 0.0
O245 O 0.33692 0.65161 0.52056 0.0
O246 O 0.38066 0.68665 0.52269 0.0
O247 O 0.38227 0.58309 0.55554 0.0
O248 O 0.39708 0.62539 0.53929 0.0
C249 C 0.35262 0.67662 0.51445 0.0
C250 C 0.40413 0.60147 0.54654 0.0
O251 O 0.29637 0.59588 0.55212 0.0
Mg252 Mg 0.45993 0.57849 0.78967 0.0
O253 O 0.42923 0.52009 0.77974 0.0
O254 O 0.41061 0.52553 0.8263 0.0
Mg255 Mg 0.41548 0.57801 0.82738 0.0
C256 C 0.41519 0.50672 0.80034 0.0
C257 C 0.50253 0.58508 0.72285 0.0
O258 O 0.51654 0.61178 0.74412 0.0
O259 O 0.42776 0.61918 0.77966 0.0
O260 O 0.4125 0.63025 0.82771 0.0
O261 O 0.49187 0.55942 0.81978 0.0
O262 O 0.46513 0.58893 0.84859 0.0
C263 C 0.4146 0.63736 0.80087 0.0
C264 C 0.48524 0.57225 0.84818 0.0
O265 O 0.4798 0.56752 0.73246 0.0
Mg266 Mg 0.70742 0.05455 0.7487 0.0
O267 O 0.74221 0.10142 0.75077 0.0
O268 O 0.75199 0.12642 0.80372 0.0
Mg269 Mg 0.72372 0.0988 0.83393 0.0
C270 C 0.75641 0.12469 0.77425 0.0
C271 C 0.68731 1.0138 0.68499 0.0
O272 O 0.67442 0.99512 0.70231 0.0
O273 O 0.7443 0.035 0.76673 0.0
O274 O 0.75215 0.06238 0.81897 0.0
O275 O 0.67048 0.07914 0.7447 0.0
O276 O 0.69318 0.07724 0.79035 0.0
C277 C 0.75802 0.04178 0.79486 0.0
C278 C 0.67503 0.08874 0.77585 0.0
O279 O 0.71211 0.03318 0.69679 0.0
Mg280 Mg 0.80098 0.71704 1.01194 0.0
O281 O 0.80233 0.74897 0.06464 0.0
O282 O 0.84784 0.78151 0.07749 0.0
Mg283 Mg 0.87574 0.76977 0.03435 0.0
C284 C 0.82192 0.77055 0.08507 0.0
C285 C 0.74112 0.66907 0.99433 0.0
O286 O 0.76057 0.65413 0.97967 0.0
O287 O 0.80122 0.75484 0.98256 0.0
O288 O 0.84911 0.78114 0.99382 0.0
O289 O 0.81577 0.6832 0.03503 0.0
O290 O 0.84693 0.7208 0.01944 0.0
C291 C 0.8239 0.77479 0.97718 0.0
C292 C 0.84289 0.6983 0.03388 0.0
O293 O 0.75 0.69881 1.00906 0.0
Mg294 Mg 0.9823 0.57581 0.83125 0.0
O295 O 0.95417 0.52298 0.82146 0.0
O296 O 0.92238 0.52664 0.85972 0.0
Mg297 Mg 0.92609 0.57758 0.88883 0.0
C298 C 0.93313 0.51015 0.83609 0.0
C299 C 1.00877 0.54546 0.76289 0.0
O300 O 0.03049 0.55026 0.74451 0.0
O301 O 0.94511 0.58757 0.80461 0.0
O302 O 0.91189 0.58707 0.8411 0.0
O303 O 1.01231 0.56639 0.86555 0.0
O304 O 0.9724 0.58536 0.87909 0.0
C305 C 0.91946 0.58981 0.81349 0.0
C306 C 0.99387 0.57335 0.88662 0.0
O307 O 1.00839 0.56739 0.78814 0.0
Mg308 Mg 0.82486 0.50275 0.52385 0.0
O309 O 0.8211 0.45373 0.48127 0.0
O310 O 0.85899 0.43137 0.49083 0.0
Mg311 Mg 0.87423 0.45262 0.5436 0.0
C312 C 0.83677 0.43248 0.4728 0.0
C313 C 0.7641 0.52793 0.53557 0.0
O314 O 0.78219 0.54373 0.56171 0.0
O315 O 0.80634 0.47984 0.56366 0.0
O316 O 0.82385 0.43879 0.54106 0.0
O317 O 0.86913 0.52778 0.50395 0.0
O318 O 0.87088 0.49992 0.53751 0.0
C319 C 0.81027 0.45234 0.56332 0.0
C320 C 0.88546 0.51637 0.52065 0.0
O321 O 0.77451 0.50919 0.5129 0.0
Mg322 Mg 0.6981 0.52713 0.28479 0.0
O323 O 0.72729 0.58258 0.28419 0.0
O324 O 0.75043 0.59873 0.33249 0.0
Mg325 Mg 0.74694 0.54422 0.32576 0.0
C326 C 0.74372 0.60578 0.30672 0.0
C327 C 0.65784 0.54053 0.21991 0.0
O328 O 0.6493 0.55973 0.24464 0.0
O329 O 0.72833 0.48078 0.271 0.0
O330 O 0.75272 0.49191 0.31861 0.0
O331 O 0.66629 0.55102 0.32123 0.0
O332 O 0.69923 0.53282 0.34358 0.0
C333 C 0.7455 0.47223 0.29077 0.0
C334 C 0.67585 0.54478 0.34685 0.0
O335 O 0.67648 0.52417 0.22687 0.0
Eu336 Eu 0.09746 0.098 0.04183 0.0
Eu337 Eu 0.06972 0.02197 0.02131 0.0
C338 C 0.10809 0.05596 0.96847 0.0
C339 C 0.09796 0.18471 0.0688 0.0
C340 C 0.06741 0.17622 0.05861 0.0
C341 C 0.09516 0.24041 0.08698 0.0
C342 C 0.05122 0.1995 0.06069 0.0
C343 C 0.11154 0.21678 0.0845 0.0
C344 C 0.06528 0.23214 0.07313 0.0
C345 C 0.11548 0.16041 0.0592 0.0
O346 O 0.11947 0.02538 0.03336 0.0
O347 O 0.13982 0.07939 0.04515 0.0
C348 C 0.14307 0.04963 0.03913 0.0
O349 O 0.07774 0.08963 0.08887 0.0
O350 O 0.04966 0.97791 0.98335 0.0
O351 O 0.05805 0.97624 0.03282 0.0
O352 O 0.05616 0.03578 0.07389 0.0
C353 C 0.06099 0.06409 0.09563 0.0
O354 O 0.04724 0.09466 0.03336 0.0
O355 O 0.02703 0.04057 0.01851 0.0
O356 O 0.09464 0.02979 0.97662 0.0
O357 O 0.11767 0.14274 0.07888 0.0
O358 O 0.109 0.14327 0.02923 0.0
O359 O 0.10853 0.08449 0.98827 0.0
C360 C 0.06949 0.93558 0.99264 0.0
C361 C 0.09992 0.94392 1.00336 0.0
C362 C 0.07181 0.8797 0.97627 0.0
C363 C 0.1155 0.92042 1.00331 0.0
C364 C 0.05594 0.90352 0.97705 0.0
C365 C 0.10082 0.88773 0.9925 0.0
C366 C 0.05183 0.95972 1.00257 0.0
C367 C 0.02364 0.07036 0.02668 0.0
H368 H 0.05656 0.15181 0.0463 0.0
H369 H 0.10653 0.26532 0.0974 0.0
H370 H 0.02856 0.19181 0.04924 0.0
H371 H 0.13507 0.22377 0.09297 0.0
H372 H 0.11091 0.96841 1.01518 0.0
H373 H 0.06021 0.85486 0.96601 0.0
H374 H 0.13776 0.92833 1.01574 0.0
H375 H 0.03261 0.89664 0.96775 0.0
Eu376 Eu 0.34829 0.81469 0.25631 0.0
Eu377 Eu 0.32768 0.82418 0.33106 0.0
C378 C 0.28796 0.82924 0.27286 0.0
C379 C 0.34404 0.8315 0.17675 0.0
C380 C 0.33382 0.85846 0.19259 0.0
C381 C 0.33022 0.8401 0.12528 0.0
C382 C 0.32151 0.87591 0.17502 0.0
C383 C 0.34197 0.82221 0.14299 0.0
C384 C 0.31986 0.86727 0.1411 0.0
C385 C 0.35451 0.81204 0.19579 0.0
O386 O 0.32864 0.77288 0.31144 0.0
O387 O 0.31747 0.76809 0.25805 0.0
C388 C 0.31748 0.75544 0.28246 0.0
O389 O 0.38283 0.79646 0.27982 0.0
O390 O 0.29222 0.8128 0.36129 0.0
O391 O 0.33562 0.84146 0.38366 0.0
O392 O 0.37397 0.81623 0.33321 0.0
C393 C 0.3898 0.8029 0.31119 0.0
O394 O 0.37634 0.86163 0.28662 0.0
O395 O 0.34578 0.87431 0.32666 0.0
O396 O 0.28751 0.81476 0.29577 0.0
O397 O 0.37557 0.82749 0.21907 0.0
O398 O 0.3332 0.7929 0.20526 0.0
O399 O 0.31362 0.84323 0.26561 0.0
C400 C 0.31159 0.80129 0.40691 0.0
C401 C 0.32493 0.77559 0.39475 0.0
C402 C 0.3018 0.78229 0.45455 0.0
C403 C 0.32662 0.75334 0.41223 0.0
C404 C 0.29976 0.80437 0.43676 0.0
C405 C 0.31537 0.75663 0.44248 0.0
C406 C 0.31 0.82437 0.38797 0.0
C407 C 0.36871 0.88242 0.31068 0.0
H408 H 0.33518 0.86595 0.21869 0.0
H409 H 0.33003 0.83306 0.09926 0.0
H410 H 0.31347 0.89629 0.18814 0.0
H411 H 0.34953 0.80128 0.13035 0.0
H412 H 0.33445 0.77299 0.3719 0.0
H413 H 0.29296 0.78535 0.47782 0.0
H414 H 0.33768 0.7342 0.40258 0.0
H415 H 0.28926 0.82396 0.44642 0.0
Eu416 Eu 0.60766 0.05501 0.53089 0.0
Eu417 Eu 0.55387 0.07246 0.57549 0.0
C418 C 0.61136 0.05672 0.60506 0.0
C419 C 0.67085 0.01787 0.50195 0.0
C420 C 0.66441 0.99682 0.52163 0.0
C421 C 0.71958 1.00614 0.49638 0.0
C422 C 0.68568 0.9809 0.52906 0.0
C423 C 0.69822 0.02186 0.48875 0.0
C424 C 0.71376 0.98621 0.51728 0.0
C425 C 0.65022 0.03775 0.49759 0.0
O426 O 0.59382 0.11421 0.58601 0.0
O427 O 0.60782 0.10661 0.535 0.0
C428 C 0.60652 0.12566 0.56341 0.0
O429 O 0.56758 0.04769 0.49718 0.0
O430 O 0.53862 0.10827 0.6119 0.0
O431 O 0.50866 0.0622 0.59009 0.0
O432 O 0.54492 0.08413 0.52839 0.0
C433 C 0.54853 0.06601 0.50021 0.0
O434 O 0.58409 1.01088 0.54407 0.0
O435 O 0.53782 0.02123 0.54523 0.0
O436 O 0.58207 0.05135 0.60464 0.0
O437 O 0.62218 0.0228 0.49049 0.0
O438 O 0.65394 0.06499 0.51971 0.0
O439 O 0.62546 0.06718 0.58264 0.0
C440 C 0.48841 0.10778 0.59963 0.0
C441 C 0.49001 0.11974 0.57233 0.0
C442 C 0.4425 0.12533 0.61009 0.0
C443 C 0.46786 0.13407 0.56374 0.0
C444 C 0.46466 0.11087 0.61858 0.0
C445 C 0.44365 0.13682 0.58235 0.0
C446 C 0.51115 0.09149 0.60772 0.0
C447 C 0.55496 1.00072 0.53963 0.0
H448 H 0.6434 0.99368 0.53225 0.0
H449 H 0.74105 1.0104 0.48685 0.0
H450 H 0.6808 0.96592 0.54546 0.0
H451 H 0.7035 0.03803 0.47356 0.0
H452 H 0.50823 0.11767 0.5574 0.0
H453 H 0.42442 0.12746 0.62523 0.0
H454 H 0.46933 0.1422 0.54202 0.0
H455 H 0.46313 0.1019 0.6398 0.0
Eu456 Eu 0.30032 0.31094 0.7945 0.0
Eu457 Eu 0.36254 0.29156 0.79228 0.0
C458 C 0.30036 0.23705 0.79511 0.0
C459 C 0.23535 0.34477 0.82752 0.0
C460 C 0.22583 0.32758 0.84996 0.0
C461 C 0.21156 0.38674 0.8546 0.0
C462 C 0.20812 0.3391 0.8735 0.0
C463 C 0.22895 0.37491 0.83065 0.0
C464 C 0.19982 0.36828 0.87541 0.0
C465 C 0.25118 0.33122 0.80036 0.0
O466 O 0.35053 0.28842 0.73995 0.0
O467 O 0.30347 0.29744 0.74016 0.0
C468 C 0.3263 0.29077 0.72465 0.0
O469 O 0.33425 0.35927 0.799 0.0
O470 O 0.38331 0.25206 0.77248 0.0
O471 O 0.40958 0.29595 0.80562 0.0
O472 O 0.37771 0.34386 0.78744 0.0
C473 C 0.3625 0.36667 0.79297 0.0
O474 O 0.31361 0.31463 0.84762 0.0
O475 O 0.3628 0.31287 0.84565 0.0
O476 O 0.32945 0.24837 0.80304 0.0
O477 O 0.27662 0.34911 0.79717 0.0
O478 O 0.25207 0.30118 0.79541 0.0
O479 O 0.28492 0.2558 0.78605 0.0
C480 C 0.43296 0.26871 0.7635 0.0
C481 C 0.43734 0.29138 0.74558 0.0
C482 C 0.47361 0.24752 0.73985 0.0
C483 C 0.46048 0.29291 0.72577 0.0
C484 C 0.45058 0.24622 0.75991 0.0
C485 C 0.4794 0.27156 0.72337 0.0
C486 C 0.40987 0.26831 0.78569 0.0
C487 C 0.34003 0.31693 0.86226 0.0
H488 H 0.23092 0.30453 0.84853 0.0
H489 H 0.20618 0.40961 0.8558 0.0
H490 H 0.19932 0.32386 0.88867 0.0
H491 H 0.23661 0.38883 0.81391 0.0
H492 H 0.42343 0.30852 0.74769 0.0
H493 H 0.48744 0.23035 0.73798 0.0
H494 H 0.46444 0.31191 0.71371 0.0
H495 H 0.44691 0.22812 0.77313 0.0
Eu496 Eu 0.06751 0.08709 0.55251 0.0
Eu497 Eu 0.08417 0.02135 0.51415 0.0
C498 C 0.12877 0.08856 0.51665 0.0
C499 C 0.07406 0.17484 0.57783 0.0
C500 C 0.1038 0.18047 0.57043 0.0
C501 C 0.06918 0.2233 0.56361 0.0
C502 C 0.11582 0.20653 0.55859 0.0
C503 C 0.05717 0.19708 0.57549 0.0
C504 C 0.09826 0.22752 0.55373 0.0
C505 C 0.05961 0.14345 0.58256 0.0
O506 O 0.10927 0.03294 0.5652 0.0
O507 O 0.0817 0.0657 0.59328 0.0
C508 C 0.10161 0.048 0.59329 0.0
O509 O 0.02428 0.05021 0.54642 0.0
O510 O 0.11421 0.98857 0.50547 0.0
O511 O 0.06956 0.97344 0.48098 0.0
O512 O 0.04551 1.00774 0.54238 0.0
C513 C 0.02225 0.02024 0.54619 0.0
O514 O 0.05417 0.08487 0.49929 0.0
O515 O 0.05721 0.03356 0.4737 0.0
O516 O 0.11905 0.05838 0.50023 0.0
O517 O 0.04186 0.12402 0.55798 0.0
O518 O 0.07701 0.1288 0.59462 0.0
O519 O 0.11452 0.10219 0.54001 0.0
C520 C 0.0866 0.93694 0.50421 0.0
C521 C 0.06295 0.93424 0.52373 0.0
C522 C 0.10009 0.89132 0.51786 0.0
C523 C 0.05819 0.91088 0.54051 0.0
C524 C 0.10517 0.91525 0.50129 0.0
C525 C 0.07673 0.88939 0.53785 0.0
C526 C 0.09293 0.96424 0.48974 0.0
C527 C 0.04923 0.06053 0.47278 0.0
H528 H 0.11732 0.16376 0.57223 0.0
H529 H 0.05491 0.23884 0.56006 0.0
H530 H 0.13844 0.20932 0.55184 0.0
H531 H 0.03414 0.19313 0.58097 0.0
H532 H 0.04819 0.9504 0.52632 0.0
H533 H 0.1145 0.87468 0.51545 0.0
H534 H 0.0399 0.90954 0.55559 0.0
H535 H 0.1237 0.91707 0.4866 0.0
Eu536 Eu 0.35613 0.82154 0.77723 0.0
Eu537 Eu 0.29417 0.77668 0.77851 0.0
C538 C 0.32698 0.83013 0.84292 0.0
C539 C 0.43603 0.86937 0.79519 0.0
C540 C 0.43802 0.87042 0.82808 0.0
C541 C 0.48921 0.87405 0.79504 0.0
C542 C 0.46539 0.87253 0.84415 0.0
C543 C 0.46184 0.87239 0.77907 0.0
C544 C 0.49095 0.87287 0.82737 0.0
C545 C 0.407 0.86098 0.77661 0.0
O546 O 0.27973 0.82032 0.76454 0.0
O547 O 0.32424 0.8565 0.77923 0.0
C548 C 0.29502 0.85093 0.77183 0.0
O549 O 0.34123 0.79724 0.7245 0.0
O550 O 0.25412 0.75636 0.79944 0.0
O551 O 0.25839 0.73972 0.74834 0.0
O552 O 0.3147 0.75256 0.73486 0.0
C553 C 0.33041 0.76615 0.71541 0.0
O554 O 0.37036 0.77424 0.78116 0.0
O555 O 0.32671 0.74767 0.79538 0.0
O556 O 0.30119 0.81581 0.82597 0.0
O557 O 0.39923 0.8317 0.75817 0.0
O558 O 0.38524 0.86953 0.7923 0.0
O559 O 0.35172 0.82588 0.83021 0.0
C560 C 0.21128 0.7469 0.76226 0.0
C561 C 0.20746 0.75819 0.73493 0.0
C562 C 0.16115 0.75174 0.77448 0.0
C563 C 0.18117 0.76668 0.72785 0.0
C564 C 0.18763 0.74305 0.78157 0.0
C565 C 0.15809 0.76446 0.74802 0.0
C566 C 0.24031 0.74057 0.7709 0.0
C567 C 0.35531 0.74863 0.78965 0.0
H568 H 0.41827 0.86804 0.84096 0.0
H569 H 0.50851 0.8741 0.78146 0.0
H570 H 0.46627 0.87228 0.86928 0.0
H571 H 0.46052 0.87154 0.75364 0.0
H572 H 0.22509 0.76137 0.7193 0.0
H573 H 0.14367 0.74994 0.79049 0.0
H574 H 0.17923 0.77596 0.70704 0.0
H575 H 0.18999 0.73426 0.80262 0.0
Eu576 Eu 0.57863 0.05214 0.06136 0.0
Eu577 Eu 0.5811 0.08759 1.00292 0.0
C578 C 0.56574 0.12156 0.07237 0.0
C579 C 0.54351 1.00977 0.11795 0.0
C580 C 0.51968 0.02418 0.11461 0.0
C581 C 0.5134 0.97653 0.14706 0.0
C582 C 0.49301 1.01516 0.12766 0.0
C583 C 0.53984 0.98508 0.13323 0.0
C584 C 0.49002 0.99238 0.14553 0.0
C585 C 0.5715 0.02005 0.10432 0.0
O586 O 0.63026 0.08968 1.01367 0.0
O587 O 0.62936 0.07085 0.05911 0.0
C588 C 0.6443 0.08264 0.03734 0.0
O589 O 0.56966 1.01551 1.01365 0.0
O590 O 0.59216 0.13214 0.98873 0.0
O591 O 0.56613 0.08859 0.95472 0.0
O592 O 0.598 0.04292 0.98333 0.0
C593 C 0.58722 1.01601 0.99066 0.0
O594 O 0.52952 0.04716 0.04733 0.0
O595 O 0.53111 0.06616 1.00244 0.0
O596 O 0.58272 0.12496 0.04936 0.0
O597 O 0.57144 1.00643 0.07365 0.0
O598 O 0.58265 0.05108 0.11176 0.0
O599 O 0.55954 0.09477 0.08078 0.0
C600 C 0.59451 0.12787 0.9336 0.0
C601 C 0.62148 0.11926 0.92691 0.0
C602 C 0.59504 0.14912 0.88696 0.0
C603 C 0.635 0.12519 0.90006 0.0
C604 C 0.58167 0.14351 0.91415 0.0
C605 C 0.62154 0.13954 0.87955 0.0
C606 C 0.57867 0.11906 0.95968 0.0
C607 C 0.51586 0.05322 0.02298 0.0
H608 H 0.52207 0.04341 0.10302 0.0
H609 H 0.51239 0.95922 0.16104 0.0
H610 H 0.47556 0.02771 0.12579 0.0
H611 H 0.55782 0.97334 0.13561 0.0
H612 H 0.63144 0.10698 0.94173 0.0
H613 H 0.58424 0.15983 0.87118 0.0
H614 H 0.65507 0.11682 0.89424 0.0
H615 H 0.56079 0.1503 0.91934 0.0
Eu616 Eu 0.3526 0.34506 0.31262 0.0
Eu617 Eu 0.31717 0.26919 0.27403 0.0
C618 C 0.33329 0.32475 0.23482 0.0
C619 C 0.36217 0.43131 0.34212 0.0
C620 C 0.33096 0.42552 0.33728 0.0
C621 C 0.36641 0.47951 0.32416 0.0
C622 C 0.31769 0.4451 0.32372 0.0
C623 C 0.37978 0.45928 0.33701 0.0
C624 C 0.33535 0.47147 0.31547 0.0
C625 C 0.37552 0.40453 0.34386 0.0
O626 O 0.36518 0.2737 0.28922 0.0
O627 O 0.38588 0.32327 0.28513 0.0
C628 C 0.3856 0.29285 0.27856 0.0
O629 O 0.35443 0.315 0.34823 0.0
O630 O 0.31854 0.22932 0.23257 0.0
O631 O 0.28698 0.22211 0.26735 0.0
O632 O 0.31408 0.27283 0.32733 0.0
C633 C 0.33311 0.29127 0.35191 0.0
O634 O 0.30419 0.34304 0.3145 0.0
O635 O 0.27893 0.29335 0.28171 0.0
O636 O 0.32729 0.2943 0.23468 0.0
O637 O 0.36029 0.38375 0.35735 0.0
O638 O 0.3845 0.39055 0.31672 0.0
O639 O 0.33826 0.34804 0.26208 0.0
C640 C 0.31311 0.18179 0.24787 0.0
C641 C 0.32413 0.18235 0.2789 0.0
C642 C 0.33455 0.13625 0.22518 0.0
C643 C 0.33996 0.16005 0.28307 0.0
C644 C 0.31827 0.15852 0.221 0.0
C645 C 0.34549 0.13696 0.25632 0.0
C646 C 0.30049 0.20838 0.24351 0.0
C647 C 0.27965 0.32198 0.30082 0.0
H648 H 0.31676 0.40422 0.34122 0.0
H649 H 0.38059 0.5004 0.31936 0.0
H650 H 0.29378 0.43787 0.31749 0.0
H651 H 0.4039 0.46418 0.34067 0.0
H652 H 0.32142 0.20073 0.29992 0.0
H653 H 0.3388 0.11877 0.20424 0.0
H654 H 0.34882 0.16157 0.30726 0.0
H655 H 0.31055 0.15825 0.1968 0.0
Eu656 Eu 0.56853 0.58375 0.05018 0.0
Eu657 Eu 0.58739 0.52141 1.00859 0.0
C658 C 0.62954 0.58913 1.01393 0.0
C659 C 0.57334 0.66906 0.06538 0.0
C660 C 0.59285 0.66541 0.04131 0.0
C661 C 0.58091 0.72534 0.0668 0.0
C662 C 0.60739 0.69147 0.03111 0.0
C663 C 0.56745 0.69921 0.0783 0.0
C664 C 0.60117 0.72179 0.04293 0.0
C665 C 0.56026 0.64074 0.07634 0.0
O666 O 0.60962 0.53053 0.06159 0.0
O667 O 0.58462 0.56512 0.09157 0.0
C668 C 0.60333 0.54608 0.09042 0.0
O669 O 0.53176 0.54522 0.05927 0.0
O670 O 0.6202 0.49193 0.99953 0.0
O671 O 0.57565 0.47339 0.97518 0.0
O672 O 0.54133 0.50265 0.02118 0.0
C673 C 0.52482 0.51492 0.04272 0.0
O674 O 0.54782 0.57781 0.99783 0.0
O675 O 0.56468 0.53594 0.96707 0.0
O676 O 0.61915 0.5605 0.99438 0.0
O677 O 0.54059 0.61858 0.05542 0.0
O678 O 0.57989 0.62865 0.08854 0.0
O679 O 0.61672 0.59887 0.0401 0.0
C680 C 0.595 0.43992 0.99969 0.0
C681 C 0.58914 0.44693 0.03218 0.0
C682 C 0.58276 0.38306 0.99713 0.0
C683 C 0.58031 0.42253 0.04705 0.0
C684 C 0.592 0.40782 0.9822 0.0
C685 C 0.57669 0.39034 0.02968 0.0
C686 C 0.60007 0.46628 0.98411 0.0
C687 C 0.54937 0.55849 0.96901 0.0
H688 H 0.59689 0.64219 0.03019 0.0
H689 H 0.57478 0.74795 0.07614 0.0
H690 H 0.6233 0.68737 1.01359 0.0
H691 H 0.5522 0.70243 0.09675 0.0
H692 H 0.59016 0.4713 0.04584 0.0
H693 H 0.57994 0.35832 0.98323 0.0
H694 H 0.57501 0.42884 0.07186 0.0
H695 H 0.59586 0.40192 0.95692 0.0
Eu696 Eu 0.86695 0.33005 0.28661 0.0
Eu697 Eu 0.80725 0.28346 0.29004 0.0
C698 C 0.83255 0.34027 0.34996 0.0
C699 C 0.95064 0.36633 0.30021 0.0
C700 C 0.96626 0.37372 0.33089 0.0
C701 C 0.99157 0.3457 0.27598 0.0
C702 C 0.99345 0.36566 0.3342 0.0
C703 C 0.96398 0.3534 0.27262 0.0
C704 C 1.00573 0.35076 0.30686 0.0
C705 C 0.91948 0.36903 0.29842 0.0
O706 O 0.7905 0.32816 0.28041 0.0
O707 O 0.83468 0.36165 0.27648 0.0
C708 C 0.80515 0.35677 0.27728 0.0
O709 O 0.86043 0.30116 0.2347 0.0
O710 O 0.76759 0.27095 0.31454 0.0
O711 O 0.77311 0.2399 0.26864 0.0
O712 O 0.82163 0.2617 0.24068 0.0
C713 C 0.84281 0.27239 0.2238 0.0
O714 O 0.88173 0.28244 0.29105 0.0
O715 O 0.83855 0.25207 0.30133 0.0
O716 O 0.82377 0.30899 0.34245 0.0
O717 O 0.90406 0.36009 0.27003 0.0
O718 O 0.9043 0.35912 0.32043 0.0
O719 O 0.84413 0.35358 0.32826 0.0
C720 C 0.72575 0.24809 0.27732 0.0
C721 C 0.72398 0.26384 0.25311 0.0
C722 C 0.67225 0.23813 0.27828 0.0
C723 C 0.69652 0.26664 0.24144 0.0
C724 C 0.69987 0.23514 0.28984 0.0
C725 C 0.67045 0.25411 0.25413 0.0
C726 C 0.75489 0.24679 0.29026 0.0
C727 C 0.86721 0.25503 0.29687 0.0
H728 H 0.95657 0.38397 0.35251 0.0
H729 H 1.00102 0.33423 0.25473 0.0
H730 H 1.00424 0.36963 0.35822 0.0
H731 H 0.95254 0.34779 0.24868 0.0
H732 H 0.7439 0.27414 0.24333 0.0
H733 H 0.65244 0.22851 0.28862 0.0
H734 H 0.69569 0.27852 0.22242 0.0
H735 H 0.7011 0.22318 0.30875 0.0
Eu736 Eu 0.08149 0.5389 0.56641 0.0
Eu737 Eu 0.08019 0.57349 0.50826 0.0
C738 C 0.08097 0.61173 0.58147 0.0
C739 C 0.04424 0.49607 0.62422 0.0
C740 C 0.02659 0.51811 0.63443 0.0
C741 C 1.01161 0.4579 0.64679 0.0
C742 C 1.0027 0.51085 0.65224 0.0
C743 C 0.03579 0.46538 0.62915 0.0
C744 C 0.99579 0.48122 0.66022 0.0
C745 C 0.0708 0.50464 0.60751 0.0
O746 O 0.12957 0.57789 0.52193 0.0
O747 O 0.13191 0.55374 0.56322 0.0
C748 C 0.14521 0.56894 0.54292 0.0
O749 O 0.09678 0.50651 0.52456 0.0
O750 O 0.09654 0.61998 0.49894 0.0
O751 O 0.06793 0.58099 0.46195 0.0
O752 O 0.08565 0.52483 0.48106 0.0
C753 C 0.09492 0.50404 0.49352 0.0
O754 O 0.03207 0.53777 0.55318 0.0
O755 O 0.03115 0.5504 0.50477 0.0
O756 O 0.06605 0.60267 0.55295 0.0
O757 O 0.06722 0.49234 0.57633 0.0
O758 O 0.08529 0.53482 0.61583 0.0
O759 O 0.09255 0.59155 0.5924 0.0
C760 C 0.10861 0.61254 0.44608 0.0
C761 C 0.12856 0.59243 0.4427 0.0
C762 C 0.12914 0.63347 0.4029 0.0
C763 C 0.14789 0.59186 0.41878 0.0
C764 C 0.10952 0.63384 0.42689 0.0
C765 C 0.14769 0.61154 0.39783 0.0
C766 C 0.08612 0.60937 0.46857 0.0
C767 C 1.01706 0.5404 0.52751 0.0
H768 H 0.03203 0.54157 0.62988 0.0
H769 H 1.00659 0.43463 0.65173 0.0
H770 H 0.99146 0.52976 0.66197 0.0
H771 H 0.04852 0.44759 0.62033 0.0
H772 H 0.1281 0.57591 0.45754 0.0
H773 H 0.12889 0.64934 0.38749 0.0
H774 H 0.16145 0.57434 0.41542 0.0
H775 H 0.09442 0.6498 0.42967 0.0
Eu776 Eu 0.80213 0.81392 0.29475 0.0
Eu777 Eu 0.86153 0.79114 0.28944 0.0
C778 C 0.80079 0.73938 0.29526 0.0
C779 C 0.7383 0.84974 0.32739 0.0
C780 C 0.72861 0.83379 0.35072 0.0
C781 C 0.71688 0.89388 0.35405 0.0
C782 C 0.71202 0.84706 0.37458 0.0
C783 C 0.7332 0.88033 0.32983 0.0
C784 C 0.70498 0.87674 0.37585 0.0
C785 C 0.75326 0.83461 0.3002 0.0
O786 O 0.84082 0.77617 0.23732 0.0
O787 O 0.81018 0.81071 0.24252 0.0
C788 C 0.82401 0.79104 0.2243 0.0
O789 O 0.83834 0.86147 0.30683 0.0
O790 O 0.88207 0.75093 0.27177 0.0
O791 O 0.90933 0.797 0.29948 0.0
O792 O 0.8754 0.84249 0.28099 0.0
C793 C 0.86383 0.86734 0.29388 0.0
O794 O 0.81493 0.81693 0.34727 0.0
O795 O 0.86318 0.81218 0.34338 0.0
O796 O 0.82939 0.75113 0.30534 0.0
O797 O 0.77852 0.85179 0.2956 0.0
O798 O 0.75398 0.80467 0.29667 0.0
O799 O 0.78661 0.7579 0.28371 0.0
C800 C 0.93076 0.76533 0.25864 0.0
C801 C 0.93613 0.78704 0.23972 0.0
C802 C 0.96883 0.73984 0.23415 0.0
C803 C 0.95859 0.78602 0.21909 0.0
C804 C 0.94649 0.74112 0.2551 0.0
C805 C 0.9758 0.763 0.21678 0.0
C806 C 0.90898 0.76799 0.28225 0.0
C807 C 0.84124 0.81776 0.36092 0.0
H808 H 0.73272 0.81041 0.34982 0.0
H809 H 0.71234 0.91702 0.35468 0.0
H810 H 0.70299 0.83278 0.39052 0.0
H811 H 0.74102 0.89331 0.31237 0.0
H812 H 0.92371 0.80552 0.2418 0.0
H813 H 0.98132 0.72147 0.23243 0.0
H814 H 0.96352 0.80449 0.20644 0.0
H815 H 0.94203 0.72378 0.26915 0.0
Eu816 Eu 0.8568 0.30616 0.74087 0.0
Eu817 Eu 0.83334 0.31679 0.82088 0.0
C818 C 0.79429 0.31917 0.76248 0.0
C819 C 0.85342 0.33358 0.66833 0.0
C820 C 0.84718 0.36072 0.68967 0.0
C821 C 0.84387 0.35476 0.62342 0.0
C822 C 0.83888 0.38452 0.67795 0.0
C823 C 0.85211 0.33084 0.63518 0.0
C824 C 0.83684 0.38139 0.64476 0.0
C825 C 0.85956 0.30785 0.68126 0.0
O826 O 0.82537 0.26391 0.79988 0.0
O827 O 0.83303 0.2568 0.74519 0.0
C828 C 0.82475 0.24588 0.77021 0.0
O829 O 0.89794 0.29403 0.75932 0.0
O830 O 0.80649 0.31756 0.86167 0.0
O831 O 0.85478 0.32517 0.86928 0.0
O832 O 0.873 0.30437 0.80144 0.0
C833 C 0.8966 0.297 0.78994 0.0
O834 O 0.87975 0.35622 0.7713 0.0
O835 O 0.85199 0.36631 0.81552 0.0
O836 O 0.79227 0.30989 0.78901 0.0
O837 O 0.88314 0.31626 0.70209 0.0
O838 O 0.8364 0.29152 0.69122 0.0
O839 O 0.82034 0.33232 0.75473 0.0
C840 C 0.82585 0.29669 0.90117 0.0
C841 C 0.83063 0.26583 0.88846 0.0
C842 C 0.81731 0.2845 0.95239 0.0
C843 C 0.82935 0.24465 0.90786 0.0
C844 C 0.81855 0.30561 0.93297 0.0
C845 C 0.82342 0.25411 0.94028 0.0
C846 C 0.82938 0.32006 0.88186 0.0
C847 C 0.87268 0.37561 0.79722 0.0
H848 H 0.84825 0.36324 0.7154 0.0
H849 H 0.84263 0.35236 0.59768 0.0
H850 H 0.83357 0.40498 0.69463 0.0
H851 H 0.85698 0.31013 0.61848 0.0
H852 H 0.83623 0.2585 0.86388 0.0
H853 H 0.81244 0.29228 0.97721 0.0
H854 H 0.8345 0.22156 0.89798 0.0
H855 H 0.81458 0.32924 0.94307 0.0
Eu856 Eu 0.86095 0.84951 0.80982 0.0
Eu857 Eu 0.82143 0.77671 0.77284 0.0
C858 C 0.84087 0.83041 0.73318 0.0
C859 C 0.88381 0.93752 0.83144 0.0
C860 C 0.87923 0.93957 0.7996 0.0
C861 C 0.85916 0.981 0.85013 0.0
C862 C 0.86351 0.96112 0.79298 0.0
C863 C 0.87516 0.95962 0.85679 0.0
C864 C 0.85186 0.98073 0.81799 0.0
C865 C 0.89017 0.90818 0.83726 0.0
O866 O 0.86771 0.77311 0.78692 0.0
O867 O 0.89111 0.82204 0.78237 0.0
C868 C 0.89084 0.79203 0.77981 0.0
O869 O 0.8603 0.82051 0.84657 0.0
O870 O 0.81644 0.73523 0.73125 0.0
O871 O 0.78649 0.73334 0.76857 0.0
O872 O 0.81646 0.78333 0.8264 0.0
C873 C 0.83653 0.79978 0.85083 0.0
O874 O 0.81326 0.849 0.81767 0.0
O875 O 0.78835 0.80726 0.77534 0.0
O876 O 0.83505 0.79998 0.73291 0.0
O877 O 0.86931 0.89234 0.85051 0.0
O878 O 0.8996 0.88921 0.81343 0.0
O879 O 0.84591 0.85357 0.76037 0.0
C880 C 0.80713 0.68867 0.74826 0.0
C881 C 0.8174 0.68844 0.77931 0.0
C882 C 0.82774 0.64262 0.72529 0.0
C883 C 0.8327 0.6657 0.78331 0.0
C884 C 0.81196 0.6653 0.72126 0.0
C885 C 0.83838 0.64304 0.75638 0.0
C886 C 0.79728 0.71683 0.74394 0.0
C887 C 0.78854 0.83185 0.80004 0.0
H888 H 0.88563 0.92285 0.77946 0.0
H889 H 0.85047 0.99578 0.86997 0.0
H890 H 0.85888 0.961 0.76806 0.0
H891 H 0.8783 0.95831 0.88147 0.0
H892 H 0.81497 0.70681 0.80049 0.0
H893 H 0.83221 0.62535 0.7043 0.0
H894 H 0.8413 0.66668 0.80744 0.0
H895 H 0.80484 0.66563 0.69707 0.0
Eu896 Eu 0.59679 0.59778 0.5417 0.0
Eu897 Eu 0.5681 0.52241 0.52034 0.0
C898 C 0.60829 0.55583 0.46811 0.0
C899 C 0.60317 0.68607 0.5734 0.0
C900 C 0.57197 0.68004 0.56958 0.0
C901 C 0.60591 0.7431 0.58579 0.0
C902 C 0.558 0.70511 0.5706 0.0
C903 C 0.61999 0.71775 0.58362 0.0
C904 C 0.5751 0.7368 0.57611 0.0
C905 C 0.6177 0.65974 0.56092 0.0
O906 O 0.61742 0.52364 0.53107 0.0
O907 O 0.63783 0.57776 0.54722 0.0
C908 C 0.64095 0.54794 0.53959 0.0
O909 O 0.57461 0.59002 0.58774 0.0
O910 O 0.54646 0.47825 0.48348 0.0
O911 O 0.55643 0.4773 0.53299 0.0
O912 O 0.55437 0.53599 0.57298 0.0
C913 C 0.55822 0.56432 0.5945 0.0
O914 O 0.54721 0.59637 0.53198 0.0
O915 O 0.52634 0.54231 0.5171 0.0
O916 O 0.59321 0.52975 0.47541 0.0
O917 O 0.61967 0.6408 0.57932 0.0
O918 O 0.60864 0.64387 0.53091 0.0
O919 O 0.60982 0.58434 0.48865 0.0
C920 C 0.56637 0.43609 0.49325 0.0
C921 C 0.55834 0.40789 0.50304 0.0
C922 C 0.61615 0.42703 0.48574 0.0
C923 C 0.57937 0.39003 0.50532 0.0
C924 C 0.59491 0.44474 0.48306 0.0
C925 C 0.60877 0.4003 0.49809 0.0
C926 C 0.5491 0.46044 0.50302 0.0
C927 C 0.52341 0.57227 0.52503 0.0
H928 H 0.55857 0.65568 0.56249 0.0
H929 H 0.61967 0.76732 0.59189 0.0
H930 H 0.53426 0.69883 0.56337 0.0
H931 H 0.64411 0.72284 0.58743 0.0
H932 H 0.53684 0.40143 0.51197 0.0
H933 H 0.63877 0.43544 0.48043 0.0
H934 H 0.57346 0.36997 0.51582 0.0
H935 H 0.60168 0.46682 0.47598 0.0
Eu936 Eu 0.10992 0.55609 0.01778 0.0
Eu937 Eu 0.0434 0.57061 0.06705 0.0
C938 C 0.09794 0.5678 0.0971 0.0
C939 C 0.18217 0.527 1.00674 0.0
C940 C 0.17401 0.50222 0.02179 0.0
C941 C 0.23043 0.51477 0.99974 0.0
C942 C 0.19473 0.48496 0.02747 0.0
C943 C 0.20991 0.53228 0.99455 0.0
C944 C 0.22355 0.49213 0.01767 0.0
C945 C 0.16302 0.54894 1.0053 0.0
O946 O 0.06975 0.61705 0.05921 0.0
O947 O 0.10974 0.60866 0.02696 0.0
C948 C 0.09285 0.62658 0.04353 0.0
O949 O 0.07875 0.55099 0.97428 0.0
O950 O 1.01287 0.58884 0.10024 0.0
O951 O 0.99658 0.56204 0.05027 0.0
O952 O 0.05828 0.56088 0.01846 0.0
C953 C 0.05454 0.5551 0.98738 0.0
O954 O 0.08199 0.50886 0.02243 0.0
O955 O 0.04086 0.51735 0.05271 0.0
O956 O 0.07391 0.5725 0.11038 0.0
O957 O 0.13976 0.53771 0.98384 0.0
O958 O 0.15725 0.56589 0.03309 0.0
O959 O 0.09483 0.56548 0.06647 0.0
C960 C 0.97378 0.60381 0.07564 0.0
C961 C 0.97262 0.61517 0.04809 0.0
C962 C 0.9405 0.63673 0.09971 0.0
C963 C 0.95479 0.63644 0.04599 0.0
C964 C 0.9582 0.61532 0.1017 0.0
C965 C 0.93795 0.64677 0.07147 0.0
C966 C 0.99056 0.57964 0.07759 0.0
C967 C 0.05693 0.49898 0.03521 0.0
H968 H 0.15217 0.49711 0.03025 0.0
H969 H 0.25226 0.52009 0.99118 0.0
H970 H 0.18882 0.4675 0.04118 0.0
H971 H 0.21618 0.55088 0.9822 0.0
H972 H 0.98473 0.60689 0.0278 0.0
H973 H 0.92809 0.64467 0.11988 0.0
H974 H 0.95303 0.64347 0.02377 0.0
H975 H 0.95918 0.60712 0.12332 0.0
C976 C 0.0565 0.2923 0.02925 0.0
C977 C 0.02569 0.28252 0.01975 0.0
H978 H 0.09338 0.28454 0.05449 0.0
C979 C 1.00726 0.26354 0.03612 0.0
H980 H 0.07116 0.30801 0.01788 0.0
C981 C 0.02008 0.25067 0.05822 0.0
C982 C 0.05141 0.25614 0.06351 0.0
H983 H 0.98332 0.25639 0.02987 0.0
H984 H 1.00559 0.23384 0.06853 0.0
C985 C 0.06927 0.27925 0.0509 0.0
C986 C 0.23811 0.83033 0.20199 0.0
C987 C 0.21351 0.8051 0.20147 0.0
H988 H 0.28029 0.85864 0.22597 0.0
C989 C 0.2134 0.7881 0.22498 0.0
H990 H 0.2388 0.84402 0.18433 0.0
C991 C 0.23721 0.79661 0.24892 0.0
C992 C 0.26158 0.82213 0.24963 0.0
H993 H 0.19466 0.76868 0.22536 0.0
H994 H 0.23666 0.78294 0.2666 0.0
C995 C 0.26183 0.83884 0.22594 0.0
C996 C 0.50001 0.92251 0.4965 0.0
C997 C 0.51974 0.90291 0.48539 0.0
H998 H 0.49572 0.96938 0.52265 0.0
C999 C 0.55052 0.91509 0.49444 0.0
H1000 H 0.47617 0.91358 0.49015 0.0
C1001 C 0.56152 0.94628 0.51335 0.0
C1002 C 0.54214 0.96648 0.52346 0.0
H1003 H 0.56638 0.90045 0.48699 0.0
H1004 H 0.58545 0.95472 0.51926 0.0
C1005 C 0.51119 0.95427 0.51522 0.0
C1006 C 0.53481 0.29974 0.66827 0.0
C1007 C 0.56179 0.29978 0.68455 0.0
H1008 H 0.48717 0.28948 0.66707 0.0
C1009 C 0.56108 0.28655 0.71099 0.0
H1010 H 0.53462 0.3095 0.64764 0.0
C1011 C 0.53406 0.27549 0.72232 0.0
C1012 C 0.50711 0.27724 0.70733 0.0
H1013 H 0.5815 0.28586 0.72383 0.0
H1014 H 0.53454 0.26735 0.744 0.0
C1015 C 0.50766 0.2884 0.67948 0.0
C1016 C 0.04107 0.8132 0.55842 0.0
C1017 C 0.04793 0.82192 0.59212 0.0
H1018 H 0.04585 0.82775 0.51458 0.0
C1019 C 0.06729 0.8518 0.60721 0.0
H1020 H 0.02644 0.79021 0.54609 0.0
C1021 C 0.07821 0.87323 0.58913 0.0
C1022 C 0.07051 0.86477 0.55565 0.0
H1023 H 0.07292 0.85918 0.63313 0.0
H1024 H 0.09174 0.89686 0.6014 0.0
C1025 C 0.05239 0.83441 0.54032 0.0
C1026 C 0.54106 0.83887 0.87303 0.0
C1027 C 0.56931 0.85444 0.86733 0.0
H1028 H 0.4941 0.83194 0.8641 0.0
C1029 C 0.57206 0.87689 0.84914 0.0
H1030 H 0.53855 0.82122 0.88679 0.0
C1031 C 0.54659 0.88376 0.83682 0.0
C1032 C 0.51818 0.86789 0.84225 0.0
H1033 H 0.59382 0.88941 0.84486 0.0
H1034 H 0.5491 0.9014 0.82309 0.0
C1035 C 0.51569 0.84529 0.86034 0.0
C1036 C 0.52357 0.17495 0.12575 0.0
C1037 C 0.51253 0.18927 0.10362 0.0
H1038 H 0.54909 0.14164 0.13303 0.0
C1039 C 0.51901 0.18115 0.07147 0.0
H1040 H 0.51906 0.18134 0.15083 0.0
C1041 C 0.5372 0.15979 0.06179 0.0
C1042 C 0.54851 0.14566 0.08393 0.0
H1043 H 0.51117 0.19242 0.05425 0.0
H1044 H 0.54214 0.15403 0.03683 0.0
C1045 C 0.54098 0.15272 0.11578 0.0
C1046 C 0.22226 0.31844 0.35806 0.0
C1047 C 0.21804 0.34992 0.36504 0.0
H1048 H 0.24382 0.28412 0.32998 0.0
C1049 C 0.23019 0.37003 0.34595 0.0
H1050 H 0.21274 0.30211 0.37192 0.0
C1051 C 0.24788 0.3595 0.32172 0.0
C1052 C 0.25294 0.32845 0.31569 0.0
H1053 H 0.22689 0.39421 0.35051 0.0
H1054 H 0.25905 0.37619 0.30899 0.0
C1055 C 0.23926 0.3077 0.33334 0.0
C1056 C 0.03984 0.10265 0.182 0.0
C1057 C 0.01865 0.07812 0.19034 0.0
H1058 H 0.06889 0.11808 0.14803 0.0
C1059 C 1.01169 0.04808 0.16645 0.0
H1060 H 0.04644 0.12633 0.19875 0.0
C1061 C 0.02532 0.04319 0.13642 0.0
C1062 C 0.0466 0.06803 0.12843 0.0
H1063 H 0.99587 0.02812 0.17098 0.0
H1064 H 0.01896 0.01973 0.11927 0.0
C1065 C 0.05315 0.09787 0.15226 0.0
C1066 C 0.34274 0.72877 0.51174 0.0
C1067 C 0.33832 0.69562 0.49786 0.0
H1068 H 0.33826 0.77393 0.50524 0.0
C1069 C 0.32351 0.68193 0.46671 0.0
H1070 H 0.35421 0.73975 0.53575 0.0
C1071 C 0.31488 0.70159 0.44893 0.0
C1072 C 0.32037 0.73504 0.46241 0.0
H1073 H 0.32016 0.65642 0.45549 0.0
H1074 H 0.30472 0.6908 0.42436 0.0
C1075 C 0.33353 0.74825 0.49434 0.0
C1076 C 0.63742 1.00797 0.65581 0.0
C1077 C 0.66784 0.02365 0.66328 0.0
H1078 H 0.59518 1.00681 0.63213 0.0
C1079 C 0.6787 0.0513 0.65298 0.0
H1080 H 0.62832 0.9867 0.66355 0.0
C1081 C 0.65969 0.06296 0.63566 0.0
C1082 C 0.62942 0.04725 0.62808 0.0
H1083 H 0.70186 0.06428 0.65863 0.0
H1084 H 0.66883 0.08413 0.62774 0.0
C1085 C 0.6183 0.01977 0.63843 0.0
C1086 C 0.33065 0.34386 0.95301 0.0
C1087 C 0.35686 0.33924 0.96741 0.0
H1088 H 0.30447 0.34027 0.90902 0.0
C1089 C 0.37643 0.32589 0.94667 0.0
H1090 H 0.31503 0.35422 0.968 0.0
C1091 C 0.37064 0.31851 0.91293 0.0
C1092 C 0.34485 0.32376 0.89847 0.0
H1093 H 0.39695 0.32217 0.95649 0.0
H1094 H 0.38675 0.30892 0.89812 0.0
C1095 C 0.3246 0.33596 0.91907 0.0
C1096 C 1.00401 0.09112 0.41226 0.0
C1097 C 1.00421 0.06972 0.38151 0.0
H1098 H 1.01769 0.10575 0.46365 0.0
C1099 C 0.0197 0.04523 0.38154 0.0
H1100 H 0.99262 0.11039 0.41412 0.0
C1101 C 0.03381 0.04212 0.41046 0.0
C1102 C 0.0339 0.06372 0.44117 0.0
H1103 H 0.02068 0.02793 0.35896 0.0
H1104 H 0.04495 0.02265 0.4086 0.0
C1105 C 0.01866 0.08842 0.44109 0.0
C1106 C 0.37679 0.73501 0.6479 0.0
C1107 C 0.3616 0.7024 0.63593 0.0
H1108 H 0.37872 0.78075 0.68158 0.0
C1109 C 0.3354 0.69165 0.64963 0.0
H1110 H 0.3969 0.74444 0.63792 0.0
C1111 C 0.32493 0.71262 0.67459 0.0
C1112 C 0.34006 0.74516 0.68648 0.0
H1113 H 0.3228 0.66696 0.64098 0.0
H1114 H 0.3049 0.70322 0.68473 0.0
C1115 C 0.36613 0.75608 0.6727 0.0
C1116 C 0.67722 0.13678 0.82045 0.0
C1117 C 0.66027 0.11211 0.79495 0.0
H1118 H 0.67738 0.1663 0.86825 0.0
C1119 C 0.62907 0.10495 0.79352 0.0
H1120 H 0.70132 0.14314 0.82144 0.0
C1121 C 0.61532 0.11843 0.82022 0.0
C1122 C 0.63291 0.13892 0.84811 0.0
H1123 H 0.6157 0.086 0.77387 0.0
H1124 H 0.59158 0.10945 0.82067 0.0
C1125 C 0.66356 0.15024 0.84703 0.0
C1126 C 0.35188 0.31728 0.14755 0.0
C1127 C 0.34923 0.34679 0.14268 0.0
H1128 H 0.34784 0.28687 0.17951 0.0
C1129 C 0.33995 0.36873 0.1681 0.0
H1130 H 0.35923 0.29996 0.12878 0.0
C1131 C 0.33456 0.36182 0.19792 0.0
C1132 C 0.33728 0.33228 0.20281 0.0
H1133 H 0.33813 0.39195 0.16546 0.0
H1134 H 0.32843 0.37968 0.21718 0.0
C1135 C 0.34537 0.30987 0.17683 0.0
C1136 C 0.20827 1.00773 1.01544 0.0
C1137 C 0.23393 0.03214 0.02949 0.0
H1138 H 0.16018 0.99366 1.00768 0.0
C1139 C 0.229 0.06207 0.04692 0.0
H1140 H 0.21068 0.98429 1.00205 0.0
C1141 C 0.2 0.06752 0.05019 0.0
C1142 C 0.17428 0.04309 0.03678 0.0
H1143 H 0.24783 0.08171 0.05826 0.0
H1144 H 0.19779 0.09106 0.06355 0.0
C1145 C 0.17906 1.01307 0.01917 0.0
C1146 C 0.6932 0.66228 0.02085 0.0
C1147 C 0.711 0.65009 0.99722 0.0
H1148 H 0.65396 0.65252 0.04513 0.0
C1149 C 0.70103 0.61816 0.97816 0.0
H1150 H 0.70026 0.68667 0.03608 0.0
C1151 C 0.67435 0.59864 0.9831 0.0
C1152 C 0.65708 0.6104 1.00751 0.0
H1153 H 0.71418 0.60795 0.95973 0.0
H1154 H 0.66768 0.57407 0.96826 0.0
C1155 C 0.66668 0.64259 0.02611 0.0
C1156 C 0.79016 0.44482 0.29508 0.0
C1157 C 0.76005 0.44174 0.28301 0.0
H1158 H 0.8271 0.42331 0.30224 0.0
C1159 C 0.74485 0.40909 0.26804 0.0
H1160 H 0.8034 0.46855 0.30742 0.0
C1161 C 0.75867 0.38202 0.26603 0.0
C1162 C 0.78905 0.38552 0.27791 0.0
H1163 H 0.72167 0.40412 0.25875 0.0
H1164 H 0.74527 0.35805 0.25495 0.0
C1165 C 0.80414 0.41815 0.29212 0.0
C1166 C 0.93551 0.51307 0.54456 0.0
C1167 C 0.91904 0.52156 0.52107 0.0
H1168 H 0.97849 0.51235 0.56528 0.0
C1169 C 0.93523 0.53574 0.49924 0.0
H1170 H 0.9241 0.50226 0.562 0.0
C1171 C 0.96674 0.54129 0.50095 0.0
C1172 C 0.98324 0.53328 0.52485 0.0
H1173 H 0.92357 0.54265 0.48082 0.0
H1174 H 0.97821 0.55237 0.48373 0.0
C1175 C 0.96695 0.51897 0.54655 0.0
C1176 C 0.41229 0.1013 0.26048 0.0
C1177 C 0.40646 0.08837 0.28685 0.0
H1178 H 0.39685 0.12712 0.22965 0.0
C1179 C 0.37807 0.08576 0.2981 0.0
H1180 H 0.43397 0.10342 0.25129 0.0
C1181 C 0.35703 0.09896 0.28571 0.0
C1182 C 0.36395 0.11508 0.26187 0.0
H1183 H 0.37277 0.07532 0.318 0.0
H1184 H 0.3361 0.09862 0.29642 0.0
C1185 C 0.39108 0.11474 0.24807 0.0
C1186 C 0.36602 0.14766 0.56358 0.0
C1187 C 0.37203 0.17328 0.54927 0.0
H1188 H 0.38367 0.11579 0.58462 0.0
C1189 C 0.40187 0.18773 0.54698 0.0
H1190 H 0.34327 0.13584 0.56554 0.0
C1191 C 0.42517 0.17642 0.55834 0.0
C1192 C 0.41912 0.15031 0.57206 0.0
H1193 H 0.40727 0.20749 0.53608 0.0
H1194 H 0.44793 0.18809 0.55625 0.0
C1195 C 0.38925 0.13627 0.57474 0.0
C1196 C 0.74559 0.65379 0.28022 0.0
C1197 C 0.75725 0.64006 0.303 0.0
H1198 H 0.74876 0.69474 0.26023 0.0
C1199 C 0.78308 0.66002 0.32297 0.0
H1200 H 0.7259 0.63999 0.26417 0.0
C1201 C 0.79669 0.69127 0.32015 0.0
C1202 C 0.78501 0.70528 0.29778 0.0
H1203 H 0.79334 0.65122 0.34085 0.0
H1204 H 0.81658 0.70474 0.33605 0.0
C1205 C 0.75884 0.68567 0.27801 0.0
C1206 C 0.90191 0.46132 0.84681 0.0
C1207 C 0.9197 0.47517 0.82588 0.0
H1208 H 0.87334 0.41963 0.85428 0.0
C1209 C 0.92275 0.45569 0.7954 0.0
H1210 H 0.8993 0.47541 0.87067 0.0
C1211 C 0.90759 0.42317 0.78589 0.0
C1212 C 0.88917 0.40973 0.80672 0.0
H1213 H 0.93621 0.46568 0.77871 0.0
H1214 H 0.90994 0.40875 0.76209 0.0
C1215 C 0.88684 0.42917 0.83736 0.0
C1216 C 0.14878 0.86227 0.04792 0.0
C1217 C 0.12608 0.84543 0.06205 0.0
H1218 H 0.15913 0.88658 1.01132 0.0
C1219 C 0.09768 0.83296 0.04508 0.0
H1220 H 0.17131 0.87095 0.05977 0.0
C1221 C 0.09045 0.8424 0.01795 0.0
C1222 C 0.11162 0.86464 1.00734 0.0
H1223 H 0.08015 0.8181 0.05414 0.0
H1224 H 0.06724 0.8354 1.00837 0.0
C1225 C 0.14169 0.87126 0.02018 0.0
C1226 C 0.97262 0.31271 0.83236 0.0
C1227 C 0.96575 0.30348 0.86075 0.0
H1228 H 0.95583 0.31696 0.78692 0.0
C1229 C 0.93594 0.29151 0.86513 0.0
H1230 H 0.99542 0.3224 0.82848 0.0
C1231 C 0.91348 0.28846 0.84124 0.0
C1232 C 0.92063 0.29673 0.81252 0.0
H1233 H 0.92999 0.28441 0.88678 0.0
H1234 H 0.89046 0.27964 0.8452 0.0
C1235 C 0.95018 0.30916 0.8083 0.0
C1236 C 0.63134 0.2122 0.60886 0.0
C1237 C 0.61673 0.22622 0.5891 0.0
H1238 H 0.63935 0.16837 0.61582 0.0
C1239 C 0.60341 0.20769 0.55827 0.0
H1240 H 0.64181 0.22603 0.63269 0.0
C1241 C 0.60283 0.175 0.54829 0.0
C1242 C 0.61494 0.1605 0.56938 0.0
H1243 H 0.59227 0.21814 0.5425 0.0
H1244 H 0.59077 0.16066 0.52532 0.0
C1245 C 0.63003 0.17936 0.59924 0.0
C1246 C 0.63019 0.89327 0.39237 0.0
C1247 C 0.6241 0.87853 0.41739 0.0
H1248 H 0.6611 0.90425 0.35918 0.0
C1249 C 0.64761 0.87238 0.43458 0.0
H1250 H 0.61247 0.89873 0.37905 0.0
C1251 C 0.67599 0.87665 0.42391 0.0
C1252 C 0.68078 0.88591 0.39521 0.0
H1253 H 0.64353 0.86188 0.45463 0.0
H1254 H 0.69327 0.86951 0.43616 0.0
C1255 C 0.65831 0.8967 0.38113 0.0
C1256 C 0.10477 0.29873 0.51845 0.0
C1257 C 0.11833 0.28828 0.49034 0.0
H1258 H 0.08908 0.28841 0.56173 0.0
C1259 C 0.12888 0.26022 0.48551 0.0
H1260 H 0.09642 0.32035 0.52249 0.0
C1261 C 0.12378 0.2414 0.50714 0.0
C1262 C 0.10855 0.25065 0.53446 0.0
H1263 H 0.13874 0.25136 0.46354 0.0
H1264 H 0.12991 0.21848 0.50109 0.0
C1265 C 0.10029 0.28027 0.54062 0.0
C1266 C 0.6122 0.29011 0.22313 0.0
C1267 C 0.58721 0.26418 0.21629 0.0
H1268 H 0.65813 0.30745 0.24142 0.0
C1269 C 0.58946 0.23518 0.22274 0.0
H1270 H 0.61093 0.31279 0.21859 0.0
C1271 C 0.61647 0.232 0.23543 0.0
C1272 C 0.64156 0.25782 0.24201 0.0
H1273 H 0.5705 0.21473 0.2175 0.0
H1274 H 0.61786 0.20913 0.2394 0.0
C1275 C 0.63916 0.287 0.23606 0.0
C1276 C 0.59231 0.93004 0.97281 0.0
C1277 C 0.61947 0.93072 0.9591 0.0
H1278 H 0.56047 0.95604 0.99232 0.0
C1279 C 0.63542 0.95955 0.95382 0.0
H1280 H 0.57943 0.90822 0.97715 0.0
C1281 C 0.62432 0.98735 0.9625 0.0
C1282 C 0.59723 0.9865 0.97657 0.0
H1283 H 0.65631 0.96058 0.94299 0.0
H1284 H 0.63731 1.00959 0.95914 0.0
C1285 C 0.5813 0.95749 0.98132 0.0
C1286 C 0.92994 0.7757 0.70556 0.0
C1287 C 0.95357 0.76409 0.71569 0.0
H1288 H 0.89121 0.79305 0.71833 0.0
C1289 C 0.95415 0.75735 0.74598 0.0
H1290 H 0.92864 0.78068 0.68222 0.0
C1291 C 0.93246 0.76445 0.76677 0.0
C1292 C 0.9102 0.77816 0.75718 0.0
H1293 H 0.97217 0.74826 0.75426 0.0
H1294 H 0.93404 0.76096 0.79075 0.0
C1295 C 0.90847 0.78268 0.72615 0.0
C1296 C 0.1561 0.02623 0.89773 0.0
C1297 C 0.15712 0.04784 0.87815 0.0
H1298 H 0.14002 1.01087 0.9393 0.0
C1299 C 0.1412 0.07216 0.88892 0.0
H1300 H 0.16761 1.00699 0.89108 0.0
C1301 C 0.12591 0.07507 0.91771 0.0
C1302 C 0.12442 0.05303 0.93689 0.0
H1303 H 0.14096 0.08957 0.87529 0.0
H1304 H 0.11478 0.09459 0.9247 0.0
C1305 C 0.13987 0.0284 0.92577 0.0
C1306 C 0.79069 0.41693 0.597 0.0
C1307 C 0.81222 0.44308 0.59333 0.0
H1308 H 0.78193 0.37658 0.61707 0.0
C1309 C 0.84011 0.45228 0.61166 0.0
H1310 H 0.76934 0.40916 0.58249 0.0
C1311 C 0.84746 0.43344 0.63088 0.0
C1312 C 0.82689 0.40545 0.6319 0.0
H1313 H 0.85727 0.47188 0.60832 0.0
H1314 H 0.86992 0.43917 0.64265 0.0
C1315 C 0.798 0.39816 0.61632 0.0
C1316 C 0.51475 0.09712 0.43701 0.0
C1317 C 0.51615 0.07269 0.40937 0.0
H1318 H 0.52421 0.11427 0.48865 0.0
C1319 C 0.52341 0.04446 0.4126 0.0
H1320 H 0.50874 0.11889 0.43482 0.0
C1321 C 0.53157 0.04159 0.44275 0.0
C1322 C 0.53308 0.0671 0.47031 0.0
H1323 H 0.52375 0.02485 0.39164 0.0
H1324 H 0.5382 0.0199 0.44421 0.0
C1325 C 0.52339 0.0944 0.46759 0.0
C1326 C 0.82292 0.80734 0.14115 0.0
C1327 C 0.81803 0.77622 0.12022 0.0
H1328 H 0.82756 0.8363 0.19041 0.0
C1329 C 0.81418 0.75004 0.13388 0.0
H1330 H 0.82663 0.82801 0.13145 0.0
C1331 C 0.81613 0.75485 0.16755 0.0
C1332 C 0.82095 0.7859 0.1885 0.0
H1333 H 0.81118 0.72583 0.11848 0.0
H1334 H 0.81398 0.73423 0.17723 0.0
C1335 C 0.82363 0.81205 0.17488 0.0
C1336 C 0.12056 0.05975 0.68571 0.0
C1337 C 0.14191 0.04131 0.68803 0.0
H1338 H 0.09182 0.07627 0.65628 0.0
C1339 C 0.14963 0.02448 0.65795 0.0
H1340 H 0.11338 0.07328 0.70751 0.0
C1341 C 0.13683 0.02638 0.62763 0.0
C1342 C 0.11558 0.04512 0.62568 0.0
H1343 H 0.16578 1.00996 0.65773 0.0
H1344 H 0.14376 1.01308 0.60554 0.0
C1345 C 0.10786 0.06157 0.65574 0.0
C1346 C 0.83312 0.376 0.44008 0.0
C1347 C 0.8295 0.4072 0.4415 0.0
H1348 H 0.83619 0.33001 0.41011 0.0
C1349 C 0.82326 0.41458 0.41253 0.0
H1350 H 0.83789 0.36956 0.46208 0.0
C1351 C 0.82298 0.39209 0.38279 0.0
C1352 C 0.8282 0.36151 0.38141 0.0
H1353 H 0.82054 0.43834 0.41279 0.0
H1354 H 0.8196 0.39902 0.36076 0.0
C1355 C 0.8321 0.35326 0.41037 0.0
C1356 C 0.46682 0.02608 0.22296 0.0
C1357 C 0.47113 1.00076 0.23517 0.0
H1358 H 0.46907 0.04298 0.18095 0.0
C1359 C 0.461 0.96937 0.21505 0.0
H1360 H 0.47243 0.05048 0.23825 0.0
C1361 C 0.45991 0.96476 0.18162 0.0
C1362 C 0.46765 0.99181 0.16952 0.0
H1363 H 0.46172 0.94901 0.22446 0.0
H1364 H 0.45926 0.94097 0.16638 0.0
C1365 C 0.46536 0.02166 0.18959 0.0
C1366 C 0.80265 0.76827 0.91992 0.0
C1367 C 0.82374 0.78528 0.94656 0.0
H1368 H 0.79025 0.75899 0.86913 0.0
C1369 C 0.84806 0.80852 0.94161 0.0
H1370 H 0.78383 0.74991 0.92244 0.0
C1371 C 0.85198 0.81347 0.91088 0.0
C1372 C 0.83176 0.79531 0.88391 0.0
H1373 H 0.86488 0.82215 0.96136 0.0
H1374 H 0.87132 0.83114 0.90818 0.0
C1375 C 0.80661 0.77319 0.88909 0.0
C1376 C 0.93998 0.06153 0.04299 0.0
C1377 C 0.93508 0.09246 0.04514 0.0
H1378 H 0.97051 0.03008 0.03494 0.0
C1379 C 0.95959 0.11546 0.03996 0.0
H1380 H 0.92194 0.04279 0.04631 0.0
C1381 C 0.98762 0.10815 0.03343 0.0
C1382 C 0.99258 0.07725 0.03112 0.0
H1383 H 0.95723 0.13944 0.04089 0.0
H1384 H 1.00547 0.12695 0.02997 0.0
C1385 C 0.96799 0.05406 0.03598 0.0
C1386 C 0.44992 0.45582 0.02245 0.0
C1387 C 0.44364 0.45058 0.05255 0.0
H1388 H 0.48101 0.48005 0.99585 0.0
C1389 C 0.46434 0.46664 0.07967 0.0
H1390 H 0.43407 0.44408 1.00133 0.0
C1391 C 0.49055 0.48837 0.07683 0.0
C1392 C 0.49673 0.49354 0.04666 0.0
H1393 H 0.45964 0.46346 0.10326 0.0
H1394 H 0.50607 0.50088 0.09805 0.0
C1395 C 0.47653 0.4766 0.01941 0.0
C1396 C 0.40929 0.68667 0.77633 0.0
C1397 C 0.39945 0.66532 0.79573 0.0
H1398 H 0.40493 0.72833 0.75974 0.0
C1399 C 0.3747 0.67256 0.8129 0.0
H1400 H 0.42812 0.68344 0.76263 0.0
C1401 C 0.36069 0.6983 0.81067 0.0
C1402 C 0.37079 0.72007 0.79193 0.0
H1403 H 0.36564 0.65781 0.82842 0.0
H1404 H 0.34187 0.7014 0.82442 0.0
C1405 C 0.39576 0.71319 0.77486 0.0
C1406 C 0.22206 0.59312 0.51341 0.0
C1407 C 0.24241 0.58831 0.53598 0.0
H1408 H 0.17705 0.59129 0.49792 0.0
C1409 C 0.23035 0.577 0.56179 0.0
H1410 H 0.2299 0.60185 0.49318 0.0
C1411 C 0.19901 0.57054 0.56447 0.0
C1412 C 0.17886 0.57555 0.54165 0.0
H1413 H 0.24503 0.57297 0.57978 0.0
H1414 H 0.19063 0.56174 0.58447 0.0
C1415 C 0.19125 0.58705 0.51622 0.0
C1416 C 0.78381 0.99686 0.77924 0.0
C1417 C 0.78259 0.02664 0.79973 0.0
H1418 H 0.80643 0.95869 0.76937 0.0
C1419 C 0.80522 0.04217 0.82512 0.0
H1420 H 0.76657 0.98436 0.75958 0.0
C1421 C 0.82843 0.02791 0.8303 0.0
C1422 C 0.82927 0.99767 0.81042 0.0
H1423 H 0.80506 0.06545 0.84098 0.0
H1424 H 0.84555 0.04043 0.85006 0.0
C1425 C 0.80682 0.98237 0.78469 0.0
C1426 C 0.75732 0.93161 0.54313 0.0
C1427 C 0.78468 0.95343 0.55592 0.0
H1428 H 0.71307 0.92495 0.52072 0.0
C1429 C 0.78834 0.98569 0.55566 0.0
H1430 H 0.75394 0.90656 0.5429 0.0
C1431 C 0.76539 0.99593 0.54257 0.0
C1432 C 0.73808 0.97426 0.52977 0.0
H1433 H 0.80918 1.00311 0.56511 0.0
H1434 H 0.76889 0.021 0.54286 0.0
C1435 C 0.73404 0.94204 0.5304 0.0
C1436 C 0.37668 0.46012 0.81134 0.0
C1437 C 0.40191 0.47009 0.79532 0.0
H1438 H 0.34505 0.42201 0.82296 0.0
C1439 C 0.4143 0.44482 0.77792 0.0
H1440 H 0.36604 0.47797 0.82525 0.0
C1441 C 0.4023 0.41172 0.7773 0.0
C1442 C 0.3769 0.40209 0.79344 0.0
H1443 H 0.4338 0.45061 0.76541 0.0
H1444 H 0.41289 0.39359 0.76387 0.0
C1445 C 0.36441 0.42739 0.8101 0.0
C1446 C 0.26983 0.67099 0.24896 0.0
C1447 C 0.27369 0.658 0.27503 0.0
H1448 H 0.28085 0.71253 0.23075 0.0
C1449 C 0.29279 0.6769 0.3025 0.0
H1450 H 0.25533 0.65684 0.22743 0.0
C1451 C 0.30757 0.70806 0.30412 0.0
C1452 C 0.30343 0.72142 0.27851 0.0
H1453 H 0.2968 0.66758 0.32283 0.0
H1454 H 0.32217 0.72169 0.32574 0.0
C1455 C 0.28457 0.70265 0.25075 0.0
C1456 C 0.51908 0.7708 0.53794 0.0
C1457 C 0.53752 0.78673 0.519 0.0
H1458 H 0.51671 0.7441 0.57315 0.0
C1459 C 0.5686 0.79314 0.52575 0.0
H1460 H 0.49502 0.76631 0.53396 0.0
C1461 C 0.58101 0.77997 0.54754 0.0
C1462 C 0.56262 0.76024 0.56348 0.0
H1463 H 0.58354 0.80634 0.51236 0.0
H1464 H 0.60495 0.7828 0.54908 0.0
C1465 C 0.53159 0.75794 0.5603 0.0
C1466 C 0.71489 0.29366 0.72513 0.0
C1467 C 0.71559 0.31234 0.70307 0.0
H1468 H 0.7393 0.28166 0.76166 0.0
C1469 C 0.74238 0.33359 0.70093 0.0
H1470 H 0.69452 0.27715 0.72744 0.0
C1471 C 0.76803 0.33609 0.72055 0.0
C1472 C 0.76714 0.3177 0.74284 0.0
H1473 H 0.74352 0.34833 0.68421 0.0
H1474 H 0.78844 0.35259 0.7184 0.0
C1475 C 0.74041 0.29646 0.74498 0.0
C1476 C 0.04958 0.41172 0.99664 0.0
C1477 C 0.01839 0.40046 0.99035 0.0
H1478 H 0.08624 0.45152 0.01687 0.0
C1479 C 0.99993 0.42074 1.0037 0.0
H1480 H 0.06454 0.39642 0.98762 0.0
C1481 C 1.0126 0.45255 0.02094 0.0
C1482 C 0.04382 0.46429 0.02497 0.0
H1483 H 0.97586 0.41249 0.99968 0.0
H1484 H 0.99793 0.46839 0.02925 0.0
C1485 C 0.06214 0.44325 1.01376 0.0
C1486 C 0.05719 0.77413 0.20379 0.0
C1487 C 0.05853 0.7886 0.1782 0.0
H1488 H 0.02992 0.75471 0.23619 0.0
C1489 C 0.03183 0.78935 0.16195 0.0
H1490 H 0.07736 0.7727 0.21654 0.0
C1491 C 1.00445 0.77798 0.17254 0.0
C1492 C 1.00332 0.76646 0.20013 0.0
H1493 H 0.03192 0.79989 0.14194 0.0
H1494 H 0.98428 0.77987 0.16019 0.0
C1495 C 0.02988 0.76333 0.21479 0.0
C1496 C 0.52366 0.3213 0.04919 0.0
C1497 C 0.5341 0.32512 0.08145 0.0
H1498 H 0.52951 0.33874 1.0071 0.0
C1499 C 0.56081 0.34785 0.09485 0.0
H1500 H 0.50334 0.30375 0.03804 0.0
C1501 C 0.57572 0.36764 0.07714 0.0
C1502 C 0.56441 0.36504 0.04556 0.0
H1503 H 0.56963 0.35134 0.11953 0.0
H1504 H 0.59552 0.38592 0.08859 0.0
C1505 C 0.53879 0.34103 0.03134 0.0
C1506 C 0.08449 0.34377 0.3203 0.0
C1507 C 0.07979 0.31815 0.3347 0.0
H1508 H 0.06391 0.37445 0.29989 0.0
C1509 C 0.05067 0.3005 0.33492 0.0
H1510 H 0.10679 0.35786 0.32004 0.0
C1511 C 0.02647 0.31 0.32352 0.0
C1512 C 0.03113 0.33707 0.31152 0.0
H1513 H 0.04653 0.28051 0.34565 0.0
H1514 H 1.00407 0.29738 0.3258 0.0
C1515 C 0.06014 0.3533 0.30885 0.0
C1516 C 0.07706 0.69773 0.60067 0.0
C1517 C 0.07302 0.70435 0.63356 0.0
H1518 H 0.08302 0.66296 0.55859 0.0
C1519 C 0.07725 0.68248 0.65095 0.0
H1520 H 0.07362 0.71423 0.58686 0.0
C1521 C 0.08235 0.65263 0.6346 0.0
C1522 C 0.08294 0.64475 0.6009 0.0
H1523 H 0.0737 0.68712 0.67631 0.0
H1524 H 0.08326 0.63492 0.64772 0.0
C1525 C 0.08199 0.66821 0.58448 0.0
C1526 C 0.70991 0.80902 0.82047 0.0
C1527 C 0.71154 0.83076 0.85098 0.0
H1528 H 0.73291 0.79284 0.77959 0.0
C1529 C 0.73691 0.856 0.86186 0.0
H1530 H 0.69031 0.78967 0.81121 0.0
C1531 C 0.76102 0.8583 0.84339 0.0
C1532 C 0.76037 0.83505 0.814 0.0
H1533 H 0.73839 0.87363 0.88488 0.0
H1534 H 0.7808 0.87726 0.85315 0.0
C1535 C 0.73415 0.81111 0.80212 0.0
C1536 C 0.53628 0.6024 0.68074 0.0
C1537 C 0.51487 0.57785 0.68881 0.0
H1538 H 0.56571 0.61802 0.64715 0.0
C1539 C 0.50791 0.54795 0.66466 0.0
H1540 H 0.54292 0.62598 0.69767 0.0
C1541 C 0.5218 0.54321 0.63474 0.0
C1542 C 0.54332 0.56809 0.62707 0.0
H1543 H 0.49195 0.52795 0.66893 0.0
H1544 H 0.51545 0.51984 0.61744 0.0
C1545 C 0.54979 0.5978 0.6511 0.0
C1546 C 0.82431 0.18203 0.9727 0.0
C1547 C 0.8438 0.19668 1.00097 0.0
H1548 H 0.80257 0.1889 0.9308 0.0
C1549 C 0.85369 0.23022 1.01073 0.0
H1550 H 0.81653 0.15613 0.96471 0.0
C1551 C 0.84546 0.24884 0.99183 0.0
C1552 C 0.82758 0.23427 0.96242 0.0
H1553 H 0.86863 0.24201 0.03256 0.0
H1554 H 0.85455 0.27457 0.99938 0.0
C1555 C 0.81651 0.20071 0.9533 0.0
C1556 C 0.15211 0.56753 0.16421 0.0
C1557 C 0.1685 0.54628 0.14775 0.0
H1558 H 0.11658 0.591 0.16069 0.0
C1559 C 0.16278 0.53341 0.11427 0.0
H1560 H 0.15607 0.57727 0.19021 0.0
C1561 C 0.14039 0.5415 0.09744 0.0
C1562 C 0.12343 0.56203 0.11403 0.0
H1563 H 0.17494 0.51652 0.10142 0.0
H1564 H 0.13523 0.53054 0.07181 0.0
C1565 C 0.12956 0.57523 0.14746 0.0
C1566 C 0.8792 0.8301 0.44539 0.0
C1567 C 0.85893 0.84244 0.46584 0.0
H1568 H 0.88979 0.81308 0.3969 0.0
C1569 C 0.83196 0.84507 0.45128 0.0
H1570 H 0.90028 0.82785 0.45543 0.0
C1571 C 0.82586 0.83646 0.41743 0.0
C1572 C 0.84668 0.82529 0.39704 0.0
H1573 H 0.81577 0.85453 0.46605 0.0
H1574 H 0.8051 0.83935 0.40726 0.0
C1575 C 0.87324 0.82182 0.41161 0.0
C1576 C 0.52173 0.54857 0.87797 0.0
C1577 C 0.50186 0.56931 0.87938 0.0
H1578 H 0.55135 0.52865 0.9031 0.0
C1579 C 0.49816 0.58651 0.91112 0.0
H1580 H 0.52567 0.53454 0.85463 0.0
C1581 C 0.51341 0.58328 0.93946 0.0
C1582 C 0.53313 0.56235 0.93802 0.0
H1583 H 0.48335 0.60276 0.91424 0.0
H1584 H 0.50945 0.59726 0.96281 0.0
C1585 C 0.53671 0.54508 0.90627 0.0
C1586 C 0.88403 0.2355 0.15388 0.0
C1587 C 0.86603 0.20413 0.14157 0.0
H1588 H 0.89072 0.28145 0.18841 0.0
C1589 C 0.83943 0.19601 0.15579 0.0
H1590 H 0.90455 0.24302 0.1436 0.0
C1591 C 0.83135 0.21839 0.18165 0.0
C1592 C 0.84947 0.24971 0.19395 0.0
H1593 H 0.82473 0.17234 0.14691 0.0
H1594 H 0.81099 0.21097 0.19224 0.0
C1595 C 0.87588 0.25786 0.17951 0.0
C1596 C 0.16013 0.59174 0.30975 0.0
C1597 C 0.18602 0.57994 0.3101 0.0
H1598 H 0.12765 0.61096 0.33722 0.0
C1599 C 0.20139 0.58262 0.33982 0.0
H1600 H 0.14791 0.59026 0.28719 0.0
C1601 C 0.19032 0.5956 0.36866 0.0
C1602 C 0.16325 0.60532 0.36826 0.0
H1603 H 0.22158 0.57411 0.34094 0.0
H1604 H 0.20233 0.59679 0.39124 0.0
C1605 C 0.14875 0.60413 0.33851 0.0
C1606 C 0.8279 0.83774 0.64742 0.0
C1607 C 0.85728 0.8488 0.6404 0.0
H1608 H 0.79962 0.82266 0.68216 0.0
C1609 C 0.88078 0.85437 0.66463 0.0
H1610 H 0.80926 0.83344 0.62949 0.0
C1611 C 0.87512 0.84959 0.69506 0.0
C1612 C 0.8459 0.83836 0.70195 0.0
H1613 H 0.90365 0.86337 0.66043 0.0
H1614 H 0.89374 0.85418 0.71311 0.0
C1615 C 0.82234 0.83192 0.67765 0.0
C1616 C 0.7262 0.56075 0.5544 0.0
C1617 C 0.73233 0.53254 0.53445 0.0
H1618 H 0.69372 0.58771 0.57163 0.0
C1619 C 0.70765 0.50895 0.51643 0.0
H1620 H 0.74428 0.57959 0.56885 0.0
C1621 C 0.67808 0.51341 0.51874 0.0
C1622 C 0.67217 0.54181 0.53872 0.0
H1623 H 0.71108 0.48675 0.50106 0.0
H1624 H 0.65983 0.49479 0.50439 0.0
C1625 C 0.69693 0.56544 0.55619 0.0
C1626 C 0.2 0.113 0.47828 0.0
C1627 C 0.21273 0.14386 0.49862 0.0
H1628 H 0.1636 0.0714 0.46781 0.0
C1629 C 0.19695 0.15689 0.52392 0.0
H1630 H 0.21156 0.10223 0.45851 0.0
C1631 C 0.16962 0.13906 0.52944 0.0
C1632 C 0.15717 0.10786 0.50963 0.0
H1633 H 0.20618 0.18044 0.54023 0.0
H1634 H 0.15872 0.14953 0.54986 0.0
C1635 C 0.17253 0.09523 0.48368 0.0
C1636 C 0.23856 0.90695 0.76169 0.0
C1637 C 0.25341 0.9384 0.78084 0.0
H1638 H 0.23824 0.85589 0.74414 0.0
C1639 C 0.28184 0.93946 0.79595 0.0
H1640 H 0.21657 0.90358 0.74971 0.0
C1641 C 0.29466 0.91201 0.79223 0.0
C1642 C 0.27993 0.88049 0.77377 0.0
H1643 H 0.2947 0.96217 0.81127 0.0
H1644 H 0.31643 0.91563 0.80485 0.0
C1645 C 0.2512 0.87895 0.75862 0.0
C1646 C 0.43344 0.04599 0.9932 0.0
C1647 C 0.41773 0.03074 1.01468 0.0
H1648 H 0.47644 0.06481 0.9785 0.0
C1649 C 0.43481 0.02366 0.03866 0.0
H1650 H 0.42128 0.05198 0.97448 0.0
C1651 C 0.46609 0.03076 0.04089 0.0
C1652 C 0.48204 0.04555 0.01938 0.0
H1653 H 0.42397 1.01266 0.05626 0.0
H1654 H 0.47776 0.02452 0.05976 0.0
C1655 C 0.46516 0.05321 0.99547 0.0
C1656 C 0.86731 0.58853 0.79583 0.0
C1657 C 0.89785 0.59701 0.79207 0.0
H1658 H 0.82399 0.59607 0.78613 0.0
C1659 C 0.90743 0.61514 0.77032 0.0
H1660 H 0.85929 0.57397 0.8119 0.0
C1661 C 0.88706 0.6276 0.75538 0.0
C1662 C 0.85707 0.62163 0.76188 0.0
H1663 H 0.93087 0.62181 0.76688 0.0
H1664 H 0.89517 0.64405 0.74112 0.0
C1665 C 0.84707 0.60078 0.78083 0.0
C1666 C 0.86301 0.66688 0.06618 0.0
C1667 C 0.86823 0.68937 0.04802 0.0
H1668 H 0.88107 0.63578 0.08781 0.0
C1669 C 0.89746 0.70101 0.04126 0.0
H1670 H 0.84074 0.65773 0.07202 0.0
C1671 C 0.92073 0.68856 0.05054 0.0
C1672 C 0.91508 0.66444 0.06684 0.0
H1673 H 0.90213 0.71855 0.02747 0.0
H1674 H 0.94288 0.69692 0.04395 0.0
C1675 C 0.88621 0.65453 0.07551 0.0
C1676 C 0.28329 0.15716 0.82177 0.0
C1677 C 0.25656 0.13808 0.80287 0.0
H1678 H 0.31773 0.20119 0.83392 0.0
C1679 C 0.24432 0.15244 0.78109 0.0
H1680 H 0.29397 0.14777 0.83886 0.0
C1681 C 0.25786 0.18417 0.77888 0.0
C1682 C 0.28489 0.20292 0.79754 0.0
H1683 H 0.22393 0.13929 0.76592 0.0
H1684 H 0.24724 0.19386 0.762 0.0
C1685 C 0.29721 0.18828 0.81886 0.0
C1686 C 0.42675 0.95653 0.30892 0.0
C1687 C 0.42377 0.97851 0.3379 0.0
H1688 H 0.41145 0.90934 0.27744 0.0
C1689 C 0.40256 0.96855 0.3581 0.0
H1690 H 0.44262 0.96341 0.29259 0.0
C1691 C 0.38445 0.93739 0.34927 0.0
C1692 C 0.38725 0.91561 0.32011 0.0
H1693 H 0.3997 0.9849 0.3806 0.0
H1694 H 0.36836 0.93039 0.36533 0.0
C1695 C 0.4087 0.92548 0.30013 0.0
C1696 C 0.63589 0.33884 0.52509 0.0
C1697 C 0.64654 0.3573 0.55672 0.0
H1698 H 0.61572 0.33911 0.47964 0.0
C1699 C 0.65621 0.39072 0.56299 0.0
H1700 H 0.62863 0.31293 0.51976 0.0
C1701 C 0.64895 0.40575 0.53984 0.0
C1702 C 0.63198 0.38718 0.51074 0.0
H1703 H 0.66463 0.40537 0.58723 0.0
H1704 H 0.65202 0.43163 0.5469 0.0
C1705 C 0.62853 0.3538 0.50207 0.0
C1706 C 0.4705 0.8089 0.33302 0.0
C1707 C 0.46859 0.79719 0.36058 0.0
H1708 H 0.44633 0.81909 0.29472 0.0
C1709 C 0.44057 0.78254 0.36799 0.0
H1710 H 0.49189 0.81993 0.32649 0.0
C1711 C 0.41479 0.782 0.3498 0.0
C1712 C 0.41663 0.79569 0.3237 0.0
H1713 H 0.43841 0.77265 0.38858 0.0
H1714 H 0.39328 0.77233 0.35712 0.0
C1715 C 0.44458 0.80805 0.31456 0.0
C1716 C 0.12943 0.71313 0.07625 0.0
C1717 C 0.10576 0.72681 0.06991 0.0
H1718 H 0.14398 0.66946 0.07166 0.0
C1719 C 0.081 0.70766 0.04842 0.0
H1720 H 0.149 0.72736 0.09229 0.0
C1721 C 0.0782 0.67478 0.03693 0.0
C1722 C 0.10039 0.66078 0.04612 0.0
H1723 H 0.06265 0.71752 0.04243 0.0
H1724 H 0.05773 0.65998 0.02284 0.0
C1725 C 0.12675 0.68014 0.06427 0.0
C1726 C 0.12465 0.38408 0.89303 0.0
C1727 C 0.11859 0.36892 0.91777 0.0
H1728 H 0.1553 0.39553 0.85978 0.0
C1729 C 0.14194 0.36138 0.93383 0.0
H1730 H 0.10705 0.39048 0.88047 0.0
C1731 C 0.17015 0.3654 0.92271 0.0
C1732 C 0.175 0.37584 0.89464 0.0
H1733 H 0.13789 0.35044 0.95358 0.0
H1734 H 0.18736 0.3577 0.93442 0.0
C1735 C 0.15257 0.38724 0.88132 0.0
C1736 C 0.62385 0.80512 0.02961 0.0
C1737 C 0.62909 0.79752 0.99697 0.0
H1738 H 0.61271 0.78756 0.07053 0.0
C1739 C 0.6292 0.76589 0.98088 0.0
H1740 H 0.62323 0.82946 0.04225 0.0
C1741 C 0.62115 0.74156 0.99614 0.0
C1742 C 0.61396 0.74848 0.02842 0.0
H1743 H 0.63224 0.75941 0.95536 0.0
H1744 H 0.6185 0.71719 0.98146 0.0
C1745 C 0.61701 0.7809 0.04546 0.0
C1746 C 0.11473 0.82402 0.73486 0.0
C1747 C 0.08535 0.8081 0.73645 0.0
H1748 H 0.16067 0.82253 0.73717 0.0
C1749 C 0.07949 0.77722 0.7412 0.0
H1750 H 0.11964 0.84803 0.73162 0.0
C1751 C 0.10303 0.76255 0.74463 0.0
C1752 C 0.13257 0.77863 0.74314 0.0
H1753 H 0.05687 0.76483 0.74294 0.0
H1754 H 0.09822 0.73881 0.74853 0.0
C1755 C 0.1381 0.80936 0.73793 0.0
C1756 C 0.12787 0.43203 0.46747 0.0
C1757 C 0.10875 0.41423 0.43977 0.0
H1758 H 0.13819 0.47494 0.50652 0.0
C1759 C 0.08823 0.42834 0.42702 0.0
H1760 H 0.14378 0.42154 0.47771 0.0
C1761 C 0.08546 0.45913 0.44304 0.0
C1762 C 0.10255 0.47564 0.47248 0.0
H1763 H 0.07343 0.41495 0.40546 0.0
H1764 H 0.06845 0.4689 0.43372 0.0
C1765 C 0.12454 0.46242 0.48396 0.0
C1766 C 0.42795 0.2441 0.22052 0.0
C1767 C 0.4333 0.26283 0.1984 0.0
H1768 H 0.4082 0.23906 0.26396 0.0
C1769 C 0.41821 0.28719 0.19947 0.0
H1770 H 0.43947 0.2251 0.21998 0.0
C1771 C 0.4021 0.29621 0.22538 0.0
C1772 C 0.39947 0.27992 0.24963 0.0
H1773 H 0.422 0.30206 0.18284 0.0
H1774 H 0.39313 0.31719 0.22728 0.0
C1775 C 0.41068 0.25241 0.24593 0.0
C1776 C 0.64379 0.57299 0.38963 0.0
C1777 C 0.65844 0.5477 0.37794 0.0
H1778 H 0.61821 0.59619 0.42594 0.0
C1779 C 0.65572 0.52505 0.39658 0.0
H1780 H 0.64482 0.59127 0.37683 0.0
C1781 C 0.63913 0.5272 0.42447 0.0
C1782 C 0.625 0.55284 0.43655 0.0
H1783 H 0.66613 0.50498 0.38926 0.0
H1784 H 0.63796 0.5088 0.43715 0.0
C1785 C 0.62822 0.57586 0.4183 0.0
C1786 C 0.29502 0.8954 0.07055 0.0
C1787 C 0.30662 0.92862 0.08219 0.0
H1788 H 0.28916 0.84961 0.08049 0.0
C1789 C 0.31645 0.94185 0.11505 0.0
H1790 H 0.28784 0.88468 0.04509 0.0
C1791 C 0.31849 0.92188 0.13502 0.0
C1792 C 0.31032 0.88825 0.12251 0.0
H1793 H 0.32621 0.96737 0.12431 0.0
H1794 H 0.3293 0.93293 0.15927 0.0
C1795 C 0.29659 0.87534 0.09066 0.0
C1796 C 1.0019 0.53429 0.91515 0.0
C1797 C 0.99669 0.56467 0.91683 0.0
H1798 H 0.02462 0.50721 0.93795 0.0
C1799 C 1.00283 0.58864 0.94619 0.0
H1800 H 0.99708 0.51551 0.89259 0.0
C1801 C 0.01847 0.58376 0.97227 0.0
C1802 C 0.02769 0.555 0.96864 0.0
H1803 H 0.99909 0.61228 0.94767 0.0
H1804 H 0.02667 0.60376 0.9934 0.0
C1805 C 1.01753 0.52951 0.941 0.0
C1806 C 0.35354 0.28773 0.64171 0.0
C1807 C 0.32754 0.27283 0.62023 0.0
H1808 H 0.37347 0.30447 0.69061 0.0
C1809 C 0.30025 0.26602 0.63379 0.0
H1810 H 0.37509 0.29339 0.63266 0.0
C1811 C 0.29932 0.27303 0.66768 0.0
C1812 C 0.32574 0.28625 0.68882 0.0
H1813 H 0.27973 0.25445 0.61823 0.0
H1814 H 0.27812 0.26681 0.67726 0.0
C1815 C 0.3527 0.29395 0.67523 0.0
C1816 C 0.65213 0.52269 0.15528 0.0
C1817 C 0.64462 0.53979 0.18546 0.0
H1818 H 0.64586 0.51078 0.1027 0.0
C1819 C 0.62323 0.55814 0.18289 0.0
H1820 H 0.66828 0.50818 0.1551 0.0
C1821 C 0.61038 0.55969 0.15286 0.0
C1822 C 0.6178 0.54301 0.1227 0.0
H1823 H 0.6161 0.57188 0.20461 0.0
H1824 H 0.59436 0.57442 0.15348 0.0
C1825 C 0.63907 0.52427 0.12478 0.0
C1826 C 0.30935 0.8966 0.91119 0.0
C1827 C 0.33522 0.90513 0.93297 0.0
H1828 H 0.28609 0.86579 0.86598 0.0
C1829 C 0.35738 0.88751 0.92515 0.0
H1830 H 0.29178 0.90938 0.91621 0.0
C1831 C 0.35422 0.86286 0.89658 0.0
C1832 C 0.32859 0.85435 0.87477 0.0
H1833 H 0.37773 0.89299 0.941 0.0
H1834 H 0.37212 0.85054 0.89147 0.0
C1835 C 0.30599 0.87135 0.88254 0.0
C1836 C 0.99492 0.48763 0.74515 0.0
C1837 C 0.98496 0.51616 0.75167 0.0
H1838 H 1.00582 0.45156 0.70756 0.0
C1839 C 0.96237 0.51819 0.73006 0.0
H1840 H 1.01079 0.4842 0.76244 0.0
C1841 C 0.95924 0.4993 0.69808 0.0
C1842 C 0.97887 0.47894 0.68877 0.0
H1843 H 0.95258 0.53887 0.73536 0.0
H1844 H 0.94649 0.50561 0.68002 0.0
C1845 C 0.9922 0.46895 0.71323 0.0
C1846 C 0.34969 0.29612 0.44128 0.0
C1847 C 0.32684 0.2714 0.44621 0.0
H1848 H 0.36964 0.32177 0.40835 0.0
C1849 C 0.30512 0.25441 0.42012 0.0
H1850 H 0.36689 0.30976 0.46063 0.0
C1851 C 0.30702 0.26096 0.38976 0.0
C1852 C 0.33057 0.28488 0.38455 0.0
H1853 H 0.28739 0.23495 0.42266 0.0
H1854 H 0.29025 0.24679 0.37018 0.0
C1855 C 0.35143 0.30286 0.41106 0.0
C1856 C 0.45956 0.61752 0.5376 0.0
C1857 C 0.43496 0.59428 0.54221 0.0
H1858 H 0.50586 0.62931 0.52884 0.0
C1859 C 0.43978 0.56336 0.54002 0.0
H1860 H 0.45714 0.64153 0.53872 0.0
C1861 C 0.46781 0.55601 0.53337 0.0
C1862 C 0.4925 0.57936 0.52907 0.0
H1863 H 0.42164 0.5445 0.54296 0.0
H1864 H 0.47026 0.53197 0.5322 0.0
C1865 C 0.48773 0.61036 0.5316 0.0
C1866 C 0.96399 0.95129 0.56035 0.0
C1867 C 0.93733 0.95961 0.55296 0.0
H1868 H 1.0118 0.96412 0.56438 0.0
C1869 C 0.93891 0.98808 0.54355 0.0
H1870 H 0.96354 0.92967 0.56791 0.0
C1871 C 0.96648 1.00801 0.54198 0.0
C1872 C 0.99315 0.99975 0.54936 0.0
H1873 H 0.9188 0.99534 0.5379 0.0
H1874 H 0.96687 0.02973 0.53462 0.0
C1875 C 0.99163 0.97107 0.55839 0.0
C1876 C 0.92073 0.19252 0.28254 0.0
C1877 C 0.90866 0.16939 0.29938 0.0
H1878 H 0.91897 0.23655 0.26898 0.0
C1879 C 0.8832 0.176 0.31529 0.0
H1880 H 0.94031 0.18982 0.27001 0.0
C1881 C 0.87049 0.20277 0.31424 0.0
C1882 C 0.88261 0.22627 0.29807 0.0
H1883 H 0.87252 0.15991 0.32886 0.0
H1884 H 0.85086 0.2052 0.32678 0.0
C1885 C 0.90836 0.22012 0.28223 0.0
C1886 C 0.72341 0.09744 1.01006 0.0
C1887 C 0.7421 0.09491 0.03562 0.0
H1888 H 0.67958 0.09593 0.99059 0.0
C1889 C 0.72805 0.08825 0.06261 0.0
H1890 H 0.73273 0.10249 0.9887 0.0
C1891 C 0.69655 0.0842 0.06362 0.0
C1892 C 0.67811 0.08705 0.03786 0.0
H1893 H 0.74131 0.0861 0.0829 0.0
H1894 H 0.6867 0.079 0.08467 0.0
C1895 C 0.69242 0.09374 1.01118 0.0
C1896 C 0.27867 0.50539 0.27763 0.0
C1897 C 0.29509 0.51816 0.25532 0.0
H1898 H 0.279 0.4828 0.31573 0.0
C1899 C 0.32452 0.51536 0.25235 0.0
H1900 H 0.25604 0.50801 0.28063 0.0
C1901 C 0.33758 0.50009 0.2718 0.0
C1902 C 0.32165 0.48829 0.29523 0.0
H1903 H 0.33763 0.52578 0.23567 0.0
H1904 H 0.36019 0.49766 0.26844 0.0
C1905 C 0.29193 0.49103 0.29775 0.0
C1906 C 0.26602 0.43617 0.04223 0.0
C1907 C 0.2935 0.45764 0.05533 0.0
H1908 H 0.22209 0.43023 0.01955 0.0
C1909 C 0.29763 0.49005 0.05569 0.0
H1910 H 0.2623 0.41099 0.04151 0.0
C1911 C 0.27494 0.50084 0.04299 0.0
C1912 C 0.24754 0.47951 0.02969 0.0
H1913 H 0.31855 0.50718 0.0655 0.0
H1914 H 0.27875 0.52611 0.04403 0.0
C1915 C 0.24309 0.4471 0.02962 0.0
C1916 C 0.9146 0.94503 0.27638 0.0
C1917 C 0.90507 0.97083 0.29717 0.0
H1918 H 0.91036 0.89335 0.25912 0.0
C1919 C 0.88215 0.96128 0.31626 0.0
H1920 H 0.93216 0.95039 0.26125 0.0
C1921 C 0.86945 0.9286 0.31484 0.0
C1922 C 0.87899 0.90272 0.29463 0.0
H1923 H 0.87361 0.97942 0.33277 0.0
H1924 H 0.85196 0.92368 0.3302 0.0
C1925 C 0.90205 0.91188 0.27534 0.0
C1926 C 0.80197 0.16836 0.79182 0.0
C1927 C 0.77831 0.15153 0.76803 0.0
H1928 H 0.83587 0.21132 0.81043 0.0
C1929 C 0.77392 0.16324 0.74117 0.0
H1930 H 0.80621 0.15954 0.81246 0.0
C1931 C 0.79113 0.19316 0.73999 0.0
C1932 C 0.81276 0.21131 0.76561 0.0
H1933 H 0.75581 0.1506 0.72251 0.0
H1934 H 0.78587 0.20318 0.72056 0.0
C1935 C 0.81902 0.19793 0.79061 0.0
loop_
_geom_bond_atom_site_label_1
_geom_bond_atom_site_label_2
_geom_bond_distance
_geom_bond_site_symmetry_2
_ccdc_geom_bond_type
Mg0 O1 2.028 . S
Mg0 O7 1.986 . S
Mg0 O9 2.114 . S
Mg0 O10 2.251 . S
Mg0 O13 2.010 . S
O1 Mg0 2.028 . S
O1 C4 1.250 . S
O2 Mg3 2.028 . S
O2 C4 1.248 . S
Mg3 O2 2.028 . S
Mg3 O8 2.032 . S
Mg3 O10 2.079 . S
C4 O1 1.250 . S
C4 O2 1.248 . S
C5 O6 1.264 . S
C5 O13 1.249 . S
O6 C5 1.264 . S
O7 Mg0 1.986 . S
O7 C11 1.246 . S
O8 Mg3 2.032 . S
O8 C11 1.259 . S
O9 Mg0 2.114 . S
O9 C12 1.252 . S
O10 Mg0 2.251 . S
O10 Mg3 2.079 . S
O10 C12 1.273 . S
C11 O7 1.246 . S
C11 O8 1.259 . S
C12 O9 1.252 . S
C12 O10 1.273 . S
O13 Mg0 2.010 . S
O13 C5 1.249 . S
Mg14 O15 2.028 . S
Mg14 O21 1.986 . S
Mg14 O23 2.114 1_455 S
Mg14 O24 2.251 1_455 S
Mg14 O27 2.010 . S
O15 Mg14 2.028 . S
O15 C18 1.250 1_455 S
O16 Mg17 2.028 . S
O16 C18 1.248 . S
Mg17 O16 2.028 . S
Mg17 O22 2.032 . S
Mg17 O24 2.079 . S
C18 O15 1.250 1_655 S
C18 O16 1.248 . S
C19 O20 1.264 . S
C19 O27 1.249 . S
O20 C19 1.264 . S
O21 Mg14 1.986 . S
O21 C25 1.246 1_455 S
O22 Mg17 2.032 . S
O22 C25 1.259 . S
O23 Mg14 2.114 1_655 S
O23 C26 1.252 . S
O24 Mg14 2.251 1_655 S
O24 Mg17 2.079 . S
O24 C26 1.273 . S
C25 O21 1.246 1_655 S
C25 O22 1.259 . S
C26 O23 1.252 . S
C26 O24 1.273 . S
O27 Mg14 2.010 . S
O27 C19 1.249 . S
Mg28 O29 2.028 . S
Mg28 O35 1.986 . S
Mg28 O37 2.114 . S
Mg28 O38 2.251 . S
Mg28 O41 2.010 . S
O29 Mg28 2.028 . S
O29 C32 1.250 . S
O30 Mg31 2.028 . S
O30 C32 1.248 . S
Mg31 O30 2.028 . S
Mg31 O36 2.032 . S
Mg31 O38 2.079 . S
C32 O29 1.250 . S
C32 O30 1.248 . S
C33 O34 1.264 . S
C33 O41 1.249 . S
O34 C33 1.264 . S
O35 Mg28 1.986 . S
O35 C39 1.246 . S
O36 Mg31 2.032 . S
O36 C39 1.259 . S
O37 Mg28 2.114 . S
O37 C40 1.252 . S
O38 Mg28 2.251 . S
O38 Mg31 2.079 . S
O38 C40 1.273 . S
C39 O35 1.246 . S
C39 O36 1.259 . S
C40 O37 1.252 . S
C40 O38 1.273 . S
O41 Mg28 2.010 . S
O41 C33 1.249 . S
Mg42 O43 2.028 . S
Mg42 O49 1.986 . S
Mg42 O51 2.114 . S
Mg42 O52 2.251 . S
Mg42 O55 2.010 . S
O43 Mg42 2.028 . S
O43 C46 1.250 . S
O44 Mg45 2.028 . S
O44 C46 1.248 . S
Mg45 O44 2.028 . S
Mg45 O50 2.032 . S
Mg45 O52 2.079 . S
C46 O43 1.250 . S
C46 O44 1.248 . S
C47 O48 1.264 . S
C47 O55 1.249 . S
O48 C47 1.264 . S
O49 Mg42 1.986 . S
O49 C53 1.246 . S
O50 Mg45 2.032 . S
O50 C53 1.259 . S
O51 Mg42 2.114 . S
O51 C54 1.252 . S
O52 Mg42 2.251 . S
O52 Mg45 2.079 . S
O52 C54 1.273 . S
C53 O49 1.246 . S
C53 O50 1.259 . S
C54 O51 1.252 . S
C54 O52 1.273 . S
O55 Mg42 2.010 . S
O55 C47 1.249 . S
Mg56 O57 2.028 . S
Mg56 O63 1.986 . S
Mg56 O65 2.114 . S
Mg56 O66 2.251 . S
Mg56 O69 2.010 . S
O57 Mg56 2.028 . S
O57 C60 1.250 . S
O58 Mg59 2.028 . S
O58 C60 1.248 . S
Mg59 O58 2.028 . S
Mg59 O64 2.032 . S
Mg59 O66 2.079 . S
C60 O57 1.250 . S
C60 O58 1.248 . S
C61 O62 1.264 . S
C61 O69 1.249 . S
O62 C61 1.264 . S
O63 Mg56 1.986 . S
O63 C67 1.246 . S
O64 Mg59 2.032 . S
O64 C67 1.259 . S
O65 Mg56 2.114 . S
O65 C68 1.252 . S
O66 Mg56 2.251 . S
O66 Mg59 2.079 . S
O66 C68 1.273 . S
C67 O63 1.246 . S
C67 O64 1.259 . S
C68 O65 1.252 . S
C68 O66 1.273 . S
O69 Mg56 2.010 . S
O69 C61 1.249 . S
Mg70 O71 2.028 . S
Mg70 O77 1.986 . S
Mg70 O79 2.114 . S
Mg70 O80 2.251 . S
Mg70 O83 2.010 . S
O71 Mg70 2.028 . S
O71 C74 1.250 . S
O72 Mg73 2.028 . S
O72 C74 1.248 . S
Mg73 O72 2.028 . S
Mg73 O78 2.032 . S
Mg73 O80 2.079 . S
C74 O71 1.250 . S
C74 O72 1.248 . S
C75 O76 1.264 . S
C75 O83 1.249 . S
O76 C75 1.264 . S
O77 Mg70 1.986 . S
O77 C81 1.246 . S
O78 Mg73 2.032 . S
O78 C81 1.259 . S
O79 Mg70 2.114 . S
O79 C82 1.252 . S
O80 Mg70 2.251 . S
O80 Mg73 2.079 . S
O80 C82 1.273 . S
C81 O77 1.246 . S
C81 O78 1.259 . S
C82 O79 1.252 . S
C82 O80 1.273 . S
O83 Mg70 2.010 . S
O83 C75 1.249 . S
Mg84 O85 2.028 . S
Mg84 O91 1.986 . S
Mg84 O93 2.114 . S
Mg84 O94 2.251 . S
Mg84 O97 2.010 . S
O85 Mg84 2.028 . S
O85 C88 1.250 . S
O86 Mg87 2.028 . S
O86 C88 1.248 . S
Mg87 O86 2.028 . S
Mg87 O92 2.032 . S
Mg87 O94 2.079 . S
C88 O85 1.250 . S
C88 O86 1.248 . S
C89 O90 1.264 . S
C89 O97 1.249 . S
O90 C89 1.264 . S
O91 Mg84 1.986 . S
O91 C95 1.246 . S
O92 Mg87 2.032 . S
O92 C95 1.259 . S
O93 Mg84 2.114 . S
O93 C96 1.252 . S
O94 Mg84 2.251 . S
O94 Mg87 2.079 . S
O94 C96 1.273 . S
C95 O91 1.246 . S
C95 O92 1.259 . S
C96 O93 1.252 . S
C96 O94 1.273 . S
O97 Mg84 2.010 . S
O97 C89 1.249 . S
Mg98 O99 2.028 . S
Mg98 O105 1.986 . S
Mg98 O107 2.114 1_455 S
Mg98 O108 2.251 1_455 S
Mg98 O111 2.010 . S
O99 Mg98 2.028 . S
O99 C102 1.250 . S
O100 Mg101 2.015 1_455 S
O100 C102 1.269 . S
Mg101 O100 2.015 1_655 S
Mg101 O106 2.032 . S
Mg101 O108 2.079 . S
C102 O99 1.250 . S
C102 O100 1.269 . S
C103 O104 1.264 . S
C103 O111 1.249 . S
O104 C103 1.264 . S
O105 Mg98 1.986 . S
O105 C109 1.246 . S
O106 Mg101 2.032 . S
O106 C109 1.259 1_655 S
O107 Mg98 2.114 1_655 S
O107 C110 1.252 . S
O108 Mg98 2.251 1_655 S
O108 Mg101 2.079 . S
O108 C110 1.273 . S
C109 O105 1.246 . S
C109 O106 1.259 1_455 S
C110 O107 1.252 . S
C110 O108 1.273 . S
O111 Mg98 2.010 . S
O111 C103 1.249 . S
Mg112 O113 2.028 1_545 S
Mg112 O119 1.986 . S
Mg112 O121 2.114 . S
Mg112 O122 2.251 . S
Mg112 O125 2.010 . S
O113 Mg112 2.028 1_565 S
O113 C116 1.250 . S
O114 Mg115 2.028 1_565 S
O114 C116 1.248 . S
Mg115 O114 2.028 1_545 S
Mg115 O120 2.032 . S
Mg115 O122 2.079 . S
C116 O113 1.250 . S
C116 O114 1.248 . S
C117 O118 1.264 . S
C117 O125 1.249 . S
O118 C117 1.264 . S
O119 Mg112 1.986 . S
O119 C123 1.246 . S
O120 Mg115 2.032 . S
O120 C123 1.259 . S
O121 Mg112 2.114 . S
O121 C124 1.252 . S
O122 Mg112 2.251 . S
O122 Mg115 2.079 . S
O122 C124 1.273 . S
C123 O119 1.246 . S
C123 O120 1.259 . S
C124 O121 1.252 . S
C124 O122 1.273 . S
O125 Mg112 2.010 . S
O125 C117 1.249 . S
Mg126 O127 2.028 . S
Mg126 O133 1.986 . S
Mg126 O135 2.114 . S
Mg126 O136 2.251 . S
Mg126 O139 2.010 . S
O127 Mg126 2.028 . S
O127 C130 1.250 . S
O128 Mg129 2.028 . S
O128 C130 1.248 . S
Mg129 O128 2.028 . S
Mg129 O134 2.032 . S
Mg129 O136 2.079 . S
C130 O127 1.250 . S
C130 O128 1.248 . S
C131 O132 1.264 . S
C131 O139 1.249 . S
O132 C131 1.264 . S
O133 Mg126 1.986 . S
O133 C137 1.246 . S
O134 Mg129 2.032 . S
O134 C137 1.259 . S
O135 Mg126 2.114 . S
O135 C138 1.252 . S
O136 Mg126 2.251 . S
O136 Mg129 2.079 . S
O136 C138 1.273 . S
C137 O133 1.246 . S
C137 O134 1.259 . S
C138 O135 1.252 . S
C138 O136 1.273 . S
O139 Mg126 2.010 . S
O139 C131 1.249 . S
Mg140 O141 2.028 . S
Mg140 O147 1.986 1_545 S
Mg140 O149 2.114 . S
Mg140 O150 2.251 . S
Mg140 O153 2.010 1_545 S
O141 Mg140 2.028 . S
O141 C144 1.250 . S
O142 Mg143 2.028 . S
O142 C144 1.248 . S
Mg143 O142 2.028 . S
Mg143 O148 2.032 1_545 S
Mg143 O150 2.079 . S
C144 O141 1.250 . S
C144 O142 1.248 . S
C145 O146 1.264 . S
C145 O153 1.249 . S
O146 C145 1.264 . S
O147 Mg140 1.986 1_565 S
O147 C151 1.246 . S
O148 Mg143 2.032 1_565 S
O148 C151 1.259 . S
O149 Mg140 2.114 . S
O149 C152 1.252 . S
O150 Mg140 2.251 . S
O150 Mg143 2.079 . S
O150 C152 1.273 . S
C151 O147 1.246 . S
C151 O148 1.259 . S
C152 O149 1.252 . S
C152 O150 1.273 . S
O153 Mg140 2.010 1_565 S
O153 C145 1.249 . S
Mg154 O155 2.028 1_554 S
Mg154 O161 1.986 . S
Mg154 O163 2.114 1_565 S
Mg154 O164 2.251 . S
Mg154 O167 2.010 . S
O155 Mg154 2.028 1_556 S
O155 C158 1.250 . S
O156 Mg157 2.028 1_556 S
O156 C158 1.248 . S
Mg157 O156 2.028 1_554 S
Mg157 O162 2.032 . S
Mg157 O164 2.079 . S
C158 O155 1.250 . S
C158 O156 1.248 . S
C159 O160 1.264 . S
C159 O167 1.249 1_545 S
O160 C159 1.264 . S
O161 Mg154 1.986 . S
O161 C165 1.246 . S
O162 Mg157 2.032 . S
O162 C165 1.259 . S
O163 Mg154 2.114 1_545 S
O163 C166 1.248 1_545 S
O164 Mg154 2.251 . S
O164 Mg157 2.079 . S
O164 C166 1.279 . S
C165 O161 1.246 . S
C165 O162 1.259 . S
C166 O163 1.248 1_565 S
C166 O164 1.279 . S
O167 Mg154 2.010 . S
O167 C159 1.249 1_565 S
Mg168 O169 2.028 1_554 S
Mg168 O175 1.986 . S
Mg168 O177 2.114 . S
Mg168 O178 2.251 . S
Mg168 O181 2.010 . S
O169 Mg168 2.028 1_556 S
O169 C172 1.250 . S
O170 Mg171 2.028 1_556 S
O170 C172 1.248 . S
Mg171 O170 2.028 1_554 S
Mg171 O176 2.032 . S
Mg171 O178 2.079 . S
C172 O169 1.250 . S
C172 O170 1.248 . S
C173 O174 1.264 . S
C173 O181 1.249 . S
O174 C173 1.264 . S
O175 Mg168 1.986 . S
O175 C179 1.246 . S
O176 Mg171 2.032 . S
O176 C179 1.259 . S
O177 Mg168 2.114 . S
O177 C180 1.252 . S
O178 Mg168 2.251 . S
O178 Mg171 2.079 . S
O178 C180 1.273 . S
C179 O175 1.246 . S
C179 O176 1.259 . S
C180 O177 1.252 . S
C180 O178 1.273 . S
O181 Mg168 2.010 . S
O181 C173 1.249 . S
Mg182 O183 2.028 . S
Mg182 O189 1.986 1_554 S
Mg182 O191 2.114 . S
Mg182 O192 2.251 . S
Mg182 O195 2.010 . S
O183 Mg182 2.028 . S
O183 C186 1.250 . S
O184 Mg185 2.028 . S
O184 C186 1.248 . S
Mg185 O184 2.028 . S
Mg185 O190 2.032 . S
Mg185 O192 2.079 . S
C186 O183 1.250 . S
C186 O184 1.248 . S
C187 O188 1.264 1_554 S
C187 O195 1.249 . S
O188 C187 1.264 1_556 S
O189 Mg182 1.986 1_556 S
O189 C193 1.246 . S
O190 Mg185 2.032 . S
O190 C193 1.259 1_554 S
O191 Mg182 2.114 . S
O191 C194 1.252 . S
O192 Mg182 2.251 . S
O192 Mg185 2.079 . S
O192 C194 1.273 . S
C193 O189 1.246 . S
C193 O190 1.259 1_556 S
C194 O191 1.252 . S
C194 O192 1.273 . S
O195 Mg182 2.010 . S
O195 C187 1.249 . S
Mg196 O197 2.028 . S
Mg196 O203 1.986 . S
Mg196 O205 2.114 . S
Mg196 O206 2.251 . S
Mg196 O209 2.010 . S
O197 Mg196 2.028 . S
O197 C200 1.250 . S
O198 Mg199 2.028 . S
O198 C200 1.248 . S
Mg199 O198 2.028 . S
Mg199 O204 2.032 . S
Mg199 O206 2.079 . S
C200 O197 1.250 . S
C200 O198 1.248 . S
C201 O202 1.264 . S
C201 O209 1.249 . S
O202 C201 1.264 . S
O203 Mg196 1.986 . S
O203 C207 1.246 . S
O204 Mg199 2.032 . S
O204 C207 1.259 . S
O205 Mg196 2.114 . S
O205 C208 1.252 . S
O206 Mg196 2.251 . S
O206 Mg199 2.079 . S
O206 C208 1.273 . S
C207 O203 1.246 . S
C207 O204 1.259 . S
C208 O205 1.252 . S
C208 O206 1.273 . S
O209 Mg196 2.010 . S
O209 C201 1.249 . S
Mg210 O211 2.028 . S
Mg210 O217 1.986 . S
Mg210 O219 2.114 . S
Mg210 O220 2.251 . S
Mg210 O223 2.010 . S
O211 Mg210 2.028 . S
O211 C214 1.250 . S
O212 Mg213 2.028 . S
O212 C214 1.248 . S
Mg213 O212 2.028 . S
Mg213 O218 2.032 . S
Mg213 O220 2.079 . S
C214 O211 1.250 . S
C214 O212 1.248 . S
C215 O216 1.264 . S
C215 O223 1.249 . S
O216 C215 1.264 . S
O217 Mg210 1.986 . S
O217 C221 1.246 . S
O218 Mg213 2.032 . S
O218 C221 1.259 . S
O219 Mg210 2.114 . S
O219 C222 1.252 . S
O220 Mg210 2.251 . S
O220 Mg213 2.079 . S
O220 C222 1.273 . S
C221 O217 1.246 . S
C221 O218 1.259 . S
C222 O219 1.252 . S
C222 O220 1.273 . S
O223 Mg210 2.010 . S
O223 C215 1.249 . S
Mg224 O225 2.028 . S
Mg224 O231 1.986 . S
Mg224 O233 2.114 . S
Mg224 O234 2.251 . S
Mg224 O237 2.010 . S
O225 Mg224 2.028 . S
O225 C228 1.250 . S
O226 Mg227 2.028 . S
O226 C228 1.248 . S
Mg227 O226 2.028 . S
Mg227 O232 2.032 . S
Mg227 O234 2.079 . S
C228 O225 1.250 . S
C228 O226 1.248 . S
C229 O230 1.264 1_655 S
C229 O237 1.249 . S
O230 C229 1.264 1_455 S
O231 Mg224 1.986 . S
O231 C235 1.246 . S
O232 Mg227 2.032 . S
O232 C235 1.259 . S
O233 Mg224 2.114 . S
O233 C236 1.252 . S
O234 Mg224 2.251 . S
O234 Mg227 2.079 . S
O234 C236 1.273 . S
C235 O231 1.246 . S
C235 O232 1.259 . S
C236 O233 1.252 . S
C236 O234 1.273 . S
O237 Mg224 2.010 . S
O237 C229 1.249 . S
Mg238 O239 2.028 . S
Mg238 O245 1.986 . S
Mg238 O247 2.114 . S
Mg238 O248 2.251 . S
Mg238 O251 2.010 . S
O239 Mg238 2.028 . S
O239 C242 1.250 . S
O240 Mg241 2.028 . S
O240 C242 1.248 . S
Mg241 O240 2.028 . S
Mg241 O246 2.032 . S
Mg241 O248 2.079 . S
C242 O239 1.250 . S
C242 O240 1.248 . S
C243 O244 1.264 . S
C243 O251 1.249 . S
O244 C243 1.264 . S
O245 Mg238 1.986 . S
O245 C249 1.246 . S
O246 Mg241 2.032 . S
O246 C249 1.259 . S
O247 Mg238 2.114 . S
O247 C250 1.252 . S
O248 Mg238 2.251 . S
O248 Mg241 2.079 . S
O248 C250 1.273 . S
C249 O245 1.246 . S
C249 O246 1.259 . S
C250 O247 1.252 . S
C250 O248 1.273 . S
O251 Mg238 2.010 . S
O251 C243 1.249 . S
Mg252 O253 2.028 . S
Mg252 O259 1.986 . S
Mg252 O261 2.114 . S
Mg252 O262 2.251 . S
Mg252 O265 2.010 . S
O253 Mg252 2.028 . S
O253 C256 1.250 . S
O254 Mg255 2.028 . S
O254 C256 1.248 . S
Mg255 O254 2.028 . S
Mg255 O260 2.032 . S
Mg255 O262 2.079 . S
C256 O253 1.250 . S
C256 O254 1.248 . S
C257 O258 1.264 . S
C257 O265 1.249 . S
O258 C257 1.264 . S
O259 Mg252 1.986 . S
O259 C263 1.246 . S
O260 Mg255 2.032 . S
O260 C263 1.259 . S
O261 Mg252 2.114 . S
O261 C264 1.252 . S
O262 Mg252 2.251 . S
O262 Mg255 2.079 . S
O262 C264 1.273 . S
C263 O259 1.246 . S
C263 O260 1.259 . S
C264 O261 1.252 . S
C264 O262 1.273 . S
O265 Mg252 2.010 . S
O265 C257 1.249 . S
Mg266 O267 2.028 . S
Mg266 O273 1.986 . S
Mg266 O275 2.114 . S
Mg266 O276 2.251 . S
Mg266 O279 2.010 . S
O267 Mg266 2.028 . S
O267 C270 1.250 . S
O268 Mg269 2.028 . S
O268 C270 1.248 . S
Mg269 O268 2.028 . S
Mg269 O274 2.032 . S
Mg269 O276 2.079 . S
C270 O267 1.250 . S
C270 O268 1.248 . S
C271 O272 1.264 . S
C271 O279 1.249 . S
O272 C271 1.264 . S
O273 Mg266 1.986 . S
O273 C277 1.246 . S
O274 Mg269 2.032 . S
O274 C277 1.259 . S
O275 Mg266 2.114 . S
O275 C278 1.252 . S
O276 Mg266 2.251 . S
O276 Mg269 2.079 . S
O276 C278 1.273 . S
C277 O273 1.246 . S
C277 O274 1.259 . S
C278 O275 1.252 . S
C278 O276 1.273 . S
O279 Mg266 2.010 . S
O279 C271 1.249 . S
Mg280 O281 2.028 . S
Mg280 O287 1.986 1_554 S
Mg280 O289 2.114 . S
Mg280 O290 2.251 . S
Mg280 O293 2.010 1_554 S
O281 Mg280 2.028 . S
O281 C284 1.250 . S
O282 Mg283 2.028 . S
O282 C284 1.248 . S
Mg283 O282 2.028 . S
Mg283 O288 2.032 1_554 S
Mg283 O290 2.079 . S
C284 O281 1.250 . S
C284 O282 1.248 . S
C285 O286 1.264 . S
C285 O293 1.249 . S
O286 C285 1.264 . S
O287 Mg280 1.986 1_556 S
O287 C291 1.246 . S
O288 Mg283 2.032 1_556 S
O288 C291 1.259 . S
O289 Mg280 2.114 . S
O289 C292 1.252 . S
O290 Mg280 2.251 . S
O290 Mg283 2.079 . S
O290 C292 1.273 . S
C291 O287 1.246 . S
C291 O288 1.259 . S
C292 O289 1.252 . S
C292 O290 1.273 . S
O293 Mg280 2.010 1_556 S
O293 C285 1.249 . S
Mg294 O295 2.028 . S
Mg294 O301 1.986 . S
Mg294 O303 2.114 . S
Mg294 O304 2.251 . S
Mg294 O307 2.010 . S
O295 Mg294 2.028 . S
O295 C298 1.250 . S
O296 Mg297 2.028 . S
O296 C298 1.248 . S
Mg297 O296 2.028 . S
Mg297 O302 2.032 . S
Mg297 O304 2.079 . S
C298 O295 1.250 . S
C298 O296 1.248 . S
C299 O300 1.264 1_655 S
C299 O307 1.249 . S
O300 C299 1.264 1_455 S
O301 Mg294 1.986 . S
O301 C305 1.246 . S
O302 Mg297 2.032 . S
O302 C305 1.259 . S
O303 Mg294 2.114 . S
O303 C306 1.252 . S
O304 Mg294 2.251 . S
O304 Mg297 2.079 . S
O304 C306 1.273 . S
C305 O301 1.246 . S
C305 O302 1.259 . S
C306 O303 1.252 . S
C306 O304 1.273 . S
O307 Mg294 2.010 . S
O307 C299 1.249 . S
Mg308 O309 2.028 . S
Mg308 O315 1.986 . S
Mg308 O317 2.114 . S
Mg308 O318 2.251 . S
Mg308 O321 2.010 . S
O309 Mg308 2.028 . S
O309 C312 1.250 . S
O310 Mg311 2.028 . S
O310 C312 1.248 . S
Mg311 O310 2.028 . S
Mg311 O316 2.032 . S
Mg311 O318 2.079 . S
C312 O309 1.250 . S
C312 O310 1.248 . S
C313 O314 1.264 . S
C313 O321 1.249 . S
O314 C313 1.264 . S
O315 Mg308 1.986 . S
O315 C319 1.246 . S
O316 Mg311 2.032 . S
O316 C319 1.259 . S
O317 Mg308 2.114 . S
O317 C320 1.252 . S
O318 Mg308 2.251 . S
O318 Mg311 2.079 . S
O318 C320 1.273 . S
C319 O315 1.246 . S
C319 O316 1.259 . S
C320 O317 1.252 . S
C320 O318 1.273 . S
O321 Mg308 2.010 . S
O321 C313 1.249 . S
Mg322 O323 2.028 . S
Mg322 O329 1.986 . S
Mg322 O331 2.114 . S
Mg322 O332 2.251 . S
Mg322 O335 2.010 . S
O323 Mg322 2.028 . S
O323 C326 1.250 . S
O324 Mg325 2.028 . S
O324 C326 1.248 . S
Mg325 O324 2.028 . S
Mg325 O330 2.032 . S
Mg325 O332 2.079 . S
C326 O323 1.250 . S
C326 O324 1.248 . S
C327 O328 1.264 . S
C327 O335 1.249 . S
O328 C327 1.264 . S
O329 Mg322 1.986 . S
O329 C333 1.246 . S
O330 Mg325 2.032 . S
O330 C333 1.259 . S
O331 Mg322 2.114 . S
O331 C334 1.252 . S
O332 Mg322 2.251 . S
O332 Mg325 2.079 . S
O332 C334 1.273 . S
C333 O329 1.246 . S
C333 O330 1.259 . S
C334 O331 1.252 . S
C334 O332 1.273 . S
O335 Mg322 2.010 . S
O335 C327 1.249 . S
Eu336 C345 2.828 . S
Eu336 O347 2.392 . S
Eu336 O349 2.418 . S
Eu336 O354 2.373 . S
Eu336 O357 2.488 . S
Eu336 O358 2.471 1_554 S
Eu336 O359 2.349 1_554 S
Eu337 O346 2.373 1_565 S
Eu337 O350 2.488 1_554 S
Eu337 O351 2.471 . S
Eu337 O352 2.349 1_565 S
Eu337 O355 2.392 1_564 S
Eu337 O356 2.418 1_554 S
Eu337 C366 2.828 . S
C338 O356 1.244 1_545 S
C338 O359 1.265 . S
C339 C340 1.379 1_554 S
C339 C343 1.373 . S
C339 C345 1.505 . S
C340 C339 1.379 1_556 S
C340 C342 1.369 . S
C340 H368 0.930 . S
C341 C343 1.383 . S
C341 C344 1.382 1_554 S
C341 H369 0.930 . S
C342 C340 1.369 . S
C342 C344 1.392 . S
C342 H370 0.930 . S
C343 C339 1.373 . S
C343 C341 1.383 . S
C343 H371 0.931 . S
C344 C341 1.382 1_556 S
C344 C342 1.392 . S
C345 Eu336 2.828 . S
C345 C339 1.505 . S
C345 O357 1.249 . S
C345 O358 1.244 1_554 S
O346 Eu337 2.373 1_545 S
O346 C348 1.258 . S
O347 Eu336 2.392 . S
O347 C348 1.242 . S
C348 O346 1.258 . S
C348 O347 1.242 . S
O349 Eu336 2.418 . S
O349 C353 1.244 . S
O350 Eu337 2.488 1_556 S
O350 C366 1.249 1_556 S
O351 Eu337 2.471 . S
O351 C366 1.244 . S
O352 Eu337 2.349 1_545 S
O352 C353 1.265 . S
C353 O349 1.244 . S
C353 O352 1.265 . S
O354 Eu336 2.373 . S
O354 C367 1.258 . S
O355 Eu337 2.392 1_546 S
O355 C367 1.242 1_556 S
O356 Eu337 2.418 1_556 S
O356 C338 1.244 1_565 S
O357 Eu336 2.488 . S
O357 C345 1.249 . S
O358 Eu336 2.471 1_556 S
O358 C345 1.244 1_556 S
O359 Eu336 2.349 1_556 S
O359 C338 1.265 . S
C360 C361 1.379 . S
C360 C364 1.373 . S
C360 C366 1.505 . S
C361 C360 1.379 . S
C361 C363 1.369 . S
C361 H372 0.930 . S
C362 C364 1.383 . S
C362 C365 1.382 . S
C362 H373 0.930 1_554 S
C363 C361 1.369 . S
C363 C365 1.392 . S
C363 H374 0.930 . S
C364 C360 1.373 . S
C364 C362 1.383 . S
C364 H375 0.931 1_554 S
C365 C362 1.382 . S
C365 C363 1.392 . S
C366 Eu337 2.828 . S
C366 O350 1.249 1_554 S
C366 O351 1.244 . S
C366 C360 1.505 . S
C367 O354 1.258 . S
C367 O355 1.242 1_554 S
H368 C340 0.930 . S
H369 C341 0.930 . S
H370 C342 0.930 . S
H371 C343 0.931 . S
H372 C361 0.930 . S
H373 C362 0.930 1_556 S
H374 C363 0.930 . S
H375 C364 0.931 1_556 S
Eu376 C385 2.828 . S
Eu376 O387 2.392 . S
Eu376 O389 2.418 . S
Eu376 O394 2.373 . S
Eu376 O397 2.488 . S
Eu376 O398 2.471 . S
Eu376 O399 2.349 . S
Eu377 O386 2.373 . S
Eu377 O390 2.488 . S
Eu377 O391 2.471 . S
Eu377 O392 2.349 . S
Eu377 O395 2.392 . S
Eu377 O396 2.418 . S
Eu377 C406 2.828 . S
C378 O396 1.244 . S
C378 O399 1.265 . S
C379 C380 1.379 . S
C379 C383 1.373 . S
C379 C385 1.505 . S
C380 C379 1.379 . S
C380 C382 1.369 . S
C380 H408 0.930 . S
C381 C383 1.383 . S
C381 C384 1.382 . S
C381 H409 0.930 . S
C382 C380 1.369 . S
C382 C384 1.392 . S
C382 H410 0.930 . S
C383 C379 1.373 . S
C383 C381 1.383 . S
C383 H411 0.931 . S
C384 C381 1.382 . S
C384 C382 1.392 . S
C385 Eu376 2.828 . S
C385 C379 1.505 . S
C385 O397 1.249 . S
C385 O398 1.244 . S
O386 Eu377 2.373 . S
O386 C388 1.258 . S
O387 Eu376 2.392 . S
O387 C388 1.242 . S
C388 O386 1.258 . S
C388 O387 1.242 . S
O389 Eu376 2.418 . S
O389 C393 1.244 . S
O390 Eu377 2.488 . S
O390 C406 1.249 . S
O391 Eu377 2.471 . S
O391 C406 1.244 . S
O392 Eu377 2.349 . S
O392 C393 1.265 . S
C393 O389 1.244 . S
C393 O392 1.265 . S
O394 Eu376 2.373 . S
O394 C407 1.258 . S
O395 Eu377 2.392 . S
O395 C407 1.242 . S
O396 Eu377 2.418 . S
O396 C378 1.244 . S
O397 Eu376 2.488 . S
O397 C385 1.249 . S
O398 Eu376 2.471 . S
O398 C385 1.244 . S
O399 Eu376 2.349 . S
O399 C378 1.265 . S
C400 C401 1.379 . S
C400 C404 1.373 . S
C400 C406 1.505 . S
C401 C400 1.379 . S
C401 C403 1.369 . S
C401 H412 0.930 . S
C402 C404 1.383 . S
C402 C405 1.382 . S
C402 H413 0.930 . S
C403 C401 1.369 . S
C403 C405 1.392 . S
C403 H414 0.930 . S
C404 C400 1.373 . S
C404 C402 1.383 . S
C404 H415 0.931 . S
C405 C402 1.382 . S
C405 C403 1.392 . S
C406 Eu377 2.828 . S
C406 O390 1.249 . S
C406 O391 1.244 . S
C406 C400 1.505 . S
C407 O394 1.258 . S
C407 O395 1.242 . S
H408 C380 0.930 . S
H409 C381 0.930 . S
H410 C382 0.930 . S
H411 C383 0.931 . S
H412 C401 0.930 . S
H413 C402 0.930 . S
H414 C403 0.930 . S
H415 C404 0.931 . S
Eu416 C425 2.828 . S
Eu416 O427 2.392 . S
Eu416 O429 2.418 . S
Eu416 O434 2.373 1_545 S
Eu416 O437 2.488 . S
Eu416 O438 2.471 . S
Eu416 O439 2.349 . S
Eu417 O426 2.373 . S
Eu417 O430 2.488 . S
Eu417 O431 2.471 . S
Eu417 O432 2.349 . S
Eu417 O435 2.392 1_545 S
Eu417 O436 2.418 . S
Eu417 C446 2.828 . S
C418 O436 1.244 . S
C418 O439 1.265 . S
C419 C420 1.379 . S
C419 C423 1.373 . S
C419 C425 1.505 1_565 S
C420 C419 1.379 . S
C420 C422 1.369 . S
C420 H448 0.930 . S
C421 C423 1.383 . S
C421 C424 1.382 . S
C421 H449 0.930 . S
C422 C420 1.369 . S
C422 C424 1.392 . S
C422 H450 0.930 . S
C423 C419 1.373 . S
C423 C421 1.383 . S
C423 H451 0.931 . S
C424 C421 1.382 . S
C424 C422 1.392 . S
C425 Eu416 2.828 . S
C425 C419 1.505 1_545 S
C425 O437 1.249 . S
C425 O438 1.244 . S
O426 Eu417 2.373 . S
O426 C428 1.258 . S
O427 Eu416 2.392 . S
O427 C428 1.242 . S
C428 O426 1.258 . S
C428 O427 1.242 . S
O429 Eu416 2.418 . S
O429 C433 1.244 . S
O430 Eu417 2.488 . S
O430 C446 1.249 . S
O431 Eu417 2.471 . S
O431 C446 1.244 . S
O432 Eu417 2.349 . S
O432 C433 1.265 . S
C433 O429 1.244 . S
C433 O432 1.265 . S
O434 Eu416 2.373 1_565 S
O434 C447 1.258 . S
O435 Eu417 2.392 1_565 S
O435 C447 1.242 . S
O436 Eu417 2.418 . S
O436 C418 1.244 . S
O437 Eu416 2.488 . S
O437 C425 1.249 . S
O438 Eu416 2.471 . S
O438 C425 1.244 . S
O439 Eu416 2.349 . S
O439 C418 1.265 . S
C440 C441 1.379 . S
C440 C444 1.373 . S
C440 C446 1.505 . S
C441 C440 1.379 . S
C441 C443 1.369 . S
C441 H452 0.930 . S
C442 C444 1.383 . S
C442 C445 1.382 . S
C442 H453 0.930 . S
C443 C441 1.369 . S
C443 C445 1.392 . S
C443 H454 0.930 . S
C444 C440 1.373 . S
C444 C442 1.383 . S
C444 H455 0.931 . S
C445 C442 1.382 . S
C445 C443 1.392 . S
C446 Eu417 2.828 . S
C446 O430 1.249 . S
C446 O431 1.244 . S
C446 C440 1.505 . S
C447 O434 1.258 . S
C447 O435 1.242 . S
H448 C420 0.930 . S
H449 C421 0.930 . S
H450 C422 0.930 . S
H451 C423 0.931 . S
H452 C441 0.930 . S
H453 C442 0.930 . S
H454 C443 0.930 . S
H455 C444 0.931 . S
Eu456 C465 2.828 . S
Eu456 O467 2.392 . S
Eu456 O469 2.418 . S
Eu456 O474 2.373 . S
Eu456 O477 2.488 . S
Eu456 O478 2.471 . S
Eu456 O479 2.349 . S
Eu457 O466 2.373 . S
Eu457 O470 2.488 . S
Eu457 O471 2.471 . S
Eu457 O472 2.349 . S
Eu457 O475 2.392 . S
Eu457 O476 2.418 . S
Eu457 C486 2.828 . S
C458 O476 1.244 . S
C458 O479 1.265 . S
C459 C460 1.379 . S
C459 C463 1.373 . S
C459 C465 1.505 . S
C460 C459 1.379 . S
C460 C462 1.369 . S
C460 H488 0.930 . S
C461 C463 1.383 . S
C461 C464 1.382 . S
C461 H489 0.930 . S
C462 C460 1.369 . S
C462 C464 1.392 . S
C462 H490 0.930 . S
C463 C459 1.373 . S
C463 C461 1.383 . S
C463 H491 0.931 . S
C464 C461 1.382 . S
C464 C462 1.392 . S
C465 Eu456 2.828 . S
C465 C459 1.505 . S
C465 O477 1.249 . S
C465 O478 1.244 . S
O466 Eu457 2.373 . S
O466 C468 1.258 . S
O467 Eu456 2.392 . S
O467 C468 1.242 . S
C468 O466 1.258 . S
C468 O467 1.242 . S
O469 Eu456 2.418 . S
O469 C473 1.244 . S
O470 Eu457 2.488 . S
O470 C486 1.249 . S
O471 Eu457 2.471 . S
O471 C486 1.244 . S
O472 Eu457 2.349 . S
O472 C473 1.265 . S
C473 O469 1.244 . S
C473 O472 1.265 . S
O474 Eu456 2.373 . S
O474 C487 1.258 . S
O475 Eu457 2.392 . S
O475 C487 1.242 . S
O476 Eu457 2.418 . S
O476 C458 1.244 . S
O477 Eu456 2.488 . S
O477 C465 1.249 . S
O478 Eu456 2.471 . S
O478 C465 1.244 . S
O479 Eu456 2.349 . S
O479 C458 1.265 . S
C480 C481 1.379 . S
C480 C484 1.373 . S
C480 C486 1.505 . S
C481 C480 1.379 . S
C481 C483 1.369 . S
C481 H492 0.930 . S
C482 C484 1.383 . S
C482 C485 1.382 . S
C482 H493 0.930 . S
C483 C481 1.369 . S
C483 C485 1.392 . S
C483 H494 0.930 . S
C484 C480 1.373 . S
C484 C482 1.383 . S
C484 H495 0.931 . S
C485 C482 1.382 . S
C485 C483 1.392 . S
C486 Eu457 2.828 . S
C486 O470 1.249 . S
C486 O471 1.244 . S
C486 C480 1.505 . S
C487 O474 1.258 . S
C487 O475 1.242 . S
H488 C460 0.930 . S
H489 C461 0.930 . S
H490 C462 0.930 . S
H491 C463 0.931 . S
H492 C481 0.930 . S
H493 C482 0.930 . S
H494 C483 0.930 . S
H495 C484 0.931 . S
Eu496 C505 2.828 . S
Eu496 O507 2.392 . S
Eu496 O509 2.418 . S
Eu496 O514 2.373 . S
Eu496 O517 2.488 . S
Eu496 O518 2.471 . S
Eu496 O519 2.349 . S
Eu497 O506 2.374 . S
Eu497 O510 2.458 1_545 S
Eu497 O511 2.442 1_545 S
Eu497 O512 2.364 . S
Eu497 O515 2.417 . S
Eu497 O516 2.430 . S
Eu497 C526 2.795 1_545 S
C498 O516 1.244 . S
C498 O519 1.265 . S
C499 C500 1.379 . S
C499 C503 1.373 . S
C499 C505 1.505 . S
C500 C499 1.379 . S
C500 C502 1.369 . S
C500 H528 0.930 . S
C501 C503 1.383 . S
C501 C504 1.382 . S
C501 H529 0.930 . S
C502 C500 1.369 . S
C502 C504 1.392 . S
C502 H530 0.930 . S
C503 C499 1.373 . S
C503 C501 1.383 . S
C503 H531 0.931 . S
C504 C501 1.382 . S
C504 C502 1.392 . S
C505 Eu496 2.828 . S
C505 C499 1.505 . S
C505 O517 1.249 . S
C505 O518 1.244 . S
O506 Eu497 2.374 . S
O506 C508 1.258 . S
O507 Eu496 2.392 . S
O507 C508 1.242 . S
C508 O506 1.258 . S
C508 O507 1.242 . S
O509 Eu496 2.418 . S
O509 C513 1.244 . S
O510 Eu497 2.458 1_565 S
O510 C526 1.249 . S
O511 Eu497 2.442 1_565 S
O511 C526 1.244 . S
O512 Eu497 2.364 . S
O512 C513 1.265 . S
C513 O509 1.244 . S
C513 O512 1.265 . S
O514 Eu496 2.373 . S
O514 C527 1.258 . S
O515 Eu497 2.417 . S
O515 C527 1.242 . S
O516 Eu497 2.430 . S
O516 C498 1.244 . S
O517 Eu496 2.488 . S
O517 C505 1.249 . S
O518 Eu496 2.471 . S
O518 C505 1.244 . S
O519 Eu496 2.349 . S
O519 C498 1.265 . S
C520 C521 1.379 . S
C520 C524 1.373 . S
C520 C526 1.505 . S
C521 C520 1.379 . S
C521 C523 1.369 . S
C521 H532 0.930 . S
C522 C524 1.383 . S
C522 C525 1.382 . S
C522 H533 0.930 . S
C523 C521 1.369 . S
C523 C525 1.392 . S
C523 H534 0.930 . S
C524 C520 1.373 . S
C524 C522 1.383 . S
C524 H535 0.931 . S
C525 C522 1.382 . S
C525 C523 1.392 . S
C526 Eu497 2.795 1_565 S
C526 O510 1.249 . S
C526 O511 1.244 . S
C526 C520 1.505 . S
C527 O514 1.258 . S
C527 O515 1.242 . S
H528 C500 0.930 . S
H529 C501 0.930 . S
H530 C502 0.930 . S
H531 C503 0.931 . S
H532 C521 0.930 . S
H533 C522 0.930 . S
H534 C523 0.930 . S
H535 C524 0.931 . S
Eu536 C545 2.828 . S
Eu536 O547 2.392 . S
Eu536 O549 2.418 . S
Eu536 O554 2.373 . S
Eu536 O557 2.488 . S
Eu536 O558 2.471 . S
Eu536 O559 2.349 . S
Eu537 O546 2.373 . S
Eu537 O550 2.488 . S
Eu537 O551 2.471 . S
Eu537 O552 2.349 . S
Eu537 O555 2.392 . S
Eu537 O556 2.418 . S
Eu537 C566 2.828 . S
C538 O556 1.244 . S
C538 O559 1.265 . S
C539 C540 1.379 . S
C539 C543 1.373 . S
C539 C545 1.505 . S
C540 C539 1.379 . S
C540 C542 1.369 . S
C540 H568 0.930 . S
C541 C543 1.383 . S
C541 C544 1.382 . S
C541 H569 0.930 . S
C542 C540 1.369 . S
C542 C544 1.392 . S
C542 H570 0.930 . S
C543 C539 1.373 . S
C543 C541 1.383 . S
C543 H571 0.931 . S
C544 C541 1.382 . S
C544 C542 1.392 . S
C545 Eu536 2.828 . S
C545 C539 1.505 . S
C545 O557 1.249 . S
C545 O558 1.244 . S
O546 Eu537 2.373 . S
O546 C548 1.258 . S
O547 Eu536 2.392 . S
O547 C548 1.242 . S
C548 O546 1.258 . S
C548 O547 1.242 . S
O549 Eu536 2.418 . S
O549 C553 1.244 . S
O550 Eu537 2.488 . S
O550 C566 1.249 . S
O551 Eu537 2.471 . S
O551 C566 1.244 . S
O552 Eu537 2.349 . S
O552 C553 1.265 . S
C553 O549 1.244 . S
C553 O552 1.265 . S
O554 Eu536 2.373 . S
O554 C567 1.258 . S
O555 Eu537 2.392 . S
O555 C567 1.242 . S
O556 Eu537 2.418 . S
O556 C538 1.244 . S
O557 Eu536 2.488 . S
O557 C545 1.249 . S
O558 Eu536 2.471 . S
O558 C545 1.244 . S
O559 Eu536 2.349 . S
O559 C538 1.265 . S
C560 C561 1.379 . S
C560 C564 1.373 . S
C560 C566 1.505 . S
C561 C560 1.379 . S
C561 C563 1.369 . S
C561 H572 0.930 . S
C562 C564 1.383 . S
C562 C565 1.382 . S
C562 H573 0.930 . S
C563 C561 1.369 . S
C563 C565 1.392 . S
C563 H574 0.930 . S
C564 C560 1.373 . S
C564 C562 1.383 . S
C564 H575 0.931 . S
C565 C562 1.382 . S
C565 C563 1.392 . S
C566 Eu537 2.828 . S
C566 O550 1.249 . S
C566 O551 1.244 . S
C566 C560 1.505 . S
C567 O554 1.258 . S
C567 O555 1.242 . S
H568 C540 0.930 . S
H569 C541 0.930 . S
H570 C542 0.930 . S
H571 C543 0.931 . S
H572 C561 0.930 . S
H573 C562 0.930 . S
H574 C563 0.930 . S
H575 C564 0.931 . S
Eu576 C585 2.828 . S
Eu576 O587 2.392 . S
Eu576 O589 2.418 1_545 S
Eu576 O594 2.373 . S
Eu576 O597 2.488 1_545 S
Eu576 O598 2.471 . S
Eu576 O599 2.349 . S
Eu577 O586 2.373 1_556 S
Eu577 O590 2.488 . S
Eu577 O591 2.471 . S
Eu577 O592 2.349 . S
Eu577 O595 2.392 . S
Eu577 O596 2.418 1_556 S
Eu577 C606 2.828 . S
C578 O596 1.244 . S
C578 O599 1.265 . S
C579 C580 1.379 . S
C579 C583 1.373 1_545 S
C579 C585 1.505 . S
C580 C579 1.379 . S
C580 C582 1.369 . S
C580 H608 0.930 . S
C581 C583 1.383 . S
C581 C584 1.382 . S
C581 H609 0.930 . S
C582 C580 1.369 . S
C582 C584 1.392 1_545 S
C582 H610 0.930 . S
C583 C579 1.373 1_565 S
C583 C581 1.383 . S
C583 H611 0.931 . S
C584 C581 1.382 . S
C584 C582 1.392 1_565 S
C585 Eu576 2.828 . S
C585 C579 1.505 . S
C585 O597 1.249 1_545 S
C585 O598 1.244 . S
O586 Eu577 2.373 1_554 S
O586 C588 1.258 . S
O587 Eu576 2.392 . S
O587 C588 1.242 . S
C588 O586 1.258 . S
C588 O587 1.242 . S
O589 Eu576 2.418 1_565 S
O589 C593 1.244 1_554 S
O590 Eu577 2.488 . S
O590 C606 1.249 . S
O591 Eu577 2.471 . S
O591 C606 1.244 . S
O592 Eu577 2.349 . S
O592 C593 1.265 1_545 S
C593 O589 1.244 1_556 S
C593 O592 1.265 1_565 S
O594 Eu576 2.373 . S
O594 C607 1.258 . S
O595 Eu577 2.392 . S
O595 C607 1.242 1_556 S
O596 Eu577 2.418 1_554 S
O596 C578 1.244 . S
O597 Eu576 2.488 1_565 S
O597 C585 1.249 1_565 S
O598 Eu576 2.471 . S
O598 C585 1.244 . S
O599 Eu576 2.349 . S
O599 C578 1.265 . S
C600 C601 1.379 . S
C600 C604 1.373 . S
C600 C606 1.505 . S
C601 C600 1.379 . S
C601 C603 1.369 . S
C601 H612 0.930 . S
C602 C604 1.383 . S
C602 C605 1.382 . S
C602 H613 0.930 . S
C603 C601 1.369 . S
C603 C605 1.392 . S
C603 H614 0.930 . S
C604 C600 1.373 . S
C604 C602 1.383 . S
C604 H615 0.931 . S
C605 C602 1.382 . S
C605 C603 1.392 . S
C606 Eu577 2.828 . S
C606 O590 1.249 . S
C606 O591 1.244 . S
C606 C600 1.505 . S
C607 O594 1.258 . S
C607 O595 1.242 1_554 S
H608 C580 0.930 . S
H609 C581 0.930 . S
H610 C582 0.930 . S
H611 C583 0.931 . S
H612 C601 0.930 . S
H613 C602 0.930 . S
H614 C603 0.930 . S
H615 C604 0.931 . S
Eu616 C625 2.828 . S
Eu616 O627 2.392 . S
Eu616 O629 2.418 . S
Eu616 O634 2.373 . S
Eu616 O637 2.488 . S
Eu616 O638 2.471 . S
Eu616 O639 2.349 . S
Eu617 O626 2.373 . S
Eu617 O630 2.488 . S
Eu617 O631 2.471 . S
Eu617 O632 2.349 . S
Eu617 O635 2.392 . S
Eu617 O636 2.418 . S
Eu617 C646 2.828 . S
C618 O636 1.244 . S
C618 O639 1.265 . S
C619 C620 1.379 . S
C619 C623 1.373 . S
C619 C625 1.505 . S
C620 C619 1.379 . S
C620 C622 1.369 . S
C620 H648 0.930 . S
C621 C623 1.383 . S
C621 C624 1.382 . S
C621 H649 0.930 . S
C622 C620 1.369 . S
C622 C624 1.392 . S
C622 H650 0.930 . S
C623 C619 1.373 . S
C623 C621 1.383 . S
C623 H651 0.931 . S
C624 C621 1.382 . S
C624 C622 1.392 . S
C625 Eu616 2.828 . S
C625 C619 1.505 . S
C625 O637 1.249 . S
C625 O638 1.244 . S
O626 Eu617 2.373 . S
O626 C628 1.258 . S
O627 Eu616 2.392 . S
O627 C628 1.242 . S
C628 O626 1.258 . S
C628 O627 1.242 . S
O629 Eu616 2.418 . S
O629 C633 1.244 . S
O630 Eu617 2.488 . S
O630 C646 1.249 . S
O631 Eu617 2.471 . S
O631 C646 1.244 . S
O632 Eu617 2.349 . S
O632 C633 1.265 . S
C633 O629 1.244 . S
C633 O632 1.265 . S
O634 Eu616 2.373 . S
O634 C647 1.258 . S
O635 Eu617 2.392 . S
O635 C647 1.242 . S
O636 Eu617 2.418 . S
O636 C618 1.244 . S
O637 Eu616 2.488 . S
O637 C625 1.249 . S
O638 Eu616 2.471 . S
O638 C625 1.244 . S
O639 Eu616 2.349 . S
O639 C618 1.265 . S
C640 C641 1.379 . S
C640 C644 1.373 . S
C640 C646 1.505 . S
C641 C640 1.379 . S
C641 C643 1.369 . S
C641 H652 0.930 . S
C642 C644 1.383 . S
C642 C645 1.382 . S
C642 H653 0.930 . S
C643 C641 1.369 . S
C643 C645 1.392 . S
C643 H654 0.930 . S
C644 C640 1.373 . S
C644 C642 1.383 . S
C644 H655 0.931 . S
C645 C642 1.382 . S
C645 C643 1.392 . S
C646 Eu617 2.828 . S
C646 O630 1.249 . S
C646 O631 1.244 . S
C646 C640 1.505 . S
C647 O634 1.258 . S
C647 O635 1.242 . S
H648 C620 0.930 . S
H649 C621 0.930 . S
H650 C622 0.930 . S
H651 C623 0.931 . S
H652 C641 0.930 . S
H653 C642 0.930 . S
H654 C643 0.930 . S
H655 C644 0.931 . S
Eu656 C665 2.828 . S
Eu656 O667 2.392 . S
Eu656 O669 2.418 . S
Eu656 O674 2.373 1_554 S
Eu656 O677 2.488 . S
Eu656 O678 2.471 . S
Eu656 O679 2.349 . S
Eu657 O666 2.383 . S
Eu657 O670 2.492 . S
Eu657 O671 2.478 . S
Eu657 O672 2.353 . S
Eu657 O675 2.384 1_554 S
Eu657 O676 2.416 . S
Eu657 C686 2.834 . S
C658 O676 1.244 . S
C658 O679 1.265 . S
C659 C660 1.379 1_554 S
C659 C663 1.373 . S
C659 C665 1.505 . S
C660 C659 1.379 1_556 S
C660 C662 1.369 . S
C660 H688 0.930 . S
C661 C663 1.396 . S
C661 C664 1.367 1_554 S
C661 H689 0.933 . S
C662 C660 1.369 . S
C662 C664 1.392 . S
C662 H690 0.930 . S
C663 C659 1.373 . S
C663 C661 1.396 . S
C663 H691 0.931 . S
C664 C661 1.367 1_556 S
C664 C662 1.392 . S
C665 Eu656 2.828 . S
C665 C659 1.505 . S
C665 O677 1.249 . S
C665 O678 1.244 . S
O666 Eu657 2.383 . S
O666 C668 1.258 . S
O667 Eu656 2.392 . S
O667 C668 1.242 . S
C668 O666 1.258 . S
C668 O667 1.242 . S
O669 Eu656 2.418 . S
O669 C673 1.244 . S
O670 Eu657 2.492 . S
O670 C686 1.249 . S
O671 Eu657 2.478 . S
O671 C686 1.244 . S
O672 Eu657 2.353 . S
O672 C673 1.265 . S
C673 O669 1.244 . S
C673 O672 1.265 . S
O674 Eu656 2.373 1_556 S
O674 C687 1.258 . S
O675 Eu657 2.384 1_556 S
O675 C687 1.242 . S
O676 Eu657 2.416 . S
O676 C658 1.244 . S
O677 Eu656 2.488 . S
O677 C665 1.249 . S
O678 Eu656 2.471 . S
O678 C665 1.244 . S
O679 Eu656 2.349 . S
O679 C658 1.265 . S
C680 C681 1.379 . S
C680 C684 1.373 . S
C680 C686 1.505 . S
C681 C680 1.379 . S
C681 C683 1.369 . S
C681 H692 0.930 . S
C682 C684 1.383 . S
C682 C685 1.382 . S
C682 H693 0.930 . S
C683 C681 1.369 . S
C683 C685 1.392 . S
C683 H694 0.930 . S
C684 C680 1.373 . S
C684 C682 1.383 . S
C684 H695 0.931 . S
C685 C682 1.382 . S
C685 C683 1.392 . S
C686 Eu657 2.834 . S
C686 O670 1.249 . S
C686 O671 1.244 . S
C686 C680 1.505 . S
C687 O674 1.258 . S
C687 O675 1.242 . S
H688 C660 0.930 . S
H689 C661 0.933 . S
H690 C662 0.930 . S
H691 C663 0.931 . S
H692 C681 0.930 . S
H693 C682 0.930 . S
H694 C683 0.930 . S
H695 C684 0.931 . S
Eu696 C705 2.828 . S
Eu696 O707 2.392 . S
Eu696 O709 2.418 . S
Eu696 O714 2.373 . S
Eu696 O717 2.488 . S
Eu696 O718 2.471 . S
Eu696 O719 2.349 . S
Eu697 O706 2.373 . S
Eu697 O710 2.488 . S
Eu697 O711 2.471 . S
Eu697 O712 2.349 . S
Eu697 O715 2.392 . S
Eu697 O716 2.418 . S
Eu697 C726 2.828 . S
C698 O716 1.244 . S
C698 O719 1.265 . S
C699 C700 1.379 . S
C699 C703 1.373 . S
C699 C705 1.505 . S
C700 C699 1.379 . S
C700 C702 1.369 . S
C700 H728 0.930 . S
C701 C703 1.383 . S
C701 C704 1.382 1_655 S
C701 H729 0.930 1_655 S
C702 C700 1.369 . S
C702 C704 1.392 1_655 S
C702 H730 0.930 . S
C703 C699 1.373 . S
C703 C701 1.383 . S
C703 H731 0.931 . S
C704 C701 1.382 1_455 S
C704 C702 1.392 1_455 S
C705 Eu696 2.828 . S
C705 C699 1.505 . S
C705 O717 1.249 . S
C705 O718 1.244 . S
O706 Eu697 2.373 . S
O706 C708 1.258 . S
O707 Eu696 2.392 . S
O707 C708 1.242 . S
C708 O706 1.258 . S
C708 O707 1.242 . S
O709 Eu696 2.418 . S
O709 C713 1.244 . S
O710 Eu697 2.488 . S
O710 C726 1.249 . S
O711 Eu697 2.471 . S
O711 C726 1.244 . S
O712 Eu697 2.349 . S
O712 C713 1.265 . S
C713 O709 1.244 . S
C713 O712 1.265 . S
O714 Eu696 2.373 . S
O714 C727 1.258 . S
O715 Eu697 2.392 . S
O715 C727 1.242 . S
O716 Eu697 2.418 . S
O716 C698 1.244 . S
O717 Eu696 2.488 . S
O717 C705 1.249 . S
O718 Eu696 2.471 . S
O718 C705 1.244 . S
O719 Eu696 2.349 . S
O719 C698 1.265 . S
C720 C721 1.379 . S
C720 C724 1.373 . S
C720 C726 1.505 . S
C721 C720 1.379 . S
C721 C723 1.369 . S
C721 H732 0.930 . S
C722 C724 1.383 . S
C722 C725 1.382 . S
C722 H733 0.930 . S
C723 C721 1.369 . S
C723 C725 1.392 . S
C723 H734 0.930 . S
C724 C720 1.373 . S
C724 C722 1.383 . S
C724 H735 0.931 . S
C725 C722 1.382 . S
C725 C723 1.392 . S
C726 Eu697 2.828 . S
C726 O710 1.249 . S
C726 O711 1.244 . S
C726 C720 1.505 . S
C727 O714 1.258 . S
C727 O715 1.242 . S
H728 C700 0.930 . S
H729 C701 0.930 1_455 S
H730 C702 0.930 . S
H731 C703 0.931 . S
H732 C721 0.930 . S
H733 C722 0.930 . S
H734 C723 0.930 . S
H735 C724 0.931 . S
Eu736 C745 2.828 . S
Eu736 O747 2.392 . S
Eu736 O749 2.418 . S
Eu736 O754 2.373 . S
Eu736 O757 2.488 . S
Eu736 O758 2.471 . S
Eu736 O759 2.349 . S
Eu737 O746 2.373 . S
Eu737 O750 2.488 . S
Eu737 O751 2.471 . S
Eu737 O752 2.349 . S
Eu737 O755 2.392 . S
Eu737 O756 2.418 . S
Eu737 C766 2.828 . S
C738 O756 1.244 . S
C738 O759 1.265 . S
C739 C740 1.379 1_455 S
C739 C743 1.373 . S
C739 C745 1.505 . S
C740 C739 1.379 1_655 S
C740 C742 1.369 . S
C740 H768 0.930 . S
C741 C743 1.383 1_655 S
C741 C744 1.383 . S
C741 H769 0.923 1_655 S
C742 C740 1.369 . S
C742 C744 1.392 . S
C742 H770 0.930 . S
C743 C739 1.373 . S
C743 C741 1.383 1_455 S
C743 H771 0.931 . S
C744 C741 1.383 . S
C744 C742 1.392 . S
C745 Eu736 2.828 . S
C745 C739 1.505 . S
C745 O757 1.249 . S
C745 O758 1.244 . S
O746 Eu737 2.373 . S
O746 C748 1.258 . S
O747 Eu736 2.392 . S
O747 C748 1.242 . S
C748 O746 1.258 . S
C748 O747 1.242 . S
O749 Eu736 2.418 . S
O749 C753 1.244 . S
O750 Eu737 2.488 . S
O750 C766 1.249 . S
O751 Eu737 2.471 . S
O751 C766 1.244 . S
O752 Eu737 2.349 . S
O752 C753 1.265 . S
C753 O749 1.244 . S
C753 O752 1.265 . S
O754 Eu736 2.373 . S
O754 C767 1.258 . S
O755 Eu737 2.392 . S
O755 C767 1.242 . S
O756 Eu737 2.418 . S
O756 C738 1.244 . S
O757 Eu736 2.488 . S
O757 C745 1.249 . S
O758 Eu736 2.471 . S
O758 C745 1.244 . S
O759 Eu736 2.349 . S
O759 C738 1.265 . S
C760 C761 1.379 . S
C760 C764 1.373 . S
C760 C766 1.505 . S
C761 C760 1.379 . S
C761 C763 1.369 . S
C761 H772 0.930 . S
C762 C764 1.383 . S
C762 C765 1.382 . S
C762 H773 0.930 . S
C763 C761 1.369 . S
C763 C765 1.392 . S
C763 H774 0.930 . S
C764 C760 1.373 . S
C764 C762 1.383 . S
C764 H775 0.931 . S
C765 C762 1.382 . S
C765 C763 1.392 . S
C766 Eu737 2.828 . S
C766 O750 1.249 . S
C766 O751 1.244 . S
C766 C760 1.505 . S
C767 O754 1.258 . S
C767 O755 1.242 . S
H768 C740 0.930 . S
H769 C741 0.923 1_455 S
H770 C742 0.930 . S
H771 C743 0.931 . S
H772 C761 0.930 . S
H773 C762 0.930 . S
H774 C763 0.930 . S
H775 C764 0.931 . S
Eu776 C785 2.828 . S
Eu776 O787 2.392 . S
Eu776 O789 2.418 . S
Eu776 O794 2.373 . S
Eu776 O797 2.488 . S
Eu776 O798 2.471 . S
Eu776 O799 2.349 . S
Eu777 O786 2.373 . S
Eu777 O790 2.488 . S
Eu777 O791 2.471 . S
Eu777 O792 2.349 . S
Eu777 O795 2.392 . S
Eu777 O796 2.418 . S
Eu777 C806 2.828 . S
C778 O796 1.244 . S
C778 O799 1.265 . S
C779 C780 1.379 . S
C779 C783 1.373 . S
C779 C785 1.505 . S
C780 C779 1.379 . S
C780 C782 1.369 . S
C780 H808 0.930 . S
C781 C783 1.383 . S
C781 C784 1.382 . S
C781 H809 0.930 . S
C782 C780 1.369 . S
C782 C784 1.392 . S
C782 H810 0.930 . S
C783 C779 1.373 . S
C783 C781 1.383 . S
C783 H811 0.931 . S
C784 C781 1.382 . S
C784 C782 1.392 . S
C785 Eu776 2.828 . S
C785 C779 1.505 . S
C785 O797 1.249 . S
C785 O798 1.244 . S
O786 Eu777 2.373 . S
O786 C788 1.258 . S
O787 Eu776 2.392 . S
O787 C788 1.242 . S
C788 O786 1.258 . S
C788 O787 1.242 . S
O789 Eu776 2.418 . S
O789 C793 1.244 . S
O790 Eu777 2.488 . S
O790 C806 1.249 . S
O791 Eu777 2.471 . S
O791 C806 1.244 . S
O792 Eu777 2.349 . S
O792 C793 1.265 . S
C793 O789 1.244 . S
C793 O792 1.265 . S
O794 Eu776 2.373 . S
O794 C807 1.258 . S
O795 Eu777 2.392 . S
O795 C807 1.242 . S
O796 Eu777 2.418 . S
O796 C778 1.244 . S
O797 Eu776 2.488 . S
O797 C785 1.249 . S
O798 Eu776 2.471 . S
O798 C785 1.244 . S
O799 Eu776 2.349 . S
O799 C778 1.265 . S
C800 C801 1.379 . S
C800 C804 1.373 . S
C800 C806 1.505 . S
C801 C800 1.379 . S
C801 C803 1.369 . S
C801 H812 0.930 . S
C802 C804 1.383 . S
C802 C805 1.382 . S
C802 H813 0.930 . S
C803 C801 1.369 . S
C803 C805 1.392 . S
C803 H814 0.930 . S
C804 C800 1.373 . S
C804 C802 1.383 . S
C804 H815 0.931 . S
C805 C802 1.382 . S
C805 C803 1.392 . S
C806 Eu777 2.828 . S
C806 O790 1.249 . S
C806 O791 1.244 . S
C806 C800 1.505 . S
C807 O794 1.258 . S
C807 O795 1.242 . S
H808 C780 0.930 . S
H809 C781 0.930 . S
H810 C782 0.930 . S
H811 C783 0.931 . S
H812 C801 0.930 . S
H813 C802 0.930 . S
H814 C803 0.930 . S
H815 C804 0.931 . S
Eu816 C825 2.828 . S
Eu816 O827 2.392 . S
Eu816 O829 2.418 . S
Eu816 O834 2.373 . S
Eu816 O837 2.488 . S
Eu816 O838 2.471 . S
Eu816 O839 2.349 . S
Eu817 O826 2.373 . S
Eu817 O830 2.488 . S
Eu817 O831 2.471 . S
Eu817 O832 2.349 . S
Eu817 O835 2.392 . S
Eu817 O836 2.418 . S
Eu817 C846 2.828 . S
C818 O836 1.244 . S
C818 O839 1.265 . S
C819 C820 1.379 . S
C819 C823 1.373 . S
C819 C825 1.505 . S
C820 C819 1.379 . S
C820 C822 1.369 . S
C820 H848 0.930 . S
C821 C823 1.383 . S
C821 C824 1.382 . S
C821 H849 0.930 . S
C822 C820 1.369 . S
C822 C824 1.392 . S
C822 H850 0.930 . S
C823 C819 1.373 . S
C823 C821 1.383 . S
C823 H851 0.931 . S
C824 C821 1.382 . S
C824 C822 1.392 . S
C825 Eu816 2.828 . S
C825 C819 1.505 . S
C825 O837 1.249 . S
C825 O838 1.244 . S
O826 Eu817 2.373 . S
O826 C828 1.258 . S
O827 Eu816 2.392 . S
O827 C828 1.242 . S
C828 O826 1.258 . S
C828 O827 1.242 . S
O829 Eu816 2.418 . S
O829 C833 1.244 . S
O830 Eu817 2.488 . S
O830 C846 1.249 . S
O831 Eu817 2.471 . S
O831 C846 1.244 . S
O832 Eu817 2.349 . S
O832 C833 1.265 . S
C833 O829 1.244 . S
C833 O832 1.265 . S
O834 Eu816 2.373 . S
O834 C847 1.258 . S
O835 Eu817 2.392 . S
O835 C847 1.242 . S
O836 Eu817 2.418 . S
O836 C818 1.244 . S
O837 Eu816 2.488 . S
O837 C825 1.249 . S
O838 Eu816 2.471 . S
O838 C825 1.244 . S
O839 Eu816 2.349 . S
O839 C818 1.265 . S
C840 C841 1.379 . S
C840 C844 1.373 . S
C840 C846 1.505 . S
C841 C840 1.379 . S
C841 C843 1.369 . S
C841 H852 0.930 . S
C842 C844 1.383 . S
C842 C845 1.382 . S
C842 H853 0.930 . S
C843 C841 1.369 . S
C843 C845 1.392 . S
C843 H854 0.930 . S
C844 C840 1.373 . S
C844 C842 1.383 . S
C844 H855 0.931 . S
C845 C842 1.382 . S
C845 C843 1.392 . S
C846 Eu817 2.828 . S
C846 O830 1.249 . S
C846 O831 1.244 . S
C846 C840 1.505 . S
C847 O834 1.258 . S
C847 O835 1.242 . S
H848 C820 0.930 . S
H849 C821 0.930 . S
H850 C822 0.930 . S
H851 C823 0.931 . S
H852 C841 0.930 . S
H853 C842 0.930 . S
H854 C843 0.930 . S
H855 C844 0.931 . S
Eu856 C865 2.828 . S
Eu856 O867 2.392 . S
Eu856 O869 2.418 . S
Eu856 O874 2.373 . S
Eu856 O877 2.488 . S
Eu856 O878 2.471 . S
Eu856 O879 2.349 . S
Eu857 O866 2.373 . S
Eu857 O870 2.488 . S
Eu857 O871 2.471 . S
Eu857 O872 2.349 . S
Eu857 O875 2.392 . S
Eu857 O876 2.418 . S
Eu857 C886 2.828 . S
C858 O876 1.244 . S
C858 O879 1.265 . S
C859 C860 1.379 . S
C859 C863 1.373 . S
C859 C865 1.505 . S
C860 C859 1.379 . S
C860 C862 1.369 . S
C860 H888 0.930 . S
C861 C863 1.383 . S
C861 C864 1.382 . S
C861 H889 0.930 . S
C862 C860 1.369 . S
C862 C864 1.392 . S
C862 H890 0.930 . S
C863 C859 1.373 . S
C863 C861 1.383 . S
C863 H891 0.931 . S
C864 C861 1.382 . S
C864 C862 1.392 . S
C865 Eu856 2.828 . S
C865 C859 1.505 . S
C865 O877 1.249 . S
C865 O878 1.244 . S
O866 Eu857 2.373 . S
O866 C868 1.258 . S
O867 Eu856 2.392 . S
O867 C868 1.242 . S
C868 O866 1.258 . S
C868 O867 1.242 . S
O869 Eu856 2.418 . S
O869 C873 1.244 . S
O870 Eu857 2.488 . S
O870 C886 1.249 . S
O871 Eu857 2.471 . S
O871 C886 1.244 . S
O872 Eu857 2.349 . S
O872 C873 1.265 . S
C873 O869 1.244 . S
C873 O872 1.265 . S
O874 Eu856 2.373 . S
O874 C887 1.258 . S
O875 Eu857 2.392 . S
O875 C887 1.242 . S
O876 Eu857 2.418 . S
O876 C858 1.244 . S
O877 Eu856 2.488 . S
O877 C865 1.249 . S
O878 Eu856 2.471 . S
O878 C865 1.244 . S
O879 Eu856 2.349 . S
O879 C858 1.265 . S
C880 C881 1.379 . S
C880 C884 1.373 . S
C880 C886 1.505 . S
C881 C880 1.379 . S
C881 C883 1.369 . S
C881 H892 0.930 . S
C882 C884 1.383 . S
C882 C885 1.382 . S
C882 H893 0.930 . S
C883 C881 1.369 . S
C883 C885 1.392 . S
C883 H894 0.930 . S
C884 C880 1.373 . S
C884 C882 1.383 . S
C884 H895 0.931 . S
C885 C882 1.382 . S
C885 C883 1.392 . S
C886 Eu857 2.828 . S
C886 O870 1.249 . S
C886 O871 1.244 . S
C886 C880 1.505 . S
C887 O874 1.258 . S
C887 O875 1.242 . S
H888 C860 0.930 . S
H889 C861 0.930 . S
H890 C862 0.930 . S
H891 C863 0.931 . S
H892 C881 0.930 . S
H893 C882 0.930 . S
H894 C883 0.930 . S
H895 C884 0.931 . S
Eu896 C905 2.828 . S
Eu896 O907 2.392 . S
Eu896 O909 2.418 . S
Eu896 O914 2.373 . S
Eu896 O917 2.488 . S
Eu896 O918 2.471 . S
Eu896 O919 2.349 . S
Eu897 O906 2.373 . S
Eu897 O910 2.488 . S
Eu897 O911 2.471 . S
Eu897 O912 2.349 . S
Eu897 O915 2.392 . S
Eu897 O916 2.418 . S
Eu897 C926 2.828 . S
C898 O916 1.244 . S
C898 O919 1.265 . S
C899 C900 1.379 . S
C899 C903 1.373 . S
C899 C905 1.505 . S
C900 C899 1.379 . S
C900 C902 1.369 . S
C900 H928 0.930 . S
C901 C903 1.383 . S
C901 C904 1.382 . S
C901 H929 0.930 . S
C902 C900 1.369 . S
C902 C904 1.392 . S
C902 H930 0.930 . S
C903 C899 1.373 . S
C903 C901 1.383 . S
C903 H931 0.931 . S
C904 C901 1.382 . S
C904 C902 1.392 . S
C905 Eu896 2.828 . S
C905 C899 1.505 . S
C905 O917 1.249 . S
C905 O918 1.244 . S
O906 Eu897 2.373 . S
O906 C908 1.258 . S
O907 Eu896 2.392 . S
O907 C908 1.242 . S
C908 O906 1.258 . S
C908 O907 1.242 . S
O909 Eu896 2.418 . S
O909 C913 1.244 . S
O910 Eu897 2.488 . S
O910 C926 1.249 . S
O911 Eu897 2.471 . S
O911 C926 1.244 . S
O912 Eu897 2.349 . S
O912 C913 1.265 . S
C913 O909 1.244 . S
C913 O912 1.265 . S
O914 Eu896 2.373 . S
O914 C927 1.258 . S
O915 Eu897 2.392 . S
O915 C927 1.242 . S
O916 Eu897 2.418 . S
O916 C898 1.244 . S
O917 Eu896 2.488 . S
O917 C905 1.249 . S
O918 Eu896 2.471 . S
O918 C905 1.244 . S
O919 Eu896 2.349 . S
O919 C898 1.265 . S
C920 C921 1.379 . S
C920 C924 1.373 . S
C920 C926 1.505 . S
C921 C920 1.379 . S
C921 C923 1.369 . S
C921 H932 0.930 . S
C922 C924 1.383 . S
C922 C925 1.382 . S
C922 H933 0.930 . S
C923 C921 1.369 . S
C923 C925 1.392 . S
C923 H934 0.930 . S
C924 C920 1.373 . S
C924 C922 1.383 . S
C924 H935 0.931 . S
C925 C922 1.382 . S
C925 C923 1.392 . S
C926 Eu897 2.828 . S
C926 O910 1.249 . S
C926 O911 1.244 . S
C926 C920 1.505 . S
C927 O914 1.258 . S
C927 O915 1.242 . S
H928 C900 0.930 . S
H929 C901 0.930 . S
H930 C902 0.930 . S
H931 C903 0.931 . S
H932 C921 0.930 . S
H933 C922 0.930 . S
H934 C923 0.930 . S
H935 C924 0.931 . S
Eu936 C945 2.828 1_554 S
Eu936 O947 2.392 . S
Eu936 O949 2.418 1_554 S
Eu936 O954 2.373 1_554 S
Eu936 O957 2.488 1_554 S
Eu936 O958 2.471 . S
Eu936 O959 2.349 . S
Eu937 O946 2.373 . S
Eu937 O950 2.488 1_455 S
Eu937 O951 2.471 1_455 S
Eu937 O952 2.349 1_554 S
Eu937 O955 2.392 . S
Eu937 O956 2.418 . S
Eu937 C966 2.828 1_455 S
C938 O956 1.244 . S
C938 O959 1.265 . S
C939 C940 1.379 1_556 S
C939 C943 1.373 . S
C939 C945 1.505 . S
C940 C939 1.379 1_554 S
C940 C942 1.369 1_554 S
C940 H968 0.930 . S
C941 C943 1.383 . S
C941 C944 1.382 . S
C941 H969 0.930 . S
C942 C940 1.369 1_556 S
C942 C944 1.392 . S
C942 H970 0.930 1_556 S
C943 C939 1.373 . S
C943 C941 1.383 . S
C943 H971 0.931 . S
C944 C941 1.382 . S
C944 C942 1.392 . S
C945 Eu936 2.828 1_556 S
C945 C939 1.505 . S
C945 O957 1.249 . S
C945 O958 1.244 1_556 S
O946 Eu937 2.373 . S
O946 C948 1.258 . S
O947 Eu936 2.392 . S
O947 C948 1.242 . S
C948 O946 1.258 . S
C948 O947 1.242 . S
O949 Eu936 2.418 1_556 S
O949 C953 1.244 . S
O950 Eu937 2.488 1_655 S
O950 C966 1.249 . S
O951 Eu937 2.471 1_655 S
O951 C966 1.244 . S
O952 Eu937 2.349 1_556 S
O952 C953 1.265 . S
C953 O949 1.244 . S
C953 O952 1.265 . S
O954 Eu936 2.373 1_556 S
O954 C967 1.258 . S
O955 Eu937 2.392 . S
O955 C967 1.242 1_554 S
O956 Eu937 2.418 . S
O956 C938 1.244 . S
O957 Eu936 2.488 1_556 S
O957 C945 1.249 . S
O958 Eu936 2.471 . S
O958 C945 1.244 1_554 S
O959 Eu936 2.349 . S
O959 C938 1.265 . S
C960 C961 1.379 . S
C960 C964 1.373 . S
C960 C966 1.505 . S
C961 C960 1.379 . S
C961 C963 1.369 . S
C961 H972 0.930 . S
C962 C964 1.383 . S
C962 C965 1.382 . S
C962 H973 0.930 . S
C963 C961 1.369 . S
C963 C965 1.392 . S
C963 H974 0.930 . S
C964 C960 1.373 . S
C964 C962 1.383 . S
C964 H975 0.931 . S
C965 C962 1.382 . S
C965 C963 1.392 . S
C966 Eu937 2.828 1_655 S
C966 O950 1.249 . S
C966 O951 1.244 . S
C966 C960 1.505 . S
C967 O954 1.258 . S
C967 O955 1.242 1_556 S
H968 C940 0.930 . S
H969 C941 0.930 . S
H970 C942 0.930 1_554 S
H971 C943 0.931 . S
H972 C961 0.930 . S
H973 C962 0.930 . S
H974 C963 0.930 . S
H975 C964 0.931 . S
C976 C977 1.387 . S
C976 H980 0.950 . S
C976 C985 1.390 . S
C977 C976 1.387 . S
C977 C979 1.379 1_455 S
H978 C985 0.950 . S
C979 C977 1.379 1_655 S
C979 C981 1.380 1_655 S
C979 H983 0.969 . S
H980 C976 0.950 . S
C981 C979 1.380 1_455 S
C981 C982 1.387 . S
C981 H984 0.950 1_455 S
C982 C981 1.387 . S
C982 C985 1.387 . S
H983 C979 0.969 . S
H984 C981 0.950 1_655 S
C985 C976 1.390 . S
C985 H978 0.950 . S
C985 C982 1.387 . S
C986 C987 1.387 . S
C986 H990 0.950 . S
C986 C995 1.390 . S
C987 C986 1.387 . S
C987 C989 1.387 . S
H988 C995 0.950 . S
C989 C987 1.387 . S
C989 C991 1.390 . S
C989 H993 0.950 . S
H990 C986 0.950 . S
C991 C989 1.390 . S
C991 C992 1.387 . S
C991 H994 0.950 . S
C992 C991 1.387 . S
C992 C995 1.387 . S
H993 C989 0.950 . S
H994 C991 0.950 . S
C995 C986 1.390 . S
C995 H988 0.950 . S
C995 C992 1.387 . S
C996 C997 1.387 . S
C996 H1000 0.950 . S
C996 C1005 1.390 . S
C997 C996 1.387 . S
C997 C999 1.387 . S
H998 C1005 0.950 . S
C999 C997 1.387 . S
C999 C1001 1.390 . S
C999 H1003 0.950 . S
H1000 C996 0.950 . S
C1001 C999 1.390 . S
C1001 C1002 1.387 . S
C1001 H1004 0.950 . S
C1002 C1001 1.387 . S
C1002 C1005 1.387 . S
H1003 C999 0.950 . S
H1004 C1001 0.950 . S
C1005 C996 1.390 . S
C1005 H998 0.950 . S
C1005 C1002 1.387 . S
C1006 C1007 1.387 . S
C1006 H1010 0.950 . S
C1006 C1015 1.390 . S
C1007 C1006 1.387 . S
C1007 C1009 1.387 . S
H1008 C1015 0.950 . S
C1009 C1007 1.387 . S
C1009 C1011 1.390 . S
C1009 H1013 0.950 . S
H1010 C1006 0.950 . S
C1011 C1009 1.390 . S
C1011 C1012 1.387 . S
C1011 H1014 0.950 . S
C1012 C1011 1.387 . S
C1012 C1015 1.387 . S
H1013 C1009 0.950 . S
H1014 C1011 0.950 . S
C1015 C1006 1.390 . S
C1015 H1008 0.950 . S
C1015 C1012 1.387 . S
C1016 C1017 1.387 . S
C1016 H1020 0.950 . S
C1016 C1025 1.390 . S
C1017 C1016 1.387 . S
C1017 C1019 1.387 . S
H1018 C1025 0.950 . S
C1019 C1017 1.387 . S
C1019 C1021 1.390 . S
C1019 H1023 0.950 . S
H1020 C1016 0.950 . S
C1021 C1019 1.390 . S
C1021 C1022 1.387 . S
C1021 H1024 0.950 . S
C1022 C1021 1.387 . S
C1022 C1025 1.387 . S
H1023 C1019 0.950 . S
H1024 C1021 0.950 . S
C1025 C1016 1.390 . S
C1025 H1018 0.950 . S
C1025 C1022 1.387 . S
C1026 C1027 1.387 . S
C1026 H1030 0.950 . S
C1026 C1035 1.390 . S
C1027 C1026 1.387 . S
C1027 C1029 1.387 . S
H1028 C1035 0.950 . S
C1029 C1027 1.387 . S
C1029 C1031 1.390 . S
C1029 H1033 0.950 . S
H1030 C1026 0.950 . S
C1031 C1029 1.390 . S
C1031 C1032 1.387 . S
C1031 H1034 0.950 . S
C1032 C1031 1.387 . S
C1032 C1035 1.387 . S
H1033 C1029 0.950 . S
H1034 C1031 0.950 . S
C1035 C1026 1.390 . S
C1035 H1028 0.950 . S
C1035 C1032 1.387 . S
C1036 C1037 1.387 . S
C1036 H1040 0.950 . S
C1036 C1045 1.390 . S
C1037 C1036 1.387 . S
C1037 C1039 1.387 . S
H1038 C1045 0.950 . S
C1039 C1037 1.387 . S
C1039 C1041 1.390 . S
C1039 H1043 0.950 . S
H1040 C1036 0.950 . S
C1041 C1039 1.390 . S
C1041 C1042 1.387 . S
C1041 H1044 0.950 . S
C1042 C1041 1.387 . S
C1042 C1045 1.387 . S
H1043 C1039 0.950 . S
H1044 C1041 0.950 . S
C1045 C1036 1.390 . S
C1045 H1038 0.950 . S
C1045 C1042 1.387 . S
C1046 C1047 1.387 . S
C1046 H1050 0.950 . S
C1046 C1055 1.390 . S
C1047 C1046 1.387 . S
C1047 C1049 1.387 . S
H1048 C1055 0.950 . S
C1049 C1047 1.387 . S
C1049 C1051 1.390 . S
C1049 H1053 0.950 . S
H1050 C1046 0.950 . S
C1051 C1049 1.390 . S
C1051 C1052 1.387 . S
C1051 H1054 0.950 . S
C1052 C1051 1.387 . S
C1052 C1055 1.387 . S
H1053 C1049 0.950 . S
H1054 C1051 0.950 . S
C1055 C1046 1.390 . S
C1055 H1048 0.950 . S
C1055 C1052 1.387 . S
C1056 C1057 1.387 . S
C1056 H1060 0.950 . S
C1056 C1065 1.390 . S
C1057 C1056 1.387 . S
C1057 C1059 1.387 . S
H1058 C1065 0.950 . S
C1059 C1057 1.387 . S
C1059 C1061 1.390 . S
C1059 H1063 0.950 . S
H1060 C1056 0.950 . S
C1061 C1059 1.390 . S
C1061 C1062 1.387 . S
C1061 H1064 0.950 . S
C1062 C1061 1.387 . S
C1062 C1065 1.387 . S
H1063 C1059 0.950 . S
H1064 C1061 0.950 . S
C1065 C1056 1.390 . S
C1065 H1058 0.950 . S
C1065 C1062 1.387 . S
C1066 C1067 1.387 . S
C1066 H1070 0.950 . S
C1066 C1075 1.390 . S
C1067 C1066 1.387 . S
C1067 C1069 1.387 . S
H1068 C1075 0.950 . S
C1069 C1067 1.387 . S
C1069 C1071 1.390 . S
C1069 H1073 0.950 . S
H1070 C1066 0.950 . S
C1071 C1069 1.390 . S
C1071 C1072 1.387 . S
C1071 H1074 0.950 . S
C1072 C1071 1.387 . S
C1072 C1075 1.387 . S
H1073 C1069 0.950 . S
H1074 C1071 0.950 . S
C1075 C1066 1.390 . S
C1075 H1068 0.950 . S
C1075 C1072 1.387 . S
C1076 C1077 1.387 . S
C1076 H1080 0.950 . S
C1076 C1085 1.390 . S
C1077 C1076 1.387 . S
C1077 C1079 1.387 . S
H1078 C1085 0.950 . S
C1079 C1077 1.387 . S
C1079 C1081 1.390 . S
C1079 H1083 0.950 . S
H1080 C1076 0.950 . S
C1081 C1079 1.390 . S
C1081 C1082 1.387 . S
C1081 H1084 0.950 . S
C1082 C1081 1.387 . S
C1082 C1085 1.387 . S
H1083 C1079 0.950 . S
H1084 C1081 0.950 . S
C1085 C1076 1.390 . S
C1085 H1078 0.950 . S
C1085 C1082 1.387 . S
C1086 C1087 1.387 . S
C1086 H1090 0.950 . S
C1086 C1095 1.390 . S
C1087 C1086 1.387 . S
C1087 C1089 1.387 . S
H1088 C1095 0.950 . S
C1089 C1087 1.387 . S
C1089 C1091 1.390 . S
C1089 H1093 0.950 . S
H1090 C1086 0.950 . S
C1091 C1089 1.390 . S
C1091 C1092 1.387 . S
C1091 H1094 0.950 . S
C1092 C1091 1.387 . S
C1092 C1095 1.387 . S
H1093 C1089 0.950 . S
H1094 C1091 0.950 . S
C1095 C1086 1.390 . S
C1095 H1088 0.950 . S
C1095 C1092 1.387 . S
C1096 C1097 1.387 . S
C1096 H1100 0.950 . S
C1096 C1105 1.390 . S
C1097 C1096 1.387 . S
C1097 C1099 1.385 . S
H1098 C1105 0.950 . S
C1099 C1097 1.385 . S
C1099 C1101 1.398 . S
C1099 H1103 0.945 1_455 S
H1100 C1096 0.950 . S
C1101 C1099 1.398 . S
C1101 C1102 1.387 . S
C1101 H1104 0.950 . S
C1102 C1101 1.387 . S
C1102 C1105 1.387 . S
H1103 C1099 0.945 1_655 S
H1104 C1101 0.950 . S
C1105 C1096 1.390 . S
C1105 H1098 0.950 . S
C1105 C1102 1.387 . S
C1106 C1107 1.387 . S
C1106 H1110 0.950 . S
C1106 C1115 1.390 . S
C1107 C1106 1.387 . S
C1107 C1109 1.387 . S
H1108 C1115 0.950 . S
C1109 C1107 1.387 . S
C1109 C1111 1.390 . S
C1109 H1113 0.950 . S
H1110 C1106 0.950 . S
C1111 C1109 1.390 . S
C1111 C1112 1.387 . S
C1111 H1114 0.950 . S
C1112 C1111 1.387 . S
C1112 C1115 1.387 . S
H1113 C1109 0.950 . S
H1114 C1111 0.950 . S
C1115 C1106 1.390 . S
C1115 H1108 0.950 . S
C1115 C1112 1.387 . S
C1116 C1117 1.387 . S
C1116 H1120 0.950 . S
C1116 C1125 1.390 . S
C1117 C1116 1.387 . S
C1117 C1119 1.387 . S
H1118 C1125 0.950 . S
C1119 C1117 1.387 . S
C1119 C1121 1.390 . S
C1119 H1123 0.950 . S
H1120 C1116 0.950 . S
C1121 C1119 1.390 . S
C1121 C1122 1.387 . S
C1121 H1124 0.950 . S
C1122 C1121 1.387 . S
C1122 C1125 1.387 . S
H1123 C1119 0.950 . S
H1124 C1121 0.950 . S
C1125 C1116 1.390 . S
C1125 H1118 0.950 . S
C1125 C1122 1.387 . S
C1126 C1127 1.387 . S
C1126 H1130 0.950 . S
C1126 C1135 1.390 . S
C1127 C1126 1.387 . S
C1127 C1129 1.387 . S
H1128 C1135 0.950 . S
C1129 C1127 1.387 . S
C1129 C1131 1.390 . S
C1129 H1133 0.950 . S
H1130 C1126 0.950 . S
C1131 C1129 1.390 . S
C1131 C1132 1.387 . S
C1131 H1134 0.950 . S
C1132 C1131 1.387 . S
C1132 C1135 1.387 . S
H1133 C1129 0.950 . S
H1134 C1131 0.950 . S
C1135 C1126 1.390 . S
C1135 H1128 0.950 . S
C1135 C1132 1.387 . S
C1136 C1137 1.387 1_565 S
C1136 H1140 0.950 . S
C1136 C1145 1.392 . S
C1137 C1136 1.387 1_545 S
C1137 C1139 1.387 . S
H1138 C1145 0.952 . S
C1139 C1137 1.387 . S
C1139 C1141 1.390 . S
C1139 H1143 0.950 1_554 S
H1140 C1136 0.950 . S
C1141 C1139 1.390 . S
C1141 C1142 1.387 . S
C1141 H1144 0.950 1_554 S
C1142 C1141 1.387 . S
C1142 C1145 1.384 1_545 S
H1143 C1139 0.950 1_556 S
H1144 C1141 0.950 1_556 S
C1145 C1136 1.392 . S
C1145 H1138 0.952 . S
C1145 C1142 1.384 1_565 S
C1146 C1147 1.387 . S
C1146 H1150 0.950 . S
C1146 C1155 1.390 . S
C1147 C1146 1.387 . S
C1147 C1149 1.387 1_554 S
H1148 C1155 0.950 . S
C1149 C1147 1.387 1_556 S
C1149 C1151 1.374 1_556 S
C1149 H1153 0.957 . S
H1150 C1146 0.950 . S
C1151 C1149 1.374 1_554 S
C1151 C1152 1.399 . S
C1151 H1154 0.949 1_554 S
C1152 C1151 1.399 . S
C1152 C1155 1.387 . S
H1153 C1149 0.957 . S
H1154 C1151 0.949 1_556 S
C1155 C1146 1.390 . S
C1155 H1148 0.950 . S
C1155 C1152 1.387 . S
C1156 C1157 1.387 . S
C1156 H1160 0.950 . S
C1156 C1165 1.390 . S
C1157 C1156 1.387 . S
C1157 C1159 1.387 . S
H1158 C1165 0.950 . S
C1159 C1157 1.387 . S
C1159 C1161 1.390 . S
C1159 H1163 0.950 . S
H1160 C1156 0.950 . S
C1161 C1159 1.390 . S
C1161 C1162 1.387 . S
C1161 H1164 0.950 . S
C1162 C1161 1.387 . S
C1162 C1165 1.387 . S
H1163 C1159 0.950 . S
H1164 C1161 0.950 . S
C1165 C1156 1.390 . S
C1165 H1158 0.950 . S
C1165 C1162 1.387 . S
C1166 C1167 1.387 . S
C1166 H1170 0.950 . S
C1166 C1175 1.390 . S
C1167 C1166 1.387 . S
C1167 C1169 1.387 . S
H1168 C1175 0.950 . S
C1169 C1167 1.387 . S
C1169 C1171 1.390 . S
C1169 H1173 0.950 . S
H1170 C1166 0.950 . S
C1171 C1169 1.390 . S
C1171 C1172 1.387 . S
C1171 H1174 0.950 . S
C1172 C1171 1.387 . S
C1172 C1175 1.387 . S
H1173 C1169 0.950 . S
H1174 C1171 0.950 . S
C1175 C1166 1.390 . S
C1175 H1168 0.950 . S
C1175 C1172 1.387 . S
C1176 C1177 1.387 . S
C1176 H1180 0.950 . S
C1176 C1185 1.390 . S
C1177 C1176 1.387 . S
C1177 C1179 1.387 . S
H1178 C1185 0.950 . S
C1179 C1177 1.387 . S
C1179 C1181 1.390 . S
C1179 H1183 0.950 . S
H1180 C1176 0.950 . S
C1181 C1179 1.390 . S
C1181 C1182 1.387 . S
C1181 H1184 0.950 . S
C1182 C1181 1.387 . S
C1182 C1185 1.387 . S
H1183 C1179 0.950 . S
H1184 C1181 0.950 . S
C1185 C1176 1.390 . S
C1185 H1178 0.950 . S
C1185 C1182 1.387 . S
C1186 C1187 1.387 . S
C1186 H1190 0.950 . S
C1186 C1195 1.390 . S
C1187 C1186 1.387 . S
C1187 C1189 1.387 . S
H1188 C1195 0.950 . S
C1189 C1187 1.387 . S
C1189 C1191 1.390 . S
C1189 H1193 0.950 . S
H1190 C1186 0.950 . S
C1191 C1189 1.390 . S
C1191 C1192 1.387 . S
C1191 H1194 0.950 . S
C1192 C1191 1.387 . S
C1192 C1195 1.387 . S
H1193 C1189 0.950 . S
H1194 C1191 0.950 . S
C1195 C1186 1.390 . S
C1195 H1188 0.950 . S
C1195 C1192 1.387 . S
C1196 C1197 1.387 . S
C1196 H1200 0.950 . S
C1196 C1205 1.390 . S
C1197 C1196 1.387 . S
C1197 C1199 1.387 . S
H1198 C1205 0.950 . S
C1199 C1197 1.387 . S
C1199 C1201 1.390 . S
C1199 H1203 0.950 . S
H1200 C1196 0.950 . S
C1201 C1199 1.390 . S
C1201 C1202 1.387 . S
C1201 H1204 0.950 . S
C1202 C1201 1.387 . S
C1202 C1205 1.387 . S
H1203 C1199 0.950 . S
H1204 C1201 0.950 . S
C1205 C1196 1.390 . S
C1205 H1198 0.950 . S
C1205 C1202 1.387 . S
C1206 C1207 1.387 . S
C1206 H1210 0.950 . S
C1206 C1215 1.390 . S
C1207 C1206 1.387 . S
C1207 C1209 1.387 . S
H1208 C1215 0.950 . S
C1209 C1207 1.387 . S
C1209 C1211 1.390 . S
C1209 H1213 0.950 . S
H1210 C1206 0.950 . S
C1211 C1209 1.390 . S
C1211 C1212 1.387 . S
C1211 H1214 0.950 . S
C1212 C1211 1.387 . S
C1212 C1215 1.387 . S
H1213 C1209 0.950 . S
H1214 C1211 0.950 . S
C1215 C1206 1.390 . S
C1215 H1208 0.950 . S
C1215 C1212 1.387 . S
C1216 C1217 1.387 . S
C1216 H1220 0.950 . S
C1216 C1225 1.390 . S
C1217 C1216 1.387 . S
C1217 C1219 1.387 . S
H1218 C1225 0.950 . S
C1219 C1217 1.387 . S
C1219 C1221 1.390 . S
C1219 H1223 0.950 . S
H1220 C1216 0.950 . S
C1221 C1219 1.390 . S
C1221 C1222 1.387 . S
C1221 H1224 0.950 . S
C1222 C1221 1.387 . S
C1222 C1225 1.387 . S
H1223 C1219 0.950 . S
H1224 C1221 0.950 . S
C1225 C1216 1.390 . S
C1225 H1218 0.950 . S
C1225 C1222 1.387 . S
C1226 C1227 1.387 . S
C1226 H1230 0.950 . S
C1226 C1235 1.390 . S
C1227 C1226 1.387 . S
C1227 C1229 1.387 . S
H1228 C1235 0.950 . S
C1229 C1227 1.387 . S
C1229 C1231 1.390 . S
C1229 H1233 0.950 . S
H1230 C1226 0.950 . S
C1231 C1229 1.390 . S
C1231 C1232 1.387 . S
C1231 H1234 0.950 . S
C1232 C1231 1.387 . S
C1232 C1235 1.387 . S
H1233 C1229 0.950 . S
H1234 C1231 0.950 . S
C1235 C1226 1.390 . S
C1235 H1228 0.950 . S
C1235 C1232 1.387 . S
C1236 C1237 1.387 . S
C1236 H1240 0.950 . S
C1236 C1245 1.390 . S
C1237 C1236 1.387 . S
C1237 C1239 1.387 . S
H1238 C1245 0.950 . S
C1239 C1237 1.387 . S
C1239 C1241 1.390 . S
C1239 H1243 0.950 . S
H1240 C1236 0.950 . S
C1241 C1239 1.390 . S
C1241 C1242 1.387 . S
C1241 H1244 0.950 . S
C1242 C1241 1.387 . S
C1242 C1245 1.387 . S
H1243 C1239 0.950 . S
H1244 C1241 0.950 . S
C1245 C1236 1.390 . S
C1245 H1238 0.950 . S
C1245 C1242 1.387 . S
C1246 C1247 1.387 . S
C1246 H1250 0.950 . S
C1246 C1255 1.390 . S
C1247 C1246 1.387 . S
C1247 C1249 1.387 . S
H1248 C1255 0.950 . S
C1249 C1247 1.387 . S
C1249 C1251 1.390 . S
C1249 H1253 0.950 . S
H1250 C1246 0.950 . S
C1251 C1249 1.390 . S
C1251 C1252 1.387 . S
C1251 H1254 0.950 . S
C1252 C1251 1.387 . S
C1252 C1255 1.387 . S
H1253 C1249 0.950 . S
H1254 C1251 0.950 . S
C1255 C1246 1.390 . S
C1255 H1248 0.950 . S
C1255 C1252 1.387 . S
C1256 C1257 1.387 . S
C1256 H1260 0.950 . S
C1256 C1265 1.390 . S
C1257 C1256 1.387 . S
C1257 C1259 1.387 . S
H1258 C1265 0.950 . S
C1259 C1257 1.387 . S
C1259 C1261 1.390 . S
C1259 H1263 0.950 . S
H1260 C1256 0.950 . S
C1261 C1259 1.390 . S
C1261 C1262 1.387 . S
C1261 H1264 0.950 . S
C1262 C1261 1.387 . S
C1262 C1265 1.387 . S
H1263 C1259 0.950 . S
H1264 C1261 0.950 . S
C1265 C1256 1.390 . S
C1265 H1258 0.950 . S
C1265 C1262 1.387 . S
C1266 C1267 1.387 . S
C1266 H1270 0.950 . S
C1266 C1275 1.390 . S
C1267 C1266 1.387 . S
C1267 C1269 1.387 . S
H1268 C1275 0.950 . S
C1269 C1267 1.387 . S
C1269 C1271 1.390 . S
C1269 H1273 0.950 . S
H1270 C1266 0.950 . S
C1271 C1269 1.390 . S
C1271 C1272 1.387 . S
C1271 H1274 0.950 . S
C1272 C1271 1.387 . S
C1272 C1275 1.387 . S
H1273 C1269 0.950 . S
H1274 C1271 0.950 . S
C1275 C1266 1.390 . S
C1275 H1268 0.950 . S
C1275 C1272 1.387 . S
C1276 C1277 1.387 . S
C1276 H1280 0.950 . S
C1276 C1285 1.390 . S
C1277 C1276 1.387 . S
C1277 C1279 1.387 . S
H1278 C1285 0.950 . S
C1279 C1277 1.387 . S
C1279 C1281 1.390 . S
C1279 H1283 0.950 . S
H1280 C1276 0.950 . S
C1281 C1279 1.390 . S
C1281 C1282 1.387 . S
C1281 H1284 0.950 . S
C1282 C1281 1.387 . S
C1282 C1285 1.387 . S
H1283 C1279 0.950 . S
H1284 C1281 0.950 . S
C1285 C1276 1.390 . S
C1285 H1278 0.950 . S
C1285 C1282 1.387 . S
C1286 C1287 1.387 . S
C1286 H1290 0.950 . S
C1286 C1295 1.390 . S
C1287 C1286 1.387 . S
C1287 C1289 1.387 . S
H1288 C1295 0.950 . S
C1289 C1287 1.387 . S
C1289 C1291 1.390 . S
C1289 H1293 0.950 . S
H1290 C1286 0.950 . S
C1291 C1289 1.390 . S
C1291 C1292 1.387 . S
C1291 H1294 0.950 . S
C1292 C1291 1.387 . S
C1292 C1295 1.387 . S
H1293 C1289 0.950 . S
H1294 C1291 0.950 . S
C1295 C1286 1.390 . S
C1295 H1288 0.950 . S
C1295 C1292 1.387 . S
C1296 C1297 1.387 1_565 S
C1296 H1300 0.950 . S
C1296 C1305 1.390 . S
C1297 C1296 1.387 1_545 S
C1297 C1299 1.387 . S
H1298 C1305 0.950 . S
C1299 C1297 1.387 . S
C1299 C1301 1.390 . S
C1299 H1303 0.950 . S
H1300 C1296 0.950 . S
C1301 C1299 1.390 . S
C1301 C1302 1.387 . S
C1301 H1304 0.950 . S
C1302 C1301 1.387 . S
C1302 C1305 1.387 1_545 S
H1303 C1299 0.950 . S
H1304 C1301 0.950 . S
C1305 C1296 1.390 . S
C1305 H1298 0.950 . S
C1305 C1302 1.387 1_565 S
C1306 C1307 1.387 . S
C1306 H1310 0.950 . S
C1306 C1315 1.390 . S
C1307 C1306 1.387 . S
C1307 C1309 1.387 . S
H1308 C1315 0.950 . S
C1309 C1307 1.387 . S
C1309 C1311 1.390 . S
C1309 H1313 0.950 . S
H1310 C1306 0.950 . S
C1311 C1309 1.390 . S
C1311 C1312 1.387 . S
C1311 H1314 0.950 . S
C1312 C1311 1.387 . S
C1312 C1315 1.387 . S
H1313 C1309 0.950 . S
H1314 C1311 0.950 . S
C1315 C1306 1.390 . S
C1315 H1308 0.950 . S
C1315 C1312 1.387 . S
C1316 C1317 1.387 . S
C1316 H1320 0.950 . S
C1316 C1325 1.390 . S
C1317 C1316 1.387 . S
C1317 C1319 1.387 1_545 S
H1318 C1325 0.950 . S
C1319 C1317 1.387 1_565 S
C1319 C1321 1.390 1_565 S
C1319 H1323 0.950 . S
H1320 C1316 0.950 . S
C1321 C1319 1.390 1_545 S
C1321 C1322 1.387 . S
C1321 H1324 0.950 1_545 S
C1322 C1321 1.387 . S
C1322 C1325 1.387 . S
H1323 C1319 0.950 . S
H1324 C1321 0.950 1_565 S
C1325 C1316 1.390 . S
C1325 H1318 0.950 . S
C1325 C1322 1.387 . S
C1326 C1327 1.387 . S
C1326 H1330 0.950 . S
C1326 C1335 1.390 . S
C1327 C1326 1.387 . S
C1327 C1329 1.387 . S
H1328 C1335 0.950 . S
C1329 C1327 1.387 . S
C1329 C1331 1.390 . S
C1329 H1333 0.950 . S
H1330 C1326 0.950 . S
C1331 C1329 1.390 . S
C1331 C1332 1.387 . S
C1331 H1334 0.950 . S
C1332 C1331 1.387 . S
C1332 C1335 1.387 . S
H1333 C1329 0.950 . S
H1334 C1331 0.950 . S
C1335 C1326 1.390 . S
C1335 H1328 0.950 . S
C1335 C1332 1.387 . S
C1336 C1337 1.387 . S
C1336 H1340 0.950 . S
C1336 C1345 1.390 . S
C1337 C1336 1.387 . S
C1337 C1339 1.387 . S
H1338 C1345 0.950 . S
C1339 C1337 1.387 . S
C1339 C1341 1.390 . S
C1339 H1343 0.950 1_545 S
H1340 C1336 0.950 . S
C1341 C1339 1.390 . S
C1341 C1342 1.387 . S
C1341 H1344 0.950 . S
C1342 C1341 1.387 . S
C1342 C1345 1.387 . S
H1343 C1339 0.950 1_565 S
H1344 C1341 0.950 . S
C1345 C1336 1.390 . S
C1345 H1338 0.950 . S
C1345 C1342 1.387 . S
C1346 C1347 1.387 . S
C1346 H1350 0.950 . S
C1346 C1355 1.390 . S
C1347 C1346 1.387 . S
C1347 C1349 1.387 . S
H1348 C1355 0.950 . S
C1349 C1347 1.387 . S
C1349 C1351 1.390 . S
C1349 H1353 0.950 . S
H1350 C1346 0.950 . S
C1351 C1349 1.390 . S
C1351 C1352 1.387 . S
C1351 H1354 0.950 . S
C1352 C1351 1.387 . S
C1352 C1355 1.387 . S
H1353 C1349 0.950 . S
H1354 C1351 0.950 . S
C1355 C1346 1.390 . S
C1355 H1348 0.950 . S
C1355 C1352 1.387 . S
C1356 C1357 1.387 1_545 S
C1356 H1360 0.950 . S
C1356 C1365 1.390 . S
C1357 C1356 1.387 1_565 S
C1357 C1359 1.387 . S
H1358 C1365 0.950 . S
C1359 C1357 1.387 . S
C1359 C1361 1.390 . S
C1359 H1363 0.950 . S
H1360 C1356 0.950 . S
C1361 C1359 1.390 . S
C1361 C1362 1.387 . S
C1361 H1364 0.950 . S
C1362 C1361 1.387 . S
C1362 C1365 1.387 1_565 S
H1363 C1359 0.950 . S
H1364 C1361 0.950 . S
C1365 C1356 1.390 . S
C1365 H1358 0.950 . S
C1365 C1362 1.387 1_545 S
C1366 C1367 1.387 . S
C1366 H1370 0.950 . S
C1366 C1375 1.390 . S
C1367 C1366 1.387 . S
C1367 C1369 1.387 . S
H1368 C1375 0.950 . S
C1369 C1367 1.387 . S
C1369 C1371 1.390 . S
C1369 H1373 0.950 . S
H1370 C1366 0.950 . S
C1371 C1369 1.390 . S
C1371 C1372 1.387 . S
C1371 H1374 0.950 . S
C1372 C1371 1.387 . S
C1372 C1375 1.387 . S
H1373 C1369 0.950 . S
H1374 C1371 0.950 . S
C1375 C1366 1.390 . S
C1375 H1368 0.950 . S
C1375 C1372 1.387 . S
C1376 C1377 1.387 . S
C1376 H1380 0.950 . S
C1376 C1385 1.390 . S
C1377 C1376 1.387 . S
C1377 C1379 1.387 . S
H1378 C1385 0.950 . S
C1379 C1377 1.387 . S
C1379 C1381 1.390 1_554 S
C1379 H1383 0.950 1_554 S
H1380 C1376 0.950 . S
C1381 C1379 1.390 1_556 S
C1381 C1382 1.387 1_556 S
C1381 H1384 0.950 . S
C1382 C1381 1.387 1_554 S
C1382 C1385 1.387 . S
H1383 C1379 0.950 1_556 S
H1384 C1381 0.950 . S
C1385 C1376 1.390 . S
C1385 H1378 0.950 . S
C1385 C1382 1.387 . S
C1386 C1387 1.387 . S
C1386 H1390 0.950 1_554 S
C1386 C1395 1.390 . S
C1387 C1386 1.387 . S
C1387 C1389 1.387 . S
H1388 C1395 0.950 1_556 S
C1389 C1387 1.387 . S
C1389 C1391 1.390 . S
C1389 H1393 0.950 . S
H1390 C1386 0.950 1_556 S
C1391 C1389 1.390 . S
C1391 C1392 1.387 . S
C1391 H1394 0.950 . S
C1392 C1391 1.387 . S
C1392 C1395 1.387 . S
H1393 C1389 0.950 . S
H1394 C1391 0.950 . S
C1395 C1386 1.390 . S
C1395 H1388 0.950 1_554 S
C1395 C1392 1.387 . S
C1396 C1397 1.387 . S
C1396 H1400 0.950 . S
C1396 C1405 1.390 . S
C1397 C1396 1.387 . S
C1397 C1399 1.387 . S
H1398 C1405 0.950 . S
C1399 C1397 1.387 . S
C1399 C1401 1.390 . S
C1399 H1403 0.950 . S
H1400 C1396 0.950 . S
C1401 C1399 1.390 . S
C1401 C1402 1.387 . S
C1401 H1404 0.950 . S
C1402 C1401 1.387 . S
C1402 C1405 1.387 . S
H1403 C1399 0.950 . S
H1404 C1401 0.950 . S
C1405 C1396 1.390 . S
C1405 H1398 0.950 . S
C1405 C1402 1.387 . S
C1406 C1407 1.387 . S
C1406 H1410 0.950 . S
C1406 C1415 1.390 . S
C1407 C1406 1.387 . S
C1407 C1409 1.387 . S
H1408 C1415 0.950 . S
C1409 C1407 1.387 . S
C1409 C1411 1.390 . S
C1409 H1413 0.950 . S
H1410 C1406 0.950 . S
C1411 C1409 1.390 . S
C1411 C1412 1.387 . S
C1411 H1414 0.950 . S
C1412 C1411 1.387 . S
C1412 C1415 1.387 . S
H1413 C1409 0.950 . S
H1414 C1411 0.950 . S
C1415 C1406 1.390 . S
C1415 H1408 0.950 . S
C1415 C1412 1.387 . S
C1416 C1417 1.387 . S
C1416 H1420 0.950 1_545 S
C1416 C1425 1.390 1_545 S
C1417 C1416 1.387 . S
C1417 C1419 1.387 . S
H1418 C1425 0.950 . S
C1419 C1417 1.387 . S
C1419 C1421 1.390 . S
C1419 H1423 0.950 . S
H1420 C1416 0.950 1_565 S
C1421 C1419 1.390 . S
C1421 C1422 1.387 . S
C1421 H1424 0.950 . S
C1422 C1421 1.387 . S
C1422 C1425 1.387 1_545 S
H1423 C1419 0.950 . S
H1424 C1421 0.950 . S
C1425 C1416 1.390 1_565 S
C1425 H1418 0.950 . S
C1425 C1422 1.387 1_565 S
C1426 C1427 1.387 . S
C1426 H1430 0.950 . S
C1426 C1435 1.390 . S
C1427 C1426 1.387 . S
C1427 C1429 1.387 . S
H1428 C1435 0.950 . S
C1429 C1427 1.387 . S
C1429 C1431 1.390 . S
C1429 H1433 0.950 . S
H1430 C1426 0.950 . S
C1431 C1429 1.390 . S
C1431 C1432 1.387 . S
C1431 H1434 0.950 . S
C1432 C1431 1.387 . S
C1432 C1435 1.387 . S
H1433 C1429 0.950 . S
H1434 C1431 0.950 . S
C1435 C1426 1.390 . S
C1435 H1428 0.950 . S
C1435 C1432 1.387 . S
C1436 C1437 1.387 . S
C1436 H1440 0.950 . S
C1436 C1445 1.390 . S
C1437 C1436 1.387 . S
C1437 C1439 1.387 . S
H1438 C1445 0.950 . S
C1439 C1437 1.387 . S
C1439 C1441 1.390 . S
C1439 H1443 0.950 . S
H1440 C1436 0.950 . S
C1441 C1439 1.390 . S
C1441 C1442 1.387 . S
C1441 H1444 0.950 . S
C1442 C1441 1.387 . S
C1442 C1445 1.387 . S
H1443 C1439 0.950 . S
H1444 C1441 0.950 . S
C1445 C1436 1.390 . S
C1445 H1438 0.950 . S
C1445 C1442 1.387 . S
C1446 C1447 1.387 . S
C1446 H1450 0.950 . S
C1446 C1455 1.390 . S
C1447 C1446 1.387 . S
C1447 C1449 1.387 . S
H1448 C1455 0.950 . S
C1449 C1447 1.387 . S
C1449 C1451 1.390 . S
C1449 H1453 0.950 . S
H1450 C1446 0.950 . S
C1451 C1449 1.390 . S
C1451 C1452 1.387 . S
C1451 H1454 0.950 . S
C1452 C1451 1.387 . S
C1452 C1455 1.387 . S
H1453 C1449 0.950 . S
H1454 C1451 0.950 . S
C1455 C1446 1.390 . S
C1455 H1448 0.950 . S
C1455 C1452 1.387 . S
C1456 C1457 1.387 . S
C1456 H1460 0.950 . S
C1456 C1465 1.390 . S
C1457 C1456 1.387 . S
C1457 C1459 1.387 . S
H1458 C1465 0.950 . S
C1459 C1457 1.387 . S
C1459 C1461 1.390 . S
C1459 H1463 0.950 . S
H1460 C1456 0.950 . S
C1461 C1459 1.390 . S
C1461 C1462 1.387 . S
C1461 H1464 0.950 . S
C1462 C1461 1.387 . S
C1462 C1465 1.387 . S
H1463 C1459 0.950 . S
H1464 C1461 0.950 . S
C1465 C1456 1.390 . S
C1465 H1458 0.950 . S
C1465 C1462 1.387 . S
C1466 C1467 1.387 . S
C1466 H1470 0.950 . S
C1466 C1475 1.390 . S
C1467 C1466 1.387 . S
C1467 C1469 1.387 . S
H1468 C1475 0.950 . S
C1469 C1467 1.387 . S
C1469 C1471 1.390 . S
C1469 H1473 0.950 . S
H1470 C1466 0.950 . S
C1471 C1469 1.390 . S
C1471 C1472 1.387 . S
C1471 H1474 0.950 . S
C1472 C1471 1.387 . S
C1472 C1475 1.387 . S
H1473 C1469 0.950 . S
H1474 C1471 0.950 . S
C1475 C1466 1.390 . S
C1475 H1468 0.950 . S
C1475 C1472 1.387 . S
C1476 C1477 1.387 . S
C1476 H1480 0.950 . S
C1476 C1485 1.390 . S
C1477 C1476 1.387 . S
C1477 C1479 1.387 . S
H1478 C1485 0.950 . S
C1479 C1477 1.387 . S
C1479 C1481 1.390 . S
C1479 H1483 0.950 1_455 S
H1480 C1476 0.950 . S
C1481 C1479 1.390 . S
C1481 C1482 1.387 . S
C1481 H1484 0.950 . S
C1482 C1481 1.387 . S
C1482 C1485 1.387 . S
H1483 C1479 0.950 1_655 S
H1484 C1481 0.950 . S
C1485 C1476 1.390 . S
C1485 H1478 0.950 . S
C1485 C1482 1.387 . S
C1486 C1487 1.387 . S
C1486 H1490 0.950 . S
C1486 C1495 1.399 . S
C1487 C1486 1.387 . S
C1487 C1489 1.387 . S
H1488 C1495 0.945 1_655 S
C1489 C1487 1.387 . S
C1489 C1491 1.390 1_455 S
C1489 H1493 0.950 . S
H1490 C1486 0.950 . S
C1491 C1489 1.390 1_655 S
C1491 C1492 1.387 . S
C1491 H1494 0.950 . S
C1492 C1491 1.387 . S
C1492 C1495 1.383 1_655 S
H1493 C1489 0.950 . S
H1494 C1491 0.950 . S
C1495 C1486 1.399 . S
C1495 H1488 0.945 1_455 S
C1495 C1492 1.383 1_455 S
C1496 C1497 1.387 . S
C1496 H1500 0.950 . S
C1496 C1505 1.390 . S
C1497 C1496 1.387 . S
C1497 C1499 1.387 . S
H1498 C1505 0.950 . S
C1499 C1497 1.387 . S
C1499 C1501 1.390 . S
C1499 H1503 0.950 . S
H1500 C1496 0.950 . S
C1501 C1499 1.390 . S
C1501 C1502 1.387 . S
C1501 H1504 0.950 . S
C1502 C1501 1.387 . S
C1502 C1505 1.387 . S
H1503 C1499 0.950 . S
H1504 C1501 0.950 . S
C1505 C1496 1.390 . S
C1505 H1498 0.950 . S
C1505 C1502 1.387 . S
C1506 C1507 1.387 . S
C1506 H1510 0.950 . S
C1506 C1515 1.390 . S
C1507 C1506 1.387 . S
C1507 C1509 1.387 . S
H1508 C1515 0.950 . S
C1509 C1507 1.387 . S
C1509 C1511 1.390 . S
C1509 H1513 0.950 . S
H1510 C1506 0.950 . S
C1511 C1509 1.390 . S
C1511 C1512 1.387 . S
C1511 H1514 0.950 . S
C1512 C1511 1.387 . S
C1512 C1515 1.387 . S
H1513 C1509 0.950 . S
H1514 C1511 0.950 . S
C1515 C1506 1.390 . S
C1515 H1508 0.950 . S
C1515 C1512 1.387 . S
C1516 C1517 1.387 . S
C1516 H1520 0.950 . S
C1516 C1525 1.390 . S
C1517 C1516 1.387 . S
C1517 C1519 1.387 . S
H1518 C1525 0.950 . S
C1519 C1517 1.387 . S
C1519 C1521 1.390 . S
C1519 H1523 0.950 . S
H1520 C1516 0.950 . S
C1521 C1519 1.390 . S
C1521 C1522 1.387 . S
C1521 H1524 0.950 . S
C1522 C1521 1.387 . S
C1522 C1525 1.387 . S
H1523 C1519 0.950 . S
H1524 C1521 0.950 . S
C1525 C1516 1.390 . S
C1525 H1518 0.950 . S
C1525 C1522 1.387 . S
C1526 C1527 1.387 . S
C1526 H1530 0.950 . S
C1526 C1535 1.390 . S
C1527 C1526 1.387 . S
C1527 C1529 1.387 . S
H1528 C1535 0.950 . S
C1529 C1527 1.387 . S
C1529 C1531 1.390 . S
C1529 H1533 0.950 . S
H1530 C1526 0.950 . S
C1531 C1529 1.390 . S
C1531 C1532 1.387 . S
C1531 H1534 0.950 . S
C1532 C1531 1.387 . S
C1532 C1535 1.387 . S
H1533 C1529 0.950 . S
H1534 C1531 0.950 . S
C1535 C1526 1.390 . S
C1535 H1528 0.950 . S
C1535 C1532 1.387 . S
C1536 C1537 1.387 . S
C1536 H1540 0.950 . S
C1536 C1545 1.390 . S
C1537 C1536 1.387 . S
C1537 C1539 1.387 . S
H1538 C1545 0.950 . S
C1539 C1537 1.387 . S
C1539 C1541 1.390 . S
C1539 H1543 0.950 . S
H1540 C1536 0.950 . S
C1541 C1539 1.390 . S
C1541 C1542 1.387 . S
C1541 H1544 0.950 . S
C1542 C1541 1.387 . S
C1542 C1545 1.387 . S
H1543 C1539 0.950 . S
H1544 C1541 0.950 . S
C1545 C1536 1.390 . S
C1545 H1538 0.950 . S
C1545 C1542 1.387 . S
C1546 C1547 1.387 . S
C1546 H1550 0.950 . S
C1546 C1555 1.390 . S
C1547 C1546 1.387 . S
C1547 C1549 1.387 . S
H1548 C1555 0.950 . S
C1549 C1547 1.387 . S
C1549 C1551 1.390 . S
C1549 H1553 0.950 1_556 S
H1550 C1546 0.950 . S
C1551 C1549 1.390 . S
C1551 C1552 1.387 . S
C1551 H1554 0.950 . S
C1552 C1551 1.387 . S
C1552 C1555 1.387 . S
H1553 C1549 0.950 1_554 S
H1554 C1551 0.950 . S
C1555 C1546 1.390 . S
C1555 H1548 0.950 . S
C1555 C1552 1.387 . S
C1556 C1557 1.387 . S
C1556 H1560 0.950 . S
C1556 C1565 1.390 . S
C1557 C1556 1.387 . S
C1557 C1559 1.387 . S
H1558 C1565 0.950 . S
C1559 C1557 1.387 . S
C1559 C1561 1.390 . S
C1559 H1563 0.950 . S
H1560 C1556 0.950 . S
C1561 C1559 1.390 . S
C1561 C1562 1.387 . S
C1561 H1564 0.950 . S
C1562 C1561 1.387 . S
C1562 C1565 1.387 . S
H1563 C1559 0.950 . S
H1564 C1561 0.950 . S
C1565 C1556 1.390 . S
C1565 H1558 0.950 . S
C1565 C1562 1.387 . S
C1566 C1567 1.387 . S
C1566 H1570 0.950 . S
C1566 C1575 1.390 . S
C1567 C1566 1.387 . S
C1567 C1569 1.387 . S
H1568 C1575 0.950 . S
C1569 C1567 1.387 . S
C1569 C1571 1.390 . S
C1569 H1573 0.950 . S
H1570 C1566 0.950 . S
C1571 C1569 1.390 . S
C1571 C1572 1.387 . S
C1571 H1574 0.950 . S
C1572 C1571 1.387 . S
C1572 C1575 1.387 . S
H1573 C1569 0.950 . S
H1574 C1571 0.950 . S
C1575 C1566 1.390 . S
C1575 H1568 0.950 . S
C1575 C1572 1.387 . S
C1576 C1577 1.387 . S
C1576 H1580 0.950 . S
C1576 C1585 1.390 . S
C1577 C1576 1.387 . S
C1577 C1579 1.387 . S
H1578 C1585 0.950 . S
C1579 C1577 1.387 . S
C1579 C1581 1.390 . S
C1579 H1583 0.950 . S
H1580 C1576 0.950 . S
C1581 C1579 1.390 . S
C1581 C1582 1.387 . S
C1581 H1584 0.950 . S
C1582 C1581 1.387 . S
C1582 C1585 1.387 . S
H1583 C1579 0.950 . S
H1584 C1581 0.950 . S
C1585 C1576 1.390 . S
C1585 H1578 0.950 . S
C1585 C1582 1.387 . S
C1586 C1587 1.387 . S
C1586 H1590 0.950 . S
C1586 C1595 1.390 . S
C1587 C1586 1.387 . S
C1587 C1589 1.387 . S
H1588 C1595 0.950 . S
C1589 C1587 1.387 . S
C1589 C1591 1.390 . S
C1589 H1593 0.950 . S
H1590 C1586 0.950 . S
C1591 C1589 1.390 . S
C1591 C1592 1.387 . S
C1591 H1594 0.950 . S
C1592 C1591 1.387 . S
C1592 C1595 1.387 . S
H1593 C1589 0.950 . S
H1594 C1591 0.950 . S
C1595 C1586 1.390 . S
C1595 H1588 0.950 . S
C1595 C1592 1.387 . S
C1596 C1597 1.387 . S
C1596 H1600 0.950 . S
C1596 C1605 1.390 . S
C1597 C1596 1.387 . S
C1597 C1599 1.387 . S
H1598 C1605 0.950 . S
C1599 C1597 1.387 . S
C1599 C1601 1.390 . S
C1599 H1603 0.950 . S
H1600 C1596 0.950 . S
C1601 C1599 1.390 . S
C1601 C1602 1.387 . S
C1601 H1604 0.950 . S
C1602 C1601 1.387 . S
C1602 C1605 1.387 . S
H1603 C1599 0.950 . S
H1604 C1601 0.950 . S
C1605 C1596 1.390 . S
C1605 H1598 0.950 . S
C1605 C1602 1.387 . S
C1606 C1607 1.387 . S
C1606 H1610 0.950 . S
C1606 C1615 1.390 . S
C1607 C1606 1.387 . S
C1607 C1609 1.387 . S
H1608 C1615 0.950 . S
C1609 C1607 1.387 . S
C1609 C1611 1.390 . S
C1609 H1613 0.950 . S
H1610 C1606 0.950 . S
C1611 C1609 1.390 . S
C1611 C1612 1.387 . S
C1611 H1614 0.950 . S
C1612 C1611 1.387 . S
C1612 C1615 1.387 . S
H1613 C1609 0.950 . S
H1614 C1611 0.950 . S
C1615 C1606 1.390 . S
C1615 H1608 0.950 . S
C1615 C1612 1.387 . S
C1616 C1617 1.387 . S
C1616 H1620 0.950 . S
C1616 C1625 1.390 . S
C1617 C1616 1.387 . S
C1617 C1619 1.387 . S
H1618 C1625 0.950 . S
C1619 C1617 1.387 . S
C1619 C1621 1.390 . S
C1619 H1623 0.950 . S
H1620 C1616 0.950 . S
C1621 C1619 1.390 . S
C1621 C1622 1.387 . S
C1621 H1624 0.950 . S
C1622 C1621 1.387 . S
C1622 C1625 1.387 . S
H1623 C1619 0.950 . S
H1624 C1621 0.950 . S
C1625 C1616 1.390 . S
C1625 H1618 0.950 . S
C1625 C1622 1.387 . S
C1626 C1627 1.387 . S
C1626 H1630 0.950 . S
C1626 C1635 1.390 . S
C1627 C1626 1.387 . S
C1627 C1629 1.387 . S
H1628 C1635 0.950 . S
C1629 C1627 1.387 . S
C1629 C1631 1.390 . S
C1629 H1633 0.950 . S
H1630 C1626 0.950 . S
C1631 C1629 1.390 . S
C1631 C1632 1.387 . S
C1631 H1634 0.950 . S
C1632 C1631 1.387 . S
C1632 C1635 1.387 . S
H1633 C1629 0.950 . S
H1634 C1631 0.950 . S
C1635 C1626 1.390 . S
C1635 H1628 0.950 . S
C1635 C1632 1.387 . S
C1636 C1637 1.387 . S
C1636 H1640 0.950 . S
C1636 C1645 1.390 . S
C1637 C1636 1.387 . S
C1637 C1639 1.387 . S
H1638 C1645 0.950 . S
C1639 C1637 1.387 . S
C1639 C1641 1.390 . S
C1639 H1643 0.950 . S
H1640 C1636 0.950 . S
C1641 C1639 1.390 . S
C1641 C1642 1.387 . S
C1641 H1644 0.950 . S
C1642 C1641 1.387 . S
C1642 C1645 1.387 . S
H1643 C1639 0.950 . S
H1644 C1641 0.950 . S
C1645 C1636 1.390 . S
C1645 H1638 0.950 . S
C1645 C1642 1.387 . S
C1646 C1647 1.387 1_556 S
C1646 H1650 0.950 . S
C1646 C1655 1.390 . S
C1647 C1646 1.387 1_554 S
C1647 C1649 1.387 1_545 S
H1648 C1655 0.950 . S
C1649 C1647 1.387 1_565 S
C1649 C1651 1.390 . S
C1649 H1653 0.950 . S
H1650 C1646 0.950 . S
C1651 C1649 1.390 . S
C1651 C1652 1.387 1_565 S
C1651 H1654 0.950 . S
C1652 C1651 1.387 1_545 S
C1652 C1655 1.387 1_554 S
H1653 C1649 0.950 . S
H1654 C1651 0.950 . S
C1655 C1646 1.390 . S
C1655 H1648 0.950 . S
C1655 C1652 1.387 1_556 S
C1656 C1657 1.387 . S
C1656 H1660 0.950 . S
C1656 C1665 1.390 . S
C1657 C1656 1.387 . S
C1657 C1659 1.387 . S
H1658 C1665 0.950 . S
C1659 C1657 1.387 . S
C1659 C1661 1.390 . S
C1659 H1663 0.950 . S
H1660 C1656 0.950 . S
C1661 C1659 1.390 . S
C1661 C1662 1.387 . S
C1661 H1664 0.950 . S
C1662 C1661 1.387 . S
C1662 C1665 1.387 . S
H1663 C1659 0.950 . S
H1664 C1661 0.950 . S
C1665 C1656 1.390 . S
C1665 H1658 0.950 . S
C1665 C1662 1.387 . S
C1666 C1667 1.387 . S
C1666 H1670 0.950 . S
C1666 C1675 1.390 . S
C1667 C1666 1.387 . S
C1667 C1669 1.387 . S
H1668 C1675 0.950 . S
C1669 C1667 1.387 . S
C1669 C1671 1.390 . S
C1669 H1673 0.950 1_554 S
H1670 C1666 0.950 . S
C1671 C1669 1.390 . S
C1671 C1672 1.387 . S
C1671 H1674 0.950 . S
C1672 C1671 1.387 . S
C1672 C1675 1.387 . S
H1673 C1669 0.950 1_556 S
H1674 C1671 0.950 . S
C1675 C1666 1.390 . S
C1675 H1668 0.950 . S
C1675 C1672 1.387 . S
C1676 C1677 1.387 . S
C1676 H1680 0.950 . S
C1676 C1685 1.390 . S
C1677 C1676 1.387 . S
C1677 C1679 1.387 . S
H1678 C1685 0.950 . S
C1679 C1677 1.387 . S
C1679 C1681 1.390 . S
C1679 H1683 0.950 . S
H1680 C1676 0.950 . S
C1681 C1679 1.390 . S
C1681 C1682 1.387 . S
C1681 H1684 0.950 . S
C1682 C1681 1.387 . S
C1682 C1685 1.387 . S
H1683 C1679 0.950 . S
H1684 C1681 0.950 . S
C1685 C1676 1.390 . S
C1685 H1678 0.950 . S
C1685 C1682 1.387 . S
C1686 C1687 1.387 . S
C1686 H1690 0.950 . S
C1686 C1695 1.390 . S
C1687 C1686 1.387 . S
C1687 C1689 1.387 . S
H1688 C1695 0.950 . S
C1689 C1687 1.387 . S
C1689 C1691 1.390 . S
C1689 H1693 0.950 . S
H1690 C1686 0.950 . S
C1691 C1689 1.390 . S
C1691 C1692 1.387 . S
C1691 H1694 0.950 . S
C1692 C1691 1.387 . S
C1692 C1695 1.387 . S
H1693 C1689 0.950 . S
H1694 C1691 0.950 . S
C1695 C1686 1.390 . S
C1695 H1688 0.950 . S
C1695 C1692 1.387 . S
C1696 C1697 1.387 . S
C1696 H1700 0.950 . S
C1696 C1705 1.390 . S
C1697 C1696 1.387 . S
C1697 C1699 1.387 . S
H1698 C1705 0.950 . S
C1699 C1697 1.387 . S
C1699 C1701 1.390 . S
C1699 H1703 0.950 . S
H1700 C1696 0.950 . S
C1701 C1699 1.390 . S
C1701 C1702 1.387 . S
C1701 H1704 0.950 . S
C1702 C1701 1.387 . S
C1702 C1705 1.387 . S
H1703 C1699 0.950 . S
H1704 C1701 0.950 . S
C1705 C1696 1.390 . S
C1705 H1698 0.950 . S
C1705 C1702 1.387 . S
C1706 C1707 1.387 . S
C1706 H1710 0.950 . S
C1706 C1715 1.390 . S
C1707 C1706 1.387 . S
C1707 C1709 1.387 . S
H1708 C1715 0.950 . S
C1709 C1707 1.387 . S
C1709 C1711 1.390 . S
C1709 H1713 0.950 . S
H1710 C1706 0.950 . S
C1711 C1709 1.390 . S
C1711 C1712 1.387 . S
C1711 H1714 0.950 . S
C1712 C1711 1.387 . S
C1712 C1715 1.387 . S
H1713 C1709 0.950 . S
H1714 C1711 0.950 . S
C1715 C1706 1.390 . S
C1715 H1708 0.950 . S
C1715 C1712 1.387 . S
C1716 C1717 1.387 . S
C1716 H1720 0.950 . S
C1716 C1725 1.390 . S
C1717 C1716 1.387 . S
C1717 C1719 1.387 . S
H1718 C1725 0.950 . S
C1719 C1717 1.387 . S
C1719 C1721 1.390 . S
C1719 H1723 0.950 . S
H1720 C1716 0.950 . S
C1721 C1719 1.390 . S
C1721 C1722 1.387 . S
C1721 H1724 0.950 . S
C1722 C1721 1.387 . S
C1722 C1725 1.387 . S
H1723 C1719 0.950 . S
H1724 C1721 0.950 . S
C1725 C1716 1.390 . S
C1725 H1718 0.950 . S
C1725 C1722 1.387 . S
C1726 C1727 1.387 . S
C1726 H1730 0.950 . S
C1726 C1735 1.390 . S
C1727 C1726 1.387 . S
C1727 C1729 1.387 . S
H1728 C1735 0.950 . S
C1729 C1727 1.387 . S
C1729 C1731 1.390 . S
C1729 H1733 0.950 . S
H1730 C1726 0.950 . S
C1731 C1729 1.390 . S
C1731 C1732 1.387 . S
C1731 H1734 0.950 . S
C1732 C1731 1.387 . S
C1732 C1735 1.387 . S
H1733 C1729 0.950 . S
H1734 C1731 0.950 . S
C1735 C1726 1.390 . S
C1735 H1728 0.950 . S
C1735 C1732 1.387 . S
C1736 C1737 1.387 . S
C1736 H1740 0.950 1_556 S
C1736 C1745 1.390 . S
C1737 C1736 1.387 . S
C1737 C1739 1.387 . S
H1738 C1745 0.950 1_554 S
C1739 C1737 1.387 . S
C1739 C1741 1.390 . S
C1739 H1743 0.950 . S
H1740 C1736 0.950 1_554 S
C1741 C1739 1.390 . S
C1741 C1742 1.387 . S
C1741 H1744 0.950 . S
C1742 C1741 1.387 . S
C1742 C1745 1.387 . S
H1743 C1739 0.950 . S
H1744 C1741 0.950 . S
C1745 C1736 1.390 . S
C1745 H1738 0.950 1_556 S
C1745 C1742 1.387 . S
C1746 C1747 1.387 . S
C1746 H1750 0.950 . S
C1746 C1755 1.390 . S
C1747 C1746 1.387 . S
C1747 C1749 1.387 . S
H1748 C1755 0.950 . S
C1749 C1747 1.387 . S
C1749 C1751 1.390 . S
C1749 H1753 0.950 . S
H1750 C1746 0.950 . S
C1751 C1749 1.390 . S
C1751 C1752 1.387 . S
C1751 H1754 0.950 . S
C1752 C1751 1.387 . S
C1752 C1755 1.387 . S
H1753 C1749 0.950 . S
H1754 C1751 0.950 . S
C1755 C1746 1.390 . S
C1755 H1748 0.950 . S
C1755 C1752 1.387 . S
C1756 C1757 1.387 . S
C1756 H1760 0.950 . S
C1756 C1765 1.390 . S
C1757 C1756 1.387 . S
C1757 C1759 1.387 . S
H1758 C1765 0.950 . S
C1759 C1757 1.387 . S
C1759 C1761 1.390 . S
C1759 H1763 0.950 . S
H1760 C1756 0.950 . S
C1761 C1759 1.390 . S
C1761 C1762 1.387 . S
C1761 H1764 0.950 . S
C1762 C1761 1.387 . S
C1762 C1765 1.387 . S
H1763 C1759 0.950 . S
H1764 C1761 0.950 . S
C1765 C1756 1.390 . S
C1765 H1758 0.950 . S
C1765 C1762 1.387 . S
C1766 C1767 1.387 . S
C1766 H1770 0.950 . S
C1766 C1775 1.390 . S
C1767 C1766 1.387 . S
C1767 C1769 1.387 . S
H1768 C1775 0.950 . S
C1769 C1767 1.387 . S
C1769 C1771 1.390 . S
C1769 H1773 0.950 . S
H1770 C1766 0.950 . S
C1771 C1769 1.390 . S
C1771 C1772 1.387 . S
C1771 H1774 0.950 . S
C1772 C1771 1.387 . S
C1772 C1775 1.387 . S
H1773 C1769 0.950 . S
H1774 C1771 0.950 . S
C1775 C1766 1.390 . S
C1775 H1768 0.950 . S
C1775 C1772 1.387 . S
C1776 C1777 1.387 . S
C1776 H1780 0.950 . S
C1776 C1785 1.390 . S
C1777 C1776 1.387 . S
C1777 C1779 1.387 . S
H1778 C1785 0.950 . S
C1779 C1777 1.387 . S
C1779 C1781 1.390 . S
C1779 H1783 0.950 . S
H1780 C1776 0.950 . S
C1781 C1779 1.390 . S
C1781 C1782 1.387 . S
C1781 H1784 0.950 . S
C1782 C1781 1.387 . S
C1782 C1785 1.387 . S
H1783 C1779 0.950 . S
H1784 C1781 0.950 . S
C1785 C1776 1.390 . S
C1785 H1778 0.950 . S
C1785 C1782 1.387 . S
C1786 C1787 1.387 . S
C1786 H1790 0.950 . S
C1786 C1795 1.390 . S
C1787 C1786 1.387 . S
C1787 C1789 1.387 . S
H1788 C1795 0.950 . S
C1789 C1787 1.387 . S
C1789 C1791 1.390 . S
C1789 H1793 0.950 . S
H1790 C1786 0.950 . S
C1791 C1789 1.390 . S
C1791 C1792 1.387 . S
C1791 H1794 0.950 . S
C1792 C1791 1.387 . S
C1792 C1795 1.387 . S
H1793 C1789 0.950 . S
H1794 C1791 0.950 . S
C1795 C1786 1.390 . S
C1795 H1788 0.950 . S
C1795 C1792 1.387 . S
C1796 C1797 1.387 . S
C1796 H1800 0.950 . S
C1796 C1805 1.390 1_655 S
C1797 C1796 1.387 . S
C1797 C1799 1.387 1_655 S
H1798 C1805 0.950 . S
C1799 C1797 1.387 1_455 S
C1799 C1801 1.390 . S
C1799 H1803 0.950 . S
H1800 C1796 0.950 . S
C1801 C1799 1.390 . S
C1801 C1802 1.387 . S
C1801 H1804 0.950 . S
C1802 C1801 1.387 . S
C1802 C1805 1.387 . S
H1803 C1799 0.950 . S
H1804 C1801 0.950 . S
C1805 C1796 1.390 1_455 S
C1805 H1798 0.950 . S
C1805 C1802 1.387 . S
C1806 C1807 1.387 . S
C1806 H1810 0.950 . S
C1806 C1815 1.390 . S
C1807 C1806 1.387 . S
C1807 C1809 1.387 . S
H1808 C1815 0.950 . S
C1809 C1807 1.387 . S
C1809 C1811 1.390 . S
C1809 H1813 0.950 . S
H1810 C1806 0.950 . S
C1811 C1809 1.390 . S
C1811 C1812 1.387 . S
C1811 H1814 0.950 . S
C1812 C1811 1.387 . S
C1812 C1815 1.387 . S
H1813 C1809 0.950 . S
H1814 C1811 0.950 . S
C1815 C1806 1.390 . S
C1815 H1808 0.950 . S
C1815 C1812 1.387 . S
C1816 C1817 1.387 . S
C1816 H1820 0.950 . S
C1816 C1825 1.390 . S
C1817 C1816 1.387 . S
C1817 C1819 1.387 . S
H1818 C1825 0.950 . S
C1819 C1817 1.387 . S
C1819 C1821 1.390 . S
C1819 H1823 0.950 . S
H1820 C1816 0.950 . S
C1821 C1819 1.390 . S
C1821 C1822 1.387 . S
C1821 H1824 0.950 . S
C1822 C1821 1.387 . S
C1822 C1825 1.387 . S
H1823 C1819 0.950 . S
H1824 C1821 0.950 . S
C1825 C1816 1.390 . S
C1825 H1818 0.950 . S
C1825 C1822 1.387 . S
C1826 C1827 1.387 . S
C1826 H1830 0.950 . S
C1826 C1835 1.390 . S
C1827 C1826 1.387 . S
C1827 C1829 1.387 . S
H1828 C1835 0.950 . S
C1829 C1827 1.387 . S
C1829 C1831 1.390 . S
C1829 H1833 0.950 . S
H1830 C1826 0.950 . S
C1831 C1829 1.390 . S
C1831 C1832 1.387 . S
C1831 H1834 0.950 . S
C1832 C1831 1.387 . S
C1832 C1835 1.387 . S
H1833 C1829 0.950 . S
H1834 C1831 0.950 . S
C1835 C1826 1.390 . S
C1835 H1828 0.950 . S
C1835 C1832 1.387 . S
C1836 C1837 1.387 . S
C1836 H1840 0.950 1_655 S
C1836 C1845 1.390 . S
C1837 C1836 1.387 . S
C1837 C1839 1.387 . S
H1838 C1845 0.950 . S
C1839 C1837 1.387 . S
C1839 C1841 1.390 . S
C1839 H1843 0.950 . S
H1840 C1836 0.950 1_455 S
C1841 C1839 1.390 . S
C1841 C1842 1.387 . S
C1841 H1844 0.950 . S
C1842 C1841 1.387 . S
C1842 C1845 1.387 . S
H1843 C1839 0.950 . S
H1844 C1841 0.950 . S
C1845 C1836 1.390 . S
C1845 H1838 0.950 . S
C1845 C1842 1.387 . S
C1846 C1847 1.387 . S
C1846 H1850 0.950 . S
C1846 C1855 1.390 . S
C1847 C1846 1.387 . S
C1847 C1849 1.387 . S
H1848 C1855 0.950 . S
C1849 C1847 1.387 . S
C1849 C1851 1.390 . S
C1849 H1853 0.950 . S
H1850 C1846 0.950 . S
C1851 C1849 1.390 . S
C1851 C1852 1.387 . S
C1851 H1854 0.950 . S
C1852 C1851 1.387 . S
C1852 C1855 1.387 . S
H1853 C1849 0.950 . S
H1854 C1851 0.950 . S
C1855 C1846 1.390 . S
C1855 H1848 0.950 . S
C1855 C1852 1.387 . S
C1856 C1857 1.387 . S
C1856 H1860 0.950 . S
C1856 C1865 1.390 . S
C1857 C1856 1.387 . S
C1857 C1859 1.387 . S
H1858 C1865 0.950 . S
C1859 C1857 1.387 . S
C1859 C1861 1.390 . S
C1859 H1863 0.950 . S
H1860 C1856 0.950 . S
C1861 C1859 1.390 . S
C1861 C1862 1.387 . S
C1861 H1864 0.950 . S
C1862 C1861 1.387 . S
C1862 C1865 1.387 . S
H1863 C1859 0.950 . S
H1864 C1861 0.950 . S
C1865 C1856 1.390 . S
C1865 H1858 0.950 . S
C1865 C1862 1.387 . S
C1866 C1867 1.387 . S
C1866 H1870 0.950 . S
C1866 C1875 1.390 . S
C1867 C1866 1.387 . S
C1867 C1869 1.387 . S
H1868 C1875 0.950 . S
C1869 C1867 1.387 . S
C1869 C1871 1.390 . S
C1869 H1873 0.950 . S
H1870 C1866 0.950 . S
C1871 C1869 1.390 . S
C1871 C1872 1.387 . S
C1871 H1874 0.950 . S
C1872 C1871 1.387 . S
C1872 C1875 1.387 . S
H1873 C1869 0.950 . S
H1874 C1871 0.950 . S
C1875 C1866 1.390 . S
C1875 H1868 0.950 . S
C1875 C1872 1.387 . S
C1876 C1877 1.387 . S
C1876 H1880 0.950 . S
C1876 C1885 1.390 . S
C1877 C1876 1.387 . S
C1877 C1879 1.387 . S
H1878 C1885 0.950 . S
C1879 C1877 1.387 . S
C1879 C1881 1.390 . S
C1879 H1883 0.950 . S
H1880 C1876 0.950 . S
C1881 C1879 1.390 . S
C1881 C1882 1.387 . S
C1881 H1884 0.950 . S
C1882 C1881 1.387 . S
C1882 C1885 1.387 . S
H1883 C1879 0.950 . S
H1884 C1881 0.950 . S
C1885 C1876 1.390 . S
C1885 H1878 0.950 . S
C1885 C1882 1.387 . S
C1886 C1887 1.387 1_556 S
C1886 H1890 0.950 . S
C1886 C1895 1.390 . S
C1887 C1886 1.387 1_554 S
C1887 C1889 1.387 . S
H1888 C1895 0.950 . S
C1889 C1887 1.387 . S
C1889 C1891 1.390 . S
C1889 H1893 0.950 . S
H1890 C1886 0.950 . S
C1891 C1889 1.390 . S
C1891 C1892 1.387 . S
C1891 H1894 0.950 . S
C1892 C1891 1.387 . S
C1892 C1895 1.387 1_554 S
H1893 C1889 0.950 . S
H1894 C1891 0.950 . S
C1895 C1886 1.390 . S
C1895 H1888 0.950 . S
C1895 C1892 1.387 1_556 S
C1896 C1897 1.387 . S
C1896 H1900 0.950 . S
C1896 C1905 1.390 . S
C1897 C1896 1.387 . S
C1897 C1899 1.387 . S
H1898 C1905 0.950 . S
C1899 C1897 1.387 . S
C1899 C1901 1.390 . S
C1899 H1903 0.950 . S
H1900 C1896 0.950 . S
C1901 C1899 1.390 . S
C1901 C1902 1.387 . S
C1901 H1904 0.950 . S
C1902 C1901 1.387 . S
C1902 C1905 1.387 . S
H1903 C1899 0.950 . S
H1904 C1901 0.950 . S
C1905 C1896 1.390 . S
C1905 H1898 0.950 . S
C1905 C1902 1.387 . S
C1906 C1907 1.387 1_556 S
C1906 H1910 0.950 . S
C1906 C1915 1.390 . S
C1907 C1906 1.387 1_554 S
C1907 C1909 1.387 . S
H1908 C1915 0.950 . S
C1909 C1907 1.387 . S
C1909 C1911 1.390 . S
C1909 H1913 0.950 . S
H1910 C1906 0.950 . S
C1911 C1909 1.390 . S
C1911 C1912 1.387 1_554 S
C1911 H1914 0.950 . S
C1912 C1911 1.387 1_556 S
C1912 C1915 1.387 . S
H1913 C1909 0.950 . S
H1914 C1911 0.950 . S
C1915 C1906 1.390 . S
C1915 H1908 0.950 . S
C1915 C1912 1.387 . S
C1916 C1917 1.387 . S
C1916 H1920 0.950 . S
C1916 C1925 1.390 . S
C1917 C1916 1.387 . S
C1917 C1919 1.387 . S
H1918 C1925 0.950 . S
C1919 C1917 1.387 . S
C1919 C1921 1.390 . S
C1919 H1923 0.950 . S
H1920 C1916 0.950 . S
C1921 C1919 1.390 . S
C1921 C1922 1.387 . S
C1921 H1924 0.950 . S
C1922 C1921 1.387 . S
C1922 C1925 1.387 . S
H1923 C1919 0.950 . S
H1924 C1921 0.950 . S
C1925 C1916 1.390 . S
C1925 H1918 0.950 . S
C1925 C1922 1.387 . S
C1926 C1927 1.387 . S
C1926 H1930 0.950 . S
C1926 C1935 1.390 . S
C1927 C1926 1.387 . S
C1927 C1929 1.387 . S
H1928 C1935 0.950 . S
C1929 C1927 1.387 . S
C1929 C1931 1.390 . S
C1929 H1933 0.950 . S
H1930 C1926 0.950 . S
C1931 C1929 1.390 . S
C1931 C1932 1.387 . S
C1931 H1934 0.950 . S
C1932 C1931 1.387 . S
C1932 C1935 1.387 . S
H1933 C1929 0.950 . S
H1934 C1931 0.950 . S
C1935 C1926 1.390 . S
C1935 H1928 0.950 . S
C1935 C1932 1.387 . S
C977 C109 1.086 . S
C982 C344 1.086 . S
C987 C61 1.116 . S
C992 C378 1.407 . S
C997 C74 0.699 . S
C1002 C447 0.699 . S
C1012 C485 1.035 . S
C1007 C96 1.043 . S
C1017 C25 1.731 1_455 S
C1022 C525 1.599 . S
C1032 C544 0.485 . S
C1027 C40 0.490 . S
C1042 C578 1.584 . S
C1037 C46 1.633 . S
C1047 C5 1.261 . S
C1052 C647 1.774 . S
C1062 C353 2.381 . S
C1057 C229 2.072 1_455 S
C1067 C249 1.388 . S
C1072 C405 1.296 . S
C1082 C418 1.278 . S
C1077 C271 1.028 . S
C1092 C487 1.774 . S
C1087 C172 1.728 . S
C1097 C236 2.032 1_455 S
C1102 C527 2.065 . S
C1112 C553 1.986 . S
C1107 C242 2.023 . S
C1122 C605 0.557 . S
C1117 C278 0.549 . S
C1132 C618 2.383 . S
C1127 C179 2.416 . S
C1142 C348 2.503 . S
C1137 C159 2.180 . S
C1147 C285 1.616 1_554 S
C1152 C658 1.884 . S
C1162 C708 2.645 . S
C1157 C333 2.643 . S
C1172 C767 1.848 1_655 S
C1167 C320 1.801 . S
C1177 C123 1.848 . S
C1182 C645 1.724 . S
C1187 C138 1.572 . S
C1192 C445 1.524 . S
C1197 C326 2.599 . S
C1202 C778 2.555 . S
C1212 C847 0.904 . S
C1207 C298 0.900 . S
C1222 C365 1.111 . S
C1217 C67 1.055 . S
C1232 C833 1.395 . S
C1227 C110 1.400 . S
C1237 C88 0.739 . S
C1242 C428 0.735 . S
C1247 C75 0.900 . S
C1252 C784 1.008 . S
C1262 C504 1.632 . S
C1257 C11 1.584 . S
C1267 C47 0.679 . S
C1272 C725 0.449 . S
C1282 C593 1.421 . S
C1277 C32 1.211 . S
C1292 C868 1.894 . S
C1287 C26 1.910 . S
C1302 C338 2.503 . S
C1297 C152 2.538 . S
C1312 C824 1.348 . S
C1307 C319 1.295 . S
C1317 C124 1.266 . S
C1322 C433 1.264 . S
C1327 C284 1.719 . S
C1332 C788 1.778 . S
C1337 C145 1.935 1_545 S
C1342 C508 2.062 . S
C1352 C698 1.899 . S
C1347 C312 1.838 . S
C1357 C117 0.662 1_565 S
C1362 C584 0.585 . S
C1367 C291 2.296 . S
C1372 C873 2.331 . S
C1377 C194 2.524 . S
C1382 C367 2.496 1_655 S
C1387 C180 1.856 . S
C1392 C673 1.876 . S
C1397 C263 2.558 . S
C1402 C567 2.547 . S
C1407 C243 1.667 . S
C1412 C748 1.800 . S
C1422 C864 1.788 1_545 S
C1417 C277 1.688 . S
C1427 C215 1.544 . S
C1432 C424 1.519 . S
C1442 C473 2.429 . S
C1437 C256 2.394 . S
C1452 C388 1.005 . S
C1447 C200 1.010 . S
C1457 C81 1.086 . S
C1462 C904 1.085 . S
C1472 C818 1.407 . S
C1467 C89 1.111 . S
C1477 C102 0.696 . S
C1482 C967 0.697 . S
C1487 C68 1.043 . S
C1492 C805 1.033 . S
C1497 C53 1.731 . S
C1502 C685 1.600 . S
C1512 C704 0.485 . S
C1507 C12 0.486 . S
C1522 C738 1.587 . S
C1517 C18 1.632 1_455 S
C1532 C887 1.772 . S
C1527 C33 1.255 . S
C1542 C913 2.381 . S
C1537 C257 2.073 . S
C1547 C193 1.390 . S
C1552 C845 1.300 . S
C1562 C938 1.279 . S
C1557 C201 1.024 . S
C1572 C807 1.773 . S
C1567 C214 1.728 . S
C1582 C687 2.065 . S
C1577 C264 2.032 . S
C1587 C186 2.023 . S
C1592 C713 1.985 . S
C1602 C765 0.557 . S
C1597 C208 0.552 . S
C1607 C221 2.416 . S
C1612 C858 2.383 . S
C1622 C908 2.503 . S
C1617 C313 2.179 . S
C1627 C131 1.616 . S
C1632 C498 1.885 . S
C1642 C548 2.645 . S
C1637 C151 2.643 . S
C1652 C607 1.846 . S
C1647 C166 1.798 1_545 S
C1662 C885 1.727 . S
C1657 C305 1.848 . S
C1667 C292 1.572 . S
C1672 C965 1.524 . S
C1682 C458 2.554 . S
C1677 C144 2.599 . S
C1692 C407 0.901 . S
C1687 C116 0.902 . S
C1697 C95 1.057 . S
C1702 C925 1.110 . S
C1712 C393 1.396 . S
C1707 C82 1.400 . S
C1717 C60 0.736 . S
C1722 C948 0.732 . S
C1727 C103 0.900 . S
C1732 C464 1.008 . S
C1737 C39 1.584 . S
C1742 C664 1.632 . S
C1752 C565 0.450 . S
C1747 C19 0.680 . S
C1757 C4 1.208 . S
C1762 C753 1.421 . S
C1767 C54 1.909 . S
C1772 C628 1.896 . S
C1782 C898 2.504 . S
C1777 C334 2.538 . S
C1787 C165 1.297 . S
C1792 C384 1.350 . S
C1802 C953 1.262 . S
C1797 C306 1.268 . S
C1807 C130 1.719 . S
C1812 C468 1.777 . S
C1817 C327 1.938 . S
C1822 C668 2.061 . S
C1832 C538 1.900 . S
C1827 C158 1.839 . S
C1837 C299 0.654 . S
C1842 C744 0.596 . S
C1852 C633 2.333 . S
C1847 C137 2.298 . S
C1862 C927 2.495 . S
C1857 C250 2.524 . S
C1872 C513 1.876 1_665 S
C1867 C222 1.855 . S
C1877 C235 2.558 . S
C1882 C727 2.547 . S
C1892 C588 1.800 . S
C1887 C187 1.667 . S
C1897 C207 1.690 . S
C1902 C624 1.789 . S
C1907 C173 1.544 . S
C1912 C944 1.519 . S
C1922 C793 2.430 . S
C1917 C228 2.394 1_565 S
C1932 C828 1.010 . S
C1927 C270 1.014 . S
