# Generated by pormake.
# Topology ocu, (6,8)-cn, num edge types: 1
# Building blocks:
#     Node 0, Type 0, BuildingBlock: VOLQOD_clean_sbu_1, # of connection points: 6
#     Node 1, Type 0, BuildingBlock: VOLQOD_clean_sbu_1, # of connection points: 6
#     Node 2, Type 0, BuildingBlock: VOLQOD_clean_sbu_1, # of connection points: 6
#     Node 3, Type 0, BuildingBlock: VOLQOD_clean_sbu_1, # of connection points: 6
#     Node 4, Type 0, BuildingBlock: VOLQOD_clean_sbu_1, # of connection points: 6
#     Node 5, Type 0, BuildingBlock: VOLQOD_clean_sbu_1, # of connection points: 6
#     Node 6, Type 0, BuildingBlock: VOLQOD_clean_sbu_1, # of connection points: 6
#     Node 7, Type 0, BuildingBlock: VOLQOD_clean_sbu_1, # of connection points: 6
#     Node 8, Type 1, BuildingBlock: VETTIZ_charged_sbu_0, # of connection points: 8
#     Node 9, Type 1, BuildingBlock: VETTIZ_charged_sbu_0, # of connection points: 8
#     Node 10, Type 1, BuildingBlock: VETTIZ_charged_sbu_0, # of connection points: 8
#     Node 11, Type 1, BuildingBlock: VETTIZ_charged_sbu_0, # of connection points: 8
#     Node 12, Type 1, BuildingBlock: VETTIZ_charged_sbu_0, # of connection points: 8
#     Node 13, Type 1, BuildingBlock: VETTIZ_charged_sbu_0, # of connection points: 8
#     Edge 14, Type (0, 1), BuildingBlock: EZIPEK_clean_linker_0, # of connection points: 2
#     Edge 15, Type (0, 1), BuildingBlock: EZIPEK_clean_linker_0, # of connection points: 2
#     Edge 16, Type (0, 1), BuildingBlock: EZIPEK_clean_linker_0, # of connection points: 2
#     Edge 17, Type (0, 1), BuildingBlock: EZIPEK_clean_linker_0, # of connection points: 2
#     Edge 18, Type (0, 1), BuildingBlock: EZIPEK_clean_linker_0, # of connection points: 2
#     Edge 19, Type (0, 1), BuildingBlock: EZIPEK_clean_linker_0, # of connection points: 2
#     Edge 20, Type (0, 1), BuildingBlock: EZIPEK_clean_linker_0, # of connection points: 2
#     Edge 21, Type (0, 1), BuildingBlock: EZIPEK_clean_linker_0, # of connection points: 2
#     Edge 22, Type (0, 1), BuildingBlock: EZIPEK_clean_linker_0, # of connection points: 2
#     Edge 23, Type (0, 1), BuildingBlock: EZIPEK_clean_linker_0, # of connection points: 2
#     Edge 24, Type (0, 1), BuildingBlock: EZIPEK_clean_linker_0, # of connection points: 2
#     Edge 25, Type (0, 1), BuildingBlock: EZIPEK_clean_linker_0, # of connection points: 2
#     Edge 26, Type (0, 1), BuildingBlock: EZIPEK_clean_linker_0, # of connection points: 2
#     Edge 27, Type (0, 1), BuildingBlock: EZIPEK_clean_linker_0, # of connection points: 2
#     Edge 28, Type (0, 1), BuildingBlock: EZIPEK_clean_linker_0, # of connection points: 2
#     Edge 29, Type (0, 1), BuildingBlock: EZIPEK_clean_linker_0, # of connection points: 2
#     Edge 30, Type (0, 1), BuildingBlock: EZIPEK_clean_linker_0, # of connection points: 2
#     Edge 31, Type (0, 1), BuildingBlock: EZIPEK_clean_linker_0, # of connection points: 2
#     Edge 32, Type (0, 1), BuildingBlock: EZIPEK_clean_linker_0, # of connection points: 2
#     Edge 33, Type (0, 1), BuildingBlock: EZIPEK_clean_linker_0, # of connection points: 2
#     Edge 34, Type (0, 1), BuildingBlock: EZIPEK_clean_linker_0, # of connection points: 2
#     Edge 35, Type (0, 1), BuildingBlock: EZIPEK_clean_linker_0, # of connection points: 2
#     Edge 36, Type (0, 1), BuildingBlock: EZIPEK_clean_linker_0, # of connection points: 2
#     Edge 37, Type (0, 1), BuildingBlock: EZIPEK_clean_linker_0, # of connection points: 2
#     Edge 38, Type (0, 1), BuildingBlock: EZIPEK_clean_linker_0, # of connection points: 2
#     Edge 39, Type (0, 1), BuildingBlock: EZIPEK_clean_linker_0, # of connection points: 2
#     Edge 40, Type (0, 1), BuildingBlock: EZIPEK_clean_linker_0, # of connection points: 2
#     Edge 41, Type (0, 1), BuildingBlock: EZIPEK_clean_linker_0, # of connection points: 2
#     Edge 42, Type (0, 1), BuildingBlock: EZIPEK_clean_linker_0, # of connection points: 2
#     Edge 43, Type (0, 1), BuildingBlock: EZIPEK_clean_linker_0, # of connection points: 2
#     Edge 44, Type (0, 1), BuildingBlock: EZIPEK_clean_linker_0, # of connection points: 2
#     Edge 45, Type (0, 1), BuildingBlock: EZIPEK_clean_linker_0, # of connection points: 2
#     Edge 46, Type (0, 1), BuildingBlock: EZIPEK_clean_linker_0, # of connection points: 2
#     Edge 47, Type (0, 1), BuildingBlock: EZIPEK_clean_linker_0, # of connection points: 2
#     Edge 48, Type (0, 1), BuildingBlock: EZIPEK_clean_linker_0, # of connection points: 2
#     Edge 49, Type (0, 1), BuildingBlock: EZIPEK_clean_linker_0, # of connection points: 2
#     Edge 50, Type (0, 1), BuildingBlock: EZIPEK_clean_linker_0, # of connection points: 2
#     Edge 51, Type (0, 1), BuildingBlock: EZIPEK_clean_linker_0, # of connection points: 2
#     Edge 52, Type (0, 1), BuildingBlock: EZIPEK_clean_linker_0, # of connection points: 2
#     Edge 53, Type (0, 1), BuildingBlock: EZIPEK_clean_linker_0, # of connection points: 2
#     Edge 54, Type (0, 1), BuildingBlock: EZIPEK_clean_linker_0, # of connection points: 2
#     Edge 55, Type (0, 1), BuildingBlock: EZIPEK_clean_linker_0, # of connection points: 2
#     Edge 56, Type (0, 1), BuildingBlock: EZIPEK_clean_linker_0, # of connection points: 2
#     Edge 57, Type (0, 1), BuildingBlock: EZIPEK_clean_linker_0, # of connection points: 2
#     Edge 58, Type (0, 1), BuildingBlock: EZIPEK_clean_linker_0, # of connection points: 2
#     Edge 59, Type (0, 1), BuildingBlock: EZIPEK_clean_linker_0, # of connection points: 2
#     Edge 60, Type (0, 1), BuildingBlock: EZIPEK_clean_linker_0, # of connection points: 2
#     Edge 61, Type (0, 1), BuildingBlock: EZIPEK_clean_linker_0, # of connection points: 2
# Relax obj value: 0.154
# Max RMSD: 0.302
# Mean RMSD: 0.175
data_MOF--net-ocu--node1-VOLQOD_clean_sbu_1--node2-VETTIZ_charged_sbu_0--edge1-EZIPEK_clean_linker_0
_symmetry_space_group_name_H-M    P1
_symmetry_Int_Tables_number       1
_symmetry_cell_setting            triclinic
loop_
_symmetry_equiv_pos_as_xyz
'x, y, z'
_cell_length_a     29.261419
_cell_length_b     29.464074
_cell_length_c     29.483115
_cell_angle_alpha  89.999802
_cell_angle_beta   89.631212
_cell_angle_gamma 90.042474
loop_
_atom_site_label
_atom_site_type_symbol
_atom_site_fract_x
_atom_site_fract_y
_atom_site_fract_z
_atom_type_partial_charge
O0 O 0.33105 0.32657 0.25477 0.0
Zn1 Zn 0.2914 0.28281 0.29245 0.0
O2 O 0.25373 0.24622 0.25074 0.0
Zn3 Zn 0.19154 0.26617 0.25131 0.0
Zn4 Zn 0.28024 0.25477 0.19211 0.0
Zn5 Zn 0.2525 0.18241 0.26206 0.0
O6 O 0.14741 0.22146 0.27719 0.0
O7 O 0.19203 0.16143 0.28682 0.0
O8 O 0.25169 0.32662 0.32871 0.0
O9 O 0.18594 0.31751 0.29292 0.0
O10 O 0.17327 0.29155 0.19257 0.0
O11 O 0.23992 0.2972 0.15578 0.0
O12 O 0.29256 0.19735 0.15935 0.0
O13 O 0.32776 0.23785 0.33323 0.0
O14 O 0.28177 0.14428 0.21127 0.0
O15 O 0.29174 0.17432 0.31365 0.0
C16 C 0.35112 0.31775 0.2174 0.0
C17 C 0.15403 0.1817 0.29229 0.0
C18 C 0.19752 0.30656 0.15998 0.0
C19 C 0.21018 0.3378 0.32204 0.0
C20 C 0.29583 0.15626 0.172 0.0
C21 C 0.32057 0.19509 0.33785 0.0
O22 O 0.34319 0.28039 0.19797 0.0
O23 O 0.74053 0.18364 0.19761 0.0
Zn24 Zn 0.7865 0.21594 0.24047 0.0
O25 O 0.75479 0.26353 0.27642 0.0
Zn26 Zn 0.77167 0.32426 0.25691 0.0
Zn27 Zn 0.68963 0.25718 0.26769 0.0
Zn28 Zn 0.76777 0.259 0.34094 0.0
O29 O 0.79635 0.36346 0.30712 0.0
O30 O 0.80005 0.31523 0.3649 0.0
O31 O 0.83557 0.24544 0.20043 0.0
O32 O 0.82309 0.31878 0.21385 0.0
O33 O 0.72164 0.3549 0.2216 0.0
O34 O 0.66264 0.30882 0.23325 0.0
O35 O 0.65645 0.24658 0.32493 0.0
O36 O 0.81866 0.17152 0.28404 0.0
O37 O 0.71054 0.2437 0.37687 0.0
O38 O 0.81011 0.20685 0.35057 0.0
C39 C 0.69684 0.1818 0.19945 0.0
C40 C 0.80797 0.35412 0.34759 0.0
C41 C 0.68002 0.34414 0.21554 0.0
C42 C 0.84533 0.28725 0.19449 0.0
C43 C 0.6687 0.24026 0.36567 0.0
C44 C 0.82623 0.17462 0.32666 0.0
O45 O 0.67468 0.2046 0.22871 0.0
O46 O 0.69891 0.69582 0.25132 0.0
Zn47 Zn 0.7405 0.73804 0.28933 0.0
O48 O 0.77849 0.77293 0.24723 0.0
Zn49 Zn 0.84042 0.75924 0.2577 0.0
Zn50 Zn 0.76704 0.76046 0.18488 0.0
Zn51 Zn 0.77825 0.83684 0.25745 0.0
O52 O 0.86596 0.80038 0.30463 0.0
O53 O 0.83565 0.86394 0.27938 0.0
O54 O 0.78456 0.6989 0.32925 0.0
O55 O 0.84506 0.69879 0.28339 0.0
O56 O 0.87722 0.75797 0.20129 0.0
O57 O 0.82207 0.73129 0.15753 0.0
O58 O 0.75123 0.81717 0.15183 0.0
O59 O 0.70148 0.78448 0.32678 0.0
O60 O 0.75796 0.87066 0.20382 0.0
O61 O 0.73506 0.84898 0.30637 0.0
C62 C 0.6932 0.6921 0.2084 0.0
C63 C 0.86224 0.8432 0.30587 0.0
C64 C 0.86419 0.73536 0.16709 0.0
C65 C 0.82383 0.68327 0.31747 0.0
C66 C 0.74936 0.85876 0.16349 0.0
C67 C 0.70558 0.82778 0.32984 0.0
O68 O 0.71599 0.71572 0.18005 0.0
O69 O 0.34377 0.75605 0.32059 0.0
Zn70 Zn 0.30391 0.71709 0.28014 0.0
O71 O 0.25682 0.75533 0.25053 0.0
Zn72 Zn 0.19609 0.73144 0.26188 0.0
Zn73 Zn 0.26012 0.8177 0.2715 0.0
Zn74 Zn 0.26441 0.75509 0.18555 0.0
O75 O 0.16806 0.69994 0.20861 0.0
O76 O 0.21817 0.71526 0.15395 0.0
O77 O 0.27387 0.66882 0.32119 0.0
O78 O 0.20069 0.6841 0.30812 0.0
O79 O 0.15446 0.77652 0.29108 0.0
O80 O 0.20155 0.83427 0.30509 0.0
O81 O 0.2774 0.86056 0.21991 0.0
O82 O 0.34749 0.69046 0.23244 0.0
O83 O 0.27263 0.8174 0.1589 0.0
O84 O 0.32279 0.72601 0.1716 0.0
C85 C 0.34219 0.798 0.33094 0.0
C86 C 0.18246 0.69486 0.16818 0.0
C87 C 0.16277 0.81476 0.30919 0.0
C88 C 0.23135 0.66186 0.32848 0.0
C89 C 0.28066 0.85586 0.17703 0.0
C90 C 0.35254 0.70165 0.19083 0.0
O91 O 0.31149 0.82422 0.3155 0.0
O92 O 0.26871 0.67996 0.68401 0.0
Zn93 Zn 0.3047 0.72564 0.72623 0.0
O94 O 0.25997 0.76091 0.763 0.0
Zn95 Zn 0.26445 0.82586 0.75515 0.0
Zn96 Zn 0.19846 0.74909 0.74484 0.0
Zn97 Zn 0.26764 0.75011 0.82733 0.0
O98 O 0.29982 0.85584 0.80462 0.0
O99 O 0.29957 0.80265 0.85793 0.0
O100 O 0.34189 0.77252 0.68723 0.0
O101 O 0.30218 0.83529 0.70196 0.0
O102 O 0.20728 0.86004 0.7395 0.0
O103 O 0.17005 0.80091 0.71224 0.0
O104 O 0.16112 0.73058 0.79752 0.0
O105 O 0.34767 0.68995 0.77114 0.0
O106 O 0.20847 0.73027 0.85639 0.0
O107 O 0.31175 0.69996 0.83716 0.0
C108 C 0.22544 0.67424 0.67933 0.0
C109 C 0.31153 0.84162 0.84347 0.0
C110 C 0.17551 0.84351 0.71547 0.0
C111 C 0.33341 0.81472 0.68034 0.0
C112 C 0.16925 0.72338 0.83917 0.0
C113 C 0.34347 0.68179 0.81383 0.0
O114 O 0.19693 0.698 0.7016 0.0
O115 O 0.19146 0.16664 0.7376 0.0
Zn116 Zn 0.22073 0.21061 0.78096 0.0
O117 O 0.25558 0.2547 0.74575 0.0
Zn118 Zn 0.3175 0.23579 0.75121 0.0
Zn119 Zn 0.24032 0.25612 0.68296 0.0
Zn120 Zn 0.24686 0.31279 0.77253 0.0
O121 O 0.35337 0.27814 0.79196 0.0
O122 O 0.30183 0.33218 0.80499 0.0
O123 O 0.26412 0.18 0.82521 0.0
O124 O 0.31798 0.17232 0.77379 0.0
O125 O 0.34903 0.2306 0.6928 0.0
O126 O 0.29532 0.24214 0.64168 0.0
O127 O 0.20881 0.31553 0.66994 0.0
O128 O 0.16977 0.2401 0.81649 0.0
O129 O 0.22906 0.35949 0.72787 0.0
O130 O 0.19438 0.31143 0.81527 0.0
C131 C 0.18217 0.17219 0.69575 0.0
C132 C 0.34138 0.31542 0.81035 0.0
C133 C 0.33635 0.23179 0.65183 0.0
C134 C 0.30225 0.1632 0.8127 0.0
C135 C 0.20852 0.35358 0.6906 0.0
C136 C 0.16577 0.28153 0.82782 0.0
O137 O 0.19649 0.20594 0.67279 0.0
O138 O 0.82974 0.29535 0.82217 0.0
Zn139 Zn 0.79885 0.2487 0.78254 0.0
O140 O 0.75482 0.28011 0.7423 0.0
Zn141 Zn 0.69361 0.2561 0.75262 0.0
Zn142 Zn 0.75387 0.34568 0.75211 0.0
Zn143 Zn 0.77153 0.27158 0.67932 0.0
O144 O 0.66815 0.22718 0.69573 0.0
O145 O 0.72445 0.23665 0.64536 0.0
O146 O 0.76596 0.2021 0.82411 0.0
O147 O 0.69485 0.2062 0.79844 0.0
O148 O 0.65408 0.30238 0.78504 0.0
O149 O 0.69471 0.36609 0.78103 0.0
O150 O 0.77761 0.38286 0.69808 0.0
O151 O 0.84928 0.21767 0.74548 0.0
O152 O 0.79065 0.32909 0.64771 0.0
O153 O 0.82613 0.2332 0.67584 0.0
C154 C 0.8246 0.33816 0.82586 0.0
C155 C 0.68556 0.2208 0.65644 0.0
C156 C 0.66005 0.34396 0.79534 0.0
C157 C 0.72417 0.18934 0.82515 0.0
C158 C 0.79213 0.37076 0.65903 0.0
C159 C 0.85422 0.2146 0.70259 0.0
O160 O 0.79684 0.3599 0.8012 0.0
O161 O 0.83444 0.81251 0.76274 0.0
Zn162 Zn 0.78605 0.77935 0.8028 0.0
O163 O 0.75206 0.73753 0.76421 0.0
Zn164 Zn 0.68791 0.74441 0.77452 0.0
Zn165 Zn 0.7633 0.74627 0.70039 0.0
Zn166 Zn 0.7669 0.67595 0.77667 0.0
O167 O 0.65558 0.68548 0.77775 0.0
O168 O 0.71242 0.6365 0.78047 0.0
O169 O 0.73745 0.82382 0.83091 0.0
O170 O 0.6763 0.7791 0.83168 0.0
O171 O 0.66007 0.77994 0.72425 0.0
O172 O 0.7121 0.77934 0.66932 0.0
O173 O 0.78447 0.68875 0.66929 0.0
O174 O 0.82158 0.74147 0.8511 0.0
O175 O 0.80671 0.65093 0.72954 0.0
O176 O 0.8026 0.67071 0.83214 0.0
C177 C 0.84101 0.81117 0.71974 0.0
C178 C 0.6699 0.64485 0.77934 0.0
C179 C 0.67326 0.79143 0.68474 0.0
C180 C 0.69568 0.81615 0.84248 0.0
C181 C 0.80663 0.65596 0.68696 0.0
C182 C 0.82373 0.69842 0.85733 0.0
O183 O 0.81572 0.78736 0.69428 0.0
Fe184 Fe 0.00612 0.05449 0.51169 0.0
O185 O 0.96926 0.00658 0.54246 0.0
Fe186 Fe 0.1077 0.00078 0.48355 0.0
Fe187 Fe 0.90222 0.00624 0.54228 0.0
O188 O 0.04034 0.00288 0.48408 0.0
O189 O 0.04082 0.99863 0.48528 0.0
O190 O 0.96979 0.00256 0.54369 0.0
Fe191 Fe 0.00562 0.95061 0.51801 0.0
C192 C 0.93672 0.09627 0.57986 0.0
O193 O 0.96288 0.05621 0.45692 0.0
O194 O 0.8955 0.055 0.49192 0.0
O195 O 0.04605 0.90216 0.48313 0.0
O196 O 0.09785 0.94572 0.4425 0.0
O197 O 0.09783 0.05019 0.43574 0.0
O198 O 0.04817 0.09833 0.47357 0.0
O199 O 0.89454 0.95605 0.49375 0.0
O200 O 0.96406 0.9466 0.46397 0.0
C201 C 0.07591 0.08816 0.44028 0.0
O202 O 0.04874 0.95192 0.57215 0.0
O203 O 0.11561 0.95491 0.53578 0.0
O204 O 0.96688 0.10231 0.54763 0.0
O205 O 0.91222 0.05987 0.5856 0.0
C206 C 0.92039 0.06496 0.4578 0.0
C207 C 0.92125 0.9423 0.46233 0.0
C208 C 0.93275 0.9175 0.5883 0.0
O209 O 0.90924 0.95486 0.58894 0.0
O210 O 0.96417 0.90746 0.55818 0.0
C211 C 0.07482 0.90874 0.44963 0.0
O212 O 0.11598 0.05323 0.52926 0.0
O213 O 0.04951 0.05499 0.56603 0.0
C214 C 0.09142 0.9447 0.57041 0.0
C215 C 0.0921 0.06288 0.56411 0.0
Fe216 Fe 0.51346 0.91001 0.03211 0.0
O217 O 0.51659 0.97683 0.03502 0.0
Fe218 Fe 0.46219 0.01268 0.00702 0.0
Fe219 Fe 0.56752 0.01376 0.00758 0.0
O220 O 0.51213 0.97669 0.03538 0.0
O221 O 0.51306 0.05033 0.98075 0.0
O222 O 0.51736 0.05087 0.98123 0.0
Fe223 Fe 0.51525 0.11733 0.98569 0.0
C224 C 0.60698 0.93707 0.06742 0.0
O225 O 0.56257 0.90531 0.98092 0.0
O226 O 0.57005 0.97415 0.95008 0.0
O227 O 0.46219 0.11067 0.94045 0.0
O228 O 0.41711 0.05458 0.97229 0.0
O229 O 0.46136 0.97166 0.95021 0.0
O230 O 0.46196 0.90488 0.98481 0.0
O231 O 0.61485 0.05723 0.97452 0.0
O232 O 0.57022 0.11246 0.941 0.0
C233 C 0.44925 0.93024 0.95241 0.0
O234 O 0.46341 0.12175 0.03402 0.0
O235 O 0.45795 0.05294 0.06333 0.0
O236 O 0.5689 0.91554 0.0753 0.0
O237 O 0.61284 0.97023 0.03909 0.0
C238 C 0.57818 0.93175 0.95019 0.0
C239 C 0.60854 0.09081 0.94635 0.0
C240 C 0.5792 0.09512 0.06595 0.0
O241 O 0.57007 0.05294 0.06548 0.0
O242 O 0.56494 0.12182 0.03516 0.0
C243 C 0.42482 0.0866 0.94302 0.0
O244 O 0.41517 0.96983 0.04045 0.0
O245 O 0.45912 0.91668 0.07806 0.0
C246 C 0.44538 0.09411 0.06207 0.0
C247 C 0.42082 0.93814 0.07075 0.0
Fe248 Fe 0.01219 0.55053 0.00938 0.0
O249 O 0.97688 0.50202 0.04114 0.0
Fe250 Fe 0.10733 0.4956 0.96654 0.0
Fe251 Fe 0.91022 0.50485 0.04828 0.0
O252 O 0.04067 0.49955 0.97487 0.0
O253 O 0.04096 0.49521 0.9755 0.0
O254 O 0.97674 0.49813 0.04116 0.0
Fe255 Fe 0.00754 0.44676 0.00928 0.0
C256 C 0.95494 0.59019 0.08719 0.0
O257 O 0.96337 0.55871 0.96096 0.0
O258 O 0.90103 0.55852 0.00336 0.0
O259 O 0.04364 0.39866 0.97086 0.0
O260 O 0.09203 0.44078 0.92489 0.0
O261 O 0.09293 0.54871 0.92323 0.0
O262 O 0.05084 0.59488 0.97032 0.0
O263 O 0.89457 0.45895 -0.00286 0.0
O264 O 0.95967 0.44573 0.95923 0.0
C265 C 0.07247 0.58697 0.93261 0.0
O266 O 0.05673 0.44487 0.05892 0.0
O267 O 0.11929 0.44697 0.0152 0.0
O268 O 0.97943 0.59701 0.05096 0.0
O269 O 0.92915 0.5546 0.09388 0.0
C270 C 0.92341 0.57324 0.9692 0.0
C271 C 0.91667 0.44262 0.96347 0.0
C272 C 0.93711 0.40964 0.08058 0.0
O273 O 0.91808 0.44843 0.0897 0.0
O274 O 0.96752 0.40256 0.04895 0.0
C275 C 0.07152 0.40327 0.93661 0.0
O276 O 0.1228 0.54625 0.01307 0.0
O277 O 0.06179 0.54789 0.05781 0.0
C278 C 0.09847 0.4351 0.05138 0.0
C279 C 0.10267 0.55948 0.04912 0.0
Fe280 Fe 0.5099 0.49766 0.95955 0.0
O281 O 0.55063 0.52764 0.00495 0.0
Fe282 Fe 0.40419 0.49633 0.01469 0.0
Fe283 Fe 0.6169 0.51681 0.00607 0.0
O284 O 0.47019 0.4835 0.01285 0.0
O285 O 0.47039 0.48381 0.01674 0.0
O286 O 0.5506 0.52867 0.00953 0.0
Fe287 Fe 0.5125 0.51025 0.06301 0.0
C288 C 0.58519 0.43201 0.95291 0.0
O289 O 0.55533 0.51709 0.90922 0.0
O290 O 0.61361 0.55471 0.94671 0.0
O291 O 0.47953 0.57148 0.0612 0.0
O292 O 0.40677 0.5497 0.05988 0.0
O293 O 0.405 0.54044 0.9585 0.0
O294 O 0.47802 0.55875 0.94827 0.0
O295 O 0.61793 0.56769 0.05505 0.0
O296 O 0.5615 0.54259 0.10436 0.0
C297 C 0.43609 0.5644 0.93939 0.0
O298 O 0.4673 0.48437 0.11284 0.0
O299 O 0.40616 0.45662 0.07179 0.0
O300 O 0.5438 0.4365 0.9657 0.0
O301 O 0.61442 0.46267 0.96183 0.0
C302 C 0.59015 0.54425 0.91068 0.0
C303 C 0.59694 0.56752 0.09417 0.0
C304 C 0.58784 0.44633 0.07825 0.0
O305 O 0.61755 0.47304 0.06117 0.0
O306 O 0.54578 0.44928 0.06864 0.0
C307 C 0.43793 0.57714 0.07199 0.0
O308 O 0.40285 0.44445 0.96805 0.0
O309 O 0.46211 0.46335 0.91939 0.0
C310 C 0.43163 0.4583 0.10775 0.0
C311 C 0.42614 0.43985 0.93086 0.0
Fe312 Fe 0.0257 0.41418 0.50572 0.0
O313 O 0.04017 0.47913 0.50806 0.0
Fe314 Fe 0.02355 0.52015 0.45243 0.0
Fe315 Fe 0.01771 0.51998 0.55729 0.0
O316 O 0.0409 0.47932 0.5036 0.0
O317 O 0.00175 0.56119 0.50158 0.0
O318 O 0.00173 0.56122 0.50603 0.0
Fe319 Fe 0.01998 0.62556 0.50262 0.0
C320 C 0.944 0.44872 0.56222 0.0
O321 O 0.06929 0.41426 0.55958 0.0
O322 O 0.04059 0.47217 0.60425 0.0
O323 O 0.06698 0.62096 0.45043 0.0
O324 O 0.08811 0.54928 0.45368 0.0
O325 O 0.05335 0.47233 0.40858 0.0
O326 O 0.07456 0.41344 0.45552 0.0
O327 O 0.08251 0.54703 0.5632 0.0
O328 O 0.07211 0.62079 0.55052 0.0
C329 C 0.07904 0.43773 0.41896 0.0
O330 O 0.97224 0.62649 0.45267 0.0
O331 O 0.99771 0.56897 0.40573 0.0
O332 O 0.97304 0.41768 0.5533 0.0
O333 O 0.95305 0.49061 0.55538 0.0
C334 C 0.06822 0.43843 0.59631 0.0
C335 C 0.09554 0.58798 0.56641 0.0
C336 C 0.96961 0.6073 0.59261 0.0
O337 O 0.98959 0.56877 0.60174 0.0
O338 O 0.97542 0.6293 0.55531 0.0
C339 C 0.09635 0.59027 0.44306 0.0
O340 O 0.95958 0.49014 0.44791 0.0
O341 O 0.97886 0.41727 0.45398 0.0
C342 C 0.97087 0.6034 0.4152 0.0
C343 C 0.95144 0.44821 0.44133 0.0
Fe344 Fe 0.51241 0.95474 0.50575 0.0
O345 O 0.52252 0.00879 0.54519 0.0
Fe346 Fe 0.50635 0.01004 0.39822 0.0
Fe347 Fe 0.51491 0.01548 0.61044 0.0
O348 O 0.49965 0.00581 0.46354 0.0
O349 O 0.51653 0.01288 0.46249 0.0
O350 O 0.50431 0.01447 0.54638 0.0
Fe351 Fe 0.50682 0.06592 0.50324 0.0
C352 C 0.44133 0.94566 0.58135 0.0
O353 O 0.53655 0.91086 0.55517 0.0
O354 O 0.56076 0.96159 0.60899 0.0
O355 O 0.51851 0.11259 0.45404 0.0
O356 O 0.54804 0.06816 0.39827 0.0
O357 O 0.56119 0.96673 0.39841 0.0
O358 O 0.57668 0.95127 0.47275 0.0
O359 O 0.56584 0.06382 0.60279 0.0
O360 O 0.57397 0.0742 0.5264 0.0
C361 C 0.58495 0.94752 0.42965 0.0
O362 O 0.43933 0.06443 0.47985 0.0
O363 O 0.45125 0.05308 0.40422 0.0
O364 O 0.44818 0.95069 0.53829 0.0
O365 O 0.46441 0.96679 0.61197 0.0
C366 C 0.55985 0.92162 0.5908 0.0
C367 C 0.58556 0.08202 0.56791 0.0
C368 C 0.46596 0.10654 0.5864 0.0
O369 O 0.46755 0.06923 0.60935 0.0
O370 O 0.48863 0.11354 0.54991 0.0
C371 C 0.54431 0.10632 0.41957 0.0
O372 O 0.46575 0.95176 0.40082 0.0
O373 O 0.49008 0.90696 0.45959 0.0
C374 C 0.42828 0.06987 0.43784 0.0
C375 C 0.46717 0.91389 0.42297 0.0
C376 C 0.09198 0.1305 0.32165 0.0
C377 C 0.12405 0.16551 0.32929 0.0
C378 C 0.11389 0.15836 0.41166 0.0
C379 C 0.08393 0.12156 0.40397 0.0
N380 N 0.03423 0.08045 0.35392 0.0
N381 N 0.15735 0.22089 0.38006 0.0
C382 C 0.06943 0.11042 0.35951 0.0
C383 C 0.1319 0.18241 0.37386 0.0
N384 N 0.08453 0.1155 0.27848 0.0
N385 N 0.12769 0.16809 0.45484 0.0
H386 H 0.17334 0.23839 0.35367 0.0
H387 H 0.15999 0.23763 0.41102 0.0
H388 H 0.11399 0.1521 0.48341 0.0
H389 H 0.15422 0.19031 0.46245 0.0
H390 H 0.06534 0.08681 0.27075 0.0
H391 H 0.0994 0.131 0.25016 0.0
H392 H 0.01939 0.07323 0.32277 0.0
H393 H 0.01717 0.06568 0.3814 0.0
C394 C 0.89858 0.15372 0.3654 0.0
C395 C 0.85462 0.14057 0.35056 0.0
C396 C 0.85885 0.07243 0.39818 0.0
C397 C 0.89933 0.08953 0.41872 0.0
N398 N 0.95392 0.15091 0.42582 0.0
N399 N 0.7911 0.08878 0.35398 0.0
C400 C 0.91869 0.13104 0.4029 0.0
C401 C 0.83446 0.09998 0.36686 0.0
N402 N 0.92083 0.1884 0.34379 0.0
N403 N 0.84417 0.02947 0.40778 0.0
H404 H 0.77308 0.10713 0.32968 0.0
H405 H 0.77207 0.06296 0.36915 0.0
H406 H 0.86087 0.00834 0.43048 0.0
H407 H 0.81801 0.01331 0.39025 0.0
H408 H 0.95482 0.19679 0.34995 0.0
H409 H 0.9066 0.20567 0.31637 0.0
H410 H 0.96632 0.18323 0.41842 0.0
H411 H 0.96771 0.13753 0.45539 0.0
C412 C 0.85711 0.85887 0.38851 0.0
C413 C 0.87807 0.86781 0.34588 0.0
C414 C 0.91852 0.93206 0.37828 0.0
C415 C 0.90303 0.9188 0.42223 0.0
N416 N 0.86514 0.86293 0.46966 0.0
N417 N 0.93291 0.90896 0.30068 0.0
C418 C 0.87427 0.88044 0.42762 0.0
C419 C 0.91005 0.90329 0.34086 0.0
N420 N 0.81953 0.83139 0.39155 0.0
N421 N 0.93979 0.97287 0.37196 0.0
H422 H 0.92727 0.88829 0.27251 0.0
H423 H 0.96014 0.93142 0.29657 0.0
H424 H 0.94584 0.99546 0.39831 0.0
H425 H 0.94749 0.9862 0.34009 0.0
H426 H 0.80032 0.8279 0.42125 0.0
H427 H 0.80489 0.81551 0.36358 0.0
H428 H 0.84834 0.83206 0.47443 0.0
H429 H 0.87815 0.87648 0.49954 0.0
C430 C 0.09791 0.86541 0.33238 0.0
C431 C 0.13029 0.83175 0.34373 0.0
C432 C 0.10446 0.83366 0.42306 0.0
C433 C 0.08055 0.87406 0.41359 0.0
N434 N 0.04684 0.92474 0.35936 0.0
N435 N 0.16382 0.78149 0.39914 0.0
C436 C 0.07416 0.88817 0.36794 0.0
C437 C 0.13281 0.81455 0.38876 0.0
N438 N 0.0903 0.87552 0.28782 0.0
N439 N 0.09962 0.81353 0.46448 0.0
H440 H 0.18434 0.76558 0.37484 0.0
H441 H 0.17128 0.77177 0.43222 0.0
H442 H 0.077 0.82593 0.48894 0.0
H443 H 0.1136 0.78209 0.47259 0.0
H444 H 0.06474 0.89731 0.27673 0.0
H445 H 0.1078 0.85941 0.2614 0.0
H446 H 0.04431 0.94056 0.32795 0.0
H447 H 0.02714 0.93996 0.38477 0.0
C448 C 0.16782 0.863 0.63419 0.0
C449 C 0.15526 0.87207 0.67979 0.0
C450 C 0.10596 0.93399 0.65429 0.0
C451 C 0.11342 0.92022 0.60849 0.0
N452 N 0.14403 0.86409 0.5564 0.0
N453 N 0.10958 0.91325 0.73398 0.0
C454 C 0.14242 0.88275 0.59882 0.0
C455 C 0.12357 0.90685 0.69016 0.0
N456 N 0.20491 0.83636 0.62445 0.0
N457 N 0.08396 0.97387 0.66354 0.0
H458 H 0.12264 0.89442 0.76092 0.0
H459 H 0.08281 0.93475 0.74309 0.0
H460 H 0.07191 0.99549 0.63836 0.0
H461 H 0.08161 0.98773 0.69596 0.0
H462 H 0.21829 0.83287 0.59179 0.0
H463 H 0.22534 0.82166 0.64929 0.0
H464 H 0.16084 0.83373 0.5492 0.0
H465 H 0.12457 0.87578 0.52948 0.0
C466 C 0.11154 0.15095 0.65596 0.0
C467 C 0.15528 0.13823 0.67133 0.0
C468 C 0.1542 0.07149 0.62234 0.0
C469 C 0.11356 0.08809 0.60182 0.0
N470 N 0.05908 0.14931 0.5933 0.0
N471 N 0.22075 0.08883 0.66761 0.0
C472 C 0.09323 0.12908 0.61743 0.0
C473 C 0.17712 0.09881 0.65458 0.0
N474 N 0.088 0.18458 0.67784 0.0
N475 N 0.17063 0.02946 0.61169 0.0
H476 H 0.23802 0.10712 0.69249 0.0
H477 H 0.24083 0.06416 0.65189 0.0
H478 H 0.1561 0.00897 0.5871 0.0
H479 H 0.19653 0.01345 0.62971 0.0
H480 H 0.05409 0.19252 0.67076 0.0
H481 H 0.10104 0.20125 0.70621 0.0
H482 H 0.04579 0.18116 0.60118 0.0
H483 H 0.04775 0.13707 0.5622 0.0
C484 C 0.90411 0.14446 0.69301 0.0
C485 C 0.89277 0.18967 0.68088 0.0
C486 C 0.92291 0.17781 0.60421 0.0
C487 C 0.93102 0.13168 0.61518 0.0
N488 N 0.94942 0.07817 0.67421 0.0
N489 N 0.91192 0.25376 0.63378 0.0
C490 C 0.92848 0.11745 0.66118 0.0
C491 C 0.90987 0.20783 0.63952 0.0
N492 N 0.8895 0.12608 0.73305 0.0
N493 N 0.92371 0.19247 0.56026 0.0
H494 H 0.90295 0.27618 0.65981 0.0
H495 H 0.927 0.26904 0.60552 0.0
H496 H 0.93118 0.17157 0.53276 0.0
H497 H 0.9131 0.22484 0.55075 0.0
H498 H 0.89165 0.09148 0.74009 0.0
H499 H 0.87372 0.14466 0.75868 0.0
H500 H 0.95172 0.06791 0.70794 0.0
H501 H 0.96894 0.05868 0.65172 0.0
C502 C 0.8873 0.88282 0.70278 0.0
C503 C 0.87909 0.83582 0.69641 0.0
C504 C 0.91712 0.83887 0.62198 0.0
C505 C 0.92349 0.8863 0.62733 0.0
N506 N 0.93425 0.94712 0.68119 0.0
N507 N 0.90554 0.76716 0.66055 0.0
C508 C 0.91519 0.90613 0.6707 0.0
C509 C 0.90094 0.81324 0.65961 0.0
N510 N 0.86663 0.90611 0.73726 0.0
N511 N 0.92292 0.81841 0.5808 0.0
H512 H 0.89458 0.74774 0.6882 0.0
H513 H 0.92502 0.74947 0.63672 0.0
H514 H 0.9334 0.83538 0.55163 0.0
H515 H 0.91359 0.78482 0.57487 0.0
H516 H 0.86749 0.94141 0.73955 0.0
H517 H 0.84639 0.8908 0.76202 0.0
H518 H 0.93207 0.96152 0.71342 0.0
H519 H 0.95671 0.96385 0.65916 0.0
C520 C 0.35965 0.09885 0.16088 0.0
C521 C 0.32445 0.12598 0.14238 0.0
C522 C 0.36654 0.13083 0.07029 0.0
C523 C 0.40472 0.10802 0.0903 0.0
N524 N 0.4395 0.07729 0.15775 0.0
N525 N 0.28566 0.14896 0.07524 0.0
C526 C 0.40148 0.09332 0.1363 0.0
C527 C 0.32538 0.13597 0.09563 0.0
N528 N 0.35218 0.07608 0.20052 0.0
N529 N 0.36952 0.1499 0.02811 0.0
H530 H 0.25497 0.15135 0.09339 0.0
H531 H 0.28188 0.15201 0.04027 0.0
H532 H 0.39695 0.1465 0.00609 0.0
H533 H 0.34524 0.17237 0.01553 0.0
H534 H 0.37504 0.05255 0.21374 0.0
H535 H 0.32039 0.07553 0.21659 0.0
H536 H 0.44057 0.0705 0.19239 0.0
H537 H 0.47153 0.07558 0.14214 0.0
C538 C 0.85839 0.31341 0.11699 0.0
C539 C 0.87776 0.3018 0.15899 0.0
C540 C 0.94335 0.3512 0.1426 0.0
C541 C 0.919 0.36965 0.10539 0.0
N542 N 0.84969 0.37194 0.06092 0.0
N543 N 0.93901 0.30716 0.21239 0.0
C544 C 0.8758 0.35132 0.09311 0.0
C545 C 0.92094 0.3193 0.17158 0.0
N546 N 0.82197 0.28928 0.1011 0.0
N547 N 0.98703 0.36515 0.1509 0.0
H548 H 0.9238 0.28241 0.2329 0.0
H549 H 0.96772 0.32241 0.22646 0.0
H550 H 0.00339 0.38999 0.13148 0.0
H551 H 0.00802 0.35014 0.17501 0.0
H552 H 0.80856 0.29372 0.06874 0.0
H553 H 0.80843 0.26155 0.11868 0.0
H554 H 0.81592 0.36297 0.0544 0.0
H555 H 0.8603 0.40057 0.0433 0.0
C556 C 0.70525 0.93044 0.14965 0.0
C557 C 0.7278 0.89161 0.13211 0.0
C558 C 0.67562 0.88777 0.0688 0.0
C559 C 0.64828 0.92142 0.09018 0.0
N560 N 0.63688 0.97723 0.14905 0.0
N561 N 0.75004 0.85193 0.06466 0.0
C562 C 0.66336 0.94407 0.12983 0.0
C563 C 0.71811 0.87655 0.08795 0.0
N564 N 0.72519 0.95502 0.18344 0.0
N565 N 0.65984 0.86458 0.03199 0.0
H566 H 0.78237 0.84574 0.07816 0.0
H567 H 0.74652 0.84236 0.03086 0.0
H568 H 0.62788 0.87049 0.01807 0.0
H569 H 0.67661 0.83677 0.01781 0.0
H570 H 0.71099 0.98386 0.19811 0.0
H571 H 0.7589 0.94928 0.19323 0.0
H572 H 0.64384 0.99256 0.18002 0.0
H573 H 0.60615 0.98807 0.13493 0.0
C574 C 0.14816 0.67222 0.09384 0.0
C575 C 0.16045 0.66047 0.1386 0.0
C576 C 0.13222 0.58291 0.12584 0.0
C577 C 0.12523 0.59325 0.07934 0.0
N578 N 0.13709 0.64643 0.01731 0.0
N579 N 0.17416 0.60123 0.19384 0.0
C580 C 0.13647 0.63741 0.06272 0.0
C581 C 0.15503 0.61492 0.15389 0.0
N582 N 0.14608 0.71686 0.08135 0.0
N583 N 0.11764 0.54241 0.14336 0.0
H584 H 0.19329 0.62258 0.21456 0.0
H585 H 0.1753 0.56743 0.20413 0.0
H586 H 0.10331 0.51672 0.12375 0.0
H587 H 0.11704 0.53553 0.17804 0.0
H588 H 0.1324 0.72763 0.05063 0.0
H589 H 0.15334 0.7434 0.10359 0.0
H590 H 0.14927 0.6768 0.00372 0.0
H591 H 0.13069 0.62224 0.99269 0.0
C592 C 0.3932 0.85413 0.86385 0.0
C593 C 0.34678 0.8672 0.86851 0.0
C594 C 0.36904 0.9281 0.92032 0.0
C595 C 0.41492 0.91142 0.92016 0.0
N596 N 0.46849 0.85329 0.89696 0.0
N597 N 0.28912 0.91391 0.90313 0.0
C598 C 0.42639 0.87297 0.89331 0.0
C599 C 0.33435 0.90377 0.89693 0.0
N600 N 0.40585 0.82452 0.83033 0.0
N601 N 0.35814 0.96651 0.94376 0.0
H602 H 0.26306 0.89738 0.88564 0.0
H603 H 0.27703 0.93635 0.92768 0.0
H604 H 0.38069 0.98237 0.96547 0.0
H605 H 0.3274 0.98386 0.94015 0.0
H606 H 0.43981 0.81766 0.82202 0.0
H607 H 0.38254 0.80977 0.80809 0.0
H608 H 0.47668 0.8221 0.8824 0.0
H609 H 0.49437 0.86629 0.9173 0.0
C610 C 0.13645 0.29648 0.90464 0.0
C611 C 0.12841 0.29653 0.85771 0.0
C612 C 0.06998 0.35529 0.86646 0.0
C613 C 0.08494 0.3617 0.9117 0.0
N614 N 0.13119 0.33786 0.97495 0.0
N615 N 0.08052 0.31476 0.79485 0.0
C616 C 0.11683 0.33122 0.93156 0.0
C617 C 0.09239 0.32222 0.83896 0.0
N618 N 0.16378 0.26373 0.92291 0.0
N619 N 0.03562 0.38188 0.8499 0.0
H620 H 0.09647 0.28979 0.77522 0.0
H621 H 0.0543 0.33146 0.77811 0.0
H622 H 0.01807 0.40523 0.87015 0.0
H623 H 0.02372 0.38066 0.81679 0.0
H624 H 0.16828 0.25912 0.95759 0.0
H625 H 0.17854 0.2382 0.90313 0.0
H626 H 0.15814 0.32048 0.98987 0.0
H627 H 0.11764 0.36305 0.99543 0.0
C628 C 0.68588 0.11576 0.84471 0.0
C629 C 0.70681 0.15652 0.8598 0.0
C630 C 0.6755 0.14323 0.93634 0.0
C631 C 0.64813 0.10755 0.91901 0.0
N632 N 0.628 0.05772 0.85771 0.0
N633 N 0.72088 0.21028 0.91988 0.0
C634 C 0.65407 0.09274 0.87357 0.0
C635 C 0.70232 0.17008 0.90591 0.0
N636 N 0.69669 0.09931 0.80265 0.0
N637 N 0.6755 0.15155 0.98194 0.0
H638 H 0.74131 0.23053 0.89904 0.0
H639 H 0.71392 0.22502 0.95126 0.0
H640 H 0.65612 0.13246 0.00483 0.0
H641 H 0.6977 0.17425 -0.00247 0.0
H642 H 0.6856 0.0681 0.79038 0.0
H643 H 0.7203 0.11541 0.78137 0.0
H644 H 0.6265 0.04832 0.82373 0.0
H645 H 0.60619 0.03893 0.87866 0.0
C646 C 0.84816 0.67418 0.9354 0.0
C647 C 0.85727 0.67758 0.88855 0.0
C648 C 0.91249 0.61502 0.89345 0.0
C649 C 0.9037 0.61128 0.9411 0.0
N650 N 0.87706 0.6515 0.00824 0.0
N651 N 0.90822 0.66238 0.8262 0.0
C652 C 0.87564 0.64509 0.96242 0.0
C653 C 0.89309 0.65179 0.86888 0.0
N654 N 0.81253 0.69773 0.95404 0.0
N655 N 0.93672 0.58255 0.87051 0.0
H656 H 0.89452 0.68921 0.80757 0.0
H657 H 0.93725 0.64799 0.81147 0.0
H658 H 0.95158 0.5543 0.88534 0.0
H659 H 0.93864 0.58126 0.83524 0.0
H660 H 0.80081 0.69228 0.98706 0.0
H661 H 0.79309 0.72077 0.93545 0.0
H662 H 0.86024 0.67805 0.02468 0.0
H663 H 0.89982 0.63448 0.02904 0.0
C664 C 0.18905 0.38518 0.12894 0.0
C665 C 0.17553 0.33891 0.12905 0.0
C666 C 0.10707 0.35765 0.08607 0.0
C667 C 0.12261 0.40335 0.08199 0.0
N668 N 0.18187 0.45921 0.09424 0.0
N669 N 0.12751 0.27936 0.10045 0.0
C670 C 0.16478 0.41664 0.10169 0.0
C671 C 0.13608 0.32472 0.10568 0.0
N672 N 0.22342 0.39965 0.15667 0.0
N673 N 0.06516 0.34509 0.07025 0.0
H674 H 0.14885 0.25425 0.11352 0.0
H675 H 0.10217 0.26653 0.07937 0.0
H676 H 0.04433 0.36626 0.05143 0.0
H677 H 0.04978 0.31415 0.07809 0.0
H678 H 0.23088 0.43377 0.16219 0.0
H679 H 0.24226 0.37791 0.17724 0.0
H680 H 0.21495 0.4688 0.10292 0.0
H681 H 0.16408 0.48432 0.07686 0.0
C682 C 0.10859 0.70464 0.89719 0.0
C683 C 0.13854 0.69118 0.86178 0.0
C684 C 0.10423 0.61611 0.8604 0.0
C685 C 0.08181 0.6258 0.90154 0.0
N686 N 0.04338 0.68431 0.94457 0.0
N687 N 0.17091 0.63114 0.81559 0.0
C688 C 0.07813 0.67176 0.91609 0.0
C689 C 0.13765 0.6463 0.84453 0.0
N690 N 0.11033 0.74809 0.91323 0.0
N691 N 0.0925 0.5786 0.83591 0.0
H692 H 0.19756 0.65149 0.80362 0.0
H693 H 0.17471 0.59678 0.80801 0.0
H694 H 0.06519 0.5578 0.84558 0.0
H695 H 0.10589 0.57187 0.80373 0.0
H696 H 0.09274 0.75921 0.94192 0.0
H697 H 0.13179 0.77266 0.89902 0.0
H698 H 0.03777 0.7174 0.95552 0.0
H699 H 0.01622 0.66265 0.95223 0.0
C700 C 0.3802 0.13858 0.83892 0.0
C701 C 0.33177 0.13763 0.84459 0.0
C702 C 0.34201 0.0969 0.91625 0.0
C703 C 0.39007 0.09566 0.9078 0.0
N704 N 0.44813 0.09423 0.84916 0.0
N705 N 0.26767 0.09988 0.88089 0.0
C706 C 0.40668 0.10891 0.86483 0.0
C707 C 0.31276 0.11181 0.88085 0.0
N708 N 0.40201 0.17007 0.81251 0.0
N709 N 0.32386 0.08573 0.95753 0.0
H710 H 0.24603 0.10675 0.85381 0.0
H711 H 0.25348 0.07802 0.90498 0.0
H712 H 0.34275 0.07377 0.9847 0.0
H713 H 0.28966 0.09156 0.96576 0.0
H714 H 0.43758 0.17201 0.81047 0.0
H715 H 0.38604 0.19834 0.79883 0.0
H716 H 0.45996 0.10185 0.81656 0.0
H717 H 0.46751 0.07022 0.86661 0.0
C718 C 0.86785 0.40748 0.8503 0.0
C719 C 0.84973 0.36386 0.86081 0.0
C720 C 0.88075 0.37005 0.93696 0.0
C721 C 0.89201 0.41616 0.92881 0.0
N722 N 0.88717 0.48145 0.88008 0.0
N723 N 0.82806 0.30998 0.91936 0.0
C724 C 0.88275 0.43579 0.88613 0.0
C725 C 0.85301 0.34679 0.90562 0.0
N726 N 0.8727 0.42121 0.80624 0.0
N727 N 0.89793 0.34761 0.97346 0.0
H728 H 0.80451 0.29351 0.89873 0.0
H729 H 0.82677 0.29935 0.95309 0.0
H730 H 0.92035 0.3628 -0.00408 0.0
H731 H 0.89367 0.3128 0.97837 0.0
H732 H 0.88908 0.45131 0.79711 0.0
H733 H 0.86533 0.40025 0.77873 0.0
H734 H 0.87718 0.49803 0.85052 0.0
H735 H 0.89597 0.50302 0.90663 0.0
C736 C 0.62138 0.86079 0.8518 0.0
C737 C 0.66729 0.85154 0.86642 0.0
C738 C 0.6575 0.90848 0.92673 0.0
C739 C 0.61055 0.91221 0.91617 0.0
N740 N 0.55246 0.90662 0.86004 0.0
N741 N 0.72597 0.86277 0.92285 0.0
C742 C 0.59375 0.89247 0.87619 0.0
C743 C 0.68484 0.87496 0.9048 0.0
N744 N 0.60327 0.83829 0.81558 0.0
N745 N 0.67641 0.93859 0.95634 0.0
H746 H 0.74602 0.83644 0.91016 0.0
H747 H 0.73812 0.87558 0.95339 0.0
H748 H 0.65784 0.96579 0.96938 0.0
H749 H 0.71128 0.94038 0.96295 0.0
H750 H 0.56855 0.83764 0.8082 0.0
H751 H 0.62237 0.81898 0.79301 0.0
H752 H 0.53956 0.89789 0.82841 0.0
H753 H 0.5327 0.93091 0.87688 0.0
C754 C 0.89012 0.65546 0.17032 0.0
C755 C 0.895 0.69962 0.1512 0.0
C756 C 0.96021 0.67369 0.10617 0.0
C757 C 0.94893 0.6287 0.11916 0.0
N758 N 0.92639 0.5828 0.18252 0.0
N759 N 0.93621 0.75262 0.10395 0.0
C760 C 0.92147 0.62159 0.15773 0.0
C761 C 0.93117 0.70962 0.12059 0.0
N762 N 0.85418 0.64489 0.19827 0.0
N763 N 1.0 0.68194 0.08317 0.0
H764 H 0.91557 0.77955 0.11451 0.0
H765 H 0.95891 0.76114 0.078 0.0
H766 H 0.02449 0.65667 0.07818 0.0
H767 H 0.01157 0.71423 0.07454 0.0
H768 H 0.8471 0.61191 0.20898 0.0
H769 H 0.82885 0.66789 0.20759 0.0
H770 H 0.9098 0.57728 0.21343 0.0
H771 H 0.95158 0.55892 0.17456 0.0
C772 C 0.33473 0.92328 0.16806 0.0
C773 C 0.30435 0.8913 0.14837 0.0
C774 C 0.34435 0.89894 0.07541 0.0
C775 C 0.3795 0.92413 0.09709 0.0
N776 N 0.40763 0.96282 0.1633 0.0
N777 N 0.26704 0.86905 0.07974 0.0
C778 C 0.3743 0.93746 0.14316 0.0
C779 C 0.30504 0.88561 0.10071 0.0
N780 N 0.32385 0.94264 0.20879 0.0
N781 N 0.3498 0.88522 0.03146 0.0
H782 H 0.23698 0.86216 0.09777 0.0
H783 H 0.26335 0.86743 0.04467 0.0
H784 H 0.37834 0.89362 0.01204 0.0
H785 H 0.32791 0.86261 0.0153 0.0
H786 H 0.34297 0.96815 0.22401 0.0
H787 H 0.29203 0.93791 0.22418 0.0
H788 H 0.40879 0.96922 0.19799 0.0
H789 H 0.43581 0.97553 0.14554 0.0
C790 C 0.67922 0.11403 0.1481 0.0
C791 C 0.66928 0.1586 0.16357 0.0
C792 C 0.59678 0.15634 0.12223 0.0
C793 C 0.6091 0.11447 0.10208 0.0
N794 N 0.6692 0.05983 0.0873 0.0
N795 N 0.62569 0.22727 0.15051 0.0
C796 C 0.65233 0.09485 0.11264 0.0
C797 C 0.63008 0.18128 0.14633 0.0
N798 N 0.71331 0.08944 0.1677 0.0
N799 N 0.55301 0.17214 0.1193 0.0
H800 H 0.6514 0.24777 0.16375 0.0
H801 H 0.59939 0.24547 0.13523 0.0
H802 H 0.52686 0.15371 0.10398 0.0
H803 H 0.54182 0.20091 0.13672 0.0
H804 H 0.71938 0.0555 0.1599 0.0
H805 H 0.73275 0.10157 0.1946 0.0
H806 H 0.70222 0.04721 0.09105 0.0
H807 H 0.65228 0.04669 0.05929 0.0
C808 C 0.59419 0.6205 0.80816 0.0
C809 C 0.63746 0.60809 0.7912 0.0
C810 C 0.63952 0.54285 0.84152 0.0
C811 C 0.60401 0.56372 0.86717 0.0
N812 N 0.54402 0.61996 0.87346 0.0
N813 N 0.68692 0.54599 0.77322 0.0
C814 C 0.57936 0.60118 0.8495 0.0
C815 C 0.65528 0.56493 0.80167 0.0
N816 N 0.56807 0.65057 0.78462 0.0
N817 N 0.65891 0.50335 0.85621 0.0
H818 H 0.6963 0.56197 0.74291 0.0
H819 H 0.7008 0.51378 0.77734 0.0
H820 H 0.64703 0.48588 0.88462 0.0
H821 H 0.6872 0.48815 0.84104 0.0
H822 H 0.53465 0.65892 0.7937 0.0
H823 H 0.57858 0.66287 0.75299 0.0
H824 H 0.52758 0.64976 0.86386 0.0
H825 H 0.53335 0.6076 0.90486 0.0
C826 C 0.38948 0.60947 0.82806 0.0
C827 C 0.37804 0.65474 0.83994 0.0
C828 C 0.41666 0.64447 0.91371 0.0
C829 C 0.42321 0.59804 0.90334 0.0
N830 N 0.44027 0.54635 0.84257 0.0
N831 N 0.39486 0.71955 0.887 0.0
C832 C 0.41713 0.58345 0.85797 0.0
C833 C 0.39617 0.6736 0.88073 0.0
N834 N 0.37225 0.59022 0.78969 0.0
N835 N 0.43084 0.66067 0.95464 0.0
H836 H 0.38206 0.74157 0.86252 0.0
H837 H 0.4098 0.73639 0.91413 0.0
H838 H 0.44983 0.64092 0.97706 0.0
H839 H 0.42332 0.69293 0.96689 0.0
H840 H 0.37593 0.55581 0.78229 0.0
H841 H 0.35164 0.60773 0.76696 0.0
H842 H 0.44065 0.53659 0.80859 0.0
H843 H 0.46297 0.52857 0.86306 0.0
C844 C 0.38893 0.32735 0.87989 0.0
C845 C 0.37384 0.34254 0.83686 0.0
C846 C 0.39113 0.42071 0.85672 0.0
C847 C 0.40919 0.40591 0.89845 0.0
N848 N 0.4314 0.34474 0.9482 0.0
N849 N 0.37345 0.40072 0.77947 0.0
C850 C 0.41022 0.35896 0.90953 0.0
C851 C 0.3798 0.38826 0.8236 0.0
N852 N 0.38058 0.28373 0.8934 0.0
N853 N 0.38049 0.46532 0.85039 0.0
H854 H 0.36552 0.37719 0.75421 0.0
H855 H 0.38079 0.43323 0.76746 0.0
H856 H 0.38344 0.48922 0.87628 0.0
H857 H 0.36335 0.4772 0.82188 0.0
H858 H 0.38572 0.27221 0.92636 0.0
H859 H 0.36602 0.25944 0.87223 0.0
H860 H 0.43728 0.31073 0.95577 0.0
H861 H 0.44634 0.36711 0.97119 0.0
C862 C 0.66364 0.36016 0.87835 0.0
C863 C 0.63781 0.36052 0.83766 0.0
C864 C 0.57099 0.38565 0.88128 0.0
C865 C 0.59949 0.3964 0.91887 0.0
N866 N 0.67364 0.3895 0.95412 0.0
N867 N 0.5666 0.37402 0.79985 0.0
C868 C 0.64595 0.38188 0.91776 0.0
C869 C 0.59129 0.37323 0.83897 0.0
N870 N 0.70455 0.33768 0.87982 0.0
N871 N 0.52474 0.3845 0.88644 0.0
H872 H 0.58038 0.36413 0.76864 0.0
H873 H 0.53385 0.38772 0.79792 0.0
H874 H 0.50933 0.3859 0.91821 0.0
H875 H 0.50256 0.37443 0.86084 0.0
H876 H 0.72243 0.33189 0.90969 0.0
H877 H 0.71863 0.32065 0.85205 0.0
H878 H 0.70907 0.38621 0.95282 0.0
H879 H 0.66142 0.40093 0.98531 0.0
C880 C 0.61925 0.40002 0.19452 0.0
C881 C 0.6532 0.36849 0.18106 0.0
C882 C 0.63093 0.37746 0.1016 0.0
C883 C 0.60286 0.41436 0.11409 0.0
N884 N 0.56696 0.45959 0.17247 0.0
N885 N 0.69322 0.32759 0.12183 0.0
C886 C 0.59556 0.42494 0.16067 0.0
C887 C 0.6595 0.35718 0.13458 0.0
N888 N 0.60941 0.40568 0.23958 0.0
N889 N 0.62833 0.3605 0.05862 0.0
H890 H 0.71395 0.31065 0.14497 0.0
H891 H 0.70269 0.32208 0.08817 0.0
H892 H 0.6052 0.37332 0.03505 0.0
H893 H 0.64491 0.33104 0.04805 0.0
H894 H 0.58175 0.42438 0.25168 0.0
H895 H 0.62737 0.38916 0.26519 0.0
H896 H 0.56511 0.47365 0.2048 0.0
H897 H 0.54543 0.47504 0.1493 0.0
C898 C 0.67799 0.61185 0.18435 0.0
C899 C 0.66213 0.6571 0.18934 0.0
C900 C 0.59916 0.64168 0.13665 0.0
C901 C 0.61606 0.59693 0.13044 0.0
N902 N 0.66355 0.53565 0.15651 0.0
N903 N 0.60298 0.71255 0.17904 0.0
C904 C 0.65289 0.5808 0.15706 0.0
C905 C 0.62099 0.67109 0.16833 0.0
N906 N 0.71845 0.59931 0.20363 0.0
N907 N 0.56326 0.65639 0.11109 0.0
H908 H 0.61838 0.73433 0.20234 0.0
H909 H 0.57128 0.72392 0.16805 0.0
H910 H 0.5457 0.63522 0.08881 0.0
H911 H 0.55196 0.68984 0.11024 0.0
H912 H 0.73505 0.56886 0.19656 0.0
H913 H 0.73692 0.62054 0.22512 0.0
H914 H 0.68678 0.52071 0.17854 0.0
H915 H 0.64615 0.51223 0.13655 0.0
C916 C 0.3856 0.68689 0.11374 0.0
C917 C 0.38899 0.68114 0.16129 0.0
C918 C 0.44063 0.61704 0.14782 0.0
C919 C 0.42514 0.61542 0.10195 0.0
N920 N 0.37803 0.64757 0.04289 0.0
N921 N 0.43304 0.65105 0.22288 0.0
C922 C 0.39644 0.65011 0.08523 0.0
C923 C 0.42104 0.64949 0.17823 0.0
N924 N 0.37408 0.72797 0.09575 0.0
N925 N 0.47321 0.58735 0.16238 0.0
H926 H 0.42599 0.67924 0.24313 0.0
H927 H 0.45106 0.62568 0.23952 0.0
H928 H 0.48635 0.56166 0.14212 0.0
H929 H 0.48895 0.58899 0.19385 0.0
H930 H 0.37396 0.73411 0.0609 0.0
H931 H 0.3715 0.75713 0.11572 0.0
H932 H 0.35363 0.6706 0.03142 0.0
H933 H 0.384 0.62055 0.02087 0.0
C934 C 0.39867 0.39105 0.21442 0.0
C935 C 0.37849 0.35288 0.19219 0.0
C936 C 0.4151 0.37793 0.12209 0.0
C937 C 0.423 0.42123 0.14072 0.0
N938 N 0.42042 0.47027 0.20622 0.0
N939 N 0.35617 0.32264 0.11804 0.0
C940 C 0.41469 0.42832 0.18758 0.0
C941 C 0.38396 0.34914 0.14412 0.0
N942 N 0.40418 0.39139 0.26033 0.0
N943 N 0.43488 0.36547 0.0819 0.0
H944 H 0.32559 0.30874 0.12959 0.0
H945 H 0.35908 0.32154 0.08275 0.0
H946 H 0.45875 0.38601 0.0652 0.0
H947 H 0.43114 0.33292 0.06843 0.0
H948 H 0.42136 0.41735 0.27717 0.0
H949 H 0.39718 0.3633 0.28067 0.0
H950 H 0.41038 0.47792 0.23934 0.0
H951 H 0.43221 0.498 0.18757 0.0
C952 C 0.87533 0.60424 0.68176 0.0
C953 C 0.84202 0.63151 0.65965 0.0
C954 C 0.89657 0.65139 0.6013 0.0
C955 C 0.93043 0.6232 0.62155 0.0
N956 N 0.95577 0.58532 0.6892 0.0
N957 N 0.81604 0.65873 0.58743 0.0
C958 C 0.92079 0.6026 0.66408 0.0
C959 C 0.85099 0.64743 0.61564 0.0
N960 N 0.86264 0.57819 0.71802 0.0
N961 N 0.908 0.68534 0.57178 0.0
H962 H 0.78197 0.65249 0.59618 0.0
H963 H 0.82148 0.6682 0.55372 0.0
H964 H 0.94143 0.69712 0.56807 0.0
H965 H 0.88376 0.70717 0.55794 0.0
H966 H 0.88446 0.55606 0.7348 0.0
H967 H 0.82843 0.57427 0.72747 0.0
H968 H 0.95187 0.57269 0.72195 0.0
H969 H 0.98989 0.58919 0.6795 0.0
C970 C 0.37261 0.88872 0.67012 0.0
C971 C 0.36338 0.84479 0.65251 0.0
C972 C 0.40412 0.86653 0.58291 0.0
C973 C 0.40697 0.91239 0.59885 0.0
N974 N 0.37726 0.96803 0.65132 0.0
N975 N 0.36187 0.79565 0.58702 0.0
C976 C 0.38522 0.92374 0.6402 0.0
C977 C 0.3764 0.83469 0.60723 0.0
N978 N 0.3714 0.89673 0.71576 0.0
N979 N 0.42963 0.85211 0.54683 0.0
H980 H 0.34145 0.77182 0.60366 0.0
H981 H 0.36683 0.78915 0.55257 0.0
H982 H 0.45192 0.87289 0.52893 0.0
H983 H 0.43168 0.81809 0.53731 0.0
H984 H 0.38081 0.92784 0.7298 0.0
H985 H 0.36688 0.8708 0.7395 0.0
H986 H 0.35898 0.97738 0.68035 0.0
H987 H 0.38436 0.99461 0.6289 0.0
C988 C 0.18676 0.40829 0.63035 0.0
C989 C 0.17837 0.38962 0.67367 0.0
C990 C 0.09899 0.41549 0.67214 0.0
C991 C 0.10652 0.43079 0.62734 0.0
N992 N 0.15991 0.45789 0.57081 0.0
N993 N 0.13279 0.39104 0.74255 0.0
C994 C 0.15142 0.43272 0.60887 0.0
C995 C 0.13668 0.39877 0.69703 0.0
N996 N 0.22786 0.40121 0.60927 0.0
N997 N 0.05567 0.4137 0.68967 0.0
H998 H 0.15912 0.37802 0.76213 0.0
H999 H 0.10498 0.40218 0.76177 0.0
H1000 H 0.02722 0.42596 0.67247 0.0
H1001 H 0.04754 0.39757 0.72011 0.0
H1002 H 0.23411 0.40906 0.57535 0.0
H1003 H 0.2553 0.38569 0.62557 0.0
H1004 H 0.1926 0.46388 0.55797 0.0
H1005 H 0.13446 0.47641 0.55456 0.0
C1006 C 0.6394 0.1974 0.58895 0.0
C1007 C 0.66575 0.18539 0.6271 0.0
C1008 C 0.65497 0.10479 0.60969 0.0
C1009 C 0.62096 0.11667 0.578 0.0
N1010 N 0.581 0.17505 0.53597 0.0
N1011 N 0.70113 0.12789 0.67357 0.0
C1012 C 0.61399 0.16315 0.56626 0.0
C1013 C 0.67473 0.13909 0.63711 0.0
N1014 N 0.63857 0.24149 0.57457 0.0
N1015 N 0.66824 0.06046 0.61316 0.0
H1016 H 0.7181 0.15192 0.69328 0.0
H1017 H 0.70434 0.09495 0.68591 0.0
H1018 H 0.65455 0.03511 0.59254 0.0
H1019 H 0.69553 0.04958 0.63285 0.0
H1020 H 0.62423 0.25167 0.54398 0.0
H1021 H 0.65573 0.26748 0.59146 0.0
H1022 H 0.56985 0.20825 0.53121 0.0
H1023 H 0.56303 0.15171 0.51675 0.0
C1024 C 0.88844 0.38082 0.35337 0.0
C1025 C 0.84264 0.38365 0.36926 0.0
C1026 C 0.86625 0.43772 0.42834 0.0
C1027 C 0.91215 0.43381 0.41273 0.0
N1028 N 0.96363 0.4147 0.35189 0.0
N1029 N 0.78582 0.41957 0.41627 0.0
C1030 C 0.92208 0.40938 0.37252 0.0
C1031 C 0.83081 0.41382 0.40501 0.0
N1032 N 0.90039 0.34929 0.32129 0.0
N1033 N 0.85698 0.46286 0.46622 0.0
H1034 H 0.75966 0.40187 0.4001 0.0
H1035 H 0.77401 0.4435 0.43947 0.0
H1036 H 0.88193 0.48172 0.48287 0.0
H1037 H 0.82534 0.46363 0.48247 0.0
H1038 H 0.93415 0.3419 0.3127 0.0
H1039 H 0.87702 0.32767 0.30573 0.0
H1040 H 0.97176 0.40145 0.3201 0.0
H1041 H 0.98805 0.43701 0.3644 0.0
C1042 C 0.66607 0.90217 0.34417 0.0
C1043 C 0.67451 0.85662 0.35832 0.0
C1044 C 0.62348 0.87023 0.42306 0.0
C1045 C 0.62223 0.91751 0.41269 0.0
N1046 N 0.65498 0.97916 0.36968 0.0
N1047 N 0.66952 0.80227 0.41997 0.0
C1048 C 0.6485 0.93367 0.37577 0.0
C1049 C 0.6559 0.84198 0.40049 0.0
N1050 N 0.67094 0.9148 0.29978 0.0
N1051 N 0.59197 0.8512 0.45151 0.0
H1052 H 0.69527 0.78189 0.40645 0.0
H1053 H 0.65874 0.79257 0.45235 0.0
H1054 H 0.5668 0.86984 0.46811 0.0
H1055 H 0.58908 0.81617 0.45585 0.0
H1056 H 0.66237 0.94715 0.28824 0.0
H1057 H 0.67671 0.89156 0.27368 0.0
H1058 H 0.67634 0.9921 0.34431 0.0
H1059 H 0.64292 0.00313 0.39294 0.0
C1060 C 0.19178 0.59217 0.35317 0.0
C1061 C 0.2147 0.63233 0.36542 0.0
C1062 C 0.16577 0.64081 0.43241 0.0
C1063 C 0.13935 0.60257 0.41813 0.0
N1064 N 0.12311 0.54702 0.35983 0.0
N1065 N 0.23444 0.68647 0.42228 0.0
C1066 C 0.15202 0.57863 0.3778 0.0
C1067 C 0.20526 0.65364 0.40716 0.0
N1068 N 0.20775 0.56802 0.31686 0.0
N1069 N 0.15181 0.66662 0.46848 0.0
H1070 H 0.26348 0.69596 0.40382 0.0
H1071 H 0.23264 0.70096 0.45444 0.0
H1072 H 0.12555 0.65731 0.49046 0.0
H1073 H 0.1656 0.69818 0.47638 0.0
H1074 H 0.19561 0.53612 0.30768 0.0
H1075 H 0.2366 0.57851 0.29858 0.0
H1076 H 0.12844 0.5311 0.32875 0.0
H1077 H 0.09085 0.54032 0.37315 0.0
C1078 C 0.35643 0.12029 0.35281 0.0
C1079 C 0.34799 0.16533 0.36805 0.0
C1080 C 0.38606 0.14597 0.43926 0.0
C1081 C 0.3897 0.09982 0.42458 0.0
N1082 N 0.35976 0.0419 0.37557 0.0
N1083 N 0.34411 0.21659 0.43206 0.0
C1084 C 0.36727 0.08669 0.38464 0.0
C1085 C 0.35941 0.17704 0.41329 0.0
N1086 N 0.35749 0.10998 0.30766 0.0
N1087 N 0.40936 0.16112 0.47613 0.0
H1088 H 0.32361 0.23955 0.41467 0.0
H1089 H 0.34813 0.22424 0.46634 0.0
H1090 H 0.42775 0.13991 0.49719 0.0
H1091 H 0.41199 0.19542 0.48443 0.0
H1092 H 0.3666 0.07786 0.29582 0.0
H1093 H 0.35564 0.13473 0.28241 0.0
H1094 H 0.3416 0.03111 0.34719 0.0
H1095 H 0.36778 0.01654 0.39899 0.0
C1096 C 0.63967 0.82131 0.61139 0.0
C1097 C 0.64491 0.8242 0.6591 0.0
C1098 C 0.58786 0.8843 0.66152 0.0
C1099 C 0.58752 0.88621 0.61353 0.0
N1100 N 0.62741 0.86627 0.54438 0.0
N1101 N 0.63823 0.87372 0.72441 0.0
C1102 C 0.61725 0.85729 0.58858 0.0
C1103 C 0.62305 0.86002 0.68296 0.0
N1104 N 0.65514 0.78454 0.58775 0.0
N1105 N 0.55473 0.90503 0.68689 0.0
H1106 H 0.6678 0.86067 0.73907 0.0
H1107 H 0.62482 0.90204 0.74106 0.0
H1108 H 0.52631 0.92066 0.67251 0.0
H1109 H 0.55308 0.90171 0.72211 0.0
H1110 H 0.64884 0.78031 0.55321 0.0
H1111 H 0.66973 0.75635 0.60334 0.0
H1112 H 0.65218 0.8482 0.52631 0.0
H1113 H 0.61581 0.89542 0.52819 0.0
C1114 C 0.64899 0.18125 0.42328 0.0
C1115 C 0.6347 0.21798 0.39614 0.0
C1116 C 0.55789 0.18509 0.39127 0.0
C1117 C 0.57568 0.144 0.40916 0.0
N1118 N 0.63804 0.10239 0.44308 0.0
N1119 N 0.57276 0.2639 0.37022 0.0
C1120 C 0.62116 0.14195 0.42569 0.0
C1121 C 0.58781 0.22282 0.38555 0.0
N1122 N 0.68767 0.18507 0.44861 0.0
N1123 N 0.51311 0.18711 0.3783 0.0
H1124 H 0.5946 0.29192 0.36839 0.0
H1125 H 0.53906 0.27135 0.36219 0.0
H1126 H 0.49082 0.15957 0.38113 0.0
H1127 H 0.49792 0.21522 0.3634 0.0
H1128 H 0.69806 0.16063 0.47189 0.0
H1129 H 0.70548 0.21562 0.45124 0.0
H1130 H 0.67234 0.09783 0.45112 0.0
H1131 H 0.61865 0.07286 0.4463 0.0
C1132 C 0.88586 0.68578 0.37225 0.0
C1133 C 0.85371 0.65858 0.34923 0.0
C1134 C 0.90188 0.59163 0.36321 0.0
C1135 C 0.93599 0.62034 0.38246 0.0
N1136 N 0.96571 0.69636 0.38901 0.0
N1137 N 0.83397 0.58675 0.31614 0.0
C1138 C 0.92954 0.66801 0.3816 0.0
C1139 C 0.8625 0.61169 0.34282 0.0
N1140 N 0.8748 0.72909 0.38449 0.0
N1141 N 0.90618 0.54559 0.36502 0.0
H1142 H 0.80392 0.60023 0.30279 0.0
H1143 H 0.84128 0.5538 0.30553 0.0
H1144 H 0.93587 0.52946 0.37533 0.0
H1145 H 0.87965 0.52338 0.3572 0.0
H1146 H 0.89594 0.7495 0.40422 0.0
H1147 H 0.84231 0.74242 0.37899 0.0
H1148 H 0.96364 0.7315 0.38536 0.0
H1149 H 0.99885 0.68413 0.39365 0.0
C1150 C 0.4233 0.82289 0.34415 0.0
C1151 C 0.37765 0.81823 0.36029 0.0
C1152 C 0.393 0.87155 0.42203 0.0
C1153 C 0.43841 0.87659 0.40565 0.0
N1154 N 0.50039 0.84957 0.35898 0.0
N1155 N 0.32281 0.82763 0.42071 0.0
C1156 C 0.45479 0.84952 0.36936 0.0
C1157 C 0.36381 0.83914 0.4014 0.0
N1158 N 0.43575 0.80447 0.30334 0.0
N1159 N 0.37705 0.89935 0.45569 0.0
H1160 H 0.30102 0.80358 0.40638 0.0
H1161 H 0.31247 0.83841 0.45281 0.0
H1162 H 0.39757 0.92325 0.47182 0.0
H1163 H 0.34288 0.90091 0.4656 0.0
H1164 H 0.46675 0.81132 0.28721 0.0
H1165 H 0.41396 0.78447 0.28391 0.0
H1166 H 0.51534 0.82733 0.3358 0.0
H1167 H 0.52403 0.86926 0.3766 0.0
C1168 C 0.15775 0.40391 0.32061 0.0
C1169 C 0.18816 0.37633 0.346 0.0
C1170 C 0.15998 0.41285 0.41456 0.0
C1171 C 0.12021 0.42693 0.39097 0.0
N1172 N 0.08364 0.43952 0.31834 0.0
N1173 N 0.21807 0.35526 0.41965 0.0
C1174 C 0.12 0.42454 0.34289 0.0
C1175 C 0.1902 0.38164 0.39368 0.0
N1176 N 0.16522 0.41023 0.27526 0.0
N1177 N 0.16872 0.42947 0.45685 0.0
H1178 H 0.2406 0.33132 0.40648 0.0
H1179 H 0.21625 0.35506 0.45498 0.0
H1180 H 0.14826 0.45446 0.47174 0.0
H1181 H 0.19887 0.42262 0.47421 0.0
H1182 H 0.14633 0.43286 0.25571 0.0
H1183 H 0.19373 0.39671 0.25862 0.0
H1184 H 0.07983 0.43248 0.28392 0.0
H1185 H 0.05649 0.45754 0.33213 0.0
C1186 C 0.35465 0.17246 0.5942 0.0
C1187 C 0.36879 0.21141 0.61844 0.0
C1188 C 0.44853 0.18529 0.6139 0.0
C1189 C 0.43264 0.14227 0.59892 0.0
N1190 N 0.37069 0.09448 0.57352 0.0
N1191 N 0.42918 0.26016 0.64341 0.0
C1192 C 0.3857 0.13577 0.58855 0.0
C1193 C 0.41609 0.21972 0.62487 0.0
N1194 N 0.31216 0.17121 0.57538 0.0
N1195 N 0.49444 0.19276 0.61828 0.0
H1196 H 0.40586 0.28651 0.64864 0.0
H1197 H 0.46218 0.26763 0.65399 0.0
H1198 H 0.51876 0.16727 0.6138 0.0
H1199 H 0.50888 0.22431 0.6249 0.0
H1200 H 0.30093 0.14512 0.5544 0.0
H1201 H 0.29048 0.19921 0.57549 0.0
H1202 H 0.33626 0.08617 0.57048 0.0
H1203 H 0.39248 0.06726 0.56689 0.0
C1204 C 0.84375 0.43996 0.6472 0.0
C1205 C 0.81925 0.40266 0.62897 0.0
C1206 C 0.87058 0.40232 0.56265 0.0
C1207 C 0.89925 0.43525 0.58379 0.0
N1208 N 0.91547 0.48098 0.64991 0.0
N1209 N 0.79613 0.36604 0.56029 0.0
C1210 C 0.88602 0.45357 0.62671 0.0
C1211 C 0.82873 0.38927 0.5838 0.0
N1212 N 0.82537 0.46424 0.68223 0.0
N1213 N 0.88411 0.38155 0.52342 0.0
H1214 H 0.76401 0.3591 0.5743 0.0
H1215 H 0.79852 0.35899 0.52573 0.0
H1216 H 0.91325 0.39074 0.50544 0.0
H1217 H 0.86779 0.35319 0.51 0.0
H1218 H 0.84024 0.49346 0.69522 0.0
H1219 H 0.79189 0.45953 0.69347 0.0
H1220 H 0.91035 0.4904 0.6836 0.0
H1221 H 0.94743 0.49057 0.63747 0.0
C1222 C 0.20913 0.63966 0.60163 0.0
C1223 C 0.20499 0.63847 0.64955 0.0
C1224 C 0.13407 0.5943 0.64289 0.0
C1225 C 0.13648 0.59832 0.59498 0.0
N1226 N 0.18792 0.60248 0.53147 0.0
N1227 N 0.17592 0.59729 0.71355 0.0
C1228 C 0.17764 0.61421 0.57496 0.0
C1229 C 0.1714 0.60988 0.66937 0.0
N1230 N 0.24139 0.66636 0.58138 0.0
N1231 N 0.09576 0.57723 0.66335 0.0
H1232 H 0.20459 0.60675 0.73222 0.0
H1233 H 0.15481 0.57341 0.72921 0.0
H1234 H 0.06832 0.5641 0.64525 0.0
H1235 H 0.09028 0.57844 0.69829 0.0
H1236 H 0.24243 0.67184 0.54644 0.0
H1237 H 0.26547 0.68463 0.59985 0.0
H1238 H 0.21936 0.60977 0.51628 0.0
H1239 H 0.16659 0.5812 0.5128 0.0
loop_
_geom_bond_atom_site_label_1
_geom_bond_atom_site_label_2
_geom_bond_distance
_geom_bond_site_symmetry_2
_ccdc_geom_bond_type
O0 Zn1 1.953 . S
O0 C16 1.225 . S
Zn1 O0 1.953 . S
Zn1 O2 1.949 . S
Zn1 O8 1.919 . S
Zn1 O13 1.924 . S
O2 Zn1 1.949 . S
O2 Zn3 1.923 . S
O2 Zn4 1.950 . S
O2 Zn5 1.945 . S
Zn3 O2 1.923 . S
Zn3 O6 1.933 . S
Zn3 O9 1.941 . S
Zn3 O10 1.965 . S
Zn4 O2 1.950 . S
Zn4 O11 1.938 . S
Zn4 O12 1.906 . S
Zn4 O22 1.953 . S
Zn5 O2 1.945 . S
Zn5 O7 1.932 . S
Zn5 O14 1.977 . S
Zn5 O15 1.910 . S
O6 Zn3 1.933 . S
O6 C17 1.226 . S
O7 Zn5 1.932 . S
O7 C17 1.307 . S
O8 Zn1 1.919 . S
O8 C19 1.253 . S
O9 Zn3 1.941 . S
O9 C19 1.283 . S
O10 Zn3 1.965 . S
O10 C18 1.303 . S
O11 Zn4 1.938 . S
O11 C18 1.247 . S
O12 Zn4 1.906 . S
O12 C20 1.304 . S
O13 Zn1 1.924 . S
O13 C21 1.311 . S
O14 Zn5 1.977 . S
O14 C20 1.272 . S
O15 Zn5 1.910 . S
O15 C21 1.231 . S
C16 O0 1.225 . S
C16 O22 1.298 . S
C17 O6 1.226 . S
C17 O7 1.307 . S
C18 O10 1.303 . S
C18 O11 1.247 . S
C19 O8 1.253 . S
C19 O9 1.283 . S
C20 O12 1.304 . S
C20 O14 1.272 . S
C21 O13 1.311 . S
C21 O15 1.231 . S
O22 Zn4 1.953 . S
O22 C16 1.298 . S
O23 Zn24 1.953 . S
O23 C39 1.225 . S
Zn24 O23 1.953 . S
Zn24 O25 1.949 . S
Zn24 O31 1.919 . S
Zn24 O36 1.924 . S
O25 Zn24 1.949 . S
O25 Zn26 1.923 . S
O25 Zn27 1.950 . S
O25 Zn28 1.945 . S
Zn26 O25 1.923 . S
Zn26 O29 1.933 . S
Zn26 O32 1.941 . S
Zn26 O33 1.965 . S
Zn27 O25 1.950 . S
Zn27 O34 1.938 . S
Zn27 O35 1.906 . S
Zn27 O45 1.953 . S
Zn28 O25 1.945 . S
Zn28 O30 1.932 . S
Zn28 O37 1.977 . S
Zn28 O38 1.910 . S
O29 Zn26 1.933 . S
O29 C40 1.226 . S
O30 Zn28 1.932 . S
O30 C40 1.307 . S
O31 Zn24 1.919 . S
O31 C42 1.253 . S
O32 Zn26 1.941 . S
O32 C42 1.283 . S
O33 Zn26 1.965 . S
O33 C41 1.303 . S
O34 Zn27 1.938 . S
O34 C41 1.247 . S
O35 Zn27 1.906 . S
O35 C43 1.304 . S
O36 Zn24 1.924 . S
O36 C44 1.311 . S
O37 Zn28 1.977 . S
O37 C43 1.272 . S
O38 Zn28 1.910 . S
O38 C44 1.231 . S
C39 O23 1.225 . S
C39 O45 1.298 . S
C40 O29 1.226 . S
C40 O30 1.307 . S
C41 O33 1.303 . S
C41 O34 1.247 . S
C42 O31 1.253 . S
C42 O32 1.283 . S
C43 O35 1.304 . S
C43 O37 1.272 . S
C44 O36 1.311 . S
C44 O38 1.231 . S
O45 Zn27 1.953 . S
O45 C39 1.298 . S
O46 Zn47 1.953 . S
O46 C62 1.225 . S
Zn47 O46 1.953 . S
Zn47 O48 1.949 . S
Zn47 O54 1.919 . S
Zn47 O59 1.924 . S
O48 Zn47 1.949 . S
O48 Zn49 1.923 . S
O48 Zn50 1.950 . S
O48 Zn51 1.945 . S
Zn49 O48 1.923 . S
Zn49 O52 1.933 . S
Zn49 O55 1.941 . S
Zn49 O56 1.965 . S
Zn50 O48 1.950 . S
Zn50 O57 1.938 . S
Zn50 O58 1.906 . S
Zn50 O68 1.953 . S
Zn51 O48 1.945 . S
Zn51 O53 1.932 . S
Zn51 O60 1.977 . S
Zn51 O61 1.910 . S
O52 Zn49 1.933 . S
O52 C63 1.226 . S
O53 Zn51 1.932 . S
O53 C63 1.307 . S
O54 Zn47 1.919 . S
O54 C65 1.253 . S
O55 Zn49 1.941 . S
O55 C65 1.283 . S
O56 Zn49 1.965 . S
O56 C64 1.303 . S
O57 Zn50 1.938 . S
O57 C64 1.247 . S
O58 Zn50 1.906 . S
O58 C66 1.304 . S
O59 Zn47 1.924 . S
O59 C67 1.311 . S
O60 Zn51 1.977 . S
O60 C66 1.272 . S
O61 Zn51 1.910 . S
O61 C67 1.231 . S
C62 O46 1.225 . S
C62 O68 1.298 . S
C63 O52 1.226 . S
C63 O53 1.307 . S
C64 O56 1.303 . S
C64 O57 1.247 . S
C65 O54 1.253 . S
C65 O55 1.283 . S
C66 O58 1.304 . S
C66 O60 1.272 . S
C67 O59 1.311 . S
C67 O61 1.231 . S
O68 Zn50 1.953 . S
O68 C62 1.298 . S
O69 Zn70 1.953 . S
O69 C85 1.225 . S
Zn70 O69 1.953 . S
Zn70 O71 1.949 . S
Zn70 O77 1.919 . S
Zn70 O82 1.924 . S
O71 Zn70 1.949 . S
O71 Zn72 1.923 . S
O71 Zn73 1.950 . S
O71 Zn74 1.945 . S
Zn72 O71 1.923 . S
Zn72 O75 1.933 . S
Zn72 O78 1.941 . S
Zn72 O79 1.965 . S
Zn73 O71 1.950 . S
Zn73 O80 1.938 . S
Zn73 O81 1.906 . S
Zn73 O91 1.953 . S
Zn74 O71 1.945 . S
Zn74 O76 1.932 . S
Zn74 O83 1.977 . S
Zn74 O84 1.910 . S
O75 Zn72 1.933 . S
O75 C86 1.226 . S
O76 Zn74 1.932 . S
O76 C86 1.307 . S
O77 Zn70 1.919 . S
O77 C88 1.253 . S
O78 Zn72 1.941 . S
O78 C88 1.283 . S
O79 Zn72 1.965 . S
O79 C87 1.303 . S
O80 Zn73 1.938 . S
O80 C87 1.247 . S
O81 Zn73 1.906 . S
O81 C89 1.304 . S
O82 Zn70 1.924 . S
O82 C90 1.311 . S
O83 Zn74 1.977 . S
O83 C89 1.272 . S
O84 Zn74 1.910 . S
O84 C90 1.231 . S
C85 O69 1.225 . S
C85 O91 1.298 . S
C86 O75 1.226 . S
C86 O76 1.307 . S
C87 O79 1.303 . S
C87 O80 1.247 . S
C88 O77 1.253 . S
C88 O78 1.283 . S
C89 O81 1.304 . S
C89 O83 1.272 . S
C90 O82 1.311 . S
C90 O84 1.231 . S
O91 Zn73 1.953 . S
O91 C85 1.298 . S
O92 Zn93 1.953 . S
O92 C108 1.225 . S
Zn93 O92 1.953 . S
Zn93 O94 1.949 . S
Zn93 O100 1.919 . S
Zn93 O105 1.924 . S
O94 Zn93 1.949 . S
O94 Zn95 1.923 . S
O94 Zn96 1.950 . S
O94 Zn97 1.945 . S
Zn95 O94 1.923 . S
Zn95 O98 1.933 . S
Zn95 O101 1.941 . S
Zn95 O102 1.965 . S
Zn96 O94 1.950 . S
Zn96 O103 1.938 . S
Zn96 O104 1.906 . S
Zn96 O114 1.953 . S
Zn97 O94 1.945 . S
Zn97 O99 1.932 . S
Zn97 O106 1.977 . S
Zn97 O107 1.910 . S
O98 Zn95 1.933 . S
O98 C109 1.226 . S
O99 Zn97 1.932 . S
O99 C109 1.307 . S
O100 Zn93 1.919 . S
O100 C111 1.253 . S
O101 Zn95 1.941 . S
O101 C111 1.283 . S
O102 Zn95 1.965 . S
O102 C110 1.303 . S
O103 Zn96 1.938 . S
O103 C110 1.247 . S
O104 Zn96 1.906 . S
O104 C112 1.304 . S
O105 Zn93 1.924 . S
O105 C113 1.311 . S
O106 Zn97 1.977 . S
O106 C112 1.272 . S
O107 Zn97 1.910 . S
O107 C113 1.231 . S
C108 O92 1.225 . S
C108 O114 1.298 . S
C109 O98 1.226 . S
C109 O99 1.307 . S
C110 O102 1.303 . S
C110 O103 1.247 . S
C111 O100 1.253 . S
C111 O101 1.283 . S
C112 O104 1.304 . S
C112 O106 1.272 . S
C113 O105 1.311 . S
C113 O107 1.231 . S
O114 Zn96 1.953 . S
O114 C108 1.298 . S
O115 Zn116 1.953 . S
O115 C131 1.225 . S
Zn116 O115 1.953 . S
Zn116 O117 1.949 . S
Zn116 O123 1.919 . S
Zn116 O128 1.924 . S
O117 Zn116 1.949 . S
O117 Zn118 1.923 . S
O117 Zn119 1.950 . S
O117 Zn120 1.945 . S
Zn118 O117 1.923 . S
Zn118 O121 1.933 . S
Zn118 O124 1.941 . S
Zn118 O125 1.965 . S
Zn119 O117 1.950 . S
Zn119 O126 1.938 . S
Zn119 O127 1.906 . S
Zn119 O137 1.953 . S
Zn120 O117 1.945 . S
Zn120 O122 1.932 . S
Zn120 O129 1.977 . S
Zn120 O130 1.910 . S
O121 Zn118 1.933 . S
O121 C132 1.226 . S
O122 Zn120 1.932 . S
O122 C132 1.307 . S
O123 Zn116 1.919 . S
O123 C134 1.253 . S
O124 Zn118 1.941 . S
O124 C134 1.283 . S
O125 Zn118 1.965 . S
O125 C133 1.303 . S
O126 Zn119 1.938 . S
O126 C133 1.247 . S
O127 Zn119 1.906 . S
O127 C135 1.304 . S
O128 Zn116 1.924 . S
O128 C136 1.311 . S
O129 Zn120 1.977 . S
O129 C135 1.272 . S
O130 Zn120 1.910 . S
O130 C136 1.231 . S
C131 O115 1.225 . S
C131 O137 1.298 . S
C132 O121 1.226 . S
C132 O122 1.307 . S
C133 O125 1.303 . S
C133 O126 1.247 . S
C134 O123 1.253 . S
C134 O124 1.283 . S
C135 O127 1.304 . S
C135 O129 1.272 . S
C136 O128 1.311 . S
C136 O130 1.231 . S
O137 Zn119 1.953 . S
O137 C131 1.298 . S
O138 Zn139 1.953 . S
O138 C154 1.225 . S
Zn139 O138 1.953 . S
Zn139 O140 1.949 . S
Zn139 O146 1.919 . S
Zn139 O151 1.924 . S
O140 Zn139 1.949 . S
O140 Zn141 1.923 . S
O140 Zn142 1.950 . S
O140 Zn143 1.945 . S
Zn141 O140 1.923 . S
Zn141 O144 1.933 . S
Zn141 O147 1.941 . S
Zn141 O148 1.965 . S
Zn142 O140 1.950 . S
Zn142 O149 1.938 . S
Zn142 O150 1.906 . S
Zn142 O160 1.953 . S
Zn143 O140 1.945 . S
Zn143 O145 1.932 . S
Zn143 O152 1.977 . S
Zn143 O153 1.910 . S
O144 Zn141 1.933 . S
O144 C155 1.226 . S
O145 Zn143 1.932 . S
O145 C155 1.307 . S
O146 Zn139 1.919 . S
O146 C157 1.253 . S
O147 Zn141 1.941 . S
O147 C157 1.283 . S
O148 Zn141 1.965 . S
O148 C156 1.303 . S
O149 Zn142 1.938 . S
O149 C156 1.247 . S
O150 Zn142 1.906 . S
O150 C158 1.304 . S
O151 Zn139 1.924 . S
O151 C159 1.311 . S
O152 Zn143 1.977 . S
O152 C158 1.272 . S
O153 Zn143 1.910 . S
O153 C159 1.231 . S
C154 O138 1.225 . S
C154 O160 1.298 . S
C155 O144 1.226 . S
C155 O145 1.307 . S
C156 O148 1.303 . S
C156 O149 1.247 . S
C157 O146 1.253 . S
C157 O147 1.283 . S
C158 O150 1.304 . S
C158 O152 1.272 . S
C159 O151 1.311 . S
C159 O153 1.231 . S
O160 Zn142 1.953 . S
O160 C154 1.298 . S
O161 Zn162 1.953 . S
O161 C177 1.225 . S
Zn162 O161 1.953 . S
Zn162 O163 1.949 . S
Zn162 O169 1.919 . S
Zn162 O174 1.924 . S
O163 Zn162 1.949 . S
O163 Zn164 1.923 . S
O163 Zn165 1.950 . S
O163 Zn166 1.945 . S
Zn164 O163 1.923 . S
Zn164 O167 1.933 . S
Zn164 O170 1.941 . S
Zn164 O171 1.965 . S
Zn165 O163 1.950 . S
Zn165 O172 1.938 . S
Zn165 O173 1.906 . S
Zn165 O183 1.953 . S
Zn166 O163 1.945 . S
Zn166 O168 1.932 . S
Zn166 O175 1.977 . S
Zn166 O176 1.910 . S
O167 Zn164 1.933 . S
O167 C178 1.226 . S
O168 Zn166 1.932 . S
O168 C178 1.307 . S
O169 Zn162 1.919 . S
O169 C180 1.253 . S
O170 Zn164 1.941 . S
O170 C180 1.283 . S
O171 Zn164 1.965 . S
O171 C179 1.303 . S
O172 Zn165 1.938 . S
O172 C179 1.247 . S
O173 Zn165 1.906 . S
O173 C181 1.304 . S
O174 Zn162 1.924 . S
O174 C182 1.311 . S
O175 Zn166 1.977 . S
O175 C181 1.272 . S
O176 Zn166 1.910 . S
O176 C182 1.231 . S
C177 O161 1.225 . S
C177 O183 1.298 . S
C178 O167 1.226 . S
C178 O168 1.307 . S
C179 O171 1.303 . S
C179 O172 1.247 . S
C180 O169 1.253 . S
C180 O170 1.283 . S
C181 O173 1.304 . S
C181 O175 1.272 . S
C182 O174 1.311 . S
C182 O176 1.231 . S
O183 Zn165 1.953 . S
O183 C177 1.298 . S
Fe184 O185 1.886 1_455 S
Fe184 O188 1.715 . S
Fe184 O193 2.077 1_455 S
Fe184 O198 1.935 . S
Fe184 O204 2.077 1_455 S
Fe184 O213 1.935 . S
O185 Fe184 1.886 1_655 S
O185 Fe187 1.715 . S
Fe186 O188 1.886 . S
Fe186 O189 1.715 1_545 S
Fe186 O196 1.935 1_545 S
Fe186 O197 2.077 . S
Fe186 O203 1.935 1_545 S
Fe186 O212 2.077 . S
Fe187 O185 1.715 . S
Fe187 O190 1.886 1_545 S
Fe187 O194 1.935 . S
Fe187 O199 2.077 1_545 S
Fe187 O205 1.935 . S
Fe187 O209 2.077 1_545 S
O188 Fe184 1.715 . S
O188 Fe186 1.886 . S
O189 Fe186 1.715 1_565 S
O189 Fe191 1.886 . S
O190 Fe187 1.886 1_565 S
O190 Fe191 1.715 1_655 S
Fe191 O189 1.886 . S
Fe191 O190 1.715 1_455 S
Fe191 O195 2.077 . S
Fe191 O200 1.935 1_455 S
Fe191 O202 2.077 . S
Fe191 O210 1.935 1_455 S
C192 O204 1.381 . S
C192 O205 1.421 . S
O193 Fe184 2.077 1_655 S
O193 C206 1.381 . S
O194 Fe187 1.935 . S
O194 C206 1.421 . S
O195 Fe191 2.077 . S
O195 C211 1.381 . S
O196 Fe186 1.935 1_565 S
O196 C211 1.421 . S
O197 Fe186 2.077 . S
O197 C201 1.381 . S
O198 Fe184 1.935 . S
O198 C201 1.421 . S
O199 Fe187 2.077 1_565 S
O199 C207 1.381 . S
O200 Fe191 1.935 1_655 S
O200 C207 1.421 . S
C201 O197 1.381 . S
C201 O198 1.421 . S
O202 Fe191 2.077 . S
O202 C214 1.381 . S
O203 Fe186 1.935 1_565 S
O203 C214 1.421 . S
O204 Fe184 2.077 1_655 S
O204 C192 1.381 . S
O205 Fe187 1.935 . S
O205 C192 1.421 . S
C206 O193 1.381 . S
C206 O194 1.421 . S
C207 O199 1.381 . S
C207 O200 1.421 . S
C208 O209 1.381 . S
C208 O210 1.421 . S
O209 Fe187 2.077 1_565 S
O209 C208 1.381 . S
O210 Fe191 1.935 1_655 S
O210 C208 1.421 . S
C211 O195 1.381 . S
C211 O196 1.421 . S
O212 Fe186 2.077 . S
O212 C215 1.381 . S
O213 Fe184 1.935 . S
O213 C215 1.421 . S
C214 O202 1.381 . S
C214 O203 1.421 . S
C215 O212 1.381 . S
C215 O213 1.421 . S
Fe216 O217 1.886 . S
Fe216 O220 1.715 . S
Fe216 O225 2.077 1_554 S
Fe216 O230 1.935 1_554 S
Fe216 O236 2.077 . S
Fe216 O245 1.935 . S
O217 Fe216 1.886 . S
O217 Fe219 1.715 1_565 S
Fe218 O220 1.886 1_545 S
Fe218 O221 1.715 . S
Fe218 O228 1.935 1_554 S
Fe218 O229 2.077 1_544 S
Fe218 O235 1.935 . S
Fe218 O244 2.077 1_545 S
Fe219 O217 1.715 1_545 S
Fe219 O222 1.886 . S
Fe219 O226 1.935 1_544 S
Fe219 O231 2.077 1_554 S
Fe219 O237 1.935 1_545 S
Fe219 O241 2.077 . S
O220 Fe216 1.715 . S
O220 Fe218 1.886 1_565 S
O221 Fe218 1.715 . S
O221 Fe223 1.886 . S
O222 Fe219 1.886 . S
O222 Fe223 1.715 . S
Fe223 O221 1.886 . S
Fe223 O222 1.715 . S
Fe223 O227 2.077 1_554 S
Fe223 O232 1.935 1_554 S
Fe223 O234 2.077 . S
Fe223 O242 1.935 . S
C224 O236 1.381 . S
C224 O237 1.421 . S
O225 Fe216 2.077 1_556 S
O225 C238 1.381 . S
O226 Fe219 1.935 1_566 S
O226 C238 1.421 . S
O227 Fe223 2.077 1_556 S
O227 C243 1.381 . S
O228 Fe218 1.935 1_556 S
O228 C243 1.421 . S
O229 Fe218 2.077 1_566 S
O229 C233 1.381 . S
O230 Fe216 1.935 1_556 S
O230 C233 1.421 . S
O231 Fe219 2.077 1_556 S
O231 C239 1.381 . S
O232 Fe223 1.935 1_556 S
O232 C239 1.421 . S
C233 O229 1.381 . S
C233 O230 1.421 . S
O234 Fe223 2.077 . S
O234 C246 1.381 . S
O235 Fe218 1.935 . S
O235 C246 1.421 . S
O236 Fe216 2.077 . S
O236 C224 1.381 . S
O237 Fe219 1.935 1_565 S
O237 C224 1.421 . S
C238 O225 1.381 . S
C238 O226 1.421 . S
C239 O231 1.381 . S
C239 O232 1.421 . S
C240 O241 1.381 . S
C240 O242 1.421 . S
O241 Fe219 2.077 . S
O241 C240 1.381 . S
O242 Fe223 1.935 . S
O242 C240 1.421 . S
C243 O227 1.381 . S
C243 O228 1.421 . S
O244 Fe218 2.077 1_565 S
O244 C247 1.381 . S
O245 Fe216 1.935 . S
O245 C247 1.421 . S
C246 O234 1.381 . S
C246 O235 1.421 . S
C247 O244 1.381 . S
C247 O245 1.421 . S
Fe248 O249 1.886 1_455 S
Fe248 O252 1.715 . S
Fe248 O257 2.077 1_454 S
Fe248 O262 1.935 1_554 S
Fe248 O268 2.077 1_455 S
Fe248 O277 1.935 . S
O249 Fe248 1.886 1_655 S
O249 Fe251 1.715 . S
Fe250 O252 1.886 . S
Fe250 O253 1.715 . S
Fe250 O260 1.935 1_554 S
Fe250 O261 2.077 1_554 S
Fe250 O267 1.935 . S
Fe250 O276 2.077 . S
Fe251 O249 1.715 . S
Fe251 O254 1.886 . S
Fe251 O258 1.935 1_554 S
Fe251 O263 2.077 1_554 S
Fe251 O269 1.935 . S
Fe251 O273 2.077 . S
O252 Fe248 1.715 . S
O252 Fe250 1.886 . S
O253 Fe250 1.715 . S
O253 Fe255 1.886 . S
O254 Fe251 1.886 . S
O254 Fe255 1.715 1_655 S
Fe255 O253 1.886 . S
Fe255 O254 1.715 1_455 S
Fe255 O259 2.077 1_554 S
Fe255 O264 1.935 1_454 S
Fe255 O266 2.077 . S
Fe255 O274 1.935 1_455 S
C256 O268 1.381 . S
C256 O269 1.421 . S
O257 Fe248 2.077 1_656 S
O257 C270 1.381 . S
O258 Fe251 1.935 1_556 S
O258 C270 1.421 . S
O259 Fe255 2.077 1_556 S
O259 C275 1.381 . S
O260 Fe250 1.935 1_556 S
O260 C275 1.421 . S
O261 Fe250 2.077 1_556 S
O261 C265 1.381 . S
O262 Fe248 1.935 1_556 S
O262 C265 1.421 . S
O263 Fe251 2.077 1_556 S
O263 C271 1.381 . S
O264 Fe255 1.935 1_656 S
O264 C271 1.421 . S
C265 O261 1.381 . S
C265 O262 1.421 . S
O266 Fe255 2.077 . S
O266 C278 1.381 . S
O267 Fe250 1.935 . S
O267 C278 1.421 . S
O268 Fe248 2.077 1_655 S
O268 C256 1.381 . S
O269 Fe251 1.935 . S
O269 C256 1.421 . S
C270 O257 1.381 . S
C270 O258 1.421 . S
C271 O263 1.381 . S
C271 O264 1.421 . S
C272 O273 1.381 . S
C272 O274 1.421 . S
O273 Fe251 2.077 . S
O273 C272 1.381 . S
O274 Fe255 1.935 1_655 S
O274 C272 1.421 . S
C275 O259 1.381 . S
C275 O260 1.421 . S
O276 Fe250 2.077 . S
O276 C279 1.381 . S
O277 Fe248 1.935 . S
O277 C279 1.421 . S
C278 O266 1.381 . S
C278 O267 1.421 . S
C279 O276 1.381 . S
C279 O277 1.421 . S
Fe280 O281 1.886 . S
Fe280 O284 1.715 . S
Fe280 O289 2.077 . S
Fe280 O294 1.935 . S
Fe280 O300 2.077 . S
Fe280 O309 1.935 . S
O281 Fe280 1.886 . S
O281 Fe283 1.715 1_556 S
Fe282 O284 1.886 1_554 S
Fe282 O285 1.715 . S
Fe282 O292 1.935 . S
Fe282 O293 2.077 1_554 S
Fe282 O299 1.935 . S
Fe282 O308 2.077 1_554 S
Fe283 O281 1.715 1_554 S
Fe283 O286 1.886 . S
Fe283 O290 1.935 1_554 S
Fe283 O295 2.077 . S
Fe283 O301 1.935 1_554 S
Fe283 O305 2.077 . S
O284 Fe280 1.715 . S
O284 Fe282 1.886 1_556 S
O285 Fe282 1.715 . S
O285 Fe287 1.886 . S
O286 Fe283 1.886 . S
O286 Fe287 1.715 . S
Fe287 O285 1.886 . S
Fe287 O286 1.715 . S
Fe287 O291 2.077 . S
Fe287 O296 1.935 . S
Fe287 O298 2.077 . S
Fe287 O306 1.935 . S
C288 O300 1.381 . S
C288 O301 1.421 . S
O289 Fe280 2.077 . S
O289 C302 1.381 . S
O290 Fe283 1.935 1_556 S
O290 C302 1.421 . S
O291 Fe287 2.077 . S
O291 C307 1.381 . S
O292 Fe282 1.935 . S
O292 C307 1.421 . S
O293 Fe282 2.077 1_556 S
O293 C297 1.381 . S
O294 Fe280 1.935 . S
O294 C297 1.421 . S
O295 Fe283 2.077 . S
O295 C303 1.381 . S
O296 Fe287 1.935 . S
O296 C303 1.421 . S
C297 O293 1.381 . S
C297 O294 1.421 . S
O298 Fe287 2.077 . S
O298 C310 1.381 . S
O299 Fe282 1.935 . S
O299 C310 1.421 . S
O300 Fe280 2.077 . S
O300 C288 1.381 . S
O301 Fe283 1.935 1_556 S
O301 C288 1.421 . S
C302 O289 1.381 . S
C302 O290 1.421 . S
C303 O295 1.381 . S
C303 O296 1.421 . S
C304 O305 1.381 . S
C304 O306 1.421 . S
O305 Fe283 2.077 . S
O305 C304 1.381 . S
O306 Fe287 1.935 . S
O306 C304 1.421 . S
C307 O291 1.381 . S
C307 O292 1.421 . S
O308 Fe282 2.077 1_556 S
O308 C311 1.381 . S
O309 Fe280 1.935 . S
O309 C311 1.421 . S
C310 O298 1.381 . S
C310 O299 1.421 . S
C311 O308 1.381 . S
C311 O309 1.421 . S
Fe312 O313 1.886 . S
Fe312 O316 1.715 . S
Fe312 O321 2.077 . S
Fe312 O326 1.935 . S
Fe312 O332 2.077 1_455 S
Fe312 O341 1.935 1_455 S
O313 Fe312 1.886 . S
O313 Fe315 1.715 . S
Fe314 O316 1.886 . S
Fe314 O317 1.715 . S
Fe314 O324 1.935 . S
Fe314 O325 2.077 . S
Fe314 O331 1.935 1_455 S
Fe314 O340 2.077 1_455 S
Fe315 O313 1.715 . S
Fe315 O318 1.886 . S
Fe315 O322 1.935 . S
Fe315 O327 2.077 . S
Fe315 O333 1.935 1_455 S
Fe315 O337 2.077 1_455 S
O316 Fe312 1.715 . S
O316 Fe314 1.886 . S
O317 Fe314 1.715 . S
O317 Fe319 1.886 . S
O318 Fe315 1.886 . S
O318 Fe319 1.715 . S
Fe319 O317 1.886 . S
Fe319 O318 1.715 . S
Fe319 O323 2.077 . S
Fe319 O328 1.935 . S
Fe319 O330 2.077 1_455 S
Fe319 O338 1.935 1_455 S
C320 O332 1.381 . S
C320 O333 1.421 . S
O321 Fe312 2.077 . S
O321 C334 1.381 . S
O322 Fe315 1.935 . S
O322 C334 1.421 . S
O323 Fe319 2.077 . S
O323 C339 1.381 . S
O324 Fe314 1.935 . S
O324 C339 1.421 . S
O325 Fe314 2.077 . S
O325 C329 1.381 . S
O326 Fe312 1.935 . S
O326 C329 1.421 . S
O327 Fe315 2.077 . S
O327 C335 1.381 . S
O328 Fe319 1.935 . S
O328 C335 1.421 . S
C329 O325 1.381 . S
C329 O326 1.421 . S
O330 Fe319 2.077 1_655 S
O330 C342 1.381 . S
O331 Fe314 1.935 1_655 S
O331 C342 1.421 . S
O332 Fe312 2.077 1_655 S
O332 C320 1.381 . S
O333 Fe315 1.935 1_655 S
O333 C320 1.421 . S
C334 O321 1.381 . S
C334 O322 1.421 . S
C335 O327 1.381 . S
C335 O328 1.421 . S
C336 O337 1.381 . S
C336 O338 1.421 . S
O337 Fe315 2.077 1_655 S
O337 C336 1.381 . S
O338 Fe319 1.935 1_655 S
O338 C336 1.421 . S
C339 O323 1.381 . S
C339 O324 1.421 . S
O340 Fe314 2.077 1_655 S
O340 C343 1.381 . S
O341 Fe312 1.935 1_655 S
O341 C343 1.421 . S
C342 O330 1.381 . S
C342 O331 1.421 . S
C343 O340 1.381 . S
C343 O341 1.421 . S
Fe344 O345 1.886 . S
Fe344 O348 1.715 . S
Fe344 O353 2.077 . S
Fe344 O358 1.935 . S
Fe344 O364 2.077 . S
Fe344 O373 1.935 . S
O345 Fe344 1.886 . S
O345 Fe347 1.715 1_565 S
Fe346 O348 1.886 1_545 S
Fe346 O349 1.715 . S
Fe346 O356 1.935 . S
Fe346 O357 2.077 1_545 S
Fe346 O363 1.935 . S
Fe346 O372 2.077 1_545 S
Fe347 O345 1.715 1_545 S
Fe347 O350 1.886 . S
Fe347 O354 1.935 1_545 S
Fe347 O359 2.077 . S
Fe347 O365 1.935 1_545 S
Fe347 O369 2.077 . S
O348 Fe344 1.715 . S
O348 Fe346 1.886 1_565 S
O349 Fe346 1.715 . S
O349 Fe351 1.886 . S
O350 Fe347 1.886 . S
O350 Fe351 1.715 . S
Fe351 O349 1.886 . S
Fe351 O350 1.715 . S
Fe351 O355 2.077 . S
Fe351 O360 1.935 . S
Fe351 O362 2.077 . S
Fe351 O370 1.935 . S
C352 O364 1.381 . S
C352 O365 1.421 . S
O353 Fe344 2.077 . S
O353 C366 1.381 . S
O354 Fe347 1.935 1_565 S
O354 C366 1.421 . S
O355 Fe351 2.077 . S
O355 C371 1.381 . S
O356 Fe346 1.935 . S
O356 C371 1.421 . S
O357 Fe346 2.077 1_565 S
O357 C361 1.381 . S
O358 Fe344 1.935 . S
O358 C361 1.421 . S
O359 Fe347 2.077 . S
O359 C367 1.381 . S
O360 Fe351 1.935 . S
O360 C367 1.421 . S
C361 O357 1.381 . S
C361 O358 1.421 . S
O362 Fe351 2.077 . S
O362 C374 1.381 . S
O363 Fe346 1.935 . S
O363 C374 1.421 . S
O364 Fe344 2.077 . S
O364 C352 1.381 . S
O365 Fe347 1.935 1_565 S
O365 C352 1.421 . S
C366 O353 1.381 . S
C366 O354 1.421 . S
C367 O359 1.381 . S
C367 O360 1.421 . S
C368 O369 1.381 . S
C368 O370 1.421 . S
O369 Fe347 2.077 . S
O369 C368 1.381 . S
O370 Fe351 1.935 . S
O370 C368 1.421 . S
C371 O355 1.381 . S
C371 O356 1.421 . S
O372 Fe346 2.077 1_565 S
O372 C375 1.381 . S
O373 Fe344 1.935 . S
O373 C375 1.421 . S
C374 O362 1.381 . S
C374 O363 1.421 . S
C375 O372 1.381 . S
C375 O373 1.421 . S
C376 C377 1.363 . S
C376 C382 1.379 . S
C376 N384 1.356 . S
C377 C376 1.363 . S
C377 C383 1.363 . S
C378 C379 1.363 . S
C378 C383 1.379 . S
C378 N385 1.356 . S
C379 C378 1.363 . S
C379 C382 1.363 . S
N380 C382 1.356 . S
N380 H392 0.984 . S
N380 H393 0.985 . S
N381 C383 1.356 . S
N381 H386 0.984 . S
N381 H387 0.985 . S
C382 C376 1.379 . S
C382 C379 1.363 . S
C382 N380 1.356 . S
C383 C377 1.363 . S
C383 C378 1.379 . S
C383 N381 1.356 . S
N384 C376 1.356 . S
N384 H390 0.984 . S
N384 H391 0.984 . S
N385 C378 1.356 . S
N385 H388 0.984 . S
N385 H389 0.985 . S
H386 N381 0.984 . S
H387 N381 0.985 . S
H388 N385 0.984 . S
H389 N385 0.985 . S
H390 N384 0.984 . S
H391 N384 0.984 . S
H392 N380 0.984 . S
H393 N380 0.985 . S
C394 C395 1.363 . S
C394 C400 1.379 . S
C394 N402 1.356 . S
C395 C394 1.363 . S
C395 C401 1.363 . S
C396 C397 1.363 . S
C396 C401 1.379 . S
C396 N403 1.356 . S
C397 C396 1.363 . S
C397 C400 1.363 . S
N398 C400 1.356 . S
N398 H410 0.984 . S
N398 H411 0.985 . S
N399 C401 1.356 . S
N399 H404 0.984 . S
N399 H405 0.985 . S
C400 C394 1.379 . S
C400 C397 1.363 . S
C400 N398 1.356 . S
C401 C395 1.363 . S
C401 C396 1.379 . S
C401 N399 1.356 . S
N402 C394 1.356 . S
N402 H408 0.984 . S
N402 H409 0.984 . S
N403 C396 1.356 . S
N403 H406 0.984 . S
N403 H407 0.985 . S
H404 N399 0.984 . S
H405 N399 0.985 . S
H406 N403 0.984 . S
H407 N403 0.985 . S
H408 N402 0.984 . S
H409 N402 0.984 . S
H410 N398 0.984 . S
H411 N398 0.985 . S
C412 C413 1.363 . S
C412 C418 1.379 . S
C412 N420 1.356 . S
C413 C412 1.363 . S
C413 C419 1.363 . S
C414 C415 1.363 . S
C414 C419 1.379 . S
C414 N421 1.356 . S
C415 C414 1.363 . S
C415 C418 1.363 . S
N416 C418 1.356 . S
N416 H428 0.984 . S
N416 H429 0.985 . S
N417 C419 1.356 . S
N417 H422 0.984 . S
N417 H423 0.985 . S
C418 C412 1.379 . S
C418 C415 1.363 . S
C418 N416 1.356 . S
C419 C413 1.363 . S
C419 C414 1.379 . S
C419 N417 1.356 . S
N420 C412 1.356 . S
N420 H426 0.984 . S
N420 H427 0.984 . S
N421 C414 1.356 . S
N421 H424 0.984 . S
N421 H425 0.985 . S
H422 N417 0.984 . S
H423 N417 0.985 . S
H424 N421 0.984 . S
H425 N421 0.985 . S
H426 N420 0.984 . S
H427 N420 0.984 . S
H428 N416 0.984 . S
H429 N416 0.985 . S
C430 C431 1.363 . S
C430 C436 1.379 . S
C430 N438 1.356 . S
C431 C430 1.363 . S
C431 C437 1.363 . S
C432 C433 1.363 . S
C432 C437 1.379 . S
C432 N439 1.356 . S
C433 C432 1.363 . S
C433 C436 1.363 . S
N434 C436 1.356 . S
N434 H446 0.984 1_565 S
N434 H447 0.985 . S
N435 C437 1.356 . S
N435 H440 0.984 . S
N435 H441 0.985 . S
C436 C430 1.379 . S
C436 C433 1.363 . S
C436 N434 1.356 . S
C437 C431 1.363 . S
C437 C432 1.379 . S
C437 N435 1.356 . S
N438 C430 1.356 . S
N438 H444 0.984 . S
N438 H445 0.984 . S
N439 C432 1.356 . S
N439 H442 0.984 . S
N439 H443 0.985 . S
H440 N435 0.984 . S
H441 N435 0.985 . S
H442 N439 0.984 . S
H443 N439 0.985 . S
H444 N438 0.984 . S
H445 N438 0.984 . S
H446 N434 0.984 1_545 S
H447 N434 0.985 . S
C448 C449 1.363 . S
C448 C454 1.379 . S
C448 N456 1.356 . S
C449 C448 1.363 . S
C449 C455 1.363 . S
C450 C451 1.363 . S
C450 C455 1.379 . S
C450 N457 1.356 . S
C451 C450 1.363 . S
C451 C454 1.363 . S
N452 C454 1.356 . S
N452 H464 0.984 . S
N452 H465 0.985 . S
N453 C455 1.356 . S
N453 H458 0.984 . S
N453 H459 0.985 . S
C454 C448 1.379 . S
C454 C451 1.363 . S
C454 N452 1.356 . S
C455 C449 1.363 . S
C455 C450 1.379 . S
C455 N453 1.356 . S
N456 C448 1.356 . S
N456 H462 0.984 . S
N456 H463 0.984 . S
N457 C450 1.356 . S
N457 H460 0.984 . S
N457 H461 0.985 . S
H458 N453 0.984 . S
H459 N453 0.985 . S
H460 N457 0.984 . S
H461 N457 0.985 . S
H462 N456 0.984 . S
H463 N456 0.984 . S
H464 N452 0.984 . S
H465 N452 0.985 . S
C466 C467 1.363 . S
C466 C472 1.379 . S
C466 N474 1.356 . S
C467 C466 1.363 . S
C467 C473 1.363 . S
C468 C469 1.363 . S
C468 C473 1.379 . S
C468 N475 1.356 . S
C469 C468 1.363 . S
C469 C472 1.363 . S
N470 C472 1.356 . S
N470 H482 0.984 . S
N470 H483 0.985 . S
N471 C473 1.356 . S
N471 H476 0.984 . S
N471 H477 0.985 . S
C472 C466 1.379 . S
C472 C469 1.363 . S
C472 N470 1.356 . S
C473 C467 1.363 . S
C473 C468 1.379 . S
C473 N471 1.356 . S
N474 C466 1.356 . S
N474 H480 0.984 . S
N474 H481 0.984 . S
N475 C468 1.356 . S
N475 H478 0.984 . S
N475 H479 0.985 . S
H476 N471 0.984 . S
H477 N471 0.985 . S
H478 N475 0.984 . S
H479 N475 0.985 . S
H480 N474 0.984 . S
H481 N474 0.984 . S
H482 N470 0.984 . S
H483 N470 0.985 . S
C484 C485 1.363 . S
C484 C490 1.379 . S
C484 N492 1.356 . S
C485 C484 1.363 . S
C485 C491 1.363 . S
C486 C487 1.363 . S
C486 C491 1.379 . S
C486 N493 1.356 . S
C487 C486 1.363 . S
C487 C490 1.363 . S
N488 C490 1.356 . S
N488 H500 0.984 . S
N488 H501 0.985 . S
N489 C491 1.356 . S
N489 H494 0.984 . S
N489 H495 0.985 . S
C490 C484 1.379 . S
C490 C487 1.363 . S
C490 N488 1.356 . S
C491 C485 1.363 . S
C491 C486 1.379 . S
C491 N489 1.356 . S
N492 C484 1.356 . S
N492 H498 0.984 . S
N492 H499 0.984 . S
N493 C486 1.356 . S
N493 H496 0.984 . S
N493 H497 0.985 . S
H494 N489 0.984 . S
H495 N489 0.985 . S
H496 N493 0.984 . S
H497 N493 0.985 . S
H498 N492 0.984 . S
H499 N492 0.984 . S
H500 N488 0.984 . S
H501 N488 0.985 . S
C502 C503 1.363 . S
C502 C508 1.379 . S
C502 N510 1.356 . S
C503 C502 1.363 . S
C503 C509 1.363 . S
C504 C505 1.363 . S
C504 C509 1.379 . S
C504 N511 1.356 . S
C505 C504 1.363 . S
C505 C508 1.363 . S
N506 C508 1.356 . S
N506 H518 0.984 1_565 S
N506 H519 0.985 . S
N507 C509 1.356 . S
N507 H512 0.984 . S
N507 H513 0.985 . S
C508 C502 1.379 . S
C508 C505 1.363 . S
C508 N506 1.356 . S
C509 C503 1.363 . S
C509 C504 1.379 . S
C509 N507 1.356 . S
N510 C502 1.356 . S
N510 H516 0.984 . S
N510 H517 0.984 . S
N511 C504 1.356 . S
N511 H514 0.984 . S
N511 H515 0.985 . S
H512 N507 0.984 . S
H513 N507 0.985 . S
H514 N511 0.984 . S
H515 N511 0.985 . S
H516 N510 0.984 . S
H517 N510 0.984 . S
H518 N506 0.984 1_545 S
H519 N506 0.985 . S
C520 C521 1.363 . S
C520 C526 1.379 . S
C520 N528 1.356 . S
C521 C520 1.363 . S
C521 C527 1.363 . S
C522 C523 1.363 . S
C522 C527 1.379 . S
C522 N529 1.356 . S
C523 C522 1.363 . S
C523 C526 1.363 . S
N524 C526 1.356 . S
N524 H536 0.984 . S
N524 H537 0.985 . S
N525 C527 1.356 . S
N525 H530 0.984 . S
N525 H531 0.985 . S
C526 C520 1.379 . S
C526 C523 1.363 . S
C526 N524 1.356 . S
C527 C521 1.363 . S
C527 C522 1.379 . S
C527 N525 1.356 . S
N528 C520 1.356 . S
N528 H534 0.984 . S
N528 H535 0.984 . S
N529 C522 1.356 . S
N529 H532 0.984 . S
N529 H533 0.985 . S
H530 N525 0.984 . S
H531 N525 0.985 . S
H532 N529 0.984 . S
H533 N529 0.985 . S
H534 N528 0.984 . S
H535 N528 0.984 . S
H536 N524 0.984 . S
H537 N524 0.985 . S
C538 C539 1.363 . S
C538 C544 1.379 . S
C538 N546 1.356 . S
C539 C538 1.363 . S
C539 C545 1.363 . S
C540 C541 1.363 . S
C540 C545 1.379 . S
C540 N547 1.356 . S
C541 C540 1.363 . S
C541 C544 1.363 . S
N542 C544 1.356 . S
N542 H554 0.984 . S
N542 H555 0.985 . S
N543 C545 1.356 . S
N543 H548 0.984 . S
N543 H549 0.985 . S
C544 C538 1.379 . S
C544 C541 1.363 . S
C544 N542 1.356 . S
C545 C539 1.363 . S
C545 C540 1.379 . S
C545 N543 1.356 . S
N546 C538 1.356 . S
N546 H552 0.984 . S
N546 H553 0.984 . S
N547 C540 1.356 . S
N547 H550 0.984 . S
N547 H551 0.985 . S
H548 N543 0.984 . S
H549 N543 0.985 . S
H550 N547 0.984 . S
H551 N547 0.985 . S
H552 N546 0.984 . S
H553 N546 0.984 . S
H554 N542 0.984 . S
H555 N542 0.985 . S
C556 C557 1.363 . S
C556 C562 1.379 . S
C556 N564 1.356 . S
C557 C556 1.363 . S
C557 C563 1.363 . S
C558 C559 1.363 . S
C558 C563 1.379 . S
C558 N565 1.356 . S
C559 C558 1.363 . S
C559 C562 1.363 . S
N560 C562 1.356 . S
N560 H572 0.984 . S
N560 H573 0.985 . S
N561 C563 1.356 . S
N561 H566 0.984 . S
N561 H567 0.985 . S
C562 C556 1.379 . S
C562 C559 1.363 . S
C562 N560 1.356 . S
C563 C557 1.363 . S
C563 C558 1.379 . S
C563 N561 1.356 . S
N564 C556 1.356 . S
N564 H570 0.984 . S
N564 H571 0.984 . S
N565 C558 1.356 . S
N565 H568 0.984 . S
N565 H569 0.985 . S
H566 N561 0.984 . S
H567 N561 0.985 . S
H568 N565 0.984 . S
H569 N565 0.985 . S
H570 N564 0.984 . S
H571 N564 0.984 . S
H572 N560 0.984 . S
H573 N560 0.985 . S
C574 C575 1.363 . S
C574 C580 1.379 . S
C574 N582 1.356 . S
C575 C574 1.363 . S
C575 C581 1.363 . S
C576 C577 1.363 . S
C576 C581 1.379 . S
C576 N583 1.356 . S
C577 C576 1.363 . S
C577 C580 1.363 . S
N578 C580 1.356 . S
N578 H590 0.984 . S
N578 H591 0.985 . S
N579 C581 1.356 . S
N579 H584 0.984 . S
N579 H585 0.985 . S
C580 C574 1.379 . S
C580 C577 1.363 . S
C580 N578 1.356 . S
C581 C575 1.363 . S
C581 C576 1.379 . S
C581 N579 1.356 . S
N582 C574 1.356 . S
N582 H588 0.984 . S
N582 H589 0.984 . S
N583 C576 1.356 . S
N583 H586 0.984 . S
N583 H587 0.985 . S
H584 N579 0.984 . S
H585 N579 0.985 . S
H586 N583 0.984 . S
H587 N583 0.985 . S
H588 N582 0.984 . S
H589 N582 0.984 . S
H590 N578 0.984 . S
H591 N578 0.985 . S
C592 C593 1.363 . S
C592 C598 1.379 . S
C592 N600 1.356 . S
C593 C592 1.363 . S
C593 C599 1.363 . S
C594 C595 1.363 . S
C594 C599 1.379 . S
C594 N601 1.356 . S
C595 C594 1.363 . S
C595 C598 1.363 . S
N596 C598 1.356 . S
N596 H608 0.984 . S
N596 H609 0.985 . S
N597 C599 1.356 . S
N597 H602 0.984 . S
N597 H603 0.985 . S
C598 C592 1.379 . S
C598 C595 1.363 . S
C598 N596 1.356 . S
C599 C593 1.363 . S
C599 C594 1.379 . S
C599 N597 1.356 . S
N600 C592 1.356 . S
N600 H606 0.984 . S
N600 H607 0.984 . S
N601 C594 1.356 . S
N601 H604 0.984 . S
N601 H605 0.985 . S
H602 N597 0.984 . S
H603 N597 0.985 . S
H604 N601 0.984 . S
H605 N601 0.985 . S
H606 N600 0.984 . S
H607 N600 0.984 . S
H608 N596 0.984 . S
H609 N596 0.985 . S
C610 C611 1.363 . S
C610 C616 1.379 . S
C610 N618 1.356 . S
C611 C610 1.363 . S
C611 C617 1.363 . S
C612 C613 1.363 . S
C612 C617 1.379 . S
C612 N619 1.356 . S
C613 C612 1.363 . S
C613 C616 1.363 . S
N614 C616 1.356 . S
N614 H626 0.984 . S
N614 H627 0.985 . S
N615 C617 1.356 . S
N615 H620 0.984 . S
N615 H621 0.985 . S
C616 C610 1.379 . S
C616 C613 1.363 . S
C616 N614 1.356 . S
C617 C611 1.363 . S
C617 C612 1.379 . S
C617 N615 1.356 . S
N618 C610 1.356 . S
N618 H624 0.984 . S
N618 H625 0.984 . S
N619 C612 1.356 . S
N619 H622 0.984 . S
N619 H623 0.985 . S
H620 N615 0.984 . S
H621 N615 0.985 . S
H622 N619 0.984 . S
H623 N619 0.985 . S
H624 N618 0.984 . S
H625 N618 0.984 . S
H626 N614 0.984 . S
H627 N614 0.985 . S
C628 C629 1.363 . S
C628 C634 1.379 . S
C628 N636 1.356 . S
C629 C628 1.363 . S
C629 C635 1.363 . S
C630 C631 1.363 . S
C630 C635 1.379 . S
C630 N637 1.356 . S
C631 C630 1.363 . S
C631 C634 1.363 . S
N632 C634 1.356 . S
N632 H644 0.984 . S
N632 H645 0.985 . S
N633 C635 1.356 . S
N633 H638 0.984 . S
N633 H639 0.985 . S
C634 C628 1.379 . S
C634 C631 1.363 . S
C634 N632 1.356 . S
C635 C629 1.363 . S
C635 C630 1.379 . S
C635 N633 1.356 . S
N636 C628 1.356 . S
N636 H642 0.984 . S
N636 H643 0.984 . S
N637 C630 1.356 . S
N637 H640 0.984 . S
N637 H641 0.985 . S
H638 N633 0.984 . S
H639 N633 0.985 . S
H640 N637 0.984 . S
H641 N637 0.985 . S
H642 N636 0.984 . S
H643 N636 0.984 . S
H644 N632 0.984 . S
H645 N632 0.985 . S
C646 C647 1.363 . S
C646 C652 1.379 . S
C646 N654 1.356 . S
C647 C646 1.363 . S
C647 C653 1.363 . S
C648 C649 1.363 . S
C648 C653 1.379 . S
C648 N655 1.356 . S
C649 C648 1.363 . S
C649 C652 1.363 . S
N650 C652 1.356 . S
N650 H662 0.984 . S
N650 H663 0.985 . S
N651 C653 1.356 . S
N651 H656 0.984 . S
N651 H657 0.985 . S
C652 C646 1.379 . S
C652 C649 1.363 . S
C652 N650 1.356 . S
C653 C647 1.363 . S
C653 C648 1.379 . S
C653 N651 1.356 . S
N654 C646 1.356 . S
N654 H660 0.984 . S
N654 H661 0.984 . S
N655 C648 1.356 . S
N655 H658 0.984 . S
N655 H659 0.985 . S
H656 N651 0.984 . S
H657 N651 0.985 . S
H658 N655 0.984 . S
H659 N655 0.985 . S
H660 N654 0.984 . S
H661 N654 0.984 . S
H662 N650 0.984 . S
H663 N650 0.985 . S
C664 C665 1.363 . S
C664 C670 1.379 . S
C664 N672 1.356 . S
C665 C664 1.363 . S
C665 C671 1.363 . S
C666 C667 1.363 . S
C666 C671 1.379 . S
C666 N673 1.356 . S
C667 C666 1.363 . S
C667 C670 1.363 . S
N668 C670 1.356 . S
N668 H680 0.984 . S
N668 H681 0.985 . S
N669 C671 1.356 . S
N669 H674 0.984 . S
N669 H675 0.985 . S
C670 C664 1.379 . S
C670 C667 1.363 . S
C670 N668 1.356 . S
C671 C665 1.363 . S
C671 C666 1.379 . S
C671 N669 1.356 . S
N672 C664 1.356 . S
N672 H678 0.984 . S
N672 H679 0.984 . S
N673 C666 1.356 . S
N673 H676 0.984 . S
N673 H677 0.985 . S
H674 N669 0.984 . S
H675 N669 0.985 . S
H676 N673 0.984 . S
H677 N673 0.985 . S
H678 N672 0.984 . S
H679 N672 0.984 . S
H680 N668 0.984 . S
H681 N668 0.985 . S
C682 C683 1.363 . S
C682 C688 1.379 . S
C682 N690 1.356 . S
C683 C682 1.363 . S
C683 C689 1.363 . S
C684 C685 1.363 . S
C684 C689 1.379 . S
C684 N691 1.356 . S
C685 C684 1.363 . S
C685 C688 1.363 . S
N686 C688 1.356 . S
N686 H698 0.984 . S
N686 H699 0.985 . S
N687 C689 1.356 . S
N687 H692 0.984 . S
N687 H693 0.985 . S
C688 C682 1.379 . S
C688 C685 1.363 . S
C688 N686 1.356 . S
C689 C683 1.363 . S
C689 C684 1.379 . S
C689 N687 1.356 . S
N690 C682 1.356 . S
N690 H696 0.984 . S
N690 H697 0.984 . S
N691 C684 1.356 . S
N691 H694 0.984 . S
N691 H695 0.985 . S
H692 N687 0.984 . S
H693 N687 0.985 . S
H694 N691 0.984 . S
H695 N691 0.985 . S
H696 N690 0.984 . S
H697 N690 0.984 . S
H698 N686 0.984 . S
H699 N686 0.985 . S
C700 C701 1.363 . S
C700 C706 1.379 . S
C700 N708 1.356 . S
C701 C700 1.363 . S
C701 C707 1.363 . S
C702 C703 1.363 . S
C702 C707 1.379 . S
C702 N709 1.356 . S
C703 C702 1.363 . S
C703 C706 1.363 . S
N704 C706 1.356 . S
N704 H716 0.984 . S
N704 H717 0.985 . S
N705 C707 1.356 . S
N705 H710 0.984 . S
N705 H711 0.985 . S
C706 C700 1.379 . S
C706 C703 1.363 . S
C706 N704 1.356 . S
C707 C701 1.363 . S
C707 C702 1.379 . S
C707 N705 1.356 . S
N708 C700 1.356 . S
N708 H714 0.984 . S
N708 H715 0.984 . S
N709 C702 1.356 . S
N709 H712 0.984 . S
N709 H713 0.985 . S
H710 N705 0.984 . S
H711 N705 0.985 . S
H712 N709 0.984 . S
H713 N709 0.985 . S
H714 N708 0.984 . S
H715 N708 0.984 . S
H716 N704 0.984 . S
H717 N704 0.985 . S
C718 C719 1.363 . S
C718 C724 1.379 . S
C718 N726 1.356 . S
C719 C718 1.363 . S
C719 C725 1.363 . S
C720 C721 1.363 . S
C720 C725 1.379 . S
C720 N727 1.356 . S
C721 C720 1.363 . S
C721 C724 1.363 . S
N722 C724 1.356 . S
N722 H734 0.984 . S
N722 H735 0.985 . S
N723 C725 1.356 . S
N723 H728 0.984 . S
N723 H729 0.985 . S
C724 C718 1.379 . S
C724 C721 1.363 . S
C724 N722 1.356 . S
C725 C719 1.363 . S
C725 C720 1.379 . S
C725 N723 1.356 . S
N726 C718 1.356 . S
N726 H732 0.984 . S
N726 H733 0.984 . S
N727 C720 1.356 . S
N727 H730 0.984 . S
N727 H731 0.985 1_556 S
H728 N723 0.984 . S
H729 N723 0.985 . S
H730 N727 0.984 . S
H731 N727 0.985 1_554 S
H732 N726 0.984 . S
H733 N726 0.984 . S
H734 N722 0.984 . S
H735 N722 0.985 . S
C736 C737 1.363 . S
C736 C742 1.379 . S
C736 N744 1.356 . S
C737 C736 1.363 . S
C737 C743 1.363 . S
C738 C739 1.363 . S
C738 C743 1.379 . S
C738 N745 1.356 . S
C739 C738 1.363 . S
C739 C742 1.363 . S
N740 C742 1.356 . S
N740 H752 0.984 . S
N740 H753 0.985 . S
N741 C743 1.356 . S
N741 H746 0.984 . S
N741 H747 0.985 . S
C742 C736 1.379 . S
C742 C739 1.363 . S
C742 N740 1.356 . S
C743 C737 1.363 . S
C743 C738 1.379 . S
C743 N741 1.356 . S
N744 C736 1.356 . S
N744 H750 0.984 . S
N744 H751 0.984 . S
N745 C738 1.356 . S
N745 H748 0.984 . S
N745 H749 0.985 . S
H746 N741 0.984 . S
H747 N741 0.985 . S
H748 N745 0.984 . S
H749 N745 0.985 . S
H750 N744 0.984 . S
H751 N744 0.984 . S
H752 N740 0.984 . S
H753 N740 0.985 . S
C754 C755 1.363 . S
C754 C760 1.379 . S
C754 N762 1.356 . S
C755 C754 1.363 . S
C755 C761 1.363 . S
C756 C757 1.363 . S
C756 C761 1.379 . S
C756 N763 1.356 . S
C757 C756 1.363 . S
C757 C760 1.363 . S
N758 C760 1.356 . S
N758 H770 0.984 . S
N758 H771 0.985 . S
N759 C761 1.356 . S
N759 H764 0.984 . S
N759 H765 0.985 . S
C760 C754 1.379 . S
C760 C757 1.363 . S
C760 N758 1.356 . S
C761 C755 1.363 . S
C761 C756 1.379 . S
C761 N759 1.356 . S
N762 C754 1.356 . S
N762 H768 0.984 . S
N762 H769 0.984 . S
N763 C756 1.356 . S
N763 H766 0.984 . S
N763 H767 0.985 . S
H764 N759 0.984 . S
H765 N759 0.985 . S
H766 N763 0.984 . S
H767 N763 0.985 . S
H768 N762 0.984 . S
H769 N762 0.984 . S
H770 N758 0.984 . S
H771 N758 0.985 . S
C772 C773 1.363 . S
C772 C778 1.379 . S
C772 N780 1.356 . S
C773 C772 1.363 . S
C773 C779 1.363 . S
C774 C775 1.363 . S
C774 C779 1.379 . S
C774 N781 1.356 . S
C775 C774 1.363 . S
C775 C778 1.363 . S
N776 C778 1.356 . S
N776 H788 0.984 . S
N776 H789 0.985 . S
N777 C779 1.356 . S
N777 H782 0.984 . S
N777 H783 0.985 . S
C778 C772 1.379 . S
C778 C775 1.363 . S
C778 N776 1.356 . S
C779 C773 1.363 . S
C779 C774 1.379 . S
C779 N777 1.356 . S
N780 C772 1.356 . S
N780 H786 0.984 . S
N780 H787 0.984 . S
N781 C774 1.356 . S
N781 H784 0.984 . S
N781 H785 0.985 . S
H782 N777 0.984 . S
H783 N777 0.985 . S
H784 N781 0.984 . S
H785 N781 0.985 . S
H786 N780 0.984 . S
H787 N780 0.984 . S
H788 N776 0.984 . S
H789 N776 0.985 . S
C790 C791 1.363 . S
C790 C796 1.379 . S
C790 N798 1.356 . S
C791 C790 1.363 . S
C791 C797 1.363 . S
C792 C793 1.363 . S
C792 C797 1.379 . S
C792 N799 1.356 . S
C793 C792 1.363 . S
C793 C796 1.363 . S
N794 C796 1.356 . S
N794 H806 0.984 . S
N794 H807 0.985 . S
N795 C797 1.356 . S
N795 H800 0.984 . S
N795 H801 0.985 . S
C796 C790 1.379 . S
C796 C793 1.363 . S
C796 N794 1.356 . S
C797 C791 1.363 . S
C797 C792 1.379 . S
C797 N795 1.356 . S
N798 C790 1.356 . S
N798 H804 0.984 . S
N798 H805 0.984 . S
N799 C792 1.356 . S
N799 H802 0.984 . S
N799 H803 0.985 . S
H800 N795 0.984 . S
H801 N795 0.985 . S
H802 N799 0.984 . S
H803 N799 0.985 . S
H804 N798 0.984 . S
H805 N798 0.984 . S
H806 N794 0.984 . S
H807 N794 0.985 . S
C808 C809 1.363 . S
C808 C814 1.379 . S
C808 N816 1.356 . S
C809 C808 1.363 . S
C809 C815 1.363 . S
C810 C811 1.363 . S
C810 C815 1.379 . S
C810 N817 1.356 . S
C811 C810 1.363 . S
C811 C814 1.363 . S
N812 C814 1.356 . S
N812 H824 0.984 . S
N812 H825 0.985 . S
N813 C815 1.356 . S
N813 H818 0.984 . S
N813 H819 0.985 . S
C814 C808 1.379 . S
C814 C811 1.363 . S
C814 N812 1.356 . S
C815 C809 1.363 . S
C815 C810 1.379 . S
C815 N813 1.356 . S
N816 C808 1.356 . S
N816 H822 0.984 . S
N816 H823 0.984 . S
N817 C810 1.356 . S
N817 H820 0.984 . S
N817 H821 0.985 . S
H818 N813 0.984 . S
H819 N813 0.985 . S
H820 N817 0.984 . S
H821 N817 0.985 . S
H822 N816 0.984 . S
H823 N816 0.984 . S
H824 N812 0.984 . S
H825 N812 0.985 . S
C826 C827 1.363 . S
C826 C832 1.379 . S
C826 N834 1.356 . S
C827 C826 1.363 . S
C827 C833 1.363 . S
C828 C829 1.363 . S
C828 C833 1.379 . S
C828 N835 1.356 . S
C829 C828 1.363 . S
C829 C832 1.363 . S
N830 C832 1.356 . S
N830 H842 0.984 . S
N830 H843 0.985 . S
N831 C833 1.356 . S
N831 H836 0.984 . S
N831 H837 0.985 . S
C832 C826 1.379 . S
C832 C829 1.363 . S
C832 N830 1.356 . S
C833 C827 1.363 . S
C833 C828 1.379 . S
C833 N831 1.356 . S
N834 C826 1.356 . S
N834 H840 0.984 . S
N834 H841 0.984 . S
N835 C828 1.356 . S
N835 H838 0.984 . S
N835 H839 0.985 . S
H836 N831 0.984 . S
H837 N831 0.985 . S
H838 N835 0.984 . S
H839 N835 0.985 . S
H840 N834 0.984 . S
H841 N834 0.984 . S
H842 N830 0.984 . S
H843 N830 0.985 . S
C844 C845 1.363 . S
C844 C850 1.379 . S
C844 N852 1.356 . S
C845 C844 1.363 . S
C845 C851 1.363 . S
C846 C847 1.363 . S
C846 C851 1.379 . S
C846 N853 1.356 . S
C847 C846 1.363 . S
C847 C850 1.363 . S
N848 C850 1.356 . S
N848 H860 0.984 . S
N848 H861 0.985 . S
N849 C851 1.356 . S
N849 H854 0.984 . S
N849 H855 0.985 . S
C850 C844 1.379 . S
C850 C847 1.363 . S
C850 N848 1.356 . S
C851 C845 1.363 . S
C851 C846 1.379 . S
C851 N849 1.356 . S
N852 C844 1.356 . S
N852 H858 0.984 . S
N852 H859 0.984 . S
N853 C846 1.356 . S
N853 H856 0.984 . S
N853 H857 0.985 . S
H854 N849 0.984 . S
H855 N849 0.985 . S
H856 N853 0.984 . S
H857 N853 0.985 . S
H858 N852 0.984 . S
H859 N852 0.984 . S
H860 N848 0.984 . S
H861 N848 0.985 . S
C862 C863 1.363 . S
C862 C868 1.379 . S
C862 N870 1.356 . S
C863 C862 1.363 . S
C863 C869 1.363 . S
C864 C865 1.363 . S
C864 C869 1.379 . S
C864 N871 1.356 . S
C865 C864 1.363 . S
C865 C868 1.363 . S
N866 C868 1.356 . S
N866 H878 0.984 . S
N866 H879 0.985 . S
N867 C869 1.356 . S
N867 H872 0.984 . S
N867 H873 0.985 . S
C868 C862 1.379 . S
C868 C865 1.363 . S
C868 N866 1.356 . S
C869 C863 1.363 . S
C869 C864 1.379 . S
C869 N867 1.356 . S
N870 C862 1.356 . S
N870 H876 0.984 . S
N870 H877 0.984 . S
N871 C864 1.356 . S
N871 H874 0.984 . S
N871 H875 0.985 . S
H872 N867 0.984 . S
H873 N867 0.985 . S
H874 N871 0.984 . S
H875 N871 0.985 . S
H876 N870 0.984 . S
H877 N870 0.984 . S
H878 N866 0.984 . S
H879 N866 0.985 . S
C880 C881 1.363 . S
C880 C886 1.379 . S
C880 N888 1.356 . S
C881 C880 1.363 . S
C881 C887 1.363 . S
C882 C883 1.363 . S
C882 C887 1.379 . S
C882 N889 1.356 . S
C883 C882 1.363 . S
C883 C886 1.363 . S
N884 C886 1.356 . S
N884 H896 0.984 . S
N884 H897 0.985 . S
N885 C887 1.356 . S
N885 H890 0.984 . S
N885 H891 0.985 . S
C886 C880 1.379 . S
C886 C883 1.363 . S
C886 N884 1.356 . S
C887 C881 1.363 . S
C887 C882 1.379 . S
C887 N885 1.356 . S
N888 C880 1.356 . S
N888 H894 0.984 . S
N888 H895 0.984 . S
N889 C882 1.356 . S
N889 H892 0.984 . S
N889 H893 0.985 . S
H890 N885 0.984 . S
H891 N885 0.985 . S
H892 N889 0.984 . S
H893 N889 0.985 . S
H894 N888 0.984 . S
H895 N888 0.984 . S
H896 N884 0.984 . S
H897 N884 0.985 . S
C898 C899 1.363 . S
C898 C904 1.379 . S
C898 N906 1.356 . S
C899 C898 1.363 . S
C899 C905 1.363 . S
C900 C901 1.363 . S
C900 C905 1.379 . S
C900 N907 1.356 . S
C901 C900 1.363 . S
C901 C904 1.363 . S
N902 C904 1.356 . S
N902 H914 0.984 . S
N902 H915 0.985 . S
N903 C905 1.356 . S
N903 H908 0.984 . S
N903 H909 0.985 . S
C904 C898 1.379 . S
C904 C901 1.363 . S
C904 N902 1.356 . S
C905 C899 1.363 . S
C905 C900 1.379 . S
C905 N903 1.356 . S
N906 C898 1.356 . S
N906 H912 0.984 . S
N906 H913 0.984 . S
N907 C900 1.356 . S
N907 H910 0.984 . S
N907 H911 0.985 . S
H908 N903 0.984 . S
H909 N903 0.985 . S
H910 N907 0.984 . S
H911 N907 0.985 . S
H912 N906 0.984 . S
H913 N906 0.984 . S
H914 N902 0.984 . S
H915 N902 0.985 . S
C916 C917 1.363 . S
C916 C922 1.379 . S
C916 N924 1.356 . S
C917 C916 1.363 . S
C917 C923 1.363 . S
C918 C919 1.363 . S
C918 C923 1.379 . S
C918 N925 1.356 . S
C919 C918 1.363 . S
C919 C922 1.363 . S
N920 C922 1.356 . S
N920 H932 0.984 . S
N920 H933 0.985 . S
N921 C923 1.356 . S
N921 H926 0.984 . S
N921 H927 0.985 . S
C922 C916 1.379 . S
C922 C919 1.363 . S
C922 N920 1.356 . S
C923 C917 1.363 . S
C923 C918 1.379 . S
C923 N921 1.356 . S
N924 C916 1.356 . S
N924 H930 0.984 . S
N924 H931 0.984 . S
N925 C918 1.356 . S
N925 H928 0.984 . S
N925 H929 0.985 . S
H926 N921 0.984 . S
H927 N921 0.985 . S
H928 N925 0.984 . S
H929 N925 0.985 . S
H930 N924 0.984 . S
H931 N924 0.984 . S
H932 N920 0.984 . S
H933 N920 0.985 . S
C934 C935 1.363 . S
C934 C940 1.379 . S
C934 N942 1.356 . S
C935 C934 1.363 . S
C935 C941 1.363 . S
C936 C937 1.363 . S
C936 C941 1.379 . S
C936 N943 1.356 . S
C937 C936 1.363 . S
C937 C940 1.363 . S
N938 C940 1.356 . S
N938 H950 0.984 . S
N938 H951 0.985 . S
N939 C941 1.356 . S
N939 H944 0.984 . S
N939 H945 0.985 . S
C940 C934 1.379 . S
C940 C937 1.363 . S
C940 N938 1.356 . S
C941 C935 1.363 . S
C941 C936 1.379 . S
C941 N939 1.356 . S
N942 C934 1.356 . S
N942 H948 0.984 . S
N942 H949 0.984 . S
N943 C936 1.356 . S
N943 H946 0.984 . S
N943 H947 0.985 . S
H944 N939 0.984 . S
H945 N939 0.985 . S
H946 N943 0.984 . S
H947 N943 0.985 . S
H948 N942 0.984 . S
H949 N942 0.984 . S
H950 N938 0.984 . S
H951 N938 0.985 . S
C952 C953 1.363 . S
C952 C958 1.379 . S
C952 N960 1.356 . S
C953 C952 1.363 . S
C953 C959 1.363 . S
C954 C955 1.363 . S
C954 C959 1.379 . S
C954 N961 1.356 . S
C955 C954 1.363 . S
C955 C958 1.363 . S
N956 C958 1.356 . S
N956 H968 0.984 . S
N956 H969 0.985 . S
N957 C959 1.356 . S
N957 H962 0.984 . S
N957 H963 0.985 . S
C958 C952 1.379 . S
C958 C955 1.363 . S
C958 N956 1.356 . S
C959 C953 1.363 . S
C959 C954 1.379 . S
C959 N957 1.356 . S
N960 C952 1.356 . S
N960 H966 0.984 . S
N960 H967 0.984 . S
N961 C954 1.356 . S
N961 H964 0.984 . S
N961 H965 0.985 . S
H962 N957 0.984 . S
H963 N957 0.985 . S
H964 N961 0.984 . S
H965 N961 0.985 . S
H966 N960 0.984 . S
H967 N960 0.984 . S
H968 N956 0.984 . S
H969 N956 0.985 . S
C970 C971 1.363 . S
C970 C976 1.379 . S
C970 N978 1.356 . S
C971 C970 1.363 . S
C971 C977 1.363 . S
C972 C973 1.363 . S
C972 C977 1.379 . S
C972 N979 1.356 . S
C973 C972 1.363 . S
C973 C976 1.363 . S
N974 C976 1.356 . S
N974 H986 0.984 . S
N974 H987 0.985 . S
N975 C977 1.356 . S
N975 H980 0.984 . S
N975 H981 0.985 . S
C976 C970 1.379 . S
C976 C973 1.363 . S
C976 N974 1.356 . S
C977 C971 1.363 . S
C977 C972 1.379 . S
C977 N975 1.356 . S
N978 C970 1.356 . S
N978 H984 0.984 . S
N978 H985 0.984 . S
N979 C972 1.356 . S
N979 H982 0.984 . S
N979 H983 0.985 . S
H980 N975 0.984 . S
H981 N975 0.985 . S
H982 N979 0.984 . S
H983 N979 0.985 . S
H984 N978 0.984 . S
H985 N978 0.984 . S
H986 N974 0.984 . S
H987 N974 0.985 . S
C988 C989 1.363 . S
C988 C994 1.379 . S
C988 N996 1.356 . S
C989 C988 1.363 . S
C989 C995 1.363 . S
C990 C991 1.363 . S
C990 C995 1.379 . S
C990 N997 1.356 . S
C991 C990 1.363 . S
C991 C994 1.363 . S
N992 C994 1.356 . S
N992 H1004 0.984 . S
N992 H1005 0.985 . S
N993 C995 1.356 . S
N993 H998 0.984 . S
N993 H999 0.985 . S
C994 C988 1.379 . S
C994 C991 1.363 . S
C994 N992 1.356 . S
C995 C989 1.363 . S
C995 C990 1.379 . S
C995 N993 1.356 . S
N996 C988 1.356 . S
N996 H1002 0.984 . S
N996 H1003 0.984 . S
N997 C990 1.356 . S
N997 H1000 0.984 . S
N997 H1001 0.985 . S
H998 N993 0.984 . S
H999 N993 0.985 . S
H1000 N997 0.984 . S
H1001 N997 0.985 . S
H1002 N996 0.984 . S
H1003 N996 0.984 . S
H1004 N992 0.984 . S
H1005 N992 0.985 . S
C1006 C1007 1.363 . S
C1006 C1012 1.379 . S
C1006 N1014 1.356 . S
C1007 C1006 1.363 . S
C1007 C1013 1.363 . S
C1008 C1009 1.363 . S
C1008 C1013 1.379 . S
C1008 N1015 1.356 . S
C1009 C1008 1.363 . S
C1009 C1012 1.363 . S
N1010 C1012 1.356 . S
N1010 H1022 0.984 . S
N1010 H1023 0.985 . S
N1011 C1013 1.356 . S
N1011 H1016 0.984 . S
N1011 H1017 0.985 . S
C1012 C1006 1.379 . S
C1012 C1009 1.363 . S
C1012 N1010 1.356 . S
C1013 C1007 1.363 . S
C1013 C1008 1.379 . S
C1013 N1011 1.356 . S
N1014 C1006 1.356 . S
N1014 H1020 0.984 . S
N1014 H1021 0.984 . S
N1015 C1008 1.356 . S
N1015 H1018 0.984 . S
N1015 H1019 0.985 . S
H1016 N1011 0.984 . S
H1017 N1011 0.985 . S
H1018 N1015 0.984 . S
H1019 N1015 0.985 . S
H1020 N1014 0.984 . S
H1021 N1014 0.984 . S
H1022 N1010 0.984 . S
H1023 N1010 0.985 . S
C1024 C1025 1.363 . S
C1024 C1030 1.379 . S
C1024 N1032 1.356 . S
C1025 C1024 1.363 . S
C1025 C1031 1.363 . S
C1026 C1027 1.363 . S
C1026 C1031 1.379 . S
C1026 N1033 1.356 . S
C1027 C1026 1.363 . S
C1027 C1030 1.363 . S
N1028 C1030 1.356 . S
N1028 H1040 0.984 . S
N1028 H1041 0.985 . S
N1029 C1031 1.356 . S
N1029 H1034 0.984 . S
N1029 H1035 0.985 . S
C1030 C1024 1.379 . S
C1030 C1027 1.363 . S
C1030 N1028 1.356 . S
C1031 C1025 1.363 . S
C1031 C1026 1.379 . S
C1031 N1029 1.356 . S
N1032 C1024 1.356 . S
N1032 H1038 0.984 . S
N1032 H1039 0.984 . S
N1033 C1026 1.356 . S
N1033 H1036 0.984 . S
N1033 H1037 0.985 . S
H1034 N1029 0.984 . S
H1035 N1029 0.985 . S
H1036 N1033 0.984 . S
H1037 N1033 0.985 . S
H1038 N1032 0.984 . S
H1039 N1032 0.984 . S
H1040 N1028 0.984 . S
H1041 N1028 0.985 . S
C1042 C1043 1.363 . S
C1042 C1048 1.379 . S
C1042 N1050 1.356 . S
C1043 C1042 1.363 . S
C1043 C1049 1.363 . S
C1044 C1045 1.363 . S
C1044 C1049 1.379 . S
C1044 N1051 1.356 . S
C1045 C1044 1.363 . S
C1045 C1048 1.363 . S
N1046 C1048 1.356 . S
N1046 H1058 0.984 . S
N1046 H1059 0.985 . S
N1047 C1049 1.356 . S
N1047 H1052 0.984 . S
N1047 H1053 0.985 . S
C1048 C1042 1.379 . S
C1048 C1045 1.363 . S
C1048 N1046 1.356 . S
C1049 C1043 1.363 . S
C1049 C1044 1.379 . S
C1049 N1047 1.356 . S
N1050 C1042 1.356 . S
N1050 H1056 0.984 . S
N1050 H1057 0.984 . S
N1051 C1044 1.356 . S
N1051 H1054 0.984 . S
N1051 H1055 0.985 . S
H1052 N1047 0.984 . S
H1053 N1047 0.985 . S
H1054 N1051 0.984 . S
H1055 N1051 0.985 . S
H1056 N1050 0.984 . S
H1057 N1050 0.984 . S
H1058 N1046 0.984 . S
H1059 N1046 0.985 . S
C1060 C1061 1.363 . S
C1060 C1066 1.379 . S
C1060 N1068 1.356 . S
C1061 C1060 1.363 . S
C1061 C1067 1.363 . S
C1062 C1063 1.363 . S
C1062 C1067 1.379 . S
C1062 N1069 1.356 . S
C1063 C1062 1.363 . S
C1063 C1066 1.363 . S
N1064 C1066 1.356 . S
N1064 H1076 0.984 . S
N1064 H1077 0.985 . S
N1065 C1067 1.356 . S
N1065 H1070 0.984 . S
N1065 H1071 0.985 . S
C1066 C1060 1.379 . S
C1066 C1063 1.363 . S
C1066 N1064 1.356 . S
C1067 C1061 1.363 . S
C1067 C1062 1.379 . S
C1067 N1065 1.356 . S
N1068 C1060 1.356 . S
N1068 H1074 0.984 . S
N1068 H1075 0.984 . S
N1069 C1062 1.356 . S
N1069 H1072 0.984 . S
N1069 H1073 0.985 . S
H1070 N1065 0.984 . S
H1071 N1065 0.985 . S
H1072 N1069 0.984 . S
H1073 N1069 0.985 . S
H1074 N1068 0.984 . S
H1075 N1068 0.984 . S
H1076 N1064 0.984 . S
H1077 N1064 0.985 . S
C1078 C1079 1.363 . S
C1078 C1084 1.379 . S
C1078 N1086 1.356 . S
C1079 C1078 1.363 . S
C1079 C1085 1.363 . S
C1080 C1081 1.363 . S
C1080 C1085 1.379 . S
C1080 N1087 1.356 . S
C1081 C1080 1.363 . S
C1081 C1084 1.363 . S
N1082 C1084 1.356 . S
N1082 H1094 0.984 . S
N1082 H1095 0.985 . S
N1083 C1085 1.356 . S
N1083 H1088 0.984 . S
N1083 H1089 0.985 . S
C1084 C1078 1.379 . S
C1084 C1081 1.363 . S
C1084 N1082 1.356 . S
C1085 C1079 1.363 . S
C1085 C1080 1.379 . S
C1085 N1083 1.356 . S
N1086 C1078 1.356 . S
N1086 H1092 0.984 . S
N1086 H1093 0.984 . S
N1087 C1080 1.356 . S
N1087 H1090 0.984 . S
N1087 H1091 0.985 . S
H1088 N1083 0.984 . S
H1089 N1083 0.985 . S
H1090 N1087 0.984 . S
H1091 N1087 0.985 . S
H1092 N1086 0.984 . S
H1093 N1086 0.984 . S
H1094 N1082 0.984 . S
H1095 N1082 0.985 . S
C1096 C1097 1.363 . S
C1096 C1102 1.379 . S
C1096 N1104 1.356 . S
C1097 C1096 1.363 . S
C1097 C1103 1.363 . S
C1098 C1099 1.363 . S
C1098 C1103 1.379 . S
C1098 N1105 1.356 . S
C1099 C1098 1.363 . S
C1099 C1102 1.363 . S
N1100 C1102 1.356 . S
N1100 H1112 0.984 . S
N1100 H1113 0.985 . S
N1101 C1103 1.356 . S
N1101 H1106 0.984 . S
N1101 H1107 0.985 . S
C1102 C1096 1.379 . S
C1102 C1099 1.363 . S
C1102 N1100 1.356 . S
C1103 C1097 1.363 . S
C1103 C1098 1.379 . S
C1103 N1101 1.356 . S
N1104 C1096 1.356 . S
N1104 H1110 0.984 . S
N1104 H1111 0.984 . S
N1105 C1098 1.356 . S
N1105 H1108 0.984 . S
N1105 H1109 0.985 . S
H1106 N1101 0.984 . S
H1107 N1101 0.985 . S
H1108 N1105 0.984 . S
H1109 N1105 0.985 . S
H1110 N1104 0.984 . S
H1111 N1104 0.984 . S
H1112 N1100 0.984 . S
H1113 N1100 0.985 . S
C1114 C1115 1.363 . S
C1114 C1120 1.379 . S
C1114 N1122 1.356 . S
C1115 C1114 1.363 . S
C1115 C1121 1.363 . S
C1116 C1117 1.363 . S
C1116 C1121 1.379 . S
C1116 N1123 1.356 . S
C1117 C1116 1.363 . S
C1117 C1120 1.363 . S
N1118 C1120 1.356 . S
N1118 H1130 0.984 . S
N1118 H1131 0.985 . S
N1119 C1121 1.356 . S
N1119 H1124 0.984 . S
N1119 H1125 0.985 . S
C1120 C1114 1.379 . S
C1120 C1117 1.363 . S
C1120 N1118 1.356 . S
C1121 C1115 1.363 . S
C1121 C1116 1.379 . S
C1121 N1119 1.356 . S
N1122 C1114 1.356 . S
N1122 H1128 0.984 . S
N1122 H1129 0.984 . S
N1123 C1116 1.356 . S
N1123 H1126 0.984 . S
N1123 H1127 0.985 . S
H1124 N1119 0.984 . S
H1125 N1119 0.985 . S
H1126 N1123 0.984 . S
H1127 N1123 0.985 . S
H1128 N1122 0.984 . S
H1129 N1122 0.984 . S
H1130 N1118 0.984 . S
H1131 N1118 0.985 . S
C1132 C1133 1.363 . S
C1132 C1138 1.379 . S
C1132 N1140 1.356 . S
C1133 C1132 1.363 . S
C1133 C1139 1.363 . S
C1134 C1135 1.363 . S
C1134 C1139 1.379 . S
C1134 N1141 1.356 . S
C1135 C1134 1.363 . S
C1135 C1138 1.363 . S
N1136 C1138 1.356 . S
N1136 H1148 0.984 . S
N1136 H1149 0.985 . S
N1137 C1139 1.356 . S
N1137 H1142 0.984 . S
N1137 H1143 0.985 . S
C1138 C1132 1.379 . S
C1138 C1135 1.363 . S
C1138 N1136 1.356 . S
C1139 C1133 1.363 . S
C1139 C1134 1.379 . S
C1139 N1137 1.356 . S
N1140 C1132 1.356 . S
N1140 H1146 0.984 . S
N1140 H1147 0.984 . S
N1141 C1134 1.356 . S
N1141 H1144 0.984 . S
N1141 H1145 0.985 . S
H1142 N1137 0.984 . S
H1143 N1137 0.985 . S
H1144 N1141 0.984 . S
H1145 N1141 0.985 . S
H1146 N1140 0.984 . S
H1147 N1140 0.984 . S
H1148 N1136 0.984 . S
H1149 N1136 0.985 . S
C1150 C1151 1.363 . S
C1150 C1156 1.379 . S
C1150 N1158 1.356 . S
C1151 C1150 1.363 . S
C1151 C1157 1.363 . S
C1152 C1153 1.363 . S
C1152 C1157 1.379 . S
C1152 N1159 1.356 . S
C1153 C1152 1.363 . S
C1153 C1156 1.363 . S
N1154 C1156 1.356 . S
N1154 H1166 0.984 . S
N1154 H1167 0.985 . S
N1155 C1157 1.356 . S
N1155 H1160 0.984 . S
N1155 H1161 0.985 . S
C1156 C1150 1.379 . S
C1156 C1153 1.363 . S
C1156 N1154 1.356 . S
C1157 C1151 1.363 . S
C1157 C1152 1.379 . S
C1157 N1155 1.356 . S
N1158 C1150 1.356 . S
N1158 H1164 0.984 . S
N1158 H1165 0.984 . S
N1159 C1152 1.356 . S
N1159 H1162 0.984 . S
N1159 H1163 0.985 . S
H1160 N1155 0.984 . S
H1161 N1155 0.985 . S
H1162 N1159 0.984 . S
H1163 N1159 0.985 . S
H1164 N1158 0.984 . S
H1165 N1158 0.984 . S
H1166 N1154 0.984 . S
H1167 N1154 0.985 . S
C1168 C1169 1.363 . S
C1168 C1174 1.379 . S
C1168 N1176 1.356 . S
C1169 C1168 1.363 . S
C1169 C1175 1.363 . S
C1170 C1171 1.363 . S
C1170 C1175 1.379 . S
C1170 N1177 1.356 . S
C1171 C1170 1.363 . S
C1171 C1174 1.363 . S
N1172 C1174 1.356 . S
N1172 H1184 0.984 . S
N1172 H1185 0.985 . S
N1173 C1175 1.356 . S
N1173 H1178 0.984 . S
N1173 H1179 0.985 . S
C1174 C1168 1.379 . S
C1174 C1171 1.363 . S
C1174 N1172 1.356 . S
C1175 C1169 1.363 . S
C1175 C1170 1.379 . S
C1175 N1173 1.356 . S
N1176 C1168 1.356 . S
N1176 H1182 0.984 . S
N1176 H1183 0.984 . S
N1177 C1170 1.356 . S
N1177 H1180 0.984 . S
N1177 H1181 0.985 . S
H1178 N1173 0.984 . S
H1179 N1173 0.985 . S
H1180 N1177 0.984 . S
H1181 N1177 0.985 . S
H1182 N1176 0.984 . S
H1183 N1176 0.984 . S
H1184 N1172 0.984 . S
H1185 N1172 0.985 . S
C1186 C1187 1.363 . S
C1186 C1192 1.379 . S
C1186 N1194 1.356 . S
C1187 C1186 1.363 . S
C1187 C1193 1.363 . S
C1188 C1189 1.363 . S
C1188 C1193 1.379 . S
C1188 N1195 1.356 . S
C1189 C1188 1.363 . S
C1189 C1192 1.363 . S
N1190 C1192 1.356 . S
N1190 H1202 0.984 . S
N1190 H1203 0.985 . S
N1191 C1193 1.356 . S
N1191 H1196 0.984 . S
N1191 H1197 0.985 . S
C1192 C1186 1.379 . S
C1192 C1189 1.363 . S
C1192 N1190 1.356 . S
C1193 C1187 1.363 . S
C1193 C1188 1.379 . S
C1193 N1191 1.356 . S
N1194 C1186 1.356 . S
N1194 H1200 0.984 . S
N1194 H1201 0.984 . S
N1195 C1188 1.356 . S
N1195 H1198 0.984 . S
N1195 H1199 0.985 . S
H1196 N1191 0.984 . S
H1197 N1191 0.985 . S
H1198 N1195 0.984 . S
H1199 N1195 0.985 . S
H1200 N1194 0.984 . S
H1201 N1194 0.984 . S
H1202 N1190 0.984 . S
H1203 N1190 0.985 . S
C1204 C1205 1.363 . S
C1204 C1210 1.379 . S
C1204 N1212 1.356 . S
C1205 C1204 1.363 . S
C1205 C1211 1.363 . S
C1206 C1207 1.363 . S
C1206 C1211 1.379 . S
C1206 N1213 1.356 . S
C1207 C1206 1.363 . S
C1207 C1210 1.363 . S
N1208 C1210 1.356 . S
N1208 H1220 0.984 . S
N1208 H1221 0.985 . S
N1209 C1211 1.356 . S
N1209 H1214 0.984 . S
N1209 H1215 0.985 . S
C1210 C1204 1.379 . S
C1210 C1207 1.363 . S
C1210 N1208 1.356 . S
C1211 C1205 1.363 . S
C1211 C1206 1.379 . S
C1211 N1209 1.356 . S
N1212 C1204 1.356 . S
N1212 H1218 0.984 . S
N1212 H1219 0.984 . S
N1213 C1206 1.356 . S
N1213 H1216 0.984 . S
N1213 H1217 0.985 . S
H1214 N1209 0.984 . S
H1215 N1209 0.985 . S
H1216 N1213 0.984 . S
H1217 N1213 0.985 . S
H1218 N1212 0.984 . S
H1219 N1212 0.984 . S
H1220 N1208 0.984 . S
H1221 N1208 0.985 . S
C1222 C1223 1.363 . S
C1222 C1228 1.379 . S
C1222 N1230 1.356 . S
C1223 C1222 1.363 . S
C1223 C1229 1.363 . S
C1224 C1225 1.363 . S
C1224 C1229 1.379 . S
C1224 N1231 1.356 . S
C1225 C1224 1.363 . S
C1225 C1228 1.363 . S
N1226 C1228 1.356 . S
N1226 H1238 0.984 . S
N1226 H1239 0.985 . S
N1227 C1229 1.356 . S
N1227 H1232 0.984 . S
N1227 H1233 0.985 . S
C1228 C1222 1.379 . S
C1228 C1225 1.363 . S
C1228 N1226 1.356 . S
C1229 C1223 1.363 . S
C1229 C1224 1.379 . S
C1229 N1227 1.356 . S
N1230 C1222 1.356 . S
N1230 H1236 0.984 . S
N1230 H1237 0.984 . S
N1231 C1224 1.356 . S
N1231 H1234 0.984 . S
N1231 H1235 0.985 . S
H1232 N1227 0.984 . S
H1233 N1227 0.985 . S
H1234 N1231 0.984 . S
H1235 N1231 0.985 . S
H1236 N1230 0.984 . S
H1237 N1230 0.984 . S
H1238 N1226 0.984 . S
H1239 N1226 0.985 . S
C379 C201 1.391 . S
C377 C17 1.362 . S
C397 C206 1.654 . S
C395 C44 1.467 . S
C415 C207 1.420 . S
C413 C63 1.391 . S
C431 C87 1.370 . S
C433 C211 1.347 . S
C449 C110 1.350 . S
C451 C214 1.333 . S
C469 C215 1.445 . S
C467 C131 1.408 . S
C485 C159 1.445 . S
C487 C192 1.637 . S
C503 C177 1.380 . S
C505 C208 1.416 . S
C523 C246 1.455 . S
C521 C20 1.354 . S
C539 C42 1.388 . S
C541 C272 1.386 . S
C559 C224 1.501 . S
C557 C66 1.383 . S
C577 C279 1.292 . S
C575 C86 1.334 . S
C593 C109 1.330 . S
C595 C233 1.302 . S
C613 C275 1.539 . S
C611 C136 1.421 . S
C629 C157 1.386 . S
C631 C239 1.391 . S
C647 C182 1.390 . S
C649 C270 1.487 . S
C665 C18 1.375 . S
C667 C278 1.311 . S
C683 C112 1.326 . S
C685 C265 1.400 . S
C703 C243 1.297 . S
C701 C134 1.318 . S
C721 C271 1.378 . S
C719 C154 1.433 . S
C737 C180 1.332 . S
C739 C238 1.305 . S
C755 C64 1.361 . S
C757 C256 1.300 . S
C775 C247 1.434 . S
C773 C89 1.340 . S
C791 C39 1.448 . S
C793 C240 1.410 . S
C809 C178 1.338 . S
C811 C302 1.308 . S
C827 C113 1.443 . S
C829 C297 1.487 . S
C847 C311 1.318 . S
C845 C132 1.366 . S
C865 C288 1.281 . S
C863 C156 1.346 . S
C881 C41 1.328 . S
C883 C304 1.291 . S
C901 C303 1.339 . S
C899 C62 1.383 . S
C917 C90 1.421 . S
C919 C307 1.535 . S
C935 C16 1.355 . S
C937 C310 1.327 . S
C953 C181 1.359 . S
C955 C336 1.569 . S
C973 C352 1.382 . S
C971 C111 1.405 . S
C989 C135 1.390 . S
C991 C334 1.624 . S
C1007 C155 1.351 . S
C1009 C367 1.300 . S
C1027 C343 1.360 . S
C1025 C40 1.336 . S
C1043 C67 1.438 . S
C1045 C361 1.483 . S
C1063 C339 1.413 . S
C1061 C88 1.390 . S
C1081 C374 1.470 . S
C1079 C21 1.408 . S
C1099 C366 1.356 . S
C1097 C179 1.395 . S
C1115 C43 1.345 . S
C1117 C371 1.490 . S
C1133 C65 1.320 . S
C1135 C342 1.342 . S
C1153 C375 1.412 . S
C1151 C85 1.453 . S
C1169 C19 1.335 . S
C1171 C329 1.357 . S
C1187 C133 1.382 . S
C1189 C368 1.344 . S
C1207 C320 1.567 . S
C1205 C158 1.346 . S
C1225 C335 1.501 . S
C1223 C108 1.455 . S
