# Generated by pormake.
# Topology pyr, (3,6)-cn, num edge types: 1
# Building blocks:
#     Node 0, Type 0, BuildingBlock: OLANEW_clean_sbu_2, # of connection points: 3
#     Node 1, Type 0, BuildingBlock: OLANEW_clean_sbu_2, # of connection points: 3
#     Node 2, Type 0, BuildingBlock: OLANEW_clean_sbu_2, # of connection points: 3
#     Node 3, Type 0, BuildingBlock: OLANEW_clean_sbu_2, # of connection points: 3
#     Node 4, Type 0, BuildingBlock: OLANEW_clean_sbu_2, # of connection points: 3
#     Node 5, Type 0, BuildingBlock: OLANEW_clean_sbu_2, # of connection points: 3
#     Node 6, Type 0, BuildingBlock: OLANEW_clean_sbu_2, # of connection points: 3
#     Node 7, Type 0, BuildingBlock: OLANEW_clean_sbu_2, # of connection points: 3
#     Node 8, Type 1, BuildingBlock: BETDIP_clean_sbu_0, # of connection points: 6
#     Node 9, Type 1, BuildingBlock: BETDIP_clean_sbu_0, # of connection points: 6
#     Node 10, Type 1, BuildingBlock: BETDIP_clean_sbu_0, # of connection points: 6
#     Node 11, Type 1, BuildingBlock: BETDIP_clean_sbu_0, # of connection points: 6
#     Edge 12, Type (0, 1), BuildingBlock: CIFDUS_clean_linker_0, # of connection points: 2
#     Edge 13, Type (0, 1), BuildingBlock: CIFDUS_clean_linker_0, # of connection points: 2
#     Edge 14, Type (0, 1), BuildingBlock: CIFDUS_clean_linker_0, # of connection points: 2
#     Edge 15, Type (0, 1), BuildingBlock: CIFDUS_clean_linker_0, # of connection points: 2
#     Edge 16, Type (0, 1), BuildingBlock: CIFDUS_clean_linker_0, # of connection points: 2
#     Edge 17, Type (0, 1), BuildingBlock: CIFDUS_clean_linker_0, # of connection points: 2
#     Edge 18, Type (0, 1), BuildingBlock: CIFDUS_clean_linker_0, # of connection points: 2
#     Edge 19, Type (0, 1), BuildingBlock: CIFDUS_clean_linker_0, # of connection points: 2
#     Edge 20, Type (0, 1), BuildingBlock: CIFDUS_clean_linker_0, # of connection points: 2
#     Edge 21, Type (0, 1), BuildingBlock: CIFDUS_clean_linker_0, # of connection points: 2
#     Edge 22, Type (0, 1), BuildingBlock: CIFDUS_clean_linker_0, # of connection points: 2
#     Edge 23, Type (0, 1), BuildingBlock: CIFDUS_clean_linker_0, # of connection points: 2
#     Edge 24, Type (0, 1), BuildingBlock: CIFDUS_clean_linker_0, # of connection points: 2
#     Edge 25, Type (0, 1), BuildingBlock: CIFDUS_clean_linker_0, # of connection points: 2
#     Edge 26, Type (0, 1), BuildingBlock: CIFDUS_clean_linker_0, # of connection points: 2
#     Edge 27, Type (0, 1), BuildingBlock: CIFDUS_clean_linker_0, # of connection points: 2
#     Edge 28, Type (0, 1), BuildingBlock: CIFDUS_clean_linker_0, # of connection points: 2
#     Edge 29, Type (0, 1), BuildingBlock: CIFDUS_clean_linker_0, # of connection points: 2
#     Edge 30, Type (0, 1), BuildingBlock: CIFDUS_clean_linker_0, # of connection points: 2
#     Edge 31, Type (0, 1), BuildingBlock: CIFDUS_clean_linker_0, # of connection points: 2
#     Edge 32, Type (0, 1), BuildingBlock: CIFDUS_clean_linker_0, # of connection points: 2
#     Edge 33, Type (0, 1), BuildingBlock: CIFDUS_clean_linker_0, # of connection points: 2
#     Edge 34, Type (0, 1), BuildingBlock: CIFDUS_clean_linker_0, # of connection points: 2
#     Edge 35, Type (0, 1), BuildingBlock: CIFDUS_clean_linker_0, # of connection points: 2
# Relax obj value: 0.181
# Max RMSD: 0.239
# Mean RMSD: 0.145
data_MOF--net-pyr--node1-OLANEW_clean_sbu_2--node2-BETDIP_clean_sbu_0--edge1-CIFDUS_clean_linker_0
_symmetry_space_group_name_H-M    P1
_symmetry_Int_Tables_number       1
_symmetry_cell_setting            triclinic
loop_
_symmetry_equiv_pos_as_xyz
'x, y, z'
_cell_length_a     34.521456
_cell_length_b     38.224941
_cell_length_c     35.477353
_cell_angle_alpha  92.957158
_cell_angle_beta   93.595967
_cell_angle_gamma 108.63325
loop_
_atom_site_label
_atom_site_type_symbol
_atom_site_fract_x
_atom_site_fract_y
_atom_site_fract_z
_atom_type_partial_charge
O0 O 0.42044 0.29873 0.17623 0.0
Cd1 Cd 0.40836 0.35864 0.18277 0.0
O2 O 0.37509 0.27486 0.2162 0.0
Cd3 Cd 0.34317 0.23371 0.25379 0.0
O4 O 0.3099 0.2066 0.30018 0.0
C5 C 0.3277 0.19421 0.32621 0.0
O6 O 0.36635 0.19666 0.32419 0.0
C7 C 0.40207 0.27157 0.19478 0.0
C8 C 0.3278 0.36 0.17197 0.0
O9 O 0.34277 0.35513 0.20453 0.0
O10 O 0.35036 0.36275 0.14418 0.0
O11 O 0.14369 0.71082 0.90131 0.0
Cd12 Cd 0.10693 0.65359 0.86298 0.0
O13 O 0.10786 0.73995 0.87088 0.0
Cd14 Cd 0.08433 0.78343 0.8512 0.0
O15 O 0.05701 0.81807 0.81863 0.0
C16 C 0.08022 0.84775 0.80685 0.0
O17 O 0.11995 0.85742 0.81573 0.0
C18 C 0.13714 0.74097 0.89512 0.0
C19 C 0.15975 0.6475 0.80874 0.0
O20 O 0.13178 0.66214 0.80135 0.0
O21 O 0.16133 0.63422 0.84102 0.0
O22 O 0.72102 0.47576 0.89585 0.0
Cd23 Cd 0.67047 0.45977 0.83982 0.0
O24 O 0.68661 0.42678 0.92372 0.0
Cd25 Cd 0.66888 0.38111 0.96181 0.0
O26 O 0.63106 0.33145 0.98791 0.0
C27 C 0.63899 0.3011 0.98636 0.0
O28 O 0.67146 0.29957 0.96979 0.0
C29 C 0.71867 0.45497 0.92321 0.0
C30 C 0.64841 0.51334 0.80003 0.0
O31 O 0.62407 0.49291 0.8219 0.0
O32 O 0.68406 0.51003 0.7983 0.0
O33 O 0.94474 0.80382 0.35083 0.0
Cd34 Cd 0.89932 0.75358 0.30537 0.0
O35 O 0.89635 0.78174 0.38822 0.0
Cd36 Cd 0.86235 0.77251 0.43882 0.0
O37 O 0.81371 0.74099 0.47228 0.0
C38 C 0.79034 0.75579 0.48839 0.0
O39 O 0.79681 0.7914 0.48634 0.0
C40 C 0.92998 0.80622 0.38254 0.0
C41 C 0.92752 0.71492 0.2494 0.0
O42 O 0.92156 0.74565 0.24317 0.0
O43 O 0.92244 0.70354 0.2827 0.0
O44 O 0.64099 0.72484 0.81066 0.0
Cd45 Cd 0.6035 0.67363 0.84639 0.0
O46 O 0.62129 0.76624 0.8418 0.0
Cd47 Cd 0.61558 0.81885 0.86453 0.0
O48 O 0.59815 0.8599 0.89925 0.0
C49 C 0.56195 0.85158 0.90985 0.0
O50 O 0.53555 0.81881 0.8989 0.0
C51 C 0.64277 0.75842 0.81677 0.0
C52 C 0.66234 0.64941 0.88428 0.0
O53 O 0.64673 0.63553 0.85095 0.0
O54 O 0.64895 0.67368 0.90014 0.0
O55 O 0.88535 0.28593 0.40215 0.0
Cd56 Cd 0.93652 0.30109 0.45577 0.0
O57 O 0.86438 0.33394 0.41177 0.0
Cd58 Cd 0.82099 0.3645 0.40367 0.0
O59 O 0.77633 0.39353 0.41032 0.0
C60 C 0.78783 0.42541 0.42797 0.0
O61 O 0.82663 0.44049 0.44042 0.0
C62 C 0.86126 0.30377 0.39304 0.0
C63 C 0.95393 0.23643 0.47003 0.0
O64 O 0.92343 0.24325 0.48381 0.0
O65 O 0.97683 0.26063 0.45024 0.0
O66 O 0.41453 0.82699 0.2755 0.0
Cd67 Cd 0.3848 0.76473 0.29982 0.0
O68 O 0.35836 0.82014 0.2384 0.0
Cd69 Cd 0.32463 0.76169 0.2443 0.0
O70 O 0.27975 0.71222 0.2141 0.0
C71 C 0.28486 0.70673 0.17936 0.0
O72 O 0.31719 0.72913 0.16538 0.0
C73 C 0.39413 0.83998 0.25195 0.0
C74 C 0.42588 0.73983 0.35907 0.0
O75 O 0.43465 0.73769 0.3246 0.0
O76 O 0.39893 0.7553 0.36617 0.0
O77 O 0.14153 0.42384 0.79588 0.0
Cd78 Cd 0.17586 0.39517 0.75109 0.0
O79 O 0.12101 0.37532 0.82966 0.0
Cd80 Cd 0.13362 0.33417 0.79037 0.0
O81 O 0.12599 0.27957 0.76087 0.0
C82 C 0.09829 0.26717 0.73362 0.0
O83 O 0.07658 0.28812 0.72289 0.0
C84 C 0.12496 0.40905 0.82474 0.0
C85 C 0.23997 0.44835 0.72033 0.0
O86 O 0.20552 0.43307 0.70091 0.0
O87 O 0.24416 0.43857 0.75392 0.0
Tb88 Tb 0.95634 0.99474 0.6066 0.0
Tb89 Tb 0.04873 0.0341 0.59105 0.0
C90 C 0.88647 0.94865 0.61193 0.0
C91 C 0.86177 0.92644 0.64 0.0
C92 C 0.8786 0.90819 0.66657 0.0
C93 C 0.85365 0.88593 0.6916 0.0
C94 C 0.81149 0.88162 0.69059 0.0
C95 C 0.79511 0.90072 0.66453 0.0
C96 C 0.82002 0.92284 0.63948 0.0
C97 C 0.99187 0.06126 0.64072 0.0
C98 C 0.02886 0.97863 0.65634 0.0
C99 C 0.11821 0.08065 0.58802 0.0
C100 C 0.1402 0.09651 0.55564 0.0
C101 C 0.18184 0.1176 0.56058 0.0
C102 C 0.20282 0.13189 0.52938 0.0
C103 C 0.18237 0.12527 0.49281 0.0
C104 C 0.14051 0.10413 0.48816 0.0
C105 C 0.11965 0.08985 0.51929 0.0
C106 C 0.01135 0.97597 0.54114 0.0
C107 C 0.97661 0.05245 0.5456 0.0
O108 O 0.9178 0.93949 0.6011 0.0
O109 O 0.89474 0.98451 0.61706 0.0
O110 O 0.00902 0.03717 0.63414 0.0
O111 O 0.95278 0.04662 0.63191 0.0
O112 O 0.98871 0.97077 0.64802 0.0
O113 O 0.05691 1.00382 0.63945 0.0
O114 O 0.08529 0.08974 0.59354 0.0
O115 O 0.11214 0.04518 0.59052 0.0
O116 O -0.0022 0.98978 0.56791 0.0
O117 O 0.04954 0.99603 0.54144 0.0
O118 O 0.01535 0.06419 0.55975 0.0
O119 O 0.94966 1.02114 0.55459 0.0
H120 H 0.91082 0.91078 0.6677 0.0
H121 H 0.86733 0.87194 0.71165 0.0
H122 H 0.76275 0.89767 0.66264 0.0
H123 H 0.80647 0.93671 0.61918 0.0
H124 H 0.19811 0.12293 0.58849 0.0
H125 H 0.23494 0.14839 0.53391 0.0
H126 H 0.12401 0.09809 0.46035 0.0
H127 H 0.0875 0.07335 0.51496 0.0
Tb128 Tb 0.55948 0.0757 0.11319 0.0
Tb129 Tb 0.47093 0.04355 0.08774 0.0
C130 C 0.63133 0.11895 0.12953 0.0
C131 C 0.65372 0.14079 0.16391 0.0
C132 C 0.68888 0.1712 0.16104 0.0
C133 C 0.71161 0.1911 0.19373 0.0
C134 C 0.69954 0.18063 0.22971 0.0
C135 C 0.6635 0.15081 0.2324 0.0
C136 C 0.64062 0.13115 0.19972 0.0
C137 C 0.52139 1.01753 0.1494 0.0
C138 C 0.49483 0.11073 0.14706 0.0
C139 C 0.39684 1.00618 0.07005 0.0
C140 C 0.36891 0.97187 0.05028 0.0
C141 C 0.38017 0.93996 1.04452 0.0
C142 C 0.35174 0.90751 1.02666 0.0
C143 C 0.31181 0.90665 1.01426 0.0
C144 C 0.30109 0.93892 1.01992 0.0
C145 C 0.32938 0.97115 1.03772 0.0
C146 C 0.51326 0.10274 0.05427 0.0
C147 C 0.53487 1.01108 0.05101 0.0
O148 O 0.60164 0.12941 0.11457 0.0
O149 O 0.62075 0.083 0.13069 0.0
O150 O 0.50637 0.04218 0.1394 0.0
O151 O 0.55953 0.02745 0.14256 0.0
O152 O 0.53355 0.11418 0.14217 0.0
O153 O 0.46441 0.08165 0.13228 0.0
O154 O 0.4173 1.0034 0.10145 0.0
O155 O 0.41897 0.03078 0.04905 0.0
O156 O 0.52422 0.07571 0.0627 0.0
O157 O 0.47618 0.09691 0.06351 0.0
O158 O 0.49698 1.0034 0.06145 0.0
O159 O 0.56334 0.04282 0.0628 0.0
H160 H 0.69918 0.1791 0.13355 0.0
H161 H 0.73944 0.21378 0.19089 0.0
H162 H 0.65332 0.14243 0.25979 0.0
H163 H 0.61317 0.10799 0.20239 0.0
H164 H 0.41067 0.94008 0.05397 0.0
H165 H 0.36104 0.88318 1.02238 0.0
H166 H 0.2705 0.9391 1.01128 0.0
H167 H 0.32016 0.99554 1.04212 0.0
Tb168 Tb 0.49849 0.64724 0.61584 0.0
Tb169 Tb 0.50525 0.5827 0.56925 0.0
C170 C 0.47294 0.69524 0.64668 0.0
C171 C 0.43451 0.69176 0.66431 0.0
C172 C 0.39651 0.66837 0.64731 0.0
C173 C 0.36137 0.66077 0.66717 0.0
C174 C 0.36383 0.67601 0.70446 0.0
C175 C 0.40155 0.70029 0.72091 0.0
C176 C 0.43653 0.7082 0.70094 0.0
C177 C 0.54113 0.60959 0.64954 0.0
C178 C 0.42487 0.5716 0.61145 0.0
C179 C 0.51371 0.52248 0.54648 0.0
C180 C 0.54072 0.51032 0.52241 0.0
C181 C 0.53439 0.47242 0.51587 0.0
C182 C 0.56196 0.4602 0.4961 0.0
C183 C 0.59645 0.48576 0.48254 0.0
C184 C 0.60202 0.52385 0.48829 0.0
C185 C 0.57435 0.53604 0.5081 0.0
C186 C 0.48836 0.63288 0.529 0.0
C187 C 0.57749 0.65825 0.57481 0.0
O188 O 0.47031 0.68814 0.6099 0.0
O189 O 0.49684 0.67993 0.66451 0.0
O190 O 0.50845 0.59673 0.62827 0.0
O191 O 0.55107 0.64539 0.65312 0.0
O192 O 0.44216 0.60508 0.62843 0.0
O193 O 0.44291 0.55783 0.58545 0.0
O194 O 0.53167 0.5414 0.57824 0.0
O195 O 0.488 0.53666 0.52953 0.0
O196 O 0.47433 0.62248 0.56015 0.0
O197 O 0.51087 0.61329 0.51854 0.0
O198 O 0.56796 0.62167 0.57249 0.0
O199 O 0.55131 0.67467 0.58591 0.0
H200 H 0.3942 0.65488 0.61926 0.0
H201 H 0.33267 0.6418 0.65399 0.0
H202 H 0.40409 0.71267 0.74951 0.0
H203 H 0.46557 0.72603 0.71468 0.0
H204 H 0.50871 0.45225 0.527 0.0
H205 H 0.55705 0.43074 0.49272 0.0
H206 H 0.62802 0.54422 0.47787 0.0
H207 H 0.57967 0.56548 0.513 0.0
Tb208 Tb 0.01055 0.56506 1.02402 0.0
Tb209 Tb 0.00826 0.50562 0.07774 0.0
C210 C 0.98838 0.60635 0.98062 0.0
C211 C 0.94771 0.60847 0.96834 0.0
C212 C 0.91617 0.60134 0.99293 0.0
C213 C 0.87682 0.60058 0.97989 0.0
C214 C 0.86823 0.60659 0.94197 0.0
C215 C 0.89988 0.61362 0.91746 0.0
C216 C 0.93926 0.61458 0.93056 0.0
C217 C 0.08091 0.57544 0.06445 0.0
C218 C 0.97615 0.5683 0.10573 0.0
C219 C 0.02806 0.46108 0.11846 0.0
C220 C 0.06233 0.44595 0.11903 0.0
C221 C 0.09796 0.46368 0.10141 0.0
C222 C 0.13075 0.44969 0.10252 0.0
C223 C 0.12868 0.41771 0.12136 0.0
C224 C 0.09276 0.39989 0.13878 0.0
C225 C 0.05985 0.41388 0.13754 0.0
C226 C 0.93802 0.49795 1.03808 0.0
C227 C 0.04483 0.50301 0.99762 0.0
O228 O 0.99473 0.57592 0.96885 0.0
O229 O 0.0016 0.61615 1.01619 0.0
O230 O 0.04536 0.562 0.07487 0.0
O231 O 0.07762 0.5873 1.03119 0.0
O232 O 0.97447 0.57637 0.06978 0.0
O233 O 0.99198 0.54289 0.11665 0.0
O234 O 0.03829 0.49668 0.12761 0.0
O235 O 0.00144 0.45055 0.08877 0.0
O236 O 0.97354 0.50947 1.02731 0.0
O237 O 0.94035 0.48671 0.0718 0.0
O238 O 0.04567 0.49514 1.03348 0.0
O239 O 0.02779 0.52732 0.98591 0.0
H240 H 0.92169 0.59575 1.02203 0.0
H241 H 0.85293 0.59468 0.9993 0.0
H242 H 0.89431 0.61879 0.88821 0.0
H243 H 0.96305 0.61968 0.91106 0.0
H244 H 0.10068 0.48866 0.0872 0.0
H245 H 0.15813 0.46446 0.08932 0.0
H246 H 0.09 0.37502 0.15319 0.0
H247 H 0.03254 0.39977 0.15121 0.0
H248 H 0.25097 0.19202 0.34204 0.0
H249 H 0.35513 0.16223 0.38487 0.0
H250 H 0.31953 0.13857 0.44026 0.0
H251 H 0.25878 0.1263 0.47654 0.0
H252 H 0.15541 0.15735 0.43411 0.0
H253 H 0.1907 0.1803 0.37842 0.0
C254 C 0.2659 0.18025 0.3634 0.0
C255 C 0.30567 0.17889 0.35924 0.0
C256 C 0.24539 0.16691 0.39528 0.0
C257 C 0.32454 0.16364 0.38732 0.0
C258 C 0.30422 0.15013 0.41905 0.0
C259 C 0.24416 0.13844 0.45529 0.0
C260 C 0.20449 0.14005 0.45949 0.0
C261 C 0.26471 0.15174 0.42339 0.0
C262 C 0.18571 0.15534 0.43138 0.0
C263 C 0.20594 0.16862 0.39959 0.0
H264 H 0.18807 0.74853 0.95837 0.0
H265 H 0.15152 0.8123 0.87454 0.0
H266 H 0.20132 0.86883 0.90455 0.0
H267 H 0.25776 0.89998 0.95285 0.0
H268 H 0.2963 0.83594 1.03519 0.0
H269 H 0.24425 0.77956 1.00666 0.0
C270 C 0.1907 0.77482 0.94678 0.0
C271 C 0.16505 0.77606 0.91471 0.0
C272 C 0.22047 0.80715 0.96348 0.0
C273 C 0.16935 0.8104 0.89996 0.0
C274 C 0.19849 0.84281 0.91679 0.0
C275 C 0.25456 0.87373 0.96476 0.0
C276 C 0.28095 0.87222 0.99613 0.0
C277 C 0.22442 0.84146 0.94836 0.0
C278 C 0.27681 0.83785 1.01077 0.0
C279 C 0.24681 0.80565 0.99468 0.0
H280 H 0.57451 0.49688 0.76103 0.0
H281 H 0.69151 0.5829 0.78148 0.0
H282 H 0.66858 0.62111 0.73731 0.0
H283 H 0.615 0.62936 0.69171 0.0
H284 H 0.50106 0.5398 0.66715 0.0
H285 H 0.52303 0.50356 0.71351 0.0
C286 C 0.59481 0.52416 0.75604 0.0
C287 C 0.63435 0.53738 0.77487 0.0
C288 C 0.58204 0.54514 0.72946 0.0
C289 C 0.6608 0.57232 0.76748 0.0
C290 C 0.64772 0.59408 0.74216 0.0
C291 C 0.59516 0.60186 0.69652 0.0
C292 C 0.55638 0.58737 0.67616 0.0
C293 C 0.60844 0.58067 0.72275 0.0
C294 C 0.53107 0.55158 0.68236 0.0
C295 C 0.54353 0.53086 0.70902 0.0
H296 H 0.93483 0.64613 0.25228 0.0
H297 H 0.9419 0.7323 0.1765 0.0
H298 H 0.95486 0.69383 0.12477 0.0
H299 H 0.96504 0.63577 0.10103 0.0
H300 H 0.95884 0.55027 0.17751 0.0
H301 H 0.94419 0.58814 0.22856 0.0
C302 C 0.93941 0.65664 0.22452 0.0
C303 C 0.93758 0.69223 0.21849 0.0
C304 C 0.94664 0.63427 0.19478 0.0
C305 C 0.94332 0.70514 0.18214 0.0
C306 C 0.95058 0.68306 0.15243 0.0
C307 C 0.95997 0.62523 0.12873 0.0
C308 C 0.96295 0.59009 0.13527 0.0
C309 C 0.95223 0.64752 0.15836 0.0
C310 C 0.95677 0.57715 0.17156 0.0
C311 C 0.94851 0.59888 0.20089 0.0
H312 H 0.47782 0.26644 0.1901 0.0
H313 H 0.35107 0.20001 0.19252 0.0
H314 H 0.36916 0.1435 0.18198 0.0
H315 H 0.42038 0.11356 0.16648 0.0
H316 H 0.54746 0.18065 0.16556 0.0
H317 H 0.52997 0.23612 0.18178 0.0
C318 C 0.45426 0.23953 0.18863 0.0
C319 C 0.41318 0.2373 0.19187 0.0
C320 C 0.46496 0.20727 0.18286 0.0
C321 C 0.38295 0.20235 0.19041 0.0
C322 C 0.39327 0.17008 0.18417 0.0
C323 C 0.44438 0.14021 0.17049 0.0
C324 C 0.48514 0.14281 0.16441 0.0
C325 C 0.4341 0.17224 0.17966 0.0
C326 C 0.51584 0.17764 0.17002 0.0
C327 C 0.50584 0.20953 0.17904 0.0
H328 H 0.12214 0.91056 0.77543 0.0
H329 H -0.00012 0.83449 0.78096 0.0
H330 H 0.97272 0.86906 0.73611 0.0
H331 H 0.98427 0.91948 0.69311 0.0
H332 H 0.10727 0.99455 0.68765 0.0
H333 H 0.13328 0.96176 0.73462 0.0
C334 C 0.0895 0.90158 0.76704 0.0
C335 C 0.06319 0.86986 0.78146 0.0
C336 C 0.07414 0.92135 0.74104 0.0
C337 C 0.02093 0.85876 0.77026 0.0
C338 C 0.00534 0.87849 0.74454 0.0
C339 C 0.0167 0.92884 0.70237 0.0
C340 C 0.04366 0.95939 0.68656 0.0
C341 C 0.03174 0.90963 0.72941 0.0
C342 C 0.08567 0.97101 0.69898 0.0
C343 C 0.1007 0.95229 0.72596 0.0
H344 H 0.79758 0.49239 0.91314 0.0
H345 H 0.72107 0.43397 0.99646 0.0
H346 H 0.78194 0.44324 1.04021 0.0
H347 H 0.85789 0.46646 0.05388 0.0
H348 H 0.9328 0.51985 0.96724 0.0
H349 H 0.8719 0.5149 0.92623 0.0
C350 C 0.79405 0.48185 0.94098 0.0
C351 C 0.75472 0.46215 0.95128 0.0
C352 C 0.82914 0.48664 0.96557 0.0
C353 C 0.75094 0.4486 0.98744 0.0
C354 C 0.78579 0.45408 1.01257 0.0
C355 C 0.86074 0.47705 1.02606 0.0
C356 C 0.9 0.49422 1.01394 0.0
C357 C 0.82519 0.47269 1.00177 0.0
C358 C 0.90316 0.50738 0.97765 0.0
C359 C 0.86824 0.50422 0.95397 0.0
H360 H 0.73437 0.77848 0.52449 0.0
H361 H 0.76498 0.68063 0.49248 0.0
H362 H 0.70275 0.64185 0.51776 0.0
H363 H 0.63786 0.63546 0.54618 0.0
H364 H 0.60746 0.73365 0.57758 0.0
H365 H 0.67136 0.77234 0.55544 0.0
C366 C 0.72763 0.7487 0.52324 0.0
C367 C 0.75425 0.73256 0.50638 0.0
C368 C 0.69166 0.7265 0.53761 0.0
C369 C 0.74502 0.69387 0.5052 0.0
C370 C 0.70936 0.67161 0.5196 0.0
C371 C 0.64531 0.66532 0.54843 0.0
C372 C 0.61765 0.6815 0.56337 0.0
C373 C 0.68217 0.68759 0.53543 0.0
C374 C 0.62796 0.72031 0.56608 0.0
C375 C 0.66456 0.74256 0.5534 0.0
H376 H 0.29053 0.3758 0.1081 0.0
H377 H 0.27312 0.35567 0.22544 0.0
H378 H 0.20891 0.36974 0.21958 0.0
H379 H 0.16014 0.39195 0.18241 0.0
H380 H 0.17773 0.41234 0.06517 0.0
H381 H 0.23949 0.39425 0.06986 0.0
C382 C 0.2725 0.3741 0.13231 0.0
C383 C 0.28683 0.36485 0.16721 0.0
C384 C 0.23579 0.38266 0.12889 0.0
C385 C 0.26297 0.3628 0.19825 0.0
C386 C 0.22624 0.37094 0.19497 0.0
C387 C 0.17708 0.39186 0.1577 0.0
C388 C 0.1644 0.4038 0.12357 0.0
C389 C 0.21269 0.38149 0.1606 0.0
C390 C 0.18712 0.40391 0.09198 0.0
C391 C 0.22236 0.39339 0.09457 0.0
H392 H 0.64967 0.2338 0.9904 0.0
H393 H 0.56545 0.29241 1.01653 0.0
H394 H 0.51879 0.23636 1.03943 0.0
H395 H 0.5014 0.17 0.05147 0.0
H396 H 0.58672 0.11245 1.02601 0.0
H397 H 0.63321 0.16856 1.00343 0.0
C398 C 0.62116 0.23443 1.00113 0.0
C399 C 0.61117 0.26739 1.00157 0.0
C400 C 0.59447 0.2021 1.01429 0.0
C401 C 0.57405 0.26753 1.0158 0.0
C402 C 0.54725 0.2354 1.02886 0.0
C403 C 0.53009 0.16981 1.04078 0.0
C404 C 0.5405 0.13707 1.04018 0.0
C405 C 0.557 0.20243 1.02807 0.0
C406 C 0.57796 0.13727 1.02668 0.0
C407 C 0.60461 0.16937 1.01378 0.0
H408 H 0.8959 0.83869 0.43585 0.0
H409 H 0.01185 0.84413 0.39336 0.0
H410 H 0.04713 0.89648 0.43912 0.0
H411 H 0.04501 0.94138 0.49063 0.0
H412 H 0.92894 0.93794 0.53118 0.0
H413 H 0.89375 0.88376 0.48744 0.0
C414 C 0.92896 0.85077 0.43713 0.0
C415 C 0.95127 0.83697 0.41162 0.0
C416 C 0.949 0.88127 0.46324 0.0
C417 C 0.99397 0.85403 0.41275 0.0
C418 C 0.01417 0.88399 0.43893 0.0
C419 C 0.01201 0.92864 0.48999 0.0
C420 C 0.98967 0.94315 0.51476 0.0
C421 C 0.992 0.89796 0.46419 0.0
C422 C 0.94693 0.92666 0.51328 0.0
C423 C 0.92679 0.89587 0.48796 0.0
H424 H 0.23189 0.63502 0.82365 0.0
H425 H 0.15932 0.66398 0.73461 0.0
H426 H 0.21533 0.67307 0.69332 0.0
H427 H 0.28692 0.67709 0.68427 0.0
H428 H 0.36011 0.65132 0.77491 0.0
H429 H 0.30193 0.63672 0.81388 0.0
C430 C 0.22806 0.64282 0.79503 0.0
C431 C 0.19151 0.64883 0.78223 0.0
C432 C 0.26072 0.64897 0.77189 0.0
C433 C 0.1872 0.65924 0.74517 0.0
C434 C 0.21926 0.66454 0.72159 0.0
C435 C 0.28985 0.66793 0.71243 0.0
C436 C 0.3277 0.66556 0.72691 0.0
C437 C 0.25645 0.66018 0.73491 0.0
C438 C 0.33136 0.65385 0.76346 0.0
C439 C 0.29811 0.64536 0.78566 0.0
H440 H 0.70729 0.75176 0.78172 0.0
H441 H 0.64228 0.82908 0.80396 0.0
H442 H 0.68986 0.87465 0.76831 0.0
H443 H 0.74924 0.8918 0.72936 0.0
H444 H 0.81201 0.81277 0.70623 0.0
H445 H 0.766 0.76866 0.74384 0.0
C446 C 0.70336 0.77857 0.77884 0.0
C447 C 0.67134 0.78702 0.79587 0.0
C448 C 0.73052 0.80436 0.75809 0.0
C449 C 0.66703 0.82201 0.79191 0.0
C450 C 0.69408 0.84799 0.7712 0.0
C451 C 0.75277 0.86489 0.73251 0.0
C452 C 0.78423 0.85572 0.71507 0.0
C453 C 0.72586 0.83938 0.75402 0.0
C454 C 0.7886 0.82085 0.71979 0.0
C455 C 0.76207 0.79546 0.74107 0.0
H456 H 0.81923 0.23172 0.37776 0.0
H457 H 0.83083 0.33952 0.33945 0.0
H458 H 0.77995 0.31095 0.286 0.0
H459 H 0.73492 0.25466 0.24847 0.0
H460 H 0.72398 0.1473 0.288 0.0
H461 H 0.77173 0.17633 0.3429 0.0
C462 C 0.81043 0.24895 0.35778 0.0
C463 C 0.82855 0.28757 0.36242 0.0
C464 C 0.7814 0.23238 0.32737 0.0
C465 C 0.81675 0.30971 0.33667 0.0
C466 C 0.78796 0.29337 0.306 0.0
C467 C 0.74296 0.23775 0.26925 0.0
C468 C 0.72609 0.19894 0.26423 0.0
C469 C 0.77048 0.25466 0.30081 0.0
C470 C 0.73629 0.17724 0.29148 0.0
C471 C 0.76376 0.19379 0.32272 0.0
H472 H 0.40366 0.72721 0.43147 0.0
H473 H 0.49039 0.71383 0.35404 0.0
H474 H 0.51835 0.68151 0.40045 0.0
H475 H 0.51621 0.65414 0.46158 0.0
H476 H 0.42865 0.66516 0.53892 0.0
H477 H 0.40329 0.70145 0.49432 0.0
C478 C 0.42896 0.71757 0.4249 0.0
C479 C 0.44478 0.723 0.3891 0.0
C480 C 0.44468 0.69839 0.45171 0.0
C481 C 0.47745 0.71006 0.38116 0.0
C482 C 0.49349 0.69148 0.40773 0.0
C483 C 0.4917 0.66464 0.46881 0.0
C484 C 0.47432 0.6569 0.50354 0.0
C485 C 0.47699 0.68502 0.44284 0.0
C486 C 0.44269 0.67084 0.51248 0.0
C487 C 0.42808 0.69148 0.48687 0.0
H488 H 0.11055 0.39531 0.89805 0.0
H489 H 0.10729 0.47301 0.81489 0.0
H490 H 0.08264 0.50914 0.86082 0.0
H491 H 0.0609 0.51819 0.92453 0.0
H492 H 0.0674 0.44178 1.00832 0.0
H493 H 0.09205 0.40597 0.96241 0.0
C494 C 0.10436 0.42011 0.88991 0.0
C495 C 0.11047 0.43121 0.85291 0.0
C496 C 0.09083 0.44112 0.91669 0.0
C497 C 0.10284 0.46375 0.84311 0.0
C498 C 0.08869 0.48443 0.86939 0.0
C499 C 0.0678 0.49376 0.93279 0.0
C500 C 0.06201 0.48269 0.96987 0.0
C501 C 0.08243 0.47334 0.90625 0.0
C502 C 0.07151 0.45109 0.98007 0.0
C503 C 0.08553 0.43044 0.95375 0.0
H504 H 0.61004 0.91937 0.94107 0.0
H505 H 0.48669 0.8427 0.93586 0.0
H506 H 0.46712 0.88504 0.97875 0.0
H507 H 0.48525 0.94378 1.01851 0.0
H508 H 0.60905 1.01984 1.02355 0.0
H509 H 0.62797 0.97784 0.98018 0.0
C510 C 0.57883 0.91191 0.9492 0.0
C511 C 0.54996 0.87784 0.93519 0.0
C512 C 0.56778 0.9363 0.97402 0.0
C513 C 0.50964 0.86871 0.94617 0.0
C514 C 0.49838 0.89292 0.97076 0.0
C515 C 0.51635 0.95118 1.01011 0.0
C516 C 0.54559 0.98501 1.0244 0.0
C517 C 0.52723 0.92677 0.985 0.0
C518 C 0.58578 0.99406 1.01312 0.0
C519 C 0.59673 0.97003 0.98823 0.0
H520 H 0.90187 0.17293 0.49307 0.0
H521 H 0.02562 0.22223 0.46244 0.0
H522 H 0.0419 0.16684 0.47837 0.0
H523 H 0.02285 0.10713 0.50639 0.0
H524 H 0.89931 0.05743 0.53725 0.0
H525 H 0.88068 0.10981 0.5147 0.0
C526 C 0.93233 0.17144 0.48972 0.0
C527 C 0.96271 0.20186 0.47721 0.0
C528 C 0.94139 0.13937 0.49866 0.0
C529 C 0.0018 0.1993 0.47229 0.0
C530 C 0.01113 0.16764 0.48137 0.0
C531 C 0.9916 0.1074 0.50752 0.0
C532 C 0.96257 0.07861 0.52372 0.0
C533 C 0.9814 0.13786 0.49526 0.0
C534 C 0.92215 0.07914 0.52467 0.0
C535 C 0.91163 0.10931 0.51222 0.0
H536 H 0.21347 0.6564 0.19781 0.0
H537 H 0.28432 0.69417 0.10303 0.0
H538 H 0.2289 0.65398 0.05936 0.0
H539 H 0.15784 0.6126 0.04737 0.0
H540 H 0.08641 0.57467 0.14153 0.0
H541 H 0.14457 0.6098 0.186 0.0
C542 C 0.21698 0.65551 0.16765 0.0
C543 C 0.25289 0.67873 0.1538 0.0
C544 C 0.18476 0.63234 0.14247 0.0
C545 C 0.25699 0.67691 0.11459 0.0
C546 C 0.22523 0.65392 0.08948 0.0
C547 C 0.15525 0.61162 0.07765 0.0
C548 C 0.11781 0.59147 0.09115 0.0
C549 C 0.18863 0.63221 0.103 0.0
C550 C 0.11492 0.59011 0.13042 0.0
C551 C 0.1481 0.61037 0.15587 0.0
H552 H 0.26029 0.45069 0.64746 0.0
H553 H 0.29649 0.50836 0.7582 0.0
H554 H 0.35469 0.55378 0.73329 0.0
H555 H 0.39738 0.57511 0.68093 0.0
H556 H 0.36571 0.51385 0.57166 0.0
H557 H 0.30369 0.47189 0.5949 0.0
C558 C 0.28082 0.47339 0.66598 0.0
C559 C 0.27415 0.47632 0.70455 0.0
C560 C 0.31512 0.49861 0.65173 0.0
C561 C 0.30118 0.50551 0.72844 0.0
C562 C 0.33441 0.53148 0.71421 0.0
C563 C 0.37667 0.5528 0.66207 0.0
C564 C 0.38599 0.54767 0.62456 0.0
C565 C 0.34198 0.52803 0.67603 0.0
C566 C 0.3592 0.51832 0.60066 0.0
C567 C 0.32377 0.49433 0.61394 0.0
H568 H 0.70241 0.60474 0.855 0.0
H569 H 0.70036 0.67314 0.95509 0.0
H570 H 0.7623 0.66358 0.9829 0.0
H571 H 0.82023 0.64023 0.9766 0.0
H572 H 0.82339 0.57302 0.87613 0.0
H573 H 0.75786 0.57771 0.85064 0.0
C574 C 0.71523 0.61721 0.88308 0.0
C575 C 0.69691 0.63987 0.90278 0.0
C576 C 0.7513 0.61212 0.89868 0.0
C577 C 0.7139 0.65573 0.93919 0.0
C578 C 0.74942 0.65036 0.95511 0.0
C579 C 0.80624 0.62613 0.9494 0.0
C580 C 0.82678 0.60663 0.92812 0.0
C581 C 0.76884 0.62927 0.93479 0.0
C582 C 0.80846 0.58874 0.89275 0.0
C583 C 0.77096 0.5913 0.87824 0.0
H584 H 0.47495 0.87743 0.24562 0.0
H585 H 0.3538 0.88521 0.22416 0.0
H586 H 0.38208 0.9423 0.19279 0.0
H587 H 0.44126 0.98839 0.16775 0.0
H588 H 0.5612 0.97679 0.18521 0.0
H589 H 0.5337 0.92371 0.22188 0.0
C590 C 0.45484 0.89197 0.23467 0.0
C591 C 0.41235 0.87706 0.23743 0.0
C592 C 0.47115 0.9242 0.2155 0.0
C593 C 0.38667 0.89602 0.22245 0.0
C594 C 0.40281 0.92868 0.20437 0.0
C595 C 0.46126 0.97421 0.17954 0.0
C596 C 0.50317 0.98652 0.17331 0.0
C597 C 0.44497 0.94273 0.20003 0.0
C598 C 0.52874 0.96793 0.18926 0.0
C599 C 0.51307 0.93744 0.21035 0.0
H600 H 0.03808 0.23261 0.67854 0.0
H601 H 0.13491 0.21472 0.74978 0.0
H602 H 0.11338 0.14986 0.72465 0.0
H603 H 0.06314 0.09662 0.68555 0.0
H604 H 0.96488 0.11573 0.61754 0.0
H605 H 0.99111 0.18147 0.63778 0.0
C606 C 0.0548 0.21472 0.68845 0.0
C607 C 0.08791 0.22862 0.71627 0.0
C608 C 0.04184 0.17741 0.6744 0.0
C609 C 0.10918 0.20482 0.72852 0.0
C610 C 0.09684 0.16765 0.71417 0.0
C611 C 0.04798 0.11541 0.6749 0.0
C612 C 0.01198 0.10138 0.65035 0.0
C613 C 0.06269 0.15338 0.68756 0.0
C614 C 0.99238 0.12585 0.6368 0.0
C615 C 0.00735 0.16348 0.64836 0.0
H616 H 0.70566 0.40141 0.40749 0.0
H617 H 0.80183 0.49099 0.46963 0.0
H618 H 0.75134 0.51887 0.48978 0.0
H619 H 0.67955 0.5154 0.49374 0.0
H620 H 0.5833 0.42606 0.43152 0.0
H621 H 0.6342 0.40046 0.40762 0.0
C622 C 0.71565 0.42719 0.42519 0.0
C623 C 0.75747 0.44386 0.43728 0.0
C624 C 0.68641 0.44299 0.43693 0.0
C625 C 0.76984 0.4774 0.46003 0.0
C626 C 0.74097 0.49338 0.47164 0.0
C627 C 0.66971 0.49075 0.47434 0.0
C628 C 0.62761 0.47256 0.46468 0.0
C629 C 0.69912 0.4761 0.46079 0.0
C630 C 0.61545 0.44031 0.43991 0.0
C631 C 0.64455 0.4257 0.42612 0.0
loop_
_geom_bond_atom_site_label_1
_geom_bond_atom_site_label_2
_geom_bond_distance
_geom_bond_site_symmetry_2
_ccdc_geom_bond_type
O0 Cd1 2.300 . S
O0 C7 1.275 . S
Cd1 O0 2.300 . S
Cd1 O9 2.381 . S
Cd1 O10 2.378 . S
O2 Cd3 2.385 . S
O2 C7 1.255 . S
Cd3 O2 2.385 . S
Cd3 O4 2.317 . S
O4 Cd3 2.317 . S
O4 C5 1.232 . S
C5 O4 1.232 . S
C5 O6 1.218 . S
O6 C5 1.218 . S
C7 O0 1.275 . S
C7 O2 1.255 . S
C8 O9 1.258 . S
C8 O10 1.256 . S
O9 Cd1 2.381 . S
O9 C8 1.258 . S
O10 Cd1 2.378 . S
O10 C8 1.256 . S
O11 Cd12 2.300 . S
O11 C18 1.275 . S
Cd12 O11 2.300 . S
Cd12 O20 2.381 . S
Cd12 O21 2.378 . S
O13 Cd14 2.385 . S
O13 C18 1.255 . S
Cd14 O13 2.385 . S
Cd14 O15 2.317 . S
O15 Cd14 2.317 . S
O15 C16 1.232 . S
C16 O15 1.232 . S
C16 O17 1.218 . S
O17 C16 1.218 . S
C18 O11 1.275 . S
C18 O13 1.255 . S
C19 O20 1.258 . S
C19 O21 1.256 . S
O20 Cd12 2.381 . S
O20 C19 1.258 . S
O21 Cd12 2.378 . S
O21 C19 1.256 . S
O22 Cd23 2.300 . S
O22 C29 1.275 . S
Cd23 O22 2.300 . S
Cd23 O31 2.381 . S
Cd23 O32 2.378 . S
O24 Cd25 2.385 . S
O24 C29 1.255 . S
Cd25 O24 2.385 . S
Cd25 O26 2.317 . S
O26 Cd25 2.317 . S
O26 C27 1.232 . S
C27 O26 1.232 . S
C27 O28 1.218 . S
O28 C27 1.218 . S
C29 O22 1.275 . S
C29 O24 1.255 . S
C30 O31 1.258 . S
C30 O32 1.256 . S
O31 Cd23 2.381 . S
O31 C30 1.258 . S
O32 Cd23 2.378 . S
O32 C30 1.256 . S
O33 Cd34 2.300 . S
O33 C40 1.275 . S
Cd34 O33 2.300 . S
Cd34 O42 2.381 . S
Cd34 O43 2.378 . S
O35 Cd36 2.385 . S
O35 C40 1.255 . S
Cd36 O35 2.385 . S
Cd36 O37 2.317 . S
O37 Cd36 2.317 . S
O37 C38 1.232 . S
C38 O37 1.232 . S
C38 O39 1.218 . S
O39 C38 1.218 . S
C40 O33 1.275 . S
C40 O35 1.255 . S
C41 O42 1.258 . S
C41 O43 1.256 . S
O42 Cd34 2.381 . S
O42 C41 1.258 . S
O43 Cd34 2.378 . S
O43 C41 1.256 . S
O44 Cd45 2.300 . S
O44 C51 1.275 . S
Cd45 O44 2.300 . S
Cd45 O53 2.381 . S
Cd45 O54 2.378 . S
O46 Cd47 2.385 . S
O46 C51 1.255 . S
Cd47 O46 2.385 . S
Cd47 O48 2.317 . S
O48 Cd47 2.317 . S
O48 C49 1.232 . S
C49 O48 1.232 . S
C49 O50 1.218 . S
O50 C49 1.218 . S
C51 O44 1.275 . S
C51 O46 1.255 . S
C52 O53 1.258 . S
C52 O54 1.256 . S
O53 Cd45 2.381 . S
O53 C52 1.258 . S
O54 Cd45 2.378 . S
O54 C52 1.256 . S
O55 Cd56 2.300 . S
O55 C62 1.275 . S
Cd56 O55 2.300 . S
Cd56 O64 2.381 . S
Cd56 O65 2.378 . S
O57 Cd58 2.385 . S
O57 C62 1.255 . S
Cd58 O57 2.385 . S
Cd58 O59 2.317 . S
O59 Cd58 2.317 . S
O59 C60 1.232 . S
C60 O59 1.232 . S
C60 O61 1.218 . S
O61 C60 1.218 . S
C62 O55 1.275 . S
C62 O57 1.255 . S
C63 O64 1.258 . S
C63 O65 1.256 . S
O64 Cd56 2.381 . S
O64 C63 1.258 . S
O65 Cd56 2.378 . S
O65 C63 1.256 . S
O66 Cd67 2.300 . S
O66 C73 1.275 . S
Cd67 O66 2.300 . S
Cd67 O75 2.381 . S
Cd67 O76 2.378 . S
O68 Cd69 2.385 . S
O68 C73 1.255 . S
Cd69 O68 2.385 . S
Cd69 O70 2.317 . S
O70 Cd69 2.317 . S
O70 C71 1.232 . S
C71 O70 1.232 . S
C71 O72 1.218 . S
O72 C71 1.218 . S
C73 O66 1.275 . S
C73 O68 1.255 . S
C74 O75 1.258 . S
C74 O76 1.256 . S
O75 Cd67 2.381 . S
O75 C74 1.258 . S
O76 Cd67 2.378 . S
O76 C74 1.256 . S
O77 Cd78 2.300 . S
O77 C84 1.275 . S
Cd78 O77 2.300 . S
Cd78 O86 2.381 . S
Cd78 O87 2.378 . S
O79 Cd80 2.385 . S
O79 C84 1.255 . S
Cd80 O79 2.385 . S
Cd80 O81 2.317 . S
O81 Cd80 2.317 . S
O81 C82 1.232 . S
C82 O81 1.232 . S
C82 O83 1.218 . S
O83 C82 1.218 . S
C84 O77 1.275 . S
C84 O79 1.255 . S
C85 O86 1.258 . S
C85 O87 1.256 . S
O86 Cd78 2.381 . S
O86 C85 1.258 . S
O87 Cd78 2.378 . S
O87 C85 1.256 . S
Tb88 C90 2.809 1_545 S
Tb88 O108 2.484 1_545 S
Tb88 O109 2.440 1_545 S
Tb88 O110 2.658 1_655 S
Tb88 O111 2.409 . S
Tb88 O112 2.381 1_645 S
Tb88 O116 2.325 1_545 S
Tb88 O119 2.341 . S
Tb89 C99 2.809 . S
Tb89 O110 2.325 . S
Tb89 O113 2.341 1_545 S
Tb89 O114 2.484 . S
Tb89 O115 2.440 . S
Tb89 O116 2.658 1_445 S
Tb89 O117 2.409 1_545 S
Tb89 O118 2.397 . S
C90 Tb88 2.809 1_565 S
C90 C91 1.514 . S
C90 O108 1.248 . S
C90 O109 1.266 . S
C91 C90 1.514 . S
C91 C92 1.359 . S
C91 C96 1.348 . S
C92 C91 1.359 . S
C92 C93 1.380 . S
C92 H120 0.929 . S
C93 C92 1.380 . S
C93 C94 1.347 . S
C93 H121 0.931 . S
C94 C93 1.347 . S
C94 C95 1.369 . S
C95 C94 1.369 . S
C95 C96 1.408 . S
C95 H122 0.930 . S
C96 C91 1.348 . S
C96 C95 1.408 . S
C96 H123 0.930 . S
C97 O110 1.281 . S
C97 O111 1.254 1_455 S
C98 O112 1.234 . S
C98 O113 1.266 . S
C99 Tb89 2.809 . S
C99 C100 1.514 . S
C99 O114 1.248 . S
C99 O115 1.266 . S
C100 C99 1.514 . S
C100 C101 1.359 . S
C100 C105 1.348 . S
C101 C100 1.359 . S
C101 C102 1.380 . S
C101 H124 0.929 . S
C102 C101 1.380 . S
C102 C103 1.347 . S
C102 H125 0.931 . S
C103 C102 1.347 . S
C103 C104 1.369 . S
C104 C103 1.369 . S
C104 C105 1.408 . S
C104 H126 0.930 . S
C105 C100 1.348 . S
C105 C104 1.408 . S
C105 H127 0.930 . S
C106 O116 1.281 . S
C106 O117 1.254 1_655 S
C107 O118 1.216 1_655 S
C107 O119 1.266 . S
O108 Tb88 2.484 1_565 S
O108 C90 1.248 . S
O109 Tb88 2.440 1_565 S
O109 C90 1.266 . S
O110 Tb88 2.658 1_455 S
O110 Tb89 2.325 . S
O110 C97 1.281 . S
O111 Tb88 2.409 . S
O111 C97 1.254 1_655 S
O112 Tb88 2.381 1_465 S
O112 C98 1.234 . S
O113 Tb89 2.341 1_565 S
O113 C98 1.266 . S
O114 Tb89 2.484 . S
O114 C99 1.248 . S
O115 Tb89 2.440 . S
O115 C99 1.266 . S
O116 Tb88 2.325 1_565 S
O116 Tb89 2.658 1_665 S
O116 C106 1.281 . S
O117 Tb89 2.409 1_565 S
O117 C106 1.254 1_455 S
O118 Tb89 2.397 . S
O118 C107 1.216 1_455 S
O119 Tb88 2.341 . S
O119 C107 1.266 . S
H120 C92 0.929 . S
H121 C93 0.931 . S
H122 C95 0.930 . S
H123 C96 0.930 . S
H124 C101 0.929 . S
H125 C102 0.931 . S
H126 C104 0.930 . S
H127 C105 0.930 . S
Tb128 C130 2.809 . S
Tb128 O148 2.484 . S
Tb128 O149 2.440 . S
Tb128 O150 2.658 1_545 S
Tb128 O151 2.409 1_545 S
Tb128 O152 2.378 . S
Tb128 O156 2.325 . S
Tb128 O159 2.341 . S
Tb129 C139 2.809 1_544 S
Tb129 O150 2.325 1_545 S
Tb129 O153 2.341 . S
Tb129 O154 2.484 1_545 S
Tb129 O155 2.440 1_554 S
Tb129 O156 2.658 . S
Tb129 O157 2.409 1_554 S
Tb129 O158 2.378 1_554 S
C130 Tb128 2.809 . S
C130 C131 1.514 . S
C130 O148 1.248 . S
C130 O149 1.266 . S
C131 C130 1.514 . S
C131 C132 1.359 . S
C131 C136 1.348 . S
C132 C131 1.359 . S
C132 C133 1.380 . S
C132 H160 0.929 . S
C133 C132 1.380 . S
C133 C134 1.347 . S
C133 H161 0.931 . S
C134 C133 1.347 . S
C134 C135 1.369 . S
C135 C134 1.369 . S
C135 C136 1.408 . S
C135 H162 0.930 . S
C136 C131 1.348 . S
C136 C135 1.408 . S
C136 H163 0.930 . S
C137 O150 1.281 . S
C137 O151 1.254 . S
C138 O152 1.236 . S
C138 O153 1.266 . S
C139 Tb129 2.809 1_566 S
C139 C140 1.514 . S
C139 O154 1.249 1_556 S
C139 O155 1.266 1_565 S
C140 C139 1.514 . S
C140 C141 1.359 . S
C140 C145 1.348 . S
C141 C140 1.359 . S
C141 C142 1.380 . S
C141 H164 0.929 . S
C142 C141 1.380 . S
C142 C143 1.347 . S
C142 H165 0.931 . S
C143 C142 1.347 . S
C143 C144 1.369 . S
C144 C143 1.369 . S
C144 C145 1.408 . S
C144 H166 0.930 . S
C145 C140 1.348 . S
C145 C144 1.408 . S
C145 H167 0.930 . S
C146 O156 1.281 . S
C146 O157 1.254 1_554 S
C147 O158 1.236 1_564 S
C147 O159 1.266 1_565 S
O148 Tb128 2.484 . S
O148 C130 1.248 . S
O149 Tb128 2.440 . S
O149 C130 1.266 . S
O150 Tb128 2.658 1_565 S
O150 Tb129 2.325 1_565 S
O150 C137 1.281 . S
O151 Tb128 2.409 1_565 S
O151 C137 1.254 . S
O152 Tb128 2.378 . S
O152 C138 1.236 . S
O153 Tb129 2.341 . S
O153 C138 1.266 . S
O154 Tb129 2.484 1_565 S
O154 C139 1.249 1_554 S
O155 Tb129 2.440 1_556 S
O155 C139 1.266 1_545 S
O156 Tb128 2.325 . S
O156 Tb129 2.658 . S
O156 C146 1.281 . S
O157 Tb129 2.409 1_556 S
O157 C146 1.254 1_556 S
O158 Tb129 2.378 1_556 S
O158 C147 1.236 1_546 S
O159 Tb128 2.341 . S
O159 C147 1.266 1_545 S
H160 C132 0.929 . S
H161 C133 0.931 . S
H162 C135 0.930 . S
H163 C136 0.930 . S
H164 C141 0.929 . S
H165 C142 0.931 . S
H166 C144 0.930 . S
H167 C145 0.930 . S
Tb168 C170 2.809 . S
Tb168 O188 2.484 . S
Tb168 O189 2.440 . S
Tb168 O190 2.658 . S
Tb168 O191 2.409 . S
Tb168 O192 2.378 . S
Tb168 O196 2.325 . S
Tb168 O199 2.341 . S
Tb169 C179 2.809 . S
Tb169 O190 2.325 . S
Tb169 O193 2.341 . S
Tb169 O194 2.484 . S
Tb169 O195 2.440 . S
Tb169 O196 2.658 . S
Tb169 O197 2.409 . S
Tb169 O198 2.378 . S
C170 Tb168 2.809 . S
C170 C171 1.514 . S
C170 O188 1.248 . S
C170 O189 1.266 . S
C171 C170 1.514 . S
C171 C172 1.359 . S
C171 C176 1.348 . S
C172 C171 1.359 . S
C172 C173 1.380 . S
C172 H200 0.929 . S
C173 C172 1.380 . S
C173 C174 1.347 . S
C173 H201 0.931 . S
C174 C173 1.347 . S
C174 C175 1.369 . S
C175 C174 1.369 . S
C175 C176 1.408 . S
C175 H202 0.930 . S
C176 C171 1.348 . S
C176 C175 1.408 . S
C176 H203 0.930 . S
C177 O190 1.281 . S
C177 O191 1.254 . S
C178 O192 1.236 . S
C178 O193 1.266 . S
C179 Tb169 2.809 . S
C179 C180 1.514 . S
C179 O194 1.248 . S
C179 O195 1.266 . S
C180 C179 1.514 . S
C180 C181 1.359 . S
C180 C185 1.348 . S
C181 C180 1.359 . S
C181 C182 1.380 . S
C181 H204 0.929 . S
C182 C181 1.380 . S
C182 C183 1.347 . S
C182 H205 0.931 . S
C183 C182 1.347 . S
C183 C184 1.369 . S
C184 C183 1.369 . S
C184 C185 1.408 . S
C184 H206 0.930 . S
C185 C180 1.348 . S
C185 C184 1.408 . S
C185 H207 0.930 . S
C186 O196 1.281 . S
C186 O197 1.254 . S
C187 O198 1.236 . S
C187 O199 1.266 . S
O188 Tb168 2.484 . S
O188 C170 1.248 . S
O189 Tb168 2.440 . S
O189 C170 1.266 . S
O190 Tb168 2.658 . S
O190 Tb169 2.325 . S
O190 C177 1.281 . S
O191 Tb168 2.409 . S
O191 C177 1.254 . S
O192 Tb168 2.378 . S
O192 C178 1.236 . S
O193 Tb169 2.341 . S
O193 C178 1.266 . S
O194 Tb169 2.484 . S
O194 C179 1.248 . S
O195 Tb169 2.440 . S
O195 C179 1.266 . S
O196 Tb168 2.325 . S
O196 Tb169 2.658 . S
O196 C186 1.281 . S
O197 Tb169 2.409 . S
O197 C186 1.254 . S
O198 Tb169 2.378 . S
O198 C187 1.236 . S
O199 Tb168 2.341 . S
O199 C187 1.266 . S
H200 C172 0.929 . S
H201 C173 0.931 . S
H202 C175 0.930 . S
H203 C176 0.930 . S
H204 C181 0.929 . S
H205 C182 0.931 . S
H206 C184 0.930 . S
H207 C185 0.930 . S
Tb208 C210 2.809 1_455 S
Tb208 O228 2.484 1_455 S
Tb208 O229 2.440 . S
Tb208 O230 2.658 1_556 S
Tb208 O231 2.409 1_556 S
Tb208 O232 2.370 1_456 S
Tb208 O236 2.325 1_455 S
Tb208 O239 2.341 . S
Tb209 C219 2.809 . S
Tb209 O230 2.325 . S
Tb209 O233 2.341 1_455 S
Tb209 O234 2.484 . S
Tb209 O235 2.440 . S
Tb209 O236 2.658 1_454 S
Tb209 O237 2.409 1_455 S
Tb209 O238 2.378 1_554 S
C210 Tb208 2.809 1_655 S
C210 C211 1.514 . S
C210 O228 1.248 . S
C210 O229 1.266 1_655 S
C211 C210 1.514 . S
C211 C212 1.359 . S
C211 C216 1.348 . S
C212 C211 1.359 . S
C212 C213 1.380 . S
C212 H240 0.929 . S
C213 C212 1.380 . S
C213 C214 1.347 . S
C213 H241 0.931 . S
C214 C213 1.347 . S
C214 C215 1.369 . S
C215 C214 1.369 . S
C215 C216 1.408 . S
C215 H242 0.930 . S
C216 C211 1.348 . S
C216 C215 1.408 . S
C216 H243 0.930 . S
C217 O230 1.281 . S
C217 O231 1.254 . S
C218 O232 1.243 . S
C218 O233 1.266 . S
C219 Tb209 2.809 . S
C219 C220 1.514 . S
C219 O234 1.248 . S
C219 O235 1.266 . S
C220 C219 1.514 . S
C220 C221 1.359 . S
C220 C225 1.348 . S
C221 C220 1.359 . S
C221 C222 1.380 . S
C221 H244 0.929 . S
C222 C221 1.380 . S
C222 C223 1.347 . S
C222 H245 0.931 . S
C223 C222 1.347 . S
C223 C224 1.369 . S
C224 C223 1.369 . S
C224 C225 1.408 . S
C224 H246 0.930 . S
C225 C220 1.348 . S
C225 C224 1.408 . S
C225 H247 0.930 . S
C226 O236 1.281 . S
C226 O237 1.254 1_556 S
C227 O238 1.236 . S
C227 O239 1.266 . S
O228 Tb208 2.484 1_655 S
O228 C210 1.248 . S
O229 Tb208 2.440 . S
O229 C210 1.266 1_455 S
O230 Tb208 2.658 1_554 S
O230 Tb209 2.325 . S
O230 C217 1.281 . S
O231 Tb208 2.409 1_554 S
O231 C217 1.254 . S
O232 Tb208 2.370 1_654 S
O232 C218 1.243 . S
O233 Tb209 2.341 1_655 S
O233 C218 1.266 . S
O234 Tb209 2.484 . S
O234 C219 1.248 . S
O235 Tb209 2.440 . S
O235 C219 1.266 . S
O236 Tb208 2.325 1_655 S
O236 Tb209 2.658 1_656 S
O236 C226 1.281 . S
O237 Tb209 2.409 1_655 S
O237 C226 1.254 1_554 S
O238 Tb209 2.378 1_556 S
O238 C227 1.236 . S
O239 Tb208 2.341 . S
O239 C227 1.266 . S
H240 C212 0.929 . S
H241 C213 0.931 . S
H242 C215 0.930 . S
H243 C216 0.930 . S
H244 C221 0.929 . S
H245 C222 0.931 . S
H246 C224 0.930 . S
H247 C225 0.930 . S
H248 C254 0.930 . S
H249 C257 0.930 . S
H250 C258 0.930 . S
H251 C259 0.930 . S
H252 C262 0.930 . S
H253 C263 0.930 . S
C254 H248 0.930 . S
C254 C255 1.355 . S
C254 C256 1.415 . S
C255 C254 1.355 . S
C255 C257 1.419 . S
C256 C254 1.415 . S
C256 C261 1.425 . S
C256 C263 1.409 . S
C257 H249 0.930 . S
C257 C255 1.419 . S
C257 C258 1.362 . S
C258 H250 0.930 . S
C258 C257 1.362 . S
C258 C261 1.409 . S
C259 H251 0.930 . S
C259 C260 1.355 . S
C259 C261 1.415 . S
C260 C259 1.355 . S
C260 C262 1.419 . S
C261 C256 1.425 . S
C261 C258 1.409 . S
C261 C259 1.415 . S
C262 H252 0.930 . S
C262 C260 1.419 . S
C262 C263 1.362 . S
C263 H253 0.930 . S
C263 C256 1.409 . S
C263 C262 1.362 . S
H264 C270 0.930 . S
H265 C273 0.930 . S
H266 C274 0.930 . S
H267 C275 0.930 . S
H268 C278 0.930 . S
H269 C279 0.930 . S
C270 H264 0.930 . S
C270 C271 1.355 . S
C270 C272 1.415 . S
C271 C270 1.355 . S
C271 C273 1.419 . S
C272 C270 1.415 . S
C272 C277 1.425 . S
C272 C279 1.409 . S
C273 H265 0.930 . S
C273 C271 1.419 . S
C273 C274 1.362 . S
C274 H266 0.930 . S
C274 C273 1.362 . S
C274 C277 1.409 . S
C275 H267 0.930 . S
C275 C276 1.355 . S
C275 C277 1.415 . S
C276 C275 1.355 . S
C276 C278 1.419 . S
C277 C272 1.425 . S
C277 C274 1.409 . S
C277 C275 1.415 . S
C278 H268 0.930 . S
C278 C276 1.419 . S
C278 C279 1.362 . S
C279 H269 0.930 . S
C279 C272 1.409 . S
C279 C278 1.362 . S
H280 C286 0.930 . S
H281 C289 0.930 . S
H282 C290 0.930 . S
H283 C291 0.930 . S
H284 C294 0.930 . S
H285 C295 0.930 . S
C286 H280 0.930 . S
C286 C287 1.355 . S
C286 C288 1.415 . S
C287 C286 1.355 . S
C287 C289 1.419 . S
C288 C286 1.415 . S
C288 C293 1.425 . S
C288 C295 1.409 . S
C289 H281 0.930 . S
C289 C287 1.419 . S
C289 C290 1.362 . S
C290 H282 0.930 . S
C290 C289 1.362 . S
C290 C293 1.409 . S
C291 H283 0.930 . S
C291 C292 1.355 . S
C291 C293 1.415 . S
C292 C291 1.355 . S
C292 C294 1.419 . S
C293 C288 1.425 . S
C293 C290 1.409 . S
C293 C291 1.415 . S
C294 H284 0.930 . S
C294 C292 1.419 . S
C294 C295 1.362 . S
C295 H285 0.930 . S
C295 C288 1.409 . S
C295 C294 1.362 . S
H296 C302 0.930 . S
H297 C305 0.930 . S
H298 C306 0.930 . S
H299 C307 0.930 . S
H300 C310 0.930 . S
H301 C311 0.930 . S
C302 H296 0.930 . S
C302 C303 1.355 . S
C302 C304 1.415 . S
C303 C302 1.355 . S
C303 C305 1.419 . S
C304 C302 1.415 . S
C304 C309 1.425 . S
C304 C311 1.409 . S
C305 H297 0.930 . S
C305 C303 1.419 . S
C305 C306 1.362 . S
C306 H298 0.930 . S
C306 C305 1.362 . S
C306 C309 1.409 . S
C307 H299 0.930 . S
C307 C308 1.355 . S
C307 C309 1.415 . S
C308 C307 1.355 . S
C308 C310 1.419 . S
C309 C304 1.425 . S
C309 C306 1.409 . S
C309 C307 1.415 . S
C310 H300 0.930 . S
C310 C308 1.419 . S
C310 C311 1.362 . S
C311 H301 0.930 . S
C311 C304 1.409 . S
C311 C310 1.362 . S
H312 C318 0.930 . S
H313 C321 0.930 . S
H314 C322 0.930 . S
H315 C323 0.930 . S
H316 C326 0.930 . S
H317 C327 0.930 . S
C318 H312 0.930 . S
C318 C319 1.355 . S
C318 C320 1.415 . S
C319 C318 1.355 . S
C319 C321 1.419 . S
C320 C318 1.415 . S
C320 C325 1.425 . S
C320 C327 1.409 . S
C321 H313 0.930 . S
C321 C319 1.419 . S
C321 C322 1.362 . S
C322 H314 0.930 . S
C322 C321 1.362 . S
C322 C325 1.409 . S
C323 H315 0.930 . S
C323 C324 1.355 . S
C323 C325 1.415 . S
C324 C323 1.355 . S
C324 C326 1.419 . S
C325 C320 1.425 . S
C325 C322 1.409 . S
C325 C323 1.415 . S
C326 H316 0.930 . S
C326 C324 1.419 . S
C326 C327 1.362 . S
C327 H317 0.930 . S
C327 C320 1.409 . S
C327 C326 1.362 . S
H328 C334 0.930 . S
H329 C337 0.930 . S
H330 C338 0.930 . S
H331 C339 0.930 . S
H332 C342 0.930 . S
H333 C343 0.930 . S
C334 H328 0.930 . S
C334 C335 1.355 . S
C334 C336 1.415 . S
C335 C334 1.355 . S
C335 C337 1.419 . S
C336 C334 1.415 . S
C336 C341 1.425 . S
C336 C343 1.409 . S
C337 H329 0.930 . S
C337 C335 1.419 . S
C337 C338 1.362 . S
C338 H330 0.930 . S
C338 C337 1.362 . S
C338 C341 1.409 . S
C339 H331 0.930 . S
C339 C340 1.355 . S
C339 C341 1.415 . S
C340 C339 1.355 . S
C340 C342 1.419 . S
C341 C336 1.425 . S
C341 C338 1.409 . S
C341 C339 1.415 . S
C342 H332 0.930 . S
C342 C340 1.419 . S
C342 C343 1.362 . S
C343 H333 0.930 . S
C343 C336 1.409 . S
C343 C342 1.362 . S
H344 C350 0.930 . S
H345 C353 0.930 . S
H346 C354 0.930 . S
H347 C355 0.930 . S
H348 C358 0.930 . S
H349 C359 0.930 . S
C350 H344 0.930 . S
C350 C351 1.355 . S
C350 C352 1.415 . S
C351 C350 1.355 . S
C351 C353 1.419 . S
C352 C350 1.415 . S
C352 C357 1.425 . S
C352 C359 1.409 . S
C353 H345 0.930 . S
C353 C351 1.419 . S
C353 C354 1.362 . S
C354 H346 0.930 . S
C354 C353 1.362 . S
C354 C357 1.409 . S
C355 H347 0.930 . S
C355 C356 1.355 . S
C355 C357 1.415 . S
C356 C355 1.355 . S
C356 C358 1.419 . S
C357 C352 1.425 . S
C357 C354 1.409 . S
C357 C355 1.415 . S
C358 H348 0.930 . S
C358 C356 1.419 . S
C358 C359 1.362 . S
C359 H349 0.930 . S
C359 C352 1.409 . S
C359 C358 1.362 . S
H360 C366 0.930 . S
H361 C369 0.930 . S
H362 C370 0.930 . S
H363 C371 0.930 . S
H364 C374 0.930 . S
H365 C375 0.930 . S
C366 H360 0.930 . S
C366 C367 1.355 . S
C366 C368 1.415 . S
C367 C366 1.355 . S
C367 C369 1.419 . S
C368 C366 1.415 . S
C368 C373 1.425 . S
C368 C375 1.409 . S
C369 H361 0.930 . S
C369 C367 1.419 . S
C369 C370 1.362 . S
C370 H362 0.930 . S
C370 C369 1.362 . S
C370 C373 1.409 . S
C371 H363 0.930 . S
C371 C372 1.355 . S
C371 C373 1.415 . S
C372 C371 1.355 . S
C372 C374 1.419 . S
C373 C368 1.425 . S
C373 C370 1.409 . S
C373 C371 1.415 . S
C374 H364 0.930 . S
C374 C372 1.419 . S
C374 C375 1.362 . S
C375 H365 0.930 . S
C375 C368 1.409 . S
C375 C374 1.362 . S
H376 C382 0.930 . S
H377 C385 0.930 . S
H378 C386 0.930 . S
H379 C387 0.930 . S
H380 C390 0.930 . S
H381 C391 0.930 . S
C382 H376 0.930 . S
C382 C383 1.355 . S
C382 C384 1.415 . S
C383 C382 1.355 . S
C383 C385 1.419 . S
C384 C382 1.415 . S
C384 C389 1.425 . S
C384 C391 1.409 . S
C385 H377 0.930 . S
C385 C383 1.419 . S
C385 C386 1.362 . S
C386 H378 0.930 . S
C386 C385 1.362 . S
C386 C389 1.409 . S
C387 H379 0.930 . S
C387 C388 1.355 . S
C387 C389 1.415 . S
C388 C387 1.355 . S
C388 C390 1.419 . S
C389 C384 1.425 . S
C389 C386 1.409 . S
C389 C387 1.415 . S
C390 H380 0.930 . S
C390 C388 1.419 . S
C390 C391 1.362 . S
C391 H381 0.930 . S
C391 C384 1.409 . S
C391 C390 1.362 . S
H392 C398 0.930 . S
H393 C401 0.930 . S
H394 C402 0.930 . S
H395 C403 0.930 . S
H396 C406 0.930 . S
H397 C407 0.930 . S
C398 H392 0.930 . S
C398 C399 1.355 . S
C398 C400 1.415 . S
C399 C398 1.355 . S
C399 C401 1.419 . S
C400 C398 1.415 . S
C400 C405 1.425 . S
C400 C407 1.409 . S
C401 H393 0.930 . S
C401 C399 1.419 . S
C401 C402 1.362 . S
C402 H394 0.930 . S
C402 C401 1.362 . S
C402 C405 1.409 . S
C403 H395 0.930 . S
C403 C404 1.355 . S
C403 C405 1.415 . S
C404 C403 1.355 . S
C404 C406 1.419 . S
C405 C400 1.425 . S
C405 C402 1.409 . S
C405 C403 1.415 . S
C406 H396 0.930 . S
C406 C404 1.419 . S
C406 C407 1.362 . S
C407 H397 0.930 . S
C407 C400 1.409 . S
C407 C406 1.362 . S
H408 C414 0.930 . S
H409 C417 0.930 . S
H410 C418 0.930 . S
H411 C419 0.930 . S
H412 C422 0.930 . S
H413 C423 0.930 . S
C414 H408 0.930 . S
C414 C415 1.355 . S
C414 C416 1.415 . S
C415 C414 1.355 . S
C415 C417 1.419 . S
C416 C414 1.415 . S
C416 C421 1.425 . S
C416 C423 1.409 . S
C417 H409 0.930 . S
C417 C415 1.419 . S
C417 C418 1.362 . S
C418 H410 0.930 . S
C418 C417 1.362 . S
C418 C421 1.409 . S
C419 H411 0.930 . S
C419 C420 1.355 . S
C419 C421 1.415 . S
C420 C419 1.355 . S
C420 C422 1.419 . S
C421 C416 1.425 . S
C421 C418 1.409 . S
C421 C419 1.415 . S
C422 H412 0.930 . S
C422 C420 1.419 . S
C422 C423 1.362 . S
C423 H413 0.930 . S
C423 C416 1.409 . S
C423 C422 1.362 . S
H424 C430 0.930 . S
H425 C433 0.930 . S
H426 C434 0.930 . S
H427 C435 0.930 . S
H428 C438 0.930 . S
H429 C439 0.930 . S
C430 H424 0.930 . S
C430 C431 1.355 . S
C430 C432 1.415 . S
C431 C430 1.355 . S
C431 C433 1.419 . S
C432 C430 1.415 . S
C432 C437 1.425 . S
C432 C439 1.409 . S
C433 H425 0.930 . S
C433 C431 1.419 . S
C433 C434 1.362 . S
C434 H426 0.930 . S
C434 C433 1.362 . S
C434 C437 1.409 . S
C435 H427 0.930 . S
C435 C436 1.355 . S
C435 C437 1.415 . S
C436 C435 1.355 . S
C436 C438 1.419 . S
C437 C432 1.425 . S
C437 C434 1.409 . S
C437 C435 1.415 . S
C438 H428 0.930 . S
C438 C436 1.419 . S
C438 C439 1.362 . S
C439 H429 0.930 . S
C439 C432 1.409 . S
C439 C438 1.362 . S
H440 C446 0.930 . S
H441 C449 0.930 . S
H442 C450 0.930 . S
H443 C451 0.930 . S
H444 C454 0.930 . S
H445 C455 0.930 . S
C446 H440 0.930 . S
C446 C447 1.355 . S
C446 C448 1.415 . S
C447 C446 1.355 . S
C447 C449 1.419 . S
C448 C446 1.415 . S
C448 C453 1.425 . S
C448 C455 1.409 . S
C449 H441 0.930 . S
C449 C447 1.419 . S
C449 C450 1.362 . S
C450 H442 0.930 . S
C450 C449 1.362 . S
C450 C453 1.409 . S
C451 H443 0.930 . S
C451 C452 1.355 . S
C451 C453 1.415 . S
C452 C451 1.355 . S
C452 C454 1.419 . S
C453 C448 1.425 . S
C453 C450 1.409 . S
C453 C451 1.415 . S
C454 H444 0.930 . S
C454 C452 1.419 . S
C454 C455 1.362 . S
C455 H445 0.930 . S
C455 C448 1.409 . S
C455 C454 1.362 . S
H456 C462 0.930 . S
H457 C465 0.930 . S
H458 C466 0.930 . S
H459 C467 0.930 . S
H460 C470 0.930 . S
H461 C471 0.930 . S
C462 H456 0.930 . S
C462 C463 1.355 . S
C462 C464 1.415 . S
C463 C462 1.355 . S
C463 C465 1.419 . S
C464 C462 1.415 . S
C464 C469 1.425 . S
C464 C471 1.409 . S
C465 H457 0.930 . S
C465 C463 1.419 . S
C465 C466 1.362 . S
C466 H458 0.930 . S
C466 C465 1.362 . S
C466 C469 1.409 . S
C467 H459 0.930 . S
C467 C468 1.355 . S
C467 C469 1.415 . S
C468 C467 1.355 . S
C468 C470 1.419 . S
C469 C464 1.425 . S
C469 C466 1.409 . S
C469 C467 1.415 . S
C470 H460 0.930 . S
C470 C468 1.419 . S
C470 C471 1.362 . S
C471 H461 0.930 . S
C471 C464 1.409 . S
C471 C470 1.362 . S
H472 C478 0.930 . S
H473 C481 0.930 . S
H474 C482 0.930 . S
H475 C483 0.930 . S
H476 C486 0.930 . S
H477 C487 0.930 . S
C478 H472 0.930 . S
C478 C479 1.355 . S
C478 C480 1.415 . S
C479 C478 1.355 . S
C479 C481 1.419 . S
C480 C478 1.415 . S
C480 C485 1.425 . S
C480 C487 1.409 . S
C481 H473 0.930 . S
C481 C479 1.419 . S
C481 C482 1.362 . S
C482 H474 0.930 . S
C482 C481 1.362 . S
C482 C485 1.409 . S
C483 H475 0.930 . S
C483 C484 1.355 . S
C483 C485 1.415 . S
C484 C483 1.355 . S
C484 C486 1.419 . S
C485 C480 1.425 . S
C485 C482 1.409 . S
C485 C483 1.415 . S
C486 H476 0.930 . S
C486 C484 1.419 . S
C486 C487 1.362 . S
C487 H477 0.930 . S
C487 C480 1.409 . S
C487 C486 1.362 . S
H488 C494 0.930 . S
H489 C497 0.930 . S
H490 C498 0.930 . S
H491 C499 0.930 . S
H492 C502 0.930 . S
H493 C503 0.930 . S
C494 H488 0.930 . S
C494 C495 1.355 . S
C494 C496 1.415 . S
C495 C494 1.355 . S
C495 C497 1.419 . S
C496 C494 1.415 . S
C496 C501 1.425 . S
C496 C503 1.409 . S
C497 H489 0.930 . S
C497 C495 1.419 . S
C497 C498 1.362 . S
C498 H490 0.930 . S
C498 C497 1.362 . S
C498 C501 1.409 . S
C499 H491 0.930 . S
C499 C500 1.355 . S
C499 C501 1.415 . S
C500 C499 1.355 . S
C500 C502 1.419 . S
C501 C496 1.425 . S
C501 C498 1.409 . S
C501 C499 1.415 . S
C502 H492 0.930 . S
C502 C500 1.419 . S
C502 C503 1.362 . S
C503 H493 0.930 . S
C503 C496 1.409 . S
C503 C502 1.362 . S
H504 C510 0.930 . S
H505 C513 0.930 . S
H506 C514 0.930 . S
H507 C515 0.930 1_554 S
H508 C518 0.930 . S
H509 C519 0.930 . S
C510 H504 0.930 . S
C510 C511 1.355 . S
C510 C512 1.415 . S
C511 C510 1.355 . S
C511 C513 1.419 . S
C512 C510 1.415 . S
C512 C517 1.425 . S
C512 C519 1.409 . S
C513 H505 0.930 . S
C513 C511 1.419 . S
C513 C514 1.362 . S
C514 H506 0.930 . S
C514 C513 1.362 . S
C514 C517 1.409 . S
C515 H507 0.930 1_556 S
C515 C516 1.355 . S
C515 C517 1.415 . S
C516 C515 1.355 . S
C516 C518 1.419 . S
C517 C512 1.425 . S
C517 C514 1.409 . S
C517 C515 1.415 . S
C518 H508 0.930 . S
C518 C516 1.419 . S
C518 C519 1.362 . S
C519 H509 0.930 . S
C519 C512 1.409 . S
C519 C518 1.362 . S
H520 C526 0.930 . S
H521 C529 0.930 . S
H522 C530 0.930 . S
H523 C531 0.930 1_455 S
H524 C534 0.930 . S
H525 C535 0.930 . S
C526 H520 0.930 . S
C526 C527 1.355 . S
C526 C528 1.415 . S
C527 C526 1.355 . S
C527 C529 1.419 1_655 S
C528 C526 1.415 . S
C528 C533 1.425 . S
C528 C535 1.409 . S
C529 H521 0.930 . S
C529 C527 1.419 1_455 S
C529 C530 1.362 . S
C530 H522 0.930 . S
C530 C529 1.362 . S
C530 C533 1.409 1_455 S
C531 H523 0.930 1_655 S
C531 C532 1.355 . S
C531 C533 1.415 . S
C532 C531 1.355 . S
C532 C534 1.419 . S
C533 C528 1.425 . S
C533 C530 1.409 1_655 S
C533 C531 1.415 . S
C534 H524 0.930 . S
C534 C532 1.419 . S
C534 C535 1.362 . S
C535 H525 0.930 . S
C535 C528 1.409 . S
C535 C534 1.362 . S
H536 C542 0.930 . S
H537 C545 0.930 . S
H538 C546 0.930 . S
H539 C547 0.930 . S
H540 C550 0.930 . S
H541 C551 0.930 . S
C542 H536 0.930 . S
C542 C543 1.355 . S
C542 C544 1.415 . S
C543 C542 1.355 . S
C543 C545 1.419 . S
C544 C542 1.415 . S
C544 C549 1.425 . S
C544 C551 1.409 . S
C545 H537 0.930 . S
C545 C543 1.419 . S
C545 C546 1.362 . S
C546 H538 0.930 . S
C546 C545 1.362 . S
C546 C549 1.409 . S
C547 H539 0.930 . S
C547 C548 1.355 . S
C547 C549 1.415 . S
C548 C547 1.355 . S
C548 C550 1.419 . S
C549 C544 1.425 . S
C549 C546 1.409 . S
C549 C547 1.415 . S
C550 H540 0.930 . S
C550 C548 1.419 . S
C550 C551 1.362 . S
C551 H541 0.930 . S
C551 C544 1.409 . S
C551 C550 1.362 . S
H552 C558 0.930 . S
H553 C561 0.930 . S
H554 C562 0.930 . S
H555 C563 0.930 . S
H556 C566 0.930 . S
H557 C567 0.930 . S
C558 H552 0.930 . S
C558 C559 1.355 . S
C558 C560 1.415 . S
C559 C558 1.355 . S
C559 C561 1.419 . S
C560 C558 1.415 . S
C560 C565 1.425 . S
C560 C567 1.409 . S
C561 H553 0.930 . S
C561 C559 1.419 . S
C561 C562 1.362 . S
C562 H554 0.930 . S
C562 C561 1.362 . S
C562 C565 1.409 . S
C563 H555 0.930 . S
C563 C564 1.355 . S
C563 C565 1.415 . S
C564 C563 1.355 . S
C564 C566 1.419 . S
C565 C560 1.425 . S
C565 C562 1.409 . S
C565 C563 1.415 . S
C566 H556 0.930 . S
C566 C564 1.419 . S
C566 C567 1.362 . S
C567 H557 0.930 . S
C567 C560 1.409 . S
C567 C566 1.362 . S
H568 C574 0.930 . S
H569 C577 0.930 . S
H570 C578 0.930 . S
H571 C579 0.930 . S
H572 C582 0.930 . S
H573 C583 0.930 . S
C574 H568 0.930 . S
C574 C575 1.355 . S
C574 C576 1.415 . S
C575 C574 1.355 . S
C575 C577 1.419 . S
C576 C574 1.415 . S
C576 C581 1.425 . S
C576 C583 1.409 . S
C577 H569 0.930 . S
C577 C575 1.419 . S
C577 C578 1.362 . S
C578 H570 0.930 . S
C578 C577 1.362 . S
C578 C581 1.409 . S
C579 H571 0.930 . S
C579 C580 1.355 . S
C579 C581 1.415 . S
C580 C579 1.355 . S
C580 C582 1.419 . S
C581 C576 1.425 . S
C581 C578 1.409 . S
C581 C579 1.415 . S
C582 H572 0.930 . S
C582 C580 1.419 . S
C582 C583 1.362 . S
C583 H573 0.930 . S
C583 C576 1.409 . S
C583 C582 1.362 . S
H584 C590 0.930 . S
H585 C593 0.930 . S
H586 C594 0.930 . S
H587 C595 0.930 . S
H588 C598 0.930 . S
H589 C599 0.930 . S
C590 H584 0.930 . S
C590 C591 1.355 . S
C590 C592 1.415 . S
C591 C590 1.355 . S
C591 C593 1.419 . S
C592 C590 1.415 . S
C592 C597 1.425 . S
C592 C599 1.409 . S
C593 H585 0.930 . S
C593 C591 1.419 . S
C593 C594 1.362 . S
C594 H586 0.930 . S
C594 C593 1.362 . S
C594 C597 1.409 . S
C595 H587 0.930 . S
C595 C596 1.355 . S
C595 C597 1.415 . S
C596 C595 1.355 . S
C596 C598 1.419 . S
C597 C592 1.425 . S
C597 C594 1.409 . S
C597 C595 1.415 . S
C598 H588 0.930 . S
C598 C596 1.419 . S
C598 C599 1.362 . S
C599 H589 0.930 . S
C599 C592 1.409 . S
C599 C598 1.362 . S
H600 C606 0.930 . S
H601 C609 0.930 . S
H602 C610 0.930 . S
H603 C611 0.930 . S
H604 C614 0.930 . S
H605 C615 0.930 . S
C606 H600 0.930 . S
C606 C607 1.355 . S
C606 C608 1.415 . S
C607 C606 1.355 . S
C607 C609 1.419 . S
C608 C606 1.415 . S
C608 C613 1.425 . S
C608 C615 1.409 . S
C609 H601 0.930 . S
C609 C607 1.419 . S
C609 C610 1.362 . S
C610 H602 0.930 . S
C610 C609 1.362 . S
C610 C613 1.409 . S
C611 H603 0.930 . S
C611 C612 1.355 . S
C611 C613 1.415 . S
C612 C611 1.355 . S
C612 C614 1.419 . S
C613 C608 1.425 . S
C613 C610 1.409 . S
C613 C611 1.415 . S
C614 H604 0.930 . S
C614 C612 1.419 . S
C614 C615 1.362 . S
C615 H605 0.930 . S
C615 C608 1.409 . S
C615 C614 1.362 . S
H616 C622 0.930 . S
H617 C625 0.930 . S
H618 C626 0.930 . S
H619 C627 0.930 . S
H620 C630 0.930 . S
H621 C631 0.930 . S
C622 H616 0.930 . S
C622 C623 1.355 . S
C622 C624 1.415 . S
C623 C622 1.355 . S
C623 C625 1.419 . S
C624 C622 1.415 . S
C624 C629 1.425 . S
C624 C631 1.409 . S
C625 H617 0.930 . S
C625 C623 1.419 . S
C625 C626 1.362 . S
C626 H618 0.930 . S
C626 C625 1.362 . S
C626 C629 1.409 . S
C627 H619 0.930 . S
C627 C628 1.355 . S
C627 C629 1.415 . S
C628 C627 1.355 . S
C628 C630 1.419 . S
C629 C624 1.425 . S
C629 C626 1.409 . S
C629 C627 1.415 . S
C630 H620 0.930 . S
C630 C628 1.419 . S
C630 C631 1.362 . S
C631 H621 0.930 . S
C631 C624 1.409 . S
C631 C630 1.362 . S
C255 C5 1.187 . S
C260 C103 1.343 . S
C271 C18 1.129 . S
C276 C143 1.148 . S
C292 C177 2.166 . S
C287 C30 2.184 . S
C303 C41 2.381 . S
C308 C218 2.335 . S
C324 C138 1.470 . S
C319 C7 1.323 . S
C340 C98 2.143 . S
C335 C16 2.101 . S
C356 C226 1.691 . S
C351 C29 1.693 . S
C372 C187 1.442 . S
C367 C38 1.153 . S
C383 C8 1.343 . S
C388 C223 1.438 . S
C404 C146 2.231 1_556 S
C399 C27 2.106 . S
C415 C40 2.446 . S
C420 C106 2.423 . S
C431 C19 1.463 . S
C436 C174 1.491 . S
C452 C94 1.314 . S
C447 C51 1.089 . S
C463 C62 1.518 . S
C468 C134 1.410 . S
C479 C74 2.363 . S
C484 C186 2.364 . S
C495 C84 2.296 . S
C500 C227 2.350 . S
C511 C49 1.403 . S
C516 C147 1.827 1_556 S
C532 C107 2.171 . S
C527 C63 2.114 . S
C548 C217 1.548 . S
C543 C71 1.412 . S
C564 C178 1.696 . S
C559 C85 1.744 . S
C575 C52 1.414 . S
C580 C214 1.499 . S
C596 C137 2.264 . S
C591 C73 2.352 . S
C612 C97 2.067 . S
C607 C82 1.984 . S
C623 C60 1.470 . S
C628 C183 1.584 . S
