# Generated by pormake.
# Topology cor, (4,6)-cn, num edge types: 1
# Building blocks:
#     Node 0, Type 0, BuildingBlock: QUQFOY_clean_sbu_3, # of connection points: 4
#     Node 1, Type 0, BuildingBlock: QUQFOY_clean_sbu_3, # of connection points: 4
#     Node 2, Type 0, BuildingBlock: QUQFOY_clean_sbu_3, # of connection points: 4
#     Node 3, Type 0, BuildingBlock: QUQFOY_clean_sbu_3, # of connection points: 4
#     Node 4, Type 0, BuildingBlock: QUQFOY_clean_sbu_3, # of connection points: 4
#     Node 5, Type 0, BuildingBlock: QUQFOY_clean_sbu_3, # of connection points: 4
#     Node 6, Type 0, BuildingBlock: QUQFOY_clean_sbu_3, # of connection points: 4
#     Node 7, Type 0, BuildingBlock: QUQFOY_clean_sbu_3, # of connection points: 4
#     Node 8, Type 0, BuildingBlock: QUQFOY_clean_sbu_3, # of connection points: 4
#     Node 9, Type 0, BuildingBlock: QUQFOY_clean_sbu_3, # of connection points: 4
#     Node 10, Type 0, BuildingBlock: QUQFOY_clean_sbu_3, # of connection points: 4
#     Node 11, Type 0, BuildingBlock: QUQFOY_clean_sbu_3, # of connection points: 4
#     Node 12, Type 0, BuildingBlock: QUQFOY_clean_sbu_3, # of connection points: 4
#     Node 13, Type 0, BuildingBlock: QUQFOY_clean_sbu_3, # of connection points: 4
#     Node 14, Type 0, BuildingBlock: QUQFOY_clean_sbu_3, # of connection points: 4
#     Node 15, Type 0, BuildingBlock: QUQFOY_clean_sbu_3, # of connection points: 4
#     Node 16, Type 0, BuildingBlock: QUQFOY_clean_sbu_3, # of connection points: 4
#     Node 17, Type 0, BuildingBlock: QUQFOY_clean_sbu_3, # of connection points: 4
#     Node 18, Type 1, BuildingBlock: MIDCAF_clean_sbu_0, # of connection points: 6
#     Node 19, Type 1, BuildingBlock: MIDCAF_clean_sbu_0, # of connection points: 6
#     Node 20, Type 1, BuildingBlock: MIDCAF_clean_sbu_0, # of connection points: 6
#     Node 21, Type 1, BuildingBlock: MIDCAF_clean_sbu_0, # of connection points: 6
#     Node 22, Type 1, BuildingBlock: MIDCAF_clean_sbu_0, # of connection points: 6
#     Node 23, Type 1, BuildingBlock: MIDCAF_clean_sbu_0, # of connection points: 6
#     Node 24, Type 1, BuildingBlock: MIDCAF_clean_sbu_0, # of connection points: 6
#     Node 25, Type 1, BuildingBlock: MIDCAF_clean_sbu_0, # of connection points: 6
#     Node 26, Type 1, BuildingBlock: MIDCAF_clean_sbu_0, # of connection points: 6
#     Node 27, Type 1, BuildingBlock: MIDCAF_clean_sbu_0, # of connection points: 6
#     Node 28, Type 1, BuildingBlock: MIDCAF_clean_sbu_0, # of connection points: 6
#     Node 29, Type 1, BuildingBlock: MIDCAF_clean_sbu_0, # of connection points: 6
#     Edge 30, Type (0, 1), BuildingBlock: UVAHIK_clean_linker_0, # of connection points: 2
#     Edge 31, Type (0, 1), BuildingBlock: UVAHIK_clean_linker_0, # of connection points: 2
#     Edge 32, Type (0, 1), BuildingBlock: UVAHIK_clean_linker_0, # of connection points: 2
#     Edge 33, Type (0, 1), BuildingBlock: UVAHIK_clean_linker_0, # of connection points: 2
#     Edge 34, Type (0, 1), BuildingBlock: UVAHIK_clean_linker_0, # of connection points: 2
#     Edge 35, Type (0, 1), BuildingBlock: UVAHIK_clean_linker_0, # of connection points: 2
#     Edge 36, Type (0, 1), BuildingBlock: UVAHIK_clean_linker_0, # of connection points: 2
#     Edge 37, Type (0, 1), BuildingBlock: UVAHIK_clean_linker_0, # of connection points: 2
#     Edge 38, Type (0, 1), BuildingBlock: UVAHIK_clean_linker_0, # of connection points: 2
#     Edge 39, Type (0, 1), BuildingBlock: UVAHIK_clean_linker_0, # of connection points: 2
#     Edge 40, Type (0, 1), BuildingBlock: UVAHIK_clean_linker_0, # of connection points: 2
#     Edge 41, Type (0, 1), BuildingBlock: UVAHIK_clean_linker_0, # of connection points: 2
#     Edge 42, Type (0, 1), BuildingBlock: UVAHIK_clean_linker_0, # of connection points: 2
#     Edge 43, Type (0, 1), BuildingBlock: UVAHIK_clean_linker_0, # of connection points: 2
#     Edge 44, Type (0, 1), BuildingBlock: UVAHIK_clean_linker_0, # of connection points: 2
#     Edge 45, Type (0, 1), BuildingBlock: UVAHIK_clean_linker_0, # of connection points: 2
#     Edge 46, Type (0, 1), BuildingBlock: UVAHIK_clean_linker_0, # of connection points: 2
#     Edge 47, Type (0, 1), BuildingBlock: UVAHIK_clean_linker_0, # of connection points: 2
#     Edge 48, Type (0, 1), BuildingBlock: UVAHIK_clean_linker_0, # of connection points: 2
#     Edge 49, Type (0, 1), BuildingBlock: UVAHIK_clean_linker_0, # of connection points: 2
#     Edge 50, Type (0, 1), BuildingBlock: UVAHIK_clean_linker_0, # of connection points: 2
#     Edge 51, Type (0, 1), BuildingBlock: UVAHIK_clean_linker_0, # of connection points: 2
#     Edge 52, Type (0, 1), BuildingBlock: UVAHIK_clean_linker_0, # of connection points: 2
#     Edge 53, Type (0, 1), BuildingBlock: UVAHIK_clean_linker_0, # of connection points: 2
#     Edge 54, Type (0, 1), BuildingBlock: UVAHIK_clean_linker_0, # of connection points: 2
#     Edge 55, Type (0, 1), BuildingBlock: UVAHIK_clean_linker_0, # of connection points: 2
#     Edge 56, Type (0, 1), BuildingBlock: UVAHIK_clean_linker_0, # of connection points: 2
#     Edge 57, Type (0, 1), BuildingBlock: UVAHIK_clean_linker_0, # of connection points: 2
#     Edge 58, Type (0, 1), BuildingBlock: UVAHIK_clean_linker_0, # of connection points: 2
#     Edge 59, Type (0, 1), BuildingBlock: UVAHIK_clean_linker_0, # of connection points: 2
#     Edge 60, Type (0, 1), BuildingBlock: UVAHIK_clean_linker_0, # of connection points: 2
#     Edge 61, Type (0, 1), BuildingBlock: UVAHIK_clean_linker_0, # of connection points: 2
#     Edge 62, Type (0, 1), BuildingBlock: UVAHIK_clean_linker_0, # of connection points: 2
#     Edge 63, Type (0, 1), BuildingBlock: UVAHIK_clean_linker_0, # of connection points: 2
#     Edge 64, Type (0, 1), BuildingBlock: UVAHIK_clean_linker_0, # of connection points: 2
#     Edge 65, Type (0, 1), BuildingBlock: UVAHIK_clean_linker_0, # of connection points: 2
#     Edge 66, Type (0, 1), BuildingBlock: UVAHIK_clean_linker_0, # of connection points: 2
#     Edge 67, Type (0, 1), BuildingBlock: UVAHIK_clean_linker_0, # of connection points: 2
#     Edge 68, Type (0, 1), BuildingBlock: UVAHIK_clean_linker_0, # of connection points: 2
#     Edge 69, Type (0, 1), BuildingBlock: UVAHIK_clean_linker_0, # of connection points: 2
#     Edge 70, Type (0, 1), BuildingBlock: UVAHIK_clean_linker_0, # of connection points: 2
#     Edge 71, Type (0, 1), BuildingBlock: UVAHIK_clean_linker_0, # of connection points: 2
#     Edge 72, Type (0, 1), BuildingBlock: UVAHIK_clean_linker_0, # of connection points: 2
#     Edge 73, Type (0, 1), BuildingBlock: UVAHIK_clean_linker_0, # of connection points: 2
#     Edge 74, Type (0, 1), BuildingBlock: UVAHIK_clean_linker_0, # of connection points: 2
#     Edge 75, Type (0, 1), BuildingBlock: UVAHIK_clean_linker_0, # of connection points: 2
#     Edge 76, Type (0, 1), BuildingBlock: UVAHIK_clean_linker_0, # of connection points: 2
#     Edge 77, Type (0, 1), BuildingBlock: UVAHIK_clean_linker_0, # of connection points: 2
#     Edge 78, Type (0, 1), BuildingBlock: UVAHIK_clean_linker_0, # of connection points: 2
#     Edge 79, Type (0, 1), BuildingBlock: UVAHIK_clean_linker_0, # of connection points: 2
#     Edge 80, Type (0, 1), BuildingBlock: UVAHIK_clean_linker_0, # of connection points: 2
#     Edge 81, Type (0, 1), BuildingBlock: UVAHIK_clean_linker_0, # of connection points: 2
#     Edge 82, Type (0, 1), BuildingBlock: UVAHIK_clean_linker_0, # of connection points: 2
#     Edge 83, Type (0, 1), BuildingBlock: UVAHIK_clean_linker_0, # of connection points: 2
#     Edge 84, Type (0, 1), BuildingBlock: UVAHIK_clean_linker_0, # of connection points: 2
#     Edge 85, Type (0, 1), BuildingBlock: UVAHIK_clean_linker_0, # of connection points: 2
#     Edge 86, Type (0, 1), BuildingBlock: UVAHIK_clean_linker_0, # of connection points: 2
#     Edge 87, Type (0, 1), BuildingBlock: UVAHIK_clean_linker_0, # of connection points: 2
#     Edge 88, Type (0, 1), BuildingBlock: UVAHIK_clean_linker_0, # of connection points: 2
#     Edge 89, Type (0, 1), BuildingBlock: UVAHIK_clean_linker_0, # of connection points: 2
#     Edge 90, Type (0, 1), BuildingBlock: UVAHIK_clean_linker_0, # of connection points: 2
#     Edge 91, Type (0, 1), BuildingBlock: UVAHIK_clean_linker_0, # of connection points: 2
#     Edge 92, Type (0, 1), BuildingBlock: UVAHIK_clean_linker_0, # of connection points: 2
#     Edge 93, Type (0, 1), BuildingBlock: UVAHIK_clean_linker_0, # of connection points: 2
#     Edge 94, Type (0, 1), BuildingBlock: UVAHIK_clean_linker_0, # of connection points: 2
#     Edge 95, Type (0, 1), BuildingBlock: UVAHIK_clean_linker_0, # of connection points: 2
#     Edge 96, Type (0, 1), BuildingBlock: UVAHIK_clean_linker_0, # of connection points: 2
#     Edge 97, Type (0, 1), BuildingBlock: UVAHIK_clean_linker_0, # of connection points: 2
#     Edge 98, Type (0, 1), BuildingBlock: UVAHIK_clean_linker_0, # of connection points: 2
#     Edge 99, Type (0, 1), BuildingBlock: UVAHIK_clean_linker_0, # of connection points: 2
#     Edge 100, Type (0, 1), BuildingBlock: UVAHIK_clean_linker_0, # of connection points: 2
#     Edge 101, Type (0, 1), BuildingBlock: UVAHIK_clean_linker_0, # of connection points: 2
# Relax obj value: 0.108
# Max RMSD: 0.161
# Mean RMSD: 0.107
data_MOF--net-cor--node1-QUQFOY_clean_sbu_3--node2-MIDCAF_clean_sbu_0--edge1-UVAHIK_clean_linker_0
_symmetry_space_group_name_H-M    P1
_symmetry_Int_Tables_number       1
_symmetry_cell_setting            triclinic
loop_
_symmetry_equiv_pos_as_xyz
'x, y, z'
_cell_length_a     50.268785
_cell_length_b     50.28752
_cell_length_c     130.93483
_cell_angle_alpha  89.940012
_cell_angle_beta   89.950953
_cell_angle_gamma 120.4913
loop_
_atom_site_label
_atom_site_type_symbol
_atom_site_fract_x
_atom_site_fract_y
_atom_site_fract_z
_atom_type_partial_charge
C0 C 0.70005 0.95939 0.24864 0.0
O1 O 0.71332 0.94645 0.24445 0.0
Cd2 Cd 0.76596 0.97521 0.23885 0.0
O3 O 0.71415 0.98862 0.24956 0.0
Cd4 Cd 0.76506 0.03322 0.245 0.0
C5 C 0.79951 0.009 0.2616 0.0
O6 O 0.7727 0.01689 0.22809 0.0
O7 O 0.81236 0.05588 0.23499 0.0
O8 O 0.73694 0.05707 0.23877 0.0
C9 C 0.79989 0.03971 0.2271 0.0
O10 O 0.79611 0.9902 0.25452 0.0
C11 C 0.75364 0.08294 0.24307 0.0
O12 O 0.78878 0.02701 0.26059 0.0
O13 O 0.77473 0.08521 0.24898 0.0
C14 C 0.94073 0.68922 0.25031 0.0
O15 O 0.92946 0.70048 0.25641 0.0
Cd16 Cd 0.96007 0.75383 0.26048 0.0
O17 O 0.96954 0.70374 0.24828 0.0
Cd18 Cd 0.01738 0.75046 0.25479 0.0
C19 C -0.00442 0.78236 0.23682 0.0
O20 O 0.00137 0.76129 0.27125 0.0
O21 O 0.03911 0.80013 0.26357 0.0
O22 O 0.03386 0.71582 0.26148 0.0
C23 C 0.02309 0.7892 0.27162 0.0
O24 O 0.97569 0.77843 0.24361 0.0
C25 C 0.06197 0.73233 0.25887 0.0
O26 O 0.01517 0.77387 0.23852 0.0
O27 O 0.06917 0.75646 0.25368 0.0
C28 C 0.2718 0.34387 0.25582 0.0
O29 O 0.24638 0.33296 0.25108 0.0
Cd30 Cd 0.21832 0.28009 0.24598 0.0
O31 O 0.28466 0.32774 0.25682 0.0
Cd32 Cd 0.27488 0.27603 0.25111 0.0
C33 C 0.21883 0.24653 0.26888 0.0
O34 O 0.24785 0.26744 0.2346 0.0
O35 O 0.24424 0.22748 0.24217 0.0
O36 O 0.32538 0.30121 0.24314 0.0
C37 C 0.24046 0.23926 0.23413 0.0
O38 O 0.20448 0.25324 0.26232 0.0
C39 C 0.33481 0.28468 0.24728 0.0
O40 O 0.24624 0.2524 0.26711 0.0
O41 O 0.31707 0.26511 0.25389 0.0
C42 C 0.34363 0.08207 0.74231 0.0
O43 O 0.3333 0.09611 0.74754 0.0
Cd44 Cd 0.2808 0.0693 0.75341 0.0
O45 O 0.32802 0.05278 0.74149 0.0
Cd46 Cd 0.27911 0.00912 0.74857 0.0
C47 C 0.24542 0.03158 0.73109 0.0
O48 O 0.2719 0.02883 0.76505 0.0
O49 O 0.23225 0.98834 0.7587 0.0
O50 O 0.30812 0.98729 0.75593 0.0
C51 C 0.24459 0.00624 0.76625 0.0
O52 O 0.25137 0.05275 0.73757 0.0
C53 C 0.29133 0.96034 0.75234 0.0
O54 O 0.25341 0.01164 0.73283 0.0
O55 O 0.27003 0.95651 0.74621 0.0
C56 C 0.92944 0.2779 0.74957 0.0
O57 O 0.9146 0.25309 0.75466 0.0
Cd58 Cd 0.93997 0.22563 0.75967 0.0
O59 O 0.95849 0.29031 0.74845 0.0
Cd60 Cd -0.00017 0.28106 0.75454 0.0
C61 C 0.97344 0.22645 0.73661 0.0
O62 O 0.98288 0.25316 0.77107 0.0
O63 O 0.01795 0.24994 0.76244 0.0
O64 O 0.02223 0.3303 0.76297 0.0
C65 C 0.00394 0.2462 0.77086 0.0
O66 O 0.95294 0.2118 0.74339 0.0
C67 C 0.04941 0.34097 0.75955 0.0
O68 O -0.00522 0.25426 0.73819 0.0
O69 O 0.05335 0.32464 0.75297 0.0
C70 C 0.68235 0.77967 0.7505 0.0
O71 O 0.69451 0.8017 0.74412 0.0
Cd72 Cd 0.74559 0.81683 0.73824 0.0
O73 O 0.69444 0.76315 0.75215 0.0
Cd74 Cd 0.73636 0.75512 0.74637 0.0
C75 C 0.77651 0.81515 0.76175 0.0
O76 O 0.74693 0.77625 0.72898 0.0
O77 O 0.78298 0.77203 0.73652 0.0
O78 O 0.69797 0.70368 0.74118 0.0
C79 C 0.77258 0.77705 0.72837 0.0
O80 O 0.77361 0.8301 0.7544 0.0
C81 C 0.70962 0.68992 0.74587 0.0
O82 O 0.76475 0.78602 0.76119 0.0
O83 O 0.7332 0.70646 0.75139 0.0
C84 C 0.34941 0.25234 0.58337 0.0
O85 O 0.36275 0.23831 0.58007 0.0
Cd86 Cd 0.41016 0.26094 0.57082 0.0
O87 O 0.36054 0.281 0.5815 0.0
Cd88 Cd 0.40691 0.32255 0.57244 0.0
C89 C 0.45243 0.31236 0.5896 0.0
O90 O 0.40508 0.29137 0.55782 0.0
O91 O 0.44534 0.33696 0.5588 0.0
O92 O 0.37634 0.34439 0.56589 0.0
C93 C 0.42953 0.31246 0.55369 0.0
O94 O 0.44681 0.28871 0.5844 0.0
C95 C 0.3956 0.37198 0.56847 0.0
O96 O 0.44031 0.32844 0.58715 0.0
O97 O 0.4191 0.3762 0.57345 0.0
C98 C 0.60705 0.03518 0.57422 0.0
O99 O 0.59671 0.05352 0.57449 0.0
Cd100 Cd 0.62474 0.10587 0.57964 0.0
O101 O 0.63457 0.04397 0.57711 0.0
Cd102 Cd 0.67935 0.09383 0.58368 0.0
C103 C 0.68193 0.13066 0.56161 0.0
O104 O 0.65021 0.10776 0.59533 0.0
O105 O 0.6967 0.14379 0.59199 0.0
O106 O 0.69577 0.06752 0.59587 0.0
C107 C 0.67253 0.13446 0.59734 0.0
O108 O 0.6579 0.13025 0.5649 0.0
C109 C 0.72353 0.08076 0.59275 0.0
O110 O 0.69442 0.11836 0.56673 0.0
O111 O 0.73021 0.09884 0.58517 0.0
C112 C 0.91338 0.66053 0.5888 0.0
O113 O 0.88541 0.64225 0.58636 0.0
Cd114 Cd 0.86406 0.59297 0.5785 0.0
O115 O 0.93413 0.65354 0.58701 0.0
Cd116 Cd 0.93349 0.60765 0.57879 0.0
C117 C 0.88327 0.5573 0.59675 0.0
O118 O 0.89939 0.60341 0.56483 0.0
O119 O 0.90994 0.56709 0.56525 0.0
O120 O 0.98547 0.63842 0.57115 0.0
C121 C 0.89742 0.57998 0.56056 0.0
O122 O 0.86167 0.55826 0.59202 0.0
C123 C -0.00418 0.6223 0.57505 0.0
O124 O 0.91116 0.57392 0.59382 0.0
O125 O 0.97777 0.60058 0.58098 0.0
C126 C 0.01174 0.41907 0.08437 0.0
O127 O 0.0005 0.4336 0.08881 0.0
Cd128 Cd 0.94743 0.4087 0.09362 0.0
O129 O -0.00457 0.38989 0.08325 0.0
Cd130 Cd 0.94276 0.34713 0.0883 0.0
C131 C 0.91422 0.37486 0.07059 0.0
O132 O 0.93613 0.3664 0.10484 0.0
O133 O 0.8951 0.32863 0.09814 0.0
O134 O 0.96874 0.3221 0.09555 0.0
C135 C 0.90805 0.34546 0.10588 0.0
O136 O 0.92106 0.39595 0.07718 0.0
C137 C 0.95207 0.29601 0.09139 0.0
O138 O 0.91966 0.35312 0.07235 0.0
O139 O 0.93155 0.29376 0.08518 0.0
C140 C 0.60733 0.61413 0.07653 0.0
O141 O 0.59101 0.58685 0.07992 0.0
Cd142 Cd 0.61404 0.5595 0.08742 0.0
O143 O 0.63655 0.62819 0.07737 0.0
Cd144 Cd 0.67483 0.61598 0.08433 0.0
C145 C 0.65617 0.56016 0.06699 0.0
O146 O 0.65232 0.58668 0.10041 0.0
O147 O 0.68988 0.5841 0.09332 0.0
O148 O 0.69821 0.66465 0.09325 0.0
C149 C 0.67325 0.57963 0.10115 0.0
O150 O 0.63441 0.54432 0.07326 0.0
C151 C 0.72549 0.6747 0.09004 0.0
O152 O 0.67424 0.58902 0.0684 0.0
O153 O 0.72918 0.65831 0.08342 0.0
C154 C 0.36123 0.11443 0.08405 0.0
O155 O 0.37383 0.13799 0.07828 0.0
Cd156 Cd 0.42695 0.15726 0.07405 0.0
O157 O 0.37415 0.09857 0.08552 0.0
Cd158 Cd 0.41854 0.09376 0.0801 0.0
C159 C 0.4499 0.14741 0.0982 0.0
O160 O 0.43405 0.12164 0.06389 0.0
O161 O 0.46924 0.11765 0.07212 0.0
O162 O 0.38427 0.04508 0.07188 0.0
C163 C 0.4609 0.12506 0.06396 0.0
O164 O 0.44809 0.16429 0.09129 0.0
C165 C 0.39349 0.02935 0.0767 0.0
O166 O 0.44079 0.11912 0.09646 0.0
O167 O 0.41391 0.04333 0.08354 0.0
C168 C 0.05316 0.63634 0.9318 0.0
O169 O 0.07355 0.62902 0.93023 0.0
Cd170 Cd 0.12256 0.66284 0.92246 0.0
O171 O 0.05833 0.66308 0.9293 0.0
Cd172 Cd 0.10344 0.70994 0.92169 0.0
C173 C 0.1539 0.71896 0.94031 0.0
O174 O 0.11441 0.68522 0.90738 0.0
O175 O 0.14856 0.73274 0.91034 0.0
O176 O 0.06956 0.72316 0.91228 0.0
C177 C 0.13774 0.70998 0.90428 0.0
O178 O 0.15625 0.69816 0.93558 0.0
C179 C 0.08298 0.75093 0.91534 0.0
O180 O 0.13438 0.72637 0.93741 0.0
O181 O 0.10415 0.75871 0.92193 0.0
C182 C 0.26429 0.35259 0.92166 0.0
O183 O 0.2499 0.36421 0.92598 0.0
Cd184 Cd 0.27247 0.41473 0.93274 0.0
O185 O 0.2938 0.36697 0.92146 0.0
Cd186 Cd 0.33754 0.41643 0.9286 0.0
C187 C 0.31551 0.45219 0.91118 0.0
O188 O 0.31028 0.41637 0.94387 0.0
O189 O 0.35362 0.4583 0.94145 0.0
O190 O 0.36204 0.38847 0.93514 0.0
C191 C 0.3304 0.44257 0.94716 0.0
O192 O 0.2927 0.44481 0.91711 0.0
C193 C 0.38867 0.40676 0.93151 0.0
O194 O 0.33581 0.445 0.91339 0.0
O195 O 0.39127 0.42875 0.92597 0.0
C196 C 0.59769 0.99242 0.92328 0.0
O197 O 0.57008 0.97301 0.9208 0.0
Cd198 Cd 0.55338 0.92229 0.91447 0.0
O199 O 0.61893 0.98579 0.92225 0.0
Cd200 Cd 0.6202 0.93961 0.91561 0.0
C201 C 0.57368 0.89171 0.93405 0.0
O202 O 0.58669 0.9278 0.90055 0.0
O203 O 0.59689 0.89268 0.905 0.0
O204 O 0.6692 0.97219 0.90673 0.0
C205 C 0.58641 0.90317 0.89831 0.0
O206 O 0.55181 0.88953 0.92855 0.0
C207 C 0.68243 0.95831 0.91025 0.0
O208 O 0.60167 0.91059 0.9317 0.0
O209 O 0.66759 0.93747 0.91687 0.0
C210 C 0.64033 0.73503 0.41094 0.0
O211 O 0.61935 0.74007 0.41403 0.0
Cd212 Cd 0.57123 0.7007 0.42108 0.0
O213 O 0.63684 0.70817 0.41181 0.0
Cd214 Cd 0.59586 0.65667 0.41846 0.0
C215 C 0.54526 0.65256 0.40046 0.0
O216 O 0.58012 0.67242 0.43413 0.0
O217 O 0.54979 0.6258 0.429 0.0
O218 O 0.63659 0.65012 0.42613 0.0
C219 C 0.55722 0.6458 0.43598 0.0
O220 O 0.54153 0.67038 0.40643 0.0
C221 C 0.62723 0.62342 0.4225 0.0
O222 O 0.56531 0.64493 0.4025 0.0
O223 O 0.60405 0.61266 0.41658 0.0
C224 C 0.25234 0.90965 0.41915 0.0
O225 O 0.24332 0.88462 0.42399 0.0
Cd226 Cd 0.2791 0.86777 0.42757 0.0
O227 O 0.28104 0.92814 0.4176 0.0
Cd228 Cd 0.33176 0.93403 0.4223 0.0
C229 C 0.31471 0.88132 0.40388 0.0
O230 O 0.31997 0.90455 0.43823 0.0
O231 O 0.36077 0.91226 0.43011 0.0
O232 O 0.3467 0.98208 0.43107 0.0
C233 C 0.34438 0.90296 0.43815 0.0
O234 O 0.29594 0.8626 0.4105 0.0
C235 C 0.37103 -0.00124 0.42593 0.0
O236 O 0.33133 0.91 0.4059 0.0
O237 O 0.37692 0.98561 0.4187 0.0
C238 C 0.01052 0.41642 0.42004 0.0
O239 O 0.02032 0.44369 0.41686 0.0
Cd240 Cd 0.07198 0.47728 0.41091 0.0
O241 O 0.0276 0.40453 0.41948 0.0
Cd242 Cd 0.07978 0.41968 0.41301 0.0
C243 C 0.11068 0.47219 0.43183 0.0
O244 O 0.08638 0.45292 0.39823 0.0
O245 O 0.12762 0.45644 0.40468 0.0
O246 O 0.05933 0.37291 0.40298 0.0
C247 C 0.11529 0.46366 0.39758 0.0
O248 O 0.10375 0.48821 0.42607 0.0
C249 C 0.07542 0.36291 0.40709 0.0
O250 O 0.10289 0.44458 0.42945 0.0
O251 O 0.09311 0.37885 0.41436 0.0
Zn252 Zn 0.00891 0.0048 0.12122 0.0
Zn253 Zn 0.00896 0.01713 0.16071 0.0
Zn254 Zn 0.01208 0.01221 0.14121 0.0
C255 C 0.98232 0.95509 0.15766 0.0
C256 C 0.07157 0.04798 0.15565 0.0
O257 O -0.00933 0.03715 0.13402 0.0
O258 O -0.00952 0.03011 0.11734 0.0
C259 C 0.97645 0.94614 0.12948 0.0
O260 O -0.00954 0.96525 0.14845 0.0
O261 O 0.98608 0.97352 0.16478 0.0
O262 O 0.05367 0.03998 0.16324 0.0
O263 O 0.0607 0.04012 0.14654 0.0
O264 O 0.98326 0.95961 0.12093 0.0
O265 O 0.98553 0.96192 0.13782 0.0
O266 O 0.06048 0.03332 0.13609 0.0
O267 O 0.05367 0.02198 0.11962 0.0
C268 C 0.07144 0.03322 0.1272 0.0
O269 O 0.98604 0.03614 0.14458 0.0
O270 O 0.98757 0.04051 0.16141 0.0
C271 C 0.98487 0.04223 0.12485 0.0
C272 C 0.97929 0.04527 0.15286 0.0
Zn273 Zn 0.00448 0.00398 0.3305 0.0
Zn274 Zn -0.0023 0.00852 0.3852 0.0
Zn275 Zn -0.0006 0.00726 0.36597 0.0
C276 C 0.03008 0.0704 0.37825 0.0
C277 C 0.93574 0.9765 0.37805 0.0
O278 O 0.02094 0.98087 0.3605 0.0
O279 O 0.01179 -0.00487 0.34589 0.0
C280 C 0.02813 0.05249 0.34917 0.0
O281 O 0.02415 0.05678 0.36954 0.0
O282 O 0.02146 0.05461 0.38638 0.0
O283 O 0.95162 0.98585 0.38613 0.0
O284 O 0.94938 0.9826 0.36931 0.0
O285 O 0.01323 0.02566 0.34516 0.0
O286 O 0.02683 0.05363 0.35892 0.0
O287 O 0.95365 0.98691 0.3586 0.0
O288 O 0.98241 -0.00453 0.34517 0.0
C289 C 0.95553 0.98614 0.34887 0.0
O290 O 0.02282 0.98263 0.37111 0.0
O291 O 0.01925 0.98499 0.38787 0.0
C292 C 0.02259 0.98064 0.35076 0.0
C293 C 0.02825 0.97655 0.38016 0.0
Zn294 Zn 0.01601 0.01361 0.87559 0.0
Zn295 Zn 0.02243 0.02531 0.83695 0.0
Zn296 Zn 0.0195 0.01873 0.85576 0.0
C297 C 0.05518 0.08385 0.84335 0.0
C298 C 0.96088 -0.00342 0.84102 0.0
O299 O 0.04247 0.99274 0.86018 0.0
O300 O 0.04127 -0.00598 0.87706 0.0
C301 C 0.04793 0.07625 0.87152 0.0
O302 O 0.04301 0.06883 0.85168 0.0
O303 O 0.05308 0.06936 0.83526 0.0
O304 O 0.97908 0.01254 0.83396 0.0
O305 O 0.97165 -0.00523 0.84975 0.0
O306 O 0.0358 0.05791 0.87893 0.0
O307 O 0.04462 0.06575 0.86235 0.0
O308 O 0.97016 -0.00544 0.86055 0.0
O309 O 0.97076 0.98801 0.87722 0.0
C310 C 0.95578 0.98448 0.86911 0.0
O311 O 0.04451 -0.00403 0.84953 0.0
O312 O 0.03547 -0.00399 0.83305 0.0
C313 C 0.04918 0.98621 0.86897 0.0
C314 C 0.04663 0.98828 0.8403 0.0
Zn315 Zn 0.00067 0.00722 0.66209 0.0
Zn316 Zn -0.00552 0.01007 0.62217 0.0
Zn317 Zn 0.00032 0.01081 0.64235 0.0
C318 C 0.9708 0.94936 0.62764 0.0
C319 C 0.05811 0.04597 0.62728 0.0
O320 O 0.97906 0.03671 0.64895 0.0
O321 O 0.97785 0.02816 0.66557 0.0
C322 C 0.96963 0.94729 0.65564 0.0
O323 O 0.97821 0.96271 0.63644 0.0
O324 O 0.97483 0.96504 0.61965 0.0
O325 O 0.03946 0.03664 0.61987 0.0
O326 O 0.048 0.03798 0.63648 0.0
O327 O 0.97977 0.96219 0.66384 0.0
O328 O 0.97471 0.96156 0.64704 0.0
O329 O 0.04959 0.03245 0.64706 0.0
O330 O 0.04564 0.03052 0.66391 0.0
C331 C 0.06213 0.03791 0.65598 0.0
O332 O 0.97316 0.03328 0.63839 0.0
O333 O 0.9691 0.0298 0.62155 0.0
C334 C 0.97226 0.04049 0.65813 0.0
C335 C 0.96305 0.03799 0.62993 0.0
Zn336 Zn 0.66973 0.33461 0.48943 0.0
Zn337 Zn 0.68066 0.33862 0.44931 0.0
Zn338 Zn 0.6754 0.33712 0.46951 0.0
C339 C 0.71958 0.319 0.45694 0.0
C340 C 0.61893 0.29586 0.45386 0.0
O341 O 0.62547 0.3109 0.4734 0.0
O342 O 0.62457 0.30932 0.49031 0.0
C343 C 0.70056 0.39682 0.48425 0.0
O344 O 0.70764 0.321 0.46542 0.0
O345 O 0.71182 0.32575 0.4486 0.0
O346 O 0.63722 0.30703 0.44638 0.0
O347 O 0.62877 0.30539 0.463 0.0
O348 O 0.68931 0.37935 0.49191 0.0
O349 O 0.69738 0.38534 0.47523 0.0
O350 O 0.70069 0.31506 0.47583 0.0
O351 O 0.69411 0.31496 0.49256 0.0
C352 C 0.70515 0.30848 0.48496 0.0
O353 O 0.69299 0.38544 0.46456 0.0
O354 O 0.69419 0.38299 0.44771 0.0
C355 C 0.6104 0.30277 0.48191 0.0
C356 C 0.69785 0.39845 0.45572 0.0
Zn357 Zn 0.66834 0.34634 0.71047 0.0
Zn358 Zn 0.68478 0.39906 0.68108 0.0
Zn359 Zn 0.67638 0.36532 0.6934 0.0
C360 C 0.62362 0.36552 0.68159 0.0
C361 C 0.73984 0.41691 0.68617 0.0
O362 O 0.71736 0.3614 0.69532 0.0
O363 O 0.70583 0.34236 0.71093 0.0
C364 C 0.61992 0.30109 0.69764 0.0
O365 O 0.63336 0.3473 0.68436 0.0
O366 O 0.64213 0.39443 0.68219 0.0
O367 O 0.72597 0.4321 0.68652 0.0
O368 O 0.72404 0.38762 0.6878 0.0
O369 O 0.62907 0.30762 0.70679 0.0
O370 O 0.63471 0.32048 0.69041 0.0
O371 O 0.6715 0.39993 0.70103 0.0
O372 O 0.66844 0.38318 0.71672 0.0
C373 C 0.66941 0.40314 0.71059 0.0
O374 O 0.65338 0.33395 0.6805 0.0
O375 O 0.68798 0.37007 0.67054 0.0
C376 C 0.7234 0.35035 0.70322 0.0
C377 C 0.66913 0.34166 0.6721 0.0
Zn378 Zn 0.67837 0.35505 0.21405 0.0
Zn379 Zn 0.67182 0.34389 0.17422 0.0
Zn380 Zn 0.67446 0.34864 0.19368 0.0
C381 C 0.69992 0.40598 0.17778 0.0
C382 C 0.61138 0.31169 0.18074 0.0
O383 O 0.70112 0.32788 0.19933 0.0
O384 O 0.70516 0.33694 0.21597 0.0
C385 C 0.70547 0.41405 0.20586 0.0
O386 O 0.69325 0.39549 0.18697 0.0
O387 O 0.69465 0.38787 0.17041 0.0
O388 O 0.62684 0.32153 0.17262 0.0
O389 O 0.62496 0.3187 0.18949 0.0
O390 O 0.6977 0.40066 0.21442 0.0
O391 O 0.69882 0.39828 0.19754 0.0
O392 O 0.62688 0.32412 0.20006 0.0
O393 O 0.63354 0.32889 0.21682 0.0
C394 C 0.61573 0.31884 0.20921 0.0
O395 O 0.70248 0.32789 0.18855 0.0
O396 O 0.69257 0.32025 0.17204 0.0
C397 C 0.71091 0.32577 0.20821 0.0
C398 C 0.70598 0.31804 0.17984 0.0
Zn399 Zn 0.68202 0.34355 0.00515 0.0
Zn400 Zn 0.68791 0.35566 0.95042 0.0
Zn401 Zn 0.6876 0.3523 0.96967 0.0
C402 C 0.66284 0.29278 0.95542 0.0
C403 C 0.75006 0.39177 0.9577 0.0
O404 O 0.66393 0.37448 0.97673 0.0
O405 O 0.67298 0.35604 0.99046 0.0
C406 C 0.66242 0.30202 0.98481 0.0
O407 O 0.66727 0.30408 0.96449 0.0
O408 O 0.66971 0.31037 0.94774 0.0
O409 O 0.73379 0.38387 0.94968 0.0
O410 O 0.73709 0.38153 0.96644 0.0
O411 O 0.67544 0.32745 0.98974 0.0
O412 O 0.66361 0.30402 0.97506 0.0
O413 O 0.73374 0.37474 0.97712 0.0
O414 O 0.70442 0.35813 0.99059 0.0
C415 C 0.73171 0.37201 0.98686 0.0
O416 O 0.65904 0.37327 0.96614 0.0
O417 O 0.6606 0.37382 0.94928 0.0
C418 C 0.66271 0.37231 0.98648 0.0
C419 C 0.65085 0.3791 0.95749 0.0
Zn420 Zn 0.34018 0.68651 0.82695 0.0
Zn421 Zn 0.32999 0.66787 0.79071 0.0
Zn422 Zn 0.3364 0.67789 0.80995 0.0
C423 C 0.39333 0.69759 0.795 0.0
C424 C 0.29869 0.61022 0.79981 0.0
O425 O 0.30702 0.69738 0.81428 0.0
O426 O 0.29715 0.67634 0.82957 0.0
C427 C 0.3936 0.73143 0.82086 0.0
O428 O 0.38393 0.69958 0.80395 0.0
O429 O 0.37415 0.68404 0.7879 0.0
O430 O 0.30358 0.62274 0.79112 0.0
O431 O 0.30971 0.62688 0.8079 0.0
O432 O 0.37341 0.7306 0.82678 0.0
O433 O 0.38556 0.70985 0.81418 0.0
O434 O 0.32057 0.6331 0.818 0.0
O435 O 0.35184 0.65567 0.83095 0.0
C436 C 0.33452 0.6314 0.82602 0.0
O437 O 0.31282 0.70184 0.80378 0.0
O438 O 0.31167 0.69355 0.78716 0.0
C439 C 0.2907 0.68917 0.82251 0.0
C440 C 0.30644 0.7062 0.79461 0.0
Zn441 Zn 0.3563 0.6897 0.04852 0.0
Zn442 Zn 0.32745 0.68066 0.0097 0.0
Zn443 Zn 0.34497 0.68935 0.02857 0.0
C444 C 0.31151 0.72184 0.01737 0.0
C445 C 0.39236 0.70738 0.01001 0.0
O446 O 0.39405 0.7031 0.03006 0.0
O447 O 0.39997 0.70083 0.04675 0.0
C448 C 0.30721 0.63135 0.04446 0.0
O449 O 0.32556 0.71982 0.02531 0.0
O450 O 0.30824 0.70602 0.00952 0.0
O451 O 0.36971 0.69831 0.00401 0.0
O452 O 0.38803 0.70557 0.01974 0.0
O453 O 0.32382 0.64658 0.05194 0.0
O454 O 0.313 0.6436 0.03547 0.0
O455 O 0.33583 0.72418 0.03556 0.0
O456 O 0.34773 0.72304 0.05176 0.0
C457 C 0.33903 0.7343 0.04479 0.0
O458 O 0.31465 0.63939 0.02479 0.0
O459 O 0.30067 0.63585 0.00862 0.0
C460 C 0.41096 0.70574 0.03782 0.0
C461 C 0.30063 0.62291 0.01687 0.0
Zn462 Zn 0.34448 0.66232 0.54927 0.0
Zn463 Zn 0.33503 0.66842 0.49825 0.0
Zn464 Zn 0.34068 0.66916 0.52986 0.0
C465 C 0.3653 0.71941 0.51586 0.0
C466 C 0.29194 0.64964 0.5161 0.0
O467 O 0.3597 0.63886 0.53046 0.0
O468 O 0.35844 0.632 0.54718 0.0
C469 C 0.3848 0.72525 0.54465 0.0
O470 O 0.36605 0.71851 0.52557 0.0
O471 O 0.35053 0.6934 0.51152 0.0
O472 O 0.31799 0.66697 0.51215 0.0
O473 O 0.29176 0.64749 0.52578 0.0
O474 O 0.37731 0.70605 0.55188 0.0
O475 O 0.37222 0.71618 0.5358 0.0
O476 O 0.29337 0.65004 0.53623 0.0
O477 O 0.30027 0.64836 0.55283 0.0
C478 C 0.28264 0.64484 0.54542 0.0
O479 O 0.35918 0.64583 0.51915 0.0
O480 O 0.35439 0.64266 0.50174 0.0
C481 C 0.36421 0.62635 0.5383 0.0
C482 C 0.36325 0.63685 0.51022 0.0
Zn483 Zn 0.3484 0.68924 0.287 0.0
Zn484 Zn 0.39174 0.72039 0.31815 0.0
Zn485 Zn 0.36181 0.69568 0.30483 0.0
C486 C 0.41038 0.68294 0.31379 0.0
C487 C 0.33178 0.67801 0.32537 0.0
O488 O 0.31655 0.69235 0.30615 0.0
O489 O 0.30634 0.68381 0.28963 0.0
C490 C 0.40393 0.74636 0.28949 0.0
O491 O 0.38157 0.66926 0.3114 0.0
O492 O 0.42554 0.71223 0.31396 0.0
O493 O 0.35949 0.68757 0.32793 0.0
O494 O 0.32687 0.68635 0.31657 0.0
O495 O 0.38425 0.73078 0.28268 0.0
O496 O 0.39957 0.73626 0.29861 0.0
O497 O 0.35826 0.65131 0.30231 0.0
O498 O 0.35215 0.65137 0.28564 0.0
C499 C 0.35522 0.63868 0.29356 0.0
O500 O 0.34116 0.72008 0.31265 0.0
O501 O 0.38781 0.75848 0.31607 0.0
C502 C 0.29819 0.6866 0.29852 0.0
C503 C 0.35899 0.74827 0.31554 0.0
C504 C 0.22686 0.19209 0.22392 0.0
C505 C 0.22957 0.22125 0.22455 0.0
C506 C 0.21711 0.17503 0.2149 0.0
C507 C 0.20462 0.18024 0.18707 0.0
H508 H 0.14668 0.09274 0.19031 0.0
C509 C 0.1155 0.10107 0.15703 0.0
C510 C 0.10439 0.06929 0.1577 0.0
C511 C 0.13958 0.12171 0.16337 0.0
C512 C 0.16342 0.11698 0.18921 0.0
H513 H 0.22451 0.25557 0.21613 0.0
H514 H 0.20648 0.2253 0.20042 0.0
H515 H 0.16948 0.12438 0.20528 0.0
H516 H 0.11175 0.03438 0.1645 0.0
H517 H 0.15481 0.07042 0.17518 0.0
H518 H 0.19728 0.17267 0.17092 0.0
C519 C 0.21252 0.21588 0.20686 0.0
C520 C 0.17647 0.13523 0.19784 0.0
C521 C 0.22256 0.23312 0.2159 0.0
C522 C 0.12023 0.05887 0.16377 0.0
C523 C 0.14451 0.07948 0.17001 0.0
C524 C 0.19139 0.16189 0.17839 0.0
C525 C 0.20947 0.1865 0.20627 0.0
C526 C 0.19701 0.16715 0.19692 0.0
C527 C 0.15286 0.11074 0.17044 0.0
C528 C 0.1704 0.13004 0.17937 0.0
H529 H 0.23248 0.18243 0.2304 0.0
H530 H 0.21563 0.15279 0.21468 0.0
H531 H 0.22067 0.20469 0.18607 0.0
H532 H 0.10318 0.1095 0.15255 0.0
H533 H 0.14539 0.1456 0.16348 0.0
C534 C 0.84262 0.07693 0.21575 0.0
C535 C 0.81586 0.048 0.21712 0.0
C536 C 0.85791 0.08491 0.20636 0.0
C537 C 0.85124 0.06114 0.17901 0.0
H538 H 0.93978 0.09769 0.18152 0.0
C539 C 0.9271 0.03797 0.15251 0.0
C540 C 0.95906 0.0583 0.15289 0.0
C541 C 0.90716 0.04564 0.15739 0.0
C542 C 0.91523 0.08836 0.18055 0.0
H543 H 0.78361 0.00504 0.20968 0.0
H544 H 0.81101 0.01844 0.19338 0.0
H545 H 0.9096 0.09276 0.19646 0.0
H546 H -0.00481 0.10407 0.15714 0.0
H547 H 0.96034 0.11837 0.16511 0.0
H548 H 0.85706 0.05523 0.1631 0.0
C549 C 0.8198 0.03531 0.19948 0.0
C550 C 0.89779 0.08539 0.18919 0.0
C551 C 0.80429 0.02746 0.20885 0.0
C552 C 0.97052 0.0881 0.15676 0.0
C553 C 0.95058 0.09606 0.16144 0.0
C554 C 0.86878 0.06406 0.17031 0.0
C555 C 0.84704 0.064 0.19816 0.0
C556 C 0.8655 0.07094 0.18861 0.0
C557 C 0.91909 0.07387 0.16262 0.0
C558 C 0.90092 0.07691 0.17104 0.0
H559 H 0.85181 0.09347 0.22193 0.0
H560 H 0.8785 0.10741 0.20557 0.0
H561 H 0.82644 0.0504 0.17827 0.0
H562 H 0.9179 0.01471 0.14964 0.0
H563 H 0.88306 0.02798 0.15809 0.0
C564 C 0.01396 0.79818 0.21863 0.0
C565 C -0.006 0.79497 0.2267 0.0
C566 C 0.01077 0.80847 0.20898 0.0
C567 C 0.95395 0.81679 0.19316 0.0
H568 H 0.02567 0.88219 0.17938 0.0
C569 C 0.95159 0.90889 0.16845 0.0
C570 C 0.97321 0.92324 0.16057 0.0
C571 C 0.95054 0.88469 0.17402 0.0
C572 C 0.00541 0.86337 0.18296 0.0
H573 H 0.95531 0.80058 0.2309 0.0
H574 H 0.95006 0.81859 0.21428 0.0
H575 H 0.03253 0.85764 0.19443 0.0
H576 H 0.00876 0.92184 0.15167 0.0
H577 H 0.0071 0.87938 0.16146 0.0
H578 H 0.92678 0.82348 0.18198 0.0
C579 C 0.96782 0.81267 0.2153 0.0
C580 C 0.00937 0.84937 0.19163 0.0
C581 C 0.97108 0.80261 0.2249 0.0
C582 C -0.00833 0.91094 0.15766 0.0
C583 C -0.009 0.88694 0.16335 0.0
C584 C 0.95 0.83077 0.18451 0.0
C585 C 0.98739 0.81551 0.20719 0.0
C586 C 0.98363 0.82673 0.19705 0.0
C587 C 0.97143 0.87459 0.1719 0.0
C588 C 0.97563 0.855 0.17953 0.0
H589 H 0.03181 0.79242 0.21973 0.0
H590 H 0.02625 0.81044 0.20289 0.0
H591 H 0.93364 0.79887 0.19701 0.0
H592 H 0.93725 0.91812 0.17088 0.0
H593 H 0.93526 0.87587 0.18056 0.0
C594 C 0.1804 0.2387 0.28232 0.0
C595 C 0.20334 0.23292 0.27873 0.0
C596 C 0.1641 0.22483 0.29125 0.0
C597 C 0.11773 0.17638 0.30527 0.0
H598 H 0.15071 0.15398 0.32832 0.0
C599 C 0.04009 0.07801 0.33222 0.0
C600 C 0.0472 0.07967 0.34265 0.0
C601 C 0.05991 0.10108 0.3255 0.0
C602 C 0.14126 0.16051 0.32202 0.0
H603 H 0.22796 0.20887 0.28191 0.0
H604 H 0.19843 0.18335 0.29738 0.0
H605 H 0.18545 0.18662 0.31474 0.0
H606 H 0.08006 0.10748 0.35433 0.0
H607 H 0.11503 0.14848 0.34248 0.0
H608 H 0.07372 0.15065 0.31252 0.0
C609 C 0.19353 0.19924 0.29338 0.0
C610 C 0.1611 0.17884 0.31415 0.0
C611 C 0.21034 0.21367 0.28449 0.0
C612 C 0.074 0.10571 0.34632 0.0
C613 C 0.09412 0.12895 0.33953 0.0
C614 C 0.09806 0.15835 0.31313 0.0
C615 C 0.16975 0.2042 0.29677 0.0
C616 C 0.14948 0.18659 0.30558 0.0
C617 C 0.08746 0.1266 0.329 0.0
C618 C 0.10938 0.14953 0.32148 0.0
H619 H 0.1749 0.25395 0.27817 0.0
H620 H 0.14671 0.23005 0.29375 0.0
H621 H 0.10768 0.18137 0.29877 0.0
H622 H 0.01945 0.05837 0.32917 0.0
H623 H 0.05413 0.09822 0.31745 0.0
C624 C 0.81191 0.022 0.28023 0.0
C625 C 0.81477 0.00842 0.27121 0.0
C626 C 0.82479 0.01935 0.2894 0.0
C627 C 0.88504 0.00504 0.29909 0.0
H628 H 0.83726 0.97811 0.32416 0.0
C629 C 0.92939 0.96679 0.33231 0.0
C630 C 0.92998 0.9795 0.34189 0.0
C631 C 0.91146 0.96803 0.32444 0.0
C632 C 0.85094 0.9859 0.31724 0.0
H633 H 0.83381 0.98186 0.26476 0.0
H634 H 0.85634 0.97758 0.28062 0.0
H635 H 0.81509 0.98753 0.30883 0.0
H636 H 0.91063 0.00136 0.35106 0.0
H637 H 0.8793 0.00403 0.33714 0.0
H638 H 0.92086 0.00363 0.30733 0.0
C639 C 0.84422 0.99028 0.28063 0.0
C640 C 0.83831 0.99137 0.30849 0.0
C641 C 0.83117 0.99265 0.27154 0.0
C642 C 0.91032 0.9912 0.34374 0.0
C643 C 0.89254 0.99283 0.33576 0.0
C644 C 0.89761 -0.00031 0.30778 0.0
C645 C 0.8411 0.00347 0.28968 0.0
C646 C 0.85507 0.00041 0.29927 0.0
C647 C 0.89413 0.98255 0.3259 0.0
C648 C 0.88052 0.9894 0.3169 0.0
H649 H 0.79925 0.03415 0.28024 0.0
H650 H 0.8222 0.0299 0.29625 0.0
H651 H 0.89878 0.01264 0.29217 0.0
H652 H 0.94422 0.95744 0.33073 0.0
H653 H 0.91243 0.95899 0.31703 0.0
C654 C 0.04888 0.84064 0.28025 0.0
C655 C 0.02801 0.8087 0.28069 0.0
C656 C 0.05275 0.85934 0.28866 0.0
C657 C 0.04186 0.85978 0.31645 0.0
H658 H 0.03564 0.93192 0.31048 0.0
C659 C 0.02316 0.93205 0.34734 0.0
C660 C 0.03381 0.96311 0.34506 0.0
C661 C 0.02721 0.91347 0.34026 0.0
C662 C 0.03818 0.91233 0.31232 0.0
H663 H -0.00441 0.77115 0.29039 0.0
H664 H 0.00249 0.80396 0.30513 0.0
H665 H 0.03344 0.89895 0.29664 0.0
H666 H 0.05956 9e-05 0.33427 0.0
H667 H 0.06849 0.96852 0.32229 0.0
H668 H 0.04671 0.87333 0.33218 0.0
C669 C 0.01583 0.81443 0.29827 0.0
C670 C 0.03671 0.8933 0.30435 0.0
C671 C 0.01173 0.79572 0.28981 0.0
C672 C 0.05097 0.97606 0.33613 0.0
C673 C 0.05567 0.95782 0.32921 0.0
C674 C 0.0437 0.87911 0.32447 0.0
C675 C 0.03605 0.84649 0.29772 0.0
C676 C 0.03846 0.86681 0.30631 0.0
C677 C 0.04242 0.92593 0.3309 0.0
C678 C 0.04188 0.90568 0.32249 0.0
H679 H 0.06191 0.85133 0.27336 0.0
H680 H 0.06871 0.88395 0.28806 0.0
H681 H 0.04339 0.83952 0.31816 0.0
H682 H 0.00964 0.9216 0.35417 0.0
H683 H 0.01667 0.88903 0.34184 0.0
C684 C 0.79645 0.81706 0.77957 0.0
C685 C 0.79152 0.83189 0.77129 0.0
C686 C 0.80949 0.83312 0.78867 0.0
C687 C 0.85697 0.91289 0.79818 0.0
H688 H 0.8302 0.87633 0.82507 0.0
C689 C 0.91408 0.98803 0.83201 0.0
C690 C 0.92827 0.97635 0.83833 0.0
C691 C 0.88941 0.96818 0.8258 0.0
C692 C 0.83777 0.8868 0.8176 0.0
H693 H 0.79581 0.87504 0.7662 0.0
H694 H 0.8178 0.90251 0.78195 0.0
H695 H 0.80467 0.84561 0.80979 0.0
H696 H 0.92562 0.93483 0.84419 0.0
H697 H 0.88286 0.89999 0.83312 0.0
H698 H 0.89019 0.95373 0.80581 0.0
C699 C 0.81236 0.87878 0.7814 0.0
C700 C 0.82336 0.8692 0.80886 0.0
C701 C 0.79965 0.86293 0.77234 0.0
C702 C 0.91488 0.94428 0.83939 0.0
C703 C 0.89046 0.92436 0.83301 0.0
C704 C 0.87111 0.93038 0.80684 0.0
C705 C 0.81772 0.86424 0.78966 0.0
C706 C 0.8328 0.88216 0.79905 0.0
C707 C 0.87908 0.93643 0.82565 0.0
C708 C 0.86168 0.91768 0.81666 0.0
H709 H 0.79029 0.79312 0.77903 0.0
H710 H 0.81358 0.82133 0.79486 0.0
H711 H 0.86545 0.92339 0.79077 0.0
H712 H 0.92399 0.01271 0.83113 0.0
H713 H 0.88045 0.97804 0.82041 0.0
C714 C 0.21099 0.96887 0.77958 0.0
C715 C 0.22865 -0.00052 0.77619 0.0
C716 C 0.19538 0.96204 0.78892 0.0
C717 C 0.18434 -0.00058 0.81235 0.0
H718 H 0.10589 0.92277 0.81324 0.0
C719 C 0.0573 0.95614 0.82869 0.0
C720 C 0.06518 0.97413 0.83757 0.0
C721 C 0.0791 0.95167 0.82365 0.0
C722 C 0.12767 0.94438 0.81314 0.0
H723 H 0.24428 0.04706 0.77987 0.0
H724 H 0.21514 0.0353 0.79575 0.0
H725 H 0.14058 0.93258 0.79916 0.0
H726 H 0.10078 -0.00171 0.8489 0.0
H727 H 0.13897 0.98955 0.84028 0.0
H728 H 0.1697 0.01248 0.82579 0.0
C729 C 0.21428 0.01638 0.79154 0.0
C730 C 0.14805 0.94989 0.80508 0.0
C731 C 0.23078 0.02325 0.78235 0.0
C732 C 0.09414 0.98435 0.84204 0.0
C733 C 0.11615 0.97976 0.83699 0.0
C734 C 0.16351 -0.00574 0.82026 0.0
C735 C 0.19607 0.98558 0.79496 0.0
C736 C 0.17633 0.97797 0.80434 0.0
C737 C 0.10943 0.96491 0.82741 0.0
C738 C 0.13432 0.96715 0.82055 0.0
H739 H 0.2095 0.95015 0.77504 0.0
H740 H 0.18265 0.93816 0.79133 0.0
H741 H 0.20628 0.02083 0.81235 0.0
H742 H 0.03502 0.94786 0.82511 0.0
H743 H 0.07272 0.94023 0.81631 0.0
C744 C -0.00375 0.22819 0.78916 0.0
C745 C 0.01375 0.23651 0.78011 0.0
C746 C 0.00611 0.21911 0.79781 0.0
C747 C 0.05641 0.18799 0.80464 0.0
H748 H 0.04412 0.20568 0.8325 0.0
C749 C 0.08991 0.13516 0.83585 0.0
C750 C 0.06485 0.11662 0.84226 0.0
C751 C 0.09081 0.15962 0.8305 0.0
C752 C 0.04784 0.20072 0.82476 0.0
H753 H 0.05595 0.24316 0.77319 0.0
H754 H 0.07335 0.22817 0.78821 0.0
H755 H 0.02976 0.22752 0.81823 0.0
H756 H 0.02363 0.11161 0.84932 0.0
H757 H 0.02465 0.15379 0.83979 0.0
H758 H 0.0736 0.16068 0.81098 0.0
C759 C 0.05159 0.22768 0.78861 0.0
C760 C 0.03943 0.21303 0.81659 0.0
C761 C 0.04161 0.23635 0.77998 0.0
C762 C 0.04328 0.12572 0.84444 0.0
C763 C 0.04379 0.14984 0.83891 0.0
C764 C 0.06489 0.17592 0.81274 0.0
C765 C 0.03378 0.21844 0.7976 0.0
C766 C 0.04346 0.20661 0.80642 0.0
C767 C 0.06624 0.16536 0.83129 0.0
C768 C 0.0606 0.18192 0.82291 0.0
H769 H 0.97475 0.22825 0.7895 0.0
H770 H -0.00832 0.21187 0.80457 0.0
H771 H 0.05913 0.18181 0.79695 0.0
H772 H 0.10688 0.12861 0.83409 0.0
H773 H 0.10902 0.17188 0.82494 0.0
C774 C 0.78063 0.7933 0.70997 0.0
C775 C 0.7896 0.78326 0.71863 0.0
C776 C 0.79776 0.8004 0.70092 0.0
C777 C 0.87683 0.82645 0.69269 0.0
H778 H 0.8428 0.81662 0.66546 0.0
C779 C 0.95838 0.89598 0.66154 0.0
C780 C 0.94852 0.91394 0.65645 0.0
C781 C 0.9369 0.86846 0.66628 0.0
C782 C 0.85267 0.8194 0.673 0.0
H783 H 0.82245 0.77107 0.72442 0.0
H784 H 0.85201 0.78305 0.70865 0.0
H785 H 0.80827 0.79117 0.67996 0.0
H786 H 0.90888 0.91601 0.65118 0.0
H787 H 0.87131 0.86882 0.65983 0.0
H788 H 0.92081 0.85589 0.68604 0.0
C789 C 0.83218 0.7861 0.70889 0.0
C790 C 0.83289 0.8049 0.68131 0.0
C791 C 0.81524 0.77924 0.71793 0.0
C792 C 0.91688 0.90228 0.65504 0.0
C793 C 0.89535 0.87516 0.66002 0.0
C794 C 0.89648 0.84094 0.68445 0.0
C795 C 0.82408 0.79742 0.70034 0.0
C796 C 0.84475 0.80896 0.69128 0.0
C797 C 0.90536 0.85926 0.66634 0.0
C798 C 0.88468 0.83834 0.67452 0.0
H799 H 0.76088 0.79646 0.71026 0.0
H800 H 0.7911 0.80941 0.69452 0.0
H801 H 0.88678 0.83056 0.70026 0.0
H802 H 0.98279 0.90464 0.66266 0.0
H803 H 0.94531 0.85613 0.67076 0.0
C804 C 0.22389 0.0552 0.71934 0.0
C805 C 0.23132 0.03216 0.72118 0.0
C806 C 0.21287 0.05778 0.70985 0.0
C807 C 0.17306 0.01446 0.68688 0.0
H808 H 0.19934 0.09641 0.67643 0.0
C809 C 0.10639 0.0294 0.65428 0.0
C810 C 0.09497 0.04836 0.65748 0.0
C811 C 0.13173 0.03079 0.65928 0.0
C812 C 0.19195 0.07336 0.67918 0.0
H813 H 0.23237 0.99333 0.71443 0.0
H814 H 0.21263 -0.00233 0.69777 0.0
H815 H 0.22545 0.09033 0.69118 0.0
H816 H 0.10277 0.08582 0.66748 0.0
H817 H 0.14736 0.08909 0.67592 0.0
H818 H 0.13861 -0.00242 0.67519 0.0
C819 C 0.21555 0.0138 0.70374 0.0
C820 C 0.20679 0.06986 0.68766 0.0
C821 C 0.2268 0.01129 0.71329 0.0
C822 C 0.11144 0.07123 0.66481 0.0
C823 C 0.13694 0.07296 0.66968 0.0
C824 C 0.1582 0.01796 0.67838 0.0
C825 C 0.20885 0.03737 0.70189 0.0
C826 C 0.19671 0.04047 0.69186 0.0
C827 C 0.14618 0.05148 0.66742 0.0
C828 C 0.16671 0.04754 0.67468 0.0
H829 H 0.2269 0.07164 0.72522 0.0
H830 H 0.2072 0.0757 0.70878 0.0
H831 H 0.16468 0.99153 0.68993 0.0
H832 H 0.09375 0.01129 0.64874 0.0
H833 H 0.13857 0.01421 0.65728 0.0
C834 C -0.00564 0.22392 0.71927 0.0
C835 C 0.97108 0.21077 0.72676 0.0
C836 C -0.00846 0.20809 0.71012 0.0
C837 C 0.95159 0.12865 0.70012 0.0
H838 H 0.97511 0.16668 0.67334 0.0
C839 C 0.93547 0.05231 0.6665 0.0
C840 C 0.96208 0.06244 0.66055 0.0
C841 C 0.93204 0.07314 0.67259 0.0
C842 C 0.96844 0.15577 0.68077 0.0
H843 H 0.92597 0.17126 0.73026 0.0
H844 H 0.92106 0.14426 0.71447 0.0
H845 H 0.98007 0.1983 0.68829 0.0
H846 H 0.00451 0.10237 0.65546 0.0
H847 H -0.00098 0.13884 0.66629 0.0
H848 H 0.94072 0.08649 0.69285 0.0
C849 C 0.94181 0.16637 0.71569 0.0
C850 C 0.97142 0.17389 0.68933 0.0
C851 C 0.94466 0.18197 0.72477 0.0
C852 C 0.98355 0.09416 0.65989 0.0
C853 C 0.98045 0.11501 0.66616 0.0
C854 C 0.94864 0.11069 0.69164 0.0
C855 C 0.96538 0.17889 0.70832 0.0
C856 C 0.9629 0.16044 0.6991 0.0
C857 C 0.95563 0.10433 0.67307 0.0
C858 C 0.95688 0.12387 0.68183 0.0
H859 H 0.01492 0.24615 0.72053 0.0
H860 H 0.01018 0.2183 0.70461 0.0
H861 H 0.94554 0.11764 0.70755 0.0
H862 H 0.91872 0.0279 0.66715 0.0
H863 H 0.91212 0.06431 0.67758 0.0
C864 C 0.85807 0.57597 0.54804 0.0
C865 C 0.8795 0.56736 0.55105 0.0
C866 C 0.84061 0.56388 0.53917 0.0
C867 C 0.83766 0.53033 0.51429 0.0
H868 H 0.74892 0.48552 0.51796 0.0
C869 C 0.75414 0.43976 0.48561 0.0
C870 C 0.72256 0.4295 0.48634 0.0
C871 C 0.77542 0.46415 0.49171 0.0
C872 C 0.77356 0.49866 0.51661 0.0
H873 H 0.90005 0.53997 0.54696 0.0
H874 H 0.86984 0.51928 0.53124 0.0
H875 H 0.78215 0.51256 0.53229 0.0
H876 H 0.68869 0.43882 0.4929 0.0
H877 H 0.72596 0.48331 0.50277 0.0
H878 H 0.8293 0.51703 0.49857 0.0
C879 C 0.86653 0.53525 0.53585 0.0
C880 C 0.79262 0.5139 0.52493 0.0
C881 C 0.88359 0.54688 0.54486 0.0
C882 C 0.71302 0.44649 0.49219 0.0
C883 C 0.73439 0.47152 0.49803 0.0
C884 C 0.81856 0.51565 0.50587 0.0
C885 C 0.84465 0.54342 0.53299 0.0
C886 C 0.82482 0.52932 0.5239 0.0
C887 C 0.76553 0.47917 0.49849 0.0
C888 C 0.78614 0.49896 0.50695 0.0
H889 H 0.85437 0.5917 0.55265 0.0
H890 H 0.82389 0.57052 0.53712 0.0
H891 H 0.86249 0.54241 0.51329 0.0
H892 H 0.76193 0.42661 0.48129 0.0
H893 H 0.79901 0.46905 0.49175 0.0
C894 C 0.45431 0.33397 0.53684 0.0
C895 C 0.43911 0.3086 0.54343 0.0
C896 C 0.46349 0.33038 0.52711 0.0
C897 C 0.45864 0.27017 0.50872 0.0
H898 H 0.5369 0.33868 0.49958 0.0
C899 C 0.55905 0.26743 0.48936 0.0
C900 C 0.57702 0.29082 0.48231 0.0
C901 C 0.53177 0.26452 0.49318 0.0
C902 C 0.51462 0.31956 0.50186 0.0
H903 H 0.42122 0.25959 0.5451 0.0
H904 H 0.43931 0.25359 0.52851 0.0
H905 H 0.51139 0.34534 0.51414 0.0
H906 H 0.57913 0.32704 0.4728 0.0
H907 H 0.53182 0.32267 0.47976 0.0
H908 H 0.46423 0.24368 0.49692 0.0
C909 C 0.443 0.27607 0.53052 0.0
C910 C 0.49981 0.32333 0.51026 0.0
C911 C 0.43293 0.27951 0.54012 0.0
C912 C 0.56545 0.30867 0.47817 0.0
C913 C 0.53852 0.30629 0.48219 0.0
C914 C 0.47398 0.26619 0.50045 0.0
C915 C 0.45868 0.30152 0.52388 0.0
C916 C 0.47199 0.29847 0.51402 0.0
C917 C 0.52261 0.28549 0.49018 0.0
C918 C 0.50245 0.29071 0.49711 0.0
H919 H 0.45879 0.35655 0.53917 0.0
H920 H 0.47458 0.35042 0.52218 0.0
H921 H 0.43684 0.25067 0.51114 0.0
H922 H 0.5677 0.25352 0.49267 0.0
H923 H 0.52001 0.24838 0.49936 0.0
C924 C 0.72658 0.16182 0.54978 0.0
C925 C 0.69459 0.14489 0.55157 0.0
C926 C 0.73812 0.17748 0.5405 0.0
C927 C 0.71965 0.18172 0.51378 0.0
H928 H 0.7593 0.27019 0.51731 0.0
C929 C 0.70108 0.25772 0.48615 0.0
C930 C 0.71951 0.28984 0.48686 0.0
C931 C 0.70855 0.23874 0.49175 0.0
C932 C 0.74928 0.24571 0.516 0.0
H933 H 0.6496 0.12946 0.54493 0.0
H934 H 0.66972 0.15587 0.52865 0.0
H935 H 0.75251 0.23773 0.53191 0.0
H936 H 0.76188 0.32757 0.49289 0.0
H937 H 0.77655 0.29458 0.502 0.0
H938 H 0.71595 0.18936 0.49792 0.0
C939 C 0.68584 0.15739 0.53443 0.0
C940 C 0.74526 0.22708 0.52446 0.0
C941 C 0.67437 0.14255 0.54377 0.0
C942 C 0.74744 0.30274 0.49221 0.0
C943 C 0.75545 0.28376 0.49758 0.0
C944 C 0.72435 0.20039 0.50525 0.0
C945 C 0.71777 0.17549 0.53279 0.0
C946 C 0.72912 0.19489 0.52351 0.0
C947 C 0.73493 0.25162 0.49806 0.0
C948 C 0.73769 0.23257 0.50633 0.0
H949 H 0.74261 0.164 0.5557 0.0
H950 H 0.76285 0.19156 0.53941 0.0
H951 H 0.70731 0.15687 0.51287 0.0
H952 H 0.67913 0.24737 0.4822 0.0
H953 H 0.69191 0.21427 0.49186 0.0
C954 C 0.8451 0.51731 0.60879 0.0
C955 C 0.87595 0.53831 0.60616 0.0
C956 C 0.83783 0.50147 0.61809 0.0
C957 C 0.82882 0.46089 0.63643 0.0
H958 H 0.86606 0.51104 0.66051 0.0
C959 C 0.77859 0.41188 0.67563 0.0
C960 C 0.76997 0.43084 0.68082 0.0
C961 C 0.80039 0.42397 0.66773 0.0
C962 C 0.85566 0.49663 0.65387 0.0
H963 H 0.92347 0.55839 0.61116 0.0
H964 H 0.91065 0.53076 0.62747 0.0
H965 H 0.88535 0.53284 0.64357 0.0
H966 H 0.78049 0.478 0.68275 0.0
H967 H 0.81838 0.49901 0.66908 0.0
H968 H 0.79798 0.42529 0.64662 0.0
C969 C 0.89213 0.52669 0.62231 0.0
C970 C 0.86685 0.50904 0.64416 0.0
C971 C 0.89945 0.54238 0.61294 0.0
C972 C 0.78641 0.46273 0.67884 0.0
C973 C 0.80826 0.47481 0.67098 0.0
C974 C 0.81772 0.44846 0.64612 0.0
C975 C 0.86119 0.50633 0.62504 0.0
C976 C 0.85285 0.49164 0.63532 0.0
C977 C 0.81415 0.45525 0.66494 0.0
C978 C 0.83032 0.46649 0.65495 0.0
H979 H 0.82641 0.51356 0.60376 0.0
H980 H 0.81373 0.48627 0.62 0.0
H981 H 0.81782 0.44674 0.62978 0.0
H982 H 0.76653 0.38722 0.677 0.0
H983 H 0.80494 0.40841 0.66336 0.0
C984 C 0.48026 0.29858 0.60248 0.0
C985 C 0.47051 0.3189 0.59918 0.0
C986 C 0.49431 0.30238 0.61198 0.0
C987 C 0.50335 0.33955 0.63724 0.0
H988 H 0.56854 0.32047 0.64045 0.0
C989 C 0.58572 0.37432 0.67203 0.0
C990 C 0.59595 0.35414 0.67503 0.0
C991 C 0.56573 0.36712 0.66373 0.0
C992 C 0.55 0.32539 0.63973 0.0
H993 H 0.46882 0.35982 0.60324 0.0
H994 H 0.49427 0.36704 0.61975 0.0
H995 H 0.54593 0.31624 0.62371 0.0
H996 H 0.59088 0.30925 0.67228 0.0
H997 H 0.55591 0.29669 0.65783 0.0
H998 H 0.50833 0.34962 0.65329 0.0
C999 C 0.49032 0.34766 0.61505 0.0
C1000 C 0.53704 0.32304 0.63011 0.0
C1001 C 0.47602 0.34373 0.60553 0.0
C1002 C 0.58354 0.32537 0.67016 0.0
C1003 C 0.56375 0.31829 0.6618 0.0
C1004 C 0.51655 0.34217 0.64688 0.0
C1005 C 0.49931 0.3268 0.61845 0.0
C1006 C 0.5135 0.33003 0.62871 0.0
C1007 C 0.55571 0.33968 0.65823 0.0
C1008 C 0.54 0.33506 0.64823 0.0
H1009 H 0.47626 0.27906 0.59785 0.0
H1010 H 0.50044 0.28556 0.61436 0.0
H1011 H 0.48494 0.34465 0.63651 0.0
H1012 H 0.59476 0.39662 0.67565 0.0
H1013 H 0.55995 0.38407 0.66118 0.0
C1014 C 0.64422 0.14242 0.61167 0.0
C1015 C 0.66993 0.1543 0.60512 0.0
C1016 C 0.64218 0.16106 0.61919 0.0
C1017 C 0.69098 0.23348 0.63354 0.0
H1018 H 0.61313 0.22856 0.63977 0.0
C1019 C 0.68569 0.32785 0.65603 0.0
C1020 C 0.66511 0.31864 0.66433 0.0
C1021 C 0.68418 0.30622 0.64907 0.0
C1022 C 0.63492 0.2299 0.63817 0.0
H1023 H 0.71334 0.19518 0.60117 0.0
H1024 H 0.70948 0.22787 0.61406 0.0
H1025 H 0.6148 0.19395 0.62698 0.0
H1026 H 0.62607 0.2796 0.67163 0.0
H1027 H 0.62318 0.24154 0.65925 0.0
H1028 H 0.71121 0.26992 0.64451 0.0
C1029 C 0.69121 0.20396 0.6136 0.0
C1030 C 0.63592 0.21009 0.63087 0.0
C1031 C 0.69335 0.18528 0.60615 0.0
C1032 C 0.64225 0.28735 0.66531 0.0
C1033 C 0.64055 0.26563 0.65823 0.0
C1034 C 0.69001 0.25338 0.64074 0.0
C1035 C 0.66574 0.19204 0.62028 0.0
C1036 C 0.66408 0.21194 0.62837 0.0
C1037 C 0.66194 0.27486 0.65017 0.0
C1038 C 0.66209 0.25209 0.64303 0.0
H1039 H 0.62584 0.11858 0.61109 0.0
H1040 H 0.62241 0.15102 0.62426 0.0
H1041 H 0.71291 0.23503 0.63202 0.0
H1042 H 0.70358 0.35176 0.65503 0.0
H1043 H 0.70065 0.31404 0.64283 0.0
C1044 C 0.46798 0.14581 0.11607 0.0
C1045 C 0.46017 0.16065 0.10855 0.0
C1046 C 0.47715 0.15877 0.12584 0.0
C1047 C 0.50854 0.23423 0.13884 0.0
H1048 H 0.48971 0.1862 0.16376 0.0
C1049 C 0.55963 0.29861 0.17501 0.0
C1050 C 0.57849 0.28896 0.17959 0.0
C1051 C 0.53525 0.27846 0.16872 0.0
C1052 C 0.49493 0.19988 0.15687 0.0
H1053 H 0.45448 0.19997 0.10557 0.0
H1054 H 0.46947 0.22184 0.12246 0.0
H1055 H 0.46858 0.15999 0.14744 0.0
H1056 H 0.5845 0.24997 0.1824 0.0
H1057 H 0.54222 0.21479 0.17133 0.0
H1058 H 0.5353 0.27392 0.14804 0.0
C1059 C 0.46964 0.20083 0.12081 0.0
C1060 C 0.48307 0.18488 0.14751 0.0
C1061 C 0.46097 0.1882 0.11108 0.0
C1062 C 0.56992 0.25775 0.17904 0.0
C1063 C 0.5458 0.23765 0.17261 0.0
C1064 C 0.52009 0.24911 0.14812 0.0
C1065 C 0.47834 0.18664 0.12829 0.0
C1066 C 0.48993 0.20193 0.13837 0.0
C1067 C 0.5299 0.24862 0.16676 0.0
C1068 C 0.51365 0.23222 0.15726 0.0
H1069 H 0.46739 0.12444 0.11437 0.0
H1070 H 0.48394 0.14734 0.13138 0.0
H1071 H 0.51508 0.24815 0.13197 0.0
H1072 H 0.56601 0.32267 0.17528 0.0
H1073 H 0.52282 0.28733 0.16452 0.0
C1074 C 0.90631 0.35872 0.12427 0.0
C1075 C 0.89157 0.33995 0.11575 0.0
C1076 C 0.89084 0.35302 0.13363 0.0
C1077 C 0.82288 0.29285 0.148 0.0
H1078 H 0.82619 0.36253 0.16184 0.0
C1079 C 0.72344 0.28657 0.17072 0.0
C1080 C 0.7292 0.30883 0.1782 0.0
C1081 C 0.74783 0.28571 0.16597 0.0
C1082 C 0.82557 0.3428 0.15827 0.0
H1083 H 0.8491 0.30035 0.11041 0.0
H1084 H 0.82204 0.29068 0.12665 0.0
H1085 H 0.86013 0.37144 0.14738 0.0
H1086 H 0.76451 0.34518 0.18747 0.0
H1087 H 0.80745 0.34368 0.17917 0.0
H1088 H 0.78732 0.26417 0.15863 0.0
C1089 C 0.84571 0.30953 0.12617 0.0
C1090 C 0.84498 0.34794 0.14993 0.0
C1091 C 0.86112 0.31528 0.11682 0.0
C1092 C 0.75948 0.32773 0.18174 0.0
C1093 C 0.78406 0.32712 0.17689 0.0
C1094 C 0.80349 0.28771 0.15636 0.0
C1095 C 0.86034 0.32834 0.1347 0.0
C1096 C 0.84311 0.32299 0.14446 0.0
C1097 C 0.77855 0.30733 0.16854 0.0
C1098 C 0.80382 0.31259 0.16137 0.0
H1099 H 0.92983 0.37782 0.12371 0.0
H1100 H 0.90284 0.36784 0.14005 0.0
H1101 H 0.82137 0.27314 0.1441 0.0
H1102 H 0.70025 0.27176 0.16786 0.0
H1103 H 0.7426 0.27017 0.15958 0.0
C1104 C 0.65956 0.55969 0.1192 0.0
C1105 C 0.67943 0.56807 0.11073 0.0
C1106 C 0.66594 0.54848 0.12813 0.0
C1107 C 0.70874 0.51058 0.13627 0.0
H1108 H 0.69519 0.52956 0.16381 0.0
C1109 C 0.73465 0.45443 0.16867 0.0
C1110 C 0.70962 0.4381 0.17531 0.0
C1111 C 0.73682 0.47856 0.16277 0.0
C1112 C 0.69914 0.52414 0.15616 0.0
H1113 H 0.72222 0.57261 0.10514 0.0
H1114 H 0.73344 0.55372 0.12061 0.0
H1115 H 0.68555 0.55413 0.14919 0.0
H1116 H 0.66911 0.43596 0.1819 0.0
H1117 H 0.67226 0.47761 0.17136 0.0
H1118 H 0.72149 0.48015 0.14301 0.0
C1119 C 0.71256 0.55497 0.12034 0.0
C1120 C 0.69347 0.53805 0.1478 0.0
C1121 C 0.70612 0.56587 0.11146 0.0
C1122 C 0.68881 0.44853 0.17688 0.0
C1123 C 0.69057 0.47232 0.1708 0.0
C1124 C 0.71442 0.49683 0.14455 0.0
C1125 C 0.69234 0.54562 0.12873 0.0
C1126 C 0.69826 0.53139 0.13775 0.0
C1127 C 0.71343 0.48609 0.16319 0.0
C1128 C 0.70977 0.50339 0.15461 0.0
H1129 H 0.63891 0.56133 0.11888 0.0
H1130 H 0.6498 0.54128 0.13445 0.0
H1131 H 0.7119 0.50425 0.12865 0.0
H1132 H 0.75093 0.44668 0.16735 0.0
H1133 H 0.75529 0.4894 0.15721 0.0
C1134 C 0.51276 0.14543 0.05586 0.0
C1135 C 0.48176 0.13765 0.05504 0.0
C1136 C 0.53271 0.1579 0.04752 0.0
C1137 C 0.53635 0.16651 0.01956 0.0
H1138 H 0.61313 0.24224 0.02504 0.0
C1139 C 0.61318 0.25307 0.98816 0.0
C1140 C 0.64449 0.27289 0.99039 0.0
C1141 C 0.59389 0.23088 0.99532 0.0
C1142 C 0.59223 0.2207 0.02335 0.0
H1143 H 0.44712 0.13595 0.04476 0.0
H1144 H 0.48209 0.15771 0.03015 0.0
H1145 H 0.5782 0.21469 0.039 0.0
H1146 H 0.6811 0.28336 0.00115 0.0
H1147 H 0.6482 0.2433 0.01328 0.0
H1148 H 0.55046 0.17259 0.00386 0.0
C1149 C 0.49085 0.15409 0.03725 0.0
C1150 C 0.57208 0.20502 0.03138 0.0
C1151 C 0.47094 0.1419 0.04564 0.0
C1152 C 0.65692 0.26828 0.99932 0.0
C1153 C 0.63793 0.24565 0.00633 0.0
C1154 C 0.55678 0.18205 0.01149 0.0
C1155 C 0.52202 0.16256 0.03815 0.0
C1156 C 0.54382 0.17795 0.02958 0.0
C1157 C 0.60585 0.22793 0.00472 0.0
C1158 C 0.58492 0.20952 0.01327 0.0
H1159 H 0.52176 0.14229 0.06298 0.0
H1160 H 0.55658 0.16403 0.0484 0.0
H1161 H 0.51475 0.14553 0.01798 0.0
H1162 H 0.60312 0.25657 0.98134 0.0
H1163 H 0.56935 0.21776 0.9938 0.0
C1164 C 0.90675 0.40591 0.05724 0.0
C1165 C 0.90111 0.37701 0.06068 0.0
C1166 C 0.89384 0.4086 0.04815 0.0
C1167 C 0.84798 0.40674 0.03312 0.0
H1168 H 0.82961 0.35244 0.0099 0.0
C1169 C 0.75531 0.38738 0.00402 0.0
C1170 C 0.75832 0.38147 0.99374 0.0
C1171 C 0.77718 0.39075 0.01122 0.0
C1172 C 0.83504 0.36816 0.01624 0.0
H1173 H 0.87806 0.32829 0.0571 0.0
H1174 H 0.85419 0.33268 0.04137 0.0
H1175 H 0.85959 0.34982 0.02415 0.0
H1176 H 0.78744 0.37587 0.98281 0.0
H1177 H 0.82642 0.3823 0.99548 0.0
H1178 H 0.82399 0.42544 0.02523 0.0
C1179 C 0.86929 0.35347 0.0456 0.0
C1180 C 0.85182 0.36631 0.0245 0.0
C1181 C 0.88277 0.35086 0.05465 0.0
C1182 C 0.78467 0.38061 0.99068 0.0
C1183 C 0.80672 0.38389 0.99796 0.0
C1184 C 0.83155 0.40876 0.02487 0.0
C1185 C 0.8743 0.38239 0.0423 0.0
C1186 C 0.8581 0.38527 0.03314 0.0
C1187 C 0.80287 0.38841 0.00836 0.0
C1188 C 0.82419 0.38904 0.01642 0.0
H1189 H 0.92129 0.42664 0.06158 0.0
H1190 H 0.89911 0.43139 0.04575 0.0
H1191 H 0.85184 0.42148 0.03964 0.0
H1192 H 0.73534 0.38835 0.0066 0.0
H1193 H 0.77309 0.39381 0.01914 0.0
C1194 C 0.67401 0.56021 0.04896 0.0
C1195 C 0.65965 0.54427 0.05801 0.0
C1196 C 0.67506 0.54408 0.04036 0.0
C1197 C 0.67276 0.4726 0.03324 0.0
H1198 H 0.6403 0.4787 0.00703 0.0
C1199 C 0.6452 0.38126 0.00314 0.0
C1200 C 0.65494 0.39111 0.99309 0.0
C1201 C 0.6445 0.40136 0.0103 0.0
C1202 C 0.64977 0.47701 0.01426 0.0
H1203 H 0.63582 0.49915 0.06523 0.0
H1204 H 0.63828 0.47141 0.05043 0.0
H1205 H 0.64469 0.51312 0.02104 0.0
H1206 H 0.66953 0.42896 0.98242 0.0
H1207 H 0.66887 0.46462 0.99505 0.0
H1208 H 0.67809 0.43685 0.02663 0.0
C1209 C 0.6485 0.49622 0.0499 0.0
C1210 C 0.65235 0.49675 0.02226 0.0
C1211 C 0.647 0.51214 0.05837 0.0
C1212 C 0.66183 0.4208 0.99013 0.0
C1213 C 0.66152 0.44121 0.99737 0.0
C1214 C 0.67043 0.45316 0.02528 0.0
C1215 C 0.66236 0.51192 0.0408 0.0
C1216 C 0.6632 0.49417 0.03189 0.0
C1217 C 0.65404 0.43203 0.00764 0.0
C1218 C 0.65815 0.45449 0.01577 0.0
H1219 H 0.68377 0.58495 0.04845 0.0
H1220 H 0.68598 0.55669 0.03343 0.0
H1221 H 0.68169 0.47048 0.04053 0.0
H1222 H 0.63936 0.35833 0.00558 0.0
H1223 H 0.63755 0.39316 0.01804 0.0
C1224 C 0.56042 0.89821 0.88154 0.0
C1225 C 0.5743 0.88744 0.88841 0.0
C1226 C 0.54908 0.88352 0.87217 0.0
C1227 C 0.52133 0.8087 0.8594 0.0
H1228 H 0.52163 0.85473 0.83557 0.0
C1229 C 0.43367 0.78434 0.82571 0.0
C1230 C 0.42605 0.7543 0.82302 0.0
C1231 C 0.46074 0.80341 0.83108 0.0
C1232 C 0.52164 0.84157 0.84213 0.0
H1233 H 0.5878 0.8532 0.89073 0.0
H1234 H 0.5683 0.82774 0.87431 0.0
H1235 H 0.55137 0.88236 0.85065 0.0
H1236 H 0.44169 0.72137 0.82301 0.0
H1237 H 0.48925 0.75477 0.83251 0.0
H1238 H 0.49078 0.76798 0.85103 0.0
C1239 C 0.56575 0.84727 0.87623 0.0
C1240 C 0.53846 0.85737 0.8508 0.0
C1241 C 0.57696 0.86188 0.88564 0.0
C1242 C 0.44729 0.7446 0.82493 0.0
C1243 C 0.47429 0.76358 0.83044 0.0
C1244 C 0.50467 0.79292 0.85072 0.0
C1245 C 0.5515 0.8578 0.86939 0.0
C1246 C 0.53762 0.84114 0.85967 0.0
C1247 C 0.48047 0.79258 0.834 0.0
C1248 C 0.50377 0.80919 0.84211 0.0
H1249 H 0.558 0.91784 0.88344 0.0
H1250 H 0.53772 0.89193 0.8672 0.0
H1251 H 0.51989 0.79539 0.8661 0.0
H1252 H 0.41747 0.79218 0.82438 0.0
H1253 H 0.46466 0.8255 0.83375 0.0
C1254 C 0.13926 0.68668 0.88757 0.0
C1255 C 0.15062 0.71267 0.89392 0.0
C1256 C 0.15076 0.68935 0.87766 0.0
C1257 C 0.21915 0.73898 0.86192 0.0
H1258 H 0.16692 0.68616 0.84013 0.0
C1259 C 0.27479 0.7277 0.82576 0.0
C1260 C 0.26664 0.69678 0.82453 0.0
C1261 C 0.25599 0.73503 0.83158 0.0
C1262 C 0.18174 0.70133 0.8461 0.0
H1263 H 0.18257 0.762 0.8948 0.0
H1264 H 0.20246 0.76674 0.87749 0.0
H1265 H 0.14367 0.68853 0.85624 0.0
H1266 H 0.23148 0.64932 0.82734 0.0
H1267 H 0.19837 0.66186 0.83724 0.0
H1268 H 0.25729 0.75087 0.85197 0.0
C1269 C 0.18497 0.74418 0.8802 0.0
C1270 C 0.16848 0.7025 0.85536 0.0
C1271 C 0.17357 0.74146 0.89013 0.0
C1272 C 0.23796 0.67333 0.82812 0.0
C1273 C 0.21903 0.68059 0.83381 0.0
C1274 C 0.23237 0.73792 0.85266 0.0
C1275 C 0.17378 0.71814 0.87385 0.0
C1276 C 0.18715 0.72047 0.86351 0.0
C1277 C 0.22878 0.71148 0.83614 0.0
C1278 C 0.21393 0.71823 0.84477 0.0
H1279 H 0.12157 0.66417 0.89026 0.0
H1280 H 0.14204 0.66868 0.87308 0.0
H1281 H 0.2343 0.7529 0.86804 0.0
H1282 H 0.29709 0.74613 0.8232 0.0
H1283 H 0.26392 0.75905 0.83318 0.0
C1284 C 0.28962 0.46569 0.89753 0.0
C1285 C 0.31647 0.46688 0.90123 0.0
C1286 C 0.28942 0.47811 0.88802 0.0
C1287 C 0.33368 0.50695 0.86361 0.0
H1288 H 0.28538 0.54702 0.861 0.0
C1289 C 0.35467 0.60071 0.83409 0.0
C1290 C 0.32927 0.60199 0.83026 0.0
C1291 C 0.3504 0.57753 0.84092 0.0
C1292 C 0.29847 0.53536 0.86152 0.0
H1293 H 0.36427 0.48219 0.89776 0.0
H1294 H 0.36442 0.50525 0.88129 0.0
H1295 H 0.28474 0.52229 0.87699 0.0
H1296 H 0.27943 0.57902 0.82994 0.0
H1297 H 0.27178 0.53839 0.84207 0.0
H1298 H 0.34868 0.52184 0.84822 0.0
C1299 C 0.34318 0.49388 0.88565 0.0
C1300 C 0.29819 0.52115 0.87072 0.0
C1301 C 0.34323 0.48094 0.89515 0.0
C1302 C 0.29934 0.57826 0.8327 0.0
C1303 C 0.29503 0.55528 0.83972 0.0
C1304 C 0.33428 0.52158 0.85442 0.0
C1305 C 0.31622 0.49265 0.88195 0.0
C1306 C 0.31597 0.50693 0.87195 0.0
C1307 C 0.32061 0.55549 0.84421 0.0
C1308 C 0.31687 0.53617 0.85331 0.0
H1309 H 0.26839 0.45457 0.90191 0.0
H1310 H 0.268 0.47594 0.88539 0.0
H1311 H 0.34723 0.49579 0.86416 0.0
H1312 H 0.37799 0.61895 0.83236 0.0
H1313 H 0.37056 0.57848 0.84426 0.0
C1314 C 0.58498 0.88293 0.95203 0.0
C1315 C 0.56615 0.87227 0.9433 0.0
C1316 C 0.57623 0.8652 0.961 0.0
C1317 C 0.53023 0.78696 0.9709 0.0
H1318 H 0.50623 0.82024 0.99345 0.0
C1319 C 0.42662 0.71241 0.99562 0.0
C1320 C 0.42353 0.72153 0.00546 0.0
C1321 C 0.45358 0.72989 0.99002 0.0
C1322 C 0.51364 0.81074 0.98741 0.0
H1323 H 0.52426 0.83433 0.93694 0.0
H1324 H 0.50964 0.80301 0.95245 0.0
H1325 H 0.53658 0.85395 0.97938 0.0
H1326 H 0.44724 0.75456 0.01756 0.0
H1327 H 0.49494 0.78544 0.00772 0.0
H1328 H 0.50675 0.74362 0.9787 0.0
C1329 C 0.53087 0.82517 0.95241 0.0
C1330 C 0.53091 0.83009 0.97933 0.0
C1331 C 0.53913 0.84316 0.94357 0.0
C1332 C 0.44903 0.74706 0.00997 0.0
C1333 C 0.47619 0.76485 0.0043 0.0
C1334 C 0.51349 0.76775 0.97905 0.0
C1335 C 0.54907 0.83619 0.96124 0.0
C1336 C 0.53801 0.81798 0.97079 0.0
C1337 C 0.47827 0.75711 0.99409 0.0
C1338 C 0.50345 0.77899 0.98713 0.0
H1339 H 0.60586 0.90537 0.95203 0.0
H1340 H 0.5905 0.87417 0.96776 0.0
H1341 H 0.53577 0.77722 0.96443 0.0
H1342 H 0.4074 0.69266 0.99199 0.0
H1343 H 0.45396 0.72321 0.98219 0.0
C1344 C 0.19802 0.72901 0.95164 0.0
C1345 C 0.17331 0.73363 0.94944 0.0
C1346 C 0.2153 0.74099 0.96053 0.0
C1347 C 0.2572 0.77924 0.97758 0.0
H1348 H 0.211 0.75903 0.00292 0.0
C1349 C 0.31591 0.77125 0.01253 0.0
C1350 C 0.29821 0.74188 0.01691 0.0
C1351 C 0.30159 0.7841 0.00686 0.0
C1352 C 0.22436 0.76517 0.99593 0.0
H1353 H 0.14782 0.75513 0.95479 0.0
H1354 H 0.17806 0.77593 0.97046 0.0
H1355 H 0.1847 0.75368 0.98673 0.0
H1356 H 0.25187 0.70459 0.01992 0.0
H1357 H 0.22686 0.7263 0.00997 0.0
H1358 H 0.29618 0.78815 0.98651 0.0
C1359 C 0.18394 0.76299 0.96524 0.0
C1360 C 0.2093 0.76234 0.98665 0.0
C1361 C 0.16673 0.75118 0.95626 0.0
C1362 C 0.26595 0.72753 0.01674 0.0
C1363 C 0.25163 0.74006 0.01095 0.0
C1364 C 0.27218 0.7819 0.98681 0.0
C1365 C 0.20831 0.75784 0.9675 0.0
C1366 C 0.22528 0.76784 0.97735 0.0
C1367 C 0.26944 0.76726 0.00525 0.0
C1368 C 0.25565 0.77339 0.99609 0.0
H1369 H 0.20378 0.71567 0.94657 0.0
H1370 H 0.23353 0.73609 0.96211 0.0
H1371 H 0.2703 0.78432 0.97055 0.0
H1372 H 0.34087 0.78256 0.01245 0.0
H1373 H 0.31601 0.80561 0.00286 0.0
C1374 C 0.29582 0.44581 0.96012 0.0
C1375 C 0.32576 0.45469 0.95682 0.0
C1376 C 0.29115 0.45739 0.96921 0.0
C1377 C 0.33379 0.52117 0.98797 0.0
H1378 H 0.25526 0.47851 0.00223 0.0
C1379 C 0.31144 0.58092 0.02041 0.0
C1380 C 0.29135 0.59003 0.01641 0.0
C1381 C 0.31204 0.55567 0.01621 0.0
C1382 C 0.27747 0.49037 0.99842 0.0
H1383 H 0.37427 0.48144 0.96061 0.0
H1384 H 0.3663 0.50021 0.9768 0.0
H1385 H 0.26592 0.45231 0.98851 0.0
H1386 H 0.25282 0.57722 0.00622 0.0
H1387 H 0.25294 0.5323 0.99923 0.0
H1388 H 0.34527 0.55903 0.998 0.0
C1389 C 0.34629 0.48552 0.97219 0.0
C1390 C 0.2835 0.47565 0.99043 0.0
C1391 C 0.35097 0.47466 0.96292 0.0
C1392 C 0.26856 0.57066 0.00941 0.0
C1393 C 0.26868 0.54499 0.00539 0.0
C1394 C 0.32808 0.53545 0.99612 0.0
C1395 C 0.31631 0.47747 0.97541 0.0
C1396 C 0.31137 0.49125 0.98485 0.0
C1397 C 0.2919 0.53876 0.00821 0.0
C1398 C 0.29959 0.52055 0.00122 0.0
H1399 H 0.27597 0.43049 0.95551 0.0
H1400 H 0.26778 0.45111 0.97119 0.0
H1401 H 0.35525 0.53444 0.98384 0.0
H1402 H 0.32931 0.59552 0.02578 0.0
H1403 H 0.33008 0.55117 0.01851 0.0
C1404 C 0.12804 0.46838 0.44957 0.0
C1405 C 0.12794 0.48638 0.44135 0.0
C1406 C 0.14376 0.48253 0.45863 0.0
C1407 C 0.20826 0.55491 0.46785 0.0
H1408 H 0.16785 0.53661 0.4943 0.0
C1409 C 0.26334 0.64042 0.49998 0.0
C1410 C 0.26567 0.62927 0.50955 0.0
C1411 C 0.24361 0.62031 0.49257 0.0
C1412 C 0.17952 0.54167 0.48699 0.0
H1413 H 0.14448 0.53325 0.43616 0.0
H1414 H 0.17217 0.55765 0.45176 0.0
H1415 H 0.14001 0.5049 0.47941 0.0
H1416 H 0.24786 0.58877 0.51919 0.0
H1417 H 0.21328 0.55304 0.50605 0.0
H1418 H 0.2476 0.59151 0.47522 0.0
C1419 C 0.16001 0.53269 0.45126 0.0
C1420 C 0.16364 0.52353 0.4785 0.0
C1421 C 0.14403 0.51866 0.44233 0.0
C1422 C 0.24625 0.59787 0.51186 0.0
C1423 C 0.22661 0.57748 0.50434 0.0
C1424 C 0.22408 0.57277 0.47628 0.0
C1425 C 0.16006 0.51485 0.45949 0.0
C1426 C 0.17768 0.53062 0.46881 0.0
C1427 C 0.22612 0.58842 0.49448 0.0
C1428 C 0.20962 0.56705 0.48588 0.0
H1429 H 0.11568 0.44344 0.44905 0.0
H1430 H 0.14357 0.46832 0.46488 0.0
H1431 H 0.21977 0.5605 0.46049 0.0
H1432 H 0.27793 0.66462 0.49806 0.0
H1433 H 0.24304 0.62963 0.48516 0.0
C1434 C 0.51269 0.6096 0.44706 0.0
C1435 C 0.53924 0.6387 0.4456 0.0
C1436 C 0.49516 0.60305 0.45599 0.0
C1437 C 0.49618 0.62878 0.48262 0.0
H1438 H 0.40827 0.59268 0.47835 0.0
C1439 C 0.41548 0.64402 0.51008 0.0
C1440 C 0.38357 0.62394 0.50914 0.0
C1441 C 0.43609 0.63873 0.50448 0.0
C1442 C 0.43259 0.60195 0.47982 0.0
H1443 H 0.56869 0.68345 0.45252 0.0
H1444 H 0.53792 0.67205 0.4681 0.0
H1445 H 0.4412 0.59813 0.46406 0.0
H1446 H 0.34818 0.58052 0.50288 0.0
H1447 H 0.38406 0.56989 0.49374 0.0
H1448 H 0.48753 0.63313 0.49839 0.0
C1449 C 0.53081 0.65422 0.46236 0.0
C1450 C 0.45158 0.60527 0.47155 0.0
C1451 C 0.54828 0.66085 0.45339 0.0
C1452 C 0.37276 0.59628 0.50374 0.0
C1453 C 0.39335 0.59058 0.49834 0.0
C1454 C 0.47708 0.6252 0.49096 0.0
C1455 C 0.50381 0.62537 0.46371 0.0
C1456 C 0.48366 0.61929 0.47279 0.0
C1457 C 0.42502 0.61297 0.49797 0.0
C1458 C 0.44505 0.61231 0.48963 0.0
H1459 H 0.50519 0.59193 0.44125 0.0
H1460 H 0.47467 0.58049 0.45683 0.0
H1461 H 0.52079 0.63931 0.48385 0.0
H1462 H 0.42429 0.66574 0.51409 0.0
H1463 H 0.46023 0.65651 0.50446 0.0
C1464 C 0.37505 0.88102 0.44559 0.0
C1465 C 0.35248 0.88941 0.44679 0.0
C1466 C 0.38199 0.86727 0.45363 0.0
C1467 C 0.37835 0.85672 0.48143 0.0
H1468 H 0.37292 0.77888 0.4751 0.0
C1469 C 0.36723 0.76909 0.5124 0.0
C1470 C 0.37643 0.74785 0.50988 0.0
C1471 C 0.3702 0.79116 0.50523 0.0
C1472 C 0.3754 0.80095 0.47703 0.0
H1473 H 0.32022 0.8909 0.45745 0.0
H1474 H 0.33272 0.86719 0.47157 0.0
H1475 H 0.3668 0.80826 0.46158 0.0
H1476 H 0.39831 0.73441 0.49842 0.0
H1477 H 0.40574 0.7742 0.48623 0.0
H1478 H 0.38726 0.84961 0.49689 0.0
C1479 C 0.3449 0.87119 0.46438 0.0
C1480 C 0.37162 0.81768 0.46924 0.0
C1481 C 0.3376 0.88452 0.45628 0.0
C1482 C 0.39105 0.75063 0.5005 0.0
C1483 C 0.3948 0.77313 0.49346 0.0
C1484 C 0.38268 0.8402 0.48924 0.0
C1485 C 0.36687 0.86207 0.46309 0.0
C1486 C 0.37272 0.84553 0.47136 0.0
C1487 C 0.38292 0.79263 0.4955 0.0
C1488 C 0.38095 0.81188 0.48716 0.0
H1489 H 0.38697 0.88456 0.43838 0.0
H1490 H 0.39913 0.86057 0.45246 0.0
H1491 H 0.37951 0.87829 0.48325 0.0
H1492 H 0.35541 0.76698 0.51954 0.0
H1493 H 0.3606 0.80555 0.50711 0.0
C1494 C 0.1663 0.49715 0.38924 0.0
C1495 C 0.13426 0.4851 0.38935 0.0
C1496 C 0.18457 0.5173 0.38153 0.0
C1497 C 0.1876 0.5716 0.36204 0.0
H1498 H 0.25512 0.56279 0.35177 0.0
C1499 C 0.27529 0.64762 0.3299 0.0
C1500 C 0.3063 0.65832 0.33243 0.0
C1501 C 0.25143 0.62639 0.33626 0.0
C1502 C 0.23637 0.56555 0.35458 0.0
H1503 H 0.09622 0.48492 0.38147 0.0
H1504 H 0.12835 0.52017 0.36787 0.0
H1505 H 0.21833 0.52484 0.36372 0.0
H1506 H 0.33659 0.65615 0.3438 0.0
H1507 H 0.29525 0.61937 0.35475 0.0
H1508 H 0.20615 0.61265 0.35284 0.0
C1509 C 0.13925 0.51409 0.37383 0.0
C1510 C 0.21535 0.54389 0.36144 0.0
C1511 C 0.12087 0.49382 0.38158 0.0
C1512 C 0.31298 0.64829 0.34158 0.0
C1513 C 0.2893 0.62705 0.34784 0.0
C1514 C 0.20867 0.5933 0.35509 0.0
C1515 C 0.1713 0.52587 0.37369 0.0
C1516 C 0.19124 0.5471 0.36549 0.0
C1517 C 0.25831 0.61538 0.34515 0.0
C1518 C 0.23372 0.59087 0.35152 0.0
H1519 H 0.17739 0.49108 0.39513 0.0
H1520 H 0.20925 0.52644 0.38178 0.0
H1521 H 0.1693 0.57473 0.36504 0.0
H1522 H 0.26944 0.65501 0.3229 0.0
H1523 H 0.22767 0.61775 0.33404 0.0
C1524 C 0.50319 0.64857 0.38921 0.0
C1525 C 0.52739 0.64268 0.39078 0.0
C1526 C 0.48824 0.64254 0.37979 0.0
C1527 C 0.45168 0.61821 0.36036 0.0
H1528 H 0.50501 0.64801 0.33659 0.0
C1529 C 0.40502 0.63633 0.32277 0.0
C1530 C 0.42403 0.66599 0.31868 0.0
C1531 C 0.41683 0.62417 0.3299 0.0
C1532 C 0.48971 0.63943 0.34313 0.0
H1533 H 0.55401 0.6246 0.38373 0.0
H1534 H 0.52768 0.61391 0.36721 0.0
H1535 H 0.52595 0.64433 0.35297 0.0
H1536 H 0.471 0.7046 0.31798 0.0
H1537 H 0.49138 0.68379 0.33038 0.0
H1538 H 0.41602 0.61538 0.35076 0.0
C1539 C 0.52052 0.6235 0.3733 0.0
C1540 C 0.50167 0.63699 0.35252 0.0
C1541 C 0.53548 0.62944 0.38278 0.0
C1542 C 0.45566 0.68177 0.32105 0.0
C1543 C 0.46742 0.66968 0.32816 0.0
C1544 C 0.43978 0.62078 0.351 0.0
C1545 C 0.497 0.63042 0.37164 0.0
C1546 C 0.48308 0.62745 0.36134 0.0
C1547 C 0.44787 0.6414 0.33307 0.0
C1548 C 0.45891 0.6325 0.34234 0.0
H1549 H 0.49624 0.65868 0.39518 0.0
H1550 H 0.47062 0.64866 0.3788 0.0
H1551 H 0.43652 0.61017 0.36694 0.0
H1552 H 0.38056 0.62349 0.32108 0.0
H1553 H 0.40123 0.60199 0.33335 0.0
C1554 C 0.29291 0.83949 0.39073 0.0
C1555 C 0.31594 0.86936 0.39363 0.0
C1556 C 0.2935 0.82785 0.38112 0.0
C1557 C 0.32907 0.85056 0.35523 0.0
H1558 H 0.30649 0.76458 0.35399 0.0
C1559 C 0.36617 0.7967 0.32338 0.0
C1560 C 0.34643 0.76548 0.32087 0.0
C1561 C 0.35762 0.81093 0.33079 0.0
C1562 C 0.31226 0.78846 0.35414 0.0
H1563 H 0.35759 0.91053 0.38861 0.0
H1564 H 0.35924 0.88982 0.3719 0.0
H1565 H 0.30259 0.78622 0.37008 0.0
H1566 H 0.30096 0.72561 0.32344 0.0
H1567 H 0.28597 0.75055 0.33637 0.0
H1568 H 0.33997 0.85285 0.33928 0.0
C1569 C 0.34029 0.87562 0.377 0.0
C1570 C 0.31009 0.80096 0.3634 0.0
C1571 C 0.33951 0.88743 0.38662 0.0
C1572 C 0.31675 0.74967 0.32521 0.0
C1573 C 0.30827 0.76386 0.3327 0.0
C1574 C 0.33147 0.83806 0.34595 0.0
C1575 C 0.31736 0.84557 0.37415 0.0
C1576 C 0.31869 0.83224 0.36411 0.0
C1577 C 0.32919 0.79419 0.33589 0.0
C1578 C 0.32334 0.80691 0.34533 0.0
H1579 H 0.27413 0.82504 0.39587 0.0
H1580 H 0.27507 0.80491 0.37914 0.0
H1581 H 0.33541 0.8746 0.35544 0.0
H1582 H 0.38914 0.80955 0.32012 0.0
H1583 H 0.37428 0.8343 0.33306 0.0
C1584 C 0.32454 0.08683 0.09834 0.0
C1585 C 0.33321 0.10704 0.08995 0.0
C1586 C 0.29955 0.08132 0.10447 0.0
C1587 C 0.24657 0.11056 0.11062 0.0
H1588 H 0.19176 0.02566 0.11885 0.0
C1589 C 0.12816 0.06807 0.1309 0.0
C1590 C 0.10417 0.04295 0.1257 0.0
C1591 C 0.15904 0.07749 0.12866 0.0
C1592 C 0.20701 0.04955 0.1167 0.0
H1593 H 0.32238 0.13728 0.08141 0.0
H1594 H 0.27774 0.12657 0.09185 0.0
H1595 H 0.23982 0.03951 0.11023 0.0
H1596 H 0.09336 0.00734 0.1144 0.0
H1597 H 0.1465 0.0235 0.11056 0.0
H1598 H 0.21233 0.11989 0.11657 0.0
C1599 C 0.29086 0.11566 0.09387 0.0
C1600 C 0.2347 0.05758 0.11181 0.0
C1601 C 0.31619 0.1215 0.08779 0.0
C1602 C 0.1114 0.02693 0.11849 0.0
C1603 C 0.14188 0.03599 0.11636 0.0
C1604 C 0.21864 0.10244 0.11549 0.0
C1605 C 0.28226 0.0955 0.10229 0.0
C1606 C 0.25447 0.088 0.10846 0.0
C1607 C 0.16607 0.06146 0.12134 0.0
C1608 C 0.19818 0.07163 0.11826 0.0
H1609 H 0.33746 0.07569 0.10034 0.0
H1610 H 0.29395 0.06607 0.11098 0.0
H1611 H 0.26158 0.13434 0.10832 0.0
H1612 H 0.12311 0.08097 0.13639 0.0
H1613 H 0.17735 0.0973 0.13257 0.0
C1614 C 0.97449 0.27198 0.1025 0.0
C1615 C 0.95514 0.26923 0.09433 0.0
C1616 C 0.97588 0.24646 0.10596 0.0
C1617 C 0.93293 0.16067 0.10542 0.0
H1618 H 0.01046 0.17222 0.11566 0.0
C1619 C 0.95739 0.0617 0.11405 0.0
C1620 C 0.97459 0.06456 0.12286 0.0
C1621 C 0.95192 0.0853 0.11118 0.0
C1622 C 0.98855 0.16869 0.11295 0.0
H1623 H 0.92251 0.23757 0.08323 0.0
H1624 H 0.92571 0.19303 0.08905 0.0
H1625 H 0.00851 0.21604 0.1087 0.0
H1626 H -0.00083 0.09413 0.13565 0.0
H1627 H 0.98944 0.13532 0.13071 0.0
H1628 H 0.91338 0.11291 0.10942 0.0
C1629 C 0.93928 0.21484 0.09295 0.0
C1630 C 0.98738 0.19384 0.10895 0.0
C1631 C 0.93765 0.24042 0.08955 0.0
C1632 C 0.98524 0.09097 0.12896 0.0
C1633 C 0.98006 0.11473 0.12604 0.0
C1634 C 0.93421 0.13539 0.10932 0.0
C1635 C 0.95824 0.21748 0.10127 0.0
C1636 C 0.95953 0.19027 0.10519 0.0
C1637 C 0.96398 0.11245 0.11699 0.0
C1638 C 0.96202 0.13921 0.11317 0.0
H1639 H 0.98808 0.29375 0.10643 0.0
H1640 H -0.0097 0.2494 0.11249 0.0
H1641 H 0.91096 0.15706 0.10275 0.0
H1642 H 0.94903 0.04162 0.10917 0.0
H1643 H 0.93963 0.08297 0.10414 0.0
C1644 C 0.74666 0.71673 0.10304 0.0
C1645 C 0.75179 0.70237 0.09468 0.0
C1646 C 0.77139 0.74051 0.10831 0.0
C1647 C 0.85559 0.77503 0.11267 0.0
H1648 H 0.8495 0.8442 0.12277 0.0
C1649 C 0.95845 0.89494 0.12171 0.0
C1650 C 0.95567 0.91244 0.12954 0.0
C1651 C 0.93438 0.86514 0.11967 0.0
C1652 C 0.85133 0.82472 0.12021 0.0
H1653 H 0.78698 0.70236 0.08511 0.0
H1654 H 0.83031 0.74475 0.0941 0.0
H1655 H 0.8059 0.80237 0.11391 0.0
H1656 H 0.92684 0.91185 0.14193 0.0
H1657 H 0.88429 0.8595 0.13829 0.0
H1658 H 0.90171 0.79838 0.11861 0.0
C1659 C 0.8071 0.73702 0.09676 0.0
C1660 C 0.82634 0.80073 0.11508 0.0
C1661 C 0.78227 0.71298 0.09152 0.0
C1662 C 0.92957 0.8987 0.13589 0.0
C1663 C 0.90516 0.86892 0.13374 0.0
C1664 C 0.88071 0.7992 0.11774 0.0
C1665 C 0.80196 0.7508 0.10531 0.0
C1666 C 0.82827 0.77577 0.11111 0.0
C1667 C 0.90686 0.85243 0.12532 0.0
C1668 C 0.87897 0.8245 0.12144 0.0
H1669 H 0.72347 0.70897 0.10575 0.0
H1670 H 0.76648 0.75023 0.11493 0.0
H1671 H 0.85768 0.75586 0.10993 0.0
H1672 H 0.97841 0.90511 0.11672 0.0
H1673 H 0.93638 0.85313 0.11312 0.0
C1674 C 0.06007 0.32202 0.39384 0.0
C1675 C 0.07431 0.33471 0.40324 0.0
C1676 C 0.05951 0.2959 0.38996 0.0
C1677 C 0.09555 0.24728 0.39296 0.0
H1678 H 0.02131 0.18623 0.37911 0.0
C1679 C 0.05887 0.11927 0.38814 0.0
C1680 C 0.04451 0.10428 0.37899 0.0
C1681 C 0.06772 0.15012 0.38969 0.0
C1682 C 0.04244 0.20331 0.38279 0.0
H1683 H 0.09908 0.32992 0.41597 0.0
H1684 H 0.0971 0.28352 0.4094 0.0
H1685 H 0.02515 0.23385 0.38503 0.0
H1686 H 0.02974 0.11032 0.36405 0.0
H1687 H 0.0449 0.16438 0.36683 0.0
H1688 H 0.11203 0.2157 0.39111 0.0
C1689 C 0.08705 0.29423 0.40487 0.0
C1690 C 0.04468 0.23068 0.3862 0.0
C1691 C 0.08796 0.32067 0.4087 0.0
C1692 C 0.04082 0.12128 0.37117 0.0
C1693 C 0.04928 0.15212 0.37278 0.0
C1694 C 0.09313 0.21969 0.38965 0.0
C1695 C 0.07281 0.28149 0.39544 0.0
C1696 C 0.07113 0.25293 0.39143 0.0
C1697 C 0.06204 0.16655 0.38217 0.0
C1698 C 0.06641 0.19731 0.38462 0.0
H1699 H 0.04966 0.33252 0.38938 0.0
H1700 H 0.04888 0.28721 0.38259 0.0
H1701 H 0.11653 0.2641 0.39677 0.0
H1702 H 0.06215 0.10678 0.39428 0.0
H1703 H 0.07733 0.16054 0.39702 0.0
C1704 C 0.69435 0.75739 0.40408 0.0
C1705 C 0.66851 0.76041 0.40606 0.0
C1706 C 0.72086 0.78155 0.39952 0.0
C1707 C 0.76969 0.83053 0.38559 0.0
H1708 H 0.7946 0.91389 0.39394 0.0
C1709 C 0.88385 0.93598 0.37123 0.0
C1710 C 0.90178 0.95646 0.37903 0.0
C1711 C 0.85284 0.91354 0.37304 0.0
C1712 C 0.78802 0.89077 0.39151 0.0
H1713 H 0.65002 0.79093 0.40448 0.0
H1714 H 0.69572 0.83254 0.39635 0.0
H1715 H 0.74648 0.87103 0.4003 0.0
H1716 H 0.90068 0.97071 0.39459 0.0
H1717 H 0.84733 0.93197 0.39772 0.0
H1718 H 0.81224 0.85035 0.37726 0.0
C1719 C 0.69596 0.8119 0.39855 0.0
C1720 C 0.76015 0.86612 0.39508 0.0
C1721 C 0.66963 0.78792 0.4032 0.0
C1722 C 0.88761 0.95522 0.38842 0.0
C1723 C 0.85681 0.93304 0.3902 0.0
C1724 C 0.79772 0.85524 0.38207 0.0
C1725 C 0.72208 0.80921 0.39673 0.0
C1726 C 0.75081 0.83557 0.39231 0.0
C1727 C 0.83918 0.9114 0.38264 0.0
C1728 C 0.80754 0.88563 0.38517 0.0
H1729 H 0.69428 0.73653 0.40619 0.0
H1730 H 0.74064 0.77875 0.39839 0.0
H1731 H 0.76303 0.80741 0.38314 0.0
H1732 H 0.89408 0.93631 0.36391 0.0
H1733 H 0.83978 0.89746 0.367 0.0
C1734 C 0.23736 0.93654 0.40629 0.0
C1735 C 0.22931 0.91615 0.4146 0.0
C1736 C 0.21502 0.94063 0.40137 0.0
C1737 C 0.12957 0.9042 0.39867 0.0
H1738 H 0.15096 0.98459 0.38799 0.0
C1739 C 0.04351 0.94548 0.39083 0.0
C1740 C 0.04703 0.96198 0.38178 0.0
C1741 C 0.06437 0.93594 0.3933 0.0
C1742 C 0.1448 0.96189 0.39079 0.0
H1743 H 0.19173 0.88482 0.42448 0.0
H1744 H 0.15307 0.89303 0.41626 0.0
H1745 H 0.1907 0.97745 0.39592 0.0
H1746 H 0.07425 0.98025 0.36798 0.0
H1747 H 0.11143 0.9642 0.37247 0.0
H1748 H 0.0832 0.88933 0.39401 0.0
C1749 C 0.17637 0.90504 0.41326 0.0
C1750 C 0.16757 0.95773 0.39534 0.0
C1751 C 0.19861 0.90056 0.41806 0.0
C1752 C 0.07094 0.96745 0.37498 0.0
C1753 C 0.09227 0.95846 0.37757 0.0
C1754 C 0.10673 0.90853 0.39428 0.0
C1755 C 0.18416 0.9248 0.40475 0.0
C1756 C 0.1602 0.92891 0.39947 0.0
C1757 C 0.08949 0.94322 0.38686 0.0
C1758 C 0.1141 0.93749 0.39039 0.0
H1759 H 0.26077 0.94864 0.40337 0.0
H1760 H 0.2219 0.95568 0.39477 0.0
H1761 H 0.1231 0.88147 0.40151 0.0
H1762 H 0.02521 0.94087 0.39619 0.0
H1763 H 0.06182 0.92436 0.40053 0.0
C1764 C 0.7247 0.98203 0.8972 0.0
C1765 C 0.71176 0.96324 0.90586 0.0
C1766 C 0.74954 0.98285 0.89207 0.0
C1767 C 0.78704 0.93633 0.88858 0.0
H1768 H 0.85456 0.01203 0.8774 0.0
C1769 C 0.90565 0.95316 0.87812 0.0
C1770 C 0.92237 0.97286 0.86999 0.0
C1771 C 0.8766 0.94828 0.88075 0.0
C1772 C 0.83556 0.99057 0.88029 0.0
H1773 H 0.71569 0.93177 0.91624 0.0
H1774 H 0.75947 0.93383 0.90747 0.0
H1775 H 0.81231 0.01308 0.88616 0.0
H1776 H 0.92103 0.00147 0.85785 0.0
H1777 H 0.86995 0.99265 0.86238 0.0
H1778 H 0.81079 0.91401 0.88294 0.0
C1779 C 0.74994 0.94731 0.90446 0.0
C1780 C 0.81139 0.9912 0.88536 0.0
C1781 C 0.72507 0.94641 0.90956 0.0
C1782 C 0.9085 0.98579 0.86406 0.0
C1783 C 0.87946 0.98112 0.86675 0.0
C1784 C 0.81125 0.93572 0.88354 0.0
C1785 C 0.76203 0.96497 0.89552 0.0
C1786 C 0.78709 0.96418 0.88971 0.0
C1787 C 0.86375 0.96325 0.87536 0.0
C1788 C 0.83603 0.96292 0.87948 0.0
H1789 H 0.71487 -0.00486 0.89411 0.0
H1790 H 0.75817 -0.00339 0.88519 0.0
H1791 H 0.76831 0.91494 0.89162 0.0
H1792 H 0.91584 0.94295 0.88284 0.0
H1793 H 0.86523 0.93452 0.88746 0.0
C1794 C 0.05824 0.76667 0.90187 0.0
C1795 C 0.07704 0.7741 0.91058 0.0
C1796 C 0.05631 0.78971 0.8965 0.0
C1797 C 0.07061 0.86901 0.89902 0.0
H1798 H 0.07692 0.87126 0.86945 0.0
C1799 C 0.08425 0.97315 0.87794 0.0
C1800 C 0.06301 0.96668 0.87004 0.0
C1801 C 0.08995 0.9504 0.88149 0.0
C1802 C 0.07502 0.87083 0.87769 0.0
H1803 H 0.10773 0.81128 0.92067 0.0
H1804 H 0.10427 0.8513 0.91137 0.0
H1805 H 0.07593 0.82877 0.87896 0.0
H1806 H 0.03332 0.93262 0.85896 0.0
H1807 H 0.04285 0.89232 0.8653 0.0
H1808 H 0.06945 0.91069 0.89785 0.0
C1809 C 0.09091 0.82772 0.90869 0.0
C1810 C 0.07429 0.84646 0.88314 0.0
C1811 C 0.09292 0.80477 0.91403 0.0
C1812 C 0.04995 0.93813 0.86503 0.0
C1813 C 0.05533 0.91507 0.86869 0.0
C1814 C 0.07135 0.89324 0.89361 0.0
C1815 C 0.07299 0.82056 0.89977 0.0
C1816 C 0.07231 0.84545 0.89388 0.0
C1817 C 0.07403 0.92053 0.87735 0.0
C1818 C 0.07389 0.89467 0.8829 0.0
H1819 H 0.04581 0.74325 0.899 0.0
H1820 H 0.04197 0.78341 0.88974 0.0
H1821 H 0.06844 0.8686 0.90726 0.0
H1822 H 0.09473 -0.00487 0.88187 0.0
H1823 H 0.10525 0.95562 0.88795 0.0
C1824 C 0.21505 0.30309 0.91913 0.0
C1825 C 0.24598 0.32284 0.91631 0.0
C1826 C 0.19621 0.27664 0.91349 0.0
C1827 C 0.18467 0.24417 0.88798 0.0
H1828 H 0.12807 0.16828 0.90209 0.0
C1829 C 0.09664 0.12666 0.8686 0.0
C1830 C 0.06847 0.10922 0.8738 0.0
C1831 C 0.11972 0.15479 0.87266 0.0
C1832 C 0.1435 0.18939 0.89803 0.0
H1833 H 0.28163 0.3301 0.90544 0.0
H1834 H 0.24826 0.28348 0.89544 0.0
H1835 H 0.16753 0.21165 0.91172 0.0
H1836 H 0.04089 0.10882 0.88658 0.0
H1837 H 0.08051 0.1581 0.89344 0.0
H1838 H 0.16004 0.22173 0.87427 0.0
C1839 C 0.23882 0.2887 0.90207 0.0
C1840 C 0.16622 0.21414 0.90355 0.0
C1841 C 0.25792 0.31514 0.90783 0.0
C1842 C 0.06257 0.12167 0.8825 0.0
C1843 C 0.08536 0.14973 0.88647 0.0
C1844 C 0.16176 0.21924 0.88242 0.0
C1845 C 0.20771 0.26936 0.90482 0.0
C1846 C 0.18658 0.24202 0.89864 0.0
C1847 C 0.11472 0.16577 0.88192 0.0
C1848 C 0.14044 0.19189 0.88745 0.0
H1849 H 0.20517 0.30839 0.92562 0.0
H1850 H 0.17226 0.26235 0.91574 0.0
H1851 H 0.20002 0.26549 0.88402 0.0
H1852 H 0.1018 0.11743 0.86191 0.0
H1853 H 0.14208 0.16677 0.86895 0.0
C1854 C 0.94668 0.70553 0.60034 0.0
C1855 C 0.92111 0.68999 0.59383 0.0
C1856 C 0.9518 0.73197 0.60566 0.0
C1857 C 0.91053 0.77336 0.61334 0.0
H1858 H -0.00702 0.84312 0.6174 0.0
C1859 C 0.93973 0.89891 0.61877 0.0
C1860 C 0.96027 0.91623 0.62662 0.0
C1861 C 0.93339 0.86903 0.61668 0.0
C1862 C 0.96985 0.82359 0.61645 0.0
H1863 H 0.8818 0.69083 0.58739 0.0
H1864 H 0.89134 0.73712 0.5962 0.0
H1865 H 0.9863 0.79593 0.60961 0.0
H1866 H -0.01009 0.91579 0.63854 0.0
H1867 H 0.97929 0.86352 0.63469 0.0
H1868 H 0.89419 0.80183 0.61963 0.0
C1869 C 0.90679 0.72845 0.59763 0.0
C1870 C 0.96598 0.79652 0.612 0.0
C1871 C 0.90147 0.70197 0.59247 0.0
C1872 C 0.97363 0.90275 0.63255 0.0
C1873 C 0.96781 0.87303 0.6303 0.0
C1874 C 0.91442 0.80055 0.6176 0.0
C1875 C 0.93164 0.74354 0.60446 0.0
C1876 C 0.93621 0.77127 0.61016 0.0
C1877 C 0.94801 0.85614 0.62223 0.0
C1878 C 0.94407 0.82609 0.61903 0.0
H1879 H 0.96214 0.69674 0.60157 0.0
H1880 H 0.97113 0.74287 0.61088 0.0
H1881 H 0.88726 0.75415 0.61235 0.0
H1882 H 0.92925 0.90884 0.61406 0.0
H1883 H 0.91818 0.85654 0.61038 0.0
C1884 C 0.31243 0.20532 0.59324 0.0
C1885 C 0.32143 0.23523 0.58979 0.0
C1886 C 0.28628 0.18893 0.59934 0.0
C1887 C 0.21179 0.18121 0.60423 0.0
H1888 H 0.20815 0.12841 0.62651 0.0
C1889 C 0.1015 0.07112 0.61489 0.0
C1890 C 0.09114 0.06766 0.62506 0.0
C1891 C 0.13108 0.09434 0.61223 0.0
C1892 C 0.20897 0.14338 0.62041 0.0
H1893 H 0.31018 0.27155 0.5902 0.0
H1894 H 0.26394 0.24249 0.60076 0.0
H1895 H 0.25821 0.16573 0.61899 0.0
H1896 H 0.10429 0.08557 0.64042 0.0
H1897 H 0.15701 0.12566 0.63576 0.0
H1898 H 0.16252 0.15792 0.60533 0.0
C1899 C 0.27737 0.23192 0.59874 0.0
C1900 C 0.23748 0.16453 0.61607 0.0
C1901 C 0.30379 0.2485 0.59269 0.0
C1902 C 0.11172 0.08717 0.63259 0.0
C1903 C 0.14173 0.1103 0.62991 0.0
C1904 C 0.18336 0.15987 0.60849 0.0
C1905 C 0.26833 0.20192 0.60209 0.0
C1906 C 0.23904 0.18307 0.60776 0.0
C1907 C 0.15123 0.11452 0.61965 0.0
C1908 C 0.18165 0.14022 0.61641 0.0
H1909 H 0.32555 0.19441 0.59121 0.0
H1910 H 0.27962 0.16568 0.60167 0.0
H1911 H 0.21223 0.19502 0.59781 0.0
H1912 H 0.08641 0.0564 0.60889 0.0
H1913 H 0.13811 0.09682 0.60429 0.0
C1914 C 0.74066 0.05973 0.60712 0.0
C1915 C 0.74746 0.07692 0.59803 0.0
C1916 C 0.76394 0.05807 0.61245 0.0
C1917 C 0.84937 0.09852 0.61501 0.0
H1918 H 0.83452 0.02078 0.62624 0.0
C1919 C 0.94437 0.06952 0.6214 0.0
C1920 C 0.94254 0.05102 0.62971 0.0
C1921 C 0.92135 0.07674 0.61975 0.0
C1922 C 0.83889 0.04282 0.62335 0.0
H1923 H 0.78391 0.10528 0.5873 0.0
H1924 H 0.8242 0.10189 0.59644 0.0
H1925 H 0.79192 0.02395 0.61861 0.0
H1926 H 0.91597 0.02665 0.6431 0.0
H1927 H 0.87523 0.03912 0.64016 0.0
H1928 H 0.89657 0.11704 0.61938 0.0
C1929 C 0.80108 0.09023 0.59961 0.0
C1930 C 0.81447 0.04464 0.61894 0.0
C1931 C 0.77788 0.09192 0.5943 0.0
C1932 C 0.9181 0.04128 0.6367 0.0
C1933 C 0.89466 0.04812 0.63495 0.0
C1934 C 0.87374 0.09667 0.61937 0.0
C1935 C 0.79452 0.07359 0.60881 0.0
C1936 C 0.8196 0.07231 0.61446 0.0
C1937 C 0.89568 0.06524 0.62629 0.0
C1938 C 0.86896 0.06861 0.62335 0.0
H1939 H 0.71747 0.04802 0.61023 0.0
H1940 H 0.75808 0.04517 0.61954 0.0
H1941 H 0.854 0.12041 0.61188 0.0
H1942 H 0.96295 0.07725 0.61589 0.0
H1943 H 0.92274 0.08973 0.61296 0.0
C1944 C 0.9689 0.36939 0.42904 0.0
C1945 C 0.97998 0.39929 0.42512 0.0
C1946 C 0.94107 0.35432 0.43449 0.0
C1947 C 0.88817 0.37069 0.44908 0.0
H1948 H 0.8254 0.28654 0.44268 0.0
C1949 C 0.76724 0.32375 0.4647 0.0
C1950 C 0.74535 0.31288 0.4568 0.0
C1951 C 0.79585 0.32592 0.46325 0.0
C1952 C 0.84281 0.30995 0.44464 0.0
H1953 H 0.97009 0.43642 0.42365 0.0
H1954 H 0.92169 0.41011 0.43302 0.0
H1955 H 0.87649 0.30897 0.43483 0.0
H1956 H 0.7348 0.2928 0.44167 0.0
H1957 H 0.78457 0.29696 0.43906 0.0
H1958 H 0.85429 0.37259 0.45835 0.0
C1959 C 0.93472 0.39851 0.43205 0.0
C1960 C 0.87211 0.32272 0.44018 0.0
C1961 C 0.96235 0.41348 0.42659 0.0
C1962 C 0.75135 0.30142 0.44786 0.0
C1963 C 0.77988 0.30361 0.44641 0.0
C1964 C 0.859 0.35797 0.45352 0.0
C1965 C 0.92395 0.36895 0.43617 0.0
C1966 C 0.89467 0.35363 0.44206 0.0
C1967 C 0.80307 0.31742 0.45386 0.0
C1968 C 0.83559 0.32783 0.45106 0.0
H1969 H 0.98193 0.3578 0.42805 0.0
H1970 H 0.93331 0.33152 0.43756 0.0
H1971 H 0.90533 0.39437 0.45084 0.0
H1972 H 0.76345 0.33316 0.47161 0.0
H1973 H 0.81307 0.33622 0.46921 0.0
C1974 C 0.62909 0.57454 0.42213 0.0
C1975 C 0.64133 0.60495 0.42562 0.0
C1976 C 0.64069 0.55622 0.42572 0.0
C1977 C 0.68328 0.54824 0.44741 0.0
H1978 H 0.68874 0.49052 0.4292 0.0
C1979 C 0.68946 0.44151 0.46103 0.0
C1980 C 0.70386 0.43029 0.45457 0.0
C1981 C 0.68796 0.46764 0.45823 0.0
C1982 C 0.68791 0.50682 0.4344 0.0
H1983 H 0.67588 0.64019 0.43547 0.0
H1984 H 0.69642 0.60833 0.44163 0.0
H1985 H 0.67435 0.52637 0.42242 0.0
H1986 H 0.73092 0.4394 0.44076 0.0
H1987 H 0.72952 0.48554 0.43611 0.0
H1988 H 0.69702 0.52861 0.45939 0.0
C1989 C 0.67752 0.5985 0.43623 0.0
C1990 C 0.67915 0.52711 0.43051 0.0
C1991 C 0.66591 0.61684 0.43263 0.0
C1992 C 0.71933 0.44734 0.44582 0.0
C1993 C 0.71823 0.4736 0.44311 0.0
C1994 C 0.69212 0.5279 0.45131 0.0
C1995 C 0.66487 0.56786 0.43289 0.0
C1996 C 0.67628 0.54778 0.43698 0.0
C1997 C 0.70113 0.48314 0.44898 0.0
C1998 C 0.69427 0.50671 0.44486 0.0
H1999 H 0.61003 0.56461 0.41678 0.0
H2000 H 0.63008 0.53261 0.42308 0.0
H2001 H 0.68107 0.5637 0.45263 0.0
H2002 H 0.67718 0.42871 0.46779 0.0
H2003 H 0.6746 0.47428 0.46295 0.0
C2004 C 0.3905 0.04189 0.43852 0.0
C2005 C 0.39226 0.03139 0.42873 0.0
C2006 C 0.41173 0.07198 0.44156 0.0
C2007 C 0.4636 0.14995 0.43279 0.0
H2008 H 0.51328 0.15829 0.45654 0.0
C2009 C 0.57602 0.26314 0.44186 0.0
C2010 C 0.58727 0.2697 0.45193 0.0
C2011 C 0.54889 0.23571 0.43954 0.0
C2012 C 0.49921 0.15667 0.45005 0.0
H2013 H 0.41703 0.04451 0.41433 0.0
H2014 H 0.45373 0.0977 0.41959 0.0
H2015 H 0.47228 0.10739 0.45133 0.0
H2016 H 0.57798 0.25266 0.46748 0.0
H2017 H 0.52943 0.20604 0.46362 0.0
H2018 H 0.48968 0.19912 0.4316 0.0
C2019 C 0.43602 0.08234 0.42491 0.0
C2020 C 0.47588 0.12736 0.44702 0.0
C2021 C 0.41514 0.05195 0.42192 0.0
C2022 C 0.5697 0.24889 0.4597 0.0
C2023 C 0.54212 0.22164 0.45742 0.0
C2024 C 0.48648 0.17938 0.43595 0.0
C2025 C 0.43476 0.09242 0.43481 0.0
C2026 C 0.45824 0.12371 0.43827 0.0
C2027 C 0.53184 0.21415 0.44724 0.0
C2028 C 0.50509 0.18317 0.44452 0.0
H2029 H 0.3732 0.02658 0.44395 0.0
H2030 H 0.41027 0.07928 0.44922 0.0
H2031 H 0.44999 0.14769 0.42609 0.0
H2032 H 0.58897 0.27859 0.43565 0.0
H2033 H 0.54227 0.23087 0.43159 0.0
C2034 C 0.71045 0.64124 0.74935 0.0
C2035 C 0.69826 0.65689 0.74399 0.0
C2036 C 0.70282 0.6114 0.74646 0.0
C2037 C 0.68466 0.56513 0.72377 0.0
H2038 H 0.65738 0.49483 0.74181 0.0
C2039 C 0.66107 0.44787 0.70833 0.0
C2040 C 0.66906 0.43037 0.71462 0.0
C2041 C 0.6613 0.4739 0.7122 0.0
C2042 C 0.66542 0.51433 0.73668 0.0
H2043 H 0.66743 0.65301 0.73173 0.0
H2044 H 0.65472 0.60129 0.72661 0.0
H2045 H 0.66395 0.54313 0.7485 0.0
H2046 H 0.68377 0.42646 0.72983 0.0
H2047 H 0.6856 0.47245 0.73642 0.0
H2048 H 0.68774 0.53735 0.71206 0.0
C2049 C 0.67005 0.61208 0.73304 0.0
C2050 C 0.66896 0.54188 0.74052 0.0
C2051 C 0.67726 0.64162 0.73601 0.0
C2052 C 0.67724 0.43936 0.72482 0.0
C2053 C 0.67804 0.46566 0.72863 0.0
C2054 C 0.6817 0.53785 0.71997 0.0
C2055 C 0.68328 0.59701 0.73809 0.0
C2056 C 0.6786 0.56747 0.73409 0.0
C2057 C 0.67014 0.48336 0.72237 0.0
C2058 C 0.6721 0.51205 0.72637 0.0
H2059 H 0.72666 0.65242 0.75554 0.0
H2060 H 0.71335 0.60019 0.75045 0.0
H2061 H 0.69254 0.58475 0.71869 0.0
H2062 H 0.6544 0.44131 0.70046 0.0
H2063 H 0.65446 0.48652 0.70719 0.0
C2064 C 0.37787 0.08814 0.72747 0.0
C2065 C 0.37269 0.10012 0.73648 0.0
C2066 C 0.40398 0.10631 0.72144 0.0
C2067 C 0.48276 0.17016 0.72263 0.0
H2068 H 0.47453 0.18627 0.69414 0.0
C2069 C 0.59018 0.24468 0.69944 0.0
C2070 C 0.59139 0.27158 0.69589 0.0
C2071 C 0.56197 0.21874 0.70198 0.0
C2072 C 0.4771 0.18171 0.70206 0.0
H2073 H 0.39115 0.1402 0.74634 0.0
H2074 H 0.43733 0.17147 0.73599 0.0
H2075 H 0.42836 0.15085 0.70413 0.0
H2076 H 0.56423 0.29186 0.69132 0.0
H2077 H 0.51447 0.24613 0.69565 0.0
H2078 H 0.5312 0.201 0.72071 0.0
C2079 C 0.42093 0.1482 0.73355 0.0
C2080 C 0.45081 0.16146 0.70774 0.0
C2081 C 0.39453 0.13032 0.73946 0.0
C2082 C 0.56375 0.2711 0.69384 0.0
C2083 C 0.53535 0.24502 0.6964 0.0
C2084 C 0.50896 0.18984 0.71693 0.0
C2085 C 0.4257 0.1365 0.72443 0.0
C2086 C 0.45344 0.15594 0.71813 0.0
C2087 C 0.53446 0.21936 0.70108 0.0
C2088 C 0.50643 0.19611 0.70662 0.0
H2089 H 0.3613 0.06504 0.72493 0.0
H2090 H 0.40728 0.09675 0.71447 0.0
H2091 H 0.48539 0.16623 0.73061 0.0
H2092 H 0.61128 0.24472 0.70118 0.0
H2093 H 0.56189 0.19911 0.70543 0.0
C2094 C 0.92858 0.31889 0.7388 0.0
C2095 C 0.91256 0.29044 0.74398 0.0
C2096 C 0.91274 0.32881 0.73251 0.0
C2097 C 0.84267 0.29748 0.71711 0.0
H2098 H 0.84869 0.37713 0.71986 0.0
C2099 C 0.74416 0.31666 0.70738 0.0
C2100 C 0.74953 0.34499 0.70354 0.0
C2101 C 0.76867 0.31229 0.70967 0.0
C2102 C 0.84735 0.35513 0.71879 0.0
H2103 H 0.86721 0.25065 0.74687 0.0
H2104 H 0.8398 0.26786 0.73589 0.0
H2105 H 0.88302 0.36576 0.72981 0.0
H2106 H 0.78449 0.39072 0.69865 0.0
H2107 H 0.82812 0.38327 0.70284 0.0
H2108 H 0.80656 0.28638 0.70634 0.0
C2109 C 0.86461 0.28236 0.73663 0.0
C2110 C 0.86685 0.34857 0.72454 0.0
C2111 C 0.8803 0.27266 0.743 0.0
C2112 C 0.77991 0.36858 0.70152 0.0
C2113 C 0.80474 0.36438 0.704 0.0
C2114 C 0.82345 0.30409 0.71132 0.0
C2115 C 0.88071 0.31023 0.73119 0.0
C2116 C 0.86377 0.31922 0.72404 0.0
C2117 C 0.79928 0.33633 0.7083 0.0
C2118 C 0.82465 0.33248 0.71242 0.0
H2119 H 0.95344 0.33317 0.73941 0.0
H2120 H 0.92565 0.35045 0.72843 0.0
H2121 H 0.84033 0.27492 0.71641 0.0
H2122 H 0.72087 0.29818 0.70901 0.0
H2123 H 0.76357 0.29059 0.7131 0.0
C2124 C 0.37905 0.3039 0.23508 0.0
C2125 C 0.36361 0.28629 0.24376 0.0
C2126 C 0.40431 0.30314 0.23099 0.0
C2127 C 0.46595 0.28774 0.23728 0.0
H2128 H 0.46959 0.27792 0.20801 0.0
C2129 C 0.56962 0.28646 0.21998 0.0
C2130 C 0.58224 0.30404 0.21109 0.0
C2131 C 0.54006 0.27853 0.22325 0.0
C2132 C 0.46911 0.28093 0.21618 0.0
H2133 H 0.36313 0.25464 0.25512 0.0
H2134 H 0.40793 0.25389 0.24808 0.0
H2135 H 0.42468 0.2771 0.2155 0.0
H2136 H 0.57329 0.32561 0.19828 0.0
H2137 H 0.52193 0.3126 0.20409 0.0
H2138 H 0.51072 0.29291 0.23801 0.0
C2139 C 0.40019 0.26809 0.24442 0.0
C2140 C 0.44333 0.28039 0.22047 0.0
C2141 C 0.3746 0.26856 0.24845 0.0
C2142 C 0.56394 0.31173 0.20511 0.0
C2143 C 0.53449 0.30429 0.20848 0.0
C2144 C 0.49186 0.28865 0.23299 0.0
C2145 C 0.41499 0.28502 0.23555 0.0
C2146 C 0.44161 0.28404 0.23106 0.0
C2147 C 0.52267 0.28864 0.21782 0.0
C2148 C 0.49393 0.28544 0.22237 0.0
H2149 H 0.37116 0.31776 0.23126 0.0
H2150 H 0.41556 0.3168 0.22425 0.0
H2151 H 0.46544 0.29098 0.24544 0.0
H2152 H 0.58321 0.28003 0.22468 0.0
H2153 H 0.53139 0.26555 0.23028 0.0
C2154 C 0.76998 0.13893 0.24475 0.0
C2155 C 0.7508 0.10989 0.24029 0.0
C2156 C 0.76986 0.16504 0.24109 0.0
C2157 C 0.75326 0.19489 0.21792 0.0
H2158 H 0.74522 0.25129 0.23603 0.0
C2159 C 0.71664 0.28047 0.20411 0.0
C2160 C 0.726 0.30748 0.20976 0.0
C2161 C 0.7255 0.25943 0.20716 0.0
C2162 C 0.74823 0.23625 0.23085 0.0
H2163 H 0.71578 0.08532 0.22873 0.0
H2164 H 0.71572 0.13079 0.22239 0.0
H2165 H 0.74828 0.20823 0.24318 0.0
H2166 H 0.75415 0.33519 0.22241 0.0
H2167 H 0.77068 0.29918 0.22748 0.0
H2168 H 0.75323 0.22279 0.20558 0.0
C2169 C 0.73101 0.13341 0.22863 0.0
C2170 C 0.74978 0.21146 0.23497 0.0
C2171 C 0.73086 0.10734 0.23234 0.0
C2172 C 0.74637 0.31433 0.21798 0.0
C2173 C 0.75558 0.29355 0.22094 0.0
C2174 C 0.75207 0.2199 0.21379 0.0
C2175 C 0.75085 0.16257 0.23284 0.0
C2176 C 0.75169 0.19022 0.22854 0.0
C2177 C 0.74414 0.2652 0.21586 0.0
C2178 C 0.74896 0.24059 0.22019 0.0
H2179 H 0.78566 0.14163 0.25086 0.0
H2180 H 0.78535 0.1873 0.24448 0.0
H2181 H 0.75523 0.17907 0.2128 0.0
H2182 H 0.7006 0.27444 0.19783 0.0
H2183 H 0.71603 0.23778 0.20309 0.0
C2184 C 0.92206 0.6601 0.234 0.0
C2185 C 0.91953 0.66102 0.24465 0.0
C2186 C 0.89903 0.6356 0.22837 0.0
C2187 C 0.81728 0.57043 0.23116 0.0
H2188 H 0.83393 0.54618 0.20498 0.0
C2189 C 0.71924 0.46721 0.21078 0.0
C2190 C 0.72695 0.44748 0.20576 0.0
C2191 C 0.74223 0.49716 0.21336 0.0
C2192 C 0.82875 0.55227 0.21233 0.0
H2193 H 0.89222 0.63657 0.25787 0.0
H2194 H 0.8535 0.59251 0.24826 0.0
H2195 H 0.87585 0.58727 0.21448 0.0
H2196 H 0.76398 0.44353 0.19898 0.0
H2197 H 0.80439 0.49462 0.20405 0.0
H2198 H 0.77099 0.53377 0.22957 0.0
C2199 C 0.87208 0.61135 0.24407 0.0
C2200 C 0.85292 0.57642 0.21775 0.0
C2201 C 0.89454 0.63636 0.24964 0.0
C2202 C 0.75756 0.45864 0.20275 0.0
C2203 C 0.78076 0.48813 0.20568 0.0
C2204 C 0.7934 0.54572 0.22593 0.0
C2205 C 0.87336 0.61102 0.23331 0.0
C2206 C 0.84763 0.58568 0.22732 0.0
C2207 C 0.77363 0.50739 0.21145 0.0
C2208 C 0.79869 0.53597 0.21645 0.0
H2209 H 0.94095 0.67918 0.22997 0.0
H2210 H 0.90091 0.6367 0.22013 0.0
H2211 H 0.81172 0.5773 0.23831 0.0
H2212 H 0.69565 0.45893 0.21316 0.0
H2213 H 0.73538 0.51157 0.21735 0.0
C2214 C 0.63043 0.04029 0.93365 0.0
C2215 C 0.6049 0.02294 0.92724 0.0
C2216 C 0.6364 0.06881 0.93752 0.0
C2217 C 0.6288 0.13422 0.93142 0.0
H2218 H 0.62818 0.1495 0.96041 0.0
C2219 C 0.63466 0.24517 0.94491 0.0
C2220 C 0.65155 0.25967 0.95375 0.0
C2221 C 0.62753 0.21528 0.94244 0.0
C2222 C 0.62895 0.14589 0.9523 0.0
H2223 H 0.56594 0.02203 0.91977 0.0
H2224 H 0.57713 0.07221 0.92622 0.0
H2225 H 0.62078 0.09997 0.95456 0.0
H2226 H 0.67333 0.25395 0.96716 0.0
H2227 H 0.6622 0.20217 0.96265 0.0
H2228 H 0.63814 0.18006 0.929 0.0
C2229 C 0.59211 0.06349 0.92837 0.0
C2230 C 0.62459 0.11746 0.94897 0.0
C2231 C 0.58573 0.03479 0.92471 0.0
C2232 C 0.66013 0.24321 0.96031 0.0
C2233 C 0.65365 0.21346 0.95771 0.0
C2234 C 0.63378 0.16277 0.93472 0.0
C2235 C 0.6174 0.08069 0.93484 0.0
C2236 C 0.62408 0.11131 0.93849 0.0
C2237 C 0.6379 0.19936 0.94859 0.0
C2238 C 0.63341 0.16893 0.94521 0.0
H2239 H 0.64549 0.03166 0.93577 0.0
H2240 H 0.65612 0.08181 0.94247 0.0
H2241 H 0.6288 0.13006 0.9233 0.0
H2242 H 0.6274 0.2572 0.93978 0.0
H2243 H 0.61433 0.20493 0.93557 0.0
C2244 C -0.00113 0.6194 0.93729 0.0
C2245 C 0.02318 0.61334 0.93642 0.0
C2246 C 0.97017 0.59694 0.94117 0.0
C2247 C 0.93014 0.52326 0.95572 0.0
H2248 H 0.85925 0.50888 0.9397 0.0
C2249 C 0.80126 0.4314 0.96526 0.0
C2250 C 0.78348 0.41465 0.95679 0.0
C2251 C 0.83156 0.45606 0.96391 0.0
C2252 C 0.87882 0.51261 0.94426 0.0
H2253 H 0.03661 0.57922 0.93929 0.0
H2254 H 0.98661 0.54013 0.94596 0.0
H2255 H 0.91003 0.55223 0.93551 0.0
H2256 H 0.78434 0.40939 0.94035 0.0
H2257 H 0.8367 0.45193 0.93804 0.0
H2258 H 0.89867 0.48292 0.96431 0.0
C2259 C -0.01023 0.5623 0.94372 0.0
C2260 C 0.90788 0.53767 0.94193 0.0
C2261 C 0.01838 0.58467 0.93981 0.0
C2262 C 0.79716 0.42202 0.94704 0.0
C2263 C 0.82716 0.44654 0.9457 0.0
C2264 C 0.9009 0.49821 0.95811 0.0
C2265 C 0.96519 0.56798 0.94431 0.0
C2266 C 0.93399 0.54302 0.94751 0.0
C2267 C 0.8444 0.46439 0.95405 0.0
C2268 C 0.87507 0.49228 0.95225 0.0
H2269 H 0.0018 0.64129 0.93481 0.0
H2270 H 0.95177 0.60213 0.94162 0.0
H2271 H 0.94979 0.52697 0.96023 0.0
H2272 H 0.7914 0.42639 0.97287 0.0
H2273 H 0.84442 0.4694 0.97049 0.0
C2274 C 0.41379 0.38486 0.94246 0.0
C2275 C 0.41574 0.40393 0.93429 0.0
C2276 C 0.43987 0.38408 0.94574 0.0
C2277 C 0.52607 0.42837 0.944 0.0
H2278 H 0.51779 0.35245 0.95456 0.0
C2279 C 0.62679 0.40473 0.94806 0.0
C2280 C 0.6279 0.38924 0.95685 0.0
C2281 C 0.6022 0.40974 0.94646 0.0
C2282 C 0.52041 0.37394 0.95177 0.0
H2283 H 0.44649 0.43651 0.92297 0.0
H2284 H 0.4917 0.43421 0.92836 0.0
H2285 H 0.47209 0.35321 0.94885 0.0
H2286 H 0.60474 0.36803 0.97108 0.0
H2287 H 0.56123 0.37629 0.96817 0.0
H2288 H 0.57472 0.44856 0.94653 0.0
C2289 C 0.47026 0.42055 0.93249 0.0
C2290 C 0.49417 0.37444 0.94849 0.0
C2291 C 0.44423 0.42164 0.9293 0.0
C2292 C 0.60459 0.38016 0.96426 0.0
C2293 C 0.57959 0.38465 0.96255 0.0
C2294 C 0.55235 0.42772 0.94715 0.0
C2295 C 0.46858 0.40205 0.94085 0.0
C2296 C 0.49659 0.40162 0.9445 0.0
C2297 C 0.57785 0.39891 0.95353 0.0
C2298 C 0.54982 0.40046 0.95102 0.0
H2299 H 0.39226 0.37114 0.94654 0.0
H2300 H 0.43757 0.36993 0.95229 0.0
H2301 H 0.52895 0.44995 0.94121 0.0
H2302 H 0.64444 0.41205 0.94223 0.0
H2303 H 0.60145 0.42066 0.93942 0.0
C2304 C 0.63787 0.78786 0.75402 0.0
C2305 C 0.65535 0.77421 0.75664 0.0
C2306 C 0.61266 0.78272 0.76004 0.0
C2307 C 0.55749 0.72631 0.7785 0.0
H2308 H 0.53252 0.78716 0.78198 0.0
C2309 C 0.43322 0.6922 0.7858 0.0
C2310 C 0.42607 0.70855 0.79289 0.0
C2311 C 0.46368 0.70219 0.78326 0.0
C2312 C 0.53955 0.77015 0.78124 0.0
H2313 H 0.66094 0.74558 0.76786 0.0
H2314 H 0.61767 0.73723 0.77839 0.0
H2315 H 0.58209 0.80211 0.77386 0.0
H2316 H 0.44506 0.74845 0.80279 0.0
H2317 H 0.49917 0.76622 0.79833 0.0
H2318 H 0.515 0.69432 0.78575 0.0
C2319 C 0.62275 0.75117 0.77156 0.0
C2320 C 0.56766 0.77855 0.77646 0.0
C2321 C 0.6476 0.75597 0.7655 0.0
C2322 C 0.4501 0.73516 0.79746 0.0
C2323 C 0.48089 0.74544 0.79483 0.0
C2324 C 0.5296 0.71801 0.78328 0.0
C2325 C 0.60469 0.7641 0.76884 0.0
C2326 C 0.57656 0.75648 0.77481 0.0
C2327 C 0.48786 0.72892 0.7877 0.0
C2328 C 0.51989 0.73955 0.78442 0.0
H2329 H 0.64339 0.80215 0.74726 0.0
H2330 H 0.59898 0.79268 0.75764 0.0
H2331 H 0.56338 0.70861 0.77729 0.0
H2332 H 0.41515 0.67156 0.78216 0.0
H2333 H 0.46827 0.68929 0.77761 0.0
C2334 C 0.27561 0.90426 0.7522 0.0
C2335 C 0.29415 0.93412 0.75615 0.0
C2336 C 0.27551 0.879 0.75677 0.0
C2337 C 0.31876 0.85839 0.7753 0.0
H2338 H 0.24111 0.78081 0.77682 0.0
C2339 C 0.3072 0.75539 0.79832 0.0
C2340 C 0.29631 0.72854 0.79242 0.0
C2341 C 0.30376 0.77983 0.79485 0.0
C2342 C 0.26292 0.80237 0.77647 0.0
H2343 H 0.32762 0.96095 0.76786 0.0
H2344 H 0.32691 0.91717 0.77592 0.0
H2345 H 0.24316 0.82502 0.7683 0.0
H2346 H 0.27124 0.70517 0.77871 0.0
H2347 H 0.26457 0.74743 0.7728 0.0
H2348 H 0.33833 0.8357 0.78359 0.0
C2349 C 0.31289 0.91308 0.76918 0.0
C2350 C 0.26422 0.82766 0.77149 0.0
C2351 C 0.31324 0.93829 0.76456 0.0
C2352 C 0.27987 0.72563 0.78341 0.0
C2353 C 0.276 0.7498 0.78003 0.0
C2354 C 0.31734 0.83325 0.78039 0.0
C2355 C 0.29371 0.88299 0.76545 0.0
C2356 C 0.29224 0.85598 0.77076 0.0
C2357 C 0.28892 0.77758 0.78551 0.0
C2358 C 0.28948 0.80491 0.78095 0.0
H2359 H 0.26065 0.90028 0.74573 0.0
H2360 H 0.26095 0.85631 0.75352 0.0
H2361 H 0.34087 0.87955 0.77477 0.0
H2362 H 0.32026 0.75839 0.80523 0.0
H2363 H 0.3137 0.80093 0.79927 0.0
C2364 C 0.06998 0.38401 0.77218 0.0
C2365 C 0.0755 0.36907 0.76408 0.0
C2366 C 0.09446 0.4077 0.77756 0.0
C2367 C 0.17765 0.43998 0.78308 0.0
H2368 H 0.17293 0.51056 0.79248 0.0
C2369 C 0.28151 0.55837 0.79285 0.0
C2370 C 0.27826 0.57657 0.8003 0.0
C2371 C 0.25727 0.52869 0.79079 0.0
C2372 C 0.17433 0.49066 0.79012 0.0
H2373 H 0.11115 0.36811 0.75506 0.0
H2374 H 0.15408 0.41033 0.76425 0.0
H2375 H 0.12983 0.46963 0.78315 0.0
H2376 H 0.24844 0.57738 0.81207 0.0
H2377 H 0.20557 0.52518 0.8084 0.0
H2378 H 0.22289 0.46197 0.7897 0.0
C2379 C 0.13072 0.40311 0.7666 0.0
C2380 C 0.14965 0.46722 0.78471 0.0
C2381 C 0.10614 0.37919 0.76124 0.0
C2382 C 0.25151 0.56361 0.80635 0.0
C2383 C 0.22694 0.53394 0.80417 0.0
C2384 C 0.20247 0.4636 0.78843 0.0
C2385 C 0.12516 0.41729 0.77495 0.0
C2386 C 0.15114 0.44177 0.78099 0.0
C2387 C 0.22911 0.51683 0.79603 0.0
C2388 C 0.20123 0.4894 0.79188 0.0
H2389 H 0.04665 0.37668 0.77462 0.0
H2390 H 0.08922 0.4178 0.78399 0.0
H2391 H 0.17934 0.42041 0.78053 0.0
H2392 H 0.30195 0.56803 0.78808 0.0
H2393 H 0.25967 0.51621 0.78445 0.0
C2394 C 0.36882 0.98582 0.06429 0.0
C2395 C 0.38233 -0.00311 0.0739 0.0
C2396 C 0.36034 0.95599 0.06119 0.0
C2397 C 0.37507 0.89226 0.06738 0.0
H2398 H 0.30759 0.8462 0.04846 0.0
C2399 C 0.3312 0.76581 0.0578 0.0
C2400 C 0.33494 0.76062 0.04747 0.0
C2401 C 0.33292 0.79319 0.06082 0.0
C2402 C 0.32652 0.85894 0.05372 0.0
H2403 H 0.39639 0.98502 0.08798 0.0
H2404 H 0.38014 0.93234 0.08284 0.0
H2405 H 0.31787 0.89632 0.05475 0.0
H2406 H 0.34237 0.77978 0.03223 0.0
H2407 H 0.34399 0.8274 0.0375 0.0
H2408 H 0.38285 0.85421 0.06659 0.0
C2409 C 0.37716 0.94703 0.07749 0.0
C2410 C 0.3326 0.88773 0.0573 0.0
C2411 C 0.38625 0.97716 0.0805 0.0
C2412 C 0.33855 0.7827 0.04017 0.0
C2413 C 0.3398 0.81005 0.0432 0.0
C2414 C 0.36857 0.86329 0.06397 0.0
C2415 C 0.36459 0.93618 0.0677 0.0
C2416 C 0.3571 0.9049 0.06416 0.0
C2417 C 0.33799 0.81585 0.05359 0.0
C2418 C 0.34435 0.84646 0.0571 0.0
H2419 H 0.36572 0.00059 0.05899 0.0
H2420 H 0.35132 0.9489 0.05355 0.0
H2421 H 0.39461 0.90491 0.07242 0.0
H2422 H 0.32822 0.74921 0.06363 0.0
H2423 H 0.33124 0.79711 0.06887 0.0
C2424 C 0.05682 0.42132 0.07512 0.0
C2425 C 0.04328 0.43654 0.07997 0.0
C2426 C 0.08576 0.43823 0.07039 0.0
C2427 C 0.13669 0.5142 0.0588 0.0
H2428 H 0.20255 0.49646 0.06287 0.0
C2429 C 0.25389 0.58955 0.03966 0.0
C2430 C 0.27911 0.60101 0.04638 0.0
C2431 C 0.22532 0.5643 0.04243 0.0
C2432 C 0.18431 0.50158 0.06162 0.0
H2433 H 0.05003 0.48153 0.08385 0.0
H2434 H 0.10017 0.51077 0.07563 0.0
H2435 H 0.15196 0.46317 0.07076 0.0
H2436 H 0.2946 0.59359 0.06099 0.0
H2437 H 0.24469 0.5498 0.06587 0.0
H2438 H 0.16894 0.55304 0.04998 0.0
C2439 C 0.08832 0.48579 0.07539 0.0
C2440 C 0.15534 0.48243 0.06609 0.0
C2441 C 0.05962 0.46898 0.08016 0.0
C2442 C 0.27562 0.58538 0.05564 0.0
C2443 C 0.24703 0.56012 0.05842 0.0
C2444 C 0.16546 0.53314 0.0543 0.0
C2445 C 0.10154 0.47066 0.07033 0.0
C2446 C 0.13145 0.48899 0.0649 0.0
C2447 C 0.22127 0.55003 0.052 0.0
C2448 C 0.18981 0.52742 0.0558 0.0
H2449 H 0.04488 0.39635 0.07484 0.0
H2450 H 0.0954 0.42596 0.06654 0.0
H2451 H 0.1186 0.51959 0.05763 0.0
H2452 H 0.25551 0.60124 0.03254 0.0
H2453 H 0.20602 0.55681 0.03725 0.0
C2454 C 0.5641 0.61106 0.06615 0.0
C2455 C 0.59262 0.62907 0.07107 0.0
C2456 C 0.55087 0.62509 0.06055 0.0
C2457 C 0.54322 0.69166 0.05981 0.0
H2458 H 0.51809 0.67048 0.03159 0.0
C2459 C 0.46647 0.7318 0.04223 0.0
C2460 C 0.44165 0.70943 0.03651 0.0
C2461 C 0.49229 0.72894 0.04404 0.0
C2462 C 0.52468 0.67653 0.03948 0.0
H2463 H 0.62949 0.67586 0.07407 0.0
H2464 H 0.6055 0.7004 0.06463 0.0
H2465 H 0.54723 0.64995 0.04003 0.0
H2466 H 0.42493 0.66794 0.02754 0.0
H2467 H 0.46888 0.66173 0.0311 0.0
H2468 H 0.51888 0.71603 0.05974 0.0
C2469 C 0.59386 0.67544 0.06496 0.0
C2470 C 0.54154 0.66488 0.04428 0.0
C2471 C 0.60748 0.66141 0.07036 0.0
C2472 C 0.44409 0.68568 0.03187 0.0
C2473 C 0.46944 0.68218 0.03395 0.0
C2474 C 0.52575 0.70269 0.05513 0.0
C2475 C 0.56557 0.65737 0.05995 0.0
C2476 C 0.5505 0.672 0.05452 0.0
C2477 C 0.49312 0.70285 0.04055 0.0
C2478 C 0.51568 0.69486 0.04493 0.0
H2479 H 0.55224 0.5861 0.06649 0.0
H2480 H 0.52885 0.61073 0.05683 0.0
H2481 H 0.54969 0.69724 0.06775 0.0
H2482 H 0.46497 0.75032 0.04588 0.0
H2483 H 0.51058 0.74612 0.04877 0.0
C2484 C 0.04202 0.64359 0.56348 0.0
C2485 C 0.02646 0.62686 0.57227 0.0
C2486 C 0.06927 0.64495 0.56027 0.0
C2487 C 0.11344 0.60417 0.56367 0.0
H2488 H 0.17884 0.67677 0.55023 0.0
C2489 C 0.23687 0.62578 0.55705 0.0
C2490 C 0.2506 0.63757 0.54748 0.0
C2491 C 0.20827 0.6225 0.55951 0.0
C2492 C 0.1606 0.65621 0.55388 0.0
H2493 H 0.02796 0.59955 0.58483 0.0
H2494 H 0.076 0.60299 0.57952 0.0
H2495 H 0.13271 0.6767 0.55607 0.0
H2496 H 0.24457 0.65444 0.53291 0.0
H2497 H 0.19477 0.649 0.53729 0.0
H2498 H 0.14201 0.58419 0.56175 0.0
C2499 C 0.06673 0.61418 0.57486 0.0
C2500 C 0.13408 0.6561 0.55722 0.0
C2501 C 0.0393 0.61247 0.57798 0.0
C2502 C 0.23461 0.64511 0.54032 0.0
C2503 C 0.20621 0.64227 0.54285 0.0
C2504 C 0.14014 0.60446 0.56046 0.0
C2505 C 0.08183 0.62993 0.56584 0.0
C2506 C 0.11013 0.63011 0.5622 0.0
C2507 C 0.19297 0.63135 0.55253 0.0
C2508 C 0.16402 0.63049 0.55554 0.0
H2509 H 0.03256 0.65472 0.55887 0.0
H2510 H 0.07991 0.65701 0.55323 0.0
H2511 H 0.09529 0.58342 0.56724 0.0
H2512 H 0.24857 0.61975 0.56273 0.0
H2513 H 0.1987 0.61415 0.56704 0.0
C2514 C 0.36877 0.39365 0.5582 0.0
C2515 C 0.3922 0.39825 0.56509 0.0
C2516 C 0.36736 0.41881 0.55427 0.0
C2517 C 0.39292 0.50034 0.55944 0.0
H2518 H 0.37754 0.50427 0.5306 0.0
C2519 C 0.39985 0.60874 0.5436 0.0
C2520 C 0.37525 0.6044 0.5374 0.0
C2521 C 0.40514 0.58449 0.54542 0.0
C2522 C 0.38167 0.50342 0.53867 0.0
H2523 H 0.43224 0.43286 0.57334 0.0
H2524 H 0.42964 0.47663 0.56657 0.0
H2525 H 0.37868 0.45944 0.53737 0.0
H2526 H 0.33814 0.57225 0.52765 0.0
H2527 H 0.34684 0.52925 0.53098 0.0
H2528 H 0.39533 0.54373 0.56088 0.0
C2529 C 0.41227 0.45359 0.56423 0.0
C2530 C 0.38226 0.47773 0.54256 0.0
C2531 C 0.41379 0.42849 0.56811 0.0
C2532 C 0.35748 0.57614 0.53237 0.0
C2533 C 0.36244 0.55154 0.53432 0.0
C2534 C 0.39222 0.52584 0.55558 0.0
C2535 C 0.38921 0.44909 0.55719 0.0
C2536 C 0.38802 0.47599 0.55299 0.0
C2537 C 0.38541 0.55508 0.54128 0.0
C2538 C 0.38681 0.5279 0.54514 0.0
H2539 H 0.35185 0.37064 0.55569 0.0
H2540 H 0.34908 0.41454 0.54897 0.0
H2541 H 0.39681 0.49947 0.56754 0.0
H2542 H 0.41386 0.63042 0.54755 0.0
H2543 H 0.42368 0.58836 0.55054 0.0
C2544 C 0.59045 0.97892 0.57299 0.0
C2545 C 0.58686 0.00381 0.57011 0.0
C2546 C 0.56993 0.94913 0.56937 0.0
C2547 C 0.49178 0.90333 0.55761 0.0
H2548 H 0.51741 0.84344 0.55307 0.0
C2549 C 0.41147 0.78185 0.54035 0.0
C2550 C 0.40911 0.75769 0.54644 0.0
C2551 C 0.43431 0.81244 0.54238 0.0
C2552 C 0.51002 0.86003 0.55429 0.0
H2553 H 0.5601 0.01741 0.56078 0.0
H2554 H 0.52548 0.96621 0.55416 0.0
H2555 H 0.5556 0.89593 0.55819 0.0
H2556 H 0.42934 0.74653 0.55918 0.0
H2557 H 0.46935 0.79968 0.56254 0.0
H2558 H 0.44628 0.86736 0.55353 0.0
C2559 C 0.5431 0.96909 0.55953 0.0
C2560 C 0.53181 0.89002 0.55731 0.0
C2561 C 0.56314 -0.00142 0.56329 0.0
C2562 C 0.4304 0.76465 0.5544 0.0
C2563 C 0.45348 0.79503 0.55628 0.0
C2564 C 0.47016 0.87352 0.55443 0.0
C2565 C 0.54578 0.94379 0.56266 0.0
C2566 C 0.52293 0.91203 0.55911 0.0
C2567 C 0.45551 0.81924 0.55036 0.0
C2568 C 0.479 0.85151 0.55286 0.0
H2569 H 0.60852 0.98229 0.57825 0.0
H2570 H 0.57258 0.93024 0.57206 0.0
H2571 H 0.4838 0.91929 0.55913 0.0
H2572 H 0.39538 0.77721 0.53419 0.0
H2573 H 0.43547 0.83078 0.53769 0.0
C2574 C 0.26822 0.38969 0.26122 0.0
C2575 C 0.28515 0.37444 0.26084 0.0
C2576 C 0.27946 0.41735 0.26657 0.0
C2577 C 0.35023 0.48448 0.27578 0.0
H2578 H 0.29324 0.49753 0.29202 0.0
C2579 C 0.36431 0.60303 0.28299 0.0
C2580 C 0.35525 0.60948 0.29238 0.0
C2581 C 0.36077 0.57415 0.28111 0.0
C2582 C 0.30962 0.49411 0.28769 0.0
H2583 H 0.32756 0.37675 0.26566 0.0
H2584 H 0.34746 0.42553 0.27487 0.0
H2585 H 0.2763 0.4467 0.28476 0.0
H2586 H 0.33675 0.59125 0.30737 0.0
H2587 H 0.3299 0.54003 0.30402 0.0
H2588 H 0.38322 0.53221 0.27843 0.0
C2589 C 0.32536 0.41582 0.27106 0.0
C2590 C 0.29981 0.46511 0.28342 0.0
C2591 C 0.31395 0.38791 0.26578 0.0
C2592 C 0.34393 0.58686 0.30007 0.0
C2593 C 0.33989 0.55759 0.29813 0.0
C2594 C 0.35998 0.51356 0.27999 0.0
C2595 C 0.30803 0.43063 0.27161 0.0
C2596 C 0.31973 0.46022 0.27719 0.0
C2597 C 0.34772 0.5508 0.28854 0.0
C2598 C 0.3395 0.5189 0.28575 0.0
H2599 H 0.24595 0.38004 0.25753 0.0
H2600 H 0.26584 0.4285 0.26668 0.0
H2601 H 0.3661 0.48143 0.27102 0.0
H2602 H 0.37335 0.62011 0.27693 0.0
H2603 H 0.36673 0.56961 0.27362 0.0
C2604 C 0.65473 0.9081 0.25341 0.0
C2605 C 0.66866 0.94038 0.25295 0.0
C2606 C 0.62596 0.89026 0.25806 0.0
C2607 C 0.55541 0.88979 0.26541 0.0
H2608 H 0.54423 0.8239 0.28359 0.0
C2609 C 0.43685 0.78666 0.27667 0.0
C2610 C 0.43289 0.77469 0.28662 0.0
C2611 C 0.46544 0.81096 0.2735 0.0
C2612 C 0.54708 0.84247 0.27865 0.0
H2613 H 0.66291 0.97917 0.2568 0.0
H2614 H 0.61247 0.94783 0.26486 0.0
H2615 H 0.59475 0.85786 0.27602 0.0
H2616 H 0.45536 0.77999 0.30124 0.0
H2617 H 0.50541 0.82248 0.29567 0.0
H2618 H 0.50753 0.87404 0.26796 0.0
C2619 C 0.62392 0.93644 0.26162 0.0
C2620 C 0.5759 0.86165 0.27422 0.0
C2621 C 0.65284 0.95435 0.25704 0.0
C2622 C 0.45771 0.78859 0.2935 0.0
C2623 C 0.4864 0.8128 0.29031 0.0
C2624 C 0.52648 0.87043 0.2698 0.0
C2625 C 0.6104 0.90426 0.26229 0.0
C2626 C 0.58024 0.8852 0.26744 0.0
C2627 C 0.49072 0.82372 0.2802 0.0
C2628 C 0.52194 0.84634 0.27637 0.0
H2629 H 0.66625 0.89659 0.25033 0.0
H2630 H 0.61585 0.86544 0.25833 0.0
H2631 H 0.55811 0.90772 0.26019 0.0
H2632 H 0.41813 0.77657 0.27119 0.0
H2633 H 0.46812 0.81872 0.26565 0.0
C2634 C 0.07664 0.69573 0.26641 0.0
C2635 C 0.0855 0.72539 0.26274 0.0
C2636 C 0.09809 0.69003 0.27123 0.0
C2637 C 0.16804 0.72739 0.28652 0.0
H2638 H 0.18023 0.6606 0.27799 0.0
C2639 C 0.27174 0.7166 0.3 0.0
C2640 C 0.26969 0.68779 0.29945 0.0
C2641 C 0.24662 0.71973 0.29716 0.0
C2642 C 0.17669 0.67889 0.2807 0.0
H2643 H 0.12387 0.77224 0.26116 0.0
H2644 H 0.16123 0.76234 0.26979 0.0
H2645 H 0.14241 0.66892 0.26925 0.0
H2646 H 0.23948 0.63931 0.2963 0.0
H2647 H 0.19479 0.64408 0.29213 0.0
H2648 H 0.20162 0.73706 0.29815 0.0
C2649 C 0.13771 0.74352 0.26885 0.0
C2650 C 0.15516 0.68381 0.27558 0.0
C2651 C 0.11641 0.74909 0.26382 0.0
C2652 C 0.24141 0.66171 0.2969 0.0
C2653 C 0.21604 0.66466 0.29429 0.0
C2654 C 0.18917 0.72212 0.2918 0.0
C2655 C 0.12866 0.71402 0.27269 0.0
C2656 C 0.15092 0.70834 0.27834 0.0
C2657 C 0.21878 0.69396 0.29382 0.0
C2658 C 0.19415 0.69801 0.28889 0.0
H2659 H 0.05296 0.67704 0.26572 0.0
H2660 H 0.09053 0.66708 0.27413 0.0
H2661 H 0.16486 0.74623 0.2889 0.0
H2662 H 0.29362 0.73714 0.30172 0.0
H2663 H 0.24997 0.74274 0.29686 0.0
loop_
_geom_bond_atom_site_label_1
_geom_bond_atom_site_label_2
_geom_bond_distance
_geom_bond_site_symmetry_2
_ccdc_geom_bond_type
C0 O1 1.306 . S
C0 O3 1.160 1_565 S
O1 C0 1.306 . S
O1 Cd2 2.228 . S
Cd2 O1 2.228 . S
Cd2 O6 2.273 . S
Cd2 O10 2.300 . S
O3 C0 1.160 1_545 S
O3 Cd4 2.203 . S
Cd4 O3 2.203 . S
Cd4 O6 2.411 1_545 S
Cd4 O7 2.333 . S
Cd4 O8 2.352 . S
Cd4 O12 2.277 . S
Cd4 O13 2.356 . S
C5 O10 1.182 1_545 S
C5 O12 1.226 . S
O6 Cd2 2.273 . S
O6 Cd4 2.411 1_565 S
O6 C9 1.320 1_565 S
O7 Cd4 2.333 . S
O7 C9 1.214 . S
O8 Cd4 2.352 . S
O8 C11 1.258 . S
C9 O6 1.320 1_545 S
C9 O7 1.214 . S
O10 Cd2 2.300 . S
O10 C5 1.182 1_565 S
C11 O8 1.258 . S
C11 O13 1.282 . S
O12 Cd4 2.277 . S
O12 C5 1.226 . S
O13 Cd4 2.356 . S
O13 C11 1.282 . S
C14 O15 1.306 . S
C14 O17 1.147 1_655 S
O15 C14 1.306 . S
O15 Cd16 2.228 . S
Cd16 O15 2.228 . S
Cd16 O20 2.273 . S
Cd16 O24 2.277 . S
O17 C14 1.147 1_455 S
O17 Cd18 2.206 . S
Cd18 O17 2.206 . S
Cd18 O20 2.411 1_455 S
Cd18 O21 2.333 . S
Cd18 O22 2.352 . S
Cd18 O26 2.277 . S
Cd18 O27 2.356 . S
C19 O24 1.209 1_455 S
C19 O26 1.226 . S
O20 Cd16 2.273 . S
O20 Cd18 2.411 1_655 S
O20 C23 1.320 1_655 S
O21 Cd18 2.333 . S
O21 C23 1.214 . S
O22 Cd18 2.352 . S
O22 C25 1.258 . S
C23 O20 1.320 1_455 S
C23 O21 1.214 . S
O24 Cd16 2.277 . S
O24 C19 1.209 1_655 S
C25 O22 1.258 . S
C25 O27 1.282 . S
O26 Cd18 2.277 . S
O26 C19 1.226 . S
O27 Cd18 2.356 . S
O27 C25 1.282 . S
C28 O29 1.306 . S
C28 O31 1.160 . S
O29 C28 1.306 . S
O29 Cd30 2.228 . S
Cd30 O29 2.228 . S
Cd30 O34 2.273 . S
Cd30 O38 2.277 . S
O31 C28 1.160 . S
O31 Cd32 2.203 . S
Cd32 O31 2.203 . S
Cd32 O34 2.411 . S
Cd32 O35 2.333 . S
Cd32 O36 2.352 . S
Cd32 O40 2.277 . S
Cd32 O41 2.356 . S
C33 O38 1.209 . S
C33 O40 1.226 . S
O34 Cd30 2.273 . S
O34 Cd32 2.411 . S
O34 C37 1.320 . S
O35 Cd32 2.333 . S
O35 C37 1.214 . S
O36 Cd32 2.352 . S
O36 C39 1.258 . S
C37 O34 1.320 . S
C37 O35 1.214 . S
O38 Cd30 2.277 . S
O38 C33 1.209 . S
C39 O36 1.258 . S
C39 O41 1.282 . S
O40 Cd32 2.277 . S
O40 C33 1.226 . S
O41 Cd32 2.356 . S
O41 C39 1.282 . S
C42 O43 1.306 . S
C42 O45 1.160 . S
O43 C42 1.306 . S
O43 Cd44 2.228 . S
Cd44 O43 2.228 . S
Cd44 O48 2.273 . S
Cd44 O52 2.277 . S
O45 C42 1.160 . S
O45 Cd46 2.203 . S
Cd46 O45 2.203 . S
Cd46 O48 2.411 . S
Cd46 O49 2.333 1_545 S
Cd46 O50 2.339 1_545 S
Cd46 O54 2.277 1_545 S
Cd46 O55 2.356 1_545 S
C47 O52 1.209 . S
C47 O54 1.226 1_545 S
O48 Cd44 2.273 . S
O48 Cd46 2.411 . S
O48 C51 1.320 . S
O49 Cd46 2.333 1_565 S
O49 C51 1.214 1_565 S
O50 Cd46 2.339 1_565 S
O50 C53 1.278 . S
C51 O48 1.320 . S
C51 O49 1.214 1_545 S
O52 Cd44 2.277 . S
O52 C47 1.209 . S
C53 O50 1.278 . S
C53 O55 1.282 . S
O54 Cd46 2.277 1_565 S
O54 C47 1.226 1_565 S
O55 Cd46 2.356 1_565 S
O55 C53 1.282 . S
C56 O57 1.306 . S
C56 O59 1.133 1_655 S
O57 C56 1.306 . S
O57 Cd58 2.228 . S
Cd58 O57 2.228 . S
Cd58 O62 2.273 . S
Cd58 O66 2.277 . S
O59 C56 1.133 1_455 S
O59 Cd60 2.230 . S
Cd60 O59 2.230 . S
Cd60 O62 2.411 1_455 S
Cd60 O63 2.333 . S
Cd60 O64 2.352 . S
Cd60 O68 2.277 . S
Cd60 O69 2.356 . S
C61 O66 1.209 1_455 S
C61 O68 1.226 . S
O62 Cd58 2.273 . S
O62 Cd60 2.411 1_655 S
O62 C65 1.320 1_655 S
O63 Cd60 2.333 . S
O63 C65 1.214 . S
O64 Cd60 2.352 . S
O64 C67 1.258 . S
C65 O62 1.320 1_455 S
C65 O63 1.214 . S
O66 Cd58 2.277 . S
O66 C61 1.209 1_655 S
C67 O64 1.258 . S
C67 O69 1.282 . S
O68 Cd60 2.277 . S
O68 C61 1.226 . S
O69 Cd60 2.356 . S
O69 C67 1.282 . S
C70 O71 1.306 . S
C70 O73 1.160 . S
O71 C70 1.306 . S
O71 Cd72 2.228 . S
Cd72 O71 2.228 . S
Cd72 O76 2.273 . S
Cd72 O80 2.277 . S
O73 C70 1.160 . S
O73 Cd74 2.203 . S
Cd74 O73 2.203 . S
Cd74 O76 2.411 . S
Cd74 O77 2.333 . S
Cd74 O78 2.352 . S
Cd74 O82 2.277 . S
Cd74 O83 2.356 . S
C75 O80 1.209 . S
C75 O82 1.226 . S
O76 Cd72 2.273 . S
O76 Cd74 2.411 . S
O76 C79 1.320 . S
O77 Cd74 2.333 . S
O77 C79 1.214 . S
O78 Cd74 2.352 . S
O78 C81 1.258 . S
C79 O76 1.320 . S
C79 O77 1.214 . S
O80 Cd72 2.277 . S
O80 C75 1.209 . S
C81 O78 1.258 . S
C81 O83 1.282 . S
O82 Cd74 2.277 . S
O82 C75 1.226 . S
O83 Cd74 2.356 . S
O83 C81 1.282 . S
C84 O85 1.306 . S
C84 O87 1.160 . S
O85 C84 1.306 . S
O85 Cd86 2.228 . S
Cd86 O85 2.228 . S
Cd86 O90 2.273 . S
Cd86 O94 2.277 . S
O87 C84 1.160 . S
O87 Cd88 2.203 . S
Cd88 O87 2.203 . S
Cd88 O90 2.411 . S
Cd88 O91 2.333 . S
Cd88 O92 2.352 . S
Cd88 O96 2.277 . S
Cd88 O97 2.356 . S
C89 O94 1.209 . S
C89 O96 1.226 . S
O90 Cd86 2.273 . S
O90 Cd88 2.411 . S
O90 C93 1.320 . S
O91 Cd88 2.333 . S
O91 C93 1.214 . S
O92 Cd88 2.352 . S
O92 C95 1.258 . S
C93 O90 1.320 . S
C93 O91 1.214 . S
O94 Cd86 2.277 . S
O94 C89 1.209 . S
C95 O92 1.258 . S
C95 O97 1.282 . S
O96 Cd88 2.277 . S
O96 C89 1.226 . S
O97 Cd88 2.356 . S
O97 C95 1.282 . S
C98 O99 1.306 . S
C98 O101 1.160 . S
O99 C98 1.306 . S
O99 Cd100 2.228 . S
Cd100 O99 2.228 . S
Cd100 O104 2.273 . S
Cd100 O108 2.277 . S
O101 C98 1.160 . S
O101 Cd102 2.203 . S
Cd102 O101 2.203 . S
Cd102 O104 2.411 . S
Cd102 O105 2.333 . S
Cd102 O106 2.352 . S
Cd102 O110 2.277 . S
Cd102 O111 2.356 . S
C103 O108 1.209 . S
C103 O110 1.226 . S
O104 Cd100 2.273 . S
O104 Cd102 2.411 . S
O104 C107 1.320 . S
O105 Cd102 2.333 . S
O105 C107 1.214 . S
O106 Cd102 2.352 . S
O106 C109 1.258 . S
C107 O104 1.320 . S
C107 O105 1.214 . S
O108 Cd100 2.277 . S
O108 C103 1.209 . S
C109 O106 1.258 . S
C109 O111 1.282 . S
O110 Cd102 2.277 . S
O110 C103 1.226 . S
O111 Cd102 2.356 . S
O111 C109 1.282 . S
C112 O113 1.306 . S
C112 O115 1.160 . S
O113 C112 1.306 . S
O113 Cd114 2.228 . S
Cd114 O113 2.228 . S
Cd114 O118 2.273 . S
Cd114 O122 2.277 . S
O115 C112 1.160 . S
O115 Cd116 2.203 . S
Cd116 O115 2.203 . S
Cd116 O118 2.411 . S
Cd116 O119 2.333 . S
Cd116 O120 2.352 1_655 S
Cd116 O124 2.277 . S
Cd116 O125 2.356 1_655 S
C117 O122 1.209 . S
C117 O124 1.226 . S
O118 Cd114 2.273 . S
O118 Cd116 2.411 . S
O118 C121 1.320 . S
O119 Cd116 2.333 . S
O119 C121 1.214 . S
O120 Cd116 2.352 1_455 S
O120 C123 1.258 . S
C121 O118 1.320 . S
C121 O119 1.214 . S
O122 Cd114 2.277 . S
O122 C117 1.209 . S
C123 O120 1.258 . S
C123 O125 1.282 . S
O124 Cd116 2.277 . S
O124 C117 1.226 . S
O125 Cd116 2.356 1_455 S
O125 C123 1.282 . S
C126 O127 1.306 . S
C126 O129 1.160 . S
O127 C126 1.306 . S
O127 Cd128 2.228 1_455 S
Cd128 O127 2.228 1_655 S
Cd128 O132 2.273 . S
Cd128 O136 2.277 . S
O129 C126 1.160 . S
O129 Cd130 2.203 1_455 S
Cd130 O129 2.203 1_655 S
Cd130 O132 2.411 . S
Cd130 O133 2.333 . S
Cd130 O134 2.352 . S
Cd130 O138 2.277 . S
Cd130 O139 2.356 . S
C131 O136 1.209 . S
C131 O138 1.226 . S
O132 Cd128 2.273 . S
O132 Cd130 2.411 . S
O132 C135 1.320 . S
O133 Cd130 2.333 . S
O133 C135 1.214 . S
O134 Cd130 2.352 . S
O134 C137 1.258 . S
C135 O132 1.320 . S
C135 O133 1.214 . S
O136 Cd128 2.277 . S
O136 C131 1.209 . S
C137 O134 1.258 . S
C137 O139 1.282 . S
O138 Cd130 2.277 . S
O138 C131 1.226 . S
O139 Cd130 2.356 . S
O139 C137 1.282 . S
C140 O141 1.306 . S
C140 O143 1.160 . S
O141 C140 1.306 . S
O141 Cd142 2.228 . S
Cd142 O141 2.228 . S
Cd142 O146 2.273 . S
Cd142 O150 2.277 . S
O143 C140 1.160 . S
O143 Cd144 2.203 . S
Cd144 O143 2.203 . S
Cd144 O146 2.411 . S
Cd144 O147 2.333 . S
Cd144 O148 2.352 . S
Cd144 O152 2.277 . S
Cd144 O153 2.356 . S
C145 O150 1.209 . S
C145 O152 1.226 . S
O146 Cd142 2.273 . S
O146 Cd144 2.411 . S
O146 C149 1.320 . S
O147 Cd144 2.333 . S
O147 C149 1.214 . S
O148 Cd144 2.352 . S
O148 C151 1.258 . S
C149 O146 1.320 . S
C149 O147 1.214 . S
O150 Cd142 2.277 . S
O150 C145 1.209 . S
C151 O148 1.258 . S
C151 O153 1.282 . S
O152 Cd144 2.277 . S
O152 C145 1.226 . S
O153 Cd144 2.356 . S
O153 C151 1.282 . S
C154 O155 1.306 . S
C154 O157 1.160 . S
O155 C154 1.306 . S
O155 Cd156 2.228 . S
Cd156 O155 2.228 . S
Cd156 O160 2.273 . S
Cd156 O164 2.277 . S
O157 C154 1.160 . S
O157 Cd158 2.203 . S
Cd158 O157 2.203 . S
Cd158 O160 2.411 . S
Cd158 O161 2.333 . S
Cd158 O162 2.352 . S
Cd158 O166 2.277 . S
Cd158 O167 2.356 . S
C159 O164 1.209 . S
C159 O166 1.226 . S
O160 Cd156 2.273 . S
O160 Cd158 2.411 . S
O160 C163 1.320 . S
O161 Cd158 2.333 . S
O161 C163 1.214 . S
O162 Cd158 2.352 . S
O162 C165 1.258 . S
C163 O160 1.320 . S
C163 O161 1.214 . S
O164 Cd156 2.277 . S
O164 C159 1.209 . S
C165 O162 1.258 . S
C165 O167 1.282 . S
O166 Cd158 2.277 . S
O166 C159 1.226 . S
O167 Cd158 2.356 . S
O167 C165 1.282 . S
C168 O169 1.306 . S
C168 O171 1.160 . S
O169 C168 1.306 . S
O169 Cd170 2.228 . S
Cd170 O169 2.228 . S
Cd170 O174 2.273 . S
Cd170 O178 2.277 . S
O171 C168 1.160 . S
O171 Cd172 2.203 . S
Cd172 O171 2.203 . S
Cd172 O174 2.411 . S
Cd172 O175 2.333 . S
Cd172 O176 2.352 . S
Cd172 O180 2.277 . S
Cd172 O181 2.356 . S
C173 O178 1.209 . S
C173 O180 1.226 . S
O174 Cd170 2.273 . S
O174 Cd172 2.411 . S
O174 C177 1.320 . S
O175 Cd172 2.333 . S
O175 C177 1.214 . S
O176 Cd172 2.352 . S
O176 C179 1.258 . S
C177 O174 1.320 . S
C177 O175 1.214 . S
O178 Cd170 2.277 . S
O178 C173 1.209 . S
C179 O176 1.258 . S
C179 O181 1.282 . S
O180 Cd172 2.277 . S
O180 C173 1.226 . S
O181 Cd172 2.356 . S
O181 C179 1.282 . S
C182 O183 1.306 . S
C182 O185 1.160 . S
O183 C182 1.306 . S
O183 Cd184 2.228 . S
Cd184 O183 2.228 . S
Cd184 O188 2.273 . S
Cd184 O192 2.277 . S
O185 C182 1.160 . S
O185 Cd186 2.203 . S
Cd186 O185 2.203 . S
Cd186 O188 2.411 . S
Cd186 O189 2.333 . S
Cd186 O190 2.352 . S
Cd186 O194 2.277 . S
Cd186 O195 2.356 . S
C187 O192 1.209 . S
C187 O194 1.226 . S
O188 Cd184 2.273 . S
O188 Cd186 2.411 . S
O188 C191 1.320 . S
O189 Cd186 2.333 . S
O189 C191 1.214 . S
O190 Cd186 2.352 . S
O190 C193 1.258 . S
C191 O188 1.320 . S
C191 O189 1.214 . S
O192 Cd184 2.277 . S
O192 C187 1.209 . S
C193 O190 1.258 . S
C193 O195 1.282 . S
O194 Cd186 2.277 . S
O194 C187 1.226 . S
O195 Cd186 2.356 . S
O195 C193 1.282 . S
C196 O197 1.306 . S
C196 O199 1.160 . S
O197 C196 1.306 . S
O197 Cd198 2.228 1_545 S
Cd198 O197 2.228 1_565 S
Cd198 O202 2.273 . S
Cd198 O206 2.277 . S
O199 C196 1.160 . S
O199 Cd200 2.203 1_545 S
Cd200 O199 2.203 1_565 S
Cd200 O202 2.411 . S
Cd200 O203 2.333 . S
Cd200 O204 2.352 . S
Cd200 O208 2.277 . S
Cd200 O209 2.356 . S
C201 O206 1.209 . S
C201 O208 1.226 . S
O202 Cd198 2.273 . S
O202 Cd200 2.411 . S
O202 C205 1.320 . S
O203 Cd200 2.333 . S
O203 C205 1.214 . S
O204 Cd200 2.352 . S
O204 C207 1.258 . S
C205 O202 1.320 . S
C205 O203 1.214 . S
O206 Cd198 2.277 . S
O206 C201 1.209 . S
C207 O204 1.258 . S
C207 O209 1.282 . S
O208 Cd200 2.277 . S
O208 C201 1.226 . S
O209 Cd200 2.356 . S
O209 C207 1.282 . S
C210 O211 1.306 . S
C210 O213 1.160 . S
O211 C210 1.306 . S
O211 Cd212 2.228 . S
Cd212 O211 2.228 . S
Cd212 O216 2.273 . S
Cd212 O220 2.277 . S
O213 C210 1.160 . S
O213 Cd214 2.203 . S
Cd214 O213 2.203 . S
Cd214 O216 2.411 . S
Cd214 O217 2.333 . S
Cd214 O218 2.352 . S
Cd214 O222 2.277 . S
Cd214 O223 2.356 . S
C215 O220 1.209 . S
C215 O222 1.226 . S
O216 Cd212 2.273 . S
O216 Cd214 2.411 . S
O216 C219 1.320 . S
O217 Cd214 2.333 . S
O217 C219 1.214 . S
O218 Cd214 2.352 . S
O218 C221 1.258 . S
C219 O216 1.320 . S
C219 O217 1.214 . S
O220 Cd212 2.277 . S
O220 C215 1.209 . S
C221 O218 1.258 . S
C221 O223 1.282 . S
O222 Cd214 2.277 . S
O222 C215 1.226 . S
O223 Cd214 2.356 . S
O223 C221 1.282 . S
C224 O225 1.306 . S
C224 O227 1.160 . S
O225 C224 1.306 . S
O225 Cd226 2.228 . S
Cd226 O225 2.228 . S
Cd226 O230 2.273 . S
Cd226 O234 2.277 . S
O227 C224 1.160 . S
O227 Cd228 2.203 . S
Cd228 O227 2.203 . S
Cd228 O230 2.411 . S
Cd228 O231 2.333 . S
Cd228 O232 2.352 1_565 S
Cd228 O236 2.277 . S
Cd228 O237 2.356 1_565 S
C229 O234 1.209 . S
C229 O236 1.226 . S
O230 Cd226 2.273 . S
O230 Cd228 2.411 . S
O230 C233 1.320 . S
O231 Cd228 2.333 . S
O231 C233 1.214 . S
O232 Cd228 2.352 1_545 S
O232 C235 1.258 . S
C233 O230 1.320 . S
C233 O231 1.214 . S
O234 Cd226 2.277 . S
O234 C229 1.209 . S
C235 O232 1.258 . S
C235 O237 1.282 . S
O236 Cd228 2.277 . S
O236 C229 1.226 . S
O237 Cd228 2.356 1_545 S
O237 C235 1.282 . S
C238 O239 1.306 . S
C238 O241 1.160 . S
O239 C238 1.306 . S
O239 Cd240 2.228 . S
Cd240 O239 2.228 . S
Cd240 O244 2.273 . S
Cd240 O248 2.277 . S
O241 C238 1.160 . S
O241 Cd242 2.203 . S
Cd242 O241 2.203 . S
Cd242 O244 2.411 . S
Cd242 O245 2.333 . S
Cd242 O246 2.352 . S
Cd242 O250 2.277 . S
Cd242 O251 2.356 . S
C243 O248 1.209 . S
C243 O250 1.226 . S
O244 Cd240 2.273 . S
O244 Cd242 2.411 . S
O244 C247 1.320 . S
O245 Cd242 2.333 . S
O245 C247 1.214 . S
O246 Cd242 2.352 . S
O246 C249 1.258 . S
C247 O244 1.320 . S
C247 O245 1.214 . S
O248 Cd240 2.277 . S
O248 C243 1.209 . S
C249 O246 1.258 . S
C249 O251 1.282 . S
O250 Cd242 2.277 . S
O250 C243 1.226 . S
O251 Cd242 2.356 . S
O251 C249 1.282 . S
Zn252 O258 1.920 . S
Zn252 O264 1.898 1_445 S
Zn252 O267 1.905 . S
Zn253 O261 1.905 1_545 S
Zn253 O262 1.898 . S
Zn253 O270 1.920 1_455 S
Zn254 O257 2.080 . S
Zn254 O260 2.114 1_545 S
Zn254 O263 2.120 . S
Zn254 O265 2.120 1_445 S
Zn254 O266 2.114 . S
Zn254 O269 2.080 1_455 S
C255 O260 1.166 . S
C255 O261 1.182 . S
C256 O262 1.167 . S
C256 O263 1.299 . S
O257 Zn254 2.080 . S
O257 C271 1.305 . S
O258 Zn252 1.920 . S
O258 C271 1.234 . S
C259 O264 1.167 . S
C259 O265 1.299 . S
O260 Zn254 2.114 1_565 S
O260 C255 1.166 . S
O261 Zn253 1.905 1_565 S
O261 C255 1.182 . S
O262 Zn253 1.898 . S
O262 C256 1.167 . S
O263 Zn254 2.120 . S
O263 C256 1.299 . S
O264 Zn252 1.898 1_665 S
O264 C259 1.167 . S
O265 Zn254 2.120 1_665 S
O265 C259 1.299 . S
O266 Zn254 2.114 . S
O266 C268 1.166 . S
O267 Zn252 1.905 . S
O267 C268 1.182 . S
C268 O266 1.166 . S
C268 O267 1.182 . S
O269 Zn254 2.080 1_655 S
O269 C272 1.305 . S
O270 Zn253 1.920 1_655 S
O270 C272 1.234 . S
C271 O257 1.305 . S
C271 O258 1.234 . S
C272 O269 1.305 . S
C272 O270 1.234 . S
Zn273 O279 1.920 1_545 S
Zn273 O285 1.898 . S
Zn273 O288 1.905 1_455 S
Zn274 O282 1.905 . S
Zn274 O283 1.898 1_445 S
Zn274 O291 1.920 1_545 S
Zn275 O278 2.080 1_545 S
Zn275 O281 2.114 . S
Zn275 O284 2.120 1_445 S
Zn275 O286 2.120 . S
Zn275 O287 2.114 1_455 S
Zn275 O290 2.080 . S
C276 O281 1.166 . S
C276 O282 1.182 . S
C277 O283 1.167 . S
C277 O284 1.299 . S
O278 Zn275 2.080 1_565 S
O278 C292 1.305 . S
O279 Zn273 1.920 1_565 S
O279 C292 1.234 . S
C280 O285 1.167 . S
C280 O286 1.299 . S
O281 Zn275 2.114 . S
O281 C276 1.166 . S
O282 Zn274 1.905 . S
O282 C276 1.182 . S
O283 Zn274 1.898 1_665 S
O283 C277 1.167 . S
O284 Zn275 2.120 1_665 S
O284 C277 1.299 . S
O285 Zn273 1.898 . S
O285 C280 1.167 . S
O286 Zn275 2.120 . S
O286 C280 1.299 . S
O287 Zn275 2.114 1_655 S
O287 C289 1.166 . S
O288 Zn273 1.905 1_655 S
O288 C289 1.182 . S
C289 O287 1.166 . S
C289 O288 1.182 . S
O290 Zn275 2.080 . S
O290 C293 1.305 . S
O291 Zn274 1.920 1_565 S
O291 C293 1.234 1_565 S
C292 O278 1.305 . S
C292 O279 1.234 . S
C293 O290 1.305 . S
C293 O291 1.234 1_545 S
Zn294 O300 1.920 1_545 S
Zn294 O306 1.898 . S
Zn294 O309 1.905 1_455 S
Zn295 O303 1.905 . S
Zn295 O304 1.898 1_445 S
Zn295 O312 1.920 . S
Zn296 O299 2.080 1_545 S
Zn296 O302 2.114 . S
Zn296 O305 2.120 1_445 S
Zn296 O307 2.120 . S
Zn296 O308 2.114 1_455 S
Zn296 O311 2.080 . S
C297 O302 1.166 . S
C297 O303 1.182 . S
C298 O304 1.167 . S
C298 O305 1.299 . S
O299 Zn296 2.080 1_565 S
O299 C313 1.305 . S
O300 Zn294 1.920 1_565 S
O300 C313 1.234 . S
C301 O306 1.167 . S
C301 O307 1.299 . S
O302 Zn296 2.114 . S
O302 C297 1.166 . S
O303 Zn295 1.905 . S
O303 C297 1.182 . S
O304 Zn295 1.898 1_665 S
O304 C298 1.167 . S
O305 Zn296 2.120 1_665 S
O305 C298 1.299 . S
O306 Zn294 1.898 . S
O306 C301 1.167 . S
O307 Zn296 2.120 . S
O307 C301 1.299 . S
O308 Zn296 2.114 1_655 S
O308 C310 1.166 . S
O309 Zn294 1.905 1_655 S
O309 C310 1.182 . S
C310 O308 1.166 . S
C310 O309 1.182 . S
O311 Zn296 2.080 . S
O311 C314 1.305 . S
O312 Zn295 1.920 . S
O312 C314 1.234 . S
C313 O299 1.305 . S
C313 O300 1.234 . S
C314 O311 1.305 . S
C314 O312 1.234 . S
Zn315 O321 1.920 . S
Zn315 O327 1.898 1_445 S
Zn315 O330 1.905 . S
Zn316 O324 1.905 1_545 S
Zn316 O325 1.898 . S
Zn316 O333 1.920 1_455 S
Zn317 O320 2.080 . S
Zn317 O323 2.114 1_545 S
Zn317 O326 2.120 . S
Zn317 O328 2.120 1_445 S
Zn317 O329 2.114 . S
Zn317 O332 2.080 1_455 S
C318 O323 1.166 . S
C318 O324 1.182 . S
C319 O325 1.167 . S
C319 O326 1.299 . S
O320 Zn317 2.080 . S
O320 C334 1.305 . S
O321 Zn315 1.920 . S
O321 C334 1.234 . S
C322 O327 1.167 . S
C322 O328 1.299 . S
O323 Zn317 2.114 1_565 S
O323 C318 1.166 . S
O324 Zn316 1.905 1_565 S
O324 C318 1.182 . S
O325 Zn316 1.898 . S
O325 C319 1.167 . S
O326 Zn317 2.120 . S
O326 C319 1.299 . S
O327 Zn315 1.898 1_665 S
O327 C322 1.167 . S
O328 Zn317 2.120 1_665 S
O328 C322 1.299 . S
O329 Zn317 2.114 . S
O329 C331 1.166 . S
O330 Zn315 1.905 . S
O330 C331 1.182 . S
C331 O329 1.166 . S
C331 O330 1.182 . S
O332 Zn317 2.080 1_655 S
O332 C335 1.305 . S
O333 Zn316 1.920 1_655 S
O333 C335 1.234 . S
C334 O320 1.305 . S
C334 O321 1.234 . S
C335 O332 1.305 . S
C335 O333 1.234 . S
Zn336 O342 1.920 . S
Zn336 O348 1.898 . S
Zn336 O351 1.905 . S
Zn337 O345 1.905 . S
Zn337 O346 1.898 . S
Zn337 O354 1.920 . S
Zn338 O341 2.080 . S
Zn338 O344 2.114 . S
Zn338 O347 2.120 . S
Zn338 O349 2.120 . S
Zn338 O350 2.114 . S
Zn338 O353 2.080 . S
C339 O344 1.166 . S
C339 O345 1.182 . S
C340 O346 1.167 . S
C340 O347 1.299 . S
O341 Zn338 2.080 . S
O341 C355 1.305 . S
O342 Zn336 1.920 . S
O342 C355 1.234 . S
C343 O348 1.167 . S
C343 O349 1.299 . S
O344 Zn338 2.114 . S
O344 C339 1.166 . S
O345 Zn337 1.905 . S
O345 C339 1.182 . S
O346 Zn337 1.898 . S
O346 C340 1.167 . S
O347 Zn338 2.120 . S
O347 C340 1.299 . S
O348 Zn336 1.898 . S
O348 C343 1.167 . S
O349 Zn338 2.120 . S
O349 C343 1.299 . S
O350 Zn338 2.114 . S
O350 C352 1.166 . S
O351 Zn336 1.905 . S
O351 C352 1.182 . S
C352 O350 1.166 . S
C352 O351 1.182 . S
O353 Zn338 2.080 . S
O353 C356 1.305 . S
O354 Zn337 1.920 . S
O354 C356 1.234 . S
C355 O341 1.305 . S
C355 O342 1.234 . S
C356 O353 1.305 . S
C356 O354 1.234 . S
Zn357 O363 1.920 . S
Zn357 O369 1.898 . S
Zn357 O372 1.905 . S
Zn358 O366 1.905 . S
Zn358 O367 1.898 . S
Zn358 O375 1.920 . S
Zn359 O362 2.080 . S
Zn359 O365 2.114 . S
Zn359 O368 2.120 . S
Zn359 O370 2.120 . S
Zn359 O371 2.114 . S
Zn359 O374 2.080 . S
C360 O365 1.166 . S
C360 O366 1.182 . S
C361 O367 1.167 . S
C361 O368 1.299 . S
O362 Zn359 2.080 . S
O362 C376 1.305 . S
O363 Zn357 1.920 . S
O363 C376 1.234 . S
C364 O369 1.167 . S
C364 O370 1.299 . S
O365 Zn359 2.114 . S
O365 C360 1.166 . S
O366 Zn358 1.905 . S
O366 C360 1.182 . S
O367 Zn358 1.898 . S
O367 C361 1.167 . S
O368 Zn359 2.120 . S
O368 C361 1.299 . S
O369 Zn357 1.898 . S
O369 C364 1.167 . S
O370 Zn359 2.120 . S
O370 C364 1.299 . S
O371 Zn359 2.114 . S
O371 C373 1.166 . S
O372 Zn357 1.905 . S
O372 C373 1.182 . S
C373 O371 1.166 . S
C373 O372 1.182 . S
O374 Zn359 2.080 . S
O374 C377 1.305 . S
O375 Zn358 1.920 . S
O375 C377 1.234 . S
C376 O362 1.305 . S
C376 O363 1.234 . S
C377 O374 1.305 . S
C377 O375 1.234 . S
Zn378 O384 1.920 . S
Zn378 O390 1.898 . S
Zn378 O393 1.905 . S
Zn379 O387 1.905 . S
Zn379 O388 1.898 . S
Zn379 O396 1.920 . S
Zn380 O383 2.080 . S
Zn380 O386 2.114 . S
Zn380 O389 2.120 . S
Zn380 O391 2.120 . S
Zn380 O392 2.114 . S
Zn380 O395 2.080 . S
C381 O386 1.166 . S
C381 O387 1.182 . S
C382 O388 1.167 . S
C382 O389 1.299 . S
O383 Zn380 2.080 . S
O383 C397 1.305 . S
O384 Zn378 1.920 . S
O384 C397 1.234 . S
C385 O390 1.167 . S
C385 O391 1.299 . S
O386 Zn380 2.114 . S
O386 C381 1.166 . S
O387 Zn379 1.905 . S
O387 C381 1.182 . S
O388 Zn379 1.898 . S
O388 C382 1.167 . S
O389 Zn380 2.120 . S
O389 C382 1.299 . S
O390 Zn378 1.898 . S
O390 C385 1.167 . S
O391 Zn380 2.120 . S
O391 C385 1.299 . S
O392 Zn380 2.114 . S
O392 C394 1.166 . S
O393 Zn378 1.905 . S
O393 C394 1.182 . S
C394 O392 1.166 . S
C394 O393 1.182 . S
O395 Zn380 2.080 . S
O395 C398 1.305 . S
O396 Zn379 1.920 . S
O396 C398 1.234 . S
C397 O383 1.305 . S
C397 O384 1.234 . S
C398 O395 1.305 . S
C398 O396 1.234 . S
Zn399 O405 1.920 . S
Zn399 O411 1.898 . S
Zn399 O414 1.905 . S
Zn400 O408 1.905 . S
Zn400 O409 1.898 . S
Zn400 O417 1.920 . S
Zn401 O404 2.080 . S
Zn401 O407 2.114 . S
Zn401 O410 2.120 . S
Zn401 O412 2.120 . S
Zn401 O413 2.114 . S
Zn401 O416 2.080 . S
C402 O407 1.166 . S
C402 O408 1.182 . S
C403 O409 1.167 . S
C403 O410 1.299 . S
O404 Zn401 2.080 . S
O404 C418 1.258 1_556 S
O405 Zn399 1.920 . S
O405 C418 1.291 . S
C406 O411 1.238 . S
C406 O412 1.240 1_554 S
O407 Zn401 2.114 . S
O407 C402 1.166 . S
O408 Zn400 1.905 . S
O408 C402 1.182 . S
O409 Zn400 1.898 . S
O409 C403 1.167 . S
O410 Zn401 2.120 . S
O410 C403 1.299 . S
O411 Zn399 1.898 . S
O411 C406 1.238 . S
O412 Zn401 2.120 . S
O412 C406 1.240 1_556 S
O413 Zn401 2.114 . S
O413 C415 1.151 1_556 S
O414 Zn399 1.905 . S
O414 C415 1.200 . S
C415 O413 1.151 1_554 S
C415 O414 1.200 . S
O416 Zn401 2.080 . S
O416 C419 1.305 . S
O417 Zn400 1.920 . S
O417 C419 1.234 . S
C418 O404 1.258 1_554 S
C418 O405 1.291 . S
C419 O416 1.305 . S
C419 O417 1.234 . S
Zn420 O426 1.920 . S
Zn420 O432 1.898 . S
Zn420 O435 1.905 . S
Zn421 O429 1.905 . S
Zn421 O430 1.898 . S
Zn421 O438 1.920 . S
Zn422 O425 2.080 . S
Zn422 O428 2.114 . S
Zn422 O431 2.120 . S
Zn422 O433 2.120 . S
Zn422 O434 2.114 . S
Zn422 O437 2.080 . S
C423 O428 1.166 . S
C423 O429 1.182 . S
C424 O430 1.167 . S
C424 O431 1.299 . S
O425 Zn422 2.080 . S
O425 C439 1.305 . S
O426 Zn420 1.920 . S
O426 C439 1.234 . S
C427 O432 1.167 . S
C427 O433 1.299 . S
O428 Zn422 2.114 . S
O428 C423 1.166 . S
O429 Zn421 1.905 . S
O429 C423 1.182 . S
O430 Zn421 1.898 . S
O430 C424 1.167 . S
O431 Zn422 2.120 . S
O431 C424 1.299 . S
O432 Zn420 1.898 . S
O432 C427 1.167 . S
O433 Zn422 2.120 . S
O433 C427 1.299 . S
O434 Zn422 2.114 . S
O434 C436 1.166 . S
O435 Zn420 1.905 . S
O435 C436 1.182 . S
C436 O434 1.166 . S
C436 O435 1.182 . S
O437 Zn422 2.080 . S
O437 C440 1.305 . S
O438 Zn421 1.920 . S
O438 C440 1.234 . S
C439 O425 1.305 . S
C439 O426 1.234 . S
C440 O437 1.305 . S
C440 O438 1.234 . S
Zn441 O447 1.920 . S
Zn441 O453 1.898 . S
Zn441 O456 1.905 . S
Zn442 O450 1.905 . S
Zn442 O451 1.898 . S
Zn442 O459 1.920 . S
Zn443 O446 2.080 . S
Zn443 O449 2.114 . S
Zn443 O452 2.120 . S
Zn443 O454 2.120 . S
Zn443 O455 2.114 . S
Zn443 O458 2.080 . S
C444 O449 1.150 1_556 S
C444 O450 1.201 . S
C445 O451 1.238 . S
C445 O452 1.239 1_556 S
O446 Zn443 2.080 . S
O446 C460 1.305 . S
O447 Zn441 1.920 . S
O447 C460 1.234 . S
C448 O453 1.167 . S
C448 O454 1.299 . S
O449 Zn443 2.114 . S
O449 C444 1.150 1_554 S
O450 Zn442 1.905 . S
O450 C444 1.201 . S
O451 Zn442 1.898 . S
O451 C445 1.238 . S
O452 Zn443 2.120 . S
O452 C445 1.239 1_554 S
O453 Zn441 1.898 . S
O453 C448 1.167 . S
O454 Zn443 2.120 . S
O454 C448 1.299 . S
O455 Zn443 2.114 . S
O455 C457 1.166 . S
O456 Zn441 1.905 . S
O456 C457 1.182 . S
C457 O455 1.166 . S
C457 O456 1.182 . S
O458 Zn443 2.080 . S
O458 C461 1.256 1_554 S
O459 Zn442 1.920 . S
O459 C461 1.294 . S
C460 O446 1.305 . S
C460 O447 1.234 . S
C461 O458 1.256 1_556 S
C461 O459 1.294 . S
Zn462 O468 1.920 . S
Zn462 O474 1.898 . S
Zn462 O477 1.905 . S
Zn463 O471 1.905 . S
Zn463 O472 1.898 . S
Zn463 O480 1.920 . S
Zn464 O467 2.080 . S
Zn464 O470 2.114 . S
Zn464 O473 2.120 . S
Zn464 O475 2.120 . S
Zn464 O476 2.114 . S
Zn464 O479 2.080 . S
C465 O470 1.166 . S
C465 O471 1.182 . S
C466 O472 1.167 . S
C466 O473 1.299 . S
O467 Zn464 2.080 . S
O467 C481 1.305 . S
O468 Zn462 1.920 . S
O468 C481 1.234 . S
C469 O474 1.167 . S
C469 O475 1.299 . S
O470 Zn464 2.114 . S
O470 C465 1.166 . S
O471 Zn463 1.905 . S
O471 C465 1.182 . S
O472 Zn463 1.898 . S
O472 C466 1.167 . S
O473 Zn464 2.120 . S
O473 C466 1.299 . S
O474 Zn462 1.898 . S
O474 C469 1.167 . S
O475 Zn464 2.120 . S
O475 C469 1.299 . S
O476 Zn464 2.114 . S
O476 C478 1.166 . S
O477 Zn462 1.905 . S
O477 C478 1.182 . S
C478 O476 1.166 . S
C478 O477 1.182 . S
O479 Zn464 2.080 . S
O479 C482 1.305 . S
O480 Zn463 1.920 . S
O480 C482 1.234 . S
C481 O467 1.305 . S
C481 O468 1.234 . S
C482 O479 1.305 . S
C482 O480 1.234 . S
Zn483 O489 1.920 . S
Zn483 O495 1.898 . S
Zn483 O498 1.905 . S
Zn484 O492 1.905 . S
Zn484 O493 1.898 . S
Zn484 O501 1.920 . S
Zn485 O488 2.080 . S
Zn485 O491 2.114 . S
Zn485 O494 2.120 . S
Zn485 O496 2.120 . S
Zn485 O497 2.114 . S
Zn485 O500 2.080 . S
C486 O491 1.166 . S
C486 O492 1.182 . S
C487 O493 1.167 . S
C487 O494 1.299 . S
O488 Zn485 2.080 . S
O488 C502 1.305 . S
O489 Zn483 1.920 . S
O489 C502 1.234 . S
C490 O495 1.167 . S
C490 O496 1.299 . S
O491 Zn485 2.114 . S
O491 C486 1.166 . S
O492 Zn484 1.905 . S
O492 C486 1.182 . S
O493 Zn484 1.898 . S
O493 C487 1.167 . S
O494 Zn485 2.120 . S
O494 C487 1.299 . S
O495 Zn483 1.898 . S
O495 C490 1.167 . S
O496 Zn485 2.120 . S
O496 C490 1.299 . S
O497 Zn485 2.114 . S
O497 C499 1.166 . S
O498 Zn483 1.905 . S
O498 C499 1.182 . S
C499 O497 1.166 . S
C499 O498 1.182 . S
O500 Zn485 2.080 . S
O500 C503 1.305 . S
O501 Zn484 1.920 . S
O501 C503 1.234 . S
C502 O488 1.305 . S
C502 O489 1.234 . S
C503 O500 1.305 . S
C503 O501 1.234 . S
C504 C505 1.349 . S
C504 C506 1.327 . S
C504 H529 0.950 . S
C505 C504 1.349 . S
C505 C521 1.349 . S
C506 C504 1.327 . S
C506 C525 1.429 . S
C506 H530 0.950 . S
C507 C524 1.574 . S
C507 C526 1.368 . S
C507 H531 0.949 . S
H508 C512 0.949 . S
C509 C510 1.349 . S
C509 C511 1.327 . S
C509 H532 0.950 . S
C510 C509 1.349 . S
C510 C522 1.349 . S
C511 C509 1.327 . S
C511 C527 1.429 . S
C511 H533 0.950 . S
C512 H508 0.949 . S
C512 C520 1.574 . S
C512 C528 1.368 . S
H513 C521 0.950 . S
H514 C519 0.950 . S
H515 C520 0.949 . S
H516 C522 0.950 . S
H517 C523 0.950 . S
H518 C524 0.949 . S
C519 H514 0.950 . S
C519 C521 1.327 . S
C519 C525 1.429 . S
C520 C512 1.574 . S
C520 H515 0.949 . S
C520 C526 1.368 . S
C521 C505 1.349 . S
C521 H513 0.950 . S
C521 C519 1.327 . S
C522 C510 1.349 . S
C522 H516 0.950 . S
C522 C523 1.327 . S
C523 H517 0.950 . S
C523 C522 1.327 . S
C523 C527 1.429 . S
C524 C507 1.574 . S
C524 H518 0.949 . S
C524 C528 1.368 . S
C525 C506 1.429 . S
C525 C519 1.429 . S
C525 C526 1.523 . S
C526 C507 1.368 . S
C526 C520 1.368 . S
C526 C525 1.523 . S
C527 C511 1.429 . S
C527 C523 1.429 . S
C527 C528 1.523 . S
C528 C512 1.368 . S
C528 C524 1.368 . S
C528 C527 1.523 . S
H529 C504 0.950 . S
H530 C506 0.950 . S
H531 C507 0.949 . S
H532 C509 0.950 . S
H533 C511 0.950 . S
C534 C535 1.349 . S
C534 C536 1.327 . S
C534 H559 0.950 . S
C535 C534 1.349 . S
C535 C551 1.349 . S
C536 C534 1.327 . S
C536 C555 1.429 . S
C536 H560 0.950 . S
C537 C554 1.574 . S
C537 C556 1.368 . S
C537 H561 0.949 . S
H538 C542 0.949 . S
C539 C540 1.349 . S
C539 C541 1.327 . S
C539 H562 0.950 . S
C540 C539 1.349 . S
C540 C552 1.349 . S
C541 C539 1.327 . S
C541 C557 1.429 . S
C541 H563 0.950 . S
C542 H538 0.949 . S
C542 C550 1.574 . S
C542 C558 1.368 . S
H543 C551 0.950 . S
H544 C549 0.950 . S
H545 C550 0.949 . S
H546 C552 0.950 . S
H547 C553 0.950 . S
H548 C554 0.949 . S
C549 H544 0.950 . S
C549 C551 1.327 . S
C549 C555 1.429 . S
C550 C542 1.574 . S
C550 H545 0.949 . S
C550 C556 1.368 . S
C551 C535 1.349 . S
C551 H543 0.950 . S
C551 C549 1.327 . S
C552 C540 1.349 . S
C552 H546 0.950 . S
C552 C553 1.327 . S
C553 H547 0.950 . S
C553 C552 1.327 . S
C553 C557 1.429 . S
C554 C537 1.574 . S
C554 H548 0.949 . S
C554 C558 1.368 . S
C555 C536 1.429 . S
C555 C549 1.429 . S
C555 C556 1.523 . S
C556 C537 1.368 . S
C556 C550 1.368 . S
C556 C555 1.523 . S
C557 C541 1.429 . S
C557 C553 1.429 . S
C557 C558 1.523 . S
C558 C542 1.368 . S
C558 C554 1.368 . S
C558 C557 1.523 . S
H559 C534 0.950 . S
H560 C536 0.950 . S
H561 C537 0.949 . S
H562 C539 0.950 . S
H563 C541 0.950 . S
C564 C565 1.349 . S
C564 C566 1.327 . S
C564 H589 0.950 . S
C565 C564 1.349 . S
C565 C581 1.349 1_455 S
C566 C564 1.327 . S
C566 C585 1.429 . S
C566 H590 0.950 . S
C567 C584 1.574 . S
C567 C586 1.368 1_655 S
C567 H591 0.949 . S
H568 C572 0.949 . S
C569 C570 1.349 1_655 S
C569 C571 1.327 . S
C569 H592 0.950 . S
C570 C569 1.349 1_455 S
C570 C582 1.349 . S
C571 C569 1.327 . S
C571 C587 1.429 1_655 S
C571 H593 0.950 . S
C572 H568 0.949 . S
C572 C580 1.574 . S
C572 C588 1.368 . S
H573 C581 0.950 . S
H574 C579 0.950 . S
H575 C580 0.949 . S
H576 C582 0.950 . S
H577 C583 0.950 . S
H578 C584 0.949 . S
C579 H574 0.950 . S
C579 C581 1.327 . S
C579 C585 1.429 1_655 S
C580 C572 1.574 . S
C580 H575 0.949 . S
C580 C586 1.368 . S
C581 C565 1.349 1_655 S
C581 H573 0.950 . S
C581 C579 1.327 . S
C582 C570 1.349 . S
C582 H576 0.950 . S
C582 C583 1.327 . S
C583 H577 0.950 . S
C583 C582 1.327 . S
C583 C587 1.429 . S
C584 C567 1.574 . S
C584 H578 0.949 . S
C584 C588 1.368 1_655 S
C585 C566 1.429 . S
C585 C579 1.429 1_455 S
C585 C586 1.523 . S
C586 C567 1.368 1_455 S
C586 C580 1.368 . S
C586 C585 1.523 . S
C587 C571 1.429 1_455 S
C587 C583 1.429 . S
C587 C588 1.523 . S
C588 C572 1.368 . S
C588 C584 1.368 1_455 S
C588 C587 1.523 . S
H589 C564 0.950 . S
H590 C566 0.950 . S
H591 C567 0.949 . S
H592 C569 0.950 . S
H593 C571 0.950 . S
C594 C595 1.349 . S
C594 C596 1.327 . S
C594 H619 0.950 . S
C595 C594 1.349 . S
C595 C611 1.349 . S
C596 C594 1.327 . S
C596 C615 1.429 . S
C596 H620 0.950 . S
C597 C614 1.574 . S
C597 C616 1.368 . S
C597 H621 0.949 . S
H598 C602 0.949 . S
C599 C600 1.349 . S
C599 C601 1.327 . S
C599 H622 0.950 . S
C600 C599 1.349 . S
C600 C612 1.349 . S
C601 C599 1.327 . S
C601 C617 1.429 . S
C601 H623 0.950 . S
C602 H598 0.949 . S
C602 C610 1.574 . S
C602 C618 1.368 . S
H603 C611 0.950 . S
H604 C609 0.950 . S
H605 C610 0.949 . S
H606 C612 0.950 . S
H607 C613 0.950 . S
H608 C614 0.949 . S
C609 H604 0.950 . S
C609 C611 1.327 . S
C609 C615 1.429 . S
C610 C602 1.574 . S
C610 H605 0.949 . S
C610 C616 1.368 . S
C611 C595 1.349 . S
C611 H603 0.950 . S
C611 C609 1.327 . S
C612 C600 1.349 . S
C612 H606 0.950 . S
C612 C613 1.327 . S
C613 H607 0.950 . S
C613 C612 1.327 . S
C613 C617 1.429 . S
C614 C597 1.574 . S
C614 H608 0.949 . S
C614 C618 1.368 . S
C615 C596 1.429 . S
C615 C609 1.429 . S
C615 C616 1.523 . S
C616 C597 1.368 . S
C616 C610 1.368 . S
C616 C615 1.523 . S
C617 C601 1.429 . S
C617 C613 1.429 . S
C617 C618 1.523 . S
C618 C602 1.368 . S
C618 C614 1.368 . S
C618 C617 1.523 . S
H619 C594 0.950 . S
H620 C596 0.950 . S
H621 C597 0.949 . S
H622 C599 0.950 . S
H623 C601 0.950 . S
C624 C625 1.349 . S
C624 C626 1.327 . S
C624 H649 0.950 . S
C625 C624 1.349 . S
C625 C641 1.349 . S
C626 C624 1.327 . S
C626 C645 1.429 . S
C626 H650 0.950 . S
C627 C644 1.574 . S
C627 C646 1.368 1_565 S
C627 H651 0.949 . S
H628 C632 0.949 . S
C629 C630 1.349 1_565 S
C629 C631 1.327 . S
C629 H652 0.950 . S
C630 C629 1.349 1_545 S
C630 C642 1.349 . S
C631 C629 1.327 . S
C631 C647 1.429 1_565 S
C631 H653 0.950 . S
C632 H628 0.949 . S
C632 C640 1.574 . S
C632 C648 1.368 . S
H633 C641 0.950 1_565 S
H634 C639 0.950 1_565 S
H635 C640 0.949 . S
H636 C642 0.950 . S
H637 C643 0.950 . S
H638 C644 0.949 . S
C639 H634 0.950 1_545 S
C639 C641 1.327 . S
C639 C645 1.429 . S
C640 C632 1.574 . S
C640 H635 0.949 . S
C640 C646 1.368 . S
C641 C625 1.349 . S
C641 H633 0.950 1_545 S
C641 C639 1.327 . S
C642 C630 1.349 . S
C642 H636 0.950 . S
C642 C643 1.327 . S
C643 H637 0.950 . S
C643 C642 1.327 . S
C643 C647 1.429 . S
C644 C627 1.574 . S
C644 H638 0.949 . S
C644 C648 1.368 1_565 S
C645 C626 1.429 . S
C645 C639 1.429 . S
C645 C646 1.523 . S
C646 C627 1.368 1_545 S
C646 C640 1.368 . S
C646 C645 1.523 . S
C647 C631 1.429 1_545 S
C647 C643 1.429 . S
C647 C648 1.523 . S
C648 C632 1.368 . S
C648 C644 1.368 1_545 S
C648 C647 1.523 . S
H649 C624 0.950 . S
H650 C626 0.950 . S
H651 C627 0.949 . S
H652 C629 0.950 . S
H653 C631 0.950 . S
C654 C655 1.349 . S
C654 C656 1.327 . S
C654 H679 0.950 . S
C655 C654 1.349 . S
C655 C671 1.349 . S
C656 C654 1.327 . S
C656 C675 1.429 . S
C656 H680 0.950 . S
C657 C674 1.574 . S
C657 C676 1.368 . S
C657 H681 0.949 1_455 S
H658 C662 0.949 . S
C659 C660 1.349 . S
C659 C661 1.327 . S
C659 H682 0.950 . S
C660 C659 1.349 . S
C660 C672 1.349 . S
C661 C659 1.327 . S
C661 C677 1.429 . S
C661 H683 0.950 . S
C662 H658 0.949 . S
C662 C670 1.574 . S
C662 C678 1.368 . S
H663 C671 0.950 1_655 S
H664 C669 0.950 1_655 S
H665 C670 0.949 . S
H666 C672 0.950 . S
H667 C673 0.950 . S
H668 C674 0.949 . S
C669 H664 0.950 1_455 S
C669 C671 1.327 . S
C669 C675 1.429 . S
C670 C662 1.574 . S
C670 H665 0.949 . S
C670 C676 1.368 . S
C671 C655 1.349 . S
C671 H663 0.950 1_455 S
C671 C669 1.327 . S
C672 C660 1.349 . S
C672 H666 0.950 . S
C672 C673 1.327 . S
C673 H667 0.950 . S
C673 C672 1.327 . S
C673 C677 1.429 . S
C674 C657 1.574 . S
C674 H668 0.949 . S
C674 C678 1.368 . S
C675 C656 1.429 . S
C675 C669 1.429 . S
C675 C676 1.523 . S
C676 C657 1.368 . S
C676 C670 1.368 . S
C676 C675 1.523 . S
C677 C661 1.429 . S
C677 C673 1.429 . S
C677 C678 1.523 . S
C678 C662 1.368 . S
C678 C674 1.368 . S
C678 C677 1.523 . S
H679 C654 0.950 . S
H680 C656 0.950 . S
H681 C657 0.949 1_655 S
H682 C659 0.950 . S
H683 C661 0.950 . S
C684 C685 1.349 . S
C684 C686 1.327 . S
C684 H709 0.950 . S
C685 C684 1.349 . S
C685 C701 1.349 . S
C686 C684 1.327 . S
C686 C705 1.429 . S
C686 H710 0.950 . S
C687 C704 1.574 . S
C687 C706 1.368 . S
C687 H711 0.949 . S
H688 C692 0.949 . S
C689 C690 1.349 . S
C689 C691 1.327 . S
C689 H712 0.950 . S
C690 C689 1.349 . S
C690 C702 1.349 . S
C691 C689 1.327 . S
C691 C707 1.429 . S
C691 H713 0.950 . S
C692 H688 0.949 . S
C692 C700 1.574 . S
C692 C708 1.368 . S
H693 C701 0.950 . S
H694 C699 0.950 . S
H695 C700 0.949 . S
H696 C702 0.950 . S
H697 C703 0.950 . S
H698 C704 0.949 . S
C699 H694 0.950 . S
C699 C701 1.327 . S
C699 C705 1.429 . S
C700 C692 1.574 . S
C700 H695 0.949 . S
C700 C706 1.368 . S
C701 C685 1.349 . S
C701 H693 0.950 . S
C701 C699 1.327 . S
C702 C690 1.349 . S
C702 H696 0.950 . S
C702 C703 1.327 . S
C703 H697 0.950 . S
C703 C702 1.327 . S
C703 C707 1.429 . S
C704 C687 1.574 . S
C704 H698 0.949 . S
C704 C708 1.368 . S
C705 C686 1.429 . S
C705 C699 1.429 . S
C705 C706 1.523 . S
C706 C687 1.368 . S
C706 C700 1.368 . S
C706 C705 1.523 . S
C707 C691 1.429 . S
C707 C703 1.429 . S
C707 C708 1.523 . S
C708 C692 1.368 . S
C708 C704 1.368 . S
C708 C707 1.523 . S
H709 C684 0.950 . S
H710 C686 0.950 . S
H711 C687 0.949 . S
H712 C689 0.950 . S
H713 C691 0.950 . S
C714 C715 1.349 . S
C714 C716 1.320 . S
C714 H739 0.950 1_545 S
C715 C714 1.349 . S
C715 C731 1.349 . S
C716 C714 1.320 . S
C716 C735 1.451 . S
C716 H740 0.934 1_545 S
C717 C734 1.574 . S
C717 C736 1.368 . S
C717 H741 0.949 . S
H718 C722 0.949 . S
C719 C720 1.349 . S
C719 C721 1.327 . S
C719 H742 0.950 . S
C720 C719 1.349 . S
C720 C732 1.349 1_545 S
C721 C719 1.327 . S
C721 C737 1.429 . S
C721 H743 0.950 . S
C722 H718 0.949 . S
C722 C730 1.574 . S
C722 C738 1.368 1_565 S
H723 C731 0.950 . S
H724 C729 0.950 . S
H725 C730 0.949 . S
H726 C732 0.950 . S
H727 C733 0.950 . S
H728 C734 0.949 . S
C729 H724 0.950 . S
C729 C731 1.327 . S
C729 C735 1.429 . S
C730 C722 1.574 . S
C730 H725 0.949 . S
C730 C736 1.368 1_565 S
C731 C715 1.349 . S
C731 H723 0.950 . S
C731 C729 1.327 . S
C732 C720 1.349 1_565 S
C732 H726 0.950 . S
C732 C733 1.327 . S
C733 H727 0.950 . S
C733 C732 1.327 . S
C733 C737 1.429 1_565 S
C734 C717 1.574 . S
C734 H728 0.949 . S
C734 C738 1.368 . S
C735 C716 1.451 . S
C735 C729 1.429 . S
C735 C736 1.523 . S
C736 C717 1.368 . S
C736 C730 1.368 1_545 S
C736 C735 1.523 . S
C737 C721 1.429 . S
C737 C733 1.429 1_545 S
C737 C738 1.523 . S
C738 C722 1.368 1_545 S
C738 C734 1.368 . S
C738 C737 1.523 . S
H739 C714 0.950 1_565 S
H740 C716 0.934 1_565 S
H741 C717 0.949 . S
H742 C719 0.950 . S
H743 C721 0.950 . S
C744 C745 1.349 . S
C744 C746 1.327 . S
C744 H769 0.950 . S
C745 C744 1.349 . S
C745 C761 1.349 . S
C746 C744 1.327 . S
C746 C765 1.429 . S
C746 H770 0.950 . S
C747 C764 1.574 . S
C747 C766 1.368 . S
C747 H771 0.949 . S
H748 C752 0.949 . S
C749 C750 1.349 . S
C749 C751 1.327 . S
C749 H772 0.950 . S
C750 C749 1.349 . S
C750 C762 1.349 . S
C751 C749 1.327 . S
C751 C767 1.429 . S
C751 H773 0.950 . S
C752 H748 0.949 . S
C752 C760 1.574 . S
C752 C768 1.368 . S
H753 C761 0.950 . S
H754 C759 0.950 . S
H755 C760 0.949 . S
H756 C762 0.950 . S
H757 C763 0.950 . S
H758 C764 0.949 . S
C759 H754 0.950 . S
C759 C761 1.327 . S
C759 C765 1.429 . S
C760 C752 1.574 . S
C760 H755 0.949 . S
C760 C766 1.368 . S
C761 C745 1.349 . S
C761 H753 0.950 . S
C761 C759 1.327 . S
C762 C750 1.349 . S
C762 H756 0.950 . S
C762 C763 1.327 . S
C763 H757 0.950 . S
C763 C762 1.327 . S
C763 C767 1.429 . S
C764 C747 1.574 . S
C764 H758 0.949 . S
C764 C768 1.368 . S
C765 C746 1.429 . S
C765 C759 1.429 . S
C765 C766 1.523 . S
C766 C747 1.368 . S
C766 C760 1.368 . S
C766 C765 1.523 . S
C767 C751 1.429 . S
C767 C763 1.429 . S
C767 C768 1.523 . S
C768 C752 1.368 . S
C768 C764 1.368 . S
C768 C767 1.523 . S
H769 C744 0.950 . S
H770 C746 0.950 . S
H771 C747 0.949 . S
H772 C749 0.950 . S
H773 C751 0.950 . S
C774 C775 1.349 . S
C774 C776 1.327 . S
C774 H799 0.950 . S
C775 C774 1.349 . S
C775 C791 1.349 . S
C776 C774 1.327 . S
C776 C795 1.429 . S
C776 H800 0.950 . S
C777 C794 1.574 . S
C777 C796 1.368 . S
C777 H801 0.949 . S
H778 C782 0.949 . S
C779 C780 1.349 . S
C779 C781 1.327 . S
C779 H802 0.950 . S
C780 C779 1.349 . S
C780 C792 1.349 . S
C781 C779 1.327 . S
C781 C797 1.429 . S
C781 H803 0.950 . S
C782 H778 0.949 . S
C782 C790 1.574 . S
C782 C798 1.368 . S
H783 C791 0.950 . S
H784 C789 0.950 . S
H785 C790 0.949 . S
H786 C792 0.950 . S
H787 C793 0.950 . S
H788 C794 0.949 . S
C789 H784 0.950 . S
C789 C791 1.327 . S
C789 C795 1.429 . S
C790 C782 1.574 . S
C790 H785 0.949 . S
C790 C796 1.368 . S
C791 C775 1.349 . S
C791 H783 0.950 . S
C791 C789 1.327 . S
C792 C780 1.349 . S
C792 H786 0.950 . S
C792 C793 1.327 . S
C793 H787 0.950 . S
C793 C792 1.327 . S
C793 C797 1.429 . S
C794 C777 1.574 . S
C794 H788 0.949 . S
C794 C798 1.368 . S
C795 C776 1.429 . S
C795 C789 1.429 . S
C795 C796 1.523 . S
C796 C777 1.368 . S
C796 C790 1.368 . S
C796 C795 1.523 . S
C797 C781 1.429 . S
C797 C793 1.429 . S
C797 C798 1.523 . S
C798 C782 1.368 . S
C798 C794 1.368 . S
C798 C797 1.523 . S
H799 C774 0.950 . S
H800 C776 0.950 . S
H801 C777 0.949 . S
H802 C779 0.950 . S
H803 C781 0.950 . S
C804 C805 1.349 . S
C804 C806 1.327 . S
C804 H829 0.950 . S
C805 C804 1.349 . S
C805 C821 1.349 1_545 S
C806 C804 1.327 . S
C806 C825 1.429 . S
C806 H830 0.950 . S
C807 C824 1.573 . S
C807 C826 1.368 1_565 S
C807 H831 0.949 . S
H808 C812 0.949 . S
C809 C810 1.349 . S
C809 C811 1.327 . S
C809 H832 0.950 1_545 S
C810 C809 1.349 . S
C810 C822 1.349 . S
C811 C809 1.327 . S
C811 C827 1.429 . S
C811 H833 0.950 1_545 S
C812 H808 0.949 . S
C812 C820 1.574 . S
C812 C828 1.368 . S
H813 C821 0.950 . S
H814 C819 0.950 . S
H815 C820 0.949 . S
H816 C822 0.950 . S
H817 C823 0.950 . S
H818 C824 0.949 . S
C819 H814 0.950 . S
C819 C821 1.327 . S
C819 C825 1.429 1_565 S
C820 C812 1.574 . S
C820 H815 0.949 . S
C820 C826 1.368 . S
C821 C805 1.349 1_565 S
C821 H813 0.950 . S
C821 C819 1.327 . S
C822 C810 1.349 . S
C822 H816 0.950 . S
C822 C823 1.327 . S
C823 H817 0.950 . S
C823 C822 1.327 . S
C823 C827 1.429 . S
C824 C807 1.573 . S
C824 H818 0.949 . S
C824 C828 1.369 1_565 S
C825 C806 1.429 . S
C825 C819 1.429 1_545 S
C825 C826 1.523 . S
C826 C807 1.368 1_545 S
C826 C820 1.368 . S
C826 C825 1.523 . S
C827 C811 1.429 . S
C827 C823 1.429 . S
C827 C828 1.523 . S
C828 C812 1.368 . S
C828 C824 1.369 1_545 S
C828 C827 1.523 . S
H829 C804 0.950 . S
H830 C806 0.950 . S
H831 C807 0.949 . S
H832 C809 0.950 1_565 S
H833 C811 0.950 1_565 S
C834 C835 1.349 . S
C834 C836 1.327 . S
C834 H859 0.950 . S
C835 C834 1.349 . S
C835 C851 1.349 1_455 S
C836 C834 1.327 . S
C836 C855 1.429 . S
C836 H860 0.950 . S
C837 C854 1.574 . S
C837 C856 1.368 1_655 S
C837 H861 0.949 . S
H838 C842 0.949 . S
C839 C840 1.349 1_655 S
C839 C841 1.327 . S
C839 H862 0.950 . S
C840 C839 1.349 1_455 S
C840 C852 1.349 . S
C841 C839 1.327 . S
C841 C857 1.429 1_655 S
C841 H863 0.950 . S
C842 H838 0.949 . S
C842 C850 1.574 . S
C842 C858 1.368 . S
H843 C851 0.950 . S
H844 C849 0.950 . S
H845 C850 0.949 . S
H846 C852 0.950 . S
H847 C853 0.950 . S
H848 C854 0.949 . S
C849 H844 0.950 . S
C849 C851 1.327 . S
C849 C855 1.429 1_655 S
C850 C842 1.574 . S
C850 H845 0.949 . S
C850 C856 1.368 . S
C851 C835 1.349 1_655 S
C851 H843 0.950 . S
C851 C849 1.327 . S
C852 C840 1.349 . S
C852 H846 0.950 . S
C852 C853 1.327 . S
C853 H847 0.950 . S
C853 C852 1.327 . S
C853 C857 1.429 . S
C854 C837 1.574 . S
C854 H848 0.949 . S
C854 C858 1.368 1_655 S
C855 C836 1.429 . S
C855 C849 1.429 1_455 S
C855 C856 1.523 . S
C856 C837 1.368 1_455 S
C856 C850 1.368 . S
C856 C855 1.523 . S
C857 C841 1.429 1_455 S
C857 C853 1.429 . S
C857 C858 1.523 . S
C858 C842 1.368 . S
C858 C854 1.368 1_455 S
C858 C857 1.523 . S
H859 C834 0.950 . S
H860 C836 0.950 . S
H861 C837 0.949 . S
H862 C839 0.950 . S
H863 C841 0.950 . S
C864 C865 1.349 . S
C864 C866 1.327 . S
C864 H889 0.950 . S
C865 C864 1.349 . S
C865 C881 1.349 . S
C866 C864 1.327 . S
C866 C885 1.429 . S
C866 H890 0.950 . S
C867 C884 1.574 . S
C867 C886 1.368 . S
C867 H891 0.949 . S
H868 C872 0.949 . S
C869 C870 1.349 . S
C869 C871 1.327 . S
C869 H892 0.950 . S
C870 C869 1.349 . S
C870 C882 1.349 . S
C871 C869 1.327 . S
C871 C887 1.429 . S
C871 H893 0.950 . S
C872 H868 0.949 . S
C872 C880 1.574 . S
C872 C888 1.368 . S
H873 C881 0.950 . S
H874 C879 0.950 . S
H875 C880 0.949 . S
H876 C882 0.950 . S
H877 C883 0.950 . S
H878 C884 0.949 . S
C879 H874 0.950 . S
C879 C881 1.327 . S
C879 C885 1.429 . S
C880 C872 1.574 . S
C880 H875 0.949 . S
C880 C886 1.368 . S
C881 C865 1.349 . S
C881 H873 0.950 . S
C881 C879 1.327 . S
C882 C870 1.349 . S
C882 H876 0.950 . S
C882 C883 1.327 . S
C883 H877 0.950 . S
C883 C882 1.327 . S
C883 C887 1.429 . S
C884 C867 1.574 . S
C884 H878 0.949 . S
C884 C888 1.368 . S
C885 C866 1.429 . S
C885 C879 1.429 . S
C885 C886 1.523 . S
C886 C867 1.368 . S
C886 C880 1.368 . S
C886 C885 1.523 . S
C887 C871 1.429 . S
C887 C883 1.429 . S
C887 C888 1.523 . S
C888 C872 1.368 . S
C888 C884 1.368 . S
C888 C887 1.523 . S
H889 C864 0.950 . S
H890 C866 0.950 . S
H891 C867 0.949 . S
H892 C869 0.950 . S
H893 C871 0.950 . S
C894 C895 1.349 . S
C894 C896 1.327 . S
C894 H919 0.950 . S
C895 C894 1.349 . S
C895 C911 1.349 . S
C896 C894 1.327 . S
C896 C915 1.429 . S
C896 H920 0.950 . S
C897 C914 1.574 . S
C897 C916 1.368 . S
C897 H921 0.949 . S
H898 C902 0.949 . S
C899 C900 1.349 . S
C899 C901 1.327 . S
C899 H922 0.950 . S
C900 C899 1.349 . S
C900 C912 1.349 . S
C901 C899 1.327 . S
C901 C917 1.429 . S
C901 H923 0.950 . S
C902 H898 0.949 . S
C902 C910 1.574 . S
C902 C918 1.368 . S
H903 C911 0.950 . S
H904 C909 0.950 . S
H905 C910 0.949 . S
H906 C912 0.950 . S
H907 C913 0.950 . S
H908 C914 0.949 . S
C909 H904 0.950 . S
C909 C911 1.327 . S
C909 C915 1.429 . S
C910 C902 1.574 . S
C910 H905 0.949 . S
C910 C916 1.368 . S
C911 C895 1.349 . S
C911 H903 0.950 . S
C911 C909 1.327 . S
C912 C900 1.349 . S
C912 H906 0.950 . S
C912 C913 1.327 . S
C913 H907 0.950 . S
C913 C912 1.327 . S
C913 C917 1.429 . S
C914 C897 1.574 . S
C914 H908 0.949 . S
C914 C918 1.368 . S
C915 C896 1.429 . S
C915 C909 1.429 . S
C915 C916 1.523 . S
C916 C897 1.368 . S
C916 C910 1.368 . S
C916 C915 1.523 . S
C917 C901 1.429 . S
C917 C913 1.429 . S
C917 C918 1.523 . S
C918 C902 1.368 . S
C918 C914 1.368 . S
C918 C917 1.523 . S
H919 C894 0.950 . S
H920 C896 0.950 . S
H921 C897 0.949 . S
H922 C899 0.950 . S
H923 C901 0.950 . S
C924 C925 1.349 . S
C924 C926 1.327 . S
C924 H949 0.950 . S
C925 C924 1.349 . S
C925 C941 1.349 . S
C926 C924 1.327 . S
C926 C945 1.429 . S
C926 H950 0.950 . S
C927 C944 1.574 . S
C927 C946 1.368 . S
C927 H951 0.949 . S
H928 C932 0.949 . S
C929 C930 1.349 . S
C929 C931 1.327 . S
C929 H952 0.950 . S
C930 C929 1.349 . S
C930 C942 1.349 . S
C931 C929 1.327 . S
C931 C947 1.429 . S
C931 H953 0.950 . S
C932 H928 0.949 . S
C932 C940 1.574 . S
C932 C948 1.368 . S
H933 C941 0.950 . S
H934 C939 0.950 . S
H935 C940 0.949 . S
H936 C942 0.950 . S
H937 C943 0.950 . S
H938 C944 0.949 . S
C939 H934 0.950 . S
C939 C941 1.327 . S
C939 C945 1.429 . S
C940 C932 1.574 . S
C940 H935 0.949 . S
C940 C946 1.368 . S
C941 C925 1.349 . S
C941 H933 0.950 . S
C941 C939 1.327 . S
C942 C930 1.349 . S
C942 H936 0.950 . S
C942 C943 1.327 . S
C943 H937 0.950 . S
C943 C942 1.327 . S
C943 C947 1.429 . S
C944 C927 1.574 . S
C944 H938 0.949 . S
C944 C948 1.368 . S
C945 C926 1.429 . S
C945 C939 1.429 . S
C945 C946 1.523 . S
C946 C927 1.368 . S
C946 C940 1.368 . S
C946 C945 1.523 . S
C947 C931 1.429 . S
C947 C943 1.429 . S
C947 C948 1.523 . S
C948 C932 1.368 . S
C948 C944 1.368 . S
C948 C947 1.523 . S
H949 C924 0.950 . S
H950 C926 0.950 . S
H951 C927 0.949 . S
H952 C929 0.950 . S
H953 C931 0.950 . S
C954 C955 1.349 . S
C954 C956 1.327 . S
C954 H979 0.950 . S
C955 C954 1.349 . S
C955 C971 1.349 . S
C956 C954 1.327 . S
C956 C975 1.429 . S
C956 H980 0.950 . S
C957 C974 1.574 . S
C957 C976 1.368 . S
C957 H981 0.949 . S
H958 C962 0.949 . S
C959 C960 1.349 . S
C959 C961 1.327 . S
C959 H982 0.950 . S
C960 C959 1.349 . S
C960 C972 1.349 . S
C961 C959 1.327 . S
C961 C977 1.429 . S
C961 H983 0.950 . S
C962 H958 0.949 . S
C962 C970 1.574 . S
C962 C978 1.368 . S
H963 C971 0.950 . S
H964 C969 0.950 . S
H965 C970 0.949 . S
H966 C972 0.950 . S
H967 C973 0.950 . S
H968 C974 0.949 . S
C969 H964 0.950 . S
C969 C971 1.327 . S
C969 C975 1.429 . S
C970 C962 1.574 . S
C970 H965 0.949 . S
C970 C976 1.368 . S
C971 C955 1.349 . S
C971 H963 0.950 . S
C971 C969 1.327 . S
C972 C960 1.349 . S
C972 H966 0.950 . S
C972 C973 1.327 . S
C973 H967 0.950 . S
C973 C972 1.327 . S
C973 C977 1.429 . S
C974 C957 1.574 . S
C974 H968 0.949 . S
C974 C978 1.368 . S
C975 C956 1.429 . S
C975 C969 1.429 . S
C975 C976 1.523 . S
C976 C957 1.368 . S
C976 C970 1.368 . S
C976 C975 1.523 . S
C977 C961 1.429 . S
C977 C973 1.429 . S
C977 C978 1.523 . S
C978 C962 1.368 . S
C978 C974 1.368 . S
C978 C977 1.523 . S
H979 C954 0.950 . S
H980 C956 0.950 . S
H981 C957 0.949 . S
H982 C959 0.950 . S
H983 C961 0.950 . S
C984 C985 1.349 . S
C984 C986 1.327 . S
C984 H1009 0.950 . S
C985 C984 1.349 . S
C985 C1001 1.349 . S
C986 C984 1.327 . S
C986 C1005 1.429 . S
C986 H1010 0.950 . S
C987 C1004 1.574 . S
C987 C1006 1.368 . S
C987 H1011 0.949 . S
H988 C992 0.949 . S
C989 C990 1.349 . S
C989 C991 1.327 . S
C989 H1012 0.950 . S
C990 C989 1.349 . S
C990 C1002 1.349 . S
C991 C989 1.327 . S
C991 C1007 1.429 . S
C991 H1013 0.950 . S
C992 H988 0.949 . S
C992 C1000 1.574 . S
C992 C1008 1.368 . S
H993 C1001 0.950 . S
H994 C999 0.950 . S
H995 C1000 0.949 . S
H996 C1002 0.950 . S
H997 C1003 0.950 . S
H998 C1004 0.949 . S
C999 H994 0.950 . S
C999 C1001 1.327 . S
C999 C1005 1.429 . S
C1000 C992 1.574 . S
C1000 H995 0.949 . S
C1000 C1006 1.368 . S
C1001 C985 1.349 . S
C1001 H993 0.950 . S
C1001 C999 1.327 . S
C1002 C990 1.349 . S
C1002 H996 0.950 . S
C1002 C1003 1.327 . S
C1003 H997 0.950 . S
C1003 C1002 1.327 . S
C1003 C1007 1.429 . S
C1004 C987 1.574 . S
C1004 H998 0.949 . S
C1004 C1008 1.368 . S
C1005 C986 1.429 . S
C1005 C999 1.429 . S
C1005 C1006 1.523 . S
C1006 C987 1.368 . S
C1006 C1000 1.368 . S
C1006 C1005 1.523 . S
C1007 C991 1.429 . S
C1007 C1003 1.429 . S
C1007 C1008 1.523 . S
C1008 C992 1.368 . S
C1008 C1004 1.368 . S
C1008 C1007 1.523 . S
H1009 C984 0.950 . S
H1010 C986 0.950 . S
H1011 C987 0.949 . S
H1012 C989 0.950 . S
H1013 C991 0.950 . S
C1014 C1015 1.349 . S
C1014 C1016 1.327 . S
C1014 H1039 0.950 . S
C1015 C1014 1.349 . S
C1015 C1031 1.349 . S
C1016 C1014 1.327 . S
C1016 C1035 1.429 . S
C1016 H1040 0.950 . S
C1017 C1034 1.574 . S
C1017 C1036 1.368 . S
C1017 H1041 0.949 . S
H1018 C1022 0.949 . S
C1019 C1020 1.349 . S
C1019 C1021 1.327 . S
C1019 H1042 0.950 . S
C1020 C1019 1.349 . S
C1020 C1032 1.349 . S
C1021 C1019 1.327 . S
C1021 C1037 1.429 . S
C1021 H1043 0.950 . S
C1022 H1018 0.949 . S
C1022 C1030 1.574 . S
C1022 C1038 1.368 . S
H1023 C1031 0.950 . S
H1024 C1029 0.950 . S
H1025 C1030 0.949 . S
H1026 C1032 0.950 . S
H1027 C1033 0.950 . S
H1028 C1034 0.949 . S
C1029 H1024 0.950 . S
C1029 C1031 1.327 . S
C1029 C1035 1.429 . S
C1030 C1022 1.574 . S
C1030 H1025 0.949 . S
C1030 C1036 1.368 . S
C1031 C1015 1.349 . S
C1031 H1023 0.950 . S
C1031 C1029 1.327 . S
C1032 C1020 1.349 . S
C1032 H1026 0.950 . S
C1032 C1033 1.327 . S
C1033 H1027 0.950 . S
C1033 C1032 1.327 . S
C1033 C1037 1.429 . S
C1034 C1017 1.574 . S
C1034 H1028 0.949 . S
C1034 C1038 1.368 . S
C1035 C1016 1.429 . S
C1035 C1029 1.429 . S
C1035 C1036 1.523 . S
C1036 C1017 1.368 . S
C1036 C1030 1.368 . S
C1036 C1035 1.523 . S
C1037 C1021 1.429 . S
C1037 C1033 1.429 . S
C1037 C1038 1.523 . S
C1038 C1022 1.368 . S
C1038 C1034 1.368 . S
C1038 C1037 1.523 . S
H1039 C1014 0.950 . S
H1040 C1016 0.950 . S
H1041 C1017 0.949 . S
H1042 C1019 0.950 . S
H1043 C1021 0.950 . S
C1044 C1045 1.349 . S
C1044 C1046 1.327 . S
C1044 H1069 0.950 . S
C1045 C1044 1.349 . S
C1045 C1061 1.349 . S
C1046 C1044 1.327 . S
C1046 C1065 1.429 . S
C1046 H1070 0.950 . S
C1047 C1064 1.574 . S
C1047 C1066 1.368 . S
C1047 H1071 0.949 . S
H1048 C1052 0.949 . S
C1049 C1050 1.349 . S
C1049 C1051 1.327 . S
C1049 H1072 0.950 . S
C1050 C1049 1.349 . S
C1050 C1062 1.349 . S
C1051 C1049 1.327 . S
C1051 C1067 1.429 . S
C1051 H1073 0.950 . S
C1052 H1048 0.949 . S
C1052 C1060 1.574 . S
C1052 C1068 1.368 . S
H1053 C1061 0.950 . S
H1054 C1059 0.950 . S
H1055 C1060 0.949 . S
H1056 C1062 0.950 . S
H1057 C1063 0.950 . S
H1058 C1064 0.949 . S
C1059 H1054 0.950 . S
C1059 C1061 1.327 . S
C1059 C1065 1.429 . S
C1060 C1052 1.574 . S
C1060 H1055 0.949 . S
C1060 C1066 1.368 . S
C1061 C1045 1.349 . S
C1061 H1053 0.950 . S
C1061 C1059 1.327 . S
C1062 C1050 1.349 . S
C1062 H1056 0.950 . S
C1062 C1063 1.327 . S
C1063 H1057 0.950 . S
C1063 C1062 1.327 . S
C1063 C1067 1.429 . S
C1064 C1047 1.574 . S
C1064 H1058 0.949 . S
C1064 C1068 1.368 . S
C1065 C1046 1.429 . S
C1065 C1059 1.429 . S
C1065 C1066 1.523 . S
C1066 C1047 1.368 . S
C1066 C1060 1.368 . S
C1066 C1065 1.523 . S
C1067 C1051 1.429 . S
C1067 C1063 1.429 . S
C1067 C1068 1.523 . S
C1068 C1052 1.368 . S
C1068 C1064 1.368 . S
C1068 C1067 1.523 . S
H1069 C1044 0.950 . S
H1070 C1046 0.950 . S
H1071 C1047 0.949 . S
H1072 C1049 0.950 . S
H1073 C1051 0.950 . S
C1074 C1075 1.349 . S
C1074 C1076 1.327 . S
C1074 H1099 0.950 . S
C1075 C1074 1.349 . S
C1075 C1091 1.349 . S
C1076 C1074 1.327 . S
C1076 C1095 1.429 . S
C1076 H1100 0.950 . S
C1077 C1094 1.574 . S
C1077 C1096 1.368 . S
C1077 H1101 0.949 . S
H1078 C1082 0.949 . S
C1079 C1080 1.349 . S
C1079 C1081 1.327 . S
C1079 H1102 0.950 . S
C1080 C1079 1.349 . S
C1080 C1092 1.349 . S
C1081 C1079 1.327 . S
C1081 C1097 1.429 . S
C1081 H1103 0.950 . S
C1082 H1078 0.949 . S
C1082 C1090 1.574 . S
C1082 C1098 1.368 . S
H1083 C1091 0.950 . S
H1084 C1089 0.950 . S
H1085 C1090 0.949 . S
H1086 C1092 0.950 . S
H1087 C1093 0.950 . S
H1088 C1094 0.949 . S
C1089 H1084 0.950 . S
C1089 C1091 1.327 . S
C1089 C1095 1.429 . S
C1090 C1082 1.574 . S
C1090 H1085 0.949 . S
C1090 C1096 1.368 . S
C1091 C1075 1.349 . S
C1091 H1083 0.950 . S
C1091 C1089 1.327 . S
C1092 C1080 1.349 . S
C1092 H1086 0.950 . S
C1092 C1093 1.327 . S
C1093 H1087 0.950 . S
C1093 C1092 1.327 . S
C1093 C1097 1.429 . S
C1094 C1077 1.574 . S
C1094 H1088 0.949 . S
C1094 C1098 1.368 . S
C1095 C1076 1.429 . S
C1095 C1089 1.429 . S
C1095 C1096 1.523 . S
C1096 C1077 1.368 . S
C1096 C1090 1.368 . S
C1096 C1095 1.523 . S
C1097 C1081 1.429 . S
C1097 C1093 1.429 . S
C1097 C1098 1.523 . S
C1098 C1082 1.368 . S
C1098 C1094 1.368 . S
C1098 C1097 1.523 . S
H1099 C1074 0.950 . S
H1100 C1076 0.950 . S
H1101 C1077 0.949 . S
H1102 C1079 0.950 . S
H1103 C1081 0.950 . S
C1104 C1105 1.349 . S
C1104 C1106 1.327 . S
C1104 H1129 0.950 . S
C1105 C1104 1.349 . S
C1105 C1121 1.349 . S
C1106 C1104 1.327 . S
C1106 C1125 1.429 . S
C1106 H1130 0.950 . S
C1107 C1124 1.574 . S
C1107 C1126 1.368 . S
C1107 H1131 0.949 . S
H1108 C1112 0.949 . S
C1109 C1110 1.349 . S
C1109 C1111 1.327 . S
C1109 H1132 0.950 . S
C1110 C1109 1.349 . S
C1110 C1122 1.349 . S
C1111 C1109 1.327 . S
C1111 C1127 1.429 . S
C1111 H1133 0.950 . S
C1112 H1108 0.949 . S
C1112 C1120 1.574 . S
C1112 C1128 1.368 . S
H1113 C1121 0.950 . S
H1114 C1119 0.950 . S
H1115 C1120 0.949 . S
H1116 C1122 0.950 . S
H1117 C1123 0.950 . S
H1118 C1124 0.949 . S
C1119 H1114 0.950 . S
C1119 C1121 1.327 . S
C1119 C1125 1.429 . S
C1120 C1112 1.574 . S
C1120 H1115 0.949 . S
C1120 C1126 1.368 . S
C1121 C1105 1.349 . S
C1121 H1113 0.950 . S
C1121 C1119 1.327 . S
C1122 C1110 1.349 . S
C1122 H1116 0.950 . S
C1122 C1123 1.327 . S
C1123 H1117 0.950 . S
C1123 C1122 1.327 . S
C1123 C1127 1.429 . S
C1124 C1107 1.574 . S
C1124 H1118 0.949 . S
C1124 C1128 1.368 . S
C1125 C1106 1.429 . S
C1125 C1119 1.429 . S
C1125 C1126 1.523 . S
C1126 C1107 1.368 . S
C1126 C1120 1.368 . S
C1126 C1125 1.523 . S
C1127 C1111 1.429 . S
C1127 C1123 1.429 . S
C1127 C1128 1.523 . S
C1128 C1112 1.368 . S
C1128 C1124 1.368 . S
C1128 C1127 1.523 . S
H1129 C1104 0.950 . S
H1130 C1106 0.950 . S
H1131 C1107 0.949 . S
H1132 C1109 0.950 . S
H1133 C1111 0.950 . S
C1134 C1135 1.349 . S
C1134 C1136 1.327 . S
C1134 H1159 0.950 . S
C1135 C1134 1.349 . S
C1135 C1151 1.349 . S
C1136 C1134 1.327 . S
C1136 C1155 1.429 . S
C1136 H1160 0.950 . S
C1137 C1154 1.574 . S
C1137 C1156 1.368 . S
C1137 H1161 0.949 . S
H1138 C1142 0.949 . S
C1139 C1140 1.336 1_556 S
C1139 C1141 1.287 1_556 S
C1139 H1162 1.006 . S
C1140 C1139 1.336 1_554 S
C1140 C1152 1.349 . S
C1141 C1139 1.287 1_554 S
C1141 C1157 1.429 . S
C1141 H1163 0.950 . S
C1142 H1138 0.949 . S
C1142 C1150 1.574 . S
C1142 C1158 1.368 . S
H1143 C1151 0.950 . S
H1144 C1149 0.950 . S
H1145 C1150 0.949 . S
H1146 C1152 0.950 . S
H1147 C1153 0.950 . S
H1148 C1154 0.949 . S
C1149 H1144 0.950 . S
C1149 C1151 1.327 . S
C1149 C1155 1.429 . S
C1150 C1142 1.574 . S
C1150 H1145 0.949 . S
C1150 C1156 1.368 . S
C1151 C1135 1.349 . S
C1151 H1143 0.950 . S
C1151 C1149 1.327 . S
C1152 C1140 1.349 . S
C1152 H1146 0.950 . S
C1152 C1153 1.327 . S
C1153 H1147 0.950 . S
C1153 C1152 1.327 . S
C1153 C1157 1.429 . S
C1154 C1137 1.574 . S
C1154 H1148 0.949 . S
C1154 C1158 1.368 . S
C1155 C1136 1.429 . S
C1155 C1149 1.429 . S
C1155 C1156 1.523 . S
C1156 C1137 1.368 . S
C1156 C1150 1.368 . S
C1156 C1155 1.523 . S
C1157 C1141 1.429 . S
C1157 C1153 1.429 . S
C1157 C1158 1.523 . S
C1158 C1142 1.368 . S
C1158 C1154 1.368 . S
C1158 C1157 1.523 . S
H1159 C1134 0.950 . S
H1160 C1136 0.950 . S
H1161 C1137 0.949 . S
H1162 C1139 1.006 . S
H1163 C1141 0.950 . S
C1164 C1165 1.349 . S
C1164 C1166 1.327 . S
C1164 H1189 0.950 . S
C1165 C1164 1.349 . S
C1165 C1181 1.349 . S
C1166 C1164 1.327 . S
C1166 C1185 1.429 . S
C1166 H1190 0.950 . S
C1167 C1184 1.574 . S
C1167 C1186 1.368 . S
C1167 H1191 0.949 . S
H1168 C1172 0.949 . S
C1169 C1170 1.349 . S
C1169 C1171 1.327 . S
C1169 H1192 0.950 . S
C1170 C1169 1.349 . S
C1170 C1182 1.348 . S
C1171 C1169 1.327 . S
C1171 C1187 1.429 . S
C1171 H1193 0.950 . S
C1172 H1168 0.949 . S
C1172 C1180 1.574 . S
C1172 C1188 1.368 . S
H1173 C1181 0.950 . S
H1174 C1179 0.950 . S
H1175 C1180 0.949 . S
H1176 C1182 0.957 1_556 S
H1177 C1183 0.950 . S
H1178 C1184 0.949 . S
C1179 H1174 0.950 . S
C1179 C1181 1.327 . S
C1179 C1185 1.429 . S
C1180 C1172 1.574 . S
C1180 H1175 0.949 . S
C1180 C1186 1.368 . S
C1181 C1165 1.349 . S
C1181 H1173 0.950 . S
C1181 C1179 1.327 . S
C1182 C1170 1.348 . S
C1182 H1176 0.957 1_554 S
C1182 C1183 1.321 . S
C1183 H1177 0.950 . S
C1183 C1182 1.321 . S
C1183 C1187 1.429 . S
C1184 C1167 1.574 . S
C1184 H1178 0.949 . S
C1184 C1188 1.368 . S
C1185 C1166 1.429 . S
C1185 C1179 1.429 . S
C1185 C1186 1.523 . S
C1186 C1167 1.368 . S
C1186 C1180 1.368 . S
C1186 C1185 1.523 . S
C1187 C1171 1.429 . S
C1187 C1183 1.429 . S
C1187 C1188 1.523 . S
C1188 C1172 1.368 . S
C1188 C1184 1.368 . S
C1188 C1187 1.523 . S
H1189 C1164 0.950 . S
H1190 C1166 0.950 . S
H1191 C1167 0.949 . S
H1192 C1169 0.950 . S
H1193 C1171 0.950 . S
C1194 C1195 1.349 . S
C1194 C1196 1.327 . S
C1194 H1219 0.950 . S
C1195 C1194 1.349 . S
C1195 C1211 1.349 . S
C1196 C1194 1.327 . S
C1196 C1215 1.429 . S
C1196 H1220 0.950 . S
C1197 C1214 1.574 . S
C1197 C1216 1.368 . S
C1197 H1221 0.949 . S
H1198 C1202 0.949 . S
C1199 C1200 1.349 . S
C1199 C1201 1.327 . S
C1199 H1222 0.950 . S
C1200 C1199 1.349 . S
C1200 C1212 1.349 1_554 S
C1201 C1199 1.327 . S
C1201 C1217 1.429 . S
C1201 H1223 0.950 . S
C1202 H1198 0.949 . S
C1202 C1210 1.574 . S
C1202 C1218 1.368 . S
H1203 C1211 0.950 . S
H1204 C1209 0.950 . S
H1205 C1210 0.949 . S
H1206 C1212 0.950 . S
H1207 C1213 0.950 . S
H1208 C1214 0.949 . S
C1209 H1204 0.950 . S
C1209 C1211 1.327 . S
C1209 C1215 1.429 . S
C1210 C1202 1.574 . S
C1210 H1205 0.949 . S
C1210 C1216 1.368 . S
C1211 C1195 1.349 . S
C1211 H1203 0.950 . S
C1211 C1209 1.327 . S
C1212 C1200 1.349 1_556 S
C1212 H1206 0.950 . S
C1212 C1213 1.327 1_556 S
C1213 H1207 0.950 . S
C1213 C1212 1.327 1_554 S
C1213 C1217 1.429 . S
C1214 C1197 1.574 . S
C1214 H1208 0.949 . S
C1214 C1218 1.368 . S
C1215 C1196 1.429 . S
C1215 C1209 1.429 . S
C1215 C1216 1.523 . S
C1216 C1197 1.368 . S
C1216 C1210 1.368 . S
C1216 C1215 1.523 . S
C1217 C1201 1.429 . S
C1217 C1213 1.429 . S
C1217 C1218 1.523 . S
C1218 C1202 1.368 . S
C1218 C1214 1.368 . S
C1218 C1217 1.523 . S
H1219 C1194 0.950 . S
H1220 C1196 0.950 . S
H1221 C1197 0.949 . S
H1222 C1199 0.950 . S
H1223 C1201 0.950 . S
C1224 C1225 1.349 . S
C1224 C1226 1.327 . S
C1224 H1249 0.950 . S
C1225 C1224 1.349 . S
C1225 C1241 1.349 . S
C1226 C1224 1.327 . S
C1226 C1245 1.429 . S
C1226 H1250 0.950 . S
C1227 C1244 1.574 . S
C1227 C1246 1.368 . S
C1227 H1251 0.949 . S
H1228 C1232 0.949 . S
C1229 C1230 1.349 . S
C1229 C1231 1.327 . S
C1229 H1252 0.950 . S
C1230 C1229 1.349 . S
C1230 C1242 1.349 . S
C1231 C1229 1.327 . S
C1231 C1247 1.429 . S
C1231 H1253 0.950 . S
C1232 H1228 0.949 . S
C1232 C1240 1.574 . S
C1232 C1248 1.368 . S
H1233 C1241 0.950 . S
H1234 C1239 0.950 . S
H1235 C1240 0.949 . S
H1236 C1242 0.950 . S
H1237 C1243 0.950 . S
H1238 C1244 0.949 . S
C1239 H1234 0.950 . S
C1239 C1241 1.327 . S
C1239 C1245 1.429 . S
C1240 C1232 1.574 . S
C1240 H1235 0.949 . S
C1240 C1246 1.368 . S
C1241 C1225 1.349 . S
C1241 H1233 0.950 . S
C1241 C1239 1.327 . S
C1242 C1230 1.349 . S
C1242 H1236 0.950 . S
C1242 C1243 1.327 . S
C1243 H1237 0.950 . S
C1243 C1242 1.327 . S
C1243 C1247 1.429 . S
C1244 C1227 1.574 . S
C1244 H1238 0.949 . S
C1244 C1248 1.368 . S
C1245 C1226 1.429 . S
C1245 C1239 1.429 . S
C1245 C1246 1.523 . S
C1246 C1227 1.368 . S
C1246 C1240 1.368 . S
C1246 C1245 1.523 . S
C1247 C1231 1.429 . S
C1247 C1243 1.429 . S
C1247 C1248 1.523 . S
C1248 C1232 1.368 . S
C1248 C1244 1.368 . S
C1248 C1247 1.523 . S
H1249 C1224 0.950 . S
H1250 C1226 0.950 . S
H1251 C1227 0.949 . S
H1252 C1229 0.950 . S
H1253 C1231 0.950 . S
C1254 C1255 1.349 . S
C1254 C1256 1.327 . S
C1254 H1279 0.950 . S
C1255 C1254 1.349 . S
C1255 C1271 1.349 . S
C1256 C1254 1.327 . S
C1256 C1275 1.429 . S
C1256 H1280 0.950 . S
C1257 C1274 1.574 . S
C1257 C1276 1.368 . S
C1257 H1281 0.949 . S
H1258 C1262 0.949 . S
C1259 C1260 1.349 . S
C1259 C1261 1.327 . S
C1259 H1282 0.950 . S
C1260 C1259 1.349 . S
C1260 C1272 1.349 . S
C1261 C1259 1.327 . S
C1261 C1277 1.429 . S
C1261 H1283 0.950 . S
C1262 H1258 0.949 . S
C1262 C1270 1.574 . S
C1262 C1278 1.368 . S
H1263 C1271 0.950 . S
H1264 C1269 0.950 . S
H1265 C1270 0.949 . S
H1266 C1272 0.950 . S
H1267 C1273 0.950 . S
H1268 C1274 0.949 . S
C1269 H1264 0.950 . S
C1269 C1271 1.327 . S
C1269 C1275 1.429 . S
C1270 C1262 1.574 . S
C1270 H1265 0.949 . S
C1270 C1276 1.368 . S
C1271 C1255 1.349 . S
C1271 H1263 0.950 . S
C1271 C1269 1.327 . S
C1272 C1260 1.349 . S
C1272 H1266 0.950 . S
C1272 C1273 1.327 . S
C1273 H1267 0.950 . S
C1273 C1272 1.327 . S
C1273 C1277 1.429 . S
C1274 C1257 1.574 . S
C1274 H1268 0.949 . S
C1274 C1278 1.368 . S
C1275 C1256 1.429 . S
C1275 C1269 1.429 . S
C1275 C1276 1.523 . S
C1276 C1257 1.368 . S
C1276 C1270 1.368 . S
C1276 C1275 1.523 . S
C1277 C1261 1.429 . S
C1277 C1273 1.429 . S
C1277 C1278 1.523 . S
C1278 C1262 1.368 . S
C1278 C1274 1.368 . S
C1278 C1277 1.523 . S
H1279 C1254 0.950 . S
H1280 C1256 0.950 . S
H1281 C1257 0.949 . S
H1282 C1259 0.950 . S
H1283 C1261 0.950 . S
C1284 C1285 1.349 . S
C1284 C1286 1.327 . S
C1284 H1309 0.950 . S
C1285 C1284 1.349 . S
C1285 C1301 1.349 . S
C1286 C1284 1.327 . S
C1286 C1305 1.429 . S
C1286 H1310 0.950 . S
C1287 C1304 1.574 . S
C1287 C1306 1.368 . S
C1287 H1311 0.949 . S
H1288 C1292 0.949 . S
C1289 C1290 1.349 . S
C1289 C1291 1.327 . S
C1289 H1312 0.950 . S
C1290 C1289 1.349 . S
C1290 C1302 1.349 . S
C1291 C1289 1.327 . S
C1291 C1307 1.429 . S
C1291 H1313 0.950 . S
C1292 H1288 0.949 . S
C1292 C1300 1.574 . S
C1292 C1308 1.368 . S
H1293 C1301 0.950 . S
H1294 C1299 0.950 . S
H1295 C1300 0.949 . S
H1296 C1302 0.950 . S
H1297 C1303 0.950 . S
H1298 C1304 0.949 . S
C1299 H1294 0.950 . S
C1299 C1301 1.327 . S
C1299 C1305 1.429 . S
C1300 C1292 1.574 . S
C1300 H1295 0.949 . S
C1300 C1306 1.368 . S
C1301 C1285 1.349 . S
C1301 H1293 0.950 . S
C1301 C1299 1.327 . S
C1302 C1290 1.349 . S
C1302 H1296 0.950 . S
C1302 C1303 1.327 . S
C1303 H1297 0.950 . S
C1303 C1302 1.327 . S
C1303 C1307 1.429 . S
C1304 C1287 1.574 . S
C1304 H1298 0.949 . S
C1304 C1308 1.368 . S
C1305 C1286 1.429 . S
C1305 C1299 1.429 . S
C1305 C1306 1.523 . S
C1306 C1287 1.368 . S
C1306 C1300 1.368 . S
C1306 C1305 1.523 . S
C1307 C1291 1.429 . S
C1307 C1303 1.429 . S
C1307 C1308 1.523 . S
C1308 C1292 1.368 . S
C1308 C1304 1.368 . S
C1308 C1307 1.523 . S
H1309 C1284 0.950 . S
H1310 C1286 0.950 . S
H1311 C1287 0.949 . S
H1312 C1289 0.950 . S
H1313 C1291 0.950 . S
C1314 C1315 1.349 . S
C1314 C1316 1.327 . S
C1314 H1339 0.950 . S
C1315 C1314 1.349 . S
C1315 C1331 1.349 . S
C1316 C1314 1.327 . S
C1316 C1335 1.429 . S
C1316 H1340 0.950 . S
C1317 C1334 1.574 . S
C1317 C1336 1.368 . S
C1317 H1341 0.949 . S
H1318 C1322 0.949 . S
C1319 C1320 1.349 . S
C1319 C1321 1.327 . S
C1319 H1342 0.950 . S
C1320 C1319 1.349 . S
C1320 C1332 1.349 . S
C1321 C1319 1.327 . S
C1321 C1337 1.429 . S
C1321 H1343 0.950 . S
C1322 H1318 0.949 . S
C1322 C1330 1.574 . S
C1322 C1338 1.368 . S
H1323 C1331 0.950 . S
H1324 C1329 0.950 . S
H1325 C1330 0.949 . S
H1326 C1332 0.950 . S
H1327 C1333 0.950 . S
H1328 C1334 0.949 . S
C1329 H1324 0.950 . S
C1329 C1331 1.327 . S
C1329 C1335 1.429 . S
C1330 C1322 1.574 . S
C1330 H1325 0.949 . S
C1330 C1336 1.368 . S
C1331 C1315 1.349 . S
C1331 H1323 0.950 . S
C1331 C1329 1.327 . S
C1332 C1320 1.349 . S
C1332 H1326 0.950 . S
C1332 C1333 1.327 . S
C1333 H1327 0.950 . S
C1333 C1332 1.327 . S
C1333 C1337 1.429 . S
C1334 C1317 1.574 . S
C1334 H1328 0.949 . S
C1334 C1338 1.368 . S
C1335 C1316 1.429 . S
C1335 C1329 1.429 . S
C1335 C1336 1.523 . S
C1336 C1317 1.368 . S
C1336 C1330 1.368 . S
C1336 C1335 1.523 . S
C1337 C1321 1.429 . S
C1337 C1333 1.429 . S
C1337 C1338 1.523 . S
C1338 C1322 1.368 . S
C1338 C1334 1.368 . S
C1338 C1337 1.523 . S
H1339 C1314 0.950 . S
H1340 C1316 0.950 . S
H1341 C1317 0.949 . S
H1342 C1319 0.950 . S
H1343 C1321 0.950 . S
C1344 C1345 1.349 . S
C1344 C1346 1.327 . S
C1344 H1369 0.950 . S
C1345 C1344 1.349 . S
C1345 C1361 1.349 . S
C1346 C1344 1.327 . S
C1346 C1365 1.429 . S
C1346 H1370 0.950 . S
C1347 C1364 1.574 . S
C1347 C1366 1.368 . S
C1347 H1371 0.949 . S
H1348 C1352 0.949 . S
C1349 C1350 1.349 . S
C1349 C1351 1.327 . S
C1349 H1372 0.950 . S
C1350 C1349 1.349 . S
C1350 C1362 1.349 . S
C1351 C1349 1.327 . S
C1351 C1367 1.429 . S
C1351 H1373 0.950 . S
C1352 H1348 0.949 . S
C1352 C1360 1.574 . S
C1352 C1368 1.368 . S
H1353 C1361 0.950 . S
H1354 C1359 0.950 . S
H1355 C1360 0.949 . S
H1356 C1362 0.901 1_554 S
H1357 C1363 0.950 . S
H1358 C1364 0.949 . S
C1359 H1354 0.950 . S
C1359 C1361 1.327 . S
C1359 C1365 1.429 . S
C1360 C1352 1.574 . S
C1360 H1355 0.949 . S
C1360 C1366 1.368 . S
C1361 C1345 1.349 . S
C1361 H1353 0.950 . S
C1361 C1359 1.327 . S
C1362 C1350 1.349 . S
C1362 H1356 0.901 1_556 S
C1362 C1363 1.327 . S
C1363 H1357 0.950 . S
C1363 C1362 1.327 . S
C1363 C1367 1.429 . S
C1364 C1347 1.574 . S
C1364 H1358 0.949 . S
C1364 C1368 1.368 . S
C1365 C1346 1.429 . S
C1365 C1359 1.429 . S
C1365 C1366 1.523 . S
C1366 C1347 1.368 . S
C1366 C1360 1.368 . S
C1366 C1365 1.523 . S
C1367 C1351 1.429 . S
C1367 C1363 1.429 . S
C1367 C1368 1.523 . S
C1368 C1352 1.368 . S
C1368 C1364 1.368 . S
C1368 C1367 1.523 . S
H1369 C1344 0.950 . S
H1370 C1346 0.950 . S
H1371 C1347 0.949 . S
H1372 C1349 0.950 . S
H1373 C1351 0.950 . S
C1374 C1375 1.349 . S
C1374 C1376 1.327 . S
C1374 H1399 0.950 . S
C1375 C1374 1.349 . S
C1375 C1391 1.349 . S
C1376 C1374 1.327 . S
C1376 C1395 1.429 . S
C1376 H1400 0.950 . S
C1377 C1394 1.574 . S
C1377 C1396 1.368 . S
C1377 H1401 0.949 . S
H1378 C1382 0.949 . S
C1379 C1380 1.349 . S
C1379 C1381 1.327 . S
C1379 H1402 0.950 . S
C1380 C1379 1.349 . S
C1380 C1392 1.349 . S
C1381 C1379 1.327 . S
C1381 C1397 1.429 . S
C1381 H1403 0.950 . S
C1382 H1378 0.949 . S
C1382 C1390 1.574 . S
C1382 C1398 1.368 . S
H1383 C1391 0.950 . S
H1384 C1389 0.950 . S
H1385 C1390 0.949 . S
H1386 C1392 0.950 . S
H1387 C1393 0.950 . S
H1388 C1394 0.949 . S
C1389 H1384 0.950 . S
C1389 C1391 1.327 . S
C1389 C1395 1.429 . S
C1390 C1382 1.574 . S
C1390 H1385 0.949 . S
C1390 C1396 1.368 . S
C1391 C1375 1.349 . S
C1391 H1383 0.950 . S
C1391 C1389 1.327 . S
C1392 C1380 1.349 . S
C1392 H1386 0.950 . S
C1392 C1393 1.327 . S
C1393 H1387 0.950 . S
C1393 C1392 1.327 . S
C1393 C1397 1.429 . S
C1394 C1377 1.574 . S
C1394 H1388 0.949 . S
C1394 C1398 1.368 . S
C1395 C1376 1.429 . S
C1395 C1389 1.429 . S
C1395 C1396 1.523 . S
C1396 C1377 1.368 . S
C1396 C1390 1.368 . S
C1396 C1395 1.523 . S
C1397 C1381 1.429 . S
C1397 C1393 1.429 . S
C1397 C1398 1.523 . S
C1398 C1382 1.368 . S
C1398 C1394 1.368 . S
C1398 C1397 1.523 . S
H1399 C1374 0.950 . S
H1400 C1376 0.950 . S
H1401 C1377 0.949 . S
H1402 C1379 0.950 . S
H1403 C1381 0.950 . S
C1404 C1405 1.349 . S
C1404 C1406 1.327 . S
C1404 H1429 0.950 . S
C1405 C1404 1.349 . S
C1405 C1421 1.349 . S
C1406 C1404 1.327 . S
C1406 C1425 1.429 . S
C1406 H1430 0.950 . S
C1407 C1424 1.574 . S
C1407 C1426 1.368 . S
C1407 H1431 0.949 . S
H1408 C1412 0.949 . S
C1409 C1410 1.349 . S
C1409 C1411 1.327 . S
C1409 H1432 0.950 . S
C1410 C1409 1.349 . S
C1410 C1422 1.349 . S
C1411 C1409 1.327 . S
C1411 C1427 1.429 . S
C1411 H1433 0.950 . S
C1412 H1408 0.949 . S
C1412 C1420 1.574 . S
C1412 C1428 1.368 . S
H1413 C1421 0.950 . S
H1414 C1419 0.950 . S
H1415 C1420 0.949 . S
H1416 C1422 0.950 . S
H1417 C1423 0.950 . S
H1418 C1424 0.949 . S
C1419 H1414 0.950 . S
C1419 C1421 1.327 . S
C1419 C1425 1.429 . S
C1420 C1412 1.574 . S
C1420 H1415 0.949 . S
C1420 C1426 1.368 . S
C1421 C1405 1.349 . S
C1421 H1413 0.950 . S
C1421 C1419 1.327 . S
C1422 C1410 1.349 . S
C1422 H1416 0.950 . S
C1422 C1423 1.327 . S
C1423 H1417 0.950 . S
C1423 C1422 1.327 . S
C1423 C1427 1.429 . S
C1424 C1407 1.574 . S
C1424 H1418 0.949 . S
C1424 C1428 1.368 . S
C1425 C1406 1.429 . S
C1425 C1419 1.429 . S
C1425 C1426 1.523 . S
C1426 C1407 1.368 . S
C1426 C1420 1.368 . S
C1426 C1425 1.523 . S
C1427 C1411 1.429 . S
C1427 C1423 1.429 . S
C1427 C1428 1.523 . S
C1428 C1412 1.368 . S
C1428 C1424 1.368 . S
C1428 C1427 1.523 . S
H1429 C1404 0.950 . S
H1430 C1406 0.950 . S
H1431 C1407 0.949 . S
H1432 C1409 0.950 . S
H1433 C1411 0.950 . S
C1434 C1435 1.349 . S
C1434 C1436 1.327 . S
C1434 H1459 0.950 . S
C1435 C1434 1.349 . S
C1435 C1451 1.349 . S
C1436 C1434 1.327 . S
C1436 C1455 1.429 . S
C1436 H1460 0.950 . S
C1437 C1454 1.574 . S
C1437 C1456 1.368 . S
C1437 H1461 0.949 . S
H1438 C1442 0.949 . S
C1439 C1440 1.349 . S
C1439 C1441 1.327 . S
C1439 H1462 0.950 . S
C1440 C1439 1.349 . S
C1440 C1452 1.349 . S
C1441 C1439 1.327 . S
C1441 C1457 1.429 . S
C1441 H1463 0.950 . S
C1442 H1438 0.949 . S
C1442 C1450 1.574 . S
C1442 C1458 1.368 . S
H1443 C1451 0.950 . S
H1444 C1449 0.950 . S
H1445 C1450 0.949 . S
H1446 C1452 0.950 . S
H1447 C1453 0.950 . S
H1448 C1454 0.949 . S
C1449 H1444 0.950 . S
C1449 C1451 1.327 . S
C1449 C1455 1.429 . S
C1450 C1442 1.574 . S
C1450 H1445 0.949 . S
C1450 C1456 1.368 . S
C1451 C1435 1.349 . S
C1451 H1443 0.950 . S
C1451 C1449 1.327 . S
C1452 C1440 1.349 . S
C1452 H1446 0.950 . S
C1452 C1453 1.327 . S
C1453 H1447 0.950 . S
C1453 C1452 1.327 . S
C1453 C1457 1.429 . S
C1454 C1437 1.574 . S
C1454 H1448 0.949 . S
C1454 C1458 1.368 . S
C1455 C1436 1.429 . S
C1455 C1449 1.429 . S
C1455 C1456 1.523 . S
C1456 C1437 1.368 . S
C1456 C1450 1.368 . S
C1456 C1455 1.523 . S
C1457 C1441 1.429 . S
C1457 C1453 1.429 . S
C1457 C1458 1.523 . S
C1458 C1442 1.368 . S
C1458 C1454 1.368 . S
C1458 C1457 1.523 . S
H1459 C1434 0.950 . S
H1460 C1436 0.950 . S
H1461 C1437 0.949 . S
H1462 C1439 0.950 . S
H1463 C1441 0.950 . S
C1464 C1465 1.349 . S
C1464 C1466 1.327 . S
C1464 H1489 0.950 . S
C1465 C1464 1.349 . S
C1465 C1481 1.349 . S
C1466 C1464 1.327 . S
C1466 C1485 1.429 . S
C1466 H1490 0.950 . S
C1467 C1484 1.574 . S
C1467 C1486 1.368 . S
C1467 H1491 0.949 . S
H1468 C1472 0.949 . S
C1469 C1470 1.349 . S
C1469 C1471 1.327 . S
C1469 H1492 0.950 . S
C1470 C1469 1.349 . S
C1470 C1482 1.349 . S
C1471 C1469 1.327 . S
C1471 C1487 1.429 . S
C1471 H1493 0.950 . S
C1472 H1468 0.949 . S
C1472 C1480 1.574 . S
C1472 C1488 1.368 . S
H1473 C1481 0.950 . S
H1474 C1479 0.950 . S
H1475 C1480 0.949 . S
H1476 C1482 0.950 . S
H1477 C1483 0.950 . S
H1478 C1484 0.949 . S
C1479 H1474 0.950 . S
C1479 C1481 1.327 . S
C1479 C1485 1.429 . S
C1480 C1472 1.574 . S
C1480 H1475 0.949 . S
C1480 C1486 1.368 . S
C1481 C1465 1.349 . S
C1481 H1473 0.950 . S
C1481 C1479 1.327 . S
C1482 C1470 1.349 . S
C1482 H1476 0.950 . S
C1482 C1483 1.327 . S
C1483 H1477 0.950 . S
C1483 C1482 1.327 . S
C1483 C1487 1.429 . S
C1484 C1467 1.574 . S
C1484 H1478 0.949 . S
C1484 C1488 1.368 . S
C1485 C1466 1.429 . S
C1485 C1479 1.429 . S
C1485 C1486 1.523 . S
C1486 C1467 1.368 . S
C1486 C1480 1.368 . S
C1486 C1485 1.523 . S
C1487 C1471 1.429 . S
C1487 C1483 1.429 . S
C1487 C1488 1.523 . S
C1488 C1472 1.368 . S
C1488 C1484 1.368 . S
C1488 C1487 1.523 . S
H1489 C1464 0.950 . S
H1490 C1466 0.950 . S
H1491 C1467 0.949 . S
H1492 C1469 0.950 . S
H1493 C1471 0.950 . S
C1494 C1495 1.349 . S
C1494 C1496 1.327 . S
C1494 H1519 0.950 . S
C1495 C1494 1.349 . S
C1495 C1511 1.349 . S
C1496 C1494 1.327 . S
C1496 C1515 1.429 . S
C1496 H1520 0.950 . S
C1497 C1514 1.574 . S
C1497 C1516 1.368 . S
C1497 H1521 0.949 . S
H1498 C1502 0.949 . S
C1499 C1500 1.349 . S
C1499 C1501 1.327 . S
C1499 H1522 0.950 . S
C1500 C1499 1.349 . S
C1500 C1512 1.349 . S
C1501 C1499 1.327 . S
C1501 C1517 1.429 . S
C1501 H1523 0.950 . S
C1502 H1498 0.949 . S
C1502 C1510 1.574 . S
C1502 C1518 1.368 . S
H1503 C1511 0.950 . S
H1504 C1509 0.950 . S
H1505 C1510 0.949 . S
H1506 C1512 0.950 . S
H1507 C1513 0.950 . S
H1508 C1514 0.949 . S
C1509 H1504 0.950 . S
C1509 C1511 1.327 . S
C1509 C1515 1.429 . S
C1510 C1502 1.574 . S
C1510 H1505 0.949 . S
C1510 C1516 1.368 . S
C1511 C1495 1.349 . S
C1511 H1503 0.950 . S
C1511 C1509 1.327 . S
C1512 C1500 1.349 . S
C1512 H1506 0.950 . S
C1512 C1513 1.327 . S
C1513 H1507 0.950 . S
C1513 C1512 1.327 . S
C1513 C1517 1.429 . S
C1514 C1497 1.574 . S
C1514 H1508 0.949 . S
C1514 C1518 1.368 . S
C1515 C1496 1.429 . S
C1515 C1509 1.429 . S
C1515 C1516 1.523 . S
C1516 C1497 1.368 . S
C1516 C1510 1.368 . S
C1516 C1515 1.523 . S
C1517 C1501 1.429 . S
C1517 C1513 1.429 . S
C1517 C1518 1.523 . S
C1518 C1502 1.368 . S
C1518 C1514 1.368 . S
C1518 C1517 1.523 . S
H1519 C1494 0.950 . S
H1520 C1496 0.950 . S
H1521 C1497 0.949 . S
H1522 C1499 0.950 . S
H1523 C1501 0.950 . S
C1524 C1525 1.349 . S
C1524 C1526 1.327 . S
C1524 H1549 0.950 . S
C1525 C1524 1.349 . S
C1525 C1541 1.349 . S
C1526 C1524 1.327 . S
C1526 C1545 1.429 . S
C1526 H1550 0.950 . S
C1527 C1544 1.574 . S
C1527 C1546 1.368 . S
C1527 H1551 0.949 . S
H1528 C1532 0.949 . S
C1529 C1530 1.349 . S
C1529 C1531 1.327 . S
C1529 H1552 0.950 . S
C1530 C1529 1.349 . S
C1530 C1542 1.349 . S
C1531 C1529 1.327 . S
C1531 C1547 1.429 . S
C1531 H1553 0.950 . S
C1532 H1528 0.949 . S
C1532 C1540 1.574 . S
C1532 C1548 1.368 . S
H1533 C1541 0.950 . S
H1534 C1539 0.950 . S
H1535 C1540 0.949 . S
H1536 C1542 0.950 . S
H1537 C1543 0.950 . S
H1538 C1544 0.949 . S
C1539 H1534 0.950 . S
C1539 C1541 1.327 . S
C1539 C1545 1.429 . S
C1540 C1532 1.574 . S
C1540 H1535 0.949 . S
C1540 C1546 1.368 . S
C1541 C1525 1.349 . S
C1541 H1533 0.950 . S
C1541 C1539 1.327 . S
C1542 C1530 1.349 . S
C1542 H1536 0.950 . S
C1542 C1543 1.327 . S
C1543 H1537 0.950 . S
C1543 C1542 1.327 . S
C1543 C1547 1.429 . S
C1544 C1527 1.574 . S
C1544 H1538 0.949 . S
C1544 C1548 1.368 . S
C1545 C1526 1.429 . S
C1545 C1539 1.429 . S
C1545 C1546 1.523 . S
C1546 C1527 1.368 . S
C1546 C1540 1.368 . S
C1546 C1545 1.523 . S
C1547 C1531 1.429 . S
C1547 C1543 1.429 . S
C1547 C1548 1.523 . S
C1548 C1532 1.368 . S
C1548 C1544 1.368 . S
C1548 C1547 1.523 . S
H1549 C1524 0.950 . S
H1550 C1526 0.950 . S
H1551 C1527 0.949 . S
H1552 C1529 0.950 . S
H1553 C1531 0.950 . S
C1554 C1555 1.349 . S
C1554 C1556 1.327 . S
C1554 H1579 0.950 . S
C1555 C1554 1.349 . S
C1555 C1571 1.349 . S
C1556 C1554 1.327 . S
C1556 C1575 1.429 . S
C1556 H1580 0.950 . S
C1557 C1574 1.574 . S
C1557 C1576 1.368 . S
C1557 H1581 0.949 . S
H1558 C1562 0.949 . S
C1559 C1560 1.349 . S
C1559 C1561 1.327 . S
C1559 H1582 0.950 . S
C1560 C1559 1.349 . S
C1560 C1572 1.349 . S
C1561 C1559 1.327 . S
C1561 C1577 1.429 . S
C1561 H1583 0.950 . S
C1562 H1558 0.949 . S
C1562 C1570 1.574 . S
C1562 C1578 1.368 . S
H1563 C1571 0.950 . S
H1564 C1569 0.950 . S
H1565 C1570 0.949 . S
H1566 C1572 0.950 . S
H1567 C1573 0.950 . S
H1568 C1574 0.949 . S
C1569 H1564 0.950 . S
C1569 C1571 1.327 . S
C1569 C1575 1.429 . S
C1570 C1562 1.574 . S
C1570 H1565 0.949 . S
C1570 C1576 1.368 . S
C1571 C1555 1.349 . S
C1571 H1563 0.950 . S
C1571 C1569 1.327 . S
C1572 C1560 1.349 . S
C1572 H1566 0.950 . S
C1572 C1573 1.327 . S
C1573 H1567 0.950 . S
C1573 C1572 1.327 . S
C1573 C1577 1.429 . S
C1574 C1557 1.574 . S
C1574 H1568 0.949 . S
C1574 C1578 1.368 . S
C1575 C1556 1.429 . S
C1575 C1569 1.429 . S
C1575 C1576 1.523 . S
C1576 C1557 1.368 . S
C1576 C1570 1.368 . S
C1576 C1575 1.523 . S
C1577 C1561 1.429 . S
C1577 C1573 1.429 . S
C1577 C1578 1.523 . S
C1578 C1562 1.368 . S
C1578 C1574 1.368 . S
C1578 C1577 1.523 . S
H1579 C1554 0.950 . S
H1580 C1556 0.950 . S
H1581 C1557 0.949 . S
H1582 C1559 0.950 . S
H1583 C1561 0.950 . S
C1584 C1585 1.349 . S
C1584 C1586 1.327 . S
C1584 H1609 0.950 . S
C1585 C1584 1.349 . S
C1585 C1601 1.349 . S
C1586 C1584 1.327 . S
C1586 C1605 1.429 . S
C1586 H1610 0.950 . S
C1587 C1604 1.574 . S
C1587 C1606 1.368 . S
C1587 H1611 0.949 . S
H1588 C1592 0.949 . S
C1589 C1590 1.349 . S
C1589 C1591 1.327 . S
C1589 H1612 0.950 . S
C1590 C1589 1.349 . S
C1590 C1602 1.349 . S
C1591 C1589 1.327 . S
C1591 C1607 1.429 . S
C1591 H1613 0.950 . S
C1592 H1588 0.949 . S
C1592 C1600 1.574 . S
C1592 C1608 1.368 . S
H1593 C1601 0.950 . S
H1594 C1599 0.950 . S
H1595 C1600 0.949 . S
H1596 C1602 0.950 . S
H1597 C1603 0.950 . S
H1598 C1604 0.949 . S
C1599 H1594 0.950 . S
C1599 C1601 1.327 . S
C1599 C1605 1.429 . S
C1600 C1592 1.574 . S
C1600 H1595 0.949 . S
C1600 C1606 1.368 . S
C1601 C1585 1.349 . S
C1601 H1593 0.950 . S
C1601 C1599 1.327 . S
C1602 C1590 1.349 . S
C1602 H1596 0.950 . S
C1602 C1603 1.327 . S
C1603 H1597 0.950 . S
C1603 C1602 1.327 . S
C1603 C1607 1.429 . S
C1604 C1587 1.574 . S
C1604 H1598 0.949 . S
C1604 C1608 1.368 . S
C1605 C1586 1.429 . S
C1605 C1599 1.429 . S
C1605 C1606 1.523 . S
C1606 C1587 1.368 . S
C1606 C1600 1.368 . S
C1606 C1605 1.523 . S
C1607 C1591 1.429 . S
C1607 C1603 1.429 . S
C1607 C1608 1.523 . S
C1608 C1592 1.368 . S
C1608 C1604 1.368 . S
C1608 C1607 1.523 . S
H1609 C1584 0.950 . S
H1610 C1586 0.950 . S
H1611 C1587 0.949 . S
H1612 C1589 0.950 . S
H1613 C1591 0.950 . S
C1614 C1615 1.349 1_455 S
C1614 C1616 1.327 . S
C1614 H1639 0.950 . S
C1615 C1614 1.349 1_655 S
C1615 C1631 1.349 . S
C1616 C1614 1.327 . S
C1616 C1635 1.429 1_455 S
C1616 H1640 0.950 . S
C1617 C1634 1.574 . S
C1617 C1636 1.368 . S
C1617 H1641 0.949 . S
H1618 C1622 0.949 . S
C1619 C1620 1.346 1_655 S
C1619 C1621 1.327 . S
C1619 H1642 0.950 . S
C1620 C1619 1.346 1_455 S
C1620 C1632 1.350 . S
C1621 C1619 1.327 . S
C1621 C1637 1.429 . S
C1621 H1643 0.950 . S
C1622 H1618 0.949 . S
C1622 C1630 1.574 . S
C1622 C1638 1.368 1_455 S
H1623 C1631 0.950 . S
H1624 C1629 0.950 . S
H1625 C1630 0.949 . S
H1626 C1632 0.950 . S
H1627 C1633 0.950 . S
H1628 C1634 0.949 . S
C1629 H1624 0.950 . S
C1629 C1631 1.327 . S
C1629 C1635 1.429 . S
C1630 C1622 1.574 . S
C1630 H1625 0.949 . S
C1630 C1636 1.368 1_455 S
C1631 C1615 1.349 . S
C1631 H1623 0.950 . S
C1631 C1629 1.327 . S
C1632 C1620 1.350 . S
C1632 H1626 0.950 . S
C1632 C1633 1.327 . S
C1633 H1627 0.950 . S
C1633 C1632 1.327 . S
C1633 C1637 1.429 1_455 S
C1634 C1617 1.574 . S
C1634 H1628 0.949 . S
C1634 C1638 1.368 . S
C1635 C1616 1.429 1_655 S
C1635 C1629 1.429 . S
C1635 C1636 1.523 . S
C1636 C1617 1.368 . S
C1636 C1630 1.368 1_655 S
C1636 C1635 1.523 . S
C1637 C1621 1.429 . S
C1637 C1633 1.429 1_655 S
C1637 C1638 1.523 . S
C1638 C1622 1.368 1_655 S
C1638 C1634 1.368 . S
C1638 C1637 1.523 . S
H1639 C1614 0.950 . S
H1640 C1616 0.950 . S
H1641 C1617 0.949 . S
H1642 C1619 0.950 . S
H1643 C1621 0.950 . S
C1644 C1645 1.349 . S
C1644 C1646 1.327 . S
C1644 H1669 0.950 . S
C1645 C1644 1.349 . S
C1645 C1661 1.349 . S
C1646 C1644 1.327 . S
C1646 C1665 1.429 . S
C1646 H1670 0.950 . S
C1647 C1664 1.574 . S
C1647 C1666 1.368 . S
C1647 H1671 0.949 . S
H1648 C1652 0.949 . S
C1649 C1650 1.349 . S
C1649 C1651 1.327 . S
C1649 H1672 0.950 . S
C1650 C1649 1.349 . S
C1650 C1662 1.349 . S
C1651 C1649 1.327 . S
C1651 C1667 1.429 . S
C1651 H1673 0.950 . S
C1652 H1648 0.949 . S
C1652 C1660 1.574 . S
C1652 C1668 1.368 . S
H1653 C1661 0.950 . S
H1654 C1659 0.950 . S
H1655 C1660 0.949 . S
H1656 C1662 0.950 . S
H1657 C1663 0.950 . S
H1658 C1664 0.949 . S
C1659 H1654 0.950 . S
C1659 C1661 1.327 . S
C1659 C1665 1.429 . S
C1660 C1652 1.574 . S
C1660 H1655 0.949 . S
C1660 C1666 1.368 . S
C1661 C1645 1.349 . S
C1661 H1653 0.950 . S
C1661 C1659 1.327 . S
C1662 C1650 1.349 . S
C1662 H1656 0.950 . S
C1662 C1663 1.327 . S
C1663 H1657 0.950 . S
C1663 C1662 1.327 . S
C1663 C1667 1.429 . S
C1664 C1647 1.574 . S
C1664 H1658 0.949 . S
C1664 C1668 1.368 . S
C1665 C1646 1.429 . S
C1665 C1659 1.429 . S
C1665 C1666 1.523 . S
C1666 C1647 1.368 . S
C1666 C1660 1.368 . S
C1666 C1665 1.523 . S
C1667 C1651 1.429 . S
C1667 C1663 1.429 . S
C1667 C1668 1.523 . S
C1668 C1652 1.368 . S
C1668 C1664 1.368 . S
C1668 C1667 1.523 . S
H1669 C1644 0.950 . S
H1670 C1646 0.950 . S
H1671 C1647 0.949 . S
H1672 C1649 0.950 . S
H1673 C1651 0.950 . S
C1674 C1675 1.349 . S
C1674 C1676 1.327 . S
C1674 H1699 0.950 . S
C1675 C1674 1.349 . S
C1675 C1691 1.349 . S
C1676 C1674 1.327 . S
C1676 C1695 1.429 . S
C1676 H1700 0.971 . S
C1677 C1694 1.574 . S
C1677 C1696 1.368 . S
C1677 H1701 0.949 . S
H1678 C1682 0.949 1_655 S
C1679 C1680 1.349 . S
C1679 C1681 1.327 . S
C1679 H1702 0.950 . S
C1680 C1679 1.349 . S
C1680 C1692 1.349 . S
C1681 C1679 1.327 . S
C1681 C1697 1.429 . S
C1681 H1703 0.950 . S
C1682 H1678 0.949 1_455 S
C1682 C1690 1.574 . S
C1682 C1698 1.368 . S
H1683 C1691 0.950 . S
H1684 C1689 0.950 . S
H1685 C1690 0.949 1_655 S
H1686 C1692 0.950 1_655 S
H1687 C1693 0.950 1_655 S
H1688 C1694 0.949 . S
C1689 H1684 0.950 . S
C1689 C1691 1.327 . S
C1689 C1695 1.429 . S
C1690 C1682 1.574 . S
C1690 H1685 0.949 1_455 S
C1690 C1696 1.368 . S
C1691 C1675 1.349 . S
C1691 H1683 0.950 . S
C1691 C1689 1.327 . S
C1692 C1680 1.349 . S
C1692 H1686 0.950 1_455 S
C1692 C1693 1.327 . S
C1693 H1687 0.950 1_455 S
C1693 C1692 1.327 . S
C1693 C1697 1.429 . S
C1694 C1677 1.574 . S
C1694 H1688 0.949 . S
C1694 C1698 1.368 . S
C1695 C1676 1.429 . S
C1695 C1689 1.429 . S
C1695 C1696 1.523 . S
C1696 C1677 1.368 . S
C1696 C1690 1.368 . S
C1696 C1695 1.523 . S
C1697 C1681 1.429 . S
C1697 C1693 1.429 . S
C1697 C1698 1.523 . S
C1698 C1682 1.368 . S
C1698 C1694 1.368 . S
C1698 C1697 1.523 . S
H1699 C1674 0.950 . S
H1700 C1676 0.971 . S
H1701 C1677 0.949 . S
H1702 C1679 0.950 . S
H1703 C1681 0.950 . S
C1704 C1705 1.349 . S
C1704 C1706 1.327 . S
C1704 H1729 0.950 . S
C1705 C1704 1.349 . S
C1705 C1721 1.349 . S
C1706 C1704 1.327 . S
C1706 C1725 1.429 . S
C1706 H1730 0.950 . S
C1707 C1724 1.574 . S
C1707 C1726 1.368 . S
C1707 H1731 0.949 . S
H1708 C1712 0.949 . S
C1709 C1710 1.349 . S
C1709 C1711 1.327 . S
C1709 H1732 0.950 . S
C1710 C1709 1.349 . S
C1710 C1722 1.349 . S
C1711 C1709 1.327 . S
C1711 C1727 1.429 . S
C1711 H1733 0.950 . S
C1712 H1708 0.949 . S
C1712 C1720 1.574 . S
C1712 C1728 1.368 . S
H1713 C1721 0.950 . S
H1714 C1719 0.950 . S
H1715 C1720 0.949 . S
H1716 C1722 0.950 . S
H1717 C1723 0.950 . S
H1718 C1724 0.949 . S
C1719 H1714 0.950 . S
C1719 C1721 1.327 . S
C1719 C1725 1.429 . S
C1720 C1712 1.574 . S
C1720 H1715 0.949 . S
C1720 C1726 1.368 . S
C1721 C1705 1.349 . S
C1721 H1713 0.950 . S
C1721 C1719 1.327 . S
C1722 C1710 1.349 . S
C1722 H1716 0.950 . S
C1722 C1723 1.327 . S
C1723 H1717 0.950 . S
C1723 C1722 1.327 . S
C1723 C1727 1.429 . S
C1724 C1707 1.574 . S
C1724 H1718 0.949 . S
C1724 C1728 1.368 . S
C1725 C1706 1.429 . S
C1725 C1719 1.429 . S
C1725 C1726 1.523 . S
C1726 C1707 1.368 . S
C1726 C1720 1.368 . S
C1726 C1725 1.523 . S
C1727 C1711 1.429 . S
C1727 C1723 1.429 . S
C1727 C1728 1.523 . S
C1728 C1712 1.368 . S
C1728 C1724 1.368 . S
C1728 C1727 1.523 . S
H1729 C1704 0.950 . S
H1730 C1706 0.950 . S
H1731 C1707 0.949 . S
H1732 C1709 0.950 . S
H1733 C1711 0.950 . S
C1734 C1735 1.349 1_545 S
C1734 C1736 1.327 . S
C1734 H1759 0.950 . S
C1735 C1734 1.349 1_565 S
C1735 C1751 1.349 . S
C1736 C1734 1.327 . S
C1736 C1755 1.429 1_545 S
C1736 H1760 0.950 . S
C1737 C1754 1.574 . S
C1737 C1756 1.368 . S
C1737 H1761 0.949 . S
H1738 C1742 0.949 . S
C1739 C1740 1.349 . S
C1739 C1741 1.327 . S
C1739 H1762 0.950 . S
C1740 C1739 1.349 . S
C1740 C1752 1.349 1_565 S
C1741 C1739 1.327 . S
C1741 C1757 1.429 . S
C1741 H1763 0.950 . S
C1742 H1738 0.949 . S
C1742 C1750 1.574 . S
C1742 C1758 1.368 1_545 S
H1743 C1751 0.950 . S
H1744 C1749 0.950 . S
H1745 C1750 0.949 . S
H1746 C1752 0.950 . S
H1747 C1753 0.950 . S
H1748 C1754 0.949 . S
C1749 H1744 0.950 . S
C1749 C1751 1.327 . S
C1749 C1755 1.429 . S
C1750 C1742 1.574 . S
C1750 H1745 0.949 . S
C1750 C1756 1.368 1_545 S
C1751 C1735 1.349 . S
C1751 H1743 0.950 . S
C1751 C1749 1.327 . S
C1752 C1740 1.349 1_545 S
C1752 H1746 0.950 . S
C1752 C1753 1.327 . S
C1753 H1747 0.950 . S
C1753 C1752 1.327 . S
C1753 C1757 1.429 1_545 S
C1754 C1737 1.574 . S
C1754 H1748 0.949 . S
C1754 C1758 1.368 . S
C1755 C1736 1.429 1_565 S
C1755 C1749 1.429 . S
C1755 C1756 1.523 . S
C1756 C1737 1.368 . S
C1756 C1750 1.368 1_565 S
C1756 C1755 1.523 . S
C1757 C1741 1.429 . S
C1757 C1753 1.429 1_565 S
C1757 C1758 1.523 . S
C1758 C1742 1.368 1_565 S
C1758 C1754 1.368 . S
C1758 C1757 1.523 . S
H1759 C1734 0.950 . S
H1760 C1736 0.950 . S
H1761 C1737 0.949 . S
H1762 C1739 0.950 . S
H1763 C1741 0.950 . S
C1764 C1765 1.349 1_545 S
C1764 C1766 1.327 . S
C1764 H1789 0.950 . S
C1765 C1764 1.349 1_565 S
C1765 C1781 1.349 . S
C1766 C1764 1.327 . S
C1766 C1785 1.429 1_545 S
C1766 H1790 0.950 . S
C1767 C1784 1.574 . S
C1767 C1786 1.368 . S
C1767 H1791 0.949 . S
H1768 C1772 0.949 . S
C1769 C1770 1.349 1_565 S
C1769 C1771 1.327 . S
C1769 H1792 0.950 . S
C1770 C1769 1.349 1_545 S
C1770 C1782 1.349 . S
C1771 C1769 1.327 . S
C1771 C1787 1.430 1_565 S
C1771 H1793 0.950 . S
C1772 H1768 0.949 . S
C1772 C1780 1.574 . S
C1772 C1788 1.368 1_545 S
H1773 C1781 0.950 . S
H1774 C1779 0.950 . S
H1775 C1780 0.949 . S
H1776 C1782 0.950 . S
H1777 C1783 0.950 . S
H1778 C1784 0.949 . S
C1779 H1774 0.950 . S
C1779 C1781 1.327 . S
C1779 C1785 1.429 . S
C1780 C1772 1.574 . S
C1780 H1775 0.949 . S
C1780 C1786 1.368 1_545 S
C1781 C1765 1.349 . S
C1781 H1773 0.950 . S
C1781 C1779 1.327 . S
C1782 C1770 1.349 . S
C1782 H1776 0.950 . S
C1782 C1783 1.327 . S
C1783 H1777 0.950 . S
C1783 C1782 1.327 . S
C1783 C1787 1.428 . S
C1784 C1767 1.574 . S
C1784 H1778 0.949 . S
C1784 C1788 1.368 . S
C1785 C1766 1.429 1_565 S
C1785 C1779 1.429 . S
C1785 C1786 1.523 . S
C1786 C1767 1.368 . S
C1786 C1780 1.368 1_565 S
C1786 C1785 1.523 . S
C1787 C1771 1.430 1_545 S
C1787 C1783 1.428 . S
C1787 C1788 1.522 1_545 S
C1788 C1772 1.368 1_565 S
C1788 C1784 1.368 . S
C1788 C1787 1.522 1_565 S
H1789 C1764 0.950 . S
H1790 C1766 0.950 . S
H1791 C1767 0.949 . S
H1792 C1769 0.950 . S
H1793 C1771 0.950 . S
C1794 C1795 1.349 . S
C1794 C1796 1.327 . S
C1794 H1819 0.950 . S
C1795 C1794 1.349 . S
C1795 C1811 1.349 . S
C1796 C1794 1.327 . S
C1796 C1815 1.429 . S
C1796 H1820 0.950 . S
C1797 C1814 1.574 . S
C1797 C1816 1.368 . S
C1797 H1821 0.949 . S
H1798 C1802 0.977 . S
C1799 C1800 1.349 . S
C1799 C1801 1.327 . S
C1799 H1822 0.950 . S
C1800 C1799 1.349 . S
C1800 C1812 1.349 . S
C1801 C1799 1.327 . S
C1801 C1817 1.429 . S
C1801 H1823 0.950 . S
C1802 H1798 0.977 . S
C1802 C1810 1.574 . S
C1802 C1818 1.368 . S
H1803 C1811 0.950 . S
H1804 C1809 0.950 . S
H1805 C1810 0.949 . S
H1806 C1812 0.950 1_655 S
H1807 C1813 0.935 1_655 S
H1808 C1814 0.949 . S
C1809 H1804 0.950 . S
C1809 C1811 1.327 . S
C1809 C1815 1.429 . S
C1810 C1802 1.574 . S
C1810 H1805 0.949 . S
C1810 C1816 1.368 . S
C1811 C1795 1.349 . S
C1811 H1803 0.950 . S
C1811 C1809 1.327 . S
C1812 C1800 1.349 . S
C1812 H1806 0.950 1_455 S
C1812 C1813 1.327 . S
C1813 H1807 0.935 1_455 S
C1813 C1812 1.327 . S
C1813 C1817 1.429 . S
C1814 C1797 1.574 . S
C1814 H1808 0.949 . S
C1814 C1818 1.368 . S
C1815 C1796 1.429 . S
C1815 C1809 1.429 . S
C1815 C1816 1.523 . S
C1816 C1797 1.368 . S
C1816 C1810 1.368 . S
C1816 C1815 1.523 . S
C1817 C1801 1.429 . S
C1817 C1813 1.429 . S
C1817 C1818 1.523 . S
C1818 C1802 1.368 . S
C1818 C1814 1.368 . S
C1818 C1817 1.523 . S
H1819 C1794 0.950 . S
H1820 C1796 0.950 . S
H1821 C1797 0.949 . S
H1822 C1799 0.950 . S
H1823 C1801 0.950 . S
C1824 C1825 1.349 . S
C1824 C1826 1.327 . S
C1824 H1849 0.950 . S
C1825 C1824 1.349 . S
C1825 C1841 1.349 . S
C1826 C1824 1.327 . S
C1826 C1845 1.429 . S
C1826 H1850 0.950 . S
C1827 C1844 1.574 . S
C1827 C1846 1.368 . S
C1827 H1851 0.949 . S
H1828 C1832 0.949 . S
C1829 C1830 1.349 . S
C1829 C1831 1.327 . S
C1829 H1852 0.950 . S
C1830 C1829 1.349 . S
C1830 C1842 1.349 . S
C1831 C1829 1.327 . S
C1831 C1847 1.429 . S
C1831 H1853 0.950 . S
C1832 H1828 0.949 . S
C1832 C1840 1.574 . S
C1832 C1848 1.368 . S
H1833 C1841 0.950 . S
H1834 C1839 0.950 . S
H1835 C1840 0.949 . S
H1836 C1842 0.950 . S
H1837 C1843 0.950 . S
H1838 C1844 0.949 . S
C1839 H1834 0.950 . S
C1839 C1841 1.327 . S
C1839 C1845 1.429 . S
C1840 C1832 1.574 . S
C1840 H1835 0.949 . S
C1840 C1846 1.368 . S
C1841 C1825 1.349 . S
C1841 H1833 0.950 . S
C1841 C1839 1.327 . S
C1842 C1830 1.349 . S
C1842 H1836 0.950 . S
C1842 C1843 1.327 . S
C1843 H1837 0.950 . S
C1843 C1842 1.327 . S
C1843 C1847 1.429 . S
C1844 C1827 1.574 . S
C1844 H1838 0.949 . S
C1844 C1848 1.368 . S
C1845 C1826 1.429 . S
C1845 C1839 1.429 . S
C1845 C1846 1.523 . S
C1846 C1827 1.368 . S
C1846 C1840 1.368 . S
C1846 C1845 1.523 . S
C1847 C1831 1.429 . S
C1847 C1843 1.429 . S
C1847 C1848 1.523 . S
C1848 C1832 1.368 . S
C1848 C1844 1.368 . S
C1848 C1847 1.523 . S
H1849 C1824 0.950 . S
H1850 C1826 0.950 . S
H1851 C1827 0.949 . S
H1852 C1829 0.950 . S
H1853 C1831 0.950 . S
C1854 C1855 1.349 . S
C1854 C1856 1.327 . S
C1854 H1879 0.950 . S
C1855 C1854 1.349 . S
C1855 C1871 1.349 . S
C1856 C1854 1.327 . S
C1856 C1875 1.429 . S
C1856 H1880 0.950 . S
C1857 C1874 1.574 . S
C1857 C1876 1.368 . S
C1857 H1881 0.949 . S
H1858 C1862 0.949 . S
C1859 C1860 1.346 1_455 S
C1859 C1861 1.356 1_455 S
C1859 H1882 0.939 . S
C1860 C1859 1.346 1_655 S
C1860 C1872 1.349 . S
C1861 C1859 1.356 1_655 S
C1861 C1877 1.419 . S
C1861 H1883 0.946 1_655 S
C1862 H1858 0.949 . S
C1862 C1870 1.574 . S
C1862 C1878 1.368 . S
H1863 C1871 0.950 . S
H1864 C1869 0.950 . S
H1865 C1870 0.949 . S
H1866 C1872 0.950 . S
H1867 C1873 0.950 . S
H1868 C1874 0.949 . S
C1869 H1864 0.950 . S
C1869 C1871 1.327 . S
C1869 C1875 1.429 . S
C1870 C1862 1.574 . S
C1870 H1865 0.949 . S
C1870 C1876 1.368 . S
C1871 C1855 1.349 . S
C1871 H1863 0.950 . S
C1871 C1869 1.327 . S
C1872 C1860 1.349 . S
C1872 H1866 0.950 . S
C1872 C1873 1.327 . S
C1873 H1867 0.950 . S
C1873 C1872 1.327 . S
C1873 C1877 1.429 . S
C1874 C1857 1.574 . S
C1874 H1868 0.949 . S
C1874 C1878 1.368 . S
C1875 C1856 1.429 . S
C1875 C1869 1.429 . S
C1875 C1876 1.523 . S
C1876 C1857 1.368 . S
C1876 C1870 1.368 . S
C1876 C1875 1.523 . S
C1877 C1861 1.419 . S
C1877 C1873 1.429 . S
C1877 C1878 1.523 . S
C1878 C1862 1.368 . S
C1878 C1874 1.368 . S
C1878 C1877 1.523 . S
H1879 C1854 0.950 . S
H1880 C1856 0.950 . S
H1881 C1857 0.949 . S
H1882 C1859 0.939 . S
H1883 C1861 0.946 1_455 S
C1884 C1885 1.349 . S
C1884 C1886 1.327 . S
C1884 H1909 0.950 . S
C1885 C1884 1.349 . S
C1885 C1901 1.349 . S
C1886 C1884 1.327 . S
C1886 C1905 1.429 . S
C1886 H1910 0.950 . S
C1887 C1904 1.574 . S
C1887 C1906 1.368 . S
C1887 H1911 0.949 . S
H1888 C1892 0.949 . S
C1889 C1890 1.349 . S
C1889 C1891 1.327 . S
C1889 H1912 0.950 . S
C1890 C1889 1.349 . S
C1890 C1902 1.349 . S
C1891 C1889 1.327 . S
C1891 C1907 1.429 . S
C1891 H1913 0.950 . S
C1892 H1888 0.949 . S
C1892 C1900 1.574 . S
C1892 C1908 1.368 . S
H1893 C1901 0.950 . S
H1894 C1899 0.950 . S
H1895 C1900 0.949 . S
H1896 C1902 0.950 . S
H1897 C1903 0.950 . S
H1898 C1904 0.949 . S
C1899 H1894 0.950 . S
C1899 C1901 1.327 . S
C1899 C1905 1.429 . S
C1900 C1892 1.574 . S
C1900 H1895 0.949 . S
C1900 C1906 1.368 . S
C1901 C1885 1.349 . S
C1901 H1893 0.950 . S
C1901 C1899 1.327 . S
C1902 C1890 1.349 . S
C1902 H1896 0.950 . S
C1902 C1903 1.327 . S
C1903 H1897 0.950 . S
C1903 C1902 1.327 . S
C1903 C1907 1.429 . S
C1904 C1887 1.574 . S
C1904 H1898 0.949 . S
C1904 C1908 1.368 . S
C1905 C1886 1.429 . S
C1905 C1899 1.429 . S
C1905 C1906 1.523 . S
C1906 C1887 1.368 . S
C1906 C1900 1.368 . S
C1906 C1905 1.523 . S
C1907 C1891 1.429 . S
C1907 C1903 1.429 . S
C1907 C1908 1.523 . S
C1908 C1892 1.368 . S
C1908 C1904 1.368 . S
C1908 C1907 1.523 . S
H1909 C1884 0.950 . S
H1910 C1886 0.950 . S
H1911 C1887 0.949 . S
H1912 C1889 0.950 . S
H1913 C1891 0.950 . S
C1914 C1915 1.349 . S
C1914 C1916 1.327 . S
C1914 H1939 0.950 . S
C1915 C1914 1.349 . S
C1915 C1931 1.349 . S
C1916 C1914 1.327 . S
C1916 C1935 1.429 . S
C1916 H1940 0.950 . S
C1917 C1934 1.574 . S
C1917 C1936 1.368 . S
C1917 H1941 0.949 . S
H1918 C1922 0.949 . S
C1919 C1920 1.349 . S
C1919 C1921 1.327 . S
C1919 H1942 0.950 . S
C1920 C1919 1.349 . S
C1920 C1932 1.349 . S
C1921 C1919 1.327 . S
C1921 C1937 1.429 . S
C1921 H1943 0.950 . S
C1922 H1918 0.949 . S
C1922 C1930 1.574 . S
C1922 C1938 1.368 . S
H1923 C1931 0.950 . S
H1924 C1929 0.950 . S
H1925 C1930 0.949 . S
H1926 C1932 0.950 . S
H1927 C1933 0.950 . S
H1928 C1934 0.949 . S
C1929 H1924 0.950 . S
C1929 C1931 1.327 . S
C1929 C1935 1.429 . S
C1930 C1922 1.574 . S
C1930 H1925 0.949 . S
C1930 C1936 1.368 . S
C1931 C1915 1.349 . S
C1931 H1923 0.950 . S
C1931 C1929 1.327 . S
C1932 C1920 1.349 . S
C1932 H1926 0.950 . S
C1932 C1933 1.327 . S
C1933 H1927 0.950 . S
C1933 C1932 1.327 . S
C1933 C1937 1.429 . S
C1934 C1917 1.574 . S
C1934 H1928 0.949 . S
C1934 C1938 1.368 . S
C1935 C1916 1.429 . S
C1935 C1929 1.429 . S
C1935 C1936 1.523 . S
C1936 C1917 1.368 . S
C1936 C1930 1.368 . S
C1936 C1935 1.523 . S
C1937 C1921 1.429 . S
C1937 C1933 1.429 . S
C1937 C1938 1.523 . S
C1938 C1922 1.368 . S
C1938 C1934 1.368 . S
C1938 C1937 1.523 . S
H1939 C1914 0.950 . S
H1940 C1916 0.950 . S
H1941 C1917 0.949 . S
H1942 C1919 0.950 . S
H1943 C1921 0.950 . S
C1944 C1945 1.349 . S
C1944 C1946 1.327 . S
C1944 H1969 0.950 . S
C1945 C1944 1.349 . S
C1945 C1961 1.349 . S
C1946 C1944 1.327 . S
C1946 C1965 1.429 . S
C1946 H1970 0.950 . S
C1947 C1964 1.574 . S
C1947 C1966 1.368 . S
C1947 H1971 0.949 . S
H1948 C1952 0.949 . S
C1949 C1950 1.349 . S
C1949 C1951 1.327 . S
C1949 H1972 0.950 . S
C1950 C1949 1.349 . S
C1950 C1962 1.349 . S
C1951 C1949 1.327 . S
C1951 C1967 1.429 . S
C1951 H1973 0.950 . S
C1952 H1948 0.949 . S
C1952 C1960 1.574 . S
C1952 C1968 1.368 . S
H1953 C1961 0.950 . S
H1954 C1959 0.950 . S
H1955 C1960 0.949 . S
H1956 C1962 0.950 . S
H1957 C1963 0.950 . S
H1958 C1964 0.949 . S
C1959 H1954 0.950 . S
C1959 C1961 1.327 . S
C1959 C1965 1.429 . S
C1960 C1952 1.574 . S
C1960 H1955 0.949 . S
C1960 C1966 1.368 . S
C1961 C1945 1.349 . S
C1961 H1953 0.950 . S
C1961 C1959 1.327 . S
C1962 C1950 1.349 . S
C1962 H1956 0.950 . S
C1962 C1963 1.327 . S
C1963 H1957 0.950 . S
C1963 C1962 1.327 . S
C1963 C1967 1.429 . S
C1964 C1947 1.574 . S
C1964 H1958 0.949 . S
C1964 C1968 1.368 . S
C1965 C1946 1.429 . S
C1965 C1959 1.429 . S
C1965 C1966 1.523 . S
C1966 C1947 1.368 . S
C1966 C1960 1.368 . S
C1966 C1965 1.523 . S
C1967 C1951 1.429 . S
C1967 C1963 1.429 . S
C1967 C1968 1.523 . S
C1968 C1952 1.368 . S
C1968 C1964 1.368 . S
C1968 C1967 1.523 . S
H1969 C1944 0.950 . S
H1970 C1946 0.950 . S
H1971 C1947 0.949 . S
H1972 C1949 0.950 . S
H1973 C1951 0.950 . S
C1974 C1975 1.349 . S
C1974 C1976 1.327 . S
C1974 H1999 0.950 . S
C1975 C1974 1.349 . S
C1975 C1991 1.349 . S
C1976 C1974 1.327 . S
C1976 C1995 1.429 . S
C1976 H2000 0.950 . S
C1977 C1994 1.574 . S
C1977 C1996 1.368 . S
C1977 H2001 0.949 . S
H1978 C1982 0.949 . S
C1979 C1980 1.349 . S
C1979 C1981 1.327 . S
C1979 H2002 0.950 . S
C1980 C1979 1.349 . S
C1980 C1992 1.349 . S
C1981 C1979 1.327 . S
C1981 C1997 1.429 . S
C1981 H2003 0.950 . S
C1982 H1978 0.949 . S
C1982 C1990 1.574 . S
C1982 C1998 1.368 . S
H1983 C1991 0.950 . S
H1984 C1989 0.950 . S
H1985 C1990 0.949 . S
H1986 C1992 0.950 . S
H1987 C1993 0.950 . S
H1988 C1994 0.949 . S
C1989 H1984 0.950 . S
C1989 C1991 1.327 . S
C1989 C1995 1.429 . S
C1990 C1982 1.574 . S
C1990 H1985 0.949 . S
C1990 C1996 1.368 . S
C1991 C1975 1.349 . S
C1991 H1983 0.950 . S
C1991 C1989 1.327 . S
C1992 C1980 1.349 . S
C1992 H1986 0.950 . S
C1992 C1993 1.327 . S
C1993 H1987 0.950 . S
C1993 C1992 1.327 . S
C1993 C1997 1.429 . S
C1994 C1977 1.574 . S
C1994 H1988 0.949 . S
C1994 C1998 1.368 . S
C1995 C1976 1.429 . S
C1995 C1989 1.429 . S
C1995 C1996 1.523 . S
C1996 C1977 1.368 . S
C1996 C1990 1.368 . S
C1996 C1995 1.523 . S
C1997 C1981 1.429 . S
C1997 C1993 1.429 . S
C1997 C1998 1.523 . S
C1998 C1982 1.368 . S
C1998 C1994 1.368 . S
C1998 C1997 1.523 . S
H1999 C1974 0.950 . S
H2000 C1976 0.950 . S
H2001 C1977 0.949 . S
H2002 C1979 0.950 . S
H2003 C1981 0.950 . S
C2004 C2005 1.349 . S
C2004 C2006 1.327 . S
C2004 H2029 0.950 . S
C2005 C2004 1.349 . S
C2005 C2021 1.349 . S
C2006 C2004 1.327 . S
C2006 C2025 1.429 . S
C2006 H2030 0.950 . S
C2007 C2024 1.574 . S
C2007 C2026 1.368 . S
C2007 H2031 0.949 . S
H2008 C2012 0.949 . S
C2009 C2010 1.349 . S
C2009 C2011 1.327 . S
C2009 H2032 0.950 . S
C2010 C2009 1.349 . S
C2010 C2022 1.349 . S
C2011 C2009 1.327 . S
C2011 C2027 1.429 . S
C2011 H2033 0.950 . S
C2012 H2008 0.949 . S
C2012 C2020 1.574 . S
C2012 C2028 1.368 . S
H2013 C2021 0.950 . S
H2014 C2019 0.950 . S
H2015 C2020 0.949 . S
H2016 C2022 0.950 . S
H2017 C2023 0.950 . S
H2018 C2024 0.949 . S
C2019 H2014 0.950 . S
C2019 C2021 1.327 . S
C2019 C2025 1.429 . S
C2020 C2012 1.574 . S
C2020 H2015 0.949 . S
C2020 C2026 1.368 . S
C2021 C2005 1.349 . S
C2021 H2013 0.950 . S
C2021 C2019 1.327 . S
C2022 C2010 1.349 . S
C2022 H2016 0.950 . S
C2022 C2023 1.327 . S
C2023 H2017 0.950 . S
C2023 C2022 1.327 . S
C2023 C2027 1.429 . S
C2024 C2007 1.574 . S
C2024 H2018 0.949 . S
C2024 C2028 1.368 . S
C2025 C2006 1.429 . S
C2025 C2019 1.429 . S
C2025 C2026 1.523 . S
C2026 C2007 1.368 . S
C2026 C2020 1.368 . S
C2026 C2025 1.523 . S
C2027 C2011 1.429 . S
C2027 C2023 1.429 . S
C2027 C2028 1.523 . S
C2028 C2012 1.368 . S
C2028 C2024 1.368 . S
C2028 C2027 1.523 . S
H2029 C2004 0.950 . S
H2030 C2006 0.950 . S
H2031 C2007 0.949 . S
H2032 C2009 0.950 . S
H2033 C2011 0.950 . S
C2034 C2035 1.349 . S
C2034 C2036 1.327 . S
C2034 H2059 0.950 . S
C2035 C2034 1.349 . S
C2035 C2051 1.349 . S
C2036 C2034 1.327 . S
C2036 C2055 1.429 . S
C2036 H2060 0.950 . S
C2037 C2054 1.574 . S
C2037 C2056 1.368 . S
C2037 H2061 0.949 . S
H2038 C2042 0.949 . S
C2039 C2040 1.349 . S
C2039 C2041 1.327 . S
C2039 H2062 0.950 . S
C2040 C2039 1.349 . S
C2040 C2052 1.349 . S
C2041 C2039 1.327 . S
C2041 C2057 1.429 . S
C2041 H2063 0.950 . S
C2042 H2038 0.949 . S
C2042 C2050 1.574 . S
C2042 C2058 1.368 . S
H2043 C2051 0.950 . S
H2044 C2049 0.950 . S
H2045 C2050 0.949 . S
H2046 C2052 0.950 . S
H2047 C2053 0.950 . S
H2048 C2054 0.949 . S
C2049 H2044 0.950 . S
C2049 C2051 1.327 . S
C2049 C2055 1.429 . S
C2050 C2042 1.574 . S
C2050 H2045 0.949 . S
C2050 C2056 1.368 . S
C2051 C2035 1.349 . S
C2051 H2043 0.950 . S
C2051 C2049 1.327 . S
C2052 C2040 1.349 . S
C2052 H2046 0.950 . S
C2052 C2053 1.327 . S
C2053 H2047 0.950 . S
C2053 C2052 1.327 . S
C2053 C2057 1.429 . S
C2054 C2037 1.574 . S
C2054 H2048 0.949 . S
C2054 C2058 1.368 . S
C2055 C2036 1.429 . S
C2055 C2049 1.429 . S
C2055 C2056 1.523 . S
C2056 C2037 1.368 . S
C2056 C2050 1.368 . S
C2056 C2055 1.523 . S
C2057 C2041 1.429 . S
C2057 C2053 1.429 . S
C2057 C2058 1.523 . S
C2058 C2042 1.368 . S
C2058 C2054 1.368 . S
C2058 C2057 1.523 . S
H2059 C2034 0.950 . S
H2060 C2036 0.950 . S
H2061 C2037 0.949 . S
H2062 C2039 0.950 . S
H2063 C2041 0.950 . S
C2064 C2065 1.349 . S
C2064 C2066 1.327 . S
C2064 H2089 0.950 . S
C2065 C2064 1.349 . S
C2065 C2081 1.349 . S
C2066 C2064 1.327 . S
C2066 C2085 1.429 . S
C2066 H2090 0.950 . S
C2067 C2084 1.574 . S
C2067 C2086 1.368 . S
C2067 H2091 0.949 . S
H2068 C2072 0.949 . S
C2069 C2070 1.349 . S
C2069 C2071 1.327 . S
C2069 H2092 0.950 . S
C2070 C2069 1.349 . S
C2070 C2082 1.349 . S
C2071 C2069 1.327 . S
C2071 C2087 1.429 . S
C2071 H2093 0.950 . S
C2072 H2068 0.949 . S
C2072 C2080 1.574 . S
C2072 C2088 1.368 . S
H2073 C2081 0.950 . S
H2074 C2079 0.950 . S
H2075 C2080 0.949 . S
H2076 C2082 0.950 . S
H2077 C2083 0.950 . S
H2078 C2084 0.949 . S
C2079 H2074 0.950 . S
C2079 C2081 1.327 . S
C2079 C2085 1.429 . S
C2080 C2072 1.574 . S
C2080 H2075 0.949 . S
C2080 C2086 1.368 . S
C2081 C2065 1.349 . S
C2081 H2073 0.950 . S
C2081 C2079 1.327 . S
C2082 C2070 1.349 . S
C2082 H2076 0.950 . S
C2082 C2083 1.327 . S
C2083 H2077 0.950 . S
C2083 C2082 1.327 . S
C2083 C2087 1.429 . S
C2084 C2067 1.574 . S
C2084 H2078 0.949 . S
C2084 C2088 1.368 . S
C2085 C2066 1.429 . S
C2085 C2079 1.429 . S
C2085 C2086 1.523 . S
C2086 C2067 1.368 . S
C2086 C2080 1.368 . S
C2086 C2085 1.523 . S
C2087 C2071 1.429 . S
C2087 C2083 1.429 . S
C2087 C2088 1.523 . S
C2088 C2072 1.368 . S
C2088 C2084 1.368 . S
C2088 C2087 1.523 . S
H2089 C2064 0.950 . S
H2090 C2066 0.950 . S
H2091 C2067 0.949 . S
H2092 C2069 0.950 . S
H2093 C2071 0.950 . S
C2094 C2095 1.349 . S
C2094 C2096 1.327 . S
C2094 H2119 0.950 . S
C2095 C2094 1.349 . S
C2095 C2111 1.349 . S
C2096 C2094 1.327 . S
C2096 C2115 1.429 . S
C2096 H2120 0.950 . S
C2097 C2114 1.574 . S
C2097 C2116 1.368 . S
C2097 H2121 0.949 . S
H2098 C2102 0.949 . S
C2099 C2100 1.349 . S
C2099 C2101 1.327 . S
C2099 H2122 0.950 . S
C2100 C2099 1.349 . S
C2100 C2112 1.349 . S
C2101 C2099 1.327 . S
C2101 C2117 1.429 . S
C2101 H2123 0.950 . S
C2102 H2098 0.949 . S
C2102 C2110 1.574 . S
C2102 C2118 1.368 . S
H2103 C2111 0.950 . S
H2104 C2109 0.950 . S
H2105 C2110 0.949 . S
H2106 C2112 0.950 . S
H2107 C2113 0.950 . S
H2108 C2114 0.949 . S
C2109 H2104 0.950 . S
C2109 C2111 1.327 . S
C2109 C2115 1.429 . S
C2110 C2102 1.574 . S
C2110 H2105 0.949 . S
C2110 C2116 1.368 . S
C2111 C2095 1.349 . S
C2111 H2103 0.950 . S
C2111 C2109 1.327 . S
C2112 C2100 1.349 . S
C2112 H2106 0.950 . S
C2112 C2113 1.327 . S
C2113 H2107 0.950 . S
C2113 C2112 1.327 . S
C2113 C2117 1.429 . S
C2114 C2097 1.574 . S
C2114 H2108 0.949 . S
C2114 C2118 1.368 . S
C2115 C2096 1.429 . S
C2115 C2109 1.429 . S
C2115 C2116 1.523 . S
C2116 C2097 1.368 . S
C2116 C2110 1.368 . S
C2116 C2115 1.523 . S
C2117 C2101 1.429 . S
C2117 C2113 1.429 . S
C2117 C2118 1.523 . S
C2118 C2102 1.368 . S
C2118 C2114 1.368 . S
C2118 C2117 1.523 . S
H2119 C2094 0.950 . S
H2120 C2096 0.950 . S
H2121 C2097 0.949 . S
H2122 C2099 0.950 . S
H2123 C2101 0.950 . S
C2124 C2125 1.349 . S
C2124 C2126 1.327 . S
C2124 H2149 0.950 . S
C2125 C2124 1.349 . S
C2125 C2141 1.349 . S
C2126 C2124 1.327 . S
C2126 C2145 1.429 . S
C2126 H2150 0.950 . S
C2127 C2144 1.574 . S
C2127 C2146 1.368 . S
C2127 H2151 0.949 . S
H2128 C2132 0.949 . S
C2129 C2130 1.349 . S
C2129 C2131 1.327 . S
C2129 H2152 0.950 . S
C2130 C2129 1.349 . S
C2130 C2142 1.349 . S
C2131 C2129 1.327 . S
C2131 C2147 1.429 . S
C2131 H2153 0.950 . S
C2132 H2128 0.949 . S
C2132 C2140 1.574 . S
C2132 C2148 1.368 . S
H2133 C2141 0.950 . S
H2134 C2139 0.950 . S
H2135 C2140 0.949 . S
H2136 C2142 0.950 . S
H2137 C2143 0.950 . S
H2138 C2144 0.949 . S
C2139 H2134 0.950 . S
C2139 C2141 1.327 . S
C2139 C2145 1.429 . S
C2140 C2132 1.574 . S
C2140 H2135 0.949 . S
C2140 C2146 1.368 . S
C2141 C2125 1.349 . S
C2141 H2133 0.950 . S
C2141 C2139 1.327 . S
C2142 C2130 1.349 . S
C2142 H2136 0.950 . S
C2142 C2143 1.327 . S
C2143 H2137 0.950 . S
C2143 C2142 1.327 . S
C2143 C2147 1.429 . S
C2144 C2127 1.574 . S
C2144 H2138 0.949 . S
C2144 C2148 1.368 . S
C2145 C2126 1.429 . S
C2145 C2139 1.429 . S
C2145 C2146 1.523 . S
C2146 C2127 1.368 . S
C2146 C2140 1.368 . S
C2146 C2145 1.523 . S
C2147 C2131 1.429 . S
C2147 C2143 1.429 . S
C2147 C2148 1.523 . S
C2148 C2132 1.368 . S
C2148 C2144 1.368 . S
C2148 C2147 1.523 . S
H2149 C2124 0.950 . S
H2150 C2126 0.950 . S
H2151 C2127 0.949 . S
H2152 C2129 0.950 . S
H2153 C2131 0.950 . S
C2154 C2155 1.349 . S
C2154 C2156 1.327 . S
C2154 H2179 0.950 . S
C2155 C2154 1.349 . S
C2155 C2171 1.349 . S
C2156 C2154 1.327 . S
C2156 C2175 1.429 . S
C2156 H2180 0.950 . S
C2157 C2174 1.574 . S
C2157 C2176 1.368 . S
C2157 H2181 0.949 . S
H2158 C2162 0.949 . S
C2159 C2160 1.349 . S
C2159 C2161 1.327 . S
C2159 H2182 0.950 . S
C2160 C2159 1.349 . S
C2160 C2172 1.349 . S
C2161 C2159 1.327 . S
C2161 C2177 1.429 . S
C2161 H2183 0.950 . S
C2162 H2158 0.949 . S
C2162 C2170 1.574 . S
C2162 C2178 1.368 . S
H2163 C2171 0.950 . S
H2164 C2169 0.950 . S
H2165 C2170 0.949 . S
H2166 C2172 0.950 . S
H2167 C2173 0.950 . S
H2168 C2174 0.949 . S
C2169 H2164 0.950 . S
C2169 C2171 1.327 . S
C2169 C2175 1.429 . S
C2170 C2162 1.574 . S
C2170 H2165 0.949 . S
C2170 C2176 1.368 . S
C2171 C2155 1.349 . S
C2171 H2163 0.950 . S
C2171 C2169 1.327 . S
C2172 C2160 1.349 . S
C2172 H2166 0.950 . S
C2172 C2173 1.327 . S
C2173 H2167 0.950 . S
C2173 C2172 1.327 . S
C2173 C2177 1.429 . S
C2174 C2157 1.574 . S
C2174 H2168 0.949 . S
C2174 C2178 1.368 . S
C2175 C2156 1.429 . S
C2175 C2169 1.429 . S
C2175 C2176 1.523 . S
C2176 C2157 1.368 . S
C2176 C2170 1.368 . S
C2176 C2175 1.523 . S
C2177 C2161 1.429 . S
C2177 C2173 1.429 . S
C2177 C2178 1.523 . S
C2178 C2162 1.368 . S
C2178 C2174 1.368 . S
C2178 C2177 1.523 . S
H2179 C2154 0.950 . S
H2180 C2156 0.950 . S
H2181 C2157 0.949 . S
H2182 C2159 0.950 . S
H2183 C2161 0.950 . S
C2184 C2185 1.349 . S
C2184 C2186 1.327 . S
C2184 H2209 0.950 . S
C2185 C2184 1.349 . S
C2185 C2201 1.349 . S
C2186 C2184 1.327 . S
C2186 C2205 1.429 . S
C2186 H2210 0.950 . S
C2187 C2204 1.574 . S
C2187 C2206 1.368 . S
C2187 H2211 0.949 . S
H2188 C2192 0.949 . S
C2189 C2190 1.349 . S
C2189 C2191 1.327 . S
C2189 H2212 0.950 . S
C2190 C2189 1.349 . S
C2190 C2202 1.349 . S
C2191 C2189 1.327 . S
C2191 C2207 1.429 . S
C2191 H2213 0.950 . S
C2192 H2188 0.949 . S
C2192 C2200 1.574 . S
C2192 C2208 1.368 . S
H2193 C2201 0.950 . S
H2194 C2199 0.950 . S
H2195 C2200 0.949 . S
H2196 C2202 0.950 . S
H2197 C2203 0.950 . S
H2198 C2204 0.949 . S
C2199 H2194 0.950 . S
C2199 C2201 1.327 . S
C2199 C2205 1.429 . S
C2200 C2192 1.574 . S
C2200 H2195 0.949 . S
C2200 C2206 1.368 . S
C2201 C2185 1.349 . S
C2201 H2193 0.950 . S
C2201 C2199 1.327 . S
C2202 C2190 1.349 . S
C2202 H2196 0.950 . S
C2202 C2203 1.327 . S
C2203 H2197 0.950 . S
C2203 C2202 1.327 . S
C2203 C2207 1.429 . S
C2204 C2187 1.574 . S
C2204 H2198 0.949 . S
C2204 C2208 1.368 . S
C2205 C2186 1.429 . S
C2205 C2199 1.429 . S
C2205 C2206 1.523 . S
C2206 C2187 1.368 . S
C2206 C2200 1.368 . S
C2206 C2205 1.523 . S
C2207 C2191 1.429 . S
C2207 C2203 1.429 . S
C2207 C2208 1.523 . S
C2208 C2192 1.368 . S
C2208 C2204 1.368 . S
C2208 C2207 1.523 . S
H2209 C2184 0.950 . S
H2210 C2186 0.950 . S
H2211 C2187 0.949 . S
H2212 C2189 0.950 . S
H2213 C2191 0.950 . S
C2214 C2215 1.349 . S
C2214 C2216 1.327 . S
C2214 H2239 0.950 . S
C2215 C2214 1.349 . S
C2215 C2231 1.349 . S
C2216 C2214 1.327 . S
C2216 C2235 1.429 . S
C2216 H2240 0.950 . S
C2217 C2234 1.574 . S
C2217 C2236 1.368 . S
C2217 H2241 0.949 . S
H2218 C2222 0.949 . S
C2219 C2220 1.349 . S
C2219 C2221 1.327 . S
C2219 H2242 0.950 . S
C2220 C2219 1.349 . S
C2220 C2232 1.349 . S
C2221 C2219 1.327 . S
C2221 C2237 1.429 . S
C2221 H2243 0.950 . S
C2222 H2218 0.949 . S
C2222 C2230 1.574 . S
C2222 C2238 1.368 . S
H2223 C2231 0.950 . S
H2224 C2229 0.950 . S
H2225 C2230 0.949 . S
H2226 C2232 0.950 . S
H2227 C2233 0.950 . S
H2228 C2234 0.949 . S
C2229 H2224 0.950 . S
C2229 C2231 1.327 . S
C2229 C2235 1.429 . S
C2230 C2222 1.574 . S
C2230 H2225 0.949 . S
C2230 C2236 1.368 . S
C2231 C2215 1.349 . S
C2231 H2223 0.950 . S
C2231 C2229 1.327 . S
C2232 C2220 1.349 . S
C2232 H2226 0.950 . S
C2232 C2233 1.327 . S
C2233 H2227 0.950 . S
C2233 C2232 1.327 . S
C2233 C2237 1.429 . S
C2234 C2217 1.574 . S
C2234 H2228 0.949 . S
C2234 C2238 1.368 . S
C2235 C2216 1.429 . S
C2235 C2229 1.429 . S
C2235 C2236 1.523 . S
C2236 C2217 1.368 . S
C2236 C2230 1.368 . S
C2236 C2235 1.523 . S
C2237 C2221 1.429 . S
C2237 C2233 1.429 . S
C2237 C2238 1.523 . S
C2238 C2222 1.368 . S
C2238 C2234 1.368 . S
C2238 C2237 1.523 . S
H2239 C2214 0.950 . S
H2240 C2216 0.950 . S
H2241 C2217 0.949 . S
H2242 C2219 0.950 . S
H2243 C2221 0.950 . S
C2244 C2245 1.349 . S
C2244 C2246 1.327 . S
C2244 H2269 0.950 . S
C2245 C2244 1.349 . S
C2245 C2261 1.349 . S
C2246 C2244 1.327 . S
C2246 C2265 1.429 . S
C2246 H2270 0.950 . S
C2247 C2264 1.574 . S
C2247 C2266 1.368 . S
C2247 H2271 0.949 . S
H2248 C2252 0.949 . S
C2249 C2250 1.349 . S
C2249 C2251 1.327 . S
C2249 H2272 0.950 . S
C2250 C2249 1.349 . S
C2250 C2262 1.349 . S
C2251 C2249 1.327 . S
C2251 C2267 1.429 . S
C2251 H2273 0.950 . S
C2252 H2248 0.949 . S
C2252 C2260 1.574 . S
C2252 C2268 1.368 . S
H2253 C2261 0.950 . S
H2254 C2259 0.950 . S
H2255 C2260 0.949 . S
H2256 C2262 0.950 . S
H2257 C2263 0.950 . S
H2258 C2264 0.949 . S
C2259 H2254 0.950 . S
C2259 C2261 1.327 . S
C2259 C2265 1.429 . S
C2260 C2252 1.574 . S
C2260 H2255 0.949 . S
C2260 C2266 1.368 . S
C2261 C2245 1.349 . S
C2261 H2253 0.950 . S
C2261 C2259 1.327 . S
C2262 C2250 1.349 . S
C2262 H2256 0.950 . S
C2262 C2263 1.327 . S
C2263 H2257 0.950 . S
C2263 C2262 1.327 . S
C2263 C2267 1.429 . S
C2264 C2247 1.574 . S
C2264 H2258 0.949 . S
C2264 C2268 1.368 . S
C2265 C2246 1.429 . S
C2265 C2259 1.429 . S
C2265 C2266 1.523 . S
C2266 C2247 1.368 . S
C2266 C2260 1.368 . S
C2266 C2265 1.523 . S
C2267 C2251 1.429 . S
C2267 C2263 1.429 . S
C2267 C2268 1.523 . S
C2268 C2252 1.368 . S
C2268 C2264 1.368 . S
C2268 C2267 1.523 . S
H2269 C2244 0.950 . S
H2270 C2246 0.950 . S
H2271 C2247 0.949 . S
H2272 C2249 0.950 . S
H2273 C2251 0.950 . S
C2274 C2275 1.349 . S
C2274 C2276 1.327 . S
C2274 H2299 0.950 . S
C2275 C2274 1.349 . S
C2275 C2291 1.349 . S
C2276 C2274 1.327 . S
C2276 C2295 1.429 . S
C2276 H2300 0.950 . S
C2277 C2294 1.574 . S
C2277 C2296 1.368 . S
C2277 H2301 0.949 . S
H2278 C2282 0.949 . S
C2279 C2280 1.349 . S
C2279 C2281 1.327 . S
C2279 H2302 0.950 . S
C2280 C2279 1.349 . S
C2280 C2292 1.349 . S
C2281 C2279 1.327 . S
C2281 C2297 1.429 . S
C2281 H2303 0.950 . S
C2282 H2278 0.949 . S
C2282 C2290 1.574 . S
C2282 C2298 1.368 . S
H2283 C2291 0.950 . S
H2284 C2289 0.950 . S
H2285 C2290 0.949 . S
H2286 C2292 0.950 . S
H2287 C2293 0.950 . S
H2288 C2294 0.949 . S
C2289 H2284 0.950 . S
C2289 C2291 1.327 . S
C2289 C2295 1.429 . S
C2290 C2282 1.574 . S
C2290 H2285 0.949 . S
C2290 C2296 1.368 . S
C2291 C2275 1.349 . S
C2291 H2283 0.950 . S
C2291 C2289 1.327 . S
C2292 C2280 1.349 . S
C2292 H2286 0.950 . S
C2292 C2293 1.327 . S
C2293 H2287 0.950 . S
C2293 C2292 1.327 . S
C2293 C2297 1.429 . S
C2294 C2277 1.574 . S
C2294 H2288 0.949 . S
C2294 C2298 1.368 . S
C2295 C2276 1.429 . S
C2295 C2289 1.429 . S
C2295 C2296 1.523 . S
C2296 C2277 1.368 . S
C2296 C2290 1.368 . S
C2296 C2295 1.523 . S
C2297 C2281 1.429 . S
C2297 C2293 1.429 . S
C2297 C2298 1.523 . S
C2298 C2282 1.368 . S
C2298 C2294 1.368 . S
C2298 C2297 1.523 . S
H2299 C2274 0.950 . S
H2300 C2276 0.950 . S
H2301 C2277 0.949 . S
H2302 C2279 0.950 . S
H2303 C2281 0.950 . S
C2304 C2305 1.349 . S
C2304 C2306 1.327 . S
C2304 H2329 0.950 . S
C2305 C2304 1.349 . S
C2305 C2321 1.349 . S
C2306 C2304 1.327 . S
C2306 C2325 1.429 . S
C2306 H2330 0.950 . S
C2307 C2324 1.574 . S
C2307 C2326 1.368 . S
C2307 H2331 0.949 . S
H2308 C2312 0.949 . S
C2309 C2310 1.349 . S
C2309 C2311 1.327 . S
C2309 H2332 0.950 . S
C2310 C2309 1.349 . S
C2310 C2322 1.349 . S
C2311 C2309 1.327 . S
C2311 C2327 1.429 . S
C2311 H2333 0.950 . S
C2312 H2308 0.949 . S
C2312 C2320 1.574 . S
C2312 C2328 1.368 . S
H2313 C2321 0.950 . S
H2314 C2319 0.950 . S
H2315 C2320 0.949 . S
H2316 C2322 0.950 . S
H2317 C2323 0.950 . S
H2318 C2324 0.949 . S
C2319 H2314 0.950 . S
C2319 C2321 1.327 . S
C2319 C2325 1.429 . S
C2320 C2312 1.574 . S
C2320 H2315 0.949 . S
C2320 C2326 1.368 . S
C2321 C2305 1.349 . S
C2321 H2313 0.950 . S
C2321 C2319 1.327 . S
C2322 C2310 1.349 . S
C2322 H2316 0.950 . S
C2322 C2323 1.327 . S
C2323 H2317 0.950 . S
C2323 C2322 1.327 . S
C2323 C2327 1.429 . S
C2324 C2307 1.574 . S
C2324 H2318 0.949 . S
C2324 C2328 1.368 . S
C2325 C2306 1.429 . S
C2325 C2319 1.429 . S
C2325 C2326 1.523 . S
C2326 C2307 1.368 . S
C2326 C2320 1.368 . S
C2326 C2325 1.523 . S
C2327 C2311 1.429 . S
C2327 C2323 1.429 . S
C2327 C2328 1.523 . S
C2328 C2312 1.368 . S
C2328 C2324 1.368 . S
C2328 C2327 1.523 . S
H2329 C2304 0.950 . S
H2330 C2306 0.950 . S
H2331 C2307 0.949 . S
H2332 C2309 0.950 . S
H2333 C2311 0.950 . S
C2334 C2335 1.349 . S
C2334 C2336 1.327 . S
C2334 H2359 0.950 . S
C2335 C2334 1.349 . S
C2335 C2351 1.349 . S
C2336 C2334 1.327 . S
C2336 C2355 1.429 . S
C2336 H2360 0.950 . S
C2337 C2354 1.574 . S
C2337 C2356 1.368 . S
C2337 H2361 0.949 . S
H2338 C2342 0.949 . S
C2339 C2340 1.349 . S
C2339 C2341 1.327 . S
C2339 H2362 0.950 . S
C2340 C2339 1.349 . S
C2340 C2352 1.349 . S
C2341 C2339 1.327 . S
C2341 C2357 1.429 . S
C2341 H2363 0.950 . S
C2342 H2338 0.949 . S
C2342 C2350 1.574 . S
C2342 C2358 1.368 . S
H2343 C2351 0.950 . S
H2344 C2349 0.950 . S
H2345 C2350 0.949 . S
H2346 C2352 0.950 . S
H2347 C2353 0.950 . S
H2348 C2354 0.949 . S
C2349 H2344 0.950 . S
C2349 C2351 1.327 . S
C2349 C2355 1.429 . S
C2350 C2342 1.574 . S
C2350 H2345 0.949 . S
C2350 C2356 1.368 . S
C2351 C2335 1.349 . S
C2351 H2343 0.950 . S
C2351 C2349 1.327 . S
C2352 C2340 1.349 . S
C2352 H2346 0.950 . S
C2352 C2353 1.327 . S
C2353 H2347 0.950 . S
C2353 C2352 1.327 . S
C2353 C2357 1.429 . S
C2354 C2337 1.574 . S
C2354 H2348 0.949 . S
C2354 C2358 1.368 . S
C2355 C2336 1.429 . S
C2355 C2349 1.429 . S
C2355 C2356 1.523 . S
C2356 C2337 1.368 . S
C2356 C2350 1.368 . S
C2356 C2355 1.523 . S
C2357 C2341 1.429 . S
C2357 C2353 1.429 . S
C2357 C2358 1.523 . S
C2358 C2342 1.368 . S
C2358 C2354 1.368 . S
C2358 C2357 1.523 . S
H2359 C2334 0.950 . S
H2360 C2336 0.950 . S
H2361 C2337 0.949 . S
H2362 C2339 0.950 . S
H2363 C2341 0.950 . S
C2364 C2365 1.349 . S
C2364 C2366 1.327 . S
C2364 H2389 0.950 . S
C2365 C2364 1.349 . S
C2365 C2381 1.349 . S
C2366 C2364 1.327 . S
C2366 C2385 1.429 . S
C2366 H2390 0.950 . S
C2367 C2384 1.574 . S
C2367 C2386 1.368 . S
C2367 H2391 0.949 . S
H2368 C2372 0.949 . S
C2369 C2370 1.349 . S
C2369 C2371 1.327 . S
C2369 H2392 0.950 . S
C2370 C2369 1.349 . S
C2370 C2382 1.349 . S
C2371 C2369 1.327 . S
C2371 C2387 1.429 . S
C2371 H2393 0.950 . S
C2372 H2368 0.949 . S
C2372 C2380 1.574 . S
C2372 C2388 1.368 . S
H2373 C2381 0.950 . S
H2374 C2379 0.950 . S
H2375 C2380 0.949 . S
H2376 C2382 0.950 . S
H2377 C2383 0.950 . S
H2378 C2384 0.949 . S
C2379 H2374 0.950 . S
C2379 C2381 1.327 . S
C2379 C2385 1.429 . S
C2380 C2372 1.574 . S
C2380 H2375 0.949 . S
C2380 C2386 1.368 . S
C2381 C2365 1.349 . S
C2381 H2373 0.950 . S
C2381 C2379 1.327 . S
C2382 C2370 1.349 . S
C2382 H2376 0.950 . S
C2382 C2383 1.327 . S
C2383 H2377 0.950 . S
C2383 C2382 1.327 . S
C2383 C2387 1.429 . S
C2384 C2367 1.574 . S
C2384 H2378 0.949 . S
C2384 C2388 1.368 . S
C2385 C2366 1.429 . S
C2385 C2379 1.429 . S
C2385 C2386 1.523 . S
C2386 C2367 1.368 . S
C2386 C2380 1.368 . S
C2386 C2385 1.523 . S
C2387 C2371 1.429 . S
C2387 C2383 1.429 . S
C2387 C2388 1.523 . S
C2388 C2372 1.368 . S
C2388 C2384 1.368 . S
C2388 C2387 1.523 . S
H2389 C2364 0.950 . S
H2390 C2366 0.950 . S
H2391 C2367 0.949 . S
H2392 C2369 0.950 . S
H2393 C2371 0.950 . S
C2394 C2395 1.349 . S
C2394 C2396 1.327 . S
C2394 H2419 0.950 . S
C2395 C2394 1.349 . S
C2395 C2411 1.349 . S
C2396 C2394 1.327 . S
C2396 C2415 1.429 . S
C2396 H2420 0.950 . S
C2397 C2414 1.574 . S
C2397 C2416 1.368 . S
C2397 H2421 0.949 . S
H2398 C2402 0.949 . S
C2399 C2400 1.349 . S
C2399 C2401 1.327 . S
C2399 H2422 0.950 . S
C2400 C2399 1.349 . S
C2400 C2412 1.349 . S
C2401 C2399 1.327 . S
C2401 C2417 1.429 . S
C2401 H2423 0.950 . S
C2402 H2398 0.949 . S
C2402 C2410 1.574 . S
C2402 C2418 1.368 . S
H2403 C2411 0.940 1_545 S
H2404 C2409 0.950 . S
H2405 C2410 0.949 . S
H2406 C2412 0.950 . S
H2407 C2413 0.950 . S
H2408 C2414 0.949 . S
C2409 H2404 0.950 . S
C2409 C2411 1.327 . S
C2409 C2415 1.429 . S
C2410 C2402 1.574 . S
C2410 H2405 0.949 . S
C2410 C2416 1.368 . S
C2411 C2395 1.349 . S
C2411 H2403 0.940 1_565 S
C2411 C2409 1.327 . S
C2412 C2400 1.349 . S
C2412 H2406 0.950 . S
C2412 C2413 1.327 . S
C2413 H2407 0.950 . S
C2413 C2412 1.327 . S
C2413 C2417 1.429 . S
C2414 C2397 1.574 . S
C2414 H2408 0.949 . S
C2414 C2418 1.368 . S
C2415 C2396 1.429 . S
C2415 C2409 1.429 . S
C2415 C2416 1.523 . S
C2416 C2397 1.368 . S
C2416 C2410 1.368 . S
C2416 C2415 1.523 . S
C2417 C2401 1.429 . S
C2417 C2413 1.429 . S
C2417 C2418 1.523 . S
C2418 C2402 1.368 . S
C2418 C2414 1.368 . S
C2418 C2417 1.523 . S
H2419 C2394 0.950 . S
H2420 C2396 0.950 . S
H2421 C2397 0.949 . S
H2422 C2399 0.950 . S
H2423 C2401 0.950 . S
C2424 C2425 1.349 . S
C2424 C2426 1.327 . S
C2424 H2449 0.950 . S
C2425 C2424 1.349 . S
C2425 C2441 1.349 . S
C2426 C2424 1.327 . S
C2426 C2445 1.429 . S
C2426 H2450 0.950 . S
C2427 C2444 1.574 . S
C2427 C2446 1.368 . S
C2427 H2451 0.949 . S
H2428 C2432 0.949 . S
C2429 C2430 1.349 . S
C2429 C2431 1.327 . S
C2429 H2452 0.950 . S
C2430 C2429 1.349 . S
C2430 C2442 1.349 . S
C2431 C2429 1.327 . S
C2431 C2447 1.429 . S
C2431 H2453 0.950 . S
C2432 H2428 0.949 . S
C2432 C2440 1.574 . S
C2432 C2448 1.368 . S
H2433 C2441 0.950 . S
H2434 C2439 0.950 . S
H2435 C2440 0.949 . S
H2436 C2442 0.950 . S
H2437 C2443 0.950 . S
H2438 C2444 0.949 . S
C2439 H2434 0.950 . S
C2439 C2441 1.327 . S
C2439 C2445 1.429 . S
C2440 C2432 1.574 . S
C2440 H2435 0.949 . S
C2440 C2446 1.368 . S
C2441 C2425 1.349 . S
C2441 H2433 0.950 . S
C2441 C2439 1.327 . S
C2442 C2430 1.349 . S
C2442 H2436 0.950 . S
C2442 C2443 1.327 . S
C2443 H2437 0.950 . S
C2443 C2442 1.327 . S
C2443 C2447 1.429 . S
C2444 C2427 1.574 . S
C2444 H2438 0.949 . S
C2444 C2448 1.368 . S
C2445 C2426 1.429 . S
C2445 C2439 1.429 . S
C2445 C2446 1.523 . S
C2446 C2427 1.368 . S
C2446 C2440 1.368 . S
C2446 C2445 1.523 . S
C2447 C2431 1.429 . S
C2447 C2443 1.429 . S
C2447 C2448 1.523 . S
C2448 C2432 1.368 . S
C2448 C2444 1.368 . S
C2448 C2447 1.523 . S
H2449 C2424 0.950 . S
H2450 C2426 0.950 . S
H2451 C2427 0.949 . S
H2452 C2429 0.950 . S
H2453 C2431 0.950 . S
C2454 C2455 1.349 . S
C2454 C2456 1.327 . S
C2454 H2479 0.950 . S
C2455 C2454 1.349 . S
C2455 C2471 1.349 . S
C2456 C2454 1.327 . S
C2456 C2475 1.429 . S
C2456 H2480 0.950 . S
C2457 C2474 1.574 . S
C2457 C2476 1.368 . S
C2457 H2481 0.949 . S
H2458 C2462 0.949 . S
C2459 C2460 1.349 . S
C2459 C2461 1.327 . S
C2459 H2482 0.950 . S
C2460 C2459 1.349 . S
C2460 C2472 1.349 . S
C2461 C2459 1.327 . S
C2461 C2477 1.429 . S
C2461 H2483 0.950 . S
C2462 H2458 0.949 . S
C2462 C2470 1.574 . S
C2462 C2478 1.368 . S
H2463 C2471 0.950 . S
H2464 C2469 0.950 . S
H2465 C2470 0.949 . S
H2466 C2472 0.950 . S
H2467 C2473 0.950 . S
H2468 C2474 0.949 . S
C2469 H2464 0.950 . S
C2469 C2471 1.327 . S
C2469 C2475 1.429 . S
C2470 C2462 1.574 . S
C2470 H2465 0.949 . S
C2470 C2476 1.368 . S
C2471 C2455 1.349 . S
C2471 H2463 0.950 . S
C2471 C2469 1.327 . S
C2472 C2460 1.349 . S
C2472 H2466 0.950 . S
C2472 C2473 1.327 . S
C2473 H2467 0.950 . S
C2473 C2472 1.327 . S
C2473 C2477 1.429 . S
C2474 C2457 1.574 . S
C2474 H2468 0.949 . S
C2474 C2478 1.368 . S
C2475 C2456 1.429 . S
C2475 C2469 1.429 . S
C2475 C2476 1.523 . S
C2476 C2457 1.368 . S
C2476 C2470 1.368 . S
C2476 C2475 1.523 . S
C2477 C2461 1.429 . S
C2477 C2473 1.429 . S
C2477 C2478 1.523 . S
C2478 C2462 1.368 . S
C2478 C2474 1.368 . S
C2478 C2477 1.523 . S
H2479 C2454 0.950 . S
H2480 C2456 0.950 . S
H2481 C2457 0.949 . S
H2482 C2459 0.950 . S
H2483 C2461 0.950 . S
C2484 C2485 1.349 . S
C2484 C2486 1.327 . S
C2484 H2509 0.950 . S
C2485 C2484 1.349 . S
C2485 C2501 1.349 . S
C2486 C2484 1.327 . S
C2486 C2505 1.429 . S
C2486 H2510 0.950 . S
C2487 C2504 1.574 . S
C2487 C2506 1.368 . S
C2487 H2511 0.949 . S
H2488 C2492 0.949 . S
C2489 C2490 1.349 . S
C2489 C2491 1.327 . S
C2489 H2512 0.950 . S
C2490 C2489 1.349 . S
C2490 C2502 1.349 . S
C2491 C2489 1.327 . S
C2491 C2507 1.429 . S
C2491 H2513 0.950 . S
C2492 H2488 0.949 . S
C2492 C2500 1.574 . S
C2492 C2508 1.368 . S
H2493 C2501 0.950 . S
H2494 C2499 0.950 . S
H2495 C2500 0.949 . S
H2496 C2502 0.950 . S
H2497 C2503 0.950 . S
H2498 C2504 0.949 . S
C2499 H2494 0.950 . S
C2499 C2501 1.327 . S
C2499 C2505 1.429 . S
C2500 C2492 1.574 . S
C2500 H2495 0.949 . S
C2500 C2506 1.368 . S
C2501 C2485 1.349 . S
C2501 H2493 0.950 . S
C2501 C2499 1.327 . S
C2502 C2490 1.349 . S
C2502 H2496 0.950 . S
C2502 C2503 1.327 . S
C2503 H2497 0.950 . S
C2503 C2502 1.327 . S
C2503 C2507 1.429 . S
C2504 C2487 1.574 . S
C2504 H2498 0.949 . S
C2504 C2508 1.368 . S
C2505 C2486 1.429 . S
C2505 C2499 1.429 . S
C2505 C2506 1.523 . S
C2506 C2487 1.368 . S
C2506 C2500 1.368 . S
C2506 C2505 1.523 . S
C2507 C2491 1.429 . S
C2507 C2503 1.429 . S
C2507 C2508 1.523 . S
C2508 C2492 1.368 . S
C2508 C2504 1.368 . S
C2508 C2507 1.523 . S
H2509 C2484 0.950 . S
H2510 C2486 0.950 . S
H2511 C2487 0.949 . S
H2512 C2489 0.950 . S
H2513 C2491 0.950 . S
C2514 C2515 1.349 . S
C2514 C2516 1.327 . S
C2514 H2539 0.950 . S
C2515 C2514 1.349 . S
C2515 C2531 1.349 . S
C2516 C2514 1.327 . S
C2516 C2535 1.429 . S
C2516 H2540 0.950 . S
C2517 C2534 1.574 . S
C2517 C2536 1.368 . S
C2517 H2541 0.949 . S
H2518 C2522 0.949 . S
C2519 C2520 1.349 . S
C2519 C2521 1.327 . S
C2519 H2542 0.950 . S
C2520 C2519 1.349 . S
C2520 C2532 1.349 . S
C2521 C2519 1.327 . S
C2521 C2537 1.429 . S
C2521 H2543 0.950 . S
C2522 H2518 0.949 . S
C2522 C2530 1.574 . S
C2522 C2538 1.368 . S
H2523 C2531 0.950 . S
H2524 C2529 0.950 . S
H2525 C2530 0.949 . S
H2526 C2532 0.950 . S
H2527 C2533 0.950 . S
H2528 C2534 0.949 . S
C2529 H2524 0.950 . S
C2529 C2531 1.327 . S
C2529 C2535 1.429 . S
C2530 C2522 1.574 . S
C2530 H2525 0.949 . S
C2530 C2536 1.368 . S
C2531 C2515 1.349 . S
C2531 H2523 0.950 . S
C2531 C2529 1.327 . S
C2532 C2520 1.349 . S
C2532 H2526 0.950 . S
C2532 C2533 1.327 . S
C2533 H2527 0.950 . S
C2533 C2532 1.327 . S
C2533 C2537 1.429 . S
C2534 C2517 1.574 . S
C2534 H2528 0.949 . S
C2534 C2538 1.368 . S
C2535 C2516 1.429 . S
C2535 C2529 1.429 . S
C2535 C2536 1.523 . S
C2536 C2517 1.368 . S
C2536 C2530 1.368 . S
C2536 C2535 1.523 . S
C2537 C2521 1.429 . S
C2537 C2533 1.429 . S
C2537 C2538 1.523 . S
C2538 C2522 1.368 . S
C2538 C2534 1.368 . S
C2538 C2537 1.523 . S
H2539 C2514 0.950 . S
H2540 C2516 0.950 . S
H2541 C2517 0.949 . S
H2542 C2519 0.950 . S
H2543 C2521 0.950 . S
C2544 C2545 1.349 . S
C2544 C2546 1.327 . S
C2544 H2569 0.950 . S
C2545 C2544 1.349 . S
C2545 C2561 1.349 . S
C2546 C2544 1.327 . S
C2546 C2565 1.429 . S
C2546 H2570 0.950 . S
C2547 C2564 1.574 . S
C2547 C2566 1.368 . S
C2547 H2571 0.949 . S
H2548 C2552 0.949 . S
C2549 C2550 1.349 . S
C2549 C2551 1.327 . S
C2549 H2572 0.950 . S
C2550 C2549 1.349 . S
C2550 C2562 1.349 . S
C2551 C2549 1.327 . S
C2551 C2567 1.429 . S
C2551 H2573 0.950 . S
C2552 H2548 0.949 . S
C2552 C2560 1.574 . S
C2552 C2568 1.368 . S
H2553 C2561 0.950 1_545 S
H2554 C2559 0.950 . S
H2555 C2560 0.949 . S
H2556 C2562 0.950 . S
H2557 C2563 0.950 . S
H2558 C2564 0.949 . S
C2559 H2554 0.950 . S
C2559 C2561 1.327 . S
C2559 C2565 1.429 . S
C2560 C2552 1.574 . S
C2560 H2555 0.949 . S
C2560 C2566 1.368 . S
C2561 C2545 1.349 . S
C2561 H2553 0.950 1_565 S
C2561 C2559 1.327 . S
C2562 C2550 1.349 . S
C2562 H2556 0.950 . S
C2562 C2563 1.327 . S
C2563 H2557 0.950 . S
C2563 C2562 1.327 . S
C2563 C2567 1.429 . S
C2564 C2547 1.574 . S
C2564 H2558 0.949 . S
C2564 C2568 1.368 . S
C2565 C2546 1.429 . S
C2565 C2559 1.429 . S
C2565 C2566 1.523 . S
C2566 C2547 1.368 . S
C2566 C2560 1.368 . S
C2566 C2565 1.523 . S
C2567 C2551 1.429 . S
C2567 C2563 1.429 . S
C2567 C2568 1.523 . S
C2568 C2552 1.368 . S
C2568 C2564 1.368 . S
C2568 C2567 1.523 . S
H2569 C2544 0.950 . S
H2570 C2546 0.950 . S
H2571 C2547 0.949 . S
H2572 C2549 0.950 . S
H2573 C2551 0.950 . S
C2574 C2575 1.349 . S
C2574 C2576 1.327 . S
C2574 H2599 0.950 . S
C2575 C2574 1.349 . S
C2575 C2591 1.349 . S
C2576 C2574 1.327 . S
C2576 C2595 1.429 . S
C2576 H2600 0.950 . S
C2577 C2594 1.574 . S
C2577 C2596 1.368 . S
C2577 H2601 0.949 . S
H2578 C2582 0.949 . S
C2579 C2580 1.349 . S
C2579 C2581 1.327 . S
C2579 H2602 0.950 . S
C2580 C2579 1.349 . S
C2580 C2592 1.349 . S
C2581 C2579 1.327 . S
C2581 C2597 1.429 . S
C2581 H2603 0.950 . S
C2582 H2578 0.949 . S
C2582 C2590 1.574 . S
C2582 C2598 1.368 . S
H2583 C2591 0.950 . S
H2584 C2589 0.950 . S
H2585 C2590 0.949 . S
H2586 C2592 0.950 . S
H2587 C2593 0.950 . S
H2588 C2594 0.949 . S
C2589 H2584 0.950 . S
C2589 C2591 1.327 . S
C2589 C2595 1.429 . S
C2590 C2582 1.574 . S
C2590 H2585 0.949 . S
C2590 C2596 1.368 . S
C2591 C2575 1.349 . S
C2591 H2583 0.950 . S
C2591 C2589 1.327 . S
C2592 C2580 1.349 . S
C2592 H2586 0.950 . S
C2592 C2593 1.327 . S
C2593 H2587 0.950 . S
C2593 C2592 1.327 . S
C2593 C2597 1.429 . S
C2594 C2577 1.574 . S
C2594 H2588 0.949 . S
C2594 C2598 1.368 . S
C2595 C2576 1.429 . S
C2595 C2589 1.429 . S
C2595 C2596 1.523 . S
C2596 C2577 1.368 . S
C2596 C2590 1.368 . S
C2596 C2595 1.523 . S
C2597 C2581 1.429 . S
C2597 C2593 1.429 . S
C2597 C2598 1.523 . S
C2598 C2582 1.368 . S
C2598 C2594 1.368 . S
C2598 C2597 1.523 . S
H2599 C2574 0.950 . S
H2600 C2576 0.950 . S
H2601 C2577 0.949 . S
H2602 C2579 0.950 . S
H2603 C2581 0.950 . S
C2604 C2605 1.349 . S
C2604 C2606 1.327 . S
C2604 H2629 0.950 . S
C2605 C2604 1.349 . S
C2605 C2621 1.349 . S
C2606 C2604 1.327 . S
C2606 C2625 1.429 . S
C2606 H2630 0.950 . S
C2607 C2624 1.574 . S
C2607 C2626 1.368 . S
C2607 H2631 0.949 . S
H2608 C2612 0.949 . S
C2609 C2610 1.349 . S
C2609 C2611 1.327 . S
C2609 H2632 0.950 . S
C2610 C2609 1.349 . S
C2610 C2622 1.349 . S
C2611 C2609 1.327 . S
C2611 C2627 1.429 . S
C2611 H2633 0.950 . S
C2612 H2608 0.949 . S
C2612 C2620 1.574 . S
C2612 C2628 1.368 . S
H2613 C2621 0.950 . S
H2614 C2619 0.950 . S
H2615 C2620 0.949 . S
H2616 C2622 0.950 . S
H2617 C2623 0.950 . S
H2618 C2624 0.949 . S
C2619 H2614 0.950 . S
C2619 C2621 1.327 . S
C2619 C2625 1.429 . S
C2620 C2612 1.574 . S
C2620 H2615 0.949 . S
C2620 C2626 1.368 . S
C2621 C2605 1.349 . S
C2621 H2613 0.950 . S
C2621 C2619 1.327 . S
C2622 C2610 1.349 . S
C2622 H2616 0.950 . S
C2622 C2623 1.327 . S
C2623 H2617 0.950 . S
C2623 C2622 1.327 . S
C2623 C2627 1.429 . S
C2624 C2607 1.574 . S
C2624 H2618 0.949 . S
C2624 C2628 1.368 . S
C2625 C2606 1.429 . S
C2625 C2619 1.429 . S
C2625 C2626 1.523 . S
C2626 C2607 1.368 . S
C2626 C2620 1.368 . S
C2626 C2625 1.523 . S
C2627 C2611 1.429 . S
C2627 C2623 1.429 . S
C2627 C2628 1.523 . S
C2628 C2612 1.368 . S
C2628 C2624 1.368 . S
C2628 C2627 1.523 . S
H2629 C2604 0.950 . S
H2630 C2606 0.950 . S
H2631 C2607 0.949 . S
H2632 C2609 0.950 . S
H2633 C2611 0.950 . S
C2634 C2635 1.349 . S
C2634 C2636 1.327 . S
C2634 H2659 0.950 . S
C2635 C2634 1.349 . S
C2635 C2651 1.349 . S
C2636 C2634 1.327 . S
C2636 C2655 1.429 . S
C2636 H2660 0.950 . S
C2637 C2654 1.574 . S
C2637 C2656 1.368 . S
C2637 H2661 0.949 . S
H2638 C2642 0.949 . S
C2639 C2640 1.349 . S
C2639 C2641 1.327 . S
C2639 H2662 0.950 . S
C2640 C2639 1.349 . S
C2640 C2652 1.349 . S
C2641 C2639 1.327 . S
C2641 C2657 1.429 . S
C2641 H2663 0.950 . S
C2642 H2638 0.949 . S
C2642 C2650 1.574 . S
C2642 C2658 1.368 . S
H2643 C2651 0.950 . S
H2644 C2649 0.950 . S
H2645 C2650 0.949 . S
H2646 C2652 0.950 . S
H2647 C2653 0.950 . S
H2648 C2654 0.949 . S
C2649 H2644 0.950 . S
C2649 C2651 1.327 . S
C2649 C2655 1.429 . S
C2650 C2642 1.574 . S
C2650 H2645 0.949 . S
C2650 C2656 1.368 . S
C2651 C2635 1.349 . S
C2651 H2643 0.950 . S
C2651 C2649 1.327 . S
C2652 C2640 1.349 . S
C2652 H2646 0.950 . S
C2652 C2653 1.327 . S
C2653 H2647 0.950 . S
C2653 C2652 1.327 . S
C2653 C2657 1.429 . S
C2654 C2637 1.574 . S
C2654 H2648 0.949 . S
C2654 C2658 1.368 . S
C2655 C2636 1.429 . S
C2655 C2649 1.429 . S
C2655 C2656 1.523 . S
C2656 C2637 1.368 . S
C2656 C2650 1.368 . S
C2656 C2655 1.523 . S
C2657 C2641 1.429 . S
C2657 C2653 1.429 . S
C2657 C2658 1.523 . S
C2658 C2642 1.368 . S
C2658 C2654 1.368 . S
C2658 C2657 1.523 . S
H2659 C2634 0.950 . S
H2660 C2636 0.950 . S
H2661 C2637 0.949 . S
H2662 C2639 0.950 . S
H2663 C2641 0.950 . S
C505 C37 1.205 . S
C510 C256 1.055 . S
C535 C9 1.186 . S
C540 C272 1.047 . S
C570 C255 1.078 . S
C565 C19 1.223 . S
C600 C280 1.059 . S
C595 C33 1.212 . S
C625 C5 1.242 . S
C630 C289 1.089 . S
C660 C292 1.055 . S
C655 C23 1.199 . S
C685 C75 1.204 . S
C690 C298 1.052 . S
C720 C314 1.041 . S
C715 C51 1.177 . S
C750 C297 1.087 . S
C745 C65 1.232 . S
C775 C79 1.222 . S
C780 C322 1.068 . S
C810 C331 1.083 . S
C805 C47 1.233 . S
C840 C334 1.052 . S
C835 C61 1.198 . S
C870 C343 1.055 . S
C865 C121 1.205 . S
C900 C355 1.047 . S
C895 C93 1.186 . S
C930 C352 1.078 . S
C925 C103 1.223 . S
C955 C117 1.211 . S
C960 C361 1.058 . S
C990 C360 1.089 . S
C985 C89 1.242 . S
C1015 C107 1.199 . S
C1020 C377 1.055 . S
C1050 C382 1.052 . S
C1045 C159 1.204 . S
C1080 C398 1.041 . S
C1075 C135 1.177 . S
C1105 C149 1.232 . S
C1110 C381 1.087 . S
C1140 C406 1.080 . S
C1135 C163 1.222 . S
C1170 C415 1.086 . S
C1165 C131 1.233 . S
C1195 C145 1.198 . S
C1200 C418 1.062 . S
C1225 C205 1.205 . S
C1230 C427 1.054 . S
C1260 C439 1.047 . S
C1255 C177 1.186 . S
C1290 C436 1.078 . S
C1285 C187 1.223 . S
C1315 C201 1.212 . S
C1320 C445 1.070 . S
C1350 C444 1.092 . S
C1345 C173 1.242 . S
C1375 C191 1.199 . S
C1380 C461 1.066 . S
C1410 C466 1.052 . S
C1405 C243 1.204 . S
C1440 C482 1.041 . S
C1435 C219 1.177 . S
C1465 C233 1.232 . S
C1470 C465 1.087 . S
C1500 C487 1.067 . S
C1495 C247 1.222 . S
C1530 C486 1.083 . S
C1525 C215 1.233 . S
C1560 C503 1.052 . S
C1555 C229 1.198 . S
C1590 C268 1.549 . S
C1585 C154 1.641 . S
C1615 C137 1.532 . S
C1620 C271 1.440 . S
C1650 C259 1.435 . S
C1645 C151 1.536 . S
C1675 C249 1.592 . S
C1680 C276 1.501 . S
C1705 C210 1.521 . S
C1710 C277 1.428 . S
C1740 C293 1.569 1_565 S
C1735 C224 1.661 . S
C1770 C310 1.426 . S
C1765 C207 1.517 . S
C1800 C313 1.520 . S
C1795 C179 1.618 . S
C1825 C182 1.574 . S
C1830 C301 1.474 . S
C1860 C318 1.542 1_655 S
C1855 C112 1.630 . S
C1885 C84 1.609 . S
C1890 C319 1.512 . S
C1915 C109 1.536 . S
C1920 C335 1.445 . S
C1945 C238 1.641 1_655 S
C1950 C339 1.549 . S
C1975 C221 1.532 . S
C1980 C356 1.438 . S
C2010 C340 1.435 . S
C2005 C235 1.537 . S
C2040 C373 1.501 . S
C2035 C81 1.592 . S
C2070 C364 1.428 . S
C2065 C42 1.521 . S
C2095 C56 1.661 . S
C2100 C376 1.568 . S
C2130 C394 1.426 . S
C2125 C39 1.517 . S
C2160 C397 1.520 . S
C2155 C11 1.618 . S
C2185 C14 1.574 . S
C2190 C385 1.474 . S
C2220 C402 1.542 . S
C2215 C196 1.630 . S
C2250 C403 1.512 . S
C2245 C168 1.609 1_655 S
C2280 C419 1.444 . S
C2275 C193 1.536 . S
C2310 C423 1.549 . S
C2305 C70 1.640 . S
C2340 C440 1.438 . S
C2335 C53 1.532 . S
C2365 C67 1.537 . S
C2370 C424 1.435 . S
C2395 C165 1.592 1_565 S
C2400 C457 1.501 . S
C2425 C126 1.522 . S
C2430 C448 1.428 . S
C2460 C460 1.568 . S
C2455 C140 1.661 . S
C2485 C123 1.517 . S
C2490 C478 1.426 . S
C2515 C95 1.617 . S
C2520 C481 1.520 . S
C2550 C469 1.474 . S
C2545 C98 1.574 1_565 S
C2580 C499 1.541 . S
C2575 C28 1.630 . S
C2610 C490 1.512 . S
C2605 C0 1.609 . S
C2635 C25 1.536 . S
C2640 C502 1.445 . S
