# Generated by pormake.
# Topology gar, (4,6)-cn, num edge types: 1
# Building blocks:
#     Node 0, Type 0, BuildingBlock: GALJAG_clean_sbu_0, # of connection points: 4
#     Node 1, Type 0, BuildingBlock: GALJAG_clean_sbu_0, # of connection points: 4
#     Node 2, Type 0, BuildingBlock: GALJAG_clean_sbu_0, # of connection points: 4
#     Node 3, Type 0, BuildingBlock: GALJAG_clean_sbu_0, # of connection points: 4
#     Node 4, Type 0, BuildingBlock: GALJAG_clean_sbu_0, # of connection points: 4
#     Node 5, Type 0, BuildingBlock: GALJAG_clean_sbu_0, # of connection points: 4
#     Node 6, Type 0, BuildingBlock: GALJAG_clean_sbu_0, # of connection points: 4
#     Node 7, Type 0, BuildingBlock: GALJAG_clean_sbu_0, # of connection points: 4
#     Node 8, Type 0, BuildingBlock: GALJAG_clean_sbu_0, # of connection points: 4
#     Node 9, Type 0, BuildingBlock: GALJAG_clean_sbu_0, # of connection points: 4
#     Node 10, Type 0, BuildingBlock: GALJAG_clean_sbu_0, # of connection points: 4
#     Node 11, Type 0, BuildingBlock: GALJAG_clean_sbu_0, # of connection points: 4
#     Node 12, Type 0, BuildingBlock: GALJAG_clean_sbu_0, # of connection points: 4
#     Node 13, Type 0, BuildingBlock: GALJAG_clean_sbu_0, # of connection points: 4
#     Node 14, Type 0, BuildingBlock: GALJAG_clean_sbu_0, # of connection points: 4
#     Node 15, Type 0, BuildingBlock: GALJAG_clean_sbu_0, # of connection points: 4
#     Node 16, Type 0, BuildingBlock: GALJAG_clean_sbu_0, # of connection points: 4
#     Node 17, Type 0, BuildingBlock: GALJAG_clean_sbu_0, # of connection points: 4
#     Node 18, Type 0, BuildingBlock: GALJAG_clean_sbu_0, # of connection points: 4
#     Node 19, Type 0, BuildingBlock: GALJAG_clean_sbu_0, # of connection points: 4
#     Node 20, Type 0, BuildingBlock: GALJAG_clean_sbu_0, # of connection points: 4
#     Node 21, Type 0, BuildingBlock: GALJAG_clean_sbu_0, # of connection points: 4
#     Node 22, Type 0, BuildingBlock: GALJAG_clean_sbu_0, # of connection points: 4
#     Node 23, Type 0, BuildingBlock: GALJAG_clean_sbu_0, # of connection points: 4
#     Node 24, Type 1, BuildingBlock: KUMBUR_clean_sbu_0, # of connection points: 6
#     Node 25, Type 1, BuildingBlock: KUMBUR_clean_sbu_0, # of connection points: 6
#     Node 26, Type 1, BuildingBlock: KUMBUR_clean_sbu_0, # of connection points: 6
#     Node 27, Type 1, BuildingBlock: KUMBUR_clean_sbu_0, # of connection points: 6
#     Node 28, Type 1, BuildingBlock: KUMBUR_clean_sbu_0, # of connection points: 6
#     Node 29, Type 1, BuildingBlock: KUMBUR_clean_sbu_0, # of connection points: 6
#     Node 30, Type 1, BuildingBlock: KUMBUR_clean_sbu_0, # of connection points: 6
#     Node 31, Type 1, BuildingBlock: KUMBUR_clean_sbu_0, # of connection points: 6
#     Node 32, Type 1, BuildingBlock: KUMBUR_clean_sbu_0, # of connection points: 6
#     Node 33, Type 1, BuildingBlock: KUMBUR_clean_sbu_0, # of connection points: 6
#     Node 34, Type 1, BuildingBlock: KUMBUR_clean_sbu_0, # of connection points: 6
#     Node 35, Type 1, BuildingBlock: KUMBUR_clean_sbu_0, # of connection points: 6
#     Node 36, Type 1, BuildingBlock: KUMBUR_clean_sbu_0, # of connection points: 6
#     Node 37, Type 1, BuildingBlock: KUMBUR_clean_sbu_0, # of connection points: 6
#     Node 38, Type 1, BuildingBlock: KUMBUR_clean_sbu_0, # of connection points: 6
#     Node 39, Type 1, BuildingBlock: KUMBUR_clean_sbu_0, # of connection points: 6
#     Edge 40, Type (0, 1), BuildingBlock: OJICUG_clean_linker_0, # of connection points: 2
#     Edge 41, Type (0, 1), BuildingBlock: OJICUG_clean_linker_0, # of connection points: 2
#     Edge 42, Type (0, 1), BuildingBlock: OJICUG_clean_linker_0, # of connection points: 2
#     Edge 43, Type (0, 1), BuildingBlock: OJICUG_clean_linker_0, # of connection points: 2
#     Edge 44, Type (0, 1), BuildingBlock: OJICUG_clean_linker_0, # of connection points: 2
#     Edge 45, Type (0, 1), BuildingBlock: OJICUG_clean_linker_0, # of connection points: 2
#     Edge 46, Type (0, 1), BuildingBlock: OJICUG_clean_linker_0, # of connection points: 2
#     Edge 47, Type (0, 1), BuildingBlock: OJICUG_clean_linker_0, # of connection points: 2
#     Edge 48, Type (0, 1), BuildingBlock: OJICUG_clean_linker_0, # of connection points: 2
#     Edge 49, Type (0, 1), BuildingBlock: OJICUG_clean_linker_0, # of connection points: 2
#     Edge 50, Type (0, 1), BuildingBlock: OJICUG_clean_linker_0, # of connection points: 2
#     Edge 51, Type (0, 1), BuildingBlock: OJICUG_clean_linker_0, # of connection points: 2
#     Edge 52, Type (0, 1), BuildingBlock: OJICUG_clean_linker_0, # of connection points: 2
#     Edge 53, Type (0, 1), BuildingBlock: OJICUG_clean_linker_0, # of connection points: 2
#     Edge 54, Type (0, 1), BuildingBlock: OJICUG_clean_linker_0, # of connection points: 2
#     Edge 55, Type (0, 1), BuildingBlock: OJICUG_clean_linker_0, # of connection points: 2
#     Edge 56, Type (0, 1), BuildingBlock: OJICUG_clean_linker_0, # of connection points: 2
#     Edge 57, Type (0, 1), BuildingBlock: OJICUG_clean_linker_0, # of connection points: 2
#     Edge 58, Type (0, 1), BuildingBlock: OJICUG_clean_linker_0, # of connection points: 2
#     Edge 59, Type (0, 1), BuildingBlock: OJICUG_clean_linker_0, # of connection points: 2
#     Edge 60, Type (0, 1), BuildingBlock: OJICUG_clean_linker_0, # of connection points: 2
#     Edge 61, Type (0, 1), BuildingBlock: OJICUG_clean_linker_0, # of connection points: 2
#     Edge 62, Type (0, 1), BuildingBlock: OJICUG_clean_linker_0, # of connection points: 2
#     Edge 63, Type (0, 1), BuildingBlock: OJICUG_clean_linker_0, # of connection points: 2
#     Edge 64, Type (0, 1), BuildingBlock: OJICUG_clean_linker_0, # of connection points: 2
#     Edge 65, Type (0, 1), BuildingBlock: OJICUG_clean_linker_0, # of connection points: 2
#     Edge 66, Type (0, 1), BuildingBlock: OJICUG_clean_linker_0, # of connection points: 2
#     Edge 67, Type (0, 1), BuildingBlock: OJICUG_clean_linker_0, # of connection points: 2
#     Edge 68, Type (0, 1), BuildingBlock: OJICUG_clean_linker_0, # of connection points: 2
#     Edge 69, Type (0, 1), BuildingBlock: OJICUG_clean_linker_0, # of connection points: 2
#     Edge 70, Type (0, 1), BuildingBlock: OJICUG_clean_linker_0, # of connection points: 2
#     Edge 71, Type (0, 1), BuildingBlock: OJICUG_clean_linker_0, # of connection points: 2
#     Edge 72, Type (0, 1), BuildingBlock: OJICUG_clean_linker_0, # of connection points: 2
#     Edge 73, Type (0, 1), BuildingBlock: OJICUG_clean_linker_0, # of connection points: 2
#     Edge 74, Type (0, 1), BuildingBlock: OJICUG_clean_linker_0, # of connection points: 2
#     Edge 75, Type (0, 1), BuildingBlock: OJICUG_clean_linker_0, # of connection points: 2
#     Edge 76, Type (0, 1), BuildingBlock: OJICUG_clean_linker_0, # of connection points: 2
#     Edge 77, Type (0, 1), BuildingBlock: OJICUG_clean_linker_0, # of connection points: 2
#     Edge 78, Type (0, 1), BuildingBlock: OJICUG_clean_linker_0, # of connection points: 2
#     Edge 79, Type (0, 1), BuildingBlock: OJICUG_clean_linker_0, # of connection points: 2
#     Edge 80, Type (0, 1), BuildingBlock: OJICUG_clean_linker_0, # of connection points: 2
#     Edge 81, Type (0, 1), BuildingBlock: OJICUG_clean_linker_0, # of connection points: 2
#     Edge 82, Type (0, 1), BuildingBlock: OJICUG_clean_linker_0, # of connection points: 2
#     Edge 83, Type (0, 1), BuildingBlock: OJICUG_clean_linker_0, # of connection points: 2
#     Edge 84, Type (0, 1), BuildingBlock: OJICUG_clean_linker_0, # of connection points: 2
#     Edge 85, Type (0, 1), BuildingBlock: OJICUG_clean_linker_0, # of connection points: 2
#     Edge 86, Type (0, 1), BuildingBlock: OJICUG_clean_linker_0, # of connection points: 2
#     Edge 87, Type (0, 1), BuildingBlock: OJICUG_clean_linker_0, # of connection points: 2
#     Edge 88, Type (0, 1), BuildingBlock: OJICUG_clean_linker_0, # of connection points: 2
#     Edge 89, Type (0, 1), BuildingBlock: OJICUG_clean_linker_0, # of connection points: 2
#     Edge 90, Type (0, 1), BuildingBlock: OJICUG_clean_linker_0, # of connection points: 2
#     Edge 91, Type (0, 1), BuildingBlock: OJICUG_clean_linker_0, # of connection points: 2
#     Edge 92, Type (0, 1), BuildingBlock: OJICUG_clean_linker_0, # of connection points: 2
#     Edge 93, Type (0, 1), BuildingBlock: OJICUG_clean_linker_0, # of connection points: 2
#     Edge 94, Type (0, 1), BuildingBlock: OJICUG_clean_linker_0, # of connection points: 2
#     Edge 95, Type (0, 1), BuildingBlock: OJICUG_clean_linker_0, # of connection points: 2
#     Edge 96, Type (0, 1), BuildingBlock: OJICUG_clean_linker_0, # of connection points: 2
#     Edge 97, Type (0, 1), BuildingBlock: OJICUG_clean_linker_0, # of connection points: 2
#     Edge 98, Type (0, 1), BuildingBlock: OJICUG_clean_linker_0, # of connection points: 2
#     Edge 99, Type (0, 1), BuildingBlock: OJICUG_clean_linker_0, # of connection points: 2
#     Edge 100, Type (0, 1), BuildingBlock: OJICUG_clean_linker_0, # of connection points: 2
#     Edge 101, Type (0, 1), BuildingBlock: OJICUG_clean_linker_0, # of connection points: 2
#     Edge 102, Type (0, 1), BuildingBlock: OJICUG_clean_linker_0, # of connection points: 2
#     Edge 103, Type (0, 1), BuildingBlock: OJICUG_clean_linker_0, # of connection points: 2
#     Edge 104, Type (0, 1), BuildingBlock: OJICUG_clean_linker_0, # of connection points: 2
#     Edge 105, Type (0, 1), BuildingBlock: OJICUG_clean_linker_0, # of connection points: 2
#     Edge 106, Type (0, 1), BuildingBlock: OJICUG_clean_linker_0, # of connection points: 2
#     Edge 107, Type (0, 1), BuildingBlock: OJICUG_clean_linker_0, # of connection points: 2
#     Edge 108, Type (0, 1), BuildingBlock: OJICUG_clean_linker_0, # of connection points: 2
#     Edge 109, Type (0, 1), BuildingBlock: OJICUG_clean_linker_0, # of connection points: 2
#     Edge 110, Type (0, 1), BuildingBlock: OJICUG_clean_linker_0, # of connection points: 2
#     Edge 111, Type (0, 1), BuildingBlock: OJICUG_clean_linker_0, # of connection points: 2
#     Edge 112, Type (0, 1), BuildingBlock: OJICUG_clean_linker_0, # of connection points: 2
#     Edge 113, Type (0, 1), BuildingBlock: OJICUG_clean_linker_0, # of connection points: 2
#     Edge 114, Type (0, 1), BuildingBlock: OJICUG_clean_linker_0, # of connection points: 2
#     Edge 115, Type (0, 1), BuildingBlock: OJICUG_clean_linker_0, # of connection points: 2
#     Edge 116, Type (0, 1), BuildingBlock: OJICUG_clean_linker_0, # of connection points: 2
#     Edge 117, Type (0, 1), BuildingBlock: OJICUG_clean_linker_0, # of connection points: 2
#     Edge 118, Type (0, 1), BuildingBlock: OJICUG_clean_linker_0, # of connection points: 2
#     Edge 119, Type (0, 1), BuildingBlock: OJICUG_clean_linker_0, # of connection points: 2
#     Edge 120, Type (0, 1), BuildingBlock: OJICUG_clean_linker_0, # of connection points: 2
#     Edge 121, Type (0, 1), BuildingBlock: OJICUG_clean_linker_0, # of connection points: 2
#     Edge 122, Type (0, 1), BuildingBlock: OJICUG_clean_linker_0, # of connection points: 2
#     Edge 123, Type (0, 1), BuildingBlock: OJICUG_clean_linker_0, # of connection points: 2
#     Edge 124, Type (0, 1), BuildingBlock: OJICUG_clean_linker_0, # of connection points: 2
#     Edge 125, Type (0, 1), BuildingBlock: OJICUG_clean_linker_0, # of connection points: 2
#     Edge 126, Type (0, 1), BuildingBlock: OJICUG_clean_linker_0, # of connection points: 2
#     Edge 127, Type (0, 1), BuildingBlock: OJICUG_clean_linker_0, # of connection points: 2
#     Edge 128, Type (0, 1), BuildingBlock: OJICUG_clean_linker_0, # of connection points: 2
#     Edge 129, Type (0, 1), BuildingBlock: OJICUG_clean_linker_0, # of connection points: 2
#     Edge 130, Type (0, 1), BuildingBlock: OJICUG_clean_linker_0, # of connection points: 2
#     Edge 131, Type (0, 1), BuildingBlock: OJICUG_clean_linker_0, # of connection points: 2
#     Edge 132, Type (0, 1), BuildingBlock: OJICUG_clean_linker_0, # of connection points: 2
#     Edge 133, Type (0, 1), BuildingBlock: OJICUG_clean_linker_0, # of connection points: 2
#     Edge 134, Type (0, 1), BuildingBlock: OJICUG_clean_linker_0, # of connection points: 2
#     Edge 135, Type (0, 1), BuildingBlock: OJICUG_clean_linker_0, # of connection points: 2
# Relax obj value: 0.158
# Max RMSD: 0.348
# Mean RMSD: 0.173
data_MOF--net-gar--node1-GALJAG_clean_sbu_0--node2-KUMBUR_clean_sbu_0--edge1-OJICUG_clean_linker_0
_symmetry_space_group_name_H-M    P1
_symmetry_Int_Tables_number       1
_symmetry_cell_setting            triclinic
loop_
_symmetry_equiv_pos_as_xyz
'x, y, z'
_cell_length_a     46.912566
_cell_length_b     41.399999
_cell_length_c     41.494984
_cell_angle_alpha  100.81013
_cell_angle_beta   94.506808
_cell_angle_gamma 101.93342
loop_
_atom_site_label
_atom_site_type_symbol
_atom_site_fract_x
_atom_site_fract_y
_atom_site_fract_z
_atom_type_partial_charge
In0 In 0.15321 0.3462 0.39488 0.0
O1 O 0.17099 0.32449 0.34879 0.0
O2 O 0.20057 0.35967 0.38735 0.0
C3 C 0.09999 0.34219 0.36586 0.0
C4 C 0.14905 0.29881 0.43051 0.0
C5 C 0.15687 0.40866 0.42762 0.0
O6 O 0.12078 0.3367 0.34966 0.0
O7 O 0.10579 0.34837 0.39686 0.0
O8 O 0.15933 0.38467 0.44158 0.0
O9 O 0.1556 0.40199 0.3965 0.0
C10 C 0.19685 0.34078 0.35904 0.0
O11 O 0.16727 0.32672 0.43917 0.0
O12 O 0.13406 0.29407 0.4028 0.0
In13 In 1.01276 0.76373 0.67453 0.0
O14 O 1.00453 0.78103 0.62787 0.0
O15 O 0.03597 0.81468 0.66589 0.0
C16 C 1.00946 0.70651 0.63178 0.0
C17 C 0.06183 0.76186 0.70949 0.0
C18 C 0.96567 0.77178 0.70318 0.0
O19 O 0.01928 0.73535 0.62634 0.0
O20 O 1.00014 0.706 0.65949 0.0
O21 O 0.99014 0.77661 0.72019 0.0
O22 O 0.96534 0.76285 0.67255 0.0
C23 C 0.02352 0.80836 0.63651 0.0
O24 O 0.05736 0.78931 0.70343 0.0
O25 O 0.04097 0.73638 0.69949 0.0
In26 In 0.65331 0.85098 0.89636 0.0
O27 O 0.67117 0.8307 0.85027 0.0
O28 O 0.70155 0.8587 0.89208 0.0
C29 C 0.60297 0.85202 0.86397 0.0
C30 C 0.64289 0.7982 0.92509 0.0
C31 C 0.65885 0.91399 0.92958 0.0
O32 O 0.62563 0.85075 0.84974 0.0
O33 O 0.60549 0.85117 0.8943 0.0
O34 O 0.65853 0.8897 0.94403 0.0
O35 O 0.65895 0.90683 0.89873 0.0
C36 C 0.69747 0.84277 0.86242 0.0
O37 O 0.66132 0.82505 0.93865 0.0
O38 O 0.63057 0.79805 0.89698 0.0
In39 In 0.5106 0.26322 0.17617 0.0
O40 O 0.50461 0.23188 0.12506 0.0
O41 O 0.50549 0.20647 0.16516 0.0
C42 C 0.52289 0.30739 0.13763 0.0
C43 C 0.46422 0.26629 0.20883 0.0
C44 C 0.56242 0.26221 0.20691 0.0
O45 O 0.50648 0.27847 0.12771 0.0
O46 O 0.53156 0.31553 0.16831 0.0
O47 O 0.55651 0.2896 0.20249 0.0
O48 O 0.54201 0.23634 0.1969 0.0
C49 C 0.50408 0.20453 0.13431 0.0
O50 O 0.48987 0.27423 0.22359 0.0
O51 O 0.46234 0.25883 0.17792 0.0
In52 In 0.13213 0.83414 0.12935 0.0
O53 O 0.13167 0.78446 0.08792 0.0
O54 O 0.1176 0.77867 0.13385 0.0
C55 C 0.12555 0.89116 0.10144 0.0
C56 C 0.08168 0.82958 0.15751 0.0
C57 C 0.18502 0.84216 0.17019 0.0
O58 O 0.12477 0.8623 0.08371 0.0
O59 O 0.13168 0.89134 0.13165 0.0
O60 O 0.16148 0.84754 0.18047 0.0
O61 O 0.18287 0.83483 0.13886 0.0
C62 C 0.122 0.76379 0.10591 0.0
O63 O 0.10642 0.84504 0.17314 0.0
O64 O 0.08229 0.81674 0.12753 0.0
In65 In 0.53042 0.78219 0.45171 0.0
O66 O 0.55405 0.77188 0.40529 0.0
O67 O 0.58026 0.7998 0.44959 0.0
C68 C 0.4742 0.77668 0.4178 0.0
C69 C 0.53772 0.72493 0.47916 0.0
C70 C 0.54117 0.85196 0.47821 0.0
O71 O 0.49586 0.76957 0.40403 0.0
O72 O 0.4799 0.78414 0.449 0.0
O73 O 0.53528 0.83027 0.49621 0.0
O74 O 0.54204 0.83837 0.44853 0.0
C75 C 0.57948 0.78714 0.41928 0.0
O76 O 0.53734 0.75353 0.49665 0.0
O77 O 0.53268 0.72477 0.44878 0.0
In78 In 0.63109 0.3334 0.62721 0.0
O79 O 0.62947 0.28365 0.58515 0.0
O80 O 0.61597 0.2776 0.63125 0.0
C81 C 0.62578 0.39194 0.60037 0.0
C82 C 0.58146 0.32887 0.65684 0.0
C83 C 0.68419 0.33842 0.66641 0.0
O84 O 0.62297 0.3627 0.58236 0.0
O85 O 0.63323 0.39169 0.63021 0.0
O86 O 0.66233 0.34797 0.67749 0.0
O87 O 0.68042 0.32882 0.6352 0.0
C88 C 0.61995 0.26278 0.60305 0.0
O89 O 0.60647 0.34388 0.67202 0.0
O90 O 0.58137 0.31658 0.62659 0.0
In91 In 0.03243 0.28244 0.95427 0.0
O92 O 0.04248 0.25448 0.99884 0.0
O93 O 0.03119 0.22406 0.95164 0.0
C94 C 0.04457 0.35191 0.98278 0.0
C95 C 0.08044 0.28591 0.92024 0.0
C96 C 0.97747 0.27959 0.91888 0.0
O97 O 0.03168 0.32991 0.99768 0.0
O98 O 0.05156 0.33865 0.95551 0.0
O99 O 0.99956 0.27294 0.90577 0.0
O100 O 0.98204 0.28542 0.95014 0.0
C101 C 0.0396 0.22498 0.98152 0.0
O102 O 0.05465 0.27139 0.90687 0.0
O103 O 0.08207 0.29849 0.95071 0.0
In104 In 0.44042 0.06078 0.3359 0.0
O105 O 0.47236 0.08273 0.30384 0.0
O106 O 0.43349 0.04669 0.28047 0.0
C107 C 0.48476 0.07039 0.38186 0.0
C108 C 0.40304 0.0999 0.34124 0.0
C109 C 0.41329 0.9977 0.33224 0.0
O110 O 0.48015 0.04725 0.35655 0.0
O111 O 0.46621 0.0885 0.38473 0.0
O112 O 0.40644 1.02135 0.35178 0.0
O113 O 0.4336 1.00606 0.31526 0.0
C114 C 0.45803 0.06444 0.27741 0.0
O115 O 0.39713 0.0707 0.34726 0.0
O116 O 0.42898 0.11015 0.33529 0.0
In117 In 0.30437 0.21052 0.52264 0.0
O118 O 0.30667 0.25633 0.56756 0.0
O119 O 0.30701 0.20783 0.57675 0.0
C120 C 0.31155 0.23309 0.4647 0.0
C121 C 0.35231 0.18477 0.52619 0.0
C122 C 0.24946 0.17049 0.51552 0.0
O123 O 0.31582 0.25327 0.4926 0.0
O124 O 0.30292 0.20264 0.4663 0.0
O125 O 0.27259 0.15955 0.51675 0.0
O126 O 0.25376 0.20203 0.51719 0.0
C127 C 0.30787 0.2383 0.58909 0.0
O128 O 0.32768 0.16751 0.51192 0.0
O129 O 0.35309 0.21542 0.53778 0.0
In130 In 0.20682 0.02954 0.78663 0.0
O131 O 0.16619 0.04115 0.75017 0.0
O132 O 0.193 1.01522 0.72527 0.0
C133 C 0.17649 0.03224 0.84892 0.0
C134 C 0.24025 0.97249 0.78545 0.0
C135 C 0.24365 0.09736 0.79405 0.0
O136 O 0.1652 1.01558 0.81997 0.0
O137 O 0.2029 0.04659 0.84686 0.0
O138 O 0.25102 0.07045 0.78143 0.0
O139 O 0.21897 0.09024 0.80433 0.0
C140 C 0.17166 0.02923 0.72145 0.0
O141 O 0.24935 1.00096 0.77786 0.0
O142 O 0.21454 0.97234 0.79365 0.0
In143 In 0.36375 0.96867 0.01761 0.0
O144 O 0.34362 0.94178 0.05475 0.0
O145 O 0.38495 0.9765 0.06976 0.0
C146 C 0.34874 0.91684 0.96802 0.0
C147 C 0.32646 1.0084 0.02082 0.0
C148 C 0.41797 0.9856 1.00274 0.0
O149 O 0.35795 0.91389 0.99639 0.0
O150 O 0.34586 0.94586 0.96492 0.0
O151 O 0.40169 1.00657 1.00564 0.0
O152 O 0.4068 0.95688 1.0076 0.0
C153 C 0.36495 0.95458 0.07693 0.0
O154 O 0.35385 1.01998 0.02743 0.0
O155 O 0.31822 0.97682 1.01103 0.0
In156 In 0.35999 0.399 0.04975 0.0
O157 O 0.34777 0.35303 0.07552 0.0
O158 O 0.35768 0.40228 0.1051 0.0
C159 C 0.35468 0.37278 0.98329 0.0
C160 C 0.31285 0.42655 0.04917 0.0
C161 C 0.41604 0.4377 0.05665 0.0
O162 O 0.35833 0.35476 1.00421 0.0
O163 O 0.35352 0.40251 0.99615 0.0
O164 O 0.3937 0.44983 0.06035 0.0
O165 O 0.41046 0.40576 0.05095 0.0
C166 C 0.3492 0.37118 0.10406 0.0
O167 O 0.3383 0.44331 0.06133 0.0
O168 O 0.31108 0.39571 0.03729 0.0
In169 In 0.80268 0.14169 0.04387 0.0
O170 O 0.82111 0.09494 0.0414 0.0
O171 O 0.85052 0.14319 0.04721 0.0
C172 C 0.74536 0.12817 0.04809 0.0
C173 C 0.81315 0.18463 0.10002 0.0
C174 C 0.8025 0.1582 0.98571 0.0
O175 O 0.75965 0.10507 0.04661 0.0
O176 O 0.76008 0.15695 0.04705 0.0
O177 O 0.81905 0.17602 1.01093 0.0
O178 O 0.78751 0.13034 0.98936 0.0
C179 C 0.84738 0.11178 0.04417 0.0
O180 O 0.81117 0.19396 0.0729 0.0
O181 O 0.81097 0.1535 0.099 0.0
In182 In 0.23613 0.56177 0.23678 0.0
O183 O 0.27184 0.53953 0.2136 0.0
O184 O 0.24861 0.51691 0.24895 0.0
C185 C 0.26117 0.62631 0.244 0.0
C186 C 0.19322 0.543 0.18836 0.0
C187 C 0.20882 0.5714 0.2902 0.0
O188 O 0.27419 0.60643 0.25582 0.0
O189 O 0.23673 0.61289 0.22672 0.0
O190 O 0.1977 0.54988 0.2644 0.0
O191 O 0.23501 0.58655 0.29033 0.0
C192 C 0.2675 0.51593 0.22916 0.0
O193 O 0.19416 0.52741 0.21148 0.0
O194 O 0.21533 0.56628 0.18816 0.0
In195 In 0.85877 0.89838 0.54999 0.0
O196 O 0.84446 0.85255 0.57562 0.0
O197 O 0.85603 0.90165 0.60545 0.0
C198 C 0.85309 0.87232 0.48325 0.0
C199 C 0.8123 0.9272 0.54865 0.0
C200 C 0.91579 0.93519 0.55753 0.0
O201 O 0.85754 0.85443 0.50406 0.0
O202 O 0.85145 0.90182 0.49637 0.0
O203 O 0.8941 0.94839 0.56202 0.0
O204 O 0.90902 0.90325 0.55062 0.0
C205 C 0.84629 0.87069 0.60424 0.0
O206 O 0.83797 0.94371 0.56032 0.0
O207 O 0.81003 0.89608 0.53769 0.0
In208 In 0.96054 0.08307 0.28624 0.0
O209 O 1.00281 0.09892 0.25415 0.0
O210 O 0.96686 0.06441 0.2274 0.0
C211 C 0.99511 0.07868 0.3498 0.0
C212 C 0.92939 0.14224 0.28721 0.0
C213 C 0.92207 1.01604 0.28122 0.0
O214 O 1.00385 0.07463 0.32128 0.0
O215 O 0.97056 0.08688 0.34668 0.0
O216 O 0.92256 0.04189 0.30328 0.0
O217 O 0.93944 0.02403 0.26073 0.0
C218 C 0.99252 0.08082 0.22544 0.0
O219 O 0.92113 0.11254 0.26942 0.0
O220 O 0.9532 0.14266 0.30459 0.0
In221 In 0.30387 0.63874 0.55189 0.0
O222 O 0.32143 0.5911 0.54897 0.0
O223 O 0.35147 0.63896 0.55757 0.0
C224 C 0.24616 0.62458 0.55466 0.0
C225 C 0.31577 0.68597 0.60533 0.0
C226 C 0.30345 0.65594 0.49389 0.0
O227 O 0.26063 0.60164 0.5525 0.0
O228 O 0.26098 0.65392 0.55581 0.0
O229 O 0.3212 0.67199 0.51877 0.0
O230 O 0.28734 0.62873 0.49743 0.0
C231 C 0.34788 0.60747 0.55284 0.0
O232 O 0.31881 0.69228 0.57715 0.0
O233 O 0.30711 0.65534 0.60701 0.0
In234 In 0.46086 0.58391 0.78703 0.0
O235 O 0.42284 0.61375 0.76705 0.0
O236 O 0.45088 0.64233 0.80685 0.0
C237 C 0.42318 0.51625 0.78159 0.0
C238 C 0.49266 0.58165 0.72578 0.0
C239 C 0.49527 0.58141 0.85191 0.0
O240 O 0.41701 0.5436 0.79529 0.0
O241 O 0.44714 0.52286 0.76961 0.0
O242 O 0.5049 0.57921 0.82386 0.0
O243 O 0.4697 0.58696 0.84782 0.0
C244 C 0.42876 0.64246 0.78685 0.0
O245 O 0.50282 0.60003 0.75439 0.0
O246 O 0.46706 0.56516 0.72792 0.0
In247 In 0.73686 0.06729 0.73537 0.0
O248 O 0.77077 0.03656 0.72493 0.0
O249 O 0.73151 1.01533 0.7433 0.0
C250 C 0.77665 0.1225 0.73754 0.0
C251 C 0.69007 0.05587 0.69263 0.0
C252 C 0.71658 0.08375 0.79259 0.0
O253 O 0.77962 0.10246 0.75642 0.0
O254 O 0.7557 0.11183 0.71427 0.0
O255 O 0.71426 0.0535 0.77832 0.0
O256 O 0.73111 0.10543 0.77915 0.0
C257 C 0.75618 1.01207 0.7352 0.0
O258 O 0.69275 0.07442 0.72079 0.0
O259 O 0.71237 0.04512 0.68456 0.0
In260 In 0.80521 0.71234 0.02221 0.0
O261 O 0.82602 0.66755 0.01505 0.0
O262 O 0.85426 0.71546 0.03581 0.0
C263 C 0.74965 0.673 1.01135 0.0
C264 C 0.80829 0.7397 0.08897 0.0
C265 C 0.81306 0.73604 0.96473 0.0
O266 O 0.77241 0.66136 1.01178 0.0
O267 O 0.75469 0.70486 0.01555 0.0
O268 O 0.81019 0.75508 0.99148 0.0
O269 O 0.81173 0.70597 0.96724 0.0
C270 C 0.85161 0.68397 0.02677 0.0
O271 O 0.8136 0.75844 0.06818 0.0
O272 O 0.80127 0.70872 0.07584 0.0
In273 In 0.94571 0.55531 0.83653 0.0
O274 O 0.90367 0.56534 0.85209 0.0
O275 O 0.93144 0.60216 0.83158 0.0
C276 C 0.91702 0.49309 0.83419 0.0
C277 C 0.96045 0.55759 0.77664 0.0
C278 C 0.99004 0.56784 0.88251 0.0
O279 O 0.9092 0.51801 0.85042 0.0
O280 O 0.93999 0.49959 0.82051 0.0
O281 O 0.98452 0.54233 0.85938 0.0
O282 O 0.97237 0.58704 0.88316 0.0
C283 C 0.90687 0.59213 0.84122 0.0
O284 O 0.97678 0.57483 0.80228 0.0
O285 O 0.93611 0.54085 0.7815 0.0
In286 In 0.86023 0.46318 0.51872 0.0
O287 O 0.85434 0.42188 0.54705 0.0
O288 O 0.86488 0.47302 0.57416 0.0
C289 C 0.86124 0.41407 0.46842 0.0
C290 C 0.81505 0.49224 0.51432 0.0
C291 C 0.91574 0.49587 0.51986 0.0
O292 O 0.84966 0.40794 0.49364 0.0
O293 O 0.87039 0.44476 0.46796 0.0
O294 O 0.89662 0.49133 0.49536 0.0
O295 O 0.90656 0.48534 0.54464 0.0
C296 C 0.85928 0.44196 0.5748 0.0
O297 O 0.84124 0.50876 0.5199 0.0
O298 O 0.81169 0.46075 0.50934 0.0
In299 In 0.70803 0.53007 0.28641 0.0
O300 O 0.75002 0.50413 0.30204 0.0
O301 O 0.71827 0.4717 0.26813 0.0
C302 C 0.74472 0.59751 0.29106 0.0
C303 C 0.67339 0.53214 0.22211 0.0
C304 C 0.67491 0.53382 0.34686 0.0
O305 O 0.73617 0.58568 0.3155 0.0
O306 O 0.7361 0.5754 0.26482 0.0
O307 O 0.66557 0.51405 0.3187 0.0
O308 O 0.70004 0.55124 0.34444 0.0
C309 C 0.74303 0.47426 0.28464 0.0
O310 O 0.66338 0.53346 0.24999 0.0
O311 O 0.69942 0.52802 0.2263 0.0
Tb312 Tb 0.05174 0.03331 0.01629 0.0
C313 C 0.12807 0.15989 0.09112 0.0
C314 C 0.1386 0.19159 0.04849 0.0
C315 C 0.14299 0.22124 0.10555 0.0
C316 C 0.12988 0.16053 0.05839 0.0
C317 C 0.13431 0.19028 0.11514 0.0
C318 C 0.14535 0.22188 0.07227 0.0
C319 C 0.12641 0.15725 0.15689 0.0
N320 N 0.1213 0.12944 0.09962 0.0
C321 C 0.12296 0.12809 0.13257 0.0
C322 C 0.13217 0.18864 0.14818 0.0
Tb323 Tb 0.11576 0.08227 0.05762 0.0
N324 N 0.12338 0.13072 0.03626 0.0
C325 C 0.12495 0.13066 1.00338 0.0
C326 C 0.1405 0.19133 0.01504 0.0
C327 C 0.13342 0.16069 0.99237 0.0
H328 H 0.12039 0.10411 0.14013 0.0
H329 H 0.13445 0.16012 0.9663 0.0
H330 H 0.15235 0.2459 0.06516 0.0
H331 H 0.12509 0.15531 0.18239 0.0
H332 H 0.11904 0.10784 0.98496 0.0
H333 H 0.02965 0.9549 0.1089 0.0
H334 H 0.14721 0.21459 1.00647 0.0
H335 H 0.0476 1.00986 0.93305 0.0
H336 H 0.0452 1.00691 0.09178 0.0
H337 H 0.03747 0.9578 0.89158 0.0
H338 H 0.14829 0.24477 0.12371 0.0
H339 H 0.01911 0.90088 0.06866 0.0
H340 H 0.01576 0.87002 1.01092 0.0
H341 H 0.13589 0.21141 0.16722 0.0
H342 H 0.01911 0.87067 0.95246 0.0
N343 N 0.04202 0.98557 0.03962 0.0
C344 C 0.03931 0.98492 0.07238 0.0
C345 C 0.02556 0.9243 0.06029 0.0
C346 C 0.02851 0.92439 0.02715 0.0
C347 C 0.03119 0.95468 0.08297 0.0
C348 C 0.03719 0.95562 0.01733 0.0
H349 H 0.02737 0.90283 0.90813 0.0
N350 N 0.04737 0.98597 0.97487 0.0
C351 C 0.03868 0.95676 0.91752 0.0
C352 C 0.04 0.95585 0.98423 0.0
C353 C 0.04505 0.98645 0.94161 0.0
C354 C 0.03295 0.92589 0.92696 0.0
C355 C 0.03293 0.92507 0.96044 0.0
O356 O 0.02742 0.04318 0.97588 0.0
O357 O 0.07943 0.08412 0.02337 0.0
O358 O 0.08112 0.08473 0.09445 0.0
O359 O 0.03793 0.04918 0.06717 0.0
O360 O 0.03721 0.08116 0.03056 0.0
O361 O 1.00701 1.01013 1.00661 0.0
O362 O 0.15029 0.08505 0.09342 0.0
O363 O 0.09415 0.02853 0.03906 0.0
O364 O 0.0848 0.03599 0.97767 0.0
O365 O 0.12973 0.06137 1.00778 0.0
O366 O 0.11141 0.04413 0.08766 0.0
O367 O 0.15889 0.08708 0.04301 0.0
C368 C 0.06103 0.1027 0.02971 0.0
C369 C 0.97555 0.03131 0.97288 0.0
C370 C 0.93217 0.04997 0.98872 0.0
C371 C 0.96062 0.04633 0.9974 0.0
C372 C 0.91908 0.03928 0.95576 0.0
C373 C 0.96234 1.02085 0.94002 0.0
C374 C 0.93421 0.0249 0.9315 0.0
C375 C 0.05291 0.06942 0.09512 0.0
C376 C 1.00358 0.02293 0.98055 0.0
C377 C 0.02462 0.89435 0.97042 0.0
C378 C 0.02255 0.894 1.00367 0.0
C379 C 0.09989 1.01767 0.06547 0.0
C380 C 0.2006 0.09529 0.08526 0.0
C381 C 0.21932 0.08086 0.0656 0.0
C382 C 0.24875 0.0849 0.07783 0.0
C383 C 0.25948 0.10448 0.10963 0.0
C384 C 0.21137 0.1148 0.11697 0.0
C385 C 0.24082 0.11947 0.12902 0.0
C386 C 0.11413 0.04579 0.97847 0.0
C387 C 0.16959 0.0884 0.07313 0.0
H388 H 0.97064 0.05427 0.02291 0.0
H389 H 0.89714 0.04222 0.94884 0.0
H390 H 0.97363 1.00885 0.92104 0.0
H391 H 0.92399 1.01656 0.90615 0.0
H392 H 0.21076 0.06579 0.04111 0.0
H393 H 0.28204 0.1074 0.11976 0.0
H394 H 0.197 0.12616 0.13245 0.0
H395 H 0.24896 0.13419 0.15363 0.0
Tb396 Tb 0.34472 0.80066 0.26603 0.0
C397 C 0.29623 0.89668 0.37124 0.0
C398 C 0.33954 0.9284 0.40817 0.0
C399 C 0.29484 0.94919 0.40844 0.0
C400 C 0.32504 0.89988 0.38369 0.0
C401 C 0.28055 0.92089 0.38409 0.0
C402 C 0.32435 0.95307 0.42027 0.0
C403 C 0.23688 0.88567 0.35072 0.0
N404 N 0.28301 0.86886 0.348 0.0
C405 C 0.25326 0.86237 0.339 0.0
C406 C 0.25065 0.9153 0.37314 0.0
Tb407 Tb 0.30922 0.82796 0.33612 0.0
N408 N 0.33865 0.8748 0.37233 0.0
C409 C 0.36723 0.87734 0.38494 0.0
C410 C 0.36875 0.93114 0.42023 0.0
C411 C 0.38267 0.90556 0.4084 0.0
H412 H 0.24194 0.8388 0.32277 0.0
H413 H 0.40537 0.90746 0.41741 0.0
H414 H 0.33507 0.97494 0.43923 0.0
H415 H 0.21352 0.8804 0.34294 0.0
H416 H 0.37942 0.85888 0.37625 0.0
H417 H 0.25057 0.71597 0.18477 0.0
H418 H 0.38068 0.95277 0.43877 0.0
H419 H 0.41326 0.79527 0.27765 0.0
H420 H 0.27441 0.76444 0.2268 0.0
H421 H 0.44455 0.75741 0.25589 0.0
H422 H 0.28314 0.96797 0.41863 0.0
H423 H 0.27794 0.67401 0.16162 0.0
H424 H 0.32553 0.65597 0.15968 0.0
H425 H 0.23783 0.93313 0.38263 0.0
H426 H 0.37824 0.66699 0.17907 0.0
N427 N 0.31729 0.75303 0.22859 0.0
C428 C 0.28808 0.74814 0.21685 0.0
C429 C 0.28915 0.69603 0.18015 0.0
C430 C 0.31888 0.70106 0.19135 0.0
C431 C 0.27373 0.71972 0.19296 0.0
C432 C 0.33239 0.72999 0.21586 0.0
H433 H 0.42277 0.70471 0.21481 0.0
N434 N 0.37366 0.76369 0.25049 0.0
C435 C 0.4212 0.75072 0.24782 0.0
C436 C 0.36164 0.73561 0.2272 0.0
C437 C 0.4033 0.77199 0.26022 0.0
C438 C 0.40884 0.72107 0.22464 0.0
C439 C 0.37875 0.7133 0.21385 0.0
O440 O 0.38148 0.82927 0.25121 0.0
O441 O 0.33773 0.84265 0.30161 0.0
O442 O 0.28804 0.84545 0.2945 0.0
O443 O 0.30384 0.81487 0.24904 0.0
O444 O 0.38021 0.83838 0.29602 0.0
O445 O 0.33839 0.82007 0.22352 0.0
O446 O 0.2696 0.80405 0.35005 0.0
O447 O 0.31773 0.78671 0.30188 0.0
O448 O 0.3657 0.7815 0.30616 0.0
O449 O 0.34859 0.80863 0.35318 0.0
O450 O 0.2751 0.78406 0.31071 0.0
O451 O 0.31105 0.81785 0.38381 0.0
C452 C 0.36426 0.85725 0.31003 0.0
C453 C 0.37973 0.83336 0.19608 0.0
C454 C 0.38989 0.86246 0.15216 0.0
C455 C 0.37456 0.85711 0.17852 0.0
C456 C 0.41074 0.84369 0.14296 0.0
C457 C 0.40012 0.81383 0.18708 0.0
C458 C 0.41559 0.81904 0.16033 0.0
C459 C 0.28564 0.83298 0.26207 0.0
C460 C 0.3662 0.83413 0.22602 0.0
C461 C 0.36548 0.68446 0.18961 0.0
C462 C 0.33553 0.67824 0.17852 0.0
C463 C 0.29253 0.76819 0.29567 0.0
C464 C 0.26683 0.79326 0.4042 0.0
C465 C 0.27683 0.7687 0.41692 0.0
C466 C 0.2602 0.75074 0.43667 0.0
C467 C 0.23318 0.75789 0.44417 0.0
C468 C 0.23981 0.80061 0.41104 0.0
C469 C 0.22312 0.78308 0.43146 0.0
C470 C 0.36743 0.79151 0.33895 0.0
C471 C 0.28261 0.80585 0.37922 0.0
H472 H 0.35923 0.87264 0.18629 0.0
H473 H 0.42287 0.84789 0.12241 0.0
H474 H 0.40456 0.79545 0.20099 0.0
H475 H 0.43158 0.80438 0.15338 0.0
H476 H 0.29699 0.76207 0.40961 0.0
H477 H 0.22004 0.74413 0.45967 0.0
H478 H 0.23149 0.81916 0.40013 0.0
H479 H 0.20222 0.78855 0.43689 0.0
Tb480 Tb 0.61517 0.05888 0.5305 0.0
C481 C 0.5114 1.00526 0.59931 0.0
C482 C 0.48418 0.95518 0.56047 0.0
C483 C 0.48191 0.95941 0.61941 0.0
C484 C 0.50342 0.98733 0.5672 0.0
C485 C 0.50029 0.99189 0.62578 0.0
C486 C 0.47394 0.94104 0.5868 0.0
C487 C 0.52467 0.04462 0.66249 0.0
N488 N 0.52923 0.03652 0.60443 0.0
C489 C 0.53516 0.05677 0.63542 0.0
C490 C 0.50742 1.0119 0.65773 0.0
Tb491 Tb 0.54517 0.05398 0.55846 0.0
N492 N 0.51341 1.00211 0.5425 0.0
C493 C 0.50332 0.98686 0.51022 0.0
C494 C 0.4752 0.93865 0.52749 0.0
C495 C 0.48452 0.95479 0.50226 0.0
H496 H 0.54834 0.08214 0.63952 0.0
H497 H 0.47725 0.94254 0.47666 0.0
H498 H 0.45932 0.91627 0.58216 0.0
H499 H 0.52984 0.06054 0.687 0.0
H500 H 0.51018 0.99885 0.4903 0.0
H501 H 0.68263 0.17069 0.61208 0.0
H502 H 0.46055 0.91386 0.52126 0.0
H503 H 0.61169 0.03047 0.44897 0.0
H504 H 0.64931 0.11474 0.59865 0.0
H505 H 0.63064 0.05176 0.40172 0.0
H506 H 0.4733 0.94855 0.63944 0.0
H507 H 0.70053 0.19843 0.56736 0.0
H508 H 0.70253 0.19535 0.50654 0.0
H509 H 0.49925 1.00259 0.67875 0.0
H510 H 0.6886 0.16291 0.44934 0.0
N511 N 0.64701 0.11063 0.54634 0.0
C512 C 0.6566 0.12628 0.57863 0.0
C513 C 0.68568 0.17376 0.5612 0.0
C514 C 0.677 0.15694 0.52826 0.0
C515 C 0.67568 0.15817 0.58649 0.0
C516 C 0.6575 0.12496 0.52158 0.0
H517 H 0.6621 0.10922 0.41007 0.0
N518 N 0.63126 0.07589 0.48432 0.0
C519 C 0.63593 0.06765 0.42624 0.0
C520 C 0.64952 0.10691 0.48948 0.0
C521 C 0.62513 0.0557 0.45326 0.0
C522 C 0.65368 0.10008 0.43106 0.0
C523 C 0.66095 0.12003 0.46301 0.0
O524 O 0.63253 1.01638 0.51572 0.0
O525 O 0.57526 0.0244 0.53792 0.0
O526 O 0.56966 0.03195 0.59118 0.0
O527 O 0.61519 0.06184 0.58334 0.0
O528 O 0.59235 1.01251 0.49519 0.0
O529 O 0.65599 0.057 0.5547 0.0
O530 O 0.52624 0.09439 0.57611 0.0
O531 O 0.58484 0.08847 0.55052 0.0
O532 O 0.59075 0.08026 0.49739 0.0
O533 O 0.54423 0.05258 0.50562 0.0
O534 O 0.56769 0.1014 0.59278 0.0
O535 O 0.50536 0.05683 0.5329 0.0
C536 C 0.57182 1.00144 0.51176 0.0
C537 C 0.68347 0.02457 0.52206 0.0
C538 C 0.72513 0.9983 0.519 0.0
C539 C 0.70092 1.00496 0.53462 0.0
C540 C 0.73185 1.01119 0.49091 0.0
C541 C 0.69074 0.03782 0.49426 0.0
C542 C 0.71475 0.03102 0.47869 0.0
C543 C 0.59802 0.04297 0.59949 0.0
C544 C 0.65634 0.02808 0.53621 0.0
C545 C 0.67973 0.15227 0.46937 0.0
C546 C 0.68767 0.17073 0.50193 0.0
C547 C 0.58798 0.11237 0.57586 0.0
C548 C 0.47533 0.0852 0.56556 0.0
C549 C 0.45842 0.105 0.55264 0.0
C550 C 0.43323 0.11059 0.56656 0.0
C551 C 0.42466 0.09591 0.59313 0.0
C552 C 0.46638 0.0701 0.5918 0.0
C553 C 0.44108 0.07544 0.60548 0.0
C554 C 0.56239 0.06953 0.48878 0.0
C555 C 0.50363 0.08393 0.55364 0.0
H556 H 0.69541 0.99445 0.55599 0.0
H557 H 0.75044 1.00603 0.47859 0.0
H558 H 0.67776 0.05293 0.48418 0.0
H559 H 0.72 0.04097 0.45702 0.0
H560 H 0.46538 0.117 0.53256 0.0
H561 H 0.40521 0.10017 0.60413 0.0
H562 H 0.47912 0.05487 0.6022 0.0
H563 H 0.43442 0.06407 0.62595 0.0
Tb564 Tb 0.29656 0.31582 0.7856 0.0
C565 C 0.39794 0.2686 0.84286 0.0
C566 C 0.41957 0.31552 0.88816 0.0
C567 C 0.42559 0.25923 0.89096 0.0
C568 C 0.40273 0.30243 0.85696 0.0
C569 C 0.41024 0.24678 0.85913 0.0
C570 C 0.43019 0.29356 0.90551 0.0
C571 C 0.3958 0.20366 0.80918 0.0
N572 N 0.38417 0.2579 0.81158 0.0
C573 C 0.38456 0.22647 0.79392 0.0
C574 C 0.40829 0.21368 0.84215 0.0
Tb575 Tb 0.36691 0.29697 0.78796 0.0
N576 N 0.39311 0.32292 0.83883 0.0
C577 C 0.40173 0.35732 0.84968 0.0
C578 C 0.42649 0.35043 0.90027 0.0
C579 C 0.41792 0.37144 0.88067 0.0
H580 H 0.3754 0.21878 0.76819 0.0
H581 H 0.42374 0.39857 0.88939 0.0
H582 H 0.44301 0.30311 0.92956 0.0
H583 H 0.39517 0.17855 0.79538 0.0
H584 H 0.39543 0.37443 0.83544 0.0
H585 H 0.24107 0.21021 0.68683 0.0
H586 H 0.43929 0.36146 0.92414 0.0
H587 H 0.2871 0.39368 0.80138 0.0
H588 H 0.26823 0.23652 0.74077 0.0
H589 H 0.26775 0.43219 0.77135 0.0
H590 H 0.43503 0.24282 0.90397 0.0
H591 H 0.22624 0.24527 0.64937 0.0
H592 H 0.2227 0.30277 0.64075 0.0
H593 H 0.41752 0.19617 0.85376 0.0
H594 H 0.23008 0.3636 0.66378 0.0
N595 N 0.27037 0.28747 0.73519 0.0
C596 C 0.26213 0.2529 0.72558 0.0
C597 C 0.2384 0.2573 0.67338 0.0
C598 C 0.24494 0.29238 0.68411 0.0
C599 C 0.24658 0.23746 0.6945 0.0
C600 C 0.261 0.30679 0.71554 0.0
H601 H 0.24643 0.41206 0.71272 0.0
N602 N 0.27869 0.35284 0.75954 0.0
C603 C 0.26722 0.40666 0.75875 0.0
C604 C 0.26544 0.34083 0.72818 0.0
C605 C 0.27817 0.38479 0.77564 0.0
C606 C 0.25532 0.39522 0.72566 0.0
C607 C 0.2536 0.36168 0.71021 0.0
O608 O 0.27322 0.33676 0.82264 0.0
O609 O 0.33327 0.31005 0.81779 0.0
O610 O 0.33745 0.24976 0.79657 0.0
O611 O 0.29147 0.2625 0.79266 0.0
O612 O 0.31672 0.35277 0.82938 0.0
O613 O 0.25665 0.2866 0.79514 0.0
O614 O 0.38956 0.27793 0.7494 0.0
O615 O 0.33032 0.30304 0.75556 0.0
O616 O 0.32682 0.3638 0.77864 0.0
O617 O 0.37273 0.35076 0.78215 0.0
O618 O 0.34692 0.26042 0.74371 0.0
O619 O 0.40817 0.32556 0.78167 0.0
C620 C 0.33518 0.33685 0.8396 0.0
C621 C 0.22176 0.31606 0.81724 0.0
C622 C 0.17459 0.31236 0.83988 0.0
C623 C 0.20319 0.30618 0.84074 0.0
C624 C 0.16524 0.32905 0.81596 0.0
C625 C 0.21144 0.33212 0.79335 0.0
C626 C 0.18354 0.33888 0.79298 0.0
C627 C 0.30831 0.24066 0.79564 0.0
C628 C 0.25192 0.31023 0.81808 0.0
C629 C 0.23908 0.34794 0.67814 0.0
C630 C 0.23483 0.31331 0.66506 0.0
C631 C 0.32848 0.27636 0.73347 0.0
C632 C 0.44115 0.29507 0.75702 0.0
C633 C 0.45971 0.30497 0.73384 0.0
C634 C 0.487 0.29599 0.73295 0.0
C635 C 0.49537 0.27664 0.7548 0.0
C636 C 0.45043 0.27673 0.77942 0.0
C637 C 0.47717 0.26715 0.77797 0.0
C638 C 0.35607 0.37286 0.77956 0.0
C639 C 0.41204 0.30328 0.75688 0.0
H640 H 0.21076 0.29349 0.85921 0.0
H641 H 0.14356 0.33438 0.81501 0.0
H642 H 0.22486 0.33949 0.7749 0.0
H643 H 0.17599 0.35164 0.77461 0.0
H644 H 0.45307 0.31969 0.71677 0.0
H645 H 0.51627 0.2694 0.75427 0.0
H646 H 0.43726 0.26983 0.7981 0.0
H647 H 0.48392 0.2526 0.79509 0.0
Tb648 Tb 0.07573 0.08643 0.55013 0.0
C649 C 0.1065 0.99611 0.44055 0.0
C650 C 0.06004 0.97379 0.40554 0.0
C651 C 0.10557 0.97399 0.38163 0.0
C652 C 0.07612 0.98881 0.43695 0.0
C653 C 0.1215 0.98825 0.41288 0.0
C654 C 0.07493 0.96678 0.37798 0.0
C655 C 0.16691 1.00456 0.44929 0.0
N656 N 0.12126 1.0084 0.47136 0.0
C657 C 0.15115 1.01104 0.47596 0.0
C658 C 0.15205 0.99342 0.41752 0.0
Tb659 Tb 0.09227 1.01333 0.51396 0.0
N660 N 0.06227 0.99501 0.46424 0.0
C661 C 0.03215 0.98566 0.46143 0.0
C662 C 0.02943 0.96541 0.40273 0.0
C663 C 0.01546 0.97138 0.43083 0.0
H664 H 0.16281 1.01625 0.50054 0.0
H665 H 0.99173 0.96476 0.42902 0.0
H666 H 0.06291 0.95515 0.3538 0.0
H667 H 0.19039 1.007 0.45343 0.0
H668 H 0.02016 0.98985 0.48222 0.0
H669 H 0.17957 0.12732 0.62929 0.0
H670 H 0.0164 0.95391 0.37907 0.0
H671 H 1.00803 0.09217 0.56443 0.0
H672 H 0.14766 0.10024 0.57821 0.0
H673 H 0.98343 0.11322 0.61172 0.0
H674 H 0.11675 0.96767 0.36025 0.0
H675 H 0.15844 0.14866 0.67948 0.0
H676 H 0.11406 0.15794 0.70627 0.0
H677 H 0.16425 0.98751 0.39691 0.0
H678 H 0.06075 0.15327 0.70176 0.0
N679 N 0.10775 0.10467 0.59806 0.0
C680 C 0.13762 0.10906 0.59932 0.0
C681 C 0.14406 0.13642 0.65685 0.0
C682 C 0.11367 0.13284 0.65545 0.0
C683 C 0.15606 0.12449 0.62862 0.0
C684 C 0.09585 0.11667 0.62535 0.0
H685 H 1.01196 0.13641 0.66685 0.0
N686 N 0.04962 0.10012 0.59307 0.0
C687 C 1.00654 0.11327 0.61532 0.0
C688 C 0.06582 0.11399 0.62285 0.0
C689 C 0.02051 0.10104 0.5887 0.0
C690 C 0.02272 0.12632 0.64636 0.0
C691 C 0.05281 0.12744 0.65031 0.0
O692 O 0.05293 0.12304 0.5408 0.0
O693 O 0.07522 0.05628 0.4993 0.0
O694 O 0.13267 0.05282 0.52094 0.0
O695 O 0.11272 0.09874 0.5219 0.0
O696 O 0.03841 0.07269 0.51061 0.0
O697 O 0.10078 0.13575 0.5545 0.0
O698 O 0.11474 0.97421 0.50807 0.0
O699 O 0.0965 0.04662 0.56301 0.0
O700 O 0.0402 0.04825 0.56177 0.0
O701 O 0.04931 0.99968 0.53117 0.0
O702 O 0.11875 1.01049 0.55957 0.0
O703 O 0.06918 0.96604 0.51964 0.0
C704 C 0.04976 0.0589 0.48571 0.0
C705 C 0.07796 0.18071 0.54577 0.0
C706 C 0.09681 0.22895 0.52293 0.0
C707 C 0.09635 0.19583 0.52548 0.0
C708 C 0.07911 0.24715 0.54113 0.0
C709 C 0.05979 0.1984 0.5635 0.0
C710 C 0.06056 0.23177 0.56133 0.0
C711 C 0.13492 0.08419 0.5178 0.0
C712 C 0.07715 0.14609 0.54736 0.0
C713 C 0.07037 0.14277 0.68046 0.0
C714 C 0.10072 0.14549 0.68301 0.0
C715 C 0.11278 0.03328 0.58196 0.0
C716 C 0.09201 0.91854 0.51395 0.0
C717 C 0.07639 0.90316 0.53622 0.0
C718 C 0.07902 0.87119 0.53999 0.0
C719 C 0.09669 0.85405 0.52059 0.0
C720 C 0.11008 0.90185 0.49487 0.0
C721 C 0.11218 0.86945 0.49804 0.0
C722 C 0.03267 1.01548 0.54954 0.0
C723 C 0.09206 0.95343 0.51402 0.0
H724 H 0.10984 0.18167 0.51118 0.0
H725 H 0.0791 0.27283 0.53903 0.0
H726 H 0.04524 0.18645 0.57902 0.0
H727 H 0.0466 0.24558 0.57501 0.0
H728 H 0.06286 0.91646 0.5514 0.0
H729 H 0.09893 0.82917 0.52339 0.0
H730 H 0.12276 0.91401 0.47796 0.0
H731 H 0.12617 0.85652 0.48343 0.0
Tb732 Tb 0.3702 0.83511 0.7784 0.0
C733 C 0.29427 0.73683 0.83835 0.0
C734 C 0.30507 0.68407 0.81218 0.0
C735 C 0.29042 0.69079 0.86752 0.0
C736 C 0.30326 0.71753 0.81178 0.0
C737 C 0.28687 0.72337 0.86608 0.0
C738 C 0.2995 0.67117 0.84059 0.0
C739 C 0.26905 0.77326 0.88653 0.0
N740 N 0.29048 0.7679 0.83574 0.0
C741 C 0.27639 0.78531 0.85829 0.0
C742 C 0.27482 0.74242 0.89076 0.0
Tb743 Tb 0.30367 0.78523 0.78897 0.0
N744 N 0.30789 0.73063 0.78455 0.0
C745 C 0.3126 0.71075 0.75604 0.0
C746 C 0.31103 0.66407 0.7835 0.0
C747 C 0.31408 0.67724 0.75508 0.0
H748 H 0.27116 0.80867 0.85473 0.0
H749 H 0.31804 0.66178 0.73253 0.0
H750 H 0.30112 0.64563 0.84153 0.0
H751 H 0.25868 0.78755 0.90481 0.0
H752 H 0.31555 0.7204 0.73388 0.0
H753 H 0.35503 0.96097 0.82425 0.0
H754 H 0.31243 0.63815 0.78273 0.0
H755 H 0.40972 0.81128 0.7196 0.0
H756 H 0.35701 0.90322 0.82756 0.0
H757 H 0.42454 0.82836 0.66819 0.0
H758 H 0.28516 0.68008 0.88879 0.0
H759 H 0.36284 0.98078 0.77233 0.0
H760 H 0.37548 0.96899 0.71426 0.0
H761 H 0.26879 0.73293 0.91247 0.0
H762 H 0.39321 0.93186 0.67061 0.0
N763 N 0.3653 0.88899 0.77742 0.0
C764 C 0.3602 0.91089 0.80443 0.0
C765 C 0.36355 0.95504 0.77348 0.0
C766 C 0.36983 0.93309 0.74636 0.0
C767 C 0.35922 0.94402 0.80283 0.0
C768 C 0.3709 0.89994 0.74929 0.0
H769 H 0.41195 0.8793 0.65326 0.0
N770 N 0.386 0.84972 0.73119 0.0
C771 C 0.41201 0.84268 0.6837 0.0
C772 C 0.3812 0.87929 0.72498 0.0
C773 C 0.40348 0.83298 0.71265 0.0
C774 C 0.40475 0.87135 0.67529 0.0
C775 C 0.3903 0.89088 0.69679 0.0
O776 O 0.41297 0.82853 0.78736 0.0
O777 O 0.35015 0.78399 0.78521 0.0
O778 O 0.32969 0.79837 0.83665 0.0
O779 O 0.35901 0.84692 0.82821 0.0
O780 O 0.39058 0.79016 0.77303 0.0
O781 O 0.40152 0.87391 0.81098 0.0
O782 O 0.26212 0.79638 0.78401 0.0
O783 O 0.32177 0.83533 0.77638 0.0
O784 O 0.35078 0.81296 0.72834 0.0
O785 O 0.30928 0.7758 0.73746 0.0
O786 O 0.29239 0.83345 0.80926 0.0
O787 O 0.26863 0.74862 0.75947 0.0
C788 C 0.37115 0.76701 0.78085 0.0
C789 C 0.45002 0.87705 0.79746 0.0
C790 C 0.50279 0.88438 0.80174 0.0
C791 C 0.47571 0.87051 0.81101 0.0
C792 C 0.50405 0.90443 0.7779 0.0
C793 C 0.4513 0.89791 0.77433 0.0
C794 C 0.47827 0.91127 0.76434 0.0
C795 C 0.3475 0.82778 0.84774 0.0
C796 C 0.42253 0.85839 0.80565 0.0
C797 C 0.3867 0.92265 0.69231 0.0
C798 C 0.37664 0.94382 0.71718 0.0
C799 C 0.30618 0.85439 0.79328 0.0
C800 C 0.22187 0.7514 0.77574 0.0
C801 C 0.19638 0.75912 0.76262 0.0
C802 C 0.16933 0.74588 0.77235 0.0
C803 C 0.1679 0.72569 0.79608 0.0
C804 C 0.22028 0.73072 0.79903 0.0
C805 C 0.19338 0.7183 0.80948 0.0
C806 C 0.32749 0.78834 0.71824 0.0
C807 C 0.24974 0.76708 0.76599 0.0
H808 H 0.4745 0.85375 0.82835 0.0
H809 H 0.52487 0.91517 0.77026 0.0
H810 H 0.43172 0.90366 0.76383 0.0
H811 H 0.4792 0.92695 0.74613 0.0
H812 H 0.19751 0.77482 0.74432 0.0
H813 H 0.14704 0.71537 0.80389 0.0
H814 H 0.2396 0.72405 0.80905 0.0
H815 H 0.19223 0.7026 0.82767 0.0
Tb816 Tb 0.58421 0.04563 0.06145 0.0
C817 C 0.51696 0.08995 0.95408 0.0
C818 C 0.48986 0.03571 0.92233 0.0
C819 C 0.4684 0.08469 0.9257 0.0
C820 C 0.5151 0.05609 0.9427 0.0
C821 C 0.4942 0.10502 0.94465 0.0
C822 C 0.46617 0.05001 0.91469 0.0
C823 C 0.52552 0.15934 0.97015 0.0
N824 N 0.54195 0.10855 0.97278 0.0
C825 C 0.54727 0.14307 0.97925 0.0
C826 C 0.49855 0.14016 0.95351 0.0
Tb827 Tb 0.5757 0.07986 0.98825 0.0
N828 N 0.53848 0.04341 0.95075 0.0
C829 C 0.53873 1.01067 0.93681 0.0
C830 C 0.48943 1.00183 0.90973 0.0
C831 C 0.51419 0.98943 0.91655 0.0
H832 H 0.56793 0.15797 0.9927 0.0
H833 H 0.51432 0.96337 0.90648 0.0
H834 H 0.44642 0.0347 0.89946 0.0
H835 H 0.52949 0.1866 0.97631 0.0
H836 H 0.55711 0.99989 0.94199 0.0
H837 H 0.64593 0.16371 0.14065 0.0
H838 H 0.47041 0.98528 0.89414 0.0
H839 H 0.59168 0.96785 0.05559 0.0
H840 H 0.60548 0.12824 0.10132 0.0
H841 H 0.62678 0.93804 0.07774 0.0
H842 H 0.45042 0.09567 0.91867 0.0
H843 H 0.6853 0.13942 0.16259 0.0
H844 H 0.70544 0.08821 0.16522 0.0
H845 H 0.48166 0.15277 0.94664 0.0
H846 H 0.70031 0.02682 0.14819 0.0
N847 N 0.62079 0.08253 0.09955 0.0
C848 C 0.62176 0.11625 0.11049 0.0
C849 C 0.66728 0.12326 0.14515 0.0
C850 C 0.66571 0.08872 0.13512 0.0
C851 C 0.64508 0.13702 0.13291 0.0
C852 C 0.6419 0.06885 0.11214 0.0
H853 H 0.67095 0.97057 0.11575 0.0
N854 N 0.61613 1.01667 0.08022 0.0
C855 C 0.63072 0.96526 0.08467 0.0
C856 C 0.63939 0.03466 0.10217 0.0
C857 C 0.61092 0.98219 0.07222 0.0
C858 C 0.65562 0.98371 0.10608 0.0
C859 C 0.66006 1.01884 0.11538 0.0
O860 O 0.55564 1.00669 0.07627 0.0
O861 O 0.55651 0.04876 0.01959 0.0
O862 O 0.55057 0.10456 0.02283 0.0
O863 O 0.56529 0.08968 0.07216 0.0
O864 O 0.55338 1.00214 0.02969 0.0
O865 O 0.56327 0.05868 0.10286 0.0
O866 O 0.60298 0.11959 0.97346 0.0
O867 O 0.60385 0.07586 0.02947 0.0
O868 O 0.60934 1.02077 0.02745 0.0
O869 O 0.59575 0.03587 0.9777 0.0
O870 O 0.60882 0.12225 0.01881 0.0
O871 O 0.59338 0.0683 0.94399 0.0
C872 C 0.54198 1.01894 1.0111 0.0
C873 C 0.54997 1.01669 0.13261 0.0
C874 C 0.52937 1.01893 0.18389 0.0
C875 C 0.53259 0.03012 0.15465 0.0
C876 C 0.54393 0.9945 0.19164 0.0
C877 C 0.56504 0.99257 0.14021 0.0
C878 C 0.56204 0.98161 0.16986 0.0
C879 C 0.55141 0.10691 0.05509 0.0
C880 C 0.55015 0.0274 0.10142 0.0
C881 C 0.68407 0.03846 0.13788 0.0
C882 C 0.68696 0.07338 0.14762 0.0
C883 C 0.61989 0.10498 0.03717 0.0
C884 C 0.60539 0.11286 0.9167 0.0
C885 C 0.62643 0.10651 0.89658 0.0
C886 C 0.62844 0.11933 0.86811 0.0
C887 C 0.60962 0.13957 0.85989 0.0
C888 C 0.58573 0.13223 0.90849 0.0
C889 C 0.58803 0.14579 0.88012 0.0
C890 C 0.60916 1.01834 0.99524 0.0
C891 C 0.60649 0.09985 0.94653 0.0
H892 H 0.52079 0.04862 0.1486 0.0
H893 H 0.54126 0.98555 0.21436 0.0
H894 H 0.57856 0.98184 0.12326 0.0
H895 H 0.57341 0.96281 0.1757 0.0
H896 H 0.6417 0.09168 0.90333 0.0
H897 H 0.61131 0.14992 0.83783 0.0
H898 H 0.56898 0.13712 0.92374 0.0
H899 H 0.57313 0.16104 0.87384 0.0
Tb900 Tb 0.35275 0.33588 0.29969 0.0
C901 C 0.2373 0.23704 0.23332 0.0
C902 C 0.21015 0.22651 0.27902 0.0
C903 C 0.18661 0.20522 0.22292 0.0
C904 C 0.23656 0.23916 0.26681 0.0
C905 C 0.21223 0.21967 0.21088 0.0
C906 C 0.18536 0.20897 0.25686 0.0
C907 C 0.24025 0.22922 0.16616 0.0
N908 N 0.26309 0.25 0.22272 0.0
C909 C 0.26464 0.24565 0.18922 0.0
C910 C 0.21395 0.21592 0.177 0.0
Tb911 Tb 0.30391 0.25826 0.26103 0.0
N912 N 0.26169 0.25384 0.28739 0.0
C913 C 0.26022 0.26137 0.32082 0.0
C914 C 0.20941 0.23185 0.3131 0.0
C915 C 0.23434 0.25037 0.33406 0.0
H916 H 0.28521 0.25181 0.17953 0.0
H917 H 0.2337 0.25625 0.36049 0.0
H918 H 0.16514 0.19816 0.26567 0.0
H919 H 0.24222 0.22536 0.13997 0.0
H920 H 0.27828 0.27708 0.33781 0.0
H921 H 0.42273 0.34106 0.20008 0.0
H922 H 0.18949 0.22279 0.3234 0.0
H923 H 0.37126 0.34631 0.38071 0.0
H924 H 0.37691 0.32753 0.22163 0.0
H925 H 0.41514 0.35657 0.41966 0.0
H926 H 0.16765 0.19108 0.20627 0.0
H927 H 0.46928 0.35649 0.23709 0.0
H928 H 0.49515 0.36498 0.29362 0.0
H929 H 0.19542 0.20206 0.15903 0.0
H930 H 0.49311 0.36636 0.35272 0.0
N931 N 0.39473 0.33822 0.27275 0.0
C932 C 0.39586 0.33614 0.23941 0.0
C933 C 0.44865 0.35138 0.2473 0.0
C934 C 0.44793 0.35196 0.28091 0.0
C935 C 0.42248 0.34296 0.22643 0.0
C936 C 0.42041 0.3448 0.29303 0.0
H937 H 0.46366 0.36236 0.3996 0.0
N938 N 0.3926 0.33832 0.33726 0.0
C939 C 0.41672 0.35206 0.39338 0.0
C940 C 0.41929 0.34439 0.32615 0.0
C941 C 0.39146 0.34462 0.3708 0.0
C942 C 0.44399 0.35561 0.38198 0.0
C943 C 0.44562 0.35273 0.34817 0.0
O944 O 0.34569 0.36958 0.34103 0.0
O945 O 0.3082 0.30615 0.29303 0.0
O946 O 0.31034 0.29242 0.22509 0.0
O947 O 0.3406 0.34492 0.25096 0.0
O948 O 0.31365 0.35462 0.28807 0.0
O949 O 0.37555 0.3862 0.30722 0.0
O950 O 0.31396 0.22788 0.21886 0.0
O951 O 0.34819 0.28829 0.26743 0.0
O952 O 0.34331 0.303 0.33662 0.0
O953 O 0.31414 0.2498 0.3108 0.0
O954 O 0.34296 0.24036 0.27468 0.0
O955 O 0.28479 0.20669 0.25127 0.0
C956 C 0.29407 0.32769 0.28767 0.0
C957 C 0.3516 0.42512 0.33499 0.0
C958 C 0.33055 0.46201 0.30709 0.0
C959 C 0.3406 0.4327 0.30585 0.0
C960 C 0.33065 0.48366 0.33751 0.0
C961 C 0.35169 0.44642 0.36556 0.0
C962 C 0.34111 0.4757 0.36678 0.0
C963 C 0.32434 0.32382 0.22478 0.0
C964 C 0.36312 0.39511 0.33352 0.0
C965 C 0.47282 0.35982 0.33613 0.0
C966 C 0.47397 0.35933 0.30257 0.0
C967 C 0.36224 0.26709 0.27389 0.0
C968 C 0.31023 0.17127 0.22098 0.0
C969 C 0.32226 0.1629 0.24902 0.0
C970 C 0.33358 0.13434 0.24624 0.0
C971 C 0.33244 0.11321 0.21528 0.0
C972 C 0.30967 0.151 0.18973 0.0
C973 C 0.32054 0.12171 0.18695 0.0
C974 C 0.32936 0.27159 0.33734 0.0
C975 C 0.29756 0.20059 0.22463 0.0
H976 H 0.34016 0.41614 0.28211 0.0
H977 H 0.32231 0.50632 0.33854 0.0
H978 H 0.36 0.44045 0.38831 0.0
H979 H 0.34107 0.49221 0.39031 0.0
H980 H 0.32268 0.17843 0.2733 0.0
H981 H 0.34134 0.09085 0.21303 0.0
H982 H 0.30081 0.15782 0.16773 0.0
H983 H 0.32002 0.10582 0.16294 0.0
Tb984 Tb 0.57721 0.59248 0.05546 0.0
C985 C 0.60842 0.49337 0.94844 0.0
C986 C 0.56319 0.47647 0.91102 0.0
C987 C 0.6088 0.46823 0.89059 0.0
C988 C 0.5786 0.49107 0.94279 0.0
C989 C 0.62378 0.48138 0.92252 0.0
C990 C 0.57855 0.46574 0.88486 0.0
C991 C 0.66682 0.49229 0.96227 0.0
N992 N 0.62194 0.50505 0.97979 0.0
C993 C 0.65052 0.50318 0.9872 0.0
C994 C 0.65347 0.48163 0.92969 0.0
Tb995 Tb 0.59277 0.52005 0.01937 0.0
N996 N 0.56437 0.50085 0.96885 0.0
C997 C 0.5343 0.49448 0.96494 0.0
C998 C 0.53266 0.47181 0.90674 0.0
C999 C 0.51813 0.48054 0.93393 0.0
H1000 H 0.66097 0.51084 1.01246 0.0
H1001 H 0.49443 0.47632 0.93112 0.0
H1002 H 0.56709 0.4546 0.86032 0.0
H1003 H 0.68957 0.49175 0.96827 0.0
H1004 H 0.52237 0.50059 0.9854 0.0
H1005 H 0.68482 0.63705 0.12758 0.0
H1006 H 0.52005 0.46064 0.88278 0.0
H1007 H 0.51033 0.59453 0.07919 0.0
H1008 H 0.65095 0.61645 0.07732 0.0
H1009 H 0.48838 0.60272 0.13078 0.0
H1010 H 0.62024 0.45898 0.87037 0.0
H1011 H 0.66625 0.64438 0.18186 0.0
H1012 H 0.62349 0.64234 0.21412 0.0
H1013 H 0.66601 0.47266 0.91046 0.0
H1014 H 0.57014 0.63204 0.21503 0.0
N1015 N 0.61199 0.60998 0.10141 0.0
C1016 C 0.6417 0.61903 0.10015 0.0
C1017 C 0.65089 0.63489 0.15953 0.0
C1018 C 0.62063 0.62738 0.16088 0.0
C1019 C 0.66143 0.63086 0.12899 0.0
C1020 C 0.60146 0.61476 0.13107 0.0
H1021 H 0.5198 0.61707 0.18432 0.0
N1022 N 0.55362 0.59822 0.10245 0.0
C1023 C 0.51164 0.60357 0.13151 0.0
C1024 C 0.57138 0.60838 0.13163 0.0
C1025 C 0.52415 0.59775 0.10221 0.0
C1026 C 0.52946 0.61181 0.16159 0.0
C1027 C 0.55975 0.61519 0.16195 0.0
O1028 O 0.55686 0.63285 0.06561 0.0
O1029 O 0.57621 0.56316 1.00448 0.0
O1030 O 0.62958 0.55649 1.00868 0.0
O1031 O 0.61649 0.60604 0.03066 0.0
O1032 O 0.54177 0.58457 0.01447 0.0
O1033 O 0.60009 0.64065 0.05125 0.0
O1034 O 0.61395 0.4851 0.0351 0.0
O1035 O 0.59242 0.54908 0.07037 0.0
O1036 O 0.53557 0.55501 0.05263 0.0
O1037 O 0.5513 0.50593 0.03913 0.0
O1038 O 0.62953 0.53315 0.05968 0.0
O1039 O 0.56778 0.47041 0.01433 0.0
C1040 C 0.55176 0.56787 0.99006 0.0
C1041 C 0.56993 0.67681 0.03806 0.0
C1042 C 0.58188 0.714 1.00027 0.0
C1043 C 0.58976 0.69156 0.01859 0.0
C1044 C 0.55443 0.72229 1.00174 0.0
C1045 C 0.54253 0.68543 0.03962 0.0
C1046 C 0.53487 0.70809 0.02148 0.0
C1047 C 0.63473 0.58959 0.01573 0.0
C1048 C 0.57827 0.65438 0.05857 0.0
C1049 C 0.57873 0.62676 0.1916 0.0
C1050 C 0.60909 0.63276 0.19107 0.0
C1051 C 0.61757 0.54605 0.08438 0.0
C1052 C 0.59182 0.42699 0.02375 0.0
C1053 C 0.57635 0.40851 0.04395 0.0
C1054 C 0.58056 0.37663 0.04573 0.0
C1055 C 0.59945 0.36241 0.02564 0.0
C1056 C 0.6111 0.41344 1.00398 0.0
C1057 C 0.6146 0.38083 1.00469 0.0
C1058 C 0.53102 0.52195 0.04845 0.0
C1059 C 0.58995 0.46176 0.02843 0.0
H1060 H 0.61121 0.68582 0.01764 0.0
H1061 H 0.54836 0.74012 0.98793 0.0
H1062 H 0.52712 0.67496 0.05515 0.0
H1063 H 0.51384 0.7148 0.02292 0.0
H1064 H 0.56168 0.41957 0.05936 0.0
H1065 H 0.60298 0.33758 0.02673 0.0
H1066 H 0.62366 0.42816 0.98874 0.0
H1067 H 0.62954 0.37014 0.98964 0.0
Tb1068 Tb 0.87248 0.33406 0.27382 0.0
C1069 C 0.7956 0.24508 0.33999 0.0
C1070 C 0.80645 0.19146 0.31679 0.0
C1071 C 0.79099 0.20094 0.37166 0.0
C1072 C 0.80518 0.22473 0.31471 0.0
C1073 C 0.7873 0.23297 0.36818 0.0
C1074 C 0.80053 0.18019 0.34596 0.0
C1075 C 0.7678 0.28247 0.38451 0.0
N1076 N 0.79147 0.27542 0.33525 0.0
C1077 C 0.77635 0.29338 0.3561 0.0
C1078 C 0.77392 0.25252 0.39099 0.0
Tb1079 Tb 0.80622 0.29055 0.288 0.0
N1080 N 0.8099 0.23619 0.2866 0.0
C1081 C 0.81294 0.21447 0.25859 0.0
C1082 C 0.81153 0.1698 0.28873 0.0
C1083 C 0.81369 0.18103 0.25918 0.0
H1084 H 0.77141 0.31648 0.35129 0.0
H1085 H 0.8163 0.16407 0.2369 0.0
H1086 H 0.80184 0.15488 0.34823 0.0
H1087 H 0.75655 0.29717 0.4014 0.0
H1088 H 0.81432 0.22255 0.2356 0.0
H1089 H 0.8712 0.45748 0.34472 0.0
H1090 H 0.81234 0.14392 0.28918 0.0
H1091 H 0.88208 0.31114 0.1921 0.0
H1092 H 0.87434 0.39881 0.33715 0.0
H1093 H 0.87656 0.3332 0.14232 0.0
H1094 H 0.78515 0.19134 0.39337 0.0
H1095 H 0.86341 0.48267 0.29627 0.0
H1096 H 0.85836 0.47665 0.23506 0.0
H1097 H 0.76711 0.24402 0.41292 0.0
H1098 H 0.85885 0.44248 0.18007 0.0
N1099 N 0.86769 0.38888 0.28432 0.0
C1100 C 0.87081 0.40858 0.31543 0.0
C1101 C 0.86463 0.45641 0.29263 0.0
C1102 C 0.86256 0.43672 0.26088 0.0
C1103 C 0.86911 0.44235 0.32 0.0
C1104 C 0.86435 0.40261 0.25738 0.0
H1105 H 0.86521 0.38915 0.14532 0.0
N1106 N 0.8686 0.35128 0.22387 0.0
C1107 C 0.8724 0.34723 0.16556 0.0
C1108 C 0.86444 0.38315 0.22626 0.0
C1109 C 0.87452 0.33431 0.19411 0.0
C1110 C 0.86611 0.37882 0.16741 0.0
C1111 C 0.86298 0.39763 0.19807 0.0
O1112 O 0.91048 0.34383 0.25151 0.0
O1113 O 0.85224 0.28419 0.28391 0.0
O1114 O 0.83088 0.30673 0.33672 0.0
O1115 O 0.87301 0.3418 0.32659 0.0
O1116 O 0.89497 0.29215 0.27835 0.0
O1117 O 0.91183 0.35995 0.30529 0.0
O1118 O 0.76449 0.30156 0.28415 0.0
O1119 O 0.82497 0.33891 0.27311 0.0
O1120 O 0.85756 0.29234 0.23335 0.0
O1121 O 0.80831 0.28581 0.23516 0.0
O1122 O 0.79943 0.34069 0.31071 0.0
O1123 O 0.77105 0.25423 0.25849 0.0
C1124 C 0.87462 0.26883 0.28465 0.0
C1125 C 0.95633 0.37624 0.27981 0.0
C1126 C 1.00727 0.38009 0.2973 0.0
C1127 C 0.97778 0.36934 0.30093 0.0
C1128 C 0.01549 0.39924 0.27363 0.0
C1129 C 0.96435 0.39548 0.25613 0.0
C1130 C 0.99399 0.40733 0.25339 0.0
C1131 C 0.85618 0.32833 0.3466 0.0
C1132 C 0.92609 0.35889 0.27949 0.0
C1133 C 0.86001 0.43107 0.20145 0.0
C1134 C 0.85981 0.45055 0.23277 0.0
C1135 C 0.81179 0.35944 0.29191 0.0
C1136 C 0.72414 0.2561 0.27465 0.0
C1137 C 0.69848 0.26308 0.26094 0.0
C1138 C 0.67125 0.24844 0.26945 0.0
C1139 C 0.66988 0.22761 0.29265 0.0
C1140 C 0.72253 0.23466 0.29724 0.0
C1141 C 0.69549 0.22088 0.30655 0.0
C1142 C 0.83064 0.28086 0.21955 0.0
C1143 C 0.75212 0.2725 0.26556 0.0
H1144 H 0.97152 0.35346 0.31845 0.0
H1145 H 0.03841 0.40734 0.27052 0.0
H1146 H 0.94775 0.40052 0.2393 0.0
H1147 H 1.00026 0.42184 0.23491 0.0
H1148 H 0.69965 0.27919 0.24301 0.0
H1149 H 0.64897 0.21628 0.29969 0.0
H1150 H 0.74195 0.22836 0.3075 0.0
H1151 H 0.69433 0.20462 0.32423 0.0
Tb1152 Tb 0.08468 0.54107 0.56135 0.0
C1153 C 0.01811 0.58749 0.45243 0.0
C1154 C 0.99443 0.53557 0.41401 0.0
C1155 C 0.97281 0.58443 0.41804 0.0
C1156 C 0.01717 0.55413 0.43908 0.0
C1157 C 0.99637 0.60331 0.44148 0.0
C1158 C 0.97189 0.55062 0.40423 0.0
C1159 C 0.02525 0.65643 0.47347 0.0
N1160 N 0.04171 0.60525 0.47403 0.0
C1161 C 0.04651 0.6397 0.48279 0.0
C1162 C 0.99976 0.63804 0.45315 0.0
Tb1163 Tb 0.07547 0.57626 0.4888 0.0
N1164 N 0.03956 0.54063 0.44897 0.0
C1165 C 0.04081 0.50866 0.43335 0.0
C1166 C 0.99558 0.50293 0.39854 0.0
C1167 C 0.01911 0.48964 0.40793 0.0
H1168 H 0.06685 0.65419 0.49717 0.0
H1169 H 0.02032 0.46442 0.39601 0.0
H1170 H 0.95414 0.53666 0.38526 0.0
H1171 H 0.02882 0.68354 0.48144 0.0
H1172 H 0.05795 0.4967 0.44008 0.0
H1173 H 0.13596 0.66529 0.63794 0.0
H1174 H 0.97869 0.48801 0.37902 0.0
H1175 H 0.10212 0.46743 0.56066 0.0
H1176 H 0.0968 0.62404 0.60197 0.0
H1177 H 0.14497 0.44651 0.57821 0.0
H1178 H 0.9558 0.59608 0.40947 0.0
H1179 H 0.18194 0.64984 0.65546 0.0
H1180 H 0.21108 0.6055 0.65465 0.0
H1181 H 0.98353 0.6511 0.44538 0.0
H1182 H 0.21401 0.5462 0.63758 0.0
N1183 N 0.11892 0.58306 0.59826 0.0
C1184 C 0.11586 0.61548 0.60944 0.0
C1185 C 0.16441 0.63095 0.63969 0.0
C1186 C 0.16731 0.59784 0.6292 0.0
C1187 C 0.13848 0.6397 0.62995 0.0
C1188 C 0.14389 0.57421 0.60845 0.0
H1189 H 0.18953 0.48673 0.60907 0.0
N1190 N 0.12294 0.51933 0.57856 0.0
C1191 C 0.1458 0.47332 0.58358 0.0
C1192 C 0.14596 0.54124 0.59816 0.0
C1193 C 0.12165 0.48534 0.57338 0.0
C1194 C 0.17084 0.49607 0.601 0.0
C1195 C 0.17087 0.53042 0.60927 0.0
O1196 O 0.06295 0.49719 0.57459 0.0
O1197 O 0.05622 0.54533 0.5204 0.0
O1198 O 0.04905 0.59844 0.5235 0.0
O1199 O 0.06056 0.58099 0.57268 0.0
O1200 O 0.05057 0.49968 0.53078 0.0
O1201 O 0.06754 0.54715 0.60693 0.0
O1202 O 0.10211 0.61806 0.47639 0.0
O1203 O 0.10428 0.57075 0.52883 0.0
O1204 O 0.10647 0.51423 0.5251 0.0
O1205 O 0.09457 0.53206 0.47634 0.0
O1206 O 0.1088 0.61802 0.51993 0.0
O1207 O 0.09498 0.56773 0.44536 0.0
C1208 C 0.03911 0.51681 0.5126 0.0
C1209 C 0.04241 0.4979 0.62556 0.0
C1210 C 1.01211 0.50043 0.66961 0.0
C1211 C 0.02897 0.51653 0.64869 0.0
C1212 C 1.0091 0.46568 0.66793 0.0
C1213 C 0.03949 0.46313 0.6237 0.0
C1214 C 0.02293 0.44712 0.64504 0.0
C1215 C 0.04834 0.59955 0.55546 0.0
C1216 C 0.05788 0.51444 0.60217 0.0
C1217 C 0.19454 0.55395 0.62913 0.0
C1218 C 0.19281 0.58766 0.63897 0.0
C1219 C 0.1203 0.59984 0.5368 0.0
C1220 C 0.10642 0.614 0.42003 0.0
C1221 C 0.12526 0.60499 0.39783 0.0
C1222 C 0.12792 0.6191 0.37014 0.0
C1223 C 0.11169 0.64274 0.36442 0.0
C1224 C 0.08962 0.6373 0.41453 0.0
C1225 C 0.09228 0.65161 0.38663 0.0
C1226 C 0.10565 0.51218 0.49291 0.0
C1227 C 0.10709 0.59981 0.44928 0.0
H1228 H 0.03081 0.54331 0.64981 0.0
H1229 H 0.99636 0.45311 0.68451 0.0
H1230 H 0.04984 0.44838 0.60572 0.0
H1231 H 0.02069 0.42035 0.64372 0.0
H1232 H 0.13843 0.58718 0.40239 0.0
H1233 H 0.1138 0.65386 0.34285 0.0
H1234 H 0.07498 0.64483 0.43169 0.0
H1235 H 0.07948 0.6697 0.38238 0.0
Tb1236 Tb 0.79592 0.81609 0.28413 0.0
C1237 C 0.89887 0.76719 0.34044 0.0
C1238 C 0.92262 0.81337 0.38565 0.0
C1239 C 0.92948 0.75684 0.38573 0.0
C1240 C 0.90426 0.80095 0.35533 0.0
C1241 C 0.91207 0.74489 0.355 0.0
C1242 C 0.93469 0.79101 0.40106 0.0
C1243 C 0.89351 0.70185 0.30563 0.0
N1244 N 0.88307 0.75686 0.31012 0.0
C1245 C 0.88141 0.72507 0.29194 0.0
C1246 C 0.90866 0.71169 0.33747 0.0
Tb1247 Tb 0.86623 0.79714 0.28837 0.0
N1248 N 0.89321 0.82198 0.339 0.0
C1249 C 0.90111 0.85622 0.35123 0.0
C1250 C 0.92931 0.84805 0.39895 0.0
C1251 C 0.91866 0.86958 0.38151 0.0
H1252 H 0.87024 0.71752 0.26701 0.0
H1253 H 0.92408 0.89655 0.39126 0.0
H1254 H 0.94885 0.80009 0.42433 0.0
H1255 H 0.89153 0.67657 0.29144 0.0
H1256 H 0.89334 0.87381 0.33872 0.0
H1257 H 0.73688 0.71679 0.18125 0.0
H1258 H 0.94327 0.85854 0.4222 0.0
H1259 H 0.78732 0.89423 0.3043 0.0
H1260 H 0.76184 0.73916 0.23683 0.0
H1261 H 0.7721 0.9364 0.27589 0.0
H1262 H 0.93978 0.74009 0.39734 0.0
H1263 H 0.72832 0.75538 0.14462 0.0
H1264 H 0.7301 0.8149 0.13821 0.0
H1265 H 0.91854 0.69385 0.34779 0.0
H1266 H 0.73956 0.87529 0.16423 0.0
N1267 N 0.76957 0.79119 0.23292 0.0
C1268 C 0.75894 0.75701 0.22189 0.0
C1269 C 0.73969 0.76565 0.16934 0.0
C1270 C 0.74824 0.80049 0.18159 0.0
C1271 C 0.74436 0.74383 0.18995 0.0
C1272 C 0.76299 0.81251 0.21395 0.0
H1273 H 0.75454 0.92082 0.21598 0.0
N1274 N 0.77979 0.85576 0.26053 0.0
C1275 C 0.77115 0.91119 0.26213 0.0
C1276 C 0.76834 0.8462 0.22837 0.0
C1277 C 0.77961 0.88723 0.27814 0.0
C1278 C 0.7614 0.90233 0.2283 0.0
C1279 C 0.75909 0.8692 0.21118 0.0
O1280 O 0.7734 0.83476 0.32317 0.0
O1281 O 0.83222 0.81048 0.3172 0.0
O1282 O 0.83703 0.75297 0.30266 0.0
O1283 O 0.79124 0.7611 0.28536 0.0
O1284 O 0.8158 0.85307 0.32818 0.0
O1285 O 0.75516 0.78697 0.29175 0.0
O1286 O 0.88822 0.7782 0.24915 0.0
O1287 O 0.83 0.80294 0.2554 0.0
O1288 O 0.8263 0.86265 0.27462 0.0
O1289 O 0.8725 0.85174 0.28504 0.0
O1290 O 0.84614 0.76027 0.24377 0.0
O1291 O 0.90766 0.82537 0.28203 0.0
C1292 C 0.83413 0.83729 0.33895 0.0
C1293 C 0.72177 0.81668 0.31731 0.0
C1294 C 0.67535 0.81472 0.34142 0.0
C1295 C 0.70312 0.8064 0.34062 0.0
C1296 C 0.66689 0.83381 0.31931 0.0
C1297 C 0.71231 0.83515 0.29518 0.0
C1298 C 0.68524 0.84394 0.29645 0.0
C1299 C 0.80805 0.74143 0.29487 0.0
C1300 C 0.75128 0.80905 0.31669 0.0
C1301 C 0.74644 0.85793 0.17808 0.0
C1302 C 0.74105 0.82356 0.16327 0.0
C1303 C 0.8278 0.77625 0.23339 0.0
C1304 C 0.93989 0.79455 0.25573 0.0
C1305 C 0.95866 0.80583 0.23324 0.0
C1306 C 0.98562 0.79614 0.23117 0.0
C1307 C 0.99349 0.77489 0.25125 0.0
C1308 C 0.94864 0.77404 0.27615 0.0
C1309 C 0.97509 0.76399 0.27367 0.0
C1310 C 0.85565 0.87273 0.27899 0.0
C1311 C 0.91097 0.80328 0.25667 0.0
H1312 H 0.71003 0.79186 0.35771 0.0
H1313 H 0.64583 0.84069 0.31958 0.0
H1314 H 0.7258 0.84285 0.27687 0.0
H1315 H 0.67833 0.85851 0.27944 0.0
H1316 H 0.9524 0.82202 0.21753 0.0
H1317 H 1.01412 0.76712 0.24984 0.0
H1318 H 0.9352 0.76563 0.29399 0.0
H1319 H 0.98141 0.74785 0.28934 0.0
Tb1320 Tb 0.84821 0.29969 0.75825 0.0
C1321 C 0.80045 0.39521 0.85383 0.0
C1322 C 0.84432 0.43073 0.88769 0.0
C1323 C 0.80026 0.45223 0.88255 0.0
C1324 C 0.8295 0.39955 0.86706 0.0
C1325 C 0.78537 0.42129 0.86246 0.0
C1326 C 0.82967 0.45699 0.89499 0.0
C1327 C 0.7406 0.38319 0.83494 0.0
N1328 N 0.78637 0.3649 0.83456 0.0
C1329 C 0.75621 0.35817 0.82722 0.0
C1330 C 0.75533 0.41513 0.85211 0.0
Tb1331 Tb 0.81307 0.32346 0.83043 0.0
N1332 N 0.84315 0.37345 0.86005 0.0
C1333 C 0.87208 0.37793 0.87238 0.0
C1334 C 0.87351 0.43478 0.90057 0.0
C1335 C 0.88745 0.40834 0.89273 0.0
H1336 H 0.74379 0.33321 0.81506 0.0
H1337 H 0.91028 0.41147 0.90203 0.0
H1338 H 0.84079 0.48099 0.91072 0.0
H1339 H 0.71707 0.37756 0.82815 0.0
H1340 H 0.88452 0.35924 0.86591 0.0
H1341 H 0.77317 0.23445 0.64673 0.0
H1342 H 0.88558 0.45836 0.91631 0.0
H1343 H 0.91399 0.28294 0.77034 0.0
H1344 H 0.80428 0.28405 0.68442 0.0
H1345 H 0.93632 0.23415 0.76308 0.0
H1346 H 0.78902 0.47246 0.8892 0.0
H1347 H 0.78059 0.17759 0.64933 0.0
H1348 H 0.81362 0.14366 0.6703 0.0
H1349 H 0.74307 0.43443 0.85852 0.0
H1350 H 0.85954 0.1434 0.70303 0.0
N1351 N 0.82287 0.2557 0.71538 0.0
C1352 C 0.8053 0.25939 0.68883 0.0
C1353 C 0.79285 0.19931 0.66756 0.0
C1354 C 0.81543 0.19646 0.69008 0.0
C1355 C 0.78851 0.23126 0.66614 0.0
C1356 C 0.83008 0.22541 0.71404 0.0
H1357 H 0.90631 0.17749 0.7369 0.0
N1358 N 0.87031 0.25434 0.75246 0.0
C1359 C 0.9131 0.23073 0.75543 0.0
C1360 C 0.85504 0.22479 0.73322 0.0
C1361 C 0.90006 0.2584 0.75978 0.0
C1362 C 0.8961 0.19888 0.74078 0.0
C1363 C 0.86707 0.19588 0.72784 0.0
O1364 O 0.89136 0.32746 0.76108 0.0
O1365 O 0.84639 0.33833 0.80053 0.0
O1366 O 0.7857 0.32951 0.78595 0.0
O1367 O 0.8049 0.30722 0.73897 0.0
O1368 O 0.84581 0.35091 0.7549 0.0
O1369 O 0.86521 0.30515 0.71387 0.0
O1370 O 0.77203 0.29938 0.84076 0.0
O1371 O 0.8143 0.28587 0.78752 0.0
O1372 O 0.8728 0.29049 0.80393 0.0
O1373 O 0.8518 0.30832 0.85181 0.0
O1374 O 0.8083 0.2697 0.83098 0.0
O1375 O 0.80547 0.33052 0.88006 0.0
C1376 C 0.84616 0.36236 0.78604 0.0
C1377 C 0.90384 0.35284 0.71683 0.0
C1378 C 0.90112 0.39365 0.68278 0.0
C1379 C 0.88725 0.36705 0.69634 0.0
C1380 C 0.93158 0.4064 0.69017 0.0
C1381 C 0.93423 0.36569 0.72426 0.0
C1382 C 0.94804 0.3925 0.71101 0.0
C1383 C 0.7843 0.32039 0.75326 0.0
C1384 C 0.8904 0.32336 0.72918 0.0
C1385 C 0.85102 0.16605 0.70674 0.0
C1386 C 0.82503 0.16629 0.68794 0.0
C1387 C 0.81074 0.26057 0.80022 0.0
C1388 C 0.76464 0.29586 0.89541 0.0
C1389 C 0.77376 0.26764 0.90173 0.0
C1390 C 0.76091 0.25071 0.92482 0.0
C1391 C 0.73864 0.26204 0.94141 0.0
C1392 C 0.74249 0.30735 0.91182 0.0
C1393 C 0.72947 0.29037 0.93481 0.0
C1394 C 0.87277 0.29619 0.83694 0.0
C1395 C 0.7781 0.31402 0.87202 0.0
H1396 H 0.86375 0.3571 0.69037 0.0
H1397 H 0.9427 0.42639 0.67907 0.0
H1398 H 0.94731 0.35461 0.73991 0.0
H1399 H 0.97155 0.40209 0.71637 0.0
H1400 H 0.79099 0.25906 0.88895 0.0
H1401 H 0.72892 0.24953 0.95992 0.0
H1402 H 0.73542 0.32947 0.90692 0.0
H1403 H 0.71252 0.29933 0.94773 0.0
Tb1404 Tb 0.85172 0.83905 0.801 0.0
C1405 C 0.73731 0.73444 0.72807 0.0
C1406 C 0.70684 0.72832 0.77191 0.0
C1407 C 0.68694 0.70216 0.71521 0.0
C1408 C 0.73408 0.74048 0.76114 0.0
C1409 C 0.71376 0.71498 0.70457 0.0
C1410 C 0.68325 0.70911 0.74871 0.0
C1411 C 0.74624 0.71795 0.66256 0.0
N1412 N 0.76429 0.74506 0.71929 0.0
C1413 C 0.76913 0.73602 0.687 0.0
C1414 C 0.71835 0.70726 0.67139 0.0
Tb1415 Tb 0.80226 0.76075 0.76148 0.0
N1416 N 0.75817 0.7564 0.78287 0.0
C1417 C 0.75602 0.76165 0.81606 0.0
C1418 C 0.70453 0.73443 0.80575 0.0
C1419 C 0.72923 0.7515 0.82792 0.0
H1420 H 0.79112 0.74093 0.68033 0.0
H1421 H 0.72784 0.75624 0.85424 0.0
H1422 H 0.6624 0.69869 0.75648 0.0
H1423 H 0.75045 0.71096 0.6372 0.0
H1424 H 0.77465 0.77412 0.83381 0.0
H1425 H 0.92368 0.87544 0.70956 0.0
H1426 H 0.68399 0.72562 0.815 0.0
H1427 H 0.8714 0.83873 0.88101 0.0
H1428 H 0.87848 0.86783 0.733 0.0
H1429 H 0.91496 0.84046 0.91654 0.0
H1430 H 0.66931 0.68601 0.69783 0.0
H1431 H 0.9688 0.86951 0.74005 0.0
H1432 H 0.99386 0.86197 0.79196 0.0
H1433 H 0.70083 0.69214 0.65266 0.0
H1434 H 0.9916 0.85264 0.84835 0.0
N1435 N 0.89409 0.8496 0.77512 0.0
C1436 C 0.89629 0.86147 0.74626 0.0
C1437 C 0.94815 0.86413 0.75018 0.0
C1438 C 0.9469 0.85586 0.78115 0.0
C1439 C 0.92277 0.86736 0.73289 0.0
C1440 C 0.91929 0.84826 0.79307 0.0
H1441 H 0.9626 0.8448 0.89475 0.0
N1442 N 0.89136 0.83512 0.83579 0.0
C1443 C 0.91607 0.83933 0.89039 0.0
C1444 C 0.9179 0.84107 0.82429 0.0
C1445 C 0.89079 0.8369 0.86925 0.0
C1446 C 0.94287 0.84203 0.87806 0.0
C1447 C 0.94422 0.8438 0.84496 0.0
O1448 O 0.84727 0.87068 0.84526 0.0
O1449 O 0.80745 0.80902 0.79348 0.0
O1450 O 0.80057 0.79444 0.72584 0.0
O1451 O 0.83827 0.84191 0.74971 0.0
O1452 O 0.81272 0.85777 0.78913 0.0
O1453 O 0.87283 0.89011 0.80941 0.0
O1454 O 0.81084 0.71824 0.73024 0.0
O1455 O 0.84809 0.7873 0.77706 0.0
O1456 O 0.83657 0.81036 0.83858 0.0
O1457 O 0.81925 0.75482 0.81077 0.0
O1458 O 0.83504 0.76018 0.72854 0.0
O1459 O 0.79155 0.71453 0.77626 0.0
C1460 C 0.79327 0.83071 0.78887 0.0
C1461 C 0.85066 0.92696 0.84294 0.0
C1462 C 0.82117 0.96113 0.82191 0.0
C1463 C 0.8346 0.93414 0.8166 0.0
C1464 C 0.82447 0.98207 0.85334 0.0
C1465 C 0.85434 0.94781 0.87447 0.0
C1466 C 0.84141 0.97559 0.87956 0.0
C1467 C 0.81903 0.82322 0.72443 0.0
C1468 C 0.86294 0.8973 0.83772 0.0
C1469 C 0.97136 0.85057 0.8328 0.0
C1470 C 0.97265 0.85612 0.80081 0.0
C1471 C 0.85667 0.77794 0.74945 0.0
C1472 C 0.79751 0.66324 0.74255 0.0
C1473 C 0.80984 0.65093 0.7676 0.0
C1474 C 0.81745 0.61998 0.76045 0.0
C1475 C 0.80893 0.59898 0.72898 0.0
C1476 C 0.78952 0.64317 0.71065 0.0
C1477 C 0.79441 0.61047 0.70419 0.0
C1478 C 0.82869 0.77775 0.83848 0.0
C1479 C 0.79909 0.69899 0.74909 0.0
H1480 H 0.83215 0.91863 0.79197 0.0
H1481 H 0.81415 1.00337 0.85741 0.0
H1482 H 0.86705 0.94253 0.895 0.0
H1483 H 0.84427 0.99183 0.90382 0.0
H1484 H 0.81692 0.66723 0.79191 0.0
H1485 H 0.81496 0.57485 0.72315 0.0
H1486 H 0.78053 0.65318 0.69081 0.0
H1487 H 0.78857 0.59485 0.67962 0.0
Tb1488 Tb 0.55194 0.53403 0.5165 0.0
C1489 C 0.62275 0.6622 0.58857 0.0
C1490 C 0.63218 0.69398 0.54562 0.0
C1491 C 0.63515 0.72369 0.60245 0.0
C1492 C 0.62458 0.66278 0.55557 0.0
C1493 C 0.62793 0.69273 0.61235 0.0
C1494 C 0.6375 0.7243 0.5692 0.0
C1495 C 0.62288 0.66023 0.6548 0.0
N1496 N 0.61842 0.63188 0.59776 0.0
C1497 C 0.62111 0.63115 0.63089 0.0
C1498 C 0.62671 0.69133 0.6456 0.0
Tb1499 Tb 0.61558 0.58528 0.55581 0.0
N1500 N 0.61995 0.63295 0.5334 0.0
C1501 C 0.62233 0.63319 0.50066 0.0
C1502 C 0.63486 0.69395 0.51235 0.0
C1503 C 0.62972 0.6634 0.48978 0.0
H1504 H 0.62118 0.60771 0.63886 0.0
H1505 H 0.6314 0.66302 0.46384 0.0
H1506 H 0.64365 0.74839 0.56198 0.0
H1507 H 0.62231 0.65864 0.68048 0.0
H1508 H 0.61772 0.61052 0.48206 0.0
H1509 H 0.53349 0.457 0.61058 0.0
H1510 H 0.64083 0.71735 0.50383 0.0
H1511 H 0.5469 0.50967 0.43305 0.0
H1512 H 0.54846 0.50863 0.59249 0.0
H1513 H 0.53604 0.45721 0.39206 0.0
H1514 H 0.63961 0.7473 0.62043 0.0
H1515 H 0.52165 0.40263 0.57076 0.0
H1516 H 0.51667 0.37114 0.51301 0.0
H1517 H 0.62979 0.71414 0.66446 0.0
H1518 H 0.51866 0.37108 0.45422 0.0
N1519 N 0.54366 0.48671 0.54043 0.0
C1520 C 0.542 0.48647 0.5734 0.0
C1521 C 0.52783 0.42588 0.56202 0.0
C1522 C 0.52978 0.42555 0.52863 0.0
C1523 C 0.53421 0.45645 0.58447 0.0
C1524 C 0.53814 0.45657 0.51833 0.0
H1525 H 0.52617 0.4026 0.40932 0.0
N1526 N 0.54724 0.48634 0.47526 0.0
C1527 C 0.53764 0.45649 0.41808 0.0
C1528 C 0.54013 0.4564 0.48502 0.0
C1529 C 0.54441 0.4864 0.44189 0.0
C1530 C 0.53204 0.42582 0.42792 0.0
C1531 C 0.53262 0.42542 0.46153 0.0
O1532 O 0.52682 0.54292 0.47614 0.0
O1533 O 0.57859 0.58537 0.5216 0.0
O1534 O 0.5823 0.58303 0.59468 0.0
O1535 O 0.53809 0.55029 0.56725 0.0
O1536 O 0.53659 0.58139 0.53082 0.0
O1537 O 0.50737 0.5101 0.5076 0.0
O1538 O 0.65522 0.61208 0.58433 0.0
O1539 O 0.59483 0.53123 0.53996 0.0
O1540 O 0.58456 0.53544 0.4773 0.0
O1541 O 0.62887 0.56672 0.50517 0.0
O1542 O 0.61555 0.54823 0.58728 0.0
O1543 O 0.65511 0.57417 0.54168 0.0
C1544 C 0.5597 0.60321 0.5283 0.0
C1545 C 0.47502 0.53045 0.47415 0.0
C1546 C 0.43128 0.54763 0.49088 0.0
C1547 C 0.45998 0.54453 0.49908 0.0
C1548 C 0.41805 0.53743 0.45797 0.0
C1549 C 0.46167 0.52045 0.44134 0.0
C1550 C 0.43329 0.52403 0.43328 0.0
C1551 C 0.55363 0.56943 0.59538 0.0
C1552 C 0.50332 0.52249 0.48138 0.0
C1553 C 0.52454 0.39491 0.47196 0.0
C1554 C 0.52324 0.39497 0.50539 0.0
C1555 C 0.60245 0.52109 0.5663 0.0
C1556 C 0.6961 0.58764 0.58258 0.0
C1557 C 0.71162 0.56765 0.5634 0.0
C1558 C 0.73836 0.5635 0.57668 0.0
C1559 C 0.74983 0.57886 0.60943 0.0
C1560 C 0.70743 0.60311 0.61556 0.0
C1561 C 0.73414 0.59841 0.62894 0.0
C1562 C 0.61337 0.54812 0.47687 0.0
C1563 C 0.67109 0.59642 0.56606 0.0
H1564 H 0.47011 0.5521 0.52455 0.0
H1565 H 0.39592 0.54 0.45141 0.0
H1566 H 0.47304 0.50916 0.42202 0.0
H1567 H 0.42299 0.51607 0.40795 0.0
H1568 H 0.70363 0.55648 0.5376 0.0
H1569 H 0.77088 0.57589 0.61962 0.0
H1570 H 0.69618 0.6195 0.63067 0.0
H1571 H 0.74285 0.61044 0.65418 0.0
Tb1572 Tb 0.1164 0.55939 0.03442 0.0
C1573 C 1.01011 0.5094 0.10283 0.0
C1574 C 0.97946 0.46208 0.06328 0.0
C1575 C 0.97558 0.46684 0.12198 0.0
C1576 C 1.00136 0.49228 0.07054 0.0
C1577 C 0.99705 0.4972 0.12894 0.0
C1578 C 0.96684 0.44928 0.0892 0.0
C1579 C 0.02566 0.54724 0.16654 0.0
N1580 N 0.03043 0.53898 0.1085 0.0
C1581 C 0.03773 0.55849 0.1398 0.0
C1582 C 1.00535 0.51636 0.16114 0.0
Tb1583 Tb 0.04724 0.5562 0.06281 0.0
N1584 N 1.01362 0.50582 0.04617 0.0
C1585 C 1.00418 0.49076 1.01371 0.0
C1586 C 0.97047 0.44604 0.03018 0.0
C1587 C 0.98281 0.46055 1.00529 0.0
H1588 H 0.05322 0.58253 0.14439 0.0
H1589 H 0.97575 0.44861 0.97958 0.0
H1590 H 0.94997 0.42613 0.08413 0.0
H1591 H 0.03188 0.56252 0.19127 0.0
H1592 H 1.01306 0.50164 0.99398 0.0
H1593 H 0.18684 0.67097 0.11301 0.0
H1594 H 0.95375 0.42277 0.02357 0.0
H1595 H 0.11091 0.5291 0.9525 0.0
H1596 H 0.15158 0.61635 0.10113 0.0
H1597 H 0.12993 0.54823 0.90457 0.0
H1598 H 0.96529 0.45701 0.14169 0.0
H1599 H 0.20598 0.69601 0.06721 0.0
H1600 H 0.208 0.69067 1.00619 0.0
H1601 H 0.9958 0.50786 0.18188 0.0
H1602 H 0.1926 0.65727 0.94956 0.0
N1603 N 0.1493 0.61046 0.04866 0.0
C1604 C 0.15928 0.62682 0.08067 0.0
C1605 C 0.19019 0.67199 0.06174 0.0
C1606 C 0.18091 0.65452 0.0291 0.0
C1607 C 0.17948 0.65793 0.08764 0.0
C1608 C 0.16021 0.62343 0.02331 0.0
H1609 H 0.16361 0.60417 0.91148 0.0
N1610 N 0.13206 0.5746 0.98718 0.0
C1611 C 0.13595 0.56455 0.92884 0.0
C1612 C 0.1514 0.60485 0.9915 0.0
C1613 C 0.12499 0.5539 0.95636 0.0
C1614 C 0.15496 0.59612 0.93285 0.0
C1615 C 0.1632 0.61653 0.96449 0.0
O1616 O 0.13301 0.51635 0.01946 0.0
O1617 O 0.07652 0.52478 0.04287 0.0
O1618 O 0.07156 0.53388 0.09548 0.0
O1619 O 0.11713 0.56346 0.08737 0.0
O1620 O 0.09193 0.51449 0.99906 0.0
O1621 O 0.15714 0.55678 0.05822 0.0
O1622 O 0.02899 0.59666 0.08231 0.0
O1623 O 0.08705 0.59006 0.05464 0.0
O1624 O 0.093 0.58253 1.00219 0.0
O1625 O 0.04645 0.55501 1.00999 0.0
O1626 O 0.07049 0.60315 0.0972 0.0
O1627 O 1.00884 0.56222 0.03681 0.0
C1628 C 0.0724 0.50226 0.01618 0.0
C1629 C 0.1839 0.52393 0.02495 0.0
C1630 C 0.22527 0.49728 0.02115 0.0
C1631 C 0.20134 0.50416 0.03719 0.0
C1632 C 0.23181 0.51018 0.99302 0.0
C1633 C 0.19096 0.5371 0.99703 0.0
C1634 C 0.21473 0.53017 0.98111 0.0
C1635 C 0.09964 0.54656 0.1048 0.0
C1636 C 0.15705 0.52777 0.03959 0.0
C1637 C 0.18335 0.6478 0.97 0.0
C1638 C 0.19213 0.6668 1.00224 0.0
C1639 C 0.09066 0.61389 0.08006 0.0
C1640 C 0.97836 0.58959 0.06968 0.0
C1641 C 0.96152 0.60895 0.05582 0.0
C1642 C 0.93463 0.61197 0.06697 0.0
C1643 C 0.92459 0.5957 0.09204 0.0
C1644 C 0.96825 0.57361 0.09495 0.0
C1645 C 0.94145 0.57665 0.10604 0.0
C1646 C 0.06466 0.57226 0.99345 0.0
C1647 C 1.00713 0.58839 0.0589 0.0
H1648 H 0.19603 0.49369 0.05863 0.0
H1649 H 0.25024 0.50489 0.98043 0.0
H1650 H 0.17801 0.55222 0.98709 0.0
H1651 H 0.2198 0.54013 0.95939 0.0
H1652 H 0.96929 0.62162 0.03646 0.0
H1653 H 0.90379 0.5979 0.10083 0.0
H1654 H 0.98111 0.55927 0.10651 0.0
H1655 H 0.9338 0.56437 0.1256 0.0
C1656 C 0.05452 0.19508 0.02812 0.0
C1657 C 0.04655 0.19423 0.99424 0.0
H1658 H 0.06523 0.16803 0.0657 0.0
C1659 C 0.04574 0.16325 0.97225 0.0
H1660 H 0.0558 0.21804 0.04619 0.0
C1661 C 0.0519 0.13459 0.98348 0.0
C1662 C 0.05923 0.13523 0.01736 0.0
H1663 H 0.04 0.16092 0.94599 0.0
H1664 H 0.05017 0.11144 0.9655 0.0
C1665 C 0.06028 0.16619 0.0394 0.0
C1666 C 0.23486 0.82763 0.18187 0.0
C1667 C 0.21185 0.84205 0.19333 0.0
H1668 H 0.27537 0.81344 0.19371 0.0
C1669 C 0.21401 0.85473 0.22774 0.0
H1670 H 0.23414 0.81725 0.15577 0.0
C1671 C 0.2381 0.85302 0.24973 0.0
C1672 C 0.26084 0.83786 0.23849 0.0
H1673 H 0.19688 0.86597 0.23785 0.0
H1674 H 0.23856 0.8634 0.27563 0.0
C1675 C 0.25869 0.82541 0.20394 0.0
C1676 C 0.55004 0.9081 0.52251 0.0
C1677 C 0.54647 0.89027 0.48919 0.0
H1678 H 0.56053 0.95699 0.55651 0.0
C1679 C 0.54874 0.90988 0.46478 0.0
H1680 H 0.54845 0.89424 0.54222 0.0
C1681 C 0.55516 0.94534 0.47287 0.0
C1682 C 0.55975 0.96346 0.50585 0.0
H1683 H 0.54602 0.89776 0.43887 0.0
H1684 H 0.55737 0.95885 0.45289 0.0
C1685 C 0.55675 0.94423 0.53076 0.0
C1686 C 0.55403 0.34405 0.70454 0.0
C1687 C 0.55498 0.32327 0.67392 0.0
H1688 H 0.53086 0.35196 0.74687 0.0
C1689 C 0.53144 0.29546 0.66111 0.0
H1690 H 0.57185 0.36565 0.71491 0.0
C1691 C 0.50815 0.28758 0.67951 0.0
C1692 C 0.50788 0.30773 0.71063 0.0
H1693 H 0.5318 0.27881 0.63772 0.0
H1694 H 0.49107 0.26495 0.67016 0.0
C1695 C 0.53059 0.3364 0.72268 0.0
C1696 C 0.03076 0.80938 0.5786 0.0
C1697 C 0.03484 0.82665 0.61178 0.0
H1698 H 0.04224 0.81012 0.52987 0.0
C1699 C 0.05266 0.85926 0.62112 0.0
H1700 H 0.01744 0.78391 0.57089 0.0
C1701 C 0.06671 0.8742 0.5975 0.0
C1702 C 0.06352 0.85622 0.56465 0.0
H1703 H 0.05621 0.87277 0.64665 0.0
H1704 H 0.08073 0.89932 0.60503 0.0
C1705 C 0.04519 0.82401 0.55523 0.0
C1706 C 0.57372 0.85668 0.81327 0.0
C1707 C 0.57687 0.85866 0.84755 0.0
H1708 H 0.54737 0.86351 0.77162 0.0
C1709 C 0.55621 0.87007 0.86664 0.0
H1710 H 0.58963 0.84813 0.7982 0.0
C1711 C 0.5327 0.87954 0.85168 0.0
C1712 C 0.52925 0.87725 0.81735 0.0
H1713 H 0.55852 0.87241 0.89322 0.0
H1714 H 0.51712 0.88863 0.86695 0.0
C1715 C 0.54991 0.86587 0.79819 0.0
C1716 C 0.51479 0.14768 0.1239 0.0
C1717 C 0.50924 0.17542 0.11177 0.0
H1718 H 0.53246 0.1039 0.11518 0.0
C1719 C 0.51445 0.17833 0.07953 0.0
H1720 H 0.51096 0.14498 0.14877 0.0
C1721 C 0.52744 0.15543 0.06074 0.0
C1722 C 0.53497 0.12899 0.07353 0.0
H1723 H 0.51055 0.19969 0.06965 0.0
H1724 H 0.53308 0.15984 0.03716 0.0
C1725 C 0.52754 0.12452 0.10483 0.0
C1726 C 0.21617 0.32292 0.30588 0.0
C1727 C 0.22115 0.33766 0.33982 0.0
H1728 H 0.23606 0.30923 0.26187 0.0
C1729 C 0.2498 0.34949 0.35576 0.0
H1730 H 0.19406 0.31351 0.29323 0.0
C1731 C 0.27325 0.34623 0.33826 0.0
C1732 C 0.26854 0.33165 0.30443 0.0
H1733 H 0.25415 0.36069 0.38195 0.0
H1734 H 0.29506 0.35452 0.35152 0.0
C1735 C 0.23995 0.32046 0.28803 0.0
C1736 C 0.03704 0.09766 0.18998 0.0
C1737 C 1.00841 0.07854 0.19229 0.0
H1738 H 0.07259 0.11075 0.16079 0.0
C1739 C 0.99509 0.05675 0.16145 0.0
H1740 H 0.0491 0.11497 0.21196 0.0
C1741 C 1.00896 0.05431 0.13122 0.0
C1742 C 0.03757 0.0734 0.12875 0.0
H1743 H 0.97339 0.04102 0.1605 0.0
H1744 H 0.9969 0.03677 0.10937 0.0
C1745 C 0.05094 0.09516 0.15967 0.0
C1746 C 0.31336 0.70549 0.46941 0.0
C1747 C 0.29492 0.6743 0.46962 0.0
H1748 H 0.31598 0.75522 0.46179 0.0
C1749 C 0.2654 0.66697 0.45586 0.0
H1750 H 0.33616 0.71173 0.48012 0.0
C1751 C 0.25379 0.69194 0.44506 0.0
C1752 C 0.27168 0.72416 0.44803 0.0
H1753 H 0.25072 0.64312 0.45614 0.0
H1754 H 0.23082 0.68638 0.4352 0.0
C1755 C 0.30168 0.7305 0.45949 0.0
C1756 C 0.65754 1.02082 0.64357 0.0
C1757 C 0.66237 0.04684 0.67162 0.0
H1758 H 0.6301 0.99734 0.59833 0.0
C1759 C 0.64056 0.06464 0.67951 0.0
H1760 H 0.67393 1.00641 0.63755 0.0
C1761 C 0.61545 0.05902 0.65748 0.0
C1762 C 0.6122 0.03545 0.62788 0.0
H1763 H 0.64382 0.08458 0.70141 0.0
H1764 H 0.60053 0.07577 0.66171 0.0
C1765 C 0.63224 1.01495 0.62178 0.0
C1766 C 0.35111 0.38599 0.92736 0.0
C1767 C 0.35209 0.36157 0.94651 0.0
H1768 H 0.34614 0.39713 0.8795 0.0
C1769 C 0.34993 0.3279 0.92989 0.0
H1770 H 0.35279 0.41216 0.9389 0.0
C1771 C 0.34575 0.31901 0.89482 0.0
C1772 C 0.34419 0.34384 0.87607 0.0
H1773 H 0.35068 0.30843 0.94388 0.0
H1774 H 0.34291 0.29285 0.88254 0.0
C1775 C 0.34735 0.37734 0.89301 0.0
C1776 C 0.03777 0.06223 0.38773 0.0
C1777 C 1.01087 0.07344 0.38378 0.0
H1778 H 0.07154 0.04974 0.41979 0.0
C1779 C 0.99841 0.07913 0.41396 0.0
H1780 H 0.04901 0.05705 0.3662 0.0
C1781 C 1.01115 0.07399 0.44493 0.0
C1782 C 0.03787 0.06286 0.44938 0.0
H1783 H 0.97814 0.08773 0.41383 0.0
H1784 H 0.99951 0.07916 0.46614 0.0
C1785 C 0.05091 0.0575 0.41926 0.0
C1786 C 0.34681 0.73157 0.64734 0.0
C1787 C 0.31885 0.71313 0.63332 0.0
H1788 H 0.3714 0.77057 0.68612 0.0
C1789 C 0.29373 0.72263 0.64402 0.0
H1790 H 0.36626 0.72432 0.63871 0.0
C1791 C 0.29662 0.75006 0.66997 0.0
C1792 C 0.32465 0.76781 0.68531 0.0
H1793 H 0.27202 0.70869 0.6325 0.0
H1794 H 0.27703 0.75628 0.67925 0.0
C1795 C 0.34971 0.75868 0.67358 0.0
C1796 C 0.67448 0.06782 0.8225 0.0
C1797 C 0.69691 0.09307 0.81618 0.0
H1798 H 0.63403 0.05683 0.84263 0.0
C1799 C 0.69667 0.12727 0.82696 0.0
H1800 H 0.67405 0.04129 0.81412 0.0
C1801 C 0.67354 0.13608 0.84281 0.0
C1802 C 0.65068 0.11073 0.84787 0.0
H1803 H 0.71376 0.14713 0.82211 0.0
H1804 H 0.67364 0.16249 0.85141 0.0
C1805 C 0.65138 0.07662 0.83807 0.0
C1806 C 0.34004 0.38091 0.16356 0.0
C1807 C 0.34068 0.35804 0.134 0.0
H1808 H 0.33354 0.38808 0.21472 0.0
C1809 C 0.33304 0.32329 0.13377 0.0
H1810 H 0.34552 0.40787 0.16473 0.0
C1811 C 0.32612 0.31186 0.16276 0.0
C1812 C 0.32614 0.3349 0.19252 0.0
H1813 H 0.33327 0.30495 0.11149 0.0
H1814 H 0.32247 0.28512 0.16219 0.0
C1815 C 0.33291 0.36954 0.19229 0.0
C1816 C 0.27578 1.01415 0.028 0.0
C1817 C 0.30559 0.02934 0.02929 0.0
H1818 H 0.23439 1.01989 0.04304 0.0
C1819 C 0.3159 0.06378 0.04324 0.0
H1820 H 0.26736 0.98751 0.0175 0.0
C1821 C 0.29701 0.08238 0.05769 0.0
C1822 C 0.26764 0.0667 0.05845 0.0
H1823 H 0.33884 0.07599 0.04445 0.0
H1824 H 0.30559 0.10871 0.06925 0.0
C1825 C 0.25692 0.0327 0.04259 0.0
C1826 C 0.69487 0.66485 1.00984 0.0
C1827 C 0.71976 0.65099 1.00864 0.0
H1828 H 0.64862 0.65629 1.01238 0.0
C1829 C 0.71601 0.61602 1.00683 0.0
H1830 H 0.69694 0.69163 1.01121 0.0
C1831 C 0.68818 0.59567 1.00736 0.0
C1832 C 0.66339 0.60978 1.00979 0.0
H1833 H 0.73473 0.60447 1.00604 0.0
H1834 H 0.68645 0.56924 1.00743 0.0
C1835 C 0.66711 0.64453 1.01048 0.0
C1836 C 0.762 0.41844 0.25702 0.0
C1837 C 0.76185 0.44534 0.28461 0.0
H1838 H 0.77713 0.37309 0.23589 0.0
C1839 C 0.78055 0.44369 0.3129 0.0
H1840 H 0.74855 0.41711 0.23419 0.0
C1841 C 0.79674 0.41739 0.31405 0.0
C1842 C 0.79755 0.39089 0.28657 0.0
H1843 H 0.78201 0.46252 0.33529 0.0
H1844 H 0.80878 0.41773 0.3375 0.0
C1845 C 0.77922 0.39264 0.25784 0.0
C1846 C 0.95727 0.4957 0.48688 0.0
C1847 C 0.94704 0.50593 0.51717 0.0
H1848 H 0.99425 0.4878 0.46261 0.0
C1849 C 0.96712 0.52095 0.54538 0.0
H1850 H 0.94204 0.48291 0.46502 0.0
C1851 C 0.99712 0.52559 0.54323 0.0
C1852 C 1.00746 0.51457 0.51308 0.0
H1853 H 0.95963 0.52825 0.56916 0.0
H1854 H 1.01216 0.53634 0.56556 0.0
C1855 C 0.98723 0.49898 0.4852 0.0
C1856 C 0.38758 0.1458 0.32049 0.0
C1857 C 0.37987 0.11388 0.32821 0.0
H1858 H 0.37889 0.17679 0.2869 0.0
C1859 C 0.35368 0.09113 0.31282 0.0
H1860 H 0.40774 0.16356 0.3321 0.0
C1861 C 0.33798 0.09809 0.28627 0.0
C1862 C 0.34786 0.12823 0.27601 0.0
H1863 H 0.34732 0.06628 0.3184 0.0
H1864 H 0.31908 0.0794 0.27278 0.0
C1865 C 0.37156 0.15297 0.29432 0.0
C1866 C 0.37877 0.13856 0.51305 0.0
C1867 C 0.37663 0.16893 0.53341 0.0
H1868 H 0.39941 0.09647 0.50757 0.0
C1869 C 0.39544 0.18166 0.56313 0.0
H1870 H 0.36441 0.12831 0.49005 0.0
C1871 C 0.41475 0.1631 0.57343 0.0
C1872 C 0.4159 0.13208 0.55375 0.0
H1873 H 0.39392 0.20483 0.57939 0.0
H1874 H 0.42808 0.17236 0.59723 0.0
C1875 C 0.39862 0.12041 0.523 0.0
C1876 C 0.76555 0.64734 0.26346 0.0
C1877 C 0.76208 0.6342 0.29249 0.0
H1878 H 0.78199 0.68981 0.24133 0.0
C1879 C 0.7749 0.6571 0.32255 0.0
H1880 H 0.75626 0.63132 0.23966 0.0
C1881 C 0.79036 0.69106 0.32344 0.0
C1882 C 0.79335 0.70419 0.29439 0.0
H1883 H 0.77296 0.64879 0.34567 0.0
H1884 H 0.79947 0.70735 0.34716 0.0
C1885 C 0.78046 0.68137 0.26443 0.0
C1886 C 0.86791 0.45563 0.81811 0.0
C1887 C 0.89821 0.45966 0.82645 0.0
H1888 H 0.82734 0.42065 0.79701 0.0
C1889 C 0.91096 0.43179 0.82224 0.0
H1890 H 0.85799 0.47726 0.82071 0.0
C1891 C 0.89355 0.39993 0.80955 0.0
C1892 C 0.86342 0.39586 0.8004 0.0
H1893 H 0.93438 0.43476 0.82829 0.0
H1894 H 0.9037 0.37853 0.80692 0.0
C1895 C 0.85058 0.42369 0.8043 0.0
C1896 C 0.11149 0.9242 0.05606 0.0
C1897 C 0.11843 0.92227 0.08961 0.0
H1898 H 0.10054 0.95458 0.02123 0.0
C1899 C 0.11779 0.95126 0.11338 0.0
H1900 H 0.11132 0.90268 0.03662 0.0
C1901 C 0.11103 0.98045 0.10463 0.0
C1902 C 0.10457 0.98314 0.07143 0.0
H1903 H 0.12256 0.95156 0.13941 0.0
H1904 H 0.1111 1.00154 0.12455 0.0
C1905 C 0.10496 0.95414 0.04711 0.0
C1906 C 0.94524 0.27135 0.86427 0.0
C1907 C 0.94958 0.28225 0.89888 0.0
H1908 H 0.91858 0.26554 0.81905 0.0
C1909 C 0.92767 0.297 0.91326 0.0
H1910 H 0.96124 0.25984 0.85181 0.0
C1911 C 0.9028 0.30102 0.8936 0.0
C1912 C 0.8986 0.29025 0.85869 0.0
H1913 H 0.93001 0.30613 0.93976 0.0
H1914 H 0.88705 0.31311 0.90588 0.0
C1915 C 0.92039 0.275 0.84494 0.0
C1916 C 0.60784 0.20582 0.61888 0.0
C1917 C 0.61397 0.22412 0.59383 0.0
H1918 H 0.59612 0.15805 0.63289 0.0
C1919 C 0.61341 0.20468 0.5616 0.0
H1920 H 0.60797 0.21907 0.64403 0.0
C1921 C 0.60605 0.16845 0.55495 0.0
C1922 C 0.59964 0.15055 0.58048 0.0
H1923 H 0.61793 0.21737 0.54139 0.0
H1924 H 0.60474 0.15461 0.52981 0.0
C1925 C 0.60103 0.17029 0.61243 0.0
C1926 C 0.63185 0.81553 0.41495 0.0
C1927 C 0.60588 0.79127 0.40118 0.0
H1928 H 0.67457 0.84175 0.40688 0.0
C1929 C 0.60486 0.77211 0.36914 0.0
H1930 H 0.63335 0.83089 0.43948 0.0
C1931 C 0.62859 0.77803 0.35079 0.0
C1932 C 0.65397 0.80325 0.36394 0.0
H1933 H 0.58534 0.75313 0.35783 0.0
H1934 H 0.62658 0.76393 0.32562 0.0
C1935 C 0.65559 0.82159 0.39643 0.0
C1936 C 0.12158 0.24569 0.44293 0.0
C1937 C 0.14122 0.27713 0.45384 0.0
H1938 H 0.09214 0.20535 0.45702 0.0
C1939 C 0.14907 0.29039 0.48785 0.0
H1940 H 0.1152 0.23511 0.41679 0.0
C1941 C 0.13543 0.27385 0.51064 0.0
C1942 C 0.1143 0.24371 0.49958 0.0
H1943 H 0.16407 0.31473 0.49682 0.0
H1944 H 0.14043 0.28522 0.53675 0.0
C1945 C 0.10835 0.22885 0.46579 0.0
C1946 C 0.59611 0.22755 0.22227 0.0
C1947 C 0.59095 0.2597 0.22198 0.0
H1948 H 0.62584 0.19908 0.23741 0.0
C1949 C 0.61299 0.28855 0.2361 0.0
H1950 H 0.57972 0.20485 0.21095 0.0
C1951 C 0.63957 0.28512 0.25126 0.0
C1952 C 0.64409 0.25285 0.25253 0.0
H1953 H 0.60953 0.31359 0.23584 0.0
H1954 H 0.65626 0.30754 0.26259 0.0
C1955 C 0.62242 0.22418 0.23744 0.0
C1956 C 0.65607 0.95478 0.98046 0.0
C1957 C 0.65182 0.94531 0.94595 0.0
H1958 H 0.647 0.98657 0.02307 0.0
C1959 C 0.63601 0.96244 0.92747 0.0
H1960 H 0.66821 0.94189 0.99514 0.0
C1961 C 0.62281 0.9871 0.94344 0.0
C1962 C 0.62554 0.99515 0.97809 0.0
H1963 H 0.63213 0.95521 0.90074 0.0
H1964 H 0.60954 0.99876 0.92863 0.0
C1965 C 0.6434 0.97989 0.99639 0.0
C1966 C 0.93548 0.77316 0.74978 0.0
C1967 C 0.93913 0.77631 0.7172 0.0
H1968 H 0.90519 0.77068 0.78599 0.0
C1969 C 0.91639 0.782 0.6967 0.0
H1970 H 0.9529 0.76841 0.7657 0.0
C1971 C 0.89006 0.78427 0.70844 0.0
C1972 C 0.88612 0.78089 0.7408 0.0
H1973 H 0.91878 0.78435 0.67142 0.0
H1974 H 0.87251 0.78811 0.69198 0.0
C1975 C 0.90858 0.7747 0.76139 0.0
C1976 C 0.17444 0.05464 0.9138 0.0
C1977 C 0.16041 0.03526 0.88211 0.0
H1978 H 0.17277 0.07306 0.96634 0.0
C1979 C 0.13049 1.01929 0.88338 0.0
H1980 H 0.19712 0.06799 0.91566 0.0
C1981 C 0.11603 1.02245 0.91332 0.0
C1982 C 0.13007 0.04167 0.94511 0.0
H1983 H 0.11774 1.00401 0.86076 0.0
H1984 H 0.09337 1.00932 0.9112 0.0
C1985 C 0.16004 0.0576 0.94378 0.0
C1986 C 0.85671 0.39524 0.60456 0.0
C1987 C 0.86318 0.43003 0.60532 0.0
H1988 H 0.86396 0.35628 0.62923 0.0
C1989 C 0.87766 0.45287 0.63407 0.0
H1990 H 0.84529 0.37722 0.58264 0.0
C1991 C 0.88832 0.44092 0.66058 0.0
C1992 C 0.88441 0.40613 0.65853 0.0
H1993 H 0.88271 0.47983 0.6352 0.0
H1994 H 0.90103 0.45875 0.68189 0.0
C1995 C 0.86728 0.38331 0.63116 0.0
C1996 C 0.52608 0.04993 0.40417 0.0
C1997 C 0.50911 0.07432 0.40687 0.0
H1998 H 0.5575 0.02982 0.42942 0.0
C1999 C 0.5141 0.10068 0.4347 0.0
H2000 H 0.52241 0.02931 0.38282 0.0
C2001 C 0.5345 0.10117 0.46083 0.0
C2002 C 0.5498 0.07547 0.45882 0.0
H2003 H 0.50118 0.11969 0.43704 0.0
H2004 H 0.53673 0.11998 0.48346 0.0
C2005 C 0.54634 0.05039 0.43036 0.0
C2006 C 0.81855 0.78571 0.14258 0.0
C2007 C 0.81102 0.75142 0.12598 0.0
H2008 H 0.82913 0.82114 0.18983 0.0
C2009 C 0.80683 0.72681 0.14545 0.0
H2010 H 0.82211 0.80542 0.12852 0.0
C2011 C 0.81097 0.73572 0.17995 0.0
C2012 C 0.81875 0.76964 0.1968 0.0
H2013 H 0.80107 0.70019 0.13401 0.0
H2014 H 0.80851 0.71569 0.19371 0.0
C2015 C 0.82233 0.79475 0.17771 0.0
C2016 C 0.16544 1.01994 0.6561 0.0
C2017 C 0.1558 0.03235 0.68666 0.0
H2018 H 0.16126 1.01153 0.60286 0.0
C2019 C 0.13132 0.0478 0.68231 0.0
H2020 H 0.18373 1.00773 0.65648 0.0
C2021 C 0.11741 0.04969 0.65001 0.0
C2022 C 0.12759 0.03743 0.61938 0.0
H2023 H 0.12226 0.05807 0.70412 0.0
H2024 H 0.09799 0.05984 0.64931 0.0
C2025 C 0.15212 1.02244 0.62435 0.0
C2026 C 0.88625 0.39499 0.42117 0.0
C2027 C 0.86427 0.38777 0.44136 0.0
H2028 H 0.90258 0.37975 0.3759 0.0
C2029 C 0.84449 0.35631 0.43416 0.0
H2030 H 0.90247 0.41872 0.42715 0.0
C2031 C 0.84426 0.33409 0.40445 0.0
C2032 C 0.86353 0.34352 0.38191 0.0
H2033 H 0.82797 0.34997 0.45017 0.0
H2034 H 0.82774 0.31082 0.39821 0.0
C2035 C 0.88631 0.37257 0.39192 0.0
C2036 C 0.46357 0.02408 0.22785 0.0
C2037 C 0.47268 0.05644 0.24824 0.0
H2038 H 0.47547 0.9864 0.1919 0.0
C2039 C 0.49943 0.07749 0.24511 0.0
H2040 H 0.44314 1.00726 0.23005 0.0
C2041 C 0.51777 0.06544 0.22339 0.0
C2042 C 0.50966 0.03213 0.20535 0.0
H2043 H 0.50686 0.10245 0.26075 0.0
H2044 H 0.53876 0.08151 0.22167 0.0
C2045 C 0.48216 1.01187 0.20664 0.0
C2046 C 0.82031 0.78109 0.93024 0.0
C2047 C 0.81751 0.74719 0.93269 0.0
H2048 H 0.82558 0.81717 0.89898 0.0
C2049 C 0.81888 0.72352 0.90386 0.0
H2050 H 0.81925 0.80001 0.95173 0.0
C2051 C 0.82275 0.73336 0.87353 0.0
C2052 C 0.8257 0.76728 0.87106 0.0
H2053 H 0.81676 0.69713 0.90463 0.0
H2054 H 0.82344 0.71431 0.85197 0.0
C2055 C 0.82427 0.79096 0.8999 0.0
C2056 C 0.86807 0.06082 0.03321 0.0
C2057 C 0.87234 0.09602 0.03924 0.0
H2058 H 0.88497 1.01824 1.0128 0.0
C2059 C 0.89967 0.11586 0.03562 0.0
H2060 H 0.84731 0.04509 0.03612 0.0
C2061 C 0.92118 0.1005 0.02254 0.0
C2062 C 0.91548 0.0653 1.01314 0.0
H2063 H 0.90356 0.14315 0.04024 0.0
H2064 H 0.94097 0.11604 0.01689 0.0
C2065 C 0.88959 0.04551 0.02014 0.0
C2066 C 0.46907 0.44481 0.04651 0.0
C2067 C 0.44581 0.45929 0.05652 0.0
H2068 H 0.51359 0.45275 0.03614 0.0
C2069 C 0.45084 0.49478 0.06451 0.0
H2070 H 0.46596 0.41763 0.03972 0.0
C2071 C 0.47828 0.51519 0.06219 0.0
C2072 C 0.50166 0.5008 0.05208 0.0
H2073 H 0.43338 0.50688 0.07214 0.0
H2074 H 0.48083 0.54218 0.06791 0.0
C2075 C 0.49651 0.46518 0.04437 0.0
C2076 C 0.41045 0.69884 0.81434 0.0
C2077 C 0.41157 0.67304 0.78621 0.0
H2078 H 0.39699 0.74502 0.83591 0.0
C2079 C 0.3959 0.67799 0.75703 0.0
H2080 H 0.42183 0.69813 0.83783 0.0
C2081 C 0.38168 0.70619 0.75587 0.0
C2082 C 0.37944 0.7313 0.78411 0.0
H2083 H 0.39557 0.66047 0.73402 0.0
H2084 H 0.37257 0.70857 0.73187 0.0
C2085 C 0.39521 0.72636 0.81333 0.0
C2086 C 0.19992 0.64502 0.55872 0.0
C2087 C 0.21405 0.61794 0.55339 0.0
H2088 H 0.1589 0.66031 0.55797 0.0
C2089 C 0.19716 0.5849 0.54429 0.0
H2090 H 0.21251 0.67088 0.56563 0.0
C2091 C 0.16669 0.57907 0.5395 0.0
C2092 C 0.15243 0.60603 0.5446 0.0
H2093 H 0.20746 0.56361 0.53971 0.0
H2094 H 0.15454 0.55338 0.53121 0.0
C2095 C 0.16933 0.63909 0.55432 0.0
C2096 C 0.8001 0.98984 0.7454 0.0
C2097 C 0.77022 0.98804 0.74783 0.0
H2098 H 0.84017 0.98252 0.76819 0.0
C2099 C 0.75628 0.971 0.77064 0.0
H2100 H 0.81116 1.00261 0.72778 0.0
C2101 C 0.77296 0.96097 0.7943 0.0
C2102 C 0.80332 0.96683 0.79439 0.0
H2103 H 0.73312 0.96893 0.77275 0.0
H2104 H 0.76246 0.95045 0.81357 0.0
C2105 C 0.81668 0.979 0.76869 0.0
C2106 C 0.79019 0.9773 0.56157 0.0
C2107 C 0.78751 0.94363 0.54533 0.0
H2108 H 0.77159 1.02091 0.56629 0.0
C2109 C 0.76197 0.92681 0.52372 0.0
H2110 H 0.80957 0.99077 0.57847 0.0
C2111 C 0.74043 0.94412 0.51674 0.0
C2112 C 0.74401 0.97822 0.53167 0.0
H2113 H 0.75938 0.90088 0.51084 0.0
H2114 H 0.72172 0.93143 0.49851 0.0
C2115 C 0.76849 0.99445 0.55483 0.0
C2116 C 0.41379 0.4506 0.76418 0.0
C2117 C 0.40491 0.47967 0.78031 0.0
H2118 H 0.40646 0.39608 0.75124 0.0
C2119 C 0.37887 0.47264 0.79566 0.0
H2120 H 0.43342 0.45384 0.75194 0.0
C2121 C 0.36275 0.43879 0.79467 0.0
C2122 C 0.37188 0.4098 0.77869 0.0
H2123 H 0.37093 0.49349 0.80888 0.0
H2124 H 0.34339 0.43536 0.80736 0.0
C2125 C 0.39802 0.41689 0.7637 0.0
C2126 C 0.24856 0.68172 0.257 0.0
C2127 C 0.27019 0.66278 0.25556 0.0
H2128 H 0.23893 0.73013 0.27188 0.0
C2129 C 0.29928 0.67835 0.26868 0.0
H2130 H 0.22577 0.66997 0.24794 0.0
C2131 C 0.30675 0.71283 0.28237 0.0
C2132 C 0.28515 0.73181 0.283 0.0
H2133 H 0.31611 0.66394 0.26835 0.0
H2134 H 0.32933 0.72455 0.29214 0.0
C2135 C 0.25593 0.71591 0.27112 0.0
C2136 C 0.5481 0.6938 0.52643 0.0
C2137 C 0.54444 0.69432 0.49231 0.0
H2138 H 0.5556 0.66576 0.56428 0.0
C2139 C 0.54764 0.66481 0.47051 0.0
H2140 H 0.54618 0.71561 0.54441 0.0
C2141 C 0.55363 0.63624 0.48206 0.0
C2142 C 0.55678 0.63552 0.51608 0.0
H2143 H 0.54532 0.66361 0.44412 0.0
H2144 H 0.55528 0.61426 0.46411 0.0
C2145 C 0.55372 0.66498 0.53796 0.0
C2146 C 0.72006 0.35619 0.72008 0.0
C2147 C 0.71037 0.33503 0.68852 0.0
H2148 H 0.75124 0.36949 0.76414 0.0
C2149 C 0.72478 0.30872 0.67916 0.0
H2150 H 0.70944 0.37655 0.72858 0.0
C2151 C 0.74785 0.30369 0.70034 0.0
C2152 C 0.75847 0.32541 0.73137 0.0
H2153 H 0.71751 0.29108 0.65574 0.0
H2154 H 0.75665 0.2819 0.69256 0.0
C2155 C 0.74393 0.35179 0.74084 0.0
C2156 C 0.06375 0.41004 0.97274 0.0
C2157 C 0.0507 0.39027 0.99406 0.0
H2158 H 0.07924 0.45852 0.96235 0.0
C2159 C 0.04395 0.40799 0.02422 0.0
H2160 H 0.06966 0.39815 0.94945 0.0
C2161 C 0.05056 0.4442 0.0325 0.0
C2162 C 0.06311 0.46367 1.01029 0.0
H2163 H 0.03385 0.39397 0.04151 0.0
H2164 H 0.04597 0.45673 0.05617 0.0
C2165 C 0.06935 0.44538 0.98037 0.0
C2166 C 0.03079 0.79722 0.16007 0.0
C2167 C 0.05473 0.82424 0.17388 0.0
H2168 H 0.98967 0.76716 0.16772 0.0
C2169 C 0.05366 0.84437 0.20484 0.0
H2170 H 0.03116 0.78109 0.13638 0.0
C2171 C 0.02977 0.83671 0.22237 0.0
C2172 C 1.00667 0.80868 0.20933 0.0
H2173 H 0.07177 0.86537 0.21602 0.0
H2174 H 0.03004 0.85158 0.24689 0.0
C2175 C 1.00702 0.78933 0.17783 0.0
C2176 C 0.55115 0.36002 0.12442 0.0
C2177 C 0.53541 0.32654 0.11396 0.0
H2178 H 0.57819 0.40227 0.11064 0.0
C2179 C 0.53435 0.30974 0.08097 0.0
H2180 H 0.55238 0.37328 0.1498 0.0
C2181 C 0.54944 0.32591 0.05887 0.0
C2182 C 0.56549 0.35918 0.06935 0.0
H2183 H 0.52264 0.28366 0.07241 0.0
H2184 H 0.54846 0.31251 0.03359 0.0
C2185 C 0.56596 0.37638 0.10214 0.0
C2186 C 0.05757 0.36907 0.36707 0.0
C2187 C 0.07302 0.34714 0.3498 0.0
H2188 H 0.02439 0.39732 0.36324 0.0
C2189 C 0.06518 0.33419 0.31585 0.0
H2190 H 0.06359 0.37966 0.39326 0.0
C2191 C 0.04324 0.34461 0.29888 0.0
C2192 C 0.02909 0.36805 0.31575 0.0
H2193 H 0.07679 0.31709 0.30226 0.0
H2194 H 0.03774 0.33499 0.27248 0.0
C2195 C 0.03555 0.37948 0.35002 0.0
C2196 C 0.03021 0.68236 0.58334 0.0
C2197 C 1.01425 0.67689 0.60971 0.0
H2198 H 0.05567 0.66284 0.54826 0.0
C2199 C 1.00749 0.64459 0.61704 0.0
H2200 H 0.03635 0.70712 0.57747 0.0
C2201 C 0.01774 0.61837 0.59864 0.0
C2202 C 0.03468 0.6247 0.57317 0.0
H2203 H 0.99547 0.64004 0.63759 0.0
H2204 H 1.01315 0.59366 0.60479 0.0
C2205 C 0.04088 0.65675 0.5659 0.0
C2206 C 0.71637 0.82896 0.80843 0.0
C2207 C 0.72157 0.83924 0.84307 0.0
H2208 H 0.73576 0.81864 0.76344 0.0
C2209 C 0.75013 0.84675 0.85925 0.0
H2210 H 0.69432 0.82293 0.79557 0.0
C2211 C 0.77332 0.84414 0.84108 0.0
C2212 C 0.76829 0.83422 0.80655 0.0
H2213 H 0.75455 0.85433 0.88593 0.0
H2214 H 0.79514 0.84928 0.85417 0.0
C2215 C 0.73982 0.82674 0.7901 0.0
C2216 C 0.49532 0.55768 0.66161 0.0
C2217 C 0.50872 0.57909 0.69263 0.0
H2218 H 0.49713 0.5379 0.60946 0.0
C2219 C 0.53772 0.59746 0.69053 0.0
H2220 H 0.47337 0.54247 0.66042 0.0
C2221 C 0.55186 0.59461 0.66034 0.0
C2222 C 0.53837 0.57334 0.6292 0.0
H2223 H 0.54993 0.61442 0.71263 0.0
H2224 H 0.5738 0.60955 0.66176 0.0
C2225 C 0.50938 0.55501 0.63145 0.0
C2226 C 0.81342 0.20273 0.95416 0.0
C2227 C 0.79383 0.17438 0.95962 0.0
H2228 H 0.81794 0.24986 0.93918 0.0
C2229 C 0.7638 0.16857 0.94858 0.0
H2230 H 0.83659 0.2078 0.96305 0.0
C2231 C 0.75304 0.19289 0.93564 0.0
C2232 C 0.77233 0.22274 0.93316 0.0
H2233 H 0.74825 0.14717 0.95327 0.0
H2234 H 0.72958 0.18926 0.9293 0.0
C2235 C 0.80271 0.22686 0.94092 0.0
C2236 C 0.15641 0.57253 0.17276 0.0
C2237 C 0.16535 0.5421 0.17082 0.0
H2238 H 0.12479 0.59694 0.15455 0.0
C2239 C 0.14666 0.51149 0.1546 0.0
H2240 H 0.17026 0.59617 0.18655 0.0
C2241 C 0.12058 0.51194 0.13645 0.0
C2242 C 0.1134 0.54292 0.13545 0.0
H2243 H 0.15317 0.4878 0.15411 0.0
H2244 H 0.10802 0.48885 0.12029 0.0
C2245 C 0.13008 0.57282 0.15563 0.0
C2246 C 0.85088 0.82854 0.42936 0.0
C2247 C 0.85006 0.86128 0.44632 0.0
H2248 H 0.84643 0.79439 0.38174 0.0
C2249 C 0.84596 0.88508 0.42738 0.0
H2250 H 0.85412 0.80955 0.44314 0.0
C2251 C 0.84251 0.87682 0.39302 0.0
C2252 C 0.84243 0.8442 0.37567 0.0
H2253 H 0.8451 0.91049 0.43911 0.0
H2254 H 0.8391 0.89624 0.37984 0.0
C2255 C 0.84679 0.81993 0.39422 0.0
C2256 C 0.49913 0.5837 0.9166 0.0
C2257 C 0.51139 0.5773 0.88636 0.0
H2258 H 0.50086 0.58585 0.9692 0.0
C2259 C 0.53847 0.56641 0.89076 0.0
H2260 H 0.47871 0.592 0.91623 0.0
C2261 C 0.55194 0.56271 0.92268 0.0
C2262 C 0.53929 0.56935 0.95295 0.0
H2263 H 0.54956 0.56054 0.86923 0.0
H2264 H 0.5725 0.55475 0.9234 0.0
C2265 C 0.51234 0.57997 0.948 0.0
C2266 C 0.84283 0.21428 0.15181 0.0
C2267 C 0.81702 0.20856 0.1306 0.0
H2268 H 0.86779 0.24321 0.1965 0.0
C2269 C 0.79553 0.22687 0.13787 0.0
H2270 H 0.85952 0.20023 0.14597 0.0
C2271 C 0.79977 0.25089 0.16709 0.0
C2272 C 0.82592 0.25715 0.18819 0.0
H2273 H 0.77549 0.22228 0.12115 0.0
H2274 H 0.7829 0.26462 0.17303 0.0
C2275 C 0.8475 0.23893 0.18032 0.0
C2276 C 0.1958 0.61733 0.32932 0.0
C2277 C 0.19017 0.58303 0.31397 0.0
H2278 H 0.17919 0.6562 0.35857 0.0
C2279 C 0.16369 0.56122 0.31635 0.0
H2280 H 0.21596 0.63464 0.32709 0.0
C2281 C 0.14272 0.57363 0.33338 0.0
C2282 C 0.14796 0.60801 0.34796 0.0
H2283 H 0.15895 0.53474 0.30439 0.0
H2284 H 0.1225 0.55638 0.33557 0.0
C2285 C 0.17463 0.62983 0.3463 0.0
C2286 C 0.82694 0.82309 0.63333 0.0
C2287 C 0.83685 0.85776 0.63407 0.0
H2288 H 0.8135 0.78493 0.66101 0.0
C2289 C 0.83746 0.88069 0.66399 0.0
H2290 H 0.82597 0.80467 0.61075 0.0
C2291 C 0.82954 0.86938 0.69256 0.0
C2292 C 0.82083 0.83472 0.69235 0.0
H2293 H 0.8446 0.90761 0.66559 0.0
H2294 H 0.83133 0.88788 0.71531 0.0
C2295 C 0.81916 0.81174 0.66214 0.0
C2296 C 0.76653 0.49126 0.53349 0.0
C2297 C 0.79113 0.5087 0.52166 0.0
H2298 H 0.7304 0.4959 0.56125 0.0
C2299 C 0.79579 0.54365 0.52406 0.0
H2300 H 0.76271 0.46428 0.53211 0.0
C2301 C 0.77766 0.56151 0.54102 0.0
C2302 C 0.7549 0.5444 0.55552 0.0
H2303 H 0.81461 0.5574 0.51489 0.0
H2304 H 0.78221 0.58875 0.54419 0.0
C2305 C 0.74841 0.5092 0.55049 0.0
C2306 C 0.19419 0.15971 0.50955 0.0
C2307 C 0.21998 0.14802 0.51402 0.0
H2308 H 0.14724 0.14861 0.50647 0.0
C2309 C 0.21749 0.11468 0.51834 0.0
H2310 H 0.19532 0.18525 0.50621 0.0
C2311 C 0.19 0.09384 0.51899 0.0
C2312 C 0.16409 0.10545 0.51467 0.0
H2313 H 0.23692 0.10491 0.52217 0.0
H2314 H 0.1893 0.06904 0.52401 0.0
C2315 C 0.1666 0.13864 0.50972 0.0
C2316 C 0.2794 0.93468 0.76414 0.0
C2317 C 0.25813 0.94272 0.78591 0.0
H2318 H 0.30902 0.90223 0.74639 0.0
C2319 C 0.25417 0.92078 0.8087 0.0
H2320 H 0.28403 0.94953 0.74551 0.0
C2321 C 0.27008 0.8944 0.81033 0.0
C2322 C 0.29117 0.8858 0.78875 0.0
H2323 H 0.23866 0.92432 0.8263 0.0
H2324 H 0.26526 0.88 0.82926 0.0
C2325 C 0.29456 0.90694 0.76486 0.0
C2326 C 0.46435 0.96887 0.99078 0.0
C2327 C 0.44885 0.99446 0.99802 0.0
H2328 H 0.50658 0.95696 0.98881 0.0
C2329 C 0.46385 0.02827 1.0051 0.0
H2330 H 0.45304 0.94249 0.98508 0.0
C2331 C 0.49425 0.03633 1.00758 0.0
C2332 C 0.51005 1.0108 1.00221 0.0
H2333 H 0.45234 0.04839 1.01093 0.0
H2334 H 0.50514 0.06251 0.0152 0.0
C2335 C 0.49484 0.97703 0.99292 0.0
C2336 C 0.88588 0.63329 0.81813 0.0
C2337 C 0.88148 0.60271 0.8286 0.0
H2338 H 0.8691 0.66196 0.78687 0.0
C2339 C 0.85493 0.57842 0.81837 0.0
H2340 H 0.90646 0.65192 0.82525 0.0
C2341 C 0.83376 0.58382 0.79595 0.0
C2342 C 0.83892 0.61367 0.78426 0.0
H2343 H 0.85148 0.55417 0.82553 0.0
H2344 H 0.81378 0.56458 0.78724 0.0
C2345 C 0.86477 0.63869 0.7959 0.0
C2346 C 0.90235 0.68433 0.05113 0.0
C2347 C 0.87543 0.66672 0.03253 0.0
H2348 H 0.94281 0.68027 0.07651 0.0
C2349 C 0.87004 0.63146 0.02216 0.0
H2350 H 0.90702 0.7115 0.05946 0.0
C2351 C 0.89025 0.61386 0.03202 0.0
C2352 C 0.91626 0.63124 0.05211 0.0
H2353 H 0.84956 0.61722 1.00768 0.0
H2354 H 0.88506 0.58653 0.02511 0.0
C2355 C 0.92275 0.6666 0.06083 0.0
C2356 C 0.28868 0.14145 0.78297 0.0
C2357 C 0.2613 0.13399 0.79554 0.0
H2358 H 0.32468 0.17924 0.77327 0.0
C2359 C 0.25036 0.16253 0.8088 0.0
H2360 H 0.29818 0.12089 0.77207 0.0
C2361 C 0.26555 0.19632 0.80913 0.0
C2362 C 0.29299 0.20388 0.79683 0.0
H2363 H 0.22955 0.15877 0.81874 0.0
H2364 H 0.2556 0.21678 0.81924 0.0
C2365 C 0.30417 0.17541 0.78381 0.0
C2366 C 0.41821 0.93973 0.3272 0.0
C2367 C 0.39996 0.96253 0.33002 0.0
H2368 H 0.42091 0.88844 0.32008 0.0
C2369 C 0.36946 0.9511 0.32777 0.0
H2370 H 0.44182 0.94836 0.3286 0.0
C2371 C 0.35724 0.91649 0.32112 0.0
C2372 C 0.37571 0.89366 0.31873 0.0
H2373 H 0.3552 0.96871 0.32946 0.0
H2374 H 0.3336 0.90762 0.31744 0.0
C2375 C 0.40622 0.90559 0.3222 0.0
C2376 C 0.61074 0.42596 0.55612 0.0
C2377 C 0.61957 0.42397 0.58924 0.0
H2378 H 0.59914 0.45673 0.52204 0.0
C2379 C 0.62181 0.45388 0.61316 0.0
H2380 H 0.60841 0.40392 0.53654 0.0
C2381 C 0.61573 0.48375 0.60495 0.0
C2382 C 0.60707 0.48628 0.57217 0.0
H2383 H 0.62829 0.45434 0.6389 0.0
H2384 H 0.61799 0.50544 0.62494 0.0
C2385 C 0.60499 0.4565 0.54772 0.0
C2386 C 0.43903 0.76458 0.36438 0.0
C2387 C 0.44555 0.77841 0.39859 0.0
H2388 H 0.40961 0.75604 0.31985 0.0
C2389 C 0.42507 0.79534 0.41343 0.0
H2390 H 0.45393 0.75138 0.35168 0.0
C2391 C 0.39954 0.79884 0.39467 0.0
C2392 C 0.39318 0.78525 0.36027 0.0
H2393 H 0.42913 0.80673 0.43955 0.0
H2394 H 0.38503 0.81281 0.40717 0.0
C2395 C 0.41338 0.76757 0.34583 0.0
C2396 C 0.11677 0.70566 0.06519 0.0
C2397 C 0.11617 0.72525 0.09702 0.0
H2398 H 0.10914 0.65543 0.03399 0.0
C2399 C 0.10898 0.70728 0.12204 0.0
H2400 H 0.12214 0.71818 0.04506 0.0
C2401 C 0.1024 0.67185 0.11596 0.0
C2402 C 0.10216 0.65193 0.08438 0.0
H2403 H 0.10812 0.7207 0.14687 0.0
H2404 H 0.09669 0.65985 0.13636 0.0
C2405 C 0.10954 0.66949 0.05886 0.0
C2406 C 0.13269 0.31345 0.91469 0.0
C2407 C 0.10631 0.28973 0.90134 0.0
H2408 H 0.17535 0.33897 0.90578 0.0
C2409 C 0.10436 0.2709 0.86899 0.0
H2410 H 0.13488 0.32856 0.93945 0.0
C2411 C 0.12761 0.27664 0.84998 0.0
C2412 C 0.15344 0.30131 0.86278 0.0
H2413 H 0.0845 0.25233 0.85799 0.0
H2414 H 0.12495 0.26274 0.82466 0.0
C2415 C 0.15599 0.31926 0.89556 0.0
C2416 C 0.64277 0.77487 0.97613 0.0
C2417 C 0.63262 0.77137 0.94263 0.0
H2418 H 0.63429 0.75823 0.0211 0.0
C2419 C 0.60909 0.74464 0.92726 0.0
H2420 H 0.66097 0.79526 0.98843 0.0
C2421 C 0.59387 0.72395 0.94588 0.0
C2422 C 0.60224 0.72958 0.97988 0.0
H2423 H 0.60099 0.74126 0.90139 0.0
H2424 H 0.57442 0.70501 0.9342 0.0
C2425 C 0.62762 0.75383 0.99474 0.0
C2426 C 0.1118 0.78731 0.74015 0.0
C2427 C 0.08974 0.75873 0.72534 0.0
H2428 H 0.1549 0.80554 0.76715 0.0
C2429 C 0.09458 0.72635 0.72496 0.0
H2430 H 0.10859 0.81251 0.74027 0.0
C2431 C 0.12066 0.72247 0.74016 0.0
C2432 C 0.14232 0.75085 0.75589 0.0
H2433 H 0.07821 0.7039 0.7129 0.0
H2434 H 0.12397 0.69723 0.73956 0.0
C2435 C 0.13811 0.78337 0.75536 0.0
C2436 C 0.14722 0.46651 0.43228 0.0
C2437 C 0.14679 0.43737 0.44513 0.0
H2438 H 0.13442 0.51404 0.43791 0.0
C2439 C 0.13204 0.4329 0.4726 0.0
H2440 H 0.15784 0.46991 0.41052 0.0
C2441 C 0.11777 0.45685 0.48688 0.0
C2442 C 0.11893 0.48649 0.47508 0.0
H2443 H 0.13016 0.41002 0.48217 0.0
H2444 H 0.10521 0.45167 0.50675 0.0
C2445 C 0.13351 0.49129 0.44749 0.0
C2446 C 0.41064 0.25827 0.20753 0.0
C2447 C 0.4382 0.26431 0.226 0.0
H2448 H 0.36497 0.25504 0.20882 0.0
C2449 C 0.44042 0.26788 0.26051 0.0
H2450 H 0.40834 0.25508 0.18086 0.0
C2451 C 0.41527 0.26687 0.27649 0.0
C2452 C 0.38814 0.26318 0.258 0.0
H2453 H 0.46154 0.27212 0.2751 0.0
H2454 H 0.41718 0.2707 0.30319 0.0
C2455 C 0.38579 0.25783 0.22346 0.0
C2456 C 0.6296 0.5187 0.3821 0.0
C2457 C 0.65868 0.53684 0.37993 0.0
H2458 H 0.59335 0.50718 0.4109 0.0
C2459 C 0.6721 0.55842 0.41089 0.0
H2460 H 0.6174 0.50159 0.36009 0.0
C2461 C 0.65797 0.56154 0.441 0.0
C2462 C 0.62883 0.54362 0.44324 0.0
H2463 H 0.69416 0.57335 0.41208 0.0
H2464 H 0.67026 0.5787 0.46294 0.0
C2465 C 0.61535 0.52205 0.41222 0.0
C2466 C 0.39919 0.94014 0.11697 0.0
C2467 C 0.37018 0.93737 0.1034 0.0
H2468 H 0.42838 0.91715 0.14245 0.0
C2469 C 0.34754 0.91162 0.10848 0.0
H2470 H 0.41699 0.95984 0.1132 0.0
C2471 C 0.35421 0.88701 0.12416 0.0
C2472 C 0.38351 0.88819 0.13519 0.0
H2473 H 0.32503 0.90908 0.09818 0.0
H2474 H 0.33662 0.86645 0.12678 0.0
C2475 C 0.40586 0.91541 0.13274 0.0
C2476 C 0.02954 0.5474 0.90837 0.0
C2477 C 1.01404 0.57293 0.90811 0.0
H2478 H 0.0586 0.5276 0.9372 0.0
C2479 C 0.01973 0.60135 0.93398 0.0
H2480 H 0.0253 0.52517 0.8886 0.0
C2481 C 0.03927 0.60292 0.96129 0.0
C2482 C 0.05291 0.57619 0.9623 0.0
H2483 H 1.00787 0.6212 0.93402 0.0
H2484 H 0.04201 0.62354 0.98251 0.0
C2485 C 0.04881 0.5489 0.93572 0.0
C2486 C 0.31395 0.28431 0.64239 0.0
C2487 C 0.31074 0.25029 0.62604 0.0
H2488 H 0.32185 0.32004 0.68948 0.0
C2489 C 0.31119 0.22618 0.64573 0.0
H2490 H 0.31378 0.30365 0.62812 0.0
C2491 C 0.31536 0.23537 0.68013 0.0
C2492 C 0.31923 0.2691 0.69682 0.0
H2493 H 0.30886 0.19979 0.63455 0.0
H2494 H 0.31619 0.21571 0.69392 0.0
C2495 C 0.31833 0.29369 0.67754 0.0
C2496 C 0.62835 0.5417 0.18211 0.0
C2497 C 0.6574 0.53597 0.18763 0.0
H2498 H 0.59275 0.54864 0.14833 0.0
C2499 C 0.67176 0.53442 0.15856 0.0
H2500 H 0.61554 0.54343 0.20269 0.0
C2501 C 0.6587 0.53819 0.12714 0.0
C2502 C 0.62984 0.54386 0.12117 0.0
H2503 H 0.69379 0.53016 0.15992 0.0
H2504 H 0.67182 0.53644 0.10682 0.0
C2505 C 0.61499 0.54512 0.15014 0.0
C2506 C 0.36784 0.87134 0.93608 0.0
C2507 C 0.34591 0.88982 0.93966 0.0
H2508 H 0.38563 0.83656 0.90276 0.0
C2509 C 0.32337 0.88531 0.91426 0.0
H2510 H 0.3859 0.87556 0.95546 0.0
C2511 C 0.32307 0.86304 0.88493 0.0
C2512 C 0.34535 0.84524 0.88067 0.0
H2513 H 0.30663 0.89988 0.91668 0.0
H2514 H 0.30622 0.86142 0.86522 0.0
C2515 C 0.36774 0.84925 0.90629 0.0
C2516 C 0.95441 0.52525 0.71941 0.0
C2517 C 0.97168 0.55045 0.74497 0.0
H2518 H 0.95431 0.48918 0.67515 0.0
C2519 C 1.00146 0.5629 0.74263 0.0
H2520 H 0.93134 0.51543 0.7206 0.0
C2521 C 1.01446 0.54775 0.71672 0.0
C2522 C 0.99773 0.52006 0.69332 0.0
H2523 H 0.01517 0.58236 0.76209 0.0
H2524 H 0.03788 0.55605 0.71624 0.0
C2525 C 0.96748 0.50994 0.69376 0.0
C2526 C 0.3285 0.277 0.43087 0.0
C2527 C 0.3167 0.24336 0.43245 0.0
H2528 H 0.34028 0.31243 0.40038 0.0
C2529 C 0.30994 0.21903 0.40257 0.0
H2530 H 0.33382 0.29648 0.45323 0.0
C2531 C 0.31485 0.22805 0.3721 0.0
C2532 C 0.32669 0.26174 0.37036 0.0
H2533 H 0.30062 0.19283 0.40263 0.0
H2534 H 0.30894 0.20853 0.3498 0.0
C2535 C 0.33302 0.28606 0.40031 0.0
C2536 C 0.39977 0.61167 0.54264 0.0
C2537 C 0.37248 0.59155 0.54604 0.0
H2538 H 0.44052 0.61281 0.52241 0.0
C2539 C 0.36768 0.55635 0.53739 0.0
H2540 H 0.40401 0.63898 0.54906 0.0
C2541 C 0.38866 0.54156 0.52232 0.0
C2542 C 0.41455 0.56187 0.51592 0.0
H2543 H 0.34689 0.54041 0.53989 0.0
H2544 H 0.38369 0.51446 0.51328 0.0
C2545 C 0.42074 0.59683 0.52758 0.0
C2546 C 0.96808 0.94028 0.54487 0.0
C2547 C 0.94623 0.95562 0.55792 0.0
H2548 H 1.01186 0.94664 0.53198 0.0
C2549 C 0.95342 0.99089 0.56966 0.0
H2550 H 0.96334 0.91329 0.53528 0.0
C2551 C 0.98159 1.01024 0.5681 0.0
C2552 C 1.00336 0.99501 0.55436 0.0
H2553 H 0.93714 1.00366 0.57978 0.0
H2554 H 0.98595 0.0372 0.57703 0.0
C2555 C 0.99606 0.95962 0.54296 0.0
C2556 C 0.8941 0.17687 0.25989 0.0
C2557 C 0.91289 0.17333 0.28743 0.0
H2558 H 0.86895 0.20686 0.23636 0.0
C2559 C 0.91579 0.20116 0.31487 0.0
H2560 H 0.89076 0.15775 0.23739 0.0
C2561 C 0.90128 0.22928 0.31481 0.0
C2562 C 0.88221 0.23281 0.28744 0.0
H2563 H 0.92985 0.20161 0.33699 0.0
H2564 H 0.90615 0.24948 0.33656 0.0
C2565 C 0.88051 0.20567 0.25953 0.0
C2566 C 0.69674 0.09019 0.04809 0.0
C2567 C 0.71359 0.12253 0.04943 0.0
H2568 H 0.65427 0.05935 0.04377 0.0
C2569 C 0.69964 0.14965 0.0504 0.0
H2570 H 0.70692 0.0689 0.04754 0.0
C2571 C 0.66915 0.14415 0.04845 0.0
C2572 C 0.65208 0.11148 0.04549 0.0
H2573 H 0.71219 0.17504 0.05162 0.0
H2574 H 0.65888 0.16524 0.04795 0.0
C2575 C 0.66631 0.08476 0.04597 0.0
C2576 C 0.27569 0.46241 0.23826 0.0
C2577 C 0.28752 0.49423 0.23189 0.0
H2578 H 0.28076 0.42723 0.26876 0.0
C2579 C 0.31689 0.51022 0.24296 0.0
H2580 H 0.25287 0.45004 0.22994 0.0
C2581 C 0.33237 0.49788 0.26595 0.0
C2582 C 0.31861 0.46913 0.27661 0.0
H2583 H 0.32613 0.53495 0.23838 0.0
H2584 H 0.35379 0.51244 0.27773 0.0
C2585 C 0.29131 0.44981 0.26086 0.0
C2586 C 0.26243 0.42593 0.02448 0.0
C2587 C 0.28782 0.44261 0.04637 0.0
H2588 H 0.22219 0.43071 0.99941 0.0
C2589 C 0.29021 0.47598 0.06331 0.0
H2590 H 0.26009 0.40024 1.01106 0.0
C2591 C 0.2684 0.49308 0.05695 0.0
C2592 C 0.2441 0.47706 0.03348 0.0
H2593 H 0.30949 0.48934 0.08042 0.0
H2594 H 0.2713 0.51937 0.06889 0.0
C2595 C 0.24077 0.44319 0.01788 0.0
C2596 C 0.88962 0.97039 0.30718 0.0
C2597 C 0.9039 0.97952 0.28014 0.0
H2598 H 0.86398 0.93128 0.32826 0.0
C2599 C 0.90124 0.95258 0.25241 0.0
H2600 H 0.89111 0.98941 0.32942 0.0
C2601 C 0.88541 0.91879 0.25175 0.0
C2602 C 0.87102 0.9098 0.27867 0.0
H2603 H 0.91165 0.95755 0.23092 0.0
H2604 H 0.88457 0.89947 0.22991 0.0
C2605 C 0.87376 0.93659 0.30648 0.0
C2606 C 0.81234 0.16977 0.77474 0.0
C2607 C 0.78845 0.15857 0.74972 0.0
H2608 H 0.83813 0.21181 0.81082 0.0
C2609 C 0.77216 0.18139 0.74144 0.0
H2610 H 0.82462 0.15234 0.78213 0.0
C2611 C 0.77993 0.21505 0.75766 0.0
C2612 C 0.80387 0.226 0.7824 0.0
H2613 H 0.75295 0.17313 0.72312 0.0
H2614 H 0.76709 0.2324 0.75124 0.0
C2615 C 0.81985 0.20339 0.7913 0.0
loop_
_geom_bond_atom_site_label_1
_geom_bond_atom_site_label_2
_geom_bond_distance
_geom_bond_site_symmetry_2
_ccdc_geom_bond_type
In0 O1 2.294 . S
In0 O2 2.326 . S
In0 O6 2.266 . S
In0 O7 2.326 . S
In0 O8 2.266 . S
In0 O9 2.326 . S
In0 O11 2.294 . S
In0 O12 2.326 . S
O1 In0 2.294 . S
O1 C10 1.240 . S
O2 In0 2.326 . S
O2 C10 1.252 . S
C3 O6 1.252 . S
C3 O7 1.260 . S
C4 O11 1.240 . S
C4 O12 1.252 . S
C5 O8 1.252 . S
C5 O9 1.260 . S
O6 In0 2.266 . S
O6 C3 1.252 . S
O7 In0 2.326 . S
O7 C3 1.260 . S
O8 In0 2.266 . S
O8 C5 1.252 . S
O9 In0 2.326 . S
O9 C5 1.260 . S
C10 O1 1.240 . S
C10 O2 1.252 . S
O11 In0 2.294 . S
O11 C4 1.240 . S
O12 In0 2.326 . S
O12 C4 1.252 . S
In13 O14 2.294 . S
In13 O15 2.326 . S
In13 O19 2.266 1_455 S
In13 O20 2.326 1_455 S
In13 O21 2.264 1_455 S
In13 O22 2.322 1_455 S
In13 O24 2.296 . S
In13 O25 2.330 . S
O14 In13 2.294 . S
O14 C23 1.240 . S
O15 In13 2.326 . S
O15 C23 1.252 . S
C16 O19 1.252 . S
C16 O20 1.260 . S
C17 O24 1.240 . S
C17 O25 1.252 . S
C18 O21 1.252 . S
C18 O22 1.260 . S
O19 In13 2.266 1_655 S
O19 C16 1.252 . S
O20 In13 2.326 1_655 S
O20 C16 1.260 . S
O21 In13 2.264 1_655 S
O21 C18 1.252 . S
O22 In13 2.322 1_655 S
O22 C18 1.260 . S
C23 O14 1.240 . S
C23 O15 1.252 . S
O24 In13 2.296 . S
O24 C17 1.240 . S
O25 In13 2.330 . S
O25 C17 1.252 . S
In26 O27 2.294 . S
In26 O28 2.326 . S
In26 O32 2.266 . S
In26 O33 2.326 . S
In26 O34 2.266 . S
In26 O35 2.326 . S
In26 O37 2.294 . S
In26 O38 2.326 . S
O27 In26 2.294 . S
O27 C36 1.240 . S
O28 In26 2.326 . S
O28 C36 1.252 . S
C29 O32 1.252 . S
C29 O33 1.260 . S
C30 O37 1.240 . S
C30 O38 1.252 . S
C31 O34 1.252 . S
C31 O35 1.260 . S
O32 In26 2.266 . S
O32 C29 1.252 . S
O33 In26 2.326 . S
O33 C29 1.260 . S
O34 In26 2.266 . S
O34 C31 1.252 . S
O35 In26 2.326 . S
O35 C31 1.260 . S
C36 O27 1.240 . S
C36 O28 1.252 . S
O37 In26 2.294 . S
O37 C30 1.240 . S
O38 In26 2.326 . S
O38 C30 1.252 . S
In39 O40 2.294 . S
In39 O41 2.326 . S
In39 O45 2.266 . S
In39 O46 2.326 . S
In39 O47 2.266 . S
In39 O48 2.326 . S
In39 O50 2.294 . S
In39 O51 2.326 . S
O40 In39 2.294 . S
O40 C49 1.240 . S
O41 In39 2.326 . S
O41 C49 1.252 . S
C42 O45 1.252 . S
C42 O46 1.260 . S
C43 O50 1.240 . S
C43 O51 1.252 . S
C44 O47 1.252 . S
C44 O48 1.260 . S
O45 In39 2.266 . S
O45 C42 1.252 . S
O46 In39 2.326 . S
O46 C42 1.260 . S
O47 In39 2.266 . S
O47 C44 1.252 . S
O48 In39 2.326 . S
O48 C44 1.260 . S
C49 O40 1.240 . S
C49 O41 1.252 . S
O50 In39 2.294 . S
O50 C43 1.240 . S
O51 In39 2.326 . S
O51 C43 1.252 . S
In52 O53 2.294 . S
In52 O54 2.326 . S
In52 O58 2.266 . S
In52 O59 2.326 . S
In52 O60 2.266 . S
In52 O61 2.326 . S
In52 O63 2.294 . S
In52 O64 2.326 . S
O53 In52 2.294 . S
O53 C62 1.240 . S
O54 In52 2.326 . S
O54 C62 1.252 . S
C55 O58 1.252 . S
C55 O59 1.260 . S
C56 O63 1.240 . S
C56 O64 1.252 . S
C57 O60 1.252 . S
C57 O61 1.260 . S
O58 In52 2.266 . S
O58 C55 1.252 . S
O59 In52 2.326 . S
O59 C55 1.260 . S
O60 In52 2.266 . S
O60 C57 1.252 . S
O61 In52 2.326 . S
O61 C57 1.260 . S
C62 O53 1.240 . S
C62 O54 1.252 . S
O63 In52 2.294 . S
O63 C56 1.240 . S
O64 In52 2.326 . S
O64 C56 1.252 . S
In65 O66 2.294 . S
In65 O67 2.326 . S
In65 O71 2.266 . S
In65 O72 2.326 . S
In65 O73 2.266 . S
In65 O74 2.326 . S
In65 O76 2.294 . S
In65 O77 2.326 . S
O66 In65 2.294 . S
O66 C75 1.240 . S
O67 In65 2.326 . S
O67 C75 1.252 . S
C68 O71 1.252 . S
C68 O72 1.260 . S
C69 O76 1.240 . S
C69 O77 1.252 . S
C70 O73 1.252 . S
C70 O74 1.260 . S
O71 In65 2.266 . S
O71 C68 1.252 . S
O72 In65 2.326 . S
O72 C68 1.260 . S
O73 In65 2.266 . S
O73 C70 1.252 . S
O74 In65 2.326 . S
O74 C70 1.260 . S
C75 O66 1.240 . S
C75 O67 1.252 . S
O76 In65 2.294 . S
O76 C69 1.240 . S
O77 In65 2.326 . S
O77 C69 1.252 . S
In78 O79 2.294 . S
In78 O80 2.326 . S
In78 O84 2.266 . S
In78 O85 2.326 . S
In78 O86 2.266 . S
In78 O87 2.326 . S
In78 O89 2.294 . S
In78 O90 2.326 . S
O79 In78 2.294 . S
O79 C88 1.240 . S
O80 In78 2.326 . S
O80 C88 1.252 . S
C81 O84 1.252 . S
C81 O85 1.260 . S
C82 O89 1.240 . S
C82 O90 1.252 . S
C83 O86 1.252 . S
C83 O87 1.260 . S
O84 In78 2.266 . S
O84 C81 1.252 . S
O85 In78 2.326 . S
O85 C81 1.260 . S
O86 In78 2.266 . S
O86 C83 1.252 . S
O87 In78 2.326 . S
O87 C83 1.260 . S
C88 O79 1.240 . S
C88 O80 1.252 . S
O89 In78 2.294 . S
O89 C82 1.240 . S
O90 In78 2.326 . S
O90 C82 1.252 . S
In91 O92 2.294 . S
In91 O93 2.326 . S
In91 O97 2.266 . S
In91 O98 2.326 . S
In91 O99 2.266 1_455 S
In91 O100 2.326 1_455 S
In91 O102 2.294 . S
In91 O103 2.326 . S
O92 In91 2.294 . S
O92 C101 1.240 . S
O93 In91 2.326 . S
O93 C101 1.252 . S
C94 O97 1.252 . S
C94 O98 1.260 . S
C95 O102 1.240 . S
C95 O103 1.252 . S
C96 O99 1.252 . S
C96 O100 1.260 . S
O97 In91 2.266 . S
O97 C94 1.252 . S
O98 In91 2.326 . S
O98 C94 1.260 . S
O99 In91 2.266 1_655 S
O99 C96 1.252 . S
O100 In91 2.326 1_655 S
O100 C96 1.260 . S
C101 O92 1.240 . S
C101 O93 1.252 . S
O102 In91 2.294 . S
O102 C95 1.240 . S
O103 In91 2.326 . S
O103 C95 1.252 . S
In104 O105 2.294 . S
In104 O106 2.326 1_545 S
In104 O110 2.266 . S
In104 O111 2.326 . S
In104 O112 2.266 1_545 S
In104 O113 2.326 1_545 S
In104 O115 2.294 . S
In104 O116 2.326 . S
O105 In104 2.294 . S
O105 C114 1.240 . S
O106 In104 2.326 1_565 S
O106 C114 1.252 1_565 S
C107 O110 1.252 . S
C107 O111 1.260 . S
C108 O115 1.240 . S
C108 O116 1.252 . S
C109 O112 1.252 . S
C109 O113 1.260 . S
O110 In104 2.266 . S
O110 C107 1.252 . S
O111 In104 2.326 . S
O111 C107 1.260 . S
O112 In104 2.266 1_565 S
O112 C109 1.252 . S
O113 In104 2.326 1_565 S
O113 C109 1.260 . S
C114 O105 1.240 . S
C114 O106 1.252 1_545 S
O115 In104 2.294 . S
O115 C108 1.240 . S
O116 In104 2.326 . S
O116 C108 1.252 . S
In117 O118 2.294 . S
In117 O119 2.326 . S
In117 O123 2.266 . S
In117 O124 2.326 . S
In117 O125 2.266 . S
In117 O126 2.326 . S
In117 O128 2.294 . S
In117 O129 2.326 . S
O118 In117 2.294 . S
O118 C127 1.240 . S
O119 In117 2.326 . S
O119 C127 1.252 . S
C120 O123 1.252 . S
C120 O124 1.260 . S
C121 O128 1.240 . S
C121 O129 1.252 . S
C122 O125 1.252 . S
C122 O126 1.260 . S
O123 In117 2.266 . S
O123 C120 1.252 . S
O124 In117 2.326 . S
O124 C120 1.260 . S
O125 In117 2.266 . S
O125 C122 1.252 . S
O126 In117 2.326 . S
O126 C122 1.260 . S
C127 O118 1.240 . S
C127 O119 1.252 . S
O128 In117 2.294 . S
O128 C121 1.240 . S
O129 In117 2.326 . S
O129 C121 1.252 . S
In130 O131 2.294 1_545 S
In130 O132 2.326 1_545 S
In130 O136 2.266 . S
In130 O137 2.326 . S
In130 O138 2.266 . S
In130 O139 2.326 . S
In130 O141 2.294 1_545 S
In130 O142 2.326 1_545 S
O131 In130 2.294 1_565 S
O131 C140 1.240 . S
O132 In130 2.326 1_565 S
O132 C140 1.252 . S
C133 O136 1.252 . S
C133 O137 1.260 . S
C134 O141 1.240 . S
C134 O142 1.252 . S
C135 O138 1.252 . S
C135 O139 1.260 . S
O136 In130 2.266 . S
O136 C133 1.252 . S
O137 In130 2.326 . S
O137 C133 1.260 . S
O138 In130 2.266 . S
O138 C135 1.252 . S
O139 In130 2.326 . S
O139 C135 1.260 . S
C140 O131 1.240 . S
C140 O132 1.252 . S
O141 In130 2.294 1_565 S
O141 C134 1.240 . S
O142 In130 2.326 1_565 S
O142 C134 1.252 . S
In143 O144 2.294 . S
In143 O145 2.326 . S
In143 O149 2.266 1_554 S
In143 O150 2.326 1_554 S
In143 O151 2.266 . S
In143 O152 2.326 . S
In143 O154 2.294 . S
In143 O155 2.326 . S
O144 In143 2.294 . S
O144 C153 1.240 . S
O145 In143 2.326 . S
O145 C153 1.252 . S
C146 O149 1.252 . S
C146 O150 1.260 . S
C147 O154 1.240 . S
C147 O155 1.252 . S
C148 O151 1.252 . S
C148 O152 1.260 . S
O149 In143 2.266 1_556 S
O149 C146 1.252 . S
O150 In143 2.326 1_556 S
O150 C146 1.260 . S
O151 In143 2.266 . S
O151 C148 1.252 . S
O152 In143 2.326 . S
O152 C148 1.260 . S
C153 O144 1.240 . S
C153 O145 1.252 . S
O154 In143 2.294 . S
O154 C147 1.240 . S
O155 In143 2.326 . S
O155 C147 1.252 . S
In156 O157 2.294 . S
In156 O158 2.326 . S
In156 O162 2.266 1_554 S
In156 O163 2.326 1_554 S
In156 O164 2.266 . S
In156 O165 2.326 . S
In156 O167 2.294 . S
In156 O168 2.326 . S
O157 In156 2.294 . S
O157 C166 1.240 . S
O158 In156 2.326 . S
O158 C166 1.252 . S
C159 O162 1.252 . S
C159 O163 1.260 . S
C160 O167 1.240 . S
C160 O168 1.252 . S
C161 O164 1.252 . S
C161 O165 1.260 . S
O162 In156 2.266 1_556 S
O162 C159 1.252 . S
O163 In156 2.326 1_556 S
O163 C159 1.260 . S
O164 In156 2.266 . S
O164 C161 1.252 . S
O165 In156 2.326 . S
O165 C161 1.260 . S
C166 O157 1.240 . S
C166 O158 1.252 . S
O167 In156 2.294 . S
O167 C160 1.240 . S
O168 In156 2.326 . S
O168 C160 1.252 . S
In169 O170 2.294 . S
In169 O171 2.326 . S
In169 O175 2.266 . S
In169 O176 2.326 . S
In169 O177 2.266 . S
In169 O178 2.326 1_554 S
In169 O180 2.294 . S
In169 O181 2.326 . S
O170 In169 2.294 . S
O170 C179 1.240 . S
O171 In169 2.326 . S
O171 C179 1.252 . S
C172 O175 1.252 . S
C172 O176 1.260 . S
C173 O180 1.240 . S
C173 O181 1.252 . S
C174 O177 1.252 1_556 S
C174 O178 1.260 . S
O175 In169 2.266 . S
O175 C172 1.252 . S
O176 In169 2.326 . S
O176 C172 1.260 . S
O177 In169 2.266 . S
O177 C174 1.252 1_554 S
O178 In169 2.326 1_556 S
O178 C174 1.260 . S
C179 O170 1.240 . S
C179 O171 1.252 . S
O180 In169 2.294 . S
O180 C173 1.240 . S
O181 In169 2.326 . S
O181 C173 1.252 . S
In182 O183 2.294 . S
In182 O184 2.326 . S
In182 O188 2.266 . S
In182 O189 2.326 . S
In182 O190 2.266 . S
In182 O191 2.326 . S
In182 O193 2.294 . S
In182 O194 2.326 . S
O183 In182 2.294 . S
O183 C192 1.240 . S
O184 In182 2.326 . S
O184 C192 1.252 . S
C185 O188 1.252 . S
C185 O189 1.260 . S
C186 O193 1.240 . S
C186 O194 1.252 . S
C187 O190 1.252 . S
C187 O191 1.260 . S
O188 In182 2.266 . S
O188 C185 1.252 . S
O189 In182 2.326 . S
O189 C185 1.260 . S
O190 In182 2.266 . S
O190 C187 1.252 . S
O191 In182 2.326 . S
O191 C187 1.260 . S
C192 O183 1.240 . S
C192 O184 1.252 . S
O193 In182 2.294 . S
O193 C186 1.240 . S
O194 In182 2.326 . S
O194 C186 1.252 . S
In195 O196 2.294 . S
In195 O197 2.326 . S
In195 O201 2.266 . S
In195 O202 2.326 . S
In195 O203 2.266 . S
In195 O204 2.326 . S
In195 O206 2.294 . S
In195 O207 2.326 . S
O196 In195 2.294 . S
O196 C205 1.240 . S
O197 In195 2.326 . S
O197 C205 1.252 . S
C198 O201 1.252 . S
C198 O202 1.260 . S
C199 O206 1.240 . S
C199 O207 1.252 . S
C200 O203 1.252 . S
C200 O204 1.260 . S
O201 In195 2.266 . S
O201 C198 1.252 . S
O202 In195 2.326 . S
O202 C198 1.260 . S
O203 In195 2.266 . S
O203 C200 1.252 . S
O204 In195 2.326 . S
O204 C200 1.260 . S
C205 O196 1.240 . S
C205 O197 1.252 . S
O206 In195 2.294 . S
O206 C199 1.240 . S
O207 In195 2.326 . S
O207 C199 1.252 . S
In208 O209 2.294 . S
In208 O210 2.326 . S
In208 O214 2.266 . S
In208 O215 2.326 . S
In208 O216 2.266 . S
In208 O217 2.326 . S
In208 O219 2.294 . S
In208 O220 2.326 . S
O209 In208 2.294 . S
O209 C218 1.240 . S
O210 In208 2.326 . S
O210 C218 1.252 . S
C211 O214 1.252 . S
C211 O215 1.260 . S
C212 O219 1.240 . S
C212 O220 1.252 . S
C213 O216 1.252 . S
C213 O217 1.260 . S
O214 In208 2.266 . S
O214 C211 1.252 . S
O215 In208 2.326 . S
O215 C211 1.260 . S
O216 In208 2.266 . S
O216 C213 1.252 . S
O217 In208 2.326 . S
O217 C213 1.260 . S
C218 O209 1.240 . S
C218 O210 1.252 . S
O219 In208 2.294 . S
O219 C212 1.240 . S
O220 In208 2.326 . S
O220 C212 1.252 . S
In221 O222 2.294 . S
In221 O223 2.326 . S
In221 O227 2.266 . S
In221 O228 2.326 . S
In221 O229 2.266 . S
In221 O230 2.326 . S
In221 O232 2.294 . S
In221 O233 2.326 . S
O222 In221 2.294 . S
O222 C231 1.240 . S
O223 In221 2.326 . S
O223 C231 1.252 . S
C224 O227 1.252 . S
C224 O228 1.260 . S
C225 O232 1.240 . S
C225 O233 1.252 . S
C226 O229 1.252 . S
C226 O230 1.260 . S
O227 In221 2.266 . S
O227 C224 1.252 . S
O228 In221 2.326 . S
O228 C224 1.260 . S
O229 In221 2.266 . S
O229 C226 1.252 . S
O230 In221 2.326 . S
O230 C226 1.260 . S
C231 O222 1.240 . S
C231 O223 1.252 . S
O232 In221 2.294 . S
O232 C225 1.240 . S
O233 In221 2.326 . S
O233 C225 1.252 . S
In234 O235 2.294 . S
In234 O236 2.326 . S
In234 O240 2.266 . S
In234 O241 2.326 . S
In234 O242 2.266 . S
In234 O243 2.326 . S
In234 O245 2.294 . S
In234 O246 2.326 . S
O235 In234 2.294 . S
O235 C244 1.240 . S
O236 In234 2.326 . S
O236 C244 1.252 . S
C237 O240 1.252 . S
C237 O241 1.260 . S
C238 O245 1.240 . S
C238 O246 1.252 . S
C239 O242 1.252 . S
C239 O243 1.260 . S
O240 In234 2.266 . S
O240 C237 1.252 . S
O241 In234 2.326 . S
O241 C237 1.260 . S
O242 In234 2.266 . S
O242 C239 1.252 . S
O243 In234 2.326 . S
O243 C239 1.260 . S
C244 O235 1.240 . S
C244 O236 1.252 . S
O245 In234 2.294 . S
O245 C238 1.240 . S
O246 In234 2.326 . S
O246 C238 1.252 . S
In247 O248 2.294 . S
In247 O249 2.326 . S
In247 O253 2.266 . S
In247 O254 2.326 . S
In247 O255 2.266 . S
In247 O256 2.326 . S
In247 O258 2.294 . S
In247 O259 2.326 . S
O248 In247 2.294 . S
O248 C257 1.240 . S
O249 In247 2.326 . S
O249 C257 1.252 . S
C250 O253 1.252 . S
C250 O254 1.260 . S
C251 O258 1.240 . S
C251 O259 1.252 . S
C252 O255 1.252 . S
C252 O256 1.260 . S
O253 In247 2.266 . S
O253 C250 1.252 . S
O254 In247 2.326 . S
O254 C250 1.260 . S
O255 In247 2.266 . S
O255 C252 1.252 . S
O256 In247 2.326 . S
O256 C252 1.260 . S
C257 O248 1.240 . S
C257 O249 1.252 . S
O258 In247 2.294 . S
O258 C251 1.240 . S
O259 In247 2.326 . S
O259 C251 1.252 . S
In260 O261 2.294 . S
In260 O262 2.326 . S
In260 O266 2.266 1_554 S
In260 O267 2.326 1_554 S
In260 O268 2.266 1_554 S
In260 O269 2.326 1_554 S
In260 O271 2.294 . S
In260 O272 2.326 . S
O261 In260 2.294 . S
O261 C270 1.240 . S
O262 In260 2.326 . S
O262 C270 1.252 . S
C263 O266 1.252 . S
C263 O267 1.260 . S
C264 O271 1.240 . S
C264 O272 1.252 . S
C265 O268 1.252 . S
C265 O269 1.260 . S
O266 In260 2.266 1_556 S
O266 C263 1.252 . S
O267 In260 2.326 1_556 S
O267 C263 1.260 . S
O268 In260 2.266 1_556 S
O268 C265 1.252 . S
O269 In260 2.326 1_556 S
O269 C265 1.260 . S
C270 O261 1.240 . S
C270 O262 1.252 . S
O271 In260 2.294 . S
O271 C264 1.240 . S
O272 In260 2.326 . S
O272 C264 1.252 . S
In273 O274 2.294 . S
In273 O275 2.326 . S
In273 O279 2.266 . S
In273 O280 2.326 . S
In273 O281 2.266 . S
In273 O282 2.326 . S
In273 O284 2.294 . S
In273 O285 2.326 . S
O274 In273 2.294 . S
O274 C283 1.240 . S
O275 In273 2.326 . S
O275 C283 1.252 . S
C276 O279 1.252 . S
C276 O280 1.260 . S
C277 O284 1.240 . S
C277 O285 1.252 . S
C278 O281 1.252 . S
C278 O282 1.260 . S
O279 In273 2.266 . S
O279 C276 1.252 . S
O280 In273 2.326 . S
O280 C276 1.260 . S
O281 In273 2.266 . S
O281 C278 1.252 . S
O282 In273 2.326 . S
O282 C278 1.260 . S
C283 O274 1.240 . S
C283 O275 1.252 . S
O284 In273 2.294 . S
O284 C277 1.240 . S
O285 In273 2.326 . S
O285 C277 1.252 . S
In286 O287 2.294 . S
In286 O288 2.326 . S
In286 O292 2.266 . S
In286 O293 2.326 . S
In286 O294 2.266 . S
In286 O295 2.326 . S
In286 O297 2.294 . S
In286 O298 2.326 . S
O287 In286 2.294 . S
O287 C296 1.240 . S
O288 In286 2.326 . S
O288 C296 1.252 . S
C289 O292 1.252 . S
C289 O293 1.260 . S
C290 O297 1.240 . S
C290 O298 1.252 . S
C291 O294 1.252 . S
C291 O295 1.260 . S
O292 In286 2.266 . S
O292 C289 1.252 . S
O293 In286 2.326 . S
O293 C289 1.260 . S
O294 In286 2.266 . S
O294 C291 1.252 . S
O295 In286 2.326 . S
O295 C291 1.260 . S
C296 O287 1.240 . S
C296 O288 1.252 . S
O297 In286 2.294 . S
O297 C290 1.240 . S
O298 In286 2.326 . S
O298 C290 1.252 . S
In299 O300 2.294 . S
In299 O301 2.326 . S
In299 O305 2.266 . S
In299 O306 2.326 . S
In299 O307 2.266 . S
In299 O308 2.326 . S
In299 O310 2.294 . S
In299 O311 2.326 . S
O300 In299 2.294 . S
O300 C309 1.240 . S
O301 In299 2.326 . S
O301 C309 1.252 . S
C302 O305 1.252 . S
C302 O306 1.260 . S
C303 O310 1.240 . S
C303 O311 1.252 . S
C304 O307 1.252 . S
C304 O308 1.260 . S
O305 In299 2.266 . S
O305 C302 1.252 . S
O306 In299 2.326 . S
O306 C302 1.260 . S
O307 In299 2.266 . S
O307 C304 1.252 . S
O308 In299 2.326 . S
O308 C304 1.260 . S
C309 O300 1.240 . S
C309 O301 1.252 . S
O310 In299 2.294 . S
O310 C303 1.240 . S
O311 In299 2.326 . S
O311 C303 1.252 . S
Tb312 N343 2.660 1_545 S
Tb312 N350 2.600 1_544 S
Tb312 O356 2.546 1_454 S
Tb312 O357 2.610 . S
Tb312 O359 2.320 . S
Tb312 O360 2.552 . S
Tb312 O361 2.413 1_455 S
Tb312 O363 2.362 . S
Tb312 O364 2.421 1_554 S
Tb312 C376 2.833 1_454 S
C313 C316 1.432 . S
C313 C317 1.414 . S
C313 N320 1.359 . S
C314 C316 1.417 . S
C314 C318 1.432 . S
C314 C326 1.410 . S
C315 C317 1.444 . S
C315 C318 1.317 . S
C315 H338 0.929 . S
C316 C313 1.432 . S
C316 C314 1.417 . S
C316 N324 1.360 . S
C317 C313 1.414 . S
C317 C315 1.444 . S
C317 C322 1.385 . S
C318 C314 1.432 . S
C318 C315 1.317 . S
C318 H330 0.930 . S
C319 C321 1.392 . S
C319 C322 1.370 . S
C319 H331 0.931 . S
N320 C313 1.359 . S
N320 C321 1.327 . S
N320 Tb323 2.600 . S
C321 C319 1.392 . S
C321 N320 1.327 . S
C321 H328 0.930 . S
C322 C317 1.385 . S
C322 C319 1.370 . S
C322 H341 0.930 . S
Tb323 N320 2.600 . S
Tb323 N324 2.660 . S
Tb323 O357 2.362 . S
Tb323 O358 2.421 . S
Tb323 O362 2.546 . S
Tb323 O363 2.610 . S
Tb323 O365 2.299 1_554 S
Tb323 O366 2.552 . S
Tb323 O367 2.413 . S
Tb323 C387 2.833 . S
N324 C316 1.360 . S
N324 Tb323 2.660 . S
N324 C325 1.305 . S
C325 N324 1.305 . S
C325 C327 1.407 1_554 S
C325 H332 0.930 1_554 S
C326 C314 1.410 . S
C326 C327 1.345 1_554 S
C326 H334 0.930 . S
C327 C325 1.407 1_556 S
C327 C326 1.345 1_556 S
C327 H329 0.930 . S
H328 C321 0.930 . S
H329 C327 0.930 . S
H330 C318 0.930 . S
H331 C319 0.931 . S
H332 C325 0.930 1_556 S
H333 C347 0.930 . S
H334 C326 0.930 . S
H335 C353 0.930 . S
H336 C344 0.930 . S
H337 C351 0.931 . S
H338 C315 0.929 . S
H339 C345 0.930 . S
H340 C378 0.930 . S
H341 C322 0.930 . S
H342 C377 0.929 . S
N343 Tb312 2.660 1_565 S
N343 C344 1.305 . S
N343 C348 1.360 . S
C344 H336 0.930 . S
C344 N343 1.305 . S
C344 C347 1.407 . S
C345 H339 0.930 . S
C345 C346 1.410 . S
C345 C347 1.345 1_655 S
C346 C345 1.410 . S
C346 C348 1.417 1_655 S
C346 C378 1.432 . S
C347 H333 0.930 . S
C347 C344 1.407 . S
C347 C345 1.345 1_455 S
C348 N343 1.360 . S
C348 C346 1.417 1_455 S
C348 C352 1.432 1_554 S
H349 C354 0.930 . S
N350 Tb312 2.600 1_566 S
N350 C352 1.359 . S
N350 C353 1.327 . S
C351 H337 0.931 . S
C351 C353 1.392 . S
C351 C354 1.370 1_455 S
C352 C348 1.432 1_556 S
C352 N350 1.359 . S
C352 C355 1.414 1_455 S
C353 H335 0.930 . S
C353 N350 1.327 . S
C353 C351 1.392 . S
C354 H349 0.930 . S
C354 C351 1.370 1_655 S
C354 C355 1.385 . S
C355 C352 1.414 1_655 S
C355 C354 1.385 . S
C355 C377 1.444 . S
O356 Tb312 2.546 1_656 S
O356 C376 1.251 . S
O357 Tb312 2.610 . S
O357 Tb323 2.362 . S
O357 C368 1.283 . S
O358 Tb323 2.421 . S
O358 C375 1.262 . S
O359 Tb312 2.320 . S
O359 C375 1.260 . S
O360 Tb312 2.552 . S
O360 C368 1.243 . S
O361 Tb312 2.413 1_655 S
O361 C376 1.256 1_554 S
O362 Tb323 2.546 . S
O362 C387 1.251 . S
O363 Tb312 2.362 . S
O363 Tb323 2.610 . S
O363 C379 1.283 1_545 S
O364 Tb312 2.421 1_556 S
O364 C386 1.262 . S
O365 Tb323 2.299 1_556 S
O365 C386 1.274 . S
O366 Tb323 2.552 . S
O366 C379 1.243 1_545 S
O367 Tb323 2.413 . S
O367 C387 1.256 . S
C368 O357 1.283 . S
C368 O360 1.243 . S
C369 C371 1.382 1_556 S
C369 C373 1.393 . S
C369 C376 1.500 . S
C370 C371 1.400 . S
C370 C372 1.384 1_554 S
C371 C369 1.382 1_554 S
C371 C370 1.400 . S
C371 H388 0.930 . S
C372 C370 1.384 1_556 S
C372 C374 1.392 . S
C372 H389 0.931 . S
C373 C369 1.393 . S
C373 C374 1.401 . S
C373 H390 0.930 . S
C374 C372 1.392 . S
C374 C373 1.401 . S
C374 H391 0.930 . S
C375 O358 1.262 . S
C375 O359 1.260 . S
C376 Tb312 2.833 1_656 S
C376 O356 1.251 . S
C376 O361 1.256 1_556 S
C376 C369 1.500 . S
C377 H342 0.929 . S
C377 C355 1.444 . S
C377 C378 1.317 1_556 S
C378 H340 0.930 . S
C378 C346 1.432 . S
C378 C377 1.317 1_554 S
C379 O363 1.283 1_565 S
C379 O366 1.243 1_565 S
C380 C381 1.382 . S
C380 C384 1.393 . S
C380 C387 1.500 . S
C381 C380 1.382 . S
C381 C382 1.400 . S
C381 H392 0.930 . S
C382 C381 1.400 . S
C382 C383 1.384 . S
C383 C382 1.384 . S
C383 C385 1.392 . S
C383 H393 0.931 . S
C384 C380 1.393 . S
C384 C385 1.401 . S
C384 H394 0.930 . S
C385 C383 1.392 . S
C385 C384 1.401 . S
C385 H395 0.930 . S
C386 O364 1.262 . S
C386 O365 1.274 . S
C387 Tb323 2.833 . S
C387 O362 1.251 . S
C387 O367 1.256 . S
C387 C380 1.500 . S
H388 C371 0.930 . S
H389 C372 0.931 . S
H390 C373 0.930 . S
H391 C374 0.930 . S
H392 C381 0.930 . S
H393 C383 0.931 . S
H394 C384 0.930 . S
H395 C385 0.930 . S
Tb396 N427 2.660 . S
Tb396 N434 2.600 . S
Tb396 O440 2.546 . S
Tb396 O441 2.610 . S
Tb396 O443 2.320 . S
Tb396 O444 2.552 . S
Tb396 O445 2.413 . S
Tb396 O447 2.362 . S
Tb396 O448 2.421 . S
Tb396 C460 2.833 . S
C397 C400 1.432 . S
C397 C401 1.414 . S
C397 N404 1.359 . S
C398 C400 1.417 . S
C398 C402 1.432 . S
C398 C410 1.410 . S
C399 C401 1.444 . S
C399 C402 1.317 . S
C399 H422 0.929 . S
C400 C397 1.432 . S
C400 C398 1.417 . S
C400 N408 1.360 . S
C401 C397 1.414 . S
C401 C399 1.444 . S
C401 C406 1.385 . S
C402 C398 1.432 . S
C402 C399 1.317 . S
C402 H414 0.930 . S
C403 C405 1.392 . S
C403 C406 1.370 . S
C403 H415 0.931 . S
N404 C397 1.359 . S
N404 C405 1.327 . S
N404 Tb407 2.600 . S
C405 C403 1.392 . S
C405 N404 1.327 . S
C405 H412 0.930 . S
C406 C401 1.385 . S
C406 C403 1.370 . S
C406 H425 0.930 . S
Tb407 N404 2.600 . S
Tb407 N408 2.660 . S
Tb407 O441 2.362 . S
Tb407 O442 2.421 . S
Tb407 O446 2.546 . S
Tb407 O447 2.610 . S
Tb407 O449 2.320 . S
Tb407 O450 2.552 . S
Tb407 O451 2.413 . S
Tb407 C471 2.833 . S
N408 C400 1.360 . S
N408 Tb407 2.660 . S
N408 C409 1.305 . S
C409 N408 1.305 . S
C409 C411 1.407 . S
C409 H416 0.930 . S
C410 C398 1.410 . S
C410 C411 1.345 . S
C410 H418 0.930 . S
C411 C409 1.407 . S
C411 C410 1.345 . S
C411 H413 0.930 . S
H412 C405 0.930 . S
H413 C411 0.930 . S
H414 C402 0.930 . S
H415 C403 0.931 . S
H416 C409 0.930 . S
H417 C431 0.930 . S
H418 C410 0.930 . S
H419 C437 0.930 . S
H420 C428 0.930 . S
H421 C435 0.931 . S
H422 C399 0.929 . S
H423 C429 0.930 . S
H424 C462 0.930 . S
H425 C406 0.930 . S
H426 C461 0.929 . S
N427 Tb396 2.660 . S
N427 C428 1.305 . S
N427 C432 1.360 . S
C428 H420 0.930 . S
C428 N427 1.305 . S
C428 C431 1.407 . S
C429 H423 0.930 . S
C429 C430 1.410 . S
C429 C431 1.345 . S
C430 C429 1.410 . S
C430 C432 1.417 . S
C430 C462 1.432 . S
C431 H417 0.930 . S
C431 C428 1.407 . S
C431 C429 1.345 . S
C432 N427 1.360 . S
C432 C430 1.417 . S
C432 C436 1.432 . S
H433 C438 0.930 . S
N434 Tb396 2.600 . S
N434 C436 1.359 . S
N434 C437 1.327 . S
C435 H421 0.931 . S
C435 C437 1.392 . S
C435 C438 1.370 . S
C436 C432 1.432 . S
C436 N434 1.359 . S
C436 C439 1.414 . S
C437 H419 0.930 . S
C437 N434 1.327 . S
C437 C435 1.392 . S
C438 H433 0.930 . S
C438 C435 1.370 . S
C438 C439 1.385 . S
C439 C436 1.414 . S
C439 C438 1.385 . S
C439 C461 1.444 . S
O440 Tb396 2.546 . S
O440 C460 1.251 . S
O441 Tb396 2.610 . S
O441 Tb407 2.362 . S
O441 C452 1.283 . S
O442 Tb407 2.421 . S
O442 C459 1.262 . S
O443 Tb396 2.320 . S
O443 C459 1.260 . S
O444 Tb396 2.552 . S
O444 C452 1.243 . S
O445 Tb396 2.413 . S
O445 C460 1.256 . S
O446 Tb407 2.546 . S
O446 C471 1.251 . S
O447 Tb396 2.362 . S
O447 Tb407 2.610 . S
O447 C463 1.283 . S
O448 Tb396 2.421 . S
O448 C470 1.262 . S
O449 Tb407 2.320 . S
O449 C470 1.260 . S
O450 Tb407 2.552 . S
O450 C463 1.243 . S
O451 Tb407 2.413 . S
O451 C471 1.256 . S
C452 O441 1.283 . S
C452 O444 1.243 . S
C453 C455 1.382 . S
C453 C457 1.393 . S
C453 C460 1.500 . S
C454 C455 1.400 . S
C454 C456 1.384 . S
C455 C453 1.382 . S
C455 C454 1.400 . S
C455 H472 0.930 . S
C456 C454 1.384 . S
C456 C458 1.392 . S
C456 H473 0.931 . S
C457 C453 1.393 . S
C457 C458 1.401 . S
C457 H474 0.930 . S
C458 C456 1.392 . S
C458 C457 1.401 . S
C458 H475 0.930 . S
C459 O442 1.262 . S
C459 O443 1.260 . S
C460 Tb396 2.833 . S
C460 O440 1.251 . S
C460 O445 1.256 . S
C460 C453 1.500 . S
C461 H426 0.929 . S
C461 C439 1.444 . S
C461 C462 1.317 . S
C462 H424 0.930 . S
C462 C430 1.432 . S
C462 C461 1.317 . S
C463 O447 1.283 . S
C463 O450 1.243 . S
C464 C465 1.382 . S
C464 C468 1.393 . S
C464 C471 1.500 . S
C465 C464 1.382 . S
C465 C466 1.400 . S
C465 H476 0.930 . S
C466 C465 1.400 . S
C466 C467 1.384 . S
C467 C466 1.384 . S
C467 C469 1.392 . S
C467 H477 0.931 . S
C468 C464 1.393 . S
C468 C469 1.401 . S
C468 H478 0.930 . S
C469 C467 1.392 . S
C469 C468 1.401 . S
C469 H479 0.930 . S
C470 O448 1.262 . S
C470 O449 1.260 . S
C471 Tb407 2.833 . S
C471 O446 1.251 . S
C471 O451 1.256 . S
C471 C464 1.500 . S
H472 C455 0.930 . S
H473 C456 0.931 . S
H474 C457 0.930 . S
H475 C458 0.930 . S
H476 C465 0.930 . S
H477 C467 0.931 . S
H478 C468 0.930 . S
H479 C469 0.930 . S
Tb480 N511 2.660 . S
Tb480 N518 2.600 . S
Tb480 O524 2.546 1_545 S
Tb480 O525 2.610 1_545 S
Tb480 O527 2.320 . S
Tb480 O528 2.552 1_545 S
Tb480 O529 2.413 . S
Tb480 O531 2.362 . S
Tb480 O532 2.421 . S
Tb480 C544 2.833 1_545 S
C481 C484 1.432 . S
C481 C485 1.414 . S
C481 N488 1.359 . S
C482 C484 1.417 . S
C482 C486 1.432 . S
C482 C494 1.410 . S
C483 C485 1.444 . S
C483 C486 1.317 . S
C483 H506 0.929 . S
C484 C481 1.432 . S
C484 C482 1.417 . S
C484 N492 1.360 . S
C485 C481 1.414 . S
C485 C483 1.444 . S
C485 C490 1.385 . S
C486 C482 1.432 . S
C486 C483 1.317 . S
C486 H498 0.930 . S
C487 C489 1.392 1_565 S
C487 C490 1.370 . S
C487 H499 0.931 . S
N488 C481 1.359 . S
N488 C489 1.327 1_565 S
N488 Tb491 2.600 1_565 S
C489 C487 1.392 1_545 S
C489 N488 1.327 1_545 S
C489 H496 0.930 . S
C490 C485 1.385 . S
C490 C487 1.370 . S
C490 H509 0.930 . S
Tb491 N488 2.600 1_545 S
Tb491 N492 2.660 1_545 S
Tb491 O525 2.362 1_545 S
Tb491 O526 2.421 . S
Tb491 O530 2.546 . S
Tb491 O531 2.610 . S
Tb491 O533 2.320 . S
Tb491 O534 2.552 . S
Tb491 O535 2.413 . S
Tb491 C555 2.833 . S
N492 C484 1.360 . S
N492 Tb491 2.660 1_565 S
N492 C493 1.305 . S
C493 N492 1.305 . S
C493 C495 1.407 . S
C493 H500 0.930 . S
C494 C482 1.410 . S
C494 C495 1.345 . S
C494 H502 0.930 . S
C495 C493 1.407 . S
C495 C494 1.345 . S
C495 H497 0.930 . S
H496 C489 0.930 . S
H497 C495 0.930 . S
H498 C486 0.930 . S
H499 C487 0.931 . S
H500 C493 0.930 . S
H501 C515 0.930 . S
H502 C494 0.930 . S
H503 C521 0.930 . S
H504 C512 0.930 . S
H505 C519 0.931 . S
H506 C483 0.929 . S
H507 C513 0.930 . S
H508 C546 0.930 . S
H509 C490 0.930 . S
H510 C545 0.929 . S
N511 Tb480 2.660 . S
N511 C512 1.305 . S
N511 C516 1.360 . S
C512 H504 0.930 . S
C512 N511 1.305 . S
C512 C515 1.407 . S
C513 H507 0.930 . S
C513 C514 1.410 . S
C513 C515 1.345 . S
C514 C513 1.410 . S
C514 C516 1.417 . S
C514 C546 1.432 . S
C515 H501 0.930 . S
C515 C512 1.407 . S
C515 C513 1.345 . S
C516 N511 1.360 . S
C516 C514 1.417 . S
C516 C520 1.432 . S
H517 C522 0.930 . S
N518 Tb480 2.600 . S
N518 C520 1.359 . S
N518 C521 1.327 . S
C519 H505 0.931 . S
C519 C521 1.392 . S
C519 C522 1.370 . S
C520 C516 1.432 . S
C520 N518 1.359 . S
C520 C523 1.414 . S
C521 H503 0.930 . S
C521 N518 1.327 . S
C521 C519 1.392 . S
C522 H517 0.930 . S
C522 C519 1.370 . S
C522 C523 1.385 . S
C523 C520 1.414 . S
C523 C522 1.385 . S
C523 C545 1.444 . S
O524 Tb480 2.546 1_565 S
O524 C544 1.251 . S
O525 Tb480 2.610 1_565 S
O525 Tb491 2.362 1_565 S
O525 C536 1.283 . S
O526 Tb491 2.421 . S
O526 C543 1.262 . S
O527 Tb480 2.320 . S
O527 C543 1.260 . S
O528 Tb480 2.552 1_565 S
O528 C536 1.243 . S
O529 Tb480 2.413 . S
O529 C544 1.256 1_545 S
O530 Tb491 2.546 . S
O530 C555 1.251 . S
O531 Tb480 2.362 . S
O531 Tb491 2.610 . S
O531 C547 1.283 . S
O532 Tb480 2.421 . S
O532 C554 1.262 . S
O533 Tb491 2.320 . S
O533 C554 1.260 . S
O534 Tb491 2.552 . S
O534 C547 1.243 . S
O535 Tb491 2.413 . S
O535 C555 1.256 . S
C536 O525 1.283 . S
C536 O528 1.243 . S
C537 C539 1.382 . S
C537 C541 1.393 . S
C537 C544 1.500 . S
C538 C539 1.400 . S
C538 C540 1.384 . S
C539 C537 1.382 . S
C539 C538 1.400 . S
C539 H556 0.930 . S
C540 C538 1.384 . S
C540 C542 1.392 . S
C540 H557 0.931 . S
C541 C537 1.393 . S
C541 C542 1.401 . S
C541 H558 0.930 . S
C542 C540 1.392 . S
C542 C541 1.401 . S
C542 H559 0.930 . S
C543 O526 1.262 . S
C543 O527 1.260 . S
C544 Tb480 2.833 1_565 S
C544 O524 1.251 . S
C544 O529 1.256 1_565 S
C544 C537 1.500 . S
C545 H510 0.929 . S
C545 C523 1.444 . S
C545 C546 1.317 . S
C546 H508 0.930 . S
C546 C514 1.432 . S
C546 C545 1.317 . S
C547 O531 1.283 . S
C547 O534 1.243 . S
C548 C549 1.382 . S
C548 C552 1.393 . S
C548 C555 1.500 . S
C549 C548 1.382 . S
C549 C550 1.400 . S
C549 H560 0.930 . S
C550 C549 1.400 . S
C550 C551 1.384 . S
C551 C550 1.384 . S
C551 C553 1.392 . S
C551 H561 0.931 . S
C552 C548 1.393 . S
C552 C553 1.401 . S
C552 H562 0.930 . S
C553 C551 1.392 . S
C553 C552 1.401 . S
C553 H563 0.930 . S
C554 O532 1.262 . S
C554 O533 1.260 . S
C555 Tb491 2.833 . S
C555 O530 1.251 . S
C555 O535 1.256 . S
C555 C548 1.500 . S
H556 C539 0.930 . S
H557 C540 0.931 . S
H558 C541 0.930 . S
H559 C542 0.930 . S
H560 C549 0.930 . S
H561 C551 0.931 . S
H562 C552 0.930 . S
H563 C553 0.930 . S
Tb564 N595 2.660 . S
Tb564 N602 2.600 . S
Tb564 O608 2.546 . S
Tb564 O609 2.610 . S
Tb564 O611 2.320 . S
Tb564 O612 2.552 . S
Tb564 O613 2.413 . S
Tb564 O615 2.362 . S
Tb564 O616 2.421 . S
Tb564 C628 2.833 . S
C565 C568 1.432 . S
C565 C569 1.414 . S
C565 N572 1.359 . S
C566 C568 1.417 . S
C566 C570 1.432 . S
C566 C578 1.410 . S
C567 C569 1.444 . S
C567 C570 1.317 . S
C567 H590 0.929 . S
C568 C565 1.432 . S
C568 C566 1.417 . S
C568 N576 1.360 . S
C569 C565 1.414 . S
C569 C567 1.444 . S
C569 C574 1.385 . S
C570 C566 1.432 . S
C570 C567 1.317 . S
C570 H582 0.930 . S
C571 C573 1.392 . S
C571 C574 1.370 . S
C571 H583 0.931 . S
N572 C565 1.359 . S
N572 C573 1.327 . S
N572 Tb575 2.600 . S
C573 C571 1.392 . S
C573 N572 1.327 . S
C573 H580 0.930 . S
C574 C569 1.385 . S
C574 C571 1.370 . S
C574 H593 0.930 . S
Tb575 N572 2.600 . S
Tb575 N576 2.660 . S
Tb575 O609 2.362 . S
Tb575 O610 2.421 . S
Tb575 O614 2.546 . S
Tb575 O615 2.610 . S
Tb575 O617 2.320 . S
Tb575 O618 2.552 . S
Tb575 O619 2.413 . S
Tb575 C639 2.833 . S
N576 C568 1.360 . S
N576 Tb575 2.660 . S
N576 C577 1.305 . S
C577 N576 1.305 . S
C577 C579 1.407 . S
C577 H584 0.930 . S
C578 C566 1.410 . S
C578 C579 1.345 . S
C578 H586 0.930 . S
C579 C577 1.407 . S
C579 C578 1.345 . S
C579 H581 0.930 . S
H580 C573 0.930 . S
H581 C579 0.930 . S
H582 C570 0.930 . S
H583 C571 0.931 . S
H584 C577 0.930 . S
H585 C599 0.930 . S
H586 C578 0.930 . S
H587 C605 0.930 . S
H588 C596 0.930 . S
H589 C603 0.931 . S
H590 C567 0.929 . S
H591 C597 0.930 . S
H592 C630 0.930 . S
H593 C574 0.930 . S
H594 C629 0.929 . S
N595 Tb564 2.660 . S
N595 C596 1.305 . S
N595 C600 1.360 . S
C596 H588 0.930 . S
C596 N595 1.305 . S
C596 C599 1.407 . S
C597 H591 0.930 . S
C597 C598 1.410 . S
C597 C599 1.345 . S
C598 C597 1.410 . S
C598 C600 1.417 . S
C598 C630 1.432 . S
C599 H585 0.930 . S
C599 C596 1.407 . S
C599 C597 1.345 . S
C600 N595 1.360 . S
C600 C598 1.417 . S
C600 C604 1.432 . S
H601 C606 0.930 . S
N602 Tb564 2.600 . S
N602 C604 1.359 . S
N602 C605 1.327 . S
C603 H589 0.931 . S
C603 C605 1.392 . S
C603 C606 1.370 . S
C604 C600 1.432 . S
C604 N602 1.359 . S
C604 C607 1.414 . S
C605 H587 0.930 . S
C605 N602 1.327 . S
C605 C603 1.392 . S
C606 H601 0.930 . S
C606 C603 1.370 . S
C606 C607 1.385 . S
C607 C604 1.414 . S
C607 C606 1.385 . S
C607 C629 1.444 . S
O608 Tb564 2.546 . S
O608 C628 1.251 . S
O609 Tb564 2.610 . S
O609 Tb575 2.362 . S
O609 C620 1.283 . S
O610 Tb575 2.421 . S
O610 C627 1.262 . S
O611 Tb564 2.320 . S
O611 C627 1.260 . S
O612 Tb564 2.552 . S
O612 C620 1.243 . S
O613 Tb564 2.413 . S
O613 C628 1.256 . S
O614 Tb575 2.546 . S
O614 C639 1.251 . S
O615 Tb564 2.362 . S
O615 Tb575 2.610 . S
O615 C631 1.283 . S
O616 Tb564 2.421 . S
O616 C638 1.262 . S
O617 Tb575 2.320 . S
O617 C638 1.260 . S
O618 Tb575 2.552 . S
O618 C631 1.243 . S
O619 Tb575 2.413 . S
O619 C639 1.256 . S
C620 O609 1.283 . S
C620 O612 1.243 . S
C621 C623 1.382 . S
C621 C625 1.393 . S
C621 C628 1.500 . S
C622 C623 1.400 . S
C622 C624 1.384 . S
C623 C621 1.382 . S
C623 C622 1.400 . S
C623 H640 0.930 . S
C624 C622 1.384 . S
C624 C626 1.392 . S
C624 H641 0.931 . S
C625 C621 1.393 . S
C625 C626 1.401 . S
C625 H642 0.930 . S
C626 C624 1.392 . S
C626 C625 1.401 . S
C626 H643 0.930 . S
C627 O610 1.262 . S
C627 O611 1.260 . S
C628 Tb564 2.833 . S
C628 O608 1.251 . S
C628 O613 1.256 . S
C628 C621 1.500 . S
C629 H594 0.929 . S
C629 C607 1.444 . S
C629 C630 1.317 . S
C630 H592 0.930 . S
C630 C598 1.432 . S
C630 C629 1.317 . S
C631 O615 1.283 . S
C631 O618 1.243 . S
C632 C633 1.382 . S
C632 C636 1.393 . S
C632 C639 1.500 . S
C633 C632 1.382 . S
C633 C634 1.400 . S
C633 H644 0.930 . S
C634 C633 1.400 . S
C634 C635 1.384 . S
C635 C634 1.384 . S
C635 C637 1.392 . S
C635 H645 0.931 . S
C636 C632 1.393 . S
C636 C637 1.401 . S
C636 H646 0.930 . S
C637 C635 1.392 . S
C637 C636 1.401 . S
C637 H647 0.930 . S
C638 O616 1.262 . S
C638 O617 1.260 . S
C639 Tb575 2.833 . S
C639 O614 1.251 . S
C639 O619 1.256 . S
C639 C632 1.500 . S
H640 C623 0.930 . S
H641 C624 0.931 . S
H642 C625 0.930 . S
H643 C626 0.930 . S
H644 C633 0.930 . S
H645 C635 0.931 . S
H646 C636 0.930 . S
H647 C637 0.930 . S
Tb648 N679 2.660 . S
Tb648 N686 2.600 . S
Tb648 O692 2.546 . S
Tb648 O693 2.610 . S
Tb648 O695 2.320 . S
Tb648 O696 2.552 . S
Tb648 O697 2.413 . S
Tb648 O699 2.362 . S
Tb648 O700 2.421 . S
Tb648 C712 2.833 . S
C649 C652 1.432 . S
C649 C653 1.414 . S
C649 N656 1.359 . S
C650 C652 1.417 . S
C650 C654 1.432 . S
C650 C662 1.410 . S
C651 C653 1.444 . S
C651 C654 1.317 . S
C651 H674 0.929 . S
C652 C649 1.432 . S
C652 C650 1.417 . S
C652 N660 1.360 . S
C653 C649 1.414 . S
C653 C651 1.444 . S
C653 C658 1.385 . S
C654 C650 1.432 . S
C654 C651 1.317 . S
C654 H666 0.930 . S
C655 C657 1.392 . S
C655 C658 1.370 . S
C655 H667 0.931 . S
N656 C649 1.359 . S
N656 C657 1.327 . S
N656 Tb659 2.600 . S
C657 C655 1.392 . S
C657 N656 1.327 . S
C657 H664 0.930 . S
C658 C653 1.385 . S
C658 C655 1.370 . S
C658 H677 0.930 . S
Tb659 N656 2.600 . S
Tb659 N660 2.660 . S
Tb659 O693 2.362 1_565 S
Tb659 O694 2.421 1_565 S
Tb659 O698 2.546 . S
Tb659 O699 2.610 1_565 S
Tb659 O701 2.320 . S
Tb659 O702 2.552 . S
Tb659 O703 2.413 . S
Tb659 C723 2.833 . S
N660 C652 1.360 . S
N660 Tb659 2.660 . S
N660 C661 1.305 . S
C661 N660 1.305 . S
C661 C663 1.408 1_455 S
C661 H668 0.930 . S
C662 C650 1.410 . S
C662 C663 1.345 1_455 S
C662 H670 0.930 1_455 S
C663 C661 1.408 1_655 S
C663 C662 1.345 1_655 S
C663 H665 0.929 . S
H664 C657 0.930 . S
H665 C663 0.929 . S
H666 C654 0.930 . S
H667 C655 0.931 . S
H668 C661 0.930 . S
H669 C683 0.930 . S
H670 C662 0.930 1_655 S
H671 C689 0.930 . S
H672 C680 0.930 . S
H673 C687 0.931 1_655 S
H674 C651 0.929 . S
H675 C681 0.930 . S
H676 C714 0.930 . S
H677 C658 0.930 . S
H678 C713 0.929 . S
N679 Tb648 2.660 . S
N679 C680 1.305 . S
N679 C684 1.360 . S
C680 H672 0.930 . S
C680 N679 1.305 . S
C680 C683 1.407 . S
C681 H675 0.930 . S
C681 C682 1.410 . S
C681 C683 1.345 . S
C682 C681 1.410 . S
C682 C684 1.417 . S
C682 C714 1.432 . S
C683 H669 0.930 . S
C683 C680 1.407 . S
C683 C681 1.345 . S
C684 N679 1.360 . S
C684 C682 1.417 . S
C684 C688 1.432 . S
H685 C690 0.930 . S
N686 Tb648 2.600 . S
N686 C688 1.359 . S
N686 C689 1.327 . S
C687 H673 0.931 1_455 S
C687 C689 1.392 . S
C687 C690 1.370 . S
C688 C684 1.432 . S
C688 N686 1.359 . S
C688 C691 1.414 . S
C689 H671 0.930 . S
C689 N686 1.327 . S
C689 C687 1.392 . S
C690 H685 0.930 . S
C690 C687 1.370 . S
C690 C691 1.385 . S
C691 C688 1.414 . S
C691 C690 1.385 . S
C691 C713 1.444 . S
O692 Tb648 2.546 . S
O692 C712 1.251 . S
O693 Tb648 2.610 . S
O693 Tb659 2.362 1_545 S
O693 C704 1.283 . S
O694 Tb659 2.421 1_545 S
O694 C711 1.262 . S
O695 Tb648 2.320 . S
O695 C711 1.260 . S
O696 Tb648 2.552 . S
O696 C704 1.243 . S
O697 Tb648 2.413 . S
O697 C712 1.256 . S
O698 Tb659 2.546 . S
O698 C723 1.251 . S
O699 Tb648 2.362 . S
O699 Tb659 2.610 1_545 S
O699 C715 1.283 . S
O700 Tb648 2.421 . S
O700 C722 1.257 1_545 S
O701 Tb659 2.320 . S
O701 C722 1.263 . S
O702 Tb659 2.552 . S
O702 C715 1.243 1_565 S
O703 Tb659 2.413 . S
O703 C723 1.256 . S
C704 O693 1.283 . S
C704 O696 1.243 . S
C705 C707 1.382 . S
C705 C709 1.393 . S
C705 C712 1.500 . S
C706 C707 1.400 . S
C706 C708 1.384 . S
C707 C705 1.382 . S
C707 C706 1.400 . S
C707 H724 0.930 . S
C708 C706 1.384 . S
C708 C710 1.392 . S
C708 H725 0.931 . S
C709 C705 1.393 . S
C709 C710 1.401 . S
C709 H726 0.930 . S
C710 C708 1.392 . S
C710 C709 1.401 . S
C710 H727 0.930 . S
C711 O694 1.262 . S
C711 O695 1.260 . S
C712 Tb648 2.833 . S
C712 O692 1.251 . S
C712 O697 1.256 . S
C712 C705 1.500 . S
C713 H678 0.929 . S
C713 C691 1.444 . S
C713 C714 1.317 . S
C714 H676 0.930 . S
C714 C682 1.432 . S
C714 C713 1.317 . S
C715 O699 1.283 . S
C715 O702 1.243 1_545 S
C716 C717 1.382 . S
C716 C720 1.393 . S
C716 C723 1.500 . S
C717 C716 1.382 . S
C717 C718 1.400 . S
C717 H728 0.930 . S
C718 C717 1.400 . S
C718 C719 1.384 . S
C719 C718 1.384 . S
C719 C721 1.392 . S
C719 H729 0.931 . S
C720 C716 1.393 . S
C720 C721 1.401 . S
C720 H730 0.930 . S
C721 C719 1.392 . S
C721 C720 1.401 . S
C721 H731 0.930 . S
C722 O700 1.257 1_565 S
C722 O701 1.263 . S
C723 Tb659 2.833 . S
C723 O698 1.251 . S
C723 O703 1.256 . S
C723 C716 1.500 . S
H724 C707 0.930 . S
H725 C708 0.931 . S
H726 C709 0.930 . S
H727 C710 0.930 . S
H728 C717 0.930 . S
H729 C719 0.931 . S
H730 C720 0.930 . S
H731 C721 0.930 . S
Tb732 N763 2.660 . S
Tb732 N770 2.600 . S
Tb732 O776 2.546 . S
Tb732 O777 2.610 . S
Tb732 O779 2.320 . S
Tb732 O780 2.552 . S
Tb732 O781 2.413 . S
Tb732 O783 2.362 . S
Tb732 O784 2.421 . S
Tb732 C796 2.833 . S
C733 C736 1.432 . S
C733 C737 1.414 . S
C733 N740 1.359 . S
C734 C736 1.417 . S
C734 C738 1.432 . S
C734 C746 1.410 . S
C735 C737 1.444 . S
C735 C738 1.317 . S
C735 H758 0.929 . S
C736 C733 1.432 . S
C736 C734 1.417 . S
C736 N744 1.360 . S
C737 C733 1.414 . S
C737 C735 1.444 . S
C737 C742 1.385 . S
C738 C734 1.432 . S
C738 C735 1.317 . S
C738 H750 0.930 . S
C739 C741 1.392 . S
C739 C742 1.370 . S
C739 H751 0.931 . S
N740 C733 1.359 . S
N740 C741 1.327 . S
N740 Tb743 2.600 . S
C741 C739 1.392 . S
C741 N740 1.327 . S
C741 H748 0.930 . S
C742 C737 1.385 . S
C742 C739 1.370 . S
C742 H761 0.930 . S
Tb743 N740 2.600 . S
Tb743 N744 2.660 . S
Tb743 O777 2.362 . S
Tb743 O778 2.421 . S
Tb743 O782 2.546 . S
Tb743 O783 2.610 . S
Tb743 O785 2.320 . S
Tb743 O786 2.552 . S
Tb743 O787 2.413 . S
Tb743 C807 2.833 . S
N744 C736 1.360 . S
N744 Tb743 2.660 . S
N744 C745 1.305 . S
C745 N744 1.305 . S
C745 C747 1.407 . S
C745 H752 0.930 . S
C746 C734 1.410 . S
C746 C747 1.345 . S
C746 H754 0.930 . S
C747 C745 1.407 . S
C747 C746 1.345 . S
C747 H749 0.930 . S
H748 C741 0.930 . S
H749 C747 0.930 . S
H750 C738 0.930 . S
H751 C739 0.931 . S
H752 C745 0.930 . S
H753 C767 0.930 . S
H754 C746 0.930 . S
H755 C773 0.930 . S
H756 C764 0.930 . S
H757 C771 0.931 . S
H758 C735 0.929 . S
H759 C765 0.930 . S
H760 C798 0.930 . S
H761 C742 0.930 . S
H762 C797 0.929 . S
N763 Tb732 2.660 . S
N763 C764 1.305 . S
N763 C768 1.360 . S
C764 H756 0.930 . S
C764 N763 1.305 . S
C764 C767 1.407 . S
C765 H759 0.930 . S
C765 C766 1.410 . S
C765 C767 1.345 . S
C766 C765 1.410 . S
C766 C768 1.417 . S
C766 C798 1.432 . S
C767 H753 0.930 . S
C767 C764 1.407 . S
C767 C765 1.345 . S
C768 N763 1.360 . S
C768 C766 1.417 . S
C768 C772 1.432 . S
H769 C774 0.930 . S
N770 Tb732 2.600 . S
N770 C772 1.359 . S
N770 C773 1.327 . S
C771 H757 0.931 . S
C771 C773 1.392 . S
C771 C774 1.370 . S
C772 C768 1.432 . S
C772 N770 1.359 . S
C772 C775 1.414 . S
C773 H755 0.930 . S
C773 N770 1.327 . S
C773 C771 1.392 . S
C774 H769 0.930 . S
C774 C771 1.370 . S
C774 C775 1.385 . S
C775 C772 1.414 . S
C775 C774 1.385 . S
C775 C797 1.444 . S
O776 Tb732 2.546 . S
O776 C796 1.251 . S
O777 Tb732 2.610 . S
O777 Tb743 2.362 . S
O777 C788 1.283 . S
O778 Tb743 2.421 . S
O778 C795 1.262 . S
O779 Tb732 2.320 . S
O779 C795 1.260 . S
O780 Tb732 2.552 . S
O780 C788 1.243 . S
O781 Tb732 2.413 . S
O781 C796 1.256 . S
O782 Tb743 2.546 . S
O782 C807 1.251 . S
O783 Tb732 2.362 . S
O783 Tb743 2.610 . S
O783 C799 1.283 . S
O784 Tb732 2.421 . S
O784 C806 1.262 . S
O785 Tb743 2.320 . S
O785 C806 1.260 . S
O786 Tb743 2.552 . S
O786 C799 1.243 . S
O787 Tb743 2.413 . S
O787 C807 1.256 . S
C788 O777 1.283 . S
C788 O780 1.243 . S
C789 C791 1.382 . S
C789 C793 1.393 . S
C789 C796 1.500 . S
C790 C791 1.400 . S
C790 C792 1.384 . S
C791 C789 1.382 . S
C791 C790 1.400 . S
C791 H808 0.930 . S
C792 C790 1.384 . S
C792 C794 1.392 . S
C792 H809 0.931 . S
C793 C789 1.393 . S
C793 C794 1.401 . S
C793 H810 0.930 . S
C794 C792 1.392 . S
C794 C793 1.401 . S
C794 H811 0.930 . S
C795 O778 1.262 . S
C795 O779 1.260 . S
C796 Tb732 2.833 . S
C796 O776 1.251 . S
C796 O781 1.256 . S
C796 C789 1.500 . S
C797 H762 0.929 . S
C797 C775 1.444 . S
C797 C798 1.317 . S
C798 H760 0.930 . S
C798 C766 1.432 . S
C798 C797 1.317 . S
C799 O783 1.283 . S
C799 O786 1.243 . S
C800 C801 1.382 . S
C800 C804 1.393 . S
C800 C807 1.500 . S
C801 C800 1.382 . S
C801 C802 1.400 . S
C801 H812 0.930 . S
C802 C801 1.400 . S
C802 C803 1.384 . S
C803 C802 1.384 . S
C803 C805 1.392 . S
C803 H813 0.931 . S
C804 C800 1.393 . S
C804 C805 1.401 . S
C804 H814 0.930 . S
C805 C803 1.392 . S
C805 C804 1.401 . S
C805 H815 0.930 . S
C806 O784 1.262 . S
C806 O785 1.260 . S
C807 Tb743 2.833 . S
C807 O782 1.251 . S
C807 O787 1.256 . S
C807 C800 1.500 . S
H808 C791 0.930 . S
H809 C792 0.931 . S
H810 C793 0.930 . S
H811 C794 0.930 . S
H812 C801 0.930 . S
H813 C803 0.931 . S
H814 C804 0.930 . S
H815 C805 0.930 . S
Tb816 N847 2.660 . S
Tb816 N854 2.600 . S
Tb816 O860 2.546 1_545 S
Tb816 O861 2.610 . S
Tb816 O863 2.320 . S
Tb816 O864 2.552 . S
Tb816 O865 2.413 . S
Tb816 O867 2.362 . S
Tb816 O868 2.421 1_545 S
Tb816 C880 2.833 . S
C817 C820 1.432 . S
C817 C821 1.414 . S
C817 N824 1.359 . S
C818 C820 1.417 . S
C818 C822 1.432 . S
C818 C830 1.410 1_545 S
C819 C821 1.444 . S
C819 C822 1.317 . S
C819 H842 0.929 . S
C820 C817 1.432 . S
C820 C818 1.417 . S
C820 N828 1.360 . S
C821 C817 1.414 . S
C821 C819 1.444 . S
C821 C826 1.385 . S
C822 C818 1.432 . S
C822 C819 1.317 . S
C822 H834 0.930 . S
C823 C825 1.392 . S
C823 C826 1.370 . S
C823 H835 0.931 . S
N824 C817 1.359 . S
N824 C825 1.327 . S
N824 Tb827 2.600 . S
C825 C823 1.392 . S
C825 N824 1.327 . S
C825 H832 0.930 . S
C826 C821 1.385 . S
C826 C823 1.370 . S
C826 H845 0.930 . S
Tb827 N824 2.600 . S
Tb827 N828 2.660 . S
Tb827 O861 2.362 1_556 S
Tb827 O862 2.421 1_556 S
Tb827 O866 2.546 . S
Tb827 O867 2.610 1_556 S
Tb827 O869 2.320 . S
Tb827 O870 2.552 . S
Tb827 O871 2.413 . S
Tb827 C891 2.833 . S
N828 C820 1.360 . S
N828 Tb827 2.660 . S
N828 C829 1.305 1_545 S
C829 N828 1.305 1_565 S
C829 C831 1.407 . S
C829 H836 0.930 . S
C830 C818 1.410 1_565 S
C830 C831 1.345 . S
C830 H838 0.930 . S
C831 C829 1.407 . S
C831 C830 1.345 . S
C831 H833 0.930 . S
H832 C825 0.930 . S
H833 C831 0.930 . S
H834 C822 0.930 . S
H835 C823 0.931 . S
H836 C829 0.930 . S
H837 C851 0.930 . S
H838 C830 0.930 . S
H839 C857 0.930 . S
H840 C848 0.930 . S
H841 C855 0.931 . S
H842 C819 0.929 . S
H843 C849 0.930 . S
H844 C882 0.930 . S
H845 C826 0.930 . S
H846 C881 0.929 . S
N847 Tb816 2.660 . S
N847 C848 1.305 . S
N847 C852 1.360 . S
C848 H840 0.930 . S
C848 N847 1.305 . S
C848 C851 1.407 . S
C849 H843 0.930 . S
C849 C850 1.410 . S
C849 C851 1.345 . S
C850 C849 1.410 . S
C850 C852 1.417 . S
C850 C882 1.432 . S
C851 H837 0.930 . S
C851 C848 1.407 . S
C851 C849 1.345 . S
C852 N847 1.360 . S
C852 C850 1.417 . S
C852 C856 1.432 . S
H853 C858 0.930 . S
N854 Tb816 2.600 . S
N854 C856 1.359 . S
N854 C857 1.327 1_545 S
C855 H841 0.931 . S
C855 C857 1.392 . S
C855 C858 1.370 . S
C856 C852 1.432 . S
C856 N854 1.359 . S
C856 C859 1.414 . S
C857 H839 0.930 . S
C857 N854 1.327 1_565 S
C857 C855 1.392 . S
C858 H853 0.930 . S
C858 C855 1.370 . S
C858 C859 1.385 1_565 S
C859 C856 1.414 . S
C859 C858 1.385 1_545 S
C859 C881 1.444 . S
O860 Tb816 2.546 1_565 S
O860 C880 1.251 1_565 S
O861 Tb816 2.610 . S
O861 Tb827 2.362 1_554 S
O861 C872 1.283 . S
O862 Tb827 2.421 1_554 S
O862 C879 1.262 . S
O863 Tb816 2.320 . S
O863 C879 1.260 . S
O864 Tb816 2.552 . S
O864 C872 1.243 . S
O865 Tb816 2.413 . S
O865 C880 1.256 . S
O866 Tb827 2.546 . S
O866 C891 1.251 . S
O867 Tb816 2.362 . S
O867 Tb827 2.610 1_554 S
O867 C883 1.283 . S
O868 Tb816 2.421 1_565 S
O868 C890 1.262 1_554 S
O869 Tb827 2.320 . S
O869 C890 1.260 1_545 S
O870 Tb827 2.552 . S
O870 C883 1.243 1_556 S
O871 Tb827 2.413 . S
O871 C891 1.256 . S
C872 O861 1.283 . S
C872 O864 1.243 . S
C873 C875 1.382 1_565 S
C873 C877 1.393 . S
C873 C880 1.500 1_565 S
C874 C875 1.400 . S
C874 C876 1.384 1_545 S
C875 C873 1.382 1_545 S
C875 C874 1.400 . S
C875 H892 0.930 . S
C876 C874 1.384 1_565 S
C876 C878 1.392 . S
C876 H893 0.931 . S
C877 C873 1.393 . S
C877 C878 1.401 . S
C877 H894 0.930 . S
C878 C876 1.392 . S
C878 C877 1.401 . S
C878 H895 0.930 . S
C879 O862 1.262 . S
C879 O863 1.260 . S
C880 Tb816 2.833 . S
C880 O860 1.251 1_545 S
C880 O865 1.256 . S
C880 C873 1.500 1_545 S
C881 H846 0.929 . S
C881 C859 1.444 . S
C881 C882 1.317 . S
C882 H844 0.930 . S
C882 C850 1.432 . S
C882 C881 1.317 . S
C883 O867 1.283 . S
C883 O870 1.243 1_554 S
C884 C885 1.382 . S
C884 C888 1.393 . S
C884 C891 1.500 . S
C885 C884 1.382 . S
C885 C886 1.400 . S
C885 H896 0.930 . S
C886 C885 1.400 . S
C886 C887 1.384 . S
C887 C886 1.384 . S
C887 C889 1.392 . S
C887 H897 0.931 . S
C888 C884 1.393 . S
C888 C889 1.401 . S
C888 H898 0.930 . S
C889 C887 1.392 . S
C889 C888 1.401 . S
C889 H899 0.930 . S
C890 O868 1.262 1_556 S
C890 O869 1.260 1_565 S
C891 Tb827 2.833 . S
C891 O866 1.251 . S
C891 O871 1.256 . S
C891 C884 1.500 . S
H892 C875 0.930 . S
H893 C876 0.931 . S
H894 C877 0.930 . S
H895 C878 0.930 . S
H896 C885 0.930 . S
H897 C887 0.931 . S
H898 C888 0.930 . S
H899 C889 0.930 . S
Tb900 N931 2.660 . S
Tb900 N938 2.600 . S
Tb900 O944 2.546 . S
Tb900 O945 2.610 . S
Tb900 O947 2.320 . S
Tb900 O948 2.552 . S
Tb900 O949 2.413 . S
Tb900 O951 2.362 . S
Tb900 O952 2.421 . S
Tb900 C964 2.833 . S
C901 C904 1.432 . S
C901 C905 1.414 . S
C901 N908 1.359 . S
C902 C904 1.417 . S
C902 C906 1.432 . S
C902 C914 1.410 . S
C903 C905 1.444 . S
C903 C906 1.317 . S
C903 H926 0.929 . S
C904 C901 1.432 . S
C904 C902 1.417 . S
C904 N912 1.360 . S
C905 C901 1.414 . S
C905 C903 1.444 . S
C905 C910 1.385 . S
C906 C902 1.432 . S
C906 C903 1.317 . S
C906 H918 0.930 . S
C907 C909 1.392 . S
C907 C910 1.370 . S
C907 H919 0.931 . S
N908 C901 1.359 . S
N908 C909 1.327 . S
N908 Tb911 2.600 . S
C909 C907 1.392 . S
C909 N908 1.327 . S
C909 H916 0.930 . S
C910 C905 1.385 . S
C910 C907 1.370 . S
C910 H929 0.930 . S
Tb911 N908 2.600 . S
Tb911 N912 2.660 . S
Tb911 O945 2.362 . S
Tb911 O946 2.421 . S
Tb911 O950 2.546 . S
Tb911 O951 2.610 . S
Tb911 O953 2.320 . S
Tb911 O954 2.552 . S
Tb911 O955 2.413 . S
Tb911 C975 2.833 . S
N912 C904 1.360 . S
N912 Tb911 2.660 . S
N912 C913 1.305 . S
C913 N912 1.305 . S
C913 C915 1.407 . S
C913 H920 0.930 . S
C914 C902 1.410 . S
C914 C915 1.345 . S
C914 H922 0.930 . S
C915 C913 1.407 . S
C915 C914 1.345 . S
C915 H917 0.930 . S
H916 C909 0.930 . S
H917 C915 0.930 . S
H918 C906 0.930 . S
H919 C907 0.931 . S
H920 C913 0.930 . S
H921 C935 0.930 . S
H922 C914 0.930 . S
H923 C941 0.930 . S
H924 C932 0.930 . S
H925 C939 0.931 . S
H926 C903 0.929 . S
H927 C933 0.930 . S
H928 C966 0.930 . S
H929 C910 0.930 . S
H930 C965 0.929 . S
N931 Tb900 2.660 . S
N931 C932 1.305 . S
N931 C936 1.360 . S
C932 H924 0.930 . S
C932 N931 1.305 . S
C932 C935 1.407 . S
C933 H927 0.930 . S
C933 C934 1.410 . S
C933 C935 1.345 . S
C934 C933 1.410 . S
C934 C936 1.417 . S
C934 C966 1.432 . S
C935 H921 0.930 . S
C935 C932 1.407 . S
C935 C933 1.345 . S
C936 N931 1.360 . S
C936 C934 1.417 . S
C936 C940 1.432 . S
H937 C942 0.930 . S
N938 Tb900 2.600 . S
N938 C940 1.359 . S
N938 C941 1.327 . S
C939 H925 0.931 . S
C939 C941 1.392 . S
C939 C942 1.370 . S
C940 C936 1.432 . S
C940 N938 1.359 . S
C940 C943 1.414 . S
C941 H923 0.930 . S
C941 N938 1.327 . S
C941 C939 1.392 . S
C942 H937 0.930 . S
C942 C939 1.370 . S
C942 C943 1.385 . S
C943 C940 1.414 . S
C943 C942 1.385 . S
C943 C965 1.444 . S
O944 Tb900 2.546 . S
O944 C964 1.251 . S
O945 Tb900 2.610 . S
O945 Tb911 2.362 . S
O945 C956 1.283 . S
O946 Tb911 2.421 . S
O946 C963 1.262 . S
O947 Tb900 2.320 . S
O947 C963 1.260 . S
O948 Tb900 2.552 . S
O948 C956 1.243 . S
O949 Tb900 2.413 . S
O949 C964 1.256 . S
O950 Tb911 2.546 . S
O950 C975 1.251 . S
O951 Tb900 2.362 . S
O951 Tb911 2.610 . S
O951 C967 1.283 . S
O952 Tb900 2.421 . S
O952 C974 1.262 . S
O953 Tb911 2.320 . S
O953 C974 1.260 . S
O954 Tb911 2.552 . S
O954 C967 1.243 . S
O955 Tb911 2.413 . S
O955 C975 1.256 . S
C956 O945 1.283 . S
C956 O948 1.243 . S
C957 C959 1.382 . S
C957 C961 1.393 . S
C957 C964 1.500 . S
C958 C959 1.400 . S
C958 C960 1.384 . S
C959 C957 1.382 . S
C959 C958 1.400 . S
C959 H976 0.930 . S
C960 C958 1.384 . S
C960 C962 1.392 . S
C960 H977 0.931 . S
C961 C957 1.393 . S
C961 C962 1.401 . S
C961 H978 0.930 . S
C962 C960 1.392 . S
C962 C961 1.401 . S
C962 H979 0.930 . S
C963 O946 1.262 . S
C963 O947 1.260 . S
C964 Tb900 2.833 . S
C964 O944 1.251 . S
C964 O949 1.256 . S
C964 C957 1.500 . S
C965 H930 0.929 . S
C965 C943 1.444 . S
C965 C966 1.317 . S
C966 H928 0.930 . S
C966 C934 1.432 . S
C966 C965 1.317 . S
C967 O951 1.283 . S
C967 O954 1.243 . S
C968 C969 1.382 . S
C968 C972 1.393 . S
C968 C975 1.500 . S
C969 C968 1.382 . S
C969 C970 1.400 . S
C969 H980 0.930 . S
C970 C969 1.400 . S
C970 C971 1.384 . S
C971 C970 1.384 . S
C971 C973 1.392 . S
C971 H981 0.931 . S
C972 C968 1.393 . S
C972 C973 1.401 . S
C972 H982 0.930 . S
C973 C971 1.392 . S
C973 C972 1.401 . S
C973 H983 0.930 . S
C974 O952 1.262 . S
C974 O953 1.260 . S
C975 Tb911 2.833 . S
C975 O950 1.251 . S
C975 O955 1.256 . S
C975 C968 1.500 . S
H976 C959 0.930 . S
H977 C960 0.931 . S
H978 C961 0.930 . S
H979 C962 0.930 . S
H980 C969 0.930 . S
H981 C971 0.931 . S
H982 C972 0.930 . S
H983 C973 0.930 . S
Tb984 N1015 2.660 . S
Tb984 N1022 2.600 . S
Tb984 O1028 2.546 . S
Tb984 O1029 2.610 1_554 S
Tb984 O1031 2.320 . S
Tb984 O1032 2.552 1_554 S
Tb984 O1033 2.413 . S
Tb984 O1035 2.362 . S
Tb984 O1036 2.421 . S
Tb984 C1048 2.833 . S
C985 C988 1.432 . S
C985 C989 1.414 . S
C985 N992 1.359 . S
C986 C988 1.417 . S
C986 C990 1.432 . S
C986 C998 1.410 . S
C987 C989 1.444 . S
C987 C990 1.317 . S
C987 H1010 0.929 . S
C988 C985 1.432 . S
C988 C986 1.417 . S
C988 N996 1.360 . S
C989 C985 1.414 . S
C989 C987 1.444 . S
C989 C994 1.385 . S
C990 C986 1.432 . S
C990 C987 1.317 . S
C990 H1002 0.930 . S
C991 C993 1.392 . S
C991 C994 1.370 . S
C991 H1003 0.931 . S
N992 C985 1.359 . S
N992 C993 1.327 . S
N992 Tb995 2.600 . S
C993 C991 1.392 . S
C993 N992 1.327 . S
C993 H1000 0.930 . S
C994 C989 1.385 . S
C994 C991 1.370 . S
C994 H1013 0.930 . S
Tb995 N992 2.600 . S
Tb995 N996 2.660 . S
Tb995 O1029 2.362 . S
Tb995 O1030 2.417 . S
Tb995 O1034 2.546 1_556 S
Tb995 O1035 2.610 1_556 S
Tb995 O1037 2.320 1_556 S
Tb995 O1038 2.552 1_556 S
Tb995 O1039 2.413 1_556 S
Tb995 C1059 2.833 1_556 S
N996 C988 1.360 . S
N996 Tb995 2.660 . S
N996 C997 1.305 . S
C997 N996 1.305 . S
C997 C999 1.407 . S
C997 H1004 0.930 . S
C998 C986 1.410 . S
C998 C999 1.345 . S
C998 H1006 0.930 . S
C999 C997 1.407 . S
C999 C998 1.345 . S
C999 H1001 0.930 . S
H1000 C993 0.930 . S
H1001 C999 0.930 . S
H1002 C990 0.930 . S
H1003 C991 0.931 . S
H1004 C997 0.930 . S
H1005 C1019 0.930 . S
H1006 C998 0.930 . S
H1007 C1025 0.930 . S
H1008 C1016 0.930 . S
H1009 C1023 0.931 . S
H1010 C987 0.929 . S
H1011 C1017 0.930 . S
H1012 C1050 0.930 . S
H1013 C994 0.930 . S
H1014 C1049 0.929 . S
N1015 Tb984 2.660 . S
N1015 C1016 1.305 . S
N1015 C1020 1.360 . S
C1016 H1008 0.930 . S
C1016 N1015 1.305 . S
C1016 C1019 1.407 . S
C1017 H1011 0.930 . S
C1017 C1018 1.410 . S
C1017 C1019 1.345 . S
C1018 C1017 1.410 . S
C1018 C1020 1.417 . S
C1018 C1050 1.432 . S
C1019 H1005 0.930 . S
C1019 C1016 1.407 . S
C1019 C1017 1.345 . S
C1020 N1015 1.360 . S
C1020 C1018 1.417 . S
C1020 C1024 1.432 . S
H1021 C1026 0.930 . S
N1022 Tb984 2.600 . S
N1022 C1024 1.359 . S
N1022 C1025 1.327 . S
C1023 H1009 0.931 . S
C1023 C1025 1.392 . S
C1023 C1026 1.370 . S
C1024 C1020 1.432 . S
C1024 N1022 1.359 . S
C1024 C1027 1.414 . S
C1025 H1007 0.930 . S
C1025 N1022 1.327 . S
C1025 C1023 1.392 . S
C1026 H1021 0.930 . S
C1026 C1023 1.370 . S
C1026 C1027 1.385 . S
C1027 C1024 1.414 . S
C1027 C1026 1.385 . S
C1027 C1049 1.444 . S
O1028 Tb984 2.546 . S
O1028 C1048 1.251 . S
O1029 Tb984 2.610 1_556 S
O1029 Tb995 2.362 . S
O1029 C1040 1.283 . S
O1030 Tb995 2.417 . S
O1030 C1047 1.262 . S
O1031 Tb984 2.320 . S
O1031 C1047 1.252 1_554 S
O1032 Tb984 2.552 1_556 S
O1032 C1040 1.243 . S
O1033 Tb984 2.413 . S
O1033 C1048 1.256 . S
O1034 Tb995 2.546 1_554 S
O1034 C1059 1.251 . S
O1035 Tb984 2.362 . S
O1035 Tb995 2.610 1_554 S
O1035 C1051 1.283 . S
O1036 Tb984 2.421 . S
O1036 C1058 1.262 . S
O1037 Tb995 2.320 1_554 S
O1037 C1058 1.260 . S
O1038 Tb995 2.552 1_554 S
O1038 C1051 1.243 . S
O1039 Tb995 2.413 1_554 S
O1039 C1059 1.256 . S
C1040 O1029 1.283 . S
C1040 O1032 1.243 . S
C1041 C1043 1.382 1_554 S
C1041 C1045 1.393 . S
C1041 C1048 1.500 . S
C1042 C1043 1.400 . S
C1042 C1044 1.384 . S
C1043 C1041 1.382 1_556 S
C1043 C1042 1.400 . S
C1043 H1060 0.930 . S
C1044 C1042 1.384 . S
C1044 C1046 1.392 1_556 S
C1044 H1061 0.931 . S
C1045 C1041 1.393 . S
C1045 C1046 1.401 . S
C1045 H1062 0.930 . S
C1046 C1044 1.392 1_554 S
C1046 C1045 1.401 . S
C1046 H1063 0.930 . S
C1047 O1030 1.262 . S
C1047 O1031 1.252 1_556 S
C1048 Tb984 2.833 . S
C1048 O1028 1.251 . S
C1048 O1033 1.256 . S
C1048 C1041 1.500 . S
C1049 H1014 0.929 . S
C1049 C1027 1.444 . S
C1049 C1050 1.317 . S
C1050 H1012 0.930 . S
C1050 C1018 1.432 . S
C1050 C1049 1.317 . S
C1051 O1035 1.283 . S
C1051 O1038 1.243 . S
C1052 C1053 1.382 . S
C1052 C1056 1.393 . S
C1052 C1059 1.500 . S
C1053 C1052 1.382 . S
C1053 C1054 1.400 . S
C1053 H1064 0.930 . S
C1054 C1053 1.400 . S
C1054 C1055 1.384 . S
C1055 C1054 1.384 . S
C1055 C1057 1.392 . S
C1055 H1065 0.931 . S
C1056 C1052 1.393 . S
C1056 C1057 1.401 . S
C1056 H1066 0.930 1_554 S
C1057 C1055 1.392 . S
C1057 C1056 1.401 . S
C1057 H1067 0.930 . S
C1058 O1036 1.262 . S
C1058 O1037 1.260 . S
C1059 Tb995 2.833 1_554 S
C1059 O1034 1.251 . S
C1059 O1039 1.256 . S
C1059 C1052 1.500 . S
H1060 C1043 0.930 . S
H1061 C1044 0.931 . S
H1062 C1045 0.930 . S
H1063 C1046 0.930 . S
H1064 C1053 0.930 . S
H1065 C1055 0.931 . S
H1066 C1056 0.930 1_556 S
H1067 C1057 0.930 . S
Tb1068 N1099 2.660 . S
Tb1068 N1106 2.600 . S
Tb1068 O1112 2.546 . S
Tb1068 O1113 2.610 . S
Tb1068 O1115 2.320 . S
Tb1068 O1116 2.552 . S
Tb1068 O1117 2.413 . S
Tb1068 O1119 2.362 . S
Tb1068 O1120 2.421 . S
Tb1068 C1132 2.833 . S
C1069 C1072 1.432 . S
C1069 C1073 1.414 . S
C1069 N1076 1.359 . S
C1070 C1072 1.417 . S
C1070 C1074 1.432 . S
C1070 C1082 1.410 . S
C1071 C1073 1.444 . S
C1071 C1074 1.317 . S
C1071 H1094 0.929 . S
C1072 C1069 1.432 . S
C1072 C1070 1.417 . S
C1072 N1080 1.360 . S
C1073 C1069 1.414 . S
C1073 C1071 1.444 . S
C1073 C1078 1.385 . S
C1074 C1070 1.432 . S
C1074 C1071 1.317 . S
C1074 H1086 0.930 . S
C1075 C1077 1.392 . S
C1075 C1078 1.370 . S
C1075 H1087 0.931 . S
N1076 C1069 1.359 . S
N1076 C1077 1.327 . S
N1076 Tb1079 2.600 . S
C1077 C1075 1.392 . S
C1077 N1076 1.327 . S
C1077 H1084 0.930 . S
C1078 C1073 1.385 . S
C1078 C1075 1.370 . S
C1078 H1097 0.930 . S
Tb1079 N1076 2.600 . S
Tb1079 N1080 2.660 . S
Tb1079 O1113 2.362 . S
Tb1079 O1114 2.421 . S
Tb1079 O1118 2.546 . S
Tb1079 O1119 2.610 . S
Tb1079 O1121 2.320 . S
Tb1079 O1122 2.552 . S
Tb1079 O1123 2.413 . S
Tb1079 C1143 2.833 . S
N1080 C1072 1.360 . S
N1080 Tb1079 2.660 . S
N1080 C1081 1.305 . S
C1081 N1080 1.305 . S
C1081 C1083 1.407 . S
C1081 H1088 0.930 . S
C1082 C1070 1.410 . S
C1082 C1083 1.345 . S
C1082 H1090 0.930 . S
C1083 C1081 1.407 . S
C1083 C1082 1.345 . S
C1083 H1085 0.930 . S
H1084 C1077 0.930 . S
H1085 C1083 0.930 . S
H1086 C1074 0.930 . S
H1087 C1075 0.931 . S
H1088 C1081 0.930 . S
H1089 C1103 0.930 . S
H1090 C1082 0.930 . S
H1091 C1109 0.930 . S
H1092 C1100 0.930 . S
H1093 C1107 0.931 . S
H1094 C1071 0.929 . S
H1095 C1101 0.930 . S
H1096 C1134 0.930 . S
H1097 C1078 0.930 . S
H1098 C1133 0.929 . S
N1099 Tb1068 2.660 . S
N1099 C1100 1.305 . S
N1099 C1104 1.360 . S
C1100 H1092 0.930 . S
C1100 N1099 1.305 . S
C1100 C1103 1.407 . S
C1101 H1095 0.930 . S
C1101 C1102 1.410 . S
C1101 C1103 1.345 . S
C1102 C1101 1.410 . S
C1102 C1104 1.417 . S
C1102 C1134 1.432 . S
C1103 H1089 0.930 . S
C1103 C1100 1.407 . S
C1103 C1101 1.345 . S
C1104 N1099 1.360 . S
C1104 C1102 1.417 . S
C1104 C1108 1.432 . S
H1105 C1110 0.930 . S
N1106 Tb1068 2.600 . S
N1106 C1108 1.359 . S
N1106 C1109 1.327 . S
C1107 H1093 0.931 . S
C1107 C1109 1.392 . S
C1107 C1110 1.370 . S
C1108 C1104 1.432 . S
C1108 N1106 1.359 . S
C1108 C1111 1.414 . S
C1109 H1091 0.930 . S
C1109 N1106 1.327 . S
C1109 C1107 1.392 . S
C1110 H1105 0.930 . S
C1110 C1107 1.370 . S
C1110 C1111 1.385 . S
C1111 C1108 1.414 . S
C1111 C1110 1.385 . S
C1111 C1133 1.444 . S
O1112 Tb1068 2.546 . S
O1112 C1132 1.251 . S
O1113 Tb1068 2.610 . S
O1113 Tb1079 2.362 . S
O1113 C1124 1.283 . S
O1114 Tb1079 2.421 . S
O1114 C1131 1.262 . S
O1115 Tb1068 2.320 . S
O1115 C1131 1.260 . S
O1116 Tb1068 2.552 . S
O1116 C1124 1.243 . S
O1117 Tb1068 2.413 . S
O1117 C1132 1.256 . S
O1118 Tb1079 2.546 . S
O1118 C1143 1.251 . S
O1119 Tb1068 2.362 . S
O1119 Tb1079 2.610 . S
O1119 C1135 1.283 . S
O1120 Tb1068 2.421 . S
O1120 C1142 1.262 . S
O1121 Tb1079 2.320 . S
O1121 C1142 1.260 . S
O1122 Tb1079 2.552 . S
O1122 C1135 1.243 . S
O1123 Tb1079 2.413 . S
O1123 C1143 1.256 . S
C1124 O1113 1.283 . S
C1124 O1116 1.243 . S
C1125 C1127 1.382 . S
C1125 C1129 1.393 . S
C1125 C1132 1.500 . S
C1126 C1127 1.400 1_455 S
C1126 C1128 1.384 . S
C1127 C1125 1.382 . S
C1127 C1126 1.400 1_655 S
C1127 H1144 0.930 . S
C1128 C1126 1.384 . S
C1128 C1130 1.392 . S
C1128 H1145 0.931 . S
C1129 C1125 1.393 . S
C1129 C1130 1.401 1_655 S
C1129 H1146 0.930 . S
C1130 C1128 1.392 . S
C1130 C1129 1.401 1_455 S
C1130 H1147 0.930 . S
C1131 O1114 1.262 . S
C1131 O1115 1.260 . S
C1132 Tb1068 2.833 . S
C1132 O1112 1.251 . S
C1132 O1117 1.256 . S
C1132 C1125 1.500 . S
C1133 H1098 0.929 . S
C1133 C1111 1.444 . S
C1133 C1134 1.317 . S
C1134 H1096 0.930 . S
C1134 C1102 1.432 . S
C1134 C1133 1.317 . S
C1135 O1119 1.283 . S
C1135 O1122 1.243 . S
C1136 C1137 1.382 . S
C1136 C1140 1.393 . S
C1136 C1143 1.500 . S
C1137 C1136 1.382 . S
C1137 C1138 1.400 . S
C1137 H1148 0.930 . S
C1138 C1137 1.400 . S
C1138 C1139 1.384 . S
C1139 C1138 1.384 . S
C1139 C1141 1.392 . S
C1139 H1149 0.931 . S
C1140 C1136 1.393 . S
C1140 C1141 1.401 . S
C1140 H1150 0.930 . S
C1141 C1139 1.392 . S
C1141 C1140 1.401 . S
C1141 H1151 0.930 . S
C1142 O1120 1.262 . S
C1142 O1121 1.260 . S
C1143 Tb1079 2.833 . S
C1143 O1118 1.251 . S
C1143 O1123 1.256 . S
C1143 C1136 1.500 . S
H1144 C1127 0.930 . S
H1145 C1128 0.931 . S
H1146 C1129 0.930 . S
H1147 C1130 0.930 . S
H1148 C1137 0.930 . S
H1149 C1139 0.931 . S
H1150 C1140 0.930 . S
H1151 C1141 0.930 . S
Tb1152 N1183 2.660 . S
Tb1152 N1190 2.600 . S
Tb1152 O1196 2.546 . S
Tb1152 O1197 2.610 . S
Tb1152 O1199 2.320 . S
Tb1152 O1200 2.552 . S
Tb1152 O1201 2.413 . S
Tb1152 O1203 2.362 . S
Tb1152 O1204 2.421 . S
Tb1152 C1216 2.833 . S
C1153 C1156 1.432 . S
C1153 C1157 1.414 . S
C1153 N1160 1.359 1_655 S
C1154 C1156 1.417 . S
C1154 C1158 1.432 . S
C1154 C1166 1.410 . S
C1155 C1157 1.444 . S
C1155 C1158 1.317 . S
C1155 H1178 0.929 . S
C1156 C1153 1.432 . S
C1156 C1154 1.417 . S
C1156 N1164 1.360 1_655 S
C1157 C1153 1.414 . S
C1157 C1155 1.444 . S
C1157 C1162 1.385 . S
C1158 C1154 1.432 . S
C1158 C1155 1.317 . S
C1158 H1170 0.930 . S
C1159 C1161 1.392 1_655 S
C1159 C1162 1.370 . S
C1159 H1171 0.928 . S
N1160 C1153 1.359 1_455 S
N1160 C1161 1.327 . S
N1160 Tb1163 2.600 . S
C1161 C1159 1.392 1_455 S
C1161 N1160 1.327 . S
C1161 H1168 0.930 . S
C1162 C1157 1.385 . S
C1162 C1159 1.370 . S
C1162 H1181 0.930 . S
Tb1163 N1160 2.600 . S
Tb1163 N1164 2.660 . S
Tb1163 O1197 2.362 . S
Tb1163 O1198 2.421 . S
Tb1163 O1202 2.546 . S
Tb1163 O1203 2.610 . S
Tb1163 O1205 2.320 . S
Tb1163 O1206 2.552 . S
Tb1163 O1207 2.413 . S
Tb1163 C1227 2.833 . S
N1164 C1156 1.360 1_455 S
N1164 Tb1163 2.660 . S
N1164 C1165 1.305 . S
C1165 N1164 1.305 . S
C1165 C1167 1.407 1_455 S
C1165 H1172 0.930 . S
C1166 C1154 1.410 . S
C1166 C1167 1.345 . S
C1166 H1174 0.930 . S
C1167 C1165 1.407 1_655 S
C1167 C1166 1.345 . S
C1167 H1169 0.930 . S
H1168 C1161 0.930 . S
H1169 C1167 0.930 . S
H1170 C1158 0.930 . S
H1171 C1159 0.928 . S
H1172 C1165 0.930 . S
H1173 C1187 0.930 . S
H1174 C1166 0.930 . S
H1175 C1193 0.930 . S
H1176 C1184 0.930 . S
H1177 C1191 0.931 . S
H1178 C1155 0.929 . S
H1179 C1185 0.930 . S
H1180 C1218 0.930 . S
H1181 C1162 0.930 . S
H1182 C1217 0.929 . S
N1183 Tb1152 2.660 . S
N1183 C1184 1.305 . S
N1183 C1188 1.360 . S
C1184 H1176 0.930 . S
C1184 N1183 1.305 . S
C1184 C1187 1.407 . S
C1185 H1179 0.930 . S
C1185 C1186 1.410 . S
C1185 C1187 1.345 . S
C1186 C1185 1.410 . S
C1186 C1188 1.417 . S
C1186 C1218 1.432 . S
C1187 H1173 0.930 . S
C1187 C1184 1.407 . S
C1187 C1185 1.345 . S
C1188 N1183 1.360 . S
C1188 C1186 1.417 . S
C1188 C1192 1.432 . S
H1189 C1194 0.930 . S
N1190 Tb1152 2.600 . S
N1190 C1192 1.359 . S
N1190 C1193 1.327 . S
C1191 H1177 0.931 . S
C1191 C1193 1.392 . S
C1191 C1194 1.370 . S
C1192 C1188 1.432 . S
C1192 N1190 1.359 . S
C1192 C1195 1.414 . S
C1193 H1175 0.930 . S
C1193 N1190 1.327 . S
C1193 C1191 1.392 . S
C1194 H1189 0.930 . S
C1194 C1191 1.370 . S
C1194 C1195 1.385 . S
C1195 C1192 1.414 . S
C1195 C1194 1.385 . S
C1195 C1217 1.444 . S
O1196 Tb1152 2.546 . S
O1196 C1216 1.251 . S
O1197 Tb1152 2.610 . S
O1197 Tb1163 2.362 . S
O1197 C1208 1.283 . S
O1198 Tb1163 2.421 . S
O1198 C1215 1.262 . S
O1199 Tb1152 2.320 . S
O1199 C1215 1.260 . S
O1200 Tb1152 2.552 . S
O1200 C1208 1.243 . S
O1201 Tb1152 2.413 . S
O1201 C1216 1.256 . S
O1202 Tb1163 2.546 . S
O1202 C1227 1.251 . S
O1203 Tb1152 2.362 . S
O1203 Tb1163 2.610 . S
O1203 C1219 1.283 . S
O1204 Tb1152 2.421 . S
O1204 C1226 1.262 . S
O1205 Tb1163 2.320 . S
O1205 C1226 1.260 . S
O1206 Tb1163 2.552 . S
O1206 C1219 1.243 . S
O1207 Tb1163 2.413 . S
O1207 C1227 1.256 . S
C1208 O1197 1.283 . S
C1208 O1200 1.243 . S
C1209 C1211 1.382 . S
C1209 C1213 1.393 . S
C1209 C1216 1.500 . S
C1210 C1211 1.400 1_655 S
C1210 C1212 1.384 . S
C1211 C1209 1.382 . S
C1211 C1210 1.400 1_455 S
C1211 H1228 0.930 . S
C1212 C1210 1.384 . S
C1212 C1214 1.392 1_655 S
C1212 H1229 0.931 . S
C1213 C1209 1.393 . S
C1213 C1214 1.401 . S
C1213 H1230 0.930 . S
C1214 C1212 1.392 1_455 S
C1214 C1213 1.401 . S
C1214 H1231 0.930 . S
C1215 O1198 1.262 . S
C1215 O1199 1.260 . S
C1216 Tb1152 2.833 . S
C1216 O1196 1.251 . S
C1216 O1201 1.256 . S
C1216 C1209 1.500 . S
C1217 H1182 0.929 . S
C1217 C1195 1.444 . S
C1217 C1218 1.317 . S
C1218 H1180 0.930 . S
C1218 C1186 1.432 . S
C1218 C1217 1.317 . S
C1219 O1203 1.283 . S
C1219 O1206 1.243 . S
C1220 C1221 1.382 . S
C1220 C1224 1.393 . S
C1220 C1227 1.500 . S
C1221 C1220 1.382 . S
C1221 C1222 1.400 . S
C1221 H1232 0.930 . S
C1222 C1221 1.400 . S
C1222 C1223 1.384 . S
C1223 C1222 1.384 . S
C1223 C1225 1.392 . S
C1223 H1233 0.931 . S
C1224 C1220 1.393 . S
C1224 C1225 1.401 . S
C1224 H1234 0.930 . S
C1225 C1223 1.392 . S
C1225 C1224 1.401 . S
C1225 H1235 0.930 . S
C1226 O1204 1.262 . S
C1226 O1205 1.260 . S
C1227 Tb1163 2.833 . S
C1227 O1202 1.251 . S
C1227 O1207 1.256 . S
C1227 C1220 1.500 . S
H1228 C1211 0.930 . S
H1229 C1212 0.931 . S
H1230 C1213 0.930 . S
H1231 C1214 0.930 . S
H1232 C1221 0.930 . S
H1233 C1223 0.931 . S
H1234 C1224 0.930 . S
H1235 C1225 0.930 . S
Tb1236 N1267 2.660 . S
Tb1236 N1274 2.600 . S
Tb1236 O1280 2.546 . S
Tb1236 O1281 2.610 . S
Tb1236 O1283 2.320 . S
Tb1236 O1284 2.552 . S
Tb1236 O1285 2.413 . S
Tb1236 O1287 2.362 . S
Tb1236 O1288 2.421 . S
Tb1236 C1300 2.833 . S
C1237 C1240 1.432 . S
C1237 C1241 1.414 . S
C1237 N1244 1.359 . S
C1238 C1240 1.417 . S
C1238 C1242 1.432 . S
C1238 C1250 1.410 . S
C1239 C1241 1.444 . S
C1239 C1242 1.317 . S
C1239 H1262 0.929 . S
C1240 C1237 1.432 . S
C1240 C1238 1.417 . S
C1240 N1248 1.360 . S
C1241 C1237 1.414 . S
C1241 C1239 1.444 . S
C1241 C1246 1.385 . S
C1242 C1238 1.432 . S
C1242 C1239 1.317 . S
C1242 H1254 0.930 . S
C1243 C1245 1.392 . S
C1243 C1246 1.370 . S
C1243 H1255 0.931 . S
N1244 C1237 1.359 . S
N1244 C1245 1.327 . S
N1244 Tb1247 2.600 . S
C1245 C1243 1.392 . S
C1245 N1244 1.327 . S
C1245 H1252 0.930 . S
C1246 C1241 1.385 . S
C1246 C1243 1.370 . S
C1246 H1265 0.930 . S
Tb1247 N1244 2.600 . S
Tb1247 N1248 2.660 . S
Tb1247 O1281 2.362 . S
Tb1247 O1282 2.421 . S
Tb1247 O1286 2.546 . S
Tb1247 O1287 2.610 . S
Tb1247 O1289 2.320 . S
Tb1247 O1290 2.552 . S
Tb1247 O1291 2.413 . S
Tb1247 C1311 2.833 . S
N1248 C1240 1.360 . S
N1248 Tb1247 2.660 . S
N1248 C1249 1.305 . S
C1249 N1248 1.305 . S
C1249 C1251 1.407 . S
C1249 H1256 0.930 . S
C1250 C1238 1.410 . S
C1250 C1251 1.345 . S
C1250 H1258 0.930 . S
C1251 C1249 1.407 . S
C1251 C1250 1.345 . S
C1251 H1253 0.930 . S
H1252 C1245 0.930 . S
H1253 C1251 0.930 . S
H1254 C1242 0.930 . S
H1255 C1243 0.931 . S
H1256 C1249 0.930 . S
H1257 C1271 0.930 . S
H1258 C1250 0.930 . S
H1259 C1277 0.930 . S
H1260 C1268 0.930 . S
H1261 C1275 0.931 . S
H1262 C1239 0.929 . S
H1263 C1269 0.930 . S
H1264 C1302 0.930 . S
H1265 C1246 0.930 . S
H1266 C1301 0.929 . S
N1267 Tb1236 2.660 . S
N1267 C1268 1.305 . S
N1267 C1272 1.360 . S
C1268 H1260 0.930 . S
C1268 N1267 1.305 . S
C1268 C1271 1.407 . S
C1269 H1263 0.930 . S
C1269 C1270 1.410 . S
C1269 C1271 1.345 . S
C1270 C1269 1.410 . S
C1270 C1272 1.417 . S
C1270 C1302 1.432 . S
C1271 H1257 0.930 . S
C1271 C1268 1.407 . S
C1271 C1269 1.345 . S
C1272 N1267 1.360 . S
C1272 C1270 1.417 . S
C1272 C1276 1.432 . S
H1273 C1278 0.930 . S
N1274 Tb1236 2.600 . S
N1274 C1276 1.359 . S
N1274 C1277 1.327 . S
C1275 H1261 0.931 . S
C1275 C1277 1.392 . S
C1275 C1278 1.370 . S
C1276 C1272 1.432 . S
C1276 N1274 1.359 . S
C1276 C1279 1.414 . S
C1277 H1259 0.930 . S
C1277 N1274 1.327 . S
C1277 C1275 1.392 . S
C1278 H1273 0.930 . S
C1278 C1275 1.370 . S
C1278 C1279 1.385 . S
C1279 C1276 1.414 . S
C1279 C1278 1.385 . S
C1279 C1301 1.444 . S
O1280 Tb1236 2.546 . S
O1280 C1300 1.251 . S
O1281 Tb1236 2.610 . S
O1281 Tb1247 2.362 . S
O1281 C1292 1.283 . S
O1282 Tb1247 2.421 . S
O1282 C1299 1.262 . S
O1283 Tb1236 2.320 . S
O1283 C1299 1.260 . S
O1284 Tb1236 2.552 . S
O1284 C1292 1.243 . S
O1285 Tb1236 2.413 . S
O1285 C1300 1.256 . S
O1286 Tb1247 2.546 . S
O1286 C1311 1.251 . S
O1287 Tb1236 2.362 . S
O1287 Tb1247 2.610 . S
O1287 C1303 1.283 . S
O1288 Tb1236 2.421 . S
O1288 C1310 1.262 . S
O1289 Tb1247 2.320 . S
O1289 C1310 1.260 . S
O1290 Tb1247 2.552 . S
O1290 C1303 1.243 . S
O1291 Tb1247 2.413 . S
O1291 C1311 1.256 . S
C1292 O1281 1.283 . S
C1292 O1284 1.243 . S
C1293 C1295 1.382 . S
C1293 C1297 1.393 . S
C1293 C1300 1.500 . S
C1294 C1295 1.400 . S
C1294 C1296 1.384 . S
C1295 C1293 1.382 . S
C1295 C1294 1.400 . S
C1295 H1312 0.930 . S
C1296 C1294 1.384 . S
C1296 C1298 1.392 . S
C1296 H1313 0.931 . S
C1297 C1293 1.393 . S
C1297 C1298 1.401 . S
C1297 H1314 0.930 . S
C1298 C1296 1.392 . S
C1298 C1297 1.401 . S
C1298 H1315 0.930 . S
C1299 O1282 1.262 . S
C1299 O1283 1.260 . S
C1300 Tb1236 2.833 . S
C1300 O1280 1.251 . S
C1300 O1285 1.256 . S
C1300 C1293 1.500 . S
C1301 H1266 0.929 . S
C1301 C1279 1.444 . S
C1301 C1302 1.317 . S
C1302 H1264 0.930 . S
C1302 C1270 1.432 . S
C1302 C1301 1.317 . S
C1303 O1287 1.283 . S
C1303 O1290 1.243 . S
C1304 C1305 1.382 . S
C1304 C1308 1.393 . S
C1304 C1311 1.500 . S
C1305 C1304 1.382 . S
C1305 C1306 1.400 . S
C1305 H1316 0.930 . S
C1306 C1305 1.400 . S
C1306 C1307 1.384 . S
C1307 C1306 1.384 . S
C1307 C1309 1.392 . S
C1307 H1317 0.931 1_655 S
C1308 C1304 1.393 . S
C1308 C1309 1.401 . S
C1308 H1318 0.930 . S
C1309 C1307 1.392 . S
C1309 C1308 1.401 . S
C1309 H1319 0.930 . S
C1310 O1288 1.262 . S
C1310 O1289 1.260 . S
C1311 Tb1247 2.833 . S
C1311 O1286 1.251 . S
C1311 O1291 1.256 . S
C1311 C1304 1.500 . S
H1312 C1295 0.930 . S
H1313 C1296 0.931 . S
H1314 C1297 0.930 . S
H1315 C1298 0.930 . S
H1316 C1305 0.930 . S
H1317 C1307 0.931 1_455 S
H1318 C1308 0.930 . S
H1319 C1309 0.930 . S
Tb1320 N1351 2.660 . S
Tb1320 N1358 2.600 . S
Tb1320 O1364 2.546 . S
Tb1320 O1365 2.610 . S
Tb1320 O1367 2.320 . S
Tb1320 O1368 2.552 . S
Tb1320 O1369 2.413 . S
Tb1320 O1371 2.362 . S
Tb1320 O1372 2.421 . S
Tb1320 C1384 2.833 . S
C1321 C1324 1.432 . S
C1321 C1325 1.414 . S
C1321 N1328 1.359 . S
C1322 C1324 1.417 . S
C1322 C1326 1.432 . S
C1322 C1334 1.410 . S
C1323 C1325 1.444 . S
C1323 C1326 1.317 . S
C1323 H1346 0.929 . S
C1324 C1321 1.432 . S
C1324 C1322 1.417 . S
C1324 N1332 1.360 . S
C1325 C1321 1.414 . S
C1325 C1323 1.444 . S
C1325 C1330 1.385 . S
C1326 C1322 1.432 . S
C1326 C1323 1.317 . S
C1326 H1338 0.930 . S
C1327 C1329 1.392 . S
C1327 C1330 1.370 . S
C1327 H1339 0.931 . S
N1328 C1321 1.359 . S
N1328 C1329 1.327 . S
N1328 Tb1331 2.600 . S
C1329 C1327 1.392 . S
C1329 N1328 1.327 . S
C1329 H1336 0.930 . S
C1330 C1325 1.385 . S
C1330 C1327 1.370 . S
C1330 H1349 0.930 . S
Tb1331 N1328 2.600 . S
Tb1331 N1332 2.660 . S
Tb1331 O1365 2.362 . S
Tb1331 O1366 2.421 . S
Tb1331 O1370 2.546 . S
Tb1331 O1371 2.610 . S
Tb1331 O1373 2.320 . S
Tb1331 O1374 2.552 . S
Tb1331 O1375 2.413 . S
Tb1331 C1395 2.833 . S
N1332 C1324 1.360 . S
N1332 Tb1331 2.660 . S
N1332 C1333 1.305 . S
C1333 N1332 1.305 . S
C1333 C1335 1.407 . S
C1333 H1340 0.930 . S
C1334 C1322 1.410 . S
C1334 C1335 1.345 . S
C1334 H1342 0.930 . S
C1335 C1333 1.407 . S
C1335 C1334 1.345 . S
C1335 H1337 0.930 . S
H1336 C1329 0.930 . S
H1337 C1335 0.930 . S
H1338 C1326 0.930 . S
H1339 C1327 0.931 . S
H1340 C1333 0.930 . S
H1341 C1355 0.930 . S
H1342 C1334 0.930 . S
H1343 C1361 0.930 . S
H1344 C1352 0.930 . S
H1345 C1359 0.931 . S
H1346 C1323 0.929 . S
H1347 C1353 0.930 . S
H1348 C1386 0.930 . S
H1349 C1330 0.930 . S
H1350 C1385 0.929 . S
N1351 Tb1320 2.660 . S
N1351 C1352 1.305 . S
N1351 C1356 1.360 . S
C1352 H1344 0.930 . S
C1352 N1351 1.305 . S
C1352 C1355 1.407 . S
C1353 H1347 0.930 . S
C1353 C1354 1.410 . S
C1353 C1355 1.345 . S
C1354 C1353 1.410 . S
C1354 C1356 1.417 . S
C1354 C1386 1.432 . S
C1355 H1341 0.930 . S
C1355 C1352 1.407 . S
C1355 C1353 1.345 . S
C1356 N1351 1.360 . S
C1356 C1354 1.417 . S
C1356 C1360 1.432 . S
H1357 C1362 0.930 . S
N1358 Tb1320 2.600 . S
N1358 C1360 1.359 . S
N1358 C1361 1.327 . S
C1359 H1345 0.931 . S
C1359 C1361 1.392 . S
C1359 C1362 1.370 . S
C1360 C1356 1.432 . S
C1360 N1358 1.359 . S
C1360 C1363 1.414 . S
C1361 H1343 0.930 . S
C1361 N1358 1.327 . S
C1361 C1359 1.392 . S
C1362 H1357 0.930 . S
C1362 C1359 1.370 . S
C1362 C1363 1.385 . S
C1363 C1360 1.414 . S
C1363 C1362 1.385 . S
C1363 C1385 1.444 . S
O1364 Tb1320 2.546 . S
O1364 C1384 1.251 . S
O1365 Tb1320 2.610 . S
O1365 Tb1331 2.362 . S
O1365 C1376 1.283 . S
O1366 Tb1331 2.421 . S
O1366 C1383 1.262 . S
O1367 Tb1320 2.320 . S
O1367 C1383 1.260 . S
O1368 Tb1320 2.552 . S
O1368 C1376 1.243 . S
O1369 Tb1320 2.413 . S
O1369 C1384 1.256 . S
O1370 Tb1331 2.546 . S
O1370 C1395 1.251 . S
O1371 Tb1320 2.362 . S
O1371 Tb1331 2.610 . S
O1371 C1387 1.283 . S
O1372 Tb1320 2.421 . S
O1372 C1394 1.262 . S
O1373 Tb1331 2.320 . S
O1373 C1394 1.260 . S
O1374 Tb1331 2.552 . S
O1374 C1387 1.243 . S
O1375 Tb1331 2.413 . S
O1375 C1395 1.256 . S
C1376 O1365 1.283 . S
C1376 O1368 1.243 . S
C1377 C1379 1.382 . S
C1377 C1381 1.393 . S
C1377 C1384 1.500 . S
C1378 C1379 1.400 . S
C1378 C1380 1.384 . S
C1379 C1377 1.382 . S
C1379 C1378 1.400 . S
C1379 H1396 0.930 . S
C1380 C1378 1.384 . S
C1380 C1382 1.392 . S
C1380 H1397 0.931 . S
C1381 C1377 1.393 . S
C1381 C1382 1.401 . S
C1381 H1398 0.930 . S
C1382 C1380 1.392 . S
C1382 C1381 1.401 . S
C1382 H1399 0.930 . S
C1383 O1366 1.262 . S
C1383 O1367 1.260 . S
C1384 Tb1320 2.833 . S
C1384 O1364 1.251 . S
C1384 O1369 1.256 . S
C1384 C1377 1.500 . S
C1385 H1350 0.929 . S
C1385 C1363 1.444 . S
C1385 C1386 1.317 . S
C1386 H1348 0.930 . S
C1386 C1354 1.432 . S
C1386 C1385 1.317 . S
C1387 O1371 1.283 . S
C1387 O1374 1.243 . S
C1388 C1389 1.382 . S
C1388 C1392 1.393 . S
C1388 C1395 1.500 . S
C1389 C1388 1.382 . S
C1389 C1390 1.400 . S
C1389 H1400 0.930 . S
C1390 C1389 1.400 . S
C1390 C1391 1.384 . S
C1391 C1390 1.384 . S
C1391 C1393 1.392 . S
C1391 H1401 0.931 . S
C1392 C1388 1.393 . S
C1392 C1393 1.401 . S
C1392 H1402 0.930 . S
C1393 C1391 1.392 . S
C1393 C1392 1.401 . S
C1393 H1403 0.930 . S
C1394 O1372 1.262 . S
C1394 O1373 1.260 . S
C1395 Tb1331 2.833 . S
C1395 O1370 1.251 . S
C1395 O1375 1.256 . S
C1395 C1388 1.500 . S
H1396 C1379 0.930 . S
H1397 C1380 0.931 . S
H1398 C1381 0.930 . S
H1399 C1382 0.930 . S
H1400 C1389 0.930 . S
H1401 C1391 0.931 . S
H1402 C1392 0.930 . S
H1403 C1393 0.930 . S
Tb1404 N1435 2.660 . S
Tb1404 N1442 2.600 . S
Tb1404 O1448 2.546 . S
Tb1404 O1449 2.610 . S
Tb1404 O1451 2.320 . S
Tb1404 O1452 2.552 . S
Tb1404 O1453 2.413 . S
Tb1404 O1455 2.362 . S
Tb1404 O1456 2.421 . S
Tb1404 C1468 2.833 . S
C1405 C1408 1.432 . S
C1405 C1409 1.414 . S
C1405 N1412 1.359 . S
C1406 C1408 1.417 . S
C1406 C1410 1.432 . S
C1406 C1418 1.410 . S
C1407 C1409 1.444 . S
C1407 C1410 1.317 . S
C1407 H1430 0.929 . S
C1408 C1405 1.432 . S
C1408 C1406 1.417 . S
C1408 N1416 1.360 . S
C1409 C1405 1.414 . S
C1409 C1407 1.444 . S
C1409 C1414 1.385 . S
C1410 C1406 1.432 . S
C1410 C1407 1.317 . S
C1410 H1422 0.930 . S
C1411 C1413 1.392 . S
C1411 C1414 1.370 . S
C1411 H1423 0.931 . S
N1412 C1405 1.359 . S
N1412 C1413 1.327 . S
N1412 Tb1415 2.600 . S
C1413 C1411 1.392 . S
C1413 N1412 1.327 . S
C1413 H1420 0.930 . S
C1414 C1409 1.385 . S
C1414 C1411 1.370 . S
C1414 H1433 0.930 . S
Tb1415 N1412 2.600 . S
Tb1415 N1416 2.660 . S
Tb1415 O1449 2.362 . S
Tb1415 O1450 2.421 . S
Tb1415 O1454 2.546 . S
Tb1415 O1455 2.610 . S
Tb1415 O1457 2.320 . S
Tb1415 O1458 2.552 . S
Tb1415 O1459 2.413 . S
Tb1415 C1479 2.833 . S
N1416 C1408 1.360 . S
N1416 Tb1415 2.660 . S
N1416 C1417 1.305 . S
C1417 N1416 1.305 . S
C1417 C1419 1.407 . S
C1417 H1424 0.930 . S
C1418 C1406 1.410 . S
C1418 C1419 1.345 . S
C1418 H1426 0.930 . S
C1419 C1417 1.407 . S
C1419 C1418 1.345 . S
C1419 H1421 0.930 . S
H1420 C1413 0.930 . S
H1421 C1419 0.930 . S
H1422 C1410 0.930 . S
H1423 C1411 0.931 . S
H1424 C1417 0.930 . S
H1425 C1439 0.930 . S
H1426 C1418 0.930 . S
H1427 C1445 0.930 . S
H1428 C1436 0.930 . S
H1429 C1443 0.931 . S
H1430 C1407 0.929 . S
H1431 C1437 0.930 . S
H1432 C1470 0.930 . S
H1433 C1414 0.930 . S
H1434 C1469 0.929 . S
N1435 Tb1404 2.660 . S
N1435 C1436 1.305 . S
N1435 C1440 1.360 . S
C1436 H1428 0.930 . S
C1436 N1435 1.305 . S
C1436 C1439 1.407 . S
C1437 H1431 0.930 . S
C1437 C1438 1.410 . S
C1437 C1439 1.345 . S
C1438 C1437 1.410 . S
C1438 C1440 1.417 . S
C1438 C1470 1.432 . S
C1439 H1425 0.930 . S
C1439 C1436 1.407 . S
C1439 C1437 1.345 . S
C1440 N1435 1.360 . S
C1440 C1438 1.417 . S
C1440 C1444 1.432 . S
H1441 C1446 0.930 . S
N1442 Tb1404 2.600 . S
N1442 C1444 1.359 . S
N1442 C1445 1.327 . S
C1443 H1429 0.931 . S
C1443 C1445 1.392 . S
C1443 C1446 1.370 . S
C1444 C1440 1.432 . S
C1444 N1442 1.359 . S
C1444 C1447 1.414 . S
C1445 H1427 0.930 . S
C1445 N1442 1.327 . S
C1445 C1443 1.392 . S
C1446 H1441 0.930 . S
C1446 C1443 1.370 . S
C1446 C1447 1.385 . S
C1447 C1444 1.414 . S
C1447 C1446 1.385 . S
C1447 C1469 1.444 . S
O1448 Tb1404 2.546 . S
O1448 C1468 1.251 . S
O1449 Tb1404 2.610 . S
O1449 Tb1415 2.362 . S
O1449 C1460 1.283 . S
O1450 Tb1415 2.421 . S
O1450 C1467 1.262 . S
O1451 Tb1404 2.320 . S
O1451 C1467 1.260 . S
O1452 Tb1404 2.552 . S
O1452 C1460 1.243 . S
O1453 Tb1404 2.413 . S
O1453 C1468 1.256 . S
O1454 Tb1415 2.546 . S
O1454 C1479 1.251 . S
O1455 Tb1404 2.362 . S
O1455 Tb1415 2.610 . S
O1455 C1471 1.283 . S
O1456 Tb1404 2.421 . S
O1456 C1478 1.262 . S
O1457 Tb1415 2.320 . S
O1457 C1478 1.260 . S
O1458 Tb1415 2.552 . S
O1458 C1471 1.243 . S
O1459 Tb1415 2.413 . S
O1459 C1479 1.256 . S
C1460 O1449 1.283 . S
C1460 O1452 1.243 . S
C1461 C1463 1.382 . S
C1461 C1465 1.393 . S
C1461 C1468 1.500 . S
C1462 C1463 1.400 . S
C1462 C1464 1.384 . S
C1463 C1461 1.382 . S
C1463 C1462 1.400 . S
C1463 H1480 0.930 . S
C1464 C1462 1.384 . S
C1464 C1466 1.392 . S
C1464 H1481 0.931 . S
C1465 C1461 1.393 . S
C1465 C1466 1.401 . S
C1465 H1482 0.930 . S
C1466 C1464 1.392 . S
C1466 C1465 1.401 . S
C1466 H1483 0.930 . S
C1467 O1450 1.262 . S
C1467 O1451 1.260 . S
C1468 Tb1404 2.833 . S
C1468 O1448 1.251 . S
C1468 O1453 1.256 . S
C1468 C1461 1.500 . S
C1469 H1434 0.929 . S
C1469 C1447 1.444 . S
C1469 C1470 1.317 . S
C1470 H1432 0.930 . S
C1470 C1438 1.432 . S
C1470 C1469 1.317 . S
C1471 O1455 1.283 . S
C1471 O1458 1.243 . S
C1472 C1473 1.382 . S
C1472 C1476 1.393 . S
C1472 C1479 1.500 . S
C1473 C1472 1.382 . S
C1473 C1474 1.400 . S
C1473 H1484 0.930 . S
C1474 C1473 1.400 . S
C1474 C1475 1.384 . S
C1475 C1474 1.384 . S
C1475 C1477 1.392 . S
C1475 H1485 0.931 . S
C1476 C1472 1.393 . S
C1476 C1477 1.401 . S
C1476 H1486 0.930 . S
C1477 C1475 1.392 . S
C1477 C1476 1.401 . S
C1477 H1487 0.930 . S
C1478 O1456 1.262 . S
C1478 O1457 1.260 . S
C1479 Tb1415 2.833 . S
C1479 O1454 1.251 . S
C1479 O1459 1.256 . S
C1479 C1472 1.500 . S
H1480 C1463 0.930 . S
H1481 C1464 0.931 . S
H1482 C1465 0.930 . S
H1483 C1466 0.930 . S
H1484 C1473 0.930 . S
H1485 C1475 0.931 . S
H1486 C1476 0.930 . S
H1487 C1477 0.930 . S
Tb1488 N1519 2.660 . S
Tb1488 N1526 2.600 . S
Tb1488 O1532 2.546 . S
Tb1488 O1533 2.610 . S
Tb1488 O1535 2.320 . S
Tb1488 O1536 2.552 . S
Tb1488 O1537 2.413 . S
Tb1488 O1539 2.362 . S
Tb1488 O1540 2.421 . S
Tb1488 C1552 2.833 . S
C1489 C1492 1.432 . S
C1489 C1493 1.414 . S
C1489 N1496 1.359 . S
C1490 C1492 1.417 . S
C1490 C1494 1.432 . S
C1490 C1502 1.410 . S
C1491 C1493 1.444 . S
C1491 C1494 1.317 . S
C1491 H1514 0.929 . S
C1492 C1489 1.432 . S
C1492 C1490 1.417 . S
C1492 N1500 1.360 . S
C1493 C1489 1.414 . S
C1493 C1491 1.444 . S
C1493 C1498 1.385 . S
C1494 C1490 1.432 . S
C1494 C1491 1.317 . S
C1494 H1506 0.930 . S
C1495 C1497 1.392 . S
C1495 C1498 1.370 . S
C1495 H1507 0.931 . S
N1496 C1489 1.359 . S
N1496 C1497 1.327 . S
N1496 Tb1499 2.600 . S
C1497 C1495 1.392 . S
C1497 N1496 1.327 . S
C1497 H1504 0.930 . S
C1498 C1493 1.385 . S
C1498 C1495 1.370 . S
C1498 H1517 0.930 . S
Tb1499 N1496 2.600 . S
Tb1499 N1500 2.660 . S
Tb1499 O1533 2.362 . S
Tb1499 O1534 2.421 . S
Tb1499 O1538 2.546 . S
Tb1499 O1539 2.610 . S
Tb1499 O1541 2.320 . S
Tb1499 O1542 2.552 . S
Tb1499 O1543 2.413 . S
Tb1499 C1563 2.833 . S
N1500 C1492 1.360 . S
N1500 Tb1499 2.660 . S
N1500 C1501 1.305 . S
C1501 N1500 1.305 . S
C1501 C1503 1.407 . S
C1501 H1508 0.930 . S
C1502 C1490 1.410 . S
C1502 C1503 1.345 . S
C1502 H1510 0.930 . S
C1503 C1501 1.407 . S
C1503 C1502 1.345 . S
C1503 H1505 0.930 . S
H1504 C1497 0.930 . S
H1505 C1503 0.930 . S
H1506 C1494 0.930 . S
H1507 C1495 0.931 . S
H1508 C1501 0.930 . S
H1509 C1523 0.930 . S
H1510 C1502 0.930 . S
H1511 C1529 0.930 . S
H1512 C1520 0.930 . S
H1513 C1527 0.931 . S
H1514 C1491 0.929 . S
H1515 C1521 0.930 . S
H1516 C1554 0.930 . S
H1517 C1498 0.930 . S
H1518 C1553 0.929 . S
N1519 Tb1488 2.660 . S
N1519 C1520 1.305 . S
N1519 C1524 1.360 . S
C1520 H1512 0.930 . S
C1520 N1519 1.305 . S
C1520 C1523 1.407 . S
C1521 H1515 0.930 . S
C1521 C1522 1.410 . S
C1521 C1523 1.345 . S
C1522 C1521 1.410 . S
C1522 C1524 1.417 . S
C1522 C1554 1.432 . S
C1523 H1509 0.930 . S
C1523 C1520 1.407 . S
C1523 C1521 1.345 . S
C1524 N1519 1.360 . S
C1524 C1522 1.417 . S
C1524 C1528 1.432 . S
H1525 C1530 0.930 . S
N1526 Tb1488 2.600 . S
N1526 C1528 1.359 . S
N1526 C1529 1.327 . S
C1527 H1513 0.931 . S
C1527 C1529 1.392 . S
C1527 C1530 1.370 . S
C1528 C1524 1.432 . S
C1528 N1526 1.359 . S
C1528 C1531 1.414 . S
C1529 H1511 0.930 . S
C1529 N1526 1.327 . S
C1529 C1527 1.392 . S
C1530 H1525 0.930 . S
C1530 C1527 1.370 . S
C1530 C1531 1.385 . S
C1531 C1528 1.414 . S
C1531 C1530 1.385 . S
C1531 C1553 1.444 . S
O1532 Tb1488 2.546 . S
O1532 C1552 1.251 . S
O1533 Tb1488 2.610 . S
O1533 Tb1499 2.362 . S
O1533 C1544 1.283 . S
O1534 Tb1499 2.421 . S
O1534 C1551 1.262 . S
O1535 Tb1488 2.320 . S
O1535 C1551 1.260 . S
O1536 Tb1488 2.552 . S
O1536 C1544 1.243 . S
O1537 Tb1488 2.413 . S
O1537 C1552 1.256 . S
O1538 Tb1499 2.546 . S
O1538 C1563 1.251 . S
O1539 Tb1488 2.362 . S
O1539 Tb1499 2.610 . S
O1539 C1555 1.283 . S
O1540 Tb1488 2.421 . S
O1540 C1562 1.262 . S
O1541 Tb1499 2.320 . S
O1541 C1562 1.260 . S
O1542 Tb1499 2.552 . S
O1542 C1555 1.243 . S
O1543 Tb1499 2.413 . S
O1543 C1563 1.256 . S
C1544 O1533 1.283 . S
C1544 O1536 1.243 . S
C1545 C1547 1.382 . S
C1545 C1549 1.393 . S
C1545 C1552 1.500 . S
C1546 C1547 1.400 . S
C1546 C1548 1.384 . S
C1547 C1545 1.382 . S
C1547 C1546 1.400 . S
C1547 H1564 0.930 . S
C1548 C1546 1.384 . S
C1548 C1550 1.392 . S
C1548 H1565 0.931 . S
C1549 C1545 1.393 . S
C1549 C1550 1.401 . S
C1549 H1566 0.930 . S
C1550 C1548 1.392 . S
C1550 C1549 1.401 . S
C1550 H1567 0.930 . S
C1551 O1534 1.262 . S
C1551 O1535 1.260 . S
C1552 Tb1488 2.833 . S
C1552 O1532 1.251 . S
C1552 O1537 1.256 . S
C1552 C1545 1.500 . S
C1553 H1518 0.929 . S
C1553 C1531 1.444 . S
C1553 C1554 1.317 . S
C1554 H1516 0.930 . S
C1554 C1522 1.432 . S
C1554 C1553 1.317 . S
C1555 O1539 1.283 . S
C1555 O1542 1.243 . S
C1556 C1557 1.382 . S
C1556 C1560 1.393 . S
C1556 C1563 1.500 . S
C1557 C1556 1.382 . S
C1557 C1558 1.400 . S
C1557 H1568 0.930 . S
C1558 C1557 1.400 . S
C1558 C1559 1.384 . S
C1559 C1558 1.384 . S
C1559 C1561 1.392 . S
C1559 H1569 0.931 . S
C1560 C1556 1.393 . S
C1560 C1561 1.401 . S
C1560 H1570 0.930 . S
C1561 C1559 1.392 . S
C1561 C1560 1.401 . S
C1561 H1571 0.930 . S
C1562 O1540 1.262 . S
C1562 O1541 1.260 . S
C1563 Tb1499 2.833 . S
C1563 O1538 1.251 . S
C1563 O1543 1.256 . S
C1563 C1556 1.500 . S
H1564 C1547 0.930 . S
H1565 C1548 0.931 . S
H1566 C1549 0.930 . S
H1567 C1550 0.930 . S
H1568 C1557 0.930 . S
H1569 C1559 0.931 . S
H1570 C1560 0.930 . S
H1571 C1561 0.930 . S
Tb1572 N1603 2.660 . S
Tb1572 N1610 2.600 1_554 S
Tb1572 O1616 2.546 1_554 S
Tb1572 O1617 2.610 . S
Tb1572 O1619 2.320 . S
Tb1572 O1620 2.552 . S
Tb1572 O1621 2.413 . S
Tb1572 O1623 2.362 . S
Tb1572 O1624 2.421 1_554 S
Tb1572 C1636 2.833 1_554 S
C1573 C1576 1.432 . S
C1573 C1577 1.414 . S
C1573 N1580 1.359 1_655 S
C1574 C1576 1.417 . S
C1574 C1578 1.432 . S
C1574 C1586 1.410 . S
C1575 C1577 1.444 . S
C1575 C1578 1.317 . S
C1575 H1598 0.929 . S
C1576 C1573 1.432 . S
C1576 C1574 1.417 . S
C1576 N1584 1.360 . S
C1577 C1573 1.414 . S
C1577 C1575 1.444 . S
C1577 C1582 1.385 . S
C1578 C1574 1.432 . S
C1578 C1575 1.317 . S
C1578 H1590 0.930 . S
C1579 C1581 1.388 1_655 S
C1579 C1582 1.376 . S
C1579 H1591 0.930 1_655 S
N1580 C1573 1.359 1_455 S
N1580 C1581 1.327 . S
N1580 Tb1583 2.600 . S
C1581 C1579 1.388 1_455 S
C1581 N1580 1.327 . S
C1581 H1588 0.930 . S
C1582 C1577 1.385 . S
C1582 C1579 1.376 . S
C1582 H1601 0.930 . S
Tb1583 N1580 2.600 . S
Tb1583 N1584 2.660 1_455 S
Tb1583 O1617 2.362 . S
Tb1583 O1618 2.421 . S
Tb1583 O1622 2.546 1_455 S
Tb1583 O1623 2.610 . S
Tb1583 O1625 2.349 . S
Tb1583 O1626 2.552 . S
Tb1583 O1627 2.413 1_455 S
Tb1583 C1647 2.833 1_455 S
N1584 C1576 1.360 . S
N1584 Tb1583 2.660 1_655 S
N1584 C1585 1.305 . S
C1585 N1584 1.305 . S
C1585 C1587 1.407 1_554 S
C1585 H1592 0.930 1_554 S
C1586 C1574 1.410 . S
C1586 C1587 1.345 1_554 S
C1586 H1594 0.927 1_554 S
C1587 C1585 1.407 1_556 S
C1587 C1586 1.345 1_556 S
C1587 H1589 0.930 . S
H1588 C1581 0.930 . S
H1589 C1587 0.930 . S
H1590 C1578 0.930 . S
H1591 C1579 0.930 1_455 S
H1592 C1585 0.930 1_556 S
H1593 C1607 0.930 . S
H1594 C1586 0.927 1_556 S
H1595 C1613 0.930 . S
H1596 C1604 0.930 . S
H1597 C1611 0.931 . S
H1598 C1575 0.929 . S
H1599 C1605 0.930 . S
H1600 C1638 0.930 . S
H1601 C1582 0.930 . S
H1602 C1637 0.929 . S
N1603 Tb1572 2.660 . S
N1603 C1604 1.305 . S
N1603 C1608 1.360 . S
C1604 H1596 0.930 . S
C1604 N1603 1.305 . S
C1604 C1607 1.407 . S
C1605 H1599 0.930 . S
C1605 C1606 1.410 . S
C1605 C1607 1.345 . S
C1606 C1605 1.410 . S
C1606 C1608 1.417 . S
C1606 C1638 1.432 . S
C1607 H1593 0.930 . S
C1607 C1604 1.407 . S
C1607 C1605 1.345 . S
C1608 N1603 1.360 . S
C1608 C1606 1.417 . S
C1608 C1612 1.432 1_554 S
H1609 C1614 0.930 . S
N1610 Tb1572 2.600 1_556 S
N1610 C1612 1.359 . S
N1610 C1613 1.327 . S
C1611 H1597 0.931 . S
C1611 C1613 1.392 . S
C1611 C1614 1.370 . S
C1612 C1608 1.432 1_556 S
C1612 N1610 1.359 . S
C1612 C1615 1.414 . S
C1613 H1595 0.930 . S
C1613 N1610 1.327 . S
C1613 C1611 1.392 . S
C1614 H1609 0.930 . S
C1614 C1611 1.370 . S
C1614 C1615 1.385 . S
C1615 C1612 1.414 . S
C1615 C1614 1.385 . S
C1615 C1637 1.444 . S
O1616 Tb1572 2.546 1_556 S
O1616 C1636 1.251 . S
O1617 Tb1572 2.610 . S
O1617 Tb1583 2.362 . S
O1617 C1628 1.283 . S
O1618 Tb1583 2.421 . S
O1618 C1635 1.262 . S
O1619 Tb1572 2.320 . S
O1619 C1635 1.260 . S
O1620 Tb1572 2.552 . S
O1620 C1628 1.243 . S
O1621 Tb1572 2.413 . S
O1621 C1636 1.256 1_554 S
O1622 Tb1583 2.546 1_655 S
O1622 C1647 1.251 . S
O1623 Tb1572 2.362 . S
O1623 Tb1583 2.610 . S
O1623 C1639 1.283 . S
O1624 Tb1572 2.421 1_556 S
O1624 C1646 1.262 . S
O1625 Tb1583 2.349 . S
O1625 C1646 1.234 1_554 S
O1626 Tb1583 2.552 . S
O1626 C1639 1.243 . S
O1627 Tb1583 2.413 1_655 S
O1627 C1647 1.256 . S
C1628 O1617 1.283 . S
C1628 O1620 1.243 . S
C1629 C1631 1.382 1_556 S
C1629 C1633 1.393 . S
C1629 C1636 1.500 . S
C1630 C1631 1.400 . S
C1630 C1632 1.384 1_554 S
C1631 C1629 1.382 1_554 S
C1631 C1630 1.400 . S
C1631 H1648 0.930 . S
C1632 C1630 1.384 1_556 S
C1632 C1634 1.392 . S
C1632 H1649 0.931 . S
C1633 C1629 1.393 . S
C1633 C1634 1.401 . S
C1633 H1650 0.930 . S
C1634 C1632 1.392 . S
C1634 C1633 1.401 . S
C1634 H1651 0.930 . S
C1635 O1618 1.262 . S
C1635 O1619 1.260 . S
C1636 Tb1572 2.833 1_556 S
C1636 O1616 1.251 . S
C1636 O1621 1.256 1_556 S
C1636 C1629 1.500 . S
C1637 H1602 0.929 . S
C1637 C1615 1.444 . S
C1637 C1638 1.317 1_556 S
C1638 H1600 0.930 . S
C1638 C1606 1.432 . S
C1638 C1637 1.317 1_554 S
C1639 O1623 1.283 . S
C1639 O1626 1.243 . S
C1640 C1641 1.382 . S
C1640 C1644 1.393 . S
C1640 C1647 1.500 . S
C1641 C1640 1.382 . S
C1641 C1642 1.400 . S
C1641 H1652 0.930 . S
C1642 C1641 1.400 . S
C1642 C1643 1.384 . S
C1643 C1642 1.384 . S
C1643 C1645 1.392 . S
C1643 H1653 0.931 . S
C1644 C1640 1.393 . S
C1644 C1645 1.401 . S
C1644 H1654 0.930 . S
C1645 C1643 1.392 . S
C1645 C1644 1.401 . S
C1645 H1655 0.930 . S
C1646 O1624 1.262 . S
C1646 O1625 1.234 1_556 S
C1647 Tb1583 2.833 1_655 S
C1647 O1622 1.251 . S
C1647 O1627 1.256 . S
C1647 C1640 1.500 . S
H1648 C1631 0.930 . S
H1649 C1632 0.931 . S
H1650 C1633 0.930 . S
H1651 C1634 0.930 . S
H1652 C1641 0.930 . S
H1653 C1643 0.931 . S
H1654 C1644 0.930 . S
H1655 C1645 0.930 . S
C1656 C1657 1.387 1_554 S
C1656 H1660 0.950 . S
C1656 C1665 1.390 . S
C1657 C1656 1.387 1_556 S
C1657 C1659 1.387 . S
H1658 C1665 0.950 . S
C1659 C1657 1.387 . S
C1659 C1661 1.390 . S
C1659 H1663 0.950 . S
H1660 C1656 0.950 . S
C1661 C1659 1.390 . S
C1661 C1662 1.387 1_556 S
C1661 H1664 0.950 . S
C1662 C1661 1.387 1_554 S
C1662 C1665 1.387 . S
H1663 C1659 0.950 . S
H1664 C1661 0.950 . S
C1665 C1656 1.390 . S
C1665 H1658 0.950 . S
C1665 C1662 1.387 . S
C1666 C1667 1.387 . S
C1666 H1670 0.950 . S
C1666 C1675 1.390 . S
C1667 C1666 1.387 . S
C1667 C1669 1.387 . S
H1668 C1675 0.950 . S
C1669 C1667 1.387 . S
C1669 C1671 1.390 . S
C1669 H1673 0.950 . S
H1670 C1666 0.950 . S
C1671 C1669 1.390 . S
C1671 C1672 1.387 . S
C1671 H1674 0.950 . S
C1672 C1671 1.387 . S
C1672 C1675 1.387 . S
H1673 C1669 0.950 . S
H1674 C1671 0.950 . S
C1675 C1666 1.390 . S
C1675 H1668 0.950 . S
C1675 C1672 1.387 . S
C1676 C1677 1.387 . S
C1676 H1680 0.950 . S
C1676 C1685 1.390 . S
C1677 C1676 1.387 . S
C1677 C1679 1.387 . S
H1678 C1685 0.950 . S
C1679 C1677 1.387 . S
C1679 C1681 1.390 . S
C1679 H1683 0.950 . S
H1680 C1676 0.950 . S
C1681 C1679 1.390 . S
C1681 C1682 1.387 . S
C1681 H1684 0.950 . S
C1682 C1681 1.387 . S
C1682 C1685 1.387 . S
H1683 C1679 0.950 . S
H1684 C1681 0.950 . S
C1685 C1676 1.390 . S
C1685 H1678 0.950 . S
C1685 C1682 1.387 . S
C1686 C1687 1.387 . S
C1686 H1690 0.950 . S
C1686 C1695 1.390 . S
C1687 C1686 1.387 . S
C1687 C1689 1.387 . S
H1688 C1695 0.950 . S
C1689 C1687 1.387 . S
C1689 C1691 1.390 . S
C1689 H1693 0.950 . S
H1690 C1686 0.950 . S
C1691 C1689 1.390 . S
C1691 C1692 1.387 . S
C1691 H1694 0.950 . S
C1692 C1691 1.387 . S
C1692 C1695 1.387 . S
H1693 C1689 0.950 . S
H1694 C1691 0.950 . S
C1695 C1686 1.390 . S
C1695 H1688 0.950 . S
C1695 C1692 1.387 . S
C1696 C1697 1.387 . S
C1696 H1700 0.950 . S
C1696 C1705 1.390 . S
C1697 C1696 1.387 . S
C1697 C1699 1.387 . S
H1698 C1705 0.950 . S
C1699 C1697 1.387 . S
C1699 C1701 1.390 . S
C1699 H1703 0.950 . S
H1700 C1696 0.950 . S
C1701 C1699 1.390 . S
C1701 C1702 1.387 . S
C1701 H1704 0.950 . S
C1702 C1701 1.387 . S
C1702 C1705 1.387 . S
H1703 C1699 0.950 . S
H1704 C1701 0.950 . S
C1705 C1696 1.390 . S
C1705 H1698 0.950 . S
C1705 C1702 1.387 . S
C1706 C1707 1.387 . S
C1706 H1710 0.950 . S
C1706 C1715 1.390 . S
C1707 C1706 1.387 . S
C1707 C1709 1.387 . S
H1708 C1715 0.950 . S
C1709 C1707 1.387 . S
C1709 C1711 1.390 . S
C1709 H1713 0.950 . S
H1710 C1706 0.950 . S
C1711 C1709 1.390 . S
C1711 C1712 1.387 . S
C1711 H1714 0.950 . S
C1712 C1711 1.387 . S
C1712 C1715 1.387 . S
H1713 C1709 0.950 . S
H1714 C1711 0.950 . S
C1715 C1706 1.390 . S
C1715 H1708 0.950 . S
C1715 C1712 1.387 . S
C1716 C1717 1.387 . S
C1716 H1720 0.950 . S
C1716 C1725 1.390 . S
C1717 C1716 1.387 . S
C1717 C1719 1.387 . S
H1718 C1725 0.950 . S
C1719 C1717 1.387 . S
C1719 C1721 1.390 . S
C1719 H1723 0.950 . S
H1720 C1716 0.950 . S
C1721 C1719 1.390 . S
C1721 C1722 1.387 . S
C1721 H1724 0.950 . S
C1722 C1721 1.387 . S
C1722 C1725 1.387 . S
H1723 C1719 0.950 . S
H1724 C1721 0.950 . S
C1725 C1716 1.390 . S
C1725 H1718 0.950 . S
C1725 C1722 1.387 . S
C1726 C1727 1.387 . S
C1726 H1730 0.950 . S
C1726 C1735 1.390 . S
C1727 C1726 1.387 . S
C1727 C1729 1.387 . S
H1728 C1735 0.950 . S
C1729 C1727 1.387 . S
C1729 C1731 1.390 . S
C1729 H1733 0.950 . S
H1730 C1726 0.950 . S
C1731 C1729 1.390 . S
C1731 C1732 1.387 . S
C1731 H1734 0.950 . S
C1732 C1731 1.387 . S
C1732 C1735 1.387 . S
H1733 C1729 0.950 . S
H1734 C1731 0.950 . S
C1735 C1726 1.390 . S
C1735 H1728 0.950 . S
C1735 C1732 1.387 . S
C1736 C1737 1.387 . S
C1736 H1740 0.950 . S
C1736 C1745 1.390 . S
C1737 C1736 1.387 . S
C1737 C1739 1.387 . S
H1738 C1745 0.950 . S
C1739 C1737 1.387 . S
C1739 C1741 1.390 . S
C1739 H1743 0.950 1_455 S
H1740 C1736 0.950 . S
C1741 C1739 1.390 . S
C1741 C1742 1.387 . S
C1741 H1744 0.950 . S
C1742 C1741 1.387 . S
C1742 C1745 1.387 . S
H1743 C1739 0.950 1_655 S
H1744 C1741 0.950 . S
C1745 C1736 1.390 . S
C1745 H1738 0.950 . S
C1745 C1742 1.387 . S
C1746 C1747 1.387 . S
C1746 H1750 0.950 . S
C1746 C1755 1.390 . S
C1747 C1746 1.387 . S
C1747 C1749 1.387 . S
H1748 C1755 0.950 . S
C1749 C1747 1.387 . S
C1749 C1751 1.390 . S
C1749 H1753 0.950 . S
H1750 C1746 0.950 . S
C1751 C1749 1.390 . S
C1751 C1752 1.387 . S
C1751 H1754 0.950 . S
C1752 C1751 1.387 . S
C1752 C1755 1.387 . S
H1753 C1749 0.950 . S
H1754 C1751 0.950 . S
C1755 C1746 1.390 . S
C1755 H1748 0.950 . S
C1755 C1752 1.387 . S
C1756 C1757 1.387 . S
C1756 H1760 0.950 1_545 S
C1756 C1765 1.392 1_545 S
C1757 C1756 1.387 . S
C1757 C1759 1.387 . S
H1758 C1765 0.965 . S
C1759 C1757 1.387 . S
C1759 C1761 1.390 . S
C1759 H1763 0.950 . S
H1760 C1756 0.950 1_565 S
C1761 C1759 1.390 . S
C1761 C1762 1.387 . S
C1761 H1764 0.950 . S
C1762 C1761 1.387 . S
C1762 C1765 1.370 1_545 S
H1763 C1759 0.950 . S
H1764 C1761 0.950 . S
C1765 C1756 1.392 1_565 S
C1765 H1758 0.965 . S
C1765 C1762 1.370 1_565 S
C1766 C1767 1.387 . S
C1766 H1770 0.950 . S
C1766 C1775 1.390 . S
C1767 C1766 1.387 . S
C1767 C1769 1.387 . S
H1768 C1775 0.950 . S
C1769 C1767 1.387 . S
C1769 C1771 1.390 . S
C1769 H1773 0.950 . S
H1770 C1766 0.950 . S
C1771 C1769 1.390 . S
C1771 C1772 1.387 . S
C1771 H1774 0.950 . S
C1772 C1771 1.387 . S
C1772 C1775 1.387 . S
H1773 C1769 0.950 . S
H1774 C1771 0.950 . S
C1775 C1766 1.390 . S
C1775 H1768 0.950 . S
C1775 C1772 1.387 . S
C1776 C1777 1.387 . S
C1776 H1780 0.950 . S
C1776 C1785 1.390 . S
C1777 C1776 1.387 . S
C1777 C1779 1.387 . S
H1778 C1785 0.950 . S
C1779 C1777 1.387 . S
C1779 C1781 1.390 . S
C1779 H1783 0.950 . S
H1780 C1776 0.950 . S
C1781 C1779 1.390 . S
C1781 C1782 1.387 . S
C1781 H1784 0.950 . S
C1782 C1781 1.387 . S
C1782 C1785 1.387 . S
H1783 C1779 0.950 . S
H1784 C1781 0.950 . S
C1785 C1776 1.390 . S
C1785 H1778 0.950 . S
C1785 C1782 1.387 . S
C1786 C1787 1.387 . S
C1786 H1790 0.950 . S
C1786 C1795 1.390 . S
C1787 C1786 1.387 . S
C1787 C1789 1.387 . S
H1788 C1795 0.950 . S
C1789 C1787 1.387 . S
C1789 C1791 1.390 . S
C1789 H1793 0.950 . S
H1790 C1786 0.950 . S
C1791 C1789 1.390 . S
C1791 C1792 1.387 . S
C1791 H1794 0.950 . S
C1792 C1791 1.387 . S
C1792 C1795 1.387 . S
H1793 C1789 0.950 . S
H1794 C1791 0.950 . S
C1795 C1786 1.390 . S
C1795 H1788 0.950 . S
C1795 C1792 1.387 . S
C1796 C1797 1.387 . S
C1796 H1800 0.950 . S
C1796 C1805 1.390 . S
C1797 C1796 1.387 . S
C1797 C1799 1.387 . S
H1798 C1805 0.950 . S
C1799 C1797 1.387 . S
C1799 C1801 1.390 . S
C1799 H1803 0.950 . S
H1800 C1796 0.950 . S
C1801 C1799 1.390 . S
C1801 C1802 1.387 . S
C1801 H1804 0.950 . S
C1802 C1801 1.387 . S
C1802 C1805 1.387 . S
H1803 C1799 0.950 . S
H1804 C1801 0.950 . S
C1805 C1796 1.390 . S
C1805 H1798 0.950 . S
C1805 C1802 1.387 . S
C1806 C1807 1.387 . S
C1806 H1810 0.950 . S
C1806 C1815 1.390 . S
C1807 C1806 1.387 . S
C1807 C1809 1.387 . S
H1808 C1815 0.950 . S
C1809 C1807 1.387 . S
C1809 C1811 1.390 . S
C1809 H1813 0.950 . S
H1810 C1806 0.950 . S
C1811 C1809 1.390 . S
C1811 C1812 1.387 . S
C1811 H1814 0.950 . S
C1812 C1811 1.387 . S
C1812 C1815 1.387 . S
H1813 C1809 0.950 . S
H1814 C1811 0.950 . S
C1815 C1806 1.390 . S
C1815 H1808 0.950 . S
C1815 C1812 1.387 . S
C1816 C1817 1.387 . S
C1816 H1820 0.950 1_554 S
C1816 C1825 1.390 . S
C1817 C1816 1.387 . S
C1817 C1819 1.387 1_565 S
H1818 C1825 0.950 . S
C1819 C1817 1.387 1_545 S
C1819 C1821 1.390 . S
C1819 H1823 0.950 . S
H1820 C1816 0.950 1_556 S
C1821 C1819 1.390 . S
C1821 C1822 1.387 . S
C1821 H1824 0.950 . S
C1822 C1821 1.387 . S
C1822 C1825 1.387 1_545 S
H1823 C1819 0.950 . S
H1824 C1821 0.950 . S
C1825 C1816 1.390 . S
C1825 H1818 0.950 . S
C1825 C1822 1.387 1_565 S
C1826 C1827 1.387 . S
C1826 H1830 0.950 . S
C1826 C1835 1.390 . S
C1827 C1826 1.387 . S
C1827 C1829 1.387 1_556 S
H1828 C1835 0.950 . S
C1829 C1827 1.387 1_554 S
C1829 C1831 1.390 . S
C1829 H1833 0.950 . S
H1830 C1826 0.950 . S
C1831 C1829 1.390 . S
C1831 C1832 1.387 1_554 S
C1831 H1834 0.950 . S
C1832 C1831 1.387 1_556 S
C1832 C1835 1.387 . S
H1833 C1829 0.950 . S
H1834 C1831 0.950 . S
C1835 C1826 1.390 . S
C1835 H1828 0.950 . S
C1835 C1832 1.387 . S
C1836 C1837 1.387 . S
C1836 H1840 0.950 . S
C1836 C1845 1.390 . S
C1837 C1836 1.387 . S
C1837 C1839 1.387 . S
H1838 C1845 0.950 . S
C1839 C1837 1.387 . S
C1839 C1841 1.390 . S
C1839 H1843 0.950 . S
H1840 C1836 0.950 . S
C1841 C1839 1.390 . S
C1841 C1842 1.387 . S
C1841 H1844 0.950 . S
C1842 C1841 1.387 . S
C1842 C1845 1.387 . S
H1843 C1839 0.950 . S
H1844 C1841 0.950 . S
C1845 C1836 1.390 . S
C1845 H1838 0.950 . S
C1845 C1842 1.387 . S
C1846 C1847 1.387 . S
C1846 H1850 0.950 . S
C1846 C1855 1.390 . S
C1847 C1846 1.387 . S
C1847 C1849 1.387 . S
H1848 C1855 0.950 . S
C1849 C1847 1.387 . S
C1849 C1851 1.390 . S
C1849 H1853 0.950 . S
H1850 C1846 0.950 . S
C1851 C1849 1.390 . S
C1851 C1852 1.387 . S
C1851 H1854 0.950 . S
C1852 C1851 1.387 . S
C1852 C1855 1.387 . S
H1853 C1849 0.950 . S
H1854 C1851 0.950 . S
C1855 C1846 1.390 . S
C1855 H1848 0.950 . S
C1855 C1852 1.387 . S
C1856 C1857 1.387 . S
C1856 H1860 0.950 . S
C1856 C1865 1.390 . S
C1857 C1856 1.387 . S
C1857 C1859 1.387 . S
H1858 C1865 0.950 . S
C1859 C1857 1.387 . S
C1859 C1861 1.390 . S
C1859 H1863 0.950 . S
H1860 C1856 0.950 . S
C1861 C1859 1.390 . S
C1861 C1862 1.387 . S
C1861 H1864 0.950 . S
C1862 C1861 1.387 . S
C1862 C1865 1.387 . S
H1863 C1859 0.950 . S
H1864 C1861 0.950 . S
C1865 C1856 1.390 . S
C1865 H1858 0.950 . S
C1865 C1862 1.387 . S
C1866 C1867 1.387 . S
C1866 H1870 0.950 . S
C1866 C1875 1.390 . S
C1867 C1866 1.387 . S
C1867 C1869 1.387 . S
H1868 C1875 0.950 . S
C1869 C1867 1.387 . S
C1869 C1871 1.390 . S
C1869 H1873 0.950 . S
H1870 C1866 0.950 . S
C1871 C1869 1.390 . S
C1871 C1872 1.387 . S
C1871 H1874 0.950 . S
C1872 C1871 1.387 . S
C1872 C1875 1.387 . S
H1873 C1869 0.950 . S
H1874 C1871 0.950 . S
C1875 C1866 1.390 . S
C1875 H1868 0.950 . S
C1875 C1872 1.387 . S
C1876 C1877 1.387 . S
C1876 H1880 0.950 . S
C1876 C1885 1.390 . S
C1877 C1876 1.387 . S
C1877 C1879 1.387 . S
H1878 C1885 0.950 . S
C1879 C1877 1.387 . S
C1879 C1881 1.390 . S
C1879 H1883 0.950 . S
H1880 C1876 0.950 . S
C1881 C1879 1.390 . S
C1881 C1882 1.387 . S
C1881 H1884 0.950 . S
C1882 C1881 1.387 . S
C1882 C1885 1.387 . S
H1883 C1879 0.950 . S
H1884 C1881 0.950 . S
C1885 C1876 1.390 . S
C1885 H1878 0.950 . S
C1885 C1882 1.387 . S
C1886 C1887 1.387 . S
C1886 H1890 0.950 . S
C1886 C1895 1.390 . S
C1887 C1886 1.387 . S
C1887 C1889 1.387 . S
H1888 C1895 0.950 . S
C1889 C1887 1.387 . S
C1889 C1891 1.390 . S
C1889 H1893 0.950 . S
H1890 C1886 0.950 . S
C1891 C1889 1.390 . S
C1891 C1892 1.387 . S
C1891 H1894 0.950 . S
C1892 C1891 1.387 . S
C1892 C1895 1.387 . S
H1893 C1889 0.950 . S
H1894 C1891 0.950 . S
C1895 C1886 1.390 . S
C1895 H1888 0.950 . S
C1895 C1892 1.387 . S
C1896 C1897 1.387 . S
C1896 H1900 0.950 . S
C1896 C1905 1.390 . S
C1897 C1896 1.387 . S
C1897 C1899 1.387 . S
H1898 C1905 0.950 . S
C1899 C1897 1.387 . S
C1899 C1901 1.390 . S
C1899 H1903 0.950 . S
H1900 C1896 0.950 . S
C1901 C1899 1.390 . S
C1901 C1902 1.387 . S
C1901 H1904 0.950 . S
C1902 C1901 1.387 . S
C1902 C1905 1.387 . S
H1903 C1899 0.950 . S
H1904 C1901 0.950 . S
C1905 C1896 1.390 . S
C1905 H1898 0.950 . S
C1905 C1902 1.387 . S
C1906 C1907 1.387 . S
C1906 H1910 0.950 . S
C1906 C1915 1.390 . S
C1907 C1906 1.387 . S
C1907 C1909 1.387 . S
H1908 C1915 0.950 . S
C1909 C1907 1.387 . S
C1909 C1911 1.390 . S
C1909 H1913 0.950 . S
H1910 C1906 0.950 . S
C1911 C1909 1.390 . S
C1911 C1912 1.387 . S
C1911 H1914 0.950 . S
C1912 C1911 1.387 . S
C1912 C1915 1.387 . S
H1913 C1909 0.950 . S
H1914 C1911 0.950 . S
C1915 C1906 1.390 . S
C1915 H1908 0.950 . S
C1915 C1912 1.387 . S
C1916 C1917 1.387 . S
C1916 H1920 0.950 . S
C1916 C1925 1.390 . S
C1917 C1916 1.387 . S
C1917 C1919 1.387 . S
H1918 C1925 0.950 . S
C1919 C1917 1.387 . S
C1919 C1921 1.390 . S
C1919 H1923 0.950 . S
H1920 C1916 0.950 . S
C1921 C1919 1.390 . S
C1921 C1922 1.387 . S
C1921 H1924 0.950 . S
C1922 C1921 1.387 . S
C1922 C1925 1.387 . S
H1923 C1919 0.950 . S
H1924 C1921 0.950 . S
C1925 C1916 1.390 . S
C1925 H1918 0.950 . S
C1925 C1922 1.387 . S
C1926 C1927 1.387 . S
C1926 H1930 0.950 . S
C1926 C1935 1.390 . S
C1927 C1926 1.387 . S
C1927 C1929 1.387 . S
H1928 C1935 0.950 . S
C1929 C1927 1.387 . S
C1929 C1931 1.390 . S
C1929 H1933 0.950 . S
H1930 C1926 0.950 . S
C1931 C1929 1.390 . S
C1931 C1932 1.387 . S
C1931 H1934 0.950 . S
C1932 C1931 1.387 . S
C1932 C1935 1.387 . S
H1933 C1929 0.950 . S
H1934 C1931 0.950 . S
C1935 C1926 1.390 . S
C1935 H1928 0.950 . S
C1935 C1932 1.387 . S
C1936 C1937 1.387 . S
C1936 H1940 0.950 . S
C1936 C1945 1.390 . S
C1937 C1936 1.387 . S
C1937 C1939 1.387 . S
H1938 C1945 0.950 . S
C1939 C1937 1.387 . S
C1939 C1941 1.390 . S
C1939 H1943 0.950 . S
H1940 C1936 0.950 . S
C1941 C1939 1.390 . S
C1941 C1942 1.387 . S
C1941 H1944 0.950 . S
C1942 C1941 1.387 . S
C1942 C1945 1.387 . S
H1943 C1939 0.950 . S
H1944 C1941 0.950 . S
C1945 C1936 1.390 . S
C1945 H1938 0.950 . S
C1945 C1942 1.387 . S
C1946 C1947 1.387 . S
C1946 H1950 0.950 . S
C1946 C1955 1.390 . S
C1947 C1946 1.387 . S
C1947 C1949 1.387 . S
H1948 C1955 0.950 . S
C1949 C1947 1.387 . S
C1949 C1951 1.390 . S
C1949 H1953 0.950 . S
H1950 C1946 0.950 . S
C1951 C1949 1.390 . S
C1951 C1952 1.387 . S
C1951 H1954 0.950 . S
C1952 C1951 1.387 . S
C1952 C1955 1.387 . S
H1953 C1949 0.950 . S
H1954 C1951 0.950 . S
C1955 C1946 1.390 . S
C1955 H1948 0.950 . S
C1955 C1952 1.387 . S
C1956 C1957 1.387 . S
C1956 H1960 0.950 . S
C1956 C1965 1.390 . S
C1957 C1956 1.387 . S
C1957 C1959 1.387 . S
H1958 C1965 0.950 1_554 S
C1959 C1957 1.387 . S
C1959 C1961 1.390 . S
C1959 H1963 0.950 . S
H1960 C1956 0.950 . S
C1961 C1959 1.390 . S
C1961 C1962 1.387 . S
C1961 H1964 0.950 . S
C1962 C1961 1.387 . S
C1962 C1965 1.387 . S
H1963 C1959 0.950 . S
H1964 C1961 0.950 . S
C1965 C1956 1.390 . S
C1965 H1958 0.950 1_556 S
C1965 C1962 1.387 . S
C1966 C1967 1.387 . S
C1966 H1970 0.950 . S
C1966 C1975 1.390 . S
C1967 C1966 1.387 . S
C1967 C1969 1.387 . S
H1968 C1975 0.950 . S
C1969 C1967 1.387 . S
C1969 C1971 1.390 . S
C1969 H1973 0.950 . S
H1970 C1966 0.950 . S
C1971 C1969 1.390 . S
C1971 C1972 1.387 . S
C1971 H1974 0.950 . S
C1972 C1971 1.387 . S
C1972 C1975 1.387 . S
H1973 C1969 0.950 . S
H1974 C1971 0.950 . S
C1975 C1966 1.390 . S
C1975 H1968 0.950 . S
C1975 C1972 1.387 . S
C1976 C1977 1.387 . S
C1976 H1980 0.950 . S
C1976 C1985 1.390 . S
C1977 C1976 1.387 . S
C1977 C1979 1.387 1_545 S
H1978 C1985 0.950 . S
C1979 C1977 1.387 1_565 S
C1979 C1981 1.390 . S
C1979 H1983 0.950 . S
H1980 C1976 0.950 . S
C1981 C1979 1.390 . S
C1981 C1982 1.387 1_565 S
C1981 H1984 0.950 . S
C1982 C1981 1.387 1_545 S
C1982 C1985 1.387 . S
H1983 C1979 0.950 . S
H1984 C1981 0.950 . S
C1985 C1976 1.390 . S
C1985 H1978 0.950 . S
C1985 C1982 1.387 . S
C1986 C1987 1.387 . S
C1986 H1990 0.950 . S
C1986 C1995 1.390 . S
C1987 C1986 1.387 . S
C1987 C1989 1.387 . S
H1988 C1995 0.950 . S
C1989 C1987 1.387 . S
C1989 C1991 1.390 . S
C1989 H1993 0.950 . S
H1990 C1986 0.950 . S
C1991 C1989 1.390 . S
C1991 C1992 1.387 . S
C1991 H1994 0.950 . S
C1992 C1991 1.387 . S
C1992 C1995 1.387 . S
H1993 C1989 0.950 . S
H1994 C1991 0.950 . S
C1995 C1986 1.390 . S
C1995 H1988 0.950 . S
C1995 C1992 1.387 . S
C1996 C1997 1.387 1_565 S
C1996 H2000 0.950 . S
C1996 C2005 1.390 . S
C1997 C1996 1.387 1_545 S
C1997 C1999 1.387 . S
H1998 C2005 0.950 . S
C1999 C1997 1.387 . S
C1999 C2001 1.390 . S
C1999 H2003 0.950 . S
H2000 C1996 0.950 . S
C2001 C1999 1.390 . S
C2001 C2002 1.387 . S
C2001 H2004 0.950 . S
C2002 C2001 1.387 . S
C2002 C2005 1.387 1_545 S
H2003 C1999 0.950 . S
H2004 C2001 0.950 . S
C2005 C1996 1.390 . S
C2005 H1998 0.950 . S
C2005 C2002 1.387 1_565 S
C2006 C2007 1.387 . S
C2006 H2010 0.950 . S
C2006 C2015 1.390 . S
C2007 C2006 1.387 . S
C2007 C2009 1.387 . S
H2008 C2015 0.950 . S
C2009 C2007 1.387 . S
C2009 C2011 1.390 . S
C2009 H2013 0.950 . S
H2010 C2006 0.950 . S
C2011 C2009 1.390 . S
C2011 C2012 1.387 . S
C2011 H2014 0.950 . S
C2012 C2011 1.387 . S
C2012 C2015 1.387 . S
H2013 C2009 0.950 . S
H2014 C2011 0.950 . S
C2015 C2006 1.390 . S
C2015 H2008 0.950 . S
C2015 C2012 1.387 . S
C2016 C2017 1.387 . S
C2016 H2020 0.950 . S
C2016 C2025 1.390 . S
C2017 C2016 1.387 . S
C2017 C2019 1.387 1_565 S
H2018 C2025 0.950 . S
C2019 C2017 1.387 1_545 S
C2019 C2021 1.390 . S
C2019 H2023 0.950 . S
H2020 C2016 0.950 . S
C2021 C2019 1.390 . S
C2021 C2022 1.387 . S
C2021 H2024 0.950 . S
C2022 C2021 1.387 . S
C2022 C2025 1.387 1_545 S
H2023 C2019 0.950 . S
H2024 C2021 0.950 . S
C2025 C2016 1.390 . S
C2025 H2018 0.950 . S
C2025 C2022 1.387 1_565 S
C2026 C2027 1.387 . S
C2026 H2030 0.950 . S
C2026 C2035 1.390 . S
C2027 C2026 1.387 . S
C2027 C2029 1.387 . S
H2028 C2035 0.950 . S
C2029 C2027 1.387 . S
C2029 C2031 1.390 . S
C2029 H2033 0.950 . S
H2030 C2026 0.950 . S
C2031 C2029 1.390 . S
C2031 C2032 1.387 . S
C2031 H2034 0.950 . S
C2032 C2031 1.387 . S
C2032 C2035 1.387 . S
H2033 C2029 0.950 . S
H2034 C2031 0.950 . S
C2035 C2026 1.390 . S
C2035 H2028 0.950 . S
C2035 C2032 1.387 . S
C2036 C2037 1.387 1_565 S
C2036 H2040 0.950 . S
C2036 C2045 1.390 . S
C2037 C2036 1.387 1_545 S
C2037 C2039 1.387 . S
H2038 C2045 0.950 . S
C2039 C2037 1.387 . S
C2039 C2041 1.390 . S
C2039 H2043 0.950 . S
H2040 C2036 0.950 . S
C2041 C2039 1.390 . S
C2041 C2042 1.387 . S
C2041 H2044 0.950 . S
C2042 C2041 1.387 . S
C2042 C2045 1.387 1_545 S
H2043 C2039 0.950 . S
H2044 C2041 0.950 . S
C2045 C2036 1.390 . S
C2045 H2038 0.950 . S
C2045 C2042 1.387 1_565 S
C2046 C2047 1.387 . S
C2046 H2050 0.950 . S
C2046 C2055 1.390 . S
C2047 C2046 1.387 . S
C2047 C2049 1.387 . S
H2048 C2055 0.950 . S
C2049 C2047 1.387 . S
C2049 C2051 1.390 . S
C2049 H2053 0.950 . S
H2050 C2046 0.950 . S
C2051 C2049 1.390 . S
C2051 C2052 1.387 . S
C2051 H2054 0.950 . S
C2052 C2051 1.387 . S
C2052 C2055 1.387 . S
H2053 C2049 0.950 . S
H2054 C2051 0.950 . S
C2055 C2046 1.390 . S
C2055 H2048 0.950 . S
C2055 C2052 1.387 . S
C2056 C2057 1.387 . S
C2056 H2060 0.950 . S
C2056 C2065 1.390 . S
C2057 C2056 1.387 . S
C2057 C2059 1.387 . S
H2058 C2065 0.950 . S
C2059 C2057 1.387 . S
C2059 C2061 1.390 . S
C2059 H2063 0.950 . S
H2060 C2056 0.950 . S
C2061 C2059 1.390 . S
C2061 C2062 1.387 . S
C2061 H2064 0.950 1_554 S
C2062 C2061 1.387 . S
C2062 C2065 1.387 . S
H2063 C2059 0.950 . S
H2064 C2061 0.950 1_556 S
C2065 C2056 1.390 . S
C2065 H2058 0.950 . S
C2065 C2062 1.387 . S
C2066 C2067 1.387 . S
C2066 H2070 0.950 1_554 S
C2066 C2075 1.390 . S
C2067 C2066 1.387 . S
C2067 C2069 1.387 . S
H2068 C2075 0.950 1_556 S
C2069 C2067 1.387 . S
C2069 C2071 1.390 . S
C2069 H2073 0.950 . S
H2070 C2066 0.950 1_556 S
C2071 C2069 1.390 . S
C2071 C2072 1.387 . S
C2071 H2074 0.950 . S
C2072 C2071 1.387 . S
C2072 C2075 1.387 . S
H2073 C2069 0.950 . S
H2074 C2071 0.950 . S
C2075 C2066 1.390 . S
C2075 H2068 0.950 1_554 S
C2075 C2072 1.387 . S
C2076 C2077 1.387 . S
C2076 H2080 0.950 . S
C2076 C2085 1.390 . S
C2077 C2076 1.387 . S
C2077 C2079 1.387 . S
H2078 C2085 0.950 . S
C2079 C2077 1.387 . S
C2079 C2081 1.390 . S
C2079 H2083 0.950 . S
H2080 C2076 0.950 . S
C2081 C2079 1.390 . S
C2081 C2082 1.387 . S
C2081 H2084 0.950 . S
C2082 C2081 1.387 . S
C2082 C2085 1.387 . S
H2083 C2079 0.950 . S
H2084 C2081 0.950 . S
C2085 C2076 1.390 . S
C2085 H2078 0.950 . S
C2085 C2082 1.387 . S
C2086 C2087 1.387 . S
C2086 H2090 0.950 . S
C2086 C2095 1.390 . S
C2087 C2086 1.387 . S
C2087 C2089 1.387 . S
H2088 C2095 0.950 . S
C2089 C2087 1.387 . S
C2089 C2091 1.390 . S
C2089 H2093 0.950 . S
H2090 C2086 0.950 . S
C2091 C2089 1.390 . S
C2091 C2092 1.387 . S
C2091 H2094 0.950 . S
C2092 C2091 1.387 . S
C2092 C2095 1.387 . S
H2093 C2089 0.950 . S
H2094 C2091 0.950 . S
C2095 C2086 1.390 . S
C2095 H2088 0.950 . S
C2095 C2092 1.387 . S
C2096 C2097 1.387 . S
C2096 H2100 0.950 . S
C2096 C2105 1.390 . S
C2097 C2096 1.387 . S
C2097 C2099 1.389 . S
H2098 C2105 0.950 . S
C2099 C2097 1.389 . S
C2099 C2101 1.396 . S
C2099 H2103 0.943 1_565 S
H2100 C2096 0.950 . S
C2101 C2099 1.396 . S
C2101 C2102 1.387 . S
C2101 H2104 0.950 . S
C2102 C2101 1.387 . S
C2102 C2105 1.387 . S
H2103 C2099 0.943 1_545 S
H2104 C2101 0.950 . S
C2105 C2096 1.390 . S
C2105 H2098 0.950 . S
C2105 C2102 1.387 . S
C2106 C2107 1.387 . S
C2106 H2110 0.950 . S
C2106 C2115 1.390 . S
C2107 C2106 1.387 . S
C2107 C2109 1.387 . S
H2108 C2115 0.950 . S
C2109 C2107 1.387 . S
C2109 C2111 1.390 . S
C2109 H2113 0.950 . S
H2110 C2106 0.950 . S
C2111 C2109 1.390 . S
C2111 C2112 1.387 . S
C2111 H2114 0.950 . S
C2112 C2111 1.387 . S
C2112 C2115 1.387 . S
H2113 C2109 0.950 . S
H2114 C2111 0.950 . S
C2115 C2106 1.390 . S
C2115 H2108 0.950 . S
C2115 C2112 1.387 . S
C2116 C2117 1.387 . S
C2116 H2120 0.950 . S
C2116 C2125 1.390 . S
C2117 C2116 1.387 . S
C2117 C2119 1.387 . S
H2118 C2125 0.950 . S
C2119 C2117 1.387 . S
C2119 C2121 1.390 . S
C2119 H2123 0.950 . S
H2120 C2116 0.950 . S
C2121 C2119 1.390 . S
C2121 C2122 1.387 . S
C2121 H2124 0.950 . S
C2122 C2121 1.387 . S
C2122 C2125 1.387 . S
H2123 C2119 0.950 . S
H2124 C2121 0.950 . S
C2125 C2116 1.390 . S
C2125 H2118 0.950 . S
C2125 C2122 1.387 . S
C2126 C2127 1.387 . S
C2126 H2130 0.950 . S
C2126 C2135 1.390 . S
C2127 C2126 1.387 . S
C2127 C2129 1.387 . S
H2128 C2135 0.950 . S
C2129 C2127 1.387 . S
C2129 C2131 1.390 . S
C2129 H2133 0.950 . S
H2130 C2126 0.950 . S
C2131 C2129 1.390 . S
C2131 C2132 1.387 . S
C2131 H2134 0.950 . S
C2132 C2131 1.387 . S
C2132 C2135 1.387 . S
H2133 C2129 0.950 . S
H2134 C2131 0.950 . S
C2135 C2126 1.390 . S
C2135 H2128 0.950 . S
C2135 C2132 1.387 . S
C2136 C2137 1.387 . S
C2136 H2140 0.950 . S
C2136 C2145 1.390 . S
C2137 C2136 1.387 . S
C2137 C2139 1.387 . S
H2138 C2145 0.950 . S
C2139 C2137 1.387 . S
C2139 C2141 1.390 . S
C2139 H2143 0.950 . S
H2140 C2136 0.950 . S
C2141 C2139 1.390 . S
C2141 C2142 1.387 . S
C2141 H2144 0.950 . S
C2142 C2141 1.387 . S
C2142 C2145 1.387 . S
H2143 C2139 0.950 . S
H2144 C2141 0.950 . S
C2145 C2136 1.390 . S
C2145 H2138 0.950 . S
C2145 C2142 1.387 . S
C2146 C2147 1.387 . S
C2146 H2150 0.950 . S
C2146 C2155 1.390 . S
C2147 C2146 1.387 . S
C2147 C2149 1.387 . S
H2148 C2155 0.950 . S
C2149 C2147 1.387 . S
C2149 C2151 1.390 . S
C2149 H2153 0.950 . S
H2150 C2146 0.950 . S
C2151 C2149 1.390 . S
C2151 C2152 1.387 . S
C2151 H2154 0.950 . S
C2152 C2151 1.387 . S
C2152 C2155 1.387 . S
H2153 C2149 0.950 . S
H2154 C2151 0.950 . S
C2155 C2146 1.390 . S
C2155 H2148 0.950 . S
C2155 C2152 1.387 . S
C2156 C2157 1.388 . S
C2156 H2160 0.953 . S
C2156 C2165 1.387 1_556 S
C2157 C2156 1.388 . S
C2157 C2159 1.382 1_556 S
H2158 C2165 0.950 . S
C2159 C2157 1.382 1_554 S
C2159 C2161 1.397 . S
C2159 H2163 0.950 1_454 S
H2160 C2156 0.953 . S
C2161 C2159 1.397 . S
C2161 C2162 1.387 . S
C2161 H2164 0.950 . S
C2162 C2161 1.387 . S
C2162 C2165 1.387 . S
H2163 C2159 0.950 1_656 S
H2164 C2161 0.950 . S
C2165 C2156 1.387 1_554 S
C2165 H2158 0.950 . S
C2165 C2162 1.387 . S
C2166 C2167 1.387 . S
C2166 H2170 0.950 . S
C2166 C2175 1.390 1_455 S
C2167 C2166 1.387 . S
C2167 C2169 1.387 . S
H2168 C2175 0.950 . S
C2169 C2167 1.387 . S
C2169 C2171 1.390 . S
C2169 H2173 0.950 . S
H2170 C2166 0.950 . S
C2171 C2169 1.390 . S
C2171 C2172 1.387 1_455 S
C2171 H2174 0.950 . S
C2172 C2171 1.387 1_655 S
C2172 C2175 1.387 . S
H2173 C2169 0.950 . S
H2174 C2171 0.950 . S
C2175 C2166 1.390 1_655 S
C2175 H2168 0.950 . S
C2175 C2172 1.387 . S
C2176 C2177 1.387 . S
C2176 H2180 0.950 . S
C2176 C2185 1.390 . S
C2177 C2176 1.387 . S
C2177 C2179 1.387 . S
H2178 C2185 0.950 . S
C2179 C2177 1.387 . S
C2179 C2181 1.390 . S
C2179 H2183 0.950 . S
H2180 C2176 0.950 . S
C2181 C2179 1.390 . S
C2181 C2182 1.387 . S
C2181 H2184 0.950 . S
C2182 C2181 1.387 . S
C2182 C2185 1.387 . S
H2183 C2179 0.950 . S
H2184 C2181 0.950 . S
C2185 C2176 1.390 . S
C2185 H2178 0.950 . S
C2185 C2182 1.387 . S
C2186 C2187 1.387 . S
C2186 H2190 0.950 . S
C2186 C2195 1.390 . S
C2187 C2186 1.387 . S
C2187 C2189 1.387 . S
H2188 C2195 0.950 . S
C2189 C2187 1.387 . S
C2189 C2191 1.390 . S
C2189 H2193 0.950 . S
H2190 C2186 0.950 . S
C2191 C2189 1.390 . S
C2191 C2192 1.387 . S
C2191 H2194 0.950 . S
C2192 C2191 1.387 . S
C2192 C2195 1.387 . S
H2193 C2189 0.950 . S
H2194 C2191 0.950 . S
C2195 C2186 1.390 . S
C2195 H2188 0.950 . S
C2195 C2192 1.387 . S
C2196 C2197 1.387 1_455 S
C2196 H2200 0.950 . S
C2196 C2205 1.390 . S
C2197 C2196 1.387 1_655 S
C2197 C2199 1.387 . S
H2198 C2205 0.950 . S
C2199 C2197 1.387 . S
C2199 C2201 1.381 1_655 S
C2199 H2203 0.950 . S
H2200 C2196 0.950 . S
C2201 C2199 1.381 1_455 S
C2201 C2202 1.396 . S
C2201 H2204 0.950 1_455 S
C2202 C2201 1.396 . S
C2202 C2205 1.387 . S
H2203 C2199 0.950 . S
H2204 C2201 0.950 1_655 S
C2205 C2196 1.390 . S
C2205 H2198 0.950 . S
C2205 C2202 1.387 . S
C2206 C2207 1.387 . S
C2206 H2210 0.950 . S
C2206 C2215 1.390 . S
C2207 C2206 1.387 . S
C2207 C2209 1.387 . S
H2208 C2215 0.950 . S
C2209 C2207 1.387 . S
C2209 C2211 1.390 . S
C2209 H2213 0.950 . S
H2210 C2206 0.950 . S
C2211 C2209 1.390 . S
C2211 C2212 1.387 . S
C2211 H2214 0.950 . S
C2212 C2211 1.387 . S
C2212 C2215 1.387 . S
H2213 C2209 0.950 . S
H2214 C2211 0.950 . S
C2215 C2206 1.390 . S
C2215 H2208 0.950 . S
C2215 C2212 1.387 . S
C2216 C2217 1.387 . S
C2216 H2220 0.950 . S
C2216 C2225 1.390 . S
C2217 C2216 1.387 . S
C2217 C2219 1.387 . S
H2218 C2225 0.950 . S
C2219 C2217 1.387 . S
C2219 C2221 1.390 . S
C2219 H2223 0.950 . S
H2220 C2216 0.950 . S
C2221 C2219 1.390 . S
C2221 C2222 1.387 . S
C2221 H2224 0.950 . S
C2222 C2221 1.387 . S
C2222 C2225 1.387 . S
H2223 C2219 0.950 . S
H2224 C2221 0.950 . S
C2225 C2216 1.390 . S
C2225 H2218 0.950 . S
C2225 C2222 1.387 . S
C2226 C2227 1.387 . S
C2226 H2230 0.950 . S
C2226 C2235 1.390 . S
C2227 C2226 1.387 . S
C2227 C2229 1.387 . S
H2228 C2235 0.950 . S
C2229 C2227 1.387 . S
C2229 C2231 1.390 . S
C2229 H2233 0.950 . S
H2230 C2226 0.950 . S
C2231 C2229 1.390 . S
C2231 C2232 1.387 . S
C2231 H2234 0.950 . S
C2232 C2231 1.387 . S
C2232 C2235 1.387 . S
H2233 C2229 0.950 . S
H2234 C2231 0.950 . S
C2235 C2226 1.390 . S
C2235 H2228 0.950 . S
C2235 C2232 1.387 . S
C2236 C2237 1.387 . S
C2236 H2240 0.950 . S
C2236 C2245 1.390 . S
C2237 C2236 1.387 . S
C2237 C2239 1.387 . S
H2238 C2245 0.950 . S
C2239 C2237 1.387 . S
C2239 C2241 1.390 . S
C2239 H2243 0.950 . S
H2240 C2236 0.950 . S
C2241 C2239 1.390 . S
C2241 C2242 1.387 . S
C2241 H2244 0.950 . S
C2242 C2241 1.387 . S
C2242 C2245 1.387 . S
H2243 C2239 0.950 . S
H2244 C2241 0.950 . S
C2245 C2236 1.390 . S
C2245 H2238 0.950 . S
C2245 C2242 1.387 . S
C2246 C2247 1.387 . S
C2246 H2250 0.950 . S
C2246 C2255 1.390 . S
C2247 C2246 1.387 . S
C2247 C2249 1.387 . S
H2248 C2255 0.950 . S
C2249 C2247 1.387 . S
C2249 C2251 1.390 . S
C2249 H2253 0.950 . S
H2250 C2246 0.950 . S
C2251 C2249 1.390 . S
C2251 C2252 1.387 . S
C2251 H2254 0.950 . S
C2252 C2251 1.387 . S
C2252 C2255 1.387 . S
H2253 C2249 0.950 . S
H2254 C2251 0.950 . S
C2255 C2246 1.390 . S
C2255 H2248 0.950 . S
C2255 C2252 1.387 . S
C2256 C2257 1.387 . S
C2256 H2260 0.950 . S
C2256 C2265 1.390 . S
C2257 C2256 1.387 . S
C2257 C2259 1.387 . S
H2258 C2265 0.950 . S
C2259 C2257 1.387 . S
C2259 C2261 1.390 . S
C2259 H2263 0.950 . S
H2260 C2256 0.950 . S
C2261 C2259 1.390 . S
C2261 C2262 1.387 . S
C2261 H2264 0.950 . S
C2262 C2261 1.387 . S
C2262 C2265 1.387 . S
H2263 C2259 0.950 . S
H2264 C2261 0.950 . S
C2265 C2256 1.390 . S
C2265 H2258 0.950 . S
C2265 C2262 1.387 . S
C2266 C2267 1.387 . S
C2266 H2270 0.950 . S
C2266 C2275 1.390 . S
C2267 C2266 1.387 . S
C2267 C2269 1.387 . S
H2268 C2275 0.950 . S
C2269 C2267 1.387 . S
C2269 C2271 1.390 . S
C2269 H2273 0.950 . S
H2270 C2266 0.950 . S
C2271 C2269 1.390 . S
C2271 C2272 1.387 . S
C2271 H2274 0.950 . S
C2272 C2271 1.387 . S
C2272 C2275 1.387 . S
H2273 C2269 0.950 . S
H2274 C2271 0.950 . S
C2275 C2266 1.390 . S
C2275 H2268 0.950 . S
C2275 C2272 1.387 . S
C2276 C2277 1.387 . S
C2276 H2280 0.950 . S
C2276 C2285 1.390 . S
C2277 C2276 1.387 . S
C2277 C2279 1.387 . S
H2278 C2285 0.950 . S
C2279 C2277 1.387 . S
C2279 C2281 1.390 . S
C2279 H2283 0.950 . S
H2280 C2276 0.950 . S
C2281 C2279 1.390 . S
C2281 C2282 1.387 . S
C2281 H2284 0.950 . S
C2282 C2281 1.387 . S
C2282 C2285 1.387 . S
H2283 C2279 0.950 . S
H2284 C2281 0.950 . S
C2285 C2276 1.390 . S
C2285 H2278 0.950 . S
C2285 C2282 1.387 . S
C2286 C2287 1.387 . S
C2286 H2290 0.950 . S
C2286 C2295 1.390 . S
C2287 C2286 1.387 . S
C2287 C2289 1.387 . S
H2288 C2295 0.950 . S
C2289 C2287 1.387 . S
C2289 C2291 1.390 . S
C2289 H2293 0.950 . S
H2290 C2286 0.950 . S
C2291 C2289 1.390 . S
C2291 C2292 1.387 . S
C2291 H2294 0.950 . S
C2292 C2291 1.387 . S
C2292 C2295 1.387 . S
H2293 C2289 0.950 . S
H2294 C2291 0.950 . S
C2295 C2286 1.390 . S
C2295 H2288 0.950 . S
C2295 C2292 1.387 . S
C2296 C2297 1.387 . S
C2296 H2300 0.950 . S
C2296 C2305 1.390 . S
C2297 C2296 1.387 . S
C2297 C2299 1.387 . S
H2298 C2305 0.950 . S
C2299 C2297 1.387 . S
C2299 C2301 1.390 . S
C2299 H2303 0.950 . S
H2300 C2296 0.950 . S
C2301 C2299 1.390 . S
C2301 C2302 1.387 . S
C2301 H2304 0.950 . S
C2302 C2301 1.387 . S
C2302 C2305 1.387 . S
H2303 C2299 0.950 . S
H2304 C2301 0.950 . S
C2305 C2296 1.390 . S
C2305 H2298 0.950 . S
C2305 C2302 1.387 . S
C2306 C2307 1.387 . S
C2306 H2310 0.950 . S
C2306 C2315 1.390 . S
C2307 C2306 1.387 . S
C2307 C2309 1.387 . S
H2308 C2315 0.950 . S
C2309 C2307 1.387 . S
C2309 C2311 1.390 . S
C2309 H2313 0.950 . S
H2310 C2306 0.950 . S
C2311 C2309 1.390 . S
C2311 C2312 1.387 . S
C2311 H2314 0.950 . S
C2312 C2311 1.387 . S
C2312 C2315 1.387 . S
H2313 C2309 0.950 . S
H2314 C2311 0.950 . S
C2315 C2306 1.390 . S
C2315 H2308 0.950 . S
C2315 C2312 1.387 . S
C2316 C2317 1.387 . S
C2316 H2320 0.950 . S
C2316 C2325 1.390 . S
C2317 C2316 1.387 . S
C2317 C2319 1.387 . S
H2318 C2325 0.950 . S
C2319 C2317 1.387 . S
C2319 C2321 1.390 . S
C2319 H2323 0.950 . S
H2320 C2316 0.950 . S
C2321 C2319 1.390 . S
C2321 C2322 1.387 . S
C2321 H2324 0.950 . S
C2322 C2321 1.387 . S
C2322 C2325 1.387 . S
H2323 C2319 0.950 . S
H2324 C2321 0.950 . S
C2325 C2316 1.390 . S
C2325 H2318 0.950 . S
C2325 C2322 1.387 . S
C2326 C2327 1.387 1_556 S
C2326 H2330 0.950 . S
C2326 C2335 1.390 . S
C2327 C2326 1.387 1_554 S
C2327 C2329 1.372 1_565 S
H2328 C2335 0.950 . S
C2329 C2327 1.372 1_545 S
C2329 C2331 1.406 . S
C2329 H2333 0.951 . S
H2330 C2326 0.950 . S
C2331 C2329 1.406 . S
C2331 C2332 1.387 . S
C2331 H2334 0.950 . S
C2332 C2331 1.387 . S
C2332 C2335 1.387 1_544 S
H2333 C2329 0.951 . S
H2334 C2331 0.950 . S
C2335 C2326 1.390 . S
C2335 H2328 0.950 . S
C2335 C2332 1.387 1_566 S
C2336 C2337 1.387 . S
C2336 H2340 0.950 . S
C2336 C2345 1.390 . S
C2337 C2336 1.387 . S
C2337 C2339 1.387 . S
H2338 C2345 0.950 . S
C2339 C2337 1.387 . S
C2339 C2341 1.390 . S
C2339 H2343 0.950 . S
H2340 C2336 0.950 . S
C2341 C2339 1.390 . S
C2341 C2342 1.387 . S
C2341 H2344 0.950 . S
C2342 C2341 1.387 . S
C2342 C2345 1.387 . S
H2343 C2339 0.950 . S
H2344 C2341 0.950 . S
C2345 C2336 1.390 . S
C2345 H2338 0.950 . S
C2345 C2342 1.387 . S
C2346 C2347 1.387 . S
C2346 H2350 0.950 . S
C2346 C2355 1.390 . S
C2347 C2346 1.387 . S
C2347 C2349 1.387 . S
H2348 C2355 0.950 . S
C2349 C2347 1.387 . S
C2349 C2351 1.390 . S
C2349 H2353 0.950 1_554 S
H2350 C2346 0.950 . S
C2351 C2349 1.390 . S
C2351 C2352 1.387 . S
C2351 H2354 0.950 . S
C2352 C2351 1.387 . S
C2352 C2355 1.387 . S
H2353 C2349 0.950 1_556 S
H2354 C2351 0.950 . S
C2355 C2346 1.390 . S
C2355 H2348 0.950 . S
C2355 C2352 1.387 . S
C2356 C2357 1.387 . S
C2356 H2360 0.950 . S
C2356 C2365 1.390 . S
C2357 C2356 1.387 . S
C2357 C2359 1.387 . S
H2358 C2365 0.950 . S
C2359 C2357 1.387 . S
C2359 C2361 1.390 . S
C2359 H2363 0.950 . S
H2360 C2356 0.950 . S
C2361 C2359 1.390 . S
C2361 C2362 1.387 . S
C2361 H2364 0.950 . S
C2362 C2361 1.387 . S
C2362 C2365 1.387 . S
H2363 C2359 0.950 . S
H2364 C2361 0.950 . S
C2365 C2356 1.390 . S
C2365 H2358 0.950 . S
C2365 C2362 1.387 . S
C2366 C2367 1.387 . S
C2366 H2370 0.950 . S
C2366 C2375 1.390 . S
C2367 C2366 1.387 . S
C2367 C2369 1.387 . S
H2368 C2375 0.950 . S
C2369 C2367 1.387 . S
C2369 C2371 1.390 . S
C2369 H2373 0.950 . S
H2370 C2366 0.950 . S
C2371 C2369 1.390 . S
C2371 C2372 1.387 . S
C2371 H2374 0.950 . S
C2372 C2371 1.387 . S
C2372 C2375 1.387 . S
H2373 C2369 0.950 . S
H2374 C2371 0.950 . S
C2375 C2366 1.390 . S
C2375 H2368 0.950 . S
C2375 C2372 1.387 . S
C2376 C2377 1.387 . S
C2376 H2380 0.950 . S
C2376 C2385 1.390 . S
C2377 C2376 1.387 . S
C2377 C2379 1.387 . S
H2378 C2385 0.950 . S
C2379 C2377 1.387 . S
C2379 C2381 1.390 . S
C2379 H2383 0.950 . S
H2380 C2376 0.950 . S
C2381 C2379 1.390 . S
C2381 C2382 1.387 . S
C2381 H2384 0.950 . S
C2382 C2381 1.387 . S
C2382 C2385 1.387 . S
H2383 C2379 0.950 . S
H2384 C2381 0.950 . S
C2385 C2376 1.390 . S
C2385 H2378 0.950 . S
C2385 C2382 1.387 . S
C2386 C2387 1.387 . S
C2386 H2390 0.950 . S
C2386 C2395 1.390 . S
C2387 C2386 1.387 . S
C2387 C2389 1.387 . S
H2388 C2395 0.950 . S
C2389 C2387 1.387 . S
C2389 C2391 1.390 . S
C2389 H2393 0.950 . S
H2390 C2386 0.950 . S
C2391 C2389 1.390 . S
C2391 C2392 1.387 . S
C2391 H2394 0.950 . S
C2392 C2391 1.387 . S
C2392 C2395 1.387 . S
H2393 C2389 0.950 . S
H2394 C2391 0.950 . S
C2395 C2386 1.390 . S
C2395 H2388 0.950 . S
C2395 C2392 1.387 . S
C2396 C2397 1.387 . S
C2396 H2400 0.950 . S
C2396 C2405 1.390 . S
C2397 C2396 1.387 . S
C2397 C2399 1.387 . S
H2398 C2405 0.950 . S
C2399 C2397 1.387 . S
C2399 C2401 1.390 . S
C2399 H2403 0.950 . S
H2400 C2396 0.950 . S
C2401 C2399 1.390 . S
C2401 C2402 1.387 . S
C2401 H2404 0.950 . S
C2402 C2401 1.387 . S
C2402 C2405 1.387 . S
H2403 C2399 0.950 . S
H2404 C2401 0.950 . S
C2405 C2396 1.390 . S
C2405 H2398 0.950 . S
C2405 C2402 1.387 . S
C2406 C2407 1.387 . S
C2406 H2410 0.950 . S
C2406 C2415 1.390 . S
C2407 C2406 1.387 . S
C2407 C2409 1.387 . S
H2408 C2415 0.950 . S
C2409 C2407 1.387 . S
C2409 C2411 1.390 . S
C2409 H2413 0.950 . S
H2410 C2406 0.950 . S
C2411 C2409 1.390 . S
C2411 C2412 1.387 . S
C2411 H2414 0.950 . S
C2412 C2411 1.387 . S
C2412 C2415 1.387 . S
H2413 C2409 0.950 . S
H2414 C2411 0.950 . S
C2415 C2406 1.390 . S
C2415 H2408 0.950 . S
C2415 C2412 1.387 . S
C2416 C2417 1.387 . S
C2416 H2420 0.950 . S
C2416 C2425 1.390 . S
C2417 C2416 1.387 . S
C2417 C2419 1.387 . S
H2418 C2425 0.950 . S
C2419 C2417 1.387 . S
C2419 C2421 1.390 . S
C2419 H2423 0.950 . S
H2420 C2416 0.950 . S
C2421 C2419 1.390 . S
C2421 C2422 1.387 . S
C2421 H2424 0.950 . S
C2422 C2421 1.387 . S
C2422 C2425 1.387 . S
H2423 C2419 0.950 . S
H2424 C2421 0.950 . S
C2425 C2416 1.390 . S
C2425 H2418 0.950 . S
C2425 C2422 1.387 . S
C2426 C2427 1.387 . S
C2426 H2430 0.950 . S
C2426 C2435 1.390 . S
C2427 C2426 1.387 . S
C2427 C2429 1.387 . S
H2428 C2435 0.950 . S
C2429 C2427 1.387 . S
C2429 C2431 1.390 . S
C2429 H2433 0.950 . S
H2430 C2426 0.950 . S
C2431 C2429 1.390 . S
C2431 C2432 1.387 . S
C2431 H2434 0.950 . S
C2432 C2431 1.387 . S
C2432 C2435 1.387 . S
H2433 C2429 0.950 . S
H2434 C2431 0.950 . S
C2435 C2426 1.390 . S
C2435 H2428 0.950 . S
C2435 C2432 1.387 . S
C2436 C2437 1.387 . S
C2436 H2440 0.950 . S
C2436 C2445 1.390 . S
C2437 C2436 1.387 . S
C2437 C2439 1.387 . S
H2438 C2445 0.950 . S
C2439 C2437 1.387 . S
C2439 C2441 1.390 . S
C2439 H2443 0.950 . S
H2440 C2436 0.950 . S
C2441 C2439 1.390 . S
C2441 C2442 1.387 . S
C2441 H2444 0.950 . S
C2442 C2441 1.387 . S
C2442 C2445 1.387 . S
H2443 C2439 0.950 . S
H2444 C2441 0.950 . S
C2445 C2436 1.390 . S
C2445 H2438 0.950 . S
C2445 C2442 1.387 . S
C2446 C2447 1.387 . S
C2446 H2450 0.950 . S
C2446 C2455 1.390 . S
C2447 C2446 1.387 . S
C2447 C2449 1.387 . S
H2448 C2455 0.950 . S
C2449 C2447 1.387 . S
C2449 C2451 1.390 . S
C2449 H2453 0.950 . S
H2450 C2446 0.950 . S
C2451 C2449 1.390 . S
C2451 C2452 1.387 . S
C2451 H2454 0.950 . S
C2452 C2451 1.387 . S
C2452 C2455 1.387 . S
H2453 C2449 0.950 . S
H2454 C2451 0.950 . S
C2455 C2446 1.390 . S
C2455 H2448 0.950 . S
C2455 C2452 1.387 . S
C2456 C2457 1.387 . S
C2456 H2460 0.950 . S
C2456 C2465 1.390 . S
C2457 C2456 1.387 . S
C2457 C2459 1.387 . S
H2458 C2465 0.950 . S
C2459 C2457 1.387 . S
C2459 C2461 1.390 . S
C2459 H2463 0.950 . S
H2460 C2456 0.950 . S
C2461 C2459 1.390 . S
C2461 C2462 1.387 . S
C2461 H2464 0.950 . S
C2462 C2461 1.387 . S
C2462 C2465 1.387 . S
H2463 C2459 0.950 . S
H2464 C2461 0.950 . S
C2465 C2456 1.390 . S
C2465 H2458 0.950 . S
C2465 C2462 1.387 . S
C2466 C2467 1.387 . S
C2466 H2470 0.950 . S
C2466 C2475 1.390 . S
C2467 C2466 1.387 . S
C2467 C2469 1.387 . S
H2468 C2475 0.950 . S
C2469 C2467 1.387 . S
C2469 C2471 1.390 . S
C2469 H2473 0.950 . S
H2470 C2466 0.950 . S
C2471 C2469 1.390 . S
C2471 C2472 1.387 . S
C2471 H2474 0.950 . S
C2472 C2471 1.387 . S
C2472 C2475 1.387 . S
H2473 C2469 0.950 . S
H2474 C2471 0.950 . S
C2475 C2466 1.390 . S
C2475 H2468 0.950 . S
C2475 C2472 1.387 . S
C2476 C2477 1.387 . S
C2476 H2480 0.950 . S
C2476 C2485 1.390 . S
C2477 C2476 1.387 . S
C2477 C2479 1.387 . S
H2478 C2485 0.950 1_455 S
C2479 C2477 1.387 . S
C2479 C2481 1.390 1_655 S
C2479 H2483 0.950 . S
H2480 C2476 0.950 . S
C2481 C2479 1.390 1_455 S
C2481 C2482 1.387 . S
C2481 H2484 0.950 . S
C2482 C2481 1.387 . S
C2482 C2485 1.387 1_455 S
H2483 C2479 0.950 . S
H2484 C2481 0.950 . S
C2485 C2476 1.390 . S
C2485 H2478 0.950 1_655 S
C2485 C2482 1.387 1_655 S
C2486 C2487 1.387 . S
C2486 H2490 0.950 . S
C2486 C2495 1.390 . S
C2487 C2486 1.387 . S
C2487 C2489 1.387 . S
H2488 C2495 0.950 . S
C2489 C2487 1.387 . S
C2489 C2491 1.390 . S
C2489 H2493 0.950 . S
H2490 C2486 0.950 . S
C2491 C2489 1.390 . S
C2491 C2492 1.387 . S
C2491 H2494 0.950 . S
C2492 C2491 1.387 . S
C2492 C2495 1.387 . S
H2493 C2489 0.950 . S
H2494 C2491 0.950 . S
C2495 C2486 1.390 . S
C2495 H2488 0.950 . S
C2495 C2492 1.387 . S
C2496 C2497 1.387 . S
C2496 H2500 0.950 . S
C2496 C2505 1.390 . S
C2497 C2496 1.387 . S
C2497 C2499 1.387 . S
H2498 C2505 0.950 . S
C2499 C2497 1.387 . S
C2499 C2501 1.390 . S
C2499 H2503 0.950 . S
H2500 C2496 0.950 . S
C2501 C2499 1.390 . S
C2501 C2502 1.387 . S
C2501 H2504 0.950 . S
C2502 C2501 1.387 . S
C2502 C2505 1.387 . S
H2503 C2499 0.950 . S
H2504 C2501 0.950 . S
C2505 C2496 1.390 . S
C2505 H2498 0.950 . S
C2505 C2502 1.387 . S
C2506 C2507 1.387 . S
C2506 H2510 0.950 . S
C2506 C2515 1.390 . S
C2507 C2506 1.387 . S
C2507 C2509 1.387 . S
H2508 C2515 0.950 . S
C2509 C2507 1.387 . S
C2509 C2511 1.390 . S
C2509 H2513 0.950 . S
H2510 C2506 0.950 . S
C2511 C2509 1.390 . S
C2511 C2512 1.387 . S
C2511 H2514 0.950 . S
C2512 C2511 1.387 . S
C2512 C2515 1.387 . S
H2513 C2509 0.950 . S
H2514 C2511 0.950 . S
C2515 C2506 1.390 . S
C2515 H2508 0.950 . S
C2515 C2512 1.387 . S
C2516 C2517 1.387 . S
C2516 H2520 0.950 . S
C2516 C2525 1.390 . S
C2517 C2516 1.387 . S
C2517 C2519 1.387 . S
H2518 C2525 0.950 . S
C2519 C2517 1.387 . S
C2519 C2521 1.390 . S
C2519 H2523 0.950 . S
H2520 C2516 0.950 . S
C2521 C2519 1.390 . S
C2521 C2522 1.387 . S
C2521 H2524 0.950 1_655 S
C2522 C2521 1.387 . S
C2522 C2525 1.387 . S
H2523 C2519 0.950 . S
H2524 C2521 0.950 1_455 S
C2525 C2516 1.390 . S
C2525 H2518 0.950 . S
C2525 C2522 1.387 . S
C2526 C2527 1.387 . S
C2526 H2530 0.950 . S
C2526 C2535 1.390 . S
C2527 C2526 1.387 . S
C2527 C2529 1.387 . S
H2528 C2535 0.950 . S
C2529 C2527 1.387 . S
C2529 C2531 1.390 . S
C2529 H2533 0.950 . S
H2530 C2526 0.950 . S
C2531 C2529 1.390 . S
C2531 C2532 1.387 . S
C2531 H2534 0.950 . S
C2532 C2531 1.387 . S
C2532 C2535 1.387 . S
H2533 C2529 0.950 . S
H2534 C2531 0.950 . S
C2535 C2526 1.390 . S
C2535 H2528 0.950 . S
C2535 C2532 1.387 . S
C2536 C2537 1.387 . S
C2536 H2540 0.950 . S
C2536 C2545 1.390 . S
C2537 C2536 1.387 . S
C2537 C2539 1.387 . S
H2538 C2545 0.950 . S
C2539 C2537 1.387 . S
C2539 C2541 1.390 . S
C2539 H2543 0.950 . S
H2540 C2536 0.950 . S
C2541 C2539 1.390 . S
C2541 C2542 1.387 . S
C2541 H2544 0.950 . S
C2542 C2541 1.387 . S
C2542 C2545 1.387 . S
H2543 C2539 0.950 . S
H2544 C2541 0.950 . S
C2545 C2536 1.390 . S
C2545 H2538 0.950 . S
C2545 C2542 1.387 . S
C2546 C2547 1.387 . S
C2546 H2550 0.950 . S
C2546 C2555 1.390 . S
C2547 C2546 1.387 . S
C2547 C2549 1.387 . S
H2548 C2555 0.950 . S
C2549 C2547 1.387 . S
C2549 C2551 1.390 . S
C2549 H2553 0.950 . S
H2550 C2546 0.950 . S
C2551 C2549 1.390 . S
C2551 C2552 1.387 . S
C2551 H2554 0.950 . S
C2552 C2551 1.387 . S
C2552 C2555 1.387 . S
H2553 C2549 0.950 . S
H2554 C2551 0.950 . S
C2555 C2546 1.390 . S
C2555 H2548 0.950 . S
C2555 C2552 1.387 . S
C2556 C2557 1.387 . S
C2556 H2560 0.950 . S
C2556 C2565 1.390 . S
C2557 C2556 1.387 . S
C2557 C2559 1.387 . S
H2558 C2565 0.950 . S
C2559 C2557 1.387 . S
C2559 C2561 1.390 . S
C2559 H2563 0.950 . S
H2560 C2556 0.950 . S
C2561 C2559 1.390 . S
C2561 C2562 1.387 . S
C2561 H2564 0.950 . S
C2562 C2561 1.387 . S
C2562 C2565 1.387 . S
H2563 C2559 0.950 . S
H2564 C2561 0.950 . S
C2565 C2556 1.390 . S
C2565 H2558 0.950 . S
C2565 C2562 1.387 . S
C2566 C2567 1.387 . S
C2566 H2570 0.950 . S
C2566 C2575 1.390 . S
C2567 C2566 1.387 . S
C2567 C2569 1.387 1_554 S
H2568 C2575 0.950 . S
C2569 C2567 1.387 1_556 S
C2569 C2571 1.390 . S
C2569 H2573 0.950 . S
H2570 C2566 0.950 . S
C2571 C2569 1.390 . S
C2571 C2572 1.387 1_556 S
C2571 H2574 0.950 . S
C2572 C2571 1.387 1_554 S
C2572 C2575 1.387 . S
H2573 C2569 0.950 . S
H2574 C2571 0.950 . S
C2575 C2566 1.390 . S
C2575 H2568 0.950 . S
C2575 C2572 1.387 . S
C2576 C2577 1.387 . S
C2576 H2580 0.950 . S
C2576 C2585 1.390 . S
C2577 C2576 1.387 . S
C2577 C2579 1.387 . S
H2578 C2585 0.950 . S
C2579 C2577 1.387 . S
C2579 C2581 1.390 . S
C2579 H2583 0.950 . S
H2580 C2576 0.950 . S
C2581 C2579 1.390 . S
C2581 C2582 1.387 . S
C2581 H2584 0.950 . S
C2582 C2581 1.387 . S
C2582 C2585 1.387 . S
H2583 C2579 0.950 . S
H2584 C2581 0.950 . S
C2585 C2576 1.390 . S
C2585 H2578 0.950 . S
C2585 C2582 1.387 . S
C2586 C2587 1.387 . S
C2586 H2590 0.950 1_554 S
C2586 C2595 1.396 . S
C2587 C2586 1.387 . S
C2587 C2589 1.387 . S
H2588 C2595 0.938 1_556 S
C2589 C2587 1.387 . S
C2589 C2591 1.390 . S
C2589 H2593 0.950 . S
H2590 C2586 0.950 1_556 S
C2591 C2589 1.390 . S
C2591 C2592 1.387 . S
C2591 H2594 0.950 . S
C2592 C2591 1.387 . S
C2592 C2595 1.394 . S
H2593 C2589 0.950 . S
H2594 C2591 0.950 . S
C2595 C2586 1.396 . S
C2595 H2588 0.938 1_554 S
C2595 C2592 1.394 . S
C2596 C2597 1.387 . S
C2596 H2600 0.950 . S
C2596 C2605 1.390 . S
C2597 C2596 1.387 . S
C2597 C2599 1.387 . S
H2598 C2605 0.950 . S
C2599 C2597 1.387 . S
C2599 C2601 1.390 . S
C2599 H2603 0.950 . S
H2600 C2596 0.950 . S
C2601 C2599 1.390 . S
C2601 C2602 1.387 . S
C2601 H2604 0.950 . S
C2602 C2601 1.387 . S
C2602 C2605 1.387 . S
H2603 C2599 0.950 . S
H2604 C2601 0.950 . S
C2605 C2596 1.390 . S
C2605 H2598 0.950 . S
C2605 C2602 1.387 . S
C2606 C2607 1.387 . S
C2606 H2610 0.950 . S
C2606 C2615 1.390 . S
C2607 C2606 1.387 . S
C2607 C2609 1.387 . S
H2608 C2615 0.950 . S
C2609 C2607 1.387 . S
C2609 C2611 1.390 . S
C2609 H2613 0.950 . S
H2610 C2606 0.950 . S
C2611 C2609 1.390 . S
C2611 C2612 1.387 . S
C2611 H2614 0.950 . S
C2612 C2611 1.387 . S
C2612 C2615 1.387 . S
H2613 C2609 0.950 . S
H2614 C2611 0.950 . S
C2615 C2606 1.390 . S
C2615 H2608 0.950 . S
C2615 C2612 1.387 . S
C1657 C101 1.978 . S
C1662 C368 1.779 . S
C1667 C57 2.226 . S
C1672 C459 2.214 . S
C1677 C70 1.576 . S
C1682 C536 1.458 . S
C1692 C634 1.371 . S
C1687 C82 1.443 . S
C1697 C23 1.677 . S
C1702 C718 1.776 . S
C1712 C790 1.015 . S
C1707 C29 1.046 . S
C1722 C879 1.295 . S
C1717 C49 1.141 . S
C1727 C10 1.898 . S
C1732 C956 1.579 . S
C1742 C375 2.058 . S
C1737 C218 2.154 1_455 S
C1747 C226 0.969 . S
C1752 C466 0.990 . S
C1762 C543 1.334 . S
C1757 C251 1.367 . S
C1772 C620 1.531 . S
C1767 C159 1.647 . S
C1777 C211 2.223 1_455 S
C1782 C704 1.989 . S
C1792 C806 1.264 . S
C1787 C225 1.409 . S
C1802 C886 0.914 . S
C1797 C252 0.914 . S
C1812 C963 1.681 . S
C1807 C166 1.889 . S
C1822 C382 1.500 . S
C1817 C147 1.508 . S
C1827 C263 1.881 . S
C1832 C1047 1.855 . S
C1842 C1135 2.251 . S
C1837 C309 2.484 . S
C1852 C1208 0.651 1_655 S
C1847 C291 0.560 . S
C1857 C108 1.593 . S
C1862 C970 1.808 . S
C1867 C121 1.588 . S
C1872 C550 1.656 . S
C1877 C302 2.126 . S
C1882 C1299 2.063 . S
C1892 C1376 0.820 . S
C1887 C276 0.890 . S
C1902 C379 1.970 . S
C1897 C55 2.095 . S
C1912 C1394 2.348 . S
C1907 C96 2.382 . S
C1917 C88 1.830 . S
C1922 C547 1.759 . S
C1927 C75 1.612 . S
C1932 C1294 1.498 . S
C1942 C706 1.697 . S
C1937 C4 1.647 . S
C1947 C44 1.179 . S
C1952 C1138 1.088 . S
C1962 C890 1.580 . S
C1957 C31 1.453 . S
C1972 C1471 1.649 . S
C1967 C18 1.824 . S
C1982 C386 2.232 . S
C1977 C133 2.344 . S
C1992 C1378 0.910 . S
C1987 C296 0.962 . S
C1997 C107 1.430 . S
C2002 C554 1.374 . S
C2007 C264 1.873 . S
C2012 C1303 1.780 . S
C2017 C140 2.329 . S
C2022 C715 2.166 . S
C2032 C1131 1.327 . S
C2027 C289 1.434 . S
C2037 C114 1.015 . S
C2042 C874 0.929 . S
C2047 C265 2.005 . S
C2052 C1478 1.843 . S
C2057 C179 1.538 . S
C2062 C370 1.490 . S
C2067 C161 2.055 . S
C2072 C1058 1.980 . S
C2077 C244 2.650 . S
C2082 C788 2.465 . S
C2087 C224 0.984 . S
C2092 C1219 0.974 . S
C2102 C1462 1.336 . S
C2097 C257 1.248 1_565 S
C2107 C199 1.585 . S
C2112 C538 1.571 . S
C2122 C638 2.222 . S
C2117 C237 2.322 . S
C2132 C463 0.976 . S
C2127 C185 1.014 . S
C2137 C69 1.979 . S
C2142 C1544 1.779 . S
C2152 C1383 2.214 . S
C2147 C83 2.227 . S
C2157 C94 1.577 . S
C2162 C1628 1.459 . S
C2167 C56 1.445 . S
C2172 C1306 1.369 . S
C2177 C42 1.697 . S
C2182 C1054 1.783 . S
C2192 C1126 1.017 . S
C2187 C3 1.051 . S
C2202 C1215 1.299 . S
C2197 C16 1.139 . S
C2212 C1460 1.576 . S
C2207 C36 1.897 . S
C2222 C1551 2.058 . S
C2217 C238 2.153 . S
C2227 C174 0.967 . S
C2232 C1390 0.986 . S
C2242 C1635 1.332 . S
C2237 C186 1.362 . S
C2252 C1292 1.534 . S
C2247 C198 1.646 . S
C2262 C1040 1.989 . S
C2257 C239 2.225 . S
C2267 C173 1.411 . S
C2272 C1142 1.264 . S
C2282 C1222 0.915 . S
C2277 C187 0.920 . S
C2287 C205 1.887 . S
C2292 C1467 1.677 . S
C2302 C1558 1.498 . S
C2297 C290 1.507 . S
C2307 C122 1.882 . S
C2312 C711 1.846 . S
C2322 C799 2.256 . S
C2317 C134 2.488 . S
C2332 C872 0.651 . S
C2327 C148 0.558 . S
C2342 C1474 1.807 . S
C2337 C283 1.592 . S
C2347 C270 1.589 . S
C2352 C1642 1.654 . S
C2362 C627 2.062 . S
C2357 C135 2.125 . S
C2372 C452 0.818 . S
C2367 C109 0.888 . S
C2377 C81 2.095 . S
C2382 C1555 1.969 . S
C2392 C470 2.347 . S
C2387 C68 2.381 . S
C2397 C62 1.830 . S
C2402 C1639 1.758 . S
C2407 C95 1.611 . S
C2412 C622 1.496 . S
C2417 C30 1.649 . S
C2422 C1042 1.694 . S
C2432 C802 1.076 . S
C2427 C17 1.170 . S
C2437 C5 1.456 . S
C2442 C1226 1.581 . S
C2447 C43 1.816 . S
C2452 C967 1.636 . S
C2462 C1562 2.232 . S
C2457 C304 2.343 . S
C2467 C153 0.960 . S
C2472 C454 0.914 . S
C2482 C1646 1.374 . S
C2477 C278 1.431 . S
C2487 C127 1.873 . S
C2492 C631 1.778 . S
C2497 C303 2.323 . S
C2502 C1051 2.160 . S
C2512 C795 1.326 . S
C2507 C146 1.434 . S
C2517 C277 1.014 . S
C2522 C1210 0.926 . S
C2532 C974 1.841 . S
C2527 C120 2.003 . S
C2542 C1546 1.493 . S
C2537 C231 1.538 . S
C2552 C722 1.981 1_655 S
C2547 C200 2.054 . S
C2557 C212 2.653 . S
C2562 C1124 2.470 . S
C2572 C883 0.973 . S
C2567 C172 0.985 . S
C2577 C192 1.245 . S
C2582 C958 1.337 . S
C2587 C160 1.583 . S
C2592 C1630 1.574 . S
C2602 C1310 2.223 . S
C2597 C213 2.323 1_565 S
C2612 C1387 0.977 . S
C2607 C250 1.014 . S
