# Generated by pormake.
# Topology anh, (6,3)-cn, num edge types: 1
# Building blocks:
#     Node 0, Type 0, BuildingBlock: BETDAH_clean_sbu_0, # of connection points: 6
#     Node 1, Type 0, BuildingBlock: BETDAH_clean_sbu_0, # of connection points: 6
#     Node 2, Type 0, BuildingBlock: BETDAH_clean_sbu_0, # of connection points: 6
#     Node 3, Type 1, BuildingBlock: WUSLED_clean_sbu_0, # of connection points: 3
#     Node 4, Type 1, BuildingBlock: WUSLED_clean_sbu_0, # of connection points: 3
#     Node 5, Type 1, BuildingBlock: WUSLED_clean_sbu_0, # of connection points: 3
#     Node 6, Type 1, BuildingBlock: WUSLED_clean_sbu_0, # of connection points: 3
#     Node 7, Type 1, BuildingBlock: WUSLED_clean_sbu_0, # of connection points: 3
#     Node 8, Type 1, BuildingBlock: WUSLED_clean_sbu_0, # of connection points: 3
#     Edge 9, Type (0, 1), BuildingBlock: XUDNAN_clean_linker_2, # of connection points: 2
#     Edge 10, Type (0, 1), BuildingBlock: XUDNAN_clean_linker_2, # of connection points: 2
#     Edge 11, Type (0, 1), BuildingBlock: XUDNAN_clean_linker_2, # of connection points: 2
#     Edge 12, Type (0, 1), BuildingBlock: XUDNAN_clean_linker_2, # of connection points: 2
#     Edge 13, Type (0, 1), BuildingBlock: XUDNAN_clean_linker_2, # of connection points: 2
#     Edge 14, Type (0, 1), BuildingBlock: XUDNAN_clean_linker_2, # of connection points: 2
#     Edge 15, Type (0, 1), BuildingBlock: XUDNAN_clean_linker_2, # of connection points: 2
#     Edge 16, Type (0, 1), BuildingBlock: XUDNAN_clean_linker_2, # of connection points: 2
#     Edge 17, Type (0, 1), BuildingBlock: XUDNAN_clean_linker_2, # of connection points: 2
#     Edge 18, Type (0, 1), BuildingBlock: XUDNAN_clean_linker_2, # of connection points: 2
#     Edge 19, Type (0, 1), BuildingBlock: XUDNAN_clean_linker_2, # of connection points: 2
#     Edge 20, Type (0, 1), BuildingBlock: XUDNAN_clean_linker_2, # of connection points: 2
#     Edge 21, Type (0, 1), BuildingBlock: XUDNAN_clean_linker_2, # of connection points: 2
#     Edge 22, Type (0, 1), BuildingBlock: XUDNAN_clean_linker_2, # of connection points: 2
#     Edge 23, Type (0, 1), BuildingBlock: XUDNAN_clean_linker_2, # of connection points: 2
#     Edge 24, Type (0, 1), BuildingBlock: XUDNAN_clean_linker_2, # of connection points: 2
#     Edge 25, Type (0, 1), BuildingBlock: XUDNAN_clean_linker_2, # of connection points: 2
#     Edge 26, Type (0, 1), BuildingBlock: XUDNAN_clean_linker_2, # of connection points: 2
# Relax obj value: 0.169
# Max RMSD: 0.203
# Mean RMSD: 0.149
data_MOF--net-anh--node1-BETDAH_clean_sbu_0--node2-WUSLED_clean_sbu_0--edge1-XUDNAN_clean_linker_2
_symmetry_space_group_name_H-M    P1
_symmetry_Int_Tables_number       1
_symmetry_cell_setting            triclinic
loop_
_symmetry_equiv_pos_as_xyz
'x, y, z'
_cell_length_a     40.160051
_cell_length_b     45.957344
_cell_length_c     69.572258
_cell_angle_alpha  92.124541
_cell_angle_beta   89.911322
_cell_angle_gamma 127.72493
loop_
_atom_site_label
_atom_site_type_symbol
_atom_site_fract_x
_atom_site_fract_y
_atom_site_fract_z
_atom_type_partial_charge
Ho0 Ho 0.09881 0.51745 0.16668 0.0
Ho1 Ho 1.04145 0.53694 0.16715 0.0
C2 C 0.13838 0.60411 0.17409 0.0
C3 C 0.15797 0.51207 0.15999 0.0
C4 C 0.20171 0.53107 0.16696 0.0
C5 C 0.23544 0.55738 0.15573 0.0
C6 C 0.27659 0.57178 0.1609 0.0
C7 C 0.28472 0.55985 0.1773 0.0
C8 C 0.25136 0.5355 0.18925 0.0
C9 C 0.2102 0.52116 0.18412 0.0
C10 C 0.06624 0.51143 0.20144 0.0
C11 C 1.00274 0.45122 0.16379 0.0
C12 C 0.98212 0.54267 0.17323 0.0
C13 C 0.93804 0.5177 0.17872 0.0
C14 C 0.92204 0.48457 0.18747 0.0
C15 C 0.87917 0.45986 0.19129 0.0
C16 C 0.85192 0.46815 0.18654 0.0
C17 C 0.86844 0.50181 0.17818 0.0
C18 C 0.91115 0.52633 0.17429 0.0
C19 C 0.07225 0.5391 0.13184 0.0
O20 O 0.14575 0.58007 0.17027 0.0
O21 O 0.09961 0.59352 0.17478 0.0
O22 O 0.12835 0.49216 0.17229 0.0
O23 O 0.1508 0.53071 0.14933 0.0
O24 O 0.07381 0.48956 0.19456 0.0
O25 O 0.07916 0.53724 0.19026 0.0
O26 O 0.99761 0.47522 0.171 0.0
O27 O 1.03946 0.46277 0.15696 0.0
O28 O 0.99022 0.53571 0.15624 0.0
O29 O 1.01005 0.55053 0.18636 0.0
O30 O 0.0679 0.56326 0.13857 0.0
O31 O 0.05928 0.51483 0.14399 0.0
H32 H 0.22986 0.56549 0.14243 0.0
H33 H 0.30157 0.59003 0.15122 0.0
H34 H 0.25684 0.52589 0.20197 0.0
H35 H 0.18494 0.50106 0.19317 0.0
H36 H 0.94252 0.47761 0.1911 0.0
H37 H 0.86725 0.43423 0.19781 0.0
H38 H 0.84808 0.50866 0.17401 0.0
H39 H 0.92304 0.55171 0.16743 0.0
Ho40 Ho 0.58464 1.00858 0.48697 0.0
Ho41 Ho 0.5423 0.04363 0.48337 0.0
C42 C 0.48306 0.95627 0.47962 0.0
C43 C 0.61061 0.97224 0.49828 0.0
C44 C 0.59718 0.93467 0.50081 0.0
C45 C 0.60766 0.92715 0.51817 0.0
C46 C 0.5997 0.89334 0.52046 0.0
C47 C 0.58111 0.86619 0.50539 0.0
C48 C 0.56948 0.87336 0.48815 0.0
C49 C 0.57738 0.90727 0.48588 0.0
C50 C 0.57683 0.02244 0.45029 0.0
C51 C 0.64504 0.09558 0.48444 0.0
C52 C 0.51748 0.08281 0.47663 0.0
C53 C 0.52444 0.11578 0.48598 0.0
C54 C 0.55159 0.1504 0.4779 0.0
C55 C 0.55813 0.18153 0.48667 0.0
C56 C 0.53758 0.17871 0.50371 0.0
C57 C 0.51014 0.14399 0.51165 0.0
C58 C 0.50362 0.11295 0.50292 0.0
C59 C 0.54911 0.02892 0.51981 0.0
O60 O 0.51492 0.95906 0.48764 0.0
O61 O 0.48882 0.98586 0.47331 0.0
O62 O 0.6142 0.98287 0.48073 0.0
O63 O 0.59497 0.98391 0.50987 0.0
O64 O 0.60899 0.02535 0.4569 0.0
O65 O 0.54975 1.01054 0.4631 0.0
O66 O 0.61085 0.09199 0.47951 0.0
O67 O 0.64244 0.0674 0.4906 0.0
O68 O 0.49561 0.0526 0.48609 0.0
O69 O 0.54966 0.0877 0.46827 0.0
O70 O 0.51701 0.02538 0.51289 0.0
O71 O 0.5773 0.04191 0.50743 0.0
H72 H 0.62323 0.94794 0.52982 0.0
H73 H 0.60962 0.88906 0.53383 0.0
H74 H 0.55465 0.85289 0.47635 0.0
H75 H 0.56884 0.91229 0.47233 0.0
H76 H 0.56789 0.15345 0.46481 0.0
H77 H 0.57972 0.20789 0.48025 0.0
H78 H 0.49316 0.14062 0.52455 0.0
H79 H 0.48211 0.08672 0.50947 0.0
Ho80 Ho 0.62843 0.58599 0.85293 0.0
Ho81 Ho 0.57257 0.50335 0.8558 0.0
C82 C 0.52537 0.54124 0.85757 0.0
C83 C 0.66278 0.65253 0.84287 0.0
C84 C 0.65035 0.67516 0.83638 0.0
C85 C 0.62164 0.66337 0.82091 0.0
C86 C 0.61345 0.68675 0.81397 0.0
C87 C 0.63357 0.72236 0.82239 0.0
C88 C 0.66105 0.73349 0.83832 0.0
C89 C 0.66945 0.71021 0.84517 0.0
C90 C 0.62236 0.56285 0.88847 0.0
C91 C 0.67793 0.55045 0.85518 0.0
C92 C 0.53958 0.43555 0.86249 0.0
C93 C 0.54332 0.40784 0.85346 0.0
C94 C 0.54709 0.38539 0.86494 0.0
C95 C 0.54837 0.35783 0.85648 0.0
C96 C 0.54544 0.35191 0.83635 0.0
C97 C 0.54302 0.37522 0.82491 0.0
C98 C 0.5422 0.40293 0.83333 0.0
C99 C 0.58391 0.52681 0.81947 0.0
O100 O 0.56175 0.56978 0.85074 0.0
O101 O 0.52278 0.51238 0.86324 0.0
O102 O 0.65533 0.64276 0.86072 0.0
O103 O 0.65522 0.62621 0.83099 0.0
O104 O 0.65636 0.59231 0.88197 0.0
O105 O 0.59225 0.54847 0.87635 0.0
O106 O 0.63992 0.51872 0.85815 0.0
O107 O 0.68097 0.58015 0.8511 0.0
O108 O 0.52104 0.44522 0.85206 0.0
O109 O 0.57276 0.46371 0.87192 0.0
O110 O 0.54949 0.4971 0.82528 0.0
O111 O 0.61143 0.54088 0.83275 0.0
H112 H 0.60612 0.63639 0.81391 0.0
H113 H 0.59164 0.67707 0.80186 0.0
H114 H 0.67736 0.76078 0.84505 0.0
H115 H 0.69176 0.71999 0.85708 0.0
H116 H 0.54825 0.38873 0.88048 0.0
H117 H 0.55009 0.34028 0.86569 0.0
H118 H 0.54131 0.37177 0.80937 0.0
H119 H 0.53997 0.4201 0.82404 0.0
C120 C 0.67478 0.12526 0.19095 0.0
C121 C 0.71253 0.13476 0.19903 0.0
C122 C 0.75184 0.19686 0.18713 0.0
C123 C 0.75053 0.17008 0.19712 0.0
C124 C 0.71374 0.18796 0.17997 0.0
C125 C 0.67572 0.15251 0.18177 0.0
U126 U 0.58183 0.03235 0.21219 0.0
O127 O 0.51615 0.99459 0.20129 0.0
O128 O 0.55553 0.97633 0.2008 0.0
C129 C 0.51841 0.96777 0.19686 0.0
C130 C 0.63555 0.08649 0.1899 0.0
C131 C 0.48054 0.92937 0.19957 0.0
C132 C 0.43283 0.8664 0.18593 0.0
C133 C 0.47134 0.90187 0.18595 0.0
C134 C 0.4126 0.88463 0.21387 0.0
C135 C 0.40235 0.85742 0.19959 0.0
C136 C 0.45116 0.92026 0.2138 0.0
C137 C 0.57888 0.02971 0.26899 0.0
C138 C 0.53666 0.02017 0.29677 0.0
C139 C 0.59443 0.01717 0.30011 0.0
C140 C 0.60292 0.02407 0.28059 0.0
C141 C 0.56185 0.01605 0.30859 0.0
C142 C 0.54511 0.02697 0.27723 0.0
C143 C 0.59408 0.04475 0.24969 0.0
O144 O 0.6387 0.06092 0.19485 0.0
O145 O 0.60076 0.08045 0.19577 0.0
O146 O 0.57192 0.05131 0.2395 0.0
O147 O 0.61075 0.03248 0.23917 0.0
H148 H 0.71307 0.11459 0.20626 0.0
H149 H 0.77918 0.17616 0.20308 0.0
H150 H 0.71359 0.20778 0.1721 0.0
H151 H 0.64722 0.14595 0.17528 0.0
H152 H 0.42623 0.84663 0.17458 0.0
H153 H 0.49334 0.9083 0.17471 0.0
H154 H 0.39041 0.87868 0.22489 0.0
H155 H 0.4574 0.9409 0.2245 0.0
H156 H 0.51159 0.01989 0.30278 0.0
H157 H 0.61403 0.01349 0.30865 0.0
H158 H 0.62955 0.02654 0.27477 0.0
H159 H 0.5263 0.03174 0.26883 0.0
C160 C 0.57716 0.6145 0.5737 0.0
C161 C 0.59207 0.64927 0.58133 0.0
C162 C 0.57444 0.66307 0.55126 0.0
C163 C 0.59081 0.67331 0.57026 0.0
C164 C 0.56015 0.62832 0.54348 0.0
C165 C 0.56144 0.60416 0.55464 0.0
U166 U 0.57592 0.53156 0.58523 0.0
O167 O 0.6069 0.52747 0.56036 0.0
O168 O 0.53798 0.4902 0.56161 0.0
C169 C 0.57143 0.49749 0.5531 0.0
C170 C 0.57754 0.58964 0.5863 0.0
C171 C 0.5712 0.4655 0.54942 0.0
C172 C 0.54453 0.40842 0.53137 0.0
C173 C 0.5466 0.43986 0.53423 0.0
C174 C 0.59231 0.42827 0.55867 0.0
C175 C 0.56712 0.40206 0.54367 0.0
C176 C 0.59407 0.45943 0.5616 0.0
C177 C 0.58255 0.51521 0.63849 0.0
C178 C 0.56993 0.49494 0.67126 0.0
C179 C 0.60691 0.55952 0.66548 0.0
C180 C 0.60268 0.55151 0.64561 0.0
C181 C 0.59079 0.53133 0.67854 0.0
C182 C 0.56594 0.48702 0.65143 0.0
C183 C 0.57943 0.5061 0.61773 0.0
O184 O 0.61171 0.5918 0.58621 0.0
O185 O 0.54259 0.55568 0.58677 0.0
O186 O 0.61279 0.52964 0.60773 0.0
O187 O 0.54385 0.49397 0.60899 0.0
H188 H 0.6045 0.65779 0.59598 0.0
H189 H 0.60292 0.70008 0.57659 0.0
H190 H 0.54721 0.6195 0.52893 0.0
H191 H 0.54981 0.57739 0.54849 0.0
H192 H 0.5244 0.38867 0.51983 0.0
H193 H 0.52843 0.44385 0.52477 0.0
H194 H 0.61075 0.42476 0.56823 0.0
H195 H 0.61309 0.47864 0.57353 0.0
H196 H 0.55763 0.47265 0.6809 0.0
H197 H 0.62272 0.58775 0.67063 0.0
H198 H 0.61547 0.57367 0.63583 0.0
H199 H 0.55036 0.45884 0.6462 0.0
C200 C 0.99768 0.53885 0.8736 0.0
C201 C 1.00264 0.57075 0.88039 0.0
C202 C 0.92891 0.54529 0.87089 0.0
C203 C 0.96937 0.57376 0.87919 0.0
C204 C 0.92355 0.51288 0.8646 0.0
C205 C 0.957 0.50988 0.86582 0.0
U206 U 0.09364 0.53571 0.88991 0.0
O207 O 0.11608 0.50593 0.87588 0.0
O208 O 0.15783 0.56567 0.87782 0.0
C209 C 0.15426 0.53596 0.87275 0.0
C210 C 1.03542 0.53763 0.87193 0.0
C211 C 0.19314 0.53636 0.87474 0.0
C212 C 0.27082 0.57115 0.87777 0.0
C213 C 0.23409 0.56931 0.87895 0.0
C214 C 0.22823 0.50693 0.8685 0.0
C215 C 0.26937 0.54029 0.87212 0.0
C216 C 0.19129 0.50512 0.86964 0.0
C217 C 0.08935 0.53198 0.94898 0.0
C218 C 0.11223 0.5623 0.98112 0.0
C219 C 0.06262 0.49593 0.97775 0.0
C220 C 0.06374 0.49786 0.95767 0.0
C221 C 0.08716 0.52806 0.98982 0.0
C222 C 0.11336 0.56422 0.96096 0.0
C223 C 0.09114 0.53365 0.92759 0.0
O224 O 0.07348 0.56686 0.87734 0.0
O225 O 1.03047 0.50715 0.87515 0.0
O226 O 0.07014 0.50379 0.91618 0.0
O227 O 0.11366 0.56478 0.91867 0.0
H228 H 1.03287 0.59413 0.88634 0.0
H229 H 0.97591 0.59911 0.88477 0.0
H230 H 0.89379 0.49006 0.858 0.0
H231 H 0.95123 0.48493 0.86001 0.0
H232 H 0.30087 0.59751 0.88118 0.0
H233 H 0.23813 0.59439 0.88271 0.0
H234 H 0.22449 0.48227 0.86399 0.0
H235 H 0.16106 0.47915 0.86585 0.0
H236 H 0.13181 0.58763 0.98986 0.0
H237 H 1.04228 0.46908 0.98382 0.0
H238 H 1.04457 0.47247 0.94893 0.0
H239 H 0.13342 0.59098 0.95478 0.0
C240 C 0.96505 0.42259 0.45078 0.0
C241 C 0.96729 0.395 0.44328 0.0
C242 C 0.89722 0.3467 0.45519 0.0
C243 C 0.93377 0.35759 0.44539 0.0
C244 C 0.8942 0.37435 0.46173 0.0
C245 C 0.92768 0.41171 0.45959 0.0
U246 U 0.06537 0.5253 0.43913 0.0
O247 O 0.12441 0.55618 0.45662 0.0
O248 O 0.08472 0.57387 0.45726 0.0
C249 C 0.12056 0.58131 0.4628 0.0
C250 C 1.00312 0.46188 0.45303 0.0
C251 C 0.15851 0.62019 0.46187 0.0
C252 C 0.22073 0.67515 0.47799 0.0
C253 C 0.18604 0.6377 0.47796 0.0
C254 C 0.20151 0.67803 0.44557 0.0
C255 C 0.2286 0.69604 0.4619 0.0
C256 C 0.16687 0.64053 0.44555 0.0
C257 C 0.06293 0.52222 0.38177 0.0
C258 C 0.08537 0.52257 0.34917 0.0
C259 C 1.01434 0.50159 0.35439 0.0
C260 C 1.02286 0.50806 0.37432 0.0
C261 C 1.04588 0.50964 0.34156 0.0
C262 C 0.09372 0.52874 0.369 0.0
C263 C 0.07612 0.53593 0.40203 0.0
O264 O 1.04013 0.47047 0.44901 0.0
O265 O 0.99998 0.48798 0.44929 0.0
O266 O 1.05318 0.54185 0.41238 0.0
O267 O 0.09307 0.524 0.41198 0.0
H268 H 0.99563 0.40225 0.43653 0.0
H269 H 0.93705 0.33719 0.43978 0.0
H270 H 0.86695 0.36732 0.46949 0.0
H271 H 0.92521 0.43226 0.46584 0.0
H272 H 0.24051 0.688 0.49088 0.0
H273 H 0.18019 0.62254 0.49073 0.0
H274 H 0.20688 0.69299 0.43279 0.0
H275 H 0.14626 0.62758 0.4329 0.0
H276 H 0.11012 0.52843 0.33975 0.0
H277 H 0.98361 0.49169 0.34899 0.0
H278 H 0.99861 0.50316 0.38378 0.0
H279 H 0.12501 0.54004 0.37434 0.0
C280 C 0.59993 0.97274 0.7854 0.0
C281 C 0.58111 0.94344 0.77157 0.0
C282 C 0.60641 0.91497 0.78912 0.0
C283 C 0.58406 0.91485 0.77346 0.0
C284 C 0.62511 0.94438 0.80301 0.0
C285 C 0.62186 0.97292 0.80116 0.0
U286 U 0.59064 0.0326 0.75325 0.0
O287 O 0.54951 0.04905 0.75421 0.0
O288 O 0.61812 0.09158 0.75532 0.0
C289 C 0.58102 0.08445 0.75608 0.0
C290 C 0.59702 1.00314 0.78335 0.0
C291 C 0.57589 0.10749 0.76951 0.0
C292 C 0.52892 0.11802 0.78455 0.0
C293 C 0.53567 0.09417 0.77577 0.0
C294 C 0.60286 0.16887 0.78226 0.0
C295 C 0.5621 0.15591 0.78731 0.0
C296 C 0.60962 0.14499 0.77334 0.0
C297 C 0.58606 1.007 0.69837 0.0
C298 C 0.59062 0.03797 0.66963 0.0
C299 C 0.56449 0.97448 0.66708 0.0
C300 C 0.57043 0.97519 0.6869 0.0
C301 C 0.574 1.00565 0.65818 0.0
C302 C 0.59646 0.03861 0.68963 0.0
C303 C 0.59092 1.00557 0.71927 0.0
O304 O 0.62968 0.03301 0.77579 0.0
O305 O 0.56091 0.99334 0.77636 0.0
O306 O 0.55687 0.9911 0.72936 0.0
O307 O 0.62518 0.03417 0.72811 0.0
H308 H 0.56405 0.9426 0.75924 0.0
H309 H 0.56849 0.89249 0.76264 0.0
H310 H 0.643 0.94581 0.81513 0.0
H311 H 0.63677 0.9953 0.81199 0.0
H312 H 0.4972 0.10702 0.78848 0.0
H313 H 0.50878 0.06563 0.77297 0.0
H314 H 0.62907 0.1979 0.78407 0.0
H315 H 0.64089 0.15636 0.76847 0.0
H316 H 0.59803 0.06236 0.66321 0.0
H317 H 0.55228 0.94933 0.6587 0.0
H318 H 0.56253 0.9506 0.69332 0.0
H319 H 0.60864 0.06352 0.69824 0.0
C320 C 0.52669 0.38736 0.13937 0.0
C321 C 0.54354 0.37201 0.12961 0.0
C322 C 0.56955 0.36755 0.16002 0.0
C323 C 0.56474 0.36203 0.13988 0.0
C324 C 0.54928 0.37984 0.1698 0.0
C325 C 0.52808 0.38979 0.15951 0.0
U326 U 0.51787 0.42397 0.09303 0.0
O327 O 0.47296 0.43361 0.08398 0.0
O328 O 0.54009 0.48 0.0879 0.0
C329 C 0.50167 0.46963 0.08569 0.0
C330 C 0.51479 0.40685 0.12886 0.0
C331 C 0.49106 0.48934 0.09832 0.0
C332 C 0.51128 0.53676 0.12308 0.0
C333 C 0.52224 0.52045 0.10988 0.0
C334 C 0.43808 0.4921 0.11292 0.0
C335 C 0.469 0.52222 0.12499 0.0
C336 C 0.44902 0.47593 0.09967 0.0
C337 C 0.548 0.40907 0.04495 0.0
C338 C 0.53969 0.43577 0.01767 0.0
C339 C 0.58752 0.42027 0.01609 0.0
C340 C 0.57672 0.40724 0.03467 0.0
C341 C 0.56971 0.43533 0.00756 0.0
C342 C 0.5291 0.42293 0.03624 0.0
C343 C 0.54132 0.40051 0.06536 0.0
O344 O 0.54696 0.43764 0.12182 0.0
O345 O 0.48251 0.38691 0.11669 0.0
O346 O 0.50207 0.38166 0.07084 0.0
O347 O 0.5682 0.42866 0.07715 0.0
H348 H 0.54302 0.37032 0.11402 0.0
H349 H 0.58046 0.35309 0.13192 0.0
H350 H 0.55233 0.38416 0.18531 0.0
H351 H 0.51534 0.40176 0.16723 0.0
H352 H 0.53568 0.56008 0.13215 0.0
H353 H 0.55505 0.53179 0.10909 0.0
H354 H 0.40532 0.48094 0.11378 0.0
H355 H 0.42443 0.45242 0.09075 0.0
H356 H 0.52593 0.44772 0.01161 0.0
H357 H 0.61056 0.4194 0.00858 0.0
H358 H 0.59185 0.39691 0.04126 0.0
H359 H 0.50734 0.42513 0.04409 0.0
H360 H 0.29588 0.50863 0.18287 0.0
H361 H 0.36438 0.62497 0.17434 0.0
H362 H 0.42833 0.63052 0.16738 0.0
H363 H 0.39093 0.51269 0.20003 0.0
H364 H 0.36905 0.47004 0.18657 0.0
H365 H 0.33462 0.47799 0.19783 0.0
H366 H 0.29654 0.46433 0.16495 0.0
H367 H 0.33119 0.45734 0.15347 0.0
H368 H 0.32656 0.49121 0.14475 0.0
H369 H 0.47665 0.62011 0.15271 0.0
H370 H 0.50494 0.59502 0.13233 0.0
H371 H 0.40444 0.48504 0.14967 0.0
C372 C 0.32507 0.53572 0.18076 0.0
C373 C 0.3255 0.56646 0.17935 0.0
C374 C 0.36367 0.60118 0.17563 0.0
C375 C 0.40013 0.60456 0.17175 0.0
C376 C 0.39782 0.57299 0.17177 0.0
C377 C 0.36131 0.53925 0.17653 0.0
C378 C 0.36373 0.50822 0.17173 0.0
C379 C 0.36466 0.49125 0.19014 0.0
C380 C 0.3274 0.47861 0.1579 0.0
C381 C 0.40567 0.52927 0.16203 0.0
C382 C 0.42561 0.56673 0.16277 0.0
C383 C 0.46204 0.59102 0.15257 0.0
C384 C 0.47783 0.57656 0.14098 0.0
C385 C 0.45668 0.53815 0.13947 0.0
C386 C 0.42114 0.51454 0.15065 0.0
H387 H 0.66389 0.1617 0.474 0.0
H388 H 0.72244 0.11129 0.48913 0.0
H389 H 0.79233 0.16941 0.48323 0.0
H390 H 0.73213 0.21463 0.43592 0.0
H391 H 0.73403 0.25424 0.44153 0.0
H392 H 0.68844 0.20905 0.44748 0.0
H393 H 0.69659 0.23143 0.48306 0.0
H394 H 0.74211 0.27678 0.47724 0.0
H395 H 0.74598 0.25264 0.49584 0.0
H396 H 0.85604 0.23248 0.47469 0.0
H397 H 0.90913 0.29661 0.46572 0.0
H398 H 0.81011 0.30701 0.45597 0.0
C399 C 0.6914 0.16289 0.47622 0.0
C400 C 0.68738 0.13163 0.48207 0.0
C401 C 0.7244 0.13464 0.48475 0.0
C402 C 0.76436 0.16761 0.48137 0.0
C403 C 0.76713 0.19766 0.47541 0.0
C404 C 0.73169 0.19575 0.47301 0.0
C405 C 0.74354 0.23217 0.46649 0.0
C406 C 0.72333 0.22721 0.44667 0.0
C407 C 0.73133 0.24926 0.48156 0.0
C408 C 0.79111 0.25469 0.46537 0.0
C409 C 0.80397 0.23417 0.47058 0.0
C410 C 0.84628 0.24876 0.47056 0.0
C411 C 0.87626 0.28526 0.46524 0.0
C412 C 0.86416 0.30718 0.45991 0.0
C413 C 0.82073 0.29135 0.46003 0.0
H414 H 0.62307 0.77039 0.84119 0.0
H415 H 0.6321 0.73416 0.78426 0.0
H416 H 0.6258 0.77885 0.76981 0.0
H417 H 0.54667 0.78466 0.82774 0.0
H418 H 0.56963 0.82482 0.84364 0.0
H419 H 0.57413 0.7895 0.84956 0.0
H420 H 0.65527 0.83817 0.85217 0.0
H421 H 0.65104 0.87361 0.84616 0.0
H422 H 0.68336 0.86643 0.83208 0.0
H423 H 0.62162 0.82916 0.7615 0.0
H424 H 0.61627 0.87953 0.75966 0.0
H425 H 0.60734 0.88245 0.82185 0.0
C426 C 0.62373 0.77187 0.82568 0.0
C427 C 0.62793 0.74853 0.81387 0.0
C428 C 0.62829 0.75123 0.79362 0.0
C429 C 0.62502 0.77676 0.78527 0.0
C430 C 0.62115 0.79941 0.79731 0.0
C431 C 0.62015 0.79708 0.81707 0.0
C432 C 0.61545 0.8246 0.82666 0.0
C433 C 0.574 0.8047 0.83754 0.0
C434 C 0.65356 0.85235 0.84006 0.0
C435 C 0.61445 0.84302 0.80922 0.0
C436 C 0.61787 0.82805 0.79246 0.0
C437 C 0.61842 0.8408 0.77452 0.0
C438 C 0.61504 0.86935 0.77363 0.0
C439 C 0.61079 0.88496 0.79056 0.0
C440 C 0.61075 0.8715 0.8086 0.0
H441 H 0.79873 0.48147 0.20046 0.0
H442 H 0.80145 0.39437 0.17697 0.0
H443 H 0.72385 0.35247 0.17446 0.0
H444 H 0.69355 0.42025 0.22554 0.0
H445 H 0.68028 0.44962 0.21887 0.0
H446 H 0.73445 0.46902 0.22382 0.0
H447 H 0.75467 0.49759 0.19035 0.0
H448 H 0.70089 0.47833 0.1853 0.0
H449 H 0.7279 0.46809 0.16911 0.0
H450 H 0.64922 0.32585 0.1671 0.0
H451 H 0.58453 0.31663 0.15641 0.0
H452 H 0.63039 0.42095 0.18477 0.0
C453 C 0.78283 0.45317 0.19541 0.0
C454 C 0.80593 0.44106 0.18893 0.0
C455 C 0.78426 0.40399 0.18228 0.0
C456 C 0.74015 0.38002 0.1808 0.0
C457 C 0.71827 0.39343 0.18635 0.0
C458 C 0.73895 0.42906 0.19382 0.0
C459 C 0.70928 0.43874 0.19601 0.0
C460 C 0.70408 0.44475 0.21733 0.0
C461 C 0.72406 0.47264 0.1845 0.0
C462 C 0.6693 0.40393 0.18738 0.0
C463 C 0.67475 0.37774 0.18228 0.0
C464 C 0.64407 0.34558 0.1716 0.0
C465 C 0.60753 0.34062 0.16551 0.0
C466 C 0.60217 0.36776 0.17007 0.0
C467 C 0.63284 0.39906 0.18171 0.0
H468 H 0.45786 0.88701 0.48866 0.0
H469 H 0.41373 0.94202 0.46176 0.0
H470 H 0.34533 0.88211 0.45431 0.0
H471 H 0.4059 0.80837 0.4551 0.0
H472 H 0.39243 0.77573 0.47306 0.0
H473 H 0.43839 0.82304 0.47661 0.0
H474 H 0.41028 0.82754 0.50919 0.0
H475 H 0.36427 0.78021 0.50578 0.0
H476 H 0.3585 0.81583 0.51002 0.0
H477 H 0.28179 0.81668 0.44927 0.0
H478 H 0.22613 0.74955 0.44783 0.0
H479 H 0.30965 0.73516 0.47776 0.0
C480 C 0.43376 0.88646 0.48126 0.0
C481 C 0.44148 0.91952 0.47582 0.0
C482 C 0.40893 0.91735 0.46613 0.0
C483 C 0.3698 0.88333 0.46178 0.0
C484 C 0.36329 0.85139 0.46722 0.0
C485 C 0.39419 0.85251 0.47681 0.0
C486 C 0.37857 0.8138 0.481 0.0
C487 C 0.40542 0.80471 0.47083 0.0
C488 C 0.37786 0.80908 0.50279 0.0
C489 C 0.33417 0.79091 0.47224 0.0
C490 C 0.32622 0.81328 0.46433 0.0
C491 C 0.28768 0.79884 0.45536 0.0
C492 C 0.25629 0.76053 0.45448 0.0
C493 C 0.26331 0.73675 0.46253 0.0
C494 C 0.303 0.75242 0.47155 0.0
H495 H 0.59412 0.32897 0.84338 0.0
H496 H 0.48857 0.3028 0.80865 0.0
H497 H 0.4813 0.25006 0.79308 0.0
H498 H 0.6389 0.30657 0.806 0.0
H499 H 0.65508 0.28709 0.82199 0.0
H500 H 0.65172 0.3225 0.83091 0.0
H501 H 0.60125 0.27982 0.85724 0.0
H502 H 0.6044 0.24425 0.84838 0.0
H503 H 0.55384 0.23472 0.85037 0.0
H504 H 0.48414 0.19976 0.78155 0.0
H505 H 0.49937 0.1565 0.77327 0.0
H506 H 0.60473 0.21491 0.81433 0.0
C507 C 0.56939 0.31198 0.83257 0.0
C508 C 0.54193 0.32015 0.82721 0.0
C509 C 0.51024 0.29742 0.81285 0.0
C510 C 0.5057 0.26724 0.80399 0.0
C511 C 0.53325 0.26002 0.8095 0.0
C512 C 0.5647 0.2818 0.82333 0.0
C513 C 0.59068 0.26823 0.8261 0.0
C514 C 0.63683 0.29787 0.82094 0.0
C515 C 0.58733 0.25603 0.84675 0.0
C516 C 0.56882 0.23548 0.81167 0.0
C517 C 0.53554 0.2312 0.80243 0.0
C518 C 0.51009 0.20281 0.78869 0.0
C519 C 0.51886 0.17819 0.78418 0.0
C520 C 0.55303 0.182 0.79322 0.0
C521 C 0.57844 0.21126 0.80713 0.0
H522 H 0.55564 0.82393 0.53711 0.0
H523 H 0.59636 0.83049 0.47855 0.0
H524 H 0.59419 0.77625 0.48298 0.0
H525 H 0.6173 0.8024 0.55778 0.0
H526 H 0.57855 0.77132 0.57471 0.0
H527 H 0.57914 0.80817 0.56627 0.0
H528 H 0.50113 0.76116 0.55476 0.0
H529 H 0.50023 0.72412 0.56326 0.0
H530 H 0.4859 0.72309 0.53857 0.0
H531 H 0.59307 0.724 0.49487 0.0
H532 H 0.59243 0.6784 0.51306 0.0
H533 H 0.55232 0.70641 0.56367 0.0
C534 C 0.5638 0.81383 0.52515 0.0
C535 C 0.57605 0.8315 0.50745 0.0
C536 C 0.58621 0.81714 0.49214 0.0
C537 C 0.58529 0.78643 0.49456 0.0
C538 C 0.57387 0.77016 0.51233 0.0
C539 C 0.56303 0.78326 0.52731 0.0
C540 C 0.55371 0.76199 0.54523 0.0
C541 C 0.58399 0.7875 0.56198 0.0
C542 C 0.50749 0.74137 0.55077 0.0
C543 C 0.56206 0.73549 0.53819 0.0
C544 C 0.57329 0.74033 0.51913 0.0
C545 C 0.58385 0.71973 0.50974 0.0
C546 C 0.58323 0.69376 0.52017 0.0
C547 C 0.57239 0.68877 0.53982 0.0
C548 C 0.56118 0.70974 0.54875 0.0
H549 H 0.69202 0.49656 0.86108 0.0
H550 H 0.75949 0.61328 0.85328 0.0
H551 H 0.82671 0.62317 0.85627 0.0
H552 H 0.76709 0.50636 0.89601 0.0
H553 H 0.76334 0.46737 0.88655 0.0
H554 H 0.71937 0.46829 0.88378 0.0
H555 H 0.71888 0.45816 0.84703 0.0
H556 H 0.76284 0.45718 0.84967 0.0
H557 H 0.76628 0.48923 0.83399 0.0
H558 H 0.88918 0.62204 0.86033 0.0
H559 H 0.94026 0.60999 0.86451 0.0
H560 H 0.83759 0.49377 0.86985 0.0
C561 C 0.72088 0.52425 0.85995 0.0
C562 C 0.71902 0.55411 0.85684 0.0
C563 C 0.75852 0.5896 0.85554 0.0
C564 C 0.79753 0.59563 0.85727 0.0
C565 C 0.79823 0.56607 0.86029 0.0
C566 C 0.76094 0.5309 0.86155 0.0
C567 C 0.77152 0.50418 0.8647 0.0
C568 C 0.75429 0.48543 0.8839 0.0
C569 C 0.75381 0.47547 0.84785 0.0
C570 C 0.82026 0.52981 0.86517 0.0
C571 C 0.83462 0.56541 0.86259 0.0
C572 C 0.87791 0.59419 0.86248 0.0
C573 C 0.90719 0.58692 0.8651 0.0
C574 C 0.89453 0.5509 0.86798 0.0
C575 C 0.8496 0.52184 0.86778 0.0
H576 H 0.22495 0.64053 0.17252 0.0
H577 H 0.13254 0.65781 0.18649 0.0
H578 H 0.18949 0.72279 0.19514 0.0
H579 H 0.30069 0.70113 0.21055 0.0
H580 H 0.34617 0.71885 0.19606 0.0
H581 H 0.29828 0.67307 0.19093 0.0
H582 H 0.29744 0.68955 0.15588 0.0
H583 H 0.34538 0.73535 0.16086 0.0
H584 H 0.29944 0.729 0.15145 0.0
H585 H 0.25547 0.78588 0.20233 0.0
H586 H 0.327 0.84416 0.20647 0.0
H587 H 0.37885 0.78807 0.18836 0.0
C588 C 0.21671 0.65799 0.17739 0.0
C589 C 0.17392 0.64369 0.17879 0.0
C590 C 0.16477 0.66773 0.1852 0.0
C591 C 0.19701 0.70485 0.19023 0.0
C592 C 0.23861 0.718 0.18876 0.0
C593 C 0.24873 0.69549 0.18242 0.0
C594 C 0.29634 0.71721 0.18194 0.0
C595 C 0.31123 0.70163 0.19569 0.0
C596 C 0.31047 0.71781 0.1613 0.0
C597 C 0.31112 0.75526 0.18904 0.0
C598 C 0.27715 0.75489 0.19292 0.0
C599 C 0.28238 0.78651 0.19945 0.0
C600 C 0.32336 0.81955 0.20195 0.0
C601 C 0.35906 0.82108 0.19798 0.0
C602 C 0.35251 0.78818 0.19148 0.0
H603 H 0.54422 0.23535 0.48672 0.0
H604 H 0.54654 0.19671 0.54235 0.0
H605 H 0.55444 0.24943 0.55843 0.0
H606 H 0.62243 0.33316 0.49933 0.0
H607 H 0.59617 0.34632 0.48536 0.0
H608 H 0.59133 0.30577 0.4782 0.0
H609 H 0.51005 0.26669 0.47885 0.0
H610 H 0.51463 0.30704 0.48615 0.0
H611 H 0.48555 0.26702 0.50051 0.0
H612 H 0.5596 0.30493 0.56855 0.0
H613 H 0.56404 0.36071 0.57212 0.0
H614 H 0.56168 0.36535 0.50991 0.0
C615 C 0.54695 0.23821 0.50227 0.0
C616 C 0.54447 0.21165 0.51325 0.0
C617 C 0.54762 0.21627 0.53361 0.0
C618 C 0.55237 0.24627 0.54288 0.0
C619 C 0.55415 0.27161 0.53164 0.0
C620 C 0.55181 0.26808 0.51179 0.0
C621 C 0.55418 0.2991 0.50313 0.0
C622 C 0.59336 0.32247 0.49078 0.0
C623 C 0.51369 0.28405 0.49148 0.0
C624 C 0.55797 0.32048 0.52123 0.0
C625 C 0.55786 0.30408 0.5375 0.0
C626 C 0.56021 0.31826 0.55591 0.0
C627 C 0.56301 0.35018 0.55777 0.0
C628 C 0.56371 0.36789 0.54132 0.0
C629 C 0.561 0.35254 0.52281 0.0
H630 H 0.43764 0.4899 0.86917 0.0
H631 H 0.52833 0.60033 0.84903 0.0
H632 H 0.47509 0.61023 0.85051 0.0
H633 H 0.34577 0.47133 0.84272 0.0
H634 H 0.3089 0.44646 0.86155 0.0
H635 H 0.35375 0.44662 0.85921 0.0
H636 H 0.37638 0.47121 0.89444 0.0
H637 H 0.3316 0.47111 0.89688 0.0
H638 H 0.38396 0.51282 0.90217 0.0
H639 H 0.41232 0.61039 0.8541 0.0
H640 H 0.34556 0.60023 0.85909 0.0
H641 H 0.28913 0.48973 0.87701 0.0
C642 C 0.44643 0.5162 0.86505 0.0
C643 C 0.48876 0.54426 0.85894 0.0
C644 C 0.49733 0.57796 0.85376 0.0
C645 C 0.46681 0.58407 0.85456 0.0
C646 C 0.42616 0.55639 0.86054 0.0
C647 C 0.41556 0.52293 0.86567 0.0
C648 C 0.36877 0.49812 0.87144 0.0
C649 C 0.34275 0.46356 0.85793 0.0
C650 C 0.36495 0.48768 0.89249 0.0
C651 C 0.35522 0.52292 0.86886 0.0
C652 C 0.38931 0.55644 0.86257 0.0
C653 C 0.38565 0.58421 0.85915 0.0
C654 C 0.34698 0.57814 0.86226 0.0
C655 C 0.31062 0.54435 0.86888 0.0
C656 C 0.3154 0.51612 0.872 0.0
H657 H 0.92051 0.41573 0.17517 0.0
H658 H 1.00727 0.3952 0.15525 0.0
H659 H 0.95289 0.32879 0.15922 0.0
H660 H 0.87129 0.34785 0.21097 0.0
H661 H 0.81936 0.33448 0.20635 0.0
H662 H 0.86516 0.38045 0.20172 0.0
H663 H 0.83928 0.37181 0.16602 0.0
H664 H 0.79303 0.32643 0.17137 0.0
H665 H 0.8258 0.33228 0.15177 0.0
H666 H 0.89071 0.26501 0.16666 0.0
H667 H 0.82277 0.20714 0.17487 0.0
H668 H 0.77429 0.2674 0.18923 0.0
C669 C 0.92799 0.39727 0.1715 0.0
C670 C 0.96839 0.41093 0.16487 0.0
C671 C 0.97669 0.38564 0.16026 0.0
C672 C 0.94598 0.34777 0.16254 0.0
C673 C 0.9068 0.3353 0.1693 0.0
C674 C 0.89746 0.35916 0.17353 0.0
C675 C 0.85259 0.33829 0.18042 0.0
C676 C 0.85208 0.35102 0.20109 0.0
C677 C 0.82607 0.34243 0.16658 0.0
C678 C 0.83838 0.29906 0.17958 0.0
C679 C 0.87035 0.29813 0.17322 0.0
C680 C 0.8654 0.26538 0.1716 0.0
C681 C 0.82672 0.23263 0.17645 0.0
C682 C 0.79311 0.23257 0.18281 0.0
C683 C 0.7992 0.26641 0.18432 0.0
H684 H 0.0818 0.58027 0.10125 0.0
H685 H 0.07573 0.48612 0.11565 0.0
H686 H 0.08097 0.47439 0.08125 0.0
H687 H 1.01908 0.54027 0.05803 0.0
H688 H 1.04937 0.58202 0.04502 0.0
H689 H 1.04748 0.58443 0.07085 0.0
H690 H 0.12892 0.62598 0.07329 0.0
H691 H 0.13105 0.62378 0.04744 0.0
H692 H 0.15624 0.61037 0.06204 0.0
H693 H 0.08404 0.47123 0.04518 0.0
H694 H 0.08584 0.47728 0.01009 0.0
H695 H 0.089 0.57306 0.01842 0.0
C696 C 0.08207 0.55745 0.09716 0.0
C697 C 0.07841 0.53411 0.1112 0.0
C698 C 0.07854 0.50438 0.10522 0.0
C699 C 0.0815 0.4975 0.08568 0.0
C700 C 0.08446 0.52064 0.07218 0.0
C701 C 0.08497 0.55013 0.07764 0.0
C702 C 0.08739 0.57016 0.06011 0.0
C703 C 1.04851 0.56914 0.05841 0.0
C704 C 0.12834 0.60994 0.06076 0.0
C705 C 0.08762 0.54704 0.04397 0.0
C706 C 0.08606 0.51871 0.05131 0.0
C707 C 0.08527 0.49333 0.03929 0.0
C708 C 0.08597 0.49686 0.0193 0.0
C709 C 0.08727 0.52549 0.01128 0.0
C710 C 0.0884 0.55104 0.02395 0.0
H711 H 0.63149 0.0509 0.42031 0.0
H712 H 0.49908 0.98737 0.43346 0.0
H713 H 0.48082 0.97851 0.3988 0.0
H714 H 0.62593 0.09694 0.37987 0.0
H715 H 0.66399 0.0968 0.36619 0.0
H716 H 0.66661 0.09857 0.3921 0.0
H717 H 0.66365 0.04061 0.39103 0.0
H718 H 0.66061 0.03844 0.36513 0.0
H719 H 0.62058 0.99916 0.3783 0.0
H720 H 0.47654 0.97367 0.36263 0.0
H721 H 0.48693 0.97724 0.32759 0.0
H722 H 0.62235 0.0469 0.33778 0.0
C723 C 0.59872 0.03534 0.41585 0.0
C724 C 0.56669 0.01969 0.42955 0.0
C725 C 0.52416 0.9997 0.42322 0.0
C726 C 0.51344 0.99439 0.40355 0.0
C727 C 0.54566 1.00974 0.39036 0.0
C728 C 0.58749 0.03028 0.39623 0.0
C729 C 0.61599 0.04435 0.37908 0.0
C730 C 0.64483 0.08668 0.37933 0.0
C731 C 0.64171 0.02975 0.37835 0.0
C732 C 0.58359 0.02766 0.36267 0.0
C733 C 0.54323 1.00783 0.36951 0.0
C734 C 0.50805 0.98948 0.35711 0.0
C735 C 0.5143 0.99179 0.3372 0.0
C736 C 0.55544 0.01242 0.32979 0.0
C737 C 0.59043 0.03045 0.34284 0.0
H738 H 0.52938 0.49034 0.7887 0.0
H739 H 0.65787 0.58401 0.80415 0.0
H740 H 0.67239 0.59816 0.76979 0.0
H741 H 0.55435 0.46123 0.74718 0.0
H742 H 0.50801 0.44656 0.73348 0.0
H743 H 0.50681 0.44595 0.75933 0.0
H744 H 0.48296 0.48715 0.76022 0.0
H745 H 0.48402 0.48785 0.73434 0.0
H746 H 0.51405 0.53049 0.74862 0.0
H747 H 0.6735 0.60017 0.73346 0.0
H748 H 0.6621 0.58858 0.69823 0.0
H749 H 0.53321 0.49267 0.70668 0.0
C750 C 0.56043 0.51411 0.78487 0.0
C751 C 0.5924 0.53641 0.79908 0.0
C752 C 0.63278 0.56693 0.7935 0.0
C753 C 0.64131 0.57511 0.77402 0.0
C754 C 0.60914 0.55237 0.76033 0.0
C755 C 0.56953 0.52243 0.76552 0.0
C756 C 0.54115 0.50107 0.748 0.0
C757 C 0.52676 0.46136 0.74694 0.0
C758 C 0.50331 0.50169 0.74779 0.0
C759 C 0.5711 0.52337 0.73211 0.0
C760 C 0.61003 0.55307 0.73949 0.0
C761 C 0.64304 0.57715 0.72754 0.0
C762 C 0.63621 0.57045 0.70754 0.0
C763 C 0.59676 0.53975 0.69967 0.0
C764 C 0.56379 0.51622 0.71222 0.0
H765 H 0.61177 0.06725 0.54821 0.0
H766 H 0.48701 0.96564 0.53531 0.0
H767 H 0.48142 0.94808 0.56892 0.0
H768 H 0.64477 0.03102 0.58418 0.0
H769 H 0.67133 0.07214 0.59963 0.0
H770 H 0.66793 0.07498 0.57402 0.0
H771 H 0.63375 0.10729 0.57991 0.0
H772 H 0.63652 0.10412 0.6055 0.0
H773 H 0.58667 0.08506 0.59376 0.0
H774 H 0.48654 0.94304 0.60383 0.0
H775 H 0.50267 0.94989 0.63856 0.0
H776 H 0.62343 0.05581 0.63033 0.0
C777 C 0.58392 0.04089 0.55244 0.0
C778 C 0.55003 0.01736 0.53918 0.0
C779 C 0.51339 0.98372 0.54527 0.0
C780 C 0.50992 0.97357 0.56432 0.0
C781 C 0.54319 0.99765 0.57723 0.0
C782 C 0.57959 0.03059 0.57165 0.0
C783 C 0.60917 0.05237 0.58892 0.0
C784 C 0.65077 0.05795 0.58654 0.0
C785 C 0.61698 0.0894 0.59221 0.0
C786 C 0.58354 0.02657 0.60498 0.0
C787 C 0.54573 0.99512 0.59778 0.0
C788 C 0.51623 0.96736 0.60963 0.0
C789 C 0.52576 0.97148 0.62936 0.0
C790 C 0.56447 1.00319 0.6372 0.0
C791 C 0.59355 0.0313 0.6248 0.0
H792 H 0.55372 0.50634 0.90736 0.0
H793 H 0.69038 0.58048 0.90876 0.0
H794 H 0.69133 0.55225 0.93798 0.0
H795 H 0.54261 0.50995 0.95795 0.0
H796 H 0.49738 0.46227 0.95908 0.0
H797 H 0.50722 0.48627 0.93738 0.0
H798 H 0.50625 0.43654 0.91794 0.0
H799 H 0.49649 0.41236 0.9396 0.0
H800 H 0.54096 0.42623 0.92519 0.0
H801 H 0.67807 0.51806 0.96737 0.0
H802 H 0.65127 0.48238 0.99664 0.0
H803 H 0.52305 0.43084 0.97699 0.0
C804 C 0.58374 0.51635 0.9138 0.0
C805 C 0.62198 0.5455 0.90589 0.0
C806 C 0.66074 0.55823 0.9147 0.0
C807 C 0.66162 0.54225 0.93121 0.0
C808 C 0.62346 0.51369 0.93877 0.0
C809 C 0.58521 0.50095 0.93048 0.0
C810 C 0.54888 0.47134 0.94221 0.0
C811 C 0.52248 0.48318 0.94959 0.0
C812 C 0.52153 0.43443 0.93054 0.0
C813 C 0.5728 0.46994 0.95852 0.0
C814 C 0.61575 0.49424 0.95606 0.0
C815 C 0.64449 0.49867 0.96941 0.0
C816 C 0.62896 0.4781 0.98592 0.0
C817 C 0.58511 0.45365 0.98902 0.0
C818 C 0.55674 0.44931 0.97499 0.0
H819 H 0.10897 0.56101 0.2319 0.0
H820 H 0.9921 0.45482 0.21536 0.0
H821 H 0.97096 0.44491 0.24939 0.0
H822 H 0.12784 0.53117 0.27289 0.0
H823 H 0.15098 0.57295 0.28744 0.0
H824 H 0.15397 0.57464 0.26165 0.0
H825 H 0.11866 0.60654 0.2614 0.0
H826 H 0.11598 0.60535 0.28725 0.0
H827 H 0.06882 0.58534 0.2728 0.0
H828 H 0.96526 0.44438 0.28548 0.0
H829 H 0.97629 0.45234 0.32085 0.0
H830 H 0.09859 0.55758 0.31414 0.0
C831 C 0.07833 0.53636 0.23547 0.0
C832 C 1.05148 0.50905 0.22111 0.0
C833 C 1.01252 0.47628 0.22624 0.0
C834 C 1.00035 0.47044 0.24549 0.0
C835 C 1.02789 0.49745 0.25949 0.0
C836 C 0.06612 0.52977 0.25473 0.0
C837 C 0.09174 0.55257 0.27266 0.0
C838 C 0.1336 0.55814 0.27371 0.0
C839 C 0.09923 0.58965 0.27358 0.0
C840 C 0.06229 0.52783 0.2882 0.0
C841 C 1.02539 0.49641 0.28031 0.0
C842 C 0.9939 0.46904 0.29182 0.0
C843 C 1.00038 0.47381 0.3119 0.0
C844 C 1.03829 0.50549 0.3203 0.0
C845 C 0.0694 0.53289 0.30819 0.0
loop_
_geom_bond_atom_site_label_1
_geom_bond_atom_site_label_2
_geom_bond_distance
_geom_bond_site_symmetry_2
_ccdc_geom_bond_type
Ho0 C3 2.811 . S
Ho0 O20 2.322 . S
Ho0 O22 2.378 . S
Ho0 O23 2.524 . S
Ho0 O24 2.381 . S
Ho0 O25 2.669 . S
Ho0 O27 2.346 1_455 S
Ho0 O31 2.305 . S
Ho1 C12 2.811 . S
Ho1 O21 2.346 1_655 S
Ho1 O25 2.305 1_655 S
Ho1 O26 2.322 . S
Ho1 O28 2.378 . S
Ho1 O29 2.524 . S
Ho1 O30 2.381 . S
Ho1 O31 2.669 1_655 S
C2 O20 1.259 . S
C2 O21 1.268 . S
C3 Ho0 2.811 . S
C3 C4 1.488 . S
C3 O22 1.215 . S
C3 O23 1.289 . S
C4 C3 1.488 . S
C4 C5 1.348 . S
C4 C9 1.413 . S
C5 C4 1.348 . S
C5 C6 1.442 . S
C5 H32 0.930 . S
C6 C5 1.442 . S
C6 C7 1.381 . S
C6 H33 0.931 . S
C7 C6 1.381 . S
C7 C8 1.321 . S
C8 C7 1.321 . S
C8 C9 1.403 . S
C8 H34 0.934 . S
C9 C4 1.413 . S
C9 C8 1.403 . S
C9 H35 0.930 . S
C10 O24 1.275 . S
C10 O25 1.256 . S
C11 O26 1.259 . S
C11 O27 1.268 . S
C12 Ho1 2.811 . S
C12 C13 1.488 . S
C12 O28 1.215 . S
C12 O29 1.289 . S
C13 C12 1.488 . S
C13 C14 1.348 . S
C13 C18 1.413 . S
C14 C13 1.348 . S
C14 C15 1.442 . S
C14 H36 0.930 . S
C15 C14 1.442 . S
C15 C16 1.381 . S
C15 H37 0.931 . S
C16 C15 1.381 . S
C16 C17 1.321 . S
C17 C16 1.321 . S
C17 C18 1.403 . S
C17 H38 0.934 . S
C18 C13 1.413 . S
C18 C17 1.403 . S
C18 H39 0.930 . S
C19 O30 1.275 1_455 S
C19 O31 1.256 . S
O20 Ho0 2.322 . S
O20 C2 1.259 . S
O21 Ho1 2.346 1_455 S
O21 C2 1.268 . S
O22 Ho0 2.378 . S
O22 C3 1.215 . S
O23 Ho0 2.524 . S
O23 C3 1.289 . S
O24 Ho0 2.381 . S
O24 C10 1.275 . S
O25 Ho0 2.669 . S
O25 Ho1 2.305 1_455 S
O25 C10 1.256 . S
O26 Ho1 2.322 . S
O26 C11 1.259 . S
O27 Ho0 2.346 1_655 S
O27 C11 1.268 . S
O28 Ho1 2.378 . S
O28 C12 1.215 . S
O29 Ho1 2.524 . S
O29 C12 1.289 . S
O30 Ho1 2.381 . S
O30 C19 1.275 1_655 S
O31 Ho0 2.305 . S
O31 Ho1 2.669 1_455 S
O31 C19 1.256 . S
H32 C5 0.930 . S
H33 C6 0.931 . S
H34 C8 0.934 . S
H35 C9 0.930 . S
H36 C14 0.930 . S
H37 C15 0.931 . S
H38 C17 0.934 . S
H39 C18 0.930 . S
Ho40 C43 2.811 . S
Ho40 O60 2.322 . S
Ho40 O62 2.378 . S
Ho40 O63 2.524 . S
Ho40 O64 2.381 . S
Ho40 O65 2.669 1_565 S
Ho40 O67 2.346 1_565 S
Ho40 O71 2.293 1_565 S
Ho41 C52 2.811 . S
Ho41 O61 2.346 1_545 S
Ho41 O65 2.305 . S
Ho41 O66 2.322 . S
Ho41 O68 2.378 . S
Ho41 O69 2.524 . S
Ho41 O70 2.381 . S
Ho41 O71 2.688 . S
C42 O60 1.259 . S
C42 O61 1.268 . S
C43 Ho40 2.811 . S
C43 C44 1.488 . S
C43 O62 1.215 . S
C43 O63 1.289 . S
C44 C43 1.488 . S
C44 C45 1.348 . S
C44 C49 1.413 . S
C45 C44 1.348 . S
C45 C46 1.442 . S
C45 H72 0.930 . S
C46 C45 1.442 . S
C46 C47 1.381 . S
C46 H73 0.931 . S
C47 C46 1.381 . S
C47 C48 1.321 . S
C48 C47 1.321 . S
C48 C49 1.403 . S
C48 H74 0.934 . S
C49 C44 1.413 . S
C49 C48 1.403 . S
C49 H75 0.930 . S
C50 O64 1.275 1_545 S
C50 O65 1.256 . S
C51 O66 1.259 . S
C51 O67 1.268 . S
C52 Ho41 2.811 . S
C52 C53 1.488 . S
C52 O68 1.215 . S
C52 O69 1.289 . S
C53 C52 1.488 . S
C53 C54 1.348 . S
C53 C58 1.413 . S
C54 C53 1.348 . S
C54 C55 1.442 . S
C54 H76 0.930 . S
C55 C54 1.442 . S
C55 C56 1.381 . S
C55 H77 0.931 . S
C56 C55 1.381 . S
C56 C57 1.321 . S
C57 C56 1.321 . S
C57 C58 1.403 . S
C57 H78 0.934 . S
C58 C53 1.413 . S
C58 C57 1.403 . S
C58 H79 0.930 . S
C59 O70 1.275 . S
C59 O71 1.267 . S
O60 Ho40 2.322 . S
O60 C42 1.259 . S
O61 Ho41 2.346 1_565 S
O61 C42 1.268 . S
O62 Ho40 2.378 . S
O62 C43 1.215 . S
O63 Ho40 2.524 . S
O63 C43 1.289 . S
O64 Ho40 2.381 . S
O64 C50 1.275 1_565 S
O65 Ho40 2.669 1_545 S
O65 Ho41 2.305 . S
O65 C50 1.256 . S
O66 Ho41 2.322 . S
O66 C51 1.259 . S
O67 Ho40 2.346 1_545 S
O67 C51 1.268 . S
O68 Ho41 2.378 . S
O68 C52 1.215 . S
O69 Ho41 2.524 . S
O69 C52 1.289 . S
O70 Ho41 2.381 . S
O70 C59 1.275 . S
O71 Ho40 2.293 1_545 S
O71 Ho41 2.688 . S
O71 C59 1.267 . S
H72 C45 0.930 . S
H73 C46 0.931 . S
H74 C48 0.934 . S
H75 C49 0.930 . S
H76 C54 0.930 . S
H77 C55 0.931 . S
H78 C57 0.934 . S
H79 C58 0.930 . S
Ho80 C83 2.811 . S
Ho80 O100 2.322 . S
Ho80 O102 2.378 . S
Ho80 O103 2.524 . S
Ho80 O104 2.381 . S
Ho80 O105 2.669 . S
Ho80 O107 2.346 . S
Ho80 O111 2.305 . S
Ho81 C92 2.811 . S
Ho81 O101 2.346 . S
Ho81 O105 2.305 . S
Ho81 O106 2.322 . S
Ho81 O108 2.378 . S
Ho81 O109 2.524 . S
Ho81 O110 2.381 . S
Ho81 O111 2.669 . S
C82 O100 1.259 . S
C82 O101 1.268 . S
C83 Ho80 2.811 . S
C83 C84 1.488 . S
C83 O102 1.215 . S
C83 O103 1.289 . S
C84 C83 1.488 . S
C84 C85 1.348 . S
C84 C89 1.413 . S
C85 C84 1.348 . S
C85 C86 1.442 . S
C85 H112 0.930 . S
C86 C85 1.442 . S
C86 C87 1.381 . S
C86 H113 0.931 . S
C87 C86 1.381 . S
C87 C88 1.321 . S
C88 C87 1.321 . S
C88 C89 1.403 . S
C88 H114 0.934 . S
C89 C84 1.413 . S
C89 C88 1.403 . S
C89 H115 0.930 . S
C90 O104 1.275 . S
C90 O105 1.256 . S
C91 O106 1.259 . S
C91 O107 1.268 . S
C92 Ho81 2.811 . S
C92 C93 1.488 . S
C92 O108 1.215 . S
C92 O109 1.289 . S
C93 C92 1.488 . S
C93 C94 1.348 . S
C93 C98 1.413 . S
C94 C93 1.348 . S
C94 C95 1.442 . S
C94 H116 0.930 . S
C95 C94 1.442 . S
C95 C96 1.381 . S
C95 H117 0.931 . S
C96 C95 1.381 . S
C96 C97 1.321 . S
C97 C96 1.321 . S
C97 C98 1.403 . S
C97 H118 0.934 . S
C98 C93 1.413 . S
C98 C97 1.403 . S
C98 H119 0.930 . S
C99 O110 1.275 . S
C99 O111 1.256 . S
O100 Ho80 2.322 . S
O100 C82 1.259 . S
O101 Ho81 2.346 . S
O101 C82 1.268 . S
O102 Ho80 2.378 . S
O102 C83 1.215 . S
O103 Ho80 2.524 . S
O103 C83 1.289 . S
O104 Ho80 2.381 . S
O104 C90 1.275 . S
O105 Ho80 2.669 . S
O105 Ho81 2.305 . S
O105 C90 1.256 . S
O106 Ho81 2.322 . S
O106 C91 1.259 . S
O107 Ho80 2.346 . S
O107 C91 1.268 . S
O108 Ho81 2.378 . S
O108 C92 1.215 . S
O109 Ho81 2.524 . S
O109 C92 1.289 . S
O110 Ho81 2.381 . S
O110 C99 1.275 . S
O111 Ho80 2.305 . S
O111 Ho81 2.669 . S
O111 C99 1.256 . S
H112 C85 0.930 . S
H113 C86 0.931 . S
H114 C88 0.934 . S
H115 C89 0.930 . S
H116 C94 0.930 . S
H117 C95 0.931 . S
H118 C97 0.934 . S
H119 C98 0.930 . S
C120 C121 1.264 . S
C120 C125 1.479 . S
C120 C130 1.465 . S
C121 C120 1.264 . S
C121 C123 1.339 . S
C121 H148 0.931 . S
C122 C123 1.395 . S
C122 C124 1.320 . S
C123 C121 1.339 . S
C123 C122 1.395 . S
C123 H149 0.929 . S
C124 C122 1.320 . S
C124 C125 1.405 . S
C124 H150 0.930 . S
C125 C120 1.479 . S
C125 C124 1.405 . S
C125 H151 0.931 . S
U126 O127 2.454 1_545 S
U126 O128 2.458 1_545 S
U126 C129 2.984 1_545 S
U126 C130 2.847 . S
U126 C143 2.882 . S
U126 O144 2.441 . S
U126 O145 2.420 . S
U126 O146 2.455 1_545 S
U126 O147 2.449 . S
O127 U126 2.454 1_565 S
O127 C129 1.353 . S
O128 U126 2.458 1_565 S
O128 C129 1.286 . S
C129 U126 2.984 1_565 S
C129 O127 1.353 . S
C129 O128 1.286 . S
C129 C131 1.363 . S
C130 C120 1.465 . S
C130 U126 2.847 . S
C130 O144 1.249 . S
C130 O145 1.202 . S
C131 C129 1.363 . S
C131 C133 1.408 . S
C131 C136 1.342 . S
C132 C133 1.310 . S
C132 C135 1.461 . S
C132 H152 0.932 . S
C133 C131 1.408 . S
C133 C132 1.310 . S
C133 H153 0.930 . S
C134 C135 1.474 . S
C134 C136 1.285 . S
C134 H154 0.929 . S
C135 C132 1.461 . S
C135 C134 1.474 . S
C136 C131 1.342 . S
C136 C134 1.285 . S
C136 H155 0.930 . S
C137 C140 1.424 . S
C137 C142 1.245 1_545 S
C137 C143 1.428 . S
C138 C141 1.260 1_565 S
C138 C142 1.477 . S
C138 H156 0.932 . S
C139 C140 1.384 . S
C139 C141 1.479 . S
C139 H157 0.929 . S
C140 C137 1.424 . S
C140 C139 1.384 . S
C140 H158 0.928 . S
C141 C138 1.260 1_545 S
C141 C139 1.479 . S
C142 C137 1.245 1_565 S
C142 C138 1.477 . S
C142 H159 0.932 . S
C143 U126 2.882 . S
C143 C137 1.428 . S
C143 O146 1.301 1_545 S
C143 O147 1.282 . S
O144 U126 2.441 . S
O144 C130 1.249 . S
O145 U126 2.420 . S
O145 C130 1.202 . S
O146 U126 2.455 1_565 S
O146 C143 1.301 1_565 S
O147 U126 2.449 . S
O147 C143 1.282 . S
H148 C121 0.931 . S
H149 C123 0.929 . S
H150 C124 0.930 . S
H151 C125 0.931 . S
H152 C132 0.932 . S
H153 C133 0.930 . S
H154 C134 0.929 . S
H155 C136 0.930 . S
H156 C138 0.932 . S
H157 C139 0.929 . S
H158 C140 0.928 . S
H159 C142 0.932 . S
C160 C161 1.264 . S
C160 C165 1.479 . S
C160 C170 1.465 . S
C161 C160 1.264 . S
C161 C163 1.339 . S
C161 H188 0.931 . S
C162 C163 1.395 . S
C162 C164 1.320 . S
C163 C161 1.339 . S
C163 C162 1.395 . S
C163 H189 0.929 . S
C164 C162 1.320 . S
C164 C165 1.405 . S
C164 H190 0.930 . S
C165 C160 1.479 . S
C165 C164 1.405 . S
C165 H191 0.931 . S
U166 O167 2.454 . S
U166 O168 2.458 . S
U166 C169 2.984 . S
U166 C170 2.847 . S
U166 C183 2.882 . S
U166 O184 2.441 . S
U166 O185 2.420 . S
U166 O186 2.455 . S
U166 O187 2.449 . S
O167 U166 2.454 . S
O167 C169 1.353 . S
O168 U166 2.458 . S
O168 C169 1.286 . S
C169 U166 2.984 . S
C169 O167 1.353 . S
C169 O168 1.286 . S
C169 C171 1.363 . S
C170 C160 1.465 . S
C170 U166 2.847 . S
C170 O184 1.249 . S
C170 O185 1.202 . S
C171 C169 1.363 . S
C171 C173 1.408 . S
C171 C176 1.342 . S
C172 C173 1.310 . S
C172 C175 1.461 . S
C172 H192 0.932 . S
C173 C171 1.408 . S
C173 C172 1.310 . S
C173 H193 0.930 . S
C174 C175 1.474 . S
C174 C176 1.285 . S
C174 H194 0.929 . S
C175 C172 1.461 . S
C175 C174 1.474 . S
C176 C171 1.342 . S
C176 C174 1.285 . S
C176 H195 0.930 . S
C177 C180 1.424 . S
C177 C182 1.245 . S
C177 C183 1.428 . S
C178 C181 1.260 . S
C178 C182 1.477 . S
C178 H196 0.932 . S
C179 C180 1.384 . S
C179 C181 1.479 . S
C179 H197 0.929 . S
C180 C177 1.424 . S
C180 C179 1.384 . S
C180 H198 0.928 . S
C181 C178 1.260 . S
C181 C179 1.479 . S
C182 C177 1.245 . S
C182 C178 1.477 . S
C182 H199 0.932 . S
C183 U166 2.882 . S
C183 C177 1.428 . S
C183 O186 1.301 . S
C183 O187 1.282 . S
O184 U166 2.441 . S
O184 C170 1.249 . S
O185 U166 2.420 . S
O185 C170 1.202 . S
O186 U166 2.455 . S
O186 C183 1.301 . S
O187 U166 2.449 . S
O187 C183 1.282 . S
H188 C161 0.931 . S
H189 C163 0.929 . S
H190 C164 0.930 . S
H191 C165 0.931 . S
H192 C172 0.932 . S
H193 C173 0.930 . S
H194 C174 0.929 . S
H195 C176 0.930 . S
H196 C178 0.932 . S
H197 C179 0.929 . S
H198 C180 0.928 . S
H199 C182 0.932 . S
C200 C201 1.264 . S
C200 C205 1.479 . S
C200 C210 1.465 . S
C201 C200 1.264 . S
C201 C203 1.339 . S
C201 H228 0.931 . S
C202 C203 1.395 . S
C202 C204 1.320 . S
C203 C201 1.339 . S
C203 C202 1.395 . S
C203 H229 0.929 . S
C204 C202 1.320 . S
C204 C205 1.405 . S
C204 H230 0.930 . S
C205 C200 1.479 . S
C205 C204 1.405 . S
C205 H231 0.931 . S
U206 O207 2.454 . S
U206 O208 2.458 . S
U206 C209 2.984 . S
U206 C210 2.847 1_455 S
U206 C223 2.882 . S
U206 O224 2.441 . S
U206 O225 2.420 1_455 S
U206 O226 2.455 . S
U206 O227 2.449 . S
O207 U206 2.454 . S
O207 C209 1.353 . S
O208 U206 2.458 . S
O208 C209 1.286 . S
C209 U206 2.984 . S
C209 O207 1.353 . S
C209 O208 1.286 . S
C209 C211 1.363 . S
C210 C200 1.465 . S
C210 U206 2.847 1_655 S
C210 O224 1.249 1_655 S
C210 O225 1.202 . S
C211 C209 1.363 . S
C211 C213 1.408 . S
C211 C216 1.342 . S
C212 C213 1.310 . S
C212 C215 1.461 . S
C212 H232 0.932 . S
C213 C211 1.408 . S
C213 C212 1.310 . S
C213 H233 0.930 . S
C214 C215 1.474 . S
C214 C216 1.285 . S
C214 H234 0.929 . S
C215 C212 1.461 . S
C215 C214 1.474 . S
C216 C211 1.342 . S
C216 C214 1.285 . S
C216 H235 0.930 . S
C217 C220 1.424 . S
C217 C222 1.245 . S
C217 C223 1.428 . S
C218 C221 1.260 . S
C218 C222 1.477 . S
C218 H236 0.932 . S
C219 C220 1.384 . S
C219 C221 1.479 . S
C219 H237 0.929 1_455 S
C220 C217 1.424 . S
C220 C219 1.384 . S
C220 H238 0.928 1_455 S
C221 C218 1.260 . S
C221 C219 1.479 . S
C222 C217 1.245 . S
C222 C218 1.477 . S
C222 H239 0.932 . S
C223 U206 2.882 . S
C223 C217 1.428 . S
C223 O226 1.301 . S
C223 O227 1.282 . S
O224 U206 2.441 . S
O224 C210 1.249 1_455 S
O225 U206 2.420 1_655 S
O225 C210 1.202 . S
O226 U206 2.455 . S
O226 C223 1.301 . S
O227 U206 2.449 . S
O227 C223 1.282 . S
H228 C201 0.931 . S
H229 C203 0.929 . S
H230 C204 0.930 . S
H231 C205 0.931 . S
H232 C212 0.932 . S
H233 C213 0.930 . S
H234 C214 0.929 . S
H235 C216 0.930 . S
H236 C218 0.932 . S
H237 C219 0.929 1_655 S
H238 C220 0.928 1_655 S
H239 C222 0.932 . S
C240 C241 1.264 . S
C240 C245 1.479 . S
C240 C250 1.465 . S
C241 C240 1.264 . S
C241 C243 1.339 . S
C241 H268 0.931 . S
C242 C243 1.395 . S
C242 C244 1.320 . S
C243 C241 1.339 . S
C243 C242 1.395 . S
C243 H269 0.929 . S
C244 C242 1.320 . S
C244 C245 1.405 . S
C244 H270 0.930 . S
C245 C240 1.479 . S
C245 C244 1.405 . S
C245 H271 0.931 . S
U246 O247 2.454 1_655 S
U246 O248 2.458 1_655 S
U246 C249 2.984 1_655 S
U246 C250 2.847 . S
U246 C263 2.882 . S
U246 O264 2.441 . S
U246 O265 2.420 . S
U246 O266 2.455 1_655 S
U246 O267 2.449 . S
O247 U246 2.454 1_455 S
O247 C249 1.353 . S
O248 U246 2.458 1_455 S
O248 C249 1.286 . S
C249 U246 2.984 1_455 S
C249 O247 1.353 . S
C249 O248 1.286 . S
C249 C251 1.363 . S
C250 C240 1.465 . S
C250 U246 2.847 . S
C250 O264 1.249 . S
C250 O265 1.202 . S
C251 C249 1.363 . S
C251 C253 1.408 . S
C251 C256 1.342 . S
C252 C253 1.310 . S
C252 C255 1.461 . S
C252 H272 0.932 . S
C253 C251 1.408 . S
C253 C252 1.310 . S
C253 H273 0.930 . S
C254 C255 1.474 . S
C254 C256 1.285 . S
C254 H274 0.929 . S
C255 C252 1.461 . S
C255 C254 1.474 . S
C256 C251 1.342 . S
C256 C254 1.285 . S
C256 H275 0.930 . S
C257 C260 1.424 . S
C257 C262 1.245 1_655 S
C257 C263 1.428 . S
C258 C261 1.260 1_455 S
C258 C262 1.477 . S
C258 H276 0.932 . S
C259 C260 1.384 . S
C259 C261 1.479 . S
C259 H277 0.929 . S
C260 C257 1.424 . S
C260 C259 1.384 . S
C260 H278 0.928 . S
C261 C258 1.260 1_655 S
C261 C259 1.479 . S
C262 C257 1.245 1_455 S
C262 C258 1.477 . S
C262 H279 0.932 . S
C263 U246 2.882 . S
C263 C257 1.428 . S
C263 O266 1.301 1_655 S
C263 O267 1.282 . S
O264 U246 2.441 . S
O264 C250 1.249 . S
O265 U246 2.420 . S
O265 C250 1.202 . S
O266 U246 2.455 1_455 S
O266 C263 1.301 1_455 S
O267 U246 2.449 . S
O267 C263 1.282 . S
H268 C241 0.931 . S
H269 C243 0.929 . S
H270 C244 0.930 . S
H271 C245 0.931 . S
H272 C252 0.932 . S
H273 C253 0.930 . S
H274 C254 0.929 . S
H275 C256 0.930 . S
H276 C258 0.932 . S
H277 C259 0.929 . S
H278 C260 0.928 . S
H279 C262 0.932 . S
C280 C281 1.264 . S
C280 C285 1.479 . S
C280 C290 1.465 . S
C281 C280 1.264 . S
C281 C283 1.339 . S
C281 H308 0.931 . S
C282 C283 1.395 . S
C282 C284 1.320 . S
C283 C281 1.339 . S
C283 C282 1.395 . S
C283 H309 0.929 . S
C284 C282 1.320 . S
C284 C285 1.405 . S
C284 H310 0.930 . S
C285 C280 1.479 . S
C285 C284 1.405 . S
C285 H311 0.931 . S
U286 O287 2.454 1_565 S
U286 O288 2.458 1_565 S
U286 C289 2.984 1_565 S
U286 C290 2.847 . S
U286 C303 2.882 . S
U286 O304 2.441 . S
U286 O305 2.420 . S
U286 O306 2.455 1_565 S
U286 O307 2.449 . S
O287 U286 2.454 1_545 S
O287 C289 1.353 . S
O288 U286 2.458 1_545 S
O288 C289 1.286 . S
C289 U286 2.984 1_545 S
C289 O287 1.353 . S
C289 O288 1.286 . S
C289 C291 1.363 . S
C290 C280 1.465 . S
C290 U286 2.847 . S
C290 O304 1.249 . S
C290 O305 1.202 . S
C291 C289 1.363 . S
C291 C293 1.408 . S
C291 C296 1.342 . S
C292 C293 1.310 . S
C292 C295 1.461 . S
C292 H312 0.932 . S
C293 C291 1.408 . S
C293 C292 1.310 . S
C293 H313 0.930 . S
C294 C295 1.474 . S
C294 C296 1.285 . S
C294 H314 0.929 . S
C295 C292 1.461 . S
C295 C294 1.474 . S
C296 C291 1.342 . S
C296 C294 1.285 . S
C296 H315 0.930 . S
C297 C300 1.424 . S
C297 C302 1.245 1_565 S
C297 C303 1.428 . S
C298 C301 1.260 1_545 S
C298 C302 1.477 . S
C298 H316 0.932 . S
C299 C300 1.384 . S
C299 C301 1.479 . S
C299 H317 0.929 . S
C300 C297 1.424 . S
C300 C299 1.384 . S
C300 H318 0.928 . S
C301 C298 1.260 1_565 S
C301 C299 1.479 . S
C302 C297 1.245 1_545 S
C302 C298 1.477 . S
C302 H319 0.932 . S
C303 U286 2.882 . S
C303 C297 1.428 . S
C303 O306 1.301 1_565 S
C303 O307 1.282 . S
O304 U286 2.441 . S
O304 C290 1.249 . S
O305 U286 2.420 . S
O305 C290 1.202 . S
O306 U286 2.455 1_545 S
O306 C303 1.301 1_545 S
O307 U286 2.449 . S
O307 C303 1.282 . S
H308 C281 0.931 . S
H309 C283 0.929 . S
H310 C284 0.930 . S
H311 C285 0.931 . S
H312 C292 0.932 . S
H313 C293 0.930 . S
H314 C294 0.929 . S
H315 C296 0.930 . S
H316 C298 0.932 . S
H317 C299 0.929 . S
H318 C300 0.928 . S
H319 C302 0.932 . S
C320 C321 1.264 . S
C320 C325 1.479 . S
C320 C330 1.465 . S
C321 C320 1.264 . S
C321 C323 1.339 . S
C321 H348 0.931 . S
C322 C323 1.395 . S
C322 C324 1.320 . S
C323 C321 1.339 . S
C323 C322 1.395 . S
C323 H349 0.929 . S
C324 C322 1.320 . S
C324 C325 1.405 . S
C324 H350 0.930 . S
C325 C320 1.479 . S
C325 C324 1.405 . S
C325 H351 0.931 . S
U326 O327 2.454 . S
U326 O328 2.458 . S
U326 C329 2.984 . S
U326 C330 2.847 . S
U326 C343 2.882 . S
U326 O344 2.441 . S
U326 O345 2.420 . S
U326 O346 2.455 . S
U326 O347 2.449 . S
O327 U326 2.454 . S
O327 C329 1.353 . S
O328 U326 2.458 . S
O328 C329 1.286 . S
C329 U326 2.984 . S
C329 O327 1.353 . S
C329 O328 1.286 . S
C329 C331 1.363 . S
C330 C320 1.465 . S
C330 U326 2.847 . S
C330 O344 1.249 . S
C330 O345 1.202 . S
C331 C329 1.363 . S
C331 C333 1.408 . S
C331 C336 1.342 . S
C332 C333 1.310 . S
C332 C335 1.461 . S
C332 H352 0.932 . S
C333 C331 1.408 . S
C333 C332 1.310 . S
C333 H353 0.930 . S
C334 C335 1.474 . S
C334 C336 1.285 . S
C334 H354 0.929 . S
C335 C332 1.461 . S
C335 C334 1.474 . S
C336 C331 1.342 . S
C336 C334 1.285 . S
C336 H355 0.930 . S
C337 C340 1.424 . S
C337 C342 1.245 . S
C337 C343 1.428 . S
C338 C341 1.260 1_554 S
C338 C342 1.477 . S
C338 H356 0.900 1_554 S
C339 C340 1.384 . S
C339 C341 1.479 1_554 S
C339 H357 0.929 . S
C340 C337 1.424 . S
C340 C339 1.384 . S
C340 H358 0.928 . S
C341 C338 1.260 1_556 S
C341 C339 1.479 1_556 S
C342 C337 1.245 . S
C342 C338 1.477 . S
C342 H359 0.932 . S
C343 U326 2.882 . S
C343 C337 1.428 . S
C343 O346 1.301 . S
C343 O347 1.282 . S
O344 U326 2.441 . S
O344 C330 1.249 . S
O345 U326 2.420 . S
O345 C330 1.202 . S
O346 U326 2.455 . S
O346 C343 1.301 . S
O347 U326 2.449 . S
O347 C343 1.282 . S
H348 C321 0.931 . S
H349 C323 0.929 . S
H350 C324 0.930 . S
H351 C325 0.931 . S
H352 C332 0.932 . S
H353 C333 0.930 . S
H354 C334 0.929 . S
H355 C336 0.930 . S
H356 C338 0.900 1_556 S
H357 C339 0.929 . S
H358 C340 0.928 . S
H359 C342 0.932 . S
H360 C372 0.930 . S
H361 C374 0.930 . S
H362 C375 0.930 . S
H363 C379 0.959 . S
H364 C379 0.959 . S
H365 C379 0.961 . S
H366 C380 0.960 . S
H367 C380 0.961 . S
H368 C380 0.959 . S
H369 C383 0.929 . S
H370 C384 0.931 . S
H371 C386 0.930 . S
C372 H360 0.930 . S
C372 C373 1.399 . S
C372 C377 1.399 . S
C373 C372 1.399 . S
C373 C374 1.376 . S
C374 H361 0.930 . S
C374 C373 1.376 . S
C374 C375 1.388 . S
C375 H362 0.930 . S
C375 C374 1.388 . S
C375 C376 1.390 . S
C376 C375 1.390 . S
C376 C377 1.394 . S
C376 C382 1.465 . S
C377 C372 1.399 . S
C377 C376 1.394 . S
C377 C378 1.516 . S
C378 C377 1.516 . S
C378 C379 1.502 . S
C378 C380 1.561 . S
C378 C381 1.526 . S
C379 H363 0.959 . S
C379 H364 0.959 . S
C379 H365 0.961 . S
C379 C378 1.502 . S
C380 H366 0.960 . S
C380 H367 0.961 . S
C380 H368 0.959 . S
C380 C378 1.561 . S
C381 C378 1.526 . S
C381 C382 1.396 . S
C381 C386 1.390 . S
C382 C376 1.465 . S
C382 C381 1.396 . S
C382 C383 1.399 . S
C383 H369 0.929 . S
C383 C382 1.399 . S
C383 C384 1.385 . S
C384 H370 0.931 . S
C384 C383 1.385 . S
C384 C385 1.389 . S
C385 C384 1.389 . S
C385 C386 1.387 . S
C386 H371 0.930 . S
C386 C381 1.390 . S
C386 C385 1.387 . S
H387 C399 0.930 . S
H388 C401 0.930 . S
H389 C402 0.930 . S
H390 C406 0.959 . S
H391 C406 0.959 . S
H392 C406 0.961 . S
H393 C407 0.960 . S
H394 C407 0.961 . S
H395 C407 0.959 . S
H396 C410 0.929 . S
H397 C411 0.931 . S
H398 C413 0.930 . S
C399 H387 0.930 . S
C399 C400 1.399 . S
C399 C404 1.399 . S
C400 C399 1.399 . S
C400 C401 1.376 . S
C401 H388 0.930 . S
C401 C400 1.376 . S
C401 C402 1.388 . S
C402 H389 0.930 . S
C402 C401 1.388 . S
C402 C403 1.390 . S
C403 C402 1.390 . S
C403 C404 1.394 . S
C403 C409 1.465 . S
C404 C399 1.399 . S
C404 C403 1.394 . S
C404 C405 1.516 . S
C405 C404 1.516 . S
C405 C406 1.502 . S
C405 C407 1.561 . S
C405 C408 1.526 . S
C406 H390 0.959 . S
C406 H391 0.959 . S
C406 H392 0.961 . S
C406 C405 1.502 . S
C407 H393 0.960 . S
C407 H394 0.961 . S
C407 H395 0.959 . S
C407 C405 1.561 . S
C408 C405 1.526 . S
C408 C409 1.396 . S
C408 C413 1.390 . S
C409 C403 1.465 . S
C409 C408 1.396 . S
C409 C410 1.399 . S
C410 H396 0.929 . S
C410 C409 1.399 . S
C410 C411 1.385 . S
C411 H397 0.931 . S
C411 C410 1.385 . S
C411 C412 1.389 . S
C412 C411 1.389 . S
C412 C413 1.387 . S
C413 H398 0.930 . S
C413 C408 1.390 . S
C413 C412 1.387 . S
H414 C426 0.930 . S
H415 C428 0.930 . S
H416 C429 0.930 . S
H417 C433 0.959 . S
H418 C433 0.959 . S
H419 C433 0.961 . S
H420 C434 0.960 . S
H421 C434 0.961 . S
H422 C434 0.959 . S
H423 C437 0.929 . S
H424 C438 0.931 . S
H425 C440 0.930 . S
C426 H414 0.930 . S
C426 C427 1.399 . S
C426 C431 1.399 . S
C427 C426 1.399 . S
C427 C428 1.376 . S
C428 H415 0.930 . S
C428 C427 1.376 . S
C428 C429 1.388 . S
C429 H416 0.930 . S
C429 C428 1.388 . S
C429 C430 1.390 . S
C430 C429 1.390 . S
C430 C431 1.394 . S
C430 C436 1.465 . S
C431 C426 1.399 . S
C431 C430 1.394 . S
C431 C432 1.516 . S
C432 C431 1.516 . S
C432 C433 1.502 . S
C432 C434 1.561 . S
C432 C435 1.526 . S
C433 H417 0.959 . S
C433 H418 0.959 . S
C433 H419 0.961 . S
C433 C432 1.502 . S
C434 H420 0.960 . S
C434 H421 0.961 . S
C434 H422 0.959 . S
C434 C432 1.561 . S
C435 C432 1.526 . S
C435 C436 1.396 . S
C435 C440 1.390 . S
C436 C430 1.465 . S
C436 C435 1.396 . S
C436 C437 1.399 . S
C437 H423 0.929 . S
C437 C436 1.399 . S
C437 C438 1.385 . S
C438 H424 0.931 . S
C438 C437 1.385 . S
C438 C439 1.389 . S
C439 C438 1.389 . S
C439 C440 1.387 . S
C440 H425 0.930 . S
C440 C435 1.390 . S
C440 C439 1.387 . S
H441 C453 0.930 . S
H442 C455 0.930 . S
H443 C456 0.930 . S
H444 C460 0.959 . S
H445 C460 0.959 . S
H446 C460 0.961 . S
H447 C461 0.960 . S
H448 C461 0.961 . S
H449 C461 0.959 . S
H450 C464 0.929 . S
H451 C465 0.931 . S
H452 C467 0.930 . S
C453 H441 0.930 . S
C453 C454 1.399 . S
C453 C458 1.399 . S
C454 C453 1.399 . S
C454 C455 1.376 . S
C455 H442 0.930 . S
C455 C454 1.376 . S
C455 C456 1.388 . S
C456 H443 0.930 . S
C456 C455 1.388 . S
C456 C457 1.390 . S
C457 C456 1.390 . S
C457 C458 1.394 . S
C457 C463 1.465 . S
C458 C453 1.399 . S
C458 C457 1.394 . S
C458 C459 1.516 . S
C459 C458 1.516 . S
C459 C460 1.502 . S
C459 C461 1.561 . S
C459 C462 1.526 . S
C460 H444 0.959 . S
C460 H445 0.959 . S
C460 H446 0.961 . S
C460 C459 1.502 . S
C461 H447 0.960 . S
C461 H448 0.961 . S
C461 H449 0.959 . S
C461 C459 1.561 . S
C462 C459 1.526 . S
C462 C463 1.396 . S
C462 C467 1.390 . S
C463 C457 1.465 . S
C463 C462 1.396 . S
C463 C464 1.399 . S
C464 H450 0.929 . S
C464 C463 1.399 . S
C464 C465 1.385 . S
C465 H451 0.931 . S
C465 C464 1.385 . S
C465 C466 1.389 . S
C466 C465 1.389 . S
C466 C467 1.387 . S
C467 H452 0.930 . S
C467 C462 1.390 . S
C467 C466 1.387 . S
H468 C480 0.930 . S
H469 C482 0.930 . S
H470 C483 0.930 . S
H471 C487 0.959 . S
H472 C487 0.959 . S
H473 C487 0.961 . S
H474 C488 0.960 . S
H475 C488 0.961 . S
H476 C488 0.959 . S
H477 C491 0.929 . S
H478 C492 0.931 . S
H479 C494 0.930 . S
C480 H468 0.930 . S
C480 C481 1.399 . S
C480 C485 1.399 . S
C481 C480 1.399 . S
C481 C482 1.376 . S
C482 H469 0.930 . S
C482 C481 1.376 . S
C482 C483 1.388 . S
C483 H470 0.930 . S
C483 C482 1.388 . S
C483 C484 1.390 . S
C484 C483 1.390 . S
C484 C485 1.394 . S
C484 C490 1.465 . S
C485 C480 1.399 . S
C485 C484 1.394 . S
C485 C486 1.516 . S
C486 C485 1.516 . S
C486 C487 1.502 . S
C486 C488 1.561 . S
C486 C489 1.526 . S
C487 H471 0.959 . S
C487 H472 0.959 . S
C487 H473 0.961 . S
C487 C486 1.502 . S
C488 H474 0.960 . S
C488 H475 0.961 . S
C488 H476 0.959 . S
C488 C486 1.561 . S
C489 C486 1.526 . S
C489 C490 1.396 . S
C489 C494 1.390 . S
C490 C484 1.465 . S
C490 C489 1.396 . S
C490 C491 1.399 . S
C491 H477 0.929 . S
C491 C490 1.399 . S
C491 C492 1.385 . S
C492 H478 0.931 . S
C492 C491 1.385 . S
C492 C493 1.389 . S
C493 C492 1.389 . S
C493 C494 1.387 . S
C494 H479 0.930 . S
C494 C489 1.390 . S
C494 C493 1.387 . S
H495 C507 0.930 . S
H496 C509 0.930 . S
H497 C510 0.930 . S
H498 C514 0.959 . S
H499 C514 0.959 . S
H500 C514 0.961 . S
H501 C515 0.960 . S
H502 C515 0.961 . S
H503 C515 0.959 . S
H504 C518 0.929 . S
H505 C519 0.931 . S
H506 C521 0.930 . S
C507 H495 0.930 . S
C507 C508 1.399 . S
C507 C512 1.399 . S
C508 C507 1.399 . S
C508 C509 1.376 . S
C509 H496 0.930 . S
C509 C508 1.376 . S
C509 C510 1.388 . S
C510 H497 0.930 . S
C510 C509 1.388 . S
C510 C511 1.390 . S
C511 C510 1.390 . S
C511 C512 1.394 . S
C511 C517 1.465 . S
C512 C507 1.399 . S
C512 C511 1.394 . S
C512 C513 1.516 . S
C513 C512 1.516 . S
C513 C514 1.502 . S
C513 C515 1.561 . S
C513 C516 1.526 . S
C514 H498 0.959 . S
C514 H499 0.959 . S
C514 H500 0.961 . S
C514 C513 1.502 . S
C515 H501 0.960 . S
C515 H502 0.961 . S
C515 H503 0.959 . S
C515 C513 1.561 . S
C516 C513 1.526 . S
C516 C517 1.396 . S
C516 C521 1.390 . S
C517 C511 1.465 . S
C517 C516 1.396 . S
C517 C518 1.399 . S
C518 H504 0.929 . S
C518 C517 1.399 . S
C518 C519 1.385 . S
C519 H505 0.931 . S
C519 C518 1.385 . S
C519 C520 1.389 . S
C520 C519 1.389 . S
C520 C521 1.387 . S
C521 H506 0.930 . S
C521 C516 1.390 . S
C521 C520 1.387 . S
H522 C534 0.930 . S
H523 C536 0.930 . S
H524 C537 0.930 . S
H525 C541 0.959 . S
H526 C541 0.959 . S
H527 C541 0.961 . S
H528 C542 0.960 . S
H529 C542 0.961 . S
H530 C542 0.959 . S
H531 C545 0.929 . S
H532 C546 0.931 . S
H533 C548 0.930 . S
C534 H522 0.930 . S
C534 C535 1.399 . S
C534 C539 1.399 . S
C535 C534 1.399 . S
C535 C536 1.376 . S
C536 H523 0.930 . S
C536 C535 1.376 . S
C536 C537 1.388 . S
C537 H524 0.930 . S
C537 C536 1.388 . S
C537 C538 1.390 . S
C538 C537 1.390 . S
C538 C539 1.394 . S
C538 C544 1.465 . S
C539 C534 1.399 . S
C539 C538 1.394 . S
C539 C540 1.516 . S
C540 C539 1.516 . S
C540 C541 1.502 . S
C540 C542 1.561 . S
C540 C543 1.526 . S
C541 H525 0.959 . S
C541 H526 0.959 . S
C541 H527 0.961 . S
C541 C540 1.502 . S
C542 H528 0.960 . S
C542 H529 0.961 . S
C542 H530 0.959 . S
C542 C540 1.561 . S
C543 C540 1.526 . S
C543 C544 1.396 . S
C543 C548 1.390 . S
C544 C538 1.465 . S
C544 C543 1.396 . S
C544 C545 1.399 . S
C545 H531 0.929 . S
C545 C544 1.399 . S
C545 C546 1.385 . S
C546 H532 0.931 . S
C546 C545 1.385 . S
C546 C547 1.389 . S
C547 C546 1.389 . S
C547 C548 1.387 . S
C548 H533 0.930 . S
C548 C543 1.390 . S
C548 C547 1.387 . S
H549 C561 0.930 . S
H550 C563 0.930 . S
H551 C564 0.930 . S
H552 C568 0.959 . S
H553 C568 0.959 . S
H554 C568 0.961 . S
H555 C569 0.960 . S
H556 C569 0.961 . S
H557 C569 0.959 . S
H558 C572 0.929 . S
H559 C573 0.931 . S
H560 C575 0.930 . S
C561 H549 0.930 . S
C561 C562 1.399 . S
C561 C566 1.399 . S
C562 C561 1.399 . S
C562 C563 1.376 . S
C563 H550 0.930 . S
C563 C562 1.376 . S
C563 C564 1.388 . S
C564 H551 0.930 . S
C564 C563 1.388 . S
C564 C565 1.390 . S
C565 C564 1.390 . S
C565 C566 1.394 . S
C565 C571 1.465 . S
C566 C561 1.399 . S
C566 C565 1.394 . S
C566 C567 1.516 . S
C567 C566 1.516 . S
C567 C568 1.502 . S
C567 C569 1.561 . S
C567 C570 1.526 . S
C568 H552 0.959 . S
C568 H553 0.959 . S
C568 H554 0.961 . S
C568 C567 1.502 . S
C569 H555 0.960 . S
C569 H556 0.961 . S
C569 H557 0.959 . S
C569 C567 1.561 . S
C570 C567 1.526 . S
C570 C571 1.396 . S
C570 C575 1.390 . S
C571 C565 1.465 . S
C571 C570 1.396 . S
C571 C572 1.399 . S
C572 H558 0.929 . S
C572 C571 1.399 . S
C572 C573 1.385 . S
C573 H559 0.931 . S
C573 C572 1.385 . S
C573 C574 1.389 . S
C574 C573 1.389 . S
C574 C575 1.387 . S
C575 H560 0.930 . S
C575 C570 1.390 . S
C575 C574 1.387 . S
H576 C588 0.930 . S
H577 C590 0.930 . S
H578 C591 0.930 . S
H579 C595 0.959 . S
H580 C595 0.959 . S
H581 C595 0.961 . S
H582 C596 0.960 . S
H583 C596 0.961 . S
H584 C596 0.959 . S
H585 C599 0.929 . S
H586 C600 0.931 . S
H587 C602 0.930 . S
C588 H576 0.930 . S
C588 C589 1.399 . S
C588 C593 1.399 . S
C589 C588 1.399 . S
C589 C590 1.376 . S
C590 H577 0.930 . S
C590 C589 1.376 . S
C590 C591 1.388 . S
C591 H578 0.930 . S
C591 C590 1.388 . S
C591 C592 1.390 . S
C592 C591 1.390 . S
C592 C593 1.394 . S
C592 C598 1.465 . S
C593 C588 1.399 . S
C593 C592 1.394 . S
C593 C594 1.516 . S
C594 C593 1.516 . S
C594 C595 1.502 . S
C594 C596 1.561 . S
C594 C597 1.526 . S
C595 H579 0.959 . S
C595 H580 0.959 . S
C595 H581 0.961 . S
C595 C594 1.502 . S
C596 H582 0.960 . S
C596 H583 0.961 . S
C596 H584 0.959 . S
C596 C594 1.561 . S
C597 C594 1.526 . S
C597 C598 1.396 . S
C597 C602 1.390 . S
C598 C592 1.465 . S
C598 C597 1.396 . S
C598 C599 1.399 . S
C599 H585 0.929 . S
C599 C598 1.399 . S
C599 C600 1.385 . S
C600 H586 0.931 . S
C600 C599 1.385 . S
C600 C601 1.389 . S
C601 C600 1.389 . S
C601 C602 1.387 . S
C602 H587 0.930 . S
C602 C597 1.390 . S
C602 C601 1.387 . S
H603 C615 0.930 . S
H604 C617 0.930 . S
H605 C618 0.930 . S
H606 C622 0.959 . S
H607 C622 0.959 . S
H608 C622 0.961 . S
H609 C623 0.960 . S
H610 C623 0.961 . S
H611 C623 0.959 . S
H612 C626 0.929 . S
H613 C627 0.931 . S
H614 C629 0.930 . S
C615 H603 0.930 . S
C615 C616 1.399 . S
C615 C620 1.399 . S
C616 C615 1.399 . S
C616 C617 1.376 . S
C617 H604 0.930 . S
C617 C616 1.376 . S
C617 C618 1.388 . S
C618 H605 0.930 . S
C618 C617 1.388 . S
C618 C619 1.390 . S
C619 C618 1.390 . S
C619 C620 1.394 . S
C619 C625 1.465 . S
C620 C615 1.399 . S
C620 C619 1.394 . S
C620 C621 1.516 . S
C621 C620 1.516 . S
C621 C622 1.502 . S
C621 C623 1.561 . S
C621 C624 1.526 . S
C622 H606 0.959 . S
C622 H607 0.959 . S
C622 H608 0.961 . S
C622 C621 1.502 . S
C623 H609 0.960 . S
C623 H610 0.961 . S
C623 H611 0.959 . S
C623 C621 1.561 . S
C624 C621 1.526 . S
C624 C625 1.396 . S
C624 C629 1.390 . S
C625 C619 1.465 . S
C625 C624 1.396 . S
C625 C626 1.399 . S
C626 H612 0.929 . S
C626 C625 1.399 . S
C626 C627 1.385 . S
C627 H613 0.931 . S
C627 C626 1.385 . S
C627 C628 1.389 . S
C628 C627 1.389 . S
C628 C629 1.387 . S
C629 H614 0.930 . S
C629 C624 1.390 . S
C629 C628 1.387 . S
H630 C642 0.930 . S
H631 C644 0.930 . S
H632 C645 0.930 . S
H633 C649 0.959 . S
H634 C649 0.959 . S
H635 C649 0.961 . S
H636 C650 0.960 . S
H637 C650 0.961 . S
H638 C650 0.959 . S
H639 C653 0.929 . S
H640 C654 0.931 . S
H641 C656 0.930 . S
C642 H630 0.930 . S
C642 C643 1.399 . S
C642 C647 1.399 . S
C643 C642 1.399 . S
C643 C644 1.376 . S
C644 H631 0.930 . S
C644 C643 1.376 . S
C644 C645 1.388 . S
C645 H632 0.930 . S
C645 C644 1.388 . S
C645 C646 1.390 . S
C646 C645 1.390 . S
C646 C647 1.394 . S
C646 C652 1.465 . S
C647 C642 1.399 . S
C647 C646 1.394 . S
C647 C648 1.516 . S
C648 C647 1.516 . S
C648 C649 1.502 . S
C648 C650 1.561 . S
C648 C651 1.526 . S
C649 H633 0.959 . S
C649 H634 0.959 . S
C649 H635 0.961 . S
C649 C648 1.502 . S
C650 H636 0.960 . S
C650 H637 0.961 . S
C650 H638 0.959 . S
C650 C648 1.561 . S
C651 C648 1.526 . S
C651 C652 1.396 . S
C651 C656 1.390 . S
C652 C646 1.465 . S
C652 C651 1.396 . S
C652 C653 1.399 . S
C653 H639 0.929 . S
C653 C652 1.399 . S
C653 C654 1.385 . S
C654 H640 0.931 . S
C654 C653 1.385 . S
C654 C655 1.389 . S
C655 C654 1.389 . S
C655 C656 1.387 . S
C656 H641 0.930 . S
C656 C651 1.390 . S
C656 C655 1.387 . S
H657 C669 0.930 . S
H658 C671 0.930 . S
H659 C672 0.930 . S
H660 C676 0.959 . S
H661 C676 0.959 . S
H662 C676 0.961 . S
H663 C677 0.960 . S
H664 C677 0.961 . S
H665 C677 0.959 . S
H666 C680 0.929 . S
H667 C681 0.931 . S
H668 C683 0.930 . S
C669 H657 0.930 . S
C669 C670 1.399 . S
C669 C674 1.399 . S
C670 C669 1.399 . S
C670 C671 1.376 . S
C671 H658 0.930 . S
C671 C670 1.376 . S
C671 C672 1.388 . S
C672 H659 0.930 . S
C672 C671 1.388 . S
C672 C673 1.390 . S
C673 C672 1.390 . S
C673 C674 1.394 . S
C673 C679 1.465 . S
C674 C669 1.399 . S
C674 C673 1.394 . S
C674 C675 1.516 . S
C675 C674 1.516 . S
C675 C676 1.502 . S
C675 C677 1.561 . S
C675 C678 1.526 . S
C676 H660 0.959 . S
C676 H661 0.959 . S
C676 H662 0.961 . S
C676 C675 1.502 . S
C677 H663 0.960 . S
C677 H664 0.961 . S
C677 H665 0.959 . S
C677 C675 1.561 . S
C678 C675 1.526 . S
C678 C679 1.396 . S
C678 C683 1.390 . S
C679 C673 1.465 . S
C679 C678 1.396 . S
C679 C680 1.399 . S
C680 H666 0.929 . S
C680 C679 1.399 . S
C680 C681 1.385 . S
C681 H667 0.931 . S
C681 C680 1.385 . S
C681 C682 1.389 . S
C682 C681 1.389 . S
C682 C683 1.387 . S
C683 H668 0.930 . S
C683 C678 1.390 . S
C683 C682 1.387 . S
H684 C696 0.930 . S
H685 C698 0.930 . S
H686 C699 0.930 . S
H687 C703 0.959 . S
H688 C703 0.959 . S
H689 C703 0.961 . S
H690 C704 0.960 . S
H691 C704 0.961 . S
H692 C704 0.959 . S
H693 C707 0.929 . S
H694 C708 0.931 1_655 S
H695 C710 0.930 . S
C696 H684 0.930 . S
C696 C697 1.399 . S
C696 C701 1.399 . S
C697 C696 1.399 . S
C697 C698 1.376 1_455 S
C698 H685 0.930 . S
C698 C697 1.376 1_655 S
C698 C699 1.388 . S
C699 H686 0.930 . S
C699 C698 1.388 . S
C699 C700 1.390 1_655 S
C700 C699 1.390 1_455 S
C700 C701 1.394 . S
C700 C706 1.465 . S
C701 C696 1.399 . S
C701 C700 1.394 . S
C701 C702 1.516 . S
C702 C701 1.516 . S
C702 C703 1.502 . S
C702 C704 1.561 . S
C702 C705 1.526 . S
C703 H687 0.959 . S
C703 H688 0.959 . S
C703 H689 0.961 . S
C703 C702 1.502 . S
C704 H690 0.960 . S
C704 H691 0.961 . S
C704 H692 0.959 . S
C704 C702 1.561 . S
C705 C702 1.526 . S
C705 C706 1.396 . S
C705 C710 1.390 . S
C706 C700 1.465 . S
C706 C705 1.396 . S
C706 C707 1.399 1_455 S
C707 H693 0.929 . S
C707 C706 1.399 1_655 S
C707 C708 1.385 1_655 S
C708 H694 0.931 1_455 S
C708 C707 1.385 1_455 S
C708 C709 1.389 . S
C709 C708 1.389 . S
C709 C710 1.387 . S
C710 H695 0.930 . S
C710 C705 1.390 . S
C710 C709 1.387 . S
H711 C723 0.930 . S
H712 C725 0.930 . S
H713 C726 0.930 . S
H714 C730 0.959 . S
H715 C730 0.959 . S
H716 C730 0.961 . S
H717 C731 0.960 . S
H718 C731 0.961 . S
H719 C731 0.959 . S
H720 C734 0.929 . S
H721 C735 0.931 . S
H722 C737 0.930 . S
C723 H711 0.930 . S
C723 C724 1.399 . S
C723 C728 1.399 . S
C724 C723 1.399 . S
C724 C725 1.376 1_545 S
C725 H712 0.930 . S
C725 C724 1.376 1_565 S
C725 C726 1.388 . S
C726 H713 0.930 . S
C726 C725 1.388 . S
C726 C727 1.390 1_565 S
C727 C726 1.390 1_545 S
C727 C728 1.394 . S
C727 C733 1.465 . S
C728 C723 1.399 . S
C728 C727 1.394 . S
C728 C729 1.516 . S
C729 C728 1.516 . S
C729 C730 1.502 . S
C729 C731 1.561 . S
C729 C732 1.526 . S
C730 H714 0.959 . S
C730 H715 0.959 . S
C730 H716 0.961 . S
C730 C729 1.502 . S
C731 H717 0.960 . S
C731 H718 0.961 . S
C731 H719 0.959 . S
C731 C729 1.561 . S
C732 C729 1.526 . S
C732 C733 1.396 . S
C732 C737 1.390 . S
C733 C727 1.465 . S
C733 C732 1.396 . S
C733 C734 1.399 1_545 S
C734 H720 0.929 . S
C734 C733 1.399 1_565 S
C734 C735 1.385 . S
C735 H721 0.931 . S
C735 C734 1.385 . S
C735 C736 1.389 1_565 S
C736 C735 1.389 1_545 S
C736 C737 1.387 . S
C737 H722 0.930 . S
C737 C732 1.390 . S
C737 C736 1.387 . S
H738 C750 0.930 . S
H739 C752 0.930 . S
H740 C753 0.930 . S
H741 C757 0.959 . S
H742 C757 0.959 . S
H743 C757 0.961 . S
H744 C758 0.960 . S
H745 C758 0.961 . S
H746 C758 0.959 . S
H747 C761 0.929 . S
H748 C762 0.931 . S
H749 C764 0.930 . S
C750 H738 0.930 . S
C750 C751 1.399 . S
C750 C755 1.399 . S
C751 C750 1.399 . S
C751 C752 1.376 . S
C752 H739 0.930 . S
C752 C751 1.376 . S
C752 C753 1.388 . S
C753 H740 0.930 . S
C753 C752 1.388 . S
C753 C754 1.390 . S
C754 C753 1.390 . S
C754 C755 1.394 . S
C754 C760 1.465 . S
C755 C750 1.399 . S
C755 C754 1.394 . S
C755 C756 1.516 . S
C756 C755 1.516 . S
C756 C757 1.502 . S
C756 C758 1.561 . S
C756 C759 1.526 . S
C757 H741 0.959 . S
C757 H742 0.959 . S
C757 H743 0.961 . S
C757 C756 1.502 . S
C758 H744 0.960 . S
C758 H745 0.961 . S
C758 H746 0.959 . S
C758 C756 1.561 . S
C759 C756 1.526 . S
C759 C760 1.396 . S
C759 C764 1.390 . S
C760 C754 1.465 . S
C760 C759 1.396 . S
C760 C761 1.399 . S
C761 H747 0.929 . S
C761 C760 1.399 . S
C761 C762 1.385 . S
C762 H748 0.931 . S
C762 C761 1.385 . S
C762 C763 1.389 . S
C763 C762 1.389 . S
C763 C764 1.387 . S
C764 H749 0.930 . S
C764 C759 1.390 . S
C764 C763 1.387 . S
H765 C777 0.930 . S
H766 C779 0.930 . S
H767 C780 0.930 . S
H768 C784 0.959 . S
H769 C784 0.959 . S
H770 C784 0.961 . S
H771 C785 0.960 . S
H772 C785 0.961 . S
H773 C785 0.959 . S
H774 C788 0.929 . S
H775 C789 0.931 . S
H776 C791 0.930 . S
C777 H765 0.930 . S
C777 C778 1.399 . S
C777 C782 1.399 . S
C778 C777 1.399 . S
C778 C779 1.376 1_545 S
C779 H766 0.930 . S
C779 C778 1.376 1_565 S
C779 C780 1.388 . S
C780 H767 0.930 . S
C780 C779 1.388 . S
C780 C781 1.390 . S
C781 C780 1.390 . S
C781 C782 1.394 1_565 S
C781 C787 1.465 . S
C782 C777 1.399 . S
C782 C781 1.394 1_545 S
C782 C783 1.516 . S
C783 C782 1.516 . S
C783 C784 1.502 . S
C783 C785 1.561 . S
C783 C786 1.526 . S
C784 H768 0.959 . S
C784 H769 0.959 . S
C784 H770 0.961 . S
C784 C783 1.502 . S
C785 H771 0.960 . S
C785 H772 0.961 . S
C785 H773 0.959 . S
C785 C783 1.561 . S
C786 C783 1.526 . S
C786 C787 1.396 1_545 S
C786 C791 1.390 . S
C787 C781 1.465 . S
C787 C786 1.396 1_565 S
C787 C788 1.399 . S
C788 H774 0.929 . S
C788 C787 1.399 . S
C788 C789 1.385 . S
C789 H775 0.931 . S
C789 C788 1.385 . S
C789 C790 1.389 . S
C790 C789 1.389 . S
C790 C791 1.387 1_565 S
C791 H776 0.930 . S
C791 C786 1.390 . S
C791 C790 1.387 1_545 S
H792 C804 0.930 . S
H793 C806 0.930 . S
H794 C807 0.930 . S
H795 C811 0.959 . S
H796 C811 0.959 . S
H797 C811 0.961 . S
H798 C812 0.960 . S
H799 C812 0.961 . S
H800 C812 0.959 . S
H801 C815 0.929 . S
H802 C816 0.931 . S
H803 C818 0.930 . S
C804 H792 0.930 . S
C804 C805 1.399 . S
C804 C809 1.399 . S
C805 C804 1.399 . S
C805 C806 1.376 . S
C806 H793 0.930 . S
C806 C805 1.376 . S
C806 C807 1.388 . S
C807 H794 0.930 . S
C807 C806 1.388 . S
C807 C808 1.390 . S
C808 C807 1.390 . S
C808 C809 1.394 . S
C808 C814 1.465 . S
C809 C804 1.399 . S
C809 C808 1.394 . S
C809 C810 1.516 . S
C810 C809 1.516 . S
C810 C811 1.502 . S
C810 C812 1.561 . S
C810 C813 1.526 . S
C811 H795 0.959 . S
C811 H796 0.959 . S
C811 H797 0.961 . S
C811 C810 1.502 . S
C812 H798 0.960 . S
C812 H799 0.961 . S
C812 H800 0.959 . S
C812 C810 1.561 . S
C813 C810 1.526 . S
C813 C814 1.396 . S
C813 C818 1.390 . S
C814 C808 1.465 . S
C814 C813 1.396 . S
C814 C815 1.399 . S
C815 H801 0.929 . S
C815 C814 1.399 . S
C815 C816 1.385 . S
C816 H802 0.931 . S
C816 C815 1.385 . S
C816 C817 1.389 . S
C817 C816 1.389 . S
C817 C818 1.387 . S
C818 H803 0.930 . S
C818 C813 1.390 . S
C818 C817 1.387 . S
H819 C831 0.930 . S
H820 C833 0.930 . S
H821 C834 0.930 . S
H822 C838 0.959 . S
H823 C838 0.959 . S
H824 C838 0.961 . S
H825 C839 0.960 . S
H826 C839 0.961 . S
H827 C839 0.959 . S
H828 C842 0.929 . S
H829 C843 0.931 . S
H830 C845 0.930 . S
C831 H819 0.930 . S
C831 C832 1.399 . S
C831 C836 1.399 . S
C832 C831 1.399 . S
C832 C833 1.376 1_455 S
C833 H820 0.930 . S
C833 C832 1.376 1_655 S
C833 C834 1.388 . S
C834 H821 0.930 . S
C834 C833 1.388 . S
C834 C835 1.390 . S
C835 C834 1.390 . S
C835 C836 1.394 1_655 S
C835 C841 1.465 . S
C836 C831 1.399 . S
C836 C835 1.394 1_455 S
C836 C837 1.516 . S
C837 C836 1.516 . S
C837 C838 1.502 . S
C837 C839 1.561 . S
C837 C840 1.526 . S
C838 H822 0.959 . S
C838 H823 0.959 . S
C838 H824 0.961 . S
C838 C837 1.502 . S
C839 H825 0.960 . S
C839 H826 0.961 . S
C839 H827 0.959 . S
C839 C837 1.561 . S
C840 C837 1.526 . S
C840 C841 1.396 1_455 S
C840 C845 1.390 . S
C841 C835 1.465 . S
C841 C840 1.396 1_655 S
C841 C842 1.399 . S
C842 H828 0.929 . S
C842 C841 1.399 . S
C842 C843 1.385 . S
C843 H829 0.931 . S
C843 C842 1.385 . S
C843 C844 1.389 . S
C844 C843 1.389 . S
C844 C845 1.387 1_655 S
C845 H830 0.930 . S
C845 C840 1.390 . S
C845 C844 1.387 1_455 S
C373 C7 0.676 . S
C385 C335 0.527 . S
C400 C51 1.975 . S
C412 C242 1.928 . S
C427 C87 1.204 . S
C439 C282 1.215 . S
C454 C16 0.301 . S
C466 C322 0.275 . S
C493 C255 2.053 . S
C481 C42 2.127 . S
C520 C295 1.311 . S
C508 C96 1.318 . S
C535 C47 1.211 . S
C547 C162 1.211 . S
C562 C91 3.169 . S
C574 C202 3.118 . S
C589 C2 2.151 . S
C601 C135 2.090 . S
C628 C175 1.297 . S
C616 C56 1.290 . S
C655 C215 3.036 . S
C643 C82 3.079 . S
C670 C11 1.963 . S
C682 C122 1.926 . S
C709 C221 1.728 1_554 S
C697 C19 1.722 . S
C724 C50 1.312 . S
C736 C141 1.389 . S
C751 C99 1.484 . S
C763 C181 1.503 . S
C790 C301 1.478 . S
C778 C59 1.440 . S
C817 C341 1.127 . S
C805 C90 1.093 . S
C832 C10 1.351 . S
C844 C261 1.371 . S
