# Generated by pormake.
# Topology zzz, (3,6)-cn, num edge types: 1
# Building blocks:
#     Node 0, Type 0, BuildingBlock: OLANEW_clean_sbu_2, # of connection points: 3
#     Node 1, Type 0, BuildingBlock: OLANEW_clean_sbu_2, # of connection points: 3
#     Node 2, Type 0, BuildingBlock: OLANEW_clean_sbu_2, # of connection points: 3
#     Node 3, Type 0, BuildingBlock: OLANEW_clean_sbu_2, # of connection points: 3
#     Node 4, Type 0, BuildingBlock: OLANEW_clean_sbu_2, # of connection points: 3
#     Node 5, Type 0, BuildingBlock: OLANEW_clean_sbu_2, # of connection points: 3
#     Node 6, Type 0, BuildingBlock: OLANEW_clean_sbu_2, # of connection points: 3
#     Node 7, Type 0, BuildingBlock: OLANEW_clean_sbu_2, # of connection points: 3
#     Node 8, Type 1, BuildingBlock: BETDIP_clean_sbu_0, # of connection points: 6
#     Node 9, Type 1, BuildingBlock: BETDIP_clean_sbu_0, # of connection points: 6
#     Node 10, Type 1, BuildingBlock: BETDIP_clean_sbu_0, # of connection points: 6
#     Node 11, Type 1, BuildingBlock: BETDIP_clean_sbu_0, # of connection points: 6
#     Edge 12, Type (0, 1), BuildingBlock: MIFKUJ_clean_linker_0, # of connection points: 2
#     Edge 13, Type (0, 1), BuildingBlock: MIFKUJ_clean_linker_0, # of connection points: 2
#     Edge 14, Type (0, 1), BuildingBlock: MIFKUJ_clean_linker_0, # of connection points: 2
#     Edge 15, Type (0, 1), BuildingBlock: MIFKUJ_clean_linker_0, # of connection points: 2
#     Edge 16, Type (0, 1), BuildingBlock: MIFKUJ_clean_linker_0, # of connection points: 2
#     Edge 17, Type (0, 1), BuildingBlock: MIFKUJ_clean_linker_0, # of connection points: 2
#     Edge 18, Type (0, 1), BuildingBlock: MIFKUJ_clean_linker_0, # of connection points: 2
#     Edge 19, Type (0, 1), BuildingBlock: MIFKUJ_clean_linker_0, # of connection points: 2
#     Edge 20, Type (0, 1), BuildingBlock: MIFKUJ_clean_linker_0, # of connection points: 2
#     Edge 21, Type (0, 1), BuildingBlock: MIFKUJ_clean_linker_0, # of connection points: 2
#     Edge 22, Type (0, 1), BuildingBlock: MIFKUJ_clean_linker_0, # of connection points: 2
#     Edge 23, Type (0, 1), BuildingBlock: MIFKUJ_clean_linker_0, # of connection points: 2
#     Edge 24, Type (0, 1), BuildingBlock: MIFKUJ_clean_linker_0, # of connection points: 2
#     Edge 25, Type (0, 1), BuildingBlock: MIFKUJ_clean_linker_0, # of connection points: 2
#     Edge 26, Type (0, 1), BuildingBlock: MIFKUJ_clean_linker_0, # of connection points: 2
#     Edge 27, Type (0, 1), BuildingBlock: MIFKUJ_clean_linker_0, # of connection points: 2
#     Edge 28, Type (0, 1), BuildingBlock: MIFKUJ_clean_linker_0, # of connection points: 2
#     Edge 29, Type (0, 1), BuildingBlock: MIFKUJ_clean_linker_0, # of connection points: 2
#     Edge 30, Type (0, 1), BuildingBlock: MIFKUJ_clean_linker_0, # of connection points: 2
#     Edge 31, Type (0, 1), BuildingBlock: MIFKUJ_clean_linker_0, # of connection points: 2
#     Edge 32, Type (0, 1), BuildingBlock: MIFKUJ_clean_linker_0, # of connection points: 2
#     Edge 33, Type (0, 1), BuildingBlock: MIFKUJ_clean_linker_0, # of connection points: 2
#     Edge 34, Type (0, 1), BuildingBlock: MIFKUJ_clean_linker_0, # of connection points: 2
#     Edge 35, Type (0, 1), BuildingBlock: MIFKUJ_clean_linker_0, # of connection points: 2
# Relax obj value: 0.211
# Max RMSD: 0.157
# Mean RMSD: 0.156
data_MOF--net-zzz--node1-OLANEW_clean_sbu_2--node2-BETDIP_clean_sbu_0--edge1-MIFKUJ_clean_linker_0
_symmetry_space_group_name_H-M    P1
_symmetry_Int_Tables_number       1
_symmetry_cell_setting            triclinic
loop_
_symmetry_equiv_pos_as_xyz
'x, y, z'
_cell_length_a     71.603757
_cell_length_b     71.636988
_cell_length_c     19.554493
_cell_angle_alpha  89.931494
_cell_angle_beta   89.978322
_cell_angle_gamma 89.985136
loop_
_atom_site_label
_atom_site_type_symbol
_atom_site_fract_x
_atom_site_fract_y
_atom_site_fract_z
_atom_type_partial_charge
O0 O 0.73991 0.52221 0.23207 0.0
Cd1 Cd 0.71147 0.53344 0.28731 0.0
O2 O 0.7358 0.49568 0.28616 0.0
Cd3 Cd 0.74918 0.47065 0.32488 0.0
O4 O 0.77636 0.47258 0.37313 0.0
C5 C 0.77751 0.47834 0.43441 0.0
O6 O 0.76216 0.48099 0.46992 0.0
C7 C 0.7454 0.50578 0.24594 0.0
C8 C 0.68009 0.52686 0.20702 0.0
O9 O 0.68918 0.54223 0.20235 0.0
O10 O 0.68583 0.51461 0.24994 0.0
O11 O 0.96717 0.73684 0.24722 0.0
Cd12 Cd 0.96466 0.70774 0.31129 0.0
O13 O 0.99557 0.73821 0.28859 0.0
Cd14 Cd 0.02184 0.7529 0.30393 0.0
O15 O 0.03208 0.77931 0.34232 0.0
C16 C 0.03132 0.78172 0.40655 0.0
O17 O 0.02705 0.76746 0.44589 0.0
C18 C 0.9825 0.74555 0.25363 0.0
C19 C 0.97265 0.6772 0.22916 0.0
O20 O 0.95586 0.68309 0.2365 0.0
O21 O 0.98572 0.68574 0.26113 0.0
O22 O 0.75921 0.97006 0.1603 0.0
Cd23 Cd 0.7861 0.95271 0.20439 0.0
O24 O 0.75661 0.97787 0.26742 0.0
Cd25 Cd 0.74486 0.98953 0.36059 0.0
O26 O 0.72497 0.99107 0.44381 0.0
C27 C 0.71646 0.00613 0.45764 0.0
O28 O 0.72071 0.02136 0.42352 0.0
C29 C 0.75003 0.97828 0.20696 0.0
C30 C 0.8202 0.96143 0.14428 0.0
O31 O 0.80966 0.94863 0.11961 0.0
O32 O 0.81443 0.97037 0.19696 0.0
O33 O 0.52046 0.76349 0.23397 0.0
Cd34 Cd 0.52885 0.78984 0.30693 0.0
O35 O 0.49471 0.76064 0.29301 0.0
Cd36 Cd 0.47178 0.74497 0.33843 0.0
O37 O 0.46956 0.72264 0.41297 0.0
C38 C 0.48429 0.72094 0.44866 0.0
O39 O 0.49793 0.73295 0.43937 0.0
C40 C 0.50547 0.75462 0.24617 0.0
C41 C 0.52506 0.82364 0.23901 0.0
O42 O 0.54013 0.81406 0.23435 0.0
O43 O 0.51178 0.81724 0.27624 0.0
O44 O 0.26913 0.53542 0.14964 0.0
Cd45 Cd 0.29844 0.54032 0.08869 0.0
O46 O 0.26677 0.50985 0.09001 0.0
Cd47 Cd 0.2557 0.48448 0.04328 0.0
O48 O 0.23315 0.47521 0.97711 0.0
C49 C 0.22538 0.48864 0.94561 0.0
O50 O 0.23212 0.50556 0.95366 0.0
C51 C 0.25988 0.52087 0.13457 0.0
C52 C 0.32815 0.52955 0.17105 0.0
O53 O 0.32236 0.54648 0.17035 0.0
O54 O 0.32005 0.51775 0.1318 0.0
O55 O 0.95781 0.27461 0.16944 0.0
Cd56 Cd 0.9522 0.30194 0.0975 0.0
O57 O 0.97988 0.26891 0.09548 0.0
Cd58 Cd 0.99927 0.25109 0.04027 0.0
O59 O 0.00425 0.22806 0.97082 0.0
C60 C 0.01661 0.22716 0.92433 0.0
O61 O 0.02855 0.24092 0.91655 0.0
C62 C 0.97099 0.26415 0.14906 0.0
C63 C 0.96562 0.33373 0.16189 0.0
O64 O 0.94862 0.32849 0.16912 0.0
O65 O 0.97628 0.32407 0.12292 0.0
O66 O 0.24001 0.97475 0.09669 0.0
Cd67 Cd 0.20889 0.97057 0.04754 0.0
O68 O 0.24355 0.99742 0.02322 0.0
Cd69 Cd 0.2552 0.02198 0.97277 0.0
O70 O 0.25139 0.04674 0.90085 0.0
C71 C 0.26269 0.05023 0.85186 0.0
O72 O 0.25071 0.04733 0.90103 0.0
C73 C 0.25014 0.98764 0.07182 0.0
C74 C 0.18049 0.97684 0.14255 0.0
O75 O 0.1871 0.96043 0.1327 0.0
O76 O 0.18735 0.99034 0.10755 0.0
O77 O 0.53517 0.22512 0.15207 0.0
Cd78 Cd 0.53659 0.19563 0.08973 0.0
O79 O 0.50728 0.22692 0.10707 0.0
Cd80 Cd 0.48425 0.24422 0.07341 0.0
O81 O 0.48169 0.27022 0.01785 0.0
C82 C 0.48024 0.27083 0.95314 0.0
O83 O 0.47854 0.25525 0.91836 0.0
C84 C 0.52002 0.23406 0.14388 0.0
C85 C 0.52251 0.16642 0.16787 0.0
O86 O 0.54012 0.16947 0.16433 0.0
O87 O 0.51153 0.17713 0.13404 0.0
Tb88 Tb 0.01293 0.99645 0.74907 0.0
Tb89 Tb 0.9968 0.00842 0.61245 0.0
C90 C 0.01736 0.9816 0.86457 0.0
C91 C 0.01372 0.96313 0.89496 0.0
C92 C 0.99837 0.95227 0.8746 0.0
C93 C 0.99538 0.93464 0.90354 0.0
C94 C 0.00769 0.92754 0.95335 0.0
C95 C 0.02305 0.93851 0.97337 0.0
C96 C 0.02601 0.95611 0.94445 0.0
C97 C 0.03734 0.00098 0.65 0.0
C98 C 0.99698 0.96621 0.64269 0.0
C99 C 0.99106 0.02428 0.4997 0.0
C100 C 0.9923 0.04388 0.47653 0.0
C101 C 0.00796 0.05494 0.4916 0.0
C102 C 0.00815 0.07394 0.47504 0.0
C103 C 0.99279 0.08225 0.44198 0.0
C104 C 0.97737 0.07095 0.4251 0.0
C105 C 0.97711 0.05201 0.44249 0.0
C106 C 0.97265 0.00305 0.71115 0.0
C107 C 0.01446 0.03848 0.71598 0.0
O108 O 0.00271 0.99155 0.84784 0.0
O109 O 0.0304 0.98218 0.81774 0.0
O110 O 0.02124 0.99416 0.64466 0.0
O111 O 0.04086 0.00441 0.71388 0.0
O112 O 0.00061 0.97072 0.70717 0.0
O113 O 0.99708 0.97879 0.59314 0.0
O114 O 0.00676 0.0159 0.51531 0.0
O115 O 0.97787 0.02082 0.54426 0.0
O116 O 0.98846 0.01054 0.71665 0.0
O117 O 0.96938 0.99911 0.6476 0.0
O118 O 0.00954 0.0339 0.65291 0.0
O119 O 0.01472 0.0262 0.76639 0.0
H120 H 0.98868 0.9574 0.8364 0.0
H121 H 0.98331 0.92668 0.88746 0.0
H122 H 0.03296 0.93338 0.01074 0.0
H123 H 0.038 0.96424 0.9605 0.0
H124 H 0.01994 0.049 0.51755 0.0
H125 H 0.02019 0.08217 0.48956 0.0
H126 H 0.96546 0.07668 0.39819 0.0
H127 H 0.96491 0.04373 0.43006 0.0
Tb128 Tb 0.4957 0.01063 0.79087 0.0
Tb129 Tb 0.48738 0.99147 0.65499 0.0
C130 C 0.50882 0.01863 0.90639 0.0
C131 C 0.52784 0.02085 0.93413 0.0
C132 C 0.53184 0.01434 5e-05 0.0
C133 C 0.55007 0.01507 0.02556 0.0
C134 C 0.56476 0.02233 0.98557 0.0
C135 C 0.56052 0.02934 0.92001 0.0
C136 C 0.54228 0.02854 0.8945 0.0
C137 C 0.48918 0.03259 0.68598 0.0
C138 C 0.5292 0.99649 0.6939 0.0
C139 C 0.47596 0.98445 0.53607 0.0
C140 C 0.45871 0.98675 0.49624 0.0
C141 C 0.44395 0.99782 0.52039 0.0
C142 C 0.42768 -0.00013 0.48154 0.0
C143 C 0.42599 0.99105 0.41757 0.0
C144 C 0.4409 0.98009 0.39347 0.0
C145 C 0.45709 0.97793 0.43263 0.0
C146 C 0.49478 0.96927 0.7575 0.0
C147 C 0.45416 0.0046 0.75507 0.0
O148 O 0.50427 0.00165 0.88815 0.0
O149 O 0.50331 0.03115 0.86188 0.0
O150 O 0.49818 0.01759 0.68579 0.0
O151 O 0.48431 0.03665 0.74813 0.0
O152 O 0.52357 0.0024 0.75477 0.0
O153 O 0.5174 0.99288 0.64363 0.0
O154 O 0.4846 -0.00011 0.55298 0.0
O155 O 0.47532 0.97243 0.58653 0.0
O156 O 0.48547 0.98414 0.76001 0.0
O157 O 0.49912 0.96548 0.69456 0.0
O158 O 0.45974 0.00073 0.69181 0.0
O159 O 0.46611 0.00675 0.80593 0.0
H160 H 0.52092 0.00823 0.03127 0.0
H161 H 0.55269 0.00919 0.07566 0.0
H162 H 0.57128 0.03541 0.88806 0.0
H163 H 0.53953 0.0337 0.84339 0.0
H164 H 0.44504 0.00495 0.56895 0.0
H165 H 0.41652 0.00857 0.50112 0.0
H166 H 0.43993 0.97297 0.34478 0.0
H167 H 0.46837 0.96935 0.41319 0.0
Tb168 Tb 0.49423 0.501 0.76501 0.0
Tb169 Tb 0.50937 0.49066 0.62546 0.0
C170 C 0.49042 0.51522 0.88156 0.0
C171 C 0.49124 0.53446 0.90783 0.0
C172 C 0.50429 0.54729 0.88216 0.0
C173 C 0.50396 0.56589 0.90354 0.0
C174 C 0.49079 0.57194 0.95215 0.0
C175 C 0.47801 0.5589 0.97884 0.0
C176 C 0.47819 0.54036 0.9566 0.0
C177 C 0.46907 0.49576 0.6694 0.0
C178 C 0.50713 0.53274 0.65802 0.0
C179 C 0.51434 0.47518 0.51165 0.0
C180 C 0.51397 0.45551 0.48767 0.0
C181 C 0.49765 0.44797 0.45887 0.0
C182 C 0.49723 0.42947 0.43604 0.0
C183 C 0.51316 0.41807 0.44113 0.0
C184 C 0.52947 0.4256 0.47019 0.0
C185 C 0.52989 0.44409 0.49297 0.0
C186 C 0.53416 0.49602 0.72207 0.0
C187 C 0.49491 0.45919 0.73024 0.0
O188 O 0.50615 0.50809 0.85933 0.0
O189 O 0.4764 0.51164 0.84072 0.0
O190 O 0.48469 0.5035 0.66231 0.0
O191 O 0.46637 0.4918 0.73341 0.0
O192 O 0.50436 0.52766 0.72258 0.0
O193 O 0.50725 0.52044 0.60756 0.0
O194 O 0.49836 0.48238 0.53081 0.0
O195 O 0.52799 0.47987 0.55274 0.0
O196 O 0.51873 0.48791 0.72806 0.0
O197 O 0.53677 0.50083 0.65884 0.0
O198 O 0.49824 0.46427 0.6662 0.0
O199 O 0.49518 0.47125 0.78119 0.0
H200 H 0.51467 0.54298 0.84519 0.0
H201 H 0.51394 0.57554 0.88157 0.0
H202 H 0.4679 0.56298 0.01724 0.0
H203 H 0.46803 0.53065 0.97714 0.0
H204 H 0.48519 0.45643 0.45374 0.0
H205 H 0.48452 0.42421 0.41308 0.0
H206 H 0.54193 0.41715 0.47566 0.0
H207 H 0.54273 0.44941 0.51475 0.0
Tb208 Tb 0.99553 0.49213 0.76415 0.0
Tb209 Tb 0.00664 0.5102 0.63081 0.0
C210 C 0.97974 0.4848 0.8756 0.0
C211 C 0.95994 0.48275 0.8965 0.0
C212 C 0.95079 0.49759 0.92907 0.0
C213 C 0.93206 0.49606 0.94809 0.0
C214 C 0.92199 0.4796 0.93521 0.0
C215 C 0.93116 0.46465 0.90292 0.0
C216 C 0.94994 0.4662 0.8838 0.0
C217 C 0.00175 0.46918 0.66238 0.0
C218 C 0.96429 0.50745 0.65952 0.0
C219 C 0.02199 0.51756 0.51842 0.0
C220 C 0.0409 0.51501 0.48993 0.0
C221 C 0.05047 0.49793 0.49562 0.0
C222 C 0.06871 0.4962 0.4707 0.0
C223 C 0.07772 0.51153 0.44027 0.0
C224 C 0.06808 0.52854 0.43444 0.0
C225 C 0.04982 0.53023 0.45882 0.0
C226 C -6e-05 0.53322 0.73213 0.0
C227 C 0.03739 0.49364 0.73296 0.0
O228 O 0.98509 0.50163 0.85804 0.0
O229 O 0.9865 0.47202 0.83473 0.0
O230 O 0.99376 0.48475 0.65904 0.0
O231 O 0.00551 0.46523 0.72557 0.0
O232 O 0.96884 0.5022 0.7224 0.0
O233 O 0.97696 0.50964 0.61098 0.0
O234 O 0.01211 0.50246 0.52939 0.0
O235 O 0.02069 0.52952 0.5687 0.0
O236 O 0.00828 0.51779 0.73631 0.0
O237 O 0.99606 0.53681 0.66871 0.0
O238 O 0.03242 0.49728 0.66908 0.0
O239 O 0.02519 0.49388 0.78365 0.0
H240 H 0.95818 0.51043 0.93976 0.0
H241 H 0.92551 0.50768 0.974 0.0
H242 H 0.92378 0.45182 0.89181 0.0
H243 H 0.95656 0.45444 0.85885 0.0
H244 H 0.04397 0.48598 0.51991 0.0
H245 H 0.07591 0.48298 0.47635 0.0
H246 H 0.07463 0.54052 0.41057 0.0
H247 H 0.04271 0.54352 0.454 0.0
H248 H 0.16074 0.9507 0.21405 0.0
H249 H 0.13573 0.95596 0.29675 0.0
H250 H 0.1413 0.01547 0.26904 0.0
H251 H 0.16604 0.01029 0.18489 0.0
H252 H 0.13565 0.97241 0.41576 0.0
H253 H 0.09896 0.03645 0.29542 0.0
H254 H 0.09324 0.05029 0.18172 0.0
H255 H 0.09826 0.99621 0.08901 0.0
H256 H 0.10377 0.98203 0.20221 0.0
H257 H 0.07355 0.01248 0.65694 0.0
H258 H 0.09756 0.00963 0.56813 0.0
H259 H 0.057 0.98544 0.43134 0.0
H260 H 0.03305 0.98805 0.52004 0.0
H261 H 0.0795 0.01068 0.36583 0.0
H262 H 0.08628 0.95731 0.51162 0.0
H263 H 0.09 0.94083 0.62162 0.0
H264 H 0.14208 0.96906 0.65547 0.0
H265 H 0.13848 0.98587 0.54596 0.0
C266 C 0.15661 0.96491 0.22535 0.0
C267 C 0.16535 0.98008 0.19278 0.0
C268 C 0.14233 0.9679 0.27278 0.0
C269 C 0.13651 0.9861 0.28875 0.0
C270 C 0.14532 0.00129 0.25671 0.0
C271 C 0.15953 0.99831 0.20884 0.0
C272 C 0.12148 0.98908 0.33996 0.0
C273 C 0.12342 0.98084 0.40475 0.0
C274 C 0.10538 -0.00011 0.32556 0.0
C275 C 0.10199 0.00823 0.25722 0.0
C276 C 0.0988 0.02752 0.25077 0.0
C277 C 0.0956 0.03542 0.18642 0.0
C278 C 0.09546 0.02415 0.12815 0.0
C279 C 0.09845 0.00494 0.13415 0.0
C280 C 0.10165 0.99697 0.19838 0.0
C281 C 0.06976 0.00668 0.60775 0.0
C282 C 0.05147 0.00051 0.59525 0.0
C283 C 0.08346 0.00503 0.55718 0.0
C284 C 0.07907 0.99718 0.49339 0.0
C285 C 0.06067 0.99155 0.48018 0.0
C286 C 0.047 0.99308 0.53084 0.0
C287 C 0.09382 0.99415 0.44138 0.0
C288 C 0.09183 0.00239 0.3767 0.0
C289 C 0.10971 0.98305 0.4553 0.0
C290 C 0.11198 0.97298 0.52107 0.0
C291 C 0.09842 0.9601 0.54287 0.0
C292 C 0.10052 0.95068 0.60503 0.0
C293 C 0.11624 0.95394 0.64563 0.0
C294 C 0.12989 0.96658 0.62402 0.0
C295 C 0.12783 0.97604 0.56188 0.0
H296 H 0.11786 0.94664 0.69375 0.0
H297 H 0.09298 0.03029 0.07838 0.0
H298 H 0.54103 0.13571 0.21443 0.0
H299 H 0.52926 0.11164 0.29224 0.0
H300 H 0.47575 0.13917 0.29911 0.0
H301 H 0.48727 0.16312 0.21983 0.0
H302 H 0.49447 0.1312 0.43105 0.0
H303 H 0.47505 0.10128 0.22324 0.0
H304 H 0.47926 0.0891 0.10637 0.0
H305 H 0.52158 0.05142 0.17824 0.0
H306 H 0.51783 0.06357 0.29543 0.0
H307 H 0.46495 0.06158 0.6658 0.0
H308 H 0.46432 0.08315 0.56812 0.0
H309 H 0.5109 0.0538 0.4778 0.0
H310 H 0.51078 0.03179 0.57271 0.0
H311 H 0.48962 0.06348 0.38148 0.0
H312 H 0.51502 0.09594 0.5769 0.0
H313 H 0.51482 0.10839 0.69447 0.0
H314 H 0.46643 0.14143 0.64752 0.0
H315 H 0.46624 0.12899 0.52982 0.0
C316 C 0.5267 0.13653 0.23191 0.0
C317 C 0.51507 0.1513 0.21131 0.0
C318 C 0.51998 0.12274 0.27601 0.0
C319 C 0.50164 0.12365 0.30095 0.0
C320 C 0.48991 0.13824 0.27995 0.0
C321 C 0.49651 0.15185 0.23473 0.0
C322 C 0.49534 0.11009 0.35297 0.0
C323 C 0.49297 0.11642 0.42017 0.0
C324 C 0.49398 0.09082 0.3386 0.0
C325 C 0.49625 0.08345 0.26812 0.0
C326 C 0.48537 0.09052 0.21406 0.0
C327 C 0.48765 0.08359 0.14776 0.0
C328 C 0.50071 0.06952 0.13487 0.0
C329 C 0.51148 0.06232 0.1883 0.0
C330 C 0.50926 0.06921 0.25469 0.0
C331 C 0.4749 0.05973 0.62459 0.0
C332 C 0.488 0.0452 0.62677 0.0
C333 C 0.4746 0.07206 0.56899 0.0
C334 C 0.48781 0.07036 0.51603 0.0
C335 C 0.50053 0.05544 0.5177 0.0
C336 C 0.50053 0.04291 0.57222 0.0
C337 C 0.48923 0.08448 0.46049 0.0
C338 C 0.49073 0.07828 0.39249 0.0
C339 C 0.49036 0.10386 0.47434 0.0
C340 C 0.49047 0.11137 0.54494 0.0
C341 C 0.50427 0.10576 0.59184 0.0
C342 C 0.50424 0.11283 0.65844 0.0
C343 C 0.49058 0.12565 0.67852 0.0
C344 C 0.47697 0.13147 0.63194 0.0
C345 C 0.47692 0.12442 0.56529 0.0
H346 H 0.49058 0.1311 0.73011 0.0
H347 H 0.50245 0.06417 0.08351 0.0
H348 H 0.34118 0.49419 0.19398 0.0
H349 H 0.36472 0.48444 0.27745 0.0
H350 H 0.37309 0.5419 0.33574 0.0
H351 H 0.34938 0.55171 0.25358 0.0
H352 H 0.40114 0.49167 0.29518 0.0
H353 H 0.37958 0.54473 0.50493 0.0
H354 H 0.35127 0.56127 0.54371 0.0
H355 H 0.31691 0.51771 0.4608 0.0
H356 H 0.34501 0.50079 0.42238 0.0
H357 H 0.47159 0.50919 0.5397 0.0
H358 H 0.4472 0.5097 0.45254 0.0
H359 H 0.40966 0.48138 0.59067 0.0
H360 H 0.43418 0.48073 0.67829 0.0
H361 H 0.39379 0.51179 0.53649 0.0
H362 H 0.42517 0.45837 0.45112 0.0
H363 H 0.45165 0.43897 0.41333 0.0
H364 H 0.46382 0.47823 0.25331 0.0
H365 H 0.4374 0.49791 0.29032 0.0
C366 C 0.34811 0.50475 0.22436 0.0
C367 C 0.34331 0.52371 0.21768 0.0
C368 C 0.36158 0.49916 0.27188 0.0
C369 C 0.37042 0.51241 0.3135 0.0
C370 C 0.36616 0.5314 0.30505 0.0
C371 C 0.35265 0.53699 0.25789 0.0
C372 C 0.38379 0.50646 0.36703 0.0
C373 C 0.39953 0.49602 0.34798 0.0
C374 C 0.38139 0.51167 0.43628 0.0
C375 C 0.36441 0.52157 0.46033 0.0
C376 C 0.36599 0.53864 0.49532 0.0
C377 C 0.34998 0.54809 0.51715 0.0
C378 C 0.3323 0.54057 0.50457 0.0
C379 C 0.33061 0.52355 0.47032 0.0
C380 C 0.34657 0.51403 0.44844 0.0
C381 C 0.45826 0.50274 0.55105 0.0
C382 C 0.45475 0.49485 0.61556 0.0
C383 C 0.44435 0.50301 0.50115 0.0
C384 C 0.42668 0.49543 0.51493 0.0
C385 C 0.42324 0.48725 0.57901 0.0
C386 C 0.43721 0.48689 0.62891 0.0
C387 C 0.41145 0.4975 0.4643 0.0
C388 C 0.39534 0.50727 0.48386 0.0
C389 C 0.41334 0.49132 0.39595 0.0
C390 C 0.42938 0.47967 0.37381 0.0
C391 C 0.43357 0.46293 0.40817 0.0
C392 C 0.44852 0.45185 0.38673 0.0
C393 C 0.45943 0.45737 0.331 0.0
C394 C 0.45536 0.47397 0.29646 0.0
C395 C 0.44035 0.48506 0.31752 0.0
H396 H 0.47104 0.44879 0.31458 0.0
H397 H 0.31993 0.54792 0.52144 0.0
H398 H 0.00168 0.34655 0.16748 0.0
H399 H 0.01411 0.37065 0.24405 0.0
H400 H 0.95858 0.3812 0.32021 0.0
H401 H 0.94608 0.35722 0.24464 0.0
H402 H 0.00622 0.40952 0.26994 0.0
H403 H 0.96111 0.37991 0.49089 0.0
H404 H 0.9475 0.34975 0.5261 0.0
H405 H 0.99077 0.32053 0.41816 0.0
H406 H 0.00478 0.35049 0.38319 0.0
H407 H 0.98735 0.47304 0.53474 0.0
H408 H 0.98871 0.45055 0.44126 0.0
H409 H 0.02231 0.41382 0.56589 0.0
H410 H 0.02082 0.43633 0.66012 0.0
H411 H 0.99366 0.39587 0.5147 0.0
H412 H 0.04141 0.43375 0.42307 0.0
H413 H 0.05707 0.46295 0.38926 0.0
H414 H 0.01371 0.47407 0.24323 0.0
H415 H 0.99773 0.4449 0.27621 0.0
C416 C 0.99209 0.35422 0.19979 0.0
C417 C 0.97293 0.34981 0.20079 0.0
C418 C 0.99921 0.36801 0.24319 0.0
C419 C 0.98727 0.37747 0.28819 0.0
C420 C 0.96802 0.37387 0.28624 0.0
C421 C 0.96092 0.36014 0.2431 0.0
C422 C 0.99482 0.38981 0.34195 0.0
C423 C 0.00364 0.40656 0.32352 0.0
C424 C 0.992 0.38555 0.41181 0.0
C425 C 0.98391 0.36745 0.43407 0.0
C426 C 0.96778 0.36705 0.47506 0.0
C427 C 0.95999 0.34998 0.49489 0.0
C428 C 0.96824 0.33323 0.47425 0.0
C429 C 0.98436 0.33351 0.43395 0.0
C430 C 0.99222 0.35053 0.41406 0.0
C431 C 0.99534 0.46034 0.54169 0.0
C432 C 0.00397 0.45635 0.60445 0.0
C433 C 0.9962 0.44754 0.48814 0.0
C434 C 0.0058 0.4306 0.49635 0.0
C435 C 0.0149 0.42685 0.55847 0.0
C436 C 0.014 0.43965 0.61218 0.0
C437 C 0.00441 0.41605 0.44293 0.0
C438 C 0.99666 0.3988 0.46136 0.0
C439 C 0.00865 0.41973 0.37348 0.0
C440 C 0.01831 0.43716 0.3524 0.0
C441 C 0.03515 0.44246 0.38396 0.0
C442 C 0.0441 0.45901 0.36494 0.0
C443 C 0.03635 0.47042 0.31442 0.0
C444 C 0.01969 0.46522 0.28242 0.0
C445 C 0.01072 0.44863 0.30107 0.0
H446 H 0.04327 0.48327 0.29997 0.0
H447 H 0.96217 0.32004 0.48958 0.0
H448 H 0.83593 0.94484 0.03284 0.0
H449 H 0.86589 0.95192 0.97982 0.0
H450 H 0.87621 0.99426 0.13195 0.0
H451 H 0.84597 0.98742 0.18495 0.0
H452 H 0.88388 0.00726 0.00906 0.0
H453 H 0.90164 0.95386 0.13364 0.0
H454 H 0.90006 0.9219 0.18008 0.0
H455 H 0.90383 0.89944 0.97711 0.0
H456 H 0.90521 0.93127 0.92927 0.0
H457 H 0.97282 0.01767 0.84006 0.0
H458 H 0.95089 0.01059 0.93332 0.0
H459 H 0.92247 0.97114 0.80328 0.0
H460 H 0.94422 0.9782 0.71032 0.0
H461 H 0.92875 0.95808 0.93875 0.0
H462 H 0.90544 0.01356 0.81872 0.0
H463 H 0.90846 0.046 0.77771 0.0
H464 H 0.91729 0.06482 0.98359 0.0
H465 H 0.91455 0.03243 0.02568 0.0
C466 C 0.84458 0.9556 0.05532 0.0
C467 C 0.83855 0.96559 0.11304 0.0
C468 C 0.86181 0.95953 0.02527 0.0
C469 C 0.87345 0.97341 0.05258 0.0
C470 C 0.8675 0.98341 0.1103 0.0
C471 C 0.85021 0.9795 0.14044 0.0
C472 C 0.89122 0.97815 0.01765 0.0
C473 C 0.89392 0.99657 0.99516 0.0
C474 C 0.90437 0.96424 0.99951 0.0
C475 C 0.90338 0.945 0.02781 0.0
C476 C 0.90196 0.94212 0.09881 0.0
C477 C 0.90113 0.92402 0.12541 0.0
C478 C 0.90175 0.90865 0.08154 0.0
C479 C 0.9033 0.91136 0.011 0.0
C480 C 0.90414 0.92944 0.98412 0.0
C481 C 0.96197 0.00738 0.83185 0.0
C482 C 0.9601 0.99849 0.76824 0.0
C483 C 0.94949 0.00338 0.88493 0.0
C484 C 0.93508 0.99037 0.87496 0.0
C485 C 0.93355 0.98116 0.81196 0.0
C486 C 0.94587 0.98529 0.75885 0.0
C487 C 0.92085 0.98692 0.9283 0.0
C488 C 0.91888 0.96877 0.95421 0.0
C489 C 0.90856 0.00112 0.95053 0.0
C490 C 0.91002 0.02057 0.9252 0.0
C491 C 0.90817 0.0246 0.85514 0.0
C492 C 0.9098 0.04298 0.83173 0.0
C493 C 0.91313 0.05745 0.87799 0.0
C494 C 0.91476 0.05359 0.9478 0.0
C495 C 0.91316 0.03523 0.97146 0.0
H496 H 0.9144 0.07167 0.85975 0.0
H497 H 0.90113 0.89465 0.10225 0.0
H498 H 0.49808 0.85024 0.25546 0.0
H499 H 0.4935 0.8785 0.18719 0.0
H500 H 0.54208 0.86472 0.06657 0.0
H501 H 0.54712 0.83687 0.13619 0.0
H502 H 0.54116 0.90077 0.08662 0.0
H503 H 0.4966 0.85433 0.01381 0.0
H504 H 0.47091 0.83174 0.02824 0.0
H505 H 0.43492 0.87555 0.09965 0.0
H506 H 0.46051 0.89836 0.08646 0.0
H507 H 0.52022 0.94133 0.76426 0.0
H508 H 0.52581 0.92003 0.86021 0.0
H509 H 0.48333 0.94818 0.97787 0.0
H510 H 0.47786 0.96973 0.88221 0.0
H511 H 0.48 0.90806 0.97013 0.0
H512 H 0.52453 0.95508 0.02739 0.0
H513 H 0.54994 0.97705 0.00103 0.0
H514 H 0.5861 0.93145 0.94954 0.0
H515 H 0.56077 0.90908 0.97449 0.0
C516 C 0.50786 0.85333 0.21473 0.0
C517 C 0.52285 0.84126 0.2007 0.0
C518 C 0.50521 0.86945 0.17567 0.0
C519 C 0.51725 0.87355 0.12096 0.0
C520 C 0.5326 0.86184 0.10847 0.0
C521 C 0.53541 0.84588 0.14813 0.0
C522 C 0.51344 0.88945 0.07445 0.0
C523 C 0.52781 0.9023 0.06097 0.0
C524 C 0.4959 0.89169 0.04187 0.0
C525 C 0.48053 0.87799 0.04997 0.0
C526 C 0.48326 0.85911 0.03312 0.0
C527 C 0.46871 0.84627 0.04099 0.0
C528 C 0.45131 0.85219 0.06507 0.0
C529 C 0.44842 0.87098 0.08116 0.0
C530 C 0.46293 0.88386 0.07349 0.0
C531 C 0.51218 0.94302 0.8108 0.0
C532 C 0.49862 0.95707 0.81615 0.0
C533 C 0.51542 0.93094 0.86549 0.0
C534 C 0.50501 0.93264 0.92594 0.0
C535 C 0.4915 0.94673 0.93154 0.0
C536 C 0.48844 0.95901 0.87714 0.0
C537 C 0.50776 0.91908 0.98188 0.0
C538 C 0.49322 0.90668 0.99684 0.0
C539 C 0.52517 0.91712 0.01505 0.0
C540 C 0.54069 0.93041 0.00233 0.0
C541 C 0.53787 0.94971 0.01014 0.0
C542 C 0.55226 0.96225 0.99548 0.0
C543 C 0.56959 0.9557 0.97345 0.0
C544 C 0.57263 0.93652 0.96647 0.0
C545 C 0.55827 0.92389 0.98101 0.0
H546 H 0.58065 0.96551 0.96211 0.0
H547 H 0.44006 0.84224 0.07109 0.0
H548 H 0.659 0.49507 0.20015 0.0
H549 H 0.63225 0.48904 0.12555 0.0
H550 H 0.63718 0.54445 0.04084 0.0
H551 H 0.66381 0.55066 0.11552 0.0
H552 H 0.60076 0.53507 0.06924 0.0
H553 H 0.65411 0.50732 0.95515 0.0
H554 H 0.6814 0.48641 0.9473 0.0
H555 H 0.64626 0.43899 0.98585 0.0
H556 H 0.61879 0.45965 0.99483 0.0
H557 H 0.56101 0.52272 0.73082 0.0
H558 H 0.58333 0.52742 0.8247 0.0
H559 H 0.55976 0.48041 0.93218 0.0
H560 H 0.53693 0.47612 0.83982 0.0
H561 H 0.60359 0.48363 0.89978 0.0
H562 H 0.55057 0.50958 0.01195 0.0
H563 H 0.52291 0.52935 0.03116 0.0
H564 H 0.55632 0.57856 0.00408 0.0
H565 H 0.58417 0.55904 0.98318 0.0
C566 C 0.65435 0.506 0.16582 0.0
C567 C 0.66359 0.52331 0.16347 0.0
C568 C 0.6391 0.50251 0.12314 0.0
C569 C 0.63286 0.51624 0.07727 0.0
C570 C 0.64179 0.53366 0.07589 0.0
C571 C 0.65705 0.53716 0.11841 0.0
C572 C 0.61728 0.5124 0.02955 0.0
C573 C 0.60145 0.52394 0.03173 0.0
C574 C 0.61795 0.49747 0.98224 0.0
C575 C 0.63444 0.48505 0.97637 0.0
C576 C 0.65223 0.49245 0.96246 0.0
C577 C 0.66772 0.48064 0.95772 0.0
C578 C 0.66557 0.46139 0.96626 0.0
C579 C 0.64791 0.4539 0.97935 0.0
C580 C 0.63237 0.46565 0.98422 0.0
C581 C 0.56056 0.5135 0.77475 0.0
C582 C 0.54738 0.49906 0.77838 0.0
C583 C 0.57319 0.51623 0.82824 0.0
C584 C 0.57303 0.50431 0.88517 0.0
C585 C 0.55994 0.4898 0.88872 0.0
C586 C 0.54698 0.48737 0.8361 0.0
C587 C 0.58728 0.50648 0.93898 0.0
C588 C 0.60288 0.49468 0.93762 0.0
C589 C 0.58631 0.52102 0.9875 0.0
C590 C 0.56942 0.53283 0.99505 0.0
C591 C 0.55196 0.5246 0.00856 0.0
C592 C 0.53628 0.53576 0.02025 0.0
C593 C 0.5379 0.55518 0.01918 0.0
C594 C 0.55512 0.5635 0.00508 0.0
C595 C 0.57086 0.55239 0.99323 0.0
H596 H 0.52583 0.56375 0.02985 0.0
H597 H 0.67759 0.45227 0.96258 0.0
H598 H 0.00693 0.6634 0.193 0.0
H599 H 0.01352 0.63743 0.11522 0.0
H600 H 0.95441 0.62895 0.08609 0.0
H601 H 0.9477 0.65474 0.16372 0.0
H602 H 0.97291 0.59614 0.1048 0.0
H603 H 0.97926 0.65244 0.96922 0.0
H604 H 0.99255 0.68329 0.94143 0.0
H605 H 0.04735 0.65917 0.92869 0.0
H606 H 0.0344 0.6282 0.95733 0.0
H607 H 0.98304 0.56702 0.72617 0.0
H608 H 0.9798 0.58995 0.81785 0.0
H609 H 0.00778 0.55256 0.95736 0.0
H610 H 0.01128 0.52957 0.8652 0.0
H611 H 0.00756 0.60742 0.88894 0.0
H612 H 0.9893 0.5597 0.11376 0.0
H613 H 0.97151 0.53119 0.14225 0.0
H614 H 0.93539 0.54077 0.97035 0.0
H615 H 0.95317 0.56908 0.9404 0.0
C616 C 0.99534 0.65593 0.17027 0.0
C617 C 0.97679 0.66116 0.18423 0.0
C618 C 0.99914 0.64115 0.12579 0.0
C619 C 0.98444 0.63137 0.09471 0.0
C620 C 0.96594 0.63631 0.10973 0.0
C621 C 0.96213 0.65111 0.15386 0.0
C622 C 0.98815 0.61628 0.045 0.0
C623 C 0.98067 0.59854 0.05793 0.0
C624 C 0.99813 0.61949 0.98367 0.0
C625 C 0.0059 0.63807 0.96618 0.0
C626 C 0.99417 0.65375 0.96104 0.0
C627 C 0.00163 0.67125 0.94504 0.0
C628 C 0.02079 0.6732 0.93351 0.0
C629 C 0.03252 0.65765 0.93776 0.0
C630 C 0.02513 0.64012 0.95384 0.0
C631 C 0.98844 0.56365 0.77644 0.0
C632 C 0.99737 0.54653 0.78874 0.0
C633 C 0.98661 0.57676 0.82869 0.0
C634 C 0.99352 0.57293 0.89434 0.0
C635 C 0.00221 0.55571 0.90716 0.0
C636 C 0.00418 0.54261 0.85459 0.0
C637 C 0.99207 0.58733 0.94836 0.0
C638 C 0.00011 0.60491 0.93641 0.0
C639 C 0.98239 0.58408 0.01018 0.0
C640 C 0.97266 0.56632 0.0245 0.0
C641 C 0.97768 0.55556 0.08172 0.0
C642 C 0.9676 0.53945 0.09813 0.0
C643 C 0.95234 0.53415 0.05816 0.0
C644 C 0.94726 0.54482 0.00117 0.0
C645 C 0.95743 0.5608 0.98409 0.0
H646 H 0.94444 0.52179 0.07143 0.0
H647 H 0.02655 0.68676 0.92112 0.0
H648 H 0.00476 0.24676 0.16401 0.0
H649 H 0.01134 0.21758 0.22447 0.0
H650 H 0.95299 0.21249 0.27677 0.0
H651 H 0.9465 0.24195 0.21795 0.0
H652 H 0.97352 0.20334 0.38304 0.0
H653 H 0.97551 0.18575 0.1392 0.0
H654 H 0.98763 0.18783 0.02147 0.0
H655 H 0.0434 0.17875 0.09515 0.0
H656 H 0.03155 0.1764 0.21306 0.0
H657 H 0.9633 0.10676 0.44506 0.0
H658 H 0.96287 0.13934 0.40944 0.0
H659 H 0.0219 0.13679 0.36649 0.0
H660 H 0.02233 0.10393 0.39956 0.0
H661 H 0.00464 0.15096 0.26278 0.0
H662 H 0.00645 0.16889 0.49803 0.0
H663 H 0.99848 0.1688 0.62077 0.0
H664 H 0.94075 0.17797 0.5718 0.0
H665 H 0.94853 0.17884 0.44871 0.0
C666 C 0.99331 0.23926 0.18752 0.0
C667 C 0.97505 0.24641 0.18493 0.0
C668 C 0.99708 0.22259 0.22229 0.0
C669 C 0.9826 0.21255 0.25406 0.0
C670 C 0.96441 0.2199 0.25252 0.0
C671 C 0.96069 0.2367 0.21867 0.0
C672 C 0.98624 0.19437 0.28867 0.0
C673 C 0.98013 0.19183 0.35639 0.0
C674 C 0.99568 0.17953 0.25559 0.0
C675 C 0.00268 0.18105 0.18472 0.0
C676 C 0.99036 0.18427 0.13012 0.0
C677 C 0.99719 0.18545 0.06331 0.0
C678 C 0.01632 0.18347 0.0507 0.0
C679 C 0.02861 0.18023 0.1048 0.0
C680 C 0.02185 0.17891 0.17157 0.0
C681 C 0.97623 0.11307 0.42799 0.0
C682 C 0.99282 0.10257 0.42485 0.0
C683 C 0.97602 0.13187 0.4088 0.0
C684 C 0.9924 0.14066 0.38604 0.0
C685 C 0.0091 0.13037 0.38435 0.0
C686 C 0.00932 0.11156 0.40362 0.0
C687 C 0.99157 0.15979 0.35656 0.0
C688 C 0.99814 0.16249 0.28973 0.0
C689 C 0.98299 0.17487 0.39103 0.0
C690 C 0.97803 0.17372 0.46438 0.0
C691 C 0.99204 0.17078 0.51351 0.0
C692 C 0.98759 0.17075 0.5831 0.0
C693 C 0.96909 0.17318 0.60408 0.0
C694 C 0.95506 0.176 0.55548 0.0
C695 C 0.95951 0.17645 0.48583 0.0
H696 H 0.96566 0.17296 0.65799 0.0
H697 H 0.02166 0.18438 0.99916 0.0
H698 H 0.28152 0.00085 0.00655 0.0
H699 H 0.3128 0.00495 0.05606 0.0
H700 H 0.29216 0.98615 0.25158 0.0
H701 H 0.26106 0.982 0.20272 0.0
H702 H 0.31479 0.01827 0.25954 0.0
H703 H 0.31459 0.95681 0.15406 0.0
H704 H 0.31209 0.93448 0.05864 0.0
H705 H 0.3566 0.96255 0.9532 0.0
H706 H 0.35912 0.98527 0.0475 0.0
H707 H 0.3899 0.98878 0.46194 0.0
H708 H 0.3614 0.99164 0.39424 0.0
H709 H 0.39434 0.00092 0.21249 0.0
H710 H 0.42297 0.99773 0.28006 0.0
H711 H 0.3672 0.9779 0.18432 0.0
H712 H 0.37042 0.03709 0.29178 0.0
H713 H 0.3742 0.05941 0.38663 0.0
H714 H 0.32515 0.0374 0.48402 0.0
H715 H 0.32122 0.01475 0.39021 0.0
C716 C 0.28361 0.99791 0.06031 0.0
C717 C 0.26883 0.99125 0.10101 0.0
C718 C 0.3015 0.0001 0.08831 0.0
C719 C 0.30477 0.99582 0.15743 0.0
C720 C 0.28992 0.98958 0.19822 0.0
C721 C 0.27218 0.98715 0.17017 0.0
C722 C 0.32367 0.99729 0.18785 0.0
C723 C 0.32627 0.00943 0.24329 0.0
C724 C 0.33879 0.98621 0.16499 0.0
C725 C 0.3369 0.97287 0.10749 0.0
C726 C 0.32369 0.95836 0.11017 0.0
C727 C 0.32232 0.94559 0.05641 0.0
C728 C 0.33422 0.94705 3e-05 0.0
C729 C 0.34745 0.96137 0.9971 0.0
C730 C 0.34882 0.97423 0.05058 0.0
C731 C 0.39107 0.99161 0.40768 0.0
C732 C 0.40868 0.99312 0.3764 0.0
C733 C 0.37477 0.99329 0.36898 0.0
C734 C 0.37568 0.99683 0.29834 0.0
C735 C 0.39326 0.99824 0.26688 0.0
C736 C 0.4096 0.99638 0.30551 0.0
C737 C 0.35825 0.99855 0.25743 0.0
C738 C 0.3559 0.98704 0.19994 0.0
C739 C 0.34342 0.01041 0.2778 0.0
C740 C 0.3456 0.02413 0.3341 0.0
C741 C 0.3605 0.03693 0.33361 0.0
C742 C 0.36266 0.04965 0.38718 0.0
C743 C 0.34994 0.0498 0.44137 0.0
C744 C 0.335 0.03726 0.44201 0.0
C745 C 0.33278 0.02449 0.38859 0.0
H746 H 0.35165 0.05965 0.48283 0.0
H747 H 0.33314 0.93716 0.95845 0.0
H748 H 0.48952 0.24824 0.20885 0.0
H749 H 0.48639 0.27883 0.26313 0.0
H750 H 0.54193 0.29332 0.19495 0.0
H751 H 0.54548 0.2622 0.1454 0.0
H752 H 0.5392 0.30326 0.31653 0.0
H753 H 0.49442 0.31242 0.12399 0.0
H754 H 0.46567 0.30523 0.05845 0.0
H755 H 0.43309 0.30854 0.24179 0.0
H756 H 0.4614 0.31593 0.30831 0.0
H757 H 0.54048 0.40013 0.36879 0.0
H758 H 0.54005 0.36849 0.32342 0.0
H759 H 0.48499 0.36005 0.40772 0.0
H760 H 0.48523 0.39194 0.45248 0.0
H761 H 0.48544 0.34616 0.28788 0.0
H762 H 0.52539 0.33594 0.48037 0.0
H763 H 0.55132 0.34306 0.55946 0.0
H764 H 0.59043 0.33922 0.3935 0.0
H765 H 0.56466 0.33232 0.3135 0.0
C766 C 0.50097 0.25807 0.20519 0.0
C767 C 0.51773 0.25294 0.17297 0.0
C768 C 0.49911 0.27567 0.2356 0.0
C769 C 0.51376 0.28874 0.23219 0.0
C770 C 0.53038 0.2836 0.19859 0.0
C771 C 0.53244 0.26582 0.17015 0.0
C772 C 0.51252 0.30723 0.26722 0.0
C773 C 0.52754 0.31272 0.30899 0.0
C774 C 0.49687 0.3193 0.26148 0.0
C775 C 0.48004 0.31449 0.22113 0.0
C776 C 0.48114 0.31146 0.15027 0.0
C777 C 0.46496 0.30739 0.113 0.0
C778 C 0.4477 0.30623 0.14599 0.0
C779 C 0.44649 0.30934 0.21631 0.0
C780 C 0.46256 0.31354 0.25377 0.0
C781 C 0.52836 0.39148 0.37854 0.0
C782 C 0.51294 0.39857 0.41468 0.0
C783 C 0.52815 0.37331 0.35269 0.0
C784 C 0.51265 0.36164 0.36323 0.0
C785 C 0.49714 0.36873 0.39885 0.0
C786 C 0.49727 0.387 0.42427 0.0
C787 C 0.51241 0.34235 0.33458 0.0
C788 C 0.49712 0.33669 0.29476 0.0
C789 C 0.52754 0.32988 0.34342 0.0
C790 C 0.5431 0.33396 0.39099 0.0
C791 C 0.53951 0.33688 0.46078 0.0
C792 C 0.55417 0.3408 0.50574 0.0
C793 C 0.5725 0.34171 0.48143 0.0
C794 C 0.57621 0.33858 0.4122 0.0
C795 C 0.56159 0.33463 0.36708 0.0
H796 H 0.58383 0.34475 0.51629 0.0
H797 H 0.43524 0.30306 0.11694 0.0
H798 H 0.24638 0.5377 0.24913 0.0
H799 H 0.21613 0.53341 0.30379 0.0
H800 H 0.20156 0.49199 0.15299 0.0
H801 H 0.23108 0.49728 0.09551 0.0
H802 H 0.17341 0.51266 0.17098 0.0
H803 H 0.213 0.48035 0.32625 0.0
H804 H 0.24025 0.47546 0.40123 0.0
H805 H 0.22301 0.52135 0.52726 0.0
H806 H 0.19563 0.52658 0.45289 0.0
H807 H 0.09232 0.4844 0.35791 0.0
H808 H 0.12396 0.48301 0.3097 0.0
H809 H 0.13841 0.53359 0.41669 0.0
H810 H 0.10683 0.53508 0.46472 0.0
H811 H 0.16648 0.50516 0.42203 0.0
H812 H 0.12689 0.53696 0.25663 0.0
H813 H 0.09947 0.53938 0.18082 0.0
H814 H 0.11715 0.49036 0.07251 0.0
H815 H 0.14457 0.48751 0.14826 0.0
C816 C 0.23679 0.52761 0.22752 0.0
C817 C 0.24156 0.51747 0.1684 0.0
C818 C 0.21951 0.52503 0.25943 0.0
C819 C 0.20665 0.51199 0.23375 0.0
C820 C 0.21129 0.50196 0.17451 0.0
C821 C 0.22847 0.50476 0.14203 0.0
C822 C 0.18806 0.50954 0.26672 0.0
C823 C 0.17198 0.51065 0.22573 0.0
C824 C 0.18603 0.5071 0.33831 0.0
C825 C 0.20234 0.50394 0.38368 0.0
C826 C 0.21505 0.48946 0.36979 0.0
C827 C 0.23049 0.4866 0.41227 0.0
C828 C 0.23334 0.49809 0.46897 0.0
C829 C 0.22073 0.51244 0.48341 0.0
C830 C 0.20522 0.51533 0.44123 0.0
C831 C 0.10233 0.49508 0.37166 0.0
C832 C 0.09713 0.50992 0.41458 0.0
C833 C 0.12034 0.49431 0.34399 0.0
C834 C 0.13345 0.50827 0.35935 0.0
C835 C 0.12848 0.52271 0.4042 0.0
C836 C 0.11043 0.52361 0.43116 0.0
C837 C 0.15206 0.50841 0.3262 0.0
C838 C 0.16806 0.50692 0.36721 0.0
C839 C 0.15404 0.51009 0.2545 0.0
C840 C 0.13766 0.51191 0.20858 0.0
C841 C 0.12485 0.52661 0.21698 0.0
C842 C 0.10933 0.52808 0.17394 0.0
C843 C 0.10655 0.515 0.12197 0.0
C844 C 0.11931 0.50046 0.11281 0.0
C845 C 0.13485 0.49892 0.15574 0.0
H846 H 0.09452 0.51615 0.08871 0.0
H847 H 0.24532 0.49588 0.50174 0.0
H848 H 0.97412 0.75627 0.12367 0.0
H849 H 0.97831 0.78734 0.0726 0.0
H850 H 0.99951 0.80796 0.26467 0.0
H851 H 0.99522 0.77694 0.3157 0.0
H852 H 0.97372 0.83183 0.2051 0.0
H853 H 0.02939 0.79907 0.14113 0.0
H854 H 0.04768 0.77322 0.09174 0.0
H855 H 0.02263 0.78308 0.89551 0.0
H856 H 0.00396 0.80883 0.944 0.0
H857 H 0.01224 0.91712 0.08725 0.0
H858 H 0.00782 0.88623 0.13753 0.0
H859 H 0.99114 0.86468 0.94092 0.0
H860 H 0.99625 0.89542 0.8896 0.0
H861 H 0.01457 0.84112 0.00286 0.0
H862 H 0.95915 0.87426 0.06622 0.0
H863 H 0.94104 0.90023 0.11542 0.0
H864 H 0.96516 0.8896 0.31265 0.0
H865 H 0.98378 0.86381 0.26428 0.0
C866 C 0.97972 0.76746 0.1547 0.0
C867 C 0.98482 0.7642 0.22296 0.0
C868 C 0.98216 0.78515 0.12557 0.0
C869 C 0.98948 0.79989 0.16461 0.0
C870 C 0.99404 0.79674 0.23347 0.0
C871 C 0.9918 0.77902 0.26231 0.0
C872 C 0.99235 0.81859 0.13361 0.0
C873 C 0.98282 0.83393 0.16139 0.0
C874 C 0.00391 0.82121 0.07572 0.0
C875 C 0.01512 0.80575 0.04638 0.0
C876 C 0.02765 0.79562 0.08759 0.0
C877 C 0.03811 0.78101 0.05973 0.0
C878 C 0.03628 0.77648 0.99058 0.0
C879 C 0.02401 0.78659 0.9491 0.0
C880 C 0.01349 0.8012 0.97673 0.0
C881 C 0.00779 0.90579 0.05448 0.0
C882 C 0.00458 0.90879 0.98432 0.0
C883 C 0.00507 0.88816 0.08351 0.0
C884 C 0.99891 0.87316 0.04321 0.0
C885 C 0.99582 0.87605 0.97309 0.0
C886 C 0.99858 0.89369 0.94395 0.0
C887 C 0.99588 0.85443 0.07412 0.0
C888 C 0.00541 0.83906 0.04642 0.0
C889 C 0.98428 0.85178 0.13205 0.0
C890 C 0.973 0.8672 0.16144 0.0
C891 C 0.96071 0.87755 0.11997 0.0
C892 C 0.95033 0.89222 0.14774 0.0
C893 C 0.95193 0.89656 0.21712 0.0
C894 C 0.96393 0.88623 0.2589 0.0
C895 C 0.97442 0.87158 0.23133 0.0
H896 H 0.94385 0.90792 0.2385 0.0
H897 H 0.0444 0.76517 0.96909 0.0
H898 H 0.73854 0.99219 0.08431 0.0
H899 H 0.7076 0.00392 0.0538 0.0
H900 H 0.68917 0.99587 0.26185 0.0
H901 H 0.71962 0.98303 0.29129 0.0
H902 H 0.66461 0.98206 0.17979 0.0
H903 H 0.69607 0.04063 0.18964 0.0
H904 H 0.72072 0.06374 0.16525 0.0
H905 H 0.70789 0.06114 0.95099 0.0
H906 H 0.68333 0.03782 0.97395 0.0
H907 H 0.57725 0.0264 0.11805 0.0
H908 H 0.60905 0.02265 0.16082 0.0
H909 H 0.62909 0.01503 0.95509 0.0
H910 H 0.59721 0.01723 0.91172 0.0
H911 H 0.65212 0.03931 0.0441 0.0
H912 H 0.62799 0.97499 0.03444 0.0
H913 H 0.60347 0.95149 0.05555 0.0
H914 H 0.60195 0.96677 0.26777 0.0
H915 H 0.62673 0.99012 0.24782 0.0
C916 C 0.72796 0.99314 0.12378 0.0
C917 C 0.7318 0.98713 0.19081 0.0
C918 C 0.71029 1e-05 0.1064 0.0
C919 C 0.69607 0.00116 0.15578 0.0
C920 C 0.69994 0.99536 0.22296 0.0
C921 C 0.71756 0.98833 0.24018 0.0
C922 C 0.67681 0.00691 0.13598 0.0
C923 C 0.66194 0.99481 0.15144 0.0
C924 C 0.67318 0.02334 0.09758 0.0
C925 C 0.68795 0.03735 0.0835 0.0
C926 C 0.6986 0.04488 0.13725 0.0
C927 C 0.71254 0.05803 0.12369 0.0
C928 C 0.7159 0.06387 0.0566 0.0
C929 C 0.70529 0.05659 0.00294 0.0
C930 C 0.69134 0.04342 0.0162 0.0
C931 C 0.5883 0.02367 0.08164 0.0
C932 C 0.58443 0.0219 0.01126 0.0
C933 C 0.60653 0.02175 0.10628 0.0
C934 C 0.62135 0.01838 0.06109 0.0
C935 C 0.61779 0.01752 0.99072 0.0
C936 C 0.59951 0.01899 0.96605 0.0
C937 C 0.64032 0.01441 0.08774 0.0
C938 C 0.65498 0.02677 0.07342 0.0
C939 C 0.64386 0.9983 0.12726 0.0
C940 C 0.62913 0.98425 0.13973 0.0
C941 C 0.62239 0.97332 0.08553 0.0
C942 C 0.60845 0.96004 0.09724 0.0
C943 C 0.60104 0.95772 0.16283 0.0
C944 C 0.60769 0.96857 0.21697 0.0
C945 C 0.62176 0.98174 0.20561 0.0
H946 H 0.59019 0.94749 0.17171 0.0
H947 H 0.72669 0.07406 0.04622 0.0
H948 H 0.47167 0.73808 0.21789 0.0
H949 H 0.46629 0.70817 0.16066 0.0
H950 H 0.52572 0.70122 0.1345 0.0
H951 H 0.53114 0.73099 0.19167 0.0
H952 H 0.5083 0.69182 0.02088 0.0
H953 H 0.50102 0.67609 0.26162 0.0
H954 H 0.48764 0.67741 0.37755 0.0
H955 H 0.43279 0.668 0.29561 0.0
H956 H 0.44596 0.66638 0.17905 0.0
H957 H 0.52069 0.59477 0.97842 0.0
H958 H 0.52019 0.6269 0.0193 0.0
H959 H 0.45996 0.62617 0.01973 0.0
H960 H 0.4603 0.59393 0.97873 0.0
H961 H 0.47373 0.64072 0.13631 0.0
H962 H 0.48429 0.64767 0.89838 0.0
H963 H 0.50041 0.64056 0.79047 0.0
H964 H 0.55041 0.66635 0.86569 0.0
H965 H 0.53511 0.67229 0.97644 0.0
C966 C 0.48358 0.73001 0.20111 0.0
C967 C 0.50184 0.73671 0.21075 0.0
C968 C 0.48049 0.71297 0.16792 0.0
C969 C 0.49562 0.7023 0.14396 0.0
C970 C 0.51382 0.70918 0.15242 0.0
C971 C 0.5169 0.7262 0.18528 0.0
C972 C 0.49268 0.68389 0.11054 0.0
C973 C 0.50084 0.68059 0.04623 0.0
C974 C 0.48246 0.6694 0.14248 0.0
C975 C 0.47442 0.67137 0.21178 0.0
C976 C 0.48608 0.67454 0.26834 0.0
C977 C 0.47853 0.67526 0.33418 0.0
C978 C 0.45933 0.67293 0.34397 0.0
C979 C 0.44764 0.66986 0.28792 0.0
C980 C 0.45514 0.66897 0.22202 0.0
C981 C 0.50731 0.60144 0.98659 0.0
C982 C 0.49052 0.59169 0.97553 0.0
C983 C 0.50706 0.61984 0.00998 0.0
C984 C 0.49003 0.62899 0.02194 0.0
C985 C 0.47325 0.61936 0.0109 0.0
C986 C 0.47348 0.60091 0.98773 0.0
C987 C 0.48983 0.64846 0.04774 0.0
C988 C 0.48097 0.65199 0.11031 0.0
C989 C 0.49953 0.66307 0.01419 0.0
C990 C 0.50855 0.66029 0.94634 0.0
C991 C 0.49879 0.65167 0.89242 0.0
C992 C 0.5078 0.64781 0.83066 0.0
C993 C 0.52635 0.65319 0.82085 0.0
C994 C 0.53601 0.66224 0.87325 0.0
C995 C 0.52722 0.66571 0.93584 0.0
H996 H 0.53323 0.65029 0.77274 0.0
H997 H 0.45349 0.67332 0.39492 0.0
H998 H 0.75133 0.47285 0.18113 0.0
H999 H 0.78032 0.46209 0.12643 0.0
H1000 H 0.80853 0.51177 0.19532 0.0
H1001 H 0.7793 0.52304 0.24698 0.0
H1002 H 0.80145 0.48955 0.02417 0.0
H1003 H 0.85522 0.48127 0.25087 0.0
H1004 H 0.85728 0.46774 0.36617 0.0
H1005 H 0.80631 0.4376 0.33279 0.0
H1006 H 0.80466 0.44979 0.21536 0.0
H1007 H 0.89454 0.50614 0.92695 0.0
H1008 H 0.86307 0.50472 0.9743 0.0
H1009 H 0.87271 0.44791 0.03881 0.0
H1010 H 0.90457 0.44952 0.99416 0.0
H1011 H 0.85858 0.46602 0.13851 0.0
H1012 H 0.84211 0.4586 0.90877 0.0
H1013 H 0.84086 0.46416 0.78447 0.0
H1014 H 0.81544 0.51762 0.8186 0.0
H1015 H 0.81697 0.51263 0.94317 0.0
C1016 C 0.76379 0.48136 0.185 0.0
C1017 C 0.76318 0.49876 0.21791 0.0
C1018 C 0.78029 0.47519 0.15404 0.0
C1019 C 0.79659 0.486 0.15796 0.0
C1020 C 0.79614 0.50313 0.1927 0.0
C1021 C 0.77948 0.50959 0.22172 0.0
C1022 C 0.81352 0.48056 0.1194 0.0
C1023 C 0.81398 0.48442 0.04905 0.0
C1024 C 0.82955 0.47315 0.15176 0.0
C1025 C 0.82955 0.46689 0.22434 0.0
C1026 C 0.8444 0.47178 0.26796 0.0
C1027 C 0.84564 0.46413 0.33355 0.0
C1028 C 0.83187 0.4519 0.35706 0.0
C1029 C 0.81691 0.44717 0.3147 0.0
C1030 C 0.81584 0.45443 0.2484 0.0
C1031 C 0.88998 0.49332 0.95115 0.0
C1032 C 0.90216 0.478 0.95731 0.0
C1033 C 0.87186 0.49244 0.97742 0.0
C1034 C 0.86542 0.47615 0.00975 0.0
C1035 C 0.87734 0.46062 0.01403 0.0
C1036 C 0.89552 0.46152 0.98799 0.0
C1037 C 0.84687 0.47599 0.04403 0.0
C1038 C 0.84607 0.47114 0.11355 0.0
C1039 C 0.83038 0.48196 0.01058 0.0
C1040 C 0.82979 0.48528 0.93556 0.0
C1041 C 0.83646 0.47165 0.88988 0.0
C1042 C 0.83569 0.4747 0.81931 0.0
C1043 C 0.82812 0.49125 0.79365 0.0
C1044 C 0.82136 0.50483 0.83852 0.0
C1045 C 0.82218 0.5019 0.90917 0.0
H1046 H 0.82744 0.49351 0.73901 0.0
H1047 H 0.83278 0.44613 0.40814 0.0
H1048 H 0.98994 0.20075 0.90808 0.0
H1049 H 0.99344 0.17007 0.85765 0.0
H1050 H 0.04877 0.18478 0.78779 0.0
H1051 H 0.04586 0.2152 0.84422 0.0
H1052 H 0.99737 0.15553 0.74404 0.0
H1053 H 0.07544 0.14669 0.77562 0.0
H1054 H 0.10206 0.15912 0.84157 0.0
H1055 H 0.06584 0.17012 0.01163 0.0
H1056 H 0.03898 0.15761 0.94676 0.0
H1057 H 0.01947 0.06619 0.6226 0.0
H1058 H 0.02388 0.0993 0.64367 0.0
H1059 H 0.0245 0.08894 0.86097 0.0
H1060 H 0.02003 0.05548 0.84016 0.0
H1061 H 0.05101 0.11631 0.81637 0.0
H1062 H 0.98444 0.10328 0.80092 0.0
H1063 H 0.95634 0.08998 0.7464 0.0
H1064 H 0.96753 0.12153 0.56417 0.0
H1065 H 0.99629 0.13405 0.61622 0.0
C1066 C 0.00293 0.19743 0.88247 0.0
C1067 C 0.01789 0.21008 0.88243 0.0
C1068 C 0.00485 0.17992 0.85277 0.0
C1069 C 0.02159 0.17482 0.8204 0.0
C1070 C 0.03597 0.18811 0.81462 0.0
C1071 C 0.03422 0.20557 0.84615 0.0
C1072 C 0.0239 0.15527 0.79657 0.0
C1073 C 0.00925 0.14709 0.75934 0.0
C1074 C 0.03932 0.14405 0.81637 0.0
C1075 C 0.05523 0.15149 0.85613 0.0
C1076 C 0.07318 0.15177 0.82713 0.0
C1077 C 0.08828 0.15882 0.86427 0.0
C1078 C 0.08559 0.1655 0.93065 0.0
C1079 C 0.06782 0.16506 0.96011 0.0
C1080 C 0.05266 0.15801 0.92319 0.0
C1081 C 0.02066 0.07083 0.67486 0.0
C1082 C 0.01907 0.05821 0.72967 0.0
C1083 C 0.02328 0.08978 0.68676 0.0
C1084 C 0.02434 0.0965 0.75379 0.0
C1085 C 0.02375 0.08392 0.8088 0.0
C1086 C 0.02111 0.06486 0.79685 0.0
C1087 C 0.02428 0.11679 0.76629 0.0
C1088 C 0.03936 0.12497 0.80044 0.0
C1089 C 0.00911 0.12797 0.74515 0.0
C1090 C 0.99232 0.1198 0.71262 0.0
C1091 C 0.98098 0.10721 0.74893 0.0
C1092 C 0.96502 0.0997 0.71831 0.0
C1093 C 0.96019 0.10485 0.65167 0.0
C1094 C 0.97137 0.11741 0.61543 0.0
C1095 C 0.98749 0.12473 0.64546 0.0
H1096 H 0.94776 0.09913 0.62816 0.0
H1097 H 0.0973 0.17096 0.95935 0.0
H1098 H 0.28174 0.04059 0.73923 0.0
H1099 H 0.31373 0.02836 0.73222 0.0
H1100 H 0.31774 0.02923 0.95216 0.0
H1101 H 0.28551 0.04071 0.95962 0.0
H1102 H 0.34604 0.0515 0.83897 0.0
H1103 H 0.3208 0.99439 0.93323 0.0
H1104 H 0.29821 0.96853 0.93744 0.0
H1105 H 0.315 0.95118 0.73647 0.0
H1106 H 0.33722 0.97745 0.73007 0.0
H1107 H 0.43792 0.01749 0.87205 0.0
H1108 H 0.4047 0.02141 0.8956 0.0
H1109 H 0.39131 0.99941 0.69643 0.0
H1110 H 0.42466 0.9954 0.67208 0.0
H1111 H 0.36738 0.98615 0.80659 0.0
H1112 H 0.39093 0.04323 0.70874 0.0
H1113 H 0.41289 0.06961 0.69924 0.0
H1114 H 0.39905 0.08689 0.90328 0.0
H1115 H 0.37722 0.06039 0.91438 0.0
C1116 C 0.28933 0.03771 0.78601 0.0
C1117 C 0.28113 0.04122 0.84979 0.0
C1118 C 0.3075 0.03074 0.78198 0.0
C1119 C 0.31787 0.02765 0.84171 0.0
C1120 C 0.30974 0.03116 0.90567 0.0
C1121 C 0.29137 0.03765 0.9098 0.0
C1122 C 0.33778 0.02263 0.8363 0.0
C1123 C 0.35079 0.0372 0.83321 0.0
C1124 C 0.34372 0.004 0.82693 0.0
C1125 C 0.3304 0.98816 0.83061 0.0
C1126 C 0.31937 0.98536 0.88926 0.0
C1127 C 0.30667 0.97057 0.89214 0.0
C1128 C 0.3051 0.95826 0.8371 0.0
C1129 C 0.3162 0.96076 0.77902 0.0
C1130 C 0.32882 0.97563 0.77567 0.0
C1131 C 0.42796 0.01333 0.83328 0.0
C1132 C 0.43396 0.0063 0.76985 0.0
C1133 C 0.40897 0.01555 0.84698 0.0
C1134 C 0.39561 0.01074 0.7977 0.0
C1135 C 0.40146 0.00313 0.73517 0.0
C1136 C 0.42051 0.00103 0.72115 0.0
C1137 C 0.37568 0.01505 0.80973 0.0
C1138 C 0.36267 0.00042 0.81334 0.0
C1139 C 0.36964 0.03366 0.81943 0.0
C1140 C 0.3826 0.04972 0.81266 0.0
C1141 C 0.39269 0.05256 0.75179 0.0
C1142 C 0.40509 0.06755 0.74607 0.0
C1143 C 0.4074 0.07989 0.80069 0.0
C1144 C 0.39727 0.07729 0.86106 0.0
C1145 C 0.38488 0.0623 0.86709 0.0
H1146 H 0.41701 0.09149 0.79618 0.0
H1147 H 0.29534 0.94675 0.83959 0.0
H1148 H 0.49673 0.3023 0.00016 0.0
H1149 H 0.49685 0.33313 0.94731 0.0
H1150 H 0.46793 0.31112 0.7716 0.0
H1151 H 0.46732 0.28004 0.82543 0.0
H1152 H 0.5004 0.3379 0.7473 0.0
H1153 H 0.44158 0.33224 0.86705 0.0
H1154 H 0.42204 0.32393 0.96642 0.0
H1155 H 0.45203 0.3631 0.09085 0.0
H1156 H 0.47191 0.37149 0.9924 0.0
H1157 H 0.48497 0.43178 0.64031 0.0
H1158 H 0.47964 0.39878 0.66553 0.0
H1159 H 0.4923 0.40876 0.87824 0.0
H1160 H 0.4969 0.44182 0.85393 0.0
H1161 H 0.46394 0.38645 0.86976 0.0
H1162 H 0.52496 0.38934 0.76346 0.0
H1163 H 0.54661 0.3982 0.6707 0.0
H1164 H 0.51532 0.36494 0.52906 0.0
H1165 H 0.49342 0.35595 0.62061 0.0
C1166 C 0.49026 0.30402 0.95051 0.0
C1167 C 0.48149 0.28895 0.91779 0.0
C1168 C 0.4905 0.32158 0.92016 0.0
C1169 C 0.4822 0.32434 0.85613 0.0
C1170 C 0.47434 0.30916 0.82127 0.0
C1171 C 0.47396 0.29151 0.85206 0.0
C1172 C 0.4809 0.34345 0.82861 0.0
C1173 C 0.49212 0.34849 0.77286 0.0
C1174 C 0.47043 0.35721 0.86336 0.0
C1175 C 0.45826 0.35245 0.92236 0.0
C1176 C 0.44406 0.33902 0.91567 0.0
C1177 C 0.43291 0.33432 0.9718 0.0
C1178 C 0.43575 0.34303 0.03482 0.0
C1179 C 0.44979 0.35643 0.04191 0.0
C1180 C 0.46099 0.36119 0.98593 0.0
C1181 C 0.48655 0.42693 0.69249 0.0
C1182 C 0.49142 0.43934 0.74518 0.0
C1183 C 0.48356 0.40807 0.70676 0.0
C1184 C 0.48582 0.40126 0.77361 0.0
C1185 C 0.49043 0.41372 0.82631 0.0
C1186 C 0.49312 0.4326 0.81232 0.0
C1187 C 0.48379 0.38113 0.78915 0.0
C1188 C 0.47194 0.37587 0.84297 0.0
C1189 C 0.49396 0.36726 0.75338 0.0
C1190 C 0.50748 0.3721 0.69873 0.0
C1191 C 0.52269 0.38394 0.71242 0.0
C1192 C 0.535 0.38898 0.66002 0.0
C1193 C 0.53231 0.38216 0.59386 0.0
C1194 C 0.51737 0.37021 0.58016 0.0
C1195 C 0.50503 0.36509 0.63229 0.0
H1196 H 0.54182 0.38607 0.55325 0.0
H1197 H 0.42709 0.3394 0.07819 0.0
H1198 H 0.20888 0.45555 0.90952 0.0
H1199 H 0.17857 0.45135 0.85354 0.0
H1200 H 0.17194 0.51116 0.8416 0.0
H1201 H 0.2023 0.51541 0.89479 0.0
H1202 H 0.14622 0.46003 0.8986 0.0
H1203 H 0.14418 0.52473 0.71675 0.0
H1204 H 0.16522 0.54193 0.63936 0.0
H1205 H 0.19985 0.49333 0.61864 0.0
H1206 H 0.17888 0.47572 0.69535 0.0
H1207 H 0.05557 0.49514 0.85558 0.0
H1208 H 0.08862 0.4891 0.87709 0.0
H1209 H 0.09657 0.47533 0.66412 0.0
H1210 H 0.06373 0.48208 0.64186 0.0
H1211 H 0.12292 0.49663 0.70086 0.0
H1212 H 0.09712 0.44141 0.7947 0.0
H1213 H 0.07595 0.42213 0.86482 0.0
H1214 H 0.09763 0.44725 0.04758 0.0
H1215 H 0.11877 0.46683 0.9785 0.0
C1216 C 0.20108 0.46778 0.89378 0.0
C1217 C 0.20796 0.48581 0.90659 0.0
C1218 C 0.18377 0.46536 0.86188 0.0
C1219 C 0.17305 0.48093 0.84255 0.0
C1220 C 0.18012 0.49891 0.85426 0.0
C1221 C 0.19746 0.50133 0.88528 0.0
C1222 C 0.15376 0.4786 0.81629 0.0
C1223 C 0.14117 0.46786 0.85485 0.0
C1224 C 0.14721 0.48846 0.75826 0.0
C1225 C 0.15999 0.49893 0.71222 0.0
C1226 C 0.15623 0.51766 0.69549 0.0
C1227 C 0.16815 0.52749 0.65181 0.0
C1228 C 0.18387 0.51874 0.62431 0.0
C1229 C 0.18769 0.50011 0.64026 0.0
C1230 C 0.17581 0.4902 0.68397 0.0
C1231 C 0.06435 0.4907 0.8135 0.0
C1232 C 0.0571 0.48915 0.74706 0.0
C1233 C 0.08321 0.48711 0.8259 0.0
C1234 C 0.09505 0.48147 0.77241 0.0
C1235 C 0.08773 0.47964 0.7062 0.0
C1236 C 0.06895 0.48352 0.69357 0.0
C1237 C 0.1153 0.47868 0.78484 0.0
C1238 C 0.12804 0.48848 0.74373 0.0
C1239 C 0.12204 0.4676 0.83949 0.0
C1240 C 0.10944 0.4557 0.88133 0.0
C1241 C 0.09729 0.44291 0.84981 0.0
C1242 C 0.08531 0.43191 0.88939 0.0
C1243 C 0.08542 0.43349 0.9606 0.0
C1244 C 0.09755 0.44604 0.99241 0.0
C1245 C 0.10956 0.45708 0.95307 0.0
H1246 H 0.07612 0.42496 0.99114 0.0
H1247 H 0.19307 0.52643 0.59068 0.0
H1248 H 0.032 0.79212 0.5409 0.0
H1249 H 0.02609 0.82329 0.58697 0.0
H1250 H 0.02282 0.84535 0.38181 0.0
H1251 H 0.02946 0.81449 0.33561 0.0
H1252 H 0.03924 0.86948 0.46024 0.0
H1253 H 0.98322 0.83266 0.47565 0.0
H1254 H 0.96403 0.80566 0.51011 0.0
H1255 H 0.97458 0.81779 0.7216 0.0
H1256 H 0.99405 0.84474 0.68833 0.0
H1257 H 0.98975 0.95139 0.51691 0.0
H1258 H 0.99375 0.91892 0.48248 0.0
H1259 H 0.00512 0.90348 0.6916 0.0
H1260 H 0.00097 0.93591 0.72692 0.0
H1261 H 0.98496 0.87604 0.61653 0.0
H1262 H 0.04004 0.91462 0.59567 0.0
H1263 H 0.05651 0.94283 0.55606 0.0
H1264 H 0.04596 0.9276 0.34728 0.0
H1265 H 0.02884 0.8996 0.38577 0.0
C1266 C 0.03038 0.80369 0.5057 0.0
C1267 C 0.03099 0.80082 0.43466 0.0
C1268 C 0.02685 0.82145 0.53206 0.0
C1269 C 0.02352 0.83654 0.48777 0.0
C1270 C 0.02522 0.8339 0.41695 0.0
C1271 C 0.02902 0.81622 0.39061 0.0
C1272 C 0.01748 0.8549 0.51465 0.0
C1273 C 0.02728 0.87089 0.49393 0.0
C1274 C 0.00199 0.85674 0.55936 0.0
C1275 C 0.99025 0.84058 0.57948 0.0
C1276 C 0.98156 0.82949 0.52948 0.0
C1277 C 0.97061 0.8142 0.5488 0.0
C1278 C 0.96813 0.80998 0.61799 0.0
C1279 C 0.97654 0.82106 0.66802 0.0
C1280 C 0.98753 0.83634 0.64897 0.0
C1281 C 0.99268 0.94106 0.55592 0.0
C1282 C 0.99545 0.94629 0.62442 0.0
C1283 C 0.99495 0.92252 0.53611 0.0
C1284 C 0.00014 0.90898 0.58435 0.0
C1285 C 0.00124 0.91381 0.65365 0.0
C1286 C 0.99893 0.93237 0.67363 0.0
C1287 C 0.00659 0.89046 0.56137 0.0
C1288 C 0.99694 0.87452 0.58304 0.0
C1289 C 0.02207 0.88865 0.51685 0.0
C1290 C 0.03303 0.90508 0.49364 0.0
C1291 C 0.04114 0.91733 0.54132 0.0
C1292 C 0.05058 0.9333 0.51906 0.0
C1293 C 0.05231 0.93699 0.44916 0.0
C1294 C 0.0446 0.92472 0.40141 0.0
C1295 C 0.035 0.90881 0.42342 0.0
H1296 H 0.05962 0.94935 0.43193 0.0
H1297 H 0.95965 0.79814 0.63285 0.0
H1298 H 0.70282 0.97626 0.52878 0.0
H1299 H 0.67242 0.97384 0.58438 0.0
H1300 H 0.66233 0.03225 0.54533 0.0
H1301 H 0.69263 0.03477 0.48847 0.0
H1302 H 0.65255 0.9894 0.68729 0.0
H1303 H 0.61872 0.03596 0.47733 0.0
H1304 H 0.62524 0.04546 0.35826 0.0
H1305 H 0.65699 0.99535 0.32682 0.0
H1306 H 0.65029 0.98536 0.44497 0.0
H1307 H 0.55795 0.00987 0.77195 0.0
H1308 H 0.59116 0.00976 0.74431 0.0
H1309 H 0.5796 0.97903 0.55931 0.0
H1310 H 0.5463 0.97968 0.58548 0.0
H1311 H 0.60089 0.00603 0.52951 0.0
H1312 H 0.60071 0.95999 0.70283 0.0
H1313 H 0.59593 0.94482 0.81462 0.0
H1314 H 0.63304 0.98411 0.90881 0.0
H1315 H 0.63734 0.00018 0.79841 0.0
C1316 C 0.69431 0.9887 0.53314 0.0
C1317 C 0.69995 0.00563 0.50291 0.0
C1318 C 0.67698 0.9873 0.56533 0.0
C1319 C 0.66503 0.00277 0.56776 0.0
C1320 C 0.67129 0.02008 0.54298 0.0
C1321 C 0.6886 0.02149 0.51054 0.0
C1322 C 0.6453 0.00028 0.58826 0.0
C1323 C 0.64117 0.99316 0.65336 0.0
C1324 C 0.63061 0.00439 0.54235 0.0
C1325 C 0.6342 0.01005 0.47037 0.0
C1326 C 0.627 0.02693 0.44488 0.0
C1327 C 0.63073 0.0324 0.37752 0.0
C1328 C 0.64161 0.02107 0.33512 0.0
C1329 C 0.64867 0.00418 0.35983 0.0
C1330 C 0.64487 0.99859 0.42692 0.0
C1331 C 0.56247 0.00297 0.72565 0.0
C1332 C 0.54946 0.99497 0.68051 0.0
C1333 C 0.58151 0.00281 0.7101 0.0
C1334 C 0.58792 0.99435 0.64977 0.0
C1335 C 0.57498 0.98577 0.60591 0.0
C1336 C 0.55594 0.98614 0.62097 0.0
C1337 C 0.60787 0.99551 0.6298 0.0
C1338 C 0.61212 0.00238 0.56428 0.0
C1339 C 0.6226 0.99043 0.67459 0.0
C1340 C 0.61918 0.98146 0.74212 0.0
C1341 C 0.60754 0.96569 0.74757 0.0
C1342 C 0.60491 0.95692 0.8108 0.0
C1343 C 0.6141 0.96359 0.86884 0.0
C1344 C 0.62578 0.97913 0.86395 0.0
C1345 C 0.62827 0.9881 0.80108 0.0
H1346 H 0.6123 0.95662 0.91754 0.0
H1347 H 0.64449 0.02532 0.28301 0.0
H1348 H 0.45835 0.69551 0.49219 0.0
H1349 H 0.46463 0.66494 0.54332 0.0
H1350 H 0.52337 0.67813 0.55287 0.0
H1351 H 0.51728 0.7084 0.50034 0.0
H1352 H 0.51818 0.64603 0.49051 0.0
H1353 H 0.49738 0.67453 0.69458 0.0
H1354 H 0.47703 0.69177 0.77402 0.0
H1355 H 0.43475 0.64966 0.75363 0.0
H1356 H 0.45472 0.63229 0.67309 0.0
H1357 H 0.51545 0.56124 0.74531 0.0
H1358 H 0.51424 0.59469 0.72216 0.0
H1359 H 0.4995 0.58333 0.5123 0.0
H1360 H 0.50094 0.54982 0.53509 0.0
H1361 H 0.48613 0.61583 0.68639 0.0
H1362 H 0.51538 0.61719 0.4088 0.0
H1363 H 0.53861 0.60043 0.33878 0.0
H1364 H 0.56856 0.58476 0.52019 0.0
H1365 H 0.54566 0.60162 0.59122 0.0
C1366 C 0.47256 0.69197 0.50614 0.0
C1367 C 0.48736 0.70417 0.49107 0.0
C1368 C 0.47612 0.67456 0.53569 0.0
C1369 C 0.4945 0.66924 0.55146 0.0
C1370 C 0.50911 0.68192 0.54053 0.0
C1371 C 0.50558 0.69926 0.51085 0.0
C1372 C 0.49871 0.6499 0.57337 0.0
C1373 C 0.51122 0.63945 0.53354 0.0
C1374 C 0.48986 0.64146 0.63019 0.0
C1375 C 0.47751 0.65219 0.67699 0.0
C1376 C 0.48362 0.66909 0.706 0.0
C1377 C 0.47218 0.67884 0.75157 0.0
C1378 C 0.45459 0.67185 0.7687 0.0
C1379 C 0.44839 0.65507 0.74027 0.0
C1380 C 0.45978 0.64525 0.69472 0.0
C1381 C 0.51205 0.56584 0.6942 0.0
C1382 C 0.50821 0.55288 0.64216 0.0
C1383 C 0.51135 0.58498 0.68103 0.0
C1384 C 0.50685 0.59153 0.61548 0.0
C1385 C 0.50331 0.57861 0.56306 0.0
C1386 C 0.50413 0.55945 0.57613 0.0
C1387 C 0.5052 0.61186 0.60236 0.0
C1388 C 0.49315 0.62248 0.64363 0.0
C1389 C 0.51475 0.62061 0.54771 0.0
C1390 C 0.52869 0.61053 0.50535 0.0
C1391 C 0.52696 0.61023 0.43373 0.0
C1392 C 0.54007 0.6007 0.39386 0.0
C1393 C 0.55502 0.59149 0.42503 0.0
C1394 C 0.55693 0.59183 0.49613 0.0
C1395 C 0.54387 0.60135 0.53622 0.0
H1396 H 0.56515 0.58411 0.39408 0.0
H1397 H 0.44577 0.6794 0.80413 0.0
H1398 H 0.78774 0.48052 0.56897 0.0
H1399 H 0.81854 0.48915 0.61448 0.0
H1400 H 0.83862 0.49825 0.40928 0.0
H1401 H 0.80818 0.48929 0.36347 0.0
H1402 H 0.86078 0.47389 0.48759 0.0
H1403 H 0.83034 0.53315 0.50416 0.0
H1404 H 0.80656 0.5558 0.54131 0.0
H1405 H 0.82239 0.5473 0.75073 0.0
H1406 H 0.84599 0.52421 0.71507 0.0
H1407 H 0.949 0.51348 0.53337 0.0
H1408 H 0.91603 0.5119 0.50234 0.0
H1409 H 0.90129 0.50326 0.71387 0.0
H1410 H 0.93426 0.50486 0.74576 0.0
H1411 H 0.876 0.52698 0.64042 0.0
H1412 H 0.90565 0.46682 0.62138 0.0
H1413 H 0.93016 0.44513 0.58232 0.0
H1414 H 0.9161 0.45687 0.37319 0.0
H1415 H 0.89173 0.47893 0.41101 0.0
C1416 C 0.79877 0.48435 0.53372 0.0
C1417 C 0.79577 0.48381 0.46271 0.0
C1418 C 0.81626 0.48937 0.55974 0.0
C1419 C 0.83084 0.49413 0.51505 0.0
C1420 C 0.8276 0.49429 0.44438 0.0
C1421 C 0.81025 0.48912 0.41837 0.0
C1422 C 0.84987 0.49781 0.54091 0.0
C1423 C 0.86413 0.48566 0.52016 0.0
C1424 C 0.85404 0.51282 0.58535 0.0
C1425 C 0.83966 0.52655 0.60698 0.0
C1426 C 0.82853 0.5358 0.55826 0.0
C1427 C 0.81512 0.5488 0.57905 0.0
C1428 C 0.81285 0.55287 0.64839 0.0
C1429 C 0.82405 0.54401 0.69708 0.0
C1430 C 0.83743 0.53095 0.67659 0.0
C1431 C 0.93876 0.51155 0.57355 0.0
C1432 C 0.94429 0.50904 0.6419 0.0
C1433 C 0.91993 0.51065 0.55568 0.0
C1434 C 0.90632 0.50724 0.60577 0.0
C1435 C 0.91163 0.50588 0.67456 0.0
C1436 C 0.93049 0.50671 0.69253 0.0
C1437 C 0.88685 0.50336 0.58533 0.0
C1438 C 0.87255 0.51528 0.60761 0.0
C1439 C 0.88256 0.4882 0.54188 0.0
C1440 C 0.89699 0.47468 0.51905 0.0
C1441 C 0.90788 0.46489 0.56706 0.0
C1442 C 0.92174 0.45252 0.54514 0.0
C1443 C 0.92473 0.44966 0.47532 0.0
C1444 C 0.9138 0.45913 0.42727 0.0
C1445 C 0.89996 0.47156 0.44891 0.0
H1446 H 0.93548 0.44009 0.45845 0.0
H1447 H 0.80249 0.56297 0.66437 0.0
loop_
_geom_bond_atom_site_label_1
_geom_bond_atom_site_label_2
_geom_bond_distance
_geom_bond_site_symmetry_2
_ccdc_geom_bond_type
O0 Cd1 2.300 . S
O0 C7 1.275 . S
Cd1 O0 2.300 . S
Cd1 O9 2.381 . S
Cd1 O10 2.378 . S
O2 Cd3 2.385 . S
O2 C7 1.255 . S
Cd3 O2 2.385 . S
Cd3 O4 2.317 . S
O4 Cd3 2.317 . S
O4 C5 1.232 . S
C5 O4 1.232 . S
C5 O6 1.218 . S
O6 C5 1.218 . S
C7 O0 1.275 . S
C7 O2 1.255 . S
C8 O9 1.258 . S
C8 O10 1.256 . S
O9 Cd1 2.381 . S
O9 C8 1.258 . S
O10 Cd1 2.378 . S
O10 C8 1.256 . S
O11 Cd12 2.300 1_655 S
O11 C18 1.275 1_655 S
Cd12 O11 2.300 1_455 S
Cd12 O20 2.381 1_455 S
Cd12 O21 2.378 . S
O13 Cd14 2.385 . S
O13 C18 1.255 . S
Cd14 O13 2.385 . S
Cd14 O15 2.317 . S
O15 Cd14 2.317 . S
O15 C16 1.232 . S
C16 O15 1.232 . S
C16 O17 1.218 . S
O17 C16 1.218 . S
C18 O11 1.275 1_455 S
C18 O13 1.255 . S
C19 O20 1.258 1_455 S
C19 O21 1.256 . S
O20 Cd12 2.381 1_655 S
O20 C19 1.258 1_655 S
O21 Cd12 2.378 . S
O21 C19 1.256 . S
O22 Cd23 2.300 1_565 S
O22 C29 1.275 1_565 S
Cd23 O22 2.300 1_545 S
Cd23 O31 2.381 1_545 S
Cd23 O32 2.378 . S
O24 Cd25 2.385 . S
O24 C29 1.255 . S
Cd25 O24 2.385 . S
Cd25 O26 2.317 . S
O26 Cd25 2.317 . S
O26 C27 1.232 . S
C27 O26 1.232 . S
C27 O28 1.218 . S
O28 C27 1.218 . S
C29 O22 1.275 1_545 S
C29 O24 1.255 . S
C30 O31 1.258 1_545 S
C30 O32 1.256 . S
O31 Cd23 2.381 1_565 S
O31 C30 1.258 1_565 S
O32 Cd23 2.378 . S
O32 C30 1.256 . S
O33 Cd34 2.300 . S
O33 C40 1.275 . S
Cd34 O33 2.300 . S
Cd34 O42 2.381 . S
Cd34 O43 2.378 . S
O35 Cd36 2.385 . S
O35 C40 1.255 . S
Cd36 O35 2.385 . S
Cd36 O37 2.317 . S
O37 Cd36 2.317 . S
O37 C38 1.232 . S
C38 O37 1.232 . S
C38 O39 1.218 . S
O39 C38 1.218 . S
C40 O33 1.275 . S
C40 O35 1.255 . S
C41 O42 1.258 . S
C41 O43 1.256 . S
O42 Cd34 2.381 . S
O42 C41 1.258 . S
O43 Cd34 2.378 . S
O43 C41 1.256 . S
O44 Cd45 2.300 . S
O44 C51 1.275 . S
Cd45 O44 2.300 . S
Cd45 O53 2.381 . S
Cd45 O54 2.378 . S
O46 Cd47 2.385 . S
O46 C51 1.255 . S
Cd47 O46 2.385 . S
Cd47 O48 2.317 1_554 S
O48 Cd47 2.317 1_556 S
O48 C49 1.232 . S
C49 O48 1.232 . S
C49 O50 1.218 . S
O50 C49 1.218 . S
C51 O44 1.275 . S
C51 O46 1.255 . S
C52 O53 1.258 . S
C52 O54 1.256 . S
O53 Cd45 2.381 . S
O53 C52 1.258 . S
O54 Cd45 2.378 . S
O54 C52 1.256 . S
O55 Cd56 2.300 1_655 S
O55 C62 1.275 1_655 S
Cd56 O55 2.300 1_455 S
Cd56 O64 2.381 1_455 S
Cd56 O65 2.378 . S
O57 Cd58 2.385 . S
O57 C62 1.255 . S
Cd58 O57 2.385 . S
Cd58 O59 2.317 1_554 S
O59 Cd58 2.317 1_556 S
O59 C60 1.232 . S
C60 O59 1.232 . S
C60 O61 1.218 . S
O61 C60 1.218 . S
C62 O55 1.275 1_455 S
C62 O57 1.255 . S
C63 O64 1.258 1_455 S
C63 O65 1.256 . S
O64 Cd56 2.381 1_655 S
O64 C63 1.258 1_655 S
O65 Cd56 2.378 . S
O65 C63 1.256 . S
O66 Cd67 2.300 1_565 S
O66 C73 1.275 1_565 S
Cd67 O66 2.300 1_545 S
Cd67 O75 2.381 1_545 S
Cd67 O76 2.378 . S
O68 Cd69 2.385 . S
O68 C73 1.255 . S
Cd69 O68 2.385 . S
Cd69 O70 2.317 1_554 S
O70 Cd69 2.317 1_556 S
O70 C71 1.232 . S
C71 O70 1.232 . S
C71 O72 1.218 . S
O72 C71 1.218 . S
C73 O66 1.275 1_545 S
C73 O68 1.255 . S
C74 O75 1.258 1_545 S
C74 O76 1.256 . S
O75 Cd67 2.381 1_565 S
O75 C74 1.258 1_565 S
O76 Cd67 2.378 . S
O76 C74 1.256 . S
O77 Cd78 2.300 . S
O77 C84 1.275 . S
Cd78 O77 2.300 . S
Cd78 O86 2.381 . S
Cd78 O87 2.378 . S
O79 Cd80 2.385 . S
O79 C84 1.255 . S
Cd80 O79 2.385 . S
Cd80 O81 2.317 1_554 S
O81 Cd80 2.317 1_556 S
O81 C82 1.232 . S
C82 O81 1.232 . S
C82 O83 1.218 . S
O83 C82 1.218 . S
C84 O77 1.275 . S
C84 O79 1.255 . S
C85 O86 1.258 . S
C85 O87 1.256 . S
O86 Cd78 2.381 . S
O86 C85 1.258 . S
O87 Cd78 2.378 . S
O87 C85 1.256 . S
Tb88 C90 2.809 . S
Tb88 O108 2.478 1_455 S
Tb88 O109 2.440 . S
Tb88 O110 2.658 1_565 S
Tb88 O111 2.409 . S
Tb88 O112 2.378 . S
Tb88 O116 2.325 1_455 S
Tb88 O119 2.341 1_565 S
Tb89 C99 2.809 . S
Tb89 O110 2.325 1_655 S
Tb89 O113 2.341 1_545 S
Tb89 O114 2.472 1_655 S
Tb89 O115 2.440 . S
Tb89 O116 2.658 1_545 S
Tb89 O117 2.409 . S
Tb89 O118 2.378 . S
C90 Tb88 2.809 . S
C90 C91 1.514 . S
C90 O108 1.233 1_455 S
C90 O109 1.266 . S
C91 C90 1.514 . S
C91 C92 1.359 . S
C91 C96 1.348 . S
C92 C91 1.359 . S
C92 C93 1.380 . S
C92 H120 0.929 1_455 S
C93 C92 1.380 . S
C93 C94 1.347 . S
C93 H121 0.931 1_455 S
C94 C93 1.347 . S
C94 C95 1.369 . S
C95 C94 1.369 . S
C95 C96 1.408 . S
C95 H122 0.930 . S
C96 C91 1.348 . S
C96 C95 1.408 . S
C96 H123 0.930 . S
C97 O110 1.264 1_565 S
C97 O111 1.278 . S
C98 O112 1.236 1_655 S
C98 O113 1.266 . S
C99 Tb89 2.809 . S
C99 C100 1.514 . S
C99 O114 1.221 1_655 S
C99 O115 1.266 . S
C100 C99 1.514 . S
C100 C101 1.359 . S
C100 C105 1.348 . S
C101 C100 1.359 . S
C101 C102 1.380 . S
C101 H124 0.929 1_655 S
C102 C101 1.380 . S
C102 C103 1.347 . S
C102 H125 0.931 1_655 S
C103 C102 1.347 . S
C103 C104 1.369 . S
C104 C103 1.369 . S
C104 C105 1.408 . S
C104 H126 0.930 . S
C105 C100 1.348 . S
C105 C104 1.408 . S
C105 H127 0.930 . S
C106 O116 1.260 1_545 S
C106 O117 1.286 . S
C107 O118 1.236 1_455 S
C107 O119 1.266 . S
O108 Tb88 2.478 1_655 S
O108 C90 1.233 1_655 S
O109 Tb88 2.440 . S
O109 C90 1.266 . S
O110 Tb88 2.658 1_545 S
O110 Tb89 2.325 1_455 S
O110 C97 1.264 1_545 S
O111 Tb88 2.409 . S
O111 C97 1.278 . S
O112 Tb88 2.378 . S
O112 C98 1.236 1_455 S
O113 Tb89 2.341 1_565 S
O113 C98 1.266 . S
O114 Tb89 2.472 1_455 S
O114 C99 1.221 1_455 S
O115 Tb89 2.440 . S
O115 C99 1.266 . S
O116 Tb88 2.325 1_655 S
O116 Tb89 2.658 1_565 S
O116 C106 1.260 1_565 S
O117 Tb89 2.409 . S
O117 C106 1.286 . S
O118 Tb89 2.378 . S
O118 C107 1.236 1_655 S
O119 Tb88 2.341 1_545 S
O119 C107 1.266 . S
H120 C92 0.929 1_655 S
H121 C93 0.931 1_655 S
H122 C95 0.930 . S
H123 C96 0.930 . S
H124 C101 0.929 1_455 S
H125 C102 0.931 1_455 S
H126 C104 0.930 . S
H127 C105 0.930 . S
Tb128 C130 2.809 . S
Tb128 O148 2.476 1_545 S
Tb128 O149 2.440 . S
Tb128 O150 2.658 . S
Tb128 O151 2.409 . S
Tb128 O152 2.378 . S
Tb128 O156 2.325 1_545 S
Tb128 O159 2.341 . S
Tb129 C139 2.809 . S
Tb129 O150 2.325 1_565 S
Tb129 O153 2.341 . S
Tb129 O154 2.471 1_565 S
Tb129 O155 2.440 . S
Tb129 O156 2.658 . S
Tb129 O157 2.409 . S
Tb129 O158 2.378 . S
C130 Tb128 2.809 . S
C130 C131 1.514 . S
C130 O148 1.230 1_545 S
C130 O149 1.266 . S
C131 C130 1.514 . S
C131 C132 1.359 . S
C131 C136 1.348 . S
C132 C131 1.359 . S
C132 C133 1.380 . S
C132 H160 0.929 1_545 S
C133 C132 1.380 . S
C133 C134 1.347 . S
C133 H161 0.931 1_545 S
C134 C133 1.347 . S
C134 C135 1.369 . S
C135 C134 1.369 . S
C135 C136 1.408 . S
C135 H162 0.930 . S
C136 C131 1.348 . S
C136 C135 1.408 . S
C136 H163 0.930 . S
C137 O150 1.281 . S
C137 O151 1.254 . S
C138 O152 1.236 1_565 S
C138 O153 1.266 . S
C139 Tb129 2.809 . S
C139 C140 1.514 . S
C139 O154 1.217 1_565 S
C139 O155 1.266 . S
C140 C139 1.514 . S
C140 C141 1.359 . S
C140 C145 1.348 . S
C141 C140 1.359 . S
C141 C142 1.380 . S
C141 H164 0.929 1_565 S
C142 C141 1.380 . S
C142 C143 1.347 . S
C142 H165 0.931 1_565 S
C143 C142 1.347 . S
C143 C144 1.369 . S
C144 C143 1.369 . S
C144 C145 1.408 . S
C144 H166 0.930 . S
C145 C140 1.348 . S
C145 C144 1.408 . S
C145 H167 0.930 . S
C146 O156 1.281 . S
C146 O157 1.254 . S
C147 O158 1.236 1_545 S
C147 O159 1.266 . S
O148 Tb128 2.476 1_565 S
O148 C130 1.230 1_565 S
O149 Tb128 2.440 . S
O149 C130 1.266 . S
O150 Tb128 2.658 . S
O150 Tb129 2.325 1_545 S
O150 C137 1.281 . S
O151 Tb128 2.409 . S
O151 C137 1.254 . S
O152 Tb128 2.378 . S
O152 C138 1.236 1_545 S
O153 Tb129 2.341 . S
O153 C138 1.266 . S
O154 Tb129 2.471 1_545 S
O154 C139 1.217 1_545 S
O155 Tb129 2.440 . S
O155 C139 1.266 . S
O156 Tb128 2.325 1_565 S
O156 Tb129 2.658 . S
O156 C146 1.281 . S
O157 Tb129 2.409 . S
O157 C146 1.254 . S
O158 Tb129 2.378 . S
O158 C147 1.236 1_565 S
O159 Tb128 2.341 . S
O159 C147 1.266 . S
H160 C132 0.929 1_565 S
H161 C133 0.931 1_565 S
H162 C135 0.930 . S
H163 C136 0.930 . S
H164 C141 0.929 1_545 S
H165 C142 0.931 1_545 S
H166 C144 0.930 . S
H167 C145 0.930 . S
Tb168 C170 2.809 . S
Tb168 O188 2.484 . S
Tb168 O189 2.440 . S
Tb168 O190 2.658 . S
Tb168 O191 2.409 . S
Tb168 O192 2.378 . S
Tb168 O196 2.325 . S
Tb168 O199 2.341 . S
Tb169 C179 2.809 . S
Tb169 O190 2.325 . S
Tb169 O193 2.341 . S
Tb169 O194 2.484 . S
Tb169 O195 2.440 . S
Tb169 O196 2.658 . S
Tb169 O197 2.409 . S
Tb169 O198 2.378 . S
C170 Tb168 2.809 . S
C170 C171 1.514 . S
C170 O188 1.248 . S
C170 O189 1.266 . S
C171 C170 1.514 . S
C171 C172 1.359 . S
C171 C176 1.348 . S
C172 C171 1.359 . S
C172 C173 1.380 . S
C172 H200 0.929 . S
C173 C172 1.380 . S
C173 C174 1.347 . S
C173 H201 0.931 . S
C174 C173 1.347 . S
C174 C175 1.369 . S
C175 C174 1.369 . S
C175 C176 1.408 . S
C175 H202 0.930 . S
C176 C171 1.348 . S
C176 C175 1.408 . S
C176 H203 0.930 . S
C177 O190 1.281 . S
C177 O191 1.254 . S
C178 O192 1.236 . S
C178 O193 1.266 . S
C179 Tb169 2.809 . S
C179 C180 1.514 . S
C179 O194 1.248 . S
C179 O195 1.266 . S
C180 C179 1.514 . S
C180 C181 1.359 . S
C180 C185 1.348 . S
C181 C180 1.359 . S
C181 C182 1.380 . S
C181 H204 0.929 . S
C182 C181 1.380 . S
C182 C183 1.347 . S
C182 H205 0.931 . S
C183 C182 1.347 . S
C183 C184 1.369 . S
C184 C183 1.369 . S
C184 C185 1.408 . S
C184 H206 0.930 . S
C185 C180 1.348 . S
C185 C184 1.408 . S
C185 H207 0.930 . S
C186 O196 1.281 . S
C186 O197 1.254 . S
C187 O198 1.236 . S
C187 O199 1.266 . S
O188 Tb168 2.484 . S
O188 C170 1.248 . S
O189 Tb168 2.440 . S
O189 C170 1.266 . S
O190 Tb168 2.658 . S
O190 Tb169 2.325 . S
O190 C177 1.281 . S
O191 Tb168 2.409 . S
O191 C177 1.254 . S
O192 Tb168 2.378 . S
O192 C178 1.236 . S
O193 Tb169 2.341 . S
O193 C178 1.266 . S
O194 Tb169 2.484 . S
O194 C179 1.248 . S
O195 Tb169 2.440 . S
O195 C179 1.266 . S
O196 Tb168 2.325 . S
O196 Tb169 2.658 . S
O196 C186 1.281 . S
O197 Tb169 2.409 . S
O197 C186 1.254 . S
O198 Tb169 2.378 . S
O198 C187 1.236 . S
O199 Tb168 2.341 . S
O199 C187 1.266 . S
H200 C172 0.929 . S
H201 C173 0.931 . S
H202 C175 0.930 . S
H203 C176 0.930 . S
H204 C181 0.929 . S
H205 C182 0.931 . S
H206 C184 0.930 . S
H207 C185 0.930 . S
Tb208 C210 2.809 . S
Tb208 O228 2.484 . S
Tb208 O229 2.440 . S
Tb208 O230 2.658 1_655 S
Tb208 O231 2.409 . S
Tb208 O232 2.378 . S
Tb208 O236 2.325 . S
Tb208 O239 2.341 1_655 S
Tb209 C219 2.809 . S
Tb209 O230 2.325 . S
Tb209 O233 2.341 1_455 S
Tb209 O234 2.484 . S
Tb209 O235 2.440 . S
Tb209 O236 2.658 1_455 S
Tb209 O237 2.409 . S
Tb209 O238 2.378 . S
C210 Tb208 2.809 . S
C210 C211 1.514 . S
C210 O228 1.248 . S
C210 O229 1.266 . S
C211 C210 1.514 . S
C211 C212 1.359 . S
C211 C216 1.348 . S
C212 C211 1.359 . S
C212 C213 1.380 . S
C212 H240 0.929 . S
C213 C212 1.380 . S
C213 C214 1.347 . S
C213 H241 0.931 . S
C214 C213 1.347 . S
C214 C215 1.369 . S
C215 C214 1.369 . S
C215 C216 1.408 . S
C215 H242 0.930 . S
C216 C211 1.348 . S
C216 C215 1.408 . S
C216 H243 0.930 . S
C217 O230 1.267 1_655 S
C217 O231 1.274 . S
C218 O232 1.236 . S
C218 O233 1.266 . S
C219 Tb209 2.809 . S
C219 C220 1.514 . S
C219 O234 1.248 . S
C219 O235 1.266 . S
C220 C219 1.514 . S
C220 C221 1.359 . S
C220 C225 1.348 . S
C221 C220 1.359 . S
C221 C222 1.380 . S
C221 H244 0.929 . S
C222 C221 1.380 . S
C222 C223 1.347 . S
C222 H245 0.931 . S
C223 C222 1.347 . S
C223 C224 1.369 . S
C224 C223 1.369 . S
C224 C225 1.408 . S
C224 H246 0.930 . S
C225 C220 1.348 . S
C225 C224 1.408 . S
C225 H247 0.930 . S
C226 O236 1.263 1_455 S
C226 O237 1.281 . S
C227 O238 1.236 . S
C227 O239 1.266 . S
O228 Tb208 2.484 . S
O228 C210 1.248 . S
O229 Tb208 2.440 . S
O229 C210 1.266 . S
O230 Tb208 2.658 1_455 S
O230 Tb209 2.325 . S
O230 C217 1.267 1_455 S
O231 Tb208 2.409 . S
O231 C217 1.274 . S
O232 Tb208 2.378 . S
O232 C218 1.236 . S
O233 Tb209 2.341 1_655 S
O233 C218 1.266 . S
O234 Tb209 2.484 . S
O234 C219 1.248 . S
O235 Tb209 2.440 . S
O235 C219 1.266 . S
O236 Tb208 2.325 . S
O236 Tb209 2.658 1_655 S
O236 C226 1.263 1_655 S
O237 Tb209 2.409 . S
O237 C226 1.281 . S
O238 Tb209 2.378 . S
O238 C227 1.236 . S
O239 Tb208 2.341 1_455 S
O239 C227 1.266 . S
H240 C212 0.929 . S
H241 C213 0.931 . S
H242 C215 0.930 . S
H243 C216 0.930 . S
H244 C221 0.929 . S
H245 C222 0.931 . S
H246 C224 0.930 . S
H247 C225 0.930 . S
H248 C266 0.951 . S
H249 C268 0.951 . S
H250 C270 0.950 . S
H251 C271 0.950 . S
H252 C273 0.950 . S
H253 C276 0.950 . S
H254 C277 0.950 . S
H255 C279 0.950 . S
H256 C280 0.950 . S
H257 C281 0.951 . S
H258 C283 0.951 . S
H259 C285 0.950 . S
H260 C286 0.950 . S
H261 C288 0.950 . S
H262 C291 0.950 . S
H263 C292 0.950 . S
H264 C294 0.950 . S
H265 C295 0.950 . S
C266 H248 0.951 . S
C266 C267 1.366 . S
C266 C268 1.388 . S
C267 C266 1.366 . S
C267 C271 1.384 1_545 S
C268 H249 0.951 . S
C268 C266 1.388 . S
C268 C269 1.366 . S
C269 C268 1.366 . S
C269 C270 1.414 1_545 S
C269 C272 1.499 . S
C270 H250 0.950 . S
C270 C269 1.414 1_565 S
C270 C271 1.374 . S
C271 H251 0.950 . S
C271 C267 1.384 1_565 S
C271 C270 1.374 . S
C272 C269 1.499 . S
C272 C273 1.373 1_545 S
C272 C274 1.389 . S
C273 H252 0.950 . S
C273 C272 1.373 1_565 S
C273 C289 1.377 . S
C274 C272 1.389 . S
C274 C275 1.524 . S
C274 C288 1.377 . S
C275 C274 1.524 . S
C275 C276 1.397 . S
C275 C280 1.363 . S
C276 H253 0.950 . S
C276 C275 1.397 . S
C276 C277 1.334 . S
C277 H254 0.950 . S
C277 C276 1.334 . S
C277 C278 1.287 . S
C278 C277 1.287 . S
C278 C279 1.524 . S
C278 H297 0.913 . S
C279 H255 0.950 . S
C279 C278 1.524 . S
C279 C280 1.415 . S
C280 H256 0.950 . S
C280 C275 1.363 . S
C280 C279 1.415 . S
C281 H257 0.951 . S
C281 C282 1.362 1_565 S
C281 C283 1.388 . S
C282 C281 1.362 1_545 S
C282 C286 1.388 . S
C283 H258 0.951 . S
C283 C281 1.388 . S
C283 C284 1.368 . S
C284 C283 1.368 . S
C284 C285 1.411 1_565 S
C284 C287 1.499 . S
C285 H259 0.950 . S
C285 C284 1.411 1_545 S
C285 C286 1.374 . S
C286 H260 0.950 . S
C286 C282 1.388 . S
C286 C285 1.374 . S
C287 C284 1.499 . S
C287 C288 1.350 1_565 S
C287 C289 1.412 . S
C288 H261 0.950 . S
C288 C274 1.377 . S
C288 C287 1.350 1_545 S
C289 C273 1.377 . S
C289 C287 1.412 . S
C289 C290 1.524 . S
C290 C289 1.524 . S
C290 C291 1.397 . S
C290 C295 1.363 . S
C291 H262 0.950 . S
C291 C290 1.397 . S
C291 C292 1.334 . S
C292 H263 0.950 . S
C292 C291 1.334 . S
C292 C293 1.287 . S
C293 C292 1.287 . S
C293 C294 1.524 . S
C293 H296 0.999 . S
C294 H264 0.950 . S
C294 C293 1.524 . S
C294 C295 1.415 . S
C295 H265 0.950 . S
C295 C290 1.363 . S
C295 C294 1.415 . S
H296 C293 0.999 . S
H297 C278 0.913 . S
H298 C316 0.951 . S
H299 C318 0.951 . S
H300 C320 0.950 . S
H301 C321 0.950 . S
H302 C323 0.950 . S
H303 C326 0.950 . S
H304 C327 0.950 . S
H305 C329 0.950 . S
H306 C330 0.950 . S
H307 C331 0.951 . S
H308 C333 0.951 . S
H309 C335 0.950 . S
H310 C336 0.950 . S
H311 C338 0.950 . S
H312 C341 0.950 . S
H313 C342 0.950 . S
H314 C344 0.950 . S
H315 C345 0.950 . S
C316 H298 0.951 . S
C316 C317 1.366 . S
C316 C318 1.388 . S
C317 C316 1.366 . S
C317 C321 1.385 . S
C318 H299 0.951 . S
C318 C316 1.388 . S
C318 C319 1.366 . S
C319 C318 1.366 . S
C319 C320 1.414 . S
C319 C322 1.499 . S
C320 H300 0.950 . S
C320 C319 1.414 . S
C320 C321 1.374 . S
C321 H301 0.950 . S
C321 C317 1.385 . S
C321 C320 1.374 . S
C322 C319 1.499 . S
C322 C323 1.373 . S
C322 C324 1.389 . S
C323 H302 0.950 . S
C323 C322 1.373 . S
C323 C339 1.377 . S
C324 C322 1.389 . S
C324 C325 1.524 . S
C324 C338 1.377 . S
C325 C324 1.524 . S
C325 C326 1.397 . S
C325 C330 1.363 . S
C326 H303 0.950 . S
C326 C325 1.397 . S
C326 C327 1.334 . S
C327 H304 0.950 . S
C327 C326 1.334 . S
C327 C328 1.287 . S
C328 C327 1.287 . S
C328 C329 1.524 . S
C328 H347 0.913 . S
C329 H305 0.950 . S
C329 C328 1.524 . S
C329 C330 1.415 . S
C330 H306 0.950 . S
C330 C325 1.363 . S
C330 C329 1.415 . S
C331 H307 0.951 . S
C331 C332 1.366 . S
C331 C333 1.388 . S
C332 C331 1.366 . S
C332 C336 1.385 . S
C333 H308 0.951 . S
C333 C331 1.388 . S
C333 C334 1.366 . S
C334 C333 1.366 . S
C334 C335 1.414 . S
C334 C337 1.499 . S
C335 H309 0.950 . S
C335 C334 1.414 . S
C335 C336 1.374 . S
C336 H310 0.950 . S
C336 C332 1.385 . S
C336 C335 1.374 . S
C337 C334 1.499 . S
C337 C338 1.373 . S
C337 C339 1.389 . S
C338 H311 0.950 . S
C338 C324 1.377 . S
C338 C337 1.373 . S
C339 C323 1.377 . S
C339 C337 1.389 . S
C339 C340 1.524 . S
C340 C339 1.524 . S
C340 C341 1.397 . S
C340 C345 1.363 . S
C341 H312 0.950 . S
C341 C340 1.397 . S
C341 C342 1.334 . S
C342 H313 0.950 . S
C342 C341 1.334 . S
C342 C343 1.287 . S
C343 C342 1.287 . S
C343 C344 1.524 . S
C343 H346 0.999 . S
C344 H314 0.950 . S
C344 C343 1.524 . S
C344 C345 1.415 . S
C345 H315 0.950 . S
C345 C340 1.363 . S
C345 C344 1.415 . S
H346 C343 0.999 . S
H347 C328 0.913 . S
H348 C366 0.951 . S
H349 C368 0.951 . S
H350 C370 0.950 . S
H351 C371 0.950 . S
H352 C373 0.950 . S
H353 C376 0.950 . S
H354 C377 0.950 . S
H355 C379 0.950 . S
H356 C380 0.950 . S
H357 C381 0.951 . S
H358 C383 0.951 . S
H359 C385 0.950 . S
H360 C386 0.950 . S
H361 C388 0.950 . S
H362 C391 0.950 . S
H363 C392 0.950 . S
H364 C394 0.950 . S
H365 C395 0.950 . S
C366 H348 0.951 . S
C366 C367 1.366 . S
C366 C368 1.388 . S
C367 C366 1.366 . S
C367 C371 1.385 . S
C368 H349 0.951 . S
C368 C366 1.388 . S
C368 C369 1.366 . S
C369 C368 1.366 . S
C369 C370 1.414 . S
C369 C372 1.499 . S
C370 H350 0.950 . S
C370 C369 1.414 . S
C370 C371 1.374 . S
C371 H351 0.950 . S
C371 C367 1.385 . S
C371 C370 1.374 . S
C372 C369 1.499 . S
C372 C373 1.373 . S
C372 C374 1.389 . S
C373 H352 0.950 . S
C373 C372 1.373 . S
C373 C389 1.377 . S
C374 C372 1.389 . S
C374 C375 1.524 . S
C374 C388 1.377 . S
C375 C374 1.524 . S
C375 C376 1.397 . S
C375 C380 1.363 . S
C376 H353 0.950 . S
C376 C375 1.397 . S
C376 C377 1.334 . S
C377 H354 0.950 . S
C377 C376 1.334 . S
C377 C378 1.287 . S
C378 C377 1.287 . S
C378 C379 1.524 . S
C378 H397 0.913 . S
C379 H355 0.950 . S
C379 C378 1.524 . S
C379 C380 1.415 . S
C380 H356 0.950 . S
C380 C375 1.363 . S
C380 C379 1.415 . S
C381 H357 0.951 . S
C381 C382 1.366 . S
C381 C383 1.388 . S
C382 C381 1.366 . S
C382 C386 1.385 . S
C383 H358 0.951 . S
C383 C381 1.388 . S
C383 C384 1.366 . S
C384 C383 1.366 . S
C384 C385 1.414 . S
C384 C387 1.499 . S
C385 H359 0.950 . S
C385 C384 1.414 . S
C385 C386 1.374 . S
C386 H360 0.950 . S
C386 C382 1.385 . S
C386 C385 1.374 . S
C387 C384 1.499 . S
C387 C388 1.373 . S
C387 C389 1.389 . S
C388 H361 0.950 . S
C388 C374 1.377 . S
C388 C387 1.373 . S
C389 C373 1.377 . S
C389 C387 1.389 . S
C389 C390 1.524 . S
C390 C389 1.524 . S
C390 C391 1.397 . S
C390 C395 1.363 . S
C391 H362 0.950 . S
C391 C390 1.397 . S
C391 C392 1.334 . S
C392 H363 0.950 . S
C392 C391 1.334 . S
C392 C393 1.287 . S
C393 C392 1.287 . S
C393 C394 1.524 . S
C393 H396 0.999 . S
C394 H364 0.950 . S
C394 C393 1.524 . S
C394 C395 1.415 . S
C395 H365 0.950 . S
C395 C390 1.363 . S
C395 C394 1.415 . S
H396 C393 0.999 . S
H397 C378 0.913 . S
H398 C416 0.951 . S
H399 C418 0.951 . S
H400 C420 0.950 . S
H401 C421 0.950 . S
H402 C423 0.950 . S
H403 C426 0.950 . S
H404 C427 0.950 . S
H405 C429 0.950 . S
H406 C430 0.950 . S
H407 C431 0.951 . S
H408 C433 0.951 . S
H409 C435 0.950 . S
H410 C436 0.950 . S
H411 C438 0.950 . S
H412 C441 0.950 . S
H413 C442 0.950 . S
H414 C444 0.950 . S
H415 C445 0.950 . S
C416 H398 0.951 . S
C416 C417 1.367 . S
C416 C418 1.388 . S
C417 C416 1.367 . S
C417 C421 1.383 1_455 S
C418 H399 0.951 . S
C418 C416 1.388 . S
C418 C419 1.355 1_455 S
C419 C418 1.355 1_655 S
C419 C420 1.424 . S
C419 C422 1.499 . S
C420 H400 0.950 . S
C420 C419 1.424 . S
C420 C421 1.374 . S
C421 H401 0.950 . S
C421 C417 1.383 1_655 S
C421 C420 1.374 . S
C422 C419 1.499 . S
C422 C423 1.348 1_655 S
C422 C424 1.413 . S
C423 H402 0.950 . S
C423 C422 1.348 1_455 S
C423 C439 1.377 . S
C424 C422 1.413 . S
C424 C425 1.524 . S
C424 C438 1.377 . S
C425 C424 1.524 . S
C425 C426 1.397 . S
C425 C430 1.363 . S
C426 H403 0.950 . S
C426 C425 1.397 . S
C426 C427 1.334 . S
C427 H404 0.950 . S
C427 C426 1.334 . S
C427 C428 1.287 . S
C428 C427 1.287 . S
C428 C429 1.524 . S
C428 H447 0.913 . S
C429 H405 0.950 . S
C429 C428 1.524 . S
C429 C430 1.415 . S
C430 H406 0.950 . S
C430 C425 1.363 . S
C430 C429 1.415 . S
C431 H407 0.951 . S
C431 C432 1.356 1_655 S
C431 C433 1.388 . S
C432 C431 1.356 1_455 S
C432 C436 1.397 . S
C433 H408 0.951 . S
C433 C431 1.388 . S
C433 C434 1.366 1_655 S
C434 C433 1.366 1_455 S
C434 C435 1.414 . S
C434 C437 1.499 . S
C435 H409 0.950 . S
C435 C434 1.414 . S
C435 C436 1.374 . S
C436 H410 0.950 . S
C436 C432 1.397 . S
C436 C435 1.374 . S
C437 C434 1.499 . S
C437 C438 1.373 1_455 S
C437 C439 1.389 . S
C438 H411 0.950 . S
C438 C424 1.377 . S
C438 C437 1.373 1_655 S
C439 C423 1.377 . S
C439 C437 1.389 . S
C439 C440 1.524 . S
C440 C439 1.524 . S
C440 C441 1.397 . S
C440 C445 1.363 . S
C441 H412 0.950 . S
C441 C440 1.397 . S
C441 C442 1.334 . S
C442 H413 0.950 . S
C442 C441 1.334 . S
C442 C443 1.287 . S
C443 C442 1.287 . S
C443 C444 1.524 . S
C443 H446 0.999 . S
C444 H414 0.950 . S
C444 C443 1.524 . S
C444 C445 1.415 . S
C445 H415 0.950 . S
C445 C440 1.363 . S
C445 C444 1.415 . S
H446 C443 0.999 . S
H447 C428 0.913 . S
H448 C466 0.951 . S
H449 C468 0.951 . S
H450 C470 0.950 . S
H451 C471 0.950 . S
H452 C473 0.950 . S
H453 C476 0.950 . S
H454 C477 0.950 . S
H455 C479 0.950 . S
H456 C480 0.950 . S
H457 C481 0.951 . S
H458 C483 0.951 . S
H459 C485 0.950 . S
H460 C486 0.950 . S
H461 C488 0.950 . S
H462 C491 0.950 . S
H463 C492 0.950 . S
H464 C494 0.950 . S
H465 C495 0.950 . S
C466 H448 0.951 . S
C466 C467 1.366 1_565 S
C466 C468 1.388 . S
C467 C466 1.366 1_545 S
C467 C471 1.384 . S
C468 H449 0.951 . S
C468 C466 1.388 . S
C468 C469 1.385 . S
C469 C468 1.385 . S
C469 C470 1.394 1_565 S
C469 C472 1.499 . S
C470 H450 0.950 . S
C470 C469 1.394 1_545 S
C470 C471 1.374 . S
C471 H451 0.950 . S
C471 C467 1.384 . S
C471 C470 1.374 . S
C472 C469 1.499 . S
C472 C473 1.325 1_565 S
C472 C474 1.436 . S
C473 H452 0.950 . S
C473 C472 1.325 1_545 S
C473 C489 1.377 1_554 S
C474 C472 1.436 . S
C474 C475 1.524 . S
C474 C488 1.377 1_554 S
C475 C474 1.524 . S
C475 C476 1.397 . S
C475 C480 1.363 1_554 S
C476 H453 0.950 . S
C476 C475 1.397 . S
C476 C477 1.334 . S
C477 H454 0.950 . S
C477 C476 1.334 . S
C477 C478 1.287 . S
C478 C477 1.287 . S
C478 C479 1.524 1_554 S
C478 H497 0.913 . S
C479 H455 0.950 . S
C479 C478 1.524 1_556 S
C479 C480 1.415 . S
C480 H456 0.950 . S
C480 C475 1.363 1_556 S
C480 C479 1.415 . S
C481 H457 0.951 . S
C481 C482 1.358 1_545 S
C481 C483 1.388 . S
C482 C481 1.358 1_565 S
C482 C486 1.393 . S
C483 H458 0.951 . S
C483 C481 1.388 . S
C483 C484 1.376 . S
C484 C483 1.376 . S
C484 C485 1.403 1_545 S
C484 C487 1.499 . S
C485 H459 0.950 . S
C485 C484 1.403 1_565 S
C485 C486 1.374 . S
C486 H460 0.950 . S
C486 C482 1.393 . S
C486 C485 1.374 . S
C487 C484 1.499 . S
C487 C488 1.347 1_545 S
C487 C489 1.414 . S
C488 H461 0.950 . S
C488 C474 1.377 1_556 S
C488 C487 1.347 1_565 S
C489 C473 1.377 1_556 S
C489 C487 1.414 . S
C489 C490 1.524 . S
C490 C489 1.524 . S
C490 C491 1.397 . S
C490 C495 1.363 1_556 S
C491 H462 0.950 . S
C491 C490 1.397 . S
C491 C492 1.334 . S
C492 H463 0.950 . S
C492 C491 1.334 . S
C492 C493 1.287 . S
C493 C492 1.287 . S
C493 C494 1.524 1_556 S
C493 H496 0.999 . S
C494 H464 0.950 . S
C494 C493 1.524 1_554 S
C494 C495 1.415 . S
C495 H465 0.950 . S
C495 C490 1.363 1_554 S
C495 C494 1.415 . S
H496 C493 0.999 . S
H497 C478 0.913 . S
H498 C516 0.951 . S
H499 C518 0.951 . S
H500 C520 0.950 . S
H501 C521 0.950 . S
H502 C523 0.950 . S
H503 C526 0.950 . S
H504 C527 0.950 . S
H505 C529 0.950 . S
H506 C530 0.950 . S
H507 C531 0.951 . S
H508 C533 0.951 . S
H509 C535 0.950 . S
H510 C536 0.950 . S
H511 C538 0.950 . S
H512 C541 0.950 . S
H513 C542 0.950 . S
H514 C544 0.950 . S
H515 C545 0.950 . S
C516 H498 0.951 . S
C516 C517 1.366 . S
C516 C518 1.388 . S
C517 C516 1.366 . S
C517 C521 1.385 . S
C518 H499 0.951 . S
C518 C516 1.388 . S
C518 C519 1.366 . S
C519 C518 1.366 . S
C519 C520 1.414 . S
C519 C522 1.499 . S
C520 H500 0.950 . S
C520 C519 1.414 . S
C520 C521 1.374 . S
C521 H501 0.950 . S
C521 C517 1.385 . S
C521 C520 1.374 . S
C522 C519 1.499 . S
C522 C523 1.373 . S
C522 C524 1.389 . S
C523 H502 0.950 . S
C523 C522 1.373 . S
C523 C539 1.377 1_554 S
C524 C522 1.389 . S
C524 C525 1.524 . S
C524 C538 1.377 1_554 S
C525 C524 1.524 . S
C525 C526 1.397 . S
C525 C530 1.363 . S
C526 H503 0.950 . S
C526 C525 1.397 . S
C526 C527 1.334 . S
C527 H504 0.950 . S
C527 C526 1.334 . S
C527 C528 1.287 . S
C528 C527 1.287 . S
C528 C529 1.524 . S
C528 H547 0.913 . S
C529 H505 0.950 . S
C529 C528 1.524 . S
C529 C530 1.415 . S
C530 H506 0.950 . S
C530 C525 1.363 . S
C530 C529 1.415 . S
C531 H507 0.951 . S
C531 C532 1.366 . S
C531 C533 1.388 . S
C532 C531 1.366 . S
C532 C536 1.385 . S
C533 H508 0.951 . S
C533 C531 1.388 . S
C533 C534 1.366 . S
C534 C533 1.366 . S
C534 C535 1.414 . S
C534 C537 1.499 . S
C535 H509 0.950 . S
C535 C534 1.414 . S
C535 C536 1.374 . S
C536 H510 0.950 . S
C536 C532 1.385 . S
C536 C535 1.374 . S
C537 C534 1.499 . S
C537 C538 1.373 . S
C537 C539 1.389 . S
C538 H511 0.950 . S
C538 C524 1.377 1_556 S
C538 C537 1.373 . S
C539 C523 1.377 1_556 S
C539 C537 1.389 . S
C539 C540 1.524 . S
C540 C539 1.524 . S
C540 C541 1.397 . S
C540 C545 1.363 . S
C541 H512 0.950 . S
C541 C540 1.397 . S
C541 C542 1.334 . S
C542 H513 0.950 . S
C542 C541 1.334 . S
C542 C543 1.287 . S
C543 C542 1.287 . S
C543 C544 1.524 . S
C543 H546 0.999 . S
C544 H514 0.950 . S
C544 C543 1.524 . S
C544 C545 1.415 . S
C545 H515 0.950 . S
C545 C540 1.363 . S
C545 C544 1.415 . S
H546 C543 0.999 . S
H547 C528 0.913 . S
H548 C566 0.951 . S
H549 C568 0.951 . S
H550 C570 0.950 . S
H551 C571 0.950 . S
H552 C573 0.950 . S
H553 C576 0.950 . S
H554 C577 0.950 . S
H555 C579 0.950 . S
H556 C580 0.950 . S
H557 C581 0.951 . S
H558 C583 0.951 . S
H559 C585 0.950 . S
H560 C586 0.950 . S
H561 C588 0.950 . S
H562 C591 0.950 . S
H563 C592 0.950 . S
H564 C594 0.950 . S
H565 C595 0.950 . S
C566 H548 0.951 . S
C566 C567 1.366 . S
C566 C568 1.388 . S
C567 C566 1.366 . S
C567 C571 1.385 . S
C568 H549 0.951 . S
C568 C566 1.388 . S
C568 C569 1.366 . S
C569 C568 1.366 . S
C569 C570 1.414 . S
C569 C572 1.499 . S
C570 H550 0.950 . S
C570 C569 1.414 . S
C570 C571 1.374 . S
C571 H551 0.950 . S
C571 C567 1.385 . S
C571 C570 1.374 . S
C572 C569 1.499 . S
C572 C573 1.373 . S
C572 C574 1.389 . S
C573 H552 0.950 . S
C573 C572 1.373 . S
C573 C589 1.377 . S
C574 C572 1.389 . S
C574 C575 1.524 . S
C574 C588 1.377 1_554 S
C575 C574 1.524 . S
C575 C576 1.397 1_554 S
C575 C580 1.363 . S
C576 H553 0.950 . S
C576 C575 1.397 1_556 S
C576 C577 1.334 . S
C577 H554 0.950 . S
C577 C576 1.334 . S
C577 C578 1.287 . S
C578 C577 1.287 . S
C578 C579 1.524 . S
C578 H597 0.913 . S
C579 H555 0.950 . S
C579 C578 1.524 . S
C579 C580 1.415 1_556 S
C580 H556 0.950 . S
C580 C575 1.363 . S
C580 C579 1.415 1_554 S
C581 H557 0.951 . S
C581 C582 1.366 . S
C581 C583 1.388 . S
C582 C581 1.366 . S
C582 C586 1.385 . S
C583 H558 0.951 . S
C583 C581 1.388 . S
C583 C584 1.366 . S
C584 C583 1.366 . S
C584 C585 1.414 . S
C584 C587 1.499 . S
C585 H559 0.950 . S
C585 C584 1.414 . S
C585 C586 1.374 . S
C586 H560 0.950 . S
C586 C582 1.385 . S
C586 C585 1.374 . S
C587 C584 1.499 . S
C587 C588 1.373 . S
C587 C589 1.389 1_556 S
C588 H561 0.950 . S
C588 C574 1.377 1_556 S
C588 C587 1.373 . S
C589 C573 1.377 . S
C589 C587 1.389 1_554 S
C589 C590 1.524 . S
C590 C589 1.524 . S
C590 C591 1.397 . S
C590 C595 1.363 . S
C591 H562 0.950 . S
C591 C590 1.397 . S
C591 C592 1.334 . S
C592 H563 0.950 . S
C592 C591 1.334 . S
C592 C593 1.287 . S
C593 C592 1.287 . S
C593 C594 1.524 . S
C593 H596 0.999 . S
C594 H564 0.950 . S
C594 C593 1.524 . S
C594 C595 1.415 . S
C595 H565 0.950 . S
C595 C590 1.363 . S
C595 C594 1.415 . S
H596 C593 0.999 . S
H597 C578 0.913 . S
H598 C616 0.951 . S
H599 C618 0.951 . S
H600 C620 0.950 . S
H601 C621 0.950 . S
H602 C623 0.950 . S
H603 C626 0.950 1_655 S
H604 C627 0.950 1_655 S
H605 C629 0.950 . S
H606 C630 0.950 . S
H607 C631 0.951 . S
H608 C633 0.951 . S
H609 C635 0.950 . S
H610 C636 0.950 . S
H611 C638 0.950 . S
H612 C641 0.950 1_455 S
H613 C642 0.950 1_455 S
H614 C644 0.950 . S
H615 C645 0.950 . S
C616 H598 0.951 . S
C616 C617 1.363 1_455 S
C616 C618 1.388 . S
C617 C616 1.363 1_655 S
C617 C621 1.388 . S
C618 H599 0.951 . S
C618 C616 1.388 . S
C618 C619 1.337 1_455 S
C619 C618 1.337 1_655 S
C619 C620 1.442 . S
C619 C622 1.500 . S
C620 H600 0.950 . S
C620 C619 1.442 . S
C620 C621 1.374 . S
C621 H601 0.950 . S
C621 C617 1.388 . S
C621 C620 1.374 . S
C622 C619 1.500 . S
C622 C623 1.373 . S
C622 C624 1.389 1_654 S
C623 H602 0.950 . S
C623 C622 1.373 . S
C623 C639 1.377 . S
C624 C622 1.389 1_456 S
C624 C625 1.524 . S
C624 C638 1.377 . S
C625 C624 1.524 . S
C625 C626 1.397 . S
C625 C630 1.363 . S
C626 H603 0.950 1_455 S
C626 C625 1.397 . S
C626 C627 1.334 . S
C627 H604 0.950 1_455 S
C627 C626 1.334 . S
C627 C628 1.287 . S
C628 C627 1.287 . S
C628 C629 1.524 . S
C628 H647 0.913 . S
C629 H605 0.950 . S
C629 C628 1.524 . S
C629 C630 1.415 . S
C630 H606 0.950 . S
C630 C625 1.363 . S
C630 C629 1.415 . S
C631 H607 0.951 . S
C631 C632 1.404 . S
C631 C633 1.388 . S
C632 C631 1.404 . S
C632 C636 1.346 1_655 S
C633 H608 0.951 . S
C633 C631 1.388 . S
C633 C634 1.378 . S
C634 C633 1.378 . S
C634 C635 1.402 1_655 S
C634 C637 1.498 1_655 S
C635 H609 0.950 . S
C635 C634 1.402 1_455 S
C635 C636 1.374 . S
C636 H610 0.950 . S
C636 C632 1.346 1_455 S
C636 C635 1.374 . S
C637 C634 1.498 1_455 S
C637 C638 1.380 . S
C637 C639 1.382 1_456 S
C638 H611 0.950 . S
C638 C624 1.377 . S
C638 C637 1.380 . S
C639 C623 1.377 . S
C639 C637 1.382 1_654 S
C639 C640 1.524 . S
C640 C639 1.524 . S
C640 C641 1.397 . S
C640 C645 1.363 . S
C641 H612 0.950 1_655 S
C641 C640 1.397 . S
C641 C642 1.334 . S
C642 H613 0.950 1_655 S
C642 C641 1.334 . S
C642 C643 1.287 . S
C643 C642 1.287 . S
C643 C644 1.524 . S
C643 H646 0.999 . S
C644 H614 0.950 . S
C644 C643 1.524 . S
C644 C645 1.415 . S
C645 H615 0.950 . S
C645 C640 1.363 . S
C645 C644 1.415 . S
H646 C643 0.999 . S
H647 C628 0.913 . S
H648 C666 0.951 . S
H649 C668 0.951 . S
H650 C670 0.950 . S
H651 C671 0.950 . S
H652 C673 0.950 . S
H653 C676 0.950 . S
H654 C677 0.950 . S
H655 C679 0.950 . S
H656 C680 0.950 . S
H657 C681 0.951 . S
H658 C683 0.951 . S
H659 C685 0.950 1_455 S
H660 C686 0.950 1_455 S
H661 C688 0.950 . S
H662 C691 0.906 1_455 S
H663 C692 0.950 . S
H664 C694 0.950 . S
H665 C695 0.950 . S
C666 H648 0.951 . S
C666 C667 1.398 . S
C666 C668 1.388 . S
C667 C666 1.398 . S
C667 C671 1.345 1_455 S
C668 H649 0.951 . S
C668 C666 1.388 . S
C668 C669 1.366 1_455 S
C669 C668 1.366 1_655 S
C669 C670 1.414 . S
C669 C672 1.499 . S
C670 H650 0.950 . S
C670 C669 1.414 . S
C670 C671 1.374 . S
C671 H651 0.950 . S
C671 C667 1.345 1_655 S
C671 C670 1.374 . S
C672 C669 1.499 . S
C672 C673 1.373 . S
C672 C674 1.389 . S
C673 H652 0.950 . S
C673 C672 1.373 . S
C673 C689 1.377 . S
C674 C672 1.389 . S
C674 C675 1.524 1_655 S
C674 C688 1.377 . S
C675 C674 1.524 1_455 S
C675 C676 1.397 1_455 S
C675 C680 1.363 . S
C676 H653 0.950 . S
C676 C675 1.397 1_655 S
C676 C677 1.334 . S
C677 H654 0.950 . S
C677 C676 1.334 . S
C677 C678 1.287 1_655 S
C678 C677 1.287 1_455 S
C678 C679 1.524 . S
C678 H697 0.913 1_554 S
C679 H655 0.950 . S
C679 C678 1.524 . S
C679 C680 1.415 . S
C680 H656 0.950 . S
C680 C675 1.363 . S
C680 C679 1.415 . S
C681 H657 0.951 . S
C681 C682 1.366 . S
C681 C683 1.388 . S
C682 C681 1.366 . S
C682 C686 1.385 . S
C683 H658 0.951 . S
C683 C681 1.388 . S
C683 C684 1.366 . S
C684 C683 1.366 . S
C684 C685 1.414 . S
C684 C687 1.499 . S
C685 H659 0.950 1_655 S
C685 C684 1.414 . S
C685 C686 1.374 . S
C686 H660 0.950 1_655 S
C686 C682 1.385 . S
C686 C685 1.374 . S
C687 C684 1.499 . S
C687 C688 1.373 . S
C687 C689 1.389 . S
C688 H661 0.950 . S
C688 C674 1.377 . S
C688 C687 1.373 . S
C689 C673 1.377 . S
C689 C687 1.389 . S
C689 C690 1.524 . S
C690 C689 1.524 . S
C690 C691 1.397 . S
C690 C695 1.363 . S
C691 H662 0.906 1_655 S
C691 C690 1.397 . S
C691 C692 1.334 . S
C692 H663 0.950 . S
C692 C691 1.334 . S
C692 C693 1.287 . S
C693 C692 1.287 . S
C693 C694 1.524 . S
C693 H696 0.999 . S
C694 H664 0.950 . S
C694 C693 1.524 . S
C694 C695 1.415 . S
C695 H665 0.950 . S
C695 C690 1.363 . S
C695 C694 1.415 . S
H696 C693 0.999 . S
H697 C678 0.913 1_556 S
H698 C716 0.951 . S
H699 C718 0.951 . S
H700 C720 0.950 . S
H701 C721 0.950 . S
H702 C723 0.950 . S
H703 C726 0.950 . S
H704 C727 0.950 . S
H705 C729 0.950 . S
H706 C730 0.950 . S
H707 C731 0.951 . S
H708 C733 0.951 . S
H709 C735 0.950 . S
H710 C736 0.950 . S
H711 C738 0.950 . S
H712 C741 0.950 . S
H713 C742 0.950 . S
H714 C744 0.950 . S
H715 C745 0.950 . S
C716 H698 0.951 . S
C716 C717 1.348 1_565 S
C716 C718 1.388 . S
C717 C716 1.348 1_545 S
C717 C721 1.397 . S
C718 H699 0.951 . S
C718 C716 1.388 . S
C718 C719 1.366 . S
C719 C718 1.366 . S
C719 C720 1.414 1_565 S
C719 C722 1.499 . S
C720 H700 0.950 . S
C720 C719 1.414 1_545 S
C720 C721 1.374 . S
C721 H701 0.950 . S
C721 C717 1.397 . S
C721 C720 1.374 . S
C722 C719 1.499 . S
C722 C723 1.373 1_565 S
C722 C724 1.389 . S
C723 H702 0.950 . S
C723 C722 1.373 1_545 S
C723 C739 1.377 . S
C724 C722 1.389 . S
C724 C725 1.524 . S
C724 C738 1.377 . S
C725 C724 1.524 . S
C725 C726 1.397 . S
C725 C730 1.363 . S
C726 H703 0.950 . S
C726 C725 1.397 . S
C726 C727 1.334 . S
C727 H704 0.950 . S
C727 C726 1.334 . S
C727 C728 1.287 . S
C728 C727 1.287 . S
C728 C729 1.524 . S
C728 H747 0.913 . S
C729 H705 0.950 . S
C729 C728 1.524 . S
C729 C730 1.415 . S
C730 H706 0.950 . S
C730 C725 1.363 . S
C730 C729 1.415 . S
C731 H707 0.951 . S
C731 C732 1.366 . S
C731 C733 1.388 . S
C732 C731 1.366 . S
C732 C736 1.385 . S
C733 H708 0.951 . S
C733 C731 1.388 . S
C733 C734 1.366 . S
C734 C733 1.366 . S
C734 C735 1.414 . S
C734 C737 1.499 . S
C735 H709 0.950 . S
C735 C734 1.414 . S
C735 C736 1.374 . S
C736 H710 0.950 . S
C736 C732 1.385 . S
C736 C735 1.374 . S
C737 C734 1.499 . S
C737 C738 1.373 . S
C737 C739 1.389 1_565 S
C738 H711 0.950 . S
C738 C724 1.377 . S
C738 C737 1.373 . S
C739 C723 1.377 . S
C739 C737 1.389 1_545 S
C739 C740 1.524 . S
C740 C739 1.524 . S
C740 C741 1.397 . S
C740 C745 1.363 . S
C741 H712 0.950 . S
C741 C740 1.397 . S
C741 C742 1.334 . S
C742 H713 0.950 . S
C742 C741 1.334 . S
C742 C743 1.287 . S
C743 C742 1.287 . S
C743 C744 1.524 . S
C743 H746 0.999 . S
C744 H714 0.950 . S
C744 C743 1.524 . S
C744 C745 1.415 . S
C745 H715 0.950 . S
C745 C740 1.363 . S
C745 C744 1.415 . S
H746 C743 0.999 . S
H747 C728 0.913 . S
H748 C766 0.951 . S
H749 C768 0.951 . S
H750 C770 0.950 . S
H751 C771 0.950 . S
H752 C773 0.950 . S
H753 C776 0.950 . S
H754 C777 0.950 . S
H755 C779 0.950 . S
H756 C780 0.950 . S
H757 C781 0.951 . S
H758 C783 0.951 . S
H759 C785 0.950 . S
H760 C786 0.950 . S
H761 C788 0.950 . S
H762 C791 0.950 . S
H763 C792 0.950 . S
H764 C794 0.950 . S
H765 C795 0.950 . S
C766 H748 0.951 . S
C766 C767 1.366 . S
C766 C768 1.388 . S
C767 C766 1.366 . S
C767 C771 1.385 . S
C768 H749 0.951 . S
C768 C766 1.388 . S
C768 C769 1.366 . S
C769 C768 1.366 . S
C769 C770 1.414 . S
C769 C772 1.499 . S
C770 H750 0.950 . S
C770 C769 1.414 . S
C770 C771 1.374 . S
C771 H751 0.950 . S
C771 C767 1.385 . S
C771 C770 1.374 . S
C772 C769 1.499 . S
C772 C773 1.373 . S
C772 C774 1.389 . S
C773 H752 0.950 . S
C773 C772 1.373 . S
C773 C789 1.377 . S
C774 C772 1.389 . S
C774 C775 1.524 . S
C774 C788 1.377 . S
C775 C774 1.524 . S
C775 C776 1.397 . S
C775 C780 1.363 . S
C776 H753 0.950 . S
C776 C775 1.397 . S
C776 C777 1.334 . S
C777 H754 0.950 . S
C777 C776 1.334 . S
C777 C778 1.287 . S
C778 C777 1.287 . S
C778 C779 1.524 . S
C778 H797 0.913 . S
C779 H755 0.950 . S
C779 C778 1.524 . S
C779 C780 1.415 . S
C780 H756 0.950 . S
C780 C775 1.363 . S
C780 C779 1.415 . S
C781 H757 0.951 . S
C781 C782 1.366 . S
C781 C783 1.388 . S
C782 C781 1.366 . S
C782 C786 1.385 . S
C783 H758 0.951 . S
C783 C781 1.388 . S
C783 C784 1.366 . S
C784 C783 1.366 . S
C784 C785 1.414 . S
C784 C787 1.499 . S
C785 H759 0.950 . S
C785 C784 1.414 . S
C785 C786 1.374 . S
C786 H760 0.950 . S
C786 C782 1.385 . S
C786 C785 1.374 . S
C787 C784 1.499 . S
C787 C788 1.373 . S
C787 C789 1.389 . S
C788 H761 0.950 . S
C788 C774 1.377 . S
C788 C787 1.373 . S
C789 C773 1.377 . S
C789 C787 1.389 . S
C789 C790 1.524 . S
C790 C789 1.524 . S
C790 C791 1.397 . S
C790 C795 1.363 . S
C791 H762 0.950 . S
C791 C790 1.397 . S
C791 C792 1.334 . S
C792 H763 0.950 . S
C792 C791 1.334 . S
C792 C793 1.287 . S
C793 C792 1.287 . S
C793 C794 1.524 . S
C793 H796 0.999 . S
C794 H764 0.950 . S
C794 C793 1.524 . S
C794 C795 1.415 . S
C795 H765 0.950 . S
C795 C790 1.363 . S
C795 C794 1.415 . S
H796 C793 0.999 . S
H797 C778 0.913 . S
H798 C816 0.951 . S
H799 C818 0.951 . S
H800 C820 0.950 . S
H801 C821 0.950 . S
H802 C823 0.950 . S
H803 C826 0.950 . S
H804 C827 0.950 . S
H805 C829 0.950 . S
H806 C830 0.950 . S
H807 C831 0.951 . S
H808 C833 0.951 . S
H809 C835 0.950 . S
H810 C836 0.950 . S
H811 C838 0.950 . S
H812 C841 0.950 . S
H813 C842 0.950 . S
H814 C844 0.950 . S
H815 C845 0.950 . S
C816 H798 0.951 . S
C816 C817 1.366 . S
C816 C818 1.388 . S
C817 C816 1.366 . S
C817 C821 1.385 . S
C818 H799 0.951 . S
C818 C816 1.388 . S
C818 C819 1.366 . S
C819 C818 1.366 . S
C819 C820 1.414 . S
C819 C822 1.499 . S
C820 H800 0.950 . S
C820 C819 1.414 . S
C820 C821 1.374 . S
C821 H801 0.950 . S
C821 C817 1.385 . S
C821 C820 1.374 . S
C822 C819 1.499 . S
C822 C823 1.373 . S
C822 C824 1.389 . S
C823 H802 0.950 . S
C823 C822 1.373 . S
C823 C839 1.377 . S
C824 C822 1.389 . S
C824 C825 1.524 . S
C824 C838 1.377 . S
C825 C824 1.524 . S
C825 C826 1.397 . S
C825 C830 1.363 . S
C826 H803 0.950 . S
C826 C825 1.397 . S
C826 C827 1.334 . S
C827 H804 0.950 . S
C827 C826 1.334 . S
C827 C828 1.287 . S
C828 C827 1.287 . S
C828 C829 1.524 . S
C828 H847 0.913 . S
C829 H805 0.950 . S
C829 C828 1.524 . S
C829 C830 1.415 . S
C830 H806 0.950 . S
C830 C825 1.363 . S
C830 C829 1.415 . S
C831 H807 0.951 . S
C831 C832 1.366 . S
C831 C833 1.388 . S
C832 C831 1.366 . S
C832 C836 1.385 . S
C833 H808 0.951 . S
C833 C831 1.388 . S
C833 C834 1.366 . S
C834 C833 1.366 . S
C834 C835 1.414 . S
C834 C837 1.499 . S
C835 H809 0.950 . S
C835 C834 1.414 . S
C835 C836 1.374 . S
C836 H810 0.950 . S
C836 C832 1.385 . S
C836 C835 1.374 . S
C837 C834 1.499 . S
C837 C838 1.373 . S
C837 C839 1.389 . S
C838 H811 0.950 . S
C838 C824 1.377 . S
C838 C837 1.373 . S
C839 C823 1.377 . S
C839 C837 1.389 . S
C839 C840 1.524 . S
C840 C839 1.524 . S
C840 C841 1.397 . S
C840 C845 1.363 . S
C841 H812 0.950 . S
C841 C840 1.397 . S
C841 C842 1.334 . S
C842 H813 0.950 . S
C842 C841 1.334 . S
C842 C843 1.287 . S
C843 C842 1.287 . S
C843 C844 1.524 . S
C843 H846 0.999 . S
C844 H814 0.950 . S
C844 C843 1.524 . S
C844 C845 1.415 . S
C845 H815 0.950 . S
C845 C840 1.363 . S
C845 C844 1.415 . S
H846 C843 0.999 . S
H847 C828 0.913 . S
H848 C866 0.952 . S
H849 C868 0.951 . S
H850 C870 0.950 . S
H851 C871 0.950 . S
H852 C873 0.950 . S
H853 C876 0.950 . S
H854 C877 0.950 . S
H855 C879 0.950 . S
H856 C880 0.950 . S
H857 C881 0.951 1_554 S
H858 C883 0.951 . S
H859 C885 0.950 . S
H860 C886 0.950 . S
H861 C888 0.950 1_556 S
H862 C891 0.950 . S
H863 C892 0.950 . S
H864 C894 0.950 . S
H865 C895 0.950 . S
C866 H848 0.952 . S
C866 C867 1.365 . S
C866 C868 1.386 1_655 S
C867 C866 1.365 . S
C867 C871 1.379 1_655 S
C868 H849 0.951 . S
C868 C866 1.386 1_455 S
C868 C869 1.366 . S
C869 C868 1.366 . S
C869 C870 1.414 . S
C869 C872 1.499 . S
C870 H850 0.950 . S
C870 C869 1.414 . S
C870 C871 1.374 . S
C871 H851 0.950 . S
C871 C867 1.379 1_455 S
C871 C870 1.374 . S
C872 C869 1.499 . S
C872 C873 1.373 1_455 S
C872 C874 1.389 . S
C873 H852 0.950 . S
C873 C872 1.373 1_655 S
C873 C889 1.380 . S
C874 C872 1.389 . S
C874 C875 1.524 . S
C874 C888 1.377 . S
C875 C874 1.524 . S
C875 C876 1.397 . S
C875 C880 1.363 1_554 S
C876 H853 0.950 . S
C876 C875 1.397 . S
C876 C877 1.334 . S
C877 H854 0.950 . S
C877 C876 1.334 . S
C877 C878 1.287 . S
C878 C877 1.287 . S
C878 C879 1.524 1_554 S
C878 H897 0.913 . S
C879 H855 0.950 . S
C879 C878 1.524 1_556 S
C879 C880 1.415 . S
C880 H856 0.950 . S
C880 C875 1.363 1_556 S
C880 C879 1.415 . S
C881 H857 0.951 1_556 S
C881 C882 1.366 . S
C881 C883 1.388 1_556 S
C882 C881 1.366 . S
C882 C886 1.385 . S
C883 H858 0.951 . S
C883 C881 1.388 1_554 S
C883 C884 1.366 . S
C884 C883 1.366 . S
C884 C885 1.414 1_554 S
C884 C887 1.499 . S
C885 H859 0.950 . S
C885 C884 1.414 1_556 S
C885 C886 1.374 . S
C886 H860 0.950 . S
C886 C882 1.385 . S
C886 C885 1.374 . S
C887 C884 1.499 . S
C887 C888 1.373 . S
C887 C889 1.367 1_455 S
C888 H861 0.950 1_554 S
C888 C874 1.377 . S
C888 C887 1.373 . S
C889 C873 1.380 . S
C889 C887 1.367 1_655 S
C889 C890 1.547 . S
C890 C889 1.547 . S
C890 C891 1.397 . S
C890 C895 1.363 . S
C891 H862 0.950 . S
C891 C890 1.397 . S
C891 C892 1.334 . S
C892 H863 0.950 . S
C892 C891 1.334 . S
C892 C893 1.287 . S
C893 C892 1.287 . S
C893 C894 1.524 . S
C893 H896 0.999 . S
C894 H864 0.950 . S
C894 C893 1.524 . S
C894 C895 1.415 . S
C895 H865 0.950 . S
C895 C890 1.363 . S
C895 C894 1.415 . S
H896 C893 0.999 . S
H897 C878 0.913 . S
H898 C916 0.951 . S
H899 C918 0.950 1_565 S
H900 C920 0.950 . S
H901 C921 0.950 . S
H902 C923 0.962 . S
H903 C926 0.950 . S
H904 C927 0.950 . S
H905 C929 0.950 . S
H906 C930 0.950 . S
H907 C931 0.951 1_554 S
H908 C933 0.951 . S
H909 C935 0.950 . S
H910 C936 0.950 . S
H911 C938 0.950 1_556 S
H912 C941 0.950 . S
H913 C942 0.950 . S
H914 C944 0.950 . S
H915 C945 0.950 . S
C916 H898 0.951 . S
C916 C917 1.369 . S
C916 C918 1.388 1_565 S
C917 C916 1.369 . S
C917 C921 1.377 1_565 S
C918 H899 0.950 1_545 S
C918 C916 1.388 1_545 S
C918 C919 1.366 . S
C919 C918 1.366 . S
C919 C920 1.414 . S
C919 C922 1.499 . S
C920 H900 0.950 . S
C920 C919 1.414 . S
C920 C921 1.374 . S
C921 H901 0.950 . S
C921 C917 1.377 1_545 S
C921 C920 1.374 . S
C922 C919 1.499 . S
C922 C923 1.363 1_545 S
C922 C924 1.389 . S
C923 H902 0.962 . S
C923 C922 1.363 1_565 S
C923 C939 1.375 1_565 S
C924 C922 1.389 . S
C924 C925 1.524 . S
C924 C938 1.377 . S
C925 C924 1.524 . S
C925 C926 1.397 . S
C925 C930 1.363 1_554 S
C926 H903 0.950 . S
C926 C925 1.397 . S
C926 C927 1.334 . S
C927 H904 0.950 . S
C927 C926 1.334 . S
C927 C928 1.287 . S
C928 C927 1.287 . S
C928 C929 1.524 1_554 S
C928 H947 0.913 1_554 S
C929 H905 0.950 . S
C929 C928 1.524 1_556 S
C929 C930 1.415 . S
C930 H906 0.950 . S
C930 C925 1.363 1_556 S
C930 C929 1.415 . S
C931 H907 0.951 1_556 S
C931 C932 1.366 . S
C931 C933 1.388 1_556 S
C932 C931 1.366 . S
C932 C936 1.385 . S
C933 H908 0.951 . S
C933 C931 1.388 1_554 S
C933 C934 1.366 . S
C934 C933 1.366 . S
C934 C935 1.414 1_554 S
C934 C937 1.499 . S
C935 H909 0.950 . S
C935 C934 1.414 1_556 S
C935 C936 1.374 . S
C936 H910 0.950 . S
C936 C932 1.385 . S
C936 C935 1.374 . S
C937 C934 1.499 . S
C937 C938 1.373 . S
C937 C939 1.389 . S
C938 H911 0.950 1_554 S
C938 C924 1.377 . S
C938 C937 1.373 . S
C939 C923 1.375 1_545 S
C939 C937 1.389 . S
C939 C940 1.524 1_545 S
C940 C939 1.524 1_565 S
C940 C941 1.397 . S
C940 C945 1.363 . S
C941 H912 0.950 . S
C941 C940 1.397 . S
C941 C942 1.334 . S
C942 H913 0.950 . S
C942 C941 1.334 . S
C942 C943 1.287 . S
C943 C942 1.287 . S
C943 C944 1.524 . S
C943 H946 0.999 . S
C944 H914 0.950 . S
C944 C943 1.524 . S
C944 C945 1.415 . S
C945 H915 0.950 . S
C945 C940 1.363 . S
C945 C944 1.415 . S
H946 C943 0.999 . S
H947 C928 0.913 1_556 S
H948 C966 0.951 . S
H949 C968 0.951 . S
H950 C970 0.950 . S
H951 C971 0.950 . S
H952 C973 0.950 . S
H953 C976 0.950 . S
H954 C977 0.950 . S
H955 C979 0.950 . S
H956 C980 0.950 . S
H957 C981 0.951 . S
H958 C983 0.951 1_554 S
H959 C985 0.950 . S
H960 C986 0.950 . S
H961 C988 0.950 . S
H962 C991 0.950 . S
H963 C992 0.950 . S
H964 C994 0.950 . S
H965 C995 0.950 1_554 S
C966 H948 0.951 . S
C966 C967 1.366 . S
C966 C968 1.388 . S
C967 C966 1.366 . S
C967 C971 1.385 . S
C968 H949 0.951 . S
C968 C966 1.388 . S
C968 C969 1.366 . S
C969 C968 1.366 . S
C969 C970 1.414 . S
C969 C972 1.499 . S
C970 H950 0.950 . S
C970 C969 1.414 . S
C970 C971 1.374 . S
C971 H951 0.950 . S
C971 C967 1.385 . S
C971 C970 1.374 . S
C972 C969 1.499 . S
C972 C973 1.373 . S
C972 C974 1.389 . S
C973 H952 0.950 . S
C973 C972 1.373 . S
C973 C989 1.377 . S
C974 C972 1.389 . S
C974 C975 1.524 . S
C974 C988 1.377 . S
C975 C974 1.524 . S
C975 C976 1.397 . S
C975 C980 1.363 . S
C976 H953 0.950 . S
C976 C975 1.397 . S
C976 C977 1.334 . S
C977 H954 0.950 . S
C977 C976 1.334 . S
C977 C978 1.287 . S
C978 C977 1.287 . S
C978 C979 1.524 . S
C978 H997 0.913 . S
C979 H955 0.950 . S
C979 C978 1.524 . S
C979 C980 1.415 . S
C980 H956 0.950 . S
C980 C975 1.363 . S
C980 C979 1.415 . S
C981 H957 0.951 . S
C981 C982 1.366 . S
C981 C983 1.388 . S
C982 C981 1.366 . S
C982 C986 1.385 . S
C983 H958 0.951 1_556 S
C983 C981 1.388 . S
C983 C984 1.365 . S
C984 C983 1.365 . S
C984 C985 1.413 . S
C984 C987 1.500 1_556 S
C985 H959 0.950 . S
C985 C984 1.413 . S
C985 C986 1.374 . S
C986 H960 0.950 . S
C986 C982 1.385 . S
C986 C985 1.374 . S
C987 C984 1.500 1_554 S
C987 C988 1.373 . S
C987 C989 1.389 . S
C988 H961 0.950 . S
C988 C974 1.377 . S
C988 C987 1.373 . S
C989 C973 1.377 . S
C989 C987 1.389 . S
C989 C990 1.524 1_554 S
C990 C989 1.524 1_556 S
C990 C991 1.397 . S
C990 C995 1.363 . S
C991 H962 0.950 . S
C991 C990 1.397 . S
C991 C992 1.334 . S
C992 H963 0.950 . S
C992 C991 1.334 . S
C992 C993 1.287 . S
C993 C992 1.287 . S
C993 C994 1.524 . S
C993 H996 0.999 . S
C994 H964 0.950 . S
C994 C993 1.524 . S
C994 C995 1.415 . S
C995 H965 0.950 1_556 S
C995 C990 1.363 . S
C995 C994 1.415 . S
H996 C993 0.999 . S
H997 C978 0.913 . S
H998 C1016 0.951 . S
H999 C1018 0.951 . S
H1000 C1020 0.950 . S
H1001 C1021 0.950 . S
H1002 C1023 0.950 . S
H1003 C1026 0.950 . S
H1004 C1027 0.950 . S
H1005 C1029 0.950 . S
H1006 C1030 0.950 . S
H1007 C1031 0.951 . S
H1008 C1033 0.951 . S
H1009 C1035 0.950 1_554 S
H1010 C1036 0.950 . S
H1011 C1038 0.950 . S
H1012 C1041 0.950 . S
H1013 C1042 0.950 . S
H1014 C1044 0.950 . S
H1015 C1045 0.950 . S
C1016 H998 0.951 . S
C1016 C1017 1.366 . S
C1016 C1018 1.388 . S
C1017 C1016 1.366 . S
C1017 C1021 1.385 . S
C1018 H999 0.951 . S
C1018 C1016 1.388 . S
C1018 C1019 1.366 . S
C1019 C1018 1.366 . S
C1019 C1020 1.414 . S
C1019 C1022 1.499 . S
C1020 H1000 0.950 . S
C1020 C1019 1.414 . S
C1020 C1021 1.374 . S
C1021 H1001 0.950 . S
C1021 C1017 1.385 . S
C1021 C1020 1.374 . S
C1022 C1019 1.499 . S
C1022 C1023 1.373 . S
C1022 C1024 1.389 . S
C1023 H1002 0.950 . S
C1023 C1022 1.373 . S
C1023 C1039 1.377 . S
C1024 C1022 1.389 . S
C1024 C1025 1.524 . S
C1024 C1038 1.377 . S
C1025 C1024 1.524 . S
C1025 C1026 1.397 . S
C1025 C1030 1.363 . S
C1026 H1003 0.950 . S
C1026 C1025 1.397 . S
C1026 C1027 1.334 . S
C1027 H1004 0.950 . S
C1027 C1026 1.334 . S
C1027 C1028 1.287 . S
C1028 C1027 1.287 . S
C1028 C1029 1.524 . S
C1028 H1047 0.913 . S
C1029 H1005 0.950 . S
C1029 C1028 1.524 . S
C1029 C1030 1.415 . S
C1030 H1006 0.950 . S
C1030 C1025 1.363 . S
C1030 C1029 1.415 . S
C1031 H1007 0.951 . S
C1031 C1032 1.366 . S
C1031 C1033 1.388 . S
C1032 C1031 1.366 . S
C1032 C1036 1.385 . S
C1033 H1008 0.951 . S
C1033 C1031 1.388 . S
C1033 C1034 1.368 . S
C1034 C1033 1.368 . S
C1034 C1035 1.414 . S
C1034 C1037 1.496 1_556 S
C1035 H1009 0.950 1_556 S
C1035 C1034 1.414 . S
C1035 C1036 1.374 . S
C1036 H1010 0.950 . S
C1036 C1032 1.385 . S
C1036 C1035 1.374 . S
C1037 C1034 1.496 1_554 S
C1037 C1038 1.373 . S
C1037 C1039 1.389 . S
C1038 H1011 0.950 . S
C1038 C1024 1.377 . S
C1038 C1037 1.373 . S
C1039 C1023 1.377 . S
C1039 C1037 1.389 . S
C1039 C1040 1.524 1_554 S
C1040 C1039 1.524 1_556 S
C1040 C1041 1.397 . S
C1040 C1045 1.363 . S
C1041 H1012 0.950 . S
C1041 C1040 1.397 . S
C1041 C1042 1.334 . S
C1042 H1013 0.950 . S
C1042 C1041 1.334 . S
C1042 C1043 1.287 . S
C1043 C1042 1.287 . S
C1043 C1044 1.524 . S
C1043 H1046 0.999 . S
C1044 H1014 0.950 . S
C1044 C1043 1.524 . S
C1044 C1045 1.415 . S
C1045 H1015 0.950 . S
C1045 C1040 1.363 . S
C1045 C1044 1.415 . S
H1046 C1043 0.999 . S
H1047 C1028 0.913 . S
H1048 C1066 0.951 . S
H1049 C1068 0.952 . S
H1050 C1070 0.950 . S
H1051 C1071 0.950 . S
H1052 C1073 0.950 . S
H1053 C1076 0.950 . S
H1054 C1077 0.950 . S
H1055 C1079 0.950 . S
H1056 C1080 0.950 . S
H1057 C1081 0.951 . S
H1058 C1083 0.951 . S
H1059 C1085 0.950 . S
H1060 C1086 0.950 . S
H1061 C1088 0.950 . S
H1062 C1091 0.950 . S
H1063 C1092 0.950 . S
H1064 C1094 0.950 . S
H1065 C1095 0.950 . S
C1066 H1048 0.951 . S
C1066 C1067 1.365 1_655 S
C1066 C1068 1.388 1_655 S
C1067 C1066 1.365 1_455 S
C1067 C1071 1.391 . S
C1068 H1049 0.952 . S
C1068 C1066 1.388 1_455 S
C1068 C1069 1.366 . S
C1069 C1068 1.366 . S
C1069 C1070 1.414 . S
C1069 C1072 1.499 . S
C1070 H1050 0.950 . S
C1070 C1069 1.414 . S
C1070 C1071 1.374 . S
C1071 H1051 0.950 . S
C1071 C1067 1.391 . S
C1071 C1070 1.374 . S
C1072 C1069 1.499 . S
C1072 C1073 1.373 1_455 S
C1072 C1074 1.389 . S
C1073 H1052 0.950 . S
C1073 C1072 1.373 1_655 S
C1073 C1089 1.377 . S
C1074 C1072 1.389 . S
C1074 C1075 1.524 . S
C1074 C1088 1.377 . S
C1075 C1074 1.524 . S
C1075 C1076 1.397 . S
C1075 C1080 1.363 . S
C1076 H1053 0.950 . S
C1076 C1075 1.397 . S
C1076 C1077 1.334 . S
C1077 H1054 0.950 . S
C1077 C1076 1.334 . S
C1077 C1078 1.297 . S
C1078 C1077 1.297 . S
C1078 C1079 1.519 1_556 S
C1078 H1097 0.906 1_556 S
C1079 H1055 0.950 . S
C1079 C1078 1.519 1_554 S
C1079 C1080 1.415 1_554 S
C1080 H1056 0.950 . S
C1080 C1075 1.363 . S
C1080 C1079 1.415 1_556 S
C1081 H1057 0.951 . S
C1081 C1082 1.366 . S
C1081 C1083 1.388 . S
C1082 C1081 1.366 . S
C1082 C1086 1.385 . S
C1083 H1058 0.951 . S
C1083 C1081 1.388 . S
C1083 C1084 1.366 . S
C1084 C1083 1.366 . S
C1084 C1085 1.414 . S
C1084 C1087 1.499 . S
C1085 H1059 0.950 . S
C1085 C1084 1.414 . S
C1085 C1086 1.374 . S
C1086 H1060 0.950 . S
C1086 C1082 1.385 . S
C1086 C1085 1.374 . S
C1087 C1084 1.499 . S
C1087 C1088 1.373 . S
C1087 C1089 1.389 1_455 S
C1088 H1061 0.950 . S
C1088 C1074 1.377 . S
C1088 C1087 1.373 . S
C1089 C1073 1.377 . S
C1089 C1087 1.389 1_655 S
C1089 C1090 1.524 . S
C1090 C1089 1.524 . S
C1090 C1091 1.397 . S
C1090 C1095 1.363 . S
C1091 H1062 0.950 . S
C1091 C1090 1.397 . S
C1091 C1092 1.334 . S
C1092 H1063 0.950 . S
C1092 C1091 1.334 . S
C1092 C1093 1.287 . S
C1093 C1092 1.287 . S
C1093 C1094 1.524 . S
C1093 H1096 0.999 . S
C1094 H1064 0.950 . S
C1094 C1093 1.524 . S
C1094 C1095 1.415 . S
C1095 H1065 0.950 . S
C1095 C1090 1.363 . S
C1095 C1094 1.415 . S
H1096 C1093 0.999 . S
H1097 C1078 0.906 1_554 S
H1098 C1116 0.951 . S
H1099 C1118 0.951 . S
H1100 C1120 0.950 . S
H1101 C1121 0.950 . S
H1102 C1123 0.950 . S
H1103 C1126 0.950 . S
H1104 C1127 0.950 . S
H1105 C1129 0.950 . S
H1106 C1130 0.950 . S
H1107 C1131 0.951 . S
H1108 C1133 0.951 . S
H1109 C1135 0.950 . S
H1110 C1136 0.950 . S
H1111 C1138 0.950 . S
H1112 C1141 0.950 . S
H1113 C1142 0.950 . S
H1114 C1144 0.950 . S
H1115 C1145 0.950 . S
C1116 H1098 0.951 . S
C1116 C1117 1.339 1_565 S
C1116 C1118 1.388 . S
C1117 C1116 1.339 1_545 S
C1117 C1121 1.414 . S
C1118 H1099 0.951 . S
C1118 C1116 1.388 . S
C1118 C1119 1.366 1_565 S
C1119 C1118 1.366 1_545 S
C1119 C1120 1.414 . S
C1119 C1122 1.499 . S
C1120 H1100 0.950 . S
C1120 C1119 1.414 . S
C1120 C1121 1.374 . S
C1121 H1101 0.950 . S
C1121 C1117 1.414 . S
C1121 C1120 1.374 . S
C1122 C1119 1.499 . S
C1122 C1123 1.373 . S
C1122 C1124 1.389 1_545 S
C1123 H1102 0.950 . S
C1123 C1122 1.373 . S
C1123 C1139 1.377 . S
C1124 C1122 1.389 1_565 S
C1124 C1125 1.524 . S
C1124 C1138 1.377 . S
C1125 C1124 1.524 . S
C1125 C1126 1.397 . S
C1125 C1130 1.363 . S
C1126 H1103 0.950 . S
C1126 C1125 1.397 . S
C1126 C1127 1.334 . S
C1127 H1104 0.950 . S
C1127 C1126 1.334 . S
C1127 C1128 1.287 . S
C1128 C1127 1.287 . S
C1128 C1129 1.524 . S
C1128 H1147 0.913 . S
C1129 H1105 0.950 . S
C1129 C1128 1.524 . S
C1129 C1130 1.415 . S
C1130 H1106 0.950 . S
C1130 C1125 1.363 . S
C1130 C1129 1.415 . S
C1131 H1107 0.951 . S
C1131 C1132 1.366 . S
C1131 C1133 1.388 . S
C1132 C1131 1.366 . S
C1132 C1136 1.385 1_545 S
C1133 H1108 0.951 . S
C1133 C1131 1.388 . S
C1133 C1134 1.366 . S
C1134 C1133 1.366 . S
C1134 C1135 1.414 1_545 S
C1134 C1137 1.499 . S
C1135 H1109 0.950 . S
C1135 C1134 1.414 1_565 S
C1135 C1136 1.374 . S
C1136 H1110 0.950 . S
C1136 C1132 1.385 1_565 S
C1136 C1135 1.374 . S
C1137 C1134 1.499 . S
C1137 C1138 1.373 1_545 S
C1137 C1139 1.389 . S
C1138 H1111 0.950 . S
C1138 C1124 1.377 . S
C1138 C1137 1.373 1_565 S
C1139 C1123 1.377 . S
C1139 C1137 1.389 . S
C1139 C1140 1.524 . S
C1140 C1139 1.524 . S
C1140 C1141 1.397 . S
C1140 C1145 1.363 . S
C1141 H1112 0.950 . S
C1141 C1140 1.397 . S
C1141 C1142 1.334 . S
C1142 H1113 0.950 . S
C1142 C1141 1.334 . S
C1142 C1143 1.287 . S
C1143 C1142 1.287 . S
C1143 C1144 1.524 . S
C1143 H1146 0.999 . S
C1144 H1114 0.950 . S
C1144 C1143 1.524 . S
C1144 C1145 1.415 . S
C1145 H1115 0.950 . S
C1145 C1140 1.363 . S
C1145 C1144 1.415 . S
H1146 C1143 0.999 . S
H1147 C1128 0.913 . S
H1148 C1166 0.951 . S
H1149 C1168 0.951 . S
H1150 C1170 0.950 . S
H1151 C1171 0.950 . S
H1152 C1173 0.950 . S
H1153 C1176 0.950 . S
H1154 C1177 0.950 . S
H1155 C1179 0.950 . S
H1156 C1180 0.950 . S
H1157 C1181 0.951 . S
H1158 C1183 0.951 . S
H1159 C1185 0.950 . S
H1160 C1186 0.950 . S
H1161 C1188 0.950 . S
H1162 C1191 0.950 . S
H1163 C1192 0.950 . S
H1164 C1194 0.950 . S
H1165 C1195 0.950 . S
C1166 H1148 0.951 . S
C1166 C1167 1.366 . S
C1166 C1168 1.388 . S
C1167 C1166 1.366 . S
C1167 C1171 1.385 . S
C1168 H1149 0.951 . S
C1168 C1166 1.388 . S
C1168 C1169 1.366 . S
C1169 C1168 1.366 . S
C1169 C1170 1.414 . S
C1169 C1172 1.499 . S
C1170 H1150 0.950 . S
C1170 C1169 1.414 . S
C1170 C1171 1.374 . S
C1171 H1151 0.950 . S
C1171 C1167 1.385 . S
C1171 C1170 1.374 . S
C1172 C1169 1.499 . S
C1172 C1173 1.373 . S
C1172 C1174 1.389 . S
C1173 H1152 0.950 . S
C1173 C1172 1.373 . S
C1173 C1189 1.377 . S
C1174 C1172 1.389 . S
C1174 C1175 1.524 . S
C1174 C1188 1.377 . S
C1175 C1174 1.524 . S
C1175 C1176 1.397 . S
C1175 C1180 1.363 . S
C1176 H1153 0.950 . S
C1176 C1175 1.397 . S
C1176 C1177 1.334 . S
C1177 H1154 0.950 . S
C1177 C1176 1.334 . S
C1177 C1178 1.287 . S
C1178 C1177 1.287 . S
C1178 C1179 1.524 1_556 S
C1178 H1197 0.915 . S
C1179 H1155 0.950 . S
C1179 C1178 1.524 1_554 S
C1179 C1180 1.415 1_554 S
C1180 H1156 0.950 . S
C1180 C1175 1.363 . S
C1180 C1179 1.415 1_556 S
C1181 H1157 0.951 . S
C1181 C1182 1.366 . S
C1181 C1183 1.388 . S
C1182 C1181 1.366 . S
C1182 C1186 1.385 . S
C1183 H1158 0.951 . S
C1183 C1181 1.388 . S
C1183 C1184 1.366 . S
C1184 C1183 1.366 . S
C1184 C1185 1.414 . S
C1184 C1187 1.499 . S
C1185 H1159 0.950 . S
C1185 C1184 1.414 . S
C1185 C1186 1.374 . S
C1186 H1160 0.950 . S
C1186 C1182 1.385 . S
C1186 C1185 1.374 . S
C1187 C1184 1.499 . S
C1187 C1188 1.373 . S
C1187 C1189 1.389 . S
C1188 H1161 0.950 . S
C1188 C1174 1.377 . S
C1188 C1187 1.373 . S
C1189 C1173 1.377 . S
C1189 C1187 1.389 . S
C1189 C1190 1.524 . S
C1190 C1189 1.524 . S
C1190 C1191 1.397 . S
C1190 C1195 1.363 . S
C1191 H1162 0.950 . S
C1191 C1190 1.397 . S
C1191 C1192 1.334 . S
C1192 H1163 0.950 . S
C1192 C1191 1.334 . S
C1192 C1193 1.287 . S
C1193 C1192 1.287 . S
C1193 C1194 1.524 . S
C1193 H1196 0.999 . S
C1194 H1164 0.950 . S
C1194 C1193 1.524 . S
C1194 C1195 1.415 . S
C1195 H1165 0.950 . S
C1195 C1190 1.363 . S
C1195 C1194 1.415 . S
H1196 C1193 0.999 . S
H1197 C1178 0.915 . S
H1198 C1216 0.951 . S
H1199 C1218 0.951 . S
H1200 C1220 0.950 . S
H1201 C1221 0.950 . S
H1202 C1223 0.950 . S
H1203 C1226 0.950 . S
H1204 C1227 0.950 . S
H1205 C1229 0.950 . S
H1206 C1230 0.950 . S
H1207 C1231 0.951 . S
H1208 C1233 0.951 . S
H1209 C1235 0.950 . S
H1210 C1236 0.950 . S
H1211 C1238 0.950 . S
H1212 C1241 0.950 . S
H1213 C1242 0.950 . S
H1214 C1244 0.950 . S
H1215 C1245 0.950 1_554 S
C1216 H1198 0.951 . S
C1216 C1217 1.366 . S
C1216 C1218 1.388 . S
C1217 C1216 1.366 . S
C1217 C1221 1.385 . S
C1218 H1199 0.951 . S
C1218 C1216 1.388 . S
C1218 C1219 1.366 . S
C1219 C1218 1.366 . S
C1219 C1220 1.414 . S
C1219 C1222 1.499 . S
C1220 H1200 0.950 . S
C1220 C1219 1.414 . S
C1220 C1221 1.374 . S
C1221 H1201 0.950 . S
C1221 C1217 1.385 . S
C1221 C1220 1.374 . S
C1222 C1219 1.499 . S
C1222 C1223 1.373 . S
C1222 C1224 1.389 . S
C1223 H1202 0.950 . S
C1223 C1222 1.373 . S
C1223 C1239 1.377 . S
C1224 C1222 1.389 . S
C1224 C1225 1.524 . S
C1224 C1238 1.377 . S
C1225 C1224 1.524 . S
C1225 C1226 1.397 . S
C1225 C1230 1.363 . S
C1226 H1203 0.950 . S
C1226 C1225 1.397 . S
C1226 C1227 1.334 . S
C1227 H1204 0.950 . S
C1227 C1226 1.334 . S
C1227 C1228 1.287 . S
C1228 C1227 1.287 . S
C1228 C1229 1.524 . S
C1228 H1247 0.913 . S
C1229 H1205 0.950 . S
C1229 C1228 1.524 . S
C1229 C1230 1.415 . S
C1230 H1206 0.950 . S
C1230 C1225 1.363 . S
C1230 C1229 1.415 . S
C1231 H1207 0.951 . S
C1231 C1232 1.366 . S
C1231 C1233 1.388 . S
C1232 C1231 1.366 . S
C1232 C1236 1.385 . S
C1233 H1208 0.951 . S
C1233 C1231 1.388 . S
C1233 C1234 1.366 . S
C1234 C1233 1.366 . S
C1234 C1235 1.414 . S
C1234 C1237 1.499 . S
C1235 H1209 0.950 . S
C1235 C1234 1.414 . S
C1235 C1236 1.374 . S
C1236 H1210 0.950 . S
C1236 C1232 1.385 . S
C1236 C1235 1.374 . S
C1237 C1234 1.499 . S
C1237 C1238 1.373 . S
C1237 C1239 1.389 . S
C1238 H1211 0.950 . S
C1238 C1224 1.377 . S
C1238 C1237 1.373 . S
C1239 C1223 1.377 . S
C1239 C1237 1.389 . S
C1239 C1240 1.524 . S
C1240 C1239 1.524 . S
C1240 C1241 1.397 . S
C1240 C1245 1.363 . S
C1241 H1212 0.950 . S
C1241 C1240 1.397 . S
C1241 C1242 1.334 . S
C1242 H1213 0.950 . S
C1242 C1241 1.334 . S
C1242 C1243 1.287 1_556 S
C1243 C1242 1.287 1_554 S
C1243 C1244 1.524 . S
C1243 H1246 0.999 . S
C1244 H1214 0.950 . S
C1244 C1243 1.524 . S
C1244 C1245 1.415 1_554 S
C1245 H1215 0.950 1_556 S
C1245 C1240 1.363 . S
C1245 C1244 1.415 1_556 S
H1246 C1243 0.999 . S
H1247 C1228 0.913 . S
H1248 C1266 0.956 . S
H1249 C1268 0.948 1_455 S
H1250 C1270 0.950 . S
H1251 C1271 0.950 . S
H1252 C1273 0.950 . S
H1253 C1276 0.950 . S
H1254 C1277 0.950 . S
H1255 C1279 0.950 . S
H1256 C1280 0.950 . S
H1257 C1281 0.951 . S
H1258 C1283 0.951 . S
H1259 C1285 0.950 . S
H1260 C1286 0.950 . S
H1261 C1288 0.950 . S
H1262 C1291 0.950 . S
H1263 C1292 0.950 . S
H1264 C1294 0.950 . S
H1265 C1295 0.950 . S
C1266 H1248 0.956 . S
C1266 C1267 1.363 1_455 S
C1266 C1268 1.385 1_455 S
C1267 C1266 1.363 1_655 S
C1267 C1271 1.392 . S
C1268 H1249 0.948 1_655 S
C1268 C1266 1.385 1_655 S
C1268 C1269 1.372 . S
C1269 C1268 1.372 . S
C1269 C1270 1.414 . S
C1269 C1272 1.499 . S
C1270 H1250 0.950 . S
C1270 C1269 1.414 . S
C1270 C1271 1.374 . S
C1271 H1251 0.950 . S
C1271 C1267 1.392 . S
C1271 C1270 1.374 . S
C1272 C1269 1.499 . S
C1272 C1273 1.373 1_655 S
C1272 C1274 1.389 . S
C1273 H1252 0.950 . S
C1273 C1272 1.373 1_455 S
C1273 C1289 1.377 . S
C1274 C1272 1.389 . S
C1274 C1275 1.524 . S
C1274 C1288 1.377 . S
C1275 C1274 1.524 . S
C1275 C1276 1.397 . S
C1275 C1280 1.363 . S
C1276 H1253 0.950 . S
C1276 C1275 1.397 . S
C1276 C1277 1.334 . S
C1277 H1254 0.950 . S
C1277 C1276 1.334 . S
C1277 C1278 1.287 . S
C1278 C1277 1.287 . S
C1278 C1279 1.524 . S
C1278 H1297 0.913 . S
C1279 H1255 0.950 . S
C1279 C1278 1.524 . S
C1279 C1280 1.415 . S
C1280 H1256 0.950 . S
C1280 C1275 1.363 . S
C1280 C1279 1.415 . S
C1281 H1257 0.951 . S
C1281 C1282 1.366 . S
C1281 C1283 1.388 . S
C1282 C1281 1.366 . S
C1282 C1286 1.385 . S
C1283 H1258 0.951 . S
C1283 C1281 1.388 . S
C1283 C1284 1.366 . S
C1284 C1283 1.366 . S
C1284 C1285 1.414 . S
C1284 C1287 1.499 . S
C1285 H1259 0.950 . S
C1285 C1284 1.414 . S
C1285 C1286 1.374 . S
C1286 H1260 0.950 . S
C1286 C1282 1.385 . S
C1286 C1285 1.374 . S
C1287 C1284 1.499 . S
C1287 C1288 1.373 . S
C1287 C1289 1.389 1_655 S
C1288 H1261 0.950 . S
C1288 C1274 1.377 . S
C1288 C1287 1.373 . S
C1289 C1273 1.377 . S
C1289 C1287 1.389 1_455 S
C1289 C1290 1.524 . S
C1290 C1289 1.524 . S
C1290 C1291 1.397 . S
C1290 C1295 1.363 . S
C1291 H1262 0.950 . S
C1291 C1290 1.397 . S
C1291 C1292 1.334 . S
C1292 H1263 0.950 . S
C1292 C1291 1.334 . S
C1292 C1293 1.287 . S
C1293 C1292 1.287 . S
C1293 C1294 1.524 . S
C1293 H1296 0.999 . S
C1294 H1264 0.950 . S
C1294 C1293 1.524 . S
C1294 C1295 1.415 . S
C1295 H1265 0.950 . S
C1295 C1290 1.363 . S
C1295 C1294 1.415 . S
H1296 C1293 0.999 . S
H1297 C1278 0.913 . S
H1298 C1316 0.951 . S
H1299 C1318 0.951 . S
H1300 C1320 0.950 . S
H1301 C1321 0.950 . S
H1302 C1323 0.961 . S
H1303 C1326 0.950 . S
H1304 C1327 0.950 . S
H1305 C1329 0.950 . S
H1306 C1330 0.950 . S
H1307 C1331 0.951 . S
H1308 C1333 0.951 . S
H1309 C1335 0.950 . S
H1310 C1336 0.950 . S
H1311 C1338 0.950 . S
H1312 C1341 0.950 . S
H1313 C1342 0.950 . S
H1314 C1344 0.950 . S
H1315 C1345 0.950 . S
C1316 H1298 0.951 . S
C1316 C1317 1.395 . S
C1316 C1318 1.388 . S
C1317 C1316 1.395 . S
C1317 C1321 1.357 1_565 S
C1318 H1299 0.951 . S
C1318 C1316 1.388 . S
C1318 C1319 1.366 . S
C1319 C1318 1.366 . S
C1319 C1320 1.414 1_565 S
C1319 C1322 1.499 . S
C1320 H1300 0.950 . S
C1320 C1319 1.414 1_545 S
C1320 C1321 1.374 . S
C1321 H1301 0.950 . S
C1321 C1317 1.357 1_545 S
C1321 C1320 1.374 . S
C1322 C1319 1.499 . S
C1322 C1323 1.368 1_565 S
C1322 C1324 1.389 . S
C1323 H1302 0.961 . S
C1323 C1322 1.368 1_545 S
C1323 C1339 1.373 1_545 S
C1324 C1322 1.389 . S
C1324 C1325 1.524 . S
C1324 C1338 1.377 . S
C1325 C1324 1.524 . S
C1325 C1326 1.397 1_565 S
C1325 C1330 1.363 . S
C1326 H1303 0.950 . S
C1326 C1325 1.397 1_545 S
C1326 C1327 1.334 . S
C1327 H1304 0.950 . S
C1327 C1326 1.334 . S
C1327 C1328 1.287 1_545 S
C1328 C1327 1.287 1_565 S
C1328 C1329 1.524 . S
C1328 H1347 0.913 . S
C1329 H1305 0.950 . S
C1329 C1328 1.524 . S
C1329 C1330 1.415 . S
C1330 H1306 0.950 . S
C1330 C1325 1.363 . S
C1330 C1329 1.415 . S
C1331 H1307 0.951 . S
C1331 C1332 1.366 1_545 S
C1331 C1333 1.388 . S
C1332 C1331 1.366 1_565 S
C1332 C1336 1.385 . S
C1333 H1308 0.951 . S
C1333 C1331 1.388 . S
C1333 C1334 1.366 1_545 S
C1334 C1333 1.366 1_565 S
C1334 C1335 1.414 . S
C1334 C1337 1.499 . S
C1335 H1309 0.950 . S
C1335 C1334 1.414 . S
C1335 C1336 1.374 . S
C1336 H1310 0.950 . S
C1336 C1332 1.385 . S
C1336 C1335 1.374 . S
C1337 C1334 1.499 . S
C1337 C1338 1.373 . S
C1337 C1339 1.389 . S
C1338 H1311 0.950 . S
C1338 C1324 1.377 . S
C1338 C1337 1.373 . S
C1339 C1323 1.373 1_565 S
C1339 C1337 1.389 . S
C1339 C1340 1.523 1_565 S
C1340 C1339 1.523 1_545 S
C1340 C1341 1.386 1_545 S
C1340 C1345 1.373 . S
C1341 H1312 0.950 . S
C1341 C1340 1.386 1_565 S
C1341 C1342 1.334 . S
C1342 H1313 0.950 . S
C1342 C1341 1.334 . S
C1342 C1343 1.287 . S
C1343 C1342 1.287 . S
C1343 C1344 1.524 1_565 S
C1343 H1346 1.003 . S
C1344 H1314 0.950 . S
C1344 C1343 1.524 1_545 S
C1344 C1345 1.415 . S
C1345 H1315 0.950 . S
C1345 C1340 1.373 . S
C1345 C1344 1.415 . S
H1346 C1343 1.003 . S
H1347 C1328 0.913 . S
H1348 C1366 0.951 . S
H1349 C1368 0.951 . S
H1350 C1370 0.950 . S
H1351 C1371 0.950 . S
H1352 C1373 0.950 . S
H1353 C1376 0.950 . S
H1354 C1377 0.950 . S
H1355 C1379 0.950 . S
H1356 C1380 0.950 . S
H1357 C1381 0.951 . S
H1358 C1383 0.951 . S
H1359 C1385 0.950 . S
H1360 C1386 0.950 . S
H1361 C1388 0.950 . S
H1362 C1391 0.950 . S
H1363 C1392 0.950 . S
H1364 C1394 0.950 . S
H1365 C1395 0.950 . S
C1366 H1348 0.951 . S
C1366 C1367 1.366 . S
C1366 C1368 1.388 . S
C1367 C1366 1.366 . S
C1367 C1371 1.385 . S
C1368 H1349 0.951 . S
C1368 C1366 1.388 . S
C1368 C1369 1.366 . S
C1369 C1368 1.366 . S
C1369 C1370 1.414 . S
C1369 C1372 1.499 . S
C1370 H1350 0.950 . S
C1370 C1369 1.414 . S
C1370 C1371 1.374 . S
C1371 H1351 0.950 . S
C1371 C1367 1.385 . S
C1371 C1370 1.374 . S
C1372 C1369 1.499 . S
C1372 C1373 1.373 . S
C1372 C1374 1.389 . S
C1373 H1352 0.950 . S
C1373 C1372 1.373 . S
C1373 C1389 1.377 . S
C1374 C1372 1.389 . S
C1374 C1375 1.524 . S
C1374 C1388 1.377 . S
C1375 C1374 1.524 . S
C1375 C1376 1.397 . S
C1375 C1380 1.363 . S
C1376 H1353 0.950 . S
C1376 C1375 1.397 . S
C1376 C1377 1.334 . S
C1377 H1354 0.950 . S
C1377 C1376 1.334 . S
C1377 C1378 1.287 . S
C1378 C1377 1.287 . S
C1378 C1379 1.524 . S
C1378 H1397 0.913 . S
C1379 H1355 0.950 . S
C1379 C1378 1.524 . S
C1379 C1380 1.415 . S
C1380 H1356 0.950 . S
C1380 C1375 1.363 . S
C1380 C1379 1.415 . S
C1381 H1357 0.951 . S
C1381 C1382 1.366 . S
C1381 C1383 1.388 . S
C1382 C1381 1.366 . S
C1382 C1386 1.385 . S
C1383 H1358 0.951 . S
C1383 C1381 1.388 . S
C1383 C1384 1.366 . S
C1384 C1383 1.366 . S
C1384 C1385 1.414 . S
C1384 C1387 1.499 . S
C1385 H1359 0.950 . S
C1385 C1384 1.414 . S
C1385 C1386 1.374 . S
C1386 H1360 0.950 . S
C1386 C1382 1.385 . S
C1386 C1385 1.374 . S
C1387 C1384 1.499 . S
C1387 C1388 1.373 . S
C1387 C1389 1.389 . S
C1388 H1361 0.950 . S
C1388 C1374 1.377 . S
C1388 C1387 1.373 . S
C1389 C1373 1.377 . S
C1389 C1387 1.389 . S
C1389 C1390 1.524 . S
C1390 C1389 1.524 . S
C1390 C1391 1.397 . S
C1390 C1395 1.363 . S
C1391 H1362 0.950 . S
C1391 C1390 1.397 . S
C1391 C1392 1.334 . S
C1392 H1363 0.950 . S
C1392 C1391 1.334 . S
C1392 C1393 1.287 . S
C1393 C1392 1.287 . S
C1393 C1394 1.524 . S
C1393 H1396 0.999 . S
C1394 H1364 0.950 . S
C1394 C1393 1.524 . S
C1394 C1395 1.415 . S
C1395 H1365 0.950 . S
C1395 C1390 1.363 . S
C1395 C1394 1.415 . S
H1396 C1393 0.999 . S
H1397 C1378 0.913 . S
H1398 C1416 0.951 . S
H1399 C1418 0.951 . S
H1400 C1420 0.950 . S
H1401 C1421 0.950 . S
H1402 C1423 0.950 . S
H1403 C1426 0.950 . S
H1404 C1427 0.950 . S
H1405 C1429 0.950 . S
H1406 C1430 0.950 . S
H1407 C1431 0.951 . S
H1408 C1433 0.951 . S
H1409 C1435 0.950 . S
H1410 C1436 0.950 . S
H1411 C1438 0.950 . S
H1412 C1441 0.950 . S
H1413 C1442 0.950 . S
H1414 C1444 0.950 . S
H1415 C1445 0.950 . S
C1416 H1398 0.951 . S
C1416 C1417 1.366 . S
C1416 C1418 1.388 . S
C1417 C1416 1.366 . S
C1417 C1421 1.385 . S
C1418 H1399 0.951 . S
C1418 C1416 1.388 . S
C1418 C1419 1.366 . S
C1419 C1418 1.366 . S
C1419 C1420 1.414 . S
C1419 C1422 1.499 . S
C1420 H1400 0.950 . S
C1420 C1419 1.414 . S
C1420 C1421 1.374 . S
C1421 H1401 0.950 . S
C1421 C1417 1.385 . S
C1421 C1420 1.374 . S
C1422 C1419 1.499 . S
C1422 C1423 1.373 . S
C1422 C1424 1.389 . S
C1423 H1402 0.950 . S
C1423 C1422 1.373 . S
C1423 C1439 1.377 . S
C1424 C1422 1.389 . S
C1424 C1425 1.524 . S
C1424 C1438 1.377 . S
C1425 C1424 1.524 . S
C1425 C1426 1.397 . S
C1425 C1430 1.363 . S
C1426 H1403 0.950 . S
C1426 C1425 1.397 . S
C1426 C1427 1.334 . S
C1427 H1404 0.950 . S
C1427 C1426 1.334 . S
C1427 C1428 1.287 . S
C1428 C1427 1.287 . S
C1428 C1429 1.524 . S
C1428 H1447 0.913 . S
C1429 H1405 0.950 . S
C1429 C1428 1.524 . S
C1429 C1430 1.415 . S
C1430 H1406 0.950 . S
C1430 C1425 1.363 . S
C1430 C1429 1.415 . S
C1431 H1407 0.951 . S
C1431 C1432 1.366 . S
C1431 C1433 1.388 . S
C1432 C1431 1.366 . S
C1432 C1436 1.385 . S
C1433 H1408 0.951 . S
C1433 C1431 1.388 . S
C1433 C1434 1.366 . S
C1434 C1433 1.366 . S
C1434 C1435 1.414 . S
C1434 C1437 1.499 . S
C1435 H1409 0.950 . S
C1435 C1434 1.414 . S
C1435 C1436 1.374 . S
C1436 H1410 0.950 . S
C1436 C1432 1.385 . S
C1436 C1435 1.374 . S
C1437 C1434 1.499 . S
C1437 C1438 1.373 . S
C1437 C1439 1.389 . S
C1438 H1411 0.950 . S
C1438 C1424 1.377 . S
C1438 C1437 1.373 . S
C1439 C1423 1.377 . S
C1439 C1437 1.389 . S
C1439 C1440 1.524 . S
C1440 C1439 1.524 . S
C1440 C1441 1.397 . S
C1440 C1445 1.363 . S
C1441 H1412 0.950 . S
C1441 C1440 1.397 . S
C1441 C1442 1.334 . S
C1442 H1413 0.950 . S
C1442 C1441 1.334 . S
C1442 C1443 1.287 . S
C1443 C1442 1.287 . S
C1443 C1444 1.524 . S
C1443 H1446 0.999 . S
C1444 H1414 0.950 . S
C1444 C1443 1.524 . S
C1444 C1445 1.415 . S
C1445 H1415 0.950 . S
C1445 C1440 1.363 . S
C1445 C1444 1.415 . S
H1446 C1443 0.999 . S
H1447 C1428 0.913 . S
C267 C74 1.674 . S
C282 C97 1.726 1_545 S
C332 C137 1.734 . S
C317 C85 1.669 . S
C382 C177 1.735 . S
C367 C52 1.677 . S
C432 C217 1.729 1_455 S
C417 C63 1.675 . S
C482 C106 1.728 1_565 S
C467 C30 1.676 . S
C517 C41 1.677 . S
C532 C146 1.738 . S
C567 C8 1.678 . S
C582 C186 1.734 . S
C617 C19 1.675 1_655 S
C632 C226 1.729 1_655 S
C682 C103 0.436 . S
C667 C62 0.451 . S
C732 C143 0.441 . S
C717 C73 0.461 . S
C782 C183 0.442 . S
C767 C84 0.442 . S
C817 C51 0.439 . S
C832 C223 0.434 . S
C867 C18 0.457 1_655 S
C882 C94 0.439 . S
C932 C134 0.441 . S
C917 C29 0.461 1_565 S
C982 C174 0.444 . S
C967 C40 0.489 . S
C1017 C7 0.485 . S
C1032 C214 0.444 . S
C1067 C60 1.604 . S
C1082 C107 2.030 . S
C1117 C71 1.597 . S
C1132 C147 2.029 . S
C1182 C187 2.025 . S
C1167 C82 1.573 . S
C1232 C227 2.032 . S
C1217 C49 1.572 . S
C1267 C16 1.604 1_655 S
C1282 C98 2.045 . S
C1332 C138 2.030 . S
C1317 C27 1.598 1_565 S
C1382 C178 2.025 . S
C1367 C38 1.616 . S
C1417 C5 1.622 . S
C1432 C218 2.038 . S
