# Generated by pormake.
# Topology pth, (4,4)-cn, num edge types: 1
# Building blocks:
#     Node 0, Type 0, BuildingBlock: TATPOV_clean_sbu_0, # of connection points: 4
#     Node 1, Type 0, BuildingBlock: TATPOV_clean_sbu_0, # of connection points: 4
#     Node 2, Type 0, BuildingBlock: TATPOV_clean_sbu_0, # of connection points: 4
#     Node 3, Type 1, BuildingBlock: NAWXER_clean_sbu_0, # of connection points: 4
#     Node 4, Type 1, BuildingBlock: NAWXER_clean_sbu_0, # of connection points: 4
#     Node 5, Type 1, BuildingBlock: NAWXER_clean_sbu_0, # of connection points: 4
#     Edge 6, Type (0, 1), BuildingBlock: KIFKEQ_clean_linker_1, # of connection points: 2
#     Edge 7, Type (0, 1), BuildingBlock: KIFKEQ_clean_linker_1, # of connection points: 2
#     Edge 8, Type (0, 1), BuildingBlock: KIFKEQ_clean_linker_1, # of connection points: 2
#     Edge 9, Type (0, 1), BuildingBlock: KIFKEQ_clean_linker_1, # of connection points: 2
#     Edge 10, Type (0, 1), BuildingBlock: KIFKEQ_clean_linker_1, # of connection points: 2
#     Edge 11, Type (0, 1), BuildingBlock: KIFKEQ_clean_linker_1, # of connection points: 2
#     Edge 12, Type (0, 1), BuildingBlock: KIFKEQ_clean_linker_1, # of connection points: 2
#     Edge 13, Type (0, 1), BuildingBlock: KIFKEQ_clean_linker_1, # of connection points: 2
#     Edge 14, Type (0, 1), BuildingBlock: KIFKEQ_clean_linker_1, # of connection points: 2
#     Edge 15, Type (0, 1), BuildingBlock: KIFKEQ_clean_linker_1, # of connection points: 2
#     Edge 16, Type (0, 1), BuildingBlock: KIFKEQ_clean_linker_1, # of connection points: 2
#     Edge 17, Type (0, 1), BuildingBlock: KIFKEQ_clean_linker_1, # of connection points: 2
# Relax obj value: 0.048
# Max RMSD: 0.172
# Mean RMSD: 0.098
data_MOF--net-pth--node1-TATPOV_clean_sbu_0--node2-NAWXER_clean_sbu_0--edge1-KIFKEQ_clean_linker_1
_symmetry_space_group_name_H-M    P1
_symmetry_Int_Tables_number       1
_symmetry_cell_setting            triclinic
loop_
_symmetry_equiv_pos_as_xyz
'x, y, z'
_cell_length_a     23.449014
_cell_length_b     23.199987
_cell_length_c     57.325002
_cell_angle_alpha  92.265354
_cell_angle_beta   92.152482
_cell_angle_gamma 120.71282
loop_
_atom_site_label
_atom_site_type_symbol
_atom_site_fract_x
_atom_site_fract_y
_atom_site_fract_z
_atom_type_partial_charge
Zn0 Zn 0.18263 0.0548 0.04177 0.0
Zn1 Zn 0.10658 0.09704 0.06016 0.0
O2 O 0.12066 0.04337 0.08533 0.0
O3 O 0.18935 0.01438 0.07159 0.0
O4 O 0.0741 0.15087 0.07781 0.0
O5 O 0.25327 0.14659 0.0327 0.0
O6 O 0.18347 0.17576 0.04489 0.0
C7 C 0.15311 0.01332 0.0876 0.0
C8 C 0.04473 0.99386 0.02025 0.0
O9 O 0.03642 0.03041 0.03536 0.0
O10 O 0.10052 0.99739 0.01964 0.0
C11 C 0.05658 0.14259 0.09872 0.0
O12 O 0.04754 0.08895 0.1088 0.0
C13 C 0.23677 0.19045 0.03521 0.0
Zn14 Zn 0.23098 0.21537 0.385 0.0
Zn15 Zn 0.11089 0.13458 0.39773 0.0
O16 O 0.17908 0.14371 0.42346 0.0
O17 O 0.27871 0.22493 0.4164 0.0
O18 O 0.02766 0.1021 0.41535 0.0
O19 O 0.2115 0.28427 0.37226 0.0
O20 O 0.1107 0.21245 0.3817 0.0
C21 C 0.24114 0.17885 0.42918 0.0
C22 C 0.15609 0.0749 0.36232 0.0
O23 O 0.10589 0.0647 0.37347 0.0
O24 O 0.20955 0.13181 0.36453 0.0
C25 C 0.03638 0.14615 0.43137 0.0
O26 O 0.09525 0.20099 0.43468 0.0
C27 C 0.1508 0.26664 0.3726 0.0
Zn28 Zn 0.0861 0.90081 0.74436 0.0
Zn29 Zn 0.044 0.97222 0.72313 0.0
O30 O 0.10499 0.95973 0.70097 0.0
O31 O 0.12982 0.88947 0.71637 0.0
O32 O 0.99112 0.99635 0.70105 0.0
O33 O 0.99593 0.82961 0.75404 0.0
O34 O 0.96582 0.89593 0.73882 0.0
C35 C 0.13507 0.92698 0.70013 0.0
C36 C 0.14148 0.043 0.76316 0.0
O37 O 0.10373 0.04793 0.74773 0.0
O38 O 0.14101 0.98825 0.76458 0.0
C39 C 0.9516 0.94536 0.68734 0.0
O40 O 0.95438 0.89038 0.68852 0.0
C41 C 0.95164 0.84429 0.74987 0.0
C42 C 0.14762 0.69755 0.26693 0.0
C43 C 0.11253 0.52793 0.20495 0.0
O44 O 0.19384 0.69166 0.25829 0.0
Zn45 Zn 0.1366 0.6166 0.23556 0.0
O46 O 0.08727 0.65892 0.25905 0.0
Zn47 Zn 0.02952 0.57956 0.23345 0.0
O48 O 0.9729 0.50798 0.25367 0.0
O49 O 0.07919 0.53817 0.25721 0.0
O50 O 0.05989 0.52716 0.2107 0.0
O51 O 0.16894 0.5729 0.21443 0.0
O52 O 0.10646 0.66551 0.21269 0.0
O53 O 0.99826 0.6237 0.21172 0.0
C54 C 0.01936 0.50117 0.26283 0.0
C55 C 0.05509 0.6663 0.20496 0.0
C56 C 0.60442 0.9539 0.58081 0.0
C57 C 0.4703 0.99116 0.52208 0.0
O58 O 0.56085 0.90833 0.56617 0.0
Zn59 Zn 0.53452 0.9656 0.55042 0.0
O60 O 0.61642 0.0142 0.58046 0.0
Zn61 Zn 0.58744 0.07335 0.56198 0.0
O62 O 0.54845 0.10133 0.58687 0.0
O63 O 0.49228 0.99225 0.57734 0.0
O64 O 0.51391 0.04361 0.53439 0.0
O65 O 0.46388 0.93416 0.52531 0.0
O66 O 0.62104 0.02641 0.53334 0.0
O67 O 0.66971 0.13269 0.54646 0.0
C68 C 0.49953 0.04276 0.58979 0.0
C69 C 0.66869 0.08718 0.53287 0.0
C70 C 0.46978 0.53931 0.92598 0.0
C71 C 0.58271 0.6283 0.8541 0.0
O72 O 0.45942 0.57674 0.91297 0.0
Zn73 Zn 0.52313 0.58664 0.88968 0.0
O74 O 0.51013 0.52045 0.92019 0.0
Zn75 Zn 0.57336 0.53025 0.89363 0.0
O76 O 0.65893 0.57225 0.91123 0.0
O77 O 0.61578 0.6374 0.90989 0.0
O78 O 0.59585 0.58742 0.86388 0.0
O79 O 0.5439 0.64458 0.86338 0.0
O80 O 0.4741 0.48926 0.87196 0.0
O81 O 0.53089 0.43918 0.87955 0.0
C82 C 0.66264 0.62778 0.91687 0.0
C83 C 0.48111 0.43817 0.8694 0.0
H84 H 0.11395 0.27422 0.08845 0.0
H85 H 0.00726 0.13857 0.14145 0.0
H86 H 0.12937 0.36896 0.11382 0.0
H87 H 0.02221 0.23339 0.16665 0.0
H88 H 0.9989 0.4104 0.19195 0.0
H89 H 0.98399 0.31837 0.16566 0.0
H90 H 0.19322 0.42812 0.15396 0.0
H91 H 0.20875 0.52125 0.1807 0.0
C92 C 0.09294 0.26443 0.10536 0.0
C93 C 0.05906 0.19872 0.1129 0.0
C94 C 0.10249 0.31884 0.11996 0.0
C95 C 0.0774 0.30855 0.14223 0.0
C96 C 0.04193 0.24272 0.14952 0.0
C97 C 0.03328 0.18845 0.13508 0.0
C98 C 0.04195 0.41541 0.18376 0.0
C99 C 0.10514 0.47341 0.18841 0.0
C100 C 0.03329 0.36232 0.16879 0.0
C101 C 0.08737 0.36602 0.15782 0.0
C102 C 0.15057 0.42424 0.16212 0.0
C103 C 0.15952 0.4773 0.17747 0.0
H104 H 0.04673 0.22017 0.47111 0.0
H105 H 0.90255 0.0566 0.42354 0.0
H106 H 0.95809 0.21015 0.49452 0.0
H107 H 0.8133 0.04816 0.44644 0.0
H108 H 0.68181 0.99459 0.50719 0.0
H109 H 0.76904 0.01113 0.48253 0.0
H110 H 0.86531 0.22606 0.49701 0.0
H111 H 0.7776 0.20905 0.52288 0.0
C112 C 0.99593 0.18223 0.46555 0.0
C113 C 0.98172 0.13866 0.44556 0.0
C114 C 0.94496 0.177 0.47888 0.0
C115 C 0.87831 0.12837 0.47248 0.0
C116 C 0.8641 0.08547 0.45221 0.0
C117 C 0.91521 0.09025 0.43902 0.0
C118 C 0.72118 0.04571 0.50516 0.0
C119 C 0.72241 0.10063 0.5171 0.0
C120 C 0.77126 0.05515 0.49073 0.0
C121 C 0.82419 0.11991 0.48748 0.0
C122 C 0.82554 0.1753 0.49925 0.0
C123 C 0.77518 0.16573 0.51398 0.0
H124 H 0.90289 0.72978 0.77334 0.0
H125 H 0.85218 0.8735 0.74955 0.0
H126 H 0.80165 0.67575 0.79406 0.0
H127 H 0.75014 0.81875 0.77023 0.0
H128 H 0.64146 0.75876 0.84179 0.0
H129 H 0.72261 0.80806 0.81198 0.0
H130 H 0.68102 0.61007 0.78874 0.0
H131 H 0.60183 0.56167 0.81871 0.0
C132 C 0.8696 0.74917 0.77219 0.0
C133 C 0.88591 0.80613 0.75986 0.0
C134 C 0.81125 0.71797 0.78399 0.0
C135 C 0.76772 0.74297 0.7838 0.0
C136 C 0.78288 0.79865 0.77086 0.0
C137 C 0.84118 0.82968 0.7589 0.0
C138 C 0.64822 0.72588 0.82975 0.0
C139 C 0.61608 0.65666 0.83262 0.0
C140 C 0.69475 0.75396 0.81273 0.0
C141 C 0.7093 0.71301 0.79835 0.0
C142 C 0.67222 0.64313 0.79992 0.0
C143 C 0.62648 0.61536 0.81694 0.0
H144 H 0.05922 0.97674 0.12005 0.0
H145 H 0.21838 0.94789 0.09887 0.0
H146 H 0.03178 0.89355 0.14915 0.0
H147 H 0.19035 0.86458 0.12752 0.0
H148 H 0.17302 0.77412 0.19604 0.0
H149 H 0.19549 0.86064 0.16968 0.0
H150 H 0.98535 0.76864 0.15118 0.0
H151 H 0.96203 0.68071 0.17838 0.0
C152 C 0.08893 0.95342 0.12178 0.0
C153 C 0.14143 0.96947 0.10721 0.0
C154 C 0.07255 0.9051 0.13825 0.0
C155 C 0.10869 0.8723 0.14061 0.0
C156 C 0.1619 0.8894 0.12634 0.0
C157 C 0.17805 0.9373 0.10989 0.0
C158 C 0.1311 0.77166 0.18641 0.0
C159 C 0.06553 0.71952 0.18912 0.0
C160 C 0.14427 0.82157 0.1712 0.0
C161 C 0.09244 0.82109 0.15804 0.0
C162 C 0.02641 0.77036 0.16115 0.0
C163 C 0.01302 0.71989 0.1766 0.0
H164 H 0.3717 0.23712 0.44546 0.0
H165 H 0.17695 0.06397 0.45239 0.0
H166 H 0.42176 0.18434 0.46735 0.0
H167 H 0.22704 0.01006 0.47331 0.0
H168 H 0.3431 0.95793 0.52741 0.0
H169 H 0.28482 0.00587 0.50722 0.0
H170 H 0.44364 0.09667 0.46036 0.0
H171 H 0.50256 0.05102 0.48138 0.0
C172 C 0.33945 0.18828 0.45195 0.0
C173 C 0.27033 0.15477 0.44699 0.0
C174 C 0.36822 0.15738 0.46418 0.0
C175 C 0.32867 0.09192 0.47155 0.0
C176 C 0.25922 0.06033 0.46792 0.0
C177 C 0.23041 0.09151 0.45592 0.0
C178 C 0.36397 0.98602 0.51221 0.0
C179 C 0.42632 0.99957 0.5055 0.0
C180 C 0.33106 0.01417 0.50076 0.0
C181 C 0.36003 0.05641 0.48239 0.0
C182 C 0.42059 0.06607 0.47483 0.0
C183 C 0.45371 0.03864 0.48646 0.0
H184 H 0.13526 0.15377 0.7779 0.0
H185 H 0.25677 0.06381 0.78374 0.0
H186 H 0.21525 0.24784 0.80471 0.0
H187 H 0.33807 0.15859 0.80918 0.0
H188 H 0.44692 0.30657 0.87103 0.0
H189 H 0.36136 0.21049 0.84643 0.0
H190 H 0.32069 0.3437 0.8079 0.0
H191 H 0.40313 0.43838 0.83335 0.0
C192 C 0.17931 0.15448 0.78476 0.0
C193 C 0.1895 0.10132 0.77888 0.0
C194 C 0.22545 0.20849 0.80002 0.0
C195 C 0.28337 0.211 0.80929 0.0
C196 C 0.29353 0.15793 0.80301 0.0
C197 C 0.24698 0.10363 0.78821 0.0
C198 C 0.41952 0.31497 0.85729 0.0
C199 C 0.43152 0.37975 0.85412 0.0
C200 C 0.37062 0.26005 0.84307 0.0
C201 C 0.33377 0.26902 0.82504 0.0
C202 C 0.34667 0.33427 0.82185 0.0
C203 C 0.39447 0.38879 0.83634 0.0
H204 H 0.84957 0.83753 0.6621 0.0
H205 H 0.93604 0.0512 0.6767 0.0
H206 H 0.76098 0.8335 0.63741 0.0
H207 H 0.84853 0.04775 0.65118 0.0
H208 H 0.65201 0.01465 0.62402 0.0
H209 H 0.73382 0.01002 0.64987 0.0
H210 H 0.73459 0.86338 0.60112 0.0
H211 H 0.65015 0.86645 0.57558 0.0
C212 C 0.85012 0.88394 0.65985 0.0
C213 C 0.8999 0.94478 0.67146 0.0
C214 C 0.79931 0.88159 0.64554 0.0
C215 C 0.79711 0.94012 0.64231 0.0
C216 C 0.84768 0.00129 0.65362 0.0
C217 C 0.89828 0.00352 0.66813 0.0
C218 C 0.66887 0.98055 0.61901 0.0
C219 C 0.64487 0.94096 0.59778 0.0
C220 C 0.71646 0.97852 0.6337 0.0
C221 C 0.74216 0.93752 0.62741 0.0
C222 C 0.71582 0.89543 0.60661 0.0
C223 C 0.66728 0.89688 0.59198 0.0
H224 H 0.91322 0.95705 0.0197 0.0
H225 H 0.04991 0.91631 0.98439 0.0
H226 H 0.82091 0.86769 0.99484 0.0
H227 H 0.95816 0.82829 0.95941 0.0
H228 H 0.68402 0.75163 0.92999 0.0
H229 H 0.77605 0.84098 0.95439 0.0
H230 H 0.86205 0.71606 0.96215 0.0
H231 H 0.77 0.62638 0.93719 0.0
C232 C 0.92369 0.92965 0.00649 0.0
C233 C 0.98891 0.94378 0.0041 0.0
C234 C 0.87085 0.87849 0.99223 0.0
C235 C 0.88221 0.84055 0.97526 0.0
C236 C 0.94757 0.85566 0.9726 0.0
C237 C 1.00024 0.90661 0.98682 0.0
C238 C 0.72248 0.74296 0.93685 0.0
C239 C 0.71963 0.68172 0.93162 0.0
C240 C 0.77507 0.79421 0.95099 0.0
C241 C 0.82622 0.78561 0.96029 0.0
C242 C 0.82367 0.72448 0.95503 0.0
C243 C 0.77086 0.673 0.94082 0.0
H244 H 0.26382 0.07288 0.34755 0.0
H245 H 0.04961 0.95164 0.34617 0.0
H246 H 0.26776 0.98166 0.3273 0.0
H247 H 0.05315 0.86068 0.32461 0.0
H248 H 0.07701 0.68679 0.30428 0.0
H249 H 0.08122 0.7779 0.32832 0.0
H250 H 0.24754 0.92189 0.29139 0.0
H251 H 0.24499 0.82981 0.26826 0.0
C252 C 0.21724 0.02696 0.34256 0.0
C253 C 0.15622 0.01968 0.34843 0.0
C254 C 0.2196 0.97452 0.33081 0.0
C255 C 0.16093 0.91343 0.32425 0.0
C256 C 0.09962 0.90643 0.32979 0.0
C257 C 0.09734 0.95878 0.34194 0.0
C258 C 0.11564 0.73801 0.30184 0.0
C259 C 0.16105 0.7515 0.2846 0.0
C260 C 0.11737 0.79033 0.31532 0.0
C261 C 0.16372 0.85761 0.31154 0.0
C262 C 0.21139 0.87084 0.29501 0.0
C263 C 0.21035 0.81817 0.28179 0.0
H264 H 0.2116 0.87047 0.69468 0.0
H265 H 0.17207 0.01715 0.66603 0.0
H266 H 0.3025 0.90348 0.66934 0.0
H267 H 0.26274 0.04926 0.64016 0.0
H268 H 0.47663 0.13325 0.61478 0.0
H269 H 0.38687 0.10567 0.64115 0.0
H270 H 0.31762 0.89455 0.62854 0.0
H271 H 0.40637 0.92142 0.60321 0.0
C272 C 0.2215 0.909 0.68269 0.0
C273 C 0.18408 0.94075 0.68233 0.0
C274 C 0.27385 0.92809 0.66816 0.0
C275 C 0.29013 0.97925 0.65275 0.0
C276 C 0.25211 0.01038 0.65206 0.0
C277 C 0.19954 0.99124 0.66666 0.0
C278 C 0.44252 0.08117 0.61791 0.0
C279 C 0.44893 0.02975 0.60688 0.0
C280 C 0.39081 0.06528 0.6328 0.0
C281 C 0.34516 0.99782 0.637 0.0
C282 C 0.3523 0.94699 0.62605 0.0
C283 C 0.40331 0.96265 0.61132 0.0
H284 H 0.35938 0.24481 0.01781 0.0
H285 H 0.19984 0.28332 0.02803 0.0
H286 H 0.41534 0.34437 0.99575 0.0
H287 H 0.25624 0.38343 0.00585 0.0
H288 H 0.52644 0.54072 0.96774 0.0
H289 H 0.47135 0.46796 0.99909 0.0
H290 H 0.28043 0.40209 0.96331 0.0
H291 H 0.33622 0.47648 0.93201 0.0
C292 C 0.33679 0.27515 0.0157 0.0
C293 C 0.27506 0.25588 0.02463 0.0
C294 C 0.36904 0.33252 0.00315 0.0
C295 C 0.3402 0.37189 0.99906 0.0
C296 C 0.27948 0.35394 0.00861 0.0
C297 C 0.24747 0.2968 0.02143 0.0
C298 C 0.47257 0.51263 0.96706 0.0
C299 C 0.43543 0.51391 0.94751 0.0
C300 C 0.44108 0.47048 0.98487 0.0
C301 C 0.37169 0.42812 0.98339 0.0
C302 C 0.33403 0.43425 0.96495 0.0
C303 C 0.36579 0.47703 0.94709 0.0
H304 H 0.21326 0.36112 0.34112 0.0
H305 H 0.02825 0.25442 0.37469 0.0
H306 H 0.16451 0.4084 0.31552 0.0
H307 H 0.97998 0.30327 0.3491 0.0
H308 H 0.9876 0.49602 0.30843 0.0
H309 H 0.01222 0.436 0.33797 0.0
H310 H 0.0585 0.33638 0.28324 0.0
H311 H 0.03336 0.3953 0.254 0.0
C312 C 0.16268 0.34876 0.34338 0.0
C313 C 0.12458 0.30362 0.35986 0.0
C314 C 0.13467 0.3755 0.32861 0.0
C315 C 0.06831 0.35863 0.3302 0.0
C316 C 0.03116 0.31672 0.34753 0.0
C317 C 0.05888 0.28893 0.36212 0.0
C318 C 0.9995 0.45852 0.30274 0.0
C319 C 0.00758 0.44921 0.279 0.0
C320 C 0.01433 0.42489 0.3196 0.0
C321 C 0.03821 0.38257 0.3128 0.0
C322 C 0.04073 0.36922 0.2889 0.0
C323 C 0.02551 0.40219 0.27217 0.0
loop_
_geom_bond_atom_site_label_1
_geom_bond_atom_site_label_2
_geom_bond_distance
_geom_bond_site_symmetry_2
_ccdc_geom_bond_type
Zn0 O3 2.031 1_545 S
Zn0 O5 2.049 . S
Zn0 O10 2.067 1_545 S
Zn1 O2 1.962 . S
Zn1 O4 1.986 . S
Zn1 O6 1.996 . S
Zn1 O9 1.943 . S
O2 Zn1 1.962 . S
O2 C7 1.254 1_545 S
O3 Zn0 2.031 1_565 S
O3 C7 1.269 . S
O4 Zn1 1.986 . S
O4 C11 1.262 . S
O5 Zn0 2.049 . S
O5 C13 1.260 . S
O6 Zn1 1.996 . S
O6 C13 1.257 . S
C7 O2 1.254 1_565 S
C7 O3 1.269 . S
C8 O9 1.249 1_565 S
C8 O10 1.270 . S
O9 Zn1 1.943 . S
O9 C8 1.249 1_545 S
O10 Zn0 2.067 1_565 S
O10 C8 1.270 . S
C11 O4 1.262 . S
C11 O12 1.232 . S
O12 C11 1.232 . S
C13 O5 1.260 . S
C13 O6 1.257 . S
Zn14 O17 2.031 . S
Zn14 O19 2.049 . S
Zn14 O24 2.067 . S
Zn15 O16 1.962 . S
Zn15 O18 1.986 1_455 S
Zn15 O20 1.996 . S
Zn15 O23 1.943 . S
O16 Zn15 1.962 . S
O16 C21 1.254 . S
O17 Zn14 2.031 . S
O17 C21 1.269 . S
O18 Zn15 1.986 1_655 S
O18 C25 1.262 . S
O19 Zn14 2.049 . S
O19 C27 1.260 . S
O20 Zn15 1.996 . S
O20 C27 1.257 . S
C21 O16 1.254 . S
C21 O17 1.269 . S
C22 O23 1.249 . S
C22 O24 1.270 . S
O23 Zn15 1.943 . S
O23 C22 1.249 . S
O24 Zn14 2.067 . S
O24 C22 1.270 . S
C25 O18 1.262 . S
C25 O26 1.232 . S
O26 C25 1.232 . S
C27 O19 1.260 . S
C27 O20 1.257 . S
Zn28 O31 2.031 1_565 S
Zn28 O33 2.049 . S
Zn28 O38 2.067 1_565 S
Zn29 O30 1.962 1_545 S
Zn29 O32 1.986 1_455 S
Zn29 O34 1.996 1_545 S
Zn29 O37 1.943 . S
O30 Zn29 1.962 1_565 S
O30 C35 1.254 1_565 S
O31 Zn28 2.031 1_545 S
O31 C35 1.269 . S
O32 Zn29 1.986 1_655 S
O32 C39 1.262 . S
O33 Zn28 2.049 . S
O33 C41 1.260 1_455 S
O34 Zn29 1.996 1_565 S
O34 C41 1.257 1_455 S
C35 O30 1.254 1_545 S
C35 O31 1.269 . S
C36 O37 1.249 . S
C36 O38 1.270 . S
O37 Zn29 1.943 . S
O37 C36 1.249 . S
O38 Zn28 2.067 1_545 S
O38 C36 1.270 . S
C39 O32 1.262 . S
C39 O40 1.232 1_655 S
O40 C39 1.232 1_455 S
C41 O33 1.260 1_655 S
C41 O34 1.257 1_655 S
C42 O44 1.247 . S
C42 O46 1.258 . S
C43 O50 1.247 . S
C43 O51 1.258 . S
O44 C42 1.247 . S
O44 Zn45 2.028 . S
Zn45 O44 2.028 . S
Zn45 O49 2.035 . S
Zn45 O51 2.035 . S
Zn45 O52 2.028 . S
O46 C42 1.258 . S
O46 Zn47 2.035 . S
Zn47 O46 2.035 . S
Zn47 O48 2.028 . S
Zn47 O50 2.028 . S
Zn47 O53 2.035 . S
O48 Zn47 2.028 . S
O48 C54 1.247 . S
O49 Zn45 2.035 . S
O49 C54 1.258 . S
O50 C43 1.247 . S
O50 Zn47 2.028 . S
O51 C43 1.258 . S
O51 Zn45 2.035 . S
O52 Zn45 2.028 . S
O52 C55 1.247 . S
O53 Zn47 2.035 . S
O53 C55 1.258 . S
C54 O48 1.247 . S
C54 O49 1.258 . S
C55 O52 1.247 . S
C55 O53 1.258 . S
C56 O58 1.247 1_545 S
C56 O60 1.258 . S
C57 O64 1.247 . S
C57 O65 1.258 . S
O58 C56 1.247 1_565 S
O58 Zn59 2.028 . S
Zn59 O58 2.028 . S
Zn59 O63 2.035 . S
Zn59 O65 2.035 1_565 S
Zn59 O66 2.028 1_565 S
O60 C56 1.258 . S
O60 Zn61 2.035 . S
Zn61 O60 2.035 . S
Zn61 O62 2.028 . S
Zn61 O64 2.028 . S
Zn61 O67 2.035 . S
O62 Zn61 2.028 . S
O62 C68 1.247 . S
O63 Zn59 2.035 . S
O63 C68 1.258 1_565 S
O64 C57 1.247 . S
O64 Zn61 2.028 . S
O65 C57 1.258 . S
O65 Zn59 2.035 1_545 S
O66 Zn59 2.028 1_545 S
O66 C69 1.247 . S
O67 Zn61 2.035 . S
O67 C69 1.258 . S
C68 O62 1.247 . S
C68 O63 1.258 1_545 S
C69 O66 1.247 . S
C69 O67 1.258 . S
C70 O72 1.247 . S
C70 O74 1.258 . S
C71 O78 1.247 . S
C71 O79 1.258 . S
O72 C70 1.247 . S
O72 Zn73 2.028 . S
Zn73 O72 2.028 . S
Zn73 O77 2.035 . S
Zn73 O79 2.035 . S
Zn73 O80 2.028 . S
O74 C70 1.258 . S
O74 Zn75 2.035 . S
Zn75 O74 2.035 . S
Zn75 O76 2.028 . S
Zn75 O78 2.028 . S
Zn75 O81 2.035 . S
O76 Zn75 2.028 . S
O76 C82 1.247 . S
O77 Zn73 2.035 . S
O77 C82 1.258 . S
O78 C71 1.247 . S
O78 Zn75 2.028 . S
O79 C71 1.258 . S
O79 Zn73 2.035 . S
O80 Zn73 2.028 . S
O80 C83 1.247 . S
O81 Zn75 2.035 . S
O81 C83 1.258 . S
C82 O76 1.247 . S
C82 O77 1.258 . S
C83 O80 1.247 . S
C83 O81 1.258 . S
H84 C92 0.950 . S
H85 C97 0.950 1_655 S
H86 C94 0.950 . S
H87 C96 0.950 1_655 S
H88 C98 0.950 1_655 S
H89 C100 0.950 1_655 S
H90 C102 0.950 . S
H91 C103 0.950 . S
C92 H84 0.950 . S
C92 C93 1.386 . S
C92 C94 1.391 . S
C93 C92 1.386 . S
C93 C97 1.393 . S
C94 H86 0.950 . S
C94 C92 1.391 . S
C94 C95 1.400 . S
C95 C94 1.400 . S
C95 C96 1.398 . S
C95 C101 1.491 . S
C96 H87 0.950 1_455 S
C96 C95 1.398 . S
C96 C97 1.391 . S
C97 H85 0.950 1_455 S
C97 C93 1.393 . S
C97 C96 1.391 . S
C98 H88 0.950 1_455 S
C98 C99 1.386 . S
C98 C100 1.391 . S
C99 C98 1.386 . S
C99 C103 1.393 . S
C100 H89 0.950 1_455 S
C100 C98 1.391 . S
C100 C101 1.400 . S
C101 C95 1.491 . S
C101 C100 1.400 . S
C101 C102 1.398 . S
C102 H90 0.950 . S
C102 C101 1.398 . S
C102 C103 1.391 . S
C103 H91 0.950 . S
C103 C99 1.393 . S
C103 C102 1.391 . S
H104 C112 0.950 . S
H105 C117 0.949 1_565 S
H106 C114 0.950 . S
H107 C116 0.950 . S
H108 C118 0.950 . S
H109 C120 0.950 . S
H110 C122 0.950 . S
H111 C123 0.950 . S
C112 H104 0.950 . S
C112 C113 1.386 . S
C112 C114 1.391 . S
C113 C112 1.386 . S
C113 C117 1.393 . S
C114 H106 0.950 . S
C114 C112 1.391 . S
C114 C115 1.400 . S
C115 C114 1.400 . S
C115 C116 1.398 . S
C115 C121 1.491 . S
C116 H107 0.950 . S
C116 C115 1.398 . S
C116 C117 1.391 . S
C117 H105 0.949 1_545 S
C117 C113 1.393 . S
C117 C116 1.391 . S
C118 H108 0.950 . S
C118 C119 1.386 . S
C118 C120 1.391 . S
C119 C118 1.386 . S
C119 C123 1.393 . S
C120 H109 0.950 . S
C120 C118 1.391 . S
C120 C121 1.400 . S
C121 C115 1.491 . S
C121 C120 1.400 . S
C121 C122 1.398 . S
C122 H110 0.950 . S
C122 C121 1.398 . S
C122 C123 1.391 . S
C123 H111 0.950 . S
C123 C119 1.393 . S
C123 C122 1.391 . S
H124 C132 0.950 1_455 S
H125 C137 0.950 . S
H126 C134 0.950 . S
H127 C136 0.950 . S
H128 C138 0.950 . S
H129 C140 0.950 . S
H130 C142 0.950 . S
H131 C143 0.950 . S
C132 H124 0.950 1_655 S
C132 C133 1.386 . S
C132 C134 1.391 . S
C133 C132 1.386 . S
C133 C137 1.393 . S
C134 H126 0.950 . S
C134 C132 1.391 . S
C134 C135 1.400 . S
C135 C134 1.400 . S
C135 C136 1.398 . S
C135 C141 1.491 . S
C136 H127 0.950 . S
C136 C135 1.398 . S
C136 C137 1.391 . S
C137 H125 0.950 . S
C137 C133 1.393 . S
C137 C136 1.391 . S
C138 H128 0.950 . S
C138 C139 1.386 . S
C138 C140 1.391 . S
C139 C138 1.386 . S
C139 C143 1.393 . S
C140 H129 0.950 . S
C140 C138 1.391 . S
C140 C141 1.400 . S
C141 C135 1.491 . S
C141 C140 1.400 . S
C141 C142 1.398 . S
C142 H130 0.950 . S
C142 C141 1.398 . S
C142 C143 1.391 . S
C143 H131 0.950 . S
C143 C139 1.393 . S
C143 C142 1.391 . S
H144 C152 0.950 . S
H145 C157 0.950 . S
H146 C154 0.950 . S
H147 C156 0.950 . S
H148 C158 0.950 . S
H149 C160 0.950 . S
H150 C162 0.950 . S
H151 C163 0.950 . S
C152 H144 0.950 . S
C152 C153 1.386 . S
C152 C154 1.391 . S
C153 C152 1.386 . S
C153 C157 1.393 . S
C154 H146 0.950 . S
C154 C152 1.391 . S
C154 C155 1.400 . S
C155 C154 1.400 . S
C155 C156 1.398 . S
C155 C161 1.491 . S
C156 H147 0.950 . S
C156 C155 1.398 . S
C156 C157 1.391 . S
C157 H145 0.950 . S
C157 C153 1.393 . S
C157 C156 1.391 . S
C158 H148 0.950 . S
C158 C159 1.386 . S
C158 C160 1.391 . S
C159 C158 1.386 . S
C159 C163 1.393 . S
C160 H149 0.950 . S
C160 C158 1.391 . S
C160 C161 1.400 . S
C161 C155 1.491 . S
C161 C160 1.400 . S
C161 C162 1.398 . S
C162 H150 0.950 . S
C162 C161 1.398 . S
C162 C163 1.391 . S
C163 H151 0.950 . S
C163 C159 1.393 . S
C163 C162 1.391 . S
H164 C172 0.950 . S
H165 C177 0.950 . S
H166 C174 0.950 . S
H167 C176 0.950 . S
H168 C178 0.950 . S
H169 C180 0.950 . S
H170 C182 0.950 . S
H171 C183 0.950 . S
C172 H164 0.950 . S
C172 C173 1.386 . S
C172 C174 1.391 . S
C173 C172 1.386 . S
C173 C177 1.393 . S
C174 H166 0.950 . S
C174 C172 1.391 . S
C174 C175 1.400 . S
C175 C174 1.400 . S
C175 C176 1.398 . S
C175 C181 1.491 . S
C176 H167 0.950 . S
C176 C175 1.398 . S
C176 C177 1.391 . S
C177 H165 0.950 . S
C177 C173 1.393 . S
C177 C176 1.391 . S
C178 H168 0.950 . S
C178 C179 1.386 . S
C178 C180 1.391 . S
C179 C178 1.386 . S
C179 C183 1.393 . S
C180 H169 0.950 . S
C180 C178 1.391 . S
C180 C181 1.400 . S
C181 C175 1.491 . S
C181 C180 1.400 . S
C181 C182 1.398 . S
C182 H170 0.950 . S
C182 C181 1.398 . S
C182 C183 1.391 . S
C183 H171 0.950 . S
C183 C179 1.393 . S
C183 C182 1.391 . S
H184 C192 0.950 . S
H185 C197 0.950 . S
H186 C194 0.950 . S
H187 C196 0.950 . S
H188 C198 0.950 . S
H189 C200 0.950 . S
H190 C202 0.950 . S
H191 C203 0.950 . S
C192 H184 0.950 . S
C192 C193 1.386 . S
C192 C194 1.391 . S
C193 C192 1.386 . S
C193 C197 1.393 . S
C194 H186 0.950 . S
C194 C192 1.391 . S
C194 C195 1.400 . S
C195 C194 1.400 . S
C195 C196 1.398 . S
C195 C201 1.491 . S
C196 H187 0.950 . S
C196 C195 1.398 . S
C196 C197 1.391 . S
C197 H185 0.950 . S
C197 C193 1.393 . S
C197 C196 1.391 . S
C198 H188 0.950 . S
C198 C199 1.386 . S
C198 C200 1.391 . S
C199 C198 1.386 . S
C199 C203 1.393 . S
C200 H189 0.950 . S
C200 C198 1.391 . S
C200 C201 1.400 . S
C201 C195 1.491 . S
C201 C200 1.400 . S
C201 C202 1.398 . S
C202 H190 0.950 . S
C202 C201 1.398 . S
C202 C203 1.391 . S
C203 H191 0.950 . S
C203 C199 1.393 . S
C203 C202 1.391 . S
H204 C212 0.950 . S
H205 C217 0.961 . S
H206 C214 0.950 . S
H207 C216 0.950 . S
H208 C218 0.950 . S
H209 C220 0.950 . S
H210 C222 0.950 . S
H211 C223 0.950 . S
C212 H204 0.950 . S
C212 C213 1.386 . S
C212 C214 1.391 . S
C213 C212 1.386 . S
C213 C217 1.386 1_545 S
C214 H206 0.950 . S
C214 C212 1.391 . S
C214 C215 1.400 . S
C215 C214 1.400 . S
C215 C216 1.398 1_545 S
C215 C221 1.491 . S
C216 H207 0.950 . S
C216 C215 1.398 1_565 S
C216 C217 1.386 . S
C217 H205 0.961 . S
C217 C213 1.386 1_565 S
C217 C216 1.386 . S
C218 H208 0.950 . S
C218 C219 1.386 1_565 S
C218 C220 1.391 . S
C219 C218 1.386 1_545 S
C219 C223 1.393 . S
C220 H209 0.950 . S
C220 C218 1.391 . S
C220 C221 1.400 1_565 S
C221 C215 1.491 . S
C221 C220 1.400 1_545 S
C221 C222 1.398 . S
C222 H210 0.950 . S
C222 C221 1.398 . S
C222 C223 1.391 . S
C223 H211 0.950 . S
C223 C219 1.393 . S
C223 C222 1.391 . S
H224 C232 0.950 . S
H225 C237 0.950 1_545 S
H226 C234 0.950 . S
H227 C236 0.950 . S
H228 C238 0.950 . S
H229 C240 0.950 . S
H230 C242 0.950 . S
H231 C243 0.950 . S
C232 H224 0.950 . S
C232 C233 1.386 . S
C232 C234 1.391 . S
C233 C232 1.386 . S
C233 C237 1.392 1_554 S
C234 H226 0.950 . S
C234 C232 1.391 . S
C234 C235 1.400 1_554 S
C235 C234 1.400 1_556 S
C235 C236 1.398 . S
C235 C241 1.491 . S
C236 H227 0.950 . S
C236 C235 1.398 . S
C236 C237 1.391 . S
C237 H225 0.950 1_565 S
C237 C233 1.392 1_556 S
C237 C236 1.391 . S
C238 H228 0.950 . S
C238 C239 1.386 . S
C238 C240 1.391 . S
C239 C238 1.386 . S
C239 C243 1.393 . S
C240 H229 0.950 . S
C240 C238 1.391 . S
C240 C241 1.400 . S
C241 C235 1.491 . S
C241 C240 1.400 . S
C241 C242 1.398 . S
C242 H230 0.950 . S
C242 C241 1.398 . S
C242 C243 1.391 . S
C243 H231 0.950 . S
C243 C239 1.393 . S
C243 C242 1.391 . S
H244 C252 0.950 . S
H245 C257 0.950 . S
H246 C254 0.950 . S
H247 C256 0.950 . S
H248 C258 0.950 1_655 S
H249 C260 0.950 1_655 S
H250 C262 0.950 . S
H251 C263 0.950 . S
C252 H244 0.950 . S
C252 C253 1.386 . S
C252 C254 1.391 . S
C253 C252 1.386 . S
C253 C257 1.393 1_455 S
C254 H246 0.950 . S
C254 C252 1.391 . S
C254 C255 1.400 . S
C255 C254 1.400 . S
C255 C256 1.398 1_455 S
C255 C261 1.491 . S
C256 H247 0.950 . S
C256 C255 1.398 1_655 S
C256 C257 1.391 . S
C257 H245 0.950 . S
C257 C253 1.393 1_655 S
C257 C256 1.391 . S
C258 H248 0.950 1_455 S
C258 C259 1.386 . S
C258 C260 1.391 . S
C259 C258 1.386 . S
C259 C263 1.393 . S
C260 H249 0.950 1_455 S
C260 C258 1.391 . S
C260 C261 1.400 . S
C261 C255 1.491 . S
C261 C260 1.400 . S
C261 C262 1.398 . S
C262 H250 0.950 . S
C262 C261 1.398 . S
C262 C263 1.391 . S
C263 H251 0.950 . S
C263 C259 1.393 . S
C263 C262 1.391 . S
H264 C272 0.950 . S
H265 C277 0.950 . S
H266 C274 0.950 . S
H267 C276 0.950 . S
H268 C278 0.950 . S
H269 C280 0.950 . S
H270 C282 0.950 . S
H271 C283 0.932 1_565 S
C272 H264 0.950 . S
C272 C273 1.386 1_565 S
C272 C274 1.391 . S
C273 C272 1.386 1_545 S
C273 C277 1.393 . S
C274 H266 0.950 . S
C274 C272 1.391 . S
C274 C275 1.400 1_565 S
C275 C274 1.400 1_545 S
C275 C276 1.398 . S
C275 C281 1.491 . S
C276 H267 0.950 . S
C276 C275 1.398 . S
C276 C277 1.391 . S
C277 H265 0.950 . S
C277 C273 1.393 . S
C277 C276 1.391 . S
C278 H268 0.950 . S
C278 C279 1.386 . S
C278 C280 1.391 . S
C279 C278 1.386 . S
C279 C283 1.405 . S
C280 H269 0.950 . S
C280 C278 1.391 . S
C280 C281 1.400 . S
C281 C275 1.491 . S
C281 C280 1.400 . S
C281 C282 1.398 1_545 S
C282 H270 0.950 . S
C282 C281 1.398 1_565 S
C282 C283 1.396 1_565 S
C283 H271 0.932 1_545 S
C283 C279 1.405 . S
C283 C282 1.396 1_545 S
H284 C292 0.950 . S
H285 C297 0.950 . S
H286 C294 0.950 . S
H287 C296 0.950 . S
H288 C298 0.950 . S
H289 C300 0.950 . S
H290 C302 0.950 . S
H291 C303 0.950 . S
C292 H284 0.950 . S
C292 C293 1.386 1_556 S
C292 C294 1.391 . S
C293 C292 1.386 1_554 S
C293 C297 1.393 . S
C294 H286 0.950 . S
C294 C292 1.391 . S
C294 C295 1.400 . S
C295 C294 1.400 . S
C295 C296 1.398 1_556 S
C295 C301 1.491 . S
C296 H287 0.950 . S
C296 C295 1.398 1_554 S
C296 C297 1.391 . S
C297 H285 0.950 . S
C297 C293 1.393 . S
C297 C296 1.391 . S
C298 H288 0.950 . S
C298 C299 1.386 . S
C298 C300 1.391 . S
C299 C298 1.386 . S
C299 C303 1.393 . S
C300 H289 0.950 . S
C300 C298 1.391 . S
C300 C301 1.400 . S
C301 C295 1.491 . S
C301 C300 1.400 . S
C301 C302 1.398 . S
C302 H290 0.950 . S
C302 C301 1.398 . S
C302 C303 1.391 . S
C303 H291 0.950 . S
C303 C299 1.393 . S
C303 C302 1.391 . S
H304 C312 0.950 . S
H305 C317 0.950 . S
H306 C314 0.950 . S
H307 C316 0.950 . S
H308 C318 0.950 . S
H309 C320 0.950 . S
H310 C322 0.950 . S
H311 C323 0.950 . S
C312 H304 0.950 . S
C312 C313 1.386 . S
C312 C314 1.391 . S
C313 C312 1.386 . S
C313 C317 1.393 . S
C314 H306 0.950 . S
C314 C312 1.391 . S
C314 C315 1.400 . S
C315 C314 1.400 . S
C315 C316 1.398 . S
C315 C321 1.491 . S
C316 H307 0.950 . S
C316 C315 1.398 . S
C316 C317 1.391 . S
C317 H305 0.950 . S
C317 C313 1.393 . S
C317 C316 1.391 . S
C318 H308 0.950 . S
C318 C319 1.386 . S
C318 C320 1.391 . S
C319 C318 1.386 . S
C319 C323 1.393 . S
C320 H309 0.950 . S
C320 C318 1.391 . S
C320 C321 1.400 . S
C321 C315 1.491 . S
C321 C320 1.400 . S
C321 C322 1.398 . S
C322 H310 0.950 . S
C322 C321 1.398 . S
C322 C323 1.391 . S
C323 H311 0.950 . S
C323 C319 1.393 . S
C323 C322 1.391 . S
C99 C43 1.334 . S
C93 C11 1.323 . S
C113 C25 1.375 . S
C119 C69 1.394 . S
C133 C41 1.360 . S
C139 C71 1.418 . S
C153 C7 1.370 . S
C159 C55 1.374 . S
C179 C57 1.430 . S
C173 C21 1.431 . S
C193 C36 1.373 . S
C199 C83 1.442 . S
C219 C56 1.386 . S
C213 C39 1.362 . S
C233 C8 1.391 1_655 S
C239 C82 1.442 . S
C259 C42 1.499 . S
C253 C22 1.444 1_565 S
C279 C68 1.423 . S
C273 C35 1.426 . S
C299 C70 1.416 . S
C293 C13 1.366 . S
C313 C27 1.413 . S
C319 C54 1.455 . S
