# Generated by pormake.
# Topology zzz, (3,6)-cn, num edge types: 1
# Building blocks:
#     Node 0, Type 0, BuildingBlock: OLANEW_clean_sbu_2, # of connection points: 3
#     Node 1, Type 0, BuildingBlock: OLANEW_clean_sbu_2, # of connection points: 3
#     Node 2, Type 0, BuildingBlock: OLANEW_clean_sbu_2, # of connection points: 3
#     Node 3, Type 0, BuildingBlock: OLANEW_clean_sbu_2, # of connection points: 3
#     Node 4, Type 0, BuildingBlock: OLANEW_clean_sbu_2, # of connection points: 3
#     Node 5, Type 0, BuildingBlock: OLANEW_clean_sbu_2, # of connection points: 3
#     Node 6, Type 0, BuildingBlock: OLANEW_clean_sbu_2, # of connection points: 3
#     Node 7, Type 0, BuildingBlock: OLANEW_clean_sbu_2, # of connection points: 3
#     Node 8, Type 1, BuildingBlock: FUNLAD_clean_sbu_0, # of connection points: 6
#     Node 9, Type 1, BuildingBlock: FUNLAD_clean_sbu_0, # of connection points: 6
#     Node 10, Type 1, BuildingBlock: FUNLAD_clean_sbu_0, # of connection points: 6
#     Node 11, Type 1, BuildingBlock: FUNLAD_clean_sbu_0, # of connection points: 6
#     Edge 12, Type (0, 1), BuildingBlock: XIVTED_clean_linker_0, # of connection points: 2
#     Edge 13, Type (0, 1), BuildingBlock: XIVTED_clean_linker_0, # of connection points: 2
#     Edge 14, Type (0, 1), BuildingBlock: XIVTED_clean_linker_0, # of connection points: 2
#     Edge 15, Type (0, 1), BuildingBlock: XIVTED_clean_linker_0, # of connection points: 2
#     Edge 16, Type (0, 1), BuildingBlock: XIVTED_clean_linker_0, # of connection points: 2
#     Edge 17, Type (0, 1), BuildingBlock: XIVTED_clean_linker_0, # of connection points: 2
#     Edge 18, Type (0, 1), BuildingBlock: XIVTED_clean_linker_0, # of connection points: 2
#     Edge 19, Type (0, 1), BuildingBlock: XIVTED_clean_linker_0, # of connection points: 2
#     Edge 20, Type (0, 1), BuildingBlock: XIVTED_clean_linker_0, # of connection points: 2
#     Edge 21, Type (0, 1), BuildingBlock: XIVTED_clean_linker_0, # of connection points: 2
#     Edge 22, Type (0, 1), BuildingBlock: XIVTED_clean_linker_0, # of connection points: 2
#     Edge 23, Type (0, 1), BuildingBlock: XIVTED_clean_linker_0, # of connection points: 2
#     Edge 24, Type (0, 1), BuildingBlock: XIVTED_clean_linker_0, # of connection points: 2
#     Edge 25, Type (0, 1), BuildingBlock: XIVTED_clean_linker_0, # of connection points: 2
#     Edge 26, Type (0, 1), BuildingBlock: XIVTED_clean_linker_0, # of connection points: 2
#     Edge 27, Type (0, 1), BuildingBlock: XIVTED_clean_linker_0, # of connection points: 2
#     Edge 28, Type (0, 1), BuildingBlock: XIVTED_clean_linker_0, # of connection points: 2
#     Edge 29, Type (0, 1), BuildingBlock: XIVTED_clean_linker_0, # of connection points: 2
#     Edge 30, Type (0, 1), BuildingBlock: XIVTED_clean_linker_0, # of connection points: 2
#     Edge 31, Type (0, 1), BuildingBlock: XIVTED_clean_linker_0, # of connection points: 2
#     Edge 32, Type (0, 1), BuildingBlock: XIVTED_clean_linker_0, # of connection points: 2
#     Edge 33, Type (0, 1), BuildingBlock: XIVTED_clean_linker_0, # of connection points: 2
#     Edge 34, Type (0, 1), BuildingBlock: XIVTED_clean_linker_0, # of connection points: 2
#     Edge 35, Type (0, 1), BuildingBlock: XIVTED_clean_linker_0, # of connection points: 2
# Relax obj value: 0.111
# Max RMSD: 0.173
# Mean RMSD: 0.095
data_MOF--net-zzz--node1-OLANEW_clean_sbu_2--node2-FUNLAD_clean_sbu_0--edge1-XIVTED_clean_linker_0
_symmetry_space_group_name_H-M    P1
_symmetry_Int_Tables_number       1
_symmetry_cell_setting            triclinic
loop_
_symmetry_equiv_pos_as_xyz
'x, y, z'
_cell_length_a     54.549203
_cell_length_b     59.669141
_cell_length_c     19.14239
_cell_angle_alpha  85.748299
_cell_angle_beta   85.806983
_cell_angle_gamma 90.400518
loop_
_atom_site_label
_atom_site_type_symbol
_atom_site_fract_x
_atom_site_fract_y
_atom_site_fract_z
_atom_type_partial_charge
O0 O 0.83134 0.39809 0.02599 0.0
Cd1 Cd 0.79513 0.37591 0.0716 0.0
O2 O 0.84357 0.40126 0.13176 0.0
Cd3 Cd 0.86789 0.41596 0.20273 0.0
O4 O 0.89303 0.43157 0.26923 0.0
C5 C 0.89006 0.45169 0.28556 0.0
O6 O 0.87154 0.46319 0.26194 0.0
C7 C 0.84674 0.40551 0.06563 0.0
C8 C 0.75407 0.39055 0.00325 0.0
O9 O 0.76688 0.37421 0.98132 0.0
O10 O 0.76056 0.39971 0.05763 0.0
O11 O 0.88877 0.82451 0.83591 0.0
Cd12 Cd 0.86165 0.79207 0.86836 0.0
O13 O 0.89254 0.82772 0.94806 0.0
Cd14 Cd 0.90904 0.84345 0.03328 0.0
O15 O 0.92774 0.86746 0.0923 0.0
C16 C 0.91758 0.88605 0.10403 0.0
O17 O 0.89564 0.89007 0.08223 0.0
C18 C 0.89758 0.83484 0.88427 0.0
C19 C 0.88536 0.75148 0.84992 0.0
O20 O 0.8738 0.7613 0.80059 0.0
O21 O 0.88574 0.76089 0.90789 0.0
O22 O 0.72456 0.05863 0.93125 0.0
Cd23 Cd 0.76257 0.06718 0.98455 0.0
O24 O 0.70713 0.06138 0.03694 0.0
Cd25 Cd 0.67632 0.05592 0.11598 0.0
O26 O 0.64681 0.04666 0.19607 0.0
C27 C 0.64384 0.02618 0.21868 0.0
O28 O 0.65854 0.01104 0.19261 0.0
C29 C 0.70534 0.05748 0.97311 0.0
C30 C 0.80563 0.06301 0.89903 0.0
O31 O 0.7946 0.04569 0.93067 0.0
O32 O 0.79604 0.08232 0.90652 0.0
O33 O 0.62641 0.66771 0.87302 0.0
Cd34 Cd 0.65131 0.69862 0.90732 0.0
O35 O 0.61391 0.65996 0.98373 0.0
Cd36 Cd 0.59584 0.63762 0.06783 0.0
O37 O 0.58049 0.61293 0.14929 0.0
C38 C 0.59353 0.59673 0.1717 0.0
O39 O 0.61627 0.59508 0.14499 0.0
C40 C 0.61351 0.65572 0.91973 0.0
C41 C 0.62778 0.73964 0.88791 0.0
O42 O 0.64198 0.73221 0.83872 0.0
O43 O 0.62475 0.72766 0.94637 0.0
O44 O 0.21129 0.64465 0.44832 0.0
Cd45 Cd 0.25062 0.66219 0.40627 0.0
O46 O 0.21304 0.62553 0.35452 0.0
Cd47 Cd 0.197 0.60257 0.2858 0.0
O48 O 0.17431 0.58411 0.21964 0.0
C49 C 0.15134 0.58776 0.22335 0.0
O50 O 0.14234 0.60202 0.26737 0.0
C51 C 0.20218 0.62988 0.41296 0.0
C52 C 0.28784 0.63569 0.4591 0.0
O53 O 0.2789 0.63187 0.401 0.0
O54 O 0.27956 0.65242 0.49154 0.0
O55 O 0.13572 0.21303 0.55818 0.0
Cd56 Cd 0.16329 0.24545 0.53016 0.0
O57 O 0.14522 0.20146 0.45358 0.0
Cd58 Cd 0.14429 0.17663 0.37521 0.0
O59 O 0.13384 0.1531 0.30034 0.0
C60 C 0.12685 0.13307 0.31958 0.0
O61 O 0.12675 0.12596 0.38622 0.0
C62 C 0.13313 0.19876 0.51305 0.0
C63 C 0.14262 0.28556 0.57095 0.0
O64 O 0.13956 0.2786 0.51038 0.0
O65 O 0.15539 0.27347 0.61259 0.0
O66 O 0.29557 0.88656 0.61086 0.0
Cd67 Cd 0.25606 0.87116 0.58431 0.0
O68 O 0.30026 0.90475 0.5067 0.0
Cd69 Cd 0.32242 0.92437 0.42344 0.0
O70 O 0.34871 0.9391 0.34087 0.0
C71 C 0.37023 0.93106 0.33581 0.0
O72 O 0.37587 0.91456 0.38095 0.0
C73 C 0.30823 0.89963 0.56654 0.0
C74 C 0.218 0.90136 0.60595 0.0
O75 O 0.22445 0.8878 0.65624 0.0
O76 O 0.22961 0.90066 0.54547 0.0
O77 O 0.39766 0.29533 0.56057 0.0
Cd78 Cd 0.37304 0.26262 0.53839 0.0
O79 O 0.38883 0.31221 0.45987 0.0
Cd80 Cd 0.39315 0.33932 0.37608 0.0
O81 O 0.40326 0.36523 0.29195 0.0
C82 C 0.42512 0.37301 0.28682 0.0
O83 O 0.44043 0.36548 0.33276 0.0
C84 C 0.39966 0.31236 0.51651 0.0
C85 C 0.39486 0.2225 0.58355 0.0
O86 O 0.39959 0.23146 0.52102 0.0
O87 O 0.37977 0.23253 0.62487 0.0
C88 C 0.00207 0.97206 0.75113 0.0
N89 N 0.01151 0.00095 0.54513 0.0
C90 C 0.01877 0.98005 0.52924 0.0
C91 C 0.01208 0.97123 0.46798 0.0
C92 C 0.99766 0.98396 0.4223 0.0
C93 C 0.99116 0.00584 0.43856 0.0
C94 C 0.99836 0.01407 0.50063 0.0
Zn95 Zn 0.01832 0.01029 0.64249 0.0
C96 C 0.97531 0.03109 0.71421 0.0
N97 N 0.03252 0.02553 0.84998 0.0
C98 C 0.04656 0.013 0.89369 0.0
C99 C 0.02594 0.04681 0.86374 0.0
C100 C 0.0347 0.05676 0.9206 0.0
C101 C 0.0506 0.04486 0.96375 0.0
C102 C 0.05582 0.02239 0.95152 0.0
Zn103 Zn 0.02499 0.01583 0.75325 0.0
O104 O 0.00455 0.9785 0.68616 0.0
C105 C 0.06772 0.99436 0.68173 0.0
O106 O 0.00915 0.98493 0.79599 0.0
H107 H 0.01505 0.05667 0.82816 0.0
H108 H 0.02893 0.96974 0.56563 0.0
H109 H 0.05172 0.99617 0.88159 0.0
O110 O 0.05421 0.99716 0.63059 0.0
O111 O 0.05998 0.00049 0.74151 0.0
H112 H 0.99274 0.03063 0.51439 0.0
O113 O 0.04055 0.04658 0.7092 0.0
O114 O 0.0322 0.04236 0.60061 0.0
O115 O 0.98984 0.03069 0.76317 0.0
O116 O 0.98227 0.02326 0.65616 0.0
C117 C 0.04115 0.0542 0.6454 0.0
H118 H 0.01714 0.95415 0.45846 0.0
H119 H 0.9802 0.01628 0.4045 0.0
H120 H 0.0299 0.074 0.9289 0.0
H121 H 0.06808 0.01268 0.98359 0.0
C122 C 0.46457 0.9629 0.71868 0.0
N123 N 0.48348 0.02932 0.7517 0.0
C124 C 0.47498 0.03477 0.68765 0.0
C125 C 0.46612 0.05621 0.6712 0.0
C126 C 0.46595 0.07232 0.72105 0.0
C127 C 0.47441 0.06617 0.78733 0.0
C128 C 0.48323 0.04445 0.80157 0.0
Zn129 Zn 0.49749 0.99784 0.76865 0.0
C130 C 0.48053 0.97514 0.90617 0.0
N131 N 0.52681 0.93191 0.79497 0.0
C132 C 0.52661 0.91772 0.74257 0.0
C133 C 0.53662 0.92565 0.85668 0.0
C134 C 0.54692 0.90443 0.86733 0.0
C135 C 0.54717 0.8895 0.8139 0.0
C136 C 0.53674 0.89635 0.75094 0.0
Zn137 Zn 0.51266 0.96335 0.78028 0.0
O138 O 0.46678 0.98391 0.72401 0.0
C139 C 0.52961 0.98611 0.64293 0.0
O140 O 0.48134 0.94987 0.73915 0.0
H141 H 0.53667 0.93723 0.89756 0.0
H142 H 0.47523 0.0225 0.64879 0.0
H143 H 0.51865 0.92301 0.694 0.0
O144 O 0.51692 0.00169 0.66861 0.0
O145 O 0.53088 0.96734 0.67832 0.0
H146 H 0.49013 0.03976 0.8521 0.0
O147 O 0.54387 0.97724 0.82057 0.0
O148 O 0.52859 0.0112 0.81333 0.0
O149 O 0.49423 0.95989 0.88223 0.0
O150 O 0.47826 0.99349 0.86905 0.0
C151 C 0.54596 0.99807 0.82896 0.0
H152 H 0.45937 0.06008 0.61992 0.0
H153 H 0.47472 0.07813 0.82714 0.0
H154 H 0.55502 0.89996 0.91635 0.0
H155 H 0.53626 0.88528 0.70873 0.0
C156 C 0.48763 0.44662 0.66479 0.0
N157 N 0.45663 0.50979 0.69598 0.0
C158 C 0.44892 0.50883 0.63027 0.0
C159 C 0.42891 0.52137 0.60954 0.0
C160 C 0.41646 0.53501 0.65691 0.0
C161 C 0.42441 0.53524 0.72514 0.0
C162 C 0.44468 0.52247 0.74362 0.0
Zn163 Zn 0.48811 0.4932 0.71807 0.0
C164 C 0.48531 0.46694 0.85281 0.0
N165 N 0.55515 0.45893 0.75083 0.0
C166 C 0.56969 0.44797 0.70384 0.0
C167 C 0.56212 0.46152 0.81659 0.0
C168 C 0.58454 0.45349 0.83695 0.0
C169 C 0.60034 0.44276 0.78925 0.0
C170 C 0.59251 0.43961 0.72221 0.0
Zn171 Zn 0.52302 0.47443 0.72757 0.0
O172 O 0.4753 0.46443 0.67208 0.0
C173 C 0.52554 0.50081 0.59295 0.0
O174 O 0.50936 0.44556 0.68483 0.0
H175 H 0.5505 0.47037 0.85326 0.0
H176 H 0.45874 0.49876 0.593 0.0
H177 H 0.56385 0.44618 0.65171 0.0
O178 O 0.50453 0.50599 0.61961 0.0
O179 O 0.53852 0.48681 0.62693 0.0
H180 H 0.45114 0.523 0.79557 0.0
O181 O 0.53628 0.50356 0.76879 0.0
O182 O 0.50168 0.52184 0.76415 0.0
O183 O 0.50679 0.46237 0.82799 0.0
O184 O 0.47205 0.48012 0.81688 0.0
C185 C 0.52401 0.52115 0.77891 0.0
H186 H 0.4238 0.52091 0.55606 0.0
H187 H 0.4152 0.54529 0.7637 0.0
H188 H 0.58955 0.45587 0.88965 0.0
H189 H 0.60419 0.43143 0.68384 0.0
C190 C 0.05933 0.54403 0.66046 0.0
N191 N 0.05431 0.47549 0.72906 0.0
C192 C 0.06307 0.47184 0.66254 0.0
C193 C 0.07391 0.45147 0.64796 0.0
C194 C 0.07567 0.43449 0.70215 0.0
C195 C 0.06725 0.43896 0.77087 0.0
C196 C 0.05655 0.4597 0.78321 0.0
Zn197 Zn 0.03518 0.50444 0.7428 0.0
C198 C 0.04951 0.52893 0.86114 0.0
N199 N 0.99362 0.56432 0.76214 0.0
C200 C 0.99093 0.57895 0.70531 0.0
C201 C 0.98419 0.56883 0.82731 0.0
C202 C 0.97167 0.58879 0.83733 0.0
C203 C 0.96886 0.60436 0.77978 0.0
C204 C 0.97859 0.59915 0.71298 0.0
Zn205 Zn 0.01301 0.5355 0.75023 0.0
O206 O 0.06184 0.5231 0.67532 0.0
C207 C 0.99864 0.51069 0.63224 0.0
O208 O 0.04036 0.55378 0.68532 0.0
H209 H 0.98653 0.55697 0.87179 0.0
H210 H 0.06106 0.48454 0.62011 0.0
H211 H 0.99864 0.57507 0.65401 0.0
O212 O 0.01504 0.49785 0.65608 0.0
O213 O 0.99377 0.5288 0.66118 0.0
H214 H 0.04938 0.46291 0.83566 0.0
O215 O 0.9859 0.5169 0.8145 0.0
O216 O 0.00807 0.48638 0.8107 0.0
O217 O 0.03253 0.54158 0.83943 0.0
O218 O 0.055 0.5114 0.82969 0.0
C219 C 0.9886 0.49616 0.8321 0.0
H220 H 0.08057 0.44896 0.59445 0.0
H221 H 0.06808 0.42631 0.81419 0.0
H222 H 0.96417 0.59193 0.8896 0.0
H223 H 0.97716 0.61074 0.66724 0.0
H224 H 0.1964 0.9285 0.50712 0.0
H225 H 0.09788 0.97877 0.78275 0.0
H226 H 0.19272 0.90991 0.72997 0.0
H227 H 0.09197 0.98406 0.55844 0.0
H228 H 0.13594 0.95773 0.76508 0.0
H229 H 0.1613 0.95312 0.52594 0.0
C230 C 0.18829 0.92967 0.56007 0.0
C231 C 0.19742 0.91702 0.61702 0.0
C232 C 0.12634 0.9636 0.71978 0.0
C233 C 0.15726 0.94523 0.63893 0.0
C234 C 0.10468 0.97568 0.72978 0.0
C235 C 0.09165 0.98309 0.67201 0.0
C236 C 0.13513 0.95906 0.6515 0.0
C237 C 0.10132 0.97858 0.60456 0.0
C238 C 0.16821 0.9437 0.57075 0.0
C239 C 0.18618 0.91925 0.68449 0.0
N240 N 0.12243 0.96683 0.5962 0.0
N241 N 0.16667 0.93306 0.69357 0.0
H242 H 0.38836 0.19888 0.7122 0.0
H243 H 0.47539 0.09834 0.59822 0.0
H244 H 0.42744 0.19729 0.50824 0.0
H245 H 0.43658 0.09889 0.80278 0.0
H246 H 0.45907 0.13532 0.56645 0.0
H247 H 0.40686 0.16303 0.74841 0.0
C248 C 0.40087 0.19103 0.67507 0.0
C249 C 0.40629 0.20108 0.60697 0.0
C250 C 0.45414 0.12742 0.61839 0.0
C251 C 0.42752 0.16006 0.6481 0.0
C252 C 0.46336 0.10623 0.63646 0.0
C253 C 0.45716 0.09539 0.70307 0.0
C254 C 0.43849 0.13794 0.66715 0.0
C255 C 0.44193 0.10667 0.75098 0.0
C256 C 0.41143 0.17057 0.69581 0.0
C257 C 0.42266 0.19016 0.56117 0.0
N258 N 0.433 0.12729 0.73194 0.0
N259 N 0.43263 0.17024 0.58252 0.0
H260 H 0.30389 0.59561 0.41367 0.0
H261 H 0.40572 0.57803 0.69084 0.0
H262 H 0.3145 0.6418 0.57237 0.0
H263 H 0.38072 0.52528 0.56944 0.0
H264 H 0.37389 0.60246 0.64512 0.0
H265 H 0.33418 0.57072 0.46514 0.0
C266 C 0.31265 0.60056 0.45922 0.0
C267 C 0.30667 0.62083 0.48874 0.0
C268 C 0.37532 0.58549 0.62883 0.0
C269 C 0.34136 0.59238 0.54799 0.0
C270 C 0.39339 0.57145 0.6553 0.0
C271 C 0.39606 0.54954 0.63376 0.0
C272 C 0.35993 0.57765 0.58002 0.0
C273 C 0.37974 0.54215 0.58655 0.0
C274 C 0.32986 0.58629 0.4888 0.0
C275 C 0.31855 0.62633 0.54795 0.0
N276 N 0.36251 0.55621 0.56098 0.0
N277 N 0.3354 0.61221 0.57552 0.0
H278 H 0.11319 0.31385 0.49653 0.0
H279 H 0.10569 0.40676 0.7787 0.0
H280 H 0.14786 0.3063 0.69239 0.0
H281 H 0.06724 0.41084 0.58899 0.0
H282 H 0.12139 0.37 0.74911 0.0
H283 H 0.09645 0.34962 0.53013 0.0
C284 C 0.11726 0.3197 0.54671 0.0
C285 C 0.13199 0.30706 0.59165 0.0
C286 C 0.10951 0.37897 0.71402 0.0
C287 C 0.11288 0.34813 0.63053 0.0
C288 C 0.10046 0.39991 0.73104 0.0
C289 C 0.08527 0.41203 0.68601 0.0
C290 C 0.1033 0.37007 0.65158 0.0
C291 C 0.07929 0.40237 0.62462 0.0
C292 C 0.10767 0.34015 0.56592 0.0
C293 C 0.1366 0.31549 0.65609 0.0
N294 N 0.08833 0.38204 0.60924 0.0
N295 N 0.12713 0.33554 0.67354 0.0
H296 H 0.8422 0.09462 0.87202 0.0
H297 H 0.93393 0.01709 0.65702 0.0
H298 H 0.82337 0.02637 0.83503 0.0
H299 H 0.95908 0.06255 0.80243 0.0
H300 H 0.89129 0.02686 0.69176 0.0
H301 H 0.88343 0.08926 0.81583 0.0
C302 C 0.84661 0.07865 0.85104 0.0
C303 C 0.82947 0.06084 0.85856 0.0
C304 C 0.90623 0.03487 0.71517 0.0
C305 C 0.87623 0.0548 0.79369 0.0
C306 C 0.93048 0.02944 0.69518 0.0
C307 C 0.94995 0.03896 0.72731 0.0
C308 C 0.90157 0.0503 0.76623 0.0
C309 C 0.94453 0.05474 0.77686 0.0
C310 C 0.87011 0.07561 0.81938 0.0
C311 C 0.83615 0.04045 0.83077 0.0
N312 N 0.92081 0.05995 0.79482 0.0
N313 N 0.85905 0.03797 0.79942 0.0
H314 H 0.59707 0.76028 0.98229 0.0
H315 H 0.5761 0.86772 0.71789 0.0
H316 H 0.63005 0.76866 0.76985 0.0
H317 H 0.54431 0.86014 0.93167 0.0
H318 H 0.59511 0.83099 0.73504 0.0
H319 H 0.57691 0.79646 0.96411 0.0
C320 C 0.60007 0.76972 0.93179 0.0
C321 C 0.61531 0.76144 0.87754 0.0
C322 C 0.58396 0.83734 0.77821 0.0
C323 C 0.59227 0.80289 0.85635 0.0
C324 C 0.57296 0.85826 0.76831 0.0
C325 C 0.55857 0.86705 0.82343 0.0
C326 C 0.58055 0.82504 0.84371 0.0
C327 C 0.55551 0.85417 0.88798 0.0
C328 C 0.58855 0.79039 0.92145 0.0
C329 C 0.61849 0.77439 0.8132 0.0
N330 N 0.56639 0.83383 0.89632 0.0
N331 N 0.60708 0.79447 0.80442 0.0
H332 H 0.72782 0.42846 0.02504 0.0
H333 H 0.62447 0.40325 0.76564 0.0
H334 H 0.73122 0.37144 0.89855 0.0
H335 H 0.6323 0.46605 0.86054 0.0
H336 H 0.66331 0.3908 0.81228 0.0
H337 H 0.69204 0.44178 0.96599 0.0
C338 C 0.72103 0.41872 0.98479 0.0
C339 C 0.73249 0.39877 0.96689 0.0
C340 C 0.65655 0.40735 0.82241 0.0
C341 C 0.69136 0.41394 0.89884 0.0
C342 C 0.63447 0.4145 0.79554 0.0
C343 C 0.62493 0.43557 0.81022 0.0
C344 C 0.66904 0.42139 0.86423 0.0
C345 C 0.63862 0.44944 0.84941 0.0
C346 C 0.70062 0.42639 0.95081 0.0
C347 C 0.72292 0.38692 0.914 0.0
N348 N 0.6598 0.44204 0.87545 0.0
N349 N 0.7028 0.39462 0.88207 0.0
H350 H 0.91328 0.72754 0.94176 0.0
H351 H 0.93739 0.6265 0.69338 0.0
H352 H 0.88575 0.72608 0.73635 0.0
H353 H 0.97141 0.63169 0.88834 0.0
H354 H 0.91724 0.66235 0.70984 0.0
H355 H 0.93349 0.69172 0.92505 0.0
C356 C 0.91148 0.7197 0.89312 0.0
C357 C 0.8978 0.72984 0.84035 0.0
C358 C 0.92912 0.65564 0.74902 0.0
C359 C 0.92086 0.68878 0.82092 0.0
C360 C 0.94074 0.6352 0.73949 0.0
C361 C 0.95616 0.62601 0.78952 0.0
C362 C 0.93288 0.667 0.8091 0.0
C363 C 0.95942 0.63792 0.84885 0.0
C364 C 0.92305 0.69924 0.88358 0.0
C365 C 0.89612 0.71889 0.77841 0.0
N366 N 0.9479 0.65777 0.85695 0.0
N367 N 0.90749 0.69895 0.77046 0.0
H368 H 0.1036 0.1771 0.42837 0.0
H369 H 0.0604 0.08281 0.73176 0.0
H370 H 0.12566 0.17546 0.64042 0.0
H371 H 0.04818 0.07652 0.51362 0.0
H372 H 0.08073 0.11879 0.69976 0.0
H373 H 0.07983 0.14232 0.45918 0.0
C374 C 0.10376 0.16922 0.48109 0.0
C375 C 0.11731 0.1787 0.53133 0.0
C376 C 0.07361 0.10962 0.65874 0.0
C377 C 0.08953 0.13944 0.56752 0.0
C378 C 0.06194 0.089 0.67694 0.0
C379 C 0.05266 0.0765 0.62518 0.0
C380 C 0.07609 0.11799 0.58814 0.0
C381 C 0.05512 0.08556 0.55517 0.0
C382 C 0.08996 0.14953 0.49883 0.0
C383 C 0.11571 0.16855 0.5999 0.0
N384 N 0.06669 0.10577 0.5386 0.0
N385 N 0.10223 0.14939 0.61584 0.0
H386 H 0.34188 0.87786 0.64412 0.0
H387 H 0.42815 0.98596 0.65438 0.0
H388 H 0.3283 0.94151 0.5327 0.0
H389 H 0.4503 0.9188 0.72007 0.0
H390 H 0.3907 0.97035 0.61327 0.0
H391 H 0.38089 0.89294 0.67732 0.0
C392 C 0.34725 0.89496 0.62623 0.0
C393 C 0.33214 0.90835 0.58457 0.0
C394 C 0.40382 0.95903 0.63635 0.0
C395 C 0.37646 0.9258 0.6229 0.0
C396 C 0.42518 0.96793 0.65998 0.0
C397 C 0.44235 0.95366 0.6909 0.0
C398 C 0.39947 0.93572 0.64438 0.0
C399 C 0.43757 0.93042 0.69656 0.0
C400 C 0.36951 0.90353 0.64494 0.0
C401 C 0.33979 0.93043 0.56312 0.0
N402 N 0.4165 0.92219 0.67396 0.0
N403 N 0.36138 0.93852 0.58283 0.0
H404 H 0.44176 0.31247 0.58494 0.0
H405 H 0.44511 0.44581 0.59819 0.0
H406 H 0.39046 0.35685 0.48563 0.0
H407 H 0.50407 0.40322 0.66439 0.0
H408 H 0.42506 0.4133 0.55608 0.0
H409 H 0.46495 0.3453 0.61501 0.0
C410 C 0.43555 0.32915 0.56885 0.0
C411 C 0.41445 0.33199 0.53159 0.0
C412 C 0.44245 0.41105 0.5794 0.0
C413 C 0.44062 0.36954 0.56641 0.0
C414 C 0.45391 0.42962 0.60364 0.0
C415 C 0.47625 0.42721 0.63526 0.0
C416 C 0.45324 0.38981 0.58742 0.0
C417 C 0.48685 0.40583 0.64044 0.0
C418 C 0.4488 0.34785 0.58581 0.0
C419 C 0.40705 0.3539 0.51239 0.0
N420 N 0.47514 0.3879 0.61729 0.0
N421 N 0.42005 0.37183 0.53034 0.0
H422 H 0.1911 0.58558 0.40394 0.0
H423 H 0.06299 0.58971 0.63416 0.0
H424 H 0.16267 0.64593 0.48886 0.0
H425 H 0.09987 0.52816 0.58772 0.0
H426 H 0.09645 0.61108 0.56737 0.0
H427 H 0.1547 0.56491 0.45645 0.0
C428 C 0.17688 0.5946 0.43215 0.0
C429 C 0.17959 0.61759 0.44078 0.0
C430 C 0.09716 0.5929 0.57161 0.0
C431 C 0.13829 0.59391 0.5031 0.0
C432 C 0.07804 0.58067 0.60956 0.0
C433 C 0.07871 0.5571 0.61691 0.0
C434 C 0.117 0.58148 0.54035 0.0
C435 C 0.09866 0.54631 0.58381 0.0
C436 C 0.15627 0.58273 0.46301 0.0
C437 C 0.16116 0.62822 0.48071 0.0
N438 N 0.11704 0.55859 0.54707 0.0
N439 N 0.14124 0.61629 0.51038 0.0
H440 H 0.89933 0.87334 0.95262 0.0
H441 H 0.9943 0.93721 0.67063 0.0
H442 H 0.93139 0.84212 0.77227 0.0
H443 H 0.9809 0.95777 0.88141 0.0
H444 H 0.96994 0.90311 0.7042 0.0
H445 H 0.92737 0.90541 0.92494 0.0
C446 C 0.91274 0.873 0.90823 0.0
C447 C 0.91376 0.85469 0.86634 0.0
C448 C 0.9725 0.91497 0.74329 0.0
C449 C 0.94501 0.89182 0.832 0.0
C450 C 0.98639 0.93446 0.72419 0.0
C451 C 0.98956 0.95039 0.7733 0.0
C452 C 0.96137 0.91152 0.8117 0.0
C453 C 0.97896 0.9459 0.84197 0.0
C454 C 0.92851 0.89143 0.89189 0.0
C455 C 0.93025 0.85581 0.80642 0.0
N456 N 0.96509 0.92698 0.85897 0.0
N457 N 0.94524 0.87408 0.79097 0.0
H458 H 0.65958 0.07351 0.00766 0.0
H459 H 0.58993 0.9768 0.83382 0.0
H460 H 0.69741 0.02506 0.88417 0.0
H461 H 0.55489 0.0395 0.87658 0.0
H462 H 0.62871 0.99201 0.86689 0.0
H463 H 0.62021 0.05931 0.97341 0.0
C464 C 0.65955 0.05981 0.9736 0.0
C465 C 0.68166 0.05018 0.9494 0.0
C466 C 0.61254 0.00244 0.86901 0.0
C467 C 0.63692 0.03397 0.9101 0.0
C468 C 0.59034 0.99374 0.85063 0.0
C469 C 0.56912 0.00692 0.85244 0.0
C470 C 0.61352 0.02438 0.89042 0.0
C471 C 0.57082 0.02879 0.87429 0.0
C472 C 0.63715 0.05186 0.9537 0.0
C473 C 0.68072 0.03288 0.90397 0.0
N474 N 0.59265 0.03682 0.89282 0.0
N475 N 0.65868 0.02514 0.88636 0.0
H476 H 0.56731 0.6417 0.97052 0.0
H477 H 0.57322 0.52847 0.77822 0.0
H478 H 0.62721 0.62628 0.82285 0.0
H479 H 0.50353 0.55885 0.83343 0.0
H480 H 0.59434 0.56156 0.8126 0.0
H481 H 0.54449 0.60886 0.93769 0.0
C482 C 0.5757 0.63126 0.93168 0.0
C483 C 0.59927 0.63641 0.89997 0.0
C484 C 0.57443 0.56099 0.81723 0.0
C485 C 0.57343 0.59914 0.86238 0.0
C486 C 0.56232 0.54206 0.79806 0.0
C487 C 0.53653 0.54091 0.80292 0.0
C488 C 0.56074 0.57883 0.84262 0.0
C489 C 0.52343 0.55911 0.82869 0.0
C490 C 0.56261 0.61273 0.91258 0.0
C491 C 0.60911 0.62279 0.84862 0.0
N492 N 0.53571 0.57735 0.84805 0.0
N493 N 0.59625 0.60462 0.83193 0.0
H494 H 0.84634 0.43862 0.96048 0.0
H495 H 0.99079 0.45501 0.90538 0.0
H496 H 0.89457 0.40377 0.09933 0.0
H497 H 0.94057 0.50805 0.85139 0.0
H498 H 0.95625 0.43327 0.96684 0.0
H499 H 0.88132 0.46156 0.90791 0.0
C500 C 0.86432 0.43588 0.97992 0.0
C501 C 0.86763 0.41956 0.03473 0.0
C502 C 0.95293 0.44975 0.94191 0.0
C503 C 0.90763 0.44535 0.97443 0.0
C504 C 0.97255 0.46211 0.90676 0.0
C505 C 0.96851 0.48334 0.87324 0.0
C506 C 0.92911 0.45851 0.94205 0.0
C507 C 0.94453 0.49179 0.8767 0.0
C508 C 0.8842 0.44901 0.95026 0.0
C509 C 0.89126 0.41654 0.05802 0.0
N510 N 0.92569 0.47924 0.90979 0.0
N511 N 0.91048 0.42921 0.0273 0.0
H512 H 0.10747 0.09027 0.34279 0.0
H513 H 0.07217 0.08626 0.94567 0.0
H514 H 0.12493 0.14267 0.1784 0.0
H515 H 0.0585 0.03045 0.10059 0.0
H516 H 0.09208 0.10662 0.03161 0.0
H517 H 0.09023 0.0675 0.25634 0.0
C518 C 0.10783 0.09694 0.28853 0.0
C519 C 0.11759 0.11847 0.26787 0.0
C520 C 0.08478 0.08993 0.04715 0.0
C521 C 0.09782 0.09257 0.16902 0.0
C522 C 0.07323 0.07833 0.99813 0.0
C523 C 0.06332 0.05675 0.01634 0.0
C524 C 0.08647 0.07998 0.11536 0.0
C525 C 0.06585 0.04709 0.08453 0.0
C526 C 0.09797 0.08393 0.23928 0.0
C527 C 0.11754 0.12623 0.1969 0.0
N528 N 0.07705 0.05885 0.13189 0.0
N529 N 0.10773 0.11334 0.15027 0.0
H530 H 0.41571 0.91427 0.30145 0.0
H531 H 0.4437 0.00059 0.96382 0.0
H532 H 0.36582 0.96648 0.23774 0.0
H533 H 0.4847 0.93997 0.00454 0.0
H534 H 0.41815 0.99147 0.07285 0.0
H535 H 0.44425 0.92663 0.20155 0.0
C536 C 0.4108 0.92842 0.26671 0.0
C537 C 0.38824 0.93924 0.27774 0.0
C538 C 0.43283 0.98025 0.05806 0.0
C539 C 0.42089 0.9535 0.1632 0.0
C540 C 0.44749 0.98547 0.99597 0.0
C541 C 0.46628 0.97094 0.97476 0.0
C542 C 0.43709 0.96042 0.09948 0.0
C543 C 0.47032 0.95159 0.01855 0.0
C544 C 0.4271 0.93544 0.20957 0.0
C545 C 0.38293 0.95754 0.23102 0.0
N546 N 0.45581 0.94687 0.07867 0.0
N547 N 0.39911 0.96405 0.17568 0.0
H548 H 0.47184 0.38906 0.25252 0.0
H549 H 0.43756 0.46419 0.90985 0.0
H550 H 0.39793 0.39412 0.18659 0.0
H551 H 0.51143 0.44473 0.95195 0.0
H552 H 0.4223 0.44332 0.01989 0.0
H553 H 0.48616 0.41424 0.15129 0.0
C554 C 0.45857 0.39556 0.217 0.0
C555 C 0.43366 0.38931 0.22782 0.0
C556 C 0.44185 0.44375 0.00509 0.0
C557 C 0.44998 0.41823 0.11165 0.0
C558 C 0.45058 0.45573 0.94251 0.0
C559 C 0.47579 0.45608 0.92148 0.0
C560 C 0.4585 0.43227 0.04712 0.0
C561 C 0.49183 0.44478 0.96577 0.0
C562 C 0.46679 0.40991 0.15908 0.0
C563 C 0.41733 0.39836 0.18004 0.0
N564 N 0.48291 0.43333 0.02633 0.0
N565 N 0.42579 0.41233 0.1239 0.0
H566 H 0.10274 0.59592 0.20696 0.0
H567 H 0.09188 0.5104 0.90714 0.0
H568 H 0.16303 0.55545 0.13199 0.0
H569 H 0.03888 0.56194 0.95005 0.0
H570 H 0.11592 0.52296 0.0004 0.0
H571 H 0.07688 0.57983 0.12407 0.0
C572 C 0.11052 0.58355 0.17336 0.0
C573 C 0.13516 0.57715 0.1761 0.0
C574 C 0.09897 0.53144 0.98954 0.0
C575 C 0.1056 0.55863 0.08106 0.0
C576 C 0.08519 0.52423 0.9365 0.0
C577 C 0.0634 0.53522 0.92047 0.0
C578 C 0.0908 0.54964 0.02717 0.0
C579 C 0.05564 0.55306 0.96026 0.0
C580 C 0.09575 0.57441 0.12591 0.0
C581 C 0.14419 0.56099 0.13136 0.0
N582 N 0.06934 0.55973 0.01163 0.0
N583 N 0.12942 0.55232 0.08556 0.0
H584 H 0.89914 0.92526 0.15085 0.0
H585 H 0.02135 0.95613 0.33211 0.0
H586 H 0.96482 0.88528 0.14359 0.0
H587 H 0.95137 0.98751 0.37574 0.0
H588 H 0.00282 0.93427 0.24626 0.0
H589 H 0.91989 0.95212 0.21772 0.0
C590 C 0.91796 0.92216 0.16304 0.0
C591 C 0.93018 0.90286 0.14223 0.0
C592 C 0.99158 0.9461 0.27415 0.0
C593 C 0.95405 0.93361 0.21831 0.0
C594 C 0.00213 0.95857 0.32322 0.0
C595 C 0.98782 0.97347 0.36196 0.0
C596 C 0.96652 0.94854 0.26353 0.0
C597 C 0.96316 0.97631 0.347 0.0
C598 C 0.92978 0.93752 0.20119 0.0
C599 C 0.9546 0.89981 0.15916 0.0
N600 N 0.95323 0.96378 0.29947 0.0
N601 N 0.9657 0.91498 0.1964 0.0
H602 H 0.60908 0.05284 0.27988 0.0
H603 H 0.56041 0.95747 0.57395 0.0
H604 H 0.63525 0.98464 0.28765 0.0
H605 H 0.53158 0.0247 0.55634 0.0
H606 H 0.58646 0.96633 0.46573 0.0
H607 H 0.57919 0.04218 0.37797 0.0
C608 C 0.60849 0.03559 0.30203 0.0
C609 C 0.62482 0.01965 0.27576 0.0
C610 C 0.5743 0.97908 0.48532 0.0
C611 C 0.59063 0.00731 0.38841 0.0
C612 C 0.5594 0.97402 0.54706 0.0
C613 C 0.54391 0.99042 0.57454 0.0
C614 C 0.57376 0.00071 0.451 0.0
C615 C 0.54333 0.01157 0.53737 0.0
C616 C 0.59138 0.02949 0.35805 0.0
C617 C 0.62309 0.99751 0.30637 0.0
N618 N 0.55815 0.01614 0.47784 0.0
N619 N 0.6064 0.99203 0.36136 0.0
H620 H 0.61741 0.56228 0.2403 0.0
H621 H 0.50032 0.52818 0.50404 0.0
H622 H 0.54664 0.59399 0.23314 0.0
H623 H 0.572 0.49943 0.52654 0.0
H624 H 0.51639 0.54956 0.39727 0.0
H625 H 0.60058 0.53661 0.33807 0.0
C626 C 0.59831 0.56379 0.25902 0.0
C627 C 0.58345 0.58042 0.22876 0.0
C628 C 0.52864 0.53852 0.42522 0.0
C629 C 0.56411 0.55109 0.34042 0.0
C630 C 0.51946 0.52625 0.48631 0.0
C631 C 0.5349 0.51211 0.52474 0.0
C632 C 0.55352 0.53678 0.40212 0.0
C633 C 0.55947 0.51018 0.49869 0.0
C634 C 0.58874 0.54913 0.31485 0.0
C635 C 0.55884 0.58154 0.25506 0.0
N636 N 0.56809 0.52253 0.43917 0.0
N637 N 0.54999 0.56714 0.30942 0.0
H638 H 0.88738 0.4932 0.33845 0.0
H639 H 0.00583 0.47369 0.55794 0.0
H640 H 0.93139 0.43335 0.33801 0.0
H641 H 0.95916 0.53149 0.57464 0.0
H642 H 0.98057 0.46044 0.46932 0.0
H643 H 0.91504 0.50905 0.41759 0.0
C644 C 0.90289 0.48341 0.35476 0.0
C645 C 0.90699 0.46185 0.33178 0.0
C646 C 0.97587 0.47608 0.49204 0.0
C647 C 0.93873 0.47992 0.42221 0.0
C648 C 0.99034 0.4837 0.54267 0.0
C649 C 0.98453 0.50369 0.57419 0.0
C650 C 0.95534 0.48847 0.47258 0.0
C651 C 0.96428 0.51596 0.55188 0.0
C652 C 0.91866 0.49248 0.39997 0.0
C653 C 0.92742 0.44998 0.35457 0.0
N654 N 0.95033 0.50809 0.50268 0.0
N655 N 0.94246 0.45915 0.39856 0.0
loop_
_geom_bond_atom_site_label_1
_geom_bond_atom_site_label_2
_geom_bond_distance
_geom_bond_site_symmetry_2
_ccdc_geom_bond_type
O0 Cd1 2.300 . S
O0 C7 1.275 . S
Cd1 O0 2.300 . S
Cd1 O9 2.381 . S
Cd1 O10 2.378 . S
O2 Cd3 2.385 . S
O2 C7 1.255 . S
Cd3 O2 2.385 . S
Cd3 O4 2.317 . S
O4 Cd3 2.317 . S
O4 C5 1.232 . S
C5 O4 1.232 . S
C5 O6 1.218 . S
O6 C5 1.218 . S
C7 O0 1.275 . S
C7 O2 1.255 . S
C8 O9 1.258 . S
C8 O10 1.256 . S
O9 Cd1 2.381 . S
O9 C8 1.258 . S
O10 Cd1 2.378 . S
O10 C8 1.256 . S
O11 Cd12 2.300 . S
O11 C18 1.275 . S
Cd12 O11 2.300 . S
Cd12 O20 2.381 . S
Cd12 O21 2.378 . S
O13 Cd14 2.385 1_656 S
O13 C18 1.255 . S
Cd14 O13 2.385 1_454 S
Cd14 O15 2.317 1_455 S
O15 Cd14 2.317 1_655 S
O15 C16 1.232 . S
C16 O15 1.232 . S
C16 O17 1.218 . S
O17 C16 1.218 . S
C18 O11 1.275 . S
C18 O13 1.255 . S
C19 O20 1.258 . S
C19 O21 1.256 . S
O20 Cd12 2.381 . S
O20 C19 1.258 . S
O21 Cd12 2.378 . S
O21 C19 1.256 . S
O22 Cd23 2.300 1_566 S
O22 C29 1.275 1_566 S
Cd23 O22 2.300 1_544 S
Cd23 O31 2.381 1_544 S
Cd23 O32 2.378 . S
O24 Cd25 2.385 . S
O24 C29 1.255 . S
Cd25 O24 2.385 . S
Cd25 O26 2.317 . S
O26 Cd25 2.317 . S
O26 C27 1.232 . S
C27 O26 1.232 . S
C27 O28 1.218 . S
O28 C27 1.218 . S
C29 O22 1.275 1_544 S
C29 O24 1.255 . S
C30 O31 1.258 1_544 S
C30 O32 1.256 . S
O31 Cd23 2.381 1_566 S
O31 C30 1.258 1_566 S
O32 Cd23 2.378 . S
O32 C30 1.256 . S
O33 Cd34 2.300 1_556 S
O33 C40 1.275 1_556 S
Cd34 O33 2.300 1_554 S
Cd34 O42 2.381 1_554 S
Cd34 O43 2.378 . S
O35 Cd36 2.385 . S
O35 C40 1.255 . S
Cd36 O35 2.385 . S
Cd36 O37 2.317 . S
O37 Cd36 2.317 . S
O37 C38 1.232 . S
C38 O37 1.232 . S
C38 O39 1.218 . S
O39 C38 1.218 . S
C40 O33 1.275 1_554 S
C40 O35 1.255 . S
C41 O42 1.258 1_554 S
C41 O43 1.256 . S
O42 Cd34 2.381 1_556 S
O42 C41 1.258 1_556 S
O43 Cd34 2.378 . S
O43 C41 1.256 . S
O44 Cd45 2.300 . S
O44 C51 1.275 . S
Cd45 O44 2.300 . S
Cd45 O53 2.381 . S
Cd45 O54 2.378 . S
O46 Cd47 2.385 . S
O46 C51 1.255 . S
Cd47 O46 2.385 . S
Cd47 O48 2.317 . S
O48 Cd47 2.317 . S
O48 C49 1.232 . S
C49 O48 1.232 . S
C49 O50 1.218 . S
O50 C49 1.218 . S
C51 O44 1.275 . S
C51 O46 1.255 . S
C52 O53 1.258 . S
C52 O54 1.256 . S
O53 Cd45 2.381 . S
O53 C52 1.258 . S
O54 Cd45 2.378 . S
O54 C52 1.256 . S
O55 Cd56 2.300 . S
O55 C62 1.275 . S
Cd56 O55 2.300 . S
Cd56 O64 2.381 . S
Cd56 O65 2.378 . S
O57 Cd58 2.385 . S
O57 C62 1.255 . S
Cd58 O57 2.385 . S
Cd58 O59 2.317 . S
O59 Cd58 2.317 . S
O59 C60 1.232 . S
C60 O59 1.232 . S
C60 O61 1.218 . S
O61 C60 1.218 . S
C62 O55 1.275 . S
C62 O57 1.255 . S
C63 O64 1.258 . S
C63 O65 1.256 . S
O64 Cd56 2.381 . S
O64 C63 1.258 . S
O65 Cd56 2.378 . S
O65 C63 1.256 . S
O66 Cd67 2.300 1_565 S
O66 C73 1.275 1_565 S
Cd67 O66 2.300 1_545 S
Cd67 O75 2.381 1_545 S
Cd67 O76 2.378 . S
O68 Cd69 2.385 . S
O68 C73 1.255 . S
Cd69 O68 2.385 . S
Cd69 O70 2.317 . S
O70 Cd69 2.317 . S
O70 C71 1.232 . S
C71 O70 1.232 . S
C71 O72 1.218 . S
O72 C71 1.218 . S
C73 O66 1.275 1_545 S
C73 O68 1.255 . S
C74 O75 1.258 1_545 S
C74 O76 1.256 . S
O75 Cd67 2.381 1_565 S
O75 C74 1.258 1_565 S
O76 Cd67 2.378 . S
O76 C74 1.256 . S
O77 Cd78 2.300 . S
O77 C84 1.275 . S
Cd78 O77 2.300 . S
Cd78 O86 2.381 . S
Cd78 O87 2.378 . S
O79 Cd80 2.385 . S
O79 C84 1.255 . S
Cd80 O79 2.385 . S
Cd80 O81 2.317 . S
O81 Cd80 2.317 . S
O81 C82 1.232 . S
C82 O81 1.232 . S
C82 O83 1.218 . S
O83 C82 1.218 . S
C84 O77 1.275 . S
C84 O79 1.255 . S
C85 O86 1.258 . S
C85 O87 1.256 . S
O86 Cd78 2.381 . S
O86 C85 1.258 . S
O87 Cd78 2.378 . S
O87 C85 1.256 . S
C88 O104 1.251 . S
C88 O106 1.254 . S
N89 C90 1.333 . S
N89 C94 1.307 1_455 S
N89 Zn95 2.020 . S
C90 N89 1.333 . S
C90 C91 1.379 . S
C90 H108 0.952 . S
C91 C90 1.379 . S
C91 C92 1.390 1_455 S
C91 H118 0.949 . S
C92 C91 1.390 1_655 S
C92 C93 1.357 . S
C93 C92 1.357 . S
C93 C94 1.370 . S
C93 H119 0.950 . S
C94 N89 1.307 1_655 S
C94 C93 1.370 . S
C94 H112 0.948 . S
Zn95 N89 2.020 . S
Zn95 O104 2.039 . S
Zn95 O110 2.034 . S
Zn95 O114 2.025 1_565 S
Zn95 O116 2.024 1_455 S
C96 O115 1.246 . S
C96 O116 1.249 1_545 S
N97 C98 1.307 . S
N97 C99 1.333 . S
N97 Zn103 2.020 . S
C98 N97 1.307 . S
C98 C102 1.370 . S
C98 H109 0.948 . S
C99 N97 1.333 . S
C99 C100 1.379 . S
C99 H107 0.952 . S
C100 C99 1.379 . S
C100 C101 1.390 . S
C100 H120 0.949 . S
C101 C100 1.390 . S
C101 C102 1.357 . S
C102 C98 1.370 . S
C102 C101 1.357 . S
C102 H121 0.950 1_556 S
Zn103 N97 2.020 . S
Zn103 O106 2.025 1_545 S
Zn103 O111 2.024 . S
Zn103 O113 2.039 . S
Zn103 O115 2.034 1_455 S
O104 C88 1.251 . S
O104 Zn95 2.039 . S
C105 O110 1.246 . S
C105 O111 1.249 1_565 S
O106 C88 1.254 . S
O106 Zn103 2.025 1_565 S
H107 C99 0.952 . S
H108 C90 0.952 . S
H109 C98 0.948 . S
O110 Zn95 2.034 . S
O110 C105 1.246 . S
O111 Zn103 2.024 . S
O111 C105 1.249 1_545 S
H112 C94 0.948 . S
O113 Zn103 2.039 . S
O113 C117 1.251 . S
O114 Zn95 2.025 1_545 S
O114 C117 1.254 . S
O115 C96 1.246 . S
O115 Zn103 2.034 1_655 S
O116 Zn95 2.024 1_655 S
O116 C96 1.249 1_565 S
C117 O113 1.251 . S
C117 O114 1.254 . S
H118 C91 0.949 . S
H119 C93 0.950 . S
H120 C100 0.949 . S
H121 C102 0.950 1_554 S
C122 O138 1.251 1_565 S
C122 O140 1.254 . S
N123 C124 1.333 . S
N123 C128 1.307 . S
N123 Zn129 2.020 . S
C124 N123 1.333 . S
C124 C125 1.379 . S
C124 H142 0.952 . S
C125 C124 1.379 . S
C125 C126 1.390 . S
C125 H152 0.949 . S
C126 C125 1.390 . S
C126 C127 1.357 . S
C127 C126 1.357 . S
C127 C128 1.370 . S
C127 H153 0.950 . S
C128 N123 1.307 . S
C128 C127 1.370 . S
C128 H146 0.948 . S
Zn129 N123 2.020 . S
Zn129 O138 2.039 . S
Zn129 O144 2.034 . S
Zn129 O148 2.025 . S
Zn129 O150 2.024 . S
C130 O149 1.246 1_545 S
C130 O150 1.249 . S
N131 C132 1.307 . S
N131 C133 1.333 . S
N131 Zn137 2.020 . S
C132 N131 1.307 . S
C132 C136 1.370 . S
C132 H143 0.948 . S
C133 N131 1.333 . S
C133 C134 1.379 . S
C133 H141 0.952 . S
C134 C133 1.379 . S
C134 C135 1.390 . S
C134 H154 0.949 . S
C135 C134 1.390 . S
C135 C136 1.357 . S
C136 C132 1.370 . S
C136 C135 1.357 . S
C136 H155 0.950 . S
Zn137 N131 2.020 . S
Zn137 O140 2.025 . S
Zn137 O145 2.024 . S
Zn137 O147 2.039 . S
Zn137 O149 2.034 . S
O138 C122 1.251 1_545 S
O138 Zn129 2.039 . S
C139 O144 1.246 1_565 S
C139 O145 1.249 . S
O140 C122 1.254 . S
O140 Zn137 2.025 . S
H141 C133 0.952 . S
H142 C124 0.952 . S
H143 C132 0.948 . S
O144 Zn129 2.034 . S
O144 C139 1.246 1_545 S
O145 Zn137 2.024 . S
O145 C139 1.249 . S
H146 C128 0.948 . S
O147 Zn137 2.039 . S
O147 C151 1.251 1_565 S
O148 Zn129 2.025 . S
O148 C151 1.254 . S
O149 C130 1.246 1_565 S
O149 Zn137 2.034 . S
O150 Zn129 2.024 . S
O150 C130 1.249 . S
C151 O147 1.251 1_545 S
C151 O148 1.254 . S
H152 C125 0.949 . S
H153 C127 0.950 . S
H154 C134 0.949 . S
H155 C136 0.950 . S
C156 O172 1.251 . S
C156 O174 1.254 . S
N157 C158 1.333 . S
N157 C162 1.307 . S
N157 Zn163 2.020 . S
C158 N157 1.333 . S
C158 C159 1.379 . S
C158 H176 0.952 . S
C159 C158 1.379 . S
C159 C160 1.390 . S
C159 H186 0.949 . S
C160 C159 1.390 . S
C160 C161 1.357 . S
C161 C160 1.357 . S
C161 C162 1.370 . S
C161 H187 0.950 . S
C162 N157 1.307 . S
C162 C161 1.370 . S
C162 H180 0.948 . S
Zn163 N157 2.020 . S
Zn163 O172 2.039 . S
Zn163 O178 2.034 . S
Zn163 O182 2.025 . S
Zn163 O184 2.024 . S
C164 O183 1.246 . S
C164 O184 1.249 . S
N165 C166 1.307 . S
N165 C167 1.333 . S
N165 Zn171 2.020 . S
C166 N165 1.307 . S
C166 C170 1.370 . S
C166 H177 0.948 . S
C167 N165 1.333 . S
C167 C168 1.379 . S
C167 H175 0.952 . S
C168 C167 1.379 . S
C168 C169 1.390 . S
C168 H188 0.949 . S
C169 C168 1.390 . S
C169 C170 1.357 . S
C170 C166 1.370 . S
C170 C169 1.357 . S
C170 H189 0.950 . S
Zn171 N165 2.020 . S
Zn171 O174 2.025 . S
Zn171 O179 2.024 . S
Zn171 O181 2.039 . S
Zn171 O183 2.034 . S
O172 C156 1.251 . S
O172 Zn163 2.039 . S
C173 O178 1.246 . S
C173 O179 1.249 . S
O174 C156 1.254 . S
O174 Zn171 2.025 . S
H175 C167 0.952 . S
H176 C158 0.952 . S
H177 C166 0.948 . S
O178 Zn163 2.034 . S
O178 C173 1.246 . S
O179 Zn171 2.024 . S
O179 C173 1.249 . S
H180 C162 0.948 . S
O181 Zn171 2.039 . S
O181 C185 1.251 . S
O182 Zn163 2.025 . S
O182 C185 1.254 . S
O183 C164 1.246 . S
O183 Zn171 2.034 . S
O184 Zn163 2.024 . S
O184 C164 1.249 . S
C185 O181 1.251 . S
C185 O182 1.254 . S
H186 C159 0.949 . S
H187 C161 0.950 . S
H188 C168 0.949 . S
H189 C170 0.950 . S
C190 O206 1.251 . S
C190 O208 1.254 . S
N191 C192 1.333 . S
N191 C196 1.307 . S
N191 Zn197 2.020 . S
C192 N191 1.333 . S
C192 C193 1.379 . S
C192 H210 0.952 . S
C193 C192 1.379 . S
C193 C194 1.390 . S
C193 H220 0.949 . S
C194 C193 1.390 . S
C194 C195 1.357 . S
C195 C194 1.357 . S
C195 C196 1.370 . S
C195 H221 0.950 . S
C196 N191 1.307 . S
C196 C195 1.370 . S
C196 H214 0.948 . S
Zn197 N191 2.020 . S
Zn197 O206 2.039 . S
Zn197 O212 2.034 1_455 S
Zn197 O216 2.025 1_455 S
Zn197 O218 2.024 . S
C198 O217 1.246 . S
C198 O218 1.249 . S
N199 C200 1.307 . S
N199 C201 1.333 1_455 S
N199 Zn205 2.020 . S
C200 N199 1.307 . S
C200 C204 1.370 . S
C200 H211 0.948 . S
C201 N199 1.333 1_655 S
C201 C202 1.379 . S
C201 H209 0.952 . S
C202 C201 1.379 . S
C202 C203 1.390 1_655 S
C202 H222 0.949 . S
C203 C202 1.390 1_455 S
C203 C204 1.357 . S
C204 C200 1.370 . S
C204 C203 1.357 . S
C204 H223 0.950 . S
Zn205 N199 2.020 . S
Zn205 O208 2.025 . S
Zn205 O213 2.024 1_455 S
Zn205 O215 2.039 1_455 S
Zn205 O217 2.034 . S
O206 C190 1.251 . S
O206 Zn197 2.039 . S
C207 O212 1.246 . S
C207 O213 1.249 . S
O208 C190 1.254 . S
O208 Zn205 2.025 . S
H209 C201 0.952 . S
H210 C192 0.952 . S
H211 C200 0.948 . S
O212 Zn197 2.034 1_655 S
O212 C207 1.246 . S
O213 Zn205 2.024 1_655 S
O213 C207 1.249 . S
H214 C196 0.948 . S
O215 Zn205 2.039 1_655 S
O215 C219 1.251 . S
O216 Zn197 2.025 1_655 S
O216 C219 1.254 . S
O217 C198 1.246 . S
O217 Zn205 2.034 . S
O218 Zn197 2.024 . S
O218 C198 1.249 . S
C219 O215 1.251 . S
C219 O216 1.254 . S
H220 C193 0.949 . S
H221 C195 0.950 . S
H222 C202 0.949 . S
H223 C204 0.950 . S
H224 C230 0.930 . S
H225 C234 0.930 . S
H226 C239 0.929 . S
H227 C237 0.929 . S
H228 C232 0.929 . S
H229 C238 0.929 . S
C230 H224 0.930 . S
C230 C231 1.364 1_545 S
C230 C238 1.378 . S
C231 C230 1.364 1_565 S
C231 C239 1.436 . S
C232 H228 0.929 . S
C232 C234 1.378 . S
C232 C236 1.350 . S
C233 C236 1.463 . S
C233 C238 1.350 1_565 S
C233 N241 1.427 . S
C234 H225 0.930 . S
C234 C232 1.378 . S
C234 C235 1.367 . S
C235 C234 1.367 . S
C235 C237 1.433 1_565 S
C236 C232 1.350 . S
C236 C233 1.463 . S
C236 N240 1.427 1_565 S
C237 H227 0.929 . S
C237 C235 1.433 1_545 S
C237 N240 1.384 . S
C238 H229 0.929 . S
C238 C230 1.378 . S
C238 C233 1.350 1_545 S
C239 H226 0.929 . S
C239 C231 1.436 . S
C239 N241 1.384 . S
N240 C236 1.427 1_545 S
N240 C237 1.384 . S
N241 C233 1.427 . S
N241 C239 1.384 . S
H242 C248 0.930 . S
H243 C252 0.930 . S
H244 C257 0.929 . S
H245 C255 0.929 . S
H246 C250 0.929 . S
H247 C256 0.929 . S
C248 H242 0.930 . S
C248 C249 1.367 . S
C248 C256 1.378 . S
C249 C248 1.367 . S
C249 C257 1.433 . S
C250 H246 0.929 . S
C250 C252 1.378 . S
C250 C254 1.350 . S
C251 C254 1.463 . S
C251 C256 1.350 . S
C251 N259 1.427 . S
C252 H243 0.930 . S
C252 C250 1.378 . S
C252 C253 1.367 . S
C253 C252 1.367 . S
C253 C255 1.433 . S
C254 C250 1.350 . S
C254 C251 1.463 . S
C254 N258 1.427 . S
C255 H245 0.929 . S
C255 C253 1.433 . S
C255 N258 1.384 . S
C256 H247 0.929 . S
C256 C248 1.378 . S
C256 C251 1.350 . S
C257 H244 0.929 . S
C257 C249 1.433 . S
C257 N259 1.384 . S
N258 C254 1.427 . S
N258 C255 1.384 . S
N259 C251 1.427 . S
N259 C257 1.384 . S
H260 C266 0.930 . S
H261 C270 0.930 . S
H262 C275 0.929 . S
H263 C273 0.929 . S
H264 C268 0.929 . S
H265 C274 0.929 . S
C266 H260 0.930 . S
C266 C267 1.367 . S
C266 C274 1.378 . S
C267 C266 1.367 . S
C267 C275 1.433 . S
C268 H264 0.929 . S
C268 C270 1.378 . S
C268 C272 1.350 . S
C269 C272 1.463 . S
C269 C274 1.350 . S
C269 N277 1.427 . S
C270 H261 0.930 . S
C270 C268 1.378 . S
C270 C271 1.367 . S
C271 C270 1.367 . S
C271 C273 1.433 . S
C272 C268 1.350 . S
C272 C269 1.463 . S
C272 N276 1.427 . S
C273 H263 0.929 . S
C273 C271 1.433 . S
C273 N276 1.384 . S
C274 H265 0.929 . S
C274 C266 1.378 . S
C274 C269 1.350 . S
C275 H262 0.929 . S
C275 C267 1.433 . S
C275 N277 1.384 . S
N276 C272 1.427 . S
N276 C273 1.384 . S
N277 C269 1.427 . S
N277 C275 1.384 . S
H278 C284 0.930 . S
H279 C288 0.930 . S
H280 C293 0.929 . S
H281 C291 0.929 . S
H282 C286 0.929 . S
H283 C292 0.929 . S
C284 H278 0.930 . S
C284 C285 1.367 . S
C284 C292 1.378 . S
C285 C284 1.367 . S
C285 C293 1.433 . S
C286 H282 0.929 . S
C286 C288 1.378 . S
C286 C290 1.350 . S
C287 C290 1.463 . S
C287 C292 1.350 . S
C287 N295 1.427 . S
C288 H279 0.930 . S
C288 C286 1.378 . S
C288 C289 1.367 . S
C289 C288 1.367 . S
C289 C291 1.433 . S
C290 C286 1.350 . S
C290 C287 1.463 . S
C290 N294 1.427 . S
C291 H281 0.929 . S
C291 C289 1.433 . S
C291 N294 1.384 . S
C292 H283 0.929 . S
C292 C284 1.378 . S
C292 C287 1.350 . S
C293 H280 0.929 . S
C293 C285 1.433 . S
C293 N295 1.384 . S
N294 C290 1.427 . S
N294 C291 1.384 . S
N295 C287 1.427 . S
N295 C293 1.384 . S
H296 C302 0.930 . S
H297 C306 0.930 . S
H298 C311 0.929 . S
H299 C309 0.929 . S
H300 C304 0.929 . S
H301 C310 0.929 . S
C302 H296 0.930 . S
C302 C303 1.367 . S
C302 C310 1.378 . S
C303 C302 1.367 . S
C303 C311 1.433 1_545 S
C304 H300 0.929 . S
C304 C306 1.378 . S
C304 C308 1.350 1_565 S
C305 C308 1.463 . S
C305 C310 1.350 . S
C305 N313 1.427 1_545 S
C306 H297 0.930 . S
C306 C304 1.378 . S
C306 C307 1.367 1_565 S
C307 C306 1.367 1_545 S
C307 C309 1.433 . S
C308 C304 1.350 1_545 S
C308 C305 1.463 . S
C308 N312 1.427 . S
C309 H299 0.929 . S
C309 C307 1.433 . S
C309 N312 1.384 . S
C310 H301 0.929 . S
C310 C302 1.378 . S
C310 C305 1.350 . S
C311 H298 0.929 . S
C311 C303 1.433 1_565 S
C311 N313 1.384 . S
N312 C308 1.427 . S
N312 C309 1.384 . S
N313 C305 1.427 1_565 S
N313 C311 1.384 . S
H314 C320 0.930 . S
H315 C324 0.930 . S
H316 C329 0.929 . S
H317 C327 0.929 . S
H318 C322 0.929 . S
H319 C328 0.929 1_554 S
C320 H314 0.930 . S
C320 C321 1.367 1_554 S
C320 C328 1.378 1_554 S
C321 C320 1.367 1_556 S
C321 C329 1.433 . S
C322 H318 0.929 . S
C322 C324 1.378 . S
C322 C326 1.350 . S
C323 C326 1.463 . S
C323 C328 1.350 . S
C323 N331 1.427 . S
C324 H315 0.930 . S
C324 C322 1.378 . S
C324 C325 1.367 . S
C325 C324 1.367 . S
C325 C327 1.433 . S
C326 C322 1.350 . S
C326 C323 1.463 . S
C326 N330 1.427 . S
C327 H317 0.929 . S
C327 C325 1.433 . S
C327 N330 1.384 . S
C328 H319 0.929 1_556 S
C328 C320 1.378 1_556 S
C328 C323 1.350 . S
C329 H316 0.929 . S
C329 C321 1.433 . S
C329 N331 1.384 . S
N330 C326 1.427 . S
N330 C327 1.384 . S
N331 C323 1.427 . S
N331 C329 1.384 . S
H332 C338 0.930 . S
H333 C342 0.930 . S
H334 C347 0.929 . S
H335 C345 0.929 . S
H336 C340 0.929 . S
H337 C346 0.929 . S
C338 H332 0.930 . S
C338 C339 1.367 1_556 S
C338 C346 1.378 . S
C339 C338 1.367 1_554 S
C339 C347 1.433 . S
C340 H336 0.929 . S
C340 C342 1.378 . S
C340 C344 1.350 . S
C341 C344 1.463 . S
C341 C346 1.350 . S
C341 N349 1.427 1_556 S
C342 H333 0.930 . S
C342 C340 1.378 . S
C342 C343 1.367 . S
C343 C342 1.367 . S
C343 C345 1.433 . S
C344 C340 1.350 . S
C344 C341 1.463 . S
C344 N348 1.427 . S
C345 H335 0.929 . S
C345 C343 1.433 . S
C345 N348 1.384 . S
C346 H337 0.929 . S
C346 C338 1.378 . S
C346 C341 1.350 . S
C347 H334 0.929 . S
C347 C339 1.433 . S
C347 N349 1.384 . S
N348 C344 1.427 . S
N348 C345 1.384 . S
N349 C341 1.427 1_554 S
N349 C347 1.384 . S
H350 C356 0.930 1_554 S
H351 C360 0.930 . S
H352 C365 0.929 . S
H353 C363 0.929 . S
H354 C358 0.929 . S
H355 C364 0.929 . S
C356 H350 0.930 1_556 S
C356 C357 1.367 . S
C356 C364 1.378 . S
C357 C356 1.367 . S
C357 C365 1.433 . S
C358 H354 0.929 . S
C358 C360 1.378 1_655 S
C358 C362 1.350 . S
C359 C362 1.463 . S
C359 C364 1.350 . S
C359 N367 1.427 . S
C360 H351 0.930 . S
C360 C358 1.378 1_455 S
C360 C361 1.367 1_455 S
C361 C360 1.367 1_655 S
C361 C363 1.433 . S
C362 C358 1.350 . S
C362 C359 1.463 . S
C362 N366 1.427 . S
C363 H353 0.929 . S
C363 C361 1.433 . S
C363 N366 1.384 . S
C364 H355 0.929 . S
C364 C356 1.378 . S
C364 C359 1.350 . S
C365 H352 0.929 . S
C365 C357 1.433 . S
C365 N367 1.384 . S
N366 C362 1.427 . S
N366 C363 1.384 . S
N367 C359 1.427 . S
N367 C365 1.384 . S
H368 C374 0.930 . S
H369 C378 0.930 . S
H370 C383 0.929 . S
H371 C381 0.929 . S
H372 C376 0.929 . S
H373 C382 0.929 . S
C374 H368 0.930 . S
C374 C375 1.367 . S
C374 C382 1.378 . S
C375 C374 1.367 . S
C375 C383 1.433 . S
C376 H372 0.929 . S
C376 C378 1.378 . S
C376 C380 1.350 . S
C377 C380 1.463 . S
C377 C382 1.350 . S
C377 N385 1.427 . S
C378 H369 0.930 . S
C378 C376 1.378 . S
C378 C379 1.367 . S
C379 C378 1.367 . S
C379 C381 1.433 . S
C380 C376 1.350 . S
C380 C377 1.463 . S
C380 N384 1.427 . S
C381 H371 0.929 . S
C381 C379 1.433 . S
C381 N384 1.384 . S
C382 H373 0.929 . S
C382 C374 1.378 . S
C382 C377 1.350 . S
C383 H370 0.929 . S
C383 C375 1.433 . S
C383 N385 1.384 . S
N384 C380 1.427 . S
N384 C381 1.384 . S
N385 C377 1.427 . S
N385 C383 1.384 . S
H386 C392 0.930 . S
H387 C396 0.930 . S
H388 C401 0.929 . S
H389 C399 0.929 . S
H390 C394 0.929 . S
H391 C400 0.929 . S
C392 H386 0.930 . S
C392 C393 1.390 . S
C392 C400 1.378 . S
C393 C392 1.390 . S
C393 C401 1.410 1_565 S
C394 H390 0.929 . S
C394 C396 1.378 . S
C394 C398 1.350 1_545 S
C395 C398 1.463 . S
C395 C400 1.350 . S
C395 N403 1.427 1_565 S
C396 H387 0.930 . S
C396 C394 1.378 . S
C396 C397 1.367 1_545 S
C397 C396 1.367 1_565 S
C397 C399 1.433 . S
C398 C394 1.350 1_565 S
C398 C395 1.463 . S
C398 N402 1.427 . S
C399 H389 0.929 . S
C399 C397 1.433 . S
C399 N402 1.384 . S
C400 H391 0.929 . S
C400 C392 1.378 . S
C400 C395 1.350 . S
C401 H388 0.929 . S
C401 C393 1.410 1_545 S
C401 N403 1.384 . S
N402 C398 1.427 . S
N402 C399 1.384 . S
N403 C395 1.427 1_545 S
N403 C401 1.384 . S
H404 C410 0.930 . S
H405 C414 0.930 . S
H406 C419 0.929 . S
H407 C417 0.929 . S
H408 C412 0.929 . S
H409 C418 0.929 . S
C410 H404 0.930 . S
C410 C411 1.367 . S
C410 C418 1.378 . S
C411 C410 1.367 . S
C411 C419 1.433 . S
C412 H408 0.929 . S
C412 C414 1.378 . S
C412 C416 1.350 . S
C413 C416 1.463 . S
C413 C418 1.350 . S
C413 N421 1.427 . S
C414 H405 0.930 . S
C414 C412 1.378 . S
C414 C415 1.367 . S
C415 C414 1.367 . S
C415 C417 1.433 . S
C416 C412 1.350 . S
C416 C413 1.463 . S
C416 N420 1.427 . S
C417 H407 0.929 . S
C417 C415 1.433 . S
C417 N420 1.384 . S
C418 H409 0.929 . S
C418 C410 1.378 . S
C418 C413 1.350 . S
C419 H406 0.929 . S
C419 C411 1.433 . S
C419 N421 1.384 . S
N420 C416 1.427 . S
N420 C417 1.384 . S
N421 C413 1.427 . S
N421 C419 1.384 . S
H422 C428 0.930 . S
H423 C432 0.930 . S
H424 C437 0.929 . S
H425 C435 0.929 . S
H426 C430 0.929 . S
H427 C436 0.929 . S
C428 H422 0.930 . S
C428 C429 1.367 . S
C428 C436 1.378 . S
C429 C428 1.367 . S
C429 C437 1.433 . S
C430 H426 0.929 . S
C430 C432 1.378 . S
C430 C434 1.350 . S
C431 C434 1.463 . S
C431 C436 1.350 . S
C431 N439 1.427 . S
C432 H423 0.930 . S
C432 C430 1.378 . S
C432 C433 1.367 . S
C433 C432 1.367 . S
C433 C435 1.433 . S
C434 C430 1.350 . S
C434 C431 1.463 . S
C434 N438 1.427 . S
C435 H425 0.929 . S
C435 C433 1.433 . S
C435 N438 1.384 . S
C436 H427 0.929 . S
C436 C428 1.378 . S
C436 C431 1.350 . S
C437 H424 0.929 . S
C437 C429 1.433 . S
C437 N439 1.384 . S
N438 C434 1.427 . S
N438 C435 1.384 . S
N439 C431 1.427 . S
N439 C437 1.384 . S
H440 C446 0.930 1_554 S
H441 C450 0.929 1_655 S
H442 C455 0.929 . S
H443 C453 0.929 . S
H444 C448 0.929 . S
H445 C454 0.929 . S
C446 H440 0.930 1_556 S
C446 C447 1.367 . S
C446 C454 1.378 . S
C447 C446 1.367 . S
C447 C455 1.433 . S
C448 H444 0.929 . S
C448 C450 1.375 1_655 S
C448 C452 1.350 . S
C449 C452 1.463 . S
C449 C454 1.350 . S
C449 N457 1.427 . S
C450 H441 0.929 1_455 S
C450 C448 1.375 1_455 S
C450 C451 1.371 . S
C451 C450 1.371 . S
C451 C453 1.433 . S
C452 C448 1.350 . S
C452 C449 1.463 . S
C452 N456 1.427 1_655 S
C453 H443 0.929 . S
C453 C451 1.433 . S
C453 N456 1.384 . S
C454 H445 0.929 . S
C454 C446 1.378 . S
C454 C449 1.350 . S
C455 H442 0.929 . S
C455 C447 1.433 . S
C455 N457 1.384 . S
N456 C452 1.427 1_455 S
N456 C453 1.384 . S
N457 C449 1.427 . S
N457 C455 1.384 . S
H458 C464 0.930 . S
H459 C468 0.930 . S
H460 C473 0.929 . S
H461 C471 0.929 . S
H462 C466 0.929 . S
H463 C472 0.929 . S
C464 H458 0.930 . S
C464 C465 1.402 . S
C464 C472 1.378 . S
C465 C464 1.402 . S
C465 C473 1.399 1_545 S
C466 H462 0.929 . S
C466 C468 1.378 . S
C466 C470 1.350 1_565 S
C467 C470 1.463 . S
C467 C472 1.350 . S
C467 N475 1.427 1_545 S
C468 H459 0.930 . S
C468 C466 1.378 . S
C468 C469 1.367 1_565 S
C469 C468 1.367 1_545 S
C469 C471 1.433 . S
C470 C466 1.350 1_545 S
C470 C467 1.463 . S
C470 N474 1.427 . S
C471 H461 0.929 . S
C471 C469 1.433 . S
C471 N474 1.384 . S
C472 H463 0.929 . S
C472 C464 1.378 . S
C472 C467 1.350 . S
C473 H460 0.929 . S
C473 C465 1.399 1_565 S
C473 N475 1.384 . S
N474 C470 1.427 . S
N474 C471 1.384 . S
N475 C467 1.427 1_565 S
N475 C473 1.384 . S
H476 C482 0.930 . S
H477 C486 0.930 . S
H478 C491 0.929 . S
H479 C489 0.929 . S
H480 C484 0.929 . S
H481 C490 0.929 1_554 S
C482 H476 0.930 . S
C482 C483 1.364 1_554 S
C482 C490 1.378 1_554 S
C483 C482 1.364 1_556 S
C483 C491 1.443 . S
C484 H480 0.929 . S
C484 C486 1.378 . S
C484 C488 1.350 . S
C485 C488 1.463 . S
C485 C490 1.350 . S
C485 N493 1.427 . S
C486 H477 0.930 . S
C486 C484 1.378 . S
C486 C487 1.367 . S
C487 C486 1.367 . S
C487 C489 1.433 . S
C488 C484 1.350 . S
C488 C485 1.463 . S
C488 N492 1.427 . S
C489 H479 0.929 . S
C489 C487 1.433 . S
C489 N492 1.384 . S
C490 H481 0.929 1_556 S
C490 C482 1.378 1_556 S
C490 C485 1.350 . S
C491 H478 0.929 . S
C491 C483 1.443 . S
C491 N493 1.384 . S
N492 C488 1.427 . S
N492 C489 1.384 . S
N493 C485 1.427 . S
N493 C491 1.384 . S
H494 C500 0.930 . S
H495 C504 0.930 . S
H496 C509 0.929 . S
H497 C507 0.929 . S
H498 C502 0.929 . S
H499 C508 0.929 . S
C500 H494 0.930 . S
C500 C501 1.367 . S
C500 C508 1.378 1_554 S
C501 C500 1.367 . S
C501 C509 1.433 . S
C502 H498 0.929 . S
C502 C504 1.378 . S
C502 C506 1.350 . S
C503 C506 1.463 . S
C503 C508 1.350 . S
C503 N511 1.427 . S
C504 H495 0.930 . S
C504 C502 1.378 . S
C504 C505 1.367 . S
C505 C504 1.367 . S
C505 C507 1.433 . S
C506 C502 1.350 . S
C506 C503 1.463 . S
C506 N510 1.427 . S
C507 H497 0.929 . S
C507 C505 1.433 . S
C507 N510 1.384 . S
C508 H499 0.929 . S
C508 C500 1.378 1_556 S
C508 C503 1.350 . S
C509 H496 0.929 . S
C509 C501 1.433 . S
C509 N511 1.384 1_554 S
N510 C506 1.427 . S
N510 C507 1.384 . S
N511 C503 1.427 . S
N511 C509 1.384 1_556 S
H512 C518 0.930 . S
H513 C522 0.930 1_556 S
H514 C527 0.929 . S
H515 C525 0.929 . S
H516 C520 0.929 . S
H517 C526 0.929 . S
C518 H512 0.930 . S
C518 C519 1.367 . S
C518 C526 1.378 . S
C519 C518 1.367 . S
C519 C527 1.433 . S
C520 H516 0.929 . S
C520 C522 1.378 . S
C520 C524 1.350 . S
C521 C524 1.463 . S
C521 C526 1.350 . S
C521 N529 1.427 . S
C522 H513 0.930 1_554 S
C522 C520 1.378 . S
C522 C523 1.367 . S
C523 C522 1.367 . S
C523 C525 1.433 . S
C524 C520 1.350 . S
C524 C521 1.463 . S
C524 N528 1.427 . S
C525 H515 0.929 . S
C525 C523 1.433 . S
C525 N528 1.384 . S
C526 H517 0.929 . S
C526 C518 1.378 . S
C526 C521 1.350 . S
C527 H514 0.929 . S
C527 C519 1.433 . S
C527 N529 1.384 . S
N528 C524 1.427 . S
N528 C525 1.384 . S
N529 C521 1.427 . S
N529 C527 1.384 . S
H530 C536 0.930 . S
H531 C540 0.930 . S
H532 C545 0.929 . S
H533 C543 0.929 . S
H534 C538 0.929 1_554 S
H535 C544 0.929 . S
C536 H530 0.930 . S
C536 C537 1.368 1_565 S
C536 C544 1.378 . S
C537 C536 1.368 1_545 S
C537 C545 1.432 . S
C538 H534 0.929 1_556 S
C538 C540 1.378 . S
C538 C542 1.350 1_556 S
C539 C542 1.463 . S
C539 C544 1.350 1_545 S
C539 N547 1.427 . S
C540 H531 0.930 . S
C540 C538 1.378 . S
C540 C541 1.367 . S
C541 C540 1.367 . S
C541 C543 1.433 1_545 S
C542 C538 1.350 1_554 S
C542 C539 1.463 . S
C542 N546 1.427 1_544 S
C543 H533 0.929 . S
C543 C541 1.433 1_565 S
C543 N546 1.384 . S
C544 H535 0.929 . S
C544 C536 1.378 . S
C544 C539 1.350 1_565 S
C545 H532 0.929 . S
C545 C537 1.432 . S
C545 N547 1.384 . S
N546 C542 1.427 1_566 S
N546 C543 1.384 . S
N547 C539 1.427 . S
N547 C545 1.384 . S
H548 C554 0.930 . S
H549 C558 0.930 . S
H550 C563 0.929 . S
H551 C561 0.929 . S
H552 C556 0.929 1_554 S
H553 C562 0.929 . S
C554 H548 0.930 . S
C554 C555 1.367 . S
C554 C562 1.378 . S
C555 C554 1.367 . S
C555 C563 1.433 . S
C556 H552 0.929 1_556 S
C556 C558 1.378 . S
C556 C560 1.350 1_556 S
C557 C560 1.463 . S
C557 C562 1.350 . S
C557 N565 1.427 . S
C558 H549 0.930 . S
C558 C556 1.378 . S
C558 C559 1.367 . S
C559 C558 1.367 . S
C559 C561 1.433 . S
C560 C556 1.350 1_554 S
C560 C557 1.463 . S
C560 N564 1.427 1_554 S
C561 H551 0.929 . S
C561 C559 1.433 . S
C561 N564 1.384 . S
C562 H553 0.929 . S
C562 C554 1.378 . S
C562 C557 1.350 . S
C563 H550 0.929 . S
C563 C555 1.433 . S
C563 N565 1.384 . S
N564 C560 1.427 1_556 S
N564 C561 1.384 . S
N565 C557 1.427 . S
N565 C563 1.384 . S
H566 C572 0.930 . S
H567 C576 0.930 . S
H568 C581 0.929 . S
H569 C579 0.929 . S
H570 C574 0.929 . S
H571 C580 0.929 . S
C572 H566 0.930 . S
C572 C573 1.367 . S
C572 C580 1.378 . S
C573 C572 1.367 . S
C573 C581 1.433 . S
C574 H570 0.929 . S
C574 C576 1.378 . S
C574 C578 1.350 . S
C575 C578 1.463 1_554 S
C575 C580 1.350 . S
C575 N583 1.427 . S
C576 H567 0.930 . S
C576 C574 1.378 . S
C576 C577 1.367 . S
C577 C576 1.367 . S
C577 C579 1.433 . S
C578 C574 1.350 . S
C578 C575 1.463 1_556 S
C578 N582 1.427 . S
C579 H569 0.929 . S
C579 C577 1.433 . S
C579 N582 1.384 . S
C580 H571 0.929 . S
C580 C572 1.378 . S
C580 C575 1.350 . S
C581 H568 0.929 . S
C581 C573 1.433 . S
C581 N583 1.384 . S
N582 C578 1.427 . S
N582 C579 1.384 . S
N583 C575 1.427 . S
N583 C581 1.384 . S
H584 C590 0.930 . S
H585 C594 0.930 1_455 S
H586 C599 0.929 . S
H587 C597 0.929 . S
H588 C592 0.929 1_455 S
H589 C598 0.929 . S
C590 H584 0.930 . S
C590 C591 1.367 . S
C590 C598 1.378 . S
C591 C590 1.367 . S
C591 C599 1.433 . S
C592 H588 0.929 1_655 S
C592 C594 1.378 . S
C592 C596 1.350 . S
C593 C596 1.463 . S
C593 C598 1.350 . S
C593 N601 1.427 . S
C594 H585 0.930 1_655 S
C594 C592 1.378 . S
C594 C595 1.367 . S
C595 C594 1.367 . S
C595 C597 1.433 . S
C596 C592 1.350 . S
C596 C593 1.463 . S
C596 N600 1.427 . S
C597 H587 0.929 . S
C597 C595 1.433 . S
C597 N600 1.384 . S
C598 H589 0.929 . S
C598 C590 1.378 . S
C598 C593 1.350 . S
C599 H586 0.929 . S
C599 C591 1.433 . S
C599 N601 1.384 . S
N600 C596 1.427 . S
N600 C597 1.384 . S
N601 C593 1.427 . S
N601 C599 1.384 . S
H602 C608 0.930 . S
H603 C612 0.930 . S
H604 C617 0.929 . S
H605 C615 0.929 . S
H606 C610 0.929 . S
H607 C616 0.929 . S
C608 H602 0.930 . S
C608 C609 1.368 . S
C608 C616 1.378 . S
C609 C608 1.368 . S
C609 C617 1.432 1_545 S
C610 H606 0.929 . S
C610 C612 1.378 . S
C610 C614 1.350 . S
C611 C614 1.464 . S
C611 C616 1.313 1_565 S
C611 N619 1.467 . S
C612 H603 0.930 . S
C612 C610 1.378 . S
C612 C613 1.367 . S
C613 C612 1.367 . S
C613 C615 1.433 1_565 S
C614 C610 1.350 . S
C614 C611 1.464 . S
C614 N618 1.427 1_565 S
C615 H605 0.929 . S
C615 C613 1.433 1_545 S
C615 N618 1.384 . S
C616 H607 0.929 . S
C616 C608 1.378 . S
C616 C611 1.313 1_545 S
C617 H604 0.929 . S
C617 C609 1.432 1_565 S
C617 N619 1.384 . S
N618 C614 1.427 1_545 S
N618 C615 1.384 . S
N619 C611 1.467 . S
N619 C617 1.384 . S
H620 C626 0.930 . S
H621 C630 0.930 . S
H622 C635 0.929 . S
H623 C633 0.929 . S
H624 C628 0.929 . S
H625 C634 0.929 . S
C626 H620 0.930 . S
C626 C627 1.367 . S
C626 C634 1.378 . S
C627 C626 1.367 . S
C627 C635 1.433 . S
C628 H624 0.929 . S
C628 C630 1.378 . S
C628 C632 1.350 . S
C629 C632 1.463 . S
C629 C634 1.350 . S
C629 N637 1.427 . S
C630 H621 0.930 . S
C630 C628 1.378 . S
C630 C631 1.367 . S
C631 C630 1.367 . S
C631 C633 1.433 . S
C632 C628 1.350 . S
C632 C629 1.463 . S
C632 N636 1.427 . S
C633 H623 0.929 . S
C633 C631 1.433 . S
C633 N636 1.384 . S
C634 H625 0.929 . S
C634 C626 1.378 . S
C634 C629 1.350 . S
C635 H622 0.929 . S
C635 C627 1.433 . S
C635 N637 1.384 . S
N636 C632 1.427 . S
N636 C633 1.384 . S
N637 C629 1.427 . S
N637 C635 1.384 . S
H638 C644 0.930 . S
H639 C648 0.930 . S
H640 C653 0.929 . S
H641 C651 0.929 . S
H642 C646 0.929 . S
H643 C652 0.929 . S
C644 H638 0.930 . S
C644 C645 1.367 . S
C644 C652 1.378 . S
C645 C644 1.367 . S
C645 C653 1.433 . S
C646 H642 0.929 . S
C646 C648 1.378 . S
C646 C650 1.350 . S
C647 C650 1.463 . S
C647 C652 1.350 . S
C647 N655 1.427 . S
C648 H639 0.930 . S
C648 C646 1.378 . S
C648 C649 1.367 . S
C649 C648 1.367 . S
C649 C651 1.433 . S
C650 C646 1.350 . S
C650 C647 1.463 . S
C650 N654 1.427 . S
C651 H641 0.929 . S
C651 C649 1.433 . S
C651 N654 1.384 . S
C652 H643 0.929 . S
C652 C644 1.378 . S
C652 C647 1.350 . S
C653 H640 0.929 . S
C653 C645 1.433 . S
C653 N655 1.384 . S
N654 C650 1.427 . S
N654 C651 1.384 . S
N655 C647 1.427 . S
N655 C653 1.384 . S
C231 C74 1.821 1_565 S
C235 C105 1.835 . S
C253 C126 1.529 . S
C249 C85 1.520 . S
C271 C160 1.340 . S
C267 C52 1.324 . S
C289 C194 1.554 . S
C285 C63 1.556 . S
C307 C96 1.834 . S
C303 C30 1.812 1_556 S
C321 C41 1.501 1_556 S
C325 C135 1.538 . S
C339 C8 1.325 . S
C343 C169 1.335 . S
C357 C19 1.519 . S
C361 C203 1.554 1_655 S
C379 C117 0.556 . S
C375 C62 0.534 . S
C397 C122 1.017 . S
C393 C73 1.012 1_565 S
C415 C156 0.956 . S
C411 C84 0.954 . S
C429 C51 0.444 . S
C433 C190 0.414 . S
C447 C18 0.600 . S
C451 C88 0.554 . S
C469 C151 1.017 . S
C465 C29 1.006 1_556 S
C487 C185 0.950 . S
C483 C40 0.917 1_556 S
C501 C7 0.479 . S
C505 C219 0.417 . S
C519 C60 1.140 . S
C523 C101 1.303 1_554 S
C537 C71 1.473 . S
C541 C130 1.752 . S
C559 C164 1.538 . S
C555 C82 1.345 . S
C577 C198 1.595 . S
C573 C49 1.313 . S
C591 C16 1.051 . S
C595 C92 1.311 . S
C613 C139 1.752 . S
C609 C27 1.469 . S
C631 C173 1.536 . S
C627 C38 1.257 . S
C645 C5 1.377 . S
C649 C207 1.593 . S
