# Generated by pormake.
# Topology anh, (6,3)-cn, num edge types: 1
# Building blocks:
#     Node 0, Type 0, BuildingBlock: INOVEN_clean_sbu_0, # of connection points: 6
#     Node 1, Type 0, BuildingBlock: INOVEN_clean_sbu_0, # of connection points: 6
#     Node 2, Type 0, BuildingBlock: INOVEN_clean_sbu_0, # of connection points: 6
#     Node 3, Type 1, BuildingBlock: WUSLED_clean_sbu_0, # of connection points: 3
#     Node 4, Type 1, BuildingBlock: WUSLED_clean_sbu_0, # of connection points: 3
#     Node 5, Type 1, BuildingBlock: WUSLED_clean_sbu_0, # of connection points: 3
#     Node 6, Type 1, BuildingBlock: WUSLED_clean_sbu_0, # of connection points: 3
#     Node 7, Type 1, BuildingBlock: WUSLED_clean_sbu_0, # of connection points: 3
#     Node 8, Type 1, BuildingBlock: WUSLED_clean_sbu_0, # of connection points: 3
#     Edge 9, Type (0, 1), BuildingBlock: AJUNOK_clean_linker_0, # of connection points: 2
#     Edge 10, Type (0, 1), BuildingBlock: AJUNOK_clean_linker_0, # of connection points: 2
#     Edge 11, Type (0, 1), BuildingBlock: AJUNOK_clean_linker_0, # of connection points: 2
#     Edge 12, Type (0, 1), BuildingBlock: AJUNOK_clean_linker_0, # of connection points: 2
#     Edge 13, Type (0, 1), BuildingBlock: AJUNOK_clean_linker_0, # of connection points: 2
#     Edge 14, Type (0, 1), BuildingBlock: AJUNOK_clean_linker_0, # of connection points: 2
#     Edge 15, Type (0, 1), BuildingBlock: AJUNOK_clean_linker_0, # of connection points: 2
#     Edge 16, Type (0, 1), BuildingBlock: AJUNOK_clean_linker_0, # of connection points: 2
#     Edge 17, Type (0, 1), BuildingBlock: AJUNOK_clean_linker_0, # of connection points: 2
#     Edge 18, Type (0, 1), BuildingBlock: AJUNOK_clean_linker_0, # of connection points: 2
#     Edge 19, Type (0, 1), BuildingBlock: AJUNOK_clean_linker_0, # of connection points: 2
#     Edge 20, Type (0, 1), BuildingBlock: AJUNOK_clean_linker_0, # of connection points: 2
#     Edge 21, Type (0, 1), BuildingBlock: AJUNOK_clean_linker_0, # of connection points: 2
#     Edge 22, Type (0, 1), BuildingBlock: AJUNOK_clean_linker_0, # of connection points: 2
#     Edge 23, Type (0, 1), BuildingBlock: AJUNOK_clean_linker_0, # of connection points: 2
#     Edge 24, Type (0, 1), BuildingBlock: AJUNOK_clean_linker_0, # of connection points: 2
#     Edge 25, Type (0, 1), BuildingBlock: AJUNOK_clean_linker_0, # of connection points: 2
#     Edge 26, Type (0, 1), BuildingBlock: AJUNOK_clean_linker_0, # of connection points: 2
# Relax obj value: 0.190
# Max RMSD: 0.218
# Mean RMSD: 0.157
data_MOF--net-anh--node1-INOVEN_clean_sbu_0--node2-WUSLED_clean_sbu_0--edge1-AJUNOK_clean_linker_0
_symmetry_space_group_name_H-M    P1
_symmetry_Int_Tables_number       1
_symmetry_cell_setting            triclinic
loop_
_symmetry_equiv_pos_as_xyz
'x, y, z'
_cell_length_a     31.604236
_cell_length_b     37.540283
_cell_length_c     55.573683
_cell_angle_alpha  92.13007
_cell_angle_beta   90.634743
_cell_angle_gamma 128.95434
loop_
_atom_site_label
_atom_site_type_symbol
_atom_site_fract_x
_atom_site_fract_y
_atom_site_fract_z
_atom_type_partial_charge
Gd0 Gd 0.16112 0.55826 0.16667 0.0
Gd1 Gd 1.09037 0.5827 0.17554 0.0
C2 C 0.21905 0.66596 0.17612 0.0
C3 C 0.2262 0.54419 0.15123 0.0
C4 C 0.27644 0.56381 0.13842 0.0
C5 C 0.3275 0.59216 0.15091 0.0
C6 C 0.27254 0.547 0.11484 0.0
C7 C 0.36669 0.57795 0.1185 0.0
C8 C 0.31747 0.55428 0.10488 0.0
C9 C 0.37245 0.59929 0.14094 0.0
C10 C 0.12955 0.54754 0.21267 0.0
C11 C 1.03431 0.47714 0.1706 0.0
C12 C 1.03139 0.60202 0.19277 0.0
C13 C 0.97331 0.56963 0.1981 0.0
C14 C 0.93663 0.57446 0.18784 0.0
C15 C 0.95314 0.53026 0.21074 0.0
C16 C 0.86052 0.49871 0.20024 0.0
C17 C 0.89722 0.4952 0.21187 0.0
C18 C 0.88064 0.53928 0.18891 0.0
C19 C 0.09557 0.5646 0.128 0.0
O20 O 0.22609 0.63527 0.17122 0.0
O21 O 0.17002 0.65407 0.17755 0.0
O22 O 0.2308 0.56139 0.17294 0.0
O23 O 0.18316 0.53189 0.13863 0.0
O24 O 0.13318 0.51945 0.20063 0.0
O25 O 0.14379 0.58024 0.19995 0.0
O26 O 1.0336 0.50779 0.18239 0.0
O27 O 1.07738 0.49038 0.15853 0.0
O28 O 1.04226 0.60508 0.16992 0.0
O29 O 1.06376 0.59985 0.20623 0.0
O30 O 1.05114 0.55064 0.13819 0.0
O31 O 0.13492 0.58774 0.14333 0.0
H32 H 0.33185 0.60577 0.16911 0.0
H33 H 0.2337 0.52499 0.10483 0.0
H34 H 0.31203 0.53737 0.08755 0.0
H35 H 0.41033 0.61805 0.15162 0.0
H36 H 0.95124 0.60431 0.17792 0.0
H37 H 0.98042 0.52539 0.21882 0.0
H38 H 0.88272 0.46462 0.22102 0.0
H39 H 0.85311 0.54271 0.17966 0.0
Gd40 Gd 0.64396 0.02365 0.48456 0.0
Gd41 Gd 0.57031 0.0532 0.47555 0.0
C42 C 0.51407 0.94703 0.46944 0.0
C43 C 0.68445 0.99299 0.50867 0.0
C44 C 0.67917 0.95134 0.51073 0.0
C45 C 0.65137 0.91527 0.49291 0.0
C46 C 0.70033 0.94687 0.53163 0.0
C47 C 0.66643 0.87076 0.51701 0.0
C48 C 0.69398 0.907 0.53478 0.0
C49 C 0.64518 0.87529 0.49599 0.0
C50 C 0.62369 1.02086 0.43642 0.0
C51 C 0.70441 0.13122 0.48022 0.0
C52 C 0.53139 0.09429 0.46453 0.0
C53 C 0.54131 0.13569 0.47514 0.0
C54 C 0.57513 0.15851 0.49602 0.0
C55 C 0.51724 0.15276 0.46454 0.0
C56 C 0.56019 0.2148 0.49583 0.0
C57 C 0.52657 0.19198 0.4748 0.0
C58 C 0.58465 0.19776 0.50621 0.0
C59 C 0.58446 0.04006 0.52163 0.0
O60 O 0.55691 0.95719 0.48186 0.0
O61 O 0.51301 0.97942 0.46153 0.0
O62 O 0.70616 1.01609 0.48925 0.0
O63 O 0.64267 0.98981 0.51548 0.0
O64 O 0.65389 1.01151 0.44521 0.0
O65 O 0.60672 0.03043 0.45384 0.0
O66 O 0.65605 0.12012 0.47562 0.0
O67 O 0.71042 0.10042 0.4856 0.0
O68 O 0.5066 0.05918 0.47816 0.0
O69 O 0.57255 0.10124 0.45389 0.0
O70 O 0.53988 0.03037 0.51299 0.0
O71 O 0.6197 0.05833 0.50591 0.0
H72 H 0.63404 0.91784 0.47679 0.0
H73 H 0.72149 0.9742 0.54568 0.0
H74 H 0.71091 0.90457 0.55109 0.0
H75 H 0.62297 0.84762 0.48218 0.0
H76 H 0.59414 0.14588 0.50447 0.0
H77 H 0.49124 0.13574 0.44835 0.0
H78 H 0.50786 0.20469 0.46617 0.0
H79 H 0.6106 0.21445 0.52243 0.0
Gd80 Gd 0.66299 0.58831 0.85577 0.0
Gd81 Gd 0.58451 0.48497 0.8521 0.0
C82 C 0.52931 0.53403 0.85855 0.0
C83 C 0.71237 0.67315 0.84663 0.0
C84 C 0.69861 0.70284 0.83981 0.0
C85 C 0.67104 0.71192 0.85526 0.0
C86 C 0.71495 0.72374 0.81764 0.0
C87 C 0.67809 0.76329 0.82677 0.0
C88 C 0.70458 0.7534 0.81114 0.0
C89 C 0.66094 0.74182 0.8488 0.0
C90 C 0.64036 0.54742 0.89786 0.0
C91 C 0.71962 0.54043 0.85803 0.0
C92 C 0.53593 0.39828 0.85537 0.0
C93 C 0.54342 0.36496 0.84601 0.0
C94 C 0.51785 0.33951 0.82402 0.0
C95 C 0.57523 0.35745 0.8592 0.0
C96 C 0.5575 0.30134 0.82817 0.0
C97 C 0.58243 0.3262 0.85032 0.0
C98 C 0.52479 0.30812 0.81523 0.0
C99 C 0.6067 0.52414 0.80937 0.0
O100 O 0.57854 0.5717 0.85311 0.0
O101 O 0.52261 0.49585 0.86221 0.0
O102 O 0.70229 0.65848 0.86849 0.0
O103 O 0.70135 0.64196 0.83031 0.0
O104 O 0.68829 0.58513 0.89344 0.0
O105 O 0.60724 0.53582 0.88059 0.0
O106 O 0.66832 0.50144 0.85785 0.0
O107 O 0.72898 0.57994 0.85535 0.0
O108 O 0.52074 0.41396 0.83978 0.0
O109 O 0.57246 0.43013 0.8713 0.0
O110 O 0.5595 0.48731 0.81467 0.0
O111 O 0.64106 0.53725 0.82647 0.0
H112 H 0.65749 0.69618 0.8724 0.0
H113 H 0.7364 0.71753 0.8054 0.0
H114 H 0.71843 0.76946 0.79408 0.0
H115 H 0.63948 0.74802 0.86103 0.0
H116 H 0.49245 0.34387 0.81353 0.0
H117 H 0.59452 0.37565 0.87646 0.0
H118 H 0.60694 0.32105 0.86096 0.0
H119 H 0.50502 0.28945 0.79811 0.0
C120 C 0.75619 0.19124 0.18517 0.0
C121 C 0.77994 0.22167 0.20565 0.0
C122 C 0.84941 0.28368 0.18108 0.0
C123 C 0.82619 0.26763 0.2036 0.0
C124 C 0.8251 0.2529 0.1607 0.0
C125 C 0.77915 0.2072 0.16277 0.0
U126 U 0.64055 0.07923 0.21597 0.0
O127 O 0.55511 0.03164 0.20232 0.0
O128 O 0.60434 1.0088 0.20292 0.0
C129 C 0.55662 0.99786 0.19766 0.0
C130 C 0.70669 0.1431 0.18614 0.0
C131 C 0.50658 0.9504 0.20112 0.0
C132 C 0.40896 0.89228 0.19237 0.0
C133 C 0.45583 0.93825 0.19438 0.0
C134 C 0.46193 0.86925 0.20461 0.0
C135 C 0.41151 0.85714 0.19711 0.0
C136 C 0.50902 0.91539 0.20656 0.0
C137 C 0.63746 0.07705 0.28648 0.0
C138 C 0.61611 0.02199 0.31598 0.0
C139 C 0.62457 0.08881 0.32832 0.0
C140 C 0.63513 0.10272 0.30464 0.0
C141 C 0.61605 0.04878 0.3344 0.0
C142 C 0.62663 0.03593 0.29224 0.0
C143 C 0.65806 0.09718 0.26285 0.0
O144 O 0.71307 0.11412 0.19403 0.0
O145 O 0.66311 0.13608 0.19406 0.0
O146 O 0.62887 0.10401 0.24992 0.0
O147 O 0.67991 0.08293 0.24986 0.0
H148 H 0.76262 0.20999 0.22309 0.0
H149 H 0.84395 0.29057 0.21961 0.0
H150 H 0.84098 0.26436 0.14302 0.0
H151 H 0.76106 0.18431 0.14672 0.0
H152 H 0.37114 0.88419 0.18598 0.0
H153 H 0.45276 0.96421 0.18939 0.0
H154 H 0.46516 0.84293 0.20844 0.0
H155 H 0.54758 0.9234 0.21137 0.0
H156 H 0.60953 0.99091 0.3201 0.0
H157 H 0.62598 0.11074 0.3421 0.0
H158 H 0.64399 0.13482 0.30072 0.0
H159 H 0.62824 1.01543 0.27864 0.0
C160 C 0.64012 0.63238 0.54699 0.0
C161 C 0.66278 0.66939 0.56398 0.0
C162 C 0.64705 0.70885 0.53587 0.0
C163 C 0.66629 0.70726 0.55846 0.0
C164 C 0.62369 0.67134 0.51905 0.0
C165 C 0.62044 0.63358 0.52454 0.0
U166 U 0.63628 0.55688 0.59249 0.0
O167 O 0.58465 0.48176 0.59308 0.0
O168 O 0.67351 0.52307 0.5925 0.0
C169 C 0.62611 0.48166 0.59178 0.0
C170 C 0.63601 0.59217 0.55256 0.0
C171 C 0.61951 0.44691 0.57488 0.0
C172 C 0.57781 0.39459 0.53912 0.0
C173 C 0.5867 0.43044 0.55354 0.0
C174 C 0.63549 0.39215 0.56681 0.0
C175 C 0.60147 0.37455 0.5458 0.0
C176 C 0.64427 0.42781 0.58118 0.0
C177 C 0.64583 0.59089 0.66008 0.0
C178 C 0.67004 0.56802 0.69469 0.0
C179 C 0.61723 0.59403 0.70001 0.0
C180 C 0.61912 0.60089 0.67537 0.0
C181 C 0.64242 0.57733 0.70993 0.0
C182 C 0.6716 0.5746 0.66992 0.0
C183 C 0.64553 0.59756 0.63406 0.0
O184 O 0.6801 0.60125 0.56242 0.0
O185 O 0.59129 0.55933 0.5629 0.0
O186 O 0.59879 0.56743 0.62208 0.0
O187 O 0.68759 0.60833 0.62219 0.0
H188 H 0.67783 0.66902 0.58151 0.0
H189 H 0.68456 0.73556 0.57182 0.0
H190 H 0.60724 0.67089 0.50173 0.0
H191 H 0.60228 0.60514 0.51128 0.0
H192 H 0.55226 0.38242 0.52279 0.0
H193 H 0.56731 0.44475 0.54821 0.0
H194 H 0.65414 0.37741 0.57253 0.0
H195 H 0.66957 0.43985 0.59759 0.0
H196 H 0.68897 0.55435 0.70179 0.0
H197 H 0.59563 0.60143 0.71132 0.0
H198 H 0.59909 0.61358 0.66818 0.0
H199 H 0.69225 0.56641 0.65846 0.0
C200 C 1.00147 0.5385 0.88025 0.0
C201 C 1.00556 0.57744 0.88685 0.0
C202 C 0.90887 0.53846 0.87404 0.0
C203 C 0.96047 0.57735 0.88392 0.0
C204 C 0.90527 0.49976 0.86732 0.0
C205 C 0.95008 0.49979 0.8704 0.0
U206 U 0.12862 0.5398 0.90048 0.0
O207 O 0.15174 0.50199 0.88047 0.0
O208 O 0.20847 0.57649 0.88303 0.0
C209 C 0.20085 0.53897 0.87577 0.0
C210 C 1.05104 0.53951 0.87965 0.0
C211 C 0.24886 0.53785 0.87688 0.0
C212 C 0.34811 0.57727 0.88028 0.0
C213 C 0.3033 0.57747 0.88253 0.0
C214 C 0.28659 0.49781 0.86672 0.0
C215 C 0.34126 0.53763 0.87187 0.0
C216 C 0.24183 0.498 0.86903 0.0
C217 C 0.12297 0.53953 0.97324 0.0
C218 C 0.13056 0.52455 0.01483 0.0
C219 C 0.09572 0.56481 1.00647 0.0
C220 C 0.10218 0.56142 0.98159 0.0
C221 C 0.11101 0.54725 0.02342 0.0
C222 C 0.13625 0.52064 0.99012 0.0
C223 C 0.13697 0.53935 0.94777 0.0
O224 O 0.10012 0.57697 0.88656 0.0
O225 O 1.0451 0.50228 0.88368 0.0
O226 O 0.10568 0.50163 0.93378 0.0
O227 O 0.16168 0.57709 0.93607 0.0
H228 H 1.04414 0.60861 0.89394 0.0
H229 H 0.96633 0.60819 0.88943 0.0
H230 H 0.8681 0.46939 0.85876 0.0
H231 H 0.94479 0.46946 0.8642 0.0
H232 H 0.38844 0.60865 0.8853 0.0
H233 H 0.31167 0.60925 0.88838 0.0
H234 H 0.27816 0.46634 0.86012 0.0
H235 H 0.20133 0.46678 0.86396 0.0
H236 H 0.14201 0.51013 0.02731 0.0
H237 H 1.08045 0.58243 0.01253 0.0
H238 H 0.09202 0.57662 0.96902 0.0
H239 H 0.15268 0.50384 0.98422 0.0
C240 C 0.98939 0.4163 0.46904 0.0
C241 C 0.98001 0.38238 0.45258 0.0
C242 C 0.89751 0.32312 0.47279 0.0
C243 C 0.93451 0.3361 0.45452 0.0
C244 C 0.90746 0.35719 0.48928 0.0
C245 C 0.95282 0.4032 0.48739 0.0
U246 U 0.09922 0.52898 0.43765 0.0
O247 O 0.13068 0.59858 0.44988 0.0
O248 O 0.18545 0.58128 0.44947 0.0
C249 C 0.18049 0.61314 0.45396 0.0
C250 C 1.03757 0.46528 0.46831 0.0
C251 C 0.22653 0.66128 0.44883 0.0
C252 C 0.2709 0.74234 0.45703 0.0
C253 C 0.22432 0.69618 0.45649 0.0
C254 C 0.32261 0.72012 0.44103 0.0
C255 C 0.32105 0.7548 0.45009 0.0
C256 C 0.27595 0.67382 0.44054 0.0
C257 C 0.0958 0.5255 0.36672 0.0
C258 C 1.08014 0.54915 0.32957 0.0
C259 C 0.1386 0.52827 0.32985 0.0
C260 C 0.13023 0.52014 0.35435 0.0
C261 C 0.11271 0.54186 0.31706 0.0
C262 C 1.07158 0.54088 0.35412 0.0
C263 C 1.07808 0.50763 0.39108 0.0
O264 O 1.08243 0.47476 0.46026 0.0
O265 O 1.02856 0.49282 0.46078 0.0
O266 O 1.05584 0.52149 0.40409 0.0
O267 O 0.10949 0.50309 0.40395 0.0
H268 H 1.00774 0.39159 0.43829 0.0
H269 H 0.92777 0.31055 0.44155 0.0
H270 H 0.88028 0.34818 0.50379 0.0
H271 H 0.95954 0.42868 0.50043 0.0
H272 H 0.26827 0.76813 0.46413 0.0
H273 H 0.18715 0.68765 0.46335 0.0
H274 H 0.36034 0.72867 0.43501 0.0
H275 H 0.27928 0.64788 0.43466 0.0
H276 H 1.059 0.55895 0.32011 0.0
H277 H 0.16409 0.52254 0.32067 0.0
H278 H 0.14886 0.50763 0.3633 0.0
H279 H 1.04394 0.54447 0.36292 0.0
C280 C 0.62969 0.95691 0.78517 0.0
C281 C 0.65293 0.94398 0.76939 0.0
C282 C 0.64458 0.89334 0.79887 0.0
C283 C 0.66026 0.91247 0.77618 0.0
C284 C 0.62026 0.90574 0.81434 0.0
C285 C 0.6131 0.93728 0.80758 0.0
U286 U 0.61666 0.02422 0.73924 0.0
O287 O 0.56139 0.04125 0.73816 0.0
O288 O 0.64995 0.09639 0.741 0.0
C289 C 0.60151 0.08568 0.74039 0.0
C290 C 0.62266 0.99087 0.77879 0.0
C291 C 0.59342 0.11315 0.75641 0.0
C292 C 0.61657 0.16306 0.79211 0.0
C293 C 0.62232 0.13397 0.77864 0.0
C294 C 0.55244 0.15013 0.76153 0.0
C295 C 0.58207 0.17197 0.78352 0.0
C296 C 0.55811 0.12116 0.74818 0.0
C297 C 0.62038 1.00289 0.67127 0.0
C298 C 0.64868 0.05362 0.63826 0.0
C299 C 0.58059 0.97146 0.63069 0.0
C300 C 0.58463 0.96512 0.65501 0.0
C301 C 0.6127 1.01574 0.62202 0.0
C302 C 0.65242 0.0473 0.66267 0.0
C303 C 0.62346 0.99482 0.69691 0.0
O304 O 0.66494 0.02866 0.76982 0.0
O305 O 0.57638 0.97421 0.76746 0.0
O306 O 0.57781 0.97363 0.70826 0.0
O307 O 0.66625 0.02874 0.7101 0.0
H308 H 0.66574 0.95849 0.75193 0.0
H309 H 0.67904 0.90363 0.76383 0.0
H310 H 0.6064 0.89082 0.83166 0.0
H311 H 0.59464 0.94644 0.81994 0.0
H312 H 0.63917 0.1786 0.8092 0.0
H313 H 0.64979 0.12828 0.78542 0.0
H314 H 0.52584 0.1564 0.75428 0.0
H315 H 0.53569 0.10575 0.73102 0.0
H316 H 0.67322 0.08819 0.63217 0.0
H317 H 0.55256 0.94166 0.61859 0.0
H318 H 0.55961 0.93056 0.66117 0.0
H319 H 0.68014 0.07716 0.67478 0.0
C320 C 0.56825 0.35643 0.1306 0.0
C321 C 0.60947 0.3554 0.1228 0.0
C322 C 0.64198 0.36649 0.16438 0.0
C323 C 0.64635 0.36063 0.1396 0.0
C324 C 0.59569 0.36039 0.17211 0.0
C325 C 0.55922 0.35579 0.15525 0.0
U326 U 0.54494 0.382 0.06809 0.0
O327 O 0.47955 0.38288 0.05459 0.0
O328 O 0.56479 0.44588 0.05685 0.0
C329 C 0.51367 0.42762 0.05274 0.0
C330 C 0.54512 0.37042 0.11427 0.0
C331 C 0.49827 0.45384 0.06375 0.0
C332 C 0.51178 0.50771 0.0948 0.0
C333 C 0.52411 0.4804 0.0854 0.0
C334 C 0.44688 0.48149 0.06131 0.0
C335 C 0.47263 0.50812 0.08297 0.0
C336 C 0.4598 0.45467 0.05173 0.0
C337 C 0.58518 0.37256 0.01018 0.0
C338 C 0.55551 0.40292 0.98312 0.0
C339 C 0.63746 0.41283 0.97531 0.0
C340 C 0.63005 0.3893 0.99598 0.0
C341 C 0.60073 0.42073 0.96898 0.0
C342 C 0.54728 0.37842 1.00302 0.0
C343 C 0.58351 0.36001 0.03512 0.0
O344 O 0.58211 0.40919 0.10429 0.0
O345 O 0.50514 0.33871 0.09915 0.0
O346 O 0.53408 0.32973 0.04291 0.0
O347 O 0.6155 0.39591 0.05024 0.0
H348 H 0.61698 0.35601 0.10378 0.0
H349 H 0.68177 0.36578 0.1329 0.0
H350 H 0.59104 0.36428 0.19108 0.0
H351 H 0.52741 0.35652 0.16152 0.0
H352 H 0.53281 0.52843 0.11132 0.0
H353 H 0.55427 0.48046 0.09492 0.0
H354 H 0.41607 0.4808 0.05198 0.0
H355 H 0.43983 0.43464 0.03492 0.0
H356 H 0.52782 0.41013 0.9798 0.0
H357 H 0.67289 0.42632 0.96483 0.0
H358 H 0.66061 0.3863 1.00153 0.0
H359 H 0.51312 0.36715 0.01394 0.0
C360 C 0.42414 0.57799 0.08807 0.0
C361 C 0.40576 0.57064 0.11165 0.0
C362 C 0.44901 0.56002 0.07931 0.0
C363 C 0.45577 0.53381 0.09379 0.0
H364 H 0.4166 0.5956 0.07597 0.0
H365 H 0.46082 0.56493 0.06075 0.0
S366 S 0.41611 0.50623 0.15711 0.0
N367 N 0.3981 0.53732 0.14967 0.0
N368 N 0.44404 0.50299 0.13311 0.0
C369 C 0.44025 0.52841 0.11782 0.0
C370 C 0.4154 0.547 0.12678 0.0
C371 C 0.80591 0.19321 0.47761 0.0
C372 C 0.75349 0.18047 0.479 0.0
C373 C 0.85222 0.23921 0.47528 0.0
C374 C 0.84806 0.27436 0.47456 0.0
H375 H 0.81127 0.16744 0.478 0.0
H376 H 0.89169 0.24741 0.47432 0.0
S377 S 0.72087 0.25997 0.47731 0.0
N378 N 0.70083 0.2077 0.4794 0.0
N379 N 0.7875 0.29339 0.47497 0.0
C380 C 0.79612 0.26224 0.47597 0.0
C381 C 0.74901 0.21557 0.4782 0.0
C382 C 0.6468 0.79262 0.79722 0.0
C383 C 0.66924 0.79646 0.82015 0.0
C384 C 0.63902 0.82396 0.79048 0.0
C385 C 0.65346 0.86053 0.80637 0.0
H386 H 0.63467 0.76487 0.78444 0.0
H387 H 0.62096 0.81918 0.77277 0.0
S388 S 0.71832 0.88826 0.86767 0.0
N389 N 0.70859 0.84128 0.85823 0.0
N390 N 0.69438 0.90019 0.84558 0.0
C391 C 0.67669 0.86512 0.82922 0.0
C392 C 0.68445 0.83314 0.83609 0.0
C393 C 0.76322 0.46538 0.20127 0.0
C394 C 0.80184 0.45889 0.19748 0.0
C395 C 0.70911 0.43223 0.19295 0.0
C396 C 0.69171 0.3914 0.18044 0.0
H397 H 0.77577 0.49768 0.20922 0.0
H398 H 0.68226 0.44082 0.19432 0.0
S399 S 0.77455 0.3541 0.17017 0.0
N400 N 0.81755 0.406 0.18344 0.0
N401 N 0.71505 0.343 0.16839 0.0
C402 C 0.72848 0.38229 0.17901 0.0
C403 C 0.78381 0.41623 0.18737 0.0
C404 C 0.4191 0.88575 0.45172 0.0
C405 C 0.46607 0.8977 0.46402 0.0
C406 C 0.37296 0.83966 0.44686 0.0
C407 C 0.37182 0.80343 0.45391 0.0
H408 H 0.41757 0.91216 0.44593 0.0
H409 H 0.33775 0.83233 0.43755 0.0
S410 S 0.48354 0.81544 0.48672 0.0
N411 N 0.50814 0.86869 0.48303 0.0
N412 N 0.42146 0.78258 0.47412 0.0
C413 C 0.41854 0.81474 0.466 0.0
C414 C 0.46552 0.86163 0.47101 0.0
C415 C 0.51939 0.22364 0.81007 0.0
C416 C 0.56494 0.26807 0.81846 0.0
C417 C 0.52531 0.19247 0.79957 0.0
C418 C 0.57705 0.20441 0.79689 0.0
H419 H 0.47873 0.2129 0.81152 0.0
H420 H 0.48893 0.15878 0.79327 0.0
S421 S 0.70953 0.31707 0.81539 0.0
N422 N 0.66363 0.32261 0.82329 0.0
N423 N 0.67487 0.26431 0.80334 0.0
C424 C 0.62296 0.24856 0.80555 0.0
C425 C 0.61688 0.28028 0.81635 0.0
C426 C 0.6401 0.8065 0.54265 0.0
C427 C 0.65964 0.82835 0.5208 0.0
C428 C 0.63566 0.76776 0.54722 0.0
C429 C 0.65077 0.7493 0.53017 0.0
H430 H 0.62803 0.81945 0.55635 0.0
H431 H 0.62006 0.75205 0.56425 0.0
S432 S 0.70717 0.79526 0.47063 0.0
N433 N 0.69561 0.82945 0.4822 0.0
N434 N 0.68788 0.757 0.49083 0.0
C435 C 0.67037 0.77083 0.50822 0.0
C436 C 0.67464 0.8102 0.50353 0.0
C437 C 0.82259 0.5785 0.85947 0.0
C438 C 0.76747 0.53939 0.86202 0.0
C439 C 0.86714 0.57807 0.86343 0.0
C440 C 0.85997 0.5385 0.87028 0.0
H441 H 0.83171 0.61007 0.8542 0.0
H442 H 0.90783 0.60925 0.86072 0.0
S443 S 0.72457 0.42743 0.88158 0.0
N444 N 0.70951 0.46009 0.87312 0.0
N445 N 0.79144 0.45952 0.88087 0.0
C446 C 0.80501 0.49939 0.8733 0.0
C447 C 0.75971 0.49979 0.86917 0.0
C448 C 0.31912 0.73168 0.17378 0.0
C449 C 0.26751 0.71483 0.1815 0.0
C450 C 0.36555 0.77742 0.17923 0.0
C451 C 0.36231 0.80808 0.19276 0.0
H452 H 0.3237 0.70953 0.16322 0.0
H453 H 0.40412 0.78907 0.17241 0.0
S454 S 0.2381 0.77999 0.21947 0.0
N455 N 0.21682 0.73198 0.20476 0.0
N456 N 0.30399 0.81738 0.21519 0.0
C457 C 0.31126 0.79138 0.20109 0.0
C458 C 0.26396 0.74497 0.19543 0.0
C459 C 0.62307 0.29564 0.51396 0.0
C460 C 0.56977 0.25612 0.50717 0.0
C461 C 0.63299 0.33409 0.52584 0.0
C462 C 0.59005 0.33466 0.53148 0.0
H463 H 0.65744 0.2968 0.51012 0.0
H464 H 0.67471 0.36358 0.5308 0.0
S465 S 0.44283 0.2391 0.51858 0.0
N466 N 0.47342 0.21956 0.50744 0.0
N467 N 0.49199 0.29162 0.52983 0.0
C468 C 0.53659 0.2955 0.5246 0.0
C469 C 0.52649 0.25635 0.51246 0.0
C470 C 0.43075 0.49797 0.87006 0.0
C471 C 0.4817 0.53549 0.86157 0.0
C472 C 0.38658 0.49892 0.87326 0.0
C473 C 0.39002 0.53755 0.86832 0.0
H474 H 0.42474 0.46726 0.87449 0.0
H475 H 0.34934 0.46893 0.88007 0.0
S476 S 0.51278 0.64439 0.84406 0.0
N477 N 0.53127 0.61232 0.84743 0.0
N478 N 0.44972 0.61387 0.85301 0.0
C479 C 0.44062 0.57512 0.85951 0.0
C480 C 0.4856 0.57415 0.85626 0.0
C481 C 0.9424 0.41426 0.18579 0.0
C482 C 0.9876 0.42745 0.17251 0.0
C483 C 0.89862 0.36793 0.18885 0.0
C484 C 0.89772 0.33267 0.17857 0.0
H485 H 0.94066 0.43988 0.19404 0.0
H486 H 0.86477 0.35966 0.19908 0.0
S487 S 1.00683 0.34814 0.14332 0.0
N488 N 1.02924 0.40086 0.14971 0.0
N489 N 0.94699 0.31398 0.15552 0.0
C490 C 0.94275 0.3452 0.16547 0.0
C491 C 0.98755 0.39244 0.16241 0.0
C492 C 1.05493 0.54062 0.0854 0.0
C493 C 0.10061 0.56098 0.1014 0.0
C494 C 1.05869 0.53717 0.06025 0.0
C495 C 0.10809 0.55326 0.05004 0.0
H496 H 1.01582 0.52724 0.09234 0.0
H497 H 1.02238 0.52098 0.04873 0.0
S498 S 0.24035 0.61124 0.08365 0.0
N499 N 0.19747 0.59917 0.10481 0.0
N500 N 0.20409 0.59167 0.0579 0.0
C501 C 0.15409 0.57393 0.0658 0.0
C502 C 0.15048 0.57804 0.09132 0.0
C503 C 0.64865 0.02211 0.39389 0.0
C504 C 0.61732 0.02498 0.4104 0.0
C505 C 0.64657 0.0284 0.36932 0.0
C506 C 0.61299 0.03778 0.36017 0.0
H507 H 0.67611 1.01598 0.40005 0.0
H508 H 0.67289 0.02738 0.35753 0.0
S509 S 0.51818 0.04363 0.39537 0.0
N510 N 0.54842 0.03419 0.41555 0.0
N511 N 0.5444 0.04606 0.36934 0.0
C512 C 0.57995 0.03914 0.37634 0.0
C513 C 0.58207 0.03266 0.40143 0.0
C514 C 0.57492 0.52584 0.76868 0.0
C515 C 0.61874 0.54113 0.78474 0.0
C516 C 0.58329 0.53833 0.74473 0.0
C517 C 0.63584 0.56633 0.73574 0.0
H518 H 0.53349 0.50359 0.77457 0.0
H519 H 0.5481 0.52512 0.733 0.0
S520 S 0.76477 0.61726 0.77057 0.0
N521 N 0.71697 0.58715 0.7902 0.0
N522 N 0.73275 0.61049 0.74497 0.0
C523 C 0.68026 0.5825 0.75165 0.0
C524 C 0.67173 0.57008 0.77622 0.0
C525 C 0.5484 1.00743 0.5616 0.0
C526 C 0.59329 0.03395 0.54692 0.0
C527 C 0.55508 1.00147 0.58573 0.0
C528 C 0.60702 0.0222 0.59625 0.0
H529 H 0.50761 0.99105 0.5544 0.0
H530 H 0.51932 0.98097 0.59636 0.0
S531 S 0.73778 0.09415 0.56547 0.0
N532 N 0.69155 0.0807 0.54458 0.0
N533 N 0.70406 0.06935 0.58993 0.0
C534 C 0.65229 0.04866 0.58176 0.0
C535 C 0.64544 0.05452 0.55711 0.0
C536 C 0.67298 0.52428 0.93036 0.0
C537 C 0.62982 0.51555 0.91626 0.0
C538 C 0.66376 0.49266 0.94673 0.0
C539 C 0.61119 0.45084 0.94927 0.0
H540 H 0.71414 0.55574 0.92878 0.0
H541 H 0.69786 0.50166 0.9579 0.0
S542 S 0.48491 0.41064 0.91535 0.0
N543 N 0.53254 0.46243 0.90613 0.0
N544 N 0.51626 0.40111 0.93472 0.0
C545 C 0.56813 0.44119 0.93458 0.0
C546 C 0.57713 0.47409 0.91874 0.0
C547 C 0.10876 0.50852 0.25118 0.0
C548 C 0.1233 0.54682 0.2391 0.0
C549 C 0.10538 0.50737 0.2763 0.0
C550 C 0.11613 0.54438 0.2904 0.0
H551 H 0.10029 0.47918 0.24118 0.0
H552 H 0.094 0.47705 0.28476 0.0
S553 S 0.15627 0.65306 0.26767 0.0
N554 N 0.14886 0.62296 0.24319 0.0
N555 N 0.14196 0.62055 0.29044 0.0
C556 C 0.12997 0.5827 0.27856 0.0
C557 C 0.13373 0.584 0.25292 0.0
loop_
_geom_bond_atom_site_label_1
_geom_bond_atom_site_label_2
_geom_bond_distance
_geom_bond_site_symmetry_2
_ccdc_geom_bond_type
Gd0 C3 2.818 . S
Gd0 O20 2.377 . S
Gd0 O22 2.448 . S
Gd0 O23 2.506 . S
Gd0 O24 2.435 . S
Gd0 O25 2.717 . S
Gd0 O27 2.395 1_455 S
Gd0 O31 2.327 . S
Gd1 C12 2.818 . S
Gd1 O21 2.395 1_655 S
Gd1 O25 2.327 1_655 S
Gd1 O26 2.377 . S
Gd1 O28 2.448 . S
Gd1 O29 2.506 . S
Gd1 O30 2.441 . S
Gd1 O31 2.717 1_655 S
C2 O20 1.240 . S
C2 O21 1.240 . S
C3 Gd0 2.818 . S
C3 C4 1.510 . S
C3 O22 1.249 . S
C3 O23 1.252 . S
C4 C3 1.510 . S
C4 C5 1.404 . S
C4 C6 1.352 . S
C5 C4 1.404 . S
C5 C9 1.389 . S
C5 H32 0.930 . S
C6 C4 1.352 . S
C6 C8 1.374 . S
C6 H33 0.931 . S
C7 C8 1.359 . S
C7 C9 1.364 . S
C8 C6 1.374 . S
C8 C7 1.359 . S
C8 H34 0.931 . S
C9 C5 1.389 . S
C9 C7 1.364 . S
C9 H35 0.931 . S
C10 O24 1.256 . S
C10 O25 1.257 . S
C11 O26 1.240 . S
C11 O27 1.240 . S
C12 Gd1 2.818 . S
C12 C13 1.510 . S
C12 O28 1.249 . S
C12 O29 1.252 . S
C13 C12 1.510 . S
C13 C14 1.404 . S
C13 C15 1.352 . S
C14 C13 1.404 . S
C14 C18 1.389 . S
C14 H36 0.930 . S
C15 C13 1.352 . S
C15 C17 1.374 . S
C15 H37 0.931 . S
C16 C17 1.359 . S
C16 C18 1.364 . S
C17 C15 1.374 . S
C17 C16 1.359 . S
C17 H38 0.931 . S
C18 C14 1.389 . S
C18 C16 1.364 . S
C18 H39 0.931 . S
C19 O30 1.230 1_455 S
C19 O31 1.257 . S
O20 Gd0 2.377 . S
O20 C2 1.240 . S
O21 Gd1 2.395 1_455 S
O21 C2 1.240 . S
O22 Gd0 2.448 . S
O22 C3 1.249 . S
O23 Gd0 2.506 . S
O23 C3 1.252 . S
O24 Gd0 2.435 . S
O24 C10 1.256 . S
O25 Gd0 2.717 . S
O25 Gd1 2.327 1_455 S
O25 C10 1.257 . S
O26 Gd1 2.377 . S
O26 C11 1.240 . S
O27 Gd0 2.395 1_655 S
O27 C11 1.240 . S
O28 Gd1 2.448 . S
O28 C12 1.249 . S
O29 Gd1 2.506 . S
O29 C12 1.252 . S
O30 Gd1 2.441 . S
O30 C19 1.230 1_655 S
O31 Gd0 2.327 . S
O31 Gd1 2.717 1_455 S
O31 C19 1.257 . S
H32 C5 0.930 . S
H33 C6 0.931 . S
H34 C8 0.931 . S
H35 C9 0.931 . S
H36 C14 0.930 . S
H37 C15 0.931 . S
H38 C17 0.931 . S
H39 C18 0.931 . S
Gd40 C43 2.818 . S
Gd40 O60 2.377 . S
Gd40 O62 2.448 . S
Gd40 O63 2.506 . S
Gd40 O64 2.435 . S
Gd40 O65 2.717 1_565 S
Gd40 O67 2.395 1_565 S
Gd40 O71 2.327 1_565 S
Gd41 C52 2.818 . S
Gd41 O61 2.395 1_545 S
Gd41 O65 2.327 . S
Gd41 O66 2.377 . S
Gd41 O68 2.448 . S
Gd41 O69 2.506 . S
Gd41 O70 2.435 . S
Gd41 O71 2.717 . S
C42 O60 1.240 . S
C42 O61 1.240 . S
C43 Gd40 2.818 . S
C43 C44 1.510 . S
C43 O62 1.249 . S
C43 O63 1.252 . S
C44 C43 1.510 . S
C44 C45 1.404 . S
C44 C46 1.352 . S
C45 C44 1.404 . S
C45 C49 1.389 . S
C45 H72 0.930 . S
C46 C44 1.352 . S
C46 C48 1.374 . S
C46 H73 0.931 . S
C47 C48 1.359 . S
C47 C49 1.364 . S
C48 C46 1.374 . S
C48 C47 1.359 . S
C48 H74 0.931 . S
C49 C45 1.389 . S
C49 C47 1.364 . S
C49 H75 0.931 . S
C50 O64 1.256 1_545 S
C50 O65 1.257 . S
C51 O66 1.240 . S
C51 O67 1.240 . S
C52 Gd41 2.818 . S
C52 C53 1.510 . S
C52 O68 1.249 . S
C52 O69 1.252 . S
C53 C52 1.510 . S
C53 C54 1.404 . S
C53 C55 1.352 . S
C54 C53 1.404 . S
C54 C58 1.389 . S
C54 H76 0.930 . S
C55 C53 1.352 . S
C55 C57 1.374 . S
C55 H77 0.931 . S
C56 C57 1.359 . S
C56 C58 1.364 . S
C57 C55 1.374 . S
C57 C56 1.359 . S
C57 H78 0.931 . S
C58 C54 1.389 . S
C58 C56 1.364 . S
C58 H79 0.931 . S
C59 O70 1.256 . S
C59 O71 1.257 . S
O60 Gd40 2.377 . S
O60 C42 1.240 . S
O61 Gd41 2.395 1_565 S
O61 C42 1.240 . S
O62 Gd40 2.448 . S
O62 C43 1.249 . S
O63 Gd40 2.506 . S
O63 C43 1.252 . S
O64 Gd40 2.435 . S
O64 C50 1.256 1_565 S
O65 Gd40 2.717 1_545 S
O65 Gd41 2.327 . S
O65 C50 1.257 . S
O66 Gd41 2.377 . S
O66 C51 1.240 . S
O67 Gd40 2.395 1_545 S
O67 C51 1.240 . S
O68 Gd41 2.448 . S
O68 C52 1.249 . S
O69 Gd41 2.506 . S
O69 C52 1.252 . S
O70 Gd41 2.435 . S
O70 C59 1.256 . S
O71 Gd40 2.327 1_545 S
O71 Gd41 2.717 . S
O71 C59 1.257 . S
H72 C45 0.930 . S
H73 C46 0.931 . S
H74 C48 0.931 . S
H75 C49 0.931 . S
H76 C54 0.930 . S
H77 C55 0.931 . S
H78 C57 0.931 . S
H79 C58 0.931 . S
Gd80 C83 2.818 . S
Gd80 O100 2.377 . S
Gd80 O102 2.448 . S
Gd80 O103 2.506 . S
Gd80 O104 2.435 . S
Gd80 O105 2.717 . S
Gd80 O107 2.395 . S
Gd80 O111 2.327 . S
Gd81 C92 2.818 . S
Gd81 O101 2.395 . S
Gd81 O105 2.327 . S
Gd81 O106 2.377 . S
Gd81 O108 2.448 . S
Gd81 O109 2.506 . S
Gd81 O110 2.435 . S
Gd81 O111 2.717 . S
C82 O100 1.240 . S
C82 O101 1.240 . S
C83 Gd80 2.818 . S
C83 C84 1.510 . S
C83 O102 1.249 . S
C83 O103 1.252 . S
C84 C83 1.510 . S
C84 C85 1.404 . S
C84 C86 1.352 . S
C85 C84 1.404 . S
C85 C89 1.389 . S
C85 H112 0.930 . S
C86 C84 1.352 . S
C86 C88 1.374 . S
C86 H113 0.931 . S
C87 C88 1.359 . S
C87 C89 1.364 . S
C88 C86 1.374 . S
C88 C87 1.359 . S
C88 H114 0.931 . S
C89 C85 1.389 . S
C89 C87 1.364 . S
C89 H115 0.931 . S
C90 O104 1.256 . S
C90 O105 1.257 . S
C91 O106 1.240 . S
C91 O107 1.240 . S
C92 Gd81 2.818 . S
C92 C93 1.510 . S
C92 O108 1.249 . S
C92 O109 1.252 . S
C93 C92 1.510 . S
C93 C94 1.404 . S
C93 C95 1.352 . S
C94 C93 1.404 . S
C94 C98 1.389 . S
C94 H116 0.930 . S
C95 C93 1.352 . S
C95 C97 1.374 . S
C95 H117 0.931 . S
C96 C97 1.359 . S
C96 C98 1.364 . S
C97 C95 1.374 . S
C97 C96 1.359 . S
C97 H118 0.931 . S
C98 C94 1.389 . S
C98 C96 1.364 . S
C98 H119 0.931 . S
C99 O110 1.256 . S
C99 O111 1.257 . S
O100 Gd80 2.377 . S
O100 C82 1.240 . S
O101 Gd81 2.395 . S
O101 C82 1.240 . S
O102 Gd80 2.448 . S
O102 C83 1.249 . S
O103 Gd80 2.506 . S
O103 C83 1.252 . S
O104 Gd80 2.435 . S
O104 C90 1.256 . S
O105 Gd80 2.717 . S
O105 Gd81 2.327 . S
O105 C90 1.257 . S
O106 Gd81 2.377 . S
O106 C91 1.240 . S
O107 Gd80 2.395 . S
O107 C91 1.240 . S
O108 Gd81 2.448 . S
O108 C92 1.249 . S
O109 Gd81 2.506 . S
O109 C92 1.252 . S
O110 Gd81 2.435 . S
O110 C99 1.256 . S
O111 Gd80 2.327 . S
O111 Gd81 2.717 . S
O111 C99 1.257 . S
H112 C85 0.930 . S
H113 C86 0.931 . S
H114 C88 0.931 . S
H115 C89 0.931 . S
H116 C94 0.930 . S
H117 C95 0.931 . S
H118 C97 0.931 . S
H119 C98 0.931 . S
C120 C121 1.264 . S
C120 C125 1.479 . S
C120 C130 1.465 . S
C121 C120 1.264 . S
C121 C123 1.339 . S
C121 H148 0.931 . S
C122 C123 1.395 . S
C122 C124 1.320 . S
C123 C121 1.339 . S
C123 C122 1.395 . S
C123 H149 0.929 . S
C124 C122 1.320 . S
C124 C125 1.405 . S
C124 H150 0.930 . S
C125 C120 1.479 . S
C125 C124 1.405 . S
C125 H151 0.931 . S
U126 O127 2.454 1_545 S
U126 O128 2.458 1_545 S
U126 C129 2.984 1_545 S
U126 C130 2.847 . S
U126 C143 2.882 . S
U126 O144 2.441 . S
U126 O145 2.420 . S
U126 O146 2.455 1_545 S
U126 O147 2.449 . S
O127 U126 2.454 1_565 S
O127 C129 1.353 . S
O128 U126 2.458 1_565 S
O128 C129 1.286 . S
C129 U126 2.984 1_565 S
C129 O127 1.353 . S
C129 O128 1.286 . S
C129 C131 1.363 . S
C130 C120 1.465 . S
C130 U126 2.847 . S
C130 O144 1.249 . S
C130 O145 1.202 . S
C131 C129 1.363 . S
C131 C133 1.408 . S
C131 C136 1.342 . S
C132 C133 1.310 . S
C132 C135 1.461 . S
C132 H152 0.932 . S
C133 C131 1.408 . S
C133 C132 1.310 . S
C133 H153 0.930 . S
C134 C135 1.474 . S
C134 C136 1.285 . S
C134 H154 0.929 . S
C135 C132 1.461 . S
C135 C134 1.474 . S
C136 C131 1.342 . S
C136 C134 1.285 . S
C136 H155 0.930 . S
C137 C140 1.424 . S
C137 C142 1.245 1_545 S
C137 C143 1.428 . S
C138 C141 1.260 . S
C138 C142 1.477 1_545 S
C138 H156 0.932 1_545 S
C139 C140 1.384 . S
C139 C141 1.479 . S
C139 H157 0.929 . S
C140 C137 1.424 . S
C140 C139 1.384 . S
C140 H158 0.928 . S
C141 C138 1.260 . S
C141 C139 1.479 . S
C142 C137 1.245 1_565 S
C142 C138 1.477 1_565 S
C142 H159 0.932 . S
C143 U126 2.882 . S
C143 C137 1.428 . S
C143 O146 1.301 1_545 S
C143 O147 1.282 . S
O144 U126 2.441 . S
O144 C130 1.249 . S
O145 U126 2.420 . S
O145 C130 1.202 . S
O146 U126 2.455 1_565 S
O146 C143 1.301 1_565 S
O147 U126 2.449 . S
O147 C143 1.282 . S
H148 C121 0.931 . S
H149 C123 0.929 . S
H150 C124 0.930 . S
H151 C125 0.931 . S
H152 C132 0.932 . S
H153 C133 0.930 . S
H154 C134 0.929 . S
H155 C136 0.930 . S
H156 C138 0.932 1_565 S
H157 C139 0.929 . S
H158 C140 0.928 . S
H159 C142 0.932 . S
C160 C161 1.264 . S
C160 C165 1.479 . S
C160 C170 1.465 . S
C161 C160 1.264 . S
C161 C163 1.339 . S
C161 H188 0.931 . S
C162 C163 1.395 . S
C162 C164 1.320 . S
C163 C161 1.339 . S
C163 C162 1.395 . S
C163 H189 0.929 . S
C164 C162 1.320 . S
C164 C165 1.405 . S
C164 H190 0.930 . S
C165 C160 1.479 . S
C165 C164 1.405 . S
C165 H191 0.931 . S
U166 O167 2.454 . S
U166 O168 2.458 . S
U166 C169 2.984 . S
U166 C170 2.847 . S
U166 C183 2.882 . S
U166 O184 2.441 . S
U166 O185 2.420 . S
U166 O186 2.455 . S
U166 O187 2.449 . S
O167 U166 2.454 . S
O167 C169 1.353 . S
O168 U166 2.458 . S
O168 C169 1.286 . S
C169 U166 2.984 . S
C169 O167 1.353 . S
C169 O168 1.286 . S
C169 C171 1.363 . S
C170 C160 1.465 . S
C170 U166 2.847 . S
C170 O184 1.249 . S
C170 O185 1.202 . S
C171 C169 1.363 . S
C171 C173 1.408 . S
C171 C176 1.342 . S
C172 C173 1.310 . S
C172 C175 1.461 . S
C172 H192 0.932 . S
C173 C171 1.408 . S
C173 C172 1.310 . S
C173 H193 0.930 . S
C174 C175 1.474 . S
C174 C176 1.285 . S
C174 H194 0.929 . S
C175 C172 1.461 . S
C175 C174 1.474 . S
C176 C171 1.342 . S
C176 C174 1.285 . S
C176 H195 0.930 . S
C177 C180 1.424 . S
C177 C182 1.245 . S
C177 C183 1.428 . S
C178 C181 1.260 . S
C178 C182 1.477 . S
C178 H196 0.932 . S
C179 C180 1.384 . S
C179 C181 1.479 . S
C179 H197 0.929 . S
C180 C177 1.424 . S
C180 C179 1.384 . S
C180 H198 0.928 . S
C181 C178 1.260 . S
C181 C179 1.479 . S
C182 C177 1.245 . S
C182 C178 1.477 . S
C182 H199 0.932 . S
C183 U166 2.882 . S
C183 C177 1.428 . S
C183 O186 1.301 . S
C183 O187 1.282 . S
O184 U166 2.441 . S
O184 C170 1.249 . S
O185 U166 2.420 . S
O185 C170 1.202 . S
O186 U166 2.455 . S
O186 C183 1.301 . S
O187 U166 2.449 . S
O187 C183 1.282 . S
H188 C161 0.931 . S
H189 C163 0.929 . S
H190 C164 0.930 . S
H191 C165 0.931 . S
H192 C172 0.932 . S
H193 C173 0.930 . S
H194 C174 0.929 . S
H195 C176 0.930 . S
H196 C178 0.932 . S
H197 C179 0.929 . S
H198 C180 0.928 . S
H199 C182 0.932 . S
C200 C201 1.264 . S
C200 C205 1.479 . S
C200 C210 1.465 . S
C201 C200 1.264 . S
C201 C203 1.339 . S
C201 H228 0.931 . S
C202 C203 1.395 . S
C202 C204 1.320 . S
C203 C201 1.339 . S
C203 C202 1.395 . S
C203 H229 0.929 . S
C204 C202 1.320 . S
C204 C205 1.405 . S
C204 H230 0.930 . S
C205 C200 1.479 . S
C205 C204 1.405 . S
C205 H231 0.931 . S
U206 O207 2.454 . S
U206 O208 2.458 . S
U206 C209 2.984 . S
U206 C210 2.847 1_455 S
U206 C223 2.882 . S
U206 O224 2.441 . S
U206 O225 2.420 1_455 S
U206 O226 2.455 . S
U206 O227 2.449 . S
O207 U206 2.454 . S
O207 C209 1.353 . S
O208 U206 2.458 . S
O208 C209 1.286 . S
C209 U206 2.984 . S
C209 O207 1.353 . S
C209 O208 1.286 . S
C209 C211 1.363 . S
C210 C200 1.465 . S
C210 U206 2.847 1_655 S
C210 O224 1.249 1_655 S
C210 O225 1.202 . S
C211 C209 1.363 . S
C211 C213 1.408 . S
C211 C216 1.342 . S
C212 C213 1.310 . S
C212 C215 1.461 . S
C212 H232 0.932 . S
C213 C211 1.408 . S
C213 C212 1.310 . S
C213 H233 0.930 . S
C214 C215 1.474 . S
C214 C216 1.285 . S
C214 H234 0.929 . S
C215 C212 1.461 . S
C215 C214 1.474 . S
C216 C211 1.342 . S
C216 C214 1.285 . S
C216 H235 0.930 . S
C217 C220 1.424 . S
C217 C222 1.245 . S
C217 C223 1.428 . S
C218 C221 1.260 1_556 S
C218 C222 1.477 . S
C218 H236 0.932 1_556 S
C219 C220 1.384 . S
C219 C221 1.479 1_556 S
C219 H237 0.929 1_456 S
C220 C217 1.424 . S
C220 C219 1.384 . S
C220 H238 0.928 1_455 S
C221 C218 1.260 1_554 S
C221 C219 1.479 1_554 S
C222 C217 1.245 . S
C222 C218 1.477 . S
C222 H239 0.932 . S
C223 U206 2.882 . S
C223 C217 1.428 . S
C223 O226 1.301 . S
C223 O227 1.282 . S
O224 U206 2.441 . S
O224 C210 1.249 1_455 S
O225 U206 2.420 1_655 S
O225 C210 1.202 . S
O226 U206 2.455 . S
O226 C223 1.301 . S
O227 U206 2.449 . S
O227 C223 1.282 . S
H228 C201 0.931 . S
H229 C203 0.929 . S
H230 C204 0.930 . S
H231 C205 0.931 . S
H232 C212 0.932 . S
H233 C213 0.930 . S
H234 C214 0.929 . S
H235 C216 0.930 . S
H236 C218 0.932 1_554 S
H237 C219 0.929 1_654 S
H238 C220 0.928 1_655 S
H239 C222 0.932 . S
C240 C241 1.264 . S
C240 C245 1.479 . S
C240 C250 1.465 . S
C241 C240 1.264 . S
C241 C243 1.339 . S
C241 H268 0.931 . S
C242 C243 1.395 . S
C242 C244 1.320 . S
C243 C241 1.339 . S
C243 C242 1.395 . S
C243 H269 0.929 . S
C244 C242 1.320 . S
C244 C245 1.405 . S
C244 H270 0.930 . S
C245 C240 1.479 . S
C245 C244 1.405 . S
C245 H271 0.931 . S
U246 O247 2.454 1_655 S
U246 O248 2.458 1_655 S
U246 C249 2.984 1_655 S
U246 C250 2.847 . S
U246 C263 2.882 . S
U246 O264 2.441 . S
U246 O265 2.420 . S
U246 O266 2.455 1_655 S
U246 O267 2.449 . S
O247 U246 2.454 1_455 S
O247 C249 1.353 . S
O248 U246 2.458 1_455 S
O248 C249 1.286 . S
C249 U246 2.984 1_455 S
C249 O247 1.353 . S
C249 O248 1.286 . S
C249 C251 1.363 . S
C250 C240 1.465 . S
C250 U246 2.847 . S
C250 O264 1.249 . S
C250 O265 1.202 . S
C251 C249 1.363 . S
C251 C253 1.408 . S
C251 C256 1.342 . S
C252 C253 1.310 . S
C252 C255 1.461 . S
C252 H272 0.932 . S
C253 C251 1.408 . S
C253 C252 1.310 . S
C253 H273 0.930 . S
C254 C255 1.474 . S
C254 C256 1.285 . S
C254 H274 0.929 . S
C255 C252 1.461 . S
C255 C254 1.474 . S
C256 C251 1.342 . S
C256 C254 1.285 . S
C256 H275 0.930 . S
C257 C260 1.424 . S
C257 C262 1.245 1_655 S
C257 C263 1.428 . S
C258 C261 1.260 1_455 S
C258 C262 1.477 . S
C258 H276 0.932 . S
C259 C260 1.384 . S
C259 C261 1.479 . S
C259 H277 0.929 . S
C260 C257 1.424 . S
C260 C259 1.384 . S
C260 H278 0.928 . S
C261 C258 1.260 1_655 S
C261 C259 1.479 . S
C262 C257 1.245 1_455 S
C262 C258 1.477 . S
C262 H279 0.932 . S
C263 U246 2.882 . S
C263 C257 1.428 . S
C263 O266 1.301 1_655 S
C263 O267 1.282 . S
O264 U246 2.441 . S
O264 C250 1.249 . S
O265 U246 2.420 . S
O265 C250 1.202 . S
O266 U246 2.455 1_455 S
O266 C263 1.301 1_455 S
O267 U246 2.449 . S
O267 C263 1.282 . S
H268 C241 0.931 . S
H269 C243 0.929 . S
H270 C244 0.930 . S
H271 C245 0.931 . S
H272 C252 0.932 . S
H273 C253 0.930 . S
H274 C254 0.929 . S
H275 C256 0.930 . S
H276 C258 0.932 . S
H277 C259 0.929 . S
H278 C260 0.928 . S
H279 C262 0.932 . S
C280 C281 1.264 . S
C280 C285 1.479 . S
C280 C290 1.465 . S
C281 C280 1.264 . S
C281 C283 1.339 . S
C281 H308 0.931 . S
C282 C283 1.395 . S
C282 C284 1.320 . S
C283 C281 1.339 . S
C283 C282 1.395 . S
C283 H309 0.929 . S
C284 C282 1.320 . S
C284 C285 1.405 . S
C284 H310 0.930 . S
C285 C280 1.479 . S
C285 C284 1.405 . S
C285 H311 0.931 . S
U286 O287 2.454 1_565 S
U286 O288 2.458 1_565 S
U286 C289 2.984 1_565 S
U286 C290 2.847 . S
U286 C303 2.882 . S
U286 O304 2.441 . S
U286 O305 2.420 . S
U286 O306 2.455 1_565 S
U286 O307 2.449 . S
O287 U286 2.454 1_545 S
O287 C289 1.353 . S
O288 U286 2.458 1_545 S
O288 C289 1.286 . S
C289 U286 2.984 1_545 S
C289 O287 1.353 . S
C289 O288 1.286 . S
C289 C291 1.363 . S
C290 C280 1.465 . S
C290 U286 2.847 . S
C290 O304 1.249 . S
C290 O305 1.202 . S
C291 C289 1.363 . S
C291 C293 1.408 . S
C291 C296 1.342 . S
C292 C293 1.310 . S
C292 C295 1.461 . S
C292 H312 0.932 . S
C293 C291 1.408 . S
C293 C292 1.310 . S
C293 H313 0.930 . S
C294 C295 1.474 . S
C294 C296 1.285 . S
C294 H314 0.929 . S
C295 C292 1.461 . S
C295 C294 1.474 . S
C296 C291 1.342 . S
C296 C294 1.285 . S
C296 H315 0.930 . S
C297 C300 1.424 . S
C297 C302 1.245 1_565 S
C297 C303 1.428 . S
C298 C301 1.260 1_545 S
C298 C302 1.477 . S
C298 H316 0.932 . S
C299 C300 1.384 . S
C299 C301 1.479 . S
C299 H317 0.929 . S
C300 C297 1.424 . S
C300 C299 1.384 . S
C300 H318 0.928 . S
C301 C298 1.260 1_565 S
C301 C299 1.479 . S
C302 C297 1.245 1_545 S
C302 C298 1.477 . S
C302 H319 0.932 . S
C303 U286 2.882 . S
C303 C297 1.428 . S
C303 O306 1.301 1_565 S
C303 O307 1.282 . S
O304 U286 2.441 . S
O304 C290 1.249 . S
O305 U286 2.420 . S
O305 C290 1.202 . S
O306 U286 2.455 1_545 S
O306 C303 1.301 1_545 S
O307 U286 2.449 . S
O307 C303 1.282 . S
H308 C281 0.931 . S
H309 C283 0.929 . S
H310 C284 0.930 . S
H311 C285 0.931 . S
H312 C292 0.932 . S
H313 C293 0.930 . S
H314 C294 0.929 . S
H315 C296 0.930 . S
H316 C298 0.932 . S
H317 C299 0.929 . S
H318 C300 0.928 . S
H319 C302 0.932 . S
C320 C321 1.264 . S
C320 C325 1.479 . S
C320 C330 1.465 . S
C321 C320 1.264 . S
C321 C323 1.339 . S
C321 H348 0.931 . S
C322 C323 1.395 . S
C322 C324 1.320 . S
C323 C321 1.339 . S
C323 C322 1.395 . S
C323 H349 0.929 . S
C324 C322 1.320 . S
C324 C325 1.405 . S
C324 H350 0.930 . S
C325 C320 1.479 . S
C325 C324 1.405 . S
C325 H351 0.931 . S
U326 O327 2.454 . S
U326 O328 2.458 . S
U326 C329 2.984 . S
U326 C330 2.847 . S
U326 C343 2.882 . S
U326 O344 2.441 . S
U326 O345 2.420 . S
U326 O346 2.455 . S
U326 O347 2.449 . S
O327 U326 2.454 . S
O327 C329 1.353 . S
O328 U326 2.458 . S
O328 C329 1.286 . S
C329 U326 2.984 . S
C329 O327 1.353 . S
C329 O328 1.286 . S
C329 C331 1.363 . S
C330 C320 1.465 . S
C330 U326 2.847 . S
C330 O344 1.249 . S
C330 O345 1.202 . S
C331 C329 1.363 . S
C331 C333 1.408 . S
C331 C336 1.342 . S
C332 C333 1.310 . S
C332 C335 1.461 . S
C332 H352 0.932 . S
C333 C331 1.408 . S
C333 C332 1.310 . S
C333 H353 0.930 . S
C334 C335 1.474 . S
C334 C336 1.285 . S
C334 H354 0.929 . S
C335 C332 1.461 . S
C335 C334 1.474 . S
C336 C331 1.342 . S
C336 C334 1.285 . S
C336 H355 0.930 . S
C337 C340 1.427 . S
C337 C342 1.245 1_554 S
C337 C343 1.428 . S
C338 C341 1.260 . S
C338 C342 1.477 . S
C338 H356 0.932 . S
C339 C340 1.376 1_556 S
C339 C341 1.479 . S
C339 H357 0.929 . S
C340 C337 1.427 . S
C340 C339 1.376 1_554 S
C340 H358 0.933 . S
C341 C338 1.260 . S
C341 C339 1.479 . S
C342 C337 1.245 1_556 S
C342 C338 1.477 . S
C342 H359 0.932 1_556 S
C343 U326 2.882 . S
C343 C337 1.428 . S
C343 O346 1.301 . S
C343 O347 1.282 . S
O344 U326 2.441 . S
O344 C330 1.249 . S
O345 U326 2.420 . S
O345 C330 1.202 . S
O346 U326 2.455 . S
O346 C343 1.301 . S
O347 U326 2.449 . S
O347 C343 1.282 . S
H348 C321 0.931 . S
H349 C323 0.929 . S
H350 C324 0.930 . S
H351 C325 0.931 . S
H352 C332 0.932 . S
H353 C333 0.930 . S
H354 C334 0.929 . S
H355 C336 0.930 . S
H356 C338 0.932 . S
H357 C339 0.929 . S
H358 C340 0.933 . S
H359 C342 0.932 1_554 S
C360 C361 1.369 . S
C360 C362 1.419 . S
C360 H364 0.930 . S
C361 C360 1.369 . S
C361 C370 1.429 . S
C362 C360 1.419 . S
C362 C363 1.363 . S
C362 H365 0.929 . S
C363 C362 1.363 . S
C363 C369 1.428 . S
H364 C360 0.930 . S
H365 C362 0.929 . S
S366 N367 1.613 . S
S366 N368 1.610 . S
N367 S366 1.613 . S
N367 C370 1.350 . S
N368 S366 1.610 . S
N368 C369 1.351 . S
C369 C363 1.428 . S
C369 N368 1.351 . S
C369 C370 1.434 . S
C370 C361 1.429 . S
C370 N367 1.350 . S
C370 C369 1.434 . S
C371 C372 1.369 . S
C371 C373 1.419 . S
C371 H375 0.930 . S
C372 C371 1.369 . S
C372 C381 1.429 . S
C373 C371 1.419 . S
C373 C374 1.363 . S
C373 H376 0.929 . S
C374 C373 1.363 . S
C374 C380 1.428 . S
H375 C371 0.930 . S
H376 C373 0.929 . S
S377 N378 1.613 . S
S377 N379 1.610 . S
N378 S377 1.613 . S
N378 C381 1.350 . S
N379 S377 1.610 . S
N379 C380 1.351 . S
C380 C374 1.428 . S
C380 N379 1.351 . S
C380 C381 1.434 . S
C381 C372 1.429 . S
C381 N378 1.350 . S
C381 C380 1.434 . S
C382 C383 1.369 . S
C382 C384 1.419 . S
C382 H386 0.930 . S
C383 C382 1.369 . S
C383 C392 1.429 . S
C384 C382 1.419 . S
C384 C385 1.363 . S
C384 H387 0.929 . S
C385 C384 1.363 . S
C385 C391 1.428 . S
H386 C382 0.930 . S
H387 C384 0.929 . S
S388 N389 1.613 . S
S388 N390 1.610 . S
N389 S388 1.613 . S
N389 C392 1.350 . S
N390 S388 1.610 . S
N390 C391 1.351 . S
C391 C385 1.428 . S
C391 N390 1.351 . S
C391 C392 1.434 . S
C392 C383 1.429 . S
C392 N389 1.350 . S
C392 C391 1.434 . S
C393 C394 1.369 . S
C393 C395 1.419 . S
C393 H397 0.930 . S
C394 C393 1.369 . S
C394 C403 1.429 . S
C395 C393 1.419 . S
C395 C396 1.363 . S
C395 H398 0.929 . S
C396 C395 1.363 . S
C396 C402 1.428 . S
H397 C393 0.930 . S
H398 C395 0.929 . S
S399 N400 1.613 . S
S399 N401 1.610 . S
N400 S399 1.613 . S
N400 C403 1.350 . S
N401 S399 1.610 . S
N401 C402 1.351 . S
C402 C396 1.428 . S
C402 N401 1.351 . S
C402 C403 1.434 . S
C403 C394 1.429 . S
C403 N400 1.350 . S
C403 C402 1.434 . S
C404 C405 1.369 . S
C404 C406 1.419 . S
C404 H408 0.930 . S
C405 C404 1.369 . S
C405 C414 1.429 . S
C406 C404 1.419 . S
C406 C407 1.363 . S
C406 H409 0.929 . S
C407 C406 1.363 . S
C407 C413 1.428 . S
H408 C404 0.930 . S
H409 C406 0.929 . S
S410 N411 1.613 . S
S410 N412 1.610 . S
N411 S410 1.613 . S
N411 C414 1.350 . S
N412 S410 1.610 . S
N412 C413 1.351 . S
C413 C407 1.428 . S
C413 N412 1.351 . S
C413 C414 1.434 . S
C414 C405 1.429 . S
C414 N411 1.350 . S
C414 C413 1.434 . S
C415 C416 1.369 . S
C415 C417 1.419 . S
C415 H419 0.930 . S
C416 C415 1.369 . S
C416 C425 1.429 . S
C417 C415 1.419 . S
C417 C418 1.363 . S
C417 H420 0.929 . S
C418 C417 1.363 . S
C418 C424 1.428 . S
H419 C415 0.930 . S
H420 C417 0.929 . S
S421 N422 1.613 . S
S421 N423 1.610 . S
N422 S421 1.613 . S
N422 C425 1.350 . S
N423 S421 1.610 . S
N423 C424 1.351 . S
C424 C418 1.428 . S
C424 N423 1.351 . S
C424 C425 1.434 . S
C425 C416 1.429 . S
C425 N422 1.350 . S
C425 C424 1.434 . S
C426 C427 1.369 . S
C426 C428 1.419 . S
C426 H430 0.930 . S
C427 C426 1.369 . S
C427 C436 1.429 . S
C428 C426 1.419 . S
C428 C429 1.363 . S
C428 H431 0.929 . S
C429 C428 1.363 . S
C429 C435 1.428 . S
H430 C426 0.930 . S
H431 C428 0.929 . S
S432 N433 1.613 . S
S432 N434 1.610 . S
N433 S432 1.613 . S
N433 C436 1.350 . S
N434 S432 1.610 . S
N434 C435 1.351 . S
C435 C429 1.428 . S
C435 N434 1.351 . S
C435 C436 1.434 . S
C436 C427 1.429 . S
C436 N433 1.350 . S
C436 C435 1.434 . S
C437 C438 1.369 . S
C437 C439 1.419 . S
C437 H441 0.930 . S
C438 C437 1.369 . S
C438 C447 1.429 . S
C439 C437 1.419 . S
C439 C440 1.363 . S
C439 H442 0.929 . S
C440 C439 1.363 . S
C440 C446 1.428 . S
H441 C437 0.930 . S
H442 C439 0.929 . S
S443 N444 1.613 . S
S443 N445 1.610 . S
N444 S443 1.613 . S
N444 C447 1.350 . S
N445 S443 1.610 . S
N445 C446 1.351 . S
C446 C440 1.428 . S
C446 N445 1.351 . S
C446 C447 1.434 . S
C447 C438 1.429 . S
C447 N444 1.350 . S
C447 C446 1.434 . S
C448 C449 1.369 . S
C448 C450 1.419 . S
C448 H452 0.930 . S
C449 C448 1.369 . S
C449 C458 1.429 . S
C450 C448 1.419 . S
C450 C451 1.363 . S
C450 H453 0.929 . S
C451 C450 1.363 . S
C451 C457 1.428 . S
H452 C448 0.930 . S
H453 C450 0.929 . S
S454 N455 1.613 . S
S454 N456 1.610 . S
N455 S454 1.613 . S
N455 C458 1.350 . S
N456 S454 1.610 . S
N456 C457 1.351 . S
C457 C451 1.428 . S
C457 N456 1.351 . S
C457 C458 1.434 . S
C458 C449 1.429 . S
C458 N455 1.350 . S
C458 C457 1.434 . S
C459 C460 1.369 . S
C459 C461 1.419 . S
C459 H463 0.930 . S
C460 C459 1.369 . S
C460 C469 1.429 . S
C461 C459 1.419 . S
C461 C462 1.363 . S
C461 H464 0.929 . S
C462 C461 1.363 . S
C462 C468 1.428 . S
H463 C459 0.930 . S
H464 C461 0.929 . S
S465 N466 1.613 . S
S465 N467 1.610 . S
N466 S465 1.613 . S
N466 C469 1.350 . S
N467 S465 1.610 . S
N467 C468 1.351 . S
C468 C462 1.428 . S
C468 N467 1.351 . S
C468 C469 1.434 . S
C469 C460 1.429 . S
C469 N466 1.350 . S
C469 C468 1.434 . S
C470 C471 1.369 . S
C470 C472 1.419 . S
C470 H474 0.930 . S
C471 C470 1.369 . S
C471 C480 1.429 . S
C472 C470 1.419 . S
C472 C473 1.363 . S
C472 H475 0.929 . S
C473 C472 1.363 . S
C473 C479 1.428 . S
H474 C470 0.930 . S
H475 C472 0.929 . S
S476 N477 1.613 . S
S476 N478 1.610 . S
N477 S476 1.613 . S
N477 C480 1.350 . S
N478 S476 1.610 . S
N478 C479 1.351 . S
C479 C473 1.428 . S
C479 N478 1.351 . S
C479 C480 1.434 . S
C480 C471 1.429 . S
C480 N477 1.350 . S
C480 C479 1.434 . S
C481 C482 1.369 . S
C481 C483 1.419 . S
C481 H485 0.930 . S
C482 C481 1.369 . S
C482 C491 1.429 . S
C483 C481 1.419 . S
C483 C484 1.363 . S
C483 H486 0.929 . S
C484 C483 1.363 . S
C484 C490 1.428 . S
H485 C481 0.930 . S
H486 C483 0.929 . S
S487 N488 1.613 . S
S487 N489 1.610 . S
N488 S487 1.613 . S
N488 C491 1.350 . S
N489 S487 1.610 . S
N489 C490 1.351 . S
C490 C484 1.428 . S
C490 N489 1.351 . S
C490 C491 1.434 . S
C491 C482 1.429 . S
C491 N488 1.350 . S
C491 C490 1.434 . S
C492 C493 1.369 1_655 S
C492 C494 1.419 1_655 S
C492 H496 0.930 . S
C493 C492 1.369 1_455 S
C493 C502 1.429 . S
C494 C492 1.419 1_455 S
C494 C495 1.363 . S
C494 H497 0.929 1_455 S
C495 C494 1.363 . S
C495 C501 1.428 . S
H496 C492 0.930 . S
H497 C494 0.929 1_655 S
S498 N499 1.613 . S
S498 N500 1.610 . S
N499 S498 1.613 . S
N499 C502 1.350 . S
N500 S498 1.610 . S
N500 C501 1.351 . S
C501 C495 1.428 . S
C501 N500 1.351 . S
C501 C502 1.434 . S
C502 C493 1.429 . S
C502 N499 1.350 . S
C502 C501 1.434 . S
C503 C504 1.369 . S
C503 C505 1.419 . S
C503 H507 0.930 1_545 S
C504 C503 1.369 . S
C504 C513 1.429 . S
C505 C503 1.419 . S
C505 C506 1.363 . S
C505 H508 0.929 . S
C506 C505 1.363 . S
C506 C512 1.428 . S
H507 C503 0.930 1_565 S
H508 C505 0.929 . S
S509 N510 1.613 . S
S509 N511 1.610 . S
N510 S509 1.613 . S
N510 C513 1.350 . S
N511 S509 1.610 . S
N511 C512 1.351 . S
C512 C506 1.428 . S
C512 N511 1.351 . S
C512 C513 1.434 . S
C513 C504 1.429 . S
C513 N510 1.350 . S
C513 C512 1.434 . S
C514 C515 1.369 . S
C514 C516 1.419 . S
C514 H518 0.930 . S
C515 C514 1.369 . S
C515 C524 1.429 . S
C516 C514 1.419 . S
C516 C517 1.363 . S
C516 H519 0.929 . S
C517 C516 1.363 . S
C517 C523 1.428 . S
H518 C514 0.930 . S
H519 C516 0.929 . S
S520 N521 1.613 . S
S520 N522 1.610 . S
N521 S520 1.613 . S
N521 C524 1.350 . S
N522 S520 1.610 . S
N522 C523 1.351 . S
C523 C517 1.428 . S
C523 N522 1.351 . S
C523 C524 1.434 . S
C524 C515 1.429 . S
C524 N521 1.350 . S
C524 C523 1.434 . S
C525 C526 1.369 1_565 S
C525 C527 1.419 . S
C525 H529 0.930 . S
C526 C525 1.369 1_545 S
C526 C535 1.429 . S
C527 C525 1.419 . S
C527 C528 1.363 . S
C527 H530 0.929 . S
C528 C527 1.363 . S
C528 C534 1.428 1_565 S
H529 C525 0.930 . S
H530 C527 0.929 . S
S531 N532 1.613 . S
S531 N533 1.610 . S
N532 S531 1.613 . S
N532 C535 1.350 . S
N533 S531 1.610 . S
N533 C534 1.351 . S
C534 C528 1.428 1_545 S
C534 N533 1.351 . S
C534 C535 1.434 . S
C535 C526 1.429 . S
C535 N532 1.350 . S
C535 C534 1.434 . S
C536 C537 1.369 . S
C536 C538 1.419 . S
C536 H540 0.930 . S
C537 C536 1.369 . S
C537 C546 1.429 . S
C538 C536 1.419 . S
C538 C539 1.363 . S
C538 H541 0.929 . S
C539 C538 1.363 . S
C539 C545 1.428 . S
H540 C536 0.930 . S
H541 C538 0.929 . S
S542 N543 1.613 . S
S542 N544 1.610 . S
N543 S542 1.613 . S
N543 C546 1.350 . S
N544 S542 1.610 . S
N544 C545 1.351 . S
C545 C539 1.428 . S
C545 N544 1.351 . S
C545 C546 1.434 . S
C546 C537 1.429 . S
C546 N543 1.350 . S
C546 C545 1.434 . S
C547 C548 1.369 1_655 S
C547 C549 1.419 . S
C547 H551 0.930 . S
C548 C547 1.369 1_455 S
C548 C557 1.429 . S
C549 C547 1.419 . S
C549 C550 1.363 . S
C549 H552 0.929 . S
C550 C549 1.363 . S
C550 C556 1.428 1_655 S
H551 C547 0.930 . S
H552 C549 0.929 . S
S553 N554 1.613 . S
S553 N555 1.610 . S
N554 S553 1.613 . S
N554 C557 1.350 . S
N555 S553 1.610 . S
N555 C556 1.351 . S
C556 C550 1.428 1_455 S
C556 N555 1.351 . S
C556 C557 1.434 . S
C557 C548 1.429 . S
C557 N554 1.350 . S
C557 C556 1.434 . S
C361 C7 0.930 . S
C363 C335 0.988 . S
C372 C51 2.072 . S
C374 C242 2.028 . S
C383 C87 1.317 . S
C385 C282 1.349 . S
C394 C16 0.528 . S
C396 C322 0.475 . S
C407 C255 2.173 . S
C405 C42 2.306 . S
C418 C295 1.398 . S
C416 C96 1.404 . S
C427 C47 1.248 . S
C429 C162 1.246 . S
C438 C91 3.259 . S
C440 C202 3.201 . S
C449 C2 2.341 . S
C451 C135 2.233 . S
C462 C175 1.392 . S
C460 C56 1.381 . S
C473 C215 3.082 . S
C471 C82 3.172 . S
C482 C11 2.062 . S
C484 C122 2.025 . S
C495 C221 1.766 . S
C493 C19 1.717 . S
C504 C50 1.361 . S
C506 C141 1.385 . S
C515 C99 1.477 . S
C517 C181 1.514 . S
C528 C301 1.507 . S
C526 C59 1.470 . S
C539 C341 1.161 . S
C537 C90 1.157 . S
C548 C10 1.348 . S
C550 C261 1.374 . S
