# Generated by pormake.
# Topology anh, (6,3)-cn, num edge types: 1
# Building blocks:
#     Node 0, Type 0, BuildingBlock: BETDEL_clean_sbu_0, # of connection points: 6
#     Node 1, Type 0, BuildingBlock: BETDEL_clean_sbu_0, # of connection points: 6
#     Node 2, Type 0, BuildingBlock: BETDEL_clean_sbu_0, # of connection points: 6
#     Node 3, Type 1, BuildingBlock: OLANEW_clean_sbu_2, # of connection points: 3
#     Node 4, Type 1, BuildingBlock: OLANEW_clean_sbu_2, # of connection points: 3
#     Node 5, Type 1, BuildingBlock: OLANEW_clean_sbu_2, # of connection points: 3
#     Node 6, Type 1, BuildingBlock: OLANEW_clean_sbu_2, # of connection points: 3
#     Node 7, Type 1, BuildingBlock: OLANEW_clean_sbu_2, # of connection points: 3
#     Node 8, Type 1, BuildingBlock: OLANEW_clean_sbu_2, # of connection points: 3
#     Edge 9, Type (0, 1), BuildingBlock: OJICUG_clean_linker_0, # of connection points: 2
#     Edge 10, Type (0, 1), BuildingBlock: OJICUG_clean_linker_0, # of connection points: 2
#     Edge 11, Type (0, 1), BuildingBlock: OJICUG_clean_linker_0, # of connection points: 2
#     Edge 12, Type (0, 1), BuildingBlock: OJICUG_clean_linker_0, # of connection points: 2
#     Edge 13, Type (0, 1), BuildingBlock: OJICUG_clean_linker_0, # of connection points: 2
#     Edge 14, Type (0, 1), BuildingBlock: OJICUG_clean_linker_0, # of connection points: 2
#     Edge 15, Type (0, 1), BuildingBlock: OJICUG_clean_linker_0, # of connection points: 2
#     Edge 16, Type (0, 1), BuildingBlock: OJICUG_clean_linker_0, # of connection points: 2
#     Edge 17, Type (0, 1), BuildingBlock: OJICUG_clean_linker_0, # of connection points: 2
#     Edge 18, Type (0, 1), BuildingBlock: OJICUG_clean_linker_0, # of connection points: 2
#     Edge 19, Type (0, 1), BuildingBlock: OJICUG_clean_linker_0, # of connection points: 2
#     Edge 20, Type (0, 1), BuildingBlock: OJICUG_clean_linker_0, # of connection points: 2
#     Edge 21, Type (0, 1), BuildingBlock: OJICUG_clean_linker_0, # of connection points: 2
#     Edge 22, Type (0, 1), BuildingBlock: OJICUG_clean_linker_0, # of connection points: 2
#     Edge 23, Type (0, 1), BuildingBlock: OJICUG_clean_linker_0, # of connection points: 2
#     Edge 24, Type (0, 1), BuildingBlock: OJICUG_clean_linker_0, # of connection points: 2
#     Edge 25, Type (0, 1), BuildingBlock: OJICUG_clean_linker_0, # of connection points: 2
#     Edge 26, Type (0, 1), BuildingBlock: OJICUG_clean_linker_0, # of connection points: 2
# Relax obj value: 0.097
# Max RMSD: 0.107
# Mean RMSD: 0.103
data_MOF--net-anh--node1-BETDEL_clean_sbu_0--node2-OLANEW_clean_sbu_2--edge1-OJICUG_clean_linker_0
_symmetry_space_group_name_H-M    P1
_symmetry_Int_Tables_number       1
_symmetry_cell_setting            triclinic
loop_
_symmetry_equiv_pos_as_xyz
'x, y, z'
_cell_length_a     25.250165
_cell_length_b     25.211705
_cell_length_c     35.836585
_cell_angle_alpha  89.737952
_cell_angle_beta   89.608104
_cell_angle_gamma 119.99868
loop_
_atom_site_label
_atom_site_type_symbol
_atom_site_fract_x
_atom_site_fract_y
_atom_site_fract_z
_atom_type_partial_charge
Dy0 Dy 0.04887 0.48822 0.15582 0.0
C1 C 0.8643 0.54729 0.18998 0.0
C2 C 0.14064 0.47368 0.12675 0.0
Dy3 Dy 0.96232 0.53793 0.16636 0.0
O4 O 0.11091 0.4482 0.15748 0.0
O5 O 0.11924 0.50581 0.11156 0.0
O6 O 0.03368 0.45291 0.21462 0.0
O7 O 0.02811 0.5313 0.20193 0.0
C8 C 0.01919 0.49244 0.227 0.0
C9 C 0.99365 0.53189 0.09567 0.0
O10 O 0.04848 0.6246 0.17869 0.0
O11 O 0.11187 0.59122 0.15399 0.0
O12 O 0.89684 0.57342 0.16017 0.0
O13 O 0.88784 0.51914 0.20771 0.0
O14 O 0.9837 0.57482 0.10742 0.0
O15 O 0.98176 0.493 0.12107 0.0
O16 O 0.9615 0.39976 0.1473 0.0
O17 O 0.89978 0.43585 0.17078 0.0
C18 C 0.103 0.63561 0.16688 0.0
C19 C 0.90765 0.39027 0.15941 0.0
Dy20 Dy 0.47994 0.02811 0.49232 0.0
C21 C 0.73068 0.21568 0.53077 0.0
C22 C 0.37598 0.9382 0.46089 0.0
Dy23 Dy 0.62139 0.12069 0.50789 0.0
O24 O 0.37811 0.97888 0.48405 0.0
O25 O 0.43103 0.94897 0.45358 0.0
O26 O 0.44905 0.00579 0.55292 0.0
O27 O 0.53911 0.06558 0.53917 0.0
C28 C 0.50342 0.04037 0.5662 0.0
C29 C 0.59202 0.08206 0.43746 0.0
O30 O 0.61085 0.0324 0.52913 0.0
O31 O 0.52524 0.97058 0.49347 0.0
O32 O 0.7241 0.1717 0.50907 0.0
O33 O 0.67724 0.20631 0.54108 0.0
O34 O 0.64518 0.09901 0.45173 0.0
O35 O 0.56021 0.09298 0.45994 0.0
O36 O 0.48138 0.11742 0.48445 0.0
O37 O 0.58261 0.18335 0.5025 0.0
C38 C 0.57215 0.97868 0.51419 0.0
C39 C 0.52762 0.17292 0.49243 0.0
Dy40 Dy 0.54676 0.55044 0.83502 0.0
C41 C 0.46083 0.29725 0.86263 0.0
C42 C 0.57068 0.66469 0.81403 0.0
Dy43 Dy 0.48343 0.4115 0.84247 0.0
O44 O 0.5981 0.65329 0.8408 0.0
O45 O 0.53212 0.61396 0.79804 0.0
O46 O 0.5842 0.5621 0.89279 0.0
O47 O 0.49999 0.48463 0.88056 0.0
C48 C 0.54103 0.50924 0.90475 0.0
C49 C 0.48815 0.45233 0.7729 0.0
O50 O 0.40245 0.4219 0.85716 0.0
O51 O 0.44695 0.52117 0.83391 0.0
O52 O 0.43297 0.30901 0.83628 0.0
O53 O 0.49882 0.34786 0.879 0.0
O54 O 0.44479 0.39976 0.78513 0.0
O55 O 0.52965 0.4769 0.79688 0.0
O56 O 0.62765 0.54096 0.8197 0.0
O57 O 0.58371 0.44075 0.84139 0.0
C58 C 0.39853 0.47028 0.84629 0.0
C59 C 0.63179 0.49226 0.82922 0.0
O60 O 0.5823 0.03468 0.25958 0.0
Cd61 Cd 0.59132 0.03561 0.1916 0.0
O62 O 0.48316 0.99487 0.27059 0.0
Cd63 Cd 0.44737 0.95819 0.21546 0.0
O64 O 0.36979 0.88097 0.18826 0.0
C65 C 0.31646 0.86999 0.19748 0.0
O66 O 0.31112 0.90757 0.22044 0.0
C67 C 0.53791 0.02026 0.28215 0.0
C68 C 0.69417 0.14829 0.17223 0.0
O69 O 0.64068 0.14204 0.17479 0.0
O70 O 0.69907 0.10062 0.1775 0.0
O71 O 0.4856 0.48726 0.59377 0.0
Cd72 Cd 0.48567 0.48595 0.52551 0.0
O73 O 0.54324 0.58451 0.60975 0.0
Cd74 Cd 0.5525 0.63083 0.55641 0.0
O75 O 0.55708 0.71322 0.53239 0.0
C76 C 0.59021 0.76372 0.54893 0.0
O77 O 0.62225 0.76437 0.57784 0.0
C78 C 0.512 0.52804 0.61855 0.0
C79 C 0.49667 0.3847 0.50439 0.0
O80 O 0.54371 0.43798 0.50828 0.0
O81 O 0.44388 0.37935 0.50924 0.0
O82 O 0.05805 0.51839 0.9202 0.0
Cd83 Cd 0.06586 0.48563 0.85733 0.0
O84 O 0.96069 0.44778 0.92564 0.0
Cd85 Cd 0.93893 0.44259 0.86643 0.0
O86 O 0.86253 0.44588 0.83995 0.0
C87 C 0.86166 0.49592 0.83878 0.0
O88 O 0.90993 0.54639 0.84998 0.0
C89 C 0.01043 0.48771 0.94023 0.0
C90 C 0.17168 0.47602 0.85237 0.0
O91 O 0.17206 0.5256 0.8437 0.0
O92 O 0.12073 0.42997 0.86293 0.0
O93 O 0.04688 0.52995 0.40525 0.0
Cd94 Cd 0.07487 0.57396 0.46725 0.0
O95 O 0.98847 0.57025 0.39591 0.0
Cd96 Cd 0.97471 0.56801 0.45632 0.0
O97 O 0.92236 0.4962 0.49776 0.0
C98 C 0.93274 0.45179 0.49923 0.0
O99 O 0.97789 0.45504 0.47902 0.0
C100 C 0.01609 0.5435 0.38324 0.0
C101 C 0.16884 0.6951 0.45885 0.0
O102 O 0.17973 0.65062 0.45955 0.0
O103 O 0.11329 0.68262 0.46288 0.0
O104 O 0.52198 0.00393 0.7434 0.0
Cd105 Cd 0.53681 0.98474 0.80814 0.0
O106 O 0.61295 0.08461 0.73507 0.0
Cd107 Cd 0.6178 0.09438 0.79563 0.0
O108 O 0.57908 0.13117 0.83564 0.0
C109 C 0.52305 0.11501 0.83133 0.0
O110 O 0.4915 0.07326 0.8063 0.0
C111 C 0.56228 0.04412 0.72175 0.0
C112 C 0.55388 0.88379 0.80874 0.0
O113 O 0.50032 0.87746 0.80779 0.0
O114 O 0.59998 0.93812 0.81048 0.0
O115 O 0.51041 0.38027 0.06845 0.0
Cd116 Cd 0.49599 0.36965 0.13626 0.0
O117 O 0.51237 0.46519 0.08294 0.0
Cd118 Cd 0.49857 0.54073 0.06736 0.0
O119 O 0.41254 0.5404 0.07146 0.0
C120 C 0.37185 0.49383 0.0892 0.0
O121 O 0.38592 0.45374 0.10235 0.0
C122 C 0.51541 0.43085 0.05827 0.0
C123 C 0.60942 0.43796 0.1696 0.0
O124 O 0.58417 0.37968 0.16663 0.0
O125 O 0.58035 0.46409 0.15769 0.0
C126 C 0.21493 0.43645 0.13181 0.0
C127 C 0.19654 0.47432 0.11428 0.0
H128 H 0.28473 0.41266 0.13736 0.0
C129 C 0.23461 0.51657 0.08693 0.0
H130 H 0.18635 0.40358 0.15301 0.0
C131 C 0.29141 0.52252 0.07831 0.0
C132 C 0.31063 0.48574 0.09658 0.0
H133 H 0.22145 0.54647 0.07311 0.0
H134 H 0.32053 0.55643 0.05773 0.0
C135 C 0.2713 0.44181 0.12287 0.0
C136 C 0.78526 0.32799 0.54267 0.0
C137 C 0.78755 0.27532 0.53278 0.0
H138 H 0.82998 0.4259 0.5399 0.0
C139 C 0.84214 0.28175 0.51814 0.0
H140 H 0.74367 0.32428 0.55405 0.0
C141 C 0.89166 0.33987 0.5102 0.0
C142 C 0.88716 0.39255 0.51635 0.0
H143 H 0.84516 0.24182 0.51047 0.0
H144 H 0.93174 0.34308 0.49677 0.0
C145 C 0.83463 0.38621 0.53439 0.0
C146 C 0.52232 0.7232 0.79079 0.0
C147 C 0.5715 0.72307 0.80873 0.0
H148 H 0.47777 0.77399 0.77744 0.0
C149 C 0.61705 0.77729 0.82491 0.0
H150 H 0.48634 0.68188 0.77831 0.0
C151 C 0.61263 0.83051 0.82387 0.0
C152 C 0.56174 0.82962 0.80754 0.0
H153 H 0.65525 0.77816 0.83906 0.0
H154 H 0.64773 0.87158 0.83706 0.0
C155 C 0.51712 0.77573 0.79059 0.0
C156 C 0.77568 0.55942 0.172 0.0
C157 C 0.7996 0.53016 0.19387 0.0
H158 H 0.6954 0.55331 0.14785 0.0
C159 C 0.75925 0.47582 0.21307 0.0
H160 H 0.80591 0.60124 0.15684 0.0
C161 C 0.69642 0.44754 0.20707 0.0
C162 C 0.67286 0.47409 0.18266 0.0
H163 H 0.77643 0.45214 0.23005 0.0
H164 H 0.66664 0.40324 0.21987 0.0
C165 C 0.71253 0.53189 0.1668 0.0
C166 C 0.26283 0.86796 0.4659 0.0
C167 C 0.32046 0.87907 0.45359 0.0
H168 H 0.16908 0.80067 0.4769 0.0
C169 C 0.32623 0.83026 0.43958 0.0
H170 H 0.25725 0.9048 0.47697 0.0
C171 C 0.27635 0.77072 0.44032 0.0
C172 C 0.21944 0.75894 0.45448 0.0
H173 H 0.37014 0.83742 0.43 0.0
H174 H 0.28285 0.73365 0.43073 0.0
C175 C 0.21253 0.80838 0.46604 0.0
C176 C 0.42801 0.1914 0.84145 0.0
C177 C 0.46583 0.24148 0.86389 0.0
H178 H 0.41585 0.11095 0.81412 0.0
C179 C 0.51626 0.24301 0.88131 0.0
H180 H 0.38873 0.18904 0.82781 0.0
C181 C 0.53251 0.19883 0.87302 0.0
C182 C 0.49815 0.15208 0.84752 0.0
H183 H 0.54618 0.2811 0.89883 0.0
H184 H 0.57418 0.2037 0.88466 0.0
C185 C 0.44379 0.1468 0.83352 0.0
C186 C 0.54345 0.8695 0.50271 0.0
C187 C 0.57982 0.92494 0.52145 0.0
H188 H 0.51858 0.77549 0.49632 0.0
C189 C 0.62188 0.92764 0.54792 0.0
H190 H 0.51076 0.86577 0.48198 0.0
C191 C 0.62622 0.87564 0.55619 0.0
C192 C 0.58883 0.81986 0.53805 0.0
H193 H 0.65059 0.96953 0.56288 0.0
H194 H 0.65826 0.87899 0.57727 0.0
C195 C 0.54803 0.81765 0.51083 0.0
C196 C 0.6929 0.43915 0.82701 0.0
C197 C 0.6913 0.49412 0.8267 0.0
H198 H 0.74772 0.39657 0.83025 0.0
C199 C 0.74679 0.54999 0.82657 0.0
H200 H 0.65099 0.39524 0.82674 0.0
C201 C 0.80255 0.55072 0.82889 0.0
C202 C 0.80389 0.4956 0.83091 0.0
H203 H 0.74707 0.59309 0.82631 0.0
H204 H 0.84446 0.59447 0.83027 0.0
C205 C 0.74849 0.43987 0.82885 0.0
C206 C 0.15111 0.74369 0.18983 0.0
C207 C 0.15684 0.69769 0.17141 0.0
H208 H 0.19683 0.83413 0.21228 0.0
C209 C 0.2152 0.71063 0.15911 0.0
H210 H 0.10692 0.73547 0.19958 0.0
C211 C 0.26686 0.7674 0.16633 0.0
C212 C 0.26138 0.81246 0.1861 0.0
H213 H 0.22133 0.67643 0.14462 0.0
H214 H 0.31127 0.77523 0.15734 0.0
C215 C 0.20278 0.80036 0.19713 0.0
C216 C 0.5696 0.28625 0.49181 0.0
C217 C 0.51853 0.22674 0.491 0.0
H218 H 0.60277 0.38226 0.49619 0.0
C219 C 0.45973 0.21988 0.49152 0.0
H220 H 0.61566 0.2935 0.49109 0.0
C221 C 0.45234 0.27131 0.49461 0.0
C222 C 0.50362 0.33057 0.49698 0.0
H223 H 0.41943 0.17476 0.49096 0.0
H224 H 0.40648 0.26447 0.49621 0.0
C225 C 0.56225 0.3374 0.49466 0.0
C226 C 0.28501 0.41839 0.8605 0.0
C227 C 0.33955 0.46997 0.84822 0.0
H228 H 0.1888 0.37955 0.8714 0.0
C229 C 0.33779 0.52274 0.83713 0.0
H230 H 0.28469 0.37702 0.86917 0.0
C231 C 0.28335 0.52417 0.83836 0.0
C232 C 0.22882 0.47291 0.85067 0.0
H233 H 0.37865 0.5635 0.82742 0.0
H234 H 0.28421 0.5658 0.82967 0.0
C235 C 0.23011 0.41985 0.86171 0.0
C236 C 0.85926 0.27524 0.15782 0.0
C237 C 0.85339 0.32775 0.15972 0.0
H238 H 0.81347 0.17702 0.16044 0.0
C239 C 0.79455 0.32033 0.16348 0.0
H240 H 0.90392 0.27941 0.15495 0.0
C241 C 0.743 0.26206 0.16623 0.0
C242 C 0.74881 0.20951 0.16569 0.0
H243 H 0.78813 0.35969 0.16473 0.0
H244 H 0.69864 0.25839 0.16977 0.0
C245 C 0.80746 0.21664 0.16101 0.0
C246 C 0.97749 0.46127 0.04335 0.0
C247 C 0.00198 0.52141 0.05633 0.0
H248 H 0.96013 0.40363 0.99591 0.0
C249 C 0.03269 0.57071 0.03129 0.0
H250 H 0.95358 0.4225 0.0622 0.0
C251 C 0.03824 0.55989 0.99358 0.0
C252 C 0.01133 0.49962 0.98039 0.0
H253 H 0.05214 0.61744 0.04086 0.0
H254 H 0.06132 0.59844 0.97451 0.0
C255 C 0.98118 0.45045 0.00555 0.0
C256 C 0.62073 0.06384 0.3743 0.0
C257 C 0.57654 0.06384 0.39827 0.0
H258 H 0.64334 0.05049 0.31889 0.0
C259 C 0.51882 0.04799 0.38416 0.0
H260 H 0.66563 0.07583 0.38448 0.0
C261 C 0.50571 0.03277 0.34652 0.0
C262 C 0.55046 0.03402 0.3223 0.0
H263 H 0.48404 0.04786 0.40209 0.0
H264 H 0.46095 0.02114 0.33628 0.0
C265 C 0.60799 0.04947 0.33669 0.0
C266 C 0.54125 0.53077 0.72243 0.0
C267 C 0.49415 0.47268 0.73374 0.0
H268 H 0.58356 0.59423 0.67703 0.0
C269 C 0.45287 0.43327 0.70713 0.0
H270 H 0.57371 0.56193 0.74246 0.0
C271 C 0.459 0.45119 0.66972 0.0
C272 C 0.50597 0.50933 0.65824 0.0
H273 H 0.41611 0.38819 0.71511 0.0
H274 H 0.42657 0.41959 0.64984 0.0
C275 C 0.54681 0.54917 0.68503 0.0
C276 C 0.57971 0.08193 0.61797 0.0
C277 C 0.51968 0.04355 0.60578 0.0
H278 H 0.64062 0.11254 0.66457 0.0
C279 C 0.47439 0.00587 0.6317 0.0
H280 H 0.61545 0.11121 0.59837 0.0
C281 C 0.48867 0.006 0.66916 0.0
C282 C 0.54859 0.04425 0.68168 0.0
H283 H 0.42775 0.9757 0.62299 0.0
H284 H 0.45244 0.9762 0.68834 0.0
C285 C 0.59404 0.08253 0.65575 0.0
C286 C 0.57191 0.52867 0.9713 0.0
C287 C 0.53482 0.4879 0.94374 0.0
H288 H 0.59379 0.54229 0.02936 0.0
C289 C 0.49172 0.42735 0.95393 0.0
H290 H 0.60542 0.57561 0.96424 0.0
C291 C 0.48633 0.4078 0.99113 0.0
C292 C 0.52249 0.44921 0.01871 0.0
H293 H 0.46223 0.39522 0.93321 0.0
H294 H 0.45285 0.361 -0.00151 0.0
C295 C 0.56521 0.5097 0.00851 0.0
C296 C 0.02634 0.46996 0.29391 0.0
C297 C 0.01374 0.50252 0.26694 0.0
H298 H 0.03757 0.45797 0.35185 0.0
C299 C 0.99914 0.54691 0.27844 0.0
H300 H 0.03768 0.43545 0.28579 0.0
C301 C 0.99824 0.55928 0.31638 0.0
C302 C 0.01305 0.52822 0.3433 0.0
H303 H 0.98928 0.57264 0.25811 0.0
H304 H 0.98766 0.5943 0.32454 0.0
C305 C 0.02654 0.48307 0.3317 0.0
loop_
_geom_bond_atom_site_label_1
_geom_bond_atom_site_label_2
_geom_bond_distance
_geom_bond_site_symmetry_2
_ccdc_geom_bond_type
Dy0 O4 2.398 . S
Dy0 O5 2.491 . S
Dy0 O6 2.403 . S
Dy0 O7 2.664 . S
Dy0 O11 2.326 . S
Dy0 O15 2.310 . S
Dy0 O16 2.351 1_455 S
C1 O12 1.185 . S
C1 O13 1.355 . S
C2 O4 1.185 . S
C2 O5 1.355 . S
Dy3 O7 2.310 1_655 S
Dy3 O10 2.351 1_655 S
Dy3 O12 2.398 . S
Dy3 O13 2.491 . S
Dy3 O14 2.403 . S
Dy3 O15 2.664 1_655 S
Dy3 O17 2.326 . S
O4 Dy0 2.398 . S
O4 C2 1.185 . S
O5 Dy0 2.491 . S
O5 C2 1.355 . S
O6 Dy0 2.403 . S
O6 C8 1.254 . S
O7 Dy0 2.664 . S
O7 Dy3 2.310 1_455 S
O7 C8 1.268 . S
C8 O6 1.254 . S
C8 O7 1.268 . S
C9 O14 1.254 1_455 S
C9 O15 1.268 . S
O10 Dy3 2.351 1_455 S
O10 C18 1.249 . S
O11 Dy0 2.326 . S
O11 C18 1.267 . S
O12 C1 1.185 . S
O12 Dy3 2.398 . S
O13 C1 1.355 . S
O13 Dy3 2.491 . S
O14 Dy3 2.403 . S
O14 C9 1.254 1_655 S
O15 Dy0 2.310 . S
O15 Dy3 2.664 1_455 S
O15 C9 1.268 . S
O16 Dy0 2.351 1_655 S
O16 C19 1.249 . S
O17 Dy3 2.326 . S
O17 C19 1.267 . S
C18 O10 1.249 . S
C18 O11 1.267 . S
C19 O16 1.249 . S
C19 O17 1.267 . S
Dy20 O24 2.398 . S
Dy20 O25 2.491 . S
Dy20 O26 2.403 . S
Dy20 O27 2.664 1_565 S
Dy20 O31 2.326 . S
Dy20 O35 2.310 1_565 S
Dy20 O36 2.351 1_565 S
C21 O32 1.185 . S
C21 O33 1.355 . S
C22 O24 1.185 . S
C22 O25 1.355 . S
Dy23 O27 2.310 . S
Dy23 O30 2.351 1_545 S
Dy23 O32 2.398 . S
Dy23 O33 2.491 . S
Dy23 O34 2.403 . S
Dy23 O35 2.664 . S
Dy23 O37 2.326 . S
O24 Dy20 2.398 . S
O24 C22 1.185 . S
O25 Dy20 2.491 . S
O25 C22 1.355 . S
O26 Dy20 2.403 . S
O26 C28 1.254 1_565 S
O27 Dy20 2.664 1_545 S
O27 Dy23 2.310 . S
O27 C28 1.268 . S
C28 O26 1.254 1_545 S
C28 O27 1.268 . S
C29 O34 1.254 . S
C29 O35 1.268 . S
O30 Dy23 2.351 1_565 S
O30 C38 1.249 . S
O31 Dy20 2.326 . S
O31 C38 1.267 . S
O32 C21 1.185 . S
O32 Dy23 2.398 . S
O33 C21 1.355 . S
O33 Dy23 2.491 . S
O34 Dy23 2.403 . S
O34 C29 1.254 . S
O35 Dy20 2.310 1_545 S
O35 Dy23 2.664 . S
O35 C29 1.268 . S
O36 Dy20 2.351 1_545 S
O36 C39 1.249 . S
O37 Dy23 2.326 . S
O37 C39 1.267 . S
C38 O30 1.249 . S
C38 O31 1.267 . S
C39 O36 1.249 . S
C39 O37 1.267 . S
Dy40 O44 2.398 . S
Dy40 O45 2.491 . S
Dy40 O46 2.403 . S
Dy40 O47 2.664 . S
Dy40 O51 2.326 . S
Dy40 O55 2.310 . S
Dy40 O56 2.351 . S
C41 O52 1.185 . S
C41 O53 1.355 . S
C42 O44 1.185 . S
C42 O45 1.355 . S
Dy43 O47 2.310 . S
Dy43 O50 2.351 . S
Dy43 O52 2.398 . S
Dy43 O53 2.491 . S
Dy43 O54 2.403 . S
Dy43 O55 2.664 . S
Dy43 O57 2.326 . S
O44 Dy40 2.398 . S
O44 C42 1.185 . S
O45 Dy40 2.491 . S
O45 C42 1.355 . S
O46 Dy40 2.403 . S
O46 C48 1.254 . S
O47 Dy40 2.664 . S
O47 Dy43 2.310 . S
O47 C48 1.268 . S
C48 O46 1.254 . S
C48 O47 1.268 . S
C49 O54 1.254 . S
C49 O55 1.268 . S
O50 Dy43 2.351 . S
O50 C58 1.249 . S
O51 Dy40 2.326 . S
O51 C58 1.267 . S
O52 C41 1.185 . S
O52 Dy43 2.398 . S
O53 C41 1.355 . S
O53 Dy43 2.491 . S
O54 Dy43 2.403 . S
O54 C49 1.254 . S
O55 Dy40 2.310 . S
O55 Dy43 2.664 . S
O55 C49 1.268 . S
O56 Dy40 2.351 . S
O56 C59 1.249 . S
O57 Dy43 2.326 . S
O57 C59 1.267 . S
C58 O50 1.249 . S
C58 O51 1.267 . S
C59 O56 1.249 . S
C59 O57 1.267 . S
O60 Cd61 2.300 . S
O60 C67 1.275 1_545 S
Cd61 O60 2.300 . S
Cd61 O69 2.381 . S
Cd61 O70 2.378 . S
O62 Cd63 2.385 . S
O62 C67 1.255 . S
Cd63 O62 2.385 . S
Cd63 O64 2.317 . S
O64 Cd63 2.317 . S
O64 C65 1.232 . S
C65 O64 1.232 . S
C65 O66 1.218 . S
O66 C65 1.218 . S
C67 O60 1.275 1_565 S
C67 O62 1.255 . S
C68 O69 1.258 . S
C68 O70 1.256 . S
O69 Cd61 2.381 . S
O69 C68 1.258 . S
O70 Cd61 2.378 . S
O70 C68 1.256 . S
O71 Cd72 2.300 . S
O71 C78 1.275 . S
Cd72 O71 2.300 . S
Cd72 O80 2.381 . S
Cd72 O81 2.378 . S
O73 Cd74 2.385 . S
O73 C78 1.255 . S
Cd74 O73 2.385 . S
Cd74 O75 2.317 . S
O75 Cd74 2.317 . S
O75 C76 1.232 . S
C76 O75 1.232 . S
C76 O77 1.218 . S
O77 C76 1.218 . S
C78 O71 1.275 . S
C78 O73 1.255 . S
C79 O80 1.258 . S
C79 O81 1.256 . S
O80 Cd72 2.381 . S
O80 C79 1.258 . S
O81 Cd72 2.378 . S
O81 C79 1.256 . S
O82 Cd83 2.300 . S
O82 C89 1.275 . S
Cd83 O82 2.300 . S
Cd83 O91 2.381 . S
Cd83 O92 2.378 . S
O84 Cd85 2.385 . S
O84 C89 1.255 1_655 S
Cd85 O84 2.385 . S
Cd85 O86 2.317 . S
O86 Cd85 2.317 . S
O86 C87 1.232 . S
C87 O86 1.232 . S
C87 O88 1.218 . S
O88 C87 1.218 . S
C89 O82 1.275 . S
C89 O84 1.255 1_455 S
C90 O91 1.258 . S
C90 O92 1.256 . S
O91 Cd83 2.381 . S
O91 C90 1.258 . S
O92 Cd83 2.378 . S
O92 C90 1.256 . S
O93 Cd94 2.300 . S
O93 C100 1.258 1_455 S
Cd94 O93 2.300 . S
Cd94 O102 2.381 . S
Cd94 O103 2.378 . S
O95 Cd96 2.385 . S
O95 C100 1.275 . S
Cd96 O95 2.385 . S
Cd96 O97 2.317 . S
O97 Cd96 2.317 . S
O97 C98 1.232 . S
C98 O97 1.232 . S
C98 O99 1.218 . S
O99 C98 1.218 . S
C100 O93 1.258 1_655 S
C100 O95 1.275 . S
C101 O102 1.258 . S
C101 O103 1.256 . S
O102 Cd94 2.381 . S
O102 C101 1.258 . S
O103 Cd94 2.378 . S
O103 C101 1.256 . S
O104 Cd105 2.300 1_565 S
O104 C111 1.275 1_565 S
Cd105 O104 2.300 1_545 S
Cd105 O113 2.381 1_545 S
Cd105 O114 2.378 1_545 S
O106 Cd107 2.385 . S
O106 C111 1.255 . S
Cd107 O106 2.385 . S
Cd107 O108 2.317 . S
O108 Cd107 2.317 . S
O108 C109 1.232 . S
C109 O108 1.232 . S
C109 O110 1.218 . S
O110 C109 1.218 . S
C111 O104 1.275 1_545 S
C111 O106 1.255 . S
C112 O113 1.258 . S
C112 O114 1.256 . S
O113 Cd105 2.381 1_565 S
O113 C112 1.258 . S
O114 Cd105 2.378 1_565 S
O114 C112 1.256 . S
O115 Cd116 2.300 . S
O115 C122 1.275 . S
Cd116 O115 2.300 . S
Cd116 O124 2.381 . S
Cd116 O125 2.378 . S
O117 Cd118 2.385 . S
O117 C122 1.255 . S
Cd118 O117 2.385 . S
Cd118 O119 2.317 . S
O119 Cd118 2.317 . S
O119 C120 1.232 . S
C120 O119 1.232 . S
C120 O121 1.218 . S
O121 C120 1.218 . S
C122 O115 1.275 . S
C122 O117 1.255 . S
C123 O124 1.258 . S
C123 O125 1.256 . S
O124 Cd116 2.381 . S
O124 C123 1.258 . S
O125 Cd116 2.378 . S
O125 C123 1.256 . S
C126 C127 1.387 . S
C126 H130 0.950 . S
C126 C135 1.390 . S
C127 C126 1.387 . S
C127 C129 1.387 . S
H128 C135 0.950 . S
C129 C127 1.387 . S
C129 C131 1.390 . S
C129 H133 0.950 . S
H130 C126 0.950 . S
C131 C129 1.390 . S
C131 C132 1.387 . S
C131 H134 0.950 . S
C132 C131 1.387 . S
C132 C135 1.387 . S
H133 C129 0.950 . S
H134 C131 0.950 . S
C135 C126 1.390 . S
C135 H128 0.950 . S
C135 C132 1.387 . S
C136 C137 1.387 . S
C136 H140 0.950 . S
C136 C145 1.390 . S
C137 C136 1.387 . S
C137 C139 1.387 . S
H138 C145 0.950 . S
C139 C137 1.387 . S
C139 C141 1.390 . S
C139 H143 0.950 . S
H140 C136 0.950 . S
C141 C139 1.390 . S
C141 C142 1.387 . S
C141 H144 0.950 . S
C142 C141 1.387 . S
C142 C145 1.387 . S
H143 C139 0.950 . S
H144 C141 0.950 . S
C145 C136 1.390 . S
C145 H138 0.950 . S
C145 C142 1.387 . S
C146 C147 1.387 . S
C146 H150 0.950 . S
C146 C155 1.390 . S
C147 C146 1.387 . S
C147 C149 1.387 . S
H148 C155 0.950 . S
C149 C147 1.387 . S
C149 C151 1.390 . S
C149 H153 0.950 . S
H150 C146 0.950 . S
C151 C149 1.390 . S
C151 C152 1.387 . S
C151 H154 0.950 . S
C152 C151 1.387 . S
C152 C155 1.387 . S
H153 C149 0.950 . S
H154 C151 0.950 . S
C155 C146 1.390 . S
C155 H148 0.950 . S
C155 C152 1.387 . S
C156 C157 1.387 . S
C156 H160 0.950 . S
C156 C165 1.390 . S
C157 C156 1.387 . S
C157 C159 1.387 . S
H158 C165 0.950 . S
C159 C157 1.387 . S
C159 C161 1.390 . S
C159 H163 0.950 . S
H160 C156 0.950 . S
C161 C159 1.390 . S
C161 C162 1.387 . S
C161 H164 0.950 . S
C162 C161 1.387 . S
C162 C165 1.387 . S
H163 C159 0.950 . S
H164 C161 0.950 . S
C165 C156 1.390 . S
C165 H158 0.950 . S
C165 C162 1.387 . S
C166 C167 1.387 . S
C166 H170 0.950 . S
C166 C175 1.390 . S
C167 C166 1.387 . S
C167 C169 1.387 . S
H168 C175 0.950 . S
C169 C167 1.387 . S
C169 C171 1.390 . S
C169 H173 0.950 . S
H170 C166 0.950 . S
C171 C169 1.390 . S
C171 C172 1.387 . S
C171 H174 0.950 . S
C172 C171 1.387 . S
C172 C175 1.387 . S
H173 C169 0.950 . S
H174 C171 0.950 . S
C175 C166 1.390 . S
C175 H168 0.950 . S
C175 C172 1.387 . S
C176 C177 1.387 . S
C176 H180 0.950 . S
C176 C185 1.390 . S
C177 C176 1.387 . S
C177 C179 1.387 . S
H178 C185 0.950 . S
C179 C177 1.387 . S
C179 C181 1.390 . S
C179 H183 0.950 . S
H180 C176 0.950 . S
C181 C179 1.390 . S
C181 C182 1.387 . S
C181 H184 0.950 . S
C182 C181 1.387 . S
C182 C185 1.387 . S
H183 C179 0.950 . S
H184 C181 0.950 . S
C185 C176 1.390 . S
C185 H178 0.950 . S
C185 C182 1.387 . S
C186 C187 1.387 . S
C186 H190 0.950 . S
C186 C195 1.390 . S
C187 C186 1.387 . S
C187 C189 1.387 . S
H188 C195 0.950 . S
C189 C187 1.387 . S
C189 C191 1.390 . S
C189 H193 0.950 . S
H190 C186 0.950 . S
C191 C189 1.390 . S
C191 C192 1.387 . S
C191 H194 0.950 . S
C192 C191 1.387 . S
C192 C195 1.387 . S
H193 C189 0.950 . S
H194 C191 0.950 . S
C195 C186 1.390 . S
C195 H188 0.950 . S
C195 C192 1.387 . S
C196 C197 1.387 . S
C196 H200 0.950 . S
C196 C205 1.390 . S
C197 C196 1.387 . S
C197 C199 1.387 . S
H198 C205 0.950 . S
C199 C197 1.387 . S
C199 C201 1.390 . S
C199 H203 0.950 . S
H200 C196 0.950 . S
C201 C199 1.390 . S
C201 C202 1.387 . S
C201 H204 0.950 . S
C202 C201 1.387 . S
C202 C205 1.387 . S
H203 C199 0.950 . S
H204 C201 0.950 . S
C205 C196 1.390 . S
C205 H198 0.950 . S
C205 C202 1.387 . S
C206 C207 1.387 . S
C206 H210 0.950 . S
C206 C215 1.390 . S
C207 C206 1.387 . S
C207 C209 1.387 . S
H208 C215 0.950 . S
C209 C207 1.387 . S
C209 C211 1.390 . S
C209 H213 0.950 . S
H210 C206 0.950 . S
C211 C209 1.390 . S
C211 C212 1.387 . S
C211 H214 0.950 . S
C212 C211 1.387 . S
C212 C215 1.387 . S
H213 C209 0.950 . S
H214 C211 0.950 . S
C215 C206 1.390 . S
C215 H208 0.950 . S
C215 C212 1.387 . S
C216 C217 1.387 . S
C216 H220 0.950 . S
C216 C225 1.390 . S
C217 C216 1.387 . S
C217 C219 1.387 . S
H218 C225 0.950 . S
C219 C217 1.387 . S
C219 C221 1.390 . S
C219 H223 0.950 . S
H220 C216 0.950 . S
C221 C219 1.390 . S
C221 C222 1.387 . S
C221 H224 0.950 . S
C222 C221 1.387 . S
C222 C225 1.387 . S
H223 C219 0.950 . S
H224 C221 0.950 . S
C225 C216 1.390 . S
C225 H218 0.950 . S
C225 C222 1.387 . S
C226 C227 1.387 . S
C226 H230 0.950 . S
C226 C235 1.390 . S
C227 C226 1.387 . S
C227 C229 1.387 . S
H228 C235 0.950 . S
C229 C227 1.387 . S
C229 C231 1.390 . S
C229 H233 0.950 . S
H230 C226 0.950 . S
C231 C229 1.390 . S
C231 C232 1.387 . S
C231 H234 0.950 . S
C232 C231 1.387 . S
C232 C235 1.387 . S
H233 C229 0.950 . S
H234 C231 0.950 . S
C235 C226 1.390 . S
C235 H228 0.950 . S
C235 C232 1.387 . S
C236 C237 1.387 . S
C236 H240 0.950 . S
C236 C245 1.390 . S
C237 C236 1.387 . S
C237 C239 1.387 . S
H238 C245 0.950 . S
C239 C237 1.387 . S
C239 C241 1.390 . S
C239 H243 0.950 . S
H240 C236 0.950 . S
C241 C239 1.390 . S
C241 C242 1.387 . S
C241 H244 0.950 . S
C242 C241 1.387 . S
C242 C245 1.387 . S
H243 C239 0.950 . S
H244 C241 0.950 . S
C245 C236 1.390 . S
C245 H238 0.950 . S
C245 C242 1.387 . S
C246 C247 1.387 1_655 S
C246 H250 0.950 . S
C246 C255 1.390 1_554 S
C247 C246 1.387 1_455 S
C247 C249 1.387 . S
H248 C255 0.950 . S
C249 C247 1.387 . S
C249 C251 1.390 . S
C249 H253 0.950 . S
H250 C246 0.950 . S
C251 C249 1.390 . S
C251 C252 1.387 1_554 S
C251 H254 0.950 1_554 S
C252 C251 1.387 1_556 S
C252 C255 1.387 1_455 S
H253 C249 0.950 . S
H254 C251 0.950 1_556 S
C255 C246 1.390 1_556 S
C255 H248 0.950 . S
C255 C252 1.387 1_655 S
C256 C257 1.387 . S
C256 H260 0.950 . S
C256 C265 1.390 . S
C257 C256 1.387 . S
C257 C259 1.387 1_545 S
H258 C265 0.950 . S
C259 C257 1.387 1_565 S
C259 C261 1.390 . S
C259 H263 0.950 . S
H260 C256 0.950 . S
C261 C259 1.390 . S
C261 C262 1.387 . S
C261 H264 0.950 . S
C262 C261 1.387 . S
C262 C265 1.387 1_565 S
H263 C259 0.950 . S
H264 C261 0.950 . S
C265 C256 1.390 . S
C265 H258 0.950 . S
C265 C262 1.387 1_545 S
C266 C267 1.387 . S
C266 H270 0.950 . S
C266 C275 1.390 . S
C267 C266 1.387 . S
C267 C269 1.387 . S
H268 C275 0.950 . S
C269 C267 1.387 . S
C269 C271 1.390 . S
C269 H273 0.950 . S
H270 C266 0.950 . S
C271 C269 1.390 . S
C271 C272 1.387 . S
C271 H274 0.950 . S
C272 C271 1.387 . S
C272 C275 1.387 . S
H273 C269 0.950 . S
H274 C271 0.950 . S
C275 C266 1.390 . S
C275 H268 0.950 . S
C275 C272 1.387 . S
C276 C277 1.387 . S
C276 H280 0.950 . S
C276 C285 1.390 . S
C277 C276 1.387 . S
C277 C279 1.387 1_545 S
H278 C285 0.950 . S
C279 C277 1.387 1_565 S
C279 C281 1.390 . S
C279 H283 0.950 . S
H280 C276 0.950 . S
C281 C279 1.390 . S
C281 C282 1.387 1_565 S
C281 H284 0.950 . S
C282 C281 1.387 1_545 S
C282 C285 1.387 . S
H283 C279 0.950 . S
H284 C281 0.950 . S
C285 C276 1.390 . S
C285 H278 0.950 . S
C285 C282 1.387 . S
C286 C287 1.387 . S
C286 H290 0.950 . S
C286 C295 1.390 1_556 S
C287 C286 1.387 . S
C287 C289 1.387 . S
H288 C295 0.950 . S
C289 C287 1.387 . S
C289 C291 1.390 . S
C289 H293 0.950 . S
H290 C286 0.950 . S
C291 C289 1.390 . S
C291 C292 1.387 1_556 S
C291 H294 0.950 1_556 S
C292 C291 1.387 1_554 S
C292 C295 1.387 . S
H293 C289 0.950 . S
H294 C291 0.950 1_554 S
C295 C286 1.390 1_554 S
C295 H288 0.950 . S
C295 C292 1.387 . S
C296 C297 1.387 1_655 S
C296 H300 0.950 . S
C296 C305 1.390 . S
C297 C296 1.387 1_455 S
C297 C299 1.387 . S
H298 C305 0.950 . S
C299 C297 1.387 . S
C299 C301 1.390 . S
C299 H303 0.950 . S
H300 C296 0.950 . S
C301 C299 1.390 . S
C301 C302 1.387 1_455 S
C301 H304 0.950 . S
C302 C301 1.387 1_655 S
C302 C305 1.387 . S
H303 C299 0.950 . S
H304 C301 0.950 . S
C305 C296 1.390 . S
C305 H298 0.950 . S
C305 C302 1.387 . S
C127 C2 1.180 . S
C132 C120 1.012 . S
C137 C21 1.126 . S
C142 C98 1.008 . S
C147 C42 1.019 . S
C152 C112 1.001 . S
C157 C1 0.975 . S
C162 C123 0.952 . S
C172 C101 0.998 . S
C167 C22 1.021 . S
C182 C109 1.000 . S
C177 C41 1.123 . S
C187 C38 2.018 . S
C192 C76 1.741 . S
C197 C59 2.078 . S
C202 C87 1.773 . S
C207 C18 2.017 . S
C212 C65 1.736 . S
C222 C79 1.823 . S
C217 C39 1.890 . S
C232 C90 1.774 . S
C227 C58 1.857 . S
C237 C19 1.890 . S
C242 C68 1.823 . S
C252 C89 1.504 . S
C247 C9 1.512 . S
C257 C29 1.542 . S
C262 C67 1.509 . S
C267 C49 1.541 . S
C272 C78 1.509 . S
C282 C111 1.383 . S
C277 C28 1.417 . S
C292 C122 1.371 . S
C287 C48 1.433 . S
C297 C8 1.419 . S
C302 C100 1.378 . S
