# Generated by pormake.
# Topology pto, (3,4)-cn, num edge types: 1
# Building blocks:
#     Node 0, Type 0, BuildingBlock: WUSLED_clean_sbu_0, # of connection points: 3
#     Node 1, Type 0, BuildingBlock: WUSLED_clean_sbu_0, # of connection points: 3
#     Node 2, Type 0, BuildingBlock: WUSLED_clean_sbu_0, # of connection points: 3
#     Node 3, Type 0, BuildingBlock: WUSLED_clean_sbu_0, # of connection points: 3
#     Node 4, Type 0, BuildingBlock: WUSLED_clean_sbu_0, # of connection points: 3
#     Node 5, Type 0, BuildingBlock: WUSLED_clean_sbu_0, # of connection points: 3
#     Node 6, Type 0, BuildingBlock: WUSLED_clean_sbu_0, # of connection points: 3
#     Node 7, Type 0, BuildingBlock: WUSLED_clean_sbu_0, # of connection points: 3
#     Node 8, Type 1, BuildingBlock: KOZSID_clean_sbu_0, # of connection points: 4
#     Node 9, Type 1, BuildingBlock: KOZSID_clean_sbu_0, # of connection points: 4
#     Node 10, Type 1, BuildingBlock: KOZSID_clean_sbu_0, # of connection points: 4
#     Node 11, Type 1, BuildingBlock: KOZSID_clean_sbu_0, # of connection points: 4
#     Node 12, Type 1, BuildingBlock: KOZSID_clean_sbu_0, # of connection points: 4
#     Node 13, Type 1, BuildingBlock: KOZSID_clean_sbu_0, # of connection points: 4
#     Edge 14, Type (0, 1), BuildingBlock: ZUJKAS_clean_linker_0, # of connection points: 2
#     Edge 15, Type (0, 1), BuildingBlock: ZUJKAS_clean_linker_0, # of connection points: 2
#     Edge 16, Type (0, 1), BuildingBlock: ZUJKAS_clean_linker_0, # of connection points: 2
#     Edge 17, Type (0, 1), BuildingBlock: ZUJKAS_clean_linker_0, # of connection points: 2
#     Edge 18, Type (0, 1), BuildingBlock: ZUJKAS_clean_linker_0, # of connection points: 2
#     Edge 19, Type (0, 1), BuildingBlock: ZUJKAS_clean_linker_0, # of connection points: 2
#     Edge 20, Type (0, 1), BuildingBlock: ZUJKAS_clean_linker_0, # of connection points: 2
#     Edge 21, Type (0, 1), BuildingBlock: ZUJKAS_clean_linker_0, # of connection points: 2
#     Edge 22, Type (0, 1), BuildingBlock: ZUJKAS_clean_linker_0, # of connection points: 2
#     Edge 23, Type (0, 1), BuildingBlock: ZUJKAS_clean_linker_0, # of connection points: 2
#     Edge 24, Type (0, 1), BuildingBlock: ZUJKAS_clean_linker_0, # of connection points: 2
#     Edge 25, Type (0, 1), BuildingBlock: ZUJKAS_clean_linker_0, # of connection points: 2
#     Edge 26, Type (0, 1), BuildingBlock: ZUJKAS_clean_linker_0, # of connection points: 2
#     Edge 27, Type (0, 1), BuildingBlock: ZUJKAS_clean_linker_0, # of connection points: 2
#     Edge 28, Type (0, 1), BuildingBlock: ZUJKAS_clean_linker_0, # of connection points: 2
#     Edge 29, Type (0, 1), BuildingBlock: ZUJKAS_clean_linker_0, # of connection points: 2
#     Edge 30, Type (0, 1), BuildingBlock: ZUJKAS_clean_linker_0, # of connection points: 2
#     Edge 31, Type (0, 1), BuildingBlock: ZUJKAS_clean_linker_0, # of connection points: 2
#     Edge 32, Type (0, 1), BuildingBlock: ZUJKAS_clean_linker_0, # of connection points: 2
#     Edge 33, Type (0, 1), BuildingBlock: ZUJKAS_clean_linker_0, # of connection points: 2
#     Edge 34, Type (0, 1), BuildingBlock: ZUJKAS_clean_linker_0, # of connection points: 2
#     Edge 35, Type (0, 1), BuildingBlock: ZUJKAS_clean_linker_0, # of connection points: 2
#     Edge 36, Type (0, 1), BuildingBlock: ZUJKAS_clean_linker_0, # of connection points: 2
#     Edge 37, Type (0, 1), BuildingBlock: ZUJKAS_clean_linker_0, # of connection points: 2
# Relax obj value: 0.000
# Max RMSD: 0.020
# Mean RMSD: 0.009
data_MOF--net-pto--node1-WUSLED_clean_sbu_0--node2-KOZSID_clean_sbu_0--edge1-ZUJKAS_clean_linker_0
_symmetry_space_group_name_H-M    P1
_symmetry_Int_Tables_number       1
_symmetry_cell_setting            triclinic
loop_
_symmetry_equiv_pos_as_xyz
'x, y, z'
_cell_length_a     59.969161
_cell_length_b     80.173609
_cell_length_c     70.172016
_cell_angle_alpha  87.841007
_cell_angle_beta   88.605598
_cell_angle_gamma 92.433386
loop_
_atom_site_label
_atom_site_type_symbol
_atom_site_fract_x
_atom_site_fract_y
_atom_site_fract_z
_atom_type_partial_charge
C0 C 0.25235 0.23613 0.3485 0.0
C1 C 0.2625 0.22239 0.34068 0.0
C2 C 0.25601 0.20619 0.37061 0.0
C3 C 0.26425 0.20754 0.35162 0.0
C4 C 0.246 0.22008 0.37836 0.0
C5 C 0.24418 0.23488 0.3674 0.0
U6 U 0.26762 0.26544 0.30535 0.0
O7 O 0.24612 0.28059 0.28721 0.0
O8 O 0.27257 0.2928 0.30348 0.0
C9 C 0.25549 0.29478 0.29234 0.0
C10 C 0.25001 0.2518 0.33719 0.0
C11 C 0.24009 0.30786 0.29741 0.0
C12 C 0.21813 0.32255 0.32052 0.0
C13 C 0.23236 0.30968 0.31623 0.0
C14 C 0.21903 0.33169 0.28721 0.0
C15 C 0.21129 0.33372 0.30603 0.0
C16 C 0.23327 0.31891 0.28297 0.0
C17 C 0.31094 0.25261 0.26803 0.0
C18 C 0.33421 0.27068 0.2463 0.0
C19 C 0.32716 0.24163 0.23923 0.0
C20 C 0.31407 0.23931 0.25596 0.0
C21 C 0.33753 0.25731 0.23426 0.0
C22 C 0.32095 0.26838 0.26298 0.0
C23 C 0.29753 0.24961 0.28587 0.0
O24 O 0.26749 0.26228 0.33668 0.0
O25 O 0.24086 0.25026 0.32047 0.0
O26 O 0.27592 0.24717 0.28384 0.0
O27 O 0.30253 0.25923 0.30007 0.0
H28 H 0.26903 0.22316 0.32612 0.0
H29 H 0.27228 0.19717 0.34527 0.0
H30 H 0.23922 0.21943 0.39283 0.0
H31 H 0.23627 0.24535 0.37367 0.0
H32 H 0.21231 0.32366 0.33513 0.0
H33 H 0.23737 0.30122 0.32758 0.0
H34 H 0.21442 0.34019 0.27575 0.0
H35 H 0.23912 0.31774 0.26837 0.0
H36 H 0.34175 0.28296 0.24276 0.0
H37 H 0.32957 0.23104 0.23038 0.0
H38 H 0.30653 0.22704 0.25959 0.0
H39 H 0.31865 0.2789 0.27197 0.0
C40 C 0.24431 0.80815 0.69911 0.0
C41 C 0.25444 0.82237 0.7069 0.0
C42 C 0.24892 0.83857 0.67734 0.0
C43 C 0.25666 0.83747 0.69613 0.0
C44 C 0.23888 0.82422 0.66965 0.0
C45 C 0.2366 0.80918 0.68044 0.0
U46 U 0.25878 0.77889 0.74106 0.0
O47 O 0.23714 0.76173 0.75922 0.0
O48 O 0.26403 0.75183 0.74174 0.0
C49 C 0.24666 0.74835 0.7532 0.0
C50 C 0.2417 0.79215 0.71015 0.0
C51 C 0.2316 0.73435 0.74785 0.0
C52 C 0.19677 0.72333 0.73516 0.0
C53 C 0.21111 0.73696 0.73917 0.0
C54 C 0.22346 0.70438 0.74808 0.0
C55 C 0.20274 0.70686 0.73965 0.0
C56 C 0.23769 0.71797 0.75213 0.0
C57 C 0.30204 0.79347 0.77692 0.0
C58 C 0.3095 0.7782 0.80655 0.0
C59 C 0.33362 0.80191 0.79591 0.0
C60 C 0.32064 0.80415 0.77981 0.0
C61 C 0.32823 0.78892 0.80951 0.0
C62 C 0.29656 0.78043 0.79035 0.0
C63 C 0.28868 0.79615 0.75983 0.0
O64 O 0.25912 0.78274 0.70981 0.0
O65 O 0.23233 0.79278 0.72723 0.0
O66 O 0.26705 0.79703 0.76284 0.0
O67 O 0.29377 0.7871 0.74524 0.0
H68 H 0.26063 0.82179 0.72127 0.0
H69 H 0.26468 0.84821 0.70242 0.0
H70 H 0.23247 0.82465 0.65535 0.0
H71 H 0.22873 0.79834 0.6742 0.0
H72 H 0.18106 0.72568 0.72849 0.0
H73 H 0.20611 0.74951 0.73564 0.0
H74 H 0.22848 0.69191 0.75198 0.0
H75 H 0.25338 0.71569 0.75889 0.0
H76 H 0.30502 0.76797 0.81662 0.0
H77 H 0.34772 0.81052 0.79785 0.0
H78 H 0.32511 0.81429 0.7696 0.0
H79 H 0.28231 0.77198 0.7883 0.0
C80 C 0.73721 0.79282 0.27408 0.0
C81 C 0.74563 0.78516 0.25789 0.0
C82 C 0.71067 0.78921 0.24155 0.0
C83 C 0.73252 0.78342 0.24177 0.0
C84 C 0.70223 0.79659 0.25798 0.0
C85 C 0.71538 0.79841 0.27402 0.0
U86 U 0.78062 0.77868 0.30987 0.0
O87 O 0.80795 0.79313 0.32285 0.0
O88 O 0.78115 0.7811 0.341 0.0
C89 C 0.799 0.79122 0.34012 0.0
C90 C 0.75089 0.79535 0.29103 0.0
C91 C 0.79742 0.80659 0.35085 0.0
C92 C 0.78151 0.83352 0.35599 0.0
C93 C 0.78279 0.81904 0.34549 0.0
C94 C 0.80947 0.82322 0.37725 0.0
C95 C 0.7948 0.83578 0.37206 0.0
C96 C 0.81074 0.80879 0.36675 0.0
C97 C 0.8062 0.73555 0.30362 0.0
C98 C 0.84251 0.72517 0.31173 0.0
C99 C 0.81151 0.70566 0.3066 0.0
C100 C 0.79774 0.71901 0.30307 0.0
C101 C 0.83418 0.70854 0.31069 0.0
C102 C 0.82866 0.73855 0.30824 0.0
C103 C 0.7915 0.74923 0.29831 0.0
O104 O 0.74572 0.78543 0.30596 0.0
O105 O 0.77254 0.79758 0.28791 0.0
O106 O 0.80126 0.76336 0.29171 0.0
O107 O 0.77448 0.75136 0.30999 0.0
H108 H 0.76241 0.78066 0.25761 0.0
H109 H 0.7397 0.77784 0.22936 0.0
H110 H 0.68536 0.8009 0.25852 0.0
H111 H 0.70851 0.80426 0.2864 0.0
H112 H 0.76987 0.84283 0.35169 0.0
H113 H 0.77233 0.81753 0.33324 0.0
H114 H 0.82022 0.82462 0.38932 0.0
H115 H 0.82218 0.79933 0.37105 0.0
H116 H 0.8599 0.72788 0.31469 0.0
H117 H 0.80438 0.69306 0.30605 0.0
H118 H 0.78046 0.71639 0.29959 0.0
H119 H 0.83563 0.75121 0.30879 0.0
C120 C 0.77042 0.23119 0.73133 0.0
C121 C 0.79153 0.22923 0.72278 0.0
C122 C 0.77628 0.20668 0.70387 0.0
C123 C 0.79445 0.21704 0.70922 0.0
C124 C 0.75512 0.20894 0.71226 0.0
C125 C 0.75226 0.22104 0.72585 0.0
U126 U 0.78239 0.27298 0.75558 0.0
O127 O 0.75893 0.28934 0.76946 0.0
O128 O 0.785 0.27773 0.78619 0.0
C129 C 0.76713 0.28667 0.78646 0.0
C130 C 0.76695 0.24324 0.74642 0.0
C131 C 0.75088 0.28265 0.80228 0.0
C132 C 0.71487 0.27128 0.81465 0.0
C133 C 0.73029 0.27419 0.79943 0.0
C134 C 0.74062 0.28488 0.8358 0.0
C135 C 0.71983 0.27666 0.83301 0.0
C136 C 0.75593 0.28786 0.82059 0.0
C137 C 0.82561 0.30557 0.73473 0.0
C138 C 0.8286 0.33438 0.74447 0.0
C139 C 0.8584 0.32319 0.72558 0.0
C140 C 0.84651 0.3078 0.7254 0.0
C141 C 0.84958 0.3367 0.73506 0.0
C142 C 0.81677 0.31894 0.74438 0.0
C143 C 0.81332 0.28927 0.73422 0.0
O144 O 0.7835 0.24562 0.75811 0.0
O145 O 0.75753 0.25714 0.74118 0.0
O146 O 0.79185 0.2898 0.73097 0.0
O147 O 0.81789 0.27829 0.74779 0.0
H148 H 0.80579 0.237 0.72669 0.0
H149 H 0.8109 0.21577 0.70288 0.0
H150 H 0.74083 0.20106 0.70868 0.0
H151 H 0.73586 0.22231 0.73232 0.0
H152 H 0.69911 0.26476 0.81207 0.0
H153 H 0.72606 0.26996 0.78544 0.0
H154 H 0.74488 0.28938 0.84966 0.0
H155 H 0.77168 0.29444 0.82308 0.0
H156 H 0.82145 0.34445 0.7521 0.0
H157 H 0.87437 0.32459 0.71802 0.0
H158 H 0.8536 0.29764 0.71788 0.0
H159 H 0.80072 0.31743 0.75181 0.0
C160 C 0.79863 0.73836 0.75764 0.0
C161 C 0.81775 0.74152 0.74589 0.0
C162 C 0.82649 0.71204 0.74854 0.0
C163 C 0.83161 0.72847 0.74142 0.0
C164 C 0.80714 0.709 0.76011 0.0
C165 C 0.7934 0.72202 0.7646 0.0
U166 U 0.77438 0.78203 0.75111 0.0
O167 O 0.7397 0.78926 0.75573 0.0
O168 O 0.76635 0.79997 0.77296 0.0
C169 C 0.74477 0.79851 0.7702 0.0
C170 C 0.78408 0.75182 0.7632 0.0
C171 C 0.73054 0.79554 0.7875 0.0
C172 C 0.7192 0.77896 0.81612 0.0
C173 C 0.73285 0.78145 0.79967 0.0
C174 C 0.70075 0.80453 0.80828 0.0
C175 C 0.70295 0.79048 0.82062 0.0
C176 C 0.71442 0.80702 0.7919 0.0
C177 C 0.79278 0.81174 0.70903 0.0
C178 C 0.77527 0.83801 0.70195 0.0
C179 C 0.80762 0.8305 0.68335 0.0
C180 C 0.80851 0.81559 0.69427 0.0
C181 C 0.79092 0.84189 0.68695 0.0
C182 C 0.7762 0.82307 0.71289 0.0
C183 C 0.79383 0.7958 0.72007 0.0
O184 O 0.79418 0.7655 0.76908 0.0
O185 O 0.76746 0.7548 0.75188 0.0
O186 O 0.77581 0.78589 0.7199 0.0
O187 O 0.80241 0.79675 0.73707 0.0
H188 H 0.82202 0.75405 0.74029 0.0
H189 H 0.84624 0.73123 0.73232 0.0
H190 H 0.80285 0.69659 0.76608 0.0
H191 H 0.77874 0.71935 0.77373 0.0
H192 H 0.72119 0.76792 0.82519 0.0
H193 H 0.74519 0.77241 0.79644 0.0
H194 H 0.68867 0.81378 0.81142 0.0
H195 H 0.71245 0.81799 0.78269 0.0
H196 H 0.76205 0.84638 0.70502 0.0
H197 H 0.82018 0.83317 0.67217 0.0
H198 H 0.8215 0.80703 0.69115 0.0
H199 H 0.7639 0.8203 0.72425 0.0
C200 C 0.74359 0.25333 0.27756 0.0
C201 C 0.74088 0.26939 0.26949 0.0
C202 C 0.7183 0.2576 0.2444 0.0
C203 C 0.72827 0.27151 0.25308 0.0
C204 C 0.72123 0.24156 0.25254 0.0
C205 C 0.73374 0.23947 0.26896 0.0
U206 U 0.78586 0.26803 0.31427 0.0
O207 O 0.78502 0.26399 0.34551 0.0
O208 O 0.81217 0.25417 0.32833 0.0
C209 C 0.80259 0.25474 0.34533 0.0
C210 C 0.75651 0.25074 0.29494 0.0
C211 C 0.80019 0.23875 0.35641 0.0
C212 C 0.78808 0.2094 0.3596 0.0
C213 C 0.78991 0.2245 0.34881 0.0
C214 C 0.80656 0.2227 0.3857 0.0
C215 C 0.79639 0.20831 0.37819 0.0
C216 C 0.80844 0.23774 0.3749 0.0
C217 C 0.81361 0.31258 0.30813 0.0
C218 C 0.85089 0.32569 0.31017 0.0
C219 C 0.81845 0.34149 0.31735 0.0
C220 C 0.80456 0.32758 0.31369 0.0
C221 C 0.84181 0.34083 0.31537 0.0
C222 C 0.83697 0.31174 0.30658 0.0
C223 C 0.79843 0.29859 0.30252 0.0
O224 O 0.77819 0.2499 0.29227 0.0
O225 O 0.75107 0.25978 0.30946 0.0
O226 O 0.78075 0.29511 0.31365 0.0
O227 O 0.80772 0.28518 0.2963 0.0
H228 H 0.74848 0.28025 0.27589 0.0
H229 H 0.72654 0.28401 0.24707 0.0
H230 H 0.71355 0.2306 0.24641 0.0
H231 H 0.73562 0.22698 0.27501 0.0
H232 H 0.77994 0.19863 0.35345 0.0
H233 H 0.78333 0.22506 0.33457 0.0
H234 H 0.81341 0.22228 0.39984 0.0
H235 H 0.81646 0.2486 0.38099 0.0
H236 H 0.86875 0.32474 0.30827 0.0
H237 H 0.81084 0.35283 0.32161 0.0
H238 H 0.78663 0.32865 0.31488 0.0
H239 H 0.84456 0.30044 0.30216 0.0
C240 C 0.249 0.24265 0.70385 0.0
C241 C 0.25644 0.2279 0.71252 0.0
C242 C 0.25173 0.21333 0.68283 0.0
C243 C 0.25776 0.21337 0.70212 0.0
C244 C 0.24459 0.22826 0.67421 0.0
C245 C 0.24321 0.24273 0.68463 0.0
U246 U 0.2635 0.2705 0.74558 0.0
O247 O 0.26995 0.2978 0.74563 0.0
O248 O 0.24199 0.28602 0.76272 0.0
C249 C 0.25227 0.30007 0.75652 0.0
C250 C 0.24701 0.25805 0.71451 0.0
C251 C 0.23806 0.31387 0.75055 0.0
C252 C 0.20234 0.32451 0.74108 0.0
C253 C 0.21588 0.31103 0.74505 0.0
C254 C 0.23314 0.34381 0.74748 0.0
C255 C 0.21071 0.34109 0.74252 0.0
C256 C 0.2466 0.33037 0.7515 0.0
C257 C 0.30423 0.25574 0.78338 0.0
C258 C 0.32114 0.2736 0.80682 0.0
C259 C 0.32454 0.24362 0.80966 0.0
C260 C 0.31217 0.24174 0.79318 0.0
C261 C 0.32926 0.25957 0.81667 0.0
C262 C 0.30866 0.2717 0.79035 0.0
C263 C 0.29158 0.2534 0.76586 0.0
O264 O 0.23691 0.25632 0.73136 0.0
O265 O 0.26498 0.26802 0.71441 0.0
O266 O 0.29777 0.26328 0.75113 0.0
O267 O 0.26979 0.25161 0.76821 0.0
H268 H 0.26105 0.2276 0.72736 0.0
H269 H 0.26314 0.20209 0.70929 0.0
H270 H 0.24022 0.22883 0.65932 0.0
H271 H 0.23758 0.25402 0.67764 0.0
H272 H 0.18513 0.32191 0.73745 0.0
H273 H 0.20885 0.29842 0.74419 0.0
H274 H 0.24032 0.35637 0.74838 0.0
H275 H 0.26366 0.33287 0.75567 0.0
H276 H 0.32426 0.28604 0.81195 0.0
H277 H 0.33075 0.23257 0.81673 0.0
H278 H 0.30894 0.22933 0.78799 0.0
H279 H 0.30255 0.28266 0.78304 0.0
C280 C 0.21859 0.74267 0.32284 0.0
C281 C 0.22183 0.73177 0.30793 0.0
C282 C 0.19436 0.71163 0.32273 0.0
C283 C 0.20983 0.71639 0.30788 0.0
C284 C 0.19127 0.72266 0.33763 0.0
C285 C 0.20327 0.73801 0.33767 0.0
U286 U 0.26251 0.77432 0.30149 0.0
O287 O 0.26231 0.8017 0.2983 0.0
O288 O 0.28781 0.78998 0.31561 0.0
C289 C 0.27886 0.80397 0.31002 0.0
C290 C 0.23113 0.75886 0.32316 0.0
C291 C 0.27586 0.81642 0.32479 0.0
C292 C 0.25234 0.83277 0.3451 0.0
C293 C 0.25464 0.82013 0.33199 0.0
C294 C 0.29244 0.83783 0.34436 0.0
C295 C 0.27122 0.84193 0.35129 0.0
C296 C 0.2947 0.82526 0.33124 0.0
C297 C 0.29394 0.76275 0.25548 0.0
C298 C 0.32334 0.77998 0.23906 0.0
C299 C 0.31168 0.75333 0.22657 0.0
C300 C 0.29604 0.75079 0.24159 0.0
C301 C 0.32562 0.76791 0.22512 0.0
C302 C 0.30764 0.77741 0.25414 0.0
C303 C 0.27743 0.75952 0.27119 0.0
O304 O 0.25254 0.75802 0.32646 0.0
O305 O 0.22695 0.76968 0.3093 0.0
O306 O 0.26006 0.76898 0.27105 0.0
O307 O 0.28556 0.75724 0.28827 0.0
H308 H 0.23361 0.73517 0.29634 0.0
H309 H 0.21247 0.70832 0.29606 0.0
H310 H 0.17977 0.71933 0.34944 0.0
H311 H 0.20063 0.74624 0.34934 0.0
H312 H 0.23573 0.83565 0.34998 0.0
H313 H 0.23981 0.81347 0.32728 0.0
H314 H 0.30739 0.84433 0.34907 0.0
H315 H 0.31123 0.82257 0.32594 0.0
H316 H 0.33391 0.79129 0.23847 0.0
H317 H 0.31267 0.74391 0.21595 0.0
H318 H 0.28553 0.73943 0.24236 0.0
H319 H 0.30624 0.78678 0.26479 0.0
C320 C 0.05898 0.54664 0.34301 0.0
C321 C 0.06692 0.55147 0.36047 0.0
C322 C 0.05547 0.54179 0.37414 0.0
C323 C 0.04133 0.53158 0.36429 0.0
N324 N 0.04325 0.53398 0.34513 0.0
Co325 Co 0.02558 0.52203 0.32546 0.0
N326 N 0.00703 0.50908 0.34563 0.0
C327 C 0.00829 0.51043 0.36474 0.0
C328 C 0.99353 0.49988 0.37501 0.0
C329 C 0.98231 0.49111 0.36169 0.0
C330 C 0.99102 0.49678 0.34399 0.0
N331 N 0.0081 0.50988 0.30578 0.0
C332 C 0.99227 0.49729 0.30791 0.0
C333 C 0.9854 0.49173 0.29039 0.0
C334 C 0.99731 0.50109 0.27673 0.0
C335 C 0.01082 0.51171 0.2866 0.0
N336 N 0.0439 0.53521 0.30529 0.0
C337 C 0.04218 0.53424 0.28617 0.0
C338 C 0.05602 0.54546 0.2759 0.0
C339 C 0.06704 0.55434 0.28923 0.0
C340 C 0.05933 0.54793 0.30696 0.0
N341 N 0.04745 0.50399 0.32552 0.0
C342 C 0.07552 0.4765 0.32528 0.0
C343 C 0.07006 0.48492 0.30833 0.0
C344 C 0.05621 0.4985 0.30877 0.0
C345 C 0.06726 0.48249 0.34241 0.0
C346 C 0.05345 0.49614 0.3422 0.0
N347 N 1.0037 0.54004 0.3254 0.0
C348 C 0.98138 0.5597 0.3081 0.0
C349 C 0.97479 0.56701 0.32499 0.0
C350 C 0.98261 0.56033 0.34214 0.0
C351 C 0.99684 0.54693 0.34202 0.0
C352 C 0.99565 0.54636 0.30862 0.0
H353 H 1.00222 0.54247 0.35556 0.0
H354 H 1.00018 0.54153 0.29522 0.0
H355 H 0.05263 0.5042 0.29533 0.0
H356 H 0.04753 0.49991 0.35573 0.0
C357 C 0.02467 0.52078 0.37263 0.0
C358 C 0.0663 0.55489 0.32491 0.0
C359 C 0.98399 0.4897 0.32612 0.0
C360 C 0.02671 0.52316 0.27829 0.0
H361 H 0.07934 0.56127 0.36305 0.0
H362 H 0.05674 0.54251 0.38945 0.0
H363 H 0.99159 0.49841 0.39037 0.0
H364 H 0.96947 0.4814 0.36467 0.0
H365 H 0.97336 0.48172 0.2877 0.0
H366 H 0.99657 0.50001 0.26143 0.0
H367 H 0.05748 0.54728 0.26055 0.0
H368 H 0.07899 0.56464 0.2862 0.0
H369 H 0.07644 0.48107 0.29468 0.0
H370 H 0.0709 0.47641 0.35595 0.0
H371 H 0.976 0.56448 0.2944 0.0
H372 H 0.97771 0.56533 0.35566 0.0
C373 C 0.05137 0.55114 0.74559 0.0
C374 C 0.05935 0.55608 0.763 0.0
C375 C 0.04788 0.54652 0.77676 0.0
C376 C 0.03369 0.53628 0.76702 0.0
N377 N 0.03559 0.53854 0.74783 0.0
Co378 Co 0.01774 0.52654 0.72829 0.0
N379 N 0.99985 0.51325 0.74861 0.0
C380 C 1.00161 0.51431 0.76772 0.0
C381 C 0.98755 0.50328 0.77807 0.0
C382 C 0.97634 0.49445 0.7648 0.0
C383 C 0.98431 0.50061 0.74706 0.0
N384 N 0.99983 0.51456 0.70877 0.0
C385 C 0.98422 0.50182 0.71102 0.0
C386 C 0.97651 0.49668 0.69359 0.0
C387 C 0.98776 0.50641 0.67984 0.0
C388 C 1.00167 0.51685 0.68959 0.0
N389 N 0.03571 0.5398 0.70798 0.0
C390 C 0.03379 0.5388 0.68887 0.0
C391 C 0.04775 0.54987 0.6785 0.0
C392 C 0.05914 0.55861 0.69173 0.0
C393 C 0.05149 0.5523 0.70951 0.0
N394 N 0.03979 0.50864 0.72785 0.0
C395 C 0.06901 0.48185 0.72742 0.0
C396 C 0.06165 0.48921 0.71045 0.0
C397 C 0.04724 0.50249 0.71098 0.0
C398 C 0.06177 0.48838 0.74458 0.0
C399 C 0.04735 0.50164 0.74447 0.0
N400 N 0.99569 0.54445 0.72875 0.0
C401 C 0.9739 0.565 0.71224 0.0
C402 C 0.96648 0.57125 0.7295 0.0
C403 C 0.97364 0.5636 0.74637 0.0
C404 C 0.98805 0.55036 0.74567 0.0
C405 C 0.98828 0.55169 0.71219 0.0
H406 H 0.993 0.54529 0.75905 0.0
H407 H 0.99331 0.54759 0.69856 0.0
H408 H 0.04224 0.50748 0.69756 0.0
H409 H 0.04234 0.50585 0.75804 0.0
C410 C 0.01763 0.52504 0.7755 0.0
C411 C 0.0589 0.55915 0.7274 0.0
C412 C 0.97714 0.49362 0.72921 0.0
C413 C 0.01773 0.5281 0.68114 0.0
H414 H 0.07192 0.56579 0.76551 0.0
H415 H 0.04937 0.54721 0.79206 0.0
H416 H 0.98608 0.50156 0.79343 0.0
H417 H 0.96401 0.48439 0.76782 0.0
H418 H 0.96443 0.48666 0.69104 0.0
H419 H 0.98646 0.50559 0.66455 0.0
H420 H 0.04901 0.5517 0.66314 0.0
H421 H 0.07129 0.56876 0.68861 0.0
H422 H 0.06705 0.48482 0.69675 0.0
H423 H 0.06676 0.48306 0.75816 0.0
H424 H 0.96856 0.57028 0.69875 0.0
H425 H 0.9686 0.56804 0.76015 0.0
C426 C 0.2791 0.99829 0.55271 0.0
C427 C 0.29957 0.99351 0.55937 0.0
C428 C 0.31553 1.00314 0.54946 0.0
C429 C 0.30396 0.01325 0.53742 0.0
N430 N 0.28152 1.01081 0.53917 0.0
Co431 Co 0.25845 0.02267 0.52416 0.0
N432 N 0.28201 0.03603 0.50866 0.0
C433 C 0.3044 0.03502 0.50993 0.0
C434 C 0.31636 0.04589 0.49764 0.0
C435 C 0.30072 0.05452 0.48808 0.0
C436 C 0.28002 0.04843 0.49518 0.0
N437 N 0.23537 0.0346 0.50921 0.0
C438 C 0.2378 0.04719 0.49573 0.0
C439 C 0.21728 0.05235 0.48956 0.0
C440 C 0.20133 0.04275 0.4995 0.0
C441 C 0.21293 0.03236 0.51119 0.0
N442 N 0.23488 1.00925 0.53962 0.0
C443 C 0.21249 1.01005 0.5381 0.0
C444 C 0.20052 0.99892 0.55006 0.0
C445 C 0.21615 0.99035 0.5597 0.0
C446 C 0.23687 0.99683 0.55308 0.0
N447 N 0.25815 0.04055 0.54315 0.0
C448 C 0.25766 0.06733 0.56832 0.0
C449 C 0.23782 0.05936 0.56269 0.0
C450 C 0.23844 0.04614 0.55025 0.0
C451 C 0.27776 0.06134 0.56144 0.0
C452 C 0.27763 0.04806 0.54905 0.0
N453 N 0.25874 1.00481 0.50516 0.0
C454 C 0.23906 0.98474 0.48596 0.0
C455 C 0.25913 0.97841 0.47949 0.0
C456 C 0.27901 0.98573 0.48591 0.0
C457 C 0.27843 0.99876 0.49861 0.0
C458 C 0.23925 0.99783 0.4986 0.0
H459 H 0.29417 1.00361 0.50306 0.0
H460 H 0.22338 1.00203 0.50294 0.0
H461 H 0.22273 0.04075 0.54647 0.0
H462 H 0.29352 0.04425 0.54424 0.0
C463 C 0.31368 0.02444 0.52358 0.0
C464 C 0.25791 0.99026 0.55941 0.0
C465 C 0.25904 0.05515 0.48899 0.0
C466 C 0.20323 0.0209 0.52474 0.0
H467 H 0.30265 0.98388 0.57009 0.0
H468 H 0.33345 1.00257 0.55059 0.0
H469 H 0.33433 0.0476 0.49613 0.0
H470 H 0.30414 0.06437 0.47731 0.0
H471 H 0.21411 0.06227 0.47922 0.0
H472 H 0.18341 0.04352 0.49863 0.0
H473 H 0.18255 0.99701 0.55131 0.0
H474 H 0.21265 0.98025 0.57014 0.0
H475 H 0.22177 0.06326 0.56788 0.0
H476 H 0.29363 0.06711 0.56519 0.0
H477 H 0.22319 0.97971 0.48119 0.0
H478 H 0.29502 0.98121 0.48149 0.0
C479 C 0.48628 0.79691 0.05344 0.0
C480 C 0.47974 0.81236 0.05931 0.0
C481 C 0.49189 0.82415 0.04851 0.0
C482 C 0.50517 0.8153 0.03678 0.0
N483 N 0.50212 0.79853 0.03926 0.0
Co484 Co 0.51889 0.78104 0.02582 0.0
N485 N 0.53737 0.79846 0.01048 0.0
C486 C 0.53621 0.81524 0.01128 0.0
C487 C 0.55066 0.82402 0.99882 0.0
C488 C 0.56156 0.81216 0.98928 0.0
C489 C 0.55303 0.79676 0.99647 0.0
N490 N 0.53585 0.76355 0.01257 0.0
C491 C 0.55185 0.76515 0.99851 0.0
C492 C 0.55882 0.74971 0.99304 0.0
C493 C 0.54681 0.73793 1.00397 0.0
C494 C 0.5332 0.74679 0.01541 0.0
N495 N 0.50021 0.76362 0.04098 0.0
C496 C 0.50102 0.74684 0.03985 0.0
C497 C 0.48622 0.73805 0.05201 0.0
C498 C 0.47541 0.7499 0.06164 0.0
C499 C 0.48437 0.7653 0.05484 0.0
N500 N 0.49653 0.78079 1.00529 0.0
C501 C 0.46646 0.78061 0.97486 0.0
C502 C 0.47382 0.7657 0.983 0.0
C503 C 0.48867 0.76608 0.99807 0.0
C504 C 0.47414 0.79558 0.98249 0.0
C505 C 0.48898 0.79539 0.99755 0.0
N506 N 0.54124 0.78129 0.04636 0.0
C507 C 0.56209 0.76672 0.07049 0.0
C508 C 0.5712 0.78178 0.07689 0.0
C509 C 0.56537 0.79656 0.06742 0.0
C510 C 0.55053 0.79603 0.05237 0.0
C511 C 0.54736 0.76675 0.05532 0.0
H512 H 0.54673 0.80775 0.04594 0.0
H513 H 0.54095 0.75486 0.05126 0.0
H514 H 0.49365 0.75429 1.00354 0.0
H515 H 0.49431 0.80724 1.00253 0.0
C516 C 0.52108 0.82237 0.02368 0.0
C517 C 0.47757 0.78111 0.06229 0.0
C518 C 0.56016 0.78092 0.98932 0.0
C519 C 0.51673 0.73972 0.028 0.0
H520 H 0.46772 0.81487 0.07047 0.0
H521 H 0.4914 0.83758 0.04937 0.0
H522 H 0.55283 0.83744 0.99677 0.0
H523 H 0.57424 0.81457 0.97816 0.0
H524 H 0.57096 0.74716 0.98199 0.0
H525 H 0.54748 0.72449 1.00328 0.0
H526 H 0.48388 0.72463 0.05391 0.0
H527 H 0.46257 0.74747 0.07263 0.0
H528 H 0.4681 0.75374 0.97785 0.0
H529 H 0.46917 0.8075 0.9766 0.0
H530 H 0.56586 0.7549 0.0774 0.0
H531 H 0.57229 0.80856 0.0715 0.0
C532 C 0.81023 1.00064 0.56117 0.0
C533 C 0.83071 0.99586 0.56781 0.0
C534 C 0.84666 1.00545 0.55784 0.0
C535 C 0.83507 0.01555 0.5458 0.0
N536 N 0.81264 0.01312 0.54757 0.0
Co537 Co 0.78955 0.02503 0.53264 0.0
N538 N 0.8131 0.03825 0.51695 0.0
C539 C 0.83549 0.0372 0.51818 0.0
C540 C 0.84746 0.04808 0.50593 0.0
C541 C 0.83183 0.05672 0.49637 0.0
C542 C 0.81111 0.05056 0.50335 0.0
N543 N 0.76646 0.03707 0.51785 0.0
C544 C 0.76888 0.04964 0.50435 0.0
C545 C 0.74839 0.0547 0.49802 0.0
C546 C 0.73242 0.0452 0.50809 0.0
C547 C 0.74401 0.0349 0.5199 0.0
N548 N 0.766 0.01167 0.54817 0.0
C549 C 0.74361 0.01246 0.54668 0.0
C550 C 0.73164 1.00136 0.55868 0.0
C551 C 0.74729 0.99279 0.5683 0.0
C552 C 0.768 0.99924 0.56164 0.0
N553 N 0.78948 0.04291 0.55162 0.0
C554 C 0.78918 0.06959 0.57691 0.0
C555 C 0.7693 0.06158 0.57145 0.0
C556 C 0.76983 0.0484 0.55895 0.0
C557 C 0.80924 0.06373 0.56976 0.0
C558 C 0.80901 0.05049 0.5573 0.0
N559 N 0.78961 1.00716 0.51364 0.0
C560 C 0.7697 0.98738 0.49426 0.0
C561 C 0.78965 0.98068 0.48808 0.0
C562 C 0.80961 0.98771 0.4947 0.0
C563 C 0.80921 1.00081 0.50731 0.0
C564 C 0.77006 1.00048 0.50688 0.0
H565 H 0.82499 1.00546 0.5119 0.0
H566 H 0.75427 1.00492 0.51103 0.0
H567 H 0.75409 0.04296 0.55533 0.0
H568 H 0.82485 0.04677 0.55229 0.0
C569 C 0.84477 0.02667 0.53188 0.0
C570 C 0.78903 0.99267 0.56796 0.0
C571 C 0.79011 0.05736 0.49728 0.0
C572 C 0.73432 0.02339 0.53341 0.0
H573 H 0.8338 0.98625 0.57856 0.0
H574 H 0.86459 1.00487 0.55894 0.0
H575 H 0.86543 0.04985 0.5045 0.0
H576 H 0.83533 0.06671 0.48578 0.0
H577 H 0.7453 0.06438 0.48736 0.0
H578 H 0.7145 0.04589 0.50712 0.0
H579 H 0.71368 0.99947 0.55998 0.0
H580 H 0.74381 0.98271 0.57878 0.0
H581 H 0.7533 0.06537 0.57686 0.0
H582 H 0.82512 0.06954 0.57338 0.0
H583 H 0.75378 0.98262 0.48931 0.0
H584 H 0.82554 0.98291 0.49054 0.0
C585 C 0.49097 0.28308 0.05806 0.0
C586 C 0.48362 0.29844 0.06347 0.0
C587 C 0.49573 0.31034 0.0528 0.0
C588 C 0.50962 0.30162 0.04145 0.0
N589 N 0.50701 0.28484 0.04406 0.0
Co590 Co 0.52386 0.26751 0.03047 0.0
N591 N 0.54256 0.28508 0.01557 0.0
C592 C 0.54169 0.30184 0.01689 0.0
C593 C 0.55647 0.31075 1.00483 0.0
C594 C 0.56735 0.29901 0.99507 0.0
C595 C 0.55844 0.28355 1.00171 0.0
N596 N 0.54062 0.25017 0.01676 0.0
C597 C 0.55658 0.25194 1.00269 0.0
C598 C 0.56318 0.23656 0.99664 0.0
C599 C 0.55099 0.22466 1.00723 0.0
C600 C 0.53762 0.23338 0.01903 0.0
N601 N 0.50524 0.24992 0.04548 0.0
C602 C 0.50648 0.23316 0.04445 0.0
C603 C 0.49232 0.22423 0.05701 0.0
C604 C 0.48148 0.23596 0.06681 0.0
C605 C 0.48958 0.25146 0.05953 0.0
N606 N 0.50151 0.26755 0.00992 0.0
C607 C 0.47126 0.26751 0.9796 0.0
C608 C 0.47756 0.25258 0.98844 0.0
C609 C 0.49252 0.25289 1.00342 0.0
C610 C 0.48014 0.28247 0.98643 0.0
C611 C 0.49504 0.28221 1.00147 0.0
N612 N 0.5462 0.26746 0.05102 0.0
C613 C 0.56848 0.25238 0.07367 0.0
C614 C 0.5764 0.26726 0.08138 0.0
C615 C 0.56916 0.28226 0.07338 0.0
C616 C 0.55425 0.28208 0.05835 0.0
C617 C 0.55359 0.25276 0.05864 0.0
H618 H 0.54938 0.29393 0.05298 0.0
H619 H 0.54812 0.24098 0.05359 0.0
H620 H 0.49672 0.24107 1.00936 0.0
H621 H 0.50119 0.29404 1.00593 0.0
C622 C 0.52603 0.30884 0.0289 0.0
C623 C 0.48248 0.26723 0.06694 0.0
C624 C 0.56539 0.26782 0.99414 0.0
C625 C 0.52167 0.22617 0.032 0.0
H626 H 0.471 0.30081 0.0742 0.0
H627 H 0.49479 0.32376 0.05348 0.0
H628 H 0.55879 0.32419 1.0031 0.0
H629 H 0.58021 0.30156 0.98413 0.0
H630 H 0.5753 0.23417 0.98551 0.0
H631 H 0.55152 0.21124 1.00622 0.0
H632 H 0.49045 0.21079 0.05908 0.0
H633 H 0.46928 0.23334 0.07826 0.0
H634 H 0.47138 0.24062 0.98359 0.0
H635 H 0.47554 0.29441 0.98031 0.0
H636 H 0.57333 0.24039 0.07944 0.0
H637 H 0.57506 0.29416 0.0786 0.0
H638 H 0.17607 0.34453 0.2855 0.0
H639 H 0.15322 0.36844 0.29139 0.0
H640 H 0.18934 0.37801 0.34249 0.0
H641 H 0.21273 0.35434 0.33643 0.0
H642 H 0.1256 0.37506 0.32312 0.0
H643 H 0.19487 0.42309 0.31232 0.0
H644 H 0.19723 0.40185 0.30509 0.0
H645 H 0.1995 0.40669 0.32977 0.0
C646 C 0.17928 0.35178 0.29794 0.0
C647 C 0.19641 0.3476 0.31038 0.0
C648 C 0.16609 0.36538 0.30134 0.0
C649 C 0.16979 0.37518 0.31721 0.0
C650 C 0.18644 0.3708 0.32998 0.0
H651 H 0.1084 0.46756 0.34986 0.0
H652 H 0.1306 0.44261 0.34936 0.0
C653 C 0.19964 0.35715 0.3266 0.0
C654 C 0.15624 0.39001 0.32018 0.0
H655 H 0.15954 0.43264 0.32107 0.0
C656 C 0.13302 0.38765 0.32272 0.0
C657 C 0.16596 0.40643 0.31973 0.0
C658 C 0.19073 0.40977 0.31643 0.0
C659 C 0.11923 0.40125 0.32479 0.0
C660 C 0.12888 0.4177 0.32389 0.0
C661 C 0.15216 0.42004 0.32173 0.0
C662 C 0.11506 0.43266 0.32446 0.0
C663 C 0.09447 0.39785 0.3281 0.0
C664 C 0.09912 0.43547 0.31051 0.0
C665 C 0.08633 0.44965 0.31082 0.0
C666 C 0.0893 0.46144 0.325 0.0
C667 C 0.10544 0.45865 0.33888 0.0
C668 C 0.11824 0.44444 0.33856 0.0
H669 H 0.09071 0.38497 0.33405 0.0
H670 H 0.0874 0.40686 0.33799 0.0
H671 H 0.08595 0.39913 0.31429 0.0
H672 H 0.09666 0.42674 0.29926 0.0
H673 H 0.07392 0.45126 0.30001 0.0
H674 H 0.21324 0.67658 0.72575 0.0
H675 H 0.18833 0.65204 0.72199 0.0
H676 H 0.13254 0.67939 0.74195 0.0
H677 H 0.15735 0.70399 0.7458 0.0
H678 H 0.16309 0.63477 0.75027 0.0
H679 H 0.10828 0.65893 0.69392 0.0
H680 H 0.13457 0.66925 0.69937 0.0
H681 H 0.11022 0.6718 0.71425 0.0
C682 C 0.19566 0.67741 0.7293 0.0
C683 C 0.18732 0.69228 0.73609 0.0
C684 C 0.18142 0.66338 0.72707 0.0
C685 C 0.15851 0.6639 0.73147 0.0
C686 C 0.15006 0.67878 0.73804 0.0
H687 H 0.04762 0.59015 0.73756 0.0
H688 H 0.07201 0.61554 0.73839 0.0
C689 C 0.16428 0.69285 0.74025 0.0
C690 C 0.14376 0.64861 0.73017 0.0
H691 H 0.09699 0.63283 0.70915 0.0
C692 C 0.14872 0.63431 0.74118 0.0
C693 C 0.12495 0.64804 0.71838 0.0
C694 C 0.11925 0.66277 0.70567 0.0
C695 C 0.13519 0.61958 0.74099 0.0
C696 C 0.11639 0.61899 0.72919 0.0
C697 C 0.11141 0.63328 0.71818 0.0
C698 C 0.10159 0.6037 0.72824 0.0
C699 C 0.14085 0.6049 0.75381 0.0
C700 C 0.11003 0.58869 0.722 0.0
C701 C 0.09614 0.57423 0.72159 0.0
C702 C 0.07357 0.5746 0.72722 0.0
C703 C 0.06502 0.58964 0.73316 0.0
C704 C 0.0789 0.6041 0.7336 0.0
H705 H 0.152 0.60874 0.76542 0.0
H706 H 0.12551 0.59858 0.7603 0.0
H707 H 0.14963 0.59571 0.74525 0.0
H708 H 0.12736 0.58816 0.71745 0.0
H709 H 0.10302 0.56273 0.71697 0.0
H710 H 0.83464 0.67994 0.29057 0.0
H711 H 0.85878 0.65639 0.29468 0.0
H712 H 0.89255 0.68135 0.33983 0.0
H713 H 0.86785 0.70477 0.33631 0.0
H714 H 0.90456 0.65619 0.2907 0.0
H715 H 0.87743 0.63517 0.3643 0.0
H716 H 0.86189 0.64959 0.35002 0.0
H717 H 0.88666 0.65676 0.36169 0.0
C718 C 0.84693 0.68034 0.30162 0.0
C719 C 0.8491 0.69423 0.31323 0.0
C720 C 0.86085 0.6669 0.30384 0.0
C721 C 0.87727 0.66696 0.31774 0.0
C722 C 0.87971 0.68086 0.32925 0.0
H723 H 0.97769 0.59484 0.34662 0.0
H724 H 0.95443 0.61921 0.34516 0.0
C725 C 0.86574 0.69434 0.32706 0.0
C726 C 0.89217 0.65266 0.31969 0.0
H727 H 0.90778 0.62151 0.35054 0.0
C728 C 0.90523 0.6486 0.30378 0.0
C729 C 0.89313 0.64279 0.33679 0.0
C730 C 0.87891 0.64616 0.35414 0.0
C731 C 0.91924 0.63499 0.3045 0.0
C732 C 0.91996 0.62498 0.3215 0.0
C733 C 0.90718 0.62918 0.33752 0.0
C734 C 0.93361 0.60995 0.32279 0.0
C735 C 0.93339 0.63159 0.28711 0.0
C736 C 0.92933 0.59649 0.311 0.0
C737 C 0.9425 0.58251 0.31186 0.0
C738 C 0.96019 0.58163 0.32463 0.0
C739 C 0.9641 0.595 0.33675 0.0
C740 C 0.95089 0.60899 0.33587 0.0
H741 H 0.93546 0.64277 0.27728 0.0
H742 H 0.95017 0.62759 0.29121 0.0
H743 H 0.92517 0.6214 0.27922 0.0
H744 H 0.91574 0.59678 0.30111 0.0
H745 H 0.93871 0.57232 0.30259 0.0
H746 H 0.89436 0.34262 0.74001 0.0
H747 H 0.91517 0.36956 0.7393 0.0
H748 H 0.85434 0.39488 0.72899 0.0
H749 H 0.8334 0.36798 0.7298 0.0
H750 H 0.92031 0.39325 0.71038 0.0
H751 H 0.87924 0.42029 0.7731 0.0
H752 H 0.876 0.39843 0.76803 0.0
H753 H 0.86013 0.4136 0.75535 0.0
C754 C 0.8854 0.35392 0.73758 0.0
C755 C 0.86218 0.35313 0.73503 0.0
C756 C 0.89731 0.36932 0.73724 0.0
C757 C 0.8863 0.38429 0.73439 0.0
C758 C 0.86314 0.38355 0.73171 0.0
H759 H 0.93269 0.48901 0.72259 0.0
H760 H 0.91048 0.46244 0.7234 0.0
C761 C 0.85119 0.36815 0.73215 0.0
C762 C 0.89921 0.40059 0.7336 0.0
H763 H 0.90373 0.43854 0.75416 0.0
C764 C 0.91673 0.40312 0.72001 0.0
C765 C 0.89452 0.4135 0.74613 0.0
C766 C 0.87659 0.41131 0.7616 0.0
C767 C 0.9295 0.41824 0.71846 0.0
C768 C 0.92484 0.43112 0.73102 0.0
C769 C 0.90725 0.42866 0.74453 0.0
C770 C 0.93824 0.44717 0.73051 0.0
C771 C 0.94764 0.42042 0.70317 0.0
C772 C 0.9611 0.44741 0.73448 0.0
C773 C 0.9737 0.46252 0.73401 0.0
C774 C 0.96364 0.47761 0.7296 0.0
C775 C 0.94074 0.47744 0.72588 0.0
C776 C 0.92812 0.46233 0.72638 0.0
H777 H 0.94537 0.41127 0.6918 0.0
H778 H 0.94806 0.43323 0.69655 0.0
H779 H 0.96405 0.41844 0.70966 0.0
H780 H 0.96917 0.43591 0.73806 0.0
H781 H 0.99132 0.46245 0.73708 0.0
H782 H 0.26686 0.20253 0.40823 0.0
H783 H 0.26829 0.17662 0.42764 0.0
H784 H 0.25 0.14816 0.37906 0.0
H785 H 0.24854 0.17401 0.35953 0.0
H786 H 0.23453 0.15306 0.43618 0.0
H787 H 0.30415 0.12416 0.39783 0.0
H788 H 0.29807 0.1459 0.39421 0.0
H789 H 0.28174 0.13 0.3828 0.0
C790 C 0.26312 0.19076 0.40166 0.0
C791 C 0.25762 0.19037 0.38229 0.0
C792 C 0.26404 0.17595 0.41277 0.0
C793 C 0.25957 0.16041 0.40477 0.0
C794 C 0.25405 0.15996 0.38545 0.0
H795 H 0.24915 0.05783 0.45126 0.0
H796 H 0.24909 0.08344 0.4308 0.0
C797 C 0.2532 0.17477 0.3743 0.0
C798 C 0.25984 0.14477 0.41687 0.0
H799 H 0.28417 0.10706 0.4214 0.0
C800 C 0.24547 0.14304 0.433 0.0
C801 C 0.27406 0.13165 0.41269 0.0
C802 C 0.29054 0.13303 0.39605 0.0
C803 C 0.2447 0.12851 0.44488 0.0
C804 C 0.25894 0.11542 0.44073 0.0
C805 C 0.27326 0.1171 0.42457 0.0
C806 C 0.25928 0.09993 0.45303 0.0
C807 C 0.22829 0.12715 0.46158 0.0
C808 C 0.26536 0.10066 0.47221 0.0
C809 C 0.26534 0.08609 0.48384 0.0
C810 C 0.25934 0.07056 0.47646 0.0
C811 C 0.25368 0.06974 0.45722 0.0
C812 C 0.25369 0.08432 0.44558 0.0
H813 H 0.21478 0.13613 0.45994 0.0
H814 H 0.22059 0.11432 0.46331 0.0
H815 H 0.23719 0.12999 0.47483 0.0
H816 H 0.27017 0.11251 0.47817 0.0
H817 H 0.26992 0.08693 0.49862 0.0
H818 H 0.37381 0.79123 0.81148 0.0
H819 H 0.3965 0.78868 0.83985 0.0
H820 H 0.33687 0.77916 0.87483 0.0
H821 H 0.31403 0.78171 0.8465 0.0
H822 H 0.39588 0.80774 0.87152 0.0
H823 H 0.37575 0.74117 0.89199 0.0
H824 H 0.36938 0.75022 0.86892 0.0
H825 H 0.35172 0.7536 0.88936 0.0
C826 C 0.36549 0.78861 0.82521 0.0
C827 C 0.34207 0.78668 0.8267 0.0
C828 C 0.3785 0.78709 0.8414 0.0
C829 C 0.36843 0.78353 0.85945 0.0
C830 C 0.34507 0.78154 0.86101 0.0
H831 H 0.43123 0.80064 0.96818 0.0
H832 H 0.40731 0.80128 0.94044 0.0
C833 C 0.33202 0.78301 0.84479 0.0
C834 C 0.38239 0.78261 0.87666 0.0
H835 H 0.39627 0.75698 0.91416 0.0
C836 C 0.39599 0.79663 0.88083 0.0
C837 C 0.38271 0.76805 0.88869 0.0
C838 C 0.36928 0.75234 0.88447 0.0
C839 C 0.4097 0.79656 0.89678 0.0
C840 C 0.40957 0.78216 0.90909 0.0
C841 C 0.39618 0.76806 0.90482 0.0
C842 C 0.42358 0.78142 0.92626 0.0
C843 C 0.42456 0.81179 0.90009 0.0
C844 C 0.44029 0.76974 0.92776 0.0
C845 C 0.45403 0.76935 0.9436 0.0
C846 C 0.45126 0.78059 0.95834 0.0
C847 C 0.43414 0.79202 0.95695 0.0
C848 C 0.42042 0.7924 0.94111 0.0
H849 H 0.42683 0.81999 0.88701 0.0
H850 H 0.41684 0.81915 0.91138 0.0
H851 H 0.44123 0.80816 0.90491 0.0
H852 H 0.443 0.76113 0.91648 0.0
H853 H 0.46717 0.7605 0.94407 0.0
H854 H 0.79102 0.86825 0.35893 0.0
H855 H 0.78996 0.8934 0.37766 0.0
H856 H 0.79461 0.86325 0.42947 0.0
H857 H 0.79546 0.83808 0.41093 0.0
H858 H 0.76003 0.90197 0.40678 0.0
H859 H 0.84612 0.89822 0.43333 0.0
H860 H 0.83621 0.88623 0.41374 0.0
H861 H 0.82901 0.87951 0.43792 0.0
C862 C 0.79163 0.86694 0.37432 0.0
C863 C 0.79351 0.85111 0.38339 0.0
C864 C 0.79113 0.88135 0.385 0.0
C865 C 0.79261 0.88024 0.40494 0.0
C866 C 0.79399 0.86446 0.41407 0.0
H867 H 0.76062 0.95326 0.48851 0.0
H868 H 0.761 0.92959 0.46757 0.0
C869 C 0.79449 0.85006 0.40343 0.0
C870 C 0.79256 0.89556 0.41625 0.0
H871 H 0.8232 0.91802 0.44763 0.0
C872 C 0.77387 0.90553 0.41565 0.0
C873 C 0.81076 0.90033 0.42762 0.0
C874 C 0.83177 0.89062 0.4281 0.0
C875 C 0.77268 0.9199 0.42647 0.0
C876 C 0.79053 0.9243 0.43839 0.0
C877 C 0.80943 0.91456 0.43863 0.0
C878 C 0.78993 0.93894 0.45079 0.0
C879 C 0.75242 0.93035 0.42487 0.0
C880 C 0.8063 0.95195 0.44858 0.0
C881 C 0.80612 0.96555 0.46053 0.0
C882 C 0.78964 0.96637 0.47507 0.0
C883 C 0.77331 0.95324 0.47726 0.0
C884 C 0.77349 0.93966 0.46529 0.0
H885 H 0.74325 0.92793 0.41162 0.0
H886 H 0.74086 0.9272 0.4372 0.0
H887 H 0.75717 0.94388 0.42506 0.0
H888 H 0.81918 0.95164 0.43752 0.0
H889 H 0.81881 0.97549 0.45827 0.0
H890 H 0.72756 0.2668 0.86999 0.0
H891 H 0.70079 0.26417 0.89691 0.0
H892 H 0.64805 0.27836 0.85971 0.0
H893 H 0.67472 0.28098 0.8327 0.0
H894 H 0.67565 0.2887 0.91153 0.0
H895 H 0.62023 0.2369 0.88745 0.0
H896 H 0.64735 0.24201 0.87653 0.0
H897 H 0.62383 0.25416 0.87045 0.0
C898 C 0.71025 0.26932 0.86752 0.0
C899 C 0.70329 0.27409 0.84917 0.0
C900 C 0.69495 0.26776 0.88291 0.0
C901 C 0.67234 0.27086 0.88032 0.0
C902 C 0.66529 0.27551 0.862 0.0
H903 H 0.55692 0.27626 0.95719 0.0
H904 H 0.58307 0.27707 0.92958 0.0
C905 C 0.68058 0.27702 0.84657 0.0
C906 C 0.65644 0.27004 0.89696 0.0
H907 H 0.60768 0.25111 0.91458 0.0
C908 C 0.66086 0.2804 0.91225 0.0
C909 C 0.63709 0.25926 0.89786 0.0
C910 C 0.63189 0.24733 0.88229 0.0
C911 C 0.64632 0.28048 0.92825 0.0
C912 C 0.62698 0.26971 0.92914 0.0
C913 C 0.62251 0.25936 0.91386 0.0
C914 C 0.61117 0.26903 0.94582 0.0
C915 C 0.65152 0.29238 0.94386 0.0
C916 C 0.61823 0.26406 0.96404 0.0
C917 C 0.60335 0.26363 0.97975 0.0
C918 C 0.58116 0.26804 0.97744 0.0
C919 C 0.57401 0.27283 0.95922 0.0
C920 C 0.58888 0.27326 0.94351 0.0
H921 H 0.66358 0.30262 0.93887 0.0
H922 H 0.63611 0.29797 0.94931 0.0
H923 H 0.65906 0.28544 0.95589 0.0
H924 H 0.63523 0.26046 0.9661 0.0
H925 H 0.60913 0.25987 0.99371 0.0
H926 H 0.26097 0.84314 0.63952 0.0
H927 H 0.26343 0.86928 0.6203 0.0
H928 H 0.24422 0.89637 0.66959 0.0
H929 H 0.24174 0.87027 0.68892 0.0
H930 H 0.23027 0.89099 0.61274 0.0
H931 H 0.29929 0.92354 0.64973 0.0
H932 H 0.29277 0.90144 0.65334 0.0
H933 H 0.27631 0.91636 0.66521 0.0
C934 C 0.25725 0.85465 0.64629 0.0
C935 C 0.25118 0.85458 0.66579 0.0
C936 C 0.25876 0.8696 0.63529 0.0
C937 C 0.25432 0.88484 0.64353 0.0
C938 C 0.24826 0.88484 0.66299 0.0
H939 H 0.24694 0.98704 0.59739 0.0
H940 H 0.24592 0.96141 0.6179 0.0
C941 C 0.24681 0.86989 0.67404 0.0
C942 C 0.25518 0.90058 0.63153 0.0
H943 H 0.28038 0.93962 0.62659 0.0
C944 C 0.24131 0.90159 0.61572 0.0
C945 C 0.26952 0.91445 0.63546 0.0
C946 C 0.28548 0.9139 0.65175 0.0
C947 C 0.24117 0.91613 0.6039 0.0
C948 C 0.25556 0.92997 0.60778 0.0
C949 C 0.26935 0.92901 0.62364 0.0
C950 C 0.2566 0.9455 0.59547 0.0
C951 C 0.22527 0.91666 0.58756 0.0
C952 C 0.26329 0.94511 0.57616 0.0
C953 C 0.26383 0.95969 0.56451 0.0
C954 C 0.25777 0.97488 0.57199 0.0
C955 C 0.25153 0.97539 0.59136 0.0
C956 C 0.251 0.9608 0.60303 0.0
H957 H 0.21154 0.90696 0.58947 0.0
H958 H 0.21788 0.9291 0.58604 0.0
H959 H 0.23453 0.91434 0.5741 0.0
H960 H 0.26811 0.93353 0.57011 0.0
H961 H 0.26885 0.9591 0.54962 0.0
H962 H 0.68198 0.81186 0.22686 0.0
H963 H 0.65889 0.80941 0.19885 0.0
H964 H 0.68574 0.76151 0.18816 0.0
H965 H 0.7081 0.76345 0.21672 0.0
H966 H 0.67113 0.8069 0.16172 0.0
H967 H 0.61952 0.7506 0.18583 0.0
H968 H 0.63701 0.7621 0.20178 0.0
H969 H 0.649 0.74762 0.1859 0.0
C970 C 0.68272 0.80064 0.21879 0.0
C971 C 0.69681 0.78778 0.22424 0.0
C972 C 0.66962 0.79933 0.20265 0.0
C973 C 0.67027 0.78516 0.19154 0.0
C974 C 0.68456 0.7724 0.19672 0.0
H975 H 0.60366 0.75986 0.0863 0.0
H976 H 0.62814 0.76048 0.11371 0.0
C977 C 0.69759 0.77365 0.21294 0.0
C978 C 0.65636 0.784 0.17432 0.0
H979 H 0.61524 0.76041 0.15387 0.0
C980 C 0.65888 0.79675 0.16004 0.0
C981 C 0.64039 0.77073 0.17209 0.0
C982 C 0.63612 0.75706 0.18728 0.0
C983 C 0.64597 0.79656 0.14361 0.0
C984 C 0.62994 0.78336 0.14145 0.0
C985 C 0.62759 0.77049 0.15556 0.0
C986 C 0.61503 0.78296 0.12487 0.0
C987 C 0.64972 0.81041 0.12857 0.0
C988 C 0.59933 0.79526 0.12222 0.0
C989 C 0.58516 0.79486 0.10669 0.0
C990 C 0.58637 0.78214 0.09345 0.0
C991 C 0.60206 0.76975 0.09628 0.0
C992 C 0.61617 0.77012 0.11188 0.0
H993 H 0.66601 0.81729 0.13012 0.0
H994 H 0.64912 0.80541 0.11404 0.0
H995 H 0.63631 0.81945 0.12993 0.0
H996 H 0.59787 0.80509 0.13229 0.0
H997 H 0.573 0.8044 0.10526 0.0
H998 H 0.74901 0.19789 0.67475 0.0
H999 H 0.75297 0.17487 0.65314 0.0
H1000 H 0.81452 0.16232 0.67955 0.0
H1001 H 0.81047 0.1851 0.70151 0.0
H1002 H 0.78875 0.16866 0.62691 0.0
H1003 H 0.77635 0.11803 0.68297 0.0
H1004 H 0.76901 0.13928 0.68679 0.0
H1005 H 0.79769 0.13372 0.68744 0.0
C1006 C 0.76334 0.19018 0.67605 0.0
C1007 C 0.77934 0.19329 0.68998 0.0
C1008 C 0.76563 0.17709 0.6636 0.0
C1009 C 0.78386 0.16673 0.66491 0.0
C1010 C 0.80014 0.17 0.67848 0.0
H1011 H 0.81785 0.07698 0.60571 0.0
H1012 H 0.81761 0.10091 0.62634 0.0
C1013 C 0.79791 0.18314 0.6909 0.0
C1014 C 0.78571 0.15248 0.65209 0.0
H1015 H 0.78528 0.10985 0.65183 0.0
C1016 C 0.78798 0.1558 0.63234 0.0
C1017 C 0.78479 0.13571 0.65921 0.0
C1018 C 0.78165 0.13137 0.68024 0.0
C1019 C 0.78955 0.14281 0.61952 0.0
C1020 C 0.78829 0.12601 0.62661 0.0
C1021 C 0.78624 0.12271 0.64639 0.0
C1022 C 0.78866 0.11166 0.61375 0.0
C1023 C 0.79295 0.14723 0.59853 0.0
C1024 C 0.77233 0.1096 0.59993 0.0
C1025 C 0.77253 0.09601 0.588 0.0
C1026 C 0.78896 0.08404 0.58973 0.0
C1027 C 0.80516 0.08605 0.60375 0.0
C1028 C 0.80496 0.09968 0.61566 0.0
H1029 H 0.80009 0.16017 0.59608 0.0
H1030 H 0.8042 0.13848 0.59161 0.0
H1031 H 0.77659 0.14643 0.59149 0.0
H1032 H 0.7593 0.11847 0.59844 0.0
H1033 H 0.75992 0.095 0.57728 0.0
H1034 H 0.32964 0.24574 0.19869 0.0
H1035 H 0.35431 0.24848 0.17028 0.0
H1036 H 0.40275 0.2768 0.20168 0.0
H1037 H 0.3783 0.27398 0.23022 0.0
H1038 H 0.37361 0.27952 0.15116 0.0
H1039 H 0.43715 0.23708 0.17929 0.0
H1040 H 0.40905 0.23705 0.18917 0.0
H1041 H 0.429 0.25341 0.19457 0.0
C1042 C 0.34558 0.25249 0.19958 0.0
C1043 C 0.35205 0.25957 0.21675 0.0
C1044 C 0.35959 0.25412 0.18331 0.0
C1045 C 0.38043 0.26269 0.18395 0.0
C1046 C 0.38682 0.27 0.20096 0.0
H1047 H 0.49228 0.27703 0.10258 0.0
H1048 H 0.46717 0.27687 0.13079 0.0
C1049 C 0.37275 0.26848 0.2172 0.0
C1050 C 0.39556 0.26386 0.16686 0.0
H1051 H 0.44519 0.25071 0.14939 0.0
C1052 C 0.38926 0.27322 0.15072 0.0
C1053 C 0.41598 0.25568 0.1664 0.0
C1054 C 0.42324 0.24512 0.1832 0.0
C1055 C 0.40301 0.2748 0.13418 0.0
C1056 C 0.42333 0.26642 0.1336 0.0
C1057 C 0.42963 0.25712 0.14981 0.0
C1058 C 0.43827 0.26701 0.11632 0.0
C1059 C 0.39586 0.28574 0.11766 0.0
C1060 C 0.43045 0.26143 0.09884 0.0
C1061 C 0.44473 0.26165 0.08274 0.0
C1062 C 0.46714 0.2672 0.08394 0.0
C1063 C 0.47502 0.27271 0.10139 0.0
C1064 C 0.46072 0.27259 0.11746 0.0
H1065 H 0.38381 0.29501 0.12234 0.0
H1066 H 0.41043 0.29255 0.11046 0.0
H1067 H 0.38749 0.27783 0.10709 0.0
H1068 H 0.41338 0.25669 0.09769 0.0
H1069 H 0.43836 0.25734 0.06939 0.0
H1070 H 0.81447 0.6799 0.73981 0.0
H1071 H 0.83882 0.65657 0.73533 0.0
H1072 H 0.89659 0.6893 0.74276 0.0
H1073 H 0.87233 0.71264 0.7478 0.0
H1074 H 0.87357 0.65212 0.70866 0.0
H1075 H 0.90412 0.65133 0.78278 0.0
H1076 H 0.88018 0.66272 0.77565 0.0
H1077 H 0.9079 0.67111 0.76996 0.0
C1078 C 0.83236 0.68214 0.7406 0.0
C1079 C 0.84141 0.69813 0.74437 0.0
C1080 C 0.84626 0.6688 0.7379 0.0
C1081 C 0.86951 0.67112 0.73901 0.0
C1082 C 0.87868 0.68716 0.74217 0.0
H1083 H 0.96854 0.59966 0.70631 0.0
H1084 H 0.94498 0.62378 0.70785 0.0
C1085 C 0.86478 0.70053 0.74484 0.0
C1086 C 0.88404 0.65665 0.7372 0.0
H1087 H 0.9207 0.63292 0.76161 0.0
C1088 C 0.88391 0.64793 0.72021 0.0
C1089 C 0.89728 0.65105 0.75239 0.0
C1090 C 0.89731 0.65941 0.7713 0.0
C1091 C 0.89681 0.63385 0.71795 0.0
C1092 C 0.9104 0.62846 0.733 0.0
C1093 C 0.9104 0.63712 0.75003 0.0
C1094 C 0.92437 0.61364 0.73161 0.0
C1095 C 0.89537 0.62464 0.69964 0.0
C1096 C 0.92088 0.59999 0.74463 0.0
C1097 C 0.93433 0.58618 0.7438 0.0
C1098 C 0.95168 0.58574 0.72998 0.0
C1099 C 0.9551 0.59943 0.71692 0.0
C1100 C 0.94164 0.61326 0.71778 0.0
H1101 H 0.88026 0.62775 0.69161 0.0
H1102 H 0.91023 0.6282 0.69041 0.0
H1103 H 0.89512 0.61091 0.7025 0.0
H1104 H 0.90766 0.60001 0.75543 0.0
H1105 H 0.93102 0.5758 0.75394 0.0
H1106 H 0.83433 0.37331 0.30448 0.0
H1107 H 0.85877 0.39809 0.30811 0.0
H1108 H 0.90729 0.36775 0.33541 0.0
H1109 H 0.88278 0.34287 0.33217 0.0
H1110 H 0.87677 0.41146 0.3421 0.0
H1111 H 0.94304 0.39305 0.29125 0.0
H1112 H 0.91535 0.38326 0.29216 0.0
H1113 H 0.93513 0.37783 0.30992 0.0
C1114 C 0.85006 0.37187 0.31149 0.0
C1115 C 0.85655 0.35601 0.31801 0.0
C1116 C 0.86408 0.38607 0.31344 0.0
C1117 C 0.88497 0.38475 0.3218 0.0
C1118 C 0.89141 0.36902 0.32859 0.0
H1119 H 0.99424 0.45816 0.33736 0.0
H1120 H 0.97002 0.43263 0.3376 0.0
C1121 C 0.87738 0.3548 0.32669 0.0
C1122 C 0.89993 0.39986 0.32339 0.0
H1123 H 0.95003 0.41783 0.30764 0.0
C1124 C 0.89279 0.41287 0.33458 0.0
C1125 C 0.92086 0.40165 0.31361 0.0
C1126 C 0.92907 0.38829 0.30092 0.0
C1127 C 0.9061 0.42757 0.33638 0.0
C1128 C 0.92688 0.42948 0.32635 0.0
C1129 C 0.9341 0.41638 0.31531 0.0
C1130 C 0.94126 0.44505 0.32683 0.0
C1131 C 0.89792 0.44078 0.34929 0.0
C1132 C 0.93322 0.46049 0.32061 0.0
C1133 C 0.947 0.47503 0.32058 0.0
C1134 C 0.96912 0.47434 0.32653 0.0
C1135 C 0.9772 0.45894 0.33273 0.0
C1136 C 0.96341 0.4444 0.33283 0.0
H1137 H 0.88543 0.43547 0.36006 0.0
H1138 H 0.91195 0.44686 0.35685 0.0
H1139 H 0.88977 0.45051 0.34059 0.0
H1140 H 0.91639 0.46127 0.3155 0.0
H1141 H 0.94049 0.48681 0.31572 0.0
H1142 H 0.17839 0.34517 0.7157 0.0
H1143 H 0.15438 0.36893 0.71113 0.0
H1144 H 0.18569 0.39329 0.75788 0.0
H1145 H 0.20945 0.36962 0.76274 0.0
H1146 H 0.12398 0.3823 0.7373 0.0
H1147 H 0.19085 0.42925 0.71462 0.0
H1148 H 0.19492 0.40706 0.71494 0.0
H1149 H 0.19614 0.41822 0.73667 0.0
C1150 C 0.18011 0.35555 0.72507 0.0
C1151 C 0.19605 0.35551 0.73949 0.0
C1152 C 0.16644 0.36915 0.72237 0.0
C1153 C 0.16852 0.38303 0.73394 0.0
C1154 C 0.18417 0.38293 0.74847 0.0
H1155 H 0.10439 0.47585 0.75041 0.0
H1156 H 0.12775 0.45158 0.75109 0.0
C1157 C 0.19779 0.36936 0.7512 0.0
C1158 C 0.15397 0.39745 0.73123 0.0
H1159 H 0.15536 0.43972 0.72257 0.0
C1160 C 0.13079 0.39484 0.73389 0.0
C1161 C 0.16289 0.4138 0.72679 0.0
C1162 C 0.18754 0.41728 0.72291 0.0
C1163 C 0.11636 0.40821 0.73289 0.0
C1164 C 0.12534 0.42462 0.72878 0.0
C1165 C 0.14849 0.42717 0.72579 0.0
C1166 C 0.1111 0.43937 0.72807 0.0
C1167 C 0.09174 0.40475 0.73691 0.0
C1168 C 0.09416 0.44072 0.71471 0.0
C1169 C 0.08064 0.45455 0.71436 0.0
C1170 C 0.08386 0.46738 0.72732 0.0
C1171 C 0.10116 0.4661 0.74044 0.0
C1172 C 0.11465 0.45228 0.74076 0.0
H1173 H 0.08831 0.39236 0.74428 0.0
H1174 H 0.08475 0.41452 0.74584 0.0
H1175 H 0.08284 0.40482 0.72323 0.0
H1176 H 0.09136 0.43107 0.70454 0.0
H1177 H 0.06741 0.45504 0.70416 0.0
H1178 H 0.1503 0.70499 0.33282 0.0
H1179 H 0.12943 0.67809 0.33343 0.0
H1180 H 0.18796 0.65443 0.31257 0.0
H1181 H 0.20918 0.68118 0.3125 0.0
H1182 H 0.12078 0.65712 0.30347 0.0
H1183 H 0.1689 0.62481 0.35934 0.0
H1184 H 0.17097 0.64718 0.35506 0.0
H1185 H 0.18557 0.63372 0.3396 0.0
C1186 C 0.15885 0.69404 0.32859 0.0
C1187 C 0.1815 0.69527 0.32274 0.0
C1188 C 0.14683 0.67868 0.32883 0.0
C1189 C 0.1572 0.66418 0.32332 0.0
C1190 C 0.17971 0.66538 0.31722 0.0
H1191 H 0.11038 0.56022 0.31488 0.0
H1192 H 0.13246 0.58682 0.31414 0.0
C1193 C 0.19175 0.68074 0.31697 0.0
C1194 C 0.14428 0.64792 0.32361 0.0
H1195 H 0.14201 0.60826 0.34347 0.0
C1196 C 0.12537 0.64645 0.31226 0.0
C1197 C 0.15032 0.63398 0.33505 0.0
C1198 C 0.16992 0.63497 0.34809 0.0
C1199 C 0.11253 0.6314 0.31185 0.0
C1200 C 0.11849 0.61749 0.32338 0.0
C1201 C 0.13745 0.61892 0.33465 0.0
C1202 C 0.10518 0.60139 0.32401 0.0
C1203 C 0.09296 0.63042 0.29876 0.0
C1204 C 0.08265 0.60068 0.33011 0.0
C1205 C 0.07009 0.58555 0.33047 0.0
C1206 C 0.07988 0.57087 0.32482 0.0
C1207 C 0.1025 0.57146 0.31913 0.0
C1208 C 0.11507 0.5866 0.31875 0.0
H1209 H 0.09427 0.64037 0.28729 0.0
H1210 H 0.09163 0.61809 0.29208 0.0
H1211 H 0.07733 0.63205 0.30715 0.0
H1212 H 0.07479 0.61183 0.33466 0.0
H1213 H 0.05269 0.58529 0.33506 0.0
H1214 H 0.78132 0.87326 0.69847 0.0
H1215 H 0.77963 0.89899 0.6787 0.0
H1216 H 0.79719 0.8721 0.62883 0.0
H1217 H 0.79812 0.84627 0.6483 0.0
H1218 H 0.813 0.91542 0.65637 0.0
H1219 H 0.74232 0.896 0.61157 0.0
H1220 H 0.74897 0.88469 0.63328 0.0
H1221 H 0.76457 0.88171 0.61154 0.0
C1222 C 0.7845 0.87275 0.68325 0.0
C1223 C 0.78979 0.85763 0.675 0.0
C1224 C 0.78368 0.88751 0.67199 0.0
C1225 C 0.78796 0.88745 0.65222 0.0
C1226 C 0.79339 0.87242 0.64397 0.0
H1227 H 0.79918 0.96127 0.55846 0.0
H1228 H 0.79906 0.936 0.57945 0.0
C1229 C 0.7942 0.85767 0.6552 0.0
C1230 C 0.78739 0.90317 0.6403 0.0
H1231 H 0.76302 0.92089 0.60138 0.0
C1232 C 0.80195 0.91667 0.64444 0.0
C1233 C 0.77297 0.9048 0.62472 0.0
C1234 C 0.75616 0.8911 0.62009 0.0
C1235 C 0.8029 0.93156 0.63314 0.0
C1236 C 0.78867 0.9331 0.61743 0.0
C1237 C 0.77397 0.91967 0.61339 0.0
C1238 C 0.78892 0.94847 0.60487 0.0
C1239 C 0.81956 0.94535 0.63778 0.0
C1240 C 0.78307 0.96383 0.61215 0.0
C1241 C 0.78314 0.97821 0.60018 0.0
C1242 C 0.78893 0.97743 0.58075 0.0
C1243 C 0.79469 0.9621 0.57344 0.0
C1244 C 0.79458 0.94771 0.58538 0.0
H1245 H 0.83276 0.94076 0.64725 0.0
H1246 H 0.82763 0.95111 0.62457 0.0
H1247 H 0.81077 0.95522 0.64525 0.0
H1248 H 0.77826 0.96466 0.62705 0.0
H1249 H 0.77862 0.98995 0.60605 0.0
H1250 H 0.71806 0.23866 0.2127 0.0
H1251 H 0.69469 0.24143 0.18477 0.0
H1252 H 0.66424 0.28391 0.20882 0.0
H1253 H 0.68758 0.28123 0.23682 0.0
H1254 H 0.64895 0.23931 0.18354 0.0
H1255 H 0.6809 0.30152 0.15504 0.0
H1256 H 0.69532 0.28965 0.17291 0.0
H1257 H 0.67153 0.30128 0.17955 0.0
C1258 C 0.70639 0.2486 0.21206 0.0
C1259 C 0.70472 0.25973 0.22702 0.0
C1260 C 0.69311 0.25021 0.19604 0.0
C1261 C 0.67791 0.26301 0.19455 0.0
C1262 C 0.67621 0.27418 0.20942 0.0
H1263 H 0.57655 0.28729 0.11229 0.0
H1264 H 0.60124 0.28638 0.13954 0.0
C1265 C 0.68956 0.27261 0.22544 0.0
C1266 C 0.66319 0.26415 0.17782 0.0
H1267 H 0.64862 0.28992 0.14065 0.0
C1268 C 0.64897 0.25035 0.17411 0.0
C1269 C 0.66314 0.27859 0.16556 0.0
C1270 C 0.67868 0.29355 0.16831 0.0
C1271 C 0.63453 0.25064 0.15864 0.0
C1272 C 0.63453 0.26504 0.14635 0.0
C1273 C 0.64865 0.27889 0.15009 0.0
C1274 C 0.62006 0.26589 0.12948 0.0
C1275 C 0.61907 0.23564 0.15581 0.0
C1276 C 0.62272 0.2549 0.11458 0.0
C1277 C 0.60874 0.25544 0.09891 0.0
C1278 C 0.59182 0.26706 0.09776 0.0
C1279 C 0.58952 0.2783 0.11257 0.0
C1280 C 0.60354 0.27774 0.12822 0.0
H1281 H 0.61709 0.2275 0.16896 0.0
H1282 H 0.60233 0.23955 0.15147 0.0
H1283 H 0.62608 0.22812 0.14433 0.0
H1284 H 0.63568 0.24589 0.11504 0.0
H1285 H 0.61131 0.24683 0.08762 0.0
H1286 H 0.2834 0.18944 0.68394 0.0
H1287 H 0.28511 0.16437 0.66514 0.0
H1288 H 0.22428 0.17705 0.63764 0.0
H1289 H 0.22218 0.20192 0.65655 0.0
H1290 H 0.25287 0.13709 0.66258 0.0
H1291 H 0.26869 0.17092 0.59276 0.0
H1292 H 0.27233 0.18082 0.61523 0.0
H1293 H 0.24485 0.17753 0.60602 0.0
C1294 C 0.27026 0.18684 0.67403 0.0
C1295 C 0.25274 0.19784 0.67169 0.0
C1296 C 0.27134 0.17253 0.66322 0.0
C1297 C 0.25503 0.16898 0.64976 0.0
C1298 C 0.23732 0.17973 0.64763 0.0
H1299 H 0.22868 0.09292 0.56794 0.0
H1300 H 0.22827 0.11688 0.58843 0.0
C1301 C 0.23619 0.19399 0.65845 0.0
C1302 C 0.25635 0.15398 0.63802 0.0
H1303 H 0.26054 0.14174 0.592 0.0
C1304 C 0.2547 0.13808 0.64715 0.0
C1305 C 0.25871 0.15531 0.6179 0.0
C1306 C 0.26145 0.17205 0.60736 0.0
C1307 C 0.25472 0.12345 0.63667 0.0
C1308 C 0.2569 0.12478 0.61652 0.0
C1309 C 0.25879 0.14071 0.60743 0.0
C1310 C 0.25696 0.10985 0.60452 0.0
C1311 C 0.25169 0.10674 0.64724 0.0
C1312 C 0.2733 0.09793 0.60663 0.0
C1313 C 0.27345 0.08408 0.59503 0.0
C1314 C 0.25734 0.08191 0.58096 0.0
C1315 C 0.2411 0.09397 0.57882 0.0
C1316 C 0.24094 0.10778 0.59044 0.0
H1317 H 0.24435 0.10795 0.66179 0.0
H1318 H 0.24077 0.09801 0.63934 0.0
H1319 H 0.2682 0.10116 0.64873 0.0
H1320 H 0.28611 0.09941 0.61712 0.0
H1321 H 0.28613 0.07502 0.5972 0.0
H1322 H 0.35249 0.74469 0.21006 0.0
H1323 H 0.37863 0.74827 0.18283 0.0
H1324 H 0.36307 0.80016 0.17656 0.0
H1325 H 0.33669 0.79667 0.20378 0.0
H1326 H 0.36925 0.75797 0.14564 0.0
H1327 H 0.43153 0.80212 0.17597 0.0
H1328 H 0.41076 0.79032 0.19056 0.0
H1329 H 0.40325 0.80864 0.17708 0.0
C1330 C 0.35456 0.75688 0.20289 0.0
C1331 C 0.3424 0.77038 0.20911 0.0
C1332 C 0.3696 0.75891 0.18737 0.0
C1333 C 0.37299 0.77451 0.17775 0.0
C1334 C 0.36106 0.78808 0.18398 0.0
H1335 H 0.43388 0.78929 0.06342 0.0
H1336 H 0.4082 0.78835 0.09134 0.0
C1337 C 0.34598 0.78606 0.19956 0.0
C1338 C 0.38836 0.7763 0.16078 0.0
H1339 H 0.43622 0.79658 0.14318 0.0
C1340 C 0.38389 0.76642 0.14509 0.0
C1341 C 0.40757 0.7872 0.16016 0.0
C1342 C 0.41376 0.79758 0.17689 0.0
C1343 C 0.39802 0.7672 0.12879 0.0
C1344 C 0.41699 0.77835 0.12801 0.0
C1345 C 0.42156 0.78815 0.14374 0.0
C1346 C 0.43262 0.77962 0.1112 0.0
C1347 C 0.39281 0.75577 0.11273 0.0
C1348 C 0.45499 0.77547 0.11318 0.0
C1349 C 0.46963 0.77611 0.09731 0.0
C1350 C 0.46216 0.78103 0.07924 0.0
C1351 C 0.43992 0.78546 0.07727 0.0
C1352 C 0.42528 0.78482 0.09315 0.0
H1353 H 0.38103 0.74526 0.11742 0.0
H1354 H 0.38495 0.76299 0.10108 0.0
H1355 H 0.40827 0.75055 0.10684 0.0
H1356 H 0.46103 0.77146 0.12697 0.0
H1357 H 0.48674 0.77265 0.09907 0.0
H1358 H 0.78565 0.20361 0.41628 0.0
H1359 H 0.78435 0.17747 0.43549 0.0
H1360 H 0.80124 0.15047 0.38554 0.0
H1361 H 0.80314 0.17663 0.36628 0.0
H1362 H 0.75768 0.14801 0.43136 0.0
H1363 H 0.84803 0.13609 0.42408 0.0
H1364 H 0.83693 0.15615 0.41811 0.0
H1365 H 0.83408 0.13938 0.40196 0.0
C1366 C 0.78929 0.19214 0.40938 0.0
C1367 C 0.79468 0.19227 0.38973 0.0
C1368 C 0.7884 0.17719 0.42038 0.0
C1369 C 0.79302 0.16204 0.41202 0.0
C1370 C 0.79798 0.16204 0.39236 0.0
H1371 H 0.80024 0.05997 0.45913 0.0
H1372 H 0.80021 0.08517 0.438 0.0
C1373 C 0.79882 0.177 0.38133 0.0
C1374 C 0.79251 0.14628 0.42392 0.0
H1375 H 0.82507 0.115 0.44001 0.0
C1376 C 0.77241 0.1408 0.43328 0.0
C1377 C 0.81173 0.13685 0.42637 0.0
C1378 C 0.83399 0.14244 0.41725 0.0
C1379 C 0.77095 0.12607 0.44486 0.0
C1380 C 0.79024 0.11674 0.44748 0.0
C1381 C 0.81029 0.12215 0.43799 0.0
C1382 C 0.79006 0.10147 0.46023 0.0
C1383 C 0.74866 0.12049 0.4539 0.0
C1384 C 0.78464 0.1023 0.47976 0.0
C1385 C 0.78465 0.08795 0.49176 0.0
C1386 C 0.79028 0.07259 0.48446 0.0
C1387 C 0.79588 0.07174 0.465 0.0
C1388 C 0.79586 0.08609 0.45298 0.0
H1389 H 0.73462 0.12616 0.44633 0.0
H1390 H 0.74618 0.10668 0.45401 0.0
H1391 H 0.748 0.12445 0.46888 0.0
H1392 H 0.78059 0.11407 0.48577 0.0
H1393 H 0.78038 0.08884 0.50677 0.0
H1394 H 0.32666 0.24036 0.84986 0.0
H1395 H 0.34997 0.24277 0.87782 0.0
H1396 H 0.38606 0.28529 0.85077 0.0
H1397 H 0.36277 0.28298 0.82275 0.0
H1398 H 0.39533 0.24037 0.87966 0.0
H1399 H 0.3711 0.30256 0.90304 0.0
H1400 H 0.35539 0.29096 0.88593 0.0
H1401 H 0.38073 0.3025 0.87862 0.0
C1402 C 0.33954 0.25024 0.84985 0.0
C1403 C 0.34282 0.26149 0.83405 0.0
C1404 C 0.3528 0.25164 0.86589 0.0
C1405 C 0.36958 0.26435 0.86654 0.0
C1406 C 0.37287 0.27564 0.85082 0.0
H1407 H 0.47345 0.28775 0.94709 0.0
H1408 H 0.44865 0.28704 0.91991 0.0
C1409 C 0.35956 0.27428 0.83478 0.0
C1410 C 0.38424 0.26527 0.8833 0.0
H1411 H 0.4019 0.29072 0.91845 0.0
C1412 C 0.39666 0.25135 0.8882 0.0
C1413 C 0.38606 0.27963 0.89441 0.0
C1414 C 0.37247 0.29471 0.89038 0.0
C1415 C 0.41105 0.25146 0.90371 0.0
C1416 C 0.41284 0.26579 0.91483 0.0
C1417 C 0.4005 0.27975 0.90991 0.0
C1418 C 0.42742 0.2665 0.93163 0.0
C1419 C 0.42458 0.23635 0.90781 0.0
C1420 C 0.42348 0.2554 0.94741 0.0
C1421 C 0.43755 0.25582 0.96302 0.0
C1422 C 0.45583 0.26742 0.96323 0.0
C1423 C 0.45943 0.27876 0.94753 0.0
C1424 C 0.44534 0.27833 0.93193 0.0
H1425 H 0.4256 0.22827 0.89531 0.0
H1426 H 0.44179 0.24012 0.9119 0.0
H1427 H 0.41656 0.2288 0.91987 0.0
H1428 H 0.40946 0.24641 0.94768 0.0
H1429 H 0.43399 0.24712 0.975 0.0
H1430 H 0.24235 0.84365 0.38222 0.0
H1431 H 0.23851 0.86684 0.40365 0.0
H1432 H 0.29146 0.89477 0.37244 0.0
H1433 H 0.2948 0.87204 0.35054 0.0
H1434 H 0.26926 0.88102 0.42731 0.0
H1435 H 0.24316 0.92852 0.37394 0.0
H1436 H 0.24329 0.90656 0.36915 0.0
H1437 H 0.26879 0.91925 0.36733 0.0
C1438 C 0.25297 0.85482 0.37973 0.0
C1439 C 0.26885 0.85593 0.36456 0.0
C1440 C 0.25085 0.86803 0.39209 0.0
C1441 C 0.26445 0.88268 0.38949 0.0
C1442 C 0.28045 0.88376 0.37451 0.0
H1443 H 0.28738 0.97442 0.44879 0.0
H1444 H 0.28814 0.95089 0.42758 0.0
C1445 C 0.28255 0.87061 0.36214 0.0
C1446 C 0.26238 0.89666 0.40272 0.0
H1447 H 0.25388 0.93851 0.40411 0.0
C1448 C 0.2657 0.89356 0.42226 0.0
C1449 C 0.25773 0.91304 0.39615 0.0
C1450 C 0.25282 0.91705 0.37553 0.0
C1451 C 0.26513 0.90645 0.4353 0.0
C1452 C 0.26084 0.92287 0.42866 0.0
C1453 C 0.25727 0.92594 0.40917 0.0
C1454 C 0.26025 0.93708 0.44167 0.0
C1455 C 0.26977 0.9025 0.45598 0.0
C1456 C 0.24416 0.93725 0.45652 0.0
C1457 C 0.24372 0.95067 0.46872 0.0
C1458 C 0.25935 0.96424 0.4663 0.0
C1459 C 0.2753 0.96409 0.45126 0.0
C1460 C 0.27567 0.95069 0.43903 0.0
H1461 H 0.27785 0.89036 0.45795 0.0
H1462 H 0.28067 0.91246 0.46192 0.0
H1463 H 0.25377 0.90174 0.46433 0.0
H1464 H 0.23186 0.92702 0.45864 0.0
H1465 H 0.23132 0.95029 0.48022 0.0
H1466 H 0.7147 0.77976 0.85647 0.0
H1467 H 0.69084 0.77644 0.88533 0.0
H1468 H 0.63468 0.79277 0.85342 0.0
H1469 H 0.65821 0.79569 0.82446 0.0
H1470 H 0.66704 0.80115 0.90308 0.0
H1471 H 0.60968 0.74981 0.88083 0.0
H1472 H 0.636 0.75513 0.86859 0.0
H1473 H 0.61208 0.76734 0.86411 0.0
C1474 C 0.69719 0.78239 0.85552 0.0
C1475 C 0.68838 0.78797 0.83811 0.0
C1476 C 0.68361 0.78059 0.87206 0.0
C1477 C 0.66091 0.78415 0.87149 0.0
C1478 C 0.65205 0.78967 0.85415 0.0
H1479 H 0.55031 0.78882 0.95255 0.0
H1480 H 0.57542 0.78942 0.9243 0.0
C1481 C 0.66561 0.79151 0.83763 0.0
C1482 C 0.64665 0.78277 0.88917 0.0
H1483 H 0.59898 0.76373 0.90878 0.0
C1484 C 0.65227 0.79287 0.90441 0.0
C1485 C 0.62735 0.77199 0.89086 0.0
C1486 C 0.62098 0.76033 0.87531 0.0
C1487 C 0.63876 0.79282 0.92107 0.0
C1488 C 0.61932 0.78216 0.92268 0.0
C1489 C 0.61385 0.77193 0.90752 0.0
C1490 C 0.6042 0.78165 0.93983 0.0
C1491 C 0.64504 0.80459 0.93655 0.0
C1492 C 0.61196 0.77689 0.9579 0.0
C1493 C 0.59766 0.77661 0.97399 0.0
C1494 C 0.57534 0.78091 0.97222 0.0
C1495 C 0.56749 0.78547 0.95417 0.0
C1496 C 0.58179 0.78578 0.93809 0.0
H1497 H 0.65696 0.81477 0.93116 0.0
H1498 H 0.63003 0.81025 0.94269 0.0
H1499 H 0.65317 0.79752 0.94817 0.0
H1500 H 0.62905 0.77334 0.95954 0.0
H1501 H 0.60398 0.77305 0.98782 0.0
loop_
_geom_bond_atom_site_label_1
_geom_bond_atom_site_label_2
_geom_bond_distance
_geom_bond_site_symmetry_2
_ccdc_geom_bond_type
C0 C1 1.264 . S
C0 C5 1.479 . S
C0 C10 1.465 . S
C1 C0 1.264 . S
C1 C3 1.339 . S
C1 H28 0.931 . S
C2 C3 1.395 . S
C2 C4 1.320 . S
C3 C1 1.339 . S
C3 C2 1.395 . S
C3 H29 0.929 . S
C4 C2 1.320 . S
C4 C5 1.405 . S
C4 H30 0.930 . S
C5 C0 1.479 . S
C5 C4 1.405 . S
C5 H31 0.931 . S
U6 O7 2.454 . S
U6 O8 2.458 . S
U6 C9 2.984 . S
U6 C10 2.847 . S
U6 C23 2.882 . S
U6 O24 2.441 . S
U6 O25 2.420 . S
U6 O26 2.455 . S
U6 O27 2.449 . S
O7 U6 2.454 . S
O7 C9 1.353 . S
O8 U6 2.458 . S
O8 C9 1.286 . S
C9 U6 2.984 . S
C9 O7 1.353 . S
C9 O8 1.286 . S
C9 C11 1.363 . S
C10 C0 1.465 . S
C10 U6 2.847 . S
C10 O24 1.249 . S
C10 O25 1.202 . S
C11 C9 1.363 . S
C11 C13 1.408 . S
C11 C16 1.342 . S
C12 C13 1.310 . S
C12 C15 1.461 . S
C12 H32 0.932 . S
C13 C11 1.408 . S
C13 C12 1.310 . S
C13 H33 0.930 . S
C14 C15 1.474 . S
C14 C16 1.285 . S
C14 H34 0.929 . S
C15 C12 1.461 . S
C15 C14 1.474 . S
C16 C11 1.342 . S
C16 C14 1.285 . S
C16 H35 0.930 . S
C17 C20 1.424 . S
C17 C22 1.245 . S
C17 C23 1.428 . S
C18 C21 1.260 . S
C18 C22 1.477 . S
C18 H36 0.932 . S
C19 C20 1.384 . S
C19 C21 1.479 . S
C19 H37 0.929 . S
C20 C17 1.424 . S
C20 C19 1.384 . S
C20 H38 0.928 . S
C21 C18 1.260 . S
C21 C19 1.479 . S
C22 C17 1.245 . S
C22 C18 1.477 . S
C22 H39 0.932 . S
C23 U6 2.882 . S
C23 C17 1.428 . S
C23 O26 1.301 . S
C23 O27 1.282 . S
O24 U6 2.441 . S
O24 C10 1.249 . S
O25 U6 2.420 . S
O25 C10 1.202 . S
O26 U6 2.455 . S
O26 C23 1.301 . S
O27 U6 2.449 . S
O27 C23 1.282 . S
H28 C1 0.931 . S
H29 C3 0.929 . S
H30 C4 0.930 . S
H31 C5 0.931 . S
H32 C12 0.932 . S
H33 C13 0.930 . S
H34 C14 0.929 . S
H35 C16 0.930 . S
H36 C18 0.932 . S
H37 C19 0.929 . S
H38 C20 0.928 . S
H39 C22 0.932 . S
C40 C41 1.264 . S
C40 C45 1.479 . S
C40 C50 1.465 . S
C41 C40 1.264 . S
C41 C43 1.339 . S
C41 H68 0.931 . S
C42 C43 1.395 . S
C42 C44 1.320 . S
C43 C41 1.339 . S
C43 C42 1.395 . S
C43 H69 0.929 . S
C44 C42 1.320 . S
C44 C45 1.405 . S
C44 H70 0.930 . S
C45 C40 1.479 . S
C45 C44 1.405 . S
C45 H71 0.931 . S
U46 O47 2.454 . S
U46 O48 2.458 . S
U46 C49 2.984 . S
U46 C50 2.847 . S
U46 C63 2.882 . S
U46 O64 2.441 . S
U46 O65 2.420 . S
U46 O66 2.455 . S
U46 O67 2.449 . S
O47 U46 2.454 . S
O47 C49 1.353 . S
O48 U46 2.458 . S
O48 C49 1.286 . S
C49 U46 2.984 . S
C49 O47 1.353 . S
C49 O48 1.286 . S
C49 C51 1.363 . S
C50 C40 1.465 . S
C50 U46 2.847 . S
C50 O64 1.249 . S
C50 O65 1.202 . S
C51 C49 1.363 . S
C51 C53 1.408 . S
C51 C56 1.342 . S
C52 C53 1.310 . S
C52 C55 1.461 . S
C52 H72 0.932 . S
C53 C51 1.408 . S
C53 C52 1.310 . S
C53 H73 0.930 . S
C54 C55 1.474 . S
C54 C56 1.285 . S
C54 H74 0.929 . S
C55 C52 1.461 . S
C55 C54 1.474 . S
C56 C51 1.342 . S
C56 C54 1.285 . S
C56 H75 0.930 . S
C57 C60 1.424 . S
C57 C62 1.245 . S
C57 C63 1.428 . S
C58 C61 1.260 . S
C58 C62 1.477 . S
C58 H76 0.932 . S
C59 C60 1.384 . S
C59 C61 1.479 . S
C59 H77 0.929 . S
C60 C57 1.424 . S
C60 C59 1.384 . S
C60 H78 0.928 . S
C61 C58 1.260 . S
C61 C59 1.479 . S
C62 C57 1.245 . S
C62 C58 1.477 . S
C62 H79 0.932 . S
C63 U46 2.882 . S
C63 C57 1.428 . S
C63 O66 1.301 . S
C63 O67 1.282 . S
O64 U46 2.441 . S
O64 C50 1.249 . S
O65 U46 2.420 . S
O65 C50 1.202 . S
O66 U46 2.455 . S
O66 C63 1.301 . S
O67 U46 2.449 . S
O67 C63 1.282 . S
H68 C41 0.931 . S
H69 C43 0.929 . S
H70 C44 0.930 . S
H71 C45 0.931 . S
H72 C52 0.932 . S
H73 C53 0.930 . S
H74 C54 0.929 . S
H75 C56 0.930 . S
H76 C58 0.932 . S
H77 C59 0.929 . S
H78 C60 0.928 . S
H79 C62 0.932 . S
C80 C81 1.264 . S
C80 C85 1.479 . S
C80 C90 1.465 . S
C81 C80 1.264 . S
C81 C83 1.339 . S
C81 H108 0.931 . S
C82 C83 1.395 . S
C82 C84 1.320 . S
C83 C81 1.339 . S
C83 C82 1.395 . S
C83 H109 0.929 . S
C84 C82 1.320 . S
C84 C85 1.405 . S
C84 H110 0.930 . S
C85 C80 1.479 . S
C85 C84 1.405 . S
C85 H111 0.931 . S
U86 O87 2.454 . S
U86 O88 2.458 . S
U86 C89 2.984 . S
U86 C90 2.847 . S
U86 C103 2.882 . S
U86 O104 2.441 . S
U86 O105 2.420 . S
U86 O106 2.455 . S
U86 O107 2.449 . S
O87 U86 2.454 . S
O87 C89 1.353 . S
O88 U86 2.458 . S
O88 C89 1.286 . S
C89 U86 2.984 . S
C89 O87 1.353 . S
C89 O88 1.286 . S
C89 C91 1.363 . S
C90 C80 1.465 . S
C90 U86 2.847 . S
C90 O104 1.249 . S
C90 O105 1.202 . S
C91 C89 1.363 . S
C91 C93 1.408 . S
C91 C96 1.342 . S
C92 C93 1.310 . S
C92 C95 1.461 . S
C92 H112 0.932 . S
C93 C91 1.408 . S
C93 C92 1.310 . S
C93 H113 0.930 . S
C94 C95 1.474 . S
C94 C96 1.285 . S
C94 H114 0.929 . S
C95 C92 1.461 . S
C95 C94 1.474 . S
C96 C91 1.342 . S
C96 C94 1.285 . S
C96 H115 0.930 . S
C97 C100 1.424 . S
C97 C102 1.245 . S
C97 C103 1.428 . S
C98 C101 1.260 . S
C98 C102 1.477 . S
C98 H116 0.932 . S
C99 C100 1.384 . S
C99 C101 1.479 . S
C99 H117 0.929 . S
C100 C97 1.424 . S
C100 C99 1.384 . S
C100 H118 0.928 . S
C101 C98 1.260 . S
C101 C99 1.479 . S
C102 C97 1.245 . S
C102 C98 1.477 . S
C102 H119 0.932 . S
C103 U86 2.882 . S
C103 C97 1.428 . S
C103 O106 1.301 . S
C103 O107 1.282 . S
O104 U86 2.441 . S
O104 C90 1.249 . S
O105 U86 2.420 . S
O105 C90 1.202 . S
O106 U86 2.455 . S
O106 C103 1.301 . S
O107 U86 2.449 . S
O107 C103 1.282 . S
H108 C81 0.931 . S
H109 C83 0.929 . S
H110 C84 0.930 . S
H111 C85 0.931 . S
H112 C92 0.932 . S
H113 C93 0.930 . S
H114 C94 0.929 . S
H115 C96 0.930 . S
H116 C98 0.932 . S
H117 C99 0.929 . S
H118 C100 0.928 . S
H119 C102 0.932 . S
C120 C121 1.264 . S
C120 C125 1.479 . S
C120 C130 1.465 . S
C121 C120 1.264 . S
C121 C123 1.339 . S
C121 H148 0.931 . S
C122 C123 1.395 . S
C122 C124 1.320 . S
C123 C121 1.339 . S
C123 C122 1.395 . S
C123 H149 0.929 . S
C124 C122 1.320 . S
C124 C125 1.405 . S
C124 H150 0.930 . S
C125 C120 1.479 . S
C125 C124 1.405 . S
C125 H151 0.931 . S
U126 O127 2.454 . S
U126 O128 2.458 . S
U126 C129 2.984 . S
U126 C130 2.847 . S
U126 C143 2.882 . S
U126 O144 2.441 . S
U126 O145 2.420 . S
U126 O146 2.455 . S
U126 O147 2.449 . S
O127 U126 2.454 . S
O127 C129 1.353 . S
O128 U126 2.458 . S
O128 C129 1.286 . S
C129 U126 2.984 . S
C129 O127 1.353 . S
C129 O128 1.286 . S
C129 C131 1.363 . S
C130 C120 1.465 . S
C130 U126 2.847 . S
C130 O144 1.249 . S
C130 O145 1.202 . S
C131 C129 1.363 . S
C131 C133 1.408 . S
C131 C136 1.342 . S
C132 C133 1.310 . S
C132 C135 1.461 . S
C132 H152 0.932 . S
C133 C131 1.408 . S
C133 C132 1.310 . S
C133 H153 0.930 . S
C134 C135 1.474 . S
C134 C136 1.285 . S
C134 H154 0.929 . S
C135 C132 1.461 . S
C135 C134 1.474 . S
C136 C131 1.342 . S
C136 C134 1.285 . S
C136 H155 0.930 . S
C137 C140 1.424 . S
C137 C142 1.245 . S
C137 C143 1.428 . S
C138 C141 1.260 . S
C138 C142 1.477 . S
C138 H156 0.932 . S
C139 C140 1.384 . S
C139 C141 1.479 . S
C139 H157 0.929 . S
C140 C137 1.424 . S
C140 C139 1.384 . S
C140 H158 0.928 . S
C141 C138 1.260 . S
C141 C139 1.479 . S
C142 C137 1.245 . S
C142 C138 1.477 . S
C142 H159 0.932 . S
C143 U126 2.882 . S
C143 C137 1.428 . S
C143 O146 1.301 . S
C143 O147 1.282 . S
O144 U126 2.441 . S
O144 C130 1.249 . S
O145 U126 2.420 . S
O145 C130 1.202 . S
O146 U126 2.455 . S
O146 C143 1.301 . S
O147 U126 2.449 . S
O147 C143 1.282 . S
H148 C121 0.931 . S
H149 C123 0.929 . S
H150 C124 0.930 . S
H151 C125 0.931 . S
H152 C132 0.932 . S
H153 C133 0.930 . S
H154 C134 0.929 . S
H155 C136 0.930 . S
H156 C138 0.932 . S
H157 C139 0.929 . S
H158 C140 0.928 . S
H159 C142 0.932 . S
C160 C161 1.264 . S
C160 C165 1.479 . S
C160 C170 1.465 . S
C161 C160 1.264 . S
C161 C163 1.339 . S
C161 H188 0.931 . S
C162 C163 1.395 . S
C162 C164 1.320 . S
C163 C161 1.339 . S
C163 C162 1.395 . S
C163 H189 0.929 . S
C164 C162 1.320 . S
C164 C165 1.405 . S
C164 H190 0.930 . S
C165 C160 1.479 . S
C165 C164 1.405 . S
C165 H191 0.931 . S
U166 O167 2.454 . S
U166 O168 2.458 . S
U166 C169 2.984 . S
U166 C170 2.847 . S
U166 C183 2.882 . S
U166 O184 2.441 . S
U166 O185 2.420 . S
U166 O186 2.455 . S
U166 O187 2.449 . S
O167 U166 2.454 . S
O167 C169 1.353 . S
O168 U166 2.458 . S
O168 C169 1.286 . S
C169 U166 2.984 . S
C169 O167 1.353 . S
C169 O168 1.286 . S
C169 C171 1.363 . S
C170 C160 1.465 . S
C170 U166 2.847 . S
C170 O184 1.249 . S
C170 O185 1.202 . S
C171 C169 1.363 . S
C171 C173 1.408 . S
C171 C176 1.342 . S
C172 C173 1.310 . S
C172 C175 1.461 . S
C172 H192 0.932 . S
C173 C171 1.408 . S
C173 C172 1.310 . S
C173 H193 0.930 . S
C174 C175 1.474 . S
C174 C176 1.285 . S
C174 H194 0.929 . S
C175 C172 1.461 . S
C175 C174 1.474 . S
C176 C171 1.342 . S
C176 C174 1.285 . S
C176 H195 0.930 . S
C177 C180 1.424 . S
C177 C182 1.245 . S
C177 C183 1.428 . S
C178 C181 1.260 . S
C178 C182 1.477 . S
C178 H196 0.932 . S
C179 C180 1.384 . S
C179 C181 1.479 . S
C179 H197 0.929 . S
C180 C177 1.424 . S
C180 C179 1.384 . S
C180 H198 0.928 . S
C181 C178 1.260 . S
C181 C179 1.479 . S
C182 C177 1.245 . S
C182 C178 1.477 . S
C182 H199 0.932 . S
C183 U166 2.882 . S
C183 C177 1.428 . S
C183 O186 1.301 . S
C183 O187 1.282 . S
O184 U166 2.441 . S
O184 C170 1.249 . S
O185 U166 2.420 . S
O185 C170 1.202 . S
O186 U166 2.455 . S
O186 C183 1.301 . S
O187 U166 2.449 . S
O187 C183 1.282 . S
H188 C161 0.931 . S
H189 C163 0.929 . S
H190 C164 0.930 . S
H191 C165 0.931 . S
H192 C172 0.932 . S
H193 C173 0.930 . S
H194 C174 0.929 . S
H195 C176 0.930 . S
H196 C178 0.932 . S
H197 C179 0.929 . S
H198 C180 0.928 . S
H199 C182 0.932 . S
C200 C201 1.264 . S
C200 C205 1.479 . S
C200 C210 1.465 . S
C201 C200 1.264 . S
C201 C203 1.339 . S
C201 H228 0.931 . S
C202 C203 1.395 . S
C202 C204 1.320 . S
C203 C201 1.339 . S
C203 C202 1.395 . S
C203 H229 0.929 . S
C204 C202 1.320 . S
C204 C205 1.405 . S
C204 H230 0.930 . S
C205 C200 1.479 . S
C205 C204 1.405 . S
C205 H231 0.931 . S
U206 O207 2.454 . S
U206 O208 2.458 . S
U206 C209 2.984 . S
U206 C210 2.847 . S
U206 C223 2.882 . S
U206 O224 2.441 . S
U206 O225 2.420 . S
U206 O226 2.455 . S
U206 O227 2.449 . S
O207 U206 2.454 . S
O207 C209 1.353 . S
O208 U206 2.458 . S
O208 C209 1.286 . S
C209 U206 2.984 . S
C209 O207 1.353 . S
C209 O208 1.286 . S
C209 C211 1.363 . S
C210 C200 1.465 . S
C210 U206 2.847 . S
C210 O224 1.249 . S
C210 O225 1.202 . S
C211 C209 1.363 . S
C211 C213 1.408 . S
C211 C216 1.342 . S
C212 C213 1.310 . S
C212 C215 1.461 . S
C212 H232 0.932 . S
C213 C211 1.408 . S
C213 C212 1.310 . S
C213 H233 0.930 . S
C214 C215 1.474 . S
C214 C216 1.285 . S
C214 H234 0.929 . S
C215 C212 1.461 . S
C215 C214 1.474 . S
C216 C211 1.342 . S
C216 C214 1.285 . S
C216 H235 0.930 . S
C217 C220 1.424 . S
C217 C222 1.245 . S
C217 C223 1.428 . S
C218 C221 1.260 . S
C218 C222 1.477 . S
C218 H236 0.932 . S
C219 C220 1.384 . S
C219 C221 1.479 . S
C219 H237 0.929 . S
C220 C217 1.424 . S
C220 C219 1.384 . S
C220 H238 0.928 . S
C221 C218 1.260 . S
C221 C219 1.479 . S
C222 C217 1.245 . S
C222 C218 1.477 . S
C222 H239 0.932 . S
C223 U206 2.882 . S
C223 C217 1.428 . S
C223 O226 1.301 . S
C223 O227 1.282 . S
O224 U206 2.441 . S
O224 C210 1.249 . S
O225 U206 2.420 . S
O225 C210 1.202 . S
O226 U206 2.455 . S
O226 C223 1.301 . S
O227 U206 2.449 . S
O227 C223 1.282 . S
H228 C201 0.931 . S
H229 C203 0.929 . S
H230 C204 0.930 . S
H231 C205 0.931 . S
H232 C212 0.932 . S
H233 C213 0.930 . S
H234 C214 0.929 . S
H235 C216 0.930 . S
H236 C218 0.932 . S
H237 C219 0.929 . S
H238 C220 0.928 . S
H239 C222 0.932 . S
C240 C241 1.264 . S
C240 C245 1.479 . S
C240 C250 1.465 . S
C241 C240 1.264 . S
C241 C243 1.339 . S
C241 H268 0.931 . S
C242 C243 1.395 . S
C242 C244 1.320 . S
C243 C241 1.339 . S
C243 C242 1.395 . S
C243 H269 0.929 . S
C244 C242 1.320 . S
C244 C245 1.405 . S
C244 H270 0.930 . S
C245 C240 1.479 . S
C245 C244 1.405 . S
C245 H271 0.931 . S
U246 O247 2.454 . S
U246 O248 2.458 . S
U246 C249 2.984 . S
U246 C250 2.847 . S
U246 C263 2.882 . S
U246 O264 2.441 . S
U246 O265 2.420 . S
U246 O266 2.455 . S
U246 O267 2.449 . S
O247 U246 2.454 . S
O247 C249 1.353 . S
O248 U246 2.458 . S
O248 C249 1.286 . S
C249 U246 2.984 . S
C249 O247 1.353 . S
C249 O248 1.286 . S
C249 C251 1.363 . S
C250 C240 1.465 . S
C250 U246 2.847 . S
C250 O264 1.249 . S
C250 O265 1.202 . S
C251 C249 1.363 . S
C251 C253 1.408 . S
C251 C256 1.342 . S
C252 C253 1.310 . S
C252 C255 1.461 . S
C252 H272 0.932 . S
C253 C251 1.408 . S
C253 C252 1.310 . S
C253 H273 0.930 . S
C254 C255 1.474 . S
C254 C256 1.285 . S
C254 H274 0.929 . S
C255 C252 1.461 . S
C255 C254 1.474 . S
C256 C251 1.342 . S
C256 C254 1.285 . S
C256 H275 0.930 . S
C257 C260 1.424 . S
C257 C262 1.245 . S
C257 C263 1.428 . S
C258 C261 1.260 . S
C258 C262 1.477 . S
C258 H276 0.932 . S
C259 C260 1.384 . S
C259 C261 1.479 . S
C259 H277 0.929 . S
C260 C257 1.424 . S
C260 C259 1.384 . S
C260 H278 0.928 . S
C261 C258 1.260 . S
C261 C259 1.479 . S
C262 C257 1.245 . S
C262 C258 1.477 . S
C262 H279 0.932 . S
C263 U246 2.882 . S
C263 C257 1.428 . S
C263 O266 1.301 . S
C263 O267 1.282 . S
O264 U246 2.441 . S
O264 C250 1.249 . S
O265 U246 2.420 . S
O265 C250 1.202 . S
O266 U246 2.455 . S
O266 C263 1.301 . S
O267 U246 2.449 . S
O267 C263 1.282 . S
H268 C241 0.931 . S
H269 C243 0.929 . S
H270 C244 0.930 . S
H271 C245 0.931 . S
H272 C252 0.932 . S
H273 C253 0.930 . S
H274 C254 0.929 . S
H275 C256 0.930 . S
H276 C258 0.932 . S
H277 C259 0.929 . S
H278 C260 0.928 . S
H279 C262 0.932 . S
C280 C281 1.264 . S
C280 C285 1.479 . S
C280 C290 1.465 . S
C281 C280 1.264 . S
C281 C283 1.339 . S
C281 H308 0.931 . S
C282 C283 1.395 . S
C282 C284 1.320 . S
C283 C281 1.339 . S
C283 C282 1.395 . S
C283 H309 0.929 . S
C284 C282 1.320 . S
C284 C285 1.405 . S
C284 H310 0.930 . S
C285 C280 1.479 . S
C285 C284 1.405 . S
C285 H311 0.931 . S
U286 O287 2.454 . S
U286 O288 2.458 . S
U286 C289 2.984 . S
U286 C290 2.847 . S
U286 C303 2.882 . S
U286 O304 2.441 . S
U286 O305 2.420 . S
U286 O306 2.455 . S
U286 O307 2.449 . S
O287 U286 2.454 . S
O287 C289 1.353 . S
O288 U286 2.458 . S
O288 C289 1.286 . S
C289 U286 2.984 . S
C289 O287 1.353 . S
C289 O288 1.286 . S
C289 C291 1.363 . S
C290 C280 1.465 . S
C290 U286 2.847 . S
C290 O304 1.249 . S
C290 O305 1.202 . S
C291 C289 1.363 . S
C291 C293 1.408 . S
C291 C296 1.342 . S
C292 C293 1.310 . S
C292 C295 1.461 . S
C292 H312 0.932 . S
C293 C291 1.408 . S
C293 C292 1.310 . S
C293 H313 0.930 . S
C294 C295 1.474 . S
C294 C296 1.285 . S
C294 H314 0.929 . S
C295 C292 1.461 . S
C295 C294 1.474 . S
C296 C291 1.342 . S
C296 C294 1.285 . S
C296 H315 0.930 . S
C297 C300 1.424 . S
C297 C302 1.245 . S
C297 C303 1.428 . S
C298 C301 1.260 . S
C298 C302 1.477 . S
C298 H316 0.932 . S
C299 C300 1.384 . S
C299 C301 1.479 . S
C299 H317 0.929 . S
C300 C297 1.424 . S
C300 C299 1.384 . S
C300 H318 0.928 . S
C301 C298 1.260 . S
C301 C299 1.479 . S
C302 C297 1.245 . S
C302 C298 1.477 . S
C302 H319 0.932 . S
C303 U286 2.882 . S
C303 C297 1.428 . S
C303 O306 1.301 . S
C303 O307 1.282 . S
O304 U286 2.441 . S
O304 C290 1.249 . S
O305 U286 2.420 . S
O305 C290 1.202 . S
O306 U286 2.455 . S
O306 C303 1.301 . S
O307 U286 2.449 . S
O307 C303 1.282 . S
H308 C281 0.931 . S
H309 C283 0.929 . S
H310 C284 0.930 . S
H311 C285 0.931 . S
H312 C292 0.932 . S
H313 C293 0.930 . S
H314 C294 0.929 . S
H315 C296 0.930 . S
H316 C298 0.932 . S
H317 C299 0.929 . S
H318 C300 0.928 . S
H319 C302 0.932 . S
C320 C321 1.443 . S
C320 N324 1.376 . S
C320 C358 1.389 . S
C321 C320 1.443 . S
C321 C322 1.340 . S
C321 H361 0.951 . S
C322 C321 1.340 . S
C322 C323 1.439 . S
C322 H362 0.950 . S
C323 C322 1.439 . S
C323 N324 1.374 . S
C323 C357 1.395 . S
N324 C320 1.376 . S
N324 C323 1.374 . S
N324 Co325 2.008 . S
Co325 N324 2.008 . S
Co325 N326 1.995 . S
Co325 N331 2.008 . S
Co325 N336 1.995 . S
Co325 N341 2.282 . S
Co325 N347 2.282 1_455 S
N326 Co325 1.995 . S
N326 C327 1.376 . S
N326 C330 1.383 1_455 S
C327 N326 1.376 . S
C327 C328 1.446 1_455 S
C327 C357 1.391 . S
C328 C327 1.446 1_655 S
C328 C329 1.339 . S
C328 H363 0.949 . S
C329 C328 1.339 . S
C329 C330 1.439 . S
C329 H364 0.950 . S
C330 N326 1.383 1_655 S
C330 C329 1.439 . S
C330 C359 1.392 . S
N331 Co325 2.008 . S
N331 C332 1.376 1_455 S
N331 C335 1.374 . S
C332 N331 1.376 1_655 S
C332 C333 1.443 . S
C332 C359 1.389 . S
C333 C332 1.443 . S
C333 C334 1.340 . S
C333 H365 0.951 . S
C334 C333 1.340 . S
C334 C335 1.439 1_655 S
C334 H366 0.950 . S
C335 N331 1.374 . S
C335 C334 1.439 1_455 S
C335 C360 1.395 . S
N336 Co325 1.995 . S
N336 C337 1.376 . S
N336 C340 1.383 . S
C337 N336 1.376 . S
C337 C338 1.446 . S
C337 C360 1.391 . S
C338 C337 1.446 . S
C338 C339 1.339 . S
C338 H367 0.949 . S
C339 C338 1.339 . S
C339 C340 1.439 . S
C339 H368 0.950 . S
C340 N336 1.383 . S
C340 C339 1.439 . S
C340 C358 1.392 . S
N341 Co325 2.282 . S
N341 C344 1.332 . S
N341 C346 1.332 . S
C342 C343 1.386 . S
C342 C345 1.388 . S
C343 C342 1.386 . S
C343 C344 1.382 . S
C343 H369 0.950 . S
C344 N341 1.332 . S
C344 C343 1.382 . S
C344 H355 0.952 . S
C345 C342 1.388 . S
C345 C346 1.382 . S
C345 H370 0.950 . S
C346 N341 1.332 . S
C346 C345 1.382 . S
C346 H356 0.948 . S
N347 Co325 2.282 1_655 S
N347 C351 1.332 . S
N347 C352 1.332 . S
C348 C349 1.388 . S
C348 C352 1.382 . S
C348 H371 0.950 . S
C349 C348 1.388 . S
C349 C350 1.386 . S
C350 C349 1.386 . S
C350 C351 1.382 . S
C350 H372 0.950 . S
C351 N347 1.332 . S
C351 C350 1.382 . S
C351 H353 0.952 . S
C352 N347 1.332 . S
C352 C348 1.382 . S
C352 H354 0.948 . S
H353 C351 0.952 . S
H354 C352 0.948 . S
H355 C344 0.952 . S
H356 C346 0.948 . S
C357 C323 1.395 . S
C357 C327 1.391 . S
C358 C320 1.389 . S
C358 C340 1.392 . S
C359 C330 1.392 . S
C359 C332 1.389 . S
C360 C335 1.395 . S
C360 C337 1.391 . S
H361 C321 0.951 . S
H362 C322 0.950 . S
H363 C328 0.949 . S
H364 C329 0.950 . S
H365 C333 0.951 . S
H366 C334 0.950 . S
H367 C338 0.949 . S
H368 C339 0.950 . S
H369 C343 0.950 . S
H370 C345 0.950 . S
H371 C348 0.950 . S
H372 C350 0.950 . S
C373 C374 1.443 . S
C373 N377 1.376 . S
C373 C411 1.389 . S
C374 C373 1.443 . S
C374 C375 1.340 . S
C374 H414 0.951 . S
C375 C374 1.340 . S
C375 C376 1.439 . S
C375 H415 0.950 . S
C376 C375 1.439 . S
C376 N377 1.374 . S
C376 C410 1.395 . S
N377 C373 1.376 . S
N377 C376 1.374 . S
N377 Co378 2.008 . S
Co378 N377 2.008 . S
Co378 N379 1.995 1_455 S
Co378 N384 2.008 1_455 S
Co378 N389 1.995 . S
Co378 N394 2.282 . S
Co378 N400 2.282 1_455 S
N379 Co378 1.995 1_655 S
N379 C380 1.376 . S
N379 C383 1.383 . S
C380 N379 1.376 . S
C380 C381 1.446 . S
C380 C410 1.391 1_655 S
C381 C380 1.446 . S
C381 C382 1.339 . S
C381 H416 0.949 . S
C382 C381 1.339 . S
C382 C383 1.439 . S
C382 H417 0.950 . S
C383 N379 1.383 . S
C383 C382 1.439 . S
C383 C412 1.392 . S
N384 Co378 2.008 1_655 S
N384 C385 1.376 . S
N384 C388 1.373 1_655 S
C385 N384 1.376 . S
C385 C386 1.443 . S
C385 C412 1.389 . S
C386 C385 1.443 . S
C386 C387 1.340 . S
C386 H418 0.951 . S
C387 C386 1.340 . S
C387 C388 1.438 1_655 S
C387 H419 0.950 . S
C388 N384 1.373 1_455 S
C388 C387 1.438 1_455 S
C388 C413 1.397 . S
N389 Co378 1.995 . S
N389 C390 1.376 . S
N389 C393 1.383 . S
C390 N389 1.376 . S
C390 C391 1.446 . S
C390 C413 1.391 . S
C391 C390 1.446 . S
C391 C392 1.339 . S
C391 H420 0.949 . S
C392 C391 1.339 . S
C392 C393 1.439 . S
C392 H421 0.950 . S
C393 N389 1.383 . S
C393 C392 1.439 . S
C393 C411 1.392 . S
N394 Co378 2.282 . S
N394 C397 1.332 . S
N394 C399 1.332 . S
C395 C396 1.386 . S
C395 C398 1.388 . S
C396 C395 1.386 . S
C396 C397 1.382 . S
C396 H422 0.950 . S
C397 N394 1.332 . S
C397 C396 1.382 . S
C397 H408 0.952 . S
C398 C395 1.388 . S
C398 C399 1.382 . S
C398 H423 0.950 . S
C399 N394 1.332 . S
C399 C398 1.382 . S
C399 H409 0.948 . S
N400 Co378 2.282 1_655 S
N400 C404 1.332 . S
N400 C405 1.332 . S
C401 C402 1.388 . S
C401 C405 1.382 . S
C401 H424 0.950 . S
C402 C401 1.388 . S
C402 C403 1.386 . S
C403 C402 1.386 . S
C403 C404 1.382 . S
C403 H425 0.950 . S
C404 N400 1.332 . S
C404 C403 1.382 . S
C404 H406 0.952 . S
C405 N400 1.332 . S
C405 C401 1.382 . S
C405 H407 0.948 . S
H406 C404 0.952 . S
H407 C405 0.948 . S
H408 C397 0.952 . S
H409 C399 0.948 . S
C410 C376 1.395 . S
C410 C380 1.391 1_455 S
C411 C373 1.389 . S
C411 C393 1.392 . S
C412 C383 1.392 . S
C412 C385 1.389 . S
C413 C388 1.397 . S
C413 C390 1.391 . S
H414 C374 0.951 . S
H415 C375 0.950 . S
H416 C381 0.949 . S
H417 C382 0.950 . S
H418 C386 0.951 . S
H419 C387 0.950 . S
H420 C391 0.949 . S
H421 C392 0.950 . S
H422 C396 0.950 . S
H423 C398 0.950 . S
H424 C401 0.950 . S
H425 C403 0.950 . S
C426 C427 1.443 . S
C426 N430 1.376 . S
C426 C464 1.389 . S
C427 C426 1.443 . S
C427 C428 1.340 . S
C427 H467 0.951 . S
C428 C427 1.340 . S
C428 C429 1.439 . S
C428 H468 0.950 . S
C429 C428 1.439 . S
C429 N430 1.374 . S
C429 C463 1.395 1_565 S
N430 C426 1.376 . S
N430 C429 1.374 . S
N430 Co431 2.008 1_565 S
Co431 N430 2.008 1_545 S
Co431 N432 1.995 . S
Co431 N437 2.008 . S
Co431 N442 1.995 1_545 S
Co431 N447 2.282 . S
Co431 N453 2.282 1_545 S
N432 Co431 1.995 . S
N432 C433 1.376 . S
N432 C436 1.383 . S
C433 N432 1.376 . S
C433 C434 1.446 . S
C433 C463 1.391 . S
C434 C433 1.446 . S
C434 C435 1.339 . S
C434 H469 0.949 . S
C435 C434 1.339 . S
C435 C436 1.439 . S
C435 H470 0.950 . S
C436 N432 1.383 . S
C436 C435 1.439 . S
C436 C465 1.392 . S
N437 Co431 2.008 . S
N437 C438 1.376 . S
N437 C441 1.374 . S
C438 N437 1.376 . S
C438 C439 1.443 . S
C438 C465 1.389 . S
C439 C438 1.443 . S
C439 C440 1.340 . S
C439 H471 0.951 . S
C440 C439 1.340 . S
C440 C441 1.439 . S
C440 H472 0.950 . S
C441 N437 1.374 . S
C441 C440 1.439 . S
C441 C466 1.395 . S
N442 Co431 1.995 1_565 S
N442 C443 1.376 . S
N442 C446 1.383 . S
C443 N442 1.376 . S
C443 C444 1.446 . S
C443 C466 1.391 1_565 S
C444 C443 1.446 . S
C444 C445 1.339 . S
C444 H473 0.949 . S
C445 C444 1.339 . S
C445 C446 1.439 . S
C445 H474 0.950 . S
C446 N442 1.383 . S
C446 C445 1.439 . S
C446 C464 1.392 . S
N447 Co431 2.282 . S
N447 C450 1.332 . S
N447 C452 1.332 . S
C448 C449 1.386 . S
C448 C451 1.388 . S
C449 C448 1.386 . S
C449 C450 1.382 . S
C449 H475 0.950 . S
C450 N447 1.332 . S
C450 C449 1.382 . S
C450 H461 0.952 . S
C451 C448 1.388 . S
C451 C452 1.382 . S
C451 H476 0.950 . S
C452 N447 1.332 . S
C452 C451 1.382 . S
C452 H462 0.948 . S
N453 Co431 2.282 1_565 S
N453 C457 1.332 . S
N453 C458 1.332 . S
C454 C455 1.388 . S
C454 C458 1.382 . S
C454 H477 0.950 . S
C455 C454 1.388 . S
C455 C456 1.386 . S
C456 C455 1.386 . S
C456 C457 1.382 . S
C456 H478 0.950 . S
C457 N453 1.332 . S
C457 C456 1.382 . S
C457 H459 0.952 . S
C458 N453 1.332 . S
C458 C454 1.382 . S
C458 H460 0.948 . S
H459 C457 0.952 . S
H460 C458 0.948 . S
H461 C450 0.952 . S
H462 C452 0.948 . S
C463 C429 1.395 1_545 S
C463 C433 1.391 . S
C464 C426 1.389 . S
C464 C446 1.392 . S
C465 C436 1.392 . S
C465 C438 1.389 . S
C466 C441 1.395 . S
C466 C443 1.391 1_545 S
H467 C427 0.951 . S
H468 C428 0.950 . S
H469 C434 0.949 . S
H470 C435 0.950 . S
H471 C439 0.951 . S
H472 C440 0.950 . S
H473 C444 0.949 . S
H474 C445 0.950 . S
H475 C449 0.950 . S
H476 C451 0.950 . S
H477 C454 0.950 . S
H478 C456 0.950 . S
C479 C480 1.443 . S
C479 N483 1.376 . S
C479 C517 1.389 . S
C480 C479 1.443 . S
C480 C481 1.340 . S
C480 H520 0.951 . S
C481 C480 1.340 . S
C481 C482 1.439 . S
C481 H521 0.950 . S
C482 C481 1.439 . S
C482 N483 1.374 . S
C482 C516 1.395 . S
N483 C479 1.376 . S
N483 C482 1.374 . S
N483 Co484 2.008 . S
Co484 N483 2.008 . S
Co484 N485 2.019 . S
Co484 N490 2.004 1_554 S
Co484 N495 1.995 . S
Co484 N500 2.282 1_554 S
Co484 N506 2.282 . S
N485 Co484 2.019 . S
N485 C486 1.384 . S
N485 C489 1.344 1_554 S
C486 N485 1.384 . S
C486 C487 1.446 1_554 S
C486 C516 1.391 . S
C487 C486 1.446 1_556 S
C487 C488 1.339 . S
C487 H522 0.949 . S
C488 C487 1.339 . S
C488 C489 1.439 . S
C488 H523 0.950 . S
C489 N485 1.344 1_556 S
C489 C488 1.439 . S
C489 C518 1.392 . S
N490 Co484 2.004 1_556 S
N490 C491 1.382 . S
N490 C494 1.374 1_556 S
C491 N490 1.382 . S
C491 C492 1.443 . S
C491 C518 1.389 . S
C492 C491 1.443 . S
C492 C493 1.340 . S
C492 H524 0.951 . S
C493 C492 1.340 . S
C493 C494 1.402 1_556 S
C493 H525 0.950 . S
C494 N490 1.374 1_554 S
C494 C493 1.402 1_554 S
C494 C519 1.427 . S
N495 Co484 1.995 . S
N495 C496 1.376 . S
N495 C499 1.383 . S
C496 N495 1.376 . S
C496 C497 1.446 . S
C496 C519 1.391 . S
C497 C496 1.446 . S
C497 C498 1.339 . S
C497 H526 0.949 . S
C498 C497 1.339 . S
C498 C499 1.439 . S
C498 H527 0.950 . S
C499 N495 1.383 . S
C499 C498 1.439 . S
C499 C517 1.392 . S
N500 Co484 2.282 1_556 S
N500 C503 1.332 . S
N500 C505 1.332 . S
C501 C502 1.386 . S
C501 C504 1.388 . S
C502 C501 1.386 . S
C502 C503 1.382 . S
C502 H528 0.950 . S
C503 N500 1.332 . S
C503 C502 1.382 . S
C503 H514 0.952 . S
C504 C501 1.388 . S
C504 C505 1.382 . S
C504 H529 0.950 . S
C505 N500 1.332 . S
C505 C504 1.382 . S
C505 H515 0.948 . S
N506 Co484 2.282 . S
N506 C510 1.332 . S
N506 C511 1.332 . S
C507 C508 1.388 . S
C507 C511 1.382 . S
C507 H530 0.950 . S
C508 C507 1.388 . S
C508 C509 1.386 . S
C509 C508 1.386 . S
C509 C510 1.382 . S
C509 H531 0.950 . S
C510 N506 1.332 . S
C510 C509 1.382 . S
C510 H512 0.952 . S
C511 N506 1.332 . S
C511 C507 1.382 . S
C511 H513 0.948 . S
H512 C510 0.952 . S
H513 C511 0.948 . S
H514 C503 0.952 . S
H515 C505 0.948 . S
C516 C482 1.395 . S
C516 C486 1.391 . S
C517 C479 1.389 . S
C517 C499 1.392 . S
C518 C489 1.392 . S
C518 C491 1.389 . S
C519 C494 1.427 . S
C519 C496 1.391 . S
H520 C480 0.951 . S
H521 C481 0.950 . S
H522 C487 0.949 . S
H523 C488 0.950 . S
H524 C492 0.951 . S
H525 C493 0.950 . S
H526 C497 0.949 . S
H527 C498 0.950 . S
H528 C502 0.950 . S
H529 C504 0.950 . S
H530 C507 0.950 . S
H531 C509 0.950 . S
C532 C533 1.443 . S
C532 N536 1.376 1_565 S
C532 C570 1.389 . S
C533 C532 1.443 . S
C533 C534 1.340 . S
C533 H573 0.951 . S
C534 C533 1.340 . S
C534 C535 1.439 1_565 S
C534 H574 0.950 . S
C535 C534 1.439 1_545 S
C535 N536 1.374 . S
C535 C569 1.395 . S
N536 C532 1.376 1_545 S
N536 C535 1.374 . S
N536 Co537 2.008 . S
Co537 N536 2.008 . S
Co537 N538 1.995 . S
Co537 N543 2.008 . S
Co537 N548 1.995 . S
Co537 N553 2.282 . S
Co537 N559 2.282 1_545 S
N538 Co537 1.995 . S
N538 C539 1.376 . S
N538 C542 1.383 . S
C539 N538 1.376 . S
C539 C540 1.446 . S
C539 C569 1.391 . S
C540 C539 1.446 . S
C540 C541 1.339 . S
C540 H575 0.949 . S
C541 C540 1.339 . S
C541 C542 1.439 . S
C541 H576 0.950 . S
C542 N538 1.383 . S
C542 C541 1.439 . S
C542 C571 1.392 . S
N543 Co537 2.008 . S
N543 C544 1.376 . S
N543 C547 1.374 . S
C544 N543 1.376 . S
C544 C545 1.443 . S
C544 C571 1.389 . S
C545 C544 1.443 . S
C545 C546 1.340 . S
C545 H577 0.951 . S
C546 C545 1.340 . S
C546 C547 1.439 . S
C546 H578 0.950 . S
C547 N543 1.374 . S
C547 C546 1.439 . S
C547 C572 1.395 . S
N548 Co537 1.995 . S
N548 C549 1.376 . S
N548 C552 1.383 1_545 S
C549 N548 1.376 . S
C549 C550 1.446 1_545 S
C549 C572 1.391 . S
C550 C549 1.446 1_565 S
C550 C551 1.339 . S
C550 H579 0.949 . S
C551 C550 1.339 . S
C551 C552 1.439 . S
C551 H580 0.950 . S
C552 N548 1.383 1_565 S
C552 C551 1.439 . S
C552 C570 1.392 . S
N553 Co537 2.282 . S
N553 C556 1.332 . S
N553 C558 1.332 . S
C554 C555 1.386 . S
C554 C557 1.388 . S
C555 C554 1.386 . S
C555 C556 1.382 . S
C555 H581 0.950 . S
C556 N553 1.332 . S
C556 C555 1.382 . S
C556 H567 0.952 . S
C557 C554 1.388 . S
C557 C558 1.382 . S
C557 H582 0.950 . S
C558 N553 1.332 . S
C558 C557 1.382 . S
C558 H568 0.948 . S
N559 Co537 2.282 1_565 S
N559 C563 1.332 . S
N559 C564 1.332 . S
C560 C561 1.388 . S
C560 C564 1.382 . S
C560 H583 0.950 . S
C561 C560 1.388 . S
C561 C562 1.386 . S
C562 C561 1.386 . S
C562 C563 1.382 . S
C562 H584 0.950 . S
C563 N559 1.332 . S
C563 C562 1.382 . S
C563 H565 0.952 . S
C564 N559 1.332 . S
C564 C560 1.382 . S
C564 H566 0.948 . S
H565 C563 0.952 . S
H566 C564 0.948 . S
H567 C556 0.952 . S
H568 C558 0.948 . S
C569 C535 1.395 . S
C569 C539 1.391 . S
C570 C532 1.389 . S
C570 C552 1.392 . S
C571 C542 1.392 . S
C571 C544 1.389 . S
C572 C547 1.395 . S
C572 C549 1.391 . S
H573 C533 0.951 . S
H574 C534 0.950 . S
H575 C540 0.949 . S
H576 C541 0.950 . S
H577 C545 0.951 . S
H578 C546 0.950 . S
H579 C550 0.949 . S
H580 C551 0.950 . S
H581 C555 0.950 . S
H582 C557 0.950 . S
H583 C560 0.950 . S
H584 C562 0.950 . S
C585 C586 1.443 . S
C585 N589 1.376 . S
C585 C623 1.389 . S
C586 C585 1.443 . S
C586 C587 1.340 . S
C586 H626 0.951 . S
C587 C586 1.340 . S
C587 C588 1.439 . S
C587 H627 0.950 . S
C588 C587 1.439 . S
C588 N589 1.374 . S
C588 C622 1.395 . S
N589 C585 1.376 . S
N589 C588 1.374 . S
N589 Co590 2.008 . S
Co590 N589 2.008 . S
Co590 N591 1.995 . S
Co590 N596 2.008 . S
Co590 N601 1.995 . S
Co590 N606 2.315 . S
Co590 N612 2.282 . S
N591 Co590 1.995 . S
N591 C592 1.376 . S
N591 C595 1.383 1_554 S
C592 N591 1.376 . S
C592 C593 1.446 1_554 S
C592 C622 1.391 . S
C593 C592 1.446 1_556 S
C593 C594 1.339 . S
C593 H628 0.949 . S
C594 C593 1.339 . S
C594 C595 1.439 . S
C594 H629 0.950 . S
C595 N591 1.383 1_556 S
C595 C594 1.439 . S
C595 C624 1.392 . S
N596 Co590 2.008 . S
N596 C597 1.376 1_554 S
N596 C600 1.374 . S
C597 N596 1.376 1_556 S
C597 C598 1.443 . S
C597 C624 1.389 . S
C598 C597 1.443 . S
C598 C599 1.340 . S
C598 H630 0.951 . S
C599 C598 1.340 . S
C599 C600 1.439 1_556 S
C599 H631 0.950 . S
C600 N596 1.374 . S
C600 C599 1.439 1_554 S
C600 C625 1.395 . S
N601 Co590 1.995 . S
N601 C602 1.376 . S
N601 C605 1.383 . S
C602 N601 1.376 . S
C602 C603 1.446 . S
C602 C625 1.391 . S
C603 C602 1.446 . S
C603 C604 1.339 . S
C603 H632 0.949 . S
C604 C603 1.339 . S
C604 C605 1.439 . S
C604 H633 0.950 . S
C605 N601 1.383 . S
C605 C604 1.439 . S
C605 C623 1.392 . S
N606 Co590 2.315 . S
N606 C609 1.319 1_554 S
N606 C611 1.307 1_554 S
C607 C608 1.386 . S
C607 C610 1.388 . S
C608 C607 1.386 . S
C608 C609 1.382 . S
C608 H634 0.950 . S
C609 N606 1.319 1_556 S
C609 C608 1.382 . S
C609 H620 0.952 1_556 S
C610 C607 1.388 . S
C610 C611 1.382 . S
C610 H635 0.950 . S
C611 N606 1.307 1_556 S
C611 C610 1.382 . S
C611 H621 0.948 . S
N612 Co590 2.282 . S
N612 C616 1.332 . S
N612 C617 1.332 . S
C613 C614 1.388 . S
C613 C617 1.382 . S
C613 H636 0.950 . S
C614 C613 1.388 . S
C614 C615 1.386 . S
C615 C614 1.386 . S
C615 C616 1.382 . S
C615 H637 0.950 . S
C616 N612 1.332 . S
C616 C615 1.382 . S
C616 H618 0.952 . S
C617 N612 1.332 . S
C617 C613 1.382 . S
C617 H619 0.948 . S
H618 C616 0.952 . S
H619 C617 0.948 . S
H620 C609 0.952 1_554 S
H621 C611 0.948 . S
C622 C588 1.395 . S
C622 C592 1.391 . S
C623 C585 1.389 . S
C623 C605 1.392 . S
C624 C595 1.392 . S
C624 C597 1.389 . S
C625 C600 1.395 . S
C625 C602 1.391 . S
H626 C586 0.951 . S
H627 C587 0.950 . S
H628 C593 0.949 . S
H629 C594 0.950 . S
H630 C598 0.951 . S
H631 C599 0.950 . S
H632 C603 0.949 . S
H633 C604 0.950 . S
H634 C608 0.950 . S
H635 C610 0.950 . S
H636 C613 0.950 . S
H637 C615 0.950 . S
H638 C646 0.929 . S
H639 C648 0.930 . S
H640 C650 0.930 . S
H641 C653 0.929 . S
H642 C656 0.930 . S
H643 C658 0.960 . S
H644 C658 0.960 . S
H645 C658 0.960 . S
C646 H638 0.929 . S
C646 C647 1.377 . S
C646 C648 1.384 . S
C647 C646 1.377 . S
C647 C653 1.390 . S
C648 H639 0.930 . S
C648 C646 1.384 . S
C648 C649 1.372 . S
C649 C648 1.372 . S
C649 C650 1.400 . S
C649 C654 1.490 . S
C650 H640 0.930 . S
C650 C649 1.400 . S
C650 C653 1.386 . S
H651 C667 0.930 . S
H652 C668 0.931 . S
C653 H641 0.929 . S
C653 C647 1.390 . S
C653 C650 1.386 . S
C654 C649 1.490 . S
C654 C656 1.395 . S
C654 C657 1.403 . S
H655 C661 0.930 . S
C656 H642 0.930 . S
C656 C654 1.395 . S
C656 C659 1.403 . S
C657 C654 1.403 . S
C657 C658 1.524 . S
C657 C661 1.400 . S
C658 H643 0.960 . S
C658 H644 0.960 . S
C658 H645 0.960 . S
C658 C657 1.524 . S
C659 C656 1.403 . S
C659 C660 1.392 . S
C659 C663 1.495 . S
C660 C659 1.392 . S
C660 C661 1.385 . S
C660 C662 1.478 . S
C661 H655 0.930 . S
C661 C657 1.400 . S
C661 C660 1.385 . S
C662 C660 1.478 . S
C662 C664 1.381 . S
C662 C668 1.383 . S
C663 C659 1.495 . S
C663 H669 0.959 . S
C663 H670 0.961 . S
C663 H671 0.960 . S
C664 C662 1.381 . S
C664 C665 1.394 . S
C664 H672 0.930 . S
C665 C664 1.394 . S
C665 C666 1.383 . S
C665 H673 0.929 . S
C666 C665 1.383 . S
C666 C667 1.377 . S
C667 H651 0.930 . S
C667 C666 1.377 . S
C667 C668 1.379 . S
C668 H652 0.931 . S
C668 C662 1.383 . S
C668 C667 1.379 . S
H669 C663 0.959 . S
H670 C663 0.961 . S
H671 C663 0.960 . S
H672 C664 0.930 . S
H673 C665 0.929 . S
H674 C682 0.929 . S
H675 C684 0.930 . S
H676 C686 0.930 . S
H677 C689 0.929 . S
H678 C692 0.930 . S
H679 C694 0.960 . S
H680 C694 0.960 . S
H681 C694 0.960 . S
C682 H674 0.929 . S
C682 C683 1.377 . S
C682 C684 1.384 . S
C683 C682 1.377 . S
C683 C689 1.390 . S
C684 H675 0.930 . S
C684 C682 1.384 . S
C684 C685 1.372 . S
C685 C684 1.372 . S
C685 C686 1.400 . S
C685 C690 1.490 . S
C686 H676 0.930 . S
C686 C685 1.400 . S
C686 C689 1.386 . S
H687 C703 0.930 . S
H688 C704 0.931 . S
C689 H677 0.929 . S
C689 C683 1.390 . S
C689 C686 1.386 . S
C690 C685 1.490 . S
C690 C692 1.395 . S
C690 C693 1.403 . S
H691 C697 0.930 . S
C692 H678 0.930 . S
C692 C690 1.395 . S
C692 C695 1.403 . S
C693 C690 1.403 . S
C693 C694 1.524 . S
C693 C697 1.400 . S
C694 H679 0.960 . S
C694 H680 0.960 . S
C694 H681 0.960 . S
C694 C693 1.524 . S
C695 C692 1.403 . S
C695 C696 1.392 . S
C695 C699 1.495 . S
C696 C695 1.392 . S
C696 C697 1.385 . S
C696 C698 1.478 . S
C697 H691 0.930 . S
C697 C693 1.400 . S
C697 C696 1.385 . S
C698 C696 1.478 . S
C698 C700 1.381 . S
C698 C704 1.383 . S
C699 C695 1.495 . S
C699 H705 0.959 . S
C699 H706 0.961 . S
C699 H707 0.960 . S
C700 C698 1.381 . S
C700 C701 1.394 . S
C700 H708 0.930 . S
C701 C700 1.394 . S
C701 C702 1.383 . S
C701 H709 0.929 . S
C702 C701 1.383 . S
C702 C703 1.377 . S
C703 H687 0.930 . S
C703 C702 1.377 . S
C703 C704 1.379 . S
C704 H688 0.931 . S
C704 C698 1.383 . S
C704 C703 1.379 . S
H705 C699 0.959 . S
H706 C699 0.961 . S
H707 C699 0.960 . S
H708 C700 0.930 . S
H709 C701 0.929 . S
H710 C718 0.929 . S
H711 C720 0.930 . S
H712 C722 0.930 . S
H713 C725 0.929 . S
H714 C728 0.930 . S
H715 C730 0.960 . S
H716 C730 0.960 . S
H717 C730 0.960 . S
C718 H710 0.929 . S
C718 C719 1.377 . S
C718 C720 1.384 . S
C719 C718 1.377 . S
C719 C725 1.390 . S
C720 H711 0.930 . S
C720 C718 1.384 . S
C720 C721 1.372 . S
C721 C720 1.372 . S
C721 C722 1.400 . S
C721 C726 1.490 . S
C722 H712 0.930 . S
C722 C721 1.400 . S
C722 C725 1.386 . S
H723 C739 0.930 . S
H724 C740 0.931 . S
C725 H713 0.929 . S
C725 C719 1.390 . S
C725 C722 1.386 . S
C726 C721 1.490 . S
C726 C728 1.395 . S
C726 C729 1.403 . S
H727 C733 0.930 . S
C728 H714 0.930 . S
C728 C726 1.395 . S
C728 C731 1.403 . S
C729 C726 1.403 . S
C729 C730 1.524 . S
C729 C733 1.400 . S
C730 H715 0.960 . S
C730 H716 0.960 . S
C730 H717 0.960 . S
C730 C729 1.524 . S
C731 C728 1.403 . S
C731 C732 1.392 . S
C731 C735 1.495 . S
C732 C731 1.392 . S
C732 C733 1.385 . S
C732 C734 1.478 . S
C733 H727 0.930 . S
C733 C729 1.400 . S
C733 C732 1.385 . S
C734 C732 1.478 . S
C734 C736 1.381 . S
C734 C740 1.383 . S
C735 C731 1.495 . S
C735 H741 0.959 . S
C735 H742 0.961 . S
C735 H743 0.960 . S
C736 C734 1.381 . S
C736 C737 1.394 . S
C736 H744 0.930 . S
C737 C736 1.394 . S
C737 C738 1.383 . S
C737 H745 0.929 . S
C738 C737 1.383 . S
C738 C739 1.377 . S
C739 H723 0.930 . S
C739 C738 1.377 . S
C739 C740 1.379 . S
C740 H724 0.931 . S
C740 C734 1.383 . S
C740 C739 1.379 . S
H741 C735 0.959 . S
H742 C735 0.961 . S
H743 C735 0.960 . S
H744 C736 0.930 . S
H745 C737 0.929 . S
H746 C754 0.929 . S
H747 C756 0.930 . S
H748 C758 0.930 . S
H749 C761 0.929 . S
H750 C764 0.930 . S
H751 C766 0.960 . S
H752 C766 0.960 . S
H753 C766 0.960 . S
C754 H746 0.929 . S
C754 C755 1.377 . S
C754 C756 1.384 . S
C755 C754 1.377 . S
C755 C761 1.390 . S
C756 H747 0.930 . S
C756 C754 1.384 . S
C756 C757 1.372 . S
C757 C756 1.372 . S
C757 C758 1.400 . S
C757 C762 1.490 . S
C758 H748 0.930 . S
C758 C757 1.400 . S
C758 C761 1.386 . S
H759 C775 0.930 . S
H760 C776 0.931 . S
C761 H749 0.929 . S
C761 C755 1.390 . S
C761 C758 1.386 . S
C762 C757 1.490 . S
C762 C764 1.395 . S
C762 C765 1.403 . S
H763 C769 0.930 . S
C764 H750 0.930 . S
C764 C762 1.395 . S
C764 C767 1.403 . S
C765 C762 1.403 . S
C765 C766 1.524 . S
C765 C769 1.400 . S
C766 H751 0.960 . S
C766 H752 0.960 . S
C766 H753 0.960 . S
C766 C765 1.524 . S
C767 C764 1.403 . S
C767 C768 1.392 . S
C767 C771 1.495 . S
C768 C767 1.392 . S
C768 C769 1.385 . S
C768 C770 1.478 . S
C769 H763 0.930 . S
C769 C765 1.400 . S
C769 C768 1.385 . S
C770 C768 1.478 . S
C770 C772 1.381 . S
C770 C776 1.383 . S
C771 C767 1.495 . S
C771 H777 0.959 . S
C771 H778 0.961 . S
C771 H779 0.960 . S
C772 C770 1.381 . S
C772 C773 1.394 . S
C772 H780 0.930 . S
C773 C772 1.394 . S
C773 C774 1.383 . S
C773 H781 0.929 . S
C774 C773 1.383 . S
C774 C775 1.377 . S
C775 H759 0.930 . S
C775 C774 1.377 . S
C775 C776 1.379 . S
C776 H760 0.931 . S
C776 C770 1.383 . S
C776 C775 1.379 . S
H777 C771 0.959 . S
H778 C771 0.961 . S
H779 C771 0.960 . S
H780 C772 0.930 . S
H781 C773 0.929 . S
H782 C790 0.929 . S
H783 C792 0.930 . S
H784 C794 0.930 . S
H785 C797 0.929 . S
H786 C800 0.930 . S
H787 C802 0.960 . S
H788 C802 0.960 . S
H789 C802 0.960 . S
C790 H782 0.929 . S
C790 C791 1.377 . S
C790 C792 1.384 . S
C791 C790 1.377 . S
C791 C797 1.390 . S
C792 H783 0.930 . S
C792 C790 1.384 . S
C792 C793 1.372 . S
C793 C792 1.372 . S
C793 C794 1.400 . S
C793 C798 1.490 . S
C794 H784 0.930 . S
C794 C793 1.400 . S
C794 C797 1.386 . S
H795 C811 0.930 . S
H796 C812 0.931 . S
C797 H785 0.929 . S
C797 C791 1.390 . S
C797 C794 1.386 . S
C798 C793 1.490 . S
C798 C800 1.395 . S
C798 C801 1.403 . S
H799 C805 0.930 . S
C800 H786 0.930 . S
C800 C798 1.395 . S
C800 C803 1.403 . S
C801 C798 1.403 . S
C801 C802 1.524 . S
C801 C805 1.400 . S
C802 H787 0.960 . S
C802 H788 0.960 . S
C802 H789 0.960 . S
C802 C801 1.524 . S
C803 C800 1.403 . S
C803 C804 1.392 . S
C803 C807 1.495 . S
C804 C803 1.392 . S
C804 C805 1.385 . S
C804 C806 1.478 . S
C805 H799 0.930 . S
C805 C801 1.400 . S
C805 C804 1.385 . S
C806 C804 1.478 . S
C806 C808 1.381 . S
C806 C812 1.383 . S
C807 C803 1.495 . S
C807 H813 0.959 . S
C807 H814 0.961 . S
C807 H815 0.960 . S
C808 C806 1.381 . S
C808 C809 1.394 . S
C808 H816 0.930 . S
C809 C808 1.394 . S
C809 C810 1.383 . S
C809 H817 0.929 . S
C810 C809 1.383 . S
C810 C811 1.377 . S
C811 H795 0.930 . S
C811 C810 1.377 . S
C811 C812 1.379 . S
C812 H796 0.931 . S
C812 C806 1.383 . S
C812 C811 1.379 . S
H813 C807 0.959 . S
H814 C807 0.961 . S
H815 C807 0.960 . S
H816 C808 0.930 . S
H817 C809 0.929 . S
H818 C826 0.929 . S
H819 C828 0.930 . S
H820 C830 0.930 . S
H821 C833 0.929 . S
H822 C836 0.930 . S
H823 C838 0.960 . S
H824 C838 0.960 . S
H825 C838 0.960 . S
C826 H818 0.929 . S
C826 C827 1.377 . S
C826 C828 1.384 . S
C827 C826 1.377 . S
C827 C833 1.390 . S
C828 H819 0.930 . S
C828 C826 1.384 . S
C828 C829 1.372 . S
C829 C828 1.372 . S
C829 C830 1.400 . S
C829 C834 1.490 . S
C830 H820 0.930 . S
C830 C829 1.400 . S
C830 C833 1.386 . S
H831 C847 0.930 . S
H832 C848 0.931 . S
C833 H821 0.929 . S
C833 C827 1.390 . S
C833 C830 1.386 . S
C834 C829 1.490 . S
C834 C836 1.395 . S
C834 C837 1.403 . S
H835 C841 0.930 . S
C836 H822 0.930 . S
C836 C834 1.395 . S
C836 C839 1.403 . S
C837 C834 1.403 . S
C837 C838 1.524 . S
C837 C841 1.400 . S
C838 H823 0.960 . S
C838 H824 0.960 . S
C838 H825 0.960 . S
C838 C837 1.524 . S
C839 C836 1.403 . S
C839 C840 1.392 . S
C839 C843 1.495 . S
C840 C839 1.392 . S
C840 C841 1.385 . S
C840 C842 1.478 . S
C841 H835 0.930 . S
C841 C837 1.400 . S
C841 C840 1.385 . S
C842 C840 1.478 . S
C842 C844 1.381 . S
C842 C848 1.383 . S
C843 C839 1.495 . S
C843 H849 0.959 . S
C843 H850 0.961 . S
C843 H851 0.960 . S
C844 C842 1.381 . S
C844 C845 1.394 . S
C844 H852 0.930 . S
C845 C844 1.394 . S
C845 C846 1.383 . S
C845 H853 0.929 . S
C846 C845 1.383 . S
C846 C847 1.377 . S
C847 H831 0.930 . S
C847 C846 1.377 . S
C847 C848 1.379 . S
C848 H832 0.931 . S
C848 C842 1.383 . S
C848 C847 1.379 . S
H849 C843 0.959 . S
H850 C843 0.961 . S
H851 C843 0.960 . S
H852 C844 0.930 . S
H853 C845 0.929 . S
H854 C862 0.929 . S
H855 C864 0.930 . S
H856 C866 0.930 . S
H857 C869 0.929 . S
H858 C872 0.930 . S
H859 C874 0.960 . S
H860 C874 0.960 . S
H861 C874 0.960 . S
C862 H854 0.929 . S
C862 C863 1.377 . S
C862 C864 1.384 . S
C863 C862 1.377 . S
C863 C869 1.390 . S
C864 H855 0.930 . S
C864 C862 1.384 . S
C864 C865 1.372 . S
C865 C864 1.372 . S
C865 C866 1.400 . S
C865 C870 1.490 . S
C866 H856 0.930 . S
C866 C865 1.400 . S
C866 C869 1.386 . S
H867 C883 0.930 . S
H868 C884 0.931 . S
C869 H857 0.929 . S
C869 C863 1.390 . S
C869 C866 1.386 . S
C870 C865 1.490 . S
C870 C872 1.395 . S
C870 C873 1.403 . S
H871 C877 0.930 . S
C872 H858 0.930 . S
C872 C870 1.395 . S
C872 C875 1.403 . S
C873 C870 1.403 . S
C873 C874 1.524 . S
C873 C877 1.400 . S
C874 H859 0.960 . S
C874 H860 0.960 . S
C874 H861 0.960 . S
C874 C873 1.524 . S
C875 C872 1.403 . S
C875 C876 1.392 . S
C875 C879 1.495 . S
C876 C875 1.392 . S
C876 C877 1.385 . S
C876 C878 1.478 . S
C877 H871 0.930 . S
C877 C873 1.400 . S
C877 C876 1.385 . S
C878 C876 1.478 . S
C878 C880 1.381 . S
C878 C884 1.383 . S
C879 C875 1.495 . S
C879 H885 0.959 . S
C879 H886 0.961 . S
C879 H887 0.960 . S
C880 C878 1.381 . S
C880 C881 1.394 . S
C880 H888 0.930 . S
C881 C880 1.394 . S
C881 C882 1.383 . S
C881 H889 0.929 . S
C882 C881 1.383 . S
C882 C883 1.377 . S
C883 H867 0.930 . S
C883 C882 1.377 . S
C883 C884 1.379 . S
C884 H868 0.931 . S
C884 C878 1.383 . S
C884 C883 1.379 . S
H885 C879 0.959 . S
H886 C879 0.961 . S
H887 C879 0.960 . S
H888 C880 0.930 . S
H889 C881 0.929 . S
H890 C898 0.929 . S
H891 C900 0.930 . S
H892 C902 0.930 . S
H893 C905 0.929 . S
H894 C908 0.930 . S
H895 C910 0.960 . S
H896 C910 0.960 . S
H897 C910 0.960 . S
C898 H890 0.929 . S
C898 C899 1.377 . S
C898 C900 1.384 . S
C899 C898 1.377 . S
C899 C905 1.390 . S
C900 H891 0.930 . S
C900 C898 1.384 . S
C900 C901 1.372 . S
C901 C900 1.372 . S
C901 C902 1.400 . S
C901 C906 1.490 . S
C902 H892 0.930 . S
C902 C901 1.400 . S
C902 C905 1.386 . S
H903 C919 0.930 . S
H904 C920 0.931 . S
C905 H893 0.929 . S
C905 C899 1.390 . S
C905 C902 1.386 . S
C906 C901 1.490 . S
C906 C908 1.395 . S
C906 C909 1.403 . S
H907 C913 0.930 . S
C908 H894 0.930 . S
C908 C906 1.395 . S
C908 C911 1.403 . S
C909 C906 1.403 . S
C909 C910 1.524 . S
C909 C913 1.400 . S
C910 H895 0.960 . S
C910 H896 0.960 . S
C910 H897 0.960 . S
C910 C909 1.524 . S
C911 C908 1.403 . S
C911 C912 1.392 . S
C911 C915 1.495 . S
C912 C911 1.392 . S
C912 C913 1.385 . S
C912 C914 1.478 . S
C913 H907 0.930 . S
C913 C909 1.400 . S
C913 C912 1.385 . S
C914 C912 1.478 . S
C914 C916 1.381 . S
C914 C920 1.383 . S
C915 C911 1.495 . S
C915 H921 0.959 . S
C915 H922 0.961 . S
C915 H923 0.960 . S
C916 C914 1.381 . S
C916 C917 1.394 . S
C916 H924 0.930 . S
C917 C916 1.394 . S
C917 C918 1.383 . S
C917 H925 0.929 . S
C918 C917 1.383 . S
C918 C919 1.377 . S
C919 H903 0.930 . S
C919 C918 1.377 . S
C919 C920 1.379 . S
C920 H904 0.931 . S
C920 C914 1.383 . S
C920 C919 1.379 . S
H921 C915 0.959 . S
H922 C915 0.961 . S
H923 C915 0.960 . S
H924 C916 0.930 . S
H925 C917 0.929 . S
H926 C934 0.929 . S
H927 C936 0.930 . S
H928 C938 0.930 . S
H929 C941 0.929 . S
H930 C944 0.930 . S
H931 C946 0.960 . S
H932 C946 0.960 . S
H933 C946 0.960 . S
C934 H926 0.929 . S
C934 C935 1.377 . S
C934 C936 1.384 . S
C935 C934 1.377 . S
C935 C941 1.390 . S
C936 H927 0.930 . S
C936 C934 1.384 . S
C936 C937 1.372 . S
C937 C936 1.372 . S
C937 C938 1.400 . S
C937 C942 1.490 . S
C938 H928 0.930 . S
C938 C937 1.400 . S
C938 C941 1.386 . S
H939 C955 0.930 . S
H940 C956 0.931 . S
C941 H929 0.929 . S
C941 C935 1.390 . S
C941 C938 1.386 . S
C942 C937 1.490 . S
C942 C944 1.395 . S
C942 C945 1.403 . S
H943 C949 0.930 . S
C944 H930 0.930 . S
C944 C942 1.395 . S
C944 C947 1.403 . S
C945 C942 1.403 . S
C945 C946 1.524 . S
C945 C949 1.400 . S
C946 H931 0.960 . S
C946 H932 0.960 . S
C946 H933 0.960 . S
C946 C945 1.524 . S
C947 C944 1.403 . S
C947 C948 1.392 . S
C947 C951 1.495 . S
C948 C947 1.392 . S
C948 C949 1.385 . S
C948 C950 1.478 . S
C949 H943 0.930 . S
C949 C945 1.400 . S
C949 C948 1.385 . S
C950 C948 1.478 . S
C950 C952 1.381 . S
C950 C956 1.383 . S
C951 C947 1.495 . S
C951 H957 0.959 . S
C951 H958 0.961 . S
C951 H959 0.960 . S
C952 C950 1.381 . S
C952 C953 1.394 . S
C952 H960 0.930 . S
C953 C952 1.394 . S
C953 C954 1.383 . S
C953 H961 0.929 . S
C954 C953 1.383 . S
C954 C955 1.377 . S
C955 H939 0.930 . S
C955 C954 1.377 . S
C955 C956 1.379 . S
C956 H940 0.931 . S
C956 C950 1.383 . S
C956 C955 1.379 . S
H957 C951 0.959 . S
H958 C951 0.961 . S
H959 C951 0.960 . S
H960 C952 0.930 . S
H961 C953 0.929 . S
H962 C970 0.929 . S
H963 C972 0.930 . S
H964 C974 0.930 . S
H965 C977 0.929 . S
H966 C980 0.930 . S
H967 C982 0.960 . S
H968 C982 0.960 . S
H969 C982 0.960 . S
C970 H962 0.929 . S
C970 C971 1.377 . S
C970 C972 1.384 . S
C971 C970 1.377 . S
C971 C977 1.390 . S
C972 H963 0.930 . S
C972 C970 1.384 . S
C972 C973 1.372 . S
C973 C972 1.372 . S
C973 C974 1.400 . S
C973 C978 1.490 . S
C974 H964 0.930 . S
C974 C973 1.400 . S
C974 C977 1.386 . S
H975 C991 0.930 . S
H976 C992 0.931 . S
C977 H965 0.929 . S
C977 C971 1.390 . S
C977 C974 1.386 . S
C978 C973 1.490 . S
C978 C980 1.395 . S
C978 C981 1.403 . S
H979 C985 0.930 . S
C980 H966 0.930 . S
C980 C978 1.395 . S
C980 C983 1.403 . S
C981 C978 1.403 . S
C981 C982 1.524 . S
C981 C985 1.400 . S
C982 H967 0.960 . S
C982 H968 0.960 . S
C982 H969 0.960 . S
C982 C981 1.524 . S
C983 C980 1.403 . S
C983 C984 1.392 . S
C983 C987 1.495 . S
C984 C983 1.392 . S
C984 C985 1.385 . S
C984 C986 1.478 . S
C985 H979 0.930 . S
C985 C981 1.400 . S
C985 C984 1.385 . S
C986 C984 1.478 . S
C986 C988 1.381 . S
C986 C992 1.383 . S
C987 C983 1.495 . S
C987 H993 0.959 . S
C987 H994 0.961 . S
C987 H995 0.960 . S
C988 C986 1.381 . S
C988 C989 1.394 . S
C988 H996 0.930 . S
C989 C988 1.394 . S
C989 C990 1.383 . S
C989 H997 0.929 . S
C990 C989 1.383 . S
C990 C991 1.377 . S
C991 H975 0.930 . S
C991 C990 1.377 . S
C991 C992 1.379 . S
C992 H976 0.931 . S
C992 C986 1.383 . S
C992 C991 1.379 . S
H993 C987 0.959 . S
H994 C987 0.961 . S
H995 C987 0.960 . S
H996 C988 0.930 . S
H997 C989 0.929 . S
H998 C1006 0.929 . S
H999 C1008 0.930 . S
H1000 C1010 0.930 . S
H1001 C1013 0.929 . S
H1002 C1016 0.930 . S
H1003 C1018 0.960 . S
H1004 C1018 0.960 . S
H1005 C1018 0.960 . S
C1006 H998 0.929 . S
C1006 C1007 1.377 . S
C1006 C1008 1.384 . S
C1007 C1006 1.377 . S
C1007 C1013 1.390 . S
C1008 H999 0.930 . S
C1008 C1006 1.384 . S
C1008 C1009 1.372 . S
C1009 C1008 1.372 . S
C1009 C1010 1.400 . S
C1009 C1014 1.490 . S
C1010 H1000 0.930 . S
C1010 C1009 1.400 . S
C1010 C1013 1.386 . S
H1011 C1027 0.930 . S
H1012 C1028 0.931 . S
C1013 H1001 0.929 . S
C1013 C1007 1.390 . S
C1013 C1010 1.386 . S
C1014 C1009 1.490 . S
C1014 C1016 1.395 . S
C1014 C1017 1.403 . S
H1015 C1021 0.930 . S
C1016 H1002 0.930 . S
C1016 C1014 1.395 . S
C1016 C1019 1.403 . S
C1017 C1014 1.403 . S
C1017 C1018 1.524 . S
C1017 C1021 1.400 . S
C1018 H1003 0.960 . S
C1018 H1004 0.960 . S
C1018 H1005 0.960 . S
C1018 C1017 1.524 . S
C1019 C1016 1.403 . S
C1019 C1020 1.392 . S
C1019 C1023 1.495 . S
C1020 C1019 1.392 . S
C1020 C1021 1.385 . S
C1020 C1022 1.478 . S
C1021 H1015 0.930 . S
C1021 C1017 1.400 . S
C1021 C1020 1.385 . S
C1022 C1020 1.478 . S
C1022 C1024 1.381 . S
C1022 C1028 1.383 . S
C1023 C1019 1.495 . S
C1023 H1029 0.959 . S
C1023 H1030 0.961 . S
C1023 H1031 0.960 . S
C1024 C1022 1.381 . S
C1024 C1025 1.394 . S
C1024 H1032 0.930 . S
C1025 C1024 1.394 . S
C1025 C1026 1.383 . S
C1025 H1033 0.929 . S
C1026 C1025 1.383 . S
C1026 C1027 1.377 . S
C1027 H1011 0.930 . S
C1027 C1026 1.377 . S
C1027 C1028 1.379 . S
C1028 H1012 0.931 . S
C1028 C1022 1.383 . S
C1028 C1027 1.379 . S
H1029 C1023 0.959 . S
H1030 C1023 0.961 . S
H1031 C1023 0.960 . S
H1032 C1024 0.930 . S
H1033 C1025 0.929 . S
H1034 C1042 0.929 . S
H1035 C1044 0.930 . S
H1036 C1046 0.930 . S
H1037 C1049 0.929 . S
H1038 C1052 0.930 . S
H1039 C1054 0.960 . S
H1040 C1054 0.960 . S
H1041 C1054 0.960 . S
C1042 H1034 0.929 . S
C1042 C1043 1.377 . S
C1042 C1044 1.384 . S
C1043 C1042 1.377 . S
C1043 C1049 1.390 . S
C1044 H1035 0.930 . S
C1044 C1042 1.384 . S
C1044 C1045 1.372 . S
C1045 C1044 1.372 . S
C1045 C1046 1.400 . S
C1045 C1050 1.490 . S
C1046 H1036 0.930 . S
C1046 C1045 1.400 . S
C1046 C1049 1.386 . S
H1047 C1063 0.930 . S
H1048 C1064 0.931 . S
C1049 H1037 0.929 . S
C1049 C1043 1.390 . S
C1049 C1046 1.386 . S
C1050 C1045 1.490 . S
C1050 C1052 1.395 . S
C1050 C1053 1.403 . S
H1051 C1057 0.930 . S
C1052 H1038 0.930 . S
C1052 C1050 1.395 . S
C1052 C1055 1.403 . S
C1053 C1050 1.403 . S
C1053 C1054 1.524 . S
C1053 C1057 1.400 . S
C1054 H1039 0.960 . S
C1054 H1040 0.960 . S
C1054 H1041 0.960 . S
C1054 C1053 1.524 . S
C1055 C1052 1.403 . S
C1055 C1056 1.392 . S
C1055 C1059 1.495 . S
C1056 C1055 1.392 . S
C1056 C1057 1.385 . S
C1056 C1058 1.478 . S
C1057 H1051 0.930 . S
C1057 C1053 1.400 . S
C1057 C1056 1.385 . S
C1058 C1056 1.478 . S
C1058 C1060 1.381 . S
C1058 C1064 1.383 . S
C1059 C1055 1.495 . S
C1059 H1065 0.959 . S
C1059 H1066 0.961 . S
C1059 H1067 0.960 . S
C1060 C1058 1.381 . S
C1060 C1061 1.394 . S
C1060 H1068 0.930 . S
C1061 C1060 1.394 . S
C1061 C1062 1.383 . S
C1061 H1069 0.929 . S
C1062 C1061 1.383 . S
C1062 C1063 1.377 . S
C1063 H1047 0.930 . S
C1063 C1062 1.377 . S
C1063 C1064 1.379 . S
C1064 H1048 0.931 . S
C1064 C1058 1.383 . S
C1064 C1063 1.379 . S
H1065 C1059 0.959 . S
H1066 C1059 0.961 . S
H1067 C1059 0.960 . S
H1068 C1060 0.930 . S
H1069 C1061 0.929 . S
H1070 C1078 0.929 . S
H1071 C1080 0.930 . S
H1072 C1082 0.930 . S
H1073 C1085 0.929 . S
H1074 C1088 0.930 . S
H1075 C1090 0.960 . S
H1076 C1090 0.960 . S
H1077 C1090 0.960 . S
C1078 H1070 0.929 . S
C1078 C1079 1.377 . S
C1078 C1080 1.384 . S
C1079 C1078 1.377 . S
C1079 C1085 1.390 . S
C1080 H1071 0.930 . S
C1080 C1078 1.384 . S
C1080 C1081 1.372 . S
C1081 C1080 1.372 . S
C1081 C1082 1.400 . S
C1081 C1086 1.490 . S
C1082 H1072 0.930 . S
C1082 C1081 1.400 . S
C1082 C1085 1.386 . S
H1083 C1099 0.930 . S
H1084 C1100 0.931 . S
C1085 H1073 0.929 . S
C1085 C1079 1.390 . S
C1085 C1082 1.386 . S
C1086 C1081 1.490 . S
C1086 C1088 1.395 . S
C1086 C1089 1.403 . S
H1087 C1093 0.930 . S
C1088 H1074 0.930 . S
C1088 C1086 1.395 . S
C1088 C1091 1.403 . S
C1089 C1086 1.403 . S
C1089 C1090 1.524 . S
C1089 C1093 1.400 . S
C1090 H1075 0.960 . S
C1090 H1076 0.960 . S
C1090 H1077 0.960 . S
C1090 C1089 1.524 . S
C1091 C1088 1.403 . S
C1091 C1092 1.392 . S
C1091 C1095 1.495 . S
C1092 C1091 1.392 . S
C1092 C1093 1.385 . S
C1092 C1094 1.478 . S
C1093 H1087 0.930 . S
C1093 C1089 1.400 . S
C1093 C1092 1.385 . S
C1094 C1092 1.478 . S
C1094 C1096 1.381 . S
C1094 C1100 1.383 . S
C1095 C1091 1.495 . S
C1095 H1101 0.959 . S
C1095 H1102 0.961 . S
C1095 H1103 0.960 . S
C1096 C1094 1.381 . S
C1096 C1097 1.394 . S
C1096 H1104 0.930 . S
C1097 C1096 1.394 . S
C1097 C1098 1.383 . S
C1097 H1105 0.929 . S
C1098 C1097 1.383 . S
C1098 C1099 1.377 . S
C1099 H1083 0.930 . S
C1099 C1098 1.377 . S
C1099 C1100 1.379 . S
C1100 H1084 0.931 . S
C1100 C1094 1.383 . S
C1100 C1099 1.379 . S
H1101 C1095 0.959 . S
H1102 C1095 0.961 . S
H1103 C1095 0.960 . S
H1104 C1096 0.930 . S
H1105 C1097 0.929 . S
H1106 C1114 0.929 . S
H1107 C1116 0.930 . S
H1108 C1118 0.930 . S
H1109 C1121 0.929 . S
H1110 C1124 0.930 . S
H1111 C1126 0.960 . S
H1112 C1126 0.960 . S
H1113 C1126 0.960 . S
C1114 H1106 0.929 . S
C1114 C1115 1.377 . S
C1114 C1116 1.384 . S
C1115 C1114 1.377 . S
C1115 C1121 1.390 . S
C1116 H1107 0.930 . S
C1116 C1114 1.384 . S
C1116 C1117 1.372 . S
C1117 C1116 1.372 . S
C1117 C1118 1.400 . S
C1117 C1122 1.490 . S
C1118 H1108 0.930 . S
C1118 C1117 1.400 . S
C1118 C1121 1.386 . S
H1119 C1135 0.930 . S
H1120 C1136 0.931 . S
C1121 H1109 0.929 . S
C1121 C1115 1.390 . S
C1121 C1118 1.386 . S
C1122 C1117 1.490 . S
C1122 C1124 1.395 . S
C1122 C1125 1.403 . S
H1123 C1129 0.930 . S
C1124 H1110 0.930 . S
C1124 C1122 1.395 . S
C1124 C1127 1.403 . S
C1125 C1122 1.403 . S
C1125 C1126 1.524 . S
C1125 C1129 1.400 . S
C1126 H1111 0.960 . S
C1126 H1112 0.960 . S
C1126 H1113 0.960 . S
C1126 C1125 1.524 . S
C1127 C1124 1.403 . S
C1127 C1128 1.392 . S
C1127 C1131 1.495 . S
C1128 C1127 1.392 . S
C1128 C1129 1.385 . S
C1128 C1130 1.478 . S
C1129 H1123 0.930 . S
C1129 C1125 1.400 . S
C1129 C1128 1.385 . S
C1130 C1128 1.478 . S
C1130 C1132 1.381 . S
C1130 C1136 1.383 . S
C1131 C1127 1.495 . S
C1131 H1137 0.959 . S
C1131 H1138 0.961 . S
C1131 H1139 0.960 . S
C1132 C1130 1.381 . S
C1132 C1133 1.394 . S
C1132 H1140 0.930 . S
C1133 C1132 1.394 . S
C1133 C1134 1.383 . S
C1133 H1141 0.929 . S
C1134 C1133 1.383 . S
C1134 C1135 1.377 . S
C1135 H1119 0.930 . S
C1135 C1134 1.377 . S
C1135 C1136 1.379 . S
C1136 H1120 0.931 . S
C1136 C1130 1.383 . S
C1136 C1135 1.379 . S
H1137 C1131 0.959 . S
H1138 C1131 0.961 . S
H1139 C1131 0.960 . S
H1140 C1132 0.930 . S
H1141 C1133 0.929 . S
H1142 C1150 0.929 . S
H1143 C1152 0.930 . S
H1144 C1154 0.930 . S
H1145 C1157 0.929 . S
H1146 C1160 0.930 . S
H1147 C1162 0.960 . S
H1148 C1162 0.960 . S
H1149 C1162 0.960 . S
C1150 H1142 0.929 . S
C1150 C1151 1.377 . S
C1150 C1152 1.384 . S
C1151 C1150 1.377 . S
C1151 C1157 1.390 . S
C1152 H1143 0.930 . S
C1152 C1150 1.384 . S
C1152 C1153 1.372 . S
C1153 C1152 1.372 . S
C1153 C1154 1.400 . S
C1153 C1158 1.490 . S
C1154 H1144 0.930 . S
C1154 C1153 1.400 . S
C1154 C1157 1.386 . S
H1155 C1171 0.930 . S
H1156 C1172 0.931 . S
C1157 H1145 0.929 . S
C1157 C1151 1.390 . S
C1157 C1154 1.386 . S
C1158 C1153 1.490 . S
C1158 C1160 1.395 . S
C1158 C1161 1.403 . S
H1159 C1165 0.930 . S
C1160 H1146 0.930 . S
C1160 C1158 1.395 . S
C1160 C1163 1.403 . S
C1161 C1158 1.403 . S
C1161 C1162 1.524 . S
C1161 C1165 1.400 . S
C1162 H1147 0.960 . S
C1162 H1148 0.960 . S
C1162 H1149 0.960 . S
C1162 C1161 1.524 . S
C1163 C1160 1.403 . S
C1163 C1164 1.392 . S
C1163 C1167 1.495 . S
C1164 C1163 1.392 . S
C1164 C1165 1.385 . S
C1164 C1166 1.478 . S
C1165 H1159 0.930 . S
C1165 C1161 1.400 . S
C1165 C1164 1.385 . S
C1166 C1164 1.478 . S
C1166 C1168 1.381 . S
C1166 C1172 1.383 . S
C1167 C1163 1.495 . S
C1167 H1173 0.959 . S
C1167 H1174 0.961 . S
C1167 H1175 0.960 . S
C1168 C1166 1.381 . S
C1168 C1169 1.394 . S
C1168 H1176 0.930 . S
C1169 C1168 1.394 . S
C1169 C1170 1.383 . S
C1169 H1177 0.929 . S
C1170 C1169 1.383 . S
C1170 C1171 1.377 . S
C1171 H1155 0.930 . S
C1171 C1170 1.377 . S
C1171 C1172 1.379 . S
C1172 H1156 0.931 . S
C1172 C1166 1.383 . S
C1172 C1171 1.379 . S
H1173 C1167 0.959 . S
H1174 C1167 0.961 . S
H1175 C1167 0.960 . S
H1176 C1168 0.930 . S
H1177 C1169 0.929 . S
H1178 C1186 0.929 . S
H1179 C1188 0.930 . S
H1180 C1190 0.930 . S
H1181 C1193 0.929 . S
H1182 C1196 0.930 . S
H1183 C1198 0.960 . S
H1184 C1198 0.960 . S
H1185 C1198 0.960 . S
C1186 H1178 0.929 . S
C1186 C1187 1.377 . S
C1186 C1188 1.384 . S
C1187 C1186 1.377 . S
C1187 C1193 1.390 . S
C1188 H1179 0.930 . S
C1188 C1186 1.384 . S
C1188 C1189 1.372 . S
C1189 C1188 1.372 . S
C1189 C1190 1.400 . S
C1189 C1194 1.490 . S
C1190 H1180 0.930 . S
C1190 C1189 1.400 . S
C1190 C1193 1.386 . S
H1191 C1207 0.930 . S
H1192 C1208 0.931 . S
C1193 H1181 0.929 . S
C1193 C1187 1.390 . S
C1193 C1190 1.386 . S
C1194 C1189 1.490 . S
C1194 C1196 1.395 . S
C1194 C1197 1.403 . S
H1195 C1201 0.930 . S
C1196 H1182 0.930 . S
C1196 C1194 1.395 . S
C1196 C1199 1.403 . S
C1197 C1194 1.403 . S
C1197 C1198 1.524 . S
C1197 C1201 1.400 . S
C1198 H1183 0.960 . S
C1198 H1184 0.960 . S
C1198 H1185 0.960 . S
C1198 C1197 1.524 . S
C1199 C1196 1.403 . S
C1199 C1200 1.392 . S
C1199 C1203 1.495 . S
C1200 C1199 1.392 . S
C1200 C1201 1.385 . S
C1200 C1202 1.478 . S
C1201 H1195 0.930 . S
C1201 C1197 1.400 . S
C1201 C1200 1.385 . S
C1202 C1200 1.478 . S
C1202 C1204 1.381 . S
C1202 C1208 1.383 . S
C1203 C1199 1.495 . S
C1203 H1209 0.959 . S
C1203 H1210 0.961 . S
C1203 H1211 0.960 . S
C1204 C1202 1.381 . S
C1204 C1205 1.394 . S
C1204 H1212 0.930 . S
C1205 C1204 1.394 . S
C1205 C1206 1.383 . S
C1205 H1213 0.929 . S
C1206 C1205 1.383 . S
C1206 C1207 1.377 . S
C1207 H1191 0.930 . S
C1207 C1206 1.377 . S
C1207 C1208 1.379 . S
C1208 H1192 0.931 . S
C1208 C1202 1.383 . S
C1208 C1207 1.379 . S
H1209 C1203 0.959 . S
H1210 C1203 0.961 . S
H1211 C1203 0.960 . S
H1212 C1204 0.930 . S
H1213 C1205 0.929 . S
H1214 C1222 0.929 . S
H1215 C1224 0.930 . S
H1216 C1226 0.930 . S
H1217 C1229 0.929 . S
H1218 C1232 0.930 . S
H1219 C1234 0.960 . S
H1220 C1234 0.960 . S
H1221 C1234 0.960 . S
C1222 H1214 0.929 . S
C1222 C1223 1.377 . S
C1222 C1224 1.384 . S
C1223 C1222 1.377 . S
C1223 C1229 1.390 . S
C1224 H1215 0.930 . S
C1224 C1222 1.384 . S
C1224 C1225 1.372 . S
C1225 C1224 1.372 . S
C1225 C1226 1.400 . S
C1225 C1230 1.490 . S
C1226 H1216 0.930 . S
C1226 C1225 1.400 . S
C1226 C1229 1.386 . S
H1227 C1243 0.930 . S
H1228 C1244 0.931 . S
C1229 H1217 0.929 . S
C1229 C1223 1.390 . S
C1229 C1226 1.386 . S
C1230 C1225 1.490 . S
C1230 C1232 1.395 . S
C1230 C1233 1.403 . S
H1231 C1237 0.930 . S
C1232 H1218 0.930 . S
C1232 C1230 1.395 . S
C1232 C1235 1.403 . S
C1233 C1230 1.403 . S
C1233 C1234 1.524 . S
C1233 C1237 1.400 . S
C1234 H1219 0.960 . S
C1234 H1220 0.960 . S
C1234 H1221 0.960 . S
C1234 C1233 1.524 . S
C1235 C1232 1.403 . S
C1235 C1236 1.392 . S
C1235 C1239 1.495 . S
C1236 C1235 1.392 . S
C1236 C1237 1.385 . S
C1236 C1238 1.478 . S
C1237 H1231 0.930 . S
C1237 C1233 1.400 . S
C1237 C1236 1.385 . S
C1238 C1236 1.478 . S
C1238 C1240 1.381 . S
C1238 C1244 1.383 . S
C1239 C1235 1.495 . S
C1239 H1245 0.959 . S
C1239 H1246 0.961 . S
C1239 H1247 0.960 . S
C1240 C1238 1.381 . S
C1240 C1241 1.394 . S
C1240 H1248 0.930 . S
C1241 C1240 1.394 . S
C1241 C1242 1.383 . S
C1241 H1249 0.929 . S
C1242 C1241 1.383 . S
C1242 C1243 1.377 . S
C1243 H1227 0.930 . S
C1243 C1242 1.377 . S
C1243 C1244 1.379 . S
C1244 H1228 0.931 . S
C1244 C1238 1.383 . S
C1244 C1243 1.379 . S
H1245 C1239 0.959 . S
H1246 C1239 0.961 . S
H1247 C1239 0.960 . S
H1248 C1240 0.930 . S
H1249 C1241 0.929 . S
H1250 C1258 0.929 . S
H1251 C1260 0.930 . S
H1252 C1262 0.930 . S
H1253 C1265 0.929 . S
H1254 C1268 0.930 . S
H1255 C1270 0.960 . S
H1256 C1270 0.960 . S
H1257 C1270 0.960 . S
C1258 H1250 0.929 . S
C1258 C1259 1.377 . S
C1258 C1260 1.384 . S
C1259 C1258 1.377 . S
C1259 C1265 1.390 . S
C1260 H1251 0.930 . S
C1260 C1258 1.384 . S
C1260 C1261 1.372 . S
C1261 C1260 1.372 . S
C1261 C1262 1.400 . S
C1261 C1266 1.490 . S
C1262 H1252 0.930 . S
C1262 C1261 1.400 . S
C1262 C1265 1.386 . S
H1263 C1279 0.930 . S
H1264 C1280 0.931 . S
C1265 H1253 0.929 . S
C1265 C1259 1.390 . S
C1265 C1262 1.386 . S
C1266 C1261 1.490 . S
C1266 C1268 1.395 . S
C1266 C1269 1.403 . S
H1267 C1273 0.930 . S
C1268 H1254 0.930 . S
C1268 C1266 1.395 . S
C1268 C1271 1.403 . S
C1269 C1266 1.403 . S
C1269 C1270 1.524 . S
C1269 C1273 1.400 . S
C1270 H1255 0.960 . S
C1270 H1256 0.960 . S
C1270 H1257 0.960 . S
C1270 C1269 1.524 . S
C1271 C1268 1.403 . S
C1271 C1272 1.392 . S
C1271 C1275 1.495 . S
C1272 C1271 1.392 . S
C1272 C1273 1.385 . S
C1272 C1274 1.478 . S
C1273 H1267 0.930 . S
C1273 C1269 1.400 . S
C1273 C1272 1.385 . S
C1274 C1272 1.478 . S
C1274 C1276 1.381 . S
C1274 C1280 1.383 . S
C1275 C1271 1.495 . S
C1275 H1281 0.959 . S
C1275 H1282 0.961 . S
C1275 H1283 0.960 . S
C1276 C1274 1.381 . S
C1276 C1277 1.394 . S
C1276 H1284 0.930 . S
C1277 C1276 1.394 . S
C1277 C1278 1.383 . S
C1277 H1285 0.929 . S
C1278 C1277 1.383 . S
C1278 C1279 1.377 . S
C1279 H1263 0.930 . S
C1279 C1278 1.377 . S
C1279 C1280 1.379 . S
C1280 H1264 0.931 . S
C1280 C1274 1.383 . S
C1280 C1279 1.379 . S
H1281 C1275 0.959 . S
H1282 C1275 0.961 . S
H1283 C1275 0.960 . S
H1284 C1276 0.930 . S
H1285 C1277 0.929 . S
H1286 C1294 0.929 . S
H1287 C1296 0.930 . S
H1288 C1298 0.930 . S
H1289 C1301 0.929 . S
H1290 C1304 0.930 . S
H1291 C1306 0.960 . S
H1292 C1306 0.960 . S
H1293 C1306 0.960 . S
C1294 H1286 0.929 . S
C1294 C1295 1.377 . S
C1294 C1296 1.384 . S
C1295 C1294 1.377 . S
C1295 C1301 1.390 . S
C1296 H1287 0.930 . S
C1296 C1294 1.384 . S
C1296 C1297 1.372 . S
C1297 C1296 1.372 . S
C1297 C1298 1.400 . S
C1297 C1302 1.490 . S
C1298 H1288 0.930 . S
C1298 C1297 1.400 . S
C1298 C1301 1.386 . S
H1299 C1315 0.930 . S
H1300 C1316 0.931 . S
C1301 H1289 0.929 . S
C1301 C1295 1.390 . S
C1301 C1298 1.386 . S
C1302 C1297 1.490 . S
C1302 C1304 1.395 . S
C1302 C1305 1.403 . S
H1303 C1309 0.930 . S
C1304 H1290 0.930 . S
C1304 C1302 1.395 . S
C1304 C1307 1.403 . S
C1305 C1302 1.403 . S
C1305 C1306 1.524 . S
C1305 C1309 1.400 . S
C1306 H1291 0.960 . S
C1306 H1292 0.960 . S
C1306 H1293 0.960 . S
C1306 C1305 1.524 . S
C1307 C1304 1.403 . S
C1307 C1308 1.392 . S
C1307 C1311 1.495 . S
C1308 C1307 1.392 . S
C1308 C1309 1.385 . S
C1308 C1310 1.478 . S
C1309 H1303 0.930 . S
C1309 C1305 1.400 . S
C1309 C1308 1.385 . S
C1310 C1308 1.478 . S
C1310 C1312 1.381 . S
C1310 C1316 1.383 . S
C1311 C1307 1.495 . S
C1311 H1317 0.959 . S
C1311 H1318 0.961 . S
C1311 H1319 0.960 . S
C1312 C1310 1.381 . S
C1312 C1313 1.394 . S
C1312 H1320 0.930 . S
C1313 C1312 1.394 . S
C1313 C1314 1.383 . S
C1313 H1321 0.929 . S
C1314 C1313 1.383 . S
C1314 C1315 1.377 . S
C1315 H1299 0.930 . S
C1315 C1314 1.377 . S
C1315 C1316 1.379 . S
C1316 H1300 0.931 . S
C1316 C1310 1.383 . S
C1316 C1315 1.379 . S
H1317 C1311 0.959 . S
H1318 C1311 0.961 . S
H1319 C1311 0.960 . S
H1320 C1312 0.930 . S
H1321 C1313 0.929 . S
H1322 C1330 0.929 . S
H1323 C1332 0.930 . S
H1324 C1334 0.930 . S
H1325 C1337 0.929 . S
H1326 C1340 0.930 . S
H1327 C1342 0.960 . S
H1328 C1342 0.960 . S
H1329 C1342 0.960 . S
C1330 H1322 0.929 . S
C1330 C1331 1.377 . S
C1330 C1332 1.384 . S
C1331 C1330 1.377 . S
C1331 C1337 1.390 . S
C1332 H1323 0.930 . S
C1332 C1330 1.384 . S
C1332 C1333 1.372 . S
C1333 C1332 1.372 . S
C1333 C1334 1.400 . S
C1333 C1338 1.490 . S
C1334 H1324 0.930 . S
C1334 C1333 1.400 . S
C1334 C1337 1.386 . S
H1335 C1351 0.930 . S
H1336 C1352 0.931 . S
C1337 H1325 0.929 . S
C1337 C1331 1.390 . S
C1337 C1334 1.386 . S
C1338 C1333 1.490 . S
C1338 C1340 1.395 . S
C1338 C1341 1.403 . S
H1339 C1345 0.930 . S
C1340 H1326 0.930 . S
C1340 C1338 1.395 . S
C1340 C1343 1.403 . S
C1341 C1338 1.403 . S
C1341 C1342 1.524 . S
C1341 C1345 1.400 . S
C1342 H1327 0.960 . S
C1342 H1328 0.960 . S
C1342 H1329 0.960 . S
C1342 C1341 1.524 . S
C1343 C1340 1.403 . S
C1343 C1344 1.392 . S
C1343 C1347 1.495 . S
C1344 C1343 1.392 . S
C1344 C1345 1.385 . S
C1344 C1346 1.478 . S
C1345 H1339 0.930 . S
C1345 C1341 1.400 . S
C1345 C1344 1.385 . S
C1346 C1344 1.478 . S
C1346 C1348 1.381 . S
C1346 C1352 1.383 . S
C1347 C1343 1.495 . S
C1347 H1353 0.959 . S
C1347 H1354 0.961 . S
C1347 H1355 0.960 . S
C1348 C1346 1.381 . S
C1348 C1349 1.394 . S
C1348 H1356 0.930 . S
C1349 C1348 1.394 . S
C1349 C1350 1.383 . S
C1349 H1357 0.929 . S
C1350 C1349 1.383 . S
C1350 C1351 1.377 . S
C1351 H1335 0.930 . S
C1351 C1350 1.377 . S
C1351 C1352 1.379 . S
C1352 H1336 0.931 . S
C1352 C1346 1.383 . S
C1352 C1351 1.379 . S
H1353 C1347 0.959 . S
H1354 C1347 0.961 . S
H1355 C1347 0.960 . S
H1356 C1348 0.930 . S
H1357 C1349 0.929 . S
H1358 C1366 0.929 . S
H1359 C1368 0.930 . S
H1360 C1370 0.930 . S
H1361 C1373 0.929 . S
H1362 C1376 0.930 . S
H1363 C1378 0.960 . S
H1364 C1378 0.960 . S
H1365 C1378 0.960 . S
C1366 H1358 0.929 . S
C1366 C1367 1.377 . S
C1366 C1368 1.384 . S
C1367 C1366 1.377 . S
C1367 C1373 1.390 . S
C1368 H1359 0.930 . S
C1368 C1366 1.384 . S
C1368 C1369 1.372 . S
C1369 C1368 1.372 . S
C1369 C1370 1.400 . S
C1369 C1374 1.490 . S
C1370 H1360 0.930 . S
C1370 C1369 1.400 . S
C1370 C1373 1.386 . S
H1371 C1387 0.930 . S
H1372 C1388 0.931 . S
C1373 H1361 0.929 . S
C1373 C1367 1.390 . S
C1373 C1370 1.386 . S
C1374 C1369 1.490 . S
C1374 C1376 1.395 . S
C1374 C1377 1.403 . S
H1375 C1381 0.930 . S
C1376 H1362 0.930 . S
C1376 C1374 1.395 . S
C1376 C1379 1.403 . S
C1377 C1374 1.403 . S
C1377 C1378 1.524 . S
C1377 C1381 1.400 . S
C1378 H1363 0.960 . S
C1378 H1364 0.960 . S
C1378 H1365 0.960 . S
C1378 C1377 1.524 . S
C1379 C1376 1.403 . S
C1379 C1380 1.392 . S
C1379 C1383 1.495 . S
C1380 C1379 1.392 . S
C1380 C1381 1.385 . S
C1380 C1382 1.478 . S
C1381 H1375 0.930 . S
C1381 C1377 1.400 . S
C1381 C1380 1.385 . S
C1382 C1380 1.478 . S
C1382 C1384 1.381 . S
C1382 C1388 1.383 . S
C1383 C1379 1.495 . S
C1383 H1389 0.959 . S
C1383 H1390 0.961 . S
C1383 H1391 0.960 . S
C1384 C1382 1.381 . S
C1384 C1385 1.394 . S
C1384 H1392 0.930 . S
C1385 C1384 1.394 . S
C1385 C1386 1.383 . S
C1385 H1393 0.929 . S
C1386 C1385 1.383 . S
C1386 C1387 1.377 . S
C1387 H1371 0.930 . S
C1387 C1386 1.377 . S
C1387 C1388 1.379 . S
C1388 H1372 0.931 . S
C1388 C1382 1.383 . S
C1388 C1387 1.379 . S
H1389 C1383 0.959 . S
H1390 C1383 0.961 . S
H1391 C1383 0.960 . S
H1392 C1384 0.930 . S
H1393 C1385 0.929 . S
H1394 C1402 0.929 . S
H1395 C1404 0.930 . S
H1396 C1406 0.930 . S
H1397 C1409 0.929 . S
H1398 C1412 0.930 . S
H1399 C1414 0.960 . S
H1400 C1414 0.960 . S
H1401 C1414 0.960 . S
C1402 H1394 0.929 . S
C1402 C1403 1.377 . S
C1402 C1404 1.384 . S
C1403 C1402 1.377 . S
C1403 C1409 1.390 . S
C1404 H1395 0.930 . S
C1404 C1402 1.384 . S
C1404 C1405 1.372 . S
C1405 C1404 1.372 . S
C1405 C1406 1.400 . S
C1405 C1410 1.490 . S
C1406 H1396 0.930 . S
C1406 C1405 1.400 . S
C1406 C1409 1.386 . S
H1407 C1423 0.930 . S
H1408 C1424 0.931 . S
C1409 H1397 0.929 . S
C1409 C1403 1.390 . S
C1409 C1406 1.386 . S
C1410 C1405 1.490 . S
C1410 C1412 1.395 . S
C1410 C1413 1.403 . S
H1411 C1417 0.930 . S
C1412 H1398 0.930 . S
C1412 C1410 1.395 . S
C1412 C1415 1.403 . S
C1413 C1410 1.403 . S
C1413 C1414 1.524 . S
C1413 C1417 1.400 . S
C1414 H1399 0.960 . S
C1414 H1400 0.960 . S
C1414 H1401 0.960 . S
C1414 C1413 1.524 . S
C1415 C1412 1.403 . S
C1415 C1416 1.392 . S
C1415 C1419 1.495 . S
C1416 C1415 1.392 . S
C1416 C1417 1.385 . S
C1416 C1418 1.478 . S
C1417 H1411 0.930 . S
C1417 C1413 1.400 . S
C1417 C1416 1.385 . S
C1418 C1416 1.478 . S
C1418 C1420 1.381 . S
C1418 C1424 1.383 . S
C1419 C1415 1.495 . S
C1419 H1425 0.959 . S
C1419 H1426 0.961 . S
C1419 H1427 0.960 . S
C1420 C1418 1.381 . S
C1420 C1421 1.394 . S
C1420 H1428 0.930 . S
C1421 C1420 1.394 . S
C1421 C1422 1.383 . S
C1421 H1429 0.929 . S
C1422 C1421 1.383 . S
C1422 C1423 1.377 . S
C1423 H1407 0.930 . S
C1423 C1422 1.377 . S
C1423 C1424 1.379 . S
C1424 H1408 0.931 . S
C1424 C1418 1.383 . S
C1424 C1423 1.379 . S
H1425 C1419 0.959 . S
H1426 C1419 0.961 . S
H1427 C1419 0.960 . S
H1428 C1420 0.930 . S
H1429 C1421 0.929 . S
H1430 C1438 0.929 . S
H1431 C1440 0.930 . S
H1432 C1442 0.930 . S
H1433 C1445 0.929 . S
H1434 C1448 0.930 . S
H1435 C1450 0.960 . S
H1436 C1450 0.960 . S
H1437 C1450 0.960 . S
C1438 H1430 0.929 . S
C1438 C1439 1.377 . S
C1438 C1440 1.384 . S
C1439 C1438 1.377 . S
C1439 C1445 1.390 . S
C1440 H1431 0.930 . S
C1440 C1438 1.384 . S
C1440 C1441 1.372 . S
C1441 C1440 1.372 . S
C1441 C1442 1.400 . S
C1441 C1446 1.490 . S
C1442 H1432 0.930 . S
C1442 C1441 1.400 . S
C1442 C1445 1.386 . S
H1443 C1459 0.930 . S
H1444 C1460 0.931 . S
C1445 H1433 0.929 . S
C1445 C1439 1.390 . S
C1445 C1442 1.386 . S
C1446 C1441 1.490 . S
C1446 C1448 1.395 . S
C1446 C1449 1.403 . S
H1447 C1453 0.930 . S
C1448 H1434 0.930 . S
C1448 C1446 1.395 . S
C1448 C1451 1.403 . S
C1449 C1446 1.403 . S
C1449 C1450 1.524 . S
C1449 C1453 1.400 . S
C1450 H1435 0.960 . S
C1450 H1436 0.960 . S
C1450 H1437 0.960 . S
C1450 C1449 1.524 . S
C1451 C1448 1.403 . S
C1451 C1452 1.392 . S
C1451 C1455 1.495 . S
C1452 C1451 1.392 . S
C1452 C1453 1.385 . S
C1452 C1454 1.478 . S
C1453 H1447 0.930 . S
C1453 C1449 1.400 . S
C1453 C1452 1.385 . S
C1454 C1452 1.478 . S
C1454 C1456 1.381 . S
C1454 C1460 1.383 . S
C1455 C1451 1.495 . S
C1455 H1461 0.959 . S
C1455 H1462 0.961 . S
C1455 H1463 0.960 . S
C1456 C1454 1.381 . S
C1456 C1457 1.394 . S
C1456 H1464 0.930 . S
C1457 C1456 1.394 . S
C1457 C1458 1.383 . S
C1457 H1465 0.929 . S
C1458 C1457 1.383 . S
C1458 C1459 1.377 . S
C1459 H1443 0.930 . S
C1459 C1458 1.377 . S
C1459 C1460 1.379 . S
C1460 H1444 0.931 . S
C1460 C1454 1.383 . S
C1460 C1459 1.379 . S
H1461 C1455 0.959 . S
H1462 C1455 0.961 . S
H1463 C1455 0.960 . S
H1464 C1456 0.930 . S
H1465 C1457 0.929 . S
H1466 C1474 0.929 . S
H1467 C1476 0.930 . S
H1468 C1478 0.930 . S
H1469 C1481 0.929 . S
H1470 C1484 0.930 . S
H1471 C1486 0.960 . S
H1472 C1486 0.960 . S
H1473 C1486 0.960 . S
C1474 H1466 0.929 . S
C1474 C1475 1.377 . S
C1474 C1476 1.384 . S
C1475 C1474 1.377 . S
C1475 C1481 1.390 . S
C1476 H1467 0.930 . S
C1476 C1474 1.384 . S
C1476 C1477 1.372 . S
C1477 C1476 1.372 . S
C1477 C1478 1.400 . S
C1477 C1482 1.490 . S
C1478 H1468 0.930 . S
C1478 C1477 1.400 . S
C1478 C1481 1.386 . S
H1479 C1495 0.930 . S
H1480 C1496 0.931 . S
C1481 H1469 0.929 . S
C1481 C1475 1.390 . S
C1481 C1478 1.386 . S
C1482 C1477 1.490 . S
C1482 C1484 1.395 . S
C1482 C1485 1.403 . S
H1483 C1489 0.930 . S
C1484 H1470 0.930 . S
C1484 C1482 1.395 . S
C1484 C1487 1.403 . S
C1485 C1482 1.403 . S
C1485 C1486 1.524 . S
C1485 C1489 1.400 . S
C1486 H1471 0.960 . S
C1486 H1472 0.960 . S
C1486 H1473 0.960 . S
C1486 C1485 1.524 . S
C1487 C1484 1.403 . S
C1487 C1488 1.392 . S
C1487 C1491 1.495 . S
C1488 C1487 1.392 . S
C1488 C1489 1.385 . S
C1488 C1490 1.478 . S
C1489 H1483 0.930 . S
C1489 C1485 1.400 . S
C1489 C1488 1.385 . S
C1490 C1488 1.478 . S
C1490 C1492 1.381 . S
C1490 C1496 1.383 . S
C1491 C1487 1.495 . S
C1491 H1497 0.959 . S
C1491 H1498 0.961 . S
C1491 H1499 0.960 . S
C1492 C1490 1.381 . S
C1492 C1493 1.394 . S
C1492 H1500 0.930 . S
C1493 C1492 1.394 . S
C1493 C1494 1.383 . S
C1493 H1501 0.929 . S
C1494 C1493 1.383 . S
C1494 C1495 1.377 . S
C1495 H1479 0.930 . S
C1495 C1494 1.377 . S
C1495 C1496 1.379 . S
C1496 H1480 0.931 . S
C1496 C1490 1.383 . S
C1496 C1495 1.379 . S
H1497 C1491 0.959 . S
H1498 C1491 0.961 . S
H1499 C1491 0.960 . S
H1500 C1492 0.930 . S
H1501 C1493 0.929 . S
C666 C342 1.535 . S
C647 C15 1.542 . S
C702 C411 1.525 . S
C683 C55 1.545 . S
C738 C349 1.570 . S
C719 C101 1.562 . S
C774 C412 1.590 . S
C755 C141 1.585 . S
C810 C465 1.518 . S
C791 C2 1.499 . S
C846 C501 1.519 . S
C827 C61 1.503 . S
C863 C95 1.604 . S
C882 C561 1.587 . S
C918 C624 1.510 . S
C899 C135 1.516 . S
C954 C464 1.504 . S
C935 C42 1.486 . S
C971 C82 1.512 . S
C990 C508 1.534 . S
C1026 C554 1.589 . S
C1007 C122 1.596 . S
C1062 C623 1.525 . S
C1043 C21 1.511 . S
C1079 C162 1.581 . S
C1098 C402 1.586 . S
C1134 C359 1.559 . S
C1115 C221 1.566 . S
C1151 C255 1.550 . S
C1170 C395 1.544 . S
C1187 C282 1.516 . S
C1206 C358 1.528 . S
C1242 C570 1.606 . S
C1223 C181 1.607 . S
C1278 C614 1.527 . S
C1259 C202 1.522 . S
C1314 C448 1.505 . S
C1295 C242 1.503 . S
C1331 C301 1.513 . S
C1350 C517 1.520 . S
C1386 C571 1.579 . S
C1367 C215 1.599 . S
C1422 C607 1.524 . S
C1403 C261 1.520 . S
C1458 C455 1.505 . S
C1439 C295 1.509 . S
C1475 C175 1.524 . S
C1494 C518 1.519 . S
