# Generated by pormake.
# Topology zzz, (3,6)-cn, num edge types: 1
# Building blocks:
#     Node 0, Type 0, BuildingBlock: OLANEW_clean_sbu_2, # of connection points: 3
#     Node 1, Type 0, BuildingBlock: OLANEW_clean_sbu_2, # of connection points: 3
#     Node 2, Type 0, BuildingBlock: OLANEW_clean_sbu_2, # of connection points: 3
#     Node 3, Type 0, BuildingBlock: OLANEW_clean_sbu_2, # of connection points: 3
#     Node 4, Type 0, BuildingBlock: OLANEW_clean_sbu_2, # of connection points: 3
#     Node 5, Type 0, BuildingBlock: OLANEW_clean_sbu_2, # of connection points: 3
#     Node 6, Type 0, BuildingBlock: OLANEW_clean_sbu_2, # of connection points: 3
#     Node 7, Type 0, BuildingBlock: OLANEW_clean_sbu_2, # of connection points: 3
#     Node 8, Type 1, BuildingBlock: BETFAJ_clean_sbu_0, # of connection points: 6
#     Node 9, Type 1, BuildingBlock: BETFAJ_clean_sbu_0, # of connection points: 6
#     Node 10, Type 1, BuildingBlock: BETFAJ_clean_sbu_0, # of connection points: 6
#     Node 11, Type 1, BuildingBlock: BETFAJ_clean_sbu_0, # of connection points: 6
#     Edge 12, Type (0, 1), None
#     Edge 13, Type (0, 1), None
#     Edge 14, Type (0, 1), None
#     Edge 15, Type (0, 1), None
#     Edge 16, Type (0, 1), None
#     Edge 17, Type (0, 1), None
#     Edge 18, Type (0, 1), None
#     Edge 19, Type (0, 1), None
#     Edge 20, Type (0, 1), None
#     Edge 21, Type (0, 1), None
#     Edge 22, Type (0, 1), None
#     Edge 23, Type (0, 1), None
#     Edge 24, Type (0, 1), None
#     Edge 25, Type (0, 1), None
#     Edge 26, Type (0, 1), None
#     Edge 27, Type (0, 1), None
#     Edge 28, Type (0, 1), None
#     Edge 29, Type (0, 1), None
#     Edge 30, Type (0, 1), None
#     Edge 31, Type (0, 1), None
#     Edge 32, Type (0, 1), None
#     Edge 33, Type (0, 1), None
#     Edge 34, Type (0, 1), None
#     Edge 35, Type (0, 1), None
# Relax obj value: 0.474
# Max RMSD: 0.246
# Mean RMSD: 0.169
data_MOF--net-zzz--node1-OLANEW_clean_sbu_2--node2-BETFAJ_clean_sbu_0--edge1-none
_symmetry_space_group_name_H-M    P1
_symmetry_Int_Tables_number       1
_symmetry_cell_setting            triclinic
loop_
_symmetry_equiv_pos_as_xyz
'x, y, z'
_cell_length_a     27.991013
_cell_length_b     27.952913
_cell_length_c     8.2629117
_cell_angle_alpha  88.757303
_cell_angle_beta   89.74455
_cell_angle_gamma 90.010646
loop_
_atom_site_label
_atom_site_type_symbol
_atom_site_fract_x
_atom_site_fract_y
_atom_site_fract_z
_atom_type_partial_charge
O0 O 0.6996 0.44049 0.32801 0.0
Cd1 Cd 0.64779 0.49591 0.47649 0.0
O2 O 0.71974 0.42082 0.57038 0.0
Cd3 Cd 0.7714 0.45159 0.72548 0.0
O4 O 0.82645 0.50435 0.66716 0.0
C5 C 0.85654 0.50569 0.77912 0.0
O6 O 0.84472 0.48355 0.91591 0.0
C7 C 0.72928 0.41974 0.4202 0.0
C8 C 0.58296 0.49097 0.17719 0.0
O9 O 0.59714 0.52576 0.26049 0.0
O10 O 0.59718 0.5257 0.26064 0.0
O11 O 0.03026 0.69622 0.32865 0.0
Cd12 Cd 0.98361 0.6307 0.44881 0.0
O13 O 0.0562 0.71249 0.56735 0.0
Cd14 Cd 0.05471 0.76876 0.7361 0.0
O15 O 0.00033 0.82703 0.78725 0.0
C16 C 0.98004 0.85574 0.6846 0.0
O17 O 6e-05 0.8272 0.79156 0.0
C18 C 0.05303 0.72399 0.41864 0.0
C19 C 0.97968 0.58031 0.17161 0.0
O20 O 0.94901 0.61327 0.19724 0.0
O21 O 0.00709 0.56661 0.2865 0.0
O22 O 0.79781 0.02844 0.34114 0.0
Cd23 Cd 0.86703 0.98918 0.46136 0.0
O24 O 0.77964 0.05712 0.57463 0.0
Cd25 Cd 0.72269 0.05616 0.74585 0.0
O26 O 0.6682 0.99809 0.80883 0.0
C27 C 0.64153 0.9757 0.70872 0.0
O28 O 0.66794 0.99772 0.81383 0.0
C29 C 0.7689 0.05137 0.42752 0.0
C30 C 0.91584 0.98713 0.17689 0.0
O31 O 0.88662 0.95336 0.21359 0.0
O32 O 0.92683 0.01744 0.28376 0.0
O33 O 0.44551 0.79307 0.34561 0.0
Cd34 Cd 0.49075 0.85263 0.4948 0.0
O35 O 0.41625 0.77194 0.5772 0.0
Cd36 Cd 0.45806 0.72692 0.73376 0.0
O37 O 0.51112 0.6715 0.68895 0.0
C38 C 0.50407 0.63857 0.79222 0.0
O39 O 0.47494 0.64839 0.91263 0.0
C40 C 0.42067 0.76351 0.42755 0.0
C41 C 0.48365 0.91331 0.1787 0.0
O42 O 0.51818 0.90316 0.27224 0.0
O43 O 0.51825 0.90321 0.27204 0.0
O44 O 0.29739 0.55904 0.28919 0.0
Cd45 Cd 0.3538 0.49595 0.20806 0.0
O46 O 0.26982 0.50798 0.12535 0.0
Cd47 Cd 0.22816 0.46589 0.96847 0.0
O48 O 0.17229 0.47855 0.79853 0.0
C49 C 0.13701 0.45085 0.81848 0.0
O50 O 0.12952 0.41934 0.70607 0.0
C51 C 0.26198 0.54411 0.21217 0.0
C52 C 0.40386 0.48607 0.48973 0.0
O53 O 0.38109 0.52372 0.45138 0.0
O54 O 0.40584 0.45184 0.38993 0.0
O55 O 0.96109 0.30398 0.30204 0.0
Cd56 Cd 0.01676 0.36491 0.2046 0.0
O57 O 0.004 0.27834 0.10681 0.0
Cd58 Cd 0.03899 0.23958 0.91691 0.0
O59 O 0.02321 0.17067 0.82834 0.0
C60 C 0.05426 0.13824 0.8469 0.0
O61 O 0.09994 0.14876 0.84231 0.0
C62 C 0.97155 0.26986 0.21233 0.0
C63 C 0.0183 0.40995 0.49334 0.0
O64 O 0.98121 0.39015 0.43921 0.0
O65 O 0.05615 0.41163 0.40601 0.0
O66 O 0.1947 0.95961 0.29775 0.0
Cd67 Cd 0.13061 0.01021 0.19263 0.0
O68 O 0.22073 0.00766 0.11321 0.0
Cd69 Cd 0.25883 0.04775 0.93115 0.0
O70 O 0.32414 0.03591 0.81102 0.0
C71 C 0.35735 0.06489 0.8421 0.0
O72 O 0.35408 0.10913 0.78681 0.0
C73 C 0.22991 0.97488 0.21775 0.0
C74 C 0.08513 0.00887 0.48414 0.0
O75 O 0.10558 0.97261 0.42702 0.0
O76 O 0.08357 0.0478 0.39971 0.0
O77 O 0.56301 0.20177 0.27487 0.0
Cd78 Cd 0.5052 0.14069 0.18913 0.0
O79 O 0.50555 0.2289 0.13101 0.0
Cd80 Cd 0.45865 0.27193 -0.00818 0.0
O81 O 0.45875 0.31887 0.78723 0.0
C82 C 0.43968 0.35981 0.79352 0.0
O83 O 0.41749 0.37452 0.66255 0.0
C84 C 0.54224 0.2378 0.21465 0.0
C85 C 0.49616 0.09117 0.47753 0.0
O86 O 0.53432 0.11222 0.43415 0.0
O87 O 0.46053 0.0913 0.38129 0.0
Sm88 Sm 0.04046 0.98126 0.95251 0.0
Sm89 Sm 0.9585 0.02049 0.70781 0.0
C90 C 0.06648 0.9216 0.18959 0.0
C91 C 0.06276 0.87008 0.24163 0.0
C92 C 0.01974 0.85112 0.30479 0.0
C93 C 0.01738 0.80382 0.36396 0.0
C94 C 0.05788 0.77442 0.36387 0.0
C95 C 0.10091 0.79268 0.30014 0.0
C96 C 0.10332 0.84013 0.23984 0.0
C97 C 0.06867 0.00557 0.64889 0.0
C98 C 0.97916 0.90679 0.71981 0.0
C99 C 0.93618 0.09099 0.50357 0.0
C100 C 0.9295 0.13069 0.38281 0.0
C101 C 0.96354 0.13613 0.25817 0.0
C102 C 0.974 0.18119 0.19135 0.0
C103 C 0.9502 0.22186 0.24434 0.0
C104 C 0.91105 0.2157 0.35161 0.0
C105 C 0.90069 0.17027 0.42028 0.0
C106 C 0.93103 0.99546 0.01075 0.0
C107 C 0.03775 0.08979 0.87883 0.0
O108 O 0.02779 0.94818 0.19548 0.0
O109 O 0.09501 0.93335 0.0686 0.0
O110 O 0.02949 0.98606 0.68592 0.0
O111 O 0.0987 0.00339 0.76983 0.0
O112 O 0.00936 0.91698 0.83502 0.0
O113 O 0.95601 0.94029 0.63289 0.0
O114 O 0.97855 0.07145 0.51571 0.0
O115 O 0.90236 0.06898 0.588 0.0
O116 O 0.96939 0.01689 0.97413 0.0
O117 O 0.90199 0.99235 0.88739 0.0
O118 O 0.9923 0.08123 0.85084 0.0
O119 O 0.06462 0.05848 0.95787 0.0
H120 H 0.9878 0.87289 0.30981 0.0
H121 H 0.98368 0.79007 0.41032 0.0
H122 H 0.13247 0.77029 0.29618 0.0
H123 H 0.13708 0.85361 0.19327 0.0
H124 H 0.9863 0.10646 0.22584 0.0
H125 H 0.00479 0.18466 0.1138 0.0
H126 H 0.89131 0.24644 0.39359 0.0
H127 H 0.87416 0.16738 0.51588 0.0
Sm128 Sm 0.51382 0.04144 0.94382 0.0
Sm129 Sm 0.47554 0.96162 0.70559 0.0
C130 C 0.57447 0.06291 0.17995 0.0
C131 C 0.62525 0.0595 0.23817 0.0
C132 C 0.64339 0.01681 0.308 0.0
C133 C 0.68977 0.0149 0.37191 0.0
C134 C 0.71893 0.05566 0.37131 0.0
C135 C 0.70127 0.09851 0.30309 0.0
C136 C 0.65492 0.10041 0.23739 0.0
C137 C 0.4934 0.07199 0.64027 0.0
C138 C 0.58978 0.97956 0.72733 0.0
C139 C 0.41926 0.93124 0.46701 0.0
C140 C 0.37083 0.93776 0.39046 0.0
C141 C 0.36417 0.97372 0.27022 0.0
C142 C 0.319 0.98334 0.20499 0.0
C143 C 0.27892 0.95727 0.25674 0.0
C144 C 0.28597 0.91789 0.36436 0.0
C145 C 0.33147 0.90815 0.43019 0.0
C146 C 0.49144 0.9331 0.01745 0.0
C147 C 0.40409 0.04441 0.86844 0.0
O148 O 0.54781 0.02422 0.18192 0.0
O149 O 0.56449 0.09222 0.05871 0.0
O150 O 0.51185 0.03197 0.67712 0.0
O151 O 0.49326 0.10081 0.76352 0.0
O152 O 0.57805 0.01743 0.80814 0.0
O153 O 0.55756 0.95019 0.66471 0.0
O154 O 0.44875 0.96756 0.45492 0.0
O155 O 0.42382 0.90767 0.60524 0.0
O156 O 0.47329 0.97253 0.97298 0.0
O157 O 0.49646 0.9046 0.8952 0.0
O158 O 0.41112 0.00358 0.79539 0.0
O159 O 0.4369 0.06687 0.95359 0.0
H160 H 0.62172 0.98473 0.31382 0.0
H161 H 0.70305 0.9813 0.42171 0.0
H162 H 0.72344 0.13031 0.29884 0.0
H163 H 0.64209 0.13407 0.18695 0.0
H164 H 0.39376 0.99602 0.23032 0.0
H165 H 0.31516 0.01349 0.12247 0.0
H166 H 0.25595 0.89601 0.40383 0.0
H167 H 0.33542 0.87863 0.51617 0.0
Sm168 Sm 0.45192 0.50823 0.94765 0.0
Sm169 Sm 0.53522 0.47853 0.71412 0.0
C170 C 0.4278 0.56924 0.1807 0.0
C171 C 0.42629 0.61986 0.24023 0.0
C172 C 0.46732 0.64218 0.30225 0.0
C173 C 0.46507 0.68872 0.36286 0.0
C174 C 0.42151 0.71343 0.37129 0.0
C175 C 0.38026 0.69131 0.31247 0.0
C176 C 0.38274 0.64529 0.24646 0.0
C177 C 0.42416 0.48278 0.64916 0.0
C178 C 0.50418 0.58889 0.74074 0.0
C179 C 0.57139 0.42719 0.47262 0.0
C180 C 0.569 0.37908 0.39437 0.0
C181 C 0.5349 0.37136 0.27337 0.0
C182 C 0.5297 0.3267 0.2036 0.0
C183 C 0.55725 0.28743 0.25484 0.0
C184 C 0.59512 0.29593 0.36281 0.0
C185 C 0.60113 0.34145 0.43117 0.0
C186 C 0.56207 0.49815 0.01895 0.0
C187 C 0.46225 0.39745 0.88855 0.0
O188 O 0.46897 0.54693 0.17425 0.0
O189 O 0.39867 0.55637 0.0657 0.0
O190 O 0.4616 0.50624 0.6803 0.0
O191 O 0.3959 0.47881 0.77661 0.0
O192 O 0.46324 0.56818 0.76531 0.0
O193 O 0.54224 0.5628 0.70319 0.0
O194 O 0.53336 0.45445 0.46102 0.0
O195 O 0.59333 0.43197 0.61123 0.0
O196 O 0.52479 0.47561 0.98017 0.0
O197 O 0.58971 0.50682 0.89329 0.0
O198 O 0.5054 0.40906 0.83508 0.0
O199 O 0.43439 0.42846 0.96407 0.0
H200 H 0.50146 0.62398 0.30211 0.0
H201 H 0.49763 0.70573 0.40246 0.0
H202 H 0.34634 0.70996 0.31428 0.0
H203 H 0.35043 0.62965 0.19983 0.0
H204 H 0.511 0.39976 0.23452 0.0
H205 H 0.50213 0.32329 0.11571 0.0
H206 H 0.61851 0.26696 0.40097 0.0
H207 H 0.62967 0.34662 0.51705 0.0
Sm208 Sm 0.9865 0.45269 0.95344 0.0
Sm209 Sm 0.01748 0.53812 0.71383 0.0
C210 C 0.92638 0.42619 0.19005 0.0
C211 C 0.87507 0.42431 0.24337 0.0
C212 C 0.85175 0.46558 0.29869 0.0
C213 C 0.8044 0.46352 0.35419 0.0
C214 C 0.77968 0.41998 0.36417 0.0
C215 C 0.80259 0.37841 0.31083 0.0
C216 C 0.84981 0.38059 0.25076 0.0
C217 C 0.0164 0.42775 0.65533 0.0
C218 C 0.90703 0.50367 0.73546 0.0
C219 C 0.08385 0.56687 0.5044 0.0
C220 C 0.12211 0.57717 0.38249 0.0
C221 C 0.12857 0.54506 0.25608 0.0
C222 C 0.17329 0.53908 0.18468 0.0
C223 C 0.21323 0.56374 0.24089 0.0
C224 C 0.2055 0.60147 0.3489 0.0
C225 C 0.15998 0.60836 0.41856 0.0
C226 C 0.98891 0.56433 0.00846 0.0
C227 C 0.09497 0.46838 0.90578 0.0
O228 O 0.94737 0.46814 0.18065 0.0
O229 O 0.9418 0.39661 0.08013 0.0
O230 O 0.99138 0.4641 0.68601 0.0
O231 O 0.0194 0.39847 0.78168 0.0
O232 O 0.92604 0.46283 0.77824 0.0
O233 O 0.93381 0.54013 0.67991 0.0
O234 O 0.06697 0.52321 0.51597 0.0
O235 O 0.06082 0.59834 0.59154 0.0
O236 O 0.01389 0.52766 0.97913 0.0
O237 O 0.98434 0.59294 0.88144 0.0
O238 O 0.08103 0.51273 0.87345 0.0
O239 O 0.0656 0.43707 0.97493 0.0
H240 H 0.86988 0.49981 0.29794 0.0
H241 H 0.78686 0.49621 0.38989 0.0
H242 H 0.78395 0.34443 0.3144 0.0
H243 H 0.86673 0.34798 0.21135 0.0
H244 H 0.10018 0.52082 0.22357 0.0
H245 H 0.17682 0.51119 0.09879 0.0
H246 H 0.23528 0.62249 0.39145 0.0
H247 H 0.15612 0.6339 0.5145 0.0
loop_
_geom_bond_atom_site_label_1
_geom_bond_atom_site_label_2
_geom_bond_distance
_geom_bond_site_symmetry_2
_ccdc_geom_bond_type
O0 Cd1 2.300 . S
O0 C7 1.275 . S
Cd1 O0 2.300 . S
Cd1 O9 2.381 . S
Cd1 O10 2.378 . S
O2 Cd3 2.385 . S
O2 C7 1.255 . S
Cd3 O2 2.385 . S
Cd3 O4 2.317 . S
O4 Cd3 2.317 . S
O4 C5 1.232 . S
C5 O4 1.232 . S
C5 O6 1.218 . S
O6 C5 1.218 . S
C7 O0 1.275 . S
C7 O2 1.255 . S
C8 O9 1.258 . S
C8 O10 1.256 . S
O9 Cd1 2.381 . S
O9 C8 1.258 . S
O10 Cd1 2.378 . S
O10 C8 1.256 . S
O11 Cd12 2.300 1_655 S
O11 C18 1.275 1_655 S
Cd12 O11 2.300 1_455 S
Cd12 O20 2.381 1_455 S
Cd12 O21 2.378 . S
O13 Cd14 2.385 . S
O13 C18 1.255 . S
Cd14 O13 2.385 . S
Cd14 O15 2.317 . S
O15 Cd14 2.317 . S
O15 C16 1.232 . S
C16 O15 1.232 . S
C16 O17 1.218 . S
O17 C16 1.218 . S
C18 O11 1.275 1_455 S
C18 O13 1.255 . S
C19 O20 1.258 1_455 S
C19 O21 1.256 . S
O20 Cd12 2.381 1_655 S
O20 C19 1.258 1_655 S
O21 Cd12 2.378 . S
O21 C19 1.256 . S
O22 Cd23 2.300 1_565 S
O22 C29 1.275 1_565 S
Cd23 O22 2.300 1_545 S
Cd23 O31 2.381 1_545 S
Cd23 O32 2.378 . S
O24 Cd25 2.385 . S
O24 C29 1.255 . S
Cd25 O24 2.385 . S
Cd25 O26 2.317 . S
O26 Cd25 2.317 . S
O26 C27 1.232 . S
C27 O26 1.232 . S
C27 O28 1.218 . S
O28 C27 1.218 . S
C29 O22 1.275 1_545 S
C29 O24 1.255 . S
C30 O31 1.258 1_545 S
C30 O32 1.256 . S
O31 Cd23 2.381 1_565 S
O31 C30 1.258 1_565 S
O32 Cd23 2.378 . S
O32 C30 1.256 . S
O33 Cd34 2.300 . S
O33 C40 1.275 . S
Cd34 O33 2.300 . S
Cd34 O42 2.381 . S
Cd34 O43 2.378 . S
O35 Cd36 2.385 . S
O35 C40 1.255 . S
Cd36 O35 2.385 . S
Cd36 O37 2.317 . S
O37 Cd36 2.317 . S
O37 C38 1.232 . S
C38 O37 1.232 . S
C38 O39 1.218 . S
O39 C38 1.218 . S
C40 O33 1.275 . S
C40 O35 1.255 . S
C41 O42 1.258 . S
C41 O43 1.256 . S
O42 Cd34 2.381 . S
O42 C41 1.258 . S
O43 Cd34 2.378 . S
O43 C41 1.256 . S
O44 Cd45 2.300 . S
O44 C51 1.275 . S
Cd45 O44 2.300 . S
Cd45 O53 2.381 . S
Cd45 O54 2.378 . S
O46 Cd47 2.385 1_554 S
O46 C51 1.255 . S
Cd47 O46 2.385 1_556 S
Cd47 O48 2.317 . S
O48 Cd47 2.317 . S
O48 C49 1.232 . S
C49 O48 1.232 . S
C49 O50 1.218 . S
O50 C49 1.218 . S
C51 O44 1.275 . S
C51 O46 1.255 . S
C52 O53 1.258 . S
C52 O54 1.256 . S
O53 Cd45 2.381 . S
O53 C52 1.258 . S
O54 Cd45 2.378 . S
O54 C52 1.256 . S
O55 Cd56 2.300 1_655 S
O55 C62 1.275 1_655 S
Cd56 O55 2.300 1_455 S
Cd56 O64 2.381 1_455 S
Cd56 O65 2.378 . S
O57 Cd58 2.385 1_554 S
O57 C62 1.255 . S
Cd58 O57 2.385 1_556 S
Cd58 O59 2.317 . S
O59 Cd58 2.317 . S
O59 C60 1.232 . S
C60 O59 1.232 . S
C60 O61 1.218 . S
O61 C60 1.218 . S
C62 O55 1.275 1_455 S
C62 O57 1.255 . S
C63 O64 1.258 1_455 S
C63 O65 1.256 . S
O64 Cd56 2.381 1_655 S
O64 C63 1.258 1_655 S
O65 Cd56 2.378 . S
O65 C63 1.256 . S
O66 Cd67 2.300 1_565 S
O66 C73 1.275 1_565 S
Cd67 O66 2.300 1_545 S
Cd67 O75 2.381 1_545 S
Cd67 O76 2.378 . S
O68 Cd69 2.385 1_554 S
O68 C73 1.255 . S
Cd69 O68 2.385 1_556 S
Cd69 O70 2.317 . S
O70 Cd69 2.317 . S
O70 C71 1.232 . S
C71 O70 1.232 . S
C71 O72 1.218 . S
O72 C71 1.218 . S
C73 O66 1.275 1_545 S
C73 O68 1.255 . S
C74 O75 1.258 1_545 S
C74 O76 1.256 . S
O75 Cd67 2.381 1_565 S
O75 C74 1.258 1_565 S
O76 Cd67 2.378 . S
O76 C74 1.256 . S
O77 Cd78 2.300 . S
O77 C84 1.275 . S
Cd78 O77 2.300 . S
Cd78 O86 2.381 . S
Cd78 O87 2.378 . S
O79 Cd80 2.385 1_554 S
O79 C84 1.255 . S
Cd80 O79 2.385 1_556 S
Cd80 O81 2.317 . S
O81 Cd80 2.317 . S
O81 C82 1.232 . S
C82 O81 1.232 . S
C82 O83 1.218 . S
O83 C82 1.218 . S
C84 O77 1.275 . S
C84 O79 1.255 . S
C85 O86 1.258 . S
C85 O87 1.256 . S
O86 Cd78 2.381 . S
O86 C85 1.258 . S
O87 Cd78 2.378 . S
O87 C85 1.256 . S
Sm88 C90 2.846 . S
Sm88 O108 2.543 . S
Sm88 O109 2.450 . S
Sm88 O110 2.681 1_564 S
Sm88 O111 2.464 1_554 S
Sm88 O112 2.396 1_554 S
Sm88 O116 2.386 1_454 S
Sm88 O119 2.408 1_564 S
Sm89 C99 2.846 . S
Sm89 O110 2.386 1_655 S
Sm89 O113 2.408 1_545 S
Sm89 O114 2.543 . S
Sm89 O115 2.450 . S
Sm89 O116 2.681 1_545 S
Sm89 O117 2.464 . S
Sm89 O118 2.396 . S
C90 Sm88 2.846 . S
C90 C91 1.506 . S
C90 O108 1.261 . S
C90 O109 1.242 . S
C91 C90 1.506 . S
C91 C92 1.358 . S
C91 C96 1.382 . S
C92 C91 1.358 . S
C92 C93 1.385 . S
C92 H120 0.930 1_455 S
C93 C92 1.385 . S
C93 C94 1.395 . S
C93 H121 0.929 . S
C94 C93 1.395 . S
C94 C95 1.335 . S
C95 C94 1.335 . S
C95 C96 1.398 . S
C95 H122 0.930 . S
C96 C91 1.382 . S
C96 C95 1.398 . S
C96 H123 0.929 . S
C97 O110 1.271 1_565 S
C97 O111 1.251 . S
C98 O112 1.252 1_655 S
C98 O113 1.272 . S
C99 Sm89 2.846 . S
C99 C100 1.506 . S
C99 O114 1.261 . S
C99 O115 1.242 . S
C100 C99 1.506 . S
C100 C101 1.358 . S
C100 C105 1.382 . S
C101 C100 1.358 . S
C101 C102 1.385 . S
C101 H124 0.930 1_655 S
C102 C101 1.385 . S
C102 C103 1.395 . S
C102 H125 0.929 . S
C103 C102 1.395 . S
C103 C104 1.335 . S
C104 C103 1.335 . S
C104 C105 1.398 . S
C104 H126 0.930 . S
C105 C100 1.382 . S
C105 C104 1.398 . S
C105 H127 0.929 . S
C106 O116 1.271 1_545 S
C106 O117 1.251 . S
C107 O118 1.252 1_455 S
C107 O119 1.272 . S
O108 Sm88 2.543 . S
O108 C90 1.261 . S
O109 Sm88 2.450 . S
O109 C90 1.242 . S
O110 Sm88 2.681 1_546 S
O110 Sm89 2.386 1_455 S
O110 C97 1.271 1_545 S
O111 Sm88 2.464 1_556 S
O111 C97 1.251 . S
O112 Sm88 2.396 1_556 S
O112 C98 1.252 1_455 S
O113 Sm89 2.408 1_565 S
O113 C98 1.272 . S
O114 Sm89 2.543 . S
O114 C99 1.261 . S
O115 Sm89 2.450 . S
O115 C99 1.242 . S
O116 Sm88 2.386 1_656 S
O116 Sm89 2.681 1_565 S
O116 C106 1.271 1_565 S
O117 Sm89 2.464 . S
O117 C106 1.251 . S
O118 Sm89 2.396 . S
O118 C107 1.252 1_655 S
O119 Sm88 2.408 1_546 S
O119 C107 1.272 . S
H120 C92 0.930 1_655 S
H121 C93 0.929 . S
H122 C95 0.930 . S
H123 C96 0.929 . S
H124 C101 0.930 1_455 S
H125 C102 0.929 . S
H126 C104 0.930 . S
H127 C105 0.929 . S
Sm128 C130 2.846 . S
Sm128 O148 2.543 . S
Sm128 O149 2.450 . S
Sm128 O150 2.681 1_554 S
Sm128 O151 2.464 1_554 S
Sm128 O152 2.396 1_554 S
Sm128 O156 2.386 1_544 S
Sm128 O159 2.408 1_554 S
Sm129 C139 2.846 . S
Sm129 O150 2.386 1_565 S
Sm129 O153 2.408 . S
Sm129 O154 2.543 . S
Sm129 O155 2.450 . S
Sm129 O156 2.681 . S
Sm129 O157 2.464 . S
Sm129 O158 2.396 . S
C130 Sm128 2.846 . S
C130 C131 1.506 . S
C130 O148 1.261 . S
C130 O149 1.242 . S
C131 C130 1.506 . S
C131 C132 1.358 . S
C131 C136 1.382 . S
C132 C131 1.358 . S
C132 C133 1.385 . S
C132 H160 0.930 1_545 S
C133 C132 1.385 . S
C133 C134 1.395 . S
C133 H161 0.929 . S
C134 C133 1.395 . S
C134 C135 1.335 . S
C135 C134 1.335 . S
C135 C136 1.398 . S
C135 H162 0.930 . S
C136 C131 1.382 . S
C136 C135 1.398 . S
C136 H163 0.929 . S
C137 O150 1.271 . S
C137 O151 1.251 . S
C138 O152 1.252 1_565 S
C138 O153 1.272 . S
C139 Sm129 2.846 . S
C139 C140 1.506 . S
C139 O154 1.261 . S
C139 O155 1.242 . S
C140 C139 1.506 . S
C140 C141 1.358 . S
C140 C145 1.382 . S
C141 C140 1.358 . S
C141 C142 1.385 . S
C141 H164 0.930 1_565 S
C142 C141 1.385 . S
C142 C143 1.395 . S
C142 H165 0.929 . S
C143 C142 1.395 . S
C143 C144 1.335 . S
C144 C143 1.335 . S
C144 C145 1.398 . S
C144 H166 0.930 . S
C145 C140 1.382 . S
C145 C144 1.398 . S
C145 H167 0.929 . S
C146 O156 1.271 . S
C146 O157 1.251 . S
C147 O158 1.252 1_545 S
C147 O159 1.272 . S
O148 Sm128 2.543 . S
O148 C130 1.261 . S
O149 Sm128 2.450 . S
O149 C130 1.242 . S
O150 Sm128 2.681 1_556 S
O150 Sm129 2.386 1_545 S
O150 C137 1.271 . S
O151 Sm128 2.464 1_556 S
O151 C137 1.251 . S
O152 Sm128 2.396 1_556 S
O152 C138 1.252 1_545 S
O153 Sm129 2.408 . S
O153 C138 1.272 . S
O154 Sm129 2.543 . S
O154 C139 1.261 . S
O155 Sm129 2.450 . S
O155 C139 1.242 . S
O156 Sm128 2.386 1_566 S
O156 Sm129 2.681 . S
O156 C146 1.271 . S
O157 Sm129 2.464 . S
O157 C146 1.251 . S
O158 Sm129 2.396 . S
O158 C147 1.252 1_565 S
O159 Sm128 2.408 1_556 S
O159 C147 1.272 . S
H160 C132 0.930 1_565 S
H161 C133 0.929 . S
H162 C135 0.930 . S
H163 C136 0.929 . S
H164 C141 0.930 1_545 S
H165 C142 0.929 . S
H166 C144 0.930 . S
H167 C145 0.929 . S
Sm168 C170 2.846 . S
Sm168 O188 2.543 . S
Sm168 O189 2.450 . S
Sm168 O190 2.681 1_554 S
Sm168 O191 2.464 1_554 S
Sm168 O192 2.396 1_554 S
Sm168 O196 2.386 1_554 S
Sm168 O199 2.408 1_554 S
Sm169 C179 2.846 . S
Sm169 O190 2.386 . S
Sm169 O193 2.408 . S
Sm169 O194 2.543 . S
Sm169 O195 2.450 . S
Sm169 O196 2.681 . S
Sm169 O197 2.464 . S
Sm169 O198 2.396 . S
C170 Sm168 2.846 . S
C170 C171 1.506 . S
C170 O188 1.261 . S
C170 O189 1.242 . S
C171 C170 1.506 . S
C171 C172 1.358 . S
C171 C176 1.382 . S
C172 C171 1.358 . S
C172 C173 1.385 . S
C172 H200 0.930 . S
C173 C172 1.385 . S
C173 C174 1.395 . S
C173 H201 0.929 . S
C174 C173 1.395 . S
C174 C175 1.335 . S
C175 C174 1.335 . S
C175 C176 1.398 . S
C175 H202 0.930 . S
C176 C171 1.382 . S
C176 C175 1.398 . S
C176 H203 0.929 . S
C177 O190 1.271 . S
C177 O191 1.251 . S
C178 O192 1.252 . S
C178 O193 1.272 . S
C179 Sm169 2.846 . S
C179 C180 1.506 . S
C179 O194 1.261 . S
C179 O195 1.242 . S
C180 C179 1.506 . S
C180 C181 1.358 . S
C180 C185 1.382 . S
C181 C180 1.358 . S
C181 C182 1.385 . S
C181 H204 0.930 . S
C182 C181 1.385 . S
C182 C183 1.395 . S
C182 H205 0.929 . S
C183 C182 1.395 . S
C183 C184 1.335 . S
C184 C183 1.335 . S
C184 C185 1.398 . S
C184 H206 0.930 . S
C185 C180 1.382 . S
C185 C184 1.398 . S
C185 H207 0.929 . S
C186 O196 1.271 . S
C186 O197 1.251 . S
C187 O198 1.252 . S
C187 O199 1.272 . S
O188 Sm168 2.543 . S
O188 C170 1.261 . S
O189 Sm168 2.450 . S
O189 C170 1.242 . S
O190 Sm168 2.681 1_556 S
O190 Sm169 2.386 . S
O190 C177 1.271 . S
O191 Sm168 2.464 1_556 S
O191 C177 1.251 . S
O192 Sm168 2.396 1_556 S
O192 C178 1.252 . S
O193 Sm169 2.408 . S
O193 C178 1.272 . S
O194 Sm169 2.543 . S
O194 C179 1.261 . S
O195 Sm169 2.450 . S
O195 C179 1.242 . S
O196 Sm168 2.386 1_556 S
O196 Sm169 2.681 . S
O196 C186 1.271 . S
O197 Sm169 2.464 . S
O197 C186 1.251 . S
O198 Sm169 2.396 . S
O198 C187 1.252 . S
O199 Sm168 2.408 1_556 S
O199 C187 1.272 . S
H200 C172 0.930 . S
H201 C173 0.929 . S
H202 C175 0.930 . S
H203 C176 0.929 . S
H204 C181 0.930 . S
H205 C182 0.929 . S
H206 C184 0.930 . S
H207 C185 0.929 . S
Sm208 C210 2.846 . S
Sm208 O228 2.543 . S
Sm208 O229 2.450 . S
Sm208 O230 2.681 1_654 S
Sm208 O231 2.464 1_554 S
Sm208 O232 2.396 1_554 S
Sm208 O236 2.386 1_554 S
Sm208 O239 2.408 1_654 S
Sm209 C219 2.846 . S
Sm209 O230 2.386 . S
Sm209 O233 2.408 1_455 S
Sm209 O234 2.543 . S
Sm209 O235 2.450 . S
Sm209 O236 2.681 1_455 S
Sm209 O237 2.464 . S
Sm209 O238 2.396 . S
C210 Sm208 2.846 . S
C210 C211 1.506 . S
C210 O228 1.261 . S
C210 O229 1.242 . S
C211 C210 1.506 . S
C211 C212 1.358 . S
C211 C216 1.382 . S
C212 C211 1.358 . S
C212 C213 1.385 . S
C212 H240 0.930 . S
C213 C212 1.385 . S
C213 C214 1.395 . S
C213 H241 0.929 . S
C214 C213 1.395 . S
C214 C215 1.335 . S
C215 C214 1.335 . S
C215 C216 1.398 . S
C215 H242 0.930 . S
C216 C211 1.382 . S
C216 C215 1.398 . S
C216 H243 0.929 . S
C217 O230 1.270 1_655 S
C217 O231 1.254 . S
C218 O232 1.252 . S
C218 O233 1.272 . S
C219 Sm209 2.846 . S
C219 C220 1.506 . S
C219 O234 1.261 . S
C219 O235 1.242 . S
C220 C219 1.506 . S
C220 C221 1.358 . S
C220 C225 1.382 . S
C221 C220 1.358 . S
C221 C222 1.385 . S
C221 H244 0.930 . S
C222 C221 1.385 . S
C222 C223 1.395 . S
C222 H245 0.929 . S
C223 C222 1.395 . S
C223 C224 1.335 . S
C224 C223 1.335 . S
C224 C225 1.398 . S
C224 H246 0.930 . S
C225 C220 1.382 . S
C225 C224 1.398 . S
C225 H247 0.929 . S
C226 O236 1.268 1_455 S
C226 O237 1.256 . S
C227 O238 1.252 . S
C227 O239 1.272 . S
O228 Sm208 2.543 . S
O228 C210 1.261 . S
O229 Sm208 2.450 . S
O229 C210 1.242 . S
O230 Sm208 2.681 1_456 S
O230 Sm209 2.386 . S
O230 C217 1.270 1_455 S
O231 Sm208 2.464 1_556 S
O231 C217 1.254 . S
O232 Sm208 2.396 1_556 S
O232 C218 1.252 . S
O233 Sm209 2.408 1_655 S
O233 C218 1.272 . S
O234 Sm209 2.543 . S
O234 C219 1.261 . S
O235 Sm209 2.450 . S
O235 C219 1.242 . S
O236 Sm208 2.386 1_556 S
O236 Sm209 2.681 1_655 S
O236 C226 1.268 1_655 S
O237 Sm209 2.464 . S
O237 C226 1.256 . S
O238 Sm209 2.396 . S
O238 C227 1.252 . S
O239 Sm208 2.408 1_456 S
O239 C227 1.272 . S
H240 C212 0.930 . S
H241 C213 0.929 . S
H242 C215 0.930 . S
H243 C216 0.929 . S
H244 C221 0.930 . S
H245 C222 0.929 . S
H246 C224 0.930 . S
H247 C225 0.929 . S
C74 C97 3.683 1_545 S
C137 C85 3.693 . S
C177 C52 3.709 . S
C217 C63 3.687 1_655 S
C106 C30 3.672 1_556 S
C41 C146 3.726 1_554 S
C8 C186 3.751 1_554 S
C19 C226 3.687 1_554 S
C103 C62 2.626 1_655 S
C143 C73 2.499 1_565 S
C183 C84 2.364 . S
C51 C223 2.472 . S
C18 C94 2.146 . S
C134 C29 2.021 . S
C174 C40 1.882 . S
C7 C214 1.988 . S
C60 C107 3.960 . S
C71 C147 3.899 . S
C187 C82 3.848 . S
C227 C49 3.909 . S
C16 C98 4.120 1_455 S
C138 C27 4.071 1_565 S
C178 C38 4.161 . S
C5 C218 4.207 . S
