# Generated by pormake.
# Topology ocu, (6,8)-cn, num edge types: 1
# Building blocks:
#     Node 0, Type 0, BuildingBlock: KUMBUR_clean_sbu_0, # of connection points: 6
#     Node 1, Type 0, BuildingBlock: KUMBUR_clean_sbu_0, # of connection points: 6
#     Node 2, Type 0, BuildingBlock: KUMBUR_clean_sbu_0, # of connection points: 6
#     Node 3, Type 0, BuildingBlock: KUMBUR_clean_sbu_0, # of connection points: 6
#     Node 4, Type 0, BuildingBlock: KUMBUR_clean_sbu_0, # of connection points: 6
#     Node 5, Type 0, BuildingBlock: KUMBUR_clean_sbu_0, # of connection points: 6
#     Node 6, Type 0, BuildingBlock: KUMBUR_clean_sbu_0, # of connection points: 6
#     Node 7, Type 0, BuildingBlock: KUMBUR_clean_sbu_0, # of connection points: 6
#     Node 8, Type 1, BuildingBlock: VETTIZ_charged_sbu_0, # of connection points: 8
#     Node 9, Type 1, BuildingBlock: VETTIZ_charged_sbu_0, # of connection points: 8
#     Node 10, Type 1, BuildingBlock: VETTIZ_charged_sbu_0, # of connection points: 8
#     Node 11, Type 1, BuildingBlock: VETTIZ_charged_sbu_0, # of connection points: 8
#     Node 12, Type 1, BuildingBlock: VETTIZ_charged_sbu_0, # of connection points: 8
#     Node 13, Type 1, BuildingBlock: VETTIZ_charged_sbu_0, # of connection points: 8
#     Edge 14, Type (0, 1), BuildingBlock: CIFDUS_clean_linker_0, # of connection points: 2
#     Edge 15, Type (0, 1), BuildingBlock: CIFDUS_clean_linker_0, # of connection points: 2
#     Edge 16, Type (0, 1), BuildingBlock: CIFDUS_clean_linker_0, # of connection points: 2
#     Edge 17, Type (0, 1), BuildingBlock: CIFDUS_clean_linker_0, # of connection points: 2
#     Edge 18, Type (0, 1), BuildingBlock: CIFDUS_clean_linker_0, # of connection points: 2
#     Edge 19, Type (0, 1), BuildingBlock: CIFDUS_clean_linker_0, # of connection points: 2
#     Edge 20, Type (0, 1), BuildingBlock: CIFDUS_clean_linker_0, # of connection points: 2
#     Edge 21, Type (0, 1), BuildingBlock: CIFDUS_clean_linker_0, # of connection points: 2
#     Edge 22, Type (0, 1), BuildingBlock: CIFDUS_clean_linker_0, # of connection points: 2
#     Edge 23, Type (0, 1), BuildingBlock: CIFDUS_clean_linker_0, # of connection points: 2
#     Edge 24, Type (0, 1), BuildingBlock: CIFDUS_clean_linker_0, # of connection points: 2
#     Edge 25, Type (0, 1), BuildingBlock: CIFDUS_clean_linker_0, # of connection points: 2
#     Edge 26, Type (0, 1), BuildingBlock: CIFDUS_clean_linker_0, # of connection points: 2
#     Edge 27, Type (0, 1), BuildingBlock: CIFDUS_clean_linker_0, # of connection points: 2
#     Edge 28, Type (0, 1), BuildingBlock: CIFDUS_clean_linker_0, # of connection points: 2
#     Edge 29, Type (0, 1), BuildingBlock: CIFDUS_clean_linker_0, # of connection points: 2
#     Edge 30, Type (0, 1), BuildingBlock: CIFDUS_clean_linker_0, # of connection points: 2
#     Edge 31, Type (0, 1), BuildingBlock: CIFDUS_clean_linker_0, # of connection points: 2
#     Edge 32, Type (0, 1), BuildingBlock: CIFDUS_clean_linker_0, # of connection points: 2
#     Edge 33, Type (0, 1), BuildingBlock: CIFDUS_clean_linker_0, # of connection points: 2
#     Edge 34, Type (0, 1), BuildingBlock: CIFDUS_clean_linker_0, # of connection points: 2
#     Edge 35, Type (0, 1), BuildingBlock: CIFDUS_clean_linker_0, # of connection points: 2
#     Edge 36, Type (0, 1), BuildingBlock: CIFDUS_clean_linker_0, # of connection points: 2
#     Edge 37, Type (0, 1), BuildingBlock: CIFDUS_clean_linker_0, # of connection points: 2
#     Edge 38, Type (0, 1), BuildingBlock: CIFDUS_clean_linker_0, # of connection points: 2
#     Edge 39, Type (0, 1), BuildingBlock: CIFDUS_clean_linker_0, # of connection points: 2
#     Edge 40, Type (0, 1), BuildingBlock: CIFDUS_clean_linker_0, # of connection points: 2
#     Edge 41, Type (0, 1), BuildingBlock: CIFDUS_clean_linker_0, # of connection points: 2
#     Edge 42, Type (0, 1), BuildingBlock: CIFDUS_clean_linker_0, # of connection points: 2
#     Edge 43, Type (0, 1), BuildingBlock: CIFDUS_clean_linker_0, # of connection points: 2
#     Edge 44, Type (0, 1), BuildingBlock: CIFDUS_clean_linker_0, # of connection points: 2
#     Edge 45, Type (0, 1), BuildingBlock: CIFDUS_clean_linker_0, # of connection points: 2
#     Edge 46, Type (0, 1), BuildingBlock: CIFDUS_clean_linker_0, # of connection points: 2
#     Edge 47, Type (0, 1), BuildingBlock: CIFDUS_clean_linker_0, # of connection points: 2
#     Edge 48, Type (0, 1), BuildingBlock: CIFDUS_clean_linker_0, # of connection points: 2
#     Edge 49, Type (0, 1), BuildingBlock: CIFDUS_clean_linker_0, # of connection points: 2
#     Edge 50, Type (0, 1), BuildingBlock: CIFDUS_clean_linker_0, # of connection points: 2
#     Edge 51, Type (0, 1), BuildingBlock: CIFDUS_clean_linker_0, # of connection points: 2
#     Edge 52, Type (0, 1), BuildingBlock: CIFDUS_clean_linker_0, # of connection points: 2
#     Edge 53, Type (0, 1), BuildingBlock: CIFDUS_clean_linker_0, # of connection points: 2
#     Edge 54, Type (0, 1), BuildingBlock: CIFDUS_clean_linker_0, # of connection points: 2
#     Edge 55, Type (0, 1), BuildingBlock: CIFDUS_clean_linker_0, # of connection points: 2
#     Edge 56, Type (0, 1), BuildingBlock: CIFDUS_clean_linker_0, # of connection points: 2
#     Edge 57, Type (0, 1), BuildingBlock: CIFDUS_clean_linker_0, # of connection points: 2
#     Edge 58, Type (0, 1), BuildingBlock: CIFDUS_clean_linker_0, # of connection points: 2
#     Edge 59, Type (0, 1), BuildingBlock: CIFDUS_clean_linker_0, # of connection points: 2
#     Edge 60, Type (0, 1), BuildingBlock: CIFDUS_clean_linker_0, # of connection points: 2
#     Edge 61, Type (0, 1), BuildingBlock: CIFDUS_clean_linker_0, # of connection points: 2
# Relax obj value: 0.119
# Max RMSD: 0.246
# Mean RMSD: 0.165
data_MOF--net-ocu--node1-KUMBUR_clean_sbu_0--node2-VETTIZ_charged_sbu_0--edge1-CIFDUS_clean_linker_0
_symmetry_space_group_name_H-M    P1
_symmetry_Int_Tables_number       1
_symmetry_cell_setting            triclinic
loop_
_symmetry_equiv_pos_as_xyz
'x, y, z'
_cell_length_a     34.760769
_cell_length_b     34.76919
_cell_length_c     37.351237
_cell_angle_alpha  77.776911
_cell_angle_beta   100.60835
_cell_angle_gamma 105.40929
loop_
_atom_site_label
_atom_site_type_symbol
_atom_site_fract_x
_atom_site_fract_y
_atom_site_fract_z
_atom_type_partial_charge
Tb0 Tb 0.27005 0.22353 0.2475 0.0
C1 C 0.38395 0.34372 0.33834 0.0
C2 C 0.40055 0.30144 0.39644 0.0
C3 C 0.44856 0.36365 0.37581 0.0
C4 C 0.37384 0.30918 0.36391 0.0
C5 C 0.42095 0.372 0.34436 0.0
C6 C 0.4384 0.32834 0.40179 0.0
C7 C 0.39883 0.4162 0.28981 0.0
N8 N 0.35627 0.3507 0.30856 0.0
C9 C 0.36262 0.38708 0.28499 0.0
C10 C 0.42843 0.40836 0.31928 0.0
Tb11 Tb 0.29812 0.30093 0.30258 0.0
N12 N 0.33674 0.28449 0.35793 0.0
C13 C 0.32334 0.25296 0.38502 0.0
C14 C 0.38786 0.2677 0.42311 0.0
C15 C 0.34883 0.24374 0.41761 0.0
H16 H 0.34024 0.39362 0.26195 0.0
H17 H 0.33835 0.21806 0.43842 0.0
H18 H 0.45949 0.32273 0.42643 0.0
H19 H 0.40398 0.44457 0.27066 0.0
H20 H 0.29338 0.23388 0.3814 0.0
H21 H 0.22257 0.3016 0.11182 0.0
H22 H 0.40748 0.26059 0.44843 0.0
H23 H 0.23238 0.1307 0.29146 0.0
H24 H 0.26978 0.28911 0.16831 0.0
H25 H 0.17061 0.07694 0.28483 0.0
H26 H 0.47734 0.38478 0.38077 0.0
H27 H 0.15504 0.25543 0.10371 0.0
H28 H 0.1064 0.19132 0.12754 0.0
H29 H 0.45645 0.43095 0.32294 0.0
H30 H 0.09241 0.12976 0.17451 0.0
N31 N 0.22891 0.23734 0.19328 0.0
C32 C 0.24035 0.2688 0.16549 0.0
C33 C 0.17557 0.24994 0.1288 0.0
C34 C 0.16502 0.21625 0.1562 0.0
C35 C 0.21368 0.27598 0.13322 0.0
C36 C 0.19283 0.21063 0.18836 0.0
H37 H 0.11655 0.08644 0.23291 0.0
N38 N 0.21358 0.17137 0.24415 0.0
C39 C 0.17415 0.10484 0.26498 0.0
C40 C 0.18495 0.17623 0.21463 0.0
C41 C 0.20926 0.13559 0.26864 0.0
C42 C 0.14367 0.11034 0.23569 0.0
C43 C 0.14905 0.14616 0.20975 0.0
O44 O 0.29862 0.17624 0.25058 0.0
O45 O 0.31096 0.24578 0.29441 0.0
O46 O 0.35042 0.30633 0.27537 0.0
O47 O 0.31518 0.27612 0.22556 0.0
O48 O 0.28951 0.18555 0.29982 0.0
O49 O 0.29534 0.22041 0.2013 0.0
O50 O 0.27499 0.35192 0.29946 0.0
O51 O 0.25673 0.27956 0.25496 0.0
O52 O 0.21833 0.21623 0.27547 0.0
O53 O 0.25144 0.24907 0.32452 0.0
O54 O 0.28234 0.33961 0.25005 0.0
O55 O 0.26821 0.3035 0.34596 0.0
C56 C 0.31411 0.21293 0.31656 0.0
C57 C 0.30123 0.1559 0.19479 0.0
C58 C 0.32897 0.11519 0.16455 0.0
C59 C 0.33449 0.14766 0.1836 0.0
C60 C 0.28974 0.09173 0.15635 0.0
C61 C 0.26247 0.13226 0.1859 0.0
C62 C 0.25682 0.10042 0.16674 0.0
C63 C 0.34865 0.29658 0.24264 0.0
C64 C 0.30766 0.18793 0.21711 0.0
C65 C 0.12036 0.15233 0.17862 0.0
C66 C 0.12831 0.18739 0.1519 0.0
C67 C 0.25643 0.31342 0.23293 0.0
C68 C 0.26933 0.36884 0.35591 0.0
C69 C 0.23678 0.38111 0.36381 0.0
C70 C 0.24326 0.41017 0.38693 0.0
C71 C 0.28306 0.42685 0.40172 0.0
C72 C 0.30858 0.38565 0.37127 0.0
C73 C 0.31535 0.41457 0.39397 0.0
C74 C 0.21975 0.22487 0.30852 0.0
C75 C 0.26162 0.33896 0.3312 0.0
H76 H 0.36457 0.16572 0.19053 0.0
H77 H 0.28451 0.06674 0.14159 0.0
H78 H 0.23661 0.13809 0.19405 0.0
H79 H 0.22679 0.08219 0.16012 0.0
H80 H 0.2064 0.3676 0.35229 0.0
H81 H 0.28935 0.44976 0.41901 0.0
H82 H 0.33396 0.3766 0.36567 0.0
H83 H 0.34578 0.42763 0.40554 0.0
Tb84 Tb 0.81988 0.22324 0.26898 0.0
C85 C 0.73524 0.31731 0.32837 0.0
C86 C 0.66882 0.27317 0.33036 0.0
C87 C 0.69628 0.31674 0.37639 0.0
C88 C 0.70482 0.28802 0.31429 0.0
C89 C 0.73072 0.33341 0.35859 0.0
C90 C 0.66539 0.28647 0.36236 0.0
C91 C 0.79181 0.38448 0.34829 0.0
N92 N 0.76779 0.33256 0.31025 0.0
C93 C 0.79529 0.36699 0.31894 0.0
C94 C 0.75988 0.36701 0.3688 0.0
Tb95 Tb 0.7714 0.30128 0.2625 0.0
N96 N 0.70907 0.27688 0.28283 0.0
C97 C 0.67643 0.25387 0.26412 0.0
C98 C 0.63662 0.24713 0.31271 0.0
C99 C 0.64011 0.23837 0.27891 0.0
H100 H 0.82099 0.37998 0.30412 0.0
H101 H 0.61487 0.21945 0.26425 0.0
H102 H 0.63824 0.27493 0.37542 0.0
H103 H 0.8142 0.41093 0.35549 0.0
H104 H 0.67751 0.24675 0.23783 0.0
H105 H 0.9723 0.31656 0.30802 0.0
H106 H 0.60847 0.23506 0.3241 0.0
H107 H 0.78367 0.21259 0.17899 0.0
H108 H 0.89996 0.30101 0.30276 0.0
H109 H 0.80934 0.20621 0.12541 0.0
H110 H 0.69254 0.32816 0.40005 0.0
H111 H 1.00504 0.29051 0.26814 0.0
H112 H 0.99698 0.25867 0.21249 0.0
H113 H 0.75739 0.38041 0.39171 0.0
H114 H 0.9519 0.23171 0.16012 0.0
N115 N 0.8889 0.25603 0.26815 0.0
C116 C 0.91246 0.28429 0.2889 0.0
C117 C 0.97266 0.28096 0.26772 0.0
C118 C 0.94841 0.25859 0.24156 0.0
C119 C 0.95435 0.29543 0.2904 0.0
C120 C 0.90621 0.24711 0.24214 0.0
H121 H 0.88224 0.21469 0.12646 0.0
N122 N 0.84092 0.22734 0.2122 0.0
C123 C 0.83004 0.21379 0.14973 0.0
C124 C 0.88111 0.2328 0.21257 0.0
C125 C 0.8155 0.21825 0.1807 0.0
C126 C 0.87105 0.21822 0.15052 0.0
C127 C 0.89725 0.22834 0.18195 0.0
O128 O 0.80467 0.16963 0.24765 0.0
O129 O 0.76681 0.23729 0.28145 0.0
O130 O 0.81069 0.29754 0.31686 0.0
O131 O 0.84692 0.24852 0.32018 0.0
O132 O 0.79349 0.19916 0.32108 0.0
O133 O 0.84124 0.17277 0.3003 0.0
O134 O 0.78018 0.36394 0.24445 0.0
O135 O 0.81315 0.28097 0.23822 0.0
O136 O 0.76026 0.20611 0.23633 0.0
O137 O 0.74018 0.26652 0.21724 0.0
O138 O 0.83301 0.33606 0.25348 0.0
O139 O 0.73552 0.32337 0.21429 0.0
C140 C 0.76363 0.21634 0.31376 0.0
C141 C 0.7948 0.11029 0.29097 0.0
C142 C 0.78925 0.04021 0.32167 0.0
C143 C 0.81273 0.07905 0.30959 0.0
C144 C 0.74707 0.03297 0.31394 0.0
C145 C 0.75253 0.10293 0.28424 0.0
C146 C 0.72888 0.06431 0.29532 0.0
C147 C 0.83853 0.27744 0.33389 0.0
C148 C 0.82087 0.14937 0.27685 0.0
C149 C 0.93908 0.23568 0.18305 0.0
C150 C 0.96472 0.25076 0.21294 0.0
C151 C 0.84182 0.31221 0.236 0.0
C152 C 0.77698 0.37938 0.17989 0.0
C153 C 0.75588 0.37379 0.14503 0.0
C154 C 0.77393 0.39084 0.11239 0.0
C155 C 0.81496 0.41132 0.11624 0.0
C156 C 0.81682 0.40292 0.18241 0.0
C157 C 0.83569 0.41824 0.15083 0.0
C158 C 0.73682 0.22826 0.21424 0.0
C159 C 0.75738 0.36018 0.2134 0.0
H160 H 0.84529 0.08584 0.31586 0.0
H161 H 0.72824 1.00352 0.32317 0.0
H162 H 0.7378 0.12683 0.2703 0.0
H163 H 0.69637 0.0588 0.28989 0.0
H164 H 0.72454 0.35788 0.14397 0.0
H165 H 0.83095 0.4236 0.09258 0.0
H166 H 0.83386 0.40888 0.2088 0.0
H167 H 0.86661 0.43567 0.15315 0.0
Tb168 Tb 0.75851 0.75818 0.30018 0.0
C169 C 0.86655 0.88702 0.21214 0.0
C170 C 0.82171 0.90919 0.15894 0.0
C171 C 0.87798 0.95835 0.18465 0.0
C172 C 0.83232 0.87831 0.18729 0.0
C173 C 0.89095 0.92675 0.20999 0.0
C174 C 0.84332 0.94954 0.15905 0.0
C175 C 0.94275 0.89955 0.2519 0.0
N176 N 0.87875 0.85545 0.23498 0.0
C177 C 0.91761 0.86067 0.25247 0.0
C178 C 0.92889 0.93293 0.2314 0.0
Tb179 Tb 0.833 0.79382 0.23858 0.0
N180 N 0.81329 0.83875 0.18756 0.0
C181 C 0.78765 0.8279 0.15682 0.0
C182 C 0.79204 0.89824 0.12976 0.0
C183 C 0.77603 0.85734 0.12804 0.0
H184 H 0.92856 0.83488 0.26809 0.0
H185 H 0.75466 0.84836 0.10455 0.0
H186 H 0.83502 0.97375 0.13802 0.0
H187 H 0.9728 0.90369 0.26712 0.0
H188 H 0.77541 0.79681 0.15378 0.0
H189 H 0.83724 0.68816 0.4266 0.0
H190 H 0.7831 0.92094 0.10736 0.0
H191 H 0.66188 0.72911 0.26487 0.0
H192 H 0.82413 0.74454 0.37882 0.0
H193 H 0.60895 0.66588 0.26685 0.0
H194 H 0.89585 0.98922 0.18305 0.0
H195 H 0.79431 0.61925 0.42508 0.0
H196 H 0.7323 0.57441 0.39662 0.0
H197 H 0.94858 0.96297 0.23056 0.0
H198 H 0.66958 0.56828 0.353 0.0
N199 N 0.77443 0.70862 0.34807 0.0
C200 C 0.80467 0.71507 0.37696 0.0
C201 C 0.78825 0.64405 0.40358 0.0
C202 C 0.75521 0.63812 0.37598 0.0
C203 C 0.81241 0.68291 0.40462 0.0
C204 C 0.74863 0.67151 0.34865 0.0
H205 H 0.62272 0.60253 0.30535 0.0
N206 N 0.70612 0.70181 0.30102 0.0
C207 C 0.63825 0.66597 0.28291 0.0
C208 C 0.71321 0.668 0.3243 0.0
C209 C 0.66845 0.70183 0.28189 0.0
C210 C 0.64621 0.63023 0.30453 0.0
C211 C 0.68367 0.63114 0.32633 0.0
O212 O 0.7186 0.75353 0.33806 0.0
O213 O 0.7758 0.79985 0.25 0.0
O214 O 0.84983 0.83185 0.28229 0.0
O215 O 0.81235 0.79356 0.3289 0.0
O216 O 0.71748 0.78774 0.25778 0.0
O217 O 0.7534 0.8114 0.31621 0.0
O218 O 0.8794 0.79891 0.20756 0.0
O219 O 0.81424 0.74815 0.2867 0.0
O220 O 0.7399 0.71922 0.25671 0.0
O221 O 0.77881 0.75756 0.21116 0.0
O222 O 0.8745 0.77114 0.28554 0.0
O223 O 0.83897 0.74174 0.22096 0.0
C224 C 0.74228 0.80989 0.2358 0.0
C225 C 0.73426 0.80455 0.37561 0.0
C226 C 0.7222 0.84567 0.417 0.0
C227 C 0.71638 0.83449 0.38158 0.0
C228 C 0.74623 0.82616 0.44598 0.0
C229 C 0.75785 0.78598 0.40529 0.0
C230 C 0.76391 0.79684 0.44006 0.0
C231 C 0.84117 0.82419 0.31661 0.0
C232 C 0.72755 0.79216 0.33876 0.0
C233 C 0.69164 0.59701 0.35141 0.0
C234 C 0.72737 0.6005 0.37623 0.0
C235 C 0.84906 0.7449 0.30475 0.0
C236 C 0.86827 0.75339 0.16567 0.0
C237 C 0.88047 0.71929 0.16093 0.0
C238 C 0.88395 0.714 0.12528 0.0
C239 C 0.87391 0.74242 0.09453 0.0
C240 C 0.85867 0.78137 0.13436 0.0
C241 C 0.86108 0.77563 0.09907 0.0
C242 C 0.7499 0.72648 0.22278 0.0
C243 C 0.86905 0.76133 0.2033 0.0
H244 H 0.69813 0.84898 0.35872 0.0
H245 H 0.75079 0.83285 0.47368 0.0
H246 H 0.77144 0.76284 0.4017 0.0
H247 H 0.78213 0.78212 0.46274 0.0
H248 H 0.88868 0.69786 0.18491 0.0
H249 H 0.87616 0.73895 0.06688 0.0
H250 H 0.85031 0.80827 0.13715 0.0
H251 H 0.85372 0.79747 0.07516 0.0
Tb252 Tb 0.31255 0.72248 0.2827 0.0
C253 C 0.28118 0.88055 0.23099 0.0
C254 C 0.29362 0.92563 0.27534 0.0
C255 C 0.30443 0.95308 0.21159 0.0
C256 C 0.28234 0.88628 0.26663 0.0
C257 C 0.29139 0.91401 0.20283 0.0
C258 C 0.30568 0.95898 0.2478 0.0
C259 C 0.2706 0.8683 0.15877 0.0
N260 N 0.26719 0.84244 0.22343 0.0
C261 C 0.26038 0.83614 0.1876 0.0
C262 C 0.28667 0.90738 0.16646 0.0
Tb263 Tb 0.2513 0.79208 0.27276 0.0
N264 N 0.26961 0.85341 0.29216 0.0
C265 C 0.26342 0.8582 0.32597 0.0
C266 C 0.29069 0.93034 0.31097 0.0
C267 C 0.27494 0.8965 0.33623 0.0
H268 H 0.2481 0.80633 0.18085 0.0
H269 H 0.27141 0.89993 0.36349 0.0
H270 H 0.31464 0.98948 0.25389 0.0
H271 H 0.26613 0.86287 0.13065 0.0
H272 H 0.25091 0.83218 0.34547 0.0
H273 H 0.19135 0.58807 0.29815 0.0
H274 H 0.29911 0.96005 0.31881 0.0
H275 H 0.4053 0.73753 0.32808 0.0
H276 H 0.22968 0.65148 0.26499 0.0
H277 H 0.43978 0.71249 0.38932 0.0
H278 H 0.31208 0.97889 0.19016 0.0
H279 H 0.21552 0.5627 0.36321 0.0
H280 H 0.26978 0.57 0.41794 0.0
H281 H 0.29439 0.93229 0.14406 0.0
H282 H 0.33765 0.60474 0.44334 0.0
N283 N 0.27534 0.66244 0.31073 0.0
C284 C 0.24092 0.64075 0.2932 0.0
C285 C 0.2326 0.59056 0.34873 0.0
C286 C 0.26891 0.61182 0.36588 0.0
C287 C 0.21898 0.60468 0.31196 0.0
C288 C 0.28993 0.64789 0.34573 0.0
H289 H 0.40179 0.65768 0.43258 0.0
N290 N 0.34775 0.7 0.33814 0.0
C291 C 0.40801 0.69997 0.38171 0.0
C292 C 0.32754 0.66762 0.36013 0.0
C293 C 0.38841 0.71423 0.3472 0.0
C294 C 0.38645 0.66911 0.40607 0.0
C295 C 0.346 0.65158 0.3949 0.0
O296 O 0.36532 0.72233 0.26252 0.0
O297 O 0.29734 0.77717 0.24957 0.0
O298 O 0.22429 0.75411 0.22994 0.0
O299 O 0.26989 0.71467 0.23304 0.0
O300 O 0.35669 0.77847 0.26536 0.0
O301 O 0.31191 0.67574 0.25453 0.0
O302 O 0.19986 0.81039 0.24145 0.0
O303 O 0.25619 0.73002 0.29427 0.0
O304 O 0.33432 0.75714 0.32803 0.0
O305 O 0.30712 0.81424 0.30886 0.0
O306 O 0.24694 0.76276 0.33006 0.0
O307 O 0.19758 0.77733 0.29639 0.0
C308 C 0.33243 0.79937 0.24538 0.0
C309 C 0.37392 0.65885 0.25707 0.0
C310 C 0.41477 0.62399 0.23462 0.0
C311 C 0.39012 0.6517 0.22793 0.0
C312 C 0.42293 0.6035 0.27084 0.0
C313 C 0.38163 0.63735 0.29283 0.0
C314 C 0.40621 0.61 0.29965 0.0
C315 C 0.2373 0.72754 0.21756 0.0
C316 C 0.34941 0.68902 0.24952 0.0
C317 C 0.32425 0.61721 0.41629 0.0
C318 C 0.28567 0.59736 0.40179 0.0
C319 C 0.24843 0.72699 0.32705 0.0
C320 C 0.15381 0.82187 0.27592 0.0
C321 C 0.15496 0.82969 0.3118 0.0
C322 C 0.12802 0.85041 0.31873 0.0
C323 C 0.1002 0.86348 0.28943 0.0
C324 C 0.1259 0.83559 0.24715 0.0
C325 C 0.09938 0.85632 0.25389 0.0
C326 C 0.33264 0.79404 0.33054 0.0
C327 C 0.17826 0.79624 0.26831 0.0
H328 H 0.38391 0.66796 0.20016 0.0
H329 H 0.44155 0.5818 0.27669 0.0
H330 H 0.36869 0.64154 0.31543 0.0
H331 H 0.41217 0.59363 0.32735 0.0
H332 H 0.17593 0.81892 0.33448 0.0
H333 H 0.07948 0.87987 0.29391 0.0
H334 H 0.12412 0.8296 0.2195 0.0
H335 H 0.0779 0.86666 0.23149 0.0
Tb336 Tb 0.3096 0.74649 0.76165 0.0
C337 C 0.16662 0.82126 0.76038 0.0
C338 C 0.1471 0.8544 0.69839 0.0
C339 C 0.09875 0.83178 0.74234 0.0
C340 C 0.17632 0.84028 0.72579 0.0
C341 C 0.12771 0.81678 0.76914 0.0
C342 C 0.1084 0.85045 0.70697 0.0
C343 C 0.14928 0.78401 0.83045 0.0
N344 N 0.19536 0.80694 0.78536 0.0
C345 C 0.18748 0.78958 0.82047 0.0
C346 C 0.11916 0.79755 0.80462 0.0
Tb347 Tb 0.25836 0.82204 0.76792 0.0
N348 N 0.21401 0.84329 0.71861 0.0
C349 C 0.22362 0.8583 0.68359 0.0
C350 C 0.15741 0.87126 0.66302 0.0
C351 C 0.1957 0.87283 0.65551 0.0
H352 H 0.21108 0.78121 0.84138 0.0
H353 H 0.20364 0.88492 0.62796 0.0
H354 H 0.08564 0.86141 0.68639 0.0
H355 H 0.14334 0.76992 0.85826 0.0
H356 H 0.25243 0.85858 0.67663 0.0
H357 H 0.3743 0.6772 0.89491 0.0
H358 H 0.13577 0.8822 0.64112 0.0
H359 H 0.34817 0.78635 0.68328 0.0
H360 H 0.32236 0.70483 0.85128 0.0
H361 H 0.41294 0.79784 0.66009 0.0
H362 H 0.06877 0.82884 0.7486 0.0
H363 H 0.44063 0.68357 0.87617 0.0
H364 H 0.48676 0.70888 0.82737 0.0
H365 H 0.08966 0.7935 0.81248 0.0
H366 H 0.49773 0.74299 0.76398 0.0
N367 N 0.3578 0.72546 0.80687 0.0
C368 C 0.35061 0.70718 0.84203 0.0
C369 C 0.41772 0.69553 0.85659 0.0
C370 C 0.42527 0.715 0.82092 0.0
C371 C 0.38028 0.69178 0.86722 0.0
C372 C 0.39431 0.7297 0.79642 0.0
H373 H 0.47067 0.77685 0.70163 0.0
N374 N 0.36971 0.7624 0.73841 0.0
C375 C 0.41006 0.78445 0.68868 0.0
C376 C 0.40057 0.74919 0.76105 0.0
C377 C 0.37358 0.77853 0.70215 0.0
C378 C 0.44251 0.77251 0.71218 0.0
C379 C 0.43786 0.75406 0.74872 0.0
O380 O 0.28592 0.68427 0.76244 0.0
O381 O 0.26444 0.76079 0.7863 0.0
O382 O 0.30024 0.80627 0.81778 0.0
O383 O 0.35078 0.7874 0.79799 0.0
O384 O 0.27056 0.70338 0.80062 0.0
O385 O 0.30436 0.7235 0.71265 0.0
O386 O 0.27673 0.88409 0.76991 0.0
O387 O 0.30426 0.80803 0.74418 0.0
O388 O 0.26789 0.76413 0.71224 0.0
O389 O 0.21705 0.77711 0.73603 0.0
O390 O 0.29946 0.86578 0.7306 0.0
O391 O 0.26232 0.84048 0.81898 0.0
C392 C 0.24973 0.72682 0.80543 0.0
C393 C 0.32211 0.66094 0.72726 0.0
C394 C 0.37054 0.62161 0.75915 0.0
C395 C 0.34097 0.64174 0.75985 0.0
C396 C 0.3816 0.62054 0.72519 0.0
C397 C 0.33268 0.6592 0.69323 0.0
C398 C 0.3623 0.63896 0.69227 0.0
C399 C 0.33885 0.80658 0.81972 0.0
C400 C 0.29513 0.68629 0.72962 0.0
C401 C 0.46891 0.73959 0.77295 0.0
C402 C 0.46263 0.7201 0.809 0.0
C403 C 0.32 0.84201 0.7258 0.0
C404 C 0.24655 0.90349 0.81298 0.0
C405 C 0.22073 0.92057 0.78482 0.0
C406 C 0.19904 0.94624 0.7916 0.0
C407 C 0.20154 0.95345 0.82753 0.0
C408 C 0.24962 0.91107 0.84898 0.0
C409 C 0.2269 0.93575 0.85623 0.0
C410 C 0.22891 0.76057 0.71223 0.0
C411 C 0.27067 0.87863 0.80436 0.0
H412 H 0.33392 0.64375 0.78639 0.0
H413 H 0.4048 0.60542 0.72417 0.0
H414 H 0.31883 0.67427 0.66762 0.0
H415 H 0.37071 0.63807 0.66602 0.0
H416 H 0.21776 0.9144 0.75703 0.0
H417 H 0.18453 0.97295 0.83318 0.0
H418 H 0.26956 0.89807 0.8713 0.0
H419 H 0.22928 0.94148 0.88402 0.0
Tb420 Tb 0.23409 0.23281 0.80277 0.0
C421 C 0.35621 0.35432 0.71103 0.0
C422 C 0.31891 0.38409 0.65584 0.0
C423 C 0.38325 0.42319 0.68153 0.0
C424 C 0.32258 0.35157 0.68502 0.0
C425 C 0.38728 0.38992 0.70959 0.0
C426 C 0.3491 0.42026 0.65462 0.0
C427 C 0.42453 0.35608 0.76239 0.0
N428 N 0.35875 0.32141 0.73743 0.0
C429 C 0.39292 0.32137 0.76244 0.0
C430 C 0.42159 0.39065 0.73602 0.0
Tb431 Tb 0.30497 0.26621 0.73648 0.0
N432 N 0.29451 0.31601 0.6872 0.0
C433 C 0.26362 0.30973 0.65902 0.0
C434 C 0.28573 0.37873 0.62825 0.0
C435 C 0.2583 0.34111 0.62954 0.0
H436 H 0.39531 0.29504 0.78326 0.0
H437 H 0.2331 0.3362 0.60785 0.0
H438 H 0.34673 0.44576 0.63261 0.0
H439 H 0.45108 0.35617 0.78276 0.0
H440 H 0.24254 0.28064 0.65933 0.0
H441 H 0.31377 0.17358 0.93266 0.0
H442 H 0.28169 0.40294 0.60535 0.0
H443 H 0.1372 0.19795 0.76741 0.0
H444 H 0.29803 0.22652 0.88143 0.0
H445 H 0.08704 0.13317 0.77214 0.0
H446 H 0.40665 0.45097 0.67999 0.0
H447 H 0.27426 0.10282 0.93431 0.0
H448 H 0.21419 0.05384 0.90765 0.0
H449 H 0.44613 0.41745 0.73598 0.0
H450 H 0.15169 0.04291 0.86389 0.0
N451 N 0.25096 0.18648 0.85278 0.0
C452 C 0.2803 0.19608 0.88147 0.0
C453 C 0.26717 0.12606 0.91155 0.0
C454 C 0.23453 0.11714 0.88408 0.0
C455 C 0.28939 0.16598 0.91081 0.0
C456 C 0.22665 0.14859 0.85508 0.0
H457 H 0.1033 0.07272 0.8142 0.0
N458 N 0.18303 0.17479 0.80562 0.0
C459 C 0.1164 0.1353 0.78856 0.0
C460 C 0.19129 0.14255 0.8308 0.0
C461 C 0.1452 0.17219 0.78599 0.0
C462 C 0.12573 0.1012 0.81223 0.0
C463 C 0.16319 0.10476 0.83438 0.0
O464 O 0.20677 0.23149 0.84929 0.0
O465 O 0.24828 0.27129 0.75041 0.0
O466 O 0.31412 0.31306 0.7705 0.0
O467 O 0.29243 0.27107 0.82368 0.0
O468 O 0.18979 0.25616 0.75908 0.0
O469 O 0.21865 0.28544 0.80952 0.0
O470 O 0.35213 0.24328 0.72742 0.0
O471 O 0.29053 0.22815 0.78942 0.0
O472 O 0.21891 0.18782 0.765 0.0
O473 O 0.24957 0.22647 0.71441 0.0
O474 O 0.34437 0.23138 0.77602 0.0
O475 O 0.29737 0.23996 0.6891 0.0
C476 C 0.21332 0.27742 0.73555 0.0
C477 C 0.21696 0.2939 0.87006 0.0
C478 C 0.20302 0.34101 0.90373 0.0
C479 C 0.19074 0.31567 0.8767 0.0
C480 C 0.24171 0.34385 0.92409 0.0
C481 C 0.25508 0.29704 0.89109 0.0
C482 C 0.2674 0.32193 0.91784 0.0
C483 C 0.31342 0.30577 0.80666 0.0
C484 C 0.20469 0.26912 0.84044 0.0
C485 C 0.17259 0.07235 0.86113 0.0
C486 C 0.20822 0.07855 0.88599 0.0
C487 C 0.32164 0.21327 0.80081 0.0
C488 C 0.35619 0.23904 0.66583 0.0
C489 C 0.3759 0.20946 0.66297 0.0
C490 C 0.39648 0.21402 0.6326 0.0
C491 C 0.39742 0.24894 0.60536 0.0
C492 C 0.3579 0.27381 0.63856 0.0
C493 C 0.37848 0.27866 0.60851 0.0
C494 C 0.22522 0.19356 0.73 0.0
C495 C 0.33279 0.23188 0.6967 0.0
H496 H 0.16122 0.31344 0.86047 0.0
H497 H 0.25192 0.3626 0.94534 0.0
H498 H 0.27533 0.28032 0.8868 0.0
H499 H 0.29699 0.32421 0.93385 0.0
H500 H 0.3744 0.18245 0.68394 0.0
H501 H 0.41324 0.25348 0.58182 0.0
H502 H 0.34307 0.29695 0.64031 0.0
H503 H 0.37961 0.3055 0.58746 0.0
Tb504 Tb 0.82736 0.23218 0.78745 0.0
C505 C 0.72432 0.34154 0.68704 0.0
C506 C 0.77325 0.40274 0.66737 0.0
C507 C 0.71017 0.38345 0.62758 0.0
C508 C 0.76147 0.36736 0.69324 0.0
C509 C 0.69759 0.34984 0.65472 0.0
C510 C 0.74803 0.40988 0.63389 0.0
C511 C 0.64656 0.29436 0.68073 0.0
N512 N 0.71325 0.30985 0.71424 0.0
C513 C 0.67427 0.28731 0.71225 0.0
C514 C 0.6585 0.32523 0.6515 0.0
Tb515 Tb 0.76084 0.30041 0.76477 0.0
N516 N 0.78422 0.35987 0.72636 0.0
C517 C 0.81668 0.38919 0.7371 0.0
C518 C 0.80881 0.43092 0.67688 0.0
C519 C 0.83008 0.42457 0.71229 0.0
H520 H 0.66465 0.26324 0.73453 0.0
H521 H 0.85673 0.44692 0.72055 0.0
H522 H 0.75675 0.43662 0.61345 0.0
H523 H 0.61608 0.27582 0.67894 0.0
H524 H 0.83319 0.3849 0.76453 0.0
H525 H 0.70877 0.09387 0.78408 0.0
H526 H 0.81901 0.45849 0.65782 0.0
H527 H 0.9114 0.25011 0.84658 0.0
H528 H 0.74786 0.15956 0.7581 0.0
H529 H 0.93743 0.22184 0.90997 0.0
H530 H 0.69029 0.39012 0.60232 0.0
H531 H 0.72623 0.06351 0.84916 0.0
H532 H 0.77271 0.06764 0.90885 0.0
H533 H 0.63698 0.33065 0.62716 0.0
H534 H 0.83473 0.10282 0.94349 0.0
N535 N 0.78897 0.16832 0.8077 0.0
C536 C 0.75708 0.14745 0.78634 0.0
C537 C 0.74414 0.09265 0.83778 0.0
C538 C 0.77751 0.1131 0.85916 0.0
C539 C 0.73428 0.10966 0.80106 0.0
C540 C 0.79978 0.15103 0.843 0.0
H541 H 0.89666 0.16009 0.944 0.0
N542 N 0.85546 0.20613 0.84526 0.0
C543 C 0.90814 0.20731 0.89713 0.0
C544 C 0.83416 0.1708 0.86255 0.0
C545 C 0.89326 0.22323 0.86122 0.0
C546 C 0.88503 0.17254 0.91624 0.0
C547 C 0.84794 0.15328 0.89869 0.0
O548 O 0.83691 0.1952 0.75331 0.0
O549 O 0.81512 0.28772 0.75229 0.0
O550 O 0.74681 0.26896 0.71714 0.0
O551 O 0.78662 0.22167 0.73606 0.0
O552 O 0.87297 0.28835 0.77748 0.0
O553 O 0.88671 0.23268 0.78279 0.0
O554 O 0.71252 0.29963 0.79199 0.0
O555 O 0.77553 0.2468 0.79968 0.0
O556 O 0.8359 0.26259 0.8348 0.0
O557 O 0.81144 0.31989 0.80734 0.0
O558 O 0.71645 0.24503 0.78448 0.0
O559 O 0.76402 0.34977 0.7907 0.0
C560 C 0.85104 0.3094 0.7543 0.0
C561 C 0.89578 0.22375 0.7242 0.0
C562 C 0.91782 0.20846 0.67137 0.0
C563 C 0.89802 0.19566 0.70311 0.0
C564 C 0.93409 0.25006 0.66038 0.0
C565 C 0.91417 0.26487 0.71359 0.0
C566 C 0.93249 0.27794 0.68155 0.0
C567 C 0.75899 0.23755 0.71253 0.0
C568 C 0.87582 0.20943 0.75792 0.0
C569 C 0.82495 0.11652 0.91558 0.0
C570 C 0.78972 0.09646 0.89584 0.0
C571 C 0.741 0.22458 0.80428 0.0
C572 C 0.70211 0.36305 0.79608 0.0
C573 C 0.69611 0.37761 0.82667 0.0
C574 C 0.66881 0.40243 0.82233 0.0
C575 C 0.64812 0.41289 0.78704 0.0
C576 C 0.6816 0.37454 0.76105 0.0
C577 C 0.65477 0.39929 0.75663 0.0
C578 C 0.83189 0.29933 0.83484 0.0
C579 C 0.72873 0.33494 0.8014 0.0
H580 H 0.88552 0.16374 0.71225 0.0
H581 H 0.94854 0.26109 0.63563 0.0
H582 H 0.91512 0.287 0.73019 0.0
H583 H 0.94606 0.30977 0.67342 0.0
H584 H 0.71192 0.36896 0.85383 0.0
H585 H 0.62711 0.43204 0.78294 0.0
H586 H 0.68601 0.36423 0.73717 0.0
H587 H 0.63891 0.40783 0.72951 0.0
Tb588 Tb 0.76422 0.71676 0.7277 0.0
C589 C 0.86355 0.81134 0.84562 0.0
C590 C 0.86772 0.75842 0.89891 0.0
C591 C 0.9213 0.81983 0.89353 0.0
C592 C 0.84763 0.77348 0.86455 0.0
C593 C 0.89988 0.83557 0.86041 0.0
C594 C 0.90526 0.78124 0.91273 0.0
C595 C 0.88842 0.89063 0.81123 0.0
N596 N 0.84172 0.8256 0.81397 0.0
C597 C 0.85261 0.86532 0.79754 0.0
C598 C 0.91258 0.87545 0.84237 0.0
Tb599 Tb 0.78291 0.78245 0.79483 0.0
N600 N 0.81099 0.75276 0.8506 0.0
C601 C 0.79123 0.71821 0.87117 0.0
C602 C 0.84867 0.72176 0.91904 0.0
C603 C 0.8099 0.70202 0.90545 0.0
H604 H 0.83411 0.87714 0.77338 0.0
H605 H 0.79448 0.67414 0.92119 0.0
H606 H 0.92141 0.76998 0.93885 0.0
H607 H 0.89742 0.92174 0.79767 0.0
H608 H 0.76142 0.70243 0.861 0.0
H609 H 0.78124 0.8333 0.60497 0.0
H610 H 0.86307 0.70913 0.94555 0.0
H611 H 0.68837 0.63212 0.73805 0.0
H612 H 0.80497 0.79193 0.66127 0.0
H613 H 0.61642 0.6121 0.71552 0.0
H614 H 0.94955 0.83776 0.90516 0.0
H615 H 0.70877 0.82126 0.58094 0.0
H616 H 0.63867 0.77978 0.58656 0.0
H617 H 0.94025 0.89513 0.85295 0.0
H618 H 0.59327 0.72042 0.61782 0.0
N619 N 0.74621 0.75639 0.67214 0.0
C620 C 0.77305 0.78592 0.65251 0.0
C621 C 0.71893 0.80273 0.60626 0.0
C622 C 0.69182 0.7712 0.62499 0.0
C623 C 0.75979 0.80965 0.61978 0.0
C624 C 0.70661 0.74797 0.65798 0.0
H625 H 0.58464 0.65766 0.66584 0.0
N626 N 0.69718 0.69165 0.70555 0.0
C627 C 0.63398 0.64156 0.70454 0.0
C628 C 0.68109 0.71494 0.67571 0.0
C629 C 0.67485 0.6536 0.71781 0.0
C630 C 0.6162 0.66728 0.6765 0.0
C631 C 0.64009 0.70377 0.66072 0.0
O632 O 0.75747 0.66071 0.71157 0.0
O633 O 0.79386 0.72842 0.7825 0.0
O634 O 0.84009 0.79493 0.77246 0.0
O635 O 0.81975 0.76264 0.72103 0.0
O636 O 0.79865 0.67759 0.76812 0.0
O637 O 0.80509 0.7119 0.69474 0.0
O638 O 0.76204 0.83378 0.79609 0.0
O639 O 0.74682 0.76771 0.74231 0.0
O640 O 0.72716 0.68431 0.7704 0.0
O641 O 0.72773 0.73511 0.80242 0.0
O642 O 0.77309 0.82723 0.74493 0.0
O643 O 0.74927 0.78044 0.83717 0.0
C644 C 0.81158 0.69896 0.79394 0.0
C645 C 0.78129 0.66316 0.65548 0.0
C646 C 0.80673 0.6381 0.61013 0.0
C647 C 0.81178 0.65014 0.64478 0.0
C648 C 0.77049 0.63966 0.58629 0.0
C649 C 0.74558 0.66467 0.63123 0.0
C650 C 0.74032 0.65298 0.59679 0.0
C651 C 0.84673 0.78631 0.74157 0.0
C652 C 0.78743 0.67433 0.6923 0.0
C653 C 0.62476 0.7282 0.62932 0.0
C654 C 0.65062 0.76185 0.61142 0.0
C655 C 0.74835 0.80376 0.72411 0.0
C656 C 0.75127 0.84295 0.85435 0.0
C657 C 0.7176 0.84874 0.86685 0.0
C658 C 0.72279 0.87509 0.89232 0.0
C659 C 0.76201 0.89503 0.90541 0.0
C660 C 0.79006 0.86272 0.86843 0.0
C661 C 0.79533 0.8886 0.89374 0.0
C662 C 0.7127 0.69874 0.79355 0.0
C663 C 0.74527 0.81737 0.82585 0.0
H664 H 0.83958 0.64978 0.66344 0.0
H665 H 0.76517 0.63009 0.55968 0.0
H666 H 0.72175 0.67455 0.63898 0.0
H667 H 0.7126 0.65397 0.57823 0.0
H668 H 0.68748 0.83346 0.85629 0.0
H669 H 0.7669 0.91517 0.92519 0.0
H670 H 0.81632 0.8585 0.85981 0.0
H671 H 0.82542 0.90383 0.9043 0.0
Fe672 Fe 0.04002 0.04256 0.52119 0.0
O673 O 1.01048 0.99244 0.55114 0.0
Fe674 Fe 0.12572 0.01615 0.5099 0.0
Fe675 Fe 0.95176 0.97947 0.54999 0.0
O676 O 0.0673 1.00528 0.50731 0.0
O677 O 0.0661 1.00129 0.50652 0.0
O678 O 1.00969 0.98846 0.55093 0.0
Fe679 Fe 1.03523 0.95076 0.53537 0.0
C680 C 0.98479 0.06445 0.56653 0.0
O681 O 0.99727 0.03243 0.47572 0.0
O682 O 0.94412 0.02207 0.50423 0.0
O683 O 0.06678 0.91821 0.51406 0.0
O684 O 0.11337 0.96781 0.48225 0.0
O685 O 0.11548 0.06011 0.46535 0.0
O686 O 0.07471 0.09049 0.48706 0.0
O687 O 0.93714 0.93538 0.51664 0.0
O688 O 0.99163 0.942 0.4903 0.0
C689 C 0.09866 0.0896 0.46429 0.0
O690 O 0.07681 0.95853 0.58061 0.0
O691 O 0.13482 0.97587 0.55787 0.0
O692 O 1.00779 0.07553 0.54043 0.0
O693 O 0.96642 0.02735 0.57827 0.0
C694 C 0.95936 0.02547 0.47507 0.0
C695 C 0.95367 0.93055 0.49061 0.0
C696 C 0.97924 0.90528 0.5944 0.0
O697 O 0.96228 0.93468 0.59325 0.0
O698 O 1.00066 0.90299 0.56994 0.0
C699 C 0.09208 0.93092 0.48971 0.0
O700 O 0.13777 0.06162 0.54163 0.0
O701 O 0.08231 0.05278 0.56695 0.0
C702 C 0.11486 0.96685 0.585 0.0
C703 C 0.11999 0.06641 0.56678 0.0
Fe704 Fe 0.52291 0.92106 0.04998 0.0
O705 O 0.5327 0.98063 0.0476 0.0
Fe706 Fe 0.48419 1.00917 1.01825 0.0
Fe707 Fe 0.57967 0.01965 0.02515 0.0
O708 O 0.52733 0.98015 0.04652 0.0
O709 O 0.53139 0.04779 0.99594 0.0
O710 O 0.53656 0.04842 0.99731 0.0
Fe711 Fe 0.54238 0.10743 0.99159 0.0
C712 C 0.61068 0.94853 0.08544 0.0
O713 O 0.56337 0.92501 1.01385 0.0
O714 O 0.57079 0.98765 0.98283 0.0
O715 O 0.49029 0.10062 0.95263 0.0
O716 O 0.44567 0.0468 0.98241 0.0
O717 O 0.4727 0.97554 0.97573 0.0
O718 O 0.47618 0.91387 1.00632 0.0
O719 O 0.62212 0.06443 0.99358 0.0
O720 O 0.5843 0.10836 0.95832 0.0
C721 C 0.46519 0.93723 0.97723 0.0
O722 O 0.50367 0.10545 0.02789 0.0
O723 O 0.49119 0.04273 0.05996 0.0
O724 O 0.57424 0.92732 0.08968 0.0
O725 O 0.61846 0.98167 0.06022 0.0
C726 C 0.57516 0.95186 0.98665 0.0
C727 C 0.61545 0.0926 0.96514 0.0
C728 C 0.6005 0.0922 0.06438 0.0
O729 O 0.59159 0.05361 0.06731 0.0
O730 O 0.59024 0.11492 0.03443 0.0
C731 C 0.45377 0.0796 0.95687 0.0
O732 O 0.44232 0.9636 0.04996 0.0
O733 O 0.47918 0.91738 0.08281 0.0
C734 C 0.49011 0.07995 0.05518 0.0
C735 C 0.44831 0.93357 0.07692 0.0
Fe736 Fe 0.04271 0.56931 1.00741 0.0
O737 O 1.00734 0.51695 0.9937 0.0
Fe738 Fe 0.13399 0.54024 0.04405 0.0
Fe739 Fe 0.94808 0.50172 0.99772 0.0
O740 O 0.07539 0.53093 0.03916 0.0
O741 O 0.07517 0.5255 0.04226 0.0
O742 O 1.00692 0.51079 0.99775 0.0
Fe743 Fe 0.04046 0.47273 0.02988 0.0
C744 C 0.97589 0.564 0.0496 0.0
O745 O 0.99942 0.60085 0.97078 0.0
O746 O 0.94762 0.54897 0.95194 0.0
O747 O 0.07157 0.4767 0.98625 0.0
O748 O 0.13477 0.49866 1.01255 0.0
O749 O 0.13776 0.58426 0.99732 0.0
O750 O 0.07796 0.58341 0.96282 0.0
O751 O 0.94823 0.45516 0.97228 0.0
O752 O 0.9972 0.42419 1.0087 0.0
C753 C 0.11678 0.59572 0.96705 0.0
O754 O 0.08323 0.44007 0.06665 0.0
O755 O 0.13096 0.49217 0.08899 0.0
O756 O 1.01233 0.5626 0.05169 0.0
O757 O 0.94869 0.54598 0.02717 0.0
C758 C 0.96528 0.58742 0.94986 0.0
C759 C 0.96549 0.42501 0.98357 0.0
C760 C 0.97144 0.45069 0.07512 0.0
O761 O 0.94669 0.45818 0.04624 0.0
O762 O 1.00945 0.46413 0.07506 0.0
C763 C 0.10956 0.48133 0.98808 0.0
O764 O 0.13078 0.58554 0.07026 0.0
O765 O 0.08348 0.61687 0.03114 0.0
C766 C 0.11609 0.45359 0.0889 0.0
C767 C 0.11257 0.61508 0.05872 0.0
Fe768 Fe 0.51265 0.51362 0.97759 0.0
O769 O 0.55245 0.5466 1.012 0.0
Fe770 Fe 0.43656 0.46237 0.0307 0.0
Fe771 Fe 0.61016 0.56382 1.00749 0.0
O772 O 0.49376 0.47875 0.02362 0.0
O773 O 0.49399 0.47986 0.0269 0.0
O774 O 0.5532 0.54709 1.01568 0.0
Fe775 Fe 0.53575 0.51035 0.06171 0.0
C776 C 0.58484 0.49159 0.96489 0.0
O777 O 0.538 0.55593 0.93384 0.0
O778 O 0.58906 0.602 0.96254 0.0
O779 O 0.49942 0.54645 0.06649 0.0
O780 O 0.43867 0.50333 0.0643 0.0
O781 O 0.4183 0.50143 0.98463 0.0
O782 O 0.47399 0.54882 0.97681 0.0
O783 O 0.61498 0.59657 0.04969 0.0
O784 O 0.58235 0.54713 0.0929 0.0
C785 C 0.4365 0.53571 0.96851 0.0
O786 O 0.51246 0.46841 0.10552 0.0
O787 O 0.45664 0.42625 0.07828 0.0
O788 O 0.55117 0.47828 0.97717 0.0
O789 O 0.60709 0.52638 0.9694 0.0
C790 C 0.56423 0.59068 0.93399 0.0
C791 C 0.60672 0.58206 0.08332 0.0
C792 C 0.6082 0.48354 0.0536 0.0
O793 O 0.62706 0.52048 0.04901 0.0
O794 O 0.5714 0.47311 0.05822 0.0
C795 C 0.46294 0.53572 0.07278 0.0
O796 O 0.43499 0.42626 0.99282 0.0
O797 O 0.46777 0.47263 0.94737 0.0
C798 C 0.48389 0.43563 0.10599 0.0
C799 C 0.44423 0.43765 0.9593 0.0
Fe800 Fe 1.03104 0.46668 0.53214 0.0
O801 O 0.05906 0.51474 0.55658 0.0
Fe802 Fe 1.0052 0.51628 0.44056 0.0
Fe803 Fe 0.06273 0.51371 0.60969 0.0
O804 O 1.00626 0.50891 0.49547 0.0
O805 O 1.00789 0.51465 0.4938 0.0
O806 O 0.06007 0.51999 0.55528 0.0
Fe807 Fe 0.03664 0.56243 0.51831 0.0
C808 C 0.98597 0.44588 0.59903 0.0
O809 O 0.06618 0.43032 0.57505 0.0
O810 O 0.10168 0.47606 0.61307 0.0
O811 O 0.08521 0.57546 0.48872 0.0
O812 O 0.05176 0.56803 0.43293 0.0
O813 O 0.04701 0.48169 0.44458 0.0
O814 O 0.07826 0.47934 0.50239 0.0
O815 O 0.10336 0.56959 0.60136 0.0
O816 O 0.07145 0.60675 0.55136 0.0
C817 C 0.07717 0.47665 0.4688 0.0
O818 O 1.00499 0.59999 0.47466 0.0
O819 O 0.96751 0.55661 0.4354 0.0
O820 O 0.98296 0.45097 0.5637 0.0
O821 O 1.0187 0.46078 0.61819 0.0
C822 C 0.09551 0.44163 0.60169 0.0
C823 C 0.0982 0.60358 0.58102 0.0
C824 C 0.98978 0.55284 0.58128 0.0
O825 O 1.01906 0.5458 0.60589 0.0
O826 O 0.98911 0.55219 0.54722 0.0
C827 C 0.08388 0.58177 0.4536 0.0
O828 O 0.96339 0.46131 0.44907 0.0
O829 O 0.99556 0.42283 0.49824 0.0
C830 C 0.97634 0.59129 0.44692 0.0
C831 C 0.96784 0.42687 0.46927 0.0
Fe832 Fe 0.53843 0.97213 0.52496 0.0
O833 O 0.56989 0.0197 0.54853 0.0
Fe834 Fe 0.51085 0.02178 0.43359 0.0
Fe835 Fe 0.5733 0.01921 0.60189 0.0
O836 O 0.5159 0.01575 0.48834 0.0
O837 O 0.51705 0.02088 0.48669 0.0
O838 O 0.57086 0.02561 0.54684 0.0
Fe839 Fe 0.5457 0.06826 0.51121 0.0
C840 C 0.49328 0.95463 0.59232 0.0
O841 O 0.57084 0.93366 0.56755 0.0
O842 O 0.60909 0.978 0.6058 0.0
O843 O 0.59251 0.08481 0.47832 0.0
O844 O 0.55893 0.07223 0.42349 0.0
O845 O 0.54893 0.98428 0.4362 0.0
O846 O 0.58379 0.97836 0.49291 0.0
O847 O 0.61591 0.07276 0.59156 0.0
O848 O 0.58165 0.11135 0.54453 0.0
C849 C 0.57788 0.9736 0.4591 0.0
O850 O 0.51044 0.10565 0.47061 0.0
O851 O 0.4748 0.06231 0.43072 0.0
O852 O 0.49109 0.96107 0.55698 0.0
O853 O 0.52614 0.96824 0.61201 0.0
C854 C 0.60061 0.9435 0.59414 0.0
C855 C 0.61067 0.10719 0.57204 0.0
C856 C 0.50409 0.06344 0.5745 0.0
O857 O 0.53387 0.05653 0.59845 0.0
O858 O 0.49967 0.055 0.54236 0.0
C859 C 0.59041 0.0896 0.44303 0.0
O860 O 0.46762 0.96881 0.44478 0.0
O861 O 0.49965 0.92945 0.49338 0.0
C862 C 0.48119 0.09564 0.44373 0.0
C863 C 0.47097 0.93462 0.46591 0.0
H864 H 0.21172 0.23287 0.37771 0.0
H865 H 0.15108 0.16964 0.2877 0.0
H866 H 0.1036 0.12457 0.32742 0.0
H867 H 0.08609 0.09692 0.39031 0.0
H868 H 0.14397 0.16197 0.47938 0.0
H869 H 0.18501 0.21354 0.43716 0.0
C870 C 0.18782 0.20964 0.36654 0.0
C871 C 0.18642 0.20319 0.3303 0.0
C872 C 0.15994 0.18439 0.38934 0.0
C873 C 0.15426 0.17391 0.31602 0.0
C874 C 0.12675 0.14835 0.33862 0.0
C875 C 0.10665 0.12327 0.39998 0.0
C876 C 0.11221 0.12603 0.43758 0.0
C877 C 0.13032 0.15232 0.37571 0.0
C878 C 0.13901 0.15982 0.45029 0.0
C879 C 0.16279 0.18891 0.42629 0.0
H880 H 0.86031 0.02291 0.31811 0.0
H881 H 0.76384 0.99139 0.38481 0.0
H882 H 0.81032 0.9762 0.43992 0.0
H883 H 0.87938 0.99371 0.46991 0.0
H884 H 0.97768 0.03582 0.40465 0.0
H885 H 0.92984 0.02728 0.34832 0.0
C886 C 0.84938 1.01165 0.34468 0.0
C887 C 0.80944 1.01089 0.34781 0.0
C888 C 0.87703 1.0075 0.37669 0.0
C889 C 0.79477 0.99366 0.38169 0.0
C890 C 0.82157 0.98584 0.41345 0.0
C891 C 0.89053 1.00102 0.44341 0.0
C892 C 0.93178 0.01735 0.44114 0.0
C893 C 0.86304 0.99665 0.41145 0.0
C894 C 0.94586 0.02463 0.40686 0.0
C895 C 0.91859 0.01934 0.37477 0.0
H896 H 0.81885 0.84968 0.37171 0.0
H897 H 0.9234 0.84927 0.32569 0.0
H898 H 0.96728 0.88409 0.37368 0.0
H899 H 0.97621 0.91185 0.43094 0.0
H900 H 0.87133 0.90733 0.47973 0.0
H901 H 0.82766 0.87738 0.42894 0.0
C902 C 0.85121 0.85737 0.37215 0.0
C903 C 0.86768 0.8479 0.34433 0.0
C904 C 0.87635 0.87618 0.40078 0.0
C905 C 0.90973 0.85795 0.34541 0.0
C906 C 0.93494 0.87721 0.37344 0.0
C907 C 0.94383 0.90412 0.43065 0.0
C908 C 0.92737 0.91167 0.45953 0.0
C909 C 0.91863 0.88615 0.40152 0.0
C910 C 0.88515 0.90162 0.45826 0.0
C911 C 0.85998 0.88446 0.42911 0.0
H912 H 0.06608 0.83495 0.35915 0.0
H913 H 0.19332 0.88821 0.36136 0.0
H914 H 0.19458 0.91366 0.41794 0.0
H915 H 0.15781 0.92764 0.4622 0.0
H916 H 1.03084 0.87339 0.46122 0.0
H917 H 1.03112 0.84086 0.40918 0.0
C918 C 0.09414 0.85163 0.37242 0.0
C919 C 0.12954 0.86009 0.35596 0.0
C920 C 0.09459 0.86604 0.40505 0.0
C921 C 0.1658 0.88127 0.37357 0.0
C922 C 0.16645 0.89599 0.40579 0.0
C923 C 0.13041 0.90788 0.45116 0.0
C924 C 0.09428 0.90318 0.46537 0.0
C925 C 0.13083 0.8895 0.42118 0.0
C926 C 0.05906 0.87732 0.45095 0.0
C927 C 0.05915 0.85905 0.42092 0.0
H928 H 0.22641 0.99792 0.73332 0.0
H929 H 0.1174 0.93102 0.77779 0.0
H930 H 0.08002 0.93391 0.71529 0.0
H931 H 0.08212 0.94344 0.64885 0.0
H932 H 0.19395 1.00214 0.6049 0.0
H933 H 0.22723 1.01293 0.66665 0.0
C934 C 0.19407 0.98564 0.72918 0.0
C935 C 0.17443 0.96435 0.75964 0.0
C936 C 0.17403 0.98394 0.69338 0.0
C937 C 0.13278 0.94803 0.75456 0.0
C938 C 0.11177 0.9488 0.71885 0.0
C939 C 0.11379 0.95866 0.65269 0.0
C940 C 0.1358 0.97115 0.62246 0.0
C941 C 0.13273 0.96444 0.68817 0.0
C942 C 0.17665 0.99121 0.62788 0.0
C943 C 0.19552 0.99793 0.66303 0.0
H944 H 0.22901 0.19919 0.65693 0.0
H945 H 0.17013 0.1204 0.74676 0.0
H946 H 0.13125 0.0745 0.70435 0.0
H947 H 0.11358 0.05728 0.64064 0.0
H948 H 0.17877 0.13427 0.55384 0.0
H949 H 0.21595 0.18004 0.59635 0.0
C950 C 0.20786 0.17202 0.66767 0.0
C951 C 0.202 0.16409 0.7052 0.0
C952 C 0.18671 0.14527 0.64344 0.0
C953 C 0.17454 0.12817 0.71799 0.0
C954 C 0.15249 0.10168 0.6937 0.0
C955 C 0.13594 0.08413 0.63118 0.0
C956 C 0.14318 0.09256 0.59397 0.0
C957 C 0.15811 0.11007 0.6562 0.0
C958 C 0.1727 0.12703 0.58224 0.0
C959 C 0.19388 0.15331 0.60653 0.0
H960 H 0.98378 0.21077 0.64058 0.0
H961 H 0.86411 0.13844 0.65597 0.0
H962 H 0.87469 0.08747 0.62527 0.0
H963 H 0.91812 0.06308 0.59483 0.0
H964 H 0.03611 0.13713 0.57612 0.0
H965 H 1.02552 0.18849 0.60665 0.0
C966 C 0.95964 0.18427 0.63666 0.0
C967 C 0.92324 0.17846 0.6508 0.0
C968 C 0.96561 0.15546 0.61838 0.0
C969 C 0.8927 0.14342 0.64602 0.0
C970 C 0.89861 0.11436 0.62825 0.0
C971 C 0.94153 0.09047 0.59747 0.0
C972 C 0.97795 0.09626 0.58353 0.0
C973 C 0.93504 0.11994 0.6146 0.0
C974 C 1.00778 0.13211 0.58656 0.0
C975 C 1.00178 0.16137 0.6041 0.0
H976 H 0.87546 0.76392 0.68825 0.0
H977 H 0.90645 0.85105 0.76183 0.0
H978 H 0.95922 0.89238 0.72568 0.0
H979 H 0.98506 0.91039 0.66578 0.0
H980 H 0.95067 0.82514 0.59035 0.0
H981 H 0.91142 0.77555 0.63517 0.0
C982 C 0.89394 0.79171 0.6968 0.0
C983 C 0.88528 0.80566 0.72658 0.0
C984 C 0.92363 0.81552 0.6754 0.0
C985 C 0.91107 0.84057 0.73819 0.0
C986 C 0.94143 0.86412 0.71753 0.0
C987 C 0.97009 0.88033 0.65985 0.0
C988 C 0.96995 0.87136 0.62482 0.0
C989 C 0.94626 0.85298 0.68492 0.0
C990 C 0.95108 0.83247 0.61723 0.0
C991 C 0.92823 0.80445 0.64262 0.0
H992 H 0.3874 0.16431 0.12408 0.0
H993 H 0.34789 0.04236 0.18017 0.0
H994 H 0.39589 0.02015 0.15346 0.0
H995 H 0.44466 0.03471 0.10912 0.0
H996 H 0.4857 0.15752 0.05442 0.0
H997 H 0.44239 0.18021 0.0857 0.0
C998 C 0.38994 0.13309 0.13097 0.0
C999 C 0.36338 0.10459 0.15332 0.0
C1000 C 0.41785 0.12071 0.11546 0.0
C1001 C 0.36714 0.06431 0.16208 0.0
C1002 C 0.39475 0.05177 0.14697 0.0
C1003 C 0.44483 0.06648 0.10466 0.0
C1004 C 0.46838 0.094 0.07911 0.0
C1005 C 0.41956 0.0795 0.12276 0.0
C1006 C 0.46781 0.13528 0.07362 0.0
C1007 C 0.4429 0.14844 0.09151 0.0
H1008 H 0.91575 0.3664 0.23326 0.0
H1009 H 0.8189 0.29942 0.16454 0.0
H1010 H 0.85151 0.33324 0.10986 0.0
H1011 H 0.90384 0.38783 0.08002 0.0
H1012 H 1.00151 0.45489 0.14817 0.0
H1013 H 0.9722 0.41634 0.20378 0.0
C1014 C 0.90224 0.35859 0.2064 0.0
C1015 C 0.86525 0.32911 0.20355 0.0
C1016 C 0.92095 0.37924 0.17452 0.0
C1017 C 0.84805 0.32022 0.16819 0.0
C1018 C 0.86648 0.34026 0.13662 0.0
C1019 C 0.91898 0.39388 0.10704 0.0
C1020 C 0.95482 0.42497 0.10949 0.0
C1021 C 0.90237 0.3707 0.1392 0.0
C1022 C 0.97398 0.43157 0.14506 0.0
C1023 C 0.95713 0.40939 0.17702 0.0
H1024 H 0.75005 0.8942 0.21204 0.0
H1025 H 0.69144 0.77854 0.17991 0.0
H1026 H 0.64706 0.81043 0.13115 0.0
H1027 H 0.61947 0.86995 0.10049 0.0
H1028 H 0.6788 0.98718 0.12859 0.0
H1029 H 0.72757 0.95661 0.17475 0.0
C1030 C 0.72875 0.87616 0.19342 0.0
C1031 C 0.72595 0.83352 0.19938 0.0
C1032 C 0.7024 0.89515 0.16471 0.0
C1033 C 0.69607 0.81116 0.17567 0.0
C1034 C 0.67001 0.8295 0.14781 0.0
C1035 C 0.64339 0.88916 0.11626 0.0
C1036 C 0.6447 0.9313 0.11054 0.0
C1037 C 0.67207 0.87129 0.14249 0.0
C1038 C 0.67651 0.95501 0.13165 0.0
C1039 C 0.70451 0.93726 0.15843 0.0
H1040 H 0.15774 0.71553 0.18669 0.0
H1041 H 0.27555 0.71149 0.16813 0.0
H1042 H 0.24711 0.68557 0.11147 0.0
H1043 H 0.18879 0.65421 0.07245 0.0
H1044 H 0.06972 0.64808 0.09374 0.0
H1045 H 0.09803 0.68863 0.14287 0.0
C1046 C 0.17701 0.70946 0.16984 0.0
C1047 C 0.2186 0.71512 0.18179 0.0
C1048 C 0.16014 0.69273 0.1376 0.0
C1049 C 0.2434 0.70716 0.1598 0.0
C1050 C 0.22721 0.69232 0.12726 0.0
C1051 C 0.16911 0.66289 0.08717 0.0
C1052 C 0.1274 0.64876 0.07944 0.0
C1053 C 0.18563 0.68369 0.11662 0.0
C1054 C 0.10193 0.65966 0.09866 0.0
C1055 C 0.11822 0.68212 0.12725 0.0
H1056 H 0.34328 0.87914 0.83905 0.0
H1057 H 0.40224 0.78049 0.86606 0.0
H1058 H 0.44601 0.81138 0.91711 0.0
H1059 H 0.46596 0.86595 0.95587 0.0
H1060 H 0.40898 0.96654 0.92493 0.0
H1061 H 0.36588 0.93536 0.87418 0.0
C1062 C 0.36523 0.864 0.85628 0.0
C1063 C 0.36825 0.82665 0.84912 0.0
C1064 C 0.39082 0.88251 0.88513 0.0
C1065 C 0.39856 0.80877 0.87097 0.0
C1066 C 0.42365 0.82654 0.90031 0.0
C1067 C 0.44417 0.88112 0.93797 0.0
C1068 C 0.44071 0.91865 0.94475 0.0
C1069 C 0.41979 0.86327 0.90799 0.0
C1070 C 0.41259 0.9379 0.92068 0.0
C1071 C 0.38775 0.91994 0.89158 0.0
H1072 H 0.22199 0.42011 0.91085 0.0
H1073 H 0.12353 0.31416 0.91464 0.0
H1074 H 0.08289 0.35011 0.93654 0.0
H1075 H 0.07875 0.40948 0.9619 0.0
H1076 H 0.17921 0.51383 0.95939 0.0
H1077 H 0.21533 0.48102 0.92955 0.0
C1078 C 0.19149 0.40498 0.91616 0.0
C1079 C 0.17605 0.36434 0.91159 0.0
C1080 C 0.16865 0.42561 0.92921 0.0
C1081 C 0.13617 0.34544 0.91791 0.0
C1082 C 0.11302 0.36593 0.93067 0.0
C1083 C 0.10807 0.42533 0.95389 0.0
C1084 C 0.12635 0.464 0.96305 0.0
C1085 C 0.12932 0.40575 0.93739 0.0
C1086 C 0.16459 0.48399 0.95288 0.0
C1087 C 0.18537 0.46519 0.93592 0.0
H1088 H 0.67608 0.16132 0.81059 0.0
H1089 H 0.77771 0.22622 0.87631 0.0
H1090 H 0.75103 0.18759 0.93304 0.0
H1091 H 0.69363 0.14041 0.96401 0.0
H1092 H 0.59356 0.07493 0.89689 0.0
H1093 H 0.62488 0.10757 0.84138 0.0
C1094 C 0.69287 0.16634 0.83737 0.0
C1095 C 0.72915 0.19642 0.83896 0.0
C1096 C 0.67737 0.14374 0.86995 0.0
C1097 C 0.75017 0.20287 0.87401 0.0
C1098 C 0.73467 0.18086 0.9066 0.0
C1099 C 0.67945 0.13231 0.93739 0.0
C1100 C 0.64127 0.10484 0.93479 0.0
C1101 C 0.69768 0.1518 0.90501 0.0
C1102 C 0.623 0.09555 0.89982 0.0
C1103 C 0.64076 0.11453 0.86791 0.0
H1104 H 0.89352 0.72299 0.82623 0.0
H1105 H 0.78362 0.63173 0.841 0.0
H1106 H 0.82016 0.59028 0.88894 0.0
H1107 H 0.88373 0.5762 0.9244 0.0
H1108 H 0.99479 0.66653 0.91319 0.0
H1109 H 0.95806 0.71112 0.86747 0.0
C1110 C 0.87725 0.69476 0.84086 0.0
C1111 C 0.83471 0.68182 0.83028 0.0
C1112 C 0.89913 0.67002 0.86901 0.0
C1113 C 0.81551 0.64373 0.84883 0.0
C1114 C 0.8367 0.61951 0.87624 0.0
C1115 C 0.9003 0.60567 0.91219 0.0
C1116 C 0.94283 0.617 0.92262 0.0
C1117 C 0.87863 0.63172 0.88615 0.0
C1118 C 0.96254 0.65609 0.90624 0.0
C1119 C 0.94127 0.68185 0.87979 0.0
H1120 H 0.26424 0.38264 0.18239 0.0
H1121 H 0.17202 0.27956 0.21956 0.0
H1122 H 0.12026 0.31091 0.1781 0.0
H1123 H 0.10034 0.37169 0.13234 0.0
H1124 H 0.19697 0.4731 0.09862 0.0
H1125 H 0.24606 0.43887 0.13674 0.0
C1126 C 0.23284 0.36648 0.18131 0.0
C1127 C 0.22291 0.3281 0.20438 0.0
C1128 C 0.20315 0.38511 0.1577 0.0
C1129 C 0.18149 0.30858 0.2022 0.0
C1130 C 0.15159 0.32694 0.17841 0.0
C1131 C 0.13208 0.38623 0.13297 0.0
C1132 C 0.14383 0.42621 0.11197 0.0
C1133 C 0.16177 0.36578 0.15608 0.0
C1134 C 0.18578 0.44335 0.11417 0.0
C1135 C 0.21449 0.42352 0.1362 0.0
H1136 H 0.25638 0.7161 0.88022 0.0
H1137 H 0.16845 0.69791 0.78445 0.0
H1138 H 0.11784 0.65695 0.82431 0.0
H1139 H 0.09994 0.62049 0.88803 0.0
H1140 H 0.19111 0.64285 0.98199 0.0
H1141 H 0.23737 0.6869 0.94196 0.0
C1142 C 0.22574 0.70438 0.86804 0.0
C1143 C 0.2162 0.71177 0.82919 0.0
C1144 C 0.19688 0.68031 0.89123 0.0
C1145 C 0.17659 0.69434 0.81419 0.0
C1146 C 0.14762 0.6703 0.83715 0.0
C1147 C 0.12966 0.63532 0.89984 0.0
C1148 C 0.14132 0.62662 0.93881 0.0
C1149 C 0.15747 0.66214 0.87601 0.0
C1150 C 0.18049 0.64715 0.95261 0.0
C1151 C 0.20753 0.67301 0.92956 0.0
H1152 H 0.31245 0.12978 0.83014 0.0
H1153 H 0.37724 0.24838 0.85189 0.0
H1154 H 0.42219 0.21834 0.90154 0.0
H1155 H 0.44804 0.15903 0.93591 0.0
H1156 H 0.38292 0.03924 0.91805 0.0
H1157 H 0.33396 0.06848 0.87099 0.0
C1158 C 0.33542 0.14902 0.84663 0.0
C1159 C 0.33974 0.19191 0.83761 0.0
C1160 C 0.36207 0.13109 0.87582 0.0
C1161 C 0.37148 0.21567 0.85865 0.0
C1162 C 0.39784 0.19834 0.88697 0.0
C1163 C 0.42289 0.13902 0.92214 0.0
C1164 C 0.41998 0.0965 0.931 0.0
C1165 C 0.39417 0.15619 0.89539 0.0
C1166 C 0.38653 0.07177 0.91251 0.0
C1167 C 0.3584 0.08872 0.88522 0.0
H1168 H 0.90848 0.30536 0.87043 0.0
H1169 H 0.79664 0.3364 0.87146 0.0
H1170 H 0.82713 0.37133 0.9237 0.0
H1171 H 0.88659 0.39839 0.96434 0.0
H1172 H 1.00084 0.37392 0.96038 0.0
H1173 H 0.96799 0.32872 0.91538 0.0
C1174 C 0.89066 0.31889 0.88275 0.0
C1175 C 0.85042 0.31831 0.86739 0.0
C1176 C 0.90875 0.33966 0.91231 0.0
C1177 C 0.82779 0.33694 0.88275 0.0
C1178 C 0.84511 0.35663 0.91268 0.0
C1179 C 0.90426 0.38263 0.95408 0.0
C1180 C 0.94609 0.38976 0.96518 0.0
C1181 C 0.88571 0.35891 0.92704 0.0
C1182 C 0.96857 0.36873 0.95228 0.0
C1183 C 0.94986 0.34344 0.92619 0.0
H1184 H 0.7049 0.94687 0.8905 0.0
H1185 H 0.66323 0.81841 0.92571 0.0
H1186 H 0.61183 0.83029 0.9564 0.0
H1187 H 0.58265 0.87792 0.9776 0.0
H1188 H 0.6236 1.0064 0.94004 0.0
H1189 H 0.67087 0.99382 0.90576 0.0
C1190 C 0.68417 0.92149 0.90451 0.0
C1191 C 0.68798 0.88184 0.9061 0.0
C1192 C 0.65468 0.9286 0.92189 0.0
C1193 C 0.66076 0.84918 0.92403 0.0
C1194 C 0.63157 0.85601 0.94176 0.0
C1195 C 0.60155 0.90313 0.96155 0.0
C1196 C 0.59965 0.9431 0.96183 0.0
C1197 C 0.62879 0.89568 0.94155 0.0
C1198 C 0.62422 0.97532 0.94049 0.0
C1199 C 0.65152 0.96819 0.92093 0.0
H1200 H 0.95007 0.71939 0.09441 0.0
H1201 H 0.85118 0.63258 0.14186 0.0
H1202 H 0.87137 0.57745 0.12395 0.0
H1203 H 0.91498 0.55476 0.09054 0.0
H1204 H 1.01443 0.64258 0.04471 0.0
H1205 H 0.99669 0.6963 0.06638 0.0
C1206 C 0.93333 0.68828 0.10126 0.0
C1207 C 0.89916 0.67998 0.11932 0.0
C1208 C 0.94528 0.65693 0.09107 0.0
C1209 C 0.87773 0.63961 0.12817 0.0
C1210 C 0.88914 0.60817 0.11771 0.0
C1211 C 0.93302 0.58559 0.08592 0.0
C1212 C 0.96656 0.59461 0.06677 0.0
C1213 C 0.92251 0.61653 0.09855 0.0
C1214 C 0.98935 0.63472 0.06044 0.0
C1215 C 0.97891 0.66554 0.07244 0.0
H1216 H 0.37385 0.87906 0.22785 0.0
H1217 H 0.32082 0.77077 0.18138 0.0
H1218 H 0.34791 0.80338 0.12354 0.0
H1219 H 0.39249 0.86102 0.08778 0.0
H1220 H 0.44581 0.96935 0.13405 0.0
H1221 H 0.41248 0.93954 0.18917 0.0
C1222 C 0.36756 0.86298 0.20474 0.0
C1223 C 0.34447 0.82256 0.20882 0.0
C1224 C 0.38338 0.88227 0.17117 0.0
C1225 C 0.33746 0.80202 0.17875 0.0
C1226 C 0.3533 0.82069 0.14567 0.0
C1227 C 0.39573 0.87854 0.10942 0.0
C1228 C 0.42053 0.91823 0.1059 0.0
C1229 C 0.37693 0.86061 0.14166 0.0
C1230 C 0.42546 0.93975 0.135 0.0
C1231 C 0.40696 0.92225 0.16701 0.0
H1232 H 0.71516 0.14828 0.20696 0.0
H1233 H 0.69089 0.26399 0.15441 0.0
H1234 H 0.64659 0.23247 0.10405 0.0
H1235 H 0.61645 0.17208 0.07358 0.0
H1236 H 0.6408 0.05664 0.12762 0.0
H1237 H 0.68304 0.08803 0.1785 0.0
C1238 C 0.69994 0.16676 0.18482 0.0
C1239 C 0.70662 0.20874 0.18491 0.0
C1240 C 0.67454 0.14838 0.15585 0.0
C1241 C 0.68642 0.23174 0.15551 0.0
C1242 C 0.66115 0.21366 0.1265 0.0
C1243 C 0.63089 0.15366 0.09648 0.0
C1244 C 0.62527 0.11175 0.09626 0.0
C1245 C 0.65526 0.17202 0.12612 0.0
C1246 C 0.64424 0.08872 0.12663 0.0
C1247 C 0.66858 0.10675 0.15588 0.0
H1248 H 0.6601 0.72228 0.82445 0.0
H1249 H 0.6885 0.61622 0.80337 0.0
H1250 H 0.63505 0.57268 0.83758 0.0
H1251 H 0.5885 0.56487 0.88183 0.0
H1252 H 0.56678 0.67054 0.90973 0.0
H1253 H 0.60815 0.71431 0.86352 0.0
C1254 C 0.65434 0.68964 0.82707 0.0
C1255 C 0.67834 0.67249 0.81157 0.0
C1256 C 0.62441 0.66479 0.84774 0.0
C1257 C 0.67023 0.6302 0.81475 0.0
C1258 C 0.63976 0.60525 0.83445 0.0
C1259 C 0.59148 0.59739 0.87649 0.0
C1260 C 0.57459 0.61476 0.89854 0.0
C1261 C 0.61755 0.62221 0.85199 0.0
C1262 C 0.57931 0.65684 0.8925 0.0
C1263 C 0.60341 0.68175 0.86658 0.0
H1264 H 0.33377 0.57086 0.81407 0.0
H1265 H 0.45091 0.63519 0.78444 0.0
H1266 H 0.48147 0.61782 0.84854 0.0
H1267 H 0.47381 0.5868 0.91281 0.0
H1268 H 0.35642 0.52134 0.94197 0.0
H1269 H 0.32631 0.5389 0.87809 0.0
C1270 C 0.36609 0.58052 0.82167 0.0
C1271 C 0.39025 0.60401 0.79488 0.0
C1272 C 0.38297 0.57151 0.85842 0.0
C1273 C 0.432 0.61644 0.80466 0.0
C1274 C 0.44925 0.60713 0.8413 0.0
C1275 C 0.4416 0.57659 0.90539 0.0
C1276 C 0.41737 0.55269 0.93214 0.0
C1277 C 0.42483 0.58533 0.86847 0.0
C1278 C 0.37566 0.53987 0.92193 0.0
C1279 C 0.35853 0.54947 0.88539 0.0
H1280 H 0.34511 0.29175 0.87924 0.0
H1281 H 0.34375 0.38714 0.78456 0.0
H1282 H 0.38669 0.43638 0.82209 0.0
H1283 H 0.42199 0.45301 0.88344 0.0
H1284 H 0.42141 0.356 0.97726 0.0
H1285 H 0.38202 0.30724 0.93864 0.0
C1286 C 0.35375 0.32333 0.86679 0.0
C1287 C 0.34032 0.33567 0.82925 0.0
C1288 C 0.37836 0.35144 0.88854 0.0
C1289 C 0.3532 0.3767 0.81348 0.0
C1290 C 0.37782 0.40494 0.83498 0.0
C1291 C 0.41377 0.42113 0.89525 0.0
C1292 C 0.42466 0.40844 0.93343 0.0
C1293 C 0.39034 0.39279 0.87275 0.0
C1294 C 0.41331 0.36691 0.94817 0.0
C1295 C 0.39066 0.33883 0.92607 0.0
H1296 H 0.59752 0.39038 0.84733 0.0
H1297 H 0.72317 0.44926 0.86795 0.0
H1298 H 0.70899 0.48138 0.9151 0.0
H1299 H 0.65958 0.49617 0.94744 0.0
H1300 H 0.53437 0.43393 0.92807 0.0
H1301 H 0.54963 0.39965 0.88383 0.0
C1302 C 0.62181 0.40991 0.8625 0.0
C1303 C 0.66126 0.41768 0.85411 0.0
C1304 C 0.61344 0.42788 0.88967 0.0
C1305 C 0.69259 0.44275 0.87408 0.0
C1306 C 0.68442 0.46127 0.90086 0.0
C1307 C 0.63574 0.47484 0.93377 0.0
C1308 C 0.59581 0.46799 0.94098 0.0
C1309 C 0.64479 0.45463 0.90845 0.0
C1310 C 0.56537 0.43986 0.92324 0.0
C1311 C 0.57401 0.42028 0.89773 0.0
H1312 H 0.69769 0.34514 0.08923 0.0
H1313 H 0.78956 0.44658 0.04726 0.0
H1314 H 0.73888 0.4822 1.01597 0.0
H1315 H 0.67571 0.49601 0.0232 0.0
H1316 H 0.5868 0.40154 0.07807 0.0
H1317 H 0.62902 0.35357 0.08447 0.0
C1318 C 0.70678 0.37527 0.07348 0.0
C1319 C 0.74782 0.39563 0.07578 0.0
C1320 C 0.67796 0.39814 0.06002 0.0
C1321 C 0.75854 0.43128 0.04982 0.0
C1322 C 0.72943 0.45233 0.03209 0.0
C1323 C 0.66534 0.46481 0.03628 0.0
C1324 C 0.6295 0.45275 0.05216 0.0
C1325 C 0.69022 0.43812 0.04111 0.0
C1326 C 0.61523 0.4118 0.06704 0.0
C1327 C 0.63917 0.38435 0.07041 0.0
H1328 H 0.67875 0.66601 0.22531 0.0
H1329 H 0.77101 0.72725 0.15591 0.0
H1330 H 0.73466 0.6904 0.10712 0.0
H1331 H 0.67668 0.64096 0.08286 0.0
H1332 H 0.58492 0.57662 0.15178 0.0
H1333 H 0.62055 0.61444 0.20124 0.0
C1334 C 0.69076 0.67155 0.19954 0.0
C1335 C 0.72722 0.70073 0.19447 0.0
C1336 C 0.66962 0.64957 0.17105 0.0
C1337 C 0.74256 0.70625 0.16079 0.0
C1338 C 0.72183 0.68486 0.13261 0.0
C1339 C 0.66421 0.63531 0.10856 0.0
C1340 C 0.62789 0.606 0.11322 0.0
C1341 C 0.68519 0.6567 0.1372 0.0
C1342 C 0.61277 0.59889 0.14717 0.0
C1343 C 0.6332 0.62056 0.17561 0.0
H1344 H 0.37355 0.60195 0.17014 0.0
H1345 H 0.49287 0.62591 0.23112 0.0
H1346 H 0.51943 0.60557 0.18354 0.0
H1347 H 0.50756 0.57534 0.12743 0.0
H1348 H 0.38716 0.54581 0.06934 0.0
H1349 H 0.36223 0.57447 0.11243 0.0
C1350 C 0.40545 0.60331 0.1726 0.0
C1351 C 0.43126 0.61539 0.204 0.0
C1352 C 0.42025 0.59046 0.14567 0.0
C1353 C 0.47245 0.61649 0.20724 0.0
C1354 C 0.48762 0.60491 0.18005 0.0
C1355 C 0.47604 0.57601 0.12375 0.0
C1356 C 0.44927 0.55872 0.09512 0.0
C1357 C 0.46167 0.59108 0.1495 0.0
C1358 C 0.40834 0.55902 0.09114 0.0
C1359 C 0.39406 0.57525 0.11585 0.0
H1360 H 0.41235 0.36132 0.25083 0.0
H1361 H 0.36518 0.26235 0.19025 0.0
H1362 H 0.41282 0.29322 0.14663 0.0
H1363 H 0.45545 0.3551 0.11777 0.0
H1364 H 0.49798 0.4579 0.1739 0.0
H1365 H 0.46561 0.41882 0.22749 0.0
C1366 C 0.41284 0.34644 0.22837 0.0
C1367 C 0.38377 0.31089 0.22255 0.0
C1368 C 0.43942 0.36529 0.20238 0.0
C1369 C 0.38597 0.29077 0.19434 0.0
C1370 C 0.41341 0.30828 0.16942 0.0
C1371 C 0.4586 0.36846 0.14224 0.0
C1372 C 0.47786 0.40934 0.14174 0.0
C1373 C 0.43835 0.34667 0.17186 0.0
C1374 C 0.48284 0.42637 0.1737 0.0
C1375 C 0.46395 0.40422 0.20414 0.0
H1376 H 0.85613 0.59152 0.65307 0.0
H1377 H 0.83051 0.65342 0.54146 0.0
H1378 H 0.88309 0.63075 0.52252 0.0
H1379 H 0.93768 0.59507 0.53776 0.0
H1380 H 0.96598 0.53615 0.6499 0.0
H1381 H 0.9114 0.55641 0.66852 0.0
C1382 C 0.86227 0.60048 0.62468 0.0
C1383 C 0.83912 0.62418 0.5988 0.0
C1384 C 0.89316 0.58794 0.61403 0.0
C1385 C 0.84723 0.63472 0.56195 0.0
C1386 C 0.87756 0.62199 0.55109 0.0
C1387 C 0.9318 0.58644 0.56626 0.0
C1388 C 0.95595 0.56413 0.5924 0.0
C1389 C 0.90078 0.59871 0.5769 0.0
C1390 C 0.94807 0.55355 0.62926 0.0
C1391 C 0.9168 0.56507 0.63992 0.0
H1392 H 0.32301 0.8675 0.65123 0.0
H1393 H 0.39982 0.85421 0.75531 0.0
H1394 H 0.45935 0.88711 0.7239 0.0
H1395 H 0.49009 0.92207 0.66677 0.0
H1396 H 0.41324 0.93382 0.56226 0.0
H1397 H 0.35414 0.89924 0.59349 0.0
C1398 C 0.35286 0.87107 0.66696 0.0
C1399 C 0.35664 0.85682 0.70572 0.0
C1400 C 0.38729 0.89019 0.64846 0.0
C1401 C 0.39571 0.86339 0.72556 0.0
C1402 C 0.42989 0.88262 0.70748 0.0
C1403 C 0.46048 0.91702 0.6506 0.0
C1404 C 0.45681 0.93119 0.61171 0.0
C1405 C 0.42618 0.89647 0.66892 0.0
C1406 C 0.4177 0.92365 0.59188 0.0
C1407 C 0.38361 0.90377 0.60989 0.0
H1408 H 0.22974 0.36203 0.71412 0.0
H1409 H 0.15409 0.25198 0.68156 0.0
H1410 H 0.11165 0.29063 0.63649 0.0
H1411 H 0.09103 0.35641 0.60939 0.0
H1412 H 0.16834 0.46603 0.64277 0.0
H1413 H 0.21346 0.42775 0.68264 0.0
C1414 C 0.20495 0.3465 0.69622 0.0
C1415 C 0.19663 0.30357 0.70093 0.0
C1416 C 0.17959 0.36926 0.67031 0.0
C1417 C 0.16264 0.28473 0.67819 0.0
C1418 C 0.13774 0.30702 0.65246 0.0
C1419 C 0.11797 0.3722 0.62484 0.0
C1420 C 0.12486 0.41498 0.62247 0.0
C1421 C 0.14508 0.34947 0.64865 0.0
C1422 C 0.16069 0.43361 0.64353 0.0
C1423 C 0.18716 0.41151 0.66675 0.0
H1424 H 0.69149 0.24772 0.66267 0.0
H1425 H 0.78458 0.18122 0.68815 0.0
H1426 H 0.74968 0.13969 0.64201 0.0
H1427 H 0.68879 0.11583 0.60077 0.0
H1428 H 0.59307 0.17859 0.5766 0.0
H1429 H 0.6331 0.22839 0.61514 0.0
C1430 C 0.7043 0.22445 0.65801 0.0
C1431 C 0.74018 0.21716 0.67998 0.0
C1432 C 0.68349 0.19982 0.63156 0.0
C1433 C 0.75667 0.18724 0.67257 0.0
C1434 C 0.73672 0.16335 0.646 0.0
C1435 C 0.67699 0.14095 0.60323 0.0
C1436 C 0.63789 0.14333 0.58601 0.0
C1437 C 0.69951 0.16843 0.6263 0.0
C1438 C 0.62319 0.17622 0.58926 0.0
C1439 C 0.64591 0.20438 0.61173 0.0
H1440 H 0.82148 0.31825 0.38242 0.0
H1441 H 0.91476 0.26673 0.36515 0.0
H1442 H 0.96292 0.30504 0.40886 0.0
H1443 H 0.98131 0.36185 0.44527 0.0
H1444 H 0.88695 0.41267 0.46191 0.0
H1445 H 0.83719 0.36671 0.42576 0.0
C1446 C 0.85244 0.31588 0.3877 0.0
C1447 C 0.86477 0.29191 0.36789 0.0
C1448 C 0.88016 0.33815 0.41316 0.0
C1449 C 0.90437 0.28642 0.37811 0.0
C1450 C 0.93217 0.30839 0.4034 0.0
C1451 C 0.94968 0.36186 0.44204 0.0
C1452 C 0.93802 0.39068 0.45678 0.0
C1453 C 0.92089 0.3357 0.42008 0.0
C1454 C 0.89685 0.3907 0.45136 0.0
C1455 C 0.86831 0.36461 0.43024 0.0
H1456 H 0.64655 0.85827 0.38973 0.0
H1457 H 0.75359 0.90237 0.46264 0.0
H1458 H 0.71906 0.94475 0.48304 0.0
H1459 H 0.65682 0.96745 0.48259 0.0
H1460 H 0.55194 0.92672 0.40596 0.0
H1461 H 0.58713 0.88571 0.38482 0.0
C1462 C 0.6627 0.87765 0.40955 0.0
C1463 C 0.70254 0.87609 0.42504 0.0
C1464 C 0.64278 0.90265 0.42094 0.0
C1465 C 0.72258 0.90171 0.45086 0.0
C1466 C 0.70287 0.92626 0.46253 0.0
C1467 C 0.64179 0.94972 0.46119 0.0
C1468 C 0.6016 0.95027 0.44613 0.0
C1469 C 0.66263 0.92647 0.44834 0.0
C1470 C 0.58285 0.92725 0.41809 0.0
C1471 C 0.60296 0.90356 0.40591 0.0
H1472 H 0.2472 0.69763 0.40089 0.0
H1473 H 0.17846 0.6839 0.2941 0.0
H1474 H 0.12271 0.63676 0.32352 0.0
H1475 H 0.09147 0.60253 0.37955 0.0
H1476 H 0.15849 0.61839 0.48691 0.0
H1477 H 0.21639 0.66115 0.45757 0.0
C1478 C 0.22034 0.6835 0.38414 0.0
C1479 C 0.21783 0.69306 0.3452 0.0
C1480 C 0.18767 0.65712 0.40145 0.0
C1481 C 0.18203 0.67584 0.32398 0.0
C1482 C 0.14985 0.64922 0.34087 0.0
C1483 C 0.11872 0.61512 0.39673 0.0
C1484 C 0.12005 0.60709 0.43567 0.0
C1485 C 0.15203 0.64005 0.3796 0.0
C1486 C 0.15607 0.6239 0.45703 0.0
C1487 C 0.18939 0.64845 0.44019 0.0
H1488 H 0.31665 0.14765 0.3722 0.0
H1489 H 0.39603 0.25256 0.31875 0.0
H1490 H 0.45467 0.22875 0.35482 0.0
H1491 H 0.48436 0.17375 0.39876 0.0
H1492 H 0.40263 0.07036 0.45201 0.0
H1493 H 0.34542 0.09769 0.41977 0.0
C1494 C 0.34676 0.16584 0.36875 0.0
C1495 C 0.3511 0.20238 0.34247 0.0
C1496 C 0.38065 0.15181 0.38989 0.0
C1497 C 0.39091 0.22481 0.33871 0.0
C1498 C 0.42477 0.21085 0.3594 0.0
C1499 C 0.45416 0.15774 0.40422 0.0
C1500 C 0.44865 0.11972 0.42893 0.0
C1501 C 0.42029 0.17389 0.38483 0.0
C1502 C 0.40859 0.09957 0.43408 0.0
C1503 C 0.37548 0.11518 0.41523 0.0
H1504 H 0.75464 0.87388 0.67266 0.0
H1505 H 0.66484 0.77295 0.71766 0.0
H1506 H 0.61132 0.80398 0.67998 0.0
H1507 H 0.58915 0.86333 0.6361 0.0
H1508 H 0.68102 0.96394 0.59321 0.0
H1509 H 0.73318 0.92989 0.62705 0.0
C1510 C 0.72335 0.85819 0.67392 0.0
C1511 C 0.71451 0.82016 0.69781 0.0
C1512 C 0.69242 0.87661 0.6521 0.0
C1513 C 0.6733 0.80142 0.69921 0.0
C1514 C 0.64242 0.81954 0.67762 0.0
C1515 C 0.62049 0.87743 0.63337 0.0
C1516 C 0.63041 0.91661 0.61097 0.0
C1517 C 0.65136 0.8575 0.65401 0.0
C1518 C 0.67176 0.93408 0.60935 0.0
C1519 C 0.70196 0.91455 0.62911 0.0
H1520 H 0.75082 0.21034 0.38546 0.0
H1521 H 0.69279 0.17178 0.28263 0.0
H1522 H 0.63472 0.13028 0.31262 0.0
H1523 H 0.60063 0.10268 0.36887 0.0
H1524 H 0.6601 0.13892 0.47262 0.0
H1525 H 0.71639 0.183 0.44185 0.0
C1526 C 0.72503 0.19354 0.36944 0.0
C1527 C 0.7257 0.19594 0.33116 0.0
C1528 C 0.69178 0.16872 0.38733 0.0
C1529 C 0.69267 0.1722 0.31152 0.0
C1530 C 0.65949 0.14795 0.32891 0.0
C1531 C 0.62578 0.12021 0.38494 0.0
C1532 C 0.62542 0.11685 0.42353 0.0
C1533 C 0.65866 0.14567 0.36691 0.0
C1534 C 0.65891 0.14021 0.44323 0.0
C1535 C 0.69135 0.16572 0.42548 0.0
H1536 H 0.91325 0.7498 0.36033 0.0
H1537 H 0.81946 0.66099 0.3102 0.0
H1538 H 0.84929 0.60665 0.34902 0.0
H1539 H 0.90473 0.58381 0.39592 0.0
H1540 H 0.99644 0.67368 0.44739 0.0
H1541 H 0.96503 0.7269 0.41014 0.0
C1542 C 0.89879 0.71848 0.3582 0.0
C1543 C 0.86323 0.71013 0.33227 0.0
C1544 C 0.91625 0.68706 0.38106 0.0
C1545 C 0.84597 0.66899 0.32998 0.0
C1546 C 0.86345 0.63771 0.35222 0.0
C1547 C 0.91789 0.61496 0.39939 0.0
C1548 C 0.95381 0.62379 0.42517 0.0
C1549 C 0.89897 0.6462 0.37772 0.0
C1550 C 0.96933 0.66494 0.4285 0.0
C1551 C 0.95122 0.69579 0.40684 0.0
H1552 H 0.32017 0.83011 0.38397 0.0
H1553 H 0.41315 0.80344 0.33814 0.0
H1554 H 0.46472 0.83747 0.38243 0.0
H1555 H 0.48382 0.88144 0.42955 0.0
H1556 H 0.39154 0.913 0.47214 0.0
H1557 H 0.3392 0.8702 0.43451 0.0
C1558 C 0.35172 0.83196 0.38372 0.0
C1559 C 0.36297 0.8144 0.35791 0.0
C1560 C 0.38127 0.85212 0.40904 0.0
C1561 C 0.40384 0.81617 0.35823 0.0
C1562 C 0.43334 0.83582 0.38341 0.0
C1563 C 0.45223 0.87747 0.43163 0.0
C1564 C 0.44133 0.8993 0.45413 0.0
C1565 C 0.42249 0.85442 0.4086 0.0
C1566 C 0.40039 0.89545 0.45566 0.0
C1567 C 0.37055 0.87155 0.43371 0.0
H1568 H 0.23354 0.42458 0.45327 0.0
H1569 H 0.17535 0.42462 0.34078 0.0
H1570 H 0.11919 0.44554 0.35574 0.0
H1571 H 0.08637 0.46376 0.40104 0.0
H1572 H 0.14605 0.46431 0.51323 0.0
H1573 H 0.20191 0.44408 0.49778 0.0
C1574 C 0.20884 0.42959 0.43183 0.0
C1575 C 0.20885 0.42296 0.39592 0.0
C1576 C 0.17679 0.44191 0.44054 0.0
C1577 C 0.17603 0.42891 0.36879 0.0
C1578 C 0.14397 0.44117 0.37727 0.0
C1579 C 0.11163 0.4596 0.4221 0.0
C1580 C 0.11167 0.46557 0.45831 0.0
C1581 C 0.14395 0.44771 0.4131 0.0
C1582 C 0.14486 0.45996 0.48514 0.0
C1583 C 0.17698 0.4483 0.47637 0.0
H1584 H 0.39055 0.17929 0.57246 0.0
H1585 H 0.4483 0.17817 0.68501 0.0
H1586 H 0.48519 0.12972 0.67803 0.0
H1587 H 0.50376 0.09037 0.63861 0.0
H1588 H 0.44403 0.09094 0.52635 0.0
H1589 H 0.40532 0.13645 0.53469 0.0
C1590 C 0.41119 0.16836 0.59547 0.0
C1591 C 0.41694 0.18261 0.62909 0.0
C1592 C 0.43203 0.14031 0.59132 0.0
C1593 C 0.44326 0.16763 0.65886 0.0
C1594 C 0.46447 0.14003 0.65483 0.0
C1595 C 0.48195 0.10004 0.6161 0.0
C1596 C 0.47723 0.08719 0.58183 0.0
C1597 C 0.45946 0.12645 0.62102 0.0
C1598 C 0.44859 0.10014 0.55307 0.0
C1599 C 0.4264 0.12641 0.55772 0.0
H1600 H 0.8406 0.31977 0.67666 0.0
H1601 H 0.9099 0.37237 0.77009 0.0
H1602 H 0.95505 0.4206 0.7301 0.0
H1603 H 0.97927 0.44415 0.67059 0.0
H1604 H 0.91538 0.39095 0.57584 0.0
H1605 H 0.86413 0.34723 0.61386 0.0
C1606 C 0.86485 0.34265 0.6879 0.0
C1607 C 0.87112 0.34299 0.72649 0.0
C1608 C 0.89231 0.36981 0.66454 0.0
C1609 C 0.90384 0.37181 0.74065 0.0
C1610 C 0.92997 0.39929 0.71776 0.0
C1611 C 0.95414 0.42317 0.65787 0.0
C1612 C 0.95188 0.42087 0.62016 0.0
C1613 C 0.92524 0.39791 0.67995 0.0
C1614 C 0.91837 0.39361 0.60464 0.0
C1615 C 0.88897 0.36847 0.62653 0.0
H1616 H 0.24183 0.72829 0.65527 0.0
H1617 H 0.14654 0.73976 0.70885 0.0
H1618 H 0.097 0.69637 0.6699 0.0
H1619 H 0.081 0.6497 0.62415 0.0
H1620 H 0.17645 0.63735 0.57177 0.0
H1621 H 0.22515 0.68641 0.6061 0.0
C1622 C 0.21022 0.72167 0.65833 0.0
C1623 C 0.19834 0.73731 0.68553 0.0
C1624 C 0.18163 0.69638 0.63574 0.0
C1625 C 0.15695 0.72832 0.68848 0.0
C1626 C 0.12844 0.70332 0.66613 0.0
C1627 C 0.11224 0.65886 0.61936 0.0
C1628 C 0.1248 0.64062 0.59451 0.0
C1629 C 0.1404 0.68657 0.64004 0.0
C1630 C 0.16573 0.65167 0.58982 0.0
C1631 C 0.19371 0.67943 0.60985 0.0
loop_
_geom_bond_atom_site_label_1
_geom_bond_atom_site_label_2
_geom_bond_distance
_geom_bond_site_symmetry_2
_ccdc_geom_bond_type
Tb0 N31 2.660 . S
Tb0 N38 2.600 . S
Tb0 O44 2.546 . S
Tb0 O45 2.610 . S
Tb0 O47 2.320 . S
Tb0 O48 2.552 . S
Tb0 O49 2.413 . S
Tb0 O51 2.362 . S
Tb0 O52 2.421 . S
Tb0 C64 2.833 . S
C1 C4 1.432 . S
C1 C5 1.414 . S
C1 N8 1.359 . S
C2 C4 1.417 . S
C2 C6 1.432 . S
C2 C14 1.410 . S
C3 C5 1.444 . S
C3 C6 1.317 . S
C3 H26 0.929 . S
C4 C1 1.432 . S
C4 C2 1.417 . S
C4 N12 1.360 . S
C5 C1 1.414 . S
C5 C3 1.444 . S
C5 C10 1.385 . S
C6 C2 1.432 . S
C6 C3 1.317 . S
C6 H18 0.930 . S
C7 C9 1.392 . S
C7 C10 1.370 . S
C7 H19 0.931 . S
N8 C1 1.359 . S
N8 C9 1.327 . S
N8 Tb11 2.600 . S
C9 C7 1.392 . S
C9 N8 1.327 . S
C9 H16 0.930 . S
C10 C5 1.385 . S
C10 C7 1.370 . S
C10 H29 0.930 . S
Tb11 N8 2.600 . S
Tb11 N12 2.660 . S
Tb11 O45 2.362 . S
Tb11 O46 2.421 . S
Tb11 O50 2.546 . S
Tb11 O51 2.610 . S
Tb11 O53 2.320 . S
Tb11 O54 2.552 . S
Tb11 O55 2.413 . S
Tb11 C75 2.833 . S
N12 C4 1.360 . S
N12 Tb11 2.660 . S
N12 C13 1.305 . S
C13 N12 1.305 . S
C13 C15 1.407 . S
C13 H20 0.930 . S
C14 C2 1.410 . S
C14 C15 1.345 . S
C14 H22 0.930 . S
C15 C13 1.407 . S
C15 C14 1.345 . S
C15 H17 0.930 . S
H16 C9 0.930 . S
H17 C15 0.930 . S
H18 C6 0.930 . S
H19 C7 0.931 . S
H20 C13 0.930 . S
H21 C35 0.930 . S
H22 C14 0.930 . S
H23 C41 0.930 . S
H24 C32 0.930 . S
H25 C39 0.931 . S
H26 C3 0.929 . S
H27 C33 0.930 . S
H28 C66 0.930 . S
H29 C10 0.930 . S
H30 C65 0.929 . S
N31 Tb0 2.660 . S
N31 C32 1.305 . S
N31 C36 1.360 . S
C32 H24 0.930 . S
C32 N31 1.305 . S
C32 C35 1.407 . S
C33 H27 0.930 . S
C33 C34 1.410 . S
C33 C35 1.345 . S
C34 C33 1.410 . S
C34 C36 1.417 . S
C34 C66 1.432 . S
C35 H21 0.930 . S
C35 C32 1.407 . S
C35 C33 1.345 . S
C36 N31 1.360 . S
C36 C34 1.417 . S
C36 C40 1.432 . S
H37 C42 0.930 . S
N38 Tb0 2.600 . S
N38 C40 1.359 . S
N38 C41 1.327 . S
C39 H25 0.931 . S
C39 C41 1.392 . S
C39 C42 1.370 . S
C40 C36 1.432 . S
C40 N38 1.359 . S
C40 C43 1.414 . S
C41 H23 0.930 . S
C41 N38 1.327 . S
C41 C39 1.392 . S
C42 H37 0.930 . S
C42 C39 1.370 . S
C42 C43 1.385 . S
C43 C40 1.414 . S
C43 C42 1.385 . S
C43 C65 1.444 . S
O44 Tb0 2.546 . S
O44 C64 1.251 . S
O45 Tb0 2.610 . S
O45 Tb11 2.362 . S
O45 C56 1.283 . S
O46 Tb11 2.421 . S
O46 C63 1.262 . S
O47 Tb0 2.320 . S
O47 C63 1.260 . S
O48 Tb0 2.552 . S
O48 C56 1.243 . S
O49 Tb0 2.413 . S
O49 C64 1.256 . S
O50 Tb11 2.546 . S
O50 C75 1.251 . S
O51 Tb0 2.362 . S
O51 Tb11 2.610 . S
O51 C67 1.283 . S
O52 Tb0 2.421 . S
O52 C74 1.262 . S
O53 Tb11 2.320 . S
O53 C74 1.260 . S
O54 Tb11 2.552 . S
O54 C67 1.243 . S
O55 Tb11 2.413 . S
O55 C75 1.256 . S
C56 O45 1.283 . S
C56 O48 1.243 . S
C57 C59 1.382 . S
C57 C61 1.393 . S
C57 C64 1.500 . S
C58 C59 1.400 . S
C58 C60 1.384 . S
C59 C57 1.382 . S
C59 C58 1.400 . S
C59 H76 0.930 . S
C60 C58 1.384 . S
C60 C62 1.392 . S
C60 H77 0.931 . S
C61 C57 1.393 . S
C61 C62 1.401 . S
C61 H78 0.930 . S
C62 C60 1.392 . S
C62 C61 1.401 . S
C62 H79 0.930 . S
C63 O46 1.262 . S
C63 O47 1.260 . S
C64 Tb0 2.833 . S
C64 O44 1.251 . S
C64 O49 1.256 . S
C64 C57 1.500 . S
C65 H30 0.929 . S
C65 C43 1.444 . S
C65 C66 1.317 . S
C66 H28 0.930 . S
C66 C34 1.432 . S
C66 C65 1.317 . S
C67 O51 1.283 . S
C67 O54 1.243 . S
C68 C69 1.382 . S
C68 C72 1.393 . S
C68 C75 1.500 . S
C69 C68 1.382 . S
C69 C70 1.400 . S
C69 H80 0.930 . S
C70 C69 1.400 . S
C70 C71 1.384 . S
C71 C70 1.384 . S
C71 C73 1.392 . S
C71 H81 0.931 . S
C72 C68 1.393 . S
C72 C73 1.401 . S
C72 H82 0.930 . S
C73 C71 1.392 . S
C73 C72 1.401 . S
C73 H83 0.930 . S
C74 O52 1.262 . S
C74 O53 1.260 . S
C75 Tb11 2.833 . S
C75 O50 1.251 . S
C75 O55 1.256 . S
C75 C68 1.500 . S
H76 C59 0.930 . S
H77 C60 0.931 . S
H78 C61 0.930 . S
H79 C62 0.930 . S
H80 C69 0.930 . S
H81 C71 0.931 . S
H82 C72 0.930 . S
H83 C73 0.930 . S
Tb84 N115 2.660 . S
Tb84 N122 2.600 . S
Tb84 O128 2.546 . S
Tb84 O129 2.610 . S
Tb84 O131 2.320 . S
Tb84 O132 2.552 . S
Tb84 O133 2.413 . S
Tb84 O135 2.362 . S
Tb84 O136 2.421 . S
Tb84 C148 2.833 . S
C85 C88 1.432 . S
C85 C89 1.414 . S
C85 N92 1.359 . S
C86 C88 1.417 . S
C86 C90 1.432 . S
C86 C98 1.410 . S
C87 C89 1.444 . S
C87 C90 1.317 . S
C87 H110 0.929 . S
C88 C85 1.432 . S
C88 C86 1.417 . S
C88 N96 1.360 . S
C89 C85 1.414 . S
C89 C87 1.444 . S
C89 C94 1.385 . S
C90 C86 1.432 . S
C90 C87 1.317 . S
C90 H102 0.930 . S
C91 C93 1.392 . S
C91 C94 1.370 . S
C91 H103 0.931 . S
N92 C85 1.359 . S
N92 C93 1.327 . S
N92 Tb95 2.600 . S
C93 C91 1.392 . S
C93 N92 1.327 . S
C93 H100 0.930 . S
C94 C89 1.385 . S
C94 C91 1.370 . S
C94 H113 0.930 . S
Tb95 N92 2.600 . S
Tb95 N96 2.660 . S
Tb95 O129 2.362 . S
Tb95 O130 2.421 . S
Tb95 O134 2.546 . S
Tb95 O135 2.610 . S
Tb95 O137 2.320 . S
Tb95 O138 2.552 . S
Tb95 O139 2.413 . S
Tb95 C159 2.833 . S
N96 C88 1.360 . S
N96 Tb95 2.660 . S
N96 C97 1.305 . S
C97 N96 1.305 . S
C97 C99 1.407 . S
C97 H104 0.930 . S
C98 C86 1.410 . S
C98 C99 1.345 . S
C98 H106 0.930 . S
C99 C97 1.407 . S
C99 C98 1.345 . S
C99 H101 0.930 . S
H100 C93 0.930 . S
H101 C99 0.930 . S
H102 C90 0.930 . S
H103 C91 0.931 . S
H104 C97 0.930 . S
H105 C119 0.930 . S
H106 C98 0.930 . S
H107 C125 0.930 . S
H108 C116 0.930 . S
H109 C123 0.931 . S
H110 C87 0.929 . S
H111 C117 0.930 . S
H112 C150 0.930 . S
H113 C94 0.930 . S
H114 C149 0.929 . S
N115 Tb84 2.660 . S
N115 C116 1.305 . S
N115 C120 1.360 . S
C116 H108 0.930 . S
C116 N115 1.305 . S
C116 C119 1.407 . S
C117 H111 0.930 . S
C117 C118 1.410 . S
C117 C119 1.345 . S
C118 C117 1.410 . S
C118 C120 1.417 . S
C118 C150 1.432 . S
C119 H105 0.930 . S
C119 C116 1.407 . S
C119 C117 1.345 . S
C120 N115 1.360 . S
C120 C118 1.417 . S
C120 C124 1.432 . S
H121 C126 0.930 . S
N122 Tb84 2.600 . S
N122 C124 1.359 . S
N122 C125 1.327 . S
C123 H109 0.931 . S
C123 C125 1.392 . S
C123 C126 1.370 . S
C124 C120 1.432 . S
C124 N122 1.359 . S
C124 C127 1.414 . S
C125 H107 0.930 . S
C125 N122 1.327 . S
C125 C123 1.392 . S
C126 H121 0.930 . S
C126 C123 1.370 . S
C126 C127 1.385 . S
C127 C124 1.414 . S
C127 C126 1.385 . S
C127 C149 1.444 . S
O128 Tb84 2.546 . S
O128 C148 1.251 . S
O129 Tb84 2.610 . S
O129 Tb95 2.362 . S
O129 C140 1.283 . S
O130 Tb95 2.421 . S
O130 C147 1.262 . S
O131 Tb84 2.320 . S
O131 C147 1.260 . S
O132 Tb84 2.552 . S
O132 C140 1.243 . S
O133 Tb84 2.413 . S
O133 C148 1.256 . S
O134 Tb95 2.546 . S
O134 C159 1.251 . S
O135 Tb84 2.362 . S
O135 Tb95 2.610 . S
O135 C151 1.283 . S
O136 Tb84 2.421 . S
O136 C158 1.262 . S
O137 Tb95 2.320 . S
O137 C158 1.260 . S
O138 Tb95 2.552 . S
O138 C151 1.243 . S
O139 Tb95 2.413 . S
O139 C159 1.256 . S
C140 O129 1.283 . S
C140 O132 1.243 . S
C141 C143 1.382 . S
C141 C145 1.393 . S
C141 C148 1.500 . S
C142 C143 1.400 . S
C142 C144 1.384 . S
C143 C141 1.382 . S
C143 C142 1.400 . S
C143 H160 0.930 . S
C144 C142 1.384 . S
C144 C146 1.392 . S
C144 H161 0.931 . S
C145 C141 1.393 . S
C145 C146 1.401 . S
C145 H162 0.930 . S
C146 C144 1.392 . S
C146 C145 1.401 . S
C146 H163 0.930 . S
C147 O130 1.262 . S
C147 O131 1.260 . S
C148 Tb84 2.833 . S
C148 O128 1.251 . S
C148 O133 1.256 . S
C148 C141 1.500 . S
C149 H114 0.929 . S
C149 C127 1.444 . S
C149 C150 1.317 . S
C150 H112 0.930 . S
C150 C118 1.432 . S
C150 C149 1.317 . S
C151 O135 1.283 . S
C151 O138 1.243 . S
C152 C153 1.382 . S
C152 C156 1.393 . S
C152 C159 1.500 . S
C153 C152 1.382 . S
C153 C154 1.400 . S
C153 H164 0.930 . S
C154 C153 1.400 . S
C154 C155 1.384 . S
C155 C154 1.384 . S
C155 C157 1.392 . S
C155 H165 0.931 . S
C156 C152 1.393 . S
C156 C157 1.401 . S
C156 H166 0.930 . S
C157 C155 1.392 . S
C157 C156 1.401 . S
C157 H167 0.930 . S
C158 O136 1.262 . S
C158 O137 1.260 . S
C159 Tb95 2.833 . S
C159 O134 1.251 . S
C159 O139 1.256 . S
C159 C152 1.500 . S
H160 C143 0.930 . S
H161 C144 0.931 . S
H162 C145 0.930 . S
H163 C146 0.930 . S
H164 C153 0.930 . S
H165 C155 0.931 . S
H166 C156 0.930 . S
H167 C157 0.930 . S
Tb168 N199 2.660 . S
Tb168 N206 2.600 . S
Tb168 O212 2.546 . S
Tb168 O213 2.610 . S
Tb168 O215 2.320 . S
Tb168 O216 2.552 . S
Tb168 O217 2.413 . S
Tb168 O219 2.362 . S
Tb168 O220 2.421 . S
Tb168 C232 2.833 . S
C169 C172 1.432 . S
C169 C173 1.414 . S
C169 N176 1.359 . S
C170 C172 1.417 . S
C170 C174 1.432 . S
C170 C182 1.410 . S
C171 C173 1.444 . S
C171 C174 1.317 . S
C171 H194 0.929 . S
C172 C169 1.432 . S
C172 C170 1.417 . S
C172 N180 1.360 . S
C173 C169 1.414 . S
C173 C171 1.444 . S
C173 C178 1.385 . S
C174 C170 1.432 . S
C174 C171 1.317 . S
C174 H186 0.930 . S
C175 C177 1.392 . S
C175 C178 1.370 . S
C175 H187 0.931 . S
N176 C169 1.359 . S
N176 C177 1.327 . S
N176 Tb179 2.600 . S
C177 C175 1.392 . S
C177 N176 1.327 . S
C177 H184 0.930 . S
C178 C173 1.385 . S
C178 C175 1.370 . S
C178 H197 0.930 . S
Tb179 N176 2.600 . S
Tb179 N180 2.660 . S
Tb179 O213 2.362 . S
Tb179 O214 2.421 . S
Tb179 O218 2.546 . S
Tb179 O219 2.610 . S
Tb179 O221 2.320 . S
Tb179 O222 2.552 . S
Tb179 O223 2.413 . S
Tb179 C243 2.833 . S
N180 C172 1.360 . S
N180 Tb179 2.660 . S
N180 C181 1.305 . S
C181 N180 1.305 . S
C181 C183 1.407 . S
C181 H188 0.930 . S
C182 C170 1.410 . S
C182 C183 1.345 . S
C182 H190 0.930 . S
C183 C181 1.407 . S
C183 C182 1.345 . S
C183 H185 0.930 . S
H184 C177 0.930 . S
H185 C183 0.930 . S
H186 C174 0.930 . S
H187 C175 0.931 . S
H188 C181 0.930 . S
H189 C203 0.930 . S
H190 C182 0.930 . S
H191 C209 0.930 . S
H192 C200 0.930 . S
H193 C207 0.931 . S
H194 C171 0.929 . S
H195 C201 0.930 . S
H196 C234 0.930 . S
H197 C178 0.930 . S
H198 C233 0.929 . S
N199 Tb168 2.660 . S
N199 C200 1.305 . S
N199 C204 1.360 . S
C200 H192 0.930 . S
C200 N199 1.305 . S
C200 C203 1.407 . S
C201 H195 0.930 . S
C201 C202 1.410 . S
C201 C203 1.345 . S
C202 C201 1.410 . S
C202 C204 1.417 . S
C202 C234 1.432 . S
C203 H189 0.930 . S
C203 C200 1.407 . S
C203 C201 1.345 . S
C204 N199 1.360 . S
C204 C202 1.417 . S
C204 C208 1.432 . S
H205 C210 0.930 . S
N206 Tb168 2.600 . S
N206 C208 1.359 . S
N206 C209 1.327 . S
C207 H193 0.931 . S
C207 C209 1.392 . S
C207 C210 1.370 . S
C208 C204 1.432 . S
C208 N206 1.359 . S
C208 C211 1.414 . S
C209 H191 0.930 . S
C209 N206 1.327 . S
C209 C207 1.392 . S
C210 H205 0.930 . S
C210 C207 1.370 . S
C210 C211 1.385 . S
C211 C208 1.414 . S
C211 C210 1.385 . S
C211 C233 1.444 . S
O212 Tb168 2.546 . S
O212 C232 1.251 . S
O213 Tb168 2.610 . S
O213 Tb179 2.362 . S
O213 C224 1.283 . S
O214 Tb179 2.421 . S
O214 C231 1.262 . S
O215 Tb168 2.320 . S
O215 C231 1.260 . S
O216 Tb168 2.552 . S
O216 C224 1.243 . S
O217 Tb168 2.413 . S
O217 C232 1.256 . S
O218 Tb179 2.546 . S
O218 C243 1.251 . S
O219 Tb168 2.362 . S
O219 Tb179 2.610 . S
O219 C235 1.283 . S
O220 Tb168 2.421 . S
O220 C242 1.262 . S
O221 Tb179 2.320 . S
O221 C242 1.260 . S
O222 Tb179 2.552 . S
O222 C235 1.243 . S
O223 Tb179 2.413 . S
O223 C243 1.256 . S
C224 O213 1.283 . S
C224 O216 1.243 . S
C225 C227 1.382 . S
C225 C229 1.393 . S
C225 C232 1.500 . S
C226 C227 1.400 . S
C226 C228 1.384 . S
C227 C225 1.382 . S
C227 C226 1.400 . S
C227 H244 0.930 . S
C228 C226 1.384 . S
C228 C230 1.392 . S
C228 H245 0.931 . S
C229 C225 1.393 . S
C229 C230 1.401 . S
C229 H246 0.930 . S
C230 C228 1.392 . S
C230 C229 1.401 . S
C230 H247 0.930 . S
C231 O214 1.262 . S
C231 O215 1.260 . S
C232 Tb168 2.833 . S
C232 O212 1.251 . S
C232 O217 1.256 . S
C232 C225 1.500 . S
C233 H198 0.929 . S
C233 C211 1.444 . S
C233 C234 1.317 . S
C234 H196 0.930 . S
C234 C202 1.432 . S
C234 C233 1.317 . S
C235 O219 1.283 . S
C235 O222 1.243 . S
C236 C237 1.382 . S
C236 C240 1.393 . S
C236 C243 1.500 . S
C237 C236 1.382 . S
C237 C238 1.400 . S
C237 H248 0.930 . S
C238 C237 1.400 . S
C238 C239 1.384 . S
C239 C238 1.384 . S
C239 C241 1.392 . S
C239 H249 0.931 . S
C240 C236 1.393 . S
C240 C241 1.401 . S
C240 H250 0.930 . S
C241 C239 1.392 . S
C241 C240 1.401 . S
C241 H251 0.930 . S
C242 O220 1.262 . S
C242 O221 1.260 . S
C243 Tb179 2.833 . S
C243 O218 1.251 . S
C243 O223 1.256 . S
C243 C236 1.500 . S
H244 C227 0.930 . S
H245 C228 0.931 . S
H246 C229 0.930 . S
H247 C230 0.930 . S
H248 C237 0.930 . S
H249 C239 0.931 . S
H250 C240 0.930 . S
H251 C241 0.930 . S
Tb252 N283 2.660 . S
Tb252 N290 2.600 . S
Tb252 O296 2.546 . S
Tb252 O297 2.610 . S
Tb252 O299 2.320 . S
Tb252 O300 2.552 . S
Tb252 O301 2.413 . S
Tb252 O303 2.362 . S
Tb252 O304 2.421 . S
Tb252 C316 2.833 . S
C253 C256 1.432 . S
C253 C257 1.414 . S
C253 N260 1.359 . S
C254 C256 1.417 . S
C254 C258 1.432 . S
C254 C266 1.410 . S
C255 C257 1.444 . S
C255 C258 1.317 . S
C255 H278 0.929 . S
C256 C253 1.432 . S
C256 C254 1.417 . S
C256 N264 1.360 . S
C257 C253 1.414 . S
C257 C255 1.444 . S
C257 C262 1.385 . S
C258 C254 1.432 . S
C258 C255 1.317 . S
C258 H270 0.930 . S
C259 C261 1.392 . S
C259 C262 1.370 . S
C259 H271 0.931 . S
N260 C253 1.359 . S
N260 C261 1.327 . S
N260 Tb263 2.600 . S
C261 C259 1.392 . S
C261 N260 1.327 . S
C261 H268 0.930 . S
C262 C257 1.385 . S
C262 C259 1.370 . S
C262 H281 0.930 . S
Tb263 N260 2.600 . S
Tb263 N264 2.660 . S
Tb263 O297 2.362 . S
Tb263 O298 2.421 . S
Tb263 O302 2.546 . S
Tb263 O303 2.610 . S
Tb263 O305 2.320 . S
Tb263 O306 2.552 . S
Tb263 O307 2.413 . S
Tb263 C327 2.833 . S
N264 C256 1.360 . S
N264 Tb263 2.660 . S
N264 C265 1.305 . S
C265 N264 1.305 . S
C265 C267 1.407 . S
C265 H272 0.930 . S
C266 C254 1.410 . S
C266 C267 1.345 . S
C266 H274 0.930 . S
C267 C265 1.407 . S
C267 C266 1.345 . S
C267 H269 0.930 . S
H268 C261 0.930 . S
H269 C267 0.930 . S
H270 C258 0.930 . S
H271 C259 0.931 . S
H272 C265 0.930 . S
H273 C287 0.930 . S
H274 C266 0.930 . S
H275 C293 0.930 . S
H276 C284 0.930 . S
H277 C291 0.931 . S
H278 C255 0.929 . S
H279 C285 0.930 . S
H280 C318 0.930 . S
H281 C262 0.930 . S
H282 C317 0.929 . S
N283 Tb252 2.660 . S
N283 C284 1.305 . S
N283 C288 1.360 . S
C284 H276 0.930 . S
C284 N283 1.305 . S
C284 C287 1.407 . S
C285 H279 0.930 . S
C285 C286 1.410 . S
C285 C287 1.345 . S
C286 C285 1.410 . S
C286 C288 1.417 . S
C286 C318 1.432 . S
C287 H273 0.930 . S
C287 C284 1.407 . S
C287 C285 1.345 . S
C288 N283 1.360 . S
C288 C286 1.417 . S
C288 C292 1.432 . S
H289 C294 0.930 . S
N290 Tb252 2.600 . S
N290 C292 1.359 . S
N290 C293 1.327 . S
C291 H277 0.931 . S
C291 C293 1.392 . S
C291 C294 1.370 . S
C292 C288 1.432 . S
C292 N290 1.359 . S
C292 C295 1.414 . S
C293 H275 0.930 . S
C293 N290 1.327 . S
C293 C291 1.392 . S
C294 H289 0.930 . S
C294 C291 1.370 . S
C294 C295 1.385 . S
C295 C292 1.414 . S
C295 C294 1.385 . S
C295 C317 1.444 . S
O296 Tb252 2.546 . S
O296 C316 1.251 . S
O297 Tb252 2.610 . S
O297 Tb263 2.362 . S
O297 C308 1.283 . S
O298 Tb263 2.421 . S
O298 C315 1.262 . S
O299 Tb252 2.320 . S
O299 C315 1.260 . S
O300 Tb252 2.552 . S
O300 C308 1.243 . S
O301 Tb252 2.413 . S
O301 C316 1.256 . S
O302 Tb263 2.546 . S
O302 C327 1.251 . S
O303 Tb252 2.362 . S
O303 Tb263 2.610 . S
O303 C319 1.283 . S
O304 Tb252 2.421 . S
O304 C326 1.262 . S
O305 Tb263 2.320 . S
O305 C326 1.260 . S
O306 Tb263 2.552 . S
O306 C319 1.243 . S
O307 Tb263 2.413 . S
O307 C327 1.256 . S
C308 O297 1.283 . S
C308 O300 1.243 . S
C309 C311 1.382 . S
C309 C313 1.393 . S
C309 C316 1.500 . S
C310 C311 1.400 . S
C310 C312 1.384 . S
C311 C309 1.382 . S
C311 C310 1.400 . S
C311 H328 0.930 . S
C312 C310 1.384 . S
C312 C314 1.392 . S
C312 H329 0.931 . S
C313 C309 1.393 . S
C313 C314 1.401 . S
C313 H330 0.930 . S
C314 C312 1.392 . S
C314 C313 1.401 . S
C314 H331 0.930 . S
C315 O298 1.262 . S
C315 O299 1.260 . S
C316 Tb252 2.833 . S
C316 O296 1.251 . S
C316 O301 1.256 . S
C316 C309 1.500 . S
C317 H282 0.929 . S
C317 C295 1.444 . S
C317 C318 1.317 . S
C318 H280 0.930 . S
C318 C286 1.432 . S
C318 C317 1.317 . S
C319 O303 1.283 . S
C319 O306 1.243 . S
C320 C321 1.382 . S
C320 C324 1.393 . S
C320 C327 1.500 . S
C321 C320 1.382 . S
C321 C322 1.400 . S
C321 H332 0.930 . S
C322 C321 1.400 . S
C322 C323 1.384 . S
C323 C322 1.384 . S
C323 C325 1.392 . S
C323 H333 0.931 . S
C324 C320 1.393 . S
C324 C325 1.401 . S
C324 H334 0.930 . S
C325 C323 1.392 . S
C325 C324 1.401 . S
C325 H335 0.930 . S
C326 O304 1.262 . S
C326 O305 1.260 . S
C327 Tb263 2.833 . S
C327 O302 1.251 . S
C327 O307 1.256 . S
C327 C320 1.500 . S
H328 C311 0.930 . S
H329 C312 0.931 . S
H330 C313 0.930 . S
H331 C314 0.930 . S
H332 C321 0.930 . S
H333 C323 0.931 . S
H334 C324 0.930 . S
H335 C325 0.930 . S
Tb336 N367 2.660 . S
Tb336 N374 2.600 . S
Tb336 O380 2.546 . S
Tb336 O381 2.610 . S
Tb336 O383 2.320 . S
Tb336 O384 2.552 . S
Tb336 O385 2.413 . S
Tb336 O387 2.362 . S
Tb336 O388 2.421 . S
Tb336 C400 2.833 . S
C337 C340 1.432 . S
C337 C341 1.414 . S
C337 N344 1.359 . S
C338 C340 1.417 . S
C338 C342 1.432 . S
C338 C350 1.410 . S
C339 C341 1.444 . S
C339 C342 1.317 . S
C339 H362 0.929 . S
C340 C337 1.432 . S
C340 C338 1.417 . S
C340 N348 1.360 . S
C341 C337 1.414 . S
C341 C339 1.444 . S
C341 C346 1.385 . S
C342 C338 1.432 . S
C342 C339 1.317 . S
C342 H354 0.930 . S
C343 C345 1.392 . S
C343 C346 1.370 . S
C343 H355 0.931 . S
N344 C337 1.359 . S
N344 C345 1.327 . S
N344 Tb347 2.600 . S
C345 C343 1.392 . S
C345 N344 1.327 . S
C345 H352 0.930 . S
C346 C341 1.385 . S
C346 C343 1.370 . S
C346 H365 0.930 . S
Tb347 N344 2.600 . S
Tb347 N348 2.660 . S
Tb347 O381 2.362 . S
Tb347 O382 2.421 . S
Tb347 O386 2.546 . S
Tb347 O387 2.610 . S
Tb347 O389 2.320 . S
Tb347 O390 2.552 . S
Tb347 O391 2.413 . S
Tb347 C411 2.833 . S
N348 C340 1.360 . S
N348 Tb347 2.660 . S
N348 C349 1.305 . S
C349 N348 1.305 . S
C349 C351 1.407 . S
C349 H356 0.930 . S
C350 C338 1.410 . S
C350 C351 1.345 . S
C350 H358 0.930 . S
C351 C349 1.407 . S
C351 C350 1.345 . S
C351 H353 0.930 . S
H352 C345 0.930 . S
H353 C351 0.930 . S
H354 C342 0.930 . S
H355 C343 0.931 . S
H356 C349 0.930 . S
H357 C371 0.930 . S
H358 C350 0.930 . S
H359 C377 0.930 . S
H360 C368 0.930 . S
H361 C375 0.931 . S
H362 C339 0.929 . S
H363 C369 0.930 . S
H364 C402 0.930 . S
H365 C346 0.930 . S
H366 C401 0.929 . S
N367 Tb336 2.660 . S
N367 C368 1.305 . S
N367 C372 1.360 . S
C368 H360 0.930 . S
C368 N367 1.305 . S
C368 C371 1.407 . S
C369 H363 0.930 . S
C369 C370 1.410 . S
C369 C371 1.345 . S
C370 C369 1.410 . S
C370 C372 1.417 . S
C370 C402 1.432 . S
C371 H357 0.930 . S
C371 C368 1.407 . S
C371 C369 1.345 . S
C372 N367 1.360 . S
C372 C370 1.417 . S
C372 C376 1.432 . S
H373 C378 0.930 . S
N374 Tb336 2.600 . S
N374 C376 1.359 . S
N374 C377 1.327 . S
C375 H361 0.931 . S
C375 C377 1.392 . S
C375 C378 1.370 . S
C376 C372 1.432 . S
C376 N374 1.359 . S
C376 C379 1.414 . S
C377 H359 0.930 . S
C377 N374 1.327 . S
C377 C375 1.392 . S
C378 H373 0.930 . S
C378 C375 1.370 . S
C378 C379 1.385 . S
C379 C376 1.414 . S
C379 C378 1.385 . S
C379 C401 1.444 . S
O380 Tb336 2.546 . S
O380 C400 1.251 . S
O381 Tb336 2.610 . S
O381 Tb347 2.362 . S
O381 C392 1.283 . S
O382 Tb347 2.421 . S
O382 C399 1.262 . S
O383 Tb336 2.320 . S
O383 C399 1.260 . S
O384 Tb336 2.552 . S
O384 C392 1.243 . S
O385 Tb336 2.413 . S
O385 C400 1.256 . S
O386 Tb347 2.546 . S
O386 C411 1.251 . S
O387 Tb336 2.362 . S
O387 Tb347 2.610 . S
O387 C403 1.283 . S
O388 Tb336 2.421 . S
O388 C410 1.262 . S
O389 Tb347 2.320 . S
O389 C410 1.260 . S
O390 Tb347 2.552 . S
O390 C403 1.243 . S
O391 Tb347 2.413 . S
O391 C411 1.256 . S
C392 O381 1.283 . S
C392 O384 1.243 . S
C393 C395 1.382 . S
C393 C397 1.393 . S
C393 C400 1.500 . S
C394 C395 1.400 . S
C394 C396 1.384 . S
C395 C393 1.382 . S
C395 C394 1.400 . S
C395 H412 0.930 . S
C396 C394 1.384 . S
C396 C398 1.392 . S
C396 H413 0.931 . S
C397 C393 1.393 . S
C397 C398 1.401 . S
C397 H414 0.930 . S
C398 C396 1.392 . S
C398 C397 1.401 . S
C398 H415 0.930 . S
C399 O382 1.262 . S
C399 O383 1.260 . S
C400 Tb336 2.833 . S
C400 O380 1.251 . S
C400 O385 1.256 . S
C400 C393 1.500 . S
C401 H366 0.929 . S
C401 C379 1.444 . S
C401 C402 1.317 . S
C402 H364 0.930 . S
C402 C370 1.432 . S
C402 C401 1.317 . S
C403 O387 1.283 . S
C403 O390 1.243 . S
C404 C405 1.382 . S
C404 C408 1.393 . S
C404 C411 1.500 . S
C405 C404 1.382 . S
C405 C406 1.400 . S
C405 H416 0.930 . S
C406 C405 1.400 . S
C406 C407 1.384 . S
C407 C406 1.384 . S
C407 C409 1.392 . S
C407 H417 0.931 . S
C408 C404 1.393 . S
C408 C409 1.401 . S
C408 H418 0.930 . S
C409 C407 1.392 . S
C409 C408 1.401 . S
C409 H419 0.930 . S
C410 O388 1.262 . S
C410 O389 1.260 . S
C411 Tb347 2.833 . S
C411 O386 1.251 . S
C411 O391 1.256 . S
C411 C404 1.500 . S
H412 C395 0.930 . S
H413 C396 0.931 . S
H414 C397 0.930 . S
H415 C398 0.930 . S
H416 C405 0.930 . S
H417 C407 0.931 . S
H418 C408 0.930 . S
H419 C409 0.930 . S
Tb420 N451 2.660 . S
Tb420 N458 2.600 . S
Tb420 O464 2.546 . S
Tb420 O465 2.610 . S
Tb420 O467 2.320 . S
Tb420 O468 2.552 . S
Tb420 O469 2.413 . S
Tb420 O471 2.362 . S
Tb420 O472 2.421 . S
Tb420 C484 2.833 . S
C421 C424 1.432 . S
C421 C425 1.414 . S
C421 N428 1.359 . S
C422 C424 1.417 . S
C422 C426 1.432 . S
C422 C434 1.410 . S
C423 C425 1.444 . S
C423 C426 1.317 . S
C423 H446 0.929 . S
C424 C421 1.432 . S
C424 C422 1.417 . S
C424 N432 1.360 . S
C425 C421 1.414 . S
C425 C423 1.444 . S
C425 C430 1.385 . S
C426 C422 1.432 . S
C426 C423 1.317 . S
C426 H438 0.930 . S
C427 C429 1.392 . S
C427 C430 1.370 . S
C427 H439 0.931 . S
N428 C421 1.359 . S
N428 C429 1.327 . S
N428 Tb431 2.600 . S
C429 C427 1.392 . S
C429 N428 1.327 . S
C429 H436 0.930 . S
C430 C425 1.385 . S
C430 C427 1.370 . S
C430 H449 0.930 . S
Tb431 N428 2.600 . S
Tb431 N432 2.660 . S
Tb431 O465 2.362 . S
Tb431 O466 2.421 . S
Tb431 O470 2.546 . S
Tb431 O471 2.610 . S
Tb431 O473 2.320 . S
Tb431 O474 2.552 . S
Tb431 O475 2.413 . S
Tb431 C495 2.833 . S
N432 C424 1.360 . S
N432 Tb431 2.660 . S
N432 C433 1.305 . S
C433 N432 1.305 . S
C433 C435 1.407 . S
C433 H440 0.930 . S
C434 C422 1.410 . S
C434 C435 1.345 . S
C434 H442 0.930 . S
C435 C433 1.407 . S
C435 C434 1.345 . S
C435 H437 0.930 . S
H436 C429 0.930 . S
H437 C435 0.930 . S
H438 C426 0.930 . S
H439 C427 0.931 . S
H440 C433 0.930 . S
H441 C455 0.930 . S
H442 C434 0.930 . S
H443 C461 0.930 . S
H444 C452 0.930 . S
H445 C459 0.931 . S
H446 C423 0.929 . S
H447 C453 0.930 . S
H448 C486 0.930 . S
H449 C430 0.930 . S
H450 C485 0.929 . S
N451 Tb420 2.660 . S
N451 C452 1.305 . S
N451 C456 1.360 . S
C452 H444 0.930 . S
C452 N451 1.305 . S
C452 C455 1.407 . S
C453 H447 0.930 . S
C453 C454 1.410 . S
C453 C455 1.345 . S
C454 C453 1.410 . S
C454 C456 1.417 . S
C454 C486 1.432 . S
C455 H441 0.930 . S
C455 C452 1.407 . S
C455 C453 1.345 . S
C456 N451 1.360 . S
C456 C454 1.417 . S
C456 C460 1.432 . S
H457 C462 0.930 . S
N458 Tb420 2.600 . S
N458 C460 1.359 . S
N458 C461 1.327 . S
C459 H445 0.931 . S
C459 C461 1.392 . S
C459 C462 1.370 . S
C460 C456 1.432 . S
C460 N458 1.359 . S
C460 C463 1.414 . S
C461 H443 0.930 . S
C461 N458 1.327 . S
C461 C459 1.392 . S
C462 H457 0.930 . S
C462 C459 1.370 . S
C462 C463 1.385 . S
C463 C460 1.414 . S
C463 C462 1.385 . S
C463 C485 1.444 . S
O464 Tb420 2.546 . S
O464 C484 1.251 . S
O465 Tb420 2.610 . S
O465 Tb431 2.362 . S
O465 C476 1.283 . S
O466 Tb431 2.421 . S
O466 C483 1.262 . S
O467 Tb420 2.320 . S
O467 C483 1.260 . S
O468 Tb420 2.552 . S
O468 C476 1.243 . S
O469 Tb420 2.413 . S
O469 C484 1.256 . S
O470 Tb431 2.546 . S
O470 C495 1.251 . S
O471 Tb420 2.362 . S
O471 Tb431 2.610 . S
O471 C487 1.283 . S
O472 Tb420 2.421 . S
O472 C494 1.262 . S
O473 Tb431 2.320 . S
O473 C494 1.260 . S
O474 Tb431 2.552 . S
O474 C487 1.243 . S
O475 Tb431 2.413 . S
O475 C495 1.256 . S
C476 O465 1.283 . S
C476 O468 1.243 . S
C477 C479 1.382 . S
C477 C481 1.393 . S
C477 C484 1.500 . S
C478 C479 1.400 . S
C478 C480 1.384 . S
C479 C477 1.382 . S
C479 C478 1.400 . S
C479 H496 0.930 . S
C480 C478 1.384 . S
C480 C482 1.392 . S
C480 H497 0.931 . S
C481 C477 1.393 . S
C481 C482 1.401 . S
C481 H498 0.930 . S
C482 C480 1.392 . S
C482 C481 1.401 . S
C482 H499 0.930 . S
C483 O466 1.262 . S
C483 O467 1.260 . S
C484 Tb420 2.833 . S
C484 O464 1.251 . S
C484 O469 1.256 . S
C484 C477 1.500 . S
C485 H450 0.929 . S
C485 C463 1.444 . S
C485 C486 1.317 . S
C486 H448 0.930 . S
C486 C454 1.432 . S
C486 C485 1.317 . S
C487 O471 1.283 . S
C487 O474 1.243 . S
C488 C489 1.382 . S
C488 C492 1.393 . S
C488 C495 1.500 . S
C489 C488 1.382 . S
C489 C490 1.400 . S
C489 H500 0.930 . S
C490 C489 1.400 . S
C490 C491 1.384 . S
C491 C490 1.384 . S
C491 C493 1.392 . S
C491 H501 0.931 . S
C492 C488 1.393 . S
C492 C493 1.401 . S
C492 H502 0.930 . S
C493 C491 1.392 . S
C493 C492 1.401 . S
C493 H503 0.930 . S
C494 O472 1.262 . S
C494 O473 1.260 . S
C495 Tb431 2.833 . S
C495 O470 1.251 . S
C495 O475 1.256 . S
C495 C488 1.500 . S
H496 C479 0.930 . S
H497 C480 0.931 . S
H498 C481 0.930 . S
H499 C482 0.930 . S
H500 C489 0.930 . S
H501 C491 0.931 . S
H502 C492 0.930 . S
H503 C493 0.930 . S
Tb504 N535 2.660 . S
Tb504 N542 2.600 . S
Tb504 O548 2.546 . S
Tb504 O549 2.610 . S
Tb504 O551 2.320 . S
Tb504 O552 2.552 . S
Tb504 O553 2.413 . S
Tb504 O555 2.362 . S
Tb504 O556 2.421 . S
Tb504 C568 2.833 . S
C505 C508 1.432 . S
C505 C509 1.414 . S
C505 N512 1.359 . S
C506 C508 1.417 . S
C506 C510 1.432 . S
C506 C518 1.410 . S
C507 C509 1.444 . S
C507 C510 1.317 . S
C507 H530 0.929 . S
C508 C505 1.432 . S
C508 C506 1.417 . S
C508 N516 1.360 . S
C509 C505 1.414 . S
C509 C507 1.444 . S
C509 C514 1.385 . S
C510 C506 1.432 . S
C510 C507 1.317 . S
C510 H522 0.930 . S
C511 C513 1.392 . S
C511 C514 1.370 . S
C511 H523 0.931 . S
N512 C505 1.359 . S
N512 C513 1.327 . S
N512 Tb515 2.600 . S
C513 C511 1.392 . S
C513 N512 1.327 . S
C513 H520 0.930 . S
C514 C509 1.385 . S
C514 C511 1.370 . S
C514 H533 0.930 . S
Tb515 N512 2.600 . S
Tb515 N516 2.660 . S
Tb515 O549 2.362 . S
Tb515 O550 2.421 . S
Tb515 O554 2.546 . S
Tb515 O555 2.610 . S
Tb515 O557 2.320 . S
Tb515 O558 2.552 . S
Tb515 O559 2.413 . S
Tb515 C579 2.833 . S
N516 C508 1.360 . S
N516 Tb515 2.660 . S
N516 C517 1.305 . S
C517 N516 1.305 . S
C517 C519 1.407 . S
C517 H524 0.930 . S
C518 C506 1.410 . S
C518 C519 1.345 . S
C518 H526 0.930 . S
C519 C517 1.407 . S
C519 C518 1.345 . S
C519 H521 0.930 . S
H520 C513 0.930 . S
H521 C519 0.930 . S
H522 C510 0.930 . S
H523 C511 0.931 . S
H524 C517 0.930 . S
H525 C539 0.930 . S
H526 C518 0.930 . S
H527 C545 0.930 . S
H528 C536 0.930 . S
H529 C543 0.931 . S
H530 C507 0.929 . S
H531 C537 0.930 . S
H532 C570 0.930 . S
H533 C514 0.930 . S
H534 C569 0.929 . S
N535 Tb504 2.660 . S
N535 C536 1.305 . S
N535 C540 1.360 . S
C536 H528 0.930 . S
C536 N535 1.305 . S
C536 C539 1.407 . S
C537 H531 0.930 . S
C537 C538 1.410 . S
C537 C539 1.345 . S
C538 C537 1.410 . S
C538 C540 1.417 . S
C538 C570 1.432 . S
C539 H525 0.930 . S
C539 C536 1.407 . S
C539 C537 1.345 . S
C540 N535 1.360 . S
C540 C538 1.417 . S
C540 C544 1.432 . S
H541 C546 0.930 . S
N542 Tb504 2.600 . S
N542 C544 1.359 . S
N542 C545 1.327 . S
C543 H529 0.931 . S
C543 C545 1.392 . S
C543 C546 1.370 . S
C544 C540 1.432 . S
C544 N542 1.359 . S
C544 C547 1.414 . S
C545 H527 0.930 . S
C545 N542 1.327 . S
C545 C543 1.392 . S
C546 H541 0.930 . S
C546 C543 1.370 . S
C546 C547 1.385 . S
C547 C544 1.414 . S
C547 C546 1.385 . S
C547 C569 1.444 . S
O548 Tb504 2.546 . S
O548 C568 1.251 . S
O549 Tb504 2.610 . S
O549 Tb515 2.362 . S
O549 C560 1.283 . S
O550 Tb515 2.421 . S
O550 C567 1.262 . S
O551 Tb504 2.320 . S
O551 C567 1.260 . S
O552 Tb504 2.552 . S
O552 C560 1.243 . S
O553 Tb504 2.413 . S
O553 C568 1.256 . S
O554 Tb515 2.546 . S
O554 C579 1.251 . S
O555 Tb504 2.362 . S
O555 Tb515 2.610 . S
O555 C571 1.283 . S
O556 Tb504 2.421 . S
O556 C578 1.262 . S
O557 Tb515 2.320 . S
O557 C578 1.260 . S
O558 Tb515 2.552 . S
O558 C571 1.243 . S
O559 Tb515 2.413 . S
O559 C579 1.256 . S
C560 O549 1.283 . S
C560 O552 1.243 . S
C561 C563 1.382 . S
C561 C565 1.393 . S
C561 C568 1.500 . S
C562 C563 1.400 . S
C562 C564 1.384 . S
C563 C561 1.382 . S
C563 C562 1.400 . S
C563 H580 0.930 . S
C564 C562 1.384 . S
C564 C566 1.392 . S
C564 H581 0.931 . S
C565 C561 1.393 . S
C565 C566 1.401 . S
C565 H582 0.930 . S
C566 C564 1.392 . S
C566 C565 1.401 . S
C566 H583 0.930 . S
C567 O550 1.262 . S
C567 O551 1.260 . S
C568 Tb504 2.833 . S
C568 O548 1.251 . S
C568 O553 1.256 . S
C568 C561 1.500 . S
C569 H534 0.929 . S
C569 C547 1.444 . S
C569 C570 1.317 . S
C570 H532 0.930 . S
C570 C538 1.432 . S
C570 C569 1.317 . S
C571 O555 1.283 . S
C571 O558 1.243 . S
C572 C573 1.382 . S
C572 C576 1.393 . S
C572 C579 1.500 . S
C573 C572 1.382 . S
C573 C574 1.400 . S
C573 H584 0.930 . S
C574 C573 1.400 . S
C574 C575 1.384 . S
C575 C574 1.384 . S
C575 C577 1.392 . S
C575 H585 0.931 . S
C576 C572 1.393 . S
C576 C577 1.401 . S
C576 H586 0.930 . S
C577 C575 1.392 . S
C577 C576 1.401 . S
C577 H587 0.930 . S
C578 O556 1.262 . S
C578 O557 1.260 . S
C579 Tb515 2.833 . S
C579 O554 1.251 . S
C579 O559 1.256 . S
C579 C572 1.500 . S
H580 C563 0.930 . S
H581 C564 0.931 . S
H582 C565 0.930 . S
H583 C566 0.930 . S
H584 C573 0.930 . S
H585 C575 0.931 . S
H586 C576 0.930 . S
H587 C577 0.930 . S
Tb588 N619 2.660 . S
Tb588 N626 2.600 . S
Tb588 O632 2.546 . S
Tb588 O633 2.610 . S
Tb588 O635 2.320 . S
Tb588 O636 2.552 . S
Tb588 O637 2.413 . S
Tb588 O639 2.362 . S
Tb588 O640 2.421 . S
Tb588 C652 2.833 . S
C589 C592 1.432 . S
C589 C593 1.414 . S
C589 N596 1.359 . S
C590 C592 1.417 . S
C590 C594 1.432 . S
C590 C602 1.410 . S
C591 C593 1.444 . S
C591 C594 1.317 . S
C591 H614 0.929 . S
C592 C589 1.432 . S
C592 C590 1.417 . S
C592 N600 1.360 . S
C593 C589 1.414 . S
C593 C591 1.444 . S
C593 C598 1.385 . S
C594 C590 1.432 . S
C594 C591 1.317 . S
C594 H606 0.930 . S
C595 C597 1.392 . S
C595 C598 1.370 . S
C595 H607 0.931 . S
N596 C589 1.359 . S
N596 C597 1.327 . S
N596 Tb599 2.600 . S
C597 C595 1.392 . S
C597 N596 1.327 . S
C597 H604 0.930 . S
C598 C593 1.385 . S
C598 C595 1.370 . S
C598 H617 0.930 . S
Tb599 N596 2.600 . S
Tb599 N600 2.660 . S
Tb599 O633 2.362 . S
Tb599 O634 2.421 . S
Tb599 O638 2.546 . S
Tb599 O639 2.610 . S
Tb599 O641 2.320 . S
Tb599 O642 2.552 . S
Tb599 O643 2.413 . S
Tb599 C663 2.833 . S
N600 C592 1.360 . S
N600 Tb599 2.660 . S
N600 C601 1.305 . S
C601 N600 1.305 . S
C601 C603 1.407 . S
C601 H608 0.930 . S
C602 C590 1.410 . S
C602 C603 1.345 . S
C602 H610 0.930 . S
C603 C601 1.407 . S
C603 C602 1.345 . S
C603 H605 0.930 . S
H604 C597 0.930 . S
H605 C603 0.930 . S
H606 C594 0.930 . S
H607 C595 0.931 . S
H608 C601 0.930 . S
H609 C623 0.930 . S
H610 C602 0.930 . S
H611 C629 0.930 . S
H612 C620 0.930 . S
H613 C627 0.931 . S
H614 C591 0.929 . S
H615 C621 0.930 . S
H616 C654 0.930 . S
H617 C598 0.930 . S
H618 C653 0.929 . S
N619 Tb588 2.660 . S
N619 C620 1.305 . S
N619 C624 1.360 . S
C620 H612 0.930 . S
C620 N619 1.305 . S
C620 C623 1.407 . S
C621 H615 0.930 . S
C621 C622 1.410 . S
C621 C623 1.345 . S
C622 C621 1.410 . S
C622 C624 1.417 . S
C622 C654 1.432 . S
C623 H609 0.930 . S
C623 C620 1.407 . S
C623 C621 1.345 . S
C624 N619 1.360 . S
C624 C622 1.417 . S
C624 C628 1.432 . S
H625 C630 0.930 . S
N626 Tb588 2.600 . S
N626 C628 1.359 . S
N626 C629 1.327 . S
C627 H613 0.931 . S
C627 C629 1.392 . S
C627 C630 1.370 . S
C628 C624 1.432 . S
C628 N626 1.359 . S
C628 C631 1.414 . S
C629 H611 0.930 . S
C629 N626 1.327 . S
C629 C627 1.392 . S
C630 H625 0.930 . S
C630 C627 1.370 . S
C630 C631 1.385 . S
C631 C628 1.414 . S
C631 C630 1.385 . S
C631 C653 1.444 . S
O632 Tb588 2.546 . S
O632 C652 1.251 . S
O633 Tb588 2.610 . S
O633 Tb599 2.362 . S
O633 C644 1.283 . S
O634 Tb599 2.421 . S
O634 C651 1.262 . S
O635 Tb588 2.320 . S
O635 C651 1.260 . S
O636 Tb588 2.552 . S
O636 C644 1.243 . S
O637 Tb588 2.413 . S
O637 C652 1.256 . S
O638 Tb599 2.546 . S
O638 C663 1.251 . S
O639 Tb588 2.362 . S
O639 Tb599 2.610 . S
O639 C655 1.283 . S
O640 Tb588 2.421 . S
O640 C662 1.262 . S
O641 Tb599 2.320 . S
O641 C662 1.260 . S
O642 Tb599 2.552 . S
O642 C655 1.243 . S
O643 Tb599 2.413 . S
O643 C663 1.256 . S
C644 O633 1.283 . S
C644 O636 1.243 . S
C645 C647 1.382 . S
C645 C649 1.393 . S
C645 C652 1.500 . S
C646 C647 1.400 . S
C646 C648 1.384 . S
C647 C645 1.382 . S
C647 C646 1.400 . S
C647 H664 0.930 . S
C648 C646 1.384 . S
C648 C650 1.392 . S
C648 H665 0.931 . S
C649 C645 1.393 . S
C649 C650 1.401 . S
C649 H666 0.930 . S
C650 C648 1.392 . S
C650 C649 1.401 . S
C650 H667 0.930 . S
C651 O634 1.262 . S
C651 O635 1.260 . S
C652 Tb588 2.833 . S
C652 O632 1.251 . S
C652 O637 1.256 . S
C652 C645 1.500 . S
C653 H618 0.929 . S
C653 C631 1.444 . S
C653 C654 1.317 . S
C654 H616 0.930 . S
C654 C622 1.432 . S
C654 C653 1.317 . S
C655 O639 1.283 . S
C655 O642 1.243 . S
C656 C657 1.382 . S
C656 C660 1.393 . S
C656 C663 1.500 . S
C657 C656 1.382 . S
C657 C658 1.400 . S
C657 H668 0.930 . S
C658 C657 1.400 . S
C658 C659 1.384 . S
C659 C658 1.384 . S
C659 C661 1.392 . S
C659 H669 0.931 . S
C660 C656 1.393 . S
C660 C661 1.401 . S
C660 H670 0.930 . S
C661 C659 1.392 . S
C661 C660 1.401 . S
C661 H671 0.930 . S
C662 O640 1.262 . S
C662 O641 1.260 . S
C663 Tb599 2.833 . S
C663 O638 1.251 . S
C663 O643 1.256 . S
C663 C656 1.500 . S
H664 C647 0.930 . S
H665 C648 0.931 . S
H666 C649 0.930 . S
H667 C650 0.930 . S
H668 C657 0.930 . S
H669 C659 0.931 . S
H670 C660 0.930 . S
H671 C661 0.930 . S
Fe672 O673 1.886 1_455 S
Fe672 O676 1.715 . S
Fe672 O681 2.077 1_455 S
Fe672 O686 1.935 . S
Fe672 O692 2.077 1_455 S
Fe672 O701 1.935 . S
O673 Fe672 1.886 1_655 S
O673 Fe675 1.715 1_545 S
Fe674 O676 1.886 . S
Fe674 O677 1.715 1_545 S
Fe674 O684 1.935 1_545 S
Fe674 O685 2.077 . S
Fe674 O691 1.935 1_545 S
Fe674 O700 2.077 . S
Fe675 O673 1.715 1_565 S
Fe675 O678 1.886 . S
Fe675 O682 1.935 1_565 S
Fe675 O687 2.077 . S
Fe675 O693 1.935 1_565 S
Fe675 O697 2.077 . S
O676 Fe672 1.715 . S
O676 Fe674 1.886 . S
O677 Fe674 1.715 1_565 S
O677 Fe679 1.886 1_455 S
O678 Fe675 1.886 . S
O678 Fe679 1.715 . S
Fe679 O677 1.886 1_655 S
Fe679 O678 1.715 . S
Fe679 O683 2.077 1_655 S
Fe679 O688 1.935 . S
Fe679 O690 2.077 1_655 S
Fe679 O698 1.935 . S
C680 O692 1.381 . S
C680 O693 1.421 . S
O681 Fe672 2.077 1_655 S
O681 C694 1.381 . S
O682 Fe675 1.935 1_545 S
O682 C694 1.421 . S
O683 Fe679 2.077 1_455 S
O683 C699 1.381 . S
O684 Fe674 1.935 1_565 S
O684 C699 1.421 . S
O685 Fe674 2.077 . S
O685 C689 1.381 . S
O686 Fe672 1.935 . S
O686 C689 1.421 . S
O687 Fe675 2.077 . S
O687 C695 1.381 . S
O688 Fe679 1.935 . S
O688 C695 1.421 . S
C689 O685 1.381 . S
C689 O686 1.421 . S
O690 Fe679 2.077 1_455 S
O690 C702 1.381 . S
O691 Fe674 1.935 1_565 S
O691 C702 1.421 . S
O692 Fe672 2.077 1_655 S
O692 C680 1.381 . S
O693 Fe675 1.935 1_545 S
O693 C680 1.421 . S
C694 O681 1.381 . S
C694 O682 1.421 . S
C695 O687 1.381 . S
C695 O688 1.421 . S
C696 O697 1.381 . S
C696 O698 1.421 . S
O697 Fe675 2.077 . S
O697 C696 1.381 . S
O698 Fe679 1.935 . S
O698 C696 1.421 . S
C699 O683 1.381 . S
C699 O684 1.421 . S
O700 Fe674 2.077 . S
O700 C703 1.381 . S
O701 Fe672 1.935 . S
O701 C703 1.421 . S
C702 O690 1.381 . S
C702 O691 1.421 . S
C703 O700 1.381 . S
C703 O701 1.421 . S
Fe704 O705 1.886 . S
Fe704 O708 1.714 . S
Fe704 O713 2.077 1_554 S
Fe704 O718 1.935 1_554 S
Fe704 O724 2.077 . S
Fe704 O733 1.935 . S
O705 Fe704 1.886 . S
O705 Fe707 1.715 1_565 S
Fe706 O708 1.887 1_556 S
Fe706 O709 1.715 1_565 S
Fe706 O716 1.935 1_565 S
Fe706 O717 2.077 . S
Fe706 O723 1.935 1_566 S
Fe706 O732 2.077 1_556 S
Fe707 O705 1.715 1_545 S
Fe707 O710 1.886 1_554 S
Fe707 O714 1.935 1_544 S
Fe707 O719 2.077 1_554 S
Fe707 O725 1.935 1_545 S
Fe707 O729 2.077 . S
O708 Fe704 1.714 . S
O708 Fe706 1.887 1_554 S
O709 Fe706 1.715 1_545 S
O709 Fe711 1.886 . S
O710 Fe707 1.886 1_556 S
O710 Fe711 1.715 . S
Fe711 O709 1.886 . S
Fe711 O710 1.715 . S
Fe711 O715 2.077 . S
Fe711 O720 1.935 . S
Fe711 O722 2.077 1_556 S
Fe711 O730 1.935 1_556 S
C712 O724 1.381 . S
C712 O725 1.421 . S
O713 Fe704 2.077 1_556 S
O713 C726 1.381 . S
O714 Fe707 1.935 1_566 S
O714 C726 1.421 . S
O715 Fe711 2.077 . S
O715 C731 1.381 . S
O716 Fe706 1.935 1_545 S
O716 C731 1.421 . S
O717 Fe706 2.077 . S
O717 C721 1.381 . S
O718 Fe704 1.935 1_556 S
O718 C721 1.421 . S
O719 Fe707 2.077 1_556 S
O719 C727 1.381 . S
O720 Fe711 1.935 . S
O720 C727 1.421 . S
C721 O717 1.381 . S
C721 O718 1.421 . S
O722 Fe711 2.077 1_554 S
O722 C734 1.381 . S
O723 Fe706 1.935 1_544 S
O723 C734 1.421 . S
O724 Fe704 2.077 . S
O724 C712 1.381 . S
O725 Fe707 1.935 1_565 S
O725 C712 1.421 . S
C726 O713 1.381 . S
C726 O714 1.421 . S
C727 O719 1.381 . S
C727 O720 1.421 . S
C728 O729 1.381 . S
C728 O730 1.421 . S
O729 Fe707 2.077 . S
O729 C728 1.381 . S
O730 Fe711 1.935 1_554 S
O730 C728 1.421 . S
C731 O715 1.381 . S
C731 O716 1.421 . S
O732 Fe706 2.077 1_554 S
O732 C735 1.381 . S
O733 Fe704 1.935 . S
O733 C735 1.421 . S
C734 O722 1.381 . S
C734 O723 1.421 . S
C735 O732 1.381 . S
C735 O733 1.421 . S
Fe736 O737 1.886 1_455 S
Fe736 O740 1.715 . S
Fe736 O745 2.077 1_455 S
Fe736 O750 1.935 . S
Fe736 O756 2.077 1_456 S
Fe736 O765 1.935 1_556 S
O737 Fe736 1.886 1_655 S
O737 Fe739 1.715 . S
Fe738 O740 1.886 1_554 S
Fe738 O741 1.715 . S
Fe738 O748 1.935 1_554 S
Fe738 O749 2.077 1_554 S
Fe738 O755 1.935 . S
Fe738 O764 2.077 . S
Fe739 O737 1.715 . S
Fe739 O742 1.887 1_556 S
Fe739 O746 1.935 . S
Fe739 O751 2.077 . S
Fe739 O757 1.935 1_556 S
Fe739 O761 2.077 1_556 S
O740 Fe736 1.715 . S
O740 Fe738 1.886 1_556 S
O741 Fe738 1.715 . S
O741 Fe743 1.886 1_455 S
O742 Fe739 1.887 1_554 S
O742 Fe743 1.714 . S
Fe743 O741 1.886 1_655 S
Fe743 O742 1.714 . S
Fe743 O747 2.077 1_654 S
Fe743 O752 1.935 1_554 S
Fe743 O754 2.077 1_655 S
Fe743 O762 1.935 . S
C744 O756 1.381 . S
C744 O757 1.421 . S
O745 Fe736 2.077 1_655 S
O745 C758 1.381 . S
O746 Fe739 1.935 . S
O746 C758 1.421 . S
O747 Fe743 2.077 1_456 S
O747 C763 1.381 . S
O748 Fe738 1.935 1_556 S
O748 C763 1.421 . S
O749 Fe738 2.077 1_556 S
O749 C753 1.381 . S
O750 Fe736 1.935 . S
O750 C753 1.421 . S
O751 Fe739 2.077 . S
O751 C759 1.381 . S
O752 Fe743 1.935 1_556 S
O752 C759 1.421 . S
C753 O749 1.381 . S
C753 O750 1.421 . S
O754 Fe743 2.077 1_455 S
O754 C766 1.381 . S
O755 Fe738 1.935 . S
O755 C766 1.421 . S
O756 Fe736 2.077 1_654 S
O756 C744 1.381 . S
O757 Fe739 1.935 1_554 S
O757 C744 1.421 . S
C758 O745 1.381 . S
C758 O746 1.421 . S
C759 O751 1.381 . S
C759 O752 1.421 . S
C760 O761 1.381 . S
C760 O762 1.421 . S
O761 Fe739 2.077 1_554 S
O761 C760 1.381 . S
O762 Fe743 1.935 . S
O762 C760 1.421 . S
C763 O747 1.381 . S
C763 O748 1.421 . S
O764 Fe738 2.077 . S
O764 C767 1.381 . S
O765 Fe736 1.935 1_554 S
O765 C767 1.421 . S
C766 O754 1.381 . S
C766 O755 1.421 . S
C767 O764 1.381 . S
C767 O765 1.421 . S
Fe768 O769 1.886 . S
Fe768 O772 1.715 . S
Fe768 O777 2.077 . S
Fe768 O782 1.935 . S
Fe768 O788 2.077 . S
Fe768 O797 1.935 . S
O769 Fe768 1.886 . S
O769 Fe771 1.715 1_556 S
Fe770 O772 1.886 . S
Fe770 O773 1.715 1_556 S
Fe770 O780 1.935 1_556 S
Fe770 O781 2.077 . S
Fe770 O787 1.935 1_556 S
Fe770 O796 2.077 . S
Fe771 O769 1.715 1_554 S
Fe771 O774 1.886 . S
Fe771 O778 1.935 1_554 S
Fe771 O783 2.077 . S
Fe771 O789 1.935 1_554 S
Fe771 O793 2.077 . S
O772 Fe768 1.715 . S
O772 Fe770 1.886 . S
O773 Fe770 1.715 1_554 S
O773 Fe775 1.886 . S
O774 Fe771 1.886 . S
O774 Fe775 1.715 . S
Fe775 O773 1.886 . S
Fe775 O774 1.715 . S
Fe775 O779 2.077 . S
Fe775 O784 1.935 . S
Fe775 O786 2.077 . S
Fe775 O794 1.935 . S
C776 O788 1.381 . S
C776 O789 1.421 . S
O777 Fe768 2.077 . S
O777 C790 1.381 . S
O778 Fe771 1.935 1_556 S
O778 C790 1.421 . S
O779 Fe775 2.077 . S
O779 C795 1.381 . S
O780 Fe770 1.935 1_554 S
O780 C795 1.421 . S
O781 Fe770 2.077 . S
O781 C785 1.381 . S
O782 Fe768 1.935 . S
O782 C785 1.421 . S
O783 Fe771 2.077 . S
O783 C791 1.381 . S
O784 Fe775 1.935 . S
O784 C791 1.421 . S
C785 O781 1.381 . S
C785 O782 1.421 . S
O786 Fe775 2.077 . S
O786 C798 1.381 . S
O787 Fe770 1.935 1_554 S
O787 C798 1.421 . S
O788 Fe768 2.077 . S
O788 C776 1.381 . S
O789 Fe771 1.935 1_556 S
O789 C776 1.421 . S
C790 O777 1.381 . S
C790 O778 1.421 . S
C791 O783 1.381 . S
C791 O784 1.421 . S
C792 O793 1.381 . S
C792 O794 1.421 . S
O793 Fe771 2.077 . S
O793 C792 1.381 . S
O794 Fe775 1.935 . S
O794 C792 1.421 . S
C795 O779 1.381 . S
C795 O780 1.421 . S
O796 Fe770 2.077 . S
O796 C799 1.381 . S
O797 Fe768 1.935 . S
O797 C799 1.421 . S
C798 O786 1.381 . S
C798 O787 1.421 . S
C799 O796 1.381 . S
C799 O797 1.421 . S
Fe800 O801 1.886 . S
Fe800 O804 1.715 . S
Fe800 O809 2.077 1_655 S
Fe800 O814 1.935 1_655 S
Fe800 O820 2.077 . S
Fe800 O829 1.935 . S
O801 Fe800 1.886 . S
O801 Fe803 1.715 1_655 S
Fe802 O804 1.886 . S
Fe802 O805 1.715 1_655 S
Fe802 O812 1.935 1_655 S
Fe802 O813 2.077 1_655 S
Fe802 O819 1.935 . S
Fe802 O828 2.077 . S
Fe803 O801 1.715 1_455 S
Fe803 O806 1.886 . S
Fe803 O810 1.935 . S
Fe803 O815 2.077 . S
Fe803 O821 1.935 1_455 S
Fe803 O825 2.077 1_455 S
O804 Fe800 1.715 . S
O804 Fe802 1.886 . S
O805 Fe802 1.715 1_455 S
O805 Fe807 1.886 . S
O806 Fe803 1.886 . S
O806 Fe807 1.715 . S
Fe807 O805 1.886 . S
Fe807 O806 1.715 . S
Fe807 O811 2.077 . S
Fe807 O816 1.935 . S
Fe807 O818 2.077 1_455 S
Fe807 O826 1.935 1_455 S
C808 O820 1.381 . S
C808 O821 1.421 . S
O809 Fe800 2.077 1_455 S
O809 C822 1.381 . S
O810 Fe803 1.935 . S
O810 C822 1.421 . S
O811 Fe807 2.077 . S
O811 C827 1.381 . S
O812 Fe802 1.935 1_455 S
O812 C827 1.421 . S
O813 Fe802 2.077 1_455 S
O813 C817 1.381 . S
O814 Fe800 1.935 1_455 S
O814 C817 1.421 . S
O815 Fe803 2.077 . S
O815 C823 1.381 . S
O816 Fe807 1.935 . S
O816 C823 1.421 . S
C817 O813 1.381 . S
C817 O814 1.421 . S
O818 Fe807 2.077 1_655 S
O818 C830 1.381 . S
O819 Fe802 1.935 . S
O819 C830 1.421 . S
O820 Fe800 2.077 . S
O820 C808 1.381 . S
O821 Fe803 1.935 1_655 S
O821 C808 1.421 . S
C822 O809 1.381 . S
C822 O810 1.421 . S
C823 O815 1.381 . S
C823 O816 1.421 . S
C824 O825 1.381 . S
C824 O826 1.421 . S
O825 Fe803 2.077 1_655 S
O825 C824 1.381 . S
O826 Fe807 1.935 1_655 S
O826 C824 1.421 . S
C827 O811 1.381 . S
C827 O812 1.421 . S
O828 Fe802 2.077 . S
O828 C831 1.381 . S
O829 Fe800 1.935 . S
O829 C831 1.421 . S
C830 O818 1.381 . S
C830 O819 1.421 . S
C831 O828 1.381 . S
C831 O829 1.421 . S
Fe832 O833 1.886 . S
Fe832 O836 1.715 . S
Fe832 O841 2.077 . S
Fe832 O846 1.935 . S
Fe832 O852 2.077 . S
Fe832 O861 1.935 . S
O833 Fe832 1.886 . S
O833 Fe835 1.715 . S
Fe834 O836 1.886 1_545 S
Fe834 O837 1.715 . S
Fe834 O844 1.935 . S
Fe834 O845 2.077 1_545 S
Fe834 O851 1.935 . S
Fe834 O860 2.077 1_545 S
Fe835 O833 1.715 . S
Fe835 O838 1.886 1_565 S
Fe835 O842 1.935 . S
Fe835 O847 2.077 1_565 S
Fe835 O853 1.935 . S
Fe835 O857 2.077 1_565 S
O836 Fe832 1.715 . S
O836 Fe834 1.886 1_565 S
O837 Fe834 1.715 . S
O837 Fe839 1.886 . S
O838 Fe835 1.886 1_545 S
O838 Fe839 1.715 . S
Fe839 O837 1.886 . S
Fe839 O838 1.715 . S
Fe839 O843 2.077 . S
Fe839 O848 1.935 . S
Fe839 O850 2.077 . S
Fe839 O858 1.935 . S
C840 O852 1.381 . S
C840 O853 1.421 . S
O841 Fe832 2.077 . S
O841 C854 1.381 . S
O842 Fe835 1.935 . S
O842 C854 1.421 . S
O843 Fe839 2.077 . S
O843 C859 1.381 . S
O844 Fe834 1.935 . S
O844 C859 1.421 . S
O845 Fe834 2.077 1_565 S
O845 C849 1.381 . S
O846 Fe832 1.935 . S
O846 C849 1.421 . S
O847 Fe835 2.077 1_545 S
O847 C855 1.381 . S
O848 Fe839 1.935 . S
O848 C855 1.421 . S
C849 O845 1.381 . S
C849 O846 1.421 . S
O850 Fe839 2.077 . S
O850 C862 1.381 . S
O851 Fe834 1.935 . S
O851 C862 1.421 . S
O852 Fe832 2.077 . S
O852 C840 1.381 . S
O853 Fe835 1.935 . S
O853 C840 1.421 . S
C854 O841 1.381 . S
C854 O842 1.421 . S
C855 O847 1.381 . S
C855 O848 1.421 . S
C856 O857 1.381 . S
C856 O858 1.421 . S
O857 Fe835 2.077 1_545 S
O857 C856 1.381 . S
O858 Fe839 1.935 . S
O858 C856 1.421 . S
C859 O843 1.381 . S
C859 O844 1.421 . S
O860 Fe834 2.077 1_565 S
O860 C863 1.381 . S
O861 Fe832 1.935 . S
O861 C863 1.421 . S
C862 O850 1.381 . S
C862 O851 1.421 . S
C863 O860 1.381 . S
C863 O861 1.421 . S
H864 C870 0.930 . S
H865 C873 0.930 . S
H866 C874 0.930 . S
H867 C875 0.930 . S
H868 C878 0.930 . S
H869 C879 0.930 . S
C870 H864 0.930 . S
C870 C871 1.355 . S
C870 C872 1.415 . S
C871 C870 1.355 . S
C871 C873 1.419 . S
C872 C870 1.415 . S
C872 C877 1.425 . S
C872 C879 1.409 . S
C873 H865 0.930 . S
C873 C871 1.419 . S
C873 C874 1.362 . S
C874 H866 0.930 . S
C874 C873 1.362 . S
C874 C877 1.409 . S
C875 H867 0.930 . S
C875 C876 1.355 . S
C875 C877 1.415 . S
C876 C875 1.355 . S
C876 C878 1.419 . S
C877 C872 1.425 . S
C877 C874 1.409 . S
C877 C875 1.415 . S
C878 H868 0.930 . S
C878 C876 1.419 . S
C878 C879 1.362 . S
C879 H869 0.930 . S
C879 C872 1.409 . S
C879 C878 1.362 . S
H880 C886 0.930 . S
H881 C889 0.930 . S
H882 C890 0.930 . S
H883 C891 0.930 . S
H884 C894 0.930 . S
H885 C895 0.930 . S
C886 H880 0.930 . S
C886 C887 1.355 . S
C886 C888 1.415 . S
C887 C886 1.355 . S
C887 C889 1.419 . S
C888 C886 1.415 . S
C888 C893 1.425 . S
C888 C895 1.409 . S
C889 H881 0.930 . S
C889 C887 1.419 . S
C889 C890 1.362 . S
C890 H882 0.930 . S
C890 C889 1.362 . S
C890 C893 1.409 . S
C891 H883 0.930 . S
C891 C892 1.355 . S
C891 C893 1.415 . S
C892 C891 1.355 . S
C892 C894 1.419 . S
C893 C888 1.425 . S
C893 C890 1.409 . S
C893 C891 1.415 . S
C894 H884 0.930 . S
C894 C892 1.419 . S
C894 C895 1.362 . S
C895 H885 0.930 . S
C895 C888 1.409 . S
C895 C894 1.362 . S
H896 C902 0.930 . S
H897 C905 0.930 . S
H898 C906 0.930 . S
H899 C907 0.930 . S
H900 C910 0.930 . S
H901 C911 0.930 . S
C902 H896 0.930 . S
C902 C903 1.355 . S
C902 C904 1.415 . S
C903 C902 1.355 . S
C903 C905 1.419 . S
C904 C902 1.415 . S
C904 C909 1.425 . S
C904 C911 1.409 . S
C905 H897 0.930 . S
C905 C903 1.419 . S
C905 C906 1.362 . S
C906 H898 0.930 . S
C906 C905 1.362 . S
C906 C909 1.409 . S
C907 H899 0.930 . S
C907 C908 1.355 . S
C907 C909 1.415 . S
C908 C907 1.355 . S
C908 C910 1.419 . S
C909 C904 1.425 . S
C909 C906 1.409 . S
C909 C907 1.415 . S
C910 H900 0.930 . S
C910 C908 1.419 . S
C910 C911 1.362 . S
C911 H901 0.930 . S
C911 C904 1.409 . S
C911 C910 1.362 . S
H912 C918 0.930 . S
H913 C921 0.930 . S
H914 C922 0.930 . S
H915 C923 0.930 . S
H916 C926 0.930 . S
H917 C927 0.930 . S
C918 H912 0.930 . S
C918 C919 1.355 . S
C918 C920 1.415 . S
C919 C918 1.355 . S
C919 C921 1.419 . S
C920 C918 1.415 . S
C920 C925 1.425 . S
C920 C927 1.409 . S
C921 H913 0.930 . S
C921 C919 1.419 . S
C921 C922 1.362 . S
C922 H914 0.930 . S
C922 C921 1.362 . S
C922 C925 1.409 . S
C923 H915 0.930 . S
C923 C924 1.355 . S
C923 C925 1.415 . S
C924 C923 1.355 . S
C924 C926 1.419 . S
C925 C920 1.425 . S
C925 C922 1.409 . S
C925 C923 1.415 . S
C926 H916 0.930 . S
C926 C924 1.419 . S
C926 C927 1.362 . S
C927 H917 0.930 . S
C927 C920 1.409 . S
C927 C926 1.362 . S
H928 C934 0.930 . S
H929 C937 0.930 . S
H930 C938 0.930 . S
H931 C939 0.930 . S
H932 C942 0.930 . S
H933 C943 0.930 . S
C934 H928 0.930 . S
C934 C935 1.355 . S
C934 C936 1.415 . S
C935 C934 1.355 . S
C935 C937 1.419 . S
C936 C934 1.415 . S
C936 C941 1.425 . S
C936 C943 1.409 . S
C937 H929 0.930 . S
C937 C935 1.419 . S
C937 C938 1.362 . S
C938 H930 0.930 . S
C938 C937 1.362 . S
C938 C941 1.409 . S
C939 H931 0.930 . S
C939 C940 1.355 . S
C939 C941 1.415 . S
C940 C939 1.355 . S
C940 C942 1.419 . S
C941 C936 1.425 . S
C941 C938 1.409 . S
C941 C939 1.415 . S
C942 H932 0.930 . S
C942 C940 1.419 . S
C942 C943 1.362 . S
C943 H933 0.930 . S
C943 C936 1.409 . S
C943 C942 1.362 . S
H944 C950 0.930 . S
H945 C953 0.930 . S
H946 C954 0.930 . S
H947 C955 0.930 . S
H948 C958 0.930 . S
H949 C959 0.930 . S
C950 H944 0.930 . S
C950 C951 1.355 . S
C950 C952 1.415 . S
C951 C950 1.355 . S
C951 C953 1.419 . S
C952 C950 1.415 . S
C952 C957 1.425 . S
C952 C959 1.409 . S
C953 H945 0.930 . S
C953 C951 1.419 . S
C953 C954 1.362 . S
C954 H946 0.930 . S
C954 C953 1.362 . S
C954 C957 1.409 . S
C955 H947 0.930 . S
C955 C956 1.355 . S
C955 C957 1.415 . S
C956 C955 1.355 . S
C956 C958 1.419 . S
C957 C952 1.425 . S
C957 C954 1.409 . S
C957 C955 1.415 . S
C958 H948 0.930 . S
C958 C956 1.419 . S
C958 C959 1.362 . S
C959 H949 0.930 . S
C959 C952 1.409 . S
C959 C958 1.362 . S
H960 C966 0.930 . S
H961 C969 0.930 . S
H962 C970 0.930 . S
H963 C971 0.930 . S
H964 C974 0.930 . S
H965 C975 0.930 . S
C966 H960 0.930 . S
C966 C967 1.355 . S
C966 C968 1.415 . S
C967 C966 1.355 . S
C967 C969 1.419 . S
C968 C966 1.415 . S
C968 C973 1.425 . S
C968 C975 1.409 . S
C969 H961 0.930 . S
C969 C967 1.419 . S
C969 C970 1.362 . S
C970 H962 0.930 . S
C970 C969 1.362 . S
C970 C973 1.409 . S
C971 H963 0.930 . S
C971 C972 1.355 . S
C971 C973 1.415 . S
C972 C971 1.355 . S
C972 C974 1.419 . S
C973 C968 1.425 . S
C973 C970 1.409 . S
C973 C971 1.415 . S
C974 H964 0.930 . S
C974 C972 1.419 . S
C974 C975 1.362 . S
C975 H965 0.930 . S
C975 C968 1.409 . S
C975 C974 1.362 . S
H976 C982 0.930 . S
H977 C985 0.930 . S
H978 C986 0.930 . S
H979 C987 0.930 . S
H980 C990 0.930 . S
H981 C991 0.930 . S
C982 H976 0.930 . S
C982 C983 1.355 . S
C982 C984 1.415 . S
C983 C982 1.355 . S
C983 C985 1.419 . S
C984 C982 1.415 . S
C984 C989 1.425 . S
C984 C991 1.409 . S
C985 H977 0.930 . S
C985 C983 1.419 . S
C985 C986 1.362 . S
C986 H978 0.930 . S
C986 C985 1.362 . S
C986 C989 1.409 . S
C987 H979 0.930 . S
C987 C988 1.355 . S
C987 C989 1.415 . S
C988 C987 1.355 . S
C988 C990 1.419 . S
C989 C984 1.425 . S
C989 C986 1.409 . S
C989 C987 1.415 . S
C990 H980 0.930 . S
C990 C988 1.419 . S
C990 C991 1.362 . S
C991 H981 0.930 . S
C991 C984 1.409 . S
C991 C990 1.362 . S
H992 C998 0.930 . S
H993 C1001 0.930 . S
H994 C1002 0.930 . S
H995 C1003 0.930 . S
H996 C1006 0.930 . S
H997 C1007 0.930 . S
C998 H992 0.930 . S
C998 C999 1.355 . S
C998 C1000 1.415 . S
C999 C998 1.355 . S
C999 C1001 1.419 . S
C1000 C998 1.415 . S
C1000 C1005 1.425 . S
C1000 C1007 1.409 . S
C1001 H993 0.930 . S
C1001 C999 1.419 . S
C1001 C1002 1.362 . S
C1002 H994 0.930 . S
C1002 C1001 1.362 . S
C1002 C1005 1.409 . S
C1003 H995 0.930 . S
C1003 C1004 1.355 . S
C1003 C1005 1.415 . S
C1004 C1003 1.355 . S
C1004 C1006 1.419 . S
C1005 C1000 1.425 . S
C1005 C1002 1.409 . S
C1005 C1003 1.415 . S
C1006 H996 0.930 . S
C1006 C1004 1.419 . S
C1006 C1007 1.362 . S
C1007 H997 0.930 . S
C1007 C1000 1.409 . S
C1007 C1006 1.362 . S
H1008 C1014 0.930 . S
H1009 C1017 0.930 . S
H1010 C1018 0.930 . S
H1011 C1019 0.930 . S
H1012 C1022 0.930 . S
H1013 C1023 0.930 . S
C1014 H1008 0.930 . S
C1014 C1015 1.355 . S
C1014 C1016 1.415 . S
C1015 C1014 1.355 . S
C1015 C1017 1.419 . S
C1016 C1014 1.415 . S
C1016 C1021 1.425 . S
C1016 C1023 1.409 . S
C1017 H1009 0.930 . S
C1017 C1015 1.419 . S
C1017 C1018 1.362 . S
C1018 H1010 0.930 . S
C1018 C1017 1.362 . S
C1018 C1021 1.409 . S
C1019 H1011 0.930 . S
C1019 C1020 1.355 . S
C1019 C1021 1.415 . S
C1020 C1019 1.355 . S
C1020 C1022 1.419 . S
C1021 C1016 1.425 . S
C1021 C1018 1.409 . S
C1021 C1019 1.415 . S
C1022 H1012 0.930 . S
C1022 C1020 1.419 . S
C1022 C1023 1.362 . S
C1023 H1013 0.930 . S
C1023 C1016 1.409 . S
C1023 C1022 1.362 . S
H1024 C1030 0.930 . S
H1025 C1033 0.930 . S
H1026 C1034 0.930 . S
H1027 C1035 0.930 . S
H1028 C1038 0.930 . S
H1029 C1039 0.930 . S
C1030 H1024 0.930 . S
C1030 C1031 1.355 . S
C1030 C1032 1.415 . S
C1031 C1030 1.355 . S
C1031 C1033 1.419 . S
C1032 C1030 1.415 . S
C1032 C1037 1.425 . S
C1032 C1039 1.409 . S
C1033 H1025 0.930 . S
C1033 C1031 1.419 . S
C1033 C1034 1.362 . S
C1034 H1026 0.930 . S
C1034 C1033 1.362 . S
C1034 C1037 1.409 . S
C1035 H1027 0.930 . S
C1035 C1036 1.355 . S
C1035 C1037 1.415 . S
C1036 C1035 1.355 . S
C1036 C1038 1.419 . S
C1037 C1032 1.425 . S
C1037 C1034 1.409 . S
C1037 C1035 1.415 . S
C1038 H1028 0.930 . S
C1038 C1036 1.419 . S
C1038 C1039 1.362 . S
C1039 H1029 0.930 . S
C1039 C1032 1.409 . S
C1039 C1038 1.362 . S
H1040 C1046 0.930 . S
H1041 C1049 0.930 . S
H1042 C1050 0.930 . S
H1043 C1051 0.930 . S
H1044 C1054 0.930 . S
H1045 C1055 0.930 . S
C1046 H1040 0.930 . S
C1046 C1047 1.355 . S
C1046 C1048 1.415 . S
C1047 C1046 1.355 . S
C1047 C1049 1.419 . S
C1048 C1046 1.415 . S
C1048 C1053 1.425 . S
C1048 C1055 1.409 . S
C1049 H1041 0.930 . S
C1049 C1047 1.419 . S
C1049 C1050 1.362 . S
C1050 H1042 0.930 . S
C1050 C1049 1.362 . S
C1050 C1053 1.409 . S
C1051 H1043 0.930 . S
C1051 C1052 1.355 . S
C1051 C1053 1.415 . S
C1052 C1051 1.355 . S
C1052 C1054 1.419 . S
C1053 C1048 1.425 . S
C1053 C1050 1.409 . S
C1053 C1051 1.415 . S
C1054 H1044 0.930 . S
C1054 C1052 1.419 . S
C1054 C1055 1.362 . S
C1055 H1045 0.930 . S
C1055 C1048 1.409 . S
C1055 C1054 1.362 . S
H1056 C1062 0.930 . S
H1057 C1065 0.930 . S
H1058 C1066 0.930 . S
H1059 C1067 0.930 . S
H1060 C1070 0.930 . S
H1061 C1071 0.930 . S
C1062 H1056 0.930 . S
C1062 C1063 1.355 . S
C1062 C1064 1.415 . S
C1063 C1062 1.355 . S
C1063 C1065 1.419 . S
C1064 C1062 1.415 . S
C1064 C1069 1.425 . S
C1064 C1071 1.409 . S
C1065 H1057 0.930 . S
C1065 C1063 1.419 . S
C1065 C1066 1.362 . S
C1066 H1058 0.930 . S
C1066 C1065 1.362 . S
C1066 C1069 1.409 . S
C1067 H1059 0.930 . S
C1067 C1068 1.355 . S
C1067 C1069 1.415 . S
C1068 C1067 1.355 . S
C1068 C1070 1.419 . S
C1069 C1064 1.425 . S
C1069 C1066 1.409 . S
C1069 C1067 1.415 . S
C1070 H1060 0.930 . S
C1070 C1068 1.419 . S
C1070 C1071 1.362 . S
C1071 H1061 0.930 . S
C1071 C1064 1.409 . S
C1071 C1070 1.362 . S
H1072 C1078 0.930 . S
H1073 C1081 0.930 . S
H1074 C1082 0.930 . S
H1075 C1083 0.930 . S
H1076 C1086 0.930 . S
H1077 C1087 0.930 . S
C1078 H1072 0.930 . S
C1078 C1079 1.355 . S
C1078 C1080 1.415 . S
C1079 C1078 1.355 . S
C1079 C1081 1.419 . S
C1080 C1078 1.415 . S
C1080 C1085 1.425 . S
C1080 C1087 1.409 . S
C1081 H1073 0.930 . S
C1081 C1079 1.419 . S
C1081 C1082 1.362 . S
C1082 H1074 0.930 . S
C1082 C1081 1.362 . S
C1082 C1085 1.409 . S
C1083 H1075 0.930 . S
C1083 C1084 1.355 . S
C1083 C1085 1.415 . S
C1084 C1083 1.355 . S
C1084 C1086 1.419 . S
C1085 C1080 1.425 . S
C1085 C1082 1.409 . S
C1085 C1083 1.415 . S
C1086 H1076 0.930 . S
C1086 C1084 1.419 . S
C1086 C1087 1.362 . S
C1087 H1077 0.930 . S
C1087 C1080 1.409 . S
C1087 C1086 1.362 . S
H1088 C1094 0.930 . S
H1089 C1097 0.930 . S
H1090 C1098 0.930 . S
H1091 C1099 0.930 . S
H1092 C1102 0.930 . S
H1093 C1103 0.930 . S
C1094 H1088 0.930 . S
C1094 C1095 1.355 . S
C1094 C1096 1.415 . S
C1095 C1094 1.355 . S
C1095 C1097 1.419 . S
C1096 C1094 1.415 . S
C1096 C1101 1.425 . S
C1096 C1103 1.409 . S
C1097 H1089 0.930 . S
C1097 C1095 1.419 . S
C1097 C1098 1.362 . S
C1098 H1090 0.930 . S
C1098 C1097 1.362 . S
C1098 C1101 1.409 . S
C1099 H1091 0.930 . S
C1099 C1100 1.355 . S
C1099 C1101 1.415 . S
C1100 C1099 1.355 . S
C1100 C1102 1.419 . S
C1101 C1096 1.425 . S
C1101 C1098 1.409 . S
C1101 C1099 1.415 . S
C1102 H1092 0.930 . S
C1102 C1100 1.419 . S
C1102 C1103 1.362 . S
C1103 H1093 0.930 . S
C1103 C1096 1.409 . S
C1103 C1102 1.362 . S
H1104 C1110 0.930 . S
H1105 C1113 0.930 . S
H1106 C1114 0.930 . S
H1107 C1115 0.930 . S
H1108 C1118 0.930 . S
H1109 C1119 0.930 . S
C1110 H1104 0.930 . S
C1110 C1111 1.355 . S
C1110 C1112 1.415 . S
C1111 C1110 1.355 . S
C1111 C1113 1.419 . S
C1112 C1110 1.415 . S
C1112 C1117 1.425 . S
C1112 C1119 1.409 . S
C1113 H1105 0.930 . S
C1113 C1111 1.419 . S
C1113 C1114 1.362 . S
C1114 H1106 0.930 . S
C1114 C1113 1.362 . S
C1114 C1117 1.409 . S
C1115 H1107 0.930 . S
C1115 C1116 1.355 . S
C1115 C1117 1.415 . S
C1116 C1115 1.355 . S
C1116 C1118 1.419 . S
C1117 C1112 1.425 . S
C1117 C1114 1.409 . S
C1117 C1115 1.415 . S
C1118 H1108 0.930 . S
C1118 C1116 1.419 . S
C1118 C1119 1.362 . S
C1119 H1109 0.930 . S
C1119 C1112 1.409 . S
C1119 C1118 1.362 . S
H1120 C1126 0.930 . S
H1121 C1129 0.930 . S
H1122 C1130 0.930 . S
H1123 C1131 0.930 . S
H1124 C1134 0.930 . S
H1125 C1135 0.930 . S
C1126 H1120 0.930 . S
C1126 C1127 1.355 . S
C1126 C1128 1.415 . S
C1127 C1126 1.355 . S
C1127 C1129 1.419 . S
C1128 C1126 1.415 . S
C1128 C1133 1.425 . S
C1128 C1135 1.409 . S
C1129 H1121 0.930 . S
C1129 C1127 1.419 . S
C1129 C1130 1.362 . S
C1130 H1122 0.930 . S
C1130 C1129 1.362 . S
C1130 C1133 1.409 . S
C1131 H1123 0.930 . S
C1131 C1132 1.355 . S
C1131 C1133 1.415 . S
C1132 C1131 1.355 . S
C1132 C1134 1.419 . S
C1133 C1128 1.425 . S
C1133 C1130 1.409 . S
C1133 C1131 1.415 . S
C1134 H1124 0.930 . S
C1134 C1132 1.419 . S
C1134 C1135 1.362 . S
C1135 H1125 0.930 . S
C1135 C1128 1.409 . S
C1135 C1134 1.362 . S
H1136 C1142 0.930 . S
H1137 C1145 0.930 . S
H1138 C1146 0.930 . S
H1139 C1147 0.930 . S
H1140 C1150 0.930 . S
H1141 C1151 0.930 . S
C1142 H1136 0.930 . S
C1142 C1143 1.355 . S
C1142 C1144 1.415 . S
C1143 C1142 1.355 . S
C1143 C1145 1.419 . S
C1144 C1142 1.415 . S
C1144 C1149 1.425 . S
C1144 C1151 1.409 . S
C1145 H1137 0.930 . S
C1145 C1143 1.419 . S
C1145 C1146 1.362 . S
C1146 H1138 0.930 . S
C1146 C1145 1.362 . S
C1146 C1149 1.409 . S
C1147 H1139 0.930 . S
C1147 C1148 1.355 . S
C1147 C1149 1.415 . S
C1148 C1147 1.355 . S
C1148 C1150 1.419 . S
C1149 C1144 1.425 . S
C1149 C1146 1.409 . S
C1149 C1147 1.415 . S
C1150 H1140 0.930 . S
C1150 C1148 1.419 . S
C1150 C1151 1.362 . S
C1151 H1141 0.930 . S
C1151 C1144 1.409 . S
C1151 C1150 1.362 . S
H1152 C1158 0.930 . S
H1153 C1161 0.930 . S
H1154 C1162 0.930 . S
H1155 C1163 0.930 . S
H1156 C1166 0.930 . S
H1157 C1167 0.930 . S
C1158 H1152 0.930 . S
C1158 C1159 1.355 . S
C1158 C1160 1.415 . S
C1159 C1158 1.355 . S
C1159 C1161 1.419 . S
C1160 C1158 1.415 . S
C1160 C1165 1.425 . S
C1160 C1167 1.409 . S
C1161 H1153 0.930 . S
C1161 C1159 1.419 . S
C1161 C1162 1.362 . S
C1162 H1154 0.930 . S
C1162 C1161 1.362 . S
C1162 C1165 1.409 . S
C1163 H1155 0.930 . S
C1163 C1164 1.355 . S
C1163 C1165 1.415 . S
C1164 C1163 1.355 . S
C1164 C1166 1.419 . S
C1165 C1160 1.425 . S
C1165 C1162 1.409 . S
C1165 C1163 1.415 . S
C1166 H1156 0.930 . S
C1166 C1164 1.419 . S
C1166 C1167 1.362 . S
C1167 H1157 0.930 . S
C1167 C1160 1.409 . S
C1167 C1166 1.362 . S
H1168 C1174 0.930 . S
H1169 C1177 0.930 . S
H1170 C1178 0.930 . S
H1171 C1179 0.930 . S
H1172 C1182 0.930 . S
H1173 C1183 0.930 . S
C1174 H1168 0.930 . S
C1174 C1175 1.355 . S
C1174 C1176 1.415 . S
C1175 C1174 1.355 . S
C1175 C1177 1.419 . S
C1176 C1174 1.415 . S
C1176 C1181 1.425 . S
C1176 C1183 1.409 . S
C1177 H1169 0.930 . S
C1177 C1175 1.419 . S
C1177 C1178 1.362 . S
C1178 H1170 0.930 . S
C1178 C1177 1.362 . S
C1178 C1181 1.409 . S
C1179 H1171 0.930 . S
C1179 C1180 1.355 . S
C1179 C1181 1.415 . S
C1180 C1179 1.355 . S
C1180 C1182 1.419 . S
C1181 C1176 1.425 . S
C1181 C1178 1.409 . S
C1181 C1179 1.415 . S
C1182 H1172 0.930 . S
C1182 C1180 1.419 . S
C1182 C1183 1.362 . S
C1183 H1173 0.930 . S
C1183 C1176 1.409 . S
C1183 C1182 1.362 . S
H1184 C1190 0.930 . S
H1185 C1193 0.930 . S
H1186 C1194 0.930 . S
H1187 C1195 0.930 . S
H1188 C1198 0.930 . S
H1189 C1199 0.930 . S
C1190 H1184 0.930 . S
C1190 C1191 1.355 . S
C1190 C1192 1.415 . S
C1191 C1190 1.355 . S
C1191 C1193 1.419 . S
C1192 C1190 1.415 . S
C1192 C1197 1.425 . S
C1192 C1199 1.409 . S
C1193 H1185 0.930 . S
C1193 C1191 1.419 . S
C1193 C1194 1.362 . S
C1194 H1186 0.930 . S
C1194 C1193 1.362 . S
C1194 C1197 1.409 . S
C1195 H1187 0.930 . S
C1195 C1196 1.355 . S
C1195 C1197 1.415 . S
C1196 C1195 1.355 . S
C1196 C1198 1.419 . S
C1197 C1192 1.425 . S
C1197 C1194 1.409 . S
C1197 C1195 1.415 . S
C1198 H1188 0.930 . S
C1198 C1196 1.419 . S
C1198 C1199 1.362 . S
C1199 H1189 0.930 . S
C1199 C1192 1.409 . S
C1199 C1198 1.362 . S
H1200 C1206 0.930 . S
H1201 C1209 0.930 . S
H1202 C1210 0.930 . S
H1203 C1211 0.930 . S
H1204 C1214 0.930 . S
H1205 C1215 0.930 . S
C1206 H1200 0.930 . S
C1206 C1207 1.355 . S
C1206 C1208 1.415 . S
C1207 C1206 1.355 . S
C1207 C1209 1.419 . S
C1208 C1206 1.415 . S
C1208 C1213 1.425 . S
C1208 C1215 1.409 . S
C1209 H1201 0.930 . S
C1209 C1207 1.419 . S
C1209 C1210 1.362 . S
C1210 H1202 0.930 . S
C1210 C1209 1.362 . S
C1210 C1213 1.409 . S
C1211 H1203 0.930 . S
C1211 C1212 1.355 . S
C1211 C1213 1.415 . S
C1212 C1211 1.355 . S
C1212 C1214 1.419 . S
C1213 C1208 1.425 . S
C1213 C1210 1.409 . S
C1213 C1211 1.415 . S
C1214 H1204 0.930 . S
C1214 C1212 1.419 . S
C1214 C1215 1.362 . S
C1215 H1205 0.930 . S
C1215 C1208 1.409 . S
C1215 C1214 1.362 . S
H1216 C1222 0.930 . S
H1217 C1225 0.930 . S
H1218 C1226 0.930 . S
H1219 C1227 0.930 . S
H1220 C1230 0.930 . S
H1221 C1231 0.930 . S
C1222 H1216 0.930 . S
C1222 C1223 1.355 . S
C1222 C1224 1.415 . S
C1223 C1222 1.355 . S
C1223 C1225 1.419 . S
C1224 C1222 1.415 . S
C1224 C1229 1.425 . S
C1224 C1231 1.409 . S
C1225 H1217 0.930 . S
C1225 C1223 1.419 . S
C1225 C1226 1.362 . S
C1226 H1218 0.930 . S
C1226 C1225 1.362 . S
C1226 C1229 1.409 . S
C1227 H1219 0.930 . S
C1227 C1228 1.355 . S
C1227 C1229 1.415 . S
C1228 C1227 1.355 . S
C1228 C1230 1.419 . S
C1229 C1224 1.425 . S
C1229 C1226 1.409 . S
C1229 C1227 1.415 . S
C1230 H1220 0.930 . S
C1230 C1228 1.419 . S
C1230 C1231 1.362 . S
C1231 H1221 0.930 . S
C1231 C1224 1.409 . S
C1231 C1230 1.362 . S
H1232 C1238 0.930 . S
H1233 C1241 0.930 . S
H1234 C1242 0.930 . S
H1235 C1243 0.930 . S
H1236 C1246 0.930 . S
H1237 C1247 0.930 . S
C1238 H1232 0.930 . S
C1238 C1239 1.355 . S
C1238 C1240 1.415 . S
C1239 C1238 1.355 . S
C1239 C1241 1.419 . S
C1240 C1238 1.415 . S
C1240 C1245 1.425 . S
C1240 C1247 1.409 . S
C1241 H1233 0.930 . S
C1241 C1239 1.419 . S
C1241 C1242 1.362 . S
C1242 H1234 0.930 . S
C1242 C1241 1.362 . S
C1242 C1245 1.409 . S
C1243 H1235 0.930 . S
C1243 C1244 1.355 . S
C1243 C1245 1.415 . S
C1244 C1243 1.355 . S
C1244 C1246 1.419 . S
C1245 C1240 1.425 . S
C1245 C1242 1.409 . S
C1245 C1243 1.415 . S
C1246 H1236 0.930 . S
C1246 C1244 1.419 . S
C1246 C1247 1.362 . S
C1247 H1237 0.930 . S
C1247 C1240 1.409 . S
C1247 C1246 1.362 . S
H1248 C1254 0.930 . S
H1249 C1257 0.930 . S
H1250 C1258 0.930 . S
H1251 C1259 0.930 . S
H1252 C1262 0.930 . S
H1253 C1263 0.930 . S
C1254 H1248 0.930 . S
C1254 C1255 1.355 . S
C1254 C1256 1.415 . S
C1255 C1254 1.355 . S
C1255 C1257 1.419 . S
C1256 C1254 1.415 . S
C1256 C1261 1.425 . S
C1256 C1263 1.409 . S
C1257 H1249 0.930 . S
C1257 C1255 1.419 . S
C1257 C1258 1.362 . S
C1258 H1250 0.930 . S
C1258 C1257 1.362 . S
C1258 C1261 1.409 . S
C1259 H1251 0.930 . S
C1259 C1260 1.355 . S
C1259 C1261 1.415 . S
C1260 C1259 1.355 . S
C1260 C1262 1.419 . S
C1261 C1256 1.425 . S
C1261 C1258 1.409 . S
C1261 C1259 1.415 . S
C1262 H1252 0.930 . S
C1262 C1260 1.419 . S
C1262 C1263 1.362 . S
C1263 H1253 0.930 . S
C1263 C1256 1.409 . S
C1263 C1262 1.362 . S
H1264 C1270 0.930 . S
H1265 C1273 0.930 . S
H1266 C1274 0.930 . S
H1267 C1275 0.930 . S
H1268 C1278 0.930 . S
H1269 C1279 0.930 . S
C1270 H1264 0.930 . S
C1270 C1271 1.355 . S
C1270 C1272 1.415 . S
C1271 C1270 1.355 . S
C1271 C1273 1.419 . S
C1272 C1270 1.415 . S
C1272 C1277 1.425 . S
C1272 C1279 1.409 . S
C1273 H1265 0.930 . S
C1273 C1271 1.419 . S
C1273 C1274 1.362 . S
C1274 H1266 0.930 . S
C1274 C1273 1.362 . S
C1274 C1277 1.409 . S
C1275 H1267 0.930 . S
C1275 C1276 1.355 . S
C1275 C1277 1.415 . S
C1276 C1275 1.355 . S
C1276 C1278 1.419 . S
C1277 C1272 1.425 . S
C1277 C1274 1.409 . S
C1277 C1275 1.415 . S
C1278 H1268 0.930 . S
C1278 C1276 1.419 . S
C1278 C1279 1.362 . S
C1279 H1269 0.930 . S
C1279 C1272 1.409 . S
C1279 C1278 1.362 . S
H1280 C1286 0.930 . S
H1281 C1289 0.930 . S
H1282 C1290 0.930 . S
H1283 C1291 0.930 . S
H1284 C1294 0.930 . S
H1285 C1295 0.930 . S
C1286 H1280 0.930 . S
C1286 C1287 1.355 . S
C1286 C1288 1.415 . S
C1287 C1286 1.355 . S
C1287 C1289 1.419 . S
C1288 C1286 1.415 . S
C1288 C1293 1.425 . S
C1288 C1295 1.409 . S
C1289 H1281 0.930 . S
C1289 C1287 1.419 . S
C1289 C1290 1.362 . S
C1290 H1282 0.930 . S
C1290 C1289 1.362 . S
C1290 C1293 1.409 . S
C1291 H1283 0.930 . S
C1291 C1292 1.355 . S
C1291 C1293 1.415 . S
C1292 C1291 1.355 . S
C1292 C1294 1.419 . S
C1293 C1288 1.425 . S
C1293 C1290 1.409 . S
C1293 C1291 1.415 . S
C1294 H1284 0.930 . S
C1294 C1292 1.419 . S
C1294 C1295 1.362 . S
C1295 H1285 0.930 . S
C1295 C1288 1.409 . S
C1295 C1294 1.362 . S
H1296 C1302 0.930 . S
H1297 C1305 0.930 . S
H1298 C1306 0.930 . S
H1299 C1307 0.930 . S
H1300 C1310 0.930 . S
H1301 C1311 0.930 . S
C1302 H1296 0.930 . S
C1302 C1303 1.355 . S
C1302 C1304 1.415 . S
C1303 C1302 1.355 . S
C1303 C1305 1.419 . S
C1304 C1302 1.415 . S
C1304 C1309 1.425 . S
C1304 C1311 1.409 . S
C1305 H1297 0.930 . S
C1305 C1303 1.419 . S
C1305 C1306 1.362 . S
C1306 H1298 0.930 . S
C1306 C1305 1.362 . S
C1306 C1309 1.409 . S
C1307 H1299 0.930 . S
C1307 C1308 1.355 . S
C1307 C1309 1.415 . S
C1308 C1307 1.355 . S
C1308 C1310 1.419 . S
C1309 C1304 1.425 . S
C1309 C1306 1.409 . S
C1309 C1307 1.415 . S
C1310 H1300 0.930 . S
C1310 C1308 1.419 . S
C1310 C1311 1.362 . S
C1311 H1301 0.930 . S
C1311 C1304 1.409 . S
C1311 C1310 1.362 . S
H1312 C1318 0.930 . S
H1313 C1321 0.930 . S
H1314 C1322 0.930 . S
H1315 C1323 0.930 . S
H1316 C1326 0.930 . S
H1317 C1327 0.930 . S
C1318 H1312 0.930 . S
C1318 C1319 1.355 . S
C1318 C1320 1.415 . S
C1319 C1318 1.355 . S
C1319 C1321 1.419 . S
C1320 C1318 1.415 . S
C1320 C1325 1.425 . S
C1320 C1327 1.409 . S
C1321 H1313 0.930 . S
C1321 C1319 1.419 . S
C1321 C1322 1.362 . S
C1322 H1314 0.930 . S
C1322 C1321 1.362 . S
C1322 C1325 1.409 . S
C1323 H1315 0.930 . S
C1323 C1324 1.355 . S
C1323 C1325 1.415 . S
C1324 C1323 1.355 . S
C1324 C1326 1.419 . S
C1325 C1320 1.425 . S
C1325 C1322 1.409 . S
C1325 C1323 1.415 . S
C1326 H1316 0.930 . S
C1326 C1324 1.419 . S
C1326 C1327 1.362 . S
C1327 H1317 0.930 . S
C1327 C1320 1.409 . S
C1327 C1326 1.362 . S
H1328 C1334 0.930 . S
H1329 C1337 0.930 . S
H1330 C1338 0.930 . S
H1331 C1339 0.930 . S
H1332 C1342 0.930 . S
H1333 C1343 0.930 . S
C1334 H1328 0.930 . S
C1334 C1335 1.355 . S
C1334 C1336 1.415 . S
C1335 C1334 1.355 . S
C1335 C1337 1.419 . S
C1336 C1334 1.415 . S
C1336 C1341 1.425 . S
C1336 C1343 1.409 . S
C1337 H1329 0.930 . S
C1337 C1335 1.419 . S
C1337 C1338 1.362 . S
C1338 H1330 0.930 . S
C1338 C1337 1.362 . S
C1338 C1341 1.409 . S
C1339 H1331 0.930 . S
C1339 C1340 1.355 . S
C1339 C1341 1.415 . S
C1340 C1339 1.355 . S
C1340 C1342 1.419 . S
C1341 C1336 1.425 . S
C1341 C1338 1.409 . S
C1341 C1339 1.415 . S
C1342 H1332 0.930 . S
C1342 C1340 1.419 . S
C1342 C1343 1.362 . S
C1343 H1333 0.930 . S
C1343 C1336 1.409 . S
C1343 C1342 1.362 . S
H1344 C1350 0.930 . S
H1345 C1353 0.930 . S
H1346 C1354 0.930 . S
H1347 C1355 0.930 . S
H1348 C1358 0.930 . S
H1349 C1359 0.930 . S
C1350 H1344 0.930 . S
C1350 C1351 1.355 . S
C1350 C1352 1.415 . S
C1351 C1350 1.355 . S
C1351 C1353 1.419 . S
C1352 C1350 1.415 . S
C1352 C1357 1.425 . S
C1352 C1359 1.409 . S
C1353 H1345 0.930 . S
C1353 C1351 1.419 . S
C1353 C1354 1.362 . S
C1354 H1346 0.930 . S
C1354 C1353 1.362 . S
C1354 C1357 1.409 . S
C1355 H1347 0.930 . S
C1355 C1356 1.355 . S
C1355 C1357 1.415 . S
C1356 C1355 1.355 . S
C1356 C1358 1.419 . S
C1357 C1352 1.425 . S
C1357 C1354 1.409 . S
C1357 C1355 1.415 . S
C1358 H1348 0.930 . S
C1358 C1356 1.419 . S
C1358 C1359 1.362 . S
C1359 H1349 0.930 . S
C1359 C1352 1.409 . S
C1359 C1358 1.362 . S
H1360 C1366 0.930 . S
H1361 C1369 0.930 . S
H1362 C1370 0.930 . S
H1363 C1371 0.930 . S
H1364 C1374 0.930 . S
H1365 C1375 0.930 . S
C1366 H1360 0.930 . S
C1366 C1367 1.355 . S
C1366 C1368 1.415 . S
C1367 C1366 1.355 . S
C1367 C1369 1.419 . S
C1368 C1366 1.415 . S
C1368 C1373 1.425 . S
C1368 C1375 1.409 . S
C1369 H1361 0.930 . S
C1369 C1367 1.419 . S
C1369 C1370 1.362 . S
C1370 H1362 0.930 . S
C1370 C1369 1.362 . S
C1370 C1373 1.409 . S
C1371 H1363 0.930 . S
C1371 C1372 1.355 . S
C1371 C1373 1.415 . S
C1372 C1371 1.355 . S
C1372 C1374 1.419 . S
C1373 C1368 1.425 . S
C1373 C1370 1.409 . S
C1373 C1371 1.415 . S
C1374 H1364 0.930 . S
C1374 C1372 1.419 . S
C1374 C1375 1.362 . S
C1375 H1365 0.930 . S
C1375 C1368 1.409 . S
C1375 C1374 1.362 . S
H1376 C1382 0.930 . S
H1377 C1385 0.930 . S
H1378 C1386 0.930 . S
H1379 C1387 0.930 . S
H1380 C1390 0.930 . S
H1381 C1391 0.930 . S
C1382 H1376 0.930 . S
C1382 C1383 1.355 . S
C1382 C1384 1.415 . S
C1383 C1382 1.355 . S
C1383 C1385 1.419 . S
C1384 C1382 1.415 . S
C1384 C1389 1.425 . S
C1384 C1391 1.409 . S
C1385 H1377 0.930 . S
C1385 C1383 1.419 . S
C1385 C1386 1.362 . S
C1386 H1378 0.930 . S
C1386 C1385 1.362 . S
C1386 C1389 1.409 . S
C1387 H1379 0.930 . S
C1387 C1388 1.355 . S
C1387 C1389 1.415 . S
C1388 C1387 1.355 . S
C1388 C1390 1.419 . S
C1389 C1384 1.425 . S
C1389 C1386 1.409 . S
C1389 C1387 1.415 . S
C1390 H1380 0.930 . S
C1390 C1388 1.419 . S
C1390 C1391 1.362 . S
C1391 H1381 0.930 . S
C1391 C1384 1.409 . S
C1391 C1390 1.362 . S
H1392 C1398 0.930 . S
H1393 C1401 0.930 . S
H1394 C1402 0.930 . S
H1395 C1403 0.930 . S
H1396 C1406 0.930 . S
H1397 C1407 0.930 . S
C1398 H1392 0.930 . S
C1398 C1399 1.355 . S
C1398 C1400 1.415 . S
C1399 C1398 1.355 . S
C1399 C1401 1.419 . S
C1400 C1398 1.415 . S
C1400 C1405 1.425 . S
C1400 C1407 1.409 . S
C1401 H1393 0.930 . S
C1401 C1399 1.419 . S
C1401 C1402 1.362 . S
C1402 H1394 0.930 . S
C1402 C1401 1.362 . S
C1402 C1405 1.409 . S
C1403 H1395 0.930 . S
C1403 C1404 1.355 . S
C1403 C1405 1.415 . S
C1404 C1403 1.355 . S
C1404 C1406 1.419 . S
C1405 C1400 1.425 . S
C1405 C1402 1.409 . S
C1405 C1403 1.415 . S
C1406 H1396 0.930 . S
C1406 C1404 1.419 . S
C1406 C1407 1.362 . S
C1407 H1397 0.930 . S
C1407 C1400 1.409 . S
C1407 C1406 1.362 . S
H1408 C1414 0.930 . S
H1409 C1417 0.930 . S
H1410 C1418 0.930 . S
H1411 C1419 0.930 . S
H1412 C1422 0.930 . S
H1413 C1423 0.930 . S
C1414 H1408 0.930 . S
C1414 C1415 1.355 . S
C1414 C1416 1.415 . S
C1415 C1414 1.355 . S
C1415 C1417 1.419 . S
C1416 C1414 1.415 . S
C1416 C1421 1.425 . S
C1416 C1423 1.409 . S
C1417 H1409 0.930 . S
C1417 C1415 1.419 . S
C1417 C1418 1.362 . S
C1418 H1410 0.930 . S
C1418 C1417 1.362 . S
C1418 C1421 1.409 . S
C1419 H1411 0.930 . S
C1419 C1420 1.355 . S
C1419 C1421 1.415 . S
C1420 C1419 1.355 . S
C1420 C1422 1.419 . S
C1421 C1416 1.425 . S
C1421 C1418 1.409 . S
C1421 C1419 1.415 . S
C1422 H1412 0.930 . S
C1422 C1420 1.419 . S
C1422 C1423 1.362 . S
C1423 H1413 0.930 . S
C1423 C1416 1.409 . S
C1423 C1422 1.362 . S
H1424 C1430 0.930 . S
H1425 C1433 0.930 . S
H1426 C1434 0.930 . S
H1427 C1435 0.930 . S
H1428 C1438 0.930 . S
H1429 C1439 0.930 . S
C1430 H1424 0.930 . S
C1430 C1431 1.355 . S
C1430 C1432 1.415 . S
C1431 C1430 1.355 . S
C1431 C1433 1.419 . S
C1432 C1430 1.415 . S
C1432 C1437 1.425 . S
C1432 C1439 1.409 . S
C1433 H1425 0.930 . S
C1433 C1431 1.419 . S
C1433 C1434 1.362 . S
C1434 H1426 0.930 . S
C1434 C1433 1.362 . S
C1434 C1437 1.409 . S
C1435 H1427 0.930 . S
C1435 C1436 1.355 . S
C1435 C1437 1.415 . S
C1436 C1435 1.355 . S
C1436 C1438 1.419 . S
C1437 C1432 1.425 . S
C1437 C1434 1.409 . S
C1437 C1435 1.415 . S
C1438 H1428 0.930 . S
C1438 C1436 1.419 . S
C1438 C1439 1.362 . S
C1439 H1429 0.930 . S
C1439 C1432 1.409 . S
C1439 C1438 1.362 . S
H1440 C1446 0.930 . S
H1441 C1449 0.930 . S
H1442 C1450 0.930 . S
H1443 C1451 0.930 . S
H1444 C1454 0.930 . S
H1445 C1455 0.930 . S
C1446 H1440 0.930 . S
C1446 C1447 1.355 . S
C1446 C1448 1.415 . S
C1447 C1446 1.355 . S
C1447 C1449 1.419 . S
C1448 C1446 1.415 . S
C1448 C1453 1.425 . S
C1448 C1455 1.409 . S
C1449 H1441 0.930 . S
C1449 C1447 1.419 . S
C1449 C1450 1.362 . S
C1450 H1442 0.930 . S
C1450 C1449 1.362 . S
C1450 C1453 1.409 . S
C1451 H1443 0.930 . S
C1451 C1452 1.355 . S
C1451 C1453 1.415 . S
C1452 C1451 1.355 . S
C1452 C1454 1.419 . S
C1453 C1448 1.425 . S
C1453 C1450 1.409 . S
C1453 C1451 1.415 . S
C1454 H1444 0.930 . S
C1454 C1452 1.419 . S
C1454 C1455 1.362 . S
C1455 H1445 0.930 . S
C1455 C1448 1.409 . S
C1455 C1454 1.362 . S
H1456 C1462 0.930 . S
H1457 C1465 0.930 . S
H1458 C1466 0.930 . S
H1459 C1467 0.930 . S
H1460 C1470 0.930 . S
H1461 C1471 0.930 . S
C1462 H1456 0.930 . S
C1462 C1463 1.355 . S
C1462 C1464 1.415 . S
C1463 C1462 1.355 . S
C1463 C1465 1.419 . S
C1464 C1462 1.415 . S
C1464 C1469 1.425 . S
C1464 C1471 1.409 . S
C1465 H1457 0.930 . S
C1465 C1463 1.419 . S
C1465 C1466 1.362 . S
C1466 H1458 0.930 . S
C1466 C1465 1.362 . S
C1466 C1469 1.409 . S
C1467 H1459 0.930 . S
C1467 C1468 1.355 . S
C1467 C1469 1.415 . S
C1468 C1467 1.355 . S
C1468 C1470 1.419 . S
C1469 C1464 1.425 . S
C1469 C1466 1.409 . S
C1469 C1467 1.415 . S
C1470 H1460 0.930 . S
C1470 C1468 1.419 . S
C1470 C1471 1.362 . S
C1471 H1461 0.930 . S
C1471 C1464 1.409 . S
C1471 C1470 1.362 . S
H1472 C1478 0.930 . S
H1473 C1481 0.930 . S
H1474 C1482 0.930 . S
H1475 C1483 0.930 . S
H1476 C1486 0.930 . S
H1477 C1487 0.930 . S
C1478 H1472 0.930 . S
C1478 C1479 1.355 . S
C1478 C1480 1.415 . S
C1479 C1478 1.355 . S
C1479 C1481 1.419 . S
C1480 C1478 1.415 . S
C1480 C1485 1.425 . S
C1480 C1487 1.409 . S
C1481 H1473 0.930 . S
C1481 C1479 1.419 . S
C1481 C1482 1.362 . S
C1482 H1474 0.930 . S
C1482 C1481 1.362 . S
C1482 C1485 1.409 . S
C1483 H1475 0.930 . S
C1483 C1484 1.355 . S
C1483 C1485 1.415 . S
C1484 C1483 1.355 . S
C1484 C1486 1.419 . S
C1485 C1480 1.425 . S
C1485 C1482 1.409 . S
C1485 C1483 1.415 . S
C1486 H1476 0.930 . S
C1486 C1484 1.419 . S
C1486 C1487 1.362 . S
C1487 H1477 0.930 . S
C1487 C1480 1.409 . S
C1487 C1486 1.362 . S
H1488 C1494 0.930 . S
H1489 C1497 0.930 . S
H1490 C1498 0.930 . S
H1491 C1499 0.930 . S
H1492 C1502 0.930 . S
H1493 C1503 0.930 . S
C1494 H1488 0.930 . S
C1494 C1495 1.355 . S
C1494 C1496 1.415 . S
C1495 C1494 1.355 . S
C1495 C1497 1.419 . S
C1496 C1494 1.415 . S
C1496 C1501 1.425 . S
C1496 C1503 1.409 . S
C1497 H1489 0.930 . S
C1497 C1495 1.419 . S
C1497 C1498 1.362 . S
C1498 H1490 0.930 . S
C1498 C1497 1.362 . S
C1498 C1501 1.409 . S
C1499 H1491 0.930 . S
C1499 C1500 1.355 . S
C1499 C1501 1.415 . S
C1500 C1499 1.355 . S
C1500 C1502 1.419 . S
C1501 C1496 1.425 . S
C1501 C1498 1.409 . S
C1501 C1499 1.415 . S
C1502 H1492 0.930 . S
C1502 C1500 1.419 . S
C1502 C1503 1.362 . S
C1503 H1493 0.930 . S
C1503 C1496 1.409 . S
C1503 C1502 1.362 . S
H1504 C1510 0.930 . S
H1505 C1513 0.930 . S
H1506 C1514 0.930 . S
H1507 C1515 0.930 . S
H1508 C1518 0.930 . S
H1509 C1519 0.930 . S
C1510 H1504 0.930 . S
C1510 C1511 1.355 . S
C1510 C1512 1.415 . S
C1511 C1510 1.355 . S
C1511 C1513 1.419 . S
C1512 C1510 1.415 . S
C1512 C1517 1.425 . S
C1512 C1519 1.409 . S
C1513 H1505 0.930 . S
C1513 C1511 1.419 . S
C1513 C1514 1.362 . S
C1514 H1506 0.930 . S
C1514 C1513 1.362 . S
C1514 C1517 1.409 . S
C1515 H1507 0.930 . S
C1515 C1516 1.355 . S
C1515 C1517 1.415 . S
C1516 C1515 1.355 . S
C1516 C1518 1.419 . S
C1517 C1512 1.425 . S
C1517 C1514 1.409 . S
C1517 C1515 1.415 . S
C1518 H1508 0.930 . S
C1518 C1516 1.419 . S
C1518 C1519 1.362 . S
C1519 H1509 0.930 . S
C1519 C1512 1.409 . S
C1519 C1518 1.362 . S
H1520 C1526 0.930 . S
H1521 C1529 0.930 . S
H1522 C1530 0.930 . S
H1523 C1531 0.930 . S
H1524 C1534 0.930 . S
H1525 C1535 0.930 . S
C1526 H1520 0.930 . S
C1526 C1527 1.355 . S
C1526 C1528 1.415 . S
C1527 C1526 1.355 . S
C1527 C1529 1.419 . S
C1528 C1526 1.415 . S
C1528 C1533 1.425 . S
C1528 C1535 1.409 . S
C1529 H1521 0.930 . S
C1529 C1527 1.419 . S
C1529 C1530 1.362 . S
C1530 H1522 0.930 . S
C1530 C1529 1.362 . S
C1530 C1533 1.409 . S
C1531 H1523 0.930 . S
C1531 C1532 1.355 . S
C1531 C1533 1.415 . S
C1532 C1531 1.355 . S
C1532 C1534 1.419 . S
C1533 C1528 1.425 . S
C1533 C1530 1.409 . S
C1533 C1531 1.415 . S
C1534 H1524 0.930 . S
C1534 C1532 1.419 . S
C1534 C1535 1.362 . S
C1535 H1525 0.930 . S
C1535 C1528 1.409 . S
C1535 C1534 1.362 . S
H1536 C1542 0.930 . S
H1537 C1545 0.930 . S
H1538 C1546 0.930 . S
H1539 C1547 0.930 . S
H1540 C1550 0.930 . S
H1541 C1551 0.930 . S
C1542 H1536 0.930 . S
C1542 C1543 1.355 . S
C1542 C1544 1.415 . S
C1543 C1542 1.355 . S
C1543 C1545 1.419 . S
C1544 C1542 1.415 . S
C1544 C1549 1.425 . S
C1544 C1551 1.409 . S
C1545 H1537 0.930 . S
C1545 C1543 1.419 . S
C1545 C1546 1.362 . S
C1546 H1538 0.930 . S
C1546 C1545 1.362 . S
C1546 C1549 1.409 . S
C1547 H1539 0.930 . S
C1547 C1548 1.355 . S
C1547 C1549 1.415 . S
C1548 C1547 1.355 . S
C1548 C1550 1.419 . S
C1549 C1544 1.425 . S
C1549 C1546 1.409 . S
C1549 C1547 1.415 . S
C1550 H1540 0.930 . S
C1550 C1548 1.419 . S
C1550 C1551 1.362 . S
C1551 H1541 0.930 . S
C1551 C1544 1.409 . S
C1551 C1550 1.362 . S
H1552 C1558 0.930 . S
H1553 C1561 0.930 . S
H1554 C1562 0.930 . S
H1555 C1563 0.930 . S
H1556 C1566 0.930 . S
H1557 C1567 0.930 . S
C1558 H1552 0.930 . S
C1558 C1559 1.355 . S
C1558 C1560 1.415 . S
C1559 C1558 1.355 . S
C1559 C1561 1.419 . S
C1560 C1558 1.415 . S
C1560 C1565 1.425 . S
C1560 C1567 1.409 . S
C1561 H1553 0.930 . S
C1561 C1559 1.419 . S
C1561 C1562 1.362 . S
C1562 H1554 0.930 . S
C1562 C1561 1.362 . S
C1562 C1565 1.409 . S
C1563 H1555 0.930 . S
C1563 C1564 1.355 . S
C1563 C1565 1.415 . S
C1564 C1563 1.355 . S
C1564 C1566 1.419 . S
C1565 C1560 1.425 . S
C1565 C1562 1.409 . S
C1565 C1563 1.415 . S
C1566 H1556 0.930 . S
C1566 C1564 1.419 . S
C1566 C1567 1.362 . S
C1567 H1557 0.930 . S
C1567 C1560 1.409 . S
C1567 C1566 1.362 . S
H1568 C1574 0.930 . S
H1569 C1577 0.930 . S
H1570 C1578 0.930 . S
H1571 C1579 0.930 . S
H1572 C1582 0.930 . S
H1573 C1583 0.930 . S
C1574 H1568 0.930 . S
C1574 C1575 1.355 . S
C1574 C1576 1.415 . S
C1575 C1574 1.355 . S
C1575 C1577 1.419 . S
C1576 C1574 1.415 . S
C1576 C1581 1.425 . S
C1576 C1583 1.409 . S
C1577 H1569 0.930 . S
C1577 C1575 1.419 . S
C1577 C1578 1.362 . S
C1578 H1570 0.930 . S
C1578 C1577 1.362 . S
C1578 C1581 1.409 . S
C1579 H1571 0.930 . S
C1579 C1580 1.355 . S
C1579 C1581 1.415 . S
C1580 C1579 1.355 . S
C1580 C1582 1.419 . S
C1581 C1576 1.425 . S
C1581 C1578 1.409 . S
C1581 C1579 1.415 . S
C1582 H1572 0.930 . S
C1582 C1580 1.419 . S
C1582 C1583 1.362 . S
C1583 H1573 0.930 . S
C1583 C1576 1.409 . S
C1583 C1582 1.362 . S
H1584 C1590 0.930 . S
H1585 C1593 0.930 . S
H1586 C1594 0.930 . S
H1587 C1595 0.930 . S
H1588 C1598 0.930 . S
H1589 C1599 0.930 . S
C1590 H1584 0.930 . S
C1590 C1591 1.355 . S
C1590 C1592 1.415 . S
C1591 C1590 1.355 . S
C1591 C1593 1.419 . S
C1592 C1590 1.415 . S
C1592 C1597 1.425 . S
C1592 C1599 1.409 . S
C1593 H1585 0.930 . S
C1593 C1591 1.419 . S
C1593 C1594 1.362 . S
C1594 H1586 0.930 . S
C1594 C1593 1.362 . S
C1594 C1597 1.409 . S
C1595 H1587 0.930 . S
C1595 C1596 1.355 . S
C1595 C1597 1.415 . S
C1596 C1595 1.355 . S
C1596 C1598 1.419 . S
C1597 C1592 1.425 . S
C1597 C1594 1.409 . S
C1597 C1595 1.415 . S
C1598 H1588 0.930 . S
C1598 C1596 1.419 . S
C1598 C1599 1.362 . S
C1599 H1589 0.930 . S
C1599 C1592 1.409 . S
C1599 C1598 1.362 . S
H1600 C1606 0.930 . S
H1601 C1609 0.930 . S
H1602 C1610 0.930 . S
H1603 C1611 0.930 . S
H1604 C1614 0.930 . S
H1605 C1615 0.930 . S
C1606 H1600 0.930 . S
C1606 C1607 1.355 . S
C1606 C1608 1.415 . S
C1607 C1606 1.355 . S
C1607 C1609 1.419 . S
C1608 C1606 1.415 . S
C1608 C1613 1.425 . S
C1608 C1615 1.409 . S
C1609 H1601 0.930 . S
C1609 C1607 1.419 . S
C1609 C1610 1.362 . S
C1610 H1602 0.930 . S
C1610 C1609 1.362 . S
C1610 C1613 1.409 . S
C1611 H1603 0.930 . S
C1611 C1612 1.355 . S
C1611 C1613 1.415 . S
C1612 C1611 1.355 . S
C1612 C1614 1.419 . S
C1613 C1608 1.425 . S
C1613 C1610 1.409 . S
C1613 C1611 1.415 . S
C1614 H1604 0.930 . S
C1614 C1612 1.419 . S
C1614 C1615 1.362 . S
C1615 H1605 0.930 . S
C1615 C1608 1.409 . S
C1615 C1614 1.362 . S
H1616 C1622 0.930 . S
H1617 C1625 0.930 . S
H1618 C1626 0.930 . S
H1619 C1627 0.930 . S
H1620 C1630 0.930 . S
H1621 C1631 0.930 . S
C1622 H1616 0.930 . S
C1622 C1623 1.355 . S
C1622 C1624 1.415 . S
C1623 C1622 1.355 . S
C1623 C1625 1.419 . S
C1624 C1622 1.415 . S
C1624 C1629 1.425 . S
C1624 C1631 1.409 . S
C1625 H1617 0.930 . S
C1625 C1623 1.419 . S
C1625 C1626 1.362 . S
C1626 H1618 0.930 . S
C1626 C1625 1.362 . S
C1626 C1629 1.409 . S
C1627 H1619 0.930 . S
C1627 C1628 1.355 . S
C1627 C1629 1.415 . S
C1628 C1627 1.355 . S
C1628 C1630 1.419 . S
C1629 C1624 1.425 . S
C1629 C1626 1.409 . S
C1629 C1627 1.415 . S
C1630 H1620 0.930 . S
C1630 C1628 1.419 . S
C1630 C1631 1.362 . S
C1631 H1621 0.930 . S
C1631 C1624 1.409 . S
C1631 C1630 1.362 . S
C876 C689 1.571 . S
C871 C74 1.409 . S
C892 C694 0.741 . S
C887 C142 0.988 . S
C908 C695 1.573 . S
C903 C231 1.500 . S
C919 C322 1.175 . S
C924 C699 1.295 . S
C935 C406 1.086 . S
C940 C702 0.769 . S
C956 C703 1.575 . S
C951 C494 1.518 . S
C967 C562 1.292 . S
C972 C680 1.360 . S
C983 C651 1.505 . S
C988 C696 1.569 . S
C1004 C734 1.279 . S
C999 C58 1.304 . S
C1015 C151 1.566 . S
C1020 C760 1.571 . S
C1036 C712 2.433 . S
C1031 C224 2.335 . S
C1052 C767 1.464 . S
C1047 C315 1.457 . S
C1063 C399 1.446 . S
C1068 C721 1.483 . S
C1084 C763 1.310 . S
C1079 C478 1.224 . S
C1095 C571 1.521 . S
C1100 C727 1.586 . S
C1111 C644 2.321 . S
C1116 C758 2.433 . S
C1127 C67 2.375 . S
C1132 C766 2.458 . S
C1143 C392 1.525 . S
C1148 C753 1.532 . S
C1164 C731 2.450 . S
C1159 C487 2.352 . S
C1180 C759 1.429 . S
C1175 C578 1.419 . S
C1191 C658 1.333 . S
C1196 C726 1.303 . S
C1207 C238 1.319 . S
C1212 C744 1.296 . S
C1228 C735 1.579 . S
C1223 C308 1.483 . S
C1239 C158 1.472 . S
C1244 C728 1.488 . S
C1255 C662 1.385 . S
C1260 C790 1.496 . S
C1271 C394 1.133 . S
C1276 C785 0.346 . S
C1292 C799 1.509 . S
C1287 C483 1.491 . S
C1308 C776 1.334 . S
C1303 C574 1.227 . S
C1319 C154 1.122 . S
C1324 C792 0.454 . S
C1340 C791 1.444 . S
C1335 C242 1.440 . S
C1351 C310 1.161 . S
C1356 C795 1.283 . S
C1367 C63 1.429 . S
C1372 C798 1.439 . S
C1383 C646 1.317 . S
C1388 C824 1.371 . S
C1404 C840 1.587 . S
C1399 C403 1.546 . S
C1415 C476 2.362 . S
C1420 C822 2.506 . S
C1431 C567 1.393 . S
C1436 C855 1.412 . S
C1452 C831 1.431 . S
C1447 C147 1.376 . S
C1463 C226 1.255 . S
C1468 C849 1.341 . S
C1484 C827 1.556 . S
C1479 C319 1.442 . S
C1500 C862 2.466 . S
C1495 C56 2.389 . S
C1516 C854 2.498 . S
C1511 C655 2.394 . S
C1527 C140 1.514 . S
C1532 C859 1.560 . S
C1543 C235 2.386 . S
C1548 C830 2.506 . S
C1564 C863 1.455 . S
C1559 C326 1.428 . S
C1575 C70 1.283 . S
C1580 C817 1.364 . S
C1591 C490 1.330 . S
C1596 C856 1.304 . S
C1612 C808 1.548 . S
C1607 C560 1.462 . S
C1628 C823 1.381 . S
C1623 C410 1.380 . S
