# Generated by pormake.
# Topology rtl, (3,6)-cn, num edge types: 1
# Building blocks:
#     Node 0, Type 0, BuildingBlock: OLANEW_clean_sbu_2, # of connection points: 3
#     Node 1, Type 0, BuildingBlock: OLANEW_clean_sbu_2, # of connection points: 3
#     Node 2, Type 0, BuildingBlock: OLANEW_clean_sbu_2, # of connection points: 3
#     Node 3, Type 0, BuildingBlock: OLANEW_clean_sbu_2, # of connection points: 3
#     Node 4, Type 1, BuildingBlock: LEVNOQ01_clean_sbu_1, # of connection points: 6
#     Node 5, Type 1, BuildingBlock: LEVNOQ01_clean_sbu_1, # of connection points: 6
#     Edge 6, Type (0, 1), BuildingBlock: CIFDUS_clean_linker_0, # of connection points: 2
#     Edge 7, Type (0, 1), BuildingBlock: CIFDUS_clean_linker_0, # of connection points: 2
#     Edge 8, Type (0, 1), BuildingBlock: CIFDUS_clean_linker_0, # of connection points: 2
#     Edge 9, Type (0, 1), BuildingBlock: CIFDUS_clean_linker_0, # of connection points: 2
#     Edge 10, Type (0, 1), BuildingBlock: CIFDUS_clean_linker_0, # of connection points: 2
#     Edge 11, Type (0, 1), BuildingBlock: CIFDUS_clean_linker_0, # of connection points: 2
#     Edge 12, Type (0, 1), BuildingBlock: CIFDUS_clean_linker_0, # of connection points: 2
#     Edge 13, Type (0, 1), BuildingBlock: CIFDUS_clean_linker_0, # of connection points: 2
#     Edge 14, Type (0, 1), BuildingBlock: CIFDUS_clean_linker_0, # of connection points: 2
#     Edge 15, Type (0, 1), BuildingBlock: CIFDUS_clean_linker_0, # of connection points: 2
#     Edge 16, Type (0, 1), BuildingBlock: CIFDUS_clean_linker_0, # of connection points: 2
#     Edge 17, Type (0, 1), BuildingBlock: CIFDUS_clean_linker_0, # of connection points: 2
# Relax obj value: 0.016
# Max RMSD: 0.119
# Mean RMSD: 0.075
data_MOF--net-rtl--node1-OLANEW_clean_sbu_2--node2-LEVNOQ01_clean_sbu_1--edge1-CIFDUS_clean_linker_0
_symmetry_space_group_name_H-M    P1
_symmetry_Int_Tables_number       1
_symmetry_cell_setting            triclinic
loop_
_symmetry_equiv_pos_as_xyz
'x, y, z'
_cell_length_a     33.670832
_cell_length_b     34.076788
_cell_length_c     21.602968
_cell_angle_alpha  86.735532
_cell_angle_beta   101.45794
_cell_angle_gamma 90.016301
loop_
_atom_site_label
_atom_site_type_symbol
_atom_site_fract_x
_atom_site_fract_y
_atom_site_fract_z
_atom_type_partial_charge
O0 O 0.19546 0.84691 0.00113 0.0
Cd1 Cd 0.22998 0.8078 0.09637 0.0
O2 O 0.20541 0.90232 0.0495 0.0
Cd3 Cd 0.22605 0.878 0.14624 0.0
O4 O 0.20506 0.88331 0.235 0.0
C5 C 0.18005 0.85801 0.24887 0.0
O6 O 0.17158 0.828 0.21307 0.0
C7 C 0.19245 0.88421 -0.00035 0.0
C8 C 0.26628 0.73797 0.07071 0.0
O9 O 0.22858 0.73981 0.07299 0.0
O10 O 0.28717 0.76928 0.08028 0.0
O11 O 0.65679 0.69923 0.65568 0.0
Cd12 Cd 0.69026 0.73188 0.57571 0.0
O13 O 0.60636 0.68163 0.58091 0.0
Cd14 Cd 0.62329 0.70519 0.49339 0.0
O15 O 0.60773 0.69839 0.39088 0.0
C16 C 0.57024 0.6945 0.36751 0.0
O17 O 0.54404 0.69753 0.40474 0.0
C18 C 0.62317 0.68184 0.63917 0.0
C19 C 0.74666 0.79145 0.61085 0.0
O20 O 0.70874 0.79928 0.59262 0.0
O21 O 0.75776 0.75523 0.61545 0.0
O22 O 0.75762 0.15065 0.09161 0.0
Cd23 Cd 0.7296 0.17907 0.98413 0.0
O24 O 0.82055 0.16242 0.08272 0.0
Cd25 Cd 0.80472 0.17823 0.98138 0.0
O26 O 0.81334 0.17138 0.88491 0.0
C27 C 0.81051 0.13738 0.86303 0.0
O28 O 0.79956 0.10784 0.89749 0.0
C29 C 0.79536 0.15009 0.11585 0.0
C30 C 0.69767 0.25533 0.98023 0.0
O31 O 0.67451 0.2254 0.9786 0.0
O32 O 0.73567 0.24916 0.9841 0.0
O33 O 0.35084 0.28027 0.61328 0.0
Cd34 Cd 0.32006 0.25281 0.51134 0.0
O35 O 0.4056 0.29858 0.57853 0.0
Cd36 Cd 0.38426 0.28663 0.47916 0.0
O37 O 0.38768 0.31314 0.38564 0.0
C38 C 0.40741 0.34503 0.38884 0.0
O39 O 0.42215 0.35776 0.44502 0.0
C40 C 0.38599 0.29544 0.62314 0.0
C41 C 0.24493 0.21612 0.5077 0.0
O42 O 0.27785 0.19578 0.51873 0.0
O43 O 0.24761 0.25349 0.49916 0.0
O44 O 0.96273 0.08828 0.62169 0.0
Mg45 Mg 0.01654 0.05787 0.62331 0.0
O46 O 0.94498 0.02763 0.60735 0.0
Mg47 Mg -0.00845 0.00192 0.54887 0.0
O48 O 0.03968 0.05462 0.54291 0.0
O49 O 0.05655 0.10001 0.61522 0.0
O50 O 0.03509 0.97235 0.49091 0.0
O51 O 0.9519 0.03666 0.45925 0.0
Mg52 Mg 0.94756 0.94977 0.4589 0.0
O53 O 0.94637 0.94825 0.55382 0.0
O54 O -0.00033 0.92837 0.43313 0.0
O55 O 0.91295 -0.00561 0.40263 0.0
O56 O 0.91321 0.90636 0.48477 0.0
C57 C 0.04711 0.98327 0.69221 0.0
C58 C 0.93702 0.06178 0.62328 0.0
C59 C 0.06052 0.08538 0.56314 0.0
C60 C 0.03303 0.94487 0.45261 0.0
C61 C 0.92351 0.02938 0.41266 0.0
C62 C 0.92206 0.91855 0.54121 0.0
O63 O 0.0425 0.01926 0.70103 0.0
O64 O 0.03177 0.96995 0.63879 0.0
O65 O 0.57318 0.56262 0.04048 0.0
Mg66 Mg 0.55327 0.50467 0.054 0.0
O67 O 0.50947 0.56218 0.0452 0.0
Mg68 Mg 0.4846 0.50936 0.98009 0.0
O69 O 0.54227 0.46685 0.98292 0.0
O70 O 0.60015 0.46785 0.05562 0.0
O71 O 0.45693 0.45636 0.91677 0.0
O72 O 0.50469 0.54481 0.89572 0.0
Mg73 Mg 0.4144 0.52716 0.88882 0.0
O74 O 0.42612 0.54973 0.97659 0.0
O75 O 0.39264 0.47016 0.88134 0.0
O76 O 0.4485 0.5513 0.82348 0.0
O77 O 0.37015 0.56333 0.90216 0.0
C78 C 0.48886 0.47508 0.12242 0.0
C79 C 0.54348 0.5796 0.05515 0.0
C80 C 0.57846 0.45278 0.0069 0.0
C81 C 0.42153 0.44577 0.88997 0.0
C82 C 0.48623 0.55677 0.84047 0.0
C83 C 0.39131 0.56799 0.95787 0.0
O84 O 0.52409 0.48969 0.13149 0.0
O85 O 0.46764 0.47503 0.06654 0.0
H86 H 0.22499 0.13861 0.4942 0.0
H87 H 0.17501 0.25189 0.51957 0.0
H88 H 0.11078 0.22152 0.52882 0.0
H89 H 0.07155 0.16233 0.54188 0.0
H90 H 0.1196 0.04868 0.51597 0.0
H91 H 0.18139 0.0796 0.49276 0.0
C92 C 0.19989 0.15663 0.5012 0.0
C93 C 0.20507 0.19742 0.5073 0.0
C94 C 0.16265 0.13894 0.50592 0.0
C95 C 0.17203 0.22046 0.51521 0.0
C96 C 0.13523 0.20312 0.52049 0.0
C97 C 0.09512 0.14447 0.52934 0.0
C98 C 0.09123 0.10339 0.53064 0.0
C99 C 0.13055 0.16236 0.51741 0.0
C100 C 0.1218 0.08042 0.51444 0.0
C101 C 0.15733 0.09809 0.50215 0.0
H102 H 0.34679 0.71796 0.08801 0.0
H103 H 0.22651 0.67484 0.01849 0.0
H104 H 0.25513 0.61611 0.98431 0.0
H105 H 0.31371 0.57984 0.96541 0.0
H106 H 0.43438 0.62105 0.03471 0.0
H107 H 0.40645 0.6771 0.07946 0.0
C108 C 0.32691 0.69555 0.06578 0.0
C109 C 0.28451 0.70111 0.055 0.0
C110 C 0.34365 0.66143 0.04661 0.0
C111 C 0.25917 0.6715 0.02705 0.0
C112 C 0.27551 0.63786 0.00744 0.0
C113 C 0.33391 0.60073 -0.0086 0.0
C114 C 0.37599 0.59647 -0.00314 0.0
C115 C 0.31759 0.63291 0.01584 0.0
C116 C 0.40191 0.62349 0.03082 0.0
C117 C 0.38587 0.65579 0.05554 0.0
H118 H 0.82904 0.78448 0.64576 0.0
H119 H 0.73253 0.87063 0.59284 0.0
H120 H 0.78181 0.92178 0.58236 0.0
H121 H 0.85038 0.93877 0.56689 0.0
H122 H 0.94603 0.85199 0.613 0.0
H123 H 0.89963 0.80481 0.64952 0.0
C124 C 0.81883 0.81461 0.63342 0.0
C125 C 0.777 0.82344 0.61874 0.0
C126 C 0.84737 0.84388 0.62627 0.0
C127 C 0.76443 0.86278 0.60357 0.0
C128 C 0.79265 0.89214 0.59743 0.0
C129 C 0.86142 0.91019 0.58808 0.0
C130 C 0.90157 0.89892 0.58828 0.0
C131 C 0.83398 0.88267 0.60582 0.0
C132 C 0.91543 0.86148 0.61383 0.0
C133 C 0.88867 0.8343 0.63356 0.0
H134 H 0.61891 0.28081 0.94438 0.0
H135 H 0.74024 0.32099 0.01478 0.0
H136 H 0.71413 0.38685 0.0224 0.0
H137 H 0.65678 0.43153 0.01775 0.0
H138 H 0.53517 0.3931 0.94589 0.0
H139 H 0.56148 0.32837 0.92857 0.0
C140 C 0.63961 0.30407 0.96102 0.0
C141 C 0.68144 0.29581 0.97989 0.0
C142 C 0.62438 0.3422 0.96475 0.0
C143 C 0.70794 0.32642 0.00033 0.0
C144 C 0.69304 0.36414 0.00473 0.0
C145 C 0.63603 0.40918 -0.00262 0.0
C146 C 0.59408 0.41692 0.98379 0.0
C147 C 0.65132 0.37214 0.98824 0.0
C148 C 0.56762 0.38789 0.95664 0.0
C149 C 0.58265 0.35076 0.94733 0.0
H150 H 0.18089 0.92287 0.3185 0.0
H151 H 0.12382 0.81019 0.28729 0.0
H152 H 0.07572 0.82614 0.35285 0.0
H153 H 0.04538 0.8743 0.40919 0.0
H154 H 0.10081 -0.01259 0.44091 0.0
H155 H 0.15443 0.96887 0.38569 0.0
C156 C 0.15836 0.90155 0.32688 0.0
C157 C 0.15566 0.86557 0.29715 0.0
C158 C 0.1303 0.9111 0.36424 0.0
C159 C 0.12641 0.83823 0.30893 0.0
C160 C 0.09877 0.84735 0.34635 0.0
C161 C 0.06941 0.89482 0.40459 0.0
C162 C 0.06882 0.93239 0.42817 0.0
C163 C 0.09971 0.88408 0.37258 0.0
C164 C 0.10056 0.95835 0.42296 0.0
C165 C 0.13106 0.94781 0.39111 0.0
H166 H 0.55031 0.64617 0.61727 0.0
H167 H 0.65145 0.66875 0.76763 0.0
H168 H 0.61879 0.63095 0.8433 0.0
H169 H 0.56101 0.59125 0.86634 0.0
H170 H 0.46035 0.57054 0.71387 0.0
H171 H 0.49364 0.60758 0.63955 0.0
C172 C 0.56539 0.64299 0.66658 0.0
C173 C 0.60337 0.66036 0.68655 0.0
C174 C 0.54656 0.62129 0.70953 0.0
C175 C 0.62218 0.65583 0.75083 0.0
C176 C 0.60355 0.63409 0.79411 0.0
C177 C 0.54653 0.59466 0.81678 0.0
C178 C 0.50818 0.57802 0.79584 0.0
C179 C 0.56573 0.61656 0.77394 0.0
C180 C 0.48972 0.58304 0.7315 0.0
C181 C 0.50873 0.60427 0.68882 0.0
H182 H 0.86915 0.15893 0.19287 0.0
H183 H 0.75612 0.09732 0.18133 0.0
H184 H 0.78513 0.0566 0.27613 0.0
H185 H 0.84482 0.03343 0.35463 0.0
H186 H 0.9573 0.09596 0.36965 0.0
H187 H 0.92624 0.14174 0.28155 0.0
C188 C 0.85068 0.13701 0.21172 0.0
C189 C 0.81067 0.13081 0.17946 0.0
C190 C 0.86757 0.11369 0.2665 0.0
C191 C 0.78696 0.10268 0.20501 0.0
C192 C 0.80363 0.0792 0.25907 0.0
C193 C 0.86232 0.05748 0.33917 0.0
C194 C 0.9034 0.06109 0.3678 0.0
C195 C 0.84421 0.08366 0.28898 0.0
C196 C 0.92564 0.09265 0.34821 0.0
C197 C 0.90794 0.11862 0.29763 0.0
H198 H 0.34592 0.3138 0.71602 0.0
H199 H 0.46351 0.31966 0.66526 0.0
H200 H 0.48777 0.36162 0.75239 0.0
H201 H 0.47228 0.40518 0.83214 0.0
H202 H 0.35321 0.40258 0.87735 0.0
H203 H 0.33329 0.35047 0.80484 0.0
C204 C 0.37712 0.32348 0.72487 0.0
C205 C 0.40258 0.31397 0.68344 0.0
C206 C 0.39063 0.34861 0.7741 0.0
C207 C 0.443 0.32687 0.69582 0.0
C208 C 0.45695 0.35099 0.74568 0.0
C209 C 0.44245 0.39228 0.82752 0.0
C210 C 0.41418 0.40784 0.85971 0.0
C211 C 0.43059 0.36332 0.78363 0.0
C212 C 0.37543 0.39119 0.85275 0.0
C213 C 0.36392 0.36154 0.81099 0.0
H214 H 0.61546 0.68559 0.27704 0.0
H215 H 0.49401 0.67318 0.3117 0.0
H216 H 0.47317 0.64164 0.21217 0.0
H217 H 0.49174 0.60942 0.12323 0.0
H218 H 0.61313 0.62125 0.08832 0.0
H219 H 0.63132 0.66162 0.17921 0.0
C220 C 0.58429 0.67652 0.2624 0.0
C221 C 0.55661 0.68114 0.30253 0.0
C222 C 0.57245 0.65804 0.20509 0.0
C223 C 0.51617 0.66966 0.28227 0.0
C224 C 0.50416 0.6515 0.22527 0.0
C225 C 0.52182 0.62177 0.13421 0.0
C226 C 0.55109 0.61186 0.09926 0.0
C227 C 0.53236 0.6444 0.18733 0.0
C228 C 0.59002 0.62808 0.11463 0.0
C229 C 0.60057 0.65102 0.16692 0.0
H230 H 0.8179 0.06703 0.81165 0.0
H231 H 0.83769 0.19147 0.78353 0.0
H232 H 0.87355 0.17888 0.69906 0.0
H233 H 0.90718 0.13237 0.64395 0.0
H234 H 0.89006 0.00775 0.67375 0.0
H235 H 0.84445 0.02066 0.74572 0.0
C236 C 0.82945 0.09147 0.78635 0.0
C237 C 0.82575 0.1301 0.80482 0.0
C238 C 0.85072 0.08398 0.73837 0.0
C239 C 0.84053 0.16141 0.77097 0.0
C240 C 0.86112 0.15425 0.72265 0.0
C241 C 0.89292 0.108 0.66531 0.0
C242 C 0.90259 0.06915 0.65447 0.0
C243 C 0.86763 0.11561 0.70761 0.0
C244 C 0.88332 0.03794 0.68159 0.0
C245 C 0.85748 0.04531 0.72314 0.0
H246 H 0.45599 0.40783 0.38437 0.0
H247 H 0.37705 0.33137 0.26418 0.0
H248 H 0.39288 0.3668 0.1703 0.0
H249 H 0.43185 0.41791 0.12273 0.0
H250 H 0.51278 0.49162 0.24533 0.0
H251 H 0.49317 0.45903 0.3378 0.0
C252 C 0.44199 0.39894 0.3377 0.0
C253 C 0.41545 0.36691 0.33139 0.0
C254 C 0.45163 0.419 0.28426 0.0
C255 C 0.39773 0.35583 0.27042 0.0
C256 C 0.40675 0.37611 0.21672 0.0
C257 C 0.44477 0.42707 0.16968 0.0
C258 C 0.47378 0.45709 0.17715 0.0
C259 C 0.43399 0.40754 0.22308 0.0
C260 C 0.49058 0.46844 0.2383 0.0
C261 C 0.4794 0.44982 0.29125 0.0
H262 H 0.1447 0.85685 0.89249 0.0
H263 H 0.19132 0.96347 0.9778 0.0
H264 H 0.15055 0.00273 0.89079 0.0
H265 H 0.09976 0.00749 0.79354 0.0
H266 H 0.05262 0.90237 0.70468 0.0
H267 H 0.09536 0.86192 0.79004 0.0
C268 C 0.14631 0.88865 0.89157 0.0
C269 C 0.17099 0.90707 0.94206 0.0
C270 C 0.12233 0.91139 0.84118 0.0
C271 C 0.17253 0.94837 0.94003 0.0
C272 C 0.14909 0.97097 0.89027 0.0
C273 C 0.0986 0.97571 0.79274 0.0
C274 C 0.0726 0.95801 0.74314 0.0
C275 C 0.12344 0.95285 0.84126 0.0
C276 C 0.07218 0.91677 0.74249 0.0
C277 C 0.09666 0.89365 0.79126 0.0
loop_
_geom_bond_atom_site_label_1
_geom_bond_atom_site_label_2
_geom_bond_distance
_geom_bond_site_symmetry_2
_ccdc_geom_bond_type
O0 Cd1 2.300 1_556 S
O0 C7 1.275 . S
Cd1 O0 2.300 1_554 S
Cd1 O9 2.381 . S
Cd1 O10 2.378 . S
O2 Cd3 2.385 . S
O2 C7 1.255 1_554 S
Cd3 O2 2.385 . S
Cd3 O4 2.317 . S
O4 Cd3 2.317 . S
O4 C5 1.232 . S
C5 O4 1.232 . S
C5 O6 1.218 . S
O6 C5 1.218 . S
C7 O0 1.275 . S
C7 O2 1.255 1_556 S
C8 O9 1.258 . S
C8 O10 1.256 . S
O9 Cd1 2.381 . S
O9 C8 1.258 . S
O10 Cd1 2.378 . S
O10 C8 1.256 . S
O11 Cd12 2.300 . S
O11 C18 1.275 . S
Cd12 O11 2.300 . S
Cd12 O20 2.381 . S
Cd12 O21 2.378 . S
O13 Cd14 2.385 . S
O13 C18 1.255 . S
Cd14 O13 2.385 . S
Cd14 O15 2.317 . S
O15 Cd14 2.317 . S
O15 C16 1.232 . S
C16 O15 1.232 . S
C16 O17 1.218 . S
O17 C16 1.218 . S
C18 O11 1.275 . S
C18 O13 1.255 . S
C19 O20 1.258 . S
C19 O21 1.256 . S
O20 Cd12 2.381 . S
O20 C19 1.258 . S
O21 Cd12 2.378 . S
O21 C19 1.256 . S
O22 Cd23 2.300 . S
O22 C29 1.275 . S
Cd23 O22 2.300 . S
Cd23 O31 2.381 . S
Cd23 O32 2.378 1_554 S
O24 Cd25 2.381 1_554 S
O24 C29 1.255 . S
Cd25 O24 2.381 1_556 S
Cd25 O26 2.321 . S
O26 Cd25 2.321 . S
O26 C27 1.232 . S
C27 O26 1.232 . S
C27 O28 1.218 . S
O28 C27 1.218 . S
C29 O22 1.275 . S
C29 O24 1.255 . S
C30 O31 1.258 . S
C30 O32 1.256 1_554 S
O31 Cd23 2.381 . S
O31 C30 1.258 . S
O32 Cd23 2.378 1_556 S
O32 C30 1.256 1_556 S
O33 Cd34 2.300 . S
O33 C40 1.275 . S
Cd34 O33 2.300 . S
Cd34 O42 2.381 . S
Cd34 O43 2.378 . S
O35 Cd36 2.385 . S
O35 C40 1.255 . S
Cd36 O35 2.385 . S
Cd36 O37 2.317 . S
O37 Cd36 2.317 . S
O37 C38 1.232 . S
C38 O37 1.232 . S
C38 O39 1.218 . S
O39 C38 1.218 . S
C40 O33 1.275 . S
C40 O35 1.255 . S
C41 O42 1.258 . S
C41 O43 1.256 . S
O42 Cd34 2.381 . S
O42 C41 1.258 . S
O43 Cd34 2.378 . S
O43 C41 1.256 . S
O44 Mg45 1.990 . S
O44 C58 1.253 1_455 S
Mg45 O44 1.990 . S
Mg45 O48 2.180 . S
Mg45 O49 2.117 . S
Mg45 O63 2.030 . S
O46 Mg47 2.072 1_655 S
O46 C58 1.260 . S
Mg47 O46 2.072 1_455 S
Mg47 O48 2.099 . S
Mg47 O50 2.079 1_545 S
Mg47 O51 2.072 1_455 S
Mg47 O53 2.099 1_445 S
Mg47 O64 2.079 1_545 S
O48 Mg45 2.180 . S
O48 Mg47 2.099 . S
O48 C59 1.279 . S
O49 Mg45 2.117 . S
O49 C59 1.250 . S
O50 Mg47 2.079 1_565 S
O50 C60 1.264 . S
O51 Mg47 2.072 1_655 S
O51 C61 1.260 . S
Mg52 O53 2.180 . S
Mg52 O54 2.030 1_655 S
Mg52 O55 1.990 1_565 S
Mg52 O56 2.117 . S
O53 Mg47 2.099 1_665 S
O53 Mg52 2.180 . S
O53 C62 1.279 . S
O54 Mg52 2.030 1_455 S
O54 C60 1.248 . S
O55 Mg52 1.990 1_545 S
O55 C61 1.253 . S
O56 Mg52 2.117 . S
O56 C62 1.250 . S
C57 O63 1.248 1_565 S
C57 O64 1.264 . S
C58 O44 1.253 1_655 S
C58 O46 1.260 . S
C59 O48 1.279 . S
C59 O49 1.250 . S
C60 O50 1.264 . S
C60 O54 1.248 . S
C61 O51 1.260 . S
C61 O55 1.253 . S
C62 O53 1.279 . S
C62 O56 1.250 . S
O63 Mg45 2.030 . S
O63 C57 1.248 1_545 S
O64 Mg47 2.079 1_565 S
O64 C57 1.264 . S
O65 Mg66 1.990 . S
O65 C79 1.253 . S
Mg66 O65 1.990 . S
Mg66 O69 2.180 . S
Mg66 O70 2.117 . S
Mg66 O84 2.030 . S
O67 Mg68 2.072 . S
O67 C79 1.260 . S
Mg68 O67 2.072 . S
Mg68 O69 2.099 . S
Mg68 O71 2.079 1_554 S
Mg68 O72 2.072 1_554 S
Mg68 O74 2.099 1_554 S
Mg68 O85 2.079 . S
O69 Mg66 2.180 . S
O69 Mg68 2.099 . S
O69 C80 1.279 . S
O70 Mg66 2.117 . S
O70 C80 1.250 . S
O71 Mg68 2.079 1_556 S
O71 C81 1.264 . S
O72 Mg68 2.072 1_556 S
O72 C82 1.260 . S
Mg73 O74 2.180 . S
Mg73 O75 2.030 . S
Mg73 O76 1.990 . S
Mg73 O77 2.117 . S
O74 Mg68 2.099 1_556 S
O74 Mg73 2.180 . S
O74 C83 1.279 . S
O75 Mg73 2.030 . S
O75 C81 1.248 . S
O76 Mg73 1.990 . S
O76 C82 1.253 . S
O77 Mg73 2.117 . S
O77 C83 1.250 . S
C78 O84 1.248 . S
C78 O85 1.264 . S
C79 O65 1.253 . S
C79 O67 1.260 . S
C80 O69 1.279 . S
C80 O70 1.250 . S
C81 O71 1.264 . S
C81 O75 1.248 . S
C82 O72 1.260 . S
C82 O76 1.253 . S
C83 O74 1.279 . S
C83 O77 1.250 . S
O84 Mg66 2.030 . S
O84 C78 1.248 . S
O85 Mg68 2.079 . S
O85 C78 1.264 . S
H86 C92 0.930 . S
H87 C95 0.930 . S
H88 C96 0.930 . S
H89 C97 0.930 . S
H90 C100 0.930 . S
H91 C101 0.930 . S
C92 H86 0.930 . S
C92 C93 1.355 . S
C92 C94 1.415 . S
C93 C92 1.355 . S
C93 C95 1.419 . S
C94 C92 1.415 . S
C94 C99 1.425 . S
C94 C101 1.409 . S
C95 H87 0.930 . S
C95 C93 1.419 . S
C95 C96 1.362 . S
C96 H88 0.930 . S
C96 C95 1.362 . S
C96 C99 1.409 . S
C97 H89 0.930 . S
C97 C98 1.355 . S
C97 C99 1.415 . S
C98 C97 1.355 . S
C98 C100 1.419 . S
C99 C94 1.425 . S
C99 C96 1.409 . S
C99 C97 1.415 . S
C100 H90 0.930 . S
C100 C98 1.419 . S
C100 C101 1.362 . S
C101 H91 0.930 . S
C101 C94 1.409 . S
C101 C100 1.362 . S
H102 C108 0.930 . S
H103 C111 0.930 . S
H104 C112 0.930 . S
H105 C113 0.930 . S
H106 C116 0.930 . S
H107 C117 0.930 . S
C108 H102 0.930 . S
C108 C109 1.355 . S
C108 C110 1.415 . S
C109 C108 1.355 . S
C109 C111 1.419 . S
C110 C108 1.415 . S
C110 C115 1.425 . S
C110 C117 1.409 1_554 S
C111 H103 0.930 . S
C111 C109 1.419 . S
C111 C112 1.362 . S
C112 H104 0.930 . S
C112 C111 1.362 . S
C112 C115 1.409 . S
C113 H105 0.930 . S
C113 C114 1.355 . S
C113 C115 1.415 . S
C114 C113 1.355 . S
C114 C116 1.419 1_554 S
C115 C110 1.425 . S
C115 C112 1.409 . S
C115 C113 1.415 . S
C116 H106 0.930 . S
C116 C114 1.419 1_556 S
C116 C117 1.362 . S
C117 H107 0.930 . S
C117 C110 1.409 1_556 S
C117 C116 1.362 . S
H118 C124 0.930 . S
H119 C127 0.930 . S
H120 C128 0.930 . S
H121 C129 0.930 . S
H122 C132 0.930 . S
H123 C133 0.930 . S
C124 H118 0.930 . S
C124 C125 1.355 . S
C124 C126 1.415 . S
C125 C124 1.355 . S
C125 C127 1.419 . S
C126 C124 1.415 . S
C126 C131 1.425 . S
C126 C133 1.409 . S
C127 H119 0.930 . S
C127 C125 1.419 . S
C127 C128 1.362 . S
C128 H120 0.930 . S
C128 C127 1.362 . S
C128 C131 1.409 . S
C129 H121 0.930 . S
C129 C130 1.355 . S
C129 C131 1.415 . S
C130 C129 1.355 . S
C130 C132 1.419 . S
C131 C126 1.425 . S
C131 C128 1.409 . S
C131 C129 1.415 . S
C132 H122 0.930 . S
C132 C130 1.419 . S
C132 C133 1.362 . S
C133 H123 0.930 . S
C133 C126 1.409 . S
C133 C132 1.362 . S
H134 C140 0.927 1_556 S
H135 C143 0.930 . S
H136 C144 0.930 . S
H137 C145 0.930 . S
H138 C148 0.930 . S
H139 C149 0.930 . S
C140 H134 0.927 1_554 S
C140 C141 1.355 . S
C140 C142 1.417 . S
C141 C140 1.355 . S
C141 C143 1.419 . S
C142 C140 1.417 . S
C142 C147 1.425 . S
C142 C149 1.409 1_554 S
C143 H135 0.930 . S
C143 C141 1.419 . S
C143 C144 1.362 . S
C144 H136 0.930 . S
C144 C143 1.362 . S
C144 C147 1.409 . S
C145 H137 0.930 . S
C145 C146 1.355 . S
C145 C147 1.415 . S
C146 C145 1.355 . S
C146 C148 1.419 1_554 S
C147 C142 1.425 . S
C147 C144 1.409 . S
C147 C145 1.415 . S
C148 H138 0.930 . S
C148 C146 1.419 1_556 S
C148 C149 1.362 . S
C149 H139 0.930 . S
C149 C142 1.409 1_556 S
C149 C148 1.362 . S
H150 C156 0.930 . S
H151 C159 0.930 . S
H152 C160 0.930 . S
H153 C161 0.930 . S
H154 C164 0.930 . S
H155 C165 0.930 . S
C156 H150 0.930 . S
C156 C157 1.355 . S
C156 C158 1.415 . S
C157 C156 1.355 . S
C157 C159 1.419 . S
C158 C156 1.415 . S
C158 C163 1.425 . S
C158 C165 1.409 . S
C159 H151 0.930 . S
C159 C157 1.419 . S
C159 C160 1.362 . S
C160 H152 0.930 . S
C160 C159 1.362 . S
C160 C163 1.409 . S
C161 H153 0.930 . S
C161 C162 1.355 . S
C161 C163 1.415 . S
C162 C161 1.355 . S
C162 C164 1.419 . S
C163 C158 1.425 . S
C163 C160 1.409 . S
C163 C161 1.415 . S
C164 H154 0.930 . S
C164 C162 1.419 . S
C164 C165 1.362 . S
C165 H155 0.930 . S
C165 C158 1.409 . S
C165 C164 1.362 . S
H166 C172 0.930 . S
H167 C175 0.930 . S
H168 C176 0.930 . S
H169 C177 0.930 . S
H170 C180 0.930 . S
H171 C181 0.930 . S
C172 H166 0.930 . S
C172 C173 1.355 . S
C172 C174 1.415 . S
C173 C172 1.355 . S
C173 C175 1.419 . S
C174 C172 1.415 . S
C174 C179 1.425 . S
C174 C181 1.409 . S
C175 H167 0.930 . S
C175 C173 1.419 . S
C175 C176 1.362 . S
C176 H168 0.930 . S
C176 C175 1.362 . S
C176 C179 1.409 . S
C177 H169 0.930 . S
C177 C178 1.355 . S
C177 C179 1.415 . S
C178 C177 1.355 . S
C178 C180 1.419 . S
C179 C174 1.425 . S
C179 C176 1.409 . S
C179 C177 1.415 . S
C180 H170 0.930 . S
C180 C178 1.419 . S
C180 C181 1.362 . S
C181 H171 0.930 . S
C181 C174 1.409 . S
C181 C180 1.362 . S
H182 C188 0.930 . S
H183 C191 0.930 . S
H184 C192 0.930 . S
H185 C193 0.930 . S
H186 C196 0.930 . S
H187 C197 0.930 . S
C188 H182 0.930 . S
C188 C189 1.355 . S
C188 C190 1.415 . S
C189 C188 1.355 . S
C189 C191 1.419 . S
C190 C188 1.415 . S
C190 C195 1.425 . S
C190 C197 1.409 . S
C191 H183 0.930 . S
C191 C189 1.419 . S
C191 C192 1.362 . S
C192 H184 0.930 . S
C192 C191 1.362 . S
C192 C195 1.409 . S
C193 H185 0.930 . S
C193 C194 1.355 . S
C193 C195 1.415 . S
C194 C193 1.355 . S
C194 C196 1.419 . S
C195 C190 1.425 . S
C195 C192 1.409 . S
C195 C193 1.415 . S
C196 H186 0.930 . S
C196 C194 1.419 . S
C196 C197 1.362 . S
C197 H187 0.930 . S
C197 C190 1.409 . S
C197 C196 1.362 . S
H198 C204 0.930 . S
H199 C207 0.930 . S
H200 C208 0.930 . S
H201 C209 0.930 . S
H202 C212 0.930 . S
H203 C213 0.930 . S
C204 H198 0.930 . S
C204 C205 1.355 . S
C204 C206 1.415 . S
C205 C204 1.355 . S
C205 C207 1.419 . S
C206 C204 1.415 . S
C206 C211 1.425 . S
C206 C213 1.409 . S
C207 H199 0.930 . S
C207 C205 1.419 . S
C207 C208 1.362 . S
C208 H200 0.930 . S
C208 C207 1.362 . S
C208 C211 1.409 . S
C209 H201 0.930 . S
C209 C210 1.355 . S
C209 C211 1.415 . S
C210 C209 1.355 . S
C210 C212 1.419 . S
C211 C206 1.425 . S
C211 C208 1.409 . S
C211 C209 1.415 . S
C212 H202 0.930 . S
C212 C210 1.419 . S
C212 C213 1.362 . S
C213 H203 0.930 . S
C213 C206 1.409 . S
C213 C212 1.362 . S
H214 C220 0.930 . S
H215 C223 0.930 . S
H216 C224 0.930 . S
H217 C225 0.930 . S
H218 C228 0.930 . S
H219 C229 0.930 . S
C220 H214 0.930 . S
C220 C221 1.355 . S
C220 C222 1.415 . S
C221 C220 1.355 . S
C221 C223 1.419 . S
C222 C220 1.415 . S
C222 C227 1.425 . S
C222 C229 1.409 . S
C223 H215 0.930 . S
C223 C221 1.419 . S
C223 C224 1.362 . S
C224 H216 0.930 . S
C224 C223 1.362 . S
C224 C227 1.409 . S
C225 H217 0.930 . S
C225 C226 1.355 . S
C225 C227 1.415 . S
C226 C225 1.355 . S
C226 C228 1.419 . S
C227 C222 1.425 . S
C227 C224 1.409 . S
C227 C225 1.415 . S
C228 H218 0.930 . S
C228 C226 1.419 . S
C228 C229 1.362 . S
C229 H219 0.930 . S
C229 C222 1.409 . S
C229 C228 1.362 . S
H230 C236 0.930 . S
H231 C239 0.930 . S
H232 C240 0.930 . S
H233 C241 0.930 . S
H234 C244 0.930 1_455 S
H235 C245 0.930 . S
C236 H230 0.930 . S
C236 C237 1.355 . S
C236 C238 1.415 . S
C237 C236 1.355 . S
C237 C239 1.419 . S
C238 C236 1.415 . S
C238 C243 1.425 . S
C238 C245 1.409 . S
C239 H231 0.930 . S
C239 C237 1.419 . S
C239 C240 1.362 . S
C240 H232 0.930 . S
C240 C239 1.362 . S
C240 C243 1.409 . S
C241 H233 0.930 . S
C241 C242 1.355 . S
C241 C243 1.415 . S
C242 C241 1.355 . S
C242 C244 1.419 . S
C243 C238 1.425 . S
C243 C240 1.409 . S
C243 C241 1.415 . S
C244 H234 0.930 1_655 S
C244 C242 1.419 . S
C244 C245 1.362 . S
C245 H235 0.930 . S
C245 C238 1.409 . S
C245 C244 1.362 . S
H246 C252 0.930 . S
H247 C255 0.930 . S
H248 C256 0.930 . S
H249 C257 0.930 . S
H250 C260 0.930 . S
H251 C261 0.930 . S
C252 H246 0.930 . S
C252 C253 1.355 . S
C252 C254 1.415 . S
C253 C252 1.355 . S
C253 C255 1.419 . S
C254 C252 1.415 . S
C254 C259 1.425 . S
C254 C261 1.409 . S
C255 H247 0.930 . S
C255 C253 1.419 . S
C255 C256 1.362 . S
C256 H248 0.930 . S
C256 C255 1.362 . S
C256 C259 1.409 . S
C257 H249 0.930 . S
C257 C258 1.355 . S
C257 C259 1.415 . S
C258 C257 1.355 . S
C258 C260 1.419 . S
C259 C254 1.425 . S
C259 C256 1.409 . S
C259 C257 1.415 . S
C260 H250 0.930 . S
C260 C258 1.419 . S
C260 C261 1.362 . S
C261 H251 0.930 . S
C261 C254 1.409 . S
C261 C260 1.362 . S
H262 C268 0.930 . S
H263 C271 0.930 . S
H264 C272 0.930 . S
H265 C273 0.930 . S
H266 C276 0.930 . S
H267 C277 0.930 . S
C268 H262 0.930 . S
C268 C269 1.355 . S
C268 C270 1.415 . S
C269 C268 1.355 . S
C269 C271 1.419 . S
C270 C268 1.415 . S
C270 C275 1.425 . S
C270 C277 1.409 . S
C271 H263 0.930 . S
C271 C269 1.419 . S
C271 C272 1.362 . S
C272 H264 0.930 . S
C272 C271 1.362 . S
C272 C275 1.409 . S
C273 H265 0.930 . S
C273 C274 1.355 . S
C273 C275 1.415 . S
C274 C273 1.355 . S
C274 C276 1.419 . S
C275 C270 1.425 . S
C275 C272 1.409 . S
C275 C273 1.415 . S
C276 H266 0.930 . S
C276 C274 1.419 . S
C276 C277 1.362 . S
C277 H267 0.930 . S
C277 C270 1.409 . S
C277 C276 1.362 . S
C98 C59 1.182 . S
C93 C41 1.446 . S
C109 C8 1.461 . S
C114 C83 1.276 1_554 S
C125 C19 1.619 . S
C130 C62 1.480 . S
C141 C30 1.543 . S
C146 C80 1.324 . S
C162 C60 1.526 . S
C157 C5 1.388 . S
C178 C82 1.593 . S
C173 C18 1.628 . S
C189 C29 1.561 . S
C194 C61 1.567 . S
C205 C40 1.580 . S
C210 C81 1.537 . S
C226 C79 1.398 . S
C221 C16 1.319 . S
C242 C58 1.388 . S
C237 C27 1.355 . S
C258 C78 1.333 . S
C253 C38 1.172 . S
C269 C7 1.357 . S
C274 C57 1.383 . S
