# Generated by pormake.
# Topology cor, (4,6)-cn, num edge types: 1
# Building blocks:
#     Node 0, Type 0, BuildingBlock: GALJAG_clean_sbu_0, # of connection points: 4
#     Node 1, Type 0, BuildingBlock: GALJAG_clean_sbu_0, # of connection points: 4
#     Node 2, Type 0, BuildingBlock: GALJAG_clean_sbu_0, # of connection points: 4
#     Node 3, Type 0, BuildingBlock: GALJAG_clean_sbu_0, # of connection points: 4
#     Node 4, Type 0, BuildingBlock: GALJAG_clean_sbu_0, # of connection points: 4
#     Node 5, Type 0, BuildingBlock: GALJAG_clean_sbu_0, # of connection points: 4
#     Node 6, Type 0, BuildingBlock: GALJAG_clean_sbu_0, # of connection points: 4
#     Node 7, Type 0, BuildingBlock: GALJAG_clean_sbu_0, # of connection points: 4
#     Node 8, Type 0, BuildingBlock: GALJAG_clean_sbu_0, # of connection points: 4
#     Node 9, Type 0, BuildingBlock: GALJAG_clean_sbu_0, # of connection points: 4
#     Node 10, Type 0, BuildingBlock: GALJAG_clean_sbu_0, # of connection points: 4
#     Node 11, Type 0, BuildingBlock: GALJAG_clean_sbu_0, # of connection points: 4
#     Node 12, Type 0, BuildingBlock: GALJAG_clean_sbu_0, # of connection points: 4
#     Node 13, Type 0, BuildingBlock: GALJAG_clean_sbu_0, # of connection points: 4
#     Node 14, Type 0, BuildingBlock: GALJAG_clean_sbu_0, # of connection points: 4
#     Node 15, Type 0, BuildingBlock: GALJAG_clean_sbu_0, # of connection points: 4
#     Node 16, Type 0, BuildingBlock: GALJAG_clean_sbu_0, # of connection points: 4
#     Node 17, Type 0, BuildingBlock: GALJAG_clean_sbu_0, # of connection points: 4
#     Node 18, Type 1, BuildingBlock: MIDCAF_clean_sbu_0, # of connection points: 6
#     Node 19, Type 1, BuildingBlock: MIDCAF_clean_sbu_0, # of connection points: 6
#     Node 20, Type 1, BuildingBlock: MIDCAF_clean_sbu_0, # of connection points: 6
#     Node 21, Type 1, BuildingBlock: MIDCAF_clean_sbu_0, # of connection points: 6
#     Node 22, Type 1, BuildingBlock: MIDCAF_clean_sbu_0, # of connection points: 6
#     Node 23, Type 1, BuildingBlock: MIDCAF_clean_sbu_0, # of connection points: 6
#     Node 24, Type 1, BuildingBlock: MIDCAF_clean_sbu_0, # of connection points: 6
#     Node 25, Type 1, BuildingBlock: MIDCAF_clean_sbu_0, # of connection points: 6
#     Node 26, Type 1, BuildingBlock: MIDCAF_clean_sbu_0, # of connection points: 6
#     Node 27, Type 1, BuildingBlock: MIDCAF_clean_sbu_0, # of connection points: 6
#     Node 28, Type 1, BuildingBlock: MIDCAF_clean_sbu_0, # of connection points: 6
#     Node 29, Type 1, BuildingBlock: MIDCAF_clean_sbu_0, # of connection points: 6
#     Edge 30, Type (0, 1), BuildingBlock: ZUJKAS_clean_linker_0, # of connection points: 2
#     Edge 31, Type (0, 1), BuildingBlock: ZUJKAS_clean_linker_0, # of connection points: 2
#     Edge 32, Type (0, 1), BuildingBlock: ZUJKAS_clean_linker_0, # of connection points: 2
#     Edge 33, Type (0, 1), BuildingBlock: ZUJKAS_clean_linker_0, # of connection points: 2
#     Edge 34, Type (0, 1), BuildingBlock: ZUJKAS_clean_linker_0, # of connection points: 2
#     Edge 35, Type (0, 1), BuildingBlock: ZUJKAS_clean_linker_0, # of connection points: 2
#     Edge 36, Type (0, 1), BuildingBlock: ZUJKAS_clean_linker_0, # of connection points: 2
#     Edge 37, Type (0, 1), BuildingBlock: ZUJKAS_clean_linker_0, # of connection points: 2
#     Edge 38, Type (0, 1), BuildingBlock: ZUJKAS_clean_linker_0, # of connection points: 2
#     Edge 39, Type (0, 1), BuildingBlock: ZUJKAS_clean_linker_0, # of connection points: 2
#     Edge 40, Type (0, 1), BuildingBlock: ZUJKAS_clean_linker_0, # of connection points: 2
#     Edge 41, Type (0, 1), BuildingBlock: ZUJKAS_clean_linker_0, # of connection points: 2
#     Edge 42, Type (0, 1), BuildingBlock: ZUJKAS_clean_linker_0, # of connection points: 2
#     Edge 43, Type (0, 1), BuildingBlock: ZUJKAS_clean_linker_0, # of connection points: 2
#     Edge 44, Type (0, 1), BuildingBlock: ZUJKAS_clean_linker_0, # of connection points: 2
#     Edge 45, Type (0, 1), BuildingBlock: ZUJKAS_clean_linker_0, # of connection points: 2
#     Edge 46, Type (0, 1), BuildingBlock: ZUJKAS_clean_linker_0, # of connection points: 2
#     Edge 47, Type (0, 1), BuildingBlock: ZUJKAS_clean_linker_0, # of connection points: 2
#     Edge 48, Type (0, 1), BuildingBlock: ZUJKAS_clean_linker_0, # of connection points: 2
#     Edge 49, Type (0, 1), BuildingBlock: ZUJKAS_clean_linker_0, # of connection points: 2
#     Edge 50, Type (0, 1), BuildingBlock: ZUJKAS_clean_linker_0, # of connection points: 2
#     Edge 51, Type (0, 1), BuildingBlock: ZUJKAS_clean_linker_0, # of connection points: 2
#     Edge 52, Type (0, 1), BuildingBlock: ZUJKAS_clean_linker_0, # of connection points: 2
#     Edge 53, Type (0, 1), BuildingBlock: ZUJKAS_clean_linker_0, # of connection points: 2
#     Edge 54, Type (0, 1), BuildingBlock: ZUJKAS_clean_linker_0, # of connection points: 2
#     Edge 55, Type (0, 1), BuildingBlock: ZUJKAS_clean_linker_0, # of connection points: 2
#     Edge 56, Type (0, 1), BuildingBlock: ZUJKAS_clean_linker_0, # of connection points: 2
#     Edge 57, Type (0, 1), BuildingBlock: ZUJKAS_clean_linker_0, # of connection points: 2
#     Edge 58, Type (0, 1), BuildingBlock: ZUJKAS_clean_linker_0, # of connection points: 2
#     Edge 59, Type (0, 1), BuildingBlock: ZUJKAS_clean_linker_0, # of connection points: 2
#     Edge 60, Type (0, 1), BuildingBlock: ZUJKAS_clean_linker_0, # of connection points: 2
#     Edge 61, Type (0, 1), BuildingBlock: ZUJKAS_clean_linker_0, # of connection points: 2
#     Edge 62, Type (0, 1), BuildingBlock: ZUJKAS_clean_linker_0, # of connection points: 2
#     Edge 63, Type (0, 1), BuildingBlock: ZUJKAS_clean_linker_0, # of connection points: 2
#     Edge 64, Type (0, 1), BuildingBlock: ZUJKAS_clean_linker_0, # of connection points: 2
#     Edge 65, Type (0, 1), BuildingBlock: ZUJKAS_clean_linker_0, # of connection points: 2
#     Edge 66, Type (0, 1), BuildingBlock: ZUJKAS_clean_linker_0, # of connection points: 2
#     Edge 67, Type (0, 1), BuildingBlock: ZUJKAS_clean_linker_0, # of connection points: 2
#     Edge 68, Type (0, 1), BuildingBlock: ZUJKAS_clean_linker_0, # of connection points: 2
#     Edge 69, Type (0, 1), BuildingBlock: ZUJKAS_clean_linker_0, # of connection points: 2
#     Edge 70, Type (0, 1), BuildingBlock: ZUJKAS_clean_linker_0, # of connection points: 2
#     Edge 71, Type (0, 1), BuildingBlock: ZUJKAS_clean_linker_0, # of connection points: 2
#     Edge 72, Type (0, 1), BuildingBlock: ZUJKAS_clean_linker_0, # of connection points: 2
#     Edge 73, Type (0, 1), BuildingBlock: ZUJKAS_clean_linker_0, # of connection points: 2
#     Edge 74, Type (0, 1), BuildingBlock: ZUJKAS_clean_linker_0, # of connection points: 2
#     Edge 75, Type (0, 1), BuildingBlock: ZUJKAS_clean_linker_0, # of connection points: 2
#     Edge 76, Type (0, 1), BuildingBlock: ZUJKAS_clean_linker_0, # of connection points: 2
#     Edge 77, Type (0, 1), BuildingBlock: ZUJKAS_clean_linker_0, # of connection points: 2
#     Edge 78, Type (0, 1), BuildingBlock: ZUJKAS_clean_linker_0, # of connection points: 2
#     Edge 79, Type (0, 1), BuildingBlock: ZUJKAS_clean_linker_0, # of connection points: 2
#     Edge 80, Type (0, 1), BuildingBlock: ZUJKAS_clean_linker_0, # of connection points: 2
#     Edge 81, Type (0, 1), BuildingBlock: ZUJKAS_clean_linker_0, # of connection points: 2
#     Edge 82, Type (0, 1), BuildingBlock: ZUJKAS_clean_linker_0, # of connection points: 2
#     Edge 83, Type (0, 1), BuildingBlock: ZUJKAS_clean_linker_0, # of connection points: 2
#     Edge 84, Type (0, 1), BuildingBlock: ZUJKAS_clean_linker_0, # of connection points: 2
#     Edge 85, Type (0, 1), BuildingBlock: ZUJKAS_clean_linker_0, # of connection points: 2
#     Edge 86, Type (0, 1), BuildingBlock: ZUJKAS_clean_linker_0, # of connection points: 2
#     Edge 87, Type (0, 1), BuildingBlock: ZUJKAS_clean_linker_0, # of connection points: 2
#     Edge 88, Type (0, 1), BuildingBlock: ZUJKAS_clean_linker_0, # of connection points: 2
#     Edge 89, Type (0, 1), BuildingBlock: ZUJKAS_clean_linker_0, # of connection points: 2
#     Edge 90, Type (0, 1), BuildingBlock: ZUJKAS_clean_linker_0, # of connection points: 2
#     Edge 91, Type (0, 1), BuildingBlock: ZUJKAS_clean_linker_0, # of connection points: 2
#     Edge 92, Type (0, 1), BuildingBlock: ZUJKAS_clean_linker_0, # of connection points: 2
#     Edge 93, Type (0, 1), BuildingBlock: ZUJKAS_clean_linker_0, # of connection points: 2
#     Edge 94, Type (0, 1), BuildingBlock: ZUJKAS_clean_linker_0, # of connection points: 2
#     Edge 95, Type (0, 1), BuildingBlock: ZUJKAS_clean_linker_0, # of connection points: 2
#     Edge 96, Type (0, 1), BuildingBlock: ZUJKAS_clean_linker_0, # of connection points: 2
#     Edge 97, Type (0, 1), BuildingBlock: ZUJKAS_clean_linker_0, # of connection points: 2
#     Edge 98, Type (0, 1), BuildingBlock: ZUJKAS_clean_linker_0, # of connection points: 2
#     Edge 99, Type (0, 1), BuildingBlock: ZUJKAS_clean_linker_0, # of connection points: 2
#     Edge 100, Type (0, 1), BuildingBlock: ZUJKAS_clean_linker_0, # of connection points: 2
#     Edge 101, Type (0, 1), BuildingBlock: ZUJKAS_clean_linker_0, # of connection points: 2
# Relax obj value: 0.119
# Max RMSD: 0.171
# Mean RMSD: 0.112
data_MOF--net-cor--node1-GALJAG_clean_sbu_0--node2-MIDCAF_clean_sbu_0--edge1-ZUJKAS_clean_linker_0
_symmetry_space_group_name_H-M    P1
_symmetry_Int_Tables_number       1
_symmetry_cell_setting            triclinic
loop_
_symmetry_equiv_pos_as_xyz
'x, y, z'
_cell_length_a     48.54133
_cell_length_b     48.554405
_cell_length_c     137.38454
_cell_angle_alpha  89.965914
_cell_angle_beta   90.01312
_cell_angle_gamma 120.27536
loop_
_atom_site_label
_atom_site_type_symbol
_atom_site_fract_x
_atom_site_fract_y
_atom_site_fract_z
_atom_type_partial_charge
In0 In 0.74189 0.02183 0.25901 0.0
O1 O 0.75431 0.07404 0.25804 0.0
O2 O 0.71665 0.03996 0.24918 0.0
C3 C 0.77445 0.02348 0.27516 0.0
C4 C 0.77555 0.02045 0.24355 0.0
C5 C 0.68585 0.97405 0.26588 0.0
O6 O 0.76513 0.04324 0.27374 0.0
O7 O 0.76864 0.00415 0.26826 0.0
O8 O 0.70178 0.96953 0.25945 0.0
O9 O 0.69729 0.00279 0.26838 0.0
C10 C 0.73402 0.06891 0.25147 0.0
O11 O 0.74606 0.00081 0.2445 0.0
O12 O 0.78806 0.03954 0.25058 0.0
In13 In 0.01403 0.74102 0.25842 0.0
O14 O 0.06595 0.75227 0.25863 0.0
O15 O 0.03281 0.71628 0.26816 0.0
C16 C 0.01341 0.77507 0.24297 0.0
C17 C 0.0134 0.77402 0.27416 0.0
C18 C 0.96786 0.68502 0.25104 0.0
O19 O 0.0351 0.76815 0.24413 0.0
O20 O 0.99323 0.76602 0.24978 0.0
O21 O 0.96254 0.69914 0.25788 0.0
O22 O 0.99664 0.69819 0.24839 0.0
C23 C 0.06139 0.73266 0.26537 0.0
O24 O 0.99319 0.74473 0.27305 0.0
O25 O 0.03273 0.78659 0.26719 0.0
In26 In 0.29546 0.29391 0.25833 0.0
O27 O 0.28482 0.3348 0.25868 0.0
O28 O 0.3207 0.33747 0.26815 0.0
C29 C 0.26216 0.26225 0.24234 0.0
C30 C 0.26076 0.26025 0.27389 0.0
C31 C 0.35111 0.30079 0.25176 0.0
O32 O 0.27329 0.29188 0.2434 0.0
O33 O 0.2667 0.24868 0.24949 0.0
O34 O 0.33427 0.28021 0.25808 0.0
O35 O 0.34078 0.31892 0.24922 0.0
C36 C 0.30441 0.34972 0.26544 0.0
O37 O 0.28978 0.26828 0.27289 0.0
O38 O 0.24924 0.26794 0.26686 0.0
In39 In 0.29726 0.01837 0.75986 0.0
O40 O 0.29318 0.03981 0.77429 0.0
O41 O 0.25054 0.00383 0.76774 0.0
C42 C 0.35497 0.06333 0.75329 0.0
C43 C 0.30472 0.97077 0.76718 0.0
C44 C 0.26764 0.02047 0.7435 0.0
O45 O 0.34005 0.06885 0.75983 0.0
O46 O 0.34161 0.03463 0.7505 0.0
O47 O 0.2644 0.99451 0.74666 0.0
O48 O 0.28442 0.04453 0.74874 0.0
C49 C 0.26331 0.02207 0.77492 0.0
O50 O 0.28679 0.96656 0.75997 0.0
O51 O 0.3199 -0.00092 0.77024 0.0
In52 In 0.021 0.29517 0.75881 0.0
O53 O 0.04191 0.29233 0.74413 0.0
O54 O 0.00283 0.24987 0.74984 0.0
C55 C 0.06944 0.35079 0.76566 0.0
C56 C 0.97378 0.30358 0.75172 0.0
C57 C 0.01916 0.26193 0.77482 0.0
O58 O 0.07358 0.33432 0.75934 0.0
O59 O 0.04073 0.34009 0.76809 0.0
O60 O -0.00036 0.27161 0.77351 0.0
O61 O 0.03827 0.26762 0.76786 0.0
C62 C 0.02197 0.26308 0.74286 0.0
O63 O 0.96877 0.28273 0.75808 0.0
O64 O 0.00271 0.32125 0.74943 0.0
In65 In 0.74149 0.73819 0.75969 0.0
O66 O 0.75173 0.77133 0.74652 0.0
O67 O 0.78181 0.75178 0.74894 0.0
C68 C 0.68597 0.73173 0.76625 0.0
C69 C 0.72829 0.68087 0.75274 0.0
C70 C 0.77744 0.77056 0.77529 0.0
O71 O 0.70155 0.75036 0.75935 0.0
O72 O 0.69749 0.71525 0.7694 0.0
O73 O 0.765 0.74074 0.77443 0.0
O74 O 0.77328 0.78406 0.76806 0.0
C75 C 0.77479 0.76839 0.74356 0.0
O76 O 0.74864 0.69521 0.75938 0.0
O77 O 0.71311 0.69445 0.75011 0.0
In78 In 0.40673 0.352 0.59446 0.0
O79 O 0.41111 0.3317 0.57981 0.0
O80 O 0.45222 0.37228 0.58559 0.0
C81 C 0.35102 0.30448 0.60163 0.0
C82 C 0.39815 0.39928 0.58762 0.0
C83 C 0.44103 0.3527 0.61002 0.0
O84 O 0.36639 0.29969 0.59507 0.0
O85 O 0.36276 0.3333 0.60407 0.0
O86 O 0.43127 0.3723 0.60911 0.0
O87 O 0.43468 0.33397 0.60292 0.0
C88 C 0.44008 0.35285 0.57862 0.0
O89 O 0.41774 0.40373 0.59435 0.0
O90 O 0.38175 0.37074 0.58479 0.0
In91 In 0.69602 0.08535 0.59144 0.0
O92 O 0.6747 0.0873 0.60611 0.0
O93 O 0.71374 0.13023 0.6006 0.0
C94 C 0.64663 0.02991 0.58486 0.0
C95 C 0.74342 0.07701 0.59844 0.0
C96 C 0.69858 0.11853 0.57529 0.0
O97 O 0.64304 0.04738 0.59094 0.0
O98 O 0.67521 0.03962 0.58251 0.0
O99 O 0.71599 0.10626 0.57636 0.0
O100 O 0.68128 0.11543 0.58255 0.0
C101 C 0.69438 0.11654 0.60751 0.0
O102 O 0.74845 0.09838 0.59227 0.0
O103 O 0.71446 0.05896 0.60061 0.0
In104 In 0.96454 0.63285 0.59264 0.0
O105 O 0.95411 0.67411 0.59316 0.0
O106 O 0.98787 0.67464 0.60311 0.0
C107 C 0.93353 0.60087 0.57645 0.0
C108 C 0.93119 0.59477 0.60775 0.0
C109 C 0.02155 0.64596 0.58544 0.0
O110 O 0.93106 0.62399 0.57964 0.0
O111 O 0.95025 0.59337 0.58159 0.0
O112 O 0.00724 0.62534 0.59202 0.0
O113 O 0.00803 0.66135 0.58296 0.0
C114 C 0.97246 0.68771 0.6003 0.0
O115 O 0.96105 0.60718 0.60702 0.0
O116 O 0.91818 0.6002 0.60064 0.0
In117 In 0.96224 0.35355 0.09145 0.0
O118 O 0.95081 0.30164 0.09212 0.0
O119 O 0.98826 0.33573 0.10105 0.0
C120 C 0.92807 0.35141 0.07565 0.0
C121 C 0.92988 0.3542 0.10736 0.0
C122 C 0.0176 0.40159 0.08427 0.0
O123 O 0.93816 0.33217 0.07681 0.0
O124 O 0.93387 0.37041 0.08264 0.0
O125 O 0.00169 0.40607 0.09072 0.0
O126 O 0.00655 0.37279 0.08191 0.0
C127 C 0.97126 0.30684 0.09864 0.0
O128 O 0.9589 0.37485 0.10601 0.0
O129 O 0.91707 0.33449 0.1005 0.0
In130 In 0.68187 0.62846 0.09196 0.0
O131 O 0.7024 0.62631 0.07714 0.0
O132 O 0.66471 0.58322 0.08303 0.0
C133 C 0.73013 0.68445 0.09867 0.0
C134 C 0.63336 0.63547 0.08524 0.0
C135 C 0.68132 0.59564 0.10793 0.0
O136 O 0.73423 0.6682 0.09226 0.0
O137 O 0.7015 0.67335 0.10126 0.0
O138 O 0.66145 0.60493 0.10674 0.0
O139 O 0.70017 0.60153 0.10088 0.0
C140 C 0.6833 0.59682 0.07596 0.0
O141 O 0.62921 0.61454 0.09146 0.0
O142 O 0.66207 0.65386 0.08286 0.0
In143 In 0.40679 0.07427 0.09188 0.0
O144 O 0.41995 0.0351 0.0914 0.0
O145 O 0.3813 0.02924 0.08264 0.0
C146 C 0.4398 0.10559 0.10797 0.0
C147 C 0.43877 0.10753 0.07591 0.0
C148 C 0.35118 0.06748 0.09845 0.0
O149 O 0.42896 0.07607 0.10678 0.0
O150 O 0.4353 0.11936 0.10086 0.0
O151 O 0.36834 0.08834 0.09224 0.0
O152 O 0.36119 0.04903 0.10091 0.0
C153 C 0.39925 0.0186 0.08507 0.0
O154 O 0.40931 0.09714 0.07707 0.0
O155 O 0.45221 0.10247 0.08299 0.0
In156 In 0.07216 0.68553 0.92584 0.0
O157 O 0.08142 0.73686 0.92568 0.0
O158 O 0.04983 0.70425 0.91512 0.0
C159 C 0.10184 0.68356 0.9422 0.0
C160 C 0.10741 0.68273 0.91103 0.0
C161 C 0.01453 0.64123 0.93267 0.0
O162 O 0.10483 0.70945 0.93906 0.0
O163 O 0.08531 0.65953 0.93692 0.0
O164 O 0.02889 0.63515 0.92607 0.0
O165 O 0.02831 0.67009 0.93531 0.0
C166 C 0.06413 0.73247 0.91829 0.0
O167 O 0.07774 0.66358 0.91168 0.0
O168 O 0.11924 0.70188 0.91806 0.0
In169 In 0.35115 0.40842 0.92538 0.0
O170 O 0.40315 0.42013 0.92608 0.0
O171 O 0.3691 0.38248 0.93497 0.0
C172 C 0.35291 0.44138 0.9093 0.0
C173 C 0.35087 0.44153 0.94115 0.0
C174 C 0.3025 0.35271 0.91864 0.0
O175 O 0.37242 0.43171 0.91063 0.0
O176 O 0.33385 0.43582 0.91627 0.0
O177 O 0.29854 0.36928 0.92498 0.0
O178 O 0.33115 0.36334 0.91616 0.0
C179 C 0.39801 0.39967 0.93259 0.0
O180 O 0.3303 0.41244 0.93993 0.0
O181 O 0.37031 0.45408 0.9342 0.0
In182 In 0.62913 0.96509 0.92597 0.0
O183 O 0.62661 0.94132 0.94064 0.0
O184 O 0.58448 0.93922 0.93526 0.0
C185 C 0.68415 0.97171 0.91892 0.0
C186 C 0.63794 0.02108 0.9329 0.0
C187 C 0.59439 0.93239 0.91029 0.0
O188 O 0.66794 0.95147 0.9254 0.0
O189 O 0.67354 0.98966 0.91644 0.0
O190 O 0.60607 0.96216 0.91114 0.0
O191 O 0.59897 0.91917 0.91753 0.0
C192 C 0.59769 0.93285 0.94212 0.0
O193 O 0.617 0.00498 0.92657 0.0
O194 O 0.65557 0.00994 0.93521 0.0
In195 In 0.62277 0.68316 0.42475 0.0
O196 O 0.62245 0.70345 0.43984 0.0
O197 O 0.57804 0.67041 0.4334 0.0
C198 C 0.67828 0.7306 0.4175 0.0
C199 C 0.62863 0.63388 0.43146 0.0
C200 C 0.58973 0.68279 0.40889 0.0
O201 O 0.66367 0.73509 0.42438 0.0
O202 O 0.66583 0.702 0.41472 0.0
O203 O 0.59812 0.66221 0.41011 0.0
O204 O 0.59683 0.70227 0.41582 0.0
C205 C 0.59243 0.6874 0.44069 0.0
O206 O 0.60487 0.62975 0.42653 0.0
O207 O 0.65004 0.66268 0.43252 0.0
In208 In 0.34591 0.95667 0.42407 0.0
O209 O 0.3679 0.95363 0.40958 0.0
O210 O 0.32694 0.91197 0.41493 0.0
C211 C 0.39007 0.01315 0.43171 0.0
C212 C 0.29845 0.96475 0.41707 0.0
C213 C 0.34764 0.92149 0.43903 0.0
O214 O 0.39635 0.00018 0.42474 0.0
O215 O 0.36133 -0.00163 0.43445 0.0
O216 O 0.32475 0.92666 0.4379 0.0
O217 O 0.36872 0.93314 0.43248 0.0
C218 C 0.34709 0.92469 0.40817 0.0
O219 O 0.29393 0.94532 0.42387 0.0
O220 O 0.32702 0.98108 0.41426 0.0
In221 In 0.07441 0.41075 0.42543 0.0
O222 O 0.076 0.43472 0.41078 0.0
O223 O 0.11862 0.43793 0.41617 0.0
C224 C 0.01945 0.39695 0.43442 0.0
C225 C 0.06682 0.35487 0.41886 0.0
C226 C 0.11007 0.45031 0.43983 0.0
O227 O 0.02856 0.4134 0.42668 0.0
O228 O 0.0369 0.38599 0.43713 0.0
O229 O 0.10834 0.4237 0.43843 0.0
O230 O 0.09499 0.45723 0.43374 0.0
C231 C 0.10523 0.4442 0.40936 0.0
O232 O 0.08663 0.37088 0.42548 0.0
O233 O 0.04981 0.36618 0.41602 0.0
Zn234 Zn 0.01656 0.02106 0.13751 0.0
Zn235 Zn 0.01906 0.02095 0.17465 0.0
Zn236 Zn 0.0175 0.02058 0.1565 0.0
C237 C 0.98796 0.95765 0.17017 0.0
C238 C 0.08169 0.05404 0.1698 0.0
O239 O 0.99212 0.04589 0.15177 0.0
O240 O 0.99135 0.04234 0.13572 0.0
C241 C 0.98589 0.95722 0.14292 0.0
O242 O 0.99648 0.97012 0.16162 0.0
O243 O 0.99262 0.97524 0.17745 0.0
O244 O 0.06491 0.04029 0.17718 0.0
O245 O 0.06827 0.0503 0.16142 0.0
O246 O 0.99515 0.97455 0.13541 0.0
O247 O 0.99206 0.97007 0.15145 0.0
O248 O 0.06778 0.04596 0.15121 0.0
O249 O 0.06301 0.0464 0.13522 0.0
C250 C 0.08048 0.05348 0.14267 0.0
O251 O 0.98829 0.04119 0.16199 0.0
O252 O -5e-05 0.04725 0.17766 0.0
C253 C 0.98449 0.05196 0.14338 0.0
C254 C 0.98542 0.05046 0.17054 0.0
Zn255 Zn 0.01438 0.01935 0.34214 0.0
Zn256 Zn 0.01428 0.01845 0.37937 0.0
Zn257 Zn 0.01451 0.01921 0.36041 0.0
C258 C 0.04741 0.08239 0.37412 0.0
C259 C 0.95063 0.98746 0.37387 0.0
O260 O 0.0343 0.98893 0.35516 0.0
O261 O 0.03843 0.99779 0.33931 0.0
C262 C 0.04962 0.0825 0.34686 0.0
O263 O 0.04054 0.06972 0.36556 0.0
O264 O 0.03932 0.06489 0.38159 0.0
O265 O 0.96772 0.99654 0.38143 0.0
O266 O 0.96384 0.99409 0.36538 0.0
O267 O 0.03622 0.06528 0.33954 0.0
O268 O 0.04507 0.06973 0.35538 0.0
O269 O 0.9642 -0.00057 0.35523 0.0
O270 O 0.96852 0.99528 0.33937 0.0
C271 C 0.95137 0.99148 0.3467 0.0
O272 O 0.03914 0.99328 0.36533 0.0
O273 O 0.03586 0.99366 0.38137 0.0
C274 C 0.04232 0.98439 0.34661 0.0
C275 C 0.04523 0.98612 0.3738 0.0
Zn276 Zn 0.01652 0.01801 0.87916 0.0
Zn277 Zn 0.01642 0.01742 0.842 0.0
Zn278 Zn 0.01653 0.01802 0.86022 0.0
C279 C 0.04573 0.08078 0.8464 0.0
C280 C 0.95334 0.98326 0.84651 0.0
O281 O 0.04206 0.99322 0.86538 0.0
O282 O 0.04194 0.9972 0.8814 0.0
C283 C 0.04707 0.08171 0.87365 0.0
O284 O 0.03724 0.06832 0.85496 0.0
O285 O 0.04171 0.0632 0.83916 0.0
O286 O 0.97065 0.99662 0.8392 0.0
O287 O 0.96611 0.9878 0.85504 0.0
O288 O 0.03741 0.06453 0.88119 0.0
O289 O 0.04146 0.06868 0.86516 0.0
O290 O 0.9659 0.99239 0.86521 0.0
O291 O 0.97002 0.9923 0.88124 0.0
C292 C 0.95285 0.98491 0.87371 0.0
O293 O 0.04649 0.99777 0.85518 0.0
O294 O 0.03698 0.99225 0.83938 0.0
C295 C 0.04935 0.98749 0.87388 0.0
C296 C 0.0506 0.9889 0.84672 0.0
Zn297 Zn 0.01502 0.01984 0.67803 0.0
Zn298 Zn 0.02161 0.01761 0.64124 0.0
Zn299 Zn 0.01866 0.01816 0.66007 0.0
C300 C 0.98758 0.95406 0.64678 0.0
C301 C 0.08436 0.04918 0.64748 0.0
O302 O 0.99668 0.04765 0.66426 0.0
O303 O 0.98864 0.03925 0.68005 0.0
C304 C 0.98454 0.95614 0.67412 0.0
O305 O 0.99404 0.96724 0.65527 0.0
O306 O 0.99597 0.97113 0.63921 0.0
O307 O 0.06833 0.03841 0.63977 0.0
O308 O 0.07001 0.04402 0.65576 0.0
O309 O 0.99541 0.97476 0.68129 0.0
O310 O 0.98974 0.96759 0.6654 0.0
O311 O 0.06829 0.04022 0.66603 0.0
O312 O 0.06021 0.04586 0.6815 0.0
C313 C 0.07919 0.04945 0.67471 0.0
O314 O 0.99388 0.0427 0.65407 0.0
O315 O 0.00147 0.04319 0.63819 0.0
C316 C 0.98634 0.05225 0.6724 0.0
C317 C 0.99 0.0502 0.64537 0.0
Zn318 Zn 0.67169 0.34106 0.50929 0.0
Zn319 Zn 0.68753 0.35794 0.47479 0.0
Zn320 Zn 0.68147 0.34993 0.49159 0.0
C321 C 0.74392 0.36453 0.48049 0.0
C322 C 0.63902 0.2969 0.47639 0.0
O323 O 0.65095 0.37048 0.49621 0.0
O324 O 0.63965 0.35328 0.5114 0.0
C325 C 0.73709 0.38324 0.50727 0.0
O326 O 0.73373 0.37046 0.48845 0.0
O327 O 0.72567 0.35437 0.47321 0.0
O328 O 0.64709 0.32016 0.4707 0.0
O329 O 0.65262 0.30198 0.4848 0.0
O330 O 0.7154 0.37105 0.51363 0.0
O331 O 0.73 0.37696 0.49818 0.0
O332 O 0.6597 0.2973 0.49437 0.0
O333 O 0.65752 0.29592 0.51044 0.0
C334 C 0.6539 0.28176 0.50246 0.0
O335 O 0.66269 0.38174 0.48693 0.0
O336 O 0.69202 0.40063 0.47371 0.0
C337 C 0.63591 0.36731 0.50426 0.0
C338 C 0.6738 0.40225 0.47992 0.0
Zn339 Zn 0.6889 0.35265 0.71295 0.0
Zn340 Zn 0.68521 0.35055 0.67572 0.0
Zn341 Zn 0.68729 0.35151 0.69398 0.0
C342 C 0.62269 0.32053 0.68084 0.0
C343 C 0.71923 0.41397 0.68004 0.0
O344 O 0.71341 0.32708 0.69884 0.0
O345 O 0.71155 0.32888 0.7149 0.0
C346 C 0.62479 0.3197 0.70795 0.0
O347 O 0.63639 0.32981 0.68921 0.0
O348 O 0.63922 0.32422 0.67336 0.0
O349 O 0.7049 0.39631 0.67287 0.0
O350 O 0.71614 0.40161 0.68857 0.0
O351 O 0.6425 0.32999 0.71536 0.0
O352 O 0.63719 0.32558 0.69936 0.0
O353 O 0.71193 0.40232 0.69878 0.0
O354 O 0.7128 0.39928 0.71482 0.0
C355 C 0.71922 0.41593 0.7072 0.0
O356 O 0.70865 0.32279 0.68868 0.0
O357 O 0.71111 0.33098 0.67282 0.0
C358 C 0.72043 0.32087 0.70732 0.0
C359 C 0.71652 0.31855 0.68008 0.0
Zn360 Zn 0.68491 0.35138 0.21115 0.0
Zn361 Zn 0.68278 0.35039 0.17391 0.0
Zn362 Zn 0.68385 0.35094 0.19221 0.0
C363 C 0.71156 0.41371 0.1784 0.0
C364 C 0.61989 0.31567 0.17885 0.0
O365 O 0.7097 0.3262 0.1971 0.0
O366 O 0.71034 0.33047 0.21313 0.0
C367 C 0.71522 0.4149 0.20561 0.0
O368 O 0.70398 0.40121 0.18698 0.0
O369 O 0.70696 0.39621 0.1711 0.0
O370 O 0.63676 0.32861 0.17142 0.0
O371 O 0.63315 0.32064 0.18731 0.0
O372 O 0.70606 0.39789 0.21318 0.0
O373 O 0.70897 0.40165 0.19713 0.0
O374 O 0.63348 0.32506 0.19748 0.0
O375 O 0.63854 0.32572 0.21349 0.0
C376 C 0.62093 0.31786 0.20605 0.0
O377 O 0.71379 0.33089 0.1869 0.0
O378 O 0.70431 0.32629 0.17109 0.0
C379 C 0.71738 0.3206 0.20556 0.0
C380 C 0.71807 0.32268 0.17835 0.0
Zn381 Zn 0.6832 0.35298 0.01001 0.0
Zn382 Zn 0.68385 0.35325 0.97258 0.0
Zn383 Zn 0.68335 0.35304 0.99159 0.0
C384 C 0.65217 0.28949 0.978 0.0
C385 C 0.74738 0.38579 0.97821 0.0
O386 O 0.66232 0.38227 0.99668 0.0
O387 O 0.65894 0.37453 0.01258 0.0
C388 C 0.64886 0.28973 1.00519 0.0
O389 O 0.65859 0.3025 0.98651 0.0
O390 O 0.65994 0.30671 0.97047 0.0
O391 O 0.73049 0.37614 0.97062 0.0
O392 O 0.73402 0.37915 0.98667 0.0
O393 O 0.66139 0.30697 0.01257 0.0
O394 O 0.65385 0.30255 0.99666 0.0
O395 O 0.73369 0.374 0.99681 0.0
O396 O 0.72915 0.37729 0.01271 0.0
C397 C 0.74644 0.38184 1.00535 0.0
O398 O 0.65769 0.37773 0.98651 0.0
O399 O 0.66123 0.37702 0.97048 0.0
C400 C 0.65439 0.38713 1.0052 0.0
C401 C 0.65144 0.3844 0.97799 0.0
Zn402 Zn 0.35505 0.68546 0.84267 0.0
Zn403 Zn 0.35266 0.68616 0.80561 0.0
Zn404 Zn 0.35354 0.68566 0.82453 0.0
C405 C 0.41654 0.71954 0.81072 0.0
C406 C 0.32301 0.62238 0.81092 0.0
O407 O 0.32364 0.70548 0.83003 0.0
O408 O 0.33484 0.7107 0.84573 0.0
C409 C 0.41764 0.72028 0.83787 0.0
O410 O 0.40389 0.71181 0.81926 0.0
O411 O 0.39899 0.71223 0.80327 0.0
O412 O 0.33213 0.63977 0.80342 0.0
O413 O 0.32886 0.63516 0.81945 0.0
O414 O 0.40099 0.70599 0.84522 0.0
O415 O 0.40418 0.71632 0.82948 0.0
O416 O 0.3334 0.63518 0.82961 0.0
O417 O 0.32972 0.63971 0.84548 0.0
C418 C 0.32533 0.62239 0.83814 0.0
O419 O 0.32724 0.71011 0.81981 0.0
O420 O 0.32667 0.70654 0.80377 0.0
C421 C 0.32041 0.71415 0.83863 0.0
C422 C 0.31942 0.71589 0.8114 0.0
Zn423 Zn 0.34997 0.68462 0.04422 0.0
Zn424 Zn 0.35623 0.68936 1.00729 0.0
Zn425 Zn 0.35215 0.68641 0.02539 0.0
C426 C 0.29182 0.65811 0.01074 0.0
C427 C 0.38824 0.75157 0.01248 0.0
O428 O 0.37674 0.66074 0.0306 0.0
O429 O 0.3697 0.65826 0.04654 0.0
C430 C 0.28693 0.65478 0.03809 0.0
O431 O 0.30244 0.66513 0.01953 0.0
O432 O 0.31106 0.66427 1.0038 0.0
O433 O 0.37674 0.73519 1.00489 0.0
O434 O 0.38237 0.73766 0.02086 0.0
O435 O 0.30334 0.66429 0.04578 0.0
O436 O 0.30081 0.66057 0.02972 0.0
O437 O 0.37673 0.73647 0.03097 0.0
O438 O 0.3759 0.73069 0.04695 0.0
C439 C 0.38364 0.74864 0.03959 0.0
O440 O 0.3736 0.65743 0.02034 0.0
O441 O 0.38186 0.66927 1.00472 0.0
C442 C 0.38085 0.65209 0.03911 0.0
C443 C 0.38382 0.65442 0.01196 0.0
Zn444 Zn 0.35342 0.69104 0.54829 0.0
Zn445 Zn 0.36522 0.68906 0.4966 0.0
Zn446 Zn 0.35649 0.69027 0.53032 0.0
C447 C 0.37939 0.73764 0.51443 0.0
C448 C 0.31251 0.66078 0.51379 0.0
O449 O 0.38025 0.66403 0.53542 0.0
O450 O 0.37563 0.66706 0.55131 0.0
C451 C 0.38789 0.75509 0.54234 0.0
O452 O 0.37791 0.73821 0.52373 0.0
O453 O 0.37151 0.71063 0.51061 0.0
O454 O 0.34066 0.67789 0.51033 0.0
O455 O 0.30961 0.6622 0.52301 0.0
O456 O 0.37716 0.7382 0.54992 0.0
O457 O 0.38239 0.74168 0.53393 0.0
O458 O 0.30454 0.66568 0.53309 0.0
O459 O 0.30612 0.66807 0.54915 0.0
C460 C 0.29015 0.66 0.54135 0.0
O461 O 0.38561 0.66954 0.52536 0.0
O462 O 0.37256 0.68015 0.51131 0.0
C463 C 0.38465 0.65729 0.54414 0.0
C464 C 0.3881 0.66979 0.51608 0.0
Zn465 Zn 0.34944 0.68355 0.30286 0.0
Zn466 Zn 0.34853 0.68442 0.34022 0.0
Zn467 Zn 0.34874 0.68372 0.32199 0.0
C468 C 0.41164 0.7128 0.33582 0.0
C469 C 0.31352 0.62112 0.33588 0.0
O470 O 0.32385 0.70887 0.3167 0.0
O471 O 0.32675 0.70727 0.30066 0.0
C472 C 0.41297 0.71568 0.30868 0.0
O473 O 0.39902 0.70419 0.32729 0.0
O474 O 0.39428 0.70919 0.34308 0.0
O475 O 0.32704 0.63869 0.34313 0.0
O476 O 0.31813 0.63347 0.3273 0.0
O477 O 0.39622 0.70644 0.30105 0.0
O478 O 0.39944 0.70897 0.31712 0.0
O479 O 0.32351 0.63309 0.31716 0.0
O480 O 0.32558 0.63678 0.3011 0.0
C481 C 0.3174 0.61982 0.30869 0.0
O482 O 0.32839 0.7138 0.32685 0.0
O483 O 0.32391 0.70559 0.34272 0.0
C484 C 0.31741 0.71522 0.30816 0.0
C485 C 0.31999 0.7185 0.33531 0.0
H486 H 0.23377 0.19841 0.23911 0.0
H487 H 0.2111 0.16969 0.22391 0.0
H488 H 0.23382 0.25784 0.20969 0.0
H489 H 0.2567 0.28695 0.22495 0.0
H490 H 0.1598 0.17005 0.213 0.0
H491 H 0.27187 0.21463 0.1916 0.0
H492 H 0.27183 0.2162 0.20474 0.0
H493 H 0.26509 0.24344 0.19776 0.0
C494 C 0.2339 0.21174 0.23277 0.0
C495 C 0.24695 0.24494 0.23323 0.0
C496 C 0.22104 0.19529 0.22408 0.0
C497 C 0.22121 0.2117 0.21565 0.0
C498 C 0.23394 0.24483 0.21608 0.0
H499 H 0.11125 0.11573 0.16381 0.0
H500 H 0.15259 0.15986 0.1734 0.0
C501 C 0.24671 0.26135 0.22481 0.0
C502 C 0.20662 0.19351 0.2066 0.0
H503 H 0.22393 0.17639 0.18403 0.0
C504 C 0.17376 0.17171 0.20663 0.0
C505 C 0.22497 0.19577 0.19831 0.0
C506 C 0.26045 0.21861 0.19803 0.0
C507 C 0.15879 0.1516 0.19867 0.0
C508 C 0.17723 0.15305 0.1905 0.0
C509 C 0.20997 0.17543 0.19032 0.0
C510 C 0.1624 0.12955 0.18254 0.0
C511 C 0.12339 0.12816 0.19914 0.0
C512 C 0.1561 0.09834 0.18406 0.0
C513 C 0.13243 0.0732 0.17865 0.0
C514 C 0.11498 0.07901 0.17161 0.0
C515 C 0.12463 0.11068 0.16912 0.0
C516 C 0.14809 0.1359 0.17464 0.0
H517 H 0.11189 0.13274 0.20544 0.0
H518 H 0.11155 0.12923 0.19235 0.0
H519 H 0.11931 0.10359 0.19982 0.0
H520 H 0.16688 0.09301 0.19014 0.0
H521 H 0.12526 0.04897 0.18075 0.0
H522 H 0.83927 0.05895 0.24052 0.0
H523 H 0.86918 0.06571 0.22554 0.0
H524 H 0.78323 0.99482 0.21133 0.0
H525 H 0.75293 0.98793 0.22635 0.0
H526 H 0.8739 0.01658 0.21543 0.0
H527 H 0.82175 0.07329 0.19239 0.0
H528 H 0.81899 0.07224 0.20552 0.0
H529 H 0.79444 0.03687 0.19858 0.0
C530 C 0.82669 0.04469 0.23422 0.0
C531 C 0.79374 0.02285 0.23462 0.0
C532 C 0.8438 0.04868 0.22566 0.0
C533 C 0.82834 0.03114 0.21729 0.0
C534 C 0.7955 0.00901 0.21767 0.0
H535 H 0.92312 0.01857 0.16508 0.0
H536 H 0.88003 0.01583 0.17514 0.0
C537 C 0.77831 0.00488 0.22627 0.0
C538 C 0.84725 0.03529 0.20836 0.0
H539 H 0.86164 0.06555 0.18521 0.0
C540 C 0.87105 0.02707 0.20881 0.0
C541 C 0.84338 0.04891 0.19972 0.0
C542 C 0.81842 0.05858 0.19897 0.0
C543 C 0.89144 0.03252 0.20091 0.0
C544 C 0.88833 0.04708 0.19238 0.0
C545 C 0.86398 0.05455 0.19179 0.0
C546 C 0.91148 0.05559 0.18432 0.0
C547 C 0.91663 0.02311 0.2018 0.0
C548 C 0.94299 0.08033 0.1857 0.0
C549 C 0.96753 0.0818 0.18002 0.0
C550 C 0.96083 0.05872 0.17283 0.0
C551 C 0.92886 0.03686 0.17051 0.0
C552 C 0.90423 0.03512 0.1763 0.0
H553 H 0.91208 0.00688 0.20807 0.0
H554 H 0.91781 0.01119 0.19505 0.0
H555 H 0.94028 0.04485 0.20287 0.0
H556 H 0.949 0.09638 0.19184 0.0
H557 H 0.992 0.09874 0.18197 0.0
H558 H 0.05133 0.7941 0.22665 0.0
H559 H 0.04439 0.81843 0.21184 0.0
H560 H 0.96095 0.81426 0.22438 0.0
H561 H 0.96786 0.79045 0.23914 0.0
H562 H 0.9895 0.79537 0.19877 0.0
H563 H 0.01951 0.90895 0.21706 0.0
H564 H 0.02902 0.88062 0.22229 0.0
H565 H 0.98925 0.87421 0.22324 0.0
C566 C 0.03165 0.79859 0.22626 0.0
C567 C 0.01036 0.7907 0.23411 0.0
C568 C 0.02759 0.81225 0.21777 0.0
C569 C 0.0023 0.81836 0.21705 0.0
C570 C 0.98086 0.81012 0.22483 0.0
H571 H 0.93749 0.91538 0.18084 0.0
H572 H 0.93739 0.87352 0.19071 0.0
C573 C 0.98488 0.79654 0.23328 0.0
C574 C -0.0015 0.83419 0.20833 0.0
H575 H 0.99545 0.90009 0.20147 0.0
C576 C 0.99103 0.81838 0.1993 0.0
C577 C 0.00074 0.86428 0.20905 0.0
C578 C 0.01037 0.8832 0.2184 0.0
C579 C 0.98451 0.83148 0.19106 0.0
C580 C 0.98566 0.86103 0.19192 0.0
C581 C 0.99402 0.87712 0.20088 0.0
C582 C 0.97875 0.87655 0.18372 0.0
C583 C 0.97565 0.8134 0.18159 0.0
C584 C 0.00047 0.8903 0.17599 0.0
C585 C 9e-05 0.91388 0.17018 0.0
C586 C 0.97841 0.92425 0.1722 0.0
C587 C 0.95425 0.90757 0.17909 0.0
C588 C 0.95437 0.88384 0.18479 0.0
H589 H 0.97033 0.78846 0.18254 0.0
H590 H 0.95457 0.81306 0.17831 0.0
H591 H 0.99578 0.82559 0.17639 0.0
H592 H 0.0197 0.88531 0.17509 0.0
H593 H 0.01929 0.92677 0.16502 0.0
H594 H 0.28022 0.24357 0.29055 0.0
H595 H 0.24889 0.21994 0.30543 0.0
H596 H 0.16837 0.22031 0.29231 0.0
H597 H 0.19913 0.24336 0.27748 0.0
H598 H 0.2165 0.24253 0.31804 0.0
H599 H 0.13307 0.127 0.30057 0.0
H600 H 0.17075 0.15544 0.29515 0.0
H601 H 0.13681 0.16079 0.29406 0.0
C602 C 0.25576 0.23837 0.29083 0.0
C603 C 0.24202 0.24496 0.28279 0.0
C604 C 0.23799 0.2251 0.29935 0.0
C605 C 0.20622 0.2181 0.29994 0.0
C606 C 0.19269 0.22508 0.29197 0.0
H607 H 0.04374 0.126 0.3362 0.0
H608 H 0.08676 0.1669 0.32634 0.0
C609 C 0.21033 0.23824 0.28348 0.0
C610 C 0.18661 0.2028 0.30873 0.0
H611 H 0.1174 0.13712 0.31593 0.0
C612 C 0.19497 0.21935 0.31764 0.0
C613 C 0.1587 0.17247 0.30819 0.0
C614 C 0.14941 0.15271 0.29901 0.0
C615 C 0.17531 0.20678 0.32591 0.0
C616 C 0.14678 0.17707 0.32521 0.0
C617 C 0.13905 0.16021 0.31639 0.0
C618 C 0.12406 0.16233 0.33341 0.0
C619 C 0.1845 0.22557 0.33526 0.0
C620 C 0.13113 0.14803 0.34117 0.0
C621 C 0.10647 0.12496 0.34696 0.0
C622 C 0.07459 0.11566 0.3449 0.0
C623 C 0.06816 0.13298 0.33799 0.0
C624 C 0.09272 0.15616 0.33229 0.0
H625 H 0.20515 0.25005 0.33427 0.0
H626 H 0.16399 0.22716 0.33815 0.0
H627 H 0.19091 0.21306 0.34078 0.0
H628 H 0.15509 0.15218 0.3421 0.0
H629 H 0.11196 0.11157 0.35214 0.0
H630 H 0.78401 0.05796 0.29191 0.0
H631 H 0.80391 0.05078 0.30759 0.0
H632 H 0.81615 0.97619 0.29509 0.0
H633 H 0.79602 0.98291 0.27951 0.0
H634 H 0.78491 0.96011 0.31338 0.0
H635 H 0.89682 0.07835 0.31422 0.0
H636 H 0.86021 0.07863 0.31263 0.0
H637 H 0.87367 0.06243 0.30325 0.0
C638 C 0.79125 0.04026 0.29249 0.0
C639 C 0.78865 0.02115 0.28446 0.0
C640 C 0.80259 0.03617 0.30145 0.0
C641 C 0.81167 0.01305 0.3025 0.0
C642 C 0.80921 0.99411 0.29446 0.0
H643 H 0.9096 0.9467 0.33431 0.0
H644 H 0.86665 0.94916 0.32598 0.0
C645 C 0.79787 0.99813 0.28554 0.0
C646 C 0.82395 0.00835 0.31189 0.0
H647 H 0.88886 0.04275 0.32686 0.0
C648 C 0.80743 0.97833 0.31642 0.0
C649 C 0.85312 0.03222 0.31591 0.0
C650 C 0.87221 0.06469 0.31126 0.0
C651 C 0.82003 0.97111 0.3246 0.0
C652 C 0.85014 0.99434 0.32826 0.0
C653 C 0.86568 0.02497 0.32409 0.0
C654 C 0.8685 0.98622 0.3352 0.0
C655 C 0.80134 0.93839 0.32909 0.0
C656 C 0.88286 0.00505 0.3435 0.0
C657 C 0.90739 0.00337 0.34836 0.0
C658 C 0.91821 0.98333 0.34484 0.0
C659 C 0.90149 0.96214 0.33722 0.0
C660 C 0.87688 0.96357 0.33244 0.0
H661 H 0.77528 0.92843 0.32813 0.0
H662 H 0.80776 0.92208 0.32539 0.0
H663 H 0.80658 0.93885 0.33697 0.0
H664 H 0.87687 0.02279 0.34573 0.0
H665 H 0.92018 0.02025 0.35413 0.0
H666 H 0.05347 0.83721 0.27751 0.0
H667 H 0.05991 0.86692 0.29248 0.0
H668 H 0.98605 0.78161 0.30621 0.0
H669 H 0.9795 0.75147 0.29117 0.0
H670 H 0.01103 0.87326 0.30194 0.0
H671 H 0.0621 0.8178 0.32598 0.0
H672 H 0.06235 0.8151 0.31286 0.0
H673 H 0.02602 0.79142 0.31949 0.0
C674 C 0.03853 0.8247 0.2837 0.0
C675 C 0.01591 0.79199 0.28315 0.0
C676 C 0.04234 0.84171 0.29227 0.0
C677 C 0.02381 0.82638 0.3005 0.0
C678 C 0.00099 0.79376 0.29999 0.0
H679 H 0.00897 0.92221 0.35208 0.0
H680 H 0.00624 0.87877 0.34221 0.0
C681 C 0.99706 0.77667 0.29137 0.0
C682 C 0.02757 0.84533 0.30939 0.0
H683 H 0.05519 0.8586 0.33285 0.0
C684 C 0.02046 0.86989 0.30871 0.0
C685 C 0.03981 0.8408 0.31823 0.0
C686 C 0.04825 0.81501 0.31924 0.0
C687 C 0.02571 0.89037 0.31656 0.0
C688 C 0.03894 0.88659 0.32529 0.0
C689 C 0.04524 0.86149 0.32612 0.0
C690 C 0.04716 0.90971 0.33335 0.0
C691 C 0.01752 0.91636 0.31541 0.0
C692 C 0.07249 0.94101 0.3321 0.0
C693 C 0.07395 0.96575 0.33767 0.0
C694 C 0.0503 0.95945 0.34463 0.0
C695 C 0.02773 0.92761 0.34684 0.0
C696 C 0.02599 0.9028 0.34116 0.0
H697 H 0.00199 0.91229 0.30899 0.0
H698 H 0.00526 0.91806 0.32201 0.0
H699 H 0.03982 0.93961 0.31443 0.0
H700 H 0.08909 0.94678 0.32612 0.0
H701 H 0.09141 0.99013 0.33578 0.0
H702 H 0.80317 0.83407 0.77881 0.0
H703 H 0.82334 0.86215 0.79425 0.0
H704 H 0.80472 0.77453 0.80798 0.0
H705 H 0.78463 0.74618 0.79249 0.0
H706 H 0.78892 0.84801 0.8124 0.0
H707 H 0.89865 0.83899 0.8151 0.0
H708 H 0.87729 0.83253 0.8038 0.0
H709 H 0.86152 0.80259 0.81313 0.0
C710 C 0.80372 0.82081 0.78508 0.0
C711 C 0.7925 0.78793 0.78441 0.0
C712 C 0.81505 0.83686 0.79392 0.0
C713 C 0.81559 0.82046 0.80226 0.0
C714 C 0.80482 0.78771 0.80161 0.0
H715 H 0.92102 0.92328 0.85414 0.0
H716 H 0.87788 0.8772 0.84567 0.0
C717 C 0.7934 0.77157 0.79275 0.0
C718 C 0.82732 0.83797 0.81159 0.0
H719 H 0.89062 0.86818 0.82719 0.0
C720 C 0.81094 0.85208 0.81572 0.0
C721 C 0.85578 0.8429 0.816 0.0
C722 C 0.87456 0.82868 0.81179 0.0
C723 C 0.82301 0.87213 0.82389 0.0
C724 C 0.85253 0.87871 0.82792 0.0
C725 C 0.8679 0.86305 0.82414 0.0
C726 C 0.8706 0.90539 0.83487 0.0
C727 C 0.80436 0.88664 0.82797 0.0
C728 C 0.87947 0.93653 0.83199 0.0
C729 C 0.90393 0.96272 0.83682 0.0
C730 C 0.92008 0.95829 0.8446 0.0
C731 C 0.9087 0.92736 0.84824 0.0
C732 C 0.88428 0.901 0.84333 0.0
H733 H 0.77833 0.8705 0.82688 0.0
H734 H 0.80908 0.89191 0.83586 0.0
H735 H 0.81127 0.90923 0.82407 0.0
H736 H 0.86981 0.94069 0.82541 0.0
H737 H 0.91245 0.98632 0.83383 0.0
H738 H 0.28647 0.05138 0.79249 0.0
H739 H 0.25603 0.04434 0.80748 0.0
H740 H 0.16877 0.98116 0.79233 0.0
H741 H 0.19887 0.98801 0.77737 0.0
H742 H 0.16878 0.03145 0.80383 0.0
H743 H 0.21066 0.96071 0.82453 0.0
H744 H 0.24038 0.99729 0.81892 0.0
H745 H 0.21356 0.96437 0.81143 0.0
C746 C 0.26077 0.03618 0.79235 0.0
C747 C 0.24503 0.02028 0.78375 0.0
C748 C 0.24348 0.03195 0.80093 0.0
C749 C 0.21024 0.01183 0.80104 0.0
C750 C 0.19445 0.99658 0.79241 0.0
H751 H 0.04594 0.94105 0.83547 0.0
H752 H 0.09032 0.94454 0.82608 0.0
C753 C 0.21168 0.00063 0.78387 0.0
C754 C 0.19144 0.00718 0.81001 0.0
H755 H 0.17286 0.97038 0.83226 0.0
C756 C 0.16993 0.01842 0.81009 0.0
C757 C 0.19302 0.99012 0.81815 0.0
C758 C 0.21548 0.97718 0.81831 0.0
C759 C 0.14951 0.01258 0.81801 0.0
C760 C 0.15037 0.99472 0.82602 0.0
C761 C 0.17239 0.9841 0.8261 0.0
C762 C 0.12658 0.98536 0.83392 0.0
C763 C 0.1264 0.02477 0.81765 0.0
C764 C 0.13267 0.00555 0.84194 0.0
C765 C 0.10726 0.00318 0.84745 0.0
C766 C 0.07568 0.98102 0.84483 0.0
C767 C 0.0701 0.9582 0.83766 0.0
C768 C 0.09543 0.96028 0.83225 0.0
H769 H 0.13119 0.04122 0.81143 0.0
H770 H 0.10171 0.00431 0.81694 0.0
H771 H 0.12765 0.03744 0.82451 0.0
H772 H 0.15658 0.02513 0.84329 0.0
H773 H 0.11212 0.02128 0.85287 0.0
H774 H 0.98304 0.24982 0.79134 0.0
H775 H 0.99024 0.22984 0.80701 0.0
H776 H 0.06814 0.22238 0.79488 0.0
H777 H 0.06128 0.24242 0.77931 0.0
H778 H 0.98713 0.1722 0.81111 0.0
H779 H 0.10711 0.27277 0.81992 0.0
H780 H 0.08191 0.27552 0.81075 0.0
H781 H 0.10526 0.2572 0.80794 0.0
C782 C 0.00163 0.24382 0.79202 0.0
C783 C 0.02162 0.24773 0.78409 0.0
C784 C 0.00582 0.23258 0.80099 0.0
C785 C 0.03026 0.2254 0.80219 0.0
C786 C 0.04973 0.22863 0.79421 0.0
H787 H 0.08935 0.12046 0.83334 0.0
H788 H 0.08731 0.16359 0.82493 0.0
C789 C 0.04552 0.23975 0.78527 0.0
C790 C 0.03458 0.21285 0.81158 0.0
H791 H 0.09141 0.22306 0.82818 0.0
C792 C 0.00964 0.18364 0.815 0.0
C793 C 0.06394 0.22795 0.81667 0.0
C794 C 0.09097 0.26026 0.81369 0.0
C795 C 0.01405 0.16789 0.82291 0.0
C796 C 0.04408 0.1821 0.82765 0.0
C797 C 0.0684 0.21225 0.82459 0.0
C798 C 0.05204 0.16359 0.83456 0.0
C799 C 0.98725 0.13509 0.82564 0.0
C800 C 0.03494 0.15113 0.84326 0.0
C801 C 0.03635 0.1265 0.84817 0.0
C802 C 0.05471 0.1141 0.84435 0.0
C803 C 0.07493 0.12955 0.8364 0.0
C804 C 0.07365 0.15413 0.83156 0.0
H805 H 0.96723 0.12573 0.82035 0.0
H806 H 0.99606 0.11799 0.82608 0.0
H807 H 0.97779 0.13611 0.8329 0.0
H808 H 0.0186 0.15858 0.84581 0.0
H809 H 0.02045 0.11492 0.85426 0.0
H810 H 0.7987 0.82814 0.73591 0.0
H811 H 0.82802 0.84815 0.72059 0.0
H812 H 0.81268 0.75428 0.71423 0.0
H813 H 0.78612 0.73533 0.72995 0.0
H814 H 0.86763 0.79086 0.70977 0.0
H815 H 0.8031 0.84536 0.69359 0.0
H816 H 0.81745 0.86342 0.70523 0.0
H817 H 0.78878 0.82124 0.70442 0.0
C818 C 0.80153 0.8119 0.73117 0.0
C819 C 0.79038 0.78034 0.73406 0.0
C820 C 0.81789 0.82316 0.72234 0.0
C821 C 0.82204 0.80263 0.71602 0.0
C822 C 0.80997 0.77076 0.71889 0.0
H823 H 0.92842 0.91372 0.66505 0.0
H824 H 0.885 0.86576 0.6728 0.0
C825 C 0.79475 0.75989 0.72787 0.0
C826 C 0.84127 0.81496 0.7069 0.0
H827 H 0.85866 0.86815 0.68838 0.0
C828 C 0.86501 0.80716 0.70499 0.0
C829 C 0.83751 0.83529 0.70029 0.0
C830 C 0.81002 0.8414 0.70094 0.0
C831 C 0.88648 0.82103 0.69722 0.0
C832 C 0.88551 0.84479 0.6915 0.0
C833 C 0.86013 0.85053 0.69286 0.0
C834 C 0.91299 0.86741 0.68532 0.0
C835 C 0.91028 0.81031 0.69537 0.0
C836 C 0.94365 0.88322 0.68943 0.0
C837 C 0.96838 0.90992 0.68492 0.0
C838 C 0.96296 0.92207 0.67631 0.0
C839 C 0.9333 0.90467 0.67164 0.0
C840 C 0.90839 0.87751 0.67614 0.0
H841 H 0.8991 0.78423 0.69662 0.0
H842 H 0.91981 0.81572 0.68783 0.0
H843 H 0.93035 0.82233 0.7006 0.0
H844 H 0.94798 0.87683 0.69658 0.0
H845 H 0.99101 0.92295 0.68869 0.0
H846 H 0.20726 0.98423 0.73628 0.0
H847 H 0.18608 0.99363 0.72124 0.0
H848 H 0.27985 0.07191 0.71414 0.0
H849 H 0.30008 0.06417 0.72957 0.0
H850 H 0.24326 0.09099 0.7106 0.0
H851 H 0.18546 0.972 0.69396 0.0
H852 H 0.16883 0.96821 0.70583 0.0
H853 H 0.21072 0.98133 0.70451 0.0
C854 C 0.22325 0.00317 0.73142 0.0
C855 C 0.25518 0.02353 0.73403 0.0
C856 C 0.2113 0.00836 0.72275 0.0
C857 C 0.23142 0.0331 0.71634 0.0
C858 C 0.26368 0.05269 0.71888 0.0
H859 H 0.12064 0.03406 0.66593 0.0
H860 H 0.16712 0.0362 0.67382 0.0
C861 C 0.27529 0.04824 0.7277 0.0
C862 C 0.21834 0.04048 0.70749 0.0
H863 H 0.16354 0.00572 0.68929 0.0
C864 C 0.2264 0.07229 0.70583 0.0
C865 C 0.19715 0.01665 0.70093 0.0
C866 C 0.19043 0.98276 0.70135 0.0
C867 C 0.21218 0.08043 0.69832 0.0
C868 C 0.18786 0.05599 0.69262 0.0
C869 C 0.18163 0.02457 0.69376 0.0
C870 C 0.16554 0.06152 0.68659 0.0
C871 C 0.2232 0.11523 0.69672 0.0
C872 C 0.15016 0.07644 0.69086 0.0
C873 C 0.12428 0.07585 0.68629 0.0
C874 C 0.11245 0.05957 0.67744 0.0
C875 C 0.12935 0.04697 0.67271 0.0
C876 C 0.15569 0.04787 0.67728 0.0
H877 H 0.2493 0.13012 0.69798 0.0
H878 H 0.21785 0.11988 0.68924 0.0
H879 H 0.21127 0.12295 0.70205 0.0
H880 H 0.15642 0.08639 0.69811 0.0
H881 H 0.11179 0.08582 0.69012 0.0
H882 H 0.98014 0.20079 0.7386 0.0
H883 H 0.97257 0.1736 0.72302 0.0
H884 H 0.04854 0.26005 0.71044 0.0
H885 H 0.05654 0.28743 0.72609 0.0
H886 H 0.95732 0.18966 0.7046 0.0
H887 H 0.07365 0.19284 0.70401 0.0
H888 H 0.05798 0.20041 0.71495 0.0
H889 H 0.07519 0.23032 0.70563 0.0
C890 C 0.99548 0.21397 0.73256 0.0
C891 C 0.01913 0.2462 0.7336 0.0
C892 C 0.99097 0.19845 0.72364 0.0
C893 C 0.01005 0.21474 0.71558 0.0
C894 C 0.0338 0.24691 0.7166 0.0
H895 H 0.0164 0.11188 0.66454 0.0
H896 H 0.01937 0.15844 0.67254 0.0
C897 C 0.03836 0.2625 0.72554 0.0
C898 C 0.00495 0.19762 0.7062 0.0
H899 H 0.03803 0.16591 0.6913 0.0
C900 C 0.97512 0.18481 0.70161 0.0
C901 C 0.0283 0.19164 0.70223 0.0
C902 C 0.06054 0.20428 0.70695 0.0
C903 C 0.96754 0.16504 0.69339 0.0
C904 C 0.99019 0.15745 0.68977 0.0
C905 C 0.02068 0.17184 0.69402 0.0
C906 C 0.98149 0.13083 0.68282 0.0
C907 C 0.93507 0.15187 0.68881 0.0
C908 C 0.9578 0.09989 0.68548 0.0
C909 C 0.95605 0.0734 0.68091 0.0
C910 C 0.97805 0.07737 0.67362 0.0
C911 C -0.00105 0.10816 0.67007 0.0
C912 C 0.00088 0.13479 0.67472 0.0
H913 H 0.92613 0.16878 0.68965 0.0
H914 H 0.93547 0.14678 0.68095 0.0
H915 H 0.91795 0.12937 0.69255 0.0
H916 H 0.94288 0.09603 0.69178 0.0
H917 H 0.93987 0.04991 0.68382 0.0
H918 H 0.96289 0.58481 0.56281 0.0
H919 H 0.94079 0.55615 0.54757 0.0
H920 H 0.85068 0.54948 0.5543 0.0
H921 H 0.87391 0.58069 0.56914 0.0
H922 H 0.90016 0.50078 0.54458 0.0
H923 H 0.85236 0.56919 0.52674 0.0
H924 H 0.87789 0.58438 0.53726 0.0
H925 H 0.83535 0.55836 0.53865 0.0
C926 C 0.93853 0.57771 0.5609 0.0
C927 C 0.92004 0.58494 0.56709 0.0
C928 C 0.92586 0.56128 0.55219 0.0
C929 C 0.89407 0.55086 0.5496 0.0
C930 C 0.87558 0.55816 0.55585 0.0
H931 H 0.7641 0.37921 0.52389 0.0
H932 H 0.80907 0.42232 0.53225 0.0
C933 C 0.88868 0.57567 0.56441 0.0
C934 C 0.87955 0.52985 0.54092 0.0
H935 H 0.82626 0.51272 0.52243 0.0
C936 C 0.8846 0.50398 0.53963 0.0
C937 C 0.85998 0.53414 0.53415 0.0
C938 C 0.85646 0.56329 0.53422 0.0
C939 C 0.86899 0.4813 0.53227 0.0
C940 C 0.84633 0.48344 0.52632 0.0
C941 C 0.84308 0.51052 0.5271 0.0
C942 C 0.82276 0.45601 0.52034 0.0
C943 C 0.87673 0.45503 0.53108 0.0
C944 C 0.81516 0.46015 0.51075 0.0
C945 C 0.78875 0.43529 0.50595 0.0
C946 C 0.76961 0.40607 0.51071 0.0
C947 C 0.77859 0.4014 0.52001 0.0
C948 C 0.80458 0.42609 0.52479 0.0
H949 H 0.90235 0.46406 0.53263 0.0
H950 H 0.86268 0.43579 0.53642 0.0
H951 H 0.8713 0.44482 0.52363 0.0
H952 H 0.82865 0.48306 0.50717 0.0
H953 H 0.78196 0.43971 0.49887 0.0
H954 H 0.50146 0.39793 0.57459 0.0
H955 H 0.53086 0.40582 0.55946 0.0
H956 H 0.44922 0.32392 0.54693 0.0
H957 H 0.4193 0.31615 0.56208 0.0
H958 H 0.54587 0.3643 0.55094 0.0
H959 H 0.47344 0.39126 0.52559 0.0
H960 H 0.46982 0.39206 0.53866 0.0
H961 H 0.45139 0.35467 0.53228 0.0
C962 C 0.48968 0.38157 0.56863 0.0
C963 C 0.45805 0.35635 0.56954 0.0
C964 C 0.5065 0.3862 0.55996 0.0
C965 C 0.4921 0.36584 0.55199 0.0
C966 C 0.46058 0.34041 0.55289 0.0
H967 H 0.57261 0.33365 0.501 0.0
H968 H 0.53434 0.33798 0.51153 0.0
C969 C 0.44364 0.33576 0.56159 0.0
C970 C 0.51102 0.37029 0.54302 0.0
H971 H 0.51474 0.38493 0.51853 0.0
C972 C 0.53915 0.36903 0.54388 0.0
C973 C 0.50213 0.37632 0.53378 0.0
C974 C 0.4727 0.37895 0.53249 0.0
C975 C 0.55844 0.37324 0.53578 0.0
C976 C 0.54976 0.37951 0.52655 0.0
C977 C 0.52152 0.38055 0.52563 0.0
C978 C 0.56928 0.38306 0.51782 0.0
C979 C 0.58768 0.37019 0.53714 0.0
C980 C 0.60095 0.40834 0.51725 0.0
C981 C 0.6228 0.40594 0.51118 0.0
C982 C 0.6131 0.37839 0.50558 0.0
C983 C 0.5805 0.35542 0.5051 0.0
C984 C 0.55867 0.35772 0.51121 0.0
H985 H 0.58751 0.35916 0.54424 0.0
H986 H 0.58954 0.3556 0.53123 0.0
H987 H 0.60932 0.39424 0.53687 0.0
H988 H 0.60954 0.42821 0.52226 0.0
H989 H 0.64789 0.42363 0.51182 0.0
H990 H 0.66543 0.1491 0.57187 0.0
H991 H 0.65794 0.16907 0.55634 0.0
H992 H 0.71808 0.13968 0.54211 0.0
H993 H 0.72578 0.11959 0.55769 0.0
H994 H 0.70806 0.21615 0.54374 0.0
H995 H 0.63256 0.09855 0.52579 0.0
H996 H 0.63734 0.10257 0.53885 0.0
H997 H 0.66924 0.10601 0.5314 0.0
C998 C 0.67725 0.14704 0.56546 0.0
C999 C 0.69625 0.13282 0.56602 0.0
C1000 C 0.67284 0.15836 0.55658 0.0
C1001 C 0.68707 0.15543 0.54805 0.0
C1002 C 0.70649 0.14172 0.54859 0.0
H1003 H 0.69461 0.26265 0.49643 0.0
H1004 H 0.7027 0.22431 0.50577 0.0
C1005 C 0.71109 0.13053 0.5575 0.0
C1006 C 0.68202 0.16764 0.53872 0.0
H1007 H 0.64232 0.14437 0.51697 0.0
C1008 C 0.69409 0.20052 0.53783 0.0
C1009 C 0.66359 0.1471 0.53105 0.0
C1010 C 0.64969 0.11153 0.53176 0.0
C1011 C 0.6877 0.21341 0.52958 0.0
C1012 C 0.66876 0.19288 0.52199 0.0
C1013 C 0.65712 0.16001 0.52276 0.0
C1014 C 0.65854 0.20556 0.5138 0.0
C1015 C 0.70024 0.24887 0.52918 0.0
C1016 C 0.62984 0.20572 0.51466 0.0
C1017 C 0.62522 0.2276 0.50933 0.0
C1018 C 0.6492 0.24944 0.50307 0.0
C1019 C 0.67553 0.24572 0.50108 0.0
C1020 C 0.68035 0.22405 0.50651 0.0
H1021 H 0.71298 0.26124 0.53595 0.0
H1022 H 0.71696 0.25944 0.52296 0.0
H1023 H 0.68028 0.25347 0.52799 0.0
H1024 H 0.61276 0.1917 0.52026 0.0
H1025 H 0.60494 0.2303 0.51108 0.0
H1026 H 0.86677 0.56293 0.61022 0.0
H1027 H 0.8369 0.53941 0.62522 0.0
H1028 H 0.92457 0.56594 0.64038 0.0
H1029 H 0.95479 0.58958 0.62535 0.0
H1030 H 0.83843 0.48981 0.63701 0.0
H1031 H 0.87753 0.60334 0.65707 0.0
H1032 H 0.88007 0.60204 0.64397 0.0
H1033 H 0.9077 0.59742 0.65147 0.0
C1034 C 0.87972 0.56358 0.61672 0.0
C1035 C 0.91313 0.57805 0.6166 0.0
C1036 C 0.86263 0.55025 0.62529 0.0
C1037 C 0.87859 0.5514 0.63393 0.0
C1038 C 0.91189 0.56527 0.63382 0.0
H1039 H 0.78084 0.44496 0.68619 0.0
H1040 H 0.82509 0.48567 0.67647 0.0
C1041 C 0.92905 0.57847 0.62521 0.0
C1042 C 0.85991 0.53719 0.64293 0.0
H1043 H 0.84003 0.55563 0.6649 0.0
C1044 C 0.83906 0.50414 0.64315 0.0
C1045 C 0.86081 0.55604 0.65092 0.0
C1046 C 0.88256 0.59173 0.65091 0.0
C1047 C 0.8186 0.48945 0.65107 0.0
C1048 C 0.81872 0.50835 0.65892 0.0
C1049 C 0.84013 0.54132 0.65886 0.0
C1050 C 0.79475 0.49371 0.66677 0.0
C1051 C 0.79619 0.45381 0.65088 0.0
C1052 C 0.76344 0.48663 0.66494 0.0
C1053 C 0.73823 0.46333 0.67043 0.0
C1054 C 0.74408 0.44702 0.67785 0.0
C1055 C 0.77575 0.45745 0.68058 0.0
C1056 C 0.80104 0.48054 0.67499 0.0
H1057 H 0.80157 0.44217 0.6448 0.0
H1058 H 0.79756 0.44298 0.65785 0.0
H1059 H 0.7713 0.4487 0.65003 0.0
H1060 H 0.75817 0.49654 0.65863 0.0
H1061 H 0.71402 0.45558 0.66816 0.0
H1062 H 0.4675 0.31551 0.6128 0.0
H1063 H 0.4905 0.30841 0.62776 0.0
H1064 H 0.4722 0.37595 0.6425 0.0
H1065 H 0.44909 0.3833 0.62748 0.0
H1066 H 0.54389 0.36051 0.63858 0.0
H1067 H 0.43246 0.29282 0.66034 0.0
H1068 H 0.43198 0.2943 0.6472 0.0
H1069 H 0.43957 0.3286 0.65418 0.0
C1070 C 0.46844 0.32896 0.61921 0.0
C1071 C 0.45657 0.35004 0.61896 0.0
C1072 C 0.48146 0.32477 0.62775 0.0
C1073 C 0.48261 0.34131 0.63625 0.0
C1074 C 0.47107 0.36262 0.63604 0.0
H1075 H 0.59325 0.35186 0.68742 0.0
H1076 H 0.55169 0.355 0.67817 0.0
C1077 C 0.45817 0.36699 0.62744 0.0
C1078 C 0.49733 0.33704 0.64515 0.0
H1079 H 0.48034 0.30124 0.66754 0.0
C1080 C 0.53008 0.3479 0.64496 0.0
C1081 C 0.47915 0.32055 0.65344 0.0
C1082 C 0.44378 0.30817 0.65387 0.0
C1083 C 0.54511 0.34216 0.65276 0.0
C1084 C 0.52681 0.32472 0.66091 0.0
C1085 C 0.49419 0.31457 0.66126 0.0
C1086 C 0.54165 0.31548 0.6687 0.0
C1087 C 0.58041 0.354 0.65212 0.0
C1088 C 0.54788 0.29072 0.66688 0.0
C1089 C 0.57168 0.28905 0.6721 0.0
C1090 C 0.58933 0.31197 0.67923 0.0
C1091 C 0.57972 0.33369 0.68203 0.0
C1092 C 0.55613 0.33566 0.6767 0.0
H1093 H 0.59188 0.37067 0.64593 0.0
H1094 H 0.59255 0.3663 0.65896 0.0
H1095 H 0.5841 0.33339 0.65115 0.0
H1096 H 0.53696 0.27498 0.66072 0.0
H1097 H 0.5788 0.27222 0.66977 0.0
H1098 H 0.66009 0.09073 0.62421 0.0
H1099 H 0.66667 0.11738 0.63991 0.0
H1100 H 0.74031 0.20573 0.62754 0.0
H1101 H 0.73426 0.17919 0.61191 0.0
H1102 H 0.7568 0.19181 0.64574 0.0
H1103 H 0.63658 0.1799 0.64666 0.0
H1104 H 0.63727 0.1435 0.64517 0.0
H1105 H 0.65289 0.17314 0.63573 0.0
C1106 C 0.67746 0.11591 0.62482 0.0
C1107 C 0.69649 0.13293 0.6168 0.0
C1108 C 0.68119 0.1311 0.6338 0.0
C1109 C 0.70382 0.16361 0.63488 0.0
C1110 C 0.72274 0.18061 0.62687 0.0
H1111 H 0.7627 0.32556 0.66766 0.0
H1112 H 0.76311 0.28202 0.65902 0.0
C1113 C 0.71911 0.16546 0.61793 0.0
C1114 C 0.70792 0.18029 0.6443 0.0
H1115 H 0.67114 0.20714 0.65958 0.0
C1116 C 0.73795 0.19485 0.64884 0.0
C1117 C 0.68323 0.18395 0.64841 0.0
C1118 C 0.65072 0.16954 0.64373 0.0
C1119 C 0.74432 0.21404 0.65715 0.0
C1120 C 0.72016 0.21913 0.66093 0.0
C1121 C 0.68962 0.20307 0.65672 0.0
C1122 C 0.72705 0.24478 0.66808 0.0
C1123 C 0.77708 0.22929 0.66165 0.0
C1124 C 0.7079 0.2386 0.6764 0.0
C1125 C 0.70795 0.26373 0.68144 0.0
C1126 C 0.72664 0.29518 0.67807 0.0
C1127 C 0.74828 0.30151 0.67044 0.0
C1128 C 0.7485 0.27655 0.66549 0.0
H1129 H 0.7882 0.21439 0.66049 0.0
H1130 H 0.79261 0.25273 0.65813 0.0
H1131 H 0.77625 0.23317 0.66959 0.0
H1132 H 0.69107 0.21426 0.6785 0.0
H1133 H 0.69075 0.25821 0.68723 0.0
H1134 H 0.46336 0.16846 0.11204 0.0
H1135 H 0.48378 0.19573 0.12758 0.0
H1136 H 0.46794 0.10799 0.14053 0.0
H1137 H 0.44772 0.0805 0.12492 0.0
H1138 H 0.4518 0.18129 0.14592 0.0
H1139 H 0.56174 0.17233 0.14711 0.0
H1140 H 0.53901 0.16556 0.13608 0.0
H1141 H 0.52454 0.13576 0.14546 0.0
C1142 C 0.46449 0.15499 0.11816 0.0
C1143 C 0.45416 0.12237 0.11723 0.0
C1144 C 0.47597 0.17057 0.12706 0.0
C1145 C 0.4775 0.15394 0.1352 0.0
C1146 C 0.46733 0.12137 0.1343 0.0
H1147 H 0.58777 0.25578 0.18654 0.0
H1148 H 0.54353 0.20986 0.17833 0.0
C1149 C 0.45581 0.10572 0.12538 0.0
C1150 C 0.49 0.17113 0.14455 0.0
H1151 H 0.55468 0.20093 0.15959 0.0
C1152 C 0.47408 0.18524 0.149 0.0
C1153 C 0.51884 0.17593 0.14864 0.0
C1154 C 0.53726 0.16183 0.14408 0.0
C1155 C 0.48696 0.20517 0.15716 0.0
C1156 C 0.5168 0.21159 0.16087 0.0
C1157 C 0.53172 0.1959 0.15679 0.0
C1158 C 0.53564 0.23824 0.16775 0.0
C1159 C 0.46886 0.2198 0.16157 0.0
C1160 C 0.54459 0.26943 0.16492 0.0
C1161 C 0.56972 0.29551 0.16959 0.0
C1162 C 0.5864 0.29091 0.17716 0.0
C1163 C 0.57503 0.25997 0.18079 0.0
C1164 C 0.54997 0.23372 0.17604 0.0
H1165 H 0.44272 0.20384 0.16066 0.0
H1166 H 0.47426 0.22488 0.16944 0.0
H1167 H 0.47562 0.24252 0.15776 0.0
H1168 H 0.53443 0.27368 0.15847 0.0
H1169 H 0.57823 0.31913 0.16661 0.0
H1170 H 0.95284 0.39102 0.12381 0.0
H1171 H 0.92506 0.38324 0.1394 0.0
H1172 H 0.84084 0.30301 0.12731 0.0
H1173 H 0.86836 0.3104 0.11182 0.0
H1174 H 0.86969 0.38428 0.14331 0.0
H1175 H 0.85275 0.26593 0.15255 0.0
H1176 H 0.88054 0.2913 0.14333 0.0
H1177 H 0.83877 0.26682 0.14053 0.0
C1178 C 0.92838 0.37178 0.12448 0.0
C1179 C 0.9128 0.3513 0.11659 0.0
C1180 C 0.91261 0.36727 0.1334 0.0
C1181 C 0.88115 0.34203 0.1346 0.0
C1182 C 0.8654 0.32205 0.12665 0.0
H1183 H 0.71516 0.2797 0.16528 0.0
H1184 H 0.76108 0.28289 0.157 0.0
C1185 C 0.88107 0.32655 0.11776 0.0
C1186 C 0.86386 0.33739 0.14393 0.0
H1187 H 0.81738 0.28027 0.16055 0.0
C1188 C 0.85887 0.36185 0.14724 0.0
C1189 C 0.84994 0.30814 0.14908 0.0
C1190 C 0.85604 0.28167 0.14625 0.0
C1191 C 0.83832 0.35701 0.15508 0.0
C1192 C 0.82281 0.32704 0.15986 0.0
C1193 C 0.82934 0.30324 0.15692 0.0
C1194 C 0.79596 0.31852 0.16669 0.0
C1195 C 0.83157 0.38324 0.1577 0.0
C1196 C 0.80017 0.33549 0.17539 0.0
C1197 C 0.77372 0.33342 0.18022 0.0
C1198 C 0.74295 0.31452 0.17634 0.0
C1199 C 0.73866 0.29452 0.1684 0.0
C1200 C 0.76493 0.29644 0.16363 0.0
H1201 H 0.84215 0.40325 0.1524 0.0
H1202 H 0.80546 0.37381 0.15805 0.0
H1203 H 0.84175 0.39289 0.16498 0.0
H1204 H 0.82394 0.35221 0.17798 0.0
H1205 H 0.77768 0.34917 0.1863 0.0
H1206 H 0.6458 0.58306 0.1246 0.0
H1207 H 0.65378 0.56301 0.14014 0.0
H1208 H 0.73176 0.55662 0.12758 0.0
H1209 H 0.72414 0.57675 0.11213 0.0
H1210 H 0.6512 0.50563 0.144 0.0
H1211 H 0.77125 0.6063 0.15264 0.0
H1212 H 0.74574 0.60912 0.1436 0.0
H1213 H 0.76918 0.59105 0.14061 0.0
C1214 C 0.66459 0.57731 0.12516 0.0
C1215 C 0.68436 0.58152 0.11714 0.0
C1216 C 0.66922 0.56602 0.13405 0.0
C1217 C 0.69389 0.55909 0.1351 0.0
C1218 C 0.71317 0.56268 0.12703 0.0
H1219 H 0.75448 0.45371 0.16525 0.0
H1220 H 0.75198 0.497 0.15711 0.0
C1221 C 0.70853 0.57385 0.11816 0.0
C1222 C 0.6986 0.54638 0.1444 0.0
H1223 H 0.7561 0.55639 0.16071 0.0
C1224 C 0.67385 0.51705 0.14781 0.0
C1225 C 0.72813 0.56145 0.1494 0.0
C1226 C 0.75498 0.59389 0.14644 0.0
C1227 C 0.67861 0.50116 0.15561 0.0
C1228 C 0.70881 0.51533 0.16024 0.0
C1229 C 0.73295 0.54559 0.1572 0.0
C1230 C 0.71712 0.49669 0.16698 0.0
C1231 C 0.65199 0.46825 0.15833 0.0
C1232 C 0.70041 0.48399 0.17574 0.0
C1233 C 0.70208 0.45927 0.18049 0.0
C1234 C 0.72033 0.44703 0.17647 0.0
C1235 C 0.74016 0.46269 0.16847 0.0
C1236 C 0.73863 0.48736 0.16378 0.0
H1237 H 0.63174 0.45898 0.15313 0.0
H1238 H 0.66088 0.4512 0.15861 0.0
H1239 H 0.64282 0.46904 0.16566 0.0
H1240 H 0.68414 0.49133 0.17844 0.0
H1241 H 0.68647 0.44752 0.18662 0.0
H1242 H 0.50175 0.13113 0.07195 0.0
H1243 H 0.52936 0.15188 0.05646 0.0
H1244 H 0.44181 0.13618 0.04339 0.0
H1245 H 0.41403 0.11572 0.05894 0.0
H1246 H 0.51603 0.1208 0.03817 0.0
H1247 H 0.50545 0.22978 0.0369 0.0
H1248 H 0.49822 0.20673 0.04788 0.0
H1249 H 0.46895 0.1924 0.03835 0.0
C1250 C 0.48841 0.13237 0.06581 0.0
C1251 C 0.45576 0.12204 0.06669 0.0
C1252 C 0.50418 0.14404 0.05694 0.0
C1253 C 0.48771 0.14573 0.04878 0.0
C1254 C 0.4551 0.13549 0.04963 0.0
H1255 H 0.58916 0.25637 0.99743 0.0
H1256 H 0.54361 0.21167 1.00563 0.0
C1257 C 0.43927 0.12383 0.05852 0.0
C1258 C 0.50507 0.15848 0.03946 0.0
H1259 H 0.53423 0.22305 0.02439 0.0
C1260 C 0.51967 0.14294 0.03507 0.0
C1261 C 0.50949 0.18714 0.03535 0.0
C1262 C 0.49494 0.20521 0.03986 0.0
C1263 C 0.53971 0.15606 0.02694 0.0
C1264 C 0.54568 0.1857 0.02319 0.0
C1265 C 0.52952 0.20021 0.02722 0.0
C1266 C 0.57233 0.20484 0.01634 0.0
C1267 C 0.55495 0.13844 0.02259 0.0
C1268 C 0.60363 0.21455 0.01927 0.0
C1269 C 0.6295 0.23996 0.01462 0.0
C1270 C 0.62456 0.25614 1.00695 0.0
C1271 C 0.59361 0.24403 1.00325 0.0
C1272 C 0.56756 0.2187 1.00799 0.0
H1273 H 0.53942 0.11227 0.02356 0.0
H1274 H 0.55995 0.14374 0.01472 0.0
H1275 H 0.57779 0.14577 0.0264 0.0
H1276 H 0.60803 0.20473 0.02577 0.0
H1277 H 0.65314 0.24904 0.01765 0.0
H1278 H 0.90464 0.39077 0.07182 0.0
H1279 H 0.88368 0.39771 0.05643 0.0
H1280 H 0.89823 0.3255 0.0432 0.0
H1281 H 0.91892 0.31809 0.05868 0.0
H1282 H 0.91469 0.41573 0.03815 0.0
H1283 H 0.80479 0.29596 0.03677 0.0
H1284 H 0.82791 0.31154 0.04776 0.0
H1285 H 0.84197 0.2967 0.03816 0.0
C1286 C 0.90309 0.3761 0.06567 0.0
C1287 C 0.91321 0.3537 0.06649 0.0
C1288 C 0.89129 0.38025 0.05686 0.0
C1289 C 0.88926 0.36205 0.04867 0.0
C1290 C 0.89919 0.33951 0.04945 0.0
H1291 H 0.77915 0.35522 0.99749 0.0
H1292 H 0.8233 0.35357 1.00564 0.0
C1293 C 0.91098 0.3353 0.0583 0.0
C1294 C 0.87659 0.36694 0.03939 0.0
H1295 H 0.81173 0.33206 0.02441 0.0
C1296 C 0.89239 0.3973 0.03505 0.0
C1297 C 0.84772 0.3428 0.03528 0.0
C1298 C 0.82938 0.30995 0.03973 0.0
C1299 C 0.87935 0.40457 0.027 0.0
C1300 C 0.8495 0.38101 0.02327 0.0
C1301 C 0.83471 0.3501 0.02723 0.0
C1302 C 0.83055 0.38889 0.0165 0.0
C1303 C 0.89725 0.43766 0.02272 0.0
C1304 C 0.82123 0.41059 0.01954 0.0
C1305 C 0.79611 0.41149 0.01492 0.0
C1306 C 0.77984 0.39073 1.00717 0.0
C1307 C 0.79156 0.37175 1.00337 0.0
C1308 C 0.81658 0.37058 1.00809 0.0
H1309 H 0.9234 0.44826 0.02366 0.0
H1310 H 0.89194 0.43758 0.01485 0.0
H1311 H 0.89017 0.45319 0.02659 0.0
H1312 H 0.83114 0.42457 0.02609 0.0
H1313 H 0.78734 0.42614 0.01802 0.0
H1314 H 0.64368 0.53384 0.07197 0.0
H1315 H 0.63684 0.50634 0.0565 0.0
H1316 H 0.7093 0.59403 0.04347 0.0
H1317 H 0.71659 0.62173 0.05902 0.0
H1318 H 0.61926 0.51983 0.03817 0.0
H1319 H 0.73897 0.53047 0.03702 0.0
H1320 H 0.72305 0.5375 0.048 0.0
H1321 H 0.7383 0.5669 0.0385 0.0
C1322 C 0.65841 0.54725 0.06585 0.0
C1323 C 0.68087 0.57991 0.06674 0.0
C1324 C 0.65432 0.53154 0.05699 0.0
C1325 C 0.67264 0.54808 0.04884 0.0
C1326 C 0.69519 0.5807 0.0497 0.0
H1327 H 0.68134 0.44689 0.99749 0.0
H1328 H 0.68261 0.49239 1.00571 0.0
C1329 C 0.69933 0.59648 0.05858 0.0
C1330 C 0.66798 0.53077 0.03952 0.0
H1331 H 0.70328 0.50163 0.02451 0.0
C1332 C 0.63776 0.51619 0.0351 0.0
C1333 C 0.69222 0.52635 0.03544 0.0
C1334 C 0.72493 0.54089 0.03998 0.0
C1335 C 0.63074 0.49618 0.02696 0.0
C1336 C 0.6544 0.49021 0.02325 0.0
C1337 C 0.68517 0.50634 0.02731 0.0
C1338 C 0.64672 0.46361 0.0164 0.0
C1339 C 0.5978 0.48098 0.02259 0.0
C1340 C 0.62482 0.4323 0.0193 0.0
C1341 C 0.62413 0.40646 0.01462 0.0
C1342 C 0.64531 0.41143 1.00697 0.0
C1343 C 0.66449 0.44242 1.00329 0.0
C1344 C 0.66545 0.46843 1.00806 0.0
H1345 H 0.58726 0.49648 0.02354 0.0
H1346 H 0.59814 0.47603 0.01471 0.0
H1347 H 0.58206 0.45811 0.02638 0.0
H1348 H 0.61052 0.42785 0.02579 0.0
H1349 H 0.60932 0.3828 0.01764 0.0
H1350 H 0.5648 0.86823 0.90747 0.0
H1351 H 0.54237 0.8388 0.89235 0.0
H1352 H 0.5669 0.92652 0.87752 0.0
H1353 H 0.58952 0.95631 0.89269 0.0
H1354 H 0.49214 0.83878 0.88084 0.0
H1355 H 0.60563 0.88233 0.8603 0.0
H1356 H 0.60466 0.88466 0.87341 0.0
H1357 H 0.59855 0.91156 0.86602 0.0
C1358 C 0.56532 0.8813 0.90101 0.0
C1359 C 0.57887 0.91459 0.90128 0.0
C1360 C 0.5526 0.86445 0.89237 0.0
C1361 C 0.55341 0.88053 0.88379 0.0
C1362 C 0.56652 0.91374 0.88403 0.0
H1363 H 0.44556 0.78189 0.83186 0.0
H1364 H 0.48581 0.82675 0.84148 0.0
C1365 C 0.57914 0.93065 0.89272 0.0
C1366 C 0.53938 0.86202 0.87475 0.0
H1367 H 0.55816 0.84423 0.85249 0.0
C1368 C 0.50651 0.84025 0.8746 0.0
C1369 C 0.55827 0.86399 0.86663 0.0
C1370 C 0.5938 0.88673 0.86654 0.0
C1371 C 0.49206 0.81994 0.86664 0.0
C1372 C 0.51101 0.82118 0.85865 0.0
C1373 C 0.54378 0.84348 0.85864 0.0
C1374 C 0.49673 0.79745 0.85072 0.0
C1375 C 0.45664 0.79647 0.86694 0.0
C1376 C 0.4914 0.76661 0.85229 0.0
C1377 C 0.46837 0.74104 0.84686 0.0
C1378 C 0.45055 0.74604 0.83975 0.0
C1379 C 0.45925 0.77745 0.83722 0.0
C1380 C 0.48207 0.80309 0.84276 0.0
H1381 H 0.44483 0.80066 0.87323 0.0
H1382 H 0.44517 0.79799 0.86013 0.0
H1383 H 0.45251 0.77185 0.86748 0.0
H1384 H 0.50245 0.76182 0.85841 0.0
H1385 H 0.46194 0.71703 0.84898 0.0
H1386 H 0.08691 0.64819 0.89408 0.0
H1387 H 0.11866 0.65472 0.87941 0.0
H1388 H 0.20218 0.72949 0.89362 0.0
H1389 H 0.17094 0.7229 0.90825 0.0
H1390 H 0.15563 0.71078 0.86762 0.0
H1391 H 0.23041 0.66713 0.88437 0.0
H1392 H 0.19352 0.66014 0.88976 0.0
H1393 H 0.22955 0.69792 0.89135 0.0
C1394 C 0.11212 0.66575 0.8941 0.0
C1395 C 0.1265 0.68479 0.90236 0.0
C1396 C 0.13015 0.66961 0.8857 0.0
C1397 C 0.16282 0.6924 0.88546 0.0
C1398 C 0.17711 0.71144 0.89369 0.0
H1399 H 0.32691 0.76187 0.85027 0.0
H1400 H 0.28385 0.75938 0.86012 0.0
C1401 C 0.1592 0.70762 0.90206 0.0
C1402 C 0.18241 0.69644 0.8767 0.0
H1403 H 0.2492 0.69567 0.86945 0.0
C1404 C 0.17589 0.70715 0.86796 0.0
C1405 C 0.20866 0.69144 0.87715 0.0
C1406 C 0.21582 0.67821 0.88613 0.0
C1407 C 0.19592 0.71435 0.85978 0.0
C1408 C 0.22292 0.71069 0.86041 0.0
C1409 C 0.2287 0.69893 0.86904 0.0
C1410 C 0.24627 0.71919 0.85239 0.0
C1411 C 0.18886 0.72676 0.85062 0.0
C1412 C 0.23915 0.69894 0.84432 0.0
C1413 C 0.26385 0.70072 0.83855 0.0
C1414 C 0.2958 0.72236 0.84095 0.0
C1415 C 0.30246 0.74512 0.84825 0.0
C1416 C 0.27787 0.74355 0.85392 0.0
H1417 H 0.16874 0.73125 0.8516 0.0
H1418 H 0.21036 0.74923 0.84829 0.0
H1419 H 0.1827 0.7091 0.84468 0.0
H1420 H 0.21494 0.67978 0.84307 0.0
H1421 H 0.25815 0.68262 0.83306 0.0
H1422 H 0.31054 0.46053 0.90476 0.0
H1423 H 0.30364 0.48045 0.88917 0.0
H1424 H 0.38194 0.47355 0.87711 0.0
H1425 H 0.38917 0.45364 0.89279 0.0
H1426 H 0.38463 0.53118 0.87306 0.0
H1427 H 0.26519 0.43 0.86408 0.0
H1428 H 0.26679 0.44532 0.87608 0.0
H1429 H 0.29048 0.42739 0.87324 0.0
C1430 C 0.32638 0.46328 0.89881 0.0
C1431 C 0.3504 0.45548 0.90001 0.0
C1432 C 0.32215 0.47434 0.88986 0.0
C1433 C 0.34173 0.47771 0.8819 0.0
C1434 C 0.36628 0.4707 0.88313 0.0
H1435 H 0.35099 0.58889 0.83009 0.0
H1436 H 0.35316 0.54515 0.83838 0.0
C1437 C 0.37048 0.4595 0.89209 0.0
C1438 C 0.33738 0.49024 0.87251 0.0
H1439 H 0.28051 0.47973 0.85588 0.0
C1440 C 0.36217 0.51962 0.86914 0.0
C1441 C 0.30809 0.47498 0.86739 0.0
C1442 C 0.28123 0.44251 0.87032 0.0
C1443 C 0.35764 0.53537 0.86126 0.0
C1444 C 0.32764 0.52099 0.85649 0.0
C1445 C 0.3035 0.49068 0.8595 0.0
C1446 C 0.31946 0.53947 0.84964 0.0
C1447 C 0.38423 0.56835 0.85859 0.0
C1448 C 0.29761 0.54855 0.85267 0.0
C1449 C 0.29615 0.57317 0.84792 0.0
C1450 C 0.31642 0.58901 0.84002 0.0
C1451 C 0.33503 0.57698 0.83614 0.0
C1452 C 0.33661 0.55231 0.84096 0.0
H1453 H 0.40422 0.57777 0.86389 0.0
H1454 H 0.39381 0.56761 0.85132 0.0
H1455 H 0.37518 0.58526 0.85819 0.0
H1456 H 0.28391 0.53879 0.85929 0.0
H1457 H 0.28156 0.58199 0.85103 0.0
H1458 H 0.53672 0.91575 0.94695 0.0
H1459 H 0.51009 0.89623 0.9626 0.0
H1460 H 0.59447 0.90003 0.97421 0.0
H1461 H 0.62136 0.91946 0.95846 0.0
H1462 H 0.53882 0.8435 0.97829 0.0
H1463 H 0.52395 0.94577 0.98788 0.0
H1464 H 0.50939 0.93092 0.97589 0.0
H1465 H 0.5512 0.94803 0.97853 0.0
C1466 C 0.54966 0.91242 0.95282 0.0
C1467 C 0.58116 0.91915 0.95146 0.0
C1468 C 0.53452 0.90161 0.9618 0.0
C1469 C 0.55057 0.89747 0.96966 0.0
C1470 C 0.58181 0.9035 0.96829 0.0
H1471 H 0.447 0.78438 0.02096 0.0
H1472 H 0.49359 0.82882 0.01304 0.0
C1473 C 0.59706 0.91442 0.95928 0.0
C1474 C 0.53372 0.88492 0.97906 0.0
H1475 H 0.48832 0.89585 0.99591 0.0
C1476 C 0.52842 0.85526 0.98231 0.0
C1477 C 0.52034 0.90044 0.98432 0.0
C1478 C 0.52678 0.93322 0.98153 0.0
C1479 C 0.50799 0.83948 0.99018 0.0
C1480 C 0.49298 0.85412 0.99508 0.0
C1481 C 0.4999 0.88471 0.9922 0.0
C1482 C 0.46606 0.83566 1.00189 0.0
C1483 C 0.50077 0.8062 0.9927 0.0
C1484 C 0.43517 0.82707 0.99885 0.0
C1485 C 0.40869 0.80206 1.00341 0.0
C1486 C 0.41269 0.78533 0.01111 0.0
C1487 C 0.44328 0.79697 0.01507 0.0
C1488 C 0.46993 0.82205 0.01045 0.0
H1489 H 0.51097 0.79672 0.98732 0.0
H1490 H 0.51104 0.80645 0.99994 0.0
H1491 H 0.47461 0.78961 0.99308 0.0
H1492 H 0.43156 0.83743 0.99233 0.0
H1493 H 0.38533 0.79353 1.00023 0.0
H1494 H 0.0695 0.63935 0.956 0.0
H1495 H 0.08957 0.63176 0.97149 0.0
H1496 H 0.18297 0.71118 0.96468 0.0
H1497 H 0.16189 0.72039 0.94959 0.0
H1498 H 0.12673 0.61347 0.97512 0.0
H1499 H 0.18232 0.73205 0.99197 0.0
H1500 H 0.15732 0.72255 0.98135 0.0
H1501 H 0.19941 0.7364 0.98014 0.0
C1502 C 0.09417 0.65554 0.95795 0.0
C1503 C 0.11421 0.68052 0.95168 0.0
C1504 C 0.10568 0.65118 0.9668 0.0
C1505 C 0.13779 0.67114 0.96944 0.0
C1506 C 0.15784 0.69614 0.96309 0.0
H1507 H 0.25959 0.62156 0.99538 0.0
H1508 H 0.21417 0.6198 0.98753 0.0
C1509 C 0.14596 0.70123 0.95439 0.0
C1510 C 0.15086 0.66391 0.97832 0.0
H1511 H 0.20514 0.69905 0.99663 0.0
C1512 C 0.14329 0.63223 0.97994 0.0
C1513 C 0.17163 0.68778 0.98494 0.0
C1514 C 0.17775 0.72147 0.98456 0.0
C1515 C 0.15768 0.62431 0.98745 0.0
C1516 C 0.18166 0.64888 0.9932 0.0
C1517 C 0.18731 0.68011 0.99212 0.0
C1518 C 0.20439 0.64379 0.99917 0.0
C1519 C 0.14726 0.58963 0.98899 0.0
C1520 C 0.2141 0.65729 1.00851 0.0
C1521 C 0.24084 0.6588 0.013 0.0
C1522 C 0.25827 0.64702 1.00815 0.0
C1523 C 0.24662 0.63084 0.99929 0.0
C1524 C 0.22032 0.6296 0.9948 0.0
H1525 H 0.1212 0.57439 0.98772 0.0
H1526 H 0.15947 0.58233 0.98363 0.0
H1527 H 0.15275 0.58501 0.99646 0.0
H1528 H 0.20226 0.66843 0.01204 0.0
H1529 H 0.24945 0.67164 0.01979 0.0
H1530 H 0.39497 0.50313 0.94542 0.0
H1531 H 0.40278 0.5311 0.96084 0.0
H1532 H 0.32249 0.44742 0.97317 0.0
H1533 H 0.31432 0.4192 0.95766 0.0
H1534 H 0.32185 0.50315 0.9769 0.0
H1535 H 0.44 0.5194 0.98612 0.0
H1536 H 0.43897 0.53312 0.97407 0.0
H1537 H 0.41438 0.49146 0.97698 0.0
C1538 C 0.3789 0.49064 0.9514 0.0
C1539 C 0.35402 0.45893 0.95032 0.0
C1540 C 0.38363 0.50656 0.96025 0.0
C1541 C 0.36375 0.49109 0.96824 0.0
C1542 C 0.33839 0.45966 0.96714 0.0
H1543 H 0.35674 0.59465 0.01986 0.0
H1544 H 0.35364 0.54843 0.01153 0.0
C1545 C 0.33365 0.44364 0.95826 0.0
C1546 C 0.3686 0.5086 0.97754 0.0
H1547 H 0.42583 0.55477 0.99416 0.0
C1548 C 0.34428 0.51384 0.98083 0.0
C1549 C 0.39785 0.52237 0.98268 0.0
C1550 C 0.42417 0.51604 0.97985 0.0
C1551 C 0.34925 0.53443 0.98866 0.0
C1552 C 0.37919 0.5497 0.99347 0.0
C1553 C 0.40287 0.54298 0.99052 0.0
C1554 C 0.38781 0.57644 1.00034 0.0
C1555 C 0.32317 0.54145 0.99127 0.0
C1556 C 0.41023 0.60746 0.99737 0.0
C1557 C 0.41223 0.63374 1.00215 0.0
C1558 C 0.3919 0.62944 0.01 0.0
C1559 C 0.37271 0.59864 0.01383 0.0
C1560 C 0.3706 0.5722 0.00899 0.0
H1561 H 0.3033 0.53121 0.98591 0.0
H1562 H 0.31324 0.53108 0.99851 0.0
H1563 H 0.33284 0.56758 0.99168 0.0
H1564 H 0.42401 0.61134 0.99078 0.0
H1565 H 0.42735 0.65726 0.99909 0.0
H1566 H 0.1507 0.44577 0.45274 0.0
H1567 H 0.17778 0.48058 0.46667 0.0
H1568 H 0.13278 0.53563 0.46008 0.0
H1569 H 0.10671 0.50175 0.446 0.0
H1570 H 0.19293 0.57365 0.46336 0.0
H1571 H 0.14625 0.48528 0.49319 0.0
H1572 H 0.16486 0.47413 0.48395 0.0
H1573 H 0.12966 0.47606 0.48106 0.0
C1574 C 0.14658 0.46528 0.45429 0.0
C1575 C 0.12671 0.47112 0.44825 0.0
C1576 C 0.16174 0.48493 0.46232 0.0
C1577 C 0.1568 0.51037 0.46458 0.0
C1578 C 0.13684 0.51608 0.45855 0.0
H1579 H 0.24734 0.62956 0.51709 0.0
H1580 H 0.20496 0.59343 0.50574 0.0
C1581 C 0.12204 0.49674 0.45047 0.0
C1582 C 0.17424 0.53251 0.47275 0.0
H1583 H 0.19401 0.5354 0.49678 0.0
C1584 C 0.19267 0.56524 0.47069 0.0
C1585 C 0.17349 0.52183 0.4824 0.0
C1586 C 0.1522 0.48744 0.48531 0.0
C1587 C 0.21168 0.58723 0.47785 0.0
C1588 C 0.21302 0.57619 0.48727 0.0
C1589 C 0.19323 0.54379 0.48952 0.0
C1590 C 0.23765 0.59733 0.49438 0.0
C1591 C 0.23077 0.62211 0.47517 0.0
C1592 C 0.26982 0.6107 0.49185 0.0
C1593 C 0.29367 0.63117 0.4982 0.0
C1594 C 0.28611 0.63876 0.50732 0.0
C1595 C 0.25386 0.62454 0.51005 0.0
C1596 C 0.22972 0.60391 0.5036 0.0
H1597 H 0.21933 0.62789 0.46912 0.0
H1598 H 0.23359 0.63756 0.48149 0.0
H1599 H 0.25484 0.62782 0.47268 0.0
H1600 H 0.27654 0.60516 0.48492 0.0
H1601 H 0.31816 0.64058 0.49598 0.0
H1602 H 0.5283 0.65937 0.4432 0.0
H1603 H 0.4993 0.65431 0.45823 0.0
H1604 H 0.58836 0.70673 0.47373 0.0
H1605 H 0.61766 0.71256 0.45859 0.0
H1606 H 0.49936 0.62469 0.47515 0.0
H1607 H 0.54217 0.75299 0.48201 0.0
H1608 H 0.54811 0.73883 0.47051 0.0
H1609 H 0.57281 0.74282 0.48077 0.0
C1610 C 0.54176 0.67017 0.44978 0.0
C1611 C 0.57528 0.68654 0.4497 0.0
C1612 C 0.52514 0.66713 0.45838 0.0
C1613 C 0.5416 0.68031 0.46711 0.0
C1614 C 0.57513 0.69686 0.46706 0.0
H1615 H 0.4464 0.67991 0.52204 0.0
H1616 H 0.48713 0.67899 0.51156 0.0
C1617 C 0.59184 0.70012 0.45841 0.0
C1618 C 0.52323 0.67592 0.47621 0.0
H1619 H 0.5058 0.71607 0.49326 0.0
C1620 C 0.50105 0.64471 0.47917 0.0
C1621 C 0.52558 0.70202 0.48151 0.0
C1622 C 0.54824 0.73607 0.47853 0.0
C1623 C 0.48032 0.63891 0.48702 0.0
C1624 C 0.48171 0.66497 0.49203 0.0
C1625 C 0.50498 0.69614 0.48943 0.0
C1626 C 0.45637 0.66067 0.49894 0.0
C1627 C 0.45642 0.60496 0.48974 0.0
C1628 C 0.42556 0.65003 0.49538 0.0
C1629 C 0.40262 0.65087 0.50127 0.0
C1630 C 0.40994 0.66211 0.51088 0.0
C1631 C 0.44011 0.6708 0.51469 0.0
C1632 C 0.46338 0.67048 0.5087 0.0
H1633 H 0.46411 0.58815 0.4872 0.0
H1634 H 0.4527 0.60241 0.49774 0.0
H1635 H 0.4332 0.59806 0.48625 0.0
H1636 H 0.41977 0.64277 0.48785 0.0
H1637 H 0.37954 0.6441 0.49816 0.0
H1638 H 0.39665 0.91133 0.44317 0.0
H1639 H 0.40286 0.88466 0.45738 0.0
H1640 H 0.31244 0.86723 0.46855 0.0
H1641 H 0.30593 0.8939 0.45427 0.0
H1642 H 0.40312 0.89952 0.47776 0.0
H1643 H 0.30498 0.77807 0.46785 0.0
H1644 H 0.32227 0.81044 0.45919 0.0
H1645 H 0.29498 0.80903 0.46826 0.0
C1646 C 0.37798 0.90172 0.44862 0.0
C1647 C 0.35066 0.90451 0.44756 0.0
C1648 C 0.38168 0.88665 0.45677 0.0
C1649 C 0.35808 0.87385 0.46399 0.0
C1650 C 0.33081 0.8767 0.463 0.0
H1651 H 0.37258 0.78888 0.51914 0.0
H1652 H 0.36929 0.82589 0.50759 0.0
C1653 C 0.32712 0.89191 0.45485 0.0
C1654 C 0.36198 0.85697 0.47241 0.0
H1655 H 0.33301 0.78292 0.48231 0.0
C1656 C 0.38764 0.87408 0.47883 0.0
C1657 C 0.34187 0.82376 0.47373 0.0
C1658 C 0.31458 0.80406 0.46688 0.0
C1659 C 0.39395 0.85869 0.48646 0.0
C1660 C 0.37408 0.82545 0.48768 0.0
C1661 C 0.34812 0.80848 0.48137 0.0
C1662 C 0.38091 0.80712 0.49496 0.0
C1663 C 0.4224 0.87774 0.49297 0.0
C1664 C 0.38947 0.7851 0.49171 0.0
C1665 C 0.39143 0.76417 0.49824 0.0
C1666 C 0.38461 0.76463 0.50816 0.0
C1667 C 0.3781 0.7881 0.51154 0.0
C1668 C 0.37612 0.80916 0.50496 0.0
H1669 H 0.43758 0.90265 0.49037 0.0
H1670 H 0.41406 0.87836 0.50044 0.0
H1671 H 0.43713 0.86619 0.49339 0.0
H1672 H 0.39346 0.78329 0.48403 0.0
H1673 H 0.39695 0.74668 0.49544 0.0
H1674 H 0.1677 0.46631 0.40539 0.0
H1675 H 0.19642 0.48962 0.39029 0.0
H1676 H 0.111 0.48004 0.37742 0.0
H1677 H 0.08169 0.45618 0.39263 0.0
H1678 H 0.14786 0.45987 0.36508 0.0
H1679 H 0.22183 0.58056 0.38089 0.0
H1680 H 0.22156 0.54954 0.38807 0.0
H1681 H 0.18525 0.55045 0.38648 0.0
C1682 C 0.15494 0.46926 0.39939 0.0
C1683 C 0.12246 0.45967 0.40025 0.0
C1684 C 0.17143 0.48258 0.39075 0.0
C1685 C 0.15593 0.4868 0.38277 0.0
C1686 C 0.12339 0.47701 0.38352 0.0
H1687 H 0.25156 0.59178 0.33011 0.0
H1688 H 0.20744 0.55166 0.34001 0.0
C1689 C 0.10677 0.46362 0.39222 0.0
C1690 C 0.17438 0.50214 0.3738 0.0
H1691 H 0.24024 0.57021 0.36601 0.0
C1692 C 0.16778 0.48415 0.3652 0.0
C1693 C 0.20022 0.53386 0.37397 0.0
C1694 C 0.20752 0.55487 0.38281 0.0
C1695 C 0.18747 0.49671 0.35693 0.0
C1696 C 0.2142 0.52781 0.35733 0.0
C1697 C 0.21992 0.54614 0.36578 0.0
C1698 C 0.23766 0.54213 0.3493 0.0
C1699 C 0.1805 0.47648 0.34794 0.0
C1700 C 0.26887 0.54843 0.35085 0.0
C1701 C 0.29398 0.57129 0.34523 0.0
C1702 C 0.28823 0.58817 0.33798 0.0
C1703 C 0.25655 0.57873 0.33555 0.0
C1704 C 0.23134 0.55598 0.34126 0.0
H1705 H 0.15963 0.45214 0.34894 0.0
H1706 H 0.1757 0.48811 0.34174 0.0
H1707 H 0.20167 0.47454 0.34601 0.0
H1708 H 0.27424 0.53807 0.35703 0.0
H1709 H 0.31821 0.57836 0.34729 0.0
H1710 H 0.57118 0.72592 0.40504 0.0
H1711 H 0.54807 0.73242 0.39006 0.0
H1712 H 0.55134 0.65316 0.37719 0.0
H1713 H 0.57497 0.64662 0.39224 0.0
H1714 H 0.57322 0.70963 0.3646 0.0
H1715 H 0.45522 0.66964 0.38151 0.0
H1716 H 0.48796 0.70027 0.38829 0.0
H1717 H 0.4845 0.66181 0.38692 0.0
C1718 C 0.56688 0.70972 0.39906 0.0
C1719 C 0.57459 0.68552 0.39987 0.0
C1720 C 0.55371 0.71352 0.39049 0.0
C1721 C 0.54775 0.69311 0.38255 0.0
C1722 C 0.55575 0.66912 0.38325 0.0
H1723 H 0.44125 0.6805 0.33027 0.0
H1724 H 0.48205 0.67811 0.34018 0.0
C1725 C 0.569 0.66528 0.39186 0.0
C1726 C 0.53229 0.69664 0.3737 0.0
H1727 H 0.46521 0.69661 0.36633 0.0
C1728 C 0.54946 0.70645 0.36491 0.0
C1729 C 0.50123 0.69223 0.37412 0.0
C1730 C 0.48099 0.68011 0.38319 0.0
C1731 C 0.53675 0.71335 0.35665 0.0
C1732 C 0.50631 0.71032 0.35726 0.0
C1733 C 0.48882 0.69941 0.36594 0.0
C1734 C 0.49162 0.71858 0.34915 0.0
C1735 C 0.55614 0.72481 0.34744 0.0
C1736 C 0.4851 0.74336 0.35051 0.0
C1737 C 0.4618 0.74465 0.3449 0.0
C1738 C 0.44474 0.7212 0.33785 0.0
C1739 C 0.45441 0.69912 0.33557 0.0
C1740 C 0.47759 0.69761 0.34128 0.0
H1741 H 0.58061 0.72879 0.34841 0.0
H1742 H 0.54402 0.70685 0.34161 0.0
H1743 H 0.5578 0.74738 0.34497 0.0
H1744 H 0.49563 0.75973 0.35656 0.0
H1745 H 0.45459 0.76173 0.34684 0.0
H1746 H 0.30387 0.86299 0.40398 0.0
H1747 H 0.29818 0.83406 0.38891 0.0
H1748 H 0.37871 0.91757 0.37662 0.0
H1749 H 0.38448 0.94706 0.39177 0.0
H1750 H 0.32226 0.88299 0.36371 0.0
H1751 H 0.36184 0.80494 0.38061 0.0
H1752 H 0.33108 0.80678 0.38733 0.0
H1753 H 0.36963 0.84204 0.38605 0.0
C1754 C 0.32052 0.87526 0.3981 0.0
C1755 C 0.34485 0.90723 0.3991 0.0
C1756 C 0.31717 0.85868 0.38948 0.0
C1757 C 0.33815 0.87361 0.38168 0.0
C1758 C 0.36229 0.90566 0.38257 0.0
H1759 H 0.3528 0.7805 0.32965 0.0
H1760 H 0.35492 0.82385 0.33938 0.0
C1761 C 0.36569 0.92236 0.39124 0.0
C1762 C 0.33508 0.85499 0.37279 0.0
H1763 H 0.33545 0.78823 0.36533 0.0
C1764 C 0.3255 0.86249 0.364 0.0
C1765 C 0.33956 0.82842 0.37319 0.0
C1766 C 0.35139 0.82017 0.38227 0.0
C1767 C 0.31886 0.84306 0.3557 0.0
C1768 C 0.32191 0.81569 0.35628 0.0
C1769 C 0.33264 0.80901 0.36497 0.0
C1770 C 0.31377 0.79282 0.34816 0.0
C1771 C 0.30763 0.85108 0.34647 0.0
C1772 C 0.28868 0.7614 0.34943 0.0
C1773 C 0.28755 0.73672 0.34393 0.0
C1774 C 0.31145 0.74315 0.33706 0.0
C1775 C 0.33383 0.77502 0.33481 0.0
C1776 C 0.33519 0.7998 0.34042 0.0
H1777 H 0.30406 0.87179 0.34741 0.0
H1778 H 0.3255 0.85672 0.34063 0.0
H1779 H 0.28487 0.83016 0.34403 0.0
H1780 H 0.27198 0.75554 0.35539 0.0
H1781 H 0.27024 0.71232 0.34584 0.0
H1782 H 0.31621 0.0304 0.11375 0.0
H1783 H 0.27323 0.03235 0.1225 0.0
H1784 H 0.28115 0.10542 0.10292 0.0
H1785 H 0.32422 0.10371 0.09414 0.0
H1786 H 0.27665 0.08954 0.1316 0.0
H1787 H 0.18468 0.03371 0.10263 0.0
H1788 H 0.2196 0.02957 0.10307 0.0
H1789 H 0.2228 0.06602 0.0988 0.0
C1790 C 0.30858 0.04665 0.11124 0.0
C1791 C 0.32345 0.06676 0.10321 0.0
C1792 C 0.28419 0.04788 0.11629 0.0
C1793 C 0.274 0.06896 0.11334 0.0
C1794 C 0.28854 0.08881 0.10527 0.0
H1795 H 0.11776 0.09587 0.12891 0.0
H1796 H 0.16889 0.10435 0.12302 0.0
C1797 C 0.31308 0.08776 0.10025 0.0
C1798 C 0.24812 0.0702 0.11869 0.0
H1799 H 0.17165 0.05444 0.11623 0.0
C1800 C 0.25363 0.08186 0.12827 0.0
C1801 C 0.2182 0.06011 0.11432 0.0
C1802 C 0.21069 0.04639 0.10417 0.0
C1803 C 0.23011 0.08439 0.13353 0.0
C1804 C 0.20016 0.0744 0.12914 0.0
C1805 C 0.19469 0.06242 0.11958 0.0
C1806 C 0.17368 0.0756 0.1342 0.0
C1807 C 0.2378 0.0984 0.14364 0.0
C1808 C 0.16019 0.05813 0.14279 0.0
C1809 C 0.13114 0.05385 0.1463 0.0
C1810 C 0.11495 0.0664 0.14114 0.0
C1811 C 0.12976 0.08594 0.13302 0.0
C1812 C 0.1589 0.09063 0.12962 0.0
H1813 H 0.26396 0.11325 0.1448 0.0
H1814 H 0.22675 0.11323 0.14504 0.0
H1815 H 0.22827 0.07875 0.14905 0.0
H1816 H 0.17079 0.04585 0.14637 0.0
H1817 H 0.12002 0.03832 0.1525 0.0
H1818 H 0.00616 0.31214 0.1148 0.0
H1819 H 0.0046 0.26916 0.12447 0.0
H1820 H 0.93814 0.19994 0.10411 0.0
H1821 H 0.93884 0.24292 0.09454 0.0
H1822 H 0.91928 0.18242 0.12282 0.0
H1823 H 0.04674 0.21772 0.11909 0.0
H1824 H 0.04099 0.24874 0.12394 0.0
H1825 H 0.02856 0.23492 0.11169 0.0
C1826 C 0.99154 0.28781 0.1123 0.0
C1827 C 0.97282 0.28094 0.10385 0.0
C1828 C 0.99073 0.26323 0.11784 0.0
C1829 C 0.97161 0.2313 0.11496 0.0
C1830 C 0.95314 0.2244 0.10646 0.0
H1831 H 0.94379 0.04978 0.1295 0.0
H1832 H 0.9363 0.09376 0.12445 0.0
C1833 C 0.95371 0.24898 0.10096 0.0
C1834 C 0.9702 0.20504 0.12093 0.0
H1835 H 0.01592 0.17596 0.13013 0.0
C1836 C 0.94044 0.18105 0.12442 0.0
C1837 C -0.00218 0.2033 0.12309 0.0
C1838 C 0.03028 0.22736 0.11918 0.0
C1839 C 0.93753 0.15526 0.12991 0.0
C1840 C 0.96506 0.15336 0.13194 0.0
C1841 C 0.99489 0.17771 0.12868 0.0
C1842 C 0.96328 0.12465 0.13639 0.0
C1843 C 0.90503 0.13011 0.13345 0.0
C1844 C 0.97997 0.12694 0.145 0.0
C1845 C 0.98394 0.10152 0.14799 0.0
C1846 C 0.97189 0.07385 0.14226 0.0
C1847 C 0.95322 0.0708 0.13406 0.0
C1848 C 0.94888 0.09592 0.13117 0.0
H1849 H 0.88816 0.13924 0.13371 0.0
H1850 H 0.89515 0.10952 0.12838 0.0
H1851 H 0.90653 0.12143 0.1408 0.0
H1852 H 0.99143 0.149 0.14909 0.0
H1853 H -0.00122 0.10468 0.15426 0.0
H1854 H 0.72729 0.71796 0.11422 0.0
H1855 H 0.77199 0.7613 0.12305 0.0
H1856 H 0.83817 0.75667 0.10314 0.0
H1857 H 0.79364 0.71329 0.09427 0.0
H1858 H 0.82655 0.75975 0.13198 0.0
H1859 H 0.86122 0.85209 0.10323 0.0
H1860 H 0.82246 0.81634 0.10356 0.0
H1861 H 0.85653 0.81469 0.09926 0.0
C1862 C 0.75135 0.72639 0.11166 0.0
C1863 C 0.75694 0.71237 0.1035 0.0
C1864 C 0.77684 0.75099 0.11675 0.0
C1865 C 0.80833 0.76222 0.11373 0.0
C1866 C 0.814 0.7485 0.10554 0.0
H1867 H 0.9914 0.92023 0.12926 0.0
H1868 H 0.94881 0.86871 0.12345 0.0
C1869 C 0.78854 0.72377 0.10047 0.0
C1870 C 0.83533 0.78837 0.11912 0.0
H1871 H 0.89555 0.86541 0.11675 0.0
C1872 C 0.84169 0.78292 0.12868 0.0
C1873 C 0.85488 0.81851 0.11479 0.0
C1874 C 0.84841 0.82602 0.10468 0.0
C1875 C 0.8677 0.80669 0.13396 0.0
C1876 C 0.88742 0.8368 0.1296 0.0
C1877 C 0.88067 0.84223 0.12007 0.0
C1878 C 0.91515 0.86347 0.13465 0.0
C1879 C 0.87425 0.79909 0.14405 0.0
C1880 C 0.91112 0.87683 0.14324 0.0
C1881 C 0.93586 0.90611 0.14671 0.0
C1882 C 0.96461 0.92262 0.14151 0.0
C1883 C 0.96944 0.90795 0.13341 0.0
C1884 C 0.94504 0.8786 0.13005 0.0
H1885 H 0.863 0.77296 0.14521 0.0
H1886 H 0.90028 0.8104 0.1454 0.0
H1887 H 0.86415 0.80846 0.14949 0.0
H1888 H 0.88817 0.86593 0.14685 0.0
H1889 H 0.93139 0.91714 0.1529 0.0
H1890 H 0.03067 0.32126 0.40327 0.0
H1891 H 0.03196 0.27801 0.39452 0.0
H1892 H 0.10244 0.2828 0.41462 0.0
H1893 H 0.10131 0.32612 0.42344 0.0
H1894 H 0.08741 0.27964 0.38563 0.0
H1895 H 0.03059 0.18737 0.41446 0.0
H1896 H 0.02777 0.22306 0.41425 0.0
H1897 H 0.06373 0.2248 0.41837 0.0
C1898 C 0.04621 0.31289 0.4059 0.0
C1899 C 0.06573 0.32696 0.4141 0.0
C1900 C 0.04706 0.28832 0.40085 0.0
C1901 C 0.0672 0.27713 0.40394 0.0
C1902 C 0.0865 0.29089 0.41217 0.0
H1903 H 0.09059 0.11905 0.38775 0.0
H1904 H 0.10013 0.17042 0.39377 0.0
C1905 C 0.08579 0.3156 0.41721 0.0
C1906 C 0.06804 0.25109 0.39854 0.0
H1907 H 0.05098 0.17413 0.40081 0.0
C1908 C 0.07945 0.25652 0.38892 0.0
C1909 C 0.05755 0.22099 0.40285 0.0
C1910 C 0.04396 0.21345 0.41302 0.0
C1911 C 0.08132 0.23278 0.38357 0.0
C1912 C 0.07093 0.20267 0.38791 0.0
C1913 C 0.05926 0.19729 0.3975 0.0
C1914 C 0.07144 0.17596 0.38275 0.0
C1915 C 0.09504 0.2404 0.37342 0.0
C1916 C 0.05365 0.16279 0.37419 0.0
C1917 C 0.04877 0.1336 0.37059 0.0
C1918 C 0.06105 0.11697 0.37564 0.0
C1919 C 0.08089 0.13143 0.38372 0.0
C1920 C 0.08617 0.16069 0.3872 0.0
H1921 H 0.11022 0.26653 0.37227 0.0
H1922 H 0.10948 0.22898 0.37192 0.0
H1923 H 0.07524 0.23121 0.36807 0.0
H1924 H 0.04158 0.17377 0.37069 0.0
H1925 H 0.03299 0.12272 0.36443 0.0
H1926 H 0.71007 0.79419 0.42206 0.0
H1927 H 0.75224 0.83804 0.41264 0.0
H1928 H 0.74939 0.77071 0.39162 0.0
H1929 H 0.70793 0.72679 0.40112 0.0
H1930 H 0.8094 0.81466 0.39594 0.0
H1931 H 0.74172 0.87564 0.38771 0.0
H1932 H 0.74453 0.87049 0.40053 0.0
H1933 H 0.72311 0.83604 0.39284 0.0
C1934 C 0.7186 0.78874 0.41547 0.0
C1935 C 0.70564 0.75703 0.41233 0.0
C1936 C 0.74243 0.81385 0.41002 0.0
C1937 C 0.75341 0.80778 0.40127 0.0
C1938 C 0.7411 0.77605 0.39828 0.0
H1939 H 0.90997 0.93707 0.36235 0.0
H1940 H 0.85773 0.8926 0.36734 0.0
C1941 C 0.71747 0.75095 0.40375 0.0
C1942 C 0.77842 0.83436 0.39537 0.0
H1943 H 0.79795 0.90535 0.38451 0.0
C1944 C 0.80669 0.83424 0.39332 0.0
C1945 C 0.77481 0.85984 0.39188 0.0
C1946 C 0.74427 0.86041 0.39326 0.0
C1947 C 0.83195 0.85951 0.38827 0.0
C1948 C 0.82877 0.8855 0.3851 0.0
C1949 C 0.80024 0.88531 0.38691 0.0
C1950 C 0.85624 0.9145 0.38089 0.0
C1951 C 0.86246 0.85893 0.38675 0.0
C1952 C 0.87162 0.9422 0.38657 0.0
C1953 C 0.90127 0.96748 0.38375 0.0
C1954 C 0.91597 0.96566 0.37515 0.0
C1955 C 0.89912 0.93924 0.36898 0.0
C1956 C 0.86945 0.9137 0.37186 0.0
H1957 H 0.86262 0.83925 0.39083 0.0
H1958 H 0.86531 0.8557 0.37889 0.0
H1959 H 0.88335 0.88189 0.38907 0.0
H1960 H 0.86177 0.94336 0.39353 0.0
H1961 H 0.91368 0.98761 0.38863 0.0
H1962 H 0.23475 0.93255 0.42162 0.0
H1963 H 0.19119 0.93181 0.41237 0.0
H1964 H 0.25909 0.99788 0.39162 0.0
H1965 H 0.30267 -0.00058 0.40096 0.0
H1966 H 0.21597 0.01417 0.39628 0.0
H1967 H 0.15304 0.88557 0.38719 0.0
H1968 H 0.15819 0.8927 0.40005 0.0
H1969 H 0.19262 0.90592 0.39235 0.0
C1970 C 0.24037 0.94707 0.41512 0.0
C1971 C 0.27214 0.96601 0.41202 0.0
C1972 C 0.21543 0.94633 0.40977 0.0
C1973 C 0.22176 0.96414 0.40114 0.0
C1974 C 0.25355 0.98369 0.39819 0.0
H1975 H 0.09599 0.99625 0.36245 0.0
H1976 H 0.13956 0.98745 0.36747 0.0
C1977 C 0.27847 0.98463 0.40357 0.0
C1978 C 0.19543 0.96327 0.39534 0.0
H1979 H 0.12446 0.91306 0.38416 0.0
C1980 C 0.1962 0.99211 0.39352 0.0
C1981 C 0.1697 0.93448 0.39167 0.0
C1982 C 0.16843 0.90296 0.39282 0.0
C1983 C 0.17138 0.99282 0.38849 0.0
C1984 C 0.14518 0.96394 0.3851 0.0
C1985 C 0.14468 0.93517 0.38672 0.0
C1986 C 0.11669 0.96313 0.38085 0.0
C1987 C 0.17269 0.02433 0.38718 0.0
C1988 C 0.08875 0.95068 0.38642 0.0
C1989 C 0.06399 0.95564 0.38358 0.0
C1990 C 0.06658 0.97291 0.37507 0.0
C1991 C 0.09324 0.98267 0.369 0.0
C1992 C 0.11826 0.97794 0.37191 0.0
H1993 H 0.19239 0.04379 0.39141 0.0
H1994 H 0.17639 0.03109 0.37937 0.0
H1995 H 0.14981 0.02234 0.38947 0.0
H1996 H 0.08701 0.93907 0.39331 0.0
H1997 H 0.04366 0.94775 0.38838 0.0
H1998 H 0.71641 0.00695 0.90301 0.0
H1999 H 0.75843 0.00461 0.89384 0.0
H2000 H 0.75516 0.9351 0.91406 0.0
H2001 H 0.71294 0.93715 0.92327 0.0
H2002 H 0.81854 0.98952 0.90931 0.0
H2003 H 0.74628 0.92762 0.87656 0.0
H2004 H 0.74461 0.96182 0.88079 0.0
H2005 H 0.7284 0.92661 0.8882 0.0
C2006 C 0.72475 0.99129 0.90555 0.0
C2007 C 0.71139 0.97225 0.91388 0.0
C2008 C 0.74854 0.98977 0.90024 0.0
C2009 C 0.75947 0.96927 0.90318 0.0
C2010 C 0.74679 0.95084 0.91163 0.0
H2011 H 0.91477 0.9408 0.88697 0.0
H2012 H 0.86406 0.93299 0.89309 0.0
C2013 C 0.7228 0.95215 0.9169 0.0
C2014 C 0.7849 0.96782 0.89763 0.0
H2015 H 0.80133 0.94454 0.87594 0.0
C2016 C 0.81477 0.97957 0.90204 0.0
C2017 C 0.77993 0.95517 0.88809 0.0
C2018 C 0.74804 0.94185 0.88311 0.0
C2019 C 0.83998 0.97926 0.89715 0.0
C2020 C 0.8349 0.9659 0.88769 0.0
C2021 C 0.80508 0.95446 0.88322 0.0
C2022 C 0.86062 0.96396 0.88244 0.0
C2023 C 0.8721 0.99397 0.90211 0.0
C2024 C 0.87392 0.98155 0.87387 0.0
C2025 C 0.90261 0.98537 0.87019 0.0
C2026 C 0.91834 0.97188 0.87512 0.0
C2027 C 0.90318 0.95158 0.88307 0.0
C2028 C 0.87438 0.94737 0.88663 0.0
H2029 H 0.87432 0.01067 0.90799 0.0
H2030 H 0.87508 0.97482 0.90544 0.0
H2031 H 0.89178 0.00712 0.89682 0.0
H2032 H 0.86348 0.99428 0.87046 0.0
H2033 H 0.91392 0.00129 0.86408 0.0
H2034 H 0.09276 0.79557 0.92342 0.0
H2035 H 0.09379 0.83913 0.91405 0.0
H2036 H 0.0357 0.77225 0.89182 0.0
H2037 H 0.03388 0.72869 0.90122 0.0
H2038 H 0.11721 0.86039 0.89566 0.0
H2039 H 0.98773 0.81871 0.89674 0.0
H2040 H 0.0057 0.80207 0.90448 0.0
H2041 H 0.99658 0.78962 0.89199 0.0
C2042 C 0.07981 0.79012 0.91661 0.0
C2043 C 0.06298 0.75865 0.91311 0.0
C2044 C 0.08057 0.81504 0.91123 0.0
C2045 C 0.06449 0.80893 0.90228 0.0
C2046 C 0.04768 0.7775 0.8988 0.0
H2047 H 0.03774 0.93559 0.86293 0.0
H2048 H 0.04604 0.89197 0.86823 0.0
C2049 C 0.04674 0.75261 0.90418 0.0
C2050 C 0.06589 0.83549 0.89648 0.0
H2051 H 0.01951 0.86256 0.88646 0.0
C2052 C 0.09583 0.86085 0.89365 0.0
C2053 C 0.03799 0.83602 0.89379 0.0
C2054 C 0.0052 0.81032 0.89698 0.0
C2055 C 0.09862 0.88677 0.88825 0.0
C2056 C 0.07077 0.88745 0.88569 0.0
C2057 C 0.04083 0.86179 0.88833 0.0
C2058 C 0.07201 0.91598 0.88128 0.0
C2059 C 0.13134 0.91327 0.88537 0.0
C2060 C 0.08486 0.94431 0.88667 0.0
C2061 C 0.08004 0.96905 0.88369 0.0
C2062 C 0.06235 0.96601 0.87525 0.0
C2063 C 0.0518 0.93876 0.8694 0.0
C2064 C 0.0563 0.91374 0.87246 0.0
H2065 H 0.14896 0.90507 0.88528 0.0
H2066 H 0.13086 0.92292 0.87808 0.0
H2067 H 0.13958 0.93294 0.89074 0.0
H2068 H 0.09661 0.94643 0.89356 0.0
H2069 H 0.08834 0.98974 0.88835 0.0
H2070 H 0.23885 0.325 0.92275 0.0
H2071 H 0.19427 0.28203 0.91377 0.0
H2072 H 0.26052 0.27561 0.89434 0.0
H2073 H 0.30525 0.31853 0.90328 0.0
H2074 H 0.20729 0.27832 0.88501 0.0
H2075 H 0.16899 0.18607 0.91394 0.0
H2076 H 0.17424 0.22384 0.91775 0.0
H2077 H 0.20813 0.22132 0.91376 0.0
C2078 C 0.24394 0.3142 0.91664 0.0
C2079 C 0.27558 0.32499 0.91377 0.0
C2080 C 0.21846 0.28971 0.9115 0.0
C2081 C 0.22413 0.2756 0.90341 0.0
C2082 C 0.25566 0.28622 0.90056 0.0
H2083 H 0.10226 0.12143 0.86394 0.0
H2084 H 0.14537 0.17245 0.87013 0.0
C2085 C 0.28117 0.31058 0.90572 0.0
C2086 C 0.19712 0.24973 0.89794 0.0
H2087 H 0.13571 0.1732 0.90018 0.0
C2088 C 0.19159 0.25527 0.88829 0.0
C2089 C 0.17681 0.21975 0.90225 0.0
C2090 C 0.18235 0.21213 0.91247 0.0
C2091 C 0.16571 0.23176 0.88291 0.0
C2092 C 0.14526 0.20178 0.88725 0.0
C2093 C 0.15114 0.19627 0.89687 0.0
C2094 C 0.11771 0.1753 0.88206 0.0
C2095 C 0.1601 0.23948 0.87272 0.0
C2096 C 0.08749 0.16044 0.88646 0.0
C2097 C 0.06313 0.13119 0.88302 0.0
C2098 C 0.06835 0.11633 0.87504 0.0
C2099 C 0.09749 0.13261 0.87002 0.0
C2100 C 0.12217 0.16178 0.87358 0.0
H2101 H 0.1717 0.26564 0.87154 0.0
H2102 H 0.17048 0.22996 0.86743 0.0
H2103 H 0.13422 0.22843 0.87116 0.0
H2104 H 0.08339 0.17045 0.89297 0.0
H2105 H 0.04089 0.11908 0.88703 0.0
H2106 H 0.94159 0.72049 0.59599 0.0
H2107 H 0.94048 0.76221 0.60577 0.0
H2108 H 0.00287 0.75584 0.62686 0.0
H2109 H 0.00479 0.715 0.61704 0.0
H2110 H 0.91939 0.75927 0.62447 0.0
H2111 H 0.04789 0.85052 0.62209 0.0
H2112 H 0.02971 0.8158 0.61435 0.0
H2113 H 0.04077 0.81285 0.62665 0.0
C2114 C 0.95546 0.72838 0.60263 0.0
C2115 C 0.97355 0.71469 0.60568 0.0
C2116 C 0.95466 0.75207 0.60825 0.0
C2117 C 0.97192 0.76249 0.617 0.0
C2118 C 0.98996 0.74879 0.62004 0.0
H2119 H 0.0001 0.91399 0.65744 0.0
H2120 H 0.9917 0.86218 0.65188 0.0
C2121 C 0.99096 0.72535 0.61441 0.0
C2122 C 0.97054 0.78714 0.62307 0.0
H2123 H 0.01679 0.86092 0.63311 0.0
C2124 C 0.9407 0.78149 0.62636 0.0
C2125 C -0.00165 0.81609 0.6256 0.0
C2126 C 0.03095 0.82438 0.62192 0.0
C2127 C 0.93795 0.80406 0.63205 0.0
C2128 C 0.96571 0.83308 0.63447 0.0
C2129 C 0.99556 0.83843 0.63137 0.0
C2130 C 0.96431 0.85989 0.63916 0.0
C2131 C 0.90537 0.79678 0.6354 0.0
C2132 C 0.95066 0.87508 0.63407 0.0
C2133 C 0.9556 0.90459 0.63718 0.0
C2134 C 0.97415 0.91941 0.64548 0.0
C2135 C 0.98539 0.90291 0.65109 0.0
C2136 C 0.98081 0.87346 0.64788 0.0
H2137 H 0.88813 0.77071 0.63544 0.0
H2138 H 0.90647 0.80643 0.6428 0.0
H2139 H 0.89621 0.80812 0.63033 0.0
H2140 H 0.93827 0.86536 0.62726 0.0
H2141 H 0.9468 0.91689 0.6327 0.0
H2142 H 0.32075 0.2403 0.59789 0.0
H2143 H 0.2787 0.19717 0.6076 0.0
H2144 H 0.27918 0.26651 0.62732 0.0
H2145 H 0.32036 0.30955 0.61753 0.0
H2146 H 0.28025 0.18146 0.62661 0.0
H2147 H 0.18539 0.2121 0.6217 0.0
H2148 H 0.22106 0.22962 0.61436 0.0
H2149 H 0.22185 0.24442 0.62642 0.0
C2150 C 0.31147 0.24633 0.6042 0.0
C2151 C 0.32364 0.27834 0.60688 0.0
C2152 C 0.2876 0.22167 0.60978 0.0
C2153 C 0.27547 0.22857 0.61813 0.0
C2154 C 0.28757 0.26055 0.62079 0.0
H2155 H 0.1218 0.10357 0.65788 0.0
H2156 H 0.17337 0.14816 0.6525 0.0
C2157 C 0.3112 0.28516 0.61519 0.0
C2158 C 0.25078 0.20234 0.62421 0.0
H2159 H 0.17543 0.17205 0.63328 0.0
C2160 C 0.25733 0.17942 0.62807 0.0
C2161 C 0.22092 0.19974 0.62617 0.0
C2162 C 0.2117 0.22259 0.62188 0.0
C2163 C 0.23478 0.15391 0.63377 0.0
C2164 C 0.20487 0.15118 0.63563 0.0
C2165 C 0.19858 0.17445 0.63196 0.0
C2166 C 0.17828 0.12261 0.64035 0.0
C2167 C 0.24304 0.13 0.63773 0.0
C2168 C 0.16466 0.09315 0.63555 0.0
C2169 C 0.13528 0.06786 0.63857 0.0
C2170 C 0.11899 0.07149 0.64647 0.0
C2171 C 0.13399 0.09999 0.65184 0.0
C2172 C 0.16331 0.12554 0.64872 0.0
H2173 H 0.26926 0.14009 0.63811 0.0
H2174 H 0.23274 0.12179 0.64511 0.0
H2175 H 0.23297 0.10893 0.63286 0.0
H2176 H 0.1755 0.09044 0.629 0.0
H2177 H 0.12418 0.04619 0.63427 0.0
H2178 H 0.73808 0.03927 0.61387 0.0
H2179 H 0.78119 0.03923 0.62311 0.0
H2180 H 0.85054 0.11075 0.60388 0.0
H2181 H 0.80751 0.11117 0.59461 0.0
H2182 H 0.85582 0.05284 0.60817 0.0
H2183 H 0.84759 0.11481 0.64115 0.0
H2184 H 0.81094 0.08239 0.63642 0.0
H2185 H 0.83272 0.11822 0.62941 0.0
C2186 C 0.7625 0.05487 0.61156 0.0
C2187 C 0.76941 0.0752 0.60349 0.0
C2188 C 0.78708 0.055 0.61691 0.0
C2189 C 0.81901 0.07535 0.61427 0.0
C2190 C 0.82601 0.09509 0.60608 0.0
H2191 H -0.00161 0.09331 0.63147 0.0
H2192 H 0.95747 0.10318 0.62483 0.0
C2193 C 0.80143 0.0952 0.60077 0.0
C2194 C 0.84505 0.07525 0.61987 0.0
H2195 H 0.88385 0.09578 0.64176 0.0
C2196 C 0.86208 0.06235 0.61549 0.0
C2197 C 0.85279 0.0873 0.62947 0.0
C2198 C 0.83526 0.10168 0.63442 0.0
C2199 C 0.88654 0.06089 0.62048 0.0
C2200 C 0.89491 0.07365 0.63001 0.0
C2201 C 0.87763 0.0863 0.63444 0.0
C2202 C 0.92153 0.07376 0.6354 0.0
C2203 C 0.9026 0.04488 0.61556 0.0
C2204 C 0.91581 0.05632 0.64408 0.0
C2205 C 0.93957 0.05133 0.64806 0.0
C2206 C 0.96913 0.06349 0.64333 0.0
C2207 C 0.9757 0.08345 0.63521 0.0
C2208 C 0.95224 0.08884 0.63135 0.0
H2209 H 0.88761 0.02867 0.60963 0.0
H2210 H 0.92539 0.06335 0.61227 0.0
H2211 H 0.90794 0.0309 0.62085 0.0
H2212 H 0.89236 0.04477 0.64739 0.0
H2213 H 0.93386 0.03574 0.6543 0.0
H2214 H 0.97208 0.40955 0.42945 0.0
H2215 H 0.93011 0.40677 0.44004 0.0
H2216 H 0.96643 0.3767 0.46396 0.0
H2217 H 0.00718 0.37785 0.4533 0.0
H2218 H 0.90612 0.34307 0.46419 0.0
H2219 H 0.93468 0.46773 0.46004 0.0
H2220 H 0.92666 0.44858 0.4484 0.0
H2221 H 0.96048 0.45404 0.45542 0.0
C2222 C 0.97093 0.40218 0.43695 0.0
C2223 C 0.99285 0.39381 0.44052 0.0
C2224 C 0.94722 0.40104 0.44305 0.0
C2225 C 0.94551 0.39238 0.45291 0.0
C2226 C 0.96725 0.38367 0.45642 0.0
H2227 H 0.80193 0.40886 0.48872 0.0
H2228 H 0.85484 0.41687 0.4843 0.0
C2229 C 0.9905 0.38423 0.4503 0.0
C2230 C 0.92016 0.39074 0.45945 0.0
H2231 H 0.88187 0.43066 0.46616 0.0
C2232 C 0.90128 0.36252 0.46473 0.0
C2233 C 0.91417 0.41632 0.46047 0.0
C2234 C 0.93535 0.44848 0.45587 0.0
C2235 C 0.8755 0.35844 0.47044 0.0
C2236 C 0.86755 0.38277 0.47064 0.0
C2237 C 0.88763 0.4118 0.46592 0.0
C2238 C 0.83622 0.37669 0.47441 0.0
C2239 C 0.85664 0.32774 0.47604 0.0
C2240 C 0.80836 0.35148 0.47041 0.0
C2241 C 0.77862 0.34691 0.47293 0.0
C2242 C 0.77573 0.36764 0.47945 0.0
C2243 C 0.80344 0.39235 0.48377 0.0
C2244 C 0.8336 0.39703 0.48119 0.0
H2245 H 0.87216 0.3182 0.47836 0.0
H2246 H 0.84522 0.33102 0.48259 0.0
H2247 H 0.83777 0.30959 0.47127 0.0
H2248 H 0.8096 0.33594 0.46499 0.0
H2249 H 0.75774 0.32758 0.46948 0.0
H2250 H 0.67976 0.63625 0.44052 0.0
H2251 H 0.6808 0.59446 0.45018 0.0
H2252 H 0.58096 0.53112 0.44412 0.0
H2253 H 0.5801 0.57253 0.43416 0.0
H2254 H 0.64884 0.5663 0.4665 0.0
H2255 H 0.61607 0.47407 0.43791 0.0
H2256 H 0.627 0.51459 0.43508 0.0
H2257 H 0.58755 0.4869 0.43944 0.0
C2258 C 0.65816 0.61323 0.44111 0.0
C2259 C 0.62993 0.60758 0.4365 0.0
C2260 C 0.65873 0.58941 0.44668 0.0
C2261 C 0.63105 0.55946 0.44782 0.0
C2262 C 0.60282 0.5537 0.44318 0.0
H2263 H 0.61457 0.3961 0.48148 0.0
H2264 H 0.59925 0.43412 0.47518 0.0
C2265 C 0.60234 0.57744 0.4375 0.0
C2266 C 0.6318 0.53483 0.4541 0.0
H2267 H 0.62131 0.45971 0.45392 0.0
C2268 C 0.6426 0.54292 0.46375 0.0
C2269 C 0.62353 0.50421 0.45056 0.0
C2270 C 0.61317 0.49444 0.44016 0.0
C2271 C 0.64618 0.52164 0.46983 0.0
C2272 C 0.63863 0.49145 0.4662 0.0
C2273 C 0.62666 0.48279 0.45671 0.0
C2274 C 0.64748 0.47051 0.47153 0.0
C2275 C 0.65883 0.53177 0.48001 0.0
C2276 C 0.6796 0.47878 0.47176 0.0
C2277 C 0.68822 0.45713 0.47519 0.0
C2278 C 0.66494 0.42694 0.47858 0.0
C2279 C 0.63296 0.41939 0.479 0.0
C2280 C 0.6242 0.44096 0.47536 0.0
H2281 H 0.65731 0.5528 0.48243 0.0
H2282 H 0.64545 0.51188 0.48522 0.0
H2283 H 0.68423 0.53816 0.48023 0.0
H2284 H 0.69786 0.50133 0.46877 0.0
H2285 H 0.71302 0.46345 0.47476 0.0
H2286 H 0.38226 0.0418 0.4477 0.0
H2287 H 0.42338 0.08718 0.45682 0.0
H2288 H 0.49479 0.09477 0.43658 0.0
H2289 H 0.45378 0.0489 0.42749 0.0
H2290 H 0.51322 0.09879 0.4562 0.0
H2291 H 0.46688 0.18037 0.44834 0.0
H2292 H 0.43839 0.14292 0.4537 0.0
H2293 H 0.45371 0.14372 0.44173 0.0
C2294 C 0.40668 0.05328 0.44513 0.0
C2295 C 0.41474 0.04194 0.43682 0.0
C2296 C 0.43015 0.07924 0.45036 0.0
C2297 C 0.4621 0.09458 0.44733 0.0
C2298 C 0.47026 0.08329 0.43904 0.0
H2299 H 0.61732 0.27951 0.45798 0.0
H2300 H 0.57436 0.22867 0.4522 0.0
C2301 C 0.44679 0.05723 0.43382 0.0
C2302 C 0.48703 0.1225 0.45277 0.0
H2303 H 0.51064 0.19928 0.45906 0.0
C2304 C 0.51262 0.12073 0.45688 0.0
C2305 C 0.48619 0.1511 0.45362 0.0
C2306 C 0.46 0.15489 0.44906 0.0
C2307 C 0.53766 0.14703 0.46169 0.0
C2308 C 0.53689 0.17565 0.46247 0.0
C2309 C 0.51098 0.17716 0.45853 0.0
C2310 C 0.56431 0.20554 0.46625 0.0
C2311 C 0.56536 0.1445 0.46558 0.0
C2312 C 0.57332 0.20939 0.47611 0.0
C2313 C 0.59822 0.2388 0.47951 0.0
C2314 C 0.61424 0.2647 0.47307 0.0
C2315 C 0.60542 0.26026 0.46318 0.0
C2316 C 0.58081 0.23114 0.45984 0.0
H2317 H 0.56433 0.12207 0.46328 0.0
H2318 H 0.58827 0.16507 0.46307 0.0
H2319 H 0.56516 0.14513 0.47366 0.0
H2320 H 0.56062 0.18997 0.48121 0.0
H2321 H 0.60422 0.24147 0.48716 0.0
H2322 H 0.75911 0.64812 0.75677 0.0
H2323 H 0.76058 0.60719 0.74677 0.0
H2324 H 0.6951 0.61134 0.72642 0.0
H2325 H 0.69299 0.65181 0.7365 0.0
H2326 H 0.68033 0.55044 0.73007 0.0
H2327 H 0.80886 0.62368 0.72136 0.0
H2328 H 0.80141 0.61961 0.73422 0.0
H2329 H 0.7867 0.64024 0.72691 0.0
C2330 C 0.74474 0.64006 0.75023 0.0
C2331 C 0.72599 0.65326 0.74742 0.0
C2332 C 0.74591 0.61695 0.74445 0.0
C2333 C 0.72867 0.60685 0.7357 0.0
C2334 C 0.7089 0.61904 0.73309 0.0
H2335 H 0.70553 0.45406 0.69589 0.0
H2336 H 0.7108 0.50503 0.70097 0.0
C2337 C 0.7076 0.64205 0.73888 0.0
C2338 C 0.7309 0.58323 0.72936 0.0
H2339 H 0.78407 0.56778 0.71782 0.0
C2340 C 0.70293 0.55442 0.72726 0.0
C2341 C 0.76039 0.58858 0.72561 0.0
C2342 C 0.791 0.61984 0.72705 0.0
C2343 C 0.70386 0.53014 0.72197 0.0
C2344 C 0.73352 0.53498 0.71858 0.0
C2345 C 0.76136 0.56419 0.72039 0.0
C2346 C 0.73633 0.50851 0.71425 0.0
C2347 C 0.67329 0.49887 0.72046 0.0
C2348 C 0.75075 0.49481 0.71971 0.0
C2349 C 0.74785 0.46592 0.71683 0.0
C2350 C 0.73071 0.4503 0.70839 0.0
C2351 C 0.71904 0.46564 0.7024 0.0
C2352 C 0.72173 0.49456 0.70534 0.0
H2353 H 0.65314 0.49742 0.72472 0.0
H2354 H 0.66673 0.49612 0.71264 0.0
H2355 H 0.67652 0.47859 0.72257 0.0
H2356 H 0.76229 0.50528 0.72657 0.0
H2357 H 0.75717 0.45469 0.72157 0.0
H2358 H 0.38552 0.05872 0.7372 0.0
H2359 H 0.42916 0.10245 0.72812 0.0
H2360 H 0.43159 0.16995 0.74898 0.0
H2361 H 0.38809 0.12645 0.7581 0.0
H2362 H 0.4292 0.15789 0.71988 0.0
H2363 H 0.52529 0.18995 0.7471 0.0
H2364 H 0.48853 0.15204 0.74722 0.0
H2365 H 0.48949 0.18708 0.75188 0.0
C2366 C 0.39568 0.08283 0.73993 0.0
C2367 C 0.38354 0.08913 0.74841 0.0
C2368 C 0.42042 0.10778 0.7347 0.0
C2369 C 0.43365 0.13938 0.73791 0.0
C2370 C 0.42192 0.14567 0.74645 0.0
H2371 H 0.58792 0.32325 0.72208 0.0
H2372 H 0.53738 0.27941 0.72805 0.0
C2373 C 0.3971 0.1208 0.75165 0.0
C2374 C 0.45946 0.16594 0.73229 0.0
H2375 H 0.53687 0.22586 0.73401 0.0
C2376 C 0.45284 0.17272 0.72292 0.0
C2377 C 0.49021 0.18509 0.73628 0.0
C2378 C 0.49902 0.1781 0.74614 0.0
C2379 C 0.47599 0.19892 0.71755 0.0
C2380 C 0.50659 0.21843 0.72163 0.0
C2381 C 0.51328 0.21112 0.73092 0.0
C2382 C 0.5324 0.24674 0.71656 0.0
C2383 C 0.46726 0.20601 0.70771 0.0
C2384 C 0.54548 0.24359 0.70778 0.0
C2385 C 0.57422 0.26899 0.70424 0.0
C2386 C 0.59044 0.29754 0.70956 0.0
C2387 C 0.5759 0.30146 0.71786 0.0
C2388 C 0.54711 0.27637 0.7213 0.0
H2389 H 0.441 0.19408 0.70673 0.0
H2390 H 0.4777 0.23208 0.70665 0.0
H2391 H 0.4769 0.19715 0.70196 0.0
H2392 H 0.53484 0.22085 0.70407 0.0
H2393 H 0.58514 0.26523 0.69789 0.0
H2394 H 0.90966 0.26935 0.75549 0.0
H2395 H 0.86662 0.26821 0.74587 0.0
H2396 H 0.93596 0.3382 0.72624 0.0
H2397 H 0.97904 0.34015 0.73599 0.0
H2398 H 0.89077 0.35178 0.73047 0.0
H2399 H 0.83289 0.22444 0.72014 0.0
H2400 H 0.83606 0.22997 0.73309 0.0
H2401 H 0.87168 0.24527 0.72582 0.0
C2402 C 0.91571 0.28466 0.74917 0.0
C2403 C 0.94774 0.30481 0.7465 0.0
C2404 C 0.89108 0.28369 0.7436 0.0
C2405 C 0.89798 0.30246 0.73516 0.0
C2406 C 0.93 0.32325 0.73265 0.0
H2407 H 0.77149 0.33204 0.69597 0.0
H2408 H 0.81569 0.32422 0.701 0.0
C2409 C 0.95461 0.32444 0.73826 0.0
C2410 C 0.87193 0.30122 0.72912 0.0
H2411 H 0.8026 0.25035 0.71725 0.0
C2412 C 0.87177 0.32967 0.72746 0.0
C2413 C 0.84722 0.27238 0.72511 0.0
C2414 C 0.84709 0.24135 0.72604 0.0
C2415 C 0.84691 0.32988 0.72229 0.0
C2416 C 0.82162 0.30089 0.71862 0.0
C2417 C 0.82212 0.27254 0.72004 0.0
C2418 C 0.79288 0.29937 0.71432 0.0
C2419 C 0.84711 0.36091 0.72117 0.0
C2420 C 0.76485 0.28636 0.71986 0.0
C2421 C 0.73978 0.29083 0.71702 0.0
C2422 C 0.74215 0.30811 0.70854 0.0
C2423 C 0.76892 0.31841 0.70249 0.0
C2424 C 0.79427 0.31422 0.7054 0.0
H2425 H 0.86642 0.38052 0.72546 0.0
H2426 H 0.85063 0.36803 0.71339 0.0
H2427 H 0.82387 0.35797 0.7235 0.0
H2428 H 0.76327 0.27474 0.72674 0.0
H2429 H 0.71936 0.28256 0.72181 0.0
H2430 H 0.37823 0.26451 0.25589 0.0
H2431 H 0.42098 0.26279 0.2469 0.0
H2432 H 0.42832 0.33601 0.2275 0.0
H2433 H 0.38569 0.33796 0.23644 0.0
H2434 H 0.42459 0.27947 0.21817 0.0
H2435 H 0.51742 0.33372 0.24696 0.0
H2436 H 0.47941 0.30122 0.25078 0.0
H2437 H 0.4825 0.33789 0.2468 0.0
C2438 C 0.3892 0.2805 0.24978 0.0
C2439 C 0.37874 0.30153 0.24692 0.0
C2440 C 0.41355 0.27944 0.24464 0.0
C2441 C 0.42782 0.29933 0.23655 0.0
C2442 C 0.41757 0.32045 0.23371 0.0
H2443 H 0.58061 0.33267 0.19656 0.0
H2444 H 0.52978 0.32418 0.20299 0.0
C2445 C 0.39337 0.32167 0.23887 0.0
C2446 C 0.45347 0.29809 0.23105 0.0
H2447 H 0.53004 0.31379 0.23309 0.0
C2448 C 0.4477 0.28695 0.2214 0.0
C2449 C 0.48352 0.30793 0.23529 0.0
C2450 C 0.49135 0.32112 0.2455 0.0
C2451 C 0.47108 0.28477 0.21594 0.0
C2452 C 0.50118 0.29458 0.2202 0.0
C2453 C 0.50689 0.30595 0.22983 0.0
C2454 C 0.52761 0.29391 0.21492 0.0
C2455 C 0.46309 0.27135 0.20577 0.0
C2456 C 0.54281 0.2789 0.21924 0.0
C2457 C 0.57197 0.28415 0.21567 0.0
C2458 C 0.58639 0.30422 0.20763 0.0
C2459 C 0.56977 0.31673 0.20269 0.0
C2460 C 0.5407 0.3119 0.20638 0.0
H2461 H 0.4369 0.25638 0.20469 0.0
H2462 H 0.47225 0.29131 0.20047 0.0
H2463 H 0.47428 0.2568 0.20412 0.0
H2464 H 0.53314 0.26478 0.22579 0.0
H2465 H 0.58434 0.27427 0.21961 0.0
H2466 H 0.69808 0.06324 0.23552 0.0
H2467 H 0.70024 0.10603 0.22557 0.0
H2468 H 0.76951 0.17591 0.24522 0.0
H2469 H 0.76813 0.13315 0.25507 0.0
H2470 H 0.68635 0.15129 0.22957 0.0
H2471 H 0.81397 0.20907 0.21951 0.0
H2472 H 0.79303 0.17039 0.22525 0.0
H2473 H 0.80805 0.20612 0.23244 0.0
C2474 C 0.7137 0.08772 0.23776 0.0
C2475 C 0.73303 0.09482 0.24607 0.0
C2476 C 0.71499 0.11217 0.23203 0.0
C2477 C 0.73563 0.14425 0.23449 0.0
C2478 C 0.75414 0.15139 0.24299 0.0
H2479 H 0.75676 0.32284 0.21991 0.0
H2480 H 0.76446 0.27914 0.22515 0.0
C2481 C 0.75304 0.12692 0.24869 0.0
C2482 C 0.73695 0.17012 0.22833 0.0
H2483 H 0.78796 0.23901 0.21627 0.0
C2484 C 0.7085 0.17019 0.22654 0.0
C2485 C 0.76585 0.19472 0.2243 0.0
C2486 C 0.79689 0.19495 0.22538 0.0
C2487 C 0.70834 0.19484 0.22124 0.0
C2488 C 0.73738 0.22 0.21753 0.0
C2489 C 0.76573 0.2196 0.21908 0.0
C2490 C 0.73892 0.24851 0.21301 0.0
C2491 C 0.67729 0.19456 0.22001 0.0
C2492 C 0.72366 0.2465 0.20412 0.0
C2493 C 0.71952 0.27173 0.20103 0.0
C2494 C 0.7303 0.29903 0.20687 0.0
C2495 C 0.74809 0.30202 0.21529 0.0
C2496 C 0.75248 0.27705 0.2183 0.0
H2497 H 0.65777 0.17569 0.22445 0.0
H2498 H 0.68026 0.21801 0.22209 0.0
H2499 H 0.66999 0.19023 0.21225 0.0
H2500 H 0.7133 0.22473 0.19989 0.0
H2501 H 0.70554 0.26868 0.19455 0.0
H2502 H 0.90407 0.65141 0.25537 0.0
H2503 H 0.8613 0.60885 0.24572 0.0
H2504 H 0.93062 0.6154 0.2248 0.0
H2505 H 0.9734 0.65713 0.23453 0.0
H2506 H 0.84301 0.61091 0.2271 0.0
H2507 H 0.88107 0.5209 0.22973 0.0
H2508 H 0.89773 0.55588 0.23735 0.0
H2509 H 0.91148 0.55857 0.22504 0.0
C2510 C 0.91021 0.64338 0.2488 0.0
C2511 C 0.94214 0.6574 0.24576 0.0
C2512 C 0.88575 0.6192 0.24326 0.0
C2513 C 0.89274 0.60862 0.23459 0.0
C2514 C 0.92464 0.62257 0.23157 0.0
H2515 H 0.76754 0.45508 0.19474 0.0
H2516 H 0.81131 0.50723 0.20008 0.0
C2517 C 0.94909 0.64652 0.23714 0.0
C2518 C 0.86661 0.5836 0.22857 0.0
H2519 H 0.83885 0.50946 0.21885 0.0
C2520 C 0.84213 0.58875 0.22529 0.0
C2521 C 0.86553 0.55472 0.22615 0.0
C2522 C 0.89017 0.54698 0.22982 0.0
C2523 C 0.81651 0.5657 0.21974 0.0
C2524 C 0.81526 0.53673 0.21745 0.0
C2525 C 0.84009 0.5319 0.22051 0.0
C2526 C 0.78677 0.5095 0.21294 0.0
C2527 C 0.79083 0.57239 0.21643 0.0
C2528 C 0.75812 0.49416 0.21819 0.0
C2529 C 0.73334 0.46446 0.2152 0.0
C2530 C 0.73665 0.44958 0.20687 0.0
C2531 C 0.7642 0.46618 0.20112 0.0
C2532 C 0.78929 0.49583 0.2042 0.0
H2533 H 0.7995 0.59838 0.21632 0.0
H2534 H 0.78208 0.56245 0.20905 0.0
H2535 H 0.7704 0.56093 0.22154 0.0
H2536 H 0.75579 0.504 0.22501 0.0
H2537 H 0.7124 0.45211 0.21978 0.0
H2538 H 0.67454 0.0528 0.94861 0.0
H2539 H 0.6722 0.09357 0.95841 0.0
H2540 H 0.60201 0.09206 0.93881 0.0
H2541 H 0.60355 0.05051 0.92913 0.0
H2542 H 0.68519 0.15241 0.95433 0.0
H2543 H 0.55781 0.0804 0.96454 0.0
H2544 H 0.57908 0.06317 0.95882 0.0
H2545 H 0.56349 0.0832 0.9516 0.0
C2546 C 0.65873 0.06127 0.94635 0.0
C2547 C 0.63914 0.04835 0.93811 0.0
C2548 C 0.65731 0.08449 0.95199 0.0
C2549 C 0.63632 0.09533 0.94951 0.0
C2550 C 0.61765 0.08336 0.94106 0.0
H2551 H 0.6142 0.25227 0.96339 0.0
H2552 H 0.60704 0.20092 0.95826 0.0
C2553 C 0.61885 0.05991 0.93546 0.0
C2554 C 0.63469 0.11978 0.95562 0.0
H2555 H 0.58313 0.13667 0.96756 0.0
C2556 C 0.66295 0.14876 0.95734 0.0
C2557 C 0.60568 0.11495 0.95963 0.0
C2558 C 0.57486 0.08361 0.95864 0.0
C2559 C 0.66278 0.17351 0.96257 0.0
C2560 C 0.6336 0.1691 0.96625 0.0
C2561 C 0.60546 0.13989 0.96477 0.0
C2562 C 0.63169 0.19596 0.97065 0.0
C2563 C 0.6936 0.20475 0.96377 0.0
C2564 C 0.6463 0.20926 0.97961 0.0
C2565 C 0.65012 0.23857 0.98264 0.0
C2566 C 0.63966 0.255 0.97666 0.0
C2567 C 0.62258 0.24017 0.96813 0.0
C2568 C 0.6185 0.21085 0.96518 0.0
H2569 H 0.71338 0.2056 0.95947 0.0
H2570 H 0.69041 0.22493 0.96151 0.0
H2571 H 0.70063 0.20823 0.97156 0.0
H2572 H 0.65643 0.19794 0.98397 0.0
H2573 H 0.66358 0.24956 0.9892 0.0
H2574 H 0.98019 0.57761 0.92836 0.0
H2575 H 0.93803 0.53511 0.93816 0.0
H2576 H 0.94503 0.60487 0.95896 0.0
H2577 H 0.98649 0.64746 0.94908 0.0
H2578 H 0.94223 0.5182 0.95682 0.0
H2579 H 0.85002 0.55359 0.95467 0.0
H2580 H 0.88441 0.57038 0.94678 0.0
H2581 H 0.88789 0.58452 0.95907 0.0
C2582 C 0.97228 0.58393 0.93492 0.0
C2583 C 0.98645 0.61592 0.93789 0.0
C2584 C 0.94834 0.55961 0.94055 0.0
C2585 C 0.93812 0.56678 0.94926 0.0
C2586 C 0.95198 0.59876 0.95217 0.0
H2587 H 0.78613 0.43835 0.98918 0.0
H2588 H 0.83769 0.48336 0.98396 0.0
C2589 C 0.97573 0.6231 0.94651 0.0
C2590 C 0.91381 0.54067 0.95544 0.0
H2591 H 0.83963 0.51126 0.96534 0.0
C2592 C 0.91983 0.51674 0.9587 0.0
C2593 C 0.88467 0.53887 0.95797 0.0
C2594 C 0.87615 0.56303 0.95438 0.0
C2595 C 0.89731 0.49086 0.96428 0.0
C2596 C 0.86797 0.48876 0.96662 0.0
C2597 C 0.86234 0.51314 0.96363 0.0
C2598 C 0.84115 0.45973 0.97105 0.0
C2599 C 0.90493 0.46579 0.96756 0.0
C2600 C 0.82669 0.43121 0.96573 0.0
C2601 C 0.79731 0.40572 0.96866 0.0
C2602 C 0.7819 0.40818 0.97699 0.0
C2603 C 0.79767 0.43567 0.9828 0.0
C2604 C 0.82698 0.46146 0.97978 0.0
H2605 H 0.93108 0.47524 0.96772 0.0
H2606 H 0.89492 0.45659 0.9749 0.0
H2607 H 0.89418 0.44552 0.96237 0.0
H2608 H 0.83692 0.42947 0.95892 0.0
H2609 H 0.78561 0.38484 0.96403 0.0
H2610 H 0.3926 0.36369 0.94851 0.0
H2611 H 0.4356 0.36585 0.95835 0.0
H2612 H 0.50509 0.43473 0.93852 0.0
H2613 H 0.46213 0.43336 0.92878 0.0
H2614 H 0.48082 0.35191 0.95431 0.0
H2615 H 0.53872 0.47969 0.96412 0.0
H2616 H 0.49991 0.4586 0.95847 0.0
H2617 H 0.5355 0.47355 0.9512 0.0
C2618 C 0.41704 0.37919 0.94621 0.0
C2619 C 0.42398 0.39845 0.93788 0.0
C2620 C 0.44161 0.3805 0.95187 0.0
C2621 C 0.47365 0.40106 0.94933 0.0
C2622 C 0.48061 0.41943 0.94081 0.0
H2623 H 0.65261 0.42242 0.96337 0.0
H2624 H 0.60858 0.4297 0.95819 0.0
C2625 C 0.45602 0.41832 0.93517 0.0
C2626 C 0.49966 0.40253 0.95545 0.0
H2627 H 0.5689 0.45385 0.96728 0.0
C2628 C 0.49981 0.37414 0.95727 0.0
C2629 C 0.52435 0.43151 0.95939 0.0
C2630 C 0.5245 0.4625 0.95829 0.0
C2631 C 0.52464 0.37413 0.96251 0.0
C2632 C 0.5499 0.40326 0.96612 0.0
C2633 C 0.54941 0.43155 0.96454 0.0
C2634 C 0.5786 0.40496 0.97054 0.0
C2635 C 0.52443 0.34315 0.9638 0.0
C2636 C 0.57704 0.39025 0.9795 0.0
C2637 C 0.60245 0.38635 0.98255 0.0
C2638 C 0.62949 0.39684 0.9766 0.0
C2639 C 0.632 0.414 0.96808 0.0
C2640 C 0.60685 0.41815 0.9651 0.0
H2641 H 0.50528 0.32343 0.95949 0.0
H2642 H 0.54776 0.34604 0.96159 0.0
H2643 H 0.52062 0.3362 0.97159 0.0
H2644 H 0.55548 0.38015 0.98383 0.0
H2645 H 0.59978 0.37284 0.98911 0.0
H2646 H 0.65298 0.69773 0.78223 0.0
H2647 H 0.61034 0.70048 0.79087 0.0
H2648 H 0.61468 0.76857 0.76987 0.0
H2649 H 0.65735 0.76591 0.76115 0.0
H2650 H 0.61277 0.75668 0.7991 0.0
H2651 H 0.51918 0.69796 0.77074 0.0
H2652 H 0.55473 0.69489 0.77097 0.0
H2653 H 0.5565 0.73055 0.76653 0.0
C2654 C 0.64463 0.71303 0.77938 0.0
C2655 C 0.65838 0.73144 0.77096 0.0
C2656 C 0.62041 0.71472 0.78437 0.0
C2657 C 0.60927 0.73461 0.781 0.0
C2658 C 0.62271 0.7528 0.77254 0.0
H2659 H 0.45328 0.76193 0.79688 0.0
H2660 H 0.50432 0.77055 0.79084 0.0
C2661 C 0.64705 0.75123 0.76756 0.0
C2662 C 0.58365 0.7364 0.78634 0.0
H2663 H 0.50692 0.72018 0.78414 0.0
C2664 C 0.58958 0.74871 0.79586 0.0
C2665 C 0.55345 0.7259 0.7821 0.0
C2666 C 0.54533 0.71132 0.77206 0.0
C2667 C 0.56624 0.75142 0.80116 0.0
C2668 C 0.53605 0.74101 0.79689 0.0
C2669 C 0.53017 0.72848 0.7874 0.0
C2670 C 0.50971 0.74224 0.80203 0.0
C2671 C 0.57435 0.76599 0.81119 0.0
C2672 C 0.49659 0.72498 0.81068 0.0
C2673 C 0.46759 0.72058 0.81428 0.0
C2674 C 0.45106 0.73282 0.80915 0.0
C2675 C 0.46554 0.75223 0.80098 0.0
C2676 C 0.49462 0.75701 0.79748 0.0
H2677 H 0.60055 0.78095 0.81225 0.0
H2678 H 0.5633 0.78084 0.81255 0.0
H2679 H 0.56508 0.74664 0.81671 0.0
H2680 H 0.50745 0.71292 0.81425 0.0
H2681 H 0.45673 0.70515 0.82051 0.0
H2682 H 0.33623 0.97451 0.78396 0.0
H2683 H 0.3342 0.93086 0.79336 0.0
H2684 H 0.27313 0.86367 0.77162 0.0
H2685 H 0.27436 0.90737 0.76227 0.0
H2686 H 0.25129 0.84335 0.79019 0.0
H2687 H 0.38008 0.88268 0.788 0.0
H2688 H 0.37249 0.91251 0.79285 0.0
H2689 H 0.36198 0.89962 0.78044 0.0
C2690 C 0.32266 0.9505 0.7811 0.0
C2691 C 0.30566 0.94442 0.77232 0.0
C2692 C 0.3216 0.92555 0.78648 0.0
C2693 C 0.30391 0.894 0.78314 0.0
C2694 C 0.28704 0.88785 0.77433 0.0
H2695 H 0.27884 0.71294 0.79736 0.0
H2696 H 0.2704 0.75623 0.79224 0.0
C2697 C 0.28791 0.91283 0.76897 0.0
C2698 C 0.30249 0.86743 0.78894 0.0
H2699 H 0.34876 0.83973 0.79863 0.0
C2700 C 0.27261 0.84256 0.79203 0.0
C2701 C 0.33032 0.86647 0.79141 0.0
C2702 C 0.363 0.89157 0.78793 0.0
C2703 C 0.26983 0.81674 0.79748 0.0
C2704 C 0.29761 0.81566 0.79984 0.0
C2705 C 0.32751 0.84082 0.79693 0.0
C2706 C 0.29627 0.78715 0.8043 0.0
C2707 C 0.2372 0.79075 0.80064 0.0
C2708 C 0.31268 0.78964 0.81299 0.0
C2709 C 0.31726 0.76463 0.81601 0.0
C2710 C 0.30609 0.73715 0.81024 0.0
C2711 C 0.28762 0.73382 0.80196 0.0
C2712 C 0.28272 0.75855 0.79903 0.0
H2713 H 0.21988 0.79933 0.80082 0.0
H2714 H 0.22826 0.77072 0.79538 0.0
H2715 H 0.23812 0.78147 0.80795 0.0
H2716 H 0.32349 0.81162 0.81714 0.0
H2717 H 0.33191 0.76801 0.82235 0.0
H2718 H 0.0663 0.38457 0.78108 0.0
H2719 H 0.11081 0.42756 0.79006 0.0
H2720 H 0.1775 0.42196 0.77062 0.0
H2721 H 0.13313 0.3789 0.76159 0.0
H2722 H 0.16459 0.42508 0.79933 0.0
H2723 H 0.20157 0.51781 0.77059 0.0
H2724 H 0.16255 0.48238 0.7708 0.0
H2725 H 0.1965 0.48018 0.7667 0.0
C2726 C 0.09043 0.39271 0.77865 0.0
C2727 C 0.09621 0.3785 0.77058 0.0
C2728 C 0.11581 0.41711 0.78383 0.0
C2729 C 0.14739 0.42796 0.78099 0.0
C2730 C 0.15326 0.41407 0.77288 0.0
H2731 H 0.32972 0.58576 0.79739 0.0
H2732 H 0.28766 0.53424 0.79139 0.0
C2733 C 0.1279 0.38953 0.76772 0.0
C2734 C 0.17426 0.4539 0.78647 0.0
H2735 H 0.23491 0.53083 0.78433 0.0
C2736 C 0.18003 0.44826 0.79609 0.0
C2737 C 0.19421 0.48405 0.78221 0.0
C2738 C 0.18839 0.49173 0.77204 0.0
C2739 C 0.2058 0.47187 0.80148 0.0
C2740 C 0.22588 0.50203 0.79719 0.0
C2741 C 0.21976 0.50762 0.7876 0.0
C2742 C 0.25328 0.52861 0.80239 0.0
C2743 C 0.21169 0.46406 0.81162 0.0
C2744 C 0.24867 0.54174 0.81094 0.0
C2745 C 0.27311 0.571 0.81452 0.0
C2746 C 0.30214 0.58774 0.80947 0.0
C2747 C 0.30755 0.57329 0.80142 0.0
C2748 C 0.28344 0.54394 0.79795 0.0
H2749 H 0.20045 0.43791 0.81274 0.0
H2750 H 0.23762 0.47541 0.81315 0.0
H2751 H 0.20113 0.4732 0.81698 0.0
H2752 H 0.22551 0.5307 0.81442 0.0
H2753 H 0.2682 0.58187 0.82066 0.0
H2754 H 0.43346 0.98946 0.08946 0.0
H2755 H 0.43488 0.94676 0.08034 0.0
H2756 H 0.36516 0.94353 0.06022 0.0
H2757 H 0.36339 0.98598 0.06931 0.0
H2758 H 0.37894 0.88304 0.0756 0.0
H2759 H 0.44284 0.95527 0.04302 0.0
H2760 H 0.44436 0.97314 0.0547 0.0
H2761 H 0.40918 0.95787 0.04731 0.0
C2762 C 0.41826 0.97949 0.08314 0.0
C2763 C 0.39827 0.99104 0.08012 0.0
C2764 C 0.41921 0.95523 0.07792 0.0
C2765 C 0.40054 0.94242 0.06952 0.0
C2766 C 0.38014 0.95348 0.06659 0.0
H2767 H 0.36873 0.78885 0.03005 0.0
H2768 H 0.37588 0.83912 0.03662 0.0
C2769 C 0.37896 0.97753 0.07185 0.0
C2770 C 0.40168 0.9168 0.064 0.0
H2771 H 0.42544 0.90016 0.04244 0.0
C2772 C 0.38921 0.88678 0.06837 0.0
C2773 C 0.41475 0.92173 0.05452 0.0
C2774 C 0.42877 0.95377 0.04958 0.0
C2775 C 0.38919 0.86139 0.0635 0.0
C2776 C 0.403 0.86644 0.0541 0.0
C2777 C 0.41517 0.89642 0.04966 0.0
C2778 C 0.40466 0.84054 0.04886 0.0
C2779 C 0.37365 0.82915 0.0684 0.0
C2780 C 0.42034 0.826 0.05316 0.0
C2781 C 0.41603 0.7973 0.04948 0.0
C2782 C 0.39657 0.783 0.04131 0.0
C2783 C 0.38398 0.79947 0.03633 0.0
C2784 C 0.38787 0.82806 0.04012 0.0
H2785 H 0.35666 0.82711 0.07416 0.0
H2786 H 0.36061 0.80965 0.06305 0.0
H2787 H 0.39231 0.82569 0.07188 0.0
H2788 H 0.43417 0.83571 0.05975 0.0
H2789 H 0.42616 0.78516 0.05343 0.0
H2790 H 0.04659 0.46555 0.0881 0.0
H2791 H 0.08879 0.50932 0.07862 0.0
H2792 H 0.09194 0.44132 0.05917 0.0
H2793 H 0.04989 0.39748 0.0686 0.0
H2794 H 0.15178 0.51922 0.0742 0.0
H2795 H 0.08009 0.50366 0.04093 0.0
H2796 H 0.06204 0.48726 0.05259 0.0
H2797 H 0.07905 0.46845 0.04552 0.0
C2798 C 0.05642 0.45992 0.08184 0.0
C2799 C 0.04493 0.42806 0.07911 0.0
C2800 C 0.0804 0.48493 0.07641 0.0
C2801 C 0.09303 0.47855 0.06809 0.0
C2802 C 0.08207 0.44677 0.06545 0.0
H2803 H 0.24886 0.59817 0.02887 0.0
H2804 H 0.1981 0.55493 0.0353 0.0
C2805 C 0.05827 0.42176 0.07091 0.0
C2806 C 0.11844 0.50514 0.06236 0.0
H2807 H 0.1352 0.54218 0.04017 0.0
C2808 C 0.14813 0.52435 0.06678 0.0
C2809 C 0.11365 0.5115 0.05263 0.0
C2810 C 0.08194 0.49184 0.04762 0.0
C2811 C 0.17333 0.5496 0.06173 0.0
C2812 C 0.16844 0.55649 0.05207 0.0
C2813 C 0.13881 0.53706 0.04759 0.0
C2814 C 0.1942 0.58378 0.04662 0.0
C2815 C 0.20525 0.56824 0.06675 0.0
C2816 C 0.20747 0.61476 0.05037 0.0
C2817 C 0.23643 0.63924 0.04678 0.0
C2818 C 0.25225 0.63333 0.03922 0.0
C2819 C 0.23701 0.60337 0.03465 0.0
C2820 C 0.20815 0.57862 0.03837 0.0
H2821 H 0.20744 0.55476 0.07295 0.0
H2822 H 0.22515 0.57435 0.0616 0.0
H2823 H 0.20791 0.59077 0.06966 0.0
H2824 H 0.19667 0.61946 0.05658 0.0
H2825 H 0.24768 0.66217 0.05041 0.0
H2826 H 0.63673 0.67342 0.07008 0.0
H2827 H 0.5924 0.67172 0.06103 0.0
H2828 H 0.5253 0.59716 0.07996 0.0
H2829 H 0.56951 0.59866 0.08905 0.0
H2830 H 0.53988 0.61579 0.05132 0.0
H2831 H 0.49958 0.66735 0.08031 0.0
H2832 H 0.53882 0.67178 0.08028 0.0
H2833 H 0.50482 0.63474 0.08399 0.0
C2834 C 0.61254 0.65689 0.07239 0.0
C2835 C 0.60661 0.63632 0.08033 0.0
C2836 C 0.58727 0.65581 0.06717 0.0
C2837 C 0.55561 0.63439 0.06984 0.0
C2838 C 0.54959 0.61406 0.07783 0.0
H2839 H 0.37359 0.60778 0.05241 0.0
H2840 H 0.4155 0.59876 0.05862 0.0
C2841 C 0.57485 0.61498 0.08303 0.0
C2842 C 0.52887 0.63327 0.06428 0.0
H2843 H 0.46739 0.64788 0.06631 0.0
C2844 C 0.52397 0.6228 0.05457 0.0
C2845 C 0.50828 0.6425 0.06854 0.0
C2846 C 0.51314 0.65498 0.07883 0.0
C2847 C 0.49849 0.62066 0.04906 0.0
C2848 C 0.47781 0.62982 0.05334 0.0
C2849 C 0.48301 0.64054 0.06304 0.0
C2850 C 0.45075 0.6291 0.04801 0.0
C2851 C 0.49356 0.60796 0.0388 0.0
C2852 C 0.45597 0.64768 0.0396 0.0
C2853 C 0.43166 0.6523 0.03589 0.0
C2854 C 0.4021 0.63895 0.04068 0.0
C2855 C 0.39617 0.61833 0.04858 0.0
C2856 C 0.42019 0.61333 0.05217 0.0
H2857 H 0.50506 0.5934 0.03764 0.0
H2858 H 0.46778 0.59319 0.03705 0.0
H2859 H 0.50447 0.62829 0.03363 0.0
H2860 H 0.47944 0.66053 0.03633 0.0
H2861 H 0.43698 0.66865 0.02987 0.0
H2862 H 0.05066 0.68196 0.5693 0.0
H2863 H 0.09163 0.68074 0.55922 0.0
H2864 H 0.09585 0.61461 0.57928 0.0
H2865 H 0.05444 0.61519 0.58928 0.0
H2866 H 0.1526 0.69596 0.56304 0.0
H2867 H 0.08095 0.56793 0.55363 0.0
H2868 H 0.06374 0.58939 0.55925 0.0
H2869 H 0.0843 0.57455 0.56653 0.0
C2870 C 0.06052 0.66737 0.57161 0.0
C2871 C 0.04923 0.64856 0.58007 0.0
C2872 C 0.08382 0.66658 0.56582 0.0
C2873 C 0.09619 0.64692 0.56835 0.0
C2874 C 0.08595 0.6292 0.57702 0.0
H2875 H 0.24999 0.62079 0.55521 0.0
H2876 H 0.19864 0.61488 0.5597 0.0
C2877 C 0.06256 0.62986 0.58279 0.0
C2878 C 0.12027 0.64537 0.56205 0.0
H2879 H 0.1372 0.59336 0.55045 0.0
C2880 C 0.14905 0.67362 0.56014 0.0
C2881 C 0.11547 0.61622 0.55819 0.0
C2882 C 0.08431 0.58536 0.55941 0.0
C2883 C 0.17384 0.67328 0.55497 0.0
C2884 C 0.16957 0.64392 0.5515 0.0
C2885 C 0.14036 0.61583 0.55308 0.0
C2886 C 0.1966 0.64161 0.5474 0.0
C2887 C 0.20506 0.7041 0.55371 0.0
C2888 C 0.21154 0.65694 0.53866 0.0
C2889 C 0.24089 0.66005 0.536 0.0
C2890 C 0.25561 0.64804 0.54211 0.0
C2891 C 0.23913 0.63026 0.55037 0.0
C2892 C 0.20983 0.62694 0.55296 0.0
H2893 H 0.20594 0.72391 0.55801 0.0
H2894 H 0.22532 0.70101 0.55596 0.0
H2895 H 0.20838 0.71107 0.54592 0.0
H2896 H 0.20146 0.6681 0.53421 0.0
H2897 H 0.25324 0.67414 0.52966 0.0
H2898 H 0.36515 0.39603 0.57118 0.0
H2899 H 0.36776 0.4403 0.56193 0.0
H2900 H 0.43092 0.50658 0.58352 0.0
H2901 H 0.42919 0.46242 0.59266 0.0
H2902 H 0.35096 0.4831 0.56626 0.0
H2903 H 0.48085 0.54664 0.55908 0.0
H2904 H 0.45972 0.5067 0.56396 0.0
H2905 H 0.47196 0.54057 0.57184 0.0
C2906 C 0.37949 0.42003 0.57399 0.0
C2907 C 0.39708 0.42577 0.58264 0.0
C2908 C 0.38105 0.44533 0.56867 0.0
C2909 C 0.40019 0.47689 0.57188 0.0
C2910 C 0.41681 0.48256 0.58072 0.0
H2911 H 0.41552 0.65493 0.5603 0.0
H2912 H 0.42274 0.61084 0.56545 0.0
C2913 C 0.41548 0.45727 0.586 0.0
C2914 C 0.40199 0.50371 0.56612 0.0
H2915 H 0.45408 0.57599 0.55598 0.0
C2916 C 0.37348 0.50316 0.56389 0.0
C2917 C 0.43138 0.52981 0.56294 0.0
C2918 C 0.46267 0.53086 0.56449 0.0
C2919 C 0.37366 0.52857 0.55895 0.0
C2920 C 0.4031 0.55519 0.55614 0.0
C2921 C 0.43157 0.55547 0.55813 0.0
C2922 C 0.40462 0.58419 0.55209 0.0
C2923 C 0.34246 0.52747 0.55712 0.0
C2924 C 0.3935 0.58448 0.54267 0.0
C2925 C 0.38968 0.60995 0.53964 0.0
C2926 C 0.39652 0.63512 0.54607 0.0
C2927 C 0.40988 0.63576 0.55521 0.0
C2928 C 0.41404 0.6106 0.55817 0.0
H2929 H 0.32196 0.50648 0.5606 0.0
H2930 H 0.34362 0.54949 0.55991 0.0
H2931 H 0.33801 0.52632 0.54916 0.0
H2932 H 0.38626 0.56429 0.53786 0.0
H2933 H 0.3792 0.60875 0.53257 0.0
H2934 H 0.58317 0.00332 0.58902 0.0
H2935 H 0.53817 0.95943 0.58045 0.0
H2936 H 0.60354 0.95018 0.56137 0.0
H2937 H 0.64869 0.99398 0.56991 0.0
H2938 H 0.54953 0.95229 0.55192 0.0
H2939 H 0.51344 0.86326 0.58177 0.0
H2940 H 0.51924 0.90158 0.58518 0.0
H2941 H 0.55265 0.89834 0.58114 0.0
C2942 C 0.58797 0.99174 0.58307 0.0
C2943 C 0.61947 0.00195 0.58019 0.0
C2944 C 0.56226 0.96673 0.57817 0.0
C2945 C 0.56759 0.95156 0.5703 0.0
C2946 C 0.59897 0.96163 0.56742 0.0
H2947 H 0.44298 0.79344 0.53239 0.0
H2948 H 0.48676 0.84479 0.53813 0.0
C2949 C 0.62471 0.9865 0.57235 0.0
C2950 C 0.54036 0.92508 0.56512 0.0
H2951 H 0.47939 0.84873 0.56817 0.0
C2952 C 0.53413 0.92958 0.55544 0.0
C2953 C 0.52048 0.89556 0.56973 0.0
C2954 C 0.52679 0.88912 0.58 0.0
C2955 C 0.50794 0.90546 0.55032 0.0
C2956 C 0.48791 0.87594 0.55497 0.0
C2957 C 0.49452 0.87146 0.56462 0.0
C2958 C 0.46001 0.84894 0.5501 0.0
C2959 C 0.50155 0.91206 0.54009 0.0
C2960 C 0.43012 0.83465 0.5547 0.0
C2961 C 0.4054 0.80521 0.55152 0.0
C2962 C 0.40992 0.7896 0.54362 0.0
C2963 C 0.43877 0.8052 0.53842 0.0
C2964 C 0.46381 0.83457 0.54171 0.0
H2965 H 0.51305 0.93807 0.53865 0.0
H2966 H 0.51151 0.90195 0.53486 0.0
H2967 H 0.47555 0.90085 0.5387 0.0
H2968 H 0.42654 0.84533 0.56114 0.0
H2969 H 0.38338 0.79365 0.55565 0.0
H2970 H 0.3384 0.37969 0.28175 0.0
H2971 H 0.33572 0.42071 0.29132 0.0
H2972 H 0.27046 0.42271 0.27041 0.0
H2973 H 0.27236 0.38101 0.26093 0.0
H2974 H 0.35119 0.48055 0.28711 0.0
H2975 H 0.22212 0.41076 0.2954 0.0
H2976 H 0.24356 0.39288 0.2902 0.0
H2977 H 0.22994 0.41378 0.28257 0.0
C2978 C 0.3236 0.38898 0.27915 0.0
C2979 C 0.30549 0.37703 0.2706 0.0
C2980 C 0.32199 0.41234 0.28466 0.0
C2981 C 0.30225 0.42423 0.28173 0.0
C2982 C 0.28508 0.4132 0.27299 0.0
H2983 H 0.28076 0.58231 0.29391 0.0
H2984 H 0.27366 0.53065 0.2892 0.0
C2985 C 0.2865 0.38965 0.26751 0.0
C2986 C 0.30037 0.44882 0.28768 0.0
H2987 H 0.24808 0.46704 0.2985 0.0
C2988 C 0.3287 0.47738 0.28973 0.0
C2989 C 0.27101 0.4446 0.29118 0.0
C2990 C 0.23998 0.41371 0.28982 0.0
C2991 C 0.32834 0.50238 0.29475 0.0
C2992 C 0.29888 0.49863 0.29789 0.0
C2993 C 0.27062 0.46977 0.29611 0.0
C2994 C 0.29691 0.52584 0.30198 0.0
C2995 C 0.35934 0.53323 0.29627 0.0
C2996 C 0.31068 0.53934 0.31101 0.0
C2997 C 0.31448 0.56885 0.31379 0.0
C2998 C 0.30483 0.58525 0.3075 0.0
C2999 C 0.28854 0.57024 0.29888 0.0
C3000 C 0.28448 0.54074 0.29617 0.0
H3001 H 0.37948 0.53371 0.29228 0.0
H3002 H 0.35703 0.55379 0.29383 0.0
H3003 H 0.36528 0.5364 0.30414 0.0
H3004 H 0.32016 0.52799 0.31563 0.0
H3005 H 0.32732 0.57996 0.32043 0.0
H3006 H 0.65454 0.91046 0.26134 0.0
H3007 H 0.61129 0.86662 0.27049 0.0
H3008 H 0.61283 0.93401 0.29124 0.0
H3009 H 0.65518 0.97785 0.28198 0.0
H3010 H 0.61076 0.84729 0.28902 0.0
H3011 H 0.51937 0.88314 0.28516 0.0
H3012 H 0.55552 0.90106 0.27805 0.0
H3013 H 0.55596 0.9137 0.29039 0.0
C3014 C 0.64527 0.91593 0.26776 0.0
C3015 C 0.65802 0.94764 0.27087 0.0
C3016 C 0.6207 0.89086 0.27302 0.0
C3017 C 0.60847 0.89699 0.2815 0.0
C3018 C 0.62125 0.92867 0.28461 0.0
H3019 H 0.45203 0.76752 0.31987 0.0
H3020 H 0.50428 0.81205 0.31494 0.0
C3021 C 0.64555 0.95373 0.27931 0.0
C3022 C 0.58292 0.87022 0.28719 0.0
H3023 H 0.50729 0.84057 0.29598 0.0
C3024 C 0.58815 0.84585 0.29054 0.0
C3025 C 0.55343 0.86837 0.28924 0.0
C3026 C 0.54554 0.89278 0.28545 0.0
C3027 C 0.56463 0.81963 0.29578 0.0
C3028 C 0.53513 0.8177 0.29772 0.0
C3029 C 0.53015 0.84236 0.29459 0.0
C3030 C 0.50767 0.78874 0.30195 0.0
C3031 C 0.57136 0.79405 0.29916 0.0
C3032 C 0.4929 0.76055 0.29647 0.0
C3033 C 0.46311 0.73534 0.29923 0.0
C3034 C 0.44761 0.73774 0.30755 0.0
C3035 C 0.46361 0.76486 0.3135 0.0
C3036 C 0.49332 0.79038 0.31065 0.0
H3037 H 0.59737 0.80282 0.2994 0.0
H3038 H 0.56106 0.78518 0.3065 0.0
H3039 H 0.56018 0.77365 0.29403 0.0
H3040 H 0.50331 0.75892 0.28968 0.0
H3041 H 0.45124 0.71475 0.29449 0.0
H3042 H 0.12466 0.76321 0.26037 0.0
H3043 H 0.1684 0.76351 0.2694 0.0
H3044 H 0.10144 0.70091 0.29096 0.0
H3045 H 0.05768 0.69971 0.28184 0.0
H3046 H 0.1895 0.78405 0.28775 0.0
H3047 H 0.14901 0.65515 0.28505 0.0
H3048 H 0.13171 0.6736 0.27783 0.0
H3049 H 0.11966 0.66276 0.29029 0.0
C3050 C 0.11924 0.74912 0.26695 0.0
C3051 C 0.08769 0.73116 0.27033 0.0
C3052 C 0.14426 0.74946 0.27214 0.0
C3053 C 0.13819 0.73189 0.2808 0.0
C3054 C 0.10668 0.71402 0.28418 0.0
H3055 H 0.26612 0.70418 0.31932 0.0
H3056 H 0.22243 0.71269 0.31426 0.0
C3057 C 0.08167 0.71343 0.27896 0.0
C3058 C 0.16489 0.73286 0.28641 0.0
H3059 H 0.19258 0.68589 0.29556 0.0
C3060 C 0.19015 0.76257 0.28946 0.0
C3061 C 0.16571 0.70482 0.28869 0.0
C3062 C 0.14024 0.67232 0.28522 0.0
C3063 C 0.21625 0.76499 0.29465 0.0
C3064 C 0.21713 0.73701 0.29683 0.0
C3065 C 0.1916 0.70728 0.29398 0.0
C3066 C 0.24575 0.73801 0.30105 0.0
C3067 C 0.2428 0.79742 0.29772 0.0
C3068 C 0.27367 0.75035 0.29547 0.0
C3069 C 0.29841 0.74533 0.2983 0.0
C3070 C 0.29579 0.72804 0.3068 0.0
C3071 C 0.26896 0.71794 0.31281 0.0
C3072 C 0.24391 0.72258 0.30989 0.0
H3073 H 0.23492 0.81529 0.29781 0.0
H3074 H 0.25184 0.79638 0.30506 0.0
H3075 H 0.26286 0.80568 0.29249 0.0
H3076 H 0.27543 0.76193 0.28856 0.0
H3077 H 0.31879 0.75329 0.29351 0.0
loop_
_geom_bond_atom_site_label_1
_geom_bond_atom_site_label_2
_geom_bond_distance
_geom_bond_site_symmetry_2
_ccdc_geom_bond_type
In0 O1 2.294 . S
In0 O2 2.326 . S
In0 O6 2.266 . S
In0 O7 2.326 1_545 S
In0 O8 2.266 1_545 S
In0 O9 2.326 . S
In0 O11 2.294 1_545 S
In0 O12 2.326 . S
O1 In0 2.294 . S
O1 C10 1.240 . S
O2 In0 2.326 . S
O2 C10 1.252 . S
C3 O6 1.252 . S
C3 O7 1.260 1_545 S
C4 O11 1.240 1_545 S
C4 O12 1.252 . S
C5 O8 1.252 . S
C5 O9 1.260 1_565 S
O6 In0 2.266 . S
O6 C3 1.252 . S
O7 In0 2.326 1_565 S
O7 C3 1.260 1_565 S
O8 In0 2.266 1_565 S
O8 C5 1.252 . S
O9 In0 2.326 . S
O9 C5 1.260 1_545 S
C10 O1 1.240 . S
C10 O2 1.252 . S
O11 In0 2.294 1_565 S
O11 C4 1.240 1_565 S
O12 In0 2.326 . S
O12 C4 1.252 . S
In13 O14 2.294 . S
In13 O15 2.326 . S
In13 O19 2.266 . S
In13 O20 2.326 1_455 S
In13 O21 2.266 1_455 S
In13 O22 2.326 . S
In13 O24 2.294 1_455 S
In13 O25 2.326 . S
O14 In13 2.294 . S
O14 C23 1.240 . S
O15 In13 2.326 . S
O15 C23 1.252 . S
C16 O19 1.252 . S
C16 O20 1.260 1_455 S
C17 O24 1.240 1_455 S
C17 O25 1.252 . S
C18 O21 1.252 . S
C18 O22 1.260 1_655 S
O19 In13 2.266 . S
O19 C16 1.252 . S
O20 In13 2.326 1_655 S
O20 C16 1.260 1_655 S
O21 In13 2.266 1_655 S
O21 C18 1.252 . S
O22 In13 2.326 . S
O22 C18 1.260 1_455 S
C23 O14 1.240 . S
C23 O15 1.252 . S
O24 In13 2.294 1_655 S
O24 C17 1.240 1_655 S
O25 In13 2.326 . S
O25 C17 1.252 . S
In26 O27 2.294 . S
In26 O28 2.326 . S
In26 O32 2.266 . S
In26 O33 2.326 . S
In26 O34 2.266 . S
In26 O35 2.326 . S
In26 O37 2.294 . S
In26 O38 2.326 . S
O27 In26 2.294 . S
O27 C36 1.240 . S
O28 In26 2.326 . S
O28 C36 1.252 . S
C29 O32 1.252 . S
C29 O33 1.260 . S
C30 O37 1.240 . S
C30 O38 1.252 . S
C31 O34 1.252 . S
C31 O35 1.260 . S
O32 In26 2.266 . S
O32 C29 1.252 . S
O33 In26 2.326 . S
O33 C29 1.260 . S
O34 In26 2.266 . S
O34 C31 1.252 . S
O35 In26 2.326 . S
O35 C31 1.260 . S
C36 O27 1.240 . S
C36 O28 1.252 . S
O37 In26 2.294 . S
O37 C30 1.240 . S
O38 In26 2.326 . S
O38 C30 1.252 . S
In39 O40 2.294 . S
In39 O41 2.326 1_545 S
In39 O45 2.266 . S
In39 O46 2.326 . S
In39 O47 2.266 1_545 S
In39 O48 2.326 . S
In39 O50 2.294 1_545 S
In39 O51 2.326 . S
O40 In39 2.294 . S
O40 C49 1.240 . S
O41 In39 2.326 1_565 S
O41 C49 1.252 1_565 S
C42 O45 1.252 . S
C42 O46 1.260 . S
C43 O50 1.240 . S
C43 O51 1.252 1_565 S
C44 O47 1.252 1_545 S
C44 O48 1.260 . S
O45 In39 2.266 . S
O45 C42 1.252 . S
O46 In39 2.326 . S
O46 C42 1.260 . S
O47 In39 2.266 1_565 S
O47 C44 1.252 1_565 S
O48 In39 2.326 . S
O48 C44 1.260 . S
C49 O40 1.240 . S
C49 O41 1.252 1_545 S
O50 In39 2.294 1_565 S
O50 C43 1.240 . S
O51 In39 2.326 . S
O51 C43 1.252 1_545 S
In52 O53 2.294 . S
In52 O54 2.326 1_455 S
In52 O58 2.266 . S
In52 O59 2.326 . S
In52 O60 2.266 1_455 S
In52 O61 2.326 . S
In52 O63 2.294 1_455 S
In52 O64 2.326 . S
O53 In52 2.294 . S
O53 C62 1.240 . S
O54 In52 2.326 1_655 S
O54 C62 1.252 1_655 S
C55 O58 1.252 . S
C55 O59 1.260 . S
C56 O63 1.240 . S
C56 O64 1.252 1_655 S
C57 O60 1.252 1_455 S
C57 O61 1.260 . S
O58 In52 2.266 . S
O58 C55 1.252 . S
O59 In52 2.326 . S
O59 C55 1.260 . S
O60 In52 2.266 1_655 S
O60 C57 1.252 1_655 S
O61 In52 2.326 . S
O61 C57 1.260 . S
C62 O53 1.240 . S
C62 O54 1.252 1_455 S
O63 In52 2.294 1_655 S
O63 C56 1.240 . S
O64 In52 2.326 . S
O64 C56 1.252 1_455 S
In65 O66 2.294 . S
In65 O67 2.326 . S
In65 O71 2.266 . S
In65 O72 2.326 . S
In65 O73 2.266 . S
In65 O74 2.326 . S
In65 O76 2.294 . S
In65 O77 2.326 . S
O66 In65 2.294 . S
O66 C75 1.240 . S
O67 In65 2.326 . S
O67 C75 1.252 . S
C68 O71 1.252 . S
C68 O72 1.260 . S
C69 O76 1.240 . S
C69 O77 1.252 . S
C70 O73 1.252 . S
C70 O74 1.260 . S
O71 In65 2.266 . S
O71 C68 1.252 . S
O72 In65 2.326 . S
O72 C68 1.260 . S
O73 In65 2.266 . S
O73 C70 1.252 . S
O74 In65 2.326 . S
O74 C70 1.260 . S
C75 O66 1.240 . S
C75 O67 1.252 . S
O76 In65 2.294 . S
O76 C69 1.240 . S
O77 In65 2.326 . S
O77 C69 1.252 . S
In78 O79 2.294 . S
In78 O80 2.326 . S
In78 O84 2.266 . S
In78 O85 2.326 . S
In78 O86 2.266 . S
In78 O87 2.326 . S
In78 O89 2.294 . S
In78 O90 2.326 . S
O79 In78 2.294 . S
O79 C88 1.240 . S
O80 In78 2.326 . S
O80 C88 1.252 . S
C81 O84 1.252 . S
C81 O85 1.260 . S
C82 O89 1.240 . S
C82 O90 1.252 . S
C83 O86 1.252 . S
C83 O87 1.260 . S
O84 In78 2.266 . S
O84 C81 1.252 . S
O85 In78 2.326 . S
O85 C81 1.260 . S
O86 In78 2.266 . S
O86 C83 1.252 . S
O87 In78 2.326 . S
O87 C83 1.260 . S
C88 O79 1.240 . S
C88 O80 1.252 . S
O89 In78 2.294 . S
O89 C82 1.240 . S
O90 In78 2.326 . S
O90 C82 1.252 . S
In91 O92 2.294 . S
In91 O93 2.326 . S
In91 O97 2.266 . S
In91 O98 2.326 . S
In91 O99 2.266 . S
In91 O100 2.326 . S
In91 O102 2.294 . S
In91 O103 2.326 . S
O92 In91 2.294 . S
O92 C101 1.240 . S
O93 In91 2.326 . S
O93 C101 1.252 . S
C94 O97 1.252 . S
C94 O98 1.260 . S
C95 O102 1.240 . S
C95 O103 1.252 . S
C96 O99 1.252 . S
C96 O100 1.260 . S
O97 In91 2.266 . S
O97 C94 1.252 . S
O98 In91 2.326 . S
O98 C94 1.260 . S
O99 In91 2.266 . S
O99 C96 1.252 . S
O100 In91 2.326 . S
O100 C96 1.260 . S
C101 O92 1.240 . S
C101 O93 1.252 . S
O102 In91 2.294 . S
O102 C95 1.240 . S
O103 In91 2.326 . S
O103 C95 1.252 . S
In104 O105 2.294 . S
In104 O106 2.326 . S
In104 O110 2.266 . S
In104 O111 2.326 . S
In104 O112 2.266 1_655 S
In104 O113 2.326 1_655 S
In104 O115 2.294 . S
In104 O116 2.326 . S
O105 In104 2.294 . S
O105 C114 1.240 . S
O106 In104 2.326 . S
O106 C114 1.252 . S
C107 O110 1.252 . S
C107 O111 1.260 . S
C108 O115 1.240 . S
C108 O116 1.252 . S
C109 O112 1.252 . S
C109 O113 1.260 . S
O110 In104 2.266 . S
O110 C107 1.252 . S
O111 In104 2.326 . S
O111 C107 1.260 . S
O112 In104 2.266 1_455 S
O112 C109 1.252 . S
O113 In104 2.326 1_455 S
O113 C109 1.260 . S
C114 O105 1.240 . S
C114 O106 1.252 . S
O115 In104 2.294 . S
O115 C108 1.240 . S
O116 In104 2.326 . S
O116 C108 1.252 . S
In117 O118 2.294 . S
In117 O119 2.326 . S
In117 O123 2.266 . S
In117 O124 2.326 . S
In117 O125 2.266 1_655 S
In117 O126 2.326 1_655 S
In117 O128 2.294 . S
In117 O129 2.326 . S
O118 In117 2.294 . S
O118 C127 1.240 . S
O119 In117 2.326 . S
O119 C127 1.252 . S
C120 O123 1.252 . S
C120 O124 1.260 . S
C121 O128 1.240 . S
C121 O129 1.252 . S
C122 O125 1.252 . S
C122 O126 1.260 . S
O123 In117 2.266 . S
O123 C120 1.252 . S
O124 In117 2.326 . S
O124 C120 1.260 . S
O125 In117 2.266 1_455 S
O125 C122 1.252 . S
O126 In117 2.326 1_455 S
O126 C122 1.260 . S
C127 O118 1.240 . S
C127 O119 1.252 . S
O128 In117 2.294 . S
O128 C121 1.240 . S
O129 In117 2.326 . S
O129 C121 1.252 . S
In130 O131 2.294 . S
In130 O132 2.326 . S
In130 O136 2.266 . S
In130 O137 2.326 . S
In130 O138 2.266 . S
In130 O139 2.326 . S
In130 O141 2.294 . S
In130 O142 2.326 . S
O131 In130 2.294 . S
O131 C140 1.240 . S
O132 In130 2.326 . S
O132 C140 1.252 . S
C133 O136 1.252 . S
C133 O137 1.260 . S
C134 O141 1.240 . S
C134 O142 1.252 . S
C135 O138 1.252 . S
C135 O139 1.260 . S
O136 In130 2.266 . S
O136 C133 1.252 . S
O137 In130 2.326 . S
O137 C133 1.260 . S
O138 In130 2.266 . S
O138 C135 1.252 . S
O139 In130 2.326 . S
O139 C135 1.260 . S
C140 O131 1.240 . S
C140 O132 1.252 . S
O141 In130 2.294 . S
O141 C134 1.240 . S
O142 In130 2.326 . S
O142 C134 1.252 . S
In143 O144 2.294 . S
In143 O145 2.326 . S
In143 O149 2.266 . S
In143 O150 2.326 . S
In143 O151 2.266 . S
In143 O152 2.326 . S
In143 O154 2.294 . S
In143 O155 2.326 . S
O144 In143 2.294 . S
O144 C153 1.240 . S
O145 In143 2.326 . S
O145 C153 1.252 . S
C146 O149 1.252 . S
C146 O150 1.260 . S
C147 O154 1.240 . S
C147 O155 1.252 . S
C148 O151 1.252 . S
C148 O152 1.260 . S
O149 In143 2.266 . S
O149 C146 1.252 . S
O150 In143 2.326 . S
O150 C146 1.260 . S
O151 In143 2.266 . S
O151 C148 1.252 . S
O152 In143 2.326 . S
O152 C148 1.260 . S
C153 O144 1.240 . S
C153 O145 1.252 . S
O154 In143 2.294 . S
O154 C147 1.240 . S
O155 In143 2.326 . S
O155 C147 1.252 . S
In156 O157 2.294 . S
In156 O158 2.326 . S
In156 O162 2.266 . S
In156 O163 2.326 . S
In156 O164 2.266 . S
In156 O165 2.326 . S
In156 O167 2.294 . S
In156 O168 2.326 . S
O157 In156 2.294 . S
O157 C166 1.240 . S
O158 In156 2.326 . S
O158 C166 1.252 . S
C159 O162 1.252 . S
C159 O163 1.260 . S
C160 O167 1.240 . S
C160 O168 1.252 . S
C161 O164 1.252 . S
C161 O165 1.260 . S
O162 In156 2.266 . S
O162 C159 1.252 . S
O163 In156 2.326 . S
O163 C159 1.260 . S
O164 In156 2.266 . S
O164 C161 1.252 . S
O165 In156 2.326 . S
O165 C161 1.260 . S
C166 O157 1.240 . S
C166 O158 1.252 . S
O167 In156 2.294 . S
O167 C160 1.240 . S
O168 In156 2.326 . S
O168 C160 1.252 . S
In169 O170 2.294 . S
In169 O171 2.326 . S
In169 O175 2.266 . S
In169 O176 2.326 . S
In169 O177 2.266 . S
In169 O178 2.326 . S
In169 O180 2.294 . S
In169 O181 2.326 . S
O170 In169 2.294 . S
O170 C179 1.240 . S
O171 In169 2.326 . S
O171 C179 1.252 . S
C172 O175 1.252 . S
C172 O176 1.260 . S
C173 O180 1.240 . S
C173 O181 1.252 . S
C174 O177 1.252 . S
C174 O178 1.260 . S
O175 In169 2.266 . S
O175 C172 1.252 . S
O176 In169 2.326 . S
O176 C172 1.260 . S
O177 In169 2.266 . S
O177 C174 1.252 . S
O178 In169 2.326 . S
O178 C174 1.260 . S
C179 O170 1.240 . S
C179 O171 1.252 . S
O180 In169 2.294 . S
O180 C173 1.240 . S
O181 In169 2.326 . S
O181 C173 1.252 . S
In182 O183 2.294 . S
In182 O184 2.326 . S
In182 O188 2.266 . S
In182 O189 2.326 . S
In182 O190 2.266 . S
In182 O191 2.326 . S
In182 O193 2.294 1_565 S
In182 O194 2.326 1_565 S
O183 In182 2.294 . S
O183 C192 1.240 . S
O184 In182 2.326 . S
O184 C192 1.252 . S
C185 O188 1.252 . S
C185 O189 1.260 . S
C186 O193 1.240 . S
C186 O194 1.252 . S
C187 O190 1.252 . S
C187 O191 1.260 . S
O188 In182 2.266 . S
O188 C185 1.252 . S
O189 In182 2.326 . S
O189 C185 1.260 . S
O190 In182 2.266 . S
O190 C187 1.252 . S
O191 In182 2.326 . S
O191 C187 1.260 . S
C192 O183 1.240 . S
C192 O184 1.252 . S
O193 In182 2.294 1_545 S
O193 C186 1.240 . S
O194 In182 2.326 1_545 S
O194 C186 1.252 . S
In195 O196 2.294 . S
In195 O197 2.326 . S
In195 O201 2.266 . S
In195 O202 2.326 . S
In195 O203 2.266 . S
In195 O204 2.326 . S
In195 O206 2.294 . S
In195 O207 2.326 . S
O196 In195 2.294 . S
O196 C205 1.240 . S
O197 In195 2.326 . S
O197 C205 1.252 . S
C198 O201 1.252 . S
C198 O202 1.260 . S
C199 O206 1.240 . S
C199 O207 1.252 . S
C200 O203 1.252 . S
C200 O204 1.260 . S
O201 In195 2.266 . S
O201 C198 1.252 . S
O202 In195 2.326 . S
O202 C198 1.260 . S
O203 In195 2.266 . S
O203 C200 1.252 . S
O204 In195 2.326 . S
O204 C200 1.260 . S
C205 O196 1.240 . S
C205 O197 1.252 . S
O206 In195 2.294 . S
O206 C199 1.240 . S
O207 In195 2.326 . S
O207 C199 1.252 . S
In208 O209 2.294 . S
In208 O210 2.326 . S
In208 O214 2.266 1_565 S
In208 O215 2.326 1_565 S
In208 O216 2.266 . S
In208 O217 2.326 . S
In208 O219 2.294 . S
In208 O220 2.326 . S
O209 In208 2.294 . S
O209 C218 1.240 . S
O210 In208 2.326 . S
O210 C218 1.252 . S
C211 O214 1.252 . S
C211 O215 1.260 . S
C212 O219 1.240 . S
C212 O220 1.252 . S
C213 O216 1.252 . S
C213 O217 1.260 . S
O214 In208 2.266 1_545 S
O214 C211 1.252 . S
O215 In208 2.326 1_545 S
O215 C211 1.260 . S
O216 In208 2.266 . S
O216 C213 1.252 . S
O217 In208 2.326 . S
O217 C213 1.260 . S
C218 O209 1.240 . S
C218 O210 1.252 . S
O219 In208 2.294 . S
O219 C212 1.240 . S
O220 In208 2.326 . S
O220 C212 1.252 . S
In221 O222 2.294 . S
In221 O223 2.326 . S
In221 O227 2.266 . S
In221 O228 2.326 . S
In221 O229 2.266 . S
In221 O230 2.326 . S
In221 O232 2.294 . S
In221 O233 2.326 . S
O222 In221 2.294 . S
O222 C231 1.240 . S
O223 In221 2.326 . S
O223 C231 1.252 . S
C224 O227 1.252 . S
C224 O228 1.260 . S
C225 O232 1.240 . S
C225 O233 1.252 . S
C226 O229 1.252 . S
C226 O230 1.260 . S
O227 In221 2.266 . S
O227 C224 1.252 . S
O228 In221 2.326 . S
O228 C224 1.260 . S
O229 In221 2.266 . S
O229 C226 1.252 . S
O230 In221 2.326 . S
O230 C226 1.260 . S
C231 O222 1.240 . S
C231 O223 1.252 . S
O232 In221 2.294 . S
O232 C225 1.240 . S
O233 In221 2.326 . S
O233 C225 1.252 . S
Zn234 O240 1.920 . S
Zn234 O246 1.898 1_445 S
Zn234 O249 1.905 . S
Zn235 O243 1.905 1_545 S
Zn235 O244 1.898 . S
Zn235 O252 1.920 1_455 S
Zn236 O239 2.080 . S
Zn236 O242 2.114 1_545 S
Zn236 O245 2.120 . S
Zn236 O247 2.120 1_445 S
Zn236 O248 2.114 . S
Zn236 O251 2.080 1_455 S
C237 O242 1.166 . S
C237 O243 1.182 . S
C238 O244 1.167 . S
C238 O245 1.299 . S
O239 Zn236 2.080 . S
O239 C253 1.305 . S
O240 Zn234 1.920 . S
O240 C253 1.234 . S
C241 O246 1.167 . S
C241 O247 1.299 . S
O242 Zn236 2.114 1_565 S
O242 C237 1.166 . S
O243 Zn235 1.905 1_565 S
O243 C237 1.182 . S
O244 Zn235 1.898 . S
O244 C238 1.167 . S
O245 Zn236 2.120 . S
O245 C238 1.299 . S
O246 Zn234 1.898 1_665 S
O246 C241 1.167 . S
O247 Zn236 2.120 1_665 S
O247 C241 1.299 . S
O248 Zn236 2.114 . S
O248 C250 1.166 . S
O249 Zn234 1.905 . S
O249 C250 1.182 . S
C250 O248 1.166 . S
C250 O249 1.182 . S
O251 Zn236 2.080 1_655 S
O251 C254 1.305 . S
O252 Zn235 1.920 1_655 S
O252 C254 1.234 . S
C253 O239 1.305 . S
C253 O240 1.234 . S
C254 O251 1.305 . S
C254 O252 1.234 . S
Zn255 O261 1.920 1_545 S
Zn255 O267 1.898 . S
Zn255 O270 1.905 1_455 S
Zn256 O264 1.905 . S
Zn256 O265 1.898 1_445 S
Zn256 O273 1.920 . S
Zn257 O260 2.080 1_545 S
Zn257 O263 2.114 . S
Zn257 O266 2.120 1_445 S
Zn257 O268 2.120 . S
Zn257 O269 2.114 1_455 S
Zn257 O272 2.080 . S
C258 O263 1.166 . S
C258 O264 1.182 . S
C259 O265 1.167 . S
C259 O266 1.299 . S
O260 Zn257 2.080 1_565 S
O260 C274 1.305 . S
O261 Zn255 1.920 1_565 S
O261 C274 1.234 . S
C262 O267 1.167 . S
C262 O268 1.299 . S
O263 Zn257 2.114 . S
O263 C258 1.166 . S
O264 Zn256 1.905 . S
O264 C258 1.182 . S
O265 Zn256 1.898 1_665 S
O265 C259 1.167 . S
O266 Zn257 2.120 1_665 S
O266 C259 1.299 . S
O267 Zn255 1.898 . S
O267 C262 1.167 . S
O268 Zn257 2.120 . S
O268 C262 1.299 . S
O269 Zn257 2.114 1_655 S
O269 C271 1.166 . S
O270 Zn255 1.905 1_655 S
O270 C271 1.182 . S
C271 O269 1.166 . S
C271 O270 1.182 . S
O272 Zn257 2.080 . S
O272 C275 1.305 . S
O273 Zn256 1.920 . S
O273 C275 1.234 . S
C274 O260 1.305 . S
C274 O261 1.234 . S
C275 O272 1.305 . S
C275 O273 1.234 . S
Zn276 O282 1.920 1_545 S
Zn276 O288 1.898 . S
Zn276 O291 1.905 1_455 S
Zn277 O285 1.905 . S
Zn277 O286 1.898 1_445 S
Zn277 O294 1.920 . S
Zn278 O281 2.080 1_545 S
Zn278 O284 2.114 . S
Zn278 O287 2.120 1_445 S
Zn278 O289 2.120 . S
Zn278 O290 2.114 1_455 S
Zn278 O293 2.080 . S
C279 O284 1.166 . S
C279 O285 1.182 . S
C280 O286 1.167 . S
C280 O287 1.299 . S
O281 Zn278 2.080 1_565 S
O281 C295 1.305 . S
O282 Zn276 1.920 1_565 S
O282 C295 1.234 . S
C283 O288 1.167 . S
C283 O289 1.299 . S
O284 Zn278 2.114 . S
O284 C279 1.166 . S
O285 Zn277 1.905 . S
O285 C279 1.182 . S
O286 Zn277 1.898 1_665 S
O286 C280 1.167 . S
O287 Zn278 2.120 1_665 S
O287 C280 1.299 . S
O288 Zn276 1.898 . S
O288 C283 1.167 . S
O289 Zn278 2.120 . S
O289 C283 1.299 . S
O290 Zn278 2.114 1_655 S
O290 C292 1.166 . S
O291 Zn276 1.905 1_655 S
O291 C292 1.182 . S
C292 O290 1.166 . S
C292 O291 1.182 . S
O293 Zn278 2.080 . S
O293 C296 1.305 . S
O294 Zn277 1.920 . S
O294 C296 1.234 . S
C295 O281 1.305 . S
C295 O282 1.234 . S
C296 O293 1.305 . S
C296 O294 1.234 . S
Zn297 O303 1.920 . S
Zn297 O309 1.898 1_445 S
Zn297 O312 1.905 . S
Zn298 O306 1.905 1_545 S
Zn298 O307 1.898 . S
Zn298 O315 1.920 1_455 S
Zn299 O302 2.080 . S
Zn299 O305 2.114 1_545 S
Zn299 O308 2.120 . S
Zn299 O310 2.120 1_445 S
Zn299 O311 2.114 . S
Zn299 O314 2.080 1_455 S
C300 O305 1.166 . S
C300 O306 1.182 . S
C301 O307 1.167 . S
C301 O308 1.299 . S
O302 Zn299 2.080 . S
O302 C316 1.305 . S
O303 Zn297 1.920 . S
O303 C316 1.234 . S
C304 O309 1.167 . S
C304 O310 1.299 . S
O305 Zn299 2.114 1_565 S
O305 C300 1.166 . S
O306 Zn298 1.905 1_565 S
O306 C300 1.182 . S
O307 Zn298 1.898 . S
O307 C301 1.167 . S
O308 Zn299 2.120 . S
O308 C301 1.299 . S
O309 Zn297 1.898 1_665 S
O309 C304 1.167 . S
O310 Zn299 2.120 1_665 S
O310 C304 1.299 . S
O311 Zn299 2.114 . S
O311 C313 1.166 . S
O312 Zn297 1.905 . S
O312 C313 1.182 . S
C313 O311 1.166 . S
C313 O312 1.182 . S
O314 Zn299 2.080 1_655 S
O314 C317 1.305 . S
O315 Zn298 1.920 1_655 S
O315 C317 1.234 . S
C316 O302 1.305 . S
C316 O303 1.234 . S
C317 O314 1.305 . S
C317 O315 1.234 . S
Zn318 O324 1.920 . S
Zn318 O330 1.898 . S
Zn318 O333 1.905 . S
Zn319 O327 1.905 . S
Zn319 O328 1.898 . S
Zn319 O336 1.920 . S
Zn320 O323 2.080 . S
Zn320 O326 2.114 . S
Zn320 O329 2.120 . S
Zn320 O331 2.120 . S
Zn320 O332 2.114 . S
Zn320 O335 2.080 . S
C321 O326 1.166 . S
C321 O327 1.182 . S
C322 O328 1.167 . S
C322 O329 1.299 . S
O323 Zn320 2.080 . S
O323 C337 1.305 . S
O324 Zn318 1.920 . S
O324 C337 1.234 . S
C325 O330 1.167 . S
C325 O331 1.299 . S
O326 Zn320 2.114 . S
O326 C321 1.166 . S
O327 Zn319 1.905 . S
O327 C321 1.182 . S
O328 Zn319 1.898 . S
O328 C322 1.167 . S
O329 Zn320 2.120 . S
O329 C322 1.299 . S
O330 Zn318 1.898 . S
O330 C325 1.167 . S
O331 Zn320 2.120 . S
O331 C325 1.299 . S
O332 Zn320 2.114 . S
O332 C334 1.166 . S
O333 Zn318 1.905 . S
O333 C334 1.182 . S
C334 O332 1.166 . S
C334 O333 1.182 . S
O335 Zn320 2.080 . S
O335 C338 1.305 . S
O336 Zn319 1.920 . S
O336 C338 1.234 . S
C337 O323 1.305 . S
C337 O324 1.234 . S
C338 O335 1.305 . S
C338 O336 1.234 . S
Zn339 O345 1.920 . S
Zn339 O351 1.898 . S
Zn339 O354 1.905 . S
Zn340 O348 1.905 . S
Zn340 O349 1.898 . S
Zn340 O357 1.920 . S
Zn341 O344 2.080 . S
Zn341 O347 2.114 . S
Zn341 O350 2.120 . S
Zn341 O352 2.120 . S
Zn341 O353 2.114 . S
Zn341 O356 2.080 . S
C342 O347 1.166 . S
C342 O348 1.182 . S
C343 O349 1.167 . S
C343 O350 1.299 . S
O344 Zn341 2.080 . S
O344 C358 1.305 . S
O345 Zn339 1.920 . S
O345 C358 1.234 . S
C346 O351 1.167 . S
C346 O352 1.299 . S
O347 Zn341 2.114 . S
O347 C342 1.166 . S
O348 Zn340 1.905 . S
O348 C342 1.182 . S
O349 Zn340 1.898 . S
O349 C343 1.167 . S
O350 Zn341 2.120 . S
O350 C343 1.299 . S
O351 Zn339 1.898 . S
O351 C346 1.167 . S
O352 Zn341 2.120 . S
O352 C346 1.299 . S
O353 Zn341 2.114 . S
O353 C355 1.166 . S
O354 Zn339 1.905 . S
O354 C355 1.182 . S
C355 O353 1.166 . S
C355 O354 1.182 . S
O356 Zn341 2.080 . S
O356 C359 1.305 . S
O357 Zn340 1.920 . S
O357 C359 1.234 . S
C358 O344 1.305 . S
C358 O345 1.234 . S
C359 O356 1.305 . S
C359 O357 1.234 . S
Zn360 O366 1.920 . S
Zn360 O372 1.898 . S
Zn360 O375 1.905 . S
Zn361 O369 1.905 . S
Zn361 O370 1.898 . S
Zn361 O378 1.920 . S
Zn362 O365 2.080 . S
Zn362 O368 2.114 . S
Zn362 O371 2.120 . S
Zn362 O373 2.120 . S
Zn362 O374 2.114 . S
Zn362 O377 2.080 . S
C363 O368 1.166 . S
C363 O369 1.182 . S
C364 O370 1.167 . S
C364 O371 1.299 . S
O365 Zn362 2.080 . S
O365 C379 1.305 . S
O366 Zn360 1.920 . S
O366 C379 1.234 . S
C367 O372 1.167 . S
C367 O373 1.299 . S
O368 Zn362 2.114 . S
O368 C363 1.166 . S
O369 Zn361 1.905 . S
O369 C363 1.182 . S
O370 Zn361 1.898 . S
O370 C364 1.167 . S
O371 Zn362 2.120 . S
O371 C364 1.299 . S
O372 Zn360 1.898 . S
O372 C367 1.167 . S
O373 Zn362 2.120 . S
O373 C367 1.299 . S
O374 Zn362 2.114 . S
O374 C376 1.166 . S
O375 Zn360 1.905 . S
O375 C376 1.182 . S
C376 O374 1.166 . S
C376 O375 1.182 . S
O377 Zn362 2.080 . S
O377 C380 1.305 . S
O378 Zn361 1.920 . S
O378 C380 1.234 . S
C379 O365 1.305 . S
C379 O366 1.234 . S
C380 O377 1.305 . S
C380 O378 1.234 . S
Zn381 O387 1.920 . S
Zn381 O393 1.898 . S
Zn381 O396 1.905 . S
Zn382 O390 1.905 . S
Zn382 O391 1.898 . S
Zn382 O399 1.920 . S
Zn383 O386 2.080 . S
Zn383 O389 2.114 . S
Zn383 O392 2.120 . S
Zn383 O394 2.120 . S
Zn383 O395 2.114 . S
Zn383 O398 2.080 . S
C384 O389 1.166 . S
C384 O390 1.182 . S
C385 O391 1.167 . S
C385 O392 1.299 . S
O386 Zn383 2.080 . S
O386 C400 1.305 1_556 S
O387 Zn381 1.920 . S
O387 C400 1.234 . S
C388 O393 1.167 . S
C388 O394 1.299 1_554 S
O389 Zn383 2.114 . S
O389 C384 1.166 . S
O390 Zn382 1.905 . S
O390 C384 1.182 . S
O391 Zn382 1.898 . S
O391 C385 1.167 . S
O392 Zn383 2.120 . S
O392 C385 1.299 . S
O393 Zn381 1.898 . S
O393 C388 1.167 . S
O394 Zn383 2.120 . S
O394 C388 1.299 1_556 S
O395 Zn383 2.114 . S
O395 C397 1.166 1_556 S
O396 Zn381 1.905 . S
O396 C397 1.182 . S
C397 O395 1.166 1_554 S
C397 O396 1.182 . S
O398 Zn383 2.080 . S
O398 C401 1.305 . S
O399 Zn382 1.920 . S
O399 C401 1.234 . S
C400 O386 1.305 1_554 S
C400 O387 1.234 . S
C401 O398 1.305 . S
C401 O399 1.234 . S
Zn402 O408 1.920 . S
Zn402 O414 1.898 . S
Zn402 O417 1.905 . S
Zn403 O411 1.905 . S
Zn403 O412 1.898 . S
Zn403 O420 1.920 . S
Zn404 O407 2.080 . S
Zn404 O410 2.114 . S
Zn404 O413 2.120 . S
Zn404 O415 2.120 . S
Zn404 O416 2.114 . S
Zn404 O419 2.080 . S
C405 O410 1.166 . S
C405 O411 1.182 . S
C406 O412 1.167 . S
C406 O413 1.299 . S
O407 Zn404 2.080 . S
O407 C421 1.305 . S
O408 Zn402 1.920 . S
O408 C421 1.234 . S
C409 O414 1.167 . S
C409 O415 1.299 . S
O410 Zn404 2.114 . S
O410 C405 1.166 . S
O411 Zn403 1.905 . S
O411 C405 1.182 . S
O412 Zn403 1.898 . S
O412 C406 1.167 . S
O413 Zn404 2.120 . S
O413 C406 1.299 . S
O414 Zn402 1.898 . S
O414 C409 1.167 . S
O415 Zn404 2.120 . S
O415 C409 1.299 . S
O416 Zn404 2.114 . S
O416 C418 1.166 . S
O417 Zn402 1.905 . S
O417 C418 1.182 . S
C418 O416 1.166 . S
C418 O417 1.182 . S
O419 Zn404 2.080 . S
O419 C422 1.305 . S
O420 Zn403 1.920 . S
O420 C422 1.234 . S
C421 O407 1.305 . S
C421 O408 1.234 . S
C422 O419 1.305 . S
C422 O420 1.234 . S
Zn423 O429 1.920 . S
Zn423 O435 1.898 . S
Zn423 O438 1.905 . S
Zn424 O432 1.905 . S
Zn424 O433 1.898 . S
Zn424 O441 1.920 . S
Zn425 O428 2.080 . S
Zn425 O431 2.114 . S
Zn425 O434 2.120 . S
Zn425 O436 2.120 . S
Zn425 O437 2.114 . S
Zn425 O440 2.080 . S
C426 O431 1.166 1_556 S
C426 O432 1.182 . S
C427 O433 1.167 . S
C427 O434 1.299 1_556 S
O428 Zn425 2.080 . S
O428 C442 1.305 . S
O429 Zn423 1.920 . S
O429 C442 1.234 . S
C430 O435 1.167 . S
C430 O436 1.299 . S
O431 Zn425 2.114 . S
O431 C426 1.166 1_554 S
O432 Zn424 1.905 . S
O432 C426 1.182 . S
O433 Zn424 1.898 . S
O433 C427 1.167 . S
O434 Zn425 2.120 . S
O434 C427 1.299 1_554 S
O435 Zn423 1.898 . S
O435 C430 1.167 . S
O436 Zn425 2.120 . S
O436 C430 1.299 . S
O437 Zn425 2.114 . S
O437 C439 1.166 . S
O438 Zn423 1.905 . S
O438 C439 1.182 . S
C439 O437 1.166 . S
C439 O438 1.182 . S
O440 Zn425 2.080 . S
O440 C443 1.305 1_554 S
O441 Zn424 1.920 . S
O441 C443 1.234 . S
C442 O428 1.305 . S
C442 O429 1.234 . S
C443 O440 1.305 1_556 S
C443 O441 1.234 . S
Zn444 O450 1.920 . S
Zn444 O456 1.898 . S
Zn444 O459 1.905 . S
Zn445 O453 1.905 . S
Zn445 O454 1.898 . S
Zn445 O462 1.920 . S
Zn446 O449 2.080 . S
Zn446 O452 2.114 . S
Zn446 O455 2.120 . S
Zn446 O457 2.120 . S
Zn446 O458 2.114 . S
Zn446 O461 2.080 . S
C447 O452 1.166 . S
C447 O453 1.182 . S
C448 O454 1.167 . S
C448 O455 1.299 . S
O449 Zn446 2.080 . S
O449 C463 1.305 . S
O450 Zn444 1.920 . S
O450 C463 1.234 . S
C451 O456 1.167 . S
C451 O457 1.299 . S
O452 Zn446 2.114 . S
O452 C447 1.166 . S
O453 Zn445 1.905 . S
O453 C447 1.182 . S
O454 Zn445 1.898 . S
O454 C448 1.167 . S
O455 Zn446 2.120 . S
O455 C448 1.299 . S
O456 Zn444 1.898 . S
O456 C451 1.167 . S
O457 Zn446 2.120 . S
O457 C451 1.299 . S
O458 Zn446 2.114 . S
O458 C460 1.166 . S
O459 Zn444 1.905 . S
O459 C460 1.182 . S
C460 O458 1.166 . S
C460 O459 1.182 . S
O461 Zn446 2.080 . S
O461 C464 1.305 . S
O462 Zn445 1.920 . S
O462 C464 1.234 . S
C463 O449 1.305 . S
C463 O450 1.234 . S
C464 O461 1.305 . S
C464 O462 1.234 . S
Zn465 O471 1.920 . S
Zn465 O477 1.898 . S
Zn465 O480 1.905 . S
Zn466 O474 1.905 . S
Zn466 O475 1.898 . S
Zn466 O483 1.920 . S
Zn467 O470 2.080 . S
Zn467 O473 2.114 . S
Zn467 O476 2.120 . S
Zn467 O478 2.120 . S
Zn467 O479 2.114 . S
Zn467 O482 2.080 . S
C468 O473 1.166 . S
C468 O474 1.182 . S
C469 O475 1.167 . S
C469 O476 1.299 . S
O470 Zn467 2.080 . S
O470 C484 1.305 . S
O471 Zn465 1.920 . S
O471 C484 1.234 . S
C472 O477 1.167 . S
C472 O478 1.299 . S
O473 Zn467 2.114 . S
O473 C468 1.166 . S
O474 Zn466 1.905 . S
O474 C468 1.182 . S
O475 Zn466 1.898 . S
O475 C469 1.167 . S
O476 Zn467 2.120 . S
O476 C469 1.299 . S
O477 Zn465 1.898 . S
O477 C472 1.167 . S
O478 Zn467 2.120 . S
O478 C472 1.299 . S
O479 Zn467 2.114 . S
O479 C481 1.166 . S
O480 Zn465 1.905 . S
O480 C481 1.182 . S
C481 O479 1.166 . S
C481 O480 1.182 . S
O482 Zn467 2.080 . S
O482 C485 1.305 . S
O483 Zn466 1.920 . S
O483 C485 1.234 . S
C484 O470 1.305 . S
C484 O471 1.234 . S
C485 O482 1.305 . S
C485 O483 1.234 . S
H486 C494 0.929 . S
H487 C496 0.930 . S
H488 C498 0.930 . S
H489 C501 0.929 . S
H490 C504 0.930 . S
H491 C506 0.960 . S
H492 C506 0.960 . S
H493 C506 0.960 . S
C494 H486 0.929 . S
C494 C495 1.377 . S
C494 C496 1.384 . S
C495 C494 1.377 . S
C495 C501 1.390 . S
C496 H487 0.930 . S
C496 C494 1.384 . S
C496 C497 1.372 . S
C497 C496 1.372 . S
C497 C498 1.400 . S
C497 C502 1.490 . S
C498 H488 0.930 . S
C498 C497 1.400 . S
C498 C501 1.386 . S
H499 C515 0.930 . S
H500 C516 0.931 . S
C501 H489 0.929 . S
C501 C495 1.390 . S
C501 C498 1.386 . S
C502 C497 1.490 . S
C502 C504 1.395 . S
C502 C505 1.403 . S
H503 C509 0.930 . S
C504 H490 0.930 . S
C504 C502 1.395 . S
C504 C507 1.403 . S
C505 C502 1.403 . S
C505 C506 1.524 . S
C505 C509 1.400 . S
C506 H491 0.960 . S
C506 H492 0.960 . S
C506 H493 0.960 . S
C506 C505 1.524 . S
C507 C504 1.403 . S
C507 C508 1.392 . S
C507 C511 1.495 . S
C508 C507 1.392 . S
C508 C509 1.385 . S
C508 C510 1.478 . S
C509 H503 0.930 . S
C509 C505 1.400 . S
C509 C508 1.385 . S
C510 C508 1.478 . S
C510 C512 1.381 . S
C510 C516 1.383 . S
C511 C507 1.495 . S
C511 H517 0.959 . S
C511 H518 0.961 . S
C511 H519 0.960 . S
C512 C510 1.381 . S
C512 C513 1.394 . S
C512 H520 0.930 . S
C513 C512 1.394 . S
C513 C514 1.383 . S
C513 H521 0.929 . S
C514 C513 1.383 . S
C514 C515 1.377 . S
C515 H499 0.930 . S
C515 C514 1.377 . S
C515 C516 1.379 . S
C516 H500 0.931 . S
C516 C510 1.383 . S
C516 C515 1.379 . S
H517 C511 0.959 . S
H518 C511 0.961 . S
H519 C511 0.960 . S
H520 C512 0.930 . S
H521 C513 0.929 . S
H522 C530 0.929 . S
H523 C532 0.930 . S
H524 C534 0.930 . S
H525 C537 0.929 . S
H526 C540 0.930 . S
H527 C542 0.960 . S
H528 C542 0.960 . S
H529 C542 0.960 1_565 S
C530 H522 0.929 . S
C530 C531 1.377 . S
C530 C532 1.384 . S
C531 C530 1.377 . S
C531 C537 1.390 1_545 S
C532 H523 0.930 . S
C532 C530 1.384 . S
C532 C533 1.372 . S
C533 C532 1.372 . S
C533 C534 1.400 1_545 S
C533 C538 1.490 . S
C534 H524 0.930 . S
C534 C533 1.400 1_565 S
C534 C537 1.386 . S
H535 C551 0.930 1_565 S
H536 C552 0.931 1_565 S
C537 H525 0.929 . S
C537 C531 1.390 1_565 S
C537 C534 1.386 . S
C538 C533 1.490 . S
C538 C540 1.395 . S
C538 C541 1.403 . S
H539 C545 0.930 . S
C540 H526 0.930 . S
C540 C538 1.395 . S
C540 C543 1.403 . S
C541 C538 1.403 . S
C541 C542 1.524 . S
C541 C545 1.400 . S
C542 H527 0.960 . S
C542 H528 0.960 . S
C542 H529 0.960 1_545 S
C542 C541 1.524 . S
C543 C540 1.403 . S
C543 C544 1.392 . S
C543 C547 1.495 . S
C544 C543 1.392 . S
C544 C545 1.385 . S
C544 C546 1.478 . S
C545 H539 0.930 . S
C545 C541 1.400 . S
C545 C544 1.385 . S
C546 C544 1.478 . S
C546 C548 1.381 . S
C546 C552 1.383 . S
C547 C543 1.495 . S
C547 H553 0.959 . S
C547 H554 0.961 . S
C547 H555 0.960 . S
C548 C546 1.381 . S
C548 C549 1.394 . S
C548 H556 0.930 . S
C549 C548 1.394 . S
C549 C550 1.383 . S
C549 H557 0.929 . S
C550 C549 1.383 . S
C550 C551 1.377 . S
C551 H535 0.930 1_545 S
C551 C550 1.377 . S
C551 C552 1.379 . S
C552 H536 0.931 1_545 S
C552 C546 1.383 . S
C552 C551 1.379 . S
H553 C547 0.959 . S
H554 C547 0.961 . S
H555 C547 0.960 . S
H556 C548 0.930 . S
H557 C549 0.929 . S
H558 C566 0.929 . S
H559 C568 0.930 . S
H560 C570 0.930 . S
H561 C573 0.929 . S
H562 C576 0.930 . S
H563 C578 0.960 . S
H564 C578 0.960 . S
H565 C578 0.960 . S
C566 H558 0.929 . S
C566 C567 1.377 . S
C566 C568 1.384 . S
C567 C566 1.377 . S
C567 C573 1.390 1_455 S
C568 H559 0.930 . S
C568 C566 1.384 . S
C568 C569 1.372 . S
C569 C568 1.372 . S
C569 C570 1.400 1_455 S
C569 C574 1.490 . S
C570 H560 0.930 . S
C570 C569 1.400 1_655 S
C570 C573 1.386 . S
H571 C587 0.930 . S
H572 C588 0.931 . S
C573 H561 0.929 . S
C573 C567 1.390 1_655 S
C573 C570 1.386 . S
C574 C569 1.490 . S
C574 C576 1.395 . S
C574 C577 1.403 . S
H575 C581 0.930 . S
C576 H562 0.930 . S
C576 C574 1.395 . S
C576 C579 1.403 . S
C577 C574 1.403 . S
C577 C578 1.524 . S
C577 C581 1.400 . S
C578 H563 0.960 . S
C578 H564 0.960 . S
C578 H565 0.960 . S
C578 C577 1.524 . S
C579 C576 1.403 . S
C579 C580 1.392 . S
C579 C583 1.495 . S
C580 C579 1.392 . S
C580 C581 1.385 . S
C580 C582 1.478 . S
C581 H575 0.930 . S
C581 C577 1.400 . S
C581 C580 1.385 . S
C582 C580 1.478 . S
C582 C584 1.381 . S
C582 C588 1.383 1_455 S
C583 C579 1.495 . S
C583 H589 0.959 . S
C583 H590 0.961 1_455 S
C583 H591 0.960 . S
C584 C582 1.381 . S
C584 C585 1.394 . S
C584 H592 0.930 . S
C585 C584 1.394 . S
C585 C586 1.383 . S
C585 H593 0.929 . S
C586 C585 1.383 . S
C586 C587 1.377 1_455 S
C587 H571 0.930 . S
C587 C586 1.377 1_655 S
C587 C588 1.379 . S
C588 H572 0.931 . S
C588 C582 1.383 1_655 S
C588 C587 1.379 . S
H589 C583 0.959 . S
H590 C583 0.961 1_655 S
H591 C583 0.960 . S
H592 C584 0.930 . S
H593 C585 0.929 . S
H594 C602 0.929 . S
H595 C604 0.930 . S
H596 C606 0.930 . S
H597 C609 0.929 . S
H598 C612 0.930 . S
H599 C614 0.960 . S
H600 C614 0.960 . S
H601 C614 0.960 . S
C602 H594 0.929 . S
C602 C603 1.377 . S
C602 C604 1.384 . S
C603 C602 1.377 . S
C603 C609 1.390 . S
C604 H595 0.930 . S
C604 C602 1.384 . S
C604 C605 1.372 . S
C605 C604 1.372 . S
C605 C606 1.400 . S
C605 C610 1.490 . S
C606 H596 0.930 . S
C606 C605 1.400 . S
C606 C609 1.386 . S
H607 C623 0.930 . S
H608 C624 0.931 . S
C609 H597 0.929 . S
C609 C603 1.390 . S
C609 C606 1.386 . S
C610 C605 1.490 . S
C610 C612 1.395 . S
C610 C613 1.403 . S
H611 C617 0.930 . S
C612 H598 0.930 . S
C612 C610 1.395 . S
C612 C615 1.403 . S
C613 C610 1.403 . S
C613 C614 1.524 . S
C613 C617 1.400 . S
C614 H599 0.960 . S
C614 H600 0.960 . S
C614 H601 0.960 . S
C614 C613 1.524 . S
C615 C612 1.403 . S
C615 C616 1.392 . S
C615 C619 1.495 . S
C616 C615 1.392 . S
C616 C617 1.385 . S
C616 C618 1.478 . S
C617 H611 0.930 . S
C617 C613 1.400 . S
C617 C616 1.385 . S
C618 C616 1.478 . S
C618 C620 1.381 . S
C618 C624 1.383 . S
C619 C615 1.495 . S
C619 H625 0.959 . S
C619 H626 0.961 . S
C619 H627 0.960 . S
C620 C618 1.381 . S
C620 C621 1.394 . S
C620 H628 0.930 . S
C621 C620 1.394 . S
C621 C622 1.383 . S
C621 H629 0.929 . S
C622 C621 1.383 . S
C622 C623 1.377 . S
C623 H607 0.930 . S
C623 C622 1.377 . S
C623 C624 1.379 . S
C624 H608 0.931 . S
C624 C618 1.383 . S
C624 C623 1.379 . S
H625 C619 0.959 . S
H626 C619 0.961 . S
H627 C619 0.960 . S
H628 C620 0.930 . S
H629 C621 0.929 . S
H630 C638 0.929 . S
H631 C640 0.930 . S
H632 C642 0.930 1_565 S
H633 C645 0.928 1_565 S
H634 C648 0.930 . S
H635 C650 0.960 . S
H636 C650 0.960 . S
H637 C650 0.960 . S
C638 H630 0.929 . S
C638 C639 1.377 . S
C638 C640 1.384 . S
C639 C638 1.377 . S
C639 C645 1.390 . S
C640 H631 0.930 . S
C640 C638 1.384 . S
C640 C641 1.372 . S
C641 C640 1.372 . S
C641 C642 1.400 . S
C641 C646 1.490 . S
C642 H632 0.930 1_545 S
C642 C641 1.400 . S
C642 C645 1.386 . S
H643 C659 0.930 . S
H644 C660 0.931 . S
C645 H633 0.928 1_545 S
C645 C639 1.390 . S
C645 C642 1.386 . S
C646 C641 1.490 . S
C646 C648 1.395 1_545 S
C646 C649 1.403 . S
H647 C653 0.930 . S
C648 H634 0.930 . S
C648 C646 1.395 1_565 S
C648 C651 1.403 . S
C649 C646 1.403 . S
C649 C650 1.524 . S
C649 C653 1.400 . S
C650 H635 0.960 . S
C650 H636 0.960 . S
C650 H637 0.960 . S
C650 C649 1.524 . S
C651 C648 1.403 . S
C651 C652 1.392 1_565 S
C651 C655 1.495 . S
C652 C651 1.392 1_545 S
C652 C653 1.385 . S
C652 C654 1.478 . S
C653 H647 0.930 . S
C653 C649 1.400 . S
C653 C652 1.385 . S
C654 C652 1.478 . S
C654 C656 1.381 . S
C654 C660 1.383 1_545 S
C655 C651 1.495 . S
C655 H661 0.959 . S
C655 H662 0.961 . S
C655 H663 0.960 . S
C656 C654 1.381 . S
C656 C657 1.394 . S
C656 H664 0.930 . S
C657 C656 1.394 . S
C657 C658 1.383 . S
C657 H665 0.929 . S
C658 C657 1.383 . S
C658 C659 1.377 1_545 S
C659 H643 0.930 . S
C659 C658 1.377 1_565 S
C659 C660 1.379 . S
C660 H644 0.931 . S
C660 C654 1.383 1_565 S
C660 C659 1.379 . S
H661 C655 0.959 . S
H662 C655 0.961 . S
H663 C655 0.960 . S
H664 C656 0.930 . S
H665 C657 0.929 . S
H666 C674 0.929 . S
H667 C676 0.930 . S
H668 C678 0.901 1_655 S
H669 C681 0.929 . S
H670 C684 0.930 . S
H671 C686 0.960 . S
H672 C686 0.960 . S
H673 C686 0.960 . S
C674 H666 0.929 . S
C674 C675 1.377 . S
C674 C676 1.384 . S
C675 C674 1.377 . S
C675 C681 1.390 1_455 S
C676 H667 0.930 . S
C676 C674 1.384 . S
C676 C677 1.372 . S
C677 C676 1.372 . S
C677 C678 1.419 . S
C677 C682 1.490 . S
C678 H668 0.901 1_455 S
C678 C677 1.419 . S
C678 C681 1.395 1_455 S
H679 C695 0.923 1_655 S
H680 C696 0.949 . S
C681 H669 0.929 . S
C681 C675 1.390 1_655 S
C681 C678 1.395 1_655 S
C682 C677 1.490 . S
C682 C684 1.395 . S
C682 C685 1.403 . S
H683 C689 0.930 1_655 S
C684 H670 0.930 . S
C684 C682 1.395 . S
C684 C687 1.403 . S
C685 C682 1.403 . S
C685 C686 1.524 1_455 S
C685 C689 1.400 . S
C686 H671 0.960 . S
C686 H672 0.960 . S
C686 H673 0.960 . S
C686 C685 1.524 1_655 S
C687 C684 1.403 . S
C687 C688 1.392 . S
C687 C691 1.495 . S
C688 C687 1.392 . S
C688 C689 1.385 . S
C688 C690 1.478 . S
C689 H683 0.930 1_455 S
C689 C685 1.400 . S
C689 C688 1.385 . S
C690 C688 1.478 . S
C690 C692 1.381 . S
C690 C696 1.383 . S
C691 C687 1.495 . S
C691 H697 0.959 . S
C691 H698 0.961 . S
C691 H699 0.960 . S
C692 C690 1.381 . S
C692 C693 1.394 . S
C692 H700 0.930 . S
C693 C692 1.394 . S
C693 C694 1.383 . S
C693 H701 0.929 . S
C694 C693 1.383 . S
C694 C695 1.377 . S
C695 H679 0.923 1_455 S
C695 C694 1.377 . S
C695 C696 1.379 . S
C696 H680 0.949 . S
C696 C690 1.383 . S
C696 C695 1.379 . S
H697 C691 0.959 . S
H698 C691 0.961 . S
H699 C691 0.960 . S
H700 C692 0.930 . S
H701 C693 0.929 . S
H702 C710 0.929 . S
H703 C712 0.930 . S
H704 C714 0.930 . S
H705 C717 0.929 . S
H706 C720 0.930 . S
H707 C722 0.960 . S
H708 C722 0.960 . S
H709 C722 0.960 . S
C710 H702 0.929 . S
C710 C711 1.377 . S
C710 C712 1.384 . S
C711 C710 1.377 . S
C711 C717 1.390 . S
C712 H703 0.930 . S
C712 C710 1.384 . S
C712 C713 1.372 . S
C713 C712 1.372 . S
C713 C714 1.400 . S
C713 C718 1.490 . S
C714 H704 0.930 . S
C714 C713 1.400 . S
C714 C717 1.386 . S
H715 C731 0.930 . S
H716 C732 0.931 . S
C717 H705 0.929 . S
C717 C711 1.390 . S
C717 C714 1.386 . S
C718 C713 1.490 . S
C718 C720 1.395 . S
C718 C721 1.403 . S
H719 C725 0.930 . S
C720 H706 0.930 . S
C720 C718 1.395 . S
C720 C723 1.403 . S
C721 C718 1.403 . S
C721 C722 1.524 . S
C721 C725 1.400 . S
C722 H707 0.960 . S
C722 H708 0.960 . S
C722 H709 0.960 . S
C722 C721 1.524 . S
C723 C720 1.403 . S
C723 C724 1.392 . S
C723 C727 1.495 . S
C724 C723 1.392 . S
C724 C725 1.385 . S
C724 C726 1.478 . S
C725 H719 0.930 . S
C725 C721 1.400 . S
C725 C724 1.385 . S
C726 C724 1.478 . S
C726 C728 1.381 . S
C726 C732 1.383 . S
C727 C723 1.495 . S
C727 H733 0.959 . S
C727 H734 0.961 . S
C727 H735 0.960 . S
C728 C726 1.381 . S
C728 C729 1.394 . S
C728 H736 0.930 . S
C729 C728 1.394 . S
C729 C730 1.383 . S
C729 H737 0.929 . S
C730 C729 1.383 . S
C730 C731 1.377 . S
C731 H715 0.930 . S
C731 C730 1.377 . S
C731 C732 1.379 . S
C732 H716 0.931 . S
C732 C726 1.383 . S
C732 C731 1.379 . S
H733 C727 0.959 . S
H734 C727 0.961 . S
H735 C727 0.960 . S
H736 C728 0.930 . S
H737 C729 0.929 . S
H738 C746 0.929 . S
H739 C748 0.930 . S
H740 C750 0.930 1_565 S
H741 C753 0.929 1_565 S
H742 C756 0.930 1_565 S
H743 C758 0.960 . S
H744 C758 0.960 . S
H745 C758 0.960 . S
C746 H738 0.929 . S
C746 C747 1.377 . S
C746 C748 1.384 . S
C747 C746 1.377 . S
C747 C753 1.390 . S
C748 H739 0.930 . S
C748 C746 1.384 . S
C748 C749 1.372 . S
C749 C748 1.372 . S
C749 C750 1.400 . S
C749 C754 1.490 . S
C750 H740 0.930 1_545 S
C750 C749 1.400 . S
C750 C753 1.386 . S
H751 C767 0.930 . S
H752 C768 0.931 . S
C753 H741 0.929 1_545 S
C753 C747 1.390 . S
C753 C750 1.386 . S
C754 C749 1.490 . S
C754 C756 1.395 . S
C754 C757 1.403 . S
H755 C761 0.930 . S
C756 H742 0.930 1_545 S
C756 C754 1.395 . S
C756 C759 1.397 . S
C757 C754 1.403 . S
C757 C758 1.524 . S
C757 C761 1.400 . S
C758 H743 0.960 . S
C758 H744 0.960 . S
C758 H745 0.960 . S
C758 C757 1.524 . S
C759 C756 1.397 . S
C759 C760 1.396 . S
C759 C763 1.497 1_545 S
C760 C759 1.396 . S
C760 C761 1.385 . S
C760 C762 1.478 . S
C761 H755 0.930 . S
C761 C757 1.400 . S
C761 C760 1.385 . S
C762 C760 1.478 . S
C762 C764 1.381 . S
C762 C768 1.383 1_545 S
C763 C759 1.497 1_565 S
C763 H769 0.959 . S
C763 H770 0.961 . S
C763 H771 0.929 1_565 S
C764 C762 1.381 . S
C764 C765 1.394 . S
C764 H772 0.930 . S
C765 C764 1.394 . S
C765 C766 1.383 . S
C765 H773 0.929 . S
C766 C765 1.383 . S
C766 C767 1.377 1_545 S
C767 H751 0.930 . S
C767 C766 1.377 1_565 S
C767 C768 1.379 . S
C768 H752 0.931 . S
C768 C762 1.383 1_565 S
C768 C767 1.379 . S
H769 C763 0.959 . S
H770 C763 0.961 . S
H771 C763 0.929 1_545 S
H772 C764 0.930 . S
H773 C765 0.929 . S
H774 C782 0.929 . S
H775 C784 0.930 . S
H776 C786 0.930 . S
H777 C789 0.929 . S
H778 C792 0.930 1_655 S
H779 C794 0.960 . S
H780 C794 0.960 . S
H781 C794 0.960 . S
C782 H774 0.929 . S
C782 C783 1.377 1_655 S
C782 C784 1.384 . S
C783 C782 1.377 1_455 S
C783 C789 1.390 . S
C784 H775 0.930 . S
C784 C782 1.384 . S
C784 C785 1.372 1_655 S
C785 C784 1.372 1_455 S
C785 C786 1.400 . S
C785 C790 1.490 . S
C786 H776 0.930 . S
C786 C785 1.400 . S
C786 C789 1.386 . S
H787 C803 0.930 . S
H788 C804 0.931 . S
C789 H777 0.929 . S
C789 C783 1.390 . S
C789 C786 1.386 . S
C790 C785 1.490 . S
C790 C792 1.395 . S
C790 C793 1.403 . S
H791 C797 0.930 . S
C792 H778 0.930 1_455 S
C792 C790 1.395 . S
C792 C795 1.403 . S
C793 C790 1.403 . S
C793 C794 1.524 . S
C793 C797 1.400 . S
C794 H779 0.960 . S
C794 H780 0.960 . S
C794 H781 0.960 . S
C794 C793 1.524 . S
C795 C792 1.403 . S
C795 C796 1.392 . S
C795 C799 1.495 1_455 S
C796 C795 1.392 . S
C796 C797 1.385 . S
C796 C798 1.478 . S
C797 H791 0.930 . S
C797 C793 1.400 . S
C797 C796 1.385 . S
C798 C796 1.478 . S
C798 C800 1.378 1_455 S
C798 C804 1.383 . S
C799 C795 1.495 1_655 S
C799 H805 0.959 . S
C799 H806 0.980 . S
C799 H807 0.960 . S
C800 C798 1.378 1_655 S
C800 C801 1.392 1_655 S
C800 H808 0.936 . S
C801 C800 1.392 1_455 S
C801 C802 1.383 . S
C801 H809 0.929 1_455 S
C802 C801 1.383 . S
C802 C803 1.377 . S
C803 H787 0.930 . S
C803 C802 1.377 . S
C803 C804 1.379 . S
C804 H788 0.931 . S
C804 C798 1.383 . S
C804 C803 1.379 . S
H805 C799 0.959 . S
H806 C799 0.980 . S
H807 C799 0.960 . S
H808 C800 0.936 . S
H809 C801 0.929 1_655 S
H810 C818 0.929 . S
H811 C820 0.930 . S
H812 C822 0.930 . S
H813 C825 0.929 . S
H814 C828 0.930 . S
H815 C830 0.960 . S
H816 C830 0.960 . S
H817 C830 0.960 . S
C818 H810 0.929 . S
C818 C819 1.377 . S
C818 C820 1.384 . S
C819 C818 1.377 . S
C819 C825 1.390 . S
C820 H811 0.930 . S
C820 C818 1.384 . S
C820 C821 1.372 . S
C821 C820 1.372 . S
C821 C822 1.400 . S
C821 C826 1.490 . S
C822 H812 0.930 . S
C822 C821 1.400 . S
C822 C825 1.386 . S
H823 C839 0.930 . S
H824 C840 0.931 . S
C825 H813 0.929 . S
C825 C819 1.390 . S
C825 C822 1.386 . S
C826 C821 1.490 . S
C826 C828 1.395 . S
C826 C829 1.403 . S
H827 C833 0.930 . S
C828 H814 0.930 . S
C828 C826 1.395 . S
C828 C831 1.403 . S
C829 C826 1.403 . S
C829 C830 1.524 . S
C829 C833 1.400 . S
C830 H815 0.960 . S
C830 H816 0.960 . S
C830 H817 0.960 . S
C830 C829 1.524 . S
C831 C828 1.403 . S
C831 C832 1.392 . S
C831 C835 1.495 . S
C832 C831 1.392 . S
C832 C833 1.385 . S
C832 C834 1.478 . S
C833 H827 0.930 . S
C833 C829 1.400 . S
C833 C832 1.385 . S
C834 C832 1.478 . S
C834 C836 1.381 . S
C834 C840 1.383 . S
C835 C831 1.495 . S
C835 H841 0.959 . S
C835 H842 0.961 . S
C835 H843 0.960 . S
C836 C834 1.381 . S
C836 C837 1.394 . S
C836 H844 0.930 . S
C837 C836 1.394 . S
C837 C838 1.383 . S
C837 H845 0.929 . S
C838 C837 1.383 . S
C838 C839 1.377 . S
C839 H823 0.930 . S
C839 C838 1.377 . S
C839 C840 1.379 . S
C840 H824 0.931 . S
C840 C834 1.383 . S
C840 C839 1.379 . S
H841 C835 0.959 . S
H842 C835 0.961 . S
H843 C835 0.960 . S
H844 C836 0.930 . S
H845 C837 0.929 . S
H846 C854 0.929 1_565 S
H847 C856 0.930 1_565 S
H848 C858 0.930 . S
H849 C861 0.929 . S
H850 C864 0.930 . S
H851 C866 0.960 . S
H852 C866 0.960 . S
H853 C866 0.960 1_545 S
C854 H846 0.929 1_545 S
C854 C855 1.377 . S
C854 C856 1.384 . S
C855 C854 1.377 . S
C855 C861 1.390 . S
C856 H847 0.930 1_545 S
C856 C854 1.384 . S
C856 C857 1.372 . S
C857 C856 1.372 . S
C857 C858 1.400 . S
C857 C862 1.490 . S
C858 H848 0.930 . S
C858 C857 1.400 . S
C858 C861 1.386 . S
H859 C875 0.930 . S
H860 C876 0.931 . S
C861 H849 0.929 . S
C861 C855 1.390 . S
C861 C858 1.386 . S
C862 C857 1.490 . S
C862 C864 1.395 . S
C862 C865 1.403 . S
H863 C869 0.930 . S
C864 H850 0.930 . S
C864 C862 1.395 . S
C864 C867 1.403 . S
C865 C862 1.403 . S
C865 C866 1.524 1_545 S
C865 C869 1.400 . S
C866 H851 0.960 . S
C866 H852 0.960 . S
C866 H853 0.960 1_565 S
C866 C865 1.524 1_565 S
C867 C864 1.403 . S
C867 C868 1.392 . S
C867 C871 1.495 . S
C868 C867 1.392 . S
C868 C869 1.385 . S
C868 C870 1.478 . S
C869 H863 0.930 . S
C869 C865 1.400 . S
C869 C868 1.385 . S
C870 C868 1.478 . S
C870 C872 1.381 . S
C870 C876 1.383 . S
C871 C867 1.495 . S
C871 H877 0.959 . S
C871 H878 0.961 . S
C871 H879 0.960 . S
C872 C870 1.381 . S
C872 C873 1.394 . S
C872 H880 0.930 . S
C873 C872 1.394 . S
C873 C874 1.383 . S
C873 H881 0.929 . S
C874 C873 1.383 . S
C874 C875 1.377 . S
C875 H859 0.930 . S
C875 C874 1.377 . S
C875 C876 1.379 . S
C876 H860 0.931 . S
C876 C870 1.383 . S
C876 C875 1.379 . S
H877 C871 0.959 . S
H878 C871 0.961 . S
H879 C871 0.960 . S
H880 C872 0.930 . S
H881 C873 0.929 . S
H882 C890 0.929 . S
H883 C892 0.930 . S
H884 C894 0.930 1_655 S
H885 C897 0.929 1_655 S
H886 C900 0.932 . S
H887 C902 0.960 . S
H888 C902 0.960 . S
H889 C902 0.960 . S
C890 H882 0.929 . S
C890 C891 1.377 . S
C890 C892 1.384 . S
C891 C890 1.377 . S
C891 C897 1.390 . S
C892 H883 0.930 . S
C892 C890 1.384 . S
C892 C893 1.372 . S
C893 C892 1.372 . S
C893 C894 1.400 . S
C893 C898 1.490 . S
C894 H884 0.930 1_455 S
C894 C893 1.400 . S
C894 C897 1.386 . S
H895 C911 0.930 . S
H896 C912 0.931 . S
C897 H885 0.929 1_455 S
C897 C891 1.390 . S
C897 C894 1.386 . S
C898 C893 1.490 . S
C898 C900 1.395 1_455 S
C898 C901 1.403 . S
H899 C905 0.930 . S
C900 H886 0.932 . S
C900 C898 1.395 1_655 S
C900 C903 1.401 . S
C901 C898 1.403 . S
C901 C902 1.524 . S
C901 C905 1.400 . S
C902 H887 0.960 . S
C902 H888 0.960 . S
C902 H889 0.960 . S
C902 C901 1.524 . S
C903 C900 1.401 . S
C903 C904 1.392 1_655 S
C903 C907 1.495 . S
C904 C903 1.392 1_455 S
C904 C905 1.385 . S
C904 C906 1.478 . S
C905 H899 0.930 . S
C905 C901 1.400 . S
C905 C904 1.385 . S
C906 C904 1.478 . S
C906 C908 1.381 . S
C906 C912 1.383 1_455 S
C907 C903 1.495 . S
C907 H913 0.959 . S
C907 H914 0.961 . S
C907 H915 0.960 . S
C908 C906 1.381 . S
C908 C909 1.394 . S
C908 H916 0.930 . S
C909 C908 1.394 . S
C909 C910 1.383 . S
C909 H917 0.929 . S
C910 C909 1.383 . S
C910 C911 1.377 1_455 S
C911 H895 0.930 . S
C911 C910 1.377 1_655 S
C911 C912 1.379 . S
C912 H896 0.931 . S
C912 C906 1.383 1_655 S
C912 C911 1.379 . S
H913 C907 0.959 . S
H914 C907 0.961 . S
H915 C907 0.960 . S
H916 C908 0.930 . S
H917 C909 0.929 . S
H918 C926 0.929 . S
H919 C928 0.930 . S
H920 C930 0.930 . S
H921 C933 0.929 . S
H922 C936 0.930 . S
H923 C938 0.960 . S
H924 C938 0.960 . S
H925 C938 0.960 . S
C926 H918 0.929 . S
C926 C927 1.377 . S
C926 C928 1.384 . S
C927 C926 1.377 . S
C927 C933 1.390 . S
C928 H919 0.930 . S
C928 C926 1.384 . S
C928 C929 1.372 . S
C929 C928 1.372 . S
C929 C930 1.400 . S
C929 C934 1.490 . S
C930 H920 0.930 . S
C930 C929 1.400 . S
C930 C933 1.386 . S
H931 C947 0.930 . S
H932 C948 0.931 . S
C933 H921 0.929 . S
C933 C927 1.390 . S
C933 C930 1.386 . S
C934 C929 1.490 . S
C934 C936 1.395 . S
C934 C937 1.403 . S
H935 C941 0.930 . S
C936 H922 0.930 . S
C936 C934 1.395 . S
C936 C939 1.403 . S
C937 C934 1.403 . S
C937 C938 1.524 . S
C937 C941 1.400 . S
C938 H923 0.960 . S
C938 H924 0.960 . S
C938 H925 0.960 . S
C938 C937 1.524 . S
C939 C936 1.403 . S
C939 C940 1.392 . S
C939 C943 1.495 . S
C940 C939 1.392 . S
C940 C941 1.385 . S
C940 C942 1.478 . S
C941 H935 0.930 . S
C941 C937 1.400 . S
C941 C940 1.385 . S
C942 C940 1.478 . S
C942 C944 1.381 . S
C942 C948 1.383 . S
C943 C939 1.495 . S
C943 H949 0.959 . S
C943 H950 0.961 . S
C943 H951 0.960 . S
C944 C942 1.381 . S
C944 C945 1.394 . S
C944 H952 0.930 . S
C945 C944 1.394 . S
C945 C946 1.383 . S
C945 H953 0.929 . S
C946 C945 1.383 . S
C946 C947 1.377 . S
C947 H931 0.930 . S
C947 C946 1.377 . S
C947 C948 1.379 . S
C948 H932 0.931 . S
C948 C942 1.383 . S
C948 C947 1.379 . S
H949 C943 0.959 . S
H950 C943 0.961 . S
H951 C943 0.960 . S
H952 C944 0.930 . S
H953 C945 0.929 . S
H954 C962 0.929 . S
H955 C964 0.930 . S
H956 C966 0.930 . S
H957 C969 0.929 . S
H958 C972 0.930 . S
H959 C974 0.960 . S
H960 C974 0.960 . S
H961 C974 0.960 . S
C962 H954 0.929 . S
C962 C963 1.377 . S
C962 C964 1.384 . S
C963 C962 1.377 . S
C963 C969 1.390 . S
C964 H955 0.930 . S
C964 C962 1.384 . S
C964 C965 1.372 . S
C965 C964 1.372 . S
C965 C966 1.400 . S
C965 C970 1.490 . S
C966 H956 0.930 . S
C966 C965 1.400 . S
C966 C969 1.386 . S
H967 C983 0.930 . S
H968 C984 0.931 . S
C969 H957 0.929 . S
C969 C963 1.390 . S
C969 C966 1.386 . S
C970 C965 1.490 . S
C970 C972 1.395 . S
C970 C973 1.403 . S
H971 C977 0.930 . S
C972 H958 0.930 . S
C972 C970 1.395 . S
C972 C975 1.403 . S
C973 C970 1.403 . S
C973 C974 1.524 . S
C973 C977 1.400 . S
C974 H959 0.960 . S
C974 H960 0.960 . S
C974 H961 0.960 . S
C974 C973 1.524 . S
C975 C972 1.403 . S
C975 C976 1.392 . S
C975 C979 1.495 . S
C976 C975 1.392 . S
C976 C977 1.385 . S
C976 C978 1.478 . S
C977 H971 0.930 . S
C977 C973 1.400 . S
C977 C976 1.385 . S
C978 C976 1.478 . S
C978 C980 1.381 . S
C978 C984 1.383 . S
C979 C975 1.495 . S
C979 H985 0.959 . S
C979 H986 0.961 . S
C979 H987 0.960 . S
C980 C978 1.381 . S
C980 C981 1.394 . S
C980 H988 0.930 . S
C981 C980 1.394 . S
C981 C982 1.383 . S
C981 H989 0.929 . S
C982 C981 1.383 . S
C982 C983 1.377 . S
C983 H967 0.930 . S
C983 C982 1.377 . S
C983 C984 1.379 . S
C984 H968 0.931 . S
C984 C978 1.383 . S
C984 C983 1.379 . S
H985 C979 0.959 . S
H986 C979 0.961 . S
H987 C979 0.960 . S
H988 C980 0.930 . S
H989 C981 0.929 . S
H990 C998 0.929 . S
H991 C1000 0.930 . S
H992 C1002 0.930 . S
H993 C1005 0.929 . S
H994 C1008 0.930 . S
H995 C1010 0.960 . S
H996 C1010 0.960 . S
H997 C1010 0.960 . S
C998 H990 0.929 . S
C998 C999 1.377 . S
C998 C1000 1.384 . S
C999 C998 1.377 . S
C999 C1005 1.390 . S
C1000 H991 0.930 . S
C1000 C998 1.384 . S
C1000 C1001 1.372 . S
C1001 C1000 1.372 . S
C1001 C1002 1.400 . S
C1001 C1006 1.490 . S
C1002 H992 0.930 . S
C1002 C1001 1.400 . S
C1002 C1005 1.386 . S
H1003 C1019 0.930 . S
H1004 C1020 0.931 . S
C1005 H993 0.929 . S
C1005 C999 1.390 . S
C1005 C1002 1.386 . S
C1006 C1001 1.490 . S
C1006 C1008 1.395 . S
C1006 C1009 1.403 . S
H1007 C1013 0.930 . S
C1008 H994 0.930 . S
C1008 C1006 1.395 . S
C1008 C1011 1.403 . S
C1009 C1006 1.403 . S
C1009 C1010 1.524 . S
C1009 C1013 1.400 . S
C1010 H995 0.960 . S
C1010 H996 0.960 . S
C1010 H997 0.960 . S
C1010 C1009 1.524 . S
C1011 C1008 1.403 . S
C1011 C1012 1.392 . S
C1011 C1015 1.495 . S
C1012 C1011 1.392 . S
C1012 C1013 1.385 . S
C1012 C1014 1.478 . S
C1013 H1007 0.930 . S
C1013 C1009 1.400 . S
C1013 C1012 1.385 . S
C1014 C1012 1.478 . S
C1014 C1016 1.381 . S
C1014 C1020 1.383 . S
C1015 C1011 1.495 . S
C1015 H1021 0.959 . S
C1015 H1022 0.961 . S
C1015 H1023 0.960 . S
C1016 C1014 1.381 . S
C1016 C1017 1.394 . S
C1016 H1024 0.930 . S
C1017 C1016 1.394 . S
C1017 C1018 1.383 . S
C1017 H1025 0.929 . S
C1018 C1017 1.383 . S
C1018 C1019 1.377 . S
C1019 H1003 0.930 . S
C1019 C1018 1.377 . S
C1019 C1020 1.379 . S
C1020 H1004 0.931 . S
C1020 C1014 1.383 . S
C1020 C1019 1.379 . S
H1021 C1015 0.959 . S
H1022 C1015 0.961 . S
H1023 C1015 0.960 . S
H1024 C1016 0.930 . S
H1025 C1017 0.929 . S
H1026 C1034 0.929 . S
H1027 C1036 0.930 . S
H1028 C1038 0.930 . S
H1029 C1041 0.929 . S
H1030 C1044 0.930 . S
H1031 C1046 0.960 . S
H1032 C1046 0.960 . S
H1033 C1046 0.960 . S
C1034 H1026 0.929 . S
C1034 C1035 1.377 . S
C1034 C1036 1.384 . S
C1035 C1034 1.377 . S
C1035 C1041 1.390 . S
C1036 H1027 0.930 . S
C1036 C1034 1.384 . S
C1036 C1037 1.372 . S
C1037 C1036 1.372 . S
C1037 C1038 1.400 . S
C1037 C1042 1.490 . S
C1038 H1028 0.930 . S
C1038 C1037 1.400 . S
C1038 C1041 1.386 . S
H1039 C1055 0.930 . S
H1040 C1056 0.931 . S
C1041 H1029 0.929 . S
C1041 C1035 1.390 . S
C1041 C1038 1.386 . S
C1042 C1037 1.490 . S
C1042 C1044 1.395 . S
C1042 C1045 1.403 . S
H1043 C1049 0.930 . S
C1044 H1030 0.930 . S
C1044 C1042 1.395 . S
C1044 C1047 1.403 . S
C1045 C1042 1.403 . S
C1045 C1046 1.524 . S
C1045 C1049 1.400 . S
C1046 H1031 0.960 . S
C1046 H1032 0.960 . S
C1046 H1033 0.960 . S
C1046 C1045 1.524 . S
C1047 C1044 1.403 . S
C1047 C1048 1.392 . S
C1047 C1051 1.495 . S
C1048 C1047 1.392 . S
C1048 C1049 1.385 . S
C1048 C1050 1.478 . S
C1049 H1043 0.930 . S
C1049 C1045 1.400 . S
C1049 C1048 1.385 . S
C1050 C1048 1.478 . S
C1050 C1052 1.381 . S
C1050 C1056 1.383 . S
C1051 C1047 1.495 . S
C1051 H1057 0.959 . S
C1051 H1058 0.961 . S
C1051 H1059 0.960 . S
C1052 C1050 1.381 . S
C1052 C1053 1.394 . S
C1052 H1060 0.930 . S
C1053 C1052 1.394 . S
C1053 C1054 1.383 . S
C1053 H1061 0.929 . S
C1054 C1053 1.383 . S
C1054 C1055 1.377 . S
C1055 H1039 0.930 . S
C1055 C1054 1.377 . S
C1055 C1056 1.379 . S
C1056 H1040 0.931 . S
C1056 C1050 1.383 . S
C1056 C1055 1.379 . S
H1057 C1051 0.959 . S
H1058 C1051 0.961 . S
H1059 C1051 0.960 . S
H1060 C1052 0.930 . S
H1061 C1053 0.929 . S
H1062 C1070 0.929 . S
H1063 C1072 0.930 . S
H1064 C1074 0.930 . S
H1065 C1077 0.929 . S
H1066 C1080 0.930 . S
H1067 C1082 0.960 . S
H1068 C1082 0.960 . S
H1069 C1082 0.960 . S
C1070 H1062 0.929 . S
C1070 C1071 1.377 . S
C1070 C1072 1.384 . S
C1071 C1070 1.377 . S
C1071 C1077 1.390 . S
C1072 H1063 0.930 . S
C1072 C1070 1.384 . S
C1072 C1073 1.372 . S
C1073 C1072 1.372 . S
C1073 C1074 1.400 . S
C1073 C1078 1.490 . S
C1074 H1064 0.930 . S
C1074 C1073 1.400 . S
C1074 C1077 1.386 . S
H1075 C1091 0.930 . S
H1076 C1092 0.931 . S
C1077 H1065 0.929 . S
C1077 C1071 1.390 . S
C1077 C1074 1.386 . S
C1078 C1073 1.490 . S
C1078 C1080 1.395 . S
C1078 C1081 1.403 . S
H1079 C1085 0.930 . S
C1080 H1066 0.930 . S
C1080 C1078 1.395 . S
C1080 C1083 1.403 . S
C1081 C1078 1.403 . S
C1081 C1082 1.524 . S
C1081 C1085 1.400 . S
C1082 H1067 0.960 . S
C1082 H1068 0.960 . S
C1082 H1069 0.960 . S
C1082 C1081 1.524 . S
C1083 C1080 1.403 . S
C1083 C1084 1.392 . S
C1083 C1087 1.495 . S
C1084 C1083 1.392 . S
C1084 C1085 1.385 . S
C1084 C1086 1.478 . S
C1085 H1079 0.930 . S
C1085 C1081 1.400 . S
C1085 C1084 1.385 . S
C1086 C1084 1.478 . S
C1086 C1088 1.381 . S
C1086 C1092 1.383 . S
C1087 C1083 1.495 . S
C1087 H1093 0.959 . S
C1087 H1094 0.961 . S
C1087 H1095 0.960 . S
C1088 C1086 1.381 . S
C1088 C1089 1.394 . S
C1088 H1096 0.930 . S
C1089 C1088 1.394 . S
C1089 C1090 1.383 . S
C1089 H1097 0.929 . S
C1090 C1089 1.383 . S
C1090 C1091 1.377 . S
C1091 H1075 0.930 . S
C1091 C1090 1.377 . S
C1091 C1092 1.379 . S
C1092 H1076 0.931 . S
C1092 C1086 1.383 . S
C1092 C1091 1.379 . S
H1093 C1087 0.959 . S
H1094 C1087 0.961 . S
H1095 C1087 0.960 . S
H1096 C1088 0.930 . S
H1097 C1089 0.929 . S
H1098 C1106 0.929 . S
H1099 C1108 0.930 . S
H1100 C1110 0.930 . S
H1101 C1113 0.929 . S
H1102 C1116 0.930 . S
H1103 C1118 0.960 . S
H1104 C1118 0.960 . S
H1105 C1118 0.960 . S
C1106 H1098 0.929 . S
C1106 C1107 1.377 . S
C1106 C1108 1.384 . S
C1107 C1106 1.377 . S
C1107 C1113 1.390 . S
C1108 H1099 0.930 . S
C1108 C1106 1.384 . S
C1108 C1109 1.372 . S
C1109 C1108 1.372 . S
C1109 C1110 1.400 . S
C1109 C1114 1.490 . S
C1110 H1100 0.930 . S
C1110 C1109 1.400 . S
C1110 C1113 1.386 . S
H1111 C1127 0.930 . S
H1112 C1128 0.931 . S
C1113 H1101 0.929 . S
C1113 C1107 1.390 . S
C1113 C1110 1.386 . S
C1114 C1109 1.490 . S
C1114 C1116 1.395 . S
C1114 C1117 1.403 . S
H1115 C1121 0.930 . S
C1116 H1102 0.930 . S
C1116 C1114 1.395 . S
C1116 C1119 1.403 . S
C1117 C1114 1.403 . S
C1117 C1118 1.524 . S
C1117 C1121 1.400 . S
C1118 H1103 0.960 . S
C1118 H1104 0.960 . S
C1118 H1105 0.960 . S
C1118 C1117 1.524 . S
C1119 C1116 1.403 . S
C1119 C1120 1.392 . S
C1119 C1123 1.495 . S
C1120 C1119 1.392 . S
C1120 C1121 1.385 . S
C1120 C1122 1.478 . S
C1121 H1115 0.930 . S
C1121 C1117 1.400 . S
C1121 C1120 1.385 . S
C1122 C1120 1.478 . S
C1122 C1124 1.381 . S
C1122 C1128 1.383 . S
C1123 C1119 1.495 . S
C1123 H1129 0.959 . S
C1123 H1130 0.961 . S
C1123 H1131 0.960 . S
C1124 C1122 1.381 . S
C1124 C1125 1.394 . S
C1124 H1132 0.930 . S
C1125 C1124 1.394 . S
C1125 C1126 1.383 . S
C1125 H1133 0.929 . S
C1126 C1125 1.383 . S
C1126 C1127 1.377 . S
C1127 H1111 0.930 . S
C1127 C1126 1.377 . S
C1127 C1128 1.379 . S
C1128 H1112 0.931 . S
C1128 C1122 1.383 . S
C1128 C1127 1.379 . S
H1129 C1123 0.959 . S
H1130 C1123 0.961 . S
H1131 C1123 0.960 . S
H1132 C1124 0.930 . S
H1133 C1125 0.929 . S
H1134 C1142 0.929 . S
H1135 C1144 0.930 . S
H1136 C1146 0.930 . S
H1137 C1149 0.929 . S
H1138 C1152 0.930 . S
H1139 C1154 0.960 . S
H1140 C1154 0.960 . S
H1141 C1154 0.960 . S
C1142 H1134 0.929 . S
C1142 C1143 1.377 . S
C1142 C1144 1.384 . S
C1143 C1142 1.377 . S
C1143 C1149 1.390 . S
C1144 H1135 0.930 . S
C1144 C1142 1.384 . S
C1144 C1145 1.372 . S
C1145 C1144 1.372 . S
C1145 C1146 1.400 . S
C1145 C1150 1.490 . S
C1146 H1136 0.930 . S
C1146 C1145 1.400 . S
C1146 C1149 1.386 . S
H1147 C1163 0.930 . S
H1148 C1164 0.931 . S
C1149 H1137 0.929 . S
C1149 C1143 1.390 . S
C1149 C1146 1.386 . S
C1150 C1145 1.490 . S
C1150 C1152 1.395 . S
C1150 C1153 1.403 . S
H1151 C1157 0.930 . S
C1152 H1138 0.930 . S
C1152 C1150 1.395 . S
C1152 C1155 1.403 . S
C1153 C1150 1.403 . S
C1153 C1154 1.524 . S
C1153 C1157 1.400 . S
C1154 H1139 0.960 . S
C1154 H1140 0.960 . S
C1154 H1141 0.960 . S
C1154 C1153 1.524 . S
C1155 C1152 1.403 . S
C1155 C1156 1.392 . S
C1155 C1159 1.495 . S
C1156 C1155 1.392 . S
C1156 C1157 1.385 . S
C1156 C1158 1.478 . S
C1157 H1151 0.930 . S
C1157 C1153 1.400 . S
C1157 C1156 1.385 . S
C1158 C1156 1.478 . S
C1158 C1160 1.381 . S
C1158 C1164 1.383 . S
C1159 C1155 1.495 . S
C1159 H1165 0.959 . S
C1159 H1166 0.961 . S
C1159 H1167 0.960 . S
C1160 C1158 1.381 . S
C1160 C1161 1.394 . S
C1160 H1168 0.930 . S
C1161 C1160 1.394 . S
C1161 C1162 1.383 . S
C1161 H1169 0.929 . S
C1162 C1161 1.383 . S
C1162 C1163 1.377 . S
C1163 H1147 0.930 . S
C1163 C1162 1.377 . S
C1163 C1164 1.379 . S
C1164 H1148 0.931 . S
C1164 C1158 1.383 . S
C1164 C1163 1.379 . S
H1165 C1159 0.959 . S
H1166 C1159 0.961 . S
H1167 C1159 0.960 . S
H1168 C1160 0.930 . S
H1169 C1161 0.929 . S
H1170 C1178 0.929 . S
H1171 C1180 0.930 . S
H1172 C1182 0.930 . S
H1173 C1185 0.929 . S
H1174 C1188 0.930 . S
H1175 C1190 0.960 . S
H1176 C1190 0.960 . S
H1177 C1190 0.960 . S
C1178 H1170 0.929 . S
C1178 C1179 1.377 . S
C1178 C1180 1.384 . S
C1179 C1178 1.377 . S
C1179 C1185 1.390 . S
C1180 H1171 0.930 . S
C1180 C1178 1.384 . S
C1180 C1181 1.372 . S
C1181 C1180 1.372 . S
C1181 C1182 1.400 . S
C1181 C1186 1.490 . S
C1182 H1172 0.930 . S
C1182 C1181 1.400 . S
C1182 C1185 1.386 . S
H1183 C1199 0.930 . S
H1184 C1200 0.931 . S
C1185 H1173 0.929 . S
C1185 C1179 1.390 . S
C1185 C1182 1.386 . S
C1186 C1181 1.490 . S
C1186 C1188 1.395 . S
C1186 C1189 1.403 . S
H1187 C1193 0.930 . S
C1188 H1174 0.930 . S
C1188 C1186 1.395 . S
C1188 C1191 1.403 . S
C1189 C1186 1.403 . S
C1189 C1190 1.524 . S
C1189 C1193 1.400 . S
C1190 H1175 0.960 . S
C1190 H1176 0.960 . S
C1190 H1177 0.960 . S
C1190 C1189 1.524 . S
C1191 C1188 1.403 . S
C1191 C1192 1.392 . S
C1191 C1195 1.495 . S
C1192 C1191 1.392 . S
C1192 C1193 1.385 . S
C1192 C1194 1.478 . S
C1193 H1187 0.930 . S
C1193 C1189 1.400 . S
C1193 C1192 1.385 . S
C1194 C1192 1.478 . S
C1194 C1196 1.381 . S
C1194 C1200 1.383 . S
C1195 C1191 1.495 . S
C1195 H1201 0.959 . S
C1195 H1202 0.961 . S
C1195 H1203 0.960 . S
C1196 C1194 1.381 . S
C1196 C1197 1.394 . S
C1196 H1204 0.930 . S
C1197 C1196 1.394 . S
C1197 C1198 1.383 . S
C1197 H1205 0.929 . S
C1198 C1197 1.383 . S
C1198 C1199 1.377 . S
C1199 H1183 0.930 . S
C1199 C1198 1.377 . S
C1199 C1200 1.379 . S
C1200 H1184 0.931 . S
C1200 C1194 1.383 . S
C1200 C1199 1.379 . S
H1201 C1195 0.959 . S
H1202 C1195 0.961 . S
H1203 C1195 0.960 . S
H1204 C1196 0.930 . S
H1205 C1197 0.929 . S
H1206 C1214 0.929 . S
H1207 C1216 0.930 . S
H1208 C1218 0.930 . S
H1209 C1221 0.929 . S
H1210 C1224 0.930 . S
H1211 C1226 0.960 . S
H1212 C1226 0.960 . S
H1213 C1226 0.960 . S
C1214 H1206 0.929 . S
C1214 C1215 1.377 . S
C1214 C1216 1.384 . S
C1215 C1214 1.377 . S
C1215 C1221 1.390 . S
C1216 H1207 0.930 . S
C1216 C1214 1.384 . S
C1216 C1217 1.372 . S
C1217 C1216 1.372 . S
C1217 C1218 1.400 . S
C1217 C1222 1.490 . S
C1218 H1208 0.930 . S
C1218 C1217 1.400 . S
C1218 C1221 1.386 . S
H1219 C1235 0.930 . S
H1220 C1236 0.931 . S
C1221 H1209 0.929 . S
C1221 C1215 1.390 . S
C1221 C1218 1.386 . S
C1222 C1217 1.490 . S
C1222 C1224 1.395 . S
C1222 C1225 1.403 . S
H1223 C1229 0.930 . S
C1224 H1210 0.930 . S
C1224 C1222 1.395 . S
C1224 C1227 1.403 . S
C1225 C1222 1.403 . S
C1225 C1226 1.524 . S
C1225 C1229 1.400 . S
C1226 H1211 0.960 . S
C1226 H1212 0.960 . S
C1226 H1213 0.960 . S
C1226 C1225 1.524 . S
C1227 C1224 1.403 . S
C1227 C1228 1.392 . S
C1227 C1231 1.495 . S
C1228 C1227 1.392 . S
C1228 C1229 1.385 . S
C1228 C1230 1.478 . S
C1229 H1223 0.930 . S
C1229 C1225 1.400 . S
C1229 C1228 1.385 . S
C1230 C1228 1.478 . S
C1230 C1232 1.381 . S
C1230 C1236 1.383 . S
C1231 C1227 1.495 . S
C1231 H1237 0.959 . S
C1231 H1238 0.961 . S
C1231 H1239 0.960 . S
C1232 C1230 1.381 . S
C1232 C1233 1.394 . S
C1232 H1240 0.930 . S
C1233 C1232 1.394 . S
C1233 C1234 1.383 . S
C1233 H1241 0.929 . S
C1234 C1233 1.383 . S
C1234 C1235 1.377 . S
C1235 H1219 0.930 . S
C1235 C1234 1.377 . S
C1235 C1236 1.379 . S
C1236 H1220 0.931 . S
C1236 C1230 1.383 . S
C1236 C1235 1.379 . S
H1237 C1231 0.959 . S
H1238 C1231 0.961 . S
H1239 C1231 0.960 . S
H1240 C1232 0.930 . S
H1241 C1233 0.929 . S
H1242 C1250 0.929 . S
H1243 C1252 0.930 . S
H1244 C1254 0.930 . S
H1245 C1257 0.929 . S
H1246 C1260 0.930 . S
H1247 C1262 0.960 . S
H1248 C1262 0.960 . S
H1249 C1262 0.960 . S
C1250 H1242 0.929 . S
C1250 C1251 1.377 . S
C1250 C1252 1.384 . S
C1251 C1250 1.377 . S
C1251 C1257 1.390 . S
C1252 H1243 0.930 . S
C1252 C1250 1.384 . S
C1252 C1253 1.372 . S
C1253 C1252 1.372 . S
C1253 C1254 1.400 . S
C1253 C1258 1.490 . S
C1254 H1244 0.930 . S
C1254 C1253 1.400 . S
C1254 C1257 1.386 . S
H1255 C1271 0.930 1_556 S
H1256 C1272 0.931 . S
C1257 H1245 0.929 . S
C1257 C1251 1.390 . S
C1257 C1254 1.386 . S
C1258 C1253 1.490 . S
C1258 C1260 1.395 . S
C1258 C1261 1.403 . S
H1259 C1265 0.930 . S
C1260 H1246 0.930 . S
C1260 C1258 1.395 . S
C1260 C1263 1.403 . S
C1261 C1258 1.403 . S
C1261 C1262 1.524 . S
C1261 C1265 1.400 . S
C1262 H1247 0.960 . S
C1262 H1248 0.960 . S
C1262 H1249 0.960 . S
C1262 C1261 1.524 . S
C1263 C1260 1.403 . S
C1263 C1264 1.392 . S
C1263 C1267 1.495 . S
C1264 C1263 1.392 . S
C1264 C1265 1.385 . S
C1264 C1266 1.478 . S
C1265 H1259 0.930 . S
C1265 C1261 1.400 . S
C1265 C1264 1.385 . S
C1266 C1264 1.478 . S
C1266 C1268 1.381 . S
C1266 C1272 1.383 . S
C1267 C1263 1.495 . S
C1267 H1273 0.959 . S
C1267 H1274 0.961 . S
C1267 H1275 0.960 . S
C1268 C1266 1.381 . S
C1268 C1269 1.394 . S
C1268 H1276 0.930 . S
C1269 C1268 1.394 . S
C1269 C1270 1.383 . S
C1269 H1277 0.929 . S
C1270 C1269 1.383 . S
C1270 C1271 1.377 . S
C1271 H1255 0.930 1_554 S
C1271 C1270 1.377 . S
C1271 C1272 1.379 . S
C1272 H1256 0.931 . S
C1272 C1266 1.383 . S
C1272 C1271 1.379 . S
H1273 C1267 0.959 . S
H1274 C1267 0.961 . S
H1275 C1267 0.960 . S
H1276 C1268 0.930 . S
H1277 C1269 0.929 . S
H1278 C1286 0.929 . S
H1279 C1288 0.930 . S
H1280 C1290 0.930 . S
H1281 C1293 0.929 . S
H1282 C1296 0.930 . S
H1283 C1298 0.960 . S
H1284 C1298 0.960 . S
H1285 C1298 0.960 . S
C1286 H1278 0.929 . S
C1286 C1287 1.377 . S
C1286 C1288 1.384 . S
C1287 C1286 1.377 . S
C1287 C1293 1.390 . S
C1288 H1279 0.930 . S
C1288 C1286 1.384 . S
C1288 C1289 1.372 . S
C1289 C1288 1.372 . S
C1289 C1290 1.400 . S
C1289 C1294 1.490 . S
C1290 H1280 0.930 . S
C1290 C1289 1.400 . S
C1290 C1293 1.386 . S
H1291 C1307 0.930 1_556 S
H1292 C1308 0.931 . S
C1293 H1281 0.929 . S
C1293 C1287 1.390 . S
C1293 C1290 1.386 . S
C1294 C1289 1.490 . S
C1294 C1296 1.395 . S
C1294 C1297 1.403 . S
H1295 C1301 0.930 . S
C1296 H1282 0.930 . S
C1296 C1294 1.395 . S
C1296 C1299 1.403 . S
C1297 C1294 1.403 . S
C1297 C1298 1.524 . S
C1297 C1301 1.400 . S
C1298 H1283 0.960 . S
C1298 H1284 0.960 . S
C1298 H1285 0.960 . S
C1298 C1297 1.524 . S
C1299 C1296 1.403 . S
C1299 C1300 1.392 . S
C1299 C1303 1.495 . S
C1300 C1299 1.392 . S
C1300 C1301 1.385 . S
C1300 C1302 1.478 . S
C1301 H1295 0.930 . S
C1301 C1297 1.400 . S
C1301 C1300 1.385 . S
C1302 C1300 1.478 . S
C1302 C1304 1.381 . S
C1302 C1308 1.383 . S
C1303 C1299 1.495 . S
C1303 H1309 0.959 . S
C1303 H1310 0.961 . S
C1303 H1311 0.960 . S
C1304 C1302 1.381 . S
C1304 C1305 1.394 . S
C1304 H1312 0.930 . S
C1305 C1304 1.394 . S
C1305 C1306 1.383 . S
C1305 H1313 0.929 . S
C1306 C1305 1.383 . S
C1306 C1307 1.377 . S
C1307 H1291 0.930 1_554 S
C1307 C1306 1.377 . S
C1307 C1308 1.379 . S
C1308 H1292 0.931 . S
C1308 C1302 1.383 . S
C1308 C1307 1.379 . S
H1309 C1303 0.959 . S
H1310 C1303 0.961 . S
H1311 C1303 0.960 . S
H1312 C1304 0.930 . S
H1313 C1305 0.929 . S
H1314 C1322 0.929 . S
H1315 C1324 0.930 . S
H1316 C1326 0.930 . S
H1317 C1329 0.929 . S
H1318 C1332 0.930 . S
H1319 C1334 0.960 . S
H1320 C1334 0.960 . S
H1321 C1334 0.960 . S
C1322 H1314 0.929 . S
C1322 C1323 1.377 . S
C1322 C1324 1.384 . S
C1323 C1322 1.377 . S
C1323 C1329 1.390 . S
C1324 H1315 0.930 . S
C1324 C1322 1.384 . S
C1324 C1325 1.372 . S
C1325 C1324 1.372 . S
C1325 C1326 1.400 . S
C1325 C1330 1.490 . S
C1326 H1316 0.930 . S
C1326 C1325 1.400 . S
C1326 C1329 1.386 . S
H1327 C1343 0.930 . S
H1328 C1344 0.931 . S
C1329 H1317 0.929 . S
C1329 C1323 1.390 . S
C1329 C1326 1.386 . S
C1330 C1325 1.490 . S
C1330 C1332 1.395 . S
C1330 C1333 1.403 . S
H1331 C1337 0.930 . S
C1332 H1318 0.930 . S
C1332 C1330 1.395 . S
C1332 C1335 1.403 . S
C1333 C1330 1.403 . S
C1333 C1334 1.524 . S
C1333 C1337 1.400 . S
C1334 H1319 0.960 . S
C1334 H1320 0.960 . S
C1334 H1321 0.960 . S
C1334 C1333 1.524 . S
C1335 C1332 1.403 . S
C1335 C1336 1.392 . S
C1335 C1339 1.495 . S
C1336 C1335 1.392 . S
C1336 C1337 1.385 . S
C1336 C1338 1.478 . S
C1337 H1331 0.930 . S
C1337 C1333 1.400 . S
C1337 C1336 1.385 . S
C1338 C1336 1.478 . S
C1338 C1340 1.381 . S
C1338 C1344 1.383 . S
C1339 C1335 1.495 . S
C1339 H1345 0.959 . S
C1339 H1346 0.961 . S
C1339 H1347 0.960 . S
C1340 C1338 1.381 . S
C1340 C1341 1.394 . S
C1340 H1348 0.930 . S
C1341 C1340 1.394 . S
C1341 C1342 1.383 . S
C1341 H1349 0.929 . S
C1342 C1341 1.383 . S
C1342 C1343 1.377 . S
C1343 H1327 0.930 . S
C1343 C1342 1.377 . S
C1343 C1344 1.379 . S
C1344 H1328 0.931 . S
C1344 C1338 1.383 . S
C1344 C1343 1.379 . S
H1345 C1339 0.959 . S
H1346 C1339 0.961 . S
H1347 C1339 0.960 . S
H1348 C1340 0.930 . S
H1349 C1341 0.929 . S
H1350 C1358 0.929 . S
H1351 C1360 0.930 . S
H1352 C1362 0.930 . S
H1353 C1365 0.929 . S
H1354 C1368 0.930 . S
H1355 C1370 0.960 . S
H1356 C1370 0.960 . S
H1357 C1370 0.960 . S
C1358 H1350 0.929 . S
C1358 C1359 1.377 . S
C1358 C1360 1.384 . S
C1359 C1358 1.377 . S
C1359 C1365 1.390 . S
C1360 H1351 0.930 . S
C1360 C1358 1.384 . S
C1360 C1361 1.372 . S
C1361 C1360 1.372 . S
C1361 C1362 1.400 . S
C1361 C1366 1.490 . S
C1362 H1352 0.930 . S
C1362 C1361 1.400 . S
C1362 C1365 1.386 . S
H1363 C1379 0.930 . S
H1364 C1380 0.931 . S
C1365 H1353 0.929 . S
C1365 C1359 1.390 . S
C1365 C1362 1.386 . S
C1366 C1361 1.490 . S
C1366 C1368 1.395 . S
C1366 C1369 1.403 . S
H1367 C1373 0.930 . S
C1368 H1354 0.930 . S
C1368 C1366 1.395 . S
C1368 C1371 1.403 . S
C1369 C1366 1.403 . S
C1369 C1370 1.524 . S
C1369 C1373 1.400 . S
C1370 H1355 0.960 . S
C1370 H1356 0.960 . S
C1370 H1357 0.960 . S
C1370 C1369 1.524 . S
C1371 C1368 1.403 . S
C1371 C1372 1.392 . S
C1371 C1375 1.495 . S
C1372 C1371 1.392 . S
C1372 C1373 1.385 . S
C1372 C1374 1.478 . S
C1373 H1367 0.930 . S
C1373 C1369 1.400 . S
C1373 C1372 1.385 . S
C1374 C1372 1.478 . S
C1374 C1376 1.381 . S
C1374 C1380 1.383 . S
C1375 C1371 1.495 . S
C1375 H1381 0.959 . S
C1375 H1382 0.961 . S
C1375 H1383 0.960 . S
C1376 C1374 1.381 . S
C1376 C1377 1.394 . S
C1376 H1384 0.930 . S
C1377 C1376 1.394 . S
C1377 C1378 1.383 . S
C1377 H1385 0.929 . S
C1378 C1377 1.383 . S
C1378 C1379 1.377 . S
C1379 H1363 0.930 . S
C1379 C1378 1.377 . S
C1379 C1380 1.379 . S
C1380 H1364 0.931 . S
C1380 C1374 1.383 . S
C1380 C1379 1.379 . S
H1381 C1375 0.959 . S
H1382 C1375 0.961 . S
H1383 C1375 0.960 . S
H1384 C1376 0.930 . S
H1385 C1377 0.929 . S
H1386 C1394 0.929 . S
H1387 C1396 0.930 . S
H1388 C1398 0.930 . S
H1389 C1401 0.929 . S
H1390 C1404 0.930 . S
H1391 C1406 0.960 . S
H1392 C1406 0.960 . S
H1393 C1406 0.960 . S
C1394 H1386 0.929 . S
C1394 C1395 1.377 . S
C1394 C1396 1.384 . S
C1395 C1394 1.377 . S
C1395 C1401 1.390 . S
C1396 H1387 0.930 . S
C1396 C1394 1.384 . S
C1396 C1397 1.372 . S
C1397 C1396 1.372 . S
C1397 C1398 1.400 . S
C1397 C1402 1.490 . S
C1398 H1388 0.930 . S
C1398 C1397 1.400 . S
C1398 C1401 1.386 . S
H1399 C1415 0.930 . S
H1400 C1416 0.931 . S
C1401 H1389 0.929 . S
C1401 C1395 1.390 . S
C1401 C1398 1.386 . S
C1402 C1397 1.490 . S
C1402 C1404 1.395 . S
C1402 C1405 1.403 . S
H1403 C1409 0.930 . S
C1404 H1390 0.930 . S
C1404 C1402 1.395 . S
C1404 C1407 1.403 . S
C1405 C1402 1.403 . S
C1405 C1406 1.524 . S
C1405 C1409 1.400 . S
C1406 H1391 0.960 . S
C1406 H1392 0.960 . S
C1406 H1393 0.960 . S
C1406 C1405 1.524 . S
C1407 C1404 1.403 . S
C1407 C1408 1.392 . S
C1407 C1411 1.495 . S
C1408 C1407 1.392 . S
C1408 C1409 1.385 . S
C1408 C1410 1.478 . S
C1409 H1403 0.930 . S
C1409 C1405 1.400 . S
C1409 C1408 1.385 . S
C1410 C1408 1.478 . S
C1410 C1412 1.381 . S
C1410 C1416 1.383 . S
C1411 C1407 1.495 . S
C1411 H1417 0.959 . S
C1411 H1418 0.961 . S
C1411 H1419 0.960 . S
C1412 C1410 1.381 . S
C1412 C1413 1.394 . S
C1412 H1420 0.930 . S
C1413 C1412 1.394 . S
C1413 C1414 1.383 . S
C1413 H1421 0.929 . S
C1414 C1413 1.383 . S
C1414 C1415 1.377 . S
C1415 H1399 0.930 . S
C1415 C1414 1.377 . S
C1415 C1416 1.379 . S
C1416 H1400 0.931 . S
C1416 C1410 1.383 . S
C1416 C1415 1.379 . S
H1417 C1411 0.959 . S
H1418 C1411 0.961 . S
H1419 C1411 0.960 . S
H1420 C1412 0.930 . S
H1421 C1413 0.929 . S
H1422 C1430 0.929 . S
H1423 C1432 0.930 . S
H1424 C1434 0.930 . S
H1425 C1437 0.929 . S
H1426 C1440 0.930 . S
H1427 C1442 0.960 . S
H1428 C1442 0.960 . S
H1429 C1442 0.960 . S
C1430 H1422 0.929 . S
C1430 C1431 1.377 . S
C1430 C1432 1.384 . S
C1431 C1430 1.377 . S
C1431 C1437 1.390 . S
C1432 H1423 0.930 . S
C1432 C1430 1.384 . S
C1432 C1433 1.372 . S
C1433 C1432 1.372 . S
C1433 C1434 1.400 . S
C1433 C1438 1.490 . S
C1434 H1424 0.930 . S
C1434 C1433 1.400 . S
C1434 C1437 1.386 . S
H1435 C1451 0.930 . S
H1436 C1452 0.931 . S
C1437 H1425 0.929 . S
C1437 C1431 1.390 . S
C1437 C1434 1.386 . S
C1438 C1433 1.490 . S
C1438 C1440 1.395 . S
C1438 C1441 1.403 . S
H1439 C1445 0.930 . S
C1440 H1426 0.930 . S
C1440 C1438 1.395 . S
C1440 C1443 1.403 . S
C1441 C1438 1.403 . S
C1441 C1442 1.524 . S
C1441 C1445 1.400 . S
C1442 H1427 0.960 . S
C1442 H1428 0.960 . S
C1442 H1429 0.960 . S
C1442 C1441 1.524 . S
C1443 C1440 1.403 . S
C1443 C1444 1.392 . S
C1443 C1447 1.495 . S
C1444 C1443 1.392 . S
C1444 C1445 1.385 . S
C1444 C1446 1.478 . S
C1445 H1439 0.930 . S
C1445 C1441 1.400 . S
C1445 C1444 1.385 . S
C1446 C1444 1.478 . S
C1446 C1448 1.381 . S
C1446 C1452 1.383 . S
C1447 C1443 1.495 . S
C1447 H1453 0.959 . S
C1447 H1454 0.961 . S
C1447 H1455 0.960 . S
C1448 C1446 1.381 . S
C1448 C1449 1.394 . S
C1448 H1456 0.930 . S
C1449 C1448 1.394 . S
C1449 C1450 1.383 . S
C1449 H1457 0.929 . S
C1450 C1449 1.383 . S
C1450 C1451 1.377 . S
C1451 H1435 0.930 . S
C1451 C1450 1.377 . S
C1451 C1452 1.379 . S
C1452 H1436 0.931 . S
C1452 C1446 1.383 . S
C1452 C1451 1.379 . S
H1453 C1447 0.959 . S
H1454 C1447 0.961 . S
H1455 C1447 0.960 . S
H1456 C1448 0.930 . S
H1457 C1449 0.929 . S
H1458 C1466 0.929 . S
H1459 C1468 0.930 . S
H1460 C1470 0.930 . S
H1461 C1473 0.929 . S
H1462 C1476 0.930 . S
H1463 C1478 0.960 . S
H1464 C1478 0.960 . S
H1465 C1478 0.960 . S
C1466 H1458 0.929 . S
C1466 C1467 1.377 . S
C1466 C1468 1.384 . S
C1467 C1466 1.377 . S
C1467 C1473 1.390 . S
C1468 H1459 0.930 . S
C1468 C1466 1.384 . S
C1468 C1469 1.372 . S
C1469 C1468 1.372 . S
C1469 C1470 1.400 . S
C1469 C1474 1.490 . S
C1470 H1460 0.930 . S
C1470 C1469 1.400 . S
C1470 C1473 1.386 . S
H1471 C1487 0.930 1_554 S
H1472 C1488 0.931 . S
C1473 H1461 0.929 . S
C1473 C1467 1.390 . S
C1473 C1470 1.386 . S
C1474 C1469 1.490 . S
C1474 C1476 1.395 . S
C1474 C1477 1.403 . S
H1475 C1481 0.930 . S
C1476 H1462 0.930 . S
C1476 C1474 1.395 . S
C1476 C1479 1.403 . S
C1477 C1474 1.403 . S
C1477 C1478 1.524 . S
C1477 C1481 1.400 . S
C1478 H1463 0.960 . S
C1478 H1464 0.960 . S
C1478 H1465 0.960 . S
C1478 C1477 1.524 . S
C1479 C1476 1.403 . S
C1479 C1480 1.392 . S
C1479 C1483 1.495 . S
C1480 C1479 1.392 . S
C1480 C1481 1.385 . S
C1480 C1482 1.478 . S
C1481 H1475 0.930 . S
C1481 C1477 1.400 . S
C1481 C1480 1.385 . S
C1482 C1480 1.478 . S
C1482 C1484 1.381 . S
C1482 C1488 1.383 . S
C1483 C1479 1.495 . S
C1483 H1489 0.959 . S
C1483 H1490 0.961 . S
C1483 H1491 0.960 . S
C1484 C1482 1.381 . S
C1484 C1485 1.394 . S
C1484 H1492 0.930 . S
C1485 C1484 1.394 . S
C1485 C1486 1.383 . S
C1485 H1493 0.929 . S
C1486 C1485 1.383 . S
C1486 C1487 1.377 . S
C1487 H1471 0.930 1_556 S
C1487 C1486 1.377 . S
C1487 C1488 1.379 . S
C1488 H1472 0.931 . S
C1488 C1482 1.383 . S
C1488 C1487 1.379 . S
H1489 C1483 0.959 . S
H1490 C1483 0.961 . S
H1491 C1483 0.960 . S
H1492 C1484 0.930 . S
H1493 C1485 0.929 . S
H1494 C1502 0.929 . S
H1495 C1504 0.930 . S
H1496 C1506 0.930 . S
H1497 C1509 0.929 . S
H1498 C1512 0.930 . S
H1499 C1514 0.960 . S
H1500 C1514 0.960 . S
H1501 C1514 0.960 . S
C1502 H1494 0.929 . S
C1502 C1503 1.377 . S
C1502 C1504 1.384 . S
C1503 C1502 1.377 . S
C1503 C1509 1.390 . S
C1504 H1495 0.930 . S
C1504 C1502 1.384 . S
C1504 C1505 1.372 . S
C1505 C1504 1.372 . S
C1505 C1506 1.400 . S
C1505 C1510 1.490 . S
C1506 H1496 0.930 . S
C1506 C1505 1.400 . S
C1506 C1509 1.386 . S
H1507 C1523 0.930 . S
H1508 C1524 0.931 . S
C1509 H1497 0.929 . S
C1509 C1503 1.390 . S
C1509 C1506 1.386 . S
C1510 C1505 1.490 . S
C1510 C1512 1.395 . S
C1510 C1513 1.403 . S
H1511 C1517 0.930 . S
C1512 H1498 0.930 . S
C1512 C1510 1.395 . S
C1512 C1515 1.403 . S
C1513 C1510 1.403 . S
C1513 C1514 1.524 . S
C1513 C1517 1.400 . S
C1514 H1499 0.960 . S
C1514 H1500 0.960 . S
C1514 H1501 0.960 . S
C1514 C1513 1.524 . S
C1515 C1512 1.403 . S
C1515 C1516 1.392 . S
C1515 C1519 1.495 . S
C1516 C1515 1.392 . S
C1516 C1517 1.385 . S
C1516 C1518 1.478 . S
C1517 H1511 0.930 . S
C1517 C1513 1.400 . S
C1517 C1516 1.385 . S
C1518 C1516 1.478 . S
C1518 C1520 1.381 . S
C1518 C1524 1.383 . S
C1519 C1515 1.495 . S
C1519 H1525 0.959 . S
C1519 H1526 0.961 . S
C1519 H1527 0.960 . S
C1520 C1518 1.381 . S
C1520 C1521 1.394 . S
C1520 H1528 0.930 . S
C1521 C1520 1.394 . S
C1521 C1522 1.383 . S
C1521 H1529 0.929 1_556 S
C1522 C1521 1.383 . S
C1522 C1523 1.377 . S
C1523 H1507 0.930 . S
C1523 C1522 1.377 . S
C1523 C1524 1.379 . S
C1524 H1508 0.931 . S
C1524 C1518 1.383 . S
C1524 C1523 1.379 . S
H1525 C1519 0.959 . S
H1526 C1519 0.961 . S
H1527 C1519 0.960 . S
H1528 C1520 0.930 . S
H1529 C1521 0.929 1_554 S
H1530 C1538 0.929 . S
H1531 C1540 0.930 . S
H1532 C1542 0.930 . S
H1533 C1545 0.929 . S
H1534 C1548 0.930 . S
H1535 C1550 0.960 . S
H1536 C1550 0.960 . S
H1537 C1550 0.960 . S
C1538 H1530 0.929 . S
C1538 C1539 1.377 . S
C1538 C1540 1.384 . S
C1539 C1538 1.377 . S
C1539 C1545 1.390 . S
C1540 H1531 0.930 . S
C1540 C1538 1.384 . S
C1540 C1541 1.372 . S
C1541 C1540 1.372 . S
C1541 C1542 1.400 . S
C1541 C1546 1.490 . S
C1542 H1532 0.930 . S
C1542 C1541 1.400 . S
C1542 C1545 1.386 . S
H1543 C1559 0.820 1_554 S
H1544 C1560 0.931 . S
C1545 H1533 0.929 . S
C1545 C1539 1.390 . S
C1545 C1542 1.386 . S
C1546 C1541 1.490 . S
C1546 C1548 1.395 . S
C1546 C1549 1.403 . S
H1547 C1553 0.930 . S
C1548 H1534 0.930 . S
C1548 C1546 1.395 . S
C1548 C1551 1.403 . S
C1549 C1546 1.403 . S
C1549 C1550 1.524 . S
C1549 C1553 1.400 . S
C1550 H1535 0.960 . S
C1550 H1536 0.960 . S
C1550 H1537 0.960 . S
C1550 C1549 1.524 . S
C1551 C1548 1.403 . S
C1551 C1552 1.392 . S
C1551 C1555 1.495 . S
C1552 C1551 1.392 . S
C1552 C1553 1.385 . S
C1552 C1554 1.478 . S
C1553 H1547 0.930 . S
C1553 C1549 1.400 . S
C1553 C1552 1.385 . S
C1554 C1552 1.478 . S
C1554 C1556 1.381 . S
C1554 C1560 1.383 . S
C1555 C1551 1.495 . S
C1555 H1561 0.959 . S
C1555 H1562 0.961 . S
C1555 H1563 0.960 . S
C1556 C1554 1.381 . S
C1556 C1557 1.394 . S
C1556 H1564 0.930 . S
C1557 C1556 1.394 . S
C1557 C1558 1.383 . S
C1557 H1565 0.929 . S
C1558 C1557 1.383 . S
C1558 C1559 1.405 . S
C1559 H1543 0.820 1_556 S
C1559 C1558 1.405 . S
C1559 C1560 1.468 . S
C1560 H1544 0.931 . S
C1560 C1554 1.383 . S
C1560 C1559 1.468 . S
H1561 C1555 0.959 . S
H1562 C1555 0.961 . S
H1563 C1555 0.960 . S
H1564 C1556 0.930 . S
H1565 C1557 0.929 . S
H1566 C1574 0.929 . S
H1567 C1576 0.930 . S
H1568 C1578 0.930 . S
H1569 C1581 0.929 . S
H1570 C1584 0.930 . S
H1571 C1586 0.960 . S
H1572 C1586 0.960 . S
H1573 C1586 0.960 . S
C1574 H1566 0.929 . S
C1574 C1575 1.377 . S
C1574 C1576 1.384 . S
C1575 C1574 1.377 . S
C1575 C1581 1.390 . S
C1576 H1567 0.930 . S
C1576 C1574 1.384 . S
C1576 C1577 1.372 . S
C1577 C1576 1.372 . S
C1577 C1578 1.400 . S
C1577 C1582 1.490 . S
C1578 H1568 0.930 . S
C1578 C1577 1.400 . S
C1578 C1581 1.386 . S
H1579 C1595 0.930 . S
H1580 C1596 0.931 . S
C1581 H1569 0.929 . S
C1581 C1575 1.390 . S
C1581 C1578 1.386 . S
C1582 C1577 1.490 . S
C1582 C1584 1.395 . S
C1582 C1585 1.403 . S
H1583 C1589 0.930 . S
C1584 H1570 0.930 . S
C1584 C1582 1.395 . S
C1584 C1587 1.403 . S
C1585 C1582 1.403 . S
C1585 C1586 1.524 . S
C1585 C1589 1.400 . S
C1586 H1571 0.960 . S
C1586 H1572 0.960 . S
C1586 H1573 0.960 . S
C1586 C1585 1.524 . S
C1587 C1584 1.403 . S
C1587 C1588 1.392 . S
C1587 C1591 1.495 . S
C1588 C1587 1.392 . S
C1588 C1589 1.385 . S
C1588 C1590 1.478 . S
C1589 H1583 0.930 . S
C1589 C1585 1.400 . S
C1589 C1588 1.385 . S
C1590 C1588 1.478 . S
C1590 C1592 1.381 . S
C1590 C1596 1.383 . S
C1591 C1587 1.495 . S
C1591 H1597 0.959 . S
C1591 H1598 0.961 . S
C1591 H1599 0.960 . S
C1592 C1590 1.381 . S
C1592 C1593 1.394 . S
C1592 H1600 0.930 . S
C1593 C1592 1.394 . S
C1593 C1594 1.383 . S
C1593 H1601 0.929 . S
C1594 C1593 1.383 . S
C1594 C1595 1.377 . S
C1595 H1579 0.930 . S
C1595 C1594 1.377 . S
C1595 C1596 1.379 . S
C1596 H1580 0.931 . S
C1596 C1590 1.383 . S
C1596 C1595 1.379 . S
H1597 C1591 0.959 . S
H1598 C1591 0.961 . S
H1599 C1591 0.960 . S
H1600 C1592 0.930 . S
H1601 C1593 0.929 . S
H1602 C1610 0.929 . S
H1603 C1612 0.930 . S
H1604 C1614 0.930 . S
H1605 C1617 0.929 . S
H1606 C1620 0.930 . S
H1607 C1622 0.960 . S
H1608 C1622 0.960 . S
H1609 C1622 0.960 . S
C1610 H1602 0.929 . S
C1610 C1611 1.377 . S
C1610 C1612 1.384 . S
C1611 C1610 1.377 . S
C1611 C1617 1.390 . S
C1612 H1603 0.930 . S
C1612 C1610 1.384 . S
C1612 C1613 1.372 . S
C1613 C1612 1.372 . S
C1613 C1614 1.400 . S
C1613 C1618 1.490 . S
C1614 H1604 0.930 . S
C1614 C1613 1.400 . S
C1614 C1617 1.386 . S
H1615 C1631 0.930 . S
H1616 C1632 0.931 . S
C1617 H1605 0.929 . S
C1617 C1611 1.390 . S
C1617 C1614 1.386 . S
C1618 C1613 1.490 . S
C1618 C1620 1.395 . S
C1618 C1621 1.403 . S
H1619 C1625 0.930 . S
C1620 H1606 0.930 . S
C1620 C1618 1.395 . S
C1620 C1623 1.403 . S
C1621 C1618 1.403 . S
C1621 C1622 1.524 . S
C1621 C1625 1.400 . S
C1622 H1607 0.960 . S
C1622 H1608 0.960 . S
C1622 H1609 0.960 . S
C1622 C1621 1.524 . S
C1623 C1620 1.403 . S
C1623 C1624 1.392 . S
C1623 C1627 1.495 . S
C1624 C1623 1.392 . S
C1624 C1625 1.385 . S
C1624 C1626 1.478 . S
C1625 H1619 0.930 . S
C1625 C1621 1.400 . S
C1625 C1624 1.385 . S
C1626 C1624 1.478 . S
C1626 C1628 1.381 . S
C1626 C1632 1.383 . S
C1627 C1623 1.495 . S
C1627 H1633 0.959 . S
C1627 H1634 0.961 . S
C1627 H1635 0.960 . S
C1628 C1626 1.381 . S
C1628 C1629 1.394 . S
C1628 H1636 0.930 . S
C1629 C1628 1.394 . S
C1629 C1630 1.383 . S
C1629 H1637 0.929 . S
C1630 C1629 1.383 . S
C1630 C1631 1.377 . S
C1631 H1615 0.930 . S
C1631 C1630 1.377 . S
C1631 C1632 1.379 . S
C1632 H1616 0.931 . S
C1632 C1626 1.383 . S
C1632 C1631 1.379 . S
H1633 C1627 0.959 . S
H1634 C1627 0.961 . S
H1635 C1627 0.960 . S
H1636 C1628 0.930 . S
H1637 C1629 0.929 . S
H1638 C1646 0.929 . S
H1639 C1648 0.930 . S
H1640 C1650 0.930 . S
H1641 C1653 0.929 . S
H1642 C1656 0.930 . S
H1643 C1658 0.960 . S
H1644 C1658 0.960 . S
H1645 C1658 0.960 . S
C1646 H1638 0.929 . S
C1646 C1647 1.377 . S
C1646 C1648 1.384 . S
C1647 C1646 1.377 . S
C1647 C1653 1.390 . S
C1648 H1639 0.930 . S
C1648 C1646 1.384 . S
C1648 C1649 1.372 . S
C1649 C1648 1.372 . S
C1649 C1650 1.400 . S
C1649 C1654 1.490 . S
C1650 H1640 0.930 . S
C1650 C1649 1.400 . S
C1650 C1653 1.386 . S
H1651 C1667 0.930 . S
H1652 C1668 0.931 . S
C1653 H1641 0.929 . S
C1653 C1647 1.390 . S
C1653 C1650 1.386 . S
C1654 C1649 1.490 . S
C1654 C1656 1.395 . S
C1654 C1657 1.403 . S
H1655 C1661 0.930 . S
C1656 H1642 0.930 . S
C1656 C1654 1.395 . S
C1656 C1659 1.403 . S
C1657 C1654 1.403 . S
C1657 C1658 1.524 . S
C1657 C1661 1.400 . S
C1658 H1643 0.960 . S
C1658 H1644 0.960 . S
C1658 H1645 0.960 . S
C1658 C1657 1.524 . S
C1659 C1656 1.403 . S
C1659 C1660 1.392 . S
C1659 C1663 1.495 . S
C1660 C1659 1.392 . S
C1660 C1661 1.385 . S
C1660 C1662 1.478 . S
C1661 H1655 0.930 . S
C1661 C1657 1.400 . S
C1661 C1660 1.385 . S
C1662 C1660 1.478 . S
C1662 C1664 1.381 . S
C1662 C1668 1.383 . S
C1663 C1659 1.495 . S
C1663 H1669 0.959 . S
C1663 H1670 0.961 . S
C1663 H1671 0.960 . S
C1664 C1662 1.381 . S
C1664 C1665 1.394 . S
C1664 H1672 0.930 . S
C1665 C1664 1.394 . S
C1665 C1666 1.383 . S
C1665 H1673 0.929 . S
C1666 C1665 1.383 . S
C1666 C1667 1.377 . S
C1667 H1651 0.930 . S
C1667 C1666 1.377 . S
C1667 C1668 1.379 . S
C1668 H1652 0.931 . S
C1668 C1662 1.383 . S
C1668 C1667 1.379 . S
H1669 C1663 0.959 . S
H1670 C1663 0.961 . S
H1671 C1663 0.960 . S
H1672 C1664 0.930 . S
H1673 C1665 0.929 . S
H1674 C1682 0.929 . S
H1675 C1684 0.930 . S
H1676 C1686 0.930 . S
H1677 C1689 0.929 . S
H1678 C1692 0.930 . S
H1679 C1694 0.960 . S
H1680 C1694 0.960 . S
H1681 C1694 0.960 . S
C1682 H1674 0.929 . S
C1682 C1683 1.377 . S
C1682 C1684 1.384 . S
C1683 C1682 1.377 . S
C1683 C1689 1.390 . S
C1684 H1675 0.930 . S
C1684 C1682 1.384 . S
C1684 C1685 1.372 . S
C1685 C1684 1.372 . S
C1685 C1686 1.400 . S
C1685 C1690 1.490 . S
C1686 H1676 0.930 . S
C1686 C1685 1.400 . S
C1686 C1689 1.386 . S
H1687 C1703 0.930 . S
H1688 C1704 0.931 . S
C1689 H1677 0.929 . S
C1689 C1683 1.390 . S
C1689 C1686 1.386 . S
C1690 C1685 1.490 . S
C1690 C1692 1.395 . S
C1690 C1693 1.403 . S
H1691 C1697 0.930 . S
C1692 H1678 0.930 . S
C1692 C1690 1.395 . S
C1692 C1695 1.403 . S
C1693 C1690 1.403 . S
C1693 C1694 1.524 . S
C1693 C1697 1.400 . S
C1694 H1679 0.960 . S
C1694 H1680 0.960 . S
C1694 H1681 0.960 . S
C1694 C1693 1.524 . S
C1695 C1692 1.403 . S
C1695 C1696 1.392 . S
C1695 C1699 1.495 . S
C1696 C1695 1.392 . S
C1696 C1697 1.385 . S
C1696 C1698 1.478 . S
C1697 H1691 0.930 . S
C1697 C1693 1.400 . S
C1697 C1696 1.385 . S
C1698 C1696 1.478 . S
C1698 C1700 1.381 . S
C1698 C1704 1.383 . S
C1699 C1695 1.495 . S
C1699 H1705 0.959 . S
C1699 H1706 0.961 . S
C1699 H1707 0.960 . S
C1700 C1698 1.381 . S
C1700 C1701 1.394 . S
C1700 H1708 0.930 . S
C1701 C1700 1.394 . S
C1701 C1702 1.383 . S
C1701 H1709 0.929 . S
C1702 C1701 1.383 . S
C1702 C1703 1.377 . S
C1703 H1687 0.930 . S
C1703 C1702 1.377 . S
C1703 C1704 1.379 . S
C1704 H1688 0.931 . S
C1704 C1698 1.383 . S
C1704 C1703 1.379 . S
H1705 C1699 0.959 . S
H1706 C1699 0.961 . S
H1707 C1699 0.960 . S
H1708 C1700 0.930 . S
H1709 C1701 0.929 . S
H1710 C1718 0.929 . S
H1711 C1720 0.930 . S
H1712 C1722 0.930 . S
H1713 C1725 0.929 . S
H1714 C1728 0.930 . S
H1715 C1730 0.960 . S
H1716 C1730 0.960 . S
H1717 C1730 0.960 . S
C1718 H1710 0.929 . S
C1718 C1719 1.377 . S
C1718 C1720 1.384 . S
C1719 C1718 1.377 . S
C1719 C1725 1.390 . S
C1720 H1711 0.930 . S
C1720 C1718 1.384 . S
C1720 C1721 1.372 . S
C1721 C1720 1.372 . S
C1721 C1722 1.400 . S
C1721 C1726 1.490 . S
C1722 H1712 0.930 . S
C1722 C1721 1.400 . S
C1722 C1725 1.386 . S
H1723 C1739 0.930 . S
H1724 C1740 0.931 . S
C1725 H1713 0.929 . S
C1725 C1719 1.390 . S
C1725 C1722 1.386 . S
C1726 C1721 1.490 . S
C1726 C1728 1.395 . S
C1726 C1729 1.403 . S
H1727 C1733 0.930 . S
C1728 H1714 0.930 . S
C1728 C1726 1.395 . S
C1728 C1731 1.403 . S
C1729 C1726 1.403 . S
C1729 C1730 1.524 . S
C1729 C1733 1.400 . S
C1730 H1715 0.960 . S
C1730 H1716 0.960 . S
C1730 H1717 0.960 . S
C1730 C1729 1.524 . S
C1731 C1728 1.403 . S
C1731 C1732 1.392 . S
C1731 C1735 1.495 . S
C1732 C1731 1.392 . S
C1732 C1733 1.385 . S
C1732 C1734 1.478 . S
C1733 H1727 0.930 . S
C1733 C1729 1.400 . S
C1733 C1732 1.385 . S
C1734 C1732 1.478 . S
C1734 C1736 1.381 . S
C1734 C1740 1.383 . S
C1735 C1731 1.495 . S
C1735 H1741 0.959 . S
C1735 H1742 0.961 . S
C1735 H1743 0.960 . S
C1736 C1734 1.381 . S
C1736 C1737 1.394 . S
C1736 H1744 0.930 . S
C1737 C1736 1.394 . S
C1737 C1738 1.383 . S
C1737 H1745 0.929 . S
C1738 C1737 1.383 . S
C1738 C1739 1.377 . S
C1739 H1723 0.930 . S
C1739 C1738 1.377 . S
C1739 C1740 1.379 . S
C1740 H1724 0.931 . S
C1740 C1734 1.383 . S
C1740 C1739 1.379 . S
H1741 C1735 0.959 . S
H1742 C1735 0.961 . S
H1743 C1735 0.960 . S
H1744 C1736 0.930 . S
H1745 C1737 0.929 . S
H1746 C1754 0.929 . S
H1747 C1756 0.930 . S
H1748 C1758 0.930 . S
H1749 C1761 0.929 . S
H1750 C1764 0.930 . S
H1751 C1766 0.960 . S
H1752 C1766 0.960 . S
H1753 C1766 0.960 . S
C1754 H1746 0.929 . S
C1754 C1755 1.377 . S
C1754 C1756 1.384 . S
C1755 C1754 1.377 . S
C1755 C1761 1.390 . S
C1756 H1747 0.930 . S
C1756 C1754 1.384 . S
C1756 C1757 1.372 . S
C1757 C1756 1.372 . S
C1757 C1758 1.400 . S
C1757 C1762 1.490 . S
C1758 H1748 0.930 . S
C1758 C1757 1.400 . S
C1758 C1761 1.386 . S
H1759 C1775 0.930 . S
H1760 C1776 0.931 . S
C1761 H1749 0.929 . S
C1761 C1755 1.390 . S
C1761 C1758 1.386 . S
C1762 C1757 1.490 . S
C1762 C1764 1.395 . S
C1762 C1765 1.403 . S
H1763 C1769 0.930 . S
C1764 H1750 0.930 . S
C1764 C1762 1.395 . S
C1764 C1767 1.403 . S
C1765 C1762 1.403 . S
C1765 C1766 1.524 . S
C1765 C1769 1.400 . S
C1766 H1751 0.960 . S
C1766 H1752 0.960 . S
C1766 H1753 0.960 . S
C1766 C1765 1.524 . S
C1767 C1764 1.403 . S
C1767 C1768 1.392 . S
C1767 C1771 1.495 . S
C1768 C1767 1.392 . S
C1768 C1769 1.385 . S
C1768 C1770 1.478 . S
C1769 H1763 0.930 . S
C1769 C1765 1.400 . S
C1769 C1768 1.385 . S
C1770 C1768 1.478 . S
C1770 C1772 1.381 . S
C1770 C1776 1.383 . S
C1771 C1767 1.495 . S
C1771 H1777 0.959 . S
C1771 H1778 0.961 . S
C1771 H1779 0.960 . S
C1772 C1770 1.381 . S
C1772 C1773 1.394 . S
C1772 H1780 0.930 . S
C1773 C1772 1.394 . S
C1773 C1774 1.383 . S
C1773 H1781 0.929 . S
C1774 C1773 1.383 . S
C1774 C1775 1.377 . S
C1775 H1759 0.930 . S
C1775 C1774 1.377 . S
C1775 C1776 1.379 . S
C1776 H1760 0.931 . S
C1776 C1770 1.383 . S
C1776 C1775 1.379 . S
H1777 C1771 0.959 . S
H1778 C1771 0.961 . S
H1779 C1771 0.960 . S
H1780 C1772 0.930 . S
H1781 C1773 0.929 . S
H1782 C1790 0.929 . S
H1783 C1792 0.930 . S
H1784 C1794 0.930 . S
H1785 C1797 0.929 . S
H1786 C1800 0.930 . S
H1787 C1802 0.960 . S
H1788 C1802 0.960 . S
H1789 C1802 0.960 . S
C1790 H1782 0.929 . S
C1790 C1791 1.377 . S
C1790 C1792 1.384 . S
C1791 C1790 1.377 . S
C1791 C1797 1.390 . S
C1792 H1783 0.930 . S
C1792 C1790 1.384 . S
C1792 C1793 1.372 . S
C1793 C1792 1.372 . S
C1793 C1794 1.400 . S
C1793 C1798 1.490 . S
C1794 H1784 0.930 . S
C1794 C1793 1.400 . S
C1794 C1797 1.386 . S
H1795 C1811 0.930 . S
H1796 C1812 0.931 . S
C1797 H1785 0.929 . S
C1797 C1791 1.390 . S
C1797 C1794 1.386 . S
C1798 C1793 1.490 . S
C1798 C1800 1.395 . S
C1798 C1801 1.403 . S
H1799 C1805 0.930 . S
C1800 H1786 0.930 . S
C1800 C1798 1.395 . S
C1800 C1803 1.403 . S
C1801 C1798 1.403 . S
C1801 C1802 1.524 . S
C1801 C1805 1.400 . S
C1802 H1787 0.960 . S
C1802 H1788 0.960 . S
C1802 H1789 0.960 . S
C1802 C1801 1.524 . S
C1803 C1800 1.403 . S
C1803 C1804 1.392 . S
C1803 C1807 1.495 . S
C1804 C1803 1.392 . S
C1804 C1805 1.385 . S
C1804 C1806 1.478 . S
C1805 H1799 0.930 . S
C1805 C1801 1.400 . S
C1805 C1804 1.385 . S
C1806 C1804 1.478 . S
C1806 C1808 1.381 . S
C1806 C1812 1.383 . S
C1807 C1803 1.495 . S
C1807 H1813 0.959 . S
C1807 H1814 0.961 . S
C1807 H1815 0.960 . S
C1808 C1806 1.381 . S
C1808 C1809 1.394 . S
C1808 H1816 0.942 . S
C1809 C1808 1.394 . S
C1809 C1810 1.383 . S
C1809 H1817 0.929 1_545 S
C1810 C1809 1.383 . S
C1810 C1811 1.377 . S
C1811 H1795 0.930 . S
C1811 C1810 1.377 . S
C1811 C1812 1.379 . S
C1812 H1796 0.931 . S
C1812 C1806 1.383 . S
C1812 C1811 1.379 . S
H1813 C1807 0.959 . S
H1814 C1807 0.961 . S
H1815 C1807 0.960 . S
H1816 C1808 0.942 . S
H1817 C1809 0.929 1_565 S
H1818 C1826 0.929 . S
H1819 C1828 0.930 . S
H1820 C1830 0.930 . S
H1821 C1833 0.929 . S
H1822 C1836 0.930 . S
H1823 C1838 0.960 . S
H1824 C1838 0.960 . S
H1825 C1838 0.960 . S
C1826 H1818 0.929 . S
C1826 C1827 1.377 . S
C1826 C1828 1.384 . S
C1827 C1826 1.377 . S
C1827 C1833 1.390 1_655 S
C1828 H1819 0.930 . S
C1828 C1826 1.384 . S
C1828 C1829 1.372 . S
C1829 C1828 1.372 . S
C1829 C1830 1.400 1_655 S
C1829 C1834 1.490 . S
C1830 H1820 0.930 . S
C1830 C1829 1.400 1_455 S
C1830 C1833 1.386 . S
H1831 C1847 0.930 . S
H1832 C1848 0.931 . S
C1833 H1821 0.929 . S
C1833 C1827 1.390 1_455 S
C1833 C1830 1.386 . S
C1834 C1829 1.490 . S
C1834 C1836 1.395 . S
C1834 C1837 1.403 1_655 S
H1835 C1841 0.930 . S
C1836 H1822 0.930 . S
C1836 C1834 1.395 . S
C1836 C1839 1.403 . S
C1837 C1834 1.403 1_455 S
C1837 C1838 1.524 . S
C1837 C1841 1.400 . S
C1838 H1823 0.960 . S
C1838 H1824 0.960 . S
C1838 H1825 0.960 . S
C1838 C1837 1.524 . S
C1839 C1836 1.403 . S
C1839 C1840 1.392 . S
C1839 C1843 1.495 . S
C1840 C1839 1.392 . S
C1840 C1841 1.385 1_655 S
C1840 C1842 1.478 . S
C1841 H1835 0.930 . S
C1841 C1837 1.400 . S
C1841 C1840 1.385 1_455 S
C1842 C1840 1.478 . S
C1842 C1844 1.381 . S
C1842 C1848 1.383 1_655 S
C1843 C1839 1.495 . S
C1843 H1849 0.959 . S
C1843 H1850 0.961 . S
C1843 H1851 0.960 . S
C1844 C1842 1.381 . S
C1844 C1845 1.394 . S
C1844 H1852 0.930 . S
C1845 C1844 1.394 . S
C1845 C1846 1.383 . S
C1845 H1853 0.929 . S
C1846 C1845 1.383 . S
C1846 C1847 1.377 1_655 S
C1847 H1831 0.930 . S
C1847 C1846 1.377 1_455 S
C1847 C1848 1.379 . S
C1848 H1832 0.931 . S
C1848 C1842 1.383 1_455 S
C1848 C1847 1.379 . S
H1849 C1843 0.959 . S
H1850 C1843 0.961 . S
H1851 C1843 0.960 . S
H1852 C1844 0.930 . S
H1853 C1845 0.929 . S
H1854 C1862 0.929 . S
H1855 C1864 0.930 . S
H1856 C1866 0.930 . S
H1857 C1869 0.929 . S
H1858 C1872 0.930 . S
H1859 C1874 0.960 . S
H1860 C1874 0.960 . S
H1861 C1874 0.960 . S
C1862 H1854 0.929 . S
C1862 C1863 1.377 . S
C1862 C1864 1.384 . S
C1863 C1862 1.377 . S
C1863 C1869 1.390 . S
C1864 H1855 0.930 . S
C1864 C1862 1.384 . S
C1864 C1865 1.372 . S
C1865 C1864 1.372 . S
C1865 C1866 1.400 . S
C1865 C1870 1.490 . S
C1866 H1856 0.930 . S
C1866 C1865 1.400 . S
C1866 C1869 1.386 . S
H1867 C1883 0.930 . S
H1868 C1884 0.931 . S
C1869 H1857 0.929 . S
C1869 C1863 1.390 . S
C1869 C1866 1.386 . S
C1870 C1865 1.490 . S
C1870 C1872 1.395 . S
C1870 C1873 1.403 . S
H1871 C1877 0.930 . S
C1872 H1858 0.930 . S
C1872 C1870 1.395 . S
C1872 C1875 1.403 . S
C1873 C1870 1.403 . S
C1873 C1874 1.524 . S
C1873 C1877 1.400 . S
C1874 H1859 0.960 . S
C1874 H1860 0.960 . S
C1874 H1861 0.960 . S
C1874 C1873 1.524 . S
C1875 C1872 1.403 . S
C1875 C1876 1.392 . S
C1875 C1879 1.495 . S
C1876 C1875 1.392 . S
C1876 C1877 1.385 . S
C1876 C1878 1.478 . S
C1877 H1871 0.930 . S
C1877 C1873 1.400 . S
C1877 C1876 1.385 . S
C1878 C1876 1.478 . S
C1878 C1880 1.381 . S
C1878 C1884 1.383 . S
C1879 C1875 1.495 . S
C1879 H1885 0.959 . S
C1879 H1886 0.961 . S
C1879 H1887 0.960 . S
C1880 C1878 1.381 . S
C1880 C1881 1.394 . S
C1880 H1888 0.930 . S
C1881 C1880 1.394 . S
C1881 C1882 1.383 . S
C1881 H1889 0.929 . S
C1882 C1881 1.383 . S
C1882 C1883 1.377 . S
C1883 H1867 0.930 . S
C1883 C1882 1.377 . S
C1883 C1884 1.379 . S
C1884 H1868 0.931 . S
C1884 C1878 1.383 . S
C1884 C1883 1.379 . S
H1885 C1879 0.959 . S
H1886 C1879 0.961 . S
H1887 C1879 0.960 . S
H1888 C1880 0.930 . S
H1889 C1881 0.929 . S
H1890 C1898 0.929 . S
H1891 C1900 0.930 . S
H1892 C1902 0.930 . S
H1893 C1905 0.929 . S
H1894 C1908 0.930 . S
H1895 C1910 0.960 . S
H1896 C1910 0.960 . S
H1897 C1910 0.960 . S
C1898 H1890 0.929 . S
C1898 C1899 1.377 . S
C1898 C1900 1.384 . S
C1899 C1898 1.377 . S
C1899 C1905 1.390 . S
C1900 H1891 0.930 . S
C1900 C1898 1.384 . S
C1900 C1901 1.372 . S
C1901 C1900 1.372 . S
C1901 C1902 1.400 . S
C1901 C1906 1.490 . S
C1902 H1892 0.930 . S
C1902 C1901 1.400 . S
C1902 C1905 1.386 . S
H1903 C1919 0.930 . S
H1904 C1920 0.931 . S
C1905 H1893 0.929 . S
C1905 C1899 1.390 . S
C1905 C1902 1.386 . S
C1906 C1901 1.490 . S
C1906 C1908 1.395 . S
C1906 C1909 1.403 . S
H1907 C1913 0.930 . S
C1908 H1894 0.930 . S
C1908 C1906 1.395 . S
C1908 C1911 1.403 . S
C1909 C1906 1.403 . S
C1909 C1910 1.524 . S
C1909 C1913 1.400 . S
C1910 H1895 0.960 . S
C1910 H1896 0.960 . S
C1910 H1897 0.960 . S
C1910 C1909 1.524 . S
C1911 C1908 1.403 . S
C1911 C1912 1.392 . S
C1911 C1915 1.495 1_455 S
C1912 C1911 1.392 . S
C1912 C1913 1.385 . S
C1912 C1914 1.478 . S
C1913 H1907 0.930 . S
C1913 C1909 1.400 . S
C1913 C1912 1.385 . S
C1914 C1912 1.478 . S
C1914 C1916 1.381 . S
C1914 C1920 1.383 . S
C1915 C1911 1.495 1_655 S
C1915 H1921 0.959 . S
C1915 H1922 0.961 . S
C1915 H1923 0.960 . S
C1916 C1914 1.381 . S
C1916 C1917 1.394 . S
C1916 H1924 0.930 . S
C1917 C1916 1.394 . S
C1917 C1918 1.383 . S
C1917 H1925 0.929 . S
C1918 C1917 1.383 . S
C1918 C1919 1.377 . S
C1919 H1903 0.930 . S
C1919 C1918 1.377 . S
C1919 C1920 1.379 . S
C1920 H1904 0.931 . S
C1920 C1914 1.383 . S
C1920 C1919 1.379 . S
H1921 C1915 0.959 . S
H1922 C1915 0.961 . S
H1923 C1915 0.960 . S
H1924 C1916 0.930 . S
H1925 C1917 0.929 . S
H1926 C1934 0.929 . S
H1927 C1936 0.930 . S
H1928 C1938 0.930 . S
H1929 C1941 0.929 . S
H1930 C1944 0.930 . S
H1931 C1946 0.960 . S
H1932 C1946 0.960 . S
H1933 C1946 0.960 . S
C1934 H1926 0.929 . S
C1934 C1935 1.377 . S
C1934 C1936 1.384 . S
C1935 C1934 1.377 . S
C1935 C1941 1.390 . S
C1936 H1927 0.930 . S
C1936 C1934 1.384 . S
C1936 C1937 1.372 . S
C1937 C1936 1.372 . S
C1937 C1938 1.400 . S
C1937 C1942 1.490 . S
C1938 H1928 0.930 . S
C1938 C1937 1.400 . S
C1938 C1941 1.386 . S
H1939 C1955 0.930 . S
H1940 C1956 0.931 . S
C1941 H1929 0.929 . S
C1941 C1935 1.390 . S
C1941 C1938 1.386 . S
C1942 C1937 1.490 . S
C1942 C1944 1.395 . S
C1942 C1945 1.403 . S
H1943 C1949 0.930 . S
C1944 H1930 0.930 . S
C1944 C1942 1.395 . S
C1944 C1947 1.403 . S
C1945 C1942 1.403 . S
C1945 C1946 1.524 . S
C1945 C1949 1.400 . S
C1946 H1931 0.960 . S
C1946 H1932 0.960 . S
C1946 H1933 0.960 . S
C1946 C1945 1.524 . S
C1947 C1944 1.403 . S
C1947 C1948 1.392 . S
C1947 C1951 1.495 . S
C1948 C1947 1.392 . S
C1948 C1949 1.385 . S
C1948 C1950 1.478 . S
C1949 H1943 0.930 . S
C1949 C1945 1.400 . S
C1949 C1948 1.385 . S
C1950 C1948 1.478 . S
C1950 C1952 1.381 . S
C1950 C1956 1.383 . S
C1951 C1947 1.495 . S
C1951 H1957 0.959 . S
C1951 H1958 0.961 . S
C1951 H1959 0.960 . S
C1952 C1950 1.381 . S
C1952 C1953 1.394 . S
C1952 H1960 0.930 . S
C1953 C1952 1.394 . S
C1953 C1954 1.383 . S
C1953 H1961 0.929 . S
C1954 C1953 1.383 . S
C1954 C1955 1.377 . S
C1955 H1939 0.930 . S
C1955 C1954 1.377 . S
C1955 C1956 1.379 . S
C1956 H1940 0.931 . S
C1956 C1950 1.383 . S
C1956 C1955 1.379 . S
H1957 C1951 0.959 . S
H1958 C1951 0.961 . S
H1959 C1951 0.960 . S
H1960 C1952 0.930 . S
H1961 C1953 0.929 . S
H1962 C1970 0.929 . S
H1963 C1972 0.930 . S
H1964 C1974 0.930 . S
H1965 C1977 0.929 . S
H1966 C1980 0.930 . S
H1967 C1982 0.960 . S
H1968 C1982 0.960 . S
H1969 C1982 0.960 . S
C1970 H1962 0.929 . S
C1970 C1971 1.377 . S
C1970 C1972 1.384 . S
C1971 C1970 1.377 . S
C1971 C1977 1.390 . S
C1972 H1963 0.930 . S
C1972 C1970 1.384 . S
C1972 C1973 1.372 . S
C1973 C1972 1.372 . S
C1973 C1974 1.400 . S
C1973 C1978 1.490 . S
C1974 H1964 0.930 . S
C1974 C1973 1.400 . S
C1974 C1977 1.386 . S
H1975 C1991 0.930 . S
H1976 C1992 0.931 . S
C1977 H1965 0.929 . S
C1977 C1971 1.390 . S
C1977 C1974 1.386 . S
C1978 C1973 1.490 . S
C1978 C1980 1.395 1_565 S
C1978 C1981 1.403 . S
H1979 C1985 0.930 . S
C1980 H1966 0.930 . S
C1980 C1978 1.395 1_545 S
C1980 C1983 1.403 . S
C1981 C1978 1.403 . S
C1981 C1982 1.524 . S
C1981 C1985 1.400 . S
C1982 H1967 0.960 . S
C1982 H1968 0.960 . S
C1982 H1969 0.960 . S
C1982 C1981 1.524 . S
C1983 C1980 1.403 . S
C1983 C1984 1.392 1_545 S
C1983 C1987 1.495 . S
C1984 C1983 1.392 1_565 S
C1984 C1985 1.385 . S
C1984 C1986 1.462 1_565 S
C1985 H1979 0.930 . S
C1985 C1981 1.400 . S
C1985 C1984 1.385 . S
C1986 C1984 1.462 1_545 S
C1986 C1988 1.392 1_545 S
C1986 C1992 1.387 . S
C1987 C1983 1.495 . S
C1987 H1993 0.959 . S
C1987 H1994 0.961 . S
C1987 H1995 0.960 . S
C1988 C1986 1.392 1_565 S
C1988 C1989 1.394 . S
C1988 H1996 0.930 . S
C1989 C1988 1.394 . S
C1989 C1990 1.379 1_565 S
C1989 H1997 0.929 . S
C1990 C1989 1.379 1_545 S
C1990 C1991 1.363 . S
C1991 H1975 0.930 . S
C1991 C1990 1.363 . S
C1991 C1992 1.379 . S
C1992 H1976 0.931 . S
C1992 C1986 1.387 . S
C1992 C1991 1.379 . S
H1993 C1987 0.959 . S
H1994 C1987 0.961 . S
H1995 C1987 0.960 . S
H1996 C1988 0.930 . S
H1997 C1989 0.929 . S
H1998 C2006 0.929 . S
H1999 C2008 0.930 . S
H2000 C2010 0.930 . S
H2001 C2013 0.929 . S
H2002 C2016 0.930 . S
H2003 C2018 0.960 . S
H2004 C2018 0.960 1_545 S
H2005 C2018 0.960 . S
C2006 H1998 0.929 . S
C2006 C2007 1.377 1_545 S
C2006 C2008 1.384 . S
C2007 C2006 1.377 1_565 S
C2007 C2013 1.390 . S
C2008 H1999 0.930 . S
C2008 C2006 1.384 . S
C2008 C2009 1.372 1_545 S
C2009 C2008 1.372 1_565 S
C2009 C2010 1.400 . S
C2009 C2014 1.490 . S
C2010 H2000 0.930 . S
C2010 C2009 1.400 . S
C2010 C2013 1.386 . S
H2011 C2027 0.930 . S
H2012 C2028 0.931 . S
C2013 H2001 0.929 . S
C2013 C2007 1.390 . S
C2013 C2010 1.386 . S
C2014 C2009 1.490 . S
C2014 C2016 1.395 . S
C2014 C2017 1.403 . S
H2015 C2021 0.930 . S
C2016 H2002 0.930 . S
C2016 C2014 1.395 . S
C2016 C2019 1.403 . S
C2017 C2014 1.403 . S
C2017 C2018 1.524 . S
C2017 C2021 1.400 . S
C2018 H2003 0.960 . S
C2018 H2004 0.960 1_565 S
C2018 H2005 0.960 . S
C2018 C2017 1.524 . S
C2019 C2016 1.403 . S
C2019 C2020 1.392 . S
C2019 C2023 1.495 . S
C2020 C2019 1.392 . S
C2020 C2021 1.385 . S
C2020 C2022 1.478 . S
C2021 H2015 0.930 . S
C2021 C2017 1.400 . S
C2021 C2020 1.385 . S
C2022 C2020 1.478 . S
C2022 C2024 1.381 1_565 S
C2022 C2028 1.383 . S
C2023 C2019 1.495 . S
C2023 H2029 0.959 . S
C2023 H2030 0.961 . S
C2023 H2031 0.960 1_565 S
C2024 C2022 1.381 1_545 S
C2024 C2025 1.394 . S
C2024 H2032 0.930 . S
C2025 C2024 1.394 . S
C2025 C2026 1.373 1_545 S
C2025 H2033 0.929 . S
C2026 C2025 1.373 1_565 S
C2026 C2027 1.382 . S
C2027 H2011 0.930 . S
C2027 C2026 1.382 . S
C2027 C2028 1.379 . S
C2028 H2012 0.931 . S
C2028 C2022 1.383 . S
C2028 C2027 1.379 . S
H2029 C2023 0.959 . S
H2030 C2023 0.961 . S
H2031 C2023 0.960 1_545 S
H2032 C2024 0.930 . S
H2033 C2025 0.929 . S
H2034 C2042 0.929 . S
H2035 C2044 0.930 . S
H2036 C2046 0.930 . S
H2037 C2049 0.929 . S
H2038 C2052 0.930 . S
H2039 C2054 0.960 1_655 S
H2040 C2054 0.960 1_655 S
H2041 C2054 0.960 . S
C2042 H2034 0.929 . S
C2042 C2043 1.377 . S
C2042 C2044 1.384 . S
C2043 C2042 1.377 . S
C2043 C2049 1.390 . S
C2044 H2035 0.930 . S
C2044 C2042 1.384 . S
C2044 C2045 1.372 . S
C2045 C2044 1.372 . S
C2045 C2046 1.400 . S
C2045 C2050 1.490 . S
C2046 H2036 0.930 . S
C2046 C2045 1.400 . S
C2046 C2049 1.386 . S
H2047 C2063 0.930 . S
H2048 C2064 0.931 . S
C2049 H2037 0.929 . S
C2049 C2043 1.390 . S
C2049 C2046 1.386 . S
C2050 C2045 1.490 . S
C2050 C2052 1.395 . S
C2050 C2053 1.403 . S
H2051 C2057 0.930 . S
C2052 H2038 0.930 . S
C2052 C2050 1.395 . S
C2052 C2055 1.403 . S
C2053 C2050 1.403 . S
C2053 C2054 1.524 . S
C2053 C2057 1.400 . S
C2054 H2039 0.960 1_455 S
C2054 H2040 0.960 1_455 S
C2054 H2041 0.960 . S
C2054 C2053 1.524 . S
C2055 C2052 1.403 . S
C2055 C2056 1.392 . S
C2055 C2059 1.495 . S
C2056 C2055 1.392 . S
C2056 C2057 1.385 . S
C2056 C2058 1.478 . S
C2057 H2051 0.930 . S
C2057 C2053 1.400 . S
C2057 C2056 1.385 . S
C2058 C2056 1.478 . S
C2058 C2060 1.381 . S
C2058 C2064 1.383 . S
C2059 C2055 1.495 . S
C2059 H2065 0.959 . S
C2059 H2066 0.961 . S
C2059 H2067 0.960 . S
C2060 C2058 1.381 . S
C2060 C2061 1.394 . S
C2060 H2068 0.930 . S
C2061 C2060 1.394 . S
C2061 C2062 1.383 . S
C2061 H2069 0.929 . S
C2062 C2061 1.383 . S
C2062 C2063 1.377 . S
C2063 H2047 0.930 . S
C2063 C2062 1.377 . S
C2063 C2064 1.379 . S
C2064 H2048 0.931 . S
C2064 C2058 1.383 . S
C2064 C2063 1.379 . S
H2065 C2059 0.959 . S
H2066 C2059 0.961 . S
H2067 C2059 0.960 . S
H2068 C2060 0.930 . S
H2069 C2061 0.929 . S
H2070 C2078 0.929 . S
H2071 C2080 0.930 . S
H2072 C2082 0.930 . S
H2073 C2085 0.929 . S
H2074 C2088 0.930 . S
H2075 C2090 0.960 . S
H2076 C2090 0.960 . S
H2077 C2090 0.960 . S
C2078 H2070 0.929 . S
C2078 C2079 1.377 . S
C2078 C2080 1.384 . S
C2079 C2078 1.377 . S
C2079 C2085 1.390 . S
C2080 H2071 0.930 . S
C2080 C2078 1.384 . S
C2080 C2081 1.372 . S
C2081 C2080 1.372 . S
C2081 C2082 1.400 . S
C2081 C2086 1.490 . S
C2082 H2072 0.930 . S
C2082 C2081 1.400 . S
C2082 C2085 1.386 . S
H2083 C2099 0.930 . S
H2084 C2100 0.931 . S
C2085 H2073 0.929 . S
C2085 C2079 1.390 . S
C2085 C2082 1.386 . S
C2086 C2081 1.490 . S
C2086 C2088 1.395 . S
C2086 C2089 1.403 . S
H2087 C2093 0.930 . S
C2088 H2074 0.930 . S
C2088 C2086 1.395 . S
C2088 C2091 1.403 . S
C2089 C2086 1.403 . S
C2089 C2090 1.524 . S
C2089 C2093 1.400 . S
C2090 H2075 0.960 . S
C2090 H2076 0.960 . S
C2090 H2077 0.960 . S
C2090 C2089 1.524 . S
C2091 C2088 1.403 . S
C2091 C2092 1.392 . S
C2091 C2095 1.495 . S
C2092 C2091 1.392 . S
C2092 C2093 1.385 . S
C2092 C2094 1.478 . S
C2093 H2087 0.930 . S
C2093 C2089 1.400 . S
C2093 C2092 1.385 . S
C2094 C2092 1.478 . S
C2094 C2096 1.381 . S
C2094 C2100 1.383 . S
C2095 C2091 1.495 . S
C2095 H2101 0.959 . S
C2095 H2102 0.961 . S
C2095 H2103 0.960 . S
C2096 C2094 1.381 . S
C2096 C2097 1.394 . S
C2096 H2104 0.930 . S
C2097 C2096 1.394 . S
C2097 C2098 1.383 . S
C2097 H2105 0.929 . S
C2098 C2097 1.383 . S
C2098 C2099 1.377 . S
C2099 H2083 0.930 . S
C2099 C2098 1.377 . S
C2099 C2100 1.379 . S
C2100 H2084 0.931 . S
C2100 C2094 1.383 . S
C2100 C2099 1.379 . S
H2101 C2095 0.959 . S
H2102 C2095 0.961 . S
H2103 C2095 0.960 . S
H2104 C2096 0.930 . S
H2105 C2097 0.929 . S
H2106 C2114 0.929 . S
H2107 C2116 0.930 . S
H2108 C2118 0.930 . S
H2109 C2121 0.929 . S
H2110 C2124 0.930 . S
H2111 C2126 0.960 . S
H2112 C2126 0.960 . S
H2113 C2126 0.960 . S
C2114 H2106 0.929 . S
C2114 C2115 1.377 . S
C2114 C2116 1.384 . S
C2115 C2114 1.377 . S
C2115 C2121 1.390 1_655 S
C2116 H2107 0.930 . S
C2116 C2114 1.384 . S
C2116 C2117 1.372 . S
C2117 C2116 1.372 . S
C2117 C2118 1.400 1_655 S
C2117 C2122 1.490 . S
C2118 H2108 0.930 . S
C2118 C2117 1.400 1_455 S
C2118 C2121 1.386 . S
H2119 C2135 0.930 . S
H2120 C2136 0.931 . S
C2121 H2109 0.929 . S
C2121 C2115 1.390 1_455 S
C2121 C2118 1.386 . S
C2122 C2117 1.490 . S
C2122 C2124 1.395 . S
C2122 C2125 1.403 1_655 S
H2123 C2129 0.930 . S
C2124 H2110 0.930 . S
C2124 C2122 1.395 . S
C2124 C2127 1.403 . S
C2125 C2122 1.403 1_455 S
C2125 C2126 1.524 . S
C2125 C2129 1.400 . S
C2126 H2111 0.960 . S
C2126 H2112 0.960 . S
C2126 H2113 0.960 . S
C2126 C2125 1.524 . S
C2127 C2124 1.403 . S
C2127 C2128 1.392 . S
C2127 C2131 1.495 . S
C2128 C2127 1.392 . S
C2128 C2129 1.385 1_655 S
C2128 C2130 1.478 . S
C2129 H2123 0.930 . S
C2129 C2125 1.400 . S
C2129 C2128 1.385 1_455 S
C2130 C2128 1.478 . S
C2130 C2132 1.381 . S
C2130 C2136 1.383 1_655 S
C2131 C2127 1.495 . S
C2131 H2137 0.959 . S
C2131 H2138 0.961 . S
C2131 H2139 0.960 . S
C2132 C2130 1.381 . S
C2132 C2133 1.394 . S
C2132 H2140 0.930 . S
C2133 C2132 1.394 . S
C2133 C2134 1.383 . S
C2133 H2141 0.929 . S
C2134 C2133 1.383 . S
C2134 C2135 1.377 1_655 S
C2135 H2119 0.930 . S
C2135 C2134 1.377 1_455 S
C2135 C2136 1.379 . S
C2136 H2120 0.931 . S
C2136 C2130 1.383 1_455 S
C2136 C2135 1.379 . S
H2137 C2131 0.959 . S
H2138 C2131 0.961 . S
H2139 C2131 0.960 . S
H2140 C2132 0.930 . S
H2141 C2133 0.929 . S
H2142 C2150 0.929 . S
H2143 C2152 0.930 . S
H2144 C2154 0.930 . S
H2145 C2157 0.929 . S
H2146 C2160 0.930 . S
H2147 C2162 0.960 . S
H2148 C2162 0.960 . S
H2149 C2162 0.960 . S
C2150 H2142 0.929 . S
C2150 C2151 1.377 . S
C2150 C2152 1.384 . S
C2151 C2150 1.377 . S
C2151 C2157 1.390 . S
C2152 H2143 0.930 . S
C2152 C2150 1.384 . S
C2152 C2153 1.372 . S
C2153 C2152 1.372 . S
C2153 C2154 1.400 . S
C2153 C2158 1.490 . S
C2154 H2144 0.930 . S
C2154 C2153 1.400 . S
C2154 C2157 1.386 . S
H2155 C2171 0.930 . S
H2156 C2172 0.931 . S
C2157 H2145 0.929 . S
C2157 C2151 1.390 . S
C2157 C2154 1.386 . S
C2158 C2153 1.490 . S
C2158 C2160 1.395 . S
C2158 C2161 1.403 . S
H2159 C2165 0.930 . S
C2160 H2146 0.930 . S
C2160 C2158 1.395 . S
C2160 C2163 1.403 . S
C2161 C2158 1.403 . S
C2161 C2162 1.524 . S
C2161 C2165 1.400 . S
C2162 H2147 0.960 . S
C2162 H2148 0.960 . S
C2162 H2149 0.960 . S
C2162 C2161 1.524 . S
C2163 C2160 1.403 . S
C2163 C2164 1.392 . S
C2163 C2167 1.495 . S
C2164 C2163 1.392 . S
C2164 C2165 1.385 . S
C2164 C2166 1.478 . S
C2165 H2159 0.930 . S
C2165 C2161 1.400 . S
C2165 C2164 1.385 . S
C2166 C2164 1.478 . S
C2166 C2168 1.381 . S
C2166 C2172 1.383 . S
C2167 C2163 1.495 . S
C2167 H2173 0.959 . S
C2167 H2174 0.961 . S
C2167 H2175 0.960 . S
C2168 C2166 1.381 . S
C2168 C2169 1.394 . S
C2168 H2176 0.930 . S
C2169 C2168 1.394 . S
C2169 C2170 1.383 . S
C2169 H2177 0.929 . S
C2170 C2169 1.383 . S
C2170 C2171 1.377 . S
C2171 H2155 0.930 . S
C2171 C2170 1.377 . S
C2171 C2172 1.379 . S
C2172 H2156 0.931 . S
C2172 C2166 1.383 . S
C2172 C2171 1.379 . S
H2173 C2167 0.959 . S
H2174 C2167 0.961 . S
H2175 C2167 0.960 . S
H2176 C2168 0.930 . S
H2177 C2169 0.929 . S
H2178 C2186 0.929 . S
H2179 C2188 0.930 . S
H2180 C2190 0.930 . S
H2181 C2193 0.929 . S
H2182 C2196 0.930 . S
H2183 C2198 0.960 . S
H2184 C2198 0.960 . S
H2185 C2198 0.960 . S
C2186 H2178 0.929 . S
C2186 C2187 1.377 . S
C2186 C2188 1.384 . S
C2187 C2186 1.377 . S
C2187 C2193 1.390 . S
C2188 H2179 0.930 . S
C2188 C2186 1.384 . S
C2188 C2189 1.372 . S
C2189 C2188 1.372 . S
C2189 C2190 1.400 . S
C2189 C2194 1.490 . S
C2190 H2180 0.930 . S
C2190 C2189 1.400 . S
C2190 C2193 1.386 . S
H2191 C2207 0.930 . S
H2192 C2208 0.931 . S
C2193 H2181 0.929 . S
C2193 C2187 1.390 . S
C2193 C2190 1.386 . S
C2194 C2189 1.490 . S
C2194 C2196 1.395 . S
C2194 C2197 1.403 . S
H2195 C2201 0.930 . S
C2196 H2182 0.930 . S
C2196 C2194 1.395 . S
C2196 C2199 1.403 . S
C2197 C2194 1.403 . S
C2197 C2198 1.524 . S
C2197 C2201 1.400 . S
C2198 H2183 0.960 . S
C2198 H2184 0.960 . S
C2198 H2185 0.960 . S
C2198 C2197 1.524 . S
C2199 C2196 1.403 . S
C2199 C2200 1.392 . S
C2199 C2203 1.495 . S
C2200 C2199 1.392 . S
C2200 C2201 1.385 . S
C2200 C2202 1.478 . S
C2201 H2195 0.930 . S
C2201 C2197 1.400 . S
C2201 C2200 1.385 . S
C2202 C2200 1.478 . S
C2202 C2204 1.381 . S
C2202 C2208 1.383 . S
C2203 C2199 1.495 . S
C2203 H2209 0.959 . S
C2203 H2210 0.961 . S
C2203 H2211 0.960 . S
C2204 C2202 1.381 . S
C2204 C2205 1.394 . S
C2204 H2212 0.912 1_545 S
C2205 C2204 1.394 . S
C2205 C2206 1.383 . S
C2205 H2213 0.929 1_545 S
C2206 C2205 1.383 . S
C2206 C2207 1.377 . S
C2207 H2191 0.930 . S
C2207 C2206 1.377 . S
C2207 C2208 1.379 . S
C2208 H2192 0.931 . S
C2208 C2202 1.383 . S
C2208 C2207 1.379 . S
H2209 C2203 0.959 . S
H2210 C2203 0.961 . S
H2211 C2203 0.960 . S
H2212 C2204 0.912 1_565 S
H2213 C2205 0.929 1_565 S
H2214 C2222 0.929 . S
H2215 C2224 0.930 . S
H2216 C2226 0.930 . S
H2217 C2229 0.929 1_455 S
H2218 C2232 0.930 . S
H2219 C2234 0.960 . S
H2220 C2234 0.960 . S
H2221 C2234 0.960 . S
C2222 H2214 0.929 . S
C2222 C2223 1.377 . S
C2222 C2224 1.384 . S
C2223 C2222 1.377 . S
C2223 C2229 1.390 . S
C2224 H2215 0.930 . S
C2224 C2222 1.384 . S
C2224 C2225 1.372 . S
C2225 C2224 1.372 . S
C2225 C2226 1.400 . S
C2225 C2230 1.490 . S
C2226 H2216 0.930 . S
C2226 C2225 1.400 . S
C2226 C2229 1.386 . S
H2227 C2243 0.930 . S
H2228 C2244 0.931 . S
C2229 H2217 0.929 1_655 S
C2229 C2223 1.390 . S
C2229 C2226 1.386 . S
C2230 C2225 1.490 . S
C2230 C2232 1.395 . S
C2230 C2233 1.403 . S
H2231 C2237 0.930 . S
C2232 H2218 0.930 . S
C2232 C2230 1.395 . S
C2232 C2235 1.403 . S
C2233 C2230 1.403 . S
C2233 C2234 1.524 . S
C2233 C2237 1.400 . S
C2234 H2219 0.960 . S
C2234 H2220 0.960 . S
C2234 H2221 0.960 . S
C2234 C2233 1.524 . S
C2235 C2232 1.403 . S
C2235 C2236 1.392 . S
C2235 C2239 1.495 . S
C2236 C2235 1.392 . S
C2236 C2237 1.385 . S
C2236 C2238 1.478 . S
C2237 H2231 0.930 . S
C2237 C2233 1.400 . S
C2237 C2236 1.385 . S
C2238 C2236 1.478 . S
C2238 C2240 1.381 . S
C2238 C2244 1.383 . S
C2239 C2235 1.495 . S
C2239 H2245 0.959 . S
C2239 H2246 0.961 . S
C2239 H2247 0.960 . S
C2240 C2238 1.381 . S
C2240 C2241 1.394 . S
C2240 H2248 0.930 . S
C2241 C2240 1.394 . S
C2241 C2242 1.383 . S
C2241 H2249 0.929 . S
C2242 C2241 1.383 . S
C2242 C2243 1.377 . S
C2243 H2227 0.930 . S
C2243 C2242 1.377 . S
C2243 C2244 1.379 . S
C2244 H2228 0.931 . S
C2244 C2238 1.383 . S
C2244 C2243 1.379 . S
H2245 C2239 0.959 . S
H2246 C2239 0.961 . S
H2247 C2239 0.960 . S
H2248 C2240 0.930 . S
H2249 C2241 0.929 . S
H2250 C2258 0.929 . S
H2251 C2260 0.930 . S
H2252 C2262 0.930 . S
H2253 C2265 0.929 . S
H2254 C2268 0.930 . S
H2255 C2270 0.960 . S
H2256 C2270 0.960 . S
H2257 C2270 0.960 . S
C2258 H2250 0.929 . S
C2258 C2259 1.377 . S
C2258 C2260 1.384 . S
C2259 C2258 1.377 . S
C2259 C2265 1.390 . S
C2260 H2251 0.930 . S
C2260 C2258 1.384 . S
C2260 C2261 1.372 . S
C2261 C2260 1.372 . S
C2261 C2262 1.400 . S
C2261 C2266 1.490 . S
C2262 H2252 0.930 . S
C2262 C2261 1.400 . S
C2262 C2265 1.386 . S
H2263 C2279 0.930 . S
H2264 C2280 0.931 . S
C2265 H2253 0.929 . S
C2265 C2259 1.390 . S
C2265 C2262 1.386 . S
C2266 C2261 1.490 . S
C2266 C2268 1.395 . S
C2266 C2269 1.403 . S
H2267 C2273 0.930 . S
C2268 H2254 0.930 . S
C2268 C2266 1.395 . S
C2268 C2271 1.403 . S
C2269 C2266 1.403 . S
C2269 C2270 1.524 . S
C2269 C2273 1.400 . S
C2270 H2255 0.960 . S
C2270 H2256 0.960 . S
C2270 H2257 0.960 . S
C2270 C2269 1.524 . S
C2271 C2268 1.403 . S
C2271 C2272 1.392 . S
C2271 C2275 1.495 . S
C2272 C2271 1.392 . S
C2272 C2273 1.385 . S
C2272 C2274 1.478 . S
C2273 H2267 0.930 . S
C2273 C2269 1.400 . S
C2273 C2272 1.385 . S
C2274 C2272 1.478 . S
C2274 C2276 1.381 . S
C2274 C2280 1.383 . S
C2275 C2271 1.495 . S
C2275 H2281 0.959 . S
C2275 H2282 0.961 . S
C2275 H2283 0.960 . S
C2276 C2274 1.381 . S
C2276 C2277 1.394 . S
C2276 H2284 0.930 . S
C2277 C2276 1.394 . S
C2277 C2278 1.383 . S
C2277 H2285 0.929 . S
C2278 C2277 1.383 . S
C2278 C2279 1.377 . S
C2279 H2263 0.930 . S
C2279 C2278 1.377 . S
C2279 C2280 1.379 . S
C2280 H2264 0.931 . S
C2280 C2274 1.383 . S
C2280 C2279 1.379 . S
H2281 C2275 0.959 . S
H2282 C2275 0.961 . S
H2283 C2275 0.960 . S
H2284 C2276 0.930 . S
H2285 C2277 0.929 . S
H2286 C2294 0.929 . S
H2287 C2296 0.930 . S
H2288 C2298 0.930 . S
H2289 C2301 0.929 . S
H2290 C2304 0.930 . S
H2291 C2306 0.960 . S
H2292 C2306 0.960 . S
H2293 C2306 0.960 . S
C2294 H2286 0.929 . S
C2294 C2295 1.377 . S
C2294 C2296 1.384 . S
C2295 C2294 1.377 . S
C2295 C2301 1.390 . S
C2296 H2287 0.930 . S
C2296 C2294 1.384 . S
C2296 C2297 1.372 . S
C2297 C2296 1.372 . S
C2297 C2298 1.400 . S
C2297 C2302 1.490 . S
C2298 H2288 0.930 . S
C2298 C2297 1.400 . S
C2298 C2301 1.386 . S
H2299 C2315 0.930 . S
H2300 C2316 0.931 . S
C2301 H2289 0.929 . S
C2301 C2295 1.390 . S
C2301 C2298 1.386 . S
C2302 C2297 1.490 . S
C2302 C2304 1.395 . S
C2302 C2305 1.403 . S
H2303 C2309 0.930 . S
C2304 H2290 0.930 . S
C2304 C2302 1.395 . S
C2304 C2307 1.403 . S
C2305 C2302 1.403 . S
C2305 C2306 1.524 . S
C2305 C2309 1.400 . S
C2306 H2291 0.960 . S
C2306 H2292 0.960 . S
C2306 H2293 0.960 . S
C2306 C2305 1.524 . S
C2307 C2304 1.403 . S
C2307 C2308 1.392 . S
C2307 C2311 1.495 . S
C2308 C2307 1.392 . S
C2308 C2309 1.385 . S
C2308 C2310 1.478 . S
C2309 H2303 0.930 . S
C2309 C2305 1.400 . S
C2309 C2308 1.385 . S
C2310 C2308 1.478 . S
C2310 C2312 1.381 . S
C2310 C2316 1.383 . S
C2311 C2307 1.495 . S
C2311 H2317 0.959 . S
C2311 H2318 0.961 . S
C2311 H2319 0.960 . S
C2312 C2310 1.381 . S
C2312 C2313 1.394 . S
C2312 H2320 0.930 . S
C2313 C2312 1.394 . S
C2313 C2314 1.383 . S
C2313 H2321 0.929 . S
C2314 C2313 1.383 . S
C2314 C2315 1.377 . S
C2315 H2299 0.930 . S
C2315 C2314 1.377 . S
C2315 C2316 1.379 . S
C2316 H2300 0.931 . S
C2316 C2310 1.383 . S
C2316 C2315 1.379 . S
H2317 C2311 0.959 . S
H2318 C2311 0.961 . S
H2319 C2311 0.960 . S
H2320 C2312 0.930 . S
H2321 C2313 0.929 . S
H2322 C2330 0.929 . S
H2323 C2332 0.930 . S
H2324 C2334 0.930 . S
H2325 C2337 0.929 . S
H2326 C2340 0.930 . S
H2327 C2342 0.960 . S
H2328 C2342 0.960 . S
H2329 C2342 0.960 . S
C2330 H2322 0.929 . S
C2330 C2331 1.377 . S
C2330 C2332 1.384 . S
C2331 C2330 1.377 . S
C2331 C2337 1.390 . S
C2332 H2323 0.930 . S
C2332 C2330 1.384 . S
C2332 C2333 1.372 . S
C2333 C2332 1.372 . S
C2333 C2334 1.400 . S
C2333 C2338 1.490 . S
C2334 H2324 0.930 . S
C2334 C2333 1.400 . S
C2334 C2337 1.386 . S
H2335 C2351 0.930 . S
H2336 C2352 0.931 . S
C2337 H2325 0.929 . S
C2337 C2331 1.390 . S
C2337 C2334 1.386 . S
C2338 C2333 1.490 . S
C2338 C2340 1.395 . S
C2338 C2341 1.403 . S
H2339 C2345 0.930 . S
C2340 H2326 0.930 . S
C2340 C2338 1.395 . S
C2340 C2343 1.403 . S
C2341 C2338 1.403 . S
C2341 C2342 1.524 . S
C2341 C2345 1.400 . S
C2342 H2327 0.960 . S
C2342 H2328 0.960 . S
C2342 H2329 0.960 . S
C2342 C2341 1.524 . S
C2343 C2340 1.403 . S
C2343 C2344 1.392 . S
C2343 C2347 1.495 . S
C2344 C2343 1.392 . S
C2344 C2345 1.385 . S
C2344 C2346 1.478 . S
C2345 H2339 0.930 . S
C2345 C2341 1.400 . S
C2345 C2344 1.385 . S
C2346 C2344 1.478 . S
C2346 C2348 1.381 . S
C2346 C2352 1.383 . S
C2347 C2343 1.495 . S
C2347 H2353 0.959 . S
C2347 H2354 0.961 . S
C2347 H2355 0.960 . S
C2348 C2346 1.381 . S
C2348 C2349 1.394 . S
C2348 H2356 0.930 . S
C2349 C2348 1.394 . S
C2349 C2350 1.383 . S
C2349 H2357 0.929 . S
C2350 C2349 1.383 . S
C2350 C2351 1.377 . S
C2351 H2335 0.930 . S
C2351 C2350 1.377 . S
C2351 C2352 1.379 . S
C2352 H2336 0.931 . S
C2352 C2346 1.383 . S
C2352 C2351 1.379 . S
H2353 C2347 0.959 . S
H2354 C2347 0.961 . S
H2355 C2347 0.960 . S
H2356 C2348 0.930 . S
H2357 C2349 0.929 . S
H2358 C2366 0.929 . S
H2359 C2368 0.930 . S
H2360 C2370 0.930 . S
H2361 C2373 0.929 . S
H2362 C2376 0.930 . S
H2363 C2378 0.960 . S
H2364 C2378 0.960 . S
H2365 C2378 0.960 . S
C2366 H2358 0.929 . S
C2366 C2367 1.377 . S
C2366 C2368 1.384 . S
C2367 C2366 1.377 . S
C2367 C2373 1.390 . S
C2368 H2359 0.930 . S
C2368 C2366 1.384 . S
C2368 C2369 1.372 . S
C2369 C2368 1.372 . S
C2369 C2370 1.400 . S
C2369 C2374 1.490 . S
C2370 H2360 0.930 . S
C2370 C2369 1.400 . S
C2370 C2373 1.386 . S
H2371 C2387 0.930 . S
H2372 C2388 0.931 . S
C2373 H2361 0.929 . S
C2373 C2367 1.390 . S
C2373 C2370 1.386 . S
C2374 C2369 1.490 . S
C2374 C2376 1.395 . S
C2374 C2377 1.403 . S
H2375 C2381 0.930 . S
C2376 H2362 0.930 . S
C2376 C2374 1.395 . S
C2376 C2379 1.403 . S
C2377 C2374 1.403 . S
C2377 C2378 1.524 . S
C2377 C2381 1.400 . S
C2378 H2363 0.960 . S
C2378 H2364 0.960 . S
C2378 H2365 0.960 . S
C2378 C2377 1.524 . S
C2379 C2376 1.403 . S
C2379 C2380 1.392 . S
C2379 C2383 1.495 . S
C2380 C2379 1.392 . S
C2380 C2381 1.385 . S
C2380 C2382 1.478 . S
C2381 H2375 0.930 . S
C2381 C2377 1.400 . S
C2381 C2380 1.385 . S
C2382 C2380 1.478 . S
C2382 C2384 1.381 . S
C2382 C2388 1.383 . S
C2383 C2379 1.495 . S
C2383 H2389 0.959 . S
C2383 H2390 0.961 . S
C2383 H2391 0.960 . S
C2384 C2382 1.381 . S
C2384 C2385 1.394 . S
C2384 H2392 0.930 . S
C2385 C2384 1.394 . S
C2385 C2386 1.383 . S
C2385 H2393 0.929 . S
C2386 C2385 1.383 . S
C2386 C2387 1.377 . S
C2387 H2371 0.930 . S
C2387 C2386 1.377 . S
C2387 C2388 1.379 . S
C2388 H2372 0.931 . S
C2388 C2382 1.383 . S
C2388 C2387 1.379 . S
H2389 C2383 0.959 . S
H2390 C2383 0.961 . S
H2391 C2383 0.960 . S
H2392 C2384 0.930 . S
H2393 C2385 0.929 . S
H2394 C2402 0.929 . S
H2395 C2404 0.930 . S
H2396 C2406 0.930 . S
H2397 C2409 0.929 . S
H2398 C2412 0.930 . S
H2399 C2414 0.960 . S
H2400 C2414 0.960 . S
H2401 C2414 0.960 . S
C2402 H2394 0.929 . S
C2402 C2403 1.377 . S
C2402 C2404 1.384 . S
C2403 C2402 1.377 . S
C2403 C2409 1.390 . S
C2404 H2395 0.930 . S
C2404 C2402 1.384 . S
C2404 C2405 1.372 . S
C2405 C2404 1.372 . S
C2405 C2406 1.400 . S
C2405 C2410 1.490 . S
C2406 H2396 0.930 . S
C2406 C2405 1.400 . S
C2406 C2409 1.386 . S
H2407 C2423 0.930 . S
H2408 C2424 0.931 . S
C2409 H2397 0.929 . S
C2409 C2403 1.390 . S
C2409 C2406 1.386 . S
C2410 C2405 1.490 . S
C2410 C2412 1.395 . S
C2410 C2413 1.403 . S
H2411 C2417 0.930 . S
C2412 H2398 0.930 . S
C2412 C2410 1.395 . S
C2412 C2415 1.403 . S
C2413 C2410 1.403 . S
C2413 C2414 1.524 . S
C2413 C2417 1.400 . S
C2414 H2399 0.960 . S
C2414 H2400 0.960 . S
C2414 H2401 0.960 . S
C2414 C2413 1.524 . S
C2415 C2412 1.403 . S
C2415 C2416 1.392 . S
C2415 C2419 1.495 . S
C2416 C2415 1.392 . S
C2416 C2417 1.385 . S
C2416 C2418 1.478 . S
C2417 H2411 0.930 . S
C2417 C2413 1.400 . S
C2417 C2416 1.385 . S
C2418 C2416 1.478 . S
C2418 C2420 1.381 . S
C2418 C2424 1.383 . S
C2419 C2415 1.495 . S
C2419 H2425 0.959 . S
C2419 H2426 0.961 . S
C2419 H2427 0.960 . S
C2420 C2418 1.381 . S
C2420 C2421 1.394 . S
C2420 H2428 0.930 . S
C2421 C2420 1.394 . S
C2421 C2422 1.383 . S
C2421 H2429 0.929 . S
C2422 C2421 1.383 . S
C2422 C2423 1.377 . S
C2423 H2407 0.930 . S
C2423 C2422 1.377 . S
C2423 C2424 1.379 . S
C2424 H2408 0.931 . S
C2424 C2418 1.383 . S
C2424 C2423 1.379 . S
H2425 C2419 0.959 . S
H2426 C2419 0.961 . S
H2427 C2419 0.960 . S
H2428 C2420 0.930 . S
H2429 C2421 0.929 . S
H2430 C2438 0.929 . S
H2431 C2440 0.930 . S
H2432 C2442 0.930 . S
H2433 C2445 0.929 . S
H2434 C2448 0.930 . S
H2435 C2450 0.960 . S
H2436 C2450 0.960 . S
H2437 C2450 0.960 . S
C2438 H2430 0.929 . S
C2438 C2439 1.377 . S
C2438 C2440 1.384 . S
C2439 C2438 1.377 . S
C2439 C2445 1.390 . S
C2440 H2431 0.930 . S
C2440 C2438 1.384 . S
C2440 C2441 1.372 . S
C2441 C2440 1.372 . S
C2441 C2442 1.400 . S
C2441 C2446 1.490 . S
C2442 H2432 0.930 . S
C2442 C2441 1.400 . S
C2442 C2445 1.386 . S
H2443 C2459 0.930 . S
H2444 C2460 0.931 . S
C2445 H2433 0.929 . S
C2445 C2439 1.390 . S
C2445 C2442 1.386 . S
C2446 C2441 1.490 . S
C2446 C2448 1.395 . S
C2446 C2449 1.403 . S
H2447 C2453 0.930 . S
C2448 H2434 0.930 . S
C2448 C2446 1.395 . S
C2448 C2451 1.403 . S
C2449 C2446 1.403 . S
C2449 C2450 1.524 . S
C2449 C2453 1.400 . S
C2450 H2435 0.960 . S
C2450 H2436 0.960 . S
C2450 H2437 0.960 . S
C2450 C2449 1.524 . S
C2451 C2448 1.403 . S
C2451 C2452 1.392 . S
C2451 C2455 1.495 . S
C2452 C2451 1.392 . S
C2452 C2453 1.385 . S
C2452 C2454 1.478 . S
C2453 H2447 0.930 . S
C2453 C2449 1.400 . S
C2453 C2452 1.385 . S
C2454 C2452 1.478 . S
C2454 C2456 1.381 . S
C2454 C2460 1.383 . S
C2455 C2451 1.495 . S
C2455 H2461 0.959 . S
C2455 H2462 0.961 . S
C2455 H2463 0.960 . S
C2456 C2454 1.381 . S
C2456 C2457 1.394 . S
C2456 H2464 0.930 . S
C2457 C2456 1.394 . S
C2457 C2458 1.383 . S
C2457 H2465 0.929 . S
C2458 C2457 1.383 . S
C2458 C2459 1.377 . S
C2459 H2443 0.930 . S
C2459 C2458 1.377 . S
C2459 C2460 1.379 . S
C2460 H2444 0.931 . S
C2460 C2454 1.383 . S
C2460 C2459 1.379 . S
H2461 C2455 0.959 . S
H2462 C2455 0.961 . S
H2463 C2455 0.960 . S
H2464 C2456 0.930 . S
H2465 C2457 0.929 . S
H2466 C2474 0.929 . S
H2467 C2476 0.930 . S
H2468 C2478 0.930 . S
H2469 C2481 0.929 . S
H2470 C2484 0.930 . S
H2471 C2486 0.960 . S
H2472 C2486 0.960 . S
H2473 C2486 0.960 . S
C2474 H2466 0.929 . S
C2474 C2475 1.377 . S
C2474 C2476 1.384 . S
C2475 C2474 1.377 . S
C2475 C2481 1.390 . S
C2476 H2467 0.930 . S
C2476 C2474 1.384 . S
C2476 C2477 1.372 . S
C2477 C2476 1.372 . S
C2477 C2478 1.400 . S
C2477 C2482 1.490 . S
C2478 H2468 0.930 . S
C2478 C2477 1.400 . S
C2478 C2481 1.386 . S
H2479 C2495 0.930 . S
H2480 C2496 0.931 . S
C2481 H2469 0.929 . S
C2481 C2475 1.390 . S
C2481 C2478 1.386 . S
C2482 C2477 1.490 . S
C2482 C2484 1.395 . S
C2482 C2485 1.403 . S
H2483 C2489 0.930 . S
C2484 H2470 0.930 . S
C2484 C2482 1.395 . S
C2484 C2487 1.403 . S
C2485 C2482 1.403 . S
C2485 C2486 1.524 . S
C2485 C2489 1.400 . S
C2486 H2471 0.960 . S
C2486 H2472 0.960 . S
C2486 H2473 0.960 . S
C2486 C2485 1.524 . S
C2487 C2484 1.403 . S
C2487 C2488 1.392 . S
C2487 C2491 1.495 . S
C2488 C2487 1.392 . S
C2488 C2489 1.385 . S
C2488 C2490 1.478 . S
C2489 H2483 0.930 . S
C2489 C2485 1.400 . S
C2489 C2488 1.385 . S
C2490 C2488 1.478 . S
C2490 C2492 1.381 . S
C2490 C2496 1.383 . S
C2491 C2487 1.495 . S
C2491 H2497 0.959 . S
C2491 H2498 0.961 . S
C2491 H2499 0.960 . S
C2492 C2490 1.381 . S
C2492 C2493 1.394 . S
C2492 H2500 0.930 . S
C2493 C2492 1.394 . S
C2493 C2494 1.383 . S
C2493 H2501 0.929 . S
C2494 C2493 1.383 . S
C2494 C2495 1.377 . S
C2495 H2479 0.930 . S
C2495 C2494 1.377 . S
C2495 C2496 1.379 . S
C2496 H2480 0.931 . S
C2496 C2490 1.383 . S
C2496 C2495 1.379 . S
H2497 C2491 0.959 . S
H2498 C2491 0.961 . S
H2499 C2491 0.960 . S
H2500 C2492 0.930 . S
H2501 C2493 0.929 . S
H2502 C2510 0.929 . S
H2503 C2512 0.930 . S
H2504 C2514 0.930 . S
H2505 C2517 0.929 . S
H2506 C2520 0.930 . S
H2507 C2522 0.960 . S
H2508 C2522 0.960 . S
H2509 C2522 0.960 . S
C2510 H2502 0.929 . S
C2510 C2511 1.377 . S
C2510 C2512 1.384 . S
C2511 C2510 1.377 . S
C2511 C2517 1.390 . S
C2512 H2503 0.930 . S
C2512 C2510 1.384 . S
C2512 C2513 1.372 . S
C2513 C2512 1.372 . S
C2513 C2514 1.400 . S
C2513 C2518 1.490 . S
C2514 H2504 0.930 . S
C2514 C2513 1.400 . S
C2514 C2517 1.386 . S
H2515 C2531 0.930 . S
H2516 C2532 0.931 . S
C2517 H2505 0.929 . S
C2517 C2511 1.390 . S
C2517 C2514 1.386 . S
C2518 C2513 1.490 . S
C2518 C2520 1.395 . S
C2518 C2521 1.403 . S
H2519 C2525 0.930 . S
C2520 H2506 0.930 . S
C2520 C2518 1.395 . S
C2520 C2523 1.403 . S
C2521 C2518 1.403 . S
C2521 C2522 1.524 . S
C2521 C2525 1.400 . S
C2522 H2507 0.960 . S
C2522 H2508 0.960 . S
C2522 H2509 0.960 . S
C2522 C2521 1.524 . S
C2523 C2520 1.403 . S
C2523 C2524 1.392 . S
C2523 C2527 1.495 . S
C2524 C2523 1.392 . S
C2524 C2525 1.385 . S
C2524 C2526 1.478 . S
C2525 H2519 0.930 . S
C2525 C2521 1.400 . S
C2525 C2524 1.385 . S
C2526 C2524 1.478 . S
C2526 C2528 1.381 . S
C2526 C2532 1.383 . S
C2527 C2523 1.495 . S
C2527 H2533 0.959 . S
C2527 H2534 0.961 . S
C2527 H2535 0.960 . S
C2528 C2526 1.381 . S
C2528 C2529 1.394 . S
C2528 H2536 0.930 . S
C2529 C2528 1.394 . S
C2529 C2530 1.383 . S
C2529 H2537 0.929 . S
C2530 C2529 1.383 . S
C2530 C2531 1.377 . S
C2531 H2515 0.930 . S
C2531 C2530 1.377 . S
C2531 C2532 1.379 . S
C2532 H2516 0.931 . S
C2532 C2526 1.383 . S
C2532 C2531 1.379 . S
H2533 C2527 0.959 . S
H2534 C2527 0.961 . S
H2535 C2527 0.960 . S
H2536 C2528 0.930 . S
H2537 C2529 0.929 . S
H2538 C2546 0.929 . S
H2539 C2548 0.930 . S
H2540 C2550 0.930 . S
H2541 C2553 0.929 . S
H2542 C2556 0.930 . S
H2543 C2558 0.960 . S
H2544 C2558 0.960 . S
H2545 C2558 0.960 . S
C2546 H2538 0.929 . S
C2546 C2547 1.377 . S
C2546 C2548 1.384 . S
C2547 C2546 1.377 . S
C2547 C2553 1.390 . S
C2548 H2539 0.930 . S
C2548 C2546 1.384 . S
C2548 C2549 1.372 . S
C2549 C2548 1.372 . S
C2549 C2550 1.400 . S
C2549 C2554 1.490 . S
C2550 H2540 0.930 . S
C2550 C2549 1.400 . S
C2550 C2553 1.386 . S
H2551 C2567 0.930 . S
H2552 C2568 0.931 . S
C2553 H2541 0.929 . S
C2553 C2547 1.390 . S
C2553 C2550 1.386 . S
C2554 C2549 1.490 . S
C2554 C2556 1.395 . S
C2554 C2557 1.403 . S
H2555 C2561 0.930 . S
C2556 H2542 0.930 . S
C2556 C2554 1.395 . S
C2556 C2559 1.403 . S
C2557 C2554 1.403 . S
C2557 C2558 1.524 . S
C2557 C2561 1.400 . S
C2558 H2543 0.960 . S
C2558 H2544 0.960 . S
C2558 H2545 0.960 . S
C2558 C2557 1.524 . S
C2559 C2556 1.403 . S
C2559 C2560 1.392 . S
C2559 C2563 1.495 . S
C2560 C2559 1.392 . S
C2560 C2561 1.385 . S
C2560 C2562 1.478 . S
C2561 H2555 0.930 . S
C2561 C2557 1.400 . S
C2561 C2560 1.385 . S
C2562 C2560 1.478 . S
C2562 C2564 1.381 . S
C2562 C2568 1.383 . S
C2563 C2559 1.495 . S
C2563 H2569 0.959 . S
C2563 H2570 0.961 . S
C2563 H2571 0.960 . S
C2564 C2562 1.381 . S
C2564 C2565 1.394 . S
C2564 H2572 0.930 . S
C2565 C2564 1.394 . S
C2565 C2566 1.383 . S
C2565 H2573 0.929 . S
C2566 C2565 1.383 . S
C2566 C2567 1.377 . S
C2567 H2551 0.930 . S
C2567 C2566 1.377 . S
C2567 C2568 1.379 . S
C2568 H2552 0.931 . S
C2568 C2562 1.383 . S
C2568 C2567 1.379 . S
H2569 C2563 0.959 . S
H2570 C2563 0.961 . S
H2571 C2563 0.960 . S
H2572 C2564 0.930 . S
H2573 C2565 0.929 . S
H2574 C2582 0.896 1_455 S
H2575 C2584 0.930 . S
H2576 C2586 0.930 . S
H2577 C2589 0.929 . S
H2578 C2592 0.930 . S
H2579 C2594 0.960 . S
H2580 C2594 0.960 . S
H2581 C2594 0.960 . S
C2582 H2574 0.896 1_655 S
C2582 C2583 1.377 . S
C2582 C2584 1.384 . S
C2583 C2582 1.377 . S
C2583 C2589 1.390 . S
C2584 H2575 0.930 . S
C2584 C2582 1.384 . S
C2584 C2585 1.372 . S
C2585 C2584 1.372 . S
C2585 C2586 1.400 . S
C2585 C2590 1.490 . S
C2586 H2576 0.930 . S
C2586 C2585 1.400 . S
C2586 C2589 1.386 . S
H2587 C2603 0.930 . S
H2588 C2604 0.931 . S
C2589 H2577 0.929 . S
C2589 C2583 1.390 . S
C2589 C2586 1.386 . S
C2590 C2585 1.490 . S
C2590 C2592 1.395 . S
C2590 C2593 1.403 . S
H2591 C2597 0.930 . S
C2592 H2578 0.930 . S
C2592 C2590 1.395 . S
C2592 C2595 1.403 . S
C2593 C2590 1.403 . S
C2593 C2594 1.524 . S
C2593 C2597 1.400 . S
C2594 H2579 0.960 . S
C2594 H2580 0.960 . S
C2594 H2581 0.960 . S
C2594 C2593 1.524 . S
C2595 C2592 1.403 . S
C2595 C2596 1.392 . S
C2595 C2599 1.495 . S
C2596 C2595 1.392 . S
C2596 C2597 1.385 . S
C2596 C2598 1.478 . S
C2597 H2591 0.930 . S
C2597 C2593 1.400 . S
C2597 C2596 1.385 . S
C2598 C2596 1.478 . S
C2598 C2600 1.381 . S
C2598 C2604 1.383 . S
C2599 C2595 1.495 . S
C2599 H2605 0.959 . S
C2599 H2606 0.961 . S
C2599 H2607 0.960 . S
C2600 C2598 1.381 . S
C2600 C2601 1.394 . S
C2600 H2608 0.930 . S
C2601 C2600 1.394 . S
C2601 C2602 1.383 . S
C2601 H2609 0.929 . S
C2602 C2601 1.383 . S
C2602 C2603 1.377 . S
C2603 H2587 0.930 . S
C2603 C2602 1.377 . S
C2603 C2604 1.379 . S
C2604 H2588 0.931 . S
C2604 C2598 1.383 . S
C2604 C2603 1.379 . S
H2605 C2599 0.959 . S
H2606 C2599 0.961 . S
H2607 C2599 0.960 . S
H2608 C2600 0.930 . S
H2609 C2601 0.929 . S
H2610 C2618 0.929 . S
H2611 C2620 0.930 . S
H2612 C2622 0.930 . S
H2613 C2625 0.929 . S
H2614 C2628 0.930 . S
H2615 C2630 0.960 . S
H2616 C2630 0.960 . S
H2617 C2630 0.960 . S
C2618 H2610 0.929 . S
C2618 C2619 1.377 . S
C2618 C2620 1.384 . S
C2619 C2618 1.377 . S
C2619 C2625 1.390 . S
C2620 H2611 0.930 . S
C2620 C2618 1.384 . S
C2620 C2621 1.372 . S
C2621 C2620 1.372 . S
C2621 C2622 1.400 . S
C2621 C2626 1.490 . S
C2622 H2612 0.930 . S
C2622 C2621 1.400 . S
C2622 C2625 1.386 . S
H2623 C2639 0.930 . S
H2624 C2640 0.931 . S
C2625 H2613 0.929 . S
C2625 C2619 1.390 . S
C2625 C2622 1.386 . S
C2626 C2621 1.490 . S
C2626 C2628 1.395 . S
C2626 C2629 1.403 . S
H2627 C2633 0.930 . S
C2628 H2614 0.930 . S
C2628 C2626 1.395 . S
C2628 C2631 1.403 . S
C2629 C2626 1.403 . S
C2629 C2630 1.524 . S
C2629 C2633 1.400 . S
C2630 H2615 0.960 . S
C2630 H2616 0.960 . S
C2630 H2617 0.960 . S
C2630 C2629 1.524 . S
C2631 C2628 1.403 . S
C2631 C2632 1.392 . S
C2631 C2635 1.495 . S
C2632 C2631 1.392 . S
C2632 C2633 1.385 . S
C2632 C2634 1.478 . S
C2633 H2627 0.930 . S
C2633 C2629 1.400 . S
C2633 C2632 1.385 . S
C2634 C2632 1.478 . S
C2634 C2636 1.381 . S
C2634 C2640 1.383 . S
C2635 C2631 1.495 . S
C2635 H2641 0.959 . S
C2635 H2642 0.961 . S
C2635 H2643 0.960 . S
C2636 C2634 1.381 . S
C2636 C2637 1.394 . S
C2636 H2644 0.930 . S
C2637 C2636 1.394 . S
C2637 C2638 1.383 . S
C2637 H2645 0.929 . S
C2638 C2637 1.383 . S
C2638 C2639 1.377 . S
C2639 H2623 0.930 . S
C2639 C2638 1.377 . S
C2639 C2640 1.379 . S
C2640 H2624 0.931 . S
C2640 C2634 1.383 . S
C2640 C2639 1.379 . S
H2641 C2635 0.959 . S
H2642 C2635 0.961 . S
H2643 C2635 0.960 . S
H2644 C2636 0.930 . S
H2645 C2637 0.929 . S
H2646 C2654 0.929 . S
H2647 C2656 0.930 . S
H2648 C2658 0.930 . S
H2649 C2661 0.929 . S
H2650 C2664 0.930 . S
H2651 C2666 0.960 . S
H2652 C2666 0.960 . S
H2653 C2666 0.960 . S
C2654 H2646 0.929 . S
C2654 C2655 1.377 . S
C2654 C2656 1.384 . S
C2655 C2654 1.377 . S
C2655 C2661 1.390 . S
C2656 H2647 0.930 . S
C2656 C2654 1.384 . S
C2656 C2657 1.372 . S
C2657 C2656 1.372 . S
C2657 C2658 1.400 . S
C2657 C2662 1.490 . S
C2658 H2648 0.930 . S
C2658 C2657 1.400 . S
C2658 C2661 1.386 . S
H2659 C2675 0.930 . S
H2660 C2676 0.931 . S
C2661 H2649 0.929 . S
C2661 C2655 1.390 . S
C2661 C2658 1.386 . S
C2662 C2657 1.490 . S
C2662 C2664 1.395 . S
C2662 C2665 1.403 . S
H2663 C2669 0.930 . S
C2664 H2650 0.930 . S
C2664 C2662 1.395 . S
C2664 C2667 1.403 . S
C2665 C2662 1.403 . S
C2665 C2666 1.524 . S
C2665 C2669 1.400 . S
C2666 H2651 0.960 . S
C2666 H2652 0.960 . S
C2666 H2653 0.960 . S
C2666 C2665 1.524 . S
C2667 C2664 1.403 . S
C2667 C2668 1.392 . S
C2667 C2671 1.495 . S
C2668 C2667 1.392 . S
C2668 C2669 1.385 . S
C2668 C2670 1.478 . S
C2669 H2663 0.930 . S
C2669 C2665 1.400 . S
C2669 C2668 1.385 . S
C2670 C2668 1.478 . S
C2670 C2672 1.381 . S
C2670 C2676 1.383 . S
C2671 C2667 1.495 . S
C2671 H2677 0.959 . S
C2671 H2678 0.961 . S
C2671 H2679 0.960 . S
C2672 C2670 1.381 . S
C2672 C2673 1.394 . S
C2672 H2680 0.930 . S
C2673 C2672 1.394 . S
C2673 C2674 1.383 . S
C2673 H2681 0.929 . S
C2674 C2673 1.383 . S
C2674 C2675 1.377 . S
C2675 H2659 0.930 . S
C2675 C2674 1.377 . S
C2675 C2676 1.379 . S
C2676 H2660 0.931 . S
C2676 C2670 1.383 . S
C2676 C2675 1.379 . S
H2677 C2671 0.959 . S
H2678 C2671 0.961 . S
H2679 C2671 0.960 . S
H2680 C2672 0.930 . S
H2681 C2673 0.929 . S
H2682 C2690 0.929 . S
H2683 C2692 0.930 . S
H2684 C2694 0.930 . S
H2685 C2697 0.929 . S
H2686 C2700 0.930 . S
H2687 C2702 0.960 . S
H2688 C2702 0.960 . S
H2689 C2702 0.960 . S
C2690 H2682 0.929 . S
C2690 C2691 1.377 . S
C2690 C2692 1.384 . S
C2691 C2690 1.377 . S
C2691 C2697 1.390 . S
C2692 H2683 0.930 . S
C2692 C2690 1.384 . S
C2692 C2693 1.372 . S
C2693 C2692 1.372 . S
C2693 C2694 1.400 . S
C2693 C2698 1.490 . S
C2694 H2684 0.930 . S
C2694 C2693 1.400 . S
C2694 C2697 1.386 . S
H2695 C2711 0.930 . S
H2696 C2712 0.931 . S
C2697 H2685 0.929 . S
C2697 C2691 1.390 . S
C2697 C2694 1.386 . S
C2698 C2693 1.490 . S
C2698 C2700 1.395 . S
C2698 C2701 1.403 . S
H2699 C2705 0.930 . S
C2700 H2686 0.930 . S
C2700 C2698 1.395 . S
C2700 C2703 1.403 . S
C2701 C2698 1.403 . S
C2701 C2702 1.524 . S
C2701 C2705 1.400 . S
C2702 H2687 0.960 . S
C2702 H2688 0.960 . S
C2702 H2689 0.960 . S
C2702 C2701 1.524 . S
C2703 C2700 1.403 . S
C2703 C2704 1.392 . S
C2703 C2707 1.495 . S
C2704 C2703 1.392 . S
C2704 C2705 1.385 . S
C2704 C2706 1.478 . S
C2705 H2699 0.930 . S
C2705 C2701 1.400 . S
C2705 C2704 1.385 . S
C2706 C2704 1.478 . S
C2706 C2708 1.381 . S
C2706 C2712 1.383 . S
C2707 C2703 1.495 . S
C2707 H2713 0.959 . S
C2707 H2714 0.961 . S
C2707 H2715 0.960 . S
C2708 C2706 1.381 . S
C2708 C2709 1.394 . S
C2708 H2716 0.930 . S
C2709 C2708 1.394 . S
C2709 C2710 1.383 . S
C2709 H2717 0.929 . S
C2710 C2709 1.383 . S
C2710 C2711 1.377 . S
C2711 H2695 0.930 . S
C2711 C2710 1.377 . S
C2711 C2712 1.379 . S
C2712 H2696 0.931 . S
C2712 C2706 1.383 . S
C2712 C2711 1.379 . S
H2713 C2707 0.959 . S
H2714 C2707 0.961 . S
H2715 C2707 0.960 . S
H2716 C2708 0.930 . S
H2717 C2709 0.929 . S
H2718 C2726 0.929 . S
H2719 C2728 0.930 . S
H2720 C2730 0.930 . S
H2721 C2733 0.929 . S
H2722 C2736 0.930 . S
H2723 C2738 0.960 . S
H2724 C2738 0.960 . S
H2725 C2738 0.960 . S
C2726 H2718 0.929 . S
C2726 C2727 1.377 . S
C2726 C2728 1.384 . S
C2727 C2726 1.377 . S
C2727 C2733 1.390 . S
C2728 H2719 0.930 . S
C2728 C2726 1.384 . S
C2728 C2729 1.372 . S
C2729 C2728 1.372 . S
C2729 C2730 1.400 . S
C2729 C2734 1.490 . S
C2730 H2720 0.930 . S
C2730 C2729 1.400 . S
C2730 C2733 1.386 . S
H2731 C2747 0.930 . S
H2732 C2748 0.931 . S
C2733 H2721 0.929 . S
C2733 C2727 1.390 . S
C2733 C2730 1.386 . S
C2734 C2729 1.490 . S
C2734 C2736 1.395 . S
C2734 C2737 1.403 . S
H2735 C2741 0.930 . S
C2736 H2722 0.930 . S
C2736 C2734 1.395 . S
C2736 C2739 1.403 . S
C2737 C2734 1.403 . S
C2737 C2738 1.524 . S
C2737 C2741 1.400 . S
C2738 H2723 0.960 . S
C2738 H2724 0.960 . S
C2738 H2725 0.960 . S
C2738 C2737 1.524 . S
C2739 C2736 1.403 . S
C2739 C2740 1.392 . S
C2739 C2743 1.495 . S
C2740 C2739 1.392 . S
C2740 C2741 1.385 . S
C2740 C2742 1.478 . S
C2741 H2735 0.930 . S
C2741 C2737 1.400 . S
C2741 C2740 1.385 . S
C2742 C2740 1.478 . S
C2742 C2744 1.381 . S
C2742 C2748 1.383 . S
C2743 C2739 1.495 . S
C2743 H2749 0.959 . S
C2743 H2750 0.961 . S
C2743 H2751 0.960 . S
C2744 C2742 1.381 . S
C2744 C2745 1.394 . S
C2744 H2752 0.930 . S
C2745 C2744 1.394 . S
C2745 C2746 1.383 . S
C2745 H2753 0.929 . S
C2746 C2745 1.383 . S
C2746 C2747 1.377 . S
C2747 H2731 0.930 . S
C2747 C2746 1.377 . S
C2747 C2748 1.379 . S
C2748 H2732 0.931 . S
C2748 C2742 1.383 . S
C2748 C2747 1.379 . S
H2749 C2743 0.959 . S
H2750 C2743 0.961 . S
H2751 C2743 0.960 . S
H2752 C2744 0.930 . S
H2753 C2745 0.929 . S
H2754 C2762 0.929 . S
H2755 C2764 0.930 . S
H2756 C2766 0.930 . S
H2757 C2769 0.929 . S
H2758 C2772 0.930 . S
H2759 C2774 0.960 . S
H2760 C2774 0.960 . S
H2761 C2774 0.960 . S
C2762 H2754 0.929 . S
C2762 C2763 1.377 . S
C2762 C2764 1.384 . S
C2763 C2762 1.377 . S
C2763 C2769 1.390 . S
C2764 H2755 0.930 . S
C2764 C2762 1.384 . S
C2764 C2765 1.372 . S
C2765 C2764 1.372 . S
C2765 C2766 1.400 . S
C2765 C2770 1.490 . S
C2766 H2756 0.930 . S
C2766 C2765 1.400 . S
C2766 C2769 1.386 . S
H2767 C2783 0.930 . S
H2768 C2784 0.931 . S
C2769 H2757 0.929 . S
C2769 C2763 1.390 . S
C2769 C2766 1.386 . S
C2770 C2765 1.490 . S
C2770 C2772 1.395 . S
C2770 C2773 1.403 . S
H2771 C2777 0.930 . S
C2772 H2758 0.930 . S
C2772 C2770 1.395 . S
C2772 C2775 1.403 . S
C2773 C2770 1.403 . S
C2773 C2774 1.524 . S
C2773 C2777 1.400 . S
C2774 H2759 0.960 . S
C2774 H2760 0.960 . S
C2774 H2761 0.960 . S
C2774 C2773 1.524 . S
C2775 C2772 1.403 . S
C2775 C2776 1.392 . S
C2775 C2779 1.495 . S
C2776 C2775 1.392 . S
C2776 C2777 1.385 . S
C2776 C2778 1.478 . S
C2777 H2771 0.930 . S
C2777 C2773 1.400 . S
C2777 C2776 1.385 . S
C2778 C2776 1.478 . S
C2778 C2780 1.381 . S
C2778 C2784 1.383 . S
C2779 C2775 1.495 . S
C2779 H2785 0.959 . S
C2779 H2786 0.961 . S
C2779 H2787 0.960 . S
C2780 C2778 1.381 . S
C2780 C2781 1.394 . S
C2780 H2788 0.930 . S
C2781 C2780 1.394 . S
C2781 C2782 1.383 . S
C2781 H2789 0.929 . S
C2782 C2781 1.383 . S
C2782 C2783 1.377 . S
C2783 H2767 0.930 . S
C2783 C2782 1.377 . S
C2783 C2784 1.379 . S
C2784 H2768 0.931 . S
C2784 C2778 1.383 . S
C2784 C2783 1.379 . S
H2785 C2779 0.959 . S
H2786 C2779 0.961 . S
H2787 C2779 0.960 . S
H2788 C2780 0.930 . S
H2789 C2781 0.929 . S
H2790 C2798 0.929 . S
H2791 C2800 0.930 . S
H2792 C2802 0.930 . S
H2793 C2805 0.929 . S
H2794 C2808 0.930 . S
H2795 C2810 0.960 . S
H2796 C2810 0.960 . S
H2797 C2810 0.960 . S
C2798 H2790 0.929 . S
C2798 C2799 1.377 . S
C2798 C2800 1.384 . S
C2799 C2798 1.377 . S
C2799 C2805 1.390 . S
C2800 H2791 0.930 . S
C2800 C2798 1.384 . S
C2800 C2801 1.372 . S
C2801 C2800 1.372 . S
C2801 C2802 1.400 . S
C2801 C2806 1.490 . S
C2802 H2792 0.930 . S
C2802 C2801 1.400 . S
C2802 C2805 1.386 . S
H2803 C2819 0.930 . S
H2804 C2820 0.931 . S
C2805 H2793 0.929 . S
C2805 C2799 1.390 . S
C2805 C2802 1.386 . S
C2806 C2801 1.490 . S
C2806 C2808 1.395 . S
C2806 C2809 1.403 . S
H2807 C2813 0.930 . S
C2808 H2794 0.930 . S
C2808 C2806 1.395 . S
C2808 C2811 1.403 . S
C2809 C2806 1.403 . S
C2809 C2810 1.524 . S
C2809 C2813 1.400 . S
C2810 H2795 0.960 . S
C2810 H2796 0.960 . S
C2810 H2797 0.960 . S
C2810 C2809 1.524 . S
C2811 C2808 1.403 . S
C2811 C2812 1.392 . S
C2811 C2815 1.495 . S
C2812 C2811 1.392 . S
C2812 C2813 1.385 . S
C2812 C2814 1.478 . S
C2813 H2807 0.930 . S
C2813 C2809 1.400 . S
C2813 C2812 1.385 . S
C2814 C2812 1.478 . S
C2814 C2816 1.381 . S
C2814 C2820 1.383 . S
C2815 C2811 1.495 . S
C2815 H2821 0.959 . S
C2815 H2822 0.961 . S
C2815 H2823 0.960 . S
C2816 C2814 1.381 . S
C2816 C2817 1.394 . S
C2816 H2824 0.930 . S
C2817 C2816 1.394 . S
C2817 C2818 1.383 . S
C2817 H2825 0.929 . S
C2818 C2817 1.383 . S
C2818 C2819 1.377 . S
C2819 H2803 0.930 . S
C2819 C2818 1.377 . S
C2819 C2820 1.379 . S
C2820 H2804 0.931 . S
C2820 C2814 1.383 . S
C2820 C2819 1.379 . S
H2821 C2815 0.959 . S
H2822 C2815 0.961 . S
H2823 C2815 0.960 . S
H2824 C2816 0.930 . S
H2825 C2817 0.929 . S
H2826 C2834 0.929 . S
H2827 C2836 0.930 . S
H2828 C2838 0.930 . S
H2829 C2841 0.929 . S
H2830 C2844 0.930 . S
H2831 C2846 0.960 . S
H2832 C2846 0.960 . S
H2833 C2846 0.960 . S
C2834 H2826 0.929 . S
C2834 C2835 1.377 . S
C2834 C2836 1.384 . S
C2835 C2834 1.377 . S
C2835 C2841 1.390 . S
C2836 H2827 0.930 . S
C2836 C2834 1.384 . S
C2836 C2837 1.372 . S
C2837 C2836 1.372 . S
C2837 C2838 1.400 . S
C2837 C2842 1.490 . S
C2838 H2828 0.930 . S
C2838 C2837 1.400 . S
C2838 C2841 1.386 . S
H2839 C2855 0.930 . S
H2840 C2856 0.931 . S
C2841 H2829 0.929 . S
C2841 C2835 1.390 . S
C2841 C2838 1.386 . S
C2842 C2837 1.490 . S
C2842 C2844 1.395 . S
C2842 C2845 1.403 . S
H2843 C2849 0.930 . S
C2844 H2830 0.930 . S
C2844 C2842 1.395 . S
C2844 C2847 1.403 . S
C2845 C2842 1.403 . S
C2845 C2846 1.524 . S
C2845 C2849 1.400 . S
C2846 H2831 0.960 . S
C2846 H2832 0.960 . S
C2846 H2833 0.960 . S
C2846 C2845 1.524 . S
C2847 C2844 1.403 . S
C2847 C2848 1.392 . S
C2847 C2851 1.495 . S
C2848 C2847 1.392 . S
C2848 C2849 1.385 . S
C2848 C2850 1.478 . S
C2849 H2843 0.930 . S
C2849 C2845 1.400 . S
C2849 C2848 1.385 . S
C2850 C2848 1.478 . S
C2850 C2852 1.381 . S
C2850 C2856 1.383 . S
C2851 C2847 1.495 . S
C2851 H2857 0.959 . S
C2851 H2858 0.961 . S
C2851 H2859 0.960 . S
C2852 C2850 1.381 . S
C2852 C2853 1.394 . S
C2852 H2860 0.930 . S
C2853 C2852 1.394 . S
C2853 C2854 1.383 . S
C2853 H2861 0.929 . S
C2854 C2853 1.383 . S
C2854 C2855 1.377 . S
C2855 H2839 0.930 . S
C2855 C2854 1.377 . S
C2855 C2856 1.379 . S
C2856 H2840 0.931 . S
C2856 C2850 1.383 . S
C2856 C2855 1.379 . S
H2857 C2851 0.959 . S
H2858 C2851 0.961 . S
H2859 C2851 0.960 . S
H2860 C2852 0.930 . S
H2861 C2853 0.929 . S
H2862 C2870 0.929 . S
H2863 C2872 0.930 . S
H2864 C2874 0.930 . S
H2865 C2877 0.929 . S
H2866 C2880 0.930 . S
H2867 C2882 0.960 . S
H2868 C2882 0.960 . S
H2869 C2882 0.960 . S
C2870 H2862 0.929 . S
C2870 C2871 1.377 . S
C2870 C2872 1.384 . S
C2871 C2870 1.377 . S
C2871 C2877 1.390 . S
C2872 H2863 0.930 . S
C2872 C2870 1.384 . S
C2872 C2873 1.372 . S
C2873 C2872 1.372 . S
C2873 C2874 1.400 . S
C2873 C2878 1.490 . S
C2874 H2864 0.930 . S
C2874 C2873 1.400 . S
C2874 C2877 1.386 . S
H2875 C2891 0.930 . S
H2876 C2892 0.931 . S
C2877 H2865 0.929 . S
C2877 C2871 1.390 . S
C2877 C2874 1.386 . S
C2878 C2873 1.490 . S
C2878 C2880 1.395 . S
C2878 C2881 1.403 . S
H2879 C2885 0.930 . S
C2880 H2866 0.930 . S
C2880 C2878 1.395 . S
C2880 C2883 1.403 . S
C2881 C2878 1.403 . S
C2881 C2882 1.524 . S
C2881 C2885 1.400 . S
C2882 H2867 0.960 . S
C2882 H2868 0.960 . S
C2882 H2869 0.960 . S
C2882 C2881 1.524 . S
C2883 C2880 1.403 . S
C2883 C2884 1.392 . S
C2883 C2887 1.495 . S
C2884 C2883 1.392 . S
C2884 C2885 1.385 . S
C2884 C2886 1.478 . S
C2885 H2879 0.930 . S
C2885 C2881 1.400 . S
C2885 C2884 1.385 . S
C2886 C2884 1.478 . S
C2886 C2888 1.381 . S
C2886 C2892 1.383 . S
C2887 C2883 1.495 . S
C2887 H2893 0.959 . S
C2887 H2894 0.961 . S
C2887 H2895 0.960 . S
C2888 C2886 1.381 . S
C2888 C2889 1.394 . S
C2888 H2896 0.930 . S
C2889 C2888 1.394 . S
C2889 C2890 1.383 . S
C2889 H2897 0.929 . S
C2890 C2889 1.383 . S
C2890 C2891 1.377 . S
C2891 H2875 0.930 . S
C2891 C2890 1.377 . S
C2891 C2892 1.379 . S
C2892 H2876 0.931 . S
C2892 C2886 1.383 . S
C2892 C2891 1.379 . S
H2893 C2887 0.959 . S
H2894 C2887 0.961 . S
H2895 C2887 0.960 . S
H2896 C2888 0.930 . S
H2897 C2889 0.929 . S
H2898 C2906 0.929 . S
H2899 C2908 0.930 . S
H2900 C2910 0.930 . S
H2901 C2913 0.929 . S
H2902 C2916 0.930 . S
H2903 C2918 0.960 . S
H2904 C2918 0.960 . S
H2905 C2918 0.960 . S
C2906 H2898 0.929 . S
C2906 C2907 1.377 . S
C2906 C2908 1.384 . S
C2907 C2906 1.377 . S
C2907 C2913 1.390 . S
C2908 H2899 0.930 . S
C2908 C2906 1.384 . S
C2908 C2909 1.372 . S
C2909 C2908 1.372 . S
C2909 C2910 1.400 . S
C2909 C2914 1.490 . S
C2910 H2900 0.930 . S
C2910 C2909 1.400 . S
C2910 C2913 1.386 . S
H2911 C2927 0.930 . S
H2912 C2928 0.931 . S
C2913 H2901 0.929 . S
C2913 C2907 1.390 . S
C2913 C2910 1.386 . S
C2914 C2909 1.490 . S
C2914 C2916 1.395 . S
C2914 C2917 1.403 . S
H2915 C2921 0.930 . S
C2916 H2902 0.930 . S
C2916 C2914 1.395 . S
C2916 C2919 1.403 . S
C2917 C2914 1.403 . S
C2917 C2918 1.524 . S
C2917 C2921 1.400 . S
C2918 H2903 0.960 . S
C2918 H2904 0.960 . S
C2918 H2905 0.960 . S
C2918 C2917 1.524 . S
C2919 C2916 1.403 . S
C2919 C2920 1.392 . S
C2919 C2923 1.495 . S
C2920 C2919 1.392 . S
C2920 C2921 1.385 . S
C2920 C2922 1.478 . S
C2921 H2915 0.930 . S
C2921 C2917 1.400 . S
C2921 C2920 1.385 . S
C2922 C2920 1.478 . S
C2922 C2924 1.381 . S
C2922 C2928 1.383 . S
C2923 C2919 1.495 . S
C2923 H2929 0.959 . S
C2923 H2930 0.961 . S
C2923 H2931 0.960 . S
C2924 C2922 1.381 . S
C2924 C2925 1.394 . S
C2924 H2932 0.930 . S
C2925 C2924 1.394 . S
C2925 C2926 1.383 . S
C2925 H2933 0.929 . S
C2926 C2925 1.383 . S
C2926 C2927 1.377 . S
C2927 H2911 0.930 . S
C2927 C2926 1.377 . S
C2927 C2928 1.379 . S
C2928 H2912 0.931 . S
C2928 C2922 1.383 . S
C2928 C2927 1.379 . S
H2929 C2923 0.959 . S
H2930 C2923 0.961 . S
H2931 C2923 0.960 . S
H2932 C2924 0.930 . S
H2933 C2925 0.929 . S
H2934 C2942 0.929 1_545 S
H2935 C2944 0.930 . S
H2936 C2946 0.930 . S
H2937 C2949 0.929 . S
H2938 C2952 0.930 . S
H2939 C2954 0.960 . S
H2940 C2954 0.960 . S
H2941 C2954 0.960 . S
C2942 H2934 0.929 1_565 S
C2942 C2943 1.377 . S
C2942 C2944 1.384 . S
C2943 C2942 1.377 . S
C2943 C2949 1.390 . S
C2944 H2935 0.930 . S
C2944 C2942 1.384 . S
C2944 C2945 1.372 . S
C2945 C2944 1.372 . S
C2945 C2946 1.400 . S
C2945 C2950 1.490 . S
C2946 H2936 0.930 . S
C2946 C2945 1.400 . S
C2946 C2949 1.386 . S
H2947 C2963 0.930 . S
H2948 C2964 0.931 . S
C2949 H2937 0.929 . S
C2949 C2943 1.390 . S
C2949 C2946 1.386 . S
C2950 C2945 1.490 . S
C2950 C2952 1.395 . S
C2950 C2953 1.403 . S
H2951 C2957 0.930 . S
C2952 H2938 0.930 . S
C2952 C2950 1.395 . S
C2952 C2955 1.403 . S
C2953 C2950 1.403 . S
C2953 C2954 1.524 . S
C2953 C2957 1.400 . S
C2954 H2939 0.960 . S
C2954 H2940 0.960 . S
C2954 H2941 0.960 . S
C2954 C2953 1.524 . S
C2955 C2952 1.403 . S
C2955 C2956 1.392 . S
C2955 C2959 1.495 . S
C2956 C2955 1.392 . S
C2956 C2957 1.385 . S
C2956 C2958 1.478 . S
C2957 H2951 0.930 . S
C2957 C2953 1.400 . S
C2957 C2956 1.385 . S
C2958 C2956 1.478 . S
C2958 C2960 1.381 . S
C2958 C2964 1.383 . S
C2959 C2955 1.495 . S
C2959 H2965 0.959 . S
C2959 H2966 0.961 . S
C2959 H2967 0.960 . S
C2960 C2958 1.381 . S
C2960 C2961 1.394 . S
C2960 H2968 0.930 . S
C2961 C2960 1.394 . S
C2961 C2962 1.383 . S
C2961 H2969 0.929 . S
C2962 C2961 1.383 . S
C2962 C2963 1.377 . S
C2963 H2947 0.930 . S
C2963 C2962 1.377 . S
C2963 C2964 1.379 . S
C2964 H2948 0.931 . S
C2964 C2958 1.383 . S
C2964 C2963 1.379 . S
H2965 C2959 0.959 . S
H2966 C2959 0.961 . S
H2967 C2959 0.960 . S
H2968 C2960 0.930 . S
H2969 C2961 0.929 . S
H2970 C2978 0.929 . S
H2971 C2980 0.930 . S
H2972 C2982 0.930 . S
H2973 C2985 0.929 . S
H2974 C2988 0.930 . S
H2975 C2990 0.960 . S
H2976 C2990 0.960 . S
H2977 C2990 0.960 . S
C2978 H2970 0.929 . S
C2978 C2979 1.377 . S
C2978 C2980 1.384 . S
C2979 C2978 1.377 . S
C2979 C2985 1.390 . S
C2980 H2971 0.930 . S
C2980 C2978 1.384 . S
C2980 C2981 1.372 . S
C2981 C2980 1.372 . S
C2981 C2982 1.400 . S
C2981 C2986 1.490 . S
C2982 H2972 0.930 . S
C2982 C2981 1.400 . S
C2982 C2985 1.386 . S
H2983 C2999 0.930 . S
H2984 C3000 0.931 . S
C2985 H2973 0.929 . S
C2985 C2979 1.390 . S
C2985 C2982 1.386 . S
C2986 C2981 1.490 . S
C2986 C2988 1.395 . S
C2986 C2989 1.403 . S
H2987 C2993 0.930 . S
C2988 H2974 0.930 . S
C2988 C2986 1.395 . S
C2988 C2991 1.403 . S
C2989 C2986 1.403 . S
C2989 C2990 1.524 . S
C2989 C2993 1.400 . S
C2990 H2975 0.960 . S
C2990 H2976 0.960 . S
C2990 H2977 0.960 . S
C2990 C2989 1.524 . S
C2991 C2988 1.403 . S
C2991 C2992 1.392 . S
C2991 C2995 1.495 . S
C2992 C2991 1.392 . S
C2992 C2993 1.385 . S
C2992 C2994 1.478 . S
C2993 H2987 0.930 . S
C2993 C2989 1.400 . S
C2993 C2992 1.385 . S
C2994 C2992 1.478 . S
C2994 C2996 1.381 . S
C2994 C3000 1.383 . S
C2995 C2991 1.495 . S
C2995 H3001 0.959 . S
C2995 H3002 0.961 . S
C2995 H3003 0.960 . S
C2996 C2994 1.381 . S
C2996 C2997 1.394 . S
C2996 H3004 0.930 . S
C2997 C2996 1.394 . S
C2997 C2998 1.383 . S
C2997 H3005 0.929 . S
C2998 C2997 1.383 . S
C2998 C2999 1.377 . S
C2999 H2983 0.930 . S
C2999 C2998 1.377 . S
C2999 C3000 1.379 . S
C3000 H2984 0.931 . S
C3000 C2994 1.383 . S
C3000 C2999 1.379 . S
H3001 C2995 0.959 . S
H3002 C2995 0.961 . S
H3003 C2995 0.960 . S
H3004 C2996 0.930 . S
H3005 C2997 0.929 . S
H3006 C3014 0.929 . S
H3007 C3016 0.930 . S
H3008 C3018 0.930 . S
H3009 C3021 0.929 . S
H3010 C3024 0.930 . S
H3011 C3026 0.960 . S
H3012 C3026 0.960 . S
H3013 C3026 0.960 . S
C3014 H3006 0.929 . S
C3014 C3015 1.377 . S
C3014 C3016 1.384 . S
C3015 C3014 1.377 . S
C3015 C3021 1.390 . S
C3016 H3007 0.930 . S
C3016 C3014 1.384 . S
C3016 C3017 1.372 . S
C3017 C3016 1.372 . S
C3017 C3018 1.400 . S
C3017 C3022 1.490 . S
C3018 H3008 0.930 . S
C3018 C3017 1.400 . S
C3018 C3021 1.386 . S
H3019 C3035 0.930 . S
H3020 C3036 0.931 . S
C3021 H3009 0.929 . S
C3021 C3015 1.390 . S
C3021 C3018 1.386 . S
C3022 C3017 1.490 . S
C3022 C3024 1.395 . S
C3022 C3025 1.403 . S
H3023 C3029 0.930 . S
C3024 H3010 0.930 . S
C3024 C3022 1.395 . S
C3024 C3027 1.403 . S
C3025 C3022 1.403 . S
C3025 C3026 1.524 . S
C3025 C3029 1.400 . S
C3026 H3011 0.960 . S
C3026 H3012 0.960 . S
C3026 H3013 0.960 . S
C3026 C3025 1.524 . S
C3027 C3024 1.403 . S
C3027 C3028 1.392 . S
C3027 C3031 1.495 . S
C3028 C3027 1.392 . S
C3028 C3029 1.385 . S
C3028 C3030 1.478 . S
C3029 H3023 0.930 . S
C3029 C3025 1.400 . S
C3029 C3028 1.385 . S
C3030 C3028 1.478 . S
C3030 C3032 1.381 . S
C3030 C3036 1.383 . S
C3031 C3027 1.495 . S
C3031 H3037 0.959 . S
C3031 H3038 0.961 . S
C3031 H3039 0.960 . S
C3032 C3030 1.381 . S
C3032 C3033 1.394 . S
C3032 H3040 0.930 . S
C3033 C3032 1.394 . S
C3033 C3034 1.383 . S
C3033 H3041 0.929 . S
C3034 C3033 1.383 . S
C3034 C3035 1.377 . S
C3035 H3019 0.930 . S
C3035 C3034 1.377 . S
C3035 C3036 1.379 . S
C3036 H3020 0.931 . S
C3036 C3030 1.383 . S
C3036 C3035 1.379 . S
H3037 C3031 0.959 . S
H3038 C3031 0.961 . S
H3039 C3031 0.960 . S
H3040 C3032 0.930 . S
H3041 C3033 0.929 . S
H3042 C3050 0.929 . S
H3043 C3052 0.930 . S
H3044 C3054 0.930 . S
H3045 C3057 0.929 . S
H3046 C3060 0.930 . S
H3047 C3062 0.960 . S
H3048 C3062 0.960 . S
H3049 C3062 0.960 . S
C3050 H3042 0.929 . S
C3050 C3051 1.377 . S
C3050 C3052 1.384 . S
C3051 C3050 1.377 . S
C3051 C3057 1.390 . S
C3052 H3043 0.930 . S
C3052 C3050 1.384 . S
C3052 C3053 1.372 . S
C3053 C3052 1.372 . S
C3053 C3054 1.400 . S
C3053 C3058 1.490 . S
C3054 H3044 0.930 . S
C3054 C3053 1.400 . S
C3054 C3057 1.386 . S
H3055 C3071 0.930 . S
H3056 C3072 0.931 . S
C3057 H3045 0.929 . S
C3057 C3051 1.390 . S
C3057 C3054 1.386 . S
C3058 C3053 1.490 . S
C3058 C3060 1.395 . S
C3058 C3061 1.403 . S
H3059 C3065 0.930 . S
C3060 H3046 0.930 . S
C3060 C3058 1.395 . S
C3060 C3063 1.403 . S
C3061 C3058 1.403 . S
C3061 C3062 1.524 . S
C3061 C3065 1.400 . S
C3062 H3047 0.960 . S
C3062 H3048 0.960 . S
C3062 H3049 0.960 . S
C3062 C3061 1.524 . S
C3063 C3060 1.403 . S
C3063 C3064 1.392 . S
C3063 C3067 1.495 . S
C3064 C3063 1.392 . S
C3064 C3065 1.385 . S
C3064 C3066 1.478 . S
C3065 H3059 0.930 . S
C3065 C3061 1.400 . S
C3065 C3064 1.385 . S
C3066 C3064 1.478 . S
C3066 C3068 1.381 . S
C3066 C3072 1.383 . S
C3067 C3063 1.495 . S
C3067 H3073 0.959 . S
C3067 H3074 0.961 . S
C3067 H3075 0.960 . S
C3068 C3066 1.381 . S
C3068 C3069 1.394 . S
C3068 H3076 0.930 . S
C3069 C3068 1.394 . S
C3069 C3070 1.383 . S
C3069 H3077 0.929 . S
C3070 C3069 1.383 . S
C3070 C3071 1.377 . S
C3071 H3055 0.930 . S
C3071 C3070 1.377 . S
C3071 C3072 1.379 . S
C3072 H3056 0.931 . S
C3072 C3066 1.383 . S
C3072 C3071 1.379 . S
H3073 C3067 0.959 . S
H3074 C3067 0.961 . S
H3075 C3067 0.960 . S
H3076 C3068 0.930 . S
H3077 C3069 0.929 . S
C495 C29 1.274 . S
C514 C238 1.069 . S
C531 C4 1.245 . S
C550 C254 1.022 . S
C586 C237 1.179 . S
C567 C16 1.292 . S
C622 C262 1.144 . S
C603 C30 1.268 . S
C639 C3 1.291 . S
C658 C271 1.173 . S
C694 C274 1.061 . S
C675 C17 1.246 . S
C711 C70 1.271 . S
C730 C280 1.137 . S
C766 C296 1.033 . S
C747 C49 1.246 . S
C802 C279 1.064 . S
C783 C57 1.294 . S
C819 C75 1.268 . S
C838 C304 1.045 . S
C874 C313 1.082 . S
C855 C44 1.291 . S
C910 C316 1.039 . S
C891 C62 1.246 . S
C946 C325 1.103 . S
C927 C107 1.275 . S
C982 C337 1.015 . S
C963 C88 1.245 . S
C1018 C334 1.078 . S
C999 C96 1.292 . S
C1035 C108 1.266 . S
C1054 C343 1.029 . S
C1090 C342 1.061 . S
C1071 C83 1.288 . S
C1107 C101 1.246 . S
C1126 C359 1.133 . S
C1162 C364 1.099 . S
C1143 C146 1.272 . S
C1198 C380 1.018 . S
C1179 C121 1.247 . S
C1215 C135 1.294 . S
C1234 C363 1.066 . S
C1270 C388 1.072 . S
C1251 C147 1.268 . S
C1306 C397 1.153 . S
C1287 C120 1.288 . S
C1323 C140 1.243 . S
C1342 C400 1.137 . S
C1359 C187 1.273 . S
C1378 C409 1.060 . S
C1414 C421 1.132 . S
C1395 C160 1.245 . S
C1450 C418 1.064 . S
C1431 C172 1.290 . S
C1467 C192 1.266 . S
C1486 C427 1.035 . S
C1522 C426 1.128 . S
C1503 C159 1.292 . S
C1539 C173 1.243 . S
C1558 C443 1.052 . S
C1594 C448 1.040 . S
C1575 C226 1.275 . S
C1630 C464 1.081 . S
C1611 C205 1.245 . S
C1647 C213 1.290 . S
C1666 C447 1.163 . S
C1702 C469 1.126 . S
C1683 C231 1.266 . S
C1738 C468 1.176 . S
C1719 C200 1.288 . S
C1774 C485 1.135 . S
C1755 C218 1.243 . S
C1810 C250 1.545 . S
C1791 C148 1.635 . S
C1827 C127 1.607 . S
C1846 C253 1.493 1_655 S
C1882 C241 1.502 . S
C1863 C133 1.598 . S
C1899 C225 1.628 . S
C1918 C258 1.515 . S
C1935 C198 1.591 . S
C1954 C259 1.455 . S
C1990 C275 1.483 . S
C1971 C212 1.602 . S
C2026 C292 1.486 1_565 S
C2007 C185 1.635 . S
C2062 C295 1.483 . S
C2043 C166 1.609 . S
C2079 C174 1.596 . S
C2098 C283 1.496 . S
C2134 C300 1.541 1_655 S
C2115 C114 1.628 . S
C2151 C81 1.592 . S
C2170 C301 1.480 . S
C2187 C95 1.604 . S
C2206 C317 1.450 . S
C2223 C224 1.634 1_655 S
C2242 C321 1.508 . S
C2259 C199 1.608 . S
C2278 C338 1.496 . S
C2314 C322 1.465 . S
C2295 C211 1.597 . S
C2350 C355 1.490 . S
C2331 C69 1.627 . S
C2386 C346 1.482 . S
C2367 C42 1.593 . S
C2403 C56 1.603 . S
C2422 C358 1.476 . S
C2458 C376 1.541 . S
C2439 C31 1.633 . S
C2494 C379 1.495 . S
C2475 C10 1.605 . S
C2511 C18 1.598 . S
C2530 C367 1.465 . S
C2566 C384 1.516 . S
C2547 C186 1.626 . S
C2602 C385 1.499 . S
C2583 C161 1.592 1_655 S
C2638 C401 1.485 . S
C2619 C179 1.601 . S
C2674 C405 1.547 . S
C2655 C68 1.635 . S
C2710 C422 1.493 . S
C2691 C43 1.607 . S
C2727 C55 1.598 . S
C2746 C406 1.505 . S
C2763 C153 1.626 1_565 S
C2782 C439 1.477 . S
C2799 C122 1.591 . S
C2818 C430 1.426 . S
C2854 C442 1.490 . S
C2835 C134 1.603 . S
C2871 C109 1.633 . S
C2890 C460 1.535 . S
C2907 C82 1.606 . S
C2926 C463 1.475 . S
C2962 C451 1.505 . S
C2943 C94 1.597 1_565 S
C2998 C481 1.495 . S
C2979 C36 1.626 . S
C3034 C472 1.494 . S
C3015 C5 1.592 . S
C3051 C23 1.605 . S
C3070 C484 1.469 . S
