# Generated by pormake.
# Topology cml, (3,6)-cn, num edge types: 1
# Building blocks:
#     Node 0, Type 0, BuildingBlock: OLANEW_clean_sbu_2, # of connection points: 3
#     Node 1, Type 0, BuildingBlock: OLANEW_clean_sbu_2, # of connection points: 3
#     Node 2, Type 0, BuildingBlock: OLANEW_clean_sbu_2, # of connection points: 3
#     Node 3, Type 0, BuildingBlock: OLANEW_clean_sbu_2, # of connection points: 3
#     Node 4, Type 0, BuildingBlock: OLANEW_clean_sbu_2, # of connection points: 3
#     Node 5, Type 0, BuildingBlock: OLANEW_clean_sbu_2, # of connection points: 3
#     Node 6, Type 0, BuildingBlock: OLANEW_clean_sbu_2, # of connection points: 3
#     Node 7, Type 0, BuildingBlock: OLANEW_clean_sbu_2, # of connection points: 3
#     Node 8, Type 1, BuildingBlock: IZENUY_clean_sbu_0, # of connection points: 6
#     Node 9, Type 1, BuildingBlock: IZENUY_clean_sbu_0, # of connection points: 6
#     Node 10, Type 1, BuildingBlock: IZENUY_clean_sbu_0, # of connection points: 6
#     Node 11, Type 1, BuildingBlock: IZENUY_clean_sbu_0, # of connection points: 6
#     Edge 12, Type (0, 1), BuildingBlock: OJICUG_clean_linker_0, # of connection points: 2
#     Edge 13, Type (0, 1), BuildingBlock: OJICUG_clean_linker_0, # of connection points: 2
#     Edge 14, Type (0, 1), BuildingBlock: OJICUG_clean_linker_0, # of connection points: 2
#     Edge 15, Type (0, 1), BuildingBlock: OJICUG_clean_linker_0, # of connection points: 2
#     Edge 16, Type (0, 1), BuildingBlock: OJICUG_clean_linker_0, # of connection points: 2
#     Edge 17, Type (0, 1), BuildingBlock: OJICUG_clean_linker_0, # of connection points: 2
#     Edge 18, Type (0, 1), BuildingBlock: OJICUG_clean_linker_0, # of connection points: 2
#     Edge 19, Type (0, 1), BuildingBlock: OJICUG_clean_linker_0, # of connection points: 2
#     Edge 20, Type (0, 1), BuildingBlock: OJICUG_clean_linker_0, # of connection points: 2
#     Edge 21, Type (0, 1), BuildingBlock: OJICUG_clean_linker_0, # of connection points: 2
#     Edge 22, Type (0, 1), BuildingBlock: OJICUG_clean_linker_0, # of connection points: 2
#     Edge 23, Type (0, 1), BuildingBlock: OJICUG_clean_linker_0, # of connection points: 2
#     Edge 24, Type (0, 1), BuildingBlock: OJICUG_clean_linker_0, # of connection points: 2
#     Edge 25, Type (0, 1), BuildingBlock: OJICUG_clean_linker_0, # of connection points: 2
#     Edge 26, Type (0, 1), BuildingBlock: OJICUG_clean_linker_0, # of connection points: 2
#     Edge 27, Type (0, 1), BuildingBlock: OJICUG_clean_linker_0, # of connection points: 2
#     Edge 28, Type (0, 1), BuildingBlock: OJICUG_clean_linker_0, # of connection points: 2
#     Edge 29, Type (0, 1), BuildingBlock: OJICUG_clean_linker_0, # of connection points: 2
#     Edge 30, Type (0, 1), BuildingBlock: OJICUG_clean_linker_0, # of connection points: 2
#     Edge 31, Type (0, 1), BuildingBlock: OJICUG_clean_linker_0, # of connection points: 2
#     Edge 32, Type (0, 1), BuildingBlock: OJICUG_clean_linker_0, # of connection points: 2
#     Edge 33, Type (0, 1), BuildingBlock: OJICUG_clean_linker_0, # of connection points: 2
#     Edge 34, Type (0, 1), BuildingBlock: OJICUG_clean_linker_0, # of connection points: 2
#     Edge 35, Type (0, 1), BuildingBlock: OJICUG_clean_linker_0, # of connection points: 2
# Relax obj value: 0.018
# Max RMSD: 0.072
# Mean RMSD: 0.061
data_MOF--net-cml--node1-OLANEW_clean_sbu_2--node2-IZENUY_clean_sbu_0--edge1-OJICUG_clean_linker_0
_symmetry_space_group_name_H-M    P1
_symmetry_Int_Tables_number       1
_symmetry_cell_setting            triclinic
loop_
_symmetry_equiv_pos_as_xyz
'x, y, z'
_cell_length_a     29.428721
_cell_length_b     32.265257
_cell_length_c     29.679781
_cell_angle_alpha  87.917852
_cell_angle_beta   87.112857
_cell_angle_gamma 88.579439
loop_
_atom_site_label
_atom_site_type_symbol
_atom_site_fract_x
_atom_site_fract_y
_atom_site_fract_z
_atom_type_partial_charge
O0 O 0.29978 0.44444 0.89863 0.0
Cd1 Cd 0.23618 0.40629 0.93844 0.0
O2 O 0.32337 0.44362 0.96692 0.0
Cd3 Cd 0.36544 0.44966 0.02467 0.0
O4 O 0.39517 0.43234 0.08864 0.0
C5 C 0.37918 0.44655 0.1257 0.0
O6 O 0.34519 0.47372 0.12529 0.0
C7 C 0.32874 0.45597 0.92583 0.0
C8 C 0.19214 0.33787 0.90563 0.0
O9 O 0.18141 0.3752 0.89327 0.0
O10 O 0.22568 0.33252 0.93137 0.0
O11 O 0.71431 0.64452 0.55291 0.0
Cd12 Cd 0.75377 0.63417 0.47916 0.0
O13 O 0.75869 0.60071 0.58986 0.0
Cd14 Cd 0.78774 0.57806 0.52635 0.0
O15 O 0.74776 0.54116 0.48361 0.0
C16 C 0.71622 0.52234 0.50621 0.0
O17 O 0.71349 0.52549 0.5503 0.0
C18 C 0.72571 0.62695 0.58994 0.0
C19 C 0.81719 0.69465 0.45388 0.0
O20 O 0.82698 0.66426 0.48096 0.0
O21 O 0.77708 0.69684 0.43889 0.0
O22 O 0.7284 0.42636 0.94402 0.0
Cd23 Cd 0.77907 0.37967 0.98706 0.0
O24 O 0.72002 0.46584 0.00291 0.0
Cd25 Cd 0.74487 0.41968 0.05204 0.0
O26 O 0.72135 0.39223 0.11719 0.0
C27 C 0.71487 0.41824 0.14811 0.0
O28 O 0.72693 0.45678 0.13945 0.0
C29 C 0.7135 0.45979 0.96165 0.0
C30 C 0.82757 0.31663 0.94182 0.0
O31 O 0.83889 0.35464 0.93629 0.0
O32 O 0.79242 0.30833 0.96751 0.0
O33 O 0.30056 0.57643 0.48433 0.0
Cd34 Cd 0.24708 0.62305 0.5256 0.0
O35 O 0.28451 0.52523 0.53307 0.0
Cd36 Cd 0.2543 0.56754 0.58251 0.0
O37 O 0.29445 0.59945 0.62995 0.0
C38 C 0.33655 0.59671 0.61831 0.0
O39 O 0.34864 0.57837 0.58062 0.0
C40 C 0.30518 0.5384 0.49684 0.0
C41 C 0.1972 0.6831 0.47748 0.0
O42 O 0.18454 0.64534 0.48098 0.0
O43 O 0.23441 0.69216 0.49515 0.0
O44 O 0.79443 0.95167 0.90379 0.0
Cd45 Cd 0.71962 0.92174 0.92791 0.0
O46 O 0.80667 0.952 0.9757 0.0
Cd47 Cd 0.8464 0.95835 0.03492 0.0
O48 O 0.88108 0.93919 0.09563 0.0
C49 C 0.86784 0.95211 0.13413 0.0
O50 O 0.83353 0.97887 0.13719 0.0
C51 C 0.81934 0.96189 0.93525 0.0
C52 C 0.6885 0.84512 0.90085 0.0
O53 O 0.68805 0.87751 0.87448 0.0
O54 O 0.7061 0.84809 0.93922 0.0
O55 O 0.20084 0.15975 0.56258 0.0
Cd56 Cd 0.23837 0.15034 0.48747 0.0
O57 O 0.24207 0.10987 0.5942 0.0
Cd58 Cd 0.2739 0.09197 0.5299 0.0
O59 O 0.24082 0.05155 0.48522 0.0
C60 C 0.2141 0.02689 0.5071 0.0
O61 O 0.21235 0.02712 0.55143 0.0
C62 C 0.2109 0.13779 0.59737 0.0
C63 C 0.30766 0.2049 0.46067 0.0
O64 O 0.31498 0.17361 0.48738 0.0
O65 O 0.26722 0.21111 0.44731 0.0
O66 O 0.22889 0.92188 0.93885 0.0
Cd67 Cd 0.26949 0.86691 0.98171 0.0
O68 O 0.21996 0.95624 0.00149 0.0
Cd69 Cd 0.24414 0.90761 0.04803 0.0
O70 O 0.22107 0.88212 0.11403 0.0
C71 C 0.21575 0.90928 0.14388 0.0
O72 O 0.22871 0.94728 0.13348 0.0
C73 C 0.21489 0.95417 0.95934 0.0
C74 C 0.3287 0.8124 0.93517 0.0
O75 O 0.28815 0.80167 0.9474 0.0
O76 O 0.34061 0.84918 0.94353 0.0
O77 O 0.81422 0.08671 0.48114 0.0
Cd78 Cd 0.76477 0.13679 0.52238 0.0
O79 O 0.78998 0.0351 0.52578 0.0
Cd80 Cd 0.75749 0.07743 0.57353 0.0
O81 O 0.79526 0.10478 0.62575 0.0
C82 C 0.81564 0.07742 0.64964 0.0
O83 O 0.80829 0.03814 0.64305 0.0
C84 C 0.81451 0.04809 0.49192 0.0
C85 C 0.70851 0.19237 0.47527 0.0
O86 O 0.69713 0.1546 0.48319 0.0
O87 O 0.74733 0.20341 0.48785 0.0
Fe88 Fe 0.01961 0.83787 0.3358 0.0
Fe89 Fe 0.01496 0.87239 0.43095 0.0
O90 O 0.01966 0.88061 0.37167 0.0
Fe91 Fe 0.02423 0.9317 0.34859 0.0
O92 O 0.97297 0.92712 0.31827 0.0
O93 O 0.99061 0.86637 0.29015 0.0
O94 O 0.96374 0.82241 0.3586 0.0
C95 C 0.95499 0.81364 0.39986 0.0
C96 C 0.0856 0.88516 0.29271 0.0
O97 O 0.98024 0.82606 0.42963 0.0
C98 C 0.07923 0.93589 0.41927 0.0
O99 O 0.0491 0.80198 0.37508 0.0
O100 O 0.06728 0.84144 0.43013 0.0
O101 O 0.06062 0.917 0.29973 0.0
O102 O 0.07533 0.85029 0.31044 0.0
C103 C 0.9579 0.93989 0.41983 0.0
O104 O 0.04916 0.917 0.44351 0.0
O105 O 0.07601 0.93964 0.3772 0.0
C106 C 0.07397 0.80925 0.40751 0.0
O107 O 0.96215 0.90291 0.43479 0.0
O108 O 0.98842 0.95563 0.39337 0.0
C109 C 0.96718 0.89991 0.28988 0.0
Fe110 Fe 0.0241 0.13586 0.89482 0.0
Fe111 Fe 0.03283 0.08252 0.81124 0.0
O112 O 0.02392 0.1318 0.83532 0.0
Fe113 Fe 0.0143 0.17671 0.80021 0.0
O114 O 0.04432 0.21138 0.8358 0.0
O115 O 0.07218 0.17079 0.88961 0.0
O116 O 0.06528 0.09267 0.90333 0.0
C117 C 0.09408 0.07508 0.87665 0.0
C118 C 0.95418 0.19365 0.87052 0.0
O119 O 0.08805 0.07529 0.83496 0.0
C120 C 0.96336 0.11487 0.76148 0.0
O121 O 0.97573 0.10149 0.90311 0.0
O122 O 1.00407 0.05351 0.85837 0.0
O123 O 0.95994 0.18823 0.82883 0.0
O124 O 0.98296 0.17968 0.89784 0.0
C125 C 0.08144 0.13675 0.74977 0.0
O126 O 0.97835 0.08579 0.78632 0.0
O127 O 0.98245 0.14973 0.75856 0.0
C128 C 0.974 0.0657 0.88727 0.0
O129 O 0.06276 0.10245 0.7595 0.0
O130 O 0.06792 0.16944 0.7686 0.0
C131 C 0.07302 0.20422 0.86581 0.0
Fe132 Fe 0.51972 0.33723 0.33743 0.0
Fe133 Fe 0.51337 0.37189 0.43242 0.0
O134 O 0.51765 0.38019 0.37311 0.0
Fe135 Fe 0.51977 0.43135 0.34984 0.0
O136 O 0.46926 0.42455 0.31878 0.0
O137 O 0.49042 0.36441 0.2913 0.0
O138 O 0.46421 0.32037 0.36 0.0
C139 C 0.45537 0.3119 0.40134 0.0
C140 C 0.58402 0.38682 0.29483 0.0
O141 O 0.48077 0.32426 0.43102 0.0
C142 C 0.57441 0.4378 0.42077 0.0
O143 O 0.55014 0.30243 0.37708 0.0
O144 O 0.56714 0.34309 0.43141 0.0
O145 O 0.55754 0.41777 0.30151 0.0
O146 O 0.57511 0.35152 0.31241 0.0
C147 C 0.45294 0.43696 0.42135 0.0
O148 O 0.54528 0.41788 0.44508 0.0
O149 O 0.57077 0.44165 0.37878 0.0
C150 C 0.57514 0.31102 0.40893 0.0
O151 O 0.45931 0.40028 0.43646 0.0
O152 O 0.48218 0.45393 0.3943 0.0
C153 C 0.4658 0.39717 0.29002 0.0
Fe154 Fe 0.52699 0.63653 0.88107 0.0
Fe155 Fe 0.53728 0.587 0.79436 0.0
O156 O 0.53054 0.63496 0.82143 0.0
Fe157 Fe 0.52724 0.68144 0.78789 0.0
O158 O 0.57782 0.70068 0.81105 0.0
O159 O 0.55882 0.68556 0.88256 0.0
O160 O 0.58141 0.60924 0.88613 0.0
C161 C 0.59181 0.57449 0.8699 0.0
C162 C 0.46453 0.69796 0.86083 0.0
O163 O 0.56977 0.56074 0.83845 0.0
C164 C 0.47459 0.63174 0.74147 0.0
O165 O 0.49461 0.5879 0.88904 0.0
O166 O 0.48408 0.56852 0.81987 0.0
O167 O 0.49067 0.71011 0.82827 0.0
O168 O 0.47208 0.66382 0.88136 0.0
C169 C 0.59503 0.63414 0.74093 0.0
O170 O 0.50549 0.60397 0.74509 0.0
O171 O 0.47587 0.66465 0.76298 0.0
C172 C 0.4733 0.56697 0.8616 0.0
O173 O 0.59116 0.60267 0.76723 0.0
O174 O 0.56411 0.66216 0.74097 0.0
C175 C 0.58321 0.70519 0.8525 0.0
C176 C 0.16935 0.26297 0.91438 0.0
C177 C 0.1644 0.30247 0.89312 0.0
H178 H 0.14433 0.20102 0.92291 0.0
C179 C 0.13029 0.30871 0.86198 0.0
H180 H 0.19516 0.25712 0.93873 0.0
C181 C 0.10132 0.27667 0.8529 0.0
C182 C 0.10529 0.23744 0.87498 0.0
H183 H 0.12545 0.33864 0.84497 0.0
H184 H 0.07521 0.28301 0.82898 0.0
C185 C 0.14002 0.23086 0.90554 0.0
C186 C 0.84798 0.75021 0.4001 0.0
C187 C 0.85151 0.72598 0.4402 0.0
H188 H 0.87849 0.79663 0.35534 0.0
C189 C 0.88878 0.73128 0.46693 0.0
H190 H 0.81964 0.74664 0.37876 0.0
C191 C 0.92182 0.76024 0.454 0.0
C192 C 0.91889 0.78397 0.41353 0.0
H193 H 0.89235 0.71316 0.49806 0.0
H194 H 0.95018 0.76346 0.47542 0.0
C195 C 0.88168 0.77864 0.38661 0.0
C196 C 0.87885 0.28992 0.87913 0.0
C197 C 0.8561 0.28327 0.92139 0.0
H198 H 0.92674 0.26592 0.82924 0.0
C199 C 0.86352 0.24562 0.94552 0.0
H200 H 0.87373 0.3187 0.85992 0.0
C201 C 0.89488 0.21598 0.92864 0.0
C202 C 0.91806 0.22289 0.88664 0.0
H203 H 0.84664 0.2399 0.97836 0.0
H204 H 0.90141 0.18788 0.9486 0.0
C205 C 0.90897 0.25968 0.86155 0.0
C206 C 0.17337 0.75764 0.46579 0.0
C207 C 0.16816 0.71571 0.45628 0.0
H208 H 0.14737 0.82002 0.45825 0.0
C209 C 0.13307 0.70506 0.42873 0.0
H210 H 0.19996 0.76683 0.48705 0.0
C211 C 0.10332 0.73561 0.41173 0.0
C212 C 0.10747 0.77735 0.42267 0.0
H213 H 0.12824 0.67302 0.42075 0.0
H214 H 0.07621 0.72633 0.39115 0.0
C215 C 0.1431 0.78808 0.44951 0.0
C216 C 0.65087 0.77723 0.92169 0.0
C217 C 0.66621 0.80659 0.88843 0.0
H218 H 0.61221 0.72232 0.93675 0.0
C219 C 0.65663 0.80059 0.84332 0.0
H220 H 0.65753 0.78107 0.95684 0.0
C221 C 0.63127 0.76683 0.83179 0.0
C222 C 0.614 0.73841 0.86516 0.0
H223 H 0.66803 0.8225 0.81686 0.0
H224 H 0.62396 0.76391 0.79666 0.0
C225 C 0.62472 0.74366 0.91023 0.0
C226 C 0.38418 0.23424 0.47031 0.0
C227 C 0.3451 0.23258 0.44527 0.0
H228 H 0.44934 0.26086 0.47621 0.0
C229 C 0.34265 0.25689 0.4051 0.0
H230 H 0.38704 0.21589 0.50139 0.0
C231 C 0.37888 0.28207 0.39009 0.0
C232 C 0.41768 0.28409 0.41556 0.0
H233 H 0.31301 0.25603 0.38498 0.0
H234 H 0.37622 0.30048 0.35904 0.0
C235 C 0.41983 0.26004 0.4559 0.0
C236 C 0.39957 0.79742 0.88806 0.0
C237 C 0.36164 0.78277 0.91385 0.0
H238 H 0.46129 0.78211 0.85059 0.0
C239 C 0.35687 0.73972 0.92101 0.0
H240 H 0.40414 0.8304 0.88194 0.0
C241 C 0.3902 0.71194 0.90381 0.0
C242 C 0.42831 0.7267 0.87824 0.0
H243 H 0.32808 0.72755 0.94101 0.0
H244 H 0.38618 0.67897 0.91051 0.0
C245 C 0.43225 0.76971 0.87003 0.0
C246 C 0.63991 0.20979 0.43081 0.0
C247 C 0.67645 0.22294 0.45502 0.0
H248 H 0.5796 0.22742 0.39658 0.0
C249 C 0.68041 0.26549 0.46228 0.0
H250 H 0.63599 0.17721 0.42468 0.0
C251 C 0.64763 0.2941 0.44706 0.0
C252 C 0.61074 0.2809 0.4234 0.0
H253 H 0.70806 0.27656 0.48102 0.0
H254 H 0.65106 0.32659 0.45397 0.0
C255 C 0.60767 0.23854 0.41469 0.0
C256 C 0.38875 0.50796 0.94009 0.0
C257 C 0.36695 0.48323 0.90995 0.0
H258 H 0.43909 0.55362 0.94885 0.0
C259 C 0.38039 0.48651 0.86387 0.0
H260 H 0.37827 0.50758 0.9755 0.0
C261 C 0.4149 0.51344 0.84841 0.0
C262 C 0.43689 0.53809 0.87856 0.0
H263 H 0.36415 0.46826 0.8396 0.0
H264 H 0.42416 0.51501 0.81262 0.0
C265 C 0.42336 0.53491 0.92466 0.0
C266 C 0.67977 0.50019 0.43654 0.0
C267 C 0.6813 0.49947 0.4838 0.0
H268 H 0.64466 0.48143 0.37944 0.0
C269 C 0.64787 0.47786 0.50997 0.0
H270 H 0.70501 0.51663 0.41546 0.0
C271 C 0.61335 0.45781 0.48946 0.0
C272 C 0.61129 0.459 0.44224 0.0
H273 H 0.64808 0.47662 0.54648 0.0
H274 H 0.58809 0.44159 0.51074 0.0
C275 C 0.64506 0.48019 0.41595 0.0
C276 C 0.67359 0.52915 0.95447 0.0
C277 C 0.68618 0.4908 0.93574 0.0
H278 H 0.63449 0.58575 0.94838 0.0
C279 C 0.67003 0.48164 0.89358 0.0
H280 H 0.68562 0.53738 0.98679 0.0
C281 C 0.64044 0.50939 0.87163 0.0
C282 C 0.62654 0.54707 0.89119 0.0
H283 H 0.67909 0.45247 0.87815 0.0
H284 H 0.62772 0.50086 0.83971 0.0
C285 C 0.64429 0.557 0.9324 0.0
C286 C 0.36879 0.52684 0.43873 0.0
C287 C 0.33919 0.5109 0.47339 0.0
H288 H 0.42787 0.5162 0.39533 0.0
C289 C 0.34574 0.46953 0.48888 0.0
H290 H 0.36484 0.55855 0.42603 0.0
C291 C 0.38207 0.44525 0.47145 0.0
C292 C 0.41286 0.46179 0.43819 0.0
H293 H 0.32359 0.45617 0.51553 0.0
H294 H 0.38659 0.41382 0.48484 0.0
C295 C 0.4052 0.50259 0.42137 0.0
C296 C 0.88696 0.98086 0.88437 0.0
C297 C 0.86118 0.98605 0.92494 0.0
H298 H 0.94318 1.00125 0.84128 0.0
C299 C 0.8737 0.01691 0.95401 0.0
H300 H 0.87795 0.95764 0.86111 0.0
C301 C 0.9106 0.04257 0.9423 0.0
C302 C 0.93638 0.03738 0.90165 0.0
H303 H 0.85382 0.0224 0.985 0.0
H304 H 0.91867 0.06669 0.96485 0.0
C305 C 0.92442 0.00583 0.87313 0.0
C306 C 0.17974 1.004 0.43663 0.0
C307 C 0.18223 1.00129 0.48381 0.0
H308 H 0.14523 0.98543 0.37909 0.0
C309 C 0.15205 0.97545 0.50918 0.0
H310 H 0.20257 0.0236 0.41615 0.0
C311 C 0.11917 0.95377 0.48807 0.0
C312 C 0.11568 0.95738 0.44106 0.0
H313 H 0.15316 0.9725 0.54558 0.0
H314 H 0.09608 0.93462 0.5088 0.0
C315 C 0.14679 0.98221 0.41544 0.0
C316 C 0.16956 0.02083 0.96095 0.0
C317 C 0.18913 0.98806 0.93596 0.0
H318 H 0.12462 0.07394 0.96184 0.0
C319 C 0.18079 0.98674 0.88982 0.0
H320 H 0.1754 0.02312 0.99651 0.0
C321 C 0.15177 0.01637 0.86976 0.0
C322 C 0.13015 0.04765 0.89558 0.0
H323 H 0.19546 0.96209 0.86954 0.0
H324 H 0.14472 0.01362 0.83454 0.0
C325 C 0.14033 0.05009 0.94109 0.0
C326 C 0.8509 0.9773 0.48452 0.0
C327 C 0.84751 0.01908 0.46934 0.0
H328 H 0.88833 0.9196 0.48111 0.0
C329 C 0.87918 0.03375 0.43588 0.0
H330 H 0.82709 0.9649 0.51028 0.0
C331 C 0.91446 0.00779 0.41938 0.0
C332 C 0.919 0.96652 0.43594 0.0
H333 H 0.87764 0.06569 0.42341 0.0
H334 H 0.93874 0.02044 0.39421 0.0
C335 C 0.88621 0.95132 0.468 0.0
C336 C 0.38889 0.45396 0.20846 0.0
C337 C 0.39869 0.43239 0.16871 0.0
H338 H 0.40227 0.45964 0.27824 0.0
C339 C 0.42788 0.3973 0.17021 0.0
H340 H 0.36634 0.48101 0.20842 0.0
C341 C 0.44788 0.3847 0.21025 0.0
C342 C 0.43964 0.40725 0.2496 0.0
H343 H 0.43573 0.37974 0.14027 0.0
H344 H 0.47109 0.35812 0.20986 0.0
C345 C 0.40939 0.44167 0.24846 0.0
C346 C 0.66246 0.66373 0.63297 0.0
C347 C 0.69683 0.63276 0.63165 0.0
H348 H 0.6037 0.68871 0.6686 0.0
C349 C 0.69986 0.60439 0.66858 0.0
H350 H 0.65928 0.68614 0.60517 0.0
C351 C 0.6676 0.60551 0.7048 0.0
C352 C 0.63189 0.63525 0.70503 0.0
H353 H 0.7259 0.58007 0.66862 0.0
H354 H 0.66995 0.58236 0.732 0.0
C355 C 0.6305 0.66511 0.66935 0.0
C356 C 0.67018 0.36753 0.19819 0.0
C357 C 0.68725 0.40762 0.18985 0.0
H358 H 0.6242 0.32914 0.23866 0.0
C359 C 0.67393 0.43904 0.21964 0.0
H360 H 0.67996 0.34261 0.17595 0.0
C361 C 0.64187 0.43143 0.25494 0.0
C362 C 0.62277 0.39212 0.26173 0.0
H363 H 0.68664 0.47016 0.21455 0.0
H364 H 0.63096 0.45681 0.27618 0.0
C365 C 0.63835 0.35977 0.23409 0.0
C366 C 0.41691 0.59467 0.64052 0.0
C367 C 0.37195 0.60928 0.64833 0.0
H368 H 0.48432 0.59025 0.66397 0.0
C369 C 0.36144 0.63393 0.68574 0.0
H370 H 0.42624 0.57564 0.61203 0.0
C371 C 0.39527 0.64294 0.71532 0.0
C372 C 0.4397 0.62667 0.70832 0.0
H373 H 0.32708 0.64572 0.69247 0.0
H374 H 0.38633 0.66123 0.7445 0.0
C375 C 0.45025 0.60292 0.67038 0.0
C376 C 0.88368 0.9574 0.21582 0.0
C377 C 0.89102 0.93717 0.17489 0.0
H378 H 0.90193 0.96136 0.28442 0.0
C379 C 0.92124 0.90276 0.17304 0.0
H380 H 0.86047 0.98388 0.21836 0.0
C381 C 0.9445 0.88949 0.21102 0.0
C382 C 0.9385 0.9107 0.25148 0.0
H383 H 0.9273 0.88627 0.14209 0.0
H384 H 0.96832 0.86347 0.20817 0.0
C385 C 0.9074 0.94446 0.25366 0.0
C386 C 0.17831 0.10505 0.66891 0.0
C387 C 0.18201 0.14015 0.63955 0.0
H388 H 0.14301 0.07631 0.72622 0.0
C389 C 0.15424 0.17526 0.64846 0.0
H390 H 0.19892 0.07734 0.6628 0.0
C391 C 0.12263 0.17484 0.68539 0.0
C392 C 0.11742 0.1389 0.71324 0.0
H393 H 0.15626 0.20269 0.62637 0.0
H394 H 0.10104 0.20202 0.69105 0.0
C395 C 0.146 0.10426 0.70501 0.0
C396 C 0.17035 0.86117 0.19632 0.0
C397 C 0.18827 0.90066 0.18617 0.0
H398 H 0.12387 0.82499 0.23865 0.0
C399 C 0.1759 0.93337 0.2146 0.0
H400 H 0.17941 0.83529 0.17516 0.0
C401 C 0.14394 0.92758 0.25037 0.0
C402 C 0.124 0.88883 0.25896 0.0
H403 H 0.18929 0.96409 0.20807 0.0
H404 H 0.1338 0.95388 0.27056 0.0
C405 C 0.13863 0.85524 0.23266 0.0
C406 C 0.86912 0.05814 0.70966 0.0
C407 C 0.8508 0.08871 0.68056 0.0
H408 H 0.91854 0.04238 0.7578 0.0
C409 C 0.86871 0.12878 0.67922 0.0
H410 H 0.85599 0.02702 0.71166 0.0
C411 C 0.90522 0.13766 0.70559 0.0
C412 C 0.92422 0.10663 0.73388 0.0
H413 H 0.85535 0.15297 0.65697 0.0
H414 H 0.91879 0.1686 0.70346 0.0
C415 C 0.90521 0.06699 0.73605 0.0
loop_
_geom_bond_atom_site_label_1
_geom_bond_atom_site_label_2
_geom_bond_distance
_geom_bond_site_symmetry_2
_ccdc_geom_bond_type
O0 Cd1 2.300 . S
O0 C7 1.275 . S
Cd1 O0 2.300 . S
Cd1 O9 2.381 . S
Cd1 O10 2.378 . S
O2 Cd3 2.385 1_556 S
O2 C7 1.255 . S
Cd3 O2 2.385 1_554 S
Cd3 O4 2.317 . S
O4 Cd3 2.317 . S
O4 C5 1.232 . S
C5 O4 1.232 . S
C5 O6 1.218 . S
O6 C5 1.218 . S
C7 O0 1.275 . S
C7 O2 1.255 . S
C8 O9 1.258 . S
C8 O10 1.256 . S
O9 Cd1 2.381 . S
O9 C8 1.258 . S
O10 Cd1 2.378 . S
O10 C8 1.256 . S
O11 Cd12 2.300 . S
O11 C18 1.275 . S
Cd12 O11 2.300 . S
Cd12 O20 2.381 . S
Cd12 O21 2.378 . S
O13 Cd14 2.385 . S
O13 C18 1.255 . S
Cd14 O13 2.385 . S
Cd14 O15 2.317 . S
O15 Cd14 2.317 . S
O15 C16 1.232 . S
C16 O15 1.232 . S
C16 O17 1.218 . S
O17 C16 1.218 . S
C18 O11 1.275 . S
C18 O13 1.255 . S
C19 O20 1.258 . S
C19 O21 1.256 . S
O20 Cd12 2.381 . S
O20 C19 1.258 . S
O21 Cd12 2.378 . S
O21 C19 1.256 . S
O22 Cd23 2.300 . S
O22 C29 1.275 . S
Cd23 O22 2.300 . S
Cd23 O31 2.381 . S
Cd23 O32 2.378 . S
O24 Cd25 2.385 . S
O24 C29 1.255 1_554 S
Cd25 O24 2.385 . S
Cd25 O26 2.317 . S
O26 Cd25 2.317 . S
O26 C27 1.232 . S
C27 O26 1.232 . S
C27 O28 1.218 . S
O28 C27 1.218 . S
C29 O22 1.275 . S
C29 O24 1.255 1_556 S
C30 O31 1.258 . S
C30 O32 1.256 . S
O31 Cd23 2.381 . S
O31 C30 1.258 . S
O32 Cd23 2.378 . S
O32 C30 1.256 . S
O33 Cd34 2.300 . S
O33 C40 1.275 . S
Cd34 O33 2.300 . S
Cd34 O42 2.381 . S
Cd34 O43 2.378 . S
O35 Cd36 2.385 . S
O35 C40 1.255 . S
Cd36 O35 2.385 . S
Cd36 O37 2.317 . S
O37 Cd36 2.317 . S
O37 C38 1.232 . S
C38 O37 1.232 . S
C38 O39 1.218 . S
O39 C38 1.218 . S
C40 O33 1.275 . S
C40 O35 1.255 . S
C41 O42 1.258 . S
C41 O43 1.256 . S
O42 Cd34 2.381 . S
O42 C41 1.258 . S
O43 Cd34 2.378 . S
O43 C41 1.256 . S
O44 Cd45 2.300 . S
O44 C51 1.275 . S
Cd45 O44 2.300 . S
Cd45 O53 2.381 . S
Cd45 O54 2.378 . S
O46 Cd47 2.385 1_556 S
O46 C51 1.255 . S
Cd47 O46 2.385 1_554 S
Cd47 O48 2.317 . S
O48 Cd47 2.317 . S
O48 C49 1.232 . S
C49 O48 1.232 . S
C49 O50 1.218 . S
O50 C49 1.218 . S
C51 O44 1.275 . S
C51 O46 1.255 . S
C52 O53 1.258 . S
C52 O54 1.256 . S
O53 Cd45 2.381 . S
O53 C52 1.258 . S
O54 Cd45 2.378 . S
O54 C52 1.256 . S
O55 Cd56 2.300 . S
O55 C62 1.275 . S
Cd56 O55 2.300 . S
Cd56 O64 2.381 . S
Cd56 O65 2.378 . S
O57 Cd58 2.385 . S
O57 C62 1.255 . S
Cd58 O57 2.385 . S
Cd58 O59 2.317 . S
O59 Cd58 2.317 . S
O59 C60 1.232 . S
C60 O59 1.232 . S
C60 O61 1.218 1_545 S
O61 C60 1.218 1_565 S
C62 O55 1.275 . S
C62 O57 1.255 . S
C63 O64 1.258 . S
C63 O65 1.256 . S
O64 Cd56 2.381 . S
O64 C63 1.258 . S
O65 Cd56 2.378 . S
O65 C63 1.256 . S
O66 Cd67 2.300 . S
O66 C73 1.275 . S
Cd67 O66 2.300 . S
Cd67 O75 2.381 . S
Cd67 O76 2.378 . S
O68 Cd69 2.385 . S
O68 C73 1.255 1_554 S
Cd69 O68 2.385 . S
Cd69 O70 2.317 . S
O70 Cd69 2.317 . S
O70 C71 1.232 . S
C71 O70 1.232 . S
C71 O72 1.218 . S
O72 C71 1.218 . S
C73 O66 1.275 . S
C73 O68 1.255 1_556 S
C74 O75 1.258 . S
C74 O76 1.256 . S
O75 Cd67 2.381 . S
O75 C74 1.258 . S
O76 Cd67 2.378 . S
O76 C74 1.256 . S
O77 Cd78 2.300 . S
O77 C84 1.275 . S
Cd78 O77 2.300 . S
Cd78 O86 2.381 . S
Cd78 O87 2.378 . S
O79 Cd80 2.385 . S
O79 C84 1.255 . S
Cd80 O79 2.385 . S
Cd80 O81 2.317 . S
O81 Cd80 2.317 . S
O81 C82 1.232 . S
C82 O81 1.232 . S
C82 O83 1.218 . S
O83 C82 1.218 . S
C84 O77 1.275 . S
C84 O79 1.255 . S
C85 O86 1.258 . S
C85 O87 1.256 . S
O86 Cd78 2.381 . S
O86 C85 1.258 . S
O87 Cd78 2.378 . S
O87 C85 1.256 . S
Fe88 O90 1.918 . S
Fe88 O93 1.997 1_455 S
Fe88 O94 2.002 1_455 S
Fe88 O99 1.976 . S
Fe88 O102 1.996 . S
Fe89 O90 1.918 . S
Fe89 O97 1.997 1_455 S
Fe89 O100 1.996 . S
Fe89 O104 1.976 . S
Fe89 O107 2.002 1_455 S
O90 Fe88 1.918 . S
O90 Fe89 1.918 . S
O90 Fe91 1.918 . S
Fe91 O90 1.918 . S
Fe91 O92 2.002 1_455 S
Fe91 O101 1.976 . S
Fe91 O105 1.996 . S
Fe91 O108 1.997 1_455 S
O92 Fe91 2.002 1_655 S
O92 C109 1.295 . S
O93 Fe88 1.997 1_655 S
O93 C109 1.235 . S
O94 Fe88 2.002 1_655 S
O94 C95 1.295 . S
C95 O94 1.295 . S
C95 O97 1.235 . S
C96 O101 1.287 . S
C96 O102 1.255 . S
O97 Fe89 1.997 1_655 S
O97 C95 1.235 . S
C98 O104 1.287 . S
C98 O105 1.255 . S
O99 Fe88 1.976 . S
O99 C106 1.287 . S
O100 Fe89 1.996 . S
O100 C106 1.255 . S
O101 Fe91 1.976 . S
O101 C96 1.287 . S
O102 Fe88 1.996 . S
O102 C96 1.255 . S
C103 O107 1.295 . S
C103 O108 1.235 . S
O104 Fe89 1.976 . S
O104 C98 1.287 . S
O105 Fe91 1.996 . S
O105 C98 1.255 . S
C106 O99 1.287 . S
C106 O100 1.255 . S
O107 Fe89 2.002 1_655 S
O107 C103 1.295 . S
O108 Fe91 1.997 1_655 S
O108 C103 1.235 . S
C109 O92 1.295 . S
C109 O93 1.235 . S
Fe110 O112 1.918 . S
Fe110 O115 1.997 . S
Fe110 O116 2.002 . S
Fe110 O121 1.976 1_455 S
Fe110 O124 1.996 1_455 S
Fe111 O112 1.918 . S
Fe111 O119 1.997 . S
Fe111 O122 1.996 1_455 S
Fe111 O126 1.976 1_455 S
Fe111 O129 2.002 . S
O112 Fe110 1.918 . S
O112 Fe111 1.918 . S
O112 Fe113 1.918 . S
Fe113 O112 1.918 . S
Fe113 O114 2.002 . S
Fe113 O123 1.976 1_455 S
Fe113 O127 1.996 1_455 S
Fe113 O130 1.997 . S
O114 Fe113 2.002 . S
O114 C131 1.295 . S
O115 Fe110 1.997 . S
O115 C131 1.235 . S
O116 Fe110 2.002 . S
O116 C117 1.295 . S
C117 O116 1.295 . S
C117 O119 1.235 . S
C118 O123 1.287 . S
C118 O124 1.255 . S
O119 Fe111 1.997 . S
O119 C117 1.235 . S
C120 O126 1.287 . S
C120 O127 1.255 . S
O121 Fe110 1.976 1_655 S
O121 C128 1.287 . S
O122 Fe111 1.996 1_655 S
O122 C128 1.255 . S
O123 Fe113 1.976 1_655 S
O123 C118 1.287 . S
O124 Fe110 1.996 1_655 S
O124 C118 1.255 . S
C125 O129 1.295 . S
C125 O130 1.235 . S
O126 Fe111 1.976 1_655 S
O126 C120 1.287 . S
O127 Fe113 1.996 1_655 S
O127 C120 1.255 . S
C128 O121 1.287 . S
C128 O122 1.255 . S
O129 Fe111 2.002 . S
O129 C125 1.295 . S
O130 Fe113 1.997 . S
O130 C125 1.235 . S
C131 O114 1.295 . S
C131 O115 1.235 . S
Fe132 O134 1.918 . S
Fe132 O137 1.997 . S
Fe132 O138 2.002 . S
Fe132 O143 1.976 . S
Fe132 O146 1.996 . S
Fe133 O134 1.918 . S
Fe133 O141 1.997 . S
Fe133 O144 1.996 . S
Fe133 O148 1.976 . S
Fe133 O151 2.002 . S
O134 Fe132 1.918 . S
O134 Fe133 1.918 . S
O134 Fe135 1.918 . S
Fe135 O134 1.918 . S
Fe135 O136 2.002 . S
Fe135 O145 1.976 . S
Fe135 O149 1.996 . S
Fe135 O152 1.997 . S
O136 Fe135 2.002 . S
O136 C153 1.295 . S
O137 Fe132 1.997 . S
O137 C153 1.235 . S
O138 Fe132 2.002 . S
O138 C139 1.295 . S
C139 O138 1.295 . S
C139 O141 1.235 . S
C140 O145 1.287 . S
C140 O146 1.255 . S
O141 Fe133 1.997 . S
O141 C139 1.235 . S
C142 O148 1.287 . S
C142 O149 1.255 . S
O143 Fe132 1.976 . S
O143 C150 1.287 . S
O144 Fe133 1.996 . S
O144 C150 1.255 . S
O145 Fe135 1.976 . S
O145 C140 1.287 . S
O146 Fe132 1.996 . S
O146 C140 1.255 . S
C147 O151 1.295 . S
C147 O152 1.235 . S
O148 Fe133 1.976 . S
O148 C142 1.287 . S
O149 Fe135 1.996 . S
O149 C142 1.255 . S
C150 O143 1.287 . S
C150 O144 1.255 . S
O151 Fe133 2.002 . S
O151 C147 1.295 . S
O152 Fe135 1.997 . S
O152 C147 1.235 . S
C153 O136 1.295 . S
C153 O137 1.235 . S
Fe154 O156 1.918 . S
Fe154 O159 1.997 . S
Fe154 O160 2.002 . S
Fe154 O165 1.976 . S
Fe154 O168 1.996 . S
Fe155 O156 1.918 . S
Fe155 O163 1.997 . S
Fe155 O166 1.996 . S
Fe155 O170 1.976 . S
Fe155 O173 2.002 . S
O156 Fe154 1.918 . S
O156 Fe155 1.918 . S
O156 Fe157 1.918 . S
Fe157 O156 1.918 . S
Fe157 O158 2.002 . S
Fe157 O167 1.976 . S
Fe157 O171 1.996 . S
Fe157 O174 1.997 . S
O158 Fe157 2.002 . S
O158 C175 1.295 . S
O159 Fe154 1.997 . S
O159 C175 1.235 . S
O160 Fe154 2.002 . S
O160 C161 1.295 . S
C161 O160 1.295 . S
C161 O163 1.235 . S
C162 O167 1.287 . S
C162 O168 1.255 . S
O163 Fe155 1.997 . S
O163 C161 1.235 . S
C164 O170 1.287 . S
C164 O171 1.255 . S
O165 Fe154 1.976 . S
O165 C172 1.287 . S
O166 Fe155 1.996 . S
O166 C172 1.255 . S
O167 Fe157 1.976 . S
O167 C162 1.287 . S
O168 Fe154 1.996 . S
O168 C162 1.255 . S
C169 O173 1.295 . S
C169 O174 1.235 . S
O170 Fe155 1.976 . S
O170 C164 1.287 . S
O171 Fe157 1.996 . S
O171 C164 1.255 . S
C172 O165 1.287 . S
C172 O166 1.255 . S
O173 Fe155 2.002 . S
O173 C169 1.295 . S
O174 Fe157 1.997 . S
O174 C169 1.235 . S
C175 O158 1.295 . S
C175 O159 1.235 . S
C176 C177 1.387 . S
C176 H180 0.950 . S
C176 C185 1.390 . S
C177 C176 1.387 . S
C177 C179 1.387 . S
H178 C185 0.950 . S
C179 C177 1.387 . S
C179 C181 1.390 . S
C179 H183 0.950 . S
H180 C176 0.950 . S
C181 C179 1.390 . S
C181 C182 1.387 . S
C181 H184 0.950 . S
C182 C181 1.387 . S
C182 C185 1.387 . S
H183 C179 0.950 . S
H184 C181 0.950 . S
C185 C176 1.390 . S
C185 H178 0.950 . S
C185 C182 1.387 . S
C186 C187 1.387 . S
C186 H190 0.950 . S
C186 C195 1.390 . S
C187 C186 1.387 . S
C187 C189 1.387 . S
H188 C195 0.950 . S
C189 C187 1.387 . S
C189 C191 1.390 . S
C189 H193 0.950 . S
H190 C186 0.950 . S
C191 C189 1.390 . S
C191 C192 1.387 . S
C191 H194 0.950 . S
C192 C191 1.387 . S
C192 C195 1.387 . S
H193 C189 0.950 . S
H194 C191 0.950 . S
C195 C186 1.390 . S
C195 H188 0.950 . S
C195 C192 1.387 . S
C196 C197 1.387 . S
C196 H200 0.950 . S
C196 C205 1.390 . S
C197 C196 1.387 . S
C197 C199 1.387 . S
H198 C205 0.950 . S
C199 C197 1.387 . S
C199 C201 1.390 . S
C199 H203 0.950 . S
H200 C196 0.950 . S
C201 C199 1.390 . S
C201 C202 1.387 . S
C201 H204 0.950 . S
C202 C201 1.387 . S
C202 C205 1.387 . S
H203 C199 0.950 . S
H204 C201 0.950 . S
C205 C196 1.390 . S
C205 H198 0.950 . S
C205 C202 1.387 . S
C206 C207 1.387 . S
C206 H210 0.950 . S
C206 C215 1.390 . S
C207 C206 1.387 . S
C207 C209 1.387 . S
H208 C215 0.950 . S
C209 C207 1.387 . S
C209 C211 1.390 . S
C209 H213 0.950 . S
H210 C206 0.950 . S
C211 C209 1.390 . S
C211 C212 1.387 . S
C211 H214 0.950 . S
C212 C211 1.387 . S
C212 C215 1.387 . S
H213 C209 0.950 . S
H214 C211 0.950 . S
C215 C206 1.390 . S
C215 H208 0.950 . S
C215 C212 1.387 . S
C216 C217 1.387 . S
C216 H220 0.950 . S
C216 C225 1.390 . S
C217 C216 1.387 . S
C217 C219 1.387 . S
H218 C225 0.950 . S
C219 C217 1.387 . S
C219 C221 1.390 . S
C219 H223 0.950 . S
H220 C216 0.950 . S
C221 C219 1.390 . S
C221 C222 1.387 . S
C221 H224 0.950 . S
C222 C221 1.387 . S
C222 C225 1.387 . S
H223 C219 0.950 . S
H224 C221 0.950 . S
C225 C216 1.390 . S
C225 H218 0.950 . S
C225 C222 1.387 . S
C226 C227 1.387 . S
C226 H230 0.950 . S
C226 C235 1.390 . S
C227 C226 1.387 . S
C227 C229 1.387 . S
H228 C235 0.950 . S
C229 C227 1.387 . S
C229 C231 1.390 . S
C229 H233 0.950 . S
H230 C226 0.950 . S
C231 C229 1.390 . S
C231 C232 1.387 . S
C231 H234 0.950 . S
C232 C231 1.387 . S
C232 C235 1.387 . S
H233 C229 0.950 . S
H234 C231 0.950 . S
C235 C226 1.390 . S
C235 H228 0.950 . S
C235 C232 1.387 . S
C236 C237 1.387 . S
C236 H240 0.950 . S
C236 C245 1.390 . S
C237 C236 1.387 . S
C237 C239 1.387 . S
H238 C245 0.950 . S
C239 C237 1.387 . S
C239 C241 1.390 . S
C239 H243 0.950 . S
H240 C236 0.950 . S
C241 C239 1.390 . S
C241 C242 1.387 . S
C241 H244 0.950 . S
C242 C241 1.387 . S
C242 C245 1.387 . S
H243 C239 0.950 . S
H244 C241 0.950 . S
C245 C236 1.390 . S
C245 H238 0.950 . S
C245 C242 1.387 . S
C246 C247 1.387 . S
C246 H250 0.950 . S
C246 C255 1.390 . S
C247 C246 1.387 . S
C247 C249 1.387 . S
H248 C255 0.950 . S
C249 C247 1.387 . S
C249 C251 1.390 . S
C249 H253 0.950 . S
H250 C246 0.950 . S
C251 C249 1.390 . S
C251 C252 1.387 . S
C251 H254 0.950 . S
C252 C251 1.387 . S
C252 C255 1.387 . S
H253 C249 0.950 . S
H254 C251 0.950 . S
C255 C246 1.390 . S
C255 H248 0.950 . S
C255 C252 1.387 . S
C256 C257 1.387 . S
C256 H260 0.950 . S
C256 C265 1.390 . S
C257 C256 1.387 . S
C257 C259 1.387 . S
H258 C265 0.950 . S
C259 C257 1.387 . S
C259 C261 1.390 . S
C259 H263 0.950 . S
H260 C256 0.950 . S
C261 C259 1.390 . S
C261 C262 1.387 . S
C261 H264 0.950 . S
C262 C261 1.387 . S
C262 C265 1.387 . S
H263 C259 0.950 . S
H264 C261 0.950 . S
C265 C256 1.390 . S
C265 H258 0.950 . S
C265 C262 1.387 . S
C266 C267 1.387 . S
C266 H270 0.950 . S
C266 C275 1.390 . S
C267 C266 1.387 . S
C267 C269 1.387 . S
H268 C275 0.950 . S
C269 C267 1.387 . S
C269 C271 1.390 . S
C269 H273 0.950 . S
H270 C266 0.950 . S
C271 C269 1.390 . S
C271 C272 1.387 . S
C271 H274 0.950 . S
C272 C271 1.387 . S
C272 C275 1.387 . S
H273 C269 0.950 . S
H274 C271 0.950 . S
C275 C266 1.390 . S
C275 H268 0.950 . S
C275 C272 1.387 . S
C276 C277 1.387 . S
C276 H280 0.950 1_556 S
C276 C285 1.390 . S
C277 C276 1.387 . S
C277 C279 1.387 . S
H278 C285 0.950 . S
C279 C277 1.387 . S
C279 C281 1.390 . S
C279 H283 0.950 . S
H280 C276 0.950 1_554 S
C281 C279 1.390 . S
C281 C282 1.387 . S
C281 H284 0.950 . S
C282 C281 1.387 . S
C282 C285 1.387 . S
H283 C279 0.950 . S
H284 C281 0.950 . S
C285 C276 1.390 . S
C285 H278 0.950 . S
C285 C282 1.387 . S
C286 C287 1.387 . S
C286 H290 0.950 . S
C286 C295 1.390 . S
C287 C286 1.387 . S
C287 C289 1.387 . S
H288 C295 0.950 . S
C289 C287 1.387 . S
C289 C291 1.390 . S
C289 H293 0.950 . S
H290 C286 0.950 . S
C291 C289 1.390 . S
C291 C292 1.387 . S
C291 H294 0.950 . S
C292 C291 1.387 . S
C292 C295 1.387 . S
H293 C289 0.950 . S
H294 C291 0.950 . S
C295 C286 1.390 . S
C295 H288 0.950 . S
C295 C292 1.387 . S
C296 C297 1.387 . S
C296 H300 0.950 . S
C296 C305 1.390 . S
C297 C296 1.387 . S
C297 C299 1.387 1_565 S
H298 C305 0.950 . S
C299 C297 1.387 1_545 S
C299 C301 1.390 . S
C299 H303 0.950 1_556 S
H300 C296 0.950 . S
C301 C299 1.390 . S
C301 C302 1.387 . S
C301 H304 0.950 . S
C302 C301 1.387 . S
C302 C305 1.387 1_545 S
H303 C299 0.950 1_554 S
H304 C301 0.950 . S
C305 C296 1.390 . S
C305 H298 0.950 . S
C305 C302 1.387 1_565 S
C306 C307 1.387 . S
C306 H310 0.950 . S
C306 C315 1.390 . S
C307 C306 1.387 . S
C307 C309 1.387 1_545 S
H308 C315 0.950 . S
C309 C307 1.387 1_565 S
C309 C311 1.390 . S
C309 H313 0.950 . S
H310 C306 0.950 . S
C311 C309 1.390 . S
C311 C312 1.387 . S
C311 H314 0.950 . S
C312 C311 1.387 . S
C312 C315 1.387 1_565 S
H313 C309 0.950 . S
H314 C311 0.950 . S
C315 C306 1.390 . S
C315 H308 0.950 . S
C315 C312 1.387 1_545 S
C316 C317 1.387 . S
C316 H320 0.950 . S
C316 C325 1.390 1_565 S
C317 C316 1.387 . S
C317 C319 1.377 1_565 S
H318 C325 0.950 . S
C319 C317 1.377 1_545 S
C319 C321 1.402 . S
C319 H323 0.948 1_545 S
H320 C316 0.950 . S
C321 C319 1.402 . S
C321 C322 1.387 . S
C321 H324 0.950 . S
C322 C321 1.387 . S
C322 C325 1.387 . S
H323 C319 0.948 1_565 S
H324 C321 0.950 . S
C325 C316 1.390 1_545 S
C325 H318 0.950 . S
C325 C322 1.387 . S
C326 C327 1.387 1_565 S
C326 H330 0.950 . S
C326 C335 1.390 . S
C327 C326 1.387 1_545 S
C327 C329 1.387 . S
H328 C335 0.950 . S
C329 C327 1.387 . S
C329 C331 1.390 . S
C329 H333 0.950 . S
H330 C326 0.950 . S
C331 C329 1.390 . S
C331 C332 1.387 1_545 S
C331 H334 0.950 . S
C332 C331 1.387 1_565 S
C332 C335 1.387 . S
H333 C329 0.950 . S
H334 C331 0.950 . S
C335 C326 1.390 . S
C335 H328 0.950 . S
C335 C332 1.387 . S
C336 C337 1.387 . S
C336 H340 0.950 . S
C336 C345 1.390 . S
C337 C336 1.387 . S
C337 C339 1.387 . S
H338 C345 0.950 . S
C339 C337 1.387 . S
C339 C341 1.390 . S
C339 H343 0.950 . S
H340 C336 0.950 . S
C341 C339 1.390 . S
C341 C342 1.387 . S
C341 H344 0.950 . S
C342 C341 1.387 . S
C342 C345 1.387 . S
H343 C339 0.950 . S
H344 C341 0.950 . S
C345 C336 1.390 . S
C345 H338 0.950 . S
C345 C342 1.387 . S
C346 C347 1.387 . S
C346 H350 0.950 . S
C346 C355 1.390 . S
C347 C346 1.387 . S
C347 C349 1.387 . S
H348 C355 0.950 . S
C349 C347 1.387 . S
C349 C351 1.390 . S
C349 H353 0.950 . S
H350 C346 0.950 . S
C351 C349 1.390 . S
C351 C352 1.387 . S
C351 H354 0.950 . S
C352 C351 1.387 . S
C352 C355 1.387 . S
H353 C349 0.950 . S
H354 C351 0.950 . S
C355 C346 1.390 . S
C355 H348 0.950 . S
C355 C352 1.387 . S
C356 C357 1.387 . S
C356 H360 0.950 . S
C356 C365 1.390 . S
C357 C356 1.387 . S
C357 C359 1.387 . S
H358 C365 0.950 . S
C359 C357 1.387 . S
C359 C361 1.390 . S
C359 H363 0.950 . S
H360 C356 0.950 . S
C361 C359 1.390 . S
C361 C362 1.387 . S
C361 H364 0.950 . S
C362 C361 1.387 . S
C362 C365 1.387 . S
H363 C359 0.950 . S
H364 C361 0.950 . S
C365 C356 1.390 . S
C365 H358 0.950 . S
C365 C362 1.387 . S
C366 C367 1.387 . S
C366 H370 0.950 . S
C366 C375 1.390 . S
C367 C366 1.387 . S
C367 C369 1.387 . S
H368 C375 0.950 . S
C369 C367 1.387 . S
C369 C371 1.390 . S
C369 H373 0.950 . S
H370 C366 0.950 . S
C371 C369 1.390 . S
C371 C372 1.387 . S
C371 H374 0.950 . S
C372 C371 1.387 . S
C372 C375 1.387 . S
H373 C369 0.950 . S
H374 C371 0.950 . S
C375 C366 1.390 . S
C375 H368 0.950 . S
C375 C372 1.387 . S
C376 C377 1.387 . S
C376 H380 0.950 . S
C376 C385 1.390 . S
C377 C376 1.387 . S
C377 C379 1.387 . S
H378 C385 0.950 . S
C379 C377 1.387 . S
C379 C381 1.390 . S
C379 H383 0.950 . S
H380 C376 0.950 . S
C381 C379 1.390 . S
C381 C382 1.387 . S
C381 H384 0.950 . S
C382 C381 1.387 . S
C382 C385 1.387 . S
H383 C379 0.950 . S
H384 C381 0.950 . S
C385 C376 1.390 . S
C385 H378 0.950 . S
C385 C382 1.387 . S
C386 C387 1.387 . S
C386 H390 0.950 . S
C386 C395 1.390 . S
C387 C386 1.387 . S
C387 C389 1.387 . S
H388 C395 0.950 . S
C389 C387 1.387 . S
C389 C391 1.390 . S
C389 H393 0.950 . S
H390 C386 0.950 . S
C391 C389 1.390 . S
C391 C392 1.387 . S
C391 H394 0.950 . S
C392 C391 1.387 . S
C392 C395 1.387 . S
H393 C389 0.950 . S
H394 C391 0.950 . S
C395 C386 1.390 . S
C395 H388 0.950 . S
C395 C392 1.387 . S
C396 C397 1.387 . S
C396 H400 0.950 . S
C396 C405 1.390 . S
C397 C396 1.387 . S
C397 C399 1.387 . S
H398 C405 0.950 . S
C399 C397 1.387 . S
C399 C401 1.390 . S
C399 H403 0.950 . S
H400 C396 0.950 . S
C401 C399 1.390 . S
C401 C402 1.387 . S
C401 H404 0.950 . S
C402 C401 1.387 . S
C402 C405 1.387 . S
H403 C399 0.950 . S
H404 C401 0.950 . S
C405 C396 1.390 . S
C405 H398 0.950 . S
C405 C402 1.387 . S
C406 C407 1.387 . S
C406 H410 0.950 . S
C406 C415 1.390 . S
C407 C406 1.387 . S
C407 C409 1.387 . S
H408 C415 0.950 . S
C409 C407 1.387 . S
C409 C411 1.390 . S
C409 H413 0.950 . S
H410 C406 0.950 . S
C411 C409 1.390 . S
C411 C412 1.387 . S
C411 H414 0.950 . S
C412 C411 1.387 . S
C412 C415 1.387 . S
H413 C409 0.950 . S
H414 C411 0.950 . S
C415 C406 1.390 . S
C415 H408 0.950 . S
C415 C412 1.387 . S
C177 C8 1.671 . S
C182 C131 1.687 . S
C192 C95 1.443 . S
C187 C19 1.470 . S
C202 C118 1.553 . S
C197 C30 1.561 . S
C212 C106 1.555 . S
C207 C41 1.560 . S
C222 C175 1.687 . S
C217 C52 1.670 . S
C232 C139 1.440 . S
C227 C63 1.470 . S
C237 C74 1.562 . S
C242 C162 1.554 . S
C252 C150 1.554 . S
C247 C85 1.560 . S
C257 C7 1.639 . S
C262 C172 1.717 . S
C272 C142 1.385 . S
C267 C16 1.303 . S
C277 C29 1.602 . S
C282 C161 1.603 . S
C287 C40 1.544 . S
C292 C147 1.542 . S
C302 C128 1.717 . S
C297 C51 1.637 . S
C307 C60 1.301 . S
C312 C98 1.386 . S
C322 C117 1.603 . S
C317 C73 1.602 . S
C332 C103 1.544 . S
C327 C84 1.545 . S
C342 C153 1.514 . S
C337 C5 1.247 . S
C352 C169 1.518 . S
C347 C18 1.518 . S
C357 C27 1.397 . S
C362 C140 1.500 . S
C372 C164 1.495 . S
C367 C38 1.396 . S
C382 C109 1.514 . S
C377 C49 1.247 . S
C387 C62 1.519 . S
C392 C125 1.519 . S
C397 C71 1.397 . S
C402 C96 1.501 . S
C407 C82 1.397 . S
C412 C120 1.495 . S
