# Generated by pormake.
# Topology gar, (4,6)-cn, num edge types: 1
# Building blocks:
#     Node 0, Type 0, BuildingBlock: QUQFOY_clean_sbu_3, # of connection points: 4
#     Node 1, Type 0, BuildingBlock: QUQFOY_clean_sbu_3, # of connection points: 4
#     Node 2, Type 0, BuildingBlock: QUQFOY_clean_sbu_3, # of connection points: 4
#     Node 3, Type 0, BuildingBlock: QUQFOY_clean_sbu_3, # of connection points: 4
#     Node 4, Type 0, BuildingBlock: QUQFOY_clean_sbu_3, # of connection points: 4
#     Node 5, Type 0, BuildingBlock: QUQFOY_clean_sbu_3, # of connection points: 4
#     Node 6, Type 0, BuildingBlock: QUQFOY_clean_sbu_3, # of connection points: 4
#     Node 7, Type 0, BuildingBlock: QUQFOY_clean_sbu_3, # of connection points: 4
#     Node 8, Type 0, BuildingBlock: QUQFOY_clean_sbu_3, # of connection points: 4
#     Node 9, Type 0, BuildingBlock: QUQFOY_clean_sbu_3, # of connection points: 4
#     Node 10, Type 0, BuildingBlock: QUQFOY_clean_sbu_3, # of connection points: 4
#     Node 11, Type 0, BuildingBlock: QUQFOY_clean_sbu_3, # of connection points: 4
#     Node 12, Type 0, BuildingBlock: QUQFOY_clean_sbu_3, # of connection points: 4
#     Node 13, Type 0, BuildingBlock: QUQFOY_clean_sbu_3, # of connection points: 4
#     Node 14, Type 0, BuildingBlock: QUQFOY_clean_sbu_3, # of connection points: 4
#     Node 15, Type 0, BuildingBlock: QUQFOY_clean_sbu_3, # of connection points: 4
#     Node 16, Type 0, BuildingBlock: QUQFOY_clean_sbu_3, # of connection points: 4
#     Node 17, Type 0, BuildingBlock: QUQFOY_clean_sbu_3, # of connection points: 4
#     Node 18, Type 0, BuildingBlock: QUQFOY_clean_sbu_3, # of connection points: 4
#     Node 19, Type 0, BuildingBlock: QUQFOY_clean_sbu_3, # of connection points: 4
#     Node 20, Type 0, BuildingBlock: QUQFOY_clean_sbu_3, # of connection points: 4
#     Node 21, Type 0, BuildingBlock: QUQFOY_clean_sbu_3, # of connection points: 4
#     Node 22, Type 0, BuildingBlock: QUQFOY_clean_sbu_3, # of connection points: 4
#     Node 23, Type 0, BuildingBlock: QUQFOY_clean_sbu_3, # of connection points: 4
#     Node 24, Type 1, BuildingBlock: INOVEN_clean_sbu_0, # of connection points: 6
#     Node 25, Type 1, BuildingBlock: INOVEN_clean_sbu_0, # of connection points: 6
#     Node 26, Type 1, BuildingBlock: INOVEN_clean_sbu_0, # of connection points: 6
#     Node 27, Type 1, BuildingBlock: INOVEN_clean_sbu_0, # of connection points: 6
#     Node 28, Type 1, BuildingBlock: INOVEN_clean_sbu_0, # of connection points: 6
#     Node 29, Type 1, BuildingBlock: INOVEN_clean_sbu_0, # of connection points: 6
#     Node 30, Type 1, BuildingBlock: INOVEN_clean_sbu_0, # of connection points: 6
#     Node 31, Type 1, BuildingBlock: INOVEN_clean_sbu_0, # of connection points: 6
#     Node 32, Type 1, BuildingBlock: INOVEN_clean_sbu_0, # of connection points: 6
#     Node 33, Type 1, BuildingBlock: INOVEN_clean_sbu_0, # of connection points: 6
#     Node 34, Type 1, BuildingBlock: INOVEN_clean_sbu_0, # of connection points: 6
#     Node 35, Type 1, BuildingBlock: INOVEN_clean_sbu_0, # of connection points: 6
#     Node 36, Type 1, BuildingBlock: INOVEN_clean_sbu_0, # of connection points: 6
#     Node 37, Type 1, BuildingBlock: INOVEN_clean_sbu_0, # of connection points: 6
#     Node 38, Type 1, BuildingBlock: INOVEN_clean_sbu_0, # of connection points: 6
#     Node 39, Type 1, BuildingBlock: INOVEN_clean_sbu_0, # of connection points: 6
#     Edge 40, Type (0, 1), BuildingBlock: AJUNOK_clean_linker_0, # of connection points: 2
#     Edge 41, Type (0, 1), BuildingBlock: AJUNOK_clean_linker_0, # of connection points: 2
#     Edge 42, Type (0, 1), BuildingBlock: AJUNOK_clean_linker_0, # of connection points: 2
#     Edge 43, Type (0, 1), BuildingBlock: AJUNOK_clean_linker_0, # of connection points: 2
#     Edge 44, Type (0, 1), BuildingBlock: AJUNOK_clean_linker_0, # of connection points: 2
#     Edge 45, Type (0, 1), BuildingBlock: AJUNOK_clean_linker_0, # of connection points: 2
#     Edge 46, Type (0, 1), BuildingBlock: AJUNOK_clean_linker_0, # of connection points: 2
#     Edge 47, Type (0, 1), BuildingBlock: AJUNOK_clean_linker_0, # of connection points: 2
#     Edge 48, Type (0, 1), BuildingBlock: AJUNOK_clean_linker_0, # of connection points: 2
#     Edge 49, Type (0, 1), BuildingBlock: AJUNOK_clean_linker_0, # of connection points: 2
#     Edge 50, Type (0, 1), BuildingBlock: AJUNOK_clean_linker_0, # of connection points: 2
#     Edge 51, Type (0, 1), BuildingBlock: AJUNOK_clean_linker_0, # of connection points: 2
#     Edge 52, Type (0, 1), BuildingBlock: AJUNOK_clean_linker_0, # of connection points: 2
#     Edge 53, Type (0, 1), BuildingBlock: AJUNOK_clean_linker_0, # of connection points: 2
#     Edge 54, Type (0, 1), BuildingBlock: AJUNOK_clean_linker_0, # of connection points: 2
#     Edge 55, Type (0, 1), BuildingBlock: AJUNOK_clean_linker_0, # of connection points: 2
#     Edge 56, Type (0, 1), BuildingBlock: AJUNOK_clean_linker_0, # of connection points: 2
#     Edge 57, Type (0, 1), BuildingBlock: AJUNOK_clean_linker_0, # of connection points: 2
#     Edge 58, Type (0, 1), BuildingBlock: AJUNOK_clean_linker_0, # of connection points: 2
#     Edge 59, Type (0, 1), BuildingBlock: AJUNOK_clean_linker_0, # of connection points: 2
#     Edge 60, Type (0, 1), BuildingBlock: AJUNOK_clean_linker_0, # of connection points: 2
#     Edge 61, Type (0, 1), BuildingBlock: AJUNOK_clean_linker_0, # of connection points: 2
#     Edge 62, Type (0, 1), BuildingBlock: AJUNOK_clean_linker_0, # of connection points: 2
#     Edge 63, Type (0, 1), BuildingBlock: AJUNOK_clean_linker_0, # of connection points: 2
#     Edge 64, Type (0, 1), BuildingBlock: AJUNOK_clean_linker_0, # of connection points: 2
#     Edge 65, Type (0, 1), BuildingBlock: AJUNOK_clean_linker_0, # of connection points: 2
#     Edge 66, Type (0, 1), BuildingBlock: AJUNOK_clean_linker_0, # of connection points: 2
#     Edge 67, Type (0, 1), BuildingBlock: AJUNOK_clean_linker_0, # of connection points: 2
#     Edge 68, Type (0, 1), BuildingBlock: AJUNOK_clean_linker_0, # of connection points: 2
#     Edge 69, Type (0, 1), BuildingBlock: AJUNOK_clean_linker_0, # of connection points: 2
#     Edge 70, Type (0, 1), BuildingBlock: AJUNOK_clean_linker_0, # of connection points: 2
#     Edge 71, Type (0, 1), BuildingBlock: AJUNOK_clean_linker_0, # of connection points: 2
#     Edge 72, Type (0, 1), BuildingBlock: AJUNOK_clean_linker_0, # of connection points: 2
#     Edge 73, Type (0, 1), BuildingBlock: AJUNOK_clean_linker_0, # of connection points: 2
#     Edge 74, Type (0, 1), BuildingBlock: AJUNOK_clean_linker_0, # of connection points: 2
#     Edge 75, Type (0, 1), BuildingBlock: AJUNOK_clean_linker_0, # of connection points: 2
#     Edge 76, Type (0, 1), BuildingBlock: AJUNOK_clean_linker_0, # of connection points: 2
#     Edge 77, Type (0, 1), BuildingBlock: AJUNOK_clean_linker_0, # of connection points: 2
#     Edge 78, Type (0, 1), BuildingBlock: AJUNOK_clean_linker_0, # of connection points: 2
#     Edge 79, Type (0, 1), BuildingBlock: AJUNOK_clean_linker_0, # of connection points: 2
#     Edge 80, Type (0, 1), BuildingBlock: AJUNOK_clean_linker_0, # of connection points: 2
#     Edge 81, Type (0, 1), BuildingBlock: AJUNOK_clean_linker_0, # of connection points: 2
#     Edge 82, Type (0, 1), BuildingBlock: AJUNOK_clean_linker_0, # of connection points: 2
#     Edge 83, Type (0, 1), BuildingBlock: AJUNOK_clean_linker_0, # of connection points: 2
#     Edge 84, Type (0, 1), BuildingBlock: AJUNOK_clean_linker_0, # of connection points: 2
#     Edge 85, Type (0, 1), BuildingBlock: AJUNOK_clean_linker_0, # of connection points: 2
#     Edge 86, Type (0, 1), BuildingBlock: AJUNOK_clean_linker_0, # of connection points: 2
#     Edge 87, Type (0, 1), BuildingBlock: AJUNOK_clean_linker_0, # of connection points: 2
#     Edge 88, Type (0, 1), BuildingBlock: AJUNOK_clean_linker_0, # of connection points: 2
#     Edge 89, Type (0, 1), BuildingBlock: AJUNOK_clean_linker_0, # of connection points: 2
#     Edge 90, Type (0, 1), BuildingBlock: AJUNOK_clean_linker_0, # of connection points: 2
#     Edge 91, Type (0, 1), BuildingBlock: AJUNOK_clean_linker_0, # of connection points: 2
#     Edge 92, Type (0, 1), BuildingBlock: AJUNOK_clean_linker_0, # of connection points: 2
#     Edge 93, Type (0, 1), BuildingBlock: AJUNOK_clean_linker_0, # of connection points: 2
#     Edge 94, Type (0, 1), BuildingBlock: AJUNOK_clean_linker_0, # of connection points: 2
#     Edge 95, Type (0, 1), BuildingBlock: AJUNOK_clean_linker_0, # of connection points: 2
#     Edge 96, Type (0, 1), BuildingBlock: AJUNOK_clean_linker_0, # of connection points: 2
#     Edge 97, Type (0, 1), BuildingBlock: AJUNOK_clean_linker_0, # of connection points: 2
#     Edge 98, Type (0, 1), BuildingBlock: AJUNOK_clean_linker_0, # of connection points: 2
#     Edge 99, Type (0, 1), BuildingBlock: AJUNOK_clean_linker_0, # of connection points: 2
#     Edge 100, Type (0, 1), BuildingBlock: AJUNOK_clean_linker_0, # of connection points: 2
#     Edge 101, Type (0, 1), BuildingBlock: AJUNOK_clean_linker_0, # of connection points: 2
#     Edge 102, Type (0, 1), BuildingBlock: AJUNOK_clean_linker_0, # of connection points: 2
#     Edge 103, Type (0, 1), BuildingBlock: AJUNOK_clean_linker_0, # of connection points: 2
#     Edge 104, Type (0, 1), BuildingBlock: AJUNOK_clean_linker_0, # of connection points: 2
#     Edge 105, Type (0, 1), BuildingBlock: AJUNOK_clean_linker_0, # of connection points: 2
#     Edge 106, Type (0, 1), BuildingBlock: AJUNOK_clean_linker_0, # of connection points: 2
#     Edge 107, Type (0, 1), BuildingBlock: AJUNOK_clean_linker_0, # of connection points: 2
#     Edge 108, Type (0, 1), BuildingBlock: AJUNOK_clean_linker_0, # of connection points: 2
#     Edge 109, Type (0, 1), BuildingBlock: AJUNOK_clean_linker_0, # of connection points: 2
#     Edge 110, Type (0, 1), BuildingBlock: AJUNOK_clean_linker_0, # of connection points: 2
#     Edge 111, Type (0, 1), BuildingBlock: AJUNOK_clean_linker_0, # of connection points: 2
#     Edge 112, Type (0, 1), BuildingBlock: AJUNOK_clean_linker_0, # of connection points: 2
#     Edge 113, Type (0, 1), BuildingBlock: AJUNOK_clean_linker_0, # of connection points: 2
#     Edge 114, Type (0, 1), BuildingBlock: AJUNOK_clean_linker_0, # of connection points: 2
#     Edge 115, Type (0, 1), BuildingBlock: AJUNOK_clean_linker_0, # of connection points: 2
#     Edge 116, Type (0, 1), BuildingBlock: AJUNOK_clean_linker_0, # of connection points: 2
#     Edge 117, Type (0, 1), BuildingBlock: AJUNOK_clean_linker_0, # of connection points: 2
#     Edge 118, Type (0, 1), BuildingBlock: AJUNOK_clean_linker_0, # of connection points: 2
#     Edge 119, Type (0, 1), BuildingBlock: AJUNOK_clean_linker_0, # of connection points: 2
#     Edge 120, Type (0, 1), BuildingBlock: AJUNOK_clean_linker_0, # of connection points: 2
#     Edge 121, Type (0, 1), BuildingBlock: AJUNOK_clean_linker_0, # of connection points: 2
#     Edge 122, Type (0, 1), BuildingBlock: AJUNOK_clean_linker_0, # of connection points: 2
#     Edge 123, Type (0, 1), BuildingBlock: AJUNOK_clean_linker_0, # of connection points: 2
#     Edge 124, Type (0, 1), BuildingBlock: AJUNOK_clean_linker_0, # of connection points: 2
#     Edge 125, Type (0, 1), BuildingBlock: AJUNOK_clean_linker_0, # of connection points: 2
#     Edge 126, Type (0, 1), BuildingBlock: AJUNOK_clean_linker_0, # of connection points: 2
#     Edge 127, Type (0, 1), BuildingBlock: AJUNOK_clean_linker_0, # of connection points: 2
#     Edge 128, Type (0, 1), BuildingBlock: AJUNOK_clean_linker_0, # of connection points: 2
#     Edge 129, Type (0, 1), BuildingBlock: AJUNOK_clean_linker_0, # of connection points: 2
#     Edge 130, Type (0, 1), BuildingBlock: AJUNOK_clean_linker_0, # of connection points: 2
#     Edge 131, Type (0, 1), BuildingBlock: AJUNOK_clean_linker_0, # of connection points: 2
#     Edge 132, Type (0, 1), BuildingBlock: AJUNOK_clean_linker_0, # of connection points: 2
#     Edge 133, Type (0, 1), BuildingBlock: AJUNOK_clean_linker_0, # of connection points: 2
#     Edge 134, Type (0, 1), BuildingBlock: AJUNOK_clean_linker_0, # of connection points: 2
#     Edge 135, Type (0, 1), BuildingBlock: AJUNOK_clean_linker_0, # of connection points: 2
# Relax obj value: 0.229
# Max RMSD: 0.347
# Mean RMSD: 0.167
data_MOF--net-gar--node1-QUQFOY_clean_sbu_3--node2-INOVEN_clean_sbu_0--edge1-AJUNOK_clean_linker_0
_symmetry_space_group_name_H-M    P1
_symmetry_Int_Tables_number       1
_symmetry_cell_setting            triclinic
loop_
_symmetry_equiv_pos_as_xyz
'x, y, z'
_cell_length_a     48.816976
_cell_length_b     44.256192
_cell_length_c     43.813469
_cell_angle_alpha  101.22911
_cell_angle_beta   95.966859
_cell_angle_gamma 103.87772
loop_
_atom_site_label
_atom_site_type_symbol
_atom_site_fract_x
_atom_site_fract_y
_atom_site_fract_z
_atom_type_partial_charge
C0 C 0.09603 0.35854 0.32471 0.0
O1 O 0.11331 0.37951 0.31487 0.0
Cd2 Cd 0.15961 0.40789 0.34014 0.0
O3 O 0.10315 0.35008 0.35003 0.0
Cd4 Cd 0.14611 0.36096 0.39077 0.0
C5 C 0.14123 0.43843 0.41042 0.0
O6 O 0.17203 0.3608 0.34842 0.0
O7 O 0.19915 0.36918 0.39263 0.0
O8 O 0.12672 0.30642 0.39831 0.0
C9 C 0.19663 0.3645 0.36286 0.0
O10 O 0.14814 0.44388 0.38442 0.0
C11 C 0.13368 0.31407 0.42814 0.0
O12 O 0.14001 0.41151 0.41711 0.0
O13 O 0.14663 0.34316 0.44016 0.0
C14 C 0.9665 0.73825 0.71837 0.0
O15 O 0.98593 0.73026 0.73401 0.0
Cd16 Cd 0.03329 0.73181 0.72368 0.0
O17 O 0.97072 0.74929 0.69391 0.0
Cd18 Cd 1.00949 0.76149 0.66257 0.0
C19 C 0.0184 0.68585 0.64794 0.0
O20 O 0.04701 0.77998 0.70704 0.0
O21 O 0.06048 0.77442 0.66174 0.0
O22 O 1.00426 0.81207 0.65213 0.0
C23 C 0.06741 0.78104 0.69137 0.0
O24 O 0.02971 0.6905 0.67659 0.0
C25 C 1.00143 0.80308 0.62232 0.0
O26 O 1.00769 0.70651 0.63814 0.0
O27 O 0.99943 0.77374 0.61121 0.0
C28 C 0.60883 0.87058 0.83172 0.0
O29 O 0.6262 0.89248 0.8231 0.0
Cd30 Cd 0.6731 0.91992 0.84877 0.0
O31 O 0.616 0.86036 0.85592 0.0
Cd32 Cd 0.6584 0.86879 0.89651 0.0
C33 C 0.65389 0.94591 0.91991 0.0
O34 O 0.68686 0.87335 0.85598 0.0
O35 O 0.71076 0.8755 0.90065 0.0
O36 O 0.63829 0.8135 0.90177 0.0
C37 C 0.71062 0.87563 0.87175 0.0
O38 O 0.66139 0.95301 0.8947 0.0
C39 C 0.64635 0.81986 0.93143 0.0
O40 O 0.6522 0.91828 0.92499 0.0
O41 O 0.65961 0.84865 0.94438 0.0
C42 C 0.46208 0.23229 0.21392 0.0
O43 O 0.4753 0.21689 0.22903 0.0
Cd44 Cd 0.52433 0.21655 0.22755 0.0
O45 O 0.47377 0.24719 0.19448 0.0
Cd46 Cd 0.51774 0.25769 0.17192 0.0
C47 C 0.52089 0.17981 0.15109 0.0
O48 O 0.54471 0.27011 0.22384 0.0
O49 O 0.56988 0.27651 0.1871 0.0
O50 O 0.51185 0.30791 0.16037 0.0
C51 C 0.56919 0.27783 0.21615 0.0
O52 O 0.52738 0.17958 0.17989 0.0
C53 C 0.51431 0.3004 0.13146 0.0
O54 O 0.51485 0.20391 0.14315 0.0
O55 O 0.51707 0.27257 0.12131 0.0
C56 C 0.0924 0.82989 0.18341 0.0
O57 O 0.10959 0.81815 0.198 0.0
Cd58 Cd 0.15384 0.81165 0.18412 0.0
O59 O 0.09865 0.84042 0.15903 0.0
Cd60 Cd 0.14058 0.84927 0.12744 0.0
C61 C 0.13076 0.76619 0.10689 0.0
O62 O 0.17745 0.86174 0.17527 0.0
O63 O 0.19423 0.85049 0.13285 0.0
O64 O 0.1229 0.89873 0.12627 0.0
C65 C 0.19906 0.85833 0.16276 0.0
O66 O 0.14183 0.7699 0.13548 0.0
C67 C 0.12843 0.9033 0.09958 0.0
O68 O 0.12527 0.7899 0.09683 0.0
O69 O 0.1406 0.88357 0.08512 0.0
C70 C 0.46715 0.77645 0.3713 0.0
O71 O 0.48521 0.79232 0.35763 0.0
Cd72 Cd 0.53531 0.80953 0.37325 0.0
O73 O 0.47555 0.76648 0.39559 0.0
Cd74 Cd 0.52671 0.76987 0.42761 0.0
C75 C 0.54066 0.85393 0.44897 0.0
O76 O 0.55042 0.76364 0.38058 0.0
O77 O 0.57898 0.78436 0.42403 0.0
O78 O 0.51567 0.71131 0.43287 0.0
C79 C 0.57593 0.77265 0.39472 0.0
O80 O 0.54296 0.85264 0.42011 0.0
C81 C 0.52888 0.71653 0.46079 0.0
O82 O 0.53406 0.82811 0.45907 0.0
O83 O 0.53861 0.74599 0.47431 0.0
C84 C 0.58908 0.3257 0.68257 0.0
O85 O 0.60657 0.31403 0.69681 0.0
Cd86 Cd 0.65201 0.30904 0.68565 0.0
O87 O 0.59556 0.33809 0.65928 0.0
Cd88 Cd 0.6376 0.34643 0.62808 0.0
C89 C 0.62872 0.26277 0.60936 0.0
O90 O 0.67511 0.35789 0.67446 0.0
O91 O 0.69071 0.34543 0.63136 0.0
O92 O 0.63871 0.40415 0.62572 0.0
C93 C 0.69612 0.35333 0.66133 0.0
O94 O 0.64029 0.26662 0.63779 0.0
C95 C 0.62768 0.39924 0.59701 0.0
O96 O 0.62319 0.28644 0.59922 0.0
O97 O 0.62213 0.37028 0.58176 0.0
C98 C 0.96774 0.27835 0.87123 0.0
O99 O 0.98578 0.2935 0.85702 0.0
Cd100 Cd 0.03615 0.31086 0.87211 0.0
O101 O 0.9762 0.26899 0.89587 0.0
Cd102 Cd 0.02718 0.27244 0.92786 0.0
C103 C 0.04157 0.35655 0.94727 0.0
O104 O 0.05318 0.26706 0.8822 0.0
O105 O 0.07923 0.28962 0.92704 0.0
O106 O 0.01565 0.21379 0.93241 0.0
C107 C 0.07809 0.2782 0.89797 0.0
O108 O 0.04449 0.35457 0.91849 0.0
C109 C 0.02895 0.21836 0.96018 0.0
O110 O 0.03404 0.33115 0.95792 0.0
O111 O 0.03926 0.24765 0.97411 0.0
C112 C 0.50092 0.08909 0.37787 0.0
O113 O 0.51297 0.08271 0.35404 0.0
Cd114 Cd 0.48936 0.05751 0.30193 0.0
O115 O 0.47407 0.0861 0.37493 0.0
Cd116 Cd 0.43473 0.07207 0.32961 0.0
C117 C 0.43845 0.99737 0.32017 0.0
O118 O 0.45811 0.08678 0.28657 0.0
O119 O 0.42043 0.04727 0.27384 0.0
O120 O 0.41122 0.11435 0.34032 0.0
C121 C 0.44001 0.06636 0.26488 0.0
O122 O 0.45932 1.00538 0.3055 0.0
C123 C 0.38641 0.09532 0.33682 0.0
O124 O 0.42738 0.01822 0.33433 0.0
O125 O 0.38502 0.06594 0.33433 0.0
C126 C 0.33201 0.15172 0.51337 0.0
O127 O 0.31205 0.13668 0.52552 0.0
Cd128 Cd 0.26754 0.14727 0.53245 0.0
O129 O 0.32935 0.17592 0.50249 0.0
Cd130 Cd 0.28963 0.20434 0.4956 0.0
C131 C 0.29251 0.22493 0.57728 0.0
O132 O 0.25008 0.1552 0.48317 0.0
O133 O 0.23644 0.19726 0.49802 0.0
O134 O 0.29761 0.20585 0.44004 0.0
C135 C 0.22945 0.16709 0.48805 0.0
O136 O 0.27855 0.19593 0.57417 0.0
C137 C 0.30265 0.2358 0.44237 0.0
O138 O 0.30158 0.23489 0.55356 0.0
O139 O 0.30164 0.25195 0.46949 0.0
C140 C 0.1594 0.04749 0.85319 0.0
O141 O 0.15268 0.0663 0.83709 0.0
Cd142 Cd 0.17832 0.06175 0.79082 0.0
O143 O 0.17622 0.03097 0.84065 0.0
Cd144 Cd 0.20308 0.02841 0.78131 0.0
C145 C 0.23257 0.11641 0.78684 0.0
O146 O 0.15546 0.02588 0.73926 0.0
O147 O 0.19469 0.0394 0.72283 0.0
O148 O 0.20803 0.96501 0.77199 0.0
C149 C 0.16758 0.03312 0.71612 0.0
O150 O 0.20596 0.11398 0.78467 0.0
C151 C 0.23513 0.96874 0.77571 0.0
O152 O 0.24024 0.09064 0.78946 0.0
O153 O 0.24785 0.99863 0.78131 0.0
C154 C 0.39281 1.00784 0.9798 0.0
O155 O 0.3829 0.02368 0.96226 0.0
Cd156 Cd 0.33175 1.01156 0.95154 0.0
O157 O 0.37611 0.98948 0.99278 0.0
Cd158 Cd 0.32729 0.9699 1.0004 0.0
C159 C 0.31943 0.93032 0.92627 0.0
O160 O 0.31558 0.02047 1.00267 0.0
O161 O 0.28082 0.97924 1.0021 0.0
O162 O 0.35091 0.97185 0.05243 0.0
C163 C 0.2898 1.0093 1.0058 0.0
O164 O 0.32238 0.95725 0.91895 0.0
C165 C 0.33681 0.94383 0.05283 0.0
O166 O 0.31941 0.92829 0.95464 0.0
O167 O 0.31687 0.92945 0.02991 0.0
C168 C 0.42146 0.46324 0.05172 0.0
O169 O 0.40556 0.47453 0.03485 0.0
Cd170 Cd 0.35502 0.45971 0.02173 0.0
O171 O 0.4106 0.44025 0.06458 0.0
Cd172 Cd 0.35809 0.40573 0.06303 0.0
C173 C 0.34878 0.3835 0.97983 0.0
O174 O 0.33621 0.45084 0.0679 0.0
O175 O 0.30641 0.40505 0.05082 0.0
O176 O 0.36572 0.40119 0.12089 0.0
C177 C 0.31033 0.43496 0.05984 0.0
O178 O 0.3451 0.41114 0.98064 0.0
C179 C 0.35141 0.37214 0.11616 0.0
O180 O 0.35582 0.37513 1.00544 0.0
O181 O 0.34249 0.35826 0.08731 0.0
C182 C 0.84338 0.07669 0.04819 0.0
O183 O 0.82954 0.06797 0.06935 0.0
Cd184 Cd 0.79132 0.08821 0.08756 0.0
O185 O 0.83847 0.09903 0.03587 0.0
Cd186 Cd 0.80646 0.13419 0.04091 0.0
C187 C 0.81802 0.16939 0.11696 0.0
O188 O 0.76262 0.09474 0.04361 0.0
O189 O 0.76341 0.14484 0.05539 0.0
O190 O 0.79266 0.13368 0.98579 0.0
C191 C 0.74943 0.11591 0.05095 0.0
O192 O 0.80575 0.14176 0.12047 0.0
C193 C 0.8056 0.1628 0.98843 0.0
O194 O 0.82527 0.1731 0.09057 0.0
O195 O 0.82063 0.17767 0.0149 0.0
C196 C 0.16041 0.56707 0.2583 0.0
O197 O 0.14468 0.57152 0.23552 0.0
Cd198 Cd 0.15351 0.56554 0.18296 0.0
O199 O 0.18213 0.55653 0.25397 0.0
Cd200 Cd 0.20718 0.54023 0.21028 0.0
C201 C 0.21933 0.61798 0.20665 0.0
O202 O 0.16485 0.51521 0.17426 0.0
O203 O 0.20169 0.5239 0.15163 0.0
O204 O 0.22197 0.50172 0.23611 0.0
C205 C 0.17477 0.51311 0.14877 0.0
O206 O 0.19465 0.61285 0.19069 0.0
C207 C 0.24828 0.51235 0.2344 0.0
O208 O 0.22734 0.59588 0.21643 0.0
O209 O 0.25479 0.53473 0.22003 0.0
C210 C 0.92182 0.96137 0.55164 0.0
O211 O 0.90659 0.9737 0.53519 0.0
Cd212 Cd 0.85653 0.95672 0.5189 0.0
O213 O 0.91036 0.93706 0.56244 0.0
Cd214 Cd 0.85785 0.90241 0.55994 0.0
C215 C 0.8517 0.88016 0.4773 0.0
O216 O 0.83618 0.94768 0.56438 0.0
O217 O 0.80654 0.90165 0.54766 0.0
O218 O 0.8681 0.8991 0.61752 0.0
C219 C 0.81035 0.93153 0.55658 0.0
O220 O 0.85012 0.90854 0.47785 0.0
C221 C 0.85142 0.87143 0.61451 0.0
O222 O 0.85563 0.87083 0.50305 0.0
O223 O 0.83972 0.85721 0.58641 0.0
C224 C 1.0 0.07074 0.33552 0.0
O225 O 1.00354 0.04958 0.31348 0.0
Cd226 Cd 0.97203 0.05021 0.26673 0.0
O227 O 0.98404 0.08837 0.32653 0.0
Cd228 Cd 0.95347 0.08387 0.26286 0.0
C229 C 0.91969 0.9951 0.25862 0.0
O230 O 0.99607 0.06976 0.22586 0.0
O231 O 0.96379 0.08496 0.20235 0.0
O232 O 0.94813 0.14659 0.27672 0.0
C233 C 0.98694 0.07662 0.20031 0.0
O234 O 0.94464 0.99431 0.25382 0.0
C235 C 0.92134 0.14292 0.26822 0.0
O236 O 0.91495 0.02332 0.26294 0.0
O237 O 0.90878 0.11312 0.25765 0.0
C238 C 0.34796 0.58722 0.54779 0.0
O239 O 0.33576 0.57797 0.5698 0.0
Cd240 Cd 0.29787 0.59728 0.58963 0.0
O241 O 0.34145 0.60927 0.53625 0.0
Cd242 Cd 0.30827 0.64223 0.54679 0.0
C243 C 0.32562 0.67681 0.62107 0.0
O244 O 0.26543 0.60021 0.54638 0.0
O245 O 0.26547 0.64843 0.56811 0.0
O246 O 0.2975 0.64729 0.49235 0.0
C247 C 0.2516 0.61952 0.55741 0.0
O248 O 0.31144 0.65002 0.62486 0.0
C249 C 0.30561 0.67763 0.49957 0.0
O250 O 0.33335 0.67911 0.5947 0.0
O251 O 0.31591 0.6907 0.52813 0.0
C252 C 0.49999 0.56978 0.83571 0.0
O253 O 0.50826 0.55347 0.81323 0.0
Cd254 Cd 0.4764 0.55274 0.76647 0.0
O255 O 0.48099 0.58422 0.82702 0.0
Cd256 Cd 0.45276 0.58349 0.76331 0.0
C257 C 0.42205 0.496 0.75928 0.0
O258 O 0.49833 0.58262 0.72933 0.0
O259 O 0.45861 0.56809 0.69986 0.0
O260 O 0.44765 0.64646 0.77708 0.0
C261 C 0.48571 0.57486 0.70074 0.0
O262 O 0.44704 0.49658 0.75335 0.0
C263 C 0.4209 0.64269 0.76845 0.0
O264 O 0.41622 0.52356 0.76452 0.0
O265 O 0.4085 0.61292 0.7576 0.0
C266 C 0.67929 0.06286 0.77267 0.0
O267 O 0.66031 0.06784 0.75364 0.0
Cd268 Cd 0.65659 0.06068 0.69839 0.0
O269 O 0.69947 0.05166 0.76323 0.0
Cd270 Cd 0.71594 0.03601 0.71197 0.0
C271 C 0.72272 0.11313 0.70663 0.0
O272 O 0.66935 1.01201 0.68308 0.0
O273 O 0.70183 0.01796 0.65394 0.0
O274 O 0.73455 0.99643 0.73216 0.0
C275 C 0.6754 1.00933 0.65557 0.0
O276 O 0.69571 0.10744 0.69965 0.0
C277 C 0.75954 1.00641 0.72584 0.0
O278 O 0.73445 0.09174 0.71252 0.0
O279 O 0.76365 0.02928 0.71183 0.0
C280 C 0.83358 0.65423 0.00947 0.0
O281 O 0.81518 0.63694 0.02173 0.0
Cd282 Cd 0.76998 0.64439 0.03135 0.0
O283 O 0.82853 0.67805 0.99956 0.0
Cd284 Cd 0.78672 0.70327 0.99336 0.0
C285 C 0.79114 0.72296 0.07542 0.0
O286 O 0.75073 0.65212 0.98276 0.0
O287 O 0.73234 0.69128 0.99335 0.0
O288 O 0.79539 0.70457 0.93791 0.0
C289 C 0.72832 0.66115 0.98577 0.0
O290 O 0.77974 0.69329 0.0728 0.0
C291 C 0.79904 0.7343 0.93976 0.0
O292 O 0.79807 0.73369 0.05129 0.0
O293 O 0.79655 0.75028 0.96639 0.0
C294 C 1.00381 0.58759 0.8673 0.0
O295 O 0.01448 0.5777 0.84336 0.0
Cd296 Cd 0.98837 0.54722 0.79397 0.0
O297 O 0.97711 0.58553 0.86529 0.0
Cd298 Cd 0.93627 0.56912 0.82058 0.0
C299 C 0.93523 0.49449 0.81961 0.0
O300 O 0.95856 0.57596 0.77463 0.0
O301 O 0.91995 0.53794 0.76657 0.0
O302 O 0.91828 0.61602 0.82591 0.0
C303 C 0.93951 0.5543 0.75506 0.0
O304 O 0.95631 0.49977 0.80463 0.0
C305 C 0.89246 0.60067 0.82487 0.0
O306 O 0.92492 0.51709 0.83146 0.0
O307 O 0.88787 0.57142 0.82578 0.0
C308 C 0.89275 0.51922 0.47782 0.0
O309 O 0.87957 0.52917 0.45702 0.0
Cd310 Cd 0.82827 0.51137 0.44861 0.0
O311 O 0.87941 0.50066 0.49326 0.0
Cd312 Cd 0.83356 0.47159 0.50134 0.0
C313 C 0.82455 0.43213 0.42555 0.0
O314 O 0.81563 0.51755 0.50145 0.0
O315 O 0.78537 0.475 0.50672 0.0
O316 O 0.85774 0.47665 0.55451 0.0
C317 C 0.79109 0.50459 0.50694 0.0
O318 O 0.82227 0.45749 0.41717 0.0
C319 C 0.84932 0.44684 0.55304 0.0
O320 O 0.8284 0.43158 0.45441 0.0
O321 O 0.83246 0.42959 0.52851 0.0
C322 C 0.65854 0.54642 0.35311 0.0
O323 O 0.65194 0.56554 0.33735 0.0
Cd324 Cd 0.67772 0.5614 0.29125 0.0
O325 O 0.67518 0.52983 0.34023 0.0
Cd326 Cd 0.70192 0.52743 0.28063 0.0
C327 C 0.73213 0.61598 0.28753 0.0
O328 O 0.65446 0.52658 0.23921 0.0
O329 O 0.69345 0.53647 0.2215 0.0
O330 O 0.7061 0.46382 0.27214 0.0
C331 C 0.6665 0.53217 0.21549 0.0
O332 O 0.70571 0.61407 0.28682 0.0
C333 C 0.73312 0.46712 0.27469 0.0
O334 O 0.73943 0.58961 0.28835 0.0
O335 O 0.7461 0.49686 0.27935 0.0
Gd336 Gd 0.05759 0.03973 0.0109 0.0
Gd337 Gd 0.09501 0.07827 0.04687 0.0
C338 C 0.05871 0.11239 0.01076 0.0
C339 C 1.00875 1.00678 0.97756 0.0
C340 C 0.98005 1.00419 0.98558 0.0
C341 C 0.9578 1.00404 0.96257 0.0
C342 C 0.97628 1.00868 0.01733 0.0
C343 C 0.92961 0.0167 1.0034 0.0
C344 C 0.9512 0.0148 0.02617 0.0
C345 C 0.9327 1.0103 0.97143 0.0
C346 C 0.10323 0.04498 0.97494 0.0
C347 C 0.09352 1.00652 0.04812 0.0
C348 C 0.14382 0.11043 0.08077 0.0
C349 C 0.17269 0.10974 0.07459 0.0
C350 C 0.19091 0.10167 0.09672 0.0
C351 C 0.17981 0.11033 0.04437 0.0
C352 C 0.21999 0.08933 0.05683 0.0
C353 C 0.20342 0.10033 0.03562 0.0
C354 C 0.21435 0.09131 0.08782 0.0
C355 C 0.04852 0.07281 0.08189 0.0
O356 O 0.04121 0.08417 0.009 0.0
O357 O 0.08524 0.11612 0.02282 0.0
O358 O 0.02179 0.03527 0.97519 0.0
O359 O 0.02527 0.99436 0.99363 0.0
O360 O 0.08652 0.01893 0.97872 0.0
O361 O 0.09677 0.06782 0.99346 0.0
O362 O 0.11147 0.03333 0.04639 0.0
O363 O 0.06666 1.00442 0.03907 0.0
O364 O 0.12866 0.08384 0.08561 0.0
O365 O 0.12918 0.12228 0.06196 0.0
O366 O 0.06506 0.09885 0.07788 0.0
O367 O 0.05591 0.05014 0.0643 0.0
H368 H 0.9606 1.00122 0.93806 0.0
H369 H 0.99349 1.00969 0.03557 0.0
H370 H 0.94959 0.02032 0.05101 0.0
H371 H 0.9163 1.01175 0.95353 0.0
H372 H 0.18566 0.10082 0.12002 0.0
H373 H 0.16595 0.11607 0.02666 0.0
H374 H 0.20721 0.09856 0.01148 0.0
H375 H 0.22693 0.08282 0.10445 0.0
Gd376 Gd 0.34356 0.80204 0.24421 0.0
Gd377 Gd 0.31436 0.81432 0.29398 0.0
C378 C 0.36514 0.86957 0.29128 0.0
C379 C 0.37059 0.80422 0.19654 0.0
C380 C 0.37489 0.8271 0.17624 0.0
C381 C 0.37141 0.81578 0.14355 0.0
C382 C 0.37817 0.85971 0.1888 0.0
C383 C 0.37106 0.86869 0.13625 0.0
C384 C 0.37643 0.8804 0.16896 0.0
C385 C 0.36941 0.83647 0.12361 0.0
C386 C 0.36421 0.77965 0.29407 0.0
C387 C 0.29491 0.74557 0.24792 0.0
C388 C 0.28758 0.8112 0.34162 0.0
C389 C 0.28739 0.79019 0.3635 0.0
C390 C 0.2719 0.79273 0.38857 0.0
C391 C 0.30361 0.76787 0.35969 0.0
C392 C 0.2899 0.75161 0.40677 0.0
C393 C 0.30473 0.74857 0.38109 0.0
C394 C 0.27314 0.77349 0.41016 0.0
C395 C 0.29399 0.83827 0.24542 0.0
O396 O 0.35895 0.85535 0.26125 0.0
O397 O 0.35233 0.85593 0.31179 0.0
O398 O 0.38321 0.81482 0.22573 0.0
O399 O 0.34422 0.78758 0.19416 0.0
O400 O 0.3592 0.76467 0.26474 0.0
O401 O 0.35744 0.80569 0.29568 0.0
O402 O 0.30073 0.76059 0.27776 0.0
O403 O 0.3065 0.75963 0.22707 0.0
O404 O 0.27576 0.79685 0.31273 0.0
O405 O 0.31213 0.83164 0.34315 0.0
O406 O 0.29941 0.85235 0.27494 0.0
O407 O 0.30036 0.81176 0.24257 0.0
H408 H 0.36859 0.79065 0.13343 0.0
H409 H 0.38038 0.86899 0.21383 0.0
H410 H 0.3773 0.90503 0.17919 0.0
H411 H 0.36524 0.82704 0.09834 0.0
H412 H 0.25926 0.80983 0.39167 0.0
H413 H 0.31586 0.76583 0.3405 0.0
H414 H 0.3179 0.732 0.37817 0.0
H415 H 0.26131 0.7759 0.42969 0.0
Gd416 Gd 0.61236 0.05994 0.52223 0.0
Gd417 Gd 0.55113 0.05557 0.53812 0.0
C418 C 0.5655 0.9898 0.51008 0.0
C419 C 0.66349 0.05371 0.51859 0.0
C420 C 0.68174 0.03273 0.52603 0.0
C421 C 0.68318 1.00622 0.50319 0.0
C422 C 0.69973 0.04057 0.55529 0.0
C423 C 0.72056 0.9964 0.53845 0.0
C424 C 0.71878 0.02257 0.56147 0.0
C425 C 0.70236 0.9883 0.50932 0.0
C426 C 0.57588 0.07285 0.47914 0.0
C427 C 0.59772 0.12572 0.54951 0.0
C428 C 0.50025 0.06104 0.54482 0.0
C429 C 0.48048 0.08101 0.54036 0.0
C430 C 0.46169 0.0845 0.56209 0.0
C431 C 0.47791 0.09386 0.51352 0.0
C432 C 0.43614 0.11029 0.52889 0.0
C433 C 0.4559 0.10851 0.50788 0.0
C434 C 0.43976 0.09895 0.55643 0.0
C435 C 0.58813 0.04201 0.58032 0.0
O436 O 0.59282 1.00637 0.51728 0.0
O437 O 0.5447 1.0043 0.51222 0.0
O438 O 0.64223 0.04193 0.49509 0.0
O439 O 0.65705 0.07211 0.54243 0.0
O440 O 0.60323 0.08598 0.4843 0.0
O441 O 0.56988 0.0518 0.49469 0.0
O442 O 0.57038 0.10916 0.54264 0.0
O443 O 0.61847 0.1112 0.54727 0.0
O444 O 0.52215 0.07266 0.56756 0.0
O445 O 0.50625 0.04451 0.51947 0.0
O446 O 0.56092 0.02817 0.57485 0.0
O447 O 0.59349 0.06351 0.56528 0.0
H448 H 0.67001 0.99979 0.48022 0.0
H449 H 0.69959 0.06113 0.57326 0.0
H450 H 0.73245 0.02941 0.58416 0.0
H451 H 0.70363 0.96877 0.49079 0.0
H452 H 0.46321 0.07478 0.58289 0.0
H453 H 0.49218 0.0915 0.49638 0.0
H454 H 0.45345 0.11696 0.48642 0.0
H455 H 0.42484 0.10013 0.57301 0.0
Gd456 Gd 0.2986 0.318 0.77702 0.0
Gd457 Gd 0.35481 0.29879 0.77902 0.0
C458 C 0.3356 0.32478 0.84547 0.0
C459 C 0.24647 0.32097 0.78036 0.0
C460 C 0.22275 0.31292 0.79843 0.0
C461 C 0.20948 0.33674 0.80987 0.0
C462 C 0.21296 0.28238 0.80438 0.0
C463 C 0.17687 0.29973 0.83259 0.0
C464 C 0.18997 0.27573 0.82102 0.0
C465 C 0.1869 0.33029 0.82689 0.0
C466 C 0.34088 0.37103 0.76989 0.0
C467 C 0.31612 0.28961 0.71095 0.0
C468 C 0.4078 0.29915 0.77705 0.0
C469 C 0.43295 0.31087 0.76215 0.0
C470 C 0.46016 0.32012 0.78047 0.0
C471 C 0.43076 0.30947 0.72955 0.0
C472 C 0.48266 0.32257 0.73359 0.0
C473 C 0.45548 0.31541 0.71539 0.0
C474 C 0.48474 0.32589 0.76637 0.0
C475 C 0.31291 0.24494 0.78441 0.0
O476 O 0.31032 0.32137 0.82907 0.0
O477 O 0.3573 0.3201 0.83113 0.0
O478 O 0.269 0.3434 0.79558 0.0
O479 O 0.25286 0.29782 0.76128 0.0
O480 O 0.31398 0.36887 0.7695 0.0
O481 O 0.34384 0.34374 0.77328 0.0
O482 O 0.34201 0.29408 0.72658 0.0
O483 O 0.29476 0.29437 0.72577 0.0
O484 O 0.38615 0.27726 0.75914 0.0
O485 O 0.40005 0.31982 0.79775 0.0
O486 O 0.34 0.24763 0.78553 0.0
O487 O 0.30944 0.27232 0.78172 0.0
H488 H 0.2166 0.36047 0.80558 0.0
H489 H 0.22308 0.26377 0.79634 0.0
H490 H 0.18268 0.252 0.82524 0.0
H491 H 0.17701 0.34912 0.83529 0.0
H492 H 0.46242 0.32134 0.80559 0.0
H493 H 0.41002 0.30245 0.71486 0.0
H494 H 0.45332 0.31261 0.69007 0.0
H495 H 0.50545 0.3315 0.78092 0.0
Gd496 Gd 0.07886 0.08879 0.54498 0.0
Gd497 Gd 0.08362 0.02694 0.51393 0.0
C498 C 0.05497 0.06364 0.46667 0.0
C499 C 0.08098 0.14903 0.55848 0.0
C500 C 0.08858 0.17342 0.53998 0.0
C501 C 0.08267 0.2031 0.54859 0.0
C502 C 0.10158 0.16689 0.5132 0.0
C503 C 0.10316 0.21974 0.50409 0.0
C504 C 0.10874 0.18979 0.49539 0.0
C505 C 0.08989 0.2261 0.53078 0.0
C506 C 0.03599 0.03977 0.55288 0.0
C507 C 0.10786 0.05187 0.59199 0.0
C508 C 0.07829 0.96607 0.49971 0.0
C509 C 0.06474 0.94165 0.51592 0.0
C510 C 0.06707 0.91027 0.50785 0.0
C511 C 0.04889 0.94989 0.53966 0.0
C512 C 0.03751 0.8955 0.5471 0.0
C513 C 0.03519 0.92704 0.55487 0.0
C514 C 0.05375 0.8874 0.5235 0.0
C515 C 0.12613 0.07539 0.50453 0.0
O516 O 0.06417 0.08824 0.49176 0.0
O517 O 0.05838 0.03545 0.47011 0.0
O518 O 0.05731 0.12665 0.54708 0.0
O519 O 0.10178 0.13759 0.56799 0.0
O520 O 0.04791 0.0656 0.57448 0.0
O521 O 0.04634 0.04218 0.52798 0.0
O522 O 0.09722 0.02712 0.56726 0.0
O523 O 0.10552 0.08046 0.58836 0.0
O524 O 0.10174 0.98677 0.51534 0.0
O525 O 0.06074 0.97966 0.48668 0.0
O526 O 0.11486 0.04853 0.4842 0.0
O527 O 0.11628 0.07397 0.52993 0.0
H528 H 0.07246 0.20847 0.56903 0.0
H529 H 0.1063 0.14409 0.50611 0.0
H530 H 0.11901 0.18424 0.47503 0.0
H531 H 0.08485 0.24875 0.5377 0.0
H532 H 0.07939 0.90356 0.48972 0.0
H533 H 0.04716 0.97412 0.54647 0.0
H534 H 0.02288 0.93413 0.57287 0.0
H535 H 0.05671 0.8636 0.5176 0.0
Gd536 Gd 0.35533 0.82918 0.77153 0.0
Gd537 Gd 0.30145 0.78254 0.77719 0.0
C538 C 0.35898 0.75334 0.77762 0.0
C539 C 0.40634 0.86631 0.78499 0.0
C540 C 0.43498 0.86184 0.78375 0.0
C541 C 0.4576 0.8876 0.78245 0.0
C542 C 0.44019 0.8323 0.78531 0.0
C543 C 0.49072 0.85496 0.78693 0.0
C544 C 0.46786 0.82888 0.78695 0.0
C545 C 0.48538 0.88421 0.78407 0.0
C546 C 0.32899 0.78824 0.71697 0.0
C547 C 0.29722 0.85782 0.76976 0.0
C548 C 0.25125 0.74379 0.7657 0.0
C549 C 0.22246 0.74744 0.76574 0.0
C550 C 0.19942 0.72188 0.74974 0.0
C551 C 0.21831 0.77774 0.77659 0.0
C552 C 0.16939 0.75821 0.75014 0.0
C553 C 0.19177 0.78313 0.7688 0.0
C554 C 0.17285 0.7272 0.74212 0.0
C555 C 0.32807 0.82368 0.83178 0.0
O556 O 0.37281 0.78406 0.77868 0.0
O557 O 0.33046 0.74681 0.77596 0.0
O558 O 0.39018 0.8615 0.75772 0.0
O559 O 0.3928 0.8539 0.80588 0.0
O560 O 0.34286 0.81771 0.71845 0.0
O561 O 0.33129 0.78277 0.74395 0.0
O562 O 0.28335 0.82707 0.76893 0.0
O563 O 0.32583 0.86447 0.7717 0.0
O564 O 0.26754 0.75126 0.79326 0.0
O565 O 0.26413 0.75512 0.74387 0.0
O566 O 0.31512 0.79389 0.83004 0.0
O567 O 0.3254 0.82913 0.80479 0.0
H568 H 0.45392 0.91056 0.78126 0.0
H569 H 0.42313 0.81215 0.78638 0.0
H570 H 0.47152 0.80616 0.78923 0.0
H571 H 0.50281 0.90487 0.78466 0.0
H572 H 0.20245 0.6984 0.74123 0.0
H573 H 0.23604 0.79766 0.78907 0.0
H574 H 0.18939 0.80717 0.7752 0.0
H575 H 0.15558 0.70764 0.72804 0.0
Gd576 Gd 0.57095 0.03582 0.05525 0.0
Gd577 Gd 0.57254 0.06897 1.00154 0.0
C578 C 0.51451 0.02325 1.00363 0.0
C579 C 0.55693 1.01323 0.10297 0.0
C580 C 0.53316 0.01463 0.12032 0.0
C581 C 0.53165 1.00235 0.14736 0.0
C582 C 0.51352 0.03123 0.11173 0.0
C583 C 0.4929 0.0262 0.15901 0.0
C584 C 0.49339 0.03684 0.13089 0.0
C585 C 0.51154 1.00804 0.1666 0.0
C586 C 0.59705 1.01031 0.00984 0.0
C587 C 0.62953 0.08081 0.05101 0.0
C588 C 0.58426 0.09569 0.95547 0.0
C589 C 0.6061 0.09739 0.93509 0.0
C590 C 0.60108 0.10691 0.90696 0.0
C591 C 0.63059 0.08703 0.942 0.0
C592 C 0.64376 0.09348 0.89128 0.0
C593 C 0.64943 0.08519 0.92019 0.0
C594 C 0.61974 0.10497 0.88519 0.0
C595 C 0.54828 0.09447 0.04943 0.0
O596 O 0.52508 0.02635 0.03334 0.0
O597 O 0.53081 0.0333 0.98366 0.0
O598 O 0.55013 0.99601 0.07402 0.0
O599 O 0.57516 0.04097 0.10559 0.0
O600 O 0.60267 1.01001 0.03925 0.0
O601 O 0.57528 0.02052 1.00484 0.0
O602 O 0.61851 0.07855 0.02167 0.0
O603 O 0.61427 0.06945 0.07131 0.0
O604 O 0.59283 0.11053 0.98504 0.0
O605 O 0.56666 0.06739 0.9517 0.0
O606 O 0.54015 0.09341 0.02015 0.0
O607 O 0.57017 0.08441 0.05213 0.0
H608 H 0.54678 0.98964 0.15429 0.0
H609 H 0.51458 0.04107 0.09099 0.0
H610 H 0.47896 0.05052 0.12439 0.0
H611 H 0.51159 0.99973 0.18829 0.0
H612 H 0.58214 0.11471 0.90128 0.0
H613 H 0.63461 0.07938 0.96367 0.0
H614 H 0.66793 0.07655 0.92554 0.0
H615 H 0.61461 0.1111 0.86291 0.0
Gd616 Gd 0.35041 0.33464 0.29579 0.0
Gd617 Gd 0.30191 0.26953 0.26106 0.0
C618 C 0.28306 0.33046 0.29463 0.0
C619 C 0.38027 0.39252 0.30464 0.0
C620 C 0.36905 0.41631 0.29227 0.0
C621 C 0.37596 0.44834 0.30887 0.0
C622 C 0.34604 0.40487 0.26736 0.0
C623 C 0.33522 0.45585 0.27733 0.0
C624 C 0.3295 0.4245 0.25973 0.0
C625 C 0.35908 0.46822 0.30128 0.0
C626 C 0.33702 0.29661 0.33783 0.0
C627 C 0.36906 0.27321 0.26291 0.0
C628 C 0.26891 0.21208 0.24762 0.0
C629 C 0.27642 0.18205 0.24898 0.0
C630 C 0.30259 0.17828 0.24059 0.0
C631 C 0.26078 0.16031 0.2644 0.0
C632 C 0.3014 0.13839 0.27141 0.0
C633 C 0.27318 0.13814 0.27535 0.0
C634 C 0.31494 0.15653 0.25169 0.0
C635 C 0.31583 0.30842 0.21925 0.0
O636 O 0.30923 0.34868 0.29665 0.0
O637 O 0.27521 0.29929 0.28291 0.0
O638 O 0.36637 0.38201 0.3261 0.0
O639 O 0.38439 0.36941 0.28332 0.0
O640 O 0.35665 0.32359 0.34432 0.0
O641 O 0.32731 0.29078 0.30859 0.0
O642 O 0.3429 0.25474 0.26072 0.0
O643 O 0.37664 0.30454 0.27374 0.0
O644 O 0.27932 0.22648 0.22631 0.0
O645 O 0.27179 0.23185 0.27497 0.0
O646 O 0.29615 0.2816 0.21293 0.0
O647 O 0.32547 0.31358 0.2484 0.0
H648 H 0.39312 0.45729 0.32878 0.0
H649 H 0.33925 0.37993 0.25543 0.0
H650 H 0.31111 0.4146 0.24124 0.0
H651 H 0.3636 0.49247 0.31511 0.0
H652 H 0.31491 0.19419 0.22809 0.0
H653 H 0.24044 0.16267 0.27083 0.0
H654 H 0.26229 0.12401 0.29027 0.0
H655 H 0.3364 0.15628 0.2476 0.0
Gd656 Gd 0.57962 0.59123 0.04493 0.0
Gd657 Gd 0.58195 0.51991 0.01242 0.0
C658 C 0.55269 0.56053 0.96708 0.0
C659 C 0.59176 0.65282 0.05906 0.0
C660 C 0.60125 0.67713 0.04095 0.0
C661 C 0.60622 0.70965 0.05485 0.0
C662 C 0.60445 0.66791 0.00928 0.0
C663 C 0.61787 0.72361 1.00563 0.0
C664 C 0.61279 0.69091 0.99182 0.0
C665 C 0.61432 0.7327 0.03732 0.0
C666 C 0.53408 0.54506 0.0537 0.0
C667 C 0.60803 0.54973 0.09028 0.0
C668 C 0.56846 0.45845 0.99691 0.0
C669 C 0.55576 0.43398 0.01349 0.0
C670 C 0.56395 0.40542 0.00991 0.0
C671 C 0.53716 0.44002 0.03489 0.0
C672 C 0.536 0.38975 0.04998 0.0
C673 C 0.527 0.4179 0.0526 0.0
C674 C 0.55421 0.3835 0.02805 0.0
C675 C 0.62727 0.56547 1.00224 0.0
O676 O 0.56101 0.586 0.99171 0.0
O677 O 0.55712 0.53245 0.97047 0.0
O678 O 0.5657 0.63448 0.04917 0.0
O679 O 0.61012 0.63692 0.06608 0.0
O680 O 0.53846 0.57538 0.06593 0.0
O681 O 0.55453 0.54242 0.03914 0.0
O682 O 0.59848 0.52427 0.06581 0.0
O683 O 0.60511 0.57852 0.087 0.0
O684 O 0.59437 0.47578 0.00964 0.0
O685 O 0.55178 0.47534 0.98777 0.0
O686 O 0.62295 0.53485 0.9918 0.0
O687 O 0.60715 0.56906 0.01724 0.0
H688 H 0.6035 0.71719 0.07914 0.0
H689 H 0.60043 0.64288 0.998 0.0
H690 H 0.61537 0.68311 0.96753 0.0
H691 H 0.61732 0.75761 0.04843 0.0
H692 H 0.57854 0.4005 0.99377 0.0
H693 H 0.53103 0.46218 0.03849 0.0
H694 H 0.51247 0.42313 0.06868 0.0
H695 H 0.5617 0.36214 0.02564 0.0
Gd696 Gd 0.85107 0.32557 0.26366 0.0
Gd697 Gd 0.80123 0.28214 0.27865 0.0
C698 C 0.85858 0.2529 0.275 0.0
C699 C 0.90082 0.36336 0.26729 0.0
C700 C 0.92893 0.35878 0.26381 0.0
C701 C 0.95301 0.38425 0.27681 0.0
C702 C 0.93197 0.32809 0.25208 0.0
C703 C 0.98275 0.34765 0.27037 0.0
C704 C 0.95893 0.32253 0.25539 0.0
C705 C 0.9799 0.3787 0.28003 0.0
C706 C 0.82031 0.28085 0.21294 0.0
C707 C 0.79419 0.35534 0.26727 0.0
C708 C 0.75122 0.24599 0.27785 0.0
C709 C 0.72457 0.25302 0.28483 0.0
C710 C 0.72414 0.28481 0.29611 0.0
C711 C 0.69893 0.22894 0.27534 0.0
C712 C 0.67264 0.26916 0.28273 0.0
C713 C 0.67299 0.23696 0.27451 0.0
C714 C 0.69825 0.29293 0.29471 0.0
C715 C 0.83237 0.32635 0.32933 0.0
O716 O 0.87143 0.2832 0.27346 0.0
O717 O 0.83031 0.24623 0.27557 0.0
O718 O 0.88184 0.35428 0.24159 0.0
O719 O 0.89089 0.35447 0.29174 0.0
O720 O 0.83249 0.31006 0.21172 0.0
O721 O 0.82591 0.27748 0.24042 0.0
O722 O 0.7813 0.32538 0.26983 0.0
O723 O 0.82215 0.36128 0.26536 0.0
O724 O 0.77177 0.25318 0.3019 0.0
O725 O 0.75976 0.25511 0.25287 0.0
O726 O 0.82127 0.29671 0.32988 0.0
O727 O 0.8263 0.33008 0.30203 0.0
H728 H 0.95083 0.40795 0.28616 0.0
H729 H 0.91341 0.3082 0.24202 0.0
H730 H 0.96102 0.29851 0.24777 0.0
H731 H 0.99826 0.39822 0.29183 0.0
H732 H 0.74386 0.30361 0.30383 0.0
H733 H 0.69903 0.20434 0.26646 0.0
H734 H 0.6534 0.21838 0.26475 0.0
H735 H 0.69832 0.31788 0.3009 0.0
Gd736 Gd 0.07112 0.54039 0.55125 0.0
Gd737 Gd 0.07168 0.57455 0.50004 0.0
C738 C 0.01318 0.53207 0.50387 0.0
C739 C 0.05969 0.51313 0.59713 0.0
C740 C 0.03591 0.50846 0.61499 0.0
C741 C 0.0415 0.50852 0.64698 0.0
C742 C 1.00828 0.50746 0.60134 0.0
C743 C 0.99308 0.51076 0.65237 0.0
C744 C 0.98698 0.50887 0.62004 0.0
C745 C 0.02011 0.50953 0.6656 0.0
C746 C 0.09476 0.51428 0.50345 0.0
C747 C 0.12967 0.58363 0.54565 0.0
C748 C 0.0816 0.60419 0.45559 0.0
C749 C 0.10163 0.60695 0.43334 0.0
C750 C 0.09989 0.627 0.41263 0.0
C751 C 0.11992 0.58688 0.42999 0.0
C752 C 0.13089 0.603 0.38196 0.0
C753 C 0.13444 0.58479 0.40423 0.0
C754 C 0.11457 0.62514 0.38707 0.0
C755 C 0.04906 0.60046 0.54914 0.0
O756 O 0.02483 0.53376 0.53287 0.0
O757 O 0.02914 0.54022 0.48296 0.0
O758 O 0.05419 0.49764 0.56759 0.0
O759 O 0.0747 0.54281 0.60133 0.0
O760 O 0.10273 0.51577 0.53285 0.0
O761 O 0.07296 0.52481 0.49984 0.0
O762 O 0.11787 0.58048 0.51644 0.0
O763 O 0.11446 0.57446 0.5669 0.0
O764 O 0.09222 0.61711 0.48518 0.0
O765 O 0.06374 0.57592 0.45115 0.0
O766 O 0.04027 0.59919 0.52006 0.0
O767 O 0.07087 0.59006 0.55139 0.0
H768 H 0.06272 0.50935 0.65785 0.0
H769 H 1.0035 0.50687 0.57656 0.0
H770 H 0.96613 0.50968 0.60963 0.0
H771 H 0.02514 0.51129 0.69067 0.0
H772 H 0.08589 0.64269 0.41517 0.0
H773 H 0.1215 0.57142 0.4461 0.0
H774 H 0.14665 0.56728 0.40051 0.0
H775 H 0.11173 0.63949 0.37018 0.0
Gd776 Gd 0.7977 0.81545 0.2758 0.0
Gd777 Gd 0.85455 0.79749 0.27586 0.0
C778 C 0.83617 0.82162 0.34312 0.0
C779 C 0.7451 0.81626 0.27921 0.0
C780 C 0.72052 0.80405 0.29456 0.0
C781 C 0.69315 0.80422 0.2814 0.0
C782 C 0.72413 0.795 0.32341 0.0
C783 C 0.67329 0.78764 0.32623 0.0
C784 C 0.70073 0.7869 0.33913 0.0
C785 C 0.66982 0.79623 0.29707 0.0
C786 C 0.83869 0.86965 0.26876 0.0
C787 C 0.81464 0.788 0.2089 0.0
C788 C 0.90737 0.79811 0.27158 0.0
C789 C 0.93168 0.80945 0.25498 0.0
C790 C 0.93408 0.79165 0.22543 0.0
C791 C 0.95461 0.83578 0.27035 0.0
C792 C 0.98284 0.8241 0.22882 0.0
C793 C 0.97979 0.84314 0.25735 0.0
C794 C 0.9593 0.79898 0.21248 0.0
C795 C 0.81326 0.7432 0.28216 0.0
O796 O 0.81036 0.81725 0.32746 0.0
O797 O 0.85792 0.81872 0.32809 0.0
O798 O 0.7672 0.83699 0.29756 0.0
O799 O 0.75223 0.79598 0.25751 0.0
O800 O 0.81176 0.86667 0.26923 0.0
O801 O 0.8425 0.84246 0.27142 0.0
O802 O 0.84091 0.79363 0.2239 0.0
O803 O 0.79336 0.79149 0.22442 0.0
O804 O 0.88539 0.77554 0.25519 0.0
O805 O 0.90007 0.81903 0.2925 0.0
O806 O 0.84024 0.7459 0.28197 0.0
O807 O 0.80976 0.77057 0.27978 0.0
H808 H 0.68996 0.81154 0.25938 0.0
H809 H 0.74509 0.79475 0.334 0.0
H810 H 0.70413 0.78034 0.3615 0.0
H811 H 0.64922 0.79788 0.28681 0.0
H812 H 0.91696 0.77109 0.21289 0.0
H813 H 0.9536 0.84995 0.29314 0.0
H814 H 0.99733 0.86307 0.27024 0.0
H815 H 0.96095 0.78384 0.1905 0.0
Gd816 Gd 0.84244 0.30128 0.74488 0.0
Gd817 Gd 0.81058 0.30997 0.79382 0.0
C818 C 0.85908 0.36863 0.79295 0.0
C819 C 0.87127 0.30884 0.69942 0.0
C820 C 0.87616 0.33493 0.68302 0.0
C821 C 0.89507 0.3364 0.66111 0.0
C822 C 0.86058 0.35777 0.68821 0.0
C823 C 0.88041 0.38142 0.64729 0.0
C824 C 0.86278 0.38095 0.67058 0.0
C825 C 0.89712 0.35953 0.6432 0.0
C826 C 0.86335 0.27942 0.79477 0.0
C827 C 0.79593 0.24136 0.74586 0.0
C828 C 0.78261 0.3041 0.84032 0.0
C829 C 0.77913 0.28066 0.8601 0.0
C830 C 0.78147 0.29131 0.89276 0.0
C831 C 0.77732 0.24844 0.84725 0.0
C832 C 0.78301 0.23857 0.89975 0.0
C833 C 0.7793 0.22756 0.86694 0.0
C834 C 0.78337 0.2704 0.91247 0.0
C835 C 0.79044 0.33355 0.74502 0.0
O836 O 0.85489 0.35441 0.76302 0.0
O837 O 0.84574 0.35442 0.81279 0.0
O838 O 0.88303 0.31656 0.72892 0.0
O839 O 0.8448 0.2917 0.69501 0.0
O840 O 0.85977 0.26508 0.76535 0.0
O841 O 0.85493 0.30454 0.79643 0.0
O842 O 0.79794 0.2564 0.77538 0.0
O843 O 0.80955 0.25555 0.72624 0.0
O844 O 0.77071 0.29365 0.81085 0.0
O845 O 0.80851 0.32238 0.8437 0.0
O846 O 0.79418 0.34709 0.77465 0.0
O847 O 0.79817 0.30782 0.74232 0.0
H848 H 0.90729 0.31896 0.65698 0.0
H849 H 0.84558 0.35672 0.70477 0.0
H850 H 0.84915 0.39702 0.67362 0.0
H851 H 0.91069 0.3594 0.62514 0.0
H852 H 0.78307 0.31612 0.90309 0.0
H853 H 0.77558 0.23962 0.82212 0.0
H854 H 0.77935 0.20327 0.85656 0.0
H855 H 0.78601 0.27934 0.93774 0.0
Gd856 Gd 0.85279 0.83199 0.79411 0.0
Gd857 Gd 0.80449 0.77347 0.75873 0.0
C858 C 0.78852 0.83255 0.79678 0.0
C859 C 0.8873 0.88818 0.80409 0.0
C860 C 0.88143 0.91664 0.7947 0.0
C861 C 0.87208 0.93845 0.81621 0.0
C862 C 0.87898 0.91844 0.76286 0.0
C863 C 0.85128 0.957 0.77305 0.0
C864 C 0.86373 0.93823 0.75204 0.0
C865 C 0.85697 0.95836 0.80543 0.0
C866 C 0.83588 0.79605 0.83685 0.0
C867 C 0.87066 0.76924 0.76678 0.0
C868 C 0.77152 0.71655 0.73668 0.0
C869 C 0.77905 0.68619 0.73647 0.0
C870 C 0.80424 0.68198 0.72549 0.0
C871 C 0.76591 0.66577 0.7547 0.0
C872 C 0.80788 0.64589 0.75971 0.0
C873 C 0.78018 0.64526 0.76597 0.0
C874 C 0.8187 0.66215 0.73727 0.0
C875 C 0.81926 0.81907 0.72467 0.0
O876 O 0.81325 0.84952 0.79232 0.0
O877 O 0.78108 0.80116 0.78897 0.0
O878 O 0.87264 0.87822 0.82526 0.0
O879 O 0.88821 0.8646 0.78125 0.0
O880 O 0.85632 0.82228 0.84338 0.0
O881 O 0.82624 0.79006 0.80767 0.0
O882 O 0.84332 0.75452 0.7569 0.0
O883 O 0.88001 0.79935 0.78222 0.0
O884 O 0.78414 0.73414 0.71874 0.0
O885 O 0.77166 0.73335 0.76482 0.0
O886 O 0.79324 0.80326 0.72532 0.0
O887 O 0.83612 0.8102 0.74297 0.0
H888 H 0.87414 0.9381 0.84099 0.0
H889 H 0.88674 0.9027 0.74583 0.0
H890 H 0.85968 0.93675 0.72694 0.0
H891 H 0.84797 0.97312 0.82213 0.0
H892 H 0.81451 0.69663 0.71065 0.0
H893 H 0.7463 0.66827 0.76312 0.0
H894 H 0.77116 0.63209 0.7826 0.0
H895 H 0.83967 0.66203 0.73129 0.0
Gd896 Gd 0.55642 0.53706 0.51016 0.0
Gd897 Gd 0.59394 0.57538 0.54721 0.0
C898 C 0.55814 0.61043 0.51154 0.0
C899 C 0.50761 0.5048 0.47634 0.0
C900 C 0.47887 0.50499 0.48302 0.0
C901 C 0.45857 0.50808 0.45956 0.0
C902 C 0.47356 0.50857 0.51424 0.0
C903 C 0.43006 0.5229 0.49928 0.0
C904 C 0.44924 0.51729 0.52226 0.0
C905 C 0.43422 0.51695 0.46764 0.0
C906 C 0.6024 0.54292 0.47486 0.0
C907 C 0.59349 0.50288 0.54588 0.0
C908 C 0.64308 0.60632 0.58068 0.0
C909 C 0.67137 0.60375 0.57399 0.0
C910 C 0.68909 0.59472 0.59585 0.0
C911 C 0.67801 0.60331 0.54346 0.0
C912 C 0.71711 0.5805 0.55543 0.0
C913 C 0.70077 0.59184 0.5343 0.0
C914 C 0.71176 0.58299 0.58657 0.0
C915 C 0.54785 0.57094 0.58247 0.0
O916 O 0.54054 0.58186 0.50797 0.0
O917 O 0.58435 0.61406 0.5246 0.0
O918 O 0.52236 0.5318 0.47198 0.0
O919 O 0.52256 0.49282 0.49471 0.0
O920 O 0.58548 0.51673 0.47801 0.0
O921 O 0.59592 0.56556 0.49371 0.0
O922 O 0.61072 0.53125 0.54791 0.0
O923 O 0.5669 0.49896 0.5338 0.0
O924 O 0.62714 0.58052 0.58624 0.0
O925 O 0.62899 0.61861 0.56172 0.0
O926 O 0.56618 0.59651 0.58013 0.0
O927 O 0.55354 0.54775 0.56342 0.0
H928 H 0.46248 0.50571 0.43543 0.0
H929 H 0.48912 0.50677 0.53285 0.0
H930 H 0.44648 0.52183 0.54681 0.0
H931 H 0.41939 0.52071 0.44949 0.0
H932 H 0.68408 0.59446 0.61934 0.0
H933 H 0.66443 0.60957 0.52589 0.0
H934 H 0.70425 0.58966 0.51003 0.0
H935 H 0.72417 0.57429 0.60318 0.0
Gd936 Gd 0.11584 0.56403 0.0135 0.0
Gd937 Gd 0.05438 0.56031 0.02888 0.0
C938 C 0.0687 0.49404 1.00217 0.0
C939 C 0.16709 0.55808 0.0097 0.0
C940 C 0.1857 0.5377 0.01692 0.0
C941 C 0.21298 0.54355 1.00825 0.0
C942 C 0.17732 0.51354 0.0333 0.0
C943 C 0.22376 0.50179 0.03264 0.0
C944 C 0.1962 0.49571 0.0411 0.0
C945 C 0.2318 0.52586 0.01603 0.0
C946 C 0.0805 0.57939 0.97103 0.0
C947 C 0.10204 0.63003 0.04302 0.0
C948 C 1.00325 0.56617 0.03345 0.0
C949 C 0.98358 0.58574 0.02619 0.0
C950 C 0.97649 0.60666 0.05077 0.0
C951 C 0.96913 0.581 0.99539 0.0
C952 C 0.93913 0.61509 0.0145 0.0
C953 C 0.94721 0.59557 0.98963 0.0
C954 C 0.95462 0.62132 0.04495 0.0
C955 C 0.09085 0.54619 0.07119 0.0
O956 O 0.09603 0.51059 1.00867 0.0
O957 O 0.04796 0.50865 1.00411 0.0
O958 O 0.14562 0.54553 0.98655 0.0
O959 O 0.16048 0.57583 0.03385 0.0
O960 O 0.10802 0.59126 0.97633 0.0
O961 O 0.07361 0.55767 0.98571 0.0
O962 O 0.07454 0.61409 0.03537 0.0
O963 O 0.12237 0.61492 0.04009 0.0
O964 O 0.02496 0.57915 0.05629 0.0
O965 O 1.00946 0.54745 0.00968 0.0
O966 O 0.06352 0.53304 0.06605 0.0
O967 O 0.09647 0.56754 0.0561 0.0
H968 H 0.21989 0.56211 0.99568 0.0
H969 H 0.1564 0.50879 0.04039 0.0
H970 H 0.18947 0.47768 0.05431 0.0
H971 H 0.25274 0.531 0.00897 0.0
H972 H 0.98701 0.61061 0.07477 0.0
H973 H 0.97387 0.565 0.97584 0.0
H974 H 0.93583 0.5906 0.96586 0.0
H975 H 0.94874 0.63612 0.0646 0.0
C976 C 0.05889 0.19642 0.9973 0.0
C977 C 0.03453 0.19117 0.97444 0.0
C978 C 0.06623 0.17115 0.00896 0.0
C979 C 0.04928 0.13915 0.99908 0.0
H980 H 0.07306 0.22027 1.00565 0.0
H981 H 0.08558 0.17682 0.02587 0.0
S982 S 0.98231 0.11214 0.94088 0.0
N983 N 0.99306 0.15096 0.94297 0.0
N984 N 1.00615 0.10414 0.96551 0.0
C985 C 0.02437 0.13367 0.97695 0.0
C986 C 0.01724 0.15933 0.96452 0.0
C987 C 0.23911 0.83139 0.1721 0.0
C988 C 0.22539 0.85548 0.18219 0.0
C989 C 0.26162 0.82626 0.1921 0.0
C990 C 0.27182 0.84536 0.22291 0.0
H991 H 0.23166 0.81551 0.14902 0.0
H992 H 0.2707 0.80677 0.18354 0.0
S993 S 0.24501 0.91369 0.25947 0.0
N994 N 0.22487 0.89956 0.2245 0.0
N995 N 0.26726 0.89106 0.26125 0.0
C996 C 0.25904 0.87044 0.23255 0.0
C997 C 0.23587 0.87515 0.21251 0.0
C998 C 0.52624 0.90502 0.46305 0.0
C999 C 0.54489 0.88642 0.46968 0.0
C1000 C 0.53244 0.9379 0.47728 0.0
C1001 C 0.55807 0.95406 0.49812 0.0
H1002 H 0.50704 0.89423 0.44582 0.0
H1003 H 0.51757 0.95105 0.47067 0.0
S1004 S 0.61382 0.91618 0.52429 0.0
N1005 N 0.58961 0.88647 0.49956 0.0
N1006 N 0.60167 0.94813 0.52577 0.0
C1007 C 0.57661 0.93553 0.50559 0.0
C1008 C 0.56996 0.90185 0.49151 0.0
C1009 C 0.54471 0.34543 0.68836 0.0
C1010 C 0.56075 0.3237 0.69331 0.0
C1011 C 0.51902 0.34475 0.70075 0.0
C1012 C 0.5086 0.32236 0.71849 0.0
H1013 H 0.55242 0.36358 0.67561 0.0
H1014 H 0.50765 0.36231 0.69714 0.0
S1015 S 0.53996 0.25748 0.73429 0.0
N1016 N 0.56228 0.27704 0.71453 0.0
N1017 N 0.51459 0.27617 0.73765 0.0
C1018 C 0.5237 0.29975 0.72232 0.0
C1019 C 0.54959 0.30031 0.7098 0.0
C1020 C 0.01833 0.85915 0.61636 0.0
C1021 C 1.00552 0.82669 0.6022 0.0
C1022 C 0.02784 0.88126 0.59828 0.0
C1023 C 0.02469 0.87195 0.56522 0.0
H1024 H 0.0225 0.86736 0.64178 0.0
H1025 H 0.03887 0.90558 0.6105 0.0
S1026 S 0.98837 0.7909 0.51624 0.0
N1027 N 0.98753 0.78696 0.55288 0.0
N1028 N 1.00467 0.82881 0.51881 0.0
C1029 C 0.01027 0.84 0.55059 0.0
C1030 C 1.00079 0.81735 0.56907 0.0
C1031 C 0.55732 0.84652 0.83213 0.0
C1032 C 0.5788 0.86023 0.81606 0.0
C1033 C 0.52854 0.84304 0.82133 0.0
C1034 C 0.52031 0.853 0.79406 0.0
H1035 H 0.56276 0.84034 0.8543 0.0
H1036 H 0.51283 0.83435 0.83553 0.0
S1037 S 0.56749 0.88392 0.73988 0.0
N1038 N 0.58942 0.87917 0.76882 0.0
N1039 N 0.53508 0.87252 0.74867 0.0
C1040 C 0.54121 0.86409 0.77629 0.0
C1041 C 0.57055 0.86764 0.78722 0.0
C1042 C 0.54463 0.1374 0.13173 0.0
C1043 C 0.52367 0.1535 0.12623 0.0
C1044 C 0.55163 0.11699 0.10688 0.0
C1045 C 0.53769 0.11185 0.07585 0.0
H1046 H 0.55692 0.14205 0.15501 0.0
H1047 H 0.56892 0.10634 0.11181 0.0
S1048 S 0.47701 0.14286 0.05041 0.0
N1049 N 0.48617 0.15925 0.08847 0.0
N1050 N 0.49895 0.12039 0.04182 0.0
C1051 C 0.51493 0.12547 0.07058 0.0
C1052 C 0.50801 0.14648 0.09579 0.0
C1053 C 0.21262 0.34226 0.31355 0.0
C1054 C 0.21986 0.36019 0.34495 0.0
C1055 C 0.2335 0.33427 0.29655 0.0
C1056 C 0.2624 0.34468 0.31002 0.0
H1057 H 0.19049 0.33292 0.30243 0.0
H1058 H 0.2269 0.31891 0.27312 0.0
S1059 S 0.29293 0.39504 0.39007 0.0
N1060 N 0.25808 0.39001 0.38803 0.0
N1061 N 0.29766 0.3757 0.35563 0.0
C1062 C 0.2702 0.36437 0.34061 0.0
C1063 C 0.24881 0.37191 0.35825 0.0
C1064 C 1.00032 0.09422 0.14761 0.0
C1065 C 1.00249 0.07478 0.1698 0.0
C1066 C 0.01474 0.09321 0.12017 0.0
C1067 C 0.03179 0.07176 0.11131 0.0
H1068 H 0.98767 0.11119 0.15178 0.0
H1069 H 0.01222 0.10966 0.10542 0.0
S1070 S 0.04487 0.0145 0.15972 0.0
N1071 N 0.02428 0.03296 0.17957 0.0
N1072 N 0.04929 0.03009 0.12864 0.0
C1073 C 0.03369 0.05171 0.13287 0.0
C1074 C 0.0198 0.05346 0.16144 0.0
C1075 C 0.29239 0.68192 0.44421 0.0
C1076 C 0.3021 0.69696 0.47622 0.0
C1077 C 0.28822 0.69972 0.42183 0.0
C1078 C 0.29328 0.73308 0.43078 0.0
H1079 H 0.28801 0.65622 0.43633 0.0
H1080 H 0.28085 0.68732 0.39738 0.0
S1081 S 0.31936 0.78417 0.51119 0.0
N1082 N 0.31696 0.74746 0.51553 0.0
N1083 N 0.30906 0.78067 0.47328 0.0
C1084 C 0.30296 0.74845 0.46257 0.0
C1085 C 0.30743 0.73045 0.48533 0.0
C1086 C 0.66028 0.04162 0.62044 0.0
C1087 C 0.65438 1.01321 0.63118 0.0
C1088 C 0.63858 0.05056 0.60399 0.0
C1089 C 0.61033 0.03115 0.59715 0.0
H1090 H 0.6814 0.05815 0.62665 0.0
H1091 H 0.6438 0.0735 0.5977 0.0
S1092 S 0.58441 0.95313 0.61812 0.0
N1093 N 0.61874 0.96513 0.63312 0.0
N1094 N 0.57795 0.9812 0.60073 0.0
C1095 C 0.60437 1.00199 0.60662 0.0
C1096 C 0.62644 0.99318 0.62395 0.0
C1097 C 0.31878 0.3546 0.92782 0.0
C1098 C 0.34508 0.36213 0.94789 0.0
C1099 C 0.31584 0.34131 0.89533 0.0
C1100 C 0.33925 0.33546 0.88094 0.0
H1101 H 0.30044 0.36024 0.93714 0.0
H1102 H 0.29508 0.33677 0.88123 0.0
S1103 S 0.41305 0.35079 0.92336 0.0
N1104 N 0.39499 0.36223 0.9513 0.0
N1105 N 0.38983 0.33763 0.89034 0.0
C1106 C 0.36562 0.34203 0.90103 0.0
C1107 C 0.36845 0.35529 0.93436 0.0
C1108 C 0.02096 0.04367 0.37658 0.0
C1109 C 0.01328 0.07128 0.37021 0.0
C1110 C 0.03382 0.04169 0.40688 0.0
C1111 C 0.04078 0.06732 0.43395 0.0
H1112 H 0.01681 0.02263 0.35761 0.0
H1113 H 0.03854 0.01941 0.4089 0.0
S1114 S 0.02667 0.14635 0.4321 0.0
N1115 N 0.01451 0.12562 0.39547 0.0
N1116 N 0.03881 0.12233 0.4513 0.0
C1117 C 0.03348 0.09539 0.42819 0.0
C1118 C 0.01987 0.09725 0.3971 0.0
C1119 C 0.31377 0.70358 0.67131 0.0
C1120 C 0.32796 0.70616 0.64524 0.0
C1121 C 0.31255 0.73065 0.6929 0.0
C1122 C 0.32581 0.76156 0.68977 0.0
H1123 H 0.30317 0.68044 0.67509 0.0
H1124 H 0.30179 0.7272 0.71287 0.0
S1125 S 0.36533 0.78192 0.62555 0.0
N1126 N 0.35503 0.74246 0.61699 0.0
N1127 N 0.35319 0.79353 0.65843 0.0
C1128 C 0.33974 0.76479 0.66367 0.0
C1129 C 0.34086 0.73705 0.64134 0.0
C1130 C 0.67627 0.10316 0.81869 0.0
C1131 C 0.67819 0.07215 0.80634 0.0
C1132 C 0.668 0.11092 0.84811 0.0
C1133 C 0.66079 0.0877 0.86582 0.0
H1134 H 0.67959 0.12101 0.80469 0.0
H1135 H 0.66526 0.13463 0.85606 0.0
S1136 S 0.66594 1.00405 0.84513 0.0
N1137 N 0.67568 0.01917 0.81507 0.0
N1138 N 0.65909 0.03329 0.87029 0.0
C1139 C 0.66509 0.05734 0.85488 0.0
C1140 C 0.67398 0.04962 0.82501 0.0
C1141 C 0.3596 0.36527 0.17327 0.0
C1142 C 0.34309 0.35601 0.14274 0.0
C1143 C 0.3512 0.35025 0.19809 0.0
C1144 C 0.32528 0.32617 0.19402 0.0
H1145 H 0.37949 0.38388 0.17788 0.0
H1146 H 0.3654 0.35725 0.22038 0.0
S1147 S 0.27376 0.29377 0.11905 0.0
N1148 N 0.29954 0.32085 0.11035 0.0
N1149 N 0.28325 0.29423 0.15642 0.0
C1150 C 0.3086 0.3171 0.16363 0.0
C1151 C 0.31751 0.33161 0.13833 0.0
C1152 C 0.24966 0.0186 0.03353 0.0
C1153 C 0.27238 0.03048 0.01812 0.0
C1154 C 0.23353 0.03829 0.04687 0.0
C1155 C 0.2393 0.07046 0.04497 0.0
H1156 H 0.24442 0.99396 0.03565 0.0
H1157 H 0.21597 0.02807 0.05819 0.0
S1158 S 0.29598 0.11321 1.00686 0.0
N1159 N 0.29981 0.07655 1.00169 0.0
N1160 N 0.26884 0.11345 0.02642 0.0
C1161 C 0.26174 0.0827 0.0295 0.0
C1162 C 0.27849 0.06274 0.01621 0.0
C1163 C 0.68089 0.64638 1.006 0.0
C1164 C 0.70102 0.63759 0.98759 0.0
C1165 C 0.65696 0.62325 0.01057 0.0
C1166 C 0.65189 0.59049 0.9966 0.0
H1167 H 0.68414 0.67113 0.01789 0.0
H1168 H 0.64272 0.63102 0.02567 0.0
S1169 S 0.69689 0.55527 0.94418 0.0
N1170 N 0.71326 0.59381 0.95405 0.0
N1171 N 0.66858 0.55098 0.96213 0.0
C1172 C 0.6714 0.58169 0.97733 0.0
C1173 C 0.69577 0.60502 0.97293 0.0
C1174 C 0.73399 0.40535 0.26954 0.0
C1175 C 0.7486 0.43838 0.27253 0.0
C1176 C 0.74803 0.37943 0.2679 0.0
C1177 C 0.77822 0.38363 0.26872 0.0
H1178 H 0.71103 0.39916 0.26859 0.0
H1179 H 0.73472 0.35551 0.26586 0.0
S1180 S 0.82789 0.46467 0.27698 0.0
N1181 N 0.79644 0.47243 0.27673 0.0
N1182 N 0.82181 0.4257 0.27342 0.0
C1183 C 0.79299 0.41654 0.27175 0.0
C1184 C 0.77874 0.44286 0.27367 0.0
C1185 C 0.93924 0.52022 0.45938 0.0
C1186 C 0.92385 0.52724 0.48392 0.0
C1187 C 0.96821 0.52128 0.46601 0.0
C1188 C 0.98239 0.52924 0.49732 0.0
H1189 H 0.92857 0.51252 0.43515 0.0
H1190 H 0.97943 0.51536 0.44656 0.0
S1191 S 0.95157 0.55385 0.56934 0.0
N1192 N 0.92478 0.54498 0.54005 0.0
N1193 N 0.97918 0.54759 0.5528 0.0
C1194 C 0.96723 0.53764 0.52189 0.0
C1195 C 0.93793 0.53654 0.51507 0.0
C1196 C 0.36386 0.13845 0.32948 0.0
C1197 C 0.36071 0.10581 0.32804 0.0
C1198 C 0.34362 0.14862 0.3122 0.0
C1199 C 0.31932 0.12663 0.29307 0.0
H1200 H 0.38311 0.15616 0.34214 0.0
H1201 H 0.34774 0.17388 0.3126 0.0
S1202 S 0.29817 0.03921 0.28558 0.0
N1203 N 0.32922 0.05179 0.30932 0.0
N1204 N 0.29105 0.07149 0.2769 0.0
C1205 C 0.31431 0.09435 0.29384 0.0
C1206 C 0.33503 0.08379 0.31143 0.0
C1207 C 0.38555 0.16191 0.51481 0.0
C1208 C 0.3585 0.14055 0.51283 0.0
C1209 C 0.41084 0.15192 0.51878 0.0
C1210 C 0.40981 0.12032 0.52088 0.0
H1211 H 0.38728 0.18673 0.51467 0.0
H1212 H 0.4313 0.16926 0.52146 0.0
S1213 S 0.34456 0.05403 0.51216 0.0
N1214 N 0.33249 0.0854 0.50966 0.0
N1215 N 0.3797 0.06712 0.5173 0.0
C1216 C 0.38295 0.09847 0.51711 0.0
C1217 C 0.35739 0.10845 0.51303 0.0
C1218 C 0.78265 0.65355 0.28682 0.0
C1219 C 0.7529 0.64882 0.28681 0.0
C1220 C 0.80127 0.68367 0.28551 0.0
C1221 C 0.79175 0.71153 0.28405 0.0
H1222 H 0.79182 0.63369 0.28771 0.0
H1223 H 0.82371 0.68501 0.28552 0.0
S1224 S 0.7161 0.71353 0.28345 0.0
N1225 N 0.71521 0.67638 0.28527 0.0
N1226 N 0.74978 0.73149 0.28283 0.0
C1227 C 0.76217 0.70729 0.28412 0.0
C1228 C 0.74311 0.67667 0.28548 0.0
C1229 C 0.89379 0.45532 0.83144 0.0
C1230 C 0.91929 0.46121 0.8184 0.0
C1231 C 0.87477 0.42476 0.82446 0.0
C1232 C 0.88054 0.39939 0.80394 0.0
H1233 H 0.88768 0.4747 0.84583 0.0
H1234 H 0.85478 0.42141 0.8337 0.0
S1235 S 0.94656 0.40014 0.76899 0.0
N1236 N 0.95116 0.43744 0.78818 0.0
N1237 N 0.91493 0.38037 0.77455 0.0
C1238 C 0.90682 0.4042 0.79286 0.0
C1239 C 0.9264 0.43504 0.80031 0.0
C1240 C 0.1372 0.94817 0.06901 0.0
C1241 C 0.11962 0.92937 0.08592 0.0
C1242 C 0.12916 0.97332 0.0574 0.0
C1243 C 0.10265 0.9802 0.06106 0.0
H1244 H 0.15764 0.94387 0.06524 0.0
H1245 H 0.14369 0.98715 0.04502 0.0
S1246 S 0.04836 0.93771 0.10267 0.0
N1247 N 0.07439 0.92002 0.1056 0.0
N1248 N 0.05888 0.96536 0.08279 0.0
C1249 C 0.0848 0.96118 0.07745 0.0
C1250 C 0.09334 0.93642 0.09007 0.0
C1251 C 0.92472 0.24998 0.83006 0.0
C1252 C 0.93692 0.2732 0.85814 0.0
C1253 C 0.89992 0.25101 0.81093 0.0
C1254 C 0.88633 0.2757 0.81858 0.0
H1255 H 0.93549 0.23196 0.82173 0.0
H1256 H 0.89228 0.2332 0.78899 0.0
S1257 S 0.90884 0.34158 0.89049 0.0
N1258 N 0.93265 0.32087 0.89329 0.0
N1259 N 0.88629 0.32288 0.85772 0.0
C1260 C 0.89747 0.29813 0.84748 0.0
C1261 C 0.92268 0.29694 0.86702 0.0
C1262 C 0.64055 0.21057 0.59229 0.0
C1263 C 0.62135 0.22946 0.58922 0.0
C1264 C 0.63301 0.17762 0.57845 0.0
C1265 C 0.60558 0.16152 0.56135 0.0
H1266 H 0.66153 0.22127 0.60633 0.0
H1267 H 0.64862 0.16445 0.5823 0.0
S1268 S 0.54745 0.20001 0.54512 0.0
N1269 N 0.57392 0.22974 0.56651 0.0
N1270 N 0.55942 0.16777 0.54097 0.0
C1271 C 0.58632 0.18027 0.55731 0.0
C1272 C 0.59427 0.21415 0.57102 0.0
C1273 C 0.62829 0.79275 0.39236 0.0
C1274 C 0.60075 0.77438 0.37732 0.0
C1275 C 0.65172 0.79619 0.37596 0.0
C1276 C 0.64863 0.78133 0.34383 0.0
H1277 H 0.63173 0.80523 0.41687 0.0
H1278 H 0.67225 0.81141 0.38834 0.0
S1279 S 0.58186 0.7276 0.29439 0.0
N1280 N 0.5723 0.73921 0.32889 0.0
N1281 N 0.61631 0.74527 0.29835 0.0
C1282 C 0.62146 0.76191 0.32883 0.0
C1283 C 0.59758 0.75852 0.34547 0.0
C1284 C 0.11095 0.25862 0.43401 0.0
C1285 C 0.12654 0.29038 0.44801 0.0
C1286 C 0.10352 0.23597 0.45226 0.0
C1287 C 0.11123 0.24419 0.48526 0.0
H1288 H 0.10428 0.25113 0.40873 0.0
H1289 H 0.09133 0.2119 0.44045 0.0
S1290 S 0.15327 0.32349 0.53355 0.0
N1291 N 0.15014 0.32848 0.4971 0.0
N1292 N 0.13628 0.28585 0.53112 0.0
C1293 C 0.12702 0.2757 0.49957 0.0
C1294 C 0.13466 0.29877 0.48104 0.0
C1295 C 0.62196 0.29552 0.2304 0.0
C1296 C 0.59535 0.28144 0.23807 0.0
C1297 C 0.64731 0.29401 0.24722 0.0
C1298 C 0.64679 0.27794 0.2719 0.0
H1299 H 0.62318 0.30647 0.21033 0.0
H1300 H 0.66731 0.3034 0.23936 0.0
S1301 S 0.58321 0.24103 0.30415 0.0
N1302 N 0.57028 0.25447 0.27468 0.0
N1303 N 0.61822 0.2506 0.30543 0.0
C1304 C 0.62061 0.26575 0.28129 0.0
C1305 C 0.59476 0.26784 0.2646 0.0
C1306 C 0.64935 0.96911 0.97454 0.0
C1307 C 0.64341 0.96811 0.94231 0.0
C1308 C 0.63476 0.98385 0.99606 0.0
C1309 C 0.61323 0.99761 0.98611 0.0
H1310 H 0.66465 0.9573 0.98305 0.0
H1311 H 0.63973 0.98328 0.02058 0.0
S1312 S 0.59105 1.00325 0.90435 0.0
N1313 N 0.61604 0.9839 0.90147 0.0
N1314 N 0.58798 1.01114 0.9421 0.0
C1315 C 0.60797 0.99812 0.95412 0.0
C1316 C 0.62328 0.98352 0.93215 0.0
C1317 C 0.94137 0.75046 0.76363 0.0
C1318 C 0.93996 0.73882 0.73111 0.0
C1319 C 0.91787 0.75816 0.77568 0.0
C1320 C 0.89206 0.75339 0.75572 0.0
H1321 H 0.96135 0.75597 0.77952 0.0
H1322 H 0.92033 0.76941 0.80045 0.0
S1323 S 0.87644 0.71933 0.66953 0.0
N1324 N 0.91018 0.72003 0.67965 0.0
N1325 N 0.86558 0.73359 0.70247 0.0
C1326 C 0.88965 0.73915 0.72362 0.0
C1327 C 0.91379 0.7321 0.71123 0.0
C1328 C 0.13987 0.0195 0.89903 0.0
C1329 C 0.14746 0.04689 0.88587 0.0
C1330 C 0.12626 0.01927 0.9271 0.0
C1331 C 0.11947 0.0465 0.94517 0.0
H1332 H 0.14365 0.99744 0.887 0.0
H1333 H 0.1208 0.997 0.93466 0.0
S1334 S 0.13548 0.12535 0.92316 0.0
N1335 N 0.14684 0.10272 0.89532 0.0
N1336 N 0.12297 0.10225 0.94672 0.0
C1337 C 0.12761 0.07413 0.93274 0.0
C1338 C 0.1409 0.07427 0.90393 0.0
C1339 C 0.85958 0.3997 0.56937 0.0
C1340 C 0.85975 0.43208 0.5776 0.0
C1341 C 0.86819 0.38418 0.59194 0.0
C1342 C 0.87691 0.40034 0.62367 0.0
H1343 H 0.8524 0.38603 0.54529 0.0
H1344 H 0.86666 0.3589 0.58471 0.0
S1345 S 0.88286 0.48572 0.6572 0.0
N1346 N 0.87106 0.48041 0.61929 0.0
N1347 N 0.88645 0.45073 0.66216 0.0
C1348 C 0.87805 0.43297 0.63217 0.0
C1349 C 0.86972 0.44901 0.60899 0.0
C1350 C 0.5448 0.11045 0.41804 0.0
C1351 C 0.5169 0.09042 0.40854 0.0
C1352 C 0.56346 0.10544 0.44196 0.0
C1353 C 0.55506 0.07962 0.45631 0.0
H1354 H 0.55262 0.12913 0.4059 0.0
H1355 H 0.58497 0.12107 0.4483 0.0
S1356 S 0.48451 0.0195 0.4384 0.0
N1357 N 0.48154 0.04433 0.41539 0.0
N1358 N 0.51717 0.03337 0.45851 0.0
C1359 C 0.52701 0.0598 0.44729 0.0
C1360 C 0.50775 0.06564 0.42385 0.0
C1361 C 0.77555 0.74018 0.12727 0.0
C1362 C 0.7967 0.74417 0.10771 0.0
C1363 C 0.78118 0.75569 0.15942 0.0
C1364 C 0.80852 0.77524 0.17382 0.0
H1365 H 0.75453 0.72421 0.11778 0.0
H1366 H 0.76423 0.75108 0.17339 0.0
S1367 S 0.87127 0.79448 0.13285 0.0
N1368 N 0.84578 0.77033 0.10483 0.0
N1369 N 0.85676 0.79874 0.16533 0.0
C1370 C 0.82972 0.78011 0.15432 0.0
C1371 C 0.82372 0.76483 0.12132 0.0
C1372 C 0.12796 0.01469 0.66488 0.0
C1373 C 0.15186 0.03792 0.68466 0.0
C1374 C 0.1144 0.01897 0.63555 0.0
C1375 C 0.12279 0.04737 0.62406 0.0
H1376 H 0.11985 0.99242 0.67176 0.0
H1377 H 0.09672 0.99969 0.62186 0.0
S1378 S 0.18349 0.11665 0.6665 0.0
N1379 N 0.18293 0.09086 0.68924 0.0
N1380 N 0.1572 0.0994 0.63667 0.0
C1381 C 0.14626 0.07096 0.644 0.0
C1382 C 0.16065 0.06616 0.6732 0.0
C1383 C 0.83529 0.40918 0.37318 0.0
C1384 C 0.82676 0.40445 0.40191 0.0
C1385 C 0.83933 0.38404 0.35101 0.0
C1386 C 0.83443 0.35296 0.35632 0.0
H1387 H 0.83911 0.43256 0.36776 0.0
H1388 H 0.84537 0.38885 0.32896 0.0
S1389 S 0.81337 0.32822 0.42853 0.0
N1390 N 0.81501 0.3667 0.43536 0.0
N1391 N 0.822 0.31911 0.39308 0.0
C1392 C 0.82682 0.34801 0.38535 0.0
C1393 C 0.82299 0.3738 0.40821 0.0
C1394 C 0.4449 0.02392 0.22122 0.0
C1395 C 0.44845 0.0566 0.23405 0.0
C1396 C 0.45842 0.01413 0.19592 0.0
C1397 C 0.47521 0.0366 0.18213 0.0
H1398 H 0.43332 1.00591 0.23202 0.0
H1399 H 0.45662 0.9889 0.1879 0.0
S1400 S 0.48892 0.12472 0.20556 0.0
N1401 N 0.4684 0.1112 0.23026 0.0
N1402 N 0.49334 0.09283 0.18201 0.0
C1403 C 0.47746 0.06923 0.19355 0.0
C1404 C 0.46414 0.07919 0.21972 0.0
C1405 C 0.81699 0.78295 0.91713 0.0
C1406 C 0.8067 0.7495 0.91252 0.0
C1407 C 0.82588 0.79743 0.89244 0.0
C1408 C 0.82433 0.7794 0.86161 0.0
H1409 H 0.81884 0.79815 0.94025 0.0
H1410 H 0.83413 0.8232 0.89765 0.0
S1411 S 0.79916 0.69122 0.83667 0.0
N1412 N 0.79579 0.69882 0.87426 0.0
N1413 N 0.81162 0.72615 0.82804 0.0
C1414 C 0.81356 0.74608 0.85641 0.0
C1415 C 0.80504 0.7312 0.88173 0.0
C1416 C 0.88111 0.07147 0.01472 0.0
C1417 C 0.86474 0.06023 0.03683 0.0
C1418 C 0.90133 0.0565 1.00328 0.0
C1419 C 0.90601 0.02972 0.01349 0.0
H1420 H 0.87858 0.09224 1.00631 0.0
H1421 H 0.91399 0.06654 0.98695 0.0
S1422 S 0.86788 0.9894 0.06946 0.0
N1423 N 0.85391 0.01958 0.06748 0.0
N1424 N 0.89208 0.99155 0.04573 0.0
C1425 C 0.88957 0.01777 0.03508 0.0
C1426 C 0.86889 0.03298 0.04679 0.0
C1427 C 0.46859 0.49878 0.0822 0.0
C1428 C 0.45287 0.47724 0.05441 0.0
C1429 C 0.49554 0.51967 0.08216 0.0
C1430 C 0.50794 0.51956 0.05445 0.0
H1431 H 0.45918 0.50106 0.10358 0.0
H1432 H 0.50629 0.53685 0.10375 0.0
S1433 S 0.47551 0.46768 0.97561 0.0
N1434 N 0.45201 0.45687 0.99864 0.0
N1435 N 0.50214 0.49595 0.99862 0.0
C1436 C 0.49285 0.49738 0.02688 0.0
C1437 C 0.46551 0.47628 0.02688 0.0
C1438 C 0.41955 0.70447 0.78047 0.0
C1439 C 0.40506 0.67101 0.77088 0.0
C1440 C 0.40529 0.73015 0.78252 0.0
C1441 C 0.37494 0.72515 0.77567 0.0
H1442 H 0.4426 0.7112 0.78643 0.0
H1443 H 0.41854 0.7545 0.78989 0.0
S1444 S 0.3256 0.64284 0.7486 0.0
N1445 N 0.35726 0.6357 0.75376 0.0
N1446 N 0.3314 0.68208 0.75794 0.0
C1447 C 0.36026 0.69183 0.76604 0.0
C1448 C 0.37478 0.66576 0.76362 0.0
C1449 C 0.20426 0.58321 0.53361 0.0
C1450 C 0.22085 0.60892 0.55753 0.0
C1451 C 0.17459 0.57475 0.53067 0.0
C1452 C 0.16069 0.5912 0.55201 0.0
H1453 H 0.21416 0.57044 0.5162 0.0
H1454 H 0.1624 0.55555 0.51117 0.0
S1455 S 0.19443 0.65815 0.62052 0.0
N1456 N 0.22147 0.64962 0.60411 0.0
N1457 N 0.16521 0.63273 0.5989 0.0
C1458 C 0.17691 0.61578 0.57704 0.0
C1459 C 0.20722 0.62495 0.57969 0.0
C1460 C 0.77955 0.97435 0.75857 0.0
C1461 C 0.78321 0.9935 0.73642 0.0
C1462 C 0.80195 0.96332 0.77066 0.0
C1463 C 0.82885 0.97086 0.76096 0.0
H1464 H 0.75933 0.96812 0.76703 0.0
H1465 H 0.79804 0.94835 0.78743 0.0
S1466 S 0.84961 0.01985 0.70329 0.0
N1467 N 0.81588 0.01937 0.70503 0.0
N1468 N 0.85803 0.9984 0.72791 0.0
C1469 C 0.83284 0.98972 0.73866 0.0
C1470 C 0.81002 1.00116 0.72641 0.0
C1471 C 0.79262 0.98073 0.56087 0.0
C1472 C 0.78667 0.94715 0.55303 0.0
C1473 C 0.77109 0.9963 0.55658 0.0
C1474 C 0.74262 0.979 0.54417 0.0
H1475 H 0.81422 0.99527 0.57007 0.0
H1476 H 0.77696 0.02219 0.56237 0.0
S1477 S 0.71511 0.89064 0.52176 0.0
N1478 N 0.74969 0.89703 0.53345 0.0
N1479 N 0.70932 0.92635 0.52564 0.0
C1480 C 0.73619 0.94541 0.53683 0.0
C1481 C 0.75813 0.9295 0.54124 0.0
C1482 C 0.37257 0.46038 0.76549 0.0
C1483 C 0.40147 0.46366 0.76151 0.0
C1484 C 0.35394 0.43079 0.76803 0.0
C1485 C 0.36268 0.40214 0.76721 0.0
H1486 H 0.36403 0.48093 0.7666 0.0
H1487 H 0.33212 0.43054 0.77086 0.0
S1488 S 0.4361 0.39642 0.75762 0.0
N1489 N 0.43762 0.43401 0.75703 0.0
N1490 N 0.40309 0.37986 0.76213 0.0
C1491 C 0.3915 0.40497 0.76343 0.0
C1492 C 0.41052 0.43503 0.76054 0.0
C1493 C 0.24225 0.67122 0.19663 0.0
C1494 C 0.23811 0.65059 0.21729 0.0
C1495 C 0.26105 0.7019 0.20668 0.0
C1496 C 0.27567 0.71305 0.23787 0.0
H1497 H 0.23135 0.66341 0.17248 0.0
H1498 H 0.26388 0.71709 0.18999 0.0
S1499 S 0.27051 0.66858 0.30152 0.0
N1500 N 0.24917 0.64354 0.2705 0.0
N1501 N 0.28401 0.70134 0.2895 0.0
C1502 C 0.27113 0.69281 0.2589 0.0
C1503 C 0.25245 0.6615 0.24855 0.0
C1504 C 0.51952 0.65743 0.4634 0.0
C1505 C 0.53481 0.68985 0.47571 0.0
C1506 C 0.52631 0.63214 0.4757 0.0
C1507 C 0.54922 0.63775 0.50049 0.0
H1508 H 0.50224 0.65143 0.4438 0.0
H1509 H 0.514 0.60784 0.46496 0.0
S1510 S 0.59578 0.718 0.5419 0.0
N1511 N 0.57357 0.72569 0.51524 0.0
N1512 N 0.58662 0.67879 0.53738 0.0
C1513 C 0.5644 0.67004 0.51323 0.0
C1514 C 0.55716 0.69577 0.50118 0.0
C1515 C 0.7298 0.36578 0.71261 0.0
C1516 C 0.7224 0.34993 0.68052 0.0
C1517 C 0.75231 0.36112 0.73253 0.0
C1518 C 0.76843 0.33976 0.72176 0.0
H1519 H 0.71777 0.38179 0.72269 0.0
H1520 H 0.7565 0.37385 0.757 0.0
S1521 S 0.75883 0.29284 0.63952 0.0
N1522 N 0.73415 0.31267 0.63859 0.0
N1523 N 0.77588 0.30339 0.67616 0.0
C1524 C 0.76177 0.32418 0.68955 0.0
C1525 C 0.73901 0.32937 0.66899 0.0
C1526 C 0.02678 0.40718 0.96355 0.0
C1527 C 0.04686 0.3895 0.96737 0.0
C1528 C 0.03362 0.44053 0.97592 0.0
C1529 C 0.06116 0.45802 0.99203 0.0
H1530 H 1.00589 0.39531 0.94972 0.0
H1531 H 0.01747 0.45288 0.97155 0.0
S1532 S 0.12131 0.42269 0.00943 0.0
N1533 N 0.09517 0.39181 0.98937 0.0
N1534 N 0.10821 0.45409 0.01246 0.0
C1535 C 0.08119 0.44033 0.99681 0.0
C1536 C 0.07404 0.4063 0.98448 0.0
C1537 C 0.04047 0.83092 0.17539 0.0
C1538 C 0.06503 0.8311 0.1955 0.0
C1539 C 0.01402 0.82918 0.18627 0.0
C1540 C 0.01126 0.8282 0.21783 0.0
H1541 H 0.04145 0.83114 0.15084 0.0
H1542 H 0.99555 0.82837 0.16982 0.0
S1543 S 0.06919 0.82936 0.28038 0.0
N1544 N 0.08482 0.83126 0.24892 0.0
N1545 N 0.03551 0.82786 0.26899 0.0
C1546 C 0.0358 0.82918 0.23827 0.0
C1547 C 0.06253 0.83067 0.22723 0.0
C1548 C 0.51392 0.31277 0.07817 0.0
C1549 C 0.51639 0.3236 0.111 0.0
C1550 C 0.51931 0.3343 0.05852 0.0
C1551 C 0.5276 0.36753 0.07094 0.0
H1552 H 0.50835 0.28742 0.06755 0.0
H1553 H 0.51743 0.32481 0.03344 0.0
S1554 S 0.53695 0.40823 0.15537 0.0
N1555 N 0.52689 0.36979 0.15499 0.0
N1556 N 0.53787 0.41024 0.11825 0.0
C1557 C 0.52943 0.37871 0.10366 0.0
C1558 C 0.52362 0.35676 0.12363 0.0
C1559 C 0.06045 0.3514 0.2773 0.0
C1560 C 0.06638 0.34702 0.30809 0.0
C1561 C 0.03258 0.34882 0.26372 0.0
C1562 C 0.00991 0.34141 0.2804 0.0
H1563 H 0.07763 0.35892 0.26436 0.0
H1564 H 0.02897 0.35468 0.24101 0.0
S1565 S 0.01318 0.32389 0.35972 0.0
N1566 N 0.04664 0.3316 0.35336 0.0
N1567 N 0.99418 0.32715 0.32767 0.0
C1568 C 0.01505 0.33438 0.30995 0.0
C1569 C 0.04339 0.33691 0.32383 0.0
C1570 C 0.04553 0.6462 0.63037 0.0
C1571 C 0.02206 0.65877 0.62455 0.0
C1572 C 0.05346 0.62588 0.60617 0.0
C1573 C 0.03816 0.61754 0.57547 0.0
H1574 H 0.05899 0.65366 0.65322 0.0
H1575 H 0.07249 0.61803 0.61119 0.0
S1576 S 0.97169 0.63867 0.54961 0.0
N1577 N 0.98116 0.65744 0.58708 0.0
N1578 N 0.99609 0.61944 0.54156 0.0
C1579 C 0.01326 0.6277 0.57001 0.0
C1580 C 1.00519 0.64828 0.5946 0.0
C1581 C 0.75162 0.85235 0.86583 0.0
C1582 C 0.73454 0.87089 0.85544 0.0
C1583 C 0.76977 0.84085 0.84674 0.0
C1584 C 0.77186 0.84819 0.81717 0.0
H1585 H 0.74954 0.84487 0.88779 0.0
H1586 H 0.78162 0.82527 0.85473 0.0
S1587 S 0.73468 0.8992 0.78108 0.0
N1588 N 0.72268 0.89838 0.81491 0.0
N1589 N 0.75785 0.87737 0.77951 0.0
C1590 C 0.75666 0.86859 0.80748 0.0
C1591 C 0.73769 0.87983 0.82659 0.0
C1592 C 0.48859 0.55446 0.63955 0.0
C1593 C 0.50166 0.57322 0.67048 0.0
C1594 C 0.50322 0.55255 0.61212 0.0
C1595 C 0.53216 0.56985 0.61275 0.0
H1596 H 0.46654 0.54065 0.63634 0.0
H1597 H 0.49125 0.53778 0.58987 0.0
S1598 S 0.57723 0.62314 0.68674 0.0
N1599 N 0.54661 0.60927 0.69861 0.0
N1600 N 0.57275 0.60695 0.64866 0.0
C1601 C 0.54528 0.58883 0.64343 0.0
C1602 C 0.53067 0.59012 0.6714 0.0
C1603 C 0.81852 0.21077 0.9659 0.0
C1604 C 0.80104 0.17982 0.96331 0.0
C1605 C 0.81258 0.22938 0.94503 0.0
C1606 C 0.78888 0.2178 0.92083 0.0
H1607 H 0.83668 0.22104 0.9846 0.0
H1608 H 0.82661 0.25313 0.94797 0.0
S1609 S 0.73646 0.13826 0.90353 0.0
N1610 N 0.75921 0.13811 0.93412 0.0
N1611 N 0.74794 0.17345 0.89505 0.0
C1612 C 0.77156 0.18664 0.91739 0.0
C1613 C 0.77767 0.16755 0.9386 0.0
C1614 C 0.16253 0.54436 0.11119 0.0
C1615 C 0.15612 0.5157 0.12147 0.0
C1616 C 0.14117 0.55372 0.09463 0.0
C1617 C 0.11287 0.53443 0.08711 0.0
H1618 H 0.18352 0.56106 0.11844 0.0
H1619 H 0.1466 0.57703 0.08913 0.0
S1620 S 0.08622 0.45494 0.10469 0.0
N1621 N 0.12028 0.46681 0.12078 0.0
N1622 N 0.08026 0.48371 0.08809 0.0
C1623 C 0.10665 0.50461 0.09516 0.0
C1624 C 0.12833 0.49534 0.11257 0.0
C1625 C 0.8718 0.86318 0.42821 0.0
C1626 C 0.84897 0.85883 0.44557 0.0
C1627 C 0.86792 0.84958 0.39555 0.0
C1628 C 0.84081 0.83173 0.37858 0.0
H1629 H 0.8926 0.87848 0.4397 0.0
H1630 H 0.88601 0.85463 0.38323 0.0
S1631 S 0.7743 0.812 0.41351 0.0
N1632 N 0.79866 0.83416 0.44366 0.0
N1633 N 0.79111 0.80886 0.38268 0.0
C1634 C 0.81806 0.82625 0.39606 0.0
C1635 C 0.82217 0.83977 0.42935 0.0
C1636 C 0.51751 0.59351 0.89777 0.0
C1637 C 0.51143 0.56814 0.87032 0.0
C1638 C 0.53054 0.59122 0.92832 0.0
C1639 C 0.53817 0.56328 0.93406 0.0
H1640 H 0.51288 0.61579 0.8956 0.0
H1641 H 0.53478 0.61189 0.94773 0.0
S1642 S 0.52552 0.48894 0.87129 0.0
N1643 N 0.51374 0.51341 0.8526 0.0
N1644 N 0.53694 0.50921 0.90805 0.0
C1645 C 0.53153 0.53772 0.9069 0.0
C1646 C 0.51869 0.54012 0.87602 0.0
C1647 C 0.83076 0.22893 0.13781 0.0
C1648 C 0.81908 0.19784 0.14191 0.0
C1649 C 0.82952 0.25611 0.15978 0.0
C1650 C 0.81637 0.25311 0.18649 0.0
H1651 H 0.84102 0.23238 0.11752 0.0
H1652 H 0.83975 0.27952 0.15636 0.0
S1653 S 0.78105 0.17758 0.20758 0.0
N1654 N 0.79311 0.16608 0.17468 0.0
N1655 N 0.79028 0.21694 0.21512 0.0
C1656 C 0.80392 0.2223 0.19038 0.0
C1657 C 0.80549 0.19474 0.16843 0.0
C1658 C 0.12604 0.57768 0.2941 0.0
C1659 C 0.15382 0.57568 0.29034 0.0
C1660 C 0.11914 0.5871 0.3239 0.0
C1661 C 0.13979 0.59503 0.35103 0.0
H1662 H 0.10934 0.57172 0.27388 0.0
H1663 H 0.09729 0.58766 0.32574 0.0
S1664 S 0.216 0.59561 0.35412 0.0
N1665 N 0.20249 0.58356 0.31627 0.0
N1666 N 0.18924 0.60139 0.37261 0.0
C1667 C 0.1677 0.5934 0.3478 0.0
C1668 C 0.1748 0.5837 0.31734 0.0
C1669 C 0.86393 0.86048 0.66886 0.0
C1670 C 0.84348 0.85783 0.64248 0.0
C1671 C 0.85616 0.84781 0.69513 0.0
C1672 C 0.82744 0.83321 0.69696 0.0
H1673 H 0.88622 0.87186 0.66896 0.0
H1674 H 0.87285 0.84941 0.71414 0.0
S1675 S 0.76543 0.8218 0.63478 0.0
N1676 N 0.79317 0.83958 0.62023 0.0
N1677 N 0.77845 0.81775 0.66961 0.0
C1678 C 0.80681 0.83113 0.67091 0.0
C1679 C 0.81483 0.84294 0.64384 0.0
C1680 C 0.75027 0.51195 0.53459 0.0
C1681 C 0.77197 0.52415 0.51804 0.0
C1682 C 0.73315 0.53076 0.54735 0.0
C1683 C 0.73697 0.56229 0.54374 0.0
H1684 H 0.74668 0.48785 0.53815 0.0
H1685 H 0.71647 0.52037 0.55967 0.0
S1686 S 0.79031 0.60542 0.50208 0.0
N1687 N 0.79611 0.56972 0.49846 0.0
N1688 N 0.76365 0.60497 0.52245 0.0
C1689 C 0.75834 0.57474 0.52707 0.0
C1690 C 0.77594 0.55569 0.51423 0.0
C1691 C 0.18867 0.11757 0.46872 0.0
C1692 C 0.2015 0.14611 0.49148 0.0
C1693 C 0.16407 0.09542 0.47291 0.0
C1694 C 0.15168 0.10024 0.50055 0.0
H1695 H 0.19788 0.11218 0.44753 0.0
H1696 H 0.15507 0.07394 0.45454 0.0
S1697 S 0.17806 0.17042 0.56824 0.0
N1698 N 0.20007 0.17792 0.54281 0.0
N1699 N 0.15505 0.13564 0.5515 0.0
C1700 C 0.1645 0.12863 0.52362 0.0
C1701 C 0.18905 0.15168 0.5189 0.0
C1702 C 0.23644 0.90693 0.76864 0.0
C1703 C 0.25097 0.94029 0.77387 0.0
C1704 C 0.25073 0.88123 0.76726 0.0
C1705 C 0.28115 0.88601 0.77073 0.0
H1706 H 0.21333 0.90028 0.76563 0.0
H1707 H 0.23741 0.85701 0.76336 0.0
S1708 S 0.33072 0.96809 0.78561 0.0
N1709 N 0.29899 0.97528 0.78301 0.0
N1710 N 0.32483 0.92896 0.78034 0.0
C1711 C 0.29585 0.91925 0.77603 0.0
C1712 C 0.28133 0.94534 0.77757 0.0
C1713 C 0.44188 0.02515 0.96654 0.0
C1714 C 0.42364 1.00981 0.98494 0.0
C1715 C 0.47118 0.0276 0.97132 0.0
C1716 C 0.48328 0.01498 0.99485 0.0
H1717 H 0.43357 0.03573 0.94854 0.0
H1718 H 0.48456 0.0407 0.95741 0.0
S1719 S 0.44477 0.97046 0.04794 0.0
N1720 N 0.41978 0.98022 0.02661 0.0
N1721 N 0.47481 0.98488 0.03534 0.0
C1722 C 0.46522 0.99855 0.01261 0.0
C1723 C 0.43542 0.99598 1.00776 0.0
C1724 C 0.84201 0.59285 0.80046 0.0
C1725 C 0.86867 0.6139 0.81537 0.0
C1726 C 0.82172 0.6034 0.7833 0.0
C1727 C 0.82756 0.63525 0.78051 0.0
H1728 H 0.83747 0.56761 0.80023 0.0
H1729 H 0.80204 0.58629 0.77089 0.0
S1730 S 0.89114 0.70119 0.82062 0.0
N1731 N 0.89766 0.66903 0.83021 0.0
N1732 N 0.85956 0.68881 0.79802 0.0
C1733 C 0.85295 0.65706 0.79756 0.0
C1734 C 0.87349 0.6464 0.81506 0.0
C1735 C 0.88736 0.66784 0.01801 0.0
C1736 C 0.86076 0.64537 1.00638 0.0
C1737 C 0.91288 0.65816 0.01989 0.0
C1738 C 0.91265 0.62586 0.00951 0.0
H1739 H 0.88832 0.69271 0.02711 0.0
H1740 H 0.93285 0.67594 0.03007 0.0
S1741 S 0.84858 0.55825 0.97537 0.0
N1742 N 0.83586 0.58979 0.98321 0.0
N1743 N 0.88353 0.57178 0.98618 0.0
C1744 C 0.88625 0.60353 0.99663 0.0
C1745 C 0.8604 0.61324 0.99522 0.0
C1746 C 0.2829 0.15802 0.79693 0.0
C1747 C 0.25313 0.14922 0.78593 0.0
C1748 C 0.30122 0.1887 0.79678 0.0
C1749 C 0.29133 0.21311 0.78573 0.0
H1750 H 0.29229 0.14111 0.80603 0.0
H1751 H 0.32374 0.19331 0.80554 0.0
S1752 S 0.21596 0.20206 0.75081 0.0
N1753 N 0.21529 0.16811 0.76144 0.0
N1754 N 0.24932 0.22429 0.76112 0.0
C1755 C 0.26177 0.20448 0.77412 0.0
C1756 C 0.24303 0.17326 0.77425 0.0
C1757 C 0.40038 0.95516 0.33292 0.0
C1758 C 0.4237 0.96331 0.31685 0.0
C1759 C 0.38209 0.92426 0.32547 0.0
C1760 C 0.38643 0.9006 0.30161 0.0
H1761 H 0.39533 0.9731 0.3504 0.0
H1762 H 0.36367 0.91934 0.33735 0.0
S1763 S 0.44739 0.90731 0.25718 0.0
N1764 N 0.45232 0.94357 0.27917 0.0
N1765 N 0.418 0.88536 0.26567 0.0
C1766 C 0.41089 0.9075 0.28727 0.0
C1767 C 0.4296 0.93891 0.29485 0.0
C1768 C 0.5958 0.41942 0.55989 0.0
C1769 C 0.62039 0.42569 0.58272 0.0
C1770 C 0.58741 0.44417 0.5481 0.0
C1771 C 0.60356 0.47653 0.55775 0.0
H1772 H 0.58235 0.3952 0.55168 0.0
H1773 H 0.56795 0.43779 0.53122 0.0
S1774 S 0.67091 0.50592 0.6155 0.0
N1775 N 0.66121 0.46712 0.61377 0.0
N1776 N 0.64634 0.51284 0.59093 0.0
C1777 C 0.62871 0.48294 0.57981 0.0
C1778 C 0.63682 0.45788 0.59242 0.0
C1779 C 0.42536 0.74929 0.32837 0.0
C1780 C 0.4364 0.77091 0.35771 0.0
C1781 C 0.40094 0.75091 0.309 0.0
C1782 C 0.38666 0.77475 0.31768 0.0
H1783 H 0.43683 0.73221 0.31932 0.0
H1784 H 0.39428 0.73445 0.28616 0.0
S1785 S 0.40563 0.83594 0.39314 0.0
N1786 N 0.43 0.81583 0.39519 0.0
N1787 N 0.38436 0.81898 0.35914 0.0
C1788 C 0.39651 0.7954 0.34777 0.0
C1789 C 0.42129 0.79355 0.36757 0.0
C1790 C 0.09744 0.71711 0.06864 0.0
C1791 C 0.12466 0.73324 0.08621 0.0
C1792 C 0.09038 0.68402 0.05426 0.0
C1793 C 0.11035 0.66571 0.05644 0.0
H1794 H 0.08105 0.72972 0.06727 0.0
H1795 H 0.06889 0.67259 0.04182 0.0
S1796 S 0.1853 0.69747 0.09819 0.0
N1797 N 0.17199 0.72869 0.10377 0.0
N1798 N 0.15922 0.66747 0.07668 0.0
C1799 C 0.13801 0.68212 0.07292 0.0
C1800 C 0.14498 0.7155 0.08778 0.0
C1801 C 0.10324 0.26475 0.85197 0.0
C1802 C 0.10404 0.28293 0.88244 0.0
C1803 C 0.12717 0.26956 0.83637 0.0
C1804 C 0.1526 0.29314 0.85041 0.0
H1805 H 0.08393 0.24671 0.84 0.0
H1806 H 0.12551 0.25532 0.81283 0.0
S1807 S 0.16627 0.34672 0.92993 0.0
N1808 N 0.133 0.32496 0.9263 0.0
N1809 N 0.17752 0.33426 0.89668 0.0
C1810 C 0.15384 0.31122 0.88092 0.0
C1811 C 0.1297 0.30603 0.89701 0.0
C1812 C 0.61838 0.76669 0.9382 0.0
C1813 C 0.64019 0.79516 0.95025 0.0
C1814 C 0.61145 0.74364 0.95613 0.0
C1815 C 0.62617 0.74804 0.98676 0.0
H1816 H 0.60616 0.7624 0.91495 0.0
H1817 H 0.59404 0.72246 0.94611 0.0
S1818 S 0.6871 0.81683 0.02792 0.0
N1819 N 0.67766 0.82551 0.99406 0.0
N1820 N 0.66505 0.78195 0.02732 0.0
C1821 C 0.64857 0.77597 0.99871 0.0
C1822 C 0.65548 0.79954 0.98058 0.0
C1823 C 0.10267 0.78642 0.73875 0.0
C1824 C 0.09518 0.77857 0.70571 0.0
C1825 C 0.127 0.78016 0.75321 0.0
C1826 C 0.14421 0.76543 0.73503 0.0
H1827 H 0.08931 0.79682 0.75356 0.0
H1828 H 0.13198 0.78613 0.7787 0.0
S1829 S 0.13536 0.74221 0.64788 0.0
N1830 N 0.10809 0.75691 0.65527 0.0
N1831 N 0.15365 0.74512 0.68266 0.0
C1832 C 0.13759 0.75844 0.70207 0.0
C1833 C 0.11311 0.76508 0.68732 0.0
C1834 C 0.14054 0.46527 0.46518 0.0
C1835 C 0.13248 0.46235 0.43287 0.0
C1836 C 0.12871 0.48302 0.48751 0.0
C1837 C 0.10781 0.49802 0.47845 0.0
H1838 H 0.15558 0.45296 0.47328 0.0
H1839 H 0.13544 0.48406 0.51213 0.0
S1840 S 0.08067 0.49934 0.39666 0.0
N1841 N 0.10375 0.47749 0.39266 0.0
N1842 N 0.08072 0.51036 0.43495 0.0
C1843 C 0.10027 0.49637 0.44623 0.0
C1844 C 0.11285 0.47868 0.42334 0.0
C1845 C 0.42641 0.26375 0.2144 0.0
C1846 C 0.43508 0.23797 0.22283 0.0
C1847 C 0.4046 0.27436 0.22728 0.0
C1848 C 0.39017 0.25923 0.24851 0.0
H1849 H 0.43747 0.27707 0.19898 0.0
H1850 H 0.3993 0.29502 0.22096 0.0
S1851 S 0.40171 0.18833 0.2753 0.0
N1852 N 0.42568 0.19578 0.25184 0.0
N1853 N 0.38376 0.21561 0.27543 0.0
C1854 C 0.39698 0.23211 0.25557 0.0
C1855 C 0.41971 0.2215 0.24286 0.0
C1856 C 0.63889 0.518 0.39866 0.0
C1857 C 0.64666 0.54557 0.38581 0.0
C1858 C 0.62532 0.51759 0.42675 0.0
C1859 C 0.61872 0.54478 0.44516 0.0
H1860 H 0.64249 0.49594 0.38637 0.0
H1861 H 0.6197 0.49518 0.43403 0.0
S1862 S 0.63526 0.62405 0.42405 0.0
N1863 N 0.64643 0.60154 0.39594 0.0
N1864 N 0.62261 0.60071 0.44736 0.0
C1865 C 0.62705 0.5726 0.43305 0.0
C1866 C 0.64031 0.57293 0.40422 0.0
C1867 C 0.3278 0.89652 0.07653 0.0
C1868 C 0.34511 0.92694 0.07662 0.0
C1869 C 0.33666 0.87781 0.09568 0.0
C1870 C 0.36312 0.88882 0.11567 0.0
H1871 H 0.30741 0.88675 0.06112 0.0
H1872 H 0.3226 0.85456 0.09496 0.0
S1873 S 0.41638 0.96663 0.12511 0.0
N1874 N 0.38993 0.9674 0.09878 0.0
N1875 N 0.40651 0.9319 0.13496 0.0
C1876 C 0.38046 0.91937 0.1166 0.0
C1877 C 0.37146 0.93853 0.09704 0.0
C1878 C 0.01191 0.57557 0.91966 0.0
C1879 C 0.02166 0.59381 0.89816 0.0
C1880 C 0.03108 0.5719 0.94384 0.0
C1881 C 0.06046 0.58704 0.94792 0.0
H1882 H 0.98982 0.56169 0.91607 0.0
H1883 H 0.02301 0.55563 0.95824 0.0
S1884 S 0.09581 0.64134 0.90056 0.0
N1885 N 0.0619 0.6295 0.88397 0.0
N1886 N 0.09782 0.62399 0.93056 0.0
C1887 C 0.07004 0.60757 0.92822 0.0
C1888 C 0.05062 0.61066 0.90308 0.0
C1889 C 0.27702 0.24326 0.6289 0.0
C1890 C 0.29851 0.24607 0.60966 0.0
C1891 C 0.28269 0.25859 0.66108 0.0
C1892 C 0.31034 0.27684 0.67587 0.0
H1893 H 0.25565 0.22835 0.61911 0.0
H1894 H 0.26541 0.25489 0.67474 0.0
S1895 S 0.3741 0.29291 0.63591 0.0
N1896 N 0.34834 0.26984 0.60755 0.0
N1897 N 0.35929 0.29799 0.66812 0.0
C1898 C 0.33192 0.28059 0.65673 0.0
C1899 C 0.32594 0.26547 0.62367 0.0
C1900 C 0.66551 0.55475 0.16403 0.0
C1901 C 0.65085 0.53606 0.1835 0.0
C1902 C 0.65184 0.55959 0.13514 0.0
C1903 C 0.62241 0.54542 0.12257 0.0
H1904 H 0.68808 0.56638 0.17144 0.0
H1905 H 0.66481 0.57436 0.12217 0.0
S1906 S 0.5732 0.49384 0.16272 0.0
N1907 N 0.60396 0.50363 0.18676 0.0
N1908 N 0.5793 0.51122 0.13304 0.0
C1909 C 0.60755 0.52636 0.14149 0.0
C1910 C 0.62128 0.52216 0.1714 0.0
C1911 C 0.33478 0.90702 0.87685 0.0
C1912 C 0.32102 0.90223 0.90277 0.0
C1913 C 0.33905 0.88135 0.85559 0.0
C1914 C 0.32918 0.84974 0.85891 0.0
H1915 H 0.34269 0.93084 0.87307 0.0
H1916 H 0.34932 0.8863 0.83567 0.0
S1917 S 0.29286 0.82437 0.92352 0.0
N1918 N 0.29867 0.86362 0.93158 0.0
N1919 N 0.30602 0.81508 0.89078 0.0
C1920 C 0.31608 0.84455 0.88517 0.0
C1921 C 0.31202 0.87086 0.90719 0.0
C1922 C 0.95851 0.56161 0.706 0.0
C1923 C 0.94653 0.54087 0.72446 0.0
C1924 C 0.9714 0.55071 0.68053 0.0
C1925 C 0.97321 0.51898 0.67338 0.0
H1926 H 0.95918 0.58673 0.71226 0.0
H1927 H 0.98179 0.56771 0.66778 0.0
S1928 S 0.94359 0.45475 0.71305 0.0
N1929 N 0.9354 0.48651 0.73237 0.0
N1930 N 0.96067 0.46649 0.68501 0.0
C1931 C 0.96006 0.4976 0.69051 0.0
C1932 C 0.94639 0.50846 0.716 0.0
C1933 C 0.32152 0.28412 0.41947 0.0
C1934 C 0.3099 0.25089 0.41495 0.0
C1935 C 0.32968 0.29824 0.3943 0.0
C1936 C 0.32624 0.28007 0.36308 0.0
H1937 H 0.32489 0.29942 0.44281 0.0
H1938 H 0.3389 0.32386 0.39947 0.0
S1939 S 0.29659 0.19246 0.33843 0.0
N1940 N 0.2952 0.20034 0.37644 0.0
N1941 N 0.31028 0.2269 0.32946 0.0
C1942 C 0.31422 0.247 0.3581 0.0
C1943 C 0.3062 0.23251 0.38385 0.0
C1944 C 0.37065 0.54197 0.5418 0.0
C1945 C 0.36875 0.5711 0.53451 0.0
C1946 C 0.38985 0.5259 0.52942 0.0
C1947 C 0.40779 0.53831 0.50924 0.0
H1948 H 0.3572 0.53138 0.5572 0.0
H1949 H 0.39088 0.50374 0.53591 0.0
S1950 S 0.41226 0.61426 0.48374 0.0
N1951 N 0.387 0.61194 0.50614 0.0
N1952 N 0.42333 0.58175 0.48321 0.0
C1953 C 0.40614 0.56729 0.50162 0.0
C1954 C 0.38658 0.58369 0.5142 0.0
C1955 C 0.96827 0.99856 0.58185 0.0
C1956 C 0.9533 0.97484 0.55512 0.0
C1957 C 0.99555 0.01856 0.58148 0.0
C1958 C 1.00868 0.016 0.55418 0.0
H1959 H 0.95815 1.00295 0.60253 0.0
H1960 H 1.00582 0.03711 0.6023 0.0
S1961 S 0.97882 0.95629 0.47864 0.0
N1962 N 0.95424 0.94878 0.50136 0.0
N1963 N 1.0048 0.98631 0.50031 0.0
C1964 C 0.9943 0.9914 0.52783 0.0
C1965 C 0.96682 0.97093 0.52838 0.0
C1966 C 0.87534 0.16632 0.26402 0.0
C1967 C 0.90572 0.17145 0.27033 0.0
C1968 C 0.86092 0.19182 0.2659 0.0
C1969 C 0.87525 0.22533 0.27384 0.0
H1970 H 0.86212 0.14192 0.25753 0.0
H1971 H 0.83782 0.18485 0.26061 0.0
S1972 S 0.95487 0.25392 0.29321 0.0
N1973 N 0.94923 0.2147 0.28562 0.0
N1974 N 0.92313 0.26095 0.2884 0.0
C1975 C 0.90565 0.23082 0.28009 0.0
C1976 C 0.92032 0.20483 0.27858 0.0
C1977 C 0.70312 0.12925 0.05084 0.0
C1978 C 0.71946 0.10786 0.05541 0.0
C1979 C 0.67392 0.1213 0.05205 0.0
C1980 C 0.66043 0.09221 0.05881 0.0
H1981 H 0.71262 0.15157 0.04468 0.0
H1982 H 0.66155 0.1373 0.04621 0.0
S1983 S 0.69407 0.02945 0.07573 0.0
N1984 N 0.72048 0.05734 0.06902 0.0
N1985 N 0.66535 0.04282 0.07214 0.0
C1986 C 0.67672 0.0715 0.06544 0.0
C1987 C 0.70639 0.07922 0.06347 0.0
C1988 C 0.29932 0.51164 0.2449 0.0
C1989 C 0.27062 0.4996 0.2485 0.0
C1990 C 0.32083 0.49889 0.25633 0.0
C1991 C 0.3143 0.47382 0.27177 0.0
H1992 H 0.30515 0.53045 0.23234 0.0
H1993 H 0.34237 0.5076 0.25175 0.0
S1994 S 0.24363 0.43585 0.29039 0.0
N1995 N 0.23753 0.4627 0.27104 0.0
N1996 N 0.27816 0.4388 0.29238 0.0
C1997 C 0.28616 0.46262 0.27701 0.0
C1998 C 0.26423 0.4755 0.2654 0.0
C1999 C 0.29364 0.48465 0.06168 0.0
C2000 C 0.28708 0.45101 0.05475 0.0
C2001 C 0.27293 0.50068 0.05509 0.0
C2002 C 0.24462 0.48388 0.04142 0.0
H2003 H 0.31515 0.49887 0.07182 0.0
H2004 H 0.27923 0.52657 0.06058 0.0
S2005 S 0.21586 0.39566 0.01918 0.0
N2006 N 0.24973 0.4014 0.03396 0.0
N2007 N 0.21096 0.43163 0.0215 0.0
C2008 C 0.23749 0.45027 0.03504 0.0
C2009 C 0.25864 0.43385 0.04167 0.0
C2010 C 0.90705 0.93455 0.25948 0.0
C2011 C 0.89823 0.96333 0.26073 0.0
C2012 C 0.88859 0.90484 0.26221 0.0
C2013 C 0.85969 0.90149 0.26621 0.0
H2014 H 0.92886 0.93488 0.25652 0.0
H2015 H 0.89714 0.88429 0.26103 0.0
S2016 S 0.82483 0.96853 0.27124 0.0
N2017 N 0.85773 0.98531 0.26662 0.0
N2018 N 0.8235 0.9309 0.2713 0.0
C2019 C 0.85058 0.93004 0.26742 0.0
C2020 C 0.86946 0.96026 0.26485 0.0
C2021 C 0.73203 0.1702 0.73292 0.0
C2022 C 0.74048 0.14617 0.71322 0.0
C2023 C 0.75042 0.20093 0.74381 0.0
C2024 C 0.77745 0.20874 0.73458 0.0
H2025 H 0.71156 0.16487 0.74105 0.0
H2026 H 0.74338 0.21874 0.7594 0.0
S2027 S 0.80908 0.15463 0.68237 0.0
N2028 N 0.7774 0.13209 0.68472 0.0
N2029 N 0.81155 0.1905 0.70399 0.0
C2030 C 0.7858 0.18524 0.71411 0.0
C2031 C 0.7674 0.1537 0.70374 0.0
loop_
_geom_bond_atom_site_label_1
_geom_bond_atom_site_label_2
_geom_bond_distance
_geom_bond_site_symmetry_2
_ccdc_geom_bond_type
C0 O1 1.306 . S
C0 O3 1.160 . S
O1 C0 1.306 . S
O1 Cd2 2.228 . S
Cd2 O1 2.228 . S
Cd2 O6 2.273 . S
Cd2 O10 2.277 . S
O3 C0 1.160 . S
O3 Cd4 2.203 . S
Cd4 O3 2.203 . S
Cd4 O6 2.411 . S
Cd4 O7 2.333 . S
Cd4 O8 2.352 . S
Cd4 O12 2.277 . S
Cd4 O13 2.356 . S
C5 O10 1.209 . S
C5 O12 1.226 . S
O6 Cd2 2.273 . S
O6 Cd4 2.411 . S
O6 C9 1.320 . S
O7 Cd4 2.333 . S
O7 C9 1.214 . S
O8 Cd4 2.352 . S
O8 C11 1.258 . S
C9 O6 1.320 . S
C9 O7 1.214 . S
O10 Cd2 2.277 . S
O10 C5 1.209 . S
C11 O8 1.258 . S
C11 O13 1.282 . S
O12 Cd4 2.277 . S
O12 C5 1.226 . S
O13 Cd4 2.356 . S
O13 C11 1.282 . S
C14 O15 1.306 . S
C14 O17 1.160 . S
O15 C14 1.306 . S
O15 Cd16 2.228 1_655 S
Cd16 O15 2.228 1_455 S
Cd16 O20 2.273 . S
Cd16 O24 2.277 1_455 S
O17 C14 1.160 . S
O17 Cd18 2.203 1_655 S
Cd18 O17 2.203 1_455 S
Cd18 O20 2.411 . S
Cd18 O21 2.333 . S
Cd18 O22 2.352 . S
Cd18 O26 2.277 1_455 S
Cd18 O27 2.356 . S
C19 O24 1.209 . S
C19 O26 1.226 . S
O20 Cd16 2.273 . S
O20 Cd18 2.411 . S
O20 C23 1.320 . S
O21 Cd18 2.333 . S
O21 C23 1.214 . S
O22 Cd18 2.352 . S
O22 C25 1.258 . S
C23 O20 1.320 . S
C23 O21 1.214 . S
O24 Cd16 2.277 1_655 S
O24 C19 1.209 . S
C25 O22 1.258 . S
C25 O27 1.282 . S
O26 Cd18 2.277 1_655 S
O26 C19 1.226 . S
O27 Cd18 2.356 . S
O27 C25 1.282 . S
C28 O29 1.306 . S
C28 O31 1.160 . S
O29 C28 1.306 . S
O29 Cd30 2.228 . S
Cd30 O29 2.228 . S
Cd30 O34 2.273 . S
Cd30 O38 2.277 . S
O31 C28 1.160 . S
O31 Cd32 2.203 . S
Cd32 O31 2.203 . S
Cd32 O34 2.411 . S
Cd32 O35 2.333 . S
Cd32 O36 2.352 . S
Cd32 O40 2.277 . S
Cd32 O41 2.356 . S
C33 O38 1.209 . S
C33 O40 1.226 . S
O34 Cd30 2.273 . S
O34 Cd32 2.411 . S
O34 C37 1.320 . S
O35 Cd32 2.333 . S
O35 C37 1.214 . S
O36 Cd32 2.352 . S
O36 C39 1.258 . S
C37 O34 1.320 . S
C37 O35 1.214 . S
O38 Cd30 2.277 . S
O38 C33 1.209 . S
C39 O36 1.258 . S
C39 O41 1.282 . S
O40 Cd32 2.277 . S
O40 C33 1.226 . S
O41 Cd32 2.356 . S
O41 C39 1.282 . S
C42 O43 1.306 . S
C42 O45 1.160 . S
O43 C42 1.306 . S
O43 Cd44 2.228 . S
Cd44 O43 2.228 . S
Cd44 O48 2.273 . S
Cd44 O52 2.277 . S
O45 C42 1.160 . S
O45 Cd46 2.203 . S
Cd46 O45 2.203 . S
Cd46 O48 2.411 . S
Cd46 O49 2.333 . S
Cd46 O50 2.352 . S
Cd46 O54 2.277 . S
Cd46 O55 2.356 . S
C47 O52 1.209 . S
C47 O54 1.226 . S
O48 Cd44 2.273 . S
O48 Cd46 2.411 . S
O48 C51 1.320 . S
O49 Cd46 2.333 . S
O49 C51 1.214 . S
O50 Cd46 2.352 . S
O50 C53 1.258 . S
C51 O48 1.320 . S
C51 O49 1.214 . S
O52 Cd44 2.277 . S
O52 C47 1.209 . S
C53 O50 1.258 . S
C53 O55 1.282 . S
O54 Cd46 2.277 . S
O54 C47 1.226 . S
O55 Cd46 2.356 . S
O55 C53 1.282 . S
C56 O57 1.306 . S
C56 O59 1.160 . S
O57 C56 1.306 . S
O57 Cd58 2.228 . S
Cd58 O57 2.228 . S
Cd58 O62 2.273 . S
Cd58 O66 2.277 . S
O59 C56 1.160 . S
O59 Cd60 2.203 . S
Cd60 O59 2.203 . S
Cd60 O62 2.411 . S
Cd60 O63 2.333 . S
Cd60 O64 2.352 . S
Cd60 O68 2.277 . S
Cd60 O69 2.356 . S
C61 O66 1.209 . S
C61 O68 1.226 . S
O62 Cd58 2.273 . S
O62 Cd60 2.411 . S
O62 C65 1.320 . S
O63 Cd60 2.333 . S
O63 C65 1.214 . S
O64 Cd60 2.352 . S
O64 C67 1.258 . S
C65 O62 1.320 . S
C65 O63 1.214 . S
O66 Cd58 2.277 . S
O66 C61 1.209 . S
C67 O64 1.258 . S
C67 O69 1.282 . S
O68 Cd60 2.277 . S
O68 C61 1.226 . S
O69 Cd60 2.356 . S
O69 C67 1.282 . S
C70 O71 1.306 . S
C70 O73 1.160 . S
O71 C70 1.306 . S
O71 Cd72 2.228 . S
Cd72 O71 2.228 . S
Cd72 O76 2.273 . S
Cd72 O80 2.277 . S
O73 C70 1.160 . S
O73 Cd74 2.203 . S
Cd74 O73 2.203 . S
Cd74 O76 2.411 . S
Cd74 O77 2.333 . S
Cd74 O78 2.352 . S
Cd74 O82 2.277 . S
Cd74 O83 2.356 . S
C75 O80 1.209 . S
C75 O82 1.226 . S
O76 Cd72 2.273 . S
O76 Cd74 2.411 . S
O76 C79 1.320 . S
O77 Cd74 2.333 . S
O77 C79 1.214 . S
O78 Cd74 2.352 . S
O78 C81 1.258 . S
C79 O76 1.320 . S
C79 O77 1.214 . S
O80 Cd72 2.277 . S
O80 C75 1.209 . S
C81 O78 1.258 . S
C81 O83 1.282 . S
O82 Cd74 2.277 . S
O82 C75 1.226 . S
O83 Cd74 2.356 . S
O83 C81 1.282 . S
C84 O85 1.306 . S
C84 O87 1.160 . S
O85 C84 1.306 . S
O85 Cd86 2.228 . S
Cd86 O85 2.228 . S
Cd86 O90 2.273 . S
Cd86 O94 2.277 . S
O87 C84 1.160 . S
O87 Cd88 2.203 . S
Cd88 O87 2.203 . S
Cd88 O90 2.411 . S
Cd88 O91 2.333 . S
Cd88 O92 2.352 . S
Cd88 O96 2.277 . S
Cd88 O97 2.356 . S
C89 O94 1.209 . S
C89 O96 1.226 . S
O90 Cd86 2.273 . S
O90 Cd88 2.411 . S
O90 C93 1.320 . S
O91 Cd88 2.333 . S
O91 C93 1.214 . S
O92 Cd88 2.352 . S
O92 C95 1.258 . S
C93 O90 1.320 . S
C93 O91 1.214 . S
O94 Cd86 2.277 . S
O94 C89 1.209 . S
C95 O92 1.258 . S
C95 O97 1.282 . S
O96 Cd88 2.277 . S
O96 C89 1.226 . S
O97 Cd88 2.356 . S
O97 C95 1.282 . S
C98 O99 1.306 . S
C98 O101 1.160 . S
O99 C98 1.306 . S
O99 Cd100 2.228 1_655 S
Cd100 O99 2.228 1_455 S
Cd100 O104 2.273 . S
Cd100 O108 2.277 . S
O101 C98 1.160 . S
O101 Cd102 2.203 1_655 S
Cd102 O101 2.203 1_455 S
Cd102 O104 2.411 . S
Cd102 O105 2.333 . S
Cd102 O106 2.352 . S
Cd102 O110 2.277 . S
Cd102 O111 2.356 . S
C103 O108 1.209 . S
C103 O110 1.226 . S
O104 Cd100 2.273 . S
O104 Cd102 2.411 . S
O104 C107 1.320 . S
O105 Cd102 2.333 . S
O105 C107 1.214 . S
O106 Cd102 2.352 . S
O106 C109 1.258 . S
C107 O104 1.320 . S
C107 O105 1.214 . S
O108 Cd100 2.277 . S
O108 C103 1.209 . S
C109 O106 1.258 . S
C109 O111 1.282 . S
O110 Cd102 2.277 . S
O110 C103 1.226 . S
O111 Cd102 2.356 . S
O111 C109 1.282 . S
C112 O113 1.306 1_545 S
C112 O115 1.160 . S
O113 C112 1.306 1_565 S
O113 Cd114 2.228 . S
Cd114 O113 2.228 . S
Cd114 O118 2.273 1_565 S
Cd114 O122 2.277 . S
O115 C112 1.160 . S
O115 Cd116 2.203 . S
Cd116 O115 2.203 . S
Cd116 O118 2.411 . S
Cd116 O119 2.333 1_545 S
Cd116 O120 2.352 . S
Cd116 O124 2.277 1_545 S
Cd116 O125 2.356 . S
C117 O122 1.209 . S
C117 O124 1.226 . S
O118 Cd114 2.273 1_545 S
O118 Cd116 2.411 . S
O118 C121 1.320 1_545 S
O119 Cd116 2.333 1_565 S
O119 C121 1.214 . S
O120 Cd116 2.352 . S
O120 C123 1.258 . S
C121 O118 1.320 1_565 S
C121 O119 1.214 . S
O122 Cd114 2.277 . S
O122 C117 1.209 . S
C123 O120 1.258 . S
C123 O125 1.282 . S
O124 Cd116 2.277 1_565 S
O124 C117 1.226 . S
O125 Cd116 2.356 . S
O125 C123 1.282 . S
C126 O127 1.306 . S
C126 O129 1.160 . S
O127 C126 1.306 . S
O127 Cd128 2.228 . S
Cd128 O127 2.228 . S
Cd128 O132 2.273 . S
Cd128 O136 2.277 . S
O129 C126 1.160 . S
O129 Cd130 2.203 . S
Cd130 O129 2.203 . S
Cd130 O132 2.411 . S
Cd130 O133 2.333 . S
Cd130 O134 2.352 . S
Cd130 O138 2.277 . S
Cd130 O139 2.356 . S
C131 O136 1.209 . S
C131 O138 1.226 . S
O132 Cd128 2.273 . S
O132 Cd130 2.411 . S
O132 C135 1.320 . S
O133 Cd130 2.333 . S
O133 C135 1.214 . S
O134 Cd130 2.352 . S
O134 C137 1.258 . S
C135 O132 1.320 . S
C135 O133 1.214 . S
O136 Cd128 2.277 . S
O136 C131 1.209 . S
C137 O134 1.258 . S
C137 O139 1.282 . S
O138 Cd130 2.277 . S
O138 C131 1.226 . S
O139 Cd130 2.356 . S
O139 C137 1.282 . S
C140 O141 1.306 . S
C140 O143 1.160 . S
O141 C140 1.306 . S
O141 Cd142 2.228 . S
Cd142 O141 2.228 . S
Cd142 O146 2.273 . S
Cd142 O150 2.277 . S
O143 C140 1.160 . S
O143 Cd144 2.203 . S
Cd144 O143 2.203 . S
Cd144 O146 2.411 . S
Cd144 O147 2.333 . S
Cd144 O148 2.352 1_545 S
Cd144 O152 2.277 . S
Cd144 O153 2.356 1_545 S
C145 O150 1.209 . S
C145 O152 1.226 . S
O146 Cd142 2.273 . S
O146 Cd144 2.411 . S
O146 C149 1.320 . S
O147 Cd144 2.333 . S
O147 C149 1.214 . S
O148 Cd144 2.352 1_565 S
O148 C151 1.258 . S
C149 O146 1.320 . S
C149 O147 1.214 . S
O150 Cd142 2.277 . S
O150 C145 1.209 . S
C151 O148 1.258 . S
C151 O153 1.282 . S
O152 Cd144 2.277 . S
O152 C145 1.226 . S
O153 Cd144 2.356 1_565 S
O153 C151 1.282 . S
C154 O155 1.306 1_554 S
C154 O157 1.160 . S
O155 C154 1.306 1_556 S
O155 Cd156 2.228 . S
Cd156 O155 2.228 . S
Cd156 O160 2.273 1_556 S
Cd156 O164 2.277 . S
O157 C154 1.160 . S
O157 Cd158 2.203 . S
Cd158 O157 2.203 . S
Cd158 O160 2.411 . S
Cd158 O161 2.333 . S
Cd158 O162 2.352 . S
Cd158 O166 2.277 1_554 S
Cd158 O167 2.356 . S
C159 O164 1.209 . S
C159 O166 1.226 . S
O160 Cd156 2.273 1_554 S
O160 Cd158 2.411 . S
O160 C163 1.317 . S
O161 Cd158 2.333 . S
O161 C163 1.219 . S
O162 Cd158 2.352 . S
O162 C165 1.258 . S
C163 O160 1.317 . S
C163 O161 1.219 . S
O164 Cd156 2.277 . S
O164 C159 1.209 . S
C165 O162 1.258 . S
C165 O167 1.282 . S
O166 Cd158 2.277 1_556 S
O166 C159 1.226 . S
O167 Cd158 2.356 . S
O167 C165 1.282 . S
C168 O169 1.306 . S
C168 O171 1.160 . S
O169 C168 1.306 . S
O169 Cd170 2.228 1_554 S
Cd170 O169 2.228 1_556 S
Cd170 O174 2.273 1_556 S
Cd170 O178 2.277 . S
O171 C168 1.160 . S
O171 Cd172 2.203 . S
Cd172 O171 2.203 . S
Cd172 O174 2.411 . S
Cd172 O175 2.333 . S
Cd172 O176 2.352 . S
Cd172 O180 2.277 1_554 S
Cd172 O181 2.356 . S
C173 O178 1.209 . S
C173 O180 1.226 . S
O174 Cd170 2.273 1_554 S
O174 Cd172 2.411 . S
O174 C177 1.320 . S
O175 Cd172 2.333 . S
O175 C177 1.214 . S
O176 Cd172 2.352 . S
O176 C179 1.258 . S
C177 O174 1.320 . S
C177 O175 1.214 . S
O178 Cd170 2.277 . S
O178 C173 1.209 . S
C179 O176 1.258 . S
C179 O181 1.282 . S
O180 Cd172 2.277 1_556 S
O180 C173 1.226 . S
O181 Cd172 2.356 . S
O181 C179 1.282 . S
C182 O183 1.306 . S
C182 O185 1.160 . S
O183 C182 1.306 . S
O183 Cd184 2.228 . S
Cd184 O183 2.228 . S
Cd184 O188 2.273 . S
Cd184 O192 2.277 . S
O185 C182 1.160 . S
O185 Cd186 2.203 . S
Cd186 O185 2.203 . S
Cd186 O188 2.411 . S
Cd186 O189 2.333 . S
Cd186 O190 2.352 1_554 S
Cd186 O194 2.277 . S
Cd186 O195 2.356 . S
C187 O192 1.209 . S
C187 O194 1.226 . S
O188 Cd184 2.273 . S
O188 Cd186 2.411 . S
O188 C191 1.320 . S
O189 Cd186 2.333 . S
O189 C191 1.214 . S
O190 Cd186 2.352 1_556 S
O190 C193 1.258 . S
C191 O188 1.320 . S
C191 O189 1.214 . S
O192 Cd184 2.277 . S
O192 C187 1.209 . S
C193 O190 1.258 . S
C193 O195 1.282 1_556 S
O194 Cd186 2.277 . S
O194 C187 1.226 . S
O195 Cd186 2.356 . S
O195 C193 1.282 1_554 S
C196 O197 1.306 . S
C196 O199 1.160 . S
O197 C196 1.306 . S
O197 Cd198 2.228 . S
Cd198 O197 2.228 . S
Cd198 O202 2.273 . S
Cd198 O206 2.277 . S
O199 C196 1.160 . S
O199 Cd200 2.203 . S
Cd200 O199 2.203 . S
Cd200 O202 2.411 . S
Cd200 O203 2.333 . S
Cd200 O204 2.352 . S
Cd200 O208 2.277 . S
Cd200 O209 2.356 . S
C201 O206 1.209 . S
C201 O208 1.226 . S
O202 Cd198 2.273 . S
O202 Cd200 2.411 . S
O202 C205 1.320 . S
O203 Cd200 2.333 . S
O203 C205 1.214 . S
O204 Cd200 2.352 . S
O204 C207 1.258 . S
C205 O202 1.320 . S
C205 O203 1.214 . S
O206 Cd198 2.277 . S
O206 C201 1.209 . S
C207 O204 1.258 . S
C207 O209 1.282 . S
O208 Cd200 2.277 . S
O208 C201 1.226 . S
O209 Cd200 2.356 . S
O209 C207 1.282 . S
C210 O211 1.306 . S
C210 O213 1.160 . S
O211 C210 1.306 . S
O211 Cd212 2.228 . S
Cd212 O211 2.228 . S
Cd212 O216 2.273 . S
Cd212 O220 2.277 . S
O213 C210 1.160 . S
O213 Cd214 2.203 . S
Cd214 O213 2.203 . S
Cd214 O216 2.411 . S
Cd214 O217 2.333 . S
Cd214 O218 2.352 . S
Cd214 O222 2.277 . S
Cd214 O223 2.356 . S
C215 O220 1.209 . S
C215 O222 1.226 . S
O216 Cd212 2.273 . S
O216 Cd214 2.411 . S
O216 C219 1.320 . S
O217 Cd214 2.333 . S
O217 C219 1.214 . S
O218 Cd214 2.352 . S
O218 C221 1.258 . S
C219 O216 1.320 . S
C219 O217 1.214 . S
O220 Cd212 2.277 . S
O220 C215 1.209 . S
C221 O218 1.258 . S
C221 O223 1.282 . S
O222 Cd214 2.277 . S
O222 C215 1.226 . S
O223 Cd214 2.356 . S
O223 C221 1.282 . S
C224 O225 1.306 1_655 S
C224 O227 1.160 . S
O225 C224 1.306 1_455 S
O225 Cd226 2.228 . S
Cd226 O225 2.228 . S
Cd226 O230 2.273 1_455 S
Cd226 O234 2.277 1_455 S
O227 C224 1.160 . S
O227 Cd228 2.203 . S
Cd228 O227 2.203 . S
Cd228 O230 2.411 . S
Cd228 O231 2.333 . S
Cd228 O232 2.352 . S
Cd228 O236 2.277 . S
Cd228 O237 2.356 . S
C229 O234 1.209 . S
C229 O236 1.226 . S
O230 Cd226 2.273 1_655 S
O230 Cd228 2.411 . S
O230 C233 1.320 . S
O231 Cd228 2.333 . S
O231 C233 1.214 . S
O232 Cd228 2.352 . S
O232 C235 1.258 . S
C233 O230 1.320 . S
C233 O231 1.214 . S
O234 Cd226 2.277 1_655 S
O234 C229 1.209 . S
C235 O232 1.258 . S
C235 O237 1.282 . S
O236 Cd228 2.277 . S
O236 C229 1.226 . S
O237 Cd228 2.356 . S
O237 C235 1.282 . S
C238 O239 1.306 . S
C238 O241 1.160 . S
O239 C238 1.306 . S
O239 Cd240 2.228 . S
Cd240 O239 2.228 . S
Cd240 O244 2.273 . S
Cd240 O248 2.277 . S
O241 C238 1.160 . S
O241 Cd242 2.203 . S
Cd242 O241 2.203 . S
Cd242 O244 2.411 . S
Cd242 O245 2.333 . S
Cd242 O246 2.352 . S
Cd242 O250 2.277 . S
Cd242 O251 2.356 . S
C243 O248 1.209 . S
C243 O250 1.226 . S
O244 Cd240 2.273 . S
O244 Cd242 2.411 . S
O244 C247 1.320 . S
O245 Cd242 2.333 . S
O245 C247 1.214 . S
O246 Cd242 2.352 . S
O246 C249 1.258 . S
C247 O244 1.320 . S
C247 O245 1.214 . S
O248 Cd240 2.277 . S
O248 C243 1.209 . S
C249 O246 1.258 . S
C249 O251 1.282 . S
O250 Cd242 2.277 . S
O250 C243 1.226 . S
O251 Cd242 2.356 . S
O251 C249 1.282 . S
C252 O253 1.306 . S
C252 O255 1.160 . S
O253 C252 1.306 . S
O253 Cd254 2.228 . S
Cd254 O253 2.228 . S
Cd254 O258 2.273 . S
Cd254 O262 2.277 . S
O255 C252 1.160 . S
O255 Cd256 2.203 . S
Cd256 O255 2.203 . S
Cd256 O258 2.411 . S
Cd256 O259 2.333 . S
Cd256 O260 2.352 . S
Cd256 O264 2.277 . S
Cd256 O265 2.356 . S
C257 O262 1.209 . S
C257 O264 1.226 . S
O258 Cd254 2.273 . S
O258 Cd256 2.411 . S
O258 C261 1.320 . S
O259 Cd256 2.333 . S
O259 C261 1.214 . S
O260 Cd256 2.352 . S
O260 C263 1.258 . S
C261 O258 1.320 . S
C261 O259 1.214 . S
O262 Cd254 2.277 . S
O262 C257 1.209 . S
C263 O260 1.258 . S
C263 O265 1.282 . S
O264 Cd256 2.277 . S
O264 C257 1.226 . S
O265 Cd256 2.356 . S
O265 C263 1.282 . S
C266 O267 1.306 . S
C266 O269 1.160 . S
O267 C266 1.306 . S
O267 Cd268 2.228 . S
Cd268 O267 2.228 . S
Cd268 O272 2.273 . S
Cd268 O276 2.277 . S
O269 C266 1.160 . S
O269 Cd270 2.203 . S
Cd270 O269 2.203 . S
Cd270 O272 2.411 . S
Cd270 O273 2.333 . S
Cd270 O274 2.352 . S
Cd270 O278 2.277 . S
Cd270 O279 2.356 . S
C271 O276 1.209 . S
C271 O278 1.226 . S
O272 Cd268 2.273 . S
O272 Cd270 2.411 . S
O272 C275 1.320 . S
O273 Cd270 2.333 . S
O273 C275 1.214 . S
O274 Cd270 2.352 . S
O274 C277 1.258 . S
C275 O272 1.320 . S
C275 O273 1.214 . S
O276 Cd268 2.277 . S
O276 C271 1.209 . S
C277 O274 1.258 . S
C277 O279 1.282 . S
O278 Cd270 2.277 . S
O278 C271 1.226 . S
O279 Cd270 2.356 . S
O279 C277 1.282 . S
C280 O281 1.306 . S
C280 O283 1.160 . S
O281 C280 1.306 . S
O281 Cd282 2.228 . S
Cd282 O281 2.228 . S
Cd282 O286 2.245 1_554 S
Cd282 O290 2.277 . S
O283 C280 1.160 . S
O283 Cd284 2.203 . S
Cd284 O283 2.203 . S
Cd284 O286 2.419 1_554 S
Cd284 O287 2.333 1_554 S
Cd284 O288 2.352 1_554 S
Cd284 O292 2.277 . S
Cd284 O293 2.356 1_554 S
C285 O290 1.209 . S
C285 O292 1.226 . S
O286 Cd282 2.245 1_556 S
O286 Cd284 2.419 1_556 S
O286 C289 1.323 . S
O287 Cd284 2.333 1_556 S
O287 C289 1.214 . S
O288 Cd284 2.352 1_556 S
O288 C291 1.258 . S
C289 O286 1.323 . S
C289 O287 1.214 . S
O290 Cd282 2.277 . S
O290 C285 1.209 . S
C291 O288 1.258 . S
C291 O293 1.282 . S
O292 Cd284 2.277 . S
O292 C285 1.226 . S
O293 Cd284 2.356 1_556 S
O293 C291 1.282 . S
C294 O295 1.306 . S
C294 O297 1.160 . S
O295 C294 1.306 . S
O295 Cd296 2.228 . S
Cd296 O295 2.228 . S
Cd296 O300 2.273 . S
Cd296 O304 2.277 . S
O297 C294 1.160 . S
O297 Cd298 2.203 . S
Cd298 O297 2.203 . S
Cd298 O300 2.411 . S
Cd298 O301 2.333 . S
Cd298 O302 2.352 . S
Cd298 O306 2.277 . S
Cd298 O307 2.356 . S
C299 O304 1.209 . S
C299 O306 1.226 . S
O300 Cd296 2.273 . S
O300 Cd298 2.411 . S
O300 C303 1.320 . S
O301 Cd298 2.333 . S
O301 C303 1.214 . S
O302 Cd298 2.352 . S
O302 C305 1.258 . S
C303 O300 1.320 . S
C303 O301 1.214 . S
O304 Cd296 2.277 . S
O304 C299 1.209 . S
C305 O302 1.258 . S
C305 O307 1.282 . S
O306 Cd298 2.277 . S
O306 C299 1.226 . S
O307 Cd298 2.356 . S
O307 C305 1.282 . S
C308 O309 1.306 . S
C308 O311 1.160 . S
O309 C308 1.306 . S
O309 Cd310 2.228 . S
Cd310 O309 2.228 . S
Cd310 O314 2.273 . S
Cd310 O318 2.277 . S
O311 C308 1.160 . S
O311 Cd312 2.203 . S
Cd312 O311 2.203 . S
Cd312 O314 2.411 . S
Cd312 O315 2.333 . S
Cd312 O316 2.352 . S
Cd312 O320 2.277 . S
Cd312 O321 2.356 . S
C313 O318 1.209 . S
C313 O320 1.226 . S
O314 Cd310 2.273 . S
O314 Cd312 2.411 . S
O314 C317 1.320 . S
O315 Cd312 2.333 . S
O315 C317 1.214 . S
O316 Cd312 2.352 . S
O316 C319 1.258 . S
C317 O314 1.320 . S
C317 O315 1.214 . S
O318 Cd310 2.277 . S
O318 C313 1.209 . S
C319 O316 1.258 . S
C319 O321 1.282 . S
O320 Cd312 2.277 . S
O320 C313 1.226 . S
O321 Cd312 2.356 . S
O321 C319 1.282 . S
C322 O323 1.306 . S
C322 O325 1.160 . S
O323 C322 1.306 . S
O323 Cd324 2.228 . S
Cd324 O323 2.228 . S
Cd324 O328 2.273 . S
Cd324 O332 2.277 . S
O325 C322 1.160 . S
O325 Cd326 2.203 . S
Cd326 O325 2.203 . S
Cd326 O328 2.411 . S
Cd326 O329 2.333 . S
Cd326 O330 2.352 . S
Cd326 O334 2.277 . S
Cd326 O335 2.356 . S
C327 O332 1.209 . S
C327 O334 1.226 . S
O328 Cd324 2.273 . S
O328 Cd326 2.411 . S
O328 C331 1.320 . S
O329 Cd326 2.333 . S
O329 C331 1.214 . S
O330 Cd326 2.352 . S
O330 C333 1.258 . S
C331 O328 1.320 . S
C331 O329 1.214 . S
O332 Cd324 2.277 . S
O332 C327 1.209 . S
C333 O330 1.258 . S
C333 O335 1.282 . S
O334 Cd326 2.277 . S
O334 C327 1.226 . S
O335 Cd326 2.356 . S
O335 C333 1.282 . S
Gd336 C339 2.821 1_455 S
Gd336 O356 2.382 . S
Gd336 O358 2.457 1_455 S
Gd336 O359 2.501 1_456 S
Gd336 O360 2.451 . S
Gd336 O361 2.723 . S
Gd336 O363 2.390 1_546 S
Gd336 O367 2.315 1_556 S
Gd337 C348 2.818 . S
Gd337 O357 2.395 . S
Gd337 O361 2.327 1_554 S
Gd337 O362 2.377 . S
Gd337 O364 2.448 . S
Gd337 O365 2.506 . S
Gd337 O366 2.435 . S
Gd337 O367 2.717 . S
C338 O356 1.240 1_554 S
C338 O357 1.240 . S
C339 Gd336 2.821 1_655 S
C339 C340 1.510 . S
C339 O358 1.249 . S
C339 O359 1.252 1_556 S
C340 C339 1.510 . S
C340 C341 1.404 . S
C340 C342 1.352 1_556 S
C341 C340 1.404 . S
C341 C345 1.389 . S
C341 H368 0.930 . S
C342 C340 1.352 1_554 S
C342 C344 1.371 1_554 S
C342 H369 0.931 . S
C343 C344 1.376 . S
C343 C345 1.364 . S
C344 C342 1.371 1_556 S
C344 C343 1.376 . S
C344 H370 0.918 1_556 S
C345 C341 1.389 . S
C345 C343 1.364 . S
C345 H371 0.931 . S
C346 O360 1.256 . S
C346 O361 1.257 . S
C347 O362 1.240 1_565 S
C347 O363 1.240 . S
C348 Gd337 2.818 . S
C348 C349 1.510 . S
C348 O364 1.249 . S
C348 O365 1.252 . S
C349 C348 1.510 . S
C349 C350 1.404 . S
C349 C351 1.352 . S
C350 C349 1.404 . S
C350 C354 1.389 . S
C350 H372 0.930 . S
C351 C349 1.352 . S
C351 C353 1.374 . S
C351 H373 0.931 . S
C352 C353 1.359 . S
C352 C354 1.364 . S
C353 C351 1.374 . S
C353 C352 1.359 . S
C353 H374 0.931 1_545 S
C354 C350 1.389 . S
C354 C352 1.364 . S
C354 H375 0.931 . S
C355 O366 1.256 . S
C355 O367 1.257 . S
O356 Gd336 2.382 . S
O356 C338 1.240 1_556 S
O357 Gd337 2.395 . S
O357 C338 1.240 . S
O358 Gd336 2.457 1_655 S
O358 C339 1.249 . S
O359 Gd336 2.501 1_654 S
O359 C339 1.252 1_554 S
O360 Gd336 2.451 . S
O360 C346 1.256 . S
O361 Gd336 2.723 . S
O361 Gd337 2.327 1_556 S
O361 C346 1.257 . S
O362 Gd337 2.377 . S
O362 C347 1.240 1_545 S
O363 Gd336 2.390 1_564 S
O363 C347 1.240 . S
O364 Gd337 2.448 . S
O364 C348 1.249 . S
O365 Gd337 2.506 . S
O365 C348 1.252 . S
O366 Gd337 2.435 . S
O366 C355 1.256 . S
O367 Gd336 2.315 1_554 S
O367 Gd337 2.717 . S
O367 C355 1.257 . S
H368 C341 0.930 . S
H369 C342 0.931 . S
H370 C344 0.918 1_554 S
H371 C345 0.931 . S
H372 C350 0.930 . S
H373 C351 0.931 . S
H374 C353 0.931 1_565 S
H375 C354 0.931 . S
Gd376 C379 2.818 . S
Gd376 O396 2.377 . S
Gd376 O398 2.448 . S
Gd376 O399 2.506 . S
Gd376 O400 2.435 . S
Gd376 O401 2.717 . S
Gd376 O403 2.395 . S
Gd376 O407 2.327 . S
Gd377 C388 2.818 . S
Gd377 O397 2.395 . S
Gd377 O401 2.327 . S
Gd377 O402 2.377 . S
Gd377 O404 2.448 . S
Gd377 O405 2.506 . S
Gd377 O406 2.435 . S
Gd377 O407 2.717 . S
C378 O396 1.240 . S
C378 O397 1.240 . S
C379 Gd376 2.818 . S
C379 C380 1.510 . S
C379 O398 1.249 . S
C379 O399 1.252 . S
C380 C379 1.510 . S
C380 C381 1.404 . S
C380 C382 1.352 . S
C381 C380 1.404 . S
C381 C385 1.389 . S
C381 H408 0.930 . S
C382 C380 1.352 . S
C382 C384 1.374 . S
C382 H409 0.931 . S
C383 C384 1.359 . S
C383 C385 1.364 . S
C384 C382 1.374 . S
C384 C383 1.359 . S
C384 H410 0.931 . S
C385 C381 1.389 . S
C385 C383 1.364 . S
C385 H411 0.931 . S
C386 O400 1.256 . S
C386 O401 1.257 . S
C387 O402 1.240 . S
C387 O403 1.240 . S
C388 Gd377 2.818 . S
C388 C389 1.510 . S
C388 O404 1.249 . S
C388 O405 1.252 . S
C389 C388 1.510 . S
C389 C390 1.404 . S
C389 C391 1.352 . S
C390 C389 1.404 . S
C390 C394 1.389 . S
C390 H412 0.930 . S
C391 C389 1.352 . S
C391 C393 1.374 . S
C391 H413 0.931 . S
C392 C393 1.359 . S
C392 C394 1.364 . S
C393 C391 1.374 . S
C393 C392 1.359 . S
C393 H414 0.931 . S
C394 C390 1.389 . S
C394 C392 1.364 . S
C394 H415 0.931 . S
C395 O406 1.256 . S
C395 O407 1.257 . S
O396 Gd376 2.377 . S
O396 C378 1.240 . S
O397 Gd377 2.395 . S
O397 C378 1.240 . S
O398 Gd376 2.448 . S
O398 C379 1.249 . S
O399 Gd376 2.506 . S
O399 C379 1.252 . S
O400 Gd376 2.435 . S
O400 C386 1.256 . S
O401 Gd376 2.717 . S
O401 Gd377 2.327 . S
O401 C386 1.257 . S
O402 Gd377 2.377 . S
O402 C387 1.240 . S
O403 Gd376 2.395 . S
O403 C387 1.240 . S
O404 Gd377 2.448 . S
O404 C388 1.249 . S
O405 Gd377 2.506 . S
O405 C388 1.252 . S
O406 Gd377 2.435 . S
O406 C395 1.256 . S
O407 Gd376 2.327 . S
O407 Gd377 2.717 . S
O407 C395 1.257 . S
H408 C381 0.930 . S
H409 C382 0.931 . S
H410 C384 0.931 . S
H411 C385 0.931 . S
H412 C390 0.930 . S
H413 C391 0.931 . S
H414 C393 0.931 . S
H415 C394 0.931 . S
Gd416 C419 2.818 . S
Gd416 O436 2.377 1_545 S
Gd416 O438 2.448 . S
Gd416 O439 2.506 . S
Gd416 O440 2.435 . S
Gd416 O441 2.717 . S
Gd416 O443 2.395 . S
Gd416 O447 2.327 . S
Gd417 C428 2.818 . S
Gd417 O437 2.395 1_545 S
Gd417 O441 2.327 . S
Gd417 O442 2.377 . S
Gd417 O444 2.448 . S
Gd417 O445 2.506 . S
Gd417 O446 2.435 . S
Gd417 O447 2.717 . S
C418 O436 1.240 . S
C418 O437 1.240 . S
C419 Gd416 2.818 . S
C419 C420 1.510 1_545 S
C419 O438 1.249 . S
C419 O439 1.252 . S
C420 C419 1.510 1_565 S
C420 C421 1.404 . S
C420 C422 1.352 . S
C421 C420 1.404 . S
C421 C425 1.389 . S
C421 H448 0.930 . S
C422 C420 1.352 . S
C422 C424 1.374 . S
C422 H449 0.931 . S
C423 C424 1.359 . S
C423 C425 1.364 . S
C424 C422 1.374 . S
C424 C423 1.359 . S
C424 H450 0.931 . S
C425 C421 1.389 . S
C425 C423 1.364 . S
C425 H451 0.931 . S
C426 O440 1.256 . S
C426 O441 1.257 . S
C427 O442 1.240 . S
C427 O443 1.240 . S
C428 Gd417 2.818 . S
C428 C429 1.510 . S
C428 O444 1.249 . S
C428 O445 1.252 . S
C429 C428 1.510 . S
C429 C430 1.404 . S
C429 C431 1.352 . S
C430 C429 1.404 . S
C430 C434 1.389 . S
C430 H452 0.930 . S
C431 C429 1.352 . S
C431 C433 1.374 . S
C431 H453 0.931 . S
C432 C433 1.359 . S
C432 C434 1.364 . S
C433 C431 1.374 . S
C433 C432 1.359 . S
C433 H454 0.931 . S
C434 C430 1.389 . S
C434 C432 1.364 . S
C434 H455 0.931 . S
C435 O446 1.256 . S
C435 O447 1.257 . S
O436 Gd416 2.377 1_565 S
O436 C418 1.240 . S
O437 Gd417 2.395 1_565 S
O437 C418 1.240 . S
O438 Gd416 2.448 . S
O438 C419 1.249 . S
O439 Gd416 2.506 . S
O439 C419 1.252 . S
O440 Gd416 2.435 . S
O440 C426 1.256 . S
O441 Gd416 2.717 . S
O441 Gd417 2.327 . S
O441 C426 1.257 . S
O442 Gd417 2.377 . S
O442 C427 1.240 . S
O443 Gd416 2.395 . S
O443 C427 1.240 . S
O444 Gd417 2.448 . S
O444 C428 1.249 . S
O445 Gd417 2.506 . S
O445 C428 1.252 . S
O446 Gd417 2.435 . S
O446 C435 1.256 . S
O447 Gd416 2.327 . S
O447 Gd417 2.717 . S
O447 C435 1.257 . S
H448 C421 0.930 . S
H449 C422 0.931 . S
H450 C424 0.931 . S
H451 C425 0.931 . S
H452 C430 0.930 . S
H453 C431 0.931 . S
H454 C433 0.931 . S
H455 C434 0.931 . S
Gd456 C459 2.818 . S
Gd456 O476 2.377 . S
Gd456 O478 2.448 . S
Gd456 O479 2.506 . S
Gd456 O480 2.435 . S
Gd456 O481 2.717 . S
Gd456 O483 2.395 . S
Gd456 O487 2.327 . S
Gd457 C468 2.818 . S
Gd457 O477 2.395 . S
Gd457 O481 2.327 . S
Gd457 O482 2.377 . S
Gd457 O484 2.448 . S
Gd457 O485 2.506 . S
Gd457 O486 2.435 . S
Gd457 O487 2.717 . S
C458 O476 1.240 . S
C458 O477 1.240 . S
C459 Gd456 2.818 . S
C459 C460 1.510 . S
C459 O478 1.249 . S
C459 O479 1.252 . S
C460 C459 1.510 . S
C460 C461 1.404 . S
C460 C462 1.352 . S
C461 C460 1.404 . S
C461 C465 1.389 . S
C461 H488 0.930 . S
C462 C460 1.352 . S
C462 C464 1.374 . S
C462 H489 0.931 . S
C463 C464 1.359 . S
C463 C465 1.364 . S
C464 C462 1.374 . S
C464 C463 1.359 . S
C464 H490 0.931 . S
C465 C461 1.389 . S
C465 C463 1.364 . S
C465 H491 0.931 . S
C466 O480 1.256 . S
C466 O481 1.257 . S
C467 O482 1.240 . S
C467 O483 1.240 . S
C468 Gd457 2.818 . S
C468 C469 1.510 . S
C468 O484 1.249 . S
C468 O485 1.252 . S
C469 C468 1.510 . S
C469 C470 1.404 . S
C469 C471 1.352 . S
C470 C469 1.404 . S
C470 C474 1.389 . S
C470 H492 0.930 . S
C471 C469 1.352 . S
C471 C473 1.374 . S
C471 H493 0.931 . S
C472 C473 1.359 . S
C472 C474 1.364 . S
C473 C471 1.374 . S
C473 C472 1.359 . S
C473 H494 0.931 . S
C474 C470 1.389 . S
C474 C472 1.364 . S
C474 H495 0.931 . S
C475 O486 1.256 . S
C475 O487 1.257 . S
O476 Gd456 2.377 . S
O476 C458 1.240 . S
O477 Gd457 2.395 . S
O477 C458 1.240 . S
O478 Gd456 2.448 . S
O478 C459 1.249 . S
O479 Gd456 2.506 . S
O479 C459 1.252 . S
O480 Gd456 2.435 . S
O480 C466 1.256 . S
O481 Gd456 2.717 . S
O481 Gd457 2.327 . S
O481 C466 1.257 . S
O482 Gd457 2.377 . S
O482 C467 1.240 . S
O483 Gd456 2.395 . S
O483 C467 1.240 . S
O484 Gd457 2.448 . S
O484 C468 1.249 . S
O485 Gd457 2.506 . S
O485 C468 1.252 . S
O486 Gd457 2.435 . S
O486 C475 1.256 . S
O487 Gd456 2.327 . S
O487 Gd457 2.717 . S
O487 C475 1.257 . S
H488 C461 0.930 . S
H489 C462 0.931 . S
H490 C464 0.931 . S
H491 C465 0.931 . S
H492 C470 0.930 . S
H493 C471 0.931 . S
H494 C473 0.931 . S
H495 C474 0.931 . S
Gd496 C499 2.818 . S
Gd496 O516 2.377 . S
Gd496 O518 2.448 . S
Gd496 O519 2.506 . S
Gd496 O520 2.435 . S
Gd496 O521 2.717 . S
Gd496 O523 2.395 . S
Gd496 O527 2.327 . S
Gd497 C508 2.852 . S
Gd497 O517 2.371 1_565 S
Gd497 O521 2.307 1_565 S
Gd497 O522 2.374 1_565 S
Gd497 O524 2.481 . S
Gd497 O525 2.534 . S
Gd497 O526 2.426 1_565 S
Gd497 O527 2.685 1_565 S
C498 O516 1.240 . S
C498 O517 1.240 . S
C499 Gd496 2.818 . S
C499 C500 1.510 . S
C499 O518 1.249 . S
C499 O519 1.252 . S
C500 C499 1.510 . S
C500 C501 1.404 . S
C500 C502 1.352 . S
C501 C500 1.404 . S
C501 C505 1.389 . S
C501 H528 0.930 . S
C502 C500 1.352 . S
C502 C504 1.374 . S
C502 H529 0.931 . S
C503 C504 1.359 . S
C503 C505 1.364 . S
C504 C502 1.374 . S
C504 C503 1.359 . S
C504 H530 0.931 . S
C505 C501 1.389 . S
C505 C503 1.364 . S
C505 H531 0.931 . S
C506 O520 1.256 . S
C506 O521 1.257 . S
C507 O522 1.240 . S
C507 O523 1.240 . S
C508 Gd497 2.852 . S
C508 C509 1.510 . S
C508 O524 1.249 . S
C508 O525 1.252 . S
C509 C508 1.510 . S
C509 C510 1.404 . S
C509 C511 1.352 . S
C510 C509 1.404 . S
C510 C514 1.389 . S
C510 H532 0.930 . S
C511 C509 1.352 . S
C511 C513 1.374 . S
C511 H533 0.931 . S
C512 C513 1.359 . S
C512 C514 1.364 . S
C513 C511 1.374 . S
C513 C512 1.359 . S
C513 H534 0.931 . S
C514 C510 1.389 . S
C514 C512 1.364 . S
C514 H535 0.931 . S
C515 O526 1.256 . S
C515 O527 1.257 . S
O516 Gd496 2.377 . S
O516 C498 1.240 . S
O517 Gd497 2.371 1_545 S
O517 C498 1.240 . S
O518 Gd496 2.448 . S
O518 C499 1.249 . S
O519 Gd496 2.506 . S
O519 C499 1.252 . S
O520 Gd496 2.435 . S
O520 C506 1.256 . S
O521 Gd496 2.717 . S
O521 Gd497 2.307 1_545 S
O521 C506 1.257 . S
O522 Gd497 2.374 1_545 S
O522 C507 1.240 . S
O523 Gd496 2.395 . S
O523 C507 1.240 . S
O524 Gd497 2.481 . S
O524 C508 1.249 . S
O525 Gd497 2.534 . S
O525 C508 1.252 . S
O526 Gd497 2.426 1_545 S
O526 C515 1.256 . S
O527 Gd496 2.327 . S
O527 Gd497 2.685 1_545 S
O527 C515 1.257 . S
H528 C501 0.930 . S
H529 C502 0.931 . S
H530 C504 0.931 . S
H531 C505 0.931 . S
H532 C510 0.930 . S
H533 C511 0.931 . S
H534 C513 0.931 . S
H535 C514 0.931 . S
Gd536 C539 2.818 . S
Gd536 O556 2.377 . S
Gd536 O558 2.448 . S
Gd536 O559 2.506 . S
Gd536 O560 2.435 . S
Gd536 O561 2.717 . S
Gd536 O563 2.395 . S
Gd536 O567 2.327 . S
Gd537 C548 2.818 . S
Gd537 O557 2.395 . S
Gd537 O561 2.327 . S
Gd537 O562 2.377 . S
Gd537 O564 2.448 . S
Gd537 O565 2.506 . S
Gd537 O566 2.435 . S
Gd537 O567 2.717 . S
C538 O556 1.240 . S
C538 O557 1.240 . S
C539 Gd536 2.818 . S
C539 C540 1.510 . S
C539 O558 1.249 . S
C539 O559 1.252 . S
C540 C539 1.510 . S
C540 C541 1.404 . S
C540 C542 1.352 . S
C541 C540 1.404 . S
C541 C545 1.389 . S
C541 H568 0.930 . S
C542 C540 1.352 . S
C542 C544 1.374 . S
C542 H569 0.931 . S
C543 C544 1.359 . S
C543 C545 1.364 . S
C544 C542 1.374 . S
C544 C543 1.359 . S
C544 H570 0.931 . S
C545 C541 1.389 . S
C545 C543 1.364 . S
C545 H571 0.931 . S
C546 O560 1.256 . S
C546 O561 1.257 . S
C547 O562 1.240 . S
C547 O563 1.240 . S
C548 Gd537 2.818 . S
C548 C549 1.510 . S
C548 O564 1.249 . S
C548 O565 1.252 . S
C549 C548 1.510 . S
C549 C550 1.404 . S
C549 C551 1.352 . S
C550 C549 1.404 . S
C550 C554 1.389 . S
C550 H572 0.930 . S
C551 C549 1.352 . S
C551 C553 1.374 . S
C551 H573 0.931 . S
C552 C553 1.359 . S
C552 C554 1.364 . S
C553 C551 1.374 . S
C553 C552 1.359 . S
C553 H574 0.931 . S
C554 C550 1.389 . S
C554 C552 1.364 . S
C554 H575 0.931 . S
C555 O566 1.256 . S
C555 O567 1.257 . S
O556 Gd536 2.377 . S
O556 C538 1.240 . S
O557 Gd537 2.395 . S
O557 C538 1.240 . S
O558 Gd536 2.448 . S
O558 C539 1.249 . S
O559 Gd536 2.506 . S
O559 C539 1.252 . S
O560 Gd536 2.435 . S
O560 C546 1.256 . S
O561 Gd536 2.717 . S
O561 Gd537 2.327 . S
O561 C546 1.257 . S
O562 Gd537 2.377 . S
O562 C547 1.240 . S
O563 Gd536 2.395 . S
O563 C547 1.240 . S
O564 Gd537 2.448 . S
O564 C548 1.249 . S
O565 Gd537 2.506 . S
O565 C548 1.252 . S
O566 Gd537 2.435 . S
O566 C555 1.256 . S
O567 Gd536 2.327 . S
O567 Gd537 2.717 . S
O567 C555 1.257 . S
H568 C541 0.930 . S
H569 C542 0.931 . S
H570 C544 0.931 . S
H571 C545 0.931 . S
H572 C550 0.930 . S
H573 C551 0.931 . S
H574 C553 0.931 . S
H575 C554 0.931 . S
Gd576 C579 2.818 . S
Gd576 O596 2.377 . S
Gd576 O598 2.455 . S
Gd576 O599 2.506 . S
Gd576 O600 2.435 1_545 S
Gd576 O601 2.717 1_554 S
Gd576 O603 2.395 . S
Gd576 O607 2.327 . S
Gd577 C588 2.818 . S
Gd577 O597 2.395 . S
Gd577 O601 2.327 . S
Gd577 O602 2.377 1_556 S
Gd577 O604 2.448 . S
Gd577 O605 2.506 . S
Gd577 O606 2.435 1_556 S
Gd577 O607 2.717 1_556 S
C578 O596 1.240 . S
C578 O597 1.240 1_554 S
C579 Gd576 2.818 . S
C579 C580 1.510 . S
C579 O598 1.255 . S
C579 O599 1.252 . S
C580 C579 1.510 . S
C580 C581 1.404 1_545 S
C580 C582 1.352 . S
C581 C580 1.404 1_565 S
C581 C585 1.389 . S
C581 H608 0.930 . S
C582 C580 1.352 . S
C582 C584 1.374 . S
C582 H609 0.931 . S
C583 C584 1.359 1_565 S
C583 C585 1.364 . S
C584 C582 1.374 . S
C584 C583 1.359 1_545 S
C584 H610 0.931 . S
C585 C581 1.389 . S
C585 C583 1.364 . S
C585 H611 0.931 . S
C586 O600 1.238 1_556 S
C586 O601 1.264 1_565 S
C587 O602 1.240 . S
C587 O603 1.240 . S
C588 Gd577 2.818 . S
C588 C589 1.510 . S
C588 O604 1.249 . S
C588 O605 1.252 . S
C589 C588 1.510 . S
C589 C590 1.404 . S
C589 C591 1.352 . S
C590 C589 1.404 . S
C590 C594 1.389 . S
C590 H612 0.930 . S
C591 C589 1.352 . S
C591 C593 1.374 . S
C591 H613 0.931 . S
C592 C593 1.359 . S
C592 C594 1.364 . S
C593 C591 1.374 . S
C593 C592 1.359 . S
C593 H614 0.931 . S
C594 C590 1.389 . S
C594 C592 1.364 . S
C594 H615 0.931 . S
C595 O606 1.256 . S
C595 O607 1.257 . S
O596 Gd576 2.377 . S
O596 C578 1.240 . S
O597 Gd577 2.395 . S
O597 C578 1.240 1_556 S
O598 Gd576 2.455 . S
O598 C579 1.255 . S
O599 Gd576 2.506 . S
O599 C579 1.252 . S
O600 Gd576 2.435 1_565 S
O600 C586 1.238 1_554 S
O601 Gd576 2.717 1_556 S
O601 Gd577 2.327 . S
O601 C586 1.264 1_545 S
O602 Gd577 2.377 1_554 S
O602 C587 1.240 . S
O603 Gd576 2.395 . S
O603 C587 1.240 . S
O604 Gd577 2.448 . S
O604 C588 1.249 . S
O605 Gd577 2.506 . S
O605 C588 1.252 . S
O606 Gd577 2.435 1_554 S
O606 C595 1.256 . S
O607 Gd576 2.327 . S
O607 Gd577 2.717 1_554 S
O607 C595 1.257 . S
H608 C581 0.930 . S
H609 C582 0.931 . S
H610 C584 0.931 . S
H611 C585 0.931 . S
H612 C590 0.930 . S
H613 C591 0.931 . S
H614 C593 0.931 . S
H615 C594 0.931 . S
Gd616 C619 2.818 . S
Gd616 O636 2.377 . S
Gd616 O638 2.448 . S
Gd616 O639 2.506 . S
Gd616 O640 2.435 . S
Gd616 O641 2.717 . S
Gd616 O643 2.395 . S
Gd616 O647 2.327 . S
Gd617 C628 2.818 . S
Gd617 O637 2.395 . S
Gd617 O641 2.327 . S
Gd617 O642 2.377 . S
Gd617 O644 2.448 . S
Gd617 O645 2.506 . S
Gd617 O646 2.435 . S
Gd617 O647 2.717 . S
C618 O636 1.240 . S
C618 O637 1.240 . S
C619 Gd616 2.818 . S
C619 C620 1.510 . S
C619 O638 1.249 . S
C619 O639 1.252 . S
C620 C619 1.510 . S
C620 C621 1.404 . S
C620 C622 1.352 . S
C621 C620 1.404 . S
C621 C625 1.389 . S
C621 H648 0.930 . S
C622 C620 1.352 . S
C622 C624 1.374 . S
C622 H649 0.931 . S
C623 C624 1.359 . S
C623 C625 1.364 . S
C624 C622 1.374 . S
C624 C623 1.359 . S
C624 H650 0.931 . S
C625 C621 1.389 . S
C625 C623 1.364 . S
C625 H651 0.931 . S
C626 O640 1.256 . S
C626 O641 1.257 . S
C627 O642 1.240 . S
C627 O643 1.240 . S
C628 Gd617 2.818 . S
C628 C629 1.510 . S
C628 O644 1.249 . S
C628 O645 1.252 . S
C629 C628 1.510 . S
C629 C630 1.404 . S
C629 C631 1.352 . S
C630 C629 1.404 . S
C630 C634 1.389 . S
C630 H652 0.930 . S
C631 C629 1.352 . S
C631 C633 1.374 . S
C631 H653 0.931 . S
C632 C633 1.359 . S
C632 C634 1.364 . S
C633 C631 1.374 . S
C633 C632 1.359 . S
C633 H654 0.931 . S
C634 C630 1.389 . S
C634 C632 1.364 . S
C634 H655 0.931 . S
C635 O646 1.256 . S
C635 O647 1.257 . S
O636 Gd616 2.377 . S
O636 C618 1.240 . S
O637 Gd617 2.395 . S
O637 C618 1.240 . S
O638 Gd616 2.448 . S
O638 C619 1.249 . S
O639 Gd616 2.506 . S
O639 C619 1.252 . S
O640 Gd616 2.435 . S
O640 C626 1.256 . S
O641 Gd616 2.717 . S
O641 Gd617 2.327 . S
O641 C626 1.257 . S
O642 Gd617 2.377 . S
O642 C627 1.240 . S
O643 Gd616 2.395 . S
O643 C627 1.240 . S
O644 Gd617 2.448 . S
O644 C628 1.249 . S
O645 Gd617 2.506 . S
O645 C628 1.252 . S
O646 Gd617 2.435 . S
O646 C635 1.256 . S
O647 Gd616 2.327 . S
O647 Gd617 2.717 . S
O647 C635 1.257 . S
H648 C621 0.930 . S
H649 C622 0.931 . S
H650 C624 0.931 . S
H651 C625 0.931 . S
H652 C630 0.930 . S
H653 C631 0.931 . S
H654 C633 0.931 . S
H655 C634 0.931 . S
Gd656 C659 2.818 . S
Gd656 O676 2.377 1_554 S
Gd656 O678 2.448 . S
Gd656 O679 2.506 . S
Gd656 O680 2.435 . S
Gd656 O681 2.717 . S
Gd656 O683 2.395 . S
Gd656 O687 2.327 . S
Gd657 C668 2.802 1_556 S
Gd657 O677 2.419 . S
Gd657 O681 2.316 1_556 S
Gd657 O682 2.352 1_556 S
Gd657 O684 2.439 1_556 S
Gd657 O685 2.486 1_556 S
Gd657 O686 2.441 . S
Gd657 O687 2.720 1_556 S
C658 O676 1.240 . S
C658 O677 1.240 . S
C659 Gd656 2.818 . S
C659 C660 1.510 1_554 S
C659 O678 1.249 . S
C659 O679 1.252 . S
C660 C659 1.510 1_556 S
C660 C661 1.404 . S
C660 C662 1.352 . S
C661 C660 1.404 . S
C661 C665 1.389 . S
C661 H688 0.930 1_556 S
C662 C660 1.352 . S
C662 C664 1.374 . S
C662 H689 0.931 . S
C663 C664 1.359 . S
C663 C665 1.364 . S
C664 C662 1.374 . S
C664 C663 1.359 . S
C664 H690 0.931 . S
C665 C661 1.389 . S
C665 C663 1.364 . S
C665 H691 0.931 . S
C666 O680 1.256 . S
C666 O681 1.257 . S
C667 O682 1.240 . S
C667 O683 1.240 . S
C668 Gd657 2.802 1_554 S
C668 C669 1.510 . S
C668 O684 1.249 . S
C668 O685 1.252 . S
C669 C668 1.510 . S
C669 C670 1.404 . S
C669 C671 1.352 . S
C670 C669 1.404 . S
C670 C674 1.389 . S
C670 H692 0.930 . S
C671 C669 1.352 . S
C671 C673 1.374 . S
C671 H693 0.931 . S
C672 C673 1.359 . S
C672 C674 1.364 . S
C673 C671 1.374 . S
C673 C672 1.359 . S
C673 H694 0.931 . S
C674 C670 1.389 . S
C674 C672 1.364 . S
C674 H695 0.931 . S
C675 O686 1.256 1_554 S
C675 O687 1.257 . S
O676 Gd656 2.377 1_556 S
O676 C658 1.240 . S
O677 Gd657 2.419 . S
O677 C658 1.240 . S
O678 Gd656 2.448 . S
O678 C659 1.249 . S
O679 Gd656 2.506 . S
O679 C659 1.252 . S
O680 Gd656 2.435 . S
O680 C666 1.256 . S
O681 Gd656 2.717 . S
O681 Gd657 2.316 1_554 S
O681 C666 1.257 . S
O682 Gd657 2.352 1_554 S
O682 C667 1.240 . S
O683 Gd656 2.395 . S
O683 C667 1.240 . S
O684 Gd657 2.439 1_554 S
O684 C668 1.249 . S
O685 Gd657 2.486 1_554 S
O685 C668 1.252 . S
O686 Gd657 2.441 . S
O686 C675 1.256 1_556 S
O687 Gd656 2.327 . S
O687 Gd657 2.720 1_554 S
O687 C675 1.257 . S
H688 C661 0.930 1_554 S
H689 C662 0.931 . S
H690 C664 0.931 . S
H691 C665 0.931 . S
H692 C670 0.930 . S
H693 C671 0.931 . S
H694 C673 0.931 . S
H695 C674 0.931 . S
Gd696 C699 2.818 . S
Gd696 O716 2.377 . S
Gd696 O718 2.448 . S
Gd696 O719 2.506 . S
Gd696 O720 2.435 . S
Gd696 O721 2.717 . S
Gd696 O723 2.395 . S
Gd696 O727 2.327 . S
Gd697 C708 2.818 . S
Gd697 O717 2.395 . S
Gd697 O721 2.327 . S
Gd697 O722 2.377 . S
Gd697 O724 2.448 . S
Gd697 O725 2.506 . S
Gd697 O726 2.435 . S
Gd697 O727 2.717 . S
C698 O716 1.240 . S
C698 O717 1.240 . S
C699 Gd696 2.818 . S
C699 C700 1.510 . S
C699 O718 1.249 . S
C699 O719 1.252 . S
C700 C699 1.510 . S
C700 C701 1.404 . S
C700 C702 1.352 . S
C701 C700 1.404 . S
C701 C705 1.389 . S
C701 H728 0.930 . S
C702 C700 1.352 . S
C702 C704 1.374 . S
C702 H729 0.931 . S
C703 C704 1.372 . S
C703 C705 1.370 . S
C704 C702 1.374 . S
C704 C703 1.372 . S
C704 H730 0.931 . S
C705 C701 1.389 . S
C705 C703 1.370 . S
C705 H731 0.934 1_655 S
C706 O720 1.256 . S
C706 O721 1.257 . S
C707 O722 1.240 . S
C707 O723 1.240 . S
C708 Gd697 2.818 . S
C708 C709 1.510 . S
C708 O724 1.249 . S
C708 O725 1.252 . S
C709 C708 1.510 . S
C709 C710 1.404 . S
C709 C711 1.352 . S
C710 C709 1.404 . S
C710 C714 1.389 . S
C710 H732 0.930 . S
C711 C709 1.352 . S
C711 C713 1.374 . S
C711 H733 0.931 . S
C712 C713 1.359 . S
C712 C714 1.364 . S
C713 C711 1.374 . S
C713 C712 1.359 . S
C713 H734 0.931 . S
C714 C710 1.389 . S
C714 C712 1.364 . S
C714 H735 0.931 . S
C715 O726 1.256 . S
C715 O727 1.257 . S
O716 Gd696 2.377 . S
O716 C698 1.240 . S
O717 Gd697 2.395 . S
O717 C698 1.240 . S
O718 Gd696 2.448 . S
O718 C699 1.249 . S
O719 Gd696 2.506 . S
O719 C699 1.252 . S
O720 Gd696 2.435 . S
O720 C706 1.256 . S
O721 Gd696 2.717 . S
O721 Gd697 2.327 . S
O721 C706 1.257 . S
O722 Gd697 2.377 . S
O722 C707 1.240 . S
O723 Gd696 2.395 . S
O723 C707 1.240 . S
O724 Gd697 2.448 . S
O724 C708 1.249 . S
O725 Gd697 2.506 . S
O725 C708 1.252 . S
O726 Gd697 2.435 . S
O726 C715 1.256 . S
O727 Gd696 2.327 . S
O727 Gd697 2.717 . S
O727 C715 1.257 . S
H728 C701 0.930 . S
H729 C702 0.931 . S
H730 C704 0.931 . S
H731 C705 0.934 1_455 S
H732 C710 0.930 . S
H733 C711 0.931 . S
H734 C713 0.931 . S
H735 C714 0.931 . S
Gd736 C739 2.818 . S
Gd736 O756 2.377 . S
Gd736 O758 2.448 . S
Gd736 O759 2.506 . S
Gd736 O760 2.435 . S
Gd736 O761 2.717 . S
Gd736 O763 2.395 . S
Gd736 O767 2.327 . S
Gd737 C748 2.818 . S
Gd737 O757 2.395 . S
Gd737 O761 2.327 . S
Gd737 O762 2.377 . S
Gd737 O764 2.448 . S
Gd737 O765 2.506 . S
Gd737 O766 2.435 . S
Gd737 O767 2.717 . S
C738 O756 1.240 . S
C738 O757 1.240 . S
C739 Gd736 2.818 . S
C739 C740 1.510 . S
C739 O758 1.249 . S
C739 O759 1.252 . S
C740 C739 1.510 . S
C740 C741 1.404 . S
C740 C742 1.352 . S
C741 C740 1.404 . S
C741 C745 1.389 . S
C741 H768 0.930 . S
C742 C740 1.352 . S
C742 C744 1.374 1_455 S
C742 H769 0.931 . S
C743 C744 1.359 . S
C743 C745 1.364 1_655 S
C744 C742 1.374 1_655 S
C744 C743 1.359 . S
C744 H770 0.931 . S
C745 C741 1.389 . S
C745 C743 1.364 1_455 S
C745 H771 0.931 . S
C746 O760 1.256 . S
C746 O761 1.257 . S
C747 O762 1.240 . S
C747 O763 1.240 . S
C748 Gd737 2.818 . S
C748 C749 1.510 . S
C748 O764 1.249 . S
C748 O765 1.252 . S
C749 C748 1.510 . S
C749 C750 1.404 . S
C749 C751 1.352 . S
C750 C749 1.404 . S
C750 C754 1.389 . S
C750 H772 0.930 . S
C751 C749 1.352 . S
C751 C753 1.374 . S
C751 H773 0.931 . S
C752 C753 1.359 . S
C752 C754 1.364 . S
C753 C751 1.374 . S
C753 C752 1.359 . S
C753 H774 0.931 . S
C754 C750 1.389 . S
C754 C752 1.364 . S
C754 H775 0.931 . S
C755 O766 1.256 . S
C755 O767 1.257 . S
O756 Gd736 2.377 . S
O756 C738 1.240 . S
O757 Gd737 2.395 . S
O757 C738 1.240 . S
O758 Gd736 2.448 . S
O758 C739 1.249 . S
O759 Gd736 2.506 . S
O759 C739 1.252 . S
O760 Gd736 2.435 . S
O760 C746 1.256 . S
O761 Gd736 2.717 . S
O761 Gd737 2.327 . S
O761 C746 1.257 . S
O762 Gd737 2.377 . S
O762 C747 1.240 . S
O763 Gd736 2.395 . S
O763 C747 1.240 . S
O764 Gd737 2.448 . S
O764 C748 1.249 . S
O765 Gd737 2.506 . S
O765 C748 1.252 . S
O766 Gd737 2.435 . S
O766 C755 1.256 . S
O767 Gd736 2.327 . S
O767 Gd737 2.717 . S
O767 C755 1.257 . S
H768 C741 0.930 . S
H769 C742 0.931 . S
H770 C744 0.931 . S
H771 C745 0.931 . S
H772 C750 0.930 . S
H773 C751 0.931 . S
H774 C753 0.931 . S
H775 C754 0.931 . S
Gd776 C779 2.818 . S
Gd776 O796 2.377 . S
Gd776 O798 2.448 . S
Gd776 O799 2.506 . S
Gd776 O800 2.435 . S
Gd776 O801 2.717 . S
Gd776 O803 2.395 . S
Gd776 O807 2.327 . S
Gd777 C788 2.818 . S
Gd777 O797 2.395 . S
Gd777 O801 2.327 . S
Gd777 O802 2.377 . S
Gd777 O804 2.448 . S
Gd777 O805 2.506 . S
Gd777 O806 2.435 . S
Gd777 O807 2.717 . S
C778 O796 1.240 . S
C778 O797 1.240 . S
C779 Gd776 2.818 . S
C779 C780 1.510 . S
C779 O798 1.249 . S
C779 O799 1.252 . S
C780 C779 1.510 . S
C780 C781 1.404 . S
C780 C782 1.352 . S
C781 C780 1.404 . S
C781 C785 1.389 . S
C781 H808 0.930 . S
C782 C780 1.352 . S
C782 C784 1.374 . S
C782 H809 0.931 . S
C783 C784 1.359 . S
C783 C785 1.364 . S
C784 C782 1.374 . S
C784 C783 1.359 . S
C784 H810 0.931 . S
C785 C781 1.389 . S
C785 C783 1.364 . S
C785 H811 0.931 . S
C786 O800 1.256 . S
C786 O801 1.257 . S
C787 O802 1.240 . S
C787 O803 1.240 . S
C788 Gd777 2.818 . S
C788 C789 1.510 . S
C788 O804 1.249 . S
C788 O805 1.252 . S
C789 C788 1.510 . S
C789 C790 1.404 . S
C789 C791 1.352 . S
C790 C789 1.404 . S
C790 C794 1.389 . S
C790 H812 0.930 . S
C791 C789 1.352 . S
C791 C793 1.374 . S
C791 H813 0.931 . S
C792 C793 1.359 . S
C792 C794 1.364 . S
C793 C791 1.374 . S
C793 C792 1.359 . S
C793 H814 0.931 . S
C794 C790 1.389 . S
C794 C792 1.364 . S
C794 H815 0.931 . S
C795 O806 1.256 . S
C795 O807 1.257 . S
O796 Gd776 2.377 . S
O796 C778 1.240 . S
O797 Gd777 2.395 . S
O797 C778 1.240 . S
O798 Gd776 2.448 . S
O798 C779 1.249 . S
O799 Gd776 2.506 . S
O799 C779 1.252 . S
O800 Gd776 2.435 . S
O800 C786 1.256 . S
O801 Gd776 2.717 . S
O801 Gd777 2.327 . S
O801 C786 1.257 . S
O802 Gd777 2.377 . S
O802 C787 1.240 . S
O803 Gd776 2.395 . S
O803 C787 1.240 . S
O804 Gd777 2.448 . S
O804 C788 1.249 . S
O805 Gd777 2.506 . S
O805 C788 1.252 . S
O806 Gd777 2.435 . S
O806 C795 1.256 . S
O807 Gd776 2.327 . S
O807 Gd777 2.717 . S
O807 C795 1.257 . S
H808 C781 0.930 . S
H809 C782 0.931 . S
H810 C784 0.931 . S
H811 C785 0.931 . S
H812 C790 0.930 . S
H813 C791 0.931 . S
H814 C793 0.931 . S
H815 C794 0.931 . S
Gd816 C819 2.818 . S
Gd816 O836 2.377 . S
Gd816 O838 2.448 . S
Gd816 O839 2.506 . S
Gd816 O840 2.435 . S
Gd816 O841 2.717 . S
Gd816 O843 2.395 . S
Gd816 O847 2.327 . S
Gd817 C828 2.818 . S
Gd817 O837 2.395 . S
Gd817 O841 2.327 . S
Gd817 O842 2.377 . S
Gd817 O844 2.448 . S
Gd817 O845 2.506 . S
Gd817 O846 2.435 . S
Gd817 O847 2.717 . S
C818 O836 1.240 . S
C818 O837 1.240 . S
C819 Gd816 2.818 . S
C819 C820 1.510 . S
C819 O838 1.249 . S
C819 O839 1.252 . S
C820 C819 1.510 . S
C820 C821 1.404 . S
C820 C822 1.352 . S
C821 C820 1.404 . S
C821 C825 1.389 . S
C821 H848 0.930 . S
C822 C820 1.352 . S
C822 C824 1.374 . S
C822 H849 0.931 . S
C823 C824 1.359 . S
C823 C825 1.364 . S
C824 C822 1.374 . S
C824 C823 1.359 . S
C824 H850 0.931 . S
C825 C821 1.389 . S
C825 C823 1.364 . S
C825 H851 0.931 . S
C826 O840 1.256 . S
C826 O841 1.257 . S
C827 O842 1.240 . S
C827 O843 1.240 . S
C828 Gd817 2.818 . S
C828 C829 1.510 . S
C828 O844 1.249 . S
C828 O845 1.252 . S
C829 C828 1.510 . S
C829 C830 1.404 . S
C829 C831 1.352 . S
C830 C829 1.404 . S
C830 C834 1.389 . S
C830 H852 0.930 . S
C831 C829 1.352 . S
C831 C833 1.374 . S
C831 H853 0.931 . S
C832 C833 1.359 . S
C832 C834 1.364 . S
C833 C831 1.374 . S
C833 C832 1.359 . S
C833 H854 0.931 . S
C834 C830 1.389 . S
C834 C832 1.364 . S
C834 H855 0.931 . S
C835 O846 1.256 . S
C835 O847 1.257 . S
O836 Gd816 2.377 . S
O836 C818 1.240 . S
O837 Gd817 2.395 . S
O837 C818 1.240 . S
O838 Gd816 2.448 . S
O838 C819 1.249 . S
O839 Gd816 2.506 . S
O839 C819 1.252 . S
O840 Gd816 2.435 . S
O840 C826 1.256 . S
O841 Gd816 2.717 . S
O841 Gd817 2.327 . S
O841 C826 1.257 . S
O842 Gd817 2.377 . S
O842 C827 1.240 . S
O843 Gd816 2.395 . S
O843 C827 1.240 . S
O844 Gd817 2.448 . S
O844 C828 1.249 . S
O845 Gd817 2.506 . S
O845 C828 1.252 . S
O846 Gd817 2.435 . S
O846 C835 1.256 . S
O847 Gd816 2.327 . S
O847 Gd817 2.717 . S
O847 C835 1.257 . S
H848 C821 0.930 . S
H849 C822 0.931 . S
H850 C824 0.931 . S
H851 C825 0.931 . S
H852 C830 0.930 . S
H853 C831 0.931 . S
H854 C833 0.931 . S
H855 C834 0.931 . S
Gd856 C859 2.818 . S
Gd856 O876 2.377 . S
Gd856 O878 2.448 . S
Gd856 O879 2.506 . S
Gd856 O880 2.435 . S
Gd856 O881 2.717 . S
Gd856 O883 2.395 . S
Gd856 O887 2.327 . S
Gd857 C868 2.818 . S
Gd857 O877 2.395 . S
Gd857 O881 2.327 . S
Gd857 O882 2.377 . S
Gd857 O884 2.448 . S
Gd857 O885 2.506 . S
Gd857 O886 2.435 . S
Gd857 O887 2.717 . S
C858 O876 1.240 . S
C858 O877 1.240 . S
C859 Gd856 2.818 . S
C859 C860 1.510 . S
C859 O878 1.249 . S
C859 O879 1.252 . S
C860 C859 1.510 . S
C860 C861 1.404 . S
C860 C862 1.352 . S
C861 C860 1.404 . S
C861 C865 1.389 . S
C861 H888 0.930 . S
C862 C860 1.352 . S
C862 C864 1.374 . S
C862 H889 0.931 . S
C863 C864 1.359 . S
C863 C865 1.364 . S
C864 C862 1.374 . S
C864 C863 1.359 . S
C864 H890 0.931 . S
C865 C861 1.389 . S
C865 C863 1.364 . S
C865 H891 0.931 . S
C866 O880 1.256 . S
C866 O881 1.257 . S
C867 O882 1.240 . S
C867 O883 1.240 . S
C868 Gd857 2.818 . S
C868 C869 1.510 . S
C868 O884 1.249 . S
C868 O885 1.252 . S
C869 C868 1.510 . S
C869 C870 1.404 . S
C869 C871 1.352 . S
C870 C869 1.404 . S
C870 C874 1.389 . S
C870 H892 0.930 . S
C871 C869 1.352 . S
C871 C873 1.374 . S
C871 H893 0.931 . S
C872 C873 1.359 . S
C872 C874 1.364 . S
C873 C871 1.374 . S
C873 C872 1.359 . S
C873 H894 0.931 . S
C874 C870 1.389 . S
C874 C872 1.364 . S
C874 H895 0.931 . S
C875 O886 1.256 . S
C875 O887 1.257 . S
O876 Gd856 2.377 . S
O876 C858 1.240 . S
O877 Gd857 2.395 . S
O877 C858 1.240 . S
O878 Gd856 2.448 . S
O878 C859 1.249 . S
O879 Gd856 2.506 . S
O879 C859 1.252 . S
O880 Gd856 2.435 . S
O880 C866 1.256 . S
O881 Gd856 2.717 . S
O881 Gd857 2.327 . S
O881 C866 1.257 . S
O882 Gd857 2.377 . S
O882 C867 1.240 . S
O883 Gd856 2.395 . S
O883 C867 1.240 . S
O884 Gd857 2.448 . S
O884 C868 1.249 . S
O885 Gd857 2.506 . S
O885 C868 1.252 . S
O886 Gd857 2.435 . S
O886 C875 1.256 . S
O887 Gd856 2.327 . S
O887 Gd857 2.717 . S
O887 C875 1.257 . S
H888 C861 0.930 . S
H889 C862 0.931 . S
H890 C864 0.931 . S
H891 C865 0.931 . S
H892 C870 0.930 . S
H893 C871 0.931 . S
H894 C873 0.931 . S
H895 C874 0.931 . S
Gd896 C899 2.818 . S
Gd896 O916 2.377 . S
Gd896 O918 2.448 . S
Gd896 O919 2.506 . S
Gd896 O920 2.435 . S
Gd896 O921 2.717 . S
Gd896 O923 2.395 . S
Gd896 O927 2.327 . S
Gd897 C908 2.818 . S
Gd897 O917 2.395 . S
Gd897 O921 2.327 . S
Gd897 O922 2.377 . S
Gd897 O924 2.448 . S
Gd897 O925 2.506 . S
Gd897 O926 2.435 . S
Gd897 O927 2.717 . S
C898 O916 1.240 . S
C898 O917 1.240 . S
C899 Gd896 2.818 . S
C899 C900 1.510 . S
C899 O918 1.249 . S
C899 O919 1.252 . S
C900 C899 1.510 . S
C900 C901 1.404 . S
C900 C902 1.352 . S
C901 C900 1.404 . S
C901 C905 1.389 . S
C901 H928 0.930 . S
C902 C900 1.352 . S
C902 C904 1.374 . S
C902 H929 0.931 . S
C903 C904 1.359 . S
C903 C905 1.364 . S
C904 C902 1.374 . S
C904 C903 1.359 . S
C904 H930 0.931 . S
C905 C901 1.389 . S
C905 C903 1.364 . S
C905 H931 0.931 . S
C906 O920 1.256 . S
C906 O921 1.257 . S
C907 O922 1.240 . S
C907 O923 1.240 . S
C908 Gd897 2.818 . S
C908 C909 1.510 . S
C908 O924 1.249 . S
C908 O925 1.252 . S
C909 C908 1.510 . S
C909 C910 1.404 . S
C909 C911 1.352 . S
C910 C909 1.404 . S
C910 C914 1.389 . S
C910 H932 0.930 . S
C911 C909 1.352 . S
C911 C913 1.374 . S
C911 H933 0.931 . S
C912 C913 1.359 . S
C912 C914 1.364 . S
C913 C911 1.374 . S
C913 C912 1.359 . S
C913 H934 0.931 . S
C914 C910 1.389 . S
C914 C912 1.364 . S
C914 H935 0.931 . S
C915 O926 1.256 . S
C915 O927 1.257 . S
O916 Gd896 2.377 . S
O916 C898 1.240 . S
O917 Gd897 2.395 . S
O917 C898 1.240 . S
O918 Gd896 2.448 . S
O918 C899 1.249 . S
O919 Gd896 2.506 . S
O919 C899 1.252 . S
O920 Gd896 2.435 . S
O920 C906 1.256 . S
O921 Gd896 2.717 . S
O921 Gd897 2.327 . S
O921 C906 1.257 . S
O922 Gd897 2.377 . S
O922 C907 1.240 . S
O923 Gd896 2.395 . S
O923 C907 1.240 . S
O924 Gd897 2.448 . S
O924 C908 1.249 . S
O925 Gd897 2.506 . S
O925 C908 1.252 . S
O926 Gd897 2.435 . S
O926 C915 1.256 . S
O927 Gd896 2.327 . S
O927 Gd897 2.717 . S
O927 C915 1.257 . S
H928 C901 0.930 . S
H929 C902 0.931 . S
H930 C904 0.931 . S
H931 C905 0.931 . S
H932 C910 0.930 . S
H933 C911 0.931 . S
H934 C913 0.931 . S
H935 C914 0.931 . S
Gd936 C939 2.818 1_554 S
Gd936 O956 2.377 1_554 S
Gd936 O958 2.448 1_554 S
Gd936 O959 2.506 . S
Gd936 O960 2.435 1_554 S
Gd936 O961 2.717 1_554 S
Gd936 O963 2.395 . S
Gd936 O967 2.327 . S
Gd937 C948 2.818 1_455 S
Gd937 O957 2.395 . S
Gd937 O961 2.327 1_554 S
Gd937 O962 2.377 . S
Gd937 O964 2.469 . S
Gd937 O965 2.506 1_455 S
Gd937 O966 2.435 . S
Gd937 O967 2.717 . S
C938 O956 1.240 1_554 S
C938 O957 1.240 . S
C939 Gd936 2.818 1_556 S
C939 C940 1.510 . S
C939 O958 1.249 . S
C939 O959 1.252 1_556 S
C940 C939 1.510 . S
C940 C941 1.404 . S
C940 C942 1.352 1_556 S
C941 C940 1.404 . S
C941 C945 1.389 . S
C941 H968 0.930 . S
C942 C940 1.352 1_554 S
C942 C944 1.374 . S
C942 H969 0.931 . S
C943 C944 1.359 1_556 S
C943 C945 1.364 . S
C944 C942 1.374 . S
C944 C943 1.359 1_554 S
C944 H970 0.931 . S
C945 C941 1.389 . S
C945 C943 1.364 . S
C945 H971 0.931 . S
C946 O960 1.256 . S
C946 O961 1.257 . S
C947 O962 1.240 . S
C947 O963 1.240 . S
C948 Gd937 2.818 1_655 S
C948 C949 1.510 . S
C948 O964 1.239 1_655 S
C948 O965 1.252 . S
C949 C948 1.510 . S
C949 C950 1.404 . S
C949 C951 1.352 . S
C950 C949 1.404 . S
C950 C954 1.389 . S
C950 H972 0.930 . S
C951 C949 1.352 . S
C951 C953 1.374 . S
C951 H973 0.931 . S
C952 C953 1.359 . S
C952 C954 1.364 . S
C953 C951 1.374 . S
C953 C952 1.359 . S
C953 H974 0.931 . S
C954 C950 1.389 . S
C954 C952 1.364 . S
C954 H975 0.931 . S
C955 O966 1.256 . S
C955 O967 1.257 . S
O956 Gd936 2.377 1_556 S
O956 C938 1.240 1_556 S
O957 Gd937 2.395 . S
O957 C938 1.240 . S
O958 Gd936 2.448 1_556 S
O958 C939 1.249 . S
O959 Gd936 2.506 . S
O959 C939 1.252 1_554 S
O960 Gd936 2.435 1_556 S
O960 C946 1.256 . S
O961 Gd936 2.717 1_556 S
O961 Gd937 2.327 1_556 S
O961 C946 1.257 . S
O962 Gd937 2.377 . S
O962 C947 1.240 . S
O963 Gd936 2.395 . S
O963 C947 1.240 . S
O964 Gd937 2.469 . S
O964 C948 1.239 1_455 S
O965 Gd937 2.506 1_655 S
O965 C948 1.252 . S
O966 Gd937 2.435 . S
O966 C955 1.256 . S
O967 Gd936 2.327 . S
O967 Gd937 2.717 . S
O967 C955 1.257 . S
H968 C941 0.930 . S
H969 C942 0.931 . S
H970 C944 0.931 . S
H971 C945 0.931 . S
H972 C950 0.930 . S
H973 C951 0.931 . S
H974 C953 0.931 . S
H975 C954 0.931 . S
C976 C977 1.369 . S
C976 C978 1.419 1_556 S
C976 H980 0.930 . S
C977 C976 1.369 . S
C977 C986 1.429 . S
C978 C976 1.419 1_554 S
C978 C979 1.363 1_554 S
C978 H981 0.929 . S
C979 C978 1.363 1_556 S
C979 C985 1.428 . S
H980 C976 0.930 . S
H981 C978 0.929 . S
S982 N983 1.613 . S
S982 N984 1.610 . S
N983 S982 1.613 . S
N983 C986 1.350 1_655 S
N984 S982 1.610 . S
N984 C985 1.351 1_655 S
C985 C979 1.428 . S
C985 N984 1.351 1_455 S
C985 C986 1.434 . S
C986 C977 1.429 . S
C986 N983 1.350 1_455 S
C986 C985 1.434 . S
C987 C988 1.369 . S
C987 C989 1.419 . S
C987 H991 0.930 . S
C988 C987 1.369 . S
C988 C997 1.429 . S
C989 C987 1.419 . S
C989 C990 1.363 . S
C989 H992 0.929 . S
C990 C989 1.363 . S
C990 C996 1.428 . S
H991 C987 0.930 . S
H992 C989 0.929 . S
S993 N994 1.613 . S
S993 N995 1.610 . S
N994 S993 1.613 . S
N994 C997 1.350 . S
N995 S993 1.610 . S
N995 C996 1.351 . S
C996 C990 1.428 . S
C996 N995 1.351 . S
C996 C997 1.434 . S
C997 C988 1.429 . S
C997 N994 1.350 . S
C997 C996 1.434 . S
C998 C999 1.369 . S
C998 C1000 1.419 . S
C998 H1002 0.930 . S
C999 C998 1.369 . S
C999 C1008 1.429 . S
C1000 C998 1.419 . S
C1000 C1001 1.363 . S
C1000 H1003 0.929 . S
C1001 C1000 1.363 . S
C1001 C1007 1.428 . S
H1002 C998 0.930 . S
H1003 C1000 0.929 . S
S1004 N1005 1.613 . S
S1004 N1006 1.610 . S
N1005 S1004 1.613 . S
N1005 C1008 1.350 . S
N1006 S1004 1.610 . S
N1006 C1007 1.351 . S
C1007 C1001 1.428 . S
C1007 N1006 1.351 . S
C1007 C1008 1.434 . S
C1008 C999 1.429 . S
C1008 N1005 1.350 . S
C1008 C1007 1.434 . S
C1009 C1010 1.369 . S
C1009 C1011 1.419 . S
C1009 H1013 0.930 . S
C1010 C1009 1.369 . S
C1010 C1019 1.429 . S
C1011 C1009 1.419 . S
C1011 C1012 1.363 . S
C1011 H1014 0.929 . S
C1012 C1011 1.363 . S
C1012 C1018 1.428 . S
H1013 C1009 0.930 . S
H1014 C1011 0.929 . S
S1015 N1016 1.613 . S
S1015 N1017 1.610 . S
N1016 S1015 1.613 . S
N1016 C1019 1.350 . S
N1017 S1015 1.610 . S
N1017 C1018 1.351 . S
C1018 C1012 1.428 . S
C1018 N1017 1.351 . S
C1018 C1019 1.434 . S
C1019 C1010 1.429 . S
C1019 N1016 1.350 . S
C1019 C1018 1.434 . S
C1020 C1021 1.369 . S
C1020 C1022 1.419 . S
C1020 H1024 0.930 . S
C1021 C1020 1.369 . S
C1021 C1030 1.429 . S
C1022 C1020 1.419 . S
C1022 C1023 1.363 . S
C1022 H1025 0.929 . S
C1023 C1022 1.363 . S
C1023 C1029 1.428 . S
H1024 C1020 0.930 . S
H1025 C1022 0.929 . S
S1026 N1027 1.613 . S
S1026 N1028 1.610 1_655 S
N1027 S1026 1.613 . S
N1027 C1030 1.350 1_655 S
N1028 S1026 1.610 1_455 S
N1028 C1029 1.351 . S
C1029 C1023 1.428 . S
C1029 N1028 1.351 . S
C1029 C1030 1.434 . S
C1030 C1021 1.429 . S
C1030 N1027 1.350 1_455 S
C1030 C1029 1.434 . S
C1031 C1032 1.369 . S
C1031 C1033 1.419 . S
C1031 H1035 0.930 . S
C1032 C1031 1.369 . S
C1032 C1041 1.429 . S
C1033 C1031 1.419 . S
C1033 C1034 1.363 . S
C1033 H1036 0.929 . S
C1034 C1033 1.363 . S
C1034 C1040 1.428 . S
H1035 C1031 0.930 . S
H1036 C1033 0.929 . S
S1037 N1038 1.613 . S
S1037 N1039 1.610 . S
N1038 S1037 1.613 . S
N1038 C1041 1.350 . S
N1039 S1037 1.610 . S
N1039 C1040 1.351 . S
C1040 C1034 1.428 . S
C1040 N1039 1.351 . S
C1040 C1041 1.434 . S
C1041 C1032 1.429 . S
C1041 N1038 1.350 . S
C1041 C1040 1.434 . S
C1042 C1043 1.369 . S
C1042 C1044 1.419 . S
C1042 H1046 0.930 . S
C1043 C1042 1.369 . S
C1043 C1052 1.429 . S
C1044 C1042 1.419 . S
C1044 C1045 1.363 . S
C1044 H1047 0.929 . S
C1045 C1044 1.363 . S
C1045 C1051 1.428 . S
H1046 C1042 0.930 . S
H1047 C1044 0.929 . S
S1048 N1049 1.613 . S
S1048 N1050 1.610 . S
N1049 S1048 1.613 . S
N1049 C1052 1.350 . S
N1050 S1048 1.610 . S
N1050 C1051 1.351 . S
C1051 C1045 1.428 . S
C1051 N1050 1.351 . S
C1051 C1052 1.434 . S
C1052 C1043 1.429 . S
C1052 N1049 1.350 . S
C1052 C1051 1.434 . S
C1053 C1054 1.369 . S
C1053 C1055 1.419 . S
C1053 H1057 0.930 . S
C1054 C1053 1.369 . S
C1054 C1063 1.429 . S
C1055 C1053 1.419 . S
C1055 C1056 1.363 . S
C1055 H1058 0.929 . S
C1056 C1055 1.363 . S
C1056 C1062 1.428 . S
H1057 C1053 0.930 . S
H1058 C1055 0.929 . S
S1059 N1060 1.613 . S
S1059 N1061 1.610 . S
N1060 S1059 1.613 . S
N1060 C1063 1.350 . S
N1061 S1059 1.610 . S
N1061 C1062 1.351 . S
C1062 C1056 1.428 . S
C1062 N1061 1.351 . S
C1062 C1063 1.434 . S
C1063 C1054 1.429 . S
C1063 N1060 1.350 . S
C1063 C1062 1.434 . S
C1064 C1065 1.369 . S
C1064 C1066 1.419 . S
C1064 H1068 0.930 1_455 S
C1065 C1064 1.369 . S
C1065 C1074 1.429 . S
C1066 C1064 1.419 . S
C1066 C1067 1.363 . S
C1066 H1069 0.929 . S
C1067 C1066 1.363 . S
C1067 C1073 1.428 . S
H1068 C1064 0.930 1_655 S
H1069 C1066 0.929 . S
S1070 N1071 1.613 . S
S1070 N1072 1.610 . S
N1071 S1070 1.613 . S
N1071 C1074 1.350 . S
N1072 S1070 1.610 . S
N1072 C1073 1.351 . S
C1073 C1067 1.428 . S
C1073 N1072 1.351 . S
C1073 C1074 1.434 . S
C1074 C1065 1.429 . S
C1074 N1071 1.350 . S
C1074 C1073 1.434 . S
C1075 C1076 1.369 . S
C1075 C1077 1.419 . S
C1075 H1079 0.930 . S
C1076 C1075 1.369 . S
C1076 C1085 1.429 . S
C1077 C1075 1.419 . S
C1077 C1078 1.363 . S
C1077 H1080 0.929 . S
C1078 C1077 1.363 . S
C1078 C1084 1.428 . S
H1079 C1075 0.930 . S
H1080 C1077 0.929 . S
S1081 N1082 1.613 . S
S1081 N1083 1.610 . S
N1082 S1081 1.613 . S
N1082 C1085 1.350 . S
N1083 S1081 1.610 . S
N1083 C1084 1.351 . S
C1084 C1078 1.428 . S
C1084 N1083 1.351 . S
C1084 C1085 1.434 . S
C1085 C1076 1.429 . S
C1085 N1082 1.350 . S
C1085 C1084 1.434 . S
C1086 C1087 1.369 . S
C1086 C1088 1.419 . S
C1086 H1090 0.930 . S
C1087 C1086 1.369 . S
C1087 C1096 1.429 . S
C1088 C1086 1.419 . S
C1088 C1089 1.363 . S
C1088 H1091 0.929 . S
C1089 C1088 1.363 . S
C1089 C1095 1.428 . S
H1090 C1086 0.930 . S
H1091 C1088 0.929 . S
S1092 N1093 1.613 . S
S1092 N1094 1.610 . S
N1093 S1092 1.613 . S
N1093 C1096 1.350 . S
N1094 S1092 1.610 . S
N1094 C1095 1.351 . S
C1095 C1089 1.428 . S
C1095 N1094 1.351 . S
C1095 C1096 1.434 . S
C1096 C1087 1.429 . S
C1096 N1093 1.350 . S
C1096 C1095 1.434 . S
C1097 C1098 1.369 . S
C1097 C1099 1.419 . S
C1097 H1101 0.930 . S
C1098 C1097 1.369 . S
C1098 C1107 1.429 . S
C1099 C1097 1.419 . S
C1099 C1100 1.363 . S
C1099 H1102 0.929 . S
C1100 C1099 1.363 . S
C1100 C1106 1.428 . S
H1101 C1097 0.930 . S
H1102 C1099 0.929 . S
S1103 N1104 1.613 . S
S1103 N1105 1.610 . S
N1104 S1103 1.613 . S
N1104 C1107 1.350 . S
N1105 S1103 1.610 . S
N1105 C1106 1.351 . S
C1106 C1100 1.428 . S
C1106 N1105 1.351 . S
C1106 C1107 1.434 . S
C1107 C1098 1.429 . S
C1107 N1104 1.350 . S
C1107 C1106 1.434 . S
C1108 C1109 1.369 . S
C1108 C1110 1.419 . S
C1108 H1112 0.930 . S
C1109 C1108 1.369 . S
C1109 C1118 1.429 1_455 S
C1110 C1108 1.419 . S
C1110 C1111 1.363 . S
C1110 H1113 0.929 . S
C1111 C1110 1.363 . S
C1111 C1117 1.428 . S
H1112 C1108 0.930 . S
H1113 C1110 0.929 . S
S1114 N1115 1.613 . S
S1114 N1116 1.610 . S
N1115 S1114 1.613 . S
N1115 C1118 1.350 . S
N1116 S1114 1.610 . S
N1116 C1117 1.351 1_655 S
C1117 C1111 1.428 . S
C1117 N1116 1.351 1_455 S
C1117 C1118 1.434 1_455 S
C1118 C1109 1.429 1_655 S
C1118 N1115 1.350 . S
C1118 C1117 1.434 1_655 S
C1119 C1120 1.369 . S
C1119 C1121 1.419 . S
C1119 H1123 0.930 . S
C1120 C1119 1.369 . S
C1120 C1129 1.429 . S
C1121 C1119 1.419 . S
C1121 C1122 1.363 . S
C1121 H1124 0.929 . S
C1122 C1121 1.363 . S
C1122 C1128 1.428 . S
H1123 C1119 0.930 . S
H1124 C1121 0.929 . S
S1125 N1126 1.613 . S
S1125 N1127 1.610 . S
N1126 S1125 1.613 . S
N1126 C1129 1.350 . S
N1127 S1125 1.610 . S
N1127 C1128 1.351 . S
C1128 C1122 1.428 . S
C1128 N1127 1.351 . S
C1128 C1129 1.434 . S
C1129 C1120 1.429 . S
C1129 N1126 1.350 . S
C1129 C1128 1.434 . S
C1130 C1131 1.369 . S
C1130 C1132 1.419 . S
C1130 H1134 0.930 . S
C1131 C1130 1.369 . S
C1131 C1140 1.429 . S
C1132 C1130 1.419 . S
C1132 C1133 1.363 . S
C1132 H1135 0.929 . S
C1133 C1132 1.363 . S
C1133 C1139 1.428 . S
H1134 C1130 0.930 . S
H1135 C1132 0.929 . S
S1136 N1137 1.613 . S
S1136 N1138 1.610 . S
N1137 S1136 1.613 . S
N1137 C1140 1.350 . S
N1138 S1136 1.610 . S
N1138 C1139 1.351 . S
C1139 C1133 1.428 . S
C1139 N1138 1.351 . S
C1139 C1140 1.434 . S
C1140 C1131 1.429 . S
C1140 N1137 1.350 . S
C1140 C1139 1.434 . S
C1141 C1142 1.369 . S
C1141 C1143 1.419 . S
C1141 H1145 0.930 . S
C1142 C1141 1.369 . S
C1142 C1151 1.429 . S
C1143 C1141 1.419 . S
C1143 C1144 1.363 . S
C1143 H1146 0.929 . S
C1144 C1143 1.363 . S
C1144 C1150 1.428 . S
H1145 C1141 0.930 . S
H1146 C1143 0.929 . S
S1147 N1148 1.613 . S
S1147 N1149 1.610 . S
N1148 S1147 1.613 . S
N1148 C1151 1.350 . S
N1149 S1147 1.610 . S
N1149 C1150 1.351 . S
C1150 C1144 1.428 . S
C1150 N1149 1.351 . S
C1150 C1151 1.434 . S
C1151 C1142 1.429 . S
C1151 N1148 1.350 . S
C1151 C1150 1.434 . S
C1152 C1153 1.369 . S
C1152 C1154 1.419 . S
C1152 H1156 0.930 . S
C1153 C1152 1.369 . S
C1153 C1162 1.429 . S
C1154 C1152 1.419 . S
C1154 C1155 1.363 1_565 S
C1154 H1157 0.929 . S
C1155 C1154 1.363 1_545 S
C1155 C1161 1.428 . S
H1156 C1152 0.930 . S
H1157 C1154 0.929 . S
S1158 N1159 1.613 . S
S1158 N1160 1.610 1_556 S
N1159 S1158 1.613 . S
N1159 C1162 1.350 1_546 S
N1160 S1158 1.610 1_554 S
N1160 C1161 1.351 . S
C1161 C1155 1.428 . S
C1161 N1160 1.351 . S
C1161 C1162 1.434 1_545 S
C1162 C1153 1.429 . S
C1162 N1159 1.350 1_564 S
C1162 C1161 1.434 1_565 S
C1163 C1164 1.369 . S
C1163 C1165 1.419 . S
C1163 H1167 0.930 . S
C1164 C1163 1.369 . S
C1164 C1173 1.429 1_556 S
C1165 C1163 1.419 . S
C1165 C1166 1.363 1_556 S
C1165 H1168 0.929 . S
C1166 C1165 1.363 1_554 S
C1166 C1172 1.428 . S
H1167 C1163 0.930 . S
H1168 C1165 0.929 . S
S1169 N1170 1.613 . S
S1169 N1171 1.610 . S
N1170 S1169 1.613 . S
N1170 C1173 1.350 . S
N1171 S1169 1.610 . S
N1171 C1172 1.351 . S
C1172 C1166 1.428 . S
C1172 N1171 1.351 . S
C1172 C1173 1.434 . S
C1173 C1164 1.429 1_554 S
C1173 N1170 1.350 . S
C1173 C1172 1.434 . S
C1174 C1175 1.369 . S
C1174 C1176 1.419 . S
C1174 H1178 0.930 . S
C1175 C1174 1.369 . S
C1175 C1184 1.429 . S
C1176 C1174 1.419 . S
C1176 C1177 1.363 . S
C1176 H1179 0.929 . S
C1177 C1176 1.363 . S
C1177 C1183 1.428 . S
H1178 C1174 0.930 . S
H1179 C1176 0.929 . S
S1180 N1181 1.613 . S
S1180 N1182 1.610 . S
N1181 S1180 1.613 . S
N1181 C1184 1.350 . S
N1182 S1180 1.610 . S
N1182 C1183 1.351 . S
C1183 C1177 1.428 . S
C1183 N1182 1.351 . S
C1183 C1184 1.434 . S
C1184 C1175 1.429 . S
C1184 N1181 1.350 . S
C1184 C1183 1.434 . S
C1185 C1186 1.369 . S
C1185 C1187 1.419 . S
C1185 H1189 0.930 . S
C1186 C1185 1.369 . S
C1186 C1195 1.429 . S
C1187 C1185 1.419 . S
C1187 C1188 1.363 . S
C1187 H1190 0.929 . S
C1188 C1187 1.363 . S
C1188 C1194 1.428 . S
H1189 C1185 0.930 . S
H1190 C1187 0.929 . S
S1191 N1192 1.613 . S
S1191 N1193 1.610 . S
N1192 S1191 1.613 . S
N1192 C1195 1.350 . S
N1193 S1191 1.610 . S
N1193 C1194 1.351 . S
C1194 C1188 1.428 . S
C1194 N1193 1.351 . S
C1194 C1195 1.434 . S
C1195 C1186 1.429 . S
C1195 N1192 1.350 . S
C1195 C1194 1.434 . S
C1196 C1197 1.369 . S
C1196 C1198 1.419 . S
C1196 H1200 0.930 . S
C1197 C1196 1.369 . S
C1197 C1206 1.429 . S
C1198 C1196 1.419 . S
C1198 C1199 1.363 . S
C1198 H1201 0.929 . S
C1199 C1198 1.363 . S
C1199 C1205 1.428 . S
H1200 C1196 0.930 . S
H1201 C1198 0.929 . S
S1202 N1203 1.613 . S
S1202 N1204 1.610 . S
N1203 S1202 1.613 . S
N1203 C1206 1.350 . S
N1204 S1202 1.610 . S
N1204 C1205 1.351 . S
C1205 C1199 1.428 . S
C1205 N1204 1.351 . S
C1205 C1206 1.434 . S
C1206 C1197 1.429 . S
C1206 N1203 1.350 . S
C1206 C1205 1.434 . S
C1207 C1208 1.369 . S
C1207 C1209 1.419 . S
C1207 H1211 0.930 . S
C1208 C1207 1.369 . S
C1208 C1217 1.429 . S
C1209 C1207 1.419 . S
C1209 C1210 1.363 . S
C1209 H1212 0.929 . S
C1210 C1209 1.363 . S
C1210 C1216 1.428 . S
H1211 C1207 0.930 . S
H1212 C1209 0.929 . S
S1213 N1214 1.613 . S
S1213 N1215 1.610 . S
N1214 S1213 1.613 . S
N1214 C1217 1.350 . S
N1215 S1213 1.610 . S
N1215 C1216 1.351 . S
C1216 C1210 1.428 . S
C1216 N1215 1.351 . S
C1216 C1217 1.434 . S
C1217 C1208 1.429 . S
C1217 N1214 1.350 . S
C1217 C1216 1.434 . S
C1218 C1219 1.369 . S
C1218 C1220 1.419 . S
C1218 H1222 0.930 . S
C1219 C1218 1.369 . S
C1219 C1228 1.429 . S
C1220 C1218 1.419 . S
C1220 C1221 1.363 . S
C1220 H1223 0.929 . S
C1221 C1220 1.363 . S
C1221 C1227 1.428 . S
H1222 C1218 0.930 . S
H1223 C1220 0.929 . S
S1224 N1225 1.613 . S
S1224 N1226 1.610 . S
N1225 S1224 1.613 . S
N1225 C1228 1.350 . S
N1226 S1224 1.610 . S
N1226 C1227 1.351 . S
C1227 C1221 1.428 . S
C1227 N1226 1.351 . S
C1227 C1228 1.434 . S
C1228 C1219 1.429 . S
C1228 N1225 1.350 . S
C1228 C1227 1.434 . S
C1229 C1230 1.369 . S
C1229 C1231 1.419 . S
C1229 H1233 0.930 . S
C1230 C1229 1.369 . S
C1230 C1239 1.429 . S
C1231 C1229 1.419 . S
C1231 C1232 1.363 . S
C1231 H1234 0.929 . S
C1232 C1231 1.363 . S
C1232 C1238 1.428 . S
H1233 C1229 0.930 . S
H1234 C1231 0.929 . S
S1235 N1236 1.613 . S
S1235 N1237 1.610 . S
N1236 S1235 1.613 . S
N1236 C1239 1.350 . S
N1237 S1235 1.610 . S
N1237 C1238 1.351 . S
C1238 C1232 1.428 . S
C1238 N1237 1.351 . S
C1238 C1239 1.434 . S
C1239 C1230 1.429 . S
C1239 N1236 1.350 . S
C1239 C1238 1.434 . S
C1240 C1241 1.369 . S
C1240 C1242 1.419 . S
C1240 H1244 0.930 . S
C1241 C1240 1.369 . S
C1241 C1250 1.429 . S
C1242 C1240 1.419 . S
C1242 C1243 1.363 . S
C1242 H1245 0.929 . S
C1243 C1242 1.363 . S
C1243 C1249 1.428 . S
H1244 C1240 0.930 . S
H1245 C1242 0.929 . S
S1246 N1247 1.613 . S
S1246 N1248 1.610 . S
N1247 S1246 1.613 . S
N1247 C1250 1.350 . S
N1248 S1246 1.610 . S
N1248 C1249 1.351 . S
C1249 C1243 1.428 . S
C1249 N1248 1.351 . S
C1249 C1250 1.434 . S
C1250 C1241 1.429 . S
C1250 N1247 1.350 . S
C1250 C1249 1.434 . S
C1251 C1252 1.369 . S
C1251 C1253 1.419 . S
C1251 H1255 0.930 . S
C1252 C1251 1.369 . S
C1252 C1261 1.429 . S
C1253 C1251 1.419 . S
C1253 C1254 1.363 . S
C1253 H1256 0.929 . S
C1254 C1253 1.363 . S
C1254 C1260 1.428 . S
H1255 C1251 0.930 . S
H1256 C1253 0.929 . S
S1257 N1258 1.613 . S
S1257 N1259 1.610 . S
N1258 S1257 1.613 . S
N1258 C1261 1.350 . S
N1259 S1257 1.610 . S
N1259 C1260 1.351 . S
C1260 C1254 1.428 . S
C1260 N1259 1.351 . S
C1260 C1261 1.434 . S
C1261 C1252 1.429 . S
C1261 N1258 1.350 . S
C1261 C1260 1.434 . S
C1262 C1263 1.369 . S
C1262 C1264 1.419 . S
C1262 H1266 0.930 . S
C1263 C1262 1.369 . S
C1263 C1272 1.429 . S
C1264 C1262 1.419 . S
C1264 C1265 1.363 . S
C1264 H1267 0.929 . S
C1265 C1264 1.363 . S
C1265 C1271 1.428 . S
H1266 C1262 0.930 . S
H1267 C1264 0.929 . S
S1268 N1269 1.613 . S
S1268 N1270 1.610 . S
N1269 S1268 1.613 . S
N1269 C1272 1.350 . S
N1270 S1268 1.610 . S
N1270 C1271 1.351 . S
C1271 C1265 1.428 . S
C1271 N1270 1.351 . S
C1271 C1272 1.434 . S
C1272 C1263 1.429 . S
C1272 N1269 1.350 . S
C1272 C1271 1.434 . S
C1273 C1274 1.369 . S
C1273 C1275 1.419 . S
C1273 H1277 0.930 . S
C1274 C1273 1.369 . S
C1274 C1283 1.429 . S
C1275 C1273 1.419 . S
C1275 C1276 1.363 . S
C1275 H1278 0.929 . S
C1276 C1275 1.363 . S
C1276 C1282 1.428 . S
H1277 C1273 0.930 . S
H1278 C1275 0.929 . S
S1279 N1280 1.613 . S
S1279 N1281 1.610 . S
N1280 S1279 1.613 . S
N1280 C1283 1.350 . S
N1281 S1279 1.610 . S
N1281 C1282 1.351 . S
C1282 C1276 1.428 . S
C1282 N1281 1.351 . S
C1282 C1283 1.434 . S
C1283 C1274 1.429 . S
C1283 N1280 1.350 . S
C1283 C1282 1.434 . S
C1284 C1285 1.369 . S
C1284 C1286 1.419 . S
C1284 H1288 0.930 . S
C1285 C1284 1.369 . S
C1285 C1294 1.429 . S
C1286 C1284 1.419 . S
C1286 C1287 1.363 . S
C1286 H1289 0.929 . S
C1287 C1286 1.363 . S
C1287 C1293 1.428 . S
H1288 C1284 0.930 . S
H1289 C1286 0.929 . S
S1290 N1291 1.613 . S
S1290 N1292 1.610 . S
N1291 S1290 1.613 . S
N1291 C1294 1.350 . S
N1292 S1290 1.610 . S
N1292 C1293 1.351 . S
C1293 C1287 1.428 . S
C1293 N1292 1.351 . S
C1293 C1294 1.434 . S
C1294 C1285 1.429 . S
C1294 N1291 1.350 . S
C1294 C1293 1.434 . S
C1295 C1296 1.369 . S
C1295 C1297 1.419 . S
C1295 H1299 0.930 . S
C1296 C1295 1.369 . S
C1296 C1305 1.429 . S
C1297 C1295 1.419 . S
C1297 C1298 1.363 . S
C1297 H1300 0.929 . S
C1298 C1297 1.363 . S
C1298 C1304 1.428 . S
H1299 C1295 0.930 . S
H1300 C1297 0.929 . S
S1301 N1302 1.613 . S
S1301 N1303 1.610 . S
N1302 S1301 1.613 . S
N1302 C1305 1.350 . S
N1303 S1301 1.610 . S
N1303 C1304 1.351 . S
C1304 C1298 1.428 . S
C1304 N1303 1.351 . S
C1304 C1305 1.434 . S
C1305 C1296 1.429 . S
C1305 N1302 1.350 . S
C1305 C1304 1.434 . S
C1306 C1307 1.369 . S
C1306 C1308 1.419 . S
C1306 H1310 0.930 . S
C1307 C1306 1.369 . S
C1307 C1316 1.429 . S
C1308 C1306 1.419 . S
C1308 C1309 1.363 . S
C1308 H1311 0.917 1_556 S
C1309 C1308 1.363 . S
C1309 C1315 1.428 . S
H1310 C1306 0.930 . S
H1311 C1308 0.917 1_554 S
S1312 N1313 1.613 1_545 S
S1312 N1314 1.610 . S
N1313 S1312 1.613 1_565 S
N1313 C1316 1.350 . S
N1314 S1312 1.610 . S
N1314 C1315 1.351 1_545 S
C1315 C1309 1.428 . S
C1315 N1314 1.351 1_565 S
C1315 C1316 1.434 . S
C1316 C1307 1.429 . S
C1316 N1313 1.350 . S
C1316 C1315 1.434 . S
C1317 C1318 1.369 . S
C1317 C1319 1.419 . S
C1317 H1321 0.930 . S
C1318 C1317 1.369 . S
C1318 C1327 1.429 . S
C1319 C1317 1.419 . S
C1319 C1320 1.363 . S
C1319 H1322 0.929 . S
C1320 C1319 1.363 . S
C1320 C1326 1.428 . S
H1321 C1317 0.930 . S
H1322 C1319 0.929 . S
S1323 N1324 1.613 . S
S1323 N1325 1.610 . S
N1324 S1323 1.613 . S
N1324 C1327 1.350 . S
N1325 S1323 1.610 . S
N1325 C1326 1.351 . S
C1326 C1320 1.428 . S
C1326 N1325 1.351 . S
C1326 C1327 1.434 . S
C1327 C1318 1.429 . S
C1327 N1324 1.350 . S
C1327 C1326 1.434 . S
C1328 C1329 1.369 . S
C1328 C1330 1.419 . S
C1328 H1332 0.930 1_545 S
C1329 C1328 1.369 . S
C1329 C1338 1.429 . S
C1330 C1328 1.419 . S
C1330 C1331 1.363 . S
C1330 H1333 0.929 1_545 S
C1331 C1330 1.363 . S
C1331 C1337 1.428 . S
H1332 C1328 0.930 1_565 S
H1333 C1330 0.929 1_565 S
S1334 N1335 1.613 . S
S1334 N1336 1.610 . S
N1335 S1334 1.613 . S
N1335 C1338 1.350 . S
N1336 S1334 1.610 . S
N1336 C1337 1.351 . S
C1337 C1331 1.428 . S
C1337 N1336 1.351 . S
C1337 C1338 1.434 . S
C1338 C1329 1.429 . S
C1338 N1335 1.350 . S
C1338 C1337 1.434 . S
C1339 C1340 1.369 . S
C1339 C1341 1.419 . S
C1339 H1343 0.930 . S
C1340 C1339 1.369 . S
C1340 C1349 1.429 . S
C1341 C1339 1.419 . S
C1341 C1342 1.363 . S
C1341 H1344 0.929 . S
C1342 C1341 1.363 . S
C1342 C1348 1.428 . S
H1343 C1339 0.930 . S
H1344 C1341 0.929 . S
S1345 N1346 1.613 . S
S1345 N1347 1.610 . S
N1346 S1345 1.613 . S
N1346 C1349 1.350 . S
N1347 S1345 1.610 . S
N1347 C1348 1.351 . S
C1348 C1342 1.428 . S
C1348 N1347 1.351 . S
C1348 C1349 1.434 . S
C1349 C1340 1.429 . S
C1349 N1346 1.350 . S
C1349 C1348 1.434 . S
C1350 C1351 1.369 . S
C1350 C1352 1.419 . S
C1350 H1354 0.930 . S
C1351 C1350 1.369 . S
C1351 C1360 1.429 . S
C1352 C1350 1.419 . S
C1352 C1353 1.363 . S
C1352 H1355 0.929 . S
C1353 C1352 1.363 . S
C1353 C1359 1.428 . S
H1354 C1350 0.930 . S
H1355 C1352 0.929 . S
S1356 N1357 1.613 . S
S1356 N1358 1.610 1_565 S
N1357 S1356 1.613 . S
N1357 C1360 1.350 1_565 S
N1358 S1356 1.610 1_545 S
N1358 C1359 1.351 . S
C1359 C1353 1.428 . S
C1359 N1358 1.351 . S
C1359 C1360 1.434 . S
C1360 C1351 1.429 . S
C1360 N1357 1.350 1_545 S
C1360 C1359 1.434 . S
C1361 C1362 1.369 . S
C1361 C1363 1.419 . S
C1361 H1365 0.930 . S
C1362 C1361 1.369 . S
C1362 C1371 1.429 . S
C1363 C1361 1.419 . S
C1363 C1364 1.363 . S
C1363 H1366 0.929 . S
C1364 C1363 1.363 . S
C1364 C1370 1.428 . S
H1365 C1361 0.930 . S
H1366 C1363 0.929 . S
S1367 N1368 1.613 . S
S1367 N1369 1.610 . S
N1368 S1367 1.613 . S
N1368 C1371 1.350 . S
N1369 S1367 1.610 . S
N1369 C1370 1.351 . S
C1370 C1364 1.428 . S
C1370 N1369 1.351 . S
C1370 C1371 1.434 . S
C1371 C1362 1.429 . S
C1371 N1368 1.350 . S
C1371 C1370 1.434 . S
C1372 C1373 1.369 1_565 S
C1372 C1374 1.419 1_565 S
C1372 H1376 0.930 . S
C1373 C1372 1.369 1_545 S
C1373 C1382 1.429 . S
C1374 C1372 1.419 1_545 S
C1374 C1375 1.363 . S
C1374 H1377 0.929 1_545 S
C1375 C1374 1.363 . S
C1375 C1381 1.428 . S
H1376 C1372 0.930 . S
H1377 C1374 0.929 1_565 S
S1378 N1379 1.613 . S
S1378 N1380 1.610 . S
N1379 S1378 1.613 . S
N1379 C1382 1.350 . S
N1380 S1378 1.610 . S
N1380 C1381 1.351 . S
C1381 C1375 1.428 . S
C1381 N1380 1.351 . S
C1381 C1382 1.434 . S
C1382 C1373 1.429 . S
C1382 N1379 1.350 . S
C1382 C1381 1.434 . S
C1383 C1384 1.369 . S
C1383 C1385 1.419 . S
C1383 H1387 0.930 . S
C1384 C1383 1.369 . S
C1384 C1393 1.429 . S
C1385 C1383 1.419 . S
C1385 C1386 1.363 . S
C1385 H1388 0.929 . S
C1386 C1385 1.363 . S
C1386 C1392 1.428 . S
H1387 C1383 0.930 . S
H1388 C1385 0.929 . S
S1389 N1390 1.613 . S
S1389 N1391 1.610 . S
N1390 S1389 1.613 . S
N1390 C1393 1.350 . S
N1391 S1389 1.610 . S
N1391 C1392 1.351 . S
C1392 C1386 1.428 . S
C1392 N1391 1.351 . S
C1392 C1393 1.434 . S
C1393 C1384 1.429 . S
C1393 N1390 1.350 . S
C1393 C1392 1.434 . S
C1394 C1395 1.369 . S
C1394 C1396 1.419 . S
C1394 H1398 0.930 . S
C1395 C1394 1.369 . S
C1395 C1404 1.429 1_565 S
C1396 C1394 1.419 . S
C1396 C1397 1.363 . S
C1396 H1399 0.929 . S
C1397 C1396 1.363 . S
C1397 C1403 1.428 1_565 S
H1398 C1394 0.930 . S
H1399 C1396 0.929 . S
S1400 N1401 1.613 . S
S1400 N1402 1.610 . S
N1401 S1400 1.613 . S
N1401 C1404 1.350 . S
N1402 S1400 1.610 . S
N1402 C1403 1.351 . S
C1403 C1397 1.428 1_545 S
C1403 N1402 1.351 . S
C1403 C1404 1.434 . S
C1404 C1395 1.429 1_545 S
C1404 N1401 1.350 . S
C1404 C1403 1.434 . S
C1405 C1406 1.369 . S
C1405 C1407 1.419 . S
C1405 H1409 0.930 . S
C1406 C1405 1.369 . S
C1406 C1415 1.429 . S
C1407 C1405 1.419 . S
C1407 C1408 1.363 . S
C1407 H1410 0.929 . S
C1408 C1407 1.363 . S
C1408 C1414 1.428 . S
H1409 C1405 0.930 . S
H1410 C1407 0.929 . S
S1411 N1412 1.613 . S
S1411 N1413 1.610 . S
N1412 S1411 1.613 . S
N1412 C1415 1.350 . S
N1413 S1411 1.610 . S
N1413 C1414 1.351 . S
C1414 C1408 1.428 . S
C1414 N1413 1.351 . S
C1414 C1415 1.434 . S
C1415 C1406 1.429 . S
C1415 N1412 1.350 . S
C1415 C1414 1.434 . S
C1416 C1417 1.369 . S
C1416 C1418 1.419 1_554 S
C1416 H1420 0.930 . S
C1417 C1416 1.369 . S
C1417 C1426 1.429 . S
C1418 C1416 1.419 1_556 S
C1418 C1419 1.363 . S
C1418 H1421 0.929 . S
C1419 C1418 1.363 . S
C1419 C1425 1.428 . S
H1420 C1416 0.930 . S
H1421 C1418 0.929 . S
S1422 N1423 1.613 . S
S1422 N1424 1.610 1_554 S
N1423 S1422 1.613 . S
N1423 C1426 1.350 . S
N1424 S1422 1.610 1_556 S
N1424 C1425 1.351 . S
C1425 C1419 1.428 . S
C1425 N1424 1.351 . S
C1425 C1426 1.434 1_556 S
C1426 C1417 1.429 . S
C1426 N1423 1.350 . S
C1426 C1425 1.434 1_554 S
C1427 C1428 1.369 . S
C1427 C1429 1.419 . S
C1427 H1431 0.930 . S
C1428 C1427 1.369 . S
C1428 C1437 1.429 . S
C1429 C1427 1.419 . S
C1429 C1430 1.363 . S
C1429 H1432 0.929 . S
C1430 C1429 1.363 . S
C1430 C1436 1.428 . S
H1431 C1427 0.930 . S
H1432 C1429 0.929 . S
S1433 N1434 1.613 . S
S1433 N1435 1.610 . S
N1434 S1433 1.613 . S
N1434 C1437 1.350 . S
N1435 S1433 1.610 . S
N1435 C1436 1.351 . S
C1436 C1430 1.428 . S
C1436 N1435 1.351 . S
C1436 C1437 1.434 . S
C1437 C1428 1.429 . S
C1437 N1434 1.350 . S
C1437 C1436 1.434 . S
C1438 C1439 1.369 . S
C1438 C1440 1.419 . S
C1438 H1442 0.930 . S
C1439 C1438 1.369 . S
C1439 C1448 1.429 . S
C1440 C1438 1.419 . S
C1440 C1441 1.363 . S
C1440 H1443 0.929 . S
C1441 C1440 1.363 . S
C1441 C1447 1.428 . S
H1442 C1438 0.930 . S
H1443 C1440 0.929 . S
S1444 N1445 1.613 . S
S1444 N1446 1.610 . S
N1445 S1444 1.613 . S
N1445 C1448 1.350 . S
N1446 S1444 1.610 . S
N1446 C1447 1.351 . S
C1447 C1441 1.428 . S
C1447 N1446 1.351 . S
C1447 C1448 1.434 . S
C1448 C1439 1.429 . S
C1448 N1445 1.350 . S
C1448 C1447 1.434 . S
C1449 C1450 1.369 . S
C1449 C1451 1.419 . S
C1449 H1453 0.930 . S
C1450 C1449 1.369 . S
C1450 C1459 1.429 . S
C1451 C1449 1.419 . S
C1451 C1452 1.363 . S
C1451 H1454 0.929 . S
C1452 C1451 1.363 . S
C1452 C1458 1.428 . S
H1453 C1449 0.930 . S
H1454 C1451 0.929 . S
S1455 N1456 1.613 . S
S1455 N1457 1.610 . S
N1456 S1455 1.613 . S
N1456 C1459 1.350 . S
N1457 S1455 1.610 . S
N1457 C1458 1.351 . S
C1458 C1452 1.428 . S
C1458 N1457 1.351 . S
C1458 C1459 1.434 . S
C1459 C1450 1.429 . S
C1459 N1456 1.350 . S
C1459 C1458 1.434 . S
C1460 C1461 1.357 1_565 S
C1460 C1462 1.440 . S
C1460 H1464 0.922 . S
C1461 C1460 1.357 1_545 S
C1461 C1470 1.429 . S
C1462 C1460 1.440 . S
C1462 C1463 1.363 . S
C1462 H1465 0.929 . S
C1463 C1462 1.363 . S
C1463 C1469 1.441 . S
H1464 C1460 0.922 . S
H1465 C1462 0.929 . S
S1466 N1467 1.613 . S
S1466 N1468 1.610 1_545 S
N1467 S1466 1.613 . S
N1467 C1470 1.350 . S
N1468 S1466 1.610 1_565 S
N1468 C1469 1.360 . S
C1469 C1463 1.441 . S
C1469 N1468 1.360 . S
C1469 C1470 1.413 1_565 S
C1470 C1461 1.429 . S
C1470 N1467 1.350 . S
C1470 C1469 1.413 1_545 S
C1471 C1472 1.369 . S
C1471 C1473 1.419 . S
C1471 H1475 0.930 . S
C1472 C1471 1.369 . S
C1472 C1481 1.429 . S
C1473 C1471 1.419 . S
C1473 C1474 1.363 . S
C1473 H1476 0.929 . S
C1474 C1473 1.363 . S
C1474 C1480 1.428 . S
H1475 C1471 0.930 . S
H1476 C1473 0.929 . S
S1477 N1478 1.613 . S
S1477 N1479 1.610 . S
N1478 S1477 1.613 . S
N1478 C1481 1.350 . S
N1479 S1477 1.610 . S
N1479 C1480 1.351 . S
C1480 C1474 1.428 . S
C1480 N1479 1.351 . S
C1480 C1481 1.434 . S
C1481 C1472 1.429 . S
C1481 N1478 1.350 . S
C1481 C1480 1.434 . S
C1482 C1483 1.369 . S
C1482 C1484 1.419 . S
C1482 H1486 0.930 . S
C1483 C1482 1.369 . S
C1483 C1492 1.429 . S
C1484 C1482 1.419 . S
C1484 C1485 1.363 . S
C1484 H1487 0.929 . S
C1485 C1484 1.363 . S
C1485 C1491 1.428 . S
H1486 C1482 0.930 . S
H1487 C1484 0.929 . S
S1488 N1489 1.613 . S
S1488 N1490 1.610 . S
N1489 S1488 1.613 . S
N1489 C1492 1.350 . S
N1490 S1488 1.610 . S
N1490 C1491 1.351 . S
C1491 C1485 1.428 . S
C1491 N1490 1.351 . S
C1491 C1492 1.434 . S
C1492 C1483 1.429 . S
C1492 N1489 1.350 . S
C1492 C1491 1.434 . S
C1493 C1494 1.369 . S
C1493 C1495 1.419 . S
C1493 H1497 0.930 . S
C1494 C1493 1.369 . S
C1494 C1503 1.429 . S
C1495 C1493 1.419 . S
C1495 C1496 1.363 . S
C1495 H1498 0.929 . S
C1496 C1495 1.363 . S
C1496 C1502 1.428 . S
H1497 C1493 0.930 . S
H1498 C1495 0.929 . S
S1499 N1500 1.613 . S
S1499 N1501 1.610 . S
N1500 S1499 1.613 . S
N1500 C1503 1.350 . S
N1501 S1499 1.610 . S
N1501 C1502 1.351 . S
C1502 C1496 1.428 . S
C1502 N1501 1.351 . S
C1502 C1503 1.434 . S
C1503 C1494 1.429 . S
C1503 N1500 1.350 . S
C1503 C1502 1.434 . S
C1504 C1505 1.369 . S
C1504 C1506 1.419 . S
C1504 H1508 0.930 . S
C1505 C1504 1.369 . S
C1505 C1514 1.429 . S
C1506 C1504 1.419 . S
C1506 C1507 1.363 . S
C1506 H1509 0.929 . S
C1507 C1506 1.363 . S
C1507 C1513 1.428 . S
H1508 C1504 0.930 . S
H1509 C1506 0.929 . S
S1510 N1511 1.613 . S
S1510 N1512 1.610 . S
N1511 S1510 1.613 . S
N1511 C1514 1.350 . S
N1512 S1510 1.610 . S
N1512 C1513 1.351 . S
C1513 C1507 1.428 . S
C1513 N1512 1.351 . S
C1513 C1514 1.434 . S
C1514 C1505 1.429 . S
C1514 N1511 1.350 . S
C1514 C1513 1.434 . S
C1515 C1516 1.369 . S
C1515 C1517 1.419 . S
C1515 H1519 0.930 . S
C1516 C1515 1.369 . S
C1516 C1525 1.429 . S
C1517 C1515 1.419 . S
C1517 C1518 1.363 . S
C1517 H1520 0.929 . S
C1518 C1517 1.363 . S
C1518 C1524 1.428 . S
H1519 C1515 0.930 . S
H1520 C1517 0.929 . S
S1521 N1522 1.613 . S
S1521 N1523 1.610 . S
N1522 S1521 1.613 . S
N1522 C1525 1.350 . S
N1523 S1521 1.610 . S
N1523 C1524 1.351 . S
C1524 C1518 1.428 . S
C1524 N1523 1.351 . S
C1524 C1525 1.434 . S
C1525 C1516 1.429 . S
C1525 N1522 1.350 . S
C1525 C1524 1.434 . S
C1526 C1527 1.369 . S
C1526 C1528 1.419 1_556 S
C1526 H1530 0.930 . S
C1527 C1526 1.369 . S
C1527 C1536 1.429 . S
C1528 C1526 1.419 1_554 S
C1528 C1529 1.371 . S
C1528 H1531 0.929 . S
C1529 C1528 1.371 . S
C1529 C1535 1.417 1_554 S
H1530 C1526 0.930 . S
H1531 C1528 0.929 . S
S1532 N1533 1.613 . S
S1532 N1534 1.610 . S
N1533 S1532 1.613 . S
N1533 C1536 1.350 . S
N1534 S1532 1.610 . S
N1534 C1535 1.351 . S
C1535 C1529 1.417 1_556 S
C1535 N1534 1.351 . S
C1535 C1536 1.434 . S
C1536 C1527 1.429 . S
C1536 N1533 1.350 . S
C1536 C1535 1.434 . S
C1537 C1538 1.369 . S
C1537 C1539 1.419 1_455 S
C1537 H1541 0.930 . S
C1538 C1537 1.369 . S
C1538 C1547 1.429 . S
C1539 C1537 1.419 1_655 S
C1539 C1540 1.363 . S
C1539 H1542 0.929 . S
C1540 C1539 1.363 . S
C1540 C1546 1.428 1_655 S
H1541 C1537 0.930 . S
H1542 C1539 0.929 . S
S1543 N1544 1.613 . S
S1543 N1545 1.610 . S
N1544 S1543 1.613 . S
N1544 C1547 1.350 . S
N1545 S1543 1.610 . S
N1545 C1546 1.351 . S
C1546 C1540 1.428 1_455 S
C1546 N1545 1.351 . S
C1546 C1547 1.434 . S
C1547 C1538 1.429 . S
C1547 N1544 1.350 . S
C1547 C1546 1.434 . S
C1548 C1549 1.369 . S
C1548 C1550 1.419 . S
C1548 H1552 0.930 . S
C1549 C1548 1.369 . S
C1549 C1558 1.429 . S
C1550 C1548 1.419 . S
C1550 C1551 1.363 . S
C1550 H1553 0.929 . S
C1551 C1550 1.363 . S
C1551 C1557 1.428 . S
H1552 C1548 0.930 . S
H1553 C1550 0.929 . S
S1554 N1555 1.613 . S
S1554 N1556 1.610 . S
N1555 S1554 1.613 . S
N1555 C1558 1.350 . S
N1556 S1554 1.610 . S
N1556 C1557 1.351 . S
C1557 C1551 1.428 . S
C1557 N1556 1.351 . S
C1557 C1558 1.434 . S
C1558 C1549 1.429 . S
C1558 N1555 1.350 . S
C1558 C1557 1.434 . S
C1559 C1560 1.369 . S
C1559 C1561 1.419 . S
C1559 H1563 0.930 . S
C1560 C1559 1.369 . S
C1560 C1569 1.429 . S
C1561 C1559 1.419 . S
C1561 C1562 1.363 . S
C1561 H1564 0.929 . S
C1562 C1561 1.363 . S
C1562 C1568 1.428 . S
H1563 C1559 0.930 . S
H1564 C1561 0.929 . S
S1565 N1566 1.613 . S
S1565 N1567 1.610 1_455 S
N1566 S1565 1.613 . S
N1566 C1569 1.350 . S
N1567 S1565 1.610 1_655 S
N1567 C1568 1.351 1_655 S
C1568 C1562 1.428 . S
C1568 N1567 1.351 1_455 S
C1568 C1569 1.434 . S
C1569 C1560 1.429 . S
C1569 N1566 1.350 . S
C1569 C1568 1.434 . S
C1570 C1571 1.369 1_455 S
C1570 C1572 1.419 . S
C1570 H1574 0.930 . S
C1571 C1570 1.369 1_655 S
C1571 C1580 1.427 1_655 S
C1572 C1570 1.419 . S
C1572 C1573 1.363 . S
C1572 H1575 0.929 . S
C1573 C1572 1.363 . S
C1573 C1579 1.428 . S
H1574 C1570 0.930 . S
H1575 C1572 0.929 . S
S1576 N1577 1.613 . S
S1576 N1578 1.610 1_655 S
N1577 S1576 1.613 . S
N1577 C1580 1.338 1_655 S
N1578 S1576 1.610 1_455 S
N1578 C1579 1.351 . S
C1579 C1573 1.428 . S
C1579 N1578 1.351 . S
C1579 C1580 1.448 . S
C1580 C1571 1.427 1_455 S
C1580 N1577 1.338 1_455 S
C1580 C1579 1.448 . S
C1581 C1582 1.369 . S
C1581 C1583 1.419 . S
C1581 H1585 0.930 . S
C1582 C1581 1.369 . S
C1582 C1591 1.429 . S
C1583 C1581 1.419 . S
C1583 C1584 1.363 . S
C1583 H1586 0.929 . S
C1584 C1583 1.363 . S
C1584 C1590 1.428 . S
H1585 C1581 0.930 . S
H1586 C1583 0.929 . S
S1587 N1588 1.613 . S
S1587 N1589 1.610 . S
N1588 S1587 1.613 . S
N1588 C1591 1.350 . S
N1589 S1587 1.610 . S
N1589 C1590 1.351 . S
C1590 C1584 1.428 . S
C1590 N1589 1.351 . S
C1590 C1591 1.434 . S
C1591 C1582 1.429 . S
C1591 N1588 1.350 . S
C1591 C1590 1.434 . S
C1592 C1593 1.369 . S
C1592 C1594 1.419 . S
C1592 H1596 0.930 . S
C1593 C1592 1.369 . S
C1593 C1602 1.429 . S
C1594 C1592 1.419 . S
C1594 C1595 1.363 . S
C1594 H1597 0.929 . S
C1595 C1594 1.363 . S
C1595 C1601 1.428 . S
H1596 C1592 0.930 . S
H1597 C1594 0.929 . S
S1598 N1599 1.613 . S
S1598 N1600 1.610 . S
N1599 S1598 1.613 . S
N1599 C1602 1.350 . S
N1600 S1598 1.610 . S
N1600 C1601 1.351 . S
C1601 C1595 1.428 . S
C1601 N1600 1.351 . S
C1601 C1602 1.434 . S
C1602 C1593 1.429 . S
C1602 N1599 1.350 . S
C1602 C1601 1.434 . S
C1603 C1604 1.369 . S
C1603 C1605 1.419 . S
C1603 H1607 0.930 . S
C1604 C1603 1.369 . S
C1604 C1613 1.429 . S
C1605 C1603 1.419 . S
C1605 C1606 1.363 . S
C1605 H1608 0.929 . S
C1606 C1605 1.363 . S
C1606 C1612 1.428 . S
H1607 C1603 0.930 . S
H1608 C1605 0.929 . S
S1609 N1610 1.613 . S
S1609 N1611 1.610 . S
N1610 S1609 1.613 . S
N1610 C1613 1.350 . S
N1611 S1609 1.610 . S
N1611 C1612 1.351 . S
C1612 C1606 1.428 . S
C1612 N1611 1.351 . S
C1612 C1613 1.434 . S
C1613 C1604 1.429 . S
C1613 N1610 1.350 . S
C1613 C1612 1.434 . S
C1614 C1615 1.369 . S
C1614 C1616 1.419 . S
C1614 H1618 0.930 . S
C1615 C1614 1.369 . S
C1615 C1624 1.429 . S
C1616 C1614 1.419 . S
C1616 C1617 1.363 . S
C1616 H1619 0.929 . S
C1617 C1616 1.363 . S
C1617 C1623 1.428 . S
H1618 C1614 0.930 . S
H1619 C1616 0.929 . S
S1620 N1621 1.613 . S
S1620 N1622 1.610 . S
N1621 S1620 1.613 . S
N1621 C1624 1.350 . S
N1622 S1620 1.610 . S
N1622 C1623 1.351 . S
C1623 C1617 1.428 . S
C1623 N1622 1.351 . S
C1623 C1624 1.434 . S
C1624 C1615 1.429 . S
C1624 N1621 1.350 . S
C1624 C1623 1.434 . S
C1625 C1626 1.369 . S
C1625 C1627 1.419 . S
C1625 H1629 0.930 . S
C1626 C1625 1.369 . S
C1626 C1635 1.429 . S
C1627 C1625 1.419 . S
C1627 C1628 1.363 . S
C1627 H1630 0.929 . S
C1628 C1627 1.363 . S
C1628 C1634 1.428 . S
H1629 C1625 0.930 . S
H1630 C1627 0.929 . S
S1631 N1632 1.613 . S
S1631 N1633 1.610 . S
N1632 S1631 1.613 . S
N1632 C1635 1.350 . S
N1633 S1631 1.610 . S
N1633 C1634 1.351 . S
C1634 C1628 1.428 . S
C1634 N1633 1.351 . S
C1634 C1635 1.434 . S
C1635 C1626 1.429 . S
C1635 N1632 1.350 . S
C1635 C1634 1.434 . S
C1636 C1637 1.369 . S
C1636 C1638 1.419 . S
C1636 H1640 0.930 . S
C1637 C1636 1.369 . S
C1637 C1646 1.429 . S
C1638 C1636 1.419 . S
C1638 C1639 1.363 . S
C1638 H1641 0.929 . S
C1639 C1638 1.363 . S
C1639 C1645 1.428 . S
H1640 C1636 0.930 . S
H1641 C1638 0.929 . S
S1642 N1643 1.613 . S
S1642 N1644 1.610 . S
N1643 S1642 1.613 . S
N1643 C1646 1.350 . S
N1644 S1642 1.610 . S
N1644 C1645 1.351 . S
C1645 C1639 1.428 . S
C1645 N1644 1.351 . S
C1645 C1646 1.434 . S
C1646 C1637 1.429 . S
C1646 N1643 1.350 . S
C1646 C1645 1.434 . S
C1647 C1648 1.369 . S
C1647 C1649 1.419 . S
C1647 H1651 0.930 . S
C1648 C1647 1.369 . S
C1648 C1657 1.429 . S
C1649 C1647 1.419 . S
C1649 C1650 1.363 . S
C1649 H1652 0.929 . S
C1650 C1649 1.363 . S
C1650 C1656 1.428 . S
H1651 C1647 0.930 . S
H1652 C1649 0.929 . S
S1653 N1654 1.613 . S
S1653 N1655 1.610 . S
N1654 S1653 1.613 . S
N1654 C1657 1.350 . S
N1655 S1653 1.610 . S
N1655 C1656 1.351 . S
C1656 C1650 1.428 . S
C1656 N1655 1.351 . S
C1656 C1657 1.434 . S
C1657 C1648 1.429 . S
C1657 N1654 1.350 . S
C1657 C1656 1.434 . S
C1658 C1659 1.369 . S
C1658 C1660 1.419 . S
C1658 H1662 0.930 . S
C1659 C1658 1.369 . S
C1659 C1668 1.429 . S
C1660 C1658 1.419 . S
C1660 C1661 1.363 . S
C1660 H1663 0.929 . S
C1661 C1660 1.363 . S
C1661 C1667 1.428 . S
H1662 C1658 0.930 . S
H1663 C1660 0.929 . S
S1664 N1665 1.613 . S
S1664 N1666 1.610 . S
N1665 S1664 1.613 . S
N1665 C1668 1.350 . S
N1666 S1664 1.610 . S
N1666 C1667 1.351 . S
C1667 C1661 1.428 . S
C1667 N1666 1.351 . S
C1667 C1668 1.434 . S
C1668 C1659 1.429 . S
C1668 N1665 1.350 . S
C1668 C1667 1.434 . S
C1669 C1670 1.369 . S
C1669 C1671 1.419 . S
C1669 H1673 0.930 . S
C1670 C1669 1.369 . S
C1670 C1679 1.429 . S
C1671 C1669 1.419 . S
C1671 C1672 1.363 . S
C1671 H1674 0.929 . S
C1672 C1671 1.363 . S
C1672 C1678 1.428 . S
H1673 C1669 0.930 . S
H1674 C1671 0.929 . S
S1675 N1676 1.613 . S
S1675 N1677 1.610 . S
N1676 S1675 1.613 . S
N1676 C1679 1.350 . S
N1677 S1675 1.610 . S
N1677 C1678 1.351 . S
C1678 C1672 1.428 . S
C1678 N1677 1.351 . S
C1678 C1679 1.434 . S
C1679 C1670 1.429 . S
C1679 N1676 1.350 . S
C1679 C1678 1.434 . S
C1680 C1681 1.369 . S
C1680 C1682 1.419 . S
C1680 H1684 0.930 . S
C1681 C1680 1.369 . S
C1681 C1690 1.429 . S
C1682 C1680 1.419 . S
C1682 C1683 1.363 . S
C1682 H1685 0.929 . S
C1683 C1682 1.363 . S
C1683 C1689 1.428 . S
H1684 C1680 0.930 . S
H1685 C1682 0.929 . S
S1686 N1687 1.613 . S
S1686 N1688 1.610 . S
N1687 S1686 1.613 . S
N1687 C1690 1.350 . S
N1688 S1686 1.610 . S
N1688 C1689 1.351 . S
C1689 C1683 1.428 . S
C1689 N1688 1.351 . S
C1689 C1690 1.434 . S
C1690 C1681 1.429 . S
C1690 N1687 1.350 . S
C1690 C1689 1.434 . S
C1691 C1692 1.369 . S
C1691 C1693 1.419 . S
C1691 H1695 0.930 . S
C1692 C1691 1.369 . S
C1692 C1701 1.429 . S
C1693 C1691 1.419 . S
C1693 C1694 1.363 . S
C1693 H1696 0.929 . S
C1694 C1693 1.363 . S
C1694 C1700 1.428 . S
H1695 C1691 0.930 . S
H1696 C1693 0.929 . S
S1697 N1698 1.613 . S
S1697 N1699 1.610 . S
N1698 S1697 1.613 . S
N1698 C1701 1.350 . S
N1699 S1697 1.610 . S
N1699 C1700 1.351 . S
C1700 C1694 1.428 . S
C1700 N1699 1.351 . S
C1700 C1701 1.434 . S
C1701 C1692 1.429 . S
C1701 N1698 1.350 . S
C1701 C1700 1.434 . S
C1702 C1703 1.369 . S
C1702 C1704 1.419 . S
C1702 H1706 0.930 . S
C1703 C1702 1.369 . S
C1703 C1712 1.429 . S
C1704 C1702 1.419 . S
C1704 C1705 1.363 . S
C1704 H1707 0.929 . S
C1705 C1704 1.363 . S
C1705 C1711 1.428 . S
H1706 C1702 0.930 . S
H1707 C1704 0.929 . S
S1708 N1709 1.613 . S
S1708 N1710 1.610 . S
N1709 S1708 1.613 . S
N1709 C1712 1.350 . S
N1710 S1708 1.610 . S
N1710 C1711 1.351 . S
C1711 C1705 1.428 . S
C1711 N1710 1.351 . S
C1711 C1712 1.434 . S
C1712 C1703 1.429 . S
C1712 N1709 1.350 . S
C1712 C1711 1.434 . S
C1713 C1714 1.369 1_546 S
C1713 C1715 1.419 1_556 S
C1713 H1717 0.930 . S
C1714 C1713 1.369 1_564 S
C1714 C1723 1.429 . S
C1715 C1713 1.419 1_554 S
C1715 C1716 1.363 . S
C1715 H1718 0.929 1_554 S
C1716 C1715 1.363 . S
C1716 C1722 1.428 1_545 S
H1717 C1713 0.930 . S
H1718 C1715 0.929 1_556 S
S1719 N1720 1.613 . S
S1719 N1721 1.610 . S
N1720 S1719 1.613 . S
N1720 C1723 1.350 . S
N1721 S1719 1.610 . S
N1721 C1722 1.351 . S
C1722 C1716 1.428 1_565 S
C1722 N1721 1.351 . S
C1722 C1723 1.434 . S
C1723 C1714 1.429 . S
C1723 N1720 1.350 . S
C1723 C1722 1.434 . S
C1724 C1725 1.369 . S
C1724 C1726 1.419 . S
C1724 H1728 0.930 . S
C1725 C1724 1.369 . S
C1725 C1734 1.429 . S
C1726 C1724 1.419 . S
C1726 C1727 1.363 . S
C1726 H1729 0.929 . S
C1727 C1726 1.363 . S
C1727 C1733 1.428 . S
H1728 C1724 0.930 . S
H1729 C1726 0.929 . S
S1730 N1731 1.613 . S
S1730 N1732 1.610 . S
N1731 S1730 1.613 . S
N1731 C1734 1.350 . S
N1732 S1730 1.610 . S
N1732 C1733 1.351 . S
C1733 C1727 1.428 . S
C1733 N1732 1.351 . S
C1733 C1734 1.434 . S
C1734 C1725 1.429 . S
C1734 N1731 1.350 . S
C1734 C1733 1.434 . S
C1735 C1736 1.369 . S
C1735 C1737 1.419 . S
C1735 H1739 0.930 . S
C1736 C1735 1.369 . S
C1736 C1745 1.429 . S
C1737 C1735 1.419 . S
C1737 C1738 1.363 . S
C1737 H1740 0.929 . S
C1738 C1737 1.363 . S
C1738 C1744 1.428 . S
H1739 C1735 0.930 . S
H1740 C1737 0.929 . S
S1741 N1742 1.613 . S
S1741 N1743 1.610 1_556 S
N1742 S1741 1.613 . S
N1742 C1745 1.350 1_556 S
N1743 S1741 1.610 1_554 S
N1743 C1744 1.351 . S
C1744 C1738 1.428 . S
C1744 N1743 1.351 . S
C1744 C1745 1.434 . S
C1745 C1736 1.429 . S
C1745 N1742 1.350 1_554 S
C1745 C1744 1.434 . S
C1746 C1747 1.369 . S
C1746 C1748 1.419 . S
C1746 H1750 0.930 . S
C1747 C1746 1.369 . S
C1747 C1756 1.429 . S
C1748 C1746 1.419 . S
C1748 C1749 1.363 . S
C1748 H1751 0.929 . S
C1749 C1748 1.363 . S
C1749 C1755 1.428 . S
H1750 C1746 0.930 . S
H1751 C1748 0.929 . S
S1752 N1753 1.613 . S
S1752 N1754 1.610 . S
N1753 S1752 1.613 . S
N1753 C1756 1.350 . S
N1754 S1752 1.610 . S
N1754 C1755 1.351 . S
C1755 C1749 1.428 . S
C1755 N1754 1.351 . S
C1755 C1756 1.434 . S
C1756 C1747 1.429 . S
C1756 N1753 1.350 . S
C1756 C1755 1.434 . S
C1757 C1758 1.369 . S
C1757 C1759 1.419 . S
C1757 H1761 0.930 . S
C1758 C1757 1.369 . S
C1758 C1767 1.429 . S
C1759 C1757 1.419 . S
C1759 C1760 1.363 . S
C1759 H1762 0.929 . S
C1760 C1759 1.363 . S
C1760 C1766 1.428 . S
H1761 C1757 0.930 . S
H1762 C1759 0.929 . S
S1763 N1764 1.613 . S
S1763 N1765 1.610 . S
N1764 S1763 1.613 . S
N1764 C1767 1.350 . S
N1765 S1763 1.610 . S
N1765 C1766 1.351 . S
C1766 C1760 1.428 . S
C1766 N1765 1.351 . S
C1766 C1767 1.434 . S
C1767 C1758 1.429 . S
C1767 N1764 1.350 . S
C1767 C1766 1.434 . S
C1768 C1769 1.369 . S
C1768 C1770 1.419 . S
C1768 H1772 0.930 . S
C1769 C1768 1.369 . S
C1769 C1778 1.429 . S
C1770 C1768 1.419 . S
C1770 C1771 1.363 . S
C1770 H1773 0.929 . S
C1771 C1770 1.363 . S
C1771 C1777 1.428 . S
H1772 C1768 0.930 . S
H1773 C1770 0.929 . S
S1774 N1775 1.613 . S
S1774 N1776 1.610 . S
N1775 S1774 1.613 . S
N1775 C1778 1.350 . S
N1776 S1774 1.610 . S
N1776 C1777 1.351 . S
C1777 C1771 1.428 . S
C1777 N1776 1.351 . S
C1777 C1778 1.434 . S
C1778 C1769 1.429 . S
C1778 N1775 1.350 . S
C1778 C1777 1.434 . S
C1779 C1780 1.369 . S
C1779 C1781 1.419 . S
C1779 H1783 0.930 . S
C1780 C1779 1.369 . S
C1780 C1789 1.429 . S
C1781 C1779 1.419 . S
C1781 C1782 1.363 . S
C1781 H1784 0.929 . S
C1782 C1781 1.363 . S
C1782 C1788 1.428 . S
H1783 C1779 0.930 . S
H1784 C1781 0.929 . S
S1785 N1786 1.613 . S
S1785 N1787 1.610 . S
N1786 S1785 1.613 . S
N1786 C1789 1.350 . S
N1787 S1785 1.610 . S
N1787 C1788 1.351 . S
C1788 C1782 1.428 . S
C1788 N1787 1.351 . S
C1788 C1789 1.434 . S
C1789 C1780 1.429 . S
C1789 N1786 1.350 . S
C1789 C1788 1.434 . S
C1790 C1791 1.369 . S
C1790 C1792 1.419 . S
C1790 H1794 0.930 . S
C1791 C1790 1.369 . S
C1791 C1800 1.429 . S
C1792 C1790 1.419 . S
C1792 C1793 1.363 . S
C1792 H1795 0.929 . S
C1793 C1792 1.363 . S
C1793 C1799 1.428 . S
H1794 C1790 0.930 . S
H1795 C1792 0.929 . S
S1796 N1797 1.613 . S
S1796 N1798 1.610 . S
N1797 S1796 1.613 . S
N1797 C1800 1.350 . S
N1798 S1796 1.610 . S
N1798 C1799 1.351 . S
C1799 C1793 1.428 . S
C1799 N1798 1.351 . S
C1799 C1800 1.434 . S
C1800 C1791 1.429 . S
C1800 N1797 1.350 . S
C1800 C1799 1.434 . S
C1801 C1802 1.369 . S
C1801 C1803 1.419 . S
C1801 H1805 0.930 . S
C1802 C1801 1.369 . S
C1802 C1811 1.429 . S
C1803 C1801 1.419 . S
C1803 C1804 1.363 . S
C1803 H1806 0.929 . S
C1804 C1803 1.363 . S
C1804 C1810 1.428 . S
H1805 C1801 0.930 . S
H1806 C1803 0.929 . S
S1807 N1808 1.613 . S
S1807 N1809 1.610 . S
N1808 S1807 1.613 . S
N1808 C1811 1.350 . S
N1809 S1807 1.610 . S
N1809 C1810 1.351 . S
C1810 C1804 1.428 . S
C1810 N1809 1.351 . S
C1810 C1811 1.434 . S
C1811 C1802 1.429 . S
C1811 N1808 1.350 . S
C1811 C1810 1.434 . S
C1812 C1813 1.369 . S
C1812 C1814 1.419 . S
C1812 H1816 0.930 . S
C1813 C1812 1.369 . S
C1813 C1822 1.429 . S
C1814 C1812 1.419 . S
C1814 C1815 1.363 . S
C1814 H1817 0.929 . S
C1815 C1814 1.363 . S
C1815 C1821 1.428 . S
H1816 C1812 0.930 . S
H1817 C1814 0.929 . S
S1818 N1819 1.613 . S
S1818 N1820 1.610 . S
N1819 S1818 1.613 . S
N1819 C1822 1.350 . S
N1820 S1818 1.610 . S
N1820 C1821 1.351 . S
C1821 C1815 1.428 . S
C1821 N1820 1.351 . S
C1821 C1822 1.434 . S
C1822 C1813 1.429 . S
C1822 N1819 1.350 . S
C1822 C1821 1.434 . S
C1823 C1824 1.369 . S
C1823 C1825 1.419 . S
C1823 H1827 0.930 . S
C1824 C1823 1.369 . S
C1824 C1833 1.429 . S
C1825 C1823 1.419 . S
C1825 C1826 1.363 . S
C1825 H1828 0.929 . S
C1826 C1825 1.363 . S
C1826 C1832 1.428 . S
H1827 C1823 0.930 . S
H1828 C1825 0.929 . S
S1829 N1830 1.613 . S
S1829 N1831 1.610 . S
N1830 S1829 1.613 . S
N1830 C1833 1.350 . S
N1831 S1829 1.610 . S
N1831 C1832 1.351 . S
C1832 C1826 1.428 . S
C1832 N1831 1.351 . S
C1832 C1833 1.434 . S
C1833 C1824 1.429 . S
C1833 N1830 1.350 . S
C1833 C1832 1.434 . S
C1834 C1835 1.369 . S
C1834 C1836 1.419 . S
C1834 H1838 0.930 . S
C1835 C1834 1.369 . S
C1835 C1844 1.429 . S
C1836 C1834 1.419 . S
C1836 C1837 1.363 . S
C1836 H1839 0.929 . S
C1837 C1836 1.363 . S
C1837 C1843 1.428 . S
H1838 C1834 0.930 . S
H1839 C1836 0.929 . S
S1840 N1841 1.613 . S
S1840 N1842 1.610 . S
N1841 S1840 1.613 . S
N1841 C1844 1.350 . S
N1842 S1840 1.610 . S
N1842 C1843 1.351 . S
C1843 C1837 1.428 . S
C1843 N1842 1.351 . S
C1843 C1844 1.434 . S
C1844 C1835 1.429 . S
C1844 N1841 1.350 . S
C1844 C1843 1.434 . S
C1845 C1846 1.369 . S
C1845 C1847 1.419 . S
C1845 H1849 0.930 . S
C1846 C1845 1.369 . S
C1846 C1855 1.429 . S
C1847 C1845 1.419 . S
C1847 C1848 1.363 . S
C1847 H1850 0.929 . S
C1848 C1847 1.363 . S
C1848 C1854 1.428 . S
H1849 C1845 0.930 . S
H1850 C1847 0.929 . S
S1851 N1852 1.613 . S
S1851 N1853 1.610 . S
N1852 S1851 1.613 . S
N1852 C1855 1.350 . S
N1853 S1851 1.610 . S
N1853 C1854 1.351 . S
C1854 C1848 1.428 . S
C1854 N1853 1.351 . S
C1854 C1855 1.434 . S
C1855 C1846 1.429 . S
C1855 N1852 1.350 . S
C1855 C1854 1.434 . S
C1856 C1857 1.369 . S
C1856 C1858 1.419 . S
C1856 H1860 0.930 . S
C1857 C1856 1.369 . S
C1857 C1866 1.429 . S
C1858 C1856 1.419 . S
C1858 C1859 1.363 . S
C1858 H1861 0.929 . S
C1859 C1858 1.363 . S
C1859 C1865 1.428 . S
H1860 C1856 0.930 . S
H1861 C1858 0.929 . S
S1862 N1863 1.613 . S
S1862 N1864 1.610 . S
N1863 S1862 1.613 . S
N1863 C1866 1.350 . S
N1864 S1862 1.610 . S
N1864 C1865 1.351 . S
C1865 C1859 1.428 . S
C1865 N1864 1.351 . S
C1865 C1866 1.434 . S
C1866 C1857 1.429 . S
C1866 N1863 1.350 . S
C1866 C1865 1.434 . S
C1867 C1868 1.369 . S
C1867 C1869 1.419 . S
C1867 H1871 0.930 . S
C1868 C1867 1.369 . S
C1868 C1877 1.429 . S
C1869 C1867 1.419 . S
C1869 C1870 1.363 . S
C1869 H1872 0.929 . S
C1870 C1869 1.363 . S
C1870 C1876 1.428 . S
H1871 C1867 0.930 . S
H1872 C1869 0.929 . S
S1873 N1874 1.613 . S
S1873 N1875 1.610 . S
N1874 S1873 1.613 . S
N1874 C1877 1.350 . S
N1875 S1873 1.610 . S
N1875 C1876 1.351 . S
C1876 C1870 1.428 . S
C1876 N1875 1.351 . S
C1876 C1877 1.434 . S
C1877 C1868 1.429 . S
C1877 N1874 1.350 . S
C1877 C1876 1.434 . S
C1878 C1879 1.369 . S
C1878 C1880 1.419 1_655 S
C1878 H1882 0.930 . S
C1879 C1878 1.369 . S
C1879 C1888 1.429 1_655 S
C1880 C1878 1.419 1_455 S
C1880 C1881 1.363 . S
C1880 H1883 0.929 . S
C1881 C1880 1.363 . S
C1881 C1887 1.428 . S
H1882 C1878 0.930 . S
H1883 C1880 0.929 . S
S1884 N1885 1.613 . S
S1884 N1886 1.610 . S
N1885 S1884 1.613 . S
N1885 C1888 1.350 . S
N1886 S1884 1.610 . S
N1886 C1887 1.351 . S
C1887 C1881 1.428 . S
C1887 N1886 1.351 . S
C1887 C1888 1.434 . S
C1888 C1879 1.429 1_455 S
C1888 N1885 1.350 . S
C1888 C1887 1.434 . S
C1889 C1890 1.369 . S
C1889 C1891 1.419 . S
C1889 H1893 0.930 . S
C1890 C1889 1.369 . S
C1890 C1899 1.429 . S
C1891 C1889 1.419 . S
C1891 C1892 1.363 . S
C1891 H1894 0.929 . S
C1892 C1891 1.363 . S
C1892 C1898 1.428 . S
H1893 C1889 0.930 . S
H1894 C1891 0.929 . S
S1895 N1896 1.613 . S
S1895 N1897 1.610 . S
N1896 S1895 1.613 . S
N1896 C1899 1.350 . S
N1897 S1895 1.610 . S
N1897 C1898 1.351 . S
C1898 C1892 1.428 . S
C1898 N1897 1.351 . S
C1898 C1899 1.434 . S
C1899 C1890 1.429 . S
C1899 N1896 1.350 . S
C1899 C1898 1.434 . S
C1900 C1901 1.369 . S
C1900 C1902 1.419 . S
C1900 H1904 0.930 . S
C1901 C1900 1.369 . S
C1901 C1910 1.429 . S
C1902 C1900 1.419 . S
C1902 C1903 1.363 . S
C1902 H1905 0.929 . S
C1903 C1902 1.363 . S
C1903 C1909 1.428 . S
H1904 C1900 0.930 . S
H1905 C1902 0.929 . S
S1906 N1907 1.613 . S
S1906 N1908 1.610 . S
N1907 S1906 1.613 . S
N1907 C1910 1.350 . S
N1908 S1906 1.610 . S
N1908 C1909 1.351 . S
C1909 C1903 1.428 . S
C1909 N1908 1.351 . S
C1909 C1910 1.434 . S
C1910 C1901 1.429 . S
C1910 N1907 1.350 . S
C1910 C1909 1.434 . S
C1911 C1912 1.369 . S
C1911 C1913 1.419 . S
C1911 H1915 0.930 . S
C1912 C1911 1.369 . S
C1912 C1921 1.429 . S
C1913 C1911 1.419 . S
C1913 C1914 1.363 . S
C1913 H1916 0.929 . S
C1914 C1913 1.363 . S
C1914 C1920 1.428 . S
H1915 C1911 0.930 . S
H1916 C1913 0.929 . S
S1917 N1918 1.613 . S
S1917 N1919 1.610 . S
N1918 S1917 1.613 . S
N1918 C1921 1.350 . S
N1919 S1917 1.610 . S
N1919 C1920 1.351 . S
C1920 C1914 1.428 . S
C1920 N1919 1.351 . S
C1920 C1921 1.434 . S
C1921 C1912 1.429 . S
C1921 N1918 1.350 . S
C1921 C1920 1.434 . S
C1922 C1923 1.369 . S
C1922 C1924 1.419 . S
C1922 H1926 0.930 . S
C1923 C1922 1.369 . S
C1923 C1932 1.429 . S
C1924 C1922 1.419 . S
C1924 C1925 1.363 . S
C1924 H1927 0.929 . S
C1925 C1924 1.363 . S
C1925 C1931 1.428 . S
H1926 C1922 0.930 . S
H1927 C1924 0.929 . S
S1928 N1929 1.613 . S
S1928 N1930 1.610 . S
N1929 S1928 1.613 . S
N1929 C1932 1.350 . S
N1930 S1928 1.610 . S
N1930 C1931 1.351 . S
C1931 C1925 1.428 . S
C1931 N1930 1.351 . S
C1931 C1932 1.434 . S
C1932 C1923 1.429 . S
C1932 N1929 1.350 . S
C1932 C1931 1.434 . S
C1933 C1934 1.369 . S
C1933 C1935 1.419 . S
C1933 H1937 0.930 . S
C1934 C1933 1.369 . S
C1934 C1943 1.429 . S
C1935 C1933 1.419 . S
C1935 C1936 1.363 . S
C1935 H1938 0.929 . S
C1936 C1935 1.363 . S
C1936 C1942 1.428 . S
H1937 C1933 0.930 . S
H1938 C1935 0.929 . S
S1939 N1940 1.613 . S
S1939 N1941 1.610 . S
N1940 S1939 1.613 . S
N1940 C1943 1.350 . S
N1941 S1939 1.610 . S
N1941 C1942 1.351 . S
C1942 C1936 1.428 . S
C1942 N1941 1.351 . S
C1942 C1943 1.434 . S
C1943 C1934 1.429 . S
C1943 N1940 1.350 . S
C1943 C1942 1.434 . S
C1944 C1945 1.369 . S
C1944 C1946 1.419 . S
C1944 H1948 0.930 . S
C1945 C1944 1.369 . S
C1945 C1954 1.429 . S
C1946 C1944 1.419 . S
C1946 C1947 1.363 . S
C1946 H1949 0.929 . S
C1947 C1946 1.363 . S
C1947 C1953 1.428 . S
H1948 C1944 0.930 . S
H1949 C1946 0.929 . S
S1950 N1951 1.613 . S
S1950 N1952 1.610 . S
N1951 S1950 1.613 . S
N1951 C1954 1.350 . S
N1952 S1950 1.610 . S
N1952 C1953 1.351 . S
C1953 C1947 1.428 . S
C1953 N1952 1.351 . S
C1953 C1954 1.434 . S
C1954 C1945 1.429 . S
C1954 N1951 1.350 . S
C1954 C1953 1.434 . S
C1955 C1956 1.369 . S
C1955 C1957 1.419 1_565 S
C1955 H1959 0.930 . S
C1956 C1955 1.369 . S
C1956 C1965 1.429 . S
C1957 C1955 1.419 1_545 S
C1957 C1958 1.363 1_545 S
C1957 H1960 0.929 . S
C1958 C1957 1.363 1_565 S
C1958 C1964 1.428 . S
H1959 C1955 0.930 . S
H1960 C1957 0.929 . S
S1961 N1962 1.613 . S
S1961 N1963 1.610 1_655 S
N1962 S1961 1.613 . S
N1962 C1965 1.350 . S
N1963 S1961 1.610 1_455 S
N1963 C1964 1.351 1_455 S
C1964 C1958 1.428 . S
C1964 N1963 1.351 1_655 S
C1964 C1965 1.434 . S
C1965 C1956 1.429 . S
C1965 N1962 1.350 . S
C1965 C1964 1.434 . S
C1966 C1967 1.369 . S
C1966 C1968 1.419 . S
C1966 H1970 0.930 . S
C1967 C1966 1.369 . S
C1967 C1976 1.429 . S
C1968 C1966 1.419 . S
C1968 C1969 1.363 . S
C1968 H1971 0.929 . S
C1969 C1968 1.363 . S
C1969 C1975 1.428 . S
H1970 C1966 0.930 . S
H1971 C1968 0.929 . S
S1972 N1973 1.613 . S
S1972 N1974 1.610 . S
N1973 S1972 1.613 . S
N1973 C1976 1.350 . S
N1974 S1972 1.610 . S
N1974 C1975 1.351 . S
C1975 C1969 1.428 . S
C1975 N1974 1.351 . S
C1975 C1976 1.434 . S
C1976 C1967 1.429 . S
C1976 N1973 1.350 . S
C1976 C1975 1.434 . S
C1977 C1978 1.369 . S
C1977 C1979 1.419 . S
C1977 H1981 0.930 . S
C1978 C1977 1.369 . S
C1978 C1987 1.429 . S
C1979 C1977 1.419 . S
C1979 C1980 1.363 . S
C1979 H1982 0.929 . S
C1980 C1979 1.363 . S
C1980 C1986 1.428 . S
H1981 C1977 0.930 . S
H1982 C1979 0.929 . S
S1983 N1984 1.613 1_556 S
S1983 N1985 1.610 1_556 S
N1984 S1983 1.613 1_554 S
N1984 C1987 1.350 . S
N1985 S1983 1.610 1_554 S
N1985 C1986 1.351 . S
C1986 C1980 1.428 . S
C1986 N1985 1.351 . S
C1986 C1987 1.434 . S
C1987 C1978 1.429 . S
C1987 N1984 1.350 . S
C1987 C1986 1.434 . S
C1988 C1989 1.369 . S
C1988 C1990 1.419 . S
C1988 H1992 0.930 . S
C1989 C1988 1.369 . S
C1989 C1998 1.429 . S
C1990 C1988 1.419 . S
C1990 C1991 1.363 . S
C1990 H1993 0.929 . S
C1991 C1990 1.363 . S
C1991 C1997 1.428 . S
H1992 C1988 0.930 . S
H1993 C1990 0.929 . S
S1994 N1995 1.613 . S
S1994 N1996 1.610 . S
N1995 S1994 1.613 . S
N1995 C1998 1.350 . S
N1996 S1994 1.610 . S
N1996 C1997 1.351 . S
C1997 C1991 1.428 . S
C1997 N1996 1.351 . S
C1997 C1998 1.434 . S
C1998 C1989 1.429 . S
C1998 N1995 1.350 . S
C1998 C1997 1.434 . S
C1999 C2000 1.369 . S
C1999 C2001 1.419 . S
C1999 H2003 0.930 . S
C2000 C1999 1.369 . S
C2000 C2009 1.426 1_554 S
C2001 C1999 1.419 . S
C2001 C2002 1.363 1_554 S
C2001 H2004 0.929 . S
C2002 C2001 1.363 1_556 S
C2002 C2008 1.428 . S
H2003 C1999 0.930 . S
H2004 C2001 0.929 . S
S2005 N2006 1.613 . S
S2005 N2007 1.610 . S
N2006 S2005 1.613 . S
N2006 C2009 1.349 . S
N2007 S2005 1.610 . S
N2007 C2008 1.351 . S
C2008 C2002 1.428 . S
C2008 N2007 1.351 . S
C2008 C2009 1.438 . S
C2009 C2000 1.426 1_556 S
C2009 N2006 1.349 . S
C2009 C2008 1.438 . S
C2010 C2011 1.369 . S
C2010 C2012 1.419 . S
C2010 H2014 0.930 . S
C2011 C2010 1.369 . S
C2011 C2020 1.429 . S
C2012 C2010 1.419 . S
C2012 C2013 1.363 . S
C2012 H2015 0.929 . S
C2013 C2012 1.363 . S
C2013 C2019 1.428 . S
H2014 C2010 0.930 . S
H2015 C2012 0.929 . S
S2016 N2017 1.613 . S
S2016 N2018 1.610 . S
N2017 S2016 1.613 . S
N2017 C2020 1.350 . S
N2018 S2016 1.610 . S
N2018 C2019 1.351 . S
C2019 C2013 1.428 . S
C2019 N2018 1.351 . S
C2019 C2020 1.434 . S
C2020 C2011 1.429 . S
C2020 N2017 1.350 . S
C2020 C2019 1.434 . S
C2021 C2022 1.369 . S
C2021 C2023 1.419 . S
C2021 H2025 0.930 . S
C2022 C2021 1.369 . S
C2022 C2031 1.429 . S
C2023 C2021 1.419 . S
C2023 C2024 1.363 . S
C2023 H2026 0.929 . S
C2024 C2023 1.363 . S
C2024 C2030 1.428 . S
H2025 C2021 0.930 . S
H2026 C2023 0.929 . S
S2027 N2028 1.613 . S
S2027 N2029 1.610 . S
N2028 S2027 1.613 . S
N2028 C2031 1.350 . S
N2029 S2027 1.610 . S
N2029 C2030 1.351 . S
C2030 C2024 1.428 . S
C2030 N2029 1.351 . S
C2030 C2031 1.434 . S
C2031 C2022 1.429 . S
C2031 N2028 1.350 . S
C2031 C2030 1.434 . S
C977 C109 2.286 . S
C979 C338 2.284 1_556 S
C988 C65 2.237 . S
C990 C395 2.257 . S
C999 C75 1.425 . S
C1001 C418 1.399 . S
C1012 C472 1.378 . S
C1010 C84 1.393 . S
C1021 C25 1.628 . S
C1023 C512 1.553 . S
C1034 C543 0.795 . S
C1032 C28 0.787 . S
C1045 C595 1.666 . S
C1043 C47 1.541 . S
C1054 C9 2.048 . S
C1056 C618 1.994 . S
C1067 C355 2.579 . S
C1065 C233 2.585 1_455 S
C1076 C249 0.851 . S
C1078 C392 0.840 . S
C1089 C435 1.297 . S
C1087 C275 1.293 . S
C1100 C458 1.521 . S
C1098 C173 1.532 . S
C1109 C224 2.068 1_455 S
C1111 C498 2.106 . S
C1122 C546 1.475 . S
C1120 C243 1.480 . S
C1133 C592 0.618 . S
C1131 C266 0.601 . S
C1144 C635 2.125 . S
C1142 C179 2.130 . S
C1155 C352 1.651 . S
C1153 C163 1.719 . S
C1164 C289 1.975 . S
C1166 C675 1.989 . S
C1177 C707 2.630 . S
C1175 C333 2.651 . S
C1188 C738 0.691 1_655 S
C1186 C308 0.693 . S
C1197 C123 1.834 . S
C1199 C632 1.782 . S
C1208 C126 1.641 . S
C1210 C432 1.623 . S
C1219 C327 2.282 . S
C1221 C795 2.282 . S
C1232 C818 0.822 . S
C1230 C299 0.855 . S
C1243 C347 2.294 . S
C1241 C67 2.305 . S
C1254 C826 2.273 . S
C1252 C98 2.188 . S
C1263 C89 1.447 . S
C1265 C427 1.425 . S
C1274 C79 1.455 . S
C1276 C783 1.406 . S
C1287 C503 1.551 . S
C1285 C11 1.639 . S
C1296 C51 0.793 . S
C1298 C712 0.795 . S
C1309 C586 1.738 . S
C1307 C33 1.606 . S
C1320 C867 1.956 . S
C1318 C14 2.021 . S
C1331 C346 2.557 . S
C1329 C140 2.549 . S
C1342 C823 0.813 . S
C1340 C319 0.847 . S
C1351 C112 1.299 . S
C1353 C426 1.312 . S
C1362 C285 1.546 . S
C1364 C787 1.539 . S
C1373 C149 2.129 . S
C1375 C507 2.121 . S
C1386 C715 1.491 . S
C1384 C313 1.491 . S
C1395 C121 0.604 . S
C1397 C583 0.622 . S
C1406 C291 2.160 . S
C1408 C866 2.142 . S
C1417 C182 1.762 . S
C1419 C343 1.637 . S
C1428 C168 1.928 . S
C1430 C666 1.996 . S
C1439 C263 2.693 . S
C1441 C538 2.666 . S
C1450 C247 0.753 . S
C1452 C747 0.752 . S
C1463 C863 1.743 . S
C1461 C277 1.844 . S
C1472 C219 1.696 . S
C1474 C423 1.631 . S
C1485 C466 2.314 . S
C1483 C257 2.317 . S
C1496 C387 0.811 . S
C1494 C201 0.804 . S
C1505 C81 2.282 . S
C1507 C898 2.284 . S
C1518 C835 2.257 . S
C1516 C93 2.236 . S
C1527 C103 1.424 . S
C1529 C938 1.397 . S
C1538 C56 1.392 . S
C1540 C792 1.376 . S
C1549 C53 1.631 . S
C1551 C672 1.552 . S
C1562 C703 0.761 1_455 S
C1560 C0 0.800 . S
C1573 C755 1.667 . S
C1571 C19 1.537 . S
C1584 C858 1.996 . S
C1582 C37 2.047 . S
C1595 C915 2.580 . S
C1593 C261 2.584 . S
C1604 C193 0.861 . S
C1606 C832 0.840 . S
C1617 C955 1.298 . S
C1615 C205 1.296 . S
C1628 C778 1.524 . S
C1626 C215 1.535 . S
C1639 C658 2.110 . S
C1637 C252 2.062 . S
C1648 C187 1.481 . S
C1650 C706 1.478 . S
C1661 C752 0.632 . S
C1659 C196 0.593 . S
C1670 C221 2.130 . S
C1672 C875 2.127 . S
C1683 C912 1.650 . S
C1681 C317 1.714 . S
C1692 C135 1.976 . S
C1694 C515 1.989 . S
C1705 C547 2.630 . S
C1703 C151 2.651 . S
C1716 C578 0.694 . S
C1714 C154 0.692 . S
C1727 C872 1.775 . S
C1725 C305 1.845 . S
C1736 C280 1.643 . S
C1738 C952 1.621 . S
C1749 C475 2.281 . S
C1747 C145 2.279 . S
C1760 C378 0.823 . S
C1758 C117 0.859 . S
C1769 C95 2.307 . S
C1771 C907 2.292 . S
C1782 C386 2.273 . S
C1780 C70 2.186 . S
C1791 C61 1.450 . S
C1793 C947 1.427 . S
C1802 C107 1.451 . S
C1804 C463 1.414 . S
C1813 C39 1.649 . S
C1815 C663 1.541 . S
C1826 C552 0.786 . S
C1824 C23 0.797 . S
C1835 C5 1.597 . S
C1837 C746 1.729 . S
C1846 C42 2.021 . S
C1848 C627 1.958 . S
C1859 C906 2.558 . S
C1857 C322 2.549 . S
C1868 C165 0.832 . S
C1870 C383 0.824 . S
C1881 C946 1.312 . S
C1879 C294 1.295 . S
C1890 C131 1.547 . S
C1892 C467 1.540 . S
C1901 C331 2.133 . S
C1903 C667 2.122 . S
C1914 C555 1.490 . S
C1912 C159 1.494 . S
C1923 C303 0.601 . S
C1925 C743 0.641 . S
C1936 C626 2.142 . S
C1934 C137 2.161 . S
C1947 C903 1.638 . S
C1945 C238 1.760 . S
C1958 C506 1.996 1_665 S
C1956 C210 1.935 . S
C1967 C235 2.692 . S
C1969 C698 2.669 . S
C1980 C587 0.754 . S
C1978 C191 0.759 . S
C1989 C207 1.835 . S
C1991 C623 1.752 . S
C2000 C177 1.696 . S
C2002 C943 1.630 . S
C2013 C786 2.313 . S
C2011 C229 2.316 1_565 S
C2024 C827 0.805 . S
C2022 C271 0.807 . S
