# Generated by pormake.
# Topology anh, (6,3)-cn, num edge types: 1
# Building blocks:
#     Node 0, Type 0, BuildingBlock: BETDEL_clean_sbu_0, # of connection points: 6
#     Node 1, Type 0, BuildingBlock: BETDEL_clean_sbu_0, # of connection points: 6
#     Node 2, Type 0, BuildingBlock: BETDEL_clean_sbu_0, # of connection points: 6
#     Node 3, Type 1, BuildingBlock: OLANEW_clean_sbu_2, # of connection points: 3
#     Node 4, Type 1, BuildingBlock: OLANEW_clean_sbu_2, # of connection points: 3
#     Node 5, Type 1, BuildingBlock: OLANEW_clean_sbu_2, # of connection points: 3
#     Node 6, Type 1, BuildingBlock: OLANEW_clean_sbu_2, # of connection points: 3
#     Node 7, Type 1, BuildingBlock: OLANEW_clean_sbu_2, # of connection points: 3
#     Node 8, Type 1, BuildingBlock: OLANEW_clean_sbu_2, # of connection points: 3
#     Edge 9, Type (0, 1), BuildingBlock: UKIBIB_clean_linker_0, # of connection points: 2
#     Edge 10, Type (0, 1), BuildingBlock: UKIBIB_clean_linker_0, # of connection points: 2
#     Edge 11, Type (0, 1), BuildingBlock: UKIBIB_clean_linker_0, # of connection points: 2
#     Edge 12, Type (0, 1), BuildingBlock: UKIBIB_clean_linker_0, # of connection points: 2
#     Edge 13, Type (0, 1), BuildingBlock: UKIBIB_clean_linker_0, # of connection points: 2
#     Edge 14, Type (0, 1), BuildingBlock: UKIBIB_clean_linker_0, # of connection points: 2
#     Edge 15, Type (0, 1), BuildingBlock: UKIBIB_clean_linker_0, # of connection points: 2
#     Edge 16, Type (0, 1), BuildingBlock: UKIBIB_clean_linker_0, # of connection points: 2
#     Edge 17, Type (0, 1), BuildingBlock: UKIBIB_clean_linker_0, # of connection points: 2
#     Edge 18, Type (0, 1), BuildingBlock: UKIBIB_clean_linker_0, # of connection points: 2
#     Edge 19, Type (0, 1), BuildingBlock: UKIBIB_clean_linker_0, # of connection points: 2
#     Edge 20, Type (0, 1), BuildingBlock: UKIBIB_clean_linker_0, # of connection points: 2
#     Edge 21, Type (0, 1), BuildingBlock: UKIBIB_clean_linker_0, # of connection points: 2
#     Edge 22, Type (0, 1), BuildingBlock: UKIBIB_clean_linker_0, # of connection points: 2
#     Edge 23, Type (0, 1), BuildingBlock: UKIBIB_clean_linker_0, # of connection points: 2
#     Edge 24, Type (0, 1), BuildingBlock: UKIBIB_clean_linker_0, # of connection points: 2
#     Edge 25, Type (0, 1), BuildingBlock: UKIBIB_clean_linker_0, # of connection points: 2
#     Edge 26, Type (0, 1), BuildingBlock: UKIBIB_clean_linker_0, # of connection points: 2
# Relax obj value: 0.075
# Max RMSD: 0.104
# Mean RMSD: 0.100
data_MOF--net-anh--node1-BETDEL_clean_sbu_0--node2-OLANEW_clean_sbu_2--edge1-UKIBIB_clean_linker_0
_symmetry_space_group_name_H-M    P1
_symmetry_Int_Tables_number       1
_symmetry_cell_setting            triclinic
loop_
_symmetry_equiv_pos_as_xyz
'x, y, z'
_cell_length_a     43.965409
_cell_length_b     43.864467
_cell_length_c     68.013816
_cell_angle_alpha  89.375159
_cell_angle_beta   89.830627
_cell_angle_gamma 120.06314
loop_
_atom_site_label
_atom_site_type_symbol
_atom_site_fract_x
_atom_site_fract_y
_atom_site_fract_z
_atom_type_partial_charge
Dy0 Dy 0.04701 0.48026 0.16335 0.0
C1 C 0.93803 0.51134 0.16215 0.0
C2 C 0.10931 0.48228 0.15877 0.0
Dy3 Dy 0.0005 0.51678 0.15715 0.0
O4 O 0.08985 0.47103 0.17455 0.0
O5 O 0.09262 0.48803 0.14479 0.0
O6 O 0.04166 0.47381 0.1964 0.0
O7 O 0.02091 0.50007 0.18102 0.0
C8 C 0.02426 0.49037 0.19807 0.0
C9 C 0.01825 0.5041 0.1219 0.0
O10 O 0.05276 0.56731 0.16125 0.0
O11 O 0.08592 0.53917 0.16392 0.0
O12 O 0.95781 0.52572 0.14675 0.0
O13 O 0.95437 0.50513 0.17609 0.0
O14 O 0.00151 0.52105 0.12456 0.0
O15 O 0.02626 0.49644 0.13853 0.0
O16 O 0.99367 0.43002 0.1602 0.0
O17 O 0.96111 0.45869 0.15725 0.0
C18 C 0.08359 0.56818 0.16272 0.0
C19 C 0.96301 0.42967 0.15897 0.0
Dy20 Dy 0.45481 0.99701 0.49644 0.0
C21 C 0.59585 0.10603 0.49437 0.0
C22 C 0.3969 0.93477 0.49227 0.0
Dy23 Dy 0.53637 0.0425 0.49066 0.0
O24 O 0.40329 0.95411 0.50765 0.0
O25 O 0.41876 0.95162 0.47797 0.0
O26 O 0.44939 -0.0005 0.52847 0.0
O27 O 0.49994 0.02421 0.51555 0.0
C28 C 0.48288 0.01597 0.53174 0.0
C29 C 0.50629 0.02405 0.45517 0.0
O30 O 0.53375 0.98928 0.49461 0.0
O31 O 0.47294 0.95702 0.49885 0.0
O32 O 0.58873 0.08437 0.47996 0.0
O33 O 0.57248 0.09103 0.5083 0.0
O34 O 0.53993 0.04151 0.45777 0.0
O35 O 0.4911 0.01657 0.47184 0.0
O36 O 0.45607 0.04894 0.49268 0.0
O37 O 0.51708 0.08122 0.4894 0.0
C38 C 0.50364 0.95854 0.49691 0.0
C39 C 0.4863 0.07953 0.49113 0.0
Dy40 Dy 0.56098 0.5742 0.82949 0.0
C41 C 0.52447 0.43136 0.82845 0.0
C42 C 0.55695 0.63301 0.82503 0.0
Dy43 Dy 0.52496 0.49337 0.8251 0.0
O44 O 0.56956 0.62582 0.84045 0.0
O45 O 0.55178 0.61114 0.81099 0.0
O46 O 0.56457 0.57934 0.86166 0.0
O47 O 0.54033 0.52899 0.84956 0.0
C48 C 0.54796 0.54588 0.86553 0.0
C49 C 0.53298 0.52121 0.78878 0.0
O50 O 0.47456 0.49495 0.82941 0.0
O51 O 0.50333 0.55614 0.83082 0.0
O52 O 0.51081 0.44032 0.81424 0.0
O53 O 0.53443 0.45441 0.84237 0.0
O54 O 0.51691 0.48797 0.79307 0.0
O55 O 0.54248 0.53859 0.80466 0.0
O56 O 0.61177 0.57202 0.8264 0.0
O57 O 0.58299 0.51085 0.82532 0.0
C58 C 0.47425 0.52523 0.83026 0.0
C59 C 0.61233 0.54173 0.82629 0.0
O60 O 0.53241 0.02599 0.22258 0.0
Cd61 Cd 0.55116 0.02143 0.18955 0.0
O62 O 0.50725 0.96824 0.22593 0.0
Cd63 Cd 0.51085 0.94551 0.19805 0.0
O64 O 0.4645 0.92193 0.17904 0.0
C65 C 0.43874 0.90354 0.19055 0.0
O66 O 0.44577 0.89996 0.20891 0.0
C67 C 0.51492 0.99812 0.23285 0.0
C68 C 0.6058 0.08682 0.17584 0.0
O69 O 0.58244 0.08416 0.18798 0.0
O70 O 0.60342 0.05841 0.16953 0.0
O71 O 0.51262 0.50856 0.55518 0.0
Cd72 Cd 0.49026 0.48962 0.52269 0.0
O73 O 0.479 0.53221 0.55961 0.0
Cd74 Cd 0.45418 0.52857 0.53084 0.0
O75 O 0.47479 0.57576 0.5116 0.0
C76 C 0.4859 0.60069 0.52383 0.0
O77 O 0.48154 0.59201 0.5426 0.0
C78 C 0.50187 0.52482 0.56588 0.0
C79 C 0.49939 0.43463 0.50889 0.0
O80 O 0.5216 0.45746 0.52054 0.0
O81 O 0.47294 0.43746 0.50393 0.0
O82 O 0.06615 0.53749 0.88958 0.0
Cd83 Cd 0.06394 0.52007 0.85569 0.0
O84 O 0.00851 0.50287 0.88981 0.0
Cd85 Cd 0.98899 0.48535 0.86017 0.0
O86 O 0.96403 0.50934 0.8431 0.0
C87 C 0.95276 0.52381 0.85488 0.0
O88 O 0.95801 0.52189 0.87376 0.0
C89 C 0.03692 0.52338 0.89865 0.0
C90 C 0.13028 0.53358 0.84282 0.0
O91 O 0.12639 0.55166 0.85609 0.0
O92 O 0.10256 0.50887 0.83507 0.0
O93 O 0.01859 0.52665 0.42963 0.0
Cd94 Cd 0.00364 0.54745 0.45707 0.0
O95 O 0.96402 0.51214 0.42225 0.0
Cd96 Cd 0.93416 0.52048 0.44478 0.0
O97 O 0.92829 0.48182 0.46602 0.0
C98 C 0.91309 0.4521 0.45786 0.0
O99 O 0.90066 0.4498 0.44004 0.0
C100 C 0.99302 0.51386 0.41797 0.0
C101 C 0.06579 0.59075 0.4754 0.0
O102 O 0.06566 0.57444 0.46007 0.0
O103 O 0.03668 0.586 0.48217 0.0
O104 O 0.52718 0.00926 0.76159 0.0
Cd105 Cd 0.55766 0.02643 0.79165 0.0
O106 O 0.56532 0.06567 0.75759 0.0
Cd107 Cd 0.60315 0.09502 0.78004 0.0
O108 O 0.56991 0.10131 0.80062 0.0
C109 C 0.55815 0.11875 0.79182 0.0
O110 O 0.57176 0.13328 0.77463 0.0
C111 C 0.53956 0.03721 0.75142 0.0
C112 C 0.54099 0.96364 0.80895 0.0
O113 O 0.51978 0.96616 0.7973 0.0
O114 O 0.56988 0.99122 0.81305 0.0
O115 O 0.53269 0.48239 0.09483 0.0
Cd116 Cd 0.55316 0.5146 0.12353 0.0
O117 O 0.52081 0.52573 0.09398 0.0
Cd118 Cd 0.52834 0.55324 0.12164 0.0
O119 O 0.48289 0.5164 0.13845 0.0
C120 C 0.45759 0.51454 0.12871 0.0
O121 O 0.46435 0.53823 0.1148 0.0
C122 C 0.52144 0.50002 0.08585 0.0
C123 C 0.59293 0.49134 0.14152 0.0
O124 O 0.58087 0.48077 0.12444 0.0
O125 O 0.58531 0.51228 0.15022 0.0
C126 C 0.16227 0.49647 0.13872 0.0
C127 C 0.14588 0.48986 0.15724 0.0
C128 C 0.19514 0.49919 0.13673 0.0
C129 C 0.40994 0.48724 0.15359 0.0
C130 C 0.42095 0.49039 0.13393 0.0
C131 C 0.37762 0.48483 0.15772 0.0
H132 H 0.15312 0.48668 0.18861 0.0
H133 H 0.21118 0.49173 0.18505 0.0
H134 H 0.40456 0.48368 0.10357 0.0
H135 H 0.34948 0.48199 0.11066 0.0
C136 C 0.16452 0.49001 0.17405 0.0
C137 C 0.19764 0.49311 0.17207 0.0
C138 C 0.39679 0.48293 0.1188 0.0
C139 C 0.36557 0.48232 0.12279 0.0
C140 C 0.21237 0.49648 0.15332 0.0
C141 C 0.24426 0.49546 0.15102 0.0
C142 C 0.27099 0.49457 0.1493 0.0
C143 C 0.35672 0.4849 0.14218 0.0
C144 C 0.32687 0.48887 0.14576 0.0
C145 C 0.30148 0.49211 0.14754 0.0
H146 H 0.14899 0.49788 0.12565 0.0
H147 H 0.20655 0.50231 0.12218 0.0
H148 H 0.4279 0.49152 0.16551 0.0
H149 H 0.3703 0.4857 0.17284 0.0
C150 C 0.65244 0.14911 0.48004 0.0
C151 C 0.62577 0.14239 0.49363 0.0
C152 C 0.68152 0.18241 0.47795 0.0
C153 C 0.87574 0.41727 0.48498 0.0
C154 C 0.89832 0.42008 0.46963 0.0
C155 C 0.84491 0.38544 0.48821 0.0
H156 H 0.60688 0.16638 0.51468 0.0
H157 H 0.65931 0.22607 0.51092 0.0
H158 H 0.91179 0.39165 0.44882 0.0
H159 H 0.85852 0.33495 0.45544 0.0
C160 C 0.62782 0.17049 0.50463 0.0
C161 C 0.65735 0.20445 0.50237 0.0
C162 C 0.89406 0.3897 0.46051 0.0
C163 C 0.86346 0.3577 0.46395 0.0
C164 C 0.68433 0.21002 0.48916 0.0
C165 C 0.71571 0.24343 0.48706 0.0
C166 C 0.74322 0.2697 0.48383 0.0
C167 C 0.83813 0.35615 0.47704 0.0
C168 C 0.80468 0.32499 0.47859 0.0
C169 C 0.77618 0.29945 0.48045 0.0
H170 H 0.65116 0.12827 0.47107 0.0
H171 H 0.70207 0.18644 0.46761 0.0
H172 H 0.87894 0.44057 0.49224 0.0
H173 H 0.82545 0.38431 0.49848 0.0
C174 C 0.54999 0.67683 0.80601 0.0
C175 C 0.54708 0.66005 0.82405 0.0
C176 C 0.54628 0.70637 0.80522 0.0
C177 C 0.52984 0.91333 0.83053 0.0
C178 C 0.53782 0.9298 0.81203 0.0
C179 C 0.52976 0.88176 0.83293 0.0
H180 H 0.53196 0.65625 0.85488 0.0
H181 H 0.52438 0.7082 0.85324 0.0
H182 H 0.55271 0.92843 0.78178 0.0
H183 H 0.55291 0.87316 0.78611 0.0
C184 C 0.53603 0.67016 0.84098 0.0
C185 C 0.5315 0.69939 0.84007 0.0
C186 C 0.54588 0.91524 0.79604 0.0
C187 C 0.54621 0.88413 0.79849 0.0
C188 C 0.53803 0.71805 0.82232 0.0
C189 C 0.5382 0.75026 0.82172 0.0
C190 C 0.53851 0.77743 0.8208 0.0
C191 C 0.53808 0.86753 0.81688 0.0
C192 C 0.53815 0.83566 0.81903 0.0
C193 C 0.53863 0.80891 0.81993 0.0
H194 H 0.55737 0.66849 0.79279 0.0
H195 H 0.55107 0.72076 0.79143 0.0
H196 H 0.52395 0.92486 0.84293 0.0
H197 H 0.5235 0.86865 0.84719 0.0
C198 C 0.89548 0.52897 0.16964 0.0
C199 C 0.90195 0.50281 0.1632 0.0
C200 C 0.86244 0.52493 0.16744 0.0
C201 C 0.62332 0.45713 0.14246 0.0
C202 C 0.62105 0.48637 0.14857 0.0
C203 C 0.65504 0.45771 0.14397 0.0
H204 H 0.88002 0.45119 0.14982 0.0
H205 H 0.82068 0.4436 0.14654 0.0
H206 H 0.64872 0.53828 0.16152 0.0
H207 H 0.70434 0.53903 0.16415 0.0
C208 C 0.87498 0.4715 0.15511 0.0
C209 C 0.84156 0.46726 0.1531 0.0
C210 C 0.64985 0.51515 0.15722 0.0
C211 C 0.6816 0.51589 0.15842 0.0
C212 C 0.83582 0.49439 0.15901 0.0
C213 C 0.80288 0.49162 0.1561 0.0
C214 C 0.77576 0.49084 0.15405 0.0
C215 C 0.68409 0.48744 0.15152 0.0
C216 C 0.71671 0.48891 0.15208 0.0
C217 C 0.74418 0.49006 0.15253 0.0
H218 H 0.91648 0.55324 0.17555 0.0
H219 H 0.85795 0.54602 0.17189 0.0
H220 H 0.60129 0.43494 0.13554 0.0
H221 H 0.65723 0.43566 0.13866 0.0
C222 C 0.36964 0.87017 0.49735 0.0
C223 C 0.36756 0.89965 0.49086 0.0
C224 C 0.33983 0.83684 0.49646 0.0
C225 C 0.10043 0.65404 0.47543 0.0
C226 C 0.09776 0.62186 0.48062 0.0
C227 C 0.13234 0.68477 0.47676 0.0
H228 H 0.33499 0.91889 0.47879 0.0
H229 H 0.28266 0.86052 0.4773 0.0
H230 H 0.12505 0.59521 0.49101 0.0
H231 H 0.1817 0.65043 0.49446 0.0
C232 C 0.33645 0.89604 0.48362 0.0
C233 C 0.30689 0.86306 0.48284 0.0
C234 C 0.12692 0.62022 0.48744 0.0
C235 C 0.1589 0.6513 0.48919 0.0
C236 C 0.30866 0.8337 0.48923 0.0
C237 C 0.27807 0.8005 0.48826 0.0
C238 C 0.25137 0.77341 0.48703 0.0
C239 C 0.16135 0.68325 0.48363 0.0
C240 C 0.19362 0.71478 0.48487 0.0
C241 C 0.22032 0.74193 0.48569 0.0
H242 H 0.39387 0.87294 0.5031 0.0
H243 H 0.34092 0.81381 0.50141 0.0
H244 H 0.07816 0.65517 0.46946 0.0
H245 H 0.13447 0.70954 0.4722 0.0
C246 C 0.55116 0.39524 0.84088 0.0
C247 C 0.53173 0.40212 0.82686 0.0
C248 C 0.55552 0.36584 0.83871 0.0
C249 C 0.51603 0.13902 0.79053 0.0
C250 C 0.53755 0.13113 0.80213 0.0
C251 C 0.51479 0.16949 0.79412 0.0
H252 H 0.50573 0.3866 0.79866 0.0
H253 H 0.51266 0.33545 0.79531 0.0
H254 H 0.56693 0.1423 0.82917 0.0
H255 H 0.56306 0.1949 0.83614 0.0
C256 C 0.51948 0.38111 0.8101 0.0
C257 C 0.52364 0.35201 0.80804 0.0
C258 C 0.55084 0.14865 0.81986 0.0
C259 C 0.54936 0.17903 0.82357 0.0
C260 C 0.54092 0.34386 0.82248 0.0
C261 C 0.54209 0.31208 0.82063 0.0
C262 C 0.54151 0.28494 0.81766 0.0
C263 C 0.53302 0.19038 0.81008 0.0
C264 C 0.53609 0.22404 0.81221 0.0
C265 C 0.53905 0.25242 0.81433 0.0
H266 H 0.56232 0.412 0.85351 0.0
H267 H 0.56952 0.35986 0.84979 0.0
H268 H 0.50486 0.12492 0.77705 0.0
H269 H 0.5017 0.17791 0.78374 0.0
C270 C 0.48779 0.90082 0.51428 0.0
C271 C 0.50251 0.92342 0.49774 0.0
C272 C 0.48569 0.86764 0.51529 0.0
C273 C 0.50706 0.6521 0.49916 0.0
C274 C 0.49588 0.63736 0.51819 0.0
C275 C 0.51096 0.68545 0.49457 0.0
H276 H 0.5208 0.92532 0.46789 0.0
H277 H 0.51689 0.86712 0.4696 0.0
H278 H 0.4835 0.64757 0.54744 0.0
H279 H 0.48822 0.70324 0.53914 0.0
C280 C 0.5117 0.90995 0.48139 0.0
C281 C 0.509 0.87636 0.48228 0.0
C282 C 0.49136 0.65752 0.53255 0.0
C283 C 0.49413 0.68971 0.52785 0.0
C284 C 0.49709 0.85537 0.49952 0.0
C285 C 0.49785 0.82225 0.50129 0.0
C286 C 0.49889 0.7949 0.50218 0.0
C287 C 0.50309 0.70377 0.50883 0.0
C288 C 0.50256 0.73625 0.50453 0.0
C289 C 0.50099 0.76321 0.50315 0.0
H290 H 0.47854 0.90921 0.52673 0.0
H291 H 0.47563 0.8518 0.5286 0.0
H292 H 0.51193 0.63773 0.48789 0.0
H293 H 0.51888 0.6963 0.47983 0.0
C294 C 0.64675 0.51355 0.83999 0.0
C295 C 0.64614 0.54041 0.82843 0.0
C296 C 0.67788 0.5118 0.84225 0.0
C297 C 0.9267 0.55605 0.83642 0.0
C298 C 0.92333 0.52903 0.84922 0.0
C299 C 0.89733 0.56038 0.83291 0.0
H300 H 0.6781 0.58468 0.80917 0.0
H301 H 0.73199 0.5811 0.81271 0.0
H302 H 0.88763 0.48568 0.86799 0.0
H303 H 0.83716 0.49297 0.86187 0.0
C304 C 0.67753 0.5644 0.81862 0.0
C305 C 0.70844 0.5622 0.82058 0.0
C306 C 0.89077 0.50666 0.85813 0.0
C307 C 0.86186 0.51085 0.85463 0.0
C308 C 0.70927 0.53633 0.83263 0.0
C309 C 0.74236 0.53572 0.83514 0.0
C310 C 0.77076 0.53688 0.83651 0.0
C311 C 0.86455 0.53759 0.84208 0.0
C312 C 0.83297 0.54029 0.83892 0.0
C313 C 0.80469 0.53926 0.83772 0.0
H314 H 0.62316 0.49411 0.84764 0.0
H315 H 0.67739 0.49135 0.85158 0.0
H316 H 0.95181 0.57396 0.82953 0.0
H317 H 0.90022 0.58138 0.82317 0.0
C318 C 0.13204 0.61774 0.18192 0.0
C319 C 0.11788 0.60258 0.16365 0.0
C320 C 0.16514 0.6487 0.18319 0.0
C321 C 0.39329 0.87113 0.16429 0.0
C322 C 0.40197 0.88215 0.18385 0.0
C323 C 0.36045 0.84134 0.16017 0.0
H324 H 0.13003 0.6062 0.13249 0.0
H325 H 0.18763 0.66082 0.13468 0.0
H326 H 0.38097 0.87581 0.21342 0.0
H327 H 0.32531 0.82334 0.20646 0.0
C328 C 0.13911 0.6181 0.14672 0.0
C329 C 0.17231 0.64918 0.14798 0.0
C330 C 0.37565 0.8667 0.1984 0.0
C331 C 0.34363 0.83665 0.19444 0.0
C332 C 0.18536 0.66518 0.16623 0.0
C333 C 0.21863 0.69878 0.16764 0.0
C334 C 0.2462 0.72669 0.16917 0.0
C335 C 0.33628 0.82271 0.17551 0.0
C336 C 0.30473 0.78863 0.17241 0.0
C337 C 0.27798 0.76011 0.17086 0.0
H338 H 0.11742 0.60553 0.19533 0.0
H339 H 0.17481 0.65993 0.1975 0.0
H340 H 0.41262 0.88346 0.15259 0.0
H341 H 0.35481 0.83171 0.14527 0.0
C342 C 0.46371 0.11883 0.5039 0.0
C343 C 0.48805 0.11451 0.49256 0.0
C344 C 0.46726 0.15236 0.50609 0.0
C345 C 0.52695 0.40158 0.49433 0.0
C346 C 0.49979 0.40205 0.50501 0.0
C347 C 0.52702 0.36976 0.49224 0.0
H348 H 0.53723 0.14324 0.47611 0.0
H349 H 0.54247 0.2012 0.47945 0.0
H350 H 0.45203 0.3709 0.52184 0.0
H351 H 0.45263 0.31572 0.51864 0.0
C352 C 0.51708 0.14509 0.48433 0.0
C353 C 0.52038 0.17845 0.48636 0.0
C354 C 0.4729 0.37078 0.51337 0.0
C355 C 0.47332 0.33937 0.5116 0.0
C356 C 0.49513 0.18223 0.49697 0.0
C357 C 0.49704 0.2163 0.4979 0.0
C358 C 0.49846 0.24462 0.49874 0.0
C359 C 0.50036 0.33858 0.50111 0.0
C360 C 0.50067 0.30577 0.49991 0.0
C361 C 0.49974 0.2777 0.49934 0.0
H362 H 0.44221 0.09638 0.51132 0.0
H363 H 0.44794 0.15487 0.51476 0.0
H364 H 0.54793 0.42557 0.48773 0.0
H365 H 0.54804 0.36957 0.48399 0.0
C366 C 0.41716 0.51349 0.81466 0.0
C367 C 0.44097 0.52668 0.83036 0.0
C368 C 0.38732 0.51754 0.81429 0.0
C369 C 0.19245 0.55586 0.85218 0.0
C370 C 0.1654 0.53852 0.83849 0.0
C371 C 0.22403 0.55582 0.85017 0.0
H372 H 0.45448 0.55875 0.85643 0.0
H373 H 0.40148 0.56415 0.85629 0.0
H374 H 0.15112 0.5099 0.81113 0.0
H375 H 0.20723 0.51076 0.80735 0.0
C376 C 0.4356 0.54644 0.84478 0.0
C377 C 0.40554 0.54996 0.84458 0.0
C378 C 0.17138 0.52307 0.82203 0.0
C379 C 0.20332 0.52345 0.8199 0.0
C380 C 0.38075 0.53482 0.82958 0.0
C381 C 0.34813 0.53577 0.83038 0.0
C382 C 0.32101 0.53669 0.83117 0.0
C383 C 0.22947 0.53916 0.83422 0.0
C384 C 0.2617 0.53787 0.83285 0.0
C385 C 0.28892 0.53723 0.83211 0.0
H386 H 0.42187 0.50047 0.80258 0.0
H387 H 0.36909 0.50668 0.80221 0.0
H388 H 0.18864 0.56804 0.86501 0.0
H389 H 0.24392 0.56816 0.86135 0.0
C390 C 0.90997 0.38549 0.1788 0.0
C391 C 0.92807 0.39626 0.16057 0.0
C392 C 0.87581 0.35588 0.18021 0.0
C393 C 0.65308 0.13221 0.15355 0.0
C394 C 0.63755 0.1212 0.17229 0.0
C395 C 0.68496 0.16418 0.15127 0.0
H396 H 0.92158 0.38771 0.12924 0.0
H397 H 0.8624 0.33541 0.13175 0.0
H398 H 0.64271 0.13415 0.20315 0.0
H399 H 0.69856 0.18912 0.19924 0.0
C400 C 0.9096 0.3786 0.14363 0.0
C401 C 0.87549 0.34901 0.14503 0.0
C402 C 0.65401 0.14244 0.18854 0.0
C403 C 0.686 0.17375 0.18633 0.0
C404 C 0.85866 0.33681 0.16337 0.0
C405 C 0.82461 0.30429 0.1648 0.0
C406 C 0.79629 0.27712 0.16532 0.0
C407 C 0.70181 0.18489 0.16775 0.0
C408 C 0.73538 0.21743 0.16596 0.0
C409 C 0.76339 0.24483 0.16554 0.0
H410 H 0.92229 0.40003 0.19198 0.0
H411 H 0.86299 0.34771 0.19449 0.0
H412 H 0.64067 0.11621 0.1408 0.0
H413 H 0.69666 0.17245 0.13675 0.0
C414 C 0.0538 0.53222 0.09209 0.0
C415 C 0.02913 0.50097 0.10182 0.0
C416 C 0.05447 0.53507 0.0715 0.0
C417 C 0.00916 0.49636 0.93039 0.0
C418 C 0.03511 0.52599 0.92013 0.0
C419 C 0.00807 0.49543 0.95082 0.0
H420 H 0.98498 0.44862 0.09742 0.0
H421 H 0.98724 0.45299 0.06129 0.0
H422 H 0.07844 0.57951 0.92308 0.0
H423 H 0.07576 0.57817 0.95943 0.0
C424 C 0.00565 0.47227 0.09037 0.0
C425 C 0.00638 0.47507 0.06974 0.0
C426 C 0.05873 0.55596 0.93069 0.0
C427 C 0.05715 0.55523 0.95136 0.0
C428 C 0.03045 0.50669 0.06019 0.0
C429 C 0.0302 0.51035 0.03893 0.0
C430 C 0.03046 0.514 0.02122 0.0
C431 C 0.03237 0.52451 0.96147 0.0
C432 C 0.03239 0.52189 0.98271 0.0
C433 C 0.03138 0.51845 0.00043 0.0
H434 H 0.07081 0.55542 0.1005 0.0
H435 H 0.0729 0.55992 0.06448 0.0
H436 H 0.99049 0.47301 0.92261 0.0
H437 H 0.98867 0.47155 0.95829 0.0
C438 C 0.48437 0.98349 0.42653 0.0
C439 C 0.49129 0.01531 0.4352 0.0
C440 C 0.48419 0.98055 0.40592 0.0
C441 C 0.50933 0.03032 0.26216 0.0
C442 C 0.50576 -0.00044 0.25367 0.0
C443 C 0.50543 0.03169 0.28261 0.0
H444 H 0.50326 0.06867 0.42906 0.0
H445 H 0.50205 0.06325 0.39319 0.0
H446 H 0.49179 0.94531 0.25967 0.0
H447 H 0.48595 0.94826 0.29498 0.0
C448 C 0.49652 0.04345 0.42282 0.0
C449 C 0.49646 0.04057 0.4023 0.0
C450 C 0.4955 0.96967 0.26573 0.0
C451 C 0.49213 0.97125 0.28601 0.0
C452 C 0.49108 0.00939 0.39368 0.0
C453 C 0.49336 0.00746 0.37241 0.0
C454 C 0.49542 0.00662 0.35463 0.0
C455 C 0.49799 0.00249 0.29467 0.0
C456 C 0.49744 0.00462 0.31592 0.0
C457 C 0.49681 0.00564 0.33373 0.0
H458 H 0.48171 0.96185 0.43563 0.0
H459 H 0.48014 0.95626 0.39956 0.0
H460 H 0.51618 0.05348 0.25319 0.0
H461 H 0.50934 0.05586 0.28906 0.0
C462 C 0.53814 0.56288 0.76 0.0
C463 C 0.53766 0.5326 0.76769 0.0
C464 C 0.53627 0.56684 0.73937 0.0
C465 C 0.51369 0.50459 0.59765 0.0
C466 C 0.51201 0.53094 0.58666 0.0
C467 C 0.51718 0.50713 0.61807 0.0
H468 H 0.53641 0.48422 0.75961 0.0
H469 H 0.53206 0.49076 0.7247 0.0
H470 H 0.51447 0.58147 0.58801 0.0
H471 H 0.52204 0.58655 0.62391 0.0
C472 C 0.53654 0.5077 0.75437 0.0
C473 C 0.53404 0.51131 0.73423 0.0
C474 C 0.51562 0.56078 0.59626 0.0
C475 C 0.51977 0.56361 0.6167 0.0
C476 C 0.53358 0.54057 0.72648 0.0
C477 C 0.53028 0.54252 0.70532 0.0
C478 C 0.52743 0.54108 0.68757 0.0
C479 C 0.51996 0.53646 0.62773 0.0
C480 C 0.52251 0.53822 0.64896 0.0
C481 C 0.52461 0.53926 0.66673 0.0
H482 H 0.53861 0.58248 0.76974 0.0
H483 H 0.53616 0.58986 0.73352 0.0
H484 H 0.51043 0.48112 0.59059 0.0
H485 H 0.51704 0.48582 0.62635 0.0
C486 C 0.47304 0.99406 0.56559 0.0
C487 C 0.49553 0.02039 0.55213 0.0
C488 C 0.47869 -0.00178 0.58568 0.0
C489 C 0.55172 0.06564 0.71902 0.0
C490 C 0.5288 0.03717 0.73118 0.0
C491 C 0.5469 0.06421 0.69892 0.0
H492 H 0.54235 0.0718 0.54916 0.0
H493 H 0.55322 0.07862 0.58507 0.0
H494 H 0.48039 0.98667 0.73239 0.0
H495 H 0.47121 0.98486 0.69657 0.0
C496 C 0.525 0.05083 0.55918 0.0
C497 C 0.53088 0.05488 0.5796 0.0
C498 C 0.49885 0.00853 0.72318 0.0
C499 C 0.49369 0.00746 0.70286 0.0
C500 C 0.50737 0.02865 0.59282 0.0
C501 C 0.51187 0.03228 0.61377 0.0
C502 C 0.51322 0.03272 0.63145 0.0
C503 C 0.51837 0.03486 0.69073 0.0
C504 C 0.51535 0.03281 0.66978 0.0
C505 C 0.51415 0.0325 0.65213 0.0
H506 H 0.4501 0.97031 0.56059 0.0
H507 H 0.46026 0.97776 0.59563 0.0
H508 H 0.57483 0.08834 0.72478 0.0
H509 H 0.56609 0.08564 0.68974 0.0
C510 C 0.52043 0.49861 0.89252 0.0
C511 C 0.5441 0.5332 0.88607 0.0
C512 C 0.51557 0.4909 0.91285 0.0
C513 C 0.5402 0.53159 0.05496 0.0
C514 C 0.51974 0.49928 0.06472 0.0
C515 C 0.54108 0.53337 0.03469 0.0
H516 H 0.58236 0.58589 0.89571 0.0
H517 H 0.57297 0.57248 0.93035 0.0
H518 H 0.48338 0.44337 0.06167 0.0
H519 H 0.4843 0.44667 0.02529 0.0
C520 C 0.56351 0.55907 0.90008 0.0
C521 C 0.55832 0.55156 0.92001 0.0
C522 C 0.49945 0.46842 0.05416 0.0
C523 C 0.49996 0.47035 0.03363 0.0
C524 C 0.53421 0.5177 0.92651 0.0
C525 C 0.52918 0.51151 0.9473 0.0
C526 C 0.5273 0.50964 0.96493 0.0
C527 C 0.52114 0.50283 0.02399 0.0
C528 C 0.52322 0.50511 0.00307 0.0
C529 C 0.52537 0.50765 0.9855 0.0
H530 H 0.50516 0.47816 0.88208 0.0
H531 H 0.49695 0.46442 0.9179 0.0
H532 H 0.55626 0.55553 0.06307 0.0
H533 H 0.55761 0.55854 0.02742 0.0
C534 C 0.04137 0.52436 0.22856 0.0
C535 C 0.01444 0.49782 0.21743 0.0
C536 C 0.0384 0.5248 0.24904 0.0
C537 C 0.9686 0.47959 0.38818 0.0
C538 C -0.00243 0.5064 0.39789 0.0
C539 C 0.96943 0.47698 0.36785 0.0
H540 H 0.96344 0.45033 0.21917 0.0
H541 H 0.95739 0.45218 0.25512 0.0
H542 H 0.04966 0.55198 0.39453 0.0
H543 H 0.05123 0.54718 0.35869 0.0
C544 C 0.98388 0.47208 0.22723 0.0
C545 C 0.98073 0.47272 0.24777 0.0
C546 C 0.02763 0.53033 0.38726 0.0
C547 C 0.02829 0.52792 0.36688 0.0
C548 C 0.00827 0.49876 0.25877 0.0
C549 C 0.00595 0.49853 0.27999 0.0
C550 C 0.0042 0.49851 0.29772 0.0
C551 C -0.00082 0.50135 0.35713 0.0
C552 C -2e-05 0.49941 0.33609 0.0
C553 C 0.00175 0.49874 0.31843 0.0
H554 H 0.06586 0.54342 0.2215 0.0
H555 H 0.06015 0.54483 0.25731 0.0
H556 H 0.94491 0.46149 0.39628 0.0
H557 H 0.94666 0.45644 0.36049 0.0
loop_
_geom_bond_atom_site_label_1
_geom_bond_atom_site_label_2
_geom_bond_distance
_geom_bond_site_symmetry_2
_ccdc_geom_bond_type
Dy0 O4 2.398 . S
Dy0 O5 2.491 . S
Dy0 O6 2.403 . S
Dy0 O7 2.664 . S
Dy0 O11 2.326 . S
Dy0 O15 2.310 . S
Dy0 O16 2.351 1_455 S
C1 O12 1.185 . S
C1 O13 1.355 . S
C2 O4 1.185 . S
C2 O5 1.355 . S
Dy3 O7 2.310 1_655 S
Dy3 O10 2.351 1_655 S
Dy3 O12 2.398 . S
Dy3 O13 2.491 . S
Dy3 O14 2.403 1_655 S
Dy3 O15 2.664 1_655 S
Dy3 O17 2.326 . S
O4 Dy0 2.398 . S
O4 C2 1.185 . S
O5 Dy0 2.491 . S
O5 C2 1.355 . S
O6 Dy0 2.403 . S
O6 C8 1.254 . S
O7 Dy0 2.664 . S
O7 Dy3 2.310 1_455 S
O7 C8 1.268 . S
C8 O6 1.254 . S
C8 O7 1.268 . S
C9 O14 1.254 . S
C9 O15 1.268 . S
O10 Dy3 2.351 1_455 S
O10 C18 1.249 . S
O11 Dy0 2.326 . S
O11 C18 1.267 . S
O12 C1 1.185 . S
O12 Dy3 2.398 . S
O13 C1 1.355 . S
O13 Dy3 2.491 . S
O14 Dy3 2.403 1_455 S
O14 C9 1.254 . S
O15 Dy0 2.310 . S
O15 Dy3 2.664 1_455 S
O15 C9 1.268 . S
O16 Dy0 2.351 1_655 S
O16 C19 1.249 . S
O17 Dy3 2.326 . S
O17 C19 1.267 . S
C18 O10 1.249 . S
C18 O11 1.267 . S
C19 O16 1.249 . S
C19 O17 1.267 . S
Dy20 O24 2.398 . S
Dy20 O25 2.491 . S
Dy20 O26 2.403 . S
Dy20 O27 2.664 1_565 S
Dy20 O31 2.326 . S
Dy20 O35 2.310 1_565 S
Dy20 O36 2.351 1_565 S
C21 O32 1.185 . S
C21 O33 1.355 . S
C22 O24 1.185 . S
C22 O25 1.355 . S
Dy23 O27 2.310 . S
Dy23 O30 2.351 1_545 S
Dy23 O32 2.398 . S
Dy23 O33 2.491 . S
Dy23 O34 2.403 . S
Dy23 O35 2.664 . S
Dy23 O37 2.326 . S
O24 Dy20 2.398 . S
O24 C22 1.185 . S
O25 Dy20 2.491 . S
O25 C22 1.355 . S
O26 Dy20 2.403 . S
O26 C28 1.254 1_565 S
O27 Dy20 2.664 1_545 S
O27 Dy23 2.310 . S
O27 C28 1.268 . S
C28 O26 1.254 1_545 S
C28 O27 1.268 . S
C29 O34 1.254 . S
C29 O35 1.268 . S
O30 Dy23 2.351 1_565 S
O30 C38 1.249 . S
O31 Dy20 2.326 . S
O31 C38 1.267 . S
O32 C21 1.185 . S
O32 Dy23 2.398 . S
O33 C21 1.355 . S
O33 Dy23 2.491 . S
O34 Dy23 2.403 . S
O34 C29 1.254 . S
O35 Dy20 2.310 1_545 S
O35 Dy23 2.664 . S
O35 C29 1.268 . S
O36 Dy20 2.351 1_545 S
O36 C39 1.249 . S
O37 Dy23 2.326 . S
O37 C39 1.267 . S
C38 O30 1.249 . S
C38 O31 1.267 . S
C39 O36 1.249 . S
C39 O37 1.267 . S
Dy40 O44 2.398 . S
Dy40 O45 2.491 . S
Dy40 O46 2.403 . S
Dy40 O47 2.664 . S
Dy40 O51 2.326 . S
Dy40 O55 2.310 . S
Dy40 O56 2.351 . S
C41 O52 1.185 . S
C41 O53 1.355 . S
C42 O44 1.185 . S
C42 O45 1.355 . S
Dy43 O47 2.310 . S
Dy43 O50 2.351 . S
Dy43 O52 2.398 . S
Dy43 O53 2.491 . S
Dy43 O54 2.403 . S
Dy43 O55 2.664 . S
Dy43 O57 2.326 . S
O44 Dy40 2.398 . S
O44 C42 1.185 . S
O45 Dy40 2.491 . S
O45 C42 1.355 . S
O46 Dy40 2.403 . S
O46 C48 1.254 . S
O47 Dy40 2.664 . S
O47 Dy43 2.310 . S
O47 C48 1.268 . S
C48 O46 1.254 . S
C48 O47 1.268 . S
C49 O54 1.254 . S
C49 O55 1.268 . S
O50 Dy43 2.351 . S
O50 C58 1.249 . S
O51 Dy40 2.326 . S
O51 C58 1.267 . S
O52 C41 1.185 . S
O52 Dy43 2.398 . S
O53 C41 1.355 . S
O53 Dy43 2.491 . S
O54 Dy43 2.403 . S
O54 C49 1.254 . S
O55 Dy40 2.310 . S
O55 Dy43 2.664 . S
O55 C49 1.268 . S
O56 Dy40 2.351 . S
O56 C59 1.249 . S
O57 Dy43 2.326 . S
O57 C59 1.267 . S
C58 O50 1.249 . S
C58 O51 1.267 . S
C59 O56 1.249 . S
C59 O57 1.267 . S
O60 Cd61 2.300 . S
O60 C67 1.275 . S
Cd61 O60 2.300 . S
Cd61 O69 2.381 . S
Cd61 O70 2.378 . S
O62 Cd63 2.385 . S
O62 C67 1.255 1_565 S
Cd63 O62 2.385 . S
Cd63 O64 2.317 . S
O64 Cd63 2.317 . S
O64 C65 1.232 . S
C65 O64 1.232 . S
C65 O66 1.218 . S
O66 C65 1.218 . S
C67 O60 1.275 . S
C67 O62 1.255 1_545 S
C68 O69 1.258 . S
C68 O70 1.256 . S
O69 Cd61 2.381 . S
O69 C68 1.258 . S
O70 Cd61 2.378 . S
O70 C68 1.256 . S
O71 Cd72 2.300 . S
O71 C78 1.275 . S
Cd72 O71 2.300 . S
Cd72 O80 2.381 . S
Cd72 O81 2.378 . S
O73 Cd74 2.385 . S
O73 C78 1.255 . S
Cd74 O73 2.385 . S
Cd74 O75 2.317 . S
O75 Cd74 2.317 . S
O75 C76 1.232 . S
C76 O75 1.232 . S
C76 O77 1.218 . S
O77 C76 1.218 . S
C78 O71 1.275 . S
C78 O73 1.255 . S
C79 O80 1.258 . S
C79 O81 1.256 . S
O80 Cd72 2.381 . S
O80 C79 1.258 . S
O81 Cd72 2.378 . S
O81 C79 1.256 . S
O82 Cd83 2.300 . S
O82 C89 1.275 . S
Cd83 O82 2.300 . S
Cd83 O91 2.381 . S
Cd83 O92 2.378 . S
O84 Cd85 2.385 1_455 S
O84 C89 1.255 . S
Cd85 O84 2.385 1_655 S
Cd85 O86 2.317 . S
O86 Cd85 2.317 . S
O86 C87 1.232 . S
C87 O86 1.232 . S
C87 O88 1.218 . S
O88 C87 1.218 . S
C89 O82 1.275 . S
C89 O84 1.255 . S
C90 O91 1.258 . S
C90 O92 1.256 . S
O91 Cd83 2.381 . S
O91 C90 1.258 . S
O92 Cd83 2.378 . S
O92 C90 1.256 . S
O93 Cd94 2.300 . S
O93 C100 1.275 . S
Cd94 O93 2.300 . S
Cd94 O102 2.381 . S
Cd94 O103 2.378 . S
O95 Cd96 2.385 . S
O95 C100 1.255 1_655 S
Cd96 O95 2.385 . S
Cd96 O97 2.317 . S
O97 Cd96 2.317 . S
O97 C98 1.232 . S
C98 O97 1.232 . S
C98 O99 1.218 . S
O99 C98 1.218 . S
C100 O93 1.275 . S
C100 O95 1.255 1_455 S
C101 O102 1.258 . S
C101 O103 1.256 . S
O102 Cd94 2.381 . S
O102 C101 1.258 . S
O103 Cd94 2.378 . S
O103 C101 1.256 . S
O104 Cd105 2.300 . S
O104 C111 1.275 . S
Cd105 O104 2.300 . S
Cd105 O113 2.381 1_545 S
Cd105 O114 2.378 1_545 S
O106 Cd107 2.385 . S
O106 C111 1.255 . S
Cd107 O106 2.385 . S
Cd107 O108 2.317 . S
O108 Cd107 2.317 . S
O108 C109 1.232 . S
C109 O108 1.232 . S
C109 O110 1.218 . S
O110 C109 1.218 . S
C111 O104 1.275 . S
C111 O106 1.255 . S
C112 O113 1.258 . S
C112 O114 1.256 . S
O113 Cd105 2.381 1_565 S
O113 C112 1.258 . S
O114 Cd105 2.378 1_565 S
O114 C112 1.256 . S
O115 Cd116 2.300 . S
O115 C122 1.275 . S
Cd116 O115 2.300 . S
Cd116 O124 2.381 . S
Cd116 O125 2.378 . S
O117 Cd118 2.385 . S
O117 C122 1.255 . S
Cd118 O117 2.385 . S
Cd118 O119 2.317 . S
O119 Cd118 2.317 . S
O119 C120 1.232 . S
C120 O119 1.232 . S
C120 O121 1.218 . S
O121 C120 1.218 . S
C122 O115 1.275 . S
C122 O117 1.255 . S
C123 O124 1.258 . S
C123 O125 1.256 . S
O124 Cd116 2.381 . S
O124 C123 1.258 . S
O125 Cd116 2.378 . S
O125 C123 1.256 . S
C126 C127 1.332 . S
C126 C128 1.345 . S
C126 H146 0.932 . S
C127 C126 1.332 . S
C127 C136 1.332 . S
C128 C126 1.345 . S
C128 C140 1.334 . S
C128 H147 0.928 . S
C129 C130 1.332 . S
C129 C131 1.345 . S
C129 H148 0.932 . S
C130 C129 1.332 . S
C130 C138 1.332 . S
C131 C129 1.345 . S
C131 C143 1.334 . S
C131 H149 0.928 . S
H132 C136 0.932 . S
H133 C137 0.928 . S
H134 C138 0.932 . S
H135 C139 0.928 . S
C136 C127 1.332 . S
C136 H132 0.932 . S
C136 C137 1.345 . S
C137 H133 0.928 . S
C137 C136 1.345 . S
C137 C140 1.334 . S
C138 C130 1.332 . S
C138 H134 0.932 . S
C138 C139 1.345 . S
C139 H135 0.928 . S
C139 C138 1.345 . S
C139 C143 1.334 . S
C140 C128 1.334 . S
C140 C137 1.334 . S
C140 C141 1.487 . S
C141 C140 1.487 . S
C141 C142 1.185 . S
C142 C141 1.185 . S
C142 C145 1.482 . S
C143 C131 1.334 . S
C143 C139 1.334 . S
C143 C144 1.487 . S
C144 C143 1.487 . S
C144 C145 1.185 . S
C145 C142 1.482 . S
C145 C144 1.185 . S
H146 C126 0.932 . S
H147 C128 0.928 . S
H148 C129 0.932 . S
H149 C131 0.928 . S
C150 C151 1.332 . S
C150 C152 1.345 . S
C150 H170 0.932 . S
C151 C150 1.332 . S
C151 C160 1.332 . S
C152 C150 1.345 . S
C152 C164 1.334 . S
C152 H171 0.928 . S
C153 C154 1.332 . S
C153 C155 1.345 . S
C153 H172 0.932 . S
C154 C153 1.332 . S
C154 C162 1.332 . S
C155 C153 1.345 . S
C155 C167 1.334 . S
C155 H173 0.928 . S
H156 C160 0.932 . S
H157 C161 0.928 . S
H158 C162 0.932 . S
H159 C163 0.928 . S
C160 C151 1.332 . S
C160 H156 0.932 . S
C160 C161 1.345 . S
C161 H157 0.928 . S
C161 C160 1.345 . S
C161 C164 1.334 . S
C162 C154 1.332 . S
C162 H158 0.932 . S
C162 C163 1.345 . S
C163 H159 0.928 . S
C163 C162 1.345 . S
C163 C167 1.334 . S
C164 C152 1.334 . S
C164 C161 1.334 . S
C164 C165 1.487 . S
C165 C164 1.487 . S
C165 C166 1.185 . S
C166 C165 1.185 . S
C166 C169 1.482 . S
C167 C155 1.334 . S
C167 C163 1.334 . S
C167 C168 1.487 . S
C168 C167 1.487 . S
C168 C169 1.185 . S
C169 C166 1.482 . S
C169 C168 1.185 . S
H170 C150 0.932 . S
H171 C152 0.928 . S
H172 C153 0.932 . S
H173 C155 0.928 . S
C174 C175 1.332 . S
C174 C176 1.345 . S
C174 H194 0.932 . S
C175 C174 1.332 . S
C175 C184 1.332 . S
C176 C174 1.345 . S
C176 C188 1.334 . S
C176 H195 0.928 . S
C177 C178 1.332 . S
C177 C179 1.345 . S
C177 H196 0.932 . S
C178 C177 1.332 . S
C178 C186 1.332 . S
C179 C177 1.345 . S
C179 C191 1.334 . S
C179 H197 0.928 . S
H180 C184 0.932 . S
H181 C185 0.928 . S
H182 C186 0.932 . S
H183 C187 0.928 . S
C184 C175 1.332 . S
C184 H180 0.932 . S
C184 C185 1.345 . S
C185 H181 0.928 . S
C185 C184 1.345 . S
C185 C188 1.334 . S
C186 C178 1.332 . S
C186 H182 0.932 . S
C186 C187 1.345 . S
C187 H183 0.928 . S
C187 C186 1.345 . S
C187 C191 1.334 . S
C188 C176 1.334 . S
C188 C185 1.334 . S
C188 C189 1.487 . S
C189 C188 1.487 . S
C189 C190 1.185 . S
C190 C189 1.185 . S
C190 C193 1.482 . S
C191 C179 1.334 . S
C191 C187 1.334 . S
C191 C192 1.487 . S
C192 C191 1.487 . S
C192 C193 1.185 . S
C193 C190 1.482 . S
C193 C192 1.185 . S
H194 C174 0.932 . S
H195 C176 0.928 . S
H196 C177 0.932 . S
H197 C179 0.928 . S
C198 C199 1.332 . S
C198 C200 1.345 . S
C198 H218 0.932 . S
C199 C198 1.332 . S
C199 C208 1.332 . S
C200 C198 1.345 . S
C200 C212 1.334 . S
C200 H219 0.928 . S
C201 C202 1.332 . S
C201 C203 1.345 . S
C201 H220 0.932 . S
C202 C201 1.332 . S
C202 C210 1.332 . S
C203 C201 1.345 . S
C203 C215 1.334 . S
C203 H221 0.928 . S
H204 C208 0.932 . S
H205 C209 0.928 . S
H206 C210 0.932 . S
H207 C211 0.928 . S
C208 C199 1.332 . S
C208 H204 0.932 . S
C208 C209 1.345 . S
C209 H205 0.928 . S
C209 C208 1.345 . S
C209 C212 1.334 . S
C210 C202 1.332 . S
C210 H206 0.932 . S
C210 C211 1.345 . S
C211 H207 0.928 . S
C211 C210 1.345 . S
C211 C215 1.334 . S
C212 C200 1.334 . S
C212 C209 1.334 . S
C212 C213 1.487 . S
C213 C212 1.487 . S
C213 C214 1.185 . S
C214 C213 1.185 . S
C214 C217 1.482 . S
C215 C203 1.334 . S
C215 C211 1.334 . S
C215 C216 1.487 . S
C216 C215 1.487 . S
C216 C217 1.185 . S
C217 C214 1.482 . S
C217 C216 1.185 . S
H218 C198 0.932 . S
H219 C200 0.928 . S
H220 C201 0.932 . S
H221 C203 0.928 . S
C222 C223 1.332 . S
C222 C224 1.345 . S
C222 H242 0.932 . S
C223 C222 1.332 . S
C223 C232 1.332 . S
C224 C222 1.345 . S
C224 C236 1.334 . S
C224 H243 0.928 . S
C225 C226 1.332 . S
C225 C227 1.345 . S
C225 H244 0.932 . S
C226 C225 1.332 . S
C226 C234 1.332 . S
C227 C225 1.345 . S
C227 C239 1.334 . S
C227 H245 0.928 . S
H228 C232 0.932 . S
H229 C233 0.928 . S
H230 C234 0.932 . S
H231 C235 0.928 . S
C232 C223 1.332 . S
C232 H228 0.932 . S
C232 C233 1.345 . S
C233 H229 0.928 . S
C233 C232 1.345 . S
C233 C236 1.334 . S
C234 C226 1.332 . S
C234 H230 0.932 . S
C234 C235 1.345 . S
C235 H231 0.928 . S
C235 C234 1.345 . S
C235 C239 1.334 . S
C236 C224 1.334 . S
C236 C233 1.334 . S
C236 C237 1.487 . S
C237 C236 1.487 . S
C237 C238 1.185 . S
C238 C237 1.185 . S
C238 C241 1.482 . S
C239 C227 1.334 . S
C239 C235 1.334 . S
C239 C240 1.487 . S
C240 C239 1.487 . S
C240 C241 1.185 . S
C241 C238 1.482 . S
C241 C240 1.185 . S
H242 C222 0.932 . S
H243 C224 0.928 . S
H244 C225 0.932 . S
H245 C227 0.928 . S
C246 C247 1.332 . S
C246 C248 1.345 . S
C246 H266 0.932 . S
C247 C246 1.332 . S
C247 C256 1.332 . S
C248 C246 1.345 . S
C248 C260 1.334 . S
C248 H267 0.928 . S
C249 C250 1.332 . S
C249 C251 1.345 . S
C249 H268 0.932 . S
C250 C249 1.332 . S
C250 C258 1.332 . S
C251 C249 1.345 . S
C251 C263 1.334 . S
C251 H269 0.928 . S
H252 C256 0.932 . S
H253 C257 0.928 . S
H254 C258 0.932 . S
H255 C259 0.928 . S
C256 C247 1.332 . S
C256 H252 0.932 . S
C256 C257 1.345 . S
C257 H253 0.928 . S
C257 C256 1.345 . S
C257 C260 1.334 . S
C258 C250 1.332 . S
C258 H254 0.932 . S
C258 C259 1.345 . S
C259 H255 0.928 . S
C259 C258 1.345 . S
C259 C263 1.334 . S
C260 C248 1.334 . S
C260 C257 1.334 . S
C260 C261 1.487 . S
C261 C260 1.487 . S
C261 C262 1.185 . S
C262 C261 1.185 . S
C262 C265 1.482 . S
C263 C251 1.334 . S
C263 C259 1.334 . S
C263 C264 1.487 . S
C264 C263 1.487 . S
C264 C265 1.185 . S
C265 C262 1.482 . S
C265 C264 1.185 . S
H266 C246 0.932 . S
H267 C248 0.928 . S
H268 C249 0.932 . S
H269 C251 0.928 . S
C270 C271 1.332 . S
C270 C272 1.345 . S
C270 H290 0.932 . S
C271 C270 1.332 . S
C271 C280 1.332 . S
C272 C270 1.345 . S
C272 C284 1.334 . S
C272 H291 0.928 . S
C273 C274 1.332 . S
C273 C275 1.345 . S
C273 H292 0.932 . S
C274 C273 1.332 . S
C274 C282 1.332 . S
C275 C273 1.345 . S
C275 C287 1.334 . S
C275 H293 0.928 . S
H276 C280 0.932 . S
H277 C281 0.928 . S
H278 C282 0.932 . S
H279 C283 0.928 . S
C280 C271 1.332 . S
C280 H276 0.932 . S
C280 C281 1.345 . S
C281 H277 0.928 . S
C281 C280 1.345 . S
C281 C284 1.334 . S
C282 C274 1.332 . S
C282 H278 0.932 . S
C282 C283 1.345 . S
C283 H279 0.928 . S
C283 C282 1.345 . S
C283 C287 1.334 . S
C284 C272 1.334 . S
C284 C281 1.334 . S
C284 C285 1.487 . S
C285 C284 1.487 . S
C285 C286 1.185 . S
C286 C285 1.185 . S
C286 C289 1.482 . S
C287 C275 1.334 . S
C287 C283 1.334 . S
C287 C288 1.487 . S
C288 C287 1.487 . S
C288 C289 1.185 . S
C289 C286 1.482 . S
C289 C288 1.185 . S
H290 C270 0.932 . S
H291 C272 0.928 . S
H292 C273 0.932 . S
H293 C275 0.928 . S
C294 C295 1.332 . S
C294 C296 1.345 . S
C294 H314 0.932 . S
C295 C294 1.332 . S
C295 C304 1.332 . S
C296 C294 1.345 . S
C296 C308 1.334 . S
C296 H315 0.928 . S
C297 C298 1.332 . S
C297 C299 1.345 . S
C297 H316 0.932 . S
C298 C297 1.332 . S
C298 C306 1.332 . S
C299 C297 1.345 . S
C299 C311 1.334 . S
C299 H317 0.928 . S
H300 C304 0.932 . S
H301 C305 0.928 . S
H302 C306 0.932 . S
H303 C307 0.928 . S
C304 C295 1.332 . S
C304 H300 0.932 . S
C304 C305 1.345 . S
C305 H301 0.928 . S
C305 C304 1.345 . S
C305 C308 1.334 . S
C306 C298 1.332 . S
C306 H302 0.932 . S
C306 C307 1.345 . S
C307 H303 0.928 . S
C307 C306 1.345 . S
C307 C311 1.334 . S
C308 C296 1.334 . S
C308 C305 1.334 . S
C308 C309 1.487 . S
C309 C308 1.487 . S
C309 C310 1.185 . S
C310 C309 1.185 . S
C310 C313 1.482 . S
C311 C299 1.334 . S
C311 C307 1.334 . S
C311 C312 1.487 . S
C312 C311 1.487 . S
C312 C313 1.185 . S
C313 C310 1.482 . S
C313 C312 1.185 . S
H314 C294 0.932 . S
H315 C296 0.928 . S
H316 C297 0.932 . S
H317 C299 0.928 . S
C318 C319 1.332 . S
C318 C320 1.345 . S
C318 H338 0.932 . S
C319 C318 1.332 . S
C319 C328 1.332 . S
C320 C318 1.345 . S
C320 C332 1.334 . S
C320 H339 0.928 . S
C321 C322 1.332 . S
C321 C323 1.345 . S
C321 H340 0.932 . S
C322 C321 1.332 . S
C322 C330 1.332 . S
C323 C321 1.345 . S
C323 C335 1.334 . S
C323 H341 0.928 . S
H324 C328 0.932 . S
H325 C329 0.928 . S
H326 C330 0.932 . S
H327 C331 0.928 . S
C328 C319 1.332 . S
C328 H324 0.932 . S
C328 C329 1.345 . S
C329 H325 0.928 . S
C329 C328 1.345 . S
C329 C332 1.334 . S
C330 C322 1.332 . S
C330 H326 0.932 . S
C330 C331 1.345 . S
C331 H327 0.928 . S
C331 C330 1.345 . S
C331 C335 1.334 . S
C332 C320 1.334 . S
C332 C329 1.334 . S
C332 C333 1.487 . S
C333 C332 1.487 . S
C333 C334 1.185 . S
C334 C333 1.185 . S
C334 C337 1.482 . S
C335 C323 1.334 . S
C335 C331 1.334 . S
C335 C336 1.487 . S
C336 C335 1.487 . S
C336 C337 1.185 . S
C337 C334 1.482 . S
C337 C336 1.185 . S
H338 C318 0.932 . S
H339 C320 0.928 . S
H340 C321 0.932 . S
H341 C323 0.928 . S
C342 C343 1.332 . S
C342 C344 1.345 . S
C342 H362 0.932 . S
C343 C342 1.332 . S
C343 C352 1.332 . S
C344 C342 1.345 . S
C344 C356 1.334 . S
C344 H363 0.928 . S
C345 C346 1.332 . S
C345 C347 1.345 . S
C345 H364 0.932 . S
C346 C345 1.332 . S
C346 C354 1.332 . S
C347 C345 1.345 . S
C347 C359 1.334 . S
C347 H365 0.928 . S
H348 C352 0.932 . S
H349 C353 0.928 . S
H350 C354 0.932 . S
H351 C355 0.928 . S
C352 C343 1.332 . S
C352 H348 0.932 . S
C352 C353 1.345 . S
C353 H349 0.928 . S
C353 C352 1.345 . S
C353 C356 1.334 . S
C354 C346 1.332 . S
C354 H350 0.932 . S
C354 C355 1.345 . S
C355 H351 0.928 . S
C355 C354 1.345 . S
C355 C359 1.334 . S
C356 C344 1.334 . S
C356 C353 1.334 . S
C356 C357 1.487 . S
C357 C356 1.487 . S
C357 C358 1.185 . S
C358 C357 1.185 . S
C358 C361 1.482 . S
C359 C347 1.334 . S
C359 C355 1.334 . S
C359 C360 1.487 . S
C360 C359 1.487 . S
C360 C361 1.185 . S
C361 C358 1.482 . S
C361 C360 1.185 . S
H362 C342 0.932 . S
H363 C344 0.928 . S
H364 C345 0.932 . S
H365 C347 0.928 . S
C366 C367 1.332 . S
C366 C368 1.345 . S
C366 H386 0.932 . S
C367 C366 1.332 . S
C367 C376 1.332 . S
C368 C366 1.345 . S
C368 C380 1.334 . S
C368 H387 0.928 . S
C369 C370 1.332 . S
C369 C371 1.345 . S
C369 H388 0.932 . S
C370 C369 1.332 . S
C370 C378 1.332 . S
C371 C369 1.345 . S
C371 C383 1.334 . S
C371 H389 0.928 . S
H372 C376 0.932 . S
H373 C377 0.928 . S
H374 C378 0.932 . S
H375 C379 0.928 . S
C376 C367 1.332 . S
C376 H372 0.932 . S
C376 C377 1.345 . S
C377 H373 0.928 . S
C377 C376 1.345 . S
C377 C380 1.334 . S
C378 C370 1.332 . S
C378 H374 0.932 . S
C378 C379 1.345 . S
C379 H375 0.928 . S
C379 C378 1.345 . S
C379 C383 1.334 . S
C380 C368 1.334 . S
C380 C377 1.334 . S
C380 C381 1.487 . S
C381 C380 1.487 . S
C381 C382 1.185 . S
C382 C381 1.185 . S
C382 C385 1.482 . S
C383 C371 1.334 . S
C383 C379 1.334 . S
C383 C384 1.487 . S
C384 C383 1.487 . S
C384 C385 1.185 . S
C385 C382 1.482 . S
C385 C384 1.185 . S
H386 C366 0.932 . S
H387 C368 0.928 . S
H388 C369 0.932 . S
H389 C371 0.928 . S
C390 C391 1.332 . S
C390 C392 1.345 . S
C390 H410 0.932 . S
C391 C390 1.332 . S
C391 C400 1.332 . S
C392 C390 1.345 . S
C392 C404 1.334 . S
C392 H411 0.928 . S
C393 C394 1.332 . S
C393 C395 1.345 . S
C393 H412 0.932 . S
C394 C393 1.332 . S
C394 C402 1.332 . S
C395 C393 1.345 . S
C395 C407 1.334 . S
C395 H413 0.928 . S
H396 C400 0.932 . S
H397 C401 0.928 . S
H398 C402 0.932 . S
H399 C403 0.928 . S
C400 C391 1.332 . S
C400 H396 0.932 . S
C400 C401 1.345 . S
C401 H397 0.928 . S
C401 C400 1.345 . S
C401 C404 1.334 . S
C402 C394 1.332 . S
C402 H398 0.932 . S
C402 C403 1.345 . S
C403 H399 0.928 . S
C403 C402 1.345 . S
C403 C407 1.334 . S
C404 C392 1.334 . S
C404 C401 1.334 . S
C404 C405 1.487 . S
C405 C404 1.487 . S
C405 C406 1.185 . S
C406 C405 1.185 . S
C406 C409 1.482 . S
C407 C395 1.334 . S
C407 C403 1.334 . S
C407 C408 1.487 . S
C408 C407 1.487 . S
C408 C409 1.185 . S
C409 C406 1.482 . S
C409 C408 1.185 . S
H410 C390 0.932 . S
H411 C392 0.928 . S
H412 C393 0.932 . S
H413 C395 0.928 . S
C414 C415 1.332 . S
C414 C416 1.345 . S
C414 H434 0.932 . S
C415 C414 1.332 . S
C415 C424 1.332 . S
C416 C414 1.345 . S
C416 C428 1.334 . S
C416 H435 0.928 . S
C417 C418 1.332 . S
C417 C419 1.345 . S
C417 H436 0.932 1_455 S
C418 C417 1.332 . S
C418 C426 1.332 . S
C419 C417 1.345 . S
C419 C431 1.334 . S
C419 H437 0.928 1_455 S
H420 C424 0.932 1_655 S
H421 C425 0.928 1_655 S
H422 C426 0.932 . S
H423 C427 0.928 . S
C424 C415 1.332 . S
C424 H420 0.932 1_455 S
C424 C425 1.345 . S
C425 H421 0.928 1_455 S
C425 C424 1.345 . S
C425 C428 1.334 . S
C426 C418 1.332 . S
C426 H422 0.932 . S
C426 C427 1.345 . S
C427 H423 0.928 . S
C427 C426 1.345 . S
C427 C431 1.334 . S
C428 C416 1.334 . S
C428 C425 1.334 . S
C428 C429 1.487 . S
C429 C428 1.487 . S
C429 C430 1.185 . S
C430 C429 1.185 . S
C430 C433 1.482 . S
C431 C419 1.334 . S
C431 C427 1.334 . S
C431 C432 1.487 . S
C432 C431 1.487 . S
C432 C433 1.185 1_556 S
C433 C430 1.482 . S
C433 C432 1.185 1_554 S
H434 C414 0.932 . S
H435 C416 0.928 . S
H436 C417 0.932 1_655 S
H437 C419 0.928 1_655 S
C438 C439 1.332 1_565 S
C438 C440 1.345 . S
C438 H458 0.932 . S
C439 C438 1.332 1_545 S
C439 C448 1.332 . S
C440 C438 1.345 . S
C440 C452 1.334 1_565 S
C440 H459 0.928 . S
C441 C442 1.347 . S
C441 C443 1.345 . S
C441 H460 0.932 . S
C442 C441 1.347 . S
C442 C450 1.318 1_545 S
C443 C441 1.345 . S
C443 C455 1.334 . S
C443 H461 0.928 . S
H444 C448 0.932 . S
H445 C449 0.928 . S
H446 C450 0.932 . S
H447 C451 0.928 . S
C448 C439 1.332 . S
C448 H444 0.932 . S
C448 C449 1.345 . S
C449 H445 0.928 . S
C449 C448 1.345 . S
C449 C452 1.334 . S
C450 C442 1.318 1_565 S
C450 H446 0.932 . S
C450 C451 1.345 . S
C451 H447 0.928 . S
C451 C450 1.345 . S
C451 C455 1.334 1_565 S
C452 C440 1.334 1_545 S
C452 C449 1.334 . S
C452 C453 1.487 . S
C453 C452 1.487 . S
C453 C454 1.185 . S
C454 C453 1.185 . S
C454 C457 1.482 . S
C455 C443 1.334 . S
C455 C451 1.334 1_545 S
C455 C456 1.487 . S
C456 C455 1.487 . S
C456 C457 1.185 . S
C457 C454 1.482 . S
C457 C456 1.185 . S
H458 C438 0.932 . S
H459 C440 0.928 . S
H460 C441 0.932 . S
H461 C443 0.928 . S
C462 C463 1.332 . S
C462 C464 1.345 . S
C462 H482 0.932 . S
C463 C462 1.332 . S
C463 C472 1.332 . S
C464 C462 1.345 . S
C464 C476 1.334 . S
C464 H483 0.928 . S
C465 C466 1.332 . S
C465 C467 1.345 . S
C465 H484 0.932 . S
C466 C465 1.332 . S
C466 C474 1.332 . S
C467 C465 1.345 . S
C467 C479 1.334 . S
C467 H485 0.928 . S
H468 C472 0.932 . S
H469 C473 0.928 . S
H470 C474 0.932 . S
H471 C475 0.928 . S
C472 C463 1.332 . S
C472 H468 0.932 . S
C472 C473 1.345 . S
C473 H469 0.928 . S
C473 C472 1.345 . S
C473 C476 1.334 . S
C474 C466 1.332 . S
C474 H470 0.932 . S
C474 C475 1.345 . S
C475 H471 0.928 . S
C475 C474 1.345 . S
C475 C479 1.334 . S
C476 C464 1.334 . S
C476 C473 1.334 . S
C476 C477 1.487 . S
C477 C476 1.487 . S
C477 C478 1.185 . S
C478 C477 1.185 . S
C478 C481 1.482 . S
C479 C467 1.334 . S
C479 C475 1.334 . S
C479 C480 1.487 . S
C480 C479 1.487 . S
C480 C481 1.185 . S
C481 C478 1.482 . S
C481 C480 1.185 . S
H482 C462 0.932 . S
H483 C464 0.928 . S
H484 C465 0.932 . S
H485 C467 0.928 . S
C486 C487 1.330 . S
C486 C488 1.345 . S
C486 H506 0.934 1_545 S
C487 C486 1.330 . S
C487 C496 1.332 . S
C488 C486 1.345 . S
C488 C500 1.334 . S
C488 H507 0.928 1_545 S
C489 C490 1.332 . S
C489 C491 1.345 . S
C489 H508 0.932 . S
C490 C489 1.332 . S
C490 C498 1.332 . S
C491 C489 1.345 . S
C491 C503 1.334 . S
C491 H509 0.928 . S
H492 C496 0.932 . S
H493 C497 0.928 . S
H494 C498 0.932 1_565 S
H495 C499 0.928 1_565 S
C496 C487 1.332 . S
C496 H492 0.932 . S
C496 C497 1.345 . S
C497 H493 0.928 . S
C497 C496 1.345 . S
C497 C500 1.334 . S
C498 C490 1.332 . S
C498 H494 0.932 1_545 S
C498 C499 1.345 . S
C499 H495 0.928 1_545 S
C499 C498 1.345 . S
C499 C503 1.334 . S
C500 C488 1.334 . S
C500 C497 1.334 . S
C500 C501 1.487 . S
C501 C500 1.487 . S
C501 C502 1.185 . S
C502 C501 1.185 . S
C502 C505 1.482 . S
C503 C491 1.334 . S
C503 C499 1.334 . S
C503 C504 1.487 . S
C504 C503 1.487 . S
C504 C505 1.185 . S
C505 C502 1.482 . S
C505 C504 1.185 . S
H506 C486 0.934 1_565 S
H507 C488 0.928 1_565 S
H508 C489 0.932 . S
H509 C491 0.928 . S
C510 C511 1.332 . S
C510 C512 1.345 . S
C510 H530 0.932 . S
C511 C510 1.332 . S
C511 C520 1.332 . S
C512 C510 1.345 . S
C512 C524 1.334 . S
C512 H531 0.928 . S
C513 C514 1.332 . S
C513 C515 1.345 . S
C513 H532 0.932 . S
C514 C513 1.332 . S
C514 C522 1.332 . S
C515 C513 1.345 . S
C515 C527 1.334 . S
C515 H533 0.928 . S
H516 C520 0.932 . S
H517 C521 0.928 . S
H518 C522 0.932 . S
H519 C523 0.928 . S
C520 C511 1.332 . S
C520 H516 0.932 . S
C520 C521 1.345 . S
C521 H517 0.928 . S
C521 C520 1.345 . S
C521 C524 1.334 . S
C522 C514 1.332 . S
C522 H518 0.932 . S
C522 C523 1.345 . S
C523 H519 0.928 . S
C523 C522 1.345 . S
C523 C527 1.334 . S
C524 C512 1.334 . S
C524 C521 1.334 . S
C524 C525 1.487 . S
C525 C524 1.487 . S
C525 C526 1.185 . S
C526 C525 1.185 . S
C526 C529 1.482 . S
C527 C515 1.334 . S
C527 C523 1.334 . S
C527 C528 1.487 . S
C528 C527 1.487 . S
C528 C529 1.185 1_554 S
C529 C526 1.482 . S
C529 C528 1.185 1_556 S
H530 C510 0.932 . S
H531 C512 0.928 . S
H532 C513 0.932 . S
H533 C515 0.928 . S
C534 C535 1.332 . S
C534 C536 1.345 . S
C534 H554 0.932 . S
C535 C534 1.332 . S
C535 C544 1.332 1_455 S
C536 C534 1.345 . S
C536 C548 1.334 . S
C536 H555 0.928 . S
C537 C538 1.349 . S
C537 C539 1.345 . S
C537 H556 0.932 . S
C538 C537 1.349 . S
C538 C546 1.312 1_655 S
C539 C537 1.345 . S
C539 C551 1.334 1_655 S
C539 H557 0.928 . S
H540 C544 0.932 . S
H541 C545 0.928 . S
H542 C546 0.932 . S
H543 C547 0.928 . S
C544 C535 1.332 1_655 S
C544 H540 0.932 . S
C544 C545 1.345 . S
C545 H541 0.928 . S
C545 C544 1.345 . S
C545 C548 1.334 1_655 S
C546 C538 1.312 1_455 S
C546 H542 0.932 . S
C546 C547 1.345 . S
C547 H543 0.928 . S
C547 C546 1.345 . S
C547 C551 1.334 . S
C548 C536 1.334 . S
C548 C545 1.334 1_455 S
C548 C549 1.487 . S
C549 C548 1.487 . S
C549 C550 1.185 . S
C550 C549 1.185 . S
C550 C553 1.482 . S
C551 C539 1.334 1_455 S
C551 C547 1.334 . S
C551 C552 1.487 . S
C552 C551 1.487 . S
C552 C553 1.185 . S
C553 C550 1.482 . S
C553 C552 1.185 . S
H554 C534 0.932 . S
H555 C536 0.928 . S
H556 C537 0.932 . S
H557 C539 0.928 . S
C127 C2 1.234 . S
C130 C120 1.062 . S
C151 C21 1.135 . S
C154 C98 1.000 . S
C175 C42 0.875 . S
C178 C112 0.868 . S
C199 C1 0.780 . S
C202 C123 0.778 . S
C226 C101 0.865 . S
C223 C22 0.872 . S
C250 C109 0.998 . S
C247 C41 1.132 . S
C271 C38 2.019 . S
C274 C76 1.751 . S
C295 C59 2.119 . S
C298 C87 1.823 . S
C319 C18 2.015 . S
C322 C65 1.749 . S
C346 C79 1.694 . S
C343 C39 1.741 . S
C370 C90 1.610 . S
C367 C58 1.647 . S
C391 C19 1.743 . S
C394 C68 1.697 . S
C418 C89 1.506 . S
C415 C9 1.512 . S
C439 C29 1.522 . S
C442 C67 1.511 . S
C463 C49 1.520 . S
C466 C78 1.507 . S
C490 C111 1.400 . S
C487 C28 1.428 . S
C514 C122 1.393 . S
C511 C48 1.428 . S
C535 C8 1.423 . S
C538 C100 1.400 1_655 S
