# Generated by pormake.
# Topology iac, (4,6)-cn, num edge types: 1
# Building blocks:
#     Node 0, Type 0, BuildingBlock: UXUYUI_clean_sbu_0, # of connection points: 4
#     Node 1, Type 0, BuildingBlock: UXUYUI_clean_sbu_0, # of connection points: 4
#     Node 2, Type 0, BuildingBlock: UXUYUI_clean_sbu_0, # of connection points: 4
#     Node 3, Type 0, BuildingBlock: UXUYUI_clean_sbu_0, # of connection points: 4
#     Node 4, Type 0, BuildingBlock: UXUYUI_clean_sbu_0, # of connection points: 4
#     Node 5, Type 0, BuildingBlock: UXUYUI_clean_sbu_0, # of connection points: 4
#     Node 6, Type 0, BuildingBlock: UXUYUI_clean_sbu_0, # of connection points: 4
#     Node 7, Type 0, BuildingBlock: UXUYUI_clean_sbu_0, # of connection points: 4
#     Node 8, Type 0, BuildingBlock: UXUYUI_clean_sbu_0, # of connection points: 4
#     Node 9, Type 0, BuildingBlock: UXUYUI_clean_sbu_0, # of connection points: 4
#     Node 10, Type 0, BuildingBlock: UXUYUI_clean_sbu_0, # of connection points: 4
#     Node 11, Type 0, BuildingBlock: UXUYUI_clean_sbu_0, # of connection points: 4
#     Node 12, Type 0, BuildingBlock: UXUYUI_clean_sbu_0, # of connection points: 4
#     Node 13, Type 0, BuildingBlock: UXUYUI_clean_sbu_0, # of connection points: 4
#     Node 14, Type 0, BuildingBlock: UXUYUI_clean_sbu_0, # of connection points: 4
#     Node 15, Type 0, BuildingBlock: UXUYUI_clean_sbu_0, # of connection points: 4
#     Node 16, Type 0, BuildingBlock: UXUYUI_clean_sbu_0, # of connection points: 4
#     Node 17, Type 0, BuildingBlock: UXUYUI_clean_sbu_0, # of connection points: 4
#     Node 18, Type 0, BuildingBlock: UXUYUI_clean_sbu_0, # of connection points: 4
#     Node 19, Type 0, BuildingBlock: UXUYUI_clean_sbu_0, # of connection points: 4
#     Node 20, Type 0, BuildingBlock: UXUYUI_clean_sbu_0, # of connection points: 4
#     Node 21, Type 0, BuildingBlock: UXUYUI_clean_sbu_0, # of connection points: 4
#     Node 22, Type 0, BuildingBlock: UXUYUI_clean_sbu_0, # of connection points: 4
#     Node 23, Type 0, BuildingBlock: UXUYUI_clean_sbu_0, # of connection points: 4
#     Node 24, Type 1, BuildingBlock: VOLQOD_clean_sbu_1, # of connection points: 6
#     Node 25, Type 1, BuildingBlock: VOLQOD_clean_sbu_1, # of connection points: 6
#     Node 26, Type 1, BuildingBlock: VOLQOD_clean_sbu_1, # of connection points: 6
#     Node 27, Type 1, BuildingBlock: VOLQOD_clean_sbu_1, # of connection points: 6
#     Node 28, Type 1, BuildingBlock: VOLQOD_clean_sbu_1, # of connection points: 6
#     Node 29, Type 1, BuildingBlock: VOLQOD_clean_sbu_1, # of connection points: 6
#     Node 30, Type 1, BuildingBlock: VOLQOD_clean_sbu_1, # of connection points: 6
#     Node 31, Type 1, BuildingBlock: VOLQOD_clean_sbu_1, # of connection points: 6
#     Node 32, Type 1, BuildingBlock: VOLQOD_clean_sbu_1, # of connection points: 6
#     Node 33, Type 1, BuildingBlock: VOLQOD_clean_sbu_1, # of connection points: 6
#     Node 34, Type 1, BuildingBlock: VOLQOD_clean_sbu_1, # of connection points: 6
#     Node 35, Type 1, BuildingBlock: VOLQOD_clean_sbu_1, # of connection points: 6
#     Node 36, Type 1, BuildingBlock: VOLQOD_clean_sbu_1, # of connection points: 6
#     Node 37, Type 1, BuildingBlock: VOLQOD_clean_sbu_1, # of connection points: 6
#     Node 38, Type 1, BuildingBlock: VOLQOD_clean_sbu_1, # of connection points: 6
#     Node 39, Type 1, BuildingBlock: VOLQOD_clean_sbu_1, # of connection points: 6
#     Edge 40, Type (0, 1), BuildingBlock: AJUNOK_clean_linker_0, # of connection points: 2
#     Edge 41, Type (0, 1), BuildingBlock: AJUNOK_clean_linker_0, # of connection points: 2
#     Edge 42, Type (0, 1), BuildingBlock: AJUNOK_clean_linker_0, # of connection points: 2
#     Edge 43, Type (0, 1), BuildingBlock: AJUNOK_clean_linker_0, # of connection points: 2
#     Edge 44, Type (0, 1), BuildingBlock: AJUNOK_clean_linker_0, # of connection points: 2
#     Edge 45, Type (0, 1), BuildingBlock: AJUNOK_clean_linker_0, # of connection points: 2
#     Edge 46, Type (0, 1), BuildingBlock: AJUNOK_clean_linker_0, # of connection points: 2
#     Edge 47, Type (0, 1), BuildingBlock: AJUNOK_clean_linker_0, # of connection points: 2
#     Edge 48, Type (0, 1), BuildingBlock: AJUNOK_clean_linker_0, # of connection points: 2
#     Edge 49, Type (0, 1), BuildingBlock: AJUNOK_clean_linker_0, # of connection points: 2
#     Edge 50, Type (0, 1), BuildingBlock: AJUNOK_clean_linker_0, # of connection points: 2
#     Edge 51, Type (0, 1), BuildingBlock: AJUNOK_clean_linker_0, # of connection points: 2
#     Edge 52, Type (0, 1), BuildingBlock: AJUNOK_clean_linker_0, # of connection points: 2
#     Edge 53, Type (0, 1), BuildingBlock: AJUNOK_clean_linker_0, # of connection points: 2
#     Edge 54, Type (0, 1), BuildingBlock: AJUNOK_clean_linker_0, # of connection points: 2
#     Edge 55, Type (0, 1), BuildingBlock: AJUNOK_clean_linker_0, # of connection points: 2
#     Edge 56, Type (0, 1), BuildingBlock: AJUNOK_clean_linker_0, # of connection points: 2
#     Edge 57, Type (0, 1), BuildingBlock: AJUNOK_clean_linker_0, # of connection points: 2
#     Edge 58, Type (0, 1), BuildingBlock: AJUNOK_clean_linker_0, # of connection points: 2
#     Edge 59, Type (0, 1), BuildingBlock: AJUNOK_clean_linker_0, # of connection points: 2
#     Edge 60, Type (0, 1), BuildingBlock: AJUNOK_clean_linker_0, # of connection points: 2
#     Edge 61, Type (0, 1), BuildingBlock: AJUNOK_clean_linker_0, # of connection points: 2
#     Edge 62, Type (0, 1), BuildingBlock: AJUNOK_clean_linker_0, # of connection points: 2
#     Edge 63, Type (0, 1), BuildingBlock: AJUNOK_clean_linker_0, # of connection points: 2
#     Edge 64, Type (0, 1), BuildingBlock: AJUNOK_clean_linker_0, # of connection points: 2
#     Edge 65, Type (0, 1), BuildingBlock: AJUNOK_clean_linker_0, # of connection points: 2
#     Edge 66, Type (0, 1), BuildingBlock: AJUNOK_clean_linker_0, # of connection points: 2
#     Edge 67, Type (0, 1), BuildingBlock: AJUNOK_clean_linker_0, # of connection points: 2
#     Edge 68, Type (0, 1), BuildingBlock: AJUNOK_clean_linker_0, # of connection points: 2
#     Edge 69, Type (0, 1), BuildingBlock: AJUNOK_clean_linker_0, # of connection points: 2
#     Edge 70, Type (0, 1), BuildingBlock: AJUNOK_clean_linker_0, # of connection points: 2
#     Edge 71, Type (0, 1), BuildingBlock: AJUNOK_clean_linker_0, # of connection points: 2
#     Edge 72, Type (0, 1), BuildingBlock: AJUNOK_clean_linker_0, # of connection points: 2
#     Edge 73, Type (0, 1), BuildingBlock: AJUNOK_clean_linker_0, # of connection points: 2
#     Edge 74, Type (0, 1), BuildingBlock: AJUNOK_clean_linker_0, # of connection points: 2
#     Edge 75, Type (0, 1), BuildingBlock: AJUNOK_clean_linker_0, # of connection points: 2
#     Edge 76, Type (0, 1), BuildingBlock: AJUNOK_clean_linker_0, # of connection points: 2
#     Edge 77, Type (0, 1), BuildingBlock: AJUNOK_clean_linker_0, # of connection points: 2
#     Edge 78, Type (0, 1), BuildingBlock: AJUNOK_clean_linker_0, # of connection points: 2
#     Edge 79, Type (0, 1), BuildingBlock: AJUNOK_clean_linker_0, # of connection points: 2
#     Edge 80, Type (0, 1), BuildingBlock: AJUNOK_clean_linker_0, # of connection points: 2
#     Edge 81, Type (0, 1), BuildingBlock: AJUNOK_clean_linker_0, # of connection points: 2
#     Edge 82, Type (0, 1), BuildingBlock: AJUNOK_clean_linker_0, # of connection points: 2
#     Edge 83, Type (0, 1), BuildingBlock: AJUNOK_clean_linker_0, # of connection points: 2
#     Edge 84, Type (0, 1), BuildingBlock: AJUNOK_clean_linker_0, # of connection points: 2
#     Edge 85, Type (0, 1), BuildingBlock: AJUNOK_clean_linker_0, # of connection points: 2
#     Edge 86, Type (0, 1), BuildingBlock: AJUNOK_clean_linker_0, # of connection points: 2
#     Edge 87, Type (0, 1), BuildingBlock: AJUNOK_clean_linker_0, # of connection points: 2
#     Edge 88, Type (0, 1), BuildingBlock: AJUNOK_clean_linker_0, # of connection points: 2
#     Edge 89, Type (0, 1), BuildingBlock: AJUNOK_clean_linker_0, # of connection points: 2
#     Edge 90, Type (0, 1), BuildingBlock: AJUNOK_clean_linker_0, # of connection points: 2
#     Edge 91, Type (0, 1), BuildingBlock: AJUNOK_clean_linker_0, # of connection points: 2
#     Edge 92, Type (0, 1), BuildingBlock: AJUNOK_clean_linker_0, # of connection points: 2
#     Edge 93, Type (0, 1), BuildingBlock: AJUNOK_clean_linker_0, # of connection points: 2
#     Edge 94, Type (0, 1), BuildingBlock: AJUNOK_clean_linker_0, # of connection points: 2
#     Edge 95, Type (0, 1), BuildingBlock: AJUNOK_clean_linker_0, # of connection points: 2
#     Edge 96, Type (0, 1), BuildingBlock: AJUNOK_clean_linker_0, # of connection points: 2
#     Edge 97, Type (0, 1), BuildingBlock: AJUNOK_clean_linker_0, # of connection points: 2
#     Edge 98, Type (0, 1), BuildingBlock: AJUNOK_clean_linker_0, # of connection points: 2
#     Edge 99, Type (0, 1), BuildingBlock: AJUNOK_clean_linker_0, # of connection points: 2
#     Edge 100, Type (0, 1), BuildingBlock: AJUNOK_clean_linker_0, # of connection points: 2
#     Edge 101, Type (0, 1), BuildingBlock: AJUNOK_clean_linker_0, # of connection points: 2
#     Edge 102, Type (0, 1), BuildingBlock: AJUNOK_clean_linker_0, # of connection points: 2
#     Edge 103, Type (0, 1), BuildingBlock: AJUNOK_clean_linker_0, # of connection points: 2
#     Edge 104, Type (0, 1), BuildingBlock: AJUNOK_clean_linker_0, # of connection points: 2
#     Edge 105, Type (0, 1), BuildingBlock: AJUNOK_clean_linker_0, # of connection points: 2
#     Edge 106, Type (0, 1), BuildingBlock: AJUNOK_clean_linker_0, # of connection points: 2
#     Edge 107, Type (0, 1), BuildingBlock: AJUNOK_clean_linker_0, # of connection points: 2
#     Edge 108, Type (0, 1), BuildingBlock: AJUNOK_clean_linker_0, # of connection points: 2
#     Edge 109, Type (0, 1), BuildingBlock: AJUNOK_clean_linker_0, # of connection points: 2
#     Edge 110, Type (0, 1), BuildingBlock: AJUNOK_clean_linker_0, # of connection points: 2
#     Edge 111, Type (0, 1), BuildingBlock: AJUNOK_clean_linker_0, # of connection points: 2
#     Edge 112, Type (0, 1), BuildingBlock: AJUNOK_clean_linker_0, # of connection points: 2
#     Edge 113, Type (0, 1), BuildingBlock: AJUNOK_clean_linker_0, # of connection points: 2
#     Edge 114, Type (0, 1), BuildingBlock: AJUNOK_clean_linker_0, # of connection points: 2
#     Edge 115, Type (0, 1), BuildingBlock: AJUNOK_clean_linker_0, # of connection points: 2
#     Edge 116, Type (0, 1), BuildingBlock: AJUNOK_clean_linker_0, # of connection points: 2
#     Edge 117, Type (0, 1), BuildingBlock: AJUNOK_clean_linker_0, # of connection points: 2
#     Edge 118, Type (0, 1), BuildingBlock: AJUNOK_clean_linker_0, # of connection points: 2
#     Edge 119, Type (0, 1), BuildingBlock: AJUNOK_clean_linker_0, # of connection points: 2
#     Edge 120, Type (0, 1), BuildingBlock: AJUNOK_clean_linker_0, # of connection points: 2
#     Edge 121, Type (0, 1), BuildingBlock: AJUNOK_clean_linker_0, # of connection points: 2
#     Edge 122, Type (0, 1), BuildingBlock: AJUNOK_clean_linker_0, # of connection points: 2
#     Edge 123, Type (0, 1), BuildingBlock: AJUNOK_clean_linker_0, # of connection points: 2
#     Edge 124, Type (0, 1), BuildingBlock: AJUNOK_clean_linker_0, # of connection points: 2
#     Edge 125, Type (0, 1), BuildingBlock: AJUNOK_clean_linker_0, # of connection points: 2
#     Edge 126, Type (0, 1), BuildingBlock: AJUNOK_clean_linker_0, # of connection points: 2
#     Edge 127, Type (0, 1), BuildingBlock: AJUNOK_clean_linker_0, # of connection points: 2
#     Edge 128, Type (0, 1), BuildingBlock: AJUNOK_clean_linker_0, # of connection points: 2
#     Edge 129, Type (0, 1), BuildingBlock: AJUNOK_clean_linker_0, # of connection points: 2
#     Edge 130, Type (0, 1), BuildingBlock: AJUNOK_clean_linker_0, # of connection points: 2
#     Edge 131, Type (0, 1), BuildingBlock: AJUNOK_clean_linker_0, # of connection points: 2
#     Edge 132, Type (0, 1), BuildingBlock: AJUNOK_clean_linker_0, # of connection points: 2
#     Edge 133, Type (0, 1), BuildingBlock: AJUNOK_clean_linker_0, # of connection points: 2
#     Edge 134, Type (0, 1), BuildingBlock: AJUNOK_clean_linker_0, # of connection points: 2
#     Edge 135, Type (0, 1), BuildingBlock: AJUNOK_clean_linker_0, # of connection points: 2
# Relax obj value: 0.335
# Max RMSD: 0.288
# Mean RMSD: 0.203
data_MOF--net-iac--node1-UXUYUI_clean_sbu_0--node2-VOLQOD_clean_sbu_1--edge1-AJUNOK_clean_linker_0
_symmetry_space_group_name_H-M    P1
_symmetry_Int_Tables_number       1
_symmetry_cell_setting            triclinic
loop_
_symmetry_equiv_pos_as_xyz
'x, y, z'
_cell_length_a     53.770354
_cell_length_b     53.819293
_cell_length_c     53.717474
_cell_angle_alpha  90.073389
_cell_angle_beta   90.064093
_cell_angle_gamma 90.412794
loop_
_atom_site_label
_atom_site_type_symbol
_atom_site_fract_x
_atom_site_fract_y
_atom_site_fract_z
_atom_type_partial_charge
Li0 Li 6e-05 0.2787 0.1195 0.0
Li1 Li 0.02467 0.25909 0.15084 0.0
Li2 Li 0.00714 0.23521 0.11587 0.0
Li3 Li 0.98094 0.24951 0.14916 0.0
C4 C 0.04973 0.25075 0.10071 0.0
N5 N 0.08462 0.22617 0.07228 0.0
C6 C 0.0708 0.24061 0.11196 0.0
C7 C 0.04642 0.24838 0.07499 0.0
C8 C 0.08823 0.22827 0.09726 0.0
C9 C 0.06425 0.23587 0.06095 0.0
C10 C 0.00254 0.29551 0.17652 0.0
C11 C 0.0096 0.2984 0.22077 0.0
N12 N 0.01686 0.3225 0.21799 0.0
C13 C 0.00994 0.32035 0.1741 0.0
C14 C 0.00224 0.28448 0.20004 0.0
C15 C 0.01716 0.33366 0.19529 0.0
C16 C 0.9831 0.3277 0.11051 0.0
N17 N -0.00135 0.30945 0.10281 0.0
C18 C 0.01997 0.33742 0.07572 0.0
C19 C 0.01658 0.31374 0.08552 0.0
C20 C 0.00478 0.35685 0.08387 0.0
C21 C 0.98589 0.35179 0.10122 0.0
H22 H 0.96937 0.3238 0.12471 0.0
H23 H 0.02905 0.29905 0.08022 0.0
C24 C 0.06492 0.25214 0.18596 0.0
N25 N 0.05305 0.26725 0.16966 0.0
C26 C 0.08778 0.25955 0.19607 0.0
C27 C 0.08473 0.29823 0.17337 0.0
C28 C 0.06234 0.28992 0.1634 0.0
C29 C 0.09818 0.2826 0.18918 0.0
H30 H 0.05728 0.23399 0.19018 0.0
H31 H 0.05265 0.30122 0.14994 0.0
C32 C 0.95861 0.26626 0.09976 0.0
N33 N 0.92612 0.29625 0.07387 0.0
C34 C 0.93758 0.27579 0.11157 0.0
C35 C 0.96313 0.27199 0.07479 0.0
C36 C 0.92136 0.29089 0.09815 0.0
C37 C 0.94649 0.2872 0.06203 0.0
C38 C 0.00131 0.20713 0.16657 0.0
C39 C 0.99038 0.18589 0.15612 0.0
C40 C 0.00385 0.20892 0.1924 0.0
C41 C 0.98177 0.16697 0.17175 0.0
C42 C -0.005 0.1896 0.2074 0.0
N43 N 0.98422 0.16921 0.19685 0.0
C44 C 0.02601 0.18905 0.09907 0.0
C45 C 0.99092 0.20479 0.07754 0.0
C46 C 0.02293 0.16593 0.08757 0.0
N47 N 0.00956 0.20755 0.09442 0.0
C48 C 0.98712 0.18206 0.06575 0.0
C49 C 0.00262 0.1621 0.07156 0.0
H50 H 0.04027 0.19164 0.11307 0.0
H51 H 0.97789 0.21965 0.07456 0.0
C52 C 0.94197 0.25139 0.18581 0.0
N53 N 0.95172 0.23939 0.16586 0.0
C54 C 0.91918 0.24362 0.19567 0.0
C55 C 0.91736 0.21111 0.16458 0.0
C56 C 0.93991 0.21969 0.15515 0.0
C57 C 0.90653 0.22331 0.18489 0.0
H58 H 0.95138 0.26747 0.19348 0.0
H59 H 0.94781 0.21102 0.13883 0.0
O60 O 0.03225 0.26264 0.11478 0.0
O61 O -0.00431 0.28208 0.15595 0.0
O62 O 0.975 0.25184 0.11269 0.0
O63 O 0.00983 0.22589 0.15158 0.0
H64 H 0.07365 0.24207 0.13181 0.0
H65 H 0.03006 0.25583 0.06601 0.0
H66 H 0.1046 0.22031 0.10573 0.0
H67 H 0.06186 0.2338 0.04106 0.0
H68 H 0.00955 0.29005 0.23908 0.0
H69 H 0.0104 0.32919 0.15604 0.0
H70 H -0.00354 0.26535 0.20225 0.0
H71 H 0.02307 0.35285 0.19367 0.0
H72 H 0.03502 0.34074 0.06273 0.0
H73 H 0.97387 0.36641 0.10791 0.0
H74 H 0.09779 0.24694 0.2081 0.0
H75 H 0.09193 0.31628 0.16798 0.0
H76 H 0.93388 0.27175 0.13094 0.0
H77 H 0.97951 0.26503 0.06546 0.0
H78 H 0.90502 0.29842 0.10706 0.0
H79 H 0.94982 0.29188 0.04273 0.0
H80 H 0.9882 0.18414 0.13619 0.0
H81 H 0.01262 0.225 0.2008 0.0
H82 H 0.9731 0.15053 0.16391 0.0
H83 H -0.00323 0.1908 0.22743 0.0
H84 H 0.0351 0.15076 0.09252 0.0
H85 H 0.97135 0.17964 0.05338 0.0
H86 H 0.91106 0.25407 0.21082 0.0
H87 H 0.90814 0.1955 0.15565 0.0
Li88 Li 0.99205 0.73924 0.3694 0.0
Li89 Li 0.01811 0.76917 0.39103 0.0
Li90 Li 0.03323 0.74448 0.35605 0.0
Li91 Li 0.02485 0.72384 0.39569 0.0
C92 C 0.0135 0.78381 0.33625 0.0
N93 N 0.02744 0.81146 0.29524 0.0
C94 C 0.02661 0.80611 0.33938 0.0
C95 C 0.00725 0.77568 0.31231 0.0
C96 C 0.03354 0.8198 0.31839 0.0
C97 C 0.01454 0.78989 0.2918 0.0
C98 C 0.97355 0.73484 0.415 0.0
C99 C 0.93197 0.74225 0.42998 0.0
N100 N 0.92814 0.71732 0.43187 0.0
C101 C 0.9692 0.7093 0.41714 0.0
C102 C 0.9548 0.75147 0.42153 0.0
C103 C 0.94614 0.7008 0.42571 0.0
C104 C 0.94363 0.71601 0.35938 0.0
N105 N 0.9585 0.73654 0.35778 0.0
C106 C 0.92676 0.75879 0.33638 0.0
C107 C 0.95023 0.75784 0.34711 0.0
C108 C 0.91137 0.73778 0.33706 0.0
C109 C 0.91973 0.71624 0.34905 0.0
H110 H 0.95038 0.69936 0.36823 0.0
H111 H 0.9619 0.7742 0.34671 0.0
C112 C 0.03546 0.81182 0.41915 0.0
N113 N 0.01632 0.80032 0.40711 0.0
C114 C 0.0313 0.83378 0.43229 0.0
C115 C 0.98825 0.83228 0.41922 0.0
C116 C -0.00676 0.81038 0.40639 0.0
C117 C 0.00731 0.84395 0.43278 0.0
H118 H 0.05389 0.80401 0.41871 0.0
H119 H 0.97863 0.80114 0.396 0.0
C120 C 0.00198 0.6938 0.35205 0.0
N121 N 0.97323 0.65579 0.33238 0.0
C122 C -0.00189 0.67196 0.36561 0.0
C123 C 0.99156 0.69615 0.32832 0.0
C124 C 0.98343 0.653 0.35538 0.0
C125 C 0.97699 0.67677 0.31875 0.0
C126 C 0.06513 0.75472 0.40863 0.0
C127 C 0.09057 0.75891 0.40523 0.0
C128 C 0.05525 0.75438 0.4327 0.0
C129 C 0.10575 0.76283 0.42602 0.0
C130 C 0.07105 0.75834 0.453 0.0
N131 N 0.09576 0.76246 0.44927 0.0
C132 C 0.07219 0.76286 0.32715 0.0
C133 C 0.05479 0.72504 0.31218 0.0
C134 C 0.08987 0.76274 0.30827 0.0
N135 N 0.05518 0.7442 0.32873 0.0
C136 C 0.07237 0.72402 0.2931 0.0
C137 C 0.09019 0.74303 0.2911 0.0
H138 H 0.07238 0.77749 0.34098 0.0
H139 H 0.04133 0.71021 0.31421 0.0
C140 C 0.02807 0.69569 0.44025 0.0
N141 N 0.03725 0.6992 0.41697 0.0
C142 C 0.03544 0.67515 0.45412 0.0
C143 C 0.06342 0.66387 0.42077 0.0
C144 C 0.0553 0.68447 0.40746 0.0
C145 C 0.05264 0.65843 0.44394 0.0
H146 H 0.01407 0.70807 0.44749 0.0
H147 H 0.06246 0.68808 0.38899 0.0
O148 O 0.00686 0.76994 0.35651 0.0
O149 O -0.00402 0.74348 0.40642 0.0
O150 O 0.01649 0.71246 0.36168 0.0
O151 O 0.05016 0.75059 0.38843 0.0
H152 H 0.0316 0.81264 0.35779 0.0
H153 H -0.00297 0.75849 0.30962 0.0
H154 H 0.04382 0.83702 0.3205 0.0
H155 H 0.00997 0.78376 0.27316 0.0
H156 H 0.91729 0.75492 0.43506 0.0
H157 H 0.98335 0.69614 0.412 0.0
H158 H 0.95779 0.77128 0.42019 0.0
H159 H 0.94253 0.68107 0.42734 0.0
H160 H 0.92067 0.77582 0.3276 0.0
H161 H 0.90817 0.6997 0.34989 0.0
H162 H 0.04665 0.84277 0.44187 0.0
H163 H 0.96961 0.83978 0.4189 0.0
H164 H 0.0064 0.66961 0.3838 0.0
H165 H -0.00552 0.71288 0.31754 0.0
H166 H 0.98018 0.63605 0.36572 0.0
H167 H 0.96863 0.67843 0.30051 0.0
H168 H 0.09849 0.75914 0.38671 0.0
H169 H 0.03559 0.7513 0.43568 0.0
H170 H 0.12547 0.76614 0.42367 0.0
H171 H 0.06366 0.75818 0.47172 0.0
H172 H 0.10384 0.77734 0.30777 0.0
H173 H 0.07239 0.70837 0.2804 0.0
H174 H 0.0263 0.6714 0.47168 0.0
H175 H 0.07672 0.6514 0.41235 0.0
Li176 Li 0.51445 0.75125 0.66251 0.0
Li177 Li 0.48938 0.77178 0.63161 0.0
Li178 Li 0.47041 0.74404 0.66289 0.0
Li179 Li 0.49406 0.72741 0.6288 0.0
C180 C 0.49602 0.79047 0.68713 0.0
N181 N 0.51495 0.81962 0.72516 0.0
C182 C 0.50139 0.81558 0.68297 0.0
C183 C 0.50018 0.78022 0.71065 0.0
C184 C 0.51096 0.83 0.70244 0.0
C185 C 0.50981 0.79525 0.72962 0.0
C186 C 0.53672 0.74202 0.61082 0.0
C187 C 0.54876 0.72822 0.56987 0.0
N188 N 0.56956 0.71786 0.57973 0.0
C189 C 0.55824 0.7313 0.62055 0.0
C190 C 0.53195 0.74056 0.58527 0.0
C191 C 0.57461 0.71916 0.60451 0.0
C192 C 0.5562 0.74294 0.69568 0.0
N193 N 0.54421 0.75837 0.67976 0.0
C194 C 0.57646 0.78883 0.68311 0.0
C195 C 0.55381 0.78089 0.67341 0.0
C196 C 0.58996 0.77295 0.69864 0.0
C197 C 0.57938 0.74992 0.7054 0.0
H198 H 0.5482 0.725 0.70013 0.0
H199 H 0.54395 0.79254 0.66037 0.0
C200 C 0.47197 0.82026 0.61834 0.0
N201 N 0.48924 0.8024 0.61414 0.0
C202 C 0.47519 0.84399 0.60822 0.0
C203 C 0.51368 0.83031 0.58962 0.0
C204 C 0.50961 0.80689 0.59983 0.0
C205 C 0.49662 0.84928 0.59423 0.0
H206 H 0.45634 0.81643 0.63042 0.0
H207 H 0.52331 0.79259 0.59715 0.0
C208 C 0.48677 0.70137 0.6795 0.0
N209 N 0.46318 0.667 0.70963 0.0
C210 C 0.47118 0.68326 0.66905 0.0
C211 C 0.49054 0.70188 0.70524 0.0
C212 C 0.45937 0.66608 0.68461 0.0
C213 C 0.4784 0.68436 0.72017 0.0
C214 C 0.4473 0.75981 0.61221 0.0
C215 C 0.4269 0.77168 0.62293 0.0
C216 C 0.45202 0.76264 0.58679 0.0
C217 C 0.41145 0.78614 0.60795 0.0
C218 C 0.43617 0.77731 0.57246 0.0
N219 N 0.41638 0.78864 0.58325 0.0
C220 C 0.43913 0.74152 0.70643 0.0
C221 C 0.42357 0.7239 0.66902 0.0
C222 C 0.41724 0.73504 0.71893 0.0
N223 N 0.44169 0.73612 0.68185 0.0
C224 C 0.40133 0.71746 0.68061 0.0
C225 C 0.39786 0.7231 0.70588 0.0
H226 H 0.45391 0.75098 0.7163 0.0
H227 H 0.42625 0.71958 0.64955 0.0
C228 C 0.51347 0.68226 0.60992 0.0
N229 N 0.49503 0.69925 0.6076 0.0
C230 C 0.51216 0.65987 0.59681 0.0
C231 C 0.47291 0.67292 0.57928 0.0
C232 C 0.47512 0.69515 0.59248 0.0
C233 C 0.49144 0.65489 0.58163 0.0
H234 H 0.52865 0.68567 0.62272 0.0
H235 H 0.4604 0.70865 0.59152 0.0
O236 O 0.48698 0.77598 0.66817 0.0
O237 O 0.52028 0.75375 0.62621 0.0
O238 O 0.49799 0.71874 0.66465 0.0
O239 O 0.46281 0.74576 0.62656 0.0
H240 H 0.49841 0.8238 0.66487 0.0
H241 H 0.49654 0.76076 0.71406 0.0
H242 H 0.51529 0.84943 0.69946 0.0
H243 H 0.5133 0.78751 0.74785 0.0
H244 H 0.54524 0.72683 0.55008 0.0
H245 H 0.5622 0.73215 0.64026 0.0
H246 H 0.51533 0.7487 0.57748 0.0
H247 H 0.5913 0.71071 0.61179 0.0
H248 H 0.58364 0.80695 0.67793 0.0
H249 H 0.58933 0.7371 0.71724 0.0
H250 H 0.4617 0.85832 0.61214 0.0
H251 H 0.53025 0.83372 0.57865 0.0
H252 H 0.46796 0.68269 0.64917 0.0
H253 H 0.50261 0.71573 0.71361 0.0
H254 H 0.44711 0.65208 0.6768 0.0
H255 H 0.48104 0.6846 0.74013 0.0
H256 H 0.42317 0.77 0.64264 0.0
H257 H 0.46786 0.75375 0.57825 0.0
H258 H 0.39561 0.79546 0.616 0.0
H259 H 0.43963 0.77973 0.55278 0.0
H260 H 0.4153 0.73973 0.73844 0.0
H261 H 0.38668 0.70903 0.66955 0.0
H262 H 0.52651 0.64611 0.59946 0.0
H263 H 0.45659 0.66954 0.5679 0.0
Li264 Li 0.47661 0.23105 0.86959 0.0
Li265 Li 0.50365 0.25658 0.89792 0.0
Li266 Li 0.52133 0.23237 0.86329 0.0
Li267 Li 0.50402 0.21177 0.90098 0.0
C268 C 0.50402 0.27543 0.84242 0.0
N269 N 0.51685 0.30597 0.80312 0.0
C270 C 0.51714 0.29753 0.84677 0.0
C271 C 0.4971 0.26904 0.81816 0.0
C272 C 0.52354 0.31267 0.82663 0.0
C273 C 0.50385 0.28467 0.79852 0.0
C274 C 0.46163 0.22412 0.92502 0.0
C275 C 0.45502 0.21624 0.96869 0.0
N276 N 0.43403 0.20316 0.963 0.0
C277 C 0.43987 0.21082 0.91959 0.0
C278 C 0.46917 0.22708 0.94975 0.0
C279 C 0.42621 0.2003 0.93906 0.0
C280 C 0.43132 0.21343 0.8455 0.0
N281 N 0.44555 0.23312 0.8528 0.0
C282 C 0.41654 0.26163 0.83524 0.0
C283 C 0.43842 0.25687 0.84823 0.0
C284 C 0.40189 0.24171 0.82683 0.0
C285 C 0.40934 0.21733 0.83223 0.0
H286 H 0.43688 0.19474 0.85 0.0
H287 H 0.44984 0.27221 0.85464 0.0
C288 C 0.52173 0.30272 0.91959 0.0
N289 N 0.50242 0.28651 0.91664 0.0
C290 C 0.51839 0.32475 0.93296 0.0
C291 C 0.47543 0.31302 0.9397 0.0
C292 C 0.47961 0.29126 0.92639 0.0
C293 C 0.49488 0.33015 0.94287 0.0
H294 H 0.53952 0.29888 0.91118 0.0
H295 H 0.46445 0.27833 0.92343 0.0
C296 C 0.48841 0.18627 0.84909 0.0
N297 N 0.46575 0.15371 0.81619 0.0
C298 C 0.47848 0.16378 0.85764 0.0
C299 C 0.48705 0.19208 0.82378 0.0
C300 C 0.46705 0.14759 0.84072 0.0
C301 C 0.47544 0.17542 0.80745 0.0
C302 C 0.55 0.24647 0.91334 0.0
C303 C 0.57136 0.25728 0.9031 0.0
C304 C 0.54603 0.24776 0.93902 0.0
C305 C 0.58829 0.2695 0.91872 0.0
C306 C 0.56338 0.26017 0.95401 0.0
N307 N 0.58396 0.2707 0.94363 0.0
C308 C 0.56094 0.2494 0.83289 0.0
C309 C 0.55084 0.2066 0.8292 0.0
C310 C 0.58085 0.24659 0.81661 0.0
N311 N 0.54656 0.2295 0.839 0.0
C312 C 0.57048 0.20296 0.81269 0.0
C313 C 0.58605 0.22304 0.80665 0.0
H314 H 0.55763 0.26722 0.84144 0.0
H315 H 0.53948 0.19095 0.83478 0.0
C316 C 0.49053 0.16961 0.92975 0.0
N317 N 0.5094 0.18536 0.9237 0.0
C318 C 0.49428 0.15094 0.94723 0.0
C319 C 0.53715 0.16425 0.95127 0.0
C320 C 0.5325 0.18282 0.93376 0.0
C321 C 0.51778 0.14822 0.95831 0.0
H322 H 0.47257 0.17151 0.92101 0.0
H323 H 0.54737 0.1952 0.92822 0.0
O324 O 0.49763 0.26036 0.8619 0.0
O325 O 0.47534 0.2344 0.9062 0.0
O326 O 0.49964 0.20236 0.8654 0.0
O327 O 0.53324 0.23439 0.89835 0.0
H328 H 0.52251 0.3028 0.86545 0.0
H329 H 0.48654 0.25225 0.81453 0.0
H330 H 0.53385 0.32974 0.82969 0.0
H331 H 0.4987 0.27991 0.77962 0.0
H332 H 0.46072 0.21823 0.98791 0.0
H333 H 0.43375 0.20845 0.90054 0.0
H334 H 0.4858 0.23759 0.95426 0.0
H335 H 0.40942 0.1898 0.93515 0.0
H336 H 0.41124 0.28066 0.83158 0.0
H337 H 0.39809 0.20153 0.82655 0.0
H338 H 0.53373 0.33776 0.93488 0.0
H339 H 0.4571 0.31657 0.94721 0.0
H340 H 0.47955 0.15889 0.87712 0.0
H341 H 0.4949 0.20926 0.81682 0.0
H342 H 0.4592 0.13016 0.84708 0.0
H343 H 0.47416 0.17974 0.78783 0.0
H344 H 0.57488 0.25624 0.88333 0.0
H345 H 0.52971 0.23931 0.94726 0.0
H346 H 0.60486 0.27801 0.91103 0.0
H347 H 0.56048 0.2614 0.97389 0.0
H348 H 0.59274 0.26246 0.81277 0.0
H349 H 0.57382 0.18457 0.80527 0.0
H350 H 0.47903 0.13852 0.95185 0.0
H351 H 0.55552 0.16259 0.95935 0.0
Li352 Li 0.12967 0.01779 0.27689 0.0
Li353 Li 0.15396 0.04307 0.24868 0.0
Li354 Li 0.12064 0.0156 0.2329 0.0
Li355 Li 0.16001 -0.00025 0.24776 0.0
C356 C 0.0989 0.05798 0.24563 0.0
N357 N 0.06022 0.08434 0.22481 0.0
C358 C 0.10384 0.07896 0.23108 0.0
C359 C 0.0743 0.05048 0.24971 0.0
C360 C 0.08401 0.09204 0.22072 0.0
C361 C 0.055 0.06402 0.23896 0.0
C362 C 0.18274 0.03673 0.28844 0.0
C363 C 0.22256 0.05753 0.29049 0.0
N364 N 0.21545 0.06892 0.31192 0.0
C365 C 0.17589 0.04847 0.31059 0.0
C366 C 0.20634 0.0411 0.27839 0.0
C367 C 0.19268 0.06473 0.32215 0.0
C368 C 0.11753 -5e-05 0.32572 0.0
N369 N 0.11411 0.01801 0.3084 0.0
C370 C 0.0847 0.03855 0.33433 0.0
C371 C 0.09853 0.03735 0.31253 0.0
C372 C 0.08706 0.01968 0.35204 0.0
C373 C 0.10378 0.00025 0.34775 0.0
H374 H 0.13055 0.98515 0.32226 0.0
H375 H 0.09662 0.0518 0.29878 0.0
C376 C 0.18633 0.08075 0.22999 0.0
N377 N 0.16914 0.07457 0.24745 0.0
C378 C 0.19838 0.10376 0.23119 0.0
C379 C 0.17471 0.11337 0.26823 0.0
C380 C 0.16293 0.09037 0.26614 0.0
C381 C 0.1926 0.12032 0.25055 0.0
H382 H 0.19081 0.06776 0.21534 0.0
H383 H 0.1492 0.08477 0.27976 0.0
C384 C 0.1158 0.97061 0.27106 0.0
N385 N 0.09505 0.93615 0.30312 0.0
C386 C 0.13042 0.95168 0.28102 0.0
C387 C 0.0906 0.97195 0.27731 0.0
C388 C 0.11957 0.93443 0.2972 0.0
C389 C 0.08048 0.95439 0.2936 0.0
C390 C 0.16838 0.01169 0.2006 0.0
C391 C 0.1572 -0.00147 0.18108 0.0
C392 C 0.1943 0.01369 0.20172 0.0
C393 C 0.1722 0.98733 0.16311 0.0
C394 C 0.20864 0.00218 0.18343 0.0
N395 N 0.19738 0.98934 0.16466 0.0
C396 C 0.0866 0.02626 0.19346 0.0
C397 C 0.08367 0.98624 0.21168 0.0
C398 C 0.06632 0.02097 0.17807 0.0
N399 N 0.09445 0.00912 0.21021 0.0
C400 C 0.06352 0.98009 0.19654 0.0
C401 C 0.05446 -0.00231 0.17975 0.0
H402 H 0.09602 0.04401 0.19208 0.0
H403 H 0.09075 0.97263 0.22452 0.0
C404 C 0.20388 0.97101 0.25417 0.0
N405 N 0.18186 0.97329 0.24201 0.0
C406 C 0.21819 0.94974 0.25076 0.0
C407 C 0.18729 0.93434 0.22166 0.0
C408 C 0.1735 0.95568 0.22585 0.0
C409 C 0.20967 0.93099 0.23458 0.0
H410 H 0.20983 0.98522 0.26715 0.0
H411 H 0.15563 0.95789 0.21689 0.0
O412 O 0.11803 0.04485 0.25589 0.0
O413 O 0.16639 0.02111 0.27661 0.0
O414 O 0.12604 0.9877 0.2552 0.0
O415 O 0.15401 0.02262 0.21845 0.0
H416 H 0.12276 0.08497 0.22763 0.0
H417 H 0.07018 0.03423 0.26087 0.0
H418 H 0.08755 0.10825 0.20935 0.0
H419 H 0.03588 0.05834 0.24181 0.0
H420 H 0.24079 0.06128 0.2828 0.0
H421 H 0.15772 0.04527 0.31864 0.0
H422 H 0.21192 0.03216 0.26126 0.0
H423 H 0.18757 0.07408 0.33922 0.0
H424 H 0.07192 0.05378 0.33711 0.0
H425 H 0.10616 0.98554 0.36128 0.0
H426 H 0.21198 0.1086 0.21711 0.0
H427 H 0.17011 0.1254 0.2837 0.0
H428 H 0.14995 0.95039 0.27646 0.0
H429 H 0.07907 0.98656 0.26983 0.0
H430 H 0.13067 0.91972 0.30511 0.0
H431 H 0.06106 0.95529 0.29872 0.0
H432 H 0.13716 -0.00314 0.17991 0.0
H433 H 0.20324 0.02373 0.21676 0.0
H434 H 0.16381 0.97699 0.14795 0.0
H435 H 0.22871 0.00341 0.18417 0.0
H436 H 0.06027 0.03471 0.16469 0.0
H437 H 0.05508 0.96181 0.19797 0.0
H438 H 0.23522 0.94749 0.26129 0.0
H439 H 0.1798 0.91994 0.20963 0.0
Li440 Li 0.24022 0.90502 0.51322 0.0
Li441 Li 0.26582 0.87028 0.52704 0.0
Li442 Li 0.28392 0.90713 0.50808 0.0
Li443 Li 0.26001 0.87708 0.48367 0.0
C444 C 0.27878 0.91886 0.55592 0.0
N445 N 0.30788 0.94744 0.58746 0.0
C446 C 0.29378 0.90748 0.57379 0.0
C447 C 0.27844 0.94478 0.5542 0.0
C448 C 0.30837 0.92226 0.58956 0.0
C449 C 0.29335 0.95889 0.57026 0.0
C450 C 0.22011 0.85261 0.52128 0.0
C451 C 0.20982 0.81042 0.53278 0.0
N452 N 0.19319 0.81909 0.54968 0.0
C453 C 0.2029 0.86108 0.53879 0.0
C454 C 0.22358 0.82704 0.51824 0.0
C455 C 0.18947 0.84385 0.55294 0.0
C456 C 0.19211 0.9197 0.50285 0.0
N457 N 0.21107 0.92322 0.51922 0.0
C458 C 0.1871 0.95212 0.5427 0.0
C459 C 0.20899 0.93881 0.53905 0.0
C460 C 0.16762 0.94929 0.5256 0.0
C461 C 0.17015 0.93289 0.50554 0.0
H462 H 0.19416 0.90668 0.48766 0.0
H463 H 0.22422 0.94079 0.55204 0.0
C464 C 0.27798 0.82263 0.54574 0.0
N465 N 0.26796 0.84512 0.55117 0.0
C466 C 0.27335 0.80231 0.56124 0.0
C467 C 0.24985 0.82937 0.58833 0.0
C468 C 0.25482 0.84904 0.57233 0.0
C469 C 0.25844 0.80552 0.58237 0.0
H470 H 0.28817 0.82009 0.52866 0.0
H471 H 0.24688 0.8671 0.57591 0.0
C472 C 0.24358 0.93036 0.4712 0.0
N473 N 0.21097 0.96352 0.44975 0.0
C474 C 0.22919 0.92318 0.4507 0.0
C475 C 0.24158 0.95449 0.48063 0.0
C476 C 0.21278 0.94021 0.44014 0.0
C477 C 0.22491 0.97095 0.46958 0.0
C478 C 0.30636 0.8609 0.48386 0.0
C479 C 0.3248 0.87474 0.47172 0.0
C480 C 0.30223 0.83611 0.47704 0.0
C481 C 0.33873 0.86358 0.45288 0.0
C482 C 0.31651 0.82565 0.45806 0.0
N483 N 0.33432 0.83948 0.44648 0.0
C484 C 0.33067 0.92398 0.5237 0.0
C485 C 0.3114 0.94948 0.49335 0.0
C486 C 0.35095 0.94013 0.52503 0.0
N487 N 0.31135 0.9291 0.50829 0.0
C488 C 0.33156 0.96595 0.49377 0.0
C489 C 0.35148 0.9613 0.50987 0.0
H490 H 0.33028 0.90733 0.53494 0.0
H491 H 0.29593 0.95283 0.481 0.0
C492 C 0.23901 0.84199 0.4516 0.0
N493 N 0.25618 0.86057 0.45291 0.0
C494 C 0.23707 0.82742 0.43028 0.0
C495 C 0.26969 0.85226 0.4115 0.0
C496 C 0.27104 0.86633 0.43328 0.0
C497 C 0.25267 0.8324 0.40999 0.0
H498 H 0.22702 0.83825 0.46723 0.0
H499 H 0.28429 0.88147 0.43479 0.0
O500 O 0.2645 0.9047 0.5402 0.0
O501 O 0.23384 0.86922 0.50757 0.0
O502 O 0.25942 0.91381 0.48209 0.0
O503 O 0.29237 0.87156 0.50222 0.0
H504 H 0.29435 0.88745 0.57532 0.0
H505 H 0.26706 0.95388 0.54038 0.0
H506 H 0.32014 0.91371 0.60341 0.0
H507 H 0.29342 0.97895 0.56901 0.0
H508 H 0.21253 0.79062 0.53079 0.0
H509 H 0.20011 0.88071 0.54173 0.0
H510 H 0.23722 0.82007 0.50525 0.0
H511 H 0.17618 0.85017 0.56662 0.0
H512 H 0.18542 0.96453 0.55849 0.0
H513 H 0.15518 0.93015 0.49228 0.0
H514 H 0.28025 0.78415 0.55612 0.0
H515 H 0.23864 0.83258 0.60475 0.0
H516 H 0.23047 0.90458 0.44318 0.0
H517 H 0.25251 0.96033 0.49655 0.0
H518 H 0.20141 0.93486 0.42437 0.0
H519 H 0.223 0.9896 0.47683 0.0
H520 H 0.32825 0.89393 0.47663 0.0
H521 H 0.28771 0.82524 0.48581 0.0
H522 H 0.353 0.8741 0.44329 0.0
H523 H 0.31332 0.80659 0.45242 0.0
H524 H 0.36633 0.93585 0.53731 0.0
H525 H 0.33165 0.98204 0.48167 0.0
H526 H 0.22384 0.81215 0.42984 0.0
H527 H 0.28181 0.85678 0.39604 0.0
Li528 Li 0.34663 0.9715 0.75107 0.0
Li529 Li 0.36671 0.99173 0.78588 0.0
Li530 Li 0.34165 0.01384 0.75522 0.0
Li531 Li 0.38226 -0.00329 0.74234 0.0
C532 C 0.31008 -0.00092 0.78964 0.0
N533 N 0.26851 0.02155 0.80955 0.0
C534 C 0.30983 0.00633 0.81463 0.0
C535 C 0.28897 0.00284 0.77491 0.0
C536 C 0.28868 0.01776 0.82432 0.0
C537 C 0.26821 0.01437 0.78527 0.0
C538 C 0.38242 0.94147 0.76696 0.0
C539 C 0.399 0.90098 0.75767 0.0
N540 N 0.38254 0.89059 0.77389 0.0
C541 C 0.36582 0.93039 0.78372 0.0
C542 C 0.39926 0.92668 0.75395 0.0
C543 C 0.36611 0.90464 0.78688 0.0
C544 C 0.33974 0.92386 0.72755 0.0
N545 N 0.32928 0.94176 0.74199 0.0
C546 C 0.29323 0.91658 0.74864 0.0
C547 C 0.30635 0.93864 0.75218 0.0
C548 C 0.30404 0.89746 0.73483 0.0
C549 C 0.32745 0.90118 0.72398 0.0
H550 H 0.35796 0.92684 0.71957 0.0
H551 H 0.29854 0.95298 0.76372 0.0
C552 C 0.37668 0.01284 0.83268 0.0
N553 N 0.37893 0.99178 0.8189 0.0
C554 C 0.38929 0.01521 0.85526 0.0
C555 C 0.40536 0.97375 0.84951 0.0
C556 C 0.39287 0.97239 0.82686 0.0
C557 C 0.40398 -0.0045 0.86383 0.0
H558 H 0.366 0.02824 0.82556 0.0
H559 H 0.39518 0.95623 0.81527 0.0
C560 C 0.34126 0.98319 0.70449 0.0
N561 N 0.32298 0.95577 0.66487 0.0
C562 C 0.35761 0.97185 0.68784 0.0
C563 C 0.31561 0.9808 0.70084 0.0
C564 C 0.348 0.95803 0.66795 0.0
C565 C 0.30673 0.96678 0.68076 0.0
C566 C 0.39498 0.03402 0.77871 0.0
C567 C 0.39348 0.0587 0.78663 0.0
C568 C 0.41693 0.02076 0.78249 0.0
C569 C 0.41403 0.06975 0.79825 0.0
C570 C 0.43704 0.03246 0.79422 0.0
N571 N 0.43519 0.05651 0.80179 0.0
C572 C 0.31737 0.05758 0.76949 0.0
C573 C 0.31393 0.04714 0.72665 0.0
C574 C 0.3039 0.07924 0.76567 0.0
N575 N 0.32191 0.04204 0.75011 0.0
C576 C 0.30071 0.0688 0.72191 0.0
C577 C 0.29573 0.08509 0.74159 0.0
H578 H 0.32449 0.05326 0.7878 0.0
H579 H 0.31831 0.03467 0.71153 0.0
C580 C 0.42386 0.98756 0.71101 0.0
N581 N 0.41018 0.00506 0.72284 0.0
C582 C 0.44226 -0.00526 0.69415 0.0
C583 C 0.43332 0.03773 0.70348 0.0
C584 C 0.41473 0.02973 0.71965 0.0
C585 C 0.44662 0.02014 0.68969 0.0
H586 H 0.41959 0.9681 0.71364 0.0
H587 H 0.40329 0.04328 0.72897 0.0
O588 O 0.33064 0.98783 0.77984 0.0
O589 O 0.38207 0.96664 0.76328 0.0
O590 O 0.35034 -0.00336 0.72419 0.0
O591 O 0.37479 0.02274 0.76791 0.0
H592 H 0.3257 0.00303 0.82648 0.0
H593 H 0.28875 -0.00277 0.75557 0.0
H594 H 0.28829 0.02355 0.8436 0.0
H595 H 0.25188 0.01763 0.77399 0.0
H596 H 0.41186 0.8893 0.74765 0.0
H597 H 0.35267 0.94158 0.79397 0.0
H598 H 0.41235 0.93489 0.74106 0.0
H599 H 0.35323 0.89582 0.79961 0.0
H600 H 0.27525 0.91407 0.75743 0.0
H601 H 0.33623 0.88663 0.71326 0.0
H602 H 0.38827 0.03257 0.86539 0.0
H603 H 0.41643 0.95811 0.85551 0.0
H604 H 0.37749 0.97356 0.69031 0.0
H605 H 0.30269 0.98949 0.71351 0.0
H606 H 0.36044 0.94906 0.65499 0.0
H607 H 0.28693 0.96462 0.67783 0.0
H608 H 0.37655 0.06914 0.78394 0.0
H609 H 0.41833 0.00157 0.77665 0.0
H610 H 0.41313 0.08883 0.80452 0.0
H611 H 0.45411 0.02241 0.79737 0.0
H612 H 0.30057 0.09169 0.78116 0.0
H613 H 0.2947 0.07295 0.70313 0.0
H614 H 0.45195 0.98058 0.68369 0.0
H615 H 0.43648 0.05746 0.70099 0.0
Li616 Li 0.22584 0.11747 0.02719 0.0
Li617 Li 0.24908 0.08098 0.01114 0.0
Li618 Li 0.22588 0.10816 0.9825 0.0
Li619 Li 0.20497 0.07923 0.01284 0.0
C620 C 0.26845 0.13534 -0.00593 0.0
N621 N 0.29652 0.17334 0.97353 0.0
C622 C 0.29208 0.13053 0.98445 0.0
C623 C 0.25932 0.15958 -0.00635 0.0
C624 C 0.30593 0.14995 0.97403 0.0
C625 C 0.27372 0.17851 0.98308 0.0
C626 C 0.21667 0.07161 0.06049 0.0
C627 C 0.2049 0.03379 0.08161 0.0
N628 N 0.19332 0.04744 0.09944 0.0
C629 C 0.20478 0.08527 0.07908 0.0
C630 C 0.21687 0.04567 0.0618 0.0
C631 C 0.19304 0.0727 0.0986 0.0
C632 C 0.21195 0.15729 0.0617 0.0
N633 N 0.23013 0.14386 0.05049 0.0
C634 C 0.26167 0.16734 0.07144 0.0
C635 C 0.25455 0.14833 0.05534 0.0
C636 C 0.24347 0.18159 0.08332 0.0
C637 C 0.21826 0.17634 0.07837 0.0
H638 H 0.19264 0.15301 0.05817 0.0
H639 H 0.26864 0.13701 0.04671 0.0
C640 C 0.29643 0.06098 -0.00062 0.0
N641 N 0.27871 0.0633 0.01724 0.0
C642 C 0.31949 0.05095 0.00537 0.0
C643 C 0.30528 0.04498 0.04769 0.0
C644 C 0.28256 0.05528 0.04094 0.0
C645 C 0.32408 0.04329 0.02987 0.0
H646 H 0.293 0.06779 0.98079 0.0
H647 H 0.26842 0.05786 0.05491 0.0
C648 C 0.18062 0.13344 0.01022 0.0
N649 N 0.14834 0.17158 0.02163 0.0
C650 C 0.15956 0.12884 0.02478 0.0
C651 C 0.18505 0.15742 0.00119 0.0
C652 C 0.14351 0.14836 0.0304 0.0
C653 C 0.16859 0.17646 0.00725 0.0
C654 C 0.23977 0.05258 0.97264 0.0
C655 C 0.25073 0.05632 0.94936 0.0
C656 C 0.24264 0.02981 0.98476 0.0
C657 C 0.2647 0.03727 0.93871 0.0
C658 C 0.25678 0.01124 0.97352 0.0
N659 N 0.26743 0.01533 0.95093 0.0
C660 C 0.24533 0.12781 0.93724 0.0
C661 C 0.20217 0.13365 0.94361 0.0
C662 C 0.24473 0.14269 0.91599 0.0
N663 N 0.22437 0.12415 0.95091 0.0
C664 C 0.2007 0.14865 0.92249 0.0
C665 C 0.22227 0.15361 0.90862 0.0
H666 H 0.26265 0.11962 0.9431 0.0
H667 H 0.1857 0.13021 0.95464 0.0
C668 C 0.16144 0.05798 0.03546 0.0
N669 N 0.1781 0.05627 0.01654 0.0
C670 C 0.14133 0.04152 0.03672 0.0
C671 C 0.15653 0.02106 -0.00028 0.0
C672 C 0.1762 0.03806 -0.00095 0.0
C673 C 0.13841 0.02316 0.01832 0.0
H674 H 0.1634 0.07239 0.04932 0.0
H675 H 0.1896 0.03704 0.98416 0.0
O676 O 0.25447 0.11644 0.00401 0.0
O677 O 0.22834 0.08359 0.04128 0.0
O678 O 0.19645 0.11447 0.0044 0.0
O679 O 0.22609 0.07104 0.9834 0.0
H680 H 0.29959 0.11198 0.98482 0.0
H681 H 0.2414 0.16378 0.00156 0.0
H682 H 0.32415 0.14643 0.96634 0.0
H683 H 0.2668 0.19732 0.98254 0.0
H684 H 0.20479 0.01373 0.0828 0.0
H685 H 0.20449 0.10535 0.07837 0.0
H686 H 0.22604 0.03482 0.04759 0.0
H687 H 0.18367 0.08303 0.11307 0.0
H688 H 0.28129 0.17067 0.07476 0.0
H689 H 0.20361 0.18633 0.08778 0.0
H690 H 0.3339 0.05001 0.99132 0.0
H691 H 0.30855 0.03952 0.06682 0.0
H692 H 0.15558 0.11043 0.03166 0.0
H693 H 0.20088 0.16131 0.98946 0.0
H694 H 0.1272 0.14504 0.04173 0.0
H695 H 0.17187 0.19511 0.00044 0.0
H696 H 0.2485 0.07373 0.93962 0.0
H697 H 0.2342 0.0266 0.00276 0.0
H698 H 0.27337 0.03992 0.92074 0.0
H699 H 0.2593 -0.00641 0.98277 0.0
H700 H 0.26168 0.1458 0.90553 0.0
H701 H 0.18306 0.15689 0.91753 0.0
H702 H 0.12762 0.04385 0.05128 0.0
H703 H 0.1551 0.00693 0.98541 0.0
Li704 Li 0.73662 0.41941 0.00413 0.0
Li705 Li 0.7561 0.38345 0.02476 0.0
Li706 Li 0.77851 0.4211 0.01287 0.0
Li707 Li 0.76412 0.39274 0.98035 0.0
C708 C 0.76142 0.42886 0.05831 0.0
N709 N 0.78214 0.45147 0.09976 0.0
C710 C 0.76933 0.41453 0.07847 0.0
C711 C 0.76381 0.45473 0.05937 0.0
C712 C 0.7798 0.4263 0.09923 0.0
C713 C 0.77443 0.4658 0.08044 0.0
C714 C 0.72484 0.36075 0.98846 0.0
C715 C 0.73361 0.31758 0.98048 0.0
N716 N 0.71032 0.31456 0.971 0.0
C717 C 0.70099 0.35722 0.97866 0.0
C718 C 0.7413 0.34077 0.98941 0.0
C719 C 0.69399 0.33372 0.96994 0.0
C720 C 0.68968 0.43114 0.98494 0.0
N721 N 0.70626 0.43657 0.00327 0.0
C722 C 0.67672 0.46199 0.02421 0.0
C723 C 0.70052 0.45206 0.02239 0.0
C724 C 0.65881 0.45546 0.00639 0.0
C725 C 0.6656 0.44047 0.98615 0.0
H726 H 0.6949 0.41874 0.97 0.0
H727 H 0.71405 0.45582 0.0368 0.0
C728 C 0.76939 0.34489 0.05834 0.0
N729 N 0.75028 0.35656 0.04681 0.0
C730 C 0.76472 0.32455 0.0738 0.0
C731 C 0.72086 0.32836 0.06473 0.0
C732 C 0.72634 0.34884 0.0498 0.0
C733 C 0.74018 0.31595 0.07704 0.0
H734 H 0.78818 0.35163 0.05583 0.0
H735 H 0.71149 0.35855 0.04043 0.0
C736 C 0.75141 0.44859 0.96865 0.0
N737 N 0.72663 0.48686 0.94522 0.0
C738 C 0.74399 0.44615 0.94382 0.0
C739 C 0.74663 0.4707 0.98141 0.0
C740 C 0.73139 0.46565 0.93234 0.0
C741 C 0.73395 0.48977 0.9693 0.0
C742 C 0.81311 0.38528 0.00165 0.0
C743 C 0.82212 0.40038 0.98244 0.0
C744 C 0.82962 0.37049 0.01509 0.0
C745 C 0.84753 0.40046 0.97706 0.0
C746 C 0.85489 0.371 0.00904 0.0
N747 N 0.86325 0.38588 0.99034 0.0
C748 C 0.82103 0.43547 0.04046 0.0
C749 C 0.811 0.46175 0.00654 0.0
C750 C 0.84312 0.44855 0.04454 0.0
N751 N 0.80577 0.44199 0.02142 0.0
C752 C 0.83301 0.47522 0.00981 0.0
C753 C 0.84972 0.46806 0.02845 0.0
H754 H 0.8166 0.4194 0.05173 0.0
H755 H 0.79881 0.46623 0.99124 0.0
C756 C 0.74912 0.37576 0.93366 0.0
N757 N 0.76843 0.37495 0.94997 0.0
C758 C 0.74811 0.3594 0.91355 0.0
C759 C 0.78719 0.34196 0.92696 0.0
C760 C 0.78741 0.35862 0.9469 0.0
C761 C 0.76701 0.34182 0.91042 0.0
H762 H 0.73374 0.38813 0.93712 0.0
H763 H 0.802 0.35743 0.96062 0.0
O764 O 0.75104 0.41762 0.03786 0.0
O765 O 0.73227 0.38387 -0.00376 0.0
O766 O 0.76366 0.42963 0.98028 0.0
O767 O 0.78839 0.38554 0.00771 0.0
H768 H 0.76743 0.39453 0.07812 0.0
H769 H 0.75781 0.46616 0.04401 0.0
H770 H 0.78606 0.41542 0.11492 0.0
H771 H 0.77655 0.48578 0.08141 0.0
H772 H 0.7462 0.302 0.98098 0.0
H773 H 0.68806 0.37251 0.97769 0.0
H774 H 0.75993 0.34322 -0.00332 0.0
H775 H 0.67561 0.33073 0.96225 0.0
H776 H 0.67196 0.47342 0.0401 0.0
H777 H 0.65215 0.43526 0.97201 0.0
H778 H 0.78009 0.31613 0.08363 0.0
H779 H 0.70169 0.32243 0.0668 0.0
H780 H 0.7481 0.42948 0.93344 0.0
H781 H 0.75244 0.47302 0.00055 0.0
H782 H 0.72547 0.46396 0.91315 0.0
H783 H 0.72993 0.50687 0.97905 0.0
H784 H 0.80964 0.41203 0.97189 0.0
H785 H 0.82304 0.35873 0.03002 0.0
H786 H 0.85475 0.41214 0.96233 0.0
H787 H 0.86786 0.35961 0.01926 0.0
H788 H 0.85552 0.44268 0.05927 0.0
H789 H 0.83764 0.48999 -0.00309 0.0
H790 H 0.73235 0.35999 0.90099 0.0
H791 H 0.80198 0.32851 0.9252 0.0
Li792 Li 0.86803 0.48632 0.27792 0.0
Li793 Li 0.84134 0.46823 0.24578 0.0
Li794 Li 0.87362 0.49827 0.23372 0.0
Li795 Li 0.83599 0.50928 0.25644 0.0
C796 C 0.89032 0.44365 0.25226 0.0
N797 N 0.91497 0.39922 0.25881 0.0
C798 C 0.87806 0.4233 0.26299 0.0
C799 C 0.91521 0.44144 0.24516 0.0
C800 C 0.8908 0.40097 0.266 0.0
C801 C 0.92734 0.41884 0.24861 0.0
C802 C 0.81323 0.48996 0.2938 0.0
C803 C 0.77084 0.50344 0.2991 0.0
N804 N 0.77611 0.51007 0.32298 0.0
C805 C 0.81812 0.49666 0.31847 0.0
C806 C 0.7893 0.49312 0.2841 0.0
C807 C 0.79915 0.50688 0.33289 0.0
C808 C 0.88703 0.5028 0.32326 0.0
N809 N 0.88644 0.48265 0.30799 0.0
C810 C 0.91559 0.46149 0.33385 0.0
C811 C 0.90005 0.46206 0.3131 0.0
C812 C 0.91697 0.48226 0.34952 0.0
C813 C 0.90226 0.50302 0.34423 0.0
H814 H 0.87603 0.51895 0.31881 0.0
H815 H 0.89947 0.44625 0.30093 0.0
C816 C 0.8344 0.42236 0.22 0.0
N817 N 0.825 0.43829 0.23718 0.0
C818 C 0.82378 0.39879 0.21704 0.0
C819 C 0.79336 0.40926 0.24848 0.0
C820 C 0.80467 0.43239 0.25099 0.0
C821 C 0.80334 0.39197 0.23184 0.0
H822 H 0.85075 0.42757 0.20945 0.0
H823 H 0.79785 0.44524 0.26474 0.0
C824 C 0.89299 0.53074 0.26941 0.0
N825 N 0.93817 0.55245 0.28137 0.0
C826 C 0.89413 0.55567 0.27665 0.0
C827 C 0.91484 0.51685 0.26821 0.0
C828 C 0.91716 0.56631 0.28262 0.0
C829 C 0.93749 0.52816 0.27434 0.0
C830 C 0.82826 0.48442 0.20224 0.0
C831 C 0.84288 0.47846 0.18162 0.0
C832 C 0.8031 0.47765 0.20248 0.0
C833 C 0.83214 0.46564 0.16164 0.0
C834 C 0.79307 0.46479 0.18216 0.0
N835 N 0.80767 0.4591 0.16233 0.0
C836 C 0.91169 0.49377 0.1978 0.0
C837 C 0.90085 0.53496 0.20893 0.0
C838 C 0.93024 0.50264 0.18197 0.0
N839 N 0.89755 0.50996 0.21088 0.0
C840 C 0.91943 0.54464 0.19361 0.0
C841 C 0.93427 0.52838 0.17974 0.0
H842 H 0.90836 0.47401 0.19948 0.0
H843 H 0.88918 0.54738 0.2195 0.0
C844 C 0.81931 0.5538 0.27646 0.0
N845 N 0.8143 0.53631 0.25891 0.0
C846 C 0.80776 0.57683 0.27526 0.0
C847 C 0.78479 0.56258 0.23909 0.0
C848 C 0.79699 0.5399 0.24084 0.0
C849 C 0.79095 0.58157 0.25587 0.0
H850 H 0.83342 0.55038 0.29039 0.0
H851 H 0.79381 0.52579 0.22688 0.0
O852 O 0.87813 0.4656 0.24863 0.0
O853 O 0.83165 0.48008 0.27933 0.0
O854 O 0.87051 0.52009 0.26363 0.0
O855 O 0.83851 0.49685 0.22206 0.0
H856 H 0.85908 0.42483 0.26938 0.0
H857 H 0.92517 0.45708 0.23727 0.0
H858 H 0.88152 0.38508 0.27422 0.0
H859 H 0.9466 0.4169 0.24319 0.0
H860 H 0.75234 0.50623 0.29174 0.0
H861 H 0.83631 0.49387 0.32648 0.0
H862 H 0.78513 0.48807 0.26504 0.0
H863 H 0.80274 0.51223 0.35199 0.0
H864 H 0.92691 0.44526 0.33718 0.0
H865 H 0.90271 0.51933 0.35608 0.0
H866 H 0.83176 0.38585 0.20388 0.0
H867 H 0.77772 0.40448 0.26028 0.0
H868 H 0.8774 0.56668 0.27763 0.0
H869 H 0.91434 0.49754 0.26266 0.0
H870 H 0.91831 0.58558 0.28826 0.0
H871 H 0.95453 0.51763 0.27353 0.0
H872 H 0.86232 0.48364 0.18102 0.0
H873 H 0.79153 0.48191 0.21836 0.0
H874 H 0.84326 0.46087 0.14558 0.0
H875 H 0.77368 0.45927 0.1822 0.0
H876 H 0.941 0.48951 0.17122 0.0
H877 H 0.92214 0.56457 0.19264 0.0
H878 H 0.81292 0.59125 0.28841 0.0
H879 H 0.77216 0.56587 0.22373 0.0
Li880 Li 0.72998 0.63889 0.51743 0.0
Li881 Li 0.75338 0.60797 0.49463 0.0
Li882 Li 0.72037 0.63145 0.47342 0.0
Li883 Li 0.7108 0.5996 0.50248 0.0
C884 C 0.76557 0.65725 0.472 0.0
N885 N 0.79356 0.68363 0.43776 0.0
C886 C 0.77961 0.64471 0.45413 0.0
C887 C 0.76596 0.68323 0.47258 0.0
C888 C 0.79358 0.65837 0.43694 0.0
C889 C 0.78017 0.69622 0.45507 0.0
C890 C 0.75515 0.5929 0.5413 0.0
C891 C 0.78025 0.55702 0.5502 0.0
N892 N 0.7934 0.57058 0.56713 0.0
C893 C 0.76876 0.60643 0.55896 0.0
C894 C 0.76075 0.56793 0.53704 0.0
C895 C 0.78808 0.59482 0.57178 0.0
C896 C 0.71476 0.6665 0.55931 0.0
N897 N 0.73307 0.66323 0.54226 0.0
C898 C 0.75874 0.69373 0.56207 0.0
C899 C 0.75456 0.67665 0.54297 0.0
C900 C 0.74064 0.69669 0.58053 0.0
C901 C 0.71814 0.68339 0.57871 0.0
H902 H 0.69787 0.65551 0.55817 0.0
H903 H 0.76883 0.67341 0.52919 0.0
C904 C 0.79322 0.57574 0.48007 0.0
N905 N 0.78656 0.59627 0.49315 0.0
C906 C 0.81783 0.56758 0.48071 0.0
C907 C 0.82807 0.60193 0.50804 0.0
C908 C 0.80343 0.60961 0.50659 0.0
C909 C 0.83545 0.58067 0.49503 0.0
H910 H 0.77944 0.56564 0.46937 0.0
H911 H 0.79756 0.62604 0.51653 0.0
C912 C 0.6834 0.65521 0.50353 0.0
N913 N 0.65651 0.69851 0.50836 0.0
C914 C 0.65823 0.6542 0.50995 0.0
C915 C 0.69496 0.67828 0.49987 0.0
C916 C 0.64494 0.67629 0.51221 0.0
C917 C 0.68103 0.69994 0.5023 0.0
C918 C 0.71617 0.57594 0.46072 0.0
C919 C 0.69597 0.57958 0.44476 0.0
C920 C 0.72277 0.55183 0.46759 0.0
C921 C 0.68251 0.55899 0.43616 0.0
C922 C 0.70884 0.53173 0.45858 0.0
N923 N 0.68915 0.53569 0.44321 0.0
C924 C 0.72578 0.64131 0.42313 0.0
C925 C 0.69073 0.66144 0.44038 0.0
C926 C 0.72231 0.6535 0.40058 0.0
N927 N 0.71079 0.64633 0.44282 0.0
C928 C 0.68675 0.67431 0.41826 0.0
C929 C 0.70312 0.67082 0.39839 0.0
H930 H 0.74082 0.62827 0.42516 0.0
H931 H 0.67796 0.66399 0.45554 0.0
C932 C 0.68789 0.55425 0.52093 0.0
N933 N 0.68532 0.57592 0.5082 0.0
C934 C 0.66781 0.53762 0.52261 0.0
C935 C 0.64314 0.56625 0.49842 0.0
C936 C 0.66352 0.58216 0.49719 0.0
C937 C 0.6452 0.54352 0.51095 0.0
H938 H 0.7055 0.54976 0.52947 0.0
H939 H 0.66214 0.59945 0.48708 0.0
O940 O 0.75183 0.64425 0.4891 0.0
O941 O 0.73659 0.60412 0.52811 0.0
O942 O 0.6968 0.63377 0.50177 0.0
O943 O 0.72906 0.59592 0.46999 0.0
H944 H 0.77944 0.62464 0.45322 0.0
H945 H 0.7555 0.6933 0.48644 0.0
H946 H 0.80438 0.64889 0.42291 0.0
H947 H 0.78059 0.71632 0.45529 0.0
H948 H 0.78497 0.5378 0.54688 0.0
H949 H 0.76461 0.62573 0.56256 0.0
H950 H 0.75045 0.55723 0.5234 0.0
H951 H 0.79888 0.60511 0.58537 0.0
H952 H 0.77639 0.70351 0.56314 0.0
H953 H 0.70378 0.68537 0.5927 0.0
H954 H 0.82296 0.551 0.47054 0.0
H955 H 0.84126 0.61251 0.51913 0.0
H956 H 0.64907 0.63653 0.5132 0.0
H957 H 0.7144 0.67938 0.49499 0.0
H958 H 0.62543 0.67578 0.51709 0.0
H959 H 0.68972 0.71789 0.49937 0.0
H960 H 0.69051 0.59812 0.43937 0.0
H961 H 0.73825 0.54868 0.48003 0.0
H962 H 0.6667 0.56153 0.42397 0.0
H963 H 0.71361 0.51298 0.4639 0.0
H964 H 0.73516 0.6503 0.3854 0.0
H965 H 0.67148 0.68727 0.41687 0.0
H966 H 0.66995 0.52032 0.53263 0.0
H967 H 0.62582 0.57182 0.48982 0.0
Li968 Li 0.64764 0.53754 0.75315 0.0
Li969 Li 0.62452 0.52407 0.78925 0.0
Li970 Li 0.64994 0.49645 0.76452 0.0
Li971 Li 0.61108 0.51227 0.74732 0.0
C972 C 0.6806 0.51497 0.79761 0.0
N973 N 0.72014 0.49395 0.82267 0.0
C974 C 0.67975 0.51215 0.82345 0.0
C975 C 0.7018 0.50754 0.78458 0.0
C976 C 0.69987 0.50137 0.83577 0.0
C977 C 0.72151 0.49681 0.79756 0.0
C978 C 0.60944 0.57025 0.76761 0.0
C979 C 0.58573 0.60807 0.76565 0.0
N980 N 0.60381 0.62001 0.77887 0.0
C981 C 0.62772 0.58285 0.78135 0.0
C982 C 0.58826 0.58294 0.75973 0.0
C983 C 0.62457 0.60804 0.78674 0.0
C984 C 0.65461 0.58234 0.72647 0.0
N985 N 0.66572 0.56492 0.74092 0.0
C986 C 0.70123 0.5908 0.74704 0.0
C987 C 0.68888 0.56834 0.75043 0.0
C988 C 0.68937 0.60988 0.73403 0.0
C989 C 0.66623 0.60527 0.72278 0.0
H990 H 0.63606 0.57904 0.7193 0.0
H991 H 0.6971 0.55426 0.76201 0.0
C992 C 0.61256 0.50972 0.83698 0.0
N993 N 0.61086 0.52948 0.82135 0.0
C994 C 0.5982 0.50877 0.85849 0.0
C995 C 0.58199 0.54936 0.84847 0.0
C996 C 0.59636 0.54936 0.82692 0.0
C997 C 0.58222 0.52848 0.8639 0.0
H998 H 0.6238 0.49394 0.83183 0.0
H999 H 0.59452 0.56454 0.81409 0.0
C1000 C 0.65326 0.519 0.70951 0.0
N1001 N 0.67266 0.54091 0.66721 0.0
C1002 C 0.63739 0.52846 0.69127 0.0
C1003 C 0.67901 0.52052 0.70615 0.0
C1004 C 0.64756 0.53949 0.67003 0.0
C1005 C 0.68845 0.53174 0.68467 0.0
C1006 C 0.59367 0.48266 0.78636 0.0
C1007 C 0.59153 0.4587 0.79614 0.0
C1008 C 0.57323 0.49856 0.78701 0.0
C1009 C 0.56891 0.45101 0.80644 0.0
C1010 C 0.55094 0.49018 0.79749 0.0
N1011 N 0.54926 0.46678 0.8069 0.0
C1012 C 0.66928 0.45323 0.7861 0.0
C1013 C 0.67764 0.45864 0.74305 0.0
C1014 C 0.67959 0.42956 0.78551 0.0
N1015 N 0.66825 0.46698 0.76496 0.0
C1016 C 0.68792 0.43505 0.74157 0.0
C1017 C 0.68829 0.41998 0.76282 0.0
H1018 H 0.66133 0.46033 0.80315 0.0
H1019 H 0.67609 0.46984 0.72647 0.0
C1020 C 0.56991 0.52097 0.71625 0.0
N1021 N 0.58356 0.50334 0.72787 0.0
C1022 C 0.55101 0.51397 0.69988 0.0
C1023 C 0.55986 0.47085 0.70887 0.0
C1024 C 0.57873 0.4787 0.72489 0.0
C1025 C 0.54615 0.4886 0.6957 0.0
H1026 H 0.57453 0.54038 0.71876 0.0
H1027 H 0.5901 0.46516 0.73434 0.0
O1028 O 0.66108 0.5256 0.78526 0.0
O1029 O 0.6124 0.54578 0.76137 0.0
O1030 O 0.64364 0.5084 0.73057 0.0
O1031 O 0.6159 0.49057 0.77671 0.0
H1032 H 0.66386 0.51842 0.83395 0.0
H1033 H 0.70286 0.50968 0.76459 0.0
H1034 H 0.6994 0.49899 0.85576 0.0
H1035 H 0.73789 0.49074 0.78766 0.0
H1036 H 0.56941 0.6181 0.7597 0.0
H1037 H 0.64416 0.57332 0.78775 0.0
H1038 H 0.57388 0.57347 0.74921 0.0
H1039 H 0.63862 0.61806 0.7972 0.0
H1040 H 0.71905 0.59384 0.75603 0.0
H1041 H 0.65676 0.61962 0.7124 0.0
H1042 H 0.59864 0.49236 0.87014 0.0
H1043 H 0.5696 0.56471 0.85216 0.0
H1044 H 0.61744 0.52743 0.69354 0.0
H1045 H 0.69158 0.51338 0.72011 0.0
H1046 H 0.63549 0.54697 0.65581 0.0
H1047 H 0.70833 0.53318 0.68191 0.0
H1048 H 0.60724 0.44623 0.79587 0.0
H1049 H 0.57459 0.51724 0.77967 0.0
H1050 H 0.56699 0.43253 0.81412 0.0
H1051 H 0.535 0.50231 0.79822 0.0
H1052 H 0.68001 0.41856 0.80238 0.0
H1053 H 0.69434 0.42819 0.72374 0.0
H1054 H 0.54138 0.52821 0.68949 0.0
H1055 H 0.55672 0.45115 0.70599 0.0
Li1056 Li 0.97948 0.75479 0.85802 0.0
Li1057 Li -0.00387 0.78305 0.89169 0.0
Li1058 Li 0.02155 0.76777 0.85723 0.0
Li1059 Li 0.00723 0.73947 0.88963 0.0
C1060 C -0.00131 0.80965 0.84117 0.0
N1061 N 0.01249 0.85014 0.81253 0.0
C1062 C 0.00364 0.8326 0.85241 0.0
C1063 C 0.00042 0.80743 0.81527 0.0
C1064 C 0.01066 0.85282 0.83764 0.0
C1065 C 0.00754 0.82806 0.80115 0.0
C1066 C 0.96448 0.74315 0.91532 0.0
C1067 C 0.96628 0.73666 0.95971 0.0
N1068 N 0.94705 0.7202 0.95791 0.0
C1069 C 0.94464 0.72629 0.91392 0.0
C1070 C 0.97532 0.74851 0.9384 0.0
C1071 C 0.93613 0.71484 0.93567 0.0
C1072 C 0.94019 0.72487 0.83872 0.0
N1073 N 0.95169 0.74745 0.83791 0.0
C1074 C 0.92464 0.7611 0.80567 0.0
C1075 C 0.94435 0.76544 0.82187 0.0
C1076 C 0.9122 0.73816 0.80625 0.0
C1077 C 0.92013 0.7198 0.82294 0.0
H1078 H 0.94667 0.71086 0.85155 0.0
H1079 H 0.95369 0.78324 0.8218 0.0
C1080 C 0.00673 0.8238 0.92302 0.0
N1081 N 0.98855 0.80816 0.91485 0.0
C1082 C 0.00157 0.84131 0.94143 0.0
C1083 C 0.95938 0.82552 0.94333 0.0
C1084 C 0.9652 0.80876 0.92444 0.0
C1085 C 0.9776 0.84233 0.95184 0.0
H1086 H 0.0252 0.82268 0.91516 0.0
H1087 H 0.95121 0.79583 0.91778 0.0
C1088 C 0.00222 0.71792 0.83429 0.0
N1089 N 0.98836 0.68715 0.79533 0.0
C1090 C 5e-05 0.69229 0.83796 0.0
C1091 C -0.00206 0.72778 0.81062 0.0
C1092 C 0.99288 0.67707 0.81808 0.0
C1093 C 0.99076 0.71197 0.79122 0.0
C1094 C 0.05441 0.76289 0.89648 0.0
C1095 C 0.06372 0.74122 0.88567 0.0
C1096 C 0.07038 0.77858 0.90985 0.0
C1097 C 0.08889 0.7356 0.88846 0.0
C1098 C 0.09543 0.77229 0.91225 0.0
N1099 N 0.1041 0.75112 0.90158 0.0
C1100 C 0.05815 0.79834 0.83206 0.0
C1101 C 0.05602 0.75576 0.821 0.0
C1102 C 0.07587 0.8028 0.8135 0.0
N1103 N 0.04813 0.77522 0.83492 0.0
C1104 C 0.07376 0.75926 0.80256 0.0
C1105 C 0.08369 0.78306 0.79834 0.0
H1106 H 0.05211 0.8134 0.84385 0.0
H1107 H 0.0486 0.73738 0.82421 0.0
C1108 C -0.00322 0.69244 0.90858 0.0
N1109 N 0.0123 0.71227 0.91149 0.0
C1110 C -0.00386 0.67364 0.92635 0.0
C1111 C 0.02769 0.69583 0.94977 0.0
C1112 C 0.02764 0.71431 0.93155 0.0
C1113 C 0.01146 0.67542 0.94744 0.0
H1114 H 0.98397 0.69188 0.89308 0.0
H1115 H 0.03904 0.73073 0.93403 0.0
O1116 O 0.99159 0.78971 0.85539 0.0
O1117 O 0.97365 0.7539 0.89413 0.0
O1118 O 0.00905 0.7332 0.8536 0.0
O1119 O 0.02995 0.76914 0.8936 0.0
H1120 H 0.00208 0.83484 0.87232 0.0
H1121 H -0.00351 0.78996 0.80613 0.0
H1122 H 0.01464 0.87064 0.84614 0.0
H1123 H 0.00914 0.82652 0.78114 0.0
H1124 H 0.97465 0.74045 0.97765 0.0
H1125 H 0.93607 0.72192 0.89621 0.0
H1126 H 0.99089 0.76129 0.93977 0.0
H1127 H 0.92089 0.70163 0.93486 0.0
H1128 H 0.91867 0.77582 0.79333 0.0
H1129 H 0.91081 0.70191 0.82385 0.0
H1130 H 0.01611 0.85407 0.94728 0.0
H1131 H 0.94089 0.82513 0.95128 0.0
H1132 H 0.00412 0.68415 0.85585 0.0
H1133 H -5e-05 0.74747 0.80733 0.0
H1134 H 0.99103 0.65722 0.82072 0.0
H1135 H 0.98711 0.71944 0.7729 0.0
H1136 H 0.05171 0.72883 0.87524 0.0
H1137 H 0.0635 0.79547 0.91825 0.0
H1138 H 0.09635 0.71891 0.88018 0.0
H1139 H 0.108 0.78426 0.92255 0.0
H1140 H 0.08319 0.82141 0.81096 0.0
H1141 H 0.07991 0.74335 0.7919 0.0
H1142 H 0.98365 0.65797 0.92373 0.0
H1143 H 0.03972 0.69781 0.96585 0.0
Li1144 Li 0.9931 0.28371 0.61175 0.0
Li1145 Li 0.01389 0.25815 0.64037 0.0
Li1146 Li -0.00339 0.23967 0.60506 0.0
Li1147 Li 0.97021 0.25619 0.63905 0.0
C1148 C 0.03161 0.26916 0.58164 0.0
N1149 N 0.04703 0.27917 0.5336 0.0
C1150 C 0.05669 0.27393 0.57667 0.0
C1151 C 0.01435 0.26947 0.56214 0.0
C1152 C 0.06413 0.27896 0.55227 0.0
C1153 C 0.02253 0.27456 0.538 0.0
C1154 C 0.00257 0.30596 0.6569 0.0
C1155 C 0.00335 0.34211 0.68347 0.0
N1156 N 0.02607 0.34843 0.67422 0.0
C1157 C 0.02592 0.31281 0.64763 0.0
C1158 C 0.99117 0.32072 0.67494 0.0
C1159 C 0.03749 0.33435 0.65663 0.0
C1160 C 0.96364 0.32115 0.59684 0.0
N1161 N 0.98796 0.31445 0.597 0.0
C1162 C -0.00015 0.35203 0.57691 0.0
C1163 C 0.00612 0.32928 0.5875 0.0
C1164 C 0.97481 0.35913 0.57636 0.0
C1165 C 0.95655 0.34363 0.58644 0.0
H1166 H 0.94974 0.30891 0.60474 0.0
H1167 H 0.02532 0.32347 0.58816 0.0
C1168 C 0.06087 0.24263 0.65396 0.0
N1169 N 0.04067 0.25501 0.66244 0.0
C1170 C 0.08084 0.23825 0.6698 0.0
C1171 C 0.05877 0.25956 0.70271 0.0
C1172 C 0.03912 0.26335 0.68627 0.0
C1173 C 0.07984 0.24679 0.69446 0.0
H1174 H 0.0613 0.23604 0.63493 0.0
H1175 H 0.02252 0.27265 0.69258 0.0
C1176 C 0.94564 0.25162 0.59123 0.0
N1177 N 0.90326 0.2337 0.56806 0.0
C1178 C 0.93332 0.23073 0.60072 0.0
C1179 C 0.93641 0.26342 0.57001 0.0
C1180 C 0.9119 0.22197 0.58872 0.0
C1181 C 0.91498 0.25406 0.55854 0.0
C1182 C 0.00185 0.21421 0.65886 0.0
C1183 C 0.01781 0.19434 0.65428 0.0
C1184 C -0.00433 0.22037 0.68336 0.0
C1185 C 0.02753 0.18108 0.67436 0.0
C1186 C 0.00578 0.20665 0.70293 0.0
N1187 N 0.02137 0.18746 0.69807 0.0
C1188 C 0.02457 0.20314 0.58393 0.0
C1189 C 0.98377 0.20436 0.56707 0.0
C1190 C 0.02929 0.18081 0.57175 0.0
N1191 N 0.00179 0.21379 0.58218 0.0
C1192 C 0.98763 0.18199 0.55468 0.0
C1193 C 0.01027 0.16968 0.5578 0.0
H1194 H 0.03852 0.21122 0.59607 0.0
H1195 H 0.966 0.21334 0.56561 0.0
C1196 C 0.92955 0.2784 0.65635 0.0
N1197 N 0.9408 0.25593 0.65689 0.0
C1198 C 0.90805 0.28233 0.66995 0.0
C1199 C 0.91023 0.23984 0.68466 0.0
C1200 C 0.93172 0.23664 0.6705 0.0
C1201 C 0.89829 0.26293 0.6843 0.0
H1202 H 0.9376 0.29336 0.64556 0.0
H1203 H 0.94125 0.21902 0.67052 0.0
O1204 O 0.02425 0.26465 0.60561 0.0
O1205 O 0.99069 0.28501 0.64844 0.0
O1206 O 0.96643 0.26081 0.60277 0.0
O1207 O 0.99229 0.22756 0.63948 0.0
H1208 H 0.07026 0.27384 0.59158 0.0
H1209 H -0.00513 0.26589 0.5655 0.0
H1210 H 0.08349 0.28273 0.54819 0.0
H1211 H 0.00937 0.27488 0.52275 0.0
H1212 H -0.00525 0.3537 0.69745 0.0
H1213 H 0.03509 0.30168 0.63369 0.0
H1214 H 0.97308 0.31567 0.68227 0.0
H1215 H 0.05555 0.33986 0.64963 0.0
H1216 H 0.01424 0.36391 0.5692 0.0
H1217 H 0.93712 0.34883 0.58622 0.0
H1218 H 0.09708 0.22878 0.66274 0.0
H1219 H 0.05754 0.26644 0.72163 0.0
H1220 H 0.94034 0.22127 0.61701 0.0
H1221 H 0.94577 0.27961 0.56245 0.0
H1222 H 0.90218 0.2058 0.5958 0.0
H1223 H 0.90766 0.26298 0.54208 0.0
H1224 H 0.02267 0.18922 0.63545 0.0
H1225 H 0.98357 0.23586 0.68725 0.0
H1226 H 0.03996 0.16571 0.6711 0.0
H1227 H 0.0013 0.21133 0.72199 0.0
H1228 H 0.04683 0.17148 0.57466 0.0
H1229 H 0.9726 0.1736 0.54408 0.0
H1230 H 0.89923 0.30037 0.66948 0.0
H1231 H 0.90288 0.22452 0.69553 0.0
Li1232 Li 0.48109 0.2523 0.35989 0.0
Li1233 Li 0.50053 0.27541 0.39422 0.0
Li1234 Li 0.52506 0.25632 0.36025 0.0
Li1235 Li 0.50577 0.23025 0.39246 0.0
C1236 C 0.48689 0.29846 0.34306 0.0
N1237 N 0.45772 0.32756 0.31252 0.0
C1238 C 0.47369 0.31843 0.35299 0.0
C1239 C 0.48546 0.29345 0.31753 0.0
C1240 C 0.45901 0.33289 0.33725 0.0
C1241 C 0.47054 0.30833 0.30243 0.0
C1242 C 0.45814 0.25127 0.41537 0.0
C1243 C 0.44807 0.24576 0.4588 0.0
N1244 N 0.42503 0.2551 0.45452 0.0
C1245 C 0.43423 0.26049 0.41137 0.0
C1246 C 0.46502 0.24357 0.43924 0.0
C1247 C 0.41782 0.26242 0.43141 0.0
C1248 C 0.45334 0.22973 0.32176 0.0
N1249 N 0.45343 0.24885 0.33835 0.0
C1250 C 0.4165 0.26532 0.32055 0.0
C1251 C 0.43514 0.26611 0.33852 0.0
C1252 C 0.41658 0.24641 0.30253 0.0
C1253 C 0.43495 0.22814 0.30349 0.0
H1254 H 0.46786 0.21601 0.32231 0.0
H1255 H 0.43556 0.28101 0.35199 0.0
C1256 C 0.5218 0.31105 0.4252 0.0
N1257 N 0.49952 0.30214 0.41707 0.0
C1258 C 0.52286 0.32838 0.44443 0.0
C1259 C 0.47792 0.32904 0.44479 0.0
C1260 C 0.47775 0.31113 0.42601 0.0
C1261 C 0.50071 0.33736 0.45476 0.0
H1262 H 0.53885 0.30423 0.41716 0.0
H1263 H 0.46029 0.30447 0.41856 0.0
C1264 C 0.5194 0.21155 0.33987 0.0
N1265 N 0.5488 0.18469 0.30755 0.0
C1266 C 0.53326 0.1915 0.34864 0.0
C1267 C 0.52029 0.21779 0.31462 0.0
C1268 C 0.54805 0.17819 0.332 0.0
C1269 C 0.53533 0.20403 0.29859 0.0
C1270 C 0.54719 0.25359 0.41663 0.0
C1271 C 0.57261 0.2494 0.41336 0.0
C1272 C 0.53756 0.25556 0.44072 0.0
C1273 C 0.5879 0.24693 0.43424 0.0
C1274 C 0.55346 0.25301 0.46112 0.0
N1275 N 0.57809 0.24875 0.45749 0.0
C1276 C 0.55277 0.27796 0.3214 0.0
C1277 C 0.57121 0.24301 0.34079 0.0
C1278 C 0.5711 0.27819 0.30304 0.0
N1279 N 0.55281 0.26006 0.33926 0.0
C1280 C 0.58973 0.24244 0.32279 0.0
C1281 C 0.58928 0.25972 0.30327 0.0
H1282 H 0.53809 0.29151 0.3209 0.0
H1283 H 0.57077 0.2291 0.35527 0.0
C1284 C 0.48443 0.18858 0.41321 0.0
N1285 N 0.50629 0.20138 0.41222 0.0
C1286 C 0.48195 0.16813 0.4289 0.0
C1287 C 0.52461 0.17431 0.44206 0.0
C1288 C 0.52642 0.19438 0.42578 0.0
C1289 C 0.5021 0.1612 0.44378 0.0
H1290 H 0.46882 0.19458 0.40207 0.0
H1291 H 0.5438 0.20433 0.42415 0.0
O1292 O 0.50119 0.28398 0.35823 0.0
O1293 O 0.47438 0.24916 0.39587 0.0
O1294 O 0.50507 0.22501 0.35595 0.0
O1295 O 0.53199 0.25604 0.39632 0.0
H1296 H 0.47467 0.32264 0.37266 0.0
H1297 H 0.49543 0.27798 0.30955 0.0
H1298 H 0.4486 0.34833 0.34471 0.0
H1299 H 0.46906 0.30451 0.28271 0.0
H1300 H 0.45321 0.23992 0.47735 0.0
H1301 H 0.42843 0.26625 0.39302 0.0
H1302 H 0.4831 0.23568 0.44265 0.0
H1303 H 0.39933 0.2697 0.42858 0.0
H1304 H 0.40234 0.27955 0.3205 0.0
H1305 H 0.4355 0.21331 0.28986 0.0
H1306 H 0.54085 0.33448 0.45127 0.0
H1307 H 0.46038 0.33642 0.45121 0.0
H1308 H 0.53276 0.18642 0.36812 0.0
H1309 H 0.50974 0.23331 0.30754 0.0
H1310 H 0.559 0.16272 0.33855 0.0
H1311 H 0.53637 0.20878 0.27906 0.0
H1312 H 0.58048 0.24812 0.3949 0.0
H1313 H 0.51811 0.25936 0.44364 0.0
H1314 H 0.60759 0.24361 0.43196 0.0
H1315 H 0.54622 0.25451 0.47984 0.0
H1316 H 0.57051 0.29193 0.28834 0.0
H1317 H 0.60389 0.22825 0.3237 0.0
H1318 H 0.46446 0.15802 0.42966 0.0
H1319 H 0.54064 0.16889 0.45296 0.0
Li1320 Li 0.49044 0.76913 0.10856 0.0
Li1321 Li 0.52363 0.75709 0.13683 0.0
Li1322 Li 0.49168 0.72652 0.12135 0.0
Li1323 Li 0.48056 0.75828 0.15198 0.0
C1324 C 0.52685 0.75138 0.07983 0.0
N1325 N 0.5452 0.7648 0.03373 0.0
C1326 C 0.5475 0.76718 0.07808 0.0
C1327 C 0.51579 0.74204 0.05817 0.0
C1328 C 0.55643 0.77385 0.05458 0.0
C1329 C 0.52527 0.74915 0.03503 0.0
C1330 C 0.51052 0.80313 0.15655 0.0
C1331 C 0.52514 0.81279 0.19792 0.0
N1332 N 0.52861 0.83687 0.191 0.0
C1333 C 0.51418 0.82796 0.14984 0.0
C1334 C 0.516 0.79546 0.18077 0.0
C1335 C 0.52335 0.84475 0.16753 0.0
C1336 C 0.46047 0.79165 0.07123 0.0
N1337 N 0.483 0.79143 0.08275 0.0
C1338 C 0.49588 0.82784 0.06108 0.0
C1339 C 0.50067 0.80888 0.07791 0.0
C1340 C 0.4725 0.82907 0.04957 0.0
C1341 C 0.4548 0.81044 0.05433 0.0
H1342 H 0.44647 0.77802 0.07596 0.0
H1343 H 0.51807 0.80869 0.088 0.0
C1344 C 0.56817 0.73749 0.15081 0.0
N1345 N 0.55715 0.75962 0.14627 0.0
C1346 C 0.59212 0.73679 0.16056 0.0
C1347 C 0.59326 0.78175 0.15989 0.0
C1348 C 0.56934 0.78155 0.14981 0.0
C1349 C 0.60471 0.75913 0.16579 0.0
H1350 H 0.55798 0.72038 0.14754 0.0
H1351 H 0.56031 0.79888 0.14555 0.0
C1352 C 0.44256 0.73662 0.11098 0.0
N1353 N 0.40235 0.71156 0.09059 0.0
C1354 C 0.42134 0.732 0.12532 0.0
C1355 C 0.44324 0.72863 0.08622 0.0
C1356 C 0.40123 0.71927 0.11468 0.0
C1357 C 0.42275 0.71596 0.07627 0.0
C1358 C 0.50452 0.71751 0.17668 0.0
C1359 C 0.48859 0.69698 0.1787 0.0
C1360 C 0.52069 0.72333 0.19627 0.0
C1361 C 0.48869 0.68294 0.20056 0.0
C1362 C 0.52026 0.7088 0.2178 0.0
N1363 N 0.50438 0.68909 0.21949 0.0
C1364 C 0.50987 0.68443 0.10011 0.0
C1365 C 0.46765 0.67932 0.11186 0.0
C1366 C 0.51013 0.66087 0.08951 0.0
N1367 N 0.48875 0.69332 0.11055 0.0
C1368 C 0.46692 0.65573 0.10105 0.0
C1369 C 0.48834 0.64638 0.08948 0.0
H1370 H 0.52648 0.69588 0.0997 0.0
H1371 H 0.45124 0.68658 0.12078 0.0
C1372 C 0.45444 0.7896 0.18504 0.0
N1373 N 0.45905 0.76554 0.17892 0.0
C1374 C 0.43539 0.79535 0.20158 0.0
C1375 C 0.4263 0.75148 0.20541 0.0
C1376 C 0.44588 0.74655 0.18923 0.0
C1377 C 0.42027 0.77621 0.21096 0.0
H1378 H 0.46444 0.8045 0.17601 0.0
H1379 H 0.44923 0.7277 0.18336 0.0
O1380 O 0.51765 0.7449 0.10265 0.0
O1381 O 0.50178 0.78645 0.13935 0.0
O1382 O 0.46244 0.74903 0.12114 0.0
O1383 O 0.50504 0.73117 0.15522 0.0
H1384 H 0.55634 0.77448 0.09468 0.0
H1385 H 0.5001 0.72941 0.05922 0.0
H1386 H 0.57226 0.78626 0.05293 0.0
H1387 H 0.51681 0.74218 0.0181 0.0
H1388 H 0.52945 0.80711 0.21673 0.0
H1389 H 0.51002 0.83419 0.13114 0.0
H1390 H 0.51303 0.77639 0.18627 0.0
H1391 H 0.52631 0.86403 0.16261 0.0
H1392 H 0.50976 0.84226 0.05828 0.0
H1393 H 0.4365 0.81103 0.04591 0.0
H1394 H 0.60046 0.71898 0.16459 0.0
H1395 H 0.60223 0.79937 0.16394 0.0
H1396 H 0.42035 0.73825 0.14441 0.0
H1397 H 0.45945 0.73212 0.07486 0.0
H1398 H 0.38471 0.71555 0.12558 0.0
H1399 H 0.42308 0.7096 0.05716 0.0
H1400 H 0.47612 0.69209 0.16365 0.0
H1401 H 0.53361 0.73876 0.19482 0.0
H1402 H 0.47631 0.66712 0.20244 0.0
H1403 H 0.53263 0.71314 0.23312 0.0
H1404 H 0.52713 0.65418 0.08113 0.0
H1405 H 0.44963 0.6453 0.10112 0.0
H1406 H 0.43152 0.81464 0.2057 0.0
H1407 H 0.41484 0.73619 0.21194 0.0
Li1408 Li 0.90433 0.00821 0.78315 0.0
Li1409 Li 0.87282 -0.00656 0.75489 0.0
Li1410 Li 0.91152 0.0092 0.73977 0.0
Li1411 Li 0.88186 0.03676 0.75865 0.0
C1412 C 0.92831 0.96736 0.76451 0.0
N1413 N 0.97266 0.94301 0.77252 0.0
C1414 C 0.92874 0.94145 0.76596 0.0
C1415 C 0.95047 0.98091 0.76704 0.0
C1416 C 0.95134 0.92948 0.77005 0.0
C1417 C 0.97269 0.96824 0.7711 0.0
C1418 C 0.85716 0.00133 0.80327 0.0
C1419 C 0.82696 -0.00165 0.83633 0.0
N1420 N 0.83511 0.97509 0.84165 0.0
C1421 C 0.86525 0.97738 0.80908 0.0
C1422 C 0.83789 0.01192 0.81701 0.0
C1423 C 0.85386 0.96443 0.82854 0.0
C1424 C 0.91804 0.02896 0.82673 0.0
N1425 N 0.91844 0.00664 0.81493 0.0
C1426 C 0.9362 0.98717 0.85048 0.0
C1427 C 0.92729 0.98586 0.82613 0.0
C1428 C 0.93549 0.00994 0.86314 0.0
C1429 C 0.92642 0.03103 0.85113 0.0
H1430 H 0.91067 0.04504 0.81726 0.0
H1431 H 0.9269 0.96824 0.81647 0.0
C1432 C 0.85399 0.95972 0.72273 0.0
N1433 N 0.84879 0.96943 0.74547 0.0
C1434 C 0.83981 0.94026 0.71318 0.0
C1435 C 0.81394 0.94211 0.74994 0.0
C1436 C 0.82869 0.96172 0.7588 0.0
C1437 C 0.81999 0.93077 0.72718 0.0
H1438 H 0.86963 0.96678 0.71227 0.0
H1439 H 0.82447 0.97016 0.77652 0.0
C1440 C 0.92951 0.0561 0.75212 0.0
N1441 N 0.95188 0.09601 0.72853 0.0
C1442 C 0.92002 0.06487 0.72956 0.0
C1443 C 0.95036 0.06765 0.76267 0.0
C1444 C 0.93158 0.08508 0.71794 0.0
C1445 C 0.96143 0.08778 0.75045 0.0
C1446 C 0.85563 0.02327 0.71668 0.0
C1447 C 0.85453 0.02742 0.69104 0.0
C1448 C 0.83402 0.02521 0.731 0.0
C1449 C 0.83181 0.03359 0.68012 0.0
C1450 C 0.81167 0.03142 0.71939 0.0
N1451 N 0.81103 0.03546 0.6944 0.0
C1452 C 0.92668 0.97942 0.70302 0.0
C1453 C 0.95168 0.01592 0.70353 0.0
C1454 C 0.93745 0.97161 0.68093 0.0
N1455 N 0.9332 0.0016 0.71331 0.0
C1456 C 0.96297 0.00882 0.68122 0.0
C1457 C 0.95502 0.9869 0.66932 0.0
H1458 H 0.9123 0.96823 0.71151 0.0
H1459 H 0.95692 0.03325 0.71229 0.0
C1460 C 0.86128 0.07465 0.78514 0.0
N1461 N 0.86647 0.06797 0.76131 0.0
C1462 C 0.8466 0.09529 0.78997 0.0
C1463 C 0.84369 0.10237 0.74558 0.0
C1464 C 0.85844 0.08154 0.7416 0.0
C1465 C 0.83732 0.10917 0.77001 0.0
H1466 H 0.8678 0.06332 0.80039 0.0
H1467 H 0.86271 0.07574 0.72283 0.0
O1468 O 0.9062 0.9792 0.76062 0.0
O1469 O 0.86816 0.0147 0.78458 0.0
O1470 O 0.91859 0.03644 0.76411 0.0
O1471 O 0.87788 0.01745 0.72752 0.0
H1472 H 0.91173 0.93072 0.76402 0.0
H1473 H 0.95058 0.00095 0.76597 0.0
H1474 H 0.95193 0.90943 0.77127 0.0
H1475 H 0.98996 0.97848 0.77314 0.0
H1476 H 0.81202 0.00632 0.8471 0.0
H1477 H 0.88005 0.96878 0.79868 0.0
H1478 H 0.83144 0.03046 0.81279 0.0
H1479 H 0.85992 0.94589 0.83322 0.0
H1480 H 0.94277 0.97053 0.85963 0.0
H1481 H 0.92546 0.04875 0.86068 0.0
H1482 H 0.84492 0.93199 0.69553 0.0
H1483 H 0.79891 0.93502 0.76137 0.0
H1484 H 0.90411 0.05609 0.72091 0.0
H1485 H 0.95792 0.06109 0.78014 0.0
H1486 H 0.92447 0.09201 0.70045 0.0
H1487 H 0.9776 0.09687 0.75841 0.0
H1488 H 0.87111 0.02598 0.67972 0.0
H1489 H 0.83446 0.0221 0.75087 0.0
H1490 H 0.8307 0.03691 0.6603 0.0
H1491 H 0.79483 0.03307 0.73024 0.0
H1492 H 0.93108 0.95452 0.67225 0.0
H1493 H 0.97653 0.02102 0.67256 0.0
H1494 H 0.84179 0.09978 0.80902 0.0
H1495 H 0.83695 0.11281 0.72975 0.0
Li1496 Li 0.76395 0.16146 0.52086 0.0
Li1497 Li 0.78179 0.12588 0.49848 0.0
Li1498 Li 0.75455 0.15525 0.47758 0.0
Li1499 Li 0.73849 0.1259 0.50917 0.0
C1500 C 0.80391 0.17911 0.50101 0.0
N1501 N 0.83645 0.21407 0.52034 0.0
C1502 C 0.82591 0.17157 0.51252 0.0
C1503 C 0.79846 0.20439 0.49925 0.0
C1504 C 0.84214 0.18955 0.52218 0.0
C1505 C 0.81515 0.22179 0.50918 0.0
C1506 C 0.75975 0.11202 0.55142 0.0
C1507 C 0.74896 0.07177 0.56818 0.0
N1508 N 0.74221 0.08273 0.58995 0.0
C1509 C 0.75265 0.12286 0.57397 0.0
C1510 C 0.75789 0.08624 0.54851 0.0
C1511 C 0.74388 0.10774 0.59323 0.0
C1512 C 0.74887 0.20141 0.55053 0.0
N1513 N 0.76742 0.18469 0.54732 0.0
C1514 C 0.78322 0.19314 0.58803 0.0
C1515 C 0.78504 0.18104 0.56509 0.0
C1516 C 0.76325 0.20923 0.59243 0.0
C1517 C 0.74651 0.21411 0.57305 0.0
H1518 H 0.73481 0.20355 0.53635 0.0
H1519 H 0.79923 0.16718 0.56224 0.0
C1520 C 0.82368 0.11073 0.47178 0.0
N1521 N 0.81024 0.10597 0.49268 0.0
C1522 C 0.84428 0.09624 0.46592 0.0
C1523 C 0.83687 0.07229 0.50327 0.0
C1524 C 0.81643 0.08727 0.50842 0.0
C1525 C 0.85116 0.07685 0.48189 0.0
H1526 H 0.81829 0.12577 0.45962 0.0
H1527 H 0.80567 0.08409 0.52507 0.0
C1528 C 0.71217 0.17396 0.49359 0.0
N1529 N 0.67456 0.19861 0.46897 0.0
C1530 C 0.68965 0.16182 0.48852 0.0
C1531 C 0.71553 0.19866 0.48622 0.0
C1532 C 0.67087 0.17461 0.47605 0.0
C1533 C 0.69631 0.21079 0.47374 0.0
C1534 C 0.76224 0.10078 0.46086 0.0
C1535 C 0.7707 0.10746 0.43718 0.0
C1536 C 0.76427 0.07615 0.46878 0.0
C1537 C 0.78127 0.08938 0.42189 0.0
C1538 C 0.77502 0.05864 0.45297 0.0
N1539 N 0.78323 0.06556 0.43004 0.0
C1540 C 0.76918 0.18328 0.43627 0.0
C1541 C 0.72848 0.16646 0.43267 0.0
C1542 C 0.76817 0.19221 0.41192 0.0
N1543 N 0.74959 0.17054 0.44604 0.0
C1544 C 0.7265 0.17543 0.40836 0.0
C1545 C 0.74667 0.18822 0.39755 0.0
H1546 H 0.78604 0.18561 0.44701 0.0
H1547 H 0.71347 0.1556 0.44059 0.0
C1548 C 0.69971 0.11521 0.54158 0.0
N1549 N 0.7112 0.10672 0.52075 0.0
C1550 C 0.67993 0.10196 0.55193 0.0
C1551 C 0.68372 0.07176 0.5188 0.0
C1552 C 0.7038 0.08537 0.50934 0.0
C1553 C 0.67133 0.08023 0.5402 0.0
H1554 H 0.70598 0.13234 0.55015 0.0
H1555 H 0.71321 0.07915 0.49272 0.0
O1556 O 0.7876 0.16181 0.49179 0.0
O1557 O 0.76812 0.12655 0.5322 0.0
O1558 O 0.7308 0.16179 0.50578 0.0
O1559 O 0.75227 0.11832 0.47631 0.0
H1560 H 0.83033 0.15205 0.5141 0.0
H1561 H 0.78143 0.21048 0.49048 0.0
H1562 H 0.85922 0.18402 0.5312 0.0
H1563 H 0.81114 0.24143 0.50804 0.0
H1564 H 0.74727 0.05184 0.56609 0.0
H1565 H 0.75347 0.14274 0.57653 0.0
H1566 H 0.76282 0.07753 0.53109 0.0
H1567 H 0.73825 0.11593 0.61072 0.0
H1568 H 0.7964 0.1889 0.60265 0.0
H1569 H 0.73068 0.22612 0.57592 0.0
H1570 H 0.85482 0.10023 0.4492 0.0
H1571 H 0.84188 0.05775 0.51623 0.0
H1572 H 0.68672 0.14271 0.49402 0.0
H1573 H 0.7329 0.20829 0.48988 0.0
H1574 H 0.65336 0.16544 0.47196 0.0
H1575 H 0.6987 0.22986 0.46782 0.0
H1576 H 0.76935 0.12641 0.43073 0.0
H1577 H 0.75791 0.07067 0.48706 0.0
H1578 H 0.78801 0.09431 0.40357 0.0
H1579 H 0.77688 0.03955 0.45894 0.0
H1580 H 0.78448 0.20118 0.40414 0.0
H1581 H 0.70959 0.1719 0.39793 0.0
H1582 H 0.67116 0.10892 0.56866 0.0
H1583 H 0.67744 0.05526 0.50902 0.0
Li1584 Li 0.60602 0.98557 0.29429 0.0
Li1585 Li 0.63041 0.00736 0.26385 0.0
Li1586 Li 0.59776 0.9799 0.25148 0.0
Li1587 Li 0.63526 0.96369 0.26986 0.0
C1588 C 0.59022 0.03307 0.28292 0.0
N1589 N 0.58121 0.07708 0.30782 0.0
C1590 C 0.6064 0.04121 0.30168 0.0
C1591 C 0.56943 0.04731 0.27689 0.0
C1592 C 0.60153 0.06351 0.31402 0.0
C1593 C 0.5652 0.0695 0.28967 0.0
C1594 C 0.66753 -0.00582 0.29655 0.0
C1595 C 0.70865 -0.00334 0.27877 0.0
N1596 N 0.71813 0.00191 0.30168 0.0
C1597 C 0.67769 -0.00045 0.31991 0.0
C1598 C 0.68312 0.99268 0.27578 0.0
C1599 C 0.70331 0.00342 0.32212 0.0
C1600 C 0.60565 0.97188 0.3433 0.0
N1601 N 0.59231 0.9848 0.32627 0.0
C1602 C 0.55988 0.99174 0.35559 0.0
C1603 C 0.56978 -0.00538 0.33178 0.0
C1604 C 0.57333 0.9785 0.3736 0.0
C1605 C 0.59648 0.96852 0.36727 0.0
H1606 H 0.62337 0.96404 0.33813 0.0
H1607 H 0.55946 0.00453 0.31769 0.0
C1608 C 0.64375 0.04068 0.22782 0.0
N1609 N 0.64702 0.03609 0.25247 0.0
C1610 C 0.65708 0.05967 0.21619 0.0
C1611 C 0.67652 0.06918 0.25575 0.0
C1612 C 0.6627 0.05006 0.26666 0.0
C1613 C 0.67401 0.07387 0.23014 0.0
H1614 H 0.63105 0.02923 0.2171 0.0
H1615 H 0.66479 0.04612 0.28628 0.0
C1616 C 0.57736 0.94412 0.28225 0.0
N1617 N 0.53073 0.92526 0.29328 0.0
C1618 C 0.57446 0.91916 0.28883 0.0
C1619 C 0.55654 0.95949 0.28124 0.0
C1620 C 0.55073 0.90997 0.29435 0.0
C1621 C 0.53313 0.94961 0.28691 0.0
C1622 C 0.6342 0.96612 0.21785 0.0
C1623 C 0.62358 0.94232 0.21817 0.0
C1624 C 0.64696 0.97425 0.1967 0.0
C1625 C 0.62593 0.92705 0.19727 0.0
C1626 C 0.64893 0.9584 0.17618 0.0
N1627 N 0.63845 0.93534 0.17688 0.0
C1628 C 0.56901 0.00103 0.21664 0.0
C1629 C 0.56375 0.95722 0.21585 0.0
C1630 C 0.55455 0.00357 0.19541 0.0
N1631 N 0.57372 0.97817 0.22607 0.0
C1632 C 0.54935 0.95888 0.19421 0.0
C1633 C 0.5452 0.98231 0.18348 0.0
H1634 H 0.57747 0.01729 0.22503 0.0
H1635 H 0.56796 0.93924 0.22371 0.0
C1636 C 0.66324 0.93172 0.2975 0.0
N1637 N 0.65926 0.93852 0.27347 0.0
C1638 C 0.68159 0.91455 0.30335 0.0
C1639 C 0.69116 0.91141 0.2595 0.0
C1640 C 0.67319 0.92924 0.2546 0.0
C1641 C 0.69543 0.90368 0.28415 0.0
H1642 H 0.65236 0.94003 0.31218 0.0
H1643 H 0.67057 0.93564 0.23578 0.0
O1644 O 0.59422 0.01115 0.27065 0.0
O1645 O 0.64243 0.99046 0.29426 0.0
O1646 O 0.60057 0.95324 0.27693 0.0
O1647 O 0.63185 0.98167 0.23787 0.0
H1648 H 0.62247 0.03048 0.30684 0.0
H1649 H 0.55663 0.0412 0.26252 0.0
H1650 H 0.6139 0.07001 0.32858 0.0
H1651 H 0.54917 0.08068 0.28519 0.0
H1652 H 0.72092 -0.00439 0.26286 0.0
H1653 H 0.66585 0.00076 0.33615 0.0
H1654 H 0.67566 0.98858 0.25753 0.0
H1655 H 0.71142 0.00763 0.34009 0.0
H1656 H 0.5422 0.00017 0.36002 0.0
H1657 H 0.60736 0.95829 0.38074 0.0
H1658 H 0.65445 0.06302 0.19649 0.0
H1659 H 0.68888 0.08032 0.26723 0.0
H1660 H 0.59041 0.90703 0.2897 0.0
H1661 H 0.55835 0.97885 0.27621 0.0
H1662 H 0.54822 0.89069 0.29948 0.0
H1663 H 0.51687 0.96131 0.28625 0.0
H1664 H 0.61378 0.9356 0.23439 0.0
H1665 H 0.65527 0.99262 0.19614 0.0
H1666 H 0.61782 0.9086 0.19727 0.0
H1667 H 0.65877 0.96446 0.15969 0.0
H1668 H 0.55162 0.02194 0.18775 0.0
H1669 H 0.54274 0.94203 0.18528 0.0
H1670 H 0.68481 0.90983 0.32267 0.0
H1671 H 0.70129 0.90347 0.24405 0.0
Li1672 Li 0.71631 0.8735 0.00722 0.0
Li1673 Li 0.74969 0.84642 0.02732 0.0
Li1674 Li 0.75853 0.88984 0.01114 0.0
Li1675 Li 0.74931 0.85564 0.98355 0.0
C1676 C 0.72112 0.88887 0.0562 0.0
N1677 N 0.69051 0.90823 0.09252 0.0
C1678 C 0.71318 0.87396 0.07597 0.0
C1679 C 0.71368 0.91368 0.05499 0.0
C1680 C 0.69768 0.88409 0.09414 0.0
C1681 C 0.69813 0.92309 0.0735 0.0
C1682 C 0.71812 0.81784 0.98796 0.0
C1683 C 0.72666 0.77636 0.9735 0.0
N1684 N 0.70939 0.77917 0.95521 0.0
C1685 C 0.70028 0.82025 0.9692 0.0
C1686 C 0.73132 0.7957 0.99029 0.0
C1687 C 0.69622 0.80051 0.95275 0.0
C1688 C 0.67615 0.8941 0.98308 0.0
N1689 N 0.6827 0.88422 0.00542 0.0
C1690 C 0.64415 0.89679 0.02328 0.0
C1691 C 0.66686 0.88447 0.02512 0.0
C1692 C 0.63761 0.90841 0.00082 0.0
C1693 C 0.6536 0.90641 0.98036 0.0
H1694 H 0.68892 0.8933 0.96758 0.0
H1695 H 0.67215 0.87595 0.04249 0.0
C1696 C 0.78248 0.83231 0.06317 0.0
N1697 N 0.76002 0.82569 0.05352 0.0
C1698 C 0.79177 0.82024 0.08406 0.0
C1699 C 0.75484 0.79431 0.08446 0.0
C1700 C 0.74628 0.80684 0.06334 0.0
C1701 C 0.77768 0.80135 0.09529 0.0
H1702 H 0.79284 0.84754 0.05502 0.0
H1703 H 0.72835 0.8022 0.05537 0.0
C1704 C 0.74051 0.9121 0.97039 0.0
N1705 N 0.7482 0.95764 0.9479 0.0
C1706 C 0.75601 0.91404 0.94959 0.0
C1707 C 0.72877 0.93326 0.97963 0.0
C1708 C 0.75969 0.93724 0.93851 0.0
C1709 C 0.73295 0.95613 0.96803 0.0
C1710 C 0.79847 0.85159 -0.00575 0.0
C1711 C 0.80835 0.86672 0.97555 0.0
C1712 C 0.81009 0.8292 0.00014 0.0
C1713 C 0.82968 0.85911 0.9629 0.0
C1714 C 0.83139 0.82224 0.98706 0.0
N1715 N 0.84065 0.83721 0.96887 0.0
C1716 C 0.77827 0.924 0.04488 0.0
C1717 C 0.79202 0.93086 0.00355 0.0
C1718 C 0.79391 0.94279 0.05378 0.0
N1719 N 0.77773 0.91828 0.0202 0.0
C1720 C 0.80804 0.94969 0.01165 0.0
C1721 C 0.8094 0.95559 0.03714 0.0
H1722 H 0.7674 0.91325 0.05791 0.0
H1723 H 0.79192 0.92559 0.98419 0.0
C1724 C 0.74047 0.85125 0.93298 0.0
N1725 N 0.75445 0.84136 0.95152 0.0
C1726 C 0.7408 0.8409 0.90922 0.0
C1727 C 0.76974 0.81006 0.92403 0.0
C1728 C 0.76879 0.821 0.94759 0.0
C1729 C 0.7556 0.82009 0.90455 0.0
H1730 H 0.72852 0.86685 0.93682 0.0
H1731 H 0.77878 0.81271 0.96286 0.0
O1732 O 0.73631 0.87929 0.03825 0.0
O1733 O 0.72288 0.8372 0.00378 0.0
O1734 O 0.73661 0.88953 0.98147 0.0
O1735 O 0.77774 0.8588 0.00701 0.0
H1736 H 0.71887 0.85475 0.07721 0.0
H1737 H 0.71984 0.9255 0.03991 0.0
H1738 H 0.69131 0.87276 0.10952 0.0
H1739 H 0.69213 0.94222 0.07275 0.0
H1740 H 0.73686 0.75917 0.97494 0.0
H1741 H 0.68995 0.83733 0.96718 0.0
H1742 H 0.74525 0.79362 0.0047 0.0
H1743 H 0.68265 0.80218 0.93797 0.0
H1744 H 0.63209 0.89775 0.03939 0.0
H1745 H 0.64927 0.91527 0.9628 0.0
H1746 H 0.80937 0.82626 0.09194 0.0
H1747 H 0.74313 0.78025 0.09298 0.0
H1748 H 0.76529 0.89787 0.9422 0.0
H1749 H 0.71655 0.93204 -0.00444 0.0
H1750 H 0.77173 0.93904 0.92249 0.0
H1751 H 0.72403 0.97269 0.97502 0.0
H1752 H 0.79956 0.88404 0.97075 0.0
H1753 H 0.80263 0.81722 0.01452 0.0
H1754 H 0.83749 0.87061 0.94833 0.0
H1755 H 0.84053 0.80492 0.99135 0.0
H1756 H 0.7947 0.94651 0.07359 0.0
H1757 H 0.82036 0.95841 -0.00173 0.0
H1758 H 0.72961 0.84909 0.89464 0.0
H1759 H 0.78092 0.79364 0.92121 0.0
Li1760 Li 0.26622 0.65866 0.01454 0.0
Li1761 Li 0.28247 0.62334 0.99113 0.0
Li1762 Li 0.25161 0.65104 0.97384 0.0
Li1763 Li 0.24071 0.62192 0.00739 0.0
C1764 C 0.30382 0.67587 0.99061 0.0
N1765 N 0.33898 0.70987 0.00688 0.0
C1766 C 0.32681 0.66773 -0.00054 0.0
C1767 C 0.29873 0.70129 0.98995 0.0
C1768 C 0.34434 0.68522 0.00761 0.0
C1769 C 0.31674 0.71819 -0.00171 0.0
C1770 C 0.26574 0.61303 0.04807 0.0
C1771 C 0.26226 0.5764 0.07373 0.0
N1772 N 0.25077 0.59004 0.09161 0.0
C1773 C 0.25367 0.62662 0.06664 0.0
C1774 C 0.26991 0.58765 0.05157 0.0
C1775 C 0.24636 0.6147 0.08854 0.0
C1776 C 0.25608 0.70063 0.0435 0.0
N1777 N 0.27305 0.68248 0.03949 0.0
C1778 C 0.29245 0.69064 0.07858 0.0
C1779 C 0.29167 0.67795 0.05595 0.0
C1780 C 0.2739 0.70805 0.08398 0.0
C1781 C 0.25632 0.71394 0.06573 0.0
H1782 H 0.24113 0.70338 0.03046 0.0
H1783 H 0.30457 0.66302 0.05242 0.0
C1784 C 0.31787 0.60048 0.95938 0.0
N1785 N 0.31028 0.60353 0.98335 0.0
C1786 C 0.33568 0.58261 0.95358 0.0
C1787 C 0.33897 0.57323 -0.00251 0.0
C1788 C 0.32096 0.59096 0.00236 0.0
C1789 C 0.34606 0.5684 0.97279 0.0
H1790 H 0.3093 0.61112 0.94468 0.0
H1791 H 0.31517 0.59443 0.02127 0.0
C1792 C 0.21195 0.67021 -0.00625 0.0
N1793 N 0.1733 0.69576 0.97173 0.0
C1794 C 0.18884 0.65864 0.99026 0.0
C1795 C 0.21541 0.69477 0.98587 0.0
C1796 C 0.16952 0.67189 0.97917 0.0
C1797 C 0.19565 0.70736 0.9748 0.0
C1798 C 0.25762 0.59675 0.95591 0.0
C1799 C 0.25742 0.60256 0.93054 0.0
C1800 C 0.26484 0.57301 0.96349 0.0
C1801 C 0.26444 0.58455 0.91321 0.0
C1802 C 0.27178 0.55553 0.94559 0.0
N1803 N 0.27142 0.56161 0.92103 0.0
C1804 C 0.25917 0.6814 0.93297 0.0
C1805 C 0.21966 0.66152 0.93279 0.0
C1806 C 0.25434 0.69231 0.91005 0.0
N1807 N 0.242 0.66626 0.94374 0.0
C1808 C 0.21384 0.67243 0.91 0.0
C1809 C 0.23156 0.68762 0.89813 0.0
H1810 H 0.27694 0.6845 0.94187 0.0
H1811 H 0.20656 0.64898 0.94156 0.0
C1812 C 0.1986 0.61105 0.03684 0.0
N1813 N 0.21663 0.60082 0.02249 0.0
C1814 C 0.18002 0.59607 0.04717 0.0
C1815 C 0.20041 0.56011 0.02985 0.0
C1816 C 0.21823 0.57584 0.01941 0.0
C1817 C 0.18048 0.57025 0.04321 0.0
H1818 H 0.1982 0.63096 0.03957 0.0
H1819 H 0.23314 0.56811 0.0086 0.0
O1820 O 0.28623 0.65902 0.98298 0.0
O1821 O 0.27268 0.6243 0.02628 0.0
O1822 O 0.23113 0.65754 0.00458 0.0
O1823 O 0.25067 0.61416 0.97315 0.0
H1824 H 0.33101 0.64812 0.0002 0.0
H1825 H 0.28095 0.70788 0.98331 0.0
H1826 H 0.36219 0.67919 0.01458 0.0
H1827 H 0.31302 0.73791 -0.002 0.0
H1828 H 0.26532 0.55677 0.07664 0.0
H1829 H 0.24954 0.64606 0.06405 0.0
H1830 H 0.27853 0.57662 0.03718 0.0
H1831 H 0.23702 0.62502 0.10303 0.0
H1832 H 0.30626 0.68573 0.09239 0.0
H1833 H 0.24163 0.7271 0.06948 0.0
H1834 H 0.3407 0.57948 0.93432 0.0
H1835 H 0.34716 0.56323 0.01291 0.0
H1836 H 0.18588 0.63952 -0.00434 0.0
H1837 H 0.23331 0.70387 0.98779 0.0
H1838 H 0.15157 0.66313 0.97632 0.0
H1839 H 0.19813 0.7263 0.96852 0.0
H1840 H 0.252 0.62078 0.92422 0.0
H1841 H 0.26595 0.56834 0.983 0.0
H1842 H 0.26438 0.58884 0.89354 0.0
H1843 H 0.27766 0.53721 0.95124 0.0
H1844 H 0.26863 0.70362 0.90137 0.0
H1845 H 0.19588 0.6687 0.9016 0.0
H1846 H 0.16476 0.60482 0.05686 0.0
H1847 H 0.20158 0.54029 0.02654 0.0
Li1848 Li 0.12084 0.50745 0.75867 0.0
Li1849 Li 0.09065 0.48833 0.78563 0.0
Li1850 Li 0.11867 0.46328 0.76289 0.0
Li1851 Li 0.08607 0.48564 0.7417 0.0
C1852 C 0.15221 0.48802 0.7938 0.0
N1853 N 0.20258 0.48768 0.80399 0.0
C1854 C 0.16063 0.49007 0.81833 0.0
C1855 C 0.16941 0.48583 0.77442 0.0
C1856 C 0.18617 0.48986 0.82311 0.0
C1857 C 0.19479 0.48568 0.77997 0.0
C1858 C 0.08266 0.53791 0.77488 0.0
C1859 C 0.06241 0.57745 0.77982 0.0
N1860 N 0.07671 0.58219 0.80021 0.0
C1861 C 0.09715 0.54317 0.7959 0.0
C1862 C 0.06514 0.55517 0.76678 0.0
C1863 C 0.09386 0.56566 0.80843 0.0
C1864 C 0.13871 0.5422 0.72663 0.0
N1865 N 0.14084 0.53512 0.75079 0.0
C1866 C 0.16802 0.56925 0.75947 0.0
C1867 C 0.15529 0.54791 0.76724 0.0
C1868 C 0.16543 0.57737 0.73477 0.0
C1869 C 0.1509 0.56344 0.71815 0.0
H1870 H 0.12702 0.53159 0.71407 0.0
H1871 H 0.15644 0.54194 0.78641 0.0
C1872 C 0.0872 0.47796 0.83516 0.0
N1873 N 0.07491 0.48991 0.81669 0.0
C1874 C 0.0785 0.47905 0.85948 0.0
C1875 C 0.04398 0.50391 0.84513 0.0
C1876 C 0.05349 0.50247 0.821 0.0
C1877 C 0.05685 0.4924 0.86466 0.0
H1878 H 0.10411 0.46804 0.83102 0.0
H1879 H 0.04417 0.51185 0.80588 0.0
C1880 C 0.12346 0.46738 0.71147 0.0
N1881 N 0.12761 0.43682 0.67034 0.0
C1882 C 0.10852 0.4461 0.70935 0.0
C1883 C 0.14044 0.47314 0.69264 0.0
C1884 C 0.11091 0.43089 0.68842 0.0
C1885 C 0.1423 0.45743 0.67201 0.0
C1886 C 0.05726 0.45248 0.76859 0.0
C1887 C 0.04956 0.42802 0.77295 0.0
C1888 C 0.0395 0.47123 0.7666 0.0
C1889 C 0.0242 0.4227 0.77528 0.0
C1890 C 0.01432 0.46517 0.76906 0.0
N1891 N 0.00725 0.44123 0.77332 0.0
C1892 C 0.13912 0.42663 0.79173 0.0
C1893 C 0.15417 0.4251 0.75031 0.0
C1894 C 0.15554 0.40804 0.79902 0.0
N1895 N 0.13879 0.43481 0.76779 0.0
C1896 C 0.17048 0.40607 0.75666 0.0
C1897 C 0.17143 0.39738 0.78134 0.0
H1898 H 0.12715 0.43521 0.80538 0.0
H1899 H 0.15429 0.43238 0.73162 0.0
C1900 C 0.06781 0.5134 0.70493 0.0
N1901 N 0.06506 0.48996 0.71391 0.0
C1902 C 0.05592 0.52047 0.68314 0.0
C1903 C 0.03782 0.47926 0.68037 0.0
C1904 C 0.05018 0.47292 0.70243 0.0
C1905 C 0.04108 0.50322 0.67036 0.0
H1906 H 0.07993 0.52644 0.7144 0.0
H1907 H 0.04853 0.45432 0.7099 0.0
O1908 O 0.12721 0.48805 0.78901 0.0
O1909 O 0.08523 0.51595 0.76229 0.0
O1910 O 0.12136 0.48284 0.73158 0.0
O1911 O 0.08208 0.45774 0.76613 0.0
H1912 H 0.14755 0.49179 0.83353 0.0
H1913 H 0.1633 0.48423 0.75531 0.0
H1914 H 0.19295 0.49142 0.84202 0.0
H1915 H 0.2083 0.48397 0.76517 0.0
H1916 H 0.04891 0.59097 0.77375 0.0
H1917 H 0.11071 0.53007 0.8026 0.0
H1918 H 0.05372 0.55133 0.75059 0.0
H1919 H 0.10493 0.56995 0.82473 0.0
H1920 H 0.17892 0.57984 0.77279 0.0
H1921 H 0.14858 0.56924 0.69899 0.0
H1922 H 0.08881 0.46998 0.87419 0.0
H1923 H 0.02738 0.51463 0.84866 0.0
H1924 H 0.09525 0.44129 0.72367 0.0
H1925 H 0.15208 0.4896 0.69398 0.0
H1926 H 0.09948 0.41437 0.68654 0.0
H1927 H 0.1554 0.46165 0.65731 0.0
H1928 H 0.06308 0.41328 0.77448 0.0
H1929 H 0.04498 0.49025 0.76312 0.0
H1930 H 0.018 0.40384 0.77865 0.0
H1931 H 0.00039 0.47949 0.76757 0.0
H1932 H 0.15606 0.40244 0.81836 0.0
H1933 H 0.18227 0.39827 0.74235 0.0
H1934 H 0.05885 0.53907 0.67596 0.0
H1935 H 0.02679 0.46536 0.67071 0.0
Li1936 Li 0.21859 0.37393 0.50011 0.0
Li1937 Li 0.24762 0.34252 0.51974 0.0
Li1938 Li 0.26096 0.38616 0.51102 0.0
Li1939 Li 0.2523 0.35744 0.47759 0.0
C1940 C 0.22585 0.39236 0.54907 0.0
N1941 N 0.2081 0.42872 0.58053 0.0
C1942 C 0.22139 0.38695 0.5741 0.0
C1943 C 0.22142 0.41626 0.54002 0.0
C1944 C 0.21239 0.4056 0.58972 0.0
C1945 C 0.21239 0.43438 0.55623 0.0
C1946 C 0.21885 0.32208 0.47304 0.0
C1947 C 0.22568 0.28271 0.45279 0.0
N1948 N 0.21142 0.29025 0.43331 0.0
C1949 C 0.20396 0.3293 0.45301 0.0
C1950 C 0.22959 0.29851 0.47311 0.0
C1951 C 0.20055 0.31299 0.43302 0.0
C1952 C 0.17952 0.39766 0.47663 0.0
N1953 N 0.18593 0.38615 0.49818 0.0
C1954 C 0.14765 0.39781 0.51714 0.0
C1955 C 0.17039 0.3855 0.51811 0.0
C1956 C 0.14089 0.41046 0.49535 0.0
C1957 C 0.15686 0.40994 0.47475 0.0
H1958 H 0.19242 0.39796 0.46119 0.0
H1959 H 0.17604 0.3762 0.535 0.0
C1960 C 0.27264 0.32118 0.55923 0.0
N1961 N 0.25157 0.31896 0.54535 0.0
C1962 C 0.27449 0.30913 0.58212 0.0
C1963 C 0.23342 0.29173 0.57535 0.0
C1964 C 0.23238 0.30406 0.5525 0.0
C1965 C 0.25427 0.2951 0.59084 0.0
H1966 H 0.28729 0.33372 0.55332 0.0
H1967 H 0.21567 0.30313 0.5413 0.0
C1968 C 0.2562 0.40885 0.46532 0.0
N1969 N 0.28373 0.44076 0.43575 0.0
C1970 C 0.28047 0.40274 0.45844 0.0
C1971 C 0.2459 0.43114 0.45708 0.0
C1972 C 0.29409 0.41912 0.44349 0.0
C1973 C 0.26013 0.44705 0.44217 0.0
C1974 C 0.29911 0.3417 0.49833 0.0
C1975 C 0.32128 0.35428 0.49287 0.0
C1976 C 0.29885 0.31575 0.49932 0.0
C1977 C 0.34268 0.34062 0.48779 0.0
C1978 C 0.32065 0.30277 0.49412 0.0
N1979 N 0.34192 0.31536 0.48847 0.0
C1980 C 0.28919 0.40353 0.54961 0.0
C1981 C 0.29028 0.43137 0.51547 0.0
C1982 C 0.30759 0.41715 0.56191 0.0
N1983 N 0.28164 0.41027 0.52645 0.0
C1984 C 0.30915 0.44522 0.52685 0.0
C1985 C 0.31884 0.43738 0.54981 0.0
H1986 H 0.28177 0.38678 0.55799 0.0
H1987 H 0.28364 0.43682 0.49738 0.0
C1988 C 0.24882 0.36156 0.42589 0.0
N1989 N 0.25998 0.34785 0.44395 0.0
C1990 C 0.25134 0.35516 0.40091 0.0
C1991 C 0.2761 0.31998 0.41334 0.0
C1992 C 0.27352 0.32738 0.43815 0.0
C1993 C 0.2649 0.33403 0.39451 0.0
H1994 H 0.23715 0.37703 0.4309 0.0
H1995 H 0.28147 0.3162 0.45269 0.0
O1996 O 0.23451 0.37427 0.53353 0.0
O1997 O 0.22318 0.33814 0.49232 0.0
O1998 O 0.24234 0.3931 0.47979 0.0
O1999 O 0.27814 0.3548 0.50397 0.0
H2000 H 0.2248 0.36851 0.58134 0.0
H2001 H 0.22484 0.42074 0.52068 0.0
H2002 H 0.20879 0.40168 0.60914 0.0
H2003 H 0.2088 0.45295 0.5495 0.0
H2004 H 0.23406 0.26451 0.45247 0.0
H2005 H 0.19552 0.3475 0.45272 0.0
H2006 H 0.241 0.29259 0.48857 0.0
H2007 H 0.18936 0.31845 0.41724 0.0
H2008 H 0.13569 0.39788 0.53335 0.0
H2009 H 0.15235 0.41979 0.45778 0.0
H2010 H 0.2907 0.31235 0.59372 0.0
H2011 H 0.21749 0.281 0.58157 0.0
H2012 H 0.28866 0.38553 0.46446 0.0
H2013 H 0.22711 0.43611 0.4622 0.0
H2014 H 0.31289 0.41462 0.43805 0.0
H2015 H 0.25241 0.46439 0.43571 0.0
H2016 H 0.32199 0.37439 0.49272 0.0
H2017 H 0.28197 0.30574 0.50391 0.0
H2018 H 0.35994 0.35011 0.48342 0.0
H2019 H 0.32065 0.28267 0.4946 0.0
H2020 H 0.31414 0.41089 0.5799 0.0
H2021 H 0.31731 0.46075 0.5169 0.0
H2022 H 0.242 0.36603 0.3868 0.0
H2023 H 0.28639 0.30333 0.40892 0.0
Li2024 Li 0.40298 0.50924 0.28632 0.0
Li2025 Li 0.37653 0.49444 0.25313 0.0
Li2026 Li 0.41323 0.51739 0.24322 0.0
Li2027 Li 0.37647 0.53839 0.26318 0.0
C2028 C 0.41412 0.46178 0.27091 0.0
N2029 N 0.41944 0.41575 0.29311 0.0
C2030 C 0.39368 0.4499 0.2818 0.0
C2031 C 0.43732 0.45017 0.27134 0.0
C2032 C 0.39672 0.42667 0.29291 0.0
C2033 C 0.43963 0.42694 0.28265 0.0
C2034 C 0.3456 0.50243 0.2966 0.0
C2035 C 0.30128 0.50379 0.30343 0.0
N2036 N 0.30356 0.48642 0.32165 0.0
C2037 C 0.34752 0.48484 0.31564 0.0
C2038 C 0.32232 0.51221 0.29065 0.0
C2039 C 0.32604 0.47688 0.32797 0.0
C2040 C 0.4011 0.51582 0.33704 0.0
N2041 N 0.41502 0.5049 0.31906 0.0
C2042 C 0.44444 0.49109 0.34927 0.0
C2043 C 0.43647 0.49284 0.32457 0.0
C2044 C 0.43005 0.50173 0.36822 0.0
C2045 C 0.40823 0.51433 0.36191 0.0
H2046 H 0.38446 0.5258 0.33199 0.0
H2047 H 0.4475 0.48483 0.30985 0.0
C2048 C 0.36904 0.45717 0.21906 0.0
N2049 N 0.35724 0.46868 0.23818 0.0
C2050 C 0.35708 0.43847 0.2056 0.0
C2051 C 0.32109 0.44346 0.23202 0.0
C2052 C 0.33358 0.4625 0.24464 0.0
C2053 C 0.33292 0.43107 0.21229 0.0
H2054 H 0.38783 0.46265 0.21427 0.0
H2055 H 0.32453 0.4719 0.25981 0.0
C2056 C 0.4367 0.5483 0.27828 0.0
N2057 N 0.48448 0.56089 0.29272 0.0
C2058 C 0.44193 0.57215 0.28725 0.0
C2059 C 0.45575 0.53084 0.27666 0.0
C2060 C 0.46622 0.57817 0.29444 0.0
C2061 C 0.47978 0.53756 0.28407 0.0
C2062 C 0.3623 0.51873 0.21195 0.0
C2063 C 0.36976 0.509 0.18902 0.0
C2064 C 0.33713 0.5234 0.21623 0.0
C2065 C 0.35185 0.50389 0.17083 0.0
C2066 C 0.31979 0.51806 0.19756 0.0
N2067 N 0.32744 0.50847 0.17544 0.0
C2068 C 0.45222 0.49888 0.21487 0.0
C2069 C 0.43197 0.534 0.19782 0.0
C2070 C 0.46178 0.49256 0.1916 0.0
N2071 N 0.4367 0.51856 0.2172 0.0
C2072 C 0.44105 0.5283 0.17418 0.0
C2073 C 0.45489 0.50652 0.17076 0.0
H2074 H 0.45509 0.48661 0.23043 0.0
H2075 H 0.41893 0.54904 0.20009 0.0
C2076 C 0.3469 0.57225 0.28883 0.0
N2077 N 0.35683 0.56693 0.26621 0.0
C2078 C 0.331 0.59243 0.29158 0.0
C2079 C 0.33632 0.60143 0.24777 0.0
C2080 C 0.352 0.58101 0.24584 0.0
C2081 C 0.32562 0.60732 0.27087 0.0
H2082 H 0.35105 0.56054 0.30464 0.0
H2083 H 0.3602 0.57622 0.22811 0.0
O2084 O 0.41165 0.48463 0.25995 0.0
O2085 O 0.3665 0.51078 0.28458 0.0
O2086 O 0.41296 0.54211 0.27138 0.0
O2087 O 0.37948 0.52335 0.23023 0.0
H2088 H 0.37563 0.45841 0.28165 0.0
H2089 H 0.4535 0.45909 0.26333 0.0
H2090 H 0.38099 0.41732 0.30138 0.0
H2091 H 0.45749 0.41783 0.28318 0.0
H2092 H 0.28314 0.51108 0.29889 0.0
H2093 H 0.36541 0.47744 0.32094 0.0
H2094 H 0.32045 0.52608 0.27625 0.0
H2095 H 0.32727 0.46318 0.34264 0.0
H2096 H 0.46148 0.48136 0.35356 0.0
H2097 H 0.39696 0.52316 0.37605 0.0
H2098 H 0.3669 0.42939 0.19057 0.0
H2099 H 0.30282 0.43782 0.23842 0.0
H2100 H 0.42735 0.58585 0.28867 0.0
H2101 H 0.45202 0.51225 0.26995 0.0
H2102 H 0.47055 0.59656 0.30142 0.0
H2103 H 0.49469 0.52421 0.28297 0.0
H2104 H 0.38912 0.50501 0.18547 0.0
H2105 H 0.33103 0.53092 0.23383 0.0
H2106 H 0.35733 0.49617 0.15309 0.0
H2107 H 0.30024 0.52148 0.20068 0.0
H2108 H 0.47235 0.47562 0.18956 0.0
H2109 H 0.43553 0.53953 0.15843 0.0
H2110 H 0.32282 0.59618 0.3096 0.0
H2111 H 0.33276 0.61264 0.23143 0.0
O2112 O 0.98961 0.05049 0.02643 0.0
Zn2113 Zn 0.98997 0.01599 0.0126 0.0
O2114 O 0.97101 -0.00653 0.03364 0.0
Zn2115 Zn 0.99257 0.96664 0.04549 0.0
Zn2116 Zn 0.95631 0.0114 0.06156 0.0
Zn2117 Zn 0.94455 0.97975 0.01388 0.0
O2118 O 0.98245 0.9333 0.0309 0.0
O2119 O 0.94955 0.94367 0.00847 0.0
O2120 O 0.02521 0.00602 0.01121 0.0
O2121 O 0.02834 0.97276 0.03534 0.0
O2122 O -0.00616 0.96642 0.08285 0.0
O2123 O 0.97273 0.00024 0.09297 0.0
O2124 O 0.91886 0.00624 0.06437 0.0
O2125 O 0.97769 0.01683 0.97744 0.0
O2126 O 0.91192 0.98492 0.02953 0.0
O2127 O 0.94308 -0.00561 0.98008 0.0
C2128 C 0.97827 0.06055 0.04455 0.0
C2129 C 0.96494 0.9275 0.01589 0.0
C2130 C 0.98659 0.98215 0.09901 0.0
C2131 C 0.03807 0.98897 0.02108 0.0
C2132 C 0.90416 -0.00452 0.04913 0.0
C2133 C 0.95809 0.0078 0.96769 0.0
O2134 O 0.96414 0.04796 0.05888 0.0
O2135 O 0.24537 0.72934 0.20029 0.0
Zn2136 Zn 0.23806 0.73202 0.2368 0.0
O2137 O 0.25312 0.7626 0.24964 0.0
Zn2138 Zn 0.2786 0.7551 0.27442 0.0
Zn2139 Zn 0.26702 0.78258 0.22261 0.0
Zn2140 Zn 0.22782 0.78184 0.26533 0.0
O2141 O 0.2705 0.76973 0.30793 0.0
O2142 O 0.23235 0.78376 0.30194 0.0
O2143 O 0.25386 0.70205 0.25248 0.0
O2144 O 0.28217 0.71829 0.27793 0.0
O2145 O 0.31214 0.76789 0.26367 0.0
O2146 O 0.30353 0.7859 0.22762 0.0
O2147 O 0.25377 0.81767 0.22132 0.0
O2148 O 0.20055 0.73091 0.24191 0.0
O2149 O 0.22897 0.81675 0.25422 0.0
O2150 O 0.19432 0.76836 0.25809 0.0
C2151 C 0.25508 0.74365 0.18406 0.0
C2152 C 0.25073 0.77967 0.31617 0.0
C2153 C 0.31903 0.7797 0.24433 0.0
C2154 C 0.27141 0.6995 0.26821 0.0
C2155 C 0.2394 0.82852 0.2366 0.0
C2156 C 0.18603 0.74792 0.24951 0.0
O2157 O 0.26299 0.76528 0.18975 0.0
O2158 O 0.50251 0.95446 0.53599 0.0
Zn2159 Zn 0.50003 0.98496 0.51518 0.0
O2160 O 0.51387 0.01262 0.53362 0.0
Zn2161 Zn 0.48798 0.0363 0.54226 0.0
Zn2162 Zn 0.53233 0.00136 0.56285 0.0
Zn2163 Zn 0.53641 0.02889 0.51197 0.0
O2164 O 0.49185 0.06911 0.52405 0.0
O2165 O 0.52142 0.05879 0.49719 0.0
O2166 O 0.46402 0.99017 0.50863 0.0
O2167 O 0.4544 0.0226 0.53234 0.0
O2168 O 0.48703 0.04108 0.57914 0.0
O2169 O 0.51576 0.01525 0.5933 0.0
O2170 O 0.5683 0.01439 0.56318 0.0
O2171 O 0.51737 0.97875 0.48253 0.0
O2172 O 0.56623 0.03938 0.53029 0.0
O2173 O 0.54686 0.00764 0.48396 0.0
C2174 C 0.51503 0.94827 0.55509 0.0
C2175 C 0.50495 0.07371 0.50484 0.0
C2176 C 0.49849 0.03088 0.59715 0.0
C2177 C 0.44812 0.00503 0.51769 0.0
C2178 C 0.57748 0.03145 0.54943 0.0
C2179 C 0.53669 0.98904 0.47345 0.0
O2180 O 0.52914 0.96382 0.56638 0.0
O2181 O 0.23957 0.23629 0.82096 0.0
Zn2182 Zn 0.25086 0.25934 0.79326 0.0
O2183 O 0.24082 0.24625 0.7607 0.0
Zn2184 Zn 0.26931 0.23784 0.7397 0.0
Zn2185 Zn 0.21918 0.21735 0.76507 0.0
Zn2186 Zn 0.22254 0.27143 0.74375 0.0
O2187 O 0.268 0.25369 0.70511 0.0
O2188 O 0.23414 0.27633 0.70921 0.0
O2189 O 0.28828 0.26005 0.79484 0.0
O2190 O 0.30102 0.24627 0.75794 0.0
O2191 O 0.27012 0.20096 0.73459 0.0
O2192 O 0.23404 0.18731 0.74938 0.0
O2193 O 0.18474 0.2226 0.75166 0.0
O2194 O 0.23699 0.29412 0.79944 0.0
O2195 O 0.18688 0.26228 0.74089 0.0
O2196 O 0.22392 0.30352 0.76135 0.0
C2197 C 0.22575 0.21693 0.82106 0.0
C2198 C 0.25195 0.26846 0.69598 0.0
C2199 C 0.2548 0.18335 0.73883 0.0
C2200 C 0.30568 0.25418 0.77986 0.0
C2201 C 0.17455 0.24226 0.7436 0.0
C2202 C 0.22839 0.3096 0.78373 0.0
O2203 O 0.2164 0.20843 0.80103 0.0
O2204 O 0.01002 0.00402 0.44434 0.0
Zn2205 Zn 0.98848 -0.00651 0.47308 0.0
O2206 O 0.00483 0.00275 0.50438 0.0
Zn2207 Zn 0.0155 0.97341 0.52265 0.0
Zn2208 Zn 0.03337 0.02459 0.49813 0.0
Zn2209 Zn 0.98136 0.02023 0.52455 0.0
O2210 O 7e-05 0.9711 0.55675 0.0
O2211 O 0.97335 0.00235 0.55568 0.0
O2212 O 0.98617 0.95631 0.47017 0.0
O2213 O 0.00733 0.94272 0.50291 0.0
O2214 O 0.0523 0.9739 0.52773 0.0
O2215 O 0.0647 0.00999 0.51194 0.0
O2216 O 0.02916 0.05878 0.51266 0.0
O2217 O 0.9544 0.00958 0.46905 0.0
O2218 O -0.00561 0.05336 0.53408 0.0
O2219 O 0.95035 0.02716 0.50627 0.0
C2220 C 0.02931 0.01776 0.44262 0.0
C2221 C 0.9828 0.98376 0.5666 0.0
C2222 C 0.06938 0.98962 0.52292 0.0
C2223 C -0.00452 0.93859 0.48277 0.0
C2224 C 0.01276 0.06681 0.52764 0.0
C2225 C 0.94208 0.0224 0.48466 0.0
O2226 O 0.03945 0.02751 0.4617 0.0
O2227 O 0.28607 0.73567 0.74913 0.0
Zn2228 Zn 0.25262 0.75015 0.75591 0.0
O2229 O 0.22903 0.7386 0.73092 0.0
Zn2230 Zn 0.21645 0.76697 0.71287 0.0
Zn2231 Zn 0.24427 0.71435 0.70878 0.0
Zn2232 Zn 0.20114 0.72305 0.74666 0.0
O2233 O 0.18225 0.77751 0.72415 0.0
O2234 O 0.17166 0.7449 0.74715 0.0
O2235 O 0.25884 0.78696 0.75333 0.0
O2236 O 0.23839 0.79644 0.71876 0.0
O2237 O 0.21804 0.76033 0.67645 0.0
O2238 O 0.24287 0.72748 0.67367 0.0
O2239 O 0.2268 0.68079 0.71064 0.0
O2240 O 0.24226 0.73962 0.7904 0.0
O2241 O 0.19244 0.69074 0.73121 0.0
O2242 O 0.20918 0.71605 0.782 0.0
C2243 C 0.2946 0.72039 0.73326 0.0
C2244 C 0.1668 0.76598 0.73788 0.0
C2245 C 0.23097 0.74526 0.66363 0.0
C2246 C 0.25332 0.8023 0.73619 0.0
C2247 C 0.20526 0.67527 0.71892 0.0
C2248 C 0.22518 0.72458 0.79725 0.0
O2249 O 0.28061 0.71036 0.7169 0.0
O2250 O 0.51949 0.00301 0.06762 0.0
Zn2251 Zn 0.51911 0.0065 0.03046 0.0
O2252 O 0.48746 -0.00585 0.01784 0.0
Zn2253 Zn 0.4935 0.97074 0.99065 0.0
Zn2254 Zn 0.46742 0.97877 0.04393 0.0
Zn2255 Zn 0.46901 0.02191 0.00591 0.0
O2256 O 0.47696 0.98168 0.95877 0.0
O2257 O 0.45713 0.01542 0.97157 0.0
O2258 O 0.54662 0.98492 0.01797 0.0
O2259 O 0.53011 0.96354 0.98667 0.0
O2260 O 0.47895 0.93743 -0.00089 0.0
O2261 O 0.46229 0.94284 0.03649 0.0
O2262 O 0.43334 -0.00595 0.04734 0.0
O2263 O 0.52626 0.04239 0.02029 0.0
O2264 O 0.43862 0.02837 0.02528 0.0
O2265 O 0.48907 0.05255 0.00565 0.0
C2266 C 0.50553 0.99196 0.08334 0.0
C2267 C 0.4618 -0.00064 0.95492 0.0
C2268 C 0.46735 0.92905 0.01796 0.0
C2269 C 0.54868 0.96924 0.00033 0.0
C2270 C 0.42561 0.01499 0.03973 0.0
C2271 C 0.5113 0.05827 0.01126 0.0
O2272 O 0.48525 0.9815 0.07671 0.0
O2273 O 0.20755 0.28536 0.23725 0.0
Zn2274 Zn 0.23935 0.27188 0.25088 0.0
O2275 O 0.26645 0.27648 0.22719 0.0
Zn2276 Zn 0.2815 0.2444 0.21944 0.0
Zn2277 Zn 0.25451 0.2927 0.19674 0.0
Zn2278 Zn 0.29114 0.29726 0.2426 0.0
O2279 O 0.31709 0.24161 0.23132 0.0
O2280 O 0.32299 0.27971 0.24602 0.0
O2281 O 0.23215 0.2358 0.25575 0.0
O2282 O 0.26187 0.21667 0.23475 0.0
O2283 O 0.27893 0.23762 0.18294 0.0
O2284 O 0.25817 0.26952 0.16736 0.0
O2285 O 0.272 0.32582 0.18994 0.0
O2286 O 0.24671 0.2873 0.28428 0.0
O2287 O 0.29781 0.3268 0.22229 0.0
O2288 O 0.28172 0.30804 0.27701 0.0
C2289 C 0.20159 0.29447 0.21624 0.0
C2290 C 0.33096 0.25806 0.24137 0.0
C2291 C 0.26825 0.24833 0.16475 0.0
C2292 C 0.2424 0.21599 0.24814 0.0
C2293 C 0.28945 0.33618 0.20234 0.0
C2294 C 0.26406 0.30184 0.29149 0.0
O2295 O 0.21786 0.29831 0.19946 0.0
O2296 O 0.50175 0.49478 0.94773 0.0
Zn2297 Zn 0.4783 0.48187 0.97356 0.0
O2298 O 0.48968 0.49209 0.00602 0.0
Zn2299 Zn 0.5021 0.4646 0.02518 0.0
Zn2300 Zn 0.51547 0.51727 0.00251 0.0
Zn2301 Zn 0.46199 0.5045 0.02436 0.0
O2302 O 0.49092 0.46774 0.06116 0.0
O2303 O 0.45418 0.48471 0.05447 0.0
O2304 O 0.47794 0.44467 0.97195 0.0
O2305 O 0.49216 0.43222 0.00885 0.0
O2306 O 0.53908 0.46522 0.02422 0.0
O2307 O 0.54883 0.50336 0.01197 0.0
O2308 O 0.50774 0.54753 0.02292 0.0
O2309 O 0.44434 0.49575 0.96552 0.0
O2310 O 0.47022 0.53813 0.03771 0.0
O2311 O 0.43207 0.50768 0.00315 0.0
C2312 C 0.51602 0.51374 0.94719 0.0
C2313 C 0.46988 0.47501 0.06915 0.0
C2314 C 0.55523 0.48173 0.01893 0.0
C2315 C 0.48367 0.42744 0.98714 0.0
C2316 C 0.48877 0.5528 0.03603 0.0
C2317 C 0.42794 0.50454 0.98007 0.0
O2318 O 0.52033 0.52646 0.96674 0.0
O2319 O 0.79768 0.22309 0.23378 0.0
Zn2320 Zn 0.76632 0.23818 0.24655 0.0
O2321 O 0.73844 0.2292 0.22507 0.0
Zn2322 Zn 0.72066 0.25908 0.2154 0.0
Zn2323 Zn 0.7498 0.21116 0.19541 0.0
Zn2324 Zn 0.71615 0.20874 0.24405 0.0
O2325 O 0.68653 0.26158 0.23051 0.0
O2326 O 0.68278 0.2238 0.24654 0.0
O2327 O 0.77279 0.2748 0.24489 0.0
O2328 O 0.74029 0.28939 0.22429 0.0
O2329 O 0.71798 0.26105 0.17855 0.0
O2330 O 0.74166 0.23069 0.16408 0.0
O2331 O 0.73459 0.17628 0.19361 0.0
O2332 O 0.76096 0.22804 0.28244 0.0
O2333 O 0.7119 0.17612 0.22827 0.0
O2334 O 0.72765 0.20374 0.27913 0.0
C2335 C 0.80348 0.21292 0.21322 0.0
C2336 C 0.67371 0.24488 0.24138 0.0
C2337 C 0.72829 0.24984 0.16048 0.0
C2338 C 0.76099 0.29279 0.23527 0.0
C2339 C 0.71972 0.16557 0.20871 0.0
C2340 C 0.74496 0.21343 0.29212 0.0
O2341 O 0.78713 0.20808 0.19667 0.0
O2342 O 0.026 0.52043 0.55322 0.0
Zn2343 Zn 0.02755 0.51804 0.51603 0.0
O2344 O -0.00487 0.50821 0.50291 0.0
Zn2345 Zn -0.00266 0.47576 0.48709 0.0
Zn2346 Zn 0.97065 0.50766 0.52981 0.0
Zn2347 Zn 0.98466 0.53131 0.47788 0.0
O2348 O 0.98175 0.47478 0.45316 0.0
O2349 O 0.97833 0.51497 0.44527 0.0
O2350 O 0.05301 0.49195 0.50811 0.0
O2351 O 0.03269 0.46423 0.48503 0.0
O2352 O 0.98018 0.45084 0.5081 0.0
O2353 O 0.96028 0.47263 0.53689 0.0
O2354 O 0.94035 0.52812 0.52163 0.0
O2355 O 0.03951 0.55075 0.50151 0.0
O2356 O 0.95185 0.54643 0.48643 0.0
O2357 O 0.01021 0.55742 0.47304 0.0
C2358 C 0.00845 0.52054 0.56913 0.0
C2359 C 0.97622 0.49244 0.43853 0.0
C2360 C 0.96625 0.452 0.52713 0.0
C2361 C 0.05262 0.47202 0.49528 0.0
C2362 C 0.93592 0.54275 0.50354 0.0
C2363 C 0.03058 0.56334 0.48359 0.0
O2364 O 0.98586 0.51801 0.56244 0.0
O2365 O 0.74019 0.74241 0.31359 0.0
Zn2366 Zn 0.76196 0.76107 0.28989 0.0
O2367 O 0.75594 0.7503 0.25581 0.0
Zn2368 Zn 0.7859 0.73658 0.24114 0.0
Zn2369 Zn 0.72949 0.72538 0.25541 0.0
Zn2370 Zn 0.74635 0.77844 0.23607 0.0
O2371 O 0.79233 0.74989 0.20629 0.0
O2372 O 0.76841 0.78332 0.20705 0.0
O2373 O 0.79734 0.75431 0.29932 0.0
O2374 O 0.81519 0.74219 0.26399 0.0
O2375 O 0.78241 0.69974 0.23908 0.0
O2376 O 0.74263 0.69185 0.24653 0.0
O2377 O 0.70198 0.73492 0.23246 0.0
O2378 O 0.75444 0.79739 0.29473 0.0
O2379 O 0.71243 0.7733 0.2213 0.0
O2380 O 0.746 0.80937 0.25607 0.0
C2381 C 0.72198 0.72748 0.31074 0.0
C2382 C 0.78444 0.76982 0.19635 0.0
C2383 C 0.76444 0.68444 0.24148 0.0
C2384 C 0.81641 0.74753 0.28711 0.0
C2385 C 0.69747 0.75489 0.22071 0.0
C2386 C 0.74898 0.81418 0.27904 0.0
O2387 O 0.71514 0.72021 0.28927 0.0
O2388 O 0.73937 0.22318 0.71024 0.0
Zn2389 Zn 0.73493 0.22353 0.74748 0.0
O2390 O 0.74631 0.2552 0.7607 0.0
Zn2391 Zn 0.77657 0.25121 0.77989 0.0
Zn2392 Zn 0.75188 0.27807 0.73325 0.0
Zn2393 Zn 0.72197 0.26883 0.78258 0.0
O2394 O 0.77533 0.27016 0.81239 0.0
O2395 O 0.73453 0.27323 0.81744 0.0
O2396 O 0.75609 0.19613 0.76102 0.0
O2397 O 0.78302 0.21514 0.78606 0.0
O2398 O 0.80571 0.26208 0.75945 0.0
O2399 O 0.788 0.28325 0.72892 0.0
O2400 O 0.73546 0.3111 0.73838 0.0
O2401 O 0.69867 0.2171 0.75585 0.0
O2402 O 0.71317 0.30297 0.77214 0.0
O2403 O 0.69102 0.24888 0.78131 0.0
C2404 C 0.74131 0.24021 0.69387 0.0
C2405 C 0.7566 0.27594 0.82566 0.0
C2406 C 0.80722 0.27461 0.73945 0.0
C2407 C 0.77429 0.1954 0.77622 0.0
C2408 C 0.71996 0.3177 0.75496 0.0
C2409 C 0.68408 0.22937 0.76982 0.0
O2410 O 0.74282 0.26298 0.70016 0.0
O2411 O 0.69954 0.77521 0.74643 0.0
Zn2412 Zn 0.73178 0.7609 0.75814 0.0
O2413 O 0.75896 0.76991 0.73566 0.0
Zn2414 Zn 0.77546 0.74031 0.72357 0.0
Zn2415 Zn 0.74641 0.78912 0.70756 0.0
Zn2416 Zn 0.78344 0.78869 0.7536 0.0
O2417 O 0.80899 0.73426 0.73879 0.0
O2418 O 0.81525 0.77062 0.75734 0.0
O2419 O 0.72522 0.72419 0.75642 0.0
O2420 O 0.75447 0.71088 0.73072 0.0
O2421 O 0.77736 0.73997 0.68679 0.0
O2422 O 0.75159 0.77006 0.67549 0.0
O2423 O 0.76232 0.8234 0.70609 0.0
O2424 O 0.73843 0.77194 0.79359 0.0
O2425 O 0.78962 0.821 0.73723 0.0
O2426 O 0.77285 0.79441 0.78854 0.0
C2427 C 0.69326 0.78624 0.72648 0.0
C2428 C 0.82251 0.74904 0.75141 0.0
C2429 C 0.76473 0.75116 0.6703 0.0
C2430 C 0.7352 0.70693 0.74377 0.0
C2431 C 0.77983 0.8327 0.71922 0.0
C2432 C 0.75565 0.78582 0.80233 0.0
O2433 O 0.70942 0.79253 0.71033 0.0
O2434 O 0.49081 0.54538 0.52716 0.0
Zn2435 Zn 0.49581 0.51117 0.51292 0.0
O2436 O 0.48303 0.4864 0.53601 0.0
Zn2437 Zn 0.51071 0.46651 0.54812 0.0
Zn2438 Zn 0.46508 0.50207 0.56348 0.0
Zn2439 Zn 0.4601 0.46495 0.51887 0.0
O2440 O 0.51074 0.43224 0.53273 0.0
O2441 O 0.4738 0.43128 0.5142 0.0
O2442 O 0.53273 0.50798 0.50873 0.0
O2443 O 0.54352 0.48223 0.53909 0.0
O2444 O 0.50969 0.46444 0.58529 0.0
O2445 O 0.48068 0.49169 0.59573 0.0
O2446 O 0.42868 0.49167 0.56546 0.0
O2447 O 0.47925 0.50869 0.47922 0.0
O2448 O 0.42876 0.4613 0.53743 0.0
O2449 O 0.45235 0.47777 0.48492 0.0
C2450 C 0.47978 0.5537 0.54639 0.0
C2451 C 0.49405 0.42094 0.5202 0.0
C2452 C 0.49748 0.47626 0.60176 0.0
C2453 C 0.54928 0.49717 0.52166 0.0
C2454 C 0.4181 0.4734 0.55461 0.0
C2455 C 0.46177 0.49467 0.47128 0.0
O2456 O 0.46846 0.53927 0.56145 0.0
O2457 O 0.01349 0.46418 0.03026 0.0
Zn2458 Zn 0.00358 0.49588 0.01459 0.0
O2459 O 0.01591 0.52397 0.03344 0.0
Zn2460 Zn 0.98844 0.54676 0.04014 0.0
Zn2461 Zn 0.03191 0.51259 0.06421 0.0
Zn2462 Zn 0.04 0.54029 0.01297 0.0
O2463 O 0.99268 0.57943 0.02138 0.0
O2464 O 0.03133 0.57557 0.00754 0.0
O2465 O 0.96709 0.49476 0.01636 0.0
O2466 O 0.9549 0.53039 0.03278 0.0
O2467 O 0.98686 0.55326 0.07682 0.0
O2468 O 0.01435 0.52758 0.09352 0.0
O2469 O 0.06888 0.52153 0.06545 0.0
O2470 O 0.01382 0.49561 0.97875 0.0
O2471 O 0.07326 0.53846 0.02797 0.0
O2472 O 0.04231 0.52546 0.97914 0.0
C2473 C 0.02147 0.45847 0.05175 0.0
C2474 C 0.01175 0.58836 0.01032 0.0
C2475 C -0.00287 0.54358 0.09582 0.0
C2476 C 0.94998 0.50884 0.02414 0.0
C2477 C 0.08238 0.53117 0.04847 0.0
C2478 C 0.03035 0.50848 0.96776 0.0
O2479 O 0.02822 0.47513 0.06732 0.0
C2480 C 0.01213 0.12241 0.0495 0.0
C2481 C -0.00434 0.13677 0.0636 0.0
C2482 C 0.00594 0.09799 0.04269 0.0
C2483 C 0.98327 0.08701 0.05021 0.0
H2484 H 0.02992 0.13007 0.0438 0.0
H2485 H 0.01934 0.08744 0.03208 0.0
S2486 S 0.93392 0.11719 0.08755 0.0
N2487 N 0.95584 0.13865 0.08484 0.0
N2488 N 0.94423 0.09268 0.07231 0.0
C2489 C 0.96662 0.10135 0.06424 0.0
C2490 C 0.97281 0.12626 0.07087 0.0
C2491 C 0.1268 0.72051 0.2741 0.0
C2492 C 0.11103 0.74126 0.27331 0.0
C2493 C 0.15059 0.72153 0.26344 0.0
C2494 C 0.15915 0.74338 0.25189 0.0
H2495 H 0.12169 0.70432 0.28496 0.0
H2496 H 0.16313 0.70616 0.26649 0.0
S2497 S 0.12261 0.8002 0.23965 0.0
N2498 N 0.10372 0.78221 0.25596 0.0
N2499 N 0.14855 0.7843 0.23622 0.0
C2500 C 0.14243 0.76299 0.24841 0.0
C2501 C 0.11827 0.7619 0.25909 0.0
C2502 C 0.48438 0.88618 0.5692 0.0
C2503 C 0.50162 0.87462 0.58488 0.0
C2504 C 0.48918 0.90982 0.55941 0.0
C2505 C 0.51125 0.92294 0.56526 0.0
H2506 H 0.46722 0.87674 0.56419 0.0
H2507 H 0.47526 0.91797 0.54739 0.0
S2508 S 0.56191 0.9008 0.60638 0.0
N2509 N 0.54132 0.87788 0.60634 0.0
N2510 N 0.55028 0.92256 0.5882 0.0
C2511 C 0.52849 0.91164 0.58126 0.0
C2512 C 0.5237 0.8874 0.59098 0.0
C2513 C 0.36048 0.26209 0.82369 0.0
C2514 C 0.37847 0.24644 0.81324 0.0
C2515 C 0.33741 0.26545 0.81211 0.0
C2516 C 0.33156 0.25349 0.78948 0.0
H2517 H 0.36392 0.27112 0.84142 0.0
H2518 H 0.32381 0.277 0.82136 0.0
S2519 S 0.37367 0.21255 0.75332 0.0
N2520 N 0.38994 0.22037 0.77825 0.0
N2521 N 0.34665 0.22664 0.75624 0.0
C2522 C 0.35 0.23875 0.77822 0.0
C2523 C 0.3734 0.23517 0.7902 0.0
C2524 C 0.99038 0.88693 0.43502 0.0
C2525 C 0.00231 0.86702 0.44682 0.0
C2526 C 0.98703 0.90959 0.4473 0.0
C2527 C -0.00453 0.91322 0.4719 0.0
H2528 H 0.98439 0.88528 0.41581 0.0
H2529 H 0.97861 0.92464 0.437 0.0
S2530 S 0.02471 0.86538 0.51207 0.0
N2531 N 0.02024 0.85125 0.48512 0.0
N2532 N 0.0141 0.89385 0.50839 0.0
C2533 C 0.0062 0.89288 0.48436 0.0
C2534 C 0.00965 0.86982 0.47176 0.0
C2535 C 0.36231 0.73878 0.73109 0.0
C2536 C 0.37307 0.71929 0.71747 0.0
C2537 C 0.33723 0.738 0.73788 0.0
C2538 C 0.32185 0.71785 0.73103 0.0
H2539 H 0.37284 0.75554 0.73511 0.0
H2540 H 0.3295 0.75417 0.747 0.0
S2541 S 0.34215 0.65987 0.70004 0.0
N2542 N 0.36748 0.67739 0.70119 0.0
N2543 N 0.31993 0.67639 0.71313 0.0
C2544 C 0.33278 0.69736 0.71922 0.0
C2545 C 0.35849 0.69797 0.71265 0.0
C2546 C 0.50455 0.12522 -0.00387 0.0
C2547 C 0.52166 0.12812 0.97659 0.0
C2548 C 0.50345 0.1032 0.0098 0.0
C2549 C 0.51951 0.08341 0.00448 0.0
H2550 H 0.49073 0.13936 -0.00035 0.0
H2551 H 0.48854 0.10081 0.02316 0.0
S2552 S 0.57007 0.08316 0.95778 0.0
N2553 N 0.55697 0.11065 0.95458 0.0
N2554 N 0.55494 0.06911 0.98059 0.0
C2555 C 0.53843 0.08705 0.98688 0.0
C2556 C 0.53949 0.10951 0.97279 0.0
C2557 C 0.13174 0.28678 0.22122 0.0
C2558 C 0.12394 0.28923 0.19641 0.0
C2559 C 0.1567 0.29038 0.22784 0.0
C2560 C 0.17483 0.2964 0.20983 0.0
H2561 H 0.11856 0.28139 0.23551 0.0
H2562 H 0.16195 0.28731 0.24706 0.0
S2563 S 0.16342 0.3062 0.14229 0.0
N2564 N 0.13591 0.29891 0.15384 0.0
N2565 N 0.18267 0.30622 0.16622 0.0
C2566 C 0.16693 0.30022 0.18511 0.0
C2567 C 0.14154 0.29643 0.1784 0.0
C2568 C 0.03555 0.97003 0.14762 0.0
C2569 C 0.03383 0.99123 0.16276 0.0
C2570 C 0.01847 0.96578 0.12841 0.0
C2571 C -0.0009 0.98263 0.12363 0.0
H2572 H 0.0511 0.95749 0.1496 0.0
H2573 H 0.02161 0.95009 0.11618 0.0
S2574 S 0.9836 0.03793 0.16202 0.0
N2575 N 0.00926 0.02694 0.17468 0.0
N2576 N 0.97688 0.01907 0.13865 0.0
C2577 C -0.00424 0.0025 0.14043 0.0
C2578 C 0.01329 0.00686 0.15989 0.0
C2579 C 0.2732 0.80718 0.37704 0.0
C2580 C 0.25131 0.81693 0.38731 0.0
C2581 C 0.27264 0.79376 0.35473 0.0
C2582 C 0.25018 0.7898 0.34178 0.0
H2583 H 0.29095 0.81029 0.38614 0.0
H2584 H 0.29011 0.78739 0.3471 0.0
S2585 S 0.18742 0.81001 0.36205 0.0
N2586 N 0.20644 0.82074 0.38375 0.0
N2587 N 0.2052 0.7952 0.34197 0.0
C2588 C 0.22798 0.7985 0.35253 0.0
C2589 C 0.22859 0.81216 0.37525 0.0
C2590 C 0.48545 0.01603 0.66456 0.0
C2591 C 0.46261 0.02787 0.6686 0.0
C2592 C 0.49828 0.01896 0.64209 0.0
C2593 C 0.48864 0.03375 0.62277 0.0
H2594 H 0.49283 0.00339 0.67836 0.0
H2595 H 0.51502 0.00823 0.63934 0.0
S2596 S 0.43141 0.07192 0.62575 0.0
N2597 N 0.4322 0.05711 0.6526 0.0
N2598 N 0.45664 0.06325 0.61072 0.0
C2599 C 0.46705 0.04762 0.62759 0.0
C2600 C 0.45391 0.04448 0.65041 0.0
C2601 C 0.23913 0.18997 0.88491 0.0
C2602 C 0.2216 0.17055 0.88688 0.0
C2603 C 0.23957 0.20567 0.86411 0.0
C2604 C 0.22264 0.20239 0.84434 0.0
H2605 H 0.25276 0.19294 0.8995 0.0
H2606 H 0.25386 0.21993 0.86319 0.0
S2607 S 0.17228 0.15481 0.84109 0.0
N2608 N 0.18641 0.14931 0.8678 0.0
N2609 N 0.187 0.17883 0.82876 0.0
C2610 C 0.20452 0.18344 0.84648 0.0
C2611 C 0.20404 0.16754 0.86772 0.0
C2612 C 0.05591 -2e-05 0.38012 0.0
C2613 C 0.07172 0.02013 0.37471 0.0
C2614 C 0.04119 -3e-05 0.40157 0.0
C2615 C 0.04215 0.01993 0.4185 0.0
H2616 H 0.05498 0.98413 0.36769 0.0
H2617 H 0.0297 0.9838 0.40537 0.0
S2618 S 0.08002 0.07746 0.41214 0.0
N2619 N 0.08698 0.06084 0.38727 0.0
N2620 N 0.05955 0.06075 0.4279 0.0
C2621 C 0.05757 0.0404 0.413 0.0
C2622 C 0.07231 0.04052 0.391 0.0
C2623 C 0.22584 0.78172 0.60496 0.0
C2624 C 0.25096 0.78434 0.59816 0.0
C2625 C 0.21881 0.7662 0.62458 0.0
C2626 C 0.23666 0.75268 0.63789 0.0
H2627 H 0.21176 0.7931 0.59624 0.0
H2628 H 0.19962 0.76643 0.63071 0.0
S2629 S 0.30422 0.74968 0.62425 0.0
N2630 N 0.29321 0.76966 0.60378 0.0
N2631 N 0.27998 0.74003 0.64054 0.0
C2632 C 0.26139 0.75283 0.62929 0.0
C2633 C 0.26859 0.76887 0.60941 0.0
C2634 C 0.44354 0.9897 0.88756 0.0
C2635 C 0.41867 -0.00224 0.88706 0.0
C2636 C 0.45758 0.9906 0.90949 0.0
C2637 C 0.44738 -1e-05 0.93159 0.0
H2638 H 0.45223 0.98256 0.87085 0.0
H2639 H 0.47653 0.9839 0.90914 0.0
S2640 S 0.38289 0.02265 0.94047 0.0
N2641 N 0.38422 0.01465 0.91082 0.0
N2642 N 0.41082 0.01715 0.95188 0.0
C2643 C 0.42266 0.00847 0.9313 0.0
C2644 C 0.40826 0.00719 0.90907 0.0
C2645 C 0.26922 0.19411 0.11995 0.0
C2646 C 0.25102 0.20032 0.10225 0.0
C2647 C 0.27578 0.2105 0.13907 0.0
C2648 C 0.26431 0.23381 0.14151 0.0
H2649 H 0.27788 0.176 0.11964 0.0
H2650 H 0.28932 0.20432 0.15263 0.0
S2651 S 0.21732 0.26008 0.09829 0.0
N2652 N 0.22317 0.23222 0.0869 0.0
N2653 N 0.23504 0.26302 0.12326 0.0
C2654 C 0.24688 0.24079 0.1232 0.0
C2655 C 0.24025 0.22401 0.10358 0.0
C2656 C 0.10512 -0.00234 0.03877 0.0
C2657 C 0.11503 0.00854 0.01708 0.0
C2658 C 0.08059 0.98867 0.03931 0.0
C2659 C 0.06521 0.99064 0.01825 0.0
H2660 H 0.11595 -0.00261 0.0558 0.0
H2661 H 0.07305 0.98214 0.05684 0.0
S2662 S 0.08322 0.01416 0.956 0.0
N2663 N 0.10831 0.01816 0.97332 0.0
N2664 N 0.06232 0.00117 0.97442 0.0
C2665 C 0.07555 -0.00059 -0.00407 0.0
C2666 C 0.10047 0.00841 -0.00469 0.0
C2667 C 0.62541 0.48697 0.01246 0.0
C2668 C 0.63256 0.46202 0.01036 0.0
C2669 C 0.60038 0.49325 0.01595 0.0
C2670 C 0.58181 0.47474 0.01792 0.0
H2671 H 0.63916 0.50169 0.01089 0.0
H2672 H 0.59556 0.51273 0.01683 0.0
S2673 S 0.59179 0.40647 0.01528 0.0
N2674 N 0.61976 0.41872 0.01163 0.0
N2675 N 0.57281 0.43023 0.01838 0.0
C2676 C 0.58905 0.44964 0.01662 0.0
C2677 C 0.61441 0.44336 0.01276 0.0
C2678 C 0.76763 0.36251 0.22828 0.0
C2679 C 0.79327 0.36646 0.23151 0.0
C2680 C 0.75734 0.33864 0.22983 0.0
C2681 C 0.77228 0.3179 0.23501 0.0
H2682 H 0.75545 0.37803 0.22458 0.0
H2683 H 0.73748 0.33648 0.22706 0.0
S2684 S 0.84066 0.31871 0.24521 0.0
N2685 N 0.83344 0.34806 0.24028 0.0
N2686 N 0.81423 0.30301 0.24316 0.0
C2687 C 0.79803 0.32168 0.23832 0.0
C2688 C 0.8085 0.346 0.23651 0.0
C2689 C 0.87171 0.56648 0.52021 0.0
C2690 C 0.86139 0.57199 0.49682 0.0
C2691 C 0.896 0.55739 0.52231 0.0
C2692 C 0.91095 0.55397 0.50112 0.0
H2693 H 0.86072 0.56871 0.53696 0.0
H2694 H 0.90305 0.55292 0.54065 0.0
S2695 S 0.8926 0.56668 0.43563 0.0
N2696 N 0.86786 0.57405 0.45218 0.0
N2697 N 0.91361 0.5573 0.45592 0.0
C2698 C 0.90093 0.56001 0.47763 0.0
C2699 C 0.8761 0.5689 0.47553 0.0
C2700 C 0.23108 0.14656 0.24944 0.0
C2701 C 0.20513 0.14482 0.25213 0.0
C2702 C 0.24319 0.16967 0.24934 0.0
C2703 C 0.22978 0.19185 0.25209 0.0
H2704 H 0.24209 0.12995 0.24707 0.0
H2705 H 0.26314 0.17015 0.24656 0.0
S2706 S 0.16136 0.19728 0.25966 0.0
N2707 N 0.16634 0.16713 0.25751 0.0
N2708 N 0.18906 0.21056 0.25787 0.0
C2709 C 0.20386 0.1903 0.25556 0.0
C2710 C 0.19153 0.16678 0.25543 0.0
C2711 C 0.38165 0.98864 0.53214 0.0
C2712 C 0.37377 0.97728 0.5099 0.0
C2713 C 0.40519 -0.00021 0.53389 0.0
C2714 C 0.42167 -0.00068 0.51361 0.0
H2715 H 0.36999 0.98784 0.54857 0.0
H2716 H 0.41117 0.00713 0.55173 0.0
S2717 S 0.40865 0.97428 0.45059 0.0
N2718 N 0.38309 0.96832 0.4666 0.0
N2719 N 0.42767 0.98878 0.47003 0.0
C2720 C 0.41335 0.98942 0.49085 0.0
C2721 C 0.38926 0.9785 0.48896 0.0
C2722 C 0.80143 0.62535 0.24658 0.0
C2723 C 0.78312 0.60721 0.25091 0.0
C2724 C 0.79502 0.65 0.24211 0.0
C2725 C 0.77 0.65754 0.24211 0.0
H2726 H 0.82095 0.62045 0.2468 0.0
H2727 H 0.80998 0.66333 0.2395 0.0
S2728 S 0.71497 0.61633 0.25109 0.0
N2729 N 0.73906 0.59763 0.25366 0.0
N2730 N 0.72665 0.64426 0.24561 0.0
C2731 C 0.75139 0.63926 0.2456 0.0
C2732 C 0.75803 0.614 0.24993 0.0
C2733 C 0.7182 0.38766 0.74846 0.0
C2734 C 0.69599 0.39379 0.76074 0.0
C2735 C 0.72549 0.36286 0.7459 0.0
C2736 C 0.71083 0.34344 0.75561 0.0
H2737 H 0.73018 0.40215 0.74109 0.0
H2738 H 0.74304 0.35897 0.73686 0.0
S2739 S 0.64969 0.34964 0.78696 0.0
N2740 N 0.65841 0.37845 0.78085 0.0
N2741 N 0.67228 0.33188 0.77646 0.0
C2742 C 0.68825 0.34932 0.76735 0.0
C2743 C 0.6808 0.3745 0.76984 0.0
C2744 C 0.98887 0.86683 0.98995 0.0
C2745 C 0.97171 0.86146 0.97084 0.0
C2746 C 0.98555 0.88714 0.00591 0.0
C2747 C 0.96491 0.90287 0.00338 0.0
H2748 H 0.00549 0.85576 0.99204 0.0
H2749 H 1e-05 0.89126 0.01938 0.0
S2750 S 0.91273 0.89476 0.95852 0.0
N2751 N 0.93221 0.87223 0.95169 0.0
N2752 N 0.92537 0.90969 0.98226 0.0
C2753 C 0.94654 0.89643 0.98568 0.0
C2754 C 0.9501 0.87593 0.96925 0.0
C2755 C 0.87508 0.26477 0.72429 0.0
C2756 C 0.87527 0.26688 0.69827 0.0
C2757 C 0.85319 0.26868 0.73776 0.0
C2758 C 0.83086 0.27478 0.72556 0.0
H2759 H 0.89193 0.26001 0.73423 0.0
H2760 H 0.85363 0.26637 0.75779 0.0
S2761 S 0.82198 0.28117 0.65714 0.0
N2762 N 0.85175 0.27475 0.66059 0.0
N2763 N 0.81046 0.28207 0.68558 0.0
C2764 C 0.83107 0.27716 0.69939 0.0
C2765 C 0.85332 0.27314 0.68581 0.0
C2766 C 0.49911 0.11566 0.44929 0.0
C2767 C 0.50019 0.13939 0.46003 0.0
C2768 C 0.49977 0.09444 0.4642 0.0
C2769 C 0.50098 0.09634 0.49028 0.0
H2770 H 0.49866 0.11353 0.42923 0.0
H2771 H 0.49981 0.07638 0.45525 0.0
S2772 S 0.503 0.15441 0.52727 0.0
N2773 N 0.50189 0.16386 0.49802 0.0
N2774 N 0.5024 0.1237 0.52626 0.0
C2775 C 0.50105 0.11997 0.50128 0.0
C2776 C 0.5009 0.14162 0.48605 0.0
C2777 C 0.63129 0.74311 0.20005 0.0
C2778 C 0.62876 0.7586 0.17916 0.0
C2779 C 0.65361 0.74206 0.21329 0.0
C2780 C 0.67419 0.75668 0.20632 0.0
H2781 H 0.61578 0.73185 0.20643 0.0
H2782 H 0.6546 0.72989 0.22931 0.0
S2783 S 0.67758 0.79956 0.15234 0.0
N2784 N 0.64897 0.78823 0.15149 0.0
N2785 N 0.69094 0.78671 0.1768 0.0
C2786 C 0.67197 0.77235 0.18549 0.0
C2787 C 0.64923 0.77322 0.17182 0.0
C2788 C 0.02662 0.13596 0.53046 0.0
C2789 C 0.01214 0.14345 0.55078 0.0
C2790 C 0.02748 0.11086 0.52348 0.0
C2791 C 0.01393 0.09268 0.53672 0.0
H2792 H 0.03684 0.14961 0.51967 0.0
H2793 H 0.03821 0.10581 0.50721 0.0
S2794 S 0.9757 0.10325 0.59329 0.0
N2795 N 0.98571 0.13115 0.58523 0.0
N2796 N 0.98739 0.08398 0.57251 0.0
C2797 C 0.00027 0.10008 0.55778 0.0
C2798 C -0.00064 0.12551 0.56471 0.0
C2799 C 0.62418 0.2774 0.27819 0.0
C2800 C 0.60756 0.25774 0.28304 0.0
C2801 C 0.64469 0.27389 0.26251 0.0
C2802 C 0.64902 0.25062 0.25144 0.0
H2803 H 0.62226 0.29497 0.28783 0.0
H2804 H 0.65818 0.28882 0.26066 0.0
S2805 S 0.60776 0.19521 0.25419 0.0
N2806 N 0.59434 0.21578 0.27252 0.0
N2807 N 0.63295 0.20906 0.2432 0.0
C2808 C 0.63115 0.23169 0.2543 0.0
C2809 C 0.61037 0.23528 0.27013 0.0
C2810 C 0.48203 0.861 0.0175 0.0
C2811 C 0.46591 0.85183 0.03594 0.0
C2812 C 0.48067 0.88572 0.00966 0.0
C2813 C 0.46339 0.90207 0.02038 0.0
H2814 H 0.49693 0.84951 0.01046 0.0
H2815 H 0.49468 0.89254 -0.00316 0.0
S2816 S 0.41418 0.88577 0.06591 0.0
N2817 N 0.42995 0.85984 0.06207 0.0
N2818 N 0.42738 0.9064 0.04734 0.0
C2819 C 0.44555 0.8924 0.03689 0.0
C2820 C 0.4468 0.86719 0.04469 0.0
C2821 C 0.89021 0.74009 0.7654 0.0
C2822 C 0.88958 0.73482 0.79107 0.0
C2823 C 0.86817 0.74267 0.75173 0.0
C2824 C 0.84503 0.74002 0.76345 0.0
H2825 H 0.90782 0.74358 0.7562 0.0
H2826 H 0.8692 0.74827 0.73239 0.0
S2827 S 0.83328 0.72533 0.82971 0.0
N2828 N 0.8639 0.72606 0.82726 0.0
N2829 N 0.82249 0.73091 0.80149 0.0
C2830 C 0.84415 0.73343 0.78866 0.0
C2831 C 0.86648 0.73074 0.80253 0.0
C2832 C 0.92307 0.01318 0.90726 0.0
C2833 C 0.94208 0.01126 0.88954 0.0
C2834 C 0.92855 0.01289 0.93267 0.0
C2835 C 0.95325 0.01117 0.94104 0.0
H2836 H 0.90381 0.01422 0.90141 0.0
H2837 H 0.91334 0.01365 0.94586 0.0
S2838 S 0.00964 0.00661 0.90165 0.0
N2839 N 0.98635 0.00807 0.8816 0.0
N2840 N -0.00308 0.0081 0.9296 0.0
C2841 C 0.9725 0.01008 0.9234 0.0
C2842 C 0.96683 0.00992 0.89752 0.0
C2843 C 0.75507 0.2005 0.63716 0.0
C2844 C 0.75781 0.218 0.61797 0.0
C2845 C 0.74877 0.20784 0.66133 0.0
C2846 C 0.74514 0.23304 0.66739 0.0
H2847 H 0.75757 0.18089 0.6334 0.0
H2848 H 0.74721 0.19356 0.67544 0.0
S2849 S 0.75026 0.28614 0.62342 0.0
N2850 N 0.75632 0.26147 0.60622 0.0
N2851 N 0.74473 0.27556 0.65174 0.0
C2852 C 0.74769 0.25076 0.64818 0.0
C2853 C 0.75393 0.24316 0.62347 0.0
C2854 C 0.58016 0.9847 0.41887 0.0
C2855 C 0.56433 0.97703 0.39949 0.0
C2856 C 0.57135 0.98692 0.44318 0.0
C2857 C 0.54643 0.98139 0.44903 0.0
H2858 H 0.59917 0.99029 0.41503 0.0
H2859 H 0.58392 -0.00598 0.45732 0.0
S2860 S 0.49838 0.95741 0.4054 0.0
N2861 N 0.52336 0.96146 0.38795 0.0
N2862 N 0.50661 0.9657 0.43388 0.0
C2863 C 0.53083 0.97205 0.43013 0.0
C2864 C 0.53981 0.96996 0.40526 0.0
C2865 C 0.79043 0.80894 0.13918 0.0
C2866 C 0.78499 0.79182 0.12009 0.0
C2867 C 0.79286 0.8012 0.16387 0.0
C2868 C 0.79026 0.77604 0.17034 0.0
H2869 H 0.79107 0.82869 0.13533 0.0
H2870 H 0.79511 0.8152 0.17823 0.0
S2871 S 0.77952 0.72348 0.12692 0.0
N2872 N 0.7798 0.74832 0.10887 0.0
N2873 N 0.78447 0.73371 0.15553 0.0
C2874 C 0.78694 0.75847 0.15124 0.0
C2875 C 0.78416 0.7664 0.12603 0.0
C2876 C 0.98682 0.97921 0.63632 0.0
C2877 C 0.96184 0.98208 0.64327 0.0
C2878 C -0.00657 0.97745 0.61114 0.0
C2879 C 0.97526 0.97912 0.59238 0.0
H2880 H 0.0013 0.97908 0.65036 0.0
H2881 H 0.01296 0.97646 0.6063 0.0
S2882 S 0.90728 0.98526 0.60116 0.0
N2883 N 0.91882 0.98507 0.62966 0.0
N2884 N 0.93136 0.98233 0.58236 0.0
C2885 C 0.95019 0.98093 0.5992 0.0
C2886 C 0.94344 0.9823 0.6247 0.0
C2887 C 0.73664 0.17881 0.35298 0.0
C2888 C 0.746 0.19559 0.37086 0.0
C2889 C 0.7365 0.18476 0.32762 0.0
C2890 C 0.74602 0.2076 0.31902 0.0
H2891 H 0.7297 0.16071 0.35855 0.0
H2892 H 0.72913 0.17118 0.3146 0.0
S2893 S 0.77104 0.2588 0.35821 0.0
N2894 N 0.76365 0.23671 0.37824 0.0
N2895 N 0.7641 0.24755 0.33042 0.0
C2896 C 0.75532 0.22465 0.33663 0.0
C2897 C 0.75514 0.21873 0.36256 0.0
C2898 C 0.54618 -0.00086 0.14047 0.0
C2899 C 0.53385 0.98477 0.15853 0.0
C2900 C 0.53651 0.00175 0.11652 0.0
C2901 C 0.51409 0.99003 0.10952 0.0
H2902 H 0.56377 0.00814 0.14473 0.0
H2903 H 0.54701 0.01282 0.10333 0.0
S2904 S 0.47414 0.95094 0.15045 0.0
N2905 N 0.49778 0.95924 0.16833 0.0
N2906 N 0.47945 0.96383 0.12306 0.0
C2907 C 0.50134 0.97579 0.12757 0.0
C2908 C 0.5113 0.97316 0.15208 0.0
C2909 C 0.73369 0.80357 0.86688 0.0
C2910 C 0.75612 0.80912 0.87931 0.0
C2911 C 0.73364 0.79511 0.84219 0.0
C2912 C 0.75601 0.79231 0.82903 0.0
H2913 H 0.71604 0.80611 0.87623 0.0
H2914 H 0.71596 0.79158 0.83312 0.0
S2915 S 0.81977 0.80262 0.85378 0.0
N2916 N 0.80125 0.80999 0.87711 0.0
N2917 N 0.80124 0.79405 0.83075 0.0
C2918 C 0.77859 0.79698 0.84155 0.0
C2919 C 0.77863 0.80536 0.8667 0.0
C2920 C 0.84578 0.96272 0.06513 0.0
C2921 C 0.8298 0.97177 0.04645 0.0
C2922 C 0.86936 0.97331 0.06888 0.0
C2923 C 0.87754 -0.00679 0.05412 0.0
H2924 H 0.84119 0.94582 0.0751 0.0
H2925 H 0.88221 0.96409 0.08132 0.0
S2926 S 0.84076 0.0273 0.00717 0.0
N2927 N 0.82202 0.00477 0.01664 0.0
N2928 N 0.86674 0.02417 0.02328 0.0
C2929 C 0.86069 0.00429 0.03767 0.0
C2930 C 0.83666 -0.00633 0.03393 0.0
C2931 C 0.36247 0.52601 0.9806 0.0
C2932 C 0.36455 0.54876 0.96785 0.0
C2933 C 0.38256 0.50977 0.98201 0.0
C2934 C 0.40512 0.51546 0.9702 0.0
H2935 H 0.34586 0.52164 0.99118 0.0
H2936 H 0.38111 0.49369 -0.00593 0.0
S2937 S 0.41882 0.57043 0.93106 0.0
N2938 N 0.39001 0.57467 0.94074 0.0
N2939 N 0.42757 0.5435 0.94276 0.0
C2940 C 0.40652 0.5366 0.955 0.0
C2941 C 0.3862 0.55346 0.95393 0.0
C2942 C 0.20168 0.60615 0.72915 0.0
C2943 C 0.17602 0.60147 0.727 0.0
C2944 C 0.21153 0.62985 0.72426 0.0
C2945 C 0.19587 0.64959 0.71762 0.0
H2946 H 0.21405 0.5916 0.73532 0.0
H2947 H 0.23121 0.6331 0.72728 0.0
S2948 S 0.12764 0.64641 0.70814 0.0
N2949 N 0.13541 0.61796 0.71641 0.0
N2950 N 0.15384 0.66261 0.70773 0.0
C2951 C 0.17037 0.64481 0.71442 0.0
C2952 C 0.16044 0.62069 0.719 0.0
C2953 C 0.1148 0.44427 0.51281 0.0
C2954 C 0.11817 0.42572 0.49475 0.0
C2955 C 0.09386 0.45955 0.51238 0.0
C2956 C 0.07532 0.45662 0.49406 0.0
H2957 H 0.12861 0.44716 0.52726 0.0
H2958 H 0.09203 0.47345 0.52685 0.0
S2959 S 0.07556 0.41047 0.44258 0.0
N2960 N 0.10156 0.40515 0.45801 0.0
N2961 N 0.06192 0.43367 0.45723 0.0
C2962 C 0.07852 0.43806 0.47584 0.0
C2963 C 0.10004 0.42269 0.47616 0.0
C2964 C 0.82429 0.88627 0.7165 0.0
C2965 C 0.80863 0.90675 0.72012 0.0
C2966 C 0.81452 0.86231 0.71415 0.0
C2967 C 0.78876 0.85808 0.71487 0.0
H2968 H 0.84433 0.88854 0.71711 0.0
H2969 H 0.82725 0.84682 0.71309 0.0
S2970 S 0.73974 0.90565 0.72108 0.0
N2971 N 0.7661 0.92161 0.72224 0.0
N2972 N 0.74761 0.87624 0.7174 0.0
C2973 C 0.77278 0.87849 0.71666 0.0
C2974 C 0.78277 0.90296 0.71948 0.0
C2975 C 0.64655 0.04168 0.54991 0.0
C2976 C 0.64807 0.06782 0.54852 0.0
C2977 C 0.62357 0.02952 0.55316 0.0
C2978 C 0.60154 0.04321 0.55501 0.0
H2979 H 0.66304 0.03056 0.54721 0.0
H2980 H 0.62283 0.00942 0.55219 0.0
S2981 S 0.59547 0.11171 0.55478 0.0
N2982 N 0.6255 0.10681 0.55102 0.0
N2983 N 0.58262 0.08391 0.55744 0.0
C2984 C 0.60303 0.06923 0.55552 0.0
C2985 C 0.62624 0.08159 0.55219 0.0
C2986 C 0.21275 0.37649 0.77795 0.0
C2987 C 0.18859 0.3769 0.78808 0.0
C2988 C 0.22742 0.35515 0.77941 0.0
C2989 C 0.21873 0.33375 0.79159 0.0
H2990 H 0.21976 0.39221 0.76746 0.0
H2991 H 0.24482 0.35473 0.76927 0.0
S2992 S 0.15833 0.3259 0.82367 0.0
N2993 N 0.15759 0.35444 0.81247 0.0
N2994 N 0.18578 0.31476 0.81591 0.0
C2995 C 0.19578 0.33466 0.80389 0.0
C2996 C 0.18054 0.35618 0.80199 0.0
C2997 C 0.29039 0.63316 0.2556 0.0
C2998 C 0.30938 0.62931 0.27314 0.0
C2999 C 0.27688 0.65528 0.25529 0.0
C3000 C 0.28203 0.67451 0.27239 0.0
H3001 H 0.28645 0.61925 0.24151 0.0
H3002 H 0.26324 0.65778 0.24066 0.0
S3003 S 0.32814 0.67234 0.32388 0.0
N3004 N 0.33137 0.64556 0.30928 0.0
N3005 N 0.3058 0.68708 0.30899 0.0
C3006 C 0.29991 0.67018 0.29106 0.0
C3007 C 0.31363 0.6476 0.29136 0.0
C3008 C 0.46648 0.6161 0.57599 0.0
C3009 C 0.48793 0.63006 0.57032 0.0
C3010 C 0.46364 0.59163 0.56752 0.0
C3011 C 0.48195 0.58038 0.55271 0.0
H3012 H 0.45219 0.62386 0.58782 0.0
H3013 H 0.44715 0.58131 0.57297 0.0
S3014 S 0.54104 0.60969 0.53165 0.0
N3015 N 0.52737 0.63141 0.5484 0.0
N3016 N 0.52199 0.58547 0.53207 0.0
C3017 C 0.50312 0.59451 0.54616 0.0
C3018 C 0.50615 0.61932 0.55513 0.0
C3019 C 0.61551 0.23701 0.77371 0.0
C3020 C 0.60908 0.21951 0.79206 0.0
C3021 C 0.63971 0.23832 0.76434 0.0
C3022 C 0.65808 0.22194 0.77272 0.0
H3023 H 0.60224 0.2509 0.76788 0.0
H3024 H 0.64456 0.25342 0.75188 0.0
S3025 S 0.65023 0.17087 0.81804 0.0
N3026 N 0.62257 0.18395 0.8165 0.0
N3027 N 0.66804 0.18629 0.79826 0.0
C3028 C 0.65144 0.20291 0.78919 0.0
C3029 C 0.62684 0.20167 0.79899 0.0
C3030 C 0.01304 0.40174 0.0927 0.0
C3031 C 0.00964 0.3825 0.07527 0.0
C3032 C 0.01812 0.42611 0.08499 0.0
C3033 C 0.01975 0.43213 0.05954 0.0
H3034 H 0.01181 0.3979 0.11246 0.0
H3035 H 0.02001 0.44042 0.09907 0.0
S3036 S 0.01287 0.38808 0.00659 0.0
N3037 N 0.00862 0.37081 0.03161 0.0
N3038 N 0.01834 0.41648 0.01696 0.0
C3039 C 0.01685 0.41286 0.04196 0.0
C3040 C 0.01175 0.38808 0.04986 0.0
C3041 C 0.88571 0.74462 0.29919 0.0
C3042 C 0.88695 0.73865 0.32462 0.0
C3043 C 0.8628 0.74733 0.28717 0.0
C3044 C 0.84034 0.74465 0.3003 0.0
H3045 H 0.90262 0.74731 0.28856 0.0
H3046 H 0.8627 0.75196 0.26755 0.0
S3047 S 0.83376 0.72842 0.36719 0.0
N3048 N 0.8641 0.72957 0.3625 0.0
N3049 N 0.82083 0.73494 0.34009 0.0
C3050 C 0.84138 0.73847 0.32577 0.0
C3051 C 0.86475 0.73534 0.33789 0.0
C3052 C 0.50513 0.36164 0.9756 0.0
C3053 C 0.49029 0.35414 0.95537 0.0
C3054 C 0.50178 0.38488 0.98686 0.0
C3055 C 0.48377 0.40156 0.97796 0.0
H3056 H 0.51961 0.34958 0.98254 0.0
H3057 H 0.51418 0.39024 0.00188 0.0
S3058 S 0.43961 0.39015 0.92599 0.0
N3059 N 0.45642 0.36463 0.9274 0.0
N3060 N 0.45022 0.40841 0.94839 0.0
C3061 C 0.46838 0.39392 0.95816 0.0
C3062 C 0.47162 0.37018 0.9469 0.0
C3063 C 0.86224 0.21341 0.17486 0.0
C3064 C 0.88098 0.21662 0.1929 0.0
C3065 C 0.83733 0.21034 0.1817 0.0
C3066 C 0.83015 0.21059 0.20688 0.0
H3067 H 0.86662 0.21457 0.15521 0.0
H3068 H 0.82351 0.20927 0.16704 0.0
S3069 S 0.87261 0.21404 0.26135 0.0
N3070 N 0.89116 0.2165 0.23699 0.0
N3071 N 0.84418 0.21119 0.24999 0.0
C3072 C 0.8489 0.21207 0.22516 0.0
C3073 C 0.87433 0.21504 0.21814 0.0
C3074 C 0.04967 0.61285 0.43876 0.0
C3075 C 0.05466 0.63317 0.45451 0.0
C3076 C 0.04402 0.58952 0.44853 0.0
C3077 C 0.04343 0.58559 0.47434 0.0
H3078 H 0.04789 0.61539 0.41884 0.0
H3079 H 0.03843 0.57484 0.43582 0.0
S3080 S 0.05981 0.63132 0.52332 0.0
N3081 N 0.06226 0.64702 0.49699 0.0
N3082 N 0.05163 0.60271 0.51542 0.0
C3083 C 0.05092 0.60493 0.49024 0.0
C3084 C 0.05649 0.6289 0.48028 0.0
C3085 C 0.62359 0.77613 0.73084 0.0
C3086 C 0.61572 0.77957 0.70615 0.0
C3087 C 0.64845 0.7801 0.7377 0.0
C3088 C 0.66643 0.78759 0.72009 0.0
H3089 H 0.61054 0.76979 0.74485 0.0
H3090 H 0.65376 0.77627 0.75676 0.0
S3091 S 0.65489 0.80021 0.65305 0.0
N3092 N 0.62759 0.79154 0.66413 0.0
N3093 N 0.67406 0.79968 0.67703 0.0
C3094 C 0.65845 0.79232 0.69556 0.0
C3095 C 0.63319 0.78807 0.68857 0.0
C3096 C 0.53933 0.46458 0.65675 0.0
C3097 C 0.52994 0.48095 0.67478 0.0
C3098 C 0.52741 0.4615 0.63385 0.0
C3099 C 0.50573 0.47483 0.62803 0.0
H3100 H 0.55702 0.45548 0.65956 0.0
H3101 H 0.53631 0.44989 0.62004 0.0
S3102 S 0.47066 0.51544 0.67138 0.0
N3103 N 0.49555 0.50716 0.68727 0.0
N3104 N 0.47301 0.50163 0.64402 0.0
C3105 C 0.49475 0.48923 0.64695 0.0
C3106 C 0.50694 0.4923 0.67034 0.0
C3107 C 0.78492 0.31914 0.87394 0.0
C3108 C 0.76509 0.32282 0.89053 0.0
C3109 C 0.78258 0.30273 0.85376 0.0
C3110 C 0.76031 0.28943 0.84948 0.0
H3111 H 0.802 0.32975 0.876 0.0
H3112 H 0.79792 0.3014 0.84078 0.0
S3113 S 0.70451 0.28948 0.89018 0.0
N3114 N 0.72374 0.30964 0.90332 0.0
N3115 N 0.71914 0.27896 0.86533 0.0
C3116 C 0.74093 0.29184 0.86691 0.0
C3117 C 0.74336 0.30851 0.88742 0.0
C3118 C 0.97639 0.52659 0.16043 0.0
C3119 C 0.95292 0.53782 0.16176 0.0
C3120 C 0.99218 0.53088 0.14019 0.0
C3121 C 0.98496 0.54643 0.12043 0.0
H3122 H 0.98197 0.51322 0.17439 0.0
H3123 H 0.00922 0.52032 0.13916 0.0
S3124 S 0.92764 0.58452 0.11792 0.0
N3125 N 0.92483 0.56811 0.1437 0.0
N3126 N 0.95474 0.57674 0.10594 0.0
C3127 C 0.96286 0.56012 0.12312 0.0
C3128 C 0.94671 0.55561 0.1437 0.0
C3129 C 0.6995 0.6761 0.3526 0.0
C3130 C 0.70208 0.6868 0.37628 0.0
C3131 C 0.70379 0.69018 0.33115 0.0
C3132 C 0.7114 0.71522 0.33284 0.0
H3133 H 0.69536 0.65645 0.35071 0.0
H3134 H 0.70297 0.68085 0.31328 0.0
S3135 S 0.71793 0.75234 0.3907 0.0
N3136 N 0.71017 0.72422 0.40036 0.0
N3137 N 0.71872 0.75073 0.36 0.0
C3138 C 0.71235 0.7265 0.35643 0.0
C3139 C 0.70758 0.71224 0.37821 0.0
C3140 C 0.56473 0.54195 0.9046 0.0
C3141 C 0.56391 0.52599 0.884 0.0
C3142 C 0.54829 0.5386 0.92452 0.0
C3143 C 0.53038 0.5193 0.92433 0.0
H3144 H 0.57866 0.55656 0.90566 0.0
H3145 H 0.55023 0.55077 0.9405 0.0
S3146 S 0.51895 0.47486 0.87243 0.0
N3147 N 0.54275 0.49195 0.86307 0.0
N3148 N 0.51149 0.48562 0.90021 0.0
C3149 C 0.52858 0.50417 0.90295 0.0
C3150 C 0.54549 0.5075 0.88286 0.0
C3151 C 0.71532 0.2992 0.11252 0.0
C3152 C 0.73451 0.29583 0.09513 0.0
C3153 C 0.71204 0.28277 0.13238 0.0
C3154 C 0.72794 0.26236 0.13586 0.0
H3155 H 0.70363 0.31549 0.11173 0.0
H3156 H 0.6978 0.28704 0.14596 0.0
S3157 S 0.77795 0.24265 0.09264 0.0
N3158 N 0.76712 0.26849 0.0803 0.0
N3159 N 0.76142 0.23779 0.11809 0.0
C3160 C 0.74581 0.25753 0.11735 0.0
C3161 C 0.74907 0.27429 0.09697 0.0
C3162 C 0.94979 0.50347 0.37453 0.0
C3163 C 0.93414 0.48277 0.37099 0.0
C3164 C 0.96455 0.50568 0.39583 0.0
C3165 C 0.96427 0.48721 0.41434 0.0
H3166 H 0.95022 0.51837 0.36098 0.0
H3167 H 0.97568 0.52239 0.39817 0.0
S3168 S 0.92725 0.42875 0.41325 0.0
N3169 N 0.91979 0.443 0.38712 0.0
N3170 N 0.94785 0.44695 0.42718 0.0
C3171 C 0.94962 0.46579 0.41043 0.0
C3172 C 0.93444 0.46362 0.38874 0.0
C3173 C 0.75362 0.73614 0.60207 0.0
C3174 C 0.74657 0.71092 0.60325 0.0
C3175 C 0.75972 0.74944 0.62381 0.0
C3176 C 0.7597 0.73755 0.64708 0.0
H3177 H 0.75412 0.74564 0.5843 0.0
H3178 H 0.76463 0.76894 0.62243 0.0
S3179 S 0.74234 0.67188 0.6599 0.0
N3180 N 0.73972 0.67475 0.62943 0.0
N3181 N 0.75139 0.69944 0.67009 0.0
C3182 C 0.75276 0.71233 0.64835 0.0
C3183 C 0.74617 0.69906 0.62646 0.0
C3184 C 0.61476 0.51874 0.53604 0.0
C3185 C 0.62316 0.52698 0.51267 0.0
C3186 C 0.59132 0.50744 0.53862 0.0
C3187 C 0.57553 0.50429 0.51794 0.0
H3188 H 0.62567 0.52241 0.55263 0.0
H3189 H 0.58492 0.50264 0.55713 0.0
S3190 S 0.59099 0.51811 0.45216 0.0
N3191 N 0.61562 0.52759 0.46803 0.0
N3192 N 0.57128 0.50703 0.473 0.0
C3193 C 0.58453 0.51068 0.49427 0.0
C3194 C 0.60845 0.52184 0.4916 0.0
C3195 C 0.13798 0.98134 0.51141 0.0
C3196 C 0.14421 0.96278 0.52858 0.0
C3197 C 0.11404 0.99132 0.51094 0.0
C3198 C 0.09548 0.98259 0.52727 0.0
H3199 H 0.15139 0.98738 0.49761 0.0
H3200 H 0.10967 0.00479 0.49665 0.0
S3201 S 0.1036 0.93581 0.57725 0.0
N3202 N 0.13105 0.93746 0.56355 0.0
N3203 N 0.08572 0.95585 0.56251 0.0
C3204 C 0.102 0.96496 0.54541 0.0
C3205 C 0.12649 0.95511 0.54609 0.0
C3206 C 0.30188 0.85274 0.74588 0.0
C3207 C 0.2915 0.87314 0.73353 0.0
C3208 C 0.28915 0.82999 0.74703 0.0
C3209 C 0.26578 0.82685 0.73555 0.0
H3210 H 0.3197 0.85456 0.75518 0.0
H3211 H 0.29784 0.8147 0.75676 0.0
S3212 S 0.23115 0.87491 0.70041 0.0
N3213 N 0.25693 0.88912 0.70951 0.0
N3214 N 0.23301 0.84622 0.71112 0.0
C3215 C 0.25543 0.84716 0.7228 0.0
C3216 C 0.26829 0.87038 0.72195 0.0
C3217 C 0.35569 0.0112 0.04006 0.0
C3218 C 0.34932 0.03627 0.03724 0.0
C3219 C 0.38059 0.00433 0.04336 0.0
C3220 C 0.39964 0.02242 0.04377 0.0
H3221 H 0.34156 -0.00316 0.03839 0.0
H3222 H 0.38508 0.98474 0.04373 0.0
S3223 S 0.3915 0.09075 0.04122 0.0
N3224 N 0.36311 0.07926 0.03805 0.0
N3225 N 0.40993 0.06652 0.0443 0.0
C3226 C 0.39305 0.04763 0.04296 0.0
C3227 C 0.36783 0.05453 0.0396 0.0
C3228 C 0.725 0.63902 0.72843 0.0
C3229 C 0.70004 0.6351 0.73499 0.0
C3230 C 0.73628 0.66224 0.73177 0.0
C3231 C 0.72308 0.68229 0.74206 0.0
H3232 H 0.7359 0.62396 0.72082 0.0
H3233 H 0.75556 0.6644 0.72629 0.0
S3234 S 0.65703 0.68124 0.76226 0.0
N3235 N 0.66234 0.65276 0.75226 0.0
N3236 N 0.68341 0.69664 0.75841 0.0
C3237 C 0.69799 0.67856 0.74861 0.0
C3238 C 0.68648 0.65491 0.74504 0.0
C3239 C 0.87941 0.50432 0.02869 0.0
C3240 C 0.87524 0.47847 0.02869 0.0
C3241 C 0.90364 0.5142 0.02733 0.0
C3242 C 0.92438 0.49852 0.0254 0.0
H3243 H 0.86385 0.51695 0.02975 0.0
H3244 H 0.90609 0.53419 0.02746 0.0
S3245 S 0.92307 0.42933 0.02465 0.0
N3246 N 0.89361 0.43744 0.0265 0.0
N3247 N 0.93895 0.45566 0.02423 0.0
C3248 C 0.9203 0.47257 0.02552 0.0
C3249 C 0.89578 0.46264 0.02709 0.0
C3250 C 0.26149 0.11458 0.7502 0.0
C3251 C 0.28325 0.10889 0.7371 0.0
C3252 C 0.25129 0.13836 0.74908 0.0
C3253 C 0.26283 0.1574 0.73518 0.0
H3254 H 0.2528 0.10077 0.76208 0.0
H3255 H 0.23509 0.14214 0.7604 0.0
S3256 S 0.31909 0.15092 0.69577 0.0
N3257 N 0.31506 0.12321 0.70835 0.0
N3258 N 0.29611 0.16818 0.70633 0.0
C3259 C 0.28389 0.15145 0.72088 0.0
C3260 C 0.29407 0.12711 0.72183 0.0
C3261 C 0.22408 0.89362 0.25693 0.0
C3262 C 0.22151 0.90637 0.23433 0.0
C3263 C 0.23069 0.86862 0.25732 0.0
C3264 C 0.23523 0.85549 0.23513 0.0
H3265 H 0.21965 0.90265 0.2744 0.0
H3266 H 0.23164 0.85933 0.27518 0.0
S3267 S 0.23342 0.88123 0.17122 0.0
N3268 N 0.22566 0.90479 0.1893 0.0
N3269 N 0.23855 0.85755 0.19005 0.0
C3270 C 0.23417 0.86838 0.21245 0.0
C3271 C 0.2271 0.89388 0.21205 0.0
C3272 C 0.51865 0.37626 0.47325 0.0
C3273 C 0.50146 0.35642 0.47475 0.0
C3274 C 0.51774 0.39617 0.48996 0.0
C3275 C 0.49941 0.39707 0.50846 0.0
H3276 H 0.532 0.3772 0.45819 0.0
H3277 H 0.53021 0.41184 0.48717 0.0
S3278 S 0.45273 0.34842 0.52307 0.0
N3279 N 0.46796 0.33741 0.49881 0.0
N3280 N 0.46537 0.37582 0.52919 0.0
C3281 C 0.48313 0.37685 0.51123 0.0
C3282 C 0.48437 0.35626 0.49461 0.0
C3283 C 0.38823 0.76797 0.24372 0.0
C3284 C 0.39612 0.78172 0.2229 0.0
C3285 C 0.36354 0.76891 0.25191 0.0
C3286 C 0.34585 0.7835 0.23941 0.0
H3287 H 0.40094 0.75545 0.25296 0.0
H3288 H 0.358 0.75688 0.2671 0.0
S3289 S 0.3579 0.82551 0.18591 0.0
N3290 N 0.38484 0.81205 0.19133 0.0
N3291 N 0.33871 0.81439 0.20716 0.0
C3292 C 0.35403 0.79891 0.21987 0.0
C3293 C 0.3791 0.79787 0.21149 0.0
C3294 C 0.03341 0.64436 0.97361 0.0
C3295 C 0.01105 0.65556 0.96645 0.0
C3296 C 0.0334 0.6235 0.98906 0.0
C3297 C 0.01102 0.61299 -0.00199 0.0
H3298 H 0.05099 0.65105 0.96629 0.0
H3299 H 0.05113 0.615 -0.00678 0.0
S3300 S 0.9477 0.63797 0.98755 0.0
N3301 N 0.96618 0.65671 0.97162 0.0
N3302 N 0.96603 0.61719 0.00058 0.0
C3303 C 0.98862 0.6251 0.99233 0.0
C3304 C 0.98866 0.6464 0.97649 0.0
C3305 C 0.11262 0.26562 0.72105 0.0
C3306 C 0.1017 0.24422 0.71073 0.0
C3307 C 0.13565 0.26448 0.73298 0.0
C3308 C 0.14846 0.24187 0.73514 0.0
H3309 H 0.10397 0.28359 0.71869 0.0
H3310 H 0.14391 0.28166 0.73969 0.0
S3311 S 0.12581 0.18001 0.71409 0.0
N3312 N 0.10379 0.19945 0.70552 0.0
N3313 N 0.14727 0.19715 0.7281 0.0
C3314 C 0.13684 0.22002 0.72645 0.0
C3315 C 0.11342 0.22125 0.71411 0.0
C3316 C 0.49896 0.62027 0.05264 0.0
C3317 C 0.48794 0.62218 0.07633 0.0
C3318 C 0.49933 0.59768 0.03979 0.0
C3319 C 0.48831 0.57631 0.04997 0.0
H3320 H 0.50723 0.63643 0.04383 0.0
H3321 H 0.50797 0.59705 0.02158 0.0
S3322 S 0.45825 0.57088 0.11189 0.0
N3323 N 0.46684 0.60034 0.10998 0.0
N3324 N 0.46678 0.55799 0.08536 0.0
C3325 C 0.47717 0.57786 0.07359 0.0
C3326 C 0.47713 0.60079 0.08687 0.0
C3327 C 0.10064 0.77386 0.75612 0.0
C3328 C 0.1033 0.78615 0.77918 0.0
C3329 C 0.1212 0.7698 0.74072 0.0
C3330 C 0.14483 0.77856 0.74756 0.0
H3331 H 0.08298 0.76553 0.75094 0.0
H3332 H 0.11899 0.75803 0.72447 0.0
S3333 S 0.1612 0.81485 0.80387 0.0
N3334 N 0.1311 0.80922 0.80668 0.0
N3335 N 0.16949 0.80236 0.77707 0.0
C3336 C 0.14726 0.79321 0.76905 0.0
C3337 C 0.12647 0.79693 0.78503 0.0
C3338 C 0.96275 0.38359 0.53943 0.0
C3339 C 0.9678 0.38269 0.565 0.0
C3340 C 0.9598 0.4064 0.52744 0.0
C3341 C 0.96167 0.42884 0.54079 0.0
H3342 H 0.96236 0.36667 0.52848 0.0
H3343 H 0.9575 0.40656 0.5074 0.0
S3344 S 0.97282 0.43563 0.60867 0.0
N3345 N 0.97298 0.40534 0.6037 0.0
N3346 N 0.96727 0.4485 0.58134 0.0
C3347 C 0.96499 0.42793 0.56677 0.0
C3348 C 0.96821 0.4047 0.57886 0.0
C3349 C 0.39405 0.26848 0.26902 0.0
C3350 C 0.39774 0.24654 0.28258 0.0
C3351 C 0.37343 0.27108 0.25351 0.0
C3352 C 0.35576 0.25185 0.25104 0.0
H3353 H 0.40651 0.28422 0.27146 0.0
H3354 H 0.37046 0.2889 0.24465 0.0
S3355 S 0.35891 0.18943 0.27994 0.0
N3356 N 0.38378 0.20424 0.29055 0.0
N3357 N 0.34477 0.20912 0.26117 0.0
C3358 C 0.36046 0.22897 0.26266 0.0
C3359 C 0.38154 0.22633 0.27857 0.0
C3360 C 0.46138 0.50835 0.402 0.0
C3361 C 0.43775 0.49986 0.39455 0.0
C3362 C 0.46879 0.5072 0.427 0.0
C3363 C 0.45295 0.49714 0.44531 0.0
H3364 H 0.47413 0.51613 0.38844 0.0
H3365 H 0.48724 0.51379 0.4319 0.0
S3366 S 0.38912 0.47228 0.43504 0.0
N3367 N 0.39854 0.48112 0.40716 0.0
N3368 N 0.41238 0.47873 0.45412 0.0
C3369 C 0.42923 0.48858 0.43799 0.0
C3370 C 0.42164 0.49001 0.41261 0.0
C3371 C 0.26928 0.74248 0.11484 0.0
C3372 C 0.2702 0.71694 0.10964 0.0
C3373 C 0.26413 0.751 0.13894 0.0
C3374 C 0.2592 0.73424 0.1585 0.0
H3375 H 0.27261 0.75591 0.10018 0.0
H3376 H 0.26387 0.77086 0.14222 0.0
S3377 S 0.25845 0.66532 0.15378 0.0
N3378 N 0.2652 0.67495 0.12542 0.0
N3379 N 0.25538 0.69074 0.17069 0.0
C3380 C 0.25978 0.70858 0.1533 0.0
C3381 C 0.26534 0.69999 0.12888 0.0
C3382 C 0.0664 0.5064 0.90757 0.0
C3383 C 0.04924 0.49607 0.89071 0.0
C3384 C 0.06001 0.51029 0.93242 0.0
C3385 C 0.03631 0.50369 0.94142 0.0
H3386 H 0.08486 0.51176 0.90141 0.0
H3387 H 0.07387 0.51837 0.94471 0.0
S3388 S 0.98476 0.47583 0.90456 0.0
N3389 N 0.00767 0.47928 0.88437 0.0
N3390 N -0.00445 0.48632 0.93142 0.0
C3391 C 0.01899 0.49316 0.92474 0.0
C3392 C 0.02545 0.48949 0.89926 0.0
C3393 C 0.2722 0.27312 0.628 0.0
C3394 C 0.25333 0.28762 0.61735 0.0
C3395 C 0.27182 0.26709 0.65347 0.0
C3396 C 0.25277 0.27571 0.66923 0.0
H3397 H 0.28725 0.26631 0.61653 0.0
H3398 H 0.28655 0.25558 0.66081 0.0
S3399 S 0.2001 0.31614 0.65023 0.0
N3400 N 0.21592 0.31154 0.62438 0.0
N3401 N 0.21502 0.30057 0.67198 0.0
C3402 C 0.23406 0.29072 0.65865 0.0
C3403 C 0.23439 0.29657 0.6328 0.0
C3404 C 0.48234 0.49003 0.13689 0.0
C3405 C 0.45853 0.49627 0.1455 0.0
C3406 C 0.4858 0.48112 0.11256 0.0
C3407 C 0.4655 0.478 0.09619 0.0
H3408 H 0.49844 0.4929 0.14872 0.0
H3409 H 0.50462 0.47799 0.10617 0.0
S3410 S 0.39897 0.48764 0.11162 0.0
N3411 N 0.41413 0.49584 0.1371 0.0
N3412 N 0.42048 0.47902 0.09155 0.0
C3413 C 0.44145 0.48255 0.10534 0.0
C3414 C 0.438 0.49176 0.12992 0.0
C3415 C 0.23419 0.72205 0.86702 0.0
C3416 C 0.2273 0.69743 0.87277 0.0
C3417 C 0.23311 0.7309 0.84256 0.0
C3418 C 0.22472 0.71555 0.82309 0.0
H3419 H 0.24091 0.73445 0.88148 0.0
H3420 H 0.23901 0.74983 0.83885 0.0
S3421 S 0.20486 0.64955 0.82812 0.0
N3422 N 0.21226 0.65772 0.85683 0.0
N3423 N 0.20935 0.67463 0.81102 0.0
C3424 C 0.21712 0.69112 0.82864 0.0
C3425 C 0.21859 0.68199 0.85346 0.0
C3426 C 0.04788 0.51895 0.62738 0.0
C3427 C 0.03138 0.50967 0.64544 0.0
C3428 C 0.03988 0.52385 0.60314 0.0
C3429 C 0.01501 0.51972 0.59595 0.0
H3430 H 0.06738 0.52166 0.63179 0.0
H3431 H 0.05359 0.53012 0.58974 0.0
S3432 S 0.96382 0.4984 0.63743 0.0
N3433 N 0.98874 0.49855 0.65543 0.0
N3434 N 0.9734 0.50775 0.60976 0.0
C3435 C -0.00201 0.51166 0.61429 0.0
C3436 C 0.00627 0.50651 0.63902 0.0
C3437 C 0.25444 0.30335 0.36137 0.0
C3438 C 0.2658 0.32587 0.36833 0.0
C3439 C 0.25358 0.29595 0.33637 0.0
C3440 C 0.26445 0.31063 0.31757 0.0
H3441 H 0.24577 0.29161 0.3753 0.0
H3442 H 0.24462 0.27843 0.3318 0.0
S3443 S 0.29663 0.37126 0.32655 0.0
N3444 N 0.28801 0.36288 0.35484 0.0
N3445 N 0.28698 0.34881 0.30781 0.0
C3446 C 0.2761 0.33313 0.32444 0.0
C3447 C 0.2766 0.34082 0.34984 0.0
C3448 C 0.34834 0.47295 0.55747 0.0
C3449 C 0.34322 0.44724 0.55831 0.0
C3450 C 0.37286 0.48198 0.55904 0.0
C3451 C 0.39283 0.46548 0.56128 0.0
H3452 H 0.33349 0.48599 0.55397 0.0
H3453 H 0.37633 0.50165 0.55635 0.0
S3454 S 0.38939 0.39702 0.56738 0.0
N3455 N 0.36024 0.40577 0.56393 0.0
N3456 N 0.40603 0.42289 0.56713 0.0
C3457 C 0.38781 0.44008 0.56434 0.0
C3458 C 0.36303 0.43088 0.56281 0.0
C3459 C 0.87395 0.03644 0.47887 0.0
C3460 C 0.87423 0.0626 0.47755 0.0
C3461 C 0.89618 0.02289 0.47876 0.0
C3462 C 0.91925 0.03516 0.47731 0.0
H3463 H 0.8565 0.02651 0.48106 0.0
H3464 H 0.89539 0.00295 0.48139 0.0
S3465 S 0.93017 0.10302 0.4729 0.0
N3466 N 0.89961 0.10001 0.47401 0.0
N3467 N 0.94123 0.0745 0.47379 0.0
C3468 C 0.91973 0.06109 0.47483 0.0
C3469 C 0.89722 0.07486 0.47489 0.0
C3470 C 0.67461 0.11329 0.20591 0.0
C3471 C 0.6878 0.09465 0.21849 0.0
C3472 C 0.68625 0.13571 0.19944 0.0
C3473 C 0.71146 0.13993 0.20496 0.0
H3474 H 0.65476 0.11139 0.20291 0.0
H3475 H 0.67496 0.15063 0.19213 0.0
S3476 S 0.755 0.09551 0.23387 0.0
N3477 N 0.72805 0.08056 0.23325 0.0
N3478 N 0.74988 0.1229 0.22105 0.0
C3479 C 0.72536 0.12059 0.2153 0.0
C3480 C 0.7135 0.09785 0.22212 0.0
C3481 C 0.61176 0.94299 0.01711 0.0
C3482 C 0.6152 0.92416 -0.00062 0.0
C3483 C 0.5908 0.95821 0.01644 0.0
C3484 C 0.57224 0.95509 -0.00189 0.0
H3485 H 0.6254 0.94598 0.03169 0.0
H3486 H 0.58892 0.9721 0.0309 0.0
S3487 S 0.57312 0.9087 0.94681 0.0
N3488 N 0.59897 0.9035 0.96251 0.0
N3489 N 0.55935 0.93201 0.96115 0.0
C3490 C 0.57582 0.93663 0.97983 0.0
C3491 C 0.59734 0.9212 0.98048 0.0
C3492 C 0.3367 0.38667 0.20027 0.0
C3493 C 0.32187 0.40804 0.2017 0.0
C3494 C 0.32598 0.36321 0.19707 0.0
C3495 C 0.30009 0.36027 0.19512 0.0
H3496 H 0.35649 0.38767 0.20398 0.0
H3497 H 0.33784 0.34707 0.19845 0.0
S3498 S 0.25362 0.41055 0.19194 0.0
N3499 N 0.28043 0.42515 0.19626 0.0
N3500 N 0.26019 0.38062 0.19077 0.0
C3501 C 0.28529 0.38154 0.19353 0.0
C3502 C 0.29623 0.40558 0.19679 0.0
C3503 C 0.14859 0.53954 0.02968 0.0
C3504 C 0.15817 0.55484 0.0487 0.0
C3505 C 0.1246 0.5297 0.03115 0.0
C3506 C 0.10929 0.53466 0.05168 0.0
H3507 H 0.15877 0.53683 0.01251 0.0
H3508 H 0.11729 0.51965 0.0152 0.0
S3509 S 0.12716 0.5693 0.10861 0.0
N3510 N 0.15195 0.57114 0.09052 0.0
N3511 N 0.10634 0.55274 0.09299 0.0
C3512 C 0.11939 0.54767 0.07198 0.0
C3513 C 0.14397 0.55783 0.07051 0.0
C3514 C 0.73524 0.88179 0.27521 0.0
C3515 C 0.71309 0.8832 0.28908 0.0
C3516 C 0.74881 0.85977 0.27415 0.0
C3517 C 0.74111 0.83874 0.28755 0.0
H3518 H 0.74114 0.8972 0.26363 0.0
H3519 H 0.76432 0.8586 0.26134 0.0
S3520 S 0.68711 0.83378 0.32995 0.0
N3521 N 0.68574 0.86227 0.31871 0.0
N3522 N 0.71223 0.82136 0.31762 0.0
C3523 C 0.72086 0.84074 0.30381 0.0
C3524 C 0.70657 0.86293 0.30441 0.0
C3525 C 0.79767 0.13109 0.76124 0.0
C3526 C 0.82019 0.13005 0.77444 0.0
C3527 C 0.78194 0.15153 0.76347 0.0
C3528 C 0.78825 0.17187 0.77882 0.0
H3529 H 0.79242 0.1162 0.74866 0.0
H3530 H 0.76531 0.15181 0.75209 0.0
S3531 S 0.84418 0.1768 0.81933 0.0
N3532 N 0.84728 0.14994 0.80483 0.0
N3533 N 0.81769 0.18845 0.80929 0.0
C3534 C 0.81007 0.1703 0.79333 0.0
C3535 C 0.82607 0.14939 0.79104 0.0
loop_
_geom_bond_atom_site_label_1
_geom_bond_atom_site_label_2
_geom_bond_distance
_geom_bond_site_symmetry_2
_ccdc_geom_bond_type
Li0 N17 1.990 . S
Li0 O60 1.956 . S
Li0 O61 1.970 . S
Li0 O62 1.961 1_455 S
Li1 N25 1.990 . S
Li1 O60 1.970 . S
Li1 O61 1.956 . S
Li1 O63 1.961 . S
Li2 N47 1.990 . S
Li2 O60 1.961 . S
Li2 O62 1.956 1_455 S
Li2 O63 1.970 . S
Li3 N53 1.990 . S
Li3 O61 1.961 1_655 S
Li3 O62 1.970 . S
Li3 O63 1.956 1_655 S
C4 C6 1.348 . S
C4 C7 1.356 . S
C4 O60 1.325 . S
N5 C8 1.314 . S
N5 C9 1.279 . S
C6 C4 1.348 . S
C6 C8 1.353 . S
C6 H64 0.929 . S
C7 C4 1.356 . S
C7 C9 1.358 . S
C7 H65 0.930 . S
C8 N5 1.314 . S
C8 C6 1.353 . S
C8 H66 0.930 . S
C9 N5 1.279 . S
C9 C7 1.358 . S
C9 H67 0.930 . S
C10 C13 1.348 . S
C10 C14 1.362 . S
C10 O61 1.325 . S
C11 N12 1.279 . S
C11 C14 1.360 . S
C11 H68 0.930 1_455 S
N12 C11 1.279 . S
N12 C15 1.314 . S
C13 C10 1.348 . S
C13 C15 1.353 . S
C13 H69 0.929 . S
C14 C10 1.362 . S
C14 C11 1.360 . S
C14 H70 0.923 1_455 S
C15 N12 1.314 . S
C15 C13 1.353 . S
C15 H71 0.930 . S
C16 N17 1.314 1_655 S
C16 C21 1.353 . S
C16 H22 0.930 . S
N17 Li0 1.990 . S
N17 C16 1.314 1_455 S
N17 C19 1.279 . S
C18 C19 1.358 . S
C18 C20 1.356 . S
C18 H72 0.930 . S
C19 N17 1.279 . S
C19 C18 1.358 . S
C19 H23 0.930 . S
C20 C18 1.356 . S
C20 C21 1.348 1_455 S
C21 C16 1.353 . S
C21 C20 1.348 1_655 S
C21 H73 0.929 . S
H22 C16 0.930 . S
H23 C19 0.930 . S
C24 N25 1.314 . S
C24 C26 1.353 . S
C24 H30 0.930 . S
N25 Li1 1.990 . S
N25 C24 1.314 . S
N25 C28 1.279 . S
C26 C24 1.353 . S
C26 C29 1.348 . S
C26 H74 0.929 . S
C27 C28 1.358 . S
C27 C29 1.356 . S
C27 H75 0.930 . S
C28 N25 1.279 . S
C28 C27 1.358 . S
C28 H31 0.930 . S
C29 C26 1.348 . S
C29 C27 1.356 . S
H30 C24 0.930 . S
H31 C28 0.930 . S
C32 C34 1.348 . S
C32 C35 1.356 . S
C32 O62 1.325 . S
N33 C36 1.314 . S
N33 C37 1.279 . S
C34 C32 1.348 . S
C34 C36 1.353 . S
C34 H76 0.929 . S
C35 C32 1.356 . S
C35 C37 1.358 . S
C35 H77 0.930 . S
C36 N33 1.314 . S
C36 C34 1.353 . S
C36 H78 0.930 . S
C37 N33 1.279 . S
C37 C35 1.358 . S
C37 H79 0.930 . S
C38 C39 1.348 1_455 S
C38 C40 1.356 . S
C38 O63 1.325 . S
C39 C38 1.348 1_655 S
C39 C41 1.353 . S
C39 H80 0.929 . S
C40 C38 1.356 . S
C40 C42 1.358 . S
C40 H81 0.930 . S
C41 C39 1.353 . S
C41 N43 1.314 1_655 S
C41 H82 0.930 . S
C42 C40 1.358 . S
C42 N43 1.279 . S
C42 H83 0.930 . S
N43 C41 1.314 1_455 S
N43 C42 1.279 . S
C44 C46 1.353 . S
C44 N47 1.314 . S
C44 H50 0.930 . S
C45 N47 1.279 1_655 S
C45 C48 1.358 . S
C45 H51 0.930 . S
C46 C44 1.353 . S
C46 C49 1.348 . S
C46 H84 0.929 . S
N47 Li2 1.990 . S
N47 C44 1.314 . S
N47 C45 1.279 1_455 S
C48 C45 1.358 . S
C48 C49 1.356 1_655 S
C48 H85 0.930 . S
C49 C46 1.348 . S
C49 C48 1.356 1_455 S
H50 C44 0.930 . S
H51 C45 0.930 . S
C52 N53 1.314 . S
C52 C54 1.353 . S
C52 H58 0.930 . S
N53 Li3 1.990 . S
N53 C52 1.314 . S
N53 C56 1.279 . S
C54 C52 1.353 . S
C54 C57 1.348 . S
C54 H86 0.929 . S
C55 C56 1.358 . S
C55 C57 1.356 . S
C55 H87 0.930 . S
C56 N53 1.279 . S
C56 C55 1.358 . S
C56 H59 0.930 . S
C57 C54 1.348 . S
C57 C55 1.356 . S
H58 C52 0.930 . S
H59 C56 0.930 . S
O60 Li0 1.956 . S
O60 Li1 1.970 . S
O60 Li2 1.961 . S
O60 C4 1.325 . S
O61 Li0 1.970 . S
O61 Li1 1.956 . S
O61 Li3 1.961 1_455 S
O61 C10 1.325 . S
O62 Li0 1.961 1_655 S
O62 Li2 1.956 1_655 S
O62 Li3 1.970 . S
O62 C32 1.325 . S
O63 Li1 1.961 . S
O63 Li2 1.970 . S
O63 Li3 1.956 1_455 S
O63 C38 1.325 . S
H64 C6 0.929 . S
H65 C7 0.930 . S
H66 C8 0.930 . S
H67 C9 0.930 . S
H68 C11 0.930 1_655 S
H69 C13 0.929 . S
H70 C14 0.923 1_655 S
H71 C15 0.930 . S
H72 C18 0.930 . S
H73 C21 0.929 . S
H74 C26 0.929 . S
H75 C27 0.930 . S
H76 C34 0.929 . S
H77 C35 0.930 . S
H78 C36 0.930 . S
H79 C37 0.930 . S
H80 C39 0.929 . S
H81 C40 0.930 . S
H82 C41 0.930 . S
H83 C42 0.930 . S
H84 C46 0.929 . S
H85 C48 0.930 . S
H86 C54 0.929 . S
H87 C55 0.930 . S
Li88 N105 1.990 . S
Li88 O148 1.956 1_655 S
Li88 O149 1.970 . S
Li88 O150 1.961 1_655 S
Li89 N113 1.990 . S
Li89 O148 1.970 . S
Li89 O149 1.956 1_455 S
Li89 O151 1.961 . S
Li90 N135 1.990 . S
Li90 O148 1.961 . S
Li90 O150 1.956 . S
Li90 O151 1.970 . S
Li91 N141 1.990 . S
Li91 O149 1.961 1_455 S
Li91 O150 1.970 . S
Li91 O151 1.956 . S
C92 C94 1.335 1_455 S
C92 C95 1.356 . S
C92 O148 1.325 . S
N93 C96 1.306 1_455 S
N93 C97 1.279 . S
C94 C92 1.335 1_655 S
C94 C96 1.353 . S
C94 H152 0.943 . S
C95 C92 1.356 . S
C95 C97 1.358 . S
C95 H153 0.930 . S
C96 N93 1.306 1_655 S
C96 C94 1.353 . S
C96 H154 0.941 . S
C97 N93 1.279 . S
C97 C95 1.358 . S
C97 H155 0.930 . S
C98 C101 1.348 . S
C98 C102 1.356 . S
C98 O149 1.325 . S
C99 N100 1.279 . S
C99 C102 1.358 . S
C99 H156 0.930 . S
N100 C99 1.279 . S
N100 C103 1.314 . S
C101 C98 1.348 . S
C101 C103 1.353 . S
C101 H157 0.929 . S
C102 C98 1.356 . S
C102 C99 1.358 . S
C102 H158 0.930 . S
C103 N100 1.314 . S
C103 C101 1.353 . S
C103 H159 0.930 . S
C104 N105 1.314 . S
C104 C109 1.353 . S
C104 H110 0.930 . S
N105 Li88 1.990 . S
N105 C104 1.314 . S
N105 C107 1.279 . S
C106 C107 1.358 . S
C106 C108 1.356 . S
C106 H160 0.930 . S
C107 N105 1.279 . S
C107 C106 1.358 . S
C107 H111 0.930 . S
C108 C106 1.356 . S
C108 C109 1.348 . S
C109 C104 1.353 . S
C109 C108 1.348 . S
C109 H161 0.929 . S
H110 C104 0.930 . S
H111 C107 0.930 . S
C112 N113 1.314 . S
C112 C114 1.353 . S
C112 H118 0.930 . S
N113 Li89 1.990 . S
N113 C112 1.314 . S
N113 C116 1.279 1_455 S
C114 C112 1.353 . S
C114 C117 1.348 . S
C114 H162 0.929 . S
C115 C116 1.358 . S
C115 C117 1.356 1_655 S
C115 H163 0.930 . S
C116 N113 1.279 1_655 S
C116 C115 1.358 . S
C116 H119 0.930 . S
C117 C114 1.348 . S
C117 C115 1.356 1_455 S
H118 C112 0.930 . S
H119 C116 0.930 . S
C120 C122 1.348 . S
C120 C123 1.356 . S
C120 O150 1.325 . S
N121 C124 1.314 . S
N121 C125 1.279 . S
C122 C120 1.348 . S
C122 C124 1.353 . S
C122 H164 0.929 . S
C123 C120 1.356 . S
C123 C125 1.358 . S
C123 H165 0.930 1_455 S
C124 N121 1.314 . S
C124 C122 1.353 . S
C124 H166 0.930 . S
C125 N121 1.279 . S
C125 C123 1.358 . S
C125 H167 0.930 1_455 S
C126 C127 1.348 . S
C126 C128 1.356 . S
C126 O151 1.325 . S
C127 C126 1.348 . S
C127 C129 1.353 . S
C127 H168 0.929 . S
C128 C126 1.356 . S
C128 C130 1.358 . S
C128 H169 0.930 . S
C129 C127 1.353 . S
C129 N131 1.314 . S
C129 H170 0.930 . S
C130 C128 1.358 . S
C130 N131 1.279 . S
C130 H171 0.930 . S
N131 C129 1.314 . S
N131 C130 1.279 . S
C132 C134 1.353 . S
C132 N135 1.314 . S
C132 H138 0.930 . S
C133 N135 1.279 . S
C133 C136 1.358 . S
C133 H139 0.930 . S
C134 C132 1.353 . S
C134 C137 1.348 . S
C134 H172 0.929 . S
N135 Li90 1.990 . S
N135 C132 1.314 . S
N135 C133 1.279 . S
C136 C133 1.358 . S
C136 C137 1.356 . S
C136 H173 0.930 . S
C137 C134 1.348 . S
C137 C136 1.356 . S
H138 C132 0.930 . S
H139 C133 0.930 . S
C140 N141 1.314 1_655 S
C140 C142 1.353 . S
C140 H146 0.930 . S
N141 Li91 1.990 . S
N141 C140 1.314 1_455 S
N141 C144 1.279 . S
C142 C140 1.353 . S
C142 C145 1.348 1_655 S
C142 H174 0.929 . S
C143 C144 1.358 . S
C143 C145 1.356 . S
C143 H175 0.930 . S
C144 N141 1.279 . S
C144 C143 1.358 . S
C144 H147 0.930 . S
C145 C142 1.348 1_455 S
C145 C143 1.356 . S
H146 C140 0.930 . S
H147 C144 0.930 . S
O148 Li88 1.956 1_455 S
O148 Li89 1.970 . S
O148 Li90 1.961 . S
O148 C92 1.325 . S
O149 Li88 1.970 . S
O149 Li89 1.956 1_655 S
O149 Li91 1.961 1_655 S
O149 C98 1.325 . S
O150 Li88 1.961 1_455 S
O150 Li90 1.956 . S
O150 Li91 1.970 . S
O150 C120 1.325 . S
O151 Li89 1.961 . S
O151 Li90 1.970 . S
O151 Li91 1.956 . S
O151 C126 1.325 . S
H152 C94 0.943 . S
H153 C95 0.930 . S
H154 C96 0.941 . S
H155 C97 0.930 . S
H156 C99 0.930 . S
H157 C101 0.929 . S
H158 C102 0.930 . S
H159 C103 0.930 . S
H160 C106 0.930 . S
H161 C109 0.929 . S
H162 C114 0.929 . S
H163 C115 0.930 . S
H164 C122 0.929 . S
H165 C123 0.930 1_655 S
H166 C124 0.930 . S
H167 C125 0.930 1_655 S
H168 C127 0.929 . S
H169 C128 0.930 . S
H170 C129 0.930 . S
H171 C130 0.930 . S
H172 C134 0.929 . S
H173 C136 0.930 . S
H174 C142 0.929 . S
H175 C143 0.930 . S
Li176 N193 1.990 . S
Li176 O236 1.956 . S
Li176 O237 1.970 . S
Li176 O238 1.961 . S
Li177 N201 1.990 . S
Li177 O236 1.970 . S
Li177 O237 1.956 . S
Li177 O239 1.961 . S
Li178 N223 1.990 . S
Li178 O236 1.961 . S
Li178 O238 1.956 . S
Li178 O239 1.970 . S
Li179 N229 1.990 . S
Li179 O237 1.961 . S
Li179 O238 1.970 . S
Li179 O239 1.956 . S
C180 C182 1.348 . S
C180 C183 1.356 . S
C180 O236 1.325 . S
N181 C184 1.314 . S
N181 C185 1.279 . S
C182 C180 1.348 . S
C182 C184 1.353 . S
C182 H240 0.929 . S
C183 C180 1.356 . S
C183 C185 1.358 . S
C183 H241 0.930 . S
C184 N181 1.314 . S
C184 C182 1.353 . S
C184 H242 0.930 . S
C185 N181 1.279 . S
C185 C183 1.358 . S
C185 H243 0.930 . S
C186 C189 1.348 . S
C186 C190 1.356 . S
C186 O237 1.325 . S
C187 N188 1.279 . S
C187 C190 1.358 . S
C187 H244 0.930 . S
N188 C187 1.279 . S
N188 C191 1.314 . S
C189 C186 1.348 . S
C189 C191 1.353 . S
C189 H245 0.929 . S
C190 C186 1.356 . S
C190 C187 1.358 . S
C190 H246 0.930 . S
C191 N188 1.314 . S
C191 C189 1.353 . S
C191 H247 0.930 . S
C192 N193 1.314 . S
C192 C197 1.353 . S
C192 H198 0.930 . S
N193 Li176 1.990 . S
N193 C192 1.314 . S
N193 C195 1.279 . S
C194 C195 1.358 . S
C194 C196 1.356 . S
C194 H248 0.930 . S
C195 N193 1.279 . S
C195 C194 1.358 . S
C195 H199 0.930 . S
C196 C194 1.356 . S
C196 C197 1.348 . S
C197 C192 1.353 . S
C197 C196 1.348 . S
C197 H249 0.929 . S
H198 C192 0.930 . S
H199 C195 0.930 . S
C200 N201 1.314 . S
C200 C202 1.353 . S
C200 H206 0.930 . S
N201 Li177 1.990 . S
N201 C200 1.314 . S
N201 C204 1.279 . S
C202 C200 1.353 . S
C202 C205 1.348 . S
C202 H250 0.929 . S
C203 C204 1.358 . S
C203 C205 1.356 . S
C203 H251 0.930 . S
C204 N201 1.279 . S
C204 C203 1.358 . S
C204 H207 0.930 . S
C205 C202 1.348 . S
C205 C203 1.356 . S
H206 C200 0.930 . S
H207 C204 0.930 . S
C208 C210 1.348 . S
C208 C211 1.356 . S
C208 O238 1.325 . S
N209 C212 1.314 . S
N209 C213 1.279 . S
C210 C208 1.348 . S
C210 C212 1.353 . S
C210 H252 0.929 . S
C211 C208 1.356 . S
C211 C213 1.358 . S
C211 H253 0.930 . S
C212 N209 1.314 . S
C212 C210 1.353 . S
C212 H254 0.930 . S
C213 N209 1.279 . S
C213 C211 1.358 . S
C213 H255 0.930 . S
C214 C215 1.348 . S
C214 C216 1.356 . S
C214 O239 1.325 . S
C215 C214 1.348 . S
C215 C217 1.353 . S
C215 H256 0.929 . S
C216 C214 1.356 . S
C216 C218 1.358 . S
C216 H257 0.930 . S
C217 C215 1.353 . S
C217 N219 1.314 . S
C217 H258 0.930 . S
C218 C216 1.358 . S
C218 N219 1.279 . S
C218 H259 0.930 . S
N219 C217 1.314 . S
N219 C218 1.279 . S
C220 C222 1.353 . S
C220 N223 1.314 . S
C220 H226 0.930 . S
C221 N223 1.279 . S
C221 C224 1.358 . S
C221 H227 0.930 . S
C222 C220 1.353 . S
C222 C225 1.348 . S
C222 H260 0.929 . S
N223 Li178 1.990 . S
N223 C220 1.314 . S
N223 C221 1.279 . S
C224 C221 1.358 . S
C224 C225 1.356 . S
C224 H261 0.930 . S
C225 C222 1.348 . S
C225 C224 1.356 . S
H226 C220 0.930 . S
H227 C221 0.930 . S
C228 N229 1.314 . S
C228 C230 1.353 . S
C228 H234 0.930 . S
N229 Li179 1.990 . S
N229 C228 1.314 . S
N229 C232 1.279 . S
C230 C228 1.353 . S
C230 C233 1.348 . S
C230 H262 0.929 . S
C231 C232 1.358 . S
C231 C233 1.356 . S
C231 H263 0.930 . S
C232 N229 1.279 . S
C232 C231 1.358 . S
C232 H235 0.930 . S
C233 C230 1.348 . S
C233 C231 1.356 . S
H234 C228 0.930 . S
H235 C232 0.930 . S
O236 Li176 1.956 . S
O236 Li177 1.970 . S
O236 Li178 1.961 . S
O236 C180 1.325 . S
O237 Li176 1.970 . S
O237 Li177 1.956 . S
O237 Li179 1.961 . S
O237 C186 1.325 . S
O238 Li176 1.961 . S
O238 Li178 1.956 . S
O238 Li179 1.970 . S
O238 C208 1.325 . S
O239 Li177 1.961 . S
O239 Li178 1.970 . S
O239 Li179 1.956 . S
O239 C214 1.325 . S
H240 C182 0.929 . S
H241 C183 0.930 . S
H242 C184 0.930 . S
H243 C185 0.930 . S
H244 C187 0.930 . S
H245 C189 0.929 . S
H246 C190 0.930 . S
H247 C191 0.930 . S
H248 C194 0.930 . S
H249 C197 0.929 . S
H250 C202 0.929 . S
H251 C203 0.930 . S
H252 C210 0.929 . S
H253 C211 0.930 . S
H254 C212 0.930 . S
H255 C213 0.930 . S
H256 C215 0.929 . S
H257 C216 0.930 . S
H258 C217 0.930 . S
H259 C218 0.930 . S
H260 C222 0.929 . S
H261 C224 0.930 . S
H262 C230 0.929 . S
H263 C231 0.930 . S
Li264 N281 1.990 . S
Li264 O324 1.956 . S
Li264 O325 1.970 . S
Li264 O326 1.961 . S
Li265 N289 1.990 . S
Li265 O324 1.970 . S
Li265 O325 1.956 . S
Li265 O327 1.961 . S
Li266 N311 1.990 . S
Li266 O324 1.961 . S
Li266 O326 1.956 . S
Li266 O327 1.970 . S
Li267 N317 1.990 . S
Li267 O325 1.961 . S
Li267 O326 1.970 . S
Li267 O327 1.956 . S
C268 C270 1.348 . S
C268 C271 1.356 . S
C268 O324 1.325 . S
N269 C272 1.314 . S
N269 C273 1.279 . S
C270 C268 1.348 . S
C270 C272 1.353 . S
C270 H328 0.929 . S
C271 C268 1.356 . S
C271 C273 1.358 . S
C271 H329 0.930 . S
C272 N269 1.314 . S
C272 C270 1.353 . S
C272 H330 0.930 . S
C273 N269 1.279 . S
C273 C271 1.358 . S
C273 H331 0.930 . S
C274 C277 1.348 . S
C274 C278 1.356 . S
C274 O325 1.325 . S
C275 N276 1.279 . S
C275 C278 1.358 . S
C275 H332 0.930 . S
N276 C275 1.279 . S
N276 C279 1.314 . S
C277 C274 1.348 . S
C277 C279 1.353 . S
C277 H333 0.929 . S
C278 C274 1.356 . S
C278 C275 1.358 . S
C278 H334 0.930 . S
C279 N276 1.314 . S
C279 C277 1.353 . S
C279 H335 0.930 . S
C280 N281 1.314 . S
C280 C285 1.353 . S
C280 H286 0.930 . S
N281 Li264 1.990 . S
N281 C280 1.314 . S
N281 C283 1.279 . S
C282 C283 1.358 . S
C282 C284 1.356 . S
C282 H336 0.930 . S
C283 N281 1.279 . S
C283 C282 1.358 . S
C283 H287 0.930 . S
C284 C282 1.356 . S
C284 C285 1.348 . S
C285 C280 1.353 . S
C285 C284 1.348 . S
C285 H337 0.929 . S
H286 C280 0.930 . S
H287 C283 0.930 . S
C288 N289 1.314 . S
C288 C290 1.353 . S
C288 H294 0.930 . S
N289 Li265 1.990 . S
N289 C288 1.314 . S
N289 C292 1.279 . S
C290 C288 1.353 . S
C290 C293 1.348 . S
C290 H338 0.929 . S
C291 C292 1.358 . S
C291 C293 1.356 . S
C291 H339 0.930 . S
C292 N289 1.279 . S
C292 C291 1.358 . S
C292 H295 0.930 . S
C293 C290 1.348 . S
C293 C291 1.356 . S
H294 C288 0.930 . S
H295 C292 0.930 . S
C296 C298 1.348 . S
C296 C299 1.356 . S
C296 O326 1.325 . S
N297 C300 1.314 . S
N297 C301 1.279 . S
C298 C296 1.348 . S
C298 C300 1.353 . S
C298 H340 0.929 . S
C299 C296 1.356 . S
C299 C301 1.358 . S
C299 H341 0.930 . S
C300 N297 1.314 . S
C300 C298 1.353 . S
C300 H342 0.930 . S
C301 N297 1.279 . S
C301 C299 1.358 . S
C301 H343 0.930 . S
C302 C303 1.348 . S
C302 C304 1.356 . S
C302 O327 1.325 . S
C303 C302 1.348 . S
C303 C305 1.353 . S
C303 H344 0.929 . S
C304 C302 1.356 . S
C304 C306 1.358 . S
C304 H345 0.930 . S
C305 C303 1.353 . S
C305 N307 1.314 . S
C305 H346 0.930 . S
C306 C304 1.358 . S
C306 N307 1.279 . S
C306 H347 0.930 . S
N307 C305 1.314 . S
N307 C306 1.279 . S
C308 C310 1.353 . S
C308 N311 1.314 . S
C308 H314 0.930 . S
C309 N311 1.279 . S
C309 C312 1.358 . S
C309 H315 0.930 . S
C310 C308 1.353 . S
C310 C313 1.348 . S
C310 H348 0.929 . S
N311 Li266 1.990 . S
N311 C308 1.314 . S
N311 C309 1.279 . S
C312 C309 1.358 . S
C312 C313 1.356 . S
C312 H349 0.930 . S
C313 C310 1.348 . S
C313 C312 1.356 . S
H314 C308 0.930 . S
H315 C309 0.930 . S
C316 N317 1.314 . S
C316 C318 1.353 . S
C316 H322 0.930 . S
N317 Li267 1.990 . S
N317 C316 1.314 . S
N317 C320 1.279 . S
C318 C316 1.353 . S
C318 C321 1.348 . S
C318 H350 0.929 . S
C319 C320 1.358 . S
C319 C321 1.356 . S
C319 H351 0.930 . S
C320 N317 1.279 . S
C320 C319 1.358 . S
C320 H323 0.930 . S
C321 C318 1.348 . S
C321 C319 1.356 . S
H322 C316 0.930 . S
H323 C320 0.930 . S
O324 Li264 1.956 . S
O324 Li265 1.970 . S
O324 Li266 1.961 . S
O324 C268 1.325 . S
O325 Li264 1.970 . S
O325 Li265 1.956 . S
O325 Li267 1.961 . S
O325 C274 1.325 . S
O326 Li264 1.961 . S
O326 Li266 1.956 . S
O326 Li267 1.970 . S
O326 C296 1.325 . S
O327 Li265 1.961 . S
O327 Li266 1.970 . S
O327 Li267 1.956 . S
O327 C302 1.325 . S
H328 C270 0.929 . S
H329 C271 0.930 . S
H330 C272 0.930 . S
H331 C273 0.930 . S
H332 C275 0.930 . S
H333 C277 0.929 . S
H334 C278 0.930 . S
H335 C279 0.930 . S
H336 C282 0.930 . S
H337 C285 0.929 . S
H338 C290 0.929 . S
H339 C291 0.930 . S
H340 C298 0.929 . S
H341 C299 0.930 . S
H342 C300 0.930 . S
H343 C301 0.930 . S
H344 C303 0.929 . S
H345 C304 0.930 . S
H346 C305 0.930 . S
H347 C306 0.930 . S
H348 C310 0.929 . S
H349 C312 0.930 . S
H350 C318 0.929 . S
H351 C319 0.930 . S
Li352 N369 1.990 . S
Li352 O412 1.956 . S
Li352 O413 1.970 . S
Li352 O414 1.961 1_545 S
Li353 N377 1.990 . S
Li353 O412 1.970 . S
Li353 O413 1.956 . S
Li353 O415 1.961 . S
Li354 N399 1.990 . S
Li354 O412 1.961 . S
Li354 O414 1.956 1_545 S
Li354 O415 1.970 . S
Li355 N405 1.990 . S
Li355 O413 1.961 1_565 S
Li355 O414 1.970 . S
Li355 O415 1.956 1_565 S
C356 C358 1.348 . S
C356 C359 1.356 . S
C356 O412 1.325 . S
N357 C360 1.314 . S
N357 C361 1.279 . S
C358 C356 1.348 . S
C358 C360 1.353 . S
C358 H416 0.929 . S
C359 C356 1.356 . S
C359 C361 1.358 . S
C359 H417 0.930 . S
C360 N357 1.314 . S
C360 C358 1.353 . S
C360 H418 0.930 . S
C361 N357 1.279 . S
C361 C359 1.358 . S
C361 H419 0.930 . S
C362 C365 1.348 . S
C362 C366 1.356 . S
C362 O413 1.325 . S
C363 N364 1.279 . S
C363 C366 1.358 . S
C363 H420 0.930 . S
N364 C363 1.279 . S
N364 C367 1.314 . S
C365 C362 1.348 . S
C365 C367 1.353 . S
C365 H421 0.929 . S
C366 C362 1.356 . S
C366 C363 1.358 . S
C366 H422 0.930 . S
C367 N364 1.314 . S
C367 C365 1.353 . S
C367 H423 0.930 . S
C368 N369 1.338 . S
C368 C373 1.351 1_545 S
C368 H374 0.905 1_545 S
N369 Li352 1.990 . S
N369 C368 1.338 . S
N369 C371 1.279 . S
C370 C371 1.358 . S
C370 C372 1.356 . S
C370 H424 0.930 . S
C371 N369 1.279 . S
C371 C370 1.358 . S
C371 H375 0.930 . S
C372 C370 1.356 . S
C372 C373 1.348 1_545 S
C373 C368 1.351 1_565 S
C373 C372 1.348 1_565 S
C373 H425 0.929 . S
H374 C368 0.905 1_565 S
H375 C371 0.930 . S
C376 N377 1.314 . S
C376 C378 1.353 . S
C376 H382 0.930 . S
N377 Li353 1.990 . S
N377 C376 1.314 . S
N377 C380 1.279 . S
C378 C376 1.353 . S
C378 C381 1.348 . S
C378 H426 0.929 . S
C379 C380 1.358 . S
C379 C381 1.356 . S
C379 H427 0.930 . S
C380 N377 1.279 . S
C380 C379 1.358 . S
C380 H383 0.930 . S
C381 C378 1.348 . S
C381 C379 1.356 . S
H382 C376 0.930 . S
H383 C380 0.930 . S
C384 C386 1.348 . S
C384 C387 1.356 . S
C384 O414 1.325 . S
N385 C388 1.314 . S
N385 C389 1.279 . S
C386 C384 1.348 . S
C386 C388 1.353 . S
C386 H428 0.929 . S
C387 C384 1.356 . S
C387 C389 1.358 . S
C387 H429 0.930 . S
C388 N385 1.314 . S
C388 C386 1.353 . S
C388 H430 0.930 . S
C389 N385 1.279 . S
C389 C387 1.358 . S
C389 H431 0.930 . S
C390 C391 1.348 . S
C390 C392 1.356 . S
C390 O415 1.325 . S
C391 C390 1.348 . S
C391 C393 1.353 . S
C391 H432 0.929 . S
C392 C390 1.356 . S
C392 C394 1.358 . S
C392 H433 0.930 . S
C393 C391 1.353 . S
C393 N395 1.314 . S
C393 H434 0.930 . S
C394 C392 1.358 . S
C394 N395 1.279 . S
C394 H435 0.930 . S
N395 C393 1.314 . S
N395 C394 1.279 . S
C396 C398 1.353 . S
C396 N399 1.314 . S
C396 H402 0.930 . S
C397 N399 1.279 1_565 S
C397 C400 1.358 . S
C397 H403 0.930 . S
C398 C396 1.353 . S
C398 C401 1.348 . S
C398 H436 0.929 . S
N399 Li354 1.990 . S
N399 C396 1.314 . S
N399 C397 1.279 1_545 S
C400 C397 1.358 . S
C400 C401 1.356 1_565 S
C400 H437 0.930 . S
C401 C398 1.348 . S
C401 C400 1.356 1_545 S
H402 C396 0.930 . S
H403 C397 0.930 . S
C404 N405 1.314 . S
C404 C406 1.353 . S
C404 H410 0.930 . S
N405 Li355 1.990 . S
N405 C404 1.314 . S
N405 C408 1.279 . S
C406 C404 1.353 . S
C406 C409 1.348 . S
C406 H438 0.929 . S
C407 C408 1.358 . S
C407 C409 1.356 . S
C407 H439 0.930 . S
C408 N405 1.279 . S
C408 C407 1.358 . S
C408 H411 0.930 . S
C409 C406 1.348 . S
C409 C407 1.356 . S
H410 C404 0.930 . S
H411 C408 0.930 . S
O412 Li352 1.956 . S
O412 Li353 1.970 . S
O412 Li354 1.961 . S
O412 C356 1.325 . S
O413 Li352 1.970 . S
O413 Li353 1.956 . S
O413 Li355 1.961 1_545 S
O413 C362 1.325 . S
O414 Li352 1.961 1_565 S
O414 Li354 1.956 1_565 S
O414 Li355 1.970 . S
O414 C384 1.325 . S
O415 Li353 1.961 . S
O415 Li354 1.970 . S
O415 Li355 1.956 1_545 S
O415 C390 1.325 . S
H416 C358 0.929 . S
H417 C359 0.930 . S
H418 C360 0.930 . S
H419 C361 0.930 . S
H420 C363 0.930 . S
H421 C365 0.929 . S
H422 C366 0.930 . S
H423 C367 0.930 . S
H424 C370 0.930 . S
H425 C373 0.929 . S
H426 C378 0.929 . S
H427 C379 0.930 . S
H428 C386 0.929 . S
H429 C387 0.930 . S
H430 C388 0.930 . S
H431 C389 0.930 . S
H432 C391 0.929 . S
H433 C392 0.930 . S
H434 C393 0.930 . S
H435 C394 0.930 . S
H436 C398 0.929 . S
H437 C400 0.930 . S
H438 C406 0.929 . S
H439 C407 0.930 . S
Li440 N457 1.990 . S
Li440 O500 1.956 . S
Li440 O501 1.970 . S
Li440 O502 1.961 . S
Li441 N465 1.990 . S
Li441 O500 1.970 . S
Li441 O501 1.956 . S
Li441 O503 1.961 . S
Li442 N487 1.990 . S
Li442 O500 1.961 . S
Li442 O502 1.956 . S
Li442 O503 1.970 . S
Li443 N493 1.990 . S
Li443 O501 1.961 . S
Li443 O502 1.970 . S
Li443 O503 1.956 . S
C444 C446 1.348 . S
C444 C447 1.356 . S
C444 O500 1.325 . S
N445 C448 1.314 . S
N445 C449 1.279 . S
C446 C444 1.348 . S
C446 C448 1.353 . S
C446 H504 0.929 . S
C447 C444 1.356 . S
C447 C449 1.358 . S
C447 H505 0.930 . S
C448 N445 1.314 . S
C448 C446 1.353 . S
C448 H506 0.930 . S
C449 N445 1.279 . S
C449 C447 1.358 . S
C449 H507 0.930 . S
C450 C453 1.348 . S
C450 C454 1.356 . S
C450 O501 1.325 . S
C451 N452 1.279 . S
C451 C454 1.358 . S
C451 H508 0.930 . S
N452 C451 1.279 . S
N452 C455 1.314 . S
C453 C450 1.348 . S
C453 C455 1.353 . S
C453 H509 0.929 . S
C454 C450 1.356 . S
C454 C451 1.358 . S
C454 H510 0.930 . S
C455 N452 1.314 . S
C455 C453 1.353 . S
C455 H511 0.930 . S
C456 N457 1.314 . S
C456 C461 1.353 . S
C456 H462 0.930 . S
N457 Li440 1.990 . S
N457 C456 1.314 . S
N457 C459 1.279 . S
C458 C459 1.358 . S
C458 C460 1.356 . S
C458 H512 0.930 . S
C459 N457 1.279 . S
C459 C458 1.358 . S
C459 H463 0.930 . S
C460 C458 1.356 . S
C460 C461 1.348 . S
C461 C456 1.353 . S
C461 C460 1.348 . S
C461 H513 0.929 . S
H462 C456 0.930 . S
H463 C459 0.930 . S
C464 N465 1.314 . S
C464 C466 1.353 . S
C464 H470 0.930 . S
N465 Li441 1.990 . S
N465 C464 1.314 . S
N465 C468 1.279 . S
C466 C464 1.353 . S
C466 C469 1.348 . S
C466 H514 0.929 . S
C467 C468 1.358 . S
C467 C469 1.356 . S
C467 H515 0.930 . S
C468 N465 1.279 . S
C468 C467 1.358 . S
C468 H471 0.930 . S
C469 C466 1.348 . S
C469 C467 1.356 . S
H470 C464 0.930 . S
H471 C468 0.930 . S
C472 C474 1.348 . S
C472 C475 1.356 . S
C472 O502 1.325 . S
N473 C476 1.314 . S
N473 C477 1.279 . S
C474 C472 1.348 . S
C474 C476 1.353 . S
C474 H516 0.929 . S
C475 C472 1.356 . S
C475 C477 1.358 . S
C475 H517 0.930 . S
C476 N473 1.314 . S
C476 C474 1.353 . S
C476 H518 0.930 . S
C477 N473 1.279 . S
C477 C475 1.358 . S
C477 H519 0.930 . S
C478 C479 1.348 . S
C478 C480 1.356 . S
C478 O503 1.325 . S
C479 C478 1.348 . S
C479 C481 1.353 . S
C479 H520 0.929 . S
C480 C478 1.356 . S
C480 C482 1.358 . S
C480 H521 0.930 . S
C481 C479 1.353 . S
C481 N483 1.314 . S
C481 H522 0.930 . S
C482 C480 1.358 . S
C482 N483 1.279 . S
C482 H523 0.930 . S
N483 C481 1.314 . S
N483 C482 1.279 . S
C484 C486 1.353 . S
C484 N487 1.314 . S
C484 H490 0.930 . S
C485 N487 1.279 . S
C485 C488 1.358 . S
C485 H491 0.930 . S
C486 C484 1.353 . S
C486 C489 1.348 . S
C486 H524 0.929 . S
N487 Li442 1.990 . S
N487 C484 1.314 . S
N487 C485 1.279 . S
C488 C485 1.358 . S
C488 C489 1.356 . S
C488 H525 0.930 . S
C489 C486 1.348 . S
C489 C488 1.356 . S
H490 C484 0.930 . S
H491 C485 0.930 . S
C492 N493 1.314 . S
C492 C494 1.353 . S
C492 H498 0.930 . S
N493 Li443 1.990 . S
N493 C492 1.314 . S
N493 C496 1.279 . S
C494 C492 1.353 . S
C494 C497 1.348 . S
C494 H526 0.929 . S
C495 C496 1.358 . S
C495 C497 1.356 . S
C495 H527 0.930 . S
C496 N493 1.279 . S
C496 C495 1.358 . S
C496 H499 0.930 . S
C497 C494 1.348 . S
C497 C495 1.356 . S
H498 C492 0.930 . S
H499 C496 0.930 . S
O500 Li440 1.956 . S
O500 Li441 1.970 . S
O500 Li442 1.961 . S
O500 C444 1.325 . S
O501 Li440 1.970 . S
O501 Li441 1.956 . S
O501 Li443 1.961 . S
O501 C450 1.325 . S
O502 Li440 1.961 . S
O502 Li442 1.956 . S
O502 Li443 1.970 . S
O502 C472 1.325 . S
O503 Li441 1.961 . S
O503 Li442 1.970 . S
O503 Li443 1.956 . S
O503 C478 1.325 . S
H504 C446 0.929 . S
H505 C447 0.930 . S
H506 C448 0.930 . S
H507 C449 0.930 . S
H508 C451 0.930 . S
H509 C453 0.929 . S
H510 C454 0.930 . S
H511 C455 0.930 . S
H512 C458 0.930 . S
H513 C461 0.929 . S
H514 C466 0.929 . S
H515 C467 0.930 . S
H516 C474 0.929 . S
H517 C475 0.930 . S
H518 C476 0.930 . S
H519 C477 0.930 . S
H520 C479 0.929 . S
H521 C480 0.930 . S
H522 C481 0.930 . S
H523 C482 0.930 . S
H524 C486 0.929 . S
H525 C488 0.930 . S
H526 C494 0.929 . S
H527 C495 0.930 . S
Li528 N545 1.990 . S
Li528 O588 1.939 1_565 S
Li528 O589 1.970 . S
Li528 O590 1.971 . S
Li529 N553 1.990 . S
Li529 O588 1.969 1_565 S
Li529 O589 1.969 . S
Li529 O591 1.947 1_565 S
Li530 N575 1.990 . S
Li530 O588 1.977 . S
Li530 O590 1.946 1_545 S
Li530 O591 1.970 . S
Li531 N581 1.990 . S
Li531 O589 1.961 1_545 S
Li531 O590 1.970 1_545 S
Li531 O591 1.956 . S
C532 C534 1.352 . S
C532 C535 1.353 1_565 S
C532 O588 1.324 1_565 S
N533 C536 1.314 . S
N533 C537 1.279 1_565 S
C534 C532 1.352 . S
C534 C536 1.353 . S
C534 H592 0.929 . S
C535 C532 1.353 1_545 S
C535 C537 1.358 . S
C535 H593 0.930 . S
C536 N533 1.314 . S
C536 C534 1.353 . S
C536 H594 0.930 . S
C537 N533 1.279 1_545 S
C537 C535 1.358 . S
C537 H595 0.930 . S
C538 C541 1.348 . S
C538 C542 1.356 . S
C538 O589 1.325 . S
C539 N540 1.279 . S
C539 C542 1.358 . S
C539 H596 0.930 . S
N540 C539 1.279 . S
N540 C543 1.314 . S
C541 C538 1.348 . S
C541 C543 1.353 . S
C541 H597 0.929 . S
C542 C538 1.356 . S
C542 C539 1.358 . S
C542 H598 0.930 . S
C543 N540 1.314 . S
C543 C541 1.353 . S
C543 H599 0.930 . S
C544 N545 1.314 . S
C544 C549 1.353 . S
C544 H550 0.930 . S
N545 Li528 1.990 . S
N545 C544 1.314 . S
N545 C547 1.279 . S
C546 C547 1.358 . S
C546 C548 1.356 . S
C546 H600 0.930 . S
C547 N545 1.279 . S
C547 C546 1.358 . S
C547 H551 0.930 . S
C548 C546 1.356 . S
C548 C549 1.348 . S
C549 C544 1.353 . S
C549 C548 1.348 . S
C549 H601 0.929 . S
H550 C544 0.930 . S
H551 C547 0.930 . S
C552 N553 1.282 1_545 S
C552 C554 1.353 . S
C552 H558 0.930 . S
N553 Li529 1.990 . S
N553 C552 1.282 1_565 S
N553 C556 1.311 . S
C554 C552 1.353 . S
C554 C557 1.347 . S
C554 H602 0.929 . S
C555 C556 1.358 . S
C555 C557 1.356 1_565 S
C555 H603 0.930 . S
C556 N553 1.311 . S
C556 C555 1.358 . S
C556 H559 0.930 . S
C557 C554 1.347 . S
C557 C555 1.356 1_545 S
H558 C552 0.930 . S
H559 C556 0.930 . S
C560 C562 1.351 . S
C560 C563 1.354 1_545 S
C560 O590 1.324 1_545 S
N561 C564 1.314 . S
N561 C565 1.279 1_545 S
C562 C560 1.351 . S
C562 C564 1.353 . S
C562 H604 0.929 . S
C563 C560 1.354 1_565 S
C563 C565 1.358 . S
C563 H605 0.930 . S
C564 N561 1.314 . S
C564 C562 1.353 . S
C564 H606 0.930 . S
C565 N561 1.279 1_565 S
C565 C563 1.358 . S
C565 H607 0.930 . S
C566 C567 1.348 . S
C566 C568 1.356 . S
C566 O591 1.325 . S
C567 C566 1.348 . S
C567 C569 1.353 . S
C567 H608 0.929 . S
C568 C566 1.356 . S
C568 C570 1.358 . S
C568 H609 0.930 . S
C569 C567 1.353 . S
C569 N571 1.314 . S
C569 H610 0.930 . S
C570 C568 1.358 . S
C570 N571 1.279 . S
C570 H611 0.930 . S
N571 C569 1.314 . S
N571 C570 1.279 . S
C572 C574 1.353 . S
C572 N575 1.314 . S
C572 H578 0.930 . S
C573 N575 1.279 . S
C573 C576 1.358 . S
C573 H579 0.930 . S
C574 C572 1.353 . S
C574 C577 1.348 . S
C574 H612 0.929 . S
N575 Li530 1.990 . S
N575 C572 1.314 . S
N575 C573 1.279 . S
C576 C573 1.358 . S
C576 C577 1.356 . S
C576 H613 0.930 . S
C577 C574 1.348 . S
C577 C576 1.356 . S
H578 C572 0.930 . S
H579 C573 0.930 . S
C580 N581 1.314 1_565 S
C580 C582 1.353 . S
C580 H586 0.930 . S
N581 Li531 1.990 . S
N581 C580 1.314 1_545 S
N581 C584 1.279 . S
C582 C580 1.353 . S
C582 C585 1.348 1_565 S
C582 H614 0.929 . S
C583 C584 1.358 . S
C583 C585 1.356 . S
C583 H615 0.930 . S
C584 N581 1.279 . S
C584 C583 1.358 . S
C584 H587 0.930 . S
C585 C582 1.348 1_545 S
C585 C583 1.356 . S
H586 C580 0.930 . S
H587 C584 0.930 . S
O588 Li528 1.939 1_545 S
O588 Li529 1.969 1_545 S
O588 Li530 1.977 . S
O588 C532 1.324 1_545 S
O589 Li528 1.970 . S
O589 Li529 1.969 . S
O589 Li531 1.961 1_565 S
O589 C538 1.325 . S
O590 Li528 1.971 . S
O590 Li530 1.946 1_565 S
O590 Li531 1.970 1_565 S
O590 C560 1.324 1_565 S
O591 Li529 1.947 1_545 S
O591 Li530 1.970 . S
O591 Li531 1.956 . S
O591 C566 1.325 . S
H592 C534 0.929 . S
H593 C535 0.930 . S
H594 C536 0.930 . S
H595 C537 0.930 . S
H596 C539 0.930 . S
H597 C541 0.929 . S
H598 C542 0.930 . S
H599 C543 0.930 . S
H600 C546 0.930 . S
H601 C549 0.929 . S
H602 C554 0.929 . S
H603 C555 0.930 . S
H604 C562 0.929 . S
H605 C563 0.930 . S
H606 C564 0.930 . S
H607 C565 0.930 . S
H608 C567 0.929 . S
H609 C568 0.930 . S
H610 C569 0.930 . S
H611 C570 0.930 . S
H612 C574 0.929 . S
H613 C576 0.930 . S
H614 C582 0.929 . S
H615 C583 0.930 . S
Li616 N633 1.990 . S
Li616 O676 1.956 . S
Li616 O677 1.970 . S
Li616 O678 1.961 . S
Li617 N641 1.990 . S
Li617 O676 1.970 . S
Li617 O677 1.956 . S
Li617 O679 1.961 1_554 S
Li618 N663 1.990 . S
Li618 O676 1.961 1_556 S
Li618 O678 1.956 1_556 S
Li618 O679 1.970 . S
Li619 N669 1.990 . S
Li619 O677 1.961 . S
Li619 O678 1.970 . S
Li619 O679 1.956 1_554 S
C620 C622 1.348 . S
C620 C623 1.356 . S
C620 O676 1.325 . S
N621 C624 1.314 . S
N621 C625 1.279 . S
C622 C620 1.348 . S
C622 C624 1.353 . S
C622 H680 0.929 . S
C623 C620 1.356 . S
C623 C625 1.358 . S
C623 H681 0.930 1_554 S
C624 N621 1.314 . S
C624 C622 1.353 . S
C624 H682 0.930 . S
C625 N621 1.279 . S
C625 C623 1.358 . S
C625 H683 0.930 1_554 S
C626 C629 1.348 . S
C626 C630 1.356 . S
C626 O677 1.325 . S
C627 N628 1.279 . S
C627 C630 1.358 . S
C627 H684 0.930 . S
N628 C627 1.279 . S
N628 C631 1.314 . S
C629 C626 1.348 . S
C629 C631 1.353 . S
C629 H685 0.929 . S
C630 C626 1.356 . S
C630 C627 1.358 . S
C630 H686 0.930 . S
C631 N628 1.314 . S
C631 C629 1.353 . S
C631 H687 0.930 . S
C632 N633 1.314 . S
C632 C637 1.353 . S
C632 H638 0.930 . S
N633 Li616 1.990 . S
N633 C632 1.314 . S
N633 C635 1.279 . S
C634 C635 1.358 . S
C634 C636 1.356 . S
C634 H688 0.930 . S
C635 N633 1.279 . S
C635 C634 1.358 . S
C635 H639 0.930 . S
C636 C634 1.356 . S
C636 C637 1.348 . S
C637 C632 1.353 . S
C637 C636 1.348 . S
C637 H689 0.929 . S
H638 C632 0.930 . S
H639 C635 0.930 . S
C640 N641 1.314 1_556 S
C640 C642 1.353 . S
C640 H646 0.930 . S
N641 Li617 1.990 . S
N641 C640 1.314 1_554 S
N641 C644 1.279 . S
C642 C640 1.353 . S
C642 C645 1.348 1_556 S
C642 H690 0.929 . S
C643 C644 1.358 . S
C643 C645 1.356 . S
C643 H691 0.930 . S
C644 N641 1.279 . S
C644 C643 1.358 . S
C644 H647 0.930 . S
C645 C642 1.348 1_554 S
C645 C643 1.356 . S
H646 C640 0.930 . S
H647 C644 0.930 . S
C648 C650 1.350 . S
C648 C651 1.356 . S
C648 O678 1.325 . S
N649 C652 1.313 . S
N649 C653 1.279 . S
C650 C648 1.350 . S
C650 C652 1.353 . S
C650 H692 0.927 1_554 S
C651 C648 1.356 . S
C651 C653 1.358 . S
C651 H693 0.930 . S
C652 N649 1.313 . S
C652 C650 1.353 . S
C652 H694 0.931 1_554 S
C653 N649 1.279 . S
C653 C651 1.358 . S
C653 H695 0.930 . S
C654 C655 1.348 . S
C654 C656 1.356 . S
C654 O679 1.325 . S
C655 C654 1.348 . S
C655 C657 1.353 . S
C655 H696 0.929 . S
C656 C654 1.356 . S
C656 C658 1.358 . S
C656 H697 0.930 . S
C657 C655 1.353 . S
C657 N659 1.314 . S
C657 H698 0.930 . S
C658 C656 1.358 . S
C658 N659 1.279 . S
C658 H699 0.930 . S
N659 C657 1.314 . S
N659 C658 1.279 . S
C660 C662 1.353 . S
C660 N663 1.314 . S
C660 H666 0.930 . S
C661 N663 1.279 . S
C661 C664 1.358 . S
C661 H667 0.930 . S
C662 C660 1.353 . S
C662 C665 1.348 . S
C662 H700 0.929 . S
N663 Li618 1.990 . S
N663 C660 1.314 . S
N663 C661 1.279 . S
C664 C661 1.358 . S
C664 C665 1.356 . S
C664 H701 0.930 . S
C665 C662 1.348 . S
C665 C664 1.356 . S
H666 C660 0.930 . S
H667 C661 0.930 . S
C668 N669 1.314 . S
C668 C670 1.353 . S
C668 H674 0.930 . S
N669 Li619 1.990 . S
N669 C668 1.314 . S
N669 C672 1.279 1_554 S
C670 C668 1.353 . S
C670 C673 1.348 . S
C670 H702 0.929 . S
C671 C672 1.358 . S
C671 C673 1.356 1_556 S
C671 H703 0.930 . S
C672 N669 1.279 1_556 S
C672 C671 1.358 . S
C672 H675 0.930 . S
C673 C670 1.348 . S
C673 C671 1.356 1_554 S
H674 C668 0.930 . S
H675 C672 0.930 . S
O676 Li616 1.956 . S
O676 Li617 1.970 . S
O676 Li618 1.961 1_554 S
O676 C620 1.325 . S
O677 Li616 1.970 . S
O677 Li617 1.956 . S
O677 Li619 1.961 . S
O677 C626 1.325 . S
O678 Li616 1.961 . S
O678 Li618 1.956 1_554 S
O678 Li619 1.970 . S
O678 C648 1.325 . S
O679 Li617 1.961 1_556 S
O679 Li618 1.970 . S
O679 Li619 1.956 1_556 S
O679 C654 1.325 . S
H680 C622 0.929 . S
H681 C623 0.930 1_556 S
H682 C624 0.930 . S
H683 C625 0.930 1_556 S
H684 C627 0.930 . S
H685 C629 0.929 . S
H686 C630 0.930 . S
H687 C631 0.930 . S
H688 C634 0.930 . S
H689 C637 0.929 . S
H690 C642 0.929 . S
H691 C643 0.930 . S
H692 C650 0.927 1_556 S
H693 C651 0.930 . S
H694 C652 0.931 1_556 S
H695 C653 0.930 . S
H696 C655 0.929 . S
H697 C656 0.930 . S
H698 C657 0.930 . S
H699 C658 0.930 . S
H700 C662 0.929 . S
H701 C664 0.930 . S
H702 C670 0.929 . S
H703 C671 0.930 . S
Li704 N721 1.990 . S
Li704 O764 1.956 . S
Li704 O765 1.970 . S
Li704 O766 1.961 1_554 S
Li705 N729 1.990 . S
Li705 O764 1.970 . S
Li705 O765 1.956 . S
Li705 O767 1.961 . S
Li706 N751 1.990 . S
Li706 O764 1.961 . S
Li706 O766 1.956 1_554 S
Li706 O767 1.970 . S
Li707 N757 1.990 . S
Li707 O765 1.961 1_556 S
Li707 O766 1.970 . S
Li707 O767 1.956 1_556 S
C708 C710 1.348 . S
C708 C711 1.356 . S
C708 O764 1.325 . S
N709 C712 1.314 . S
N709 C713 1.279 . S
C710 C708 1.348 . S
C710 C712 1.353 . S
C710 H768 0.929 . S
C711 C708 1.356 . S
C711 C713 1.358 . S
C711 H769 0.930 . S
C712 N709 1.314 . S
C712 C710 1.353 . S
C712 H770 0.930 . S
C713 N709 1.279 . S
C713 C711 1.358 . S
C713 H771 0.930 . S
C714 C717 1.348 . S
C714 C718 1.359 . S
C714 O765 1.325 . S
C715 N716 1.285 . S
C715 C718 1.358 . S
C715 H772 0.924 1_554 S
N716 C715 1.285 . S
N716 C719 1.314 . S
C717 C714 1.348 . S
C717 C719 1.353 . S
C717 H773 0.929 . S
C718 C714 1.359 . S
C718 C715 1.358 . S
C718 H774 0.926 1_554 S
C719 N716 1.314 . S
C719 C717 1.353 . S
C719 H775 0.930 . S
C720 N721 1.314 1_556 S
C720 C725 1.353 . S
C720 H726 0.930 . S
N721 Li704 1.990 . S
N721 C720 1.314 1_554 S
N721 C723 1.279 . S
C722 C723 1.358 . S
C722 C724 1.356 . S
C722 H776 0.930 . S
C723 N721 1.279 . S
C723 C722 1.358 . S
C723 H727 0.930 . S
C724 C722 1.356 . S
C724 C725 1.348 1_554 S
C725 C720 1.353 . S
C725 C724 1.348 1_556 S
C725 H777 0.929 . S
H726 C720 0.930 . S
H727 C723 0.930 . S
C728 N729 1.314 . S
C728 C730 1.353 . S
C728 H734 0.930 . S
N729 Li705 1.990 . S
N729 C728 1.314 . S
N729 C732 1.279 . S
C730 C728 1.353 . S
C730 C733 1.348 . S
C730 H778 0.929 . S
C731 C732 1.358 . S
C731 C733 1.356 . S
C731 H779 0.930 . S
C732 N729 1.279 . S
C732 C731 1.358 . S
C732 H735 0.930 . S
C733 C730 1.348 . S
C733 C731 1.356 . S
H734 C728 0.930 . S
H735 C732 0.930 . S
C736 C738 1.348 . S
C736 C739 1.356 . S
C736 O766 1.325 . S
N737 C740 1.314 . S
N737 C741 1.279 . S
C738 C736 1.348 . S
C738 C740 1.353 . S
C738 H780 0.929 . S
C739 C736 1.356 . S
C739 C741 1.358 . S
C739 H781 0.930 . S
C740 N737 1.314 . S
C740 C738 1.353 . S
C740 H782 0.930 . S
C741 N737 1.279 . S
C741 C739 1.358 . S
C741 H783 0.930 . S
C742 C743 1.344 1_554 S
C742 C744 1.356 . S
C742 O767 1.325 . S
C743 C742 1.344 1_556 S
C743 C745 1.353 . S
C743 H784 0.933 . S
C744 C742 1.356 . S
C744 C746 1.358 . S
C744 H785 0.930 . S
C745 C743 1.353 . S
C745 N747 1.309 1_556 S
C745 H786 0.936 . S
C746 C744 1.358 . S
C746 N747 1.279 . S
C746 H787 0.930 . S
N747 C745 1.309 1_554 S
N747 C746 1.279 . S
C748 C750 1.353 . S
C748 N751 1.314 . S
C748 H754 0.930 . S
C749 N751 1.279 1_556 S
C749 C752 1.358 . S
C749 H755 0.930 . S
C750 C748 1.353 . S
C750 C753 1.348 . S
C750 H788 0.929 . S
N751 Li706 1.990 . S
N751 C748 1.314 . S
N751 C749 1.279 1_554 S
C752 C749 1.358 . S
C752 C753 1.356 1_556 S
C752 H789 0.930 . S
C753 C750 1.348 . S
C753 C752 1.356 1_554 S
H754 C748 0.930 . S
H755 C749 0.930 . S
C756 N757 1.314 . S
C756 C758 1.353 . S
C756 H762 0.930 . S
N757 Li707 1.990 . S
N757 C756 1.314 . S
N757 C760 1.279 . S
C758 C756 1.353 . S
C758 C761 1.348 . S
C758 H790 0.929 . S
C759 C760 1.358 . S
C759 C761 1.356 . S
C759 H791 0.930 . S
C760 N757 1.279 . S
C760 C759 1.358 . S
C760 H763 0.930 . S
C761 C758 1.348 . S
C761 C759 1.356 . S
H762 C756 0.930 . S
H763 C760 0.930 . S
O764 Li704 1.956 . S
O764 Li705 1.970 . S
O764 Li706 1.961 . S
O764 C708 1.325 . S
O765 Li704 1.970 . S
O765 Li705 1.956 . S
O765 Li707 1.961 1_554 S
O765 C714 1.325 . S
O766 Li704 1.961 1_556 S
O766 Li706 1.956 1_556 S
O766 Li707 1.970 . S
O766 C736 1.325 . S
O767 Li705 1.961 . S
O767 Li706 1.970 . S
O767 Li707 1.956 1_554 S
O767 C742 1.325 . S
H768 C710 0.929 . S
H769 C711 0.930 . S
H770 C712 0.930 . S
H771 C713 0.930 . S
H772 C715 0.924 1_556 S
H773 C717 0.929 . S
H774 C718 0.926 1_556 S
H775 C719 0.930 . S
H776 C722 0.930 . S
H777 C725 0.929 . S
H778 C730 0.929 . S
H779 C731 0.930 . S
H780 C738 0.929 . S
H781 C739 0.930 . S
H782 C740 0.930 . S
H783 C741 0.930 . S
H784 C743 0.933 . S
H785 C744 0.930 . S
H786 C745 0.936 . S
H787 C746 0.930 . S
H788 C750 0.929 . S
H789 C752 0.930 . S
H790 C758 0.929 . S
H791 C759 0.930 . S
Li792 N809 1.990 . S
Li792 O852 1.956 . S
Li792 O853 1.970 . S
Li792 O854 1.961 . S
Li793 N817 1.990 . S
Li793 O852 1.970 . S
Li793 O853 1.956 . S
Li793 O855 1.961 . S
Li794 N839 1.990 . S
Li794 O852 1.961 . S
Li794 O854 1.956 . S
Li794 O855 1.970 . S
Li795 N845 1.990 . S
Li795 O853 1.961 . S
Li795 O854 1.970 . S
Li795 O855 1.956 . S
C796 C798 1.348 . S
C796 C799 1.356 . S
C796 O852 1.325 . S
N797 C800 1.314 . S
N797 C801 1.279 . S
C798 C796 1.348 . S
C798 C800 1.353 . S
C798 H856 0.929 . S
C799 C796 1.356 . S
C799 C801 1.358 . S
C799 H857 0.930 . S
C800 N797 1.314 . S
C800 C798 1.353 . S
C800 H858 0.930 . S
C801 N797 1.279 . S
C801 C799 1.358 . S
C801 H859 0.930 . S
C802 C805 1.348 . S
C802 C806 1.356 . S
C802 O853 1.325 . S
C803 N804 1.279 . S
C803 C806 1.358 . S
C803 H860 0.930 . S
N804 C803 1.279 . S
N804 C807 1.314 . S
C805 C802 1.348 . S
C805 C807 1.353 . S
C805 H861 0.929 . S
C806 C802 1.356 . S
C806 C803 1.358 . S
C806 H862 0.930 . S
C807 N804 1.314 . S
C807 C805 1.353 . S
C807 H863 0.930 . S
C808 N809 1.314 . S
C808 C813 1.353 . S
C808 H814 0.930 . S
N809 Li792 1.990 . S
N809 C808 1.314 . S
N809 C811 1.279 . S
C810 C811 1.358 . S
C810 C812 1.356 . S
C810 H864 0.930 . S
C811 N809 1.279 . S
C811 C810 1.358 . S
C811 H815 0.930 . S
C812 C810 1.356 . S
C812 C813 1.348 . S
C813 C808 1.353 . S
C813 C812 1.348 . S
C813 H865 0.929 . S
H814 C808 0.930 . S
H815 C811 0.930 . S
C816 N817 1.314 . S
C816 C818 1.353 . S
C816 H822 0.930 . S
N817 Li793 1.990 . S
N817 C816 1.314 . S
N817 C820 1.279 . S
C818 C816 1.353 . S
C818 C821 1.348 . S
C818 H866 0.929 . S
C819 C820 1.358 . S
C819 C821 1.356 . S
C819 H867 0.930 . S
C820 N817 1.279 . S
C820 C819 1.358 . S
C820 H823 0.930 . S
C821 C818 1.348 . S
C821 C819 1.356 . S
H822 C816 0.930 . S
H823 C820 0.930 . S
C824 C826 1.348 . S
C824 C827 1.356 . S
C824 O854 1.325 . S
N825 C828 1.314 . S
N825 C829 1.279 . S
C826 C824 1.348 . S
C826 C828 1.353 . S
C826 H868 0.929 . S
C827 C824 1.356 . S
C827 C829 1.358 . S
C827 H869 0.930 . S
C828 N825 1.314 . S
C828 C826 1.353 . S
C828 H870 0.930 . S
C829 N825 1.279 . S
C829 C827 1.358 . S
C829 H871 0.930 . S
C830 C831 1.348 . S
C830 C832 1.356 . S
C830 O855 1.325 . S
C831 C830 1.348 . S
C831 C833 1.353 . S
C831 H872 0.929 . S
C832 C830 1.356 . S
C832 C834 1.358 . S
C832 H873 0.930 . S
C833 C831 1.353 . S
C833 N835 1.314 . S
C833 H874 0.930 . S
C834 C832 1.358 . S
C834 N835 1.279 . S
C834 H875 0.930 . S
N835 C833 1.314 . S
N835 C834 1.279 . S
C836 C838 1.353 . S
C836 N839 1.314 . S
C836 H842 0.930 . S
C837 N839 1.279 . S
C837 C840 1.358 . S
C837 H843 0.930 . S
C838 C836 1.353 . S
C838 C841 1.348 . S
C838 H876 0.929 . S
N839 Li794 1.990 . S
N839 C836 1.314 . S
N839 C837 1.279 . S
C840 C837 1.358 . S
C840 C841 1.356 . S
C840 H877 0.930 . S
C841 C838 1.348 . S
C841 C840 1.356 . S
H842 C836 0.930 . S
H843 C837 0.930 . S
C844 N845 1.314 . S
C844 C846 1.353 . S
C844 H850 0.930 . S
N845 Li795 1.990 . S
N845 C844 1.314 . S
N845 C848 1.279 . S
C846 C844 1.353 . S
C846 C849 1.348 . S
C846 H878 0.929 . S
C847 C848 1.358 . S
C847 C849 1.356 . S
C847 H879 0.930 . S
C848 N845 1.279 . S
C848 C847 1.358 . S
C848 H851 0.930 . S
C849 C846 1.348 . S
C849 C847 1.356 . S
H850 C844 0.930 . S
H851 C848 0.930 . S
O852 Li792 1.956 . S
O852 Li793 1.970 . S
O852 Li794 1.961 . S
O852 C796 1.325 . S
O853 Li792 1.970 . S
O853 Li793 1.956 . S
O853 Li795 1.961 . S
O853 C802 1.325 . S
O854 Li792 1.961 . S
O854 Li794 1.956 . S
O854 Li795 1.970 . S
O854 C824 1.325 . S
O855 Li793 1.961 . S
O855 Li794 1.970 . S
O855 Li795 1.956 . S
O855 C830 1.325 . S
H856 C798 0.929 . S
H857 C799 0.930 . S
H858 C800 0.930 . S
H859 C801 0.930 . S
H860 C803 0.930 . S
H861 C805 0.929 . S
H862 C806 0.930 . S
H863 C807 0.930 . S
H864 C810 0.930 . S
H865 C813 0.929 . S
H866 C818 0.929 . S
H867 C819 0.930 . S
H868 C826 0.929 . S
H869 C827 0.930 . S
H870 C828 0.930 . S
H871 C829 0.930 . S
H872 C831 0.929 . S
H873 C832 0.930 . S
H874 C833 0.930 . S
H875 C834 0.930 . S
H876 C838 0.929 . S
H877 C840 0.930 . S
H878 C846 0.929 . S
H879 C847 0.930 . S
Li880 N897 1.990 . S
Li880 O940 1.956 . S
Li880 O941 1.970 . S
Li880 O942 1.961 . S
Li881 N905 1.990 . S
Li881 O940 1.970 . S
Li881 O941 1.956 . S
Li881 O943 1.961 . S
Li882 N927 1.990 . S
Li882 O940 1.961 . S
Li882 O942 1.956 . S
Li882 O943 1.970 . S
Li883 N933 1.990 . S
Li883 O941 1.961 . S
Li883 O942 1.970 . S
Li883 O943 1.956 . S
C884 C886 1.348 . S
C884 C887 1.356 . S
C884 O940 1.325 . S
N885 C888 1.314 . S
N885 C889 1.279 . S
C886 C884 1.348 . S
C886 C888 1.353 . S
C886 H944 0.929 . S
C887 C884 1.356 . S
C887 C889 1.358 . S
C887 H945 0.930 . S
C888 N885 1.314 . S
C888 C886 1.353 . S
C888 H946 0.930 . S
C889 N885 1.279 . S
C889 C887 1.358 . S
C889 H947 0.930 . S
C890 C893 1.348 . S
C890 C894 1.356 . S
C890 O941 1.325 . S
C891 N892 1.279 . S
C891 C894 1.358 . S
C891 H948 0.930 . S
N892 C891 1.279 . S
N892 C895 1.314 . S
C893 C890 1.348 . S
C893 C895 1.353 . S
C893 H949 0.929 . S
C894 C890 1.356 . S
C894 C891 1.358 . S
C894 H950 0.930 . S
C895 N892 1.314 . S
C895 C893 1.353 . S
C895 H951 0.930 . S
C896 N897 1.314 . S
C896 C901 1.353 . S
C896 H902 0.930 . S
N897 Li880 1.990 . S
N897 C896 1.314 . S
N897 C899 1.279 . S
C898 C899 1.358 . S
C898 C900 1.356 . S
C898 H952 0.930 . S
C899 N897 1.279 . S
C899 C898 1.358 . S
C899 H903 0.930 . S
C900 C898 1.356 . S
C900 C901 1.348 . S
C901 C896 1.353 . S
C901 C900 1.348 . S
C901 H953 0.929 . S
H902 C896 0.930 . S
H903 C899 0.930 . S
C904 N905 1.314 . S
C904 C906 1.353 . S
C904 H910 0.930 . S
N905 Li881 1.990 . S
N905 C904 1.314 . S
N905 C908 1.279 . S
C906 C904 1.353 . S
C906 C909 1.348 . S
C906 H954 0.929 . S
C907 C908 1.358 . S
C907 C909 1.356 . S
C907 H955 0.930 . S
C908 N905 1.279 . S
C908 C907 1.358 . S
C908 H911 0.930 . S
C909 C906 1.348 . S
C909 C907 1.356 . S
H910 C904 0.930 . S
H911 C908 0.930 . S
C912 C914 1.348 . S
C912 C915 1.356 . S
C912 O942 1.325 . S
N913 C916 1.314 . S
N913 C917 1.279 . S
C914 C912 1.348 . S
C914 C916 1.353 . S
C914 H956 0.929 . S
C915 C912 1.356 . S
C915 C917 1.358 . S
C915 H957 0.930 . S
C916 N913 1.314 . S
C916 C914 1.353 . S
C916 H958 0.930 . S
C917 N913 1.279 . S
C917 C915 1.358 . S
C917 H959 0.930 . S
C918 C919 1.348 . S
C918 C920 1.356 . S
C918 O943 1.325 . S
C919 C918 1.348 . S
C919 C921 1.353 . S
C919 H960 0.929 . S
C920 C918 1.356 . S
C920 C922 1.358 . S
C920 H961 0.930 . S
C921 C919 1.353 . S
C921 N923 1.314 . S
C921 H962 0.930 . S
C922 C920 1.358 . S
C922 N923 1.279 . S
C922 H963 0.930 . S
N923 C921 1.314 . S
N923 C922 1.279 . S
C924 C926 1.353 . S
C924 N927 1.314 . S
C924 H930 0.930 . S
C925 N927 1.279 . S
C925 C928 1.358 . S
C925 H931 0.930 . S
C926 C924 1.353 . S
C926 C929 1.348 . S
C926 H964 0.929 . S
N927 Li882 1.990 . S
N927 C924 1.314 . S
N927 C925 1.279 . S
C928 C925 1.358 . S
C928 C929 1.356 . S
C928 H965 0.930 . S
C929 C926 1.348 . S
C929 C928 1.356 . S
H930 C924 0.930 . S
H931 C925 0.930 . S
C932 N933 1.314 . S
C932 C934 1.353 . S
C932 H938 0.930 . S
N933 Li883 1.990 . S
N933 C932 1.314 . S
N933 C936 1.279 . S
C934 C932 1.353 . S
C934 C937 1.348 . S
C934 H966 0.929 . S
C935 C936 1.358 . S
C935 C937 1.356 . S
C935 H967 0.930 . S
C936 N933 1.279 . S
C936 C935 1.358 . S
C936 H939 0.930 . S
C937 C934 1.348 . S
C937 C935 1.356 . S
H938 C932 0.930 . S
H939 C936 0.930 . S
O940 Li880 1.956 . S
O940 Li881 1.970 . S
O940 Li882 1.961 . S
O940 C884 1.325 . S
O941 Li880 1.970 . S
O941 Li881 1.956 . S
O941 Li883 1.961 . S
O941 C890 1.325 . S
O942 Li880 1.961 . S
O942 Li882 1.956 . S
O942 Li883 1.970 . S
O942 C912 1.325 . S
O943 Li881 1.961 . S
O943 Li882 1.970 . S
O943 Li883 1.956 . S
O943 C918 1.325 . S
H944 C886 0.929 . S
H945 C887 0.930 . S
H946 C888 0.930 . S
H947 C889 0.930 . S
H948 C891 0.930 . S
H949 C893 0.929 . S
H950 C894 0.930 . S
H951 C895 0.930 . S
H952 C898 0.930 . S
H953 C901 0.929 . S
H954 C906 0.929 . S
H955 C907 0.930 . S
H956 C914 0.929 . S
H957 C915 0.930 . S
H958 C916 0.930 . S
H959 C917 0.930 . S
H960 C919 0.929 . S
H961 C920 0.930 . S
H962 C921 0.930 . S
H963 C922 0.930 . S
H964 C926 0.929 . S
H965 C928 0.930 . S
H966 C934 0.929 . S
H967 C935 0.930 . S
Li968 N985 1.990 . S
Li968 O1028 1.956 . S
Li968 O1029 1.970 . S
Li968 O1030 1.961 . S
Li969 N993 1.990 . S
Li969 O1028 1.970 . S
Li969 O1029 1.956 . S
Li969 O1031 1.961 . S
Li970 N1015 1.990 . S
Li970 O1028 1.961 . S
Li970 O1030 1.956 . S
Li970 O1031 1.970 . S
Li971 N1021 1.990 . S
Li971 O1029 1.961 . S
Li971 O1030 1.970 . S
Li971 O1031 1.956 . S
C972 C974 1.348 . S
C972 C975 1.356 . S
C972 O1028 1.325 . S
N973 C976 1.314 . S
N973 C977 1.279 . S
C974 C972 1.348 . S
C974 C976 1.353 . S
C974 H1032 0.929 . S
C975 C972 1.356 . S
C975 C977 1.358 . S
C975 H1033 0.930 . S
C976 N973 1.314 . S
C976 C974 1.353 . S
C976 H1034 0.930 . S
C977 N973 1.279 . S
C977 C975 1.358 . S
C977 H1035 0.930 . S
C978 C981 1.348 . S
C978 C982 1.356 . S
C978 O1029 1.325 . S
C979 N980 1.279 . S
C979 C982 1.358 . S
C979 H1036 0.930 . S
N980 C979 1.279 . S
N980 C983 1.314 . S
C981 C978 1.348 . S
C981 C983 1.353 . S
C981 H1037 0.929 . S
C982 C978 1.356 . S
C982 C979 1.358 . S
C982 H1038 0.930 . S
C983 N980 1.314 . S
C983 C981 1.353 . S
C983 H1039 0.930 . S
C984 N985 1.314 . S
C984 C989 1.353 . S
C984 H990 0.930 . S
N985 Li968 1.990 . S
N985 C984 1.314 . S
N985 C987 1.279 . S
C986 C987 1.358 . S
C986 C988 1.356 . S
C986 H1040 0.930 . S
C987 N985 1.279 . S
C987 C986 1.358 . S
C987 H991 0.930 . S
C988 C986 1.356 . S
C988 C989 1.348 . S
C989 C984 1.353 . S
C989 C988 1.348 . S
C989 H1041 0.929 . S
H990 C984 0.930 . S
H991 C987 0.930 . S
C992 N993 1.314 . S
C992 C994 1.353 . S
C992 H998 0.930 . S
N993 Li969 1.990 . S
N993 C992 1.314 . S
N993 C996 1.279 . S
C994 C992 1.353 . S
C994 C997 1.348 . S
C994 H1042 0.929 . S
C995 C996 1.358 . S
C995 C997 1.356 . S
C995 H1043 0.930 . S
C996 N993 1.279 . S
C996 C995 1.358 . S
C996 H999 0.930 . S
C997 C994 1.348 . S
C997 C995 1.356 . S
H998 C992 0.930 . S
H999 C996 0.930 . S
C1000 C1002 1.348 . S
C1000 C1003 1.356 . S
C1000 O1030 1.325 . S
N1001 C1004 1.314 . S
N1001 C1005 1.279 . S
C1002 C1000 1.348 . S
C1002 C1004 1.353 . S
C1002 H1044 0.929 . S
C1003 C1000 1.356 . S
C1003 C1005 1.358 . S
C1003 H1045 0.930 . S
C1004 N1001 1.314 . S
C1004 C1002 1.353 . S
C1004 H1046 0.930 . S
C1005 N1001 1.279 . S
C1005 C1003 1.358 . S
C1005 H1047 0.930 . S
C1006 C1007 1.348 . S
C1006 C1008 1.356 . S
C1006 O1031 1.325 . S
C1007 C1006 1.348 . S
C1007 C1009 1.353 . S
C1007 H1048 0.929 . S
C1008 C1006 1.356 . S
C1008 C1010 1.358 . S
C1008 H1049 0.930 . S
C1009 C1007 1.353 . S
C1009 N1011 1.314 . S
C1009 H1050 0.930 . S
C1010 C1008 1.358 . S
C1010 N1011 1.279 . S
C1010 H1051 0.930 . S
N1011 C1009 1.314 . S
N1011 C1010 1.279 . S
C1012 C1014 1.353 . S
C1012 N1015 1.314 . S
C1012 H1018 0.930 . S
C1013 N1015 1.279 . S
C1013 C1016 1.358 . S
C1013 H1019 0.930 . S
C1014 C1012 1.353 . S
C1014 C1017 1.348 . S
C1014 H1052 0.929 . S
N1015 Li970 1.990 . S
N1015 C1012 1.314 . S
N1015 C1013 1.279 . S
C1016 C1013 1.358 . S
C1016 C1017 1.356 . S
C1016 H1053 0.930 . S
C1017 C1014 1.348 . S
C1017 C1016 1.356 . S
H1018 C1012 0.930 . S
H1019 C1013 0.930 . S
C1020 N1021 1.314 . S
C1020 C1022 1.353 . S
C1020 H1026 0.930 . S
N1021 Li971 1.990 . S
N1021 C1020 1.314 . S
N1021 C1024 1.279 . S
C1022 C1020 1.353 . S
C1022 C1025 1.348 . S
C1022 H1054 0.929 . S
C1023 C1024 1.358 . S
C1023 C1025 1.356 . S
C1023 H1055 0.930 . S
C1024 N1021 1.279 . S
C1024 C1023 1.358 . S
C1024 H1027 0.930 . S
C1025 C1022 1.348 . S
C1025 C1023 1.356 . S
H1026 C1020 0.930 . S
H1027 C1024 0.930 . S
O1028 Li968 1.956 . S
O1028 Li969 1.970 . S
O1028 Li970 1.961 . S
O1028 C972 1.325 . S
O1029 Li968 1.970 . S
O1029 Li969 1.956 . S
O1029 Li971 1.961 . S
O1029 C978 1.325 . S
O1030 Li968 1.961 . S
O1030 Li970 1.956 . S
O1030 Li971 1.970 . S
O1030 C1000 1.325 . S
O1031 Li969 1.961 . S
O1031 Li970 1.970 . S
O1031 Li971 1.956 . S
O1031 C1006 1.325 . S
H1032 C974 0.929 . S
H1033 C975 0.930 . S
H1034 C976 0.930 . S
H1035 C977 0.930 . S
H1036 C979 0.930 . S
H1037 C981 0.929 . S
H1038 C982 0.930 . S
H1039 C983 0.930 . S
H1040 C986 0.930 . S
H1041 C989 0.929 . S
H1042 C994 0.929 . S
H1043 C995 0.930 . S
H1044 C1002 0.929 . S
H1045 C1003 0.930 . S
H1046 C1004 0.930 . S
H1047 C1005 0.930 . S
H1048 C1007 0.929 . S
H1049 C1008 0.930 . S
H1050 C1009 0.930 . S
H1051 C1010 0.930 . S
H1052 C1014 0.929 . S
H1053 C1016 0.930 . S
H1054 C1022 0.929 . S
H1055 C1023 0.930 . S
Li1056 N1073 1.990 . S
Li1056 O1116 1.956 1_655 S
Li1056 O1117 1.970 . S
Li1056 O1118 1.961 1_655 S
Li1057 N1081 1.990 . S
Li1057 O1116 1.970 . S
Li1057 O1117 1.956 1_455 S
Li1057 O1119 1.961 . S
Li1058 N1103 1.990 . S
Li1058 O1116 1.961 . S
Li1058 O1118 1.956 . S
Li1058 O1119 1.970 . S
Li1059 N1109 1.990 . S
Li1059 O1117 1.961 1_455 S
Li1059 O1118 1.970 . S
Li1059 O1119 1.956 . S
C1060 C1062 1.348 1_455 S
C1060 C1063 1.356 . S
C1060 O1116 1.325 . S
N1061 C1064 1.314 1_455 S
N1061 C1065 1.279 . S
C1062 C1060 1.348 1_655 S
C1062 C1064 1.353 . S
C1062 H1120 0.929 . S
C1063 C1060 1.356 . S
C1063 C1065 1.358 . S
C1063 H1121 0.930 . S
C1064 N1061 1.314 1_655 S
C1064 C1062 1.353 . S
C1064 H1122 0.930 . S
C1065 N1061 1.279 . S
C1065 C1063 1.358 . S
C1065 H1123 0.930 . S
C1066 C1069 1.348 . S
C1066 C1070 1.356 . S
C1066 O1117 1.325 . S
C1067 N1068 1.279 . S
C1067 C1070 1.358 . S
C1067 H1124 0.930 . S
N1068 C1067 1.279 . S
N1068 C1071 1.314 . S
C1069 C1066 1.348 . S
C1069 C1071 1.353 . S
C1069 H1125 0.929 . S
C1070 C1066 1.356 . S
C1070 C1067 1.358 . S
C1070 H1126 0.930 . S
C1071 N1068 1.314 . S
C1071 C1069 1.353 . S
C1071 H1127 0.930 . S
C1072 N1073 1.314 . S
C1072 C1077 1.353 . S
C1072 H1078 0.930 . S
N1073 Li1056 1.990 . S
N1073 C1072 1.314 . S
N1073 C1075 1.279 . S
C1074 C1075 1.358 . S
C1074 C1076 1.356 . S
C1074 H1128 0.930 . S
C1075 N1073 1.279 . S
C1075 C1074 1.358 . S
C1075 H1079 0.930 . S
C1076 C1074 1.356 . S
C1076 C1077 1.348 . S
C1077 C1072 1.353 . S
C1077 C1076 1.348 . S
C1077 H1129 0.929 . S
H1078 C1072 0.930 . S
H1079 C1075 0.930 . S
C1080 N1081 1.314 . S
C1080 C1082 1.353 . S
C1080 H1086 0.930 . S
N1081 Li1057 1.990 . S
N1081 C1080 1.314 . S
N1081 C1084 1.279 1_455 S
C1082 C1080 1.353 . S
C1082 C1085 1.348 . S
C1082 H1130 0.929 . S
C1083 C1084 1.358 . S
C1083 C1085 1.356 1_655 S
C1083 H1131 0.930 . S
C1084 N1081 1.279 1_655 S
C1084 C1083 1.358 . S
C1084 H1087 0.930 . S
C1085 C1082 1.348 . S
C1085 C1083 1.356 1_455 S
H1086 C1080 0.930 . S
H1087 C1084 0.930 . S
C1088 C1090 1.348 . S
C1088 C1091 1.360 . S
C1088 O1118 1.325 . S
N1089 C1092 1.314 . S
N1089 C1093 1.279 . S
C1090 C1088 1.348 . S
C1090 C1092 1.353 . S
C1090 H1132 0.929 . S
C1091 C1088 1.360 . S
C1091 C1093 1.359 . S
C1091 H1133 0.926 1_455 S
C1092 N1089 1.314 . S
C1092 C1090 1.353 . S
C1092 H1134 0.930 . S
C1093 N1089 1.279 . S
C1093 C1091 1.359 . S
C1093 H1135 0.930 1_455 S
C1094 C1095 1.348 . S
C1094 C1096 1.356 . S
C1094 O1119 1.325 . S
C1095 C1094 1.348 . S
C1095 C1097 1.353 . S
C1095 H1136 0.929 . S
C1096 C1094 1.356 . S
C1096 C1098 1.358 . S
C1096 H1137 0.930 . S
C1097 C1095 1.353 . S
C1097 N1099 1.314 . S
C1097 H1138 0.930 . S
C1098 C1096 1.358 . S
C1098 N1099 1.279 . S
C1098 H1139 0.930 . S
N1099 C1097 1.314 . S
N1099 C1098 1.279 . S
C1100 C1102 1.353 . S
C1100 N1103 1.314 . S
C1100 H1106 0.930 . S
C1101 N1103 1.279 . S
C1101 C1104 1.358 . S
C1101 H1107 0.930 . S
C1102 C1100 1.353 . S
C1102 C1105 1.348 . S
C1102 H1140 0.929 . S
N1103 Li1058 1.990 . S
N1103 C1100 1.314 . S
N1103 C1101 1.279 . S
C1104 C1101 1.358 . S
C1104 C1105 1.356 . S
C1104 H1141 0.930 . S
C1105 C1102 1.348 . S
C1105 C1104 1.356 . S
H1106 C1100 0.930 . S
H1107 C1101 0.930 . S
C1108 N1109 1.314 1_655 S
C1108 C1110 1.353 . S
C1108 H1114 0.930 . S
N1109 Li1059 1.990 . S
N1109 C1108 1.314 1_455 S
N1109 C1112 1.279 . S
C1110 C1108 1.353 . S
C1110 C1113 1.348 1_655 S
C1110 H1142 0.929 . S
C1111 C1112 1.358 . S
C1111 C1113 1.356 . S
C1111 H1143 0.930 . S
C1112 N1109 1.279 . S
C1112 C1111 1.358 . S
C1112 H1115 0.930 . S
C1113 C1110 1.348 1_455 S
C1113 C1111 1.356 . S
H1114 C1108 0.930 . S
H1115 C1112 0.930 . S
O1116 Li1056 1.956 1_455 S
O1116 Li1057 1.970 . S
O1116 Li1058 1.961 . S
O1116 C1060 1.325 . S
O1117 Li1056 1.970 . S
O1117 Li1057 1.956 1_655 S
O1117 Li1059 1.961 1_655 S
O1117 C1066 1.325 . S
O1118 Li1056 1.961 1_455 S
O1118 Li1058 1.956 . S
O1118 Li1059 1.970 . S
O1118 C1088 1.325 . S
O1119 Li1057 1.961 . S
O1119 Li1058 1.970 . S
O1119 Li1059 1.956 . S
O1119 C1094 1.325 . S
H1120 C1062 0.929 . S
H1121 C1063 0.930 . S
H1122 C1064 0.930 . S
H1123 C1065 0.930 . S
H1124 C1067 0.930 . S
H1125 C1069 0.929 . S
H1126 C1070 0.930 . S
H1127 C1071 0.930 . S
H1128 C1074 0.930 . S
H1129 C1077 0.929 . S
H1130 C1082 0.929 . S
H1131 C1083 0.930 . S
H1132 C1090 0.929 . S
H1133 C1091 0.926 1_655 S
H1134 C1092 0.930 . S
H1135 C1093 0.930 1_655 S
H1136 C1095 0.929 . S
H1137 C1096 0.930 . S
H1138 C1097 0.930 . S
H1139 C1098 0.930 . S
H1140 C1102 0.929 . S
H1141 C1104 0.930 . S
H1142 C1110 0.929 . S
H1143 C1111 0.930 . S
Li1144 N1161 1.990 . S
Li1144 O1204 1.956 . S
Li1144 O1205 1.970 . S
Li1144 O1206 1.961 1_455 S
Li1145 N1169 1.990 . S
Li1145 O1204 1.970 . S
Li1145 O1205 1.956 . S
Li1145 O1207 1.961 . S
Li1146 N1191 1.990 . S
Li1146 O1204 1.961 . S
Li1146 O1206 1.956 1_455 S
Li1146 O1207 1.970 . S
Li1147 N1197 1.990 . S
Li1147 O1205 1.961 1_655 S
Li1147 O1206 1.970 . S
Li1147 O1207 1.956 1_655 S
C1148 C1150 1.348 . S
C1148 C1151 1.356 . S
C1148 O1204 1.325 . S
N1149 C1152 1.314 . S
N1149 C1153 1.279 . S
C1150 C1148 1.348 . S
C1150 C1152 1.353 . S
C1150 H1208 0.929 . S
C1151 C1148 1.356 . S
C1151 C1153 1.358 . S
C1151 H1209 0.930 . S
C1152 N1149 1.314 . S
C1152 C1150 1.353 . S
C1152 H1210 0.930 . S
C1153 N1149 1.279 . S
C1153 C1151 1.358 . S
C1153 H1211 0.930 . S
C1154 C1157 1.348 . S
C1154 C1158 1.356 . S
C1154 O1205 1.325 . S
C1155 N1156 1.279 . S
C1155 C1158 1.358 . S
C1155 H1212 0.930 1_455 S
N1156 C1155 1.279 . S
N1156 C1159 1.314 . S
C1157 C1154 1.348 . S
C1157 C1159 1.353 . S
C1157 H1213 0.929 . S
C1158 C1154 1.356 . S
C1158 C1155 1.358 . S
C1158 H1214 0.930 1_455 S
C1159 N1156 1.314 . S
C1159 C1157 1.353 . S
C1159 H1215 0.930 . S
C1160 N1161 1.314 1_655 S
C1160 C1165 1.353 . S
C1160 H1166 0.930 . S
N1161 Li1144 1.990 . S
N1161 C1160 1.314 1_455 S
N1161 C1163 1.279 . S
C1162 C1163 1.358 . S
C1162 C1164 1.356 . S
C1162 H1216 0.930 . S
C1163 N1161 1.279 . S
C1163 C1162 1.358 . S
C1163 H1167 0.930 . S
C1164 C1162 1.356 . S
C1164 C1165 1.348 1_455 S
C1165 C1160 1.353 . S
C1165 C1164 1.348 1_655 S
C1165 H1217 0.929 . S
H1166 C1160 0.930 . S
H1167 C1163 0.930 . S
C1168 N1169 1.314 . S
C1168 C1170 1.353 . S
C1168 H1174 0.930 . S
N1169 Li1145 1.990 . S
N1169 C1168 1.314 . S
N1169 C1172 1.279 . S
C1170 C1168 1.353 . S
C1170 C1173 1.348 . S
C1170 H1218 0.929 . S
C1171 C1172 1.358 . S
C1171 C1173 1.356 . S
C1171 H1219 0.930 . S
C1172 N1169 1.279 . S
C1172 C1171 1.358 . S
C1172 H1175 0.930 . S
C1173 C1170 1.348 . S
C1173 C1171 1.356 . S
H1174 C1168 0.930 . S
H1175 C1172 0.930 . S
C1176 C1178 1.348 . S
C1176 C1179 1.356 . S
C1176 O1206 1.325 . S
N1177 C1180 1.314 . S
N1177 C1181 1.279 . S
C1178 C1176 1.348 . S
C1178 C1180 1.353 . S
C1178 H1220 0.929 . S
C1179 C1176 1.356 . S
C1179 C1181 1.358 . S
C1179 H1221 0.930 . S
C1180 N1177 1.314 . S
C1180 C1178 1.353 . S
C1180 H1222 0.930 . S
C1181 N1177 1.279 . S
C1181 C1179 1.358 . S
C1181 H1223 0.930 . S
C1182 C1183 1.348 1_455 S
C1182 C1184 1.356 . S
C1182 O1207 1.325 . S
C1183 C1182 1.348 1_655 S
C1183 C1185 1.353 . S
C1183 H1224 0.929 . S
C1184 C1182 1.356 . S
C1184 C1186 1.358 . S
C1184 H1225 0.930 . S
C1185 C1183 1.353 . S
C1185 N1187 1.314 1_655 S
C1185 H1226 0.930 . S
C1186 C1184 1.358 . S
C1186 N1187 1.279 . S
C1186 H1227 0.930 . S
N1187 C1185 1.314 1_455 S
N1187 C1186 1.279 . S
C1188 C1190 1.353 . S
C1188 N1191 1.314 . S
C1188 H1194 0.930 . S
C1189 N1191 1.279 1_655 S
C1189 C1192 1.358 . S
C1189 H1195 0.930 . S
C1190 C1188 1.353 . S
C1190 C1193 1.348 . S
C1190 H1228 0.929 . S
N1191 Li1146 1.990 . S
N1191 C1188 1.314 . S
N1191 C1189 1.279 1_455 S
C1192 C1189 1.358 . S
C1192 C1193 1.356 1_655 S
C1192 H1229 0.930 . S
C1193 C1190 1.348 . S
C1193 C1192 1.356 1_455 S
H1194 C1188 0.930 . S
H1195 C1189 0.930 . S
C1196 N1197 1.314 . S
C1196 C1198 1.353 . S
C1196 H1202 0.930 . S
N1197 Li1147 1.990 . S
N1197 C1196 1.314 . S
N1197 C1200 1.279 . S
C1198 C1196 1.353 . S
C1198 C1201 1.348 . S
C1198 H1230 0.929 . S
C1199 C1200 1.358 . S
C1199 C1201 1.356 . S
C1199 H1231 0.930 . S
C1200 N1197 1.279 . S
C1200 C1199 1.358 . S
C1200 H1203 0.930 . S
C1201 C1198 1.348 . S
C1201 C1199 1.356 . S
H1202 C1196 0.930 . S
H1203 C1200 0.930 . S
O1204 Li1144 1.956 . S
O1204 Li1145 1.970 . S
O1204 Li1146 1.961 . S
O1204 C1148 1.325 . S
O1205 Li1144 1.970 . S
O1205 Li1145 1.956 . S
O1205 Li1147 1.961 1_455 S
O1205 C1154 1.325 . S
O1206 Li1144 1.961 1_655 S
O1206 Li1146 1.956 1_655 S
O1206 Li1147 1.970 . S
O1206 C1176 1.325 . S
O1207 Li1145 1.961 . S
O1207 Li1146 1.970 . S
O1207 Li1147 1.956 1_455 S
O1207 C1182 1.325 . S
H1208 C1150 0.929 . S
H1209 C1151 0.930 . S
H1210 C1152 0.930 . S
H1211 C1153 0.930 . S
H1212 C1155 0.930 1_655 S
H1213 C1157 0.929 . S
H1214 C1158 0.930 1_655 S
H1215 C1159 0.930 . S
H1216 C1162 0.930 . S
H1217 C1165 0.929 . S
H1218 C1170 0.929 . S
H1219 C1171 0.930 . S
H1220 C1178 0.929 . S
H1221 C1179 0.930 . S
H1222 C1180 0.930 . S
H1223 C1181 0.930 . S
H1224 C1183 0.929 . S
H1225 C1184 0.930 . S
H1226 C1185 0.930 . S
H1227 C1186 0.930 . S
H1228 C1190 0.929 . S
H1229 C1192 0.930 . S
H1230 C1198 0.929 . S
H1231 C1199 0.930 . S
Li1232 N1249 1.990 . S
Li1232 O1292 1.956 . S
Li1232 O1293 1.970 . S
Li1232 O1294 1.961 . S
Li1233 N1257 1.990 . S
Li1233 O1292 1.970 . S
Li1233 O1293 1.956 . S
Li1233 O1295 1.961 . S
Li1234 N1279 1.990 . S
Li1234 O1292 1.961 . S
Li1234 O1294 1.956 . S
Li1234 O1295 1.970 . S
Li1235 N1285 1.990 . S
Li1235 O1293 1.961 . S
Li1235 O1294 1.970 . S
Li1235 O1295 1.956 . S
C1236 C1238 1.348 . S
C1236 C1239 1.356 . S
C1236 O1292 1.325 . S
N1237 C1240 1.314 . S
N1237 C1241 1.279 . S
C1238 C1236 1.348 . S
C1238 C1240 1.353 . S
C1238 H1296 0.929 . S
C1239 C1236 1.356 . S
C1239 C1241 1.358 . S
C1239 H1297 0.930 . S
C1240 N1237 1.314 . S
C1240 C1238 1.353 . S
C1240 H1298 0.930 . S
C1241 N1237 1.279 . S
C1241 C1239 1.358 . S
C1241 H1299 0.930 . S
C1242 C1245 1.348 . S
C1242 C1246 1.356 . S
C1242 O1293 1.325 . S
C1243 N1244 1.279 . S
C1243 C1246 1.358 . S
C1243 H1300 0.930 . S
N1244 C1243 1.279 . S
N1244 C1247 1.314 . S
C1245 C1242 1.348 . S
C1245 C1247 1.353 . S
C1245 H1301 0.929 . S
C1246 C1242 1.356 . S
C1246 C1243 1.358 . S
C1246 H1302 0.930 . S
C1247 N1244 1.314 . S
C1247 C1245 1.353 . S
C1247 H1303 0.930 . S
C1248 N1249 1.314 . S
C1248 C1253 1.353 . S
C1248 H1254 0.930 . S
N1249 Li1232 1.990 . S
N1249 C1248 1.314 . S
N1249 C1251 1.279 . S
C1250 C1251 1.358 . S
C1250 C1252 1.356 . S
C1250 H1304 0.930 . S
C1251 N1249 1.279 . S
C1251 C1250 1.358 . S
C1251 H1255 0.930 . S
C1252 C1250 1.356 . S
C1252 C1253 1.348 . S
C1253 C1248 1.353 . S
C1253 C1252 1.348 . S
C1253 H1305 0.929 . S
H1254 C1248 0.930 . S
H1255 C1251 0.930 . S
C1256 N1257 1.314 . S
C1256 C1258 1.353 . S
C1256 H1262 0.930 . S
N1257 Li1233 1.990 . S
N1257 C1256 1.314 . S
N1257 C1260 1.279 . S
C1258 C1256 1.353 . S
C1258 C1261 1.348 . S
C1258 H1306 0.929 . S
C1259 C1260 1.358 . S
C1259 C1261 1.356 . S
C1259 H1307 0.930 . S
C1260 N1257 1.279 . S
C1260 C1259 1.358 . S
C1260 H1263 0.930 . S
C1261 C1258 1.348 . S
C1261 C1259 1.356 . S
H1262 C1256 0.930 . S
H1263 C1260 0.930 . S
C1264 C1266 1.348 . S
C1264 C1267 1.356 . S
C1264 O1294 1.325 . S
N1265 C1268 1.314 . S
N1265 C1269 1.279 . S
C1266 C1264 1.348 . S
C1266 C1268 1.353 . S
C1266 H1308 0.929 . S
C1267 C1264 1.356 . S
C1267 C1269 1.358 . S
C1267 H1309 0.930 . S
C1268 N1265 1.314 . S
C1268 C1266 1.353 . S
C1268 H1310 0.930 . S
C1269 N1265 1.279 . S
C1269 C1267 1.358 . S
C1269 H1311 0.930 . S
C1270 C1271 1.348 . S
C1270 C1272 1.356 . S
C1270 O1295 1.325 . S
C1271 C1270 1.348 . S
C1271 C1273 1.353 . S
C1271 H1312 0.929 . S
C1272 C1270 1.356 . S
C1272 C1274 1.358 . S
C1272 H1313 0.930 . S
C1273 C1271 1.353 . S
C1273 N1275 1.314 . S
C1273 H1314 0.930 . S
C1274 C1272 1.358 . S
C1274 N1275 1.279 . S
C1274 H1315 0.930 . S
N1275 C1273 1.314 . S
N1275 C1274 1.279 . S
C1276 C1278 1.353 . S
C1276 N1279 1.314 . S
C1276 H1282 0.930 . S
C1277 N1279 1.279 . S
C1277 C1280 1.358 . S
C1277 H1283 0.930 . S
C1278 C1276 1.353 . S
C1278 C1281 1.348 . S
C1278 H1316 0.929 . S
N1279 Li1234 1.990 . S
N1279 C1276 1.314 . S
N1279 C1277 1.279 . S
C1280 C1277 1.358 . S
C1280 C1281 1.356 . S
C1280 H1317 0.930 . S
C1281 C1278 1.348 . S
C1281 C1280 1.356 . S
H1282 C1276 0.930 . S
H1283 C1277 0.930 . S
C1284 N1285 1.314 . S
C1284 C1286 1.353 . S
C1284 H1290 0.930 . S
N1285 Li1235 1.990 . S
N1285 C1284 1.314 . S
N1285 C1288 1.279 . S
C1286 C1284 1.353 . S
C1286 C1289 1.348 . S
C1286 H1318 0.929 . S
C1287 C1288 1.358 . S
C1287 C1289 1.356 . S
C1287 H1319 0.930 . S
C1288 N1285 1.279 . S
C1288 C1287 1.358 . S
C1288 H1291 0.930 . S
C1289 C1286 1.348 . S
C1289 C1287 1.356 . S
H1290 C1284 0.930 . S
H1291 C1288 0.930 . S
O1292 Li1232 1.956 . S
O1292 Li1233 1.970 . S
O1292 Li1234 1.961 . S
O1292 C1236 1.325 . S
O1293 Li1232 1.970 . S
O1293 Li1233 1.956 . S
O1293 Li1235 1.961 . S
O1293 C1242 1.325 . S
O1294 Li1232 1.961 . S
O1294 Li1234 1.956 . S
O1294 Li1235 1.970 . S
O1294 C1264 1.325 . S
O1295 Li1233 1.961 . S
O1295 Li1234 1.970 . S
O1295 Li1235 1.956 . S
O1295 C1270 1.325 . S
H1296 C1238 0.929 . S
H1297 C1239 0.930 . S
H1298 C1240 0.930 . S
H1299 C1241 0.930 . S
H1300 C1243 0.930 . S
H1301 C1245 0.929 . S
H1302 C1246 0.930 . S
H1303 C1247 0.930 . S
H1304 C1250 0.930 . S
H1305 C1253 0.929 . S
H1306 C1258 0.929 . S
H1307 C1259 0.930 . S
H1308 C1266 0.929 . S
H1309 C1267 0.930 . S
H1310 C1268 0.930 . S
H1311 C1269 0.930 . S
H1312 C1271 0.929 . S
H1313 C1272 0.930 . S
H1314 C1273 0.930 . S
H1315 C1274 0.930 . S
H1316 C1278 0.929 . S
H1317 C1280 0.930 . S
H1318 C1286 0.929 . S
H1319 C1287 0.930 . S
Li1320 N1337 1.990 . S
Li1320 O1380 1.956 . S
Li1320 O1381 1.970 . S
Li1320 O1382 1.961 . S
Li1321 N1345 1.990 . S
Li1321 O1380 1.970 . S
Li1321 O1381 1.956 . S
Li1321 O1383 1.961 . S
Li1322 N1367 1.990 . S
Li1322 O1380 1.961 . S
Li1322 O1382 1.956 . S
Li1322 O1383 1.970 . S
Li1323 N1373 1.990 . S
Li1323 O1381 1.961 . S
Li1323 O1382 1.970 . S
Li1323 O1383 1.956 . S
C1324 C1326 1.348 . S
C1324 C1327 1.356 . S
C1324 O1380 1.325 . S
N1325 C1328 1.314 . S
N1325 C1329 1.279 . S
C1326 C1324 1.348 . S
C1326 C1328 1.353 . S
C1326 H1384 0.929 . S
C1327 C1324 1.356 . S
C1327 C1329 1.358 . S
C1327 H1385 0.930 . S
C1328 N1325 1.314 . S
C1328 C1326 1.353 . S
C1328 H1386 0.930 . S
C1329 N1325 1.279 . S
C1329 C1327 1.358 . S
C1329 H1387 0.930 . S
C1330 C1333 1.348 . S
C1330 C1334 1.356 . S
C1330 O1381 1.325 . S
C1331 N1332 1.279 . S
C1331 C1334 1.358 . S
C1331 H1388 0.930 . S
N1332 C1331 1.279 . S
N1332 C1335 1.314 . S
C1333 C1330 1.348 . S
C1333 C1335 1.353 . S
C1333 H1389 0.929 . S
C1334 C1330 1.356 . S
C1334 C1331 1.358 . S
C1334 H1390 0.930 . S
C1335 N1332 1.314 . S
C1335 C1333 1.353 . S
C1335 H1391 0.930 . S
C1336 N1337 1.314 . S
C1336 C1341 1.353 . S
C1336 H1342 0.930 . S
N1337 Li1320 1.990 . S
N1337 C1336 1.314 . S
N1337 C1339 1.279 . S
C1338 C1339 1.358 . S
C1338 C1340 1.356 . S
C1338 H1392 0.930 . S
C1339 N1337 1.279 . S
C1339 C1338 1.358 . S
C1339 H1343 0.930 . S
C1340 C1338 1.356 . S
C1340 C1341 1.348 . S
C1341 C1336 1.353 . S
C1341 C1340 1.348 . S
C1341 H1393 0.929 . S
H1342 C1336 0.930 . S
H1343 C1339 0.930 . S
C1344 N1345 1.314 . S
C1344 C1346 1.353 . S
C1344 H1350 0.930 . S
N1345 Li1321 1.990 . S
N1345 C1344 1.314 . S
N1345 C1348 1.279 . S
C1346 C1344 1.353 . S
C1346 C1349 1.348 . S
C1346 H1394 0.929 . S
C1347 C1348 1.358 . S
C1347 C1349 1.356 . S
C1347 H1395 0.930 . S
C1348 N1345 1.279 . S
C1348 C1347 1.358 . S
C1348 H1351 0.930 . S
C1349 C1346 1.348 . S
C1349 C1347 1.356 . S
H1350 C1344 0.930 . S
H1351 C1348 0.930 . S
C1352 C1354 1.348 . S
C1352 C1355 1.356 . S
C1352 O1382 1.325 . S
N1353 C1356 1.314 . S
N1353 C1357 1.279 . S
C1354 C1352 1.348 . S
C1354 C1356 1.353 . S
C1354 H1396 0.929 . S
C1355 C1352 1.356 . S
C1355 C1357 1.358 . S
C1355 H1397 0.930 . S
C1356 N1353 1.314 . S
C1356 C1354 1.353 . S
C1356 H1398 0.930 . S
C1357 N1353 1.279 . S
C1357 C1355 1.358 . S
C1357 H1399 0.930 . S
C1358 C1359 1.348 . S
C1358 C1360 1.356 . S
C1358 O1383 1.325 . S
C1359 C1358 1.348 . S
C1359 C1361 1.353 . S
C1359 H1400 0.929 . S
C1360 C1358 1.356 . S
C1360 C1362 1.358 . S
C1360 H1401 0.930 . S
C1361 C1359 1.353 . S
C1361 N1363 1.314 . S
C1361 H1402 0.930 . S
C1362 C1360 1.358 . S
C1362 N1363 1.279 . S
C1362 H1403 0.930 . S
N1363 C1361 1.314 . S
N1363 C1362 1.279 . S
C1364 C1366 1.353 . S
C1364 N1367 1.314 . S
C1364 H1370 0.930 . S
C1365 N1367 1.279 . S
C1365 C1368 1.358 . S
C1365 H1371 0.930 . S
C1366 C1364 1.353 . S
C1366 C1369 1.348 . S
C1366 H1404 0.929 . S
N1367 Li1322 1.990 . S
N1367 C1364 1.314 . S
N1367 C1365 1.279 . S
C1368 C1365 1.358 . S
C1368 C1369 1.356 . S
C1368 H1405 0.930 . S
C1369 C1366 1.348 . S
C1369 C1368 1.356 . S
H1370 C1364 0.930 . S
H1371 C1365 0.930 . S
C1372 N1373 1.314 . S
C1372 C1374 1.353 . S
C1372 H1378 0.930 . S
N1373 Li1323 1.990 . S
N1373 C1372 1.314 . S
N1373 C1376 1.279 . S
C1374 C1372 1.353 . S
C1374 C1377 1.348 . S
C1374 H1406 0.929 . S
C1375 C1376 1.358 . S
C1375 C1377 1.356 . S
C1375 H1407 0.930 . S
C1376 N1373 1.279 . S
C1376 C1375 1.358 . S
C1376 H1379 0.930 . S
C1377 C1374 1.348 . S
C1377 C1375 1.356 . S
H1378 C1372 0.930 . S
H1379 C1376 0.930 . S
O1380 Li1320 1.956 . S
O1380 Li1321 1.970 . S
O1380 Li1322 1.961 . S
O1380 C1324 1.325 . S
O1381 Li1320 1.970 . S
O1381 Li1321 1.956 . S
O1381 Li1323 1.961 . S
O1381 C1330 1.325 . S
O1382 Li1320 1.961 . S
O1382 Li1322 1.956 . S
O1382 Li1323 1.970 . S
O1382 C1352 1.325 . S
O1383 Li1321 1.961 . S
O1383 Li1322 1.970 . S
O1383 Li1323 1.956 . S
O1383 C1358 1.325 . S
H1384 C1326 0.929 . S
H1385 C1327 0.930 . S
H1386 C1328 0.930 . S
H1387 C1329 0.930 . S
H1388 C1331 0.930 . S
H1389 C1333 0.929 . S
H1390 C1334 0.930 . S
H1391 C1335 0.930 . S
H1392 C1338 0.930 . S
H1393 C1341 0.929 . S
H1394 C1346 0.929 . S
H1395 C1347 0.930 . S
H1396 C1354 0.929 . S
H1397 C1355 0.930 . S
H1398 C1356 0.930 . S
H1399 C1357 0.930 . S
H1400 C1359 0.929 . S
H1401 C1360 0.930 . S
H1402 C1361 0.930 . S
H1403 C1362 0.930 . S
H1404 C1366 0.929 . S
H1405 C1368 0.930 . S
H1406 C1374 0.929 . S
H1407 C1375 0.930 . S
Li1408 N1425 1.990 . S
Li1408 O1468 1.956 1_545 S
Li1408 O1469 1.970 . S
Li1408 O1470 1.961 . S
Li1409 N1433 1.990 . S
Li1409 O1468 1.970 . S
Li1409 O1469 1.956 1_565 S
Li1409 O1471 1.961 1_565 S
Li1410 N1455 1.990 . S
Li1410 O1468 1.961 1_545 S
Li1410 O1470 1.956 . S
Li1410 O1471 1.970 . S
Li1411 N1461 1.990 . S
Li1411 O1469 1.961 . S
Li1411 O1470 1.970 . S
Li1411 O1471 1.956 . S
C1412 C1414 1.348 . S
C1412 C1415 1.356 . S
C1412 O1468 1.325 . S
N1413 C1416 1.314 . S
N1413 C1417 1.279 . S
C1414 C1412 1.348 . S
C1414 C1416 1.353 . S
C1414 H1472 0.929 . S
C1415 C1412 1.356 . S
C1415 C1417 1.358 . S
C1415 H1473 0.930 . S
C1416 N1413 1.314 . S
C1416 C1414 1.353 . S
C1416 H1474 0.930 . S
C1417 N1413 1.279 . S
C1417 C1415 1.358 . S
C1417 H1475 0.930 . S
C1418 C1421 1.348 . S
C1418 C1422 1.356 . S
C1418 O1469 1.325 . S
C1419 N1420 1.279 . S
C1419 C1422 1.358 . S
C1419 H1476 0.930 . S
N1420 C1419 1.279 . S
N1420 C1423 1.314 . S
C1421 C1418 1.348 . S
C1421 C1423 1.353 . S
C1421 H1477 0.929 . S
C1422 C1418 1.356 . S
C1422 C1419 1.358 . S
C1422 H1478 0.930 . S
C1423 N1420 1.314 . S
C1423 C1421 1.353 . S
C1423 H1479 0.930 . S
C1424 N1425 1.314 . S
C1424 C1429 1.353 . S
C1424 H1430 0.930 . S
N1425 Li1408 1.990 . S
N1425 C1424 1.314 . S
N1425 C1427 1.279 1_545 S
C1426 C1427 1.358 . S
C1426 C1428 1.356 1_565 S
C1426 H1480 0.930 . S
C1427 N1425 1.279 1_565 S
C1427 C1426 1.358 . S
C1427 H1431 0.930 . S
C1428 C1426 1.356 1_545 S
C1428 C1429 1.348 . S
C1429 C1424 1.353 . S
C1429 C1428 1.348 . S
C1429 H1481 0.929 . S
H1430 C1424 0.930 . S
H1431 C1427 0.930 . S
C1432 N1433 1.314 . S
C1432 C1434 1.353 . S
C1432 H1438 0.930 . S
N1433 Li1409 1.990 . S
N1433 C1432 1.314 . S
N1433 C1436 1.279 . S
C1434 C1432 1.353 . S
C1434 C1437 1.348 . S
C1434 H1482 0.929 . S
C1435 C1436 1.358 . S
C1435 C1437 1.356 . S
C1435 H1483 0.930 . S
C1436 N1433 1.279 . S
C1436 C1435 1.358 . S
C1436 H1439 0.930 . S
C1437 C1434 1.348 . S
C1437 C1435 1.356 . S
H1438 C1432 0.930 . S
H1439 C1436 0.930 . S
C1440 C1442 1.348 . S
C1440 C1443 1.356 . S
C1440 O1470 1.325 . S
N1441 C1444 1.314 . S
N1441 C1445 1.279 . S
C1442 C1440 1.348 . S
C1442 C1444 1.353 . S
C1442 H1484 0.929 . S
C1443 C1440 1.356 . S
C1443 C1445 1.358 . S
C1443 H1485 0.930 . S
C1444 N1441 1.314 . S
C1444 C1442 1.353 . S
C1444 H1486 0.930 . S
C1445 N1441 1.279 . S
C1445 C1443 1.358 . S
C1445 H1487 0.930 . S
C1446 C1447 1.348 . S
C1446 C1448 1.356 . S
C1446 O1471 1.325 . S
C1447 C1446 1.348 . S
C1447 C1449 1.353 . S
C1447 H1488 0.929 . S
C1448 C1446 1.356 . S
C1448 C1450 1.358 . S
C1448 H1489 0.930 . S
C1449 C1447 1.353 . S
C1449 N1451 1.314 . S
C1449 H1490 0.930 . S
C1450 C1448 1.358 . S
C1450 N1451 1.279 . S
C1450 H1491 0.930 . S
N1451 C1449 1.314 . S
N1451 C1450 1.279 . S
C1452 C1454 1.352 1_545 S
C1452 N1455 1.327 . S
C1452 H1458 0.916 1_545 S
C1453 N1455 1.279 . S
C1453 C1456 1.358 . S
C1453 H1459 0.930 . S
C1454 C1452 1.352 1_565 S
C1454 C1457 1.348 1_565 S
C1454 H1492 0.929 . S
N1455 Li1410 1.990 . S
N1455 C1452 1.327 . S
N1455 C1453 1.279 . S
C1456 C1453 1.358 . S
C1456 C1457 1.356 . S
C1456 H1493 0.930 . S
C1457 C1454 1.348 1_545 S
C1457 C1456 1.356 . S
H1458 C1452 0.916 1_565 S
H1459 C1453 0.930 . S
C1460 N1461 1.314 . S
C1460 C1462 1.353 . S
C1460 H1466 0.930 . S
N1461 Li1411 1.990 . S
N1461 C1460 1.314 . S
N1461 C1464 1.279 . S
C1462 C1460 1.353 . S
C1462 C1465 1.348 . S
C1462 H1494 0.929 . S
C1463 C1464 1.358 . S
C1463 C1465 1.356 . S
C1463 H1495 0.930 . S
C1464 N1461 1.279 . S
C1464 C1463 1.358 . S
C1464 H1467 0.930 . S
C1465 C1462 1.348 . S
C1465 C1463 1.356 . S
H1466 C1460 0.930 . S
H1467 C1464 0.930 . S
O1468 Li1408 1.956 1_565 S
O1468 Li1409 1.970 . S
O1468 Li1410 1.961 1_565 S
O1468 C1412 1.325 . S
O1469 Li1408 1.970 . S
O1469 Li1409 1.956 1_545 S
O1469 Li1411 1.961 . S
O1469 C1418 1.325 . S
O1470 Li1408 1.961 . S
O1470 Li1410 1.956 . S
O1470 Li1411 1.970 . S
O1470 C1440 1.325 . S
O1471 Li1409 1.961 1_545 S
O1471 Li1410 1.970 . S
O1471 Li1411 1.956 . S
O1471 C1446 1.325 . S
H1472 C1414 0.929 . S
H1473 C1415 0.930 . S
H1474 C1416 0.930 . S
H1475 C1417 0.930 . S
H1476 C1419 0.930 . S
H1477 C1421 0.929 . S
H1478 C1422 0.930 . S
H1479 C1423 0.930 . S
H1480 C1426 0.930 . S
H1481 C1429 0.929 . S
H1482 C1434 0.929 . S
H1483 C1435 0.930 . S
H1484 C1442 0.929 . S
H1485 C1443 0.930 . S
H1486 C1444 0.930 . S
H1487 C1445 0.930 . S
H1488 C1447 0.929 . S
H1489 C1448 0.930 . S
H1490 C1449 0.930 . S
H1491 C1450 0.930 . S
H1492 C1454 0.929 . S
H1493 C1456 0.930 . S
H1494 C1462 0.929 . S
H1495 C1463 0.930 . S
Li1496 N1513 1.990 . S
Li1496 O1556 1.956 . S
Li1496 O1557 1.970 . S
Li1496 O1558 1.961 . S
Li1497 N1521 1.990 . S
Li1497 O1556 1.970 . S
Li1497 O1557 1.956 . S
Li1497 O1559 1.961 . S
Li1498 N1543 1.990 . S
Li1498 O1556 1.961 . S
Li1498 O1558 1.956 . S
Li1498 O1559 1.970 . S
Li1499 N1549 1.990 . S
Li1499 O1557 1.961 . S
Li1499 O1558 1.970 . S
Li1499 O1559 1.956 . S
C1500 C1502 1.348 . S
C1500 C1503 1.356 . S
C1500 O1556 1.325 . S
N1501 C1504 1.314 . S
N1501 C1505 1.279 . S
C1502 C1500 1.348 . S
C1502 C1504 1.353 . S
C1502 H1560 0.929 . S
C1503 C1500 1.356 . S
C1503 C1505 1.358 . S
C1503 H1561 0.930 . S
C1504 N1501 1.314 . S
C1504 C1502 1.353 . S
C1504 H1562 0.930 . S
C1505 N1501 1.279 . S
C1505 C1503 1.358 . S
C1505 H1563 0.930 . S
C1506 C1509 1.348 . S
C1506 C1510 1.356 . S
C1506 O1557 1.325 . S
C1507 N1508 1.279 . S
C1507 C1510 1.358 . S
C1507 H1564 0.930 . S
N1508 C1507 1.279 . S
N1508 C1511 1.314 . S
C1509 C1506 1.348 . S
C1509 C1511 1.353 . S
C1509 H1565 0.929 . S
C1510 C1506 1.356 . S
C1510 C1507 1.358 . S
C1510 H1566 0.930 . S
C1511 N1508 1.314 . S
C1511 C1509 1.353 . S
C1511 H1567 0.930 . S
C1512 N1513 1.314 . S
C1512 C1517 1.353 . S
C1512 H1518 0.930 . S
N1513 Li1496 1.990 . S
N1513 C1512 1.314 . S
N1513 C1515 1.279 . S
C1514 C1515 1.358 . S
C1514 C1516 1.356 . S
C1514 H1568 0.930 . S
C1515 N1513 1.279 . S
C1515 C1514 1.358 . S
C1515 H1519 0.930 . S
C1516 C1514 1.356 . S
C1516 C1517 1.348 . S
C1517 C1512 1.353 . S
C1517 C1516 1.348 . S
C1517 H1569 0.929 . S
H1518 C1512 0.930 . S
H1519 C1515 0.930 . S
C1520 N1521 1.314 . S
C1520 C1522 1.353 . S
C1520 H1526 0.930 . S
N1521 Li1497 1.990 . S
N1521 C1520 1.314 . S
N1521 C1524 1.279 . S
C1522 C1520 1.353 . S
C1522 C1525 1.348 . S
C1522 H1570 0.929 . S
C1523 C1524 1.358 . S
C1523 C1525 1.356 . S
C1523 H1571 0.930 . S
C1524 N1521 1.279 . S
C1524 C1523 1.358 . S
C1524 H1527 0.930 . S
C1525 C1522 1.348 . S
C1525 C1523 1.356 . S
H1526 C1520 0.930 . S
H1527 C1524 0.930 . S
C1528 C1530 1.348 . S
C1528 C1531 1.356 . S
C1528 O1558 1.325 . S
N1529 C1532 1.314 . S
N1529 C1533 1.279 . S
C1530 C1528 1.348 . S
C1530 C1532 1.353 . S
C1530 H1572 0.929 . S
C1531 C1528 1.356 . S
C1531 C1533 1.358 . S
C1531 H1573 0.930 . S
C1532 N1529 1.314 . S
C1532 C1530 1.353 . S
C1532 H1574 0.930 . S
C1533 N1529 1.279 . S
C1533 C1531 1.358 . S
C1533 H1575 0.930 . S
C1534 C1535 1.348 . S
C1534 C1536 1.356 . S
C1534 O1559 1.325 . S
C1535 C1534 1.348 . S
C1535 C1537 1.353 . S
C1535 H1576 0.929 . S
C1536 C1534 1.356 . S
C1536 C1538 1.358 . S
C1536 H1577 0.930 . S
C1537 C1535 1.353 . S
C1537 N1539 1.314 . S
C1537 H1578 0.930 . S
C1538 C1536 1.358 . S
C1538 N1539 1.279 . S
C1538 H1579 0.930 . S
N1539 C1537 1.314 . S
N1539 C1538 1.279 . S
C1540 C1542 1.353 . S
C1540 N1543 1.314 . S
C1540 H1546 0.930 . S
C1541 N1543 1.279 . S
C1541 C1544 1.358 . S
C1541 H1547 0.930 . S
C1542 C1540 1.353 . S
C1542 C1545 1.348 . S
C1542 H1580 0.929 . S
N1543 Li1498 1.990 . S
N1543 C1540 1.314 . S
N1543 C1541 1.279 . S
C1544 C1541 1.358 . S
C1544 C1545 1.356 . S
C1544 H1581 0.930 . S
C1545 C1542 1.348 . S
C1545 C1544 1.356 . S
H1546 C1540 0.930 . S
H1547 C1541 0.930 . S
C1548 N1549 1.314 . S
C1548 C1550 1.353 . S
C1548 H1554 0.930 . S
N1549 Li1499 1.990 . S
N1549 C1548 1.314 . S
N1549 C1552 1.279 . S
C1550 C1548 1.353 . S
C1550 C1553 1.348 . S
C1550 H1582 0.929 . S
C1551 C1552 1.358 . S
C1551 C1553 1.356 . S
C1551 H1583 0.930 . S
C1552 N1549 1.279 . S
C1552 C1551 1.358 . S
C1552 H1555 0.930 . S
C1553 C1550 1.348 . S
C1553 C1551 1.356 . S
H1554 C1548 0.930 . S
H1555 C1552 0.930 . S
O1556 Li1496 1.956 . S
O1556 Li1497 1.970 . S
O1556 Li1498 1.961 . S
O1556 C1500 1.325 . S
O1557 Li1496 1.970 . S
O1557 Li1497 1.956 . S
O1557 Li1499 1.961 . S
O1557 C1506 1.325 . S
O1558 Li1496 1.961 . S
O1558 Li1498 1.956 . S
O1558 Li1499 1.970 . S
O1558 C1528 1.325 . S
O1559 Li1497 1.961 . S
O1559 Li1498 1.970 . S
O1559 Li1499 1.956 . S
O1559 C1534 1.325 . S
H1560 C1502 0.929 . S
H1561 C1503 0.930 . S
H1562 C1504 0.930 . S
H1563 C1505 0.930 . S
H1564 C1507 0.930 . S
H1565 C1509 0.929 . S
H1566 C1510 0.930 . S
H1567 C1511 0.930 . S
H1568 C1514 0.930 . S
H1569 C1517 0.929 . S
H1570 C1522 0.929 . S
H1571 C1523 0.930 . S
H1572 C1530 0.929 . S
H1573 C1531 0.930 . S
H1574 C1532 0.930 . S
H1575 C1533 0.930 . S
H1576 C1535 0.929 . S
H1577 C1536 0.930 . S
H1578 C1537 0.930 . S
H1579 C1538 0.930 . S
H1580 C1542 0.929 . S
H1581 C1544 0.930 . S
H1582 C1550 0.929 . S
H1583 C1551 0.930 . S
Li1584 N1601 1.990 . S
Li1584 O1644 1.956 . S
Li1584 O1645 1.970 1_545 S
Li1584 O1646 1.961 1_545 S
Li1585 N1609 1.990 . S
Li1585 O1644 1.970 . S
Li1585 O1645 1.945 1_545 S
Li1585 O1647 1.975 . S
Li1586 N1631 1.991 . S
Li1586 O1644 1.933 1_565 S
Li1586 O1646 1.982 . S
Li1586 O1647 1.970 1_565 S
Li1587 N1637 1.990 . S
Li1587 O1645 1.972 . S
Li1587 O1646 1.970 . S
Li1587 O1647 1.942 1_565 S
C1588 C1590 1.348 . S
C1588 C1591 1.356 . S
C1588 O1644 1.325 . S
N1589 C1592 1.314 . S
N1589 C1593 1.279 . S
C1590 C1588 1.348 . S
C1590 C1592 1.353 . S
C1590 H1648 0.929 . S
C1591 C1588 1.356 . S
C1591 C1593 1.358 . S
C1591 H1649 0.930 . S
C1592 N1589 1.314 . S
C1592 C1590 1.353 . S
C1592 H1650 0.930 . S
C1593 N1589 1.279 . S
C1593 C1591 1.358 . S
C1593 H1651 0.930 . S
C1594 C1597 1.352 . S
C1594 C1598 1.354 1_545 S
C1594 O1645 1.324 1_545 S
C1595 N1596 1.279 1_565 S
C1595 C1598 1.358 . S
C1595 H1652 0.930 . S
N1596 C1595 1.279 1_545 S
N1596 C1599 1.314 . S
C1597 C1594 1.352 . S
C1597 C1599 1.353 . S
C1597 H1653 0.929 . S
C1598 C1594 1.354 1_565 S
C1598 C1595 1.358 . S
C1598 H1654 0.930 . S
C1599 N1596 1.314 . S
C1599 C1597 1.353 . S
C1599 H1655 0.930 . S
C1600 N1601 1.314 1_565 S
C1600 C1605 1.353 . S
C1600 H1606 0.930 . S
N1601 Li1584 1.990 . S
N1601 C1600 1.314 1_545 S
N1601 C1603 1.279 . S
C1602 C1603 1.358 . S
C1602 C1604 1.356 . S
C1602 H1656 0.930 . S
C1603 N1601 1.279 . S
C1603 C1602 1.358 . S
C1603 H1607 0.930 . S
C1604 C1602 1.356 . S
C1604 C1605 1.348 1_545 S
C1605 C1600 1.353 . S
C1605 C1604 1.348 1_565 S
C1605 H1657 0.929 . S
H1606 C1600 0.930 . S
H1607 C1603 0.930 . S
C1608 N1609 1.314 . S
C1608 C1610 1.353 . S
C1608 H1614 0.930 . S
N1609 Li1585 1.990 . S
N1609 C1608 1.314 . S
N1609 C1612 1.279 . S
C1610 C1608 1.353 . S
C1610 C1613 1.348 . S
C1610 H1658 0.929 . S
C1611 C1612 1.358 . S
C1611 C1613 1.356 . S
C1611 H1659 0.930 . S
C1612 N1609 1.279 . S
C1612 C1611 1.358 . S
C1612 H1615 0.930 . S
C1613 C1610 1.348 . S
C1613 C1611 1.356 . S
H1614 C1608 0.930 . S
H1615 C1612 0.930 . S
C1616 C1618 1.348 . S
C1616 C1619 1.356 . S
C1616 O1646 1.325 . S
N1617 C1620 1.314 . S
N1617 C1621 1.279 . S
C1618 C1616 1.348 . S
C1618 C1620 1.353 . S
C1618 H1660 0.929 . S
C1619 C1616 1.356 . S
C1619 C1621 1.358 . S
C1619 H1661 0.930 . S
C1620 N1617 1.314 . S
C1620 C1618 1.353 . S
C1620 H1662 0.930 . S
C1621 N1617 1.279 . S
C1621 C1619 1.358 . S
C1621 H1663 0.930 . S
C1622 C1623 1.352 . S
C1622 C1624 1.354 1_565 S
C1622 O1647 1.324 1_565 S
C1623 C1622 1.352 . S
C1623 C1625 1.353 . S
C1623 H1664 0.929 . S
C1624 C1622 1.354 1_545 S
C1624 C1626 1.358 . S
C1624 H1665 0.930 . S
C1625 C1623 1.353 . S
C1625 N1627 1.314 . S
C1625 H1666 0.930 . S
C1626 C1624 1.358 . S
C1626 N1627 1.279 1_545 S
C1626 H1667 0.930 . S
N1627 C1625 1.314 . S
N1627 C1626 1.279 1_565 S
C1628 C1630 1.353 . S
C1628 N1631 1.314 1_545 S
C1628 H1634 0.930 . S
C1629 N1631 1.279 . S
C1629 C1632 1.358 . S
C1629 H1635 0.930 . S
C1630 C1628 1.353 . S
C1630 C1633 1.323 1_545 S
C1630 H1668 0.929 . S
N1631 Li1586 1.991 . S
N1631 C1628 1.314 1_565 S
N1631 C1629 1.279 . S
C1632 C1629 1.358 . S
C1632 C1633 1.380 . S
C1632 H1669 0.930 . S
C1633 C1630 1.323 1_565 S
C1633 C1632 1.380 . S
H1634 C1628 0.930 . S
H1635 C1629 0.930 . S
C1636 N1637 1.314 . S
C1636 C1638 1.353 . S
C1636 H1642 0.930 . S
N1637 Li1587 1.990 . S
N1637 C1636 1.314 . S
N1637 C1640 1.279 . S
C1638 C1636 1.353 . S
C1638 C1641 1.348 . S
C1638 H1670 0.929 . S
C1639 C1640 1.358 . S
C1639 C1641 1.356 . S
C1639 H1671 0.930 . S
C1640 N1637 1.279 . S
C1640 C1639 1.358 . S
C1640 H1643 0.930 . S
C1641 C1638 1.348 . S
C1641 C1639 1.356 . S
H1642 C1636 0.930 . S
H1643 C1640 0.930 . S
O1644 Li1584 1.956 . S
O1644 Li1585 1.970 . S
O1644 Li1586 1.933 1_545 S
O1644 C1588 1.325 . S
O1645 Li1584 1.970 1_565 S
O1645 Li1585 1.945 1_565 S
O1645 Li1587 1.972 . S
O1645 C1594 1.324 1_565 S
O1646 Li1584 1.961 1_565 S
O1646 Li1586 1.982 . S
O1646 Li1587 1.970 . S
O1646 C1616 1.325 . S
O1647 Li1585 1.975 . S
O1647 Li1586 1.970 1_545 S
O1647 Li1587 1.942 1_545 S
O1647 C1622 1.324 1_545 S
H1648 C1590 0.929 . S
H1649 C1591 0.930 . S
H1650 C1592 0.930 . S
H1651 C1593 0.930 . S
H1652 C1595 0.930 . S
H1653 C1597 0.929 . S
H1654 C1598 0.930 . S
H1655 C1599 0.930 . S
H1656 C1602 0.930 . S
H1657 C1605 0.929 . S
H1658 C1610 0.929 . S
H1659 C1611 0.930 . S
H1660 C1618 0.929 . S
H1661 C1619 0.930 . S
H1662 C1620 0.930 . S
H1663 C1621 0.930 . S
H1664 C1623 0.929 . S
H1665 C1624 0.930 . S
H1666 C1625 0.930 . S
H1667 C1626 0.930 . S
H1668 C1630 0.929 . S
H1669 C1632 0.930 . S
H1670 C1638 0.929 . S
H1671 C1639 0.930 . S
Li1672 N1689 1.990 . S
Li1672 O1732 1.956 . S
Li1672 O1733 1.970 . S
Li1672 O1734 1.961 1_554 S
Li1673 N1697 1.990 . S
Li1673 O1732 1.970 . S
Li1673 O1733 1.956 . S
Li1673 O1735 1.961 . S
Li1674 N1719 1.990 . S
Li1674 O1732 1.961 . S
Li1674 O1734 1.956 1_554 S
Li1674 O1735 1.970 . S
Li1675 N1725 1.990 . S
Li1675 O1733 1.961 1_556 S
Li1675 O1734 1.970 . S
Li1675 O1735 1.956 1_556 S
C1676 C1678 1.348 . S
C1676 C1679 1.356 . S
C1676 O1732 1.325 . S
N1677 C1680 1.314 . S
N1677 C1681 1.279 . S
C1678 C1676 1.348 . S
C1678 C1680 1.353 . S
C1678 H1736 0.929 . S
C1679 C1676 1.356 . S
C1679 C1681 1.358 . S
C1679 H1737 0.930 . S
C1680 N1677 1.314 . S
C1680 C1678 1.353 . S
C1680 H1738 0.930 . S
C1681 N1677 1.279 . S
C1681 C1679 1.358 . S
C1681 H1739 0.930 . S
C1682 C1685 1.348 . S
C1682 C1686 1.356 1_554 S
C1682 O1733 1.325 . S
C1683 N1684 1.279 1_556 S
C1683 C1686 1.358 . S
C1683 H1740 0.930 . S
N1684 C1683 1.279 1_554 S
N1684 C1687 1.314 . S
C1685 C1682 1.348 . S
C1685 C1687 1.353 . S
C1685 H1741 0.929 . S
C1686 C1682 1.356 1_556 S
C1686 C1683 1.358 . S
C1686 H1742 0.930 . S
C1687 N1684 1.314 . S
C1687 C1685 1.353 . S
C1687 H1743 0.930 . S
C1688 N1689 1.314 1_556 S
C1688 C1693 1.353 . S
C1688 H1694 0.930 . S
N1689 Li1672 1.990 . S
N1689 C1688 1.314 1_554 S
N1689 C1691 1.279 . S
C1690 C1691 1.358 . S
C1690 C1692 1.356 . S
C1690 H1744 0.930 . S
C1691 N1689 1.279 . S
C1691 C1690 1.358 . S
C1691 H1695 0.930 . S
C1692 C1690 1.356 . S
C1692 C1693 1.348 1_554 S
C1693 C1688 1.353 . S
C1693 C1692 1.348 1_556 S
C1693 H1745 0.929 . S
H1694 C1688 0.930 . S
H1695 C1691 0.930 . S
C1696 N1697 1.314 . S
C1696 C1698 1.353 . S
C1696 H1702 0.930 . S
N1697 Li1673 1.990 . S
N1697 C1696 1.314 . S
N1697 C1700 1.279 . S
C1698 C1696 1.353 . S
C1698 C1701 1.348 . S
C1698 H1746 0.929 . S
C1699 C1700 1.358 . S
C1699 C1701 1.356 . S
C1699 H1747 0.930 . S
C1700 N1697 1.279 . S
C1700 C1699 1.358 . S
C1700 H1703 0.930 . S
C1701 C1698 1.348 . S
C1701 C1699 1.356 . S
H1702 C1696 0.930 . S
H1703 C1700 0.930 . S
C1704 C1706 1.348 . S
C1704 C1707 1.356 . S
C1704 O1734 1.325 . S
N1705 C1708 1.314 . S
N1705 C1709 1.279 . S
C1706 C1704 1.348 . S
C1706 C1708 1.353 . S
C1706 H1748 0.929 . S
C1707 C1704 1.356 . S
C1707 C1709 1.358 . S
C1707 H1749 0.930 . S
C1708 N1705 1.314 . S
C1708 C1706 1.353 . S
C1708 H1750 0.930 . S
C1709 N1705 1.279 . S
C1709 C1707 1.358 . S
C1709 H1751 0.930 . S
C1710 C1711 1.348 1_554 S
C1710 C1712 1.356 . S
C1710 O1735 1.325 . S
C1711 C1710 1.348 1_556 S
C1711 C1713 1.353 . S
C1711 H1752 0.929 . S
C1712 C1710 1.356 . S
C1712 C1714 1.358 . S
C1712 H1753 0.930 . S
C1713 C1711 1.353 . S
C1713 N1715 1.314 . S
C1713 H1754 0.930 . S
C1714 C1712 1.358 . S
C1714 N1715 1.279 1_554 S
C1714 H1755 0.930 . S
N1715 C1713 1.314 . S
N1715 C1714 1.279 1_556 S
C1716 C1718 1.353 . S
C1716 N1719 1.314 . S
C1716 H1722 0.930 . S
C1717 N1719 1.279 1_556 S
C1717 C1720 1.358 . S
C1717 H1723 0.930 . S
C1718 C1716 1.353 . S
C1718 C1721 1.348 . S
C1718 H1756 0.929 . S
N1719 Li1674 1.990 . S
N1719 C1716 1.314 . S
N1719 C1717 1.279 1_554 S
C1720 C1717 1.358 . S
C1720 C1721 1.356 1_556 S
C1720 H1757 0.930 . S
C1721 C1718 1.348 . S
C1721 C1720 1.356 1_554 S
H1722 C1716 0.930 . S
H1723 C1717 0.930 . S
C1724 N1725 1.314 . S
C1724 C1726 1.353 . S
C1724 H1730 0.930 . S
N1725 Li1675 1.990 . S
N1725 C1724 1.314 . S
N1725 C1728 1.279 . S
C1726 C1724 1.353 . S
C1726 C1729 1.348 . S
C1726 H1758 0.929 . S
C1727 C1728 1.358 . S
C1727 C1729 1.356 . S
C1727 H1759 0.930 . S
C1728 N1725 1.279 . S
C1728 C1727 1.358 . S
C1728 H1731 0.930 . S
C1729 C1726 1.348 . S
C1729 C1727 1.356 . S
H1730 C1724 0.930 . S
H1731 C1728 0.930 . S
O1732 Li1672 1.956 . S
O1732 Li1673 1.970 . S
O1732 Li1674 1.961 . S
O1732 C1676 1.325 . S
O1733 Li1672 1.970 . S
O1733 Li1673 1.956 . S
O1733 Li1675 1.961 1_554 S
O1733 C1682 1.325 . S
O1734 Li1672 1.961 1_556 S
O1734 Li1674 1.956 1_556 S
O1734 Li1675 1.970 . S
O1734 C1704 1.325 . S
O1735 Li1673 1.961 . S
O1735 Li1674 1.970 . S
O1735 Li1675 1.956 1_554 S
O1735 C1710 1.325 . S
H1736 C1678 0.929 . S
H1737 C1679 0.930 . S
H1738 C1680 0.930 . S
H1739 C1681 0.930 . S
H1740 C1683 0.930 . S
H1741 C1685 0.929 . S
H1742 C1686 0.930 . S
H1743 C1687 0.930 . S
H1744 C1690 0.930 . S
H1745 C1693 0.929 . S
H1746 C1698 0.929 . S
H1747 C1699 0.930 . S
H1748 C1706 0.929 . S
H1749 C1707 0.930 . S
H1750 C1708 0.930 . S
H1751 C1709 0.930 . S
H1752 C1711 0.929 . S
H1753 C1712 0.930 . S
H1754 C1713 0.930 . S
H1755 C1714 0.930 . S
H1756 C1718 0.929 . S
H1757 C1720 0.930 . S
H1758 C1726 0.929 . S
H1759 C1727 0.930 . S
Li1760 N1777 1.990 . S
Li1760 O1820 1.979 . S
Li1760 O1821 1.970 . S
Li1760 O1822 1.961 . S
Li1761 N1785 1.990 . S
Li1761 O1820 1.973 . S
Li1761 O1821 1.956 . S
Li1761 O1823 1.961 1_554 S
Li1762 N1807 1.990 . S
Li1762 O1820 1.940 1_556 S
Li1762 O1822 1.956 1_556 S
Li1762 O1823 1.970 . S
Li1763 N1813 1.990 . S
Li1763 O1821 1.961 . S
Li1763 O1822 1.970 . S
Li1763 O1823 1.956 1_554 S
C1764 C1766 1.359 . S
C1764 C1767 1.349 1_554 S
C1764 O1820 1.325 . S
N1765 C1768 1.314 . S
N1765 C1769 1.279 1_554 S
C1766 C1764 1.359 . S
C1766 C1768 1.353 . S
C1766 H1824 0.929 . S
C1767 C1764 1.349 1_556 S
C1767 C1769 1.358 . S
C1767 H1825 0.930 . S
C1768 N1765 1.314 . S
C1768 C1766 1.353 . S
C1768 H1826 0.930 . S
C1769 N1765 1.279 1_556 S
C1769 C1767 1.358 . S
C1769 H1827 0.930 . S
C1770 C1773 1.348 . S
C1770 C1774 1.356 . S
C1770 O1821 1.325 . S
C1771 N1772 1.279 . S
C1771 C1774 1.358 . S
C1771 H1828 0.930 . S
N1772 C1771 1.279 . S
N1772 C1775 1.314 . S
C1773 C1770 1.348 . S
C1773 C1775 1.353 . S
C1773 H1829 0.929 . S
C1774 C1770 1.356 . S
C1774 C1771 1.358 . S
C1774 H1830 0.930 . S
C1775 N1772 1.314 . S
C1775 C1773 1.353 . S
C1775 H1831 0.930 . S
C1776 N1777 1.314 . S
C1776 C1781 1.353 . S
C1776 H1782 0.930 . S
N1777 Li1760 1.990 . S
N1777 C1776 1.314 . S
N1777 C1779 1.279 . S
C1778 C1779 1.358 . S
C1778 C1780 1.356 . S
C1778 H1832 0.930 . S
C1779 N1777 1.279 . S
C1779 C1778 1.358 . S
C1779 H1783 0.930 . S
C1780 C1778 1.356 . S
C1780 C1781 1.348 . S
C1781 C1776 1.353 . S
C1781 C1780 1.348 . S
C1781 H1833 0.929 . S
H1782 C1776 0.930 . S
H1783 C1779 0.930 . S
C1784 N1785 1.314 1_556 S
C1784 C1786 1.353 . S
C1784 H1790 0.930 . S
N1785 Li1761 1.990 . S
N1785 C1784 1.314 1_554 S
N1785 C1788 1.279 . S
C1786 C1784 1.353 . S
C1786 C1789 1.348 1_556 S
C1786 H1834 0.929 . S
C1787 C1788 1.358 . S
C1787 C1789 1.356 . S
C1787 H1835 0.930 . S
C1788 N1785 1.279 . S
C1788 C1787 1.358 . S
C1788 H1791 0.930 . S
C1789 C1786 1.348 1_554 S
C1789 C1787 1.356 . S
H1790 C1784 0.930 . S
H1791 C1788 0.930 . S
C1792 C1794 1.348 1_554 S
C1792 C1795 1.356 . S
C1792 O1822 1.325 . S
N1793 C1796 1.319 . S
N1793 C1797 1.274 1_556 S
C1794 C1792 1.348 1_556 S
C1794 C1796 1.353 . S
C1794 H1836 0.929 . S
C1795 C1792 1.356 . S
C1795 C1797 1.358 . S
C1795 H1837 0.930 . S
C1796 N1793 1.319 . S
C1796 C1794 1.353 . S
C1796 H1838 0.930 . S
C1797 N1793 1.274 1_554 S
C1797 C1795 1.358 . S
C1797 H1839 0.930 . S
C1798 C1799 1.348 . S
C1798 C1800 1.356 . S
C1798 O1823 1.325 . S
C1799 C1798 1.348 . S
C1799 C1801 1.353 . S
C1799 H1840 0.929 . S
C1800 C1798 1.356 . S
C1800 C1802 1.358 . S
C1800 H1841 0.930 . S
C1801 C1799 1.353 . S
C1801 N1803 1.314 . S
C1801 H1842 0.930 . S
C1802 C1800 1.358 . S
C1802 N1803 1.279 . S
C1802 H1843 0.930 . S
N1803 C1801 1.314 . S
N1803 C1802 1.279 . S
C1804 C1806 1.353 . S
C1804 N1807 1.314 . S
C1804 H1810 0.930 . S
C1805 N1807 1.279 . S
C1805 C1808 1.358 . S
C1805 H1811 0.930 . S
C1806 C1804 1.353 . S
C1806 C1809 1.348 . S
C1806 H1844 0.929 . S
N1807 Li1762 1.990 . S
N1807 C1804 1.314 . S
N1807 C1805 1.279 . S
C1808 C1805 1.358 . S
C1808 C1809 1.356 . S
C1808 H1845 0.930 . S
C1809 C1806 1.348 . S
C1809 C1808 1.356 . S
H1810 C1804 0.930 . S
H1811 C1805 0.930 . S
C1812 N1813 1.314 . S
C1812 C1814 1.353 . S
C1812 H1818 0.930 . S
N1813 Li1763 1.990 . S
N1813 C1812 1.314 . S
N1813 C1816 1.279 1_554 S
C1814 C1812 1.353 . S
C1814 C1817 1.348 . S
C1814 H1846 0.929 . S
C1815 C1816 1.358 . S
C1815 C1817 1.356 1_556 S
C1815 H1847 0.930 . S
C1816 N1813 1.279 1_556 S
C1816 C1815 1.358 . S
C1816 H1819 0.930 . S
C1817 C1814 1.348 . S
C1817 C1815 1.356 1_554 S
H1818 C1812 0.930 . S
H1819 C1816 0.930 . S
O1820 Li1760 1.979 . S
O1820 Li1761 1.973 . S
O1820 Li1762 1.940 1_554 S
O1820 C1764 1.325 . S
O1821 Li1760 1.970 . S
O1821 Li1761 1.956 . S
O1821 Li1763 1.961 . S
O1821 C1770 1.325 . S
O1822 Li1760 1.961 . S
O1822 Li1762 1.956 1_554 S
O1822 Li1763 1.970 . S
O1822 C1792 1.325 . S
O1823 Li1761 1.961 1_556 S
O1823 Li1762 1.970 . S
O1823 Li1763 1.956 1_556 S
O1823 C1798 1.325 . S
H1824 C1766 0.929 . S
H1825 C1767 0.930 . S
H1826 C1768 0.930 . S
H1827 C1769 0.930 . S
H1828 C1771 0.930 . S
H1829 C1773 0.929 . S
H1830 C1774 0.930 . S
H1831 C1775 0.930 . S
H1832 C1778 0.930 . S
H1833 C1781 0.929 . S
H1834 C1786 0.929 . S
H1835 C1787 0.930 . S
H1836 C1794 0.929 . S
H1837 C1795 0.930 . S
H1838 C1796 0.930 . S
H1839 C1797 0.930 . S
H1840 C1799 0.929 . S
H1841 C1800 0.930 . S
H1842 C1801 0.930 . S
H1843 C1802 0.930 . S
H1844 C1806 0.929 . S
H1845 C1808 0.930 . S
H1846 C1814 0.929 . S
H1847 C1815 0.930 . S
Li1848 N1865 1.990 . S
Li1848 O1908 1.956 . S
Li1848 O1909 1.970 . S
Li1848 O1910 1.961 . S
Li1849 N1873 1.990 . S
Li1849 O1908 1.970 . S
Li1849 O1909 1.956 . S
Li1849 O1911 1.961 . S
Li1850 N1895 1.990 . S
Li1850 O1908 1.961 . S
Li1850 O1910 1.956 . S
Li1850 O1911 1.970 . S
Li1851 N1901 1.990 . S
Li1851 O1909 1.961 . S
Li1851 O1910 1.970 . S
Li1851 O1911 1.956 . S
C1852 C1854 1.348 . S
C1852 C1855 1.356 . S
C1852 O1908 1.325 . S
N1853 C1856 1.314 . S
N1853 C1857 1.279 . S
C1854 C1852 1.348 . S
C1854 C1856 1.353 . S
C1854 H1912 0.929 . S
C1855 C1852 1.356 . S
C1855 C1857 1.358 . S
C1855 H1913 0.930 . S
C1856 N1853 1.314 . S
C1856 C1854 1.353 . S
C1856 H1914 0.930 . S
C1857 N1853 1.279 . S
C1857 C1855 1.358 . S
C1857 H1915 0.930 . S
C1858 C1861 1.348 . S
C1858 C1862 1.356 . S
C1858 O1909 1.325 . S
C1859 N1860 1.279 . S
C1859 C1862 1.358 . S
C1859 H1916 0.930 . S
N1860 C1859 1.279 . S
N1860 C1863 1.314 . S
C1861 C1858 1.348 . S
C1861 C1863 1.353 . S
C1861 H1917 0.929 . S
C1862 C1858 1.356 . S
C1862 C1859 1.358 . S
C1862 H1918 0.930 . S
C1863 N1860 1.314 . S
C1863 C1861 1.353 . S
C1863 H1919 0.930 . S
C1864 N1865 1.314 . S
C1864 C1869 1.353 . S
C1864 H1870 0.930 . S
N1865 Li1848 1.990 . S
N1865 C1864 1.314 . S
N1865 C1867 1.279 . S
C1866 C1867 1.358 . S
C1866 C1868 1.356 . S
C1866 H1920 0.930 . S
C1867 N1865 1.279 . S
C1867 C1866 1.358 . S
C1867 H1871 0.930 . S
C1868 C1866 1.356 . S
C1868 C1869 1.348 . S
C1869 C1864 1.353 . S
C1869 C1868 1.348 . S
C1869 H1921 0.929 . S
H1870 C1864 0.930 . S
H1871 C1867 0.930 . S
C1872 N1873 1.314 . S
C1872 C1874 1.353 . S
C1872 H1878 0.930 . S
N1873 Li1849 1.990 . S
N1873 C1872 1.314 . S
N1873 C1876 1.279 . S
C1874 C1872 1.353 . S
C1874 C1877 1.348 . S
C1874 H1922 0.929 . S
C1875 C1876 1.358 . S
C1875 C1877 1.356 . S
C1875 H1923 0.930 . S
C1876 N1873 1.279 . S
C1876 C1875 1.358 . S
C1876 H1879 0.930 . S
C1877 C1874 1.348 . S
C1877 C1875 1.356 . S
H1878 C1872 0.930 . S
H1879 C1876 0.930 . S
C1880 C1882 1.348 . S
C1880 C1883 1.356 . S
C1880 O1910 1.325 . S
N1881 C1884 1.314 . S
N1881 C1885 1.279 . S
C1882 C1880 1.348 . S
C1882 C1884 1.353 . S
C1882 H1924 0.929 . S
C1883 C1880 1.356 . S
C1883 C1885 1.358 . S
C1883 H1925 0.930 . S
C1884 N1881 1.314 . S
C1884 C1882 1.353 . S
C1884 H1926 0.930 . S
C1885 N1881 1.279 . S
C1885 C1883 1.358 . S
C1885 H1927 0.930 . S
C1886 C1887 1.348 . S
C1886 C1888 1.356 . S
C1886 O1911 1.325 . S
C1887 C1886 1.348 . S
C1887 C1889 1.353 . S
C1887 H1928 0.929 . S
C1888 C1886 1.356 . S
C1888 C1890 1.358 . S
C1888 H1929 0.930 . S
C1889 C1887 1.353 . S
C1889 N1891 1.314 . S
C1889 H1930 0.930 . S
C1890 C1888 1.358 . S
C1890 N1891 1.279 . S
C1890 H1931 0.930 . S
N1891 C1889 1.314 . S
N1891 C1890 1.279 . S
C1892 C1894 1.353 . S
C1892 N1895 1.314 . S
C1892 H1898 0.930 . S
C1893 N1895 1.279 . S
C1893 C1896 1.358 . S
C1893 H1899 0.930 . S
C1894 C1892 1.353 . S
C1894 C1897 1.348 . S
C1894 H1932 0.929 . S
N1895 Li1850 1.990 . S
N1895 C1892 1.314 . S
N1895 C1893 1.279 . S
C1896 C1893 1.358 . S
C1896 C1897 1.356 . S
C1896 H1933 0.930 . S
C1897 C1894 1.348 . S
C1897 C1896 1.356 . S
H1898 C1892 0.930 . S
H1899 C1893 0.930 . S
C1900 N1901 1.314 . S
C1900 C1902 1.353 . S
C1900 H1906 0.930 . S
N1901 Li1851 1.990 . S
N1901 C1900 1.314 . S
N1901 C1904 1.279 . S
C1902 C1900 1.353 . S
C1902 C1905 1.348 . S
C1902 H1934 0.929 . S
C1903 C1904 1.358 . S
C1903 C1905 1.356 . S
C1903 H1935 0.930 . S
C1904 N1901 1.279 . S
C1904 C1903 1.358 . S
C1904 H1907 0.930 . S
C1905 C1902 1.348 . S
C1905 C1903 1.356 . S
H1906 C1900 0.930 . S
H1907 C1904 0.930 . S
O1908 Li1848 1.956 . S
O1908 Li1849 1.970 . S
O1908 Li1850 1.961 . S
O1908 C1852 1.325 . S
O1909 Li1848 1.970 . S
O1909 Li1849 1.956 . S
O1909 Li1851 1.961 . S
O1909 C1858 1.325 . S
O1910 Li1848 1.961 . S
O1910 Li1850 1.956 . S
O1910 Li1851 1.970 . S
O1910 C1880 1.325 . S
O1911 Li1849 1.961 . S
O1911 Li1850 1.970 . S
O1911 Li1851 1.956 . S
O1911 C1886 1.325 . S
H1912 C1854 0.929 . S
H1913 C1855 0.930 . S
H1914 C1856 0.930 . S
H1915 C1857 0.930 . S
H1916 C1859 0.930 . S
H1917 C1861 0.929 . S
H1918 C1862 0.930 . S
H1919 C1863 0.930 . S
H1920 C1866 0.930 . S
H1921 C1869 0.929 . S
H1922 C1874 0.929 . S
H1923 C1875 0.930 . S
H1924 C1882 0.929 . S
H1925 C1883 0.930 . S
H1926 C1884 0.930 . S
H1927 C1885 0.930 . S
H1928 C1887 0.929 . S
H1929 C1888 0.930 . S
H1930 C1889 0.930 . S
H1931 C1890 0.930 . S
H1932 C1894 0.929 . S
H1933 C1896 0.930 . S
H1934 C1902 0.929 . S
H1935 C1903 0.930 . S
Li1936 N1953 1.990 . S
Li1936 O1996 1.956 . S
Li1936 O1997 1.970 . S
Li1936 O1998 1.961 . S
Li1937 N1961 1.990 . S
Li1937 O1996 1.970 . S
Li1937 O1997 1.956 . S
Li1937 O1999 1.961 . S
Li1938 N1983 1.990 . S
Li1938 O1996 1.961 . S
Li1938 O1998 1.956 . S
Li1938 O1999 1.970 . S
Li1939 N1989 1.990 . S
Li1939 O1997 1.961 . S
Li1939 O1998 1.970 . S
Li1939 O1999 1.956 . S
C1940 C1942 1.348 . S
C1940 C1943 1.356 . S
C1940 O1996 1.325 . S
N1941 C1944 1.314 . S
N1941 C1945 1.279 . S
C1942 C1940 1.348 . S
C1942 C1944 1.353 . S
C1942 H2000 0.929 . S
C1943 C1940 1.356 . S
C1943 C1945 1.358 . S
C1943 H2001 0.930 . S
C1944 N1941 1.314 . S
C1944 C1942 1.353 . S
C1944 H2002 0.930 . S
C1945 N1941 1.279 . S
C1945 C1943 1.358 . S
C1945 H2003 0.930 . S
C1946 C1949 1.348 . S
C1946 C1950 1.356 . S
C1946 O1997 1.325 . S
C1947 N1948 1.279 . S
C1947 C1950 1.358 . S
C1947 H2004 0.930 . S
N1948 C1947 1.279 . S
N1948 C1951 1.314 . S
C1949 C1946 1.348 . S
C1949 C1951 1.353 . S
C1949 H2005 0.929 . S
C1950 C1946 1.356 . S
C1950 C1947 1.358 . S
C1950 H2006 0.930 . S
C1951 N1948 1.314 . S
C1951 C1949 1.353 . S
C1951 H2007 0.930 . S
C1952 N1953 1.314 . S
C1952 C1957 1.353 . S
C1952 H1958 0.930 . S
N1953 Li1936 1.990 . S
N1953 C1952 1.314 . S
N1953 C1955 1.279 . S
C1954 C1955 1.358 . S
C1954 C1956 1.356 . S
C1954 H2008 0.930 . S
C1955 N1953 1.279 . S
C1955 C1954 1.358 . S
C1955 H1959 0.930 . S
C1956 C1954 1.356 . S
C1956 C1957 1.348 . S
C1957 C1952 1.353 . S
C1957 C1956 1.348 . S
C1957 H2009 0.929 . S
H1958 C1952 0.930 . S
H1959 C1955 0.930 . S
C1960 N1961 1.314 . S
C1960 C1962 1.353 . S
C1960 H1966 0.930 . S
N1961 Li1937 1.990 . S
N1961 C1960 1.314 . S
N1961 C1964 1.279 . S
C1962 C1960 1.353 . S
C1962 C1965 1.348 . S
C1962 H2010 0.929 . S
C1963 C1964 1.358 . S
C1963 C1965 1.356 . S
C1963 H2011 0.930 . S
C1964 N1961 1.279 . S
C1964 C1963 1.358 . S
C1964 H1967 0.930 . S
C1965 C1962 1.348 . S
C1965 C1963 1.356 . S
H1966 C1960 0.930 . S
H1967 C1964 0.930 . S
C1968 C1970 1.348 . S
C1968 C1971 1.356 . S
C1968 O1998 1.325 . S
N1969 C1972 1.314 . S
N1969 C1973 1.279 . S
C1970 C1968 1.348 . S
C1970 C1972 1.353 . S
C1970 H2012 0.929 . S
C1971 C1968 1.356 . S
C1971 C1973 1.358 . S
C1971 H2013 0.930 . S
C1972 N1969 1.314 . S
C1972 C1970 1.353 . S
C1972 H2014 0.930 . S
C1973 N1969 1.279 . S
C1973 C1971 1.358 . S
C1973 H2015 0.930 . S
C1974 C1975 1.348 . S
C1974 C1976 1.356 . S
C1974 O1999 1.325 . S
C1975 C1974 1.348 . S
C1975 C1977 1.353 . S
C1975 H2016 0.929 . S
C1976 C1974 1.356 . S
C1976 C1978 1.358 . S
C1976 H2017 0.930 . S
C1977 C1975 1.353 . S
C1977 N1979 1.314 . S
C1977 H2018 0.930 . S
C1978 C1976 1.358 . S
C1978 N1979 1.279 . S
C1978 H2019 0.930 . S
N1979 C1977 1.314 . S
N1979 C1978 1.279 . S
C1980 C1982 1.353 . S
C1980 N1983 1.314 . S
C1980 H1986 0.930 . S
C1981 N1983 1.279 . S
C1981 C1984 1.358 . S
C1981 H1987 0.930 . S
C1982 C1980 1.353 . S
C1982 C1985 1.348 . S
C1982 H2020 0.929 . S
N1983 Li1938 1.990 . S
N1983 C1980 1.314 . S
N1983 C1981 1.279 . S
C1984 C1981 1.358 . S
C1984 C1985 1.356 . S
C1984 H2021 0.930 . S
C1985 C1982 1.348 . S
C1985 C1984 1.356 . S
H1986 C1980 0.930 . S
H1987 C1981 0.930 . S
C1988 N1989 1.314 . S
C1988 C1990 1.353 . S
C1988 H1994 0.930 . S
N1989 Li1939 1.990 . S
N1989 C1988 1.314 . S
N1989 C1992 1.279 . S
C1990 C1988 1.353 . S
C1990 C1993 1.348 . S
C1990 H2022 0.929 . S
C1991 C1992 1.358 . S
C1991 C1993 1.356 . S
C1991 H2023 0.930 . S
C1992 N1989 1.279 . S
C1992 C1991 1.358 . S
C1992 H1995 0.930 . S
C1993 C1990 1.348 . S
C1993 C1991 1.356 . S
H1994 C1988 0.930 . S
H1995 C1992 0.930 . S
O1996 Li1936 1.956 . S
O1996 Li1937 1.970 . S
O1996 Li1938 1.961 . S
O1996 C1940 1.325 . S
O1997 Li1936 1.970 . S
O1997 Li1937 1.956 . S
O1997 Li1939 1.961 . S
O1997 C1946 1.325 . S
O1998 Li1936 1.961 . S
O1998 Li1938 1.956 . S
O1998 Li1939 1.970 . S
O1998 C1968 1.325 . S
O1999 Li1937 1.961 . S
O1999 Li1938 1.970 . S
O1999 Li1939 1.956 . S
O1999 C1974 1.325 . S
H2000 C1942 0.929 . S
H2001 C1943 0.930 . S
H2002 C1944 0.930 . S
H2003 C1945 0.930 . S
H2004 C1947 0.930 . S
H2005 C1949 0.929 . S
H2006 C1950 0.930 . S
H2007 C1951 0.930 . S
H2008 C1954 0.930 . S
H2009 C1957 0.929 . S
H2010 C1962 0.929 . S
H2011 C1963 0.930 . S
H2012 C1970 0.929 . S
H2013 C1971 0.930 . S
H2014 C1972 0.930 . S
H2015 C1973 0.930 . S
H2016 C1975 0.929 . S
H2017 C1976 0.930 . S
H2018 C1977 0.930 . S
H2019 C1978 0.930 . S
H2020 C1982 0.929 . S
H2021 C1984 0.930 . S
H2022 C1990 0.929 . S
H2023 C1991 0.930 . S
Li2024 N2041 1.990 . S
Li2024 O2084 1.956 . S
Li2024 O2085 1.970 . S
Li2024 O2086 1.961 . S
Li2025 N2049 1.990 . S
Li2025 O2084 1.970 . S
Li2025 O2085 1.956 . S
Li2025 O2087 1.961 . S
Li2026 N2071 1.990 . S
Li2026 O2084 1.961 . S
Li2026 O2086 1.956 . S
Li2026 O2087 1.970 . S
Li2027 N2077 1.990 . S
Li2027 O2085 1.961 . S
Li2027 O2086 1.970 . S
Li2027 O2087 1.956 . S
C2028 C2030 1.348 . S
C2028 C2031 1.356 . S
C2028 O2084 1.325 . S
N2029 C2032 1.314 . S
N2029 C2033 1.279 . S
C2030 C2028 1.348 . S
C2030 C2032 1.353 . S
C2030 H2088 0.929 . S
C2031 C2028 1.356 . S
C2031 C2033 1.358 . S
C2031 H2089 0.930 . S
C2032 N2029 1.314 . S
C2032 C2030 1.353 . S
C2032 H2090 0.930 . S
C2033 N2029 1.279 . S
C2033 C2031 1.358 . S
C2033 H2091 0.930 . S
C2034 C2037 1.348 . S
C2034 C2038 1.356 . S
C2034 O2085 1.325 . S
C2035 N2036 1.279 . S
C2035 C2038 1.358 . S
C2035 H2092 0.930 . S
N2036 C2035 1.279 . S
N2036 C2039 1.314 . S
C2037 C2034 1.348 . S
C2037 C2039 1.353 . S
C2037 H2093 0.929 . S
C2038 C2034 1.356 . S
C2038 C2035 1.358 . S
C2038 H2094 0.930 . S
C2039 N2036 1.314 . S
C2039 C2037 1.353 . S
C2039 H2095 0.930 . S
C2040 N2041 1.314 . S
C2040 C2045 1.353 . S
C2040 H2046 0.930 . S
N2041 Li2024 1.990 . S
N2041 C2040 1.314 . S
N2041 C2043 1.279 . S
C2042 C2043 1.358 . S
C2042 C2044 1.356 . S
C2042 H2096 0.930 . S
C2043 N2041 1.279 . S
C2043 C2042 1.358 . S
C2043 H2047 0.930 . S
C2044 C2042 1.356 . S
C2044 C2045 1.348 . S
C2045 C2040 1.353 . S
C2045 C2044 1.348 . S
C2045 H2097 0.929 . S
H2046 C2040 0.930 . S
H2047 C2043 0.930 . S
C2048 N2049 1.314 . S
C2048 C2050 1.353 . S
C2048 H2054 0.930 . S
N2049 Li2025 1.990 . S
N2049 C2048 1.314 . S
N2049 C2052 1.279 . S
C2050 C2048 1.353 . S
C2050 C2053 1.348 . S
C2050 H2098 0.929 . S
C2051 C2052 1.358 . S
C2051 C2053 1.356 . S
C2051 H2099 0.930 . S
C2052 N2049 1.279 . S
C2052 C2051 1.358 . S
C2052 H2055 0.930 . S
C2053 C2050 1.348 . S
C2053 C2051 1.356 . S
H2054 C2048 0.930 . S
H2055 C2052 0.930 . S
C2056 C2058 1.348 . S
C2056 C2059 1.356 . S
C2056 O2086 1.325 . S
N2057 C2060 1.314 . S
N2057 C2061 1.279 . S
C2058 C2056 1.348 . S
C2058 C2060 1.353 . S
C2058 H2100 0.929 . S
C2059 C2056 1.356 . S
C2059 C2061 1.358 . S
C2059 H2101 0.930 . S
C2060 N2057 1.314 . S
C2060 C2058 1.353 . S
C2060 H2102 0.930 . S
C2061 N2057 1.279 . S
C2061 C2059 1.358 . S
C2061 H2103 0.930 . S
C2062 C2063 1.348 . S
C2062 C2064 1.356 . S
C2062 O2087 1.325 . S
C2063 C2062 1.348 . S
C2063 C2065 1.353 . S
C2063 H2104 0.929 . S
C2064 C2062 1.356 . S
C2064 C2066 1.358 . S
C2064 H2105 0.930 . S
C2065 C2063 1.353 . S
C2065 N2067 1.314 . S
C2065 H2106 0.930 . S
C2066 C2064 1.358 . S
C2066 N2067 1.279 . S
C2066 H2107 0.930 . S
N2067 C2065 1.314 . S
N2067 C2066 1.279 . S
C2068 C2070 1.353 . S
C2068 N2071 1.314 . S
C2068 H2074 0.930 . S
C2069 N2071 1.279 . S
C2069 C2072 1.358 . S
C2069 H2075 0.930 . S
C2070 C2068 1.353 . S
C2070 C2073 1.348 . S
C2070 H2108 0.929 . S
N2071 Li2026 1.990 . S
N2071 C2068 1.314 . S
N2071 C2069 1.279 . S
C2072 C2069 1.358 . S
C2072 C2073 1.356 . S
C2072 H2109 0.930 . S
C2073 C2070 1.348 . S
C2073 C2072 1.356 . S
H2074 C2068 0.930 . S
H2075 C2069 0.930 . S
C2076 N2077 1.314 . S
C2076 C2078 1.353 . S
C2076 H2082 0.930 . S
N2077 Li2027 1.990 . S
N2077 C2076 1.314 . S
N2077 C2080 1.279 . S
C2078 C2076 1.353 . S
C2078 C2081 1.348 . S
C2078 H2110 0.929 . S
C2079 C2080 1.358 . S
C2079 C2081 1.356 . S
C2079 H2111 0.930 . S
C2080 N2077 1.279 . S
C2080 C2079 1.358 . S
C2080 H2083 0.930 . S
C2081 C2078 1.348 . S
C2081 C2079 1.356 . S
H2082 C2076 0.930 . S
H2083 C2080 0.930 . S
O2084 Li2024 1.956 . S
O2084 Li2025 1.970 . S
O2084 Li2026 1.961 . S
O2084 C2028 1.325 . S
O2085 Li2024 1.970 . S
O2085 Li2025 1.956 . S
O2085 Li2027 1.961 . S
O2085 C2034 1.325 . S
O2086 Li2024 1.961 . S
O2086 Li2026 1.956 . S
O2086 Li2027 1.970 . S
O2086 C2056 1.325 . S
O2087 Li2025 1.961 . S
O2087 Li2026 1.970 . S
O2087 Li2027 1.956 . S
O2087 C2062 1.325 . S
H2088 C2030 0.929 . S
H2089 C2031 0.930 . S
H2090 C2032 0.930 . S
H2091 C2033 0.930 . S
H2092 C2035 0.930 . S
H2093 C2037 0.929 . S
H2094 C2038 0.930 . S
H2095 C2039 0.930 . S
H2096 C2042 0.930 . S
H2097 C2045 0.929 . S
H2098 C2050 0.929 . S
H2099 C2051 0.930 . S
H2100 C2058 0.929 . S
H2101 C2059 0.930 . S
H2102 C2060 0.930 . S
H2103 C2061 0.930 . S
H2104 C2063 0.929 . S
H2105 C2064 0.930 . S
H2106 C2065 0.930 . S
H2107 C2066 0.930 . S
H2108 C2070 0.929 . S
H2109 C2072 0.930 . S
H2110 C2078 0.929 . S
H2111 C2079 0.930 . S
O2112 Zn2113 1.953 . S
O2112 C2128 1.225 1_455 S
Zn2113 O2112 1.953 . S
Zn2113 O2114 1.958 . S
Zn2113 O2120 1.919 1_554 S
Zn2113 O2125 1.924 1_454 S
O2114 Zn2113 1.958 . S
O2114 Zn2115 1.944 1_545 S
O2114 Zn2116 1.934 1_455 S
O2114 Zn2117 1.931 1_444 S
Zn2115 O2114 1.944 1_565 S
Zn2115 O2118 1.933 . S
Zn2115 O2121 1.941 1_565 S
Zn2115 O2122 1.965 . S
Zn2116 O2114 1.934 1_655 S
Zn2116 O2123 1.938 . S
Zn2116 O2124 1.906 1_545 S
Zn2116 O2134 1.953 . S
Zn2117 O2114 1.931 1_666 S
Zn2117 O2119 1.932 . S
Zn2117 O2126 1.977 1_556 S
Zn2117 O2127 1.910 1_565 S
O2118 Zn2115 1.933 . S
O2118 C2129 1.226 1_554 S
O2119 Zn2117 1.932 . S
O2119 C2129 1.307 1_655 S
O2120 Zn2113 1.919 1_556 S
O2120 C2131 1.253 1_556 S
O2121 Zn2115 1.941 1_545 S
O2121 C2131 1.283 . S
O2122 Zn2115 1.965 . S
O2122 C2130 1.303 . S
O2123 Zn2116 1.938 . S
O2123 C2130 1.247 1_645 S
O2124 Zn2116 1.906 1_565 S
O2124 C2132 1.304 . S
O2125 Zn2113 1.924 1_656 S
O2125 C2133 1.311 . S
O2126 Zn2117 1.977 1_554 S
O2126 C2132 1.272 . S
O2127 Zn2117 1.910 1_545 S
O2127 C2133 1.231 . S
C2128 O2112 1.225 1_655 S
C2128 O2134 1.298 . S
C2129 O2118 1.226 1_556 S
C2129 O2119 1.307 1_455 S
C2130 O2122 1.303 . S
C2130 O2123 1.247 1_465 S
C2131 O2120 1.253 1_554 S
C2131 O2121 1.283 . S
C2132 O2124 1.304 . S
C2132 O2126 1.272 . S
C2133 O2125 1.311 . S
C2133 O2127 1.231 . S
O2134 Zn2116 1.953 . S
O2134 C2128 1.298 . S
O2135 Zn2136 1.953 . S
O2135 C2151 1.225 . S
Zn2136 O2135 1.953 . S
Zn2136 O2137 1.949 . S
Zn2136 O2143 1.919 . S
Zn2136 O2148 1.924 . S
O2137 Zn2136 1.949 . S
O2137 Zn2138 1.923 . S
O2137 Zn2139 1.950 . S
O2137 Zn2140 1.945 . S
Zn2138 O2137 1.923 . S
Zn2138 O2141 1.933 . S
Zn2138 O2144 1.941 . S
Zn2138 O2145 1.965 . S
Zn2139 O2137 1.950 . S
Zn2139 O2146 1.938 . S
Zn2139 O2147 1.906 . S
Zn2139 O2157 1.953 . S
Zn2140 O2137 1.945 . S
Zn2140 O2142 1.932 . S
Zn2140 O2149 1.977 . S
Zn2140 O2150 1.910 . S
O2141 Zn2138 1.933 . S
O2141 C2152 1.226 . S
O2142 Zn2140 1.932 . S
O2142 C2152 1.307 . S
O2143 Zn2136 1.919 . S
O2143 C2154 1.253 . S
O2144 Zn2138 1.941 . S
O2144 C2154 1.283 . S
O2145 Zn2138 1.965 . S
O2145 C2153 1.303 . S
O2146 Zn2139 1.938 . S
O2146 C2153 1.247 . S
O2147 Zn2139 1.906 . S
O2147 C2155 1.304 . S
O2148 Zn2136 1.924 . S
O2148 C2156 1.311 . S
O2149 Zn2140 1.977 . S
O2149 C2155 1.272 . S
O2150 Zn2140 1.910 . S
O2150 C2156 1.231 . S
C2151 O2135 1.225 . S
C2151 O2157 1.298 . S
C2152 O2141 1.226 . S
C2152 O2142 1.307 . S
C2153 O2145 1.303 . S
C2153 O2146 1.247 . S
C2154 O2143 1.253 . S
C2154 O2144 1.283 . S
C2155 O2147 1.304 . S
C2155 O2149 1.272 . S
C2156 O2148 1.311 . S
C2156 O2150 1.231 . S
O2157 Zn2139 1.953 . S
O2157 C2151 1.298 . S
O2158 Zn2159 1.953 . S
O2158 C2174 1.225 . S
Zn2159 O2158 1.953 . S
Zn2159 O2160 1.949 1_565 S
Zn2159 O2166 1.919 . S
Zn2159 O2171 1.924 . S
O2160 Zn2159 1.949 1_545 S
O2160 Zn2161 1.923 . S
O2160 Zn2162 1.950 . S
O2160 Zn2163 1.945 . S
Zn2161 O2160 1.923 . S
Zn2161 O2164 1.933 . S
Zn2161 O2167 1.941 . S
Zn2161 O2168 1.965 . S
Zn2162 O2160 1.950 . S
Zn2162 O2169 1.938 . S
Zn2162 O2170 1.906 . S
Zn2162 O2180 1.953 1_545 S
Zn2163 O2160 1.945 . S
Zn2163 O2165 1.932 . S
Zn2163 O2172 1.977 . S
Zn2163 O2173 1.910 . S
O2164 Zn2161 1.933 . S
O2164 C2175 1.226 . S
O2165 Zn2163 1.932 . S
O2165 C2175 1.307 . S
O2166 Zn2159 1.919 . S
O2166 C2177 1.253 . S
O2167 Zn2161 1.941 . S
O2167 C2177 1.283 1_545 S
O2168 Zn2161 1.965 . S
O2168 C2176 1.303 . S
O2169 Zn2162 1.938 . S
O2169 C2176 1.247 . S
O2170 Zn2162 1.906 . S
O2170 C2178 1.304 . S
O2171 Zn2159 1.924 . S
O2171 C2179 1.311 . S
O2172 Zn2163 1.977 . S
O2172 C2178 1.272 . S
O2173 Zn2163 1.910 . S
O2173 C2179 1.231 1_545 S
C2174 O2158 1.225 . S
C2174 O2180 1.298 . S
C2175 O2164 1.226 . S
C2175 O2165 1.307 . S
C2176 O2168 1.303 . S
C2176 O2169 1.247 . S
C2177 O2166 1.253 . S
C2177 O2167 1.283 1_565 S
C2178 O2170 1.304 . S
C2178 O2172 1.272 . S
C2179 O2171 1.311 . S
C2179 O2173 1.231 1_565 S
O2180 Zn2162 1.953 1_565 S
O2180 C2174 1.298 . S
O2181 Zn2182 1.953 . S
O2181 C2197 1.225 . S
Zn2182 O2181 1.953 . S
Zn2182 O2183 1.949 . S
Zn2182 O2189 1.919 . S
Zn2182 O2194 1.924 . S
O2183 Zn2182 1.949 . S
O2183 Zn2184 1.923 . S
O2183 Zn2185 1.950 . S
O2183 Zn2186 1.945 . S
Zn2184 O2183 1.923 . S
Zn2184 O2187 1.933 . S
Zn2184 O2190 1.941 . S
Zn2184 O2191 1.965 . S
Zn2185 O2183 1.950 . S
Zn2185 O2192 1.938 . S
Zn2185 O2193 1.906 . S
Zn2185 O2203 1.953 . S
Zn2186 O2183 1.945 . S
Zn2186 O2188 1.932 . S
Zn2186 O2195 1.977 . S
Zn2186 O2196 1.910 . S
O2187 Zn2184 1.933 . S
O2187 C2198 1.226 . S
O2188 Zn2186 1.932 . S
O2188 C2198 1.307 . S
O2189 Zn2182 1.919 . S
O2189 C2200 1.253 . S
O2190 Zn2184 1.941 . S
O2190 C2200 1.283 . S
O2191 Zn2184 1.965 . S
O2191 C2199 1.303 . S
O2192 Zn2185 1.938 . S
O2192 C2199 1.247 . S
O2193 Zn2185 1.906 . S
O2193 C2201 1.304 . S
O2194 Zn2182 1.924 . S
O2194 C2202 1.311 . S
O2195 Zn2186 1.977 . S
O2195 C2201 1.272 . S
O2196 Zn2186 1.910 . S
O2196 C2202 1.231 . S
C2197 O2181 1.225 . S
C2197 O2203 1.298 . S
C2198 O2187 1.226 . S
C2198 O2188 1.307 . S
C2199 O2191 1.303 . S
C2199 O2192 1.247 . S
C2200 O2189 1.253 . S
C2200 O2190 1.283 . S
C2201 O2193 1.304 . S
C2201 O2195 1.272 . S
C2202 O2194 1.311 . S
C2202 O2196 1.231 . S
O2203 Zn2185 1.953 . S
O2203 C2197 1.298 . S
O2204 Zn2205 1.959 1_455 S
O2204 C2220 1.225 . S
Zn2205 O2204 1.959 1_655 S
Zn2205 O2206 1.955 1_655 S
Zn2205 O2212 1.900 1_545 S
Zn2205 O2217 1.933 . S
O2206 Zn2205 1.955 1_455 S
O2206 Zn2207 1.923 1_545 S
O2206 Zn2208 1.950 . S
O2206 Zn2209 1.945 1_455 S
Zn2207 O2206 1.923 1_565 S
Zn2207 O2210 1.933 . S
Zn2207 O2213 1.941 . S
Zn2207 O2214 1.965 . S
Zn2208 O2206 1.950 . S
Zn2208 O2215 1.938 . S
Zn2208 O2216 1.906 . S
Zn2208 O2226 1.953 . S
Zn2209 O2206 1.945 1_655 S
Zn2209 O2211 1.932 . S
Zn2209 O2218 1.985 . S
Zn2209 O2219 1.910 . S
O2210 Zn2207 1.933 . S
O2210 C2221 1.226 1_455 S
O2211 Zn2209 1.932 . S
O2211 C2221 1.307 1_545 S
O2212 Zn2205 1.900 1_565 S
O2212 C2223 1.253 . S
O2213 Zn2207 1.941 . S
O2213 C2223 1.283 1_455 S
O2214 Zn2207 1.965 . S
O2214 C2222 1.303 . S
O2215 Zn2208 1.938 . S
O2215 C2222 1.247 1_545 S
O2216 Zn2208 1.906 . S
O2216 C2224 1.304 . S
O2217 Zn2205 1.933 . S
O2217 C2225 1.311 . S
O2218 Zn2209 1.985 . S
O2218 C2224 1.252 1_655 S
O2219 Zn2209 1.910 . S
O2219 C2225 1.231 . S
C2220 O2204 1.225 . S
C2220 O2226 1.298 . S
C2221 O2210 1.226 1_655 S
C2221 O2211 1.307 1_565 S
C2222 O2214 1.303 . S
C2222 O2215 1.247 1_565 S
C2223 O2212 1.253 . S
C2223 O2213 1.283 1_655 S
C2224 O2216 1.304 . S
C2224 O2218 1.252 1_455 S
C2225 O2217 1.311 . S
C2225 O2219 1.231 . S
O2226 Zn2208 1.953 . S
O2226 C2220 1.298 . S
O2227 Zn2228 1.953 . S
O2227 C2243 1.225 . S
Zn2228 O2227 1.953 . S
Zn2228 O2229 1.949 . S
Zn2228 O2235 1.919 . S
Zn2228 O2240 1.924 . S
O2229 Zn2228 1.949 . S
O2229 Zn2230 1.923 . S
O2229 Zn2231 1.950 . S
O2229 Zn2232 1.945 . S
Zn2230 O2229 1.923 . S
Zn2230 O2233 1.933 . S
Zn2230 O2236 1.941 . S
Zn2230 O2237 1.965 . S
Zn2231 O2229 1.950 . S
Zn2231 O2238 1.938 . S
Zn2231 O2239 1.906 . S
Zn2231 O2249 1.953 . S
Zn2232 O2229 1.945 . S
Zn2232 O2234 1.932 . S
Zn2232 O2241 1.977 . S
Zn2232 O2242 1.910 . S
O2233 Zn2230 1.933 . S
O2233 C2244 1.226 . S
O2234 Zn2232 1.932 . S
O2234 C2244 1.307 . S
O2235 Zn2228 1.919 . S
O2235 C2246 1.253 . S
O2236 Zn2230 1.941 . S
O2236 C2246 1.283 . S
O2237 Zn2230 1.965 . S
O2237 C2245 1.303 . S
O2238 Zn2231 1.938 . S
O2238 C2245 1.247 . S
O2239 Zn2231 1.906 . S
O2239 C2247 1.304 . S
O2240 Zn2228 1.924 . S
O2240 C2248 1.311 . S
O2241 Zn2232 1.977 . S
O2241 C2247 1.272 . S
O2242 Zn2232 1.910 . S
O2242 C2248 1.231 . S
C2243 O2227 1.225 . S
C2243 O2249 1.298 . S
C2244 O2233 1.226 . S
C2244 O2234 1.307 . S
C2245 O2237 1.303 . S
C2245 O2238 1.247 . S
C2246 O2235 1.253 . S
C2246 O2236 1.283 . S
C2247 O2239 1.304 . S
C2247 O2241 1.272 . S
C2248 O2240 1.311 . S
C2248 O2242 1.231 . S
O2249 Zn2231 1.953 . S
O2249 C2243 1.298 . S
O2250 Zn2251 1.953 . S
O2250 C2266 1.225 . S
Zn2251 O2250 1.953 . S
Zn2251 O2252 1.949 . S
Zn2251 O2258 1.919 1_545 S
Zn2251 O2263 1.924 . S
O2252 Zn2251 1.949 . S
O2252 Zn2253 1.931 1_545 S
O2252 Zn2254 1.950 . S
O2252 Zn2255 1.945 1_554 S
Zn2253 O2252 1.931 1_565 S
Zn2253 O2256 1.917 1_554 S
Zn2253 O2259 1.939 1_554 S
Zn2253 O2260 1.977 . S
Zn2254 O2252 1.950 . S
Zn2254 O2261 1.938 1_545 S
Zn2254 O2262 1.906 . S
Zn2254 O2272 1.953 . S
Zn2255 O2252 1.945 1_556 S
Zn2255 O2257 1.932 . S
Zn2255 O2264 1.977 1_556 S
Zn2255 O2265 1.910 . S
O2256 Zn2253 1.917 1_556 S
O2256 C2267 1.226 . S
O2257 Zn2255 1.932 . S
O2257 C2267 1.307 1_545 S
O2258 Zn2251 1.919 1_565 S
O2258 C2269 1.253 1_554 S
O2259 Zn2253 1.939 1_556 S
O2259 C2269 1.283 . S
O2260 Zn2253 1.977 . S
O2260 C2268 1.303 . S
O2261 Zn2254 1.938 1_565 S
O2261 C2268 1.247 . S
O2262 Zn2254 1.906 . S
O2262 C2270 1.304 . S
O2263 Zn2251 1.924 . S
O2263 C2271 1.311 . S
O2264 Zn2255 1.977 1_554 S
O2264 C2270 1.272 . S
O2265 Zn2255 1.910 . S
O2265 C2271 1.231 1_556 S
C2266 O2250 1.225 . S
C2266 O2272 1.298 . S
C2267 O2256 1.226 . S
C2267 O2257 1.307 1_565 S
C2268 O2260 1.303 . S
C2268 O2261 1.247 . S
C2269 O2258 1.253 1_556 S
C2269 O2259 1.283 . S
C2270 O2262 1.304 . S
C2270 O2264 1.272 . S
C2271 O2263 1.311 . S
C2271 O2265 1.231 1_554 S
O2272 Zn2254 1.953 . S
O2272 C2266 1.298 . S
O2273 Zn2274 1.953 . S
O2273 C2289 1.225 . S
Zn2274 O2273 1.953 . S
Zn2274 O2275 1.949 . S
Zn2274 O2281 1.919 . S
Zn2274 O2286 1.924 . S
O2275 Zn2274 1.949 . S
O2275 Zn2276 1.923 . S
O2275 Zn2277 1.950 . S
O2275 Zn2278 1.945 . S
Zn2276 O2275 1.923 . S
Zn2276 O2279 1.933 . S
Zn2276 O2282 1.941 . S
Zn2276 O2283 1.965 . S
Zn2277 O2275 1.950 . S
Zn2277 O2284 1.938 . S
Zn2277 O2285 1.906 . S
Zn2277 O2295 1.953 . S
Zn2278 O2275 1.945 . S
Zn2278 O2280 1.932 . S
Zn2278 O2287 1.977 . S
Zn2278 O2288 1.910 . S
O2279 Zn2276 1.933 . S
O2279 C2290 1.226 . S
O2280 Zn2278 1.932 . S
O2280 C2290 1.307 . S
O2281 Zn2274 1.919 . S
O2281 C2292 1.253 . S
O2282 Zn2276 1.941 . S
O2282 C2292 1.283 . S
O2283 Zn2276 1.965 . S
O2283 C2291 1.303 . S
O2284 Zn2277 1.938 . S
O2284 C2291 1.247 . S
O2285 Zn2277 1.906 . S
O2285 C2293 1.304 . S
O2286 Zn2274 1.924 . S
O2286 C2294 1.311 . S
O2287 Zn2278 1.977 . S
O2287 C2293 1.272 . S
O2288 Zn2278 1.910 . S
O2288 C2294 1.231 . S
C2289 O2273 1.225 . S
C2289 O2295 1.298 . S
C2290 O2279 1.226 . S
C2290 O2280 1.307 . S
C2291 O2283 1.303 . S
C2291 O2284 1.247 . S
C2292 O2281 1.253 . S
C2292 O2282 1.283 . S
C2293 O2285 1.304 . S
C2293 O2287 1.272 . S
C2294 O2286 1.311 . S
C2294 O2288 1.231 . S
O2295 Zn2277 1.953 . S
O2295 C2289 1.298 . S
O2296 Zn2297 1.953 . S
O2296 C2312 1.225 . S
Zn2297 O2296 1.953 . S
Zn2297 O2298 1.949 1_556 S
Zn2297 O2304 1.919 . S
Zn2297 O2309 1.924 . S
O2298 Zn2297 1.949 1_554 S
O2298 Zn2299 1.923 . S
O2298 Zn2300 1.950 . S
O2298 Zn2301 1.945 . S
Zn2299 O2298 1.923 . S
Zn2299 O2302 1.933 . S
Zn2299 O2305 1.941 . S
Zn2299 O2306 1.965 . S
Zn2300 O2298 1.950 . S
Zn2300 O2307 1.938 . S
Zn2300 O2308 1.906 . S
Zn2300 O2318 1.953 1_554 S
Zn2301 O2298 1.945 . S
Zn2301 O2303 1.932 . S
Zn2301 O2310 1.977 . S
Zn2301 O2311 1.910 . S
O2302 Zn2299 1.933 . S
O2302 C2313 1.226 . S
O2303 Zn2301 1.932 . S
O2303 C2313 1.307 . S
O2304 Zn2297 1.919 . S
O2304 C2315 1.253 1_556 S
O2305 Zn2299 1.941 . S
O2305 C2315 1.283 . S
O2306 Zn2299 1.965 . S
O2306 C2314 1.303 . S
O2307 Zn2300 1.938 . S
O2307 C2314 1.247 . S
O2308 Zn2300 1.906 . S
O2308 C2316 1.304 . S
O2309 Zn2297 1.924 . S
O2309 C2317 1.311 . S
O2310 Zn2301 1.977 . S
O2310 C2316 1.272 . S
O2311 Zn2301 1.910 . S
O2311 C2317 1.231 1_554 S
C2312 O2296 1.225 . S
C2312 O2318 1.298 . S
C2313 O2302 1.226 . S
C2313 O2303 1.307 . S
C2314 O2306 1.303 . S
C2314 O2307 1.247 . S
C2315 O2304 1.253 1_554 S
C2315 O2305 1.283 . S
C2316 O2308 1.304 . S
C2316 O2310 1.272 . S
C2317 O2309 1.311 . S
C2317 O2311 1.231 1_556 S
O2318 Zn2300 1.953 1_556 S
O2318 C2312 1.298 . S
O2319 Zn2320 1.953 . S
O2319 C2335 1.225 . S
Zn2320 O2319 1.953 . S
Zn2320 O2321 1.949 . S
Zn2320 O2327 1.919 . S
Zn2320 O2332 1.924 . S
O2321 Zn2320 1.949 . S
O2321 Zn2322 1.923 . S
O2321 Zn2323 1.950 . S
O2321 Zn2324 1.945 . S
Zn2322 O2321 1.923 . S
Zn2322 O2325 1.933 . S
Zn2322 O2328 1.941 . S
Zn2322 O2329 1.965 . S
Zn2323 O2321 1.950 . S
Zn2323 O2330 1.938 . S
Zn2323 O2331 1.906 . S
Zn2323 O2341 1.953 . S
Zn2324 O2321 1.945 . S
Zn2324 O2326 1.932 . S
Zn2324 O2333 1.977 . S
Zn2324 O2334 1.910 . S
O2325 Zn2322 1.933 . S
O2325 C2336 1.226 . S
O2326 Zn2324 1.932 . S
O2326 C2336 1.307 . S
O2327 Zn2320 1.919 . S
O2327 C2338 1.253 . S
O2328 Zn2322 1.941 . S
O2328 C2338 1.283 . S
O2329 Zn2322 1.965 . S
O2329 C2337 1.303 . S
O2330 Zn2323 1.938 . S
O2330 C2337 1.247 . S
O2331 Zn2323 1.906 . S
O2331 C2339 1.304 . S
O2332 Zn2320 1.924 . S
O2332 C2340 1.311 . S
O2333 Zn2324 1.977 . S
O2333 C2339 1.272 . S
O2334 Zn2324 1.910 . S
O2334 C2340 1.231 . S
C2335 O2319 1.225 . S
C2335 O2341 1.298 . S
C2336 O2325 1.226 . S
C2336 O2326 1.307 . S
C2337 O2329 1.303 . S
C2337 O2330 1.247 . S
C2338 O2327 1.253 . S
C2338 O2328 1.283 . S
C2339 O2331 1.304 . S
C2339 O2333 1.272 . S
C2340 O2332 1.311 . S
C2340 O2334 1.231 . S
O2341 Zn2323 1.953 . S
O2341 C2335 1.298 . S
O2342 Zn2343 1.953 . S
O2342 C2358 1.225 . S
Zn2343 O2342 1.953 . S
Zn2343 O2344 1.934 1_455 S
Zn2343 O2350 1.919 . S
Zn2343 O2355 1.924 . S
O2344 Zn2343 1.934 1_655 S
O2344 Zn2345 1.921 1_655 S
O2344 Zn2346 1.958 . S
O2344 Zn2347 1.952 . S
Zn2345 O2344 1.921 1_455 S
Zn2345 O2348 1.918 1_455 S
Zn2345 O2351 1.978 . S
Zn2345 O2352 1.953 1_455 S
Zn2346 O2344 1.958 . S
Zn2346 O2353 1.938 . S
Zn2346 O2354 1.906 . S
Zn2346 O2364 1.953 . S
Zn2347 O2344 1.952 . S
Zn2347 O2349 1.932 . S
Zn2347 O2356 1.977 . S
Zn2347 O2357 1.907 1_655 S
O2348 Zn2345 1.918 1_655 S
O2348 C2359 1.226 . S
O2349 Zn2347 1.932 . S
O2349 C2359 1.307 . S
O2350 Zn2343 1.919 . S
O2350 C2361 1.253 . S
O2351 Zn2345 1.978 . S
O2351 C2361 1.283 . S
O2352 Zn2345 1.953 1_655 S
O2352 C2360 1.303 . S
O2353 Zn2346 1.938 . S
O2353 C2360 1.247 . S
O2354 Zn2346 1.906 . S
O2354 C2362 1.304 . S
O2355 Zn2343 1.924 . S
O2355 C2363 1.311 . S
O2356 Zn2347 1.977 . S
O2356 C2362 1.272 . S
O2357 Zn2347 1.907 1_455 S
O2357 C2363 1.238 . S
C2358 O2342 1.225 . S
C2358 O2364 1.298 1_455 S
C2359 O2348 1.226 . S
C2359 O2349 1.307 . S
C2360 O2352 1.303 . S
C2360 O2353 1.247 . S
C2361 O2350 1.253 . S
C2361 O2351 1.283 . S
C2362 O2354 1.304 . S
C2362 O2356 1.272 . S
C2363 O2355 1.311 . S
C2363 O2357 1.238 . S
O2364 Zn2346 1.953 . S
O2364 C2358 1.298 1_655 S
O2365 Zn2366 1.953 . S
O2365 C2381 1.225 . S
Zn2366 O2365 1.953 . S
Zn2366 O2367 1.949 . S
Zn2366 O2373 1.919 . S
Zn2366 O2378 1.924 . S
O2367 Zn2366 1.949 . S
O2367 Zn2368 1.923 . S
O2367 Zn2369 1.950 . S
O2367 Zn2370 1.945 . S
Zn2368 O2367 1.923 . S
Zn2368 O2371 1.933 . S
Zn2368 O2374 1.941 . S
Zn2368 O2375 1.965 . S
Zn2369 O2367 1.950 . S
Zn2369 O2376 1.938 . S
Zn2369 O2377 1.906 . S
Zn2369 O2387 1.953 . S
Zn2370 O2367 1.945 . S
Zn2370 O2372 1.932 . S
Zn2370 O2379 1.977 . S
Zn2370 O2380 1.910 . S
O2371 Zn2368 1.933 . S
O2371 C2382 1.226 . S
O2372 Zn2370 1.932 . S
O2372 C2382 1.307 . S
O2373 Zn2366 1.919 . S
O2373 C2384 1.253 . S
O2374 Zn2368 1.941 . S
O2374 C2384 1.283 . S
O2375 Zn2368 1.965 . S
O2375 C2383 1.303 . S
O2376 Zn2369 1.938 . S
O2376 C2383 1.247 . S
O2377 Zn2369 1.906 . S
O2377 C2385 1.304 . S
O2378 Zn2366 1.924 . S
O2378 C2386 1.311 . S
O2379 Zn2370 1.977 . S
O2379 C2385 1.272 . S
O2380 Zn2370 1.910 . S
O2380 C2386 1.231 . S
C2381 O2365 1.225 . S
C2381 O2387 1.298 . S
C2382 O2371 1.226 . S
C2382 O2372 1.307 . S
C2383 O2375 1.303 . S
C2383 O2376 1.247 . S
C2384 O2373 1.253 . S
C2384 O2374 1.283 . S
C2385 O2377 1.304 . S
C2385 O2379 1.272 . S
C2386 O2378 1.311 . S
C2386 O2380 1.231 . S
O2387 Zn2369 1.953 . S
O2387 C2381 1.298 . S
O2388 Zn2389 1.953 . S
O2388 C2404 1.225 . S
Zn2389 O2388 1.953 . S
Zn2389 O2390 1.949 . S
Zn2389 O2396 1.919 . S
Zn2389 O2401 1.924 . S
O2390 Zn2389 1.949 . S
O2390 Zn2391 1.923 . S
O2390 Zn2392 1.950 . S
O2390 Zn2393 1.945 . S
Zn2391 O2390 1.923 . S
Zn2391 O2394 1.933 . S
Zn2391 O2397 1.941 . S
Zn2391 O2398 1.965 . S
Zn2392 O2390 1.950 . S
Zn2392 O2399 1.938 . S
Zn2392 O2400 1.906 . S
Zn2392 O2410 1.953 . S
Zn2393 O2390 1.945 . S
Zn2393 O2395 1.932 . S
Zn2393 O2402 1.977 . S
Zn2393 O2403 1.910 . S
O2394 Zn2391 1.933 . S
O2394 C2405 1.226 . S
O2395 Zn2393 1.932 . S
O2395 C2405 1.307 . S
O2396 Zn2389 1.919 . S
O2396 C2407 1.253 . S
O2397 Zn2391 1.941 . S
O2397 C2407 1.283 . S
O2398 Zn2391 1.965 . S
O2398 C2406 1.303 . S
O2399 Zn2392 1.938 . S
O2399 C2406 1.247 . S
O2400 Zn2392 1.906 . S
O2400 C2408 1.304 . S
O2401 Zn2389 1.924 . S
O2401 C2409 1.311 . S
O2402 Zn2393 1.977 . S
O2402 C2408 1.272 . S
O2403 Zn2393 1.910 . S
O2403 C2409 1.231 . S
C2404 O2388 1.225 . S
C2404 O2410 1.298 . S
C2405 O2394 1.226 . S
C2405 O2395 1.307 . S
C2406 O2398 1.303 . S
C2406 O2399 1.247 . S
C2407 O2396 1.253 . S
C2407 O2397 1.283 . S
C2408 O2400 1.304 . S
C2408 O2402 1.272 . S
C2409 O2401 1.311 . S
C2409 O2403 1.231 . S
O2410 Zn2392 1.953 . S
O2410 C2404 1.298 . S
O2411 Zn2412 1.953 . S
O2411 C2427 1.225 . S
Zn2412 O2411 1.953 . S
Zn2412 O2413 1.949 . S
Zn2412 O2419 1.919 . S
Zn2412 O2424 1.924 . S
O2413 Zn2412 1.949 . S
O2413 Zn2414 1.923 . S
O2413 Zn2415 1.950 . S
O2413 Zn2416 1.945 . S
Zn2414 O2413 1.923 . S
Zn2414 O2417 1.933 . S
Zn2414 O2420 1.941 . S
Zn2414 O2421 1.965 . S
Zn2415 O2413 1.950 . S
Zn2415 O2422 1.938 . S
Zn2415 O2423 1.906 . S
Zn2415 O2433 1.953 . S
Zn2416 O2413 1.945 . S
Zn2416 O2418 1.932 . S
Zn2416 O2425 1.977 . S
Zn2416 O2426 1.910 . S
O2417 Zn2414 1.933 . S
O2417 C2428 1.226 . S
O2418 Zn2416 1.932 . S
O2418 C2428 1.307 . S
O2419 Zn2412 1.919 . S
O2419 C2430 1.253 . S
O2420 Zn2414 1.941 . S
O2420 C2430 1.283 . S
O2421 Zn2414 1.965 . S
O2421 C2429 1.303 . S
O2422 Zn2415 1.938 . S
O2422 C2429 1.247 . S
O2423 Zn2415 1.906 . S
O2423 C2431 1.304 . S
O2424 Zn2412 1.924 . S
O2424 C2432 1.311 . S
O2425 Zn2416 1.977 . S
O2425 C2431 1.272 . S
O2426 Zn2416 1.910 . S
O2426 C2432 1.231 . S
C2427 O2411 1.225 . S
C2427 O2433 1.298 . S
C2428 O2417 1.226 . S
C2428 O2418 1.307 . S
C2429 O2421 1.303 . S
C2429 O2422 1.247 . S
C2430 O2419 1.253 . S
C2430 O2420 1.283 . S
C2431 O2423 1.304 . S
C2431 O2425 1.272 . S
C2432 O2424 1.311 . S
C2432 O2426 1.231 . S
O2433 Zn2415 1.953 . S
O2433 C2427 1.298 . S
O2434 Zn2435 1.953 . S
O2434 C2450 1.225 . S
Zn2435 O2434 1.953 . S
Zn2435 O2436 1.949 . S
Zn2435 O2442 1.919 . S
Zn2435 O2447 1.924 . S
O2436 Zn2435 1.949 . S
O2436 Zn2437 1.923 . S
O2436 Zn2438 1.950 . S
O2436 Zn2439 1.945 . S
Zn2437 O2436 1.923 . S
Zn2437 O2440 1.933 . S
Zn2437 O2443 1.941 . S
Zn2437 O2444 1.965 . S
Zn2438 O2436 1.950 . S
Zn2438 O2445 1.938 . S
Zn2438 O2446 1.906 . S
Zn2438 O2456 1.953 . S
Zn2439 O2436 1.945 . S
Zn2439 O2441 1.932 . S
Zn2439 O2448 1.977 . S
Zn2439 O2449 1.910 . S
O2440 Zn2437 1.933 . S
O2440 C2451 1.226 . S
O2441 Zn2439 1.932 . S
O2441 C2451 1.307 . S
O2442 Zn2435 1.919 . S
O2442 C2453 1.253 . S
O2443 Zn2437 1.941 . S
O2443 C2453 1.283 . S
O2444 Zn2437 1.965 . S
O2444 C2452 1.303 . S
O2445 Zn2438 1.938 . S
O2445 C2452 1.247 . S
O2446 Zn2438 1.906 . S
O2446 C2454 1.304 . S
O2447 Zn2435 1.924 . S
O2447 C2455 1.311 . S
O2448 Zn2439 1.977 . S
O2448 C2454 1.272 . S
O2449 Zn2439 1.910 . S
O2449 C2455 1.231 . S
C2450 O2434 1.225 . S
C2450 O2456 1.298 . S
C2451 O2440 1.226 . S
C2451 O2441 1.307 . S
C2452 O2444 1.303 . S
C2452 O2445 1.247 . S
C2453 O2442 1.253 . S
C2453 O2443 1.283 . S
C2454 O2446 1.304 . S
C2454 O2448 1.272 . S
C2455 O2447 1.311 . S
C2455 O2449 1.231 . S
O2456 Zn2438 1.953 . S
O2456 C2450 1.298 . S
O2457 Zn2458 1.953 1_455 S
O2457 C2473 1.225 . S
Zn2458 O2457 1.953 1_655 S
Zn2458 O2459 1.949 1_655 S
Zn2458 O2465 1.919 1_554 S
Zn2458 O2470 1.924 1_654 S
O2459 Zn2458 1.949 1_455 S
O2459 Zn2460 1.923 1_455 S
O2459 Zn2461 1.950 . S
O2459 Zn2462 1.945 1_554 S
Zn2460 O2459 1.923 1_655 S
Zn2460 O2463 1.933 . S
Zn2460 O2466 1.941 . S
Zn2460 O2467 1.965 . S
Zn2461 O2459 1.950 . S
Zn2461 O2468 1.938 . S
Zn2461 O2469 1.906 . S
Zn2461 O2479 1.953 . S
Zn2462 O2459 1.945 1_556 S
Zn2462 O2464 1.932 . S
Zn2462 O2471 1.977 1_556 S
Zn2462 O2472 1.910 . S
O2463 Zn2460 1.933 . S
O2463 C2474 1.226 1_554 S
O2464 Zn2462 1.932 . S
O2464 C2474 1.307 1_455 S
O2465 Zn2458 1.919 1_556 S
O2465 C2476 1.253 1_556 S
O2466 Zn2460 1.941 . S
O2466 C2476 1.283 . S
O2467 Zn2460 1.965 . S
O2467 C2475 1.303 . S
O2468 Zn2461 1.938 . S
O2468 C2475 1.247 1_455 S
O2469 Zn2461 1.906 . S
O2469 C2477 1.304 . S
O2470 Zn2458 1.924 1_456 S
O2470 C2478 1.311 . S
O2471 Zn2462 1.977 1_554 S
O2471 C2477 1.272 . S
O2472 Zn2462 1.910 . S
O2472 C2478 1.231 . S
C2473 O2457 1.225 . S
C2473 O2479 1.298 . S
C2474 O2463 1.226 1_556 S
C2474 O2464 1.307 1_655 S
C2475 O2467 1.303 . S
C2475 O2468 1.247 1_655 S
C2476 O2465 1.253 1_554 S
C2476 O2466 1.283 . S
C2477 O2469 1.304 . S
C2477 O2471 1.272 . S
C2478 O2470 1.311 . S
C2478 O2472 1.231 . S
O2479 Zn2461 1.953 . S
O2479 C2473 1.298 . S
C2480 C2481 1.369 . S
C2480 C2482 1.419 . S
C2480 H2484 0.930 . S
C2481 C2480 1.369 . S
C2481 C2490 1.429 1_455 S
C2482 C2480 1.419 . S
C2482 C2483 1.363 1_455 S
C2482 H2485 0.929 . S
C2483 C2482 1.363 1_655 S
C2483 C2489 1.428 . S
H2484 C2480 0.930 . S
H2485 C2482 0.929 . S
S2486 N2487 1.613 . S
S2486 N2488 1.610 . S
N2487 S2486 1.613 . S
N2487 C2490 1.350 . S
N2488 S2486 1.610 . S
N2488 C2489 1.351 . S
C2489 C2483 1.428 . S
C2489 N2488 1.351 . S
C2489 C2490 1.434 . S
C2490 C2481 1.429 1_655 S
C2490 N2487 1.350 . S
C2490 C2489 1.434 . S
C2491 C2492 1.369 . S
C2491 C2493 1.419 . S
C2491 H2495 0.930 . S
C2492 C2491 1.369 . S
C2492 C2501 1.429 . S
C2493 C2491 1.419 . S
C2493 C2494 1.363 . S
C2493 H2496 0.929 . S
C2494 C2493 1.363 . S
C2494 C2500 1.428 . S
H2495 C2491 0.930 . S
H2496 C2493 0.929 . S
S2497 N2498 1.613 . S
S2497 N2499 1.610 . S
N2498 S2497 1.613 . S
N2498 C2501 1.350 . S
N2499 S2497 1.610 . S
N2499 C2500 1.351 . S
C2500 C2494 1.428 . S
C2500 N2499 1.351 . S
C2500 C2501 1.434 . S
C2501 C2492 1.429 . S
C2501 N2498 1.350 . S
C2501 C2500 1.434 . S
C2502 C2503 1.369 . S
C2502 C2504 1.419 . S
C2502 H2506 0.930 . S
C2503 C2502 1.369 . S
C2503 C2512 1.429 . S
C2504 C2502 1.419 . S
C2504 C2505 1.363 . S
C2504 H2507 0.929 . S
C2505 C2504 1.363 . S
C2505 C2511 1.428 . S
H2506 C2502 0.930 . S
H2507 C2504 0.929 . S
S2508 N2509 1.613 . S
S2508 N2510 1.610 . S
N2509 S2508 1.613 . S
N2509 C2512 1.350 . S
N2510 S2508 1.610 . S
N2510 C2511 1.351 . S
C2511 C2505 1.428 . S
C2511 N2510 1.351 . S
C2511 C2512 1.434 . S
C2512 C2503 1.429 . S
C2512 N2509 1.350 . S
C2512 C2511 1.434 . S
C2513 C2514 1.369 . S
C2513 C2515 1.419 . S
C2513 H2517 0.930 . S
C2514 C2513 1.369 . S
C2514 C2523 1.429 . S
C2515 C2513 1.419 . S
C2515 C2516 1.363 . S
C2515 H2518 0.929 . S
C2516 C2515 1.363 . S
C2516 C2522 1.428 . S
H2517 C2513 0.930 . S
H2518 C2515 0.929 . S
S2519 N2520 1.613 . S
S2519 N2521 1.610 . S
N2520 S2519 1.613 . S
N2520 C2523 1.350 . S
N2521 S2519 1.610 . S
N2521 C2522 1.351 . S
C2522 C2516 1.428 . S
C2522 N2521 1.351 . S
C2522 C2523 1.434 . S
C2523 C2514 1.429 . S
C2523 N2520 1.350 . S
C2523 C2522 1.434 . S
C2524 C2525 1.369 1_655 S
C2524 C2526 1.419 . S
C2524 H2528 0.930 . S
C2525 C2524 1.369 1_455 S
C2525 C2534 1.429 . S
C2526 C2524 1.419 . S
C2526 C2527 1.363 . S
C2526 H2529 0.929 . S
C2527 C2526 1.363 . S
C2527 C2533 1.428 1_655 S
H2528 C2524 0.930 . S
H2529 C2526 0.929 . S
S2530 N2531 1.613 . S
S2530 N2532 1.610 . S
N2531 S2530 1.613 . S
N2531 C2534 1.350 . S
N2532 S2530 1.610 . S
N2532 C2533 1.351 . S
C2533 C2527 1.428 1_455 S
C2533 N2532 1.351 . S
C2533 C2534 1.434 . S
C2534 C2525 1.429 . S
C2534 N2531 1.350 . S
C2534 C2533 1.434 . S
C2535 C2536 1.369 . S
C2535 C2537 1.419 . S
C2535 H2539 0.930 . S
C2536 C2535 1.369 . S
C2536 C2545 1.429 . S
C2537 C2535 1.419 . S
C2537 C2538 1.363 . S
C2537 H2540 0.929 . S
C2538 C2537 1.363 . S
C2538 C2544 1.428 . S
H2539 C2535 0.930 . S
H2540 C2537 0.929 . S
S2541 N2542 1.613 . S
S2541 N2543 1.610 . S
N2542 S2541 1.613 . S
N2542 C2545 1.350 . S
N2543 S2541 1.610 . S
N2543 C2544 1.351 . S
C2544 C2538 1.428 . S
C2544 N2543 1.351 . S
C2544 C2545 1.434 . S
C2545 C2536 1.429 . S
C2545 N2542 1.350 . S
C2545 C2544 1.434 . S
C2546 C2547 1.369 . S
C2546 C2548 1.419 1_556 S
C2546 H2550 0.930 1_556 S
C2547 C2546 1.369 . S
C2547 C2556 1.429 . S
C2548 C2546 1.419 1_554 S
C2548 C2549 1.363 1_554 S
C2548 H2551 0.929 . S
C2549 C2548 1.363 1_556 S
C2549 C2555 1.428 . S
H2550 C2546 0.930 1_554 S
H2551 C2548 0.929 . S
S2552 N2553 1.613 . S
S2552 N2554 1.610 . S
N2553 S2552 1.613 . S
N2553 C2556 1.350 . S
N2554 S2552 1.610 . S
N2554 C2555 1.351 . S
C2555 C2549 1.428 . S
C2555 N2554 1.351 . S
C2555 C2556 1.434 . S
C2556 C2547 1.429 . S
C2556 N2553 1.350 . S
C2556 C2555 1.434 . S
C2557 C2558 1.369 . S
C2557 C2559 1.419 . S
C2557 H2561 0.930 . S
C2558 C2557 1.369 . S
C2558 C2567 1.429 . S
C2559 C2557 1.419 . S
C2559 C2560 1.363 . S
C2559 H2562 0.929 . S
C2560 C2559 1.363 . S
C2560 C2566 1.428 . S
H2561 C2557 0.930 . S
H2562 C2559 0.929 . S
S2563 N2564 1.613 . S
S2563 N2565 1.610 . S
N2564 S2563 1.613 . S
N2564 C2567 1.350 . S
N2565 S2563 1.610 . S
N2565 C2566 1.351 . S
C2566 C2560 1.428 . S
C2566 N2565 1.351 . S
C2566 C2567 1.434 . S
C2567 C2558 1.429 . S
C2567 N2564 1.350 . S
C2567 C2566 1.434 . S
C2568 C2569 1.369 1_565 S
C2568 C2570 1.419 . S
C2568 H2572 0.930 . S
C2569 C2568 1.369 1_545 S
C2569 C2578 1.429 . S
C2570 C2568 1.419 . S
C2570 C2571 1.363 1_565 S
C2570 H2573 0.929 . S
C2571 C2570 1.363 1_545 S
C2571 C2577 1.428 . S
H2572 C2568 0.930 . S
H2573 C2570 0.929 . S
S2574 N2575 1.613 . S
S2574 N2576 1.610 . S
N2575 S2574 1.613 . S
N2575 C2578 1.350 . S
N2576 S2574 1.610 . S
N2576 C2577 1.351 . S
C2577 C2571 1.428 . S
C2577 N2576 1.351 . S
C2577 C2578 1.434 . S
C2578 C2569 1.429 . S
C2578 N2575 1.350 . S
C2578 C2577 1.434 . S
C2579 C2580 1.369 . S
C2579 C2581 1.419 . S
C2579 H2583 0.930 . S
C2580 C2579 1.369 . S
C2580 C2589 1.429 . S
C2581 C2579 1.419 . S
C2581 C2582 1.363 . S
C2581 H2584 0.929 . S
C2582 C2581 1.363 . S
C2582 C2588 1.428 . S
H2583 C2579 0.930 . S
H2584 C2581 0.929 . S
S2585 N2586 1.613 . S
S2585 N2587 1.610 . S
N2586 S2585 1.613 . S
N2586 C2589 1.350 . S
N2587 S2585 1.610 . S
N2587 C2588 1.351 . S
C2588 C2582 1.428 . S
C2588 N2587 1.351 . S
C2588 C2589 1.434 . S
C2589 C2580 1.429 . S
C2589 N2586 1.350 . S
C2589 C2588 1.434 . S
C2590 C2591 1.369 1_565 S
C2590 C2592 1.419 . S
C2590 H2594 0.930 . S
C2591 C2590 1.369 1_545 S
C2591 C2600 1.429 . S
C2592 C2590 1.419 . S
C2592 C2593 1.363 1_565 S
C2592 H2595 0.929 . S
C2593 C2592 1.363 1_545 S
C2593 C2599 1.428 . S
H2594 C2590 0.930 . S
H2595 C2592 0.929 . S
S2596 N2597 1.613 . S
S2596 N2598 1.610 . S
N2597 S2596 1.613 . S
N2597 C2600 1.350 . S
N2598 S2596 1.610 . S
N2598 C2599 1.351 . S
C2599 C2593 1.428 . S
C2599 N2598 1.351 . S
C2599 C2600 1.434 . S
C2600 C2591 1.429 . S
C2600 N2597 1.350 . S
C2600 C2599 1.434 . S
C2601 C2602 1.369 . S
C2601 C2603 1.419 . S
C2601 H2605 0.930 . S
C2602 C2601 1.369 . S
C2602 C2611 1.429 . S
C2603 C2601 1.419 . S
C2603 C2604 1.363 . S
C2603 H2606 0.929 . S
C2604 C2603 1.363 . S
C2604 C2610 1.428 . S
H2605 C2601 0.930 . S
H2606 C2603 0.929 . S
S2607 N2608 1.613 . S
S2607 N2609 1.610 . S
N2608 S2607 1.613 . S
N2608 C2611 1.350 . S
N2609 S2607 1.610 . S
N2609 C2610 1.351 . S
C2610 C2604 1.428 . S
C2610 N2609 1.351 . S
C2610 C2611 1.434 . S
C2611 C2602 1.429 . S
C2611 N2608 1.350 . S
C2611 C2610 1.434 . S
C2612 C2613 1.369 . S
C2612 C2614 1.419 . S
C2612 H2616 0.930 1_545 S
C2613 C2612 1.369 . S
C2613 C2622 1.429 . S
C2614 C2612 1.419 . S
C2614 C2615 1.363 . S
C2614 H2617 0.929 1_545 S
C2615 C2614 1.363 . S
C2615 C2621 1.428 . S
H2616 C2612 0.930 1_565 S
H2617 C2614 0.929 1_565 S
S2618 N2619 1.613 . S
S2618 N2620 1.610 . S
N2619 S2618 1.613 . S
N2619 C2622 1.350 . S
N2620 S2618 1.610 . S
N2620 C2621 1.351 . S
C2621 C2615 1.428 . S
C2621 N2620 1.351 . S
C2621 C2622 1.434 . S
C2622 C2613 1.429 . S
C2622 N2619 1.350 . S
C2622 C2621 1.434 . S
C2623 C2624 1.369 . S
C2623 C2625 1.419 . S
C2623 H2627 0.930 . S
C2624 C2623 1.369 . S
C2624 C2633 1.429 . S
C2625 C2623 1.419 . S
C2625 C2626 1.363 . S
C2625 H2628 0.929 . S
C2626 C2625 1.363 . S
C2626 C2632 1.428 . S
H2627 C2623 0.930 . S
H2628 C2625 0.929 . S
S2629 N2630 1.613 . S
S2629 N2631 1.610 . S
N2630 S2629 1.613 . S
N2630 C2633 1.350 . S
N2631 S2629 1.610 . S
N2631 C2632 1.351 . S
C2632 C2626 1.428 . S
C2632 N2631 1.351 . S
C2632 C2633 1.434 . S
C2633 C2624 1.429 . S
C2633 N2630 1.350 . S
C2633 C2632 1.434 . S
C2634 C2635 1.378 . S
C2634 C2636 1.419 . S
C2634 H2638 0.930 . S
C2635 C2634 1.378 . S
C2635 C2644 1.426 1_565 S
C2636 C2634 1.419 . S
C2636 C2637 1.363 . S
C2636 H2639 0.929 . S
C2637 C2636 1.363 . S
C2637 C2643 1.428 . S
H2638 C2634 0.930 . S
H2639 C2636 0.929 . S
S2640 N2641 1.613 . S
S2640 N2642 1.610 1_545 S
N2641 S2640 1.613 . S
N2641 C2644 1.350 . S
N2642 S2640 1.610 1_565 S
N2642 C2643 1.351 . S
C2643 C2637 1.428 . S
C2643 N2642 1.351 . S
C2643 C2644 1.434 1_565 S
C2644 C2635 1.426 1_545 S
C2644 N2641 1.350 . S
C2644 C2643 1.434 1_545 S
C2645 C2646 1.369 . S
C2645 C2647 1.419 . S
C2645 H2649 0.930 . S
C2646 C2645 1.369 . S
C2646 C2655 1.429 . S
C2647 C2645 1.419 . S
C2647 C2648 1.363 . S
C2647 H2650 0.929 . S
C2648 C2647 1.363 . S
C2648 C2654 1.428 . S
H2649 C2645 0.930 . S
H2650 C2647 0.929 . S
S2651 N2652 1.613 . S
S2651 N2653 1.610 . S
N2652 S2651 1.613 . S
N2652 C2655 1.350 . S
N2653 S2651 1.610 . S
N2653 C2654 1.351 . S
C2654 C2648 1.428 . S
C2654 N2653 1.351 . S
C2654 C2655 1.434 . S
C2655 C2646 1.429 . S
C2655 N2652 1.350 . S
C2655 C2654 1.434 . S
C2656 C2657 1.369 . S
C2656 C2658 1.419 . S
C2656 H2660 0.930 . S
C2657 C2656 1.369 . S
C2657 C2666 1.429 1_554 S
C2658 C2656 1.419 . S
C2658 C2659 1.363 1_554 S
C2658 H2661 0.929 1_545 S
C2659 C2658 1.363 1_556 S
C2659 C2665 1.428 . S
H2660 C2656 0.930 . S
H2661 C2658 0.929 1_565 S
S2662 N2663 1.613 . S
S2662 N2664 1.610 . S
N2663 S2662 1.613 . S
N2663 C2666 1.350 . S
N2664 S2662 1.610 . S
N2664 C2665 1.351 . S
C2665 C2659 1.428 . S
C2665 N2664 1.351 . S
C2665 C2666 1.434 . S
C2666 C2657 1.429 1_556 S
C2666 N2663 1.350 . S
C2666 C2665 1.434 . S
C2667 C2668 1.369 . S
C2667 C2669 1.419 . S
C2667 H2671 0.930 . S
C2668 C2667 1.369 . S
C2668 C2677 1.429 . S
C2669 C2667 1.419 . S
C2669 C2670 1.363 . S
C2669 H2672 0.929 . S
C2670 C2669 1.363 . S
C2670 C2676 1.428 . S
H2671 C2667 0.930 . S
H2672 C2669 0.929 . S
S2673 N2674 1.613 . S
S2673 N2675 1.610 . S
N2674 S2673 1.613 . S
N2674 C2677 1.350 . S
N2675 S2673 1.610 . S
N2675 C2676 1.351 . S
C2676 C2670 1.428 . S
C2676 N2675 1.351 . S
C2676 C2677 1.434 . S
C2677 C2668 1.429 . S
C2677 N2674 1.350 . S
C2677 C2676 1.434 . S
C2678 C2679 1.369 . S
C2678 C2680 1.419 . S
C2678 H2682 0.930 . S
C2679 C2678 1.369 . S
C2679 C2688 1.429 . S
C2680 C2678 1.419 . S
C2680 C2681 1.363 . S
C2680 H2683 0.929 . S
C2681 C2680 1.363 . S
C2681 C2687 1.428 . S
H2682 C2678 0.930 . S
H2683 C2680 0.929 . S
S2684 N2685 1.613 . S
S2684 N2686 1.610 . S
N2685 S2684 1.613 . S
N2685 C2688 1.350 . S
N2686 S2684 1.610 . S
N2686 C2687 1.351 . S
C2687 C2681 1.428 . S
C2687 N2686 1.351 . S
C2687 C2688 1.434 . S
C2688 C2679 1.429 . S
C2688 N2685 1.350 . S
C2688 C2687 1.434 . S
C2689 C2690 1.369 . S
C2689 C2691 1.419 . S
C2689 H2693 0.930 . S
C2690 C2689 1.369 . S
C2690 C2699 1.429 . S
C2691 C2689 1.419 . S
C2691 C2692 1.363 . S
C2691 H2694 0.929 . S
C2692 C2691 1.363 . S
C2692 C2698 1.428 . S
H2693 C2689 0.930 . S
H2694 C2691 0.929 . S
S2695 N2696 1.613 . S
S2695 N2697 1.610 . S
N2696 S2695 1.613 . S
N2696 C2699 1.350 . S
N2697 S2695 1.610 . S
N2697 C2698 1.351 . S
C2698 C2692 1.428 . S
C2698 N2697 1.351 . S
C2698 C2699 1.434 . S
C2699 C2690 1.429 . S
C2699 N2696 1.350 . S
C2699 C2698 1.434 . S
C2700 C2701 1.369 . S
C2700 C2702 1.419 . S
C2700 H2704 0.930 . S
C2701 C2700 1.369 . S
C2701 C2710 1.429 . S
C2702 C2700 1.419 . S
C2702 C2703 1.363 . S
C2702 H2705 0.929 . S
C2703 C2702 1.363 . S
C2703 C2709 1.428 . S
H2704 C2700 0.930 . S
H2705 C2702 0.929 . S
S2706 N2707 1.613 . S
S2706 N2708 1.610 . S
N2707 S2706 1.613 . S
N2707 C2710 1.350 . S
N2708 S2706 1.610 . S
N2708 C2709 1.351 . S
C2709 C2703 1.428 . S
C2709 N2708 1.351 . S
C2709 C2710 1.434 . S
C2710 C2701 1.429 . S
C2710 N2707 1.350 . S
C2710 C2709 1.434 . S
C2711 C2712 1.369 . S
C2711 C2713 1.419 . S
C2711 H2715 0.930 . S
C2712 C2711 1.369 . S
C2712 C2721 1.429 . S
C2713 C2711 1.419 . S
C2713 C2714 1.363 . S
C2713 H2716 0.929 1_565 S
C2714 C2713 1.363 . S
C2714 C2720 1.428 . S
H2715 C2711 0.930 . S
H2716 C2713 0.929 1_545 S
S2717 N2718 1.613 . S
S2717 N2719 1.610 . S
N2718 S2717 1.613 . S
N2718 C2721 1.350 . S
N2719 S2717 1.610 . S
N2719 C2720 1.351 . S
C2720 C2714 1.428 . S
C2720 N2719 1.351 . S
C2720 C2721 1.434 . S
C2721 C2712 1.429 . S
C2721 N2718 1.350 . S
C2721 C2720 1.434 . S
C2722 C2723 1.369 . S
C2722 C2724 1.419 . S
C2722 H2726 0.930 . S
C2723 C2722 1.369 . S
C2723 C2732 1.429 . S
C2724 C2722 1.419 . S
C2724 C2725 1.363 . S
C2724 H2727 0.929 . S
C2725 C2724 1.363 . S
C2725 C2731 1.428 . S
H2726 C2722 0.930 . S
H2727 C2724 0.929 . S
S2728 N2729 1.613 . S
S2728 N2730 1.610 . S
N2729 S2728 1.613 . S
N2729 C2732 1.350 . S
N2730 S2728 1.610 . S
N2730 C2731 1.351 . S
C2731 C2725 1.428 . S
C2731 N2730 1.351 . S
C2731 C2732 1.434 . S
C2732 C2723 1.429 . S
C2732 N2729 1.350 . S
C2732 C2731 1.434 . S
C2733 C2734 1.369 . S
C2733 C2735 1.419 . S
C2733 H2737 0.930 . S
C2734 C2733 1.369 . S
C2734 C2743 1.429 . S
C2735 C2733 1.419 . S
C2735 C2736 1.363 . S
C2735 H2738 0.929 . S
C2736 C2735 1.363 . S
C2736 C2742 1.428 . S
H2737 C2733 0.930 . S
H2738 C2735 0.929 . S
S2739 N2740 1.613 . S
S2739 N2741 1.610 . S
N2740 S2739 1.613 . S
N2740 C2743 1.350 . S
N2741 S2739 1.610 . S
N2741 C2742 1.351 . S
C2742 C2736 1.428 . S
C2742 N2741 1.351 . S
C2742 C2743 1.434 . S
C2743 C2734 1.429 . S
C2743 N2740 1.350 . S
C2743 C2742 1.434 . S
C2744 C2745 1.369 . S
C2744 C2746 1.419 . S
C2744 H2748 0.930 . S
C2745 C2744 1.369 . S
C2745 C2754 1.429 1_455 S
C2746 C2744 1.419 . S
C2746 C2747 1.363 . S
C2746 H2749 0.929 1_556 S
C2747 C2746 1.363 . S
C2747 C2753 1.428 1_455 S
H2748 C2744 0.930 . S
H2749 C2746 0.929 1_554 S
S2750 N2751 1.613 . S
S2750 N2752 1.610 . S
N2751 S2750 1.613 . S
N2751 C2754 1.350 . S
N2752 S2750 1.610 . S
N2752 C2753 1.351 . S
C2753 C2747 1.428 1_655 S
C2753 N2752 1.351 . S
C2753 C2754 1.434 . S
C2754 C2745 1.429 1_655 S
C2754 N2751 1.350 . S
C2754 C2753 1.434 . S
C2755 C2756 1.369 . S
C2755 C2757 1.419 . S
C2755 H2759 0.930 . S
C2756 C2755 1.369 . S
C2756 C2765 1.429 . S
C2757 C2755 1.419 . S
C2757 C2758 1.363 . S
C2757 H2760 0.929 . S
C2758 C2757 1.363 . S
C2758 C2764 1.428 . S
H2759 C2755 0.930 . S
H2760 C2757 0.929 . S
S2761 N2762 1.613 . S
S2761 N2763 1.610 . S
N2762 S2761 1.613 . S
N2762 C2765 1.350 . S
N2763 S2761 1.610 . S
N2763 C2764 1.351 . S
C2764 C2758 1.428 . S
C2764 N2763 1.351 . S
C2764 C2765 1.434 . S
C2765 C2756 1.429 . S
C2765 N2762 1.350 . S
C2765 C2764 1.434 . S
C2766 C2767 1.369 . S
C2766 C2768 1.419 . S
C2766 H2770 0.930 . S
C2767 C2766 1.369 . S
C2767 C2776 1.429 . S
C2768 C2766 1.419 . S
C2768 C2769 1.363 . S
C2768 H2771 0.929 . S
C2769 C2768 1.363 . S
C2769 C2775 1.428 . S
H2770 C2766 0.930 . S
H2771 C2768 0.929 . S
S2772 N2773 1.613 . S
S2772 N2774 1.610 . S
N2773 S2772 1.613 . S
N2773 C2776 1.350 . S
N2774 S2772 1.610 . S
N2774 C2775 1.351 . S
C2775 C2769 1.428 . S
C2775 N2774 1.351 . S
C2775 C2776 1.434 . S
C2776 C2767 1.429 . S
C2776 N2773 1.350 . S
C2776 C2775 1.434 . S
C2777 C2778 1.369 . S
C2777 C2779 1.419 . S
C2777 H2781 0.930 . S
C2778 C2777 1.369 . S
C2778 C2787 1.429 . S
C2779 C2777 1.419 . S
C2779 C2780 1.363 . S
C2779 H2782 0.929 . S
C2780 C2779 1.363 . S
C2780 C2786 1.428 . S
H2781 C2777 0.930 . S
H2782 C2779 0.929 . S
S2783 N2784 1.613 . S
S2783 N2785 1.610 . S
N2784 S2783 1.613 . S
N2784 C2787 1.350 . S
N2785 S2783 1.610 . S
N2785 C2786 1.351 . S
C2786 C2780 1.428 . S
C2786 N2785 1.351 . S
C2786 C2787 1.434 . S
C2787 C2778 1.429 . S
C2787 N2784 1.350 . S
C2787 C2786 1.434 . S
C2788 C2789 1.369 . S
C2788 C2790 1.419 . S
C2788 H2792 0.930 . S
C2789 C2788 1.369 . S
C2789 C2798 1.429 1_455 S
C2790 C2788 1.419 . S
C2790 C2791 1.363 . S
C2790 H2793 0.929 . S
C2791 C2790 1.363 . S
C2791 C2797 1.448 . S
H2792 C2788 0.930 . S
H2793 C2790 0.929 . S
S2794 N2795 1.613 . S
S2794 N2796 1.610 . S
N2795 S2794 1.613 . S
N2795 C2798 1.350 . S
N2796 S2794 1.610 . S
N2796 C2797 1.337 1_655 S
C2797 C2791 1.448 . S
C2797 N2796 1.337 1_455 S
C2797 C2798 1.428 1_455 S
C2798 C2789 1.429 1_655 S
C2798 N2795 1.350 . S
C2798 C2797 1.428 1_655 S
C2799 C2800 1.369 . S
C2799 C2801 1.419 . S
C2799 H2803 0.930 . S
C2800 C2799 1.369 . S
C2800 C2809 1.429 . S
C2801 C2799 1.419 . S
C2801 C2802 1.363 . S
C2801 H2804 0.929 . S
C2802 C2801 1.363 . S
C2802 C2808 1.428 . S
H2803 C2799 0.930 . S
H2804 C2801 0.929 . S
S2805 N2806 1.613 . S
S2805 N2807 1.610 . S
N2806 S2805 1.613 . S
N2806 C2809 1.350 . S
N2807 S2805 1.610 . S
N2807 C2808 1.351 . S
C2808 C2802 1.428 . S
C2808 N2807 1.351 . S
C2808 C2809 1.434 . S
C2809 C2800 1.429 . S
C2809 N2806 1.350 . S
C2809 C2808 1.434 . S
C2810 C2811 1.369 . S
C2810 C2812 1.419 . S
C2810 H2814 0.930 . S
C2811 C2810 1.369 . S
C2811 C2820 1.429 . S
C2812 C2810 1.419 . S
C2812 C2813 1.363 . S
C2812 H2815 0.929 . S
C2813 C2812 1.363 . S
C2813 C2819 1.428 . S
H2814 C2810 0.930 . S
H2815 C2812 0.929 . S
S2816 N2817 1.613 . S
S2816 N2818 1.610 . S
N2817 S2816 1.613 . S
N2817 C2820 1.350 . S
N2818 S2816 1.610 . S
N2818 C2819 1.351 . S
C2819 C2813 1.428 . S
C2819 N2818 1.351 . S
C2819 C2820 1.434 . S
C2820 C2811 1.429 . S
C2820 N2817 1.350 . S
C2820 C2819 1.434 . S
C2821 C2822 1.369 . S
C2821 C2823 1.419 . S
C2821 H2825 0.930 . S
C2822 C2821 1.369 . S
C2822 C2831 1.429 . S
C2823 C2821 1.419 . S
C2823 C2824 1.363 . S
C2823 H2826 0.929 . S
C2824 C2823 1.363 . S
C2824 C2830 1.428 . S
H2825 C2821 0.930 . S
H2826 C2823 0.929 . S
S2827 N2828 1.613 . S
S2827 N2829 1.610 . S
N2828 S2827 1.613 . S
N2828 C2831 1.350 . S
N2829 S2827 1.610 . S
N2829 C2830 1.351 . S
C2830 C2824 1.428 . S
C2830 N2829 1.351 . S
C2830 C2831 1.434 . S
C2831 C2822 1.429 . S
C2831 N2828 1.350 . S
C2831 C2830 1.434 . S
C2832 C2833 1.369 . S
C2832 C2834 1.419 . S
C2832 H2836 0.930 . S
C2833 C2832 1.369 . S
C2833 C2842 1.429 . S
C2834 C2832 1.419 . S
C2834 C2835 1.363 . S
C2834 H2837 0.929 . S
C2835 C2834 1.363 . S
C2835 C2841 1.428 . S
H2836 C2832 0.930 . S
H2837 C2834 0.929 . S
S2838 N2839 1.613 . S
S2838 N2840 1.610 . S
N2839 S2838 1.613 . S
N2839 C2842 1.350 1_565 S
N2840 S2838 1.610 . S
N2840 C2841 1.351 1_565 S
C2841 C2835 1.428 . S
C2841 N2840 1.351 1_545 S
C2841 C2842 1.434 . S
C2842 C2833 1.429 . S
C2842 N2839 1.350 1_545 S
C2842 C2841 1.434 . S
C2843 C2844 1.369 . S
C2843 C2845 1.419 . S
C2843 H2847 0.930 . S
C2844 C2843 1.369 . S
C2844 C2853 1.429 . S
C2845 C2843 1.419 . S
C2845 C2846 1.363 . S
C2845 H2848 0.929 . S
C2846 C2845 1.363 . S
C2846 C2852 1.428 . S
H2847 C2843 0.930 . S
H2848 C2845 0.929 . S
S2849 N2850 1.613 . S
S2849 N2851 1.610 . S
N2850 S2849 1.613 . S
N2850 C2853 1.350 . S
N2851 S2849 1.610 . S
N2851 C2852 1.351 . S
C2852 C2846 1.428 . S
C2852 N2851 1.351 . S
C2852 C2853 1.434 . S
C2853 C2844 1.429 . S
C2853 N2850 1.350 . S
C2853 C2852 1.434 . S
C2854 C2855 1.369 1_545 S
C2854 C2856 1.419 . S
C2854 H2858 0.930 . S
C2855 C2854 1.369 1_565 S
C2855 C2864 1.429 . S
C2856 C2854 1.419 . S
C2856 C2857 1.363 1_545 S
C2856 H2859 0.929 . S
C2857 C2856 1.363 1_565 S
C2857 C2863 1.428 . S
H2858 C2854 0.930 . S
H2859 C2856 0.929 . S
S2860 N2861 1.613 . S
S2860 N2862 1.610 . S
N2861 S2860 1.613 . S
N2861 C2864 1.350 . S
N2862 S2860 1.610 . S
N2862 C2863 1.351 . S
C2863 C2857 1.428 . S
C2863 N2862 1.351 . S
C2863 C2864 1.434 . S
C2864 C2855 1.429 . S
C2864 N2861 1.350 . S
C2864 C2863 1.434 . S
C2865 C2866 1.369 . S
C2865 C2867 1.419 . S
C2865 H2869 0.930 . S
C2866 C2865 1.369 . S
C2866 C2875 1.429 . S
C2867 C2865 1.419 . S
C2867 C2868 1.363 . S
C2867 H2870 0.929 . S
C2868 C2867 1.363 . S
C2868 C2874 1.428 . S
H2869 C2865 0.930 . S
H2870 C2867 0.929 . S
S2871 N2872 1.613 . S
S2871 N2873 1.610 . S
N2872 S2871 1.613 . S
N2872 C2875 1.350 . S
N2873 S2871 1.610 . S
N2873 C2874 1.351 . S
C2874 C2868 1.428 . S
C2874 N2873 1.351 . S
C2874 C2875 1.434 . S
C2875 C2866 1.429 . S
C2875 N2872 1.350 . S
C2875 C2874 1.434 . S
C2876 C2877 1.369 . S
C2876 C2878 1.419 . S
C2876 H2880 0.957 . S
C2877 C2876 1.369 . S
C2877 C2886 1.429 1_545 S
C2878 C2876 1.419 . S
C2878 C2879 1.363 1_545 S
C2878 H2881 0.929 1_655 S
C2879 C2878 1.363 1_565 S
C2879 C2885 1.428 . S
H2880 C2876 0.957 . S
H2881 C2878 0.929 1_455 S
S2882 N2883 1.613 . S
S2882 N2884 1.610 . S
N2883 S2882 1.613 . S
N2883 C2886 1.350 . S
N2884 S2882 1.610 . S
N2884 C2885 1.351 . S
C2885 C2879 1.428 . S
C2885 N2884 1.351 . S
C2885 C2886 1.434 . S
C2886 C2877 1.429 1_565 S
C2886 N2883 1.350 . S
C2886 C2885 1.434 . S
C2887 C2888 1.369 . S
C2887 C2889 1.419 . S
C2887 H2891 0.930 . S
C2888 C2887 1.369 . S
C2888 C2897 1.429 . S
C2889 C2887 1.419 . S
C2889 C2890 1.363 . S
C2889 H2892 0.929 . S
C2890 C2889 1.363 . S
C2890 C2896 1.428 . S
H2891 C2887 0.930 . S
H2892 C2889 0.929 . S
S2893 N2894 1.613 . S
S2893 N2895 1.610 . S
N2894 S2893 1.613 . S
N2894 C2897 1.350 . S
N2895 S2893 1.610 . S
N2895 C2896 1.351 . S
C2896 C2890 1.428 . S
C2896 N2895 1.351 . S
C2896 C2897 1.434 . S
C2897 C2888 1.429 . S
C2897 N2894 1.350 . S
C2897 C2896 1.434 . S
C2898 C2899 1.369 . S
C2898 C2900 1.419 . S
C2898 H2902 0.930 . S
C2899 C2898 1.369 . S
C2899 C2908 1.432 . S
C2900 C2898 1.419 . S
C2900 C2901 1.363 . S
C2900 H2903 0.929 . S
C2901 C2900 1.363 . S
C2901 C2907 1.428 . S
H2902 C2898 0.930 . S
H2903 C2900 0.929 . S
S2904 N2905 1.613 . S
S2904 N2906 1.610 1_565 S
N2905 S2904 1.613 . S
N2905 C2908 1.334 1_565 S
N2906 S2904 1.610 1_545 S
N2906 C2907 1.351 . S
C2907 C2901 1.428 . S
C2907 N2906 1.351 . S
C2907 C2908 1.446 . S
C2908 C2899 1.432 . S
C2908 N2905 1.334 1_545 S
C2908 C2907 1.446 . S
C2909 C2910 1.369 . S
C2909 C2911 1.419 . S
C2909 H2913 0.930 . S
C2910 C2909 1.369 . S
C2910 C2919 1.429 . S
C2911 C2909 1.419 . S
C2911 C2912 1.363 . S
C2911 H2914 0.929 . S
C2912 C2911 1.363 . S
C2912 C2918 1.428 . S
H2913 C2909 0.930 . S
H2914 C2911 0.929 . S
S2915 N2916 1.613 . S
S2915 N2917 1.610 . S
N2916 S2915 1.613 . S
N2916 C2919 1.350 . S
N2917 S2915 1.610 . S
N2917 C2918 1.351 . S
C2918 C2912 1.428 . S
C2918 N2917 1.351 . S
C2918 C2919 1.434 . S
C2919 C2910 1.429 . S
C2919 N2916 1.350 . S
C2919 C2918 1.434 . S
C2920 C2921 1.369 . S
C2920 C2922 1.419 . S
C2920 H2924 0.930 . S
C2921 C2920 1.369 . S
C2921 C2930 1.429 . S
C2922 C2920 1.419 . S
C2922 C2923 1.363 . S
C2922 H2925 0.929 . S
C2923 C2922 1.363 . S
C2923 C2929 1.428 . S
H2924 C2920 0.930 . S
H2925 C2922 0.929 . S
S2926 N2927 1.613 . S
S2926 N2928 1.610 . S
N2927 S2926 1.613 . S
N2927 C2930 1.350 1_545 S
N2928 S2926 1.610 . S
N2928 C2929 1.351 1_545 S
C2929 C2923 1.428 . S
C2929 N2928 1.351 1_565 S
C2929 C2930 1.434 . S
C2930 C2921 1.429 . S
C2930 N2927 1.350 1_565 S
C2930 C2929 1.434 . S
C2931 C2932 1.368 . S
C2931 C2933 1.416 1_554 S
C2931 H2935 0.930 . S
C2932 C2931 1.368 . S
C2932 C2941 1.430 1_554 S
C2933 C2931 1.416 1_556 S
C2933 C2934 1.369 . S
C2933 H2936 0.926 1_556 S
C2934 C2933 1.369 . S
C2934 C2940 1.428 . S
H2935 C2931 0.930 . S
H2936 C2933 0.926 1_554 S
S2937 N2938 1.613 . S
S2937 N2939 1.610 . S
N2938 S2937 1.613 . S
N2938 C2941 1.350 . S
N2939 S2937 1.610 . S
N2939 C2940 1.351 . S
C2940 C2934 1.428 . S
C2940 N2939 1.351 . S
C2940 C2941 1.434 . S
C2941 C2932 1.430 1_556 S
C2941 N2938 1.350 . S
C2941 C2940 1.434 . S
C2942 C2943 1.369 . S
C2942 C2944 1.419 . S
C2942 H2946 0.930 . S
C2943 C2942 1.369 . S
C2943 C2952 1.429 . S
C2944 C2942 1.419 . S
C2944 C2945 1.363 . S
C2944 H2947 0.929 . S
C2945 C2944 1.363 . S
C2945 C2951 1.428 . S
H2946 C2942 0.930 . S
H2947 C2944 0.929 . S
S2948 N2949 1.613 . S
S2948 N2950 1.610 . S
N2949 S2948 1.613 . S
N2949 C2952 1.350 . S
N2950 S2948 1.610 . S
N2950 C2951 1.351 . S
C2951 C2945 1.428 . S
C2951 N2950 1.351 . S
C2951 C2952 1.434 . S
C2952 C2943 1.429 . S
C2952 N2949 1.350 . S
C2952 C2951 1.434 . S
C2953 C2954 1.369 . S
C2953 C2955 1.419 . S
C2953 H2957 0.930 . S
C2954 C2953 1.369 . S
C2954 C2963 1.429 . S
C2955 C2953 1.419 . S
C2955 C2956 1.363 . S
C2955 H2958 0.929 . S
C2956 C2955 1.363 . S
C2956 C2962 1.428 . S
H2957 C2953 0.930 . S
H2958 C2955 0.929 . S
S2959 N2960 1.613 . S
S2959 N2961 1.610 . S
N2960 S2959 1.613 . S
N2960 C2963 1.350 . S
N2961 S2959 1.610 . S
N2961 C2962 1.351 . S
C2962 C2956 1.428 . S
C2962 N2961 1.351 . S
C2962 C2963 1.434 . S
C2963 C2954 1.429 . S
C2963 N2960 1.350 . S
C2963 C2962 1.434 . S
C2964 C2965 1.369 . S
C2964 C2966 1.419 . S
C2964 H2968 0.930 . S
C2965 C2964 1.369 . S
C2965 C2974 1.429 . S
C2966 C2964 1.419 . S
C2966 C2967 1.363 . S
C2966 H2969 0.929 . S
C2967 C2966 1.363 . S
C2967 C2973 1.428 . S
H2968 C2964 0.930 . S
H2969 C2966 0.929 . S
S2970 N2971 1.613 . S
S2970 N2972 1.610 . S
N2971 S2970 1.613 . S
N2971 C2974 1.350 . S
N2972 S2970 1.610 . S
N2972 C2973 1.351 . S
C2973 C2967 1.428 . S
C2973 N2972 1.351 . S
C2973 C2974 1.434 . S
C2974 C2965 1.429 . S
C2974 N2971 1.350 . S
C2974 C2973 1.434 . S
C2975 C2976 1.369 . S
C2975 C2977 1.419 . S
C2975 H2979 0.930 . S
C2976 C2975 1.369 . S
C2976 C2985 1.429 . S
C2977 C2975 1.419 . S
C2977 C2978 1.363 . S
C2977 H2980 0.929 . S
C2978 C2977 1.363 . S
C2978 C2984 1.428 . S
H2979 C2975 0.930 . S
H2980 C2977 0.929 . S
S2981 N2982 1.613 . S
S2981 N2983 1.610 . S
N2982 S2981 1.613 . S
N2982 C2985 1.350 . S
N2983 S2981 1.610 . S
N2983 C2984 1.351 . S
C2984 C2978 1.428 . S
C2984 N2983 1.351 . S
C2984 C2985 1.434 . S
C2985 C2976 1.429 . S
C2985 N2982 1.350 . S
C2985 C2984 1.434 . S
C2986 C2987 1.369 . S
C2986 C2988 1.419 . S
C2986 H2990 0.930 . S
C2987 C2986 1.369 . S
C2987 C2996 1.429 . S
C2988 C2986 1.419 . S
C2988 C2989 1.363 . S
C2988 H2991 0.929 . S
C2989 C2988 1.363 . S
C2989 C2995 1.428 . S
H2990 C2986 0.930 . S
H2991 C2988 0.929 . S
S2992 N2993 1.613 . S
S2992 N2994 1.610 . S
N2993 S2992 1.613 . S
N2993 C2996 1.350 . S
N2994 S2992 1.610 . S
N2994 C2995 1.351 . S
C2995 C2989 1.428 . S
C2995 N2994 1.351 . S
C2995 C2996 1.434 . S
C2996 C2987 1.429 . S
C2996 N2993 1.350 . S
C2996 C2995 1.434 . S
C2997 C2998 1.369 . S
C2997 C2999 1.419 . S
C2997 H3001 0.930 . S
C2998 C2997 1.369 . S
C2998 C3007 1.429 . S
C2999 C2997 1.419 . S
C2999 C3000 1.363 . S
C2999 H3002 0.929 . S
C3000 C2999 1.363 . S
C3000 C3006 1.428 . S
H3001 C2997 0.930 . S
H3002 C2999 0.929 . S
S3003 N3004 1.613 . S
S3003 N3005 1.610 . S
N3004 S3003 1.613 . S
N3004 C3007 1.350 . S
N3005 S3003 1.610 . S
N3005 C3006 1.351 . S
C3006 C3000 1.428 . S
C3006 N3005 1.351 . S
C3006 C3007 1.434 . S
C3007 C2998 1.429 . S
C3007 N3004 1.350 . S
C3007 C3006 1.434 . S
C3008 C3009 1.369 . S
C3008 C3010 1.419 . S
C3008 H3012 0.930 . S
C3009 C3008 1.369 . S
C3009 C3018 1.429 . S
C3010 C3008 1.419 . S
C3010 C3011 1.363 . S
C3010 H3013 0.929 . S
C3011 C3010 1.363 . S
C3011 C3017 1.428 . S
H3012 C3008 0.930 . S
H3013 C3010 0.929 . S
S3014 N3015 1.613 . S
S3014 N3016 1.610 . S
N3015 S3014 1.613 . S
N3015 C3018 1.350 . S
N3016 S3014 1.610 . S
N3016 C3017 1.351 . S
C3017 C3011 1.428 . S
C3017 N3016 1.351 . S
C3017 C3018 1.434 . S
C3018 C3009 1.429 . S
C3018 N3015 1.350 . S
C3018 C3017 1.434 . S
C3019 C3020 1.369 . S
C3019 C3021 1.419 . S
C3019 H3023 0.930 . S
C3020 C3019 1.369 . S
C3020 C3029 1.429 . S
C3021 C3019 1.419 . S
C3021 C3022 1.363 . S
C3021 H3024 0.929 . S
C3022 C3021 1.363 . S
C3022 C3028 1.428 . S
H3023 C3019 0.930 . S
H3024 C3021 0.929 . S
S3025 N3026 1.613 . S
S3025 N3027 1.610 . S
N3026 S3025 1.613 . S
N3026 C3029 1.350 . S
N3027 S3025 1.610 . S
N3027 C3028 1.351 . S
C3028 C3022 1.428 . S
C3028 N3027 1.351 . S
C3028 C3029 1.434 . S
C3029 C3020 1.429 . S
C3029 N3026 1.350 . S
C3029 C3028 1.434 . S
C3030 C3031 1.369 . S
C3030 C3032 1.419 . S
C3030 H3034 0.930 1_455 S
C3031 C3030 1.369 . S
C3031 C3040 1.429 . S
C3032 C3030 1.419 . S
C3032 C3033 1.363 . S
C3032 H3035 0.929 . S
C3033 C3032 1.363 . S
C3033 C3039 1.428 . S
H3034 C3030 0.930 1_655 S
H3035 C3032 0.929 . S
S3036 N3037 1.613 1_556 S
S3036 N3038 1.610 1_556 S
N3037 S3036 1.613 1_554 S
N3037 C3040 1.350 . S
N3038 S3036 1.610 1_554 S
N3038 C3039 1.351 . S
C3039 C3033 1.428 . S
C3039 N3038 1.351 . S
C3039 C3040 1.434 . S
C3040 C3031 1.429 . S
C3040 N3037 1.350 . S
C3040 C3039 1.434 . S
C3041 C3042 1.369 . S
C3041 C3043 1.419 . S
C3041 H3045 0.930 . S
C3042 C3041 1.369 . S
C3042 C3051 1.429 . S
C3043 C3041 1.419 . S
C3043 C3044 1.363 . S
C3043 H3046 0.929 . S
C3044 C3043 1.363 . S
C3044 C3050 1.428 . S
H3045 C3041 0.930 . S
H3046 C3043 0.929 . S
S3047 N3048 1.613 . S
S3047 N3049 1.610 . S
N3048 S3047 1.613 . S
N3048 C3051 1.350 . S
N3049 S3047 1.610 . S
N3049 C3050 1.351 . S
C3050 C3044 1.428 . S
C3050 N3049 1.351 . S
C3050 C3051 1.434 . S
C3051 C3042 1.429 . S
C3051 N3048 1.350 . S
C3051 C3050 1.434 . S
C3052 C3053 1.369 . S
C3052 C3054 1.419 1_556 S
C3052 H3056 0.921 1_556 S
C3053 C3052 1.369 . S
C3053 C3062 1.429 . S
C3054 C3052 1.419 1_554 S
C3054 C3055 1.363 1_554 S
C3054 H3057 0.929 . S
C3055 C3054 1.363 1_556 S
C3055 C3061 1.428 . S
H3056 C3052 0.921 1_554 S
H3057 C3054 0.929 . S
S3058 N3059 1.613 . S
S3058 N3060 1.610 . S
N3059 S3058 1.613 . S
N3059 C3062 1.350 . S
N3060 S3058 1.610 . S
N3060 C3061 1.351 . S
C3061 C3055 1.428 . S
C3061 N3060 1.351 . S
C3061 C3062 1.434 . S
C3062 C3053 1.429 . S
C3062 N3059 1.350 . S
C3062 C3061 1.434 . S
C3063 C3064 1.369 . S
C3063 C3065 1.419 . S
C3063 H3067 0.930 . S
C3064 C3063 1.369 . S
C3064 C3073 1.429 . S
C3065 C3063 1.419 . S
C3065 C3066 1.363 . S
C3065 H3068 0.929 . S
C3066 C3065 1.363 . S
C3066 C3072 1.428 . S
H3067 C3063 0.930 . S
H3068 C3065 0.929 . S
S3069 N3070 1.613 . S
S3069 N3071 1.610 . S
N3070 S3069 1.613 . S
N3070 C3073 1.350 . S
N3071 S3069 1.610 . S
N3071 C3072 1.351 . S
C3072 C3066 1.428 . S
C3072 N3071 1.351 . S
C3072 C3073 1.434 . S
C3073 C3064 1.429 . S
C3073 N3070 1.350 . S
C3073 C3072 1.434 . S
C3074 C3075 1.369 . S
C3074 C3076 1.419 . S
C3074 H3078 0.932 1_455 S
C3075 C3074 1.369 . S
C3075 C3084 1.429 . S
C3076 C3074 1.419 . S
C3076 C3077 1.363 . S
C3076 H3079 0.929 . S
C3077 C3076 1.363 . S
C3077 C3083 1.428 . S
H3078 C3074 0.932 1_655 S
H3079 C3076 0.929 . S
S3080 N3081 1.613 . S
S3080 N3082 1.610 . S
N3081 S3080 1.613 . S
N3081 C3084 1.350 . S
N3082 S3080 1.610 . S
N3082 C3083 1.351 . S
C3083 C3077 1.428 . S
C3083 N3082 1.351 . S
C3083 C3084 1.434 . S
C3084 C3075 1.429 . S
C3084 N3081 1.350 . S
C3084 C3083 1.434 . S
C3085 C3086 1.369 . S
C3085 C3087 1.419 . S
C3085 H3089 0.930 . S
C3086 C3085 1.369 . S
C3086 C3095 1.429 . S
C3087 C3085 1.419 . S
C3087 C3088 1.363 . S
C3087 H3090 0.929 . S
C3088 C3087 1.363 . S
C3088 C3094 1.428 . S
H3089 C3085 0.930 . S
H3090 C3087 0.929 . S
S3091 N3092 1.613 . S
S3091 N3093 1.610 . S
N3092 S3091 1.613 . S
N3092 C3095 1.350 . S
N3093 S3091 1.610 . S
N3093 C3094 1.351 . S
C3094 C3088 1.428 . S
C3094 N3093 1.351 . S
C3094 C3095 1.434 . S
C3095 C3086 1.429 . S
C3095 N3092 1.350 . S
C3095 C3094 1.434 . S
C3096 C3097 1.369 . S
C3096 C3098 1.419 . S
C3096 H3100 0.930 . S
C3097 C3096 1.369 . S
C3097 C3106 1.429 . S
C3098 C3096 1.419 . S
C3098 C3099 1.363 . S
C3098 H3101 0.929 . S
C3099 C3098 1.363 . S
C3099 C3105 1.428 . S
H3100 C3096 0.930 . S
H3101 C3098 0.929 . S
S3102 N3103 1.613 . S
S3102 N3104 1.610 . S
N3103 S3102 1.613 . S
N3103 C3106 1.350 . S
N3104 S3102 1.610 . S
N3104 C3105 1.351 . S
C3105 C3099 1.428 . S
C3105 N3104 1.351 . S
C3105 C3106 1.434 . S
C3106 C3097 1.429 . S
C3106 N3103 1.350 . S
C3106 C3105 1.434 . S
C3107 C3108 1.369 . S
C3107 C3109 1.419 . S
C3107 H3111 0.930 . S
C3108 C3107 1.369 . S
C3108 C3117 1.429 . S
C3109 C3107 1.419 . S
C3109 C3110 1.363 . S
C3109 H3112 0.929 . S
C3110 C3109 1.363 . S
C3110 C3116 1.428 . S
H3111 C3107 0.930 . S
H3112 C3109 0.929 . S
S3113 N3114 1.613 . S
S3113 N3115 1.610 . S
N3114 S3113 1.613 . S
N3114 C3117 1.350 . S
N3115 S3113 1.610 . S
N3115 C3116 1.351 . S
C3116 C3110 1.428 . S
C3116 N3115 1.351 . S
C3116 C3117 1.434 . S
C3117 C3108 1.429 . S
C3117 N3114 1.350 . S
C3117 C3116 1.434 . S
C3118 C3119 1.369 . S
C3118 C3120 1.419 . S
C3118 H3122 0.930 . S
C3119 C3118 1.369 . S
C3119 C3128 1.429 . S
C3120 C3118 1.419 . S
C3120 C3121 1.363 . S
C3120 H3123 0.929 1_655 S
C3121 C3120 1.363 . S
C3121 C3127 1.428 . S
H3122 C3118 0.930 . S
H3123 C3120 0.929 1_455 S
S3124 N3125 1.613 . S
S3124 N3126 1.610 . S
N3125 S3124 1.613 . S
N3125 C3128 1.350 . S
N3126 S3124 1.610 . S
N3126 C3127 1.351 . S
C3127 C3121 1.428 . S
C3127 N3126 1.351 . S
C3127 C3128 1.434 . S
C3128 C3119 1.429 . S
C3128 N3125 1.350 . S
C3128 C3127 1.434 . S
C3129 C3130 1.369 . S
C3129 C3131 1.419 . S
C3129 H3133 0.930 . S
C3130 C3129 1.369 . S
C3130 C3139 1.429 . S
C3131 C3129 1.419 . S
C3131 C3132 1.363 . S
C3131 H3134 0.929 . S
C3132 C3131 1.363 . S
C3132 C3138 1.428 . S
H3133 C3129 0.930 . S
H3134 C3131 0.929 . S
S3135 N3136 1.613 . S
S3135 N3137 1.610 . S
N3136 S3135 1.613 . S
N3136 C3139 1.350 . S
N3137 S3135 1.610 . S
N3137 C3138 1.351 . S
C3138 C3132 1.428 . S
C3138 N3137 1.351 . S
C3138 C3139 1.434 . S
C3139 C3130 1.429 . S
C3139 N3136 1.350 . S
C3139 C3138 1.434 . S
C3140 C3141 1.369 . S
C3140 C3142 1.419 . S
C3140 H3144 0.930 . S
C3141 C3140 1.369 . S
C3141 C3150 1.429 . S
C3142 C3140 1.419 . S
C3142 C3143 1.363 . S
C3142 H3145 0.929 . S
C3143 C3142 1.363 . S
C3143 C3149 1.428 . S
H3144 C3140 0.930 . S
H3145 C3142 0.929 . S
S3146 N3147 1.613 . S
S3146 N3148 1.610 . S
N3147 S3146 1.613 . S
N3147 C3150 1.350 . S
N3148 S3146 1.610 . S
N3148 C3149 1.351 . S
C3149 C3143 1.428 . S
C3149 N3148 1.351 . S
C3149 C3150 1.434 . S
C3150 C3141 1.429 . S
C3150 N3147 1.350 . S
C3150 C3149 1.434 . S
C3151 C3152 1.369 . S
C3151 C3153 1.419 . S
C3151 H3155 0.930 . S
C3152 C3151 1.369 . S
C3152 C3161 1.429 . S
C3153 C3151 1.419 . S
C3153 C3154 1.363 . S
C3153 H3156 0.929 . S
C3154 C3153 1.363 . S
C3154 C3160 1.428 . S
H3155 C3151 0.930 . S
H3156 C3153 0.929 . S
S3157 N3158 1.613 . S
S3157 N3159 1.610 . S
N3158 S3157 1.613 . S
N3158 C3161 1.350 . S
N3159 S3157 1.610 . S
N3159 C3160 1.351 . S
C3160 C3154 1.428 . S
C3160 N3159 1.351 . S
C3160 C3161 1.434 . S
C3161 C3152 1.429 . S
C3161 N3158 1.350 . S
C3161 C3160 1.434 . S
C3162 C3163 1.369 . S
C3162 C3164 1.419 . S
C3162 H3166 0.930 . S
C3163 C3162 1.369 . S
C3163 C3172 1.429 . S
C3164 C3162 1.419 . S
C3164 C3165 1.363 . S
C3164 H3167 0.929 . S
C3165 C3164 1.363 . S
C3165 C3171 1.428 . S
H3166 C3162 0.930 . S
H3167 C3164 0.929 . S
S3168 N3169 1.613 . S
S3168 N3170 1.610 . S
N3169 S3168 1.613 . S
N3169 C3172 1.350 . S
N3170 S3168 1.610 . S
N3170 C3171 1.351 . S
C3171 C3165 1.428 . S
C3171 N3170 1.351 . S
C3171 C3172 1.434 . S
C3172 C3163 1.429 . S
C3172 N3169 1.350 . S
C3172 C3171 1.434 . S
C3173 C3174 1.369 . S
C3173 C3175 1.419 . S
C3173 H3177 0.930 . S
C3174 C3173 1.369 . S
C3174 C3183 1.429 . S
C3175 C3173 1.419 . S
C3175 C3176 1.363 . S
C3175 H3178 0.929 . S
C3176 C3175 1.363 . S
C3176 C3182 1.428 . S
H3177 C3173 0.930 . S
H3178 C3175 0.929 . S
S3179 N3180 1.613 . S
S3179 N3181 1.610 . S
N3180 S3179 1.613 . S
N3180 C3183 1.350 . S
N3181 S3179 1.610 . S
N3181 C3182 1.351 . S
C3182 C3176 1.428 . S
C3182 N3181 1.351 . S
C3182 C3183 1.434 . S
C3183 C3174 1.429 . S
C3183 N3180 1.350 . S
C3183 C3182 1.434 . S
C3184 C3185 1.369 . S
C3184 C3186 1.419 . S
C3184 H3188 0.930 . S
C3185 C3184 1.369 . S
C3185 C3194 1.429 . S
C3186 C3184 1.419 . S
C3186 C3187 1.363 . S
C3186 H3189 0.929 . S
C3187 C3186 1.363 . S
C3187 C3193 1.428 . S
H3188 C3184 0.930 . S
H3189 C3186 0.929 . S
S3190 N3191 1.613 . S
S3190 N3192 1.610 . S
N3191 S3190 1.613 . S
N3191 C3194 1.350 . S
N3192 S3190 1.610 . S
N3192 C3193 1.351 . S
C3193 C3187 1.428 . S
C3193 N3192 1.351 . S
C3193 C3194 1.434 . S
C3194 C3185 1.429 . S
C3194 N3191 1.350 . S
C3194 C3193 1.434 . S
C3195 C3196 1.369 . S
C3195 C3197 1.419 . S
C3195 H3199 0.946 . S
C3196 C3195 1.369 . S
C3196 C3205 1.429 . S
C3197 C3195 1.419 . S
C3197 C3198 1.363 . S
C3197 H3200 0.929 1_565 S
C3198 C3197 1.363 . S
C3198 C3204 1.428 . S
H3199 C3195 0.946 . S
H3200 C3197 0.929 1_545 S
S3201 N3202 1.613 . S
S3201 N3203 1.610 . S
N3202 S3201 1.613 . S
N3202 C3205 1.350 . S
N3203 S3201 1.610 . S
N3203 C3204 1.351 . S
C3204 C3198 1.428 . S
C3204 N3203 1.351 . S
C3204 C3205 1.434 . S
C3205 C3196 1.429 . S
C3205 N3202 1.350 . S
C3205 C3204 1.434 . S
C3206 C3207 1.369 . S
C3206 C3208 1.419 . S
C3206 H3210 0.930 . S
C3207 C3206 1.369 . S
C3207 C3216 1.429 . S
C3208 C3206 1.419 . S
C3208 C3209 1.363 . S
C3208 H3211 0.929 . S
C3209 C3208 1.363 . S
C3209 C3215 1.428 . S
H3210 C3206 0.930 . S
H3211 C3208 0.929 . S
S3212 N3213 1.613 . S
S3212 N3214 1.610 . S
N3213 S3212 1.613 . S
N3213 C3216 1.350 . S
N3214 S3212 1.610 . S
N3214 C3215 1.351 . S
C3215 C3209 1.428 . S
C3215 N3214 1.351 . S
C3215 C3216 1.434 . S
C3216 C3207 1.429 . S
C3216 N3213 1.350 . S
C3216 C3215 1.434 . S
C3217 C3218 1.369 1_556 S
C3217 C3219 1.419 1_556 S
C3217 H3221 0.930 . S
C3218 C3217 1.369 1_554 S
C3218 C3227 1.429 . S
C3219 C3217 1.419 1_554 S
C3219 C3220 1.363 . S
C3219 H3222 0.929 1_554 S
C3220 C3219 1.363 . S
C3220 C3226 1.428 . S
H3221 C3217 0.930 . S
H3222 C3219 0.929 1_556 S
S3223 N3224 1.613 . S
S3223 N3225 1.610 . S
N3224 S3223 1.613 . S
N3224 C3227 1.350 . S
N3225 S3223 1.610 . S
N3225 C3226 1.351 . S
C3226 C3220 1.428 . S
C3226 N3225 1.351 . S
C3226 C3227 1.434 . S
C3227 C3218 1.429 . S
C3227 N3224 1.350 . S
C3227 C3226 1.434 . S
C3228 C3229 1.369 . S
C3228 C3230 1.419 . S
C3228 H3232 0.930 . S
C3229 C3228 1.369 . S
C3229 C3238 1.429 . S
C3230 C3228 1.419 . S
C3230 C3231 1.363 . S
C3230 H3233 0.929 . S
C3231 C3230 1.363 . S
C3231 C3237 1.428 . S
H3232 C3228 0.930 . S
H3233 C3230 0.929 . S
S3234 N3235 1.613 . S
S3234 N3236 1.610 . S
N3235 S3234 1.613 . S
N3235 C3238 1.350 . S
N3236 S3234 1.610 . S
N3236 C3237 1.351 . S
C3237 C3231 1.428 . S
C3237 N3236 1.351 . S
C3237 C3238 1.434 . S
C3238 C3229 1.429 . S
C3238 N3235 1.350 . S
C3238 C3237 1.434 . S
C3239 C3240 1.369 1_556 S
C3239 C3241 1.419 . S
C3239 H3243 0.930 . S
C3240 C3239 1.369 1_554 S
C3240 C3249 1.429 . S
C3241 C3239 1.419 . S
C3241 C3242 1.381 . S
C3241 H3244 0.929 . S
C3242 C3241 1.381 . S
C3242 C3248 1.404 1_556 S
H3243 C3239 0.930 . S
H3244 C3241 0.929 . S
S3245 N3246 1.613 . S
S3245 N3247 1.610 . S
N3246 S3245 1.613 . S
N3246 C3249 1.350 . S
N3247 S3245 1.610 . S
N3247 C3248 1.351 . S
C3248 C3242 1.404 1_554 S
C3248 N3247 1.351 . S
C3248 C3249 1.434 . S
C3249 C3240 1.429 . S
C3249 N3246 1.350 . S
C3249 C3248 1.434 . S
C3250 C3251 1.369 . S
C3250 C3252 1.419 . S
C3250 H3254 0.930 . S
C3251 C3250 1.369 . S
C3251 C3260 1.429 . S
C3252 C3250 1.419 . S
C3252 C3253 1.363 . S
C3252 H3255 0.929 . S
C3253 C3252 1.363 . S
C3253 C3259 1.428 . S
H3254 C3250 0.930 . S
H3255 C3252 0.929 . S
S3256 N3257 1.613 . S
S3256 N3258 1.610 . S
N3257 S3256 1.613 . S
N3257 C3260 1.350 . S
N3258 S3256 1.610 . S
N3258 C3259 1.351 . S
C3259 C3253 1.428 . S
C3259 N3258 1.351 . S
C3259 C3260 1.434 . S
C3260 C3251 1.429 . S
C3260 N3257 1.350 . S
C3260 C3259 1.434 . S
C3261 C3262 1.369 . S
C3261 C3263 1.419 . S
C3261 H3265 0.930 . S
C3262 C3261 1.369 . S
C3262 C3271 1.429 . S
C3263 C3261 1.419 . S
C3263 C3264 1.363 . S
C3263 H3266 0.929 . S
C3264 C3263 1.363 . S
C3264 C3270 1.428 . S
H3265 C3261 0.930 . S
H3266 C3263 0.929 . S
S3267 N3268 1.613 . S
S3267 N3269 1.610 . S
N3268 S3267 1.613 . S
N3268 C3271 1.350 . S
N3269 S3267 1.610 . S
N3269 C3270 1.351 . S
C3270 C3264 1.428 . S
C3270 N3269 1.351 . S
C3270 C3271 1.434 . S
C3271 C3262 1.429 . S
C3271 N3268 1.350 . S
C3271 C3270 1.434 . S
C3272 C3273 1.369 . S
C3272 C3274 1.419 . S
C3272 H3276 0.930 . S
C3273 C3272 1.369 . S
C3273 C3282 1.429 . S
C3274 C3272 1.419 . S
C3274 C3275 1.363 . S
C3274 H3277 0.929 . S
C3275 C3274 1.363 . S
C3275 C3281 1.428 . S
H3276 C3272 0.930 . S
H3277 C3274 0.929 . S
S3278 N3279 1.613 . S
S3278 N3280 1.610 . S
N3279 S3278 1.613 . S
N3279 C3282 1.350 . S
N3280 S3278 1.610 . S
N3280 C3281 1.351 . S
C3281 C3275 1.428 . S
C3281 N3280 1.351 . S
C3281 C3282 1.434 . S
C3282 C3273 1.429 . S
C3282 N3279 1.350 . S
C3282 C3281 1.434 . S
C3283 C3284 1.369 . S
C3283 C3285 1.419 . S
C3283 H3287 0.930 . S
C3284 C3283 1.369 . S
C3284 C3293 1.429 . S
C3285 C3283 1.419 . S
C3285 C3286 1.363 . S
C3285 H3288 0.929 . S
C3286 C3285 1.363 . S
C3286 C3292 1.428 . S
H3287 C3283 0.930 . S
H3288 C3285 0.929 . S
S3289 N3290 1.613 . S
S3289 N3291 1.610 . S
N3290 S3289 1.613 . S
N3290 C3293 1.350 . S
N3291 S3289 1.610 . S
N3291 C3292 1.351 . S
C3292 C3286 1.428 . S
C3292 N3291 1.351 . S
C3292 C3293 1.434 . S
C3293 C3284 1.429 . S
C3293 N3290 1.350 . S
C3293 C3292 1.434 . S
C3294 C3295 1.369 . S
C3294 C3296 1.419 . S
C3294 H3298 0.930 . S
C3295 C3294 1.369 . S
C3295 C3304 1.429 1_455 S
C3296 C3294 1.419 . S
C3296 C3297 1.363 1_455 S
C3296 H3299 0.929 . S
C3297 C3296 1.363 1_655 S
C3297 C3303 1.428 . S
H3298 C3294 0.930 . S
H3299 C3296 0.929 . S
S3300 N3301 1.613 . S
S3300 N3302 1.610 . S
N3301 S3300 1.613 . S
N3301 C3304 1.350 . S
N3302 S3300 1.610 . S
N3302 C3303 1.351 . S
C3303 C3297 1.428 . S
C3303 N3302 1.351 . S
C3303 C3304 1.434 . S
C3304 C3295 1.429 1_655 S
C3304 N3301 1.350 . S
C3304 C3303 1.434 . S
C3305 C3306 1.369 . S
C3305 C3307 1.419 . S
C3305 H3309 0.930 . S
C3306 C3305 1.369 . S
C3306 C3315 1.429 . S
C3307 C3305 1.419 . S
C3307 C3308 1.363 . S
C3307 H3310 0.929 . S
C3308 C3307 1.363 . S
C3308 C3314 1.428 . S
H3309 C3305 0.930 . S
H3310 C3307 0.929 . S
S3311 N3312 1.613 . S
S3311 N3313 1.610 . S
N3312 S3311 1.613 . S
N3312 C3315 1.350 . S
N3313 S3311 1.610 . S
N3313 C3314 1.351 . S
C3314 C3308 1.428 . S
C3314 N3313 1.351 . S
C3314 C3315 1.434 . S
C3315 C3306 1.429 . S
C3315 N3312 1.350 . S
C3315 C3314 1.434 . S
C3316 C3317 1.369 . S
C3316 C3318 1.419 . S
C3316 H3320 0.930 . S
C3317 C3316 1.369 . S
C3317 C3326 1.429 . S
C3318 C3316 1.419 . S
C3318 C3319 1.363 . S
C3318 H3321 0.929 . S
C3319 C3318 1.363 . S
C3319 C3325 1.428 . S
H3320 C3316 0.930 . S
H3321 C3318 0.929 . S
S3322 N3323 1.613 . S
S3322 N3324 1.610 . S
N3323 S3322 1.613 . S
N3323 C3326 1.350 . S
N3324 S3322 1.610 . S
N3324 C3325 1.351 . S
C3325 C3319 1.428 . S
C3325 N3324 1.351 . S
C3325 C3326 1.434 . S
C3326 C3317 1.429 . S
C3326 N3323 1.350 . S
C3326 C3325 1.434 . S
C3327 C3328 1.369 . S
C3327 C3329 1.419 . S
C3327 H3331 0.930 . S
C3328 C3327 1.369 . S
C3328 C3337 1.429 . S
C3329 C3327 1.419 . S
C3329 C3330 1.363 . S
C3329 H3332 0.929 . S
C3330 C3329 1.363 . S
C3330 C3336 1.428 . S
H3331 C3327 0.930 . S
H3332 C3329 0.929 . S
S3333 N3334 1.613 . S
S3333 N3335 1.610 . S
N3334 S3333 1.613 . S
N3334 C3337 1.350 . S
N3335 S3333 1.610 . S
N3335 C3336 1.351 . S
C3336 C3330 1.428 . S
C3336 N3335 1.351 . S
C3336 C3337 1.434 . S
C3337 C3328 1.429 . S
C3337 N3334 1.350 . S
C3337 C3336 1.434 . S
C3338 C3339 1.369 1_655 S
C3338 C3340 1.419 . S
C3338 H3342 0.930 . S
C3339 C3338 1.369 1_455 S
C3339 C3348 1.429 . S
C3340 C3338 1.419 . S
C3340 C3341 1.363 . S
C3340 H3343 0.929 . S
C3341 C3340 1.363 . S
C3341 C3347 1.428 1_655 S
H3342 C3338 0.930 . S
H3343 C3340 0.929 . S
S3344 N3345 1.613 . S
S3344 N3346 1.610 . S
N3345 S3344 1.613 . S
N3345 C3348 1.350 . S
N3346 S3344 1.610 . S
N3346 C3347 1.351 . S
C3347 C3341 1.428 1_455 S
C3347 N3346 1.351 . S
C3347 C3348 1.434 . S
C3348 C3339 1.429 . S
C3348 N3345 1.350 . S
C3348 C3347 1.434 . S
C3349 C3350 1.369 . S
C3349 C3351 1.419 . S
C3349 H3353 0.930 . S
C3350 C3349 1.369 . S
C3350 C3359 1.429 . S
C3351 C3349 1.419 . S
C3351 C3352 1.363 . S
C3351 H3354 0.929 . S
C3352 C3351 1.363 . S
C3352 C3358 1.428 . S
H3353 C3349 0.930 . S
H3354 C3351 0.929 . S
S3355 N3356 1.613 . S
S3355 N3357 1.610 . S
N3356 S3355 1.613 . S
N3356 C3359 1.350 . S
N3357 S3355 1.610 . S
N3357 C3358 1.351 . S
C3358 C3352 1.428 . S
C3358 N3357 1.351 . S
C3358 C3359 1.434 . S
C3359 C3350 1.429 . S
C3359 N3356 1.350 . S
C3359 C3358 1.434 . S
C3360 C3361 1.369 . S
C3360 C3362 1.419 . S
C3360 H3364 0.930 . S
C3361 C3360 1.369 . S
C3361 C3370 1.429 . S
C3362 C3360 1.419 . S
C3362 C3363 1.363 . S
C3362 H3365 0.929 . S
C3363 C3362 1.363 . S
C3363 C3369 1.428 . S
H3364 C3360 0.930 . S
H3365 C3362 0.929 . S
S3366 N3367 1.613 . S
S3366 N3368 1.610 . S
N3367 S3366 1.613 . S
N3367 C3370 1.350 . S
N3368 S3366 1.610 . S
N3368 C3369 1.351 . S
C3369 C3363 1.428 . S
C3369 N3368 1.351 . S
C3369 C3370 1.434 . S
C3370 C3361 1.429 . S
C3370 N3367 1.350 . S
C3370 C3369 1.434 . S
C3371 C3372 1.369 . S
C3371 C3373 1.419 . S
C3371 H3375 0.930 . S
C3372 C3371 1.369 . S
C3372 C3381 1.429 . S
C3373 C3371 1.419 . S
C3373 C3374 1.363 . S
C3373 H3376 0.929 . S
C3374 C3373 1.363 . S
C3374 C3380 1.428 . S
H3375 C3371 0.930 . S
H3376 C3373 0.929 . S
S3377 N3378 1.613 . S
S3377 N3379 1.610 . S
N3378 S3377 1.613 . S
N3378 C3381 1.350 . S
N3379 S3377 1.610 . S
N3379 C3380 1.351 . S
C3380 C3374 1.428 . S
C3380 N3379 1.351 . S
C3380 C3381 1.434 . S
C3381 C3372 1.429 . S
C3381 N3378 1.350 . S
C3381 C3380 1.434 . S
C3382 C3383 1.369 . S
C3382 C3384 1.419 . S
C3382 H3386 0.930 . S
C3383 C3382 1.369 . S
C3383 C3392 1.429 . S
C3384 C3382 1.419 . S
C3384 C3385 1.363 . S
C3384 H3387 0.929 . S
C3385 C3384 1.363 . S
C3385 C3391 1.428 . S
H3386 C3382 0.930 . S
H3387 C3384 0.929 . S
S3388 N3389 1.591 1_655 S
S3388 N3390 1.610 . S
N3389 S3388 1.591 1_455 S
N3389 C3392 1.377 . S
N3390 S3388 1.610 . S
N3390 C3391 1.351 1_655 S
C3391 C3385 1.428 . S
C3391 N3390 1.351 1_455 S
C3391 C3392 1.434 . S
C3392 C3383 1.429 . S
C3392 N3389 1.377 . S
C3392 C3391 1.434 . S
C3393 C3394 1.369 . S
C3393 C3395 1.419 . S
C3393 H3397 0.930 . S
C3394 C3393 1.369 . S
C3394 C3403 1.429 . S
C3395 C3393 1.419 . S
C3395 C3396 1.363 . S
C3395 H3398 0.929 . S
C3396 C3395 1.363 . S
C3396 C3402 1.428 . S
H3397 C3393 0.930 . S
H3398 C3395 0.929 . S
S3399 N3400 1.613 . S
S3399 N3401 1.610 . S
N3400 S3399 1.613 . S
N3400 C3403 1.350 . S
N3401 S3399 1.610 . S
N3401 C3402 1.351 . S
C3402 C3396 1.428 . S
C3402 N3401 1.351 . S
C3402 C3403 1.434 . S
C3403 C3394 1.429 . S
C3403 N3400 1.350 . S
C3403 C3402 1.434 . S
C3404 C3405 1.369 . S
C3404 C3406 1.419 . S
C3404 H3408 0.930 . S
C3405 C3404 1.369 . S
C3405 C3414 1.429 . S
C3406 C3404 1.419 . S
C3406 C3407 1.363 . S
C3406 H3409 0.929 . S
C3407 C3406 1.363 . S
C3407 C3413 1.428 . S
H3408 C3404 0.930 . S
H3409 C3406 0.929 . S
S3410 N3411 1.613 . S
S3410 N3412 1.610 . S
N3411 S3410 1.613 . S
N3411 C3414 1.350 . S
N3412 S3410 1.610 . S
N3412 C3413 1.351 . S
C3413 C3407 1.428 . S
C3413 N3412 1.351 . S
C3413 C3414 1.434 . S
C3414 C3405 1.429 . S
C3414 N3411 1.350 . S
C3414 C3413 1.434 . S
C3415 C3416 1.369 . S
C3415 C3417 1.419 . S
C3415 H3419 0.930 . S
C3416 C3415 1.369 . S
C3416 C3425 1.429 . S
C3417 C3415 1.419 . S
C3417 C3418 1.363 . S
C3417 H3420 0.929 . S
C3418 C3417 1.363 . S
C3418 C3424 1.428 . S
H3419 C3415 0.930 . S
H3420 C3417 0.929 . S
S3421 N3422 1.613 . S
S3421 N3423 1.610 . S
N3422 S3421 1.613 . S
N3422 C3425 1.350 . S
N3423 S3421 1.610 . S
N3423 C3424 1.351 . S
C3424 C3418 1.428 . S
C3424 N3423 1.351 . S
C3424 C3425 1.434 . S
C3425 C3416 1.429 . S
C3425 N3422 1.350 . S
C3425 C3424 1.434 . S
C3426 C3427 1.369 . S
C3426 C3428 1.419 . S
C3426 H3430 0.930 . S
C3427 C3426 1.369 . S
C3427 C3436 1.429 . S
C3428 C3426 1.419 . S
C3428 C3429 1.363 . S
C3428 H3431 0.929 . S
C3429 C3428 1.363 . S
C3429 C3435 1.428 . S
H3430 C3426 0.930 . S
H3431 C3428 0.929 . S
S3432 N3433 1.613 1_655 S
S3432 N3434 1.610 . S
N3433 S3432 1.613 1_455 S
N3433 C3436 1.350 . S
N3434 S3432 1.610 . S
N3434 C3435 1.351 1_655 S
C3435 C3429 1.428 . S
C3435 N3434 1.351 1_455 S
C3435 C3436 1.434 . S
C3436 C3427 1.429 . S
C3436 N3433 1.350 . S
C3436 C3435 1.434 . S
C3437 C3438 1.369 . S
C3437 C3439 1.419 . S
C3437 H3441 0.930 . S
C3438 C3437 1.369 . S
C3438 C3447 1.429 . S
C3439 C3437 1.419 . S
C3439 C3440 1.363 . S
C3439 H3442 0.929 . S
C3440 C3439 1.363 . S
C3440 C3446 1.428 . S
H3441 C3437 0.930 . S
H3442 C3439 0.929 . S
S3443 N3444 1.613 . S
S3443 N3445 1.610 . S
N3444 S3443 1.613 . S
N3444 C3447 1.350 . S
N3445 S3443 1.610 . S
N3445 C3446 1.351 . S
C3446 C3440 1.428 . S
C3446 N3445 1.351 . S
C3446 C3447 1.434 . S
C3447 C3438 1.429 . S
C3447 N3444 1.350 . S
C3447 C3446 1.434 . S
C3448 C3449 1.369 . S
C3448 C3450 1.419 . S
C3448 H3452 0.930 . S
C3449 C3448 1.369 . S
C3449 C3458 1.429 . S
C3450 C3448 1.419 . S
C3450 C3451 1.363 . S
C3450 H3453 0.929 . S
C3451 C3450 1.363 . S
C3451 C3457 1.428 . S
H3452 C3448 0.930 . S
H3453 C3450 0.929 . S
S3454 N3455 1.613 . S
S3454 N3456 1.610 . S
N3455 S3454 1.613 . S
N3455 C3458 1.350 . S
N3456 S3454 1.610 . S
N3456 C3457 1.351 . S
C3457 C3451 1.428 . S
C3457 N3456 1.351 . S
C3457 C3458 1.434 . S
C3458 C3449 1.429 . S
C3458 N3455 1.350 . S
C3458 C3457 1.434 . S
C3459 C3460 1.369 . S
C3459 C3461 1.419 . S
C3459 H3463 0.930 . S
C3460 C3459 1.369 . S
C3460 C3469 1.429 . S
C3461 C3459 1.419 . S
C3461 C3462 1.363 . S
C3461 H3464 0.929 . S
C3462 C3461 1.363 . S
C3462 C3468 1.428 . S
H3463 C3459 0.930 . S
H3464 C3461 0.929 . S
S3465 N3466 1.613 . S
S3465 N3467 1.610 . S
N3466 S3465 1.613 . S
N3466 C3469 1.350 . S
N3467 S3465 1.610 . S
N3467 C3468 1.351 . S
C3468 C3462 1.428 . S
C3468 N3467 1.351 . S
C3468 C3469 1.434 . S
C3469 C3460 1.429 . S
C3469 N3466 1.350 . S
C3469 C3468 1.434 . S
C3470 C3471 1.369 . S
C3470 C3472 1.419 . S
C3470 H3474 0.930 . S
C3471 C3470 1.369 . S
C3471 C3480 1.429 . S
C3472 C3470 1.419 . S
C3472 C3473 1.363 . S
C3472 H3475 0.929 . S
C3473 C3472 1.363 . S
C3473 C3479 1.428 . S
H3474 C3470 0.930 . S
H3475 C3472 0.929 . S
S3476 N3477 1.613 . S
S3476 N3478 1.610 . S
N3477 S3476 1.613 . S
N3477 C3480 1.350 . S
N3478 S3476 1.610 . S
N3478 C3479 1.351 . S
C3479 C3473 1.428 . S
C3479 N3478 1.351 . S
C3479 C3480 1.434 . S
C3480 C3471 1.429 . S
C3480 N3477 1.350 . S
C3480 C3479 1.434 . S
C3481 C3482 1.369 . S
C3481 C3483 1.419 1_554 S
C3481 H3485 0.930 . S
C3482 C3481 1.369 . S
C3482 C3491 1.429 1_554 S
C3483 C3481 1.419 1_556 S
C3483 C3484 1.363 . S
C3483 H3486 0.929 1_565 S
C3484 C3483 1.363 . S
C3484 C3490 1.428 . S
H3485 C3481 0.930 . S
H3486 C3483 0.929 1_545 S
S3487 N3488 1.613 . S
S3487 N3489 1.610 . S
N3488 S3487 1.613 . S
N3488 C3491 1.350 . S
N3489 S3487 1.610 . S
N3489 C3490 1.351 . S
C3490 C3484 1.428 . S
C3490 N3489 1.351 . S
C3490 C3491 1.434 . S
C3491 C3482 1.429 1_556 S
C3491 N3488 1.350 . S
C3491 C3490 1.434 . S
C3492 C3493 1.369 . S
C3492 C3494 1.419 . S
C3492 H3496 0.930 . S
C3493 C3492 1.369 . S
C3493 C3502 1.429 . S
C3494 C3492 1.419 . S
C3494 C3495 1.363 . S
C3494 H3497 0.929 . S
C3495 C3494 1.363 . S
C3495 C3501 1.428 . S
H3496 C3492 0.930 . S
H3497 C3494 0.929 . S
S3498 N3499 1.613 . S
S3498 N3500 1.610 . S
N3499 S3498 1.613 . S
N3499 C3502 1.350 . S
N3500 S3498 1.610 . S
N3500 C3501 1.351 . S
C3501 C3495 1.428 . S
C3501 N3500 1.351 . S
C3501 C3502 1.434 . S
C3502 C3493 1.429 . S
C3502 N3499 1.350 . S
C3502 C3501 1.434 . S
C3503 C3504 1.369 1_556 S
C3503 C3505 1.419 1_556 S
C3503 H3507 0.930 . S
C3504 C3503 1.369 1_554 S
C3504 C3513 1.429 . S
C3505 C3503 1.419 1_554 S
C3505 C3506 1.363 . S
C3505 H3508 0.929 1_554 S
C3506 C3505 1.363 . S
C3506 C3512 1.428 . S
H3507 C3503 0.930 . S
H3508 C3505 0.929 1_556 S
S3509 N3510 1.613 . S
S3509 N3511 1.610 . S
N3510 S3509 1.613 . S
N3510 C3513 1.350 . S
N3511 S3509 1.610 . S
N3511 C3512 1.351 . S
C3512 C3506 1.428 . S
C3512 N3511 1.351 . S
C3512 C3513 1.434 . S
C3513 C3504 1.429 . S
C3513 N3510 1.350 . S
C3513 C3512 1.434 . S
C3514 C3515 1.369 . S
C3514 C3516 1.419 . S
C3514 H3518 0.930 . S
C3515 C3514 1.369 . S
C3515 C3524 1.429 . S
C3516 C3514 1.419 . S
C3516 C3517 1.363 . S
C3516 H3519 0.929 . S
C3517 C3516 1.363 . S
C3517 C3523 1.428 . S
H3518 C3514 0.930 . S
H3519 C3516 0.929 . S
S3520 N3521 1.613 . S
S3520 N3522 1.610 . S
N3521 S3520 1.613 . S
N3521 C3524 1.350 . S
N3522 S3520 1.610 . S
N3522 C3523 1.351 . S
C3523 C3517 1.428 . S
C3523 N3522 1.351 . S
C3523 C3524 1.434 . S
C3524 C3515 1.429 . S
C3524 N3521 1.350 . S
C3524 C3523 1.434 . S
C3525 C3526 1.369 . S
C3525 C3527 1.419 . S
C3525 H3529 0.930 . S
C3526 C3525 1.369 . S
C3526 C3535 1.429 . S
C3527 C3525 1.419 . S
C3527 C3528 1.363 . S
C3527 H3530 0.929 . S
C3528 C3527 1.363 . S
C3528 C3534 1.428 . S
H3529 C3525 0.930 . S
H3530 C3527 0.929 . S
S3531 N3532 1.613 . S
S3531 N3533 1.610 . S
N3532 S3531 1.613 . S
N3532 C3535 1.350 . S
N3533 S3531 1.610 . S
N3533 C3534 1.351 . S
C3534 C3528 1.428 . S
C3534 N3533 1.351 . S
C3534 C3535 1.434 . S
C3535 C3526 1.429 . S
C3535 N3532 1.350 . S
C3535 C3534 1.434 . S
C2483 C2128 1.144 . S
C2481 C49 1.152 . S
C2492 C137 1.349 . S
C2494 C2156 1.267 . S
C2503 C205 1.155 . S
C2505 C2174 1.145 . S
C2516 C2200 1.251 . S
C2514 C284 1.373 . S
C2525 C117 1.376 . S
C2527 C2223 1.243 . S
C2538 C2243 1.145 . S
C2536 C225 1.158 . S
C2549 C2271 1.260 1_556 S
C2547 C321 1.347 . S
C2558 C29 1.153 . S
C2560 C2289 1.141 . S
C2569 C401 1.308 . S
C2571 C2130 1.314 1_545 S
C2580 C497 1.038 . S
C2582 C2152 1.019 . S
C2593 C2176 1.316 . S
C2591 C585 1.306 . S
C2604 C2197 1.051 . S
C2602 C665 1.074 . S
C2613 C372 1.070 . S
C2615 C2220 1.058 . S
C2626 C2245 1.317 . S
C2624 C469 1.311 . S
C2637 C2267 1.020 . S
C2635 C557 1.036 1_565 S
C2648 C2291 1.314 . S
C2646 C636 1.307 . S
C2659 C2131 0.920 1_556 S
C2657 C673 0.978 . S
C2670 C2314 1.192 . S
C2668 C724 1.175 . S
C2679 C821 1.003 . S
C2681 C2338 0.935 . S
C2692 C2362 1.170 . S
C2690 C909 1.164 . S
C2701 C381 0.977 . S
C2703 C2292 0.926 . S
C2714 C2177 0.944 . S
C2712 C489 0.999 . S
C2723 C849 1.180 . S
C2725 C2383 1.188 . S
C2736 C2408 1.170 . S
C2734 C1017 1.155 . S
C2745 C1085 1.125 . S
C2747 C2129 1.105 . S
C2758 C2406 1.155 . S
C2756 C1201 1.139 . S
C2767 C1289 1.134 . S
C2769 C2175 1.111 . S
C2778 C1349 1.097 . S
C2780 C2385 1.038 . S
C2791 C2224 1.041 . S
C2789 C1193 1.094 . S
C2802 C2336 1.108 . S
C2800 C1281 1.134 . S
C2813 C2268 1.153 . S
C2811 C1340 1.140 . S
C2824 C2428 1.110 . S
C2822 C1076 1.123 . S
C2835 C2133 0.990 . S
C2833 C1428 1.099 . S
C2844 C1516 1.406 . S
C2846 C2404 1.387 . S
C2857 C2179 0.992 . S
C2855 C1604 1.094 1_565 S
C2866 C1701 1.400 . S
C2868 C2382 1.366 . S
C2877 C1457 1.391 . S
C2879 C2221 1.373 . S
C2888 C1545 1.096 . S
C2890 C2340 0.984 . S
C2901 C2266 1.386 . S
C2899 C1633 1.401 1_545 S
C2910 C1729 1.099 . S
C2912 C2432 0.991 . S
C2921 C1721 1.413 . S
C2923 C2132 1.317 . S
C2932 C1789 1.248 . S
C2934 C2317 1.152 . S
C2943 C1868 1.414 . S
C2945 C2247 1.337 . S
C2954 C1956 1.260 . S
C2956 C2361 1.128 . S
C2967 C2431 1.322 . S
C2965 C1437 1.411 . S
C2978 C2178 1.337 . S
C2976 C1553 1.415 . S
C2989 C2202 1.142 . S
C2987 C1897 1.252 . S
C3000 C2154 1.143 . S
C2998 C2081 1.259 . S
C3009 C233 1.163 . S
C3011 C2450 1.135 . S
C3022 C2409 1.266 . S
C3020 C313 1.345 . S
C3033 C2473 1.143 . S
C3031 C20 1.160 . S
C3042 C108 1.376 . S
C3044 C2384 1.239 . S
C3053 C293 1.372 . S
C3055 C2315 1.244 1_556 S
C3066 C2335 1.142 . S
C3064 C57 1.162 . S
C3077 C2363 1.269 . S
C3075 C145 1.347 . S
C3088 C2427 1.134 . S
C3086 C196 1.161 . S
C3099 C2452 1.314 . S
C3097 C1025 1.307 . S
C3108 C761 1.037 . S
C3110 C2405 1.025 . S
C3119 C841 1.308 . S
C3121 C2475 1.317 . S
C3132 C2381 1.055 . S
C3130 C929 1.074 . S
C3143 C2312 1.054 . S
C3141 C997 1.074 . S
C3152 C733 1.310 . S
C3154 C2337 1.316 . S
C3165 C2359 1.025 . S
C3163 C812 1.036 . S
C3174 C900 1.306 . S
C3176 C2429 1.314 . S
C3187 C2453 0.932 . S
C3185 C937 0.978 . S
C3198 C2222 1.192 . S
C3196 C460 1.174 . S
C3209 C2246 0.950 . S
C3207 C548 1.002 . S
C3218 C645 1.154 . S
C3220 C2270 1.172 . S
C3231 C2430 0.916 . S
C3229 C988 0.982 . S
C3240 C753 1.005 . S
C3242 C2476 0.924 1_556 S
C3253 C2199 1.192 . S
C3251 C577 1.174 . S
C3264 C2155 1.174 . S
C3262 C409 1.156 . S
C3273 C1261 1.129 . S
C3275 C2451 1.106 . S
C3286 C2153 1.152 . S
C3284 C1377 1.143 . S
C3297 C2474 1.115 . S
C3295 C1113 1.131 . S
C3306 C1173 1.095 . S
C3308 C2201 1.044 . S
C3317 C1369 1.097 . S
C3319 C2316 1.037 . S
C3328 C1105 1.128 . S
C3330 C2244 1.114 . S
C3339 C1164 1.141 . S
C3341 C2360 1.152 . S
C3350 C1252 1.124 . S
C3352 C2290 1.112 . S
C3363 C2455 0.994 . S
C3361 C2044 1.095 . S
C3372 C1780 1.397 . S
C3374 C2151 1.390 . S
C3385 C2478 0.985 . S
C3383 C1877 1.097 . S
C3394 C1965 1.394 . S
C3396 C2198 1.367 . S
C3405 C2073 1.391 . S
C3407 C2313 1.370 . S
C3418 C2248 0.996 . S
C3416 C1809 1.086 . S
C3427 C1905 1.406 . S
C3429 C2358 1.384 . S
C3440 C2294 0.993 . S
C3438 C1993 1.097 . S
C3451 C2454 1.328 . S
C3449 C1985 1.404 . S
C3462 C2225 1.141 . S
C3460 C1525 1.252 . S
C3471 C1613 1.424 . S
C3473 C2339 1.322 . S
C3484 C2269 1.141 . S
C3482 C1692 1.259 . S
C3495 C2293 1.317 . S
C3493 C2053 1.413 . S
C3504 C1817 1.418 . S
C3506 C2477 1.335 . S
C3517 C2386 1.144 . S
C3515 C1641 1.255 . S
C3528 C2407 1.140 . S
C3526 C1465 1.259 . S
