# Generated by pormake.
# Topology gar, (4,6)-cn, num edge types: 1
# Building blocks:
#     Node 0, Type 0, BuildingBlock: TATPOV_clean_sbu_0, # of connection points: 4
#     Node 1, Type 0, BuildingBlock: TATPOV_clean_sbu_0, # of connection points: 4
#     Node 2, Type 0, BuildingBlock: TATPOV_clean_sbu_0, # of connection points: 4
#     Node 3, Type 0, BuildingBlock: TATPOV_clean_sbu_0, # of connection points: 4
#     Node 4, Type 0, BuildingBlock: TATPOV_clean_sbu_0, # of connection points: 4
#     Node 5, Type 0, BuildingBlock: TATPOV_clean_sbu_0, # of connection points: 4
#     Node 6, Type 0, BuildingBlock: TATPOV_clean_sbu_0, # of connection points: 4
#     Node 7, Type 0, BuildingBlock: TATPOV_clean_sbu_0, # of connection points: 4
#     Node 8, Type 0, BuildingBlock: TATPOV_clean_sbu_0, # of connection points: 4
#     Node 9, Type 0, BuildingBlock: TATPOV_clean_sbu_0, # of connection points: 4
#     Node 10, Type 0, BuildingBlock: TATPOV_clean_sbu_0, # of connection points: 4
#     Node 11, Type 0, BuildingBlock: TATPOV_clean_sbu_0, # of connection points: 4
#     Node 12, Type 0, BuildingBlock: TATPOV_clean_sbu_0, # of connection points: 4
#     Node 13, Type 0, BuildingBlock: TATPOV_clean_sbu_0, # of connection points: 4
#     Node 14, Type 0, BuildingBlock: TATPOV_clean_sbu_0, # of connection points: 4
#     Node 15, Type 0, BuildingBlock: TATPOV_clean_sbu_0, # of connection points: 4
#     Node 16, Type 0, BuildingBlock: TATPOV_clean_sbu_0, # of connection points: 4
#     Node 17, Type 0, BuildingBlock: TATPOV_clean_sbu_0, # of connection points: 4
#     Node 18, Type 0, BuildingBlock: TATPOV_clean_sbu_0, # of connection points: 4
#     Node 19, Type 0, BuildingBlock: TATPOV_clean_sbu_0, # of connection points: 4
#     Node 20, Type 0, BuildingBlock: TATPOV_clean_sbu_0, # of connection points: 4
#     Node 21, Type 0, BuildingBlock: TATPOV_clean_sbu_0, # of connection points: 4
#     Node 22, Type 0, BuildingBlock: TATPOV_clean_sbu_0, # of connection points: 4
#     Node 23, Type 0, BuildingBlock: TATPOV_clean_sbu_0, # of connection points: 4
#     Node 24, Type 1, BuildingBlock: NUHQIS_clean_sbu_0, # of connection points: 6
#     Node 25, Type 1, BuildingBlock: NUHQIS_clean_sbu_0, # of connection points: 6
#     Node 26, Type 1, BuildingBlock: NUHQIS_clean_sbu_0, # of connection points: 6
#     Node 27, Type 1, BuildingBlock: NUHQIS_clean_sbu_0, # of connection points: 6
#     Node 28, Type 1, BuildingBlock: NUHQIS_clean_sbu_0, # of connection points: 6
#     Node 29, Type 1, BuildingBlock: NUHQIS_clean_sbu_0, # of connection points: 6
#     Node 30, Type 1, BuildingBlock: NUHQIS_clean_sbu_0, # of connection points: 6
#     Node 31, Type 1, BuildingBlock: NUHQIS_clean_sbu_0, # of connection points: 6
#     Node 32, Type 1, BuildingBlock: NUHQIS_clean_sbu_0, # of connection points: 6
#     Node 33, Type 1, BuildingBlock: NUHQIS_clean_sbu_0, # of connection points: 6
#     Node 34, Type 1, BuildingBlock: NUHQIS_clean_sbu_0, # of connection points: 6
#     Node 35, Type 1, BuildingBlock: NUHQIS_clean_sbu_0, # of connection points: 6
#     Node 36, Type 1, BuildingBlock: NUHQIS_clean_sbu_0, # of connection points: 6
#     Node 37, Type 1, BuildingBlock: NUHQIS_clean_sbu_0, # of connection points: 6
#     Node 38, Type 1, BuildingBlock: NUHQIS_clean_sbu_0, # of connection points: 6
#     Node 39, Type 1, BuildingBlock: NUHQIS_clean_sbu_0, # of connection points: 6
#     Edge 40, Type (0, 1), BuildingBlock: AJUNOK_clean_linker_0, # of connection points: 2
#     Edge 41, Type (0, 1), BuildingBlock: AJUNOK_clean_linker_0, # of connection points: 2
#     Edge 42, Type (0, 1), BuildingBlock: AJUNOK_clean_linker_0, # of connection points: 2
#     Edge 43, Type (0, 1), BuildingBlock: AJUNOK_clean_linker_0, # of connection points: 2
#     Edge 44, Type (0, 1), BuildingBlock: AJUNOK_clean_linker_0, # of connection points: 2
#     Edge 45, Type (0, 1), BuildingBlock: AJUNOK_clean_linker_0, # of connection points: 2
#     Edge 46, Type (0, 1), BuildingBlock: AJUNOK_clean_linker_0, # of connection points: 2
#     Edge 47, Type (0, 1), BuildingBlock: AJUNOK_clean_linker_0, # of connection points: 2
#     Edge 48, Type (0, 1), BuildingBlock: AJUNOK_clean_linker_0, # of connection points: 2
#     Edge 49, Type (0, 1), BuildingBlock: AJUNOK_clean_linker_0, # of connection points: 2
#     Edge 50, Type (0, 1), BuildingBlock: AJUNOK_clean_linker_0, # of connection points: 2
#     Edge 51, Type (0, 1), BuildingBlock: AJUNOK_clean_linker_0, # of connection points: 2
#     Edge 52, Type (0, 1), BuildingBlock: AJUNOK_clean_linker_0, # of connection points: 2
#     Edge 53, Type (0, 1), BuildingBlock: AJUNOK_clean_linker_0, # of connection points: 2
#     Edge 54, Type (0, 1), BuildingBlock: AJUNOK_clean_linker_0, # of connection points: 2
#     Edge 55, Type (0, 1), BuildingBlock: AJUNOK_clean_linker_0, # of connection points: 2
#     Edge 56, Type (0, 1), BuildingBlock: AJUNOK_clean_linker_0, # of connection points: 2
#     Edge 57, Type (0, 1), BuildingBlock: AJUNOK_clean_linker_0, # of connection points: 2
#     Edge 58, Type (0, 1), BuildingBlock: AJUNOK_clean_linker_0, # of connection points: 2
#     Edge 59, Type (0, 1), BuildingBlock: AJUNOK_clean_linker_0, # of connection points: 2
#     Edge 60, Type (0, 1), BuildingBlock: AJUNOK_clean_linker_0, # of connection points: 2
#     Edge 61, Type (0, 1), BuildingBlock: AJUNOK_clean_linker_0, # of connection points: 2
#     Edge 62, Type (0, 1), BuildingBlock: AJUNOK_clean_linker_0, # of connection points: 2
#     Edge 63, Type (0, 1), BuildingBlock: AJUNOK_clean_linker_0, # of connection points: 2
#     Edge 64, Type (0, 1), BuildingBlock: AJUNOK_clean_linker_0, # of connection points: 2
#     Edge 65, Type (0, 1), BuildingBlock: AJUNOK_clean_linker_0, # of connection points: 2
#     Edge 66, Type (0, 1), BuildingBlock: AJUNOK_clean_linker_0, # of connection points: 2
#     Edge 67, Type (0, 1), BuildingBlock: AJUNOK_clean_linker_0, # of connection points: 2
#     Edge 68, Type (0, 1), BuildingBlock: AJUNOK_clean_linker_0, # of connection points: 2
#     Edge 69, Type (0, 1), BuildingBlock: AJUNOK_clean_linker_0, # of connection points: 2
#     Edge 70, Type (0, 1), BuildingBlock: AJUNOK_clean_linker_0, # of connection points: 2
#     Edge 71, Type (0, 1), BuildingBlock: AJUNOK_clean_linker_0, # of connection points: 2
#     Edge 72, Type (0, 1), BuildingBlock: AJUNOK_clean_linker_0, # of connection points: 2
#     Edge 73, Type (0, 1), BuildingBlock: AJUNOK_clean_linker_0, # of connection points: 2
#     Edge 74, Type (0, 1), BuildingBlock: AJUNOK_clean_linker_0, # of connection points: 2
#     Edge 75, Type (0, 1), BuildingBlock: AJUNOK_clean_linker_0, # of connection points: 2
#     Edge 76, Type (0, 1), BuildingBlock: AJUNOK_clean_linker_0, # of connection points: 2
#     Edge 77, Type (0, 1), BuildingBlock: AJUNOK_clean_linker_0, # of connection points: 2
#     Edge 78, Type (0, 1), BuildingBlock: AJUNOK_clean_linker_0, # of connection points: 2
#     Edge 79, Type (0, 1), BuildingBlock: AJUNOK_clean_linker_0, # of connection points: 2
#     Edge 80, Type (0, 1), BuildingBlock: AJUNOK_clean_linker_0, # of connection points: 2
#     Edge 81, Type (0, 1), BuildingBlock: AJUNOK_clean_linker_0, # of connection points: 2
#     Edge 82, Type (0, 1), BuildingBlock: AJUNOK_clean_linker_0, # of connection points: 2
#     Edge 83, Type (0, 1), BuildingBlock: AJUNOK_clean_linker_0, # of connection points: 2
#     Edge 84, Type (0, 1), BuildingBlock: AJUNOK_clean_linker_0, # of connection points: 2
#     Edge 85, Type (0, 1), BuildingBlock: AJUNOK_clean_linker_0, # of connection points: 2
#     Edge 86, Type (0, 1), BuildingBlock: AJUNOK_clean_linker_0, # of connection points: 2
#     Edge 87, Type (0, 1), BuildingBlock: AJUNOK_clean_linker_0, # of connection points: 2
#     Edge 88, Type (0, 1), BuildingBlock: AJUNOK_clean_linker_0, # of connection points: 2
#     Edge 89, Type (0, 1), BuildingBlock: AJUNOK_clean_linker_0, # of connection points: 2
#     Edge 90, Type (0, 1), BuildingBlock: AJUNOK_clean_linker_0, # of connection points: 2
#     Edge 91, Type (0, 1), BuildingBlock: AJUNOK_clean_linker_0, # of connection points: 2
#     Edge 92, Type (0, 1), BuildingBlock: AJUNOK_clean_linker_0, # of connection points: 2
#     Edge 93, Type (0, 1), BuildingBlock: AJUNOK_clean_linker_0, # of connection points: 2
#     Edge 94, Type (0, 1), BuildingBlock: AJUNOK_clean_linker_0, # of connection points: 2
#     Edge 95, Type (0, 1), BuildingBlock: AJUNOK_clean_linker_0, # of connection points: 2
#     Edge 96, Type (0, 1), BuildingBlock: AJUNOK_clean_linker_0, # of connection points: 2
#     Edge 97, Type (0, 1), BuildingBlock: AJUNOK_clean_linker_0, # of connection points: 2
#     Edge 98, Type (0, 1), BuildingBlock: AJUNOK_clean_linker_0, # of connection points: 2
#     Edge 99, Type (0, 1), BuildingBlock: AJUNOK_clean_linker_0, # of connection points: 2
#     Edge 100, Type (0, 1), BuildingBlock: AJUNOK_clean_linker_0, # of connection points: 2
#     Edge 101, Type (0, 1), BuildingBlock: AJUNOK_clean_linker_0, # of connection points: 2
#     Edge 102, Type (0, 1), BuildingBlock: AJUNOK_clean_linker_0, # of connection points: 2
#     Edge 103, Type (0, 1), BuildingBlock: AJUNOK_clean_linker_0, # of connection points: 2
#     Edge 104, Type (0, 1), BuildingBlock: AJUNOK_clean_linker_0, # of connection points: 2
#     Edge 105, Type (0, 1), BuildingBlock: AJUNOK_clean_linker_0, # of connection points: 2
#     Edge 106, Type (0, 1), BuildingBlock: AJUNOK_clean_linker_0, # of connection points: 2
#     Edge 107, Type (0, 1), BuildingBlock: AJUNOK_clean_linker_0, # of connection points: 2
#     Edge 108, Type (0, 1), BuildingBlock: AJUNOK_clean_linker_0, # of connection points: 2
#     Edge 109, Type (0, 1), BuildingBlock: AJUNOK_clean_linker_0, # of connection points: 2
#     Edge 110, Type (0, 1), BuildingBlock: AJUNOK_clean_linker_0, # of connection points: 2
#     Edge 111, Type (0, 1), BuildingBlock: AJUNOK_clean_linker_0, # of connection points: 2
#     Edge 112, Type (0, 1), BuildingBlock: AJUNOK_clean_linker_0, # of connection points: 2
#     Edge 113, Type (0, 1), BuildingBlock: AJUNOK_clean_linker_0, # of connection points: 2
#     Edge 114, Type (0, 1), BuildingBlock: AJUNOK_clean_linker_0, # of connection points: 2
#     Edge 115, Type (0, 1), BuildingBlock: AJUNOK_clean_linker_0, # of connection points: 2
#     Edge 116, Type (0, 1), BuildingBlock: AJUNOK_clean_linker_0, # of connection points: 2
#     Edge 117, Type (0, 1), BuildingBlock: AJUNOK_clean_linker_0, # of connection points: 2
#     Edge 118, Type (0, 1), BuildingBlock: AJUNOK_clean_linker_0, # of connection points: 2
#     Edge 119, Type (0, 1), BuildingBlock: AJUNOK_clean_linker_0, # of connection points: 2
#     Edge 120, Type (0, 1), BuildingBlock: AJUNOK_clean_linker_0, # of connection points: 2
#     Edge 121, Type (0, 1), BuildingBlock: AJUNOK_clean_linker_0, # of connection points: 2
#     Edge 122, Type (0, 1), BuildingBlock: AJUNOK_clean_linker_0, # of connection points: 2
#     Edge 123, Type (0, 1), BuildingBlock: AJUNOK_clean_linker_0, # of connection points: 2
#     Edge 124, Type (0, 1), BuildingBlock: AJUNOK_clean_linker_0, # of connection points: 2
#     Edge 125, Type (0, 1), BuildingBlock: AJUNOK_clean_linker_0, # of connection points: 2
#     Edge 126, Type (0, 1), BuildingBlock: AJUNOK_clean_linker_0, # of connection points: 2
#     Edge 127, Type (0, 1), BuildingBlock: AJUNOK_clean_linker_0, # of connection points: 2
#     Edge 128, Type (0, 1), BuildingBlock: AJUNOK_clean_linker_0, # of connection points: 2
#     Edge 129, Type (0, 1), BuildingBlock: AJUNOK_clean_linker_0, # of connection points: 2
#     Edge 130, Type (0, 1), BuildingBlock: AJUNOK_clean_linker_0, # of connection points: 2
#     Edge 131, Type (0, 1), BuildingBlock: AJUNOK_clean_linker_0, # of connection points: 2
#     Edge 132, Type (0, 1), BuildingBlock: AJUNOK_clean_linker_0, # of connection points: 2
#     Edge 133, Type (0, 1), BuildingBlock: AJUNOK_clean_linker_0, # of connection points: 2
#     Edge 134, Type (0, 1), BuildingBlock: AJUNOK_clean_linker_0, # of connection points: 2
#     Edge 135, Type (0, 1), BuildingBlock: AJUNOK_clean_linker_0, # of connection points: 2
# Relax obj value: 0.310
# Max RMSD: 0.383
# Mean RMSD: 0.171
data_MOF--net-gar--node1-TATPOV_clean_sbu_0--node2-NUHQIS_clean_sbu_0--edge1-AJUNOK_clean_linker_0
_symmetry_space_group_name_H-M    P1
_symmetry_Int_Tables_number       1
_symmetry_cell_setting            triclinic
loop_
_symmetry_equiv_pos_as_xyz
'x, y, z'
_cell_length_a     43.226183
_cell_length_b     45.553107
_cell_length_c     42.816917
_cell_angle_alpha  93.036989
_cell_angle_beta   98.132215
_cell_angle_gamma 103.46396
loop_
_atom_site_label
_atom_site_type_symbol
_atom_site_fract_x
_atom_site_fract_y
_atom_site_fract_z
_atom_type_partial_charge
Zn0 Zn 0.06438 0.31627 0.45814 0.0
Zn1 Zn 0.10445 0.32022 0.41569 0.0
O2 O 0.1106 0.36907 0.44211 0.0
O3 O 0.08043 0.36128 0.47956 0.0
O4 O 0.14495 0.31978 0.38374 0.0
O5 O 0.07219 0.2766 0.47814 0.0
O6 O 0.10193 0.27441 0.44124 0.0
C7 C 0.09886 0.38035 0.46548 0.0
C8 C 1.02813 0.31267 0.39276 0.0
O9 O 0.05667 0.31615 0.3849 0.0
O10 O 1.02542 0.31064 0.4218 0.0
C11 C 0.17309 0.3378 0.38198 0.0
O12 O 0.18191 0.36257 0.40146 0.0
C13 C 0.08857 0.26152 0.46439 0.0
Zn14 Zn 0.07508 0.78282 0.69217 0.0
Zn15 Zn 0.08284 0.82643 0.65501 0.0
O16 O 1.03857 0.82656 0.68177 0.0
O17 O 1.03538 0.78802 0.7107 0.0
O18 O 0.0865 0.87128 0.6261 0.0
O19 O 0.1197 0.79672 0.71823 0.0
O20 O 0.13155 0.8328 0.68685 0.0
C21 C 1.02385 0.80991 0.70186 0.0
C22 C 0.07663 0.75055 0.6331 0.0
O23 O 0.07976 0.77865 0.625 0.0
O24 O 0.07231 0.74641 0.66134 0.0
C25 C 0.08738 0.8995 0.63619 0.0
O26 O 0.08639 0.90412 0.66653 0.0
C27 C 0.14088 0.81781 0.70999 0.0
Zn28 Zn 0.56712 0.81727 0.95488 0.0
Zn29 Zn 0.60926 0.82304 0.91489 0.0
O30 O 0.6123 0.87106 0.94121 0.0
O31 O 0.58035 0.86193 0.97693 0.0
O32 O 0.65313 0.82855 0.88693 0.0
O33 O 0.5752 0.7778 0.97493 0.0
O34 O 0.60713 0.77689 0.93975 0.0
C35 C 0.599 0.88162 0.96371 0.0
C36 C 0.53406 0.81415 0.8885 0.0
O37 O 0.56315 0.81838 0.882 0.0
O38 O 0.52983 0.8114 0.91707 0.0
C39 C 0.66345 0.80869 0.87052 0.0
O40 O 0.64643 0.78051 0.86826 0.0
C41 C 0.59283 0.76344 0.96212 0.0
Zn42 Zn 0.57054 0.28228 0.18956 0.0
Zn43 Zn 0.57851 0.32698 0.15236 0.0
O44 O 0.53453 0.32711 0.17976 0.0
O45 O 0.52974 0.28733 0.2071 0.0
O46 O 0.58212 0.37156 0.12295 0.0
O47 O 0.61547 0.29775 0.21587 0.0
O48 O 0.62695 0.33406 0.1846 0.0
C49 C 0.51915 0.31007 0.19923 0.0
C50 C 0.57315 0.25109 0.12986 0.0
O51 O 0.57589 0.27931 0.1222 0.0
O52 O 0.56891 0.24643 0.15804 0.0
C53 C 0.58402 0.40009 0.13277 0.0
O54 O 0.5842 0.40535 0.16326 0.0
C55 C 0.63635 0.31943 0.20802 0.0
Zn56 Zn 0.24026 0.92079 0.15897 0.0
Zn57 Zn 0.1923 0.9013 0.19501 0.0
O58 O 0.1768 0.93281 0.17165 0.0
O59 O 0.2111 0.94691 0.13868 0.0
O60 O 0.15688 0.88599 0.21894 0.0
O61 O 0.23242 0.87632 0.14084 0.0
O62 O 0.19213 0.86448 0.16784 0.0
C63 C 0.18536 0.94813 0.14917 0.0
C64 C 0.26072 0.92705 0.22792 0.0
O65 O 0.2313 0.91449 0.22799 0.0
O66 O 0.27038 0.93384 0.20194 0.0
C67 C 0.14911 0.90338 0.2389 0.0
O68 O 0.16592 0.93165 0.24466 0.0
C69 C 0.20906 0.85697 0.14836 0.0
Zn70 Zn 0.46095 0.71332 0.44086 0.0
Zn71 Zn 0.5088 0.72784 0.40446 0.0
O72 O 0.50434 0.76843 0.42051 0.0
O73 O 0.4657 0.75868 0.44967 0.0
O74 O 0.54359 0.73787 0.37863 0.0
O75 O 0.49251 0.69467 0.46978 0.0
O76 O 0.52871 0.70637 0.43828 0.0
C77 C 0.48627 0.77756 0.43779 0.0
C78 C 0.44089 0.69658 0.37269 0.0
O79 O 0.47074 0.70692 0.37233 0.0
O80 O 0.43067 0.69449 0.39909 0.0
C81 C 0.54277 0.75486 0.35618 0.0
O82 O 0.51785 0.76662 0.3495 0.0
C83 C 0.52054 0.69571 0.46343 0.0
Zn84 Zn 0.73916 0.4217 0.65792 0.0
Zn85 Zn 0.68171 0.39798 0.6797 0.0
O86 O 0.67303 0.43268 0.65718 0.0
O87 O 0.71708 0.4528 0.63822 0.0
O88 O 0.64132 0.38367 0.69732 0.0
O89 O 0.73164 0.37977 0.63384 0.0
O90 O 0.68497 0.36381 0.65037 0.0
C91 C 0.68817 0.45212 0.6413 0.0
C92 C 0.74514 0.41816 0.72573 0.0
O93 O 0.71517 0.40638 0.7186 0.0
O94 O 0.76124 0.42798 0.70425 0.0
C95 C 0.63369 0.40362 0.71447 0.0
O96 O 0.65263 0.43108 0.71921 0.0
C97 C 0.70608 0.35936 0.63404 0.0
Zn98 Zn 0.99253 0.23861 0.96156 0.0
Zn99 Zn 1.03566 0.24058 0.91955 0.0
O100 O 0.04557 0.28456 0.93399 0.0
O101 O 1.01075 0.28468 0.96695 0.0
O102 O 0.06502 0.23781 0.8885 0.0
O103 O 1.01696 0.21139 0.98743 0.0
O104 O 0.04991 0.21542 0.95249 0.0
C105 C 1.03261 0.29889 0.95254 0.0
C106 C 0.96263 0.22523 0.89661 0.0
O107 O 0.99199 0.22947 0.89357 0.0
O108 O 0.95482 0.22486 0.9241 0.0
C109 C 0.05626 0.22713 0.85979 0.0
O110 O 1.0256 0.2173 0.84807 0.0
C111 C 0.04171 0.20577 0.97799 0.0
Zn112 Zn 0.61317 0.14107 0.37987 0.0
Zn113 Zn 0.54958 0.14667 0.34038 0.0
O114 O 0.55264 0.17551 0.37938 0.0
O115 O 0.60347 0.18266 0.38306 0.0
O116 O 0.51021 0.1507 0.3108 0.0
O117 O 0.62923 0.13993 0.33855 0.0
O118 O 0.58662 0.15343 0.31398 0.0
C119 C 0.57977 0.18243 0.39703 0.0
C120 C 0.55376 0.0889 0.37295 0.0
O121 O 0.53969 0.10367 0.35345 0.0
O122 O 0.58205 0.10064 0.38774 0.0
C123 C 0.48311 0.13139 0.30609 0.0
O124 O 0.47966 0.10665 0.32099 0.0
C125 C 0.6147 0.14871 0.31426 0.0
Zn126 Zn 0.3257 0.23571 0.52799 0.0
Zn127 Zn 0.36548 0.20098 0.53494 0.0
O128 O 0.36792 0.2254 0.48746 0.0
O129 O 0.33559 0.25611 0.48774 0.0
O130 O 0.40898 0.17765 0.54093 0.0
O131 O 0.33681 0.25905 0.57135 0.0
O132 O 0.36848 0.22858 0.58302 0.0
C133 C 0.35511 0.24576 0.47354 0.0
C134 C 0.28877 0.17327 0.53029 0.0
O135 O 0.3172 0.16773 0.5328 0.0
O136 O 0.28655 0.20018 0.52656 0.0
C137 C 0.41263 0.1509 0.53172 0.0
O138 O 0.38695 0.13178 0.51586 0.0
C139 C 0.35472 0.24945 0.5924 0.0
Zn140 Zn 0.19589 0.15305 0.89833 0.0
Zn141 Zn 0.2227 0.11132 0.87131 0.0
O142 O 0.21407 0.09533 0.91316 0.0
O143 O 0.19844 0.13158 0.93805 0.0
O144 O 0.2461 0.08273 0.85391 0.0
O145 O 0.15696 0.13677 0.86364 0.0
O146 O 0.18074 0.10489 0.84192 0.0
C147 C 0.20523 0.10602 0.9374 0.0
C148 C 0.2543 0.18012 0.87697 0.0
O149 O 0.25299 0.15249 0.86904 0.0
O150 O 0.23258 0.18705 0.8907 0.0
C151 C 0.26924 0.07699 0.87239 0.0
O152 O 0.27671 0.09008 0.90145 0.0
C153 C 0.15646 0.11614 0.84235 0.0
Zn154 Zn 0.3998 0.8723 0.05338 0.0
Zn155 Zn 0.35846 0.90733 0.05666 0.0
O156 O 0.34559 0.88672 1.00945 0.0
O157 O 0.37767 0.8557 1.00838 0.0
O158 O 0.32713 0.9342 0.06229 0.0
O159 O 0.38913 0.85187 0.09292 0.0
O160 O 0.35593 0.8814 0.0961 0.0
C161 C 0.35588 0.86691 0.99422 0.0
C162 C 0.43051 0.93661 0.06206 0.0
O163 O 0.40162 0.93891 0.06133 0.0
O164 O 0.43626 0.91062 0.05929 0.0
C165 C 0.33075 0.94982 0.08877 0.0
O166 O 0.35373 0.94723 0.1113 0.0
C167 C 0.36949 0.86136 0.10774 0.0
Zn168 Zn 0.35336 0.41099 0.03919 0.0
Zn169 Zn 0.31333 0.44728 0.03725 0.0
O170 O 0.30796 0.42096 0.9879 0.0
O171 O 0.3397 0.38959 0.99444 0.0
O172 O 0.27299 0.47472 0.03365 0.0
O173 O 0.3434 0.39056 0.07995 0.0
O174 O 0.31186 0.42167 0.0837 0.0
C175 C 0.32045 0.40026 0.97581 0.0
C176 C 0.39064 0.47383 0.04009 0.0
O177 O 0.36242 0.47945 0.03988 0.0
O178 O 0.39277 0.44656 0.0408 0.0
C179 C 0.25157 0.47763 0.05175 0.0
O180 O 0.25168 0.4627 0.07717 0.0
C181 C 0.32497 0.40076 0.09594 0.0
Zn182 Zn 0.79474 0.26899 0.03935 0.0
Zn183 Zn 0.83009 0.22867 0.04213 0.0
O184 O 0.83674 0.25019 1.0004 0.0
O185 O 0.81192 0.2872 1.00121 0.0
O186 O 0.86058 0.20062 0.0432 0.0
O187 O 0.81333 0.2869 0.08447 0.0
O188 O 0.84101 0.25202 0.08795 0.0
C189 C 0.82856 0.27256 0.98761 0.0
C190 C 0.75789 0.20534 0.03039 0.0
O191 O 0.78553 0.19962 0.03541 0.0
O192 O 0.75557 0.23263 0.0309 0.0
C193 C 0.85695 0.18036 0.0204 0.0
O194 O 0.83343 0.17828 0.9967 0.0
C195 C 0.83247 0.27428 0.10079 0.0
Zn196 Zn 0.0566 0.50049 0.22129 0.0
Zn197 Zn 0.13927 0.47996 0.23624 0.0
O198 O 0.11605 0.45941 0.2709 0.0
O199 O 0.0762 0.46577 0.23841 0.0
O200 O 0.18669 0.48412 0.24905 0.0
O201 O 0.08281 0.47077 0.20738 0.0
O202 O 0.12341 0.46087 0.18987 0.0
C203 C 0.08786 0.46356 0.2669 0.0
C204 C 0.12019 0.54648 0.23702 0.0
O205 O 0.13374 0.52422 0.23811 0.0
O206 O 0.08952 0.54228 0.2307 0.0
C207 C 0.19893 0.49386 0.27758 0.0
O208 O 0.18012 0.49977 0.29735 0.0
C209 C 0.0955 0.46543 0.18336 0.0
Zn210 Zn 0.85434 0.91157 0.54058 0.0
Zn211 Zn 0.81116 0.9448 0.53683 0.0
O212 O 0.80725 0.91771 0.48804 0.0
O213 O 0.84259 0.88994 0.49592 0.0
O214 O 0.76697 0.96783 0.53233 0.0
O215 O 0.8445 0.89065 0.58103 0.0
O216 O 0.81087 0.91989 0.58362 0.0
C217 C 0.82198 0.89843 0.47671 0.0
C218 C 0.88847 0.9751 0.54108 0.0
O219 O 0.85934 0.97904 0.53936 0.0
O220 O 0.89239 0.94849 0.54307 0.0
C221 C 0.75533 0.98296 0.5529 0.0
O222 O 0.77099 0.98727 0.58203 0.0
C223 C 0.82508 0.89995 0.59642 0.0
Zn224 Zn 0.92855 0.97958 0.18146 0.0
Zn225 Zn 0.90601 0.02385 0.19354 0.0
O226 O 0.92819 0.02092 0.23764 0.0
O227 O 0.93558 0.97532 0.22858 0.0
O228 O 0.88347 0.05681 0.19911 0.0
O229 O 0.96556 1.00426 0.16498 0.0
O230 O 0.9409 0.04132 0.1668 0.0
C231 C 0.93673 0.99781 0.24782 0.0
C232 C 0.86626 0.95921 0.16728 0.0
O233 O 0.8701 0.98477 0.18276 0.0
O234 O 0.88903 0.95473 0.15363 0.0
C235 C 0.86068 0.05329 0.21533 0.0
O236 O 0.85132 0.02718 0.22705 0.0
C237 C 0.96467 0.03124 0.1606 0.0
Zn238 Zn 0.29098 0.77191 0.53442 0.0
Zn239 Zn 0.33125 0.73486 0.53871 0.0
O240 O 0.34096 0.75824 0.49943 0.0
O241 O 0.31044 0.79079 0.49703 0.0
O242 O 0.36192 0.70753 0.54087 0.0
O243 O 0.30956 0.78928 0.58041 0.0
O244 O 0.34132 0.75783 0.58379 0.0
C245 C 0.33123 0.77951 0.48594 0.0
C246 C 0.25858 0.70724 0.52541 0.0
O247 O 0.28743 0.70446 0.53068 0.0
O248 O 0.25328 0.73352 0.52529 0.0
C249 C 0.36216 0.69004 0.51678 0.0
O250 O 0.34243 0.69046 0.49058 0.0
C251 C 0.33072 0.77868 0.59657 0.0
Zn252 Zn 0.45169 0.47317 0.6812 0.0
Zn253 Zn 0.43058 0.52017 0.69919 0.0
O254 O 0.45048 0.50939 0.74127 0.0
O255 O 0.45752 0.46442 0.72741 0.0
O256 O 0.41105 0.5546 0.71043 0.0
O257 O 0.48872 0.5005 0.66616 0.0
O258 O 0.46541 0.538 0.67309 0.0
C259 C 0.45758 0.4848 0.74877 0.0
C260 C 0.38688 0.46021 0.66581 0.0
O261 O 0.39239 0.48493 0.6832 0.0
O262 O 0.40955 0.45429 0.65287 0.0
C263 C 0.39375 0.55177 0.73227 0.0
O264 O 0.38863 0.52628 0.74588 0.0
C265 C 0.48827 0.52799 0.66434 0.0
Zn266 Zn 0.54163 0.98917 0.7252 0.0
Zn267 Zn 0.61889 0.96443 0.74902 0.0
O268 O 0.59107 0.94725 0.78183 0.0
O269 O 0.55353 0.95196 0.74535 0.0
O270 O 0.66361 0.95997 0.76259 0.0
O271 O 0.55886 0.95191 0.71292 0.0
O272 O 0.60468 0.94686 0.70291 0.0
C273 C 0.56222 0.94909 0.77444 0.0
C274 C 0.6091 0.03264 0.74378 0.0
O275 O 0.62258 1.0107 0.74904 0.0
O276 O 0.57878 0.0283 0.73447 0.0
C277 C 0.68184 0.97643 0.78609 0.0
O278 O 0.67053 0.9958 0.80219 0.0
C279 C 0.57751 0.95154 0.69252 0.0
Zn280 Zn 0.82994 0.73716 0.02745 0.0
Zn281 Zn 0.8675 0.70076 0.03347 0.0
O282 O 0.8705 0.72505 0.9864 0.0
O283 O 0.83955 0.75701 0.98697 0.0
O284 O 0.91032 0.67703 0.03926 0.0
O285 O 0.84182 0.7607 0.07066 0.0
O286 O 0.87001 0.72725 0.08199 0.0
C287 C 0.8584 0.74582 0.97263 0.0
C288 C 0.79118 0.67494 0.02901 0.0
O289 O 0.81899 0.66825 0.03057 0.0
O290 O 0.79014 0.70232 0.0264 0.0
C291 C 0.91622 0.65368 0.02413 0.0
O292 O 0.89374 0.63914 1.00095 0.0
C293 C 0.85771 0.74907 0.09164 0.0
Zn294 Zn 0.12206 0.63346 0.84827 0.0
Zn295 Zn 0.07033 0.65371 0.83065 0.0
O296 O 0.08573 0.67133 0.87742 0.0
O297 O 0.13118 0.65764 0.88956 0.0
O298 O 1.02898 0.66676 0.81714 0.0
O299 O 0.14275 0.65262 0.81384 0.0
O300 O 0.10036 0.67036 0.7985 0.0
C301 C 0.11083 0.67144 0.89724 0.0
C302 C 0.06568 0.58502 0.83341 0.0
O303 O 0.05332 0.60721 0.82701 0.0
O304 O 0.09557 0.58989 0.84354 0.0
C305 C 1.00958 0.65281 0.79286 0.0
O306 O 1.01814 0.63188 0.77614 0.0
C307 C 0.12875 0.66816 0.79567 0.0
Zn308 Zn 0.88718 0.37647 0.55383 0.0
Zn309 Zn 0.85208 0.41626 0.55729 0.0
O310 O 0.83736 0.39507 0.50996 0.0
O311 O 0.86472 0.35992 0.50946 0.0
O312 O 0.82391 0.44655 0.56224 0.0
O313 O 0.87475 0.35627 0.59277 0.0
O314 O 0.84768 0.39107 0.59792 0.0
C315 C 0.84493 0.37318 0.49513 0.0
C316 C 0.92472 0.43914 0.56089 0.0
O317 O 0.89721 0.44483 0.56051 0.0
O318 O 0.92689 0.41182 0.55873 0.0
C319 C 0.83252 0.46711 0.58535 0.0
O320 O 0.85856 0.46748 0.60551 0.0
C321 C 0.85786 0.36864 0.60861 0.0
Zn322 Zn 0.69158 0.65606 0.38347 0.0
Zn323 Zn 0.71641 0.61023 0.36581 0.0
O324 O 0.71278 0.60149 0.41145 0.0
O325 O 0.69503 0.64093 0.42565 0.0
O326 O 0.73682 0.57861 0.34977 0.0
O327 O 0.65137 0.63896 0.35224 0.0
O328 O 0.67242 0.60173 0.33802 0.0
C329 C 0.70406 0.61723 0.43239 0.0
C330 C 0.75068 0.67753 0.36315 0.0
O331 O 0.74869 0.64925 0.35895 0.0
O332 O 0.72843 0.68705 0.37332 0.0
C333 C 0.7653 0.5789 0.36241 0.0
O334 O 0.77956 0.59902 0.38632 0.0
C335 C 0.64904 0.61454 0.33557 0.0
Tb336 Tb 0.07256 0.0623 0.05276 0.0
Eu337 Eu 0.14305 0.09382 0.09928 0.0
C338 C 0.13644 0.05753 0.03091 0.0
C339 C 0.10683 0.02565 0.10016 0.0
C340 C 0.99021 0.06403 0.02592 0.0
C341 C 0.93489 0.06895 0.01879 0.0
C342 C 0.95703 0.05072 0.02036 0.0
C343 C 1.00096 0.09578 0.02993 0.0
C344 C 0.97893 0.11395 0.02846 0.0
C345 C 0.94563 0.10078 0.02286 0.0
C346 C 1.01388 0.04529 0.02957 0.0
O347 O 0.07194 0.09847 0.0877 0.0
O348 O 0.10733 0.09789 0.13123 0.0
O349 O 0.12707 0.13209 0.07469 0.0
O350 O 0.0906 0.10395 0.03256 0.0
C351 C 0.07799 0.09754 0.11826 0.0
O352 O 0.1788 0.09705 0.14182 0.0
O353 O 0.19346 0.11746 0.10021 0.0
O354 O 0.14886 0.06082 0.06096 0.0
O355 O 0.10631 0.05787 0.02125 0.0
O356 O 0.09098 0.02504 0.07158 0.0
O357 O 0.11881 0.05105 0.1178 0.0
C358 C 0.10865 0.12972 0.04682 0.0
O359 O 1.03686 0.05164 1.01239 0.0
O360 O 1.02512 0.0422 0.05889 0.0
C361 C 0.22515 0.08597 0.12426 0.0
C362 C 0.25894 0.04086 0.113 0.0
C363 C 0.24204 0.0402 0.1388 0.0
C364 C 0.22524 0.06238 0.14429 0.0
C365 C 0.24342 0.08733 0.09938 0.0
C366 C 0.2599 0.06496 0.0937 0.0
C367 C 0.20276 0.10628 0.12641 0.0
H368 H 0.90937 0.05816 1.015 0.0
H369 H 0.94828 0.02628 0.01765 0.0
H370 H 1.02648 0.10655 0.03458 0.0
H371 H 0.98794 0.13837 0.0316 0.0
H372 H 0.24098 0.02195 0.15415 0.0
H373 H 0.21143 0.06043 0.16363 0.0
H374 H 0.24417 0.10518 0.08357 0.0
H375 H 0.2733 0.06644 0.07405 0.0
Tb376 Tb 0.39227 0.83349 0.30691 0.0
Eu377 Eu 0.31646 0.79367 0.28674 0.0
C378 C 0.33534 0.86599 0.30094 0.0
C379 C 0.35142 0.8055 0.35773 0.0
C380 C 0.46251 0.89878 0.33639 0.0
C381 C 0.46969 0.95242 0.32905 0.0
C382 C 0.45545 0.92207 0.31854 0.0
C383 C 0.48355 0.90657 0.36535 0.0
C384 C 0.49764 0.93705 0.37602 0.0
C385 C 0.49115 0.96042 0.35785 0.0
C386 C 0.44861 0.86648 0.32489 0.0
O387 O 0.39531 0.78664 0.30867 0.0
O388 O 0.34568 0.75921 0.28214 0.0
O389 O 0.33075 0.82037 0.24605 0.0
O390 O 0.38447 0.82208 0.25534 0.0
C391 C 0.37529 0.76103 0.29592 0.0
O392 O 0.27825 0.76861 0.24985 0.0
O393 O 0.26773 0.77599 0.29734 0.0
O394 O 0.31528 0.84059 0.30548 0.0
O395 O 0.36478 0.86675 0.29604 0.0
O396 O 0.36864 0.83075 0.34923 0.0
O397 O 0.33384 0.7843 0.33637 0.0
C398 C 0.35868 0.82465 0.23622 0.0
O399 O 0.4319 0.84986 0.34338 0.0
O400 O 0.4348 0.86058 0.29543 0.0
C401 C 0.23815 0.73066 0.26642 0.0
C402 C 0.2003 0.67037 0.25836 0.0
C403 C 0.23297 0.67675 0.25464 0.0
C404 C 0.25177 0.70657 0.25886 0.0
C405 C 0.20561 0.72443 0.27011 0.0
C406 C 0.18685 0.69457 0.26615 0.0
C407 C 0.25701 0.76239 0.26891 0.0
H408 H 0.46436 0.96965 0.31413 0.0
H409 H 0.43921 0.91691 0.29619 0.0
H410 H 0.48922 0.88905 0.37968 0.0
H411 H 0.51356 0.9422 0.3985 0.0
H412 H 0.24389 0.65874 0.24791 0.0
H413 H 0.27682 0.71083 0.25573 0.0
H414 H 0.19462 0.74271 0.27579 0.0
H415 H 0.16182 0.6904 0.26929 0.0
Tb416 Tb 0.56235 0.0426 0.52064 0.0
Eu417 Eu 0.60825 0.09507 0.57032 0.0
C418 C 0.57361 0.03192 0.59308 0.0
C419 C 0.5321 0.09762 0.54693 0.0
C420 C 0.51943 0.97035 0.4728 0.0
C421 C 0.5368 0.92376 0.47607 0.0
C422 C 0.54342 0.95512 0.48195 0.0
C423 C 0.48886 0.95415 0.45777 0.0
C424 C 0.48217 0.92275 0.45201 0.0
C425 C 0.50607 0.90734 0.46126 0.0
C426 C 0.52507 1.00278 0.48082 0.0
O427 O 0.56697 0.08314 0.49629 0.0
O428 O 0.61413 0.1125 0.52314 0.0
O429 O 0.63875 0.05991 0.56551 0.0
O430 O 0.61137 0.03222 0.51981 0.0
C431 C 0.59067 0.10728 0.49925 0.0
O432 O 0.65714 0.12086 0.58798 0.0
O433 O 0.61783 0.12875 0.61087 0.0
O434 O 0.58471 0.06103 0.60066 0.0
O435 O 0.56708 1.01997 0.5637 0.0
O436 O 0.52772 0.06889 0.53546 0.0
O437 O 0.56177 0.11306 0.5593 0.0
C438 C 0.63754 0.0392 0.54215 0.0
O439 O 0.51865 1.01015 0.50859 0.0
O440 O 0.55218 1.01974 0.47514 0.0
C441 C 0.65973 0.17041 0.60589 0.0
C442 C 0.68151 0.23255 0.60093 0.0
C443 C 0.65789 0.21458 0.57728 0.0
C444 C 0.64711 0.18362 0.5797 0.0
C445 C 0.68388 0.18804 0.62907 0.0
C446 C 0.6947 0.21902 0.62666 0.0
C447 C 0.64824 0.13809 0.60843 0.0
H448 H 0.55553 0.91224 0.4835 0.0
H449 H 0.56703 0.9674 0.49398 0.0
H450 H 0.47013 0.96578 0.45072 0.0
H451 H 0.45854 0.91058 0.43995 0.0
H452 H 0.64727 0.22463 0.55739 0.0
H453 H 0.62861 0.17006 0.56144 0.0
H454 H 0.69393 0.17795 0.64922 0.0
H455 H 0.71237 0.23259 0.64559 0.0
Tb456 Tb 0.29951 0.32031 0.77057 0.0
Eu457 Eu 0.37453 0.33232 0.79686 0.0
C458 C 0.34622 0.37303 0.74723 0.0
C459 C 0.34593 0.29824 0.72535 0.0
C460 C 0.21191 0.29393 0.76355 0.0
C461 C 0.15887 0.25979 0.75703 0.0
C462 C 0.18485 0.27572 0.74386 0.0
C463 C 0.2129 0.29615 0.79645 0.0
C464 C 0.18692 0.28061 0.80954 0.0
C465 C 0.15986 0.26196 0.79002 0.0
C466 C 0.24002 0.30876 0.75002 0.0
O467 O 0.30612 0.27836 0.78897 0.0
O468 O 0.35016 0.29768 0.82642 0.0
O469 O 0.35492 0.36016 0.83263 0.0
O470 O 0.30191 0.33487 0.82227 0.0
C471 C 0.32453 0.27636 0.81533 0.0
O472 O 0.41809 0.31714 0.81157 0.0
O473 O 0.41925 0.36525 0.81587 0.0
O474 O 0.3698 0.3601 0.75546 0.0
O475 O 0.31952 0.36573 0.75895 0.0
O476 O 0.32035 0.30921 0.72774 0.0
O477 O 0.36783 0.30018 0.75099 0.0
C478 C 0.32615 0.35366 0.84153 0.0
O479 O 0.25659 0.33479 0.76436 0.0
O480 O 0.2585 0.29119 0.74363 0.0
C481 C 0.46507 0.35187 0.80307 0.0
C482 C 0.5199 0.3694 0.77415 0.0
C483 C 0.52106 0.37829 0.80628 0.0
C484 C 0.49373 0.36959 0.82065 0.0
C485 C 0.46387 0.34278 0.77101 0.0
C486 C 0.49123 0.35135 0.75668 0.0
C487 C 0.43603 0.34481 0.81772 0.0
H488 H 0.13815 0.24568 0.74155 0.0
H489 H 0.18401 0.27356 0.71841 0.0
H490 H 0.23377 0.30984 0.81205 0.0
H491 H 0.18788 0.28353 0.83496 0.0
H492 H 0.54308 0.39193 0.82024 0.0
H493 H 0.49483 0.37701 0.84534 0.0
H494 H 0.44171 0.32944 0.757 0.0
H495 H 0.48985 0.34438 0.73183 0.0
Tb496 Tb 0.08767 0.06091 0.50877 0.0
Eu497 Eu 0.09091 0.09289 0.57546 0.0
C498 C 0.15674 0.10007 0.54264 0.0
C499 C 0.09296 1.01947 0.57036 0.0
C500 C 0.05909 0.02612 0.42642 0.0
C501 C 0.04321 1.00599 0.37167 0.0
C502 C 0.0664 1.01342 0.39879 0.0
C503 C 1.02834 0.03108 0.427 0.0
C504 C 1.00508 0.02358 0.39987 0.0
C505 C 1.01238 1.01101 0.372 0.0
C506 C 0.08388 0.03455 0.45433 0.0
O507 O 1.03516 0.05215 0.51282 0.0
O508 O 0.03891 0.06446 0.56569 0.0
O509 O 0.08465 0.13156 0.54386 0.0
O510 O 0.08761 0.10934 0.49596 0.0
C511 C 1.02132 0.05179 0.53863 0.0
O512 O 0.07007 0.11986 0.60626 0.0
O513 O 0.11546 0.10866 0.62329 0.0
O514 O 0.14144 0.11148 0.56297 0.0
O515 O 0.1408 0.07622 0.5232 0.0
O516 O 0.0914 0.02187 0.53925 0.0
O517 O 0.09452 0.0444 0.58882 0.0
C518 C 0.08636 0.13417 0.51348 0.0
O519 O 0.09548 0.06342 0.46157 0.0
O520 O 0.07742 0.02057 0.4791 0.0
C521 C 0.08245 0.11538 0.6607 0.0
C522 C 0.07733 0.10459 0.72366 0.0
C523 C 0.0688 0.08027 0.69994 0.0
C524 C 0.07149 0.08565 0.66851 0.0
C525 C 0.08733 0.13976 0.68352 0.0
C526 C 0.08476 0.13444 0.71485 0.0
C527 C 0.09279 0.12133 0.63024 0.0
H528 H 0.04966 0.99705 0.3502 0.0
H529 H 0.09015 1.00966 0.39808 0.0
H530 H 1.02248 0.04099 0.44827 0.0
H531 H 0.98151 0.02777 0.40056 0.0
H532 H 0.06295 0.05709 0.70613 0.0
H533 H 0.06733 0.06663 0.65085 0.0
H534 H 0.09561 0.16283 0.67763 0.0
H535 H 0.09206 0.15367 0.73252 0.0
Tb536 Tb 0.3308 0.78873 0.79795 0.0
Eu537 Eu 0.35514 0.86078 0.79117 0.0
C538 C 0.33401 0.83669 0.85629 0.0
C539 C 0.27863 0.8261 0.77121 0.0
C540 C 0.32306 0.70526 0.79124 0.0
C541 C 0.32239 0.66478 0.75141 0.0
C542 C 0.31175 0.69012 0.7608 0.0
C543 C 0.34495 0.69426 0.81215 0.0
C544 C 0.35563 0.66899 0.80272 0.0
C545 C 0.34436 0.65392 0.77231 0.0
C546 C 0.31194 0.73219 0.80127 0.0
O547 O 0.33892 0.79025 0.74873 0.0
O548 O 0.36497 0.83998 0.74591 0.0
O549 O 0.40107 0.8469 0.81242 0.0
O550 O 0.38393 0.79498 0.80713 0.0
C551 C 0.35313 0.81212 0.73296 0.0
O552 O 0.35426 0.90136 0.76642 0.0
O553 O 0.38578 0.90476 0.81097 0.0
O554 O 0.33378 0.85789 0.8367 0.0
O555 O 0.33623 0.80961 0.84625 0.0
O556 O 0.28527 0.80426 0.78843 0.0
O557 O 0.30236 0.84873 0.76659 0.0
C558 C 0.40721 0.81997 0.81536 0.0
O559 O 0.33063 0.75086 0.82398 0.0
O560 O 0.30025 0.74672 0.77896 0.0
C561 C 0.35983 0.94378 0.80185 0.0
C562 C 0.33397 0.98956 0.82614 0.0
C563 C 0.35837 0.99666 0.80733 0.0
C564 C 0.37143 0.97384 0.7954 0.0
C565 C 0.33513 0.93668 0.8202 0.0
C566 C 0.3224 0.95941 0.8324 0.0
C567 C 0.37301 0.91953 0.78952 0.0
H568 H 0.31323 0.6535 0.72788 0.0
H569 H 0.29468 0.69783 0.74418 0.0
H570 H 0.35404 0.70528 0.8358 0.0
H571 H 0.37303 0.66145 0.81912 0.0
H572 H 0.36745 1.01983 0.80215 0.0
H573 H 0.39043 0.9796 0.78114 0.0
H574 H 0.3256 0.91348 0.82497 0.0
H575 H 0.3032 0.9534 0.84638 0.0
Tb576 Tb 0.61292 0.06906 0.06411 0.0
Eu577 Eu 0.56801 0.0765 1.00124 0.0
C578 C 0.59762 1.01302 1.00909 0.0
C579 C 0.64148 0.10763 1.01463 0.0
C580 C 0.6611 0.09092 0.14295 0.0
C581 C 0.66635 0.09557 0.20003 0.0
C582 C 0.6662 0.07865 0.17193 0.0
C583 C 0.65899 0.12122 0.14243 0.0
C584 C 0.65933 0.13823 0.17059 0.0
C585 C 0.66135 0.12496 0.19941 0.0
C586 C 0.65254 0.0706 0.11381 0.0
O587 O 0.59874 0.11311 0.07653 0.0
O588 O 0.56798 0.12098 0.03098 0.0
O589 O 0.53266 0.05377 0.03106 0.0
O590 O 0.56725 0.03867 0.069 0.0
C591 C 0.58229 0.13069 0.06054 0.0
O592 O 0.5658 0.08466 0.95149 0.0
O593 O 0.52192 0.07552 0.97215 0.0
O594 O 0.58284 0.03019 0.99072 0.0
O595 O 0.61032 0.02399 0.03873 0.0
O596 O 0.64261 0.08278 0.02802 0.0
O597 O 0.61343 0.1131 1.00624 0.0
C598 C 0.53805 0.0377 0.05474 0.0
O599 O 0.62307 0.05416 0.10906 0.0
O600 O 0.66048 0.08245 0.08823 0.0
C601 C 0.52028 0.05365 0.92067 0.0
C602 C 0.51289 1.00823 0.87149 0.0
C603 C 0.51321 1.00073 0.90289 0.0
C604 C 0.5169 0.02332 0.92736 0.0
C605 C 0.51674 0.06072 0.88915 0.0
C606 C 0.51293 0.03808 0.86462 0.0
C607 C 0.53436 0.07787 0.94606 0.0
H608 H 0.66781 0.08476 0.22194 0.0
H609 H 0.66773 0.05528 0.17267 0.0
H610 H 0.6551 0.13114 0.12021 0.0
H611 H 0.65601 0.16104 0.16963 0.0
H612 H 0.51333 0.97789 0.90872 0.0
H613 H 0.51984 1.01748 0.95163 0.0
H614 H 0.51966 0.08406 0.88366 0.0
H615 H 0.51325 0.04452 0.84064 0.0
Tb616 Tb 0.35725 0.35461 0.30008 0.0
Eu617 Eu 0.32535 0.28818 0.26824 0.0
C618 C 0.35726 0.29705 0.3444 0.0
C619 C 0.4017 0.31981 0.26201 0.0
C620 C 0.36662 0.43505 0.31902 0.0
C621 C 0.34505 0.47567 0.33943 0.0
C622 C 0.36517 0.45561 0.34404 0.0
C623 C 0.34987 0.43653 0.28893 0.0
C624 C 0.32912 0.45558 0.28461 0.0
C625 C 0.32519 0.4745 0.31003 0.0
C626 C 0.37979 0.4085 0.32506 0.0
O627 O 0.33675 0.3653 0.25178 0.0
O628 O 0.31852 0.31775 0.22613 0.0
O629 O 0.28264 0.29948 0.29059 0.0
O630 O 0.30602 0.34901 0.30842 0.0
C631 C 0.32525 0.34763 0.22496 0.0
O632 O 0.31781 0.25442 0.22774 0.0
O633 O 0.2982 0.24134 0.2696 0.0
O634 O 0.34345 0.27848 0.31902 0.0
O635 O 0.36598 0.32669 0.3413 0.0
O636 O 0.398 0.34505 0.27648 0.0
O637 O 0.37853 0.29481 0.26063 0.0
C638 C 0.28109 0.32505 0.30609 0.0
O639 O 0.36134 0.38747 0.33792 0.0
O640 O 0.39045 0.39689 0.30161 0.0
C641 C 0.32873 0.21111 0.24892 0.0
C642 C 0.37457 0.17617 0.2568 0.0
C643 C 0.34552 0.16513 0.23574 0.0
C644 C 0.32268 0.18275 0.2316 0.0
C645 C 0.35741 0.22134 0.27047 0.0
C646 C 0.38002 0.20416 0.27435 0.0
C647 C 0.30737 0.23191 0.24403 0.0
H648 H 0.34399 0.49091 0.35928 0.0
H649 H 0.37814 0.455 0.36748 0.0
H650 H 0.35087 0.4213 0.26911 0.0
H651 H 0.31427 0.45356 0.26172 0.0
H652 H 0.34091 0.14341 0.22212 0.0
H653 H 0.30076 0.17453 0.21472 0.0
H654 H 0.36278 0.24306 0.28401 0.0
H655 H 0.40208 0.21291 0.29097 0.0
Tb656 Tb 0.58982 0.56224 1.00504 0.0
Eu657 Eu 0.59199 0.5938 0.07159 0.0
C658 C 0.65836 0.60243 0.0394 0.0
C659 C 0.59108 0.51946 0.0655 0.0
C660 C 0.56601 0.51451 0.9275 0.0
C661 C 0.55466 0.49182 0.87355 0.0
C662 C 0.57677 0.50689 0.89958 0.0
C663 C 0.53352 0.50377 0.93059 0.0
C664 C 0.51132 0.48868 0.9045 0.0
C665 C 0.52156 0.48448 0.87523 0.0
C666 C 0.58726 0.53849 0.94992 0.0
O667 O 0.53775 0.54792 1.01065 0.0
O668 O 0.53948 0.56696 0.06143 0.0
O669 O 0.5847 0.63221 0.04017 0.0
O670 O 0.59479 0.61203 0.99429 0.0
C671 C 0.52311 0.5507 0.03551 0.0
O672 O 0.57169 0.62113 0.10248 0.0
O673 O 0.61592 0.6081 0.11993 0.0
O674 O 0.64281 0.6131 0.06 0.0
O675 O 0.64272 0.57917 0.01911 0.0
O676 O 0.58774 0.52149 0.03422 0.0
O677 O 0.59527 0.54494 0.0841 0.0
C678 C 0.59025 0.63599 1.0109 0.0
O679 O 0.57517 0.56133 0.95643 0.0
O680 O 0.60281 0.53046 0.97504 0.0
C681 C 0.58162 0.61396 0.15633 0.0
C682 C 0.57194 0.60069 0.21773 0.0
C683 C 0.56488 0.57721 0.19321 0.0
C684 C 0.56983 0.58383 0.16256 0.0
C685 C 0.58515 0.63751 0.17974 0.0
C686 C 0.58033 0.63097 0.21027 0.0
C687 C 0.59351 0.62114 0.12682 0.0
H688 H 0.56315 0.48882 0.85124 0.0
H689 H 0.60182 0.51501 0.89693 0.0
H690 H 0.52492 0.50937 0.95217 0.0
H691 H 0.48593 0.48275 0.9064 0.0
H692 H 0.55837 0.55373 0.19833 0.0
H693 H 0.56662 0.56543 0.14436 0.0
H694 H 0.59399 0.66088 0.17503 0.0
H695 H 0.58661 0.64964 0.22858 0.0
Tb696 Tb 0.82264 0.29045 0.30161 0.0
Eu697 Eu 0.85056 0.36085 0.29202 0.0
C698 C 0.82713 0.34029 0.35838 0.0
C699 C 0.77351 0.32894 0.27199 0.0
C700 C 0.80172 0.20668 0.28943 0.0
C701 C 0.81263 0.157 0.29277 0.0
C702 C 0.80656 0.18279 0.30729 0.0
C703 C 0.80177 0.204 0.25659 0.0
C704 C 0.80752 0.1781 0.24202 0.0
C705 C 0.81387 0.15473 0.26013 0.0
C706 C 0.79867 0.23484 0.30566 0.0
O707 O 0.83115 0.28911 0.2523 0.0
O708 O 0.86165 0.33708 0.24908 0.0
O709 O 0.89609 0.3461 0.31297 0.0
O710 O 0.87554 0.29509 0.31508 0.0
C711 C 0.84811 0.30933 0.23654 0.0
O712 O 0.84948 0.40049 0.26566 0.0
O713 O 0.88386 0.40449 0.30843 0.0
O714 O 0.83107 0.36167 0.33876 0.0
O715 O 0.82617 0.31217 0.34894 0.0
O716 O 0.77906 0.30884 0.29198 0.0
O717 O 0.7983 0.34928 0.26534 0.0
C718 C 0.90035 0.31922 0.31989 0.0
O719 O 0.82453 0.25061 0.32376 0.0
O720 O 0.78439 0.252 0.2885 0.0
C721 C 0.85967 0.44518 0.29918 0.0
C722 C 0.83268 0.49203 0.31913 0.0
C723 C 0.84274 0.49148 0.28935 0.0
C724 C 0.85619 0.46818 0.27945 0.0
C725 C 0.85041 0.44621 0.3293 0.0
C726 C 0.83722 0.46957 0.33926 0.0
C727 C 0.87024 0.41893 0.28722 0.0
H728 H 0.81757 0.13935 0.30728 0.0
H729 H 0.80664 0.18449 0.33264 0.0
H730 H 0.79807 0.22215 0.24226 0.0
H731 H 0.80766 0.17662 0.21671 0.0
H732 H 0.83976 0.50881 0.27361 0.0
H733 H 0.86307 0.46765 0.2561 0.0
H734 H 0.85254 0.42854 0.34484 0.0
H735 H 0.82947 0.46949 0.36225 0.0
Tb736 Tb 0.11266 0.56617 0.5708 0.0
Eu737 Eu 0.0711 0.57533 0.50652 0.0
C738 C 0.10067 0.51208 0.51318 0.0
C739 C 0.14763 0.60592 0.52102 0.0
C740 C 0.16198 0.5924 0.64559 0.0
C741 C 0.16907 0.64659 0.65688 0.0
C742 C 0.16352 0.62137 0.63506 0.0
C743 C 0.17031 0.58943 0.67777 0.0
C744 C 0.17682 0.6148 0.69956 0.0
C745 C 0.17424 0.64314 0.68934 0.0
C746 C 0.145 0.56572 0.62407 0.0
O747 O 0.09802 0.61019 0.58227 0.0
O748 O 0.07232 0.62045 0.53517 0.0
O749 O 1.03622 0.55852 0.53989 0.0
O750 O 0.06787 0.53186 0.56614 0.0
C751 C 0.08447 0.62914 0.56532 0.0
O752 O 0.05912 0.59939 0.46554 0.0
O753 O 1.02881 0.55568 0.471 0.0
O754 O 0.08608 0.52955 0.49516 0.0
O755 O 0.11271 0.52241 0.54325 0.0
O756 O 0.14926 0.59291 0.54746 0.0
O757 O 0.1207 0.60195 0.5012 0.0
C758 C 0.03923 0.53573 0.55644 0.0
O759 O 0.11374 0.56184 0.61936 0.0
O760 O 0.15619 0.56295 0.59761 0.0
C761 C 0.04315 0.56416 0.42152 0.0
C762 C 0.05489 0.53468 0.3669 0.0
C763 C 1.02587 0.54377 0.36679 0.0
C764 C 1.01992 0.55829 0.39418 0.0
C765 C 0.07242 0.55603 0.42123 0.0
C766 C 0.07819 0.54139 0.39428 0.0
C767 C 1.03687 0.57619 0.4516 0.0
H768 H 0.16667 0.66814 0.64857 0.0
H769 H 0.15751 0.62408 0.61014 0.0
H770 H 0.16907 0.56726 0.68625 0.0
H771 H 0.18029 0.61156 0.7246 0.0
H772 H 1.0078 0.53948 0.34574 0.0
H773 H 0.99716 0.56442 0.39419 0.0
H774 H 0.09057 0.56027 0.44225 0.0
H775 H 0.10066 0.53453 0.39523 0.0
Tb776 Tb 0.80026 0.81234 0.27321 0.0
Eu777 Eu 0.87633 0.83126 0.29638 0.0
C778 C 0.8401 0.86907 0.24985 0.0
C779 C 0.84708 0.79553 0.2249 0.0
C780 C 0.71113 0.79651 0.26803 0.0
C781 C 0.65284 0.7841 0.2614 0.0
C782 C 0.68116 0.78719 0.2484 0.0
C783 C 0.7127 0.80463 0.30035 0.0
C784 C 0.68448 0.80137 0.31336 0.0
C785 C 0.65448 0.79011 0.29412 0.0
C786 C 0.74022 0.79402 0.25556 0.0
O787 O 0.81905 0.77289 0.28181 0.0
O788 O 0.85364 0.79488 0.3248 0.0
O789 O 0.85584 0.85696 0.3333 0.0
O790 O 0.8033 0.8297 0.32427 0.0
C791 C 0.8336 0.77082 0.31002 0.0
O792 O 0.92044 0.81746 0.31201 0.0
O793 O 0.92059 0.86541 0.31396 0.0
O794 O 0.86593 0.85867 0.25583 0.0
O795 O 0.81514 0.85936 0.2638 0.0
O796 O 0.81928 0.80166 0.22926 0.0
O797 O 0.87156 0.8017 0.24885 0.0
C798 C 0.82734 0.84954 0.34278 0.0
O799 O 0.75763 0.81874 0.24705 0.0
O800 O 0.7578 0.77887 0.27203 0.0
C801 C 0.96867 0.85214 0.30734 0.0
C802 C 1.02861 0.86683 0.28691 0.0
C803 C 1.02664 0.87039 0.31925 0.0
C804 C 0.99678 0.86292 0.32942 0.0
C805 C 0.97045 0.84865 0.275 0.0
C806 C 1.00034 0.85596 0.26482 0.0
C807 C 0.93767 0.84535 0.31843 0.0
H808 H 0.62981 0.7752 0.24634 0.0
H809 H 0.67968 0.78078 0.22339 0.0
H810 H 0.73571 0.81173 0.31573 0.0
H811 H 0.68606 0.80604 0.3387 0.0
H812 H 0.0482 0.87879 0.33659 0.0
H813 H 0.99558 0.86582 0.35447 0.0
H814 H 0.94879 0.84056 0.25772 0.0
H815 H 1.00137 0.85353 0.23971 0.0
Tb816 Tb 0.8792 0.33382 0.80723 0.0
Eu817 Eu 0.81011 0.28213 0.78076 0.0
C818 C 0.81367 0.35407 0.79895 0.0
C819 C 0.83851 0.29666 0.85642 0.0
C820 C 0.95198 0.40013 0.82327 0.0
C821 C 0.95437 0.4541 0.82779 0.0
C822 C 0.93684 0.42397 0.82691 0.0
C823 C 0.98462 0.40681 0.82003 0.0
C824 C 1.00206 0.43686 0.82068 0.0
C825 C 0.98721 0.46088 0.82467 0.0
C826 C 0.93482 0.36827 0.82419 0.0
O827 O 0.8859 0.28982 0.79118 0.0
O828 O 0.84354 0.25651 0.80444 0.0
O829 O 0.83555 0.29917 0.73952 0.0
O830 O 0.86217 0.34692 0.76073 0.0
C831 C 0.87433 0.26471 0.80369 0.0
O832 O 0.78678 0.24381 0.74595 0.0
O833 O 0.75822 0.26281 0.77583 0.0
O834 O 0.79758 0.32721 0.78519 0.0
O835 O 0.8446 0.36092 0.81034 0.0
O836 O 0.86517 0.31473 0.85034 0.0
O837 O 0.81422 0.28288 0.83423 0.0
C838 C 0.84865 0.3277 0.73592 0.0
O839 O 0.91261 0.3631 0.84224 0.0
O840 O 0.9259 0.3517 0.7972 0.0
C841 C 0.73773 0.21113 0.75429 0.0
C842 C 0.69534 0.15329 0.75234 0.0
C843 C 0.70436 0.16502 0.72437 0.0
C844 C 0.72521 0.19365 0.72536 0.0
C845 C 0.7295 0.19927 0.78247 0.0
C846 C 0.70852 0.1705 0.78148 0.0
C847 C 0.75829 0.24186 0.75376 0.0
H848 H 0.94238 0.47207 0.8316 0.0
H849 H 0.91165 0.41934 0.82957 0.0
H850 H 0.99674 0.38873 0.8173 0.0
H851 H 1.02725 0.4413 0.81805 0.0
H852 H 0.69532 0.152 0.70167 0.0
H853 H 0.73137 0.20231 0.70336 0.0
H854 H 0.73897 0.2123 0.80511 0.0
H855 H 0.70209 0.16195 0.80341 0.0
Tb856 Tb 0.85924 0.85242 0.79896 0.0
Eu857 Eu 0.82881 0.78623 0.76696 0.0
C858 C 0.85991 0.79529 0.84316 0.0
C859 C 0.90502 0.81794 0.76272 0.0
C860 C 0.8619 0.93019 0.82422 0.0
C861 C 0.81988 0.94846 0.84548 0.0
C862 C 0.84483 0.9336 0.84928 0.0
C863 C 0.85639 0.94541 0.79701 0.0
C864 C 0.83145 0.96022 0.79323 0.0
C865 C 0.81179 0.96029 0.81667 0.0
C866 C 0.87996 0.9063 0.82382 0.0
O867 O 0.83617 0.86286 0.75172 0.0
O868 O 0.8231 0.81591 0.72488 0.0
O869 O 0.78491 0.79763 0.78621 0.0
O870 O 0.80892 0.84483 0.81105 0.0
C871 C 0.82716 0.84566 0.72441 0.0
O872 O 0.8243 0.75258 0.72707 0.0
O873 O 0.80036 0.73963 0.76671 0.0
O874 O 0.84444 0.77661 0.81835 0.0
O875 O 0.87039 0.82458 0.83929 0.0
O876 O 0.90035 0.84356 0.77535 0.0
O877 O 0.88249 0.79275 0.76268 0.0
C878 C 0.78341 0.8213 0.80497 0.0
O879 O 0.86993 0.8833 0.83959 0.0
O880 O 0.8853 0.89717 0.79626 0.0
C881 C 0.83176 0.70786 0.74853 0.0
C882 C 0.88391 0.68041 0.76199 0.0
C883 C 0.87145 0.68356 0.73049 0.0
C884 C 0.84563 0.69718 0.72384 0.0
C885 C 0.84248 0.7023 0.77977 0.0
C886 C 0.86826 0.68878 0.78639 0.0
C887 C 0.81194 0.73015 0.74266 0.0
H888 H 0.80518 0.94826 0.86398 0.0
H889 H 0.84881 0.9225 0.87073 0.0
H890 H 0.86947 0.94375 0.77745 0.0
H891 H 0.826 0.96967 0.771 0.0
H892 H 0.88315 0.67764 0.71115 0.0
H893 H 0.8381 0.70141 0.69961 0.0
H894 H 0.83247 0.71022 0.79948 0.0
H895 H 0.87701 0.68626 0.81084 0.0
Tb896 Tb 0.57691 0.57273 0.55412 0.0
Eu897 Eu 0.65516 0.62262 0.59786 0.0
C898 C 0.6336 0.57772 0.52881 0.0
C899 C 0.63001 0.54657 0.59591 0.0
C900 C 0.49286 0.57231 0.53615 0.0
C901 C 0.43902 0.57789 0.51712 0.0
C902 C 0.46111 0.55968 0.52128 0.0
C903 C 0.50233 0.60327 0.54661 0.0
C904 C 0.48026 0.62124 0.54287 0.0
C905 C 0.44848 0.60884 0.52798 0.0
C906 C 0.51691 0.55413 0.53953 0.0
O907 O 0.58934 0.61011 0.59072 0.0
O908 O 0.62361 0.6186 0.63551 0.0
O909 O 0.62921 0.65365 0.56969 0.0
O910 O 0.58722 0.61757 0.53595 0.0
C911 C 0.59391 0.60843 0.62125 0.0
O912 O 0.69844 0.63129 0.63382 0.0
O913 O 0.70243 0.64322 0.58591 0.0
O914 O 0.63407 0.59081 0.55644 0.0
O915 O 0.6049 0.56122 0.51825 0.0
O916 O 0.59994 0.54206 0.58117 0.0
O917 O 0.65137 0.57299 0.60142 0.0
C918 C 0.60516 0.6455 0.54513 0.0
O919 O 0.5365 0.55802 0.51865 0.0
O920 O 0.5323 0.55478 0.56827 0.0
C921 C 0.73811 0.61464 0.60881 0.0
C922 C 0.76868 0.5663 0.60121 0.0
C923 C 0.76534 0.57747 0.63153 0.0
C924 C 0.7502 0.60128 0.63528 0.0
C925 C 0.74265 0.6042 0.57859 0.0
C926 C 0.75771 0.5804 0.57487 0.0
C927 C 0.71728 0.63624 0.61219 0.0
H928 H 0.41453 0.56779 0.50574 0.0
H929 H 0.45351 0.5359 0.51276 0.0
H930 H 0.52691 0.61361 0.55753 0.0
H931 H 0.48805 0.64499 0.55128 0.0
H932 H 0.7736 0.56717 0.65233 0.0
H933 H 0.747 0.60857 0.65885 0.0
H934 H 0.73379 0.6138 0.55754 0.0
H935 H 0.76062 0.57293 0.55126 0.0
Tb936 Tb 0.07358 0.55435 1.00963 0.0
Eu937 Eu 0.10841 0.59599 0.0726 0.0
C938 C 0.07079 0.52897 0.07554 0.0
C939 C 1.03573 0.60103 0.04045 0.0
C940 C 0.04951 0.48936 0.95095 0.0
C941 C 1.02214 0.43795 0.93043 0.0
C942 C 1.02271 0.46873 0.93342 0.0
C943 C 0.07657 0.4793 0.96367 0.0
C944 C 0.07609 0.44863 0.96051 0.0
C945 C 0.04846 0.42767 0.94482 0.0
C946 C 0.04705 0.51983 0.96072 0.0
O947 O 0.08148 0.60008 0.99588 0.0
O948 O 0.12388 0.62399 0.03351 0.0
O949 O 0.13959 0.56135 0.06696 0.0
O950 O 0.12425 0.54716 1.01426 0.0
C951 C 0.10465 0.62378 1.00709 0.0
O952 O 0.15376 0.61807 0.10261 0.0
O953 O 0.10877 0.62059 0.11787 0.0
O954 O 0.07398 0.55663 0.08755 0.0
O955 O 0.07541 0.52363 0.04652 0.0
O956 O 1.03411 0.57482 0.02392 0.0
O957 O 0.06344 0.61505 0.05838 0.0
C958 C 0.14458 0.54735 0.04084 0.0
O959 O 1.03376 0.52137 0.98613 0.0
O960 O 0.07311 0.5415 0.96174 0.0
C961 C 0.15072 0.66452 0.12487 0.0
C962 C 0.1744 0.72732 0.12585 0.0
C963 C 0.18633 0.71143 0.1502 0.0
C964 C 0.17455 0.68006 0.14967 0.0
C965 C 0.13892 0.68039 0.10057 0.0
C966 C 0.1506 0.71156 0.1011 0.0
C967 C 0.13992 0.63153 0.12218 0.0
H968 H 1.00064 0.42201 0.91815 0.0
H969 H 1.00157 0.47616 0.9237 0.0
H970 H 0.09731 0.49484 0.97768 0.0
H971 H 0.09646 0.44109 0.9721 0.0
H972 H 0.20425 0.72332 0.16987 0.0
H973 H 0.18408 0.66797 0.1684 0.0
H974 H 0.12081 0.66859 0.081 0.0
H975 H 0.14102 0.7234 0.08218 0.0
C976 C 0.06028 0.18597 0.02909 0.0
C977 C 0.06249 0.18935 0.99694 0.0
C978 C 0.07924 0.16977 0.047 0.0
C979 C 0.10083 0.15632 0.03328 0.0
H980 H 0.04316 0.19512 0.04028 0.0
H981 H 0.07503 0.16563 0.07092 0.0
S982 S 0.11733 0.15965 0.95093 0.0
N983 N 0.08981 0.17919 0.95282 0.0
N984 N 0.12457 0.14827 0.98661 0.0
C985 C 0.10447 0.16072 1.00181 0.0
C986 C 0.08547 0.17731 0.98357 0.0
C987 C 0.31656 0.92731 0.25246 0.0
C988 C 0.28424 0.92497 0.256 0.0
C989 C 0.33517 0.91107 0.27064 0.0
C990 C 0.32192 0.89212 0.29282 0.0
H991 H 0.32627 0.93846 0.233 0.0
H992 H 0.35849 0.91056 0.26442 0.0
S993 S 0.24393 0.88927 0.32038 0.0
N994 N 0.24394 0.91082 0.29056 0.0
N995 N 0.27875 0.87968 0.32414 0.0
C996 C 0.29217 0.89449 0.30076 0.0
C997 C 0.2734 0.91134 0.28257 0.0
C998 C 0.51621 0.83059 0.43435 0.0
C999 C 0.48986 0.81047 0.44377 0.0
C1000 C 0.52095 0.86185 0.43985 0.0
C1001 C 0.4995 0.87424 0.45486 0.0
H1002 H 0.53362 0.82224 0.42283 0.0
H1003 H 0.54158 0.87649 0.43222 0.0
S1004 S 0.4262 0.83188 0.48335 0.0
N1005 N 0.4414 0.80535 0.4681 0.0
N1006 N 0.45073 0.86449 0.47876 0.0
C1007 C 0.47274 0.85461 0.46399 0.0
C1008 C 0.46786 0.82262 0.45843 0.0
C1009 C 0.58738 0.36524 0.72814 0.0
C1010 C 0.6044 0.39576 0.7294 0.0
C1011 C 0.55994 0.35694 0.74254 0.0
C1012 C 0.54861 0.37883 0.7588 0.0
H1013 H 0.59543 0.34749 0.71619 0.0
H1014 H 0.54774 0.33316 0.74133 0.0
S1015 S 0.58264 0.46191 0.76717 0.0
N1016 N 0.60677 0.44815 0.74702 0.0
N1017 N 0.55508 0.43227 0.7741 0.0
C1018 C 0.56494 0.40942 0.75988 0.0
C1019 C 0.59286 0.41797 0.74516 0.0
C1020 C 0.0921 0.95771 0.63323 0.0
C1021 C 0.08949 0.92878 0.61671 0.0
C1022 C 0.09346 0.98563 0.61846 0.0
C1023 C 0.09238 0.98796 0.58535 0.0
H1024 H 0.09304 0.95914 0.65866 0.0
H1025 H 0.09523 1.00591 0.63366 0.0
S1026 S 0.08555 0.92023 0.52899 0.0
N1027 N 0.08593 0.90562 0.56355 0.0
N1028 N 0.08837 0.95687 0.53623 0.0
C1029 C 0.08985 0.95932 0.56815 0.0
C1030 C 0.08848 0.93056 0.58341 0.0
C1031 C 0.47604 0.79019 0.86227 0.0
C1032 C 0.50422 0.81394 0.86434 0.0
C1033 C 0.44569 0.79174 0.84531 0.0
C1034 C 0.44111 0.81767 0.83018 0.0
H1035 H 0.47722 0.77031 0.87474 0.0
H1036 H 0.42522 0.77279 0.84534 0.0
S1037 S 0.5067 0.88676 0.82838 0.0
N1038 N 0.5251 0.86434 0.84901 0.0
N1039 N 0.46868 0.86781 0.81837 0.0
C1040 C 0.46923 0.84153 0.83175 0.0
C1041 C 0.50037 0.83957 0.84841 0.0
C1042 C 0.58816 0.19891 0.12506 0.0
C1043 C 0.5769 0.22233 0.10929 0.0
C1044 C 0.59003 0.17066 0.10955 0.0
C1045 C 0.58019 0.16239 0.07653 0.0
H1046 H 0.59581 0.20233 0.15046 0.0
H1047 H 0.59902 0.15478 0.12409 0.0
S1048 S 0.54865 0.21413 0.0222 0.0
N1049 N 0.55598 0.23398 0.05705 0.0
N1050 N 0.55877 0.18183 0.02838 0.0
C1051 C 0.56897 0.18554 0.06011 0.0
C1052 C 0.56754 0.21479 0.07605 0.0
C1053 C 0.2028 0.30458 0.34862 0.0
C1054 C 0.19738 0.33302 0.35889 0.0
C1055 C 0.22855 0.3019 0.33104 0.0
C1056 C 0.25101 0.32738 0.32236 0.0
H1057 H 0.18772 0.28407 0.35513 0.0
H1058 H 0.23141 0.2794 0.32503 0.0
S1059 S 0.24613 0.40697 0.33954 0.0
N1060 N 0.21646 0.38718 0.3558 0.0
N1061 N 0.26323 0.3821 0.32409 0.0
C1062 C 0.245 0.35565 0.33154 0.0
C1063 C 0.21899 0.35841 0.3492 0.0
C1064 C 0.99162 0.07255 0.1304 0.0
C1065 C 0.99365 0.05187 0.15323 0.0
C1066 C 1.01965 0.08968 0.12115 0.0
C1067 C 0.05041 0.08689 0.13482 0.0
H1068 H 0.96836 0.07427 0.11846 0.0
H1069 H 1.01714 0.10392 0.10193 0.0
S1070 S 0.06807 0.03984 0.19999 0.0
N1071 N 1.02838 0.03242 0.19241 0.0
N1072 N 0.08103 0.06483 0.17533 0.0
C1073 C 0.05262 0.06834 0.15977 0.0
C1074 C 1.02417 0.05064 0.1688 0.0
C1075 C 0.34629 0.76619 0.43355 0.0
C1076 C 0.34088 0.78826 0.45502 0.0
C1077 C 0.3505 0.77233 0.4024 0.0
C1078 C 0.35033 0.80096 0.39169 0.0
H1079 H 0.34574 0.74352 0.44032 0.0
H1080 H 0.35354 0.75439 0.38642 0.0
S1081 S 0.34094 0.86767 0.43947 0.0
N1082 N 0.33783 0.84061 0.46391 0.0
N1083 N 0.34698 0.85234 0.40571 0.0
C1084 C 0.34694 0.82379 0.4134 0.0
C1085 C 0.34182 0.81736 0.44493 0.0
C1086 C 0.60123 0.99703 0.66643 0.0
C1087 C 0.57591 0.97137 0.66673 0.0
C1088 C 0.59957 1.01712 0.64306 0.0
C1089 C 0.573 1.01167 0.61864 0.0
H1090 H 0.62234 1.00183 0.68458 0.0
H1091 H 0.61964 0.03661 0.64361 0.0
S1092 S 0.50063 0.94764 0.60877 0.0
N1093 N 0.52323 0.9419 0.64128 0.0
N1094 N 0.52091 0.97889 0.59599 0.0
C1095 C 0.54766 0.98598 0.61846 0.0
C1096 C 0.5489 0.96602 0.64291 0.0
C1097 C 0.34751 0.39682 0.92663 0.0
C1098 C 0.3186 0.39159 0.93988 0.0
C1099 C 0.34921 0.38535 0.89536 0.0
C1100 C 0.32221 0.36705 0.8747 0.0
H1101 H 0.36967 0.40966 0.94105 0.0
H1102 H 0.37252 0.39045 0.88763 0.0
S1103 S 0.24018 0.34482 0.89712 0.0
N1104 N 0.2619 0.36579 0.92897 0.0
N1105 N 0.26491 0.34421 0.87109 0.0
C1106 C 0.29291 0.3616 0.88752 0.0
C1107 C 0.29116 0.37366 0.91953 0.0
C1108 C 0.95627 0.02507 0.30164 0.0
C1109 C 0.95136 0.99853 0.28129 0.0
C1110 C 0.9747 0.02831 0.33176 0.0
C1111 C 0.98883 1.00515 0.34254 0.0
H1112 H 0.94708 0.04408 0.2938 0.0
H1113 H 0.9793 0.04971 0.34601 0.0
S1114 S 0.97957 0.92965 0.30067 0.0
N1115 N 0.95933 0.94737 0.27565 0.0
N1116 N 0.99391 0.95368 0.33244 0.0
C1117 C 0.98238 0.97778 0.32344 0.0
C1118 C 0.96359 0.97439 0.29278 0.0
C1119 C 0.34682 0.768 0.65292 0.0
C1120 C 0.3409 0.78885 0.63102 0.0
C1121 C 0.352 0.77597 0.68585 0.0
C1122 C 0.35243 0.80539 0.69827 0.0
H1123 H 0.34588 0.74488 0.64463 0.0
H1124 H 0.35497 0.75873 0.70171 0.0
S1125 S 0.34075 0.8691 0.65095 0.0
N1126 N 0.3373 0.8406 0.62417 0.0
N1127 N 0.34801 0.85584 0.68569 0.0
C1128 C 0.34818 0.82686 0.67655 0.0
C1129 C 0.34214 0.81853 0.64308 0.0
C1130 C 0.56073 0.96301 0.83117 0.0
C1131 C 0.54558 0.95926 0.79939 0.0
C1132 C 0.54838 0.97685 0.85479 0.0
C1133 C 0.5204 0.98746 0.84759 0.0
H1134 H 0.58317 0.95651 0.83777 0.0
H1135 H 0.56206 0.98098 0.87852 0.0
S1136 S 0.46785 0.97748 0.76968 0.0
N1137 N 0.49812 0.96284 0.763 0.0
N1138 N 0.47533 0.98958 0.80768 0.0
C1139 C 0.50352 0.9817 0.81655 0.0
C1140 C 0.51596 0.96732 0.7924 0.0
C1141 C 0.32569 0.35815 0.13396 0.0
C1142 C 0.32072 0.3875 0.12871 0.0
C1143 C 0.32581 0.34559 0.16403 0.0
C1144 C 0.32184 0.36149 0.19205 0.0
H1145 H 0.33 0.34444 0.11435 0.0
H1146 H 0.3302 0.32321 0.16544 0.0
S1147 S 0.30676 0.43896 0.19285 0.0
N1148 N 0.31042 0.43162 0.15553 0.0
N1149 N 0.31146 0.40891 0.21127 0.0
C1150 C 0.31642 0.39081 0.18726 0.0
C1151 C 0.3156 0.4034 0.15622 0.0
C1152 C 0.31499 0.98758 0.12446 0.0
C1153 C 0.31069 0.97172 0.09431 0.0
C1154 C 0.29782 1.0094 0.13041 0.0
C1155 C 0.27579 1.01662 0.10641 0.0
H1156 H 0.33204 0.98336 0.14375 0.0
H1157 H 0.30237 0.02122 0.15386 0.0
S1158 S 0.25343 0.98042 0.02406 0.0
N1159 N 0.28102 0.96386 0.04059 0.0
N1160 N 0.24906 1.00502 0.05184 0.0
C1161 C 0.27061 1.00057 0.07637 0.0
C1162 C 0.28791 0.97811 0.07032 0.0
C1163 C 0.73897 0.66419 0.05184 0.0
C1164 C 0.75952 0.65316 0.03362 0.0
C1165 C 0.70746 0.64738 0.05425 0.0
C1166 C 0.69371 0.61838 0.03811 0.0
H1167 H 0.7472 0.68664 0.06424 0.0
H1168 H 0.69335 0.65786 0.06834 0.0
S1169 S 0.73683 0.57792 0.9874 0.0
N1170 N 0.76347 0.61031 0.99966 0.0
N1171 N 0.70446 0.57903 1.00347 0.0
C1172 C 0.71414 0.60664 0.02013 0.0
C1173 C 0.74673 0.62377 0.01811 0.0
C1174 C 0.81063 0.55317 0.36864 0.0
C1175 C 0.78238 0.55711 0.35036 0.0
C1176 C 0.82704 0.53236 0.35817 0.0
C1177 C 0.81606 0.51508 0.32887 0.0
H1178 H 0.81996 0.56592 0.39145 0.0
H1179 H 0.84846 0.52973 0.37314 0.0
S1180 S 0.74373 0.51688 0.27177 0.0
N1181 N 0.74439 0.54203 0.30122 0.0
N1182 N 0.77542 0.50299 0.28169 0.0
C1183 C 0.78817 0.519 0.31014 0.0
C1184 C 0.77125 0.53997 0.32087 0.0
C1185 C 0.95165 0.49341 0.55491 0.0
C1186 C 0.95417 0.46418 0.56247 0.0
C1187 C 0.97922 0.51666 0.55372 0.0
C1188 C 1.01036 0.51182 0.56045 0.0
H1189 H 0.92829 0.49811 0.54899 0.0
H1190 H 0.97598 0.53854 0.54698 0.0
S1191 S 1.03019 0.43984 0.58332 0.0
N1192 N 0.99051 0.43216 0.5781 0.0
N1193 N 0.04197 0.47559 0.5761 0.0
C1194 C 1.01321 0.48293 0.56907 0.0
C1195 C 0.98519 0.45928 0.56998 0.0
C1196 C 0.42333 0.12416 0.2922 0.0
C1197 C 0.45468 0.13873 0.28748 0.0
C1198 C 0.39647 0.13453 0.27944 0.0
C1199 C 0.40012 0.15954 0.26133 0.0
H1200 H 0.41968 0.10591 0.30753 0.0
H1201 H 0.37315 0.12436 0.28568 0.0
S1202 S 0.47575 0.20214 0.23729 0.0
N1203 N 0.4869 0.17687 0.25976 0.0
N1204 N 0.43641 0.19627 0.23602 0.0
C1205 C 0.43077 0.17258 0.25418 0.0
C1206 C 0.45808 0.16219 0.26719 0.0
C1207 C 0.44354 0.10861 0.52766 0.0
C1208 C 0.44447 0.13929 0.53753 0.0
C1209 C 0.47112 0.09592 0.53109 0.0
C1210 C 0.50256 0.11263 0.54476 0.0
H1211 H 0.42082 0.09366 0.51675 0.0
H1212 H 0.46753 0.07239 0.52256 0.0
S1213 S 0.52048 0.19422 0.57503 0.0
N1214 N 0.48129 0.18608 0.56209 0.0
N1215 N 0.53236 0.16279 0.56841 0.0
C1216 C 0.50417 0.14344 0.55495 0.0
C1217 C 0.47576 0.15646 0.55145 0.0
C1218 C 0.78838 0.69337 0.32514 0.0
C1219 C 0.77748 0.69949 0.35361 0.0
C1220 C 0.80869 0.71634 0.312 0.0
C1221 C 0.81939 0.74569 0.32748 0.0
H1222 H 0.7793 0.67141 0.31181 0.0
H1223 H 0.81477 0.71154 0.28888 0.0
S1224 S 0.8009 0.77195 0.40461 0.0
N1225 N 0.78093 0.73601 0.39826 0.0
N1226 N 0.82005 0.77897 0.37406 0.0
C1227 C 0.81083 0.75135 0.35725 0.0
C1228 C 0.78955 0.72823 0.37021 0.0
C1229 C 0.05603 0.53123 0.84712 0.0
C1230 C 0.04508 0.55362 0.8304 0.0
C1231 C 1.03706 0.50152 0.84531 0.0
C1232 C 1.00641 0.49282 0.82648 0.0
H1233 H 0.07934 0.53673 0.86213 0.0
H1234 H 0.0464 0.48528 0.85905 0.0
S1235 S 0.96699 0.54235 0.77685 0.0
N1236 N 1.00166 0.56483 0.79394 0.0
N1237 N 0.96637 0.50879 0.78993 0.0
C1238 C 0.99517 0.51489 0.80948 0.0
C1239 C 1.0144 0.54528 0.81155 0.0
C1240 C 0.14427 0.97734 0.15394 0.0
C1241 C 0.16389 0.96627 0.13502 0.0
C1242 C 0.12331 0.99444 0.14154 0.0
C1243 C 0.12058 1.00039 0.10961 0.0
H1244 H 0.14588 0.97363 0.17885 0.0
H1245 H 0.11018 1.00424 0.15736 0.0
S1246 S 0.16466 0.97458 0.04946 0.0
N1247 N 0.1782 0.9612 0.08242 0.0
N1248 N 0.13781 0.99268 0.05877 0.0
C1249 C 0.13875 0.98816 0.08997 0.0
C1250 C 0.16081 0.97137 0.1028 0.0
C1251 C 0.90641 0.22006 0.86776 0.0
C1252 C 0.9399 0.2298 0.86892 0.0
C1253 C 0.88507 0.2295 0.84479 0.0
C1254 C 0.89648 0.24951 0.82257 0.0
H1255 H 0.89668 0.20611 0.88548 0.0
H1256 H 0.85952 0.22246 0.84573 0.0
S1257 S 0.98198 0.28071 0.81458 0.0
N1258 N 0.98335 0.25975 0.84472 0.0
N1259 N 0.94335 0.2771 0.80196 0.0
C1260 C 0.9298 0.25809 0.82244 0.0
C1261 C 0.95147 0.24838 0.84553 0.0
C1262 C 0.66955 0.31133 0.60872 0.0
C1263 C 0.70122 0.32902 0.6178 0.0
C1264 C 0.66349 0.28025 0.60059 0.0
C1265 C 0.68891 0.26581 0.60148 0.0
H1266 H 0.64918 0.32125 0.60971 0.0
H1267 H 0.63868 0.26715 0.59592 0.0
S1268 S 0.77609 0.30262 0.61804 0.0
N1269 N 0.7584 0.33061 0.62302 0.0
N1270 N 0.74679 0.27174 0.60767 0.0
C1271 C 0.7207 0.28357 0.60768 0.0
C1272 C 0.72694 0.31537 0.61576 0.0
C1273 C 0.57281 0.78569 0.31836 0.0
C1274 C 0.57056 0.7625 0.33906 0.0
C1275 C 0.59992 0.79446 0.30339 0.0
C1276 C 0.62558 0.78045 0.30892 0.0
H1277 H 0.5538 0.79752 0.31407 0.0
H1278 H 0.60111 0.81263 0.28793 0.0
S1279 S 0.63055 0.71672 0.35808 0.0
N1280 N 0.59569 0.72422 0.36216 0.0
N1281 N 0.64656 0.74115 0.33422 0.0
C1282 C 0.62333 0.75673 0.32865 0.0
C1283 C 0.59581 0.74762 0.34369 0.0
C1284 C 0.09606 0.20422 0.45801 0.0
C1285 C 0.09027 0.2291 0.4763 0.0
C1286 C 0.0945 0.17424 0.46924 0.0
C1287 C 0.08726 0.16641 0.49989 0.0
H1288 H 0.10131 0.20764 0.43431 0.0
H1289 H 0.0992 0.15697 0.45351 0.0
S1290 S 0.07096 0.22245 0.55848 0.0
N1291 N 0.07741 0.24219 0.52783 0.0
N1292 N 0.07487 0.18828 0.5481 0.0
C1293 C 0.08188 0.19125 0.51831 0.0
C1294 C 0.08322 0.2214 0.50692 0.0
C1295 C 0.6989 0.34276 0.21509 0.0
C1296 C 0.67151 0.3248 0.22569 0.0
C1297 C 0.7313 0.34463 0.23025 0.0
C1298 C 0.73857 0.3285 0.25686 0.0
H1299 H 0.69541 0.35501 0.19441 0.0
H1300 H 0.75093 0.35842 0.22043 0.0
S1301 S 0.67641 0.27959 0.29585 0.0
N1302 N 0.65515 0.29175 0.26644 0.0
N1303 N 0.71444 0.29493 0.29356 0.0
C1304 C 0.71142 0.31109 0.26799 0.0
C1305 C 0.67867 0.30937 0.25291 0.0
C1306 C 0.59984 0.93932 0.95379 0.0
C1307 C 0.60272 0.91631 0.97473 0.0
C1308 C 0.59803 0.9697 0.96438 0.0
C1309 C 0.59962 0.97998 0.9969 0.0
H1310 H 0.59773 0.93355 0.9286 0.0
H1311 H 0.59529 0.98534 0.94661 0.0
S1312 S 0.60663 0.92957 0.06214 0.0
N1313 N 0.60621 0.90734 0.03027 0.0
N1314 N 0.60414 0.96272 0.04959 0.0
C1315 C 0.60288 0.95724 0.01789 0.0
C1316 C 0.60399 0.92634 1.00711 0.0
C1317 C 0.98517 0.84128 0.72376 0.0
C1318 C 0.99261 0.81337 0.71509 0.0
C1319 C 0.95785 0.84291 0.73935 0.0
C1320 C 0.93574 0.81679 0.74725 0.0
H1321 H 1.00101 0.86224 0.7192 0.0
H1322 H 0.954 0.86506 0.74515 0.0
S1323 S 0.94285 0.73792 0.7289 0.0
N1324 N 0.97384 0.7589 0.71552 0.0
N1325 N 0.92419 0.76186 0.74365 0.0
C1326 C 0.94284 0.78893 0.73818 0.0
C1327 C 0.97048 0.78731 0.72266 0.0
C1328 C 0.20566 0.09625 0.99342 0.0
C1329 C 0.19496 0.0861 0.96147 0.0
C1330 C 0.1883 0.08366 1.01657 0.0
C1331 C 0.15908 0.06147 1.00818 0.0
H1332 H 0.22601 0.11559 1.00028 0.0
H1333 H 0.19598 0.09383 0.04066 0.0
S1334 S 0.12396 0.02415 0.92806 0.0
N1335 N 0.15648 0.04962 0.92279 0.0
N1336 N 0.12275 0.02694 0.96648 0.0
C1337 C 0.14985 0.04919 0.97666 0.0
C1338 C 0.16816 0.06133 0.95318 0.0
C1339 C 0.85533 0.32876 0.64769 0.0
C1340 C 0.85257 0.35808 0.64055 0.0
C1341 C 0.85309 0.31886 0.67814 0.0
C1342 C 0.84924 0.33818 0.70331 0.0
H1343 H 0.85924 0.31318 0.6295 0.0
H1344 H 0.85534 0.29612 0.6822 0.0
S1345 S 0.84085 0.41713 0.69767 0.0
N1346 N 0.845 0.40605 0.66149 0.0
N1347 N 0.84233 0.38804 0.71881 0.0
C1348 C 0.84643 0.36752 0.69658 0.0
C1349 C 0.84771 0.37729 0.66529 0.0
C1350 C 0.55456 0.14799 0.43467 0.0
C1351 C 0.58142 0.16926 0.42785 0.0
C1352 C 0.55795 0.12868 0.45839 0.0
C1353 C 0.58817 0.13013 0.47657 0.0
H1354 H 0.5311 0.14462 0.42026 0.0
H1355 H 0.53669 0.11187 0.46178 0.0
S1356 S 0.66447 0.18641 0.47282 0.0
N1357 N 0.63816 0.19403 0.44442 0.0
N1358 N 0.64439 0.15768 0.48956 0.0
C1359 C 0.61456 0.15329 0.47225 0.0
C1360 C 0.61116 0.17293 0.44783 0.0
C1361 C 0.88158 0.76326 0.15257 0.0
C1362 C 0.85594 0.75863 0.12668 0.0
C1363 C 0.87892 0.77487 0.18389 0.0
C1364 C 0.85036 0.78226 0.1915 0.0
H1365 H 0.90424 0.75868 0.14853 0.0
H1366 H 0.89969 0.7783 0.20228 0.0
S1367 S 0.7752 0.77244 0.13314 0.0
N1368 N 0.80035 0.76139 0.11226 0.0
N1369 N 0.79549 0.78233 0.16921 0.0
C1370 C 0.82453 0.77692 0.16585 0.0
C1371 C 0.82728 0.76546 0.13431 0.0
C1372 C 0.13061 0.08552 0.79167 0.0
C1373 C 0.12924 0.10709 0.81588 0.0
C1374 C 0.11026 0.08182 0.76269 0.0
C1375 C 0.08773 0.09948 0.75688 0.0
H1376 H 0.14918 0.07304 0.79406 0.0
H1377 H 0.11468 0.06733 0.74376 0.0
S1378 S 0.06741 0.15166 0.8156 0.0
N1379 N 0.09845 0.14109 0.83464 0.0
N1380 N 0.05993 0.1338 0.77976 0.0
C1381 C 0.08293 0.1178 0.78228 0.0
C1382 C 0.10379 0.12173 0.81192 0.0
C1383 C 0.83453 0.38648 0.43841 0.0
C1384 C 0.83371 0.36443 0.46039 0.0
C1385 C 0.83101 0.37853 0.40543 0.0
C1386 C 0.82623 0.34814 0.39294 0.0
H1387 H 0.83984 0.41023 0.44683 0.0
H1388 H 0.83332 0.39654 0.38977 0.0
S1389 S 0.81769 0.28144 0.44058 0.0
N1390 N 0.8248 0.31077 0.46715 0.0
N1391 N 0.81746 0.29566 0.40592 0.0
C1392 C 0.82324 0.32579 0.41478 0.0
C1393 C 0.82719 0.33396 0.44819 0.0
C1394 C 0.65998 0.14442 0.28555 0.0
C1395 C 0.62919 0.15002 0.28489 0.0
C1396 C 0.67168 0.13898 0.25757 0.0
C1397 C 0.65311 0.1391 0.22794 0.0
H1398 H 0.67452 0.14248 0.30777 0.0
H1399 H 0.69459 0.13286 0.2591 0.0
S1400 S 0.57331 0.15746 0.21306 0.0
N1401 N 0.58227 0.15943 0.252 0.0
N1402 N 0.60411 0.14864 0.19936 0.0
C1403 C 0.62363 0.14742 0.22687 0.0
C1404 C 0.6117 0.15304 0.25539 0.0
C1405 C 0.85918 0.73931 0.91128 0.0
C1406 C 0.86477 0.75806 0.94012 0.0
C1407 C 0.85857 0.75127 0.8807 0.0
C1408 C 0.86397 0.78288 0.87658 0.0
H1409 H 0.85363 0.71496 0.9121 0.0
H1410 H 0.85309 0.73527 0.85989 0.0
S1411 S 0.88069 0.84233 0.94406 0.0
N1412 N 0.87622 0.8105 0.96158 0.0
N1413 N 0.87599 0.83238 0.90571 0.0
C1414 C 0.87056 0.80177 0.90535 0.0
C1415 C 0.87064 0.78962 0.93629 0.0
C1416 C 0.90482 0.16268 0.04554 0.0
C1417 C 0.87899 0.15953 0.02051 0.0
C1418 C 0.92612 0.1436 0.04612 0.0
C1419 C 0.92239 0.12039 0.02183 0.0
H1420 H 0.90878 0.18011 0.06489 0.0
H1421 H 0.94557 0.14689 0.06592 0.0
S1422 S 0.85952 0.10283 0.95042 0.0
N1423 N 0.85139 0.13137 0.97041 0.0
N1424 N 0.89149 0.09575 0.97166 0.0
C1425 C 0.89677 0.11692 0.99667 0.0
C1426 C 0.87512 0.13642 0.99595 0.0
C1427 C 0.44062 0.49104 1.01395 0.0
C1428 C 0.42168 0.49731 0.03682 0.0
C1429 C 0.47221 0.50888 1.01283 0.0
C1430 C 0.48759 0.53386 0.03512 0.0
H1431 H 0.43112 0.47144 0.9969 0.0
H1432 H 0.48516 0.50215 0.99491 0.0
S1433 S 0.44921 0.56065 0.1003 0.0
N1434 N 0.42121 0.53123 0.08217 0.0
N1435 N 0.48009 0.56406 0.08085 0.0
C1436 C 0.46873 0.54072 0.05794 0.0
C1437 C 0.43618 0.52279 0.05862 0.0
C1438 C 0.37999 0.60158 0.72391 0.0
C1439 C 0.38024 0.57711 0.74266 0.0
C1440 C 0.36791 0.62606 0.73343 0.0
C1441 C 0.35592 0.62721 0.76222 0.0
H1442 H 0.38922 0.60188 0.70166 0.0
H1443 H 0.3685 0.64452 0.7184 0.0
S1444 S 0.35034 0.56879 0.81969 0.0
N1445 N 0.36685 0.55549 0.79128 0.0
N1446 N 0.34408 0.60147 0.80897 0.0
C1447 C 0.35573 0.60285 0.78107 0.0
C1448 C 0.36785 0.57781 0.77133 0.0
C1449 C 0.20007 0.68163 0.50701 0.0
C1450 C 0.23117 0.67978 0.52058 0.0
C1451 C 0.17336 0.65668 0.50471 0.0
C1452 C 0.17664 0.62907 0.51634 0.0
H1453 H 0.19613 0.70275 0.4988 0.0
H1454 H 0.14973 0.65967 0.49552 0.0
S1455 S 0.25293 0.61134 0.55155 0.0
N1456 N 0.26379 0.64702 0.54364 0.0
N1457 N 0.21362 0.6006 0.53984 0.0
C1458 C 0.20773 0.62645 0.5286 0.0
C1459 C 0.23496 0.65165 0.53057 0.0
C1460 C 0.72807 0.95624 0.7739 0.0
C1461 C 0.71561 0.97408 0.79436 0.0
C1462 C 0.75956 0.95295 0.78093 0.0
C1463 C 0.77996 0.96727 0.80877 0.0
H1464 H 0.71335 0.94442 0.75227 0.0
H1465 H 0.76765 0.93826 0.76482 0.0
S1466 S 0.75987 1.01738 0.86982 0.0
N1467 N 0.72667 1.00702 0.84343 0.0
N1468 N 0.7861 1.00066 0.85653 0.0
C1469 C 0.76816 0.98553 0.8293 0.0
C1470 C 0.73598 0.98903 0.82209 0.0
C1471 C 0.72022 1.01814 0.57016 0.0
C1472 C 0.72492 0.99689 0.54667 0.0
C1473 C 0.69285 0.03108 0.56803 0.0
C1474 C 0.66695 0.02401 0.54226 0.0
H1475 H 0.73822 0.02518 0.59116 0.0
H1476 H 0.69206 0.04696 0.58746 0.0
S1477 S 0.66507 0.96959 0.47321 0.0
N1478 N 0.69948 0.96961 0.49576 0.0
N1479 N 0.64866 0.99331 0.49187 0.0
C1480 C 0.671 1.00278 0.51824 0.0
C1481 C 0.6994 0.9896 0.52035 0.0
C1482 C 0.3701 0.40555 0.67278 0.0
C1483 C 0.36337 0.43434 0.67535 0.0
C1484 C 0.3633 0.38534 0.69572 0.0
C1485 C 0.34816 0.39255 0.72099 0.0
H1486 H 0.38439 0.40005 0.6555 0.0
H1487 H 0.37145 0.36458 0.69452 0.0
S1488 S 0.31478 0.45958 0.73155 0.0
N1489 N 0.33306 0.46529 0.70025 0.0
N1490 N 0.31936 0.42653 0.74287 0.0
C1491 C 0.33613 0.41858 0.72061 0.0
C1492 C 0.34354 0.4395 0.69752 0.0
C1493 C 0.12985 0.60215 0.23032 0.0
C1494 C 0.14075 0.57791 0.24325 0.0
C1495 C 0.1492 0.6319 0.23531 0.0
C1496 C 0.18012 0.63865 0.25367 0.0
H1497 H 0.10638 0.59808 0.21574 0.0
H1498 H 0.14003 0.64969 0.2243 0.0
S1499 S 0.21888 0.58376 0.29507 0.0
N1500 N 0.18397 0.56297 0.27645 0.0
N1501 N 0.2199 0.61882 0.28639 0.0
C1502 C 0.19105 0.61471 0.26725 0.0
C1503 C 0.17149 0.58441 0.26193 0.0
C1504 C 0.56964 0.67582 0.47428 0.0
C1505 C 0.5452 0.68676 0.48592 0.0
C1506 C 0.59297 0.66644 0.49475 0.0
C1507 C 0.59306 0.66823 0.52761 0.0
H1508 H 0.56984 0.67307 0.44902 0.0
H1509 H 0.60939 0.65539 0.48463 0.0
S1510 S 0.53836 0.70052 0.57056 0.0
N1511 N 0.52532 0.7028 0.53278 0.0
N1512 N 0.56933 0.68495 0.57124 0.0
C1513 C 0.57058 0.68152 0.53976 0.0
C1514 C 0.54648 0.69071 0.51892 0.0
C1515 C 0.79598 0.42162 0.76292 0.0
C1516 C 0.76213 0.41254 0.75655 0.0
C1517 C 0.81357 0.40503 0.78182 0.0
C1518 C 0.79759 0.37895 0.7945 0.0
H1519 H 0.80898 0.43922 0.7503 0.0
H1520 H 0.83948 0.41026 0.78282 0.0
S1521 S 0.71012 0.35406 0.79621 0.0
N1522 N 0.71382 0.38245 0.77348 0.0
N1523 N 0.74709 0.35062 0.80784 0.0
C1524 C 0.76423 0.37353 0.79357 0.0
C1525 C 0.74635 0.39071 0.77491 0.0
C1526 C 1.01748 0.34735 0.96409 0.0
C1527 C 0.03947 0.33225 0.95336 0.0
C1528 C 1.02044 0.37817 0.96078 0.0
C1529 C 0.04564 0.39506 0.94695 0.0
H1530 H 0.99717 0.33514 0.97421 0.0
H1531 H 1.0029 0.3889 0.96918 0.0
S1532 S 0.11048 0.36711 0.91645 0.0
N1533 N 0.08809 0.33706 0.92931 0.0
N1534 N 0.09354 0.39525 0.9234 0.0
C1535 C 0.06834 0.38068 0.93697 0.0
C1536 C 0.06528 0.3492 0.9401 0.0
C1537 C 0.10944 0.9129 0.27292 0.0
C1538 C 0.11958 0.8927 0.25293 0.0
C1539 C 0.08023 0.90414 0.2844 0.0
C1540 C 0.06012 0.87498 0.27613 0.0
H1541 H 0.1238 0.93586 0.27928 0.0
H1542 H 0.0729 0.92055 0.29914 0.0
S1543 S 0.07646 0.81261 0.22701 0.0
N1544 N 0.10782 0.84138 0.22712 0.0
N1545 N 0.05288 0.82525 0.24877 0.0
C1546 C 0.07027 0.85425 0.25706 0.0
C1547 C 0.10005 0.86301 0.24548 0.0
C1548 C 0.59055 0.45845 0.12912 0.0
C1549 C 0.58623 0.42909 0.11283 0.0
C1550 C 0.59219 0.4862 0.11401 0.0
C1551 C 0.58967 0.48794 0.0807 0.0
H1552 H 0.59271 0.46037 0.15468 0.0
H1553 H 0.5954 0.50686 0.12911 0.0
S1554 S 0.578 0.4189 0.02474 0.0
N1555 N 0.57946 0.40485 0.05961 0.0
N1556 N 0.58237 0.45582 0.03165 0.0
C1557 C 0.58537 0.45886 0.06369 0.0
C1558 C 0.58374 0.43026 0.07932 0.0
C1559 C 0.96759 0.29195 0.37304 0.0
C1560 C 0.99714 0.31209 0.36964 0.0
C1561 C 0.93722 0.29359 0.35607 0.0
C1562 C 0.93397 0.31622 0.33525 0.0
H1563 H 0.96779 0.27486 0.38967 0.0
H1564 H 0.91582 0.27756 0.36043 0.0
S1565 S 1.00339 0.37485 0.31708 0.0
N1566 N 1.0206 0.3552 0.34258 0.0
N1567 N 0.96429 0.35912 0.31195 0.0
C1568 C 0.96339 0.33639 0.33131 0.0
C1569 C 0.9945 0.33414 0.34802 0.0
C1570 C 0.0881 0.69683 0.62942 0.0
C1571 C 0.07983 0.72129 0.61305 0.0
C1572 C 0.08974 0.66839 0.61425 0.0
C1573 C 0.08272 0.66102 0.58097 0.0
H1574 H 0.09357 0.69957 0.65503 0.0
H1575 H 0.09632 0.65167 0.62919 0.0
S1576 S 0.06033 0.71582 0.52504 0.0
N1577 N 0.06523 0.73501 0.56 0.0
N1578 N 0.06762 0.68248 0.53186 0.0
C1579 C 0.07464 0.68522 0.56394 0.0
C1580 C 0.07342 0.71466 0.57957 0.0
C1581 C 0.69991 0.79084 0.83398 0.0
C1582 C 0.6941 0.81482 0.85343 0.0
C1583 C 0.72759 0.79352 0.81842 0.0
C1584 C 0.75247 0.82046 0.82083 0.0
H1585 H 0.6827 0.76903 0.83066 0.0
H1586 H 0.72962 0.77367 0.80457 0.0
S1587 S 0.75048 0.89142 0.86764 0.0
N1588 N 0.71688 0.86752 0.87304 0.0
N1589 N 0.76825 0.87255 0.84459 0.0
C1590 C 0.74708 0.84499 0.8399 0.0
C1591 C 0.71847 0.84224 0.85575 0.0
C1592 C 0.51116 0.57397 0.63848 0.0
C1593 C 0.51585 0.54906 0.65481 0.0
C1594 C 0.53716 0.59405 0.62905 0.0
C1595 C 0.56858 0.5901 0.63613 0.0
H1596 H 0.48719 0.5775 0.63224 0.0
H1597 H 0.53259 0.61248 0.61557 0.0
S1598 S 0.59416 0.53077 0.68179 0.0
N1599 N 0.55463 0.52292 0.67996 0.0
N1600 N 0.60356 0.56121 0.66246 0.0
C1601 C 0.57391 0.56631 0.65384 0.0
C1602 C 0.54742 0.54552 0.66301 0.0
C1603 C 0.82805 0.25524 0.93081 0.0
C1604 C 0.8344 0.27911 0.95496 0.0
C1605 C 0.82875 0.261 0.89886 0.0
C1606 C 0.83677 0.29082 0.89002 0.0
H1607 H 0.82127 0.23194 0.93649 0.0
H1608 H 0.82321 0.242 0.88099 0.0
S1609 S 0.85674 0.36118 0.94414 0.0
N1610 N 0.84919 0.33365 0.96766 0.0
N1611 N 0.85214 0.34439 0.90806 0.0
C1612 C 0.84413 0.31479 0.91401 0.0
C1613 C 0.84249 0.30897 0.94634 0.0
C1614 C 0.05906 0.48986 0.14908 0.0
C1615 C 0.08422 0.47484 0.15211 0.0
C1616 C 0.05286 0.50547 0.12264 0.0
C1617 C 0.07066 0.50552 0.09773 0.0
H1618 H 0.04525 0.49127 0.16798 0.0
H1619 H 1.03523 0.51896 0.12246 0.0
S1620 S 0.1335 0.46345 0.09034 0.0
N1621 N 0.12336 0.4568 0.12553 0.0
N1622 N 0.11063 0.48516 0.075 0.0
C1623 C 0.09306 0.48751 0.09854 0.0
C1624 C 0.10007 0.4723 0.12595 0.0
C1625 C 0.84976 0.89031 0.42895 0.0
C1626 C 0.82046 0.88854 0.44102 0.0
C1627 C 0.85129 0.87851 0.39776 0.0
C1628 C 0.82365 0.86317 0.37597 0.0
H1629 H 0.87231 0.90085 0.44413 0.0
H1630 H 0.8749 0.88096 0.391 0.0
S1631 S 0.74011 0.85105 0.39469 0.0
N1632 N 0.76251 0.86966 0.4275 0.0
N1633 N 0.76521 0.8471 0.36989 0.0
C1634 C 0.79394 0.86115 0.38759 0.0
C1635 C 0.79238 0.87378 0.41947 0.0
C1636 C 0.48566 0.45904 0.79 0.0
C1637 C 0.46822 0.48092 0.78229 0.0
C1638 C 0.50079 0.45846 0.82102 0.0
C1639 C 0.49855 0.47939 0.84538 0.0
H1640 H 0.48931 0.44342 0.7717 0.0
H1641 H 0.51585 0.44271 0.82566 0.0
S1642 S 0.45182 0.53823 0.83846 0.0
N1643 N 0.44638 0.52159 0.80226 0.0
N1644 N 0.4751 0.52067 0.86043 0.0
C1645 C 0.479 0.49969 0.83849 0.0
C1646 C 0.46377 0.50042 0.80693 0.0
C1647 C 0.8416 0.26234 0.15781 0.0
C1648 C 0.84202 0.28396 0.13542 0.0
C1649 C 0.84468 0.27074 0.19055 0.0
C1650 C 0.84916 0.30123 0.20235 0.0
H1651 H 0.83708 0.23852 0.14988 0.0
H1652 H 0.84278 0.25309 0.20667 0.0
S1653 S 0.85463 0.36685 0.15361 0.0
N1654 N 0.84881 0.33731 0.12752 0.0
N1655 N 0.85559 0.35324 0.18862 0.0
C1656 C 0.85133 0.3232 0.18022 0.0
C1657 C 0.84749 0.31454 0.14694 0.0
C1658 C 0.10081 0.50703 0.30759 0.0
C1659 C 0.07858 0.48119 0.29193 0.0
C1660 C 0.09226 0.52503 0.33064 0.0
C1661 C 0.06135 0.51753 0.33928 0.0
H1662 H 0.12484 0.51366 0.3017 0.0
H1663 H 0.11021 0.5448 0.3421 0.0
S1664 S 0.99407 0.45258 0.30393 0.0
N1665 N 1.02403 0.44974 0.2848 0.0
N1666 N 1.00817 0.48269 0.32967 0.0
C1667 C 1.03861 0.49205 0.32317 0.0
C1668 C 0.04723 0.47405 0.29914 0.0
C1669 C 0.82301 0.85628 0.63311 0.0
C1670 C 0.82071 0.88658 0.62901 0.0
C1671 C 0.82374 0.84346 0.66302 0.0
C1672 C 0.82313 0.85999 0.69191 0.0
H1673 H 0.82479 0.84205 0.61269 0.0
H1674 H 0.82591 0.82028 0.6635 0.0
S1675 S 0.81732 0.94056 0.6962 0.0
N1676 N 0.81736 0.93266 0.65806 0.0
N1677 N 0.81967 0.90939 0.71351 0.0
C1678 C 0.82058 0.89037 0.68835 0.0
C1679 C 0.81912 0.9033 0.65751 0.0
C1680 C 0.82827 0.51616 0.61216 0.0
C1681 C 0.81486 0.4914 0.58918 0.0
C1682 C 0.81309 0.53995 0.61606 0.0
C1683 C 0.78381 0.54021 0.59711 0.0
H1684 H 0.851 0.51749 0.62719 0.0
H1685 H 0.82475 0.55862 0.63373 0.0
S1686 S 0.73683 0.47977 0.53542 0.0
N1687 N 0.76931 0.46799 0.54836 0.0
N1688 N 0.74081 0.51258 0.55583 0.0
C1689 C 0.76969 0.51535 0.57449 0.0
C1690 C 0.78514 0.49103 0.57052 0.0
C1691 C 0.23796 0.16123 0.55536 0.0
C1692 C 0.25773 0.15094 0.53566 0.0
C1693 C 0.20657 0.14431 0.55811 0.0
C1694 C 0.19211 0.11589 0.54089 0.0
H1695 H 0.24667 0.18328 0.56856 0.0
H1696 H 0.1931 0.1543 0.57337 0.0
S1697 S 0.233 0.07755 0.48587 0.0
N1698 N 0.26013 0.10945 0.49891 0.0
N1699 N 0.2014 0.07794 0.50347 0.0
C1700 C 0.21179 0.10485 0.52141 0.0
C1701 C 0.24425 0.12212 0.51898 0.0
C1702 C 0.28833 0.05087 0.82885 0.0
C1703 C 0.28723 0.05565 0.86139 0.0
C1704 C 0.30455 0.0302 0.81769 0.0
C1705 C 0.31971 1.01326 0.83864 0.0
H1706 H 0.27654 0.06317 0.81186 0.0
H1707 H 0.30448 0.0268 0.79244 0.0
S1708 S 0.32425 1.01739 0.92589 0.0
N1709 N 0.30328 0.04203 0.91444 0.0
N1710 N 0.33333 1.00283 0.89323 0.0
C1711 C 0.31912 1.01798 0.87118 0.0
C1712 C 0.30301 0.03931 0.88263 0.0
C1713 C 0.48952 0.96145 0.0714 0.0
C1714 C 0.45748 0.9641 0.06455 0.0
C1715 C 0.51559 0.98612 0.0704 0.0
C1716 C 0.51067 1.01431 0.06208 0.0
H1717 H 0.49459 0.9399 0.07669 0.0
H1718 H 0.53969 0.9825 0.07441 0.0
S1719 S 0.43194 0.03441 0.04564 0.0
N1720 N 0.42255 0.99824 0.05215 0.0
N1721 N 0.47165 0.04438 0.04969 0.0
C1722 C 0.47893 1.01781 0.05683 0.0
C1723 C 0.45233 0.99278 0.05826 0.0
C1724 C 0.96964 0.68359 0.80048 0.0
C1725 C 0.97728 0.65913 0.78436 0.0
C1726 C 0.9393 0.68985 0.79338 0.0
C1727 C 0.91521 0.67196 0.76985 0.0
H1728 H 0.9873 0.69823 0.81865 0.0
H1729 H 0.93492 0.70935 0.80602 0.0
S1730 S 0.92201 0.60432 0.72172 0.0
N1731 N 0.95758 0.61626 0.74426 0.0
N1732 N 0.90056 0.62809 0.73123 0.0
C1733 C 0.9223 0.64728 0.75372 0.0
C1734 C 0.95327 0.64085 0.7609 0.0
C1735 C 0.9487 0.61362 1.01446 0.0
C1736 C 0.94748 0.64141 0.03074 0.0
C1737 C 0.97639 0.6011 0.01798 0.0
C1738 C 1.00569 0.61521 0.03807 0.0
H1739 H 0.92769 0.60097 0.9983 0.0
H1740 H 0.97468 0.57992 1.00435 0.0
S1741 S 1.0173 0.6886 0.08678 0.0
N1742 N 0.97979 0.68255 0.06839 0.0
N1743 N 1.03108 0.65966 0.07488 0.0
C1744 C 1.00505 0.64307 0.05472 0.0
C1745 C 0.97655 0.65584 0.05118 0.0
C1746 C 0.28843 0.19814 0.83643 0.0
C1747 C 0.27798 0.20414 0.86528 0.0
C1748 C 0.30524 0.22162 0.82102 0.0
C1749 C 0.31312 0.25164 0.83451 0.0
H1750 H 0.28167 0.17546 0.82452 0.0
H1751 H 0.31101 0.21645 0.79785 0.0
S1752 S 0.29438 0.27914 0.91091 0.0
N1753 N 0.27859 0.24219 0.90762 0.0
N1754 N 0.31143 0.28619 0.87905 0.0
C1755 C 0.30491 0.25777 0.86429 0.0
C1756 C 0.28701 0.23401 0.87963 0.0
C1757 C 0.50437 0.04618 0.36599 0.0
C1758 C 0.53783 0.05663 0.37565 0.0
C1759 C 0.48928 1.01517 0.36234 0.0
C1760 C 0.50702 0.9931 0.36776 0.0
H1761 H 0.48974 0.06204 0.36011 0.0
H1762 H 0.46357 1.00842 0.35408 0.0
S1763 S 0.59483 1.00869 0.39754 0.0
N1764 N 0.58779 0.04257 0.39424 0.0
N1765 N 0.55972 0.98425 0.3863 0.0
C1766 C 0.54019 1.00331 0.37968 0.0
C1767 C 0.55551 0.03505 0.38385 0.0
C1768 C 0.69038 0.50042 0.6167 0.0
C1769 C 0.67195 0.47439 0.62719 0.0
C1770 C 0.67612 0.52307 0.60568 0.0
C1771 C 0.64286 0.52055 0.60468 0.0
H1772 H 0.7162 0.50383 0.61784 0.0
H1773 H 0.69154 0.54296 0.59831 0.0
S1774 S 0.58327 0.45542 0.62624 0.0
N1775 N 0.61812 0.4461 0.63359 0.0
N1776 N 0.59141 0.48913 0.61258 0.0
C1777 C 0.62377 0.49401 0.61347 0.0
C1778 C 0.63833 0.47085 0.62495 0.0
C1779 C 0.43211 0.71294 0.31834 0.0
C1780 C 0.41853 0.69858 0.34343 0.0
C1781 C 0.41601 0.73064 0.29945 0.0
C1782 C 0.38511 0.73305 0.30366 0.0
H1783 H 0.45703 0.71425 0.31609 0.0
H1784 H 0.42908 0.74491 0.28377 0.0
S1785 S 0.33398 0.68993 0.35653 0.0
N1786 N 0.36901 0.68112 0.3651 0.0
N1787 N 0.33806 0.71303 0.32809 0.0
C1788 C 0.36884 0.71392 0.32395 0.0
C1789 C 0.38565 0.69669 0.34406 0.0
C1790 C 0.1691 0.80869 0.13081 0.0
C1791 C 0.20156 0.82488 0.13648 0.0
C1792 C 0.16066 0.77715 0.1262 0.0
C1793 C 0.18441 0.76064 0.12751 0.0
H1794 H 0.15005 0.82047 0.13121 0.0
H1795 H 0.13537 0.76554 0.12304 0.0
S1796 S 0.27276 0.79232 0.13891 0.0
N1797 N 0.25753 0.82233 0.14082 0.0
N1798 N 0.2416 0.76258 0.13252 0.0
C1799 C 0.21694 0.7765 0.13168 0.0
C1800 C 0.22555 0.8088 0.13593 0.0
C1801 C 0.07564 0.24145 0.80966 0.0
C1802 C 0.08069 0.22973 0.8391 0.0
C1803 C 0.10109 0.25004 0.79258 0.0
C1804 C 0.13203 0.24667 0.80434 0.0
H1805 H 0.0526 0.246 0.8009 0.0
H1806 H 0.09701 0.26117 0.77118 0.0
S1807 S 0.15519 0.21073 0.8769 0.0
N1808 N 0.11716 0.21125 0.87724 0.0
N1809 N 0.16472 0.22594 0.84432 0.0
C1810 C 0.13636 0.23214 0.83221 0.0
C1811 C 0.11072 0.22409 0.84988 0.0
C1812 C 0.60232 0.70682 0.95652 0.0
C1813 C 0.59474 0.73113 0.97415 0.0
C1814 C 0.60081 0.67682 0.9677 0.0
C1815 C 0.59176 0.66841 0.99758 0.0
H1816 H 0.60895 0.71068 0.93337 0.0
H1817 H 0.60684 0.65997 0.95247 0.0
S1818 S 0.57061 0.72292 0.05438 0.0
N1819 N 0.57848 0.74313 0.02435 0.0
N1820 N 0.57592 0.68918 0.04448 0.0
C1821 C 0.58466 0.69271 1.01539 0.0
C1822 C 0.58603 0.72288 1.00407 0.0
C1823 C 0.20298 0.8435 0.71946 0.0
C1824 C 0.17619 0.82179 0.72662 0.0
C1825 C 0.23547 0.84521 0.7341 0.0
C1826 C 0.24346 0.82514 0.75666 0.0
H1827 H 0.19895 0.85921 0.70211 0.0
H1828 H 0.25465 0.86225 0.72718 0.0
S1829 S 0.18314 0.764 0.78457 0.0
N1830 N 0.16121 0.7798 0.75906 0.0
N1831 N 0.22072 0.78294 0.78524 0.0
C1832 C 0.21694 0.80355 0.76409 0.0
C1833 C 0.18406 0.80193 0.74957 0.0
C1834 C 0.10658 0.42565 0.50902 0.0
C1835 C 0.10376 0.41529 0.47639 0.0
C1836 C 0.10661 0.45619 0.52022 0.0
C1837 C 0.10257 0.47928 0.49988 0.0
H1838 H 0.1085 0.40963 0.52656 0.0
H1839 H 0.10885 0.46142 0.54553 0.0
S1840 S 0.09229 0.46538 0.41176 0.0
N1841 N 0.09624 0.43236 0.42377 0.0
N1842 N 0.09499 0.48795 0.44409 0.0
C1843 C 0.09938 0.46925 0.46706 0.0
C1844 C 0.10026 0.43823 0.45568 0.0
C1845 C 0.46743 0.28918 0.22352 0.0
C1846 C 0.48867 0.31456 0.21342 0.0
C1847 C 0.44036 0.2912 0.23874 0.0
C1848 C 0.4323 0.31899 0.24616 0.0
H1849 H 0.47166 0.26689 0.21949 0.0
H1850 H 0.42564 0.27038 0.24509 0.0
S1851 S 0.47891 0.39329 0.22545 0.0
N1852 N 0.49832 0.3691 0.21229 0.0
N1853 N 0.44887 0.3731 0.24108 0.0
C1854 C 0.45326 0.34477 0.23629 0.0
C1855 C 0.48068 0.34257 0.22009 0.0
C1856 C 0.68343 0.57477 0.46377 0.0
C1857 C 0.69775 0.60572 0.46275 0.0
C1858 C 0.66404 0.56529 0.48676 0.0
C1859 C 0.65871 0.58652 0.50911 0.0
H1860 H 0.68441 0.55832 0.44495 0.0
H1861 H 0.65156 0.54161 0.48581 0.0
S1862 S 0.69311 0.66963 0.5173 0.0
N1863 N 0.70909 0.65671 0.48837 0.0
N1864 N 0.66979 0.63942 0.52878 0.0
C1865 C 0.67492 0.61703 0.50956 0.0
C1866 C 0.69556 0.62644 0.48721 0.0
C1867 C 0.3839 0.83245 0.15431 0.0
C1868 C 0.36495 0.85105 0.13993 0.0
C1869 C 0.38212 0.82426 0.18543 0.0
C1870 C 0.36087 0.83378 0.20342 0.0
H1871 H 0.40078 0.82449 0.14164 0.0
H1872 H 0.3973 0.81011 0.19534 0.0
S1873 S 0.30701 0.88372 0.17802 0.0
N1874 N 0.32502 0.87953 0.14716 0.0
N1875 N 0.32106 0.86349 0.20495 0.0
C1876 C 0.34167 0.8522 0.18941 0.0
C1877 C 0.34385 0.86097 0.15794 0.0
C1878 C 0.0822 0.67 0.94288 0.0
C1879 C 0.11162 0.6782 0.93143 0.0
C1880 C 0.0806 0.65555 0.97078 0.0
C1881 C 0.10847 0.64996 0.9882 0.0
H1882 H 0.05976 0.66986 0.92788 0.0
H1883 H 0.05705 0.64553 0.97664 0.0
S1884 S 0.19239 0.68015 0.97556 0.0
N1885 N 0.17003 0.68964 0.94499 0.0
N1886 N 0.16693 0.66249 0.9978 0.0
C1887 C 0.13851 0.66438 0.9809 0.0
C1888 C 0.14012 0.679 0.95239 0.0
C1889 C 0.33304 0.27882 0.63372 0.0
C1890 C 0.35533 0.26152 0.62734 0.0
C1891 C 0.33051 0.29001 0.6647 0.0
C1892 C 0.35028 0.28529 0.6923 0.0
H1893 H 0.31657 0.28372 0.61434 0.0
H1894 H 0.31259 0.3028 0.66684 0.0
S1895 S 0.41376 0.24227 0.69071 0.0
N1896 N 0.39816 0.24057 0.65289 0.0
N1897 N 0.39404 0.26198 0.71055 0.0
C1898 C 0.37317 0.26838 0.68663 0.0
C1899 C 0.37548 0.25649 0.6547 0.0
C1900 C 0.62266 0.58098 0.28679 0.0
C1901 C 0.62117 0.60325 0.31017 0.0
C1902 C 0.60244 0.57664 0.25763 0.0
C1903 C 0.58009 0.59441 0.251 0.0
H1904 H 0.64158 0.56893 0.28965 0.0
H1905 H 0.60725 0.56201 0.23908 0.0
S1906 S 0.55891 0.64749 0.30819 0.0
N1907 N 0.58985 0.63725 0.32786 0.0
N1908 N 0.55161 0.62875 0.27279 0.0
C1909 C 0.57462 0.61276 0.27601 0.0
C1910 C 0.59535 0.61738 0.30572 0.0
C1911 C 0.34831 0.83057 0.94579 0.0
C1912 C 0.34512 0.85841 0.95927 0.0
C1913 C 0.34316 0.82339 0.91278 0.0
C1914 C 0.33501 0.84386 0.89129 0.0
H1915 H 0.3557 0.8143 0.96093 0.0
H1916 H 0.34687 0.8019 0.90413 0.0
S1917 S 0.32203 0.9195 0.91407 0.0
N1918 N 0.33168 0.90615 0.94829 0.0
N1919 N 0.32243 0.89296 0.8864 0.0
C1920 C 0.33063 0.87146 0.90442 0.0
C1921 C 0.33551 0.87862 0.93824 0.0
C1922 C 0.12391 0.67453 0.73821 0.0
C1923 C 0.14357 0.67811 0.76789 0.0
C1924 C 0.13606 0.66822 0.71065 0.0
C1925 C 0.16799 0.66537 0.71234 0.0
H1926 H 0.0982 0.67224 0.7366 0.0
H1927 H 0.11919 0.66119 0.68884 0.0
S1928 S 0.23147 0.68418 0.78276 0.0
N1929 N 0.19835 0.68752 0.79617 0.0
N1930 N 0.22085 0.67481 0.74427 0.0
C1931 C 0.18909 0.67468 0.74089 0.0
C1932 C 0.17688 0.68138 0.76883 0.0
C1933 C 0.36142 0.28929 0.43635 0.0
C1934 C 0.3612 0.25845 0.44099 0.0
C1935 C 0.36184 0.30163 0.40615 0.0
C1936 C 0.36109 0.28398 0.37759 0.0
H1937 H 0.36061 0.30431 0.45652 0.0
H1938 H 0.36141 0.32522 0.40511 0.0
S1939 S 0.36051 0.20175 0.37483 0.0
N1940 N 0.36099 0.21078 0.41285 0.0
N1941 N 0.36069 0.23307 0.35697 0.0
C1942 C 0.36124 0.25309 0.38179 0.0
C1943 C 0.36159 0.24069 0.41284 0.0
C1944 C 0.40095 0.66552 0.54824 0.0
C1945 C 0.3838 0.66895 0.51869 0.0
C1946 C 0.42144 0.64576 0.55099 0.0
C1947 C 0.42551 0.6285 0.52436 0.0
H1948 H 0.39854 0.67814 0.56955 0.0
H1949 H 0.43417 0.6439 0.57421 0.0
S1950 S 0.38798 0.63021 0.44133 0.0
N1951 N 0.3734 0.65403 0.46194 0.0
N1952 N 0.41197 0.61687 0.46738 0.0
C1953 C 0.40877 0.63171 0.49466 0.0
C1954 C 0.38794 0.65195 0.49176 0.0
C1955 C 0.9357 0.9974 0.51262 0.0
C1956 C 0.91879 0.99979 0.53841 0.0
C1957 C 0.96764 1.01499 0.51215 0.0
C1958 C 0.98542 0.03567 0.53791 0.0
H1959 H 0.92444 0.9808 0.49279 0.0
H1960 H 0.97899 1.01128 0.49179 0.0
S1961 S 0.95301 0.0509 0.6118 0.0
N1962 N 0.92301 0.02519 0.59049 0.0
N1963 N 0.98224 0.05757 0.59015 0.0
C1964 C 0.96854 0.03865 0.56371 0.0
C1965 C 0.93578 0.02099 0.56389 0.0
C1966 C 0.82143 0.07472 0.24118 0.0
C1967 C 0.84703 0.07911 0.22358 0.0
C1968 C 0.8101 0.09917 0.25205 0.0
C1969 C 0.82389 0.12891 0.24566 0.0
H1970 H 0.81043 0.05231 0.24727 0.0
H1971 H 0.79072 0.09483 0.26599 0.0
S1972 S 0.89092 0.15277 0.19996 0.0
N1973 N 0.88513 0.11562 0.19936 0.0
N1974 N 0.86416 0.16151 0.22035 0.0
C1975 C 0.84886 0.13359 0.22734 0.0
C1976 C 0.86035 0.10872 0.21616 0.0
C1977 C 0.72938 0.151 0.03268 0.0
C1978 C 0.72837 0.18016 0.02391 0.0
C1979 C 0.70142 0.12728 0.02835 0.0
C1980 C 0.67137 0.13169 1.01481 0.0
H1981 H 0.75177 0.14662 0.04383 0.0
H1982 H 0.7033 0.10558 0.03652 0.0
S1983 S 0.65642 0.20293 0.98448 0.0
N1984 N 0.69525 0.21147 0.99877 0.0
N1985 N 0.64291 0.16701 0.99036 0.0
C1986 C 0.67035 0.16039 1.00455 0.0
C1987 C 0.69875 0.18458 1.00921 0.0
C1988 C 0.25531 0.50048 0.26727 0.0
C1989 C 0.23339 0.49614 0.28883 0.0
C1990 C 0.28681 0.49755 0.27587 0.0
C1991 C 0.29721 0.48878 0.30593 0.0
H1992 H 0.24772 0.50501 0.24316 0.0
H1993 H 0.30236 0.5 0.25795 0.0
S1994 S 0.25094 0.48203 0.37328 0.0
N1995 N 0.22592 0.48901 0.34337 0.0
N1996 N 0.28443 0.48151 0.35915 0.0
C1997 C 0.27653 0.48779 0.3288 0.0
C1998 C 0.24468 0.49172 0.32023 0.0
C1999 C 0.20798 0.50124 0.01773 0.0
C2000 C 0.22667 0.49809 0.04707 0.0
C2001 C 0.18214 0.51688 1.01553 0.0
C2002 C 0.17316 0.53093 0.04241 0.0
H2003 H 0.21254 0.49065 0.99618 0.0
H2004 H 0.16882 0.51765 0.99232 0.0
S2005 S 0.21439 0.5305 0.12503 0.0
N2006 N 0.23344 0.51156 0.10364 0.0
N2007 N 0.18701 0.54032 0.09959 0.0
C2008 C 0.19218 0.52834 0.07161 0.0
C2009 C 0.21796 0.51227 0.07386 0.0
C2010 C 0.83168 0.93735 0.20631 0.0
C2011 C 0.84579 0.93261 0.1792 0.0
C2012 C 0.82786 0.91577 0.22855 0.0
C2013 C 0.83776 0.88887 0.22409 0.0
H2014 H 0.82704 0.95915 0.21235 0.0
H2015 H 0.81967 0.92124 0.25041 0.0
S2016 S 0.86368 0.86056 0.15179 0.0
N2017 N 0.86017 0.89509 0.14503 0.0
N2018 N 0.85381 0.85505 0.18725 0.0
C2019 C 0.8468 0.88183 0.19494 0.0
C2020 C 0.85012 0.90345 0.1721 0.0
C2021 C 0.65914 0.07181 0.76795 0.0
C2022 C 0.62987 0.06397 0.74672 0.0
C2023 C 0.6798 0.10092 0.7702 0.0
C2024 C 0.67227 0.12315 0.7509 0.0
H2025 H 0.66621 0.05532 0.78296 0.0
H2026 H 0.70222 0.10582 0.78664 0.0
S2027 S 0.59871 0.1142 0.69127 0.0
N2028 N 0.5945 0.08098 0.70598 0.0
N2029 N 0.63323 0.1355 0.71022 0.0
C2030 C 0.643 0.11567 0.72971 0.0
C2031 C 0.62183 0.08618 0.72764 0.0
loop_
_geom_bond_atom_site_label_1
_geom_bond_atom_site_label_2
_geom_bond_distance
_geom_bond_site_symmetry_2
_ccdc_geom_bond_type
Zn0 O3 2.031 . S
Zn0 O5 2.049 . S
Zn0 O10 2.067 1_455 S
Zn1 O2 1.962 . S
Zn1 O4 1.986 . S
Zn1 O6 1.996 . S
Zn1 O9 1.943 . S
O2 Zn1 1.962 . S
O2 C7 1.254 . S
O3 Zn0 2.031 . S
O3 C7 1.269 . S
O4 Zn1 1.986 . S
O4 C11 1.262 . S
O5 Zn0 2.049 . S
O5 C13 1.260 . S
O6 Zn1 1.996 . S
O6 C13 1.257 . S
C7 O2 1.254 . S
C7 O3 1.269 . S
C8 O9 1.249 . S
C8 O10 1.270 1_455 S
O9 Zn1 1.943 . S
O9 C8 1.249 . S
O10 Zn0 2.067 1_655 S
O10 C8 1.270 1_655 S
C11 O4 1.262 . S
C11 O12 1.232 . S
O12 C11 1.232 . S
C13 O5 1.260 . S
C13 O6 1.257 . S
Zn14 O17 2.031 . S
Zn14 O19 2.049 . S
Zn14 O24 2.067 . S
Zn15 O16 1.962 . S
Zn15 O18 1.986 . S
Zn15 O20 1.996 . S
Zn15 O23 1.943 . S
O16 Zn15 1.962 . S
O16 C21 1.254 1_455 S
O17 Zn14 2.031 . S
O17 C21 1.269 1_455 S
O18 Zn15 1.986 . S
O18 C25 1.262 . S
O19 Zn14 2.049 . S
O19 C27 1.260 . S
O20 Zn15 1.996 . S
O20 C27 1.257 . S
C21 O16 1.254 1_655 S
C21 O17 1.269 1_655 S
C22 O23 1.249 . S
C22 O24 1.270 . S
O23 Zn15 1.943 . S
O23 C22 1.249 . S
O24 Zn14 2.067 . S
O24 C22 1.270 . S
C25 O18 1.262 . S
C25 O26 1.232 . S
O26 C25 1.232 . S
C27 O19 1.260 . S
C27 O20 1.257 . S
Zn28 O31 2.031 . S
Zn28 O33 2.049 . S
Zn28 O38 2.067 . S
Zn29 O30 1.962 . S
Zn29 O32 1.986 . S
Zn29 O34 1.996 . S
Zn29 O37 1.943 . S
O30 Zn29 1.962 . S
O30 C35 1.254 . S
O31 Zn28 2.031 . S
O31 C35 1.269 . S
O32 Zn29 1.986 . S
O32 C39 1.262 . S
O33 Zn28 2.049 . S
O33 C41 1.260 . S
O34 Zn29 1.996 . S
O34 C41 1.257 . S
C35 O30 1.254 . S
C35 O31 1.269 . S
C36 O37 1.249 . S
C36 O38 1.270 . S
O37 Zn29 1.943 . S
O37 C36 1.249 . S
O38 Zn28 2.067 . S
O38 C36 1.270 . S
C39 O32 1.262 . S
C39 O40 1.232 . S
O40 C39 1.232 . S
C41 O33 1.260 . S
C41 O34 1.257 . S
Zn42 O45 2.031 . S
Zn42 O47 2.049 . S
Zn42 O52 2.067 . S
Zn43 O44 1.962 . S
Zn43 O46 1.986 . S
Zn43 O48 1.996 . S
Zn43 O51 1.943 . S
O44 Zn43 1.962 . S
O44 C49 1.254 . S
O45 Zn42 2.031 . S
O45 C49 1.269 . S
O46 Zn43 1.986 . S
O46 C53 1.262 . S
O47 Zn42 2.049 . S
O47 C55 1.260 . S
O48 Zn43 1.996 . S
O48 C55 1.257 . S
C49 O44 1.254 . S
C49 O45 1.269 . S
C50 O51 1.249 . S
C50 O52 1.270 . S
O51 Zn43 1.943 . S
O51 C50 1.249 . S
O52 Zn42 2.067 . S
O52 C50 1.270 . S
C53 O46 1.262 . S
C53 O54 1.232 . S
O54 C53 1.232 . S
C55 O47 1.260 . S
C55 O48 1.257 . S
Zn56 O59 2.031 . S
Zn56 O61 2.049 . S
Zn56 O66 2.067 . S
Zn57 O58 1.962 . S
Zn57 O60 1.986 . S
Zn57 O62 1.996 . S
Zn57 O65 1.943 . S
O58 Zn57 1.962 . S
O58 C63 1.254 . S
O59 Zn56 2.031 . S
O59 C63 1.269 . S
O60 Zn57 1.986 . S
O60 C67 1.262 . S
O61 Zn56 2.049 . S
O61 C69 1.260 . S
O62 Zn57 1.996 . S
O62 C69 1.257 . S
C63 O58 1.254 . S
C63 O59 1.269 . S
C64 O65 1.249 . S
C64 O66 1.270 . S
O65 Zn57 1.943 . S
O65 C64 1.249 . S
O66 Zn56 2.067 . S
O66 C64 1.270 . S
C67 O60 1.262 . S
C67 O68 1.232 . S
O68 C67 1.232 . S
C69 O61 1.260 . S
C69 O62 1.257 . S
Zn70 O73 2.031 . S
Zn70 O75 2.049 . S
Zn70 O80 2.067 . S
Zn71 O72 1.962 . S
Zn71 O74 1.986 . S
Zn71 O76 1.996 . S
Zn71 O79 1.943 . S
O72 Zn71 1.962 . S
O72 C77 1.254 . S
O73 Zn70 2.031 . S
O73 C77 1.269 . S
O74 Zn71 1.986 . S
O74 C81 1.262 . S
O75 Zn70 2.049 . S
O75 C83 1.260 . S
O76 Zn71 1.996 . S
O76 C83 1.257 . S
C77 O72 1.254 . S
C77 O73 1.269 . S
C78 O79 1.249 . S
C78 O80 1.270 . S
O79 Zn71 1.943 . S
O79 C78 1.249 . S
O80 Zn70 2.067 . S
O80 C78 1.270 . S
C81 O74 1.262 . S
C81 O82 1.232 . S
O82 C81 1.232 . S
C83 O75 1.260 . S
C83 O76 1.257 . S
Zn84 O87 2.031 . S
Zn84 O89 2.049 . S
Zn84 O94 2.067 . S
Zn85 O86 1.962 . S
Zn85 O88 1.986 . S
Zn85 O90 1.996 . S
Zn85 O93 1.943 . S
O86 Zn85 1.962 . S
O86 C91 1.254 . S
O87 Zn84 2.031 . S
O87 C91 1.269 . S
O88 Zn85 1.986 . S
O88 C95 1.262 . S
O89 Zn84 2.049 . S
O89 C97 1.260 . S
O90 Zn85 1.996 . S
O90 C97 1.257 . S
C91 O86 1.254 . S
C91 O87 1.269 . S
C92 O93 1.249 . S
C92 O94 1.270 . S
O93 Zn85 1.943 . S
O93 C92 1.249 . S
O94 Zn84 2.067 . S
O94 C92 1.270 . S
C95 O88 1.262 . S
C95 O96 1.232 . S
O96 C95 1.232 . S
C97 O89 1.260 . S
C97 O90 1.257 . S
Zn98 O101 2.031 . S
Zn98 O103 2.049 . S
Zn98 O108 2.067 . S
Zn99 O100 1.962 . S
Zn99 O102 1.986 . S
Zn99 O104 1.996 . S
Zn99 O107 1.943 1_455 S
O100 Zn99 1.962 . S
O100 C105 1.254 . S
O101 Zn98 2.031 . S
O101 C105 1.269 1_655 S
O102 Zn99 1.986 . S
O102 C109 1.262 . S
O103 Zn98 2.049 . S
O103 C111 1.260 . S
O104 Zn99 1.996 . S
O104 C111 1.257 1_455 S
C105 O100 1.254 . S
C105 O101 1.269 1_455 S
C106 O107 1.249 . S
C106 O108 1.270 . S
O107 Zn99 1.943 1_655 S
O107 C106 1.249 . S
O108 Zn98 2.067 . S
O108 C106 1.270 . S
C109 O102 1.262 . S
C109 O110 1.232 . S
O110 C109 1.232 . S
C111 O103 1.260 . S
C111 O104 1.257 1_655 S
Zn112 O115 2.031 . S
Zn112 O117 2.049 . S
Zn112 O122 2.067 . S
Zn113 O114 1.962 . S
Zn113 O116 1.986 . S
Zn113 O118 1.996 . S
Zn113 O121 1.943 . S
O114 Zn113 1.962 . S
O114 C119 1.254 . S
O115 Zn112 2.031 . S
O115 C119 1.269 . S
O116 Zn113 1.986 . S
O116 C123 1.262 . S
O117 Zn112 2.049 . S
O117 C125 1.260 . S
O118 Zn113 1.996 . S
O118 C125 1.257 . S
C119 O114 1.254 . S
C119 O115 1.269 . S
C120 O121 1.249 . S
C120 O122 1.270 . S
O121 Zn113 1.943 . S
O121 C120 1.249 . S
O122 Zn112 2.067 . S
O122 C120 1.270 . S
C123 O116 1.262 . S
C123 O124 1.232 . S
O124 C123 1.232 . S
C125 O117 1.260 . S
C125 O118 1.257 . S
Zn126 O129 2.031 . S
Zn126 O131 2.049 . S
Zn126 O136 2.067 . S
Zn127 O128 1.962 . S
Zn127 O130 1.986 . S
Zn127 O132 1.996 . S
Zn127 O135 1.943 . S
O128 Zn127 1.962 . S
O128 C133 1.254 . S
O129 Zn126 2.031 . S
O129 C133 1.269 . S
O130 Zn127 1.986 . S
O130 C137 1.262 . S
O131 Zn126 2.049 . S
O131 C139 1.260 . S
O132 Zn127 1.996 . S
O132 C139 1.257 . S
C133 O128 1.254 . S
C133 O129 1.269 . S
C134 O135 1.249 . S
C134 O136 1.270 . S
O135 Zn127 1.943 . S
O135 C134 1.249 . S
O136 Zn126 2.067 . S
O136 C134 1.270 . S
C137 O130 1.262 . S
C137 O138 1.232 . S
O138 C137 1.232 . S
C139 O131 1.260 . S
C139 O132 1.257 . S
Zn140 O143 2.031 . S
Zn140 O145 2.049 . S
Zn140 O150 2.067 . S
Zn141 O142 1.962 . S
Zn141 O144 1.986 . S
Zn141 O146 1.996 . S
Zn141 O149 1.943 . S
O142 Zn141 1.962 . S
O142 C147 1.254 . S
O143 Zn140 2.031 . S
O143 C147 1.269 . S
O144 Zn141 1.986 . S
O144 C151 1.262 . S
O145 Zn140 2.049 . S
O145 C153 1.260 . S
O146 Zn141 1.996 . S
O146 C153 1.257 . S
C147 O142 1.254 . S
C147 O143 1.269 . S
C148 O149 1.249 . S
C148 O150 1.270 . S
O149 Zn141 1.943 . S
O149 C148 1.249 . S
O150 Zn140 2.067 . S
O150 C148 1.270 . S
C151 O144 1.262 . S
C151 O152 1.232 . S
O152 C151 1.232 . S
C153 O145 1.260 . S
C153 O146 1.257 . S
Zn154 O157 2.031 . S
Zn154 O159 2.049 . S
Zn154 O164 2.067 . S
Zn155 O156 1.962 . S
Zn155 O158 1.986 . S
Zn155 O160 1.996 . S
Zn155 O163 1.943 . S
O156 Zn155 1.962 . S
O156 C161 1.254 . S
O157 Zn154 2.031 . S
O157 C161 1.269 . S
O158 Zn155 1.986 . S
O158 C165 1.262 . S
O159 Zn154 2.049 . S
O159 C167 1.260 . S
O160 Zn155 1.996 . S
O160 C167 1.257 . S
C161 O156 1.254 . S
C161 O157 1.269 . S
C162 O163 1.249 . S
C162 O164 1.270 . S
O163 Zn155 1.943 . S
O163 C162 1.249 . S
O164 Zn154 2.067 . S
O164 C162 1.270 . S
C165 O158 1.262 . S
C165 O166 1.232 . S
O166 C165 1.232 . S
C167 O159 1.260 . S
C167 O160 1.257 . S
Zn168 O171 2.031 1_554 S
Zn168 O173 2.049 . S
Zn168 O178 2.067 . S
Zn169 O170 1.962 1_554 S
Zn169 O172 1.986 . S
Zn169 O174 1.996 . S
Zn169 O177 1.943 . S
O170 Zn169 1.962 1_556 S
O170 C175 1.254 . S
O171 Zn168 2.031 1_556 S
O171 C175 1.269 . S
O172 Zn169 1.986 . S
O172 C179 1.262 . S
O173 Zn168 2.049 . S
O173 C181 1.260 . S
O174 Zn169 1.996 . S
O174 C181 1.257 . S
C175 O170 1.254 . S
C175 O171 1.269 . S
C176 O177 1.249 . S
C176 O178 1.270 . S
O177 Zn169 1.943 . S
O177 C176 1.249 . S
O178 Zn168 2.067 . S
O178 C176 1.270 . S
C179 O172 1.262 . S
C179 O180 1.232 . S
O180 C179 1.232 . S
C181 O173 1.260 . S
C181 O174 1.257 . S
Zn182 O185 2.031 1_554 S
Zn182 O187 2.049 . S
Zn182 O192 2.067 . S
Zn183 O184 1.961 . S
Zn183 O186 1.986 1_556 S
Zn183 O188 1.996 1_556 S
Zn183 O191 1.943 . S
O184 Zn183 1.961 . S
O184 C189 1.254 . S
O185 Zn182 2.031 1_556 S
O185 C189 1.269 . S
O186 Zn183 1.986 1_554 S
O186 C193 1.262 . S
O187 Zn182 2.049 . S
O187 C195 1.260 . S
O188 Zn183 1.996 1_554 S
O188 C195 1.257 . S
C189 O184 1.254 . S
C189 O185 1.269 . S
C190 O191 1.249 . S
C190 O192 1.270 1_556 S
O191 Zn183 1.943 . S
O191 C190 1.249 . S
O192 Zn182 2.067 . S
O192 C190 1.270 1_554 S
C193 O186 1.262 . S
C193 O194 1.232 1_554 S
O194 C193 1.232 1_556 S
C195 O187 1.260 . S
C195 O188 1.257 . S
Zn196 O199 2.031 . S
Zn196 O201 2.049 . S
Zn196 O206 2.067 . S
Zn197 O198 1.962 . S
Zn197 O200 1.986 . S
Zn197 O202 1.996 . S
Zn197 O205 1.943 . S
O198 Zn197 1.962 . S
O198 C203 1.254 . S
O199 Zn196 2.031 . S
O199 C203 1.269 . S
O200 Zn197 1.986 . S
O200 C207 1.262 . S
O201 Zn196 2.049 . S
O201 C209 1.260 . S
O202 Zn197 1.996 . S
O202 C209 1.257 . S
C203 O198 1.254 . S
C203 O199 1.269 . S
C204 O205 1.249 . S
C204 O206 1.270 . S
O205 Zn197 1.943 . S
O205 C204 1.249 . S
O206 Zn196 2.067 . S
O206 C204 1.270 . S
C207 O200 1.262 . S
C207 O208 1.232 . S
O208 C207 1.232 . S
C209 O201 1.260 . S
C209 O202 1.257 . S
Zn210 O213 2.031 . S
Zn210 O215 2.049 . S
Zn210 O220 2.067 . S
Zn211 O212 1.962 . S
Zn211 O214 1.986 . S
Zn211 O216 1.996 . S
Zn211 O219 1.943 . S
O212 Zn211 1.962 . S
O212 C217 1.254 . S
O213 Zn210 2.031 . S
O213 C217 1.269 . S
O214 Zn211 1.986 . S
O214 C221 1.262 . S
O215 Zn210 2.049 . S
O215 C223 1.260 . S
O216 Zn211 1.996 . S
O216 C223 1.257 . S
C217 O212 1.254 . S
C217 O213 1.269 . S
C218 O219 1.249 . S
C218 O220 1.270 . S
O219 Zn211 1.943 . S
O219 C218 1.249 . S
O220 Zn210 2.067 . S
O220 C218 1.270 . S
C221 O214 1.262 . S
C221 O222 1.232 . S
O222 C221 1.232 . S
C223 O215 1.260 . S
C223 O216 1.257 . S
Zn224 O227 2.031 . S
Zn224 O229 2.049 . S
Zn224 O234 2.067 . S
Zn225 O226 1.962 . S
Zn225 O228 1.986 . S
Zn225 O230 1.996 . S
Zn225 O233 1.943 1_545 S
O226 Zn225 1.962 . S
O226 C231 1.266 . S
O227 Zn224 2.031 . S
O227 C231 1.258 1_565 S
O228 Zn225 1.986 . S
O228 C235 1.262 . S
O229 Zn224 2.049 . S
O229 C237 1.260 . S
O230 Zn225 1.996 . S
O230 C237 1.257 1_545 S
C231 O226 1.266 . S
C231 O227 1.258 1_545 S
C232 O233 1.249 . S
C232 O234 1.270 . S
O233 Zn225 1.943 1_565 S
O233 C232 1.249 . S
O234 Zn224 2.067 . S
O234 C232 1.270 . S
C235 O228 1.262 . S
C235 O236 1.232 . S
O236 C235 1.232 . S
C237 O229 1.260 . S
C237 O230 1.257 1_565 S
Zn238 O241 2.031 . S
Zn238 O243 2.049 . S
Zn238 O248 2.067 . S
Zn239 O240 1.962 . S
Zn239 O242 1.986 . S
Zn239 O244 1.996 . S
Zn239 O247 1.943 . S
O240 Zn239 1.962 . S
O240 C245 1.254 . S
O241 Zn238 2.031 . S
O241 C245 1.269 . S
O242 Zn239 1.986 . S
O242 C249 1.262 . S
O243 Zn238 2.049 . S
O243 C251 1.260 . S
O244 Zn239 1.996 . S
O244 C251 1.257 . S
C245 O240 1.254 . S
C245 O241 1.269 . S
C246 O247 1.249 . S
C246 O248 1.270 . S
O247 Zn239 1.943 . S
O247 C246 1.249 . S
O248 Zn238 2.067 . S
O248 C246 1.270 . S
C249 O242 1.262 . S
C249 O250 1.232 . S
O250 C249 1.232 . S
C251 O243 1.260 . S
C251 O244 1.257 . S
Zn252 O255 2.031 . S
Zn252 O257 2.049 . S
Zn252 O262 2.067 . S
Zn253 O254 1.962 . S
Zn253 O256 1.986 . S
Zn253 O258 1.996 . S
Zn253 O261 1.943 . S
O254 Zn253 1.962 . S
O254 C259 1.254 . S
O255 Zn252 2.031 . S
O255 C259 1.269 . S
O256 Zn253 1.986 . S
O256 C263 1.262 . S
O257 Zn252 2.049 . S
O257 C265 1.260 . S
O258 Zn253 1.996 . S
O258 C265 1.257 . S
C259 O254 1.254 . S
C259 O255 1.269 . S
C260 O261 1.249 . S
C260 O262 1.270 . S
O261 Zn253 1.943 . S
O261 C260 1.249 . S
O262 Zn252 2.067 . S
O262 C260 1.270 . S
C263 O256 1.262 . S
C263 O264 1.232 . S
O264 C263 1.232 . S
C265 O257 1.260 . S
C265 O258 1.257 . S
Zn266 O269 2.031 . S
Zn266 O271 2.049 . S
Zn266 O276 2.067 . S
Zn267 O268 1.962 . S
Zn267 O270 1.986 . S
Zn267 O272 1.996 . S
Zn267 O275 1.943 1_565 S
O268 Zn267 1.962 . S
O268 C273 1.254 1_565 S
O269 Zn266 2.031 . S
O269 C273 1.269 . S
O270 Zn267 1.986 . S
O270 C277 1.262 . S
O271 Zn266 2.049 . S
O271 C279 1.260 . S
O272 Zn267 1.996 . S
O272 C279 1.257 1_565 S
C273 O268 1.254 1_545 S
C273 O269 1.269 . S
C274 O275 1.249 . S
C274 O276 1.270 . S
O275 Zn267 1.943 1_545 S
O275 C274 1.249 . S
O276 Zn266 2.067 . S
O276 C274 1.270 . S
C277 O270 1.262 . S
C277 O278 1.232 . S
O278 C277 1.232 . S
C279 O271 1.260 . S
C279 O272 1.257 1_545 S
Zn280 O283 2.031 1_554 S
Zn280 O285 2.049 . S
Zn280 O290 2.067 . S
Zn281 O282 1.962 1_554 S
Zn281 O284 1.986 . S
Zn281 O286 1.996 . S
Zn281 O289 1.943 . S
O282 Zn281 1.962 1_556 S
O282 C287 1.254 . S
O283 Zn280 2.031 1_556 S
O283 C287 1.269 . S
O284 Zn281 1.986 . S
O284 C291 1.262 . S
O285 Zn280 2.049 . S
O285 C293 1.260 . S
O286 Zn281 1.996 . S
O286 C293 1.257 . S
C287 O282 1.254 . S
C287 O283 1.269 . S
C288 O289 1.249 . S
C288 O290 1.270 . S
O289 Zn281 1.943 . S
O289 C288 1.249 . S
O290 Zn280 2.067 . S
O290 C288 1.270 . S
C291 O284 1.262 . S
C291 O292 1.232 1_554 S
O292 C291 1.232 1_556 S
C293 O285 1.260 . S
C293 O286 1.257 . S
Zn294 O297 2.031 . S
Zn294 O299 2.049 . S
Zn294 O304 2.067 1_455 S
Zn295 O296 1.974 . S
Zn295 O298 1.973 1_455 S
Zn295 O300 2.018 . S
Zn295 O303 1.931 1_455 S
O296 Zn295 1.974 . S
O296 C301 1.254 . S
O297 Zn294 2.031 . S
O297 C301 1.269 . S
O298 Zn295 1.973 1_655 S
O298 C305 1.262 . S
O299 Zn294 2.049 . S
O299 C307 1.260 . S
O300 Zn295 2.018 . S
O300 C307 1.257 . S
C301 O296 1.254 . S
C301 O297 1.269 . S
C302 O303 1.249 . S
C302 O304 1.270 . S
O303 Zn295 1.931 1_655 S
O303 C302 1.249 . S
O304 Zn294 2.067 1_655 S
O304 C302 1.270 . S
C305 O298 1.262 . S
C305 O306 1.232 . S
O306 C305 1.232 . S
C307 O299 1.260 . S
C307 O300 1.257 . S
Zn308 O311 2.031 . S
Zn308 O313 2.049 . S
Zn308 O318 2.067 . S
Zn309 O310 1.962 . S
Zn309 O312 1.986 . S
Zn309 O314 1.996 . S
Zn309 O317 1.943 . S
O310 Zn309 1.962 . S
O310 C315 1.254 . S
O311 Zn308 2.031 . S
O311 C315 1.269 . S
O312 Zn309 1.986 . S
O312 C319 1.262 . S
O313 Zn308 2.049 . S
O313 C321 1.260 . S
O314 Zn309 1.996 . S
O314 C321 1.257 . S
C315 O310 1.254 . S
C315 O311 1.269 . S
C316 O317 1.249 . S
C316 O318 1.270 . S
O317 Zn309 1.943 . S
O317 C316 1.249 . S
O318 Zn308 2.067 . S
O318 C316 1.270 . S
C319 O312 1.262 . S
C319 O320 1.232 . S
O320 C319 1.232 . S
C321 O313 1.260 . S
C321 O314 1.257 . S
Zn322 O325 2.031 . S
Zn322 O327 2.049 . S
Zn322 O332 2.067 . S
Zn323 O324 1.962 . S
Zn323 O326 1.986 . S
Zn323 O328 1.996 . S
Zn323 O331 1.943 . S
O324 Zn323 1.962 . S
O324 C329 1.254 . S
O325 Zn322 2.031 . S
O325 C329 1.269 . S
O326 Zn323 1.986 . S
O326 C333 1.262 . S
O327 Zn322 2.049 . S
O327 C335 1.260 . S
O328 Zn323 1.996 . S
O328 C335 1.257 . S
C329 O324 1.254 . S
C329 O325 1.269 . S
C330 O331 1.249 . S
C330 O332 1.270 . S
O331 Zn323 1.943 . S
O331 C330 1.249 . S
O332 Zn322 2.067 . S
O332 C330 1.270 . S
C333 O326 1.262 . S
C333 O334 1.232 . S
O334 C333 1.232 . S
C335 O327 1.260 . S
C335 O328 1.257 . S
Tb336 C346 2.825 1_454 S
Tb336 O347 2.347 . S
Tb336 O350 2.366 . S
Tb336 O355 2.418 1_554 S
Tb336 O356 2.384 . S
Tb336 O359 2.479 1_454 S
Tb336 O360 2.471 1_455 S
Eu337 O348 2.418 . S
Eu337 O349 2.384 . S
Eu337 O352 2.479 . S
Eu337 O353 2.471 . S
Eu337 O354 2.347 . S
Eu337 O357 2.366 . S
Eu337 C367 2.825 . S
C338 O354 1.259 1_556 S
C338 O355 1.265 . S
C339 O356 1.255 . S
C339 O357 1.265 . S
C340 C342 1.380 . S
C340 C343 1.374 . S
C340 C346 1.507 . S
C341 C342 1.384 . S
C341 C345 1.387 . S
C341 H368 0.930 . S
C342 C340 1.380 . S
C342 C341 1.384 . S
C342 H369 0.931 . S
C343 C340 1.374 . S
C343 C344 1.390 . S
C343 H370 0.930 1_556 S
C344 C343 1.390 . S
C344 C345 1.391 . S
C344 H371 0.930 . S
C345 C341 1.387 . S
C345 C344 1.391 . S
C346 Tb336 2.825 1_656 S
C346 C340 1.507 . S
C346 O359 1.238 . S
C346 O360 1.247 1_556 S
O347 Tb336 2.347 . S
O347 C351 1.259 . S
O348 Eu337 2.418 . S
O348 C351 1.265 . S
O349 Eu337 2.384 . S
O349 C358 1.255 . S
O350 Tb336 2.366 . S
O350 C358 1.265 . S
C351 O347 1.259 . S
C351 O348 1.265 . S
O352 Eu337 2.479 . S
O352 C367 1.238 . S
O353 Eu337 2.471 . S
O353 C367 1.247 . S
O354 Eu337 2.347 . S
O354 C338 1.259 1_554 S
O355 Tb336 2.418 1_556 S
O355 C338 1.265 . S
O356 Tb336 2.384 . S
O356 C339 1.255 . S
O357 Eu337 2.366 . S
O357 C339 1.265 . S
C358 O349 1.255 . S
C358 O350 1.265 . S
O359 Tb336 2.479 1_656 S
O359 C346 1.238 . S
O360 Tb336 2.471 1_655 S
O360 C346 1.247 1_554 S
C361 C364 1.380 . S
C361 C365 1.374 . S
C361 C367 1.507 . S
C362 C363 1.387 . S
C362 C366 1.391 . S
C363 C362 1.387 . S
C363 C364 1.384 . S
C363 H372 0.930 . S
C364 C361 1.380 . S
C364 C363 1.384 . S
C364 H373 0.931 . S
C365 C361 1.374 . S
C365 C366 1.390 . S
C365 H374 0.930 . S
C366 C362 1.391 . S
C366 C365 1.390 . S
C366 H375 0.930 . S
C367 Eu337 2.825 . S
C367 O352 1.238 . S
C367 O353 1.247 . S
C367 C361 1.507 . S
H368 C341 0.930 . S
H369 C342 0.931 . S
H370 C343 0.930 1_554 S
H371 C344 0.930 . S
H372 C363 0.930 . S
H373 C364 0.931 . S
H374 C365 0.930 . S
H375 C366 0.930 . S
Tb376 C386 2.825 . S
Tb376 O387 2.347 . S
Tb376 O390 2.366 . S
Tb376 O395 2.418 . S
Tb376 O396 2.384 . S
Tb376 O399 2.479 . S
Tb376 O400 2.471 . S
Eu377 O388 2.418 . S
Eu377 O389 2.384 . S
Eu377 O392 2.479 . S
Eu377 O393 2.471 . S
Eu377 O394 2.347 . S
Eu377 O397 2.366 . S
Eu377 C407 2.825 . S
C378 O394 1.259 . S
C378 O395 1.265 . S
C379 O396 1.255 . S
C379 O397 1.265 . S
C380 C382 1.380 . S
C380 C383 1.374 . S
C380 C386 1.507 . S
C381 C382 1.384 . S
C381 C385 1.387 . S
C381 H408 0.930 . S
C382 C380 1.380 . S
C382 C381 1.384 . S
C382 H409 0.931 . S
C383 C380 1.374 . S
C383 C384 1.390 . S
C383 H410 0.930 . S
C384 C383 1.390 . S
C384 C385 1.391 . S
C384 H411 0.930 . S
C385 C381 1.387 . S
C385 C384 1.391 . S
C386 Tb376 2.825 . S
C386 C380 1.507 . S
C386 O399 1.238 . S
C386 O400 1.247 . S
O387 Tb376 2.347 . S
O387 C391 1.259 . S
O388 Eu377 2.418 . S
O388 C391 1.265 . S
O389 Eu377 2.384 . S
O389 C398 1.255 . S
O390 Tb376 2.366 . S
O390 C398 1.265 . S
C391 O387 1.259 . S
C391 O388 1.265 . S
O392 Eu377 2.479 . S
O392 C407 1.238 . S
O393 Eu377 2.471 . S
O393 C407 1.247 . S
O394 Eu377 2.347 . S
O394 C378 1.259 . S
O395 Tb376 2.418 . S
O395 C378 1.265 . S
O396 Tb376 2.384 . S
O396 C379 1.255 . S
O397 Eu377 2.366 . S
O397 C379 1.265 . S
C398 O389 1.255 . S
C398 O390 1.265 . S
O399 Tb376 2.479 . S
O399 C386 1.238 . S
O400 Tb376 2.471 . S
O400 C386 1.247 . S
C401 C404 1.380 . S
C401 C405 1.374 . S
C401 C407 1.507 . S
C402 C403 1.387 . S
C402 C406 1.391 . S
C403 C402 1.387 . S
C403 C404 1.384 . S
C403 H412 0.930 . S
C404 C401 1.380 . S
C404 C403 1.384 . S
C404 H413 0.931 . S
C405 C401 1.374 . S
C405 C406 1.390 . S
C405 H414 0.930 . S
C406 C402 1.391 . S
C406 C405 1.390 . S
C406 H415 0.930 . S
C407 Eu377 2.825 . S
C407 O392 1.238 . S
C407 O393 1.247 . S
C407 C401 1.507 . S
H408 C381 0.930 . S
H409 C382 0.931 . S
H410 C383 0.930 . S
H411 C384 0.930 . S
H412 C403 0.930 . S
H413 C404 0.931 . S
H414 C405 0.930 . S
H415 C406 0.930 . S
Tb416 C426 2.825 1_545 S
Tb416 O427 2.347 . S
Tb416 O430 2.366 . S
Tb416 O435 2.418 . S
Tb416 O436 2.384 . S
Tb416 O439 2.479 1_545 S
Tb416 O440 2.471 1_545 S
Eu417 O428 2.418 . S
Eu417 O429 2.384 . S
Eu417 O432 2.479 . S
Eu417 O433 2.471 . S
Eu417 O434 2.347 . S
Eu417 O437 2.366 . S
Eu417 C447 2.825 . S
C418 O434 1.259 . S
C418 O435 1.265 . S
C419 O436 1.255 . S
C419 O437 1.265 . S
C420 C422 1.380 . S
C420 C423 1.374 . S
C420 C426 1.507 . S
C421 C422 1.384 . S
C421 C425 1.387 . S
C421 H448 0.930 . S
C422 C420 1.380 . S
C422 C421 1.384 . S
C422 H449 0.931 . S
C423 C420 1.374 . S
C423 C424 1.390 . S
C423 H450 0.930 . S
C424 C423 1.390 . S
C424 C425 1.391 . S
C424 H451 0.930 . S
C425 C421 1.387 . S
C425 C424 1.391 . S
C426 Tb416 2.825 1_565 S
C426 C420 1.507 . S
C426 O439 1.238 . S
C426 O440 1.247 . S
O427 Tb416 2.347 . S
O427 C431 1.259 . S
O428 Eu417 2.418 . S
O428 C431 1.265 . S
O429 Eu417 2.384 . S
O429 C438 1.255 . S
O430 Tb416 2.366 . S
O430 C438 1.265 . S
C431 O427 1.259 . S
C431 O428 1.265 . S
O432 Eu417 2.479 . S
O432 C447 1.238 . S
O433 Eu417 2.471 . S
O433 C447 1.247 . S
O434 Eu417 2.347 . S
O434 C418 1.259 . S
O435 Tb416 2.418 . S
O435 C418 1.265 . S
O436 Tb416 2.384 . S
O436 C419 1.255 . S
O437 Eu417 2.366 . S
O437 C419 1.265 . S
C438 O429 1.255 . S
C438 O430 1.265 . S
O439 Tb416 2.479 1_565 S
O439 C426 1.238 . S
O440 Tb416 2.471 1_565 S
O440 C426 1.247 . S
C441 C444 1.380 . S
C441 C445 1.374 . S
C441 C447 1.507 . S
C442 C443 1.387 . S
C442 C446 1.391 . S
C443 C442 1.387 . S
C443 C444 1.384 . S
C443 H452 0.930 . S
C444 C441 1.380 . S
C444 C443 1.384 . S
C444 H453 0.931 . S
C445 C441 1.374 . S
C445 C446 1.390 . S
C445 H454 0.930 . S
C446 C442 1.391 . S
C446 C445 1.390 . S
C446 H455 0.930 . S
C447 Eu417 2.825 . S
C447 O432 1.238 . S
C447 O433 1.247 . S
C447 C441 1.507 . S
H448 C421 0.930 . S
H449 C422 0.931 . S
H450 C423 0.930 . S
H451 C424 0.930 . S
H452 C443 0.930 . S
H453 C444 0.931 . S
H454 C445 0.930 . S
H455 C446 0.930 . S
Tb456 C466 2.825 . S
Tb456 O467 2.347 . S
Tb456 O470 2.366 . S
Tb456 O475 2.418 . S
Tb456 O476 2.384 . S
Tb456 O479 2.479 . S
Tb456 O480 2.471 . S
Eu457 O468 2.418 . S
Eu457 O469 2.384 . S
Eu457 O472 2.479 . S
Eu457 O473 2.471 . S
Eu457 O474 2.347 . S
Eu457 O477 2.366 . S
Eu457 C487 2.825 . S
C458 O474 1.259 . S
C458 O475 1.265 . S
C459 O476 1.255 . S
C459 O477 1.265 . S
C460 C462 1.380 . S
C460 C463 1.374 . S
C460 C466 1.507 . S
C461 C462 1.384 . S
C461 C465 1.387 . S
C461 H488 0.930 . S
C462 C460 1.380 . S
C462 C461 1.384 . S
C462 H489 0.931 . S
C463 C460 1.374 . S
C463 C464 1.390 . S
C463 H490 0.930 . S
C464 C463 1.390 . S
C464 C465 1.391 . S
C464 H491 0.930 . S
C465 C461 1.387 . S
C465 C464 1.391 . S
C466 Tb456 2.825 . S
C466 C460 1.507 . S
C466 O479 1.238 . S
C466 O480 1.247 . S
O467 Tb456 2.347 . S
O467 C471 1.259 . S
O468 Eu457 2.418 . S
O468 C471 1.265 . S
O469 Eu457 2.384 . S
O469 C478 1.255 . S
O470 Tb456 2.366 . S
O470 C478 1.265 . S
C471 O467 1.259 . S
C471 O468 1.265 . S
O472 Eu457 2.479 . S
O472 C487 1.238 . S
O473 Eu457 2.471 . S
O473 C487 1.247 . S
O474 Eu457 2.347 . S
O474 C458 1.259 . S
O475 Tb456 2.418 . S
O475 C458 1.265 . S
O476 Tb456 2.384 . S
O476 C459 1.255 . S
O477 Eu457 2.366 . S
O477 C459 1.265 . S
C478 O469 1.255 . S
C478 O470 1.265 . S
O479 Tb456 2.479 . S
O479 C466 1.238 . S
O480 Tb456 2.471 . S
O480 C466 1.247 . S
C481 C484 1.380 . S
C481 C485 1.374 . S
C481 C487 1.507 . S
C482 C483 1.387 . S
C482 C486 1.391 . S
C483 C482 1.387 . S
C483 C484 1.384 . S
C483 H492 0.930 . S
C484 C481 1.380 . S
C484 C483 1.384 . S
C484 H493 0.931 . S
C485 C481 1.374 . S
C485 C486 1.390 . S
C485 H494 0.930 . S
C486 C482 1.391 . S
C486 C485 1.390 . S
C486 H495 0.930 . S
C487 Eu457 2.825 . S
C487 O472 1.238 . S
C487 O473 1.247 . S
C487 C481 1.507 . S
H488 C461 0.930 . S
H489 C462 0.931 . S
H490 C463 0.930 . S
H491 C464 0.930 . S
H492 C483 0.930 . S
H493 C484 0.931 . S
H494 C485 0.930 . S
H495 C486 0.930 . S
Tb496 C506 2.825 . S
Tb496 O507 2.347 . S
Tb496 O510 2.366 . S
Tb496 O515 2.418 . S
Tb496 O516 2.384 . S
Tb496 O519 2.479 . S
Tb496 O520 2.471 . S
Eu497 O508 2.416 . S
Eu497 O509 2.384 . S
Eu497 O512 2.479 . S
Eu497 O513 2.471 . S
Eu497 O514 2.347 . S
Eu497 O517 2.366 . S
Eu497 C527 2.825 . S
C498 O514 1.259 . S
C498 O515 1.265 . S
C499 O516 1.255 . S
C499 O517 1.265 . S
C500 C502 1.380 . S
C500 C503 1.374 1_455 S
C500 C506 1.507 . S
C501 C502 1.384 . S
C501 C505 1.387 1_455 S
C501 H528 0.930 . S
C502 C500 1.380 . S
C502 C501 1.384 . S
C502 H529 0.931 . S
C503 C500 1.374 1_655 S
C503 C504 1.390 . S
C503 H530 0.930 . S
C504 C503 1.390 . S
C504 C505 1.391 . S
C504 H531 0.930 . S
C505 C501 1.387 1_655 S
C505 C504 1.391 . S
C506 Tb496 2.825 . S
C506 C500 1.507 . S
C506 O519 1.238 . S
C506 O520 1.247 . S
O507 Tb496 2.347 . S
O507 C511 1.259 1_455 S
O508 Eu497 2.416 . S
O508 C511 1.265 1_455 S
O509 Eu497 2.384 . S
O509 C518 1.255 . S
O510 Tb496 2.366 . S
O510 C518 1.265 . S
C511 O507 1.259 1_655 S
C511 O508 1.265 1_655 S
O512 Eu497 2.479 . S
O512 C527 1.238 . S
O513 Eu497 2.471 . S
O513 C527 1.247 . S
O514 Eu497 2.347 . S
O514 C498 1.259 . S
O515 Tb496 2.418 . S
O515 C498 1.265 . S
O516 Tb496 2.384 . S
O516 C499 1.255 . S
O517 Eu497 2.366 . S
O517 C499 1.265 . S
C518 O509 1.255 . S
C518 O510 1.265 . S
O519 Tb496 2.479 . S
O519 C506 1.238 . S
O520 Tb496 2.471 . S
O520 C506 1.247 . S
C521 C524 1.380 . S
C521 C525 1.374 . S
C521 C527 1.507 . S
C522 C523 1.387 . S
C522 C526 1.391 . S
C523 C522 1.387 . S
C523 C524 1.384 . S
C523 H532 0.930 . S
C524 C521 1.380 . S
C524 C523 1.384 . S
C524 H533 0.931 . S
C525 C521 1.374 . S
C525 C526 1.390 . S
C525 H534 0.930 . S
C526 C522 1.391 . S
C526 C525 1.390 . S
C526 H535 0.930 . S
C527 Eu497 2.825 . S
C527 O512 1.238 . S
C527 O513 1.247 . S
C527 C521 1.507 . S
H528 C501 0.930 . S
H529 C502 0.931 . S
H530 C503 0.930 . S
H531 C504 0.930 . S
H532 C523 0.930 . S
H533 C524 0.931 . S
H534 C525 0.930 . S
H535 C526 0.930 . S
Tb536 C546 2.825 . S
Tb536 O547 2.347 . S
Tb536 O550 2.366 . S
Tb536 O555 2.418 . S
Tb536 O556 2.384 . S
Tb536 O559 2.479 . S
Tb536 O560 2.471 . S
Eu537 O548 2.418 . S
Eu537 O549 2.384 . S
Eu537 O552 2.479 . S
Eu537 O553 2.471 . S
Eu537 O554 2.347 . S
Eu537 O557 2.366 . S
Eu537 C567 2.825 . S
C538 O554 1.259 . S
C538 O555 1.265 . S
C539 O556 1.255 . S
C539 O557 1.265 . S
C540 C542 1.380 . S
C540 C543 1.374 . S
C540 C546 1.507 . S
C541 C542 1.384 . S
C541 C545 1.387 . S
C541 H568 0.930 . S
C542 C540 1.380 . S
C542 C541 1.384 . S
C542 H569 0.931 . S
C543 C540 1.374 . S
C543 C544 1.390 . S
C543 H570 0.930 . S
C544 C543 1.390 . S
C544 C545 1.391 . S
C544 H571 0.930 . S
C545 C541 1.387 . S
C545 C544 1.391 . S
C546 Tb536 2.825 . S
C546 C540 1.507 . S
C546 O559 1.238 . S
C546 O560 1.247 . S
O547 Tb536 2.347 . S
O547 C551 1.259 . S
O548 Eu537 2.418 . S
O548 C551 1.265 . S
O549 Eu537 2.384 . S
O549 C558 1.255 . S
O550 Tb536 2.366 . S
O550 C558 1.265 . S
C551 O547 1.259 . S
C551 O548 1.265 . S
O552 Eu537 2.479 . S
O552 C567 1.238 . S
O553 Eu537 2.471 . S
O553 C567 1.247 . S
O554 Eu537 2.347 . S
O554 C538 1.259 . S
O555 Tb536 2.418 . S
O555 C538 1.265 . S
O556 Tb536 2.384 . S
O556 C539 1.255 . S
O557 Eu537 2.366 . S
O557 C539 1.265 . S
C558 O549 1.255 . S
C558 O550 1.265 . S
O559 Tb536 2.479 . S
O559 C546 1.238 . S
O560 Tb536 2.471 . S
O560 C546 1.247 . S
C561 C564 1.380 . S
C561 C565 1.374 . S
C561 C567 1.507 . S
C562 C563 1.387 . S
C562 C566 1.391 . S
C563 C562 1.387 . S
C563 C564 1.384 . S
C563 H572 0.930 . S
C564 C561 1.380 . S
C564 C563 1.384 . S
C564 H573 0.931 . S
C565 C561 1.374 . S
C565 C566 1.390 . S
C565 H574 0.930 . S
C566 C562 1.391 . S
C566 C565 1.390 . S
C566 H575 0.930 . S
C567 Eu537 2.825 . S
C567 O552 1.238 . S
C567 O553 1.247 . S
C567 C561 1.507 . S
H568 C541 0.930 . S
H569 C542 0.931 . S
H570 C543 0.930 . S
H571 C544 0.930 . S
H572 C563 0.930 . S
H573 C564 0.931 . S
H574 C565 0.930 . S
H575 C566 0.930 . S
Tb576 C586 2.825 . S
Tb576 O587 2.347 . S
Tb576 O590 2.366 . S
Tb576 O595 2.418 . S
Tb576 O596 2.384 . S
Tb576 O599 2.479 . S
Tb576 O600 2.471 . S
Eu577 O588 2.418 1_556 S
Eu577 O589 2.384 1_556 S
Eu577 O592 2.479 . S
Eu577 O593 2.471 . S
Eu577 O594 2.347 1_556 S
Eu577 O597 2.366 . S
Eu577 C607 2.825 . S
C578 O594 1.259 . S
C578 O595 1.265 . S
C579 O596 1.255 . S
C579 O597 1.265 1_554 S
C580 C582 1.380 . S
C580 C583 1.374 . S
C580 C586 1.507 . S
C581 C582 1.384 . S
C581 C585 1.387 . S
C581 H608 0.930 . S
C582 C580 1.380 . S
C582 C581 1.384 . S
C582 H609 0.931 . S
C583 C580 1.374 . S
C583 C584 1.390 . S
C583 H610 0.930 . S
C584 C583 1.390 . S
C584 C585 1.391 . S
C584 H611 0.930 . S
C585 C581 1.387 . S
C585 C584 1.391 . S
C586 Tb576 2.825 . S
C586 C580 1.507 . S
C586 O599 1.238 . S
C586 O600 1.247 . S
O587 Tb576 2.347 . S
O587 C591 1.259 . S
O588 Eu577 2.418 1_554 S
O588 C591 1.265 . S
O589 Eu577 2.384 1_554 S
O589 C598 1.255 . S
O590 Tb576 2.366 . S
O590 C598 1.265 . S
C591 O587 1.259 . S
C591 O588 1.265 . S
O592 Eu577 2.479 . S
O592 C607 1.238 . S
O593 Eu577 2.471 . S
O593 C607 1.247 . S
O594 Eu577 2.347 1_554 S
O594 C578 1.259 . S
O595 Tb576 2.418 . S
O595 C578 1.265 . S
O596 Tb576 2.384 . S
O596 C579 1.255 . S
O597 Eu577 2.366 . S
O597 C579 1.265 1_556 S
C598 O589 1.255 . S
C598 O590 1.265 . S
O599 Tb576 2.479 . S
O599 C586 1.238 . S
O600 Tb576 2.471 . S
O600 C586 1.247 . S
C601 C604 1.380 . S
C601 C605 1.374 . S
C601 C607 1.507 . S
C602 C603 1.387 . S
C602 C606 1.391 . S
C603 C602 1.387 . S
C603 C604 1.384 . S
C603 H612 0.930 . S
C604 C601 1.380 . S
C604 C603 1.384 . S
C604 H613 0.931 . S
C605 C601 1.374 . S
C605 C606 1.390 . S
C605 H614 0.930 . S
C606 C602 1.391 . S
C606 C605 1.390 . S
C606 H615 0.930 . S
C607 Eu577 2.825 . S
C607 O592 1.238 . S
C607 O593 1.247 . S
C607 C601 1.507 . S
H608 C581 0.930 . S
H609 C582 0.931 . S
H610 C583 0.930 . S
H611 C584 0.930 . S
H612 C603 0.930 . S
H613 C604 0.931 . S
H614 C605 0.930 . S
H615 C606 0.930 . S
Tb616 C626 2.825 . S
Tb616 O627 2.347 . S
Tb616 O630 2.366 . S
Tb616 O635 2.418 . S
Tb616 O636 2.384 . S
Tb616 O639 2.479 . S
Tb616 O640 2.471 . S
Eu617 O628 2.418 . S
Eu617 O629 2.384 . S
Eu617 O632 2.479 . S
Eu617 O633 2.471 . S
Eu617 O634 2.347 . S
Eu617 O637 2.366 . S
Eu617 C647 2.825 . S
C618 O634 1.259 . S
C618 O635 1.265 . S
C619 O636 1.255 . S
C619 O637 1.265 . S
C620 C622 1.380 . S
C620 C623 1.374 . S
C620 C626 1.507 . S
C621 C622 1.384 . S
C621 C625 1.387 . S
C621 H648 0.930 . S
C622 C620 1.380 . S
C622 C621 1.384 . S
C622 H649 0.931 . S
C623 C620 1.374 . S
C623 C624 1.390 . S
C623 H650 0.930 . S
C624 C623 1.390 . S
C624 C625 1.391 . S
C624 H651 0.930 . S
C625 C621 1.387 . S
C625 C624 1.391 . S
C626 Tb616 2.825 . S
C626 C620 1.507 . S
C626 O639 1.238 . S
C626 O640 1.247 . S
O627 Tb616 2.347 . S
O627 C631 1.259 . S
O628 Eu617 2.418 . S
O628 C631 1.265 . S
O629 Eu617 2.384 . S
O629 C638 1.255 . S
O630 Tb616 2.366 . S
O630 C638 1.265 . S
C631 O627 1.259 . S
C631 O628 1.265 . S
O632 Eu617 2.479 . S
O632 C647 1.238 . S
O633 Eu617 2.471 . S
O633 C647 1.247 . S
O634 Eu617 2.347 . S
O634 C618 1.259 . S
O635 Tb616 2.418 . S
O635 C618 1.265 . S
O636 Tb616 2.384 . S
O636 C619 1.255 . S
O637 Eu617 2.366 . S
O637 C619 1.265 . S
C638 O629 1.255 . S
C638 O630 1.265 . S
O639 Tb616 2.479 . S
O639 C626 1.238 . S
O640 Tb616 2.471 . S
O640 C626 1.247 . S
C641 C644 1.380 . S
C641 C645 1.374 . S
C641 C647 1.507 . S
C642 C643 1.387 . S
C642 C646 1.391 . S
C643 C642 1.387 . S
C643 C644 1.384 . S
C643 H652 0.930 . S
C644 C641 1.380 . S
C644 C643 1.384 . S
C644 H653 0.931 . S
C645 C641 1.374 . S
C645 C646 1.390 . S
C645 H654 0.930 . S
C646 C642 1.391 . S
C646 C645 1.390 . S
C646 H655 0.930 . S
C647 Eu617 2.825 . S
C647 O632 1.238 . S
C647 O633 1.247 . S
C647 C641 1.507 . S
H648 C621 0.930 . S
H649 C622 0.931 . S
H650 C623 0.930 . S
H651 C624 0.930 . S
H652 C643 0.930 . S
H653 C644 0.931 . S
H654 C645 0.930 . S
H655 C646 0.930 . S
Tb656 C666 2.825 . S
Tb656 O667 2.347 1_556 S
Tb656 O670 2.366 . S
Tb656 O675 2.418 . S
Tb656 O676 2.384 1_556 S
Tb656 O679 2.479 . S
Tb656 O680 2.471 . S
Eu657 O668 2.418 . S
Eu657 O669 2.384 . S
Eu657 O672 2.479 . S
Eu657 O673 2.471 . S
Eu657 O674 2.347 . S
Eu657 O677 2.366 . S
Eu657 C687 2.825 . S
C658 O674 1.259 . S
C658 O675 1.265 1_554 S
C659 O676 1.255 . S
C659 O677 1.265 . S
C660 C662 1.380 . S
C660 C663 1.374 . S
C660 C666 1.507 . S
C661 C662 1.384 . S
C661 C665 1.387 . S
C661 H688 0.930 . S
C662 C660 1.380 . S
C662 C661 1.384 . S
C662 H689 0.931 . S
C663 C660 1.374 . S
C663 C664 1.390 . S
C663 H690 0.930 . S
C664 C663 1.390 . S
C664 C665 1.391 . S
C664 H691 0.930 . S
C665 C661 1.387 . S
C665 C664 1.391 . S
C666 Tb656 2.825 . S
C666 C660 1.507 . S
C666 O679 1.238 . S
C666 O680 1.247 . S
O667 Tb656 2.347 1_554 S
O667 C671 1.259 . S
O668 Eu657 2.418 . S
O668 C671 1.265 . S
O669 Eu657 2.384 . S
O669 C678 1.255 1_554 S
O670 Tb656 2.366 . S
O670 C678 1.265 . S
C671 O667 1.259 . S
C671 O668 1.265 . S
O672 Eu657 2.479 . S
O672 C687 1.238 . S
O673 Eu657 2.471 . S
O673 C687 1.247 . S
O674 Eu657 2.347 . S
O674 C658 1.259 . S
O675 Tb656 2.418 . S
O675 C658 1.265 1_556 S
O676 Tb656 2.384 1_554 S
O676 C659 1.255 . S
O677 Eu657 2.366 . S
O677 C659 1.265 . S
C678 O669 1.255 1_556 S
C678 O670 1.265 . S
O679 Tb656 2.479 . S
O679 C666 1.238 . S
O680 Tb656 2.471 . S
O680 C666 1.247 . S
C681 C684 1.380 . S
C681 C685 1.374 . S
C681 C687 1.507 . S
C682 C683 1.387 . S
C682 C686 1.391 . S
C683 C682 1.387 . S
C683 C684 1.384 . S
C683 H692 0.930 . S
C684 C681 1.380 . S
C684 C683 1.384 . S
C684 H693 0.931 . S
C685 C681 1.374 . S
C685 C686 1.390 . S
C685 H694 0.930 . S
C686 C682 1.391 . S
C686 C685 1.390 . S
C686 H695 0.930 . S
C687 Eu657 2.825 . S
C687 O672 1.238 . S
C687 O673 1.247 . S
C687 C681 1.507 . S
H688 C661 0.930 . S
H689 C662 0.931 . S
H690 C663 0.930 . S
H691 C664 0.930 . S
H692 C683 0.930 . S
H693 C684 0.931 . S
H694 C685 0.930 . S
H695 C686 0.930 . S
Tb696 C706 2.825 . S
Tb696 O707 2.347 . S
Tb696 O710 2.366 . S
Tb696 O715 2.418 . S
Tb696 O716 2.384 . S
Tb696 O719 2.479 . S
Tb696 O720 2.471 . S
Eu697 O708 2.418 . S
Eu697 O709 2.384 . S
Eu697 O712 2.479 . S
Eu697 O713 2.471 . S
Eu697 O714 2.347 . S
Eu697 O717 2.366 . S
Eu697 C727 2.825 . S
C698 O714 1.259 . S
C698 O715 1.265 . S
C699 O716 1.255 . S
C699 O717 1.265 . S
C700 C702 1.380 . S
C700 C703 1.374 . S
C700 C706 1.507 . S
C701 C702 1.384 . S
C701 C705 1.387 . S
C701 H728 0.930 . S
C702 C700 1.380 . S
C702 C701 1.384 . S
C702 H729 0.931 . S
C703 C700 1.374 . S
C703 C704 1.390 . S
C703 H730 0.930 . S
C704 C703 1.390 . S
C704 C705 1.391 . S
C704 H731 0.930 . S
C705 C701 1.387 . S
C705 C704 1.391 . S
C706 Tb696 2.825 . S
C706 C700 1.507 . S
C706 O719 1.238 . S
C706 O720 1.247 . S
O707 Tb696 2.347 . S
O707 C711 1.259 . S
O708 Eu697 2.418 . S
O708 C711 1.265 . S
O709 Eu697 2.384 . S
O709 C718 1.255 . S
O710 Tb696 2.366 . S
O710 C718 1.265 . S
C711 O707 1.259 . S
C711 O708 1.265 . S
O712 Eu697 2.479 . S
O712 C727 1.238 . S
O713 Eu697 2.471 . S
O713 C727 1.247 . S
O714 Eu697 2.347 . S
O714 C698 1.259 . S
O715 Tb696 2.418 . S
O715 C698 1.265 . S
O716 Tb696 2.384 . S
O716 C699 1.255 . S
O717 Eu697 2.366 . S
O717 C699 1.265 . S
C718 O709 1.255 . S
C718 O710 1.265 . S
O719 Tb696 2.479 . S
O719 C706 1.238 . S
O720 Tb696 2.471 . S
O720 C706 1.247 . S
C721 C724 1.380 . S
C721 C725 1.374 . S
C721 C727 1.507 . S
C722 C723 1.387 . S
C722 C726 1.391 . S
C723 C722 1.387 . S
C723 C724 1.384 . S
C723 H732 0.930 . S
C724 C721 1.380 . S
C724 C723 1.384 . S
C724 H733 0.931 . S
C725 C721 1.374 . S
C725 C726 1.390 . S
C725 H734 0.930 . S
C726 C722 1.391 . S
C726 C725 1.390 . S
C726 H735 0.930 . S
C727 Eu697 2.825 . S
C727 O712 1.238 . S
C727 O713 1.247 . S
C727 C721 1.507 . S
H728 C701 0.930 . S
H729 C702 0.931 . S
H730 C703 0.930 . S
H731 C704 0.930 . S
H732 C723 0.930 . S
H733 C724 0.931 . S
H734 C725 0.930 . S
H735 C726 0.930 . S
Tb736 C746 2.825 . S
Tb736 O747 2.347 . S
Tb736 O750 2.366 . S
Tb736 O755 2.418 . S
Tb736 O756 2.384 . S
Tb736 O759 2.479 . S
Tb736 O760 2.471 . S
Eu737 O748 2.418 . S
Eu737 O749 2.384 1_455 S
Eu737 O752 2.479 . S
Eu737 O753 2.471 . S
Eu737 O754 2.347 . S
Eu737 O757 2.366 . S
Eu737 C767 2.825 . S
C738 O754 1.259 . S
C738 O755 1.265 . S
C739 O756 1.255 . S
C739 O757 1.265 . S
C740 C742 1.380 . S
C740 C743 1.374 . S
C740 C746 1.507 . S
C741 C742 1.384 . S
C741 C745 1.387 . S
C741 H768 0.930 . S
C742 C740 1.380 . S
C742 C741 1.384 . S
C742 H769 0.931 . S
C743 C740 1.374 . S
C743 C744 1.390 . S
C743 H770 0.930 . S
C744 C743 1.390 . S
C744 C745 1.391 . S
C744 H771 0.930 1_455 S
C745 C741 1.387 . S
C745 C744 1.391 . S
C746 Tb736 2.825 . S
C746 C740 1.507 . S
C746 O759 1.238 . S
C746 O760 1.247 . S
O747 Tb736 2.347 . S
O747 C751 1.259 . S
O748 Eu737 2.418 . S
O748 C751 1.265 . S
O749 Eu737 2.384 1_655 S
O749 C758 1.255 . S
O750 Tb736 2.366 . S
O750 C758 1.265 1_455 S
C751 O747 1.259 . S
C751 O748 1.265 . S
O752 Eu737 2.479 . S
O752 C767 1.238 . S
O753 Eu737 2.471 . S
O753 C767 1.247 . S
O754 Eu737 2.347 . S
O754 C738 1.259 . S
O755 Tb736 2.418 . S
O755 C738 1.265 . S
O756 Tb736 2.384 . S
O756 C739 1.255 . S
O757 Eu737 2.366 . S
O757 C739 1.265 . S
C758 O749 1.255 . S
C758 O750 1.265 1_655 S
O759 Tb736 2.479 . S
O759 C746 1.238 . S
O760 Tb736 2.471 . S
O760 C746 1.247 . S
C761 C764 1.380 . S
C761 C765 1.374 . S
C761 C767 1.507 . S
C762 C763 1.387 . S
C762 C766 1.391 . S
C763 C762 1.387 . S
C763 C764 1.384 . S
C763 H772 0.930 . S
C764 C761 1.380 . S
C764 C763 1.384 . S
C764 H773 0.931 . S
C765 C761 1.374 . S
C765 C766 1.390 . S
C765 H774 0.930 . S
C766 C762 1.391 . S
C766 C765 1.390 . S
C766 H775 0.930 . S
C767 Eu737 2.825 . S
C767 O752 1.238 . S
C767 O753 1.247 . S
C767 C761 1.507 . S
H768 C741 0.930 . S
H769 C742 0.931 . S
H770 C743 0.930 . S
H771 C744 0.930 1_655 S
H772 C763 0.930 . S
H773 C764 0.931 . S
H774 C765 0.930 . S
H775 C766 0.930 . S
Tb776 C786 2.825 . S
Tb776 O787 2.347 . S
Tb776 O790 2.366 . S
Tb776 O795 2.418 . S
Tb776 O796 2.384 . S
Tb776 O799 2.479 . S
Tb776 O800 2.471 . S
Eu777 O788 2.418 . S
Eu777 O789 2.384 . S
Eu777 O792 2.479 . S
Eu777 O793 2.471 . S
Eu777 O794 2.347 . S
Eu777 O797 2.366 . S
Eu777 C807 2.825 . S
C778 O794 1.259 . S
C778 O795 1.265 . S
C779 O796 1.255 . S
C779 O797 1.265 . S
C780 C782 1.380 . S
C780 C783 1.374 . S
C780 C786 1.507 . S
C781 C782 1.384 . S
C781 C785 1.387 . S
C781 H808 0.930 . S
C782 C780 1.380 . S
C782 C781 1.384 . S
C782 H809 0.931 . S
C783 C780 1.374 . S
C783 C784 1.390 . S
C783 H810 0.930 . S
C784 C783 1.390 . S
C784 C785 1.391 . S
C784 H811 0.930 . S
C785 C781 1.387 . S
C785 C784 1.391 . S
C786 Tb776 2.825 . S
C786 C780 1.507 . S
C786 O799 1.238 . S
C786 O800 1.247 . S
O787 Tb776 2.347 . S
O787 C791 1.259 . S
O788 Eu777 2.418 . S
O788 C791 1.265 . S
O789 Eu777 2.384 . S
O789 C798 1.255 . S
O790 Tb776 2.366 . S
O790 C798 1.265 . S
C791 O787 1.259 . S
C791 O788 1.265 . S
O792 Eu777 2.479 . S
O792 C807 1.238 . S
O793 Eu777 2.471 . S
O793 C807 1.247 . S
O794 Eu777 2.347 . S
O794 C778 1.259 . S
O795 Tb776 2.418 . S
O795 C778 1.265 . S
O796 Tb776 2.384 . S
O796 C779 1.255 . S
O797 Eu777 2.366 . S
O797 C779 1.265 . S
C798 O789 1.255 . S
C798 O790 1.265 . S
O799 Tb776 2.479 . S
O799 C786 1.238 . S
O800 Tb776 2.471 . S
O800 C786 1.247 . S
C801 C804 1.380 . S
C801 C805 1.374 . S
C801 C807 1.507 . S
C802 C803 1.387 . S
C802 C806 1.391 . S
C803 C802 1.387 . S
C803 C804 1.384 . S
C803 H812 0.930 . S
C804 C801 1.380 . S
C804 C803 1.384 . S
C804 H813 0.931 . S
C805 C801 1.374 . S
C805 C806 1.390 . S
C805 H814 0.930 . S
C806 C802 1.391 . S
C806 C805 1.390 . S
C806 H815 0.930 . S
C807 Eu777 2.825 . S
C807 O792 1.238 . S
C807 O793 1.247 . S
C807 C801 1.507 . S
H808 C781 0.930 . S
H809 C782 0.931 . S
H810 C783 0.930 . S
H811 C784 0.930 . S
H812 C803 0.930 . S
H813 C804 0.931 . S
H814 C805 0.930 . S
H815 C806 0.930 . S
Tb816 C826 2.825 . S
Tb816 O827 2.347 . S
Tb816 O830 2.366 . S
Tb816 O835 2.418 . S
Tb816 O836 2.384 . S
Tb816 O839 2.479 . S
Tb816 O840 2.471 . S
Eu817 O828 2.418 . S
Eu817 O829 2.384 . S
Eu817 O832 2.479 . S
Eu817 O833 2.471 . S
Eu817 O834 2.347 . S
Eu817 O837 2.366 . S
Eu817 C847 2.825 . S
C818 O834 1.259 . S
C818 O835 1.265 . S
C819 O836 1.255 . S
C819 O837 1.265 . S
C820 C822 1.380 . S
C820 C823 1.374 . S
C820 C826 1.507 . S
C821 C822 1.384 . S
C821 C825 1.387 . S
C821 H848 0.930 . S
C822 C820 1.380 . S
C822 C821 1.384 . S
C822 H849 0.931 . S
C823 C820 1.374 . S
C823 C824 1.390 . S
C823 H850 0.930 . S
C824 C823 1.390 . S
C824 C825 1.391 . S
C824 H851 0.930 . S
C825 C821 1.387 . S
C825 C824 1.391 . S
C826 Tb816 2.825 . S
C826 C820 1.507 . S
C826 O839 1.238 . S
C826 O840 1.247 . S
O827 Tb816 2.347 . S
O827 C831 1.259 . S
O828 Eu817 2.418 . S
O828 C831 1.265 . S
O829 Eu817 2.384 . S
O829 C838 1.255 . S
O830 Tb816 2.366 . S
O830 C838 1.265 . S
C831 O827 1.259 . S
C831 O828 1.265 . S
O832 Eu817 2.479 . S
O832 C847 1.238 . S
O833 Eu817 2.471 . S
O833 C847 1.247 . S
O834 Eu817 2.347 . S
O834 C818 1.259 . S
O835 Tb816 2.418 . S
O835 C818 1.265 . S
O836 Tb816 2.384 . S
O836 C819 1.255 . S
O837 Eu817 2.366 . S
O837 C819 1.265 . S
C838 O829 1.255 . S
C838 O830 1.265 . S
O839 Tb816 2.479 . S
O839 C826 1.238 . S
O840 Tb816 2.471 . S
O840 C826 1.247 . S
C841 C844 1.380 . S
C841 C845 1.374 . S
C841 C847 1.507 . S
C842 C843 1.387 . S
C842 C846 1.391 . S
C843 C842 1.387 . S
C843 C844 1.384 . S
C843 H852 0.930 . S
C844 C841 1.380 . S
C844 C843 1.384 . S
C844 H853 0.931 . S
C845 C841 1.374 . S
C845 C846 1.390 . S
C845 H854 0.930 . S
C846 C842 1.391 . S
C846 C845 1.390 . S
C846 H855 0.930 . S
C847 Eu817 2.825 . S
C847 O832 1.238 . S
C847 O833 1.247 . S
C847 C841 1.507 . S
H848 C821 0.930 . S
H849 C822 0.931 . S
H850 C823 0.930 . S
H851 C824 0.930 . S
H852 C843 0.930 . S
H853 C844 0.931 . S
H854 C845 0.930 . S
H855 C846 0.930 . S
Tb856 C866 2.825 . S
Tb856 O867 2.347 . S
Tb856 O870 2.366 . S
Tb856 O875 2.418 . S
Tb856 O876 2.384 . S
Tb856 O879 2.479 . S
Tb856 O880 2.471 . S
Eu857 O868 2.418 . S
Eu857 O869 2.384 . S
Eu857 O872 2.479 . S
Eu857 O873 2.471 . S
Eu857 O874 2.347 . S
Eu857 O877 2.366 . S
Eu857 C887 2.825 . S
C858 O874 1.259 . S
C858 O875 1.265 . S
C859 O876 1.255 . S
C859 O877 1.265 . S
C860 C862 1.380 . S
C860 C863 1.374 . S
C860 C866 1.507 . S
C861 C862 1.384 . S
C861 C865 1.387 . S
C861 H888 0.930 . S
C862 C860 1.380 . S
C862 C861 1.384 . S
C862 H889 0.931 . S
C863 C860 1.374 . S
C863 C864 1.390 . S
C863 H890 0.930 . S
C864 C863 1.390 . S
C864 C865 1.391 . S
C864 H891 0.930 . S
C865 C861 1.387 . S
C865 C864 1.391 . S
C866 Tb856 2.825 . S
C866 C860 1.507 . S
C866 O879 1.238 . S
C866 O880 1.247 . S
O867 Tb856 2.347 . S
O867 C871 1.259 . S
O868 Eu857 2.418 . S
O868 C871 1.265 . S
O869 Eu857 2.384 . S
O869 C878 1.255 . S
O870 Tb856 2.366 . S
O870 C878 1.265 . S
C871 O867 1.259 . S
C871 O868 1.265 . S
O872 Eu857 2.479 . S
O872 C887 1.238 . S
O873 Eu857 2.471 . S
O873 C887 1.247 . S
O874 Eu857 2.347 . S
O874 C858 1.259 . S
O875 Tb856 2.418 . S
O875 C858 1.265 . S
O876 Tb856 2.384 . S
O876 C859 1.255 . S
O877 Eu857 2.366 . S
O877 C859 1.265 . S
C878 O869 1.255 . S
C878 O870 1.265 . S
O879 Tb856 2.479 . S
O879 C866 1.238 . S
O880 Tb856 2.471 . S
O880 C866 1.247 . S
C881 C884 1.380 . S
C881 C885 1.374 . S
C881 C887 1.507 . S
C882 C883 1.387 . S
C882 C886 1.391 . S
C883 C882 1.387 . S
C883 C884 1.384 . S
C883 H892 0.930 . S
C884 C881 1.380 . S
C884 C883 1.384 . S
C884 H893 0.931 . S
C885 C881 1.374 . S
C885 C886 1.390 . S
C885 H894 0.930 . S
C886 C882 1.391 . S
C886 C885 1.390 . S
C886 H895 0.930 . S
C887 Eu857 2.825 . S
C887 O872 1.238 . S
C887 O873 1.247 . S
C887 C881 1.507 . S
H888 C861 0.930 . S
H889 C862 0.931 . S
H890 C863 0.930 . S
H891 C864 0.930 . S
H892 C883 0.930 . S
H893 C884 0.931 . S
H894 C885 0.930 . S
H895 C886 0.930 . S
Tb896 C906 2.825 . S
Tb896 O907 2.347 . S
Tb896 O910 2.366 . S
Tb896 O915 2.418 . S
Tb896 O916 2.384 . S
Tb896 O919 2.479 . S
Tb896 O920 2.471 . S
Eu897 O908 2.418 . S
Eu897 O909 2.384 . S
Eu897 O912 2.479 . S
Eu897 O913 2.471 . S
Eu897 O914 2.347 . S
Eu897 O917 2.366 . S
Eu897 C927 2.825 . S
C898 O914 1.259 . S
C898 O915 1.265 . S
C899 O916 1.255 . S
C899 O917 1.265 . S
C900 C902 1.380 . S
C900 C903 1.374 . S
C900 C906 1.507 . S
C901 C902 1.384 . S
C901 C905 1.387 . S
C901 H928 0.930 . S
C902 C900 1.380 . S
C902 C901 1.384 . S
C902 H929 0.931 . S
C903 C900 1.374 . S
C903 C904 1.390 . S
C903 H930 0.930 . S
C904 C903 1.390 . S
C904 C905 1.391 . S
C904 H931 0.930 . S
C905 C901 1.387 . S
C905 C904 1.391 . S
C906 Tb896 2.825 . S
C906 C900 1.507 . S
C906 O919 1.238 . S
C906 O920 1.247 . S
O907 Tb896 2.347 . S
O907 C911 1.259 . S
O908 Eu897 2.418 . S
O908 C911 1.265 . S
O909 Eu897 2.384 . S
O909 C918 1.255 . S
O910 Tb896 2.366 . S
O910 C918 1.265 . S
C911 O907 1.259 . S
C911 O908 1.265 . S
O912 Eu897 2.479 . S
O912 C927 1.238 . S
O913 Eu897 2.471 . S
O913 C927 1.247 . S
O914 Eu897 2.347 . S
O914 C898 1.259 . S
O915 Tb896 2.418 . S
O915 C898 1.265 . S
O916 Tb896 2.384 . S
O916 C899 1.255 . S
O917 Eu897 2.366 . S
O917 C899 1.265 . S
C918 O909 1.255 . S
C918 O910 1.265 . S
O919 Tb896 2.479 . S
O919 C906 1.238 . S
O920 Tb896 2.471 . S
O920 C906 1.247 . S
C921 C924 1.380 . S
C921 C925 1.374 . S
C921 C927 1.507 . S
C922 C923 1.387 . S
C922 C926 1.391 . S
C923 C922 1.387 . S
C923 C924 1.384 . S
C923 H932 0.930 . S
C924 C921 1.380 . S
C924 C923 1.384 . S
C924 H933 0.931 . S
C925 C921 1.374 . S
C925 C926 1.390 . S
C925 H934 0.930 . S
C926 C922 1.391 . S
C926 C925 1.390 . S
C926 H935 0.930 . S
C927 Eu897 2.825 . S
C927 O912 1.238 . S
C927 O913 1.247 . S
C927 C921 1.507 . S
H928 C901 0.930 . S
H929 C902 0.931 . S
H930 C903 0.930 . S
H931 C904 0.930 . S
H932 C923 0.930 . S
H933 C924 0.931 . S
H934 C925 0.930 . S
H935 C926 0.930 . S
Tb936 C946 2.825 1_554 S
Tb936 O947 2.347 1_554 S
Tb936 O950 2.366 . S
Tb936 O955 2.418 . S
Tb936 O956 2.384 1_455 S
Tb936 O959 2.479 . S
Tb936 O960 2.471 1_554 S
Eu937 O948 2.418 1_554 S
Eu937 O949 2.384 . S
Eu937 O952 2.479 . S
Eu937 O953 2.471 . S
Eu937 O954 2.347 . S
Eu937 O957 2.366 . S
Eu937 C967 2.825 . S
C938 O954 1.259 . S
C938 O955 1.265 . S
C939 O956 1.255 1_455 S
C939 O957 1.265 . S
C940 C942 1.380 . S
C940 C943 1.374 . S
C940 C946 1.507 . S
C941 C942 1.384 . S
C941 C945 1.387 . S
C941 H968 0.930 . S
C942 C940 1.380 . S
C942 C941 1.384 . S
C942 H969 0.931 1_556 S
C943 C940 1.374 . S
C943 C944 1.390 . S
C943 H970 0.930 . S
C944 C943 1.390 . S
C944 C945 1.391 . S
C944 H971 0.930 . S
C945 C941 1.387 . S
C945 C944 1.391 . S
C946 Tb936 2.825 1_556 S
C946 C940 1.507 . S
C946 O959 1.238 1_556 S
C946 O960 1.247 . S
O947 Tb936 2.347 1_556 S
O947 C951 1.259 . S
O948 Eu937 2.418 1_556 S
O948 C951 1.265 . S
O949 Eu937 2.384 . S
O949 C958 1.255 . S
O950 Tb936 2.366 . S
O950 C958 1.265 . S
C951 O947 1.259 . S
C951 O948 1.265 . S
O952 Eu937 2.479 . S
O952 C967 1.238 . S
O953 Eu937 2.471 . S
O953 C967 1.247 . S
O954 Eu937 2.347 . S
O954 C938 1.259 . S
O955 Tb936 2.418 . S
O955 C938 1.265 . S
O956 Tb936 2.384 1_655 S
O956 C939 1.255 1_655 S
O957 Eu937 2.366 . S
O957 C939 1.265 . S
C958 O949 1.255 . S
C958 O950 1.265 . S
O959 Tb936 2.479 . S
O959 C946 1.238 1_554 S
O960 Tb936 2.471 1_556 S
O960 C946 1.247 . S
C961 C964 1.380 . S
C961 C965 1.374 . S
C961 C967 1.507 . S
C962 C963 1.387 . S
C962 C966 1.391 . S
C963 C962 1.387 . S
C963 C964 1.384 . S
C963 H972 0.930 . S
C964 C961 1.380 . S
C964 C963 1.384 . S
C964 H973 0.931 . S
C965 C961 1.374 . S
C965 C966 1.390 . S
C965 H974 0.930 . S
C966 C962 1.391 . S
C966 C965 1.390 . S
C966 H975 0.930 . S
C967 Eu937 2.825 . S
C967 O952 1.238 . S
C967 O953 1.247 . S
C967 C961 1.507 . S
H968 C941 0.930 . S
H969 C942 0.931 1_554 S
H970 C943 0.930 . S
H971 C944 0.930 . S
H972 C963 0.930 . S
H973 C964 0.931 . S
H974 C965 0.930 . S
H975 C966 0.930 . S
C976 C977 1.369 . S
C976 C978 1.419 . S
C976 H980 0.930 . S
C977 C976 1.369 . S
C977 C986 1.429 1_455 S
C978 C976 1.419 . S
C978 C979 1.363 1_556 S
C978 H981 0.929 1_556 S
C979 C978 1.363 1_554 S
C979 C985 1.428 1_554 S
H980 C976 0.930 . S
H981 C978 0.929 1_554 S
S982 N983 1.613 . S
S982 N984 1.610 . S
N983 S982 1.613 . S
N983 C986 1.350 . S
N984 S982 1.610 . S
N984 C985 1.351 1_655 S
C985 C979 1.428 1_556 S
C985 N984 1.351 1_455 S
C985 C986 1.434 1_455 S
C986 C977 1.429 1_655 S
C986 N983 1.350 . S
C986 C985 1.434 1_655 S
C987 C988 1.369 . S
C987 C989 1.419 . S
C987 H991 0.930 . S
C988 C987 1.369 . S
C988 C997 1.429 . S
C989 C987 1.419 . S
C989 C990 1.363 . S
C989 H992 0.929 . S
C990 C989 1.363 . S
C990 C996 1.428 . S
H991 C987 0.930 . S
H992 C989 0.929 . S
S993 N994 1.613 . S
S993 N995 1.610 . S
N994 S993 1.613 . S
N994 C997 1.350 . S
N995 S993 1.610 . S
N995 C996 1.351 . S
C996 C990 1.428 . S
C996 N995 1.351 . S
C996 C997 1.434 . S
C997 C988 1.429 . S
C997 N994 1.350 . S
C997 C996 1.434 . S
C998 C999 1.369 . S
C998 C1000 1.419 . S
C998 H1002 0.930 . S
C999 C998 1.369 . S
C999 C1008 1.429 . S
C1000 C998 1.419 . S
C1000 C1001 1.363 . S
C1000 H1003 0.929 . S
C1001 C1000 1.363 . S
C1001 C1007 1.428 . S
H1002 C998 0.930 . S
H1003 C1000 0.929 . S
S1004 N1005 1.613 . S
S1004 N1006 1.610 . S
N1005 S1004 1.613 . S
N1005 C1008 1.350 . S
N1006 S1004 1.610 . S
N1006 C1007 1.351 . S
C1007 C1001 1.428 . S
C1007 N1006 1.351 . S
C1007 C1008 1.434 . S
C1008 C999 1.429 . S
C1008 N1005 1.350 . S
C1008 C1007 1.434 . S
C1009 C1010 1.369 . S
C1009 C1011 1.419 . S
C1009 H1013 0.930 . S
C1010 C1009 1.369 . S
C1010 C1019 1.429 . S
C1011 C1009 1.419 . S
C1011 C1012 1.363 . S
C1011 H1014 0.929 . S
C1012 C1011 1.363 . S
C1012 C1018 1.428 . S
H1013 C1009 0.930 . S
H1014 C1011 0.929 . S
S1015 N1016 1.613 . S
S1015 N1017 1.610 . S
N1016 S1015 1.613 . S
N1016 C1019 1.350 . S
N1017 S1015 1.610 . S
N1017 C1018 1.351 . S
C1018 C1012 1.428 . S
C1018 N1017 1.351 . S
C1018 C1019 1.434 . S
C1019 C1010 1.429 . S
C1019 N1016 1.350 . S
C1019 C1018 1.434 . S
C1020 C1021 1.369 . S
C1020 C1022 1.419 . S
C1020 H1024 0.930 . S
C1021 C1020 1.369 . S
C1021 C1030 1.429 . S
C1022 C1020 1.419 . S
C1022 C1023 1.363 . S
C1022 H1025 0.929 . S
C1023 C1022 1.363 . S
C1023 C1029 1.428 . S
H1024 C1020 0.930 . S
H1025 C1022 0.929 . S
S1026 N1027 1.613 1_655 S
S1026 N1028 1.610 1_655 S
N1027 S1026 1.613 1_455 S
N1027 C1030 1.350 . S
N1028 S1026 1.610 1_455 S
N1028 C1029 1.351 . S
C1029 C1023 1.428 . S
C1029 N1028 1.351 . S
C1029 C1030 1.434 . S
C1030 C1021 1.429 . S
C1030 N1027 1.350 . S
C1030 C1029 1.434 . S
C1031 C1032 1.369 . S
C1031 C1033 1.419 . S
C1031 H1035 0.930 . S
C1032 C1031 1.369 . S
C1032 C1041 1.429 . S
C1033 C1031 1.419 . S
C1033 C1034 1.363 . S
C1033 H1036 0.929 . S
C1034 C1033 1.363 . S
C1034 C1040 1.428 . S
H1035 C1031 0.930 . S
H1036 C1033 0.929 . S
S1037 N1038 1.613 . S
S1037 N1039 1.610 . S
N1038 S1037 1.613 . S
N1038 C1041 1.350 . S
N1039 S1037 1.610 . S
N1039 C1040 1.351 . S
C1040 C1034 1.428 . S
C1040 N1039 1.351 . S
C1040 C1041 1.434 . S
C1041 C1032 1.429 . S
C1041 N1038 1.350 . S
C1041 C1040 1.434 . S
C1042 C1043 1.369 . S
C1042 C1044 1.419 . S
C1042 H1046 0.930 . S
C1043 C1042 1.369 . S
C1043 C1052 1.429 . S
C1044 C1042 1.419 . S
C1044 C1045 1.363 . S
C1044 H1047 0.929 . S
C1045 C1044 1.363 . S
C1045 C1051 1.428 . S
H1046 C1042 0.930 . S
H1047 C1044 0.929 . S
S1048 N1049 1.613 . S
S1048 N1050 1.610 . S
N1049 S1048 1.613 . S
N1049 C1052 1.350 . S
N1050 S1048 1.610 . S
N1050 C1051 1.351 . S
C1051 C1045 1.428 . S
C1051 N1050 1.351 . S
C1051 C1052 1.434 . S
C1052 C1043 1.429 . S
C1052 N1049 1.350 . S
C1052 C1051 1.434 . S
C1053 C1054 1.369 . S
C1053 C1055 1.419 . S
C1053 H1057 0.930 . S
C1054 C1053 1.369 . S
C1054 C1063 1.429 . S
C1055 C1053 1.419 . S
C1055 C1056 1.363 . S
C1055 H1058 0.929 . S
C1056 C1055 1.363 . S
C1056 C1062 1.428 . S
H1057 C1053 0.930 . S
H1058 C1055 0.929 . S
S1059 N1060 1.613 . S
S1059 N1061 1.610 . S
N1060 S1059 1.613 . S
N1060 C1063 1.350 . S
N1061 S1059 1.610 . S
N1061 C1062 1.351 . S
C1062 C1056 1.428 . S
C1062 N1061 1.351 . S
C1062 C1063 1.434 . S
C1063 C1054 1.429 . S
C1063 N1060 1.350 . S
C1063 C1062 1.434 . S
C1064 C1065 1.369 . S
C1064 C1066 1.419 . S
C1064 H1068 0.930 . S
C1065 C1064 1.369 . S
C1065 C1074 1.429 . S
C1066 C1064 1.419 . S
C1066 C1067 1.363 1_655 S
C1066 H1069 0.929 . S
C1067 C1066 1.363 1_455 S
C1067 C1073 1.428 . S
H1068 C1064 0.930 . S
H1069 C1066 0.929 . S
S1070 N1071 1.613 1_455 S
S1070 N1072 1.610 . S
N1071 S1070 1.613 1_655 S
N1071 C1074 1.350 . S
N1072 S1070 1.610 . S
N1072 C1073 1.351 . S
C1073 C1067 1.428 . S
C1073 N1072 1.351 . S
C1073 C1074 1.434 1_455 S
C1074 C1065 1.429 . S
C1074 N1071 1.350 . S
C1074 C1073 1.434 1_655 S
C1075 C1076 1.369 . S
C1075 C1077 1.419 . S
C1075 H1079 0.930 . S
C1076 C1075 1.369 . S
C1076 C1085 1.429 . S
C1077 C1075 1.419 . S
C1077 C1078 1.363 . S
C1077 H1080 0.929 . S
C1078 C1077 1.363 . S
C1078 C1084 1.428 . S
H1079 C1075 0.930 . S
H1080 C1077 0.929 . S
S1081 N1082 1.613 . S
S1081 N1083 1.610 . S
N1082 S1081 1.613 . S
N1082 C1085 1.350 . S
N1083 S1081 1.610 . S
N1083 C1084 1.351 . S
C1084 C1078 1.428 . S
C1084 N1083 1.351 . S
C1084 C1085 1.434 . S
C1085 C1076 1.429 . S
C1085 N1082 1.350 . S
C1085 C1084 1.434 . S
C1086 C1087 1.369 1_545 S
C1086 C1088 1.419 . S
C1086 H1090 0.930 . S
C1087 C1086 1.369 1_565 S
C1087 C1096 1.429 . S
C1088 C1086 1.419 . S
C1088 C1089 1.363 . S
C1088 H1091 0.929 . S
C1089 C1088 1.363 . S
C1089 C1095 1.428 . S
H1090 C1086 0.930 . S
H1091 C1088 0.929 . S
S1092 N1093 1.613 . S
S1092 N1094 1.610 1_565 S
N1093 S1092 1.613 . S
N1093 C1096 1.350 . S
N1094 S1092 1.610 1_545 S
N1094 C1095 1.351 . S
C1095 C1089 1.428 . S
C1095 N1094 1.351 . S
C1095 C1096 1.434 1_545 S
C1096 C1087 1.429 . S
C1096 N1093 1.350 . S
C1096 C1095 1.434 1_565 S
C1097 C1098 1.369 . S
C1097 C1099 1.419 . S
C1097 H1101 0.930 . S
C1098 C1097 1.369 . S
C1098 C1107 1.429 . S
C1099 C1097 1.419 . S
C1099 C1100 1.363 . S
C1099 H1102 0.929 . S
C1100 C1099 1.363 . S
C1100 C1106 1.428 . S
H1101 C1097 0.930 . S
H1102 C1099 0.929 . S
S1103 N1104 1.613 . S
S1103 N1105 1.610 . S
N1104 S1103 1.613 . S
N1104 C1107 1.350 . S
N1105 S1103 1.610 . S
N1105 C1106 1.351 . S
C1106 C1100 1.428 . S
C1106 N1105 1.351 . S
C1106 C1107 1.434 . S
C1107 C1098 1.429 . S
C1107 N1104 1.350 . S
C1107 C1106 1.434 . S
C1108 C1109 1.378 . S
C1108 C1110 1.419 . S
C1108 H1112 0.930 . S
C1109 C1108 1.378 . S
C1109 C1118 1.425 1_545 S
C1110 C1108 1.419 . S
C1110 C1111 1.363 . S
C1110 H1113 0.929 . S
C1111 C1110 1.363 . S
C1111 C1117 1.428 . S
H1112 C1108 0.930 . S
H1113 C1110 0.929 . S
S1114 N1115 1.613 . S
S1114 N1116 1.610 . S
N1115 S1114 1.613 . S
N1115 C1118 1.350 . S
N1116 S1114 1.610 . S
N1116 C1117 1.351 1_565 S
C1117 C1111 1.428 . S
C1117 N1116 1.351 1_545 S
C1117 C1118 1.434 1_545 S
C1118 C1109 1.425 1_565 S
C1118 N1115 1.350 . S
C1118 C1117 1.434 1_565 S
C1119 C1120 1.369 . S
C1119 C1121 1.419 . S
C1119 H1123 0.930 . S
C1120 C1119 1.369 . S
C1120 C1129 1.429 . S
C1121 C1119 1.419 . S
C1121 C1122 1.363 . S
C1121 H1124 0.929 . S
C1122 C1121 1.363 . S
C1122 C1128 1.428 . S
H1123 C1119 0.930 . S
H1124 C1121 0.929 . S
S1125 N1126 1.613 . S
S1125 N1127 1.610 . S
N1126 S1125 1.613 . S
N1126 C1129 1.350 . S
N1127 S1125 1.610 . S
N1127 C1128 1.351 . S
C1128 C1122 1.428 . S
C1128 N1127 1.351 . S
C1128 C1129 1.434 . S
C1129 C1120 1.429 . S
C1129 N1126 1.350 . S
C1129 C1128 1.434 . S
C1130 C1131 1.369 . S
C1130 C1132 1.419 . S
C1130 H1134 0.930 . S
C1131 C1130 1.369 . S
C1131 C1140 1.429 . S
C1132 C1130 1.419 . S
C1132 C1133 1.363 . S
C1132 H1135 0.929 . S
C1133 C1132 1.363 . S
C1133 C1139 1.428 . S
H1134 C1130 0.930 . S
H1135 C1132 0.929 . S
S1136 N1137 1.613 . S
S1136 N1138 1.610 . S
N1137 S1136 1.613 . S
N1137 C1140 1.350 . S
N1138 S1136 1.610 . S
N1138 C1139 1.351 . S
C1139 C1133 1.428 . S
C1139 N1138 1.351 . S
C1139 C1140 1.434 . S
C1140 C1131 1.429 . S
C1140 N1137 1.350 . S
C1140 C1139 1.434 . S
C1141 C1142 1.369 . S
C1141 C1143 1.419 . S
C1141 H1145 0.930 . S
C1142 C1141 1.369 . S
C1142 C1151 1.429 . S
C1143 C1141 1.419 . S
C1143 C1144 1.363 . S
C1143 H1146 0.929 . S
C1144 C1143 1.363 . S
C1144 C1150 1.428 . S
H1145 C1141 0.930 . S
H1146 C1143 0.929 . S
S1147 N1148 1.613 . S
S1147 N1149 1.610 . S
N1148 S1147 1.613 . S
N1148 C1151 1.350 . S
N1149 S1147 1.610 . S
N1149 C1150 1.351 . S
C1150 C1144 1.428 . S
C1150 N1149 1.351 . S
C1150 C1151 1.434 . S
C1151 C1142 1.429 . S
C1151 N1148 1.350 . S
C1151 C1150 1.434 . S
C1152 C1153 1.369 . S
C1152 C1154 1.419 . S
C1152 H1156 0.930 . S
C1153 C1152 1.369 . S
C1153 C1162 1.429 . S
C1154 C1152 1.419 . S
C1154 C1155 1.363 1_565 S
C1154 H1157 0.929 1_565 S
C1155 C1154 1.363 1_545 S
C1155 C1161 1.428 1_545 S
H1156 C1152 0.930 . S
H1157 C1154 0.929 1_545 S
S1158 N1159 1.613 . S
S1158 N1160 1.610 . S
N1159 S1158 1.613 . S
N1159 C1162 1.350 . S
N1160 S1158 1.610 . S
N1160 C1161 1.351 . S
C1161 C1155 1.428 1_565 S
C1161 N1160 1.351 . S
C1161 C1162 1.434 . S
C1162 C1153 1.429 . S
C1162 N1159 1.350 . S
C1162 C1161 1.434 . S
C1163 C1164 1.369 . S
C1163 C1165 1.419 . S
C1163 H1167 0.930 . S
C1164 C1163 1.369 . S
C1164 C1173 1.429 . S
C1165 C1163 1.419 . S
C1165 C1166 1.363 . S
C1165 H1168 0.929 . S
C1166 C1165 1.363 . S
C1166 C1172 1.428 . S
H1167 C1163 0.930 . S
H1168 C1165 0.929 . S
S1169 N1170 1.613 . S
S1169 N1171 1.610 . S
N1170 S1169 1.613 . S
N1170 C1173 1.350 1_556 S
N1171 S1169 1.610 . S
N1171 C1172 1.351 1_556 S
C1172 C1166 1.428 . S
C1172 N1171 1.351 1_554 S
C1172 C1173 1.434 . S
C1173 C1164 1.429 . S
C1173 N1170 1.350 1_554 S
C1173 C1172 1.434 . S
C1174 C1175 1.369 . S
C1174 C1176 1.419 . S
C1174 H1178 0.930 . S
C1175 C1174 1.369 . S
C1175 C1184 1.429 . S
C1176 C1174 1.419 . S
C1176 C1177 1.363 . S
C1176 H1179 0.929 . S
C1177 C1176 1.363 . S
C1177 C1183 1.428 . S
H1178 C1174 0.930 . S
H1179 C1176 0.929 . S
S1180 N1181 1.613 . S
S1180 N1182 1.610 . S
N1181 S1180 1.613 . S
N1181 C1184 1.350 . S
N1182 S1180 1.610 . S
N1182 C1183 1.351 . S
C1183 C1177 1.428 . S
C1183 N1182 1.351 . S
C1183 C1184 1.434 . S
C1184 C1175 1.429 . S
C1184 N1181 1.350 . S
C1184 C1183 1.434 . S
C1185 C1186 1.369 . S
C1185 C1187 1.419 . S
C1185 H1189 0.930 . S
C1186 C1185 1.369 . S
C1186 C1195 1.429 . S
C1187 C1185 1.419 . S
C1187 C1188 1.363 . S
C1187 H1190 0.929 . S
C1188 C1187 1.363 . S
C1188 C1194 1.428 . S
H1189 C1185 0.930 . S
H1190 C1187 0.929 . S
S1191 N1192 1.613 . S
S1191 N1193 1.610 . S
N1192 S1191 1.613 . S
N1192 C1195 1.350 . S
N1193 S1191 1.610 . S
N1193 C1194 1.351 . S
C1194 C1188 1.428 . S
C1194 N1193 1.351 . S
C1194 C1195 1.434 . S
C1195 C1186 1.429 . S
C1195 N1192 1.350 . S
C1195 C1194 1.434 . S
C1196 C1197 1.369 . S
C1196 C1198 1.419 . S
C1196 H1200 0.930 . S
C1197 C1196 1.369 . S
C1197 C1206 1.429 . S
C1198 C1196 1.419 . S
C1198 C1199 1.363 . S
C1198 H1201 0.929 . S
C1199 C1198 1.363 . S
C1199 C1205 1.428 . S
H1200 C1196 0.930 . S
H1201 C1198 0.929 . S
S1202 N1203 1.613 . S
S1202 N1204 1.610 . S
N1203 S1202 1.613 . S
N1203 C1206 1.350 . S
N1204 S1202 1.610 . S
N1204 C1205 1.351 . S
C1205 C1199 1.428 . S
C1205 N1204 1.351 . S
C1205 C1206 1.434 . S
C1206 C1197 1.429 . S
C1206 N1203 1.350 . S
C1206 C1205 1.434 . S
C1207 C1208 1.369 . S
C1207 C1209 1.419 . S
C1207 H1211 0.930 . S
C1208 C1207 1.369 . S
C1208 C1217 1.429 . S
C1209 C1207 1.419 . S
C1209 C1210 1.363 . S
C1209 H1212 0.929 . S
C1210 C1209 1.363 . S
C1210 C1216 1.428 . S
H1211 C1207 0.930 . S
H1212 C1209 0.929 . S
S1213 N1214 1.613 . S
S1213 N1215 1.610 . S
N1214 S1213 1.613 . S
N1214 C1217 1.350 . S
N1215 S1213 1.610 . S
N1215 C1216 1.351 . S
C1216 C1210 1.428 . S
C1216 N1215 1.351 . S
C1216 C1217 1.434 . S
C1217 C1208 1.429 . S
C1217 N1214 1.350 . S
C1217 C1216 1.434 . S
C1218 C1219 1.369 . S
C1218 C1220 1.419 . S
C1218 H1222 0.930 . S
C1219 C1218 1.369 . S
C1219 C1228 1.429 . S
C1220 C1218 1.419 . S
C1220 C1221 1.363 . S
C1220 H1223 0.929 . S
C1221 C1220 1.363 . S
C1221 C1227 1.428 . S
H1222 C1218 0.930 . S
H1223 C1220 0.929 . S
S1224 N1225 1.613 . S
S1224 N1226 1.610 . S
N1225 S1224 1.613 . S
N1225 C1228 1.350 . S
N1226 S1224 1.610 . S
N1226 C1227 1.351 . S
C1227 C1221 1.428 . S
C1227 N1226 1.351 . S
C1227 C1228 1.434 . S
C1228 C1219 1.429 . S
C1228 N1225 1.350 . S
C1228 C1227 1.434 . S
C1229 C1230 1.369 . S
C1229 C1231 1.419 . S
C1229 H1233 0.930 . S
C1230 C1229 1.369 . S
C1230 C1239 1.429 . S
C1231 C1229 1.419 . S
C1231 C1232 1.363 . S
C1231 H1234 0.929 . S
C1232 C1231 1.363 . S
C1232 C1238 1.428 . S
H1233 C1229 0.930 . S
H1234 C1231 0.929 . S
S1235 N1236 1.613 . S
S1235 N1237 1.610 . S
N1236 S1235 1.613 . S
N1236 C1239 1.350 . S
N1237 S1235 1.610 . S
N1237 C1238 1.351 . S
C1238 C1232 1.428 . S
C1238 N1237 1.351 . S
C1238 C1239 1.434 . S
C1239 C1230 1.429 . S
C1239 N1236 1.350 . S
C1239 C1238 1.434 . S
C1240 C1241 1.369 . S
C1240 C1242 1.419 . S
C1240 H1244 0.930 . S
C1241 C1240 1.369 . S
C1241 C1250 1.429 . S
C1242 C1240 1.419 . S
C1242 C1243 1.363 . S
C1242 H1245 0.929 1_565 S
C1243 C1242 1.363 . S
C1243 C1249 1.428 . S
H1244 C1240 0.930 . S
H1245 C1242 0.929 1_545 S
S1246 N1247 1.613 . S
S1246 N1248 1.610 . S
N1247 S1246 1.613 . S
N1247 C1250 1.350 . S
N1248 S1246 1.610 . S
N1248 C1249 1.351 . S
C1249 C1243 1.428 . S
C1249 N1248 1.351 . S
C1249 C1250 1.434 . S
C1250 C1241 1.429 . S
C1250 N1247 1.350 . S
C1250 C1249 1.434 . S
C1251 C1252 1.369 . S
C1251 C1253 1.419 . S
C1251 H1255 0.930 . S
C1252 C1251 1.369 . S
C1252 C1261 1.429 . S
C1253 C1251 1.419 . S
C1253 C1254 1.363 . S
C1253 H1256 0.929 . S
C1254 C1253 1.363 . S
C1254 C1260 1.428 . S
H1255 C1251 0.930 . S
H1256 C1253 0.929 . S
S1257 N1258 1.613 . S
S1257 N1259 1.610 . S
N1258 S1257 1.613 . S
N1258 C1261 1.350 . S
N1259 S1257 1.610 . S
N1259 C1260 1.351 . S
C1260 C1254 1.428 . S
C1260 N1259 1.351 . S
C1260 C1261 1.434 . S
C1261 C1252 1.429 . S
C1261 N1258 1.350 . S
C1261 C1260 1.434 . S
C1262 C1263 1.369 . S
C1262 C1264 1.419 . S
C1262 H1266 0.930 . S
C1263 C1262 1.369 . S
C1263 C1272 1.429 . S
C1264 C1262 1.419 . S
C1264 C1265 1.363 . S
C1264 H1267 0.929 . S
C1265 C1264 1.363 . S
C1265 C1271 1.428 . S
H1266 C1262 0.930 . S
H1267 C1264 0.929 . S
S1268 N1269 1.613 . S
S1268 N1270 1.610 . S
N1269 S1268 1.613 . S
N1269 C1272 1.350 . S
N1270 S1268 1.610 . S
N1270 C1271 1.351 . S
C1271 C1265 1.428 . S
C1271 N1270 1.351 . S
C1271 C1272 1.434 . S
C1272 C1263 1.429 . S
C1272 N1269 1.350 . S
C1272 C1271 1.434 . S
C1273 C1274 1.369 . S
C1273 C1275 1.419 . S
C1273 H1277 0.930 . S
C1274 C1273 1.369 . S
C1274 C1283 1.429 . S
C1275 C1273 1.419 . S
C1275 C1276 1.363 . S
C1275 H1278 0.929 . S
C1276 C1275 1.363 . S
C1276 C1282 1.428 . S
H1277 C1273 0.930 . S
H1278 C1275 0.929 . S
S1279 N1280 1.613 . S
S1279 N1281 1.610 . S
N1280 S1279 1.613 . S
N1280 C1283 1.350 . S
N1281 S1279 1.610 . S
N1281 C1282 1.351 . S
C1282 C1276 1.428 . S
C1282 N1281 1.351 . S
C1282 C1283 1.434 . S
C1283 C1274 1.429 . S
C1283 N1280 1.350 . S
C1283 C1282 1.434 . S
C1284 C1285 1.369 . S
C1284 C1286 1.419 . S
C1284 H1288 0.930 . S
C1285 C1284 1.369 . S
C1285 C1294 1.429 . S
C1286 C1284 1.419 . S
C1286 C1287 1.363 . S
C1286 H1289 0.929 . S
C1287 C1286 1.363 . S
C1287 C1293 1.428 . S
H1288 C1284 0.930 . S
H1289 C1286 0.929 . S
S1290 N1291 1.613 . S
S1290 N1292 1.610 . S
N1291 S1290 1.613 . S
N1291 C1294 1.350 . S
N1292 S1290 1.610 . S
N1292 C1293 1.351 . S
C1293 C1287 1.428 . S
C1293 N1292 1.351 . S
C1293 C1294 1.434 . S
C1294 C1285 1.429 . S
C1294 N1291 1.350 . S
C1294 C1293 1.434 . S
C1295 C1296 1.369 . S
C1295 C1297 1.419 . S
C1295 H1299 0.930 . S
C1296 C1295 1.369 . S
C1296 C1305 1.429 . S
C1297 C1295 1.419 . S
C1297 C1298 1.363 . S
C1297 H1300 0.929 . S
C1298 C1297 1.363 . S
C1298 C1304 1.428 . S
H1299 C1295 0.930 . S
H1300 C1297 0.929 . S
S1301 N1302 1.613 . S
S1301 N1303 1.610 . S
N1302 S1301 1.613 . S
N1302 C1305 1.350 . S
N1303 S1301 1.610 . S
N1303 C1304 1.351 . S
C1304 C1298 1.428 . S
C1304 N1303 1.351 . S
C1304 C1305 1.434 . S
C1305 C1296 1.429 . S
C1305 N1302 1.350 . S
C1305 C1304 1.434 . S
C1306 C1307 1.369 . S
C1306 C1308 1.419 . S
C1306 H1310 0.930 . S
C1307 C1306 1.369 . S
C1307 C1316 1.429 . S
C1308 C1306 1.419 . S
C1308 C1309 1.363 . S
C1308 H1311 0.929 . S
C1309 C1308 1.363 . S
C1309 C1315 1.451 . S
H1310 C1306 0.930 . S
H1311 C1308 0.929 . S
S1312 N1313 1.613 . S
S1312 N1314 1.610 . S
N1313 S1312 1.613 . S
N1313 C1316 1.350 1_554 S
N1314 S1312 1.610 . S
N1314 C1315 1.313 1_554 S
C1315 C1309 1.451 . S
C1315 N1314 1.313 1_556 S
C1315 C1316 1.450 . S
C1316 C1307 1.429 . S
C1316 N1313 1.350 1_556 S
C1316 C1315 1.450 . S
C1317 C1318 1.369 . S
C1317 C1319 1.419 . S
C1317 H1321 0.930 . S
C1318 C1317 1.369 . S
C1318 C1327 1.429 . S
C1319 C1317 1.419 . S
C1319 C1320 1.363 . S
C1319 H1322 0.929 . S
C1320 C1319 1.363 . S
C1320 C1326 1.428 . S
H1321 C1317 0.930 . S
H1322 C1319 0.929 . S
S1323 N1324 1.613 . S
S1323 N1325 1.610 . S
N1324 S1323 1.613 . S
N1324 C1327 1.350 . S
N1325 S1323 1.610 . S
N1325 C1326 1.351 . S
C1326 C1320 1.428 . S
C1326 N1325 1.351 . S
C1326 C1327 1.434 . S
C1327 C1318 1.429 . S
C1327 N1324 1.350 . S
C1327 C1326 1.434 . S
C1328 C1329 1.369 . S
C1328 C1330 1.419 . S
C1328 H1332 0.930 . S
C1329 C1328 1.369 . S
C1329 C1338 1.429 . S
C1330 C1328 1.419 . S
C1330 C1331 1.363 . S
C1330 H1333 0.929 . S
C1331 C1330 1.363 . S
C1331 C1337 1.428 . S
H1332 C1328 0.930 . S
H1333 C1330 0.929 . S
S1334 N1335 1.613 . S
S1334 N1336 1.610 . S
N1335 S1334 1.613 . S
N1335 C1338 1.350 . S
N1336 S1334 1.610 . S
N1336 C1337 1.351 . S
C1337 C1331 1.428 . S
C1337 N1336 1.351 . S
C1337 C1338 1.434 . S
C1338 C1329 1.429 . S
C1338 N1335 1.350 . S
C1338 C1337 1.434 . S
C1339 C1340 1.369 . S
C1339 C1341 1.419 . S
C1339 H1343 0.930 . S
C1340 C1339 1.369 . S
C1340 C1349 1.429 . S
C1341 C1339 1.419 . S
C1341 C1342 1.363 . S
C1341 H1344 0.929 . S
C1342 C1341 1.363 . S
C1342 C1348 1.428 . S
H1343 C1339 0.930 . S
H1344 C1341 0.929 . S
S1345 N1346 1.613 . S
S1345 N1347 1.610 . S
N1346 S1345 1.613 . S
N1346 C1349 1.350 . S
N1347 S1345 1.610 . S
N1347 C1348 1.351 . S
C1348 C1342 1.428 . S
C1348 N1347 1.351 . S
C1348 C1349 1.434 . S
C1349 C1340 1.429 . S
C1349 N1346 1.350 . S
C1349 C1348 1.434 . S
C1350 C1351 1.369 . S
C1350 C1352 1.419 . S
C1350 H1354 0.930 . S
C1351 C1350 1.369 . S
C1351 C1360 1.429 . S
C1352 C1350 1.419 . S
C1352 C1353 1.363 . S
C1352 H1355 0.929 . S
C1353 C1352 1.363 . S
C1353 C1359 1.428 . S
H1354 C1350 0.930 . S
H1355 C1352 0.929 . S
S1356 N1357 1.613 . S
S1356 N1358 1.610 . S
N1357 S1356 1.613 . S
N1357 C1360 1.350 . S
N1358 S1356 1.610 . S
N1358 C1359 1.351 . S
C1359 C1353 1.428 . S
C1359 N1358 1.351 . S
C1359 C1360 1.434 . S
C1360 C1351 1.429 . S
C1360 N1357 1.350 . S
C1360 C1359 1.434 . S
C1361 C1362 1.369 . S
C1361 C1363 1.419 . S
C1361 H1365 0.930 . S
C1362 C1361 1.369 . S
C1362 C1371 1.429 . S
C1363 C1361 1.419 . S
C1363 C1364 1.363 . S
C1363 H1366 0.929 . S
C1364 C1363 1.363 . S
C1364 C1370 1.428 . S
H1365 C1361 0.930 . S
H1366 C1363 0.929 . S
S1367 N1368 1.613 . S
S1367 N1369 1.610 . S
N1368 S1367 1.613 . S
N1368 C1371 1.350 . S
N1369 S1367 1.610 . S
N1369 C1370 1.351 . S
C1370 C1364 1.428 . S
C1370 N1369 1.351 . S
C1370 C1371 1.434 . S
C1371 C1362 1.429 . S
C1371 N1368 1.350 . S
C1371 C1370 1.434 . S
C1372 C1373 1.369 . S
C1372 C1374 1.419 . S
C1372 H1376 0.930 . S
C1373 C1372 1.369 . S
C1373 C1382 1.429 . S
C1374 C1372 1.419 . S
C1374 C1375 1.363 . S
C1374 H1377 0.929 . S
C1375 C1374 1.363 . S
C1375 C1381 1.428 . S
H1376 C1372 0.930 . S
H1377 C1374 0.929 . S
S1378 N1379 1.613 . S
S1378 N1380 1.610 . S
N1379 S1378 1.613 . S
N1379 C1382 1.350 . S
N1380 S1378 1.610 . S
N1380 C1381 1.351 . S
C1381 C1375 1.428 . S
C1381 N1380 1.351 . S
C1381 C1382 1.434 . S
C1382 C1373 1.429 . S
C1382 N1379 1.350 . S
C1382 C1381 1.434 . S
C1383 C1384 1.369 . S
C1383 C1385 1.419 . S
C1383 H1387 0.930 . S
C1384 C1383 1.369 . S
C1384 C1393 1.429 . S
C1385 C1383 1.419 . S
C1385 C1386 1.363 . S
C1385 H1388 0.929 . S
C1386 C1385 1.363 . S
C1386 C1392 1.428 . S
H1387 C1383 0.930 . S
H1388 C1385 0.929 . S
S1389 N1390 1.613 . S
S1389 N1391 1.610 . S
N1390 S1389 1.613 . S
N1390 C1393 1.350 . S
N1391 S1389 1.610 . S
N1391 C1392 1.351 . S
C1392 C1386 1.428 . S
C1392 N1391 1.351 . S
C1392 C1393 1.434 . S
C1393 C1384 1.429 . S
C1393 N1390 1.350 . S
C1393 C1392 1.434 . S
C1394 C1395 1.369 . S
C1394 C1396 1.419 . S
C1394 H1398 0.930 . S
C1395 C1394 1.369 . S
C1395 C1404 1.429 . S
C1396 C1394 1.419 . S
C1396 C1397 1.363 . S
C1396 H1399 0.929 . S
C1397 C1396 1.363 . S
C1397 C1403 1.428 . S
H1398 C1394 0.930 . S
H1399 C1396 0.929 . S
S1400 N1401 1.613 . S
S1400 N1402 1.610 . S
N1401 S1400 1.613 . S
N1401 C1404 1.350 . S
N1402 S1400 1.610 . S
N1402 C1403 1.351 . S
C1403 C1397 1.428 . S
C1403 N1402 1.351 . S
C1403 C1404 1.434 . S
C1404 C1395 1.429 . S
C1404 N1401 1.350 . S
C1404 C1403 1.434 . S
C1405 C1406 1.369 . S
C1405 C1407 1.419 . S
C1405 H1409 0.930 . S
C1406 C1405 1.369 . S
C1406 C1415 1.429 . S
C1407 C1405 1.419 . S
C1407 C1408 1.363 . S
C1407 H1410 0.929 . S
C1408 C1407 1.363 . S
C1408 C1414 1.428 . S
H1409 C1405 0.930 . S
H1410 C1407 0.929 . S
S1411 N1412 1.613 . S
S1411 N1413 1.610 . S
N1412 S1411 1.613 . S
N1412 C1415 1.350 . S
N1413 S1411 1.610 . S
N1413 C1414 1.351 . S
C1414 C1408 1.428 . S
C1414 N1413 1.351 . S
C1414 C1415 1.434 . S
C1415 C1406 1.429 . S
C1415 N1412 1.350 . S
C1415 C1414 1.434 . S
C1416 C1417 1.365 1_554 S
C1416 C1418 1.413 1_554 S
C1416 H1420 0.940 . S
C1417 C1416 1.365 1_556 S
C1417 C1426 1.429 . S
C1418 C1416 1.413 1_556 S
C1418 C1419 1.363 . S
C1418 H1421 0.929 . S
C1419 C1418 1.363 . S
C1419 C1425 1.428 . S
H1420 C1416 0.940 . S
H1421 C1418 0.929 . S
S1422 N1423 1.613 . S
S1422 N1424 1.610 . S
N1423 S1422 1.613 . S
N1423 C1426 1.350 . S
N1424 S1422 1.610 . S
N1424 C1425 1.351 . S
C1425 C1419 1.428 . S
C1425 N1424 1.351 . S
C1425 C1426 1.434 . S
C1426 C1417 1.429 . S
C1426 N1423 1.350 . S
C1426 C1425 1.434 . S
C1427 C1428 1.369 . S
C1427 C1429 1.419 . S
C1427 H1431 0.930 . S
C1428 C1427 1.369 . S
C1428 C1437 1.429 . S
C1429 C1427 1.419 . S
C1429 C1430 1.363 . S
C1429 H1432 0.929 . S
C1430 C1429 1.363 . S
C1430 C1436 1.428 . S
H1431 C1427 0.930 . S
H1432 C1429 0.929 . S
S1433 N1434 1.613 . S
S1433 N1435 1.610 . S
N1434 S1433 1.613 . S
N1434 C1437 1.350 . S
N1435 S1433 1.610 . S
N1435 C1436 1.351 . S
C1436 C1430 1.428 . S
C1436 N1435 1.351 . S
C1436 C1437 1.434 . S
C1437 C1428 1.429 . S
C1437 N1434 1.350 . S
C1437 C1436 1.434 . S
C1438 C1439 1.369 . S
C1438 C1440 1.419 . S
C1438 H1442 0.930 . S
C1439 C1438 1.369 . S
C1439 C1448 1.429 . S
C1440 C1438 1.419 . S
C1440 C1441 1.363 . S
C1440 H1443 0.929 . S
C1441 C1440 1.363 . S
C1441 C1447 1.428 . S
H1442 C1438 0.930 . S
H1443 C1440 0.929 . S
S1444 N1445 1.613 . S
S1444 N1446 1.610 . S
N1445 S1444 1.613 . S
N1445 C1448 1.350 . S
N1446 S1444 1.610 . S
N1446 C1447 1.351 . S
C1447 C1441 1.428 . S
C1447 N1446 1.351 . S
C1447 C1448 1.434 . S
C1448 C1439 1.429 . S
C1448 N1445 1.350 . S
C1448 C1447 1.434 . S
C1449 C1450 1.369 . S
C1449 C1451 1.419 . S
C1449 H1453 0.930 . S
C1450 C1449 1.369 . S
C1450 C1459 1.429 . S
C1451 C1449 1.419 . S
C1451 C1452 1.363 . S
C1451 H1454 0.929 . S
C1452 C1451 1.363 . S
C1452 C1458 1.428 . S
H1453 C1449 0.930 . S
H1454 C1451 0.929 . S
S1455 N1456 1.613 . S
S1455 N1457 1.610 . S
N1456 S1455 1.613 . S
N1456 C1459 1.350 . S
N1457 S1455 1.610 . S
N1457 C1458 1.351 . S
C1458 C1452 1.428 . S
C1458 N1457 1.351 . S
C1458 C1459 1.434 . S
C1459 C1450 1.429 . S
C1459 N1456 1.350 . S
C1459 C1458 1.434 . S
C1460 C1461 1.369 . S
C1460 C1462 1.419 . S
C1460 H1464 0.930 . S
C1461 C1460 1.369 . S
C1461 C1470 1.429 . S
C1462 C1460 1.419 . S
C1462 C1463 1.363 . S
C1462 H1465 0.929 . S
C1463 C1462 1.363 . S
C1463 C1469 1.428 . S
H1464 C1460 0.930 . S
H1465 C1462 0.929 . S
S1466 N1467 1.613 1_545 S
S1466 N1468 1.610 1_545 S
N1467 S1466 1.613 1_565 S
N1467 C1470 1.350 . S
N1468 S1466 1.610 1_565 S
N1468 C1469 1.351 . S
C1469 C1463 1.428 . S
C1469 N1468 1.351 . S
C1469 C1470 1.434 . S
C1470 C1461 1.429 . S
C1470 N1467 1.350 . S
C1470 C1469 1.434 . S
C1471 C1472 1.369 . S
C1471 C1473 1.419 1_565 S
C1471 H1475 0.930 1_565 S
C1472 C1471 1.369 . S
C1472 C1481 1.429 . S
C1473 C1471 1.419 1_545 S
C1473 C1474 1.363 1_545 S
C1473 H1476 0.929 . S
C1474 C1473 1.363 1_565 S
C1474 C1480 1.428 . S
H1475 C1471 0.930 1_545 S
H1476 C1473 0.929 . S
S1477 N1478 1.613 . S
S1477 N1479 1.610 . S
N1478 S1477 1.613 . S
N1478 C1481 1.350 . S
N1479 S1477 1.610 . S
N1479 C1480 1.351 . S
C1480 C1474 1.428 . S
C1480 N1479 1.351 . S
C1480 C1481 1.434 . S
C1481 C1472 1.429 . S
C1481 N1478 1.350 . S
C1481 C1480 1.434 . S
C1482 C1483 1.369 . S
C1482 C1484 1.419 . S
C1482 H1486 0.930 . S
C1483 C1482 1.369 . S
C1483 C1492 1.429 . S
C1484 C1482 1.419 . S
C1484 C1485 1.363 . S
C1484 H1487 0.929 . S
C1485 C1484 1.363 . S
C1485 C1491 1.428 . S
H1486 C1482 0.930 . S
H1487 C1484 0.929 . S
S1488 N1489 1.613 . S
S1488 N1490 1.610 . S
N1489 S1488 1.613 . S
N1489 C1492 1.350 . S
N1490 S1488 1.610 . S
N1490 C1491 1.351 . S
C1491 C1485 1.428 . S
C1491 N1490 1.351 . S
C1491 C1492 1.434 . S
C1492 C1483 1.429 . S
C1492 N1489 1.350 . S
C1492 C1491 1.434 . S
C1493 C1494 1.369 . S
C1493 C1495 1.419 . S
C1493 H1497 0.930 . S
C1494 C1493 1.369 . S
C1494 C1503 1.429 . S
C1495 C1493 1.419 . S
C1495 C1496 1.363 . S
C1495 H1498 0.929 . S
C1496 C1495 1.363 . S
C1496 C1502 1.428 . S
H1497 C1493 0.930 . S
H1498 C1495 0.929 . S
S1499 N1500 1.613 . S
S1499 N1501 1.610 . S
N1500 S1499 1.613 . S
N1500 C1503 1.350 . S
N1501 S1499 1.610 . S
N1501 C1502 1.351 . S
C1502 C1496 1.428 . S
C1502 N1501 1.351 . S
C1502 C1503 1.434 . S
C1503 C1494 1.429 . S
C1503 N1500 1.350 . S
C1503 C1502 1.434 . S
C1504 C1505 1.369 . S
C1504 C1506 1.419 . S
C1504 H1508 0.930 . S
C1505 C1504 1.369 . S
C1505 C1514 1.429 . S
C1506 C1504 1.419 . S
C1506 C1507 1.363 . S
C1506 H1509 0.929 . S
C1507 C1506 1.363 . S
C1507 C1513 1.428 . S
H1508 C1504 0.930 . S
H1509 C1506 0.929 . S
S1510 N1511 1.613 . S
S1510 N1512 1.610 . S
N1511 S1510 1.613 . S
N1511 C1514 1.350 . S
N1512 S1510 1.610 . S
N1512 C1513 1.351 . S
C1513 C1507 1.428 . S
C1513 N1512 1.351 . S
C1513 C1514 1.434 . S
C1514 C1505 1.429 . S
C1514 N1511 1.350 . S
C1514 C1513 1.434 . S
C1515 C1516 1.369 . S
C1515 C1517 1.419 . S
C1515 H1519 0.930 . S
C1516 C1515 1.369 . S
C1516 C1525 1.429 . S
C1517 C1515 1.419 . S
C1517 C1518 1.363 . S
C1517 H1520 0.929 . S
C1518 C1517 1.363 . S
C1518 C1524 1.428 . S
H1519 C1515 0.930 . S
H1520 C1517 0.929 . S
S1521 N1522 1.613 . S
S1521 N1523 1.610 . S
N1522 S1521 1.613 . S
N1522 C1525 1.350 . S
N1523 S1521 1.610 . S
N1523 C1524 1.351 . S
C1524 C1518 1.428 . S
C1524 N1523 1.351 . S
C1524 C1525 1.434 . S
C1525 C1516 1.429 . S
C1525 N1522 1.350 . S
C1525 C1524 1.434 . S
C1526 C1527 1.369 . S
C1526 C1528 1.419 . S
C1526 H1530 0.930 . S
C1527 C1526 1.369 . S
C1527 C1536 1.429 1_455 S
C1528 C1526 1.419 . S
C1528 C1529 1.363 . S
C1528 H1531 0.929 . S
C1529 C1528 1.363 . S
C1529 C1535 1.428 1_455 S
H1530 C1526 0.930 . S
H1531 C1528 0.929 . S
S1532 N1533 1.613 . S
S1532 N1534 1.610 . S
N1533 S1532 1.613 . S
N1533 C1536 1.350 . S
N1534 S1532 1.610 . S
N1534 C1535 1.351 . S
C1535 C1529 1.428 1_655 S
C1535 N1534 1.351 . S
C1535 C1536 1.434 . S
C1536 C1527 1.429 1_655 S
C1536 N1533 1.350 . S
C1536 C1535 1.434 . S
C1537 C1538 1.369 . S
C1537 C1539 1.419 . S
C1537 H1541 0.930 . S
C1538 C1537 1.369 . S
C1538 C1547 1.429 . S
C1539 C1537 1.419 . S
C1539 C1540 1.363 . S
C1539 H1542 0.929 . S
C1540 C1539 1.363 . S
C1540 C1546 1.428 . S
H1541 C1537 0.930 . S
H1542 C1539 0.929 . S
S1543 N1544 1.613 . S
S1543 N1545 1.610 1_455 S
N1544 S1543 1.613 . S
N1544 C1547 1.350 . S
N1545 S1543 1.610 1_655 S
N1545 C1546 1.351 1_655 S
C1546 C1540 1.428 . S
C1546 N1545 1.351 1_455 S
C1546 C1547 1.434 . S
C1547 C1538 1.429 . S
C1547 N1544 1.350 . S
C1547 C1546 1.434 . S
C1548 C1549 1.369 . S
C1548 C1550 1.419 . S
C1548 H1552 0.930 . S
C1549 C1548 1.369 . S
C1549 C1558 1.429 . S
C1550 C1548 1.419 . S
C1550 C1551 1.363 . S
C1550 H1553 0.929 . S
C1551 C1550 1.363 . S
C1551 C1557 1.428 . S
H1552 C1548 0.930 . S
H1553 C1550 0.929 . S
S1554 N1555 1.613 . S
S1554 N1556 1.610 . S
N1555 S1554 1.613 . S
N1555 C1558 1.350 . S
N1556 S1554 1.610 . S
N1556 C1557 1.351 . S
C1557 C1551 1.428 . S
C1557 N1556 1.351 . S
C1557 C1558 1.434 . S
C1558 C1549 1.429 . S
C1558 N1555 1.350 . S
C1558 C1557 1.434 . S
C1559 C1560 1.369 . S
C1559 C1561 1.419 . S
C1559 H1563 0.930 . S
C1560 C1559 1.369 . S
C1560 C1569 1.429 . S
C1561 C1559 1.419 . S
C1561 C1562 1.363 . S
C1561 H1564 0.929 . S
C1562 C1561 1.363 . S
C1562 C1568 1.428 . S
H1563 C1559 0.930 . S
H1564 C1561 0.929 . S
S1565 N1566 1.613 . S
S1565 N1567 1.610 . S
N1566 S1565 1.613 . S
N1566 C1569 1.350 . S
N1567 S1565 1.610 . S
N1567 C1568 1.351 . S
C1568 C1562 1.428 . S
C1568 N1567 1.351 . S
C1568 C1569 1.434 . S
C1569 C1560 1.429 . S
C1569 N1566 1.350 . S
C1569 C1568 1.434 . S
C1570 C1571 1.369 . S
C1570 C1572 1.419 . S
C1570 H1574 0.930 1_455 S
C1571 C1570 1.369 . S
C1571 C1580 1.429 . S
C1572 C1570 1.419 . S
C1572 C1573 1.363 . S
C1572 H1575 0.918 1_455 S
C1573 C1572 1.363 . S
C1573 C1579 1.428 . S
H1574 C1570 0.930 1_655 S
H1575 C1572 0.918 1_655 S
S1576 N1577 1.613 . S
S1576 N1578 1.610 . S
N1577 S1576 1.613 . S
N1577 C1580 1.350 . S
N1578 S1576 1.610 . S
N1578 C1579 1.351 . S
C1579 C1573 1.428 . S
C1579 N1578 1.351 . S
C1579 C1580 1.434 . S
C1580 C1571 1.429 . S
C1580 N1577 1.350 . S
C1580 C1579 1.434 . S
C1581 C1582 1.369 . S
C1581 C1583 1.419 . S
C1581 H1585 0.930 . S
C1582 C1581 1.369 . S
C1582 C1591 1.429 . S
C1583 C1581 1.419 . S
C1583 C1584 1.363 . S
C1583 H1586 0.929 . S
C1584 C1583 1.363 . S
C1584 C1590 1.428 . S
H1585 C1581 0.930 . S
H1586 C1583 0.929 . S
S1587 N1588 1.613 . S
S1587 N1589 1.610 . S
N1588 S1587 1.613 . S
N1588 C1591 1.350 . S
N1589 S1587 1.610 . S
N1589 C1590 1.351 . S
C1590 C1584 1.428 . S
C1590 N1589 1.351 . S
C1590 C1591 1.434 . S
C1591 C1582 1.429 . S
C1591 N1588 1.350 . S
C1591 C1590 1.434 . S
C1592 C1593 1.369 . S
C1592 C1594 1.419 . S
C1592 H1596 0.930 . S
C1593 C1592 1.369 . S
C1593 C1602 1.429 . S
C1594 C1592 1.419 . S
C1594 C1595 1.363 . S
C1594 H1597 0.929 . S
C1595 C1594 1.363 . S
C1595 C1601 1.428 . S
H1596 C1592 0.930 . S
H1597 C1594 0.929 . S
S1598 N1599 1.613 . S
S1598 N1600 1.610 . S
N1599 S1598 1.613 . S
N1599 C1602 1.350 . S
N1600 S1598 1.610 . S
N1600 C1601 1.351 . S
C1601 C1595 1.428 . S
C1601 N1600 1.351 . S
C1601 C1602 1.434 . S
C1602 C1593 1.429 . S
C1602 N1599 1.350 . S
C1602 C1601 1.434 . S
C1603 C1604 1.369 . S
C1603 C1605 1.419 . S
C1603 H1607 0.930 . S
C1604 C1603 1.369 . S
C1604 C1613 1.429 . S
C1605 C1603 1.419 . S
C1605 C1606 1.363 . S
C1605 H1608 0.929 . S
C1606 C1605 1.363 . S
C1606 C1612 1.428 . S
H1607 C1603 0.930 . S
H1608 C1605 0.929 . S
S1609 N1610 1.613 . S
S1609 N1611 1.610 . S
N1610 S1609 1.613 . S
N1610 C1613 1.350 . S
N1611 S1609 1.610 . S
N1611 C1612 1.351 . S
C1612 C1606 1.428 . S
C1612 N1611 1.351 . S
C1612 C1613 1.434 . S
C1613 C1604 1.429 . S
C1613 N1610 1.350 . S
C1613 C1612 1.434 . S
C1614 C1615 1.369 . S
C1614 C1616 1.419 . S
C1614 H1618 0.940 . S
C1615 C1614 1.369 . S
C1615 C1624 1.429 . S
C1616 C1614 1.419 . S
C1616 C1617 1.363 . S
C1616 H1619 0.929 . S
C1617 C1616 1.363 . S
C1617 C1623 1.428 . S
H1618 C1614 0.940 . S
H1619 C1616 0.929 . S
S1620 N1621 1.613 . S
S1620 N1622 1.610 . S
N1621 S1620 1.613 . S
N1621 C1624 1.350 . S
N1622 S1620 1.610 . S
N1622 C1623 1.351 . S
C1623 C1617 1.428 . S
C1623 N1622 1.351 . S
C1623 C1624 1.434 . S
C1624 C1615 1.429 . S
C1624 N1621 1.350 . S
C1624 C1623 1.434 . S
C1625 C1626 1.369 . S
C1625 C1627 1.419 . S
C1625 H1629 0.930 . S
C1626 C1625 1.369 . S
C1626 C1635 1.429 . S
C1627 C1625 1.419 . S
C1627 C1628 1.363 . S
C1627 H1630 0.929 . S
C1628 C1627 1.363 . S
C1628 C1634 1.428 . S
H1629 C1625 0.930 . S
H1630 C1627 0.929 . S
S1631 N1632 1.613 . S
S1631 N1633 1.610 . S
N1632 S1631 1.613 . S
N1632 C1635 1.350 . S
N1633 S1631 1.610 . S
N1633 C1634 1.351 . S
C1634 C1628 1.428 . S
C1634 N1633 1.351 . S
C1634 C1635 1.434 . S
C1635 C1626 1.429 . S
C1635 N1632 1.350 . S
C1635 C1634 1.434 . S
C1636 C1637 1.369 . S
C1636 C1638 1.419 . S
C1636 H1640 0.930 . S
C1637 C1636 1.369 . S
C1637 C1646 1.429 . S
C1638 C1636 1.419 . S
C1638 C1639 1.363 . S
C1638 H1641 0.929 . S
C1639 C1638 1.363 . S
C1639 C1645 1.428 . S
H1640 C1636 0.930 . S
H1641 C1638 0.929 . S
S1642 N1643 1.613 . S
S1642 N1644 1.610 . S
N1643 S1642 1.613 . S
N1643 C1646 1.350 . S
N1644 S1642 1.610 . S
N1644 C1645 1.351 . S
C1645 C1639 1.428 . S
C1645 N1644 1.351 . S
C1645 C1646 1.434 . S
C1646 C1637 1.429 . S
C1646 N1643 1.350 . S
C1646 C1645 1.434 . S
C1647 C1648 1.369 . S
C1647 C1649 1.419 . S
C1647 H1651 0.930 . S
C1648 C1647 1.369 . S
C1648 C1657 1.429 . S
C1649 C1647 1.419 . S
C1649 C1650 1.363 . S
C1649 H1652 0.929 . S
C1650 C1649 1.363 . S
C1650 C1656 1.428 . S
H1651 C1647 0.930 . S
H1652 C1649 0.929 . S
S1653 N1654 1.613 . S
S1653 N1655 1.610 . S
N1654 S1653 1.613 . S
N1654 C1657 1.350 . S
N1655 S1653 1.610 . S
N1655 C1656 1.351 . S
C1656 C1650 1.428 . S
C1656 N1655 1.351 . S
C1656 C1657 1.434 . S
C1657 C1648 1.429 . S
C1657 N1654 1.350 . S
C1657 C1656 1.434 . S
C1658 C1659 1.369 . S
C1658 C1660 1.419 . S
C1658 H1662 0.930 . S
C1659 C1658 1.369 . S
C1659 C1668 1.429 . S
C1660 C1658 1.419 . S
C1660 C1661 1.363 . S
C1660 H1663 0.929 . S
C1661 C1660 1.363 . S
C1661 C1667 1.428 . S
H1662 C1658 0.930 . S
H1663 C1660 0.929 . S
S1664 N1665 1.613 1_655 S
S1664 N1666 1.610 1_655 S
N1665 S1664 1.613 1_455 S
N1665 C1668 1.350 . S
N1666 S1664 1.610 1_455 S
N1666 C1667 1.351 . S
C1667 C1661 1.428 . S
C1667 N1666 1.351 . S
C1667 C1668 1.434 . S
C1668 C1659 1.429 . S
C1668 N1665 1.350 . S
C1668 C1667 1.434 . S
C1669 C1670 1.369 . S
C1669 C1671 1.419 . S
C1669 H1673 0.930 . S
C1670 C1669 1.369 . S
C1670 C1679 1.429 . S
C1671 C1669 1.419 . S
C1671 C1672 1.363 . S
C1671 H1674 0.929 . S
C1672 C1671 1.363 . S
C1672 C1678 1.428 . S
H1673 C1669 0.930 . S
H1674 C1671 0.929 . S
S1675 N1676 1.613 . S
S1675 N1677 1.610 . S
N1676 S1675 1.613 . S
N1676 C1679 1.350 . S
N1677 S1675 1.610 . S
N1677 C1678 1.351 . S
C1678 C1672 1.428 . S
C1678 N1677 1.351 . S
C1678 C1679 1.434 . S
C1679 C1670 1.429 . S
C1679 N1676 1.350 . S
C1679 C1678 1.434 . S
C1680 C1681 1.369 . S
C1680 C1682 1.419 . S
C1680 H1684 0.930 . S
C1681 C1680 1.369 . S
C1681 C1690 1.429 . S
C1682 C1680 1.419 . S
C1682 C1683 1.363 . S
C1682 H1685 0.929 . S
C1683 C1682 1.363 . S
C1683 C1689 1.428 . S
H1684 C1680 0.930 . S
H1685 C1682 0.929 . S
S1686 N1687 1.613 . S
S1686 N1688 1.610 . S
N1687 S1686 1.613 . S
N1687 C1690 1.350 . S
N1688 S1686 1.610 . S
N1688 C1689 1.351 . S
C1689 C1683 1.428 . S
C1689 N1688 1.351 . S
C1689 C1690 1.434 . S
C1690 C1681 1.429 . S
C1690 N1687 1.350 . S
C1690 C1689 1.434 . S
C1691 C1692 1.369 . S
C1691 C1693 1.419 . S
C1691 H1695 0.930 . S
C1692 C1691 1.369 . S
C1692 C1701 1.429 . S
C1693 C1691 1.419 . S
C1693 C1694 1.363 . S
C1693 H1696 0.929 . S
C1694 C1693 1.363 . S
C1694 C1700 1.428 . S
H1695 C1691 0.930 . S
H1696 C1693 0.929 . S
S1697 N1698 1.613 . S
S1697 N1699 1.610 . S
N1698 S1697 1.613 . S
N1698 C1701 1.350 . S
N1699 S1697 1.610 . S
N1699 C1700 1.351 . S
C1700 C1694 1.428 . S
C1700 N1699 1.351 . S
C1700 C1701 1.434 . S
C1701 C1692 1.429 . S
C1701 N1698 1.350 . S
C1701 C1700 1.434 . S
C1702 C1703 1.369 . S
C1702 C1704 1.419 . S
C1702 H1706 0.930 . S
C1703 C1702 1.369 . S
C1703 C1712 1.429 . S
C1704 C1702 1.419 . S
C1704 C1705 1.363 1_545 S
C1704 H1707 0.929 . S
C1705 C1704 1.363 1_565 S
C1705 C1711 1.428 . S
H1706 C1702 0.930 . S
H1707 C1704 0.929 . S
S1708 N1709 1.613 1_565 S
S1708 N1710 1.610 . S
N1709 S1708 1.613 1_545 S
N1709 C1712 1.350 . S
N1710 S1708 1.610 . S
N1710 C1711 1.351 . S
C1711 C1705 1.428 . S
C1711 N1710 1.351 . S
C1711 C1712 1.434 1_565 S
C1712 C1703 1.429 . S
C1712 N1709 1.350 . S
C1712 C1711 1.434 1_545 S
C1713 C1714 1.369 . S
C1713 C1715 1.419 . S
C1713 H1717 0.930 . S
C1714 C1713 1.369 . S
C1714 C1723 1.429 . S
C1715 C1713 1.419 . S
C1715 C1716 1.363 1_565 S
C1715 H1718 0.929 . S
C1716 C1715 1.363 1_545 S
C1716 C1722 1.428 . S
H1717 C1713 0.930 . S
H1718 C1715 0.929 . S
S1719 N1720 1.613 1_545 S
S1719 N1721 1.610 . S
N1720 S1719 1.613 1_565 S
N1720 C1723 1.350 . S
N1721 S1719 1.610 . S
N1721 C1722 1.351 . S
C1722 C1716 1.428 . S
C1722 N1721 1.351 . S
C1722 C1723 1.434 1_545 S
C1723 C1714 1.429 . S
C1723 N1720 1.350 . S
C1723 C1722 1.434 1_565 S
C1724 C1725 1.369 . S
C1724 C1726 1.419 . S
C1724 H1728 0.930 . S
C1725 C1724 1.369 . S
C1725 C1734 1.429 . S
C1726 C1724 1.419 . S
C1726 C1727 1.363 . S
C1726 H1729 0.929 . S
C1727 C1726 1.363 . S
C1727 C1733 1.428 . S
H1728 C1724 0.930 . S
H1729 C1726 0.929 . S
S1730 N1731 1.613 . S
S1730 N1732 1.610 . S
N1731 S1730 1.613 . S
N1731 C1734 1.350 . S
N1732 S1730 1.610 . S
N1732 C1733 1.351 . S
C1733 C1727 1.428 . S
C1733 N1732 1.351 . S
C1733 C1734 1.434 . S
C1734 C1725 1.429 . S
C1734 N1731 1.350 . S
C1734 C1733 1.434 . S
C1735 C1736 1.369 . S
C1735 C1737 1.419 . S
C1735 H1739 0.930 . S
C1736 C1735 1.369 . S
C1736 C1745 1.429 . S
C1737 C1735 1.419 . S
C1737 C1738 1.363 . S
C1737 H1740 0.929 . S
C1738 C1737 1.363 . S
C1738 C1744 1.428 . S
H1739 C1735 0.930 . S
H1740 C1737 0.929 . S
S1741 N1742 1.613 . S
S1741 N1743 1.610 . S
N1742 S1741 1.613 . S
N1742 C1745 1.350 . S
N1743 S1741 1.610 . S
N1743 C1744 1.351 . S
C1744 C1738 1.428 . S
C1744 N1743 1.351 . S
C1744 C1745 1.434 . S
C1745 C1736 1.429 . S
C1745 N1742 1.350 . S
C1745 C1744 1.434 . S
C1746 C1747 1.369 . S
C1746 C1748 1.419 . S
C1746 H1750 0.930 . S
C1747 C1746 1.369 . S
C1747 C1756 1.429 . S
C1748 C1746 1.419 . S
C1748 C1749 1.363 . S
C1748 H1751 0.929 . S
C1749 C1748 1.363 . S
C1749 C1755 1.428 . S
H1750 C1746 0.930 . S
H1751 C1748 0.929 . S
S1752 N1753 1.613 . S
S1752 N1754 1.610 . S
N1753 S1752 1.613 . S
N1753 C1756 1.350 . S
N1754 S1752 1.610 . S
N1754 C1755 1.351 . S
C1755 C1749 1.428 . S
C1755 N1754 1.351 . S
C1755 C1756 1.434 . S
C1756 C1747 1.429 . S
C1756 N1753 1.350 . S
C1756 C1755 1.434 . S
C1757 C1758 1.369 . S
C1757 C1759 1.419 . S
C1757 H1761 0.930 . S
C1758 C1757 1.369 . S
C1758 C1767 1.429 . S
C1759 C1757 1.419 . S
C1759 C1760 1.363 1_545 S
C1759 H1762 0.929 1_545 S
C1760 C1759 1.363 1_565 S
C1760 C1766 1.428 . S
H1761 C1757 0.930 . S
H1762 C1759 0.929 1_565 S
S1763 N1764 1.613 . S
S1763 N1765 1.610 1_545 S
N1764 S1763 1.613 . S
N1764 C1767 1.350 . S
N1765 S1763 1.610 1_565 S
N1765 C1766 1.351 . S
C1766 C1760 1.428 . S
C1766 N1765 1.351 . S
C1766 C1767 1.434 1_565 S
C1767 C1758 1.429 . S
C1767 N1764 1.350 . S
C1767 C1766 1.434 1_545 S
C1768 C1769 1.369 . S
C1768 C1770 1.419 . S
C1768 H1772 0.930 . S
C1769 C1768 1.369 . S
C1769 C1778 1.429 . S
C1770 C1768 1.419 . S
C1770 C1771 1.363 . S
C1770 H1773 0.929 . S
C1771 C1770 1.363 . S
C1771 C1777 1.428 . S
H1772 C1768 0.930 . S
H1773 C1770 0.929 . S
S1774 N1775 1.613 . S
S1774 N1776 1.610 . S
N1775 S1774 1.613 . S
N1775 C1778 1.350 . S
N1776 S1774 1.610 . S
N1776 C1777 1.351 . S
C1777 C1771 1.428 . S
C1777 N1776 1.351 . S
C1777 C1778 1.434 . S
C1778 C1769 1.429 . S
C1778 N1775 1.350 . S
C1778 C1777 1.434 . S
C1779 C1780 1.369 . S
C1779 C1781 1.419 . S
C1779 H1783 0.930 . S
C1780 C1779 1.369 . S
C1780 C1789 1.429 . S
C1781 C1779 1.419 . S
C1781 C1782 1.363 . S
C1781 H1784 0.929 . S
C1782 C1781 1.363 . S
C1782 C1788 1.428 . S
H1783 C1779 0.930 . S
H1784 C1781 0.929 . S
S1785 N1786 1.613 . S
S1785 N1787 1.610 . S
N1786 S1785 1.613 . S
N1786 C1789 1.350 . S
N1787 S1785 1.610 . S
N1787 C1788 1.351 . S
C1788 C1782 1.428 . S
C1788 N1787 1.351 . S
C1788 C1789 1.434 . S
C1789 C1780 1.429 . S
C1789 N1786 1.350 . S
C1789 C1788 1.434 . S
C1790 C1791 1.369 . S
C1790 C1792 1.419 . S
C1790 H1794 0.930 . S
C1791 C1790 1.369 . S
C1791 C1800 1.429 . S
C1792 C1790 1.419 . S
C1792 C1793 1.363 . S
C1792 H1795 0.929 . S
C1793 C1792 1.363 . S
C1793 C1799 1.428 . S
H1794 C1790 0.930 . S
H1795 C1792 0.929 . S
S1796 N1797 1.613 . S
S1796 N1798 1.610 . S
N1797 S1796 1.613 . S
N1797 C1800 1.350 . S
N1798 S1796 1.610 . S
N1798 C1799 1.351 . S
C1799 C1793 1.428 . S
C1799 N1798 1.351 . S
C1799 C1800 1.434 . S
C1800 C1791 1.429 . S
C1800 N1797 1.350 . S
C1800 C1799 1.434 . S
C1801 C1802 1.369 . S
C1801 C1803 1.419 . S
C1801 H1805 0.930 . S
C1802 C1801 1.369 . S
C1802 C1811 1.429 . S
C1803 C1801 1.419 . S
C1803 C1804 1.363 . S
C1803 H1806 0.929 . S
C1804 C1803 1.363 . S
C1804 C1810 1.428 . S
H1805 C1801 0.930 . S
H1806 C1803 0.929 . S
S1807 N1808 1.613 . S
S1807 N1809 1.610 . S
N1808 S1807 1.613 . S
N1808 C1811 1.350 . S
N1809 S1807 1.610 . S
N1809 C1810 1.351 . S
C1810 C1804 1.428 . S
C1810 N1809 1.351 . S
C1810 C1811 1.434 . S
C1811 C1802 1.429 . S
C1811 N1808 1.350 . S
C1811 C1810 1.434 . S
C1812 C1813 1.369 . S
C1812 C1814 1.419 . S
C1812 H1816 0.930 . S
C1813 C1812 1.369 . S
C1813 C1822 1.429 . S
C1814 C1812 1.419 . S
C1814 C1815 1.363 . S
C1814 H1817 0.929 . S
C1815 C1814 1.363 . S
C1815 C1821 1.428 . S
H1816 C1812 0.930 . S
H1817 C1814 0.929 . S
S1818 N1819 1.613 1_554 S
S1818 N1820 1.610 . S
N1819 S1818 1.613 1_556 S
N1819 C1822 1.350 . S
N1820 S1818 1.610 . S
N1820 C1821 1.351 1_554 S
C1821 C1815 1.428 . S
C1821 N1820 1.351 1_556 S
C1821 C1822 1.434 . S
C1822 C1813 1.429 . S
C1822 N1819 1.350 . S
C1822 C1821 1.434 . S
C1823 C1824 1.369 . S
C1823 C1825 1.419 . S
C1823 H1827 0.930 . S
C1824 C1823 1.369 . S
C1824 C1833 1.429 . S
C1825 C1823 1.419 . S
C1825 C1826 1.363 . S
C1825 H1828 0.929 . S
C1826 C1825 1.363 . S
C1826 C1832 1.428 . S
H1827 C1823 0.930 . S
H1828 C1825 0.929 . S
S1829 N1830 1.613 . S
S1829 N1831 1.610 . S
N1830 S1829 1.613 . S
N1830 C1833 1.350 . S
N1831 S1829 1.610 . S
N1831 C1832 1.351 . S
C1832 C1826 1.428 . S
C1832 N1831 1.351 . S
C1832 C1833 1.434 . S
C1833 C1824 1.429 . S
C1833 N1830 1.350 . S
C1833 C1832 1.434 . S
C1834 C1835 1.369 . S
C1834 C1836 1.419 . S
C1834 H1838 0.930 . S
C1835 C1834 1.369 . S
C1835 C1844 1.429 . S
C1836 C1834 1.419 . S
C1836 C1837 1.363 . S
C1836 H1839 0.929 . S
C1837 C1836 1.363 . S
C1837 C1843 1.428 . S
H1838 C1834 0.930 . S
H1839 C1836 0.929 . S
S1840 N1841 1.613 . S
S1840 N1842 1.610 . S
N1841 S1840 1.613 . S
N1841 C1844 1.350 . S
N1842 S1840 1.610 . S
N1842 C1843 1.351 . S
C1843 C1837 1.428 . S
C1843 N1842 1.351 . S
C1843 C1844 1.434 . S
C1844 C1835 1.429 . S
C1844 N1841 1.350 . S
C1844 C1843 1.434 . S
C1845 C1846 1.369 . S
C1845 C1847 1.419 . S
C1845 H1849 0.930 . S
C1846 C1845 1.369 . S
C1846 C1855 1.429 . S
C1847 C1845 1.419 . S
C1847 C1848 1.363 . S
C1847 H1850 0.929 . S
C1848 C1847 1.363 . S
C1848 C1854 1.428 . S
H1849 C1845 0.930 . S
H1850 C1847 0.929 . S
S1851 N1852 1.613 . S
S1851 N1853 1.610 . S
N1852 S1851 1.613 . S
N1852 C1855 1.350 . S
N1853 S1851 1.610 . S
N1853 C1854 1.351 . S
C1854 C1848 1.428 . S
C1854 N1853 1.351 . S
C1854 C1855 1.434 . S
C1855 C1846 1.429 . S
C1855 N1852 1.350 . S
C1855 C1854 1.434 . S
C1856 C1857 1.369 . S
C1856 C1858 1.419 . S
C1856 H1860 0.930 . S
C1857 C1856 1.369 . S
C1857 C1866 1.429 . S
C1858 C1856 1.419 . S
C1858 C1859 1.363 . S
C1858 H1861 0.929 . S
C1859 C1858 1.363 . S
C1859 C1865 1.428 . S
H1860 C1856 0.930 . S
H1861 C1858 0.929 . S
S1862 N1863 1.613 . S
S1862 N1864 1.610 . S
N1863 S1862 1.613 . S
N1863 C1866 1.350 . S
N1864 S1862 1.610 . S
N1864 C1865 1.351 . S
C1865 C1859 1.428 . S
C1865 N1864 1.351 . S
C1865 C1866 1.434 . S
C1866 C1857 1.429 . S
C1866 N1863 1.350 . S
C1866 C1865 1.434 . S
C1867 C1868 1.369 . S
C1867 C1869 1.419 . S
C1867 H1871 0.930 . S
C1868 C1867 1.369 . S
C1868 C1877 1.429 . S
C1869 C1867 1.419 . S
C1869 C1870 1.363 . S
C1869 H1872 0.929 . S
C1870 C1869 1.363 . S
C1870 C1876 1.428 . S
H1871 C1867 0.930 . S
H1872 C1869 0.929 . S
S1873 N1874 1.613 . S
S1873 N1875 1.610 . S
N1874 S1873 1.613 . S
N1874 C1877 1.350 . S
N1875 S1873 1.610 . S
N1875 C1876 1.351 . S
C1876 C1870 1.428 . S
C1876 N1875 1.351 . S
C1876 C1877 1.434 . S
C1877 C1868 1.429 . S
C1877 N1874 1.350 . S
C1877 C1876 1.434 . S
C1878 C1879 1.369 . S
C1878 C1880 1.419 . S
C1878 H1882 0.930 . S
C1879 C1878 1.369 . S
C1879 C1888 1.429 . S
C1880 C1878 1.419 . S
C1880 C1881 1.363 . S
C1880 H1883 0.929 . S
C1881 C1880 1.363 . S
C1881 C1887 1.428 . S
H1882 C1878 0.930 . S
H1883 C1880 0.929 . S
S1884 N1885 1.613 . S
S1884 N1886 1.610 . S
N1885 S1884 1.613 . S
N1885 C1888 1.350 . S
N1886 S1884 1.610 . S
N1886 C1887 1.351 . S
C1887 C1881 1.428 . S
C1887 N1886 1.351 . S
C1887 C1888 1.434 . S
C1888 C1879 1.429 . S
C1888 N1885 1.350 . S
C1888 C1887 1.434 . S
C1889 C1890 1.369 . S
C1889 C1891 1.419 . S
C1889 H1893 0.930 . S
C1890 C1889 1.369 . S
C1890 C1899 1.429 . S
C1891 C1889 1.419 . S
C1891 C1892 1.363 . S
C1891 H1894 0.929 . S
C1892 C1891 1.363 . S
C1892 C1898 1.428 . S
H1893 C1889 0.930 . S
H1894 C1891 0.929 . S
S1895 N1896 1.613 . S
S1895 N1897 1.610 . S
N1896 S1895 1.613 . S
N1896 C1899 1.350 . S
N1897 S1895 1.610 . S
N1897 C1898 1.351 . S
C1898 C1892 1.428 . S
C1898 N1897 1.351 . S
C1898 C1899 1.434 . S
C1899 C1890 1.429 . S
C1899 N1896 1.350 . S
C1899 C1898 1.434 . S
C1900 C1901 1.369 . S
C1900 C1902 1.419 . S
C1900 H1904 0.930 . S
C1901 C1900 1.369 . S
C1901 C1910 1.429 . S
C1902 C1900 1.419 . S
C1902 C1903 1.363 . S
C1902 H1905 0.929 . S
C1903 C1902 1.363 . S
C1903 C1909 1.428 . S
H1904 C1900 0.930 . S
H1905 C1902 0.929 . S
S1906 N1907 1.613 . S
S1906 N1908 1.610 . S
N1907 S1906 1.613 . S
N1907 C1910 1.350 . S
N1908 S1906 1.610 . S
N1908 C1909 1.351 . S
C1909 C1903 1.428 . S
C1909 N1908 1.351 . S
C1909 C1910 1.434 . S
C1910 C1901 1.429 . S
C1910 N1907 1.350 . S
C1910 C1909 1.434 . S
C1911 C1912 1.369 . S
C1911 C1913 1.419 . S
C1911 H1915 0.930 . S
C1912 C1911 1.369 . S
C1912 C1921 1.429 . S
C1913 C1911 1.419 . S
C1913 C1914 1.363 . S
C1913 H1916 0.929 . S
C1914 C1913 1.363 . S
C1914 C1920 1.428 . S
H1915 C1911 0.930 . S
H1916 C1913 0.929 . S
S1917 N1918 1.613 . S
S1917 N1919 1.610 . S
N1918 S1917 1.613 . S
N1918 C1921 1.350 . S
N1919 S1917 1.610 . S
N1919 C1920 1.351 . S
C1920 C1914 1.428 . S
C1920 N1919 1.351 . S
C1920 C1921 1.434 . S
C1921 C1912 1.429 . S
C1921 N1918 1.350 . S
C1921 C1920 1.434 . S
C1922 C1923 1.369 . S
C1922 C1924 1.419 . S
C1922 H1926 0.930 . S
C1923 C1922 1.369 . S
C1923 C1932 1.429 . S
C1924 C1922 1.419 . S
C1924 C1925 1.363 . S
C1924 H1927 0.929 . S
C1925 C1924 1.363 . S
C1925 C1931 1.428 . S
H1926 C1922 0.930 . S
H1927 C1924 0.929 . S
S1928 N1929 1.613 . S
S1928 N1930 1.610 . S
N1929 S1928 1.613 . S
N1929 C1932 1.350 . S
N1930 S1928 1.610 . S
N1930 C1931 1.351 . S
C1931 C1925 1.428 . S
C1931 N1930 1.351 . S
C1931 C1932 1.434 . S
C1932 C1923 1.429 . S
C1932 N1929 1.350 . S
C1932 C1931 1.434 . S
C1933 C1934 1.369 . S
C1933 C1935 1.419 . S
C1933 H1937 0.930 . S
C1934 C1933 1.369 . S
C1934 C1943 1.429 . S
C1935 C1933 1.419 . S
C1935 C1936 1.363 . S
C1935 H1938 0.929 . S
C1936 C1935 1.363 . S
C1936 C1942 1.428 . S
H1937 C1933 0.930 . S
H1938 C1935 0.929 . S
S1939 N1940 1.613 . S
S1939 N1941 1.610 . S
N1940 S1939 1.613 . S
N1940 C1943 1.350 . S
N1941 S1939 1.610 . S
N1941 C1942 1.351 . S
C1942 C1936 1.428 . S
C1942 N1941 1.351 . S
C1942 C1943 1.434 . S
C1943 C1934 1.429 . S
C1943 N1940 1.350 . S
C1943 C1942 1.434 . S
C1944 C1945 1.369 . S
C1944 C1946 1.419 . S
C1944 H1948 0.930 . S
C1945 C1944 1.369 . S
C1945 C1954 1.429 . S
C1946 C1944 1.419 . S
C1946 C1947 1.363 . S
C1946 H1949 0.929 . S
C1947 C1946 1.363 . S
C1947 C1953 1.428 . S
H1948 C1944 0.930 . S
H1949 C1946 0.929 . S
S1950 N1951 1.613 . S
S1950 N1952 1.610 . S
N1951 S1950 1.613 . S
N1951 C1954 1.350 . S
N1952 S1950 1.610 . S
N1952 C1953 1.351 . S
C1953 C1947 1.428 . S
C1953 N1952 1.351 . S
C1953 C1954 1.434 . S
C1954 C1945 1.429 . S
C1954 N1951 1.350 . S
C1954 C1953 1.434 . S
C1955 C1956 1.369 . S
C1955 C1957 1.419 1_565 S
C1955 H1959 0.930 . S
C1956 C1955 1.369 . S
C1956 C1965 1.429 . S
C1957 C1955 1.419 1_545 S
C1957 C1958 1.363 . S
C1957 H1960 0.929 . S
C1958 C1957 1.363 . S
C1958 C1964 1.428 1_545 S
H1959 C1955 0.930 . S
H1960 C1957 0.929 . S
S1961 N1962 1.613 . S
S1961 N1963 1.610 . S
N1962 S1961 1.613 . S
N1962 C1965 1.350 . S
N1963 S1961 1.610 . S
N1963 C1964 1.351 . S
C1964 C1958 1.428 1_565 S
C1964 N1963 1.351 . S
C1964 C1965 1.434 . S
C1965 C1956 1.429 . S
C1965 N1962 1.350 . S
C1965 C1964 1.434 . S
C1966 C1967 1.369 . S
C1966 C1968 1.419 . S
C1966 H1970 0.930 . S
C1967 C1966 1.369 . S
C1967 C1976 1.429 . S
C1968 C1966 1.419 . S
C1968 C1969 1.363 . S
C1968 H1971 0.929 . S
C1969 C1968 1.363 . S
C1969 C1975 1.428 . S
H1970 C1966 0.930 . S
H1971 C1968 0.929 . S
S1972 N1973 1.613 . S
S1972 N1974 1.610 . S
N1973 S1972 1.613 . S
N1973 C1976 1.350 . S
N1974 S1972 1.610 . S
N1974 C1975 1.351 . S
C1975 C1969 1.428 . S
C1975 N1974 1.351 . S
C1975 C1976 1.434 . S
C1976 C1967 1.429 . S
C1976 N1973 1.350 . S
C1976 C1975 1.434 . S
C1977 C1978 1.369 1_554 S
C1977 C1979 1.419 . S
C1977 H1981 0.930 . S
C1978 C1977 1.369 1_556 S
C1978 C1987 1.429 . S
C1979 C1977 1.419 . S
C1979 C1980 1.363 1_554 S
C1979 H1982 0.929 . S
C1980 C1979 1.363 1_556 S
C1980 C1986 1.428 . S
H1981 C1977 0.930 . S
H1982 C1979 0.929 . S
S1983 N1984 1.613 . S
S1983 N1985 1.610 . S
N1984 S1983 1.613 . S
N1984 C1987 1.350 . S
N1985 S1983 1.610 . S
N1985 C1986 1.351 . S
C1986 C1980 1.428 . S
C1986 N1985 1.351 . S
C1986 C1987 1.434 . S
C1987 C1978 1.429 . S
C1987 N1984 1.350 . S
C1987 C1986 1.434 . S
C1988 C1989 1.369 . S
C1988 C1990 1.419 . S
C1988 H1992 0.930 . S
C1989 C1988 1.369 . S
C1989 C1998 1.429 . S
C1990 C1988 1.419 . S
C1990 C1991 1.363 . S
C1990 H1993 0.929 . S
C1991 C1990 1.363 . S
C1991 C1997 1.428 . S
H1992 C1988 0.930 . S
H1993 C1990 0.929 . S
S1994 N1995 1.613 . S
S1994 N1996 1.610 . S
N1995 S1994 1.613 . S
N1995 C1998 1.350 . S
N1996 S1994 1.610 . S
N1996 C1997 1.351 . S
C1997 C1991 1.428 . S
C1997 N1996 1.351 . S
C1997 C1998 1.434 . S
C1998 C1989 1.429 . S
C1998 N1995 1.350 . S
C1998 C1997 1.434 . S
C1999 C2000 1.369 . S
C1999 C2001 1.419 . S
C1999 H2003 0.930 . S
C2000 C1999 1.369 . S
C2000 C2009 1.429 . S
C2001 C1999 1.419 . S
C2001 C2002 1.363 . S
C2001 H2004 0.929 . S
C2002 C2001 1.363 . S
C2002 C2008 1.428 . S
H2003 C1999 0.930 . S
H2004 C2001 0.929 . S
S2005 N2006 1.620 . S
S2005 N2007 1.610 . S
N2006 S2005 1.620 . S
N2006 C2009 1.339 1_556 S
N2007 S2005 1.610 . S
N2007 C2008 1.351 1_556 S
C2008 C2002 1.428 . S
C2008 N2007 1.351 1_554 S
C2008 C2009 1.434 . S
C2009 C2000 1.429 . S
C2009 N2006 1.339 1_554 S
C2009 C2008 1.434 . S
C2010 C2011 1.369 . S
C2010 C2012 1.419 . S
C2010 H2014 0.930 . S
C2011 C2010 1.369 . S
C2011 C2020 1.429 . S
C2012 C2010 1.419 . S
C2012 C2013 1.363 . S
C2012 H2015 0.929 . S
C2013 C2012 1.363 . S
C2013 C2019 1.428 . S
H2014 C2010 0.930 . S
H2015 C2012 0.929 . S
S2016 N2017 1.613 . S
S2016 N2018 1.610 . S
N2017 S2016 1.613 . S
N2017 C2020 1.350 . S
N2018 S2016 1.610 . S
N2018 C2019 1.351 . S
C2019 C2013 1.428 . S
C2019 N2018 1.351 . S
C2019 C2020 1.434 . S
C2020 C2011 1.429 . S
C2020 N2017 1.350 . S
C2020 C2019 1.434 . S
C2021 C2022 1.369 . S
C2021 C2023 1.419 . S
C2021 H2025 0.930 . S
C2022 C2021 1.369 . S
C2022 C2031 1.429 . S
C2023 C2021 1.419 . S
C2023 C2024 1.363 . S
C2023 H2026 0.929 . S
C2024 C2023 1.363 . S
C2024 C2030 1.428 . S
H2025 C2021 0.930 . S
H2026 C2023 0.929 . S
S2027 N2028 1.613 . S
S2027 N2029 1.610 . S
N2028 S2027 1.613 . S
N2028 C2031 1.350 . S
N2029 S2027 1.610 . S
N2029 C2030 1.351 . S
C2030 C2024 1.428 . S
C2030 N2029 1.351 . S
C2030 C2031 1.434 . S
C2031 C2022 1.429 . S
C2031 N2028 1.350 . S
C2031 C2030 1.434 . S
C977 C111 1.802 1_455 S
C979 C358 1.819 . S
C988 C64 1.391 . S
C990 C378 1.516 . S
C999 C77 0.835 . S
C1001 C425 0.821 . S
C1012 C482 1.093 . S
C1010 C95 1.160 . S
C1021 C25 2.432 . S
C1023 C499 2.427 1_565 S
C1034 C558 1.948 . S
C1032 C36 1.924 . S
C1045 C591 2.732 . S
C1043 C50 2.622 . S
C1054 C11 2.503 . S
C1056 C638 2.449 . S
C1067 C351 1.846 . S
C1065 C237 1.685 1_545 S
C1076 C245 1.565 . S
C1078 C379 1.549 . S
C1089 C418 0.730 . S
C1087 C279 0.759 1_565 S
C1100 C478 2.205 . S
C1098 C175 2.174 . S
C1109 C231 0.617 . S
C1111 C505 0.630 . S
C1122 C551 2.169 . S
C1120 C251 2.138 . S
C1133 C602 1.010 . S
C1131 C273 1.025 . S
C1144 C631 2.320 . S
C1142 C181 2.181 . S
C1155 C362 2.085 . S
C1153 C165 2.272 . S
C1164 C288 2.114 . S
C1166 C658 2.178 . S
C1177 C722 1.546 . S
C1175 C333 1.567 . S
C1188 C758 1.573 . S
C1186 C316 1.624 . S
C1197 C123 1.945 . S
C1199 C642 1.849 . S
C1208 C137 2.491 . S
C1210 C419 2.498 . S
C1219 C330 1.392 . S
C1221 C791 1.597 . S
C1232 C825 0.597 . S
C1230 C302 0.659 . S
C1243 C339 2.025 1_565 S
C1241 C63 2.003 . S
C1254 C831 1.748 . S
C1252 C106 1.786 . S
C1263 C97 0.939 . S
C1265 C442 0.910 . S
C1274 C81 1.159 . S
C1276 C785 1.197 . S
C1287 C518 2.557 . S
C1285 C13 2.490 . S
C1296 C55 1.822 . S
C1298 C699 1.964 . S
C1309 C578 2.654 1_566 S
C1307 C35 2.648 . S
C1320 C859 2.613 . S
C1318 C21 2.639 . S
C1331 C338 1.781 . S
C1329 C147 1.719 . S
C1342 C838 1.712 . S
C1340 C321 1.709 . S
C1351 C119 0.772 . S
C1353 C431 0.799 . S
C1362 C293 2.113 . S
C1364 C779 2.286 . S
C1373 C153 0.668 . S
C1375 C522 0.683 . S
C1386 C698 2.279 . S
C1384 C315 2.304 . S
C1395 C125 0.913 . S
C1397 C585 0.980 . S
C1406 C287 2.378 . S
C1408 C858 2.379 . S
C1417 C193 2.009 1_556 S
C1419 C345 1.959 . S
C1428 C176 2.133 . S
C1430 C671 2.146 . S
C1439 C263 1.501 . S
C1441 C545 1.623 . S
C1450 C246 1.601 . S
C1452 C739 1.641 . S
C1463 C865 1.717 . S
C1461 C277 1.665 . S
C1472 C221 2.549 . S
C1474 C438 2.556 1_565 S
C1485 C458 1.630 . S
C1483 C260 1.600 . S
C1496 C402 0.767 . S
C1494 C204 0.760 . S
C1505 C83 1.995 . S
C1507 C918 2.019 . S
C1518 C818 1.518 . S
C1516 C92 1.403 . S
C1527 C105 0.721 . S
C1529 C945 0.732 . S
C1538 C67 1.214 . S
C1540 C802 1.160 1_455 S
C1549 C53 2.419 . S
C1551 C659 2.414 . S
C1562 C718 1.986 . S
C1560 C8 1.962 1_655 S
C1573 C751 2.745 . S
C1571 C22 2.642 . S
C1584 C878 2.373 . S
C1582 C39 2.438 . S
C1595 C911 1.769 . S
C1593 C265 1.613 . S
C1604 C189 1.541 . S
C1606 C819 1.525 . S
C1617 C938 0.755 . S
C1615 C209 0.746 . S
C1628 C798 2.198 . S
C1626 C217 2.171 . S
C1639 C665 0.633 . S
C1637 C259 0.591 . S
C1648 C195 2.189 . S
C1650 C711 2.209 . S
C1661 C762 0.982 . S
C1659 C203 1.010 . S
C1670 C223 2.172 . S
C1672 C871 2.299 . S
C1683 C922 2.103 . S
C1681 C319 2.289 . S
C1692 C134 2.161 . S
C1694 C498 2.224 . S
C1705 C562 1.483 . S
C1703 C151 1.523 . S
C1716 C598 1.575 . S
C1714 C162 1.615 . S
C1727 C882 1.570 . S
C1725 C305 1.661 . S
C1736 C291 2.525 . S
C1738 C939 2.528 1_655 S
C1749 C471 1.627 . S
C1747 C148 1.441 . S
C1760 C385 0.612 . S
C1758 C120 0.610 . S
C1769 C91 2.056 . S
C1771 C899 2.088 . S
C1782 C391 1.513 . S
C1780 C78 1.574 . S
C1791 C69 0.914 . S
C1793 C962 0.902 . S
C1802 C109 1.018 . S
C1804 C465 1.020 . S
C1813 C41 2.491 . S
C1815 C678 2.547 . S
C1826 C539 2.000 . S
C1824 C27 1.862 . S
C1835 C7 2.687 . S
C1837 C738 2.691 . S
C1846 C49 2.582 . S
C1848 C619 2.551 . S
C1859 C898 1.833 . S
C1857 C329 1.772 . S
C1868 C167 1.710 . S
C1870 C398 1.703 . S
C1881 C951 0.646 . S
C1879 C301 0.641 . S
C1890 C139 2.151 . S
C1892 C459 2.307 . S
C1901 C335 0.639 . S
C1903 C682 0.662 . S
C1914 C538 2.330 . S
C1912 C161 2.352 1_556 S
C1923 C307 0.813 . S
C1925 C745 0.878 . S
C1936 C618 2.376 . S
C1934 C133 2.377 . S
C1947 C905 2.051 . S
C1945 C249 2.119 . S
C1958 C511 2.210 . S
C1956 C218 2.200 . S
C1967 C235 1.466 . S
C1969 C705 1.568 . S
C1980 C579 1.582 1_556 S
C1978 C190 1.547 . S
C1989 C207 1.677 . S
C1991 C625 1.723 . S
C2000 C179 2.587 . S
C2002 C958 2.591 . S
C2013 C778 1.647 . S
C2011 C232 1.629 . S
C2024 C842 0.742 . S
C2022 C274 0.756 . S
