# Generated by pormake.
# Topology ocu, (6,8)-cn, num edge types: 1
# Building blocks:
#     Node 0, Type 0, BuildingBlock: FUNLAD_clean_sbu_0, # of connection points: 6
#     Node 1, Type 0, BuildingBlock: FUNLAD_clean_sbu_0, # of connection points: 6
#     Node 2, Type 0, BuildingBlock: FUNLAD_clean_sbu_0, # of connection points: 6
#     Node 3, Type 0, BuildingBlock: FUNLAD_clean_sbu_0, # of connection points: 6
#     Node 4, Type 0, BuildingBlock: FUNLAD_clean_sbu_0, # of connection points: 6
#     Node 5, Type 0, BuildingBlock: FUNLAD_clean_sbu_0, # of connection points: 6
#     Node 6, Type 0, BuildingBlock: FUNLAD_clean_sbu_0, # of connection points: 6
#     Node 7, Type 0, BuildingBlock: FUNLAD_clean_sbu_0, # of connection points: 6
#     Node 8, Type 1, BuildingBlock: VETTIZ_charged_sbu_0, # of connection points: 8
#     Node 9, Type 1, BuildingBlock: VETTIZ_charged_sbu_0, # of connection points: 8
#     Node 10, Type 1, BuildingBlock: VETTIZ_charged_sbu_0, # of connection points: 8
#     Node 11, Type 1, BuildingBlock: VETTIZ_charged_sbu_0, # of connection points: 8
#     Node 12, Type 1, BuildingBlock: VETTIZ_charged_sbu_0, # of connection points: 8
#     Node 13, Type 1, BuildingBlock: VETTIZ_charged_sbu_0, # of connection points: 8
#     Edge 14, Type (0, 1), BuildingBlock: OJICUG_clean_linker_0, # of connection points: 2
#     Edge 15, Type (0, 1), BuildingBlock: OJICUG_clean_linker_0, # of connection points: 2
#     Edge 16, Type (0, 1), BuildingBlock: OJICUG_clean_linker_0, # of connection points: 2
#     Edge 17, Type (0, 1), BuildingBlock: OJICUG_clean_linker_0, # of connection points: 2
#     Edge 18, Type (0, 1), BuildingBlock: OJICUG_clean_linker_0, # of connection points: 2
#     Edge 19, Type (0, 1), BuildingBlock: OJICUG_clean_linker_0, # of connection points: 2
#     Edge 20, Type (0, 1), BuildingBlock: OJICUG_clean_linker_0, # of connection points: 2
#     Edge 21, Type (0, 1), BuildingBlock: OJICUG_clean_linker_0, # of connection points: 2
#     Edge 22, Type (0, 1), BuildingBlock: OJICUG_clean_linker_0, # of connection points: 2
#     Edge 23, Type (0, 1), BuildingBlock: OJICUG_clean_linker_0, # of connection points: 2
#     Edge 24, Type (0, 1), BuildingBlock: OJICUG_clean_linker_0, # of connection points: 2
#     Edge 25, Type (0, 1), BuildingBlock: OJICUG_clean_linker_0, # of connection points: 2
#     Edge 26, Type (0, 1), BuildingBlock: OJICUG_clean_linker_0, # of connection points: 2
#     Edge 27, Type (0, 1), BuildingBlock: OJICUG_clean_linker_0, # of connection points: 2
#     Edge 28, Type (0, 1), BuildingBlock: OJICUG_clean_linker_0, # of connection points: 2
#     Edge 29, Type (0, 1), BuildingBlock: OJICUG_clean_linker_0, # of connection points: 2
#     Edge 30, Type (0, 1), BuildingBlock: OJICUG_clean_linker_0, # of connection points: 2
#     Edge 31, Type (0, 1), BuildingBlock: OJICUG_clean_linker_0, # of connection points: 2
#     Edge 32, Type (0, 1), BuildingBlock: OJICUG_clean_linker_0, # of connection points: 2
#     Edge 33, Type (0, 1), BuildingBlock: OJICUG_clean_linker_0, # of connection points: 2
#     Edge 34, Type (0, 1), BuildingBlock: OJICUG_clean_linker_0, # of connection points: 2
#     Edge 35, Type (0, 1), BuildingBlock: OJICUG_clean_linker_0, # of connection points: 2
#     Edge 36, Type (0, 1), BuildingBlock: OJICUG_clean_linker_0, # of connection points: 2
#     Edge 37, Type (0, 1), BuildingBlock: OJICUG_clean_linker_0, # of connection points: 2
#     Edge 38, Type (0, 1), BuildingBlock: OJICUG_clean_linker_0, # of connection points: 2
#     Edge 39, Type (0, 1), BuildingBlock: OJICUG_clean_linker_0, # of connection points: 2
#     Edge 40, Type (0, 1), BuildingBlock: OJICUG_clean_linker_0, # of connection points: 2
#     Edge 41, Type (0, 1), BuildingBlock: OJICUG_clean_linker_0, # of connection points: 2
#     Edge 42, Type (0, 1), BuildingBlock: OJICUG_clean_linker_0, # of connection points: 2
#     Edge 43, Type (0, 1), BuildingBlock: OJICUG_clean_linker_0, # of connection points: 2
#     Edge 44, Type (0, 1), BuildingBlock: OJICUG_clean_linker_0, # of connection points: 2
#     Edge 45, Type (0, 1), BuildingBlock: OJICUG_clean_linker_0, # of connection points: 2
#     Edge 46, Type (0, 1), BuildingBlock: OJICUG_clean_linker_0, # of connection points: 2
#     Edge 47, Type (0, 1), BuildingBlock: OJICUG_clean_linker_0, # of connection points: 2
#     Edge 48, Type (0, 1), BuildingBlock: OJICUG_clean_linker_0, # of connection points: 2
#     Edge 49, Type (0, 1), BuildingBlock: OJICUG_clean_linker_0, # of connection points: 2
#     Edge 50, Type (0, 1), BuildingBlock: OJICUG_clean_linker_0, # of connection points: 2
#     Edge 51, Type (0, 1), BuildingBlock: OJICUG_clean_linker_0, # of connection points: 2
#     Edge 52, Type (0, 1), BuildingBlock: OJICUG_clean_linker_0, # of connection points: 2
#     Edge 53, Type (0, 1), BuildingBlock: OJICUG_clean_linker_0, # of connection points: 2
#     Edge 54, Type (0, 1), BuildingBlock: OJICUG_clean_linker_0, # of connection points: 2
#     Edge 55, Type (0, 1), BuildingBlock: OJICUG_clean_linker_0, # of connection points: 2
#     Edge 56, Type (0, 1), BuildingBlock: OJICUG_clean_linker_0, # of connection points: 2
#     Edge 57, Type (0, 1), BuildingBlock: OJICUG_clean_linker_0, # of connection points: 2
#     Edge 58, Type (0, 1), BuildingBlock: OJICUG_clean_linker_0, # of connection points: 2
#     Edge 59, Type (0, 1), BuildingBlock: OJICUG_clean_linker_0, # of connection points: 2
#     Edge 60, Type (0, 1), BuildingBlock: OJICUG_clean_linker_0, # of connection points: 2
#     Edge 61, Type (0, 1), BuildingBlock: OJICUG_clean_linker_0, # of connection points: 2
# Relax obj value: 0.181
# Max RMSD: 0.270
# Mean RMSD: 0.162
data_MOF--net-ocu--node1-FUNLAD_clean_sbu_0--node2-VETTIZ_charged_sbu_0--edge1-OJICUG_clean_linker_0
_symmetry_space_group_name_H-M    P1
_symmetry_Int_Tables_number       1
_symmetry_cell_setting            triclinic
loop_
_symmetry_equiv_pos_as_xyz
'x, y, z'
_cell_length_a     29.319261
_cell_length_b     29.511822
_cell_length_c     29.884036
_cell_angle_alpha  82.932347
_cell_angle_beta   82.592733
_cell_angle_gamma 79.23555
loop_
_atom_site_label
_atom_site_type_symbol
_atom_site_fract_x
_atom_site_fract_y
_atom_site_fract_z
_atom_type_partial_charge
C0 C 0.21481 0.31104 0.32543 0.0
N1 N 0.19783 0.19533 0.26439 0.0
C2 C 0.1739 0.18427 0.30491 0.0
C3 C 0.14079 0.15602 0.30749 0.0
C4 C 0.13344 0.13766 0.26827 0.0
C5 C 0.15782 0.15003 0.22671 0.0
C6 C 0.18954 0.1801 0.22538 0.0
Zn7 Zn 0.24449 0.23737 0.26194 0.0
C8 C 0.21701 0.32035 0.19391 0.0
N9 N 0.33703 0.32959 0.25035 0.0
C10 C 0.34703 0.34617 0.28796 0.0
C11 C 0.35337 0.34499 0.20794 0.0
C12 C 0.37954 0.37974 0.20178 0.0
C13 C 0.38854 0.39933 0.23962 0.0
C14 C 0.37283 0.38202 0.28328 0.0
Zn15 Zn 0.29252 0.28633 0.25387 0.0
O16 O 0.2029 0.27487 0.31471 0.0
C17 C 0.3201 0.20419 0.32156 0.0
O18 O 0.25118 0.32416 0.30469 0.0
H19 H 0.34437 0.33169 0.17874 0.0
H20 H 0.18123 0.19649 0.33542 0.0
H21 H 0.33347 0.3329 0.32139 0.0
O22 O 0.28337 0.1918 0.31212 0.0
O23 O 0.33058 0.24241 0.3027 0.0
H24 H 0.20823 0.19044 0.19329 0.0
O25 O 0.33565 0.24878 0.20239 0.0
O26 O 0.28755 0.19942 0.21032 0.0
O27 O 0.25419 0.33117 0.20381 0.0
O28 O 0.20521 0.28264 0.21266 0.0
C29 C 0.32508 0.21214 0.19146 0.0
H30 H 0.12336 0.14593 0.34045 0.0
H31 H 0.1535 0.13556 0.19624 0.0
H32 H 0.39088 0.3926 0.16743 0.0
H33 H 0.37929 0.39671 0.31285 0.0
C34 C 0.68338 0.32145 0.2358 0.0
N35 N 0.7476 0.19254 0.20308 0.0
C36 C 0.70229 0.18624 0.21318 0.0
C37 C 0.68234 0.16084 0.18743 0.0
C38 C 0.70796 0.14291 0.14904 0.0
C39 C 0.75448 0.15002 0.13809 0.0
C40 C 0.77401 0.17473 0.16617 0.0
Zn41 Zn 0.76414 0.23853 0.24394 0.0
C42 C 0.81966 0.30682 0.20302 0.0
N43 N 0.76423 0.34022 0.33125 0.0
C44 C 0.76321 0.3836 0.30907 0.0
C45 C 0.78832 0.32619 0.36788 0.0
C46 C 0.81861 0.3533 0.37876 0.0
C47 C 0.82269 0.39532 0.35235 0.0
C48 C 0.79253 0.41208 0.31927 0.0
Zn49 Zn 0.75357 0.2912 0.29359 0.0
O50 O 0.70596 0.28458 0.22049 0.0
C51 C 0.70185 0.22209 0.33629 0.0
O52 O 0.69619 0.33563 0.26957 0.0
H53 H 0.78853 0.29173 0.38511 0.0
H54 H 0.67976 0.20315 0.23984 0.0
H55 H 0.74466 0.39387 0.27946 0.0
O56 O 0.72171 0.20843 0.29883 0.0
O57 O 0.70725 0.26119 0.3466 0.0
H58 H 0.80934 0.18122 0.15742 0.0
O59 O 0.81136 0.24549 0.3177 0.0
O60 O 0.82189 0.19303 0.2692 0.0
O61 O 0.80028 0.32016 0.24089 0.0
O62 O 0.81017 0.26996 0.19081 0.0
C63 C 0.83366 0.20783 0.30365 0.0
H64 H 0.64593 0.15765 0.19606 0.0
H65 H 0.77501 0.13738 0.10794 0.0
H66 H 0.84122 0.34002 0.4051 0.0
H67 H 0.79493 0.44459 0.29863 0.0
C68 C 0.82378 0.6954 0.32297 0.0
N69 N 0.83773 0.82917 0.29091 0.0
C70 C 0.82805 0.82465 0.33689 0.0
C71 C 0.85754 0.83556 0.36465 0.0
C72 C 0.89887 0.85044 0.34578 0.0
C73 C 0.90773 0.85755 0.29822 0.0
C74 C 0.87652 0.84613 0.27107 0.0
Zn75 Zn 0.80143 0.78949 0.26138 0.0
C76 C 0.85728 0.73317 0.19893 0.0
N77 N 0.73013 0.68765 0.22713 0.0
C78 C 0.69826 0.66116 0.24737 0.0
C79 C 0.74114 0.69065 0.18116 0.0
C80 C 0.72142 0.66617 0.15408 0.0
C81 C 0.68865 0.63874 0.17362 0.0
C82 C 0.67667 0.6365 0.22098 0.0
Zn83 Zn 0.76261 0.73143 0.25791 0.0
O84 O 0.83076 0.73581 0.30794 0.0
C85 C 0.70729 0.78759 0.323 0.0
O86 O 0.79252 0.67877 0.30747 0.0
H87 H 0.76455 0.71326 0.16459 0.0
H88 H 0.80021 0.80763 0.35323 0.0
H89 H 0.68895 0.65974 0.28368 0.0
O90 O 0.74235 0.80694 0.30888 0.0
O91 O 0.70251 0.75165 0.3056 0.0
H92 H 0.88487 0.84803 0.23465 0.0
O93 O 0.73546 0.7851 0.20921 0.0
O94 O 0.77159 0.84298 0.21392 0.0
O95 O 0.82328 0.71241 0.21326 0.0
O96 O 0.85906 0.77153 0.21292 0.0
C97 C 0.74235 0.82613 0.19572 0.0
H98 H 0.8485 0.8308 0.40105 0.0
H99 H 0.93909 0.86993 0.28244 0.0
H100 H 0.73087 0.66979 0.1177 0.0
H101 H 0.65119 0.61581 0.23733 0.0
C102 C 0.1788 0.82738 0.29384 0.0
N103 N 0.31286 0.78309 0.33143 0.0
C104 C 0.3017 0.82949 0.33538 0.0
C105 C 0.32541 0.85069 0.3616 0.0
C106 C 0.36302 0.82474 0.38248 0.0
C107 C 0.37471 0.77688 0.37834 0.0
C108 C 0.3484 0.75636 0.35285 0.0
Zn109 Zn 0.2777 0.76363 0.28331 0.0
C110 C 0.21818 0.69485 0.31074 0.0
N111 N 0.19711 0.75097 0.18045 0.0
C112 C 0.1632 0.77585 0.15565 0.0
C113 C 0.21072 0.70449 0.17792 0.0
C114 C 0.19154 0.68145 0.14962 0.0
C115 C 0.15683 0.70566 0.12384 0.0
C116 C 0.14203 0.75346 0.12692 0.0
Zn117 Zn 0.23037 0.77192 0.22903 0.0
O118 O 0.21789 0.80941 0.30762 0.0
C119 C 0.29028 0.83973 0.1999 0.0
O120 O 0.16924 0.81773 0.25609 0.0
H121 H 0.23577 0.68411 0.19907 0.0
H122 H 0.27642 0.85135 0.31561 0.0
H123 H 0.15197 0.81248 0.15878 0.0
O124 O 0.30346 0.81884 0.23724 0.0
O125 O 0.25532 0.82857 0.18516 0.0
H126 H 0.35792 0.71988 0.34824 0.0
O127 O 0.29331 0.72894 0.20289 0.0
O128 O 0.33712 0.71701 0.25878 0.0
O129 O 0.20581 0.71544 0.27322 0.0
O130 O 0.25122 0.70775 0.32726 0.0
C131 C 0.33145 0.71075 0.21876 0.0
H132 H 0.31667 0.88794 0.36262 0.0
H133 H 0.40459 0.75617 0.39324 0.0
H134 H 0.20298 0.6444 0.14881 0.0
H135 H 0.1147 0.77295 0.10758 0.0
C136 C 0.19656 0.81356 0.71644 0.0
N137 N 0.26129 0.68001 0.68779 0.0
C138 C 0.23851 0.69548 0.65058 0.0
C139 C 0.20682 0.67046 0.63882 0.0
C140 C 0.19949 0.62919 0.66533 0.0
C141 C 0.2288 0.61054 0.69883 0.0
C142 C 0.25987 0.63684 0.70964 0.0
Zn143 Zn 0.27368 0.72755 0.72613 0.0
C144 C 0.3274 0.79504 0.68441 0.0
N145 N 0.28346 0.82382 0.81781 0.0
C146 C 0.25707 0.84392 0.85354 0.0
C147 C 0.3295 0.82769 0.80838 0.0
C148 C 0.35027 0.85293 0.83359 0.0
C149 C 0.32458 0.87336 0.87068 0.0
C150 C 0.27733 0.86864 0.88105 0.0
Zn151 Zn 0.265 0.77921 0.7766 0.0
O152 O 0.21709 0.77526 0.70246 0.0
C153 C 0.2072 0.71265 0.81671 0.0
O154 O 0.20887 0.82719 0.75124 0.0
H155 H 0.35164 0.80936 0.78236 0.0
H156 H 0.24037 0.72972 0.63357 0.0
H157 H 0.22101 0.83958 0.86165 0.0
O158 O 0.22623 0.69944 0.77868 0.0
O159 O 0.21765 0.74889 0.82934 0.0
H160 H 0.2777 0.62539 0.73957 0.0
O161 O 0.32189 0.73096 0.7996 0.0
O162 O 0.33012 0.68121 0.74937 0.0
O163 O 0.30853 0.80815 0.72237 0.0
O164 O 0.32054 0.75679 0.67331 0.0
C165 C 0.34361 0.69421 0.7834 0.0
H166 H 0.1855 0.68508 0.61177 0.0
H167 H 0.22426 0.57857 0.71957 0.0
H168 H 0.38713 0.85439 0.82545 0.0
H169 H 0.25666 0.88333 0.91019 0.0
C170 C 0.28888 0.19124 0.82348 0.0
N171 N 0.29845 0.32923 0.78751 0.0
C172 C 0.28822 0.32694 0.83358 0.0
C173 C 0.3086 0.35163 0.85982 0.0
C174 C 0.34139 0.37862 0.83945 0.0
C175 C 0.35277 0.38013 0.79201 0.0
C176 C 0.33045 0.35521 0.76641 0.0
Zn177 Zn 0.26459 0.28395 0.75978 0.0
C178 C 0.3145 0.22706 0.69303 0.0
N179 N 0.18792 0.18269 0.73971 0.0
C180 C 0.14331 0.20207 0.73224 0.0
C181 C 0.21169 0.14692 0.71691 0.0
C182 C 0.19378 0.13505 0.67979 0.0
C183 C 0.1514 0.16062 0.6661 0.0
C184 C 0.12443 0.19192 0.69496 0.0
Zn185 Zn 0.22512 0.22585 0.76137 0.0
O186 O 0.29428 0.2325 0.80928 0.0
C187 C 0.17276 0.28344 0.82397 0.0
O188 O 0.2595 0.17345 0.8067 0.0
H189 H 0.24694 0.13163 0.7237 0.0
H190 H 0.26507 0.30454 0.85107 0.0
H191 H 0.12499 0.2306 0.75064 0.0
O192 O 0.20498 0.30497 0.80541 0.0
O193 O 0.17194 0.24318 0.81405 0.0
H194 H 0.33939 0.35596 0.73009 0.0
O195 O 0.19138 0.2787 0.71585 0.0
O196 O 0.23282 0.3343 0.70925 0.0
O197 O 0.27859 0.20931 0.70838 0.0
O198 O 0.32245 0.26157 0.71085 0.0
C199 C 0.19879 0.31833 0.69797 0.0
H200 H 0.29965 0.34845 0.89627 0.0
H201 H 0.37834 0.40041 0.77503 0.0
H202 H 0.21469 0.1086 0.66012 0.0
H203 H 0.09129 0.21204 0.68656 0.0
C204 C 0.70011 0.30458 0.79709 0.0
N205 N 0.83427 0.26668 0.83548 0.0
C206 C 0.81983 0.31317 0.83746 0.0
C207 C 0.83759 0.337 0.86616 0.0
C208 C 0.87176 0.31365 0.89299 0.0
C209 C 0.88758 0.26588 0.89036 0.0
C210 C 0.8678 0.24264 0.86121 0.0
Zn211 Zn 0.80163 0.24455 0.78688 0.0
C212 C 0.7426 0.17611 0.81646 0.0
N213 N 0.71877 0.23225 0.68494 0.0
C214 C 0.68332 0.25948 0.66378 0.0
C215 C 0.72936 0.18588 0.68087 0.0
C216 C 0.70493 0.16515 0.65484 0.0
C217 C 0.66735 0.19165 0.63418 0.0
C218 C 0.65642 0.23951 0.63845 0.0
Zn219 Zn 0.75425 0.25172 0.73273 0.0
O220 O 0.73824 0.28676 0.81312 0.0
C221 C 0.81269 0.32129 0.70498 0.0
O222 O 0.69473 0.29817 0.75707 0.0
H223 H 0.75481 0.16381 0.70033 0.0
H224 H 0.79498 0.33292 0.81575 0.0
H225 H 0.67437 0.29597 0.66842 0.0
O226 O 0.8252 0.30116 0.74259 0.0
O227 O 0.78011 0.30763 0.68846 0.0
H228 H 0.87967 0.20599 0.85864 0.0
O229 O 0.81417 0.20588 0.70854 0.0
O230 O 0.86333 0.19941 0.75941 0.0
O231 O 0.72908 0.19663 0.77912 0.0
O232 O 0.77752 0.18767 0.83091 0.0
C233 C 0.85362 0.18876 0.72208 0.0
H234 H 0.82541 0.374 0.86651 0.0
H235 H 0.91456 0.24703 0.91047 0.0
H236 H 0.71322 0.12791 0.65366 0.0
H237 H 0.62676 0.26073 0.6236 0.0
C238 C 0.70565 0.80861 0.82354 0.0
N239 N 0.69092 0.69209 0.76388 0.0
C240 C 0.6724 0.67899 0.80624 0.0
C241 C 0.64618 0.64422 0.81293 0.0
C242 C 0.63975 0.62205 0.77576 0.0
C243 C 0.65737 0.63725 0.73204 0.0
C244 C 0.68276 0.67343 0.72672 0.0
Zn245 Zn 0.73669 0.73425 0.75996 0.0
C246 C 0.7116 0.81678 0.69289 0.0
N247 N 0.83348 0.82297 0.75064 0.0
C248 C 0.84446 0.83771 0.78879 0.0
C249 C 0.85507 0.83437 0.70901 0.0
C250 C 0.88887 0.86205 0.70441 0.0
C251 C 0.8994 0.87947 0.7428 0.0
C252 C 0.87714 0.86716 0.78551 0.0
Zn253 Zn 0.78574 0.78182 0.75463 0.0
O254 O 0.69309 0.77446 0.80945 0.0
C255 C 0.81139 0.69909 0.82197 0.0
O256 O 0.74507 0.81909 0.80767 0.0
H257 H 0.84537 0.82284 0.67919 0.0
H258 H 0.6801 0.69374 0.83516 0.0
H259 H 0.82722 0.82742 0.82167 0.0
O260 O 0.77305 0.69011 0.8127 0.0
O261 O 0.82525 0.73543 0.80215 0.0
H262 H 0.69791 0.68494 0.69329 0.0
O263 O 0.82552 0.74429 0.70014 0.0
O264 O 0.77838 0.69393 0.71168 0.0
O265 O 0.74615 0.82908 0.70698 0.0
O266 O 0.70114 0.77741 0.70784 0.0
C267 C 0.81421 0.70743 0.69026 0.0
H268 H 0.6335 0.63275 0.84735 0.0
H269 H 0.65305 0.62041 0.70302 0.0
H270 H 0.9047 0.87219 0.67071 0.0
H271 H 0.88399 0.881 0.81542 0.0
Fe272 Fe 1.01539 0.06436 0.49407 0.0
O273 O 0.97836 0.01426 0.49606 0.0
Fe274 Fe 0.12997 1.00013 0.49064 0.0
Fe275 Fe 0.91323 0.01999 0.52083 0.0
O276 O 0.06413 0.01346 0.51815 0.0
O277 O 0.06516 1.00867 0.51705 0.0
O278 O 0.9793 0.0098 0.49528 0.0
Fe279 Fe 0.02756 0.95889 0.51949 0.0
C280 C 0.94476 0.08724 0.57438 0.0
O281 O 0.96012 0.11002 0.46518 0.0
O282 O 0.90534 0.06368 0.4624 0.0
O283 O 0.0531 0.94396 0.45414 0.0
O284 O 0.12745 0.94015 0.46284 0.0
O285 O 0.11724 0.03617 0.42874 0.0
O286 O 0.03974 0.05145 0.42917 0.0
O287 O 0.91652 0.96005 0.49168 0.0
O288 O 0.98161 0.91324 0.5176 0.0
C289 C 0.08045 0.04462 0.40843 0.0
O290 O 0.08256 0.91311 0.54834 0.0
O291 O 0.13789 0.95886 0.55074 0.0
O292 O 0.98816 0.07904 0.55995 0.0
O293 O 0.91399 0.07814 0.55204 0.0
C294 C 0.92575 0.0989 0.44746 0.0
C295 C 0.94698 0.92206 0.49296 0.0
C296 C 0.96124 0.97488 0.6035 0.0
O297 O 0.92573 0.98075 0.58146 0.0
O298 O 1.0026 0.972 0.58426 0.0
C299 C 0.09606 0.93235 0.44059 0.0
O300 O 0.12997 0.06238 0.51445 0.0
O301 O 0.06175 0.11022 0.49544 0.0
C302 C 0.11677 0.92419 0.56634 0.0
C303 C 0.10233 0.1022 0.51111 0.0
Fe304 Fe 0.51902 0.90546 0.04707 0.0
O305 O 0.51995 0.97255 0.04012 0.0
Fe306 Fe 0.4613 0.01576 0.01435 0.0
Fe307 Fe 0.57149 1.00226 1.00391 0.0
O308 O 0.51453 0.9733 0.0413 0.0
O309 O 0.5129 0.04541 0.97812 0.0
O310 O 0.51829 0.0447 0.97701 0.0
Fe311 Fe 0.51414 0.11244 0.97104 0.0
C312 C 0.613 0.92155 0.0723 0.0
O313 O 0.56903 0.89189 0.99269 0.0
O314 O 0.57821 0.95944 0.95299 0.0
O315 O 0.45877 0.11305 0.9346 0.0
O316 O 0.4131 0.06457 0.97886 0.0
O317 O 0.46349 0.97367 0.96391 0.0
O318 O 0.46663 0.90639 1.00634 0.0
O319 O 0.61843 0.04078 0.96067 0.0
O320 O 0.56903 0.09737 0.92117 0.0
C321 C 0.45236 0.93369 0.97267 0.0
O322 O 0.46405 0.12621 0.02518 0.0
O323 O 0.45441 0.0589 0.06519 0.0
O324 O 0.57455 0.90486 0.08351 0.0
O325 O 0.61985 0.95362 0.03921 0.0
C326 C 0.58431 0.91529 0.95703 0.0
C327 C 0.61028 0.07389 0.92762 0.0
C328 C 0.58053 0.08413 0.04564 0.0
O329 O 0.56923 0.04424 0.05436 0.0
O330 O 0.56648 0.11144 0.01188 0.0
C331 C 0.42014 0.09671 0.94584 0.0
O332 O 0.41446 0.977 0.05766 0.0
O333 O 0.46405 0.92033 0.09697 0.0
C334 C 0.44839 0.1031 0.06084 0.0
C335 C 0.42271 0.94364 0.09053 0.0
Fe336 Fe 1.01071 0.56414 1.0006 0.0
O337 O 0.97627 0.51837 0.04001 0.0
Fe338 Fe 0.11723 0.49586 0.96911 0.0
Fe339 Fe 0.90824 0.52441 0.04959 0.0
O340 O 0.0482 0.5071 0.976 0.0
O341 O 0.04926 0.50189 0.97888 0.0
O342 O 0.9773 0.51315 0.04288 0.0
Fe343 Fe 1.01485 0.45611 0.01832 0.0
C344 C 0.93824 0.61343 0.07066 0.0
O345 O 0.96552 0.57349 0.95084 0.0
O346 O 0.89746 0.57266 0.99397 0.0
O347 O 0.05789 0.40304 0.98461 0.0
O348 O 0.10935 0.44137 0.93531 0.0
O349 O 0.10624 0.54925 0.91772 0.0
O350 O 0.05444 0.6044 0.95554 0.0
O351 O 0.90287 0.47199 0.01122 0.0
O352 O 0.97113 0.46158 0.96925 0.0
C353 C 0.08774 0.59208 0.92339 0.0
O354 O 0.0601 0.44661 0.06806 0.0
O355 O 0.12803 0.4477 0.02469 0.0
O356 O 0.96775 0.61717 0.03448 0.0
O357 O 0.91619 0.57884 0.08361 0.0
C358 C 0.92093 0.58313 0.95642 0.0
C359 C 0.92986 0.45356 0.97893 0.0
C360 C 0.93776 0.42821 0.09547 0.0
O361 O 0.91912 0.47103 0.10098 0.0
O362 O 0.97111 0.41586 0.06337 0.0
C363 C 0.08762 0.40662 0.94857 0.0
O364 O 0.12265 0.54819 1.00732 0.0
O365 O 0.05457 0.55877 0.0496 0.0
C366 C 0.10468 0.43697 0.06224 0.0
C367 C 0.09588 0.56666 0.03968 0.0
Fe368 Fe 0.51421 0.501 0.95782 0.0
O369 O 0.54937 0.46875 0.00897 0.0
Fe370 Fe 0.41167 0.55887 0.01238 0.0
Fe371 Fe 0.61892 0.45592 1.00294 0.0
O372 O 0.47952 0.54287 1.00315 0.0
O373 O 0.4812 0.54595 1.00638 0.0
O374 O 0.55102 0.4718 0.01224 0.0
Fe375 Fe 0.51643 0.51379 0.0575 0.0
C376 C 0.58677 0.41608 0.92604 0.0
O377 O 0.56127 0.54429 0.94574 0.0
O378 O 0.62744 0.49549 0.94114 0.0
O379 O 0.47483 0.56217 0.09936 0.0
O380 O 0.42358 0.60694 0.05221 0.0
O381 O 0.4225 0.59489 0.94989 0.0
O382 O 0.47445 0.5415 0.90934 0.0
O383 O 0.62998 0.50777 0.0395 0.0
O384 O 0.56356 0.55817 0.04581 0.0
C385 C 0.44485 0.58003 0.91261 0.0
O386 O 0.46927 0.47065 0.06985 0.0
O387 O 0.4031 0.5194 0.07416 0.0
O388 O 0.55598 0.45281 0.91592 0.0
O389 O 0.60698 0.40785 0.96321 0.0
C390 C 0.59985 0.52979 0.92401 0.0
C391 C 0.60647 0.54606 0.05153 0.0
C392 C 0.58575 0.43471 0.1028 0.0
O393 O 0.60817 0.41989 0.06552 0.0
O394 O 0.55621 0.4733 0.10601 0.0
C395 C 0.4439 0.59881 0.08932 0.0
O396 O 0.40067 0.50716 0.97564 0.0
O397 O 0.46699 0.45663 0.96905 0.0
C398 C 0.43087 0.48551 0.09168 0.0
C399 C 0.42412 0.46903 0.96313 0.0
Fe400 Fe 0.99412 0.4088 0.5106 0.0
O401 O 0.98706 0.47684 0.50944 0.0
Fe402 Fe 0.02658 0.51109 0.45439 0.0
Fe403 Fe 1.00199 0.50647 0.56108 0.0
O404 O 0.99055 0.476 0.50441 0.0
O405 O 0.04145 0.54101 0.50593 0.0
O406 O 0.03786 0.5419 0.51108 0.0
Fe407 Fe 0.03332 0.60935 0.50441 0.0
C408 C 0.93287 0.43626 0.59583 0.0
O409 O 0.03481 0.39362 0.56451 0.0
O410 O 0.062 0.45849 0.5667 0.0
O411 O 0.09068 0.59902 0.45794 0.0
O412 O 0.06862 0.55428 0.40924 0.0
O413 O 0.08647 0.46087 0.45604 0.0
O414 O 0.053 0.39802 0.46649 0.0
O415 O 0.02639 0.54171 0.6077 0.0
O416 O 0.06699 0.59374 0.56164 0.0
C417 C 0.08766 0.41795 0.45246 0.0
O418 O 0.99262 0.62422 0.45018 0.0
O419 O 0.96696 0.55851 0.44863 0.0
O420 O 0.93711 0.4194 0.55735 0.0
O421 O 0.96014 0.46326 0.60622 0.0
C422 C 0.0648 0.41507 0.57596 0.0
C423 C 0.05601 0.57049 0.6001 0.0
C424 C 0.94006 0.59961 0.5628 0.0
O425 O 0.94171 0.55649 0.55977 0.0
O426 O 0.97425 0.61991 0.54804 0.0
C427 C 0.0955 0.58172 0.41961 0.0
O428 O 1.00116 0.47637 0.40787 0.0
O429 O 0.95949 0.42551 0.45422 0.0
C430 C 0.96365 0.60173 0.4385 0.0
C431 C 0.96951 0.44968 0.41614 0.0
Fe432 Fe 0.51617 0.95431 0.51235 0.0
O433 O 0.48415 1.00816 0.54605 0.0
Fe434 Fe 0.54746 1.0084 0.40534 0.0
Fe435 Fe 0.48134 0.00967 0.61171 0.0
O436 O 0.54528 1.00312 0.47202 0.0
O437 O 0.54422 1.00845 0.47123 0.0
O438 O 0.483 0.01319 0.54524 0.0
Fe439 Fe 0.51021 0.06229 0.50386 0.0
C440 C 0.44732 0.92101 0.59273 0.0
O441 O 0.57183 0.94052 0.55065 0.0
O442 O 0.53757 0.95634 0.61964 0.0
O443 O 0.5466 0.10641 0.45629 0.0
O444 O 0.59019 0.05637 0.40693 0.0
O445 O 0.59505 0.94784 0.41451 0.0
O446 O 0.55437 0.90447 0.47019 0.0
O447 O 0.52515 0.05738 0.61013 0.0
O448 O 0.56486 0.05567 0.54193 0.0
C449 C 0.58676 0.90879 0.4364 0.0
O450 O 0.45458 0.07219 0.46517 0.0
O451 O 0.495 0.06528 0.39734 0.0
O452 O 0.47936 0.91059 0.55922 0.0
O453 O 0.44079 0.95913 0.61222 0.0
C454 C 0.57189 0.93756 0.59352 0.0
C455 C 0.55875 0.0679 0.58179 0.0
C456 C 0.43668 0.10674 0.57876 0.0
O457 O 0.43079 0.06745 0.60169 0.0
O458 O 0.46928 0.11206 0.54521 0.0
C459 C 0.58139 0.09533 0.42524 0.0
O460 O 0.50055 0.96404 0.40554 0.0
O461 O 0.4613 0.96413 0.47411 0.0
C462 C 0.45794 0.08023 0.42216 0.0
C463 C 0.46696 0.95314 0.43377 0.0
C464 C 0.13715 0.05682 0.28952 0.0
C465 C 0.10875 0.09828 0.2749 0.0
H466 H 0.15353 0.01129 0.3484 0.0
C467 C 0.06232 0.10736 0.29455 0.0
H468 H 0.17242 0.04786 0.27324 0.0
C469 C 0.05042 0.08515 0.33726 0.0
C470 C 0.08493 0.05344 0.35881 0.0
H471 H 0.03894 0.13803 0.28231 0.0
H472 H 0.01698 0.09771 0.35559 0.0
C473 C 0.1267 0.03628 0.33317 0.0
C474 C 0.87084 0.13092 0.3379 0.0
C475 C 0.86721 0.1792 0.33273 0.0
H476 H 0.89188 0.06777 0.37899 0.0
C477 C 0.88828 0.20049 0.36241 0.0
H478 H 0.8547 0.11368 0.31575 0.0
C479 C 0.9096 0.17427 0.3987 0.0
C480 C 0.90929 0.12655 0.40628 0.0
H481 H 0.88597 0.23782 0.35903 0.0
H482 H 0.92375 0.19168 0.42222 0.0
C483 C 0.8914 0.10485 0.37458 0.0
C484 C 0.93574 0.83255 0.41827 0.0
C485 C 0.92933 0.86128 0.37727 0.0
H486 H 0.94581 0.82978 0.48868 0.0
C487 C 0.94113 0.90549 0.37247 0.0
H488 H 0.92784 0.79774 0.42232 0.0
C489 C 0.95174 0.92331 0.4101 0.0
C490 C 0.95066 0.89715 0.45283 0.0
H491 H 0.93693 0.92816 0.34134 0.0
H492 H 0.9567 0.95913 0.40674 0.0
C493 C 0.94594 0.85063 0.4562 0.0
C494 C 0.10517 0.85645 0.34366 0.0
C495 C 0.1493 0.86238 0.32141 0.0
H496 H 0.05266 0.87483 0.39914 0.0
C497 C 0.17201 0.8951 0.33551 0.0
H498 H 0.08735 0.83067 0.33412 0.0
C499 C 0.15411 0.91752 0.37384 0.0
C500 C 0.11126 0.91042 0.39775 0.0
H501 H 0.2058 0.90076 0.31887 0.0
H502 H 0.17488 0.93943 0.38566 0.0
C503 C 0.08578 0.88111 0.38125 0.0
C504 C 0.14169 0.82496 0.65771 0.0
C505 C 0.16596 0.84442 0.68605 0.0
H506 H 0.10706 0.83488 0.59744 0.0
C507 C 0.16986 0.89134 0.67722 0.0
H508 H 0.13858 0.78863 0.6637 0.0
C509 C 0.15314 0.91733 0.63857 0.0
C510 C 0.13159 0.89703 0.60851 0.0
H511 H 0.189 0.90695 0.6981 0.0
H512 H 0.15822 0.95305 0.63163 0.0
C513 C 0.12421 0.85119 0.6195 0.0
C514 C 0.09028 0.16303 0.61305 0.0
C515 C 0.13755 0.15707 0.62062 0.0
H516 H 0.04187 0.15445 0.56815 0.0
C517 C 0.17202 0.14705 0.5841 0.0
H518 H 0.06252 0.17174 0.63977 0.0
C519 C 0.1599 0.13609 0.54367 0.0
C520 C 0.11303 0.13587 0.53872 0.0
H521 H 0.2087 0.14504 0.58746 0.0
H522 H 0.18743 0.12322 0.51817 0.0
C523 C 0.07822 0.15351 0.57187 0.0
C524 C 0.93011 0.15901 0.67596 0.0
C525 C 0.88416 0.15468 0.69396 0.0
H526 H 0.98662 0.13971 0.62451 0.0
C527 C 0.86214 0.12367 0.67619 0.0
H528 H 0.94785 0.18303 0.6887 0.0
C529 C 0.8827 0.10175 0.63828 0.0
C530 C 0.92736 0.10782 0.61794 0.0
H531 H 0.82718 0.11875 0.68975 0.0
H532 H 0.86253 0.08094 0.62404 0.0
C533 C 0.95193 0.13494 0.63859 0.0
C534 C 0.90002 0.95984 0.72007 0.0
C535 C 0.92637 0.91711 0.73457 0.0
H536 H 0.88799 1.00872 0.66241 0.0
C537 C 0.97271 0.90554 0.71529 0.0
H538 H 0.8646 0.97005 0.73552 0.0
C539 C 0.98706 0.92884 0.67388 0.0
C540 C 0.95491 0.96364 0.65274 0.0
H541 H 0.99413 0.87325 0.72694 0.0
H542 H 0.02029 0.91521 0.6558 0.0
C543 C 0.91303 0.98162 0.67765 0.0
C544 C 0.39275 0.2024 0.13061 0.0
C545 C 0.35707 0.18374 0.15866 0.0
H546 H 0.44947 0.19164 0.07804 0.0
C547 C 0.35319 0.13734 0.15592 0.0
H548 H 0.39691 0.2379 0.13199 0.0
C549 C 0.38406 0.11039 0.12556 0.0
C550 C 0.41898 0.1295 0.09669 0.0
H551 H 0.32638 0.12173 0.17735 0.0
H552 H 0.37967 0.07504 0.12378 0.0
C553 C 0.423 0.17579 0.09977 0.0
C554 C 0.86283 0.37392 0.19281 0.0
C555 C 0.85339 0.33471 0.17545 0.0
H556 H 0.89725 0.43279 0.1821 0.0
C557 C 0.87647 0.32361 0.13276 0.0
H558 H 0.84651 0.38366 0.22568 0.0
C559 C 0.90665 0.35209 0.10764 0.0
C560 C 0.91427 0.39233 0.12461 0.0
H561 H 0.87043 0.29362 0.11834 0.0
H562 H 0.92217 0.34387 0.07407 0.0
C563 C 0.89246 0.40218 0.16787 0.0
C564 C 0.69145 0.82749 0.13531 0.0
C565 C 0.7151 0.85226 0.15937 0.0
H566 H 0.64131 0.83029 0.08886 0.0
C567 C 0.7093 0.90082 0.15008 0.0
H568 H 0.69563 0.79003 0.14073 0.0
C569 C 0.67801 0.92411 0.1193 0.0
C570 C 0.65224 0.89892 0.09794 0.0
H571 H 0.7272 0.9208 0.16792 0.0
H572 H 0.67209 0.96163 0.11413 0.0
C573 C 0.66034 0.85049 0.10532 0.0
C574 C 0.16596 0.6554 0.06186 0.0
C575 C 0.13654 0.67855 0.09585 0.0
H576 H 0.17674 0.60145 0.01821 0.0
C577 C 0.09277 0.66602 0.11036 0.0
H578 H 0.20032 0.66394 0.05094 0.0
C579 C 0.07945 0.62947 0.09234 0.0
C580 C 0.10989 0.60478 0.0597 0.0
H581 H 0.07011 0.68266 0.13744 0.0
H582 H 0.04578 0.61997 0.10471 0.0
C583 C 0.1528 0.61898 0.04391 0.0
C584 C 0.35748 0.87385 0.94355 0.0
C585 C 0.35 0.89489 0.89982 0.0
H586 H 0.39633 0.86894 1.00041 0.0
C587 C 0.37483 0.93039 0.88085 0.0
H588 H 0.33949 0.84583 0.95854 0.0
C589 C 0.40752 0.94368 0.90465 0.0
C590 C 0.41688 0.92092 0.94749 0.0
H591 H 0.37012 0.94665 0.84683 0.0
H592 H 0.42653 0.97068 0.8889 0.0
C593 C 0.39074 0.88653 0.96704 0.0
C594 C 0.13463 0.29243 0.90228 0.0
C595 C 0.13701 0.30723 0.8557 0.0
H596 H 0.11598 0.31346 0.96961 0.0
C597 C 0.11463 0.35163 0.84071 0.0
H598 H 0.15254 0.25844 0.91427 0.0
C599 C 0.09452 0.38277 0.87185 0.0
C600 C 0.09651 0.36985 0.91835 0.0
H601 H 0.1165 0.3636 0.80483 0.0
H602 H 0.08056 0.41809 0.85947 0.0
C603 C 0.11413 0.32382 0.93375 0.0
C604 C 0.67576 0.13209 0.82554 0.0
C605 C 0.71422 0.14261 0.84361 0.0
H606 H 0.61375 0.10186 0.83746 0.0
C607 C 0.72166 0.12425 0.88849 0.0
H608 H 0.66871 0.14509 0.79116 0.0
C609 C 0.68999 0.09839 0.91512 0.0
C610 C 0.64999 0.09067 0.89757 0.0
H611 H 0.75071 0.1316 0.90372 0.0
H612 H 0.69519 0.08707 0.95026 0.0
C613 C 0.64413 0.10695 0.8521 0.0
C614 C 0.82055 0.63508 0.88615 0.0
C615 C 0.84012 0.6677 0.85489 0.0
H616 H 0.83057 0.5831 0.94249 0.0
C617 C 0.88758 0.67029 0.85558 0.0
H618 H 0.78426 0.63197 0.88657 0.0
C619 C 0.91454 0.64152 0.8871 0.0
C620 C 0.89448 0.61004 0.91937 0.0
H621 H 0.90396 0.69477 0.83178 0.0
H622 H 0.95065 0.64504 0.88716 0.0
C623 C 0.84721 0.60702 0.91822 0.0
C624 C 0.1404 0.3472 0.1604 0.0
C625 C 0.18732 0.3515 0.16165 0.0
H626 H 0.077 0.37154 0.12905 0.0
C627 C 0.20551 0.38607 0.13186 0.0
H628 H 0.1251 0.3212 0.18313 0.0
C629 C 0.17814 0.41445 0.10063 0.0
C630 C 0.13143 0.40982 0.09889 0.0
H631 H 0.24134 0.39055 0.13194 0.0
H632 H 0.19378 0.4399 0.07743 0.0
C633 C 0.11263 0.37634 0.12972 0.0
C634 C 0.16272 0.64654 0.82625 0.0
C635 C 0.17296 0.68516 0.84404 0.0
H636 H 0.12745 0.58826 0.83645 0.0
C637 C 0.15032 0.69592 0.88698 0.0
H638 H 0.17869 0.63707 0.79319 0.0
C639 C 0.11982 0.66765 0.91191 0.0
C640 C 0.11144 0.62795 0.89449 0.0
H641 H 0.15699 0.72544 0.90176 0.0
H642 H 0.10468 0.67554 0.94568 0.0
C643 C 0.1328 0.61847 0.851 0.0
C644 C 0.3215 0.11762 0.87075 0.0
C645 C 0.31771 0.16578 0.85891 0.0
H646 H 0.35717 0.05727 0.90861 0.0
C647 C 0.34398 0.19058 0.88001 0.0
H648 H 0.30149 0.09765 0.85524 0.0
C649 C 0.37529 0.16782 0.9099 0.0
C650 C 0.38111 0.11961 0.92001 0.0
H651 H 0.34147 0.22778 0.87254 0.0
H652 H 0.39607 0.18798 0.92427 0.0
C653 C 0.35305 0.0946 0.90136 0.0
C654 C 0.93505 0.35314 0.90895 0.0
C655 C 0.89058 0.3416 0.92144 0.0
H656 H 0.98212 0.39843 0.91649 0.0
C657 C 0.85978 0.36591 0.95384 0.0
H658 H 0.95886 0.3356 0.88315 0.0
C659 C 0.87246 0.40237 0.97224 0.0
C660 C 0.9162 0.4155 0.95844 0.0
H661 H 0.82492 0.35811 0.96323 0.0
H662 H 0.84755 0.42076 0.99668 0.0
C663 C 0.94781 0.38978 0.92732 0.0
C664 C 0.63775 0.81793 0.88412 0.0
C665 C 0.67408 0.83645 0.85699 0.0
H666 H 0.58109 0.8282 0.93691 0.0
C667 C 0.67924 0.88208 0.86152 0.0
H668 H 0.6327 0.78298 0.88138 0.0
C669 C 0.64889 0.90846 0.89265 0.0
C670 C 0.61333 0.88944 0.92064 0.0
H671 H 0.70661 0.89752 0.84083 0.0
H672 H 0.65417 0.94327 0.89575 0.0
C673 C 0.6081 0.8439 0.91588 0.0
C674 C 0.89399 0.72653 0.12012 0.0
C675 C 0.89338 0.7109 0.16648 0.0
H676 H 0.90971 0.70692 0.05208 0.0
C677 C 0.91598 0.66615 0.18004 0.0
H678 H 0.87565 0.76069 0.1092 0.0
C679 C 0.93443 0.63556 0.14786 0.0
C680 C 0.93064 0.64943 0.10172 0.0
H681 H 0.91515 0.65338 0.21569 0.0
H682 H 0.94845 0.59996 0.15924 0.0
C683 C 0.91293 0.69578 0.08762 0.0
C684 C 0.35741 0.88339 0.19156 0.0
C685 C 0.31888 0.87337 0.17322 0.0
H686 H 0.41938 0.91371 0.18035 0.0
C687 C 0.31138 0.89261 0.12857 0.0
H688 H 0.36453 0.86972 0.22577 0.0
C689 C 0.34301 0.91892 0.10245 0.0
C690 C 0.38304 0.92624 0.12024 0.0
H691 H 0.28228 0.8857 0.11313 0.0
H692 H 0.33771 0.93095 0.06746 0.0
C693 C 0.38899 0.90898 0.16549 0.0
C694 C 0.65881 0.08557 0.13724 0.0
C695 C 0.68286 0.12191 0.1192 0.0
H696 H 0.60761 0.04509 0.12833 0.0
C697 C 0.67466 0.14418 0.07604 0.0
H698 H 0.66409 0.0683 0.1708 0.0
C699 C 0.6414 0.13187 0.05229 0.0
C700 C 0.61596 0.09667 0.07103 0.0
H701 H 0.69204 0.17286 0.06179 0.0
H702 H 0.63524 0.15039 0.01941 0.0
C703 C 0.62605 0.07274 0.11322 0.0
C704 C 0.65141 0.54139 0.80189 0.0
C705 C 0.61959 0.57989 0.78597 0.0
H706 H 0.67222 0.49795 0.86129 0.0
C707 C 0.57439 0.58751 0.80834 0.0
H708 H 0.68567 0.53281 0.78341 0.0
C709 C 0.56792 0.57109 0.85389 0.0
C710 C 0.60446 0.54142 0.87456 0.0
H711 H 0.54838 0.61544 0.79529 0.0
H712 H 0.53622 0.58546 0.87351 0.0
C713 C 0.64456 0.52306 0.8471 0.0
C714 C 0.40096 0.68514 0.83881 0.0
C715 C 0.38103 0.66546 0.80732 0.0
H716 H 0.43825 0.67237 0.89713 0.0
C717 C 0.39212 0.61745 0.80422 0.0
H718 H 0.39383 0.72221 0.8411 0.0
C719 C 0.41805 0.58893 0.8362 0.0
C720 C 0.43264 0.60855 0.87114 0.0
H721 H 0.37742 0.60165 0.77985 0.0
H722 H 0.42263 0.55163 0.83625 0.0
C723 C 0.42649 0.65678 0.87066 0.0
C724 C 0.33489 0.43106 0.90077 0.0
C725 C 0.36329 0.40363 0.86904 0.0
H726 H 0.33155 0.47254 0.95551 0.0
C727 C 0.41196 0.39642 0.86959 0.0
H728 H 0.29723 0.43699 0.90135 0.0
C729 C 0.4317 0.41588 0.90152 0.0
C730 C 0.40319 0.44353 0.9332 0.0
H731 H 0.43465 0.37488 0.84605 0.0
H732 H 0.46937 0.41007 0.9007 0.0
C733 C 0.35455 0.45103 0.93212 0.0
C734 C 0.65744 0.31279 0.87314 0.0
C735 C 0.66262 0.3297 0.82715 0.0
H736 H 0.6278 0.32615 0.94016 0.0
C737 C 0.63594 0.37235 0.81253 0.0
H738 H 0.67709 0.27961 0.88513 0.0
C739 C 0.60766 0.39956 0.84443 0.0
C740 C 0.60569 0.38405 0.89107 0.0
H741 H 0.63947 0.38601 0.77716 0.0
H742 H 0.59016 0.43391 0.83297 0.0
C743 C 0.6291 0.33945 0.90465 0.0
C744 C 0.63415 0.39749 0.21371 0.0
C745 C 0.64656 0.34955 0.21052 0.0
H746 H 0.6038 0.46305 0.18104 0.0
C747 C 0.62914 0.32962 0.17746 0.0
H748 H 0.64689 0.41355 0.23922 0.0
C749 C 0.60497 0.35772 0.14446 0.0
C750 C 0.59754 0.40599 0.1444 0.0
H751 H 0.63731 0.29259 0.17494 0.0
H752 H 0.59512 0.34195 0.11707 0.0
C753 C 0.6095 0.42574 0.18064 0.0
C754 C 0.61847 0.61979 0.14396 0.0
C755 C 0.66717 0.61391 0.14356 0.0
H756 H 0.56108 0.60432 0.11422 0.0
C757 C 0.69569 0.58718 0.11135 0.0
H758 H 0.59566 0.6407 0.16795 0.0
C759 C 0.67607 0.56633 0.08061 0.0
C760 C 0.62736 0.5724 0.08064 0.0
H761 H 0.73338 0.5822 0.11013 0.0
H762 H 0.6991 0.54523 0.05691 0.0
C763 C 0.59877 0.59959 0.1126 0.0
C764 C 0.37328 0.70212 0.14238 0.0
C765 C 0.36861 0.68543 0.18846 0.0
H766 H 0.40223 0.68856 0.07522 0.0
C767 C 0.39555 0.64288 0.20298 0.0
H768 H 0.35346 0.73523 0.13042 0.0
C769 C 0.42358 0.6156 0.17097 0.0
C770 C 0.42505 0.6309 0.1243 0.0
H771 H 0.39245 0.62936 0.23841 0.0
H772 H 0.44134 0.58136 0.18244 0.0
C773 C 0.40133 0.67538 0.11075 0.0
C774 C 0.38132 0.47993 0.21452 0.0
C775 C 0.41123 0.44002 0.23061 0.0
H776 H 0.36137 0.52273 0.1545 0.0
C777 C 0.45626 0.43018 0.20816 0.0
H778 H 0.34763 0.49067 0.23328 0.0
C779 C 0.46291 0.4452 0.16222 0.0
C780 C 0.42706 0.47576 0.14134 0.0
H781 H 0.48127 0.40152 0.22161 0.0
H782 H 0.49385 0.4291 0.14259 0.0
C783 C 0.38821 0.4967 0.16884 0.0
C784 C 0.84099 0.63268 0.65447 0.0
C785 C 0.84225 0.68023 0.65461 0.0
H786 H 0.8709 0.56928 0.6251 0.0
C787 C 0.87097 0.7015 0.62061 0.0
H788 H 0.81873 0.61543 0.68017 0.0
C789 C 0.89948 0.67555 0.58846 0.0
C790 C 0.90107 0.62725 0.59008 0.0
H791 H 0.87198 0.73817 0.61921 0.0
H792 H 0.92206 0.69324 0.56348 0.0
C793 C 0.87045 0.60628 0.62268 0.0
C794 C 0.34571 0.87358 0.66108 0.0
C795 C 0.35571 0.82621 0.65492 0.0
H796 H 0.36563 0.93981 0.64635 0.0
C797 C 0.39444 0.81017 0.62443 0.0
H798 H 0.31575 0.88741 0.68369 0.0
C799 C 0.42399 0.84087 0.60264 0.0
C800 C 0.41505 0.88791 0.61111 0.0
H801 H 0.40301 0.77381 0.619 0.0
H802 H 0.45453 0.8275 0.58057 0.0
C803 C 0.37467 0.90381 0.6396 0.0
C804 C 0.17084 0.38796 0.6431 0.0
C805 C 0.16667 0.34371 0.66482 0.0
H806 H 0.14273 0.44464 0.59661 0.0
C807 C 0.13028 0.32258 0.65488 0.0
H808 H 0.19861 0.40509 0.6495 0.0
C809 C 0.09829 0.34515 0.62525 0.0
C810 C 0.10145 0.38981 0.60446 0.0
H811 H 0.12583 0.28845 0.6705 0.0
H812 H 0.0704 0.32782 0.6195 0.0
C813 C 0.13863 0.41067 0.61306 0.0
C814 C 0.59249 0.16316 0.63794 0.0
C815 C 0.63659 0.16676 0.61486 0.0
H816 H 0.53401 0.12804 0.6465 0.0
C817 C 0.6546 0.13872 0.57971 0.0
H818 H 0.57847 0.18367 0.66586 0.0
C819 C 0.62919 0.10686 0.56841 0.0
C820 C 0.58596 0.10164 0.593 0.0
H821 H 0.68905 0.14038 0.56212 0.0
H822 H 0.64398 0.08537 0.54142 0.0
C823 C 0.56757 0.13065 0.62739 0.0
C824 C 0.85458 0.45925 0.37685 0.0
C825 C 0.86202 0.41826 0.35602 0.0
H826 H 0.88519 0.50201 0.41252 0.0
C827 C 0.90775 0.39563 0.34405 0.0
H828 H 0.81943 0.4768 0.38649 0.0
C829 C 0.94562 0.41121 0.35718 0.0
C830 C 0.93782 0.44923 0.38263 0.0
H831 H 0.91383 0.36389 0.32772 0.0
H832 H 0.98015 0.39045 0.35216 0.0
C833 C 0.89235 0.47437 0.39056 0.0
C834 C 0.62586 0.81195 0.36164 0.0
C835 C 0.6745 0.80789 0.36026 0.0
H836 H 0.55888 0.84732 0.38873 0.0
C837 C 0.69253 0.82997 0.39154 0.0
H838 H 0.61099 0.79542 0.33796 0.0
C839 C 0.66315 0.85946 0.42 0.0
C840 C 0.61492 0.86695 0.41853 0.0
H841 H 0.72972 0.82688 0.39218 0.0
H842 H 0.67836 0.87893 0.4409 0.0
C843 C 0.59615 0.8415 0.39071 0.0
C844 C 0.15279 0.64801 0.31714 0.0
C845 C 0.19154 0.65857 0.33516 0.0
H846 H 0.09233 0.61444 0.32895 0.0
C847 C 0.20224 0.63622 0.37769 0.0
H848 H 0.14349 0.66418 0.28425 0.0
C849 C 0.17328 0.60704 0.40276 0.0
C850 C 0.13257 0.59925 0.38632 0.0
H851 H 0.23179 0.64288 0.39261 0.0
H852 H 0.18122 0.59273 0.4366 0.0
C853 C 0.12363 0.61881 0.34241 0.0
C854 C 0.40069 0.17866 0.34396 0.0
C855 C 0.35353 0.17331 0.35029 0.0
H856 H 0.47008 0.15321 0.36129 0.0
C857 C 0.34018 0.13783 0.38254 0.0
H858 H 0.41241 0.20536 0.31932 0.0
C859 C 0.37357 0.10836 0.40769 0.0
C860 C 0.4209 0.11312 0.39988 0.0
H861 H 0.30414 0.13284 0.38821 0.0
H862 H 0.36274 0.08098 0.43199 0.0
C863 C 0.43389 0.14867 0.36793 0.0
C864 C 0.66063 0.83279 0.62938 0.0
C865 C 0.68079 0.84924 0.66304 0.0
H866 H 0.61152 0.84855 0.57971 0.0
C867 C 0.66735 0.89605 0.67117 0.0
H868 H 0.67016 0.79681 0.62262 0.0
C869 C 0.63264 0.92514 0.6478 0.0
C870 C 0.61197 0.90846 0.61467 0.0
H871 H 0.68189 0.90951 0.69729 0.0
H872 H 0.62138 0.96051 0.6561 0.0
C873 C 0.62719 0.86236 0.60481 0.0
C874 C 0.68544 0.14314 0.36204 0.0
C875 C 0.67346 0.19095 0.36585 0.0
H876 H 0.66689 0.07632 0.37788 0.0
C877 C 0.63241 0.20732 0.39336 0.0
H878 H 0.71708 0.12915 0.34166 0.0
C879 C 0.60268 0.17643 0.41436 0.0
C880 C 0.61371 0.12881 0.40811 0.0
H881 H 0.62218 0.24403 0.39681 0.0
H882 H 0.57038 0.19006 0.43389 0.0
C883 C 0.65628 0.11269 0.38281 0.0
C884 C 0.87053 0.62178 0.35698 0.0
C885 C 0.85447 0.66955 0.3567 0.0
H886 H 0.91975 0.56372 0.38117 0.0
C887 C 0.87358 0.6947 0.38471 0.0
H888 H 0.85746 0.60175 0.33498 0.0
C889 C 0.90875 0.67292 0.41148 0.0
C890 C 0.92574 0.62537 0.41093 0.0
H891 H 0.86199 0.73169 0.38519 0.0
H892 H 0.92284 0.69338 0.4323 0.0
C893 C 0.90612 0.60006 0.38352 0.0
C894 C 0.4344 0.85938 0.3746 0.0
C895 C 0.39339 0.85054 0.40104 0.0
H896 H 0.48858 0.90003 0.36303 0.0
C897 C 0.37649 0.87531 0.43875 0.0
H898 H 0.44716 0.84168 0.34455 0.0
C899 C 0.40026 0.90876 0.44965 0.0
C900 C 0.4405 0.9189 0.42214 0.0
H901 H 0.34408 0.86986 0.45877 0.0
H902 H 0.38655 0.92738 0.47892 0.0
C903 C 0.45748 0.89348 0.38476 0.0
C904 C 0.18831 0.38521 0.36223 0.0
C905 C 0.18662 0.3379 0.36119 0.0
H906 H 0.15831 0.44825 0.39217 0.0
C907 C 0.15697 0.31654 0.3942 0.0
H908 H 0.21127 0.40248 0.3373 0.0
C909 C 0.12792 0.34224 0.42617 0.0
C910 C 0.12679 0.39036 0.42538 0.0
H911 H 0.15559 0.28002 0.39488 0.0
H912 H 0.10461 0.32455 0.45032 0.0
C913 C 0.15836 0.41136 0.39388 0.0
C914 C 0.32786 0.17711 0.6298 0.0
C915 C 0.34577 0.20545 0.65538 0.0
H916 H 0.34304 0.12423 0.58447 0.0
C917 C 0.39363 0.20791 0.64759 0.0
H918 H 0.29102 0.17496 0.63423 0.0
C919 C 0.4235 0.17906 0.61795 0.0
C920 C 0.40571 0.14768 0.59591 0.0
H921 H 0.4084 0.22946 0.66667 0.0
H922 H 0.46079 0.1785 0.61526 0.0
C923 C 0.35749 0.14837 0.60075 0.0
C924 C 0.87741 0.36883 0.69831 0.0
C925 C 0.83861 0.35803 0.68058 0.0
H926 H 0.9374 0.40305 0.68612 0.0
C927 C 0.82713 0.3807 0.63841 0.0
H928 H 0.88726 0.35244 0.73095 0.0
C929 C 0.85544 0.41044 0.61332 0.0
C930 C 0.89629 0.41838 0.62937 0.0
H931 H 0.79747 0.37388 0.62378 0.0
H932 H 0.84696 0.42501 0.5797 0.0
C933 C 0.90596 0.39854 0.67299 0.0
C934 C 0.11434 0.63856 0.66065 0.0
C935 C 0.15793 0.60926 0.66145 0.0
H936 H 0.04487 0.64725 0.64254 0.0
C937 C 0.16153 0.5622 0.65582 0.0
H938 H 0.11043 0.67469 0.66647 0.0
C939 C 0.12348 0.5463 0.64325 0.0
C940 C 0.08196 0.57737 0.63631 0.0
H941 H 0.19466 0.53884 0.65719 0.0
H942 H 0.12839 0.51144 0.63368 0.0
C943 C 0.07651 0.62264 0.64822 0.0
loop_
_geom_bond_atom_site_label_1
_geom_bond_atom_site_label_2
_geom_bond_distance
_geom_bond_site_symmetry_2
_ccdc_geom_bond_type
C0 O16 1.251 . S
C0 O18 1.254 . S
N1 C2 1.333 . S
N1 C6 1.307 . S
N1 Zn7 2.020 . S
C2 N1 1.333 . S
C2 C3 1.379 . S
C2 H20 0.952 . S
C3 C2 1.379 . S
C3 C4 1.390 . S
C3 H30 0.949 . S
C4 C3 1.390 . S
C4 C5 1.357 . S
C5 C4 1.357 . S
C5 C6 1.370 . S
C5 H31 0.950 . S
C6 N1 1.307 . S
C6 C5 1.370 . S
C6 H24 0.948 . S
Zn7 N1 2.020 . S
Zn7 O16 2.039 . S
Zn7 O22 2.034 . S
Zn7 O26 2.025 . S
Zn7 O28 2.024 . S
C8 O27 1.246 . S
C8 O28 1.249 . S
N9 C10 1.307 . S
N9 C11 1.333 . S
N9 Zn15 2.020 . S
C10 N9 1.307 . S
C10 C14 1.370 . S
C10 H21 0.948 . S
C11 N9 1.333 . S
C11 C12 1.379 . S
C11 H19 0.952 . S
C12 C11 1.379 . S
C12 C13 1.390 . S
C12 H32 0.949 . S
C13 C12 1.390 . S
C13 C14 1.357 . S
C14 C10 1.370 . S
C14 C13 1.357 . S
C14 H33 0.950 . S
Zn15 N9 2.020 . S
Zn15 O18 2.025 . S
Zn15 O23 2.024 . S
Zn15 O25 2.039 . S
Zn15 O27 2.034 . S
O16 C0 1.251 . S
O16 Zn7 2.039 . S
C17 O22 1.246 . S
C17 O23 1.249 . S
O18 C0 1.254 . S
O18 Zn15 2.025 . S
H19 C11 0.952 . S
H20 C2 0.952 . S
H21 C10 0.948 . S
O22 Zn7 2.034 . S
O22 C17 1.246 . S
O23 Zn15 2.024 . S
O23 C17 1.249 . S
H24 C6 0.948 . S
O25 Zn15 2.039 . S
O25 C29 1.251 . S
O26 Zn7 2.025 . S
O26 C29 1.254 . S
O27 C8 1.246 . S
O27 Zn15 2.034 . S
O28 Zn7 2.024 . S
O28 C8 1.249 . S
C29 O25 1.251 . S
C29 O26 1.254 . S
H30 C3 0.949 . S
H31 C5 0.950 . S
H32 C12 0.949 . S
H33 C14 0.950 . S
C34 O50 1.251 . S
C34 O52 1.254 . S
N35 C36 1.333 . S
N35 C40 1.307 . S
N35 Zn41 2.020 . S
C36 N35 1.333 . S
C36 C37 1.379 . S
C36 H54 0.952 . S
C37 C36 1.379 . S
C37 C38 1.390 . S
C37 H64 0.949 . S
C38 C37 1.390 . S
C38 C39 1.357 . S
C39 C38 1.357 . S
C39 C40 1.370 . S
C39 H65 0.950 . S
C40 N35 1.307 . S
C40 C39 1.370 . S
C40 H58 0.948 . S
Zn41 N35 2.020 . S
Zn41 O50 2.039 . S
Zn41 O56 2.034 . S
Zn41 O60 2.025 . S
Zn41 O62 2.024 . S
C42 O61 1.246 . S
C42 O62 1.249 . S
N43 C44 1.307 . S
N43 C45 1.333 . S
N43 Zn49 2.020 . S
C44 N43 1.307 . S
C44 C48 1.370 . S
C44 H55 0.948 . S
C45 N43 1.333 . S
C45 C46 1.379 . S
C45 H53 0.952 . S
C46 C45 1.379 . S
C46 C47 1.390 . S
C46 H66 0.949 . S
C47 C46 1.390 . S
C47 C48 1.357 . S
C48 C44 1.370 . S
C48 C47 1.357 . S
C48 H67 0.950 . S
Zn49 N43 2.020 . S
Zn49 O52 2.025 . S
Zn49 O57 2.024 . S
Zn49 O59 2.039 . S
Zn49 O61 2.034 . S
O50 C34 1.251 . S
O50 Zn41 2.039 . S
C51 O56 1.246 . S
C51 O57 1.249 . S
O52 C34 1.254 . S
O52 Zn49 2.025 . S
H53 C45 0.952 . S
H54 C36 0.952 . S
H55 C44 0.948 . S
O56 Zn41 2.034 . S
O56 C51 1.246 . S
O57 Zn49 2.024 . S
O57 C51 1.249 . S
H58 C40 0.948 . S
O59 Zn49 2.039 . S
O59 C63 1.251 . S
O60 Zn41 2.025 . S
O60 C63 1.254 . S
O61 C42 1.246 . S
O61 Zn49 2.034 . S
O62 Zn41 2.024 . S
O62 C42 1.249 . S
C63 O59 1.251 . S
C63 O60 1.254 . S
H64 C37 0.949 . S
H65 C39 0.950 . S
H66 C46 0.949 . S
H67 C48 0.950 . S
C68 O84 1.251 . S
C68 O86 1.254 . S
N69 C70 1.333 . S
N69 C74 1.307 . S
N69 Zn75 2.020 . S
C70 N69 1.333 . S
C70 C71 1.379 . S
C70 H88 0.952 . S
C71 C70 1.379 . S
C71 C72 1.390 . S
C71 H98 0.949 . S
C72 C71 1.390 . S
C72 C73 1.357 . S
C73 C72 1.357 . S
C73 C74 1.370 . S
C73 H99 0.950 . S
C74 N69 1.307 . S
C74 C73 1.370 . S
C74 H92 0.948 . S
Zn75 N69 2.020 . S
Zn75 O84 2.039 . S
Zn75 O90 2.034 . S
Zn75 O94 2.025 . S
Zn75 O96 2.024 . S
C76 O95 1.246 . S
C76 O96 1.249 . S
N77 C78 1.307 . S
N77 C79 1.333 . S
N77 Zn83 2.020 . S
C78 N77 1.307 . S
C78 C82 1.370 . S
C78 H89 0.948 . S
C79 N77 1.333 . S
C79 C80 1.379 . S
C79 H87 0.952 . S
C80 C79 1.379 . S
C80 C81 1.390 . S
C80 H100 0.949 . S
C81 C80 1.390 . S
C81 C82 1.357 . S
C82 C78 1.370 . S
C82 C81 1.357 . S
C82 H101 0.950 . S
Zn83 N77 2.020 . S
Zn83 O86 2.025 . S
Zn83 O91 2.024 . S
Zn83 O93 2.039 . S
Zn83 O95 2.034 . S
O84 C68 1.251 . S
O84 Zn75 2.039 . S
C85 O90 1.246 . S
C85 O91 1.249 . S
O86 C68 1.254 . S
O86 Zn83 2.025 . S
H87 C79 0.952 . S
H88 C70 0.952 . S
H89 C78 0.948 . S
O90 Zn75 2.034 . S
O90 C85 1.246 . S
O91 Zn83 2.024 . S
O91 C85 1.249 . S
H92 C74 0.948 . S
O93 Zn83 2.039 . S
O93 C97 1.251 . S
O94 Zn75 2.025 . S
O94 C97 1.254 . S
O95 C76 1.246 . S
O95 Zn83 2.034 . S
O96 Zn75 2.024 . S
O96 C76 1.249 . S
C97 O93 1.251 . S
C97 O94 1.254 . S
H98 C71 0.949 . S
H99 C73 0.950 . S
H100 C80 0.949 . S
H101 C82 0.950 . S
C102 O118 1.251 . S
C102 O120 1.254 . S
N103 C104 1.333 . S
N103 C108 1.307 . S
N103 Zn109 2.020 . S
C104 N103 1.333 . S
C104 C105 1.379 . S
C104 H122 0.952 . S
C105 C104 1.379 . S
C105 C106 1.390 . S
C105 H132 0.949 . S
C106 C105 1.390 . S
C106 C107 1.357 . S
C107 C106 1.357 . S
C107 C108 1.370 . S
C107 H133 0.950 . S
C108 N103 1.307 . S
C108 C107 1.370 . S
C108 H126 0.948 . S
Zn109 N103 2.020 . S
Zn109 O118 2.039 . S
Zn109 O124 2.034 . S
Zn109 O128 2.025 . S
Zn109 O130 2.024 . S
C110 O129 1.246 . S
C110 O130 1.249 . S
N111 C112 1.307 . S
N111 C113 1.333 . S
N111 Zn117 2.020 . S
C112 N111 1.307 . S
C112 C116 1.370 . S
C112 H123 0.948 . S
C113 N111 1.333 . S
C113 C114 1.379 . S
C113 H121 0.952 . S
C114 C113 1.379 . S
C114 C115 1.390 . S
C114 H134 0.949 . S
C115 C114 1.390 . S
C115 C116 1.357 . S
C116 C112 1.370 . S
C116 C115 1.357 . S
C116 H135 0.950 . S
Zn117 N111 2.020 . S
Zn117 O120 2.025 . S
Zn117 O125 2.024 . S
Zn117 O127 2.039 . S
Zn117 O129 2.034 . S
O118 C102 1.251 . S
O118 Zn109 2.039 . S
C119 O124 1.246 . S
C119 O125 1.249 . S
O120 C102 1.254 . S
O120 Zn117 2.025 . S
H121 C113 0.952 . S
H122 C104 0.952 . S
H123 C112 0.948 . S
O124 Zn109 2.034 . S
O124 C119 1.246 . S
O125 Zn117 2.024 . S
O125 C119 1.249 . S
H126 C108 0.948 . S
O127 Zn117 2.039 . S
O127 C131 1.251 . S
O128 Zn109 2.025 . S
O128 C131 1.254 . S
O129 C110 1.246 . S
O129 Zn117 2.034 . S
O130 Zn109 2.024 . S
O130 C110 1.249 . S
C131 O127 1.251 . S
C131 O128 1.254 . S
H132 C105 0.949 . S
H133 C107 0.950 . S
H134 C114 0.949 . S
H135 C116 0.950 . S
C136 O152 1.251 . S
C136 O154 1.254 . S
N137 C138 1.333 . S
N137 C142 1.307 . S
N137 Zn143 2.020 . S
C138 N137 1.333 . S
C138 C139 1.379 . S
C138 H156 0.952 . S
C139 C138 1.379 . S
C139 C140 1.390 . S
C139 H166 0.949 . S
C140 C139 1.390 . S
C140 C141 1.357 . S
C141 C140 1.357 . S
C141 C142 1.370 . S
C141 H167 0.950 . S
C142 N137 1.307 . S
C142 C141 1.370 . S
C142 H160 0.948 . S
Zn143 N137 2.020 . S
Zn143 O152 2.039 . S
Zn143 O158 2.034 . S
Zn143 O162 2.025 . S
Zn143 O164 2.024 . S
C144 O163 1.246 . S
C144 O164 1.249 . S
N145 C146 1.307 . S
N145 C147 1.333 . S
N145 Zn151 2.020 . S
C146 N145 1.307 . S
C146 C150 1.370 . S
C146 H157 0.948 . S
C147 N145 1.333 . S
C147 C148 1.379 . S
C147 H155 0.952 . S
C148 C147 1.379 . S
C148 C149 1.390 . S
C148 H168 0.949 . S
C149 C148 1.390 . S
C149 C150 1.357 . S
C150 C146 1.370 . S
C150 C149 1.357 . S
C150 H169 0.950 . S
Zn151 N145 2.020 . S
Zn151 O154 2.025 . S
Zn151 O159 2.024 . S
Zn151 O161 2.039 . S
Zn151 O163 2.034 . S
O152 C136 1.251 . S
O152 Zn143 2.039 . S
C153 O158 1.246 . S
C153 O159 1.249 . S
O154 C136 1.254 . S
O154 Zn151 2.025 . S
H155 C147 0.952 . S
H156 C138 0.952 . S
H157 C146 0.948 . S
O158 Zn143 2.034 . S
O158 C153 1.246 . S
O159 Zn151 2.024 . S
O159 C153 1.249 . S
H160 C142 0.948 . S
O161 Zn151 2.039 . S
O161 C165 1.251 . S
O162 Zn143 2.025 . S
O162 C165 1.254 . S
O163 C144 1.246 . S
O163 Zn151 2.034 . S
O164 Zn143 2.024 . S
O164 C144 1.249 . S
C165 O161 1.251 . S
C165 O162 1.254 . S
H166 C139 0.949 . S
H167 C141 0.950 . S
H168 C148 0.949 . S
H169 C150 0.950 . S
C170 O186 1.251 . S
C170 O188 1.254 . S
N171 C172 1.333 . S
N171 C176 1.307 . S
N171 Zn177 2.020 . S
C172 N171 1.333 . S
C172 C173 1.379 . S
C172 H190 0.952 . S
C173 C172 1.379 . S
C173 C174 1.390 . S
C173 H200 0.949 . S
C174 C173 1.390 . S
C174 C175 1.357 . S
C175 C174 1.357 . S
C175 C176 1.370 . S
C175 H201 0.950 . S
C176 N171 1.307 . S
C176 C175 1.370 . S
C176 H194 0.948 . S
Zn177 N171 2.020 . S
Zn177 O186 2.039 . S
Zn177 O192 2.034 . S
Zn177 O196 2.025 . S
Zn177 O198 2.024 . S
C178 O197 1.246 . S
C178 O198 1.249 . S
N179 C180 1.307 . S
N179 C181 1.333 . S
N179 Zn185 2.020 . S
C180 N179 1.307 . S
C180 C184 1.370 . S
C180 H191 0.948 . S
C181 N179 1.333 . S
C181 C182 1.379 . S
C181 H189 0.952 . S
C182 C181 1.379 . S
C182 C183 1.390 . S
C182 H202 0.949 . S
C183 C182 1.390 . S
C183 C184 1.357 . S
C184 C180 1.370 . S
C184 C183 1.357 . S
C184 H203 0.950 . S
Zn185 N179 2.020 . S
Zn185 O188 2.025 . S
Zn185 O193 2.024 . S
Zn185 O195 2.039 . S
Zn185 O197 2.034 . S
O186 C170 1.251 . S
O186 Zn177 2.039 . S
C187 O192 1.246 . S
C187 O193 1.249 . S
O188 C170 1.254 . S
O188 Zn185 2.025 . S
H189 C181 0.952 . S
H190 C172 0.952 . S
H191 C180 0.948 . S
O192 Zn177 2.034 . S
O192 C187 1.246 . S
O193 Zn185 2.024 . S
O193 C187 1.249 . S
H194 C176 0.948 . S
O195 Zn185 2.039 . S
O195 C199 1.251 . S
O196 Zn177 2.025 . S
O196 C199 1.254 . S
O197 C178 1.246 . S
O197 Zn185 2.034 . S
O198 Zn177 2.024 . S
O198 C178 1.249 . S
C199 O195 1.251 . S
C199 O196 1.254 . S
H200 C173 0.949 . S
H201 C175 0.950 . S
H202 C182 0.949 . S
H203 C184 0.950 . S
C204 O220 1.251 . S
C204 O222 1.254 . S
N205 C206 1.333 . S
N205 C210 1.307 . S
N205 Zn211 2.020 . S
C206 N205 1.333 . S
C206 C207 1.379 . S
C206 H224 0.952 . S
C207 C206 1.379 . S
C207 C208 1.390 . S
C207 H234 0.949 . S
C208 C207 1.390 . S
C208 C209 1.357 . S
C209 C208 1.357 . S
C209 C210 1.370 . S
C209 H235 0.950 . S
C210 N205 1.307 . S
C210 C209 1.370 . S
C210 H228 0.948 . S
Zn211 N205 2.020 . S
Zn211 O220 2.039 . S
Zn211 O226 2.034 . S
Zn211 O230 2.025 . S
Zn211 O232 2.024 . S
C212 O231 1.246 . S
C212 O232 1.249 . S
N213 C214 1.307 . S
N213 C215 1.333 . S
N213 Zn219 2.020 . S
C214 N213 1.307 . S
C214 C218 1.370 . S
C214 H225 0.948 . S
C215 N213 1.333 . S
C215 C216 1.379 . S
C215 H223 0.952 . S
C216 C215 1.379 . S
C216 C217 1.390 . S
C216 H236 0.949 . S
C217 C216 1.390 . S
C217 C218 1.357 . S
C218 C214 1.370 . S
C218 C217 1.357 . S
C218 H237 0.950 . S
Zn219 N213 2.020 . S
Zn219 O222 2.025 . S
Zn219 O227 2.024 . S
Zn219 O229 2.039 . S
Zn219 O231 2.034 . S
O220 C204 1.251 . S
O220 Zn211 2.039 . S
C221 O226 1.246 . S
C221 O227 1.249 . S
O222 C204 1.254 . S
O222 Zn219 2.025 . S
H223 C215 0.952 . S
H224 C206 0.952 . S
H225 C214 0.948 . S
O226 Zn211 2.034 . S
O226 C221 1.246 . S
O227 Zn219 2.024 . S
O227 C221 1.249 . S
H228 C210 0.948 . S
O229 Zn219 2.039 . S
O229 C233 1.251 . S
O230 Zn211 2.025 . S
O230 C233 1.254 . S
O231 C212 1.246 . S
O231 Zn219 2.034 . S
O232 Zn211 2.024 . S
O232 C212 1.249 . S
C233 O229 1.251 . S
C233 O230 1.254 . S
H234 C207 0.949 . S
H235 C209 0.950 . S
H236 C216 0.949 . S
H237 C218 0.950 . S
C238 O254 1.251 . S
C238 O256 1.254 . S
N239 C240 1.333 . S
N239 C244 1.307 . S
N239 Zn245 2.020 . S
C240 N239 1.333 . S
C240 C241 1.379 . S
C240 H258 0.952 . S
C241 C240 1.379 . S
C241 C242 1.390 . S
C241 H268 0.949 . S
C242 C241 1.390 . S
C242 C243 1.357 . S
C243 C242 1.357 . S
C243 C244 1.370 . S
C243 H269 0.950 . S
C244 N239 1.307 . S
C244 C243 1.370 . S
C244 H262 0.948 . S
Zn245 N239 2.020 . S
Zn245 O254 2.039 . S
Zn245 O260 2.034 . S
Zn245 O264 2.025 . S
Zn245 O266 2.024 . S
C246 O265 1.246 . S
C246 O266 1.249 . S
N247 C248 1.307 . S
N247 C249 1.333 . S
N247 Zn253 2.020 . S
C248 N247 1.307 . S
C248 C252 1.370 . S
C248 H259 0.948 . S
C249 N247 1.333 . S
C249 C250 1.379 . S
C249 H257 0.952 . S
C250 C249 1.379 . S
C250 C251 1.390 . S
C250 H270 0.949 . S
C251 C250 1.390 . S
C251 C252 1.357 . S
C252 C248 1.370 . S
C252 C251 1.357 . S
C252 H271 0.950 . S
Zn253 N247 2.020 . S
Zn253 O256 2.025 . S
Zn253 O261 2.024 . S
Zn253 O263 2.039 . S
Zn253 O265 2.034 . S
O254 C238 1.251 . S
O254 Zn245 2.039 . S
C255 O260 1.246 . S
C255 O261 1.249 . S
O256 C238 1.254 . S
O256 Zn253 2.025 . S
H257 C249 0.952 . S
H258 C240 0.952 . S
H259 C248 0.948 . S
O260 Zn245 2.034 . S
O260 C255 1.246 . S
O261 Zn253 2.024 . S
O261 C255 1.249 . S
H262 C244 0.948 . S
O263 Zn253 2.039 . S
O263 C267 1.251 . S
O264 Zn245 2.025 . S
O264 C267 1.254 . S
O265 C246 1.246 . S
O265 Zn253 2.034 . S
O266 Zn245 2.024 . S
O266 C246 1.249 . S
C267 O263 1.251 . S
C267 O264 1.254 . S
H268 C241 0.949 . S
H269 C243 0.950 . S
H270 C250 0.949 . S
H271 C252 0.950 . S
Fe272 O273 1.886 . S
Fe272 O276 1.715 1_655 S
Fe272 O281 2.077 . S
Fe272 O286 1.935 1_655 S
Fe272 O292 2.077 . S
Fe272 O301 1.935 1_655 S
O273 Fe272 1.886 . S
O273 Fe275 1.715 . S
Fe274 O276 1.886 1_565 S
Fe274 O277 1.715 . S
Fe274 O284 1.935 . S
Fe274 O285 2.077 1_565 S
Fe274 O291 1.935 . S
Fe274 O300 2.077 1_565 S
Fe275 O273 1.715 . S
Fe275 O278 1.886 1_545 S
Fe275 O282 1.935 . S
Fe275 O287 2.077 1_545 S
Fe275 O293 1.935 . S
Fe275 O297 2.077 1_545 S
O276 Fe272 1.715 1_455 S
O276 Fe274 1.886 1_545 S
O277 Fe274 1.715 . S
O277 Fe279 1.886 . S
O278 Fe275 1.886 1_565 S
O278 Fe279 1.715 1_655 S
Fe279 O277 1.886 . S
Fe279 O278 1.715 1_455 S
Fe279 O283 2.077 . S
Fe279 O288 1.935 1_455 S
Fe279 O290 2.077 . S
Fe279 O298 1.935 1_455 S
C280 O292 1.381 . S
C280 O293 1.421 . S
O281 Fe272 2.077 . S
O281 C294 1.381 . S
O282 Fe275 1.935 . S
O282 C294 1.421 . S
O283 Fe279 2.077 . S
O283 C299 1.381 . S
O284 Fe274 1.935 . S
O284 C299 1.421 . S
O285 Fe274 2.077 1_545 S
O285 C289 1.381 . S
O286 Fe272 1.935 1_455 S
O286 C289 1.421 . S
O287 Fe275 2.077 1_565 S
O287 C295 1.381 . S
O288 Fe279 1.935 1_655 S
O288 C295 1.421 . S
C289 O285 1.381 . S
C289 O286 1.421 . S
O290 Fe279 2.077 . S
O290 C302 1.381 . S
O291 Fe274 1.935 . S
O291 C302 1.421 . S
O292 Fe272 2.077 . S
O292 C280 1.381 . S
O293 Fe275 1.935 . S
O293 C280 1.421 . S
C294 O281 1.381 . S
C294 O282 1.421 . S
C295 O287 1.381 . S
C295 O288 1.421 . S
C296 O297 1.381 . S
C296 O298 1.421 . S
O297 Fe275 2.077 1_565 S
O297 C296 1.381 . S
O298 Fe279 1.935 1_655 S
O298 C296 1.421 . S
C299 O283 1.381 . S
C299 O284 1.421 . S
O300 Fe274 2.077 1_545 S
O300 C303 1.381 . S
O301 Fe272 1.935 1_455 S
O301 C303 1.421 . S
C302 O290 1.381 . S
C302 O291 1.421 . S
C303 O300 1.381 . S
C303 O301 1.421 . S
Fe304 O305 1.886 1_554 S
Fe304 O308 1.715 . S
Fe304 O313 2.077 1_554 S
Fe304 O318 1.935 1_554 S
Fe304 O324 2.077 . S
Fe304 O333 1.935 . S
O305 Fe304 1.886 1_556 S
O305 Fe307 1.715 . S
Fe306 O308 1.886 1_545 S
Fe306 O309 1.715 . S
Fe306 O316 1.935 1_554 S
Fe306 O317 2.077 1_544 S
Fe306 O323 1.935 . S
Fe306 O332 2.077 1_545 S
Fe307 O305 1.715 . S
Fe307 O310 1.886 1_565 S
Fe307 O314 1.935 . S
Fe307 O319 2.077 1_565 S
Fe307 O325 1.935 1_556 S
Fe307 O329 2.077 1_566 S
O308 Fe304 1.715 . S
O308 Fe306 1.886 1_565 S
O309 Fe306 1.715 . S
O309 Fe311 1.886 1_554 S
O310 Fe307 1.886 1_545 S
O310 Fe311 1.715 . S
Fe311 O309 1.886 1_556 S
Fe311 O310 1.715 . S
Fe311 O315 2.077 . S
Fe311 O320 1.935 . S
Fe311 O322 2.077 1_556 S
Fe311 O330 1.935 1_556 S
C312 O324 1.381 . S
C312 O325 1.421 . S
O313 Fe304 2.077 1_556 S
O313 C326 1.381 . S
O314 Fe307 1.935 . S
O314 C326 1.421 . S
O315 Fe311 2.077 . S
O315 C331 1.381 . S
O316 Fe306 1.935 1_556 S
O316 C331 1.421 . S
O317 Fe306 2.077 1_566 S
O317 C321 1.381 . S
O318 Fe304 1.935 1_556 S
O318 C321 1.421 . S
O319 Fe307 2.077 1_545 S
O319 C327 1.381 . S
O320 Fe311 1.935 . S
O320 C327 1.421 . S
C321 O317 1.381 . S
C321 O318 1.421 . S
O322 Fe311 2.077 1_554 S
O322 C334 1.381 . S
O323 Fe306 1.935 . S
O323 C334 1.421 . S
O324 Fe304 2.077 . S
O324 C312 1.381 . S
O325 Fe307 1.935 1_554 S
O325 C312 1.421 . S
C326 O313 1.381 . S
C326 O314 1.421 . S
C327 O319 1.381 . S
C327 O320 1.421 . S
C328 O329 1.381 . S
C328 O330 1.421 . S
O329 Fe307 2.077 1_544 S
O329 C328 1.381 . S
O330 Fe311 1.935 1_554 S
O330 C328 1.421 . S
C331 O315 1.381 . S
C331 O316 1.421 . S
O332 Fe306 2.077 1_565 S
O332 C335 1.381 . S
O333 Fe304 1.935 . S
O333 C335 1.421 . S
C334 O322 1.381 . S
C334 O323 1.421 . S
C335 O332 1.381 . S
C335 O333 1.421 . S
Fe336 O337 1.886 1_556 S
Fe336 O340 1.715 1_655 S
Fe336 O345 2.077 . S
Fe336 O350 1.935 1_655 S
Fe336 O356 2.077 1_556 S
Fe336 O365 1.935 1_656 S
O337 Fe336 1.886 1_554 S
O337 Fe339 1.715 . S
Fe338 O340 1.886 . S
Fe338 O341 1.715 . S
Fe338 O348 1.935 . S
Fe338 O349 2.077 . S
Fe338 O355 1.935 1_556 S
Fe338 O364 2.077 1_556 S
Fe339 O337 1.715 . S
Fe339 O342 1.886 . S
Fe339 O346 1.935 1_554 S
Fe339 O351 2.077 1_554 S
Fe339 O357 1.935 . S
Fe339 O361 2.077 . S
O340 Fe336 1.715 1_455 S
O340 Fe338 1.886 . S
O341 Fe338 1.715 . S
O341 Fe343 1.886 1_556 S
O342 Fe339 1.886 . S
O342 Fe343 1.715 1_655 S
Fe343 O341 1.886 1_554 S
Fe343 O342 1.715 1_455 S
Fe343 O347 2.077 1_554 S
Fe343 O352 1.935 1_454 S
Fe343 O354 2.077 . S
Fe343 O362 1.935 1_455 S
C344 O356 1.381 . S
C344 O357 1.421 . S
O345 Fe336 2.077 . S
O345 C358 1.381 . S
O346 Fe339 1.935 1_556 S
O346 C358 1.421 . S
O347 Fe343 2.077 1_556 S
O347 C363 1.381 . S
O348 Fe338 1.935 . S
O348 C363 1.421 . S
O349 Fe338 2.077 . S
O349 C353 1.381 . S
O350 Fe336 1.935 1_455 S
O350 C353 1.421 . S
O351 Fe339 2.077 1_556 S
O351 C359 1.381 . S
O352 Fe343 1.935 1_656 S
O352 C359 1.421 . S
C353 O349 1.381 . S
C353 O350 1.421 . S
O354 Fe343 2.077 . S
O354 C366 1.381 . S
O355 Fe338 1.935 1_554 S
O355 C366 1.421 . S
O356 Fe336 2.077 1_554 S
O356 C344 1.381 . S
O357 Fe339 1.935 . S
O357 C344 1.421 . S
C358 O345 1.381 . S
C358 O346 1.421 . S
C359 O351 1.381 . S
C359 O352 1.421 . S
C360 O361 1.381 . S
C360 O362 1.421 . S
O361 Fe339 2.077 . S
O361 C360 1.381 . S
O362 Fe343 1.935 1_655 S
O362 C360 1.421 . S
C363 O347 1.381 . S
C363 O348 1.421 . S
O364 Fe338 2.077 1_554 S
O364 C367 1.381 . S
O365 Fe336 1.935 1_454 S
O365 C367 1.421 . S
C366 O354 1.381 . S
C366 O355 1.421 . S
C367 O364 1.381 . S
C367 O365 1.421 . S
Fe368 O369 1.886 . S
Fe368 O372 1.715 . S
Fe368 O377 2.077 . S
Fe368 O382 1.935 . S
Fe368 O388 2.077 . S
Fe368 O397 1.935 . S
O369 Fe368 1.886 . S
O369 Fe371 1.715 . S
Fe370 O372 1.886 1_554 S
Fe370 O373 1.715 . S
Fe370 O380 1.935 . S
Fe370 O381 2.077 1_554 S
Fe370 O387 1.935 . S
Fe370 O396 2.077 1_554 S
Fe371 O369 1.715 . S
Fe371 O374 1.886 1_556 S
Fe371 O378 1.935 . S
Fe371 O383 2.077 1_556 S
Fe371 O389 1.935 . S
Fe371 O393 2.077 1_556 S
O372 Fe368 1.715 . S
O372 Fe370 1.886 1_556 S
O373 Fe370 1.715 . S
O373 Fe375 1.886 . S
O374 Fe371 1.886 1_554 S
O374 Fe375 1.715 . S
Fe375 O373 1.886 . S
Fe375 O374 1.715 . S
Fe375 O379 2.077 . S
Fe375 O384 1.935 . S
Fe375 O386 2.077 . S
Fe375 O394 1.935 . S
C376 O388 1.381 . S
C376 O389 1.421 . S
O377 Fe368 2.077 . S
O377 C390 1.381 . S
O378 Fe371 1.935 . S
O378 C390 1.421 . S
O379 Fe375 2.077 . S
O379 C395 1.381 . S
O380 Fe370 1.935 . S
O380 C395 1.421 . S
O381 Fe370 2.077 1_556 S
O381 C385 1.381 . S
O382 Fe368 1.935 . S
O382 C385 1.421 . S
O383 Fe371 2.077 1_554 S
O383 C391 1.381 . S
O384 Fe375 1.935 . S
O384 C391 1.421 . S
C385 O381 1.381 . S
C385 O382 1.421 . S
O386 Fe375 2.077 . S
O386 C398 1.381 . S
O387 Fe370 1.935 . S
O387 C398 1.421 . S
O388 Fe368 2.077 . S
O388 C376 1.381 . S
O389 Fe371 1.935 . S
O389 C376 1.421 . S
C390 O377 1.381 . S
C390 O378 1.421 . S
C391 O383 1.381 . S
C391 O384 1.421 . S
C392 O393 1.381 . S
C392 O394 1.421 . S
O393 Fe371 2.077 1_554 S
O393 C392 1.381 . S
O394 Fe375 1.935 . S
O394 C392 1.421 . S
C395 O379 1.381 . S
C395 O380 1.421 . S
O396 Fe370 2.077 1_556 S
O396 C399 1.381 . S
O397 Fe368 1.935 . S
O397 C399 1.421 . S
C398 O386 1.381 . S
C398 O387 1.421 . S
C399 O396 1.381 . S
C399 O397 1.421 . S
Fe400 O401 1.886 . S
Fe400 O404 1.715 . S
Fe400 O409 2.077 . S
Fe400 O414 1.935 . S
Fe400 O420 2.077 1_455 S
Fe400 O429 1.935 1_455 S
O401 Fe400 1.886 . S
O401 Fe403 1.715 1_455 S
Fe402 O404 1.886 . S
Fe402 O405 1.715 1_455 S
Fe402 O412 1.935 . S
Fe402 O413 2.077 . S
Fe402 O419 1.935 1_455 S
Fe402 O428 2.077 1_455 S
Fe403 O401 1.715 1_655 S
Fe403 O406 1.886 . S
Fe403 O410 1.935 1_655 S
Fe403 O415 2.077 1_655 S
Fe403 O421 1.935 . S
Fe403 O425 2.077 . S
O404 Fe400 1.715 . S
O404 Fe402 1.886 . S
O405 Fe402 1.715 1_655 S
O405 Fe407 1.886 . S
O406 Fe403 1.886 . S
O406 Fe407 1.715 . S
Fe407 O405 1.886 . S
Fe407 O406 1.715 . S
Fe407 O411 2.077 1_655 S
Fe407 O416 1.935 1_655 S
Fe407 O418 2.077 . S
Fe407 O426 1.935 . S
C408 O420 1.381 . S
C408 O421 1.421 . S
O409 Fe400 2.077 . S
O409 C422 1.381 . S
O410 Fe403 1.935 1_455 S
O410 C422 1.421 . S
O411 Fe407 2.077 1_455 S
O411 C427 1.381 . S
O412 Fe402 1.935 . S
O412 C427 1.421 . S
O413 Fe402 2.077 . S
O413 C417 1.381 . S
O414 Fe400 1.935 . S
O414 C417 1.421 . S
O415 Fe403 2.077 1_455 S
O415 C423 1.381 . S
O416 Fe407 1.935 1_455 S
O416 C423 1.421 . S
C417 O413 1.381 . S
C417 O414 1.421 . S
O418 Fe407 2.077 . S
O418 C430 1.381 . S
O419 Fe402 1.935 1_655 S
O419 C430 1.421 . S
O420 Fe400 2.077 1_655 S
O420 C408 1.381 . S
O421 Fe403 1.935 . S
O421 C408 1.421 . S
C422 O409 1.381 . S
C422 O410 1.421 . S
C423 O415 1.381 . S
C423 O416 1.421 . S
C424 O425 1.381 . S
C424 O426 1.421 . S
O425 Fe403 2.077 . S
O425 C424 1.381 . S
O426 Fe407 1.935 . S
O426 C424 1.421 . S
C427 O411 1.381 . S
C427 O412 1.421 . S
O428 Fe402 2.077 1_655 S
O428 C431 1.381 . S
O429 Fe400 1.935 1_655 S
O429 C431 1.421 . S
C430 O418 1.381 . S
C430 O419 1.421 . S
C431 O428 1.381 . S
C431 O429 1.421 . S
Fe432 O433 1.886 . S
Fe432 O436 1.715 . S
Fe432 O441 2.077 . S
Fe432 O446 1.935 . S
Fe432 O452 2.077 . S
Fe432 O461 1.935 . S
O433 Fe432 1.886 . S
O433 Fe435 1.715 . S
Fe434 O436 1.886 1_545 S
Fe434 O437 1.715 . S
Fe434 O444 1.935 . S
Fe434 O445 2.077 1_545 S
Fe434 O451 1.935 . S
Fe434 O460 2.077 1_545 S
Fe435 O433 1.715 . S
Fe435 O438 1.886 1_565 S
Fe435 O442 1.935 . S
Fe435 O447 2.077 1_565 S
Fe435 O453 1.935 . S
Fe435 O457 2.077 1_565 S
O436 Fe432 1.715 . S
O436 Fe434 1.886 1_565 S
O437 Fe434 1.715 . S
O437 Fe439 1.886 . S
O438 Fe435 1.886 1_545 S
O438 Fe439 1.715 . S
Fe439 O437 1.886 . S
Fe439 O438 1.715 . S
Fe439 O443 2.077 . S
Fe439 O448 1.935 . S
Fe439 O450 2.077 . S
Fe439 O458 1.935 . S
C440 O452 1.381 . S
C440 O453 1.421 . S
O441 Fe432 2.077 . S
O441 C454 1.381 . S
O442 Fe435 1.935 . S
O442 C454 1.421 . S
O443 Fe439 2.077 . S
O443 C459 1.381 . S
O444 Fe434 1.935 . S
O444 C459 1.421 . S
O445 Fe434 2.077 1_565 S
O445 C449 1.381 . S
O446 Fe432 1.935 . S
O446 C449 1.421 . S
O447 Fe435 2.077 1_545 S
O447 C455 1.381 . S
O448 Fe439 1.935 . S
O448 C455 1.421 . S
C449 O445 1.381 . S
C449 O446 1.421 . S
O450 Fe439 2.077 . S
O450 C462 1.381 . S
O451 Fe434 1.935 . S
O451 C462 1.421 . S
O452 Fe432 2.077 . S
O452 C440 1.381 . S
O453 Fe435 1.935 . S
O453 C440 1.421 . S
C454 O441 1.381 . S
C454 O442 1.421 . S
C455 O447 1.381 . S
C455 O448 1.421 . S
C456 O457 1.381 . S
C456 O458 1.421 . S
O457 Fe435 2.077 1_545 S
O457 C456 1.381 . S
O458 Fe439 1.935 . S
O458 C456 1.421 . S
C459 O443 1.381 . S
C459 O444 1.421 . S
O460 Fe434 2.077 1_565 S
O460 C463 1.381 . S
O461 Fe432 1.935 . S
O461 C463 1.421 . S
C462 O450 1.381 . S
C462 O451 1.421 . S
C463 O460 1.381 . S
C463 O461 1.421 . S
C464 C465 1.387 . S
C464 H468 0.950 . S
C464 C473 1.390 . S
C465 C464 1.387 . S
C465 C467 1.387 . S
H466 C473 0.950 . S
C467 C465 1.387 . S
C467 C469 1.390 . S
C467 H471 0.950 . S
H468 C464 0.950 . S
C469 C467 1.390 . S
C469 C470 1.387 . S
C469 H472 0.950 . S
C470 C469 1.387 . S
C470 C473 1.387 . S
H471 C467 0.950 . S
H472 C469 0.950 . S
C473 C464 1.390 . S
C473 H466 0.950 . S
C473 C470 1.387 . S
C474 C475 1.387 . S
C474 H478 0.950 . S
C474 C483 1.390 . S
C475 C474 1.387 . S
C475 C477 1.387 . S
H476 C483 0.950 . S
C477 C475 1.387 . S
C477 C479 1.390 . S
C477 H481 0.950 . S
H478 C474 0.950 . S
C479 C477 1.390 . S
C479 C480 1.387 . S
C479 H482 0.950 . S
C480 C479 1.387 . S
C480 C483 1.387 . S
H481 C477 0.950 . S
H482 C479 0.950 . S
C483 C474 1.390 . S
C483 H476 0.950 . S
C483 C480 1.387 . S
C484 C485 1.387 . S
C484 H488 0.950 . S
C484 C493 1.390 . S
C485 C484 1.387 . S
C485 C487 1.387 . S
H486 C493 0.950 . S
C487 C485 1.387 . S
C487 C489 1.390 . S
C487 H491 0.950 . S
H488 C484 0.950 . S
C489 C487 1.390 . S
C489 C490 1.387 . S
C489 H492 0.950 . S
C490 C489 1.387 . S
C490 C493 1.387 . S
H491 C487 0.950 . S
H492 C489 0.950 . S
C493 C484 1.390 . S
C493 H486 0.950 . S
C493 C490 1.387 . S
C494 C495 1.387 . S
C494 H498 0.950 . S
C494 C503 1.390 . S
C495 C494 1.387 . S
C495 C497 1.387 . S
H496 C503 0.950 . S
C497 C495 1.387 . S
C497 C499 1.390 . S
C497 H501 0.950 . S
H498 C494 0.950 . S
C499 C497 1.390 . S
C499 C500 1.387 . S
C499 H502 0.950 . S
C500 C499 1.387 . S
C500 C503 1.387 . S
H501 C497 0.950 . S
H502 C499 0.950 . S
C503 C494 1.390 . S
C503 H496 0.950 . S
C503 C500 1.387 . S
C504 C505 1.387 . S
C504 H508 0.950 . S
C504 C513 1.390 . S
C505 C504 1.387 . S
C505 C507 1.387 . S
H506 C513 0.950 . S
C507 C505 1.387 . S
C507 C509 1.390 . S
C507 H511 0.950 . S
H508 C504 0.950 . S
C509 C507 1.390 . S
C509 C510 1.387 . S
C509 H512 0.950 . S
C510 C509 1.387 . S
C510 C513 1.387 . S
H511 C507 0.950 . S
H512 C509 0.950 . S
C513 C504 1.390 . S
C513 H506 0.950 . S
C513 C510 1.387 . S
C514 C515 1.387 . S
C514 H518 0.950 . S
C514 C523 1.390 . S
C515 C514 1.387 . S
C515 C517 1.387 . S
H516 C523 0.950 . S
C517 C515 1.387 . S
C517 C519 1.390 . S
C517 H521 0.950 . S
H518 C514 0.950 . S
C519 C517 1.390 . S
C519 C520 1.387 . S
C519 H522 0.950 . S
C520 C519 1.387 . S
C520 C523 1.387 . S
H521 C517 0.950 . S
H522 C519 0.950 . S
C523 C514 1.390 . S
C523 H516 0.950 . S
C523 C520 1.387 . S
C524 C525 1.387 . S
C524 H528 0.950 . S
C524 C533 1.390 . S
C525 C524 1.387 . S
C525 C527 1.387 . S
H526 C533 0.950 . S
C527 C525 1.387 . S
C527 C529 1.390 . S
C527 H531 0.950 . S
H528 C524 0.950 . S
C529 C527 1.390 . S
C529 C530 1.387 . S
C529 H532 0.950 . S
C530 C529 1.387 . S
C530 C533 1.387 . S
H531 C527 0.950 . S
H532 C529 0.950 . S
C533 C524 1.390 . S
C533 H526 0.950 . S
C533 C530 1.387 . S
C534 C535 1.387 . S
C534 H538 0.950 . S
C534 C543 1.390 . S
C535 C534 1.387 . S
C535 C537 1.387 . S
H536 C543 0.950 . S
C537 C535 1.387 . S
C537 C539 1.390 . S
C537 H541 0.950 . S
H538 C534 0.950 . S
C539 C537 1.390 . S
C539 C540 1.387 . S
C539 H542 0.950 . S
C540 C539 1.387 . S
C540 C543 1.387 . S
H541 C537 0.950 . S
H542 C539 0.950 . S
C543 C534 1.390 . S
C543 H536 0.950 . S
C543 C540 1.387 . S
C544 C545 1.387 . S
C544 H548 0.950 . S
C544 C553 1.390 . S
C545 C544 1.387 . S
C545 C547 1.387 . S
H546 C553 0.950 . S
C547 C545 1.387 . S
C547 C549 1.390 . S
C547 H551 0.950 . S
H548 C544 0.950 . S
C549 C547 1.390 . S
C549 C550 1.387 . S
C549 H552 0.950 . S
C550 C549 1.387 . S
C550 C553 1.387 . S
H551 C547 0.950 . S
H552 C549 0.950 . S
C553 C544 1.390 . S
C553 H546 0.950 . S
C553 C550 1.387 . S
C554 C555 1.387 . S
C554 H558 0.950 . S
C554 C563 1.390 . S
C555 C554 1.387 . S
C555 C557 1.387 . S
H556 C563 0.950 . S
C557 C555 1.387 . S
C557 C559 1.390 . S
C557 H561 0.950 . S
H558 C554 0.950 . S
C559 C557 1.390 . S
C559 C560 1.387 . S
C559 H562 0.950 . S
C560 C559 1.387 . S
C560 C563 1.387 . S
H561 C557 0.950 . S
H562 C559 0.950 . S
C563 C554 1.390 . S
C563 H556 0.950 . S
C563 C560 1.387 . S
C564 C565 1.387 . S
C564 H568 0.950 . S
C564 C573 1.390 . S
C565 C564 1.387 . S
C565 C567 1.387 . S
H566 C573 0.950 . S
C567 C565 1.387 . S
C567 C569 1.390 . S
C567 H571 0.950 . S
H568 C564 0.950 . S
C569 C567 1.390 . S
C569 C570 1.387 . S
C569 H572 0.950 . S
C570 C569 1.387 . S
C570 C573 1.387 . S
H571 C567 0.950 . S
H572 C569 0.950 . S
C573 C564 1.390 . S
C573 H566 0.950 . S
C573 C570 1.387 . S
C574 C575 1.387 . S
C574 H578 0.950 . S
C574 C583 1.390 . S
C575 C574 1.387 . S
C575 C577 1.387 . S
H576 C583 0.950 . S
C577 C575 1.387 . S
C577 C579 1.390 . S
C577 H581 0.950 . S
H578 C574 0.950 . S
C579 C577 1.390 . S
C579 C580 1.387 . S
C579 H582 0.950 . S
C580 C579 1.387 . S
C580 C583 1.387 . S
H581 C577 0.950 . S
H582 C579 0.950 . S
C583 C574 1.390 . S
C583 H576 0.950 . S
C583 C580 1.387 . S
C584 C585 1.387 . S
C584 H588 0.950 . S
C584 C593 1.390 . S
C585 C584 1.387 . S
C585 C587 1.387 . S
H586 C593 0.950 . S
C587 C585 1.387 . S
C587 C589 1.390 . S
C587 H591 0.950 . S
H588 C584 0.950 . S
C589 C587 1.390 . S
C589 C590 1.387 . S
C589 H592 0.950 . S
C590 C589 1.387 . S
C590 C593 1.387 . S
H591 C587 0.950 . S
H592 C589 0.950 . S
C593 C584 1.390 . S
C593 H586 0.950 . S
C593 C590 1.387 . S
C594 C595 1.387 . S
C594 H598 0.950 . S
C594 C603 1.390 . S
C595 C594 1.387 . S
C595 C597 1.387 . S
H596 C603 0.950 . S
C597 C595 1.387 . S
C597 C599 1.390 . S
C597 H601 0.950 . S
H598 C594 0.950 . S
C599 C597 1.390 . S
C599 C600 1.387 . S
C599 H602 0.950 . S
C600 C599 1.387 . S
C600 C603 1.387 . S
H601 C597 0.950 . S
H602 C599 0.950 . S
C603 C594 1.390 . S
C603 H596 0.950 . S
C603 C600 1.387 . S
C604 C605 1.387 . S
C604 H608 0.950 . S
C604 C613 1.390 . S
C605 C604 1.387 . S
C605 C607 1.387 . S
H606 C613 0.950 . S
C607 C605 1.387 . S
C607 C609 1.390 . S
C607 H611 0.950 . S
H608 C604 0.950 . S
C609 C607 1.390 . S
C609 C610 1.387 . S
C609 H612 0.950 . S
C610 C609 1.387 . S
C610 C613 1.387 . S
H611 C607 0.950 . S
H612 C609 0.950 . S
C613 C604 1.390 . S
C613 H606 0.950 . S
C613 C610 1.387 . S
C614 C615 1.387 . S
C614 H618 0.950 . S
C614 C623 1.390 . S
C615 C614 1.387 . S
C615 C617 1.387 . S
H616 C623 0.950 . S
C617 C615 1.387 . S
C617 C619 1.390 . S
C617 H621 0.950 . S
H618 C614 0.950 . S
C619 C617 1.390 . S
C619 C620 1.387 . S
C619 H622 0.950 . S
C620 C619 1.387 . S
C620 C623 1.387 . S
H621 C617 0.950 . S
H622 C619 0.950 . S
C623 C614 1.390 . S
C623 H616 0.950 . S
C623 C620 1.387 . S
C624 C625 1.387 . S
C624 H628 0.950 . S
C624 C633 1.390 . S
C625 C624 1.387 . S
C625 C627 1.387 . S
H626 C633 0.950 . S
C627 C625 1.387 . S
C627 C629 1.390 . S
C627 H631 0.950 . S
H628 C624 0.950 . S
C629 C627 1.390 . S
C629 C630 1.387 . S
C629 H632 0.950 . S
C630 C629 1.387 . S
C630 C633 1.387 . S
H631 C627 0.950 . S
H632 C629 0.950 . S
C633 C624 1.390 . S
C633 H626 0.950 . S
C633 C630 1.387 . S
C634 C635 1.387 . S
C634 H638 0.950 . S
C634 C643 1.390 . S
C635 C634 1.387 . S
C635 C637 1.387 . S
H636 C643 0.950 . S
C637 C635 1.387 . S
C637 C639 1.390 . S
C637 H641 0.950 . S
H638 C634 0.950 . S
C639 C637 1.390 . S
C639 C640 1.387 . S
C639 H642 0.950 . S
C640 C639 1.387 . S
C640 C643 1.387 . S
H641 C637 0.950 . S
H642 C639 0.950 . S
C643 C634 1.390 . S
C643 H636 0.950 . S
C643 C640 1.387 . S
C644 C645 1.387 . S
C644 H648 0.950 . S
C644 C653 1.390 . S
C645 C644 1.387 . S
C645 C647 1.387 . S
H646 C653 0.950 . S
C647 C645 1.387 . S
C647 C649 1.390 . S
C647 H651 0.950 . S
H648 C644 0.950 . S
C649 C647 1.390 . S
C649 C650 1.387 . S
C649 H652 0.950 . S
C650 C649 1.387 . S
C650 C653 1.387 . S
H651 C647 0.950 . S
H652 C649 0.950 . S
C653 C644 1.390 . S
C653 H646 0.950 . S
C653 C650 1.387 . S
C654 C655 1.387 . S
C654 H658 0.950 . S
C654 C663 1.390 . S
C655 C654 1.387 . S
C655 C657 1.387 . S
H656 C663 0.950 . S
C657 C655 1.387 . S
C657 C659 1.390 . S
C657 H661 0.950 . S
H658 C654 0.950 . S
C659 C657 1.390 . S
C659 C660 1.387 . S
C659 H662 0.950 . S
C660 C659 1.387 . S
C660 C663 1.387 . S
H661 C657 0.950 . S
H662 C659 0.950 . S
C663 C654 1.390 . S
C663 H656 0.950 . S
C663 C660 1.387 . S
C664 C665 1.387 . S
C664 H668 0.950 . S
C664 C673 1.390 . S
C665 C664 1.387 . S
C665 C667 1.387 . S
H666 C673 0.950 . S
C667 C665 1.387 . S
C667 C669 1.390 . S
C667 H671 0.950 . S
H668 C664 0.950 . S
C669 C667 1.390 . S
C669 C670 1.387 . S
C669 H672 0.950 . S
C670 C669 1.387 . S
C670 C673 1.387 . S
H671 C667 0.950 . S
H672 C669 0.950 . S
C673 C664 1.390 . S
C673 H666 0.950 . S
C673 C670 1.387 . S
C674 C675 1.387 . S
C674 H678 0.950 . S
C674 C683 1.390 . S
C675 C674 1.387 . S
C675 C677 1.387 . S
H676 C683 0.950 . S
C677 C675 1.387 . S
C677 C679 1.390 . S
C677 H681 0.950 . S
H678 C674 0.950 . S
C679 C677 1.390 . S
C679 C680 1.387 . S
C679 H682 0.950 . S
C680 C679 1.387 . S
C680 C683 1.387 . S
H681 C677 0.950 . S
H682 C679 0.950 . S
C683 C674 1.390 . S
C683 H676 0.950 . S
C683 C680 1.387 . S
C684 C685 1.387 . S
C684 H688 0.950 . S
C684 C693 1.390 . S
C685 C684 1.387 . S
C685 C687 1.387 . S
H686 C693 0.950 . S
C687 C685 1.387 . S
C687 C689 1.390 . S
C687 H691 0.950 . S
H688 C684 0.950 . S
C689 C687 1.390 . S
C689 C690 1.387 . S
C689 H692 0.950 . S
C690 C689 1.387 . S
C690 C693 1.387 . S
H691 C687 0.950 . S
H692 C689 0.950 . S
C693 C684 1.390 . S
C693 H686 0.950 . S
C693 C690 1.387 . S
C694 C695 1.387 . S
C694 H698 0.950 . S
C694 C703 1.390 . S
C695 C694 1.387 . S
C695 C697 1.387 . S
H696 C703 0.950 . S
C697 C695 1.387 . S
C697 C699 1.390 . S
C697 H701 0.950 . S
H698 C694 0.950 . S
C699 C697 1.390 . S
C699 C700 1.387 . S
C699 H702 0.950 . S
C700 C699 1.387 . S
C700 C703 1.387 . S
H701 C697 0.950 . S
H702 C699 0.950 . S
C703 C694 1.390 . S
C703 H696 0.950 . S
C703 C700 1.387 . S
C704 C705 1.387 . S
C704 H708 0.950 . S
C704 C713 1.390 . S
C705 C704 1.387 . S
C705 C707 1.387 . S
H706 C713 0.950 . S
C707 C705 1.387 . S
C707 C709 1.390 . S
C707 H711 0.950 . S
H708 C704 0.950 . S
C709 C707 1.390 . S
C709 C710 1.387 . S
C709 H712 0.950 . S
C710 C709 1.387 . S
C710 C713 1.387 . S
H711 C707 0.950 . S
H712 C709 0.950 . S
C713 C704 1.390 . S
C713 H706 0.950 . S
C713 C710 1.387 . S
C714 C715 1.387 . S
C714 H718 0.950 . S
C714 C723 1.390 . S
C715 C714 1.387 . S
C715 C717 1.387 . S
H716 C723 0.950 . S
C717 C715 1.387 . S
C717 C719 1.390 . S
C717 H721 0.950 . S
H718 C714 0.950 . S
C719 C717 1.390 . S
C719 C720 1.387 . S
C719 H722 0.950 . S
C720 C719 1.387 . S
C720 C723 1.387 . S
H721 C717 0.950 . S
H722 C719 0.950 . S
C723 C714 1.390 . S
C723 H716 0.950 . S
C723 C720 1.387 . S
C724 C725 1.387 . S
C724 H728 0.950 . S
C724 C733 1.390 . S
C725 C724 1.387 . S
C725 C727 1.387 . S
H726 C733 0.950 . S
C727 C725 1.387 . S
C727 C729 1.390 . S
C727 H731 0.950 . S
H728 C724 0.950 . S
C729 C727 1.390 . S
C729 C730 1.387 . S
C729 H732 0.950 . S
C730 C729 1.387 . S
C730 C733 1.387 . S
H731 C727 0.950 . S
H732 C729 0.950 . S
C733 C724 1.390 . S
C733 H726 0.950 . S
C733 C730 1.387 . S
C734 C735 1.387 . S
C734 H738 0.950 . S
C734 C743 1.390 . S
C735 C734 1.387 . S
C735 C737 1.387 . S
H736 C743 0.950 . S
C737 C735 1.387 . S
C737 C739 1.390 . S
C737 H741 0.950 . S
H738 C734 0.950 . S
C739 C737 1.390 . S
C739 C740 1.387 . S
C739 H742 0.950 . S
C740 C739 1.387 . S
C740 C743 1.387 . S
H741 C737 0.950 . S
H742 C739 0.950 . S
C743 C734 1.390 . S
C743 H736 0.950 . S
C743 C740 1.387 . S
C744 C745 1.387 . S
C744 H748 0.950 . S
C744 C753 1.390 . S
C745 C744 1.387 . S
C745 C747 1.387 . S
H746 C753 0.950 . S
C747 C745 1.387 . S
C747 C749 1.390 . S
C747 H751 0.950 . S
H748 C744 0.950 . S
C749 C747 1.390 . S
C749 C750 1.387 . S
C749 H752 0.950 . S
C750 C749 1.387 . S
C750 C753 1.387 . S
H751 C747 0.950 . S
H752 C749 0.950 . S
C753 C744 1.390 . S
C753 H746 0.950 . S
C753 C750 1.387 . S
C754 C755 1.387 . S
C754 H758 0.950 . S
C754 C763 1.390 . S
C755 C754 1.387 . S
C755 C757 1.387 . S
H756 C763 0.950 . S
C757 C755 1.387 . S
C757 C759 1.390 . S
C757 H761 0.950 . S
H758 C754 0.950 . S
C759 C757 1.390 . S
C759 C760 1.387 . S
C759 H762 0.950 . S
C760 C759 1.387 . S
C760 C763 1.387 . S
H761 C757 0.950 . S
H762 C759 0.950 . S
C763 C754 1.390 . S
C763 H756 0.950 . S
C763 C760 1.387 . S
C764 C765 1.387 . S
C764 H768 0.950 . S
C764 C773 1.390 . S
C765 C764 1.387 . S
C765 C767 1.387 . S
H766 C773 0.950 . S
C767 C765 1.387 . S
C767 C769 1.390 . S
C767 H771 0.950 . S
H768 C764 0.950 . S
C769 C767 1.390 . S
C769 C770 1.387 . S
C769 H772 0.950 . S
C770 C769 1.387 . S
C770 C773 1.387 . S
H771 C767 0.950 . S
H772 C769 0.950 . S
C773 C764 1.390 . S
C773 H766 0.950 . S
C773 C770 1.387 . S
C774 C775 1.387 . S
C774 H778 0.950 . S
C774 C783 1.390 . S
C775 C774 1.387 . S
C775 C777 1.387 . S
H776 C783 0.950 . S
C777 C775 1.387 . S
C777 C779 1.390 . S
C777 H781 0.950 . S
H778 C774 0.950 . S
C779 C777 1.390 . S
C779 C780 1.387 . S
C779 H782 0.950 . S
C780 C779 1.387 . S
C780 C783 1.387 . S
H781 C777 0.950 . S
H782 C779 0.950 . S
C783 C774 1.390 . S
C783 H776 0.950 . S
C783 C780 1.387 . S
C784 C785 1.387 . S
C784 H788 0.950 . S
C784 C793 1.390 . S
C785 C784 1.387 . S
C785 C787 1.387 . S
H786 C793 0.950 . S
C787 C785 1.387 . S
C787 C789 1.390 . S
C787 H791 0.950 . S
H788 C784 0.950 . S
C789 C787 1.390 . S
C789 C790 1.387 . S
C789 H792 0.950 . S
C790 C789 1.387 . S
C790 C793 1.387 . S
H791 C787 0.950 . S
H792 C789 0.950 . S
C793 C784 1.390 . S
C793 H786 0.950 . S
C793 C790 1.387 . S
C794 C795 1.387 . S
C794 H798 0.950 . S
C794 C803 1.390 . S
C795 C794 1.387 . S
C795 C797 1.387 . S
H796 C803 0.950 . S
C797 C795 1.387 . S
C797 C799 1.390 . S
C797 H801 0.950 . S
H798 C794 0.950 . S
C799 C797 1.390 . S
C799 C800 1.387 . S
C799 H802 0.950 . S
C800 C799 1.387 . S
C800 C803 1.387 . S
H801 C797 0.950 . S
H802 C799 0.950 . S
C803 C794 1.390 . S
C803 H796 0.950 . S
C803 C800 1.387 . S
C804 C805 1.387 . S
C804 H808 0.950 . S
C804 C813 1.390 . S
C805 C804 1.387 . S
C805 C807 1.387 . S
H806 C813 0.950 . S
C807 C805 1.387 . S
C807 C809 1.390 . S
C807 H811 0.950 . S
H808 C804 0.950 . S
C809 C807 1.390 . S
C809 C810 1.387 . S
C809 H812 0.950 . S
C810 C809 1.387 . S
C810 C813 1.387 . S
H811 C807 0.950 . S
H812 C809 0.950 . S
C813 C804 1.390 . S
C813 H806 0.950 . S
C813 C810 1.387 . S
C814 C815 1.387 . S
C814 H818 0.950 . S
C814 C823 1.390 . S
C815 C814 1.387 . S
C815 C817 1.387 . S
H816 C823 0.950 . S
C817 C815 1.387 . S
C817 C819 1.390 . S
C817 H821 0.950 . S
H818 C814 0.950 . S
C819 C817 1.390 . S
C819 C820 1.387 . S
C819 H822 0.950 . S
C820 C819 1.387 . S
C820 C823 1.387 . S
H821 C817 0.950 . S
H822 C819 0.950 . S
C823 C814 1.390 . S
C823 H816 0.950 . S
C823 C820 1.387 . S
C824 C825 1.387 . S
C824 H828 0.950 . S
C824 C833 1.390 . S
C825 C824 1.387 . S
C825 C827 1.387 . S
H826 C833 0.950 . S
C827 C825 1.387 . S
C827 C829 1.390 . S
C827 H831 0.950 . S
H828 C824 0.950 . S
C829 C827 1.390 . S
C829 C830 1.387 . S
C829 H832 0.950 . S
C830 C829 1.387 . S
C830 C833 1.387 . S
H831 C827 0.950 . S
H832 C829 0.950 . S
C833 C824 1.390 . S
C833 H826 0.950 . S
C833 C830 1.387 . S
C834 C835 1.387 . S
C834 H838 0.950 . S
C834 C843 1.390 . S
C835 C834 1.387 . S
C835 C837 1.387 . S
H836 C843 0.950 . S
C837 C835 1.387 . S
C837 C839 1.390 . S
C837 H841 0.950 . S
H838 C834 0.950 . S
C839 C837 1.390 . S
C839 C840 1.387 . S
C839 H842 0.950 . S
C840 C839 1.387 . S
C840 C843 1.387 . S
H841 C837 0.950 . S
H842 C839 0.950 . S
C843 C834 1.390 . S
C843 H836 0.950 . S
C843 C840 1.387 . S
C844 C845 1.387 . S
C844 H848 0.950 . S
C844 C853 1.390 . S
C845 C844 1.387 . S
C845 C847 1.387 . S
H846 C853 0.950 . S
C847 C845 1.387 . S
C847 C849 1.390 . S
C847 H851 0.950 . S
H848 C844 0.950 . S
C849 C847 1.390 . S
C849 C850 1.387 . S
C849 H852 0.950 . S
C850 C849 1.387 . S
C850 C853 1.387 . S
H851 C847 0.950 . S
H852 C849 0.950 . S
C853 C844 1.390 . S
C853 H846 0.950 . S
C853 C850 1.387 . S
C854 C855 1.387 . S
C854 H858 0.950 . S
C854 C863 1.390 . S
C855 C854 1.387 . S
C855 C857 1.387 . S
H856 C863 0.950 . S
C857 C855 1.387 . S
C857 C859 1.390 . S
C857 H861 0.950 . S
H858 C854 0.950 . S
C859 C857 1.390 . S
C859 C860 1.387 . S
C859 H862 0.950 . S
C860 C859 1.387 . S
C860 C863 1.387 . S
H861 C857 0.950 . S
H862 C859 0.950 . S
C863 C854 1.390 . S
C863 H856 0.950 . S
C863 C860 1.387 . S
C864 C865 1.387 . S
C864 H868 0.950 . S
C864 C873 1.390 . S
C865 C864 1.387 . S
C865 C867 1.387 . S
H866 C873 0.950 . S
C867 C865 1.387 . S
C867 C869 1.390 . S
C867 H871 0.950 . S
H868 C864 0.950 . S
C869 C867 1.390 . S
C869 C870 1.387 . S
C869 H872 0.950 . S
C870 C869 1.387 . S
C870 C873 1.387 . S
H871 C867 0.950 . S
H872 C869 0.950 . S
C873 C864 1.390 . S
C873 H866 0.950 . S
C873 C870 1.387 . S
C874 C875 1.387 . S
C874 H878 0.950 . S
C874 C883 1.390 . S
C875 C874 1.387 . S
C875 C877 1.387 . S
H876 C883 0.950 . S
C877 C875 1.387 . S
C877 C879 1.390 . S
C877 H881 0.950 . S
H878 C874 0.950 . S
C879 C877 1.390 . S
C879 C880 1.387 . S
C879 H882 0.950 . S
C880 C879 1.387 . S
C880 C883 1.387 . S
H881 C877 0.950 . S
H882 C879 0.950 . S
C883 C874 1.390 . S
C883 H876 0.950 . S
C883 C880 1.387 . S
C884 C885 1.387 . S
C884 H888 0.950 . S
C884 C893 1.390 . S
C885 C884 1.387 . S
C885 C887 1.387 . S
H886 C893 0.950 . S
C887 C885 1.387 . S
C887 C889 1.390 . S
C887 H891 0.950 . S
H888 C884 0.950 . S
C889 C887 1.390 . S
C889 C890 1.387 . S
C889 H892 0.950 . S
C890 C889 1.387 . S
C890 C893 1.387 . S
H891 C887 0.950 . S
H892 C889 0.950 . S
C893 C884 1.390 . S
C893 H886 0.950 . S
C893 C890 1.387 . S
C894 C895 1.387 . S
C894 H898 0.950 . S
C894 C903 1.390 . S
C895 C894 1.387 . S
C895 C897 1.387 . S
H896 C903 0.950 . S
C897 C895 1.387 . S
C897 C899 1.390 . S
C897 H901 0.950 . S
H898 C894 0.950 . S
C899 C897 1.390 . S
C899 C900 1.387 . S
C899 H902 0.950 . S
C900 C899 1.387 . S
C900 C903 1.387 . S
H901 C897 0.950 . S
H902 C899 0.950 . S
C903 C894 1.390 . S
C903 H896 0.950 . S
C903 C900 1.387 . S
C904 C905 1.387 . S
C904 H908 0.950 . S
C904 C913 1.390 . S
C905 C904 1.387 . S
C905 C907 1.387 . S
H906 C913 0.950 . S
C907 C905 1.387 . S
C907 C909 1.390 . S
C907 H911 0.950 . S
H908 C904 0.950 . S
C909 C907 1.390 . S
C909 C910 1.387 . S
C909 H912 0.950 . S
C910 C909 1.387 . S
C910 C913 1.387 . S
H911 C907 0.950 . S
H912 C909 0.950 . S
C913 C904 1.390 . S
C913 H906 0.950 . S
C913 C910 1.387 . S
C914 C915 1.387 . S
C914 H918 0.950 . S
C914 C923 1.390 . S
C915 C914 1.387 . S
C915 C917 1.387 . S
H916 C923 0.950 . S
C917 C915 1.387 . S
C917 C919 1.390 . S
C917 H921 0.950 . S
H918 C914 0.950 . S
C919 C917 1.390 . S
C919 C920 1.387 . S
C919 H922 0.950 . S
C920 C919 1.387 . S
C920 C923 1.387 . S
H921 C917 0.950 . S
H922 C919 0.950 . S
C923 C914 1.390 . S
C923 H916 0.950 . S
C923 C920 1.387 . S
C924 C925 1.387 . S
C924 H928 0.950 . S
C924 C933 1.390 . S
C925 C924 1.387 . S
C925 C927 1.387 . S
H926 C933 0.950 . S
C927 C925 1.387 . S
C927 C929 1.390 . S
C927 H931 0.950 . S
H928 C924 0.950 . S
C929 C927 1.390 . S
C929 C930 1.387 . S
C929 H932 0.950 . S
C930 C929 1.387 . S
C930 C933 1.387 . S
H931 C927 0.950 . S
H932 C929 0.950 . S
C933 C924 1.390 . S
C933 H926 0.950 . S
C933 C930 1.387 . S
C934 C935 1.387 . S
C934 H938 0.950 . S
C934 C943 1.390 . S
C935 C934 1.387 . S
C935 C937 1.387 . S
H936 C943 0.950 . S
C937 C935 1.387 . S
C937 C939 1.390 . S
C937 H941 0.950 . S
H938 C934 0.950 . S
C939 C937 1.390 . S
C939 C940 1.387 . S
C939 H942 0.950 . S
C940 C939 1.387 . S
C940 C943 1.387 . S
H941 C937 0.950 . S
H942 C939 0.950 . S
C943 C934 1.390 . S
C943 H936 0.950 . S
C943 C940 1.387 . S
C470 C289 0.358 . S
C465 C4 0.504 . S
C480 C294 1.627 . S
C475 C63 1.601 . S
C490 C295 1.359 . S
C485 C72 1.283 . S
C495 C102 1.603 . S
C500 C299 1.641 . S
C505 C136 1.599 . S
C510 C302 1.628 . S
C520 C303 1.358 . S
C515 C183 1.277 . S
C525 C233 1.603 . S
C530 C280 1.640 . S
C535 C251 0.498 . S
C540 C296 0.359 . S
C550 C334 1.513 . S
C545 C29 1.539 . S
C555 C42 2.051 . S
C560 C360 1.950 . S
C570 C312 1.551 . S
C565 C97 1.578 . S
C580 C367 1.263 . S
C575 C115 1.318 . S
C585 C149 1.338 . S
C590 C321 1.311 . S
C600 C363 1.576 . S
C595 C187 1.589 . S
C605 C212 2.062 . S
C610 C327 1.972 . S
C615 C255 1.544 . S
C620 C358 1.521 . S
C625 C8 1.544 . S
C630 C366 1.514 . S
C635 C153 2.050 . S
C640 C353 1.949 . S
C650 C331 1.551 . S
C645 C170 1.579 . S
C660 C359 1.262 . S
C655 C208 1.325 . S
C665 C238 1.542 . S
C670 C326 1.515 . S
C675 C76 1.587 . S
C680 C344 1.575 . S
C690 C335 1.972 . S
C685 C119 2.064 . S
C695 C38 1.338 . S
C700 C328 1.305 . S
C705 C242 0.491 . S
C710 C390 0.516 . S
C715 C165 1.580 . S
C720 C385 1.500 . S
C730 C399 1.220 . S
C725 C174 1.260 . S
C740 C376 1.556 . S
C735 C204 1.581 . S
C745 C34 1.579 . S
C750 C392 1.495 . S
C760 C391 1.218 . S
C755 C81 1.255 . S
C765 C131 1.579 . S
C770 C395 1.556 . S
C775 C13 0.481 . S
C780 C398 0.515 . S
C785 C267 1.532 . S
C790 C424 1.496 . S
C800 C440 2.056 . S
C795 C144 2.080 . S
C805 C199 1.570 . S
C810 C422 1.570 . S
C815 C217 1.336 . S
C820 C455 1.297 . S
C830 C431 1.453 . S
C825 C47 1.350 . S
C835 C85 1.595 . S
C840 C449 1.510 . S
C850 C427 2.095 . S
C845 C110 2.069 . S
C860 C462 1.501 . S
C855 C17 1.556 . S
C870 C454 1.499 . S
C865 C246 1.557 . S
C875 C51 2.076 . S
C880 C459 2.054 . S
C885 C68 1.571 . S
C890 C430 1.573 . S
C900 C463 1.304 . S
C895 C106 1.342 . S
C905 C0 1.533 . S
C910 C417 1.489 . S
C915 C178 1.594 . S
C920 C456 1.504 . S
C930 C408 2.094 . S
C925 C221 2.074 . S
C940 C423 1.452 . S
C935 C140 1.345 . S
