# Generated by pormake.
# Topology ocu, (6,8)-cn, num edge types: 1
# Building blocks:
#     Node 0, Type 0, BuildingBlock: PAMTUU_clean_sbu_0, # of connection points: 6
#     Node 1, Type 0, BuildingBlock: PAMTUU_clean_sbu_0, # of connection points: 6
#     Node 2, Type 0, BuildingBlock: PAMTUU_clean_sbu_0, # of connection points: 6
#     Node 3, Type 0, BuildingBlock: PAMTUU_clean_sbu_0, # of connection points: 6
#     Node 4, Type 0, BuildingBlock: PAMTUU_clean_sbu_0, # of connection points: 6
#     Node 5, Type 0, BuildingBlock: PAMTUU_clean_sbu_0, # of connection points: 6
#     Node 6, Type 0, BuildingBlock: PAMTUU_clean_sbu_0, # of connection points: 6
#     Node 7, Type 0, BuildingBlock: PAMTUU_clean_sbu_0, # of connection points: 6
#     Node 8, Type 1, BuildingBlock: TAGTUT_clean_sbu_1, # of connection points: 8
#     Node 9, Type 1, BuildingBlock: TAGTUT_clean_sbu_1, # of connection points: 8
#     Node 10, Type 1, BuildingBlock: TAGTUT_clean_sbu_1, # of connection points: 8
#     Node 11, Type 1, BuildingBlock: TAGTUT_clean_sbu_1, # of connection points: 8
#     Node 12, Type 1, BuildingBlock: TAGTUT_clean_sbu_1, # of connection points: 8
#     Node 13, Type 1, BuildingBlock: TAGTUT_clean_sbu_1, # of connection points: 8
#     Edge 14, Type (0, 1), BuildingBlock: XUDNAN_clean_linker_2, # of connection points: 2
#     Edge 15, Type (0, 1), BuildingBlock: XUDNAN_clean_linker_2, # of connection points: 2
#     Edge 16, Type (0, 1), BuildingBlock: XUDNAN_clean_linker_2, # of connection points: 2
#     Edge 17, Type (0, 1), BuildingBlock: XUDNAN_clean_linker_2, # of connection points: 2
#     Edge 18, Type (0, 1), BuildingBlock: XUDNAN_clean_linker_2, # of connection points: 2
#     Edge 19, Type (0, 1), BuildingBlock: XUDNAN_clean_linker_2, # of connection points: 2
#     Edge 20, Type (0, 1), BuildingBlock: XUDNAN_clean_linker_2, # of connection points: 2
#     Edge 21, Type (0, 1), BuildingBlock: XUDNAN_clean_linker_2, # of connection points: 2
#     Edge 22, Type (0, 1), BuildingBlock: XUDNAN_clean_linker_2, # of connection points: 2
#     Edge 23, Type (0, 1), BuildingBlock: XUDNAN_clean_linker_2, # of connection points: 2
#     Edge 24, Type (0, 1), BuildingBlock: XUDNAN_clean_linker_2, # of connection points: 2
#     Edge 25, Type (0, 1), BuildingBlock: XUDNAN_clean_linker_2, # of connection points: 2
#     Edge 26, Type (0, 1), BuildingBlock: XUDNAN_clean_linker_2, # of connection points: 2
#     Edge 27, Type (0, 1), BuildingBlock: XUDNAN_clean_linker_2, # of connection points: 2
#     Edge 28, Type (0, 1), BuildingBlock: XUDNAN_clean_linker_2, # of connection points: 2
#     Edge 29, Type (0, 1), BuildingBlock: XUDNAN_clean_linker_2, # of connection points: 2
#     Edge 30, Type (0, 1), BuildingBlock: XUDNAN_clean_linker_2, # of connection points: 2
#     Edge 31, Type (0, 1), BuildingBlock: XUDNAN_clean_linker_2, # of connection points: 2
#     Edge 32, Type (0, 1), BuildingBlock: XUDNAN_clean_linker_2, # of connection points: 2
#     Edge 33, Type (0, 1), BuildingBlock: XUDNAN_clean_linker_2, # of connection points: 2
#     Edge 34, Type (0, 1), BuildingBlock: XUDNAN_clean_linker_2, # of connection points: 2
#     Edge 35, Type (0, 1), BuildingBlock: XUDNAN_clean_linker_2, # of connection points: 2
#     Edge 36, Type (0, 1), BuildingBlock: XUDNAN_clean_linker_2, # of connection points: 2
#     Edge 37, Type (0, 1), BuildingBlock: XUDNAN_clean_linker_2, # of connection points: 2
#     Edge 38, Type (0, 1), BuildingBlock: XUDNAN_clean_linker_2, # of connection points: 2
#     Edge 39, Type (0, 1), BuildingBlock: XUDNAN_clean_linker_2, # of connection points: 2
#     Edge 40, Type (0, 1), BuildingBlock: XUDNAN_clean_linker_2, # of connection points: 2
#     Edge 41, Type (0, 1), BuildingBlock: XUDNAN_clean_linker_2, # of connection points: 2
#     Edge 42, Type (0, 1), BuildingBlock: XUDNAN_clean_linker_2, # of connection points: 2
#     Edge 43, Type (0, 1), BuildingBlock: XUDNAN_clean_linker_2, # of connection points: 2
#     Edge 44, Type (0, 1), BuildingBlock: XUDNAN_clean_linker_2, # of connection points: 2
#     Edge 45, Type (0, 1), BuildingBlock: XUDNAN_clean_linker_2, # of connection points: 2
#     Edge 46, Type (0, 1), BuildingBlock: XUDNAN_clean_linker_2, # of connection points: 2
#     Edge 47, Type (0, 1), BuildingBlock: XUDNAN_clean_linker_2, # of connection points: 2
#     Edge 48, Type (0, 1), BuildingBlock: XUDNAN_clean_linker_2, # of connection points: 2
#     Edge 49, Type (0, 1), BuildingBlock: XUDNAN_clean_linker_2, # of connection points: 2
#     Edge 50, Type (0, 1), BuildingBlock: XUDNAN_clean_linker_2, # of connection points: 2
#     Edge 51, Type (0, 1), BuildingBlock: XUDNAN_clean_linker_2, # of connection points: 2
#     Edge 52, Type (0, 1), BuildingBlock: XUDNAN_clean_linker_2, # of connection points: 2
#     Edge 53, Type (0, 1), BuildingBlock: XUDNAN_clean_linker_2, # of connection points: 2
#     Edge 54, Type (0, 1), BuildingBlock: XUDNAN_clean_linker_2, # of connection points: 2
#     Edge 55, Type (0, 1), BuildingBlock: XUDNAN_clean_linker_2, # of connection points: 2
#     Edge 56, Type (0, 1), BuildingBlock: XUDNAN_clean_linker_2, # of connection points: 2
#     Edge 57, Type (0, 1), BuildingBlock: XUDNAN_clean_linker_2, # of connection points: 2
#     Edge 58, Type (0, 1), BuildingBlock: XUDNAN_clean_linker_2, # of connection points: 2
#     Edge 59, Type (0, 1), BuildingBlock: XUDNAN_clean_linker_2, # of connection points: 2
#     Edge 60, Type (0, 1), BuildingBlock: XUDNAN_clean_linker_2, # of connection points: 2
#     Edge 61, Type (0, 1), BuildingBlock: XUDNAN_clean_linker_2, # of connection points: 2
# Relax obj value: 0.134
# Max RMSD: 0.268
# Mean RMSD: 0.145
data_MOF--net-ocu--node1-PAMTUU_clean_sbu_0--node2-TAGTUT_clean_sbu_1--edge1-XUDNAN_clean_linker_2
_symmetry_space_group_name_H-M    P1
_symmetry_Int_Tables_number       1
_symmetry_cell_setting            triclinic
loop_
_symmetry_equiv_pos_as_xyz
'x, y, z'
_cell_length_a     39.438632
_cell_length_b     40.557969
_cell_length_c     41.4059
_cell_angle_alpha  84.116522
_cell_angle_beta   96.990378
_cell_angle_gamma 111.52055
loop_
_atom_site_label
_atom_site_type_symbol
_atom_site_fract_x
_atom_site_fract_y
_atom_site_fract_z
_atom_type_partial_charge
Tb0 Tb 0.26009 0.26328 0.26247 0.0
Tb1 Tb 0.33584 0.28016 0.30635 0.0
C2 C 0.26654 0.2167 0.3256 0.0
C3 C 0.1688 0.26383 0.23222 0.0
C4 C 0.12006 0.29939 0.23401 0.0
C5 C 0.14344 0.29688 0.26171 0.0
C6 C 0.16744 0.27883 0.26095 0.0
C7 C 0.14334 0.26382 0.20551 0.0
C8 C 0.11892 0.28137 0.20647 0.0
C9 C 0.20103 0.25545 0.22763 0.0
O10 O 0.25778 0.30358 0.29563 0.0
O11 O 0.30679 0.30689 0.33291 0.0
O12 O 0.3413 0.32565 0.2724 0.0
O13 O 0.30473 0.29283 0.23271 0.0
O14 O 0.36635 0.27774 0.35128 0.0
O15 O 0.39321 0.30255 0.30802 0.0
O16 O 0.34296 0.24897 0.26692 0.0
O17 O 0.28362 0.22558 0.24446 0.0
O18 O 0.2463 0.23239 0.30807 0.0
O19 O 0.30139 0.22645 0.32161 0.0
C20 C 0.27656 0.31456 0.32403 0.0
O21 O 0.23082 0.28345 0.22546 0.0
O22 O 0.20679 0.22985 0.2466 0.0
C23 C 0.33384 0.31974 0.24155 0.0
C24 C 0.41591 0.26282 0.33939 0.0
C25 C 0.44852 0.21271 0.33286 0.0
C26 C 0.46885 0.24935 0.32934 0.0
C27 C 0.45258 0.27421 0.33245 0.0
C28 C 0.39585 0.22626 0.34328 0.0
C29 C 0.41198 0.20159 0.34023 0.0
C30 C 0.39682 0.28823 0.33723 0.0
C31 C 0.31848 0.22731 0.24613 0.0
H32 H 0.14491 0.31092 0.28303 0.0
H33 H 0.18685 0.27899 0.28184 0.0
H34 H 0.14423 0.2527 0.18307 0.0
H35 H 0.10138 0.28351 0.1847 0.0
H36 H 0.49709 0.25874 0.32375 0.0
H37 H 0.4683 0.30226 0.32858 0.0
H38 H 0.36731 0.21655 0.34801 0.0
H39 H 0.39576 0.17366 0.34406 0.0
Tb40 Tb 0.79127 0.25424 0.30021 0.0
Tb41 Tb 0.83271 0.20265 0.28146 0.0
C42 C 0.86108 0.25188 0.33617 0.0
C43 C 0.74499 0.31717 0.31435 0.0
C44 C 0.70348 0.35908 0.29062 0.0
C45 C 0.6956 0.33776 0.3196 0.0
C46 C 0.71637 0.31702 0.33145 0.0
C47 C 0.7542 0.33977 0.28632 0.0
C48 C 0.73367 0.36081 0.27462 0.0
C49 C 0.76158 0.29048 0.32413 0.0
O50 O 0.83122 0.28993 0.26815 0.0
O51 O 0.85426 0.25059 0.25028 0.0
O52 O 0.78117 0.19185 0.25233 0.0
O53 O 0.77431 0.24588 0.24898 0.0
O54 O 0.8444 0.17769 0.24452 0.0
O55 O 0.86109 0.1681 0.29537 0.0
O56 O 0.79675 0.17375 0.31951 0.0
O57 O 0.75413 0.20008 0.30657 0.0
O58 O 0.82618 0.2403 0.3392 0.0
O59 O 0.87155 0.24437 0.31012 0.0
C60 C 0.85173 0.2822 0.24935 0.0
O61 O 0.74374 0.25959 0.31231 0.0
O62 O 0.79693 0.30011 0.32318 0.0
C63 C 0.77033 0.21625 0.23605 0.0
C64 C 0.90092 0.17041 0.25679 0.0
C65 C 0.97308 0.17369 0.25608 0.0
C66 C 0.94401 0.14778 0.23902 0.0
C67 C 0.90797 0.14568 0.24005 0.0
C68 C 0.93005 0.19994 0.26836 0.0
C69 C 0.9659 0.20165 0.26799 0.0
C70 C 0.86382 0.16363 0.26506 0.0
C71 C 0.76359 0.17395 0.32052 0.0
H72 H 0.67245 0.336 0.33226 0.0
H73 H 0.70892 0.29949 0.3531 0.0
H74 H 0.77601 0.33986 0.27268 0.0
H75 H 0.73991 0.37662 0.2519 0.0
H76 H 0.94861 0.12677 0.22817 0.0
H77 H 0.88564 0.12336 0.22992 0.0
H78 H 0.92499 0.22 0.28037 0.0
H79 H 0.98717 0.22263 0.28082 0.0
Tb80 Tb 0.83988 0.80061 0.2589 0.0
Tb81 Tb 0.76891 0.75408 0.29199 0.0
C82 C 0.82247 0.82701 0.31792 0.0
C83 C 0.92092 0.808 0.22654 0.0
C84 C 0.91926 0.74595 0.20087 0.0
C85 C 0.92637 0.77777 0.18105 0.0
C86 C 0.92671 0.80851 0.19374 0.0
C87 C 0.92177 0.7787 0.24748 0.0
C88 C 0.91999 0.74761 0.2347 0.0
C89 C 0.90016 0.82897 0.23519 0.0
O90 O 0.85778 0.7636 0.29737 0.0
O91 O 0.80294 0.71985 0.30503 0.0
O92 O 0.76354 0.72153 0.25227 0.0
O93 O 0.81295 0.75858 0.22581 0.0
O94 O 0.74662 0.72761 0.33517 0.0
O95 O 0.71169 0.73539 0.29346 0.0
O96 O 0.74922 0.79314 0.25836 0.0
O97 O 0.80189 0.82891 0.23628 0.0
O98 O 0.83213 0.83716 0.28863 0.0
O99 O 0.80556 0.79325 0.32547 0.0
C100 C 0.83929 0.73087 0.30958 0.0
O101 O 0.86879 0.82252 0.21784 0.0
O102 O 0.89668 0.82881 0.26619 0.0
C103 C 0.78387 0.72961 0.22777 0.0
C104 C 0.7054 0.75343 0.34332 0.0
C105 C 0.70312 0.80219 0.38605 0.0
C106 C 0.68094 0.76577 0.38963 0.0
C107 C 0.68275 0.74139 0.36879 0.0
C108 C 0.72504 0.78979 0.3382 0.0
C109 C 0.72486 0.81362 0.35969 0.0
C110 C 0.71483 0.72953 0.32501 0.0
C111 C 0.76621 0.82105 0.23863 0.0
H112 H 0.92843 0.77826 0.15516 0.0
H113 H 0.92686 0.83103 0.17716 0.0
H114 H 0.91882 0.77793 0.27321 0.0
H115 H 0.91544 0.72422 0.25118 0.0
H116 H 0.66282 0.75572 0.40886 0.0
H117 H 0.66745 0.71332 0.37314 0.0
H118 H 0.74263 0.7997 0.31862 0.0
H119 H 0.74338 0.84071 0.35604 0.0
Tb120 Tb 0.29801 0.74052 0.28274 0.0
Tb121 Tb 0.26804 0.80706 0.27195 0.0
C122 C 0.22284 0.73456 0.30051 0.0
C123 C 0.31617 0.65954 0.27007 0.0
C124 C 0.32073 0.60607 0.23422 0.0
C125 C 0.31455 0.59948 0.26749 0.0
C126 C 0.31266 0.62615 0.28531 0.0
C127 C 0.3189 0.66515 0.23631 0.0
C128 C 0.32149 0.63884 0.21864 0.0
C129 C 0.32023 0.68914 0.28983 0.0
O130 O 0.27506 0.73844 0.23221 0.0
O131 O 0.24034 0.77417 0.23104 0.0
O132 O 0.30939 0.81686 0.23931 0.0
O133 O 0.34336 0.78895 0.27137 0.0
O134 O 0.22446 0.82551 0.27036 0.0
O135 O 0.27986 0.86206 0.26597 0.0
O136 O 0.31025 0.81862 0.31263 0.0
O137 O 0.30576 0.76191 0.33042 0.0
O138 O 0.23917 0.72044 0.28352 0.0
O139 O 0.2379 0.76782 0.30729 0.0
C140 C 0.24942 0.75024 0.21841 0.0
O141 O 0.33892 0.72071 0.27777 0.0
O142 O 0.29109 0.68849 0.30212 0.0
C143 C 0.34084 0.81366 0.2493 0.0
C144 C 0.24484 0.87552 0.30145 0.0
C145 C 0.23534 0.8952 0.36219 0.0
C146 C 0.20736 0.88934 0.33644 0.0
C147 C 0.21207 0.87955 0.30635 0.0
C148 C 0.27346 0.88305 0.32666 0.0
C149 C 0.26879 0.89287 0.35667 0.0
C150 C 0.24702 0.8583 0.27245 0.0
C151 C 0.31609 0.79585 0.33543 0.0
H152 H 0.31279 0.57427 0.28014 0.0
H153 H 0.30997 0.62115 0.31126 0.0
H154 H 0.32107 0.69057 0.22384 0.0
H155 H 0.32655 0.64531 0.19323 0.0
H156 H 0.18147 0.89154 0.3398 0.0
H157 H 0.18957 0.87365 0.2874 0.0
H158 H 0.29898 0.87985 0.3238 0.0
H159 H 0.29077 0.89697 0.37603 0.0
Tb160 Tb 0.24927 0.79499 0.77088 0.0
Tb161 Tb 0.29438 0.74655 0.80293 0.0
C162 C 0.30781 0.81781 0.83596 0.0
C163 C 0.1835 0.84158 0.76538 0.0
C164 C 0.12502 0.85896 0.78144 0.0
C165 C 0.12416 0.8239 0.78678 0.0
C166 C 0.15327 0.81526 0.77892 0.0
C167 C 0.18586 0.87698 0.7629 0.0
C168 C 0.15701 0.88566 0.771 0.0
C169 C 0.21126 0.83243 0.7514 0.0
O170 O 0.29727 0.81488 0.74461 0.0
O171 O 0.33338 0.78723 0.77471 0.0
O172 O 0.25202 0.71552 0.76646 0.0
O173 O 0.24403 0.75952 0.73161 0.0
O174 O 0.31458 0.71822 0.8404 0.0
O175 O 0.32121 0.71454 0.78977 0.0
O176 O 0.25084 0.73509 0.83413 0.0
O177 O 0.21077 0.75201 0.79804 0.0
O178 O 0.27827 0.81933 0.81748 0.0
O179 O 0.32114 0.79317 0.83203 0.0
C180 C 0.32836 0.80985 0.75158 0.0
O181 O 0.24469 0.84543 0.76483 0.0
O182 O 0.20216 0.79943 0.74472 0.0
C183 C 0.24191 0.72623 0.73699 0.0
C184 C 0.30743 0.66237 0.8235 0.0
C185 C 0.28789 0.59214 0.84859 0.0
C186 C 0.31847 0.6074 0.83023 0.0
C187 C 0.32862 0.64272 0.81843 0.0
C188 C 0.27281 0.64497 0.83504 0.0
C189 C 0.26274 0.60959 0.8471 0.0
C190 C 0.32313 0.70108 0.81957 0.0
C191 C 0.21799 0.73546 0.82521 0.0
H192 H 0.09992 0.80283 0.79479 0.0
H193 H 0.15113 0.78774 0.78172 0.0
H194 H 0.20909 0.89768 0.75283 0.0
H195 H 0.15848 0.91288 0.7661 0.0
H196 H 0.33804 0.59452 0.8296 0.0
H197 H 0.3547 0.65549 0.80821 0.0
H198 H 0.25522 0.65954 0.83767 0.0
H199 H 0.23829 0.59805 0.85994 0.0
Tb200 Tb 0.32369 0.27908 0.75634 0.0
Tb201 Tb 0.26563 0.26759 0.80998 0.0
C202 C 0.34052 0.33301 0.80986 0.0
C203 C 0.36555 0.25365 0.69227 0.0
C204 C 0.36973 0.20075 0.65481 0.0
C205 C 0.40143 0.22939 0.66475 0.0
C206 C 0.39931 0.25555 0.68316 0.0
C207 C 0.33383 0.225 0.68278 0.0
C208 C 0.33586 0.19892 0.66415 0.0
C209 C 0.36401 0.28106 0.71241 0.0
O210 O 0.34787 0.26249 0.80301 0.0
O211 O 0.29616 0.2322 0.82905 0.0
O212 O 0.23908 0.22731 0.775 0.0
O213 O 0.2907 0.22325 0.75897 0.0
O214 O 0.25193 0.25851 0.85837 0.0
O215 O 0.21369 0.2661 0.81933 0.0
O216 O 0.26196 0.31136 0.77496 0.0
O217 O 0.27711 0.29248 0.73094 0.0
O218 O 0.34445 0.32963 0.77939 0.0
O219 O 0.31501 0.30958 0.82636 0.0
C220 C 0.33141 0.23978 0.8265 0.0
O221 O 0.33487 0.2894 0.70718 0.0
O222 O 0.37313 0.27746 0.74343 0.0
C223 C 0.25537 0.21047 0.76077 0.0
C224 C 0.21574 0.29085 0.86911 0.0
C225 C 0.20378 0.34152 0.90411 0.0
C226 C 0.17418 0.31263 0.89136 0.0
C227 C 0.18013 0.28757 0.87417 0.0
C228 C 0.24541 0.31988 0.8813 0.0
C229 C 0.23951 0.34485 0.89872 0.0
C230 C 0.22141 0.26414 0.85078 0.0
C231 C 0.26067 0.31086 0.74301 0.0
H232 H 0.42812 0.2314 0.65879 0.0
H233 H 0.42416 0.27715 0.69055 0.0
H234 H 0.30743 0.22275 0.68975 0.0
H235 H 0.31081 0.17755 0.65683 0.0
H236 H 0.14624 0.30951 0.89431 0.0
H237 H 0.15684 0.26562 0.8647 0.0
H238 H 0.27322 0.32322 0.87752 0.0
H239 H 0.26302 0.36645 0.90837 0.0
Tb240 Tb 0.82561 0.24303 0.79506 0.0
Tb241 Tb 0.78031 0.29441 0.76857 0.0
C242 C 0.74995 0.23189 0.82394 0.0
C243 C 0.87698 0.19048 0.78018 0.0
C244 C 0.8914 0.17208 0.72058 0.0
C245 C 0.9116 0.20565 0.73255 0.0
C246 C 0.9044 0.21481 0.76192 0.0
C247 C 0.85907 0.15591 0.76966 0.0
C248 C 0.86603 0.14685 0.7401 0.0
C249 C 0.8616 0.20278 0.80549 0.0
O250 O 0.80155 0.22797 0.74678 0.0
O251 O 0.75343 0.24754 0.74086 0.0
O252 O 0.81839 0.30282 0.73159 0.0
O253 O 0.86167 0.28877 0.76592 0.0
O254 O 0.73245 0.30676 0.76064 0.0
O255 O 0.78491 0.34637 0.75156 0.0
O256 O 0.82393 0.32021 0.80526 0.0
O257 O 0.82867 0.27251 0.83664 0.0
O258 O 0.77344 0.2174 0.81791 0.0
O259 O 0.75189 0.26344 0.81056 0.0
C260 C 0.76937 0.22641 0.73325 0.0
O261 O 0.87578 0.23661 0.81088 0.0
O262 O 0.82592 0.19128 0.80314 0.0
C263 C 0.85236 0.3043 0.73833 0.0
C264 C 0.74866 0.36194 0.7827 0.0
C265 C 0.7481 0.40267 0.83351 0.0
C266 C 0.74017 0.41322 0.80087 0.0
C267 C 0.74051 0.39291 0.77549 0.0
C268 C 0.75733 0.35208 0.81522 0.0
C269 C 0.75724 0.37223 0.84029 0.0
C270 C 0.75141 0.34068 0.75721 0.0
C271 C 0.83039 0.30547 0.83376 0.0
H272 H 0.93216 0.22541 0.71865 0.0
H273 H 0.91887 0.24166 0.76924 0.0
H274 H 0.83772 0.13661 0.78313 0.0
H275 H 0.84994 0.12077 0.73169 0.0
H276 H 0.73292 0.43659 0.7951 0.0
H277 H 0.73441 0.40125 0.75047 0.0
H278 H 0.76436 0.3287 0.82134 0.0
H279 H 0.76413 0.36383 0.86512 0.0
Tb280 Tb 0.80522 0.79819 0.80454 0.0
Tb281 Tb 0.77249 0.73905 0.74837 0.0
C282 C 0.84144 0.80617 0.73958 0.0
C283 C 0.80684 0.86054 0.86465 0.0
C284 C 0.77069 0.89496 0.89643 0.0
C285 C 0.80892 0.90399 0.90183 0.0
C286 C 0.82678 0.88699 0.88604 0.0
C287 C 0.76863 0.85076 0.85969 0.0
C288 C 0.75071 0.86778 0.87545 0.0
C289 C 0.82621 0.84433 0.84672 0.0
O290 O 0.75374 0.80288 0.78348 0.0
O291 O 0.74915 0.78016 0.73373 0.0
O292 O 0.7291 0.72427 0.78106 0.0
O293 O 0.76452 0.75168 0.82609 0.0
O294 O 0.76538 0.7306 0.69838 0.0
O295 O 0.74942 0.68648 0.73411 0.0
O296 O 0.80204 0.71713 0.78689 0.0
O297 O 0.84155 0.76746 0.81111 0.0
O298 O 0.83086 0.82252 0.75982 0.0
O299 O 0.82856 0.77148 0.74 0.0
C300 C 0.74027 0.79903 0.75294 0.0
O301 O 0.81989 0.81068 0.85364 0.0
O302 O 0.8254 0.85185 0.81539 0.0
C303 C 0.73447 0.72847 0.81263 0.0
C304 C 0.77444 0.67858 0.68778 0.0
C305 C 0.81158 0.64402 0.65731 0.0
C306 C 0.77414 0.63771 0.64865 0.0
C307 C 0.75581 0.6548 0.66374 0.0
C308 C 0.81186 0.68538 0.69637 0.0
C309 C 0.83029 0.66832 0.68122 0.0
C310 C 0.75463 0.69621 0.70356 0.0
C311 C 0.83134 0.73337 0.80612 0.0
H312 H 0.82514 0.92431 0.91825 0.0
H313 H 0.85625 0.89482 0.89026 0.0
H314 H 0.75275 0.83037 0.84322 0.0
H315 H 0.72134 0.86033 0.87049 0.0
H316 H 0.75897 0.61967 0.62999 0.0
H317 H 0.72701 0.64939 0.65662 0.0
H318 H 0.82675 0.70371 0.71491 0.0
H319 H 0.85899 0.67361 0.6887 0.0
C320 C 0.96298 0.09642 0.53657 0.0
C321 C 0.03094 0.09791 0.45863 0.0
C322 C 0.99088 0.95895 0.48736 0.0
Mg323 Mg 0.04265 0.10148 0.53232 0.0
O324 O 1.02012 0.05208 0.53559 0.0
Mg325 Mg 0.97638 0.02871 0.50499 0.0
Mg326 Mg 0.04848 0.02086 0.53315 0.0
O327 O 0.0753 0.98806 0.53238 0.0
Mg328 Mg 0.04857 0.93895 0.53903 0.0
Mg329 Mg 0.11521 0.0099 0.56754 0.0
C330 C 0.09939 0.08116 0.58374 0.0
C331 C 0.12668 0.06176 0.50101 0.0
O332 O 0.95064 0.06644 0.5233 0.0
O333 O 0.99714 0.11426 0.542 0.0
O334 O 1.00285 0.06964 0.463 0.0
O335 O 0.05231 0.11395 0.48237 0.0
O336 O 0.08616 0.10457 0.57081 0.0
O337 O 0.08806 0.04963 0.57386 0.0
C338 C 0.97397 0.97454 0.56887 0.0
O339 O 1.00846 0.98302 0.56799 0.0
O340 O 0.95505 0.98791 0.54796 0.0
O341 O 0.13926 0.96835 0.55522 0.0
O342 O 0.09324 0.92308 0.5322 0.0
O343 O 0.08328 0.97391 0.60886 0.0
C344 C 0.12735 0.93914 0.54062 0.0
O345 O 0.03581 0.92865 0.58883 0.0
O346 O 1.00293 0.93529 0.50192 0.0
C347 C 0.05426 0.9467 0.61264 0.0
O348 O 1.00633 0.99204 0.49291 0.0
O349 O 0.09242 0.05802 0.4981 0.0
O350 O 0.14037 0.04647 0.52494 0.0
C351 C 0.43538 0.10721 0.1023 0.0
C352 C 0.45574 0.11674 0.99763 0.0
C353 C 0.46723 0.97293 0.01364 0.0
Mg354 Mg 0.50588 0.11966 0.06515 0.0
O355 O 0.49589 0.07108 0.0603 0.0
Mg356 Mg 0.44336 0.04194 0.04932 0.0
Mg357 Mg 0.52809 0.04224 0.0504 0.0
O358 O 0.56047 0.01228 0.0449 0.0
Mg359 Mg 0.54913 0.96229 0.04732 0.0
Mg360 Mg 0.61193 0.0419 0.0616 0.0
C361 C 0.58817 0.11011 0.08072 0.0
C362 C 0.58929 0.0895 0.99717 0.0
O363 O 0.42143 0.07888 0.0851 0.0
O364 O 0.46971 0.1257 0.10119 0.0
O365 O 0.43885 0.08315 1.00397 0.0
O366 O 0.48307 0.13484 0.01675 0.0
O367 O 0.56514 0.12664 0.0761 0.0
O368 O 0.57867 0.07595 0.0808 0.0
C369 C 0.47621 -0.00262 0.10719 0.0
O370 O 0.50678 0.00726 0.09495 0.0
O371 O 0.44967 0.00667 0.09419 0.0
O372 O 0.63417 0.01099 0.03085 0.0
O373 O 0.58758 0.96284 0.01323 0.0
O374 O 0.62039 -0.00292 0.10582 0.0
C375 C 0.62113 0.9839 0.01342 0.0
O376 O 0.58113 0.94349 0.09279 0.0
O377 O 0.49109 0.95738 0.02266 0.0
C378 C 0.61005 0.96252 0.1103 0.0
O379 O 0.47359 0.00578 0.02111 0.0
O380 O 0.55535 0.08006 1.00331 0.0
O381 O 0.61157 0.07878 0.01629 0.0
C382 C 0.89929 0.57896 0.06137 0.0
C383 C 0.94075 0.59735 0.9672 0.0
C384 C 0.947 0.46304 0.99807 0.0
Mg385 Mg 0.97681 0.60318 0.03744 0.0
O386 O 0.96586 0.55427 0.04328 0.0
Mg387 Mg 0.91934 0.52255 0.01987 0.0
Mg388 Mg 1.00165 0.53269 0.03497 0.0
O389 O 0.03672 0.50991 0.02728 0.0
Mg390 Mg 1.02107 0.46116 0.03823 0.0
Mg391 Mg 0.08153 0.53925 0.05456 0.0
C392 C 0.0553 0.60345 0.07131 0.0
C393 C 0.0639 0.58655 0.99069 0.0
O394 O 0.88916 0.54978 0.04705 0.0
O395 O 0.93169 0.6023 0.06147 0.0
O396 O 0.9232 0.56448 0.97509 0.0
O397 O 0.96526 0.61725 0.98698 0.0
O398 O 0.03298 0.61941 0.06036 0.0
O399 O 0.04646 0.56956 0.07019 0.0
C400 C 0.94181 0.47435 0.0804 0.0
O401 O 0.97545 0.48975 0.07469 0.0
O402 O 0.91617 0.48232 0.06359 0.0
O403 O 0.11104 0.50549 0.03346 0.0
O404 O 0.06672 0.45298 0.02224 0.0
O405 O 0.07219 0.50089 0.10142 0.0
C406 C 0.10016 0.47412 0.02272 0.0
O407 O 1.02362 0.45245 0.09012 0.0
O408 O 0.96753 0.44593 0.01095 0.0
C409 C 0.04848 0.47107 0.11033 0.0
O410 O 0.95625 0.49678 0.99971 0.0
O411 O 0.02949 0.57471 0.99469 0.0
O412 O 0.08682 0.57616 0.00957 0.0
C413 C 0.44869 0.5425 0.0839 0.0
C414 C 0.47914 0.57062 0.98652 0.0
C415 C 0.50431 0.44907 0.99329 0.0
Mg416 Mg 0.52288 0.57852 0.05372 0.0
O417 O 0.51718 0.53061 0.05418 0.0
Mg418 Mg 0.47141 0.49603 0.03271 0.0
Mg419 Mg 0.55409 0.5143 0.03987 0.0
O420 O 0.59052 0.49709 0.02547 0.0
Mg421 Mg 0.57984 0.44783 0.02999 0.0
Mg422 Mg 0.63453 0.52877 0.05153 0.0
C423 C 0.60502 0.58421 0.07777 0.0
C424 C 0.60787 0.57499 0.99197 0.0
O425 O 0.4401 0.51641 0.0655 0.0
O426 O 0.47975 0.56813 0.08478 0.0
O427 O 0.46778 0.53724 0.99329 0.0
O428 O 0.50241 0.59258 1.00568 0.0
O429 O 0.58136 0.59954 0.07155 0.0
O430 O 0.59741 0.55138 0.07322 0.0
C431 C 0.50304 0.45167 0.08884 0.0
O432 O 0.53576 0.46978 0.08173 0.0
O433 O 0.47536 0.45642 0.07297 0.0
O434 O 0.66744 0.50383 0.02538 0.0
O435 O 0.6287 0.45 0.01052 0.0
O436 O 0.62757 0.48704 0.09479 0.0
C437 C 0.66029 0.47486 0.01138 0.0
O438 O 0.58387 0.43544 0.08156 0.0
O439 O 0.5269 0.43256 1.00001 0.0
C440 C 0.60669 0.45531 0.10248 0.0
O441 O 0.50993 0.47864 1.00548 0.0
O442 O 0.57447 0.55883 0.99876 0.0
O443 O 0.63457 0.56826 1.0085 0.0
C444 C 0.96557 0.5582 0.54219 0.0
C445 C 0.98383 0.58282 0.446 0.0
C446 C 1.00678 0.43656 0.4726 0.0
Mg447 Mg 0.03991 0.58149 0.51148 0.0
O448 O 0.02954 0.53165 0.51399 0.0
Mg449 Mg 0.97929 0.50173 0.49489 0.0
Mg450 Mg 0.06342 0.50279 0.50996 0.0
O451 O 0.09672 0.47457 0.50194 0.0
Mg452 Mg 0.08748 0.42545 0.49875 0.0
Mg453 Mg 0.14824 0.50467 0.51499 0.0
C454 C 0.12059 0.57236 0.54862 0.0
C455 C 0.11812 0.5499 0.45651 0.0
O456 O 0.95405 0.53112 0.5247 0.0
O457 O 0.99895 0.57982 0.54342 0.0
O458 O 0.97288 0.54815 0.45048 0.0
O459 O 1.01179 0.60144 0.46463 0.0
O460 O 0.09673 0.58739 0.53803 0.0
O461 O 0.11546 0.53948 0.54199 0.0
C462 C 1.00067 0.45281 0.55993 0.0
O463 O 0.035 0.46422 0.55499 0.0
O464 O 0.97803 0.46275 0.54027 0.0
O465 O 0.17255 0.46769 0.4805 0.0
O466 O 0.1251 0.42029 0.46407 0.0
O467 O 0.15043 0.46407 0.56071 0.0
C468 C 0.15935 0.43912 0.46347 0.0
O469 O 0.11067 0.41014 0.54821 0.0
O470 O 0.02916 0.41939 0.47982 0.0
C471 C 0.13618 0.43032 0.56769 0.0
O472 O 1.01543 0.46991 0.47674 0.0
O473 O 0.08659 0.5382 0.46696 0.0
O474 O 0.14501 0.54179 0.47045 0.0
C475 C 0.45682 0.05534 0.53724 0.0
C476 C 0.51633 0.04963 0.45696 0.0
C477 C 0.49839 0.91699 0.50682 0.0
Mg478 Mg 0.53672 0.06403 0.52884 0.0
O479 O 0.519 0.01586 0.54099 0.0
Mg480 Mg 0.47523 0.98566 0.51392 0.0
Mg481 Mg 0.55261 0.98942 0.54067 0.0
O482 O 0.58639 0.96315 0.54088 0.0
Mg483 Mg 0.56998 0.91465 0.55293 0.0
Mg484 Mg 0.63115 -0.00496 0.56637 0.0
C485 C 0.60439 0.06075 0.57789 0.0
C486 C 0.61881 0.03565 0.49626 0.0
O487 O 0.44572 0.02318 0.52833 0.0
O488 O 0.49062 0.07542 0.53899 0.0
O489 O 0.49117 0.02068 0.46578 0.0
O490 O 0.53969 0.0691 0.47772 0.0
O491 O 0.58601 0.07832 0.56163 0.0
O492 O 0.59524 0.02703 0.57617 0.0
C493 C 0.486 0.94388 0.58339 0.0
O494 O 0.52062 0.95419 0.58148 0.0
O495 O 0.46453 0.95264 0.5613 0.0
O496 O 0.6606 0.96068 0.55033 0.0
O497 O 0.61734 0.9074 0.53908 0.0
O498 O 0.62129 0.95769 0.61398 0.0
C499 C 0.65065 0.92909 0.54076 0.0
O500 O 0.57413 0.90715 0.60522 0.0
O501 O 0.517 0.89944 0.52309 0.0
C502 C 0.60022 0.92681 0.62403 0.0
O503 O 0.50955 0.95117 0.50598 0.0
O504 O 0.58423 0.02434 0.49876 0.0
O505 O 0.64091 0.02879 0.5188 0.0
H506 H 0.19722 0.19556 0.34561 0.0
H507 H 0.29921 0.17605 0.36501 0.0
H508 H 0.2737 0.13359 0.41082 0.0
H509 H 0.18391 0.19595 0.42613 0.0
H510 H 0.13546 0.17304 0.42489 0.0
H511 H 0.15543 0.19869 0.3892 0.0
H512 H 0.12903 0.14725 0.35316 0.0
H513 H 0.10618 0.11683 0.38549 0.0
H514 H 0.13754 0.10661 0.36403 0.0
H515 H 0.23823 0.09546 0.45579 0.0
H516 H 0.19547 0.06307 0.49629 0.0
H517 H 0.11562 0.10708 0.44855 0.0
C518 C 0.21408 0.18198 0.35911 0.0
C519 C 0.25026 0.1891 0.3515 0.0
C520 C 0.27143 0.17104 0.37021 0.0
C521 C 0.25716 0.14685 0.39631 0.0
C522 C 0.22164 0.14092 0.40342 0.0
C523 C 0.20032 0.15778 0.38528 0.0
C524 C 0.16361 0.14779 0.39893 0.0
C525 C 0.15928 0.18081 0.41037 0.0
C526 C 0.13223 0.12859 0.37387 0.0
C527 C 0.16742 0.12259 0.42762 0.0
C528 C 0.20122 0.11911 0.42967 0.0
C529 C 0.21166 0.0979 0.4543 0.0
C530 C 0.18697 0.07965 0.47735 0.0
C531 C 0.15185 0.0824 0.47588 0.0
C532 C 0.14204 0.10424 0.45046 0.0
H533 H 0.97674 0.10834 0.27419 0.0
H534 H 0.0433 0.22044 0.27365 0.0
H535 H 0.07718 0.20934 0.32483 0.0
H536 H 0.95606 0.09539 0.34315 0.0
H537 H 0.95962 0.05291 0.35631 0.0
H538 H 0.95247 0.06403 0.31378 0.0
H539 H 1.01075 0.05441 0.30152 0.0
H540 H 1.01718 0.04084 0.34399 0.0
H541 H 0.05363 0.0758 0.32495 0.0
H542 H 0.08201 0.19203 0.38362 0.0
H543 H 0.07263 0.16587 0.43972 0.0
H544 H 1.00496 0.06422 0.40204 0.0
C545 C 1.00009 0.13032 0.2833 0.0
C546 C 1.00579 0.16562 0.27097 0.0
C547 C 0.03718 0.19331 0.28355 0.0
C548 C 0.05672 0.18722 0.31268 0.0
C549 C 0.04581 0.15296 0.32755 0.0
C550 C 1.01974 0.12442 0.31227 0.0
C551 C 1.00857 0.09145 0.33536 0.0
C552 C 0.96674 0.07509 0.33724 0.0
C553 C 1.02344 0.06401 0.32589 0.0
C554 C 0.02823 0.10723 0.36689 0.0
C555 C 0.05022 0.14248 0.36181 0.0
C556 C 0.06636 0.16403 0.38776 0.0
C557 C 0.06066 0.14899 0.41956 0.0
C558 C 0.03858 0.11286 0.42516 0.0
C559 C 1.02255 0.09174 0.39844 0.0
H560 H 0.8401 0.81366 0.38251 0.0
H561 H 0.8401 0.89871 0.31003 0.0
H562 H 0.87533 0.94296 0.34994 0.0
H563 H 0.83986 0.86112 0.45688 0.0
H564 H 0.87064 0.84227 0.48044 0.0
H565 H 0.83816 0.81761 0.44904 0.0
H566 H 0.89114 0.81127 0.42192 0.0
H567 H 0.92372 0.83607 0.45291 0.0
H568 H 0.92878 0.85064 0.41056 0.0
H569 H 0.91875 0.97761 0.39431 0.0
H570 H 0.96777 -0.00065 0.4387 0.0
H571 H 0.94127 0.89158 0.48136 0.0
C572 C 0.84623 0.84158 0.37552 0.0
C573 C 0.83714 0.85285 0.34338 0.0
C574 C 0.8467 0.8896 0.33467 0.0
C575 C 0.86655 0.9149 0.35721 0.0
C576 C 0.87661 0.90301 0.38836 0.0
C577 C 0.86656 0.86716 0.3976 0.0
C578 C 0.88507 0.86124 0.43074 0.0
C579 C 0.85674 0.84458 0.45576 0.0
C580 C 0.90857 0.83848 0.42889 0.0
C581 C 0.90854 0.89916 0.43789 0.0
C582 C 0.90258 0.92297 0.41362 0.0
C583 C 0.92314 0.95926 0.41378 0.0
C584 C 0.95096 0.9714 0.43909 0.0
C585 C 0.95837 0.94718 0.46347 0.0
C586 C 0.93622 0.91078 0.46313 0.0
H587 H 0.17396 0.8619 0.39427 0.0
H588 H 0.2822 0.94337 0.40447 0.0
H589 H 0.27018 0.95529 0.45853 0.0
H590 H 0.12859 0.90807 0.42497 0.0
H591 H 0.0967 0.86994 0.44537 0.0
H592 H 0.11649 0.86443 0.41042 0.0
H593 H 0.14008 0.81856 0.44454 0.0
H594 H 0.12076 0.82447 0.47984 0.0
H595 H 0.1687 0.83098 0.482 0.0
H596 H 0.24313 0.96386 0.50758 0.0
H597 H 0.20238 0.97136 0.54459 0.0
H598 H 0.1123 0.88327 0.5027 0.0
C599 C 0.19527 0.88208 0.40797 0.0
C600 C 0.22895 0.9018 0.39512 0.0
C601 C 0.25628 0.92773 0.41396 0.0
C602 C 0.24975 0.93457 0.44474 0.0
C603 C 0.21599 0.91489 0.45651 0.0
C604 C 0.18926 0.88909 0.43867 0.0
C605 C 0.15406 0.87406 0.45508 0.0
C606 C 0.12211 0.87949 0.43264 0.0
C607 C 0.14541 0.83468 0.46602 0.0
C608 C 0.16443 0.89678 0.48408 0.0
C609 C 0.20051 0.91961 0.48496 0.0
C610 C 0.21505 0.94565 0.50753 0.0
C611 C 0.19165 0.94962 0.52858 0.0
C612 C 0.15401 0.92794 0.52662 0.0
C613 C 0.14096 0.90004 0.5052 0.0
H614 H 0.06103 0.82113 0.74963 0.0
H615 H 0.11343 0.91555 0.80289 0.0
H616 H 0.07342 0.94343 0.77115 0.0
H617 H 0.06852 0.85037 0.68383 0.0
H618 H 1.02566 0.82859 0.66043 0.0
H619 H 0.03703 0.80769 0.69786 0.0
H620 H 0.97754 0.80431 0.72097 0.0
H621 H 0.96556 0.82347 0.68208 0.0
H622 H 0.96592 0.84356 0.71906 0.0
H623 H 0.05883 0.97039 0.72024 0.0
H624 H 0.06435 0.98937 0.6623 0.0
H625 H 1.01878 0.87984 0.63726 0.0
C626 C 0.06183 0.84654 0.7562 0.0
C627 C 0.09071 0.86661 0.77792 0.0
C628 C 0.09167 0.89993 0.78599 0.0
C629 C 0.06885 0.91594 0.76794 0.0
C630 C 0.04497 0.89804 0.7423 0.0
C631 C 0.03975 0.86304 0.73746 0.0
C632 C 1.02037 0.8528 0.70395 0.0
C633 C 0.03913 0.83389 0.68549 0.0
C634 C 0.97993 0.8297 0.70672 0.0
C635 C 1.02373 0.88913 0.68833 0.0
C636 C 0.03542 0.91444 0.71142 0.0
C637 C 0.04834 0.95071 0.70221 0.0
C638 C 0.05191 0.96133 0.66921 0.0
C639 C 0.0424 0.93582 0.6457 0.0
C640 C 1.02576 0.89958 0.65508 0.0
H641 H 0.18403 0.19228 0.73738 0.0
H642 H 0.2784 0.16116 0.73933 0.0
H643 H 0.24514 0.11761 0.69827 0.0
H644 H 0.11097 0.10412 0.71955 0.0
H645 H 0.08468 0.12542 0.69255 0.0
H646 H 0.11269 0.14768 0.72726 0.0
H647 H 0.14563 0.20182 0.68886 0.0
H648 H 0.11832 0.17961 0.65407 0.0
H649 H 0.16753 0.19537 0.65552 0.0
H650 H 0.20396 0.08281 0.6517 0.0
H651 H 0.15988 0.0625 0.60308 0.0
H652 H 0.09587 0.12046 0.63053 0.0
C653 C 0.19713 0.17523 0.73026 0.0
C654 C 0.23347 0.17965 0.74185 0.0
C655 C 0.25029 0.15783 0.73097 0.0
C656 C 0.23161 0.13298 0.70771 0.0
C657 C 0.19622 0.13036 0.69566 0.0
C658 C 0.17916 0.15088 0.70672 0.0
C659 C 0.14342 0.14712 0.68683 0.0
C660 C 0.11102 0.13006 0.7078 0.0
C661 C 0.14379 0.1831 0.67035 0.0
C662 C 0.14357 0.12225 0.6622 0.0
C663 C 0.17367 0.11207 0.66796 0.0
C664 C 0.18006 0.09029 0.64718 0.0
C665 C 0.15507 0.07895 0.61968 0.0
C666 C 0.12496 0.09036 0.61309 0.0
C667 C 0.11901 0.11173 0.6349 0.0
H668 H 0.89056 0.10937 0.69946 0.0
H669 H 0.9006 0.21722 0.66566 0.0
H670 H 0.9094 0.20563 0.61066 0.0
H671 H 0.95781 0.10367 0.65673 0.0
H672 H 0.93426 0.05798 0.64719 0.0
H673 H 0.92468 0.07376 0.68275 0.0
H674 H 0.85578 0.05226 0.662 0.0
H675 H 0.86547 0.03687 0.62608 0.0
H676 H 0.84182 0.06781 0.6221 0.0
H677 H 0.92631 0.18568 0.56218 0.0
H678 H 0.95108 0.15861 0.52436 0.0
H679 H 0.92458 0.06218 0.58709 0.0
C680 C 0.89374 0.13031 0.68034 0.0
C681 C 0.89522 0.16433 0.68709 0.0
C682 C 0.90015 0.19116 0.6614 0.0
C683 C 0.90462 0.18469 0.62988 0.0
C684 C 0.90342 0.15103 0.62416 0.0
C685 C 0.89786 0.12418 0.6486 0.0
C686 C 0.90066 0.09126 0.63665 0.0
C687 C 0.93117 0.08111 0.65702 0.0
C688 C 0.86373 0.06022 0.63671 0.0
C689 C 0.91039 0.1044 0.60215 0.0
C690 C 0.91135 0.13883 0.59528 0.0
C691 C 0.92445 0.15834 0.56673 0.0
C692 C 0.93824 0.14277 0.54528 0.0
C693 C 0.93822 0.10795 0.55231 0.0
C694 C 0.92299 0.08816 0.58047 0.0
H695 H 0.8709 0.87912 0.72735 0.0
H696 H 0.86598 0.77966 0.69294 0.0
H697 H 0.90044 0.8124 0.6468 0.0
H698 H 0.85806 0.92076 0.65057 0.0
H699 H 0.88983 0.96444 0.65987 0.0
H700 H 0.86729 0.93383 0.69201 0.0
H701 H 0.93018 0.9403 0.72334 0.0
H702 H 0.95305 0.97104 0.69134 0.0
H703 H 0.964 0.93185 0.70329 0.0
H704 H 0.93267 0.85491 0.60294 0.0
H705 H 0.96117 0.90531 0.564 0.0
H706 H 0.9457 0.9778 0.62566 0.0
C707 C 0.87766 0.86428 0.71047 0.0
C708 C 0.86572 0.82671 0.71399 0.0
C709 C 0.87482 0.80836 0.69102 0.0
C710 C 0.8944 0.82674 0.66462 0.0
C711 C 0.90528 0.86359 0.6616 0.0
C712 C 0.89751 0.88228 0.68395 0.0
C713 C 0.91132 0.92181 0.67416 0.0
C714 C 0.87974 0.93603 0.66884 0.0
C715 C 0.94143 0.94247 0.69954 0.0
C716 C 0.92692 0.92218 0.64231 0.0
C717 C 0.92355 0.88828 0.63584 0.0
C718 C 0.93557 0.88157 0.60779 0.0
C719 C 0.95158 0.91024 0.58581 0.0
C720 C 0.95532 0.94511 0.5919 0.0
C721 C 0.94281 0.95123 0.62045 0.0
H722 H 0.39018 0.23061 0.23112 0.0
H723 H 0.27492 0.17191 0.20735 0.0
H724 H 0.29097 0.13613 0.17105 0.0
H725 H 0.41801 0.23259 0.14889 0.0
H726 H 0.46106 0.22762 0.16294 0.0
H727 H 0.44083 0.2481 0.18785 0.0
H728 H 0.44334 0.20261 0.23557 0.0
H729 H 0.46354 0.18197 0.2108 0.0
H730 H 0.42219 0.15583 0.22943 0.0
H731 H 0.32094 0.10367 0.13531 0.0
H732 H 0.35906 0.08287 0.10509 0.0
H733 H 0.45636 0.16251 0.14813 0.0
C734 C 0.36805 0.21013 0.2185 0.0
C735 C 0.33048 0.20486 0.22341 0.0
C736 C 0.3036 0.17746 0.2052 0.0
C737 C 0.31269 0.15657 0.18409 0.0
C738 C 0.34946 0.16242 0.17993 0.0
C739 C 0.37681 0.1889 0.19665 0.0
C740 C 0.41428 0.19028 0.18717 0.0
C741 C 0.43478 0.22683 0.17075 0.0
C742 C 0.43721 0.18221 0.21754 0.0
C743 C 0.40402 0.16069 0.16271 0.0
C744 C 0.36631 0.14475 0.15912 0.0
C745 C 0.3504 0.11649 0.13827 0.0
C746 C 0.37268 0.1045 0.12087 0.0
C747 C 0.41168 0.12016 0.12314 0.0
C748 C 0.42699 0.14909 0.14494 0.0
H749 H 0.85301 0.35111 0.23526 0.0
H750 H 0.89368 0.27378 0.20536 0.0
H751 H 0.92061 0.31467 0.1597 0.0
H752 H 0.82932 0.38295 0.15581 0.0
H753 H 0.84451 0.42888 0.1651 0.0
H754 H 0.82919 0.3943 0.19676 0.0
H755 H 0.89082 0.4215 0.23162 0.0
H756 H 0.90617 0.45639 0.2002 0.0
H757 H 0.9331 0.42931 0.2143 0.0
H758 H 0.9385 0.36071 0.11458 0.0
H759 H 0.95392 0.41385 0.07629 0.0
H760 H 0.905 0.46361 0.13529 0.0
C761 C 0.86792 0.34295 0.21934 0.0
C762 C 0.8709 0.30897 0.224 0.0
C763 C 0.89073 0.29946 0.20248 0.0
C764 C 0.90614 0.3225 0.17629 0.0
C765 C 0.90192 0.35525 0.17191 0.0
C766 C 0.88389 0.36587 0.19304 0.0
C767 C 0.88368 0.40283 0.18256 0.0
C768 C 0.84433 0.40218 0.17459 0.0
C769 C 0.9047 0.42906 0.20873 0.0
C770 C 0.90393 0.41093 0.15207 0.0
C771 C 0.91389 0.38287 0.14636 0.0
C772 C 0.93155 0.38317 0.11912 0.0
C773 C 0.94045 0.41349 0.09767 0.0
C774 C 0.93184 0.44308 0.10364 0.0
C775 C 0.91262 0.44154 0.13076 0.0
H776 H 0.69008 0.80793 0.21026 0.0
H777 H 0.79497 0.89354 0.22319 0.0
H778 H 0.76728 0.93584 0.1958 0.0
H779 H 0.66438 0.8425 0.12759 0.0
H780 H 0.61635 0.82875 0.13288 0.0
H781 H 0.64334 0.80475 0.15486 0.0
H782 H 0.62357 0.81451 0.20906 0.0
H783 H 0.59663 0.83867 0.18723 0.0
H784 H 0.63117 0.859 0.2192 0.0
H785 H 0.7263 0.97219 0.16732 0.0
H786 H 0.68121 -0.00448 0.13722 0.0
H787 H 0.60088 0.88857 0.13504 0.0
C788 C 0.70746 0.83559 0.20755 0.0
C789 C 0.7459 0.84628 0.22018 0.0
C790 C 0.76619 0.8833 0.21466 0.0
C791 C 0.75029 0.90808 0.19884 0.0
C792 C 0.71303 0.89683 0.18695 0.0
C793 C 0.69189 0.86113 0.19059 0.0
C794 C 0.65281 0.85618 0.17377 0.0
C795 C 0.64366 0.83156 0.14561 0.0
C796 C 0.62434 0.84117 0.1988 0.0
C797 C 0.65504 0.89432 0.16052 0.0
C798 C 0.69019 0.9173 0.169 0.0
C799 C 0.69901 0.95385 0.16062 0.0
C800 C 0.67248 0.9672 0.14325 0.0
C801 C 0.63598 0.94509 0.13276 0.0
C802 C 0.62778 0.90742 0.14206 0.0
H803 H 0.21456 0.67941 0.21158 0.0
H804 H 0.23294 0.78242 0.16071 0.0
H805 H 0.19254 0.75328 0.11317 0.0
H806 H 0.20381 0.62687 0.13965 0.0
H807 H 0.16703 0.58951 0.15556 0.0
H808 H 0.20233 0.61762 0.18308 0.0
H809 H 0.15314 0.6288 0.21192 0.0
H810 H 0.11781 0.60062 0.18466 0.0
H811 H 0.12086 0.64559 0.1881 0.0
H812 H 0.14743 0.71412 0.07347 0.0
H813 H 0.09358 0.66918 0.04693 0.0
H814 H 0.09969 0.59075 0.12469 0.0
C815 C 0.21078 0.69562 0.18997 0.0
C816 C 0.2274 0.73306 0.18923 0.0
C817 C 0.22078 0.75371 0.16135 0.0
C818 C 0.1981 0.73734 0.13427 0.0
C819 C 0.18182 0.70034 0.13577 0.0
C820 C 0.1874 0.6797 0.16308 0.0
C821 C 0.16265 0.64103 0.16019 0.0
C822 C 0.18531 0.61736 0.15958 0.0
C823 C 0.1371 0.62828 0.18785 0.0
C824 C 0.14153 0.64328 0.12734 0.0
C825 C 0.1539 0.67765 0.11341 0.0
C826 C 0.13767 0.68713 0.08403 0.0
C827 C 0.10705 0.66137 0.06916 0.0
C828 C 0.09244 0.62649 0.08376 0.0
C829 C 0.11069 0.61698 0.11269 0.0
H830 H 0.36565 0.82065 0.88428 0.0
H831 H 0.29284 0.87697 0.84796 0.0
H832 H 0.3228 0.92122 0.8893 0.0
H833 H 0.3678 0.83476 0.97025 0.0
H834 H 0.41533 0.84008 0.97916 0.0
H835 H 0.38808 0.81298 0.94676 0.0
H836 H 0.43462 0.85043 0.90612 0.0
H837 H 0.46204 0.87754 0.93842 0.0
H838 H 0.44634 0.89791 0.90186 0.0
H839 H 0.36426 0.96241 0.93603 0.0
H840 H 0.41002 -0.00728 0.98058 0.0
H841 H 0.45379 0.90827 0.98751 0.0
C842 C 0.3558 0.8422 0.88491 0.0
C843 C 0.32637 0.84469 0.86217 0.0
C844 C 0.31497 0.87377 0.86461 0.0
C845 C 0.33202 0.89933 0.88826 0.0
C846 C 0.36083 0.89607 0.91017 0.0
C847 C 0.37244 0.86795 0.90867 0.0
C848 C 0.40388 0.87024 0.93496 0.0
C849 C 0.39312 0.83757 0.95922 0.0
C850 C 0.43878 0.87427 0.91941 0.0
C851 C 0.40841 0.90396 0.95136 0.0
C852 C 0.38346 0.91871 0.9368 0.0
C853 C 0.38358 0.9506 0.94756 0.0
C854 C 0.40976 0.96777 0.97323 0.0
C855 C 0.4359 0.9533 0.98863 0.0
C856 C 0.43437 0.92051 0.97719 0.0
H857 H 0.15167 0.32875 0.94699 0.0
H858 H 0.24077 0.41412 0.90394 0.0
H859 H 0.22828 0.4574 0.93403 0.0
H860 H 0.09093 0.3752 0.94006 0.0
H861 H 0.07135 0.35577 0.97777 0.0
H862 H 0.08999 0.33166 0.95539 0.0
H863 H 0.13268 0.32551 1.00662 0.0
H864 H 0.11428 0.34986 0.02911 0.0
H865 H 0.16291 0.3648 0.02615 0.0
H866 H 0.20293 0.49207 0.96707 0.0
H867 H 0.16543 0.51413 0.99696 0.0
H868 H 0.0925 0.40562 0.01605 0.0
C869 C 0.16862 0.35652 0.94374 0.0
C870 C 0.19727 0.36783 0.92299 0.0
C871 C 0.219 0.40452 0.92001 0.0
C872 C 0.21203 0.4294 0.93695 0.0
C873 C 0.18327 0.41726 0.9569 0.0
C874 C 0.16193 0.38161 0.96024 0.0
C875 C 0.13133 0.37534 0.98154 0.0
C876 C 0.09369 0.35852 0.96255 0.0
C877 C 0.13557 0.35253 0.0127 0.0
C878 C 0.13819 0.41306 0.98914 0.0
C879 C 0.16854 0.43697 0.97518 0.0
C880 C 0.17927 0.47349 0.97826 0.0
C881 C 0.15793 0.4858 0.9954 0.0
C882 C 0.126 0.46166 1.00882 0.0
C883 C 0.11669 0.42484 1.00606 0.0
H884 H 0.74418 0.17455 0.87008 0.0
H885 H 0.68838 0.24629 0.83089 0.0
H886 H 0.64014 0.2171 0.86821 0.0
H887 H 0.66278 0.09598 0.88316 0.0
H888 H 0.68228 0.08143 0.92104 0.0
H889 H 0.71159 0.10694 0.89022 0.0
H890 H 0.74903 0.15318 0.932 0.0
H891 H 0.71983 0.12769 0.96287 0.0
H892 H 0.72582 0.17378 0.9536 0.0
H893 H 0.59598 0.17845 0.91136 0.0
H894 H 0.56506 0.13816 0.95707 0.0
H895 H 0.6507 0.09358 0.96932 0.0
C896 C 0.7217 0.184 0.8691 0.0
C897 C 0.72045 0.2129 0.84694 0.0
C898 C 0.69045 0.22437 0.84726 0.0
C899 C 0.66262 0.20778 0.86849 0.0
C900 C 0.66469 0.17954 0.88998 0.0
C901 C 0.69373 0.16794 0.89057 0.0
C902 C 0.69037 0.13805 0.91694 0.0
C903 C 0.68652 0.10356 0.90194 0.0
C904 C 0.72321 0.14883 0.94289 0.0
C905 C 0.65509 0.13461 0.93098 0.0
C906 C 0.64032 0.15848 0.91502 0.0
C907 C 0.60757 0.15976 0.92396 0.0
C908 C 0.58992 0.13657 0.94997 0.0
C909 C 0.60508 0.11246 0.96731 0.0
C910 C 0.63808 0.11165 0.95706 0.0
H911 H 0.88072 0.74683 0.86168 0.0
H912 H 0.82731 0.66856 0.78988 0.0
H913 H 0.8539 0.6274 0.82068 0.0
H914 H 0.96541 0.72495 0.87905 0.0
H915 H 0.96896 0.73146 0.92192 0.0
H916 H 0.94866 0.75651 0.89265 0.0
H917 H 0.89003 0.73383 0.92324 0.0
H918 H 0.91008 0.70868 0.95249 0.0
H919 H 0.86652 0.6867 0.93033 0.0
H920 H 0.87998 0.59158 0.86227 0.0
H921 H 0.90648 0.56528 0.91074 0.0
H922 H 0.94575 0.6667 0.95478 0.0
C923 C 0.87536 0.72139 0.85205 0.0
C924 C 0.85179 0.71112 0.82325 0.0
C925 C 0.84505 0.67721 0.81189 0.0
C926 C 0.86015 0.65353 0.82919 0.0
C927 C 0.8824 0.66399 0.85786 0.0
C928 C 0.89039 0.69724 0.8691 0.0
C929 C 0.91362 0.70094 0.90157 0.0
C930 C 0.95141 0.73021 0.89861 0.0
C931 C 0.89388 0.70794 0.92849 0.0
C932 C 0.91663 0.6644 0.90705 0.0
C933 C 0.89846 0.64352 0.88149 0.0
C934 C 0.89495 0.60791 0.88215 0.0
C935 C 0.91007 0.59314 0.90979 0.0
C936 C 0.92883 0.61398 0.93633 0.0
C937 C 0.93252 0.65026 0.93454 0.0
H938 H 0.15445 0.3686 0.21919 0.0
H939 H 0.04832 0.29069 0.23787 0.0
H940 H 1.01983 0.33575 0.22053 0.0
H941 H 0.13691 0.45204 0.23645 0.0
H942 H 0.16206 0.47646 0.20271 0.0
H943 H 0.17523 0.44234 0.22611 0.0
H944 H 0.16965 0.41097 0.17318 0.0
H945 H 0.15663 0.44482 0.1498 0.0
H946 H 0.12719 0.39889 0.14741 0.0
H947 H 1.00193 0.3847 0.19158 0.0
H948 H 0.99528 0.42919 0.14844 0.0
H949 H 0.11257 0.47357 0.14473 0.0
C950 C 0.12548 0.36178 0.22111 0.0
C951 C 0.10352 0.32684 0.23065 0.0
C952 C 0.06548 0.31776 0.23139 0.0
C953 C 0.04925 0.34323 0.22172 0.0
C954 C 0.07153 0.3774 0.21126 0.0
C955 C 0.10894 0.38666 0.2109 0.0
C956 C 0.12585 0.42226 0.19262 0.0
C957 C 0.15153 0.44991 0.21587 0.0
C958 C 0.14596 0.419 0.16407 0.0
C959 C 0.09187 0.43056 0.18071 0.0
C960 C 0.061 0.40511 0.19283 0.0
C961 C 1.02599 0.40495 0.18238 0.0
C962 C 1.02234 0.43004 0.15764 0.0
C963 C 0.05329 0.45425 0.14303 0.0
C964 C 0.08854 0.4558 0.156 0.0
H965 H 0.22459 0.70523 0.88625 0.0
H966 H 0.14431 0.72276 0.81186 0.0
H967 H 0.095 0.68945 0.84736 0.0
H968 H 0.17232 0.61772 0.91068 0.0
H969 H 0.18865 0.62249 0.95316 0.0
H970 H 0.21705 0.64932 0.92237 0.0
H971 H 0.22248 0.70636 0.94926 0.0
H972 H 0.19395 0.67965 0.98012 0.0
H973 H 0.18151 0.71369 0.95586 0.0
H974 H 0.054 0.65055 0.89104 0.0
H975 H 1.02644 0.61031 0.93794 0.0
H976 H 0.13553 0.62157 0.98209 0.0
C977 C 0.19671 0.70231 0.87737 0.0
C978 C 0.1883 0.71648 0.84629 0.0
C979 C 0.1514 0.71209 0.83568 0.0
C980 C 0.12322 0.69328 0.85567 0.0
C981 C 0.13254 0.67942 0.8862 0.0
C982 C 0.16851 0.68397 0.89694 0.0
C983 C 0.17169 0.66585 0.93015 0.0
C984 C 0.18839 0.63715 0.929 0.0
C985 C 0.1937 0.69302 0.95532 0.0
C986 C 0.13184 0.64974 0.93628 0.0
C987 C 0.10944 0.65781 0.91093 0.0
C988 C 0.07136 0.6443 0.91114 0.0
C989 C 0.05594 0.62153 0.93782 0.0
C990 C 0.07876 0.6126 0.9636 0.0
C991 C 0.11711 0.62759 0.96281 0.0
H992 H 0.31083 0.17852 0.87053 0.0
H993 H 0.40561 0.26633 0.83882 0.0
H994 H 0.44594 0.24361 0.87686 0.0
H995 H 0.34577 0.17399 0.95625 0.0
H996 H 0.32742 0.12619 0.96116 0.0
H997 H 0.30507 0.14922 0.93167 0.0
H998 H 0.31018 0.11235 0.88637 0.0
H999 H 0.33271 0.08933 0.91571 0.0
H1000 H 0.3544 0.11204 0.87974 0.0
H1001 H 0.47732 0.21255 0.91909 0.0
H1002 H 0.49709 0.17533 0.96247 0.0
H1003 H 0.38427 0.10459 0.96763 0.0
C1004 C 0.34006 0.193 0.87164 0.0
C1005 C 0.35463 0.2245 0.85108 0.0
C1006 C 0.39326 0.24219 0.85365 0.0
C1007 C 0.41666 0.22944 0.87542 0.0
C1008 C 0.40165 0.19839 0.89487 0.0
C1009 C 0.36425 0.18023 0.89326 0.0
C1010 C 0.3558 0.14722 0.91705 0.0
C1011 C 0.3321 0.14928 0.94308 0.0
C1012 C 0.33716 0.11321 0.89861 0.0
C1013 C 0.39414 0.14987 0.93219 0.0
C1014 C 0.42005 0.17981 0.91895 0.0
C1015 C 0.4572 0.18893 0.92942 0.0
C1016 C 0.46826 0.16744 0.9542 0.0
C1017 C 0.44264 0.13647 0.96856 0.0
C1018 C 0.40489 0.12752 0.95692 0.0
H1019 H 0.8557 0.37772 0.83682 0.0
H1020 H 0.82043 0.27893 0.8965 0.0
H1021 H 0.83156 0.3126 0.94546 0.0
H1022 H 0.92931 0.42133 0.88692 0.0
H1023 H 0.92549 0.46452 0.8802 0.0
H1024 H 0.90646 0.43292 0.84952 0.0
H1025 H 0.84291 0.4384 0.85086 0.0
H1026 H 0.86226 0.47005 0.88184 0.0
H1027 H 0.82287 0.43071 0.88906 0.0
H1028 H 0.85463 0.35513 0.98794 0.0
H1029 H 0.89787 0.40218 0.02142 0.0
H1030 H 0.92069 0.47449 0.93565 0.0
C1031 C 0.84971 0.36325 0.86017 0.0
C1032 C 0.83736 0.32577 0.86298 0.0
C1033 C 0.83024 0.30767 0.89388 0.0
C1034 C 0.83586 0.32657 0.92173 0.0
C1035 C 0.84847 0.36356 0.91827 0.0
C1036 C 0.85564 0.38178 0.8883 0.0
C1037 C 0.87454 0.42136 0.89192 0.0
C1038 C 0.91111 0.43585 0.87625 0.0
C1039 C 0.84914 0.44132 0.87755 0.0
C1040 C 0.8801 0.42214 0.92878 0.0
C1041 C 0.863 0.38869 0.94338 0.0
C1042 C 0.86745 0.38155 0.97691 0.0
C1043 C 0.89197 0.40845 0.99577 0.0
C1044 C 0.91208 0.44186 0.98099 0.0
C1045 C 0.9046 0.44948 0.94747 0.0
H1046 H 0.70396 0.8685 0.92296 0.0
H1047 H 0.79518 0.96638 0.90444 0.0
H1048 H 0.76576 -0.00053 0.93059 0.0
H1049 H 0.63289 0.90727 0.90785 0.0
H1050 H 0.60648 0.87983 0.93974 0.0
H1051 H 0.63429 0.8636 0.91899 0.0
H1052 H 0.66773 0.85208 0.97436 0.0
H1053 H 0.64004 0.86824 0.99526 0.0
H1054 H 0.68924 0.88789 1.00108 0.0
H1055 H 0.72787 0.02192 0.96008 0.0
H1056 H 0.68379 0.03236 0.99127 0.0
H1057 H 0.61558 0.92059 0.98972 0.0
C1058 C 0.71757 0.89695 0.92407 0.0
C1059 C 0.75213 0.91472 0.91178 0.0
C1060 C 0.76911 0.95196 0.91415 0.0
C1061 C 0.75245 0.97109 0.92874 0.0
C1062 C 0.71862 0.95275 0.94076 0.0
C1063 C 0.70125 0.91655 0.93855 0.0
C1064 C 0.66525 0.90331 0.95406 0.0
C1065 C 0.63281 0.88758 0.92864 0.0
C1066 C 0.66561 0.87629 0.9829 0.0
C1067 C 0.66532 0.9377 0.96556 0.0
C1068 C 0.69639 0.96586 0.95754 0.0
C1069 C 0.70336 0.00011 0.96638 0.0
C1070 C 0.67817 0.00574 0.9842 0.0
C1071 C 0.64617 0.97732 0.99297 0.0
C1072 C 0.63955 0.94292 0.98312 0.0
H1073 H 0.88114 0.72865 0.14104 0.0
H1074 H 0.92741 0.68318 0.22685 0.0
H1075 H 0.90312 0.62529 0.20285 0.0
H1076 H 0.80224 0.64512 0.11675 0.0
H1077 H 0.80943 0.65628 0.07423 0.0
H1078 H 0.81883 0.69098 0.10169 0.0
H1079 H 0.88536 0.72028 0.08527 0.0
H1080 H 0.87558 0.68663 0.05712 0.0
H1081 H 0.91372 0.69374 0.08784 0.0
H1082 H 0.88339 0.57553 0.16753 0.0
H1083 H 0.88871 0.54585 0.12054 0.0
H1084 H 0.86415 0.62564 0.05488 0.0
C1085 C 0.88635 0.7067 0.15502 0.0
C1086 C 0.90619 0.7109 0.18612 0.0
C1087 C 0.91157 0.6809 0.2034 0.0
C1088 C 0.89755 0.64764 0.19003 0.0
C1089 C 0.87845 0.64465 0.15918 0.0
C1090 C 0.87365 0.67369 0.14159 0.0
C1091 C 0.85994 0.66587 0.10644 0.0
C1092 C 0.82025 0.66447 0.09938 0.0
C1093 C 0.88519 0.69321 0.08282 0.0
C1094 C 0.86178 0.62925 0.10613 0.0
C1095 C 0.86958 0.61638 0.13737 0.0
C1096 C 0.87661 0.58493 0.14308 0.0
C1097 C 0.87925 0.56801 0.11623 0.0
C1098 C 0.87636 0.5835 0.08439 0.0
C1099 C 0.86516 0.61295 0.07911 0.0
H1100 H 0.35047 0.88235 0.23682 0.0
H1101 H 0.40454 0.80677 0.2366 0.0
H1102 H 0.45539 0.85303 0.20945 0.0
H1103 H 0.36192 0.91528 0.16192 0.0
H1104 H 0.36962 0.96082 0.16855 0.0
H1105 H 0.34406 0.92594 0.19592 0.0
H1106 H 0.38883 0.95527 0.24488 0.0
H1107 H 0.41456 0.99069 0.21753 0.0
H1108 H 0.43725 0.96558 0.24411 0.0
H1109 H 0.49162 0.90238 0.17197 0.0
H1110 H 0.50928 0.94922 0.12746 0.0
H1111 H 0.43031 0.99148 0.15255 0.0
C1112 C 0.3736 0.8759 0.23187 0.0
C1113 C 0.37383 0.8413 0.23824 0.0
C1114 C 0.40427 0.83343 0.23178 0.0
C1115 C 0.43322 0.85955 0.21661 0.0
C1116 C 0.43133 0.89325 0.2091 0.0
C1117 C 0.40245 0.90155 0.21708 0.0
C1118 C 0.40341 0.93736 0.20225 0.0
C1119 C 0.36767 0.93463 0.18089 0.0
C1120 C 0.41152 0.96379 0.22878 0.0
C1121 C 0.43535 0.94661 0.18214 0.0
C1122 C 0.45207 0.92163 0.18725 0.0
C1123 C 0.47945 0.92259 0.16841 0.0
C1124 C 0.48917 0.94913 0.14315 0.0
C1125 C 0.4708 0.97356 0.1367 0.0
C1126 C 0.44465 0.973 0.15713 0.0
H1127 H 0.74976 0.15419 0.20725 0.0
H1128 H 0.75287 0.26253 0.18991 0.0
H1129 H 0.72126 0.24842 0.13508 0.0
H1130 H 0.75136 0.13681 0.11702 0.0
H1131 H 0.71999 0.09197 0.12394 0.0
H1132 H 0.75391 0.11322 0.15603 0.0
H1133 H 0.70283 0.1003 0.19464 0.0
H1134 H 0.66931 0.07891 0.16298 0.0
H1135 H 0.66519 0.11526 0.18189 0.0
H1136 H 0.67812 0.22052 0.09028 0.0
H1137 H 0.62014 0.1808 0.06473 0.0
H1138 H 0.64276 0.08942 0.11119 0.0
C1139 C 0.74479 0.17529 0.19154 0.0
C1140 C 0.75343 0.20934 0.20273 0.0
C1141 C 0.74613 0.23613 0.18178 0.0
C1142 C 0.72886 0.22851 0.1504 0.0
C1143 C 0.71955 0.19416 0.14044 0.0
C1144 C 0.72732 0.16793 0.1605 0.0
C1145 C 0.70769 0.13158 0.14757 0.0
C1146 C 0.73487 0.11759 0.13541 0.0
C1147 C 0.68489 0.10504 0.17327 0.0
C1148 C 0.68397 0.14081 0.11941 0.0
C1149 C 0.69299 0.17728 0.11441 0.0
C1150 C 0.67133 0.19207 0.09342 0.0
C1151 C 0.63822 0.16925 0.07927 0.0
C1152 C 0.62692 0.13216 0.08678 0.0
C1153 C 0.65116 0.11769 0.105 0.0
H1154 H 0.74665 0.71417 0.87758 0.0
H1155 H 0.66083 0.69032 0.79789 0.0
H1156 H 0.61649 0.65215 0.83636 0.0
H1157 H 0.71937 0.62769 0.91532 0.0
H1158 H 0.73231 0.64266 0.95606 0.0
H1159 H 0.7556 0.66973 0.92253 0.0
H1160 H 0.73959 0.72232 0.93805 0.0
H1161 H 0.71594 0.69526 0.9715 0.0
H1162 H 0.69246 0.71635 0.94111 0.0
H1163 H 0.582 0.61507 0.88493 0.0
H1164 H 0.56297 0.57896 0.93624 0.0
H1165 H 0.67311 0.62741 0.98195 0.0
C1166 C 0.71843 0.70137 0.86813 0.0
C1167 C 0.7071 0.70554 0.83476 0.0
C1168 C 0.67009 0.68756 0.82339 0.0
C1169 C 0.64472 0.66601 0.84511 0.0
C1170 C 0.65694 0.6626 0.87798 0.0
C1171 C 0.69312 0.67964 0.88922 0.0
C1172 C 0.70044 0.67006 0.92494 0.0
C1173 C 0.72857 0.65142 0.92999 0.0
C1174 C 0.71283 0.70296 0.94508 0.0
C1175 C 0.66277 0.64475 0.93226 0.0
C1176 C 0.63777 0.64096 0.90514 0.0
C1177 C 0.60141 0.61801 0.90627 0.0
C1178 C 0.59076 0.59776 0.93556 0.0
C1179 C 0.61657 0.60033 0.96306 0.0
C1180 C 0.65271 0.62479 0.96137 0.0
H1181 H 0.3113 0.53524 0.85512 0.0
H1182 H 0.27757 0.60109 0.91065 0.0
H1183 H 0.32639 0.60269 0.95316 0.0
H1184 H 0.35011 0.49077 0.93431 0.0
H1185 H 0.38564 0.48926 0.91175 0.0
H1186 H 0.34058 0.48207 0.89168 0.0
H1187 H 0.36935 0.53192 0.84843 0.0
H1188 H 0.41442 0.54129 0.86887 0.0
H1189 H 0.39577 0.57612 0.86095 0.0
H1190 H 0.39088 0.61881 0.9754 0.0
H1191 H 0.45316 0.62168 0.99558 0.0
H1192 H 0.44535 0.54306 0.9286 0.0
C1193 C 0.31247 0.54762 0.8774 0.0
C1194 C 0.29246 0.57008 0.87847 0.0
C1195 C 0.29358 0.58487 0.90838 0.0
C1196 C 0.32182 0.58651 0.93269 0.0
C1197 C 0.34642 0.57076 0.92756 0.0
C1198 C 0.34056 0.54924 0.90203 0.0
C1199 C 0.37279 0.53757 0.90105 0.0
C1200 C 0.36162 0.49755 0.91025 0.0
C1201 C 0.38899 0.54734 0.86785 0.0
C1202 C 0.399 0.55923 0.92743 0.0
C1203 C 0.38321 0.57823 0.9423 0.0
C1204 C 0.40309 0.60282 0.96508 0.0
C1205 C 0.43892 0.60518 0.97558 0.0
C1206 C 0.4539 0.58244 0.96375 0.0
C1207 C 0.43452 0.56082 0.93794 0.0
H1208 H 0.38426 0.31786 0.85854 0.0
H1209 H 0.35856 0.40547 0.80722 0.0
H1210 H 0.39716 0.44536 0.85004 0.0
H1211 H 0.37824 0.33807 0.93654 0.0
H1212 H 0.4151 0.32477 0.95587 0.0
H1213 H 0.38934 0.30447 0.91955 0.0
H1214 H 0.44855 0.32257 0.89044 0.0
H1215 H 0.47482 0.34198 0.92694 0.0
H1216 H 0.47904 0.36833 0.88881 0.0
H1217 H 0.43538 0.47378 0.90098 0.0
H1218 H 0.4733 0.49006 0.95295 0.0
H1219 H 0.47281 0.38255 0.97037 0.0
C1220 C 0.38788 0.34579 0.85578 0.0
C1221 C 0.36944 0.3591 0.82944 0.0
C1222 C 0.37351 0.39531 0.82689 0.0
C1223 C 0.39497 0.41788 0.85124 0.0
C1224 C 0.41188 0.40351 0.87765 0.0
C1225 C 0.40895 0.36837 0.87971 0.0
C1226 C 0.42822 0.35871 0.91102 0.0
C1227 C 0.40109 0.3298 0.93197 0.0
C1228 C 0.45953 0.34724 0.90386 0.0
C1229 C 0.44254 0.39393 0.92655 0.0
C1230 C 0.43268 0.4194 0.9071 0.0
C1231 C 0.4428 0.45394 0.91655 0.0
C1232 C 0.46413 0.46284 0.94628 0.0
C1233 C 0.47569 0.43744 0.96594 0.0
C1234 C 0.46418 0.40244 0.95604 0.0
H1235 H 0.71241 0.37265 0.88699 0.0
H1236 H 0.77508 0.47464 0.84161 0.0
H1237 H 0.76793 0.5046 0.88836 0.0
H1238 H 0.64744 0.39874 0.91375 0.0
H1239 H 0.64258 0.37105 0.95112 0.0
H1240 H 0.65719 0.3584 0.91646 0.0
H1241 H 0.7153 0.35546 0.95153 0.0
H1242 H 0.70101 0.36855 0.98633 0.0
H1243 H 0.7454 0.39377 0.97249 0.0
H1244 H 0.74919 0.52299 0.93822 0.0
H1245 H 0.71508 0.52869 0.98234 0.0
H1246 H 0.66487 0.41399 0.99381 0.0
C1247 C 0.72535 0.40126 0.88721 0.0
C1248 C 0.74458 0.42141 0.86098 0.0
C1249 C 0.76015 0.45883 0.86156 0.0
C1250 C 0.7566 0.47594 0.88814 0.0
C1251 C 0.73745 0.45512 0.91374 0.0
C1252 C 0.72194 0.41857 0.91327 0.0
C1253 C 0.69951 0.40222 0.94177 0.0
C1254 C 0.65932 0.38141 0.93006 0.0
C1255 C 0.71633 0.37861 0.96437 0.0
C1256 C 0.70349 0.43536 0.95782 0.0
C1257 C 0.7262 0.46562 0.94189 0.0
C1258 C 0.73179 0.49947 0.95113 0.0
C1259 C 0.71245 0.50244 0.97634 0.0
C1260 C 0.6874 0.47173 0.99146 0.0
C1261 C 0.68404 0.43788 0.98282 0.0
H1262 H 0.71916 0.42642 0.26338 0.0
H1263 H 0.62982 0.32673 0.27914 0.0
H1264 H 0.58932 0.34743 0.23907 0.0
H1265 H 0.65752 0.48371 0.24194 0.0
H1266 H 0.68803 0.51007 0.21234 0.0
H1267 H 0.70594 0.49235 0.24931 0.0
H1268 H 0.73635 0.46301 0.21478 0.0
H1269 H 0.71801 0.47991 0.17787 0.0
H1270 H 0.70831 0.43283 0.18473 0.0
H1271 H 0.56545 0.37017 0.18745 0.0
H1272 H 0.558 0.39614 0.13181 0.0
H1273 H 0.66152 0.48265 0.14995 0.0
C1274 C 0.69058 0.40978 0.2594 0.0
C1275 C 0.67746 0.37521 0.27426 0.0
C1276 C 0.64016 0.35362 0.26834 0.0
C1277 C 0.61697 0.36515 0.24558 0.0
C1278 C 0.63137 0.39856 0.22958 0.0
C1279 C 0.6671 0.42104 0.23688 0.0
C1280 C 0.67753 0.45326 0.21313 0.0
C1281 C 0.68253 0.48683 0.23021 0.0
C1282 C 0.71205 0.45743 0.19666 0.0
C1283 C 0.64366 0.44342 0.1893 0.0
C1284 C 0.61691 0.41231 0.1997 0.0
C1285 C 0.58556 0.3952 0.17955 0.0
C1286 C 0.58173 0.40996 0.14786 0.0
C1287 C 0.60911 0.44148 0.13667 0.0
C1288 C 0.63984 0.45885 0.15805 0.0
H1289 H 0.74217 0.65885 0.2272 0.0
H1290 H 0.79583 0.75112 0.16433 0.0
H1291 H 0.76317 0.71849 0.11606 0.0
H1292 H 0.73901 0.59146 0.16603 0.0
H1293 H 0.69504 0.56129 0.17714 0.0
H1294 H 0.72791 0.58747 0.20758 0.0
H1295 H 0.68185 0.61377 0.22225 0.0
H1296 H 0.64789 0.58692 0.19341 0.0
H1297 H 0.65938 0.63439 0.19042 0.0
H1298 H 0.71248 0.68329 0.07743 0.0
H1299 H 0.65391 0.64407 0.05054 0.0
H1300 H 0.63726 0.5718 0.13654 0.0
C1301 C 0.74801 0.67162 0.20319 0.0
C1302 C 0.77118 0.70749 0.19943 0.0
C1303 C 0.77824 0.72355 0.16774 0.0
C1304 C 0.75984 0.70522 0.14014 0.0
C1305 C 0.73552 0.67045 0.14466 0.0
C1306 C 0.7306 0.65331 0.17536 0.0
C1307 C 0.7006 0.61705 0.17377 0.0
C1308 C 0.71663 0.58758 0.18164 0.0
C1309 C 0.67068 0.61284 0.19627 0.0
C1310 C 0.68667 0.61822 0.13815 0.0
C1311 C 0.70764 0.64893 0.12155 0.0
C1312 C 0.69674 0.65848 0.08973 0.0
C1313 C 0.66343 0.63632 0.07474 0.0
C1314 C 0.64189 0.60492 0.09149 0.0
C1315 C 0.65411 0.59525 0.1231 0.0
H1316 H 0.30717 0.59228 0.16888 0.0
H1317 H 0.36133 0.5659 0.26021 0.0
H1318 H 0.39082 0.53618 0.23063 0.0
H1319 H 0.301 0.51238 0.12406 0.0
H1320 H 0.31143 0.53947 0.08666 0.0
H1321 H 0.28622 0.54972 0.11524 0.0
H1322 H 0.33415 0.61364 0.11674 0.0
H1323 H 0.35973 0.60355 0.08864 0.0
H1324 H 0.38174 0.62004 0.12754 0.0
H1325 H 0.42537 0.52244 0.19213 0.0
H1326 H 0.46009 0.52228 0.14637 0.0
H1327 H 0.38626 0.55839 0.07897 0.0
C1328 C 0.32446 0.57945 0.18279 0.0
C1329 C 0.33162 0.58147 0.21704 0.0
C1330 C 0.35444 0.56417 0.23418 0.0
C1331 C 0.37162 0.54729 0.2175 0.0
C1332 C 0.3657 0.54772 0.18367 0.0
C1333 C 0.3423 0.56293 0.16642 0.0
C1334 C 0.34481 0.56428 0.12999 0.0
C1335 C 0.30871 0.54 0.11299 0.0
C1336 C 0.35577 0.60265 0.11487 0.0
C1337 C 0.37503 0.54967 0.12965 0.0
C1338 C 0.38604 0.53955 0.16091 0.0
C1339 C 0.41623 0.5291 0.16747 0.0
C1340 C 0.43582 0.52919 0.14149 0.0
C1341 C 0.42509 0.53953 0.1095 0.0
C1342 C 0.39411 0.54943 0.10328 0.0
H1343 H 0.3891 0.38588 0.23858 0.0
H1344 H 0.34595 0.28427 0.19464 0.0
H1345 H 0.39639 0.30422 0.15939 0.0
H1346 H 0.4106 0.43726 0.16511 0.0
H1347 H 0.45137 0.47009 0.18308 0.0
H1348 H 0.41494 0.44508 0.20779 0.0
H1349 H 0.46262 0.42664 0.24714 0.0
H1350 H 0.49818 0.4505 0.2208 0.0
H1351 H 0.48836 0.40396 0.23168 0.0
H1352 H 0.44684 0.33613 0.12496 0.0
H1353 H 0.48621 0.38112 0.08733 0.0
H1354 H 0.49623 0.46348 0.15039 0.0
C1355 C 0.39062 0.36784 0.22173 0.0
C1356 C 0.3636 0.33351 0.21949 0.0
C1357 C 0.36615 0.31077 0.1968 0.0
C1358 C 0.39506 0.32169 0.1769 0.0
C1359 C 0.42123 0.35566 0.17956 0.0
C1360 C 0.41899 0.37869 0.20096 0.0
C1361 C 0.44781 0.41532 0.19568 0.0
C1362 C 0.43006 0.44356 0.18738 0.0
C1363 C 0.4759 0.42464 0.22562 0.0
C1364 C 0.46504 0.40974 0.16678 0.0
C1365 C 0.4503 0.37468 0.15882 0.0
C1366 C 0.45922 0.3635 0.13131 0.0
C1367 C 0.48194 0.38912 0.11022 0.0
C1368 C 0.49524 0.42541 0.11668 0.0
C1369 C 0.48787 0.43563 0.1459 0.0
H1370 H 0.88133 0.66986 0.63649 0.0
H1371 H 0.78478 0.57407 0.64328 0.0
H1372 H 0.81443 0.54189 0.61617 0.0
H1373 H 0.90167 0.6575 0.55794 0.0
H1374 H 0.95062 0.6742 0.56731 0.0
H1375 H 0.92243 0.68976 0.58819 0.0
H1376 H 0.94993 0.67085 0.6438 0.0
H1377 H 0.97827 0.65525 0.62308 0.0
H1378 H 0.94811 0.6257 0.65157 0.0
H1379 H 0.85321 0.52034 0.58685 0.0
H1380 H 0.89892 0.51057 0.55733 0.0
H1381 H 0.97166 0.61961 0.57011 0.0
C1382 C 0.86659 0.64201 0.63264 0.0
C1383 C 0.8305 0.62462 0.6419 0.0
C1384 C 0.81211 0.58822 0.63598 0.0
C1385 C 0.82884 0.56959 0.62078 0.0
C1386 C 0.86416 0.58757 0.61169 0.0
C1387 C 0.88294 0.62292 0.61745 0.0
C1388 C 0.92042 0.63599 0.60454 0.0
C1389 C 0.92397 0.66614 0.57791 0.0
C1390 C 0.95099 0.64763 0.63241 0.0
C1391 C 0.91958 0.60253 0.59043 0.0
C1392 C 0.88683 0.57496 0.59492 0.0
C1393 C 0.87902 0.54169 0.58331 0.0
C1394 C 0.90521 0.53645 0.56646 0.0
C1395 C 0.93902 0.56426 0.56134 0.0
C1396 C 0.94628 0.59769 0.57382 0.0
H1397 H 0.32335 0.84283 0.69186 0.0
H1398 H 0.40117 0.82003 0.76578 0.0
H1399 H 0.45109 0.85113 0.73032 0.0
H1400 H 0.36249 0.82905 0.62353 0.0
H1401 H 0.35284 0.86399 0.5982 0.0
H1402 H 0.3238 0.84047 0.62979 0.0
H1403 H 0.33478 0.90006 0.65485 0.0
H1404 H 0.36364 0.92376 0.62322 0.0
H1405 H 0.38099 0.92942 0.66541 0.0
H1406 H 0.49238 0.88568 0.68629 0.0
H1407 H 0.52107 0.92071 0.63771 0.0
H1408 H 0.41417 0.91771 0.59384 0.0
C1409 C 0.3509 0.8446 0.7008 0.0
C1410 C 0.35854 0.82932 0.73153 0.0
C1411 C 0.39485 0.83168 0.74218 0.0
C1412 C 0.42331 0.84922 0.72227 0.0
C1413 C 0.4147 0.8638 0.69189 0.0
C1414 C 0.37933 0.86153 0.68127 0.0
C1415 C 0.37684 0.8788 0.64759 0.0
C1416 C 0.35257 0.85144 0.62336 0.0
C1417 C 0.36328 0.90986 0.64781 0.0
C1418 C 0.41646 0.89167 0.64102 0.0
C1419 C 0.43803 0.88281 0.66667 0.0
C1420 C 0.47573 0.89267 0.66598 0.0
C1421 C 0.49174 0.91246 0.63833 0.0
C1422 C 0.46985 0.92191 0.61202 0.0
C1423 C 0.43177 0.91098 0.61348 0.0
H1424 H 0.23053 0.30171 0.67755 0.0
H1425 H 0.24617 0.36866 0.7574 0.0
H1426 H 0.21567 0.40462 0.72245 0.0
H1427 H 0.24339 0.37036 0.61171 0.0
H1428 H 0.20784 0.34316 0.58382 0.0
H1429 H 0.23154 0.32285 0.61472 0.0
H1430 H 0.16978 0.2825 0.6359 0.0
H1431 H 0.14589 0.30273 0.60508 0.0
H1432 H 0.13929 0.30233 0.64745 0.0
H1433 H 0.18602 0.4363 0.67729 0.0
H1434 H 0.15629 0.45775 0.62785 0.0
H1435 H 0.15367 0.36839 0.5772 0.0
C1436 C 0.22764 0.324 0.6877 0.0
C1437 C 0.24139 0.33219 0.72066 0.0
C1438 C 0.23624 0.36147 0.7326 0.0
C1439 C 0.21886 0.38226 0.71274 0.0
C1440 C 0.2057 0.37353 0.68061 0.0
C1441 C 0.20944 0.34478 0.66822 0.0
C1442 C 0.19173 0.34068 0.63304 0.0
C1443 C 0.22033 0.34449 0.60942 0.0
C1444 C 0.15978 0.30493 0.6302 0.0
C1445 C 0.17792 0.37178 0.62746 0.0
C1446 C 0.18667 0.39055 0.65524 0.0
C1447 C 0.17864 0.42137 0.65567 0.0
C1448 C 0.16159 0.43344 0.62731 0.0
C1449 C 0.15159 0.41466 0.59845 0.0
C1450 C 0.15984 0.38307 0.5989 0.0
H1451 H 0.70574 0.21769 0.69414 0.0
H1452 H 0.79182 0.17401 0.71811 0.0
H1453 H 0.75979 0.12665 0.68056 0.0
H1454 H 0.63168 0.13545 0.6892 0.0
H1455 H 0.60667 0.15058 0.65532 0.0
H1456 H 0.63708 0.18171 0.68344 0.0
H1457 H 0.6722 0.22023 0.63557 0.0
H1458 H 0.64175 0.18929 0.60729 0.0
H1459 H 0.69048 0.20019 0.60849 0.0
H1460 H 0.71573 0.08131 0.64247 0.0
H1461 H 0.66554 0.04539 0.60396 0.0
H1462 H 0.61104 0.12086 0.60466 0.0
C1463 C 0.71801 0.19837 0.69132 0.0
C1464 C 0.75118 0.19961 0.70908 0.0
C1465 C 0.76637 0.17373 0.70469 0.0
C1466 C 0.74838 0.14659 0.68347 0.0
C1467 C 0.71542 0.14585 0.66664 0.0
C1468 C 0.70062 0.17129 0.67009 0.0
C1469 C 0.66487 0.16457 0.64938 0.0
C1470 C 0.63322 0.15766 0.67061 0.0
C1471 C 0.66751 0.1954 0.62365 0.0
C1472 C 0.6618 0.13134 0.63392 0.0
C1473 C 0.69094 0.12063 0.64422 0.0
C1474 C 0.69292 0.08967 0.63391 0.0
C1475 C 0.66435 0.06938 0.61218 0.0
C1476 C 0.63477 0.08062 0.60095 0.0
C1477 C 0.63367 0.11189 0.61221 0.0
H1478 H 0.87859 0.25824 0.4012 0.0
H1479 H 0.89188 0.31773 0.30757 0.0
H1480 H 0.91782 0.37393 0.33522 0.0
H1481 H 0.85994 0.32116 0.44685 0.0
H1482 H 0.88782 0.31458 0.48296 0.0
H1483 H 0.86546 0.27892 0.45622 0.0
H1484 H 0.92771 0.27333 0.44949 0.0
H1485 H 0.94975 0.30788 0.47718 0.0
H1486 H 0.96523 0.31233 0.43719 0.0
H1487 H 0.94217 0.42311 0.37252 0.0
H1488 H 0.9816 0.46121 0.41538 0.0
H1489 H 0.95902 0.36975 0.4845 0.0
C1490 C 0.88731 0.28321 0.3867 0.0
C1491 C 0.88329 0.28404 0.35246 0.0
C1492 C 0.89497 0.31682 0.33392 0.0
C1493 C 0.90909 0.3488 0.34939 0.0
C1494 C 0.9118 0.34725 0.38332 0.0
C1495 C 0.90258 0.31531 0.40176 0.0
C1496 C 0.91345 0.3209 0.43762 0.0
C1497 C 0.87964 0.30813 0.45705 0.0
C1498 C 0.94067 0.30256 0.45115 0.0
C1499 C 0.93133 0.36095 0.4363 0.0
C1500 C 0.92844 0.37569 0.40493 0.0
C1501 C 0.94449 0.41201 0.39723 0.0
C1502 C 0.96646 0.4335 0.42177 0.0
C1503 C 0.97292 0.41816 0.453 0.0
C1504 C 0.95374 0.38193 0.46083 0.0
H1505 H 0.68746 0.78891 0.45083 0.0
H1506 H 0.72171 0.87516 0.37604 0.0
H1507 H 0.72998 0.91788 0.4161 0.0
H1508 H 0.62815 0.82246 0.47717 0.0
H1509 H 0.6334 0.80746 0.51936 0.0
H1510 H 0.6411 0.78421 0.48805 0.0
H1511 H 0.706 0.79313 0.51643 0.0
H1512 H 0.69862 0.81732 0.54743 0.0
H1513 H 0.73762 0.83734 0.52403 0.0
H1514 H 0.72896 0.9516 0.46119 0.0
H1515 H 0.70115 0.97188 0.50149 0.0
H1516 H 0.65667 0.86416 0.54378 0.0
C1517 C 0.69689 0.81666 0.44256 0.0
C1518 C 0.70543 0.82812 0.41011 0.0
C1519 C 0.71709 0.86508 0.40093 0.0
C1520 C 0.72188 0.88992 0.42364 0.0
C1521 C 0.7137 0.87765 0.45535 0.0
C1522 C 0.70015 0.84182 0.46452 0.0
C1523 C 0.68528 0.83523 0.49752 0.0
C1524 C 0.64458 0.81095 0.49537 0.0
C1525 C 0.70827 0.81985 0.52285 0.0
C1526 C 0.69057 0.87283 0.50439 0.0
C1527 C 0.70908 0.89703 0.48067 0.0
C1528 C 0.71485 0.93307 0.48018 0.0
C1529 C 0.69913 0.94438 0.50325 0.0
C1530 C 0.67692 0.91941 0.5255 0.0
C1531 C 0.67402 0.88361 0.52713 0.0
H1532 H 0.217 0.73235 0.36447 0.0
H1533 H 0.16347 0.68165 0.27552 0.0
H1534 H 0.12133 0.63202 0.30754 0.0
H1535 H 0.22559 0.66088 0.40197 0.0
H1536 H 0.21912 0.66759 0.44281 0.0
H1537 H 0.23549 0.70507 0.41433 0.0
H1538 H 0.1819 0.72505 0.42224 0.0
H1539 H 0.16582 0.68817 0.45177 0.0
H1540 H 0.13547 0.69402 0.41731 0.0
H1541 H 0.0942 0.58358 0.34839 0.0
H1542 H 0.0851 0.53894 0.39528 0.0
H1543 H 0.16249 0.61837 0.45676 0.0
C1544 C 0.19492 0.71173 0.35186 0.0
C1545 C 0.19242 0.71075 0.31786 0.0
C1546 C 0.16489 0.68274 0.30172 0.0
C1547 C 0.1409 0.65466 0.31967 0.0
C1548 C 0.14548 0.65507 0.35355 0.0
C1549 C 0.17178 0.683 0.36954 0.0
C1550 C 0.17678 0.67377 0.40565 0.0
C1551 C 0.21658 0.67701 0.41679 0.0
C1552 C 0.16422 0.6966 0.42541 0.0
C1553 C 0.15107 0.63562 0.40708 0.0
C1554 C 0.13218 0.62574 0.37711 0.0
C1555 C 0.10839 0.59111 0.37208 0.0
C1556 C 0.10373 0.56596 0.39852 0.0
C1557 C 0.12382 0.57561 0.42886 0.0
C1558 C 0.14743 0.6107 0.43336 0.0
H1559 H 0.51609 0.21543 0.35943 0.0
H1560 H 0.41842 0.14847 0.30512 0.0
H1561 H 0.43781 0.09726 0.31917 0.0
H1562 H 0.57719 0.15926 0.34466 0.0
H1563 H 0.59973 0.16838 0.38504 0.0
H1564 H 0.58619 0.20171 0.36054 0.0
H1565 H 0.55004 0.20605 0.40708 0.0
H1566 H 0.56311 0.17297 0.43141 0.0
H1567 H 0.51524 0.16646 0.42253 0.0
H1568 H 0.45417 0.05224 0.35472 0.0
H1569 H 0.46837 0.01954 0.40474 0.0
H1570 H 0.55961 0.11418 0.43275 0.0
C1571 C 0.50002 0.19049 0.34884 0.0
C1572 C 0.46554 0.18574 0.33176 0.0
C1573 C 0.44467 0.15252 0.31886 0.0
C1574 C 0.45572 0.12332 0.32639 0.0
C1575 C 0.48831 0.128 0.34594 0.0
C1576 C 0.51098 0.16116 0.35599 0.0
C1577 C 0.54099 0.15821 0.38135 0.0
C1578 C 0.57823 0.17275 0.36703 0.0
C1579 C 0.54232 0.17696 0.41239 0.0
C1580 C 0.5284 0.11825 0.38746 0.0
C1581 C 0.4989 0.10115 0.36587 0.0
C1582 C 0.47813 0.06509 0.37093 0.0
C1583 C 0.48628 0.04666 0.39956 0.0
C1584 C 0.51488 0.06443 0.42282 0.0
C1585 C 0.5377 0.09982 0.41533 0.0
H1586 H 0.75298 0.86556 0.72397 0.0
H1587 H 0.66636 0.7686 0.7528 0.0
H1588 H 0.62002 0.7948 0.72993 0.0
H1589 H 0.70814 0.92772 0.73893 0.0
H1590 H 0.72496 0.95667 0.70379 0.0
H1591 H 0.75117 0.9316 0.72517 0.0
H1592 H 0.7516 0.90397 0.67155 0.0
H1593 H 0.72594 0.92933 0.65003 0.0
H1594 H 0.70879 0.88172 0.64836 0.0
H1595 H 0.58324 0.8297 0.69917 0.0
H1596 H 0.55934 0.86838 0.66051 0.0
H1597 H 0.67003 0.94352 0.65314 0.0
C1598 C 0.72423 0.85017 0.72579 0.0
C1599 C 0.71297 0.81521 0.74016 0.0
C1600 C 0.67528 0.7955 0.7419 0.0
C1601 C 0.64888 0.81025 0.72915 0.0
C1602 C 0.66072 0.84487 0.71496 0.0
C1603 C 0.69755 0.86457 0.71322 0.0
C1604 C 0.70301 0.90014 0.6947 0.0
C1605 C 0.72301 0.93085 0.71699 0.0
C1606 C 0.72353 0.90399 0.66437 0.0
C1607 C 0.66355 0.89702 0.68543 0.0
C1608 C 0.63954 0.86513 0.69768 0.0
C1609 C 0.60179 0.855 0.68994 0.0
C1610 C 0.58839 0.87726 0.66807 0.0
C1611 C 0.61262 0.90936 0.65412 0.0
C1612 C 0.65057 0.91981 0.66406 0.0
H1613 H 0.77599 0.14097 0.37941 0.0
H1614 H 0.69024 0.14733 0.30565 0.0
H1615 H 0.64339 0.11042 0.34188 0.0
H1616 H 0.72639 0.04923 0.41346 0.0
H1617 H 0.74437 0.06068 0.45461 0.0
H1618 H 0.77088 0.0831 0.42105 0.0
H1619 H 0.77579 0.14365 0.44033 0.0
H1620 H 0.74876 0.12144 0.47355 0.0
H1621 H 0.73457 0.15154 0.44495 0.0
H1622 H 0.60603 0.07702 0.38747 0.0
H1623 H 0.58083 0.04721 0.43885 0.0
H1624 H 0.69094 0.06605 0.48412 0.0
C1625 C 0.74735 0.13341 0.37054 0.0
C1626 C 0.73657 0.1464 0.33966 0.0
C1627 C 0.69889 0.13723 0.32919 0.0
C1628 C 0.67212 0.11636 0.34958 0.0
C1629 C 0.68354 0.10506 0.38042 0.0
C1630 C 0.72021 0.11298 0.39083 0.0
C1631 C 0.72511 0.09997 0.42606 0.0
C1632 C 0.74272 0.07155 0.42895 0.0
C1633 C 0.74737 0.131 0.44747 0.0
C1634 C 0.68558 0.0841 0.43388 0.0
C1635 C 0.66202 0.08703 0.40716 0.0
C1636 C 0.62423 0.07453 0.40858 0.0
C1637 C 0.61014 0.05809 0.43801 0.0
C1638 C 0.63377 0.05488 0.46577 0.0
C1639 C 0.67201 0.06823 0.46349 0.0
H1640 H 0.91187 0.74286 0.34648 0.0
H1641 H 0.81172 0.65747 0.3167 0.0
H1642 H 0.83727 0.61385 0.34452 0.0
H1643 H 0.97584 0.69566 0.34132 0.0
H1644 H 1.00479 0.71276 0.37753 0.0
H1645 H 0.97991 0.73813 0.35433 0.0
H1646 H 0.95039 0.74071 0.40575 0.0
H1647 H 0.97527 0.71543 0.42911 0.0
H1648 H 0.92611 0.7 0.42822 0.0
H1649 H 0.87521 0.57618 0.37631 0.0
H1650 H 0.91695 0.55117 0.41022 0.0
H1651 H 0.99397 0.65775 0.42567 0.0
C1652 C 0.89513 0.71499 0.34551 0.0
C1653 C 0.85869 0.70487 0.32807 0.0
C1654 C 0.83905 0.6674 0.32896 0.0
C1655 C 0.85371 0.64183 0.34503 0.0
C1656 C 0.88897 0.65253 0.36173 0.0
C1657 C 0.9094 0.68847 0.36244 0.0
C1658 C 0.94615 0.69243 0.38357 0.0
C1659 C 0.97862 0.71087 0.36297 0.0
C1660 C 0.94971 0.71341 0.41343 0.0
C1661 C 0.94337 0.65353 0.39437 0.0
C1662 C 0.91004 0.63105 0.38099 0.0
C1663 C 0.90112 0.59409 0.38674 0.0
C1664 C 0.92567 0.57977 0.40637 0.0
C1665 C 0.96019 0.60124 0.42162 0.0
C1666 C 0.96856 0.63935 0.41493 0.0
H1667 H 0.35759 0.86481 0.34909 0.0
H1668 H 0.3209 0.75703 0.39277 0.0
H1669 H 0.35761 0.77866 0.44414 0.0
H1670 H 0.44797 0.88915 0.38218 0.0
H1671 H 0.45402 0.93427 0.38889 0.0
H1672 H 0.42102 0.91129 0.35716 0.0
H1673 H 0.37016 0.92371 0.38223 0.0
H1674 H 0.40313 0.94673 0.41414 0.0
H1675 H 0.36234 0.91019 0.42434 0.0
H1676 H 0.40235 0.8103 0.48841 0.0
H1677 H 0.45466 0.84917 0.52209 0.0
H1678 H 0.46373 0.93717 0.45036 0.0
C1679 C 0.35664 0.84585 0.36969 0.0
C1680 C 0.33619 0.80917 0.36693 0.0
C1681 C 0.33632 0.78518 0.39425 0.0
C1682 C 0.35691 0.79728 0.42362 0.0
C1683 C 0.3772 0.83347 0.42535 0.0
C1684 C 0.37727 0.85746 0.39915 0.0
C1685 C 0.40401 0.89444 0.40656 0.0
C1686 C 0.4335 0.90806 0.38226 0.0
C1687 C 0.38369 0.92029 0.40684 0.0
C1688 C 0.42007 0.88716 0.44057 0.0
C1689 C 0.40358 0.85191 0.45108 0.0
C1690 C 0.41516 0.83801 0.48063 0.0
C1691 C 0.44502 0.86033 0.49955 0.0
C1692 C 0.46327 0.89623 0.4889 0.0
C1693 C 0.44992 0.91004 0.45941 0.0
H1694 H 0.2056 0.32017 0.33079 0.0
H1695 H 0.31871 0.36108 0.37097 0.0
H1696 H 0.3029 0.39681 0.40745 0.0
H1697 H 0.1848 0.40142 0.33571 0.0
H1698 H 0.13935 0.37812 0.34805 0.0
H1699 H 0.15944 0.35684 0.32385 0.0
H1700 H 0.14857 0.30454 0.36719 0.0
H1701 H 0.12847 0.32569 0.39153 0.0
H1702 H 0.16649 0.31312 0.40891 0.0
H1703 H 0.27374 0.43219 0.44107 0.0
H1704 H 0.23578 0.45576 0.4687 0.0
H1705 H 0.13927 0.38997 0.41216 0.0
C1706 C 0.22735 0.33675 0.34703 0.0
C1707 C 0.26432 0.33707 0.34661 0.0
C1708 C 0.29054 0.35941 0.36955 0.0
C1709 C 0.2816 0.38029 0.39079 0.0
C1710 C 0.24546 0.37933 0.39054 0.0
C1711 C 0.21856 0.35758 0.36935 0.0
C1712 C 0.18143 0.36029 0.3751 0.0
C1713 C 0.16528 0.37502 0.34381 0.0
C1714 C 0.15464 0.32373 0.38634 0.0
C1715 C 0.19141 0.38675 0.40251 0.0
C1716 C 0.22876 0.39783 0.4107 0.0
C1717 C 0.24451 0.42305 0.43457 0.0
C1718 C 0.22236 0.43675 0.4504 0.0
C1719 C 0.18357 0.42565 0.44367 0.0
C1720 C 0.16848 0.39981 0.41884 0.0
H1721 H 0.41545 0.20947 0.6068 0.0
H1722 H 0.3303 0.12855 0.65846 0.0
H1723 H 0.33715 0.0825 0.62789 0.0
H1724 H 0.39489 0.16793 0.52856 0.0
H1725 H 0.44261 0.18131 0.52217 0.0
H1726 H 0.42753 0.20814 0.54493 0.0
H1727 H 0.47397 0.20413 0.59382 0.0
H1728 H 0.48935 0.17763 0.57112 0.0
H1729 H 0.47321 0.16109 0.61065 0.0
H1730 H 0.35761 0.04436 0.59459 0.0
H1731 H 0.39227 0.01861 0.56516 0.0
H1732 H 0.4647 0.12482 0.53733 0.0
C1733 C 0.39806 0.18213 0.61173 0.0
C1734 C 0.37225 0.17288 0.63513 0.0
C1735 C 0.34987 0.13662 0.64033 0.0
C1736 C 0.35363 0.11017 0.6231 0.0
C1737 C 0.37979 0.12026 0.6006 0.0
C1738 C 0.40162 0.15546 0.59498 0.0
C1739 C 0.4297 0.15935 0.57162 0.0
C1740 C 0.42328 0.18043 0.53994 0.0
C1741 C 0.46886 0.17654 0.58778 0.0
C1742 C 0.4211 0.12079 0.56569 0.0
C1743 C 0.39181 0.09854 0.58206 0.0
C1744 C 0.3803 0.06162 0.58139 0.0
C1745 C 0.39999 0.04718 0.56444 0.0
C1746 C 0.43111 0.06966 0.54885 0.0
C1747 C 0.44092 0.10689 0.54885 0.0
H1748 H 0.84429 0.34323 0.68028 0.0
H1749 H 0.9253 0.31145 0.74226 0.0
H1750 H 0.97185 0.34471 0.70413 0.0
H1751 H 0.87584 0.33742 0.60317 0.0
H1752 H 0.8666 0.37556 0.58396 0.0
H1753 H 0.83991 0.34914 0.61607 0.0
H1754 H 0.85683 0.40521 0.64841 0.0
H1755 H 0.88357 0.43178 0.61639 0.0
H1756 H 0.90435 0.43185 0.65765 0.0
H1757 H 1.011 0.38359 0.6577 0.0
H1758 H 0.0367 0.42225 0.60937 0.0
H1759 H 0.92985 0.42794 0.57802 0.0
C1760 C 0.87178 0.34313 0.68595 0.0
C1761 C 0.88074 0.32444 0.71474 0.0
C1762 C 0.91733 0.32539 0.72072 0.0
C1763 C 0.94413 0.34432 0.69903 0.0
C1764 C 0.93439 0.36251 0.67104 0.0
C1765 C 0.89893 0.36195 0.66452 0.0
C1766 C 0.8953 0.38366 0.63288 0.0
C1767 C 0.86778 0.36003 0.60752 0.0
C1768 C 0.88437 0.41498 0.63922 0.0
C1769 C 0.93411 0.39664 0.62257 0.0
C1770 C 0.95642 0.38424 0.6448 0.0
C1771 C 0.99351 0.39325 0.64024 0.0
C1772 C 1.00801 0.41534 0.61256 0.0
C1773 C 0.98567 0.42847 0.58936 0.0
C1774 C 0.94809 0.41858 0.59485 0.0
H1775 H 0.20735 0.73147 0.67312 0.0
H1776 H 0.24382 0.65894 0.73977 0.0
H1777 H 0.22202 0.61422 0.69858 0.0
H1778 H 0.1246 0.66422 0.63954 0.0
H1779 H 0.12724 0.68464 0.5987 0.0
H1780 H 0.147 0.71158 0.63301 0.0
H1781 H 0.20931 0.73646 0.60825 0.0
H1782 H 0.18975 0.7093 0.574 0.0
H1783 H 0.2298 0.70619 0.59818 0.0
H1784 H 0.19434 0.57497 0.64861 0.0
H1785 H 0.16054 0.54598 0.59833 0.0
H1786 H 0.14149 0.64285 0.56365 0.0
C1787 C 0.21094 0.70627 0.6791 0.0
C1788 C 0.22773 0.69942 0.71037 0.0
C1789 C 0.23126 0.66556 0.71652 0.0
C1790 C 0.21894 0.63968 0.69298 0.0
C1791 C 0.20263 0.6472 0.66263 0.0
C1792 C 0.19842 0.67971 0.65571 0.0
C1793 C 0.17877 0.68055 0.62156 0.0
C1794 C 0.14224 0.68554 0.62331 0.0
C1795 C 0.20338 0.70988 0.59917 0.0
C1796 C 0.17247 0.64364 0.6105 0.0
C1797 C 0.18668 0.6248 0.6344 0.0
C1798 C 0.18334 0.58981 0.62979 0.0
C1799 C 0.16428 0.57346 0.60075 0.0
C1800 C 0.14827 0.59167 0.57611 0.0
C1801 C 0.15343 0.62771 0.58135 0.0
loop_
_geom_bond_atom_site_label_1
_geom_bond_atom_site_label_2
_geom_bond_distance
_geom_bond_site_symmetry_2
_ccdc_geom_bond_type
Tb0 C9 2.764 . S
Tb0 O10 2.325 . S
Tb0 O13 2.303 . S
Tb0 O17 2.322 . S
Tb0 O18 2.349 . S
Tb0 O21 2.415 . S
Tb0 O22 2.399 . S
Tb1 O11 2.322 . S
Tb1 O12 2.349 . S
Tb1 O14 2.415 . S
Tb1 O15 2.399 . S
Tb1 O16 2.325 . S
Tb1 O19 2.303 . S
Tb1 C30 2.764 . S
C2 O18 1.261 . S
C2 O19 1.257 . S
C3 C6 1.358 . S
C3 C7 1.332 . S
C3 C9 1.504 . S
C4 C5 1.373 . S
C4 C8 1.308 . S
C5 C4 1.373 . S
C5 C6 1.429 . S
C5 H32 0.932 . S
C6 C3 1.358 . S
C6 C5 1.429 . S
C6 H33 0.930 . S
C7 C3 1.332 . S
C7 C8 1.394 . S
C7 H34 0.932 . S
C8 C4 1.308 . S
C8 C7 1.394 . S
C8 H35 0.929 . S
C9 Tb0 2.764 . S
C9 C3 1.504 . S
C9 O21 1.239 . S
C9 O22 1.263 . S
O10 Tb0 2.325 . S
O10 C20 1.236 . S
O11 Tb1 2.322 . S
O11 C20 1.257 . S
O12 Tb1 2.349 . S
O12 C23 1.261 . S
O13 Tb0 2.303 . S
O13 C23 1.257 . S
O14 Tb1 2.415 . S
O14 C30 1.239 . S
O15 Tb1 2.399 . S
O15 C30 1.263 . S
O16 Tb1 2.325 . S
O16 C31 1.236 . S
O17 Tb0 2.322 . S
O17 C31 1.257 . S
O18 Tb0 2.349 . S
O18 C2 1.261 . S
O19 Tb1 2.303 . S
O19 C2 1.257 . S
C20 O10 1.236 . S
C20 O11 1.257 . S
O21 Tb0 2.415 . S
O21 C9 1.239 . S
O22 Tb0 2.399 . S
O22 C9 1.263 . S
C23 O12 1.261 . S
C23 O13 1.257 . S
C24 C27 1.358 . S
C24 C28 1.332 . S
C24 C30 1.504 . S
C25 C26 1.373 . S
C25 C29 1.308 . S
C26 C25 1.373 . S
C26 C27 1.429 . S
C26 H36 0.932 . S
C27 C24 1.358 . S
C27 C26 1.429 . S
C27 H37 0.930 . S
C28 C24 1.332 . S
C28 C29 1.394 . S
C28 H38 0.932 . S
C29 C25 1.308 . S
C29 C28 1.394 . S
C29 H39 0.929 . S
C30 Tb1 2.764 . S
C30 O14 1.239 . S
C30 O15 1.263 . S
C30 C24 1.504 . S
C31 O16 1.236 . S
C31 O17 1.257 . S
H32 C5 0.932 . S
H33 C6 0.930 . S
H34 C7 0.932 . S
H35 C8 0.929 . S
H36 C26 0.932 . S
H37 C27 0.930 . S
H38 C28 0.932 . S
H39 C29 0.929 . S
Tb40 C49 2.764 . S
Tb40 O50 2.325 . S
Tb40 O53 2.303 . S
Tb40 O57 2.322 . S
Tb40 O58 2.349 . S
Tb40 O61 2.415 . S
Tb40 O62 2.399 . S
Tb41 O51 2.322 . S
Tb41 O52 2.349 . S
Tb41 O54 2.415 . S
Tb41 O55 2.399 . S
Tb41 O56 2.325 . S
Tb41 O59 2.303 . S
Tb41 C70 2.764 . S
C42 O58 1.261 . S
C42 O59 1.257 . S
C43 C46 1.358 . S
C43 C47 1.332 . S
C43 C49 1.504 . S
C44 C45 1.373 . S
C44 C48 1.308 . S
C45 C44 1.373 . S
C45 C46 1.429 . S
C45 H72 0.932 . S
C46 C43 1.358 . S
C46 C45 1.429 . S
C46 H73 0.930 . S
C47 C43 1.332 . S
C47 C48 1.394 . S
C47 H74 0.932 . S
C48 C44 1.308 . S
C48 C47 1.394 . S
C48 H75 0.929 . S
C49 Tb40 2.764 . S
C49 C43 1.504 . S
C49 O61 1.239 . S
C49 O62 1.263 . S
O50 Tb40 2.325 . S
O50 C60 1.236 . S
O51 Tb41 2.322 . S
O51 C60 1.257 . S
O52 Tb41 2.349 . S
O52 C63 1.261 . S
O53 Tb40 2.303 . S
O53 C63 1.257 . S
O54 Tb41 2.415 . S
O54 C70 1.239 . S
O55 Tb41 2.399 . S
O55 C70 1.263 . S
O56 Tb41 2.325 . S
O56 C71 1.236 . S
O57 Tb40 2.322 . S
O57 C71 1.257 . S
O58 Tb40 2.349 . S
O58 C42 1.261 . S
O59 Tb41 2.303 . S
O59 C42 1.257 . S
C60 O50 1.236 . S
C60 O51 1.257 . S
O61 Tb40 2.415 . S
O61 C49 1.239 . S
O62 Tb40 2.399 . S
O62 C49 1.263 . S
C63 O52 1.261 . S
C63 O53 1.257 . S
C64 C67 1.358 . S
C64 C68 1.332 . S
C64 C70 1.504 . S
C65 C66 1.373 . S
C65 C69 1.308 . S
C66 C65 1.373 . S
C66 C67 1.429 . S
C66 H76 0.932 . S
C67 C64 1.358 . S
C67 C66 1.429 . S
C67 H77 0.930 . S
C68 C64 1.332 . S
C68 C69 1.394 . S
C68 H78 0.932 . S
C69 C65 1.308 . S
C69 C68 1.394 . S
C69 H79 0.929 . S
C70 Tb41 2.764 . S
C70 O54 1.239 . S
C70 O55 1.263 . S
C70 C64 1.504 . S
C71 O56 1.236 . S
C71 O57 1.257 . S
H72 C45 0.932 . S
H73 C46 0.930 . S
H74 C47 0.932 . S
H75 C48 0.929 . S
H76 C66 0.932 . S
H77 C67 0.930 . S
H78 C68 0.932 . S
H79 C69 0.929 . S
Tb80 C89 2.764 . S
Tb80 O90 2.325 . S
Tb80 O93 2.303 . S
Tb80 O97 2.322 . S
Tb80 O98 2.349 . S
Tb80 O101 2.415 . S
Tb80 O102 2.399 . S
Tb81 O91 2.322 . S
Tb81 O92 2.349 . S
Tb81 O94 2.415 . S
Tb81 O95 2.399 . S
Tb81 O96 2.325 . S
Tb81 O99 2.303 . S
Tb81 C110 2.764 . S
C82 O98 1.261 . S
C82 O99 1.257 . S
C83 C86 1.358 . S
C83 C87 1.332 . S
C83 C89 1.504 . S
C84 C85 1.373 . S
C84 C88 1.308 . S
C85 C84 1.373 . S
C85 C86 1.429 . S
C85 H112 0.932 . S
C86 C83 1.358 . S
C86 C85 1.429 . S
C86 H113 0.930 . S
C87 C83 1.332 . S
C87 C88 1.394 . S
C87 H114 0.932 . S
C88 C84 1.308 . S
C88 C87 1.394 . S
C88 H115 0.929 . S
C89 Tb80 2.764 . S
C89 C83 1.504 . S
C89 O101 1.239 . S
C89 O102 1.263 . S
O90 Tb80 2.325 . S
O90 C100 1.236 . S
O91 Tb81 2.322 . S
O91 C100 1.257 . S
O92 Tb81 2.349 . S
O92 C103 1.261 . S
O93 Tb80 2.303 . S
O93 C103 1.257 . S
O94 Tb81 2.415 . S
O94 C110 1.239 . S
O95 Tb81 2.399 . S
O95 C110 1.263 . S
O96 Tb81 2.325 . S
O96 C111 1.236 . S
O97 Tb80 2.322 . S
O97 C111 1.257 . S
O98 Tb80 2.349 . S
O98 C82 1.261 . S
O99 Tb81 2.303 . S
O99 C82 1.257 . S
C100 O90 1.236 . S
C100 O91 1.257 . S
O101 Tb80 2.415 . S
O101 C89 1.239 . S
O102 Tb80 2.399 . S
O102 C89 1.263 . S
C103 O92 1.261 . S
C103 O93 1.257 . S
C104 C107 1.358 . S
C104 C108 1.332 . S
C104 C110 1.504 . S
C105 C106 1.373 . S
C105 C109 1.308 . S
C106 C105 1.373 . S
C106 C107 1.429 . S
C106 H116 0.932 . S
C107 C104 1.358 . S
C107 C106 1.429 . S
C107 H117 0.930 . S
C108 C104 1.332 . S
C108 C109 1.394 . S
C108 H118 0.932 . S
C109 C105 1.308 . S
C109 C108 1.394 . S
C109 H119 0.929 . S
C110 Tb81 2.764 . S
C110 O94 1.239 . S
C110 O95 1.263 . S
C110 C104 1.504 . S
C111 O96 1.236 . S
C111 O97 1.257 . S
H112 C85 0.932 . S
H113 C86 0.930 . S
H114 C87 0.932 . S
H115 C88 0.929 . S
H116 C106 0.932 . S
H117 C107 0.930 . S
H118 C108 0.932 . S
H119 C109 0.929 . S
Tb120 C129 2.764 . S
Tb120 O130 2.325 . S
Tb120 O133 2.303 . S
Tb120 O137 2.322 . S
Tb120 O138 2.349 . S
Tb120 O141 2.415 . S
Tb120 O142 2.399 . S
Tb121 O131 2.322 . S
Tb121 O132 2.349 . S
Tb121 O134 2.415 . S
Tb121 O135 2.399 . S
Tb121 O136 2.325 . S
Tb121 O139 2.303 . S
Tb121 C150 2.764 . S
C122 O138 1.261 . S
C122 O139 1.257 . S
C123 C126 1.358 . S
C123 C127 1.332 . S
C123 C129 1.504 . S
C124 C125 1.373 . S
C124 C128 1.308 . S
C125 C124 1.373 . S
C125 C126 1.429 . S
C125 H152 0.932 . S
C126 C123 1.358 . S
C126 C125 1.429 . S
C126 H153 0.930 . S
C127 C123 1.332 . S
C127 C128 1.394 . S
C127 H154 0.932 . S
C128 C124 1.308 . S
C128 C127 1.394 . S
C128 H155 0.929 . S
C129 Tb120 2.764 . S
C129 C123 1.504 . S
C129 O141 1.239 . S
C129 O142 1.263 . S
O130 Tb120 2.325 . S
O130 C140 1.236 . S
O131 Tb121 2.322 . S
O131 C140 1.257 . S
O132 Tb121 2.349 . S
O132 C143 1.261 . S
O133 Tb120 2.303 . S
O133 C143 1.257 . S
O134 Tb121 2.415 . S
O134 C150 1.239 . S
O135 Tb121 2.399 . S
O135 C150 1.263 . S
O136 Tb121 2.325 . S
O136 C151 1.236 . S
O137 Tb120 2.322 . S
O137 C151 1.257 . S
O138 Tb120 2.349 . S
O138 C122 1.261 . S
O139 Tb121 2.303 . S
O139 C122 1.257 . S
C140 O130 1.236 . S
C140 O131 1.257 . S
O141 Tb120 2.415 . S
O141 C129 1.239 . S
O142 Tb120 2.399 . S
O142 C129 1.263 . S
C143 O132 1.261 . S
C143 O133 1.257 . S
C144 C147 1.358 . S
C144 C148 1.332 . S
C144 C150 1.504 . S
C145 C146 1.373 . S
C145 C149 1.308 . S
C146 C145 1.373 . S
C146 C147 1.429 . S
C146 H156 0.932 . S
C147 C144 1.358 . S
C147 C146 1.429 . S
C147 H157 0.930 . S
C148 C144 1.332 . S
C148 C149 1.394 . S
C148 H158 0.932 . S
C149 C145 1.308 . S
C149 C148 1.394 . S
C149 H159 0.929 . S
C150 Tb121 2.764 . S
C150 O134 1.239 . S
C150 O135 1.263 . S
C150 C144 1.504 . S
C151 O136 1.236 . S
C151 O137 1.257 . S
H152 C125 0.932 . S
H153 C126 0.930 . S
H154 C127 0.932 . S
H155 C128 0.929 . S
H156 C146 0.932 . S
H157 C147 0.930 . S
H158 C148 0.932 . S
H159 C149 0.929 . S
Tb160 C169 2.764 . S
Tb160 O170 2.325 . S
Tb160 O173 2.303 . S
Tb160 O177 2.322 . S
Tb160 O178 2.349 . S
Tb160 O181 2.415 . S
Tb160 O182 2.399 . S
Tb161 O171 2.322 . S
Tb161 O172 2.349 . S
Tb161 O174 2.415 . S
Tb161 O175 2.399 . S
Tb161 O176 2.325 . S
Tb161 O179 2.303 . S
Tb161 C190 2.764 . S
C162 O178 1.261 . S
C162 O179 1.257 . S
C163 C166 1.358 . S
C163 C167 1.332 . S
C163 C169 1.504 . S
C164 C165 1.373 . S
C164 C168 1.308 . S
C165 C164 1.373 . S
C165 C166 1.429 . S
C165 H192 0.932 . S
C166 C163 1.358 . S
C166 C165 1.429 . S
C166 H193 0.930 . S
C167 C163 1.332 . S
C167 C168 1.394 . S
C167 H194 0.932 . S
C168 C164 1.308 . S
C168 C167 1.394 . S
C168 H195 0.929 . S
C169 Tb160 2.764 . S
C169 C163 1.504 . S
C169 O181 1.239 . S
C169 O182 1.263 . S
O170 Tb160 2.325 . S
O170 C180 1.236 . S
O171 Tb161 2.322 . S
O171 C180 1.257 . S
O172 Tb161 2.349 . S
O172 C183 1.261 . S
O173 Tb160 2.303 . S
O173 C183 1.257 . S
O174 Tb161 2.415 . S
O174 C190 1.239 . S
O175 Tb161 2.399 . S
O175 C190 1.263 . S
O176 Tb161 2.325 . S
O176 C191 1.236 . S
O177 Tb160 2.322 . S
O177 C191 1.257 . S
O178 Tb160 2.349 . S
O178 C162 1.261 . S
O179 Tb161 2.303 . S
O179 C162 1.257 . S
C180 O170 1.236 . S
C180 O171 1.257 . S
O181 Tb160 2.415 . S
O181 C169 1.239 . S
O182 Tb160 2.399 . S
O182 C169 1.263 . S
C183 O172 1.261 . S
C183 O173 1.257 . S
C184 C187 1.358 . S
C184 C188 1.332 . S
C184 C190 1.504 . S
C185 C186 1.373 . S
C185 C189 1.308 . S
C186 C185 1.373 . S
C186 C187 1.429 . S
C186 H196 0.932 . S
C187 C184 1.358 . S
C187 C186 1.429 . S
C187 H197 0.930 . S
C188 C184 1.332 . S
C188 C189 1.394 . S
C188 H198 0.932 . S
C189 C185 1.308 . S
C189 C188 1.394 . S
C189 H199 0.929 . S
C190 Tb161 2.764 . S
C190 O174 1.239 . S
C190 O175 1.263 . S
C190 C184 1.504 . S
C191 O176 1.236 . S
C191 O177 1.257 . S
H192 C165 0.932 . S
H193 C166 0.930 . S
H194 C167 0.932 . S
H195 C168 0.929 . S
H196 C186 0.932 . S
H197 C187 0.930 . S
H198 C188 0.932 . S
H199 C189 0.929 . S
Tb200 C209 2.764 . S
Tb200 O210 2.325 . S
Tb200 O213 2.303 . S
Tb200 O217 2.322 . S
Tb200 O218 2.349 . S
Tb200 O221 2.415 . S
Tb200 O222 2.399 . S
Tb201 O211 2.322 . S
Tb201 O212 2.349 . S
Tb201 O214 2.415 . S
Tb201 O215 2.399 . S
Tb201 O216 2.325 . S
Tb201 O219 2.303 . S
Tb201 C230 2.764 . S
C202 O218 1.261 . S
C202 O219 1.257 . S
C203 C206 1.358 . S
C203 C207 1.332 . S
C203 C209 1.504 . S
C204 C205 1.373 . S
C204 C208 1.308 . S
C205 C204 1.373 . S
C205 C206 1.429 . S
C205 H232 0.932 . S
C206 C203 1.358 . S
C206 C205 1.429 . S
C206 H233 0.930 . S
C207 C203 1.332 . S
C207 C208 1.394 . S
C207 H234 0.932 . S
C208 C204 1.308 . S
C208 C207 1.394 . S
C208 H235 0.929 . S
C209 Tb200 2.764 . S
C209 C203 1.504 . S
C209 O221 1.239 . S
C209 O222 1.263 . S
O210 Tb200 2.325 . S
O210 C220 1.236 . S
O211 Tb201 2.322 . S
O211 C220 1.257 . S
O212 Tb201 2.349 . S
O212 C223 1.261 . S
O213 Tb200 2.303 . S
O213 C223 1.257 . S
O214 Tb201 2.415 . S
O214 C230 1.239 . S
O215 Tb201 2.399 . S
O215 C230 1.263 . S
O216 Tb201 2.325 . S
O216 C231 1.236 . S
O217 Tb200 2.322 . S
O217 C231 1.257 . S
O218 Tb200 2.349 . S
O218 C202 1.261 . S
O219 Tb201 2.303 . S
O219 C202 1.257 . S
C220 O210 1.236 . S
C220 O211 1.257 . S
O221 Tb200 2.415 . S
O221 C209 1.239 . S
O222 Tb200 2.399 . S
O222 C209 1.263 . S
C223 O212 1.261 . S
C223 O213 1.257 . S
C224 C227 1.358 . S
C224 C228 1.332 . S
C224 C230 1.504 . S
C225 C226 1.373 . S
C225 C229 1.308 . S
C226 C225 1.373 . S
C226 C227 1.429 . S
C226 H236 0.932 . S
C227 C224 1.358 . S
C227 C226 1.429 . S
C227 H237 0.930 . S
C228 C224 1.332 . S
C228 C229 1.394 . S
C228 H238 0.932 . S
C229 C225 1.308 . S
C229 C228 1.394 . S
C229 H239 0.929 . S
C230 Tb201 2.764 . S
C230 O214 1.239 . S
C230 O215 1.263 . S
C230 C224 1.504 . S
C231 O216 1.236 . S
C231 O217 1.257 . S
H232 C205 0.932 . S
H233 C206 0.930 . S
H234 C207 0.932 . S
H235 C208 0.929 . S
H236 C226 0.932 . S
H237 C227 0.930 . S
H238 C228 0.932 . S
H239 C229 0.929 . S
Tb240 C249 2.764 . S
Tb240 O250 2.325 . S
Tb240 O253 2.303 . S
Tb240 O257 2.322 . S
Tb240 O258 2.349 . S
Tb240 O261 2.415 . S
Tb240 O262 2.399 . S
Tb241 O251 2.322 . S
Tb241 O252 2.349 . S
Tb241 O254 2.415 . S
Tb241 O255 2.399 . S
Tb241 O256 2.325 . S
Tb241 O259 2.303 . S
Tb241 C270 2.764 . S
C242 O258 1.261 . S
C242 O259 1.257 . S
C243 C246 1.358 . S
C243 C247 1.332 . S
C243 C249 1.504 . S
C244 C245 1.373 . S
C244 C248 1.308 . S
C245 C244 1.373 . S
C245 C246 1.429 . S
C245 H272 0.932 . S
C246 C243 1.358 . S
C246 C245 1.429 . S
C246 H273 0.930 . S
C247 C243 1.332 . S
C247 C248 1.394 . S
C247 H274 0.932 . S
C248 C244 1.308 . S
C248 C247 1.394 . S
C248 H275 0.929 . S
C249 Tb240 2.764 . S
C249 C243 1.504 . S
C249 O261 1.239 . S
C249 O262 1.263 . S
O250 Tb240 2.325 . S
O250 C260 1.236 . S
O251 Tb241 2.322 . S
O251 C260 1.257 . S
O252 Tb241 2.349 . S
O252 C263 1.261 . S
O253 Tb240 2.303 . S
O253 C263 1.257 . S
O254 Tb241 2.415 . S
O254 C270 1.239 . S
O255 Tb241 2.399 . S
O255 C270 1.263 . S
O256 Tb241 2.325 . S
O256 C271 1.236 . S
O257 Tb240 2.322 . S
O257 C271 1.257 . S
O258 Tb240 2.349 . S
O258 C242 1.261 . S
O259 Tb241 2.303 . S
O259 C242 1.257 . S
C260 O250 1.236 . S
C260 O251 1.257 . S
O261 Tb240 2.415 . S
O261 C249 1.239 . S
O262 Tb240 2.399 . S
O262 C249 1.263 . S
C263 O252 1.261 . S
C263 O253 1.257 . S
C264 C267 1.358 . S
C264 C268 1.332 . S
C264 C270 1.504 . S
C265 C266 1.373 . S
C265 C269 1.308 . S
C266 C265 1.373 . S
C266 C267 1.429 . S
C266 H276 0.932 . S
C267 C264 1.358 . S
C267 C266 1.429 . S
C267 H277 0.930 . S
C268 C264 1.332 . S
C268 C269 1.394 . S
C268 H278 0.932 . S
C269 C265 1.308 . S
C269 C268 1.394 . S
C269 H279 0.929 . S
C270 Tb241 2.764 . S
C270 O254 1.239 . S
C270 O255 1.263 . S
C270 C264 1.504 . S
C271 O256 1.236 . S
C271 O257 1.257 . S
H272 C245 0.932 . S
H273 C246 0.930 . S
H274 C247 0.932 . S
H275 C248 0.929 . S
H276 C266 0.932 . S
H277 C267 0.930 . S
H278 C268 0.932 . S
H279 C269 0.929 . S
Tb280 C289 2.764 . S
Tb280 O290 2.325 . S
Tb280 O293 2.303 . S
Tb280 O297 2.322 . S
Tb280 O298 2.349 . S
Tb280 O301 2.415 . S
Tb280 O302 2.399 . S
Tb281 O291 2.322 . S
Tb281 O292 2.349 . S
Tb281 O294 2.415 . S
Tb281 O295 2.399 . S
Tb281 O296 2.325 . S
Tb281 O299 2.303 . S
Tb281 C310 2.764 . S
C282 O298 1.261 . S
C282 O299 1.257 . S
C283 C286 1.358 . S
C283 C287 1.332 . S
C283 C289 1.504 . S
C284 C285 1.373 . S
C284 C288 1.308 . S
C285 C284 1.373 . S
C285 C286 1.429 . S
C285 H312 0.932 . S
C286 C283 1.358 . S
C286 C285 1.429 . S
C286 H313 0.930 . S
C287 C283 1.332 . S
C287 C288 1.394 . S
C287 H314 0.932 . S
C288 C284 1.308 . S
C288 C287 1.394 . S
C288 H315 0.929 . S
C289 Tb280 2.764 . S
C289 C283 1.504 . S
C289 O301 1.239 . S
C289 O302 1.263 . S
O290 Tb280 2.325 . S
O290 C300 1.236 . S
O291 Tb281 2.322 . S
O291 C300 1.257 . S
O292 Tb281 2.349 . S
O292 C303 1.261 . S
O293 Tb280 2.303 . S
O293 C303 1.257 . S
O294 Tb281 2.415 . S
O294 C310 1.239 . S
O295 Tb281 2.399 . S
O295 C310 1.263 . S
O296 Tb281 2.325 . S
O296 C311 1.236 . S
O297 Tb280 2.322 . S
O297 C311 1.257 . S
O298 Tb280 2.349 . S
O298 C282 1.261 . S
O299 Tb281 2.303 . S
O299 C282 1.257 . S
C300 O290 1.236 . S
C300 O291 1.257 . S
O301 Tb280 2.415 . S
O301 C289 1.239 . S
O302 Tb280 2.399 . S
O302 C289 1.263 . S
C303 O292 1.261 . S
C303 O293 1.257 . S
C304 C307 1.358 . S
C304 C308 1.332 . S
C304 C310 1.504 . S
C305 C306 1.373 . S
C305 C309 1.308 . S
C306 C305 1.373 . S
C306 C307 1.429 . S
C306 H316 0.932 . S
C307 C304 1.358 . S
C307 C306 1.429 . S
C307 H317 0.930 . S
C308 C304 1.332 . S
C308 C309 1.394 . S
C308 H318 0.932 . S
C309 C305 1.308 . S
C309 C308 1.394 . S
C309 H319 0.929 . S
C310 Tb281 2.764 . S
C310 O294 1.239 . S
C310 O295 1.263 . S
C310 C304 1.504 . S
C311 O296 1.236 . S
C311 O297 1.257 . S
H312 C285 0.932 . S
H313 C286 0.930 . S
H314 C287 0.932 . S
H315 C288 0.929 . S
H316 C306 0.932 . S
H317 C307 0.930 . S
H318 C308 0.932 . S
H319 C309 0.929 . S
C320 O332 1.241 . S
C320 O333 1.280 . S
C321 O334 1.277 . S
C321 O335 1.245 . S
C322 O346 1.247 . S
C322 O348 1.289 . S
Mg323 O324 1.926 1_455 S
Mg323 O333 1.984 1_455 S
Mg323 O335 1.988 1_455 S
Mg323 O336 2.061 . S
O324 Mg323 1.926 1_655 S
O324 Mg325 1.986 . S
O324 Mg326 1.917 1_655 S
Mg325 O324 1.986 . S
Mg325 O332 2.042 . S
Mg325 O334 2.041 . S
Mg325 O340 2.038 1_545 S
Mg325 O348 2.238 1_545 S
Mg326 O324 1.917 1_455 S
Mg326 O327 1.917 1_545 S
Mg326 O337 2.106 . S
Mg326 O339 2.079 1_445 S
Mg326 O348 2.106 1_445 S
Mg326 O349 2.079 . S
O327 Mg326 1.917 1_565 S
O327 Mg328 1.926 . S
O327 Mg329 1.986 1_565 S
Mg328 O327 1.926 . S
Mg328 O342 1.984 . S
Mg328 O345 1.988 . S
Mg328 O346 2.061 1_455 S
Mg329 O327 1.986 1_545 S
Mg329 O337 2.238 . S
Mg329 O341 2.042 . S
Mg329 O343 2.041 1_545 S
Mg329 O350 2.038 . S
C330 O336 1.247 . S
C330 O337 1.289 . S
C331 O349 1.245 . S
C331 O350 1.274 . S
O332 C320 1.241 . S
O332 Mg325 2.042 . S
O333 C320 1.280 . S
O333 Mg323 1.984 1_655 S
O334 C321 1.277 . S
O334 Mg325 2.041 . S
O335 C321 1.245 . S
O335 Mg323 1.988 1_655 S
O336 Mg323 2.061 . S
O336 C330 1.247 . S
O337 Mg326 2.106 . S
O337 Mg329 2.238 . S
O337 C330 1.289 . S
C338 O339 1.245 . S
C338 O340 1.274 . S
O339 Mg326 2.079 1_665 S
O339 C338 1.245 . S
O340 Mg325 2.038 1_565 S
O340 C338 1.274 . S
O341 Mg329 2.042 . S
O341 C344 1.241 1_545 S
O342 Mg328 1.984 . S
O342 C344 1.280 . S
O343 Mg329 2.041 1_565 S
O343 C347 1.277 . S
C344 O341 1.241 1_565 S
C344 O342 1.280 . S
O345 Mg328 1.988 . S
O345 C347 1.245 . S
O346 C322 1.247 . S
O346 Mg328 2.061 1_655 S
C347 O343 1.277 . S
C347 O345 1.245 . S
O348 C322 1.289 . S
O348 Mg325 2.238 1_565 S
O348 Mg326 2.106 1_665 S
O349 Mg326 2.079 . S
O349 C331 1.245 . S
O350 Mg329 2.038 . S
O350 C331 1.274 . S
C351 O363 1.241 . S
C351 O364 1.280 . S
C352 O365 1.277 1_556 S
C352 O366 1.245 1_556 S
C353 O377 1.247 1_556 S
C353 O379 1.289 1_566 S
Mg354 O355 1.926 . S
Mg354 O364 1.984 . S
Mg354 O366 1.988 . S
Mg354 O367 2.061 . S
O355 Mg354 1.926 . S
O355 Mg356 1.986 . S
O355 Mg357 1.917 . S
Mg356 O355 1.986 . S
Mg356 O363 2.042 . S
Mg356 O365 2.041 . S
Mg356 O371 2.038 1_545 S
Mg356 O379 2.238 . S
Mg357 O355 1.917 . S
Mg357 O358 1.917 . S
Mg357 O368 2.106 . S
Mg357 O370 2.079 1_545 S
Mg357 O379 2.106 . S
Mg357 O380 2.079 . S
O358 Mg357 1.917 . S
O358 Mg359 1.926 1_545 S
O358 Mg360 1.986 . S
Mg359 O358 1.926 1_565 S
Mg359 O373 1.984 . S
Mg359 O376 1.988 . S
Mg359 O377 2.061 . S
Mg360 O358 1.986 . S
Mg360 O368 2.238 . S
Mg360 O372 2.042 . S
Mg360 O374 2.041 . S
Mg360 O381 2.038 . S
C361 O367 1.247 . S
C361 O368 1.289 . S
C362 O380 1.245 1_556 S
C362 O381 1.274 1_556 S
O363 C351 1.241 . S
O363 Mg356 2.042 . S
O364 C351 1.280 . S
O364 Mg354 1.984 . S
O365 C352 1.277 1_554 S
O365 Mg356 2.041 . S
O366 C352 1.245 1_554 S
O366 Mg354 1.988 . S
O367 Mg354 2.061 . S
O367 C361 1.247 . S
O368 Mg357 2.106 . S
O368 Mg360 2.238 . S
O368 C361 1.289 . S
C369 O370 1.245 . S
C369 O371 1.274 . S
O370 Mg357 2.079 1_565 S
O370 C369 1.245 . S
O371 Mg356 2.038 1_565 S
O371 C369 1.274 . S
O372 Mg360 2.042 . S
O372 C375 1.243 1_545 S
O373 Mg359 1.984 . S
O373 C375 1.280 . S
O374 Mg360 2.041 . S
O374 C378 1.277 1_545 S
C375 O372 1.243 1_565 S
C375 O373 1.280 . S
O376 Mg359 1.988 . S
O376 C378 1.245 . S
O377 C353 1.247 1_554 S
O377 Mg359 2.061 . S
C378 O374 1.277 1_565 S
C378 O376 1.245 . S
O379 C353 1.289 1_544 S
O379 Mg356 2.238 . S
O379 Mg357 2.106 . S
O380 Mg357 2.079 . S
O380 C362 1.245 1_554 S
O381 Mg360 2.038 . S
O381 C362 1.274 1_554 S
C382 O394 1.241 . S
C382 O395 1.280 . S
C383 O396 1.277 . S
C383 O397 1.245 . S
C384 O408 1.247 . S
C384 O410 1.289 . S
Mg385 O386 1.926 . S
Mg385 O395 1.984 . S
Mg385 O397 1.988 1_554 S
Mg385 O398 2.061 1_655 S
O386 Mg385 1.926 . S
O386 Mg387 1.986 1_554 S
O386 Mg388 1.917 1_655 S
Mg387 O386 1.986 1_556 S
Mg387 O394 2.042 1_556 S
Mg387 O396 2.041 . S
Mg387 O402 2.038 1_556 S
Mg387 O410 2.238 . S
Mg388 O386 1.917 1_455 S
Mg388 O389 1.917 1_554 S
Mg388 O399 2.106 . S
Mg388 O401 2.079 1_455 S
Mg388 O410 2.106 1_454 S
Mg388 O411 2.079 1_554 S
O389 Mg388 1.917 1_556 S
O389 Mg390 1.926 . S
O389 Mg391 1.986 1_556 S
Mg390 O389 1.926 . S
Mg390 O404 1.984 . S
Mg390 O407 1.988 1_556 S
Mg390 O408 2.061 1_455 S
Mg391 O389 1.986 1_554 S
Mg391 O399 2.238 . S
Mg391 O403 2.042 1_554 S
Mg391 O405 2.041 . S
Mg391 O412 2.038 1_554 S
C392 O398 1.247 . S
C392 O399 1.289 . S
C393 O411 1.245 . S
C393 O412 1.274 . S
O394 C382 1.241 . S
O394 Mg387 2.042 1_554 S
O395 C382 1.280 . S
O395 Mg385 1.984 . S
O396 C383 1.277 . S
O396 Mg387 2.041 . S
O397 C383 1.245 . S
O397 Mg385 1.988 1_556 S
O398 Mg385 2.061 1_455 S
O398 C392 1.247 . S
O399 Mg388 2.106 . S
O399 Mg391 2.238 . S
O399 C392 1.289 . S
C400 O401 1.245 . S
C400 O402 1.274 . S
O401 Mg388 2.079 1_655 S
O401 C400 1.245 . S
O402 Mg387 2.038 1_554 S
O402 C400 1.274 . S
O403 Mg391 2.042 1_556 S
O403 C406 1.241 . S
O404 Mg390 1.984 . S
O404 C406 1.280 . S
O405 Mg391 2.041 . S
O405 C409 1.277 . S
C406 O403 1.241 . S
C406 O404 1.280 . S
O407 Mg390 1.988 1_554 S
O407 C409 1.245 . S
O408 C384 1.247 . S
O408 Mg390 2.061 1_655 S
C409 O405 1.277 . S
C409 O407 1.245 . S
O410 C384 1.289 . S
O410 Mg387 2.238 . S
O410 Mg388 2.106 1_656 S
O411 Mg388 2.079 1_556 S
O411 C393 1.245 . S
O412 Mg391 2.038 1_556 S
O412 C393 1.274 . S
C413 O425 1.241 . S
C413 O426 1.280 . S
C414 O427 1.277 . S
C414 O428 1.245 . S
C415 O439 1.247 . S
C415 O441 1.289 . S
Mg416 O417 1.926 . S
Mg416 O426 1.984 . S
Mg416 O428 1.988 1_554 S
Mg416 O429 2.061 . S
O417 Mg416 1.926 . S
O417 Mg418 1.986 . S
O417 Mg419 1.917 . S
Mg418 O417 1.986 . S
Mg418 O425 2.042 . S
Mg418 O427 2.041 1_554 S
Mg418 O433 2.038 . S
Mg418 O441 2.238 1_554 S
Mg419 O417 1.917 . S
Mg419 O420 1.917 . S
Mg419 O430 2.106 . S
Mg419 O432 2.079 . S
Mg419 O441 2.106 1_554 S
Mg419 O442 2.079 1_554 S
O420 Mg419 1.917 . S
O420 Mg421 1.926 . S
O420 Mg422 1.986 . S
Mg421 O420 1.926 . S
Mg421 O435 1.984 1_554 S
Mg421 O438 1.988 . S
Mg421 O439 2.061 1_554 S
Mg422 O420 1.986 . S
Mg422 O430 2.238 . S
Mg422 O434 2.042 1_554 S
Mg422 O436 2.041 . S
Mg422 O443 2.038 1_554 S
C423 O429 1.247 . S
C423 O430 1.289 . S
C424 O442 1.245 . S
C424 O443 1.274 . S
O425 C413 1.241 . S
O425 Mg418 2.042 . S
O426 C413 1.280 . S
O426 Mg416 1.984 . S
O427 C414 1.277 . S
O427 Mg418 2.041 1_556 S
O428 C414 1.245 . S
O428 Mg416 1.988 1_556 S
O429 Mg416 2.061 . S
O429 C423 1.247 . S
O430 Mg419 2.106 . S
O430 Mg422 2.238 . S
O430 C423 1.289 . S
C431 O432 1.245 . S
C431 O433 1.274 . S
O432 Mg419 2.079 . S
O432 C431 1.245 . S
O433 Mg418 2.038 . S
O433 C431 1.274 . S
O434 Mg422 2.042 1_556 S
O434 C437 1.241 . S
O435 Mg421 1.984 1_556 S
O435 C437 1.280 . S
O436 Mg422 2.041 . S
O436 C440 1.277 . S
C437 O434 1.241 . S
C437 O435 1.280 . S
O438 Mg421 1.988 . S
O438 C440 1.245 . S
O439 C415 1.247 . S
O439 Mg421 2.061 1_556 S
C440 O436 1.277 . S
C440 O438 1.245 . S
O441 C415 1.289 . S
O441 Mg418 2.238 1_556 S
O441 Mg419 2.106 1_556 S
O442 Mg419 2.079 1_556 S
O442 C424 1.245 . S
O443 Mg422 2.038 1_556 S
O443 C424 1.274 . S
C444 O456 1.241 . S
C444 O457 1.280 . S
C445 O458 1.277 . S
C445 O459 1.245 1_655 S
C446 O470 1.247 . S
C446 O472 1.289 . S
Mg447 O448 1.926 . S
Mg447 O457 1.984 1_455 S
Mg447 O459 1.988 . S
Mg447 O460 2.061 . S
O448 Mg447 1.926 . S
O448 Mg449 1.986 1_455 S
O448 Mg450 1.917 . S
Mg449 O448 1.986 1_655 S
Mg449 O456 2.042 . S
Mg449 O458 2.041 . S
Mg449 O464 2.038 . S
Mg449 O472 2.238 . S
Mg450 O448 1.917 . S
Mg450 O451 1.917 . S
Mg450 O461 2.106 . S
Mg450 O463 2.079 . S
Mg450 O472 2.106 1_455 S
Mg450 O473 2.079 . S
O451 Mg450 1.917 . S
O451 Mg452 1.926 . S
O451 Mg453 1.986 . S
Mg452 O451 1.926 . S
Mg452 O466 1.984 . S
Mg452 O469 1.988 . S
Mg452 O470 2.061 1_455 S
Mg453 O451 1.986 . S
Mg453 O461 2.238 . S
Mg453 O465 2.042 . S
Mg453 O467 2.041 . S
Mg453 O474 2.038 . S
C454 O460 1.247 . S
C454 O461 1.289 . S
C455 O473 1.245 . S
C455 O474 1.274 . S
O456 C444 1.241 . S
O456 Mg449 2.042 . S
O457 C444 1.280 . S
O457 Mg447 1.984 1_655 S
O458 C445 1.277 . S
O458 Mg449 2.041 . S
O459 C445 1.245 1_455 S
O459 Mg447 1.988 . S
O460 Mg447 2.061 . S
O460 C454 1.247 . S
O461 Mg450 2.106 . S
O461 Mg453 2.238 . S
O461 C454 1.289 . S
C462 O463 1.245 1_655 S
C462 O464 1.274 . S
O463 Mg450 2.079 . S
O463 C462 1.245 1_455 S
O464 Mg449 2.038 . S
O464 C462 1.274 . S
O465 Mg453 2.042 . S
O465 C468 1.241 . S
O466 Mg452 1.984 . S
O466 C468 1.280 . S
O467 Mg453 2.041 . S
O467 C471 1.277 . S
C468 O465 1.241 . S
C468 O466 1.280 . S
O469 Mg452 1.988 . S
O469 C471 1.245 . S
O470 C446 1.247 . S
O470 Mg452 2.061 1_655 S
C471 O467 1.277 . S
C471 O469 1.245 . S
O472 C446 1.289 . S
O472 Mg449 2.238 . S
O472 Mg450 2.106 1_655 S
O473 Mg450 2.079 . S
O473 C455 1.245 . S
O474 Mg453 2.038 . S
O474 C455 1.274 . S
C475 O487 1.241 . S
C475 O488 1.280 . S
C476 O489 1.277 . S
C476 O490 1.245 . S
C477 O501 1.247 . S
C477 O503 1.289 . S
Mg478 O479 1.926 . S
Mg478 O488 1.984 . S
Mg478 O490 1.988 . S
Mg478 O491 2.061 . S
O479 Mg478 1.926 . S
O479 Mg480 1.982 1_545 S
O479 Mg481 1.917 . S
Mg480 O479 1.982 1_565 S
Mg480 O487 2.024 1_565 S
Mg480 O489 2.025 1_565 S
Mg480 O495 2.056 . S
Mg480 O503 2.256 . S
Mg481 O479 1.917 . S
Mg481 O482 1.917 1_545 S
Mg481 O492 2.106 . S
Mg481 O494 2.079 1_545 S
Mg481 O503 2.106 1_545 S
Mg481 O504 2.079 . S
O482 Mg481 1.917 1_565 S
O482 Mg483 1.926 . S
O482 Mg484 1.986 1_565 S
Mg483 O482 1.926 . S
Mg483 O497 1.984 . S
Mg483 O500 1.988 . S
Mg483 O501 2.061 . S
Mg484 O482 1.986 1_545 S
Mg484 O492 2.238 . S
Mg484 O496 2.042 1_545 S
Mg484 O498 2.041 1_545 S
Mg484 O505 2.038 . S
C485 O491 1.247 . S
C485 O492 1.289 . S
C486 O504 1.245 . S
C486 O505 1.274 . S
O487 C475 1.241 . S
O487 Mg480 2.024 1_545 S
O488 C475 1.280 . S
O488 Mg478 1.984 . S
O489 C476 1.277 . S
O489 Mg480 2.025 1_545 S
O490 C476 1.245 . S
O490 Mg478 1.988 . S
O491 Mg478 2.061 . S
O491 C485 1.247 . S
O492 Mg481 2.106 . S
O492 Mg484 2.238 . S
O492 C485 1.289 . S
C493 O494 1.245 . S
C493 O495 1.274 . S
O494 Mg481 2.079 1_565 S
O494 C493 1.245 . S
O495 Mg480 2.056 . S
O495 C493 1.274 . S
O496 Mg484 2.042 1_565 S
O496 C499 1.241 . S
O497 Mg483 1.984 . S
O497 C499 1.280 . S
O498 Mg484 2.041 1_565 S
O498 C502 1.277 . S
C499 O496 1.241 . S
C499 O497 1.280 . S
O500 Mg483 1.988 . S
O500 C502 1.245 . S
O501 C477 1.247 . S
O501 Mg483 2.061 . S
C502 O498 1.277 . S
C502 O500 1.245 . S
O503 C477 1.289 . S
O503 Mg480 2.256 . S
O503 Mg481 2.106 1_565 S
O504 Mg481 2.079 . S
O504 C486 1.245 . S
O505 Mg484 2.038 . S
O505 C486 1.274 . S
H506 C518 0.930 . S
H507 C520 0.930 . S
H508 C521 0.930 . S
H509 C525 0.959 . S
H510 C525 0.959 . S
H511 C525 0.961 . S
H512 C526 0.960 . S
H513 C526 0.961 . S
H514 C526 0.959 . S
H515 C529 0.929 . S
H516 C530 0.931 . S
H517 C532 0.930 . S
C518 H506 0.930 . S
C518 C519 1.399 . S
C518 C523 1.399 . S
C519 C518 1.399 . S
C519 C520 1.376 . S
C520 H507 0.930 . S
C520 C519 1.376 . S
C520 C521 1.388 . S
C521 H508 0.930 . S
C521 C520 1.388 . S
C521 C522 1.390 . S
C522 C521 1.390 . S
C522 C523 1.394 . S
C522 C528 1.465 . S
C523 C518 1.399 . S
C523 C522 1.394 . S
C523 C524 1.516 . S
C524 C523 1.516 . S
C524 C525 1.502 . S
C524 C526 1.561 . S
C524 C527 1.526 . S
C525 H509 0.959 . S
C525 H510 0.959 . S
C525 H511 0.961 . S
C525 C524 1.502 . S
C526 H512 0.960 . S
C526 H513 0.961 . S
C526 H514 0.959 . S
C526 C524 1.561 . S
C527 C524 1.526 . S
C527 C528 1.396 . S
C527 C532 1.390 . S
C528 C522 1.465 . S
C528 C527 1.396 . S
C528 C529 1.399 . S
C529 H515 0.929 . S
C529 C528 1.399 . S
C529 C530 1.385 . S
C530 H516 0.931 . S
C530 C529 1.385 . S
C530 C531 1.389 . S
C531 C530 1.389 . S
C531 C532 1.387 . S
C532 H517 0.930 . S
C532 C527 1.390 . S
C532 C531 1.387 . S
H533 C545 0.930 . S
H534 C547 0.930 . S
H535 C548 0.930 . S
H536 C552 0.959 . S
H537 C552 0.959 . S
H538 C552 0.961 . S
H539 C553 0.960 . S
H540 C553 0.961 . S
H541 C553 0.959 . S
H542 C556 0.929 . S
H543 C557 0.931 1_455 S
H544 C559 0.930 . S
C545 H533 0.930 . S
C545 C546 1.399 . S
C545 C550 1.399 . S
C546 C545 1.399 . S
C546 C547 1.376 . S
C547 H534 0.930 . S
C547 C546 1.376 . S
C547 C548 1.388 . S
C548 H535 0.930 . S
C548 C547 1.388 . S
C548 C549 1.390 . S
C549 C548 1.390 . S
C549 C550 1.394 . S
C549 C555 1.465 . S
C550 C545 1.399 . S
C550 C549 1.394 . S
C550 C551 1.516 . S
C551 C550 1.516 . S
C551 C552 1.502 . S
C551 C553 1.561 . S
C551 C554 1.526 . S
C552 H536 0.959 . S
C552 H537 0.959 . S
C552 H538 0.961 . S
C552 C551 1.502 . S
C553 H539 0.960 . S
C553 H540 0.961 . S
C553 H541 0.959 . S
C553 C551 1.561 . S
C554 C551 1.526 . S
C554 C555 1.396 . S
C554 C559 1.390 . S
C555 C549 1.465 . S
C555 C554 1.396 . S
C555 C556 1.399 . S
C556 H542 0.929 . S
C556 C555 1.399 . S
C556 C557 1.385 . S
C557 H543 0.931 1_655 S
C557 C556 1.385 . S
C557 C558 1.389 . S
C558 C557 1.389 . S
C558 C559 1.387 . S
C559 H544 0.930 . S
C559 C554 1.390 . S
C559 C558 1.387 . S
H560 C572 0.930 . S
H561 C574 0.930 . S
H562 C575 0.930 . S
H563 C579 0.959 . S
H564 C579 0.959 . S
H565 C579 0.961 . S
H566 C580 0.960 . S
H567 C580 0.961 . S
H568 C580 0.959 . S
H569 C583 0.929 . S
H570 C584 0.931 . S
H571 C586 0.930 . S
C572 H560 0.930 . S
C572 C573 1.399 . S
C572 C577 1.399 . S
C573 C572 1.399 . S
C573 C574 1.376 . S
C574 H561 0.930 . S
C574 C573 1.376 . S
C574 C575 1.388 . S
C575 H562 0.930 . S
C575 C574 1.388 . S
C575 C576 1.390 . S
C576 C575 1.390 . S
C576 C577 1.394 . S
C576 C582 1.465 . S
C577 C572 1.399 . S
C577 C576 1.394 . S
C577 C578 1.516 . S
C578 C577 1.516 . S
C578 C579 1.502 . S
C578 C580 1.561 . S
C578 C581 1.526 . S
C579 H563 0.959 . S
C579 H564 0.959 . S
C579 H565 0.961 . S
C579 C578 1.502 . S
C580 H566 0.960 . S
C580 H567 0.961 . S
C580 H568 0.959 . S
C580 C578 1.561 . S
C581 C578 1.526 . S
C581 C582 1.396 . S
C581 C586 1.390 . S
C582 C576 1.465 . S
C582 C581 1.396 . S
C582 C583 1.399 . S
C583 H569 0.929 . S
C583 C582 1.399 . S
C583 C584 1.385 . S
C584 H570 0.931 . S
C584 C583 1.385 . S
C584 C585 1.389 . S
C585 C584 1.389 . S
C585 C586 1.387 . S
C586 H571 0.930 . S
C586 C581 1.390 . S
C586 C585 1.387 . S
H587 C599 0.930 . S
H588 C601 0.930 . S
H589 C602 0.930 . S
H590 C606 0.960 . S
H591 C606 0.967 . S
H592 C606 0.962 . S
H593 C607 0.960 . S
H594 C607 0.961 . S
H595 C607 0.959 . S
H596 C610 0.929 . S
H597 C611 0.931 . S
H598 C613 0.930 . S
C599 H587 0.930 . S
C599 C600 1.399 . S
C599 C604 1.399 . S
C600 C599 1.399 . S
C600 C601 1.376 . S
C601 H588 0.930 . S
C601 C600 1.376 . S
C601 C602 1.388 . S
C602 H589 0.930 . S
C602 C601 1.388 . S
C602 C603 1.390 . S
C603 C602 1.390 . S
C603 C604 1.394 . S
C603 C609 1.465 . S
C604 C599 1.399 . S
C604 C603 1.394 . S
C604 C605 1.516 . S
C605 C604 1.516 . S
C605 C606 1.495 1_565 S
C605 C607 1.561 . S
C605 C608 1.526 . S
C606 H590 0.960 . S
C606 H591 0.967 . S
C606 H592 0.962 . S
C606 C605 1.495 1_545 S
C607 H593 0.960 . S
C607 H594 0.961 . S
C607 H595 0.959 . S
C607 C605 1.561 . S
C608 C605 1.526 . S
C608 C609 1.396 . S
C608 C613 1.390 . S
C609 C603 1.465 . S
C609 C608 1.396 . S
C609 C610 1.399 . S
C610 H596 0.929 . S
C610 C609 1.399 . S
C610 C611 1.385 . S
C611 H597 0.931 . S
C611 C610 1.385 . S
C611 C612 1.389 . S
C612 C611 1.389 . S
C612 C613 1.387 . S
C613 H598 0.930 . S
C613 C608 1.390 . S
C613 C612 1.387 . S
H614 C626 0.930 . S
H615 C628 0.930 . S
H616 C629 0.930 . S
H617 C633 0.959 . S
H618 C633 0.959 . S
H619 C633 0.961 . S
H620 C634 0.960 . S
H621 C634 0.961 . S
H622 C634 0.959 . S
H623 C637 0.929 . S
H624 C638 0.931 1_545 S
H625 C640 0.930 . S
C626 H614 0.930 . S
C626 C627 1.399 . S
C626 C631 1.399 . S
C627 C626 1.399 . S
C627 C628 1.376 . S
C628 H615 0.930 . S
C628 C627 1.376 . S
C628 C629 1.388 . S
C629 H616 0.930 . S
C629 C628 1.388 . S
C629 C630 1.390 . S
C630 C629 1.390 . S
C630 C631 1.394 . S
C630 C636 1.465 . S
C631 C626 1.399 . S
C631 C630 1.394 . S
C631 C632 1.516 . S
C632 C631 1.516 . S
C632 C633 1.502 . S
C632 C634 1.561 . S
C632 C635 1.526 . S
C633 H617 0.959 . S
C633 H618 0.959 . S
C633 H619 0.961 . S
C633 C632 1.502 . S
C634 H620 0.960 . S
C634 H621 0.961 . S
C634 H622 0.959 . S
C634 C632 1.561 . S
C635 C632 1.526 . S
C635 C636 1.396 . S
C635 C640 1.390 . S
C636 C630 1.465 . S
C636 C635 1.396 . S
C636 C637 1.399 . S
C637 H623 0.929 . S
C637 C636 1.399 . S
C637 C638 1.385 . S
C638 H624 0.931 1_565 S
C638 C637 1.385 . S
C638 C639 1.389 . S
C639 C638 1.389 . S
C639 C640 1.387 . S
C640 H625 0.930 . S
C640 C635 1.390 . S
C640 C639 1.387 . S
H641 C653 0.930 . S
H642 C655 0.930 . S
H643 C656 0.930 . S
H644 C660 0.959 . S
H645 C660 0.959 . S
H646 C660 0.961 . S
H647 C661 0.960 . S
H648 C661 0.961 . S
H649 C661 0.959 . S
H650 C664 0.929 . S
H651 C665 0.931 . S
H652 C667 0.930 . S
C653 H641 0.930 . S
C653 C654 1.399 . S
C653 C658 1.399 . S
C654 C653 1.399 . S
C654 C655 1.376 . S
C655 H642 0.930 . S
C655 C654 1.376 . S
C655 C656 1.388 . S
C656 H643 0.930 . S
C656 C655 1.388 . S
C656 C657 1.390 . S
C657 C656 1.390 . S
C657 C658 1.394 . S
C657 C663 1.465 . S
C658 C653 1.399 . S
C658 C657 1.394 . S
C658 C659 1.516 . S
C659 C658 1.516 . S
C659 C660 1.502 . S
C659 C661 1.561 . S
C659 C662 1.526 . S
C660 H644 0.959 . S
C660 H645 0.959 . S
C660 H646 0.961 . S
C660 C659 1.502 . S
C661 H647 0.960 . S
C661 H648 0.961 . S
C661 H649 0.959 . S
C661 C659 1.561 . S
C662 C659 1.526 . S
C662 C663 1.396 . S
C662 C667 1.390 . S
C663 C657 1.465 . S
C663 C662 1.396 . S
C663 C664 1.399 . S
C664 H650 0.929 . S
C664 C663 1.399 . S
C664 C665 1.385 . S
C665 H651 0.931 . S
C665 C664 1.385 . S
C665 C666 1.389 . S
C666 C665 1.389 . S
C666 C667 1.387 . S
C667 H652 0.930 . S
C667 C662 1.390 . S
C667 C666 1.387 . S
H668 C680 0.930 . S
H669 C682 0.930 . S
H670 C683 0.930 . S
H671 C687 0.959 . S
H672 C687 0.959 . S
H673 C687 0.961 . S
H674 C688 0.960 . S
H675 C688 0.961 . S
H676 C688 0.959 . S
H677 C691 0.929 . S
H678 C692 0.931 . S
H679 C694 0.930 . S
C680 H668 0.930 . S
C680 C681 1.399 . S
C680 C685 1.399 . S
C681 C680 1.399 . S
C681 C682 1.376 . S
C682 H669 0.930 . S
C682 C681 1.376 . S
C682 C683 1.388 . S
C683 H670 0.930 . S
C683 C682 1.388 . S
C683 C684 1.390 . S
C684 C683 1.390 . S
C684 C685 1.394 . S
C684 C690 1.465 . S
C685 C680 1.399 . S
C685 C684 1.394 . S
C685 C686 1.516 . S
C686 C685 1.516 . S
C686 C687 1.502 . S
C686 C688 1.561 . S
C686 C689 1.526 . S
C687 H671 0.959 . S
C687 H672 0.959 . S
C687 H673 0.961 . S
C687 C686 1.502 . S
C688 H674 0.960 . S
C688 H675 0.961 . S
C688 H676 0.959 . S
C688 C686 1.561 . S
C689 C686 1.526 . S
C689 C690 1.396 . S
C689 C694 1.390 . S
C690 C684 1.465 . S
C690 C689 1.396 . S
C690 C691 1.399 . S
C691 H677 0.929 . S
C691 C690 1.399 . S
C691 C692 1.385 . S
C692 H678 0.931 . S
C692 C691 1.385 . S
C692 C693 1.389 . S
C693 C692 1.389 . S
C693 C694 1.387 . S
C694 H679 0.930 . S
C694 C689 1.390 . S
C694 C693 1.387 . S
H695 C707 0.930 . S
H696 C709 0.930 . S
H697 C710 0.930 . S
H698 C714 0.959 . S
H699 C714 0.959 . S
H700 C714 0.961 . S
H701 C715 0.960 . S
H702 C715 0.961 . S
H703 C715 0.959 . S
H704 C718 0.929 . S
H705 C719 0.931 . S
H706 C721 0.930 . S
C707 H695 0.930 . S
C707 C708 1.399 . S
C707 C712 1.399 . S
C708 C707 1.399 . S
C708 C709 1.376 . S
C709 H696 0.930 . S
C709 C708 1.376 . S
C709 C710 1.388 . S
C710 H697 0.930 . S
C710 C709 1.388 . S
C710 C711 1.390 . S
C711 C710 1.390 . S
C711 C712 1.394 . S
C711 C717 1.465 . S
C712 C707 1.399 . S
C712 C711 1.394 . S
C712 C713 1.516 . S
C713 C712 1.516 . S
C713 C714 1.502 . S
C713 C715 1.561 . S
C713 C716 1.526 . S
C714 H698 0.959 . S
C714 H699 0.959 . S
C714 H700 0.961 . S
C714 C713 1.502 . S
C715 H701 0.960 . S
C715 H702 0.961 . S
C715 H703 0.959 . S
C715 C713 1.561 . S
C716 C713 1.526 . S
C716 C717 1.396 . S
C716 C721 1.390 . S
C717 C711 1.465 . S
C717 C716 1.396 . S
C717 C718 1.399 . S
C718 H704 0.929 . S
C718 C717 1.399 . S
C718 C719 1.385 . S
C719 H705 0.931 . S
C719 C718 1.385 . S
C719 C720 1.389 . S
C720 C719 1.389 . S
C720 C721 1.387 . S
C721 H706 0.930 . S
C721 C716 1.390 . S
C721 C720 1.387 . S
H722 C734 0.930 . S
H723 C736 0.930 . S
H724 C737 0.930 . S
H725 C741 0.959 . S
H726 C741 0.959 . S
H727 C741 0.961 . S
H728 C742 0.960 . S
H729 C742 0.961 . S
H730 C742 0.959 . S
H731 C745 0.929 . S
H732 C746 0.931 . S
H733 C748 0.930 . S
C734 H722 0.930 . S
C734 C735 1.399 . S
C734 C739 1.399 . S
C735 C734 1.399 . S
C735 C736 1.376 . S
C736 H723 0.930 . S
C736 C735 1.376 . S
C736 C737 1.388 . S
C737 H724 0.930 . S
C737 C736 1.388 . S
C737 C738 1.390 . S
C738 C737 1.390 . S
C738 C739 1.394 . S
C738 C744 1.465 . S
C739 C734 1.399 . S
C739 C738 1.394 . S
C739 C740 1.516 . S
C740 C739 1.516 . S
C740 C741 1.502 . S
C740 C742 1.561 . S
C740 C743 1.526 . S
C741 H725 0.959 . S
C741 H726 0.959 . S
C741 H727 0.961 . S
C741 C740 1.502 . S
C742 H728 0.960 . S
C742 H729 0.961 . S
C742 H730 0.959 . S
C742 C740 1.561 . S
C743 C740 1.526 . S
C743 C744 1.396 . S
C743 C748 1.390 . S
C744 C738 1.465 . S
C744 C743 1.396 . S
C744 C745 1.399 . S
C745 H731 0.929 . S
C745 C744 1.399 . S
C745 C746 1.385 . S
C746 H732 0.931 . S
C746 C745 1.385 . S
C746 C747 1.389 . S
C747 C746 1.389 . S
C747 C748 1.387 . S
C748 H733 0.930 . S
C748 C743 1.390 . S
C748 C747 1.387 . S
H749 C761 0.930 . S
H750 C763 0.930 . S
H751 C764 0.930 . S
H752 C768 0.959 . S
H753 C768 0.959 . S
H754 C768 0.961 . S
H755 C769 0.960 . S
H756 C769 0.961 . S
H757 C769 0.959 . S
H758 C772 0.929 . S
H759 C773 0.931 . S
H760 C775 0.930 . S
C761 H749 0.930 . S
C761 C762 1.399 . S
C761 C766 1.399 . S
C762 C761 1.399 . S
C762 C763 1.376 . S
C763 H750 0.930 . S
C763 C762 1.376 . S
C763 C764 1.388 . S
C764 H751 0.930 . S
C764 C763 1.388 . S
C764 C765 1.390 . S
C765 C764 1.390 . S
C765 C766 1.394 . S
C765 C771 1.465 . S
C766 C761 1.399 . S
C766 C765 1.394 . S
C766 C767 1.516 . S
C767 C766 1.516 . S
C767 C768 1.502 . S
C767 C769 1.561 . S
C767 C770 1.526 . S
C768 H752 0.959 . S
C768 H753 0.959 . S
C768 H754 0.961 . S
C768 C767 1.502 . S
C769 H755 0.960 . S
C769 H756 0.961 . S
C769 H757 0.959 . S
C769 C767 1.561 . S
C770 C767 1.526 . S
C770 C771 1.396 . S
C770 C775 1.390 . S
C771 C765 1.465 . S
C771 C770 1.396 . S
C771 C772 1.399 . S
C772 H758 0.929 . S
C772 C771 1.399 . S
C772 C773 1.385 . S
C773 H759 0.931 . S
C773 C772 1.385 . S
C773 C774 1.389 . S
C774 C773 1.389 . S
C774 C775 1.387 . S
C775 H760 0.930 . S
C775 C770 1.390 . S
C775 C774 1.387 . S
H776 C788 0.930 . S
H777 C790 0.930 . S
H778 C791 0.930 . S
H779 C795 0.959 . S
H780 C795 0.959 . S
H781 C795 0.961 . S
H782 C796 0.960 . S
H783 C796 0.961 . S
H784 C796 0.959 . S
H785 C799 0.929 . S
H786 C800 0.931 . S
H787 C802 0.930 . S
C788 H776 0.930 . S
C788 C789 1.399 . S
C788 C793 1.399 . S
C789 C788 1.399 . S
C789 C790 1.376 . S
C790 H777 0.930 . S
C790 C789 1.376 . S
C790 C791 1.388 . S
C791 H778 0.930 . S
C791 C790 1.388 . S
C791 C792 1.390 . S
C792 C791 1.390 . S
C792 C793 1.394 . S
C792 C798 1.465 . S
C793 C788 1.399 . S
C793 C792 1.394 . S
C793 C794 1.516 . S
C794 C793 1.516 . S
C794 C795 1.502 . S
C794 C796 1.561 . S
C794 C797 1.526 . S
C795 H779 0.959 . S
C795 H780 0.959 . S
C795 H781 0.961 . S
C795 C794 1.502 . S
C796 H782 0.960 . S
C796 H783 0.961 . S
C796 H784 0.959 . S
C796 C794 1.561 . S
C797 C794 1.526 . S
C797 C798 1.396 . S
C797 C802 1.390 . S
C798 C792 1.465 . S
C798 C797 1.396 . S
C798 C799 1.399 . S
C799 H785 0.929 . S
C799 C798 1.399 . S
C799 C800 1.385 . S
C800 H786 0.931 . S
C800 C799 1.385 . S
C800 C801 1.389 . S
C801 C800 1.389 . S
C801 C802 1.387 . S
C802 H787 0.930 . S
C802 C797 1.390 . S
C802 C801 1.387 . S
H803 C815 0.930 . S
H804 C817 0.930 . S
H805 C818 0.930 . S
H806 C822 0.959 . S
H807 C822 0.959 . S
H808 C822 0.961 . S
H809 C823 0.960 . S
H810 C823 0.961 . S
H811 C823 0.959 . S
H812 C826 0.929 . S
H813 C827 0.931 . S
H814 C829 0.930 . S
C815 H803 0.930 . S
C815 C816 1.399 . S
C815 C820 1.399 . S
C816 C815 1.399 . S
C816 C817 1.376 . S
C817 H804 0.930 . S
C817 C816 1.376 . S
C817 C818 1.388 . S
C818 H805 0.930 . S
C818 C817 1.388 . S
C818 C819 1.390 . S
C819 C818 1.390 . S
C819 C820 1.394 . S
C819 C825 1.465 . S
C820 C815 1.399 . S
C820 C819 1.394 . S
C820 C821 1.516 . S
C821 C820 1.516 . S
C821 C822 1.502 . S
C821 C823 1.561 . S
C821 C824 1.526 . S
C822 H806 0.959 . S
C822 H807 0.959 . S
C822 H808 0.961 . S
C822 C821 1.502 . S
C823 H809 0.960 . S
C823 H810 0.961 . S
C823 H811 0.959 . S
C823 C821 1.561 . S
C824 C821 1.526 . S
C824 C825 1.396 . S
C824 C829 1.390 . S
C825 C819 1.465 . S
C825 C824 1.396 . S
C825 C826 1.399 . S
C826 H812 0.929 . S
C826 C825 1.399 . S
C826 C827 1.385 . S
C827 H813 0.931 . S
C827 C826 1.385 . S
C827 C828 1.389 . S
C828 C827 1.389 . S
C828 C829 1.387 . S
C829 H814 0.930 . S
C829 C824 1.390 . S
C829 C828 1.387 . S
H830 C842 0.930 . S
H831 C844 0.930 . S
H832 C845 0.930 . S
H833 C849 0.959 . S
H834 C849 0.959 . S
H835 C849 0.961 . S
H836 C850 0.960 . S
H837 C850 0.961 . S
H838 C850 0.959 . S
H839 C853 0.929 . S
H840 C854 0.931 1_554 S
H841 C856 0.930 . S
C842 H830 0.930 . S
C842 C843 1.399 . S
C842 C847 1.399 . S
C843 C842 1.399 . S
C843 C844 1.376 . S
C844 H831 0.930 . S
C844 C843 1.376 . S
C844 C845 1.388 . S
C845 H832 0.930 . S
C845 C844 1.388 . S
C845 C846 1.390 . S
C846 C845 1.390 . S
C846 C847 1.394 . S
C846 C852 1.465 . S
C847 C842 1.399 . S
C847 C846 1.394 . S
C847 C848 1.516 . S
C848 C847 1.516 . S
C848 C849 1.502 . S
C848 C850 1.561 . S
C848 C851 1.526 . S
C849 H833 0.959 . S
C849 H834 0.959 . S
C849 H835 0.961 . S
C849 C848 1.502 . S
C850 H836 0.960 . S
C850 H837 0.961 . S
C850 H838 0.959 . S
C850 C848 1.561 . S
C851 C848 1.526 . S
C851 C852 1.396 . S
C851 C856 1.390 . S
C852 C846 1.465 . S
C852 C851 1.396 . S
C852 C853 1.399 . S
C853 H839 0.929 . S
C853 C852 1.399 . S
C853 C854 1.385 . S
C854 H840 0.931 1_556 S
C854 C853 1.385 . S
C854 C855 1.389 . S
C855 C854 1.389 . S
C855 C856 1.387 . S
C856 H841 0.930 . S
C856 C851 1.390 . S
C856 C855 1.387 . S
H857 C869 0.930 . S
H858 C871 0.930 . S
H859 C872 0.930 . S
H860 C876 0.959 . S
H861 C876 0.959 . S
H862 C876 0.961 . S
H863 C877 0.960 . S
H864 C877 0.961 . S
H865 C877 0.959 . S
H866 C880 0.929 . S
H867 C881 0.931 . S
H868 C883 0.930 . S
C869 H857 0.930 . S
C869 C870 1.399 . S
C869 C874 1.399 . S
C870 C869 1.399 . S
C870 C871 1.376 . S
C871 H858 0.930 . S
C871 C870 1.376 . S
C871 C872 1.388 . S
C872 H859 0.930 . S
C872 C871 1.388 . S
C872 C873 1.390 . S
C873 C872 1.390 . S
C873 C874 1.394 . S
C873 C879 1.465 . S
C874 C869 1.399 . S
C874 C873 1.394 . S
C874 C875 1.516 . S
C875 C874 1.516 . S
C875 C876 1.502 . S
C875 C877 1.561 . S
C875 C878 1.526 . S
C876 H860 0.959 . S
C876 H861 0.959 . S
C876 H862 0.961 . S
C876 C875 1.502 . S
C877 H863 0.960 . S
C877 H864 0.961 . S
C877 H865 0.959 . S
C877 C875 1.561 . S
C878 C875 1.526 . S
C878 C879 1.396 . S
C878 C883 1.390 . S
C879 C873 1.465 . S
C879 C878 1.396 . S
C879 C880 1.399 . S
C880 H866 0.929 . S
C880 C879 1.399 . S
C880 C881 1.385 . S
C881 H867 0.931 . S
C881 C880 1.385 . S
C881 C882 1.389 . S
C882 C881 1.389 . S
C882 C883 1.387 . S
C883 H868 0.930 . S
C883 C878 1.390 . S
C883 C882 1.387 . S
H884 C896 0.930 . S
H885 C898 0.930 . S
H886 C899 0.930 . S
H887 C903 0.959 . S
H888 C903 0.959 . S
H889 C903 0.961 . S
H890 C904 0.960 . S
H891 C904 0.961 . S
H892 C904 0.959 . S
H893 C907 0.929 . S
H894 C908 0.954 . S
H895 C910 0.930 . S
C896 H884 0.930 . S
C896 C897 1.399 . S
C896 C901 1.399 . S
C897 C896 1.399 . S
C897 C898 1.376 . S
C898 H885 0.930 . S
C898 C897 1.376 . S
C898 C899 1.388 . S
C899 H886 0.930 . S
C899 C898 1.388 . S
C899 C900 1.390 . S
C900 C899 1.390 . S
C900 C901 1.394 . S
C900 C906 1.465 . S
C901 C896 1.399 . S
C901 C900 1.394 . S
C901 C902 1.516 . S
C902 C901 1.516 . S
C902 C903 1.502 . S
C902 C904 1.561 . S
C902 C905 1.526 . S
C903 H887 0.959 . S
C903 H888 0.959 . S
C903 H889 0.961 . S
C903 C902 1.502 . S
C904 H890 0.960 . S
C904 H891 0.961 . S
C904 H892 0.959 . S
C904 C902 1.561 . S
C905 C902 1.526 . S
C905 C906 1.396 . S
C905 C910 1.390 . S
C906 C900 1.465 . S
C906 C905 1.396 . S
C906 C907 1.399 . S
C907 H893 0.929 . S
C907 C906 1.399 . S
C907 C908 1.385 . S
C908 H894 0.954 . S
C908 C907 1.385 . S
C908 C909 1.389 . S
C909 C908 1.389 . S
C909 C910 1.387 . S
C910 H895 0.930 . S
C910 C905 1.390 . S
C910 C909 1.387 . S
H911 C923 0.930 . S
H912 C925 0.930 . S
H913 C926 0.930 . S
H914 C930 0.959 . S
H915 C930 0.959 . S
H916 C930 0.961 . S
H917 C931 0.960 . S
H918 C931 0.961 . S
H919 C931 0.959 . S
H920 C934 0.929 . S
H921 C935 0.931 . S
H922 C937 0.930 . S
C923 H911 0.930 . S
C923 C924 1.399 . S
C923 C928 1.399 . S
C924 C923 1.399 . S
C924 C925 1.376 . S
C925 H912 0.930 . S
C925 C924 1.376 . S
C925 C926 1.388 . S
C926 H913 0.930 . S
C926 C925 1.388 . S
C926 C927 1.390 . S
C927 C926 1.390 . S
C927 C928 1.394 . S
C927 C933 1.465 . S
C928 C923 1.399 . S
C928 C927 1.394 . S
C928 C929 1.516 . S
C929 C928 1.516 . S
C929 C930 1.502 . S
C929 C931 1.561 . S
C929 C932 1.526 . S
C930 H914 0.959 . S
C930 H915 0.959 . S
C930 H916 0.961 . S
C930 C929 1.502 . S
C931 H917 0.960 . S
C931 H918 0.961 . S
C931 H919 0.959 . S
C931 C929 1.561 . S
C932 C929 1.526 . S
C932 C933 1.396 . S
C932 C937 1.390 . S
C933 C927 1.465 . S
C933 C932 1.396 . S
C933 C934 1.399 . S
C934 H920 0.929 . S
C934 C933 1.399 . S
C934 C935 1.385 . S
C935 H921 0.931 . S
C935 C934 1.385 . S
C935 C936 1.389 . S
C936 C935 1.389 . S
C936 C937 1.387 . S
C937 H922 0.930 . S
C937 C932 1.390 . S
C937 C936 1.387 . S
H938 C950 0.930 . S
H939 C952 0.930 . S
H940 C953 0.930 . S
H941 C957 0.959 . S
H942 C957 0.959 . S
H943 C957 0.961 . S
H944 C958 0.960 . S
H945 C958 0.961 . S
H946 C958 0.959 . S
H947 C961 0.929 . S
H948 C962 0.931 . S
H949 C964 0.930 . S
C950 H938 0.930 . S
C950 C951 1.399 . S
C950 C955 1.399 . S
C951 C950 1.399 . S
C951 C952 1.376 . S
C952 H939 0.930 . S
C952 C951 1.376 . S
C952 C953 1.388 . S
C953 H940 0.930 . S
C953 C952 1.388 . S
C953 C954 1.390 . S
C954 C953 1.390 . S
C954 C955 1.394 . S
C954 C960 1.465 . S
C955 C950 1.399 . S
C955 C954 1.394 . S
C955 C956 1.516 . S
C956 C955 1.516 . S
C956 C957 1.502 . S
C956 C958 1.561 . S
C956 C959 1.526 . S
C957 H941 0.959 . S
C957 H942 0.959 . S
C957 H943 0.961 . S
C957 C956 1.502 . S
C958 H944 0.960 . S
C958 H945 0.961 . S
C958 H946 0.959 . S
C958 C956 1.561 . S
C959 C956 1.526 . S
C959 C960 1.396 . S
C959 C964 1.390 . S
C960 C954 1.465 . S
C960 C959 1.396 . S
C960 C961 1.399 . S
C961 H947 0.929 . S
C961 C960 1.399 . S
C961 C962 1.385 . S
C962 H948 0.931 . S
C962 C961 1.385 . S
C962 C963 1.389 . S
C963 C962 1.389 . S
C963 C964 1.387 . S
C964 H949 0.930 . S
C964 C959 1.390 . S
C964 C963 1.387 . S
H965 C977 0.930 . S
H966 C979 0.930 . S
H967 C980 0.930 . S
H968 C984 0.959 . S
H969 C984 0.959 . S
H970 C984 0.961 . S
H971 C985 0.960 . S
H972 C985 0.961 . S
H973 C985 0.959 . S
H974 C988 0.929 . S
H975 C989 0.931 . S
H976 C991 0.930 . S
C977 H965 0.930 . S
C977 C978 1.399 . S
C977 C982 1.399 . S
C978 C977 1.399 . S
C978 C979 1.376 . S
C979 H966 0.930 . S
C979 C978 1.376 . S
C979 C980 1.388 . S
C980 H967 0.930 . S
C980 C979 1.388 . S
C980 C981 1.390 . S
C981 C980 1.390 . S
C981 C982 1.394 . S
C981 C987 1.465 . S
C982 C977 1.399 . S
C982 C981 1.394 . S
C982 C983 1.516 . S
C983 C982 1.516 . S
C983 C984 1.502 . S
C983 C985 1.561 . S
C983 C986 1.526 . S
C984 H968 0.959 . S
C984 H969 0.959 . S
C984 H970 0.961 . S
C984 C983 1.502 . S
C985 H971 0.960 . S
C985 H972 0.961 . S
C985 H973 0.959 . S
C985 C983 1.561 . S
C986 C983 1.526 . S
C986 C987 1.396 . S
C986 C991 1.390 . S
C987 C981 1.465 . S
C987 C986 1.396 . S
C987 C988 1.399 . S
C988 H974 0.929 . S
C988 C987 1.399 . S
C988 C989 1.385 . S
C989 H975 0.931 . S
C989 C988 1.385 . S
C989 C990 1.389 . S
C990 C989 1.389 . S
C990 C991 1.387 . S
C991 H976 0.930 . S
C991 C986 1.390 . S
C991 C990 1.387 . S
H992 C1004 0.930 . S
H993 C1006 0.930 . S
H994 C1007 0.930 . S
H995 C1011 0.959 . S
H996 C1011 0.959 . S
H997 C1011 0.961 . S
H998 C1012 0.960 . S
H999 C1012 0.961 . S
H1000 C1012 0.959 . S
H1001 C1015 0.929 . S
H1002 C1016 0.931 . S
H1003 C1018 0.930 . S
C1004 H992 0.930 . S
C1004 C1005 1.399 . S
C1004 C1009 1.399 . S
C1005 C1004 1.399 . S
C1005 C1006 1.376 . S
C1006 H993 0.930 . S
C1006 C1005 1.376 . S
C1006 C1007 1.388 . S
C1007 H994 0.930 . S
C1007 C1006 1.388 . S
C1007 C1008 1.390 . S
C1008 C1007 1.390 . S
C1008 C1009 1.394 . S
C1008 C1014 1.465 . S
C1009 C1004 1.399 . S
C1009 C1008 1.394 . S
C1009 C1010 1.516 . S
C1010 C1009 1.516 . S
C1010 C1011 1.502 . S
C1010 C1012 1.561 . S
C1010 C1013 1.526 . S
C1011 H995 0.959 . S
C1011 H996 0.959 . S
C1011 H997 0.961 . S
C1011 C1010 1.502 . S
C1012 H998 0.960 . S
C1012 H999 0.961 . S
C1012 H1000 0.959 . S
C1012 C1010 1.561 . S
C1013 C1010 1.526 . S
C1013 C1014 1.396 . S
C1013 C1018 1.390 . S
C1014 C1008 1.465 . S
C1014 C1013 1.396 . S
C1014 C1015 1.399 . S
C1015 H1001 0.929 . S
C1015 C1014 1.399 . S
C1015 C1016 1.385 . S
C1016 H1002 0.931 . S
C1016 C1015 1.385 . S
C1016 C1017 1.389 . S
C1017 C1016 1.389 . S
C1017 C1018 1.387 . S
C1018 H1003 0.930 . S
C1018 C1013 1.390 . S
C1018 C1017 1.387 . S
H1019 C1031 0.930 . S
H1020 C1033 0.930 . S
H1021 C1034 0.930 . S
H1022 C1038 0.959 . S
H1023 C1038 0.959 . S
H1024 C1038 0.961 . S
H1025 C1039 0.960 . S
H1026 C1039 0.961 . S
H1027 C1039 0.959 . S
H1028 C1042 0.929 . S
H1029 C1043 0.931 . S
H1030 C1045 0.930 . S
C1031 H1019 0.930 . S
C1031 C1032 1.399 . S
C1031 C1036 1.399 . S
C1032 C1031 1.399 . S
C1032 C1033 1.376 . S
C1033 H1020 0.930 . S
C1033 C1032 1.376 . S
C1033 C1034 1.388 . S
C1034 H1021 0.930 . S
C1034 C1033 1.388 . S
C1034 C1035 1.390 . S
C1035 C1034 1.390 . S
C1035 C1036 1.394 . S
C1035 C1041 1.465 . S
C1036 C1031 1.399 . S
C1036 C1035 1.394 . S
C1036 C1037 1.516 . S
C1037 C1036 1.516 . S
C1037 C1038 1.502 . S
C1037 C1039 1.561 . S
C1037 C1040 1.526 . S
C1038 H1022 0.959 . S
C1038 H1023 0.959 . S
C1038 H1024 0.961 . S
C1038 C1037 1.502 . S
C1039 H1025 0.960 . S
C1039 H1026 0.961 . S
C1039 H1027 0.959 . S
C1039 C1037 1.561 . S
C1040 C1037 1.526 . S
C1040 C1041 1.396 . S
C1040 C1045 1.390 . S
C1041 C1035 1.465 . S
C1041 C1040 1.396 . S
C1041 C1042 1.399 . S
C1042 H1028 0.929 . S
C1042 C1041 1.399 . S
C1042 C1043 1.385 . S
C1043 H1029 0.931 . S
C1043 C1042 1.385 . S
C1043 C1044 1.389 . S
C1044 C1043 1.389 . S
C1044 C1045 1.387 . S
C1045 H1030 0.930 . S
C1045 C1040 1.390 . S
C1045 C1044 1.387 . S
H1046 C1058 0.930 . S
H1047 C1060 0.930 . S
H1048 C1061 0.930 1_545 S
H1049 C1065 0.959 . S
H1050 C1065 0.959 . S
H1051 C1065 0.961 . S
H1052 C1066 0.960 . S
H1053 C1066 0.961 . S
H1054 C1066 0.959 . S
H1055 C1069 0.929 . S
H1056 C1070 0.931 . S
H1057 C1072 0.930 . S
C1058 H1046 0.930 . S
C1058 C1059 1.399 . S
C1058 C1063 1.399 . S
C1059 C1058 1.399 . S
C1059 C1060 1.376 . S
C1060 H1047 0.930 . S
C1060 C1059 1.376 . S
C1060 C1061 1.388 . S
C1061 H1048 0.930 1_565 S
C1061 C1060 1.388 . S
C1061 C1062 1.390 . S
C1062 C1061 1.390 . S
C1062 C1063 1.394 . S
C1062 C1068 1.465 . S
C1063 C1058 1.399 . S
C1063 C1062 1.394 . S
C1063 C1064 1.516 . S
C1064 C1063 1.516 . S
C1064 C1065 1.502 . S
C1064 C1066 1.561 . S
C1064 C1067 1.526 . S
C1065 H1049 0.959 . S
C1065 H1050 0.959 . S
C1065 H1051 0.961 . S
C1065 C1064 1.502 . S
C1066 H1052 0.960 . S
C1066 H1053 0.961 . S
C1066 H1054 0.959 . S
C1066 C1064 1.561 . S
C1067 C1064 1.526 . S
C1067 C1068 1.396 . S
C1067 C1072 1.390 . S
C1068 C1062 1.465 . S
C1068 C1067 1.396 . S
C1068 C1069 1.399 1_565 S
C1069 H1055 0.929 . S
C1069 C1068 1.399 1_545 S
C1069 C1070 1.385 . S
C1070 H1056 0.931 . S
C1070 C1069 1.385 . S
C1070 C1071 1.389 1_545 S
C1071 C1070 1.389 1_565 S
C1071 C1072 1.387 . S
C1072 H1057 0.930 . S
C1072 C1067 1.390 . S
C1072 C1071 1.387 . S
H1073 C1085 0.930 . S
H1074 C1087 0.930 . S
H1075 C1088 0.930 . S
H1076 C1092 0.959 . S
H1077 C1092 0.959 . S
H1078 C1092 0.961 . S
H1079 C1093 0.960 . S
H1080 C1093 0.961 . S
H1081 C1093 0.959 . S
H1082 C1096 0.929 . S
H1083 C1097 0.931 . S
H1084 C1099 0.930 . S
C1085 H1073 0.930 . S
C1085 C1086 1.399 . S
C1085 C1090 1.399 . S
C1086 C1085 1.399 . S
C1086 C1087 1.376 . S
C1087 H1074 0.930 . S
C1087 C1086 1.376 . S
C1087 C1088 1.388 . S
C1088 H1075 0.930 . S
C1088 C1087 1.388 . S
C1088 C1089 1.390 . S
C1089 C1088 1.390 . S
C1089 C1090 1.394 . S
C1089 C1095 1.465 . S
C1090 C1085 1.399 . S
C1090 C1089 1.394 . S
C1090 C1091 1.516 . S
C1091 C1090 1.516 . S
C1091 C1092 1.502 . S
C1091 C1093 1.561 . S
C1091 C1094 1.526 . S
C1092 H1076 0.959 . S
C1092 H1077 0.959 . S
C1092 H1078 0.961 . S
C1092 C1091 1.502 . S
C1093 H1079 0.960 . S
C1093 H1080 0.961 . S
C1093 H1081 0.959 . S
C1093 C1091 1.561 . S
C1094 C1091 1.526 . S
C1094 C1095 1.396 . S
C1094 C1099 1.390 . S
C1095 C1089 1.465 . S
C1095 C1094 1.396 . S
C1095 C1096 1.399 . S
C1096 H1082 0.929 . S
C1096 C1095 1.399 . S
C1096 C1097 1.385 . S
C1097 H1083 0.931 . S
C1097 C1096 1.385 . S
C1097 C1098 1.389 . S
C1098 C1097 1.389 . S
C1098 C1099 1.387 . S
C1099 H1084 0.930 . S
C1099 C1094 1.390 . S
C1099 C1098 1.387 . S
H1100 C1112 0.930 . S
H1101 C1114 0.930 . S
H1102 C1115 0.930 . S
H1103 C1119 0.959 . S
H1104 C1119 0.959 . S
H1105 C1119 0.961 . S
H1106 C1120 0.960 . S
H1107 C1120 0.961 . S
H1108 C1120 0.959 . S
H1109 C1123 0.929 . S
H1110 C1124 0.931 . S
H1111 C1126 0.930 . S
C1112 H1100 0.930 . S
C1112 C1113 1.399 . S
C1112 C1117 1.399 . S
C1113 C1112 1.399 . S
C1113 C1114 1.376 . S
C1114 H1101 0.930 . S
C1114 C1113 1.376 . S
C1114 C1115 1.388 . S
C1115 H1102 0.930 . S
C1115 C1114 1.388 . S
C1115 C1116 1.390 . S
C1116 C1115 1.390 . S
C1116 C1117 1.394 . S
C1116 C1122 1.465 . S
C1117 C1112 1.399 . S
C1117 C1116 1.394 . S
C1117 C1118 1.516 . S
C1118 C1117 1.516 . S
C1118 C1119 1.502 . S
C1118 C1120 1.561 . S
C1118 C1121 1.526 . S
C1119 H1103 0.959 . S
C1119 H1104 0.959 . S
C1119 H1105 0.961 . S
C1119 C1118 1.502 . S
C1120 H1106 0.960 . S
C1120 H1107 0.961 . S
C1120 H1108 0.959 . S
C1120 C1118 1.561 . S
C1121 C1118 1.526 . S
C1121 C1122 1.396 . S
C1121 C1126 1.390 . S
C1122 C1116 1.465 . S
C1122 C1121 1.396 . S
C1122 C1123 1.399 . S
C1123 H1109 0.929 . S
C1123 C1122 1.399 . S
C1123 C1124 1.385 . S
C1124 H1110 0.931 . S
C1124 C1123 1.385 . S
C1124 C1125 1.389 . S
C1125 C1124 1.389 . S
C1125 C1126 1.387 . S
C1126 H1111 0.930 . S
C1126 C1121 1.390 . S
C1126 C1125 1.387 . S
H1127 C1139 0.930 . S
H1128 C1141 0.930 . S
H1129 C1142 0.930 . S
H1130 C1146 0.959 . S
H1131 C1146 0.959 . S
H1132 C1146 0.961 . S
H1133 C1147 0.960 . S
H1134 C1147 0.961 . S
H1135 C1147 0.959 . S
H1136 C1150 0.929 . S
H1137 C1151 0.931 . S
H1138 C1153 0.930 . S
C1139 H1127 0.930 . S
C1139 C1140 1.399 . S
C1139 C1144 1.399 . S
C1140 C1139 1.399 . S
C1140 C1141 1.376 . S
C1141 H1128 0.930 . S
C1141 C1140 1.376 . S
C1141 C1142 1.388 . S
C1142 H1129 0.930 . S
C1142 C1141 1.388 . S
C1142 C1143 1.390 . S
C1143 C1142 1.390 . S
C1143 C1144 1.394 . S
C1143 C1149 1.465 . S
C1144 C1139 1.399 . S
C1144 C1143 1.394 . S
C1144 C1145 1.516 . S
C1145 C1144 1.516 . S
C1145 C1146 1.502 . S
C1145 C1147 1.561 . S
C1145 C1148 1.526 . S
C1146 H1130 0.959 . S
C1146 H1131 0.959 . S
C1146 H1132 0.961 . S
C1146 C1145 1.502 . S
C1147 H1133 0.960 . S
C1147 H1134 0.961 . S
C1147 H1135 0.959 . S
C1147 C1145 1.561 . S
C1148 C1145 1.526 . S
C1148 C1149 1.396 . S
C1148 C1153 1.390 . S
C1149 C1143 1.465 . S
C1149 C1148 1.396 . S
C1149 C1150 1.399 . S
C1150 H1136 0.929 . S
C1150 C1149 1.399 . S
C1150 C1151 1.385 . S
C1151 H1137 0.931 . S
C1151 C1150 1.385 . S
C1151 C1152 1.389 . S
C1152 C1151 1.389 . S
C1152 C1153 1.387 . S
C1153 H1138 0.930 . S
C1153 C1148 1.390 . S
C1153 C1152 1.387 . S
H1154 C1166 0.930 . S
H1155 C1168 0.930 . S
H1156 C1169 0.930 . S
H1157 C1173 0.959 . S
H1158 C1173 0.959 . S
H1159 C1173 0.961 . S
H1160 C1174 0.960 . S
H1161 C1174 0.961 . S
H1162 C1174 0.959 . S
H1163 C1177 0.929 . S
H1164 C1178 0.931 . S
H1165 C1180 0.930 . S
C1166 H1154 0.930 . S
C1166 C1167 1.399 . S
C1166 C1171 1.399 . S
C1167 C1166 1.399 . S
C1167 C1168 1.376 . S
C1168 H1155 0.930 . S
C1168 C1167 1.376 . S
C1168 C1169 1.388 . S
C1169 H1156 0.930 . S
C1169 C1168 1.388 . S
C1169 C1170 1.390 . S
C1170 C1169 1.390 . S
C1170 C1171 1.394 . S
C1170 C1176 1.465 . S
C1171 C1166 1.399 . S
C1171 C1170 1.394 . S
C1171 C1172 1.516 . S
C1172 C1171 1.516 . S
C1172 C1173 1.502 . S
C1172 C1174 1.561 . S
C1172 C1175 1.526 . S
C1173 H1157 0.959 . S
C1173 H1158 0.959 . S
C1173 H1159 0.961 . S
C1173 C1172 1.502 . S
C1174 H1160 0.960 . S
C1174 H1161 0.961 . S
C1174 H1162 0.959 . S
C1174 C1172 1.561 . S
C1175 C1172 1.526 . S
C1175 C1176 1.396 . S
C1175 C1180 1.390 . S
C1176 C1170 1.465 . S
C1176 C1175 1.396 . S
C1176 C1177 1.399 . S
C1177 H1163 0.929 . S
C1177 C1176 1.399 . S
C1177 C1178 1.385 . S
C1178 H1164 0.931 . S
C1178 C1177 1.385 . S
C1178 C1179 1.389 . S
C1179 C1178 1.389 . S
C1179 C1180 1.387 . S
C1180 H1165 0.930 . S
C1180 C1175 1.390 . S
C1180 C1179 1.387 . S
H1181 C1193 0.930 . S
H1182 C1195 0.930 . S
H1183 C1196 0.930 . S
H1184 C1200 0.959 . S
H1185 C1200 0.959 . S
H1186 C1200 0.961 . S
H1187 C1201 0.960 . S
H1188 C1201 0.961 . S
H1189 C1201 0.959 . S
H1190 C1204 0.929 . S
H1191 C1205 0.931 1_554 S
H1192 C1207 0.930 . S
C1193 H1181 0.930 . S
C1193 C1194 1.399 . S
C1193 C1198 1.399 . S
C1194 C1193 1.399 . S
C1194 C1195 1.376 . S
C1195 H1182 0.930 . S
C1195 C1194 1.376 . S
C1195 C1196 1.388 . S
C1196 H1183 0.930 . S
C1196 C1195 1.388 . S
C1196 C1197 1.390 . S
C1197 C1196 1.390 . S
C1197 C1198 1.394 . S
C1197 C1203 1.465 . S
C1198 C1193 1.399 . S
C1198 C1197 1.394 . S
C1198 C1199 1.516 . S
C1199 C1198 1.516 . S
C1199 C1200 1.502 . S
C1199 C1201 1.561 . S
C1199 C1202 1.526 . S
C1200 H1184 0.959 . S
C1200 H1185 0.959 . S
C1200 H1186 0.961 . S
C1200 C1199 1.502 . S
C1201 H1187 0.960 . S
C1201 H1188 0.961 . S
C1201 H1189 0.959 . S
C1201 C1199 1.561 . S
C1202 C1199 1.526 . S
C1202 C1203 1.396 . S
C1202 C1207 1.390 . S
C1203 C1197 1.465 . S
C1203 C1202 1.396 . S
C1203 C1204 1.399 . S
C1204 H1190 0.929 . S
C1204 C1203 1.399 . S
C1204 C1205 1.385 . S
C1205 H1191 0.931 1_556 S
C1205 C1204 1.385 . S
C1205 C1206 1.389 . S
C1206 C1205 1.389 . S
C1206 C1207 1.387 . S
C1207 H1192 0.930 . S
C1207 C1202 1.390 . S
C1207 C1206 1.387 . S
H1208 C1220 0.930 . S
H1209 C1222 0.930 . S
H1210 C1223 0.930 . S
H1211 C1227 0.959 . S
H1212 C1227 0.959 . S
H1213 C1227 0.961 . S
H1214 C1228 0.960 . S
H1215 C1228 0.961 . S
H1216 C1228 0.959 . S
H1217 C1231 0.929 . S
H1218 C1232 0.931 . S
H1219 C1234 0.930 . S
C1220 H1208 0.930 . S
C1220 C1221 1.399 . S
C1220 C1225 1.399 . S
C1221 C1220 1.399 . S
C1221 C1222 1.376 . S
C1222 H1209 0.930 . S
C1222 C1221 1.376 . S
C1222 C1223 1.388 . S
C1223 H1210 0.930 . S
C1223 C1222 1.388 . S
C1223 C1224 1.390 . S
C1224 C1223 1.390 . S
C1224 C1225 1.394 . S
C1224 C1230 1.465 . S
C1225 C1220 1.399 . S
C1225 C1224 1.394 . S
C1225 C1226 1.516 . S
C1226 C1225 1.516 . S
C1226 C1227 1.502 . S
C1226 C1228 1.561 . S
C1226 C1229 1.526 . S
C1227 H1211 0.959 . S
C1227 H1212 0.959 . S
C1227 H1213 0.961 . S
C1227 C1226 1.502 . S
C1228 H1214 0.960 . S
C1228 H1215 0.961 . S
C1228 H1216 0.959 . S
C1228 C1226 1.561 . S
C1229 C1226 1.526 . S
C1229 C1230 1.396 . S
C1229 C1234 1.390 . S
C1230 C1224 1.465 . S
C1230 C1229 1.396 . S
C1230 C1231 1.399 . S
C1231 H1217 0.929 . S
C1231 C1230 1.399 . S
C1231 C1232 1.385 . S
C1232 H1218 0.931 . S
C1232 C1231 1.385 . S
C1232 C1233 1.389 . S
C1233 C1232 1.389 . S
C1233 C1234 1.387 . S
C1234 H1219 0.930 . S
C1234 C1229 1.390 . S
C1234 C1233 1.387 . S
H1235 C1247 0.930 . S
H1236 C1249 0.930 . S
H1237 C1250 0.930 . S
H1238 C1254 0.959 . S
H1239 C1254 0.959 . S
H1240 C1254 0.961 . S
H1241 C1255 0.960 . S
H1242 C1255 0.961 . S
H1243 C1255 0.959 . S
H1244 C1258 0.929 . S
H1245 C1259 0.931 . S
H1246 C1261 0.930 . S
C1247 H1235 0.930 . S
C1247 C1248 1.399 . S
C1247 C1252 1.399 . S
C1248 C1247 1.399 . S
C1248 C1249 1.376 . S
C1249 H1236 0.930 . S
C1249 C1248 1.376 . S
C1249 C1250 1.388 . S
C1250 H1237 0.930 . S
C1250 C1249 1.388 . S
C1250 C1251 1.390 . S
C1251 C1250 1.390 . S
C1251 C1252 1.394 . S
C1251 C1257 1.465 . S
C1252 C1247 1.399 . S
C1252 C1251 1.394 . S
C1252 C1253 1.516 . S
C1253 C1252 1.516 . S
C1253 C1254 1.502 . S
C1253 C1255 1.561 . S
C1253 C1256 1.526 . S
C1254 H1238 0.959 . S
C1254 H1239 0.959 . S
C1254 H1240 0.961 . S
C1254 C1253 1.502 . S
C1255 H1241 0.960 . S
C1255 H1242 0.961 . S
C1255 H1243 0.959 . S
C1255 C1253 1.561 . S
C1256 C1253 1.526 . S
C1256 C1257 1.396 . S
C1256 C1261 1.390 . S
C1257 C1251 1.465 . S
C1257 C1256 1.396 . S
C1257 C1258 1.399 . S
C1258 H1244 0.929 . S
C1258 C1257 1.399 . S
C1258 C1259 1.385 . S
C1259 H1245 0.931 . S
C1259 C1258 1.385 . S
C1259 C1260 1.389 . S
C1260 C1259 1.389 . S
C1260 C1261 1.387 . S
C1261 H1246 0.930 . S
C1261 C1256 1.390 . S
C1261 C1260 1.387 . S
H1262 C1274 0.930 . S
H1263 C1276 0.930 . S
H1264 C1277 0.930 . S
H1265 C1281 0.959 . S
H1266 C1281 0.959 . S
H1267 C1281 0.961 . S
H1268 C1282 0.960 . S
H1269 C1282 0.961 . S
H1270 C1282 0.959 . S
H1271 C1285 0.929 . S
H1272 C1286 0.931 . S
H1273 C1288 0.930 . S
C1274 H1262 0.930 . S
C1274 C1275 1.399 . S
C1274 C1279 1.399 . S
C1275 C1274 1.399 . S
C1275 C1276 1.376 . S
C1276 H1263 0.930 . S
C1276 C1275 1.376 . S
C1276 C1277 1.388 . S
C1277 H1264 0.930 . S
C1277 C1276 1.388 . S
C1277 C1278 1.390 . S
C1278 C1277 1.390 . S
C1278 C1279 1.394 . S
C1278 C1284 1.465 . S
C1279 C1274 1.399 . S
C1279 C1278 1.394 . S
C1279 C1280 1.516 . S
C1280 C1279 1.516 . S
C1280 C1281 1.502 . S
C1280 C1282 1.561 . S
C1280 C1283 1.526 . S
C1281 H1265 0.959 . S
C1281 H1266 0.959 . S
C1281 H1267 0.961 . S
C1281 C1280 1.502 . S
C1282 H1268 0.960 . S
C1282 H1269 0.961 . S
C1282 H1270 0.959 . S
C1282 C1280 1.561 . S
C1283 C1280 1.526 . S
C1283 C1284 1.396 . S
C1283 C1288 1.390 . S
C1284 C1278 1.465 . S
C1284 C1283 1.396 . S
C1284 C1285 1.399 . S
C1285 H1271 0.929 . S
C1285 C1284 1.399 . S
C1285 C1286 1.385 . S
C1286 H1272 0.931 . S
C1286 C1285 1.385 . S
C1286 C1287 1.389 . S
C1287 C1286 1.389 . S
C1287 C1288 1.387 . S
C1288 H1273 0.930 . S
C1288 C1283 1.390 . S
C1288 C1287 1.387 . S
H1289 C1301 0.930 . S
H1290 C1303 0.930 . S
H1291 C1304 0.930 . S
H1292 C1308 0.959 . S
H1293 C1308 0.959 . S
H1294 C1308 0.961 . S
H1295 C1309 0.960 . S
H1296 C1309 0.961 . S
H1297 C1309 0.959 . S
H1298 C1312 0.929 . S
H1299 C1313 0.931 . S
H1300 C1315 0.930 . S
C1301 H1289 0.930 . S
C1301 C1302 1.399 . S
C1301 C1306 1.399 . S
C1302 C1301 1.399 . S
C1302 C1303 1.376 . S
C1303 H1290 0.930 . S
C1303 C1302 1.376 . S
C1303 C1304 1.388 . S
C1304 H1291 0.930 . S
C1304 C1303 1.388 . S
C1304 C1305 1.390 . S
C1305 C1304 1.390 . S
C1305 C1306 1.394 . S
C1305 C1311 1.465 . S
C1306 C1301 1.399 . S
C1306 C1305 1.394 . S
C1306 C1307 1.516 . S
C1307 C1306 1.516 . S
C1307 C1308 1.502 . S
C1307 C1309 1.561 . S
C1307 C1310 1.526 . S
C1308 H1292 0.959 . S
C1308 H1293 0.959 . S
C1308 H1294 0.961 . S
C1308 C1307 1.502 . S
C1309 H1295 0.960 . S
C1309 H1296 0.961 . S
C1309 H1297 0.959 . S
C1309 C1307 1.561 . S
C1310 C1307 1.526 . S
C1310 C1311 1.396 . S
C1310 C1315 1.390 . S
C1311 C1305 1.465 . S
C1311 C1310 1.396 . S
C1311 C1312 1.399 . S
C1312 H1298 0.929 . S
C1312 C1311 1.399 . S
C1312 C1313 1.385 . S
C1313 H1299 0.931 . S
C1313 C1312 1.385 . S
C1313 C1314 1.389 . S
C1314 C1313 1.389 . S
C1314 C1315 1.387 . S
C1315 H1300 0.930 . S
C1315 C1310 1.390 . S
C1315 C1314 1.387 . S
H1316 C1328 0.930 . S
H1317 C1330 0.930 . S
H1318 C1331 0.930 . S
H1319 C1335 0.959 . S
H1320 C1335 0.959 . S
H1321 C1335 0.961 . S
H1322 C1336 0.960 . S
H1323 C1336 0.961 . S
H1324 C1336 0.959 . S
H1325 C1339 0.929 . S
H1326 C1340 0.931 . S
H1327 C1342 0.930 . S
C1328 H1316 0.930 . S
C1328 C1329 1.399 . S
C1328 C1333 1.399 . S
C1329 C1328 1.399 . S
C1329 C1330 1.376 . S
C1330 H1317 0.930 . S
C1330 C1329 1.376 . S
C1330 C1331 1.388 . S
C1331 H1318 0.930 . S
C1331 C1330 1.388 . S
C1331 C1332 1.390 . S
C1332 C1331 1.390 . S
C1332 C1333 1.394 . S
C1332 C1338 1.465 . S
C1333 C1328 1.399 . S
C1333 C1332 1.394 . S
C1333 C1334 1.516 . S
C1334 C1333 1.516 . S
C1334 C1335 1.502 . S
C1334 C1336 1.561 . S
C1334 C1337 1.526 . S
C1335 H1319 0.959 . S
C1335 H1320 0.959 . S
C1335 H1321 0.961 . S
C1335 C1334 1.502 . S
C1336 H1322 0.960 . S
C1336 H1323 0.961 . S
C1336 H1324 0.959 . S
C1336 C1334 1.561 . S
C1337 C1334 1.526 . S
C1337 C1338 1.396 . S
C1337 C1342 1.390 . S
C1338 C1332 1.465 . S
C1338 C1337 1.396 . S
C1338 C1339 1.399 . S
C1339 H1325 0.929 . S
C1339 C1338 1.399 . S
C1339 C1340 1.385 . S
C1340 H1326 0.931 . S
C1340 C1339 1.385 . S
C1340 C1341 1.389 . S
C1341 C1340 1.389 . S
C1341 C1342 1.387 . S
C1342 H1327 0.930 . S
C1342 C1337 1.390 . S
C1342 C1341 1.387 . S
H1343 C1355 0.930 . S
H1344 C1357 0.930 . S
H1345 C1358 0.930 . S
H1346 C1362 0.959 . S
H1347 C1362 0.959 . S
H1348 C1362 0.961 . S
H1349 C1363 0.960 . S
H1350 C1363 0.961 . S
H1351 C1363 0.959 . S
H1352 C1366 0.929 . S
H1353 C1367 0.931 . S
H1354 C1369 0.930 . S
C1355 H1343 0.930 . S
C1355 C1356 1.399 . S
C1355 C1360 1.399 . S
C1356 C1355 1.399 . S
C1356 C1357 1.376 . S
C1357 H1344 0.930 . S
C1357 C1356 1.376 . S
C1357 C1358 1.388 . S
C1358 H1345 0.930 . S
C1358 C1357 1.388 . S
C1358 C1359 1.390 . S
C1359 C1358 1.390 . S
C1359 C1360 1.394 . S
C1359 C1365 1.465 . S
C1360 C1355 1.399 . S
C1360 C1359 1.394 . S
C1360 C1361 1.516 . S
C1361 C1360 1.516 . S
C1361 C1362 1.502 . S
C1361 C1363 1.561 . S
C1361 C1364 1.526 . S
C1362 H1346 0.959 . S
C1362 H1347 0.959 . S
C1362 H1348 0.961 . S
C1362 C1361 1.502 . S
C1363 H1349 0.960 . S
C1363 H1350 0.961 . S
C1363 H1351 0.959 . S
C1363 C1361 1.561 . S
C1364 C1361 1.526 . S
C1364 C1365 1.396 . S
C1364 C1369 1.390 . S
C1365 C1359 1.465 . S
C1365 C1364 1.396 . S
C1365 C1366 1.399 . S
C1366 H1352 0.929 . S
C1366 C1365 1.399 . S
C1366 C1367 1.385 . S
C1367 H1353 0.931 . S
C1367 C1366 1.385 . S
C1367 C1368 1.389 . S
C1368 C1367 1.389 . S
C1368 C1369 1.387 . S
C1369 H1354 0.930 . S
C1369 C1364 1.390 . S
C1369 C1368 1.387 . S
H1370 C1382 0.930 . S
H1371 C1384 0.930 . S
H1372 C1385 0.930 . S
H1373 C1389 0.959 . S
H1374 C1389 0.959 . S
H1375 C1389 0.961 . S
H1376 C1390 0.960 . S
H1377 C1390 0.961 . S
H1378 C1390 0.959 . S
H1379 C1393 0.929 . S
H1380 C1394 0.931 . S
H1381 C1396 0.930 . S
C1382 H1370 0.930 . S
C1382 C1383 1.399 . S
C1382 C1387 1.399 . S
C1383 C1382 1.399 . S
C1383 C1384 1.376 . S
C1384 H1371 0.930 . S
C1384 C1383 1.376 . S
C1384 C1385 1.388 . S
C1385 H1372 0.930 . S
C1385 C1384 1.388 . S
C1385 C1386 1.390 . S
C1386 C1385 1.390 . S
C1386 C1387 1.394 . S
C1386 C1392 1.465 . S
C1387 C1382 1.399 . S
C1387 C1386 1.394 . S
C1387 C1388 1.516 . S
C1388 C1387 1.516 . S
C1388 C1389 1.502 . S
C1388 C1390 1.561 . S
C1388 C1391 1.526 . S
C1389 H1373 0.959 . S
C1389 H1374 0.959 . S
C1389 H1375 0.961 . S
C1389 C1388 1.502 . S
C1390 H1376 0.960 . S
C1390 H1377 0.961 . S
C1390 H1378 0.959 . S
C1390 C1388 1.561 . S
C1391 C1388 1.526 . S
C1391 C1392 1.396 . S
C1391 C1396 1.390 . S
C1392 C1386 1.465 . S
C1392 C1391 1.396 . S
C1392 C1393 1.399 . S
C1393 H1379 0.929 . S
C1393 C1392 1.399 . S
C1393 C1394 1.385 . S
C1394 H1380 0.931 . S
C1394 C1393 1.385 . S
C1394 C1395 1.389 . S
C1395 C1394 1.389 . S
C1395 C1396 1.387 . S
C1396 H1381 0.930 . S
C1396 C1391 1.390 . S
C1396 C1395 1.387 . S
H1397 C1409 0.930 . S
H1398 C1411 0.930 . S
H1399 C1412 0.930 . S
H1400 C1416 0.959 . S
H1401 C1416 0.959 . S
H1402 C1416 0.961 . S
H1403 C1417 0.960 . S
H1404 C1417 0.961 . S
H1405 C1417 0.959 . S
H1406 C1420 0.929 . S
H1407 C1421 0.931 . S
H1408 C1423 0.930 . S
C1409 H1397 0.930 . S
C1409 C1410 1.399 . S
C1409 C1414 1.399 . S
C1410 C1409 1.399 . S
C1410 C1411 1.376 . S
C1411 H1398 0.930 . S
C1411 C1410 1.376 . S
C1411 C1412 1.388 . S
C1412 H1399 0.930 . S
C1412 C1411 1.388 . S
C1412 C1413 1.390 . S
C1413 C1412 1.390 . S
C1413 C1414 1.394 . S
C1413 C1419 1.465 . S
C1414 C1409 1.399 . S
C1414 C1413 1.394 . S
C1414 C1415 1.516 . S
C1415 C1414 1.516 . S
C1415 C1416 1.502 . S
C1415 C1417 1.561 . S
C1415 C1418 1.526 . S
C1416 H1400 0.959 . S
C1416 H1401 0.959 . S
C1416 H1402 0.961 . S
C1416 C1415 1.502 . S
C1417 H1403 0.960 . S
C1417 H1404 0.961 . S
C1417 H1405 0.959 . S
C1417 C1415 1.561 . S
C1418 C1415 1.526 . S
C1418 C1419 1.396 . S
C1418 C1423 1.390 . S
C1419 C1413 1.465 . S
C1419 C1418 1.396 . S
C1419 C1420 1.399 . S
C1420 H1406 0.929 . S
C1420 C1419 1.399 . S
C1420 C1421 1.385 . S
C1421 H1407 0.931 . S
C1421 C1420 1.385 . S
C1421 C1422 1.389 . S
C1422 C1421 1.389 . S
C1422 C1423 1.387 . S
C1423 H1408 0.930 . S
C1423 C1418 1.390 . S
C1423 C1422 1.387 . S
H1424 C1436 0.930 . S
H1425 C1438 0.930 . S
H1426 C1439 0.930 . S
H1427 C1443 0.959 . S
H1428 C1443 0.959 . S
H1429 C1443 0.961 . S
H1430 C1444 0.960 . S
H1431 C1444 0.961 . S
H1432 C1444 0.959 . S
H1433 C1447 0.929 . S
H1434 C1448 0.931 . S
H1435 C1450 0.930 . S
C1436 H1424 0.930 . S
C1436 C1437 1.399 . S
C1436 C1441 1.399 . S
C1437 C1436 1.399 . S
C1437 C1438 1.376 . S
C1438 H1425 0.930 . S
C1438 C1437 1.376 . S
C1438 C1439 1.388 . S
C1439 H1426 0.930 . S
C1439 C1438 1.388 . S
C1439 C1440 1.390 . S
C1440 C1439 1.390 . S
C1440 C1441 1.394 . S
C1440 C1446 1.465 . S
C1441 C1436 1.399 . S
C1441 C1440 1.394 . S
C1441 C1442 1.516 . S
C1442 C1441 1.516 . S
C1442 C1443 1.502 . S
C1442 C1444 1.561 . S
C1442 C1445 1.526 . S
C1443 H1427 0.959 . S
C1443 H1428 0.959 . S
C1443 H1429 0.961 . S
C1443 C1442 1.502 . S
C1444 H1430 0.960 . S
C1444 H1431 0.961 . S
C1444 H1432 0.959 . S
C1444 C1442 1.561 . S
C1445 C1442 1.526 . S
C1445 C1446 1.396 . S
C1445 C1450 1.390 . S
C1446 C1440 1.465 . S
C1446 C1445 1.396 . S
C1446 C1447 1.399 . S
C1447 H1433 0.929 . S
C1447 C1446 1.399 . S
C1447 C1448 1.385 . S
C1448 H1434 0.931 . S
C1448 C1447 1.385 . S
C1448 C1449 1.389 . S
C1449 C1448 1.389 . S
C1449 C1450 1.387 . S
C1450 H1435 0.930 . S
C1450 C1445 1.390 . S
C1450 C1449 1.387 . S
H1451 C1463 0.930 . S
H1452 C1465 0.930 . S
H1453 C1466 0.930 . S
H1454 C1470 0.959 . S
H1455 C1470 0.959 . S
H1456 C1470 0.961 . S
H1457 C1471 0.960 . S
H1458 C1471 0.961 . S
H1459 C1471 0.959 . S
H1460 C1474 0.929 . S
H1461 C1475 0.931 . S
H1462 C1477 0.930 . S
C1463 H1451 0.930 . S
C1463 C1464 1.399 . S
C1463 C1468 1.399 . S
C1464 C1463 1.399 . S
C1464 C1465 1.376 . S
C1465 H1452 0.930 . S
C1465 C1464 1.376 . S
C1465 C1466 1.388 . S
C1466 H1453 0.930 . S
C1466 C1465 1.388 . S
C1466 C1467 1.390 . S
C1467 C1466 1.390 . S
C1467 C1468 1.394 . S
C1467 C1473 1.465 . S
C1468 C1463 1.399 . S
C1468 C1467 1.394 . S
C1468 C1469 1.516 . S
C1469 C1468 1.516 . S
C1469 C1470 1.502 . S
C1469 C1471 1.561 . S
C1469 C1472 1.526 . S
C1470 H1454 0.959 . S
C1470 H1455 0.959 . S
C1470 H1456 0.961 . S
C1470 C1469 1.502 . S
C1471 H1457 0.960 . S
C1471 H1458 0.961 . S
C1471 H1459 0.959 . S
C1471 C1469 1.561 . S
C1472 C1469 1.526 . S
C1472 C1473 1.396 . S
C1472 C1477 1.390 . S
C1473 C1467 1.465 . S
C1473 C1472 1.396 . S
C1473 C1474 1.399 . S
C1474 H1460 0.929 . S
C1474 C1473 1.399 . S
C1474 C1475 1.385 . S
C1475 H1461 0.931 . S
C1475 C1474 1.385 . S
C1475 C1476 1.389 . S
C1476 C1475 1.389 . S
C1476 C1477 1.387 . S
C1477 H1462 0.930 . S
C1477 C1472 1.390 . S
C1477 C1476 1.387 . S
H1478 C1490 0.930 . S
H1479 C1492 0.930 . S
H1480 C1493 0.930 . S
H1481 C1497 0.959 . S
H1482 C1497 0.959 . S
H1483 C1497 0.961 . S
H1484 C1498 0.960 . S
H1485 C1498 0.961 . S
H1486 C1498 0.959 . S
H1487 C1501 0.929 . S
H1488 C1502 0.931 . S
H1489 C1504 0.930 . S
C1490 H1478 0.930 . S
C1490 C1491 1.399 . S
C1490 C1495 1.399 . S
C1491 C1490 1.399 . S
C1491 C1492 1.376 . S
C1492 H1479 0.930 . S
C1492 C1491 1.376 . S
C1492 C1493 1.388 . S
C1493 H1480 0.930 . S
C1493 C1492 1.388 . S
C1493 C1494 1.390 . S
C1494 C1493 1.390 . S
C1494 C1495 1.394 . S
C1494 C1500 1.465 . S
C1495 C1490 1.399 . S
C1495 C1494 1.394 . S
C1495 C1496 1.516 . S
C1496 C1495 1.516 . S
C1496 C1497 1.502 . S
C1496 C1498 1.561 . S
C1496 C1499 1.526 . S
C1497 H1481 0.959 . S
C1497 H1482 0.959 . S
C1497 H1483 0.961 . S
C1497 C1496 1.502 . S
C1498 H1484 0.960 . S
C1498 H1485 0.961 . S
C1498 H1486 0.959 . S
C1498 C1496 1.561 . S
C1499 C1496 1.526 . S
C1499 C1500 1.396 . S
C1499 C1504 1.390 . S
C1500 C1494 1.465 . S
C1500 C1499 1.396 . S
C1500 C1501 1.399 . S
C1501 H1487 0.929 . S
C1501 C1500 1.399 . S
C1501 C1502 1.385 . S
C1502 H1488 0.931 . S
C1502 C1501 1.385 . S
C1502 C1503 1.389 . S
C1503 C1502 1.389 . S
C1503 C1504 1.387 . S
C1504 H1489 0.930 . S
C1504 C1499 1.390 . S
C1504 C1503 1.387 . S
H1505 C1517 0.930 . S
H1506 C1519 0.930 . S
H1507 C1520 0.930 . S
H1508 C1524 0.959 . S
H1509 C1524 0.959 . S
H1510 C1524 0.961 . S
H1511 C1525 0.960 . S
H1512 C1525 0.961 . S
H1513 C1525 0.959 . S
H1514 C1528 0.929 . S
H1515 C1529 0.931 . S
H1516 C1531 0.930 . S
C1517 H1505 0.930 . S
C1517 C1518 1.399 . S
C1517 C1522 1.399 . S
C1518 C1517 1.399 . S
C1518 C1519 1.376 . S
C1519 H1506 0.930 . S
C1519 C1518 1.376 . S
C1519 C1520 1.388 . S
C1520 H1507 0.930 . S
C1520 C1519 1.388 . S
C1520 C1521 1.390 . S
C1521 C1520 1.390 . S
C1521 C1522 1.394 . S
C1521 C1527 1.465 . S
C1522 C1517 1.399 . S
C1522 C1521 1.394 . S
C1522 C1523 1.516 . S
C1523 C1522 1.516 . S
C1523 C1524 1.502 . S
C1523 C1525 1.561 . S
C1523 C1526 1.526 . S
C1524 H1508 0.959 . S
C1524 H1509 0.959 . S
C1524 H1510 0.961 . S
C1524 C1523 1.502 . S
C1525 H1511 0.960 . S
C1525 H1512 0.961 . S
C1525 H1513 0.959 . S
C1525 C1523 1.561 . S
C1526 C1523 1.526 . S
C1526 C1527 1.396 . S
C1526 C1531 1.390 . S
C1527 C1521 1.465 . S
C1527 C1526 1.396 . S
C1527 C1528 1.399 . S
C1528 H1514 0.929 . S
C1528 C1527 1.399 . S
C1528 C1529 1.385 . S
C1529 H1515 0.931 . S
C1529 C1528 1.385 . S
C1529 C1530 1.389 . S
C1530 C1529 1.389 . S
C1530 C1531 1.387 . S
C1531 H1516 0.930 . S
C1531 C1526 1.390 . S
C1531 C1530 1.387 . S
H1532 C1544 0.930 . S
H1533 C1546 0.930 . S
H1534 C1547 0.930 . S
H1535 C1551 0.959 . S
H1536 C1551 0.959 . S
H1537 C1551 0.961 . S
H1538 C1552 0.960 . S
H1539 C1552 0.961 . S
H1540 C1552 0.959 . S
H1541 C1555 0.929 . S
H1542 C1556 0.931 . S
H1543 C1558 0.930 . S
C1544 H1532 0.930 . S
C1544 C1545 1.399 . S
C1544 C1549 1.399 . S
C1545 C1544 1.399 . S
C1545 C1546 1.376 . S
C1546 H1533 0.930 . S
C1546 C1545 1.376 . S
C1546 C1547 1.388 . S
C1547 H1534 0.930 . S
C1547 C1546 1.388 . S
C1547 C1548 1.390 . S
C1548 C1547 1.390 . S
C1548 C1549 1.394 . S
C1548 C1554 1.465 . S
C1549 C1544 1.399 . S
C1549 C1548 1.394 . S
C1549 C1550 1.516 . S
C1550 C1549 1.516 . S
C1550 C1551 1.502 . S
C1550 C1552 1.561 . S
C1550 C1553 1.526 . S
C1551 H1535 0.959 . S
C1551 H1536 0.959 . S
C1551 H1537 0.961 . S
C1551 C1550 1.502 . S
C1552 H1538 0.960 . S
C1552 H1539 0.961 . S
C1552 H1540 0.959 . S
C1552 C1550 1.561 . S
C1553 C1550 1.526 . S
C1553 C1554 1.396 . S
C1553 C1558 1.390 . S
C1554 C1548 1.465 . S
C1554 C1553 1.396 . S
C1554 C1555 1.399 . S
C1555 H1541 0.929 . S
C1555 C1554 1.399 . S
C1555 C1556 1.385 . S
C1556 H1542 0.931 . S
C1556 C1555 1.385 . S
C1556 C1557 1.389 . S
C1557 C1556 1.389 . S
C1557 C1558 1.387 . S
C1558 H1543 0.930 . S
C1558 C1553 1.390 . S
C1558 C1557 1.387 . S
H1559 C1571 0.930 . S
H1560 C1573 0.930 . S
H1561 C1574 0.930 . S
H1562 C1578 0.959 . S
H1563 C1578 0.959 . S
H1564 C1578 0.961 . S
H1565 C1579 0.960 . S
H1566 C1579 0.961 . S
H1567 C1579 0.959 . S
H1568 C1582 0.929 . S
H1569 C1583 0.931 . S
H1570 C1585 0.930 . S
C1571 H1559 0.930 . S
C1571 C1572 1.399 . S
C1571 C1576 1.399 . S
C1572 C1571 1.399 . S
C1572 C1573 1.376 . S
C1573 H1560 0.930 . S
C1573 C1572 1.376 . S
C1573 C1574 1.388 . S
C1574 H1561 0.930 . S
C1574 C1573 1.388 . S
C1574 C1575 1.390 . S
C1575 C1574 1.390 . S
C1575 C1576 1.394 . S
C1575 C1581 1.465 . S
C1576 C1571 1.399 . S
C1576 C1575 1.394 . S
C1576 C1577 1.516 . S
C1577 C1576 1.516 . S
C1577 C1578 1.502 . S
C1577 C1579 1.561 . S
C1577 C1580 1.526 . S
C1578 H1562 0.959 . S
C1578 H1563 0.959 . S
C1578 H1564 0.961 . S
C1578 C1577 1.502 . S
C1579 H1565 0.960 . S
C1579 H1566 0.961 . S
C1579 H1567 0.959 . S
C1579 C1577 1.561 . S
C1580 C1577 1.526 . S
C1580 C1581 1.396 . S
C1580 C1585 1.390 . S
C1581 C1575 1.465 . S
C1581 C1580 1.396 . S
C1581 C1582 1.399 . S
C1582 H1568 0.929 . S
C1582 C1581 1.399 . S
C1582 C1583 1.385 . S
C1583 H1569 0.931 . S
C1583 C1582 1.385 . S
C1583 C1584 1.389 . S
C1584 C1583 1.389 . S
C1584 C1585 1.387 . S
C1585 H1570 0.930 . S
C1585 C1580 1.390 . S
C1585 C1584 1.387 . S
H1586 C1598 0.930 . S
H1587 C1600 0.930 . S
H1588 C1601 0.930 . S
H1589 C1605 0.959 . S
H1590 C1605 0.959 . S
H1591 C1605 0.961 . S
H1592 C1606 0.960 . S
H1593 C1606 0.961 . S
H1594 C1606 0.959 . S
H1595 C1609 0.929 . S
H1596 C1610 0.931 . S
H1597 C1612 0.930 . S
C1598 H1586 0.930 . S
C1598 C1599 1.399 . S
C1598 C1603 1.399 . S
C1599 C1598 1.399 . S
C1599 C1600 1.376 . S
C1600 H1587 0.930 . S
C1600 C1599 1.376 . S
C1600 C1601 1.388 . S
C1601 H1588 0.930 . S
C1601 C1600 1.388 . S
C1601 C1602 1.390 . S
C1602 C1601 1.390 . S
C1602 C1603 1.394 . S
C1602 C1608 1.465 . S
C1603 C1598 1.399 . S
C1603 C1602 1.394 . S
C1603 C1604 1.516 . S
C1604 C1603 1.516 . S
C1604 C1605 1.502 . S
C1604 C1606 1.561 . S
C1604 C1607 1.526 . S
C1605 H1589 0.959 . S
C1605 H1590 0.959 . S
C1605 H1591 0.961 . S
C1605 C1604 1.502 . S
C1606 H1592 0.960 . S
C1606 H1593 0.961 . S
C1606 H1594 0.959 . S
C1606 C1604 1.561 . S
C1607 C1604 1.526 . S
C1607 C1608 1.396 . S
C1607 C1612 1.390 . S
C1608 C1602 1.465 . S
C1608 C1607 1.396 . S
C1608 C1609 1.399 . S
C1609 H1595 0.929 . S
C1609 C1608 1.399 . S
C1609 C1610 1.385 . S
C1610 H1596 0.931 . S
C1610 C1609 1.385 . S
C1610 C1611 1.389 . S
C1611 C1610 1.389 . S
C1611 C1612 1.387 . S
C1612 H1597 0.930 . S
C1612 C1607 1.390 . S
C1612 C1611 1.387 . S
H1613 C1625 0.930 . S
H1614 C1627 0.930 . S
H1615 C1628 0.930 . S
H1616 C1632 0.959 . S
H1617 C1632 0.959 . S
H1618 C1632 0.961 . S
H1619 C1633 0.960 . S
H1620 C1633 0.961 . S
H1621 C1633 0.959 . S
H1622 C1636 0.929 . S
H1623 C1637 0.931 . S
H1624 C1639 0.930 . S
C1625 H1613 0.930 . S
C1625 C1626 1.399 . S
C1625 C1630 1.399 . S
C1626 C1625 1.399 . S
C1626 C1627 1.376 . S
C1627 H1614 0.930 . S
C1627 C1626 1.376 . S
C1627 C1628 1.388 . S
C1628 H1615 0.930 . S
C1628 C1627 1.388 . S
C1628 C1629 1.390 . S
C1629 C1628 1.390 . S
C1629 C1630 1.394 . S
C1629 C1635 1.465 . S
C1630 C1625 1.399 . S
C1630 C1629 1.394 . S
C1630 C1631 1.516 . S
C1631 C1630 1.516 . S
C1631 C1632 1.502 . S
C1631 C1633 1.561 . S
C1631 C1634 1.526 . S
C1632 H1616 0.959 . S
C1632 H1617 0.959 . S
C1632 H1618 0.961 . S
C1632 C1631 1.502 . S
C1633 H1619 0.960 . S
C1633 H1620 0.961 . S
C1633 H1621 0.959 . S
C1633 C1631 1.561 . S
C1634 C1631 1.526 . S
C1634 C1635 1.396 . S
C1634 C1639 1.390 . S
C1635 C1629 1.465 . S
C1635 C1634 1.396 . S
C1635 C1636 1.399 . S
C1636 H1622 0.929 . S
C1636 C1635 1.399 . S
C1636 C1637 1.385 . S
C1637 H1623 0.931 . S
C1637 C1636 1.385 . S
C1637 C1638 1.389 . S
C1638 C1637 1.389 . S
C1638 C1639 1.387 . S
C1639 H1624 0.930 . S
C1639 C1634 1.390 . S
C1639 C1638 1.387 . S
H1640 C1652 0.930 . S
H1641 C1654 0.930 . S
H1642 C1655 0.930 . S
H1643 C1659 0.959 . S
H1644 C1659 0.959 . S
H1645 C1659 0.961 . S
H1646 C1660 0.960 . S
H1647 C1660 0.961 . S
H1648 C1660 0.959 . S
H1649 C1663 0.929 . S
H1650 C1664 0.931 . S
H1651 C1666 0.930 . S
C1652 H1640 0.930 . S
C1652 C1653 1.399 . S
C1652 C1657 1.399 . S
C1653 C1652 1.399 . S
C1653 C1654 1.376 . S
C1654 H1641 0.930 . S
C1654 C1653 1.376 . S
C1654 C1655 1.388 . S
C1655 H1642 0.930 . S
C1655 C1654 1.388 . S
C1655 C1656 1.390 . S
C1656 C1655 1.390 . S
C1656 C1657 1.394 . S
C1656 C1662 1.465 . S
C1657 C1652 1.399 . S
C1657 C1656 1.394 . S
C1657 C1658 1.516 . S
C1658 C1657 1.516 . S
C1658 C1659 1.502 . S
C1658 C1660 1.561 . S
C1658 C1661 1.526 . S
C1659 H1643 0.959 . S
C1659 H1644 0.959 . S
C1659 H1645 0.961 . S
C1659 C1658 1.502 . S
C1660 H1646 0.960 . S
C1660 H1647 0.961 . S
C1660 H1648 0.959 . S
C1660 C1658 1.561 . S
C1661 C1658 1.526 . S
C1661 C1662 1.396 . S
C1661 C1666 1.390 . S
C1662 C1656 1.465 . S
C1662 C1661 1.396 . S
C1662 C1663 1.399 . S
C1663 H1649 0.929 . S
C1663 C1662 1.399 . S
C1663 C1664 1.385 . S
C1664 H1650 0.931 . S
C1664 C1663 1.385 . S
C1664 C1665 1.389 . S
C1665 C1664 1.389 . S
C1665 C1666 1.387 . S
C1666 H1651 0.930 . S
C1666 C1661 1.390 . S
C1666 C1665 1.387 . S
H1667 C1679 0.930 . S
H1668 C1681 0.930 . S
H1669 C1682 0.930 . S
H1670 C1686 0.959 . S
H1671 C1686 0.959 . S
H1672 C1686 0.961 . S
H1673 C1687 0.960 . S
H1674 C1687 0.961 . S
H1675 C1687 0.959 . S
H1676 C1690 0.929 . S
H1677 C1691 0.931 . S
H1678 C1693 0.930 . S
C1679 H1667 0.930 . S
C1679 C1680 1.399 . S
C1679 C1684 1.399 . S
C1680 C1679 1.399 . S
C1680 C1681 1.376 . S
C1681 H1668 0.930 . S
C1681 C1680 1.376 . S
C1681 C1682 1.388 . S
C1682 H1669 0.930 . S
C1682 C1681 1.388 . S
C1682 C1683 1.390 . S
C1683 C1682 1.390 . S
C1683 C1684 1.394 . S
C1683 C1689 1.465 . S
C1684 C1679 1.399 . S
C1684 C1683 1.394 . S
C1684 C1685 1.516 . S
C1685 C1684 1.516 . S
C1685 C1686 1.502 . S
C1685 C1687 1.561 . S
C1685 C1688 1.526 . S
C1686 H1670 0.959 . S
C1686 H1671 0.959 . S
C1686 H1672 0.961 . S
C1686 C1685 1.502 . S
C1687 H1673 0.960 . S
C1687 H1674 0.961 . S
C1687 H1675 0.959 . S
C1687 C1685 1.561 . S
C1688 C1685 1.526 . S
C1688 C1689 1.396 . S
C1688 C1693 1.390 . S
C1689 C1683 1.465 . S
C1689 C1688 1.396 . S
C1689 C1690 1.399 . S
C1690 H1676 0.929 . S
C1690 C1689 1.399 . S
C1690 C1691 1.385 . S
C1691 H1677 0.931 . S
C1691 C1690 1.385 . S
C1691 C1692 1.389 . S
C1692 C1691 1.389 . S
C1692 C1693 1.387 . S
C1693 H1678 0.930 . S
C1693 C1688 1.390 . S
C1693 C1692 1.387 . S
H1694 C1706 0.930 . S
H1695 C1708 0.930 . S
H1696 C1709 0.930 . S
H1697 C1713 0.959 . S
H1698 C1713 0.959 . S
H1699 C1713 0.961 . S
H1700 C1714 0.960 . S
H1701 C1714 0.961 . S
H1702 C1714 0.959 . S
H1703 C1717 0.929 . S
H1704 C1718 0.931 . S
H1705 C1720 0.930 . S
C1706 H1694 0.930 . S
C1706 C1707 1.399 . S
C1706 C1711 1.399 . S
C1707 C1706 1.399 . S
C1707 C1708 1.376 . S
C1708 H1695 0.930 . S
C1708 C1707 1.376 . S
C1708 C1709 1.388 . S
C1709 H1696 0.930 . S
C1709 C1708 1.388 . S
C1709 C1710 1.390 . S
C1710 C1709 1.390 . S
C1710 C1711 1.394 . S
C1710 C1716 1.465 . S
C1711 C1706 1.399 . S
C1711 C1710 1.394 . S
C1711 C1712 1.516 . S
C1712 C1711 1.516 . S
C1712 C1713 1.502 . S
C1712 C1714 1.561 . S
C1712 C1715 1.526 . S
C1713 H1697 0.959 . S
C1713 H1698 0.959 . S
C1713 H1699 0.961 . S
C1713 C1712 1.502 . S
C1714 H1700 0.960 . S
C1714 H1701 0.961 . S
C1714 H1702 0.959 . S
C1714 C1712 1.561 . S
C1715 C1712 1.526 . S
C1715 C1716 1.396 . S
C1715 C1720 1.390 . S
C1716 C1710 1.465 . S
C1716 C1715 1.396 . S
C1716 C1717 1.399 . S
C1717 H1703 0.929 . S
C1717 C1716 1.399 . S
C1717 C1718 1.385 . S
C1718 H1704 0.931 . S
C1718 C1717 1.385 . S
C1718 C1719 1.389 . S
C1719 C1718 1.389 . S
C1719 C1720 1.387 . S
C1720 H1705 0.930 . S
C1720 C1715 1.390 . S
C1720 C1719 1.387 . S
H1721 C1733 0.930 . S
H1722 C1735 0.930 . S
H1723 C1736 0.930 . S
H1724 C1740 0.959 . S
H1725 C1740 0.959 . S
H1726 C1740 0.961 . S
H1727 C1741 0.960 . S
H1728 C1741 0.961 . S
H1729 C1741 0.959 . S
H1730 C1744 0.929 . S
H1731 C1745 0.931 . S
H1732 C1747 0.930 . S
C1733 H1721 0.930 . S
C1733 C1734 1.399 . S
C1733 C1738 1.399 . S
C1734 C1733 1.399 . S
C1734 C1735 1.376 . S
C1735 H1722 0.930 . S
C1735 C1734 1.376 . S
C1735 C1736 1.388 . S
C1736 H1723 0.930 . S
C1736 C1735 1.388 . S
C1736 C1737 1.390 . S
C1737 C1736 1.390 . S
C1737 C1738 1.394 . S
C1737 C1743 1.465 . S
C1738 C1733 1.399 . S
C1738 C1737 1.394 . S
C1738 C1739 1.516 . S
C1739 C1738 1.516 . S
C1739 C1740 1.502 . S
C1739 C1741 1.561 . S
C1739 C1742 1.526 . S
C1740 H1724 0.959 . S
C1740 H1725 0.959 . S
C1740 H1726 0.961 . S
C1740 C1739 1.502 . S
C1741 H1727 0.960 . S
C1741 H1728 0.961 . S
C1741 H1729 0.959 . S
C1741 C1739 1.561 . S
C1742 C1739 1.526 . S
C1742 C1743 1.396 . S
C1742 C1747 1.390 . S
C1743 C1737 1.465 . S
C1743 C1742 1.396 . S
C1743 C1744 1.399 . S
C1744 H1730 0.929 . S
C1744 C1743 1.399 . S
C1744 C1745 1.385 . S
C1745 H1731 0.931 . S
C1745 C1744 1.385 . S
C1745 C1746 1.389 . S
C1746 C1745 1.389 . S
C1746 C1747 1.387 . S
C1747 H1732 0.930 . S
C1747 C1742 1.390 . S
C1747 C1746 1.387 . S
H1748 C1760 0.930 . S
H1749 C1762 0.930 . S
H1750 C1763 0.930 . S
H1751 C1767 0.959 . S
H1752 C1767 0.959 . S
H1753 C1767 0.961 . S
H1754 C1768 0.960 . S
H1755 C1768 0.961 . S
H1756 C1768 0.959 . S
H1757 C1771 0.929 . S
H1758 C1772 0.931 . S
H1759 C1774 0.930 . S
C1760 H1748 0.930 . S
C1760 C1761 1.399 . S
C1760 C1765 1.399 . S
C1761 C1760 1.399 . S
C1761 C1762 1.376 . S
C1762 H1749 0.930 . S
C1762 C1761 1.376 . S
C1762 C1763 1.388 . S
C1763 H1750 0.930 . S
C1763 C1762 1.388 . S
C1763 C1764 1.390 . S
C1764 C1763 1.390 . S
C1764 C1765 1.394 . S
C1764 C1770 1.465 . S
C1765 C1760 1.399 . S
C1765 C1764 1.394 . S
C1765 C1766 1.516 . S
C1766 C1765 1.516 . S
C1766 C1767 1.502 . S
C1766 C1768 1.561 . S
C1766 C1769 1.526 . S
C1767 H1751 0.959 . S
C1767 H1752 0.959 . S
C1767 H1753 0.961 . S
C1767 C1766 1.502 . S
C1768 H1754 0.960 . S
C1768 H1755 0.961 . S
C1768 H1756 0.959 . S
C1768 C1766 1.561 . S
C1769 C1766 1.526 . S
C1769 C1770 1.396 . S
C1769 C1774 1.390 . S
C1770 C1764 1.465 . S
C1770 C1769 1.396 . S
C1770 C1771 1.399 . S
C1771 H1757 0.929 . S
C1771 C1770 1.399 . S
C1771 C1772 1.385 . S
C1772 H1758 0.931 . S
C1772 C1771 1.385 . S
C1772 C1773 1.389 . S
C1773 C1772 1.389 . S
C1773 C1774 1.387 . S
C1774 H1759 0.930 . S
C1774 C1769 1.390 . S
C1774 C1773 1.387 . S
H1775 C1787 0.930 . S
H1776 C1789 0.930 . S
H1777 C1790 0.930 . S
H1778 C1794 0.959 . S
H1779 C1794 0.959 . S
H1780 C1794 0.961 . S
H1781 C1795 0.960 . S
H1782 C1795 0.961 . S
H1783 C1795 0.959 . S
H1784 C1798 0.929 . S
H1785 C1799 0.931 . S
H1786 C1801 0.930 . S
C1787 H1775 0.930 . S
C1787 C1788 1.399 . S
C1787 C1792 1.399 . S
C1788 C1787 1.399 . S
C1788 C1789 1.376 . S
C1789 H1776 0.930 . S
C1789 C1788 1.376 . S
C1789 C1790 1.388 . S
C1790 H1777 0.930 . S
C1790 C1789 1.388 . S
C1790 C1791 1.390 . S
C1791 C1790 1.390 . S
C1791 C1792 1.394 . S
C1791 C1797 1.465 . S
C1792 C1787 1.399 . S
C1792 C1791 1.394 . S
C1792 C1793 1.516 . S
C1793 C1792 1.516 . S
C1793 C1794 1.502 . S
C1793 C1795 1.561 . S
C1793 C1796 1.526 . S
C1794 H1778 0.959 . S
C1794 H1779 0.959 . S
C1794 H1780 0.961 . S
C1794 C1793 1.502 . S
C1795 H1781 0.960 . S
C1795 H1782 0.961 . S
C1795 H1783 0.959 . S
C1795 C1793 1.561 . S
C1796 C1793 1.526 . S
C1796 C1797 1.396 . S
C1796 C1801 1.390 . S
C1797 C1791 1.465 . S
C1797 C1796 1.396 . S
C1797 C1798 1.399 . S
C1798 H1784 0.929 . S
C1798 C1797 1.399 . S
C1798 C1799 1.385 . S
C1799 H1785 0.931 . S
C1799 C1798 1.385 . S
C1799 C1800 1.389 . S
C1800 C1799 1.389 . S
C1800 C1801 1.387 . S
C1801 H1786 0.930 . S
C1801 C1796 1.390 . S
C1801 C1800 1.387 . S
C531 C331 1.580 . S
C519 C2 1.607 . S
C558 C321 0.556 . S
C546 C65 0.339 . S
C585 C322 1.160 . S
C573 C82 1.187 . S
C600 C145 0.771 . S
C612 C344 0.731 . S
C627 C164 0.338 . S
C639 C347 0.594 . S
C666 C330 1.213 . S
C654 C223 1.221 . S
C681 C244 0.989 . S
C693 C320 1.005 . S
C708 C282 1.565 . S
C720 C338 1.530 . S
C747 C351 3.199 . S
C735 C31 3.235 . S
C762 C60 1.858 . S
C774 C400 1.827 . S
C801 C378 3.321 . S
C789 C111 3.410 . S
C828 C392 1.304 . S
C816 C140 1.354 . S
C843 C162 1.412 . S
C855 C353 1.342 . S
C882 C406 1.333 . S
C870 C225 1.285 . S
C897 C242 1.948 . S
C909 C362 1.863 . S
C924 C311 2.441 . S
C936 C383 2.434 . S
C951 C4 1.050 . S
C963 C409 0.966 . S
C978 C191 1.131 . S
C990 C393 1.165 . S
C1017 C352 2.982 . S
C1005 C220 2.981 . S
C1044 C384 0.857 . S
C1032 C271 0.900 . S
C1059 C284 1.609 . S
C1071 C375 1.586 1_556 S
C1086 C84 1.033 . S
C1098 C382 1.012 . S
C1125 C369 1.187 . S
C1113 C143 1.233 . S
C1140 C63 0.964 . S
C1152 C361 0.860 . S
C1167 C303 1.578 . S
C1179 C424 1.559 . S
C1194 C185 0.238 . S
C1206 C414 0.455 . S
C1233 C415 1.170 . S
C1221 C202 1.171 . S
C1260 C437 1.037 . S
C1248 C265 1.031 . S
C1275 C44 0.283 . S
C1287 C440 0.487 . S
C1314 C423 1.155 . S
C1302 C103 1.186 . S
C1329 C124 0.789 . S
C1341 C413 0.828 . S
C1356 C23 1.572 . S
C1368 C431 1.608 . S
C1383 C305 1.578 . S
C1395 C444 1.604 . S
C1422 C493 1.082 . S
C1410 C180 1.186 . S
C1437 C231 2.982 . S
C1449 C471 2.976 . S
C1464 C260 0.921 . S
C1476 C485 0.791 . S
C1503 C446 0.974 . S
C1491 C42 0.897 . S
C1518 C105 0.929 . S
C1530 C499 1.054 . S
C1557 C455 1.211 . S
C1545 C122 1.186 . S
C1584 C476 1.072 . S
C1572 C25 0.988 . S
C1611 C502 2.418 . S
C1599 C300 2.470 . S
C1626 C71 1.870 . S
C1638 C486 1.808 . S
C1653 C100 3.418 . S
C1665 C445 3.357 . S
C1692 C477 1.317 . S
C1680 C151 1.377 . S
C1707 C20 3.252 . S
C1719 C468 3.219 . S
C1734 C204 1.348 . S
C1746 C475 1.309 . S
C1773 C462 1.903 . S
C1761 C263 1.952 . S
C1800 C454 1.413 . S
C1788 C183 1.370 . S
