# Generated by pormake.
# Topology pyr, (3,6)-cn, num edge types: 1
# Building blocks:
#     Node 0, Type 0, BuildingBlock: OLANEW_clean_sbu_2, # of connection points: 3
#     Node 1, Type 0, BuildingBlock: OLANEW_clean_sbu_2, # of connection points: 3
#     Node 2, Type 0, BuildingBlock: OLANEW_clean_sbu_2, # of connection points: 3
#     Node 3, Type 0, BuildingBlock: OLANEW_clean_sbu_2, # of connection points: 3
#     Node 4, Type 0, BuildingBlock: OLANEW_clean_sbu_2, # of connection points: 3
#     Node 5, Type 0, BuildingBlock: OLANEW_clean_sbu_2, # of connection points: 3
#     Node 6, Type 0, BuildingBlock: OLANEW_clean_sbu_2, # of connection points: 3
#     Node 7, Type 0, BuildingBlock: OLANEW_clean_sbu_2, # of connection points: 3
#     Node 8, Type 1, BuildingBlock: PAMTOO_clean_sbu_0, # of connection points: 6
#     Node 9, Type 1, BuildingBlock: PAMTOO_clean_sbu_0, # of connection points: 6
#     Node 10, Type 1, BuildingBlock: PAMTOO_clean_sbu_0, # of connection points: 6
#     Node 11, Type 1, BuildingBlock: PAMTOO_clean_sbu_0, # of connection points: 6
#     Edge 12, Type (0, 1), BuildingBlock: XIVTED_clean_linker_0, # of connection points: 2
#     Edge 13, Type (0, 1), BuildingBlock: XIVTED_clean_linker_0, # of connection points: 2
#     Edge 14, Type (0, 1), BuildingBlock: XIVTED_clean_linker_0, # of connection points: 2
#     Edge 15, Type (0, 1), BuildingBlock: XIVTED_clean_linker_0, # of connection points: 2
#     Edge 16, Type (0, 1), BuildingBlock: XIVTED_clean_linker_0, # of connection points: 2
#     Edge 17, Type (0, 1), BuildingBlock: XIVTED_clean_linker_0, # of connection points: 2
#     Edge 18, Type (0, 1), BuildingBlock: XIVTED_clean_linker_0, # of connection points: 2
#     Edge 19, Type (0, 1), BuildingBlock: XIVTED_clean_linker_0, # of connection points: 2
#     Edge 20, Type (0, 1), BuildingBlock: XIVTED_clean_linker_0, # of connection points: 2
#     Edge 21, Type (0, 1), BuildingBlock: XIVTED_clean_linker_0, # of connection points: 2
#     Edge 22, Type (0, 1), BuildingBlock: XIVTED_clean_linker_0, # of connection points: 2
#     Edge 23, Type (0, 1), BuildingBlock: XIVTED_clean_linker_0, # of connection points: 2
#     Edge 24, Type (0, 1), BuildingBlock: XIVTED_clean_linker_0, # of connection points: 2
#     Edge 25, Type (0, 1), BuildingBlock: XIVTED_clean_linker_0, # of connection points: 2
#     Edge 26, Type (0, 1), BuildingBlock: XIVTED_clean_linker_0, # of connection points: 2
#     Edge 27, Type (0, 1), BuildingBlock: XIVTED_clean_linker_0, # of connection points: 2
#     Edge 28, Type (0, 1), BuildingBlock: XIVTED_clean_linker_0, # of connection points: 2
#     Edge 29, Type (0, 1), BuildingBlock: XIVTED_clean_linker_0, # of connection points: 2
#     Edge 30, Type (0, 1), BuildingBlock: XIVTED_clean_linker_0, # of connection points: 2
#     Edge 31, Type (0, 1), BuildingBlock: XIVTED_clean_linker_0, # of connection points: 2
#     Edge 32, Type (0, 1), BuildingBlock: XIVTED_clean_linker_0, # of connection points: 2
#     Edge 33, Type (0, 1), BuildingBlock: XIVTED_clean_linker_0, # of connection points: 2
#     Edge 34, Type (0, 1), BuildingBlock: XIVTED_clean_linker_0, # of connection points: 2
#     Edge 35, Type (0, 1), BuildingBlock: XIVTED_clean_linker_0, # of connection points: 2
# Relax obj value: 0.126
# Max RMSD: 0.213
# Mean RMSD: 0.127
data_MOF--net-pyr--node1-OLANEW_clean_sbu_2--node2-PAMTOO_clean_sbu_0--edge1-XIVTED_clean_linker_0
_symmetry_space_group_name_H-M    P1
_symmetry_Int_Tables_number       1
_symmetry_cell_setting            triclinic
loop_
_symmetry_equiv_pos_as_xyz
'x, y, z'
_cell_length_a     39.180948
_cell_length_b     43.36637
_cell_length_c     42.945692
_cell_angle_alpha  94.305129
_cell_angle_beta   89.106792
_cell_angle_gamma 106.6892
loop_
_atom_site_label
_atom_site_type_symbol
_atom_site_fract_x
_atom_site_fract_y
_atom_site_fract_z
_atom_type_partial_charge
O0 O 0.39376 0.28589 0.14704 0.0
Cd1 Cd 0.37896 0.33686 0.15873 0.0
O2 O 0.39479 0.28236 0.19753 0.0
Cd3 Cd 0.39404 0.25667 0.23936 0.0
O4 O 0.37107 0.22894 0.27864 0.0
C5 C 0.34751 0.23796 0.29446 0.0
O6 O 0.33944 0.26394 0.28721 0.0
C7 C 0.39868 0.27082 0.17006 0.0
C8 C 0.31255 0.33957 0.13791 0.0
O9 O 0.34038 0.34806 0.12089 0.0
O10 O 0.31586 0.32889 0.1644 0.0
O11 O 0.17302 0.72881 0.83591 0.0
Cd12 Cd 0.14859 0.68773 0.79393 0.0
O13 O 0.15468 0.76172 0.8089 0.0
Cd14 Cd 0.14367 0.80516 0.794 0.0
O15 O 0.12329 0.8356 0.76521 0.0
C16 C 0.14382 0.85326 0.74625 0.0
O17 O 0.17759 0.85402 0.74536 0.0
C18 C 0.17136 0.7572 0.83255 0.0
C19 C 0.20521 0.67979 0.75731 0.0
O20 O 0.19039 0.70176 0.75236 0.0
O21 O 0.19268 0.66108 0.77906 0.0
O22 O 0.71445 0.42104 0.83806 0.0
Cd23 Cd 0.67243 0.40019 0.79346 0.0
O24 O 0.69389 0.37485 0.85914 0.0
Cd25 Cd 0.68408 0.33563 0.89125 0.0
O26 O 0.65927 0.29027 0.91368 0.0
C27 C 0.65856 0.28914 0.94321 0.0
O28 O 0.67368 0.31557 0.96076 0.0
C29 C 0.71616 0.4029 0.85972 0.0
C30 C 0.64873 0.44063 0.7557 0.0
O31 O 0.62988 0.42731 0.77838 0.0
O32 O 0.67962 0.43637 0.75179 0.0
O33 O 0.91368 0.73238 0.33773 0.0
Cd34 Cd 0.87742 0.67998 0.31287 0.0
O35 O 0.91731 0.71216 0.38272 0.0
Cd36 Cd 0.87654 0.66654 0.37175 0.0
O37 O 0.82407 0.64203 0.38994 0.0
C38 C 0.80927 0.66076 0.40548 0.0
O39 O 0.82576 0.69186 0.40807 0.0
C40 C 0.9255 0.73589 0.36564 0.0
C41 C 0.90362 0.6515 0.26012 0.0
O42 O 0.88787 0.67333 0.2575 0.0
O43 O 0.90827 0.64392 0.28771 0.0
O44 O 0.6913 0.74612 0.79631 0.0
Cd45 Cd 0.66021 0.70841 0.83379 0.0
O46 O 0.68832 0.78623 0.82907 0.0
Cd47 Cd 0.69182 0.83489 0.84926 0.0
O48 O 0.6747 0.86933 0.8809 0.0
C49 C 0.64223 0.8601 0.88903 0.0
O50 O 0.62217 0.83192 0.87745 0.0
C51 C 0.69888 0.77636 0.80305 0.0
C52 C 0.71097 0.68604 0.86208 0.0
O53 O 0.69491 0.67165 0.83697 0.0
O54 O 0.70218 0.71049 0.8744 0.0
O55 O 0.87686 0.25486 0.36064 0.0
Cd56 Cd 0.91277 0.27344 0.40791 0.0
O57 O 0.84424 0.28888 0.36394 0.0
Cd58 Cd 0.86153 0.31661 0.40821 0.0
O59 O 0.8276 0.34366 0.43102 0.0
C60 C 0.81016 0.35396 0.41151 0.0
O61 O 0.8162 0.34933 0.38158 0.0
C62 C 0.85281 0.26547 0.34969 0.0
C63 C 0.93371 0.22135 0.42699 0.0
O64 O 0.90458 0.22661 0.43649 0.0
O65 O 0.95358 0.24123 0.409 0.0
O66 O 0.41469 0.76034 0.23665 0.0
Cd67 Cd 0.40644 0.70332 0.24954 0.0
O68 O 0.37154 0.74691 0.20126 0.0
Cd69 Cd 0.34754 0.69516 0.20473 0.0
O70 O 0.30397 0.65749 0.1811 0.0
C71 C 0.297 0.66321 0.15364 0.0
O72 O 0.31683 0.68954 0.14188 0.0
C73 C 0.39685 0.76822 0.2155 0.0
C74 C 0.42015 0.68411 0.3087 0.0
O75 O 0.44572 0.69845 0.29119 0.0
O76 O 0.38824 0.68039 0.29926 0.0
O77 O 0.14775 0.4046 0.75895 0.0
Cd78 Cd 0.15984 0.38202 0.70695 0.0
O79 O 0.1251 0.35747 0.77861 0.0
Cd80 Cd 0.13037 0.32622 0.73732 0.0
O81 O 0.12092 0.2821 0.706 0.0
C82 C 0.09853 0.25668 0.71468 0.0
O83 O 0.08243 0.25816 0.74159 0.0
C84 C 0.1336 0.38817 0.78163 0.0
C85 C 0.22231 0.41599 0.67725 0.0
O86 O 0.19416 0.42542 0.67723 0.0
O87 O 0.22132 0.39105 0.69189 0.0
Dy88 Dy 0.06517 0.00523 0.52375 0.0
Dy89 Dy 0.9852 0.98327 0.55495 0.0
C90 C 0.04315 0.04924 0.57815 0.0
O91 O 0.07264 0.98639 0.56926 0.0
O92 O 0.01576 0.9547 0.57766 0.0
O93 O 0.12218 0.02666 0.52731 0.0
O94 O 0.09803 1.00203 0.48368 0.0
O95 O 0.98343 0.95815 0.50719 0.0
O96 O 0.03907 0.95312 0.51046 0.0
O97 O 0.98274 0.02222 0.52525 0.0
O98 O 0.03282 0.02761 0.49465 0.0
O99 O 0.93571 0.94605 0.55911 0.0
O100 O 0.94265 0.99326 0.58312 0.0
C101 C 0.05008 0.96361 0.58386 0.0
O102 O 0.05941 0.049 0.55121 0.0
O103 O 0.01904 0.0234 0.58698 0.0
C104 C 0.1508 0.04483 0.48062 0.0
C105 C 0.19689 0.0909 0.44475 0.0
C106 C 0.16013 0.08787 0.44559 0.0
C107 C 0.13725 0.06501 0.46345 0.0
C108 C 0.18744 0.04833 0.48051 0.0
C109 C 0.21032 0.07119 0.4628 0.0
C110 C 0.12724 0.01926 0.49794 0.0
C111 C 0.00691 0.943 0.49861 0.0
C112 C 0.00274 0.03429 0.50177 0.0
C113 C 0.90416 0.9483 0.60639 0.0
C114 C 0.86307 0.91549 0.65472 0.0
C115 C 0.89018 0.90415 0.6405 0.0
C116 C 0.91067 0.92048 0.61663 0.0
C117 C 0.87803 0.96032 0.62135 0.0
C118 C 0.85776 0.94415 0.64542 0.0
C119 C 0.92221 0.9637 0.57879 0.0
H120 H 0.14888 0.10247 0.43177 0.0
H121 H 0.10896 0.06268 0.46338 0.0
H122 H 0.19832 0.03305 0.49382 0.0
H123 H 0.23854 0.07332 0.46314 0.0
H124 H 0.89515 0.88234 0.64751 0.0
H125 H 0.9309 0.91085 0.60567 0.0
H126 H 0.87256 0.9817 0.61375 0.0
H127 H 0.8369 0.95332 0.65581 0.0
Dy128 Dy 0.47426 0.02109 0.05632 0.0
Dy129 Dy 0.54402 0.04248 0.10395 0.0
C130 C 0.47951 0.97826 0.11333 0.0
O131 O 0.46764 0.06332 0.08533 0.0
O132 O 0.50647 0.06823 0.12645 0.0
O133 O 0.41799 0.01083 0.04696 0.0
O134 O 0.45497 0.01089 0.00871 0.0
O135 O 0.54835 0.08646 0.07929 0.0
O136 O 0.51622 0.06174 0.03549 0.0
O137 O 0.55859 0.01947 0.05907 0.0
O138 O 0.50405 0.98516 0.04603 0.0
O139 O 0.60123 0.05501 0.10806 0.0
O140 O 0.56831 0.04762 0.14959 0.0
C141 C 0.48012 0.07574 0.11307 0.0
O142 O 0.4582 0.98815 0.09556 0.0
O143 O 0.51385 0.99272 0.11504 0.0
C144 C 0.39537 0.97822 1.00029 0.0
C145 C 0.34154 0.93023 0.96672 0.0
C146 C 0.34272 0.93174 0.99956 0.0
C147 C 0.36937 0.95555 0.01622 0.0
C148 C 0.39465 0.97626 0.96756 0.0
C149 C 0.36816 0.9525 0.95094 0.0
C150 C 0.42169 0.00564 0.01692 0.0
C151 C 0.53904 0.08691 0.0502 0.0
C152 C 0.53875 0.9933 0.04376 0.0
C153 C 0.62777 0.08245 0.15515 0.0
C154 C 0.68179 0.12858 0.19005 0.0
C155 C 0.64566 0.12618 0.19572 0.0
C156 C 0.61883 0.10327 0.17841 0.0
C157 C 0.66376 0.08553 0.14883 0.0
C158 C 0.6905 0.10841 0.166 0.0
C159 C 0.60063 0.05591 0.13846 0.0
H160 H 0.3225 0.9151 0.01245 0.0
H161 H 0.36914 0.95656 0.04149 0.0
H162 H 0.41431 0.99356 0.95476 0.0
H163 H 0.3685 0.95166 0.92568 0.0
H164 H 0.63806 0.14119 0.21427 0.0
H165 H 0.59122 0.10138 0.18374 0.0
H166 H 0.67123 0.0697 0.13097 0.0
H167 H 0.71804 0.11 0.16068 0.0
Dy168 Dy 0.50648 0.52065 0.51919 0.0
Dy169 Dy 0.51431 0.5888 0.56194 0.0
C170 C 0.5424 0.53394 0.58701 0.0
O171 O 0.45096 0.51556 0.53522 0.0
O172 O 0.4648 0.55279 0.57752 0.0
O173 O 0.49591 0.46873 0.51532 0.0
O174 O 0.51381 0.49604 0.47511 0.0
O175 O 0.48055 0.59189 0.52149 0.0
O176 O 0.49133 0.5528 0.48665 0.0
O177 O 0.56025 0.60014 0.52911 0.0
O178 O 0.56401 0.54855 0.51903 0.0
O179 O 0.51677 0.63938 0.5678 0.0
O180 O 0.51862 0.61299 0.60814 0.0
C181 C 0.44242 0.52822 0.56189 0.0
O182 O 0.51895 0.51336 0.56842 0.0
O183 O 0.55116 0.56499 0.58329 0.0
C184 C 0.53756 0.45343 0.48213 0.0
C185 C 0.59659 0.42981 0.469 0.0
C186 C 0.59752 0.45238 0.49448 0.0
C187 C 0.56831 0.46416 0.50092 0.0
C188 C 0.53611 0.43041 0.45716 0.0
C189 C 0.56538 0.41864 0.45064 0.0
C190 C 0.50846 0.46833 0.48704 0.0
C191 C 0.47982 0.57823 0.49305 0.0
C192 C 0.5774 0.57986 0.5178 0.0
C193 C 0.48276 0.64762 0.61141 0.0
C194 C 0.4221 0.6579 0.64125 0.0
C195 C 0.41849 0.63392 0.61668 0.0
C196 C 0.44853 0.62893 0.60182 0.0
C197 C 0.4866 0.67224 0.63531 0.0
C198 C 0.45638 0.67753 0.65003 0.0
C199 C 0.51381 0.63904 0.59807 0.0
H200 H 0.62127 0.4618 0.50881 0.0
H201 H 0.57005 0.48227 0.52011 0.0
H202 H 0.51267 0.42204 0.44231 0.0
H203 H 0.56368 0.40099 0.43106 0.0
H204 H 0.3924 0.61872 0.6092 0.0
H205 H 0.44507 0.60984 0.58335 0.0
H206 H 0.51287 0.68672 0.6431 0.0
H207 H 0.45984 0.69609 0.66901 0.0
Dy208 Dy 0.00768 0.54529 0.99769 0.0
Dy209 Dy 1.00038 0.47993 0.03514 0.0
C210 C 0.97508 0.53863 0.06714 0.0
O211 O 0.06306 0.55043 0.01378 0.0
O212 O 0.049 0.51727 0.05419 0.0
O213 O 0.01925 0.59702 0.99612 0.0
O214 O 0.00327 0.56559 0.95412 0.0
O215 O 0.03949 0.47919 0.99675 0.0
O216 O 0.01906 0.50842 0.96324 0.0
O217 O 0.95313 0.46802 1.0026 0.0
O218 O 0.94969 0.51926 0.99773 0.0
O219 O 0.99046 0.4282 0.03378 0.0
O220 O 0.00384 0.45701 0.0776 0.0
C221 C 0.07156 0.54031 0.03986 0.0
O222 O 0.99429 0.55753 0.04688 0.0
O223 O 0.96843 0.507 0.06378 0.0
C224 C 0.98128 0.61021 0.96047 0.0
C225 C 0.92363 0.63171 0.94282 0.0
C226 C 0.92317 0.61793 0.97147 0.0
C227 C 0.95169 0.60705 0.98014 0.0
C228 C 0.98241 0.62501 0.93245 0.0
C229 C 0.95378 0.63566 0.92364 0.0
C230 C 0.00882 0.59472 0.96712 0.0
C231 C 0.03712 0.48816 0.96856 0.0
C232 C 0.93566 0.48787 0.99418 0.0
C233 C 0.02924 0.414 0.06841 0.0
C234 C 0.08806 0.39102 0.08077 0.0
C235 C 0.07986 0.39586 0.05005 0.0
C236 C 0.05094 0.40735 0.04395 0.0
C237 C 0.03665 0.4083 0.09896 0.0
C238 C 0.06576 0.397 0.10512 0.0
C239 C 1.00061 0.42898 0.0627 0.0
H240 H 0.90012 0.61426 0.98651 0.0
H241 H 0.95007 0.59515 1.00165 0.0
H242 H 0.0049 0.62733 0.91688 0.0
H243 H 0.95493 0.64645 0.90156 0.0
H244 H 0.09597 0.39099 0.03062 0.0
H245 H 0.04604 0.41157 0.02012 0.0
H246 H 0.02046 0.41344 0.11823 0.0
H247 H 0.07143 0.39398 0.12911 0.0
H248 H 0.29531 0.25022 0.33229 0.0
H249 H 0.25176 0.08094 0.409 0.0
H250 H 0.35403 0.18067 0.3126 0.0
H251 H 0.19685 0.1525 0.43351 0.0
H252 H 0.29049 0.11794 0.37471 0.0
H253 H 0.26005 0.2156 0.37052 0.0
C254 C 0.30095 0.22776 0.33612 0.0
C255 C 0.32758 0.21826 0.3191 0.0
C256 C 0.27009 0.12565 0.38767 0.0
C257 C 0.28716 0.17845 0.36274 0.0
C258 C 0.24805 0.10458 0.40744 0.0
C259 C 0.22101 0.11362 0.42427 0.0
C260 C 0.26505 0.15603 0.38452 0.0
C261 C 0.21705 0.14435 0.42072 0.0
C262 C 0.28076 0.20799 0.35795 0.0
C263 C 0.33372 0.18893 0.32511 0.0
N264 N 0.23879 0.16442 0.4012 0.0
N265 N 0.31354 0.17001 0.34632 0.0
H266 H 0.19061 0.75316 0.89243 0.0
H267 H 0.30578 0.93847 0.91502 0.0
H268 H 0.19724 0.82191 0.82336 0.0
H269 H 0.31087 0.86653 0.97765 0.0
H270 H 0.26039 0.89762 0.88429 0.0
H271 H 0.22855 0.79605 0.9272 0.0
C272 C 0.19956 0.77741 0.88474 0.0
C273 C 0.19033 0.78398 0.85501 0.0
C274 C 0.27133 0.89079 0.90482 0.0
C275 C 0.23418 0.83318 0.89461 0.0
C276 C 0.29745 0.91405 0.92229 0.0
C277 C 0.31255 0.90588 0.94881 0.0
C278 C 0.26005 0.85903 0.91388 0.0
C279 C 0.29993 0.87402 0.95751 0.0
C280 C 0.22131 0.80186 0.9046 0.0
C281 C 0.2028 0.81581 0.84629 0.0
N282 N 0.27458 0.85174 0.93999 0.0
N283 N 0.22428 0.83917 0.86592 0.0
H284 H 0.68516 0.48391 0.71448 0.0
H285 H 0.51398 0.47844 0.61602 0.0
H286 H 0.57888 0.43663 0.74512 0.0
H287 H 0.60663 0.56142 0.61727 0.0
H288 H 0.53993 0.45813 0.65875 0.0
H289 H 0.65957 0.50869 0.67454 0.0
C290 C 0.6565 0.47893 0.71298 0.0
C291 C 0.63414 0.45819 0.73325 0.0
C292 C 0.55453 0.48083 0.64974 0.0
C293 C 0.60479 0.48583 0.68718 0.0
C294 C 0.53985 0.49237 0.62522 0.0
C295 C 0.55814 0.52171 0.61304 0.0
C296 C 0.58821 0.4983 0.66178 0.0
C297 C 0.59153 0.53877 0.62606 0.0
C298 C 0.64196 0.49311 0.69023 0.0
C299 C 0.59716 0.45258 0.73016 0.0
N300 N 0.60569 0.52666 0.64951 0.0
N301 N 0.58366 0.46594 0.70734 0.0
H302 H 0.92542 0.59651 0.25664 0.0
H303 H 0.96639 0.59902 0.07381 0.0
H304 H 0.90666 0.66774 0.19943 0.0
H305 H 0.95434 0.51407 0.12409 0.0
H306 H 0.94889 0.62615 0.12059 0.0
H307 H 0.94104 0.56791 0.2096 0.0
C308 C 0.92478 0.60626 0.23423 0.0
C309 C 0.91475 0.63465 0.23204 0.0
C310 C 0.94988 0.60153 0.12141 0.0
C311 C 0.93262 0.60196 0.17808 0.0
C312 C 0.95993 0.58598 0.09468 0.0
C313 C 0.96189 0.55415 0.09497 0.0
C314 C 0.94214 0.58542 0.14896 0.0
C315 C 0.95302 0.53852 0.12273 0.0
C316 C 0.93349 0.58979 0.20737 0.0
C317 C 0.91421 0.64598 0.2023 0.0
N318 N 0.94383 0.5544 0.14869 0.0
N319 N 0.92313 0.62971 0.17658 0.0
H320 H 0.3772 0.22494 0.12197 0.0
H321 H 0.50788 0.12202 0.16128 0.0
H322 H 0.44225 0.24748 0.20531 0.0
H323 H 0.41855 0.08796 0.09754 0.0
H324 H 0.48597 0.16839 0.17832 0.0
H325 H 0.39456 0.17534 0.11195 0.0
C326 C 0.39494 0.21928 0.13829 0.0
C327 C 0.40787 0.24006 0.16473 0.0
C328 C 0.47106 0.15047 0.16087 0.0
C329 C 0.42835 0.1835 0.15326 0.0
C330 C 0.48346 0.12396 0.15125 0.0
C331 C 0.46532 0.10123 0.12766 0.0
C332 C 0.44055 0.15424 0.1466 0.0
C333 C 0.43384 0.10506 0.11542 0.0
C334 C 0.40477 0.19091 0.13266 0.0
C335 C 0.43099 0.23167 0.18505 0.0
N336 N 0.42276 0.13114 0.12476 0.0
N337 N 0.44076 0.20413 0.17877 0.0
H338 H 0.07414 0.85178 0.73719 0.0
H339 H 0.1197 0.97196 0.59978 0.0
H340 H 0.18069 0.89494 0.70439 0.0
H341 H 0.0123 0.91963 0.62383 0.0
H342 H 0.14233 0.94641 0.64024 0.0
H343 H 0.05094 0.87914 0.69833 0.0
C344 C 0.09269 0.86714 0.72195 0.0
C345 C 0.12945 0.87099 0.72402 0.0
C346 C 0.11381 0.94047 0.63669 0.0
C347 C 0.10301 0.90231 0.67942 0.0
C348 C 0.10081 0.95509 0.61355 0.0
C349 C 0.06398 0.94791 0.60827 0.0
C350 C 0.08988 0.91854 0.65489 0.0
C351 C 0.04089 0.92583 0.62695 0.0
C352 C 0.0794 0.88267 0.69969 0.0
C353 C 0.15217 0.89117 0.70361 0.0
N354 N 0.05423 0.91195 0.64944 0.0
N355 N 0.13858 0.90602 0.68218 0.0
H356 H 0.74594 0.36693 0.89557 0.0
H357 H 0.89341 0.52201 0.97197 0.0
H358 H 0.75258 0.46516 0.87826 0.0
H359 H 0.89688 0.42434 0.98024 0.0
H360 H 0.83775 0.50108 0.94273 0.0
H361 H 0.79661 0.38697 0.93164 0.0
C362 C 0.75745 0.3927 0.89983 0.0
C363 C 0.74459 0.41436 0.88402 0.0
C364 C 0.85052 0.48416 0.95105 0.0
C365 C 0.8033 0.43751 0.92489 0.0
C366 C 0.88239 0.4961 0.96789 0.0
C367 C 0.90017 0.47495 0.97858 0.0
C368 C 0.83597 0.45071 0.94471 0.0
C369 C 0.88428 0.44161 0.97245 0.0
C370 C 0.78672 0.40414 0.9202 0.0
C371 C 0.76151 0.44753 0.88987 0.0
N372 N 0.85322 0.43054 0.95583 0.0
N373 N 0.7899 0.45802 0.90972 0.0
H374 H 0.76977 0.59754 0.40935 0.0
H375 H 0.61577 0.64293 0.51173 0.0
H376 H 0.77049 0.69521 0.43842 0.0
H377 H 0.61895 0.54504 0.48918 0.0
H378 H 0.67217 0.66248 0.48443 0.0
H379 H 0.71381 0.5777 0.43747 0.0
C380 C 0.75814 0.61481 0.42155 0.0
C381 C 0.77488 0.64809 0.42151 0.0
C382 C 0.66058 0.63672 0.48555 0.0
C383 C 0.71091 0.62557 0.45381 0.0
C384 C 0.62837 0.62554 0.50119 0.0
C385 C 0.61251 0.59228 0.5028 0.0
C386 C 0.67706 0.61453 0.47125 0.0
C387 C 0.63013 0.5709 0.48862 0.0
C388 C 0.72624 0.60347 0.43768 0.0
C389 C 0.75859 0.66934 0.4378 0.0
N390 N 0.66136 0.58239 0.47337 0.0
N391 N 0.72757 0.65774 0.45325 0.0
H392 H 0.24781 0.32111 0.16712 0.0
H393 H 0.1537 0.40964 0.05295 0.0
H394 H 0.29873 0.36747 0.0862 0.0
H395 H 0.09688 0.35006 0.12415 0.0
H396 H 0.20694 0.39439 0.06499 0.0
H397 H 0.19231 0.33141 0.15209 0.0
C398 C 0.24729 0.33327 0.14609 0.0
C399 C 0.27806 0.34353 0.12796 0.0
C400 C 0.18279 0.3845 0.07789 0.0
C401 C 0.21463 0.35563 0.11074 0.0
C402 C 0.1522 0.39304 0.07089 0.0
C403 C 0.1205 0.3811 0.08747 0.0
C404 C 0.18201 0.364 0.10186 0.0
C405 C 0.12072 0.36027 0.111 0.0
C406 C 0.21557 0.33914 0.13752 0.0
C407 C 0.27573 0.35914 0.10092 0.0
N408 N 0.15098 0.35249 0.11754 0.0
N409 N 0.24468 0.36488 0.09327 0.0
H410 H 0.62024 0.23058 0.91465 0.0
H411 H 0.58084 0.14477 0.07561 0.0
H412 H 0.65534 0.27819 0.00526 0.0
H413 H 0.53522 0.09721 0.98764 0.0
H414 H 0.60923 0.19318 0.04929 0.0
H415 H 0.59017 0.18111 0.9399 0.0
C416 C 0.6217 0.23066 0.93982 0.0
C417 C 0.64044 0.25869 0.95783 0.0
C418 C 0.59301 0.17224 0.03564 0.0
C419 C 0.60604 0.20209 0.98686 0.0
C420 C 0.57672 0.14442 0.05069 0.0
C421 C 0.55555 0.11664 0.03386 0.0
C422 C 0.58841 0.1726 1.00333 0.0
C423 C 0.55125 0.11799 1.0016 0.0
C424 C 0.60445 0.20241 0.95421 0.0
C425 C 0.64129 0.25729 0.99035 0.0
N426 N 0.56762 0.14547 0.98735 0.0
N427 N 0.62444 0.22956 1.00373 0.0
H428 H 0.97392 0.75048 0.41345 0.0
H429 H 0.95043 0.92348 0.4575 0.0
H430 H 0.91863 0.79462 0.35217 0.0
H431 H 0.04134 0.89655 0.4887 0.0
H432 H 0.93486 0.87487 0.42129 0.0
H433 H 0.99659 0.80254 0.44348 0.0
C434 C 0.96707 0.77129 0.406 0.0
C435 C 0.94448 0.76825 0.3802 0.0
C436 C 0.95834 0.87979 0.43593 0.0
C437 C 0.96938 0.82765 0.41506 0.0
C438 C 0.9671 0.90738 0.45674 0.0
C439 C 0.99717 0.91405 0.47623 0.0
C440 C 0.97937 0.85839 0.43509 0.0
C441 C 0.01795 0.89242 0.4741 0.0
C442 C 0.97994 0.80096 0.42318 0.0
C443 C 0.93626 0.79597 0.37171 0.0
N444 N 0.00845 0.86542 0.45419 0.0
N445 N 0.9482 0.8244 0.38942 0.0
H446 H 0.24735 0.72315 0.71945 0.0
H447 H 0.36858 0.60998 0.66409 0.0
H448 H 0.23454 0.62954 0.75392 0.0
H449 H 0.403 0.71308 0.65748 0.0
H450 H 0.31527 0.61516 0.69172 0.0
H451 H 0.30051 0.71828 0.69108 0.0
C452 C 0.25559 0.7015 0.72091 0.0
C453 C 0.23651 0.67669 0.73908 0.0
C454 C 0.33449 0.63667 0.68429 0.0
C455 C 0.29711 0.671 0.70666 0.0
C456 C 0.36479 0.63371 0.66839 0.0
C457 C 0.39012 0.66116 0.65845 0.0
C458 C 0.32921 0.66725 0.68998 0.0
C459 C 0.38416 0.69138 0.66493 0.0
C460 C 0.28602 0.69885 0.70486 0.0
C461 C 0.2485 0.64927 0.74026 0.0
N462 N 0.35415 0.69362 0.68014 0.0
N463 N 0.27795 0.6471 0.72417 0.0
H464 H 0.70805 0.7632 0.74114 0.0
H465 H 0.83976 0.93669 0.7108 0.0
H466 H 0.7395 0.83984 0.81425 0.0
H467 H 0.83064 0.85068 0.65024 0.0
H468 H 0.79777 0.90411 0.74701 0.0
H469 H 0.74718 0.79774 0.7052 0.0
C470 C 0.72285 0.78745 0.74961 0.0
C471 C 0.72005 0.79871 0.78078 0.0
C472 C 0.8051 0.89243 0.72583 0.0
C473 C 0.76523 0.83843 0.73962 0.0
C474 C 0.82894 0.91097 0.70517 0.0
C475 C 0.83884 0.89629 0.6776 0.0
C476 C 0.79072 0.85911 0.71857 0.0
C477 C 0.82414 0.86289 0.67144 0.0
C478 C 0.7453 0.80713 0.72905 0.0
C479 C 0.73996 0.83038 0.79033 0.0
N480 N 0.80074 0.84549 0.69167 0.0
N481 N 0.76179 0.84915 0.76983 0.0
H482 H 0.80154 0.28295 0.31868 0.0
H483 H 0.74122 0.11682 0.21307 0.0
H484 H 0.85659 0.20967 0.31704 0.0
H485 H 0.68716 0.19068 0.21315 0.0
H486 H 0.78658 0.15247 0.24782 0.0
H487 H 0.76267 0.25171 0.27667 0.0
C488 C 0.80573 0.26044 0.30929 0.0
C489 C 0.8322 0.24877 0.32166 0.0
C490 C 0.76496 0.16101 0.24009 0.0
C491 C 0.78748 0.21273 0.27364 0.0
C492 C 0.7391 0.14072 0.22007 0.0
C493 C 0.71027 0.15076 0.21015 0.0
C494 C 0.76198 0.19159 0.25046 0.0
C495 C 0.70864 0.18177 0.22053 0.0
C496 C 0.78344 0.24258 0.2853 0.0
C497 C 0.83646 0.21954 0.30836 0.0
N498 N 0.73406 0.20104 0.24022 0.0
N499 N 0.8141 0.20239 0.28527 0.0
H500 H 0.4778 0.70603 0.34834 0.0
H501 H 0.44515 0.5489 0.43872 0.0
H502 H 0.37917 0.63012 0.33475 0.0
H503 H 0.48804 0.64235 0.48768 0.0
H504 H 0.42854 0.57541 0.39495 0.0
H505 H 0.49032 0.68063 0.39456 0.0
C506 C 0.45873 0.68413 0.35515 0.0
C507 C 0.42726 0.67031 0.33779 0.0
C508 C 0.44141 0.59 0.4154 0.0
C509 C 0.44199 0.64067 0.38993 0.0
C510 C 0.45095 0.57494 0.4403 0.0
C511 C 0.46776 0.59342 0.46699 0.0
C512 C 0.44986 0.62384 0.41672 0.0
C513 C 0.47477 0.62715 0.46772 0.0
C514 C 0.46587 0.66971 0.3815 0.0
C515 C 0.40356 0.64178 0.34763 0.0
N516 N 0.46628 0.6413 0.44281 0.0
N517 N 0.41164 0.62764 0.37274 0.0
H518 H 0.11508 0.36253 0.83802 0.0
H519 H 0.05033 0.51052 0.91038 0.0
H520 H 0.13086 0.45071 0.79211 0.0
H521 H 0.06435 0.43619 0.96608 0.0
H522 H 0.07765 0.4879 0.86622 0.0
H523 H 0.09484 0.38806 0.88462 0.0
C524 C 0.11456 0.38735 0.83779 0.0
C525 C 0.12459 0.40444 0.81099 0.0
C526 C 0.07495 0.47663 0.88814 0.0
C527 C 0.10096 0.43369 0.86426 0.0
C528 C 0.05918 0.48944 0.91337 0.0
C529 C 0.05484 0.47515 0.94201 0.0
C530 C 0.08609 0.449 0.8913 0.0
C531 C 0.06711 0.44801 0.94447 0.0
C532 C 0.10303 0.40191 0.86445 0.0
C533 C 0.12345 0.43659 0.81218 0.0
N534 N 0.08188 0.43565 0.91938 0.0
N535 N 0.11148 0.45003 0.83823 0.0
H536 H 0.57348 0.8476 0.90897 0.0
H537 H 0.60939 0.00492 0.02807 0.0
H538 H 0.67668 0.91777 0.92105 0.0
H539 H 0.50581 0.93695 0.00988 0.0
H540 H 0.63532 0.97279 0.99052 0.0
H541 H 0.54896 0.8797 0.94716 0.0
C542 C 0.59102 0.86981 0.91963 0.0
C543 C 0.62722 0.88 0.91175 0.0
C544 C 0.60694 0.96494 0.99481 0.0
C545 C 0.59922 0.91696 0.95576 0.0
C546 C 0.59212 0.98321 0.01631 0.0
C547 C 0.55534 0.97368 0.02212 0.0
C548 C 0.58482 0.93689 0.97911 0.0
C549 C 0.53427 0.94534 0.00615 0.0
C550 C 0.57697 0.88816 0.94149 0.0
C551 C 0.64861 0.90903 0.92638 0.0
N552 N 0.54931 0.92802 0.9854 0.0
N553 N 0.63429 0.92649 0.94772 0.0
H554 H 0.89447 0.1727 0.46081 0.0
H555 H 0.04306 0.07899 0.46333 0.0
H556 H 0.99514 0.20447 0.41348 0.0
H557 H 0.93781 0.04551 0.50242 0.0
H558 H 0.02605 0.12376 0.44256 0.0
H559 H 0.9103 0.12526 0.47503 0.0
C560 C 0.91998 0.16974 0.45343 0.0
C561 C 0.94356 0.1927 0.43602 0.0
C562 C 0.00664 0.10638 0.45543 0.0
C563 C 0.96194 0.13813 0.45222 0.0
C564 C 0.01626 0.08072 0.46712 0.0
C565 C 0.99194 0.05859 0.48489 0.0
C566 C 0.97252 0.10987 0.46162 0.0
C567 C 0.95763 0.06214 0.48919 0.0
C568 C 0.92898 0.14251 0.46147 0.0
C569 C 0.97618 0.18741 0.427 0.0
N570 N 0.9491 0.08736 0.47788 0.0
N571 N 0.98449 0.16072 0.43531 0.0
H572 H 0.24741 0.60846 0.1715 0.0
H573 H 0.12564 0.59007 0.019 0.0
H574 H 0.27528 0.67006 0.09505 0.0
H575 H 0.09819 0.52688 0.09429 0.0
H576 H 0.18212 0.61783 0.04534 0.0
H577 H 0.19413 0.57641 0.14246 0.0
C578 C 0.24247 0.61514 0.14855 0.0
C579 C 0.2658 0.64211 0.1358 0.0
C580 C 0.16381 0.59778 0.05603 0.0
C581 C 0.20478 0.60563 0.10246 0.0
C582 C 0.13151 0.58189 0.04096 0.0
C583 C 0.10693 0.55618 0.05448 0.0
C584 C 0.17164 0.58801 0.08491 0.0
C585 C 0.11617 0.54666 0.083 0.0
C586 C 0.21202 0.59685 0.13198 0.0
C587 C 0.25803 0.64957 0.10592 0.0
N588 N 0.14765 0.56266 0.09731 0.0
N589 N 0.22816 0.63156 0.09038 0.0
H590 H 0.27567 0.39164 0.6547 0.0
H591 H 0.40407 0.55622 0.60299 0.0
H592 H 0.24222 0.47837 0.66031 0.0
H593 H 0.40257 0.4649 0.55481 0.0
H594 H 0.34947 0.52924 0.63037 0.0
H595 H 0.32787 0.41916 0.62467 0.0
C596 C 0.27942 0.41653 0.64979 0.0
C597 C 0.25457 0.43276 0.66002 0.0
C598 C 0.36098 0.51522 0.6136 0.0
C599 C 0.31433 0.46438 0.62599 0.0
C600 C 0.39211 0.53055 0.598 0.0
C601 C 0.40779 0.51279 0.57647 0.0
C602 C 0.34599 0.48174 0.6083 0.0
C603 C 0.3912 0.47955 0.57099 0.0
C604 C 0.30904 0.4321 0.63248 0.0
C605 C 0.26066 0.46495 0.65279 0.0
N606 N 0.36147 0.46501 0.58712 0.0
N607 N 0.29011 0.47983 0.63646 0.0
H608 H 0.74149 0.64054 0.8372 0.0
H609 H 0.88266 0.66433 0.97593 0.0
H610 H 0.74711 0.70836 0.91722 0.0
H611 H 0.89197 0.61729 0.88536 0.0
H612 H 0.8291 0.67617 0.95759 0.0
H613 H 0.79251 0.62665 0.85764 0.0
C614 C 0.75327 0.65234 0.8592 0.0
C615 C 0.7401 0.67575 0.87547 0.0
C616 C 0.84296 0.66334 0.94174 0.0
C617 C 0.79863 0.66002 0.89894 0.0
C618 C 0.8734 0.65652 0.95221 0.0
C619 C 0.89185 0.64002 0.93205 0.0
C620 C 0.8307 0.6532 0.91105 0.0
C621 C 0.87885 0.63051 0.90151 0.0
C622 C 0.78253 0.64451 0.87077 0.0
C623 C 0.75649 0.69027 0.90385 0.0
N624 N 0.84901 0.63714 0.89199 0.0
N625 N 0.78496 0.68219 0.91469 0.0
H626 H 0.3578 0.79408 0.17834 0.0
H627 H 0.51468 0.95608 0.15721 0.0
H628 H 0.45797 0.81866 0.2281 0.0
H629 H 0.4125 0.93396 0.11103 0.0
H630 H 0.49328 0.90738 0.18509 0.0
H631 H 0.37602 0.84631 0.15597 0.0
C632 C 0.38357 0.81057 0.18485 0.0
C633 C 0.40645 0.80169 0.20512 0.0
C634 C 0.47542 0.91317 0.169 0.0
C635 C 0.42768 0.86191 0.17908 0.0
C636 C 0.48763 0.94106 0.15291 0.0
C637 C 0.46546 0.94924 0.13143 0.0
C638 C 0.44071 0.89291 0.16365 0.0
C639 C 0.43061 0.92873 0.12725 0.0
C640 C 0.39396 0.84048 0.17195 0.0
C641 C 0.4394 0.82433 0.21267 0.0
N642 N 0.41942 0.90147 0.14304 0.0
N643 N 0.44913 0.85323 0.19945 0.0
H644 H 0.05184 0.19851 0.72676 0.0
H645 H 0.09127 0.10707 0.56726 0.0
H646 H 0.12677 0.24438 0.65769 0.0
H647 H 0.01549 0.06096 0.63568 0.0
H648 H 0.10505 0.15722 0.60045 0.0
H649 H 0.03865 0.14787 0.69412 0.0
C650 C 0.06556 0.19797 0.70473 0.0
C651 C 0.09048 0.22583 0.69498 0.0
C652 C 0.08544 0.13615 0.60827 0.0
C653 C 0.07543 0.16772 0.65742 0.0
C654 C 0.07753 0.1074 0.58931 0.0
C655 C 0.05213 0.07961 0.59864 0.0
C656 C 0.06786 0.13732 0.63687 0.0
C657 C 0.03525 0.0817 0.6275 0.0
C658 C 0.05799 0.16899 0.68609 0.0
C659 C 0.10738 0.22357 0.66618 0.0
N660 N 0.0434 0.11005 0.64555 0.0
N661 N 0.09953 0.19505 0.64844 0.0
H662 H 0.78545 0.36257 0.47101 0.0
H663 H 0.62389 0.42193 0.41092 0.0
H664 H 0.76836 0.37703 0.37478 0.0
H665 H 0.64258 0.41381 0.50833 0.0
H666 H 0.677 0.40529 0.39765 0.0
H667 H 0.7341 0.38202 0.48576 0.0
C668 C 0.77111 0.37005 0.45303 0.0
C669 C 0.78116 0.36802 0.42159 0.0
C670 C 0.66956 0.40712 0.42196 0.0
C671 C 0.72231 0.39002 0.43823 0.0
C672 C 0.63901 0.41638 0.42953 0.0
C673 C 0.6286 0.41909 0.46078 0.0
C674 C 0.68996 0.4004 0.44577 0.0
C675 C 0.64974 0.41224 0.48394 0.0
C676 C 0.74175 0.38106 0.46145 0.0
C677 C 0.76157 0.37802 0.39929 0.0
N678 N 0.67936 0.40312 0.47597 0.0
N679 N 0.73307 0.38841 0.40802 0.0
loop_
_geom_bond_atom_site_label_1
_geom_bond_atom_site_label_2
_geom_bond_distance
_geom_bond_site_symmetry_2
_ccdc_geom_bond_type
O0 Cd1 2.300 . S
O0 C7 1.275 . S
Cd1 O0 2.300 . S
Cd1 O9 2.381 . S
Cd1 O10 2.378 . S
O2 Cd3 2.385 . S
O2 C7 1.255 . S
Cd3 O2 2.385 . S
Cd3 O4 2.317 . S
O4 Cd3 2.317 . S
O4 C5 1.232 . S
C5 O4 1.232 . S
C5 O6 1.218 . S
O6 C5 1.218 . S
C7 O0 1.275 . S
C7 O2 1.255 . S
C8 O9 1.258 . S
C8 O10 1.256 . S
O9 Cd1 2.381 . S
O9 C8 1.258 . S
O10 Cd1 2.378 . S
O10 C8 1.256 . S
O11 Cd12 2.300 . S
O11 C18 1.275 . S
Cd12 O11 2.300 . S
Cd12 O20 2.381 . S
Cd12 O21 2.378 . S
O13 Cd14 2.385 . S
O13 C18 1.255 . S
Cd14 O13 2.385 . S
Cd14 O15 2.317 . S
O15 Cd14 2.317 . S
O15 C16 1.232 . S
C16 O15 1.232 . S
C16 O17 1.218 . S
O17 C16 1.218 . S
C18 O11 1.275 . S
C18 O13 1.255 . S
C19 O20 1.258 . S
C19 O21 1.256 . S
O20 Cd12 2.381 . S
O20 C19 1.258 . S
O21 Cd12 2.378 . S
O21 C19 1.256 . S
O22 Cd23 2.300 . S
O22 C29 1.275 . S
Cd23 O22 2.300 . S
Cd23 O31 2.381 . S
Cd23 O32 2.378 . S
O24 Cd25 2.385 . S
O24 C29 1.255 . S
Cd25 O24 2.385 . S
Cd25 O26 2.317 . S
O26 Cd25 2.317 . S
O26 C27 1.232 . S
C27 O26 1.232 . S
C27 O28 1.218 . S
O28 C27 1.218 . S
C29 O22 1.275 . S
C29 O24 1.255 . S
C30 O31 1.258 . S
C30 O32 1.256 . S
O31 Cd23 2.381 . S
O31 C30 1.258 . S
O32 Cd23 2.378 . S
O32 C30 1.256 . S
O33 Cd34 2.300 . S
O33 C40 1.275 . S
Cd34 O33 2.300 . S
Cd34 O42 2.381 . S
Cd34 O43 2.378 . S
O35 Cd36 2.385 . S
O35 C40 1.255 . S
Cd36 O35 2.385 . S
Cd36 O37 2.317 . S
O37 Cd36 2.317 . S
O37 C38 1.232 . S
C38 O37 1.232 . S
C38 O39 1.218 . S
O39 C38 1.218 . S
C40 O33 1.275 . S
C40 O35 1.255 . S
C41 O42 1.258 . S
C41 O43 1.256 . S
O42 Cd34 2.381 . S
O42 C41 1.258 . S
O43 Cd34 2.378 . S
O43 C41 1.256 . S
O44 Cd45 2.300 . S
O44 C51 1.275 . S
Cd45 O44 2.300 . S
Cd45 O53 2.381 . S
Cd45 O54 2.378 . S
O46 Cd47 2.385 . S
O46 C51 1.255 . S
Cd47 O46 2.385 . S
Cd47 O48 2.317 . S
O48 Cd47 2.317 . S
O48 C49 1.232 . S
C49 O48 1.232 . S
C49 O50 1.218 . S
O50 C49 1.218 . S
C51 O44 1.275 . S
C51 O46 1.255 . S
C52 O53 1.258 . S
C52 O54 1.256 . S
O53 Cd45 2.381 . S
O53 C52 1.258 . S
O54 Cd45 2.378 . S
O54 C52 1.256 . S
O55 Cd56 2.300 . S
O55 C62 1.275 . S
Cd56 O55 2.300 . S
Cd56 O64 2.381 . S
Cd56 O65 2.378 . S
O57 Cd58 2.385 . S
O57 C62 1.255 . S
Cd58 O57 2.385 . S
Cd58 O59 2.317 . S
O59 Cd58 2.317 . S
O59 C60 1.232 . S
C60 O59 1.232 . S
C60 O61 1.218 . S
O61 C60 1.218 . S
C62 O55 1.275 . S
C62 O57 1.255 . S
C63 O64 1.258 . S
C63 O65 1.256 . S
O64 Cd56 2.381 . S
O64 C63 1.258 . S
O65 Cd56 2.378 . S
O65 C63 1.256 . S
O66 Cd67 2.300 . S
O66 C73 1.275 . S
Cd67 O66 2.300 . S
Cd67 O75 2.381 . S
Cd67 O76 2.378 . S
O68 Cd69 2.385 . S
O68 C73 1.255 . S
Cd69 O68 2.385 . S
Cd69 O70 2.317 . S
O70 Cd69 2.317 . S
O70 C71 1.232 . S
C71 O70 1.232 . S
C71 O72 1.218 . S
O72 C71 1.218 . S
C73 O66 1.275 . S
C73 O68 1.255 . S
C74 O75 1.258 . S
C74 O76 1.256 . S
O75 Cd67 2.381 . S
O75 C74 1.258 . S
O76 Cd67 2.378 . S
O76 C74 1.256 . S
O77 Cd78 2.300 . S
O77 C84 1.275 . S
Cd78 O77 2.300 . S
Cd78 O86 2.381 . S
Cd78 O87 2.378 . S
O79 Cd80 2.385 . S
O79 C84 1.255 . S
Cd80 O79 2.385 . S
Cd80 O81 2.317 . S
O81 Cd80 2.317 . S
O81 C82 1.232 . S
C82 O81 1.232 . S
C82 O83 1.218 . S
O83 C82 1.218 . S
C84 O77 1.275 . S
C84 O79 1.255 . S
C85 O86 1.258 . S
C85 O87 1.256 . S
O86 Cd78 2.381 . S
O86 C85 1.258 . S
O87 Cd78 2.378 . S
O87 C85 1.256 . S
Dy88 O91 2.307 1_545 S
Dy88 O93 2.395 . S
Dy88 O94 2.379 . S
Dy88 O96 2.339 1_545 S
Dy88 O98 2.298 . S
Dy88 O102 2.275 . S
Dy88 C110 2.738 . S
Dy89 O92 2.298 1_645 S
Dy89 O95 2.275 1_545 S
Dy89 O97 2.307 . S
Dy89 O99 2.395 1_545 S
Dy89 O100 2.379 1_545 S
Dy89 O103 2.339 . S
Dy89 C119 2.738 1_545 S
C90 O102 1.254 . S
C90 O103 1.257 1_455 S
O91 Dy88 2.307 1_565 S
O91 C101 1.266 . S
O92 Dy89 2.298 1_465 S
O92 C101 1.236 . S
O93 Dy88 2.395 . S
O93 C110 1.255 . S
O94 Dy88 2.379 . S
O94 C110 1.249 . S
O95 Dy89 2.275 1_565 S
O95 C111 1.254 . S
O96 Dy88 2.339 1_565 S
O96 C111 1.257 1_455 S
O97 Dy89 2.307 . S
O97 C112 1.266 . S
O98 Dy88 2.298 . S
O98 C112 1.236 1_455 S
O99 Dy89 2.395 1_565 S
O99 C119 1.255 . S
O100 Dy89 2.379 1_565 S
O100 C119 1.249 . S
C101 O91 1.266 . S
C101 O92 1.236 . S
O102 Dy88 2.275 . S
O102 C90 1.254 . S
O103 Dy89 2.339 . S
O103 C90 1.257 1_655 S
C104 C107 1.344 . S
C104 C108 1.328 . S
C104 C110 1.516 . S
C105 C106 1.304 . S
C105 C109 1.323 . S
C106 C105 1.304 . S
C106 C107 1.371 . S
C106 H120 0.930 . S
C107 C104 1.344 . S
C107 C106 1.371 . S
C107 H121 0.931 . S
C108 C104 1.328 . S
C108 C109 1.433 . S
C108 H122 0.931 . S
C109 C105 1.323 . S
C109 C108 1.433 . S
C109 H123 0.933 . S
C110 Dy88 2.738 . S
C110 O93 1.255 . S
C110 O94 1.249 . S
C110 C104 1.516 . S
C111 O95 1.254 . S
C111 O96 1.257 1_655 S
C112 O97 1.266 . S
C112 O98 1.236 1_655 S
C113 C116 1.344 . S
C113 C117 1.328 . S
C113 C119 1.516 . S
C114 C115 1.304 . S
C114 C118 1.323 . S
C115 C114 1.304 . S
C115 C116 1.371 . S
C115 H124 0.930 . S
C116 C113 1.344 . S
C116 C115 1.371 . S
C116 H125 0.931 . S
C117 C113 1.328 . S
C117 C118 1.433 . S
C117 H126 0.931 . S
C118 C114 1.323 . S
C118 C117 1.433 . S
C118 H127 0.933 . S
C119 Dy89 2.738 1_565 S
C119 O99 1.255 . S
C119 O100 1.249 . S
C119 C113 1.516 . S
H120 C106 0.930 . S
H121 C107 0.931 . S
H122 C108 0.931 . S
H123 C109 0.933 . S
H124 C115 0.930 . S
H125 C116 0.931 . S
H126 C117 0.931 . S
H127 C118 0.933 . S
Dy128 O131 2.307 . S
Dy128 O133 2.395 1_545 S
Dy128 O134 2.379 1_554 S
Dy128 O136 2.339 . S
Dy128 O138 2.298 . S
Dy128 O142 2.275 1_545 S
Dy128 C150 2.738 1_544 S
Dy129 O132 2.298 . S
Dy129 O135 2.275 . S
Dy129 O137 2.307 . S
Dy129 O139 2.395 . S
Dy129 O140 2.379 . S
Dy129 O143 2.339 1_545 S
Dy129 C159 2.738 . S
C130 O142 1.254 . S
C130 O143 1.257 . S
O131 Dy128 2.307 . S
O131 C141 1.266 . S
O132 Dy129 2.298 . S
O132 C141 1.236 . S
O133 Dy128 2.395 1_565 S
O133 C150 1.255 1_554 S
O134 Dy128 2.379 1_556 S
O134 C150 1.249 1_545 S
O135 Dy129 2.275 . S
O135 C151 1.254 . S
O136 Dy128 2.339 . S
O136 C151 1.257 . S
O137 Dy129 2.307 . S
O137 C152 1.266 1_545 S
O138 Dy128 2.298 . S
O138 C152 1.236 1_545 S
O139 Dy129 2.395 . S
O139 C159 1.255 . S
O140 Dy129 2.379 . S
O140 C159 1.249 . S
C141 O131 1.266 . S
C141 O132 1.236 . S
O142 Dy128 2.275 1_565 S
O142 C130 1.254 . S
O143 Dy129 2.339 1_565 S
O143 C130 1.257 . S
C144 C147 1.344 . S
C144 C148 1.328 . S
C144 C150 1.516 . S
C145 C146 1.304 . S
C145 C149 1.323 . S
C146 C145 1.304 . S
C146 C147 1.371 . S
C146 H160 0.930 . S
C147 C144 1.344 . S
C147 C146 1.371 . S
C147 H161 0.931 . S
C148 C144 1.328 . S
C148 C149 1.433 . S
C148 H162 0.931 . S
C149 C145 1.323 . S
C149 C148 1.433 . S
C149 H163 0.933 . S
C150 Dy128 2.738 1_566 S
C150 O133 1.255 1_556 S
C150 O134 1.249 1_565 S
C150 C144 1.516 . S
C151 O135 1.254 . S
C151 O136 1.257 . S
C152 O137 1.266 1_565 S
C152 O138 1.236 1_565 S
C153 C156 1.344 . S
C153 C157 1.328 . S
C153 C159 1.516 . S
C154 C155 1.304 . S
C154 C158 1.323 . S
C155 C154 1.304 . S
C155 C156 1.371 . S
C155 H164 0.930 . S
C156 C153 1.344 . S
C156 C155 1.371 . S
C156 H165 0.931 . S
C157 C153 1.328 . S
C157 C158 1.433 . S
C157 H166 0.931 . S
C158 C154 1.323 . S
C158 C157 1.433 . S
C158 H167 0.933 . S
C159 Dy129 2.738 . S
C159 O139 1.255 . S
C159 O140 1.249 . S
C159 C153 1.516 . S
H160 C146 0.930 . S
H161 C147 0.931 . S
H162 C148 0.931 . S
H163 C149 0.933 . S
H164 C155 0.930 . S
H165 C156 0.931 . S
H166 C157 0.931 . S
H167 C158 0.933 . S
Dy168 O171 2.307 . S
Dy168 O173 2.395 . S
Dy168 O174 2.379 . S
Dy168 O176 2.339 . S
Dy168 O178 2.298 . S
Dy168 O182 2.275 . S
Dy168 C190 2.738 . S
Dy169 O172 2.298 . S
Dy169 O175 2.275 . S
Dy169 O177 2.307 . S
Dy169 O179 2.395 . S
Dy169 O180 2.379 . S
Dy169 O183 2.339 . S
Dy169 C199 2.738 . S
C170 O182 1.254 . S
C170 O183 1.257 . S
O171 Dy168 2.307 . S
O171 C181 1.266 . S
O172 Dy169 2.298 . S
O172 C181 1.236 . S
O173 Dy168 2.395 . S
O173 C190 1.255 . S
O174 Dy168 2.379 . S
O174 C190 1.249 . S
O175 Dy169 2.275 . S
O175 C191 1.254 . S
O176 Dy168 2.339 . S
O176 C191 1.257 . S
O177 Dy169 2.307 . S
O177 C192 1.266 . S
O178 Dy168 2.298 . S
O178 C192 1.236 . S
O179 Dy169 2.395 . S
O179 C199 1.255 . S
O180 Dy169 2.379 . S
O180 C199 1.249 . S
C181 O171 1.266 . S
C181 O172 1.236 . S
O182 Dy168 2.275 . S
O182 C170 1.254 . S
O183 Dy169 2.339 . S
O183 C170 1.257 . S
C184 C187 1.344 . S
C184 C188 1.328 . S
C184 C190 1.516 . S
C185 C186 1.304 . S
C185 C189 1.323 . S
C186 C185 1.304 . S
C186 C187 1.371 . S
C186 H200 0.930 . S
C187 C184 1.344 . S
C187 C186 1.371 . S
C187 H201 0.931 . S
C188 C184 1.328 . S
C188 C189 1.433 . S
C188 H202 0.931 . S
C189 C185 1.323 . S
C189 C188 1.433 . S
C189 H203 0.933 . S
C190 Dy168 2.738 . S
C190 O173 1.255 . S
C190 O174 1.249 . S
C190 C184 1.516 . S
C191 O175 1.254 . S
C191 O176 1.257 . S
C192 O177 1.266 . S
C192 O178 1.236 . S
C193 C196 1.344 . S
C193 C197 1.328 . S
C193 C199 1.516 . S
C194 C195 1.304 . S
C194 C198 1.323 . S
C195 C194 1.304 . S
C195 C196 1.371 . S
C195 H204 0.930 . S
C196 C193 1.344 . S
C196 C195 1.371 . S
C196 H205 0.931 . S
C197 C193 1.328 . S
C197 C198 1.433 . S
C197 H206 0.931 . S
C198 C194 1.323 . S
C198 C197 1.433 . S
C198 H207 0.933 . S
C199 Dy169 2.738 . S
C199 O179 1.255 . S
C199 O180 1.249 . S
C199 C193 1.516 . S
H200 C186 0.930 . S
H201 C187 0.931 . S
H202 C188 0.931 . S
H203 C189 0.933 . S
H204 C195 0.930 . S
H205 C196 0.931 . S
H206 C197 0.931 . S
H207 C198 0.933 . S
Dy208 O211 2.307 1_556 S
Dy208 O213 2.395 1_455 S
Dy208 O214 2.379 1_455 S
Dy208 O216 2.339 . S
Dy208 O218 2.298 1_455 S
Dy208 O222 2.275 1_556 S
Dy208 C230 2.738 1_455 S
Dy209 O212 2.298 . S
Dy209 O215 2.275 1_554 S
Dy209 O217 2.307 1_455 S
Dy209 O219 2.395 . S
Dy209 O220 2.379 . S
Dy209 O223 2.339 1_455 S
Dy209 C239 2.738 . S
C210 O222 1.254 1_655 S
C210 O223 1.257 . S
O211 Dy208 2.307 1_554 S
O211 C221 1.266 . S
O212 Dy209 2.298 . S
O212 C221 1.236 . S
O213 Dy208 2.395 1_655 S
O213 C230 1.255 . S
O214 Dy208 2.379 1_655 S
O214 C230 1.249 . S
O215 Dy209 2.275 1_556 S
O215 C231 1.254 . S
O216 Dy208 2.339 . S
O216 C231 1.257 . S
O217 Dy209 2.307 1_655 S
O217 C232 1.266 1_554 S
O218 Dy208 2.298 1_655 S
O218 C232 1.236 . S
O219 Dy209 2.395 . S
O219 C239 1.255 . S
O220 Dy209 2.379 . S
O220 C239 1.249 . S
C221 O211 1.266 . S
C221 O212 1.236 . S
O222 Dy208 2.275 1_554 S
O222 C210 1.254 1_455 S
O223 Dy209 2.339 1_655 S
O223 C210 1.257 . S
C224 C227 1.344 . S
C224 C228 1.328 . S
C224 C230 1.516 . S
C225 C226 1.304 . S
C225 C229 1.323 . S
C226 C225 1.304 . S
C226 C227 1.371 . S
C226 H240 0.930 . S
C227 C224 1.344 . S
C227 C226 1.371 . S
C227 H241 0.931 . S
C228 C224 1.328 . S
C228 C229 1.433 . S
C228 H242 0.931 . S
C229 C225 1.323 . S
C229 C228 1.433 . S
C229 H243 0.933 . S
C230 Dy208 2.738 1_655 S
C230 O213 1.255 . S
C230 O214 1.249 . S
C230 C224 1.516 . S
C231 O215 1.254 . S
C231 O216 1.257 . S
C232 O217 1.266 1_556 S
C232 O218 1.236 . S
C233 C236 1.344 . S
C233 C237 1.328 . S
C233 C239 1.516 . S
C234 C235 1.304 . S
C234 C238 1.323 . S
C235 C234 1.304 . S
C235 C236 1.371 . S
C235 H244 0.930 . S
C236 C233 1.344 . S
C236 C235 1.371 . S
C236 H245 0.931 . S
C237 C233 1.328 . S
C237 C238 1.433 . S
C237 H246 0.931 . S
C238 C234 1.323 . S
C238 C237 1.433 . S
C238 H247 0.933 . S
C239 Dy209 2.738 . S
C239 O219 1.255 . S
C239 O220 1.249 . S
C239 C233 1.516 . S
H240 C226 0.930 . S
H241 C227 0.931 . S
H242 C228 0.931 . S
H243 C229 0.933 . S
H244 C235 0.930 . S
H245 C236 0.931 . S
H246 C237 0.931 . S
H247 C238 0.933 . S
H248 C254 0.930 . S
H249 C258 0.930 . S
H250 C263 0.929 . S
H251 C261 0.929 . S
H252 C256 0.929 . S
H253 C262 0.929 . S
C254 H248 0.930 . S
C254 C255 1.367 . S
C254 C262 1.378 . S
C255 C254 1.367 . S
C255 C263 1.433 . S
C256 H252 0.929 . S
C256 C258 1.378 . S
C256 C260 1.350 . S
C257 C260 1.463 . S
C257 C262 1.350 . S
C257 N265 1.427 . S
C258 H249 0.930 . S
C258 C256 1.378 . S
C258 C259 1.367 . S
C259 C258 1.367 . S
C259 C261 1.433 . S
C260 C256 1.350 . S
C260 C257 1.463 . S
C260 N264 1.427 . S
C261 H251 0.929 . S
C261 C259 1.433 . S
C261 N264 1.384 . S
C262 H253 0.929 . S
C262 C254 1.378 . S
C262 C257 1.350 . S
C263 H250 0.929 . S
C263 C255 1.433 . S
C263 N265 1.384 . S
N264 C260 1.427 . S
N264 C261 1.384 . S
N265 C257 1.427 . S
N265 C263 1.384 . S
H266 C272 0.930 . S
H267 C276 0.930 . S
H268 C281 0.929 . S
H269 C279 0.929 . S
H270 C274 0.929 . S
H271 C280 0.929 . S
C272 H266 0.930 . S
C272 C273 1.367 . S
C272 C280 1.378 . S
C273 C272 1.367 . S
C273 C281 1.433 . S
C274 H270 0.929 . S
C274 C276 1.378 . S
C274 C278 1.350 . S
C275 C278 1.463 . S
C275 C280 1.350 . S
C275 N283 1.427 . S
C276 H267 0.930 . S
C276 C274 1.378 . S
C276 C277 1.367 . S
C277 C276 1.367 . S
C277 C279 1.433 . S
C278 C274 1.350 . S
C278 C275 1.463 . S
C278 N282 1.427 . S
C279 H269 0.929 . S
C279 C277 1.433 . S
C279 N282 1.384 . S
C280 H271 0.929 . S
C280 C272 1.378 . S
C280 C275 1.350 . S
C281 H268 0.929 . S
C281 C273 1.433 . S
C281 N283 1.384 . S
N282 C278 1.427 . S
N282 C279 1.384 . S
N283 C275 1.427 . S
N283 C281 1.384 . S
H284 C290 0.930 . S
H285 C294 0.930 . S
H286 C299 0.929 . S
H287 C297 0.929 . S
H288 C292 0.929 . S
H289 C298 0.929 . S
C290 H284 0.930 . S
C290 C291 1.367 . S
C290 C298 1.378 . S
C291 C290 1.367 . S
C291 C299 1.433 . S
C292 H288 0.929 . S
C292 C294 1.378 . S
C292 C296 1.350 . S
C293 C296 1.463 . S
C293 C298 1.350 . S
C293 N301 1.427 . S
C294 H285 0.930 . S
C294 C292 1.378 . S
C294 C295 1.367 . S
C295 C294 1.367 . S
C295 C297 1.433 . S
C296 C292 1.350 . S
C296 C293 1.463 . S
C296 N300 1.427 . S
C297 H287 0.929 . S
C297 C295 1.433 . S
C297 N300 1.384 . S
C298 H289 0.929 . S
C298 C290 1.378 . S
C298 C293 1.350 . S
C299 H286 0.929 . S
C299 C291 1.433 . S
C299 N301 1.384 . S
N300 C296 1.427 . S
N300 C297 1.384 . S
N301 C293 1.427 . S
N301 C299 1.384 . S
H302 C308 0.930 . S
H303 C312 0.931 1_455 S
H304 C317 0.929 . S
H305 C315 0.929 . S
H306 C310 0.929 . S
H307 C316 0.929 . S
C308 H302 0.930 . S
C308 C309 1.367 . S
C308 C316 1.378 . S
C309 C308 1.367 . S
C309 C317 1.433 . S
C310 H306 0.929 . S
C310 C312 1.378 . S
C310 C314 1.350 . S
C311 C314 1.463 . S
C311 C316 1.350 . S
C311 N319 1.427 . S
C312 H303 0.931 1_655 S
C312 C310 1.378 . S
C312 C313 1.367 . S
C313 C312 1.367 . S
C313 C315 1.433 . S
C314 C310 1.350 . S
C314 C311 1.463 . S
C314 N318 1.427 . S
C315 H305 0.929 . S
C315 C313 1.433 . S
C315 N318 1.384 . S
C316 H307 0.929 . S
C316 C308 1.378 . S
C316 C311 1.350 . S
C317 H304 0.929 . S
C317 C309 1.433 . S
C317 N319 1.384 . S
N318 C314 1.427 . S
N318 C315 1.384 . S
N319 C311 1.427 . S
N319 C317 1.384 . S
H320 C326 0.930 . S
H321 C330 0.930 . S
H322 C335 0.929 . S
H323 C333 0.929 . S
H324 C328 0.929 . S
H325 C334 0.929 . S
C326 H320 0.930 . S
C326 C327 1.367 . S
C326 C334 1.378 . S
C327 C326 1.367 . S
C327 C335 1.433 . S
C328 H324 0.929 . S
C328 C330 1.378 . S
C328 C332 1.350 . S
C329 C332 1.463 . S
C329 C334 1.350 . S
C329 N337 1.427 . S
C330 H321 0.930 . S
C330 C328 1.378 . S
C330 C331 1.367 . S
C331 C330 1.367 . S
C331 C333 1.433 . S
C332 C328 1.350 . S
C332 C329 1.463 . S
C332 N336 1.427 . S
C333 H323 0.929 . S
C333 C331 1.433 . S
C333 N336 1.384 . S
C334 H325 0.929 . S
C334 C326 1.378 . S
C334 C329 1.350 . S
C335 H322 0.929 . S
C335 C327 1.433 . S
C335 N337 1.384 . S
N336 C332 1.427 . S
N336 C333 1.384 . S
N337 C329 1.427 . S
N337 C335 1.384 . S
H338 C344 0.930 . S
H339 C348 0.930 . S
H340 C353 0.929 . S
H341 C351 0.929 1_655 S
H342 C346 0.929 . S
H343 C352 0.929 . S
C344 H338 0.930 . S
C344 C345 1.367 . S
C344 C352 1.378 . S
C345 C344 1.367 . S
C345 C353 1.433 . S
C346 H342 0.929 . S
C346 C348 1.378 . S
C346 C350 1.350 . S
C347 C350 1.463 . S
C347 C352 1.350 . S
C347 N355 1.427 . S
C348 H339 0.930 . S
C348 C346 1.378 . S
C348 C349 1.367 . S
C349 C348 1.367 . S
C349 C351 1.433 . S
C350 C346 1.350 . S
C350 C347 1.463 . S
C350 N354 1.427 . S
C351 H341 0.929 1_455 S
C351 C349 1.433 . S
C351 N354 1.384 . S
C352 H343 0.929 . S
C352 C344 1.378 . S
C352 C347 1.350 . S
C353 H340 0.929 . S
C353 C345 1.433 . S
C353 N355 1.384 . S
N354 C350 1.427 . S
N354 C351 1.384 . S
N355 C347 1.427 . S
N355 C353 1.384 . S
H356 C362 0.930 . S
H357 C366 0.930 . S
H358 C371 0.929 . S
H359 C369 0.929 1_554 S
H360 C364 0.929 . S
H361 C370 0.929 . S
C362 H356 0.930 . S
C362 C363 1.367 . S
C362 C370 1.378 . S
C363 C362 1.367 . S
C363 C371 1.433 . S
C364 H360 0.929 . S
C364 C366 1.378 . S
C364 C368 1.350 . S
C365 C368 1.463 . S
C365 C370 1.350 . S
C365 N373 1.427 . S
C366 H357 0.930 . S
C366 C364 1.378 . S
C366 C367 1.367 . S
C367 C366 1.367 . S
C367 C369 1.433 . S
C368 C364 1.350 . S
C368 C365 1.463 . S
C368 N372 1.427 . S
C369 H359 0.929 1_556 S
C369 C367 1.433 . S
C369 N372 1.384 . S
C370 H361 0.929 . S
C370 C362 1.378 . S
C370 C365 1.350 . S
C371 H358 0.929 . S
C371 C363 1.433 . S
C371 N373 1.384 . S
N372 C368 1.427 . S
N372 C369 1.384 . S
N373 C365 1.427 . S
N373 C371 1.384 . S
H374 C380 0.930 . S
H375 C384 0.930 . S
H376 C389 0.929 . S
H377 C387 0.929 . S
H378 C382 0.929 . S
H379 C388 0.929 . S
C380 H374 0.930 . S
C380 C381 1.367 . S
C380 C388 1.378 . S
C381 C380 1.367 . S
C381 C389 1.433 . S
C382 H378 0.929 . S
C382 C384 1.378 . S
C382 C386 1.350 . S
C383 C386 1.463 . S
C383 C388 1.350 . S
C383 N391 1.427 . S
C384 H375 0.930 . S
C384 C382 1.378 . S
C384 C385 1.367 . S
C385 C384 1.367 . S
C385 C387 1.433 . S
C386 C382 1.350 . S
C386 C383 1.463 . S
C386 N390 1.427 . S
C387 H377 0.929 . S
C387 C385 1.433 . S
C387 N390 1.384 . S
C388 H379 0.929 . S
C388 C380 1.378 . S
C388 C383 1.350 . S
C389 H376 0.929 . S
C389 C381 1.433 . S
C389 N391 1.384 . S
N390 C386 1.427 . S
N390 C387 1.384 . S
N391 C383 1.427 . S
N391 C389 1.384 . S
H392 C398 0.930 . S
H393 C402 0.930 . S
H394 C407 0.929 . S
H395 C405 0.929 . S
H396 C400 0.929 . S
H397 C406 0.929 . S
C398 H392 0.930 . S
C398 C399 1.367 . S
C398 C406 1.378 . S
C399 C398 1.367 . S
C399 C407 1.433 . S
C400 H396 0.929 . S
C400 C402 1.378 . S
C400 C404 1.350 . S
C401 C404 1.463 . S
C401 C406 1.350 . S
C401 N409 1.427 . S
C402 H393 0.930 . S
C402 C400 1.378 . S
C402 C403 1.367 . S
C403 C402 1.367 . S
C403 C405 1.433 . S
C404 C400 1.350 . S
C404 C401 1.463 . S
C404 N408 1.427 . S
C405 H395 0.929 . S
C405 C403 1.433 . S
C405 N408 1.384 . S
C406 H397 0.929 . S
C406 C398 1.378 . S
C406 C401 1.350 . S
C407 H394 0.929 . S
C407 C399 1.433 . S
C407 N409 1.384 . S
N408 C404 1.427 . S
N408 C405 1.384 . S
N409 C401 1.427 . S
N409 C407 1.384 . S
H410 C416 0.930 . S
H411 C420 0.930 . S
H412 C425 0.929 . S
H413 C423 0.929 . S
H414 C418 0.929 . S
H415 C424 0.929 . S
C416 H410 0.930 . S
C416 C417 1.367 . S
C416 C424 1.378 . S
C417 C416 1.367 . S
C417 C425 1.433 . S
C418 H414 0.929 . S
C418 C420 1.378 . S
C418 C422 1.350 1_554 S
C419 C422 1.463 . S
C419 C424 1.350 . S
C419 N427 1.427 . S
C420 H411 0.930 . S
C420 C418 1.378 . S
C420 C421 1.367 . S
C421 C420 1.367 . S
C421 C423 1.433 1_554 S
C422 C418 1.350 1_556 S
C422 C419 1.463 . S
C422 N426 1.427 . S
C423 H413 0.929 . S
C423 C421 1.433 1_556 S
C423 N426 1.384 . S
C424 H415 0.929 . S
C424 C416 1.378 . S
C424 C419 1.350 . S
C425 H412 0.929 . S
C425 C417 1.433 . S
C425 N427 1.384 . S
N426 C422 1.427 . S
N426 C423 1.384 . S
N427 C419 1.427 . S
N427 C425 1.384 . S
H428 C434 0.930 . S
H429 C438 0.930 . S
H430 C443 0.929 . S
H431 C441 0.929 . S
H432 C436 0.929 . S
H433 C442 0.929 . S
C434 H428 0.930 . S
C434 C435 1.367 . S
C434 C442 1.378 . S
C435 C434 1.367 . S
C435 C443 1.433 . S
C436 H432 0.929 . S
C436 C438 1.378 . S
C436 C440 1.350 . S
C437 C440 1.463 . S
C437 C442 1.350 . S
C437 N445 1.427 . S
C438 H429 0.930 . S
C438 C436 1.378 . S
C438 C439 1.367 . S
C439 C438 1.367 . S
C439 C441 1.433 . S
C440 C436 1.350 . S
C440 C437 1.463 . S
C440 N444 1.427 . S
C441 H431 0.929 . S
C441 C439 1.433 . S
C441 N444 1.384 . S
C442 H433 0.929 . S
C442 C434 1.378 . S
C442 C437 1.350 . S
C443 H430 0.929 . S
C443 C435 1.433 . S
C443 N445 1.384 . S
N444 C440 1.427 . S
N444 C441 1.384 . S
N445 C437 1.427 . S
N445 C443 1.384 . S
H446 C452 0.930 . S
H447 C456 0.930 . S
H448 C461 0.929 . S
H449 C459 0.929 . S
H450 C454 0.929 . S
H451 C460 0.929 . S
C452 H446 0.930 . S
C452 C453 1.367 . S
C452 C460 1.378 . S
C453 C452 1.367 . S
C453 C461 1.433 . S
C454 H450 0.929 . S
C454 C456 1.378 . S
C454 C458 1.350 . S
C455 C458 1.463 . S
C455 C460 1.350 . S
C455 N463 1.427 . S
C456 H447 0.930 . S
C456 C454 1.378 . S
C456 C457 1.367 . S
C457 C456 1.367 . S
C457 C459 1.433 . S
C458 C454 1.350 . S
C458 C455 1.463 . S
C458 N462 1.427 . S
C459 H449 0.929 . S
C459 C457 1.433 . S
C459 N462 1.384 . S
C460 H451 0.929 . S
C460 C452 1.378 . S
C460 C455 1.350 . S
C461 H448 0.929 . S
C461 C453 1.433 . S
C461 N463 1.384 . S
N462 C458 1.427 . S
N462 C459 1.384 . S
N463 C455 1.427 . S
N463 C461 1.384 . S
H464 C470 0.930 . S
H465 C474 0.930 . S
H466 C479 0.929 . S
H467 C477 0.929 . S
H468 C472 0.929 . S
H469 C478 0.929 . S
C470 H464 0.930 . S
C470 C471 1.367 . S
C470 C478 1.378 . S
C471 C470 1.367 . S
C471 C479 1.433 . S
C472 H468 0.929 . S
C472 C474 1.378 . S
C472 C476 1.350 . S
C473 C476 1.463 . S
C473 C478 1.350 . S
C473 N481 1.427 . S
C474 H465 0.930 . S
C474 C472 1.378 . S
C474 C475 1.367 . S
C475 C474 1.367 . S
C475 C477 1.433 . S
C476 C472 1.350 . S
C476 C473 1.463 . S
C476 N480 1.427 . S
C477 H467 0.929 . S
C477 C475 1.433 . S
C477 N480 1.384 . S
C478 H469 0.929 . S
C478 C470 1.378 . S
C478 C473 1.350 . S
C479 H466 0.929 . S
C479 C471 1.433 . S
C479 N481 1.384 . S
N480 C476 1.427 . S
N480 C477 1.384 . S
N481 C473 1.427 . S
N481 C479 1.384 . S
H482 C488 0.930 . S
H483 C492 0.930 . S
H484 C497 0.929 . S
H485 C495 0.929 . S
H486 C490 0.929 . S
H487 C496 0.929 . S
C488 H482 0.930 . S
C488 C489 1.367 . S
C488 C496 1.378 . S
C489 C488 1.367 . S
C489 C497 1.433 . S
C490 H486 0.929 . S
C490 C492 1.378 . S
C490 C494 1.350 . S
C491 C494 1.463 . S
C491 C496 1.350 . S
C491 N499 1.427 . S
C492 H483 0.930 . S
C492 C490 1.378 . S
C492 C493 1.367 . S
C493 C492 1.367 . S
C493 C495 1.433 . S
C494 C490 1.350 . S
C494 C491 1.463 . S
C494 N498 1.427 . S
C495 H485 0.929 . S
C495 C493 1.433 . S
C495 N498 1.384 . S
C496 H487 0.929 . S
C496 C488 1.378 . S
C496 C491 1.350 . S
C497 H484 0.929 . S
C497 C489 1.433 . S
C497 N499 1.384 . S
N498 C494 1.427 . S
N498 C495 1.384 . S
N499 C491 1.427 . S
N499 C497 1.384 . S
H500 C506 0.930 . S
H501 C510 0.930 . S
H502 C515 0.929 . S
H503 C513 0.929 . S
H504 C508 0.929 . S
H505 C514 0.929 . S
C506 H500 0.930 . S
C506 C507 1.367 . S
C506 C514 1.378 . S
C507 C506 1.367 . S
C507 C515 1.433 . S
C508 H504 0.929 . S
C508 C510 1.378 . S
C508 C512 1.350 . S
C509 C512 1.463 . S
C509 C514 1.350 . S
C509 N517 1.427 . S
C510 H501 0.930 . S
C510 C508 1.378 . S
C510 C511 1.367 . S
C511 C510 1.367 . S
C511 C513 1.433 . S
C512 C508 1.350 . S
C512 C509 1.463 . S
C512 N516 1.427 . S
C513 H503 0.929 . S
C513 C511 1.433 . S
C513 N516 1.384 . S
C514 H505 0.929 . S
C514 C506 1.378 . S
C514 C509 1.350 . S
C515 H502 0.929 . S
C515 C507 1.433 . S
C515 N517 1.384 . S
N516 C512 1.427 . S
N516 C513 1.384 . S
N517 C509 1.427 . S
N517 C515 1.384 . S
H518 C524 0.930 . S
H519 C528 0.930 . S
H520 C533 0.929 . S
H521 C531 0.929 . S
H522 C526 0.929 . S
H523 C532 0.929 . S
C524 H518 0.930 . S
C524 C525 1.367 . S
C524 C532 1.378 . S
C525 C524 1.367 . S
C525 C533 1.433 . S
C526 H522 0.929 . S
C526 C528 1.378 . S
C526 C530 1.350 . S
C527 C530 1.463 . S
C527 C532 1.350 . S
C527 N535 1.427 . S
C528 H519 0.930 . S
C528 C526 1.378 . S
C528 C529 1.367 . S
C529 C528 1.367 . S
C529 C531 1.433 . S
C530 C526 1.350 . S
C530 C527 1.463 . S
C530 N534 1.427 . S
C531 H521 0.929 . S
C531 C529 1.433 . S
C531 N534 1.384 . S
C532 H523 0.929 . S
C532 C524 1.378 . S
C532 C527 1.350 . S
C533 H520 0.929 . S
C533 C525 1.433 . S
C533 N535 1.384 . S
N534 C530 1.427 . S
N534 C531 1.384 . S
N535 C527 1.427 . S
N535 C533 1.384 . S
H536 C542 0.930 . S
H537 C546 0.930 . S
H538 C551 0.929 . S
H539 C549 0.929 . S
H540 C544 0.929 . S
H541 C550 0.929 . S
C542 H536 0.930 . S
C542 C543 1.367 . S
C542 C550 1.378 . S
C543 C542 1.367 . S
C543 C551 1.433 . S
C544 H540 0.929 . S
C544 C546 1.378 1_556 S
C544 C548 1.350 . S
C545 C548 1.463 . S
C545 C550 1.350 . S
C545 N553 1.427 . S
C546 H537 0.930 . S
C546 C544 1.378 1_554 S
C546 C547 1.367 1_554 S
C547 C546 1.367 1_556 S
C547 C549 1.433 . S
C548 C544 1.350 . S
C548 C545 1.463 . S
C548 N552 1.427 . S
C549 H539 0.929 . S
C549 C547 1.433 . S
C549 N552 1.384 . S
C550 H541 0.929 . S
C550 C542 1.378 . S
C550 C545 1.350 . S
C551 H538 0.929 . S
C551 C543 1.433 . S
C551 N553 1.384 . S
N552 C548 1.427 . S
N552 C549 1.384 . S
N553 C545 1.427 . S
N553 C551 1.384 . S
H554 C560 0.930 . S
H555 C564 0.907 1_455 S
H556 C569 0.929 . S
H557 C567 0.929 . S
H558 C562 0.929 . S
H559 C568 0.929 . S
C560 H554 0.930 . S
C560 C561 1.367 . S
C560 C568 1.378 . S
C561 C560 1.367 . S
C561 C569 1.433 . S
C562 H558 0.929 . S
C562 C564 1.378 . S
C562 C566 1.350 . S
C563 C566 1.463 . S
C563 C568 1.350 . S
C563 N571 1.427 . S
C564 H555 0.907 1_655 S
C564 C562 1.378 . S
C564 C565 1.367 . S
C565 C564 1.367 . S
C565 C567 1.433 . S
C566 C562 1.350 . S
C566 C563 1.463 . S
C566 N570 1.427 . S
C567 H557 0.929 . S
C567 C565 1.433 . S
C567 N570 1.384 . S
C568 H559 0.929 . S
C568 C560 1.378 . S
C568 C563 1.350 . S
C569 H556 0.929 . S
C569 C561 1.433 . S
C569 N571 1.384 . S
N570 C566 1.427 . S
N570 C567 1.384 . S
N571 C563 1.427 . S
N571 C569 1.384 . S
H572 C578 0.930 . S
H573 C582 0.930 . S
H574 C587 0.929 . S
H575 C585 0.929 . S
H576 C580 0.929 . S
H577 C586 0.929 . S
C578 H572 0.930 . S
C578 C579 1.367 . S
C578 C586 1.378 . S
C579 C578 1.367 . S
C579 C587 1.433 . S
C580 H576 0.929 . S
C580 C582 1.378 . S
C580 C584 1.350 . S
C581 C584 1.463 . S
C581 C586 1.350 . S
C581 N589 1.427 . S
C582 H573 0.930 . S
C582 C580 1.378 . S
C582 C583 1.367 . S
C583 C582 1.367 . S
C583 C585 1.433 . S
C584 C580 1.350 . S
C584 C581 1.463 . S
C584 N588 1.427 . S
C585 H575 0.929 . S
C585 C583 1.433 . S
C585 N588 1.384 . S
C586 H577 0.929 . S
C586 C578 1.378 . S
C586 C581 1.350 . S
C587 H574 0.929 . S
C587 C579 1.433 . S
C587 N589 1.384 . S
N588 C584 1.427 . S
N588 C585 1.384 . S
N589 C581 1.427 . S
N589 C587 1.384 . S
H590 C596 0.930 . S
H591 C600 0.930 . S
H592 C605 0.929 . S
H593 C603 0.929 . S
H594 C598 0.929 . S
H595 C604 0.929 . S
C596 H590 0.930 . S
C596 C597 1.367 . S
C596 C604 1.378 . S
C597 C596 1.367 . S
C597 C605 1.433 . S
C598 H594 0.929 . S
C598 C600 1.378 . S
C598 C602 1.350 . S
C599 C602 1.463 . S
C599 C604 1.350 . S
C599 N607 1.427 . S
C600 H591 0.930 . S
C600 C598 1.378 . S
C600 C601 1.367 . S
C601 C600 1.367 . S
C601 C603 1.433 . S
C602 C598 1.350 . S
C602 C599 1.463 . S
C602 N606 1.427 . S
C603 H593 0.929 . S
C603 C601 1.433 . S
C603 N606 1.384 . S
C604 H595 0.929 . S
C604 C596 1.378 . S
C604 C599 1.350 . S
C605 H592 0.929 . S
C605 C597 1.433 . S
C605 N607 1.384 . S
N606 C602 1.427 . S
N606 C603 1.384 . S
N607 C599 1.427 . S
N607 C605 1.384 . S
H608 C614 0.930 . S
H609 C618 0.930 . S
H610 C623 0.929 . S
H611 C621 0.929 . S
H612 C616 0.929 . S
H613 C622 0.929 . S
C614 H608 0.930 . S
C614 C615 1.367 . S
C614 C622 1.378 . S
C615 C614 1.367 . S
C615 C623 1.433 . S
C616 H612 0.929 . S
C616 C618 1.378 . S
C616 C620 1.350 . S
C617 C620 1.463 . S
C617 C622 1.350 . S
C617 N625 1.427 . S
C618 H609 0.930 . S
C618 C616 1.378 . S
C618 C619 1.367 . S
C619 C618 1.367 . S
C619 C621 1.433 . S
C620 C616 1.350 . S
C620 C617 1.463 . S
C620 N624 1.427 . S
C621 H611 0.929 . S
C621 C619 1.433 . S
C621 N624 1.384 . S
C622 H613 0.929 . S
C622 C614 1.378 . S
C622 C617 1.350 . S
C623 H610 0.929 . S
C623 C615 1.433 . S
C623 N625 1.384 . S
N624 C620 1.427 . S
N624 C621 1.384 . S
N625 C617 1.427 . S
N625 C623 1.384 . S
H626 C632 0.930 . S
H627 C636 0.930 . S
H628 C641 0.929 . S
H629 C639 0.929 . S
H630 C634 0.929 . S
H631 C640 0.929 . S
C632 H626 0.930 . S
C632 C633 1.367 . S
C632 C640 1.378 . S
C633 C632 1.367 . S
C633 C641 1.433 . S
C634 H630 0.929 . S
C634 C636 1.378 . S
C634 C638 1.350 . S
C635 C638 1.463 . S
C635 C640 1.350 . S
C635 N643 1.427 . S
C636 H627 0.930 . S
C636 C634 1.378 . S
C636 C637 1.367 . S
C637 C636 1.367 . S
C637 C639 1.433 . S
C638 C634 1.350 . S
C638 C635 1.463 . S
C638 N642 1.427 . S
C639 H629 0.929 . S
C639 C637 1.433 . S
C639 N642 1.384 . S
C640 H631 0.929 . S
C640 C632 1.378 . S
C640 C635 1.350 . S
C641 H628 0.929 . S
C641 C633 1.433 . S
C641 N643 1.384 . S
N642 C638 1.427 . S
N642 C639 1.384 . S
N643 C635 1.427 . S
N643 C641 1.384 . S
H644 C650 0.930 . S
H645 C654 0.930 . S
H646 C659 0.929 . S
H647 C657 0.929 . S
H648 C652 0.929 . S
H649 C658 0.929 . S
C650 H644 0.930 . S
C650 C651 1.367 . S
C650 C658 1.378 . S
C651 C650 1.367 . S
C651 C659 1.433 . S
C652 H648 0.929 . S
C652 C654 1.378 . S
C652 C656 1.350 . S
C653 C656 1.463 . S
C653 C658 1.350 . S
C653 N661 1.427 . S
C654 H645 0.930 . S
C654 C652 1.378 . S
C654 C655 1.367 . S
C655 C654 1.367 . S
C655 C657 1.433 . S
C656 C652 1.350 . S
C656 C653 1.463 . S
C656 N660 1.427 . S
C657 H647 0.929 . S
C657 C655 1.433 . S
C657 N660 1.384 . S
C658 H649 0.929 . S
C658 C650 1.378 . S
C658 C653 1.350 . S
C659 H646 0.929 . S
C659 C651 1.433 . S
C659 N661 1.384 . S
N660 C656 1.427 . S
N660 C657 1.384 . S
N661 C653 1.427 . S
N661 C659 1.384 . S
H662 C668 0.930 . S
H663 C672 0.930 . S
H664 C677 0.929 . S
H665 C675 0.929 . S
H666 C670 0.929 . S
H667 C676 0.929 . S
C668 H662 0.930 . S
C668 C669 1.367 . S
C668 C676 1.378 . S
C669 C668 1.367 . S
C669 C677 1.433 . S
C670 H666 0.929 . S
C670 C672 1.378 . S
C670 C674 1.350 . S
C671 C674 1.463 . S
C671 C676 1.350 . S
C671 N679 1.427 . S
C672 H663 0.930 . S
C672 C670 1.378 . S
C672 C673 1.367 . S
C673 C672 1.367 . S
C673 C675 1.433 . S
C674 C670 1.350 . S
C674 C671 1.463 . S
C674 N678 1.427 . S
C675 H665 0.929 . S
C675 C673 1.433 . S
C675 N678 1.384 . S
C676 H667 0.929 . S
C676 C668 1.378 . S
C676 C671 1.350 . S
C677 H664 0.929 . S
C677 C669 1.433 . S
C677 N679 1.384 . S
N678 C674 1.427 . S
N678 C675 1.384 . S
N679 C671 1.427 . S
N679 C677 1.384 . S
C255 C5 0.969 . S
C259 C105 1.179 . S
C273 C18 1.066 . S
C277 C145 1.130 . S
C295 C170 2.252 . S
C291 C30 2.285 . S
C309 C41 2.163 . S
C313 C210 2.113 . S
C331 C141 1.785 . S
C327 C7 1.635 . S
C349 C101 1.833 . S
C345 C16 1.764 . S
C367 C232 1.735 . S
C363 C29 1.711 . S
C385 C192 1.280 . S
C381 C38 1.126 . S
C399 C8 1.238 . S
C403 C234 1.303 . S
C421 C151 2.362 . S
C417 C27 2.116 . S
C435 C40 2.280 . S
C439 C111 2.245 . S
C453 C19 1.213 . S
C457 C194 1.202 . S
C475 C114 1.181 . S
C471 C51 1.037 . S
C489 C62 1.444 . S
C493 C154 1.424 . S
C507 C74 2.388 . S
C511 C191 2.366 . S
C525 C84 2.126 . S
C529 C231 2.195 . S
C543 C49 1.594 . S
C547 C152 2.081 1_556 S
C565 C112 1.827 . S
C561 C63 1.802 . S
C583 C221 1.569 . S
C579 C71 1.396 . S
C601 C181 1.478 . S
C597 C85 1.493 . S
C615 C52 1.336 . S
C619 C225 1.390 . S
C637 C130 2.461 . S
C633 C73 2.455 . S
C655 C90 1.836 . S
C651 C82 1.621 . S
C669 C60 1.263 . S
C673 C185 1.321 . S
