# Generated by pormake.
# Topology pyr, (3,6)-cn, num edge types: 1
# Building blocks:
#     Node 0, Type 0, BuildingBlock: OLANEW_clean_sbu_2, # of connection points: 3
#     Node 1, Type 0, BuildingBlock: OLANEW_clean_sbu_2, # of connection points: 3
#     Node 2, Type 0, BuildingBlock: OLANEW_clean_sbu_2, # of connection points: 3
#     Node 3, Type 0, BuildingBlock: OLANEW_clean_sbu_2, # of connection points: 3
#     Node 4, Type 0, BuildingBlock: OLANEW_clean_sbu_2, # of connection points: 3
#     Node 5, Type 0, BuildingBlock: OLANEW_clean_sbu_2, # of connection points: 3
#     Node 6, Type 0, BuildingBlock: OLANEW_clean_sbu_2, # of connection points: 3
#     Node 7, Type 0, BuildingBlock: OLANEW_clean_sbu_2, # of connection points: 3
#     Node 8, Type 1, BuildingBlock: BETFEN_clean_sbu_0, # of connection points: 6
#     Node 9, Type 1, BuildingBlock: BETFEN_clean_sbu_0, # of connection points: 6
#     Node 10, Type 1, BuildingBlock: BETFEN_clean_sbu_0, # of connection points: 6
#     Node 11, Type 1, BuildingBlock: BETFEN_clean_sbu_0, # of connection points: 6
#     Edge 12, Type (0, 1), BuildingBlock: ZUJKAS_clean_linker_0, # of connection points: 2
#     Edge 13, Type (0, 1), BuildingBlock: ZUJKAS_clean_linker_0, # of connection points: 2
#     Edge 14, Type (0, 1), BuildingBlock: ZUJKAS_clean_linker_0, # of connection points: 2
#     Edge 15, Type (0, 1), BuildingBlock: ZUJKAS_clean_linker_0, # of connection points: 2
#     Edge 16, Type (0, 1), BuildingBlock: ZUJKAS_clean_linker_0, # of connection points: 2
#     Edge 17, Type (0, 1), BuildingBlock: ZUJKAS_clean_linker_0, # of connection points: 2
#     Edge 18, Type (0, 1), BuildingBlock: ZUJKAS_clean_linker_0, # of connection points: 2
#     Edge 19, Type (0, 1), BuildingBlock: ZUJKAS_clean_linker_0, # of connection points: 2
#     Edge 20, Type (0, 1), BuildingBlock: ZUJKAS_clean_linker_0, # of connection points: 2
#     Edge 21, Type (0, 1), BuildingBlock: ZUJKAS_clean_linker_0, # of connection points: 2
#     Edge 22, Type (0, 1), BuildingBlock: ZUJKAS_clean_linker_0, # of connection points: 2
#     Edge 23, Type (0, 1), BuildingBlock: ZUJKAS_clean_linker_0, # of connection points: 2
#     Edge 24, Type (0, 1), BuildingBlock: ZUJKAS_clean_linker_0, # of connection points: 2
#     Edge 25, Type (0, 1), BuildingBlock: ZUJKAS_clean_linker_0, # of connection points: 2
#     Edge 26, Type (0, 1), BuildingBlock: ZUJKAS_clean_linker_0, # of connection points: 2
#     Edge 27, Type (0, 1), BuildingBlock: ZUJKAS_clean_linker_0, # of connection points: 2
#     Edge 28, Type (0, 1), BuildingBlock: ZUJKAS_clean_linker_0, # of connection points: 2
#     Edge 29, Type (0, 1), BuildingBlock: ZUJKAS_clean_linker_0, # of connection points: 2
#     Edge 30, Type (0, 1), BuildingBlock: ZUJKAS_clean_linker_0, # of connection points: 2
#     Edge 31, Type (0, 1), BuildingBlock: ZUJKAS_clean_linker_0, # of connection points: 2
#     Edge 32, Type (0, 1), BuildingBlock: ZUJKAS_clean_linker_0, # of connection points: 2
#     Edge 33, Type (0, 1), BuildingBlock: ZUJKAS_clean_linker_0, # of connection points: 2
#     Edge 34, Type (0, 1), BuildingBlock: ZUJKAS_clean_linker_0, # of connection points: 2
#     Edge 35, Type (0, 1), BuildingBlock: ZUJKAS_clean_linker_0, # of connection points: 2
# Relax obj value: 0.136
# Max RMSD: 0.270
# Mean RMSD: 0.142
data_MOF--net-pyr--node1-OLANEW_clean_sbu_2--node2-BETFEN_clean_sbu_0--edge1-ZUJKAS_clean_linker_0
_symmetry_space_group_name_H-M    P1
_symmetry_Int_Tables_number       1
_symmetry_cell_setting            triclinic
loop_
_symmetry_equiv_pos_as_xyz
'x, y, z'
_cell_length_a     50.486371
_cell_length_b     55.820809
_cell_length_c     52.089384
_cell_angle_alpha  93.999359
_cell_angle_beta   99.162275
_cell_angle_gamma 111.53785
loop_
_atom_site_label
_atom_site_type_symbol
_atom_site_fract_x
_atom_site_fract_y
_atom_site_fract_z
_atom_type_partial_charge
O0 O 0.39803 0.33273 0.22398 0.0
Cd1 Cd 0.39174 0.37255 0.23813 0.0
O2 O 0.35721 0.31084 0.23587 0.0
Cd3 Cd 0.32412 0.27669 0.24587 0.0
O4 O 0.2931 0.25033 0.26593 0.0
C5 C 0.29967 0.23379 0.27826 0.0
O6 O 0.32485 0.23206 0.27774 0.0
C7 C 0.37906 0.31102 0.22653 0.0
C8 C 0.34218 0.37603 0.20921 0.0
O9 O 0.34088 0.36407 0.22939 0.0
O10 O 0.36691 0.38618 0.2026 0.0
O11 O 0.31533 0.8399 0.76827 0.0
Cd12 Cd 0.28678 0.82116 0.72412 0.0
O13 O 0.28186 0.85047 0.78275 0.0
Cd14 Cd 0.25267 0.84238 0.74459 0.0
O15 O 0.22327 0.85192 0.71525 0.0
C16 C 0.20518 0.85975 0.72378 0.0
O17 O 0.20445 0.86042 0.74892 0.0
C18 C 0.30667 0.84894 0.7869 0.0
C19 C 0.31341 0.79299 0.69913 0.0
O20 O 0.31886 0.81687 0.69638 0.0
O21 O 0.29499 0.7823 0.71334 0.0
O22 O 0.68514 0.36464 0.81218 0.0
Cd23 Cd 0.64197 0.34326 0.7774 0.0
O24 O 0.6741 0.32873 0.83 0.0
Cd25 Cd 0.67624 0.30305 0.85957 0.0
O26 O 0.6613 0.2704 0.88189 0.0
C27 C 0.66017 0.27402 0.90599 0.0
O28 O 0.66931 0.29795 0.91799 0.0
C29 C 0.69103 0.35221 0.83031 0.0
C30 C 0.63027 0.37776 0.74543 0.0
O31 O 0.62004 0.37363 0.76643 0.0
O32 O 0.64618 0.36564 0.73959 0.0
O33 O 0.89624 0.72066 0.31798 0.0
Cd34 Cd 0.87212 0.67553 0.29518 0.0
O35 O 0.86487 0.71452 0.34445 0.0
Cd36 Cd 0.83483 0.67387 0.33454 0.0
O37 O 0.79745 0.65012 0.35052 0.0
C38 C 0.78522 0.66317 0.36145 0.0
O39 O 0.79507 0.68844 0.36118 0.0
C40 C 0.88704 0.72933 0.33654 0.0
C41 C 0.89754 0.65947 0.25638 0.0
O42 O 0.8795 0.67046 0.25065 0.0
O43 O 0.90434 0.65686 0.28051 0.0
O44 O 0.71533 0.70514 0.74863 0.0
Cd45 Cd 0.68457 0.67494 0.77352 0.0
O46 O 0.71166 0.73592 0.77425 0.0
Cd47 Cd 0.71892 0.7748 0.7925 0.0
O48 O 0.71225 0.80546 0.81553 0.0
C49 C 0.68627 0.80118 0.81777 0.0
O50 O 0.66547 0.7793 0.8058 0.0
C51 C 0.72186 0.72923 0.75542 0.0
C52 C 0.71933 0.66308 0.81359 0.0
O53 O 0.71208 0.68258 0.81738 0.0
O54 O 0.70971 0.64903 0.79102 0.0
O55 O 0.75851 0.20352 0.37991 0.0
Cd56 Cd 0.78662 0.22094 0.42438 0.0
O57 O 0.75132 0.23828 0.36833 0.0
Cd58 Cd 0.76594 0.26209 0.40679 0.0
O59 O 0.75079 0.28818 0.42803 0.0
C60 C 0.73094 0.29298 0.41374 0.0
O61 O 0.72262 0.28268 0.3889 0.0
C62 C 0.74886 0.21494 0.36268 0.0
C63 C 0.8205 0.19191 0.43744 0.0
O64 O 0.79466 0.18496 0.44188 0.0
O65 O 0.8306 0.21293 0.42738 0.0
O66 O 0.44311 0.76894 0.25525 0.0
Cd67 Cd 0.41488 0.72495 0.26406 0.0
O68 O 0.40587 0.78055 0.25495 0.0
Cd69 Cd 0.37579 0.7419 0.25869 0.0
O70 O 0.34019 0.70634 0.23869 0.0
C71 C 0.31452 0.70587 0.23559 0.0
O72 O 0.31038 0.72585 0.24641 0.0
C73 C 0.43213 0.78608 0.25276 0.0
C74 C 0.43482 0.70656 0.30877 0.0
O75 O 0.44271 0.70339 0.287 0.0
O76 O 0.41846 0.71943 0.30974 0.0
O77 O 0.18817 0.40635 0.77928 0.0
Cd78 Cd 0.2063 0.38573 0.74632 0.0
O79 O 0.15671 0.36793 0.78375 0.0
Cd80 Cd 0.16415 0.34333 0.75321 0.0
O81 O 0.15511 0.30783 0.72634 0.0
C82 C 0.12851 0.2932 0.71798 0.0
O83 O 0.10854 0.30046 0.7253 0.0
C84 C 0.16828 0.39249 0.79048 0.0
C85 C 0.24695 0.41681 0.71897 0.0
O86 O 0.25506 0.41187 0.74191 0.0
O87 O 0.21961 0.40802 0.7094 0.0
Pr88 Pr 0.98417 0.98923 0.54017 0.0
Pr89 Pr 0.04503 0.02773 0.52636 0.0
C90 C 0.93686 0.94895 0.54608 0.0
C91 C 0.92478 0.93306 0.56597 0.0
C92 C 0.92682 0.94436 0.59154 0.0
C93 C 0.91352 0.92896 0.60952 0.0
C94 C 0.89816 0.902 0.60229 0.0
C95 C 0.89683 0.89073 0.57688 0.0
C96 C 0.90998 0.90614 0.55889 0.0
C97 C 0.01255 0.03713 0.57219 0.0
C98 C 0.04666 0.98364 0.56603 0.0
C99 C 0.09358 0.06853 0.52455 0.0
C100 C 0.10722 0.08156 0.50384 0.0
C101 C 0.09583 0.07085 0.47739 0.0
C102 C 0.10929 0.08299 0.45772 0.0
C103 C 0.13428 0.10609 0.46422 0.0
C104 C 0.14537 0.11689 0.49078 0.0
C105 C 0.13192 0.10467 0.51044 0.0
C106 C 0.01571 0.98491 0.48637 0.0
C107 C 0.98241 0.03278 0.50242 0.0
O108 O 0.95882 0.94589 0.53798 0.0
O109 O 0.93901 0.97313 0.54869 0.0
O110 O 0.02478 0.02338 0.56303 0.0
O111 O 0.98447 0.02491 0.56713 0.0
O112 O 0.06177 0.00464 0.5564 0.0
O113 O 0.0179 0.97397 0.56204 0.0
O114 O 0.06929 0.07092 0.52741 0.0
O115 O 0.09292 0.04496 0.52591 0.0
O116 O 0.00784 0.99053 0.50679 0.0
O117 O 0.0407 1.0028 0.48562 0.0
O118 O 0.96843 0.00836 0.50568 0.0
O119 O 0.01057 0.04536 0.51187 0.0
H120 H 0.93835 0.9651 0.59752 0.0
H121 H 0.91519 0.93813 0.62906 0.0
H122 H 0.88489 0.87008 0.57062 0.0
H123 H 0.90814 0.89708 0.53924 0.0
H124 H 0.07662 0.05304 0.47198 0.0
H125 H 0.10003 0.0744 0.43743 0.0
H126 H 0.16476 0.1345 0.49642 0.0
H127 H 0.14095 0.11314 0.5308 0.0
Pr128 Pr 0.50535 0.02805 0.08171 0.0
Pr129 Pr 0.55939 0.0268 0.06582 0.0
C130 C 0.46229 0.03003 0.10535 0.0
C131 C 0.45341 0.05054 0.11553 0.0
C132 C 0.45854 0.0733 0.10381 0.0
C133 C 0.44991 0.09264 0.1135 0.0
C134 C 0.43627 0.08968 0.13525 0.0
C135 C 0.43149 0.067 0.14715 0.0
C136 C 0.43993 0.04754 0.13728 0.0
C137 C 0.52812 0.06461 0.04858 0.0
C138 C 0.56965 0.06386 0.11929 0.0
C139 C 0.60245 0.02784 0.04082 0.0
C140 C 0.60809 0.01031 0.02214 0.0
C141 C 0.59153 0.98348 0.01815 0.0
C142 C 0.59744 0.96694 1.00058 0.0
C143 C 0.6199 0.977 0.98661 0.0
C144 C 0.63606 1.00401 0.99044 0.0
C145 C 0.63021 0.0205 0.00811 0.0
C146 C 0.53909 0.99218 0.10098 0.0
C147 C 0.49498 0.98825 0.02988 0.0
O148 O 0.48642 0.02943 0.11823 0.0
O149 O 0.45962 0.02602 0.07988 0.0
O150 O 0.54257 0.05949 0.06777 0.0
O151 O 0.50056 0.05155 0.04649 0.0
O152 O 0.5809 0.06247 0.0984 0.0
O153 O 0.54214 0.04961 0.11906 0.0
O154 O 0.58236 0.03633 0.03171 0.0
O155 O 0.60129 0.02136 0.06438 0.0
O156 O 0.52308 0.99564 0.08156 0.0
O157 O 0.5664 0.0057 0.1019 0.0
O158 O 0.48372 0.99118 0.05042 0.0
O159 O 0.52251 1.002 0.02974 0.0
H160 H 0.46927 0.07616 0.08718 0.0
H161 H 0.45431 0.11009 0.10422 0.0
H162 H 0.42092 0.06418 0.16386 0.0
H163 H 0.43591 0.03014 0.14662 0.0
H164 H 0.57421 0.97534 0.02877 0.0
H165 H 0.58478 0.94623 0.99831 0.0
H166 H 0.65313 0.01244 0.97966 0.0
H167 H 0.64299 0.04122 0.01084 0.0
Pr168 Pr 0.51964 0.57161 0.5506 0.0
Pr169 Pr 0.50962 0.51598 0.52725 0.0
C170 C 0.52587 0.62148 0.56143 0.0
C171 C 0.50843 0.63519 0.5707 0.0
C172 C 0.52152 0.65605 0.59113 0.0
C173 C 0.50512 0.66867 0.60091 0.0
C174 C 0.47528 0.66073 0.59033 0.0
C175 C 0.46229 0.63989 0.56968 0.0
C176 C 0.47866 0.62716 0.56005 0.0
C177 C 0.54521 0.54526 0.58328 0.0
C178 C 0.464 0.52506 0.56379 0.0
C179 C 0.50491 0.46638 0.51805 0.0
C180 C 0.52424 0.45335 0.51222 0.0
C181 C 0.51236 0.4276 0.49977 0.0
C182 C 0.53053 0.41521 0.49354 0.0
C183 C 0.56092 0.42839 0.49973 0.0
C184 C 0.57275 0.45421 0.51238 0.0
C185 C 0.55455 0.46664 0.51844 0.0
C186 C 0.48568 0.54261 0.49352 0.0
C187 C 0.56482 0.5624 0.51393 0.0
O188 O 0.51635 0.60842 0.53775 0.0
O189 O 0.53607 0.60932 0.57847 0.0
O190 O 0.5452 0.54543 0.55913 0.0
O191 O 0.53255 0.55983 0.59174 0.0
O192 O 0.47485 0.50889 0.55421 0.0
O193 O 0.47481 0.5501 0.56178 0.0
O194 O 0.51133 0.47924 0.54167 0.0
O195 O 0.49721 0.47869 0.49966 0.0
O196 O 0.48478 0.54269 0.51762 0.0
O197 O 0.49734 0.52689 0.48574 0.0
O198 O 0.553 0.57836 0.52217 0.0
O199 O 0.55514 0.53778 0.51769 0.0
H200 H 0.5444 0.66239 0.59976 0.0
H201 H 0.51576 0.68434 0.6171 0.0
H202 H 0.43948 0.63348 0.5608 0.0
H203 H 0.46794 0.61098 0.54439 0.0
H204 H 0.48902 0.4171 0.49477 0.0
H205 H 0.52078 0.39523 0.48404 0.0
H206 H 0.59605 0.46497 0.51711 0.0
H207 H 0.56411 0.48667 0.52777 0.0
Pr208 Pr 0.01892 0.53514 1.00316 0.0
Pr209 Pr 0.02119 0.495 0.03832 0.0
C210 C 0.00591 0.56785 0.97257 0.0
C211 C 0.98448 0.57987 0.96808 0.0
C212 C 0.99125 0.6026 0.95634 0.0
C213 C 0.97057 0.61352 0.95041 0.0
C214 C 0.94267 0.60179 0.95605 0.0
C215 C 0.9363 0.5794 0.96864 0.0
C216 C 0.95708 0.56854 0.97465 0.0
C217 C 0.0729 0.54805 0.03627 0.0
C218 C 0.99496 0.53625 0.0589 0.0
C219 C 0.0334 0.46215 0.06929 0.0
C220 C 0.05541 0.45099 0.07552 0.0
C221 C 0.05783 0.44075 0.09914 0.0
C222 C 0.07943 0.43108 0.10617 0.0
C223 C 0.09902 0.43143 0.08962 0.0
C224 C 0.09631 0.44154 0.06575 0.0
C225 C 0.07469 0.45132 0.05878 0.0
C226 C 0.96674 0.48269 0.00655 0.0
C227 C 0.04801 0.49619 0.9835 0.0
O228 O 0.99624 0.54271 0.96553 0.0
O229 O 0.02458 0.57586 0.99487 0.0
O230 O 0.0486 0.53836 0.04274 0.0
O231 O 0.07007 0.55232 0.01199 0.0
O232 O 0.00911 0.52156 0.06681 0.0
O233 O 0.99161 0.54072 0.03424 0.0
O234 O 0.04188 0.48708 0.07684 0.0
O235 O 0.01655 0.4544 0.04601 0.0
O236 O 0.9906 0.49161 0.99899 0.0
O237 O 0.97042 0.4793 0.03104 0.0
O238 O 0.03348 0.51043 0.97526 0.0
O239 O 0.05005 0.49077 0.0079 0.0
H240 H 0.01241 0.61168 0.95136 0.0
H241 H 0.97634 0.63102 0.94115 0.0
H242 H 0.91496 0.56975 0.97303 0.0
H243 H 0.95157 0.55101 0.98388 0.0
H244 H 0.04325 0.44059 0.11237 0.0
H245 H 0.0812 0.42394 0.1249 0.0
H246 H 0.11086 0.44191 0.05246 0.0
H247 H 0.07318 0.45931 0.0405 0.0
H248 H 0.24741 0.23451 0.28542 0.0
H249 H 0.21759 0.21172 0.31558 0.0
H250 H 0.27794 0.17522 0.33843 0.0
H251 H 0.30814 0.19816 0.30858 0.0
H252 H 0.19067 0.15834 0.31919 0.0
H253 H 0.27425 0.21203 0.40823 0.0
H254 H 0.27609 0.22228 0.37623 0.0
H255 H 0.28681 0.19601 0.38462 0.0
C256 C 0.2543 0.22153 0.29674 0.0
C257 C 0.28033 0.21835 0.29479 0.0
C258 C 0.2372 0.20851 0.31394 0.0
C259 C 0.24586 0.19217 0.32953 0.0
C260 C 0.27121 0.18817 0.32692 0.0
H261 H 0.14565 0.08265 0.42181 0.0
H262 H 0.17129 0.10351 0.38827 0.0
C263 C 0.28835 0.20119 0.30975 0.0
C264 C 0.22872 0.17981 0.34898 0.0
H265 H 0.2328 0.17708 0.41466 0.0
C266 C 0.19981 0.16243 0.34007 0.0
C267 C 0.24061 0.18558 0.37622 0.0
C268 C 0.27105 0.20517 0.387 0.0
C269 C 0.18258 0.15025 0.35772 0.0
C270 C 0.19482 0.15535 0.38489 0.0
C271 C 0.22357 0.17307 0.39379 0.0
C272 C 0.17823 0.14259 0.40452 0.0
C273 C 0.15135 0.13236 0.34717 0.0
C274 C 0.17412 0.15769 0.42503 0.0
C275 C 0.1596 0.14584 0.44428 0.0
C276 C 0.14902 0.11866 0.4434 0.0
C277 C 0.15311 0.10359 0.42277 0.0
C278 C 0.16771 0.11546 0.40357 0.0
H279 H 0.14322 0.13602 0.32732 0.0
H280 H 0.14965 0.1119 0.34559 0.0
H281 H 0.13706 0.13467 0.36049 0.0
H282 H 0.18218 0.17867 0.42614 0.0
H283 H 0.15654 0.15795 0.45978 0.0
H284 H 0.36389 0.85583 0.8009 0.0
H285 H 0.3965 0.87527 0.84346 0.0
H286 H 0.32597 0.88405 0.87468 0.0
H287 H 0.29317 0.86472 0.83226 0.0
H288 H 0.40649 0.92725 0.86863 0.0
H289 H 0.36463 0.84999 0.93059 0.0
H290 H 0.35816 0.84346 0.89518 0.0
H291 H 0.33778 0.85852 0.91068 0.0
C292 C 0.35519 0.86159 0.81689 0.0
C293 C 0.32592 0.85879 0.81315 0.0
C294 C 0.37387 0.87269 0.84118 0.0
C295 C 0.36354 0.88084 0.86221 0.0
C296 C 0.33423 0.87752 0.85876 0.0
H297 H 0.4357 0.96461 0.01867 0.0
H298 H 0.40485 0.93749 0.97799 0.0
C299 C 0.31558 0.86661 0.83445 0.0
C300 C 0.38383 0.89461 0.88716 0.0
H301 H 0.39895 0.89089 0.95265 0.0
C302 C 0.40509 0.91925 0.88699 0.0
C303 C 0.38164 0.88414 0.91101 0.0
C304 C 0.35949 0.85748 0.91202 0.0
C305 C 0.42381 0.9341 0.91025 0.0
C306 C 0.42172 0.92364 0.93419 0.0
C307 C 0.4006 0.89883 0.93427 0.0
C308 C 0.44064 0.93857 0.95946 0.0
C309 C 0.44485 0.96124 0.90904 0.0
C310 C 0.47101 0.9476 0.96283 0.0
C311 C 0.48871 0.96334 0.98594 0.0
C312 C 0.47634 0.96997 0.00629 0.0
C313 C 0.44592 0.9599 1.00335 0.0
C314 C 0.42824 0.94438 0.98012 0.0
H315 H 0.43829 0.96877 0.89092 0.0
H316 H 0.44657 0.97494 0.92631 0.0
H317 H 0.46669 0.96094 0.90896 0.0
H318 H 0.48105 0.94277 0.94743 0.0
H319 H 0.51208 0.97051 0.98773 0.0
H320 H 0.64561 0.38812 0.69806 0.0
H321 H 0.63401 0.41762 0.66972 0.0
H322 H 0.58816 0.43732 0.72554 0.0
H323 H 0.59971 0.40804 0.75403 0.0
H324 H 0.57737 0.41579 0.64767 0.0
H325 H 0.6451 0.50853 0.7126 0.0
H326 H 0.65023 0.47854 0.71656 0.0
H327 H 0.62123 0.4843 0.72836 0.0
C328 C 0.63318 0.39883 0.70438 0.0
C329 C 0.62367 0.39581 0.72836 0.0
C330 C 0.62655 0.41563 0.68815 0.0
C331 C 0.61057 0.42987 0.69572 0.0
C332 C 0.60096 0.42683 0.71957 0.0
H333 H 0.53964 0.53715 0.63341 0.0
H334 H 0.55638 0.5088 0.65958 0.0
C335 C 0.60747 0.40999 0.73576 0.0
C336 C 0.60318 0.4474 0.67842 0.0
H337 H 0.61137 0.51065 0.67627 0.0
C338 C 0.58497 0.43657 0.65375 0.0
C339 C 0.61318 0.47447 0.68649 0.0
C340 C 0.63373 0.48726 0.71234 0.0
C341 C 0.5756 0.45199 0.63728 0.0
C342 C 0.58524 0.47904 0.64555 0.0
C343 C 0.60392 0.48991 0.67002 0.0
C344 C 0.57549 0.49632 0.62953 0.0
C345 C 0.55467 0.43902 0.61163 0.0
C346 C 0.58106 0.49902 0.6041 0.0
C347 C 0.57139 0.51511 0.5891 0.0
C348 C 0.55627 0.52897 0.59939 0.0
C349 C 0.55125 0.52669 0.62501 0.0
C350 C 0.56079 0.51051 0.63996 0.0
H351 H 0.54372 0.4177 0.61139 0.0
H352 H 0.53779 0.44737 0.60781 0.0
H353 H 0.56676 0.44219 0.59534 0.0
H354 H 0.59296 0.48875 0.59588 0.0
H355 H 0.57578 0.51675 0.56947 0.0
H356 H 0.93263 0.63184 0.26192 0.0
H357 H 0.94893 0.61214 0.22735 0.0
H358 H 0.90432 0.64285 0.16917 0.0
H359 H 0.88803 0.66276 0.20363 0.0
H360 H 0.91278 0.57504 0.18375 0.0
H361 H 0.986 0.66431 0.15174 0.0
H362 H 0.97415 0.66468 0.18264 0.0
H363 H 0.95006 0.66299 0.15259 0.0
C364 C 0.92653 0.63468 0.24182 0.0
C365 C 0.90907 0.64898 0.2356 0.0
C366 C 0.93582 0.62334 0.22206 0.0
C367 C 0.92811 0.62622 0.19569 0.0
C368 C 0.91097 0.64072 0.18942 0.0
H369 H 0.96366 0.56715 0.05028 0.0
H370 H 0.94609 0.58825 0.08278 0.0
C371 C 0.90157 0.65201 0.20916 0.0
C372 C 0.93692 0.61305 0.17471 0.0
H373 H 0.97691 0.62418 0.12647 0.0
C374 C 0.92686 0.58579 0.17127 0.0
C375 C 0.95508 0.62706 0.15827 0.0
C376 C 0.9672 0.65639 0.16153 0.0
C377 C 0.93429 0.57215 0.15176 0.0
C378 C 0.95287 0.58616 0.1356 0.0
C379 C 0.96268 0.61343 0.13884 0.0
C380 C 0.96302 0.57293 0.11574 0.0
C381 C 0.92169 0.5428 0.14836 0.0
C382 C 0.97863 0.55748 0.12343 0.0
C383 C 0.98855 0.54529 0.10492 0.0
C384 C 0.98338 0.54849 0.07826 0.0
C385 C 0.96791 0.56414 0.0706 0.0
C386 C 0.95791 0.57628 0.08917 0.0
H387 H 0.90151 0.53516 0.15636 0.0
H388 H 0.9167 0.53446 0.12734 0.0
H389 H 0.9377 0.53593 0.15918 0.0
H390 H 0.9835 0.5551 0.14388 0.0
H391 H 1.00062 0.53363 0.11163 0.0
H392 H 0.33746 0.2629 0.20607 0.0
H393 H 0.34518 0.22349 0.1925 0.0
H394 H 0.43784 0.26523 0.2169 0.0
H395 H 0.43022 0.30472 0.2301 0.0
H396 H 0.42438 0.23914 0.16906 0.0
H397 H 0.36686 0.17324 0.23475 0.0
H398 H 0.34446 0.18669 0.21544 0.0
H399 H 0.37549 0.20781 0.2396 0.0
C400 C 0.35941 0.26348 0.20914 0.0
C401 C 0.38323 0.28674 0.21954 0.0
C402 C 0.3638 0.24095 0.20135 0.0
C403 C 0.39207 0.24127 0.20414 0.0
C404 C 0.41583 0.26449 0.21469 0.0
H405 H 0.44455 0.11027 0.18648 0.0
H406 H 0.43271 0.14649 0.20313 0.0
C407 C 0.41146 0.28702 0.22221 0.0
C408 C 0.39719 0.21801 0.19451 0.0
H409 H 0.38145 0.15388 0.20021 0.0
C410 C 0.41507 0.22053 0.17597 0.0
C411 C 0.38527 0.1938 0.20372 0.0
C412 C 0.36719 0.19021 0.22466 0.0
C413 C 0.42128 0.19954 0.16627 0.0
C414 C 0.40856 0.1751 0.17478 0.0
C415 C 0.39088 0.17257 0.1935 0.0
C416 C 0.41393 0.15212 0.16482 0.0
C417 C 0.44196 0.20395 0.14747 0.0
C418 C 0.40662 0.14288 0.13785 0.0
C419 C 0.41351 0.12236 0.1283 0.0
C420 C 0.42747 0.11045 0.1456 0.0
C421 C 0.4337 0.11903 0.17271 0.0
C422 C 0.427 0.13972 0.18223 0.0
H423 H 0.45584 0.22489 0.14875 0.0
H424 H 0.45626 0.19298 0.15139 0.0
H425 H 0.42929 0.19715 0.12707 0.0
H426 H 0.39584 0.15173 0.12415 0.0
H427 H 0.40795 0.11581 0.10736 0.0
H428 H 0.16465 0.87759 0.73644 0.0
H429 H 0.13635 0.89673 0.70861 0.0
H430 H 0.17593 0.88454 0.64403 0.0
H431 H 0.20416 0.86501 0.67167 0.0
H432 H 0.15841 0.94073 0.68487 0.0
H433 H 0.08915 0.8552 0.61066 0.0
H434 H 0.10894 0.8523 0.64157 0.0
H435 H 0.12741 0.86229 0.61503 0.0
C436 C 0.16715 0.87869 0.71623 0.0
C437 C 0.18668 0.86974 0.70628 0.0
C438 C 0.15097 0.88968 0.70037 0.0
C439 C 0.15383 0.89184 0.6742 0.0
C440 C 0.173 0.88263 0.66404 0.0
H441 H 0.10556 0.99672 0.57862 0.0
H442 H 0.13154 0.97452 0.60476 0.0
C443 C 0.18922 0.87159 0.67991 0.0
C444 C 0.13783 0.90498 0.65807 0.0
H445 H 0.08778 0.89601 0.60209 0.0
C446 C 0.14292 0.93095 0.66679 0.0
C447 C 0.11743 0.89208 0.63465 0.0
C448 C 0.11014 0.86386 0.62498 0.0
C449 C 0.12838 0.94448 0.65258 0.0
C450 C 0.10856 0.93181 0.62879 0.0
C451 C 0.10319 0.90574 0.62022 0.0
C452 C 0.09281 0.94517 0.61274 0.0
C453 C 0.13396 0.97206 0.66342 0.0
C454 C 0.06237 0.93571 0.60809 0.0
C455 C 0.0474 0.94827 0.59305 0.0
C456 C 0.06259 0.9705 0.58224 0.0
C457 C 0.09313 0.97978 0.58677 0.0
C458 C 0.10807 0.96718 0.60181 0.0
H459 H 0.14384 0.97657 0.68471 0.0
H460 H 0.14925 0.98569 0.65297 0.0
H461 H 0.11353 0.97564 0.66045 0.0
H462 H 0.05019 0.91869 0.61628 0.0
H463 H 0.0239 0.94049 0.58991 0.0
H464 H 0.72769 0.33119 0.85476 0.0
H465 H 0.77363 0.35422 0.88594 0.0
H466 H 0.75907 0.42567 0.88411 0.0
H467 H 0.71395 0.40292 0.85194 0.0
H468 H 0.81148 0.43505 0.88005 0.0
H469 H 0.79123 0.37766 0.96226 0.0
H470 H 0.78768 0.35743 0.93263 0.0
H471 H 0.76289 0.37363 0.9345 0.0
C472 C 0.73407 0.35169 0.86145 0.0
C473 C 0.71716 0.36524 0.85118 0.0
C474 C 0.76031 0.36486 0.87935 0.0
C475 C 0.76968 0.39166 0.88787 0.0
C476 C 0.75239 0.40502 0.87794 0.0
H477 H 0.91395 0.47131 0.01969 0.0
H478 H 0.86612 0.45127 0.99064 0.0
C479 C 0.72656 0.392 0.85962 0.0
C480 C 0.79824 0.40619 0.90587 0.0
H481 H 0.84056 0.40576 0.96376 0.0
C482 C 0.81768 0.42875 0.89849 0.0
C483 C 0.80632 0.39831 0.93016 0.0
C484 C 0.78578 0.3756 0.94048 0.0
C485 C 0.84496 0.44342 0.91447 0.0
C486 C 0.85369 0.43471 0.93803 0.0
C487 C 0.83411 0.41234 0.94558 0.0
C488 C 0.88288 0.44845 0.95525 0.0
C489 C 0.86372 0.46844 0.90614 0.0
C490 C 0.90835 0.45378 0.94511 0.0
C491 C 0.9357 0.46583 0.96161 0.0
C492 C 0.93807 0.47201 0.98869 0.0
C493 C 0.91269 0.46668 0.99887 0.0
C494 C 0.88536 0.45516 0.98229 0.0
H495 H 0.85038 0.47665 0.89333 0.0
H496 H 0.87675 0.48331 0.92335 0.0
H497 H 0.87877 0.46449 0.89468 0.0
H498 H 0.90714 0.44811 0.92452 0.0
H499 H 0.95496 0.46948 0.95332 0.0
H500 H 0.76259 0.61229 0.37054 0.0
H501 H 0.72427 0.59287 0.39529 0.0
H502 H 0.7161 0.66667 0.40908 0.0
H503 H 0.75394 0.6861 0.38435 0.0
H504 H 0.72424 0.60852 0.44834 0.0
H505 H 0.632 0.61608 0.38053 0.0
H506 H 0.66563 0.61894 0.37069 0.0
H507 H 0.66317 0.6461 0.38938 0.0
C508 C 0.75242 0.6243 0.37862 0.0
C509 C 0.76126 0.65073 0.37535 0.0
C510 C 0.7306 0.6132 0.39281 0.0
C511 C 0.71707 0.62825 0.4037 0.0
C512 C 0.72583 0.65457 0.4004 0.0
H513 H 0.58947 0.61126 0.50069 0.0
H514 H 0.62716 0.62635 0.47463 0.0
C515 C 0.74761 0.66567 0.38635 0.0
C516 C 0.69455 0.61691 0.41939 0.0
H517 H 0.6245 0.60688 0.42338 0.0
C518 C 0.70232 0.60788 0.44278 0.0
C519 C 0.66603 0.61621 0.41213 0.0
C520 C 0.65606 0.62462 0.38669 0.0
C521 C 0.6826 0.59896 0.45955 0.0
C522 C 0.65421 0.59866 0.45247 0.0
C523 C 0.64632 0.60728 0.42886 0.0
C524 C 0.63234 0.58964 0.4693 0.0
C525 C 0.69263 0.59077 0.4851 0.0
C526 C 0.6227 0.56397 0.47493 0.0
C527 C 0.60123 0.55529 0.48993 0.0
C528 C 0.58881 0.57208 0.49942 0.0
C529 C 0.59864 0.59784 0.49383 0.0
C530 C 0.62013 0.60649 0.47887 0.0
H531 H 0.71672 0.5984 0.49071 0.0
H532 H 0.68407 0.59757 0.50128 0.0
H533 H 0.68441 0.56922 0.48296 0.0
H534 H 0.63136 0.55046 0.4673 0.0
H535 H 0.59406 0.53527 0.49368 0.0
H536 H 0.33952 0.40654 0.17085 0.0
H537 H 0.29669 0.41286 0.14838 0.0
H538 H 0.24293 0.35732 0.191 0.0
H539 H 0.28576 0.35143 0.21409 0.0
H540 H 0.24592 0.37963 0.11677 0.0
H541 H 0.22367 0.42012 0.20758 0.0
H542 H 0.25704 0.41543 0.20681 0.0
H543 H 0.22456 0.38838 0.20878 0.0
C544 C 0.31857 0.39563 0.17541 0.0
C545 C 0.31606 0.37869 0.19446 0.0
C546 C 0.29412 0.39925 0.16253 0.0
C547 C 0.26672 0.38596 0.16839 0.0
C548 C 0.26398 0.36829 0.18667 0.0
H549 H 0.09626 0.38911 0.11444 0.0
H550 H 0.13642 0.37648 0.13182 0.0
C551 C 0.28846 0.36484 0.19975 0.0
C552 C 0.24115 0.39091 0.15564 0.0
H553 H 0.18849 0.41196 0.16862 0.0
C554 C 0.23338 0.38674 0.1281 0.0
C555 C 0.22489 0.40029 0.17047 0.0
C556 C 0.23308 0.40657 0.20002 0.0
C557 C 0.2096 0.39146 0.115 0.0
C558 C 0.19336 0.40069 0.12986 0.0
C559 C 0.20096 0.4047 0.15735 0.0
C560 C 0.1688 0.40705 0.11736 0.0
C561 C 0.2018 0.38633 0.08541 0.0
C562 C 0.17378 0.42837 0.1034 0.0
C563 C 0.15096 0.43586 0.09372 0.0
C564 C 0.12276 0.42216 0.09788 0.0
C565 C 0.11778 0.40034 0.11126 0.0
C566 C 0.14063 0.39298 0.12105 0.0
H567 H 0.21254 0.37426 0.07717 0.0
H568 H 0.17791 0.37638 0.07858 0.0
H569 H 0.20886 0.40513 0.07749 0.0
H570 H 0.1955 0.43973 0.10076 0.0
H571 H 0.15568 0.45297 0.08387 0.0
H572 H 0.63409 0.2224 0.88561 0.0
H573 H 0.61039 0.18577 0.9082 0.0
H574 H 0.63344 0.23803 0.98041 0.0
H575 H 0.65667 0.27483 0.95791 0.0
H576 H 0.63166 0.16666 0.94989 0.0
H577 H 0.54658 0.19981 0.97413 0.0
H578 H 0.56906 0.21415 0.95118 0.0
H579 H 0.5827 0.22361 0.98597 0.0
C580 C 0.63415 0.22613 0.90631 0.0
C581 C 0.64711 0.2516 0.91991 0.0
C582 C 0.62057 0.20515 0.91918 0.0
C583 C 0.61964 0.20922 0.94586 0.0
C584 C 0.63324 0.23451 0.95966 0.0
H585 H 0.58514 0.0959 0.05389 0.0
H586 H 0.60661 0.13002 0.02775 0.0
C587 C 0.6467 0.25552 0.94679 0.0
C588 C 0.60475 0.18696 0.95933 0.0
H589 H 0.5518 0.1648 0.99526 0.0
C590 C 0.61409 0.16617 0.95968 0.0
C591 C 0.58145 0.1861 0.97169 0.0
C592 C 0.56912 0.20697 0.97054 0.0
C593 C 0.60131 0.1449 0.97268 0.0
C594 C 0.57901 0.14469 0.98616 0.0
C595 C 0.56912 0.16512 0.98518 0.0
C596 C 0.56595 0.1237 1.00175 0.0
C597 C 0.61162 0.12273 0.97158 0.0
C598 C 0.53583 0.10924 0.9963 0.0
C599 C 0.52345 0.08991 0.01145 0.0
C600 C 0.54099 0.08481 0.03236 0.0
C601 C 0.5711 0.09934 0.03782 0.0
C602 C 0.58343 0.11871 0.02277 0.0
H603 H 0.62192 0.12204 0.95436 0.0
H604 H 0.62811 0.12548 0.98955 0.0
H605 H 0.5934 0.10375 0.97058 0.0
H606 H 0.52191 0.11288 0.98027 0.0
H607 H 0.50018 0.07899 0.00683 0.0
H608 H 0.87087 0.75286 0.37531 0.0
H609 H 0.89452 0.7972 0.39776 0.0
H610 H 0.96046 0.81272 0.3508 0.0
H611 H 0.93654 0.76797 0.32771 0.0
H612 H 0.95076 0.82057 0.42723 0.0
H613 H 0.93395 0.87402 0.34391 0.0
H614 H 0.91406 0.83954 0.34267 0.0
H615 H 0.95116 0.85154 0.33867 0.0
C616 C 0.89033 0.7656 0.36952 0.0
C617 C 0.90177 0.75673 0.3496 0.0
C618 C 0.90384 0.79103 0.38247 0.0
C619 C 0.92909 0.80837 0.37584 0.0
C620 C 0.94069 0.79977 0.35594 0.0
H621 H 0.03507 0.96925 0.44502 0.0
H622 H 0.01447 0.92667 0.41764 0.0
C623 C 0.9271 0.77415 0.34286 0.0
C624 C 0.94342 0.83507 0.39064 0.0
H625 H 0.95983 0.8993 0.3848 0.0
C626 C 0.95282 0.83779 0.41793 0.0
C627 C 0.94613 0.85751 0.37848 0.0
C628 C 0.93563 0.85566 0.34935 0.0
C629 C 0.96471 0.86229 0.43343 0.0
C630 C 0.96678 0.88469 0.42139 0.0
C631 C 0.95801 0.88207 0.39401 0.0
C632 C 0.97813 0.91097 0.43697 0.0
C633 C 0.97522 0.86399 0.46255 0.0
C634 C 0.96409 0.91652 0.45646 0.0
C635 C 0.97582 0.94085 0.47212 0.0
C636 C 1.00172 0.96003 0.46848 0.0
C637 C 0.01513 0.95477 0.44832 0.0
C638 C 1.0034 0.93048 0.43267 0.0
H639 H 0.97916 0.84638 0.46751 0.0
H640 H 0.9956 0.88134 0.46982 0.0
H641 H 0.95845 0.8657 0.47314 0.0
H642 H 0.94422 0.90194 0.45974 0.0
H643 H 0.96487 0.94449 0.4873 0.0
H644 H 0.31207 0.74457 0.70662 0.0
H645 H 0.33876 0.72135 0.68762 0.0
H646 H 0.37544 0.78498 0.64492 0.0
H647 H 0.349 0.80846 0.66388 0.0
H648 H 0.34992 0.73033 0.61536 0.0
H649 H 0.43096 0.74604 0.70741 0.0
H650 H 0.39324 0.73428 0.70981 0.0
H651 H 0.41043 0.7664 0.70184 0.0
C652 C 0.32573 0.7536 0.69311 0.0
C653 C 0.32851 0.77841 0.68683 0.0
C654 C 0.341 0.74034 0.68237 0.0
C655 C 0.35918 0.7516 0.66509 0.0
C656 C 0.36154 0.77607 0.65831 0.0
H657 H 0.49146 0.71279 0.6068 0.0
H658 H 0.46277 0.73431 0.62485 0.0
C659 C 0.34646 0.78944 0.66919 0.0
C660 C 0.37597 0.73797 0.65424 0.0
H661 H 0.43364 0.72016 0.67085 0.0
C662 C 0.36819 0.72804 0.62744 0.0
C663 C 0.39987 0.73525 0.67011 0.0
C664 C 0.40939 0.74616 0.69888 0.0
C665 C 0.38364 0.71518 0.61611 0.0
C666 C 0.40738 0.71226 0.63204 0.0
C667 C 0.41531 0.72238 0.65878 0.0
C668 C 0.42456 0.69906 0.62118 0.0
C669 C 0.37482 0.70508 0.58715 0.0
C670 C 0.41258 0.6721 0.61344 0.0
C671 C 0.42901 0.65964 0.60345 0.0
C672 C 0.45773 0.67398 0.60093 0.0
C673 C 0.4696 0.70107 0.60877 0.0
C674 C 0.4532 0.71345 0.61894 0.0
H675 H 0.35904 0.71252 0.5768 0.0
H676 H 0.39418 0.71067 0.57789 0.0
H677 H 0.36459 0.68352 0.58442 0.0
H678 H 0.3906 0.66066 0.61539 0.0
H679 H 0.41934 0.63872 0.59811 0.0
H680 H 0.76253 0.72326 0.7301 0.0
H681 H 0.79419 0.75438 0.70644 0.0
H682 H 0.75667 0.80971 0.72559 0.0
H683 H 0.72447 0.77847 0.74879 0.0
H684 H 0.77526 0.7765 0.66328 0.0
H685 H 0.84564 0.85208 0.74698 0.0
H686 H 0.82398 0.81932 0.75139 0.0
H687 H 0.80714 0.84215 0.74501 0.0
C688 C 0.76113 0.74211 0.72943 0.0
C689 C 0.74143 0.74861 0.74187 0.0
C690 C 0.77928 0.75988 0.71597 0.0
C691 C 0.77814 0.78449 0.71472 0.0
C692 C 0.75842 0.79105 0.72697 0.0
H693 H 0.86471 0.91321 0.63394 0.0
H694 H 0.83615 0.88497 0.66184 0.0
C695 C 0.74017 0.77324 0.7404 0.0
C696 C 0.79648 0.80265 0.69932 0.0
H697 H 0.85183 0.86181 0.70428 0.0
C698 C 0.79207 0.79512 0.67222 0.0
C699 C 0.81822 0.82697 0.71109 0.0
C700 C 0.8243 0.83564 0.74025 0.0
C701 C 0.80867 0.81139 0.65645 0.0
C702 C 0.83072 0.83557 0.66825 0.0
C703 C 0.83499 0.84321 0.69534 0.0
C704 C 0.84945 0.8532 0.65268 0.0
C705 C 0.80201 0.80274 0.62723 0.0
C706 C 0.867 0.84496 0.63889 0.0
C707 C 0.8833 0.86101 0.62294 0.0
C708 C 0.8826 0.88574 0.62073 0.0
C709 C 0.86587 0.89434 0.63538 0.0
C710 C 0.84945 0.87821 0.65124 0.0
H711 H 0.77985 0.78746 0.62056 0.0
H712 H 0.80386 0.81936 0.61611 0.0
H713 H 0.8178 0.79448 0.62231 0.0
H714 H 0.86786 0.82597 0.64026 0.0
H715 H 0.89639 0.85404 0.61226 0.0
H716 H 0.73126 0.23445 0.31933 0.0
H717 H 0.70236 0.21012 0.27682 0.0
H718 H 0.70127 0.13861 0.30404 0.0
H719 H 0.73083 0.16281 0.34636 0.0
H720 H 0.71045 0.14063 0.25436 0.0
H721 H 0.61617 0.16676 0.26391 0.0
H722 H 0.64938 0.19444 0.26626 0.0
H723 H 0.6461 0.17311 0.29096 0.0
C724 C 0.725 0.21355 0.31624 0.0
C725 C 0.73315 0.20054 0.33633 0.0
C726 C 0.70831 0.19967 0.29199 0.0
C727 C 0.69909 0.1725 0.28751 0.0
C728 C 0.70798 0.15956 0.30718 0.0
H729 H 0.55727 0.06535 0.16841 0.0
H730 H 0.5893 0.09207 0.20881 0.0
C731 C 0.7249 0.17344 0.33136 0.0
C732 C 0.67999 0.15746 0.26241 0.0
H733 H 0.61409 0.14419 0.22287 0.0
C734 C 0.68937 0.14137 0.24746 0.0
C735 C 0.6523 0.15818 0.25368 0.0
C736 C 0.64021 0.17384 0.26964 0.0
C737 C 0.67188 0.12607 0.22392 0.0
C738 C 0.6446 0.12743 0.21478 0.0
C739 C 0.63515 0.1434 0.2298 0.0
C740 C 0.62511 0.11183 0.19007 0.0
C741 C 0.6825 0.10808 0.20948 0.0
C742 C 0.63441 0.11447 0.16606 0.0
C743 C 0.61626 0.09907 0.14298 0.0
C744 C 0.5883 0.08104 0.14345 0.0
C745 C 0.57869 0.07904 0.1674 0.0
C746 C 0.59696 0.09429 0.1905 0.0
H747 H 0.69956 0.10402 0.22255 0.0
H748 H 0.66438 0.08931 0.20101 0.0
H749 H 0.69207 0.11737 0.19319 0.0
H750 H 0.65575 0.12839 0.16517 0.0
H751 H 0.62418 0.10128 0.1248 0.0
H752 H 0.46645 0.67588 0.31154 0.0
H753 H 0.47538 0.65204 0.34733 0.0
H754 H 0.43043 0.68543 0.39338 0.0
H755 H 0.4209 0.70905 0.35743 0.0
H756 H 0.5038 0.66843 0.39945 0.0
H757 H 0.38684 0.60753 0.39229 0.0
H758 H 0.39981 0.62712 0.36736 0.0
H759 H 0.39624 0.64204 0.39763 0.0
C760 C 0.4586 0.67832 0.32933 0.0
C761 C 0.44275 0.69423 0.33151 0.0
C762 C 0.46374 0.66467 0.34979 0.0
C763 C 0.4531 0.66656 0.37284 0.0
C764 C 0.43827 0.68322 0.37554 0.0
H765 H 0.46028 0.57684 0.50509 0.0
H766 H 0.45278 0.60925 0.47823 0.0
C767 C 0.43304 0.69685 0.35503 0.0
C768 C 0.45716 0.65061 0.39366 0.0
H769 H 0.42034 0.60035 0.42468 0.0
C770 C 0.48554 0.65367 0.40508 0.0
C771 C 0.43331 0.63139 0.40109 0.0
C772 C 0.40231 0.62658 0.38886 0.0
C773 C 0.49072 0.63776 0.42336 0.0
C774 C 0.46689 0.61804 0.43012 0.0
C775 C 0.43853 0.61553 0.41945 0.0
C776 C 0.471 0.59851 0.44652 0.0
C777 C 0.52168 0.64203 0.43512 0.0
C778 C 0.48311 0.58145 0.43732 0.0
C779 C 0.48728 0.56302 0.45248 0.0
C780 C 0.47939 0.56122 0.47717 0.0
C781 C 0.46669 0.57793 0.48619 0.0
C782 C 0.46241 0.5964 0.4709 0.0
H783 H 0.53695 0.66196 0.43379 0.0
H784 H 0.52394 0.63887 0.45604 0.0
H785 H 0.52815 0.62796 0.4242 0.0
H786 H 0.48936 0.58241 0.41835 0.0
H787 H 0.49707 0.55039 0.44497 0.0
H788 H 0.1853 0.44445 0.80944 0.0
H789 H 0.16722 0.46328 0.8434 0.0
H790 H 0.11069 0.38637 0.85303 0.0
H791 H 0.12811 0.36751 0.81907 0.0
H792 H 0.08227 0.41915 0.84855 0.0
H793 H 0.18468 0.46511 0.92291 0.0
H794 H 0.18709 0.47486 0.89094 0.0
H795 H 0.18057 0.44166 0.89536 0.0
C796 C 0.16913 0.43156 0.81888 0.0
C797 C 0.15821 0.40444 0.81144 0.0
C798 C 0.15895 0.44234 0.83844 0.0
C799 C 0.13784 0.42623 0.85106 0.0
C800 C 0.12702 0.39922 0.84367 0.0
H801 H 0.07906 0.46487 0.99166 0.0
H802 H 0.10131 0.4481 0.95989 0.0
C803 C 0.13707 0.38846 0.82418 0.0
C804 C 0.12591 0.43725 0.87116 0.0
H805 H 0.14414 0.47408 0.93138 0.0
C806 C 0.09583 0.43115 0.86666 0.0
C807 C 0.14351 0.45261 0.89499 0.0
C808 C 0.17572 0.45879 0.90155 0.0
C809 C 0.08291 0.44014 0.88511 0.0
C810 C 0.10059 0.45612 0.90859 0.0
C811 C 0.13064 0.46199 0.9133 0.0
C812 C 0.08817 0.46706 0.92827 0.0
C813 C 0.05033 0.43203 0.87946 0.0
C814 C 0.07389 0.48366 0.92124 0.0
C815 C 0.06109 0.49316 0.93924 0.0
C816 C 0.06246 0.48645 0.96485 0.0
C817 C 0.07744 0.47033 0.9721 0.0
C818 C 0.09024 0.46078 0.95398 0.0
H819 H 0.03941 0.41441 0.86453 0.0
H820 H 0.04144 0.42803 0.89758 0.0
H821 H 0.04483 0.44799 0.87168 0.0
H822 H 0.07252 0.48922 0.90171 0.0
H823 H 0.05 0.5057 0.93295 0.0
H824 H 0.7243 0.84711 0.84715 0.0
H825 H 0.71293 0.87721 0.8757 0.0
H826 H 0.62183 0.82813 0.85404 0.0
H827 H 0.63294 0.79777 0.82581 0.0
H828 H 0.677 0.90447 0.86321 0.0
H829 H 0.63714 0.83665 0.93428 0.0
H830 H 0.65743 0.83066 0.91075 0.0
H831 H 0.61934 0.82392 0.90074 0.0
C832 C 0.70184 0.84271 0.84848 0.0
C833 C 0.67954 0.81996 0.83434 0.0
C834 C 0.6954 0.85992 0.86478 0.0
C835 C 0.66661 0.85463 0.8673 0.0
C836 C 0.64426 0.83225 0.8528 0.0
H837 H 0.58174 0.93421 0.95243 0.0
H838 H 0.59333 0.90489 0.92314 0.0
C839 C 0.65066 0.81501 0.83655 0.0
C840 C 0.65988 0.87265 0.88487 0.0
H841 H 0.62964 0.87622 0.93842 0.0
C842 C 0.66679 0.89837 0.87974 0.0
C843 C 0.64656 0.86457 0.9064 0.0
C844 C 0.6399 0.83752 0.91358 0.0
C845 C 0.66022 0.91614 0.89533 0.0
C846 C 0.64673 0.90797 0.91672 0.0
C847 C 0.63987 0.8823 0.92189 0.0
C848 C 0.63985 0.9259 0.9342 0.0
C849 C 0.66725 0.94335 0.88857 0.0
C850 C 0.66225 0.94717 0.95028 0.0
C851 C 0.65576 0.96379 0.96722 0.0
C852 C 0.62671 0.95941 0.96839 0.0
C853 C 0.60433 0.93798 0.95224 0.0
C854 C 0.61087 0.9213 0.93539 0.0
H855 H 0.67158 0.94482 0.86836 0.0
H856 H 0.64914 0.94977 0.8903 0.0
H857 H 0.68694 0.95693 0.90253 0.0
H858 H 0.68477 0.95071 0.94997 0.0
H859 H 0.67353 0.9798 0.97974 0.0
H860 H 0.80299 0.14403 0.45386 0.0
H861 H 0.83131 0.11697 0.46217 0.0
H862 H 0.90524 0.17587 0.44195 0.0
H863 H 0.87713 0.20312 0.43354 0.0
H864 H 0.86093 0.09922 0.42488 0.0
H865 H 0.93547 0.16013 0.51613 0.0
H866 H 0.90108 0.16236 0.50363 0.0
H867 H 0.93152 0.17676 0.48829 0.0
C868 C 0.82532 0.15132 0.4513 0.0
C869 C 0.83785 0.17581 0.44315 0.0
C870 C 0.84141 0.13578 0.45597 0.0
C871 C 0.87038 0.14453 0.45286 0.0
C872 C 0.88299 0.16892 0.44473 0.0
H873 H 1.00357 0.08104 0.48723 0.0
H874 H 0.97623 0.10731 0.47226 0.0
C875 C 0.86687 0.18443 0.4399 0.0
C876 C 0.88732 0.128 0.45792 0.0
H877 H 0.94428 0.12392 0.49981 0.0
C878 C 0.87918 0.10456 0.44124 0.0
C879 C 0.91116 0.13516 0.47919 0.0
C880 C 0.92033 0.15987 0.49802 0.0
C881 C 0.89446 0.08812 0.44514 0.0
C882 C 0.91804 0.09504 0.46671 0.0
C883 C 0.92626 0.11863 0.48325 0.0
C884 C 0.93414 0.07794 0.47302 0.0
C885 C 0.88551 0.06377 0.42584 0.0
C886 C 0.91956 0.05253 0.47812 0.0
C887 C 0.93512 0.03733 0.48644 0.0
C888 C 0.96563 0.04741 0.49024 0.0
C889 C 0.9801 0.07265 0.48452 0.0
C890 C 0.9645 0.08774 0.476 0.0
H891 H 0.87379 0.06547 0.40654 0.0
H892 H 0.90462 0.0594 0.42274 0.0
H893 H 0.87058 0.0471 0.4336 0.0
H894 H 0.89623 0.04475 0.4766 0.0
H895 H 0.92329 0.0181 0.49093 0.0
H896 H 0.31715 0.66544 0.20447 0.0
H897 H 0.27846 0.63468 0.16987 0.0
H898 H 0.21884 0.66821 0.1904 0.0
H899 H 0.25736 0.69924 0.22473 0.0
H900 H 0.22234 0.5975 0.16965 0.0
H901 H 0.21825 0.6767 0.11254 0.0
H902 H 0.24752 0.68133 0.13972 0.0
H903 H 0.21356 0.68177 0.14566 0.0
C904 C 0.29572 0.6661 0.20182 0.0
C905 C 0.29042 0.68502 0.21713 0.0
C906 C 0.27366 0.6485 0.18204 0.0
C907 C 0.24602 0.64958 0.17724 0.0
C908 C 0.24024 0.66747 0.19343 0.0
H909 H 0.08073 0.54586 0.08875 0.0
H910 H 0.12521 0.56811 0.12168 0.0
C911 C 0.26225 0.6851 0.21313 0.0
C912 C 0.22347 0.63279 0.15469 0.0
H913 H 0.17968 0.6353 0.09874 0.0
C914 C 0.21313 0.60569 0.154 0.0
C915 C 0.21202 0.64353 0.13401 0.0
C916 C 0.22358 0.67241 0.13279 0.0
C917 C 0.19067 0.58906 0.13369 0.0
C918 C 0.17801 0.59993 0.11387 0.0
C919 C 0.18924 0.62697 0.11404 0.0
C920 C 0.15205 0.58394 0.0936 0.0
C921 C 0.18074 0.56006 0.13367 0.0
C922 C 0.15224 0.58556 0.06683 0.0
C923 C 0.12668 0.5731 0.04794 0.0
C924 C 0.10054 0.55896 0.0556 0.0
C925 C 0.1006 0.55662 0.08229 0.0
C926 C 0.12608 0.56914 0.10113 0.0
H927 H 0.19825 0.55481 0.14438 0.0
H928 H 0.16208 0.55337 0.14379 0.0
H929 H 0.17368 0.54949 0.11336 0.0
H930 H 0.17202 0.59702 0.06061 0.0
H931 H 0.12723 0.57516 0.02749 0.0
H932 H 0.23739 0.42117 0.66661 0.0
H933 H 0.27358 0.44047 0.64005 0.0
H934 H 0.34151 0.46404 0.70934 0.0
H935 H 0.30554 0.4439 0.73585 0.0
H936 H 0.31137 0.488 0.63937 0.0
H937 H 0.37242 0.4251 0.66285 0.0
H938 H 0.33782 0.4194 0.67188 0.0
H939 H 0.37063 0.44356 0.69164 0.0
C940 C 0.26002 0.43055 0.67624 0.0
C941 C 0.26858 0.43077 0.70334 0.0
C942 C 0.28072 0.44159 0.661 0.0
C943 C 0.31042 0.45321 0.67252 0.0
C944 C 0.31887 0.45449 0.6998 0.0
H945 H 0.4443 0.55274 0.59609 0.0
H946 H 0.40676 0.53573 0.62189 0.0
C947 C 0.29823 0.44316 0.715 0.0
C948 C 0.33245 0.46374 0.65593 0.0
H949 H 0.39426 0.46037 0.64012 0.0
C950 C 0.32944 0.48188 0.63947 0.0
C951 C 0.35578 0.45544 0.65562 0.0
C952 C 0.35923 0.43461 0.67123 0.0
C953 C 0.34922 0.49215 0.62303 0.0
C954 C 0.37324 0.48468 0.62357 0.0
C955 C 0.37606 0.46634 0.63983 0.0
C956 C 0.39553 0.49525 0.60725 0.0
C957 C 0.34367 0.51037 0.60477 0.0
C958 C 0.40242 0.47824 0.59085 0.0
C959 C 0.42431 0.48791 0.57644 0.0
C960 C 0.43972 0.51486 0.57796 0.0
C961 C 0.43261 0.53189 0.59416 0.0
C962 C 0.41098 0.52218 0.60885 0.0
H963 H 0.32038 0.50763 0.60073 0.0
H964 H 0.35646 0.53076 0.61409 0.0
H965 H 0.35019 0.50749 0.58578 0.0
H966 H 0.39095 0.45739 0.58931 0.0
H967 H 0.42922 0.47423 0.5642 0.0
H968 H 0.7372 0.62254 0.81161 0.0
H969 H 0.77265 0.61503 0.84423 0.0
H970 H 0.78191 0.68327 0.89495 0.0
H971 H 0.74656 0.69115 0.86218 0.0
H972 H 0.83429 0.68242 0.88767 0.0
H973 H 0.76698 0.58841 0.91479 0.0
H974 H 0.7633 0.5874 0.87986 0.0
H975 H 0.75139 0.60885 0.89803 0.0
C976 C 0.74647 0.6358 0.82983 0.0
C977 C 0.73907 0.65746 0.83429 0.0
C978 C 0.76657 0.63135 0.84856 0.0
C979 C 0.77955 0.64835 0.87219 0.0
C980 C 0.77194 0.6698 0.87692 0.0
H981 H 0.9016 0.60666 0.9826 0.0
H982 H 0.86238 0.6212 0.96669 0.0
C983 C 0.75174 0.67426 0.85818 0.0
C984 C 0.80281 0.64476 0.89075 0.0
H985 H 0.81877 0.59892 0.92265 0.0
C986 C 0.8308 0.66436 0.89576 0.0
C987 C 0.79817 0.62142 0.90171 0.0
C988 C 0.76825 0.60044 0.89856 0.0
C989 C 0.85463 0.66049 0.90989 0.0
C990 C 0.85035 0.63625 0.91883 0.0
C991 C 0.82207 0.61737 0.91545 0.0
C992 C 0.87507 0.62917 0.92944 0.0
C993 C 0.88427 0.68217 0.91459 0.0
C994 C 0.89497 0.62865 0.91367 0.0
C995 C 0.91717 0.62024 0.92258 0.0
C996 C 0.91987 0.61201 0.94742 0.0
C997 C 0.89998 0.61269 0.96329 0.0
C998 C 0.87769 0.62112 0.95432 0.0
H999 H 0.8826 0.70147 0.91462 0.0
H1000 H 0.89782 0.682 0.93354 0.0
H1001 H 0.89549 0.67968 0.89854 0.0
H1002 H 0.89285 0.63407 0.89411 0.0
H1003 H 0.93167 0.61941 0.9096 0.0
H1004 H 0.41645 0.82785 0.24912 0.0
H1005 H 0.43739 0.86515 0.22647 0.0
H1006 H 0.50437 0.83819 0.21263 0.0
H1007 H 0.48347 0.80061 0.23516 0.0
H1008 H 0.49454 0.90551 0.23299 0.0
H1009 H 0.46047 0.83971 0.13825 0.0
H1010 H 0.44684 0.82939 0.1673 0.0
H1011 H 0.48265 0.83189 0.16421 0.0
C1012 C 0.43594 0.83004 0.24169 0.0
C1013 C 0.44809 0.81105 0.24373 0.0
C1014 C 0.44787 0.8514 0.22875 0.0
C1015 C 0.47206 0.85413 0.21747 0.0
C1016 C 0.48539 0.83617 0.22087 0.0
H1017 H 0.5712 0.98298 0.1433 0.0
H1018 H 0.55456 0.95026 0.17229 0.0
C1019 C 0.47353 0.81481 0.23392 0.0
C1020 C 0.48203 0.87478 0.20072 0.0
H1021 H 0.48672 0.88431 0.13725 0.0
C1022 C 0.49294 0.90093 0.21208 0.0
C1023 C 0.47935 0.86868 0.17335 0.0
C1024 C 0.46648 0.84092 0.15991 0.0
C1025 C 0.50171 0.92118 0.19682 0.0
C1026 C 0.49967 0.91506 0.16957 0.0
C1027 C 0.48838 0.88892 0.15817 0.0
C1028 C 0.50946 0.93547 0.15253 0.0
C1029 C 0.51263 0.94896 0.20987 0.0
C1030 C 0.48967 0.93774 0.13155 0.0
C1031 C 0.49914 0.9564 0.11488 0.0
C1032 C 0.52862 0.97285 0.11879 0.0
C1033 C 0.54834 0.97055 0.13982 0.0
C1034 C 0.53886 0.95199 0.15651 0.0
H1035 H 0.5062 0.95026 0.22918 0.0
H1036 H 0.53671 0.95749 0.21319 0.0
H1037 H 0.50426 0.96085 0.1972 0.0
H1038 H 0.4669 0.92506 0.12808 0.0
H1039 H 0.48348 0.95778 0.09882 0.0
H1040 H 0.16376 0.27021 0.7014 0.0
H1041 H 0.14866 0.22796 0.67414 0.0
H1042 H 0.05881 0.21686 0.66949 0.0
H1043 H 0.07356 0.2589 0.69632 0.0
H1044 H 0.1137 0.17863 0.6843 0.0
H1045 H 0.06306 0.20257 0.59258 0.0
H1046 H 0.08721 0.22722 0.61915 0.0
H1047 H 0.04964 0.21025 0.62064 0.0
C1048 C 0.14079 0.25886 0.69438 0.0
C1049 C 0.11988 0.26803 0.70095 0.0
C1050 C 0.13222 0.23471 0.67885 0.0
C1051 C 0.10262 0.21946 0.66942 0.0
C1052 C 0.08177 0.22855 0.67604 0.0
H1053 H 0.98826 0.06903 0.59095 0.0
H1054 H 0.01298 0.11344 0.61396 0.0
C1055 C 0.09028 0.25257 0.69155 0.0
C1056 C 0.0932 0.19356 0.65349 0.0
H1057 H 0.05058 0.15728 0.59575 0.0
C1058 C 0.10027 0.17401 0.66477 0.0
C1059 C 0.07574 0.18761 0.62799 0.0
C1060 C 0.06869 0.20809 0.61425 0.0
C1061 C 0.08912 0.14835 0.65176 0.0
C1062 C 0.07076 0.14222 0.62668 0.0
C1063 C 0.06453 0.16199 0.61504 0.0
C1064 C 0.0563 0.11517 0.61281 0.0
C1065 C 0.09598 0.12776 0.66544 0.0
C1066 C 0.07244 0.10143 0.60433 0.0
C1067 C 0.05832 0.07595 0.59118 0.0
C1068 C 0.02783 0.06389 0.58625 0.0
C1069 C 0.01178 0.07777 0.59459 0.0
C1070 C 0.02587 0.10317 0.60768 0.0
H1071 H 0.10571 0.13458 0.68661 0.0
H1072 H 0.07605 0.10991 0.66359 0.0
H1073 H 0.11171 0.12248 0.65607 0.0
H1074 H 0.09592 0.11049 0.60768 0.0
H1075 H 0.07121 0.06574 0.58481 0.0
H1076 H 0.68618 0.30388 0.38814 0.0
H1077 H 0.66045 0.32835 0.40615 0.0
H1078 H 0.71632 0.34243 0.48202 0.0
H1079 H 0.74244 0.31785 0.46413 0.0
H1080 H 0.63171 0.31553 0.45066 0.0
H1081 H 0.71706 0.41566 0.46643 0.0
H1082 H 0.71758 0.3897 0.44401 0.0
H1083 H 0.72735 0.39033 0.47876 0.0
C1084 C 0.69322 0.31229 0.40863 0.0
C1085 C 0.71638 0.30887 0.42472 0.0
C1086 C 0.67844 0.32626 0.41887 0.0
C1087 C 0.68663 0.33731 0.44532 0.0
C1088 C 0.70993 0.33428 0.46145 0.0
H1089 H 0.61098 0.42897 0.52977 0.0
H1090 H 0.64202 0.40664 0.51811 0.0
C1091 C 0.72473 0.32016 0.45123 0.0
C1092 C 0.66969 0.35093 0.45602 0.0
H1093 H 0.67237 0.41098 0.47805 0.0
C1094 C 0.6406 0.33638 0.45679 0.0
C1095 C 0.68149 0.37807 0.46413 0.0
C1096 C 0.71253 0.39452 0.46323 0.0
C1097 C 0.62281 0.34829 0.46524 0.0
C1098 C 0.63426 0.37559 0.47248 0.0
C1099 C 0.66361 0.39007 0.47237 0.0
C1100 C 0.61582 0.38951 0.47941 0.0
C1101 C 0.59197 0.33144 0.4665 0.0
C1102 C 0.59114 0.3877 0.46133 0.0
C1103 C 0.57337 0.40032 0.46794 0.0
C1104 C 0.58013 0.41531 0.49268 0.0
C1105 C 0.60528 0.41764 0.51053 0.0
C1106 C 0.62297 0.40486 0.50394 0.0
H1107 H 0.58945 0.31102 0.46822 0.0
H1108 H 0.58496 0.33899 0.48338 0.0
H1109 H 0.57724 0.33126 0.44817 0.0
H1110 H 0.58566 0.37657 0.44201 0.0
H1111 H 0.5545 0.3986 0.45357 0.0
loop_
_geom_bond_atom_site_label_1
_geom_bond_atom_site_label_2
_geom_bond_distance
_geom_bond_site_symmetry_2
_ccdc_geom_bond_type
O0 Cd1 2.300 . S
O0 C7 1.275 . S
Cd1 O0 2.300 . S
Cd1 O9 2.381 . S
Cd1 O10 2.378 . S
O2 Cd3 2.385 . S
O2 C7 1.255 . S
Cd3 O2 2.385 . S
Cd3 O4 2.317 . S
O4 Cd3 2.317 . S
O4 C5 1.232 . S
C5 O4 1.232 . S
C5 O6 1.218 . S
O6 C5 1.218 . S
C7 O0 1.275 . S
C7 O2 1.255 . S
C8 O9 1.258 . S
C8 O10 1.256 . S
O9 Cd1 2.381 . S
O9 C8 1.258 . S
O10 Cd1 2.378 . S
O10 C8 1.256 . S
O11 Cd12 2.300 . S
O11 C18 1.275 . S
Cd12 O11 2.300 . S
Cd12 O20 2.381 . S
Cd12 O21 2.378 . S
O13 Cd14 2.385 . S
O13 C18 1.255 . S
Cd14 O13 2.385 . S
Cd14 O15 2.317 . S
O15 Cd14 2.317 . S
O15 C16 1.232 . S
C16 O15 1.232 . S
C16 O17 1.218 . S
O17 C16 1.218 . S
C18 O11 1.275 . S
C18 O13 1.255 . S
C19 O20 1.258 . S
C19 O21 1.256 . S
O20 Cd12 2.381 . S
O20 C19 1.258 . S
O21 Cd12 2.378 . S
O21 C19 1.256 . S
O22 Cd23 2.300 . S
O22 C29 1.275 . S
Cd23 O22 2.300 . S
Cd23 O31 2.381 . S
Cd23 O32 2.378 . S
O24 Cd25 2.385 . S
O24 C29 1.255 . S
Cd25 O24 2.385 . S
Cd25 O26 2.317 . S
O26 Cd25 2.317 . S
O26 C27 1.232 . S
C27 O26 1.232 . S
C27 O28 1.218 . S
O28 C27 1.218 . S
C29 O22 1.275 . S
C29 O24 1.255 . S
C30 O31 1.258 . S
C30 O32 1.256 . S
O31 Cd23 2.381 . S
O31 C30 1.258 . S
O32 Cd23 2.378 . S
O32 C30 1.256 . S
O33 Cd34 2.300 . S
O33 C40 1.275 . S
Cd34 O33 2.300 . S
Cd34 O42 2.381 . S
Cd34 O43 2.378 . S
O35 Cd36 2.385 . S
O35 C40 1.255 . S
Cd36 O35 2.385 . S
Cd36 O37 2.317 . S
O37 Cd36 2.317 . S
O37 C38 1.232 . S
C38 O37 1.232 . S
C38 O39 1.218 . S
O39 C38 1.218 . S
C40 O33 1.275 . S
C40 O35 1.255 . S
C41 O42 1.258 . S
C41 O43 1.256 . S
O42 Cd34 2.381 . S
O42 C41 1.258 . S
O43 Cd34 2.378 . S
O43 C41 1.256 . S
O44 Cd45 2.300 . S
O44 C51 1.275 . S
Cd45 O44 2.300 . S
Cd45 O53 2.381 . S
Cd45 O54 2.378 . S
O46 Cd47 2.385 . S
O46 C51 1.255 . S
Cd47 O46 2.385 . S
Cd47 O48 2.317 . S
O48 Cd47 2.317 . S
O48 C49 1.232 . S
C49 O48 1.232 . S
C49 O50 1.218 . S
O50 C49 1.218 . S
C51 O44 1.275 . S
C51 O46 1.255 . S
C52 O53 1.258 . S
C52 O54 1.256 . S
O53 Cd45 2.381 . S
O53 C52 1.258 . S
O54 Cd45 2.378 . S
O54 C52 1.256 . S
O55 Cd56 2.300 . S
O55 C62 1.275 . S
Cd56 O55 2.300 . S
Cd56 O64 2.381 . S
Cd56 O65 2.378 . S
O57 Cd58 2.385 . S
O57 C62 1.255 . S
Cd58 O57 2.385 . S
Cd58 O59 2.317 . S
O59 Cd58 2.317 . S
O59 C60 1.232 . S
C60 O59 1.232 . S
C60 O61 1.218 . S
O61 C60 1.218 . S
C62 O55 1.275 . S
C62 O57 1.255 . S
C63 O64 1.258 . S
C63 O65 1.256 . S
O64 Cd56 2.381 . S
O64 C63 1.258 . S
O65 Cd56 2.378 . S
O65 C63 1.256 . S
O66 Cd67 2.300 . S
O66 C73 1.275 . S
Cd67 O66 2.300 . S
Cd67 O75 2.381 . S
Cd67 O76 2.378 . S
O68 Cd69 2.385 . S
O68 C73 1.255 . S
Cd69 O68 2.385 . S
Cd69 O70 2.317 . S
O70 Cd69 2.317 . S
O70 C71 1.232 . S
C71 O70 1.232 . S
C71 O72 1.218 . S
O72 C71 1.218 . S
C73 O66 1.275 . S
C73 O68 1.255 . S
C74 O75 1.258 . S
C74 O76 1.256 . S
O75 Cd67 2.381 . S
O75 C74 1.258 . S
O76 Cd67 2.378 . S
O76 C74 1.256 . S
O77 Cd78 2.300 . S
O77 C84 1.275 . S
Cd78 O77 2.300 . S
Cd78 O86 2.381 . S
Cd78 O87 2.378 . S
O79 Cd80 2.385 . S
O79 C84 1.255 . S
Cd80 O79 2.385 . S
Cd80 O81 2.317 . S
O81 Cd80 2.317 . S
O81 C82 1.232 . S
C82 O81 1.232 . S
C82 O83 1.218 . S
O83 C82 1.218 . S
C84 O77 1.275 . S
C84 O79 1.255 . S
C85 O86 1.258 . S
C85 O87 1.256 . S
O86 Cd78 2.381 . S
O86 C85 1.258 . S
O87 Cd78 2.378 . S
O87 C85 1.256 . S
Pr88 C90 2.874 1_545 S
Pr88 O108 2.554 1_545 S
Pr88 O109 2.488 1_545 S
Pr88 O110 2.699 1_655 S
Pr88 O111 2.518 1_655 S
Pr88 O113 2.431 1_645 S
Pr88 O116 2.430 1_545 S
Pr88 O118 2.445 . S
Pr89 C99 2.880 . S
Pr89 O110 2.436 . S
Pr89 O112 2.438 1_545 S
Pr89 O114 2.562 . S
Pr89 O115 2.490 . S
Pr89 O116 2.695 1_445 S
Pr89 O117 2.512 1_545 S
Pr89 O119 2.437 1_455 S
C90 Pr88 2.874 1_565 S
C90 C91 1.491 . S
C90 O108 1.254 . S
C90 O109 1.225 . S
C91 C90 1.491 . S
C91 C92 1.392 . S
C91 C96 1.356 . S
C92 C91 1.392 . S
C92 C93 1.368 . S
C92 H120 0.929 . S
C93 C92 1.368 . S
C93 C94 1.386 . S
C93 H121 0.929 . S
C94 C93 1.386 . S
C94 C95 1.373 . S
C95 C94 1.373 . S
C95 C96 1.409 . S
C95 H122 0.931 . S
C96 C91 1.356 . S
C96 C95 1.409 . S
C96 H123 0.930 . S
C97 O110 1.270 . S
C97 O111 1.248 . S
C98 O112 1.267 . S
C98 O113 1.278 . S
C99 Pr89 2.880 . S
C99 C100 1.491 . S
C99 O114 1.254 . S
C99 O115 1.225 . S
C100 C99 1.491 . S
C100 C101 1.392 . S
C100 C105 1.356 . S
C101 C100 1.392 . S
C101 C102 1.368 . S
C101 H124 0.929 . S
C102 C101 1.368 . S
C102 C103 1.386 . S
C102 H125 0.929 . S
C103 C102 1.386 . S
C103 C104 1.373 . S
C104 C103 1.373 . S
C104 C105 1.409 . S
C104 H126 0.931 . S
C105 C100 1.356 . S
C105 C104 1.409 . S
C105 H127 0.930 . S
C106 O116 1.270 . S
C106 O117 1.248 1_655 S
C107 O118 1.267 . S
C107 O119 1.278 . S
O108 Pr88 2.554 1_565 S
O108 C90 1.254 . S
O109 Pr88 2.488 1_565 S
O109 C90 1.225 . S
O110 Pr88 2.699 1_455 S
O110 Pr89 2.436 . S
O110 C97 1.270 . S
O111 Pr88 2.518 1_455 S
O111 C97 1.248 . S
O112 Pr89 2.438 1_565 S
O112 C98 1.267 . S
O113 Pr88 2.431 1_465 S
O113 C98 1.278 . S
O114 Pr89 2.562 . S
O114 C99 1.254 . S
O115 Pr89 2.490 . S
O115 C99 1.225 . S
O116 Pr88 2.430 1_565 S
O116 Pr89 2.695 1_665 S
O116 C106 1.270 . S
O117 Pr89 2.512 1_565 S
O117 C106 1.248 1_455 S
O118 Pr88 2.445 . S
O118 C107 1.267 . S
O119 Pr89 2.437 1_655 S
O119 C107 1.278 . S
H120 C92 0.929 . S
H121 C93 0.929 . S
H122 C95 0.931 . S
H123 C96 0.930 . S
H124 C101 0.929 . S
H125 C102 0.929 . S
H126 C104 0.931 . S
H127 C105 0.930 . S
Pr128 C130 2.880 . S
Pr128 O148 2.562 . S
Pr128 O149 2.490 . S
Pr128 O150 2.695 . S
Pr128 O151 2.512 . S
Pr128 O153 2.437 . S
Pr128 O156 2.436 . S
Pr128 O158 2.438 . S
Pr129 C139 2.880 1_545 S
Pr129 O150 2.436 . S
Pr129 O152 2.438 . S
Pr129 O154 2.578 . S
Pr129 O155 2.490 1_545 S
Pr129 O156 2.695 . S
Pr129 O157 2.512 1_545 S
Pr129 O159 2.437 1_545 S
C130 Pr128 2.880 . S
C130 C131 1.491 . S
C130 O148 1.254 . S
C130 O149 1.225 . S
C131 C130 1.491 . S
C131 C132 1.392 . S
C131 C136 1.356 . S
C132 C131 1.392 . S
C132 C133 1.368 . S
C132 H160 0.929 . S
C133 C132 1.368 . S
C133 C134 1.386 . S
C133 H161 0.929 . S
C134 C133 1.386 . S
C134 C135 1.373 . S
C135 C134 1.373 . S
C135 C136 1.409 . S
C135 H162 0.931 . S
C136 C131 1.356 . S
C136 C135 1.409 . S
C136 H163 0.930 . S
C137 O150 1.270 . S
C137 O151 1.248 . S
C138 O152 1.267 . S
C138 O153 1.278 . S
C139 Pr129 2.880 1_565 S
C139 C140 1.491 1_554 S
C139 O154 1.259 1_565 S
C139 O155 1.225 . S
C140 C139 1.491 1_556 S
C140 C141 1.392 . S
C140 C145 1.356 . S
C141 C140 1.392 . S
C141 C142 1.368 . S
C141 H164 0.929 1_556 S
C142 C141 1.368 . S
C142 C143 1.386 . S
C142 H165 0.929 . S
C143 C142 1.386 . S
C143 C144 1.373 . S
C144 C143 1.373 . S
C144 C145 1.409 . S
C144 H166 0.931 . S
C145 C140 1.356 . S
C145 C144 1.409 . S
C145 H167 0.930 . S
C146 O156 1.270 1_565 S
C146 O157 1.248 . S
C147 O158 1.267 1_565 S
C147 O159 1.278 . S
O148 Pr128 2.562 . S
O148 C130 1.254 . S
O149 Pr128 2.490 . S
O149 C130 1.225 . S
O150 Pr128 2.695 . S
O150 Pr129 2.436 . S
O150 C137 1.270 . S
O151 Pr128 2.512 . S
O151 C137 1.248 . S
O152 Pr129 2.438 . S
O152 C138 1.267 . S
O153 Pr128 2.437 . S
O153 C138 1.278 . S
O154 Pr129 2.578 . S
O154 C139 1.259 1_545 S
O155 Pr129 2.490 1_565 S
O155 C139 1.225 . S
O156 Pr128 2.436 . S
O156 Pr129 2.695 . S
O156 C146 1.270 1_545 S
O157 Pr129 2.512 1_565 S
O157 C146 1.248 . S
O158 Pr128 2.438 . S
O158 C147 1.267 1_545 S
O159 Pr129 2.437 1_565 S
O159 C147 1.278 . S
H160 C132 0.929 . S
H161 C133 0.929 . S
H162 C135 0.931 . S
H163 C136 0.930 . S
H164 C141 0.929 1_554 S
H165 C142 0.929 . S
H166 C144 0.931 . S
H167 C145 0.930 . S
Pr168 C170 2.880 . S
Pr168 O188 2.562 . S
Pr168 O189 2.490 . S
Pr168 O190 2.695 . S
Pr168 O191 2.512 . S
Pr168 O193 2.437 . S
Pr168 O196 2.436 . S
Pr168 O198 2.438 . S
Pr169 C179 2.880 . S
Pr169 O190 2.436 . S
Pr169 O192 2.438 . S
Pr169 O194 2.562 . S
Pr169 O195 2.490 . S
Pr169 O196 2.695 . S
Pr169 O197 2.512 . S
Pr169 O199 2.437 . S
C170 Pr168 2.880 . S
C170 C171 1.491 . S
C170 O188 1.254 . S
C170 O189 1.225 . S
C171 C170 1.491 . S
C171 C172 1.392 . S
C171 C176 1.356 . S
C172 C171 1.392 . S
C172 C173 1.368 . S
C172 H200 0.929 . S
C173 C172 1.368 . S
C173 C174 1.386 . S
C173 H201 0.929 . S
C174 C173 1.386 . S
C174 C175 1.373 . S
C175 C174 1.373 . S
C175 C176 1.409 . S
C175 H202 0.931 . S
C176 C171 1.356 . S
C176 C175 1.409 . S
C176 H203 0.930 . S
C177 O190 1.270 . S
C177 O191 1.248 . S
C178 O192 1.267 . S
C178 O193 1.278 . S
C179 Pr169 2.880 . S
C179 C180 1.491 . S
C179 O194 1.254 . S
C179 O195 1.225 . S
C180 C179 1.491 . S
C180 C181 1.392 . S
C180 C185 1.356 . S
C181 C180 1.392 . S
C181 C182 1.368 . S
C181 H204 0.929 . S
C182 C181 1.368 . S
C182 C183 1.386 . S
C182 H205 0.929 . S
C183 C182 1.386 . S
C183 C184 1.373 . S
C184 C183 1.373 . S
C184 C185 1.409 . S
C184 H206 0.931 . S
C185 C180 1.356 . S
C185 C184 1.409 . S
C185 H207 0.930 . S
C186 O196 1.270 . S
C186 O197 1.248 . S
C187 O198 1.267 . S
C187 O199 1.278 . S
O188 Pr168 2.562 . S
O188 C170 1.254 . S
O189 Pr168 2.490 . S
O189 C170 1.225 . S
O190 Pr168 2.695 . S
O190 Pr169 2.436 . S
O190 C177 1.270 . S
O191 Pr168 2.512 . S
O191 C177 1.248 . S
O192 Pr169 2.438 . S
O192 C178 1.267 . S
O193 Pr168 2.437 . S
O193 C178 1.278 . S
O194 Pr169 2.562 . S
O194 C179 1.254 . S
O195 Pr169 2.490 . S
O195 C179 1.225 . S
O196 Pr168 2.436 . S
O196 Pr169 2.695 . S
O196 C186 1.270 . S
O197 Pr169 2.512 . S
O197 C186 1.248 . S
O198 Pr168 2.438 . S
O198 C187 1.267 . S
O199 Pr169 2.437 . S
O199 C187 1.278 . S
H200 C172 0.929 . S
H201 C173 0.929 . S
H202 C175 0.931 . S
H203 C176 0.930 . S
H204 C181 0.929 . S
H205 C182 0.929 . S
H206 C184 0.931 . S
H207 C185 0.930 . S
Pr208 C210 2.880 1_455 S
Pr208 O228 2.562 1_455 S
Pr208 O229 2.490 . S
Pr208 O230 2.695 1_556 S
Pr208 O231 2.512 1_556 S
Pr208 O233 2.437 1_556 S
Pr208 O236 2.436 1_455 S
Pr208 O238 2.438 . S
Pr209 C219 2.880 . S
Pr209 O230 2.436 . S
Pr209 O232 2.403 1_455 S
Pr209 O234 2.562 . S
Pr209 O235 2.490 . S
Pr209 O236 2.695 1_454 S
Pr209 O237 2.503 1_454 S
Pr209 O239 2.437 1_554 S
C210 Pr208 2.880 1_655 S
C210 C211 1.491 . S
C210 O228 1.254 . S
C210 O229 1.225 1_655 S
C211 C210 1.491 . S
C211 C212 1.392 . S
C211 C216 1.356 . S
C212 C211 1.392 . S
C212 C213 1.368 . S
C212 H240 0.929 1_655 S
C213 C212 1.368 . S
C213 C214 1.386 . S
C213 H241 0.929 . S
C214 C213 1.386 . S
C214 C215 1.373 . S
C215 C214 1.373 . S
C215 C216 1.409 . S
C215 H242 0.931 . S
C216 C211 1.356 . S
C216 C215 1.409 . S
C216 H243 0.930 . S
C217 O230 1.270 . S
C217 O231 1.248 . S
C218 O232 1.287 . S
C218 O233 1.278 1_655 S
C219 Pr209 2.880 . S
C219 C220 1.491 . S
C219 O234 1.254 . S
C219 O235 1.225 . S
C220 C219 1.491 . S
C220 C221 1.392 . S
C220 C225 1.356 . S
C221 C220 1.392 . S
C221 C222 1.368 . S
C221 H244 0.929 . S
C222 C221 1.368 . S
C222 C223 1.386 . S
C222 H245 0.929 . S
C223 C222 1.386 . S
C223 C224 1.373 . S
C224 C223 1.373 . S
C224 C225 1.409 . S
C224 H246 0.931 . S
C225 C220 1.356 . S
C225 C224 1.409 . S
C225 H247 0.930 . S
C226 O236 1.270 . S
C226 O237 1.260 . S
C227 O238 1.267 . S
C227 O239 1.278 . S
O228 Pr208 2.562 1_655 S
O228 C210 1.254 . S
O229 Pr208 2.490 . S
O229 C210 1.225 1_455 S
O230 Pr208 2.695 1_554 S
O230 Pr209 2.436 . S
O230 C217 1.270 . S
O231 Pr208 2.512 1_554 S
O231 C217 1.248 . S
O232 Pr209 2.403 1_655 S
O232 C218 1.287 . S
O233 Pr208 2.437 1_554 S
O233 C218 1.278 1_455 S
O234 Pr209 2.562 . S
O234 C219 1.254 . S
O235 Pr209 2.490 . S
O235 C219 1.225 . S
O236 Pr208 2.436 1_655 S
O236 Pr209 2.695 1_656 S
O236 C226 1.270 . S
O237 Pr209 2.503 1_656 S
O237 C226 1.260 . S
O238 Pr208 2.438 . S
O238 C227 1.267 . S
O239 Pr209 2.437 1_556 S
O239 C227 1.278 . S
H240 C212 0.929 1_455 S
H241 C213 0.929 . S
H242 C215 0.931 . S
H243 C216 0.930 . S
H244 C221 0.929 . S
H245 C222 0.929 . S
H246 C224 0.931 . S
H247 C225 0.930 . S
H248 C256 0.929 . S
H249 C258 0.930 . S
H250 C260 0.930 . S
H251 C263 0.929 . S
H252 C266 0.930 . S
H253 C268 0.960 . S
H254 C268 0.960 . S
H255 C268 0.960 . S
C256 H248 0.929 . S
C256 C257 1.377 . S
C256 C258 1.384 . S
C257 C256 1.377 . S
C257 C263 1.390 . S
C258 H249 0.930 . S
C258 C256 1.384 . S
C258 C259 1.372 . S
C259 C258 1.372 . S
C259 C260 1.400 . S
C259 C264 1.490 . S
C260 H250 0.930 . S
C260 C259 1.400 . S
C260 C263 1.386 . S
H261 C277 0.930 . S
H262 C278 0.931 . S
C263 H251 0.929 . S
C263 C257 1.390 . S
C263 C260 1.386 . S
C264 C259 1.490 . S
C264 C266 1.395 . S
C264 C267 1.403 . S
H265 C271 0.930 . S
C266 H252 0.930 . S
C266 C264 1.395 . S
C266 C269 1.403 . S
C267 C264 1.403 . S
C267 C268 1.524 . S
C267 C271 1.400 . S
C268 H253 0.960 . S
C268 H254 0.960 . S
C268 H255 0.960 . S
C268 C267 1.524 . S
C269 C266 1.403 . S
C269 C270 1.392 . S
C269 C273 1.495 . S
C270 C269 1.392 . S
C270 C271 1.385 . S
C270 C272 1.478 . S
C271 H265 0.930 . S
C271 C267 1.400 . S
C271 C270 1.385 . S
C272 C270 1.478 . S
C272 C274 1.381 . S
C272 C278 1.383 . S
C273 C269 1.495 . S
C273 H279 0.959 . S
C273 H280 0.961 . S
C273 H281 0.960 . S
C274 C272 1.381 . S
C274 C275 1.394 . S
C274 H282 0.930 . S
C275 C274 1.394 . S
C275 C276 1.383 . S
C275 H283 0.929 . S
C276 C275 1.383 . S
C276 C277 1.377 . S
C277 H261 0.930 . S
C277 C276 1.377 . S
C277 C278 1.379 . S
C278 H262 0.931 . S
C278 C272 1.383 . S
C278 C277 1.379 . S
H279 C273 0.959 . S
H280 C273 0.961 . S
H281 C273 0.960 . S
H282 C274 0.930 . S
H283 C275 0.929 . S
H284 C292 0.929 . S
H285 C294 0.930 . S
H286 C296 0.930 . S
H287 C299 0.929 . S
H288 C302 0.930 . S
H289 C304 0.960 . S
H290 C304 0.960 . S
H291 C304 0.960 . S
C292 H284 0.929 . S
C292 C293 1.377 . S
C292 C294 1.384 . S
C293 C292 1.377 . S
C293 C299 1.390 . S
C294 H285 0.930 . S
C294 C292 1.384 . S
C294 C295 1.372 . S
C295 C294 1.372 . S
C295 C296 1.400 . S
C295 C300 1.490 . S
C296 H286 0.930 . S
C296 C295 1.400 . S
C296 C299 1.386 . S
H297 C313 0.930 . S
H298 C314 0.931 . S
C299 H287 0.929 . S
C299 C293 1.390 . S
C299 C296 1.386 . S
C300 C295 1.490 . S
C300 C302 1.395 . S
C300 C303 1.403 . S
H301 C307 0.930 . S
C302 H288 0.930 . S
C302 C300 1.395 . S
C302 C305 1.403 . S
C303 C300 1.403 . S
C303 C304 1.524 . S
C303 C307 1.400 . S
C304 H289 0.960 . S
C304 H290 0.960 . S
C304 H291 0.960 . S
C304 C303 1.524 . S
C305 C302 1.403 . S
C305 C306 1.392 . S
C305 C309 1.495 . S
C306 C305 1.392 . S
C306 C307 1.385 . S
C306 C308 1.478 . S
C307 H301 0.930 . S
C307 C303 1.400 . S
C307 C306 1.385 . S
C308 C306 1.478 . S
C308 C310 1.381 . S
C308 C314 1.383 . S
C309 C305 1.495 . S
C309 H315 0.959 . S
C309 H316 0.961 . S
C309 H317 0.960 . S
C310 C308 1.381 . S
C310 C311 1.394 . S
C310 H318 0.930 . S
C311 C310 1.394 . S
C311 C312 1.383 . S
C311 H319 0.929 . S
C312 C311 1.383 . S
C312 C313 1.377 . S
C313 H297 0.930 . S
C313 C312 1.377 . S
C313 C314 1.379 . S
C314 H298 0.931 . S
C314 C308 1.383 . S
C314 C313 1.379 . S
H315 C309 0.959 . S
H316 C309 0.961 . S
H317 C309 0.960 . S
H318 C310 0.930 . S
H319 C311 0.929 . S
H320 C328 0.929 . S
H321 C330 0.930 . S
H322 C332 0.930 . S
H323 C335 0.929 . S
H324 C338 0.930 . S
H325 C340 0.960 . S
H326 C340 0.960 . S
H327 C340 0.960 . S
C328 H320 0.929 . S
C328 C329 1.377 . S
C328 C330 1.384 . S
C329 C328 1.377 . S
C329 C335 1.390 . S
C330 H321 0.930 . S
C330 C328 1.384 . S
C330 C331 1.372 . S
C331 C330 1.372 . S
C331 C332 1.400 . S
C331 C336 1.490 . S
C332 H322 0.930 . S
C332 C331 1.400 . S
C332 C335 1.386 . S
H333 C349 0.930 . S
H334 C350 0.931 . S
C335 H323 0.929 . S
C335 C329 1.390 . S
C335 C332 1.386 . S
C336 C331 1.490 . S
C336 C338 1.395 . S
C336 C339 1.403 . S
H337 C343 0.930 . S
C338 H324 0.930 . S
C338 C336 1.395 . S
C338 C341 1.403 . S
C339 C336 1.403 . S
C339 C340 1.524 . S
C339 C343 1.400 . S
C340 H325 0.960 . S
C340 H326 0.960 . S
C340 H327 0.960 . S
C340 C339 1.524 . S
C341 C338 1.403 . S
C341 C342 1.392 . S
C341 C345 1.495 . S
C342 C341 1.392 . S
C342 C343 1.385 . S
C342 C344 1.478 . S
C343 H337 0.930 . S
C343 C339 1.400 . S
C343 C342 1.385 . S
C344 C342 1.478 . S
C344 C346 1.381 . S
C344 C350 1.383 . S
C345 C341 1.495 . S
C345 H351 0.959 . S
C345 H352 0.961 . S
C345 H353 0.960 . S
C346 C344 1.381 . S
C346 C347 1.394 . S
C346 H354 0.930 . S
C347 C346 1.394 . S
C347 C348 1.383 . S
C347 H355 0.929 . S
C348 C347 1.383 . S
C348 C349 1.377 . S
C349 H333 0.930 . S
C349 C348 1.377 . S
C349 C350 1.379 . S
C350 H334 0.931 . S
C350 C344 1.383 . S
C350 C349 1.379 . S
H351 C345 0.959 . S
H352 C345 0.961 . S
H353 C345 0.960 . S
H354 C346 0.930 . S
H355 C347 0.929 . S
H356 C364 0.929 . S
H357 C366 0.930 . S
H358 C368 0.930 . S
H359 C371 0.929 . S
H360 C374 0.930 . S
H361 C376 0.960 . S
H362 C376 0.960 . S
H363 C376 0.960 . S
C364 H356 0.929 . S
C364 C365 1.377 . S
C364 C366 1.384 . S
C365 C364 1.377 . S
C365 C371 1.390 . S
C366 H357 0.930 . S
C366 C364 1.384 . S
C366 C367 1.372 . S
C367 C366 1.372 . S
C367 C368 1.400 . S
C367 C372 1.490 . S
C368 H358 0.930 . S
C368 C367 1.400 . S
C368 C371 1.386 . S
H369 C385 0.930 . S
H370 C386 0.931 . S
C371 H359 0.929 . S
C371 C365 1.390 . S
C371 C368 1.386 . S
C372 C367 1.490 . S
C372 C374 1.395 . S
C372 C375 1.403 . S
H373 C379 0.930 . S
C374 H360 0.930 . S
C374 C372 1.395 . S
C374 C377 1.403 . S
C375 C372 1.403 . S
C375 C376 1.524 . S
C375 C379 1.400 . S
C376 H361 0.960 . S
C376 H362 0.960 . S
C376 H363 0.960 . S
C376 C375 1.524 . S
C377 C374 1.403 . S
C377 C378 1.392 . S
C377 C381 1.495 . S
C378 C377 1.392 . S
C378 C379 1.385 . S
C378 C380 1.478 . S
C379 H373 0.930 . S
C379 C375 1.400 . S
C379 C378 1.385 . S
C380 C378 1.478 . S
C380 C382 1.381 . S
C380 C386 1.383 . S
C381 C377 1.495 . S
C381 H387 0.959 . S
C381 H388 0.961 . S
C381 H389 0.960 . S
C382 C380 1.381 . S
C382 C383 1.394 . S
C382 H390 0.930 . S
C383 C382 1.394 . S
C383 C384 1.383 . S
C383 H391 0.929 1_655 S
C384 C383 1.383 . S
C384 C385 1.377 . S
C385 H369 0.930 . S
C385 C384 1.377 . S
C385 C386 1.379 . S
C386 H370 0.931 . S
C386 C380 1.383 . S
C386 C385 1.379 . S
H387 C381 0.959 . S
H388 C381 0.961 . S
H389 C381 0.960 . S
H390 C382 0.930 . S
H391 C383 0.929 1_455 S
H392 C400 0.929 . S
H393 C402 0.930 . S
H394 C404 0.930 . S
H395 C407 0.929 . S
H396 C410 0.930 . S
H397 C412 0.960 . S
H398 C412 0.960 . S
H399 C412 0.960 . S
C400 H392 0.929 . S
C400 C401 1.377 . S
C400 C402 1.384 . S
C401 C400 1.377 . S
C401 C407 1.390 . S
C402 H393 0.930 . S
C402 C400 1.384 . S
C402 C403 1.372 . S
C403 C402 1.372 . S
C403 C404 1.400 . S
C403 C408 1.490 . S
C404 H394 0.930 . S
C404 C403 1.400 . S
C404 C407 1.386 . S
H405 C421 0.930 . S
H406 C422 0.931 . S
C407 H395 0.929 . S
C407 C401 1.390 . S
C407 C404 1.386 . S
C408 C403 1.490 . S
C408 C410 1.395 . S
C408 C411 1.403 . S
H409 C415 0.930 . S
C410 H396 0.930 . S
C410 C408 1.395 . S
C410 C413 1.403 . S
C411 C408 1.403 . S
C411 C412 1.524 . S
C411 C415 1.400 . S
C412 H397 0.960 . S
C412 H398 0.960 . S
C412 H399 0.960 . S
C412 C411 1.524 . S
C413 C410 1.403 . S
C413 C414 1.392 . S
C413 C417 1.495 . S
C414 C413 1.392 . S
C414 C415 1.385 . S
C414 C416 1.478 . S
C415 H409 0.930 . S
C415 C411 1.400 . S
C415 C414 1.385 . S
C416 C414 1.478 . S
C416 C418 1.381 . S
C416 C422 1.383 . S
C417 C413 1.495 . S
C417 H423 0.959 . S
C417 H424 0.961 . S
C417 H425 0.960 . S
C418 C416 1.381 . S
C418 C419 1.394 . S
C418 H426 0.930 . S
C419 C418 1.394 . S
C419 C420 1.383 . S
C419 H427 0.929 . S
C420 C419 1.383 . S
C420 C421 1.377 . S
C421 H405 0.930 . S
C421 C420 1.377 . S
C421 C422 1.379 . S
C422 H406 0.931 . S
C422 C416 1.383 . S
C422 C421 1.379 . S
H423 C417 0.959 . S
H424 C417 0.961 . S
H425 C417 0.960 . S
H426 C418 0.930 . S
H427 C419 0.929 . S
H428 C436 0.929 . S
H429 C438 0.930 . S
H430 C440 0.930 . S
H431 C443 0.929 . S
H432 C446 0.930 . S
H433 C448 0.960 . S
H434 C448 0.960 . S
H435 C448 0.960 . S
C436 H428 0.929 . S
C436 C437 1.377 . S
C436 C438 1.384 . S
C437 C436 1.377 . S
C437 C443 1.390 . S
C438 H429 0.930 . S
C438 C436 1.384 . S
C438 C439 1.372 . S
C439 C438 1.372 . S
C439 C440 1.400 . S
C439 C444 1.490 . S
C440 H430 0.930 . S
C440 C439 1.400 . S
C440 C443 1.386 . S
H441 C457 0.930 . S
H442 C458 0.931 . S
C443 H431 0.929 . S
C443 C437 1.390 . S
C443 C440 1.386 . S
C444 C439 1.490 . S
C444 C446 1.395 . S
C444 C447 1.403 . S
H445 C451 0.930 . S
C446 H432 0.930 . S
C446 C444 1.395 . S
C446 C449 1.403 . S
C447 C444 1.403 . S
C447 C448 1.524 . S
C447 C451 1.400 . S
C448 H433 0.960 . S
C448 H434 0.960 . S
C448 H435 0.960 . S
C448 C447 1.524 . S
C449 C446 1.403 . S
C449 C450 1.392 . S
C449 C453 1.495 . S
C450 C449 1.392 . S
C450 C451 1.385 . S
C450 C452 1.478 . S
C451 H445 0.930 . S
C451 C447 1.400 . S
C451 C450 1.385 . S
C452 C450 1.478 . S
C452 C454 1.381 . S
C452 C458 1.383 . S
C453 C449 1.495 . S
C453 H459 0.959 . S
C453 H460 0.961 . S
C453 H461 0.960 . S
C454 C452 1.381 . S
C454 C455 1.394 . S
C454 H462 0.930 . S
C455 C454 1.394 . S
C455 C456 1.383 . S
C455 H463 0.929 . S
C456 C455 1.383 . S
C456 C457 1.377 . S
C457 H441 0.930 . S
C457 C456 1.377 . S
C457 C458 1.379 . S
C458 H442 0.931 . S
C458 C452 1.383 . S
C458 C457 1.379 . S
H459 C453 0.959 . S
H460 C453 0.961 . S
H461 C453 0.960 . S
H462 C454 0.930 . S
H463 C455 0.929 . S
H464 C472 0.929 . S
H465 C474 0.930 . S
H466 C476 0.930 . S
H467 C479 0.929 . S
H468 C482 0.930 . S
H469 C484 0.960 . S
H470 C484 0.960 . S
H471 C484 0.960 . S
C472 H464 0.929 . S
C472 C473 1.377 . S
C472 C474 1.384 . S
C473 C472 1.377 . S
C473 C479 1.390 . S
C474 H465 0.930 . S
C474 C472 1.384 . S
C474 C475 1.372 . S
C475 C474 1.372 . S
C475 C476 1.400 . S
C475 C480 1.490 . S
C476 H466 0.930 . S
C476 C475 1.400 . S
C476 C479 1.386 . S
H477 C493 0.930 . S
H478 C494 0.931 . S
C479 H467 0.929 . S
C479 C473 1.390 . S
C479 C476 1.386 . S
C480 C475 1.490 . S
C480 C482 1.395 . S
C480 C483 1.403 . S
H481 C487 0.930 . S
C482 H468 0.930 . S
C482 C480 1.395 . S
C482 C485 1.403 . S
C483 C480 1.403 . S
C483 C484 1.524 . S
C483 C487 1.400 . S
C484 H469 0.960 . S
C484 H470 0.960 . S
C484 H471 0.960 . S
C484 C483 1.524 . S
C485 C482 1.403 . S
C485 C486 1.392 . S
C485 C489 1.495 . S
C486 C485 1.392 . S
C486 C487 1.385 . S
C486 C488 1.478 . S
C487 H481 0.930 . S
C487 C483 1.400 . S
C487 C486 1.385 . S
C488 C486 1.478 . S
C488 C490 1.381 . S
C488 C494 1.383 . S
C489 C485 1.495 . S
C489 H495 0.959 . S
C489 H496 0.961 . S
C489 H497 0.960 . S
C490 C488 1.381 . S
C490 C491 1.394 . S
C490 H498 0.930 . S
C491 C490 1.394 . S
C491 C492 1.383 . S
C491 H499 0.929 . S
C492 C491 1.383 . S
C492 C493 1.377 . S
C493 H477 0.930 . S
C493 C492 1.377 . S
C493 C494 1.379 . S
C494 H478 0.931 . S
C494 C488 1.383 . S
C494 C493 1.379 . S
H495 C489 0.959 . S
H496 C489 0.961 . S
H497 C489 0.960 . S
H498 C490 0.930 . S
H499 C491 0.929 . S
H500 C508 0.929 . S
H501 C510 0.930 . S
H502 C512 0.930 . S
H503 C515 0.929 . S
H504 C518 0.930 . S
H505 C520 0.960 . S
H506 C520 0.960 . S
H507 C520 0.960 . S
C508 H500 0.929 . S
C508 C509 1.377 . S
C508 C510 1.384 . S
C509 C508 1.377 . S
C509 C515 1.390 . S
C510 H501 0.930 . S
C510 C508 1.384 . S
C510 C511 1.372 . S
C511 C510 1.372 . S
C511 C512 1.400 . S
C511 C516 1.490 . S
C512 H502 0.930 . S
C512 C511 1.400 . S
C512 C515 1.386 . S
H513 C529 0.930 . S
H514 C530 0.931 . S
C515 H503 0.929 . S
C515 C509 1.390 . S
C515 C512 1.386 . S
C516 C511 1.490 . S
C516 C518 1.395 . S
C516 C519 1.403 . S
H517 C523 0.930 . S
C518 H504 0.930 . S
C518 C516 1.395 . S
C518 C521 1.403 . S
C519 C516 1.403 . S
C519 C520 1.524 . S
C519 C523 1.400 . S
C520 H505 0.960 . S
C520 H506 0.960 . S
C520 H507 0.960 . S
C520 C519 1.524 . S
C521 C518 1.403 . S
C521 C522 1.392 . S
C521 C525 1.495 . S
C522 C521 1.392 . S
C522 C523 1.385 . S
C522 C524 1.478 . S
C523 H517 0.930 . S
C523 C519 1.400 . S
C523 C522 1.385 . S
C524 C522 1.478 . S
C524 C526 1.381 . S
C524 C530 1.383 . S
C525 C521 1.495 . S
C525 H531 0.959 . S
C525 H532 0.961 . S
C525 H533 0.960 . S
C526 C524 1.381 . S
C526 C527 1.394 . S
C526 H534 0.930 . S
C527 C526 1.394 . S
C527 C528 1.383 . S
C527 H535 0.929 . S
C528 C527 1.383 . S
C528 C529 1.377 . S
C529 H513 0.930 . S
C529 C528 1.377 . S
C529 C530 1.379 . S
C530 H514 0.931 . S
C530 C524 1.383 . S
C530 C529 1.379 . S
H531 C525 0.959 . S
H532 C525 0.961 . S
H533 C525 0.960 . S
H534 C526 0.930 . S
H535 C527 0.929 . S
H536 C544 0.929 . S
H537 C546 0.930 . S
H538 C548 0.930 . S
H539 C551 0.929 . S
H540 C554 0.930 . S
H541 C556 0.960 . S
H542 C556 0.960 . S
H543 C556 0.960 . S
C544 H536 0.929 . S
C544 C545 1.377 . S
C544 C546 1.384 . S
C545 C544 1.377 . S
C545 C551 1.390 . S
C546 H537 0.930 . S
C546 C544 1.384 . S
C546 C547 1.372 . S
C547 C546 1.372 . S
C547 C548 1.400 . S
C547 C552 1.490 . S
C548 H538 0.930 . S
C548 C547 1.400 . S
C548 C551 1.386 . S
H549 C565 0.930 . S
H550 C566 0.931 . S
C551 H539 0.929 . S
C551 C545 1.390 . S
C551 C548 1.386 . S
C552 C547 1.490 . S
C552 C554 1.395 . S
C552 C555 1.403 . S
H553 C559 0.930 . S
C554 H540 0.930 . S
C554 C552 1.395 . S
C554 C557 1.403 . S
C555 C552 1.403 . S
C555 C556 1.524 . S
C555 C559 1.400 . S
C556 H541 0.960 . S
C556 H542 0.960 . S
C556 H543 0.960 . S
C556 C555 1.524 . S
C557 C554 1.403 . S
C557 C558 1.392 . S
C557 C561 1.495 . S
C558 C557 1.392 . S
C558 C559 1.385 . S
C558 C560 1.478 . S
C559 H553 0.930 . S
C559 C555 1.400 . S
C559 C558 1.385 . S
C560 C558 1.478 . S
C560 C562 1.381 . S
C560 C566 1.383 . S
C561 C557 1.495 . S
C561 H567 0.959 . S
C561 H568 0.961 . S
C561 H569 0.960 . S
C562 C560 1.381 . S
C562 C563 1.394 . S
C562 H570 0.930 . S
C563 C562 1.394 . S
C563 C564 1.383 . S
C563 H571 0.929 . S
C564 C563 1.383 . S
C564 C565 1.377 . S
C565 H549 0.930 . S
C565 C564 1.377 . S
C565 C566 1.379 . S
C566 H550 0.931 . S
C566 C560 1.383 . S
C566 C565 1.379 . S
H567 C561 0.959 . S
H568 C561 0.961 . S
H569 C561 0.960 . S
H570 C562 0.930 . S
H571 C563 0.929 . S
H572 C580 0.929 . S
H573 C582 0.930 . S
H574 C584 0.930 . S
H575 C587 0.929 . S
H576 C590 0.930 . S
H577 C592 0.960 . S
H578 C592 0.960 . S
H579 C592 0.960 . S
C580 H572 0.929 . S
C580 C581 1.377 . S
C580 C582 1.384 . S
C581 C580 1.377 . S
C581 C587 1.390 . S
C582 H573 0.930 . S
C582 C580 1.384 . S
C582 C583 1.372 . S
C583 C582 1.372 . S
C583 C584 1.400 . S
C583 C588 1.490 . S
C584 H574 0.930 . S
C584 C583 1.400 . S
C584 C587 1.386 . S
H585 C601 0.901 1_554 S
H586 C602 0.931 . S
C587 H575 0.929 . S
C587 C581 1.390 . S
C587 C584 1.386 . S
C588 C583 1.490 . S
C588 C590 1.395 . S
C588 C591 1.403 . S
H589 C595 0.930 . S
C590 H576 0.930 . S
C590 C588 1.395 . S
C590 C593 1.403 . S
C591 C588 1.403 . S
C591 C592 1.524 . S
C591 C595 1.400 . S
C592 H577 0.960 . S
C592 H578 0.960 . S
C592 H579 0.960 . S
C592 C591 1.524 . S
C593 C590 1.403 . S
C593 C594 1.392 . S
C593 C597 1.495 . S
C594 C593 1.392 . S
C594 C595 1.385 . S
C594 C596 1.478 . S
C595 H589 0.930 . S
C595 C591 1.400 . S
C595 C594 1.385 . S
C596 C594 1.478 . S
C596 C598 1.381 . S
C596 C602 1.383 . S
C597 C593 1.495 . S
C597 H603 0.959 . S
C597 H604 0.961 . S
C597 H605 0.960 . S
C598 C596 1.381 . S
C598 C599 1.394 . S
C598 H606 0.930 . S
C599 C598 1.394 . S
C599 C600 1.383 . S
C599 H607 0.929 . S
C600 C599 1.383 . S
C600 C601 1.383 . S
C601 H585 0.901 1_556 S
C601 C600 1.383 . S
C601 C602 1.402 . S
C602 H586 0.931 . S
C602 C596 1.383 . S
C602 C601 1.402 . S
H603 C597 0.959 . S
H604 C597 0.961 . S
H605 C597 0.960 . S
H606 C598 0.930 . S
H607 C599 0.929 . S
H608 C616 0.929 . S
H609 C618 0.930 . S
H610 C620 0.930 . S
H611 C623 0.929 . S
H612 C626 0.930 . S
H613 C628 0.960 . S
H614 C628 0.960 . S
H615 C628 0.960 . S
C616 H608 0.929 . S
C616 C617 1.377 . S
C616 C618 1.384 . S
C617 C616 1.377 . S
C617 C623 1.390 . S
C618 H609 0.930 . S
C618 C616 1.384 . S
C618 C619 1.372 . S
C619 C618 1.372 . S
C619 C620 1.400 . S
C619 C624 1.490 . S
C620 H610 0.930 . S
C620 C619 1.400 . S
C620 C623 1.386 . S
H621 C637 0.930 . S
H622 C638 0.931 . S
C623 H611 0.929 . S
C623 C617 1.390 . S
C623 C620 1.386 . S
C624 C619 1.490 . S
C624 C626 1.395 . S
C624 C627 1.403 . S
H625 C631 0.930 . S
C626 H612 0.930 . S
C626 C624 1.395 . S
C626 C629 1.403 . S
C627 C624 1.403 . S
C627 C628 1.524 . S
C627 C631 1.400 . S
C628 H613 0.960 . S
C628 H614 0.960 . S
C628 H615 0.960 . S
C628 C627 1.524 . S
C629 C626 1.403 . S
C629 C630 1.392 . S
C629 C633 1.495 . S
C630 C629 1.392 . S
C630 C631 1.385 . S
C630 C632 1.478 . S
C631 H625 0.930 . S
C631 C627 1.400 . S
C631 C630 1.385 . S
C632 C630 1.478 . S
C632 C634 1.381 . S
C632 C638 1.383 . S
C633 C629 1.495 . S
C633 H639 0.959 . S
C633 H640 0.961 . S
C633 H641 0.960 . S
C634 C632 1.381 . S
C634 C635 1.394 . S
C634 H642 0.930 . S
C635 C634 1.394 . S
C635 C636 1.383 . S
C635 H643 0.929 . S
C636 C635 1.383 . S
C636 C637 1.377 . S
C637 H621 0.930 . S
C637 C636 1.377 . S
C637 C638 1.379 . S
C638 H622 0.931 . S
C638 C632 1.383 . S
C638 C637 1.379 . S
H639 C633 0.959 . S
H640 C633 0.961 . S
H641 C633 0.960 . S
H642 C634 0.930 . S
H643 C635 0.929 . S
H644 C652 0.929 . S
H645 C654 0.930 . S
H646 C656 0.930 . S
H647 C659 0.929 . S
H648 C662 0.930 . S
H649 C664 0.960 . S
H650 C664 0.960 . S
H651 C664 0.960 . S
C652 H644 0.929 . S
C652 C653 1.377 . S
C652 C654 1.384 . S
C653 C652 1.377 . S
C653 C659 1.390 . S
C654 H645 0.930 . S
C654 C652 1.384 . S
C654 C655 1.372 . S
C655 C654 1.372 . S
C655 C656 1.400 . S
C655 C660 1.490 . S
C656 H646 0.930 . S
C656 C655 1.400 . S
C656 C659 1.386 . S
H657 C673 0.930 . S
H658 C674 0.931 . S
C659 H647 0.929 . S
C659 C653 1.390 . S
C659 C656 1.386 . S
C660 C655 1.490 . S
C660 C662 1.395 . S
C660 C663 1.403 . S
H661 C667 0.930 . S
C662 H648 0.930 . S
C662 C660 1.395 . S
C662 C665 1.403 . S
C663 C660 1.403 . S
C663 C664 1.524 . S
C663 C667 1.400 . S
C664 H649 0.960 . S
C664 H650 0.960 . S
C664 H651 0.960 . S
C664 C663 1.524 . S
C665 C662 1.403 . S
C665 C666 1.392 . S
C665 C669 1.495 . S
C666 C665 1.392 . S
C666 C667 1.385 . S
C666 C668 1.478 . S
C667 H661 0.930 . S
C667 C663 1.400 . S
C667 C666 1.385 . S
C668 C666 1.478 . S
C668 C670 1.381 . S
C668 C674 1.383 . S
C669 C665 1.495 . S
C669 H675 0.959 . S
C669 H676 0.961 . S
C669 H677 0.960 . S
C670 C668 1.381 . S
C670 C671 1.394 . S
C670 H678 0.930 . S
C671 C670 1.394 . S
C671 C672 1.383 . S
C671 H679 0.929 . S
C672 C671 1.383 . S
C672 C673 1.377 . S
C673 H657 0.930 . S
C673 C672 1.377 . S
C673 C674 1.379 . S
C674 H658 0.931 . S
C674 C668 1.383 . S
C674 C673 1.379 . S
H675 C669 0.959 . S
H676 C669 0.961 . S
H677 C669 0.960 . S
H678 C670 0.930 . S
H679 C671 0.929 . S
H680 C688 0.929 . S
H681 C690 0.930 . S
H682 C692 0.930 . S
H683 C695 0.929 . S
H684 C698 0.930 . S
H685 C700 0.960 . S
H686 C700 0.960 . S
H687 C700 0.960 . S
C688 H680 0.929 . S
C688 C689 1.377 . S
C688 C690 1.384 . S
C689 C688 1.377 . S
C689 C695 1.390 . S
C690 H681 0.930 . S
C690 C688 1.384 . S
C690 C691 1.372 . S
C691 C690 1.372 . S
C691 C692 1.400 . S
C691 C696 1.490 . S
C692 H682 0.930 . S
C692 C691 1.400 . S
C692 C695 1.386 . S
H693 C709 0.930 . S
H694 C710 0.931 . S
C695 H683 0.929 . S
C695 C689 1.390 . S
C695 C692 1.386 . S
C696 C691 1.490 . S
C696 C698 1.395 . S
C696 C699 1.403 . S
H697 C703 0.930 . S
C698 H684 0.930 . S
C698 C696 1.395 . S
C698 C701 1.403 . S
C699 C696 1.403 . S
C699 C700 1.524 . S
C699 C703 1.400 . S
C700 H685 0.960 . S
C700 H686 0.960 . S
C700 H687 0.960 . S
C700 C699 1.524 . S
C701 C698 1.403 . S
C701 C702 1.392 . S
C701 C705 1.495 . S
C702 C701 1.392 . S
C702 C703 1.385 . S
C702 C704 1.478 . S
C703 H697 0.930 . S
C703 C699 1.400 . S
C703 C702 1.385 . S
C704 C702 1.478 . S
C704 C706 1.381 . S
C704 C710 1.383 . S
C705 C701 1.495 . S
C705 H711 0.959 . S
C705 H712 0.961 . S
C705 H713 0.960 . S
C706 C704 1.381 . S
C706 C707 1.394 . S
C706 H714 0.930 . S
C707 C706 1.394 . S
C707 C708 1.383 . S
C707 H715 0.929 . S
C708 C707 1.383 . S
C708 C709 1.377 . S
C709 H693 0.930 . S
C709 C708 1.377 . S
C709 C710 1.379 . S
C710 H694 0.931 . S
C710 C704 1.383 . S
C710 C709 1.379 . S
H711 C705 0.959 . S
H712 C705 0.961 . S
H713 C705 0.960 . S
H714 C706 0.930 . S
H715 C707 0.929 . S
H716 C724 0.929 . S
H717 C726 0.930 . S
H718 C728 0.930 . S
H719 C731 0.929 . S
H720 C734 0.930 . S
H721 C736 0.960 . S
H722 C736 0.960 . S
H723 C736 0.960 . S
C724 H716 0.929 . S
C724 C725 1.377 . S
C724 C726 1.384 . S
C725 C724 1.377 . S
C725 C731 1.390 . S
C726 H717 0.930 . S
C726 C724 1.384 . S
C726 C727 1.372 . S
C727 C726 1.372 . S
C727 C728 1.400 . S
C727 C732 1.490 . S
C728 H718 0.930 . S
C728 C727 1.400 . S
C728 C731 1.386 . S
H729 C745 0.930 . S
H730 C746 0.931 . S
C731 H719 0.929 . S
C731 C725 1.390 . S
C731 C728 1.386 . S
C732 C727 1.490 . S
C732 C734 1.395 . S
C732 C735 1.403 . S
H733 C739 0.930 . S
C734 H720 0.930 . S
C734 C732 1.395 . S
C734 C737 1.403 . S
C735 C732 1.403 . S
C735 C736 1.524 . S
C735 C739 1.400 . S
C736 H721 0.960 . S
C736 H722 0.960 . S
C736 H723 0.960 . S
C736 C735 1.524 . S
C737 C734 1.403 . S
C737 C738 1.392 . S
C737 C741 1.495 . S
C738 C737 1.392 . S
C738 C739 1.385 . S
C738 C740 1.478 . S
C739 H733 0.930 . S
C739 C735 1.400 . S
C739 C738 1.385 . S
C740 C738 1.478 . S
C740 C742 1.381 . S
C740 C746 1.383 . S
C741 C737 1.495 . S
C741 H747 0.959 . S
C741 H748 0.961 . S
C741 H749 0.960 . S
C742 C740 1.381 . S
C742 C743 1.394 . S
C742 H750 0.930 . S
C743 C742 1.394 . S
C743 C744 1.383 . S
C743 H751 0.929 . S
C744 C743 1.383 . S
C744 C745 1.377 . S
C745 H729 0.930 . S
C745 C744 1.377 . S
C745 C746 1.379 . S
C746 H730 0.931 . S
C746 C740 1.383 . S
C746 C745 1.379 . S
H747 C741 0.959 . S
H748 C741 0.961 . S
H749 C741 0.960 . S
H750 C742 0.930 . S
H751 C743 0.929 . S
H752 C760 0.929 . S
H753 C762 0.930 . S
H754 C764 0.930 . S
H755 C767 0.929 . S
H756 C770 0.930 . S
H757 C772 0.960 . S
H758 C772 0.960 . S
H759 C772 0.960 . S
C760 H752 0.929 . S
C760 C761 1.377 . S
C760 C762 1.384 . S
C761 C760 1.377 . S
C761 C767 1.390 . S
C762 H753 0.930 . S
C762 C760 1.384 . S
C762 C763 1.372 . S
C763 C762 1.372 . S
C763 C764 1.400 . S
C763 C768 1.490 . S
C764 H754 0.930 . S
C764 C763 1.400 . S
C764 C767 1.386 . S
H765 C781 0.930 . S
H766 C782 0.931 . S
C767 H755 0.929 . S
C767 C761 1.390 . S
C767 C764 1.386 . S
C768 C763 1.490 . S
C768 C770 1.395 . S
C768 C771 1.403 . S
H769 C775 0.930 . S
C770 H756 0.930 . S
C770 C768 1.395 . S
C770 C773 1.403 . S
C771 C768 1.403 . S
C771 C772 1.524 . S
C771 C775 1.400 . S
C772 H757 0.960 . S
C772 H758 0.960 . S
C772 H759 0.960 . S
C772 C771 1.524 . S
C773 C770 1.403 . S
C773 C774 1.392 . S
C773 C777 1.495 . S
C774 C773 1.392 . S
C774 C775 1.385 . S
C774 C776 1.478 . S
C775 H769 0.930 . S
C775 C771 1.400 . S
C775 C774 1.385 . S
C776 C774 1.478 . S
C776 C778 1.381 . S
C776 C782 1.383 . S
C777 C773 1.495 . S
C777 H783 0.959 . S
C777 H784 0.961 . S
C777 H785 0.960 . S
C778 C776 1.381 . S
C778 C779 1.394 . S
C778 H786 0.930 . S
C779 C778 1.394 . S
C779 C780 1.383 . S
C779 H787 0.929 . S
C780 C779 1.383 . S
C780 C781 1.377 . S
C781 H765 0.930 . S
C781 C780 1.377 . S
C781 C782 1.379 . S
C782 H766 0.931 . S
C782 C776 1.383 . S
C782 C781 1.379 . S
H783 C777 0.959 . S
H784 C777 0.961 . S
H785 C777 0.960 . S
H786 C778 0.930 . S
H787 C779 0.929 . S
H788 C796 0.929 . S
H789 C798 0.930 . S
H790 C800 0.930 . S
H791 C803 0.929 . S
H792 C806 0.930 . S
H793 C808 0.960 . S
H794 C808 0.960 . S
H795 C808 0.960 . S
C796 H788 0.929 . S
C796 C797 1.377 . S
C796 C798 1.384 . S
C797 C796 1.377 . S
C797 C803 1.390 . S
C798 H789 0.930 . S
C798 C796 1.384 . S
C798 C799 1.372 . S
C799 C798 1.372 . S
C799 C800 1.400 . S
C799 C804 1.490 . S
C800 H790 0.930 . S
C800 C799 1.400 . S
C800 C803 1.386 . S
H801 C817 0.930 . S
H802 C818 0.931 . S
C803 H791 0.929 . S
C803 C797 1.390 . S
C803 C800 1.386 . S
C804 C799 1.490 . S
C804 C806 1.395 . S
C804 C807 1.403 . S
H805 C811 0.930 . S
C806 H792 0.930 . S
C806 C804 1.395 . S
C806 C809 1.403 . S
C807 C804 1.403 . S
C807 C808 1.524 . S
C807 C811 1.400 . S
C808 H793 0.960 . S
C808 H794 0.960 . S
C808 H795 0.960 . S
C808 C807 1.524 . S
C809 C806 1.403 . S
C809 C810 1.392 . S
C809 C813 1.495 . S
C810 C809 1.392 . S
C810 C811 1.385 . S
C810 C812 1.478 . S
C811 H805 0.930 . S
C811 C807 1.400 . S
C811 C810 1.385 . S
C812 C810 1.478 . S
C812 C814 1.381 . S
C812 C818 1.383 . S
C813 C809 1.495 . S
C813 H819 0.959 . S
C813 H820 0.961 . S
C813 H821 0.960 . S
C814 C812 1.381 . S
C814 C815 1.394 . S
C814 H822 0.930 . S
C815 C814 1.394 . S
C815 C816 1.383 . S
C815 H823 0.929 . S
C816 C815 1.383 . S
C816 C817 1.377 . S
C817 H801 0.930 . S
C817 C816 1.377 . S
C817 C818 1.379 . S
C818 H802 0.931 . S
C818 C812 1.383 . S
C818 C817 1.379 . S
H819 C813 0.959 . S
H820 C813 0.961 . S
H821 C813 0.960 . S
H822 C814 0.930 . S
H823 C815 0.929 . S
H824 C832 0.929 . S
H825 C834 0.930 . S
H826 C836 0.930 . S
H827 C839 0.929 . S
H828 C842 0.930 . S
H829 C844 0.960 . S
H830 C844 0.960 . S
H831 C844 0.960 . S
C832 H824 0.929 . S
C832 C833 1.377 . S
C832 C834 1.384 . S
C833 C832 1.377 . S
C833 C839 1.390 . S
C834 H825 0.930 . S
C834 C832 1.384 . S
C834 C835 1.372 . S
C835 C834 1.372 . S
C835 C836 1.400 . S
C835 C840 1.490 . S
C836 H826 0.930 . S
C836 C835 1.400 . S
C836 C839 1.386 . S
H837 C853 0.930 . S
H838 C854 0.931 . S
C839 H827 0.929 . S
C839 C833 1.390 . S
C839 C836 1.386 . S
C840 C835 1.490 . S
C840 C842 1.395 . S
C840 C843 1.403 . S
H841 C847 0.930 . S
C842 H828 0.930 . S
C842 C840 1.395 . S
C842 C845 1.403 . S
C843 C840 1.403 . S
C843 C844 1.524 . S
C843 C847 1.400 . S
C844 H829 0.960 . S
C844 H830 0.960 . S
C844 H831 0.960 . S
C844 C843 1.524 . S
C845 C842 1.403 . S
C845 C846 1.392 . S
C845 C849 1.495 . S
C846 C845 1.392 . S
C846 C847 1.385 . S
C846 C848 1.478 . S
C847 H841 0.930 . S
C847 C843 1.400 . S
C847 C846 1.385 . S
C848 C846 1.478 . S
C848 C850 1.381 . S
C848 C854 1.383 . S
C849 C845 1.495 . S
C849 H855 0.959 . S
C849 H856 0.961 . S
C849 H857 0.960 . S
C850 C848 1.381 . S
C850 C851 1.394 . S
C850 H858 0.930 . S
C851 C850 1.394 . S
C851 C852 1.383 . S
C851 H859 0.929 . S
C852 C851 1.383 . S
C852 C853 1.377 . S
C853 H837 0.930 . S
C853 C852 1.377 . S
C853 C854 1.379 . S
C854 H838 0.931 . S
C854 C848 1.383 . S
C854 C853 1.379 . S
H855 C849 0.959 . S
H856 C849 0.961 . S
H857 C849 0.960 . S
H858 C850 0.930 . S
H859 C851 0.929 . S
H860 C868 0.929 . S
H861 C870 0.930 . S
H862 C872 0.930 . S
H863 C875 0.929 . S
H864 C878 0.930 . S
H865 C880 0.960 . S
H866 C880 0.960 . S
H867 C880 0.960 . S
C868 H860 0.929 . S
C868 C869 1.377 . S
C868 C870 1.384 . S
C869 C868 1.377 . S
C869 C875 1.390 . S
C870 H861 0.930 . S
C870 C868 1.384 . S
C870 C871 1.372 . S
C871 C870 1.372 . S
C871 C872 1.400 . S
C871 C876 1.490 . S
C872 H862 0.930 . S
C872 C871 1.400 . S
C872 C875 1.386 . S
H873 C889 0.930 . S
H874 C890 0.931 . S
C875 H863 0.929 . S
C875 C869 1.390 . S
C875 C872 1.386 . S
C876 C871 1.490 . S
C876 C878 1.395 . S
C876 C879 1.403 . S
H877 C883 0.930 . S
C878 H864 0.930 . S
C878 C876 1.395 . S
C878 C881 1.403 . S
C879 C876 1.403 . S
C879 C880 1.524 . S
C879 C883 1.400 . S
C880 H865 0.960 . S
C880 H866 0.960 . S
C880 H867 0.960 . S
C880 C879 1.524 . S
C881 C878 1.403 . S
C881 C882 1.392 . S
C881 C885 1.495 . S
C882 C881 1.392 . S
C882 C883 1.385 . S
C882 C884 1.478 . S
C883 H877 0.930 . S
C883 C879 1.400 . S
C883 C882 1.385 . S
C884 C882 1.478 . S
C884 C886 1.381 . S
C884 C890 1.383 . S
C885 C881 1.495 . S
C885 H891 0.959 . S
C885 H892 0.961 . S
C885 H893 0.960 . S
C886 C884 1.381 . S
C886 C887 1.394 . S
C886 H894 0.930 . S
C887 C886 1.394 . S
C887 C888 1.383 . S
C887 H895 0.929 . S
C888 C887 1.383 . S
C888 C889 1.377 . S
C889 H873 0.930 . S
C889 C888 1.377 . S
C889 C890 1.379 . S
C890 H874 0.931 . S
C890 C884 1.383 . S
C890 C889 1.379 . S
H891 C885 0.959 . S
H892 C885 0.961 . S
H893 C885 0.960 . S
H894 C886 0.930 . S
H895 C887 0.929 . S
H896 C904 0.929 . S
H897 C906 0.930 . S
H898 C908 0.930 . S
H899 C911 0.929 . S
H900 C914 0.930 . S
H901 C916 0.960 . S
H902 C916 0.960 . S
H903 C916 0.960 . S
C904 H896 0.929 . S
C904 C905 1.377 . S
C904 C906 1.384 . S
C905 C904 1.377 . S
C905 C911 1.390 . S
C906 H897 0.930 . S
C906 C904 1.384 . S
C906 C907 1.372 . S
C907 C906 1.372 . S
C907 C908 1.400 . S
C907 C912 1.490 . S
C908 H898 0.930 . S
C908 C907 1.400 . S
C908 C911 1.386 . S
H909 C925 0.930 . S
H910 C926 0.931 . S
C911 H899 0.929 . S
C911 C905 1.390 . S
C911 C908 1.386 . S
C912 C907 1.490 . S
C912 C914 1.395 . S
C912 C915 1.403 . S
H913 C919 0.930 . S
C914 H900 0.930 . S
C914 C912 1.395 . S
C914 C917 1.403 . S
C915 C912 1.403 . S
C915 C916 1.524 . S
C915 C919 1.400 . S
C916 H901 0.960 . S
C916 H902 0.960 . S
C916 H903 0.960 . S
C916 C915 1.524 . S
C917 C914 1.403 . S
C917 C918 1.392 . S
C917 C921 1.495 . S
C918 C917 1.392 . S
C918 C919 1.385 . S
C918 C920 1.478 . S
C919 H913 0.930 . S
C919 C915 1.400 . S
C919 C918 1.385 . S
C920 C918 1.478 . S
C920 C922 1.381 . S
C920 C926 1.383 . S
C921 C917 1.495 . S
C921 H927 0.959 . S
C921 H928 0.961 . S
C921 H929 0.960 . S
C922 C920 1.381 . S
C922 C923 1.394 . S
C922 H930 0.930 . S
C923 C922 1.394 . S
C923 C924 1.383 . S
C923 H931 0.929 . S
C924 C923 1.383 . S
C924 C925 1.377 . S
C925 H909 0.930 . S
C925 C924 1.377 . S
C925 C926 1.379 . S
C926 H910 0.931 . S
C926 C920 1.383 . S
C926 C925 1.379 . S
H927 C921 0.959 . S
H928 C921 0.961 . S
H929 C921 0.960 . S
H930 C922 0.930 . S
H931 C923 0.929 . S
H932 C940 0.929 . S
H933 C942 0.930 . S
H934 C944 0.930 . S
H935 C947 0.929 . S
H936 C950 0.930 . S
H937 C952 0.960 . S
H938 C952 0.960 . S
H939 C952 0.960 . S
C940 H932 0.929 . S
C940 C941 1.377 . S
C940 C942 1.384 . S
C941 C940 1.377 . S
C941 C947 1.390 . S
C942 H933 0.930 . S
C942 C940 1.384 . S
C942 C943 1.372 . S
C943 C942 1.372 . S
C943 C944 1.400 . S
C943 C948 1.490 . S
C944 H934 0.930 . S
C944 C943 1.400 . S
C944 C947 1.386 . S
H945 C961 0.930 . S
H946 C962 0.931 . S
C947 H935 0.929 . S
C947 C941 1.390 . S
C947 C944 1.386 . S
C948 C943 1.490 . S
C948 C950 1.395 . S
C948 C951 1.403 . S
H949 C955 0.930 . S
C950 H936 0.930 . S
C950 C948 1.395 . S
C950 C953 1.403 . S
C951 C948 1.403 . S
C951 C952 1.524 . S
C951 C955 1.400 . S
C952 H937 0.960 . S
C952 H938 0.960 . S
C952 H939 0.960 . S
C952 C951 1.524 . S
C953 C950 1.403 . S
C953 C954 1.392 . S
C953 C957 1.495 . S
C954 C953 1.392 . S
C954 C955 1.385 . S
C954 C956 1.478 . S
C955 H949 0.930 . S
C955 C951 1.400 . S
C955 C954 1.385 . S
C956 C954 1.478 . S
C956 C958 1.381 . S
C956 C962 1.383 . S
C957 C953 1.495 . S
C957 H963 0.959 . S
C957 H964 0.961 . S
C957 H965 0.960 . S
C958 C956 1.381 . S
C958 C959 1.394 . S
C958 H966 0.930 . S
C959 C958 1.394 . S
C959 C960 1.383 . S
C959 H967 0.929 . S
C960 C959 1.383 . S
C960 C961 1.377 . S
C961 H945 0.930 . S
C961 C960 1.377 . S
C961 C962 1.379 . S
C962 H946 0.931 . S
C962 C956 1.383 . S
C962 C961 1.379 . S
H963 C957 0.959 . S
H964 C957 0.961 . S
H965 C957 0.960 . S
H966 C958 0.930 . S
H967 C959 0.929 . S
H968 C976 0.929 . S
H969 C978 0.930 . S
H970 C980 0.930 . S
H971 C983 0.929 . S
H972 C986 0.930 . S
H973 C988 0.960 . S
H974 C988 0.960 . S
H975 C988 0.960 . S
C976 H968 0.929 . S
C976 C977 1.377 . S
C976 C978 1.384 . S
C977 C976 1.377 . S
C977 C983 1.390 . S
C978 H969 0.930 . S
C978 C976 1.384 . S
C978 C979 1.372 . S
C979 C978 1.372 . S
C979 C980 1.400 . S
C979 C984 1.490 . S
C980 H970 0.930 . S
C980 C979 1.400 . S
C980 C983 1.386 . S
H981 C997 0.930 . S
H982 C998 0.931 . S
C983 H971 0.929 . S
C983 C977 1.390 . S
C983 C980 1.386 . S
C984 C979 1.490 . S
C984 C986 1.395 . S
C984 C987 1.403 . S
H985 C991 0.930 . S
C986 H972 0.930 . S
C986 C984 1.395 . S
C986 C989 1.403 . S
C987 C984 1.403 . S
C987 C988 1.524 . S
C987 C991 1.400 . S
C988 H973 0.960 . S
C988 H974 0.960 . S
C988 H975 0.960 . S
C988 C987 1.524 . S
C989 C986 1.403 . S
C989 C990 1.392 . S
C989 C993 1.495 . S
C990 C989 1.392 . S
C990 C991 1.385 . S
C990 C992 1.478 . S
C991 H985 0.930 . S
C991 C987 1.400 . S
C991 C990 1.385 . S
C992 C990 1.478 . S
C992 C994 1.381 . S
C992 C998 1.383 . S
C993 C989 1.495 . S
C993 H999 0.959 . S
C993 H1000 0.961 . S
C993 H1001 0.960 . S
C994 C992 1.381 . S
C994 C995 1.394 . S
C994 H1002 0.930 . S
C995 C994 1.394 . S
C995 C996 1.383 . S
C995 H1003 0.929 . S
C996 C995 1.383 . S
C996 C997 1.377 . S
C997 H981 0.930 . S
C997 C996 1.377 . S
C997 C998 1.379 . S
C998 H982 0.931 . S
C998 C992 1.383 . S
C998 C997 1.379 . S
H999 C993 0.959 . S
H1000 C993 0.961 . S
H1001 C993 0.960 . S
H1002 C994 0.930 . S
H1003 C995 0.929 . S
H1004 C1012 0.929 . S
H1005 C1014 0.930 . S
H1006 C1016 0.930 . S
H1007 C1019 0.929 . S
H1008 C1022 0.930 . S
H1009 C1024 0.960 . S
H1010 C1024 0.960 . S
H1011 C1024 0.960 . S
C1012 H1004 0.929 . S
C1012 C1013 1.377 . S
C1012 C1014 1.384 . S
C1013 C1012 1.377 . S
C1013 C1019 1.390 . S
C1014 H1005 0.930 . S
C1014 C1012 1.384 . S
C1014 C1015 1.372 . S
C1015 C1014 1.372 . S
C1015 C1016 1.400 . S
C1015 C1020 1.490 . S
C1016 H1006 0.930 . S
C1016 C1015 1.400 . S
C1016 C1019 1.386 . S
H1017 C1033 0.930 . S
H1018 C1034 0.931 . S
C1019 H1007 0.929 . S
C1019 C1013 1.390 . S
C1019 C1016 1.386 . S
C1020 C1015 1.490 . S
C1020 C1022 1.395 . S
C1020 C1023 1.403 . S
H1021 C1027 0.930 . S
C1022 H1008 0.930 . S
C1022 C1020 1.395 . S
C1022 C1025 1.403 . S
C1023 C1020 1.403 . S
C1023 C1024 1.524 . S
C1023 C1027 1.400 . S
C1024 H1009 0.960 . S
C1024 H1010 0.960 . S
C1024 H1011 0.960 . S
C1024 C1023 1.524 . S
C1025 C1022 1.403 . S
C1025 C1026 1.392 . S
C1025 C1029 1.495 . S
C1026 C1025 1.392 . S
C1026 C1027 1.385 . S
C1026 C1028 1.478 . S
C1027 H1021 0.930 . S
C1027 C1023 1.400 . S
C1027 C1026 1.385 . S
C1028 C1026 1.478 . S
C1028 C1030 1.381 . S
C1028 C1034 1.383 . S
C1029 C1025 1.495 . S
C1029 H1035 0.959 . S
C1029 H1036 0.961 . S
C1029 H1037 0.960 . S
C1030 C1028 1.381 . S
C1030 C1031 1.394 . S
C1030 H1038 0.930 . S
C1031 C1030 1.394 . S
C1031 C1032 1.383 . S
C1031 H1039 0.929 . S
C1032 C1031 1.383 . S
C1032 C1033 1.377 . S
C1033 H1017 0.930 . S
C1033 C1032 1.377 . S
C1033 C1034 1.379 . S
C1034 H1018 0.931 . S
C1034 C1028 1.383 . S
C1034 C1033 1.379 . S
H1035 C1029 0.959 . S
H1036 C1029 0.961 . S
H1037 C1029 0.960 . S
H1038 C1030 0.930 . S
H1039 C1031 0.929 . S
H1040 C1048 0.929 . S
H1041 C1050 0.930 . S
H1042 C1052 0.930 . S
H1043 C1055 0.929 . S
H1044 C1058 0.930 . S
H1045 C1060 0.960 . S
H1046 C1060 0.960 . S
H1047 C1060 0.960 . S
C1048 H1040 0.929 . S
C1048 C1049 1.377 . S
C1048 C1050 1.384 . S
C1049 C1048 1.377 . S
C1049 C1055 1.390 . S
C1050 H1041 0.930 . S
C1050 C1048 1.384 . S
C1050 C1051 1.372 . S
C1051 C1050 1.372 . S
C1051 C1052 1.400 . S
C1051 C1056 1.490 . S
C1052 H1042 0.930 . S
C1052 C1051 1.400 . S
C1052 C1055 1.386 . S
H1053 C1069 0.930 . S
H1054 C1070 0.931 . S
C1055 H1043 0.929 . S
C1055 C1049 1.390 . S
C1055 C1052 1.386 . S
C1056 C1051 1.490 . S
C1056 C1058 1.395 . S
C1056 C1059 1.403 . S
H1057 C1063 0.930 . S
C1058 H1044 0.930 . S
C1058 C1056 1.395 . S
C1058 C1061 1.403 . S
C1059 C1056 1.403 . S
C1059 C1060 1.524 . S
C1059 C1063 1.400 . S
C1060 H1045 0.960 . S
C1060 H1046 0.960 . S
C1060 H1047 0.960 . S
C1060 C1059 1.524 . S
C1061 C1058 1.403 . S
C1061 C1062 1.392 . S
C1061 C1065 1.495 . S
C1062 C1061 1.392 . S
C1062 C1063 1.385 . S
C1062 C1064 1.478 . S
C1063 H1057 0.930 . S
C1063 C1059 1.400 . S
C1063 C1062 1.385 . S
C1064 C1062 1.478 . S
C1064 C1066 1.381 . S
C1064 C1070 1.383 . S
C1065 C1061 1.495 . S
C1065 H1071 0.959 . S
C1065 H1072 0.961 . S
C1065 H1073 0.960 . S
C1066 C1064 1.381 . S
C1066 C1067 1.394 . S
C1066 H1074 0.930 . S
C1067 C1066 1.394 . S
C1067 C1068 1.383 . S
C1067 H1075 0.929 . S
C1068 C1067 1.383 . S
C1068 C1069 1.377 . S
C1069 H1053 0.930 . S
C1069 C1068 1.377 . S
C1069 C1070 1.379 . S
C1070 H1054 0.931 . S
C1070 C1064 1.383 . S
C1070 C1069 1.379 . S
H1071 C1065 0.959 . S
H1072 C1065 0.961 . S
H1073 C1065 0.960 . S
H1074 C1066 0.930 . S
H1075 C1067 0.929 . S
H1076 C1084 0.929 . S
H1077 C1086 0.930 . S
H1078 C1088 0.930 . S
H1079 C1091 0.929 . S
H1080 C1094 0.930 . S
H1081 C1096 0.960 . S
H1082 C1096 0.960 . S
H1083 C1096 0.960 . S
C1084 H1076 0.929 . S
C1084 C1085 1.377 . S
C1084 C1086 1.384 . S
C1085 C1084 1.377 . S
C1085 C1091 1.390 . S
C1086 H1077 0.930 . S
C1086 C1084 1.384 . S
C1086 C1087 1.372 . S
C1087 C1086 1.372 . S
C1087 C1088 1.400 . S
C1087 C1092 1.490 . S
C1088 H1078 0.930 . S
C1088 C1087 1.400 . S
C1088 C1091 1.386 . S
H1089 C1105 0.930 . S
H1090 C1106 0.931 . S
C1091 H1079 0.929 . S
C1091 C1085 1.390 . S
C1091 C1088 1.386 . S
C1092 C1087 1.490 . S
C1092 C1094 1.395 . S
C1092 C1095 1.403 . S
H1093 C1099 0.930 . S
C1094 H1080 0.930 . S
C1094 C1092 1.395 . S
C1094 C1097 1.403 . S
C1095 C1092 1.403 . S
C1095 C1096 1.524 . S
C1095 C1099 1.400 . S
C1096 H1081 0.960 . S
C1096 H1082 0.960 . S
C1096 H1083 0.960 . S
C1096 C1095 1.524 . S
C1097 C1094 1.403 . S
C1097 C1098 1.392 . S
C1097 C1101 1.495 . S
C1098 C1097 1.392 . S
C1098 C1099 1.385 . S
C1098 C1100 1.478 . S
C1099 H1093 0.930 . S
C1099 C1095 1.400 . S
C1099 C1098 1.385 . S
C1100 C1098 1.478 . S
C1100 C1102 1.381 . S
C1100 C1106 1.383 . S
C1101 C1097 1.495 . S
C1101 H1107 0.959 . S
C1101 H1108 0.961 . S
C1101 H1109 0.960 . S
C1102 C1100 1.381 . S
C1102 C1103 1.394 . S
C1102 H1110 0.930 . S
C1103 C1102 1.394 . S
C1103 C1104 1.383 . S
C1103 H1111 0.929 . S
C1104 C1103 1.383 . S
C1104 C1105 1.377 . S
C1105 H1089 0.930 . S
C1105 C1104 1.377 . S
C1105 C1106 1.379 . S
C1106 H1090 0.931 . S
C1106 C1100 1.383 . S
C1106 C1105 1.379 . S
H1107 C1101 0.959 . S
H1108 C1101 0.961 . S
H1109 C1101 0.960 . S
H1110 C1102 0.930 . S
H1111 C1103 0.929 . S
C257 C5 0.873 . S
C276 C103 1.008 . S
C293 C18 1.545 . S
C312 C147 1.570 1_556 S
C348 C177 1.882 . S
C329 C30 1.886 . S
C365 C41 2.402 . S
C384 C218 2.374 . S
C420 C134 0.996 . S
C401 C7 0.969 . S
C456 C98 2.747 . S
C437 C16 2.628 . S
C492 C226 1.175 . S
C473 C29 1.149 . S
C528 C187 1.665 . S
C509 C38 1.368 . S
C545 C8 0.802 . S
C564 C223 0.817 . S
C600 C137 2.189 1_556 S
C581 C27 2.047 . S
C617 C40 2.166 . S
C636 C106 2.149 . S
C653 C19 1.767 . S
C672 C174 1.733 . S
C708 C94 0.994 . S
C689 C51 0.921 . S
C725 C62 1.752 . S
C744 C138 1.711 . S
C761 C74 2.062 . S
C780 C186 2.061 . S
C797 C84 2.342 . S
C816 C227 2.349 . S
C833 C49 0.965 . S
C852 C143 1.171 . S
C888 C107 2.602 . S
C869 C63 2.609 . S
C924 C217 1.063 . S
C905 C71 0.995 . S
C960 C178 1.821 . S
C941 C85 1.858 . S
C977 C52 0.706 . S
C996 C214 0.695 . S
C1032 C146 2.191 . S
C1013 C73 2.278 . S
C1068 C97 1.755 . S
C1049 C82 1.683 . S
C1085 C60 1.779 . S
C1104 C183 1.915 . S
