# Generated by pormake.
# Topology soc, (4,6)-cn, num edge types: 1
# Building blocks:
#     Node 0, Type 0, BuildingBlock: ESEHIV_clean_sbu_0, # of connection points: 4
#     Node 1, Type 0, BuildingBlock: ESEHIV_clean_sbu_0, # of connection points: 4
#     Node 2, Type 0, BuildingBlock: ESEHIV_clean_sbu_0, # of connection points: 4
#     Node 3, Type 0, BuildingBlock: ESEHIV_clean_sbu_0, # of connection points: 4
#     Node 4, Type 0, BuildingBlock: ESEHIV_clean_sbu_0, # of connection points: 4
#     Node 5, Type 0, BuildingBlock: ESEHIV_clean_sbu_0, # of connection points: 4
#     Node 6, Type 0, BuildingBlock: ESEHIV_clean_sbu_0, # of connection points: 4
#     Node 7, Type 0, BuildingBlock: ESEHIV_clean_sbu_0, # of connection points: 4
#     Node 8, Type 0, BuildingBlock: ESEHIV_clean_sbu_0, # of connection points: 4
#     Node 9, Type 0, BuildingBlock: ESEHIV_clean_sbu_0, # of connection points: 4
#     Node 10, Type 0, BuildingBlock: ESEHIV_clean_sbu_0, # of connection points: 4
#     Node 11, Type 0, BuildingBlock: ESEHIV_clean_sbu_0, # of connection points: 4
#     Node 12, Type 1, BuildingBlock: BETDIP_clean_sbu_0, # of connection points: 6
#     Node 13, Type 1, BuildingBlock: BETDIP_clean_sbu_0, # of connection points: 6
#     Node 14, Type 1, BuildingBlock: BETDIP_clean_sbu_0, # of connection points: 6
#     Node 15, Type 1, BuildingBlock: BETDIP_clean_sbu_0, # of connection points: 6
#     Node 16, Type 1, BuildingBlock: BETDIP_clean_sbu_0, # of connection points: 6
#     Node 17, Type 1, BuildingBlock: BETDIP_clean_sbu_0, # of connection points: 6
#     Node 18, Type 1, BuildingBlock: BETDIP_clean_sbu_0, # of connection points: 6
#     Node 19, Type 1, BuildingBlock: BETDIP_clean_sbu_0, # of connection points: 6
#     Edge 20, Type (0, 1), BuildingBlock: ZUJKAS_clean_linker_0, # of connection points: 2
#     Edge 21, Type (0, 1), BuildingBlock: ZUJKAS_clean_linker_0, # of connection points: 2
#     Edge 22, Type (0, 1), BuildingBlock: ZUJKAS_clean_linker_0, # of connection points: 2
#     Edge 23, Type (0, 1), BuildingBlock: ZUJKAS_clean_linker_0, # of connection points: 2
#     Edge 24, Type (0, 1), BuildingBlock: ZUJKAS_clean_linker_0, # of connection points: 2
#     Edge 25, Type (0, 1), BuildingBlock: ZUJKAS_clean_linker_0, # of connection points: 2
#     Edge 26, Type (0, 1), BuildingBlock: ZUJKAS_clean_linker_0, # of connection points: 2
#     Edge 27, Type (0, 1), BuildingBlock: ZUJKAS_clean_linker_0, # of connection points: 2
#     Edge 28, Type (0, 1), BuildingBlock: ZUJKAS_clean_linker_0, # of connection points: 2
#     Edge 29, Type (0, 1), BuildingBlock: ZUJKAS_clean_linker_0, # of connection points: 2
#     Edge 30, Type (0, 1), BuildingBlock: ZUJKAS_clean_linker_0, # of connection points: 2
#     Edge 31, Type (0, 1), BuildingBlock: ZUJKAS_clean_linker_0, # of connection points: 2
#     Edge 32, Type (0, 1), BuildingBlock: ZUJKAS_clean_linker_0, # of connection points: 2
#     Edge 33, Type (0, 1), BuildingBlock: ZUJKAS_clean_linker_0, # of connection points: 2
#     Edge 34, Type (0, 1), BuildingBlock: ZUJKAS_clean_linker_0, # of connection points: 2
#     Edge 35, Type (0, 1), BuildingBlock: ZUJKAS_clean_linker_0, # of connection points: 2
#     Edge 36, Type (0, 1), BuildingBlock: ZUJKAS_clean_linker_0, # of connection points: 2
#     Edge 37, Type (0, 1), BuildingBlock: ZUJKAS_clean_linker_0, # of connection points: 2
#     Edge 38, Type (0, 1), BuildingBlock: ZUJKAS_clean_linker_0, # of connection points: 2
#     Edge 39, Type (0, 1), BuildingBlock: ZUJKAS_clean_linker_0, # of connection points: 2
#     Edge 40, Type (0, 1), BuildingBlock: ZUJKAS_clean_linker_0, # of connection points: 2
#     Edge 41, Type (0, 1), BuildingBlock: ZUJKAS_clean_linker_0, # of connection points: 2
#     Edge 42, Type (0, 1), BuildingBlock: ZUJKAS_clean_linker_0, # of connection points: 2
#     Edge 43, Type (0, 1), BuildingBlock: ZUJKAS_clean_linker_0, # of connection points: 2
#     Edge 44, Type (0, 1), BuildingBlock: ZUJKAS_clean_linker_0, # of connection points: 2
#     Edge 45, Type (0, 1), BuildingBlock: ZUJKAS_clean_linker_0, # of connection points: 2
#     Edge 46, Type (0, 1), BuildingBlock: ZUJKAS_clean_linker_0, # of connection points: 2
#     Edge 47, Type (0, 1), BuildingBlock: ZUJKAS_clean_linker_0, # of connection points: 2
#     Edge 48, Type (0, 1), BuildingBlock: ZUJKAS_clean_linker_0, # of connection points: 2
#     Edge 49, Type (0, 1), BuildingBlock: ZUJKAS_clean_linker_0, # of connection points: 2
#     Edge 50, Type (0, 1), BuildingBlock: ZUJKAS_clean_linker_0, # of connection points: 2
#     Edge 51, Type (0, 1), BuildingBlock: ZUJKAS_clean_linker_0, # of connection points: 2
#     Edge 52, Type (0, 1), BuildingBlock: ZUJKAS_clean_linker_0, # of connection points: 2
#     Edge 53, Type (0, 1), BuildingBlock: ZUJKAS_clean_linker_0, # of connection points: 2
#     Edge 54, Type (0, 1), BuildingBlock: ZUJKAS_clean_linker_0, # of connection points: 2
#     Edge 55, Type (0, 1), BuildingBlock: ZUJKAS_clean_linker_0, # of connection points: 2
#     Edge 56, Type (0, 1), BuildingBlock: ZUJKAS_clean_linker_0, # of connection points: 2
#     Edge 57, Type (0, 1), BuildingBlock: ZUJKAS_clean_linker_0, # of connection points: 2
#     Edge 58, Type (0, 1), BuildingBlock: ZUJKAS_clean_linker_0, # of connection points: 2
#     Edge 59, Type (0, 1), BuildingBlock: ZUJKAS_clean_linker_0, # of connection points: 2
#     Edge 60, Type (0, 1), BuildingBlock: ZUJKAS_clean_linker_0, # of connection points: 2
#     Edge 61, Type (0, 1), BuildingBlock: ZUJKAS_clean_linker_0, # of connection points: 2
#     Edge 62, Type (0, 1), BuildingBlock: ZUJKAS_clean_linker_0, # of connection points: 2
#     Edge 63, Type (0, 1), BuildingBlock: ZUJKAS_clean_linker_0, # of connection points: 2
#     Edge 64, Type (0, 1), BuildingBlock: ZUJKAS_clean_linker_0, # of connection points: 2
#     Edge 65, Type (0, 1), BuildingBlock: ZUJKAS_clean_linker_0, # of connection points: 2
#     Edge 66, Type (0, 1), BuildingBlock: ZUJKAS_clean_linker_0, # of connection points: 2
#     Edge 67, Type (0, 1), BuildingBlock: ZUJKAS_clean_linker_0, # of connection points: 2
# Relax obj value: 0.191
# Max RMSD: 0.249
# Mean RMSD: 0.183
data_MOF--net-soc--node1-ESEHIV_clean_sbu_0--node2-BETDIP_clean_sbu_0--edge1-ZUJKAS_clean_linker_0
_symmetry_space_group_name_H-M    P1
_symmetry_Int_Tables_number       1
_symmetry_cell_setting            triclinic
loop_
_symmetry_equiv_pos_as_xyz
'x, y, z'
_cell_length_a     56.256057
_cell_length_b     67.469181
_cell_length_c     55.447604
_cell_angle_alpha  91.824781
_cell_angle_beta   91.638489
_cell_angle_gamma 73.079379
loop_
_atom_site_label
_atom_site_type_symbol
_atom_site_fract_x
_atom_site_fract_y
_atom_site_fract_z
_atom_type_partial_charge
Cu0 Cu 0.07162 0.04601 0.33739 0.0
N1 N 0.08916 0.05837 0.35913 0.0
N2 N 0.11191 0.07908 0.37157 0.0
C3 C 0.1044 0.06924 0.35257 0.0
C4 C 0.10095 0.0741 0.39091 0.0
C5 C 0.08684 0.06139 0.38316 0.0
O6 O 0.09597 0.02724 0.3166 0.0
C7 C 1.03349 0.0693 0.30357 0.0
O8 O 1.03375 0.05186 0.2922 0.0
H9 H 0.10847 0.07099 0.33393 0.0
H10 H 0.07474 0.05573 0.39411 0.0
N11 N 0.05469 0.03067 0.35381 0.0
N12 N 1.02871 0.01195 0.36053 0.0
C13 C 1.03415 0.02576 0.34612 0.0
C14 C 0.06246 0.01975 0.37386 0.0
C15 C 0.04642 1.00832 0.37816 0.0
C16 C 0.09191 0.01179 0.30528 0.0
O17 O 0.06939 1.00975 0.30488 0.0
H18 H 1.02445 0.03112 0.32938 0.0
H19 H 0.07931 0.01931 0.38398 0.0
O20 O 0.04819 0.06913 0.32146 0.0
H21 H 0.10228 0.07978 0.40922 0.0
H22 H 0.04828 0.99763 0.3927 0.0
Cu23 Cu 1.03469 0.05573 0.7046 0.0
N24 N 1.02133 0.03731 0.68703 0.0
N25 N 1.00327 0.01204 0.68094 0.0
C26 C 1.00878 0.02557 0.69704 0.0
C27 C 1.01282 0.01545 0.65991 0.0
C28 C 1.02401 0.03102 0.66374 0.0
O29 O 1.00868 0.07495 0.7231 0.0
C30 C 0.08099 0.02897 0.71251 0.0
O31 O 0.08155 0.03212 0.6893 0.0
H32 H 1.00483 0.02637 0.71609 0.0
H33 H 1.0341 0.0368 0.65069 0.0
N34 N 0.04781 0.07203 0.68536 0.0
N35 N 0.06975 0.09365 0.67681 0.0
C36 C 0.06472 0.08134 0.69345 0.0
C37 C 1.04164 0.07873 0.6628 0.0
C38 C 0.05522 0.09207 0.65744 0.0
C39 C 0.98834 0.0831 0.71175 0.0
O40 O 0.98576 0.07693 0.68937 0.0
H41 H 0.07237 0.07971 0.71165 0.0
H42 H 1.02775 0.07474 0.65135 0.0
O43 O 0.0616 0.03855 0.7241 0.0
H44 H 1.01214 1.00712 0.64303 0.0
H45 H 0.05416 0.10016 0.64072 0.0
Cu46 Cu 0.26558 0.10145 0.01814 0.0
N47 N 0.23751 0.09415 1.00751 0.0
N48 N 0.2148 0.07269 0.99837 0.0
C49 C 0.23469 0.07532 0.01063 0.0
C50 C 0.20451 0.0907 0.98706 0.0
C51 C 0.21851 0.10401 0.9929 0.0
O52 O 0.28726 0.07653 0.03273 0.0
C53 C 0.26985 0.12886 0.98313 0.0
O54 O 0.24933 0.13997 0.99337 0.0
H55 H 0.24826 0.06306 0.01994 0.0
H56 H 0.21584 0.11927 0.98584 0.0
N57 N 0.25682 0.12275 0.04133 0.0
N58 N 0.25972 0.14406 0.07202 0.0
C59 C 0.27193 0.12765 0.05824 0.0
C60 C 0.23431 0.13645 0.0446 0.0
C61 C 0.23609 0.14975 0.06348 0.0
C62 C 0.28221 0.07211 0.0538 0.0
O63 O 0.26434 0.08541 0.06567 0.0
H64 H 0.29147 0.1194 0.06031 0.0
H65 H 0.21781 0.13676 0.03393 0.0
O66 O 0.28058 0.11085 0.99103 0.0
H67 H 0.18891 0.09359 0.97445 0.0
H68 H 0.22114 0.16238 0.07064 0.0
Cu69 Cu 0.04633 0.3291 0.01764 0.0
N70 N 0.06149 0.34613 1.00193 0.0
N71 N 0.08623 0.35491 0.976 0.0
C72 C 0.07426 0.34097 0.98138 0.0
C73 C 0.08045 0.36956 0.9938 0.0
C74 C 0.06516 0.3641 0.00977 0.0
O75 O 0.07034 0.31357 0.04204 0.0
C76 C 1.01302 0.30895 0.99362 0.0
O77 O 1.00393 0.30873 0.01512 0.0
H78 H 0.07611 0.32651 0.97153 0.0
H79 H 0.05813 0.37215 0.02644 0.0
N80 N 1.01936 0.34499 0.03522 0.0
N81 N 0.98867 0.35169 0.06177 0.0
C82 C 1.01031 0.3383 0.05456 0.0
C83 C 1.00313 0.36341 0.03006 0.0
C84 C 0.98415 0.36761 0.04644 0.0
C85 C 0.09389 0.30972 0.04046 0.0
O86 O 0.10316 0.3122 0.01969 0.0
H87 H 1.01868 0.3232 0.06209 0.0
H88 H 1.00448 0.37269 0.01488 0.0
O89 O 1.03273 0.31452 0.99173 0.0
H90 H 0.08734 0.38294 0.99559 0.0
H91 H 0.96799 0.38107 0.04659 0.0
Cu92 Cu 0.79101 0.01103 1.00473 0.0
N93 N 0.7799 0.03826 0.99444 0.0
N94 N 0.77922 0.06946 0.98172 0.0
C95 C 0.79357 0.05089 0.9892 0.0
C96 C 0.75567 0.06833 0.98181 0.0
C97 C 0.75618 0.04903 0.98952 0.0
O98 O 0.82651 1.00295 0.01281 0.0
C99 C 0.79732 0.97398 0.977 0.0
O100 O 0.81329 0.96601 0.99437 0.0
H101 H 0.81364 0.04632 0.98995 0.0
H102 H 0.74038 0.04313 0.99107 0.0
N103 N 0.773 1.00763 0.03128 0.0
N104 N 0.76361 0.99487 0.06527 0.0
C105 C 0.77936 0.9918 0.04661 0.0
C106 C 0.75255 0.02118 0.04047 0.0
C107 C 0.7467 0.01336 0.06137 0.0
C108 C 0.84071 0.01214 0.02385 0.0
O109 O 0.86466 1.00258 0.02478 0.0
H110 H 0.79545 0.97849 0.04422 0.0
H111 H 0.74308 0.03611 0.03316 0.0
O112 O 0.78548 0.99318 0.9782 0.0
H113 H 0.73926 0.08055 0.97663 0.0
H114 H 0.73169 0.02112 0.0732 0.0
Cu115 Cu 0.05013 0.77373 0.01458 0.0
N116 N 1.03552 0.75605 0.99692 0.0
N117 N 1.01178 0.74613 0.96869 0.0
C118 C 1.02171 0.7612 0.97656 0.0
C119 C 1.01999 0.73075 0.9846 0.0
C120 C 1.03465 0.73689 1.00193 0.0
O121 O 1.02569 0.78971 0.03812 0.0
C122 C 0.07563 0.80093 0.99228 0.0
O123 O 0.07707 0.80974 0.01353 0.0
H124 H 1.01805 0.77619 0.96842 0.0
H125 H 1.04354 0.72811 0.01732 0.0
N126 N 0.07697 0.75849 0.03347 0.0
N127 N 0.11156 0.75216 0.05657 0.0
C128 C 0.09858 0.76293 0.03794 0.0
C129 C 0.07638 0.74428 0.04974 0.0
C130 C 0.0977 0.74024 0.06388 0.0
C131 C 1.00216 0.79366 0.03529 0.0
O132 O 0.99302 0.79091 0.01381 0.0
H133 H 0.10377 0.77503 0.02908 0.0
H134 H 0.06069 0.73849 0.05249 0.0
O135 O 0.06344 0.78772 0.98989 0.0
H136 H 1.01549 0.7162 0.98397 0.0
H137 H 0.10196 0.73017 0.0792 0.0
Cu138 Cu 0.53696 0.55933 0.82956 0.0
N139 N 0.55104 0.5738 0.85209 0.0
N140 N 0.5708 0.59637 0.86565 0.0
C141 C 0.55742 0.59097 0.84736 0.0
C142 C 0.57286 0.58201 0.88262 0.0
C143 C 0.5606 0.56808 0.87418 0.0
O144 O 0.56478 0.5404 0.81314 0.0
C145 C 0.4927 0.58018 0.80326 0.0
O146 O 0.48531 0.56395 0.80781 0.0
H147 H 0.55371 0.59854 0.83016 0.0
H148 H 0.55975 0.55424 0.883 0.0
N149 N 0.51945 0.54396 0.84506 0.0
N150 N 0.50065 0.51966 0.85154 0.0
C151 C 0.51542 0.5262 0.83682 0.0
C152 C 0.50701 0.5488 0.8658 0.0
C153 C 0.49539 0.53385 0.86986 0.0
C154 C 0.56445 0.53006 0.79364 0.0
O155 O 0.54349 0.53274 0.78134 0.0
H156 H 0.52238 0.51872 0.81984 0.0
H157 H 0.50609 0.56245 0.87693 0.0
O158 O 0.51471 0.58017 0.80932 0.0
H159 H 0.58312 0.58125 0.89954 0.0
H160 H 0.48386 0.53356 0.88506 0.0
Cu161 Cu 0.56752 0.54235 0.19416 0.0
N162 N 0.54962 0.52712 0.17681 0.0
N163 N 0.52353 0.50781 0.17165 0.0
C164 C 0.53294 0.51953 0.18717 0.0
C165 C 0.53496 0.508 0.15058 0.0
C166 C 0.55113 0.51988 0.15384 0.0
O167 O 0.54409 0.56237 0.2145 0.0
C168 C 0.6101 0.5103 0.19776 0.0
O169 O 0.6084 0.51352 0.17444 0.0
H170 H 0.52868 0.52196 0.20613 0.0
H171 H 0.56362 0.52243 0.14064 0.0
N172 N 0.58187 0.55775 0.17492 0.0
N173 N 0.60284 0.58015 0.16683 0.0
C174 C 0.59649 0.56892 0.18389 0.0
C175 C 0.57871 0.56206 0.15129 0.0
C176 C 0.59183 0.57579 0.14621 0.0
C177 C 0.52504 0.57328 0.20305 0.0
O178 O 0.52307 0.56974 0.17974 0.0
H179 H 0.60196 0.56904 0.20275 0.0
H180 H 0.56697 0.55635 0.13884 0.0
O181 O 0.59381 0.52219 0.21134 0.0
H182 H 0.53223 0.4999 0.13406 0.0
H183 H 0.5923 0.58273 0.12896 0.0
Cu184 Cu 0.77372 0.59824 0.49848 0.0
N185 N 0.76802 0.61754 0.47405 0.0
N186 N 0.77195 0.63571 0.44224 0.0
C187 C 0.78334 0.61994 0.45686 0.0
C188 C 0.74873 0.64349 0.45074 0.0
C189 C 0.7464 0.63226 0.47031 0.0
O190 O 0.77097 0.61297 0.52962 0.0
C191 C 0.74755 0.57546 0.47221 0.0
O192 O 0.75589 0.58385 0.45447 0.0
H193 H 0.80228 0.61021 0.455 0.0
H194 H 0.73009 0.63464 0.48117 0.0
N195 N 0.80527 0.57934 0.49725 0.0
N196 N 0.8318 0.54828 0.50479 0.0
C197 C 0.80856 0.55883 0.4978 0.0
C198 C 0.82743 0.58198 0.50364 0.0
C199 C 0.84387 0.56278 0.5084 0.0
C200 C 0.78087 0.62773 0.53171 0.0
O201 O 0.79168 0.63242 0.51291 0.0
H202 H 0.79335 0.55204 0.49638 0.0
H203 H 0.8307 0.59684 0.50712 0.0
O204 O 0.75115 0.58116 0.49383 0.0
H205 H 0.73454 0.65663 0.44363 0.0
H206 H 0.86244 0.55995 0.51605 0.0
Cu207 Cu 0.55194 0.80774 0.51741 0.0
N208 N 0.5689 0.82353 0.50108 0.0
N209 N 0.59464 0.83107 0.47476 0.0
C210 C 0.58266 0.8173 0.48111 0.0
C211 C 0.58787 0.84665 0.49144 0.0
C212 C 0.57214 0.84194 0.50759 0.0
O213 O 0.57405 0.79191 0.54203 0.0
C214 C 0.52453 0.78184 0.4959 0.0
O215 O 0.51902 0.77868 0.51803 0.0
H216 H 0.5842 0.80266 0.47179 0.0
H217 H 0.56426 0.85101 0.52341 0.0
N218 N 0.52389 0.82364 0.53433 0.0
N219 N 0.49185 0.83056 0.55971 0.0
C220 C 0.51266 0.81635 0.55181 0.0
C221 C 0.50982 0.84328 0.53115 0.0
C222 C 0.49013 0.84761 0.54683 0.0
C223 C 0.59758 0.78538 0.54052 0.0
O224 O 0.6079 0.78598 0.51972 0.0
H225 H 0.51958 0.80078 0.55849 0.0
H226 H 0.51327 0.85355 0.51799 0.0
O227 O 0.54012 0.79182 0.49257 0.0
H228 H 0.5945 0.86018 0.49256 0.0
H229 H 0.47525 0.86198 0.54802 0.0
Cu230 Cu 0.33808 0.49002 0.51581 0.0
N231 N 0.36329 0.49628 0.49932 0.0
N232 N 0.38106 0.5162 0.4792 0.0
C233 C 0.36335 0.51574 0.49486 0.0
C234 C 0.39271 0.49617 0.47358 0.0
C235 C 0.38172 0.48388 0.48611 0.0
O236 O 0.32129 0.51508 0.53361 0.0
C237 C 0.32427 0.46364 0.48289 0.0
O238 O 0.34585 0.4515 0.49026 0.0
H239 H 0.34941 0.52934 0.50157 0.0
H240 H 0.38598 0.46719 0.48466 0.0
N241 N 0.35024 0.46881 0.53773 0.0
N242 N 0.35047 0.44758 0.56792 0.0
C243 C 0.33644 0.46257 0.55363 0.0
C244 C 0.37384 0.45741 0.54197 0.0
C245 C 0.37404 0.44429 0.56061 0.0
C246 C 0.33318 0.51973 0.55173 0.0
O247 O 0.35471 0.50682 0.55795 0.0
H248 H 0.31656 0.46936 0.55506 0.0
H249 H 0.38976 0.45873 0.53239 0.0
O250 O 0.31645 0.4818 0.49219 0.0
H251 H 0.40742 0.49083 0.46066 0.0
H252 H 0.39029 0.43316 0.56811 0.0
Cu253 Cu 0.54792 0.27635 0.5202 0.0
N254 N 0.56975 0.25954 0.49808 0.0
N255 N 0.59941 0.25026 0.47047 0.0
C256 C 0.58704 0.26524 0.48608 0.0
C257 C 0.58933 0.23454 0.47272 0.0
C258 C 0.571 0.24033 0.48974 0.0
O259 O 0.567 0.29241 0.53876 0.0
C260 C 0.5046 0.28023 0.49273 0.0
O261 O 0.50996 0.2609 0.49945 0.0
H262 H 0.58997 0.28035 0.48837 0.0
H263 H 0.55922 0.23129 0.49538 0.0
N264 N 0.53833 0.26014 0.54271 0.0
N265 N 0.51789 0.25131 0.57265 0.0
C266 C 0.51858 0.26624 0.55722 0.0
C267 C 0.55055 0.2407 0.54915 0.0
C268 C 0.538 0.23521 0.56759 0.0
C269 C 0.58759 0.28126 0.54781 0.0
O270 O 0.5937 0.26115 0.54368 0.0
H271 H 0.50539 0.28155 0.55689 0.0
H272 H 0.56766 0.23129 0.54132 0.0
O273 O 0.5185 0.29116 0.5006 0.0
H274 H 0.59476 0.2199 0.46281 0.0
H275 H 0.54327 0.2205 0.57655 0.0
Tb276 Tb 0.26939 0.30517 0.28494 0.0
Tb277 Tb 0.31212 0.31442 0.25697 0.0
C278 C 0.22927 0.29761 0.29286 0.0
C279 C 0.22206 0.28031 0.30264 0.0
C280 C 0.19729 0.28012 0.30043 0.0
C281 C 0.19029 0.26325 0.30841 0.0
C282 C 0.208 0.24626 0.31875 0.0
C283 C 0.23282 0.24666 0.32126 0.0
C284 C 0.23982 0.26354 0.31315 0.0
C285 C 0.31023 0.29984 0.31304 0.0
C286 C 0.31083 0.26872 0.25877 0.0
C287 C 0.34683 0.32647 0.24146 0.0
C288 C 0.3584 0.34336 0.24502 0.0
C289 C 0.38439 0.33853 0.24566 0.0
C290 C 0.39592 0.35422 0.24464 0.0
C291 C 0.38161 0.37501 0.24268 0.0
C292 C 0.35559 0.37994 0.24343 0.0
C293 C 0.34406 0.36426 0.24474 0.0
C294 C 0.27334 0.31069 0.23094 0.0
C295 C 0.27529 0.34965 0.28906 0.0
O296 O 0.24055 0.29366 0.27213 0.0
O297 O 0.2398 0.30788 0.30814 0.0
O298 O 0.30659 0.30491 0.29137 0.0
O299 O 0.28982 0.29653 0.31976 0.0
O300 O 0.28829 0.27535 0.26796 0.0
O301 O 0.32523 0.28088 0.25602 0.0
O302 O 0.35006 0.31287 0.25858 0.0
O303 O 0.32427 0.33159 0.23208 0.0
O304 O 0.27265 0.31937 0.25162 0.0
O305 O 0.29611 0.30486 0.22393 0.0
O306 O 0.29734 0.34251 0.279 0.0
O307 O 0.25942 0.33858 0.28976 0.0
H308 H 0.18339 0.29294 0.29228 0.0
H309 H 0.17098 0.26351 0.30651 0.0
H310 H 0.2469 0.23372 0.32893 0.0
H311 H 0.25912 0.26339 0.31477 0.0
H312 H 0.39577 0.32252 0.24579 0.0
H313 H 0.41601 0.34999 0.24396 0.0
H314 H 0.34416 0.39588 0.24224 0.0
H315 H 0.32394 0.36845 0.24444 0.0
Tb316 Tb 0.81337 0.30146 0.28567 0.0
Tb317 Tb 0.79949 0.27056 0.2505 0.0
C318 C 0.8164 0.33069 0.3136 0.0
C319 C 0.80405 0.34592 0.33234 0.0
C320 C 0.77875 0.35715 0.33076 0.0
C321 C 0.76879 0.37367 0.34702 0.0
C322 C 0.78407 0.3793 0.36489 0.0
C323 C 0.80903 0.36735 0.36706 0.0
C324 C 0.81888 0.35084 0.35098 0.0
C325 C 0.8472 0.26516 0.27985 0.0
C326 C 0.77647 0.2775 0.30307 0.0
C327 C 0.79453 0.2384 0.22938 0.0
C328 C 0.79514 0.22724 0.2058 0.0
C329 C 0.81778 0.2148 0.19649 0.0
C330 C 0.81806 0.20123 0.17682 0.0
C331 C 0.79572 0.19965 0.166 0.0
C332 C 0.77314 0.21282 0.1746 0.0
C333 C 0.77285 0.22637 0.19432 0.0
C334 C 0.77421 0.30979 0.2452 0.0
C335 C 0.83328 0.2965 0.23296 0.0
O336 O 0.80727 0.33331 0.29147 0.0
O337 O 0.82442 0.31115 0.31946 0.0
O338 O 0.82411 0.26853 0.28066 0.0
O339 O 0.85238 0.28246 0.28374 0.0
O340 O 0.78676 0.29259 0.30762 0.0
O341 O 0.77983 0.26651 0.28255 0.0
O342 O 0.81567 0.24006 0.23849 0.0
O343 O 0.77589 0.25501 0.23355 0.0
O344 O 0.78147 0.30077 0.26468 0.0
O345 O 0.77971 0.29636 0.2274 0.0
O346 O 0.82875 0.27828 0.23105 0.0
O347 O 0.82506 0.30961 0.25121 0.0
H348 H 0.76694 0.35368 0.3165 0.0
H349 H 0.74951 0.38266 0.34488 0.0
H350 H 0.82116 0.37113 0.38084 0.0
H351 H 0.83844 0.34241 0.35252 0.0
H352 H 0.83532 0.2148 0.20507 0.0
H353 H 0.8358 0.19118 0.17095 0.0
H354 H 0.75559 0.21225 0.1665 0.0
H355 H 0.7551 0.23555 0.2012 0.0
Tb356 Tb 0.82534 0.80857 0.27285 0.0
Tb357 Tb 0.78282 0.80232 0.24456 0.0
C358 C 0.86316 0.81803 0.28854 0.0
C359 C 0.87309 0.83592 0.28921 0.0
C360 C 0.89883 0.83244 0.29126 0.0
C361 C 0.90874 0.84906 0.29461 0.0
C362 C 0.89305 0.86953 0.29612 0.0
C363 C 0.86724 0.87302 0.29299 0.0
C364 C 0.85733 0.85634 0.28955 0.0
C365 C 0.78642 0.80888 0.29879 0.0
C366 C 0.7876 0.84643 0.24599 0.0
C367 C 0.74465 0.79279 0.2301 0.0
C368 C 0.73711 0.77374 0.22671 0.0
C369 C 0.71221 0.77463 0.22991 0.0
C370 C 0.70432 0.75698 0.2258 0.0
C371 C 0.7212 0.73814 0.21828 0.0
C372 C 0.74627 0.73721 0.21548 0.0
C373 C 0.75421 0.75485 0.2198 0.0
C374 C 0.82142 0.80221 0.2183 0.0
C375 C 0.82076 0.76413 0.27122 0.0
O376 O 0.86206 0.809 0.26749 0.0
O377 O 0.84331 0.82 0.30116 0.0
O378 O 0.7858 0.81715 0.27853 0.0
O379 O 0.80936 0.80093 0.3055 0.0
O380 O 0.81046 0.83806 0.2544 0.0
O381 O 0.77133 0.83576 0.24455 0.0
O382 O 0.74817 0.79837 0.25239 0.0
O383 O 0.76181 0.79486 0.21581 0.0
O384 O 0.82235 0.79395 0.23864 0.0
O385 O 0.79839 0.80966 0.2116 0.0
O386 O 0.79867 0.77209 0.26092 0.0
O387 O 0.83647 0.77516 0.27492 0.0
H388 H 0.91127 0.81678 0.2909 0.0
H389 H 0.92872 0.84585 0.29642 0.0
H390 H 0.85463 0.88857 0.29415 0.0
H391 H 0.83737 0.85935 0.28793 0.0
H392 H 0.69878 0.78907 0.23527 0.0
H393 H 0.68485 0.75822 0.2279 0.0
H394 H 0.75974 0.72284 0.20999 0.0
H395 H 0.7736 0.75378 0.21748 0.0
Tb396 Tb 0.30428 0.7786 0.27532 0.0
Tb397 Tb 0.32706 0.80866 0.25254 0.0
C398 C 0.29458 0.74945 0.29629 0.0
C399 C 0.30588 0.73311 0.31354 0.0
C400 C 0.33177 0.72534 0.31678 0.0
C401 C 0.34188 0.70852 0.33184 0.0
C402 C 0.32624 0.69924 0.34375 0.0
C403 C 0.30034 0.70762 0.34099 0.0
C404 C 0.2903 0.72436 0.32602 0.0
C405 C 0.27556 0.81716 0.27319 0.0
C406 C 0.34371 0.7956 0.30499 0.0
C407 C 0.33646 0.83862 0.23296 0.0
C408 C 0.33016 0.85273 0.21244 0.0
C409 C 0.30555 0.86365 0.2062 0.0
C410 C 0.30071 0.87857 0.18823 0.0
C411 C 0.32039 0.88282 0.17625 0.0
C412 C 0.34491 0.87136 0.18218 0.0
C413 C 0.34969 0.85652 0.20004 0.0
C414 C 0.35609 0.77029 0.25477 0.0
C415 C 0.29078 0.78843 0.22152 0.0
O416 O 0.30482 0.74749 0.27512 0.0
O417 O 0.28835 0.76858 0.30469 0.0
O418 O 0.29854 0.81146 0.27783 0.0
O419 O 0.26756 0.80104 0.27116 0.0
O420 O 0.33366 0.78028 0.30127 0.0
O421 O 0.34044 0.81071 0.28946 0.0
O422 O 0.32001 0.84079 0.24985 0.0
O423 O 0.34818 0.81919 0.22805 0.0
O424 O 0.33306 0.77584 0.25033 0.0
O425 O 0.36399 0.78649 0.25627 0.0
O426 O 0.30049 0.80414 0.22426 0.0
O427 O 0.29278 0.77476 0.23851 0.0
H428 H 0.3441 0.73194 0.30726 0.0
H429 H 0.36189 0.70238 0.33356 0.0
H430 H 0.28778 0.70111 0.35028 0.0
H431 H 0.27029 0.73023 0.3238 0.0
H432 H 0.29012 0.86099 0.21551 0.0
H433 H 0.2816 0.88694 0.18394 0.0
H434 H 0.36056 0.87441 0.17373 0.0
H435 H 0.36882 0.84841 0.20471 0.0
Tb436 Tb 0.294 0.82168 0.78714 0.0
Tb437 Tb 0.27229 0.79171 0.75421 0.0
C438 C 0.29712 0.85412 0.80843 0.0
C439 C 0.29322 0.86341 0.83291 0.0
C440 C 0.27165 0.86427 0.84561 0.0
C441 C 0.26632 0.87595 0.86705 0.0
C442 C 0.28253 0.88688 0.87628 0.0
C443 C 0.30495 0.88474 0.86439 0.0
C444 C 0.31016 0.8732 0.84281 0.0
C445 C 0.31873 0.78184 0.79293 0.0
C446 C 0.25299 0.80238 0.8076 0.0
C447 C 0.26222 0.76434 0.72779 0.0
C448 C 0.27159 0.74829 0.70914 0.0
C449 C 0.297 0.73814 0.70657 0.0
C450 C 0.30475 0.72183 0.68962 0.0
C451 C 0.28719 0.71565 0.67495 0.0
C452 C 0.26186 0.72638 0.67721 0.0
C453 C 0.25418 0.74252 0.69414 0.0
C454 C 0.24634 0.83097 0.75695 0.0
C455 C 0.31679 0.80809 0.73571 0.0
O456 O 0.27713 0.85252 0.79678 0.0
O457 O 0.31635 0.83776 0.80537 0.0
O458 O 0.29972 0.79002 0.78055 0.0
O459 O 0.32442 0.79699 0.80437 0.0
O460 O 0.26474 0.81686 0.80954 0.0
O461 O 0.25565 0.78919 0.78881 0.0
O462 O 0.27189 0.7609 0.74966 0.0
O463 O 0.25794 0.78362 0.72136 0.0
O464 O 0.26963 0.82394 0.75646 0.0
O465 O 0.23664 0.81583 0.75435 0.0
O466 O 0.30487 0.79363 0.73396 0.0
O467 O 0.31313 0.82208 0.75367 0.0
H468 H 0.25831 0.85673 0.83842 0.0
H469 H 0.24882 0.87734 0.8756 0.0
H470 H 0.31809 0.8926 0.87129 0.0
H471 H 0.32697 0.8726 0.83339 0.0
H472 H 0.31074 0.74257 0.71782 0.0
H473 H 0.32441 0.71395 0.68813 0.0
H474 H 0.24782 0.72182 0.66651 0.0
H475 H 0.23448 0.75022 0.69593 0.0
Tb476 Tb 0.33085 0.29119 0.78875 0.0
Tb477 Tb 0.28225 0.28955 0.76588 0.0
C478 C 0.37347 0.29523 0.79723 0.0
C479 C 0.38354 0.31303 0.79946 0.0
C480 C 0.40916 0.30974 0.80272 0.0
C481 C 0.41882 0.32657 0.8059 0.0
C482 C 0.40297 0.34703 0.80589 0.0
C483 C 0.37727 0.35021 0.80223 0.0
C484 C 0.36765 0.33336 0.79909 0.0
C485 C 0.29134 0.3065 0.81555 0.0
C486 C 0.30018 0.32737 0.75433 0.0
C487 C 0.23907 0.28663 0.75815 0.0
C488 C 0.22779 0.2698 0.75276 0.0
C489 C 0.20376 0.27174 0.76062 0.0
C490 C 0.19212 0.25652 0.75445 0.0
C491 C 0.20426 0.23909 0.74013 0.0
C492 C 0.22864 0.23699 0.73277 0.0
C493 C 0.24033 0.25215 0.73911 0.0
C494 C 0.32121 0.27457 0.73849 0.0
C495 C 0.31397 0.25268 0.79942 0.0
O496 O 0.36547 0.2914 0.7757 0.0
O497 O 0.35809 0.29416 0.81402 0.0
O498 O 0.29245 0.30841 0.79317 0.0
O499 O 0.31328 0.29724 0.82399 0.0
O500 O 0.32184 0.31713 0.76405 0.0
O501 O 0.28012 0.32119 0.75679 0.0
O502 O 0.24879 0.28716 0.77979 0.0
O503 O 0.25309 0.29021 0.7414 0.0
O504 O 0.32061 0.27265 0.76096 0.0
O505 O 0.2989 0.28298 0.73039 0.0
O506 O 0.29216 0.26271 0.78963 0.0
O507 O 0.33367 0.25945 0.79758 0.0
H508 H 0.42167 0.29413 0.80314 0.0
H509 H 0.43864 0.32354 0.80894 0.0
H510 H 0.36458 0.36574 0.80177 0.0
H511 H 0.34778 0.3362 0.79661 0.0
H512 H 0.19385 0.28518 0.77131 0.0
H513 H 0.17357 0.25846 0.76089 0.0
H514 H 0.23851 0.22392 0.72156 0.0
H515 H 0.25897 0.25028 0.73294 0.0
Tb516 Tb 0.78706 0.30344 0.77626 0.0
Tb517 Tb 0.81114 0.32863 0.74736 0.0
C518 C 0.77832 0.27665 0.8021 0.0
C519 C 0.79144 0.26225 0.82089 0.0
C520 C 0.81208 0.24522 0.81551 0.0
C521 C 0.82247 0.23061 0.83306 0.0
C522 C 0.81251 0.23285 0.85629 0.0
C523 C 0.79269 0.25041 0.86194 0.0
C524 C 0.78219 0.26491 0.84437 0.0
C525 C 0.7616 0.34262 0.77356 0.0
C526 C 0.83192 0.31831 0.79952 0.0
C527 C 0.82388 0.35402 0.7221 0.0
C528 C 0.81869 0.36574 0.69954 0.0
C529 C 0.79862 0.38379 0.69724 0.0
C530 C 0.7966 0.39631 0.67716 0.0
C531 C 0.81466 0.39107 0.65912 0.0
C532 C 0.8341 0.37256 0.66108 0.0
C533 C 0.83609 0.3601 0.68105 0.0
C534 C 0.83552 0.28896 0.75004 0.0
C535 C 0.76619 0.31339 0.72393 0.0
O536 O 0.78655 0.27283 0.78007 0.0
O537 O 0.77214 0.29641 0.80798 0.0
O538 O 0.78498 0.33581 0.77566 0.0
O539 O 0.75187 0.32762 0.77564 0.0
O540 O 0.81948 0.30438 0.79899 0.0
O541 O 0.82886 0.33193 0.7822 0.0
O542 O 0.8082 0.35961 0.73982 0.0
O543 O 0.83298 0.33391 0.71982 0.0
O544 O 0.81241 0.29663 0.74757 0.0
O545 O 0.84603 0.30362 0.74983 0.0
O546 O 0.77977 0.32655 0.72327 0.0
O547 O 0.7682 0.30076 0.74215 0.0
H548 H 0.81975 0.24279 0.7976 0.0
H549 H 0.83783 0.21725 0.82828 0.0
H550 H 0.78437 0.25239 0.87957 0.0
H551 H 0.76625 0.27786 0.84894 0.0
H552 H 0.78498 0.38864 0.71127 0.0
H553 H 0.78123 0.41036 0.67606 0.0
H554 H 0.84858 0.36818 0.64781 0.0
H555 H 0.85197 0.34645 0.68253 0.0
Tb556 Tb 0.7697 0.79126 0.77013 0.0
Tb557 Tb 0.8161 0.79805 0.74405 0.0
C558 C 0.72703 0.78895 0.77857 0.0
C559 C 0.716 0.77395 0.78903 0.0
C560 C 0.69472 0.77063 0.77801 0.0
C561 C 0.68378 0.75654 0.78752 0.0
C562 C 0.69384 0.74554 0.80838 0.0
C563 C 0.7153 0.74885 0.81932 0.0
C564 C 0.72634 0.76287 0.80969 0.0
C565 C 0.81209 0.77589 0.79495 0.0
C566 C 0.80286 0.75637 0.73463 0.0
C567 C 0.85468 0.80597 0.73118 0.0
C568 C 0.86941 0.82044 0.73669 0.0
C569 C 0.89456 0.81454 0.73066 0.0
C570 C 0.90765 0.82926 0.73047 0.0
C571 C 0.89574 0.85024 0.73613 0.0
C572 C 0.87098 0.85581 0.74382 0.0
C573 C 0.85794 0.84104 0.74412 0.0
C574 C 0.77457 0.80398 0.7183 0.0
C575 C 0.78534 0.83161 0.7822 0.0
O576 O 0.73799 0.78335 0.75786 0.0
O577 O 0.73957 0.79794 0.79337 0.0
O578 O 0.80819 0.78463 0.77512 0.0
O579 O 0.79072 0.77457 0.80167 0.0
O580 O 0.78136 0.76457 0.74551 0.0
O581 O 0.821 0.7654 0.73491 0.0
O582 O 0.8551 0.79164 0.74683 0.0
O583 O 0.83246 0.81439 0.72188 0.0
O584 O 0.77619 0.80836 0.74052 0.0
O585 O 0.79671 0.79769 0.7097 0.0
O586 O 0.80651 0.82353 0.77077 0.0
O587 O 0.76678 0.82318 0.78094 0.0
H588 H 0.68659 0.77891 0.76194 0.0
H589 H 0.66758 0.7541 0.77832 0.0
H590 H 0.72342 0.74081 0.83552 0.0
H591 H 0.74286 0.76509 0.81846 0.0
H592 H 0.90375 0.79873 0.72486 0.0
H593 H 0.92685 0.82432 0.72501 0.0
H594 H 0.86114 0.8718 0.7482 0.0
H595 H 0.83849 0.84598 0.74878 0.0
H596 H 0.11005 0.11135 0.40292 0.0
H597 H 0.12987 0.13875 0.39842 0.0
H598 H 0.16392 0.10891 0.33295 0.0
H599 H 0.14498 0.08102 0.33779 0.0
H600 H 0.19555 0.12516 0.36186 0.0
H601 H 0.10334 0.18292 0.34763 0.0
H602 H 0.10708 0.16953 0.3756 0.0
H603 H 0.10735 0.15541 0.34752 0.0
C604 C 0.12214 0.11034 0.38782 0.0
C605 C 0.12561 0.09409 0.3705 0.0
C606 C 0.13326 0.12616 0.38516 0.0
C607 C 0.14791 0.12608 0.36508 0.0
C608 C 0.15249 0.10935 0.34847 0.0
H609 H 0.17798 0.22692 0.29428 0.0
H610 H 0.16478 0.19751 0.30703 0.0
C611 C 0.14146 0.09352 0.35116 0.0
C612 C 0.15738 0.14391 0.36051 0.0
H613 H 0.13841 0.19527 0.34727 0.0
C614 C 0.18311 0.14054 0.35881 0.0
C615 C 0.14103 0.16387 0.35621 0.0
C616 C 0.11316 0.16821 0.3566 0.0
C617 C 0.19295 0.15658 0.35272 0.0
C618 C 0.17659 0.17656 0.3486 0.0
C619 C 0.1509 0.17996 0.35058 0.0
C620 C 0.18549 0.19395 0.3409 0.0
C621 C 0.22066 0.15184 0.34993 0.0
C622 C 0.20151 0.20174 0.35575 0.0
C623 C 0.20911 0.21859 0.34848 0.0
C624 C 0.20058 0.22805 0.32637 0.0
C625 C 0.18459 0.22015 0.31156 0.0
C626 C 0.17712 0.20329 0.31877 0.0
H627 H 0.22992 0.13491 0.34824 0.0
H628 H 0.22498 0.15944 0.33383 0.0
H629 H 0.22868 0.15788 0.36607 0.0
H630 H 0.20778 0.19503 0.37312 0.0
H631 H 0.2212 0.2245 0.36038 0.0
H632 H 0.99593 0.076 0.2691 0.0
H633 H 0.96354 0.10859 0.26122 0.0
H634 H 0.99646 0.1399 0.31574 0.0
H635 H 1.02865 0.10764 0.32379 0.0
H636 H 0.94475 0.14584 0.32068 0.0
H637 H 0.96841 0.16176 0.22791 0.0
H638 H 0.96555 0.1363 0.23272 0.0
H639 H 0.99028 0.14412 0.24751 0.0
C640 C 0.99644 0.08987 0.2792 0.0
C641 C 1.0149 0.08914 0.29711 0.0
C642 C 0.97796 0.1085 0.27462 0.0
C643 C 0.97769 0.12669 0.28781 0.0
C644 C 0.99633 0.12605 0.30534 0.0
H645 H 0.8973 0.25613 0.27493 0.0
H646 H 0.92808 0.22183 0.2753 0.0
C647 C 1.01476 0.10755 0.30989 0.0
C648 C 0.95738 0.14623 0.28448 0.0
H649 H 0.93256 0.18503 0.24488 0.0
C650 C 0.94198 0.15436 0.30407 0.0
C651 C 0.95397 0.15737 0.26285 0.0
C652 C 0.97049 0.14961 0.24154 0.0
C653 C 0.92336 0.1734 0.3027 0.0
C654 C 0.91986 0.18452 0.28105 0.0
C655 C 0.93519 0.17638 0.26139 0.0
C656 C 0.90101 0.20504 0.27897 0.0
C657 C 0.90805 0.18175 0.32467 0.0
C658 C 0.87558 0.20692 0.28045 0.0
C659 C 0.85801 0.22647 0.28029 0.0
C660 C 0.86558 0.24446 0.27854 0.0
C661 C 0.89098 0.24252 0.27638 0.0
C662 C 0.90855 0.22295 0.2765 0.0
H663 H 0.91642 0.17347 0.34126 0.0
H664 H 0.90595 0.19853 0.32757 0.0
H665 H 0.88922 0.17984 0.32189 0.0
H666 H 0.86935 0.19328 0.28212 0.0
H667 H 0.83855 0.22752 0.28209 0.0
H668 H 0.98666 0.02433 0.33261 0.0
H669 H 0.95779 1.00431 0.3219 0.0
H670 H 0.99988 0.95494 0.36708 0.0
H671 H 1.029 0.97448 0.37749 0.0
H672 H 0.97127 0.96439 0.29917 0.0
H673 H 0.92763 0.96357 0.3873 0.0
H674 H 0.94402 0.98207 0.38062 0.0
H675 H 0.96097 0.95619 0.38908 0.0
C676 C 0.98978 1.00925 0.34034 0.0
C677 C 1.01031 1.00108 0.35591 0.0
C678 C 0.97316 0.99789 0.33429 0.0
C679 C 0.97653 0.97827 0.34394 0.0
C680 C 0.99662 0.97025 0.35984 0.0
H681 H 0.9298 0.86997 0.32914 0.0
H682 H 0.94749 0.89822 0.33929 0.0
C683 C 1.0133 0.98152 0.36581 0.0
C684 C 0.96028 0.9654 0.33616 0.0
H685 H 0.92372 0.93785 0.35786 0.0
C686 C 0.96049 0.95884 0.31187 0.0
C687 C 0.94628 0.95823 0.3528 0.0
C688 C 0.94447 0.96552 0.37887 0.0
C689 C 0.94819 0.94435 0.30403 0.0
C690 C 0.93499 0.93656 0.3209 0.0
C691 C 0.93394 0.94379 0.34498 0.0
C692 C 0.9238 0.91971 0.31441 0.0
C693 C 0.95049 0.93671 0.27808 0.0
C694 C 0.90445 0.92246 0.29713 0.0
C695 C 0.89444 0.90619 0.29104 0.0
C696 C 0.90356 0.88693 0.30222 0.0
C697 C 0.9227 0.88442 0.31978 0.0
C698 C 0.93267 0.90062 0.3258 0.0
H699 H 0.96527 0.94118 0.26868 0.0
H700 H 0.95463 0.91958 0.27696 0.0
H701 H 0.93261 0.94353 0.26832 0.0
H702 H 0.89707 0.93718 0.2884 0.0
H703 H 0.87975 0.90863 0.27743 0.0
H704 H 0.09 0.97564 0.28268 0.0
H705 H 0.12479 0.94515 0.27346 0.0
H706 H 0.17642 0.97803 0.29829 0.0
H707 H 0.1417 1.0086 0.30788 0.0
H708 H 0.16724 0.93814 0.24415 0.0
H709 H 0.19284 0.92713 0.34152 0.0
H710 H 0.16366 0.94448 0.33134 0.0
H711 H 0.19172 0.95197 0.32997 0.0
C712 C 0.10874 0.97653 0.28591 0.0
C713 C 0.11301 0.99453 0.29628 0.0
C714 C 0.12863 0.95906 0.28061 0.0
C715 C 0.15318 0.95918 0.28562 0.0
C716 C 0.1576 0.97747 0.29472 0.0
H717 H 0.28758 0.85252 0.28678 0.0
H718 H 0.25987 0.88818 0.2875 0.0
C719 C 0.13771 0.99498 0.30004 0.0
C720 C 0.17388 0.93979 0.28248 0.0
H721 H 0.21702 0.90283 0.31403 0.0
C722 C 0.17825 0.93048 0.25939 0.0
C723 C 0.18827 0.92982 0.30239 0.0
C724 C 0.18386 0.93871 0.32776 0.0
C725 C 0.19645 0.91138 0.25571 0.0
C726 C 0.2103 0.90112 0.27573 0.0
C727 C 0.20642 0.91072 0.2987 0.0
C728 C 0.22765 0.87983 0.27358 0.0
C729 C 0.20069 0.90236 0.23041 0.0
C730 C 0.21875 0.8633 0.26564 0.0
C731 C 0.23451 0.84301 0.26517 0.0
C732 C 0.25948 0.83882 0.27275 0.0
C733 C 0.26849 0.85535 0.28055 0.0
C734 C 0.25267 0.87569 0.28105 0.0
H735 H 0.19458 0.91459 0.21671 0.0
H736 H 0.2206 0.89397 0.22764 0.0
H737 H 0.18971 0.89123 0.22728 0.0
H738 H 0.1994 0.86601 0.26034 0.0
H739 H 0.22704 0.83055 0.25916 0.0
H740 H 0.08066 1.00824 0.75435 0.0
H741 H 0.11231 0.97689 0.7678 0.0
H742 H 0.15878 0.9814 0.70893 0.0
H743 H 0.12737 0.0124 0.69531 0.0
H744 H 0.14654 0.9441 0.70979 0.0
H745 H 0.18318 0.9631 0.79902 0.0
H746 H 0.14988 0.97063 0.79548 0.0
H747 H 0.16772 0.98273 0.77778 0.0
C748 C 0.09792 1.00284 0.7447 0.0
C749 C 0.10144 0.01263 0.72364 0.0
C750 C 0.11601 0.98499 0.75244 0.0
C751 C 0.1379 0.97688 0.73938 0.0
C752 C 0.14203 0.98741 0.71926 0.0
H753 H 0.26257 0.86486 0.74997 0.0
H754 H 0.23695 0.90122 0.74831 0.0
C755 C 0.12401 1.0051 0.71148 0.0
C756 C 0.15494 0.95609 0.74443 0.0
H757 H 0.19522 0.92757 0.78635 0.0
C758 C 0.15726 0.94054 0.72649 0.0
C759 C 0.1689 0.95152 0.76622 0.0
C760 C 0.16754 0.96787 0.78572 0.0
C761 C 0.17298 0.92047 0.7298 0.0
C762 C 0.18663 0.91578 0.75169 0.0
C763 C 0.18461 0.93131 0.76962 0.0
C764 C 0.20263 0.89456 0.75607 0.0
C765 C 0.1749 0.9043 0.70992 0.0
C766 C 0.19175 0.87902 0.76134 0.0
C767 C 0.20625 0.85839 0.76229 0.0
C768 C 0.23185 0.853 0.75803 0.0
C769 C 0.24289 0.86867 0.75354 0.0
C770 C 0.22834 0.88938 0.75262 0.0
H771 H 0.1657 0.91111 0.69287 0.0
H772 H 0.1947 0.89609 0.70634 0.0
H773 H 0.16596 0.89262 0.71568 0.0
H774 H 0.1719 0.88279 0.76394 0.0
H775 H 0.19731 0.8466 0.76585 0.0
H776 H 0.06692 0.1292 0.65347 0.0
H777 H 0.09204 0.15287 0.66187 0.0
H778 H 0.13361 0.11218 0.71652 0.0
H779 H 0.10906 0.08825 0.70794 0.0
H780 H 0.1121 0.15505 0.73163 0.0
H781 H 0.16692 0.14625 0.64798 0.0
H782 H 0.13398 0.15049 0.64386 0.0
H783 H 0.15265 0.12697 0.65709 0.0
C784 C 0.08171 0.12505 0.66693 0.0
C785 C 0.08577 0.10686 0.68017 0.0
C786 C 0.09604 0.13862 0.67173 0.0
C787 C 0.11471 0.13422 0.68977 0.0
C788 C 0.11924 0.11587 0.70256 0.0
H789 H 0.22397 0.19676 0.73581 0.0
H790 H 0.20253 0.1713 0.72289 0.0
C791 C 0.10504 0.10227 0.69772 0.0
C792 C 0.12844 0.14934 0.6965 0.0
H793 H 0.17019 0.17262 0.6761 0.0
C794 C 0.12483 0.15888 0.71951 0.0
C795 C 0.14512 0.15417 0.68068 0.0
C796 C 0.15015 0.14387 0.65606 0.0
C797 C 0.13722 0.17337 0.72701 0.0
C798 C 0.15359 0.17844 0.71108 0.0
C799 C 0.1575 0.16872 0.68819 0.0
C800 C 0.16669 0.19392 0.71802 0.0
C801 C 0.1329 0.18311 0.75198 0.0
C802 C 0.15362 0.21504 0.7193 0.0
C803 C 0.16581 0.22966 0.72641 0.0
C804 C 0.19135 0.22343 0.7325 0.0
C805 C 0.20439 0.20218 0.73101 0.0
C806 C 0.19218 0.18758 0.72372 0.0
H807 H 0.12263 0.17525 0.76338 0.0
H808 H 0.15089 0.18262 0.7611 0.0
H809 H 0.12191 0.19963 0.75056 0.0
H810 H 0.13395 0.2202 0.71477 0.0
H811 H 0.15525 0.24588 0.72684 0.0
H812 H 0.9917 0.10686 0.75223 0.0
H813 H 0.96242 0.14021 0.7641 0.0
H814 H 0.91284 0.13385 0.70557 0.0
H815 H 0.94186 0.10075 0.69354 0.0
H816 H 0.92799 0.17017 0.70517 0.0
H817 H 0.89227 0.15897 0.79467 0.0
H818 H 0.92544 0.14962 0.79142 0.0
H819 H 0.90576 0.13763 0.77402 0.0
C820 C 0.97428 0.11233 0.74228 0.0
C821 C 0.96921 0.10125 0.72182 0.0
C822 C 0.95753 0.13135 0.74913 0.0
C823 C 0.93543 0.13945 0.73574 0.0
C824 C 0.92977 0.12786 0.71615 0.0
H825 H 0.81681 0.25595 0.74319 0.0
H826 H 0.84038 0.21902 0.74218 0.0
C827 C 0.94643 0.10894 0.70929 0.0
C828 C 0.91969 0.161 0.74006 0.0
H829 H 0.88209 0.19356 0.78094 0.0
C830 C 0.91787 0.17524 0.7217 0.0
C831 C 0.90651 0.16754 0.76162 0.0
C832 C 0.90734 0.15265 0.78155 0.0
C833 C 0.90346 0.19592 0.72441 0.0
C834 C 0.8906 0.20255 0.74607 0.0
C835 C 0.8921 0.18834 0.76439 0.0
C836 C 0.87593 0.22442 0.7498 0.0
C837 C 0.90205 0.21064 0.70412 0.0
C838 C 0.88815 0.2395 0.75481 0.0
C839 C 0.87479 0.26048 0.75546 0.0
C840 C 0.849 0.2667 0.75106 0.0
C841 C 0.83665 0.25154 0.7468 0.0
C842 C 0.85005 0.2305 0.74624 0.0
H843 H 0.91044 0.20246 0.68733 0.0
H844 H 0.8824 0.21941 0.70016 0.0
H845 H 0.91209 0.22203 0.70967 0.0
H846 H 0.90814 0.23505 0.75753 0.0
H847 H 0.88475 0.27186 0.7589 0.0
H848 H 0.97152 0.01255 0.71707 0.0
H849 H 0.95348 0.98507 0.727 0.0
H850 H 0.98949 0.94836 0.66611 0.0
H851 H 1.00797 0.97565 0.65619 0.0
H852 H 0.93814 0.95055 0.67109 0.0
H853 H 0.99243 0.92902 0.75647 0.0
H854 H 0.97612 0.95608 0.75394 0.0
H855 H 1.00106 0.9442 0.73387 0.0
C856 C 0.97583 0.99858 0.70587 0.0
C857 C 0.99146 0.99628 0.68595 0.0
C858 C 0.96547 0.98288 0.71159 0.0
C859 C 0.97052 0.96453 0.69755 0.0
C860 C 0.98549 0.96237 0.67726 0.0
H861 H 0.92574 0.85197 0.69874 0.0
H862 H 0.94414 0.87944 0.69005 0.0
C863 C 0.99593 0.97806 0.67154 0.0
C864 C 0.96001 0.94766 0.70396 0.0
H865 H 0.96075 0.91303 0.74782 0.0
C866 C 0.94313 0.94228 0.68781 0.0
C867 C 0.96649 0.93699 0.72585 0.0
C868 C 0.98517 0.94169 0.74349 0.0
C869 C 0.93225 0.92668 0.69312 0.0
C870 C 0.93888 0.91587 0.71493 0.0
C871 C 0.9557 0.92133 0.73113 0.0
C872 C 0.92879 0.89867 0.72108 0.0
C873 C 0.91335 0.92224 0.67554 0.0
C874 C 0.91491 0.89991 0.74201 0.0
C875 C 0.90466 0.88399 0.74731 0.0
C876 C 0.90826 0.86646 0.73184 0.0
C877 C 0.92282 0.86506 0.71126 0.0
C878 C 0.93306 0.88093 0.70603 0.0
H879 H 0.90528 0.93547 0.66347 0.0
H880 H 0.92254 0.90853 0.66405 0.0
H881 H 0.89802 0.9188 0.68515 0.0
H882 H 0.9116 0.91338 0.75401 0.0
H883 H 0.89383 0.88547 0.76345 0.0
H884 H 0.24927 0.18476 0.08297 0.0
H885 H 0.26513 0.20071 0.11766 0.0
H886 H 0.30739 0.1401 0.14164 0.0
H887 H 0.29233 0.12425 0.10623 0.0
H888 H 0.25769 0.19723 0.16292 0.0
H889 H 0.35935 0.16951 0.14881 0.0
H890 H 0.33705 0.16667 0.12594 0.0
H891 H 0.34533 0.14888 0.15041 0.0
C892 C 0.26212 0.17492 0.09558 0.0
C893 C 0.26967 0.15335 0.09201 0.0
C894 C 0.27121 0.18399 0.11534 0.0
C895 C 0.28773 0.17163 0.13214 0.0
C896 C 0.29526 0.15001 0.12861 0.0
H897 H 0.29662 0.23482 0.27008 0.0
H898 H 0.2957 0.20617 0.24221 0.0
C899 C 0.28654 0.14096 0.1085 0.0
C900 C 0.29564 0.18152 0.154 0.0
H901 H 0.34616 0.18731 0.18593 0.0
C902 C 0.27705 0.19501 0.16795 0.0
C903 C 0.32092 0.17869 0.16049 0.0
C904 C 0.34182 0.16531 0.1455 0.0
C905 C 0.28292 0.20627 0.18771 0.0
C906 C 0.30819 0.20315 0.19454 0.0
C907 C 0.32683 0.18932 0.18094 0.0
C908 C 0.31535 0.21595 0.21404 0.0
C909 C 0.26196 0.22222 0.20017 0.0
C910 C 0.32899 0.22954 0.2084 0.0
C911 C 0.33021 0.24551 0.22458 0.0
C912 C 0.31748 0.24824 0.24644 0.0
C913 C 0.30636 0.23318 0.25321 0.0
C914 C 0.30563 0.21694 0.23723 0.0
H915 H 0.24453 0.22609 0.18908 0.0
H916 H 0.25809 0.21601 0.21745 0.0
H917 H 0.26694 0.23676 0.20418 0.0
H918 H 0.33686 0.22893 0.19068 0.0
H919 H 0.3389 0.2569 0.21884 0.0
H920 H 0.93851 0.36825 0.06454 0.0
H921 H 0.91124 0.36046 0.09405 0.0
H922 H 0.97463 0.31848 0.12909 0.0
H923 H 1.00209 0.32682 0.10037 0.0
H924 H 0.90361 0.32316 0.10247 0.0
H925 H 0.93968 0.35285 0.18573 0.0
H926 H 0.94725 0.3589 0.15596 0.0
H927 H 0.96353 0.33449 0.16906 0.0
C928 C 0.94675 0.3577 0.0788 0.0
C929 C 0.97258 0.34819 0.08001 0.0
C930 C 0.93108 0.35312 0.09555 0.0
C931 C 0.9409 0.33904 0.11394 0.0
C932 C 0.96665 0.32967 0.11534 0.0
H933 H 0.86105 0.27218 0.19717 0.0
H934 H 0.88651 0.28251 0.16765 0.0
C935 C 0.98233 0.33429 0.09868 0.0
C936 C 0.92417 0.33351 0.13109 0.0
H937 H 0.9132 0.33149 0.19108 0.0
C938 C 0.90559 0.32509 0.12184 0.0
C939 C 0.92658 0.33625 0.15635 0.0
C940 C 0.94517 0.34631 0.16738 0.0
C941 C 0.88966 0.31901 0.13719 0.0
C942 C 0.89273 0.321 0.16248 0.0
C943 C 0.91103 0.32974 0.17169 0.0
C944 C 0.8768 0.31464 0.17981 0.0
C945 C 0.86942 0.31087 0.12613 0.0
C946 C 0.86326 0.32912 0.19676 0.0
C947 C 0.84898 0.32322 0.21379 0.0
C948 C 0.8479 0.30266 0.21428 0.0
C949 C 0.86132 0.28817 0.19717 0.0
C950 C 0.87578 0.29408 0.18019 0.0
H951 H 0.86518 0.31569 0.10713 0.0
H952 H 0.87562 0.29369 0.12617 0.0
H953 H 0.85207 0.31636 0.13658 0.0
H954 H 0.86377 0.34506 0.19684 0.0
H955 H 0.83882 0.33483 0.22662 0.0
H956 H 0.80439 0.96554 0.08218 0.0
H957 H 0.80648 0.94307 0.11634 0.0
H958 H 0.72887 0.97218 0.12959 0.0
H959 H 0.72626 0.99434 0.09503 0.0
H960 H 0.76805 0.96566 0.17255 0.0
H961 H 0.76682 0.89666 0.11508 0.0
H962 H 0.78728 0.91137 0.10679 0.0
H963 H 0.75428 0.92281 0.10461 0.0
C964 C 0.78766 0.9671 0.09212 0.0
C965 C 0.7651 0.98175 0.08566 0.0
C966 C 0.78898 0.95435 0.11178 0.0
C967 C 0.76784 0.95607 0.12538 0.0
C968 C 0.7454 0.97078 0.11931 0.0
H969 H 0.74431 0.86665 0.22264 0.0
H970 H 0.73771 0.89595 0.196 0.0
C971 C 0.744 0.98346 0.09958 0.0
C972 C 0.76893 0.94194 0.1454 0.0
H973 H 0.77207 0.89193 0.15701 0.0
C974 C 0.76888 0.94954 0.16926 0.0
C975 C 0.76982 0.92103 0.14087 0.0
C976 C 0.76943 0.91237 0.11549 0.0
C977 C 0.7701 0.93654 0.18884 0.0
C978 C 0.77136 0.91555 0.18428 0.0
C979 C 0.77105 0.90808 0.16039 0.0
C980 C 0.77354 0.90072 0.20384 0.0
C981 C 0.76988 0.94528 0.21423 0.0
C982 C 0.79559 0.89418 0.21762 0.0
C983 C 0.7995 0.87737 0.23286 0.0
C984 C 0.78142 0.8668 0.23442 0.0
C985 C 0.75866 0.87437 0.22183 0.0
C986 C 0.75483 0.8911 0.20656 0.0
H987 H 0.76391 0.96249 0.2147 0.0
H988 H 0.75729 0.93972 0.22559 0.0
H989 H 0.78887 0.93986 0.2223 0.0
H990 H 0.81036 0.90128 0.21553 0.0
H991 H 0.81724 0.87196 0.2423 0.0
H992 H 0.12326 0.74797 0.10431 0.0
H993 H 0.15748 0.75665 0.12577 0.0
H994 H 0.18235 0.77405 0.05901 0.0
H995 H 0.14805 0.76518 0.03715 0.0
H996 H 0.22076 0.74583 0.09418 0.0
H997 H 0.16082 0.81963 0.13351 0.0
H998 H 0.14884 0.79767 0.1346 0.0
H999 H 0.15266 0.80789 0.10594 0.0
C1000 C 0.13615 0.75331 0.09403 0.0
C1001 C 0.13287 0.75585 0.06895 0.0
C1002 C 0.15559 0.75846 0.1064 0.0
C1003 C 0.17222 0.76619 0.09399 0.0
C1004 C 0.16956 0.76822 0.06889 0.0
H1005 H 0.27372 0.81623 0.18505 0.0
H1006 H 0.24771 0.81228 0.14984 0.0
C1007 C 0.14994 0.76321 0.05647 0.0
C1008 C 0.19215 0.77221 0.10761 0.0
H1009 H 0.20097 0.80606 0.15161 0.0
C1010 C 0.21659 0.75919 0.10643 0.0
C1011 C 0.18669 0.78982 0.12327 0.0
C1012 C 0.16088 0.80471 0.12438 0.0
C1013 C 0.23545 0.76263 0.1217 0.0
C1014 C 0.22957 0.77937 0.1387 0.0
C1015 C 0.20547 0.79316 0.13869 0.0
C1016 C 0.24714 0.78137 0.15848 0.0
C1017 C 0.26136 0.74797 0.11992 0.0
C1018 C 0.25532 0.76538 0.175 0.0
C1019 C 0.26998 0.7676 0.19501 0.0
C1020 C 0.27675 0.78595 0.19912 0.0
C1021 C 0.26893 0.80188 0.18234 0.0
C1022 C 0.25407 0.79965 0.16225 0.0
H1023 H 0.26481 0.7409 0.1015 0.0
H1024 H 0.27564 0.75597 0.12451 0.0
H1025 H 0.26354 0.73522 0.13273 0.0
H1026 H 0.24971 0.75136 0.17284 0.0
H1027 H 0.27561 0.75498 0.2075 0.0
H1028 H 0.22009 0.04195 0.02983 0.0
H1029 H 0.22475 1.00552 0.01909 0.0
H1030 H 0.20622 0.02207 0.94493 0.0
H1031 H 0.20113 0.05842 0.95568 0.0
H1032 H 0.19 0.9886 0.9588 0.0
H1033 H 0.28944 0.97832 0.98418 0.0
H1034 H 0.2672 0.98744 1.00759 0.0
H1035 H 0.26712 1.00357 0.98243 0.0
C1036 C 0.21626 0.03783 0.0114 0.0
C1037 C 0.21064 0.0529 0.99349 0.0
C1038 C 0.219 0.01705 1.00529 0.0
C1039 C 0.21648 0.01108 0.98112 0.0
C1040 C 0.20835 0.02637 0.96369 0.0
H1041 H 0.2891 0.92527 0.88047 0.0
H1042 H 0.2729 0.952 0.91112 0.0
C1043 C 0.20537 0.04717 0.96984 0.0
C1044 C 0.22577 0.98911 0.9731 0.0
H1045 H 0.28 0.95103 0.96312 0.0
C1046 C 0.20956 0.98011 0.9602 0.0
C1047 C 0.2514 0.97821 0.97488 0.0
C1048 C 0.26991 0.98734 0.98785 0.0
C1049 C 0.21853 0.96102 0.9478 0.0
C1050 C 0.24429 0.95071 0.94858 0.0
C1051 C 0.26024 0.95903 0.96275 0.0
C1052 C 0.25557 0.93342 0.93162 0.0
C1053 C 0.20075 0.95275 0.93252 0.0
C1054 C 0.25166 0.91393 0.93336 0.0
C1055 C 0.26119 0.8984 0.9159 0.0
C1056 C 0.27476 0.9022 0.89649 0.0
C1057 C 0.2792 0.9216 0.89537 0.0
C1058 C 0.26978 0.93699 0.91279 0.0
H1059 H 0.1816 0.96356 0.93231 0.0
H1060 H 0.20731 0.94987 0.91367 0.0
H1061 H 0.20007 0.93776 0.93967 0.0
H1062 H 0.24097 0.91084 0.94798 0.0
H1063 H 0.25768 0.88354 0.91742 0.0
H1064 H 0.08711 0.33488 0.9327 0.0
H1065 H 0.11955 0.3284 0.90251 0.0
H1066 H 0.15843 0.36343 0.94622 0.0
H1067 H 0.1261 0.36998 0.97647 0.0
H1068 H 0.15777 0.37155 0.89689 0.0
H1069 H 0.18814 0.28697 0.91318 0.0
H1070 H 0.15587 0.2973 0.90499 0.0
H1071 H 0.16742 0.30535 0.93304 0.0
C1072 C 0.10255 0.34122 0.93589 0.0
C1073 C 0.1041 0.35278 0.95716 0.0
C1074 C 0.12109 0.3375 0.91861 0.0
C1075 C 0.14165 0.3451 0.92232 0.0
C1076 C 0.14275 0.35736 0.94302 0.0
H1077 H 0.28771 0.30059 0.86326 0.0
H1078 H 0.25049 0.31085 0.88778 0.0
C1079 C 0.12418 0.36116 0.96028 0.0
C1080 C 0.16251 0.33966 0.90514 0.0
H1081 H 0.208 0.29871 0.88205 0.0
C1082 C 0.16872 0.35563 0.89354 0.0
C1083 C 0.17694 0.31888 0.90104 0.0
C1084 C 0.17197 0.30112 0.91385 0.0
C1085 C 0.18901 0.35138 0.87799 0.0
C1086 C 0.20325 0.33058 0.87369 0.0
C1087 C 0.19694 0.31463 0.88521 0.0
C1088 C 0.22571 0.325 0.85852 0.0
C1089 C 0.19551 0.36922 0.86689 0.0
C1090 C 0.22417 0.32949 0.83383 0.0
C1091 C 0.24553 0.3237 0.81976 0.0
C1092 C 0.26868 0.31318 0.83013 0.0
C1093 C 0.27012 0.30871 0.85478 0.0
C1094 C 0.24886 0.31452 0.86881 0.0
H1095 H 0.18632 0.38422 0.87617 0.0
H1096 H 0.21591 0.36673 0.86753 0.0
H1097 H 0.18927 0.37034 0.84769 0.0
H1098 H 0.20644 0.33722 0.8254 0.0
H1099 H 0.24391 0.3273 0.80078 0.0
H1100 H 0.75717 0.09755 0.94832 0.0
H1101 H 0.7714 0.12613 0.93483 0.0
H1102 H 0.83392 0.109 0.98463 0.0
H1103 H 0.81977 0.08012 0.99809 0.0
H1104 H 0.77922 0.15951 0.96136 0.0
H1105 H 0.86635 0.11064 0.91948 0.0
H1106 H 0.84194 0.10004 0.92811 0.0
H1107 H 0.86196 0.10666 0.95076 0.0
C1108 C 0.77383 0.09994 0.95654 0.0
C1109 C 0.78741 0.08655 0.97419 0.0
C1110 C 0.78199 0.11624 0.94878 0.0
C1111 C 0.80385 0.11953 0.95855 0.0
C1112 C 0.81726 0.10647 0.97654 0.0
H1113 H 0.82222 0.23551 0.90487 0.0
H1114 H 0.82669 0.20814 0.93423 0.0
C1115 C 0.80917 0.09001 0.98421 0.0
C1116 C 0.8123 0.13662 0.94937 0.0
H1117 H 0.85542 0.14639 0.91314 0.0
C1118 C 0.79611 0.15678 0.95117 0.0
C1119 C 0.83436 0.13287 0.93614 0.0
C1120 C 0.85217 0.1114 0.93329 0.0
C1121 C 0.80046 0.1731 0.93874 0.0
C1122 C 0.822 0.1692 0.92462 0.0
C1123 C 0.83903 0.1493 0.92409 0.0
C1124 C 0.82494 0.18458 0.90738 0.0
C1125 C 0.78098 0.19395 0.93939 0.0
C1126 C 0.82422 0.18 0.88256 0.0
C1127 C 0.82201 0.19545 0.86582 0.0
C1128 C 0.82037 0.2158 0.87364 0.0
C1129 C 0.82307 0.22 0.89842 0.0
C1130 C 0.82555 0.20443 0.91517 0.0
H1131 H 0.76354 0.19327 0.94778 0.0
H1132 H 0.78823 0.20517 0.9501 0.0
H1133 H 0.77642 0.19994 0.92088 0.0
H1134 H 0.82376 0.16477 0.87615 0.0
H1135 H 0.8198 0.19177 0.84689 0.0
H1136 H 0.97633 0.72615 0.96425 0.0
H1137 H 0.94492 0.7297 0.93205 0.0
H1138 H 0.9749 0.77277 0.89649 0.0
H1139 H 1.0068 0.76892 0.92836 0.0
H1140 H 0.90942 0.76735 0.91978 0.0
H1141 H 0.96776 0.73213 0.84147 0.0
H1142 H 0.97881 0.72783 0.87233 0.0
H1143 H 0.97741 0.75177 0.85828 0.0
C1144 C 0.97661 0.73605 0.94937 0.0
C1145 C 0.99416 0.74724 0.94893 0.0
C1146 C 0.95852 0.73817 0.93103 0.0
C1147 C 0.95771 0.75133 0.91174 0.0
C1148 C 0.97541 0.76227 0.911 0.0
H1149 H 0.85155 0.79167 0.7924 0.0
H1150 H 0.8878 0.78527 0.81992 0.0
C1151 C 0.99347 0.76022 0.92938 0.0
C1152 C 0.93737 0.75458 0.89331 0.0
H1153 H 0.9251 0.74867 0.8332 0.0
C1154 C 0.91284 0.76318 0.90086 0.0
C1155 C 0.94191 0.74934 0.86861 0.0
C1156 C 0.96786 0.7396 0.85961 0.0
C1157 C 0.8927 0.7668 0.88441 0.0
C1158 C 0.89716 0.76121 0.85976 0.0
C1159 C 0.92172 0.75284 0.85211 0.0
C1160 C 0.87644 0.76376 0.84183 0.0
C1161 C 0.86685 0.77693 0.89351 0.0
C1162 C 0.85843 0.75338 0.84458 0.0
C1163 C 0.83787 0.75694 0.82882 0.0
C1164 C 0.83516 0.77068 0.80977 0.0
C1165 C 0.85358 0.78056 0.80649 0.0
C1166 C 0.87414 0.77706 0.82235 0.0
H1167 H 0.86724 0.78533 0.91102 0.0
H1168 H 0.85557 0.78802 0.88027 0.0
H1169 H 0.85748 0.76483 0.89631 0.0
H1170 H 0.86005 0.74277 0.85921 0.0
H1171 H 0.82389 0.74916 0.83175 0.0
H1172 H 0.0808 0.31466 0.08845 0.0
H1173 H 0.10831 0.31432 0.12377 0.0
H1174 H 0.17192 0.29675 0.0778 0.0
H1175 H 0.14469 0.29741 0.04256 0.0
H1176 H 0.14881 0.28516 0.14513 0.0
H1177 H 0.17904 0.34963 0.10999 0.0
H1178 H 0.15296 0.34227 0.09705 0.0
H1179 H 0.18421 0.32802 0.0891 0.0
C1180 C 0.10067 0.31042 0.08589 0.0
C1181 C 0.11043 0.30624 0.06251 0.0
C1182 C 0.11642 0.3103 0.10615 0.0
C1183 C 0.14224 0.30604 0.10349 0.0
C1184 C 0.15207 0.30067 0.08036 0.0
H1185 H 0.27583 0.29072 0.1876 0.0
H1186 H 0.24212 0.28997 0.15921 0.0
C1187 C 0.13641 0.30089 0.06017 0.0
C1188 C 0.15895 0.30787 0.12452 0.0
H1189 H 0.20292 0.33146 0.14301 0.0
C1190 C 0.16039 0.29548 0.14479 0.0
C1191 C 0.17401 0.32148 0.12436 0.0
C1192 C 0.17234 0.33626 0.10408 0.0
C1193 C 0.17719 0.2957 0.16419 0.0
C1194 C 0.19288 0.30867 0.16345 0.0
C1195 C 0.19094 0.32147 0.14358 0.0
C1196 C 0.21282 0.30808 0.18207 0.0
C1197 C 0.17883 0.28153 0.18503 0.0
C1198 C 0.20763 0.31842 0.20464 0.0
C1199 C 0.22707 0.31901 0.22105 0.0
C1200 C 0.25199 0.30925 0.21511 0.0
C1201 C 0.2569 0.29851 0.19276 0.0
C1202 C 0.23762 0.29801 0.17646 0.0
H1203 H 0.16587 0.27191 0.18272 0.0
H1204 H 0.19811 0.27114 0.18694 0.0
H1205 H 0.17445 0.29088 0.20204 0.0
H1206 H 0.18863 0.32641 0.20933 0.0
H1207 H 0.22267 0.32744 0.23807 0.0
H1208 H 0.08084 0.78188 0.94739 0.0
H1209 H 0.11049 0.78282 0.91637 0.0
H1210 H 0.13622 0.82675 0.96002 0.0
H1211 H 0.10697 0.82555 0.99142 0.0
H1212 H 0.11767 0.81316 0.889 0.0
H1213 H 0.20084 0.78242 0.94779 0.0
H1214 H 0.17016 0.78241 0.95638 0.0
H1215 H 0.17953 0.8057 0.95963 0.0
C1216 C 0.09265 0.79188 0.9504 0.0
C1217 C 0.09152 0.80354 0.97212 0.0
C1218 C 0.10969 0.79237 0.93258 0.0
C1219 C 0.12613 0.80446 0.93597 0.0
C1220 C 0.1243 0.81682 0.95716 0.0
H1221 H 0.24429 0.825 0.85024 0.0
H1222 H 0.21358 0.82536 0.88067 0.0
C1223 C 0.10732 0.81629 0.97505 0.0
C1224 C 0.14521 0.80395 0.91742 0.0
H1225 H 0.20781 0.79378 0.90929 0.0
C1226 C 0.13738 0.80884 0.89346 0.0
C1227 C 0.17103 0.79826 0.92307 0.0
C1228 C 0.18097 0.7917 0.94805 0.0
C1229 C 0.15447 0.80859 0.87523 0.0
C1230 C 0.18025 0.80297 0.88092 0.0
C1231 C 0.1881 0.7981 0.90486 0.0
C1232 C 0.19935 0.80227 0.86237 0.0
C1233 C 0.14469 0.81481 0.85013 0.0
C1234 C 0.2021 0.78884 0.84204 0.0
C1235 C 0.21978 0.78854 0.82452 0.0
C1236 C 0.23523 0.80163 0.82691 0.0
C1237 C 0.23276 0.81473 0.8476 0.0
C1238 C 0.21515 0.81497 0.86511 0.0
H1239 H 0.12465 0.82362 0.85007 0.0
H1240 H 0.15519 0.82442 0.84193 0.0
H1241 H 0.14691 0.80066 0.8386 0.0
H1242 H 0.19056 0.77855 0.83969 0.0
H1243 H 0.22109 0.77821 0.80894 0.0
H1244 H 0.30941 0.10978 0.95397 0.0
H1245 H 0.32527 0.12531 0.92066 0.0
H1246 H 0.26887 0.18321 0.93366 0.0
H1247 H 0.25304 0.16805 0.96659 0.0
H1248 H 0.29776 0.14525 0.87787 0.0
H1249 H 0.33516 0.19873 0.93459 0.0
H1250 H 0.32871 0.17626 0.94651 0.0
H1251 H 0.30394 0.19973 0.94191 0.0
C1252 C 0.30049 0.12583 0.94975 0.0
C1253 C 0.28001 0.13768 0.96302 0.0
C1254 C 0.30954 0.13466 0.93072 0.0
C1255 C 0.29844 0.15549 0.92495 0.0
C1256 C 0.27797 0.16721 0.93807 0.0
H1257 H 0.27766 0.23407 0.80658 0.0
H1258 H 0.27855 0.20697 0.83488 0.0
C1259 C 0.26887 0.15845 0.95686 0.0
C1260 C 0.30753 0.16526 0.90495 0.0
H1261 H 0.3265 0.20751 0.89298 0.0
C1262 C 0.30452 0.15862 0.88112 0.0
C1263 C 0.31671 0.18249 0.90922 0.0
C1264 C 0.32158 0.18963 0.93446 0.0
C1265 C 0.3089 0.16964 0.86142 0.0
C1266 C 0.31612 0.18789 0.86576 0.0
C1267 C 0.32073 0.19366 0.88959 0.0
C1268 C 0.3169 0.20226 0.84621 0.0
C1269 C 0.30529 0.16184 0.8362 0.0
C1270 C 0.33815 0.20877 0.84311 0.0
C1271 C 0.33765 0.22447 0.827 0.0
C1272 C 0.3158 0.2341 0.81383 0.0
C1273 C 0.29485 0.227 0.81634 0.0
C1274 C 0.29538 0.21133 0.83242 0.0
H1275 H 0.30841 0.14479 0.83569 0.0
H1276 H 0.28587 0.16921 0.83 0.0
H1277 H 0.31804 0.16565 0.82339 0.0
H1278 H 0.35492 0.20211 0.85368 0.0
H1279 H 0.3541 0.22958 0.82559 0.0
H1280 H 0.9739 0.29249 0.99089 0.0
H1281 H 0.94526 0.29277 0.95684 0.0
H1282 H 0.98745 0.32167 0.91328 0.0
H1283 H 1.01666 0.32079 0.94709 0.0
H1284 H 0.91496 0.32467 0.93552 0.0
H1285 H 0.97772 0.27922 0.86557 0.0
H1286 H 0.98743 0.28003 0.89678 0.0
H1287 H 0.98744 0.30079 0.87716 0.0
C1288 C 0.97745 0.2985 0.97391 0.0
C1289 C 0.99779 0.30647 0.97179 0.0
C1290 C 0.96091 0.29875 0.9544 0.0
C1291 C 0.96411 0.30706 0.93219 0.0
C1292 C 0.98473 0.31467 0.92987 0.0
H1293 H 0.86766 0.33892 0.80305 0.0
H1294 H 0.89949 0.3365 0.83495 0.0
C1295 C 1.00148 0.31421 0.94933 0.0
C1296 C 0.94499 0.30893 0.91222 0.0
H1297 H 0.93688 0.29795 0.85226 0.0
C1298 C 0.91985 0.31867 0.91739 0.0
C1299 C 0.9511 0.30122 0.88837 0.0
C1300 C 0.97735 0.28955 0.88166 0.0
C1301 C 0.90092 0.32105 0.89955 0.0
C1302 C 0.90707 0.31347 0.87576 0.0
C1303 C 0.93214 0.30387 0.87045 0.0
C1304 C 0.88762 0.31501 0.85635 0.0
C1305 C 0.87442 0.33193 0.90622 0.0
C1306 C 0.87034 0.30367 0.8576 0.0
C1307 C 0.85219 0.30493 0.83934 0.0
C1308 C 0.85073 0.31767 0.81936 0.0
C1309 C 0.86803 0.32908 0.81819 0.0
C1310 C 0.88635 0.32764 0.83639 0.0
H1311 H 0.87329 0.34055 0.92376 0.0
H1312 H 0.86499 0.34292 0.89204 0.0
H1313 H 0.86413 0.32027 0.9077 0.0
H1314 H 0.87104 0.29365 0.87265 0.0
H1315 H 0.83933 0.29583 0.84089 0.0
H1316 H 0.76517 0.98505 0.93822 0.0
H1317 H 0.75957 0.9631 0.90373 0.0
H1318 H 0.816 0.91142 0.93353 0.0
H1319 H 0.82141 0.93306 0.96816 0.0
H1320 H 0.793 0.94208 0.86967 0.0
H1321 H 0.75887 0.88683 0.92049 0.0
H1322 H 0.76074 0.91121 0.9335 0.0
H1323 H 0.78804 0.88922 0.93208 0.0
C1324 C 0.77628 0.96898 0.93751 0.0
C1325 C 0.79363 0.9608 0.95608 0.0
C1326 C 0.77309 0.95646 0.91775 0.0
C1327 C 0.78706 0.93551 0.91621 0.0
C1328 C 0.80458 0.92739 0.93457 0.0
H1329 H 0.82101 0.85086 0.79373 0.0
H1330 H 0.81938 0.87771 0.82464 0.0
C1331 C 0.80775 0.93985 0.95433 0.0
C1332 C 0.78381 0.92219 0.8952 0.0
H1333 H 0.77157 0.87661 0.88012 0.0
C1334 C 0.7881 0.92785 0.87191 0.0
C1335 C 0.77702 0.9038 0.89805 0.0
C1336 C 0.77065 0.89749 0.92235 0.0
C1337 C 0.78662 0.91526 0.85154 0.0
C1338 C 0.78112 0.89631 0.85457 0.0
C1339 C 0.77601 0.89103 0.87776 0.0
C1340 C 0.78127 0.88138 0.83417 0.0
C1341 C 0.79083 0.92245 0.82697 0.0
C1342 C 0.76045 0.87432 0.82922 0.0
C1343 C 0.76136 0.85878 0.81162 0.0
C1344 C 0.7832 0.84988 0.79863 0.0
C1345 C 0.80379 0.85743 0.80316 0.0
C1346 C 0.80287 0.87291 0.82082 0.0
H1347 H 0.78698 0.93956 0.8268 0.0
H1348 H 0.81055 0.9154 0.82213 0.0
H1349 H 0.77892 0.91775 0.81293 0.0
H1350 H 0.7436 0.88055 0.83934 0.0
H1351 H 0.74516 0.85335 0.8087 0.0
H1352 H 1.01486 0.78815 0.08361 0.0
H1353 H 0.9869 0.78937 0.1172 0.0
H1354 H 0.92367 0.80927 0.06874 0.0
H1355 H 0.95138 0.80759 0.03515 0.0
H1356 H 0.94879 0.81873 0.13893 0.0
H1357 H 0.91179 0.75846 0.09592 0.0
H1358 H 0.93861 0.76447 0.08472 0.0
H1359 H 0.90775 0.7802 0.07685 0.0
C1360 C 0.99499 0.79306 0.08015 0.0
C1361 C 0.98545 0.79761 0.05653 0.0
C1362 C 0.97898 0.79368 0.09941 0.0
C1363 C 0.95308 0.79884 0.09551 0.0
C1364 C 0.94354 0.80458 0.07221 0.0
H1365 H 0.81881 0.81861 0.17401 0.0
H1366 H 0.85243 0.81701 0.14645 0.0
C1367 C 0.95947 0.8038 0.05298 0.0
C1368 C 0.936 0.79777 0.11543 0.0
H1369 H 0.88906 0.7774 0.12925 0.0
C1370 C 0.93596 0.80949 0.13691 0.0
C1371 C 0.91933 0.78553 0.11311 0.0
C1372 C 0.91951 0.77128 0.09152 0.0
C1373 C 0.91903 0.81001 0.15545 0.0
C1374 C 0.90171 0.79849 0.15256 0.0
C1375 C 0.90223 0.78634 0.13145 0.0
C1376 C 0.88173 0.79991 0.17034 0.0
C1377 C 0.91908 0.82346 0.17768 0.0
C1378 C 0.88689 0.79076 0.19312 0.0
C1379 C 0.8675 0.79147 0.209 0.0
C1380 C 0.84263 0.80145 0.2024 0.0
C1381 C 0.8377 0.81075 0.17972 0.0
C1382 C 0.85694 0.80989 0.16388 0.0
H1383 H 0.93207 0.833 0.17626 0.0
H1384 H 0.90009 0.8339 0.18083 0.0
H1385 H 0.92468 0.81352 0.19364 0.0
H1386 H 0.90585 0.78277 0.19843 0.0
H1387 H 0.87192 0.78404 0.22624 0.0
H1388 H 0.29975 0.03547 0.02823 0.0
H1389 H 0.30931 1.00035 0.04415 0.0
H1390 H 0.29637 0.02615 0.11639 0.0
H1391 H 0.28661 0.06112 0.10068 0.0
H1392 H 0.34126 0.98908 0.10864 0.0
H1393 H 0.25091 0.98022 0.07356 0.0
H1394 H 0.27019 0.98884 0.05338 0.0
H1395 H 0.25589 1.00536 0.07808 0.0
C1396 C 0.29955 0.0336 0.04754 0.0
C1397 C 0.29247 0.05101 0.06325 0.0
C1398 C 0.30479 0.01357 0.05657 0.0
C1399 C 0.3033 1.01073 0.08141 0.0
C1400 C 0.29755 0.02805 0.09716 0.0
H1401 H 0.28598 0.92114 0.17901 0.0
H1402 H 0.28189 0.95061 0.15299 0.0
C1403 C 0.29202 0.048 0.08817 0.0
C1404 C 0.30635 0.98994 0.09118 0.0
H1405 H 0.27547 0.95376 0.098 0.0
C1406 C 0.32711 0.98115 0.10603 0.0
C1407 C 0.28764 0.97985 0.08793 0.0
C1408 C 0.26478 0.98897 0.07248 0.0
C1409 C 0.32946 0.96267 0.11809 0.0
C1410 C 0.31053 0.95278 0.11522 0.0
C1411 C 0.28997 0.96137 0.10004 0.0
C1412 C 0.31122 0.9342 0.12908 0.0
C1413 C 0.35169 0.95419 0.13456 0.0
C1414 C 0.32857 0.91506 0.12378 0.0
C1415 C 0.33078 0.8981 0.13844 0.0
C1416 C 0.31578 0.89999 0.1588 0.0
C1417 C 0.29767 0.91901 0.16339 0.0
C1418 C 0.29539 0.93592 0.14862 0.0
H1419 H 0.3631 0.96507 0.13716 0.0
H1420 H 0.3456 0.95084 0.15247 0.0
H1421 H 0.36358 0.93941 0.12672 0.0
H1422 H 0.34077 0.91339 0.1086 0.0
H1423 H 0.34459 0.8836 0.13408 0.0
H1424 H 0.86374 0.04224 0.02414 0.0
H1425 H 0.85151 0.07598 0.04525 0.0
H1426 H 0.78552 0.06332 0.06991 0.0
H1427 H 0.79851 0.02916 0.04985 0.0
H1428 H 0.80829 0.11038 0.04209 0.0
H1429 H 0.82039 0.07487 0.13243 0.0
H1430 H 0.83184 0.06013 0.10529 0.0
H1431 H 0.79938 0.06678 0.11208 0.0
C1432 C 0.84653 0.04671 0.03396 0.0
C1433 C 0.8317 0.0332 0.0349 0.0
C1434 C 0.83953 0.06603 0.04591 0.0
C1435 C 0.81768 0.07215 0.05926 0.0
C1436 C 0.80253 0.05889 0.05979 0.0
H1437 H 0.76429 0.17538 0.16128 0.0
H1438 H 0.76706 0.14621 0.13324 0.0
C1439 C 0.80964 0.0395 0.04791 0.0
C1440 C 0.81161 0.09187 0.07362 0.0
H1441 H 0.80603 0.11127 0.1315 0.0
C1442 C 0.80769 0.11062 0.06164 0.0
C1443 C 0.81093 0.09213 0.09913 0.0
C1444 C 0.81605 0.07242 0.11308 0.0
C1445 C 0.80297 0.12965 0.0745 0.0
C1446 C 0.80261 0.12986 0.10003 0.0
C1447 C 0.80622 0.11112 0.11194 0.0
C1448 C 0.79929 0.14915 0.11498 0.0
C1449 C 0.79817 0.14933 0.06061 0.0
C1450 C 0.81633 0.16071 0.11393 0.0
C1451 C 0.81466 0.17759 0.12983 0.0
C1452 C 0.79602 0.18317 0.14729 0.0
C1453 C 0.77863 0.17182 0.14787 0.0
C1454 C 0.7803 0.155 0.13194 0.0
H1455 H 0.79184 0.14729 0.04177 0.0
H1456 H 0.78397 0.16228 0.06951 0.0
H1457 H 0.81567 0.15372 0.05982 0.0
H1458 H 0.83146 0.15628 0.10135 0.0
H1459 H 0.82826 0.18604 0.12873 0.0
H1460 H 0.55419 0.63315 0.8437 0.0
H1461 H 0.57684 0.65878 0.83924 0.0
H1462 H 0.6378 0.62153 0.88192 0.0
H1463 H 0.61528 0.59575 0.88638 0.0
H1464 H 0.60215 0.67963 0.88029 0.0
H1465 H 0.66362 0.63021 0.81094 0.0
H1466 H 0.63326 0.62762 0.81682 0.0
H1467 H 0.65823 0.61851 0.83824 0.0
C1468 C 0.57234 0.6305 0.85226 0.0
C1469 C 0.58301 0.61239 0.86527 0.0
C1470 C 0.58518 0.64518 0.84981 0.0
C1471 C 0.60899 0.64192 0.86014 0.0
C1472 C 0.61942 0.62424 0.8738 0.0
H1473 H 0.71666 0.70768 0.82801 0.0
H1474 H 0.69703 0.68298 0.84374 0.0
C1475 C 0.60649 0.60961 0.87644 0.0
C1476 C 0.62333 0.65654 0.85542 0.0
H1477 H 0.6687 0.66301 0.81963 0.0
C1478 C 0.61683 0.67601 0.86718 0.0
C1479 C 0.64253 0.65163 0.83842 0.0
C1480 C 0.64992 0.63091 0.82521 0.0
C1481 C 0.62897 0.69087 0.86219 0.0
C1482 C 0.64757 0.68627 0.84446 0.0
C1483 C 0.65443 0.66655 0.83316 0.0
C1484 C 0.6594 0.70191 0.83652 0.0
C1485 C 0.62187 0.71125 0.8761 0.0
C1486 C 0.64481 0.72075 0.82715 0.0
C1487 C 0.65595 0.73502 0.81844 0.0
C1488 C 0.68199 0.73064 0.81854 0.0
C1489 C 0.69657 0.71173 0.82797 0.0
C1490 C 0.68538 0.69752 0.83683 0.0
H1491 H 0.61399 0.70972 0.89386 0.0
H1492 H 0.63809 0.71731 0.87917 0.0
H1493 H 0.60741 0.72276 0.8657 0.0
H1494 H 0.62476 0.72429 0.82615 0.0
H1495 H 0.64411 0.74949 0.81158 0.0
H1496 H 0.44324 0.58663 0.79274 0.0
H1497 H 0.41182 0.61973 0.7859 0.0
H1498 H 0.46866 0.65101 0.78995 0.0
H1499 H 0.50027 0.61798 0.7966 0.0
H1500 H 0.40191 0.6525 0.81902 0.0
H1501 H 0.42687 0.67709 0.73114 0.0
H1502 H 0.43823 0.65068 0.74105 0.0
H1503 H 0.45251 0.66985 0.7523 0.0
C1504 C 0.44918 0.60047 0.79167 0.0
C1505 C 0.47432 0.59961 0.79529 0.0
C1506 C 0.43115 0.6194 0.78781 0.0
C1507 C 0.43787 0.63784 0.78726 0.0
C1508 C 0.46306 0.63695 0.78987 0.0
H1509 H 0.35494 0.76287 0.82487 0.0
H1510 H 0.38236 0.72724 0.82271 0.0
C1511 C 0.48113 0.61802 0.79377 0.0
C1512 C 0.4184 0.65815 0.78631 0.0
H1513 H 0.39894 0.70321 0.75532 0.0
C1514 C 0.40111 0.66349 0.80495 0.0
C1515 C 0.41722 0.67243 0.76785 0.0
C1516 C 0.43454 0.66719 0.74681 0.0
C1517 C 0.38323 0.68297 0.80606 0.0
C1518 C 0.38278 0.69759 0.78822 0.0
C1519 C 0.39947 0.69202 0.7691 0.0
C1520 C 0.36573 0.719 0.78965 0.0
C1521 C 0.36501 0.68778 0.82639 0.0
C1522 C 0.34751 0.72628 0.77161 0.0
C1523 C 0.33178 0.74662 0.77291 0.0
C1524 C 0.33417 0.76001 0.79211 0.0
C1525 C 0.35253 0.75276 0.81001 0.0
C1526 C 0.36814 0.73242 0.80883 0.0
H1527 H 0.36354 0.67344 0.83475 0.0
H1528 H 0.37139 0.69714 0.84058 0.0
H1529 H 0.34625 0.69688 0.81994 0.0
H1530 H 0.34551 0.71625 0.75652 0.0
H1531 H 0.31827 0.75206 0.7586 0.0
H1532 H 0.52165 0.48463 0.82514 0.0
H1533 H 0.50481 0.45545 0.8171 0.0
H1534 H 0.44207 0.48487 0.86156 0.0
H1535 H 0.45832 0.51439 0.86908 0.0
H1536 H 0.4935 0.42864 0.84947 0.0
H1537 H 0.40925 0.47234 0.79835 0.0
H1538 H 0.43517 0.48251 0.80471 0.0
H1539 H 0.41295 0.48329 0.82766 0.0
C1540 C 0.50415 0.48503 0.83302 0.0
C1541 C 0.49128 0.502 0.84762 0.0
C1542 C 0.49462 0.46826 0.82853 0.0
C1543 C 0.47198 0.46814 0.8384 0.0
C1544 C 0.45934 0.48481 0.85338 0.0
H1545 H 0.38336 0.38215 0.83343 0.0
H1546 H 0.40048 0.41123 0.84113 0.0
C1547 C 0.46884 0.50159 0.8579 0.0
C1548 C 0.46174 0.45048 0.83323 0.0
H1549 H 0.41167 0.43785 0.80829 0.0
C1550 C 0.47567 0.43062 0.84036 0.0
C1551 C 0.43846 0.45311 0.82136 0.0
C1552 C 0.42315 0.47392 0.81236 0.0
C1553 C 0.46672 0.41337 0.83636 0.0
C1554 C 0.44342 0.41602 0.82453 0.0
C1555 C 0.42951 0.43587 0.81737 0.0
C1556 C 0.43305 0.3984 0.81953 0.0
C1557 C 0.48203 0.39256 0.84534 0.0
C1558 C 0.44548 0.38169 0.80449 0.0
C1559 C 0.43568 0.36508 0.79994 0.0
C1560 C 0.41316 0.36491 0.81022 0.0
C1561 C 0.40058 0.38186 0.82499 0.0
C1562 C 0.41041 0.39845 0.82953 0.0
H1563 H 0.49609 0.3941 0.85919 0.0
H1564 H 0.47001 0.38406 0.85317 0.0
H1565 H 0.49201 0.38311 0.82998 0.0
H1566 H 0.46269 0.38156 0.79613 0.0
H1567 H 0.44562 0.35246 0.78815 0.0
H1568 H 0.57159 0.50404 0.75355 0.0
H1569 H 0.60792 0.47445 0.74488 0.0
H1570 H 0.64451 0.48848 0.80984 0.0
H1571 H 0.60886 0.51828 0.81821 0.0
H1572 H 0.67702 0.47616 0.77338 0.0
H1573 H 0.62075 0.42131 0.78121 0.0
H1574 H 0.61018 0.44004 0.75806 0.0
H1575 H 0.60886 0.44843 0.78923 0.0
C1576 C 0.58749 0.50096 0.76582 0.0
C1577 C 0.58715 0.51341 0.78672 0.0
C1578 C 0.6082 0.48397 0.76092 0.0
C1579 C 0.62874 0.47897 0.77699 0.0
C1580 C 0.62886 0.49196 0.79721 0.0
H1581 H 0.72846 0.36018 0.80767 0.0
H1582 H 0.6981 0.39449 0.80729 0.0
C1583 C 0.60836 0.50899 0.80201 0.0
C1584 C 0.64955 0.45963 0.77381 0.0
H1585 H 0.66307 0.4069 0.77296 0.0
C1586 C 0.674 0.46099 0.77312 0.0
C1587 C 0.6456 0.43984 0.77379 0.0
C1588 C 0.61998 0.43721 0.77583 0.0
C1589 C 0.69459 0.44314 0.77291 0.0
C1590 C 0.69059 0.42338 0.77292 0.0
C1591 C 0.66613 0.42205 0.77296 0.0
C1592 C 0.71127 0.40381 0.77441 0.0
C1593 C 0.72041 0.44561 0.7737 0.0
C1594 C 0.72926 0.39777 0.75639 0.0
C1595 C 0.74698 0.37823 0.7569 0.0
C1596 C 0.74675 0.36447 0.77528 0.0
C1597 C 0.72919 0.3707 0.79353 0.0
C1598 C 0.71177 0.39023 0.79321 0.0
H1599 H 0.72032 0.46155 0.77947 0.0
H1600 H 0.73278 0.43444 0.7862 0.0
H1601 H 0.72835 0.44249 0.7554 0.0
H1602 H 0.72889 0.40773 0.74137 0.0
H1603 H 0.75974 0.37342 0.74216 0.0
H1604 H 0.64601 0.48268 0.17212 0.0
H1605 H 0.67537 0.45075 0.18581 0.0
H1606 H 0.64796 0.46422 0.25816 0.0
H1607 H 0.61777 0.49627 0.24436 0.0
H1608 H 0.71304 0.44283 0.21927 0.0
H1609 H 0.64039 0.40677 0.24486 0.0
H1610 H 0.6332 0.4302 0.22784 0.0
H1611 H 0.63905 0.43106 0.25983 0.0
C1612 C 0.64618 0.47899 0.191 0.0
C1613 C 0.62933 0.49197 0.20711 0.0
C1614 C 0.66309 0.46069 0.19881 0.0
C1615 C 0.66363 0.45488 0.22291 0.0
C1616 C 0.64751 0.46817 0.23935 0.0
H1617 H 0.75304 0.33631 0.2817 0.0
H1618 H 0.7276 0.37253 0.27868 0.0
C1619 C 0.6304 0.48654 0.23149 0.0
C1620 C 0.68077 0.43462 0.23023 0.0
H1621 H 0.68204 0.38662 0.24924 0.0
C1622 C 0.70627 0.4306 0.22603 0.0
C1623 C 0.67192 0.41864 0.23901 0.0
C1624 C 0.64464 0.42173 0.243 0.0
C1625 C 0.72305 0.41095 0.22983 0.0
C1626 C 0.71408 0.39487 0.23789 0.0
C1627 C 0.68879 0.39903 0.24301 0.0
C1628 C 0.7304 0.37332 0.23991 0.0
C1629 C 0.75022 0.40744 0.22494 0.0
C1630 C 0.74029 0.36179 0.21911 0.0
C1631 C 0.75473 0.34113 0.2208 0.0
C1632 C 0.75954 0.33172 0.24333 0.0
C1633 C 0.74978 0.34331 0.26415 0.0
C1634 C 0.7352 0.36393 0.26244 0.0
H1635 H 0.75503 0.42227 0.22443 0.0
H1636 H 0.76206 0.39754 0.23891 0.0
H1637 H 0.75466 0.39933 0.20718 0.0
H1638 H 0.73648 0.3687 0.20151 0.0
H1639 H 0.76202 0.3325 0.20449 0.0
H1640 H 0.60502 0.60298 0.20739 0.0
H1641 H 0.62837 0.62806 0.21382 0.0
H1642 H 0.65569 0.61605 0.1413 0.0
H1643 H 0.63203 0.59095 0.13467 0.0
H1644 H 0.67824 0.6227 0.21222 0.0
H1645 H 0.62832 0.67872 0.1433 0.0
H1646 H 0.61696 0.65791 0.15296 0.0
H1647 H 0.64185 0.65278 0.13188 0.0
C1648 C 0.6161 0.60555 0.19284 0.0
C1649 C 0.6167 0.59495 0.17051 0.0
C1650 C 0.62937 0.61997 0.19651 0.0
C1651 C 0.64355 0.62413 0.17797 0.0
C1652 C 0.64444 0.61343 0.1557 0.0
H1653 H 0.73198 0.71177 0.17902 0.0
H1654 H 0.71545 0.68262 0.16876 0.0
C1655 C 0.63097 0.59907 0.15194 0.0
C1656 C 0.65748 0.63954 0.1823 0.0
H1657 H 0.66206 0.68617 0.1641 0.0
C1658 C 0.67475 0.63654 0.20164 0.0
C1659 C 0.65293 0.65759 0.16846 0.0
C1660 C 0.63386 0.66211 0.14812 0.0
C1661 C 0.68737 0.65121 0.20768 0.0
C1662 C 0.68248 0.66937 0.19412 0.0
C1663 C 0.66575 0.67216 0.1744 0.0
C1664 C 0.69355 0.6862 0.20089 0.0
C1665 C 0.70578 0.64723 0.22857 0.0
C1666 C 0.68665 0.69781 0.22234 0.0
C1667 C 0.69597 0.71446 0.2282 0.0
C1668 C 0.71241 0.71976 0.21273 0.0
C1669 C 0.71958 0.70789 0.19142 0.0
C1670 C 0.71007 0.69133 0.18547 0.0
H1671 H 0.71166 0.63066 0.23354 0.0
H1672 H 0.72251 0.65189 0.2242 0.0
H1673 H 0.69706 0.65661 0.24452 0.0
H1674 H 0.67369 0.69422 0.23433 0.0
H1675 H 0.69023 0.72325 0.24479 0.0
H1676 H 0.52745 0.59248 0.24738 0.0
H1677 H 0.49763 0.6244 0.263 0.0
H1678 H 0.45037 0.62518 0.20025 0.0
H1679 H 0.47971 0.59366 0.18461 0.0
H1680 H 0.46755 0.66179 0.20987 0.0
H1681 H 0.42334 0.63818 0.2884 0.0
H1682 H 0.45661 0.62838 0.28573 0.0
H1683 H 0.43683 0.62016 0.26421 0.0
C1684 C 0.51044 0.59925 0.23721 0.0
C1685 C 0.50606 0.59067 0.21465 0.0
C1686 C 0.49343 0.61742 0.24617 0.0
C1687 C 0.47181 0.62708 0.23276 0.0
C1688 C 0.46693 0.61795 0.21086 0.0
H1689 H 0.34382 0.73447 0.24437 0.0
H1690 H 0.37228 0.69909 0.2425 0.0
C1691 C 0.48381 0.59994 0.20193 0.0
C1692 C 0.45552 0.64784 0.23978 0.0
H1693 H 0.41034 0.67368 0.27883 0.0
C1694 C 0.45517 0.66444 0.22505 0.0
C1695 C 0.4393 0.65111 0.25947 0.0
C1696 C 0.43878 0.63357 0.27541 0.0
C1697 C 0.43884 0.68423 0.2293 0.0
C1698 C 0.42257 0.68758 0.24896 0.0
C1699 C 0.42295 0.67103 0.26384 0.0
C1700 C 0.40481 0.70822 0.25372 0.0
C1701 C 0.43866 0.70136 0.21235 0.0
C1702 C 0.41362 0.72488 0.26125 0.0
C1703 C 0.39749 0.74498 0.26227 0.0
C1704 C 0.37227 0.74876 0.25581 0.0
C1705 C 0.36318 0.73196 0.24943 0.0
C1706 C 0.37938 0.71178 0.24842 0.0
H1707 H 0.44905 0.69534 0.19563 0.0
H1708 H 0.41931 0.71013 0.20726 0.0
H1709 H 0.44748 0.71235 0.22156 0.0
H1710 H 0.43317 0.72239 0.26554 0.0
H1711 H 0.40491 0.75765 0.26752 0.0
H1712 H 0.49217 0.51471 0.20945 0.0
H1713 H 0.46709 0.49304 0.22167 0.0
H1714 H 0.48927 0.45374 0.15848 0.0
H1715 H 0.51577 0.47459 0.14683 0.0
H1716 H 0.42862 0.48317 0.20213 0.0
H1717 H 0.5076 0.41179 0.21067 0.0
H1718 H 0.51199 0.43683 0.20617 0.0
H1719 H 0.5043 0.42217 0.18098 0.0
C1720 C 0.4921 0.50132 0.19824 0.0
C1721 C 0.50661 0.4962 0.1774 0.0
C1722 C 0.47748 0.48904 0.20517 0.0
C1723 C 0.47678 0.47145 0.19134 0.0
C1724 C 0.49011 0.46689 0.16983 0.0
H1725 H 0.369 0.40347 0.20739 0.0
H1726 H 0.39129 0.42771 0.19586 0.0
C1727 C 0.50503 0.47904 0.16302 0.0
C1728 C 0.4623 0.45786 0.19972 0.0
H1729 H 0.46721 0.40803 0.21424 0.0
C1730 C 0.43707 0.46675 0.20485 0.0
C1731 C 0.47346 0.43652 0.20377 0.0
C1732 C 0.50087 0.42629 0.20036 0.0
C1733 C 0.42261 0.45484 0.21363 0.0
C1734 C 0.4335 0.43332 0.21665 0.0
C1735 C 0.4588 0.4245 0.21177 0.0
C1736 C 0.41906 0.41954 0.22457 0.0
C1737 C 0.39599 0.4656 0.22009 0.0
C1738 C 0.42749 0.40654 0.24426 0.0
C1739 C 0.41499 0.39241 0.25063 0.0
C1740 C 0.39372 0.39115 0.23752 0.0
C1741 C 0.38504 0.40443 0.21812 0.0
C1742 C 0.39773 0.41834 0.21156 0.0
H1743 H 0.39313 0.48232 0.22436 0.0
H1744 H 0.38366 0.46443 0.20448 0.0
H1745 H 0.39028 0.45842 0.23583 0.0
H1746 H 0.44397 0.40714 0.25451 0.0
H1747 H 0.42205 0.38233 0.26565 0.0
H1748 H 0.77164 0.61713 0.57736 0.0
H1749 H 0.77527 0.63576 0.61558 0.0
H1750 H 0.79482 0.68272 0.57639 0.0
H1751 H 0.79151 0.66431 0.53843 0.0
H1752 H 0.82342 0.64994 0.63029 0.0
H1753 H 0.73315 0.71178 0.62358 0.0
H1754 H 0.73797 0.68645 0.60939 0.0
H1755 H 0.75103 0.70491 0.59655 0.0
C1756 C 0.77652 0.6315 0.57692 0.0
C1757 C 0.78131 0.63923 0.55487 0.0
C1758 C 0.77868 0.64205 0.59872 0.0
C1759 C 0.78528 0.66059 0.5987 0.0
C1760 C 0.78965 0.66846 0.57673 0.0
H1761 H 0.83659 0.7399 0.69907 0.0
H1762 H 0.83369 0.71397 0.66803 0.0
C1763 C 0.78776 0.65788 0.55507 0.0
C1764 C 0.78816 0.67177 0.6215 0.0
H1765 H 0.76185 0.71638 0.65364 0.0
C1766 C 0.80987 0.66434 0.63562 0.0
C1767 C 0.77045 0.69054 0.62828 0.0
C1768 C 0.74671 0.69895 0.61381 0.0
C1769 C 0.81462 0.67555 0.65611 0.0
C1770 C 0.79725 0.69467 0.66246 0.0
C1771 C 0.7752 0.70175 0.64868 0.0
C1772 C 0.80152 0.70787 0.68308 0.0
C1773 C 0.83815 0.66693 0.67078 0.0
C1774 C 0.78472 0.71274 0.70206 0.0
C1775 C 0.78636 0.72745 0.71981 0.0
C1776 C 0.80473 0.73781 0.71885 0.0
C1777 C 0.82238 0.73211 0.70051 0.0
C1778 C 0.82073 0.71729 0.68273 0.0
H1779 H 0.84658 0.65011 0.66698 0.0
H1780 H 0.85186 0.67511 0.66624 0.0
H1781 H 0.8345 0.66938 0.69039 0.0
H1782 H 0.76976 0.70566 0.70267 0.0
H1783 H 0.77247 0.73136 0.73368 0.0
H1784 H 0.48176 0.79469 0.56996 0.0
H1785 H 0.45158 0.79004 0.59854 0.0
H1786 H 0.43236 0.85506 0.6181 0.0
H1787 H 0.46214 0.85985 0.58915 0.0
H1788 H 0.44769 0.79475 0.64587 0.0
H1789 H 0.3645 0.84962 0.605 0.0
H1790 H 0.39399 0.84167 0.59015 0.0
H1791 H 0.38797 0.8619 0.61314 0.0
C1792 C 0.47118 0.80801 0.58038 0.0
C1793 C 0.47436 0.8277 0.57708 0.0
C1794 C 0.4538 0.80534 0.59671 0.0
C1795 C 0.43913 0.82225 0.61026 0.0
C1796 C 0.44273 0.84183 0.6074 0.0
H1797 H 0.33725 0.83953 0.72835 0.0
H1798 H 0.36654 0.84169 0.6976 0.0
C1799 C 0.45991 0.84456 0.59087 0.0
C1800 C 0.42054 0.8193 0.62766 0.0
H1801 H 0.35972 0.83798 0.64434 0.0
C1802 C 0.42841 0.80409 0.64533 0.0
C1803 C 0.39522 0.83132 0.62704 0.0
C1804 C 0.38484 0.84688 0.60766 0.0
C1805 C 0.41199 0.80106 0.66266 0.0
C1806 C 0.38693 0.81349 0.6624 0.0
C1807 C 0.37894 0.82849 0.64462 0.0
C1808 C 0.36898 0.81176 0.68104 0.0
C1809 C 0.42167 0.78496 0.68159 0.0
C1810 C 0.3603 0.79424 0.68193 0.0
C1811 C 0.34325 0.79298 0.6995 0.0
C1812 C 0.33467 0.80917 0.71668 0.0
C1813 C 0.34345 0.82667 0.7156 0.0
C1814 C 0.36022 0.82799 0.69794 0.0
H1815 H 0.44226 0.77873 0.68155 0.0
H1816 H 0.41586 0.79163 0.69981 0.0
H1817 H 0.41366 0.7719 0.67815 0.0
H1818 H 0.36659 0.78159 0.66894 0.0
H1819 H 0.33695 0.77927 0.69972 0.0
H1820 H 0.37694 0.43038 0.60756 0.0
H1821 H 0.36264 0.41349 0.64024 0.0
H1822 H 0.2904 0.42596 0.60559 0.0
H1823 H 0.30472 0.44241 0.5725 0.0
H1824 H 0.3214 0.43058 0.67159 0.0
H1825 H 0.31125 0.36286 0.61675 0.0
H1826 H 0.32882 0.37945 0.60668 0.0
H1827 H 0.29548 0.38798 0.60521 0.0
C1828 C 0.3581 0.42934 0.60671 0.0
C1829 C 0.34204 0.43767 0.58729 0.0
C1830 C 0.34989 0.41984 0.62552 0.0
C1831 C 0.32554 0.41832 0.62522 0.0
C1832 C 0.30936 0.42676 0.60602 0.0
H1833 H 0.26311 0.34737 0.72273 0.0
H1834 H 0.26536 0.37266 0.69271 0.0
C1835 C 0.31753 0.43632 0.58722 0.0
C1836 C 0.31724 0.40779 0.64501 0.0
H1837 H 0.30056 0.36452 0.65761 0.0
C1838 C 0.31669 0.4162 0.66854 0.0
C1839 C 0.3109 0.38914 0.64093 0.0
C1840 C 0.31176 0.37917 0.61609 0.0
C1841 C 0.31034 0.40626 0.6882 0.0
C1842 C 0.30489 0.38721 0.68425 0.0
C1843 C 0.30465 0.37917 0.6606 0.0
C1844 C 0.30175 0.37433 0.70446 0.0
C1845 C 0.30962 0.41623 0.71301 0.0
C1846 C 0.32127 0.36714 0.72124 0.0
C1847 C 0.32003 0.35279 0.73837 0.0
C1848 C 0.29929 0.34516 0.739 0.0
C1849 C 0.27926 0.35303 0.72285 0.0
C1850 C 0.28056 0.36741 0.70562 0.0
H1851 H 0.30581 0.4333 0.71199 0.0
H1852 H 0.29525 0.41292 0.72422 0.0
H1853 H 0.32798 0.41002 0.72217 0.0
H1854 H 0.33804 0.37188 0.7204 0.0
H1855 H 0.33584 0.34704 0.75047 0.0
H1856 H 0.57873 0.31953 0.57186 0.0
H1857 H 0.60751 0.33086 0.59977 0.0
H1858 H 0.66381 0.27293 0.58673 0.0
H1859 H 0.63575 0.26178 0.55909 0.0
H1860 H 0.62994 0.31247 0.64223 0.0
H1861 H 0.70291 0.31392 0.57843 0.0
H1862 H 0.67228 0.31331 0.56846 0.0
H1863 H 0.69565 0.28974 0.57639 0.0
C1864 C 0.59738 0.30941 0.57467 0.0
C1865 C 0.60484 0.28975 0.56313 0.0
C1866 C 0.61381 0.31584 0.59071 0.0
C1867 C 0.6381 0.30289 0.59515 0.0
C1868 C 0.6455 0.28346 0.58331 0.0
H1869 H 0.73714 0.28719 0.71829 0.0
H1870 H 0.7055 0.28727 0.6873 0.0
C1871 C 0.62922 0.27703 0.56756 0.0
C1872 C 0.65549 0.30872 0.61312 0.0
H1873 H 0.71559 0.31029 0.62042 0.0
C1874 C 0.64852 0.31232 0.63737 0.0
C1875 C 0.67974 0.30885 0.60693 0.0
C1876 C 0.68801 0.30647 0.58108 0.0
C1877 C 0.66545 0.31491 0.65562 0.0
C1878 C 0.69026 0.31348 0.64965 0.0
C1879 C 0.69679 0.31105 0.62522 0.0
C1880 C 0.70991 0.31355 0.6685 0.0
C1881 C 0.65652 0.31905 0.6812 0.0
C1882 C 0.72387 0.32779 0.66796 0.0
C1883 C 0.74234 0.32766 0.68568 0.0
C1884 C 0.74743 0.31318 0.70429 0.0
C1885 C 0.73374 0.2987 0.70444 0.0
C1886 C 0.71537 0.29883 0.68677 0.0
H1887 H 0.6361 0.32638 0.68166 0.0
H1888 H 0.66071 0.30415 0.69067 0.0
H1889 H 0.66588 0.32928 0.69123 0.0
H1890 H 0.72027 0.3392 0.65398 0.0
H1891 H 0.75244 0.33905 0.68491 0.0
H1892 H 0.74285 0.54599 0.50371 0.0
H1893 H 0.73951 0.51136 0.49271 0.0
H1894 H 0.73363 0.52702 0.41749 0.0
H1895 H 0.73573 0.56162 0.42834 0.0
H1896 H 0.7063 0.50222 0.42539 0.0
H1897 H 0.79999 0.46939 0.46762 0.0
H1898 H 0.776 0.48296 0.48783 0.0
H1899 H 0.78604 0.49688 0.46496 0.0
C1900 C 0.74008 0.54222 0.4849 0.0
C1901 C 0.73994 0.55647 0.46687 0.0
C1902 C 0.7385 0.52232 0.4786 0.0
C1903 C 0.73712 0.5163 0.45418 0.0
C1904 C 0.7349 0.53114 0.43643 0.0
H1905 H 0.80662 0.40941 0.3733 0.0
H1906 H 0.79218 0.44113 0.39769 0.0
C1907 C 0.7362 0.55098 0.44269 0.0
C1908 C 0.74036 0.49434 0.44642 0.0
H1909 H 0.78355 0.44675 0.4447 0.0
C1910 C 0.72302 0.48998 0.42987 0.0
C1911 C 0.76229 0.47837 0.45215 0.0
C1912 C 0.78227 0.48207 0.46894 0.0
C1913 C 0.72768 0.47061 0.4178 0.0
C1914 C 0.74997 0.45489 0.42299 0.0
C1915 C 0.76651 0.45882 0.44069 0.0
C1916 C 0.75814 0.43529 0.40834 0.0
C1917 C 0.70947 0.46767 0.39848 0.0
C1918 C 0.74384 0.42132 0.4061 0.0
C1919 C 0.75201 0.40316 0.39182 0.0
C1920 C 0.77484 0.39849 0.37998 0.0
C1921 C 0.78913 0.41242 0.38247 0.0
C1922 C 0.78086 0.43059 0.3964 0.0
H1923 H 0.69605 0.48261 0.39322 0.0
H1924 H 0.71934 0.45998 0.38211 0.0
H1925 H 0.69874 0.45767 0.40535 0.0
H1926 H 0.7265 0.42436 0.41551 0.0
H1927 H 0.74072 0.39261 0.39034 0.0
H1928 H 0.62059 0.79565 0.45074 0.0
H1929 H 0.65126 0.79234 0.41936 0.0
H1930 H 0.63982 0.85832 0.42299 0.0
H1931 H 0.60897 0.86187 0.45418 0.0
H1932 H 0.64828 0.80982 0.37347 0.0
H1933 H 0.71508 0.83519 0.43347 0.0
H1934 H 0.68906 0.82809 0.44493 0.0
H1935 H 0.68446 0.85317 0.43229 0.0
C1936 C 0.62431 0.80955 0.4448 0.0
C1937 C 0.61221 0.82905 0.45539 0.0
C1938 C 0.64202 0.80759 0.4268 0.0
C1939 C 0.64827 0.82501 0.41897 0.0
C1940 C 0.63582 0.84454 0.42903 0.0
H1941 H 0.73705 0.83078 0.2917 0.0
H1942 H 0.70273 0.83468 0.31972 0.0
C1943 C 0.6181 0.84654 0.44698 0.0
C1944 C 0.66799 0.82273 0.40058 0.0
H1945 H 0.72464 0.83046 0.39202 0.0
C1946 C 0.66496 0.81436 0.37753 0.0
C1947 C 0.68998 0.8284 0.40584 0.0
C1948 C 0.69505 0.83654 0.43052 0.0
C1949 C 0.6831 0.81172 0.35965 0.0
C1950 C 0.70485 0.81778 0.36478 0.0
C1951 C 0.70793 0.82598 0.3879 0.0
C1952 C 0.72521 0.81492 0.34695 0.0
C1953 C 0.6791 0.80197 0.33559 0.0
C1954 C 0.74938 0.8027 0.35282 0.0
C1955 C 0.76893 0.80055 0.33691 0.0
C1956 C 0.76494 0.81066 0.3147 0.0
C1957 C 0.74072 0.82272 0.3086 0.0
C1958 C 0.72106 0.82487 0.3246 0.0
H1959 H 0.66465 0.79377 0.33643 0.0
H1960 H 0.67292 0.81425 0.32203 0.0
H1961 H 0.69664 0.7908 0.32929 0.0
H1962 H 0.75317 0.79483 0.36985 0.0
H1963 H 0.78732 0.79106 0.34216 0.0
H1964 H 0.39285 0.51979 0.43282 0.0
H1965 H 0.39015 0.55198 0.41239 0.0
H1966 H 0.37172 0.58628 0.47965 0.0
H1967 H 0.37395 0.55412 0.50001 0.0
H1968 H 0.33859 0.60216 0.44561 0.0
H1969 H 0.43205 0.59097 0.40886 0.0
H1970 H 0.41976 0.56999 0.40026 0.0
H1971 H 0.42617 0.57452 0.43163 0.0
C1972 C 0.38892 0.53411 0.44336 0.0
C1973 C 0.38351 0.53446 0.46799 0.0
C1974 C 0.38746 0.55253 0.43168 0.0
C1975 C 0.38098 0.57158 0.4445 0.0
C1976 C 0.37678 0.57179 0.46937 0.0
H1977 H 0.36535 0.69126 0.3765 0.0
H1978 H 0.38035 0.66087 0.40212 0.0
C1979 C 0.378 0.55343 0.48097 0.0
C1980 C 0.37561 0.59141 0.43155 0.0
H1981 H 0.39857 0.61749 0.39051 0.0
C1982 C 0.35188 0.6056 0.43384 0.0
C1983 C 0.39297 0.59609 0.41638 0.0
C1984 C 0.41924 0.58217 0.41432 0.0
C1985 C 0.34471 0.62387 0.42069 0.0
C1986 C 0.3615 0.62788 0.40435 0.0
C1987 C 0.38561 0.61422 0.4028 0.0
C1988 C 0.35374 0.64568 0.38798 0.0
C1989 C 0.31908 0.63865 0.42428 0.0
C1990 C 0.33434 0.64688 0.37113 0.0
C1991 C 0.32579 0.6641 0.35657 0.0
C1992 C 0.33656 0.68048 0.35842 0.0
C1993 C 0.35669 0.67889 0.37465 0.0
C1994 C 0.36523 0.66159 0.38932 0.0
H1995 H 0.31152 0.63654 0.442 0.0
H1996 H 0.31927 0.65501 0.42316 0.0
H1997 H 0.3063 0.63565 0.40995 0.0
H1998 H 0.32562 0.63454 0.3694 0.0
H1999 H 0.31067 0.6646 0.34384 0.0
H2000 H 0.46416 0.26638 0.4863 0.0
H2001 H 0.43233 0.27463 0.45437 0.0
H2002 H 0.46567 0.31878 0.42612 0.0
H2003 H 0.49782 0.31064 0.45851 0.0
H2004 H 0.39778 0.31571 0.44088 0.0
H2005 H 0.46243 0.27625 0.36829 0.0
H2006 H 0.46953 0.27051 0.39974 0.0
H2007 H 0.47127 0.29458 0.3883 0.0
C2008 C 0.46464 0.27806 0.47351 0.0
C2009 C 0.48362 0.28784 0.47503 0.0
C2010 C 0.44638 0.28274 0.45519 0.0
C2011 C 0.44669 0.29713 0.43759 0.0
C2012 C 0.46515 0.30746 0.43935 0.0
H2013 H 0.34898 0.31652 0.30613 0.0
H2014 H 0.38244 0.31792 0.33523 0.0
C2015 C 0.48339 0.30295 0.45801 0.0
C2016 C 0.4278 0.30069 0.41738 0.0
H2017 H 0.41993 0.28809 0.35793 0.0
C2018 C 0.40267 0.3099 0.42267 0.0
C2019 C 0.43409 0.29322 0.39354 0.0
C2020 C 0.46075 0.28298 0.38693 0.0
C2021 C 0.38371 0.31144 0.40503 0.0
C2022 C 0.38984 0.30294 0.38149 0.0
C2023 C 0.41509 0.29448 0.37592 0.0
C2024 C 0.37024 0.30154 0.36309 0.0
C2025 C 0.35723 0.32222 0.41189 0.0
C2026 C 0.3526 0.29136 0.36857 0.0
C2027 C 0.33362 0.29054 0.35201 0.0
C2028 C 0.3319 0.29957 0.32927 0.0
C2029 C 0.34997 0.30919 0.32334 0.0
C2030 C 0.36901 0.3101 0.34006 0.0
H2031 H 0.35642 0.33369 0.4269 0.0
H2032 H 0.34615 0.33032 0.39632 0.0
H2033 H 0.3485 0.31056 0.41813 0.0
H2034 H 0.35341 0.28408 0.38583 0.0
H2035 H 0.32009 0.28293 0.35713 0.0
H2036 H 0.64823 0.77026 0.54458 0.0
H2037 H 0.67396 0.76987 0.58098 0.0
H2038 H 0.6081 0.79217 0.62349 0.0
H2039 H 0.58217 0.79248 0.58726 0.0
H2040 H 0.64264 0.81677 0.62651 0.0
H2041 H 0.6889 0.73355 0.64238 0.0
H2042 H 0.68952 0.74112 0.61167 0.0
H2043 H 0.66031 0.74249 0.62496 0.0
C2044 C 0.63919 0.7746 0.56174 0.0
C2045 C 0.61312 0.78147 0.56294 0.0
C2046 C 0.65394 0.77431 0.58255 0.0
C2047 C 0.64293 0.78091 0.60494 0.0
C2048 C 0.61695 0.78693 0.60641 0.0
H2049 H 0.72483 0.81778 0.72994 0.0
H2050 H 0.68977 0.81143 0.70644 0.0
C2051 C 0.60218 0.78703 0.58565 0.0
C2052 C 0.65851 0.78365 0.6261 0.0
H2053 H 0.70733 0.75775 0.6618 0.0
C2054 C 0.65653 0.80388 0.63459 0.0
C2055 C 0.67652 0.76679 0.63653 0.0
C2056 C 0.67888 0.74473 0.6286 0.0
C2057 C 0.67321 0.80783 0.65216 0.0
C2058 C 0.69194 0.791 0.66196 0.0
C2059 C 0.69299 0.77067 0.65434 0.0
C2060 C 0.71258 0.79414 0.67755 0.0
C2061 C 0.67159 0.83004 0.65884 0.0
C2062 C 0.737 0.78604 0.66958 0.0
C2063 C 0.75682 0.78932 0.68306 0.0
C2064 C 0.7528 0.8008 0.70494 0.0
C2065 C 0.72841 0.80882 0.71318 0.0
C2066 C 0.70842 0.80534 0.69967 0.0
H2067 H 0.65941 0.8411 0.64608 0.0
H2068 H 0.66375 0.8338 0.67712 0.0
H2069 H 0.6903 0.83245 0.65917 0.0
H2070 H 0.74076 0.77739 0.65262 0.0
H2071 H 0.77539 0.78282 0.67622 0.0
H2072 H 0.63065 0.27416 0.47586 0.0
H2073 H 0.6615 0.27742 0.44736 0.0
H2074 H 0.64359 0.23154 0.40019 0.0
H2075 H 0.61201 0.22872 0.42818 0.0
H2076 H 0.70326 0.24797 0.42969 0.0
H2077 H 0.63589 0.28008 0.35556 0.0
H2078 H 0.62637 0.27847 0.38607 0.0
H2079 H 0.63405 0.25583 0.36652 0.0
C2080 C 0.63302 0.26492 0.45932 0.0
C2081 C 0.61857 0.25136 0.45422 0.0
C2082 C 0.65084 0.26668 0.44313 0.0
C2083 C 0.65454 0.25499 0.42147 0.0
C2084 C 0.64068 0.24101 0.41659 0.0
H2085 H 0.75038 0.24897 0.29971 0.0
H2086 H 0.72188 0.24273 0.32901 0.0
C2087 C 0.62281 0.23925 0.43276 0.0
C2088 C 0.67289 0.2575 0.40403 0.0
H2089 H 0.67859 0.27201 0.34654 0.0
C2090 C 0.69789 0.25326 0.41152 0.0
C2091 C 0.66579 0.26444 0.38036 0.0
C2092 C 0.63905 0.27016 0.37165 0.0
C2093 C 0.71605 0.25552 0.39585 0.0
C2094 C 0.70893 0.26248 0.3722 0.0
C2095 C 0.68397 0.26662 0.36468 0.0
C2096 C 0.72701 0.26579 0.355 0.0
C2097 C 0.74276 0.25015 0.40458 0.0
C2098 C 0.73924 0.28092 0.35988 0.0
C2099 C 0.75554 0.28457 0.34316 0.0
C2100 C 0.75984 0.2732 0.32119 0.0
C2101 C 0.74759 0.25799 0.31644 0.0
C2102 C 0.73126 0.2544 0.33315 0.0
H2103 H 0.74606 0.24029 0.42072 0.0
H2104 H 0.75552 0.24193 0.39018 0.0
H2105 H 0.74746 0.26463 0.40958 0.0
H2106 H 0.73585 0.29016 0.37645 0.0
H2107 H 0.76455 0.29647 0.34738 0.0
H2108 H 0.74679 0.65542 0.40345 0.0
H2109 H 0.76321 0.67159 0.37168 0.0
H2110 H 0.8368 0.6494 0.40319 0.0
H2111 H 0.8204 0.63338 0.43549 0.0
H2112 H 0.79041 0.70244 0.3847 0.0
H2113 H 0.84319 0.6358 0.32712 0.0
H2114 H 0.81782 0.63426 0.34555 0.0
H2115 H 0.84699 0.63415 0.35947 0.0
C2116 C 0.76648 0.65391 0.40367 0.0
C2117 C 0.78222 0.64333 0.42221 0.0
C2118 C 0.77585 0.66301 0.38537 0.0
C2119 C 0.80119 0.66159 0.38509 0.0
C2120 C 0.81722 0.65041 0.40299 0.0
H2121 H 0.85674 0.74716 0.305 0.0
H2122 H 0.8571 0.71881 0.33157 0.0
C2123 C 0.80782 0.64128 0.4214 0.0
C2124 C 0.81004 0.67357 0.36735 0.0
H2125 H 0.84172 0.66939 0.31485 0.0
C2126 C 0.80186 0.69524 0.36958 0.0
C2127 C 0.8249 0.66402 0.34768 0.0
C2128 C 0.83376 0.64077 0.34456 0.0
C2129 C 0.80772 0.70769 0.35234 0.0
C2130 C 0.82219 0.6982 0.33241 0.0
C2131 C 0.8308 0.67652 0.33031 0.0
C2132 C 0.82667 0.71098 0.31292 0.0
C2133 C 0.79779 0.73098 0.35507 0.0
C2134 C 0.81018 0.71519 0.29305 0.0
C2135 C 0.80978 0.73144 0.27792 0.0
C2136 C 0.82591 0.74369 0.28247 0.0
C2137 C 0.84407 0.73805 0.30099 0.0
C2138 C 0.84433 0.72185 0.31621 0.0
H2139 H 0.78566 0.73587 0.37096 0.0
H2140 H 0.81352 0.73776 0.35714 0.0
H2141 H 0.78698 0.73751 0.33862 0.0
H2142 H 0.79636 0.70697 0.29035 0.0
H2143 H 0.79569 0.73529 0.26371 0.0
H2144 H 0.5262 0.79225 0.44882 0.0
H2145 H 0.49548 0.79239 0.41683 0.0
H2146 H 0.45656 0.7633 0.46384 0.0
H2147 H 0.4869 0.76359 0.49628 0.0
H2148 H 0.4785 0.76313 0.39284 0.0
H2149 H 0.40305 0.81604 0.44657 0.0
H2150 H 0.43539 0.81034 0.45545 0.0
H2151 H 0.41844 0.79214 0.46102 0.0
C2152 C 0.51133 0.7856 0.45233 0.0
C2153 C 0.50883 0.77817 0.47528 0.0
C2154 C 0.49374 0.78572 0.43398 0.0
C2155 C 0.47334 0.77838 0.43815 0.0
C2156 C 0.47176 0.76959 0.46045 0.0
H2157 H 0.35146 0.76924 0.34276 0.0
H2158 H 0.38265 0.76517 0.37532 0.0
C2159 C 0.48927 0.76958 0.47891 0.0
C2160 C 0.45329 0.78082 0.41948 0.0
H2161 H 0.39134 0.80393 0.40882 0.0
C2162 C 0.45946 0.77203 0.39635 0.0
C2163 C 0.42846 0.79266 0.42401 0.0
C2164 C 0.42091 0.80351 0.44802 0.0
C2165 C 0.44142 0.77459 0.37775 0.0
C2166 C 0.41667 0.78624 0.3824 0.0
C2167 C 0.4104 0.79496 0.40545 0.0
C2168 C 0.39706 0.78952 0.36339 0.0
C2169 C 0.44877 0.76487 0.35318 0.0
C2170 C 0.39462 0.80485 0.34623 0.0
C2171 C 0.37669 0.80737 0.32767 0.0
C2172 C 0.36101 0.79448 0.32591 0.0
C2173 C 0.36322 0.77943 0.34353 0.0
C2174 C 0.38103 0.77704 0.36215 0.0
H2175 H 0.46839 0.75502 0.35293 0.0
H2176 H 0.43649 0.75528 0.3474 0.0
H2177 H 0.44629 0.77725 0.3398 0.0
H2178 H 0.40685 0.81465 0.34702 0.0
H2179 H 0.37558 0.81903 0.31436 0.0
H2180 H 0.28229 0.48591 0.45826 0.0
H2181 H 0.26118 0.47362 0.42401 0.0
H2182 H 0.31411 0.413 0.4287 0.0
H2183 H 0.33496 0.42493 0.46272 0.0
H2184 H 0.28149 0.45757 0.37962 0.0
H2185 H 0.24797 0.39971 0.42541 0.0
H2186 H 0.2576 0.41975 0.44178 0.0
H2187 H 0.28028 0.39615 0.43219 0.0
C2188 C 0.28918 0.46989 0.45215 0.0
C2189 C 0.31027 0.45638 0.46324 0.0
C2190 C 0.27714 0.46293 0.4326 0.0
C2191 C 0.28583 0.44231 0.42411 0.0
C2192 C 0.30672 0.42883 0.43531 0.0
H2193 H 0.30557 0.37448 0.29673 0.0
H2194 H 0.30091 0.40201 0.32706 0.0
C2195 C 0.31874 0.43575 0.45469 0.0
C2196 C 0.27445 0.43481 0.4026 0.0
H2197 H 0.25597 0.39326 0.38261 0.0
C2198 C 0.27528 0.44381 0.38027 0.0
C2199 C 0.26576 0.4172 0.40349 0.0
C2200 C 0.26258 0.4078 0.42708 0.0
C2201 C 0.26982 0.43449 0.35862 0.0
C2202 C 0.2639 0.41552 0.35939 0.0
C2203 C 0.26085 0.40765 0.38187 0.0
C2204 C 0.26409 0.4021 0.33758 0.0
C2205 C 0.2712 0.44476 0.33515 0.0
C2206 C 0.24483 0.39302 0.33304 0.0
C2207 C 0.24763 0.3769 0.31588 0.0
C2208 C 0.26979 0.36953 0.30299 0.0
C2209 C 0.28824 0.37971 0.30629 0.0
C2210 C 0.2855 0.39569 0.32356 0.0
H2211 H 0.26569 0.46189 0.33763 0.0
H2212 H 0.29067 0.43978 0.32892 0.0
H2213 H 0.25907 0.44062 0.32091 0.0
H2214 H 0.22817 0.39767 0.34369 0.0
H2215 H 0.233 0.36948 0.31373 0.0
H2216 H 0.46935 0.27372 0.57177 0.0
H2217 H 0.43861 0.27527 0.60274 0.0
H2218 H 0.49447 0.23286 0.64594 0.0
H2219 H 0.5254 0.23137 0.61517 0.0
H2220 H 0.42663 0.23807 0.62146 0.0
H2221 H 0.46098 0.28442 0.69183 0.0
H2222 H 0.46797 0.28493 0.66028 0.0
H2223 H 0.48334 0.26274 0.67772 0.0
C2224 C 0.47516 0.2649 0.58797 0.0
C2225 C 0.49983 0.25244 0.591 0.0
C2226 C 0.45756 0.26572 0.60558 0.0
C2227 C 0.46435 0.25431 0.62668 0.0
C2228 C 0.48894 0.24192 0.62987 0.0
H2229 H 0.3696 0.25351 0.75069 0.0
H2230 H 0.40603 0.2464 0.72458 0.0
C2231 C 0.50652 0.24096 0.61217 0.0
C2232 C 0.44541 0.25491 0.64493 0.0
H2233 H 0.42576 0.27412 0.701 0.0
C2234 C 0.42649 0.24585 0.63891 0.0
C2235 C 0.44552 0.26482 0.66777 0.0
C2236 C 0.46542 0.27491 0.67492 0.0
C2237 C 0.40736 0.24674 0.65497 0.0
C2238 C 0.40679 0.25747 0.67742 0.0
C2239 C 0.4262 0.26594 0.68379 0.0
C2240 C 0.38515 0.26151 0.6935 0.0
C2241 C 0.38789 0.2362 0.6477 0.0
C2242 C 0.36153 0.27264 0.68483 0.0
C2243 C 0.34093 0.27663 0.69957 0.0
C2244 C 0.34348 0.26981 0.72344 0.0
C2245 C 0.36716 0.25892 0.73235 0.0
C2246 C 0.38791 0.25486 0.71748 0.0
H2247 H 0.39516 0.22335 0.63438 0.0
H2248 H 0.38121 0.2299 0.66358 0.0
H2249 H 0.3718 0.24762 0.63912 0.0
H2250 H 0.35903 0.27839 0.66664 0.0
H2251 H 0.32295 0.28526 0.69228 0.0
H2252 H 0.81905 0.51548 0.48581 0.0
H2253 H 0.81939 0.48423 0.50738 0.0
H2254 H 0.85786 0.50396 0.56756 0.0
H2255 H 0.8578 0.53507 0.54602 0.0
H2256 H 0.87216 0.45961 0.55804 0.0
H2257 H 0.76988 0.49526 0.56377 0.0
H2258 H 0.78216 0.49132 0.53386 0.0
H2259 H 0.79047 0.50951 0.5543 0.0
C2260 C 0.82825 0.51278 0.50333 0.0
C2261 C 0.83819 0.52777 0.51433 0.0
C2262 C 0.82828 0.49505 0.51566 0.0
C2263 C 0.83807 0.49212 0.53924 0.0
C2264 C 0.85009 0.50603 0.54939 0.0
H2265 H 0.80361 0.43333 0.66229 0.0
H2266 H 0.80846 0.45672 0.63129 0.0
C2267 C 0.8502 0.52374 0.537 0.0
C2268 C 0.83331 0.47603 0.55435 0.0
H2269 H 0.78677 0.46329 0.58259 0.0
C2270 C 0.85351 0.46025 0.56324 0.0
C2271 C 0.80891 0.47716 0.56132 0.0
C2272 C 0.78657 0.49428 0.55302 0.0
C2273 C 0.84996 0.44556 0.57909 0.0
C2274 C 0.82559 0.44672 0.58606 0.0
C2275 C 0.80539 0.4624 0.57701 0.0
C2276 C 0.82084 0.43259 0.60395 0.0
C2277 C 0.87232 0.42933 0.58892 0.0
C2278 C 0.82544 0.41139 0.59853 0.0
C2279 C 0.82238 0.39799 0.61611 0.0
C2280 C 0.81473 0.40556 0.63946 0.0
C2281 C 0.80921 0.42698 0.64445 0.0
C2282 C 0.81217 0.44036 0.62683 0.0
H2283 H 0.89001 0.43263 0.5849 0.0
H2284 H 0.87106 0.42827 0.60876 0.0
H2285 H 0.87287 0.41399 0.58068 0.0
H2286 H 0.83172 0.40519 0.5808 0.0
H2287 H 0.82638 0.38164 0.61154 0.0
H2288 H 0.35003 0.53137 0.59465 0.0
H2289 H 0.34074 0.56623 0.61248 0.0
H2290 H 0.28961 0.58981 0.55356 0.0
H2291 H 0.29852 0.55475 0.53572 0.0
H2292 H 0.34946 0.59971 0.59048 0.0
H2293 H 0.24973 0.61607 0.61292 0.0
H2294 H 0.26929 0.59022 0.60613 0.0
H2295 H 0.25736 0.60797 0.58221 0.0
C2296 C 0.33651 0.54391 0.58565 0.0
C2297 C 0.32499 0.54034 0.56379 0.0
C2298 C 0.33128 0.56382 0.59584 0.0
C2299 C 0.31445 0.58057 0.58439 0.0
C2300 C 0.30236 0.57702 0.56288 0.0
H2301 H 0.26987 0.71123 0.62905 0.0
H2302 H 0.27776 0.67928 0.60447 0.0
C2303 C 0.30748 0.55701 0.55271 0.0
C2304 C 0.31081 0.60178 0.59448 0.0
H2305 H 0.26798 0.64314 0.62008 0.0
C2306 C 0.33162 0.60925 0.59689 0.0
C2307 C 0.2875 0.6142 0.60264 0.0
C2308 C 0.26469 0.60672 0.60107 0.0
C2309 C 0.32983 0.62872 0.60761 0.0
C2310 C 0.30669 0.64089 0.61636 0.0
C2311 C 0.28571 0.63371 0.61331 0.0
C2312 C 0.30403 0.6606 0.62994 0.0
C2313 C 0.35271 0.63609 0.60948 0.0
C2314 C 0.31648 0.66068 0.65223 0.0
C2315 C 0.31195 0.67886 0.66635 0.0
C2316 C 0.29474 0.69723 0.65849 0.0
C2317 C 0.28301 0.69725 0.63572 0.0
C2318 C 0.28753 0.67906 0.62163 0.0
H2319 H 0.36685 0.62789 0.59617 0.0
H2320 H 0.34796 0.65302 0.6066 0.0
H2321 H 0.36118 0.63296 0.6278 0.0
H2322 H 0.32893 0.64649 0.65915 0.0
H2323 H 0.32097 0.67825 0.68394 0.0
loop_
_geom_bond_atom_site_label_1
_geom_bond_atom_site_label_2
_geom_bond_distance
_geom_bond_site_symmetry_2
_ccdc_geom_bond_type
Cu0 N1 1.999 . S
Cu0 O6 1.974 . S
Cu0 N11 1.985 1_455 S
Cu0 O20 1.959 1_455 S
N1 Cu0 1.999 . S
N1 C3 1.263 . S
N1 C5 1.389 . S
N2 C3 1.358 . S
N2 C4 1.400 . S
C3 N1 1.263 . S
C3 N2 1.358 . S
C3 H9 0.930 . S
C4 N2 1.400 . S
C4 C5 1.351 . S
C4 H21 0.930 . S
C5 N1 1.389 . S
C5 C4 1.351 . S
C5 H10 0.930 . S
O6 Cu0 1.974 . S
O6 C16 1.282 . S
C7 O8 1.261 . S
C7 O20 1.251 . S
O8 C7 1.261 . S
H9 C3 0.930 . S
H10 C5 0.930 . S
N11 Cu0 1.985 1_655 S
N11 C13 1.335 . S
N11 C14 1.437 . S
N12 C13 1.345 . S
N12 C15 1.336 1_545 S
C13 N11 1.335 . S
C13 N12 1.345 . S
C13 H18 0.930 . S
C14 N11 1.437 . S
C14 C15 1.314 1_545 S
C14 H19 0.920 1_645 S
C15 N12 1.336 1_565 S
C15 C14 1.314 1_565 S
C15 H22 0.929 . S
C16 O6 1.282 . S
C16 O17 1.216 . S
O17 C16 1.216 . S
H18 C13 0.930 . S
H19 C14 0.920 1_465 S
O20 Cu0 1.959 1_655 S
O20 C7 1.251 . S
H21 C4 0.930 . S
H22 C15 0.929 . S
Cu23 N24 1.999 1_455 S
Cu23 O29 1.974 1_455 S
Cu23 N34 1.985 . S
Cu23 O43 1.959 . S
N24 Cu23 1.999 1_655 S
N24 C26 1.263 . S
N24 C28 1.389 1_545 S
N25 C26 1.401 . S
N25 C27 1.379 1_545 S
C26 N24 1.263 . S
C26 N25 1.401 . S
C26 H32 0.930 . S
C27 N25 1.379 1_565 S
C27 C28 1.351 . S
C27 H44 0.930 . S
C28 N24 1.389 1_565 S
C28 C27 1.351 . S
C28 H33 0.930 1_655 S
O29 Cu23 1.974 1_655 S
O29 C39 1.282 . S
C30 O31 1.261 . S
C30 O43 1.251 . S
O31 C30 1.261 . S
H32 C26 0.930 . S
H33 C28 0.930 1_455 S
N34 Cu23 1.985 . S
N34 C36 1.335 . S
N34 C37 1.390 . S
N35 C36 1.345 . S
N35 C38 1.336 . S
C36 N34 1.335 . S
C36 N35 1.345 . S
C36 H41 0.930 . S
C37 N34 1.390 . S
C37 C38 1.346 . S
C37 H42 0.898 1_455 S
C38 N35 1.336 . S
C38 C37 1.346 . S
C38 H45 0.929 . S
C39 O29 1.282 . S
C39 O40 1.216 . S
O40 C39 1.216 . S
H41 C36 0.930 . S
H42 C37 0.898 1_655 S
O43 Cu23 1.959 . S
O43 C30 1.251 . S
H44 C27 0.930 . S
H45 C38 0.929 . S
Cu46 N47 1.999 1_554 S
Cu46 O52 1.974 . S
Cu46 N57 1.985 . S
Cu46 O66 1.959 1_554 S
N47 Cu46 1.999 1_556 S
N47 C49 1.263 . S
N47 C51 1.389 . S
N48 C49 1.358 . S
N48 C50 1.400 . S
C49 N47 1.263 . S
C49 N48 1.358 . S
C49 H55 0.954 . S
C50 N48 1.400 . S
C50 C51 1.351 . S
C50 H67 0.930 . S
C51 N47 1.389 . S
C51 C50 1.351 . S
C51 H56 0.930 . S
O52 Cu46 1.974 . S
O52 C62 1.282 . S
C53 O54 1.261 . S
C53 O66 1.251 . S
O54 C53 1.261 . S
H55 C49 0.954 . S
H56 C51 0.930 . S
N57 Cu46 1.985 . S
N57 C59 1.335 . S
N57 C60 1.390 . S
N58 C59 1.345 . S
N58 C61 1.336 . S
C59 N57 1.335 . S
C59 N58 1.345 . S
C59 H64 0.930 . S
C60 N57 1.390 . S
C60 C61 1.346 . S
C60 H65 0.930 . S
C61 N58 1.336 . S
C61 C60 1.346 . S
C61 H68 0.929 . S
C62 O52 1.282 . S
C62 O63 1.216 . S
O63 C62 1.216 . S
H64 C59 0.930 . S
H65 C60 0.930 . S
O66 Cu46 1.959 1_556 S
O66 C53 1.251 . S
H67 C50 0.930 . S
H68 C61 0.929 . S
Cu69 N70 1.999 1_654 S
Cu69 O75 1.974 1_655 S
Cu69 N80 1.985 . S
Cu69 O89 1.959 1_554 S
N70 Cu69 1.999 1_456 S
N70 C72 1.263 . S
N70 C74 1.389 . S
N71 C72 1.358 . S
N71 C73 1.400 . S
C72 N70 1.263 . S
C72 N71 1.358 . S
C72 H78 0.930 . S
C73 N71 1.400 . S
C73 C74 1.351 . S
C73 H90 0.930 . S
C74 N70 1.389 . S
C74 C73 1.351 . S
C74 H79 0.889 1_455 S
O75 Cu69 1.974 1_455 S
O75 C85 1.282 . S
C76 O77 1.261 . S
C76 O89 1.251 . S
O77 C76 1.261 . S
H78 C72 0.930 . S
H79 C74 0.889 1_655 S
N80 Cu69 1.985 . S
N80 C82 1.335 . S
N80 C83 1.390 . S
N81 C82 1.345 . S
N81 C84 1.336 . S
C82 N80 1.335 . S
C82 N81 1.345 . S
C82 H87 0.930 . S
C83 N80 1.390 . S
C83 C84 1.346 . S
C83 H88 0.930 1_655 S
C84 N81 1.336 . S
C84 C83 1.346 . S
C84 H91 0.929 . S
C85 O75 1.282 . S
C85 O86 1.216 . S
O86 C85 1.216 . S
H87 C82 0.930 . S
H88 C83 0.930 1_455 S
O89 Cu69 1.959 1_556 S
O89 C76 1.251 . S
H90 C73 0.930 . S
H91 C84 0.929 . S
Cu92 N93 1.999 1_554 S
Cu92 O98 1.974 . S
Cu92 N103 1.985 1_545 S
Cu92 O112 1.959 1_544 S
N93 Cu92 1.999 1_556 S
N93 C95 1.263 . S
N93 C97 1.389 . S
N94 C95 1.358 . S
N94 C96 1.400 . S
C95 N93 1.263 . S
C95 N94 1.358 . S
C95 H101 0.930 . S
C96 N94 1.400 . S
C96 C97 1.351 . S
C96 H113 0.930 . S
C97 N93 1.389 . S
C97 C96 1.351 . S
C97 H102 0.930 . S
O98 Cu92 1.974 . S
O98 C108 1.282 . S
C99 O100 1.261 . S
C99 O112 1.251 . S
O100 C99 1.261 . S
H101 C95 0.930 . S
H102 C97 0.930 . S
N103 Cu92 1.985 1_565 S
N103 C105 1.335 . S
N103 C106 1.390 . S
N104 C105 1.345 . S
N104 C107 1.336 . S
C105 N103 1.335 . S
C105 N104 1.345 . S
C105 H110 0.930 . S
C106 N103 1.390 . S
C106 C107 1.346 . S
C106 H111 0.930 . S
C107 N104 1.336 . S
C107 C106 1.346 . S
C107 H114 0.929 . S
C108 O98 1.282 . S
C108 O109 1.216 . S
O109 C108 1.216 . S
H110 C105 0.930 . S
H111 C106 0.930 . S
O112 Cu92 1.959 1_566 S
O112 C99 1.251 . S
H113 C96 0.930 . S
H114 C107 0.929 . S
Cu115 N116 1.999 1_454 S
Cu115 O121 1.974 1_455 S
Cu115 N126 1.985 . S
Cu115 O135 1.959 1_554 S
N116 Cu115 1.999 1_656 S
N116 C118 1.263 . S
N116 C120 1.389 . S
N117 C118 1.358 . S
N117 C119 1.400 . S
C118 N116 1.263 . S
C118 N117 1.358 . S
C118 H124 0.930 . S
C119 N117 1.400 . S
C119 C120 1.351 . S
C119 H136 0.930 . S
C120 N116 1.389 . S
C120 C119 1.351 . S
C120 H125 0.930 1_655 S
O121 Cu115 1.974 1_655 S
O121 C131 1.282 . S
C122 O123 1.261 . S
C122 O135 1.251 . S
O123 C122 1.261 . S
H124 C118 0.930 . S
H125 C120 0.930 1_455 S
N126 Cu115 1.985 . S
N126 C128 1.335 . S
N126 C129 1.390 . S
N127 C128 1.345 . S
N127 C130 1.336 . S
C128 N126 1.335 . S
C128 N127 1.345 . S
C128 H133 0.930 . S
C129 N126 1.390 . S
C129 C130 1.346 . S
C129 H134 0.930 . S
C130 N127 1.336 . S
C130 C129 1.346 . S
C130 H137 0.929 . S
C131 O121 1.282 . S
C131 O132 1.216 . S
O132 C131 1.216 . S
H133 C128 0.930 . S
H134 C129 0.930 . S
O135 Cu115 1.959 1_556 S
O135 C122 1.251 . S
H136 C119 0.930 . S
H137 C130 0.929 . S
Cu138 N139 1.999 . S
Cu138 O144 1.974 . S
Cu138 N149 1.985 . S
Cu138 O158 1.959 . S
N139 Cu138 1.999 . S
N139 C141 1.263 . S
N139 C143 1.389 . S
N140 C141 1.358 . S
N140 C142 1.400 . S
C141 N139 1.263 . S
C141 N140 1.358 . S
C141 H147 0.930 . S
C142 N140 1.400 . S
C142 C143 1.351 . S
C142 H159 0.930 . S
C143 N139 1.389 . S
C143 C142 1.351 . S
C143 H148 0.930 . S
O144 Cu138 1.974 . S
O144 C154 1.282 . S
C145 O146 1.261 . S
C145 O158 1.251 . S
O146 C145 1.261 . S
H147 C141 0.930 . S
H148 C143 0.930 . S
N149 Cu138 1.985 . S
N149 C151 1.335 . S
N149 C152 1.390 . S
N150 C151 1.345 . S
N150 C153 1.336 . S
C151 N149 1.335 . S
C151 N150 1.345 . S
C151 H156 0.930 . S
C152 N149 1.390 . S
C152 C153 1.346 . S
C152 H157 0.930 . S
C153 N150 1.336 . S
C153 C152 1.346 . S
C153 H160 0.929 . S
C154 O144 1.282 . S
C154 O155 1.216 . S
O155 C154 1.216 . S
H156 C151 0.930 . S
H157 C152 0.930 . S
O158 Cu138 1.959 . S
O158 C145 1.251 . S
H159 C142 0.930 . S
H160 C153 0.929 . S
Cu161 N162 1.999 . S
Cu161 O167 1.974 . S
Cu161 N172 1.985 . S
Cu161 O181 1.959 . S
N162 Cu161 1.999 . S
N162 C164 1.263 . S
N162 C166 1.389 . S
N163 C164 1.358 . S
N163 C165 1.400 . S
C164 N162 1.263 . S
C164 N163 1.358 . S
C164 H170 0.930 . S
C165 N163 1.400 . S
C165 C166 1.351 . S
C165 H182 0.930 . S
C166 N162 1.389 . S
C166 C165 1.351 . S
C166 H171 0.930 . S
O167 Cu161 1.974 . S
O167 C177 1.282 . S
C168 O169 1.261 . S
C168 O181 1.251 . S
O169 C168 1.261 . S
H170 C164 0.930 . S
H171 C166 0.930 . S
N172 Cu161 1.985 . S
N172 C174 1.335 . S
N172 C175 1.390 . S
N173 C174 1.345 . S
N173 C176 1.336 . S
C174 N172 1.335 . S
C174 N173 1.345 . S
C174 H179 0.930 . S
C175 N172 1.390 . S
C175 C176 1.346 . S
C175 H180 0.930 . S
C176 N173 1.336 . S
C176 C175 1.346 . S
C176 H183 0.929 . S
C177 O167 1.282 . S
C177 O178 1.216 . S
O178 C177 1.216 . S
H179 C174 0.930 . S
H180 C175 0.930 . S
O181 Cu161 1.959 . S
O181 C168 1.251 . S
H182 C165 0.930 . S
H183 C176 0.929 . S
Cu184 N185 1.999 . S
Cu184 O190 1.974 . S
Cu184 N195 1.985 . S
Cu184 O204 1.959 . S
N185 Cu184 1.999 . S
N185 C187 1.263 . S
N185 C189 1.389 . S
N186 C187 1.358 . S
N186 C188 1.400 . S
C187 N185 1.263 . S
C187 N186 1.358 . S
C187 H193 0.930 . S
C188 N186 1.400 . S
C188 C189 1.351 . S
C188 H205 0.930 . S
C189 N185 1.389 . S
C189 C188 1.351 . S
C189 H194 0.930 . S
O190 Cu184 1.974 . S
O190 C200 1.282 . S
C191 O192 1.261 . S
C191 O204 1.251 . S
O192 C191 1.261 . S
H193 C187 0.930 . S
H194 C189 0.930 . S
N195 Cu184 1.985 . S
N195 C197 1.335 . S
N195 C198 1.390 . S
N196 C197 1.345 . S
N196 C199 1.336 . S
C197 N195 1.335 . S
C197 N196 1.345 . S
C197 H202 0.930 . S
C198 N195 1.390 . S
C198 C199 1.346 . S
C198 H203 0.930 . S
C199 N196 1.336 . S
C199 C198 1.346 . S
C199 H206 0.929 . S
C200 O190 1.282 . S
C200 O201 1.216 . S
O201 C200 1.216 . S
H202 C197 0.930 . S
H203 C198 0.930 . S
O204 Cu184 1.959 . S
O204 C191 1.251 . S
H205 C188 0.930 . S
H206 C199 0.929 . S
Cu207 N208 1.999 . S
Cu207 O213 1.974 . S
Cu207 N218 1.985 . S
Cu207 O227 1.959 . S
N208 Cu207 1.999 . S
N208 C210 1.263 . S
N208 C212 1.389 . S
N209 C210 1.358 . S
N209 C211 1.400 . S
C210 N208 1.263 . S
C210 N209 1.358 . S
C210 H216 0.930 . S
C211 N209 1.400 . S
C211 C212 1.351 . S
C211 H228 0.930 . S
C212 N208 1.389 . S
C212 C211 1.351 . S
C212 H217 0.930 . S
O213 Cu207 1.974 . S
O213 C223 1.282 . S
C214 O215 1.261 . S
C214 O227 1.251 . S
O215 C214 1.261 . S
H216 C210 0.930 . S
H217 C212 0.930 . S
N218 Cu207 1.985 . S
N218 C220 1.335 . S
N218 C221 1.390 . S
N219 C220 1.345 . S
N219 C222 1.336 . S
C220 N218 1.335 . S
C220 N219 1.345 . S
C220 H225 0.930 . S
C221 N218 1.390 . S
C221 C222 1.346 . S
C221 H226 0.930 . S
C222 N219 1.336 . S
C222 C221 1.346 . S
C222 H229 0.929 . S
C223 O213 1.282 . S
C223 O224 1.216 . S
O224 C223 1.216 . S
H225 C220 0.930 . S
H226 C221 0.930 . S
O227 Cu207 1.959 . S
O227 C214 1.251 . S
H228 C211 0.930 . S
H229 C222 0.929 . S
Cu230 N231 1.999 . S
Cu230 O236 1.974 . S
Cu230 N241 1.985 . S
Cu230 O250 1.959 . S
N231 Cu230 1.999 . S
N231 C233 1.263 . S
N231 C235 1.389 . S
N232 C233 1.358 . S
N232 C234 1.400 . S
C233 N231 1.263 . S
C233 N232 1.358 . S
C233 H239 0.930 . S
C234 N232 1.400 . S
C234 C235 1.351 . S
C234 H251 0.930 . S
C235 N231 1.389 . S
C235 C234 1.351 . S
C235 H240 0.930 . S
O236 Cu230 1.974 . S
O236 C246 1.282 . S
C237 O238 1.261 . S
C237 O250 1.251 . S
O238 C237 1.261 . S
H239 C233 0.930 . S
H240 C235 0.930 . S
N241 Cu230 1.985 . S
N241 C243 1.335 . S
N241 C244 1.390 . S
N242 C243 1.345 . S
N242 C245 1.336 . S
C243 N241 1.335 . S
C243 N242 1.345 . S
C243 H248 0.930 . S
C244 N241 1.390 . S
C244 C245 1.346 . S
C244 H249 0.930 . S
C245 N242 1.336 . S
C245 C244 1.346 . S
C245 H252 0.929 . S
C246 O236 1.282 . S
C246 O247 1.216 . S
O247 C246 1.216 . S
H248 C243 0.930 . S
H249 C244 0.930 . S
O250 Cu230 1.959 . S
O250 C237 1.251 . S
H251 C234 0.930 . S
H252 C245 0.929 . S
Cu253 N254 1.999 . S
Cu253 O259 1.974 . S
Cu253 N264 1.985 . S
Cu253 O273 1.959 . S
N254 Cu253 1.999 . S
N254 C256 1.263 . S
N254 C258 1.389 . S
N255 C256 1.358 . S
N255 C257 1.400 . S
C256 N254 1.263 . S
C256 N255 1.358 . S
C256 H262 0.930 . S
C257 N255 1.400 . S
C257 C258 1.351 . S
C257 H274 0.930 . S
C258 N254 1.389 . S
C258 C257 1.351 . S
C258 H263 0.930 . S
O259 Cu253 1.974 . S
O259 C269 1.282 . S
C260 O261 1.261 . S
C260 O273 1.251 . S
O261 C260 1.261 . S
H262 C256 0.930 . S
H263 C258 0.930 . S
N264 Cu253 1.985 . S
N264 C266 1.335 . S
N264 C267 1.390 . S
N265 C266 1.345 . S
N265 C268 1.336 . S
C266 N264 1.335 . S
C266 N265 1.345 . S
C266 H271 0.930 . S
C267 N264 1.390 . S
C267 C268 1.346 . S
C267 H272 0.930 . S
C268 N265 1.336 . S
C268 C267 1.346 . S
C268 H275 0.929 . S
C269 O259 1.282 . S
C269 O270 1.216 . S
O270 C269 1.216 . S
H271 C266 0.930 . S
H272 C267 0.930 . S
O273 Cu253 1.959 . S
O273 C260 1.251 . S
H274 C257 0.930 . S
H275 C268 0.929 . S
Tb276 C278 2.809 . S
Tb276 O296 2.484 . S
Tb276 O297 2.440 . S
Tb276 O298 2.658 . S
Tb276 O299 2.409 . S
Tb276 O300 2.378 . S
Tb276 O304 2.325 . S
Tb276 O307 2.341 . S
Tb277 C287 2.809 . S
Tb277 O298 2.325 . S
Tb277 O301 2.341 . S
Tb277 O302 2.484 . S
Tb277 O303 2.440 . S
Tb277 O304 2.658 . S
Tb277 O305 2.409 . S
Tb277 O306 2.378 . S
C278 Tb276 2.809 . S
C278 C279 1.514 . S
C278 O296 1.248 . S
C278 O297 1.266 . S
C279 C278 1.514 . S
C279 C280 1.359 . S
C279 C284 1.348 . S
C280 C279 1.359 . S
C280 C281 1.380 . S
C280 H308 0.929 . S
C281 C280 1.380 . S
C281 C282 1.347 . S
C281 H309 0.931 . S
C282 C281 1.347 . S
C282 C283 1.369 . S
C283 C282 1.369 . S
C283 C284 1.408 . S
C283 H310 0.930 . S
C284 C279 1.348 . S
C284 C283 1.408 . S
C284 H311 0.930 . S
C285 O298 1.281 . S
C285 O299 1.254 . S
C286 O300 1.236 . S
C286 O301 1.266 . S
C287 Tb277 2.809 . S
C287 C288 1.514 . S
C287 O302 1.248 . S
C287 O303 1.266 . S
C288 C287 1.514 . S
C288 C289 1.359 . S
C288 C293 1.348 . S
C289 C288 1.359 . S
C289 C290 1.380 . S
C289 H312 0.929 . S
C290 C289 1.380 . S
C290 C291 1.347 . S
C290 H313 0.931 . S
C291 C290 1.347 . S
C291 C292 1.369 . S
C292 C291 1.369 . S
C292 C293 1.408 . S
C292 H314 0.930 . S
C293 C288 1.348 . S
C293 C292 1.408 . S
C293 H315 0.930 . S
C294 O304 1.281 . S
C294 O305 1.254 . S
C295 O306 1.236 . S
C295 O307 1.266 . S
O296 Tb276 2.484 . S
O296 C278 1.248 . S
O297 Tb276 2.440 . S
O297 C278 1.266 . S
O298 Tb276 2.658 . S
O298 Tb277 2.325 . S
O298 C285 1.281 . S
O299 Tb276 2.409 . S
O299 C285 1.254 . S
O300 Tb276 2.378 . S
O300 C286 1.236 . S
O301 Tb277 2.341 . S
O301 C286 1.266 . S
O302 Tb277 2.484 . S
O302 C287 1.248 . S
O303 Tb277 2.440 . S
O303 C287 1.266 . S
O304 Tb276 2.325 . S
O304 Tb277 2.658 . S
O304 C294 1.281 . S
O305 Tb277 2.409 . S
O305 C294 1.254 . S
O306 Tb277 2.378 . S
O306 C295 1.236 . S
O307 Tb276 2.341 . S
O307 C295 1.266 . S
H308 C280 0.929 . S
H309 C281 0.931 . S
H310 C283 0.930 . S
H311 C284 0.930 . S
H312 C289 0.929 . S
H313 C290 0.931 . S
H314 C292 0.930 . S
H315 C293 0.930 . S
Tb316 C318 2.809 . S
Tb316 O336 2.484 . S
Tb316 O337 2.440 . S
Tb316 O338 2.658 . S
Tb316 O339 2.409 . S
Tb316 O340 2.378 . S
Tb316 O344 2.325 . S
Tb316 O347 2.341 . S
Tb317 C327 2.809 . S
Tb317 O338 2.325 . S
Tb317 O341 2.341 . S
Tb317 O342 2.484 . S
Tb317 O343 2.440 . S
Tb317 O344 2.658 . S
Tb317 O345 2.409 . S
Tb317 O346 2.378 . S
C318 Tb316 2.809 . S
C318 C319 1.514 . S
C318 O336 1.248 . S
C318 O337 1.266 . S
C319 C318 1.514 . S
C319 C320 1.359 . S
C319 C324 1.348 . S
C320 C319 1.359 . S
C320 C321 1.380 . S
C320 H348 0.929 . S
C321 C320 1.380 . S
C321 C322 1.347 . S
C321 H349 0.931 . S
C322 C321 1.347 . S
C322 C323 1.369 . S
C323 C322 1.369 . S
C323 C324 1.408 . S
C323 H350 0.930 . S
C324 C319 1.348 . S
C324 C323 1.408 . S
C324 H351 0.930 . S
C325 O338 1.281 . S
C325 O339 1.254 . S
C326 O340 1.236 . S
C326 O341 1.266 . S
C327 Tb317 2.809 . S
C327 C328 1.514 . S
C327 O342 1.248 . S
C327 O343 1.266 . S
C328 C327 1.514 . S
C328 C329 1.359 . S
C328 C333 1.348 . S
C329 C328 1.359 . S
C329 C330 1.380 . S
C329 H352 0.929 . S
C330 C329 1.380 . S
C330 C331 1.347 . S
C330 H353 0.931 . S
C331 C330 1.347 . S
C331 C332 1.369 . S
C332 C331 1.369 . S
C332 C333 1.408 . S
C332 H354 0.930 . S
C333 C328 1.348 . S
C333 C332 1.408 . S
C333 H355 0.930 . S
C334 O344 1.281 . S
C334 O345 1.254 . S
C335 O346 1.236 . S
C335 O347 1.266 . S
O336 Tb316 2.484 . S
O336 C318 1.248 . S
O337 Tb316 2.440 . S
O337 C318 1.266 . S
O338 Tb316 2.658 . S
O338 Tb317 2.325 . S
O338 C325 1.281 . S
O339 Tb316 2.409 . S
O339 C325 1.254 . S
O340 Tb316 2.378 . S
O340 C326 1.236 . S
O341 Tb317 2.341 . S
O341 C326 1.266 . S
O342 Tb317 2.484 . S
O342 C327 1.248 . S
O343 Tb317 2.440 . S
O343 C327 1.266 . S
O344 Tb316 2.325 . S
O344 Tb317 2.658 . S
O344 C334 1.281 . S
O345 Tb317 2.409 . S
O345 C334 1.254 . S
O346 Tb317 2.378 . S
O346 C335 1.236 . S
O347 Tb316 2.341 . S
O347 C335 1.266 . S
H348 C320 0.929 . S
H349 C321 0.931 . S
H350 C323 0.930 . S
H351 C324 0.930 . S
H352 C329 0.929 . S
H353 C330 0.931 . S
H354 C332 0.930 . S
H355 C333 0.930 . S
Tb356 C358 2.809 . S
Tb356 O376 2.484 . S
Tb356 O377 2.440 . S
Tb356 O378 2.658 . S
Tb356 O379 2.409 . S
Tb356 O380 2.378 . S
Tb356 O384 2.325 . S
Tb356 O387 2.341 . S
Tb357 C367 2.809 . S
Tb357 O378 2.325 . S
Tb357 O381 2.341 . S
Tb357 O382 2.484 . S
Tb357 O383 2.440 . S
Tb357 O384 2.658 . S
Tb357 O385 2.409 . S
Tb357 O386 2.378 . S
C358 Tb356 2.809 . S
C358 C359 1.514 . S
C358 O376 1.248 . S
C358 O377 1.266 . S
C359 C358 1.514 . S
C359 C360 1.359 . S
C359 C364 1.348 . S
C360 C359 1.359 . S
C360 C361 1.380 . S
C360 H388 0.929 . S
C361 C360 1.380 . S
C361 C362 1.347 . S
C361 H389 0.931 . S
C362 C361 1.347 . S
C362 C363 1.369 . S
C363 C362 1.369 . S
C363 C364 1.408 . S
C363 H390 0.930 . S
C364 C359 1.348 . S
C364 C363 1.408 . S
C364 H391 0.930 . S
C365 O378 1.281 . S
C365 O379 1.254 . S
C366 O380 1.236 . S
C366 O381 1.266 . S
C367 Tb357 2.809 . S
C367 C368 1.514 . S
C367 O382 1.248 . S
C367 O383 1.266 . S
C368 C367 1.514 . S
C368 C369 1.359 . S
C368 C373 1.348 . S
C369 C368 1.359 . S
C369 C370 1.380 . S
C369 H392 0.929 . S
C370 C369 1.380 . S
C370 C371 1.347 . S
C370 H393 0.931 . S
C371 C370 1.347 . S
C371 C372 1.369 . S
C372 C371 1.369 . S
C372 C373 1.408 . S
C372 H394 0.930 . S
C373 C368 1.348 . S
C373 C372 1.408 . S
C373 H395 0.930 . S
C374 O384 1.281 . S
C374 O385 1.254 . S
C375 O386 1.236 . S
C375 O387 1.266 . S
O376 Tb356 2.484 . S
O376 C358 1.248 . S
O377 Tb356 2.440 . S
O377 C358 1.266 . S
O378 Tb356 2.658 . S
O378 Tb357 2.325 . S
O378 C365 1.281 . S
O379 Tb356 2.409 . S
O379 C365 1.254 . S
O380 Tb356 2.378 . S
O380 C366 1.236 . S
O381 Tb357 2.341 . S
O381 C366 1.266 . S
O382 Tb357 2.484 . S
O382 C367 1.248 . S
O383 Tb357 2.440 . S
O383 C367 1.266 . S
O384 Tb356 2.325 . S
O384 Tb357 2.658 . S
O384 C374 1.281 . S
O385 Tb357 2.409 . S
O385 C374 1.254 . S
O386 Tb357 2.378 . S
O386 C375 1.236 . S
O387 Tb356 2.341 . S
O387 C375 1.266 . S
H388 C360 0.929 . S
H389 C361 0.931 . S
H390 C363 0.930 . S
H391 C364 0.930 . S
H392 C369 0.929 . S
H393 C370 0.931 . S
H394 C372 0.930 . S
H395 C373 0.930 . S
Tb396 C398 2.809 . S
Tb396 O416 2.484 . S
Tb396 O417 2.440 . S
Tb396 O418 2.658 . S
Tb396 O419 2.409 . S
Tb396 O420 2.378 . S
Tb396 O424 2.325 . S
Tb396 O427 2.341 . S
Tb397 C407 2.809 . S
Tb397 O418 2.325 . S
Tb397 O421 2.341 . S
Tb397 O422 2.484 . S
Tb397 O423 2.440 . S
Tb397 O424 2.658 . S
Tb397 O425 2.409 . S
Tb397 O426 2.378 . S
C398 Tb396 2.809 . S
C398 C399 1.514 . S
C398 O416 1.248 . S
C398 O417 1.266 . S
C399 C398 1.514 . S
C399 C400 1.359 . S
C399 C404 1.348 . S
C400 C399 1.359 . S
C400 C401 1.380 . S
C400 H428 0.929 . S
C401 C400 1.380 . S
C401 C402 1.347 . S
C401 H429 0.931 . S
C402 C401 1.347 . S
C402 C403 1.369 . S
C403 C402 1.369 . S
C403 C404 1.408 . S
C403 H430 0.930 . S
C404 C399 1.348 . S
C404 C403 1.408 . S
C404 H431 0.930 . S
C405 O418 1.281 . S
C405 O419 1.254 . S
C406 O420 1.236 . S
C406 O421 1.266 . S
C407 Tb397 2.809 . S
C407 C408 1.514 . S
C407 O422 1.248 . S
C407 O423 1.266 . S
C408 C407 1.514 . S
C408 C409 1.359 . S
C408 C413 1.348 . S
C409 C408 1.359 . S
C409 C410 1.380 . S
C409 H432 0.929 . S
C410 C409 1.380 . S
C410 C411 1.347 . S
C410 H433 0.931 . S
C411 C410 1.347 . S
C411 C412 1.369 . S
C412 C411 1.369 . S
C412 C413 1.408 . S
C412 H434 0.930 . S
C413 C408 1.348 . S
C413 C412 1.408 . S
C413 H435 0.930 . S
C414 O424 1.281 . S
C414 O425 1.254 . S
C415 O426 1.236 . S
C415 O427 1.266 . S
O416 Tb396 2.484 . S
O416 C398 1.248 . S
O417 Tb396 2.440 . S
O417 C398 1.266 . S
O418 Tb396 2.658 . S
O418 Tb397 2.325 . S
O418 C405 1.281 . S
O419 Tb396 2.409 . S
O419 C405 1.254 . S
O420 Tb396 2.378 . S
O420 C406 1.236 . S
O421 Tb397 2.341 . S
O421 C406 1.266 . S
O422 Tb397 2.484 . S
O422 C407 1.248 . S
O423 Tb397 2.440 . S
O423 C407 1.266 . S
O424 Tb396 2.325 . S
O424 Tb397 2.658 . S
O424 C414 1.281 . S
O425 Tb397 2.409 . S
O425 C414 1.254 . S
O426 Tb397 2.378 . S
O426 C415 1.236 . S
O427 Tb396 2.341 . S
O427 C415 1.266 . S
H428 C400 0.929 . S
H429 C401 0.931 . S
H430 C403 0.930 . S
H431 C404 0.930 . S
H432 C409 0.929 . S
H433 C410 0.931 . S
H434 C412 0.930 . S
H435 C413 0.930 . S
Tb436 C438 2.809 . S
Tb436 O456 2.484 . S
Tb436 O457 2.440 . S
Tb436 O458 2.658 . S
Tb436 O459 2.409 . S
Tb436 O460 2.378 . S
Tb436 O464 2.325 . S
Tb436 O467 2.341 . S
Tb437 C447 2.809 . S
Tb437 O458 2.325 . S
Tb437 O461 2.341 . S
Tb437 O462 2.484 . S
Tb437 O463 2.440 . S
Tb437 O464 2.658 . S
Tb437 O465 2.409 . S
Tb437 O466 2.378 . S
C438 Tb436 2.809 . S
C438 C439 1.514 . S
C438 O456 1.248 . S
C438 O457 1.266 . S
C439 C438 1.514 . S
C439 C440 1.359 . S
C439 C444 1.348 . S
C440 C439 1.359 . S
C440 C441 1.380 . S
C440 H468 0.929 . S
C441 C440 1.380 . S
C441 C442 1.347 . S
C441 H469 0.931 . S
C442 C441 1.347 . S
C442 C443 1.369 . S
C443 C442 1.369 . S
C443 C444 1.408 . S
C443 H470 0.930 . S
C444 C439 1.348 . S
C444 C443 1.408 . S
C444 H471 0.930 . S
C445 O458 1.281 . S
C445 O459 1.254 . S
C446 O460 1.236 . S
C446 O461 1.266 . S
C447 Tb437 2.809 . S
C447 C448 1.514 . S
C447 O462 1.248 . S
C447 O463 1.266 . S
C448 C447 1.514 . S
C448 C449 1.359 . S
C448 C453 1.348 . S
C449 C448 1.359 . S
C449 C450 1.380 . S
C449 H472 0.929 . S
C450 C449 1.380 . S
C450 C451 1.347 . S
C450 H473 0.931 . S
C451 C450 1.347 . S
C451 C452 1.369 . S
C452 C451 1.369 . S
C452 C453 1.408 . S
C452 H474 0.930 . S
C453 C448 1.348 . S
C453 C452 1.408 . S
C453 H475 0.930 . S
C454 O464 1.281 . S
C454 O465 1.254 . S
C455 O466 1.236 . S
C455 O467 1.266 . S
O456 Tb436 2.484 . S
O456 C438 1.248 . S
O457 Tb436 2.440 . S
O457 C438 1.266 . S
O458 Tb436 2.658 . S
O458 Tb437 2.325 . S
O458 C445 1.281 . S
O459 Tb436 2.409 . S
O459 C445 1.254 . S
O460 Tb436 2.378 . S
O460 C446 1.236 . S
O461 Tb437 2.341 . S
O461 C446 1.266 . S
O462 Tb437 2.484 . S
O462 C447 1.248 . S
O463 Tb437 2.440 . S
O463 C447 1.266 . S
O464 Tb436 2.325 . S
O464 Tb437 2.658 . S
O464 C454 1.281 . S
O465 Tb437 2.409 . S
O465 C454 1.254 . S
O466 Tb437 2.378 . S
O466 C455 1.236 . S
O467 Tb436 2.341 . S
O467 C455 1.266 . S
H468 C440 0.929 . S
H469 C441 0.931 . S
H470 C443 0.930 . S
H471 C444 0.930 . S
H472 C449 0.929 . S
H473 C450 0.931 . S
H474 C452 0.930 . S
H475 C453 0.930 . S
Tb476 C478 2.809 . S
Tb476 O496 2.484 . S
Tb476 O497 2.440 . S
Tb476 O498 2.658 . S
Tb476 O499 2.409 . S
Tb476 O500 2.378 . S
Tb476 O504 2.325 . S
Tb476 O507 2.341 . S
Tb477 C487 2.809 . S
Tb477 O498 2.325 . S
Tb477 O501 2.341 . S
Tb477 O502 2.484 . S
Tb477 O503 2.440 . S
Tb477 O504 2.658 . S
Tb477 O505 2.409 . S
Tb477 O506 2.378 . S
C478 Tb476 2.809 . S
C478 C479 1.514 . S
C478 O496 1.248 . S
C478 O497 1.266 . S
C479 C478 1.514 . S
C479 C480 1.359 . S
C479 C484 1.348 . S
C480 C479 1.359 . S
C480 C481 1.380 . S
C480 H508 0.929 . S
C481 C480 1.380 . S
C481 C482 1.347 . S
C481 H509 0.931 . S
C482 C481 1.347 . S
C482 C483 1.369 . S
C483 C482 1.369 . S
C483 C484 1.408 . S
C483 H510 0.930 . S
C484 C479 1.348 . S
C484 C483 1.408 . S
C484 H511 0.930 . S
C485 O498 1.281 . S
C485 O499 1.254 . S
C486 O500 1.236 . S
C486 O501 1.266 . S
C487 Tb477 2.809 . S
C487 C488 1.514 . S
C487 O502 1.248 . S
C487 O503 1.266 . S
C488 C487 1.514 . S
C488 C489 1.359 . S
C488 C493 1.348 . S
C489 C488 1.359 . S
C489 C490 1.380 . S
C489 H512 0.929 . S
C490 C489 1.380 . S
C490 C491 1.347 . S
C490 H513 0.931 . S
C491 C490 1.347 . S
C491 C492 1.369 . S
C492 C491 1.369 . S
C492 C493 1.408 . S
C492 H514 0.930 . S
C493 C488 1.348 . S
C493 C492 1.408 . S
C493 H515 0.930 . S
C494 O504 1.281 . S
C494 O505 1.254 . S
C495 O506 1.236 . S
C495 O507 1.266 . S
O496 Tb476 2.484 . S
O496 C478 1.248 . S
O497 Tb476 2.440 . S
O497 C478 1.266 . S
O498 Tb476 2.658 . S
O498 Tb477 2.325 . S
O498 C485 1.281 . S
O499 Tb476 2.409 . S
O499 C485 1.254 . S
O500 Tb476 2.378 . S
O500 C486 1.236 . S
O501 Tb477 2.341 . S
O501 C486 1.266 . S
O502 Tb477 2.484 . S
O502 C487 1.248 . S
O503 Tb477 2.440 . S
O503 C487 1.266 . S
O504 Tb476 2.325 . S
O504 Tb477 2.658 . S
O504 C494 1.281 . S
O505 Tb477 2.409 . S
O505 C494 1.254 . S
O506 Tb477 2.378 . S
O506 C495 1.236 . S
O507 Tb476 2.341 . S
O507 C495 1.266 . S
H508 C480 0.929 . S
H509 C481 0.931 . S
H510 C483 0.930 . S
H511 C484 0.930 . S
H512 C489 0.929 . S
H513 C490 0.931 . S
H514 C492 0.930 . S
H515 C493 0.930 . S
Tb516 C518 2.809 . S
Tb516 O536 2.484 . S
Tb516 O537 2.440 . S
Tb516 O538 2.658 . S
Tb516 O539 2.409 . S
Tb516 O540 2.378 . S
Tb516 O544 2.325 . S
Tb516 O547 2.341 . S
Tb517 C527 2.809 . S
Tb517 O538 2.325 . S
Tb517 O541 2.341 . S
Tb517 O542 2.484 . S
Tb517 O543 2.440 . S
Tb517 O544 2.658 . S
Tb517 O545 2.409 . S
Tb517 O546 2.378 . S
C518 Tb516 2.809 . S
C518 C519 1.514 . S
C518 O536 1.248 . S
C518 O537 1.266 . S
C519 C518 1.514 . S
C519 C520 1.359 . S
C519 C524 1.348 . S
C520 C519 1.359 . S
C520 C521 1.380 . S
C520 H548 0.929 . S
C521 C520 1.380 . S
C521 C522 1.347 . S
C521 H549 0.931 . S
C522 C521 1.347 . S
C522 C523 1.369 . S
C523 C522 1.369 . S
C523 C524 1.408 . S
C523 H550 0.930 . S
C524 C519 1.348 . S
C524 C523 1.408 . S
C524 H551 0.930 . S
C525 O538 1.281 . S
C525 O539 1.254 . S
C526 O540 1.236 . S
C526 O541 1.266 . S
C527 Tb517 2.809 . S
C527 C528 1.514 . S
C527 O542 1.248 . S
C527 O543 1.266 . S
C528 C527 1.514 . S
C528 C529 1.359 . S
C528 C533 1.348 . S
C529 C528 1.359 . S
C529 C530 1.380 . S
C529 H552 0.929 . S
C530 C529 1.380 . S
C530 C531 1.347 . S
C530 H553 0.931 . S
C531 C530 1.347 . S
C531 C532 1.369 . S
C532 C531 1.369 . S
C532 C533 1.408 . S
C532 H554 0.930 . S
C533 C528 1.348 . S
C533 C532 1.408 . S
C533 H555 0.930 . S
C534 O544 1.281 . S
C534 O545 1.254 . S
C535 O546 1.236 . S
C535 O547 1.266 . S
O536 Tb516 2.484 . S
O536 C518 1.248 . S
O537 Tb516 2.440 . S
O537 C518 1.266 . S
O538 Tb516 2.658 . S
O538 Tb517 2.325 . S
O538 C525 1.281 . S
O539 Tb516 2.409 . S
O539 C525 1.254 . S
O540 Tb516 2.378 . S
O540 C526 1.236 . S
O541 Tb517 2.341 . S
O541 C526 1.266 . S
O542 Tb517 2.484 . S
O542 C527 1.248 . S
O543 Tb517 2.440 . S
O543 C527 1.266 . S
O544 Tb516 2.325 . S
O544 Tb517 2.658 . S
O544 C534 1.281 . S
O545 Tb517 2.409 . S
O545 C534 1.254 . S
O546 Tb517 2.378 . S
O546 C535 1.236 . S
O547 Tb516 2.341 . S
O547 C535 1.266 . S
H548 C520 0.929 . S
H549 C521 0.931 . S
H550 C523 0.930 . S
H551 C524 0.930 . S
H552 C529 0.929 . S
H553 C530 0.931 . S
H554 C532 0.930 . S
H555 C533 0.930 . S
Tb556 C558 2.809 . S
Tb556 O576 2.484 . S
Tb556 O577 2.440 . S
Tb556 O578 2.658 . S
Tb556 O579 2.409 . S
Tb556 O580 2.378 . S
Tb556 O584 2.325 . S
Tb556 O587 2.341 . S
Tb557 C567 2.809 . S
Tb557 O578 2.325 . S
Tb557 O581 2.341 . S
Tb557 O582 2.484 . S
Tb557 O583 2.440 . S
Tb557 O584 2.658 . S
Tb557 O585 2.409 . S
Tb557 O586 2.378 . S
C558 Tb556 2.809 . S
C558 C559 1.514 . S
C558 O576 1.248 . S
C558 O577 1.266 . S
C559 C558 1.514 . S
C559 C560 1.359 . S
C559 C564 1.348 . S
C560 C559 1.359 . S
C560 C561 1.380 . S
C560 H588 0.929 . S
C561 C560 1.380 . S
C561 C562 1.347 . S
C561 H589 0.931 . S
C562 C561 1.347 . S
C562 C563 1.369 . S
C563 C562 1.369 . S
C563 C564 1.408 . S
C563 H590 0.930 . S
C564 C559 1.348 . S
C564 C563 1.408 . S
C564 H591 0.930 . S
C565 O578 1.281 . S
C565 O579 1.254 . S
C566 O580 1.236 . S
C566 O581 1.266 . S
C567 Tb557 2.809 . S
C567 C568 1.514 . S
C567 O582 1.248 . S
C567 O583 1.266 . S
C568 C567 1.514 . S
C568 C569 1.359 . S
C568 C573 1.348 . S
C569 C568 1.359 . S
C569 C570 1.380 . S
C569 H592 0.929 . S
C570 C569 1.380 . S
C570 C571 1.347 . S
C570 H593 0.931 . S
C571 C570 1.347 . S
C571 C572 1.369 . S
C572 C571 1.369 . S
C572 C573 1.408 . S
C572 H594 0.930 . S
C573 C568 1.348 . S
C573 C572 1.408 . S
C573 H595 0.930 . S
C574 O584 1.281 . S
C574 O585 1.254 . S
C575 O586 1.236 . S
C575 O587 1.266 . S
O576 Tb556 2.484 . S
O576 C558 1.248 . S
O577 Tb556 2.440 . S
O577 C558 1.266 . S
O578 Tb556 2.658 . S
O578 Tb557 2.325 . S
O578 C565 1.281 . S
O579 Tb556 2.409 . S
O579 C565 1.254 . S
O580 Tb556 2.378 . S
O580 C566 1.236 . S
O581 Tb557 2.341 . S
O581 C566 1.266 . S
O582 Tb557 2.484 . S
O582 C567 1.248 . S
O583 Tb557 2.440 . S
O583 C567 1.266 . S
O584 Tb556 2.325 . S
O584 Tb557 2.658 . S
O584 C574 1.281 . S
O585 Tb557 2.409 . S
O585 C574 1.254 . S
O586 Tb557 2.378 . S
O586 C575 1.236 . S
O587 Tb556 2.341 . S
O587 C575 1.266 . S
H588 C560 0.929 . S
H589 C561 0.931 . S
H590 C563 0.930 . S
H591 C564 0.930 . S
H592 C569 0.929 . S
H593 C570 0.931 . S
H594 C572 0.930 . S
H595 C573 0.930 . S
H596 C604 0.929 . S
H597 C606 0.930 . S
H598 C608 0.930 . S
H599 C611 0.929 . S
H600 C614 0.930 . S
H601 C616 0.960 . S
H602 C616 0.960 . S
H603 C616 0.960 . S
C604 H596 0.929 . S
C604 C605 1.377 . S
C604 C606 1.384 . S
C605 C604 1.377 . S
C605 C611 1.390 . S
C606 H597 0.930 . S
C606 C604 1.384 . S
C606 C607 1.372 . S
C607 C606 1.372 . S
C607 C608 1.400 . S
C607 C612 1.490 . S
C608 H598 0.930 . S
C608 C607 1.400 . S
C608 C611 1.386 . S
H609 C625 0.930 . S
H610 C626 0.931 . S
C611 H599 0.929 . S
C611 C605 1.390 . S
C611 C608 1.386 . S
C612 C607 1.490 . S
C612 C614 1.395 . S
C612 C615 1.403 . S
H613 C619 0.930 . S
C614 H600 0.930 . S
C614 C612 1.395 . S
C614 C617 1.403 . S
C615 C612 1.403 . S
C615 C616 1.524 . S
C615 C619 1.400 . S
C616 H601 0.960 . S
C616 H602 0.960 . S
C616 H603 0.960 . S
C616 C615 1.524 . S
C617 C614 1.403 . S
C617 C618 1.392 . S
C617 C621 1.495 . S
C618 C617 1.392 . S
C618 C619 1.385 . S
C618 C620 1.478 . S
C619 H613 0.930 . S
C619 C615 1.400 . S
C619 C618 1.385 . S
C620 C618 1.478 . S
C620 C622 1.381 . S
C620 C626 1.383 . S
C621 C617 1.495 . S
C621 H627 0.959 . S
C621 H628 0.961 . S
C621 H629 0.960 . S
C622 C620 1.381 . S
C622 C623 1.394 . S
C622 H630 0.930 . S
C623 C622 1.394 . S
C623 C624 1.383 . S
C623 H631 0.929 . S
C624 C623 1.383 . S
C624 C625 1.377 . S
C625 H609 0.930 . S
C625 C624 1.377 . S
C625 C626 1.379 . S
C626 H610 0.931 . S
C626 C620 1.383 . S
C626 C625 1.379 . S
H627 C621 0.959 . S
H628 C621 0.961 . S
H629 C621 0.960 . S
H630 C622 0.930 . S
H631 C623 0.929 . S
H632 C640 0.929 . S
H633 C642 0.930 . S
H634 C644 0.930 . S
H635 C647 0.929 . S
H636 C650 0.930 . S
H637 C652 0.960 . S
H638 C652 0.960 . S
H639 C652 0.960 . S
C640 H632 0.929 . S
C640 C641 1.377 . S
C640 C642 1.384 . S
C641 C640 1.377 . S
C641 C647 1.390 . S
C642 H633 0.930 . S
C642 C640 1.384 . S
C642 C643 1.372 . S
C643 C642 1.372 . S
C643 C644 1.400 . S
C643 C648 1.490 . S
C644 H634 0.930 . S
C644 C643 1.400 . S
C644 C647 1.386 . S
H645 C661 0.930 . S
H646 C662 0.931 . S
C647 H635 0.929 . S
C647 C641 1.390 . S
C647 C644 1.386 . S
C648 C643 1.490 . S
C648 C650 1.395 . S
C648 C651 1.403 . S
H649 C655 0.930 . S
C650 H636 0.930 . S
C650 C648 1.395 . S
C650 C653 1.403 . S
C651 C648 1.403 . S
C651 C652 1.524 . S
C651 C655 1.400 . S
C652 H637 0.960 . S
C652 H638 0.960 . S
C652 H639 0.960 . S
C652 C651 1.524 . S
C653 C650 1.403 . S
C653 C654 1.392 . S
C653 C657 1.495 . S
C654 C653 1.392 . S
C654 C655 1.385 . S
C654 C656 1.478 . S
C655 H649 0.930 . S
C655 C651 1.400 . S
C655 C654 1.385 . S
C656 C654 1.478 . S
C656 C658 1.381 . S
C656 C662 1.383 . S
C657 C653 1.495 . S
C657 H663 0.959 . S
C657 H664 0.961 . S
C657 H665 0.960 . S
C658 C656 1.381 . S
C658 C659 1.394 . S
C658 H666 0.930 . S
C659 C658 1.394 . S
C659 C660 1.383 . S
C659 H667 0.929 . S
C660 C659 1.383 . S
C660 C661 1.377 . S
C661 H645 0.930 . S
C661 C660 1.377 . S
C661 C662 1.379 . S
C662 H646 0.931 . S
C662 C656 1.383 . S
C662 C661 1.379 . S
H663 C657 0.959 . S
H664 C657 0.961 . S
H665 C657 0.960 . S
H666 C658 0.930 . S
H667 C659 0.929 . S
H668 C676 0.929 . S
H669 C678 0.930 . S
H670 C680 0.930 . S
H671 C683 0.929 . S
H672 C686 0.930 . S
H673 C688 0.960 . S
H674 C688 0.960 . S
H675 C688 0.960 . S
C676 H668 0.929 . S
C676 C677 1.377 1_545 S
C676 C678 1.384 1_545 S
C677 C676 1.377 1_565 S
C677 C683 1.390 . S
C678 H669 0.930 . S
C678 C676 1.384 1_565 S
C678 C679 1.372 . S
C679 C678 1.372 . S
C679 C680 1.400 . S
C679 C684 1.490 . S
C680 H670 0.930 . S
C680 C679 1.400 . S
C680 C683 1.386 . S
H681 C697 0.930 . S
H682 C698 0.931 . S
C683 H671 0.929 . S
C683 C677 1.390 . S
C683 C680 1.386 . S
C684 C679 1.490 . S
C684 C686 1.395 . S
C684 C687 1.403 . S
H685 C691 0.930 . S
C686 H672 0.930 . S
C686 C684 1.395 . S
C686 C689 1.403 . S
C687 C684 1.403 . S
C687 C688 1.524 . S
C687 C691 1.400 . S
C688 H673 0.960 . S
C688 H674 0.960 . S
C688 H675 0.960 . S
C688 C687 1.524 . S
C689 C686 1.403 . S
C689 C690 1.392 . S
C689 C693 1.495 . S
C690 C689 1.392 . S
C690 C691 1.385 . S
C690 C692 1.478 . S
C691 H685 0.930 . S
C691 C687 1.400 . S
C691 C690 1.385 . S
C692 C690 1.478 . S
C692 C694 1.381 . S
C692 C698 1.383 . S
C693 C689 1.495 . S
C693 H699 0.959 . S
C693 H700 0.961 . S
C693 H701 0.960 . S
C694 C692 1.381 . S
C694 C695 1.394 . S
C694 H702 0.930 . S
C695 C694 1.394 . S
C695 C696 1.383 . S
C695 H703 0.929 . S
C696 C695 1.383 . S
C696 C697 1.377 . S
C697 H681 0.930 . S
C697 C696 1.377 . S
C697 C698 1.379 . S
C698 H682 0.931 . S
C698 C692 1.383 . S
C698 C697 1.379 . S
H699 C693 0.959 . S
H700 C693 0.961 . S
H701 C693 0.960 . S
H702 C694 0.930 . S
H703 C695 0.929 . S
H704 C712 0.929 . S
H705 C714 0.930 . S
H706 C716 0.930 . S
H707 C719 0.929 . S
H708 C722 0.930 . S
H709 C724 0.960 . S
H710 C724 0.960 . S
H711 C724 0.960 . S
C712 H704 0.929 . S
C712 C713 1.377 . S
C712 C714 1.384 . S
C713 C712 1.377 . S
C713 C719 1.390 . S
C714 H705 0.930 . S
C714 C712 1.384 . S
C714 C715 1.372 . S
C715 C714 1.372 . S
C715 C716 1.400 . S
C715 C720 1.490 . S
C716 H706 0.930 . S
C716 C715 1.400 . S
C716 C719 1.386 . S
H717 C733 0.930 . S
H718 C734 0.931 . S
C719 H707 0.929 . S
C719 C713 1.390 . S
C719 C716 1.386 . S
C720 C715 1.490 . S
C720 C722 1.395 . S
C720 C723 1.403 . S
H721 C727 0.930 . S
C722 H708 0.930 . S
C722 C720 1.395 . S
C722 C725 1.403 . S
C723 C720 1.403 . S
C723 C724 1.524 . S
C723 C727 1.400 . S
C724 H709 0.960 . S
C724 H710 0.960 . S
C724 H711 0.960 . S
C724 C723 1.524 . S
C725 C722 1.403 . S
C725 C726 1.392 . S
C725 C729 1.495 . S
C726 C725 1.392 . S
C726 C727 1.385 . S
C726 C728 1.478 . S
C727 H721 0.930 . S
C727 C723 1.400 . S
C727 C726 1.385 . S
C728 C726 1.478 . S
C728 C730 1.381 . S
C728 C734 1.383 . S
C729 C725 1.495 . S
C729 H735 0.959 . S
C729 H736 0.961 . S
C729 H737 0.960 . S
C730 C728 1.381 . S
C730 C731 1.394 . S
C730 H738 0.930 . S
C731 C730 1.394 . S
C731 C732 1.383 . S
C731 H739 0.929 . S
C732 C731 1.383 . S
C732 C733 1.377 . S
C733 H717 0.930 . S
C733 C732 1.377 . S
C733 C734 1.379 . S
C734 H718 0.931 . S
C734 C728 1.383 . S
C734 C733 1.379 . S
H735 C729 0.959 . S
H736 C729 0.961 . S
H737 C729 0.960 . S
H738 C730 0.930 . S
H739 C731 0.929 . S
H740 C748 0.929 . S
H741 C750 0.930 . S
H742 C752 0.930 . S
H743 C755 0.929 . S
H744 C758 0.930 . S
H745 C760 0.960 . S
H746 C760 0.960 . S
H747 C760 0.960 . S
C748 H740 0.929 . S
C748 C749 1.377 . S
C748 C750 1.384 . S
C749 C748 1.377 . S
C749 C755 1.390 . S
C750 H741 0.930 . S
C750 C748 1.384 . S
C750 C751 1.372 . S
C751 C750 1.372 . S
C751 C752 1.400 . S
C751 C756 1.490 . S
C752 H742 0.930 . S
C752 C751 1.400 . S
C752 C755 1.386 . S
H753 C769 0.930 . S
H754 C770 0.931 . S
C755 H743 0.929 . S
C755 C749 1.390 . S
C755 C752 1.386 . S
C756 C751 1.490 . S
C756 C758 1.395 . S
C756 C759 1.403 . S
H757 C763 0.930 . S
C758 H744 0.930 . S
C758 C756 1.395 . S
C758 C761 1.403 . S
C759 C756 1.403 . S
C759 C760 1.524 . S
C759 C763 1.400 . S
C760 H745 0.960 . S
C760 H746 0.960 . S
C760 H747 0.960 . S
C760 C759 1.524 . S
C761 C758 1.403 . S
C761 C762 1.392 . S
C761 C765 1.495 . S
C762 C761 1.392 . S
C762 C763 1.385 . S
C762 C764 1.478 . S
C763 H757 0.930 . S
C763 C759 1.400 . S
C763 C762 1.385 . S
C764 C762 1.478 . S
C764 C766 1.381 . S
C764 C770 1.383 . S
C765 C761 1.495 . S
C765 H771 0.959 . S
C765 H772 0.961 . S
C765 H773 0.960 . S
C766 C764 1.381 . S
C766 C767 1.394 . S
C766 H774 0.930 . S
C767 C766 1.394 . S
C767 C768 1.383 . S
C767 H775 0.929 . S
C768 C767 1.383 . S
C768 C769 1.377 . S
C769 H753 0.930 . S
C769 C768 1.377 . S
C769 C770 1.379 . S
C770 H754 0.931 . S
C770 C764 1.383 . S
C770 C769 1.379 . S
H771 C765 0.959 . S
H772 C765 0.961 . S
H773 C765 0.960 . S
H774 C766 0.930 . S
H775 C767 0.929 . S
H776 C784 0.929 . S
H777 C786 0.930 . S
H778 C788 0.930 . S
H779 C791 0.929 . S
H780 C794 0.930 . S
H781 C796 0.960 . S
H782 C796 0.960 . S
H783 C796 0.960 . S
C784 H776 0.929 . S
C784 C785 1.377 . S
C784 C786 1.384 . S
C785 C784 1.377 . S
C785 C791 1.390 . S
C786 H777 0.930 . S
C786 C784 1.384 . S
C786 C787 1.372 . S
C787 C786 1.372 . S
C787 C788 1.400 . S
C787 C792 1.490 . S
C788 H778 0.930 . S
C788 C787 1.400 . S
C788 C791 1.386 . S
H789 C805 0.930 . S
H790 C806 0.931 . S
C791 H779 0.929 . S
C791 C785 1.390 . S
C791 C788 1.386 . S
C792 C787 1.490 . S
C792 C794 1.395 . S
C792 C795 1.403 . S
H793 C799 0.930 . S
C794 H780 0.930 . S
C794 C792 1.395 . S
C794 C797 1.403 . S
C795 C792 1.403 . S
C795 C796 1.524 . S
C795 C799 1.400 . S
C796 H781 0.960 . S
C796 H782 0.960 . S
C796 H783 0.960 . S
C796 C795 1.524 . S
C797 C794 1.403 . S
C797 C798 1.392 . S
C797 C801 1.495 . S
C798 C797 1.392 . S
C798 C799 1.385 . S
C798 C800 1.478 . S
C799 H793 0.930 . S
C799 C795 1.400 . S
C799 C798 1.385 . S
C800 C798 1.478 . S
C800 C802 1.381 . S
C800 C806 1.383 . S
C801 C797 1.495 . S
C801 H807 0.959 . S
C801 H808 0.961 . S
C801 H809 0.960 . S
C802 C800 1.381 . S
C802 C803 1.394 . S
C802 H810 0.930 . S
C803 C802 1.394 . S
C803 C804 1.383 . S
C803 H811 0.929 . S
C804 C803 1.383 . S
C804 C805 1.377 . S
C805 H789 0.930 . S
C805 C804 1.377 . S
C805 C806 1.379 . S
C806 H790 0.931 . S
C806 C800 1.383 . S
C806 C805 1.379 . S
H807 C801 0.959 . S
H808 C801 0.961 . S
H809 C801 0.960 . S
H810 C802 0.930 . S
H811 C803 0.929 . S
H812 C820 0.929 . S
H813 C822 0.930 . S
H814 C824 0.930 . S
H815 C827 0.929 . S
H816 C830 0.930 . S
H817 C832 0.960 . S
H818 C832 0.960 . S
H819 C832 0.960 . S
C820 H812 0.929 . S
C820 C821 1.377 . S
C820 C822 1.384 . S
C821 C820 1.377 . S
C821 C827 1.390 . S
C822 H813 0.930 . S
C822 C820 1.384 . S
C822 C823 1.372 . S
C823 C822 1.372 . S
C823 C824 1.400 . S
C823 C828 1.490 . S
C824 H814 0.930 . S
C824 C823 1.400 . S
C824 C827 1.386 . S
H825 C841 0.930 . S
H826 C842 0.931 . S
C827 H815 0.929 . S
C827 C821 1.390 . S
C827 C824 1.386 . S
C828 C823 1.490 . S
C828 C830 1.395 . S
C828 C831 1.403 . S
H829 C835 0.930 . S
C830 H816 0.930 . S
C830 C828 1.395 . S
C830 C833 1.403 . S
C831 C828 1.403 . S
C831 C832 1.524 . S
C831 C835 1.400 . S
C832 H817 0.960 . S
C832 H818 0.960 . S
C832 H819 0.960 . S
C832 C831 1.524 . S
C833 C830 1.403 . S
C833 C834 1.392 . S
C833 C837 1.495 . S
C834 C833 1.392 . S
C834 C835 1.385 . S
C834 C836 1.478 . S
C835 H829 0.930 . S
C835 C831 1.400 . S
C835 C834 1.385 . S
C836 C834 1.478 . S
C836 C838 1.381 . S
C836 C842 1.383 . S
C837 C833 1.495 . S
C837 H843 0.959 . S
C837 H844 0.961 . S
C837 H845 0.960 . S
C838 C836 1.381 . S
C838 C839 1.394 . S
C838 H846 0.930 . S
C839 C838 1.394 . S
C839 C840 1.383 . S
C839 H847 0.929 . S
C840 C839 1.383 . S
C840 C841 1.377 . S
C841 H825 0.930 . S
C841 C840 1.377 . S
C841 C842 1.379 . S
C842 H826 0.931 . S
C842 C836 1.383 . S
C842 C841 1.379 . S
H843 C837 0.959 . S
H844 C837 0.961 . S
H845 C837 0.960 . S
H846 C838 0.930 . S
H847 C839 0.929 . S
H848 C856 0.929 . S
H849 C858 0.930 . S
H850 C860 0.930 . S
H851 C863 0.929 . S
H852 C866 0.930 . S
H853 C868 0.960 . S
H854 C868 0.960 . S
H855 C868 0.960 . S
C856 H848 0.929 . S
C856 C857 1.377 1_545 S
C856 C858 1.384 1_545 S
C857 C856 1.377 1_565 S
C857 C863 1.390 . S
C858 H849 0.930 . S
C858 C856 1.384 1_565 S
C858 C859 1.372 . S
C859 C858 1.372 . S
C859 C860 1.400 . S
C859 C864 1.490 . S
C860 H850 0.930 . S
C860 C859 1.400 . S
C860 C863 1.386 . S
H861 C877 0.930 . S
H862 C878 0.931 . S
C863 H851 0.929 . S
C863 C857 1.390 . S
C863 C860 1.386 . S
C864 C859 1.490 . S
C864 C866 1.395 . S
C864 C867 1.403 . S
H865 C871 0.930 . S
C866 H852 0.930 . S
C866 C864 1.395 . S
C866 C869 1.403 . S
C867 C864 1.403 . S
C867 C868 1.524 . S
C867 C871 1.400 . S
C868 H853 0.960 . S
C868 H854 0.960 . S
C868 H855 0.960 . S
C868 C867 1.524 . S
C869 C866 1.403 . S
C869 C870 1.392 . S
C869 C873 1.495 . S
C870 C869 1.392 . S
C870 C871 1.385 . S
C870 C872 1.478 . S
C871 H865 0.930 . S
C871 C867 1.400 . S
C871 C870 1.385 . S
C872 C870 1.478 . S
C872 C874 1.381 . S
C872 C878 1.383 . S
C873 C869 1.495 . S
C873 H879 0.959 . S
C873 H880 0.961 . S
C873 H881 0.960 . S
C874 C872 1.381 . S
C874 C875 1.394 . S
C874 H882 0.930 . S
C875 C874 1.394 . S
C875 C876 1.383 . S
C875 H883 0.929 . S
C876 C875 1.383 . S
C876 C877 1.377 . S
C877 H861 0.930 . S
C877 C876 1.377 . S
C877 C878 1.379 . S
C878 H862 0.931 . S
C878 C872 1.383 . S
C878 C877 1.379 . S
H879 C873 0.959 . S
H880 C873 0.961 . S
H881 C873 0.960 . S
H882 C874 0.930 . S
H883 C875 0.929 . S
H884 C892 0.929 . S
H885 C894 0.930 . S
H886 C896 0.930 . S
H887 C899 0.929 . S
H888 C902 0.930 . S
H889 C904 0.960 . S
H890 C904 0.960 . S
H891 C904 0.960 . S
C892 H884 0.929 . S
C892 C893 1.377 . S
C892 C894 1.384 . S
C893 C892 1.377 . S
C893 C899 1.390 . S
C894 H885 0.930 . S
C894 C892 1.384 . S
C894 C895 1.372 . S
C895 C894 1.372 . S
C895 C896 1.400 . S
C895 C900 1.490 . S
C896 H886 0.930 . S
C896 C895 1.400 . S
C896 C899 1.386 . S
H897 C913 0.930 . S
H898 C914 0.931 . S
C899 H887 0.929 . S
C899 C893 1.390 . S
C899 C896 1.386 . S
C900 C895 1.490 . S
C900 C902 1.395 . S
C900 C903 1.403 . S
H901 C907 0.930 . S
C902 H888 0.930 . S
C902 C900 1.395 . S
C902 C905 1.403 . S
C903 C900 1.403 . S
C903 C904 1.524 . S
C903 C907 1.400 . S
C904 H889 0.960 . S
C904 H890 0.960 . S
C904 H891 0.960 . S
C904 C903 1.524 . S
C905 C902 1.403 . S
C905 C906 1.392 . S
C905 C909 1.495 . S
C906 C905 1.392 . S
C906 C907 1.385 . S
C906 C908 1.478 . S
C907 H901 0.930 . S
C907 C903 1.400 . S
C907 C906 1.385 . S
C908 C906 1.478 . S
C908 C910 1.381 . S
C908 C914 1.383 . S
C909 C905 1.495 . S
C909 H915 0.959 . S
C909 H916 0.961 . S
C909 H917 0.960 . S
C910 C908 1.381 . S
C910 C911 1.394 . S
C910 H918 0.930 . S
C911 C910 1.394 . S
C911 C912 1.383 . S
C911 H919 0.929 . S
C912 C911 1.383 . S
C912 C913 1.377 . S
C913 H897 0.930 . S
C913 C912 1.377 . S
C913 C914 1.379 . S
C914 H898 0.931 . S
C914 C908 1.383 . S
C914 C913 1.379 . S
H915 C909 0.959 . S
H916 C909 0.961 . S
H917 C909 0.960 . S
H918 C910 0.930 . S
H919 C911 0.929 . S
H920 C928 0.929 . S
H921 C930 0.930 . S
H922 C932 0.930 . S
H923 C935 0.929 . S
H924 C938 0.930 . S
H925 C940 0.960 . S
H926 C940 0.960 . S
H927 C940 0.960 . S
C928 H920 0.929 . S
C928 C929 1.377 . S
C928 C930 1.384 . S
C929 C928 1.377 . S
C929 C935 1.390 . S
C930 H921 0.930 . S
C930 C928 1.384 . S
C930 C931 1.372 . S
C931 C930 1.372 . S
C931 C932 1.400 . S
C931 C936 1.490 . S
C932 H922 0.930 . S
C932 C931 1.400 . S
C932 C935 1.386 . S
H933 C949 0.930 . S
H934 C950 0.931 . S
C935 H923 0.929 . S
C935 C929 1.390 . S
C935 C932 1.386 . S
C936 C931 1.490 . S
C936 C938 1.395 . S
C936 C939 1.403 . S
H937 C943 0.930 . S
C938 H924 0.930 . S
C938 C936 1.395 . S
C938 C941 1.403 . S
C939 C936 1.403 . S
C939 C940 1.524 . S
C939 C943 1.400 . S
C940 H925 0.960 . S
C940 H926 0.960 . S
C940 H927 0.960 . S
C940 C939 1.524 . S
C941 C938 1.403 . S
C941 C942 1.392 . S
C941 C945 1.495 . S
C942 C941 1.392 . S
C942 C943 1.385 . S
C942 C944 1.478 . S
C943 H937 0.930 . S
C943 C939 1.400 . S
C943 C942 1.385 . S
C944 C942 1.478 . S
C944 C946 1.381 . S
C944 C950 1.383 . S
C945 C941 1.495 . S
C945 H951 0.959 . S
C945 H952 0.961 . S
C945 H953 0.960 . S
C946 C944 1.381 . S
C946 C947 1.394 . S
C946 H954 0.930 . S
C947 C946 1.394 . S
C947 C948 1.383 . S
C947 H955 0.929 . S
C948 C947 1.383 . S
C948 C949 1.377 . S
C949 H933 0.930 . S
C949 C948 1.377 . S
C949 C950 1.379 . S
C950 H934 0.931 . S
C950 C944 1.383 . S
C950 C949 1.379 . S
H951 C945 0.959 . S
H952 C945 0.961 . S
H953 C945 0.960 . S
H954 C946 0.930 . S
H955 C947 0.929 . S
H956 C964 0.929 . S
H957 C966 0.930 . S
H958 C968 0.930 . S
H959 C971 0.929 . S
H960 C974 0.930 . S
H961 C976 0.960 . S
H962 C976 0.960 . S
H963 C976 0.960 . S
C964 H956 0.929 . S
C964 C965 1.377 . S
C964 C966 1.384 . S
C965 C964 1.377 . S
C965 C971 1.390 . S
C966 H957 0.930 . S
C966 C964 1.384 . S
C966 C967 1.372 . S
C967 C966 1.372 . S
C967 C968 1.400 . S
C967 C972 1.490 . S
C968 H958 0.930 . S
C968 C967 1.400 . S
C968 C971 1.386 . S
H969 C985 0.930 . S
H970 C986 0.931 . S
C971 H959 0.929 . S
C971 C965 1.390 . S
C971 C968 1.386 . S
C972 C967 1.490 . S
C972 C974 1.395 . S
C972 C975 1.403 . S
H973 C979 0.930 . S
C974 H960 0.930 . S
C974 C972 1.395 . S
C974 C977 1.403 . S
C975 C972 1.403 . S
C975 C976 1.524 . S
C975 C979 1.400 . S
C976 H961 0.960 . S
C976 H962 0.960 . S
C976 H963 0.960 . S
C976 C975 1.524 . S
C977 C974 1.403 . S
C977 C978 1.392 . S
C977 C981 1.495 . S
C978 C977 1.392 . S
C978 C979 1.385 . S
C978 C980 1.478 . S
C979 H973 0.930 . S
C979 C975 1.400 . S
C979 C978 1.385 . S
C980 C978 1.478 . S
C980 C982 1.381 . S
C980 C986 1.383 . S
C981 C977 1.495 . S
C981 H987 0.959 . S
C981 H988 0.961 . S
C981 H989 0.960 . S
C982 C980 1.381 . S
C982 C983 1.394 . S
C982 H990 0.930 . S
C983 C982 1.394 . S
C983 C984 1.383 . S
C983 H991 0.929 . S
C984 C983 1.383 . S
C984 C985 1.377 . S
C985 H969 0.930 . S
C985 C984 1.377 . S
C985 C986 1.379 . S
C986 H970 0.931 . S
C986 C980 1.383 . S
C986 C985 1.379 . S
H987 C981 0.959 . S
H988 C981 0.961 . S
H989 C981 0.960 . S
H990 C982 0.930 . S
H991 C983 0.929 . S
H992 C1000 0.929 . S
H993 C1002 0.930 . S
H994 C1004 0.930 . S
H995 C1007 0.929 . S
H996 C1010 0.930 . S
H997 C1012 0.960 . S
H998 C1012 0.960 . S
H999 C1012 0.960 . S
C1000 H992 0.929 . S
C1000 C1001 1.377 . S
C1000 C1002 1.384 . S
C1001 C1000 1.377 . S
C1001 C1007 1.390 . S
C1002 H993 0.930 . S
C1002 C1000 1.384 . S
C1002 C1003 1.372 . S
C1003 C1002 1.372 . S
C1003 C1004 1.400 . S
C1003 C1008 1.490 . S
C1004 H994 0.930 . S
C1004 C1003 1.400 . S
C1004 C1007 1.386 . S
H1005 C1021 0.930 . S
H1006 C1022 0.931 . S
C1007 H995 0.929 . S
C1007 C1001 1.390 . S
C1007 C1004 1.386 . S
C1008 C1003 1.490 . S
C1008 C1010 1.395 . S
C1008 C1011 1.403 . S
H1009 C1015 0.930 . S
C1010 H996 0.930 . S
C1010 C1008 1.395 . S
C1010 C1013 1.403 . S
C1011 C1008 1.403 . S
C1011 C1012 1.524 . S
C1011 C1015 1.400 . S
C1012 H997 0.960 . S
C1012 H998 0.960 . S
C1012 H999 0.960 . S
C1012 C1011 1.524 . S
C1013 C1010 1.403 . S
C1013 C1014 1.392 . S
C1013 C1017 1.495 . S
C1014 C1013 1.392 . S
C1014 C1015 1.385 . S
C1014 C1016 1.478 . S
C1015 H1009 0.930 . S
C1015 C1011 1.400 . S
C1015 C1014 1.385 . S
C1016 C1014 1.478 . S
C1016 C1018 1.381 . S
C1016 C1022 1.383 . S
C1017 C1013 1.495 . S
C1017 H1023 0.959 . S
C1017 H1024 0.961 . S
C1017 H1025 0.960 . S
C1018 C1016 1.381 . S
C1018 C1019 1.394 . S
C1018 H1026 0.930 . S
C1019 C1018 1.394 . S
C1019 C1020 1.383 . S
C1019 H1027 0.929 . S
C1020 C1019 1.383 . S
C1020 C1021 1.377 . S
C1021 H1005 0.930 . S
C1021 C1020 1.377 . S
C1021 C1022 1.379 . S
C1022 H1006 0.931 . S
C1022 C1016 1.383 . S
C1022 C1021 1.379 . S
H1023 C1017 0.959 . S
H1024 C1017 0.961 . S
H1025 C1017 0.960 . S
H1026 C1018 0.930 . S
H1027 C1019 0.929 . S
H1028 C1036 0.929 . S
H1029 C1038 0.930 . S
H1030 C1040 0.930 . S
H1031 C1043 0.929 . S
H1032 C1046 0.930 . S
H1033 C1048 0.960 . S
H1034 C1048 0.960 . S
H1035 C1048 0.960 . S
C1036 H1028 0.929 . S
C1036 C1037 1.377 . S
C1036 C1038 1.384 1_545 S
C1037 C1036 1.377 . S
C1037 C1043 1.390 . S
C1038 H1029 0.930 . S
C1038 C1036 1.384 1_565 S
C1038 C1039 1.372 . S
C1039 C1038 1.372 . S
C1039 C1040 1.400 . S
C1039 C1044 1.490 . S
C1040 H1030 0.930 . S
C1040 C1039 1.400 . S
C1040 C1043 1.386 1_565 S
H1041 C1057 0.930 . S
H1042 C1058 0.931 . S
C1043 H1031 0.929 . S
C1043 C1037 1.390 . S
C1043 C1040 1.386 1_545 S
C1044 C1039 1.490 . S
C1044 C1046 1.395 . S
C1044 C1047 1.403 . S
H1045 C1051 0.930 . S
C1046 H1032 0.930 . S
C1046 C1044 1.395 . S
C1046 C1049 1.403 . S
C1047 C1044 1.403 . S
C1047 C1048 1.524 . S
C1047 C1051 1.400 . S
C1048 H1033 0.960 . S
C1048 H1034 0.960 . S
C1048 H1035 0.960 . S
C1048 C1047 1.524 . S
C1049 C1046 1.403 . S
C1049 C1050 1.392 . S
C1049 C1053 1.495 . S
C1050 C1049 1.392 . S
C1050 C1051 1.385 . S
C1050 C1052 1.478 . S
C1051 H1045 0.930 . S
C1051 C1047 1.400 . S
C1051 C1050 1.385 . S
C1052 C1050 1.478 . S
C1052 C1054 1.381 . S
C1052 C1058 1.383 . S
C1053 C1049 1.495 . S
C1053 H1059 0.959 . S
C1053 H1060 0.961 . S
C1053 H1061 0.960 . S
C1054 C1052 1.381 . S
C1054 C1055 1.394 . S
C1054 H1062 0.930 . S
C1055 C1054 1.394 . S
C1055 C1056 1.383 . S
C1055 H1063 0.929 . S
C1056 C1055 1.383 . S
C1056 C1057 1.377 . S
C1057 H1041 0.930 . S
C1057 C1056 1.377 . S
C1057 C1058 1.379 . S
C1058 H1042 0.931 . S
C1058 C1052 1.383 . S
C1058 C1057 1.379 . S
H1059 C1053 0.959 . S
H1060 C1053 0.961 . S
H1061 C1053 0.960 . S
H1062 C1054 0.930 . S
H1063 C1055 0.929 . S
H1064 C1072 0.929 . S
H1065 C1074 0.930 . S
H1066 C1076 0.930 . S
H1067 C1079 0.929 . S
H1068 C1082 0.930 . S
H1069 C1084 0.960 . S
H1070 C1084 0.960 . S
H1071 C1084 0.960 . S
C1072 H1064 0.929 . S
C1072 C1073 1.377 . S
C1072 C1074 1.384 . S
C1073 C1072 1.377 . S
C1073 C1079 1.390 . S
C1074 H1065 0.930 . S
C1074 C1072 1.384 . S
C1074 C1075 1.372 . S
C1075 C1074 1.372 . S
C1075 C1076 1.400 . S
C1075 C1080 1.490 . S
C1076 H1066 0.930 . S
C1076 C1075 1.400 . S
C1076 C1079 1.386 . S
H1077 C1093 0.930 . S
H1078 C1094 0.931 . S
C1079 H1067 0.929 . S
C1079 C1073 1.390 . S
C1079 C1076 1.386 . S
C1080 C1075 1.490 . S
C1080 C1082 1.395 . S
C1080 C1083 1.403 . S
H1081 C1087 0.930 . S
C1082 H1068 0.930 . S
C1082 C1080 1.395 . S
C1082 C1085 1.403 . S
C1083 C1080 1.403 . S
C1083 C1084 1.524 . S
C1083 C1087 1.400 . S
C1084 H1069 0.960 . S
C1084 H1070 0.960 . S
C1084 H1071 0.960 . S
C1084 C1083 1.524 . S
C1085 C1082 1.403 . S
C1085 C1086 1.392 . S
C1085 C1089 1.495 . S
C1086 C1085 1.392 . S
C1086 C1087 1.385 . S
C1086 C1088 1.478 . S
C1087 H1081 0.930 . S
C1087 C1083 1.400 . S
C1087 C1086 1.385 . S
C1088 C1086 1.478 . S
C1088 C1090 1.381 . S
C1088 C1094 1.383 . S
C1089 C1085 1.495 . S
C1089 H1095 0.959 . S
C1089 H1096 0.961 . S
C1089 H1097 0.960 . S
C1090 C1088 1.381 . S
C1090 C1091 1.394 . S
C1090 H1098 0.930 . S
C1091 C1090 1.394 . S
C1091 C1092 1.383 . S
C1091 H1099 0.929 . S
C1092 C1091 1.383 . S
C1092 C1093 1.377 . S
C1093 H1077 0.930 . S
C1093 C1092 1.377 . S
C1093 C1094 1.379 . S
C1094 H1078 0.931 . S
C1094 C1088 1.383 . S
C1094 C1093 1.379 . S
H1095 C1089 0.959 . S
H1096 C1089 0.961 . S
H1097 C1089 0.960 . S
H1098 C1090 0.930 . S
H1099 C1091 0.929 . S
H1100 C1108 0.929 . S
H1101 C1110 0.930 . S
H1102 C1112 0.930 . S
H1103 C1115 0.929 . S
H1104 C1118 0.930 . S
H1105 C1120 0.960 . S
H1106 C1120 0.960 . S
H1107 C1120 0.960 . S
C1108 H1100 0.929 . S
C1108 C1109 1.377 . S
C1108 C1110 1.384 . S
C1109 C1108 1.377 . S
C1109 C1115 1.390 . S
C1110 H1101 0.930 . S
C1110 C1108 1.384 . S
C1110 C1111 1.372 . S
C1111 C1110 1.372 . S
C1111 C1112 1.400 . S
C1111 C1116 1.490 . S
C1112 H1102 0.930 . S
C1112 C1111 1.400 . S
C1112 C1115 1.386 . S
H1113 C1129 0.930 . S
H1114 C1130 0.931 . S
C1115 H1103 0.929 . S
C1115 C1109 1.390 . S
C1115 C1112 1.386 . S
C1116 C1111 1.490 . S
C1116 C1118 1.395 . S
C1116 C1119 1.403 . S
H1117 C1123 0.930 . S
C1118 H1104 0.930 . S
C1118 C1116 1.395 . S
C1118 C1121 1.403 . S
C1119 C1116 1.403 . S
C1119 C1120 1.524 . S
C1119 C1123 1.400 . S
C1120 H1105 0.960 . S
C1120 H1106 0.960 . S
C1120 H1107 0.960 . S
C1120 C1119 1.524 . S
C1121 C1118 1.403 . S
C1121 C1122 1.392 . S
C1121 C1125 1.495 . S
C1122 C1121 1.392 . S
C1122 C1123 1.385 . S
C1122 C1124 1.478 . S
C1123 H1117 0.930 . S
C1123 C1119 1.400 . S
C1123 C1122 1.385 . S
C1124 C1122 1.478 . S
C1124 C1126 1.381 . S
C1124 C1130 1.383 . S
C1125 C1121 1.495 . S
C1125 H1131 0.959 . S
C1125 H1132 0.961 . S
C1125 H1133 0.960 . S
C1126 C1124 1.381 . S
C1126 C1127 1.394 . S
C1126 H1134 0.930 . S
C1127 C1126 1.394 . S
C1127 C1128 1.383 . S
C1127 H1135 0.929 . S
C1128 C1127 1.383 . S
C1128 C1129 1.377 . S
C1129 H1113 0.930 . S
C1129 C1128 1.377 . S
C1129 C1130 1.379 . S
C1130 H1114 0.931 . S
C1130 C1124 1.383 . S
C1130 C1129 1.379 . S
H1131 C1125 0.959 . S
H1132 C1125 0.961 . S
H1133 C1125 0.960 . S
H1134 C1126 0.930 . S
H1135 C1127 0.929 . S
H1136 C1144 0.929 . S
H1137 C1146 0.930 . S
H1138 C1148 0.930 . S
H1139 C1151 0.929 . S
H1140 C1154 0.930 . S
H1141 C1156 0.960 . S
H1142 C1156 0.960 . S
H1143 C1156 0.960 . S
C1144 H1136 0.929 . S
C1144 C1145 1.377 . S
C1144 C1146 1.384 . S
C1145 C1144 1.377 . S
C1145 C1151 1.390 . S
C1146 H1137 0.930 . S
C1146 C1144 1.384 . S
C1146 C1147 1.372 . S
C1147 C1146 1.372 . S
C1147 C1148 1.400 . S
C1147 C1152 1.490 . S
C1148 H1138 0.930 . S
C1148 C1147 1.400 . S
C1148 C1151 1.386 . S
H1149 C1165 0.930 . S
H1150 C1166 0.931 . S
C1151 H1139 0.929 . S
C1151 C1145 1.390 . S
C1151 C1148 1.386 . S
C1152 C1147 1.490 . S
C1152 C1154 1.395 . S
C1152 C1155 1.403 . S
H1153 C1159 0.930 . S
C1154 H1140 0.930 . S
C1154 C1152 1.395 . S
C1154 C1157 1.403 . S
C1155 C1152 1.403 . S
C1155 C1156 1.524 . S
C1155 C1159 1.400 . S
C1156 H1141 0.960 . S
C1156 H1142 0.960 . S
C1156 H1143 0.960 . S
C1156 C1155 1.524 . S
C1157 C1154 1.403 . S
C1157 C1158 1.392 . S
C1157 C1161 1.495 . S
C1158 C1157 1.392 . S
C1158 C1159 1.385 . S
C1158 C1160 1.478 . S
C1159 H1153 0.930 . S
C1159 C1155 1.400 . S
C1159 C1158 1.385 . S
C1160 C1158 1.478 . S
C1160 C1162 1.381 . S
C1160 C1166 1.383 . S
C1161 C1157 1.495 . S
C1161 H1167 0.959 . S
C1161 H1168 0.961 . S
C1161 H1169 0.960 . S
C1162 C1160 1.381 . S
C1162 C1163 1.394 . S
C1162 H1170 0.930 . S
C1163 C1162 1.394 . S
C1163 C1164 1.383 . S
C1163 H1171 0.929 . S
C1164 C1163 1.383 . S
C1164 C1165 1.377 . S
C1165 H1149 0.930 . S
C1165 C1164 1.377 . S
C1165 C1166 1.379 . S
C1166 H1150 0.931 . S
C1166 C1160 1.383 . S
C1166 C1165 1.379 . S
H1167 C1161 0.959 . S
H1168 C1161 0.961 . S
H1169 C1161 0.960 . S
H1170 C1162 0.930 . S
H1171 C1163 0.929 . S
H1172 C1180 0.929 . S
H1173 C1182 0.930 . S
H1174 C1184 0.930 . S
H1175 C1187 0.929 . S
H1176 C1190 0.930 . S
H1177 C1192 0.960 . S
H1178 C1192 0.960 . S
H1179 C1192 0.960 . S
C1180 H1172 0.929 . S
C1180 C1181 1.377 . S
C1180 C1182 1.384 . S
C1181 C1180 1.377 . S
C1181 C1187 1.390 . S
C1182 H1173 0.930 . S
C1182 C1180 1.384 . S
C1182 C1183 1.372 . S
C1183 C1182 1.372 . S
C1183 C1184 1.400 . S
C1183 C1188 1.490 . S
C1184 H1174 0.930 . S
C1184 C1183 1.400 . S
C1184 C1187 1.386 . S
H1185 C1201 0.930 . S
H1186 C1202 0.931 . S
C1187 H1175 0.929 . S
C1187 C1181 1.390 . S
C1187 C1184 1.386 . S
C1188 C1183 1.490 . S
C1188 C1190 1.395 . S
C1188 C1191 1.403 . S
H1189 C1195 0.930 . S
C1190 H1176 0.930 . S
C1190 C1188 1.395 . S
C1190 C1193 1.403 . S
C1191 C1188 1.403 . S
C1191 C1192 1.524 . S
C1191 C1195 1.400 . S
C1192 H1177 0.960 . S
C1192 H1178 0.960 . S
C1192 H1179 0.960 . S
C1192 C1191 1.524 . S
C1193 C1190 1.403 . S
C1193 C1194 1.392 . S
C1193 C1197 1.495 . S
C1194 C1193 1.392 . S
C1194 C1195 1.385 . S
C1194 C1196 1.478 . S
C1195 H1189 0.930 . S
C1195 C1191 1.400 . S
C1195 C1194 1.385 . S
C1196 C1194 1.478 . S
C1196 C1198 1.381 . S
C1196 C1202 1.383 . S
C1197 C1193 1.495 . S
C1197 H1203 0.959 . S
C1197 H1204 0.961 . S
C1197 H1205 0.960 . S
C1198 C1196 1.381 . S
C1198 C1199 1.394 . S
C1198 H1206 0.930 . S
C1199 C1198 1.394 . S
C1199 C1200 1.383 . S
C1199 H1207 0.929 . S
C1200 C1199 1.383 . S
C1200 C1201 1.377 . S
C1201 H1185 0.930 . S
C1201 C1200 1.377 . S
C1201 C1202 1.379 . S
C1202 H1186 0.931 . S
C1202 C1196 1.383 . S
C1202 C1201 1.379 . S
H1203 C1197 0.959 . S
H1204 C1197 0.961 . S
H1205 C1197 0.960 . S
H1206 C1198 0.930 . S
H1207 C1199 0.929 . S
H1208 C1216 0.929 . S
H1209 C1218 0.930 . S
H1210 C1220 0.930 . S
H1211 C1223 0.929 . S
H1212 C1226 0.930 . S
H1213 C1228 0.960 . S
H1214 C1228 0.960 . S
H1215 C1228 0.960 . S
C1216 H1208 0.929 . S
C1216 C1217 1.377 . S
C1216 C1218 1.384 . S
C1217 C1216 1.377 . S
C1217 C1223 1.390 . S
C1218 H1209 0.930 . S
C1218 C1216 1.384 . S
C1218 C1219 1.372 . S
C1219 C1218 1.372 . S
C1219 C1220 1.400 . S
C1219 C1224 1.490 . S
C1220 H1210 0.930 . S
C1220 C1219 1.400 . S
C1220 C1223 1.386 . S
H1221 C1237 0.930 . S
H1222 C1238 0.931 . S
C1223 H1211 0.929 . S
C1223 C1217 1.390 . S
C1223 C1220 1.386 . S
C1224 C1219 1.490 . S
C1224 C1226 1.395 . S
C1224 C1227 1.403 . S
H1225 C1231 0.930 . S
C1226 H1212 0.930 . S
C1226 C1224 1.395 . S
C1226 C1229 1.403 . S
C1227 C1224 1.403 . S
C1227 C1228 1.524 . S
C1227 C1231 1.400 . S
C1228 H1213 0.960 . S
C1228 H1214 0.960 . S
C1228 H1215 0.960 . S
C1228 C1227 1.524 . S
C1229 C1226 1.403 . S
C1229 C1230 1.392 . S
C1229 C1233 1.495 . S
C1230 C1229 1.392 . S
C1230 C1231 1.385 . S
C1230 C1232 1.478 . S
C1231 H1225 0.930 . S
C1231 C1227 1.400 . S
C1231 C1230 1.385 . S
C1232 C1230 1.478 . S
C1232 C1234 1.381 . S
C1232 C1238 1.383 . S
C1233 C1229 1.495 . S
C1233 H1239 0.959 . S
C1233 H1240 0.961 . S
C1233 H1241 0.960 . S
C1234 C1232 1.381 . S
C1234 C1235 1.394 . S
C1234 H1242 0.930 . S
C1235 C1234 1.394 . S
C1235 C1236 1.383 . S
C1235 H1243 0.929 . S
C1236 C1235 1.383 . S
C1236 C1237 1.377 . S
C1237 H1221 0.930 . S
C1237 C1236 1.377 . S
C1237 C1238 1.379 . S
C1238 H1222 0.931 . S
C1238 C1232 1.383 . S
C1238 C1237 1.379 . S
H1239 C1233 0.959 . S
H1240 C1233 0.961 . S
H1241 C1233 0.960 . S
H1242 C1234 0.930 . S
H1243 C1235 0.929 . S
H1244 C1252 0.929 . S
H1245 C1254 0.930 . S
H1246 C1256 0.930 . S
H1247 C1259 0.929 . S
H1248 C1262 0.930 . S
H1249 C1264 0.960 . S
H1250 C1264 0.960 . S
H1251 C1264 0.960 . S
C1252 H1244 0.929 . S
C1252 C1253 1.377 . S
C1252 C1254 1.384 . S
C1253 C1252 1.377 . S
C1253 C1259 1.390 . S
C1254 H1245 0.930 . S
C1254 C1252 1.384 . S
C1254 C1255 1.372 . S
C1255 C1254 1.372 . S
C1255 C1256 1.400 . S
C1255 C1260 1.490 . S
C1256 H1246 0.930 . S
C1256 C1255 1.400 . S
C1256 C1259 1.386 . S
H1257 C1273 0.930 . S
H1258 C1274 0.931 . S
C1259 H1247 0.929 . S
C1259 C1253 1.390 . S
C1259 C1256 1.386 . S
C1260 C1255 1.490 . S
C1260 C1262 1.395 . S
C1260 C1263 1.403 . S
H1261 C1267 0.930 . S
C1262 H1248 0.930 . S
C1262 C1260 1.395 . S
C1262 C1265 1.403 . S
C1263 C1260 1.403 . S
C1263 C1264 1.524 . S
C1263 C1267 1.400 . S
C1264 H1249 0.960 . S
C1264 H1250 0.960 . S
C1264 H1251 0.960 . S
C1264 C1263 1.524 . S
C1265 C1262 1.403 . S
C1265 C1266 1.392 . S
C1265 C1269 1.495 . S
C1266 C1265 1.392 . S
C1266 C1267 1.385 . S
C1266 C1268 1.478 . S
C1267 H1261 0.930 . S
C1267 C1263 1.400 . S
C1267 C1266 1.385 . S
C1268 C1266 1.478 . S
C1268 C1270 1.381 . S
C1268 C1274 1.383 . S
C1269 C1265 1.495 . S
C1269 H1275 0.959 . S
C1269 H1276 0.961 . S
C1269 H1277 0.960 . S
C1270 C1268 1.381 . S
C1270 C1271 1.394 . S
C1270 H1278 0.930 . S
C1271 C1270 1.394 . S
C1271 C1272 1.383 . S
C1271 H1279 0.929 . S
C1272 C1271 1.383 . S
C1272 C1273 1.377 . S
C1273 H1257 0.930 . S
C1273 C1272 1.377 . S
C1273 C1274 1.379 . S
C1274 H1258 0.931 . S
C1274 C1268 1.383 . S
C1274 C1273 1.379 . S
H1275 C1269 0.959 . S
H1276 C1269 0.961 . S
H1277 C1269 0.960 . S
H1278 C1270 0.930 . S
H1279 C1271 0.929 . S
H1280 C1288 0.929 . S
H1281 C1290 0.930 . S
H1282 C1292 0.930 . S
H1283 C1295 0.929 . S
H1284 C1298 0.930 . S
H1285 C1300 0.960 . S
H1286 C1300 0.960 . S
H1287 C1300 0.960 . S
C1288 H1280 0.929 . S
C1288 C1289 1.377 . S
C1288 C1290 1.384 . S
C1289 C1288 1.377 . S
C1289 C1295 1.390 . S
C1290 H1281 0.930 . S
C1290 C1288 1.384 . S
C1290 C1291 1.372 . S
C1291 C1290 1.372 . S
C1291 C1292 1.400 . S
C1291 C1296 1.490 . S
C1292 H1282 0.930 . S
C1292 C1291 1.400 . S
C1292 C1295 1.386 . S
H1293 C1309 0.930 . S
H1294 C1310 0.931 . S
C1295 H1283 0.929 . S
C1295 C1289 1.390 . S
C1295 C1292 1.386 . S
C1296 C1291 1.490 . S
C1296 C1298 1.395 . S
C1296 C1299 1.403 . S
H1297 C1303 0.930 . S
C1298 H1284 0.930 . S
C1298 C1296 1.395 . S
C1298 C1301 1.403 . S
C1299 C1296 1.403 . S
C1299 C1300 1.524 . S
C1299 C1303 1.400 . S
C1300 H1285 0.960 . S
C1300 H1286 0.960 . S
C1300 H1287 0.960 . S
C1300 C1299 1.524 . S
C1301 C1298 1.403 . S
C1301 C1302 1.392 . S
C1301 C1305 1.495 . S
C1302 C1301 1.392 . S
C1302 C1303 1.385 . S
C1302 C1304 1.478 . S
C1303 H1297 0.930 . S
C1303 C1299 1.400 . S
C1303 C1302 1.385 . S
C1304 C1302 1.478 . S
C1304 C1306 1.381 . S
C1304 C1310 1.383 . S
C1305 C1301 1.495 . S
C1305 H1311 0.959 . S
C1305 H1312 0.961 . S
C1305 H1313 0.960 . S
C1306 C1304 1.381 . S
C1306 C1307 1.394 . S
C1306 H1314 0.930 . S
C1307 C1306 1.394 . S
C1307 C1308 1.383 . S
C1307 H1315 0.929 . S
C1308 C1307 1.383 . S
C1308 C1309 1.377 . S
C1309 H1293 0.930 . S
C1309 C1308 1.377 . S
C1309 C1310 1.379 . S
C1310 H1294 0.931 . S
C1310 C1304 1.383 . S
C1310 C1309 1.379 . S
H1311 C1305 0.959 . S
H1312 C1305 0.961 . S
H1313 C1305 0.960 . S
H1314 C1306 0.930 . S
H1315 C1307 0.929 . S
H1316 C1324 0.929 . S
H1317 C1326 0.930 . S
H1318 C1328 0.930 . S
H1319 C1331 0.929 . S
H1320 C1334 0.930 . S
H1321 C1336 0.960 . S
H1322 C1336 0.960 . S
H1323 C1336 0.960 . S
C1324 H1316 0.929 . S
C1324 C1325 1.377 . S
C1324 C1326 1.384 . S
C1325 C1324 1.377 . S
C1325 C1331 1.390 . S
C1326 H1317 0.930 . S
C1326 C1324 1.384 . S
C1326 C1327 1.372 . S
C1327 C1326 1.372 . S
C1327 C1328 1.400 . S
C1327 C1332 1.490 . S
C1328 H1318 0.930 . S
C1328 C1327 1.400 . S
C1328 C1331 1.386 . S
H1329 C1345 0.930 . S
H1330 C1346 0.931 . S
C1331 H1319 0.929 . S
C1331 C1325 1.390 . S
C1331 C1328 1.386 . S
C1332 C1327 1.490 . S
C1332 C1334 1.395 . S
C1332 C1335 1.403 . S
H1333 C1339 0.930 . S
C1334 H1320 0.930 . S
C1334 C1332 1.395 . S
C1334 C1337 1.403 . S
C1335 C1332 1.403 . S
C1335 C1336 1.524 . S
C1335 C1339 1.400 . S
C1336 H1321 0.960 . S
C1336 H1322 0.960 . S
C1336 H1323 0.960 . S
C1336 C1335 1.524 . S
C1337 C1334 1.403 . S
C1337 C1338 1.392 . S
C1337 C1341 1.495 . S
C1338 C1337 1.392 . S
C1338 C1339 1.385 . S
C1338 C1340 1.478 . S
C1339 H1333 0.930 . S
C1339 C1335 1.400 . S
C1339 C1338 1.385 . S
C1340 C1338 1.478 . S
C1340 C1342 1.381 . S
C1340 C1346 1.383 . S
C1341 C1337 1.495 . S
C1341 H1347 0.959 . S
C1341 H1348 0.961 . S
C1341 H1349 0.960 . S
C1342 C1340 1.381 . S
C1342 C1343 1.394 . S
C1342 H1350 0.930 . S
C1343 C1342 1.394 . S
C1343 C1344 1.383 . S
C1343 H1351 0.929 . S
C1344 C1343 1.383 . S
C1344 C1345 1.377 . S
C1345 H1329 0.930 . S
C1345 C1344 1.377 . S
C1345 C1346 1.379 . S
C1346 H1330 0.931 . S
C1346 C1340 1.383 . S
C1346 C1345 1.379 . S
H1347 C1341 0.959 . S
H1348 C1341 0.961 . S
H1349 C1341 0.960 . S
H1350 C1342 0.930 . S
H1351 C1343 0.929 . S
H1352 C1360 0.929 . S
H1353 C1362 0.930 . S
H1354 C1364 0.930 . S
H1355 C1367 0.929 . S
H1356 C1370 0.930 . S
H1357 C1372 0.960 . S
H1358 C1372 0.960 . S
H1359 C1372 0.960 . S
C1360 H1352 0.929 . S
C1360 C1361 1.377 . S
C1360 C1362 1.384 . S
C1361 C1360 1.377 . S
C1361 C1367 1.390 . S
C1362 H1353 0.930 . S
C1362 C1360 1.384 . S
C1362 C1363 1.372 . S
C1363 C1362 1.372 . S
C1363 C1364 1.400 . S
C1363 C1368 1.490 . S
C1364 H1354 0.930 . S
C1364 C1363 1.400 . S
C1364 C1367 1.386 . S
H1365 C1381 0.930 . S
H1366 C1382 0.931 . S
C1367 H1355 0.929 . S
C1367 C1361 1.390 . S
C1367 C1364 1.386 . S
C1368 C1363 1.490 . S
C1368 C1370 1.395 . S
C1368 C1371 1.403 . S
H1369 C1375 0.930 . S
C1370 H1356 0.930 . S
C1370 C1368 1.395 . S
C1370 C1373 1.403 . S
C1371 C1368 1.403 . S
C1371 C1372 1.524 . S
C1371 C1375 1.400 . S
C1372 H1357 0.960 . S
C1372 H1358 0.960 . S
C1372 H1359 0.960 . S
C1372 C1371 1.524 . S
C1373 C1370 1.403 . S
C1373 C1374 1.392 . S
C1373 C1377 1.495 . S
C1374 C1373 1.392 . S
C1374 C1375 1.385 . S
C1374 C1376 1.478 . S
C1375 H1369 0.930 . S
C1375 C1371 1.400 . S
C1375 C1374 1.385 . S
C1376 C1374 1.478 . S
C1376 C1378 1.381 . S
C1376 C1382 1.383 . S
C1377 C1373 1.495 . S
C1377 H1383 0.959 . S
C1377 H1384 0.961 . S
C1377 H1385 0.960 . S
C1378 C1376 1.381 . S
C1378 C1379 1.394 . S
C1378 H1386 0.930 . S
C1379 C1378 1.394 . S
C1379 C1380 1.383 . S
C1379 H1387 0.929 . S
C1380 C1379 1.383 . S
C1380 C1381 1.377 . S
C1381 H1365 0.930 . S
C1381 C1380 1.377 . S
C1381 C1382 1.379 . S
C1382 H1366 0.931 . S
C1382 C1376 1.383 . S
C1382 C1381 1.379 . S
H1383 C1377 0.959 . S
H1384 C1377 0.961 . S
H1385 C1377 0.960 . S
H1386 C1378 0.930 . S
H1387 C1379 0.929 . S
H1388 C1396 0.929 . S
H1389 C1398 0.899 1_565 S
H1390 C1400 0.930 . S
H1391 C1403 0.929 . S
H1392 C1406 0.930 . S
H1393 C1408 0.960 . S
H1394 C1408 0.960 . S
H1395 C1408 0.960 . S
C1396 H1388 0.929 . S
C1396 C1397 1.377 . S
C1396 C1398 1.433 . S
C1397 C1396 1.377 . S
C1397 C1403 1.390 . S
C1398 H1389 0.899 1_545 S
C1398 C1396 1.433 . S
C1398 C1399 1.356 1_545 S
C1399 C1398 1.356 1_565 S
C1399 C1400 1.400 1_565 S
C1399 C1404 1.490 . S
C1400 H1390 0.930 . S
C1400 C1399 1.400 1_545 S
C1400 C1403 1.386 . S
H1401 C1417 0.930 . S
H1402 C1418 0.931 . S
C1403 H1391 0.929 . S
C1403 C1397 1.390 . S
C1403 C1400 1.386 . S
C1404 C1399 1.490 . S
C1404 C1406 1.395 . S
C1404 C1407 1.403 . S
H1405 C1411 0.930 . S
C1406 H1392 0.930 . S
C1406 C1404 1.395 . S
C1406 C1409 1.403 . S
C1407 C1404 1.403 . S
C1407 C1408 1.524 . S
C1407 C1411 1.400 . S
C1408 H1393 0.960 . S
C1408 H1394 0.960 . S
C1408 H1395 0.960 . S
C1408 C1407 1.524 . S
C1409 C1406 1.403 . S
C1409 C1410 1.392 . S
C1409 C1413 1.495 . S
C1410 C1409 1.392 . S
C1410 C1411 1.385 . S
C1410 C1412 1.478 . S
C1411 H1405 0.930 . S
C1411 C1407 1.400 . S
C1411 C1410 1.385 . S
C1412 C1410 1.478 . S
C1412 C1414 1.381 . S
C1412 C1418 1.383 . S
C1413 C1409 1.495 . S
C1413 H1419 0.959 . S
C1413 H1420 0.961 . S
C1413 H1421 0.960 . S
C1414 C1412 1.381 . S
C1414 C1415 1.394 . S
C1414 H1422 0.930 . S
C1415 C1414 1.394 . S
C1415 C1416 1.383 . S
C1415 H1423 0.929 . S
C1416 C1415 1.383 . S
C1416 C1417 1.377 . S
C1417 H1401 0.930 . S
C1417 C1416 1.377 . S
C1417 C1418 1.379 . S
C1418 H1402 0.931 . S
C1418 C1412 1.383 . S
C1418 C1417 1.379 . S
H1419 C1413 0.959 . S
H1420 C1413 0.961 . S
H1421 C1413 0.960 . S
H1422 C1414 0.930 . S
H1423 C1415 0.929 . S
H1424 C1432 0.929 . S
H1425 C1434 0.930 . S
H1426 C1436 0.930 . S
H1427 C1439 0.929 . S
H1428 C1442 0.930 . S
H1429 C1444 0.960 . S
H1430 C1444 0.960 . S
H1431 C1444 0.960 . S
C1432 H1424 0.929 . S
C1432 C1433 1.377 . S
C1432 C1434 1.384 . S
C1433 C1432 1.377 . S
C1433 C1439 1.390 . S
C1434 H1425 0.930 . S
C1434 C1432 1.384 . S
C1434 C1435 1.372 . S
C1435 C1434 1.372 . S
C1435 C1436 1.400 . S
C1435 C1440 1.490 . S
C1436 H1426 0.930 . S
C1436 C1435 1.400 . S
C1436 C1439 1.386 . S
H1437 C1453 0.930 . S
H1438 C1454 0.931 . S
C1439 H1427 0.929 . S
C1439 C1433 1.390 . S
C1439 C1436 1.386 . S
C1440 C1435 1.490 . S
C1440 C1442 1.395 . S
C1440 C1443 1.403 . S
H1441 C1447 0.930 . S
C1442 H1428 0.930 . S
C1442 C1440 1.395 . S
C1442 C1445 1.403 . S
C1443 C1440 1.403 . S
C1443 C1444 1.524 . S
C1443 C1447 1.400 . S
C1444 H1429 0.960 . S
C1444 H1430 0.960 . S
C1444 H1431 0.960 . S
C1444 C1443 1.524 . S
C1445 C1442 1.403 . S
C1445 C1446 1.392 . S
C1445 C1449 1.495 . S
C1446 C1445 1.392 . S
C1446 C1447 1.385 . S
C1446 C1448 1.478 . S
C1447 H1441 0.930 . S
C1447 C1443 1.400 . S
C1447 C1446 1.385 . S
C1448 C1446 1.478 . S
C1448 C1450 1.381 . S
C1448 C1454 1.383 . S
C1449 C1445 1.495 . S
C1449 H1455 0.959 . S
C1449 H1456 0.961 . S
C1449 H1457 0.960 . S
C1450 C1448 1.381 . S
C1450 C1451 1.394 . S
C1450 H1458 0.930 . S
C1451 C1450 1.394 . S
C1451 C1452 1.383 . S
C1451 H1459 0.929 . S
C1452 C1451 1.383 . S
C1452 C1453 1.377 . S
C1453 H1437 0.930 . S
C1453 C1452 1.377 . S
C1453 C1454 1.379 . S
C1454 H1438 0.931 . S
C1454 C1448 1.383 . S
C1454 C1453 1.379 . S
H1455 C1449 0.959 . S
H1456 C1449 0.961 . S
H1457 C1449 0.960 . S
H1458 C1450 0.930 . S
H1459 C1451 0.929 . S
H1460 C1468 0.929 . S
H1461 C1470 0.930 . S
H1462 C1472 0.930 . S
H1463 C1475 0.929 . S
H1464 C1478 0.930 . S
H1465 C1480 0.960 . S
H1466 C1480 0.960 . S
H1467 C1480 0.960 . S
C1468 H1460 0.929 . S
C1468 C1469 1.377 . S
C1468 C1470 1.384 . S
C1469 C1468 1.377 . S
C1469 C1475 1.390 . S
C1470 H1461 0.930 . S
C1470 C1468 1.384 . S
C1470 C1471 1.372 . S
C1471 C1470 1.372 . S
C1471 C1472 1.400 . S
C1471 C1476 1.490 . S
C1472 H1462 0.930 . S
C1472 C1471 1.400 . S
C1472 C1475 1.386 . S
H1473 C1489 0.930 . S
H1474 C1490 0.931 . S
C1475 H1463 0.929 . S
C1475 C1469 1.390 . S
C1475 C1472 1.386 . S
C1476 C1471 1.490 . S
C1476 C1478 1.395 . S
C1476 C1479 1.403 . S
H1477 C1483 0.930 . S
C1478 H1464 0.930 . S
C1478 C1476 1.395 . S
C1478 C1481 1.403 . S
C1479 C1476 1.403 . S
C1479 C1480 1.524 . S
C1479 C1483 1.400 . S
C1480 H1465 0.960 . S
C1480 H1466 0.960 . S
C1480 H1467 0.960 . S
C1480 C1479 1.524 . S
C1481 C1478 1.403 . S
C1481 C1482 1.392 . S
C1481 C1485 1.495 . S
C1482 C1481 1.392 . S
C1482 C1483 1.385 . S
C1482 C1484 1.478 . S
C1483 H1477 0.930 . S
C1483 C1479 1.400 . S
C1483 C1482 1.385 . S
C1484 C1482 1.478 . S
C1484 C1486 1.381 . S
C1484 C1490 1.383 . S
C1485 C1481 1.495 . S
C1485 H1491 0.959 . S
C1485 H1492 0.961 . S
C1485 H1493 0.960 . S
C1486 C1484 1.381 . S
C1486 C1487 1.394 . S
C1486 H1494 0.930 . S
C1487 C1486 1.394 . S
C1487 C1488 1.383 . S
C1487 H1495 0.929 . S
C1488 C1487 1.383 . S
C1488 C1489 1.377 . S
C1489 H1473 0.930 . S
C1489 C1488 1.377 . S
C1489 C1490 1.379 . S
C1490 H1474 0.931 . S
C1490 C1484 1.383 . S
C1490 C1489 1.379 . S
H1491 C1485 0.959 . S
H1492 C1485 0.961 . S
H1493 C1485 0.960 . S
H1494 C1486 0.930 . S
H1495 C1487 0.929 . S
H1496 C1504 0.929 . S
H1497 C1506 0.930 . S
H1498 C1508 0.930 . S
H1499 C1511 0.929 . S
H1500 C1514 0.930 . S
H1501 C1516 0.960 . S
H1502 C1516 0.960 . S
H1503 C1516 0.960 . S
C1504 H1496 0.929 . S
C1504 C1505 1.377 . S
C1504 C1506 1.384 . S
C1505 C1504 1.377 . S
C1505 C1511 1.390 . S
C1506 H1497 0.930 . S
C1506 C1504 1.384 . S
C1506 C1507 1.372 . S
C1507 C1506 1.372 . S
C1507 C1508 1.400 . S
C1507 C1512 1.490 . S
C1508 H1498 0.930 . S
C1508 C1507 1.400 . S
C1508 C1511 1.386 . S
H1509 C1525 0.930 . S
H1510 C1526 0.931 . S
C1511 H1499 0.929 . S
C1511 C1505 1.390 . S
C1511 C1508 1.386 . S
C1512 C1507 1.490 . S
C1512 C1514 1.395 . S
C1512 C1515 1.403 . S
H1513 C1519 0.930 . S
C1514 H1500 0.930 . S
C1514 C1512 1.395 . S
C1514 C1517 1.403 . S
C1515 C1512 1.403 . S
C1515 C1516 1.524 . S
C1515 C1519 1.400 . S
C1516 H1501 0.960 . S
C1516 H1502 0.960 . S
C1516 H1503 0.960 . S
C1516 C1515 1.524 . S
C1517 C1514 1.403 . S
C1517 C1518 1.392 . S
C1517 C1521 1.495 . S
C1518 C1517 1.392 . S
C1518 C1519 1.385 . S
C1518 C1520 1.478 . S
C1519 H1513 0.930 . S
C1519 C1515 1.400 . S
C1519 C1518 1.385 . S
C1520 C1518 1.478 . S
C1520 C1522 1.381 . S
C1520 C1526 1.383 . S
C1521 C1517 1.495 . S
C1521 H1527 0.959 . S
C1521 H1528 0.961 . S
C1521 H1529 0.960 . S
C1522 C1520 1.381 . S
C1522 C1523 1.394 . S
C1522 H1530 0.930 . S
C1523 C1522 1.394 . S
C1523 C1524 1.383 . S
C1523 H1531 0.929 . S
C1524 C1523 1.383 . S
C1524 C1525 1.377 . S
C1525 H1509 0.930 . S
C1525 C1524 1.377 . S
C1525 C1526 1.379 . S
C1526 H1510 0.931 . S
C1526 C1520 1.383 . S
C1526 C1525 1.379 . S
H1527 C1521 0.959 . S
H1528 C1521 0.961 . S
H1529 C1521 0.960 . S
H1530 C1522 0.930 . S
H1531 C1523 0.929 . S
H1532 C1540 0.929 . S
H1533 C1542 0.930 . S
H1534 C1544 0.930 . S
H1535 C1547 0.929 . S
H1536 C1550 0.930 . S
H1537 C1552 0.960 . S
H1538 C1552 0.960 . S
H1539 C1552 0.960 . S
C1540 H1532 0.929 . S
C1540 C1541 1.377 . S
C1540 C1542 1.384 . S
C1541 C1540 1.377 . S
C1541 C1547 1.390 . S
C1542 H1533 0.930 . S
C1542 C1540 1.384 . S
C1542 C1543 1.372 . S
C1543 C1542 1.372 . S
C1543 C1544 1.400 . S
C1543 C1548 1.490 . S
C1544 H1534 0.930 . S
C1544 C1543 1.400 . S
C1544 C1547 1.386 . S
H1545 C1561 0.930 . S
H1546 C1562 0.931 . S
C1547 H1535 0.929 . S
C1547 C1541 1.390 . S
C1547 C1544 1.386 . S
C1548 C1543 1.490 . S
C1548 C1550 1.395 . S
C1548 C1551 1.403 . S
H1549 C1555 0.930 . S
C1550 H1536 0.930 . S
C1550 C1548 1.395 . S
C1550 C1553 1.403 . S
C1551 C1548 1.403 . S
C1551 C1552 1.524 . S
C1551 C1555 1.400 . S
C1552 H1537 0.960 . S
C1552 H1538 0.960 . S
C1552 H1539 0.960 . S
C1552 C1551 1.524 . S
C1553 C1550 1.403 . S
C1553 C1554 1.392 . S
C1553 C1557 1.495 . S
C1554 C1553 1.392 . S
C1554 C1555 1.385 . S
C1554 C1556 1.478 . S
C1555 H1549 0.930 . S
C1555 C1551 1.400 . S
C1555 C1554 1.385 . S
C1556 C1554 1.478 . S
C1556 C1558 1.381 . S
C1556 C1562 1.383 . S
C1557 C1553 1.495 . S
C1557 H1563 0.959 . S
C1557 H1564 0.961 . S
C1557 H1565 0.960 . S
C1558 C1556 1.381 . S
C1558 C1559 1.394 . S
C1558 H1566 0.930 . S
C1559 C1558 1.394 . S
C1559 C1560 1.383 . S
C1559 H1567 0.929 . S
C1560 C1559 1.383 . S
C1560 C1561 1.377 . S
C1561 H1545 0.930 . S
C1561 C1560 1.377 . S
C1561 C1562 1.379 . S
C1562 H1546 0.931 . S
C1562 C1556 1.383 . S
C1562 C1561 1.379 . S
H1563 C1557 0.959 . S
H1564 C1557 0.961 . S
H1565 C1557 0.960 . S
H1566 C1558 0.930 . S
H1567 C1559 0.929 . S
H1568 C1576 0.929 . S
H1569 C1578 0.930 . S
H1570 C1580 0.930 . S
H1571 C1583 0.929 . S
H1572 C1586 0.930 . S
H1573 C1588 0.960 . S
H1574 C1588 0.960 . S
H1575 C1588 0.960 . S
C1576 H1568 0.929 . S
C1576 C1577 1.377 . S
C1576 C1578 1.384 . S
C1577 C1576 1.377 . S
C1577 C1583 1.390 . S
C1578 H1569 0.930 . S
C1578 C1576 1.384 . S
C1578 C1579 1.372 . S
C1579 C1578 1.372 . S
C1579 C1580 1.400 . S
C1579 C1584 1.490 . S
C1580 H1570 0.930 . S
C1580 C1579 1.400 . S
C1580 C1583 1.386 . S
H1581 C1597 0.930 . S
H1582 C1598 0.931 . S
C1583 H1571 0.929 . S
C1583 C1577 1.390 . S
C1583 C1580 1.386 . S
C1584 C1579 1.490 . S
C1584 C1586 1.395 . S
C1584 C1587 1.403 . S
H1585 C1591 0.930 . S
C1586 H1572 0.930 . S
C1586 C1584 1.395 . S
C1586 C1589 1.403 . S
C1587 C1584 1.403 . S
C1587 C1588 1.524 . S
C1587 C1591 1.400 . S
C1588 H1573 0.960 . S
C1588 H1574 0.960 . S
C1588 H1575 0.960 . S
C1588 C1587 1.524 . S
C1589 C1586 1.403 . S
C1589 C1590 1.392 . S
C1589 C1593 1.495 . S
C1590 C1589 1.392 . S
C1590 C1591 1.385 . S
C1590 C1592 1.478 . S
C1591 H1585 0.930 . S
C1591 C1587 1.400 . S
C1591 C1590 1.385 . S
C1592 C1590 1.478 . S
C1592 C1594 1.381 . S
C1592 C1598 1.383 . S
C1593 C1589 1.495 . S
C1593 H1599 0.959 . S
C1593 H1600 0.961 . S
C1593 H1601 0.960 . S
C1594 C1592 1.381 . S
C1594 C1595 1.394 . S
C1594 H1602 0.930 . S
C1595 C1594 1.394 . S
C1595 C1596 1.383 . S
C1595 H1603 0.929 . S
C1596 C1595 1.383 . S
C1596 C1597 1.377 . S
C1597 H1581 0.930 . S
C1597 C1596 1.377 . S
C1597 C1598 1.379 . S
C1598 H1582 0.931 . S
C1598 C1592 1.383 . S
C1598 C1597 1.379 . S
H1599 C1593 0.959 . S
H1600 C1593 0.961 . S
H1601 C1593 0.960 . S
H1602 C1594 0.930 . S
H1603 C1595 0.929 . S
H1604 C1612 0.929 . S
H1605 C1614 0.930 . S
H1606 C1616 0.930 . S
H1607 C1619 0.929 . S
H1608 C1622 0.930 . S
H1609 C1624 0.960 . S
H1610 C1624 0.960 . S
H1611 C1624 0.960 . S
C1612 H1604 0.929 . S
C1612 C1613 1.377 . S
C1612 C1614 1.384 . S
C1613 C1612 1.377 . S
C1613 C1619 1.390 . S
C1614 H1605 0.930 . S
C1614 C1612 1.384 . S
C1614 C1615 1.372 . S
C1615 C1614 1.372 . S
C1615 C1616 1.400 . S
C1615 C1620 1.490 . S
C1616 H1606 0.930 . S
C1616 C1615 1.400 . S
C1616 C1619 1.386 . S
H1617 C1633 0.930 . S
H1618 C1634 0.931 . S
C1619 H1607 0.929 . S
C1619 C1613 1.390 . S
C1619 C1616 1.386 . S
C1620 C1615 1.490 . S
C1620 C1622 1.395 . S
C1620 C1623 1.403 . S
H1621 C1627 0.930 . S
C1622 H1608 0.930 . S
C1622 C1620 1.395 . S
C1622 C1625 1.403 . S
C1623 C1620 1.403 . S
C1623 C1624 1.524 . S
C1623 C1627 1.400 . S
C1624 H1609 0.960 . S
C1624 H1610 0.960 . S
C1624 H1611 0.960 . S
C1624 C1623 1.524 . S
C1625 C1622 1.403 . S
C1625 C1626 1.392 . S
C1625 C1629 1.495 . S
C1626 C1625 1.392 . S
C1626 C1627 1.385 . S
C1626 C1628 1.478 . S
C1627 H1621 0.930 . S
C1627 C1623 1.400 . S
C1627 C1626 1.385 . S
C1628 C1626 1.478 . S
C1628 C1630 1.381 . S
C1628 C1634 1.383 . S
C1629 C1625 1.495 . S
C1629 H1635 0.959 . S
C1629 H1636 0.961 . S
C1629 H1637 0.960 . S
C1630 C1628 1.381 . S
C1630 C1631 1.394 . S
C1630 H1638 0.930 . S
C1631 C1630 1.394 . S
C1631 C1632 1.383 . S
C1631 H1639 0.929 . S
C1632 C1631 1.383 . S
C1632 C1633 1.377 . S
C1633 H1617 0.930 . S
C1633 C1632 1.377 . S
C1633 C1634 1.379 . S
C1634 H1618 0.931 . S
C1634 C1628 1.383 . S
C1634 C1633 1.379 . S
H1635 C1629 0.959 . S
H1636 C1629 0.961 . S
H1637 C1629 0.960 . S
H1638 C1630 0.930 . S
H1639 C1631 0.929 . S
H1640 C1648 0.929 . S
H1641 C1650 0.930 . S
H1642 C1652 0.930 . S
H1643 C1655 0.929 . S
H1644 C1658 0.930 . S
H1645 C1660 0.960 . S
H1646 C1660 0.960 . S
H1647 C1660 0.960 . S
C1648 H1640 0.929 . S
C1648 C1649 1.377 . S
C1648 C1650 1.384 . S
C1649 C1648 1.377 . S
C1649 C1655 1.390 . S
C1650 H1641 0.930 . S
C1650 C1648 1.384 . S
C1650 C1651 1.372 . S
C1651 C1650 1.372 . S
C1651 C1652 1.400 . S
C1651 C1656 1.490 . S
C1652 H1642 0.930 . S
C1652 C1651 1.400 . S
C1652 C1655 1.386 . S
H1653 C1669 0.930 . S
H1654 C1670 0.931 . S
C1655 H1643 0.929 . S
C1655 C1649 1.390 . S
C1655 C1652 1.386 . S
C1656 C1651 1.490 . S
C1656 C1658 1.395 . S
C1656 C1659 1.403 . S
H1657 C1663 0.930 . S
C1658 H1644 0.930 . S
C1658 C1656 1.395 . S
C1658 C1661 1.403 . S
C1659 C1656 1.403 . S
C1659 C1660 1.524 . S
C1659 C1663 1.400 . S
C1660 H1645 0.960 . S
C1660 H1646 0.960 . S
C1660 H1647 0.960 . S
C1660 C1659 1.524 . S
C1661 C1658 1.403 . S
C1661 C1662 1.392 . S
C1661 C1665 1.495 . S
C1662 C1661 1.392 . S
C1662 C1663 1.385 . S
C1662 C1664 1.478 . S
C1663 H1657 0.930 . S
C1663 C1659 1.400 . S
C1663 C1662 1.385 . S
C1664 C1662 1.478 . S
C1664 C1666 1.381 . S
C1664 C1670 1.383 . S
C1665 C1661 1.495 . S
C1665 H1671 0.959 . S
C1665 H1672 0.961 . S
C1665 H1673 0.960 . S
C1666 C1664 1.381 . S
C1666 C1667 1.394 . S
C1666 H1674 0.930 . S
C1667 C1666 1.394 . S
C1667 C1668 1.383 . S
C1667 H1675 0.929 . S
C1668 C1667 1.383 . S
C1668 C1669 1.377 . S
C1669 H1653 0.930 . S
C1669 C1668 1.377 . S
C1669 C1670 1.379 . S
C1670 H1654 0.931 . S
C1670 C1664 1.383 . S
C1670 C1669 1.379 . S
H1671 C1665 0.959 . S
H1672 C1665 0.961 . S
H1673 C1665 0.960 . S
H1674 C1666 0.930 . S
H1675 C1667 0.929 . S
H1676 C1684 0.929 . S
H1677 C1686 0.930 . S
H1678 C1688 0.930 . S
H1679 C1691 0.929 . S
H1680 C1694 0.930 . S
H1681 C1696 0.960 . S
H1682 C1696 0.960 . S
H1683 C1696 0.960 . S
C1684 H1676 0.929 . S
C1684 C1685 1.377 . S
C1684 C1686 1.384 . S
C1685 C1684 1.377 . S
C1685 C1691 1.390 . S
C1686 H1677 0.930 . S
C1686 C1684 1.384 . S
C1686 C1687 1.372 . S
C1687 C1686 1.372 . S
C1687 C1688 1.400 . S
C1687 C1692 1.490 . S
C1688 H1678 0.930 . S
C1688 C1687 1.400 . S
C1688 C1691 1.386 . S
H1689 C1705 0.930 . S
H1690 C1706 0.931 . S
C1691 H1679 0.929 . S
C1691 C1685 1.390 . S
C1691 C1688 1.386 . S
C1692 C1687 1.490 . S
C1692 C1694 1.395 . S
C1692 C1695 1.403 . S
H1693 C1699 0.930 . S
C1694 H1680 0.930 . S
C1694 C1692 1.395 . S
C1694 C1697 1.403 . S
C1695 C1692 1.403 . S
C1695 C1696 1.524 . S
C1695 C1699 1.400 . S
C1696 H1681 0.960 . S
C1696 H1682 0.960 . S
C1696 H1683 0.960 . S
C1696 C1695 1.524 . S
C1697 C1694 1.403 . S
C1697 C1698 1.392 . S
C1697 C1701 1.495 . S
C1698 C1697 1.392 . S
C1698 C1699 1.385 . S
C1698 C1700 1.478 . S
C1699 H1693 0.930 . S
C1699 C1695 1.400 . S
C1699 C1698 1.385 . S
C1700 C1698 1.478 . S
C1700 C1702 1.381 . S
C1700 C1706 1.383 . S
C1701 C1697 1.495 . S
C1701 H1707 0.959 . S
C1701 H1708 0.961 . S
C1701 H1709 0.960 . S
C1702 C1700 1.381 . S
C1702 C1703 1.394 . S
C1702 H1710 0.930 . S
C1703 C1702 1.394 . S
C1703 C1704 1.383 . S
C1703 H1711 0.929 . S
C1704 C1703 1.383 . S
C1704 C1705 1.377 . S
C1705 H1689 0.930 . S
C1705 C1704 1.377 . S
C1705 C1706 1.379 . S
C1706 H1690 0.931 . S
C1706 C1700 1.383 . S
C1706 C1705 1.379 . S
H1707 C1701 0.959 . S
H1708 C1701 0.961 . S
H1709 C1701 0.960 . S
H1710 C1702 0.930 . S
H1711 C1703 0.929 . S
H1712 C1720 0.929 . S
H1713 C1722 0.930 . S
H1714 C1724 0.930 . S
H1715 C1727 0.929 . S
H1716 C1730 0.930 . S
H1717 C1732 0.960 . S
H1718 C1732 0.960 . S
H1719 C1732 0.960 . S
C1720 H1712 0.929 . S
C1720 C1721 1.377 . S
C1720 C1722 1.384 . S
C1721 C1720 1.377 . S
C1721 C1727 1.390 . S
C1722 H1713 0.930 . S
C1722 C1720 1.384 . S
C1722 C1723 1.372 . S
C1723 C1722 1.372 . S
C1723 C1724 1.400 . S
C1723 C1728 1.490 . S
C1724 H1714 0.930 . S
C1724 C1723 1.400 . S
C1724 C1727 1.386 . S
H1725 C1741 0.930 . S
H1726 C1742 0.931 . S
C1727 H1715 0.929 . S
C1727 C1721 1.390 . S
C1727 C1724 1.386 . S
C1728 C1723 1.490 . S
C1728 C1730 1.395 . S
C1728 C1731 1.403 . S
H1729 C1735 0.930 . S
C1730 H1716 0.930 . S
C1730 C1728 1.395 . S
C1730 C1733 1.403 . S
C1731 C1728 1.403 . S
C1731 C1732 1.524 . S
C1731 C1735 1.400 . S
C1732 H1717 0.960 . S
C1732 H1718 0.960 . S
C1732 H1719 0.960 . S
C1732 C1731 1.524 . S
C1733 C1730 1.403 . S
C1733 C1734 1.392 . S
C1733 C1737 1.495 . S
C1734 C1733 1.392 . S
C1734 C1735 1.385 . S
C1734 C1736 1.478 . S
C1735 H1729 0.930 . S
C1735 C1731 1.400 . S
C1735 C1734 1.385 . S
C1736 C1734 1.478 . S
C1736 C1738 1.381 . S
C1736 C1742 1.383 . S
C1737 C1733 1.495 . S
C1737 H1743 0.959 . S
C1737 H1744 0.961 . S
C1737 H1745 0.960 . S
C1738 C1736 1.381 . S
C1738 C1739 1.394 . S
C1738 H1746 0.930 . S
C1739 C1738 1.394 . S
C1739 C1740 1.383 . S
C1739 H1747 0.929 . S
C1740 C1739 1.383 . S
C1740 C1741 1.377 . S
C1741 H1725 0.930 . S
C1741 C1740 1.377 . S
C1741 C1742 1.379 . S
C1742 H1726 0.931 . S
C1742 C1736 1.383 . S
C1742 C1741 1.379 . S
H1743 C1737 0.959 . S
H1744 C1737 0.961 . S
H1745 C1737 0.960 . S
H1746 C1738 0.930 . S
H1747 C1739 0.929 . S
H1748 C1756 0.929 . S
H1749 C1758 0.930 . S
H1750 C1760 0.930 . S
H1751 C1763 0.929 . S
H1752 C1766 0.930 . S
H1753 C1768 0.960 . S
H1754 C1768 0.960 . S
H1755 C1768 0.960 . S
C1756 H1748 0.929 . S
C1756 C1757 1.377 . S
C1756 C1758 1.384 . S
C1757 C1756 1.377 . S
C1757 C1763 1.390 . S
C1758 H1749 0.930 . S
C1758 C1756 1.384 . S
C1758 C1759 1.372 . S
C1759 C1758 1.372 . S
C1759 C1760 1.400 . S
C1759 C1764 1.490 . S
C1760 H1750 0.930 . S
C1760 C1759 1.400 . S
C1760 C1763 1.386 . S
H1761 C1777 0.930 . S
H1762 C1778 0.931 . S
C1763 H1751 0.929 . S
C1763 C1757 1.390 . S
C1763 C1760 1.386 . S
C1764 C1759 1.490 . S
C1764 C1766 1.395 . S
C1764 C1767 1.403 . S
H1765 C1771 0.930 . S
C1766 H1752 0.930 . S
C1766 C1764 1.395 . S
C1766 C1769 1.403 . S
C1767 C1764 1.403 . S
C1767 C1768 1.524 . S
C1767 C1771 1.400 . S
C1768 H1753 0.960 . S
C1768 H1754 0.960 . S
C1768 H1755 0.960 . S
C1768 C1767 1.524 . S
C1769 C1766 1.403 . S
C1769 C1770 1.392 . S
C1769 C1773 1.495 . S
C1770 C1769 1.392 . S
C1770 C1771 1.385 . S
C1770 C1772 1.478 . S
C1771 H1765 0.930 . S
C1771 C1767 1.400 . S
C1771 C1770 1.385 . S
C1772 C1770 1.478 . S
C1772 C1774 1.381 . S
C1772 C1778 1.383 . S
C1773 C1769 1.495 . S
C1773 H1779 0.959 . S
C1773 H1780 0.961 . S
C1773 H1781 0.960 . S
C1774 C1772 1.381 . S
C1774 C1775 1.394 . S
C1774 H1782 0.930 . S
C1775 C1774 1.394 . S
C1775 C1776 1.383 . S
C1775 H1783 0.929 . S
C1776 C1775 1.383 . S
C1776 C1777 1.377 . S
C1777 H1761 0.930 . S
C1777 C1776 1.377 . S
C1777 C1778 1.379 . S
C1778 H1762 0.931 . S
C1778 C1772 1.383 . S
C1778 C1777 1.379 . S
H1779 C1773 0.959 . S
H1780 C1773 0.961 . S
H1781 C1773 0.960 . S
H1782 C1774 0.930 . S
H1783 C1775 0.929 . S
H1784 C1792 0.929 . S
H1785 C1794 0.930 . S
H1786 C1796 0.930 . S
H1787 C1799 0.929 . S
H1788 C1802 0.930 . S
H1789 C1804 0.960 . S
H1790 C1804 0.960 . S
H1791 C1804 0.960 . S
C1792 H1784 0.929 . S
C1792 C1793 1.377 . S
C1792 C1794 1.384 . S
C1793 C1792 1.377 . S
C1793 C1799 1.390 . S
C1794 H1785 0.930 . S
C1794 C1792 1.384 . S
C1794 C1795 1.372 . S
C1795 C1794 1.372 . S
C1795 C1796 1.400 . S
C1795 C1800 1.490 . S
C1796 H1786 0.930 . S
C1796 C1795 1.400 . S
C1796 C1799 1.386 . S
H1797 C1813 0.930 . S
H1798 C1814 0.931 . S
C1799 H1787 0.929 . S
C1799 C1793 1.390 . S
C1799 C1796 1.386 . S
C1800 C1795 1.490 . S
C1800 C1802 1.395 . S
C1800 C1803 1.403 . S
H1801 C1807 0.930 . S
C1802 H1788 0.930 . S
C1802 C1800 1.395 . S
C1802 C1805 1.403 . S
C1803 C1800 1.403 . S
C1803 C1804 1.524 . S
C1803 C1807 1.400 . S
C1804 H1789 0.960 . S
C1804 H1790 0.960 . S
C1804 H1791 0.960 . S
C1804 C1803 1.524 . S
C1805 C1802 1.403 . S
C1805 C1806 1.392 . S
C1805 C1809 1.495 . S
C1806 C1805 1.392 . S
C1806 C1807 1.385 . S
C1806 C1808 1.478 . S
C1807 H1801 0.930 . S
C1807 C1803 1.400 . S
C1807 C1806 1.385 . S
C1808 C1806 1.478 . S
C1808 C1810 1.381 . S
C1808 C1814 1.383 . S
C1809 C1805 1.495 . S
C1809 H1815 0.959 . S
C1809 H1816 0.961 . S
C1809 H1817 0.960 . S
C1810 C1808 1.381 . S
C1810 C1811 1.394 . S
C1810 H1818 0.930 . S
C1811 C1810 1.394 . S
C1811 C1812 1.383 . S
C1811 H1819 0.929 . S
C1812 C1811 1.383 . S
C1812 C1813 1.377 . S
C1813 H1797 0.930 . S
C1813 C1812 1.377 . S
C1813 C1814 1.379 . S
C1814 H1798 0.931 . S
C1814 C1808 1.383 . S
C1814 C1813 1.379 . S
H1815 C1809 0.959 . S
H1816 C1809 0.961 . S
H1817 C1809 0.960 . S
H1818 C1810 0.930 . S
H1819 C1811 0.929 . S
H1820 C1828 0.929 . S
H1821 C1830 0.930 . S
H1822 C1832 0.930 . S
H1823 C1835 0.929 . S
H1824 C1838 0.930 . S
H1825 C1840 0.960 . S
H1826 C1840 0.960 . S
H1827 C1840 0.960 . S
C1828 H1820 0.929 . S
C1828 C1829 1.377 . S
C1828 C1830 1.384 . S
C1829 C1828 1.377 . S
C1829 C1835 1.390 . S
C1830 H1821 0.930 . S
C1830 C1828 1.384 . S
C1830 C1831 1.372 . S
C1831 C1830 1.372 . S
C1831 C1832 1.400 . S
C1831 C1836 1.490 . S
C1832 H1822 0.930 . S
C1832 C1831 1.400 . S
C1832 C1835 1.386 . S
H1833 C1849 0.930 . S
H1834 C1850 0.931 . S
C1835 H1823 0.929 . S
C1835 C1829 1.390 . S
C1835 C1832 1.386 . S
C1836 C1831 1.490 . S
C1836 C1838 1.395 . S
C1836 C1839 1.403 . S
H1837 C1843 0.930 . S
C1838 H1824 0.930 . S
C1838 C1836 1.395 . S
C1838 C1841 1.403 . S
C1839 C1836 1.403 . S
C1839 C1840 1.524 . S
C1839 C1843 1.400 . S
C1840 H1825 0.960 . S
C1840 H1826 0.960 . S
C1840 H1827 0.960 . S
C1840 C1839 1.524 . S
C1841 C1838 1.403 . S
C1841 C1842 1.392 . S
C1841 C1845 1.495 . S
C1842 C1841 1.392 . S
C1842 C1843 1.385 . S
C1842 C1844 1.478 . S
C1843 H1837 0.930 . S
C1843 C1839 1.400 . S
C1843 C1842 1.385 . S
C1844 C1842 1.478 . S
C1844 C1846 1.381 . S
C1844 C1850 1.383 . S
C1845 C1841 1.495 . S
C1845 H1851 0.959 . S
C1845 H1852 0.961 . S
C1845 H1853 0.960 . S
C1846 C1844 1.381 . S
C1846 C1847 1.394 . S
C1846 H1854 0.930 . S
C1847 C1846 1.394 . S
C1847 C1848 1.383 . S
C1847 H1855 0.929 . S
C1848 C1847 1.383 . S
C1848 C1849 1.377 . S
C1849 H1833 0.930 . S
C1849 C1848 1.377 . S
C1849 C1850 1.379 . S
C1850 H1834 0.931 . S
C1850 C1844 1.383 . S
C1850 C1849 1.379 . S
H1851 C1845 0.959 . S
H1852 C1845 0.961 . S
H1853 C1845 0.960 . S
H1854 C1846 0.930 . S
H1855 C1847 0.929 . S
H1856 C1864 0.929 . S
H1857 C1866 0.930 . S
H1858 C1868 0.930 . S
H1859 C1871 0.929 . S
H1860 C1874 0.930 . S
H1861 C1876 0.960 . S
H1862 C1876 0.960 . S
H1863 C1876 0.960 . S
C1864 H1856 0.929 . S
C1864 C1865 1.377 . S
C1864 C1866 1.384 . S
C1865 C1864 1.377 . S
C1865 C1871 1.390 . S
C1866 H1857 0.930 . S
C1866 C1864 1.384 . S
C1866 C1867 1.372 . S
C1867 C1866 1.372 . S
C1867 C1868 1.400 . S
C1867 C1872 1.490 . S
C1868 H1858 0.930 . S
C1868 C1867 1.400 . S
C1868 C1871 1.386 . S
H1869 C1885 0.930 . S
H1870 C1886 0.931 . S
C1871 H1859 0.929 . S
C1871 C1865 1.390 . S
C1871 C1868 1.386 . S
C1872 C1867 1.490 . S
C1872 C1874 1.395 . S
C1872 C1875 1.403 . S
H1873 C1879 0.930 . S
C1874 H1860 0.930 . S
C1874 C1872 1.395 . S
C1874 C1877 1.403 . S
C1875 C1872 1.403 . S
C1875 C1876 1.524 . S
C1875 C1879 1.400 . S
C1876 H1861 0.960 . S
C1876 H1862 0.960 . S
C1876 H1863 0.960 . S
C1876 C1875 1.524 . S
C1877 C1874 1.403 . S
C1877 C1878 1.392 . S
C1877 C1881 1.495 . S
C1878 C1877 1.392 . S
C1878 C1879 1.385 . S
C1878 C1880 1.478 . S
C1879 H1873 0.930 . S
C1879 C1875 1.400 . S
C1879 C1878 1.385 . S
C1880 C1878 1.478 . S
C1880 C1882 1.381 . S
C1880 C1886 1.383 . S
C1881 C1877 1.495 . S
C1881 H1887 0.959 . S
C1881 H1888 0.961 . S
C1881 H1889 0.960 . S
C1882 C1880 1.381 . S
C1882 C1883 1.394 . S
C1882 H1890 0.930 . S
C1883 C1882 1.394 . S
C1883 C1884 1.383 . S
C1883 H1891 0.929 . S
C1884 C1883 1.383 . S
C1884 C1885 1.377 . S
C1885 H1869 0.930 . S
C1885 C1884 1.377 . S
C1885 C1886 1.379 . S
C1886 H1870 0.931 . S
C1886 C1880 1.383 . S
C1886 C1885 1.379 . S
H1887 C1881 0.959 . S
H1888 C1881 0.961 . S
H1889 C1881 0.960 . S
H1890 C1882 0.930 . S
H1891 C1883 0.929 . S
H1892 C1900 0.929 . S
H1893 C1902 0.930 . S
H1894 C1904 0.930 . S
H1895 C1907 0.929 . S
H1896 C1910 0.930 . S
H1897 C1912 0.960 . S
H1898 C1912 0.960 . S
H1899 C1912 0.960 . S
C1900 H1892 0.929 . S
C1900 C1901 1.377 . S
C1900 C1902 1.384 . S
C1901 C1900 1.377 . S
C1901 C1907 1.390 . S
C1902 H1893 0.930 . S
C1902 C1900 1.384 . S
C1902 C1903 1.372 . S
C1903 C1902 1.372 . S
C1903 C1904 1.400 . S
C1903 C1908 1.490 . S
C1904 H1894 0.930 . S
C1904 C1903 1.400 . S
C1904 C1907 1.386 . S
H1905 C1921 0.930 . S
H1906 C1922 0.931 . S
C1907 H1895 0.929 . S
C1907 C1901 1.390 . S
C1907 C1904 1.386 . S
C1908 C1903 1.490 . S
C1908 C1910 1.395 . S
C1908 C1911 1.403 . S
H1909 C1915 0.930 . S
C1910 H1896 0.930 . S
C1910 C1908 1.395 . S
C1910 C1913 1.403 . S
C1911 C1908 1.403 . S
C1911 C1912 1.524 . S
C1911 C1915 1.400 . S
C1912 H1897 0.960 . S
C1912 H1898 0.960 . S
C1912 H1899 0.960 . S
C1912 C1911 1.524 . S
C1913 C1910 1.403 . S
C1913 C1914 1.392 . S
C1913 C1917 1.495 . S
C1914 C1913 1.392 . S
C1914 C1915 1.385 . S
C1914 C1916 1.478 . S
C1915 H1909 0.930 . S
C1915 C1911 1.400 . S
C1915 C1914 1.385 . S
C1916 C1914 1.478 . S
C1916 C1918 1.381 . S
C1916 C1922 1.383 . S
C1917 C1913 1.495 . S
C1917 H1923 0.959 . S
C1917 H1924 0.961 . S
C1917 H1925 0.960 . S
C1918 C1916 1.381 . S
C1918 C1919 1.394 . S
C1918 H1926 0.930 . S
C1919 C1918 1.394 . S
C1919 C1920 1.383 . S
C1919 H1927 0.929 . S
C1920 C1919 1.383 . S
C1920 C1921 1.377 . S
C1921 H1905 0.930 . S
C1921 C1920 1.377 . S
C1921 C1922 1.379 . S
C1922 H1906 0.931 . S
C1922 C1916 1.383 . S
C1922 C1921 1.379 . S
H1923 C1917 0.959 . S
H1924 C1917 0.961 . S
H1925 C1917 0.960 . S
H1926 C1918 0.930 . S
H1927 C1919 0.929 . S
H1928 C1936 0.929 . S
H1929 C1938 0.930 . S
H1930 C1940 0.930 . S
H1931 C1943 0.929 . S
H1932 C1946 0.930 . S
H1933 C1948 0.960 . S
H1934 C1948 0.960 . S
H1935 C1948 0.960 . S
C1936 H1928 0.929 . S
C1936 C1937 1.377 . S
C1936 C1938 1.384 . S
C1937 C1936 1.377 . S
C1937 C1943 1.390 . S
C1938 H1929 0.930 . S
C1938 C1936 1.384 . S
C1938 C1939 1.372 . S
C1939 C1938 1.372 . S
C1939 C1940 1.400 . S
C1939 C1944 1.490 . S
C1940 H1930 0.930 . S
C1940 C1939 1.400 . S
C1940 C1943 1.386 . S
H1941 C1957 0.930 . S
H1942 C1958 0.931 . S
C1943 H1931 0.929 . S
C1943 C1937 1.390 . S
C1943 C1940 1.386 . S
C1944 C1939 1.490 . S
C1944 C1946 1.395 . S
C1944 C1947 1.403 . S
H1945 C1951 0.930 . S
C1946 H1932 0.930 . S
C1946 C1944 1.395 . S
C1946 C1949 1.403 . S
C1947 C1944 1.403 . S
C1947 C1948 1.524 . S
C1947 C1951 1.400 . S
C1948 H1933 0.960 . S
C1948 H1934 0.960 . S
C1948 H1935 0.960 . S
C1948 C1947 1.524 . S
C1949 C1946 1.403 . S
C1949 C1950 1.392 . S
C1949 C1953 1.495 . S
C1950 C1949 1.392 . S
C1950 C1951 1.385 . S
C1950 C1952 1.478 . S
C1951 H1945 0.930 . S
C1951 C1947 1.400 . S
C1951 C1950 1.385 . S
C1952 C1950 1.478 . S
C1952 C1954 1.381 . S
C1952 C1958 1.383 . S
C1953 C1949 1.495 . S
C1953 H1959 0.959 . S
C1953 H1960 0.961 . S
C1953 H1961 0.960 . S
C1954 C1952 1.381 . S
C1954 C1955 1.394 . S
C1954 H1962 0.930 . S
C1955 C1954 1.394 . S
C1955 C1956 1.383 . S
C1955 H1963 0.929 . S
C1956 C1955 1.383 . S
C1956 C1957 1.377 . S
C1957 H1941 0.930 . S
C1957 C1956 1.377 . S
C1957 C1958 1.379 . S
C1958 H1942 0.931 . S
C1958 C1952 1.383 . S
C1958 C1957 1.379 . S
H1959 C1953 0.959 . S
H1960 C1953 0.961 . S
H1961 C1953 0.960 . S
H1962 C1954 0.930 . S
H1963 C1955 0.929 . S
H1964 C1972 0.929 . S
H1965 C1974 0.930 . S
H1966 C1976 0.930 . S
H1967 C1979 0.929 . S
H1968 C1982 0.930 . S
H1969 C1984 0.960 . S
H1970 C1984 0.960 . S
H1971 C1984 0.960 . S
C1972 H1964 0.929 . S
C1972 C1973 1.377 . S
C1972 C1974 1.384 . S
C1973 C1972 1.377 . S
C1973 C1979 1.390 . S
C1974 H1965 0.930 . S
C1974 C1972 1.384 . S
C1974 C1975 1.372 . S
C1975 C1974 1.372 . S
C1975 C1976 1.400 . S
C1975 C1980 1.490 . S
C1976 H1966 0.930 . S
C1976 C1975 1.400 . S
C1976 C1979 1.386 . S
H1977 C1993 0.930 . S
H1978 C1994 0.931 . S
C1979 H1967 0.929 . S
C1979 C1973 1.390 . S
C1979 C1976 1.386 . S
C1980 C1975 1.490 . S
C1980 C1982 1.395 . S
C1980 C1983 1.403 . S
H1981 C1987 0.930 . S
C1982 H1968 0.930 . S
C1982 C1980 1.395 . S
C1982 C1985 1.403 . S
C1983 C1980 1.403 . S
C1983 C1984 1.524 . S
C1983 C1987 1.400 . S
C1984 H1969 0.960 . S
C1984 H1970 0.960 . S
C1984 H1971 0.960 . S
C1984 C1983 1.524 . S
C1985 C1982 1.403 . S
C1985 C1986 1.392 . S
C1985 C1989 1.495 . S
C1986 C1985 1.392 . S
C1986 C1987 1.385 . S
C1986 C1988 1.478 . S
C1987 H1981 0.930 . S
C1987 C1983 1.400 . S
C1987 C1986 1.385 . S
C1988 C1986 1.478 . S
C1988 C1990 1.381 . S
C1988 C1994 1.383 . S
C1989 C1985 1.495 . S
C1989 H1995 0.959 . S
C1989 H1996 0.961 . S
C1989 H1997 0.960 . S
C1990 C1988 1.381 . S
C1990 C1991 1.394 . S
C1990 H1998 0.930 . S
C1991 C1990 1.394 . S
C1991 C1992 1.383 . S
C1991 H1999 0.929 . S
C1992 C1991 1.383 . S
C1992 C1993 1.377 . S
C1993 H1977 0.930 . S
C1993 C1992 1.377 . S
C1993 C1994 1.379 . S
C1994 H1978 0.931 . S
C1994 C1988 1.383 . S
C1994 C1993 1.379 . S
H1995 C1989 0.959 . S
H1996 C1989 0.961 . S
H1997 C1989 0.960 . S
H1998 C1990 0.930 . S
H1999 C1991 0.929 . S
H2000 C2008 0.929 . S
H2001 C2010 0.930 . S
H2002 C2012 0.930 . S
H2003 C2015 0.929 . S
H2004 C2018 0.930 . S
H2005 C2020 0.960 . S
H2006 C2020 0.960 . S
H2007 C2020 0.960 . S
C2008 H2000 0.929 . S
C2008 C2009 1.377 . S
C2008 C2010 1.384 . S
C2009 C2008 1.377 . S
C2009 C2015 1.390 . S
C2010 H2001 0.930 . S
C2010 C2008 1.384 . S
C2010 C2011 1.372 . S
C2011 C2010 1.372 . S
C2011 C2012 1.400 . S
C2011 C2016 1.490 . S
C2012 H2002 0.930 . S
C2012 C2011 1.400 . S
C2012 C2015 1.386 . S
H2013 C2029 0.930 . S
H2014 C2030 0.931 . S
C2015 H2003 0.929 . S
C2015 C2009 1.390 . S
C2015 C2012 1.386 . S
C2016 C2011 1.490 . S
C2016 C2018 1.395 . S
C2016 C2019 1.403 . S
H2017 C2023 0.930 . S
C2018 H2004 0.930 . S
C2018 C2016 1.395 . S
C2018 C2021 1.403 . S
C2019 C2016 1.403 . S
C2019 C2020 1.524 . S
C2019 C2023 1.400 . S
C2020 H2005 0.960 . S
C2020 H2006 0.960 . S
C2020 H2007 0.960 . S
C2020 C2019 1.524 . S
C2021 C2018 1.403 . S
C2021 C2022 1.392 . S
C2021 C2025 1.495 . S
C2022 C2021 1.392 . S
C2022 C2023 1.385 . S
C2022 C2024 1.478 . S
C2023 H2017 0.930 . S
C2023 C2019 1.400 . S
C2023 C2022 1.385 . S
C2024 C2022 1.478 . S
C2024 C2026 1.381 . S
C2024 C2030 1.383 . S
C2025 C2021 1.495 . S
C2025 H2031 0.959 . S
C2025 H2032 0.961 . S
C2025 H2033 0.960 . S
C2026 C2024 1.381 . S
C2026 C2027 1.394 . S
C2026 H2034 0.930 . S
C2027 C2026 1.394 . S
C2027 C2028 1.383 . S
C2027 H2035 0.929 . S
C2028 C2027 1.383 . S
C2028 C2029 1.377 . S
C2029 H2013 0.930 . S
C2029 C2028 1.377 . S
C2029 C2030 1.379 . S
C2030 H2014 0.931 . S
C2030 C2024 1.383 . S
C2030 C2029 1.379 . S
H2031 C2025 0.959 . S
H2032 C2025 0.961 . S
H2033 C2025 0.960 . S
H2034 C2026 0.930 . S
H2035 C2027 0.929 . S
H2036 C2044 0.929 . S
H2037 C2046 0.930 . S
H2038 C2048 0.930 . S
H2039 C2051 0.929 . S
H2040 C2054 0.930 . S
H2041 C2056 0.960 . S
H2042 C2056 0.960 . S
H2043 C2056 0.960 . S
C2044 H2036 0.929 . S
C2044 C2045 1.377 . S
C2044 C2046 1.384 . S
C2045 C2044 1.377 . S
C2045 C2051 1.390 . S
C2046 H2037 0.930 . S
C2046 C2044 1.384 . S
C2046 C2047 1.372 . S
C2047 C2046 1.372 . S
C2047 C2048 1.400 . S
C2047 C2052 1.490 . S
C2048 H2038 0.930 . S
C2048 C2047 1.400 . S
C2048 C2051 1.386 . S
H2049 C2065 0.930 . S
H2050 C2066 0.931 . S
C2051 H2039 0.929 . S
C2051 C2045 1.390 . S
C2051 C2048 1.386 . S
C2052 C2047 1.490 . S
C2052 C2054 1.395 . S
C2052 C2055 1.403 . S
H2053 C2059 0.930 . S
C2054 H2040 0.930 . S
C2054 C2052 1.395 . S
C2054 C2057 1.403 . S
C2055 C2052 1.403 . S
C2055 C2056 1.524 . S
C2055 C2059 1.400 . S
C2056 H2041 0.960 . S
C2056 H2042 0.960 . S
C2056 H2043 0.960 . S
C2056 C2055 1.524 . S
C2057 C2054 1.403 . S
C2057 C2058 1.392 . S
C2057 C2061 1.495 . S
C2058 C2057 1.392 . S
C2058 C2059 1.385 . S
C2058 C2060 1.478 . S
C2059 H2053 0.930 . S
C2059 C2055 1.400 . S
C2059 C2058 1.385 . S
C2060 C2058 1.478 . S
C2060 C2062 1.381 . S
C2060 C2066 1.383 . S
C2061 C2057 1.495 . S
C2061 H2067 0.959 . S
C2061 H2068 0.961 . S
C2061 H2069 0.960 . S
C2062 C2060 1.381 . S
C2062 C2063 1.394 . S
C2062 H2070 0.930 . S
C2063 C2062 1.394 . S
C2063 C2064 1.383 . S
C2063 H2071 0.929 . S
C2064 C2063 1.383 . S
C2064 C2065 1.377 . S
C2065 H2049 0.930 . S
C2065 C2064 1.377 . S
C2065 C2066 1.379 . S
C2066 H2050 0.931 . S
C2066 C2060 1.383 . S
C2066 C2065 1.379 . S
H2067 C2061 0.959 . S
H2068 C2061 0.961 . S
H2069 C2061 0.960 . S
H2070 C2062 0.930 . S
H2071 C2063 0.929 . S
H2072 C2080 0.929 . S
H2073 C2082 0.930 . S
H2074 C2084 0.930 . S
H2075 C2087 0.929 . S
H2076 C2090 0.930 . S
H2077 C2092 0.960 . S
H2078 C2092 0.960 . S
H2079 C2092 0.960 . S
C2080 H2072 0.929 . S
C2080 C2081 1.377 . S
C2080 C2082 1.384 . S
C2081 C2080 1.377 . S
C2081 C2087 1.390 . S
C2082 H2073 0.930 . S
C2082 C2080 1.384 . S
C2082 C2083 1.372 . S
C2083 C2082 1.372 . S
C2083 C2084 1.400 . S
C2083 C2088 1.490 . S
C2084 H2074 0.930 . S
C2084 C2083 1.400 . S
C2084 C2087 1.386 . S
H2085 C2101 0.930 . S
H2086 C2102 0.931 . S
C2087 H2075 0.929 . S
C2087 C2081 1.390 . S
C2087 C2084 1.386 . S
C2088 C2083 1.490 . S
C2088 C2090 1.395 . S
C2088 C2091 1.403 . S
H2089 C2095 0.930 . S
C2090 H2076 0.930 . S
C2090 C2088 1.395 . S
C2090 C2093 1.403 . S
C2091 C2088 1.403 . S
C2091 C2092 1.524 . S
C2091 C2095 1.400 . S
C2092 H2077 0.960 . S
C2092 H2078 0.960 . S
C2092 H2079 0.960 . S
C2092 C2091 1.524 . S
C2093 C2090 1.403 . S
C2093 C2094 1.392 . S
C2093 C2097 1.495 . S
C2094 C2093 1.392 . S
C2094 C2095 1.385 . S
C2094 C2096 1.478 . S
C2095 H2089 0.930 . S
C2095 C2091 1.400 . S
C2095 C2094 1.385 . S
C2096 C2094 1.478 . S
C2096 C2098 1.381 . S
C2096 C2102 1.383 . S
C2097 C2093 1.495 . S
C2097 H2103 0.959 . S
C2097 H2104 0.961 . S
C2097 H2105 0.960 . S
C2098 C2096 1.381 . S
C2098 C2099 1.394 . S
C2098 H2106 0.930 . S
C2099 C2098 1.394 . S
C2099 C2100 1.383 . S
C2099 H2107 0.929 . S
C2100 C2099 1.383 . S
C2100 C2101 1.377 . S
C2101 H2085 0.930 . S
C2101 C2100 1.377 . S
C2101 C2102 1.379 . S
C2102 H2086 0.931 . S
C2102 C2096 1.383 . S
C2102 C2101 1.379 . S
H2103 C2097 0.959 . S
H2104 C2097 0.961 . S
H2105 C2097 0.960 . S
H2106 C2098 0.930 . S
H2107 C2099 0.929 . S
H2108 C2116 0.929 . S
H2109 C2118 0.930 . S
H2110 C2120 0.930 . S
H2111 C2123 0.929 . S
H2112 C2126 0.930 . S
H2113 C2128 0.960 . S
H2114 C2128 0.960 . S
H2115 C2128 0.960 . S
C2116 H2108 0.929 . S
C2116 C2117 1.377 . S
C2116 C2118 1.384 . S
C2117 C2116 1.377 . S
C2117 C2123 1.390 . S
C2118 H2109 0.930 . S
C2118 C2116 1.384 . S
C2118 C2119 1.372 . S
C2119 C2118 1.372 . S
C2119 C2120 1.400 . S
C2119 C2124 1.490 . S
C2120 H2110 0.930 . S
C2120 C2119 1.400 . S
C2120 C2123 1.386 . S
H2121 C2137 0.930 . S
H2122 C2138 0.931 . S
C2123 H2111 0.929 . S
C2123 C2117 1.390 . S
C2123 C2120 1.386 . S
C2124 C2119 1.490 . S
C2124 C2126 1.395 . S
C2124 C2127 1.403 . S
H2125 C2131 0.930 . S
C2126 H2112 0.930 . S
C2126 C2124 1.395 . S
C2126 C2129 1.403 . S
C2127 C2124 1.403 . S
C2127 C2128 1.524 . S
C2127 C2131 1.400 . S
C2128 H2113 0.960 . S
C2128 H2114 0.960 . S
C2128 H2115 0.960 . S
C2128 C2127 1.524 . S
C2129 C2126 1.403 . S
C2129 C2130 1.392 . S
C2129 C2133 1.495 . S
C2130 C2129 1.392 . S
C2130 C2131 1.385 . S
C2130 C2132 1.478 . S
C2131 H2125 0.930 . S
C2131 C2127 1.400 . S
C2131 C2130 1.385 . S
C2132 C2130 1.478 . S
C2132 C2134 1.381 . S
C2132 C2138 1.383 . S
C2133 C2129 1.495 . S
C2133 H2139 0.959 . S
C2133 H2140 0.961 . S
C2133 H2141 0.960 . S
C2134 C2132 1.381 . S
C2134 C2135 1.394 . S
C2134 H2142 0.930 . S
C2135 C2134 1.394 . S
C2135 C2136 1.383 . S
C2135 H2143 0.929 . S
C2136 C2135 1.383 . S
C2136 C2137 1.377 . S
C2137 H2121 0.930 . S
C2137 C2136 1.377 . S
C2137 C2138 1.379 . S
C2138 H2122 0.931 . S
C2138 C2132 1.383 . S
C2138 C2137 1.379 . S
H2139 C2133 0.959 . S
H2140 C2133 0.961 . S
H2141 C2133 0.960 . S
H2142 C2134 0.930 . S
H2143 C2135 0.929 . S
H2144 C2152 0.929 . S
H2145 C2154 0.930 . S
H2146 C2156 0.930 . S
H2147 C2159 0.929 . S
H2148 C2162 0.930 . S
H2149 C2164 0.960 . S
H2150 C2164 0.960 . S
H2151 C2164 0.960 . S
C2152 H2144 0.929 . S
C2152 C2153 1.377 . S
C2152 C2154 1.384 . S
C2153 C2152 1.377 . S
C2153 C2159 1.390 . S
C2154 H2145 0.930 . S
C2154 C2152 1.384 . S
C2154 C2155 1.372 . S
C2155 C2154 1.372 . S
C2155 C2156 1.400 . S
C2155 C2160 1.490 . S
C2156 H2146 0.930 . S
C2156 C2155 1.400 . S
C2156 C2159 1.386 . S
H2157 C2173 0.930 . S
H2158 C2174 0.931 . S
C2159 H2147 0.929 . S
C2159 C2153 1.390 . S
C2159 C2156 1.386 . S
C2160 C2155 1.490 . S
C2160 C2162 1.395 . S
C2160 C2163 1.403 . S
H2161 C2167 0.930 . S
C2162 H2148 0.930 . S
C2162 C2160 1.395 . S
C2162 C2165 1.403 . S
C2163 C2160 1.403 . S
C2163 C2164 1.524 . S
C2163 C2167 1.400 . S
C2164 H2149 0.960 . S
C2164 H2150 0.960 . S
C2164 H2151 0.960 . S
C2164 C2163 1.524 . S
C2165 C2162 1.403 . S
C2165 C2166 1.392 . S
C2165 C2169 1.495 . S
C2166 C2165 1.392 . S
C2166 C2167 1.385 . S
C2166 C2168 1.478 . S
C2167 H2161 0.930 . S
C2167 C2163 1.400 . S
C2167 C2166 1.385 . S
C2168 C2166 1.478 . S
C2168 C2170 1.381 . S
C2168 C2174 1.383 . S
C2169 C2165 1.495 . S
C2169 H2175 0.959 . S
C2169 H2176 0.961 . S
C2169 H2177 0.960 . S
C2170 C2168 1.381 . S
C2170 C2171 1.394 . S
C2170 H2178 0.930 . S
C2171 C2170 1.394 . S
C2171 C2172 1.383 . S
C2171 H2179 0.929 . S
C2172 C2171 1.383 . S
C2172 C2173 1.377 . S
C2173 H2157 0.930 . S
C2173 C2172 1.377 . S
C2173 C2174 1.379 . S
C2174 H2158 0.931 . S
C2174 C2168 1.383 . S
C2174 C2173 1.379 . S
H2175 C2169 0.959 . S
H2176 C2169 0.961 . S
H2177 C2169 0.960 . S
H2178 C2170 0.930 . S
H2179 C2171 0.929 . S
H2180 C2188 0.929 . S
H2181 C2190 0.930 . S
H2182 C2192 0.930 . S
H2183 C2195 0.929 . S
H2184 C2198 0.930 . S
H2185 C2200 0.960 . S
H2186 C2200 0.960 . S
H2187 C2200 0.960 . S
C2188 H2180 0.929 . S
C2188 C2189 1.377 . S
C2188 C2190 1.384 . S
C2189 C2188 1.377 . S
C2189 C2195 1.390 . S
C2190 H2181 0.930 . S
C2190 C2188 1.384 . S
C2190 C2191 1.372 . S
C2191 C2190 1.372 . S
C2191 C2192 1.400 . S
C2191 C2196 1.490 . S
C2192 H2182 0.930 . S
C2192 C2191 1.400 . S
C2192 C2195 1.386 . S
H2193 C2209 0.930 . S
H2194 C2210 0.931 . S
C2195 H2183 0.929 . S
C2195 C2189 1.390 . S
C2195 C2192 1.386 . S
C2196 C2191 1.490 . S
C2196 C2198 1.395 . S
C2196 C2199 1.403 . S
H2197 C2203 0.930 . S
C2198 H2184 0.930 . S
C2198 C2196 1.395 . S
C2198 C2201 1.403 . S
C2199 C2196 1.403 . S
C2199 C2200 1.524 . S
C2199 C2203 1.400 . S
C2200 H2185 0.960 . S
C2200 H2186 0.960 . S
C2200 H2187 0.960 . S
C2200 C2199 1.524 . S
C2201 C2198 1.403 . S
C2201 C2202 1.392 . S
C2201 C2205 1.495 . S
C2202 C2201 1.392 . S
C2202 C2203 1.385 . S
C2202 C2204 1.478 . S
C2203 H2197 0.930 . S
C2203 C2199 1.400 . S
C2203 C2202 1.385 . S
C2204 C2202 1.478 . S
C2204 C2206 1.381 . S
C2204 C2210 1.383 . S
C2205 C2201 1.495 . S
C2205 H2211 0.959 . S
C2205 H2212 0.961 . S
C2205 H2213 0.960 . S
C2206 C2204 1.381 . S
C2206 C2207 1.394 . S
C2206 H2214 0.930 . S
C2207 C2206 1.394 . S
C2207 C2208 1.383 . S
C2207 H2215 0.929 . S
C2208 C2207 1.383 . S
C2208 C2209 1.377 . S
C2209 H2193 0.930 . S
C2209 C2208 1.377 . S
C2209 C2210 1.379 . S
C2210 H2194 0.931 . S
C2210 C2204 1.383 . S
C2210 C2209 1.379 . S
H2211 C2205 0.959 . S
H2212 C2205 0.961 . S
H2213 C2205 0.960 . S
H2214 C2206 0.930 . S
H2215 C2207 0.929 . S
H2216 C2224 0.929 . S
H2217 C2226 0.930 . S
H2218 C2228 0.930 . S
H2219 C2231 0.929 . S
H2220 C2234 0.930 . S
H2221 C2236 0.960 . S
H2222 C2236 0.960 . S
H2223 C2236 0.960 . S
C2224 H2216 0.929 . S
C2224 C2225 1.377 . S
C2224 C2226 1.384 . S
C2225 C2224 1.377 . S
C2225 C2231 1.390 . S
C2226 H2217 0.930 . S
C2226 C2224 1.384 . S
C2226 C2227 1.372 . S
C2227 C2226 1.372 . S
C2227 C2228 1.400 . S
C2227 C2232 1.490 . S
C2228 H2218 0.930 . S
C2228 C2227 1.400 . S
C2228 C2231 1.386 . S
H2229 C2245 0.930 . S
H2230 C2246 0.931 . S
C2231 H2219 0.929 . S
C2231 C2225 1.390 . S
C2231 C2228 1.386 . S
C2232 C2227 1.490 . S
C2232 C2234 1.395 . S
C2232 C2235 1.403 . S
H2233 C2239 0.930 . S
C2234 H2220 0.930 . S
C2234 C2232 1.395 . S
C2234 C2237 1.403 . S
C2235 C2232 1.403 . S
C2235 C2236 1.524 . S
C2235 C2239 1.400 . S
C2236 H2221 0.960 . S
C2236 H2222 0.960 . S
C2236 H2223 0.960 . S
C2236 C2235 1.524 . S
C2237 C2234 1.403 . S
C2237 C2238 1.392 . S
C2237 C2241 1.495 . S
C2238 C2237 1.392 . S
C2238 C2239 1.385 . S
C2238 C2240 1.478 . S
C2239 H2233 0.930 . S
C2239 C2235 1.400 . S
C2239 C2238 1.385 . S
C2240 C2238 1.478 . S
C2240 C2242 1.381 . S
C2240 C2246 1.383 . S
C2241 C2237 1.495 . S
C2241 H2247 0.959 . S
C2241 H2248 0.961 . S
C2241 H2249 0.960 . S
C2242 C2240 1.381 . S
C2242 C2243 1.394 . S
C2242 H2250 0.930 . S
C2243 C2242 1.394 . S
C2243 C2244 1.383 . S
C2243 H2251 0.929 . S
C2244 C2243 1.383 . S
C2244 C2245 1.377 . S
C2245 H2229 0.930 . S
C2245 C2244 1.377 . S
C2245 C2246 1.379 . S
C2246 H2230 0.931 . S
C2246 C2240 1.383 . S
C2246 C2245 1.379 . S
H2247 C2241 0.959 . S
H2248 C2241 0.961 . S
H2249 C2241 0.960 . S
H2250 C2242 0.930 . S
H2251 C2243 0.929 . S
H2252 C2260 0.929 . S
H2253 C2262 0.930 . S
H2254 C2264 0.930 . S
H2255 C2267 0.929 . S
H2256 C2270 0.930 . S
H2257 C2272 0.960 . S
H2258 C2272 0.960 . S
H2259 C2272 0.960 . S
C2260 H2252 0.929 . S
C2260 C2261 1.377 . S
C2260 C2262 1.384 . S
C2261 C2260 1.377 . S
C2261 C2267 1.390 . S
C2262 H2253 0.930 . S
C2262 C2260 1.384 . S
C2262 C2263 1.372 . S
C2263 C2262 1.372 . S
C2263 C2264 1.400 . S
C2263 C2268 1.490 . S
C2264 H2254 0.930 . S
C2264 C2263 1.400 . S
C2264 C2267 1.386 . S
H2265 C2281 0.930 . S
H2266 C2282 0.931 . S
C2267 H2255 0.929 . S
C2267 C2261 1.390 . S
C2267 C2264 1.386 . S
C2268 C2263 1.490 . S
C2268 C2270 1.395 . S
C2268 C2271 1.403 . S
H2269 C2275 0.930 . S
C2270 H2256 0.930 . S
C2270 C2268 1.395 . S
C2270 C2273 1.403 . S
C2271 C2268 1.403 . S
C2271 C2272 1.524 . S
C2271 C2275 1.400 . S
C2272 H2257 0.960 . S
C2272 H2258 0.960 . S
C2272 H2259 0.960 . S
C2272 C2271 1.524 . S
C2273 C2270 1.403 . S
C2273 C2274 1.392 . S
C2273 C2277 1.495 . S
C2274 C2273 1.392 . S
C2274 C2275 1.385 . S
C2274 C2276 1.478 . S
C2275 H2269 0.930 . S
C2275 C2271 1.400 . S
C2275 C2274 1.385 . S
C2276 C2274 1.478 . S
C2276 C2278 1.381 . S
C2276 C2282 1.383 . S
C2277 C2273 1.495 . S
C2277 H2283 0.959 . S
C2277 H2284 0.961 . S
C2277 H2285 0.960 . S
C2278 C2276 1.381 . S
C2278 C2279 1.394 . S
C2278 H2286 0.930 . S
C2279 C2278 1.394 . S
C2279 C2280 1.383 . S
C2279 H2287 0.929 . S
C2280 C2279 1.383 . S
C2280 C2281 1.377 . S
C2281 H2265 0.930 . S
C2281 C2280 1.377 . S
C2281 C2282 1.379 . S
C2282 H2266 0.931 . S
C2282 C2276 1.383 . S
C2282 C2281 1.379 . S
H2283 C2277 0.959 . S
H2284 C2277 0.961 . S
H2285 C2277 0.960 . S
H2286 C2278 0.930 . S
H2287 C2279 0.929 . S
H2288 C2296 0.929 . S
H2289 C2298 0.930 . S
H2290 C2300 0.930 . S
H2291 C2303 0.929 . S
H2292 C2306 0.930 . S
H2293 C2308 0.960 . S
H2294 C2308 0.960 . S
H2295 C2308 0.960 . S
C2296 H2288 0.929 . S
C2296 C2297 1.377 . S
C2296 C2298 1.384 . S
C2297 C2296 1.377 . S
C2297 C2303 1.390 . S
C2298 H2289 0.930 . S
C2298 C2296 1.384 . S
C2298 C2299 1.372 . S
C2299 C2298 1.372 . S
C2299 C2300 1.400 . S
C2299 C2304 1.490 . S
C2300 H2290 0.930 . S
C2300 C2299 1.400 . S
C2300 C2303 1.386 . S
H2301 C2317 0.930 . S
H2302 C2318 0.931 . S
C2303 H2291 0.929 . S
C2303 C2297 1.390 . S
C2303 C2300 1.386 . S
C2304 C2299 1.490 . S
C2304 C2306 1.395 . S
C2304 C2307 1.403 . S
H2305 C2311 0.930 . S
C2306 H2292 0.930 . S
C2306 C2304 1.395 . S
C2306 C2309 1.403 . S
C2307 C2304 1.403 . S
C2307 C2308 1.524 . S
C2307 C2311 1.400 . S
C2308 H2293 0.960 . S
C2308 H2294 0.960 . S
C2308 H2295 0.960 . S
C2308 C2307 1.524 . S
C2309 C2306 1.403 . S
C2309 C2310 1.392 . S
C2309 C2313 1.495 . S
C2310 C2309 1.392 . S
C2310 C2311 1.385 . S
C2310 C2312 1.478 . S
C2311 H2305 0.930 . S
C2311 C2307 1.400 . S
C2311 C2310 1.385 . S
C2312 C2310 1.478 . S
C2312 C2314 1.381 . S
C2312 C2318 1.383 . S
C2313 C2309 1.495 . S
C2313 H2319 0.959 . S
C2313 H2320 0.961 . S
C2313 H2321 0.960 . S
C2314 C2312 1.381 . S
C2314 C2315 1.394 . S
C2314 H2322 0.930 . S
C2315 C2314 1.394 . S
C2315 C2316 1.383 . S
C2315 H2323 0.929 . S
C2316 C2315 1.383 . S
C2316 C2317 1.377 . S
C2317 H2301 0.930 . S
C2317 C2316 1.377 . S
C2317 C2318 1.379 . S
C2318 H2302 0.931 . S
C2318 C2312 1.383 . S
C2318 C2317 1.379 . S
H2319 C2313 0.959 . S
H2320 C2313 0.961 . S
H2321 C2313 0.960 . S
H2322 C2314 0.930 . S
H2323 C2315 0.929 . S
C624 C282 1.549 . S
C605 N2 1.523 . S
C660 C325 2.438 . S
C641 C7 2.438 . S
C696 C362 1.583 . S
C677 N12 1.463 1_565 S
C713 C16 2.362 1_565 S
C732 C405 2.412 . S
C768 C454 2.569 . S
C749 C30 2.553 1_565 S
C804 C491 1.401 . S
C785 N35 1.335 . S
C821 C39 2.561 . S
C840 C534 2.544 . S
C876 C571 1.368 . S
C857 N25 1.240 1_565 S
C912 C286 1.367 . S
C893 N58 1.322 . S
C929 N81 1.947 . S
C948 C335 1.981 . S
C984 C366 1.369 . S
C965 N104 1.308 . S
C1001 N127 1.996 . S
C1020 C415 2.009 . S
C1056 C442 0.551 . S
C1037 N48 0.483 . S
C1092 C485 1.636 . S
C1073 N71 1.649 . S
C1109 N94 0.458 . S
C1128 C522 0.464 . S
C1164 C565 1.591 . S
C1145 N117 1.658 . S
C1181 C85 2.107 . S
C1200 C294 2.039 . S
C1217 C122 2.380 . S
C1236 C446 2.349 . S
C1253 C53 2.002 . S
C1272 C495 2.015 . S
C1308 C526 2.396 . S
C1289 C76 2.433 . S
C1344 C575 2.019 . S
C1325 C99 2.006 . S
C1380 C374 2.018 . S
C1361 C131 2.081 . S
C1416 C411 0.736 . S
C1397 C62 0.769 . S
C1433 C108 0.791 . S
C1452 C331 0.829 . S
C1488 C562 1.650 . S
C1469 N140 1.639 . S
C1505 C145 2.431 . S
C1524 C445 2.449 . S
C1560 C482 1.488 . S
C1541 N150 1.375 . S
C1577 C154 2.367 . S
C1596 C525 2.434 . S
C1632 C334 2.557 . S
C1613 C168 2.534 . S
C1649 N173 1.228 . S
C1668 C371 1.293 . S
C1704 C414 2.539 . S
C1685 C177 2.555 . S
C1740 C291 1.463 . S
C1721 N163 1.340 . S
C1776 C566 1.856 . S
C1757 C200 1.845 . S
C1812 C455 2.279 . S
C1793 N219 2.245 . S
C1829 N242 1.569 . S
C1848 C486 1.635 . S
C1884 C535 2.361 . S
C1865 C269 2.418 . S
C1920 C322 0.753 . S
C1901 C191 0.792 . S
C1937 N209 1.907 . S
C1956 C365 1.877 . S
C1973 N232 0.717 . S
C1992 C402 0.728 . S
C2009 C260 2.132 . S
C2028 C285 2.043 . S
C2045 C223 1.816 . S
C2064 C574 1.719 . S
C2081 N255 1.931 . S
C2100 C326 1.985 . S
C2117 N186 1.464 . S
C2136 C375 1.500 . S
C2172 C406 2.079 . S
C2153 C214 2.110 . S
C2208 C295 1.740 . S
C2189 C237 1.728 . S
C2244 C494 1.547 . S
C2225 N265 1.604 . S
C2280 C531 0.483 . S
C2261 N196 0.456 . S
C2316 C451 0.575 . S
C2297 C246 0.519 . S
